# Generated by pormake.
# Topology bcs, (6)-cn, num edge types: 1
# Building blocks:
#     Node 0, Type 0, BuildingBlock: INOVEN_clean_sbu_0, # of connection points: 6
#     Node 1, Type 0, BuildingBlock: INOVEN_clean_sbu_0, # of connection points: 6
#     Node 2, Type 0, BuildingBlock: INOVEN_clean_sbu_0, # of connection points: 6
#     Node 3, Type 0, BuildingBlock: INOVEN_clean_sbu_0, # of connection points: 6
#     Node 4, Type 0, BuildingBlock: INOVEN_clean_sbu_0, # of connection points: 6
#     Node 5, Type 0, BuildingBlock: INOVEN_clean_sbu_0, # of connection points: 6
#     Node 6, Type 0, BuildingBlock: INOVEN_clean_sbu_0, # of connection points: 6
#     Node 7, Type 0, BuildingBlock: INOVEN_clean_sbu_0, # of connection points: 6
#     Node 8, Type 0, BuildingBlock: INOVEN_clean_sbu_0, # of connection points: 6
#     Node 9, Type 0, BuildingBlock: INOVEN_clean_sbu_0, # of connection points: 6
#     Node 10, Type 0, BuildingBlock: INOVEN_clean_sbu_0, # of connection points: 6
#     Node 11, Type 0, BuildingBlock: INOVEN_clean_sbu_0, # of connection points: 6
#     Node 12, Type 0, BuildingBlock: INOVEN_clean_sbu_0, # of connection points: 6
#     Node 13, Type 0, BuildingBlock: INOVEN_clean_sbu_0, # of connection points: 6
#     Node 14, Type 0, BuildingBlock: INOVEN_clean_sbu_0, # of connection points: 6
#     Node 15, Type 0, BuildingBlock: INOVEN_clean_sbu_0, # of connection points: 6
#     Edge 16, Type (0, 0), BuildingBlock: XIVTED_clean_linker_0, # of connection points: 2
#     Edge 17, Type (0, 0), BuildingBlock: XIVTED_clean_linker_0, # of connection points: 2
#     Edge 18, Type (0, 0), BuildingBlock: XIVTED_clean_linker_0, # of connection points: 2
#     Edge 19, Type (0, 0), BuildingBlock: XIVTED_clean_linker_0, # of connection points: 2
#     Edge 20, Type (0, 0), BuildingBlock: XIVTED_clean_linker_0, # of connection points: 2
#     Edge 21, Type (0, 0), BuildingBlock: XIVTED_clean_linker_0, # of connection points: 2
#     Edge 22, Type (0, 0), BuildingBlock: XIVTED_clean_linker_0, # of connection points: 2
#     Edge 23, Type (0, 0), BuildingBlock: XIVTED_clean_linker_0, # of connection points: 2
#     Edge 24, Type (0, 0), BuildingBlock: XIVTED_clean_linker_0, # of connection points: 2
#     Edge 25, Type (0, 0), BuildingBlock: XIVTED_clean_linker_0, # of connection points: 2
#     Edge 26, Type (0, 0), BuildingBlock: XIVTED_clean_linker_0, # of connection points: 2
#     Edge 27, Type (0, 0), BuildingBlock: XIVTED_clean_linker_0, # of connection points: 2
#     Edge 28, Type (0, 0), BuildingBlock: XIVTED_clean_linker_0, # of connection points: 2
#     Edge 29, Type (0, 0), BuildingBlock: XIVTED_clean_linker_0, # of connection points: 2
#     Edge 30, Type (0, 0), BuildingBlock: XIVTED_clean_linker_0, # of connection points: 2
#     Edge 31, Type (0, 0), BuildingBlock: XIVTED_clean_linker_0, # of connection points: 2
#     Edge 32, Type (0, 0), BuildingBlock: XIVTED_clean_linker_0, # of connection points: 2
#     Edge 33, Type (0, 0), BuildingBlock: XIVTED_clean_linker_0, # of connection points: 2
#     Edge 34, Type (0, 0), BuildingBlock: XIVTED_clean_linker_0, # of connection points: 2
#     Edge 35, Type (0, 0), BuildingBlock: XIVTED_clean_linker_0, # of connection points: 2
#     Edge 36, Type (0, 0), BuildingBlock: XIVTED_clean_linker_0, # of connection points: 2
#     Edge 37, Type (0, 0), BuildingBlock: XIVTED_clean_linker_0, # of connection points: 2
#     Edge 38, Type (0, 0), BuildingBlock: XIVTED_clean_linker_0, # of connection points: 2
#     Edge 39, Type (0, 0), BuildingBlock: XIVTED_clean_linker_0, # of connection points: 2
#     Edge 40, Type (0, 0), BuildingBlock: XIVTED_clean_linker_0, # of connection points: 2
#     Edge 41, Type (0, 0), BuildingBlock: XIVTED_clean_linker_0, # of connection points: 2
#     Edge 42, Type (0, 0), BuildingBlock: XIVTED_clean_linker_0, # of connection points: 2
#     Edge 43, Type (0, 0), BuildingBlock: XIVTED_clean_linker_0, # of connection points: 2
#     Edge 44, Type (0, 0), BuildingBlock: XIVTED_clean_linker_0, # of connection points: 2
#     Edge 45, Type (0, 0), BuildingBlock: XIVTED_clean_linker_0, # of connection points: 2
#     Edge 46, Type (0, 0), BuildingBlock: XIVTED_clean_linker_0, # of connection points: 2
#     Edge 47, Type (0, 0), BuildingBlock: XIVTED_clean_linker_0, # of connection points: 2
#     Edge 48, Type (0, 0), BuildingBlock: XIVTED_clean_linker_0, # of connection points: 2
#     Edge 49, Type (0, 0), BuildingBlock: XIVTED_clean_linker_0, # of connection points: 2
#     Edge 50, Type (0, 0), BuildingBlock: XIVTED_clean_linker_0, # of connection points: 2
#     Edge 51, Type (0, 0), BuildingBlock: XIVTED_clean_linker_0, # of connection points: 2
#     Edge 52, Type (0, 0), BuildingBlock: XIVTED_clean_linker_0, # of connection points: 2
#     Edge 53, Type (0, 0), BuildingBlock: XIVTED_clean_linker_0, # of connection points: 2
#     Edge 54, Type (0, 0), BuildingBlock: XIVTED_clean_linker_0, # of connection points: 2
#     Edge 55, Type (0, 0), BuildingBlock: XIVTED_clean_linker_0, # of connection points: 2
#     Edge 56, Type (0, 0), BuildingBlock: XIVTED_clean_linker_0, # of connection points: 2
#     Edge 57, Type (0, 0), BuildingBlock: XIVTED_clean_linker_0, # of connection points: 2
#     Edge 58, Type (0, 0), BuildingBlock: XIVTED_clean_linker_0, # of connection points: 2
#     Edge 59, Type (0, 0), BuildingBlock: XIVTED_clean_linker_0, # of connection points: 2
#     Edge 60, Type (0, 0), BuildingBlock: XIVTED_clean_linker_0, # of connection points: 2
#     Edge 61, Type (0, 0), BuildingBlock: XIVTED_clean_linker_0, # of connection points: 2
#     Edge 62, Type (0, 0), BuildingBlock: XIVTED_clean_linker_0, # of connection points: 2
#     Edge 63, Type (0, 0), BuildingBlock: XIVTED_clean_linker_0, # of connection points: 2
# Relax obj value: 0.245
# Max RMSD: 0.251
# Mean RMSD: 0.187
data_MOF--net-bcs--node1-INOVEN_clean_sbu_0--edge1-XIVTED_clean_linker_0
_symmetry_space_group_name_H-M    P1
_symmetry_Int_Tables_number       1
_symmetry_cell_setting            triclinic
loop_
_symmetry_equiv_pos_as_xyz
'x, y, z'
_cell_length_a     41.958171
_cell_length_b     43.784491
_cell_length_c     40.137522
_cell_angle_alpha  87.495596
_cell_angle_beta   98.436326
_cell_angle_gamma 120.67091
loop_
_atom_site_label
_atom_site_type_symbol
_atom_site_fract_x
_atom_site_fract_y
_atom_site_fract_z
_atom_type_partial_charge
Gd0 Gd 0.08197 0.04489 0.06076 0.0
Gd1 Gd 1.01936 0.01879 0.99568 0.0
C2 C 0.08515 0.99715 0.99948 0.0
C3 C 0.11984 0.05157 0.11925 0.0
C4 C 0.15963 0.06674 0.13199 0.0
C5 C 0.18685 0.08505 0.1107 0.0
C6 C 0.17036 0.06106 0.16517 0.0
C7 C 0.23446 0.08622 0.15407 0.0
C8 C 0.20749 0.07079 0.17621 0.0
C9 C 0.22414 0.095 0.12177 0.0
C10 C 0.10842 0.09078 0.00974 0.0
C11 C 1.01486 0.06503 0.05684 0.0
C12 C 0.97733 0.01596 0.94127 0.0
C13 C 0.93929 0.01021 0.93837 0.0
C14 C 0.91692 0.99168 0.96339 0.0
C15 C 0.92859 0.02943 0.91537 0.0
C16 C 0.87795 0.01732 0.94655 0.0
C17 C 0.89795 0.03279 0.91928 0.0
C18 C 0.88656 0.99529 0.96751 0.0
C19 C 0.99322 0.97436 0.04812 0.0
O20 O 0.09647 0.00948 0.03172 0.0
O21 O 0.05812 1.00043 0.98043 0.0
O22 O 0.11008 0.07455 0.10785 0.0
O23 O 0.10436 0.02261 0.09997 0.0
O24 O 0.12708 0.09469 0.0395 0.0
O25 O 0.07671 0.06304 0.0095 0.0
O26 O 1.00319 0.05223 0.02497 0.0
O27 O 1.04253 0.06264 0.07548 0.0
O28 O 0.98114 0.98887 0.95121 0.0
O29 O 1.00332 0.04612 0.95678 0.0
O30 O 0.97475 0.96897 0.01809 0.0
O31 O 1.02475 1.00182 0.04734 0.0
H32 H 0.17897 0.09003 0.08504 0.0
H33 H 0.14966 0.04728 0.18197 0.0
H34 H 0.21408 0.06317 0.20113 0.0
H35 H 0.2443 0.10729 0.1043 0.0
H36 H 0.92449 0.9766 0.98146 0.0
H37 H 0.94567 0.04418 0.89612 0.0
H38 H 0.89224 0.05026 0.90287 0.0
H39 H 0.87135 0.98271 0.98843 0.0
Gd40 Gd 0.33908 0.77724 0.27808 0.0
Gd41 Gd 0.27643 0.78934 0.28402 0.0
C42 C 0.26917 0.72182 0.31809 0.0
C43 C 0.38668 0.75657 0.29089 0.0
C44 C 0.38019 0.72407 0.30849 0.0
C45 C 0.38024 0.69697 0.29123 0.0
C46 C 0.3662 0.71688 0.33945 0.0
C47 C 0.34771 0.65482 0.33317 0.0
C48 C 0.34993 0.68259 0.35153 0.0
C49 C 0.36429 0.66269 0.3035 0.0
C50 C 0.28541 0.75464 0.22385 0.0
C51 C 0.34619 0.84461 0.24389 0.0
C52 C 0.22874 0.80993 0.27111 0.0
C53 C 0.23469 0.84182 0.25264 0.0
C54 C 0.23368 0.8689 0.26891 0.0
C55 C 0.24907 0.8486 0.2219 0.0
C56 C 0.26616 0.91043 0.22651 0.0
C57 C 0.26488 0.88259 0.20912 0.0
C58 C 0.24906 0.90283 0.25589 0.0
C59 C 0.33044 0.81212 0.33809 0.0
O60 O 0.30506 0.73691 0.31507 0.0
O61 O 0.24845 0.73448 0.30311 0.0
O62 O 0.36594 0.75069 0.26153 0.0
O63 O 0.38841 0.78176 0.30889 0.0
O64 O 0.32087 0.76995 0.22189 0.0
O65 O 0.27987 0.75071 0.25421 0.0
O66 O 0.31026 0.82933 0.24677 0.0
O67 O 0.36705 0.83219 0.25913 0.0
O68 O 0.25022 0.81672 0.30016 0.0
O69 O 0.22657 0.78417 0.25366 0.0
O70 O 0.295 0.7967 0.34027 0.0
O71 O 0.33566 0.81601 0.30767 0.0
H72 H 0.39079 0.70183 0.2673 0.0
H73 H 0.36571 0.7372 0.35343 0.0
H74 H 0.33771 0.67764 0.37455 0.0
H75 H 0.36435 0.64224 0.28934 0.0
H76 H 0.22279 0.86433 0.29265 0.0
H77 H 0.25022 0.82824 0.20866 0.0
H78 H 0.27748 0.88725 0.18636 0.0
H79 H 0.24817 0.92325 0.26929 0.0
Gd80 Gd 0.56096 0.97505 0.59231 0.0
Gd81 Gd 0.60377 0.99001 0.53712 0.0
C82 C 0.54885 0.02559 0.52832 0.0
C83 C 0.5313 0.98008 0.64213 0.0
C84 C 0.50169 0.98742 0.64557 0.0
C85 C 0.498 0.99573 0.67748 0.0
C86 C 0.4798 0.98995 0.61685 0.0
C87 C 0.45402 0.0134 0.65171 0.0
C88 C 0.45606 1.00289 0.61989 0.0
C89 C 0.47416 0.0085 0.68058 0.0
C90 C 0.52422 0.92732 0.53986 0.0
C91 C 0.6188 0.943 0.60344 0.0
C92 C 0.63247 0.97849 0.49069 0.0
C93 C 0.65474 0.961 0.49551 0.0
C94 C 0.68361 0.97127 0.52304 0.0
C95 C 0.64089 0.92859 0.47821 0.0
C96 C 0.67982 0.91441 0.51912 0.0
C97 C 0.65318 0.90542 0.49 0.0
C98 C 0.69628 0.94823 0.53457 0.0
C99 C 0.63944 0.04001 0.58593 0.0
O100 O 0.54274 0.01261 0.55951 0.0
O101 O 0.57141 0.0189 0.5132 0.0
O102 O 0.52066 0.94977 0.62709 0.0
O103 O 0.56108 0.00682 0.63196 0.0
O104 O 0.52246 0.91841 0.5711 0.0
O105 O 0.54392 0.96042 0.53848 0.0
O106 O 0.62239 0.95312 0.57118 0.0
O107 O 0.59725 0.95097 0.61838 0.0
O108 O 0.64752 0.00997 0.50535 0.0
O109 O 0.59749 0.95742 0.49503 0.0
O110 O 0.6403 0.04687 0.55414 0.0
O111 O 0.62122 0.00698 0.59042 0.0
H112 H 0.51473 0.99379 0.69984 0.0
H113 H 0.48235 0.98348 0.59201 0.0
H114 H 0.44108 0.00661 0.59722 0.0
H115 H 0.4726 0.01587 0.70544 0.0
H116 H 0.69456 0.99596 0.53721 0.0
H117 H 0.61852 0.92003 0.4571 0.0
H118 H 0.64106 0.87999 0.47679 0.0
H119 H 0.71725 0.95598 0.55674 0.0
Gd120 Gd 0.29843 0.24645 0.76978 0.0
Gd121 Gd 0.31159 0.31706 0.79345 0.0
C122 C 0.35354 0.31951 0.73239 0.0
C123 C 0.27815 0.18934 0.73554 0.0
C124 C 0.29286 0.1763 0.71265 0.0
C125 C 0.32814 0.19869 0.70294 0.0
C126 C 0.2728 0.14023 0.70294 0.0
C127 C 0.32561 0.14773 0.6781 0.0
C128 C 0.28903 0.12597 0.68569 0.0
C129 C 0.34439 0.18449 0.68561 0.0
C130 C 0.35735 0.28227 0.81866 0.0
C131 C 0.25622 0.2439 0.83067 0.0
C132 C 0.33217 0.37438 0.82749 0.0
C133 C 0.31796 0.38816 0.85017 0.0
C134 C 0.28226 0.36668 0.85938 0.0
C135 C 0.33899 0.42419 0.86004 0.0
C136 C 0.28646 0.41861 0.88393 0.0
C137 C 0.32339 0.43939 0.87689 0.0
C138 C 0.26663 0.38182 0.87633 0.0
C139 C 0.2528 0.28121 0.74441 0.0
O140 O 0.33123 0.28431 0.72958 0.0
O141 O 0.35487 0.33748 0.75864 0.0
O142 O 0.29503 0.19579 0.76674 0.0
O143 O 0.27061 0.21375 0.72406 0.0
O144 O 0.33563 0.24799 0.81822 0.0
O145 O 0.34758 0.29476 0.79333 0.0
O146 O 0.27848 0.27911 0.83355 0.0
O147 O 0.2551 0.22599 0.80448 0.0
O148 O 0.31531 0.36787 0.79628 0.0
O149 O 0.33925 0.34975 0.83921 0.0
O150 O 0.27449 0.31549 0.74488 0.0
O151 O 0.26252 0.26885 0.76987 0.0
H152 H 0.34378 0.22672 0.71015 0.0
H153 H 0.24542 0.12273 0.71027 0.0
H154 H 0.27398 0.09754 0.68053 0.0
H155 H 0.3724 0.20192 0.67961 0.0
H156 H 0.26586 0.33869 0.85204 0.0
H157 H 0.36669 0.44099 0.85308 0.0
H158 H 0.33925 0.46782 0.88213 0.0
H159 H 0.23832 0.36513 0.88191 0.0
Gd160 Gd 0.09637 0.0375 0.5464 0.0
Gd161 Gd 1.02893 0.04275 0.52139 0.0
C162 C 1.02159 0.99228 0.58368 0.0
C163 C 0.15625 0.04057 0.57861 0.0
C164 C 0.17127 0.01946 0.59626 0.0
C165 C 0.15273 0.98243 0.59141 0.0
C166 C 0.20673 0.03731 0.61571 0.0
C167 C 0.20602 0.98153 0.62429 0.0
C168 C 0.22394 0.01858 0.62957 0.0
C169 C 0.16995 0.9636 0.60535 0.0
C170 C 0.04783 0.98855 0.49745 0.0
C171 C 0.10295 0.08679 0.48333 0.0
C172 C 0.96897 0.03923 0.48899 0.0
C173 C 0.9534 0.05989 0.47146 0.0
C174 C 0.97209 0.09704 0.47518 0.0
C175 C 0.91735 0.0415 0.4532 0.0
C176 C 0.91789 0.09699 0.44321 0.0
C177 C 0.89972 0.05978 0.43926 0.0
C178 C 0.95446 0.11548 0.46111 0.0
C179 C 0.0769 0.09198 0.57039 0.0
O180 O 0.05858 0.00691 0.58682 0.0
O181 O 1.00335 0.99795 0.55672 0.0
O182 O 0.14575 0.03405 0.54618 0.0
O183 O 0.13399 0.04656 0.59333 0.0
O184 O 0.0838 1.0032 0.50002 0.0
O185 O 1.03937 0.9986 0.52176 0.0
O186 O 0.06595 0.07146 0.48047 0.0
O187 O 0.12185 0.08215 0.51048 0.0
O188 O 0.97911 0.04546 0.52146 0.0
O189 O 0.99176 0.03403 0.47429 0.0
O190 O 1.04089 0.07725 0.56701 0.0
O191 O 0.08603 0.08204 0.54637 0.0
H192 H 0.12535 0.96823 0.57631 0.0
H193 H 0.22165 0.06595 0.6194 0.0
H194 H 0.25177 0.03334 0.64369 0.0
H195 H 0.15502 0.93503 0.60127 0.0
H196 H 0.99991 0.11163 0.48945 0.0
H197 H 0.90234 0.01276 0.4505 0.0
H198 H 0.87139 0.04458 0.42616 0.0
H199 H 0.96943 0.14415 0.46426 0.0
Gd200 Gd 0.28067 0.7896 0.80743 0.0
Gd201 Gd 0.32954 0.77603 0.75669 0.0
C202 C 0.3026 0.83193 0.73598 0.0
C203 C 0.25715 0.81855 0.84761 0.0
C204 C 0.23762 0.83652 0.861 0.0
C205 C 0.22253 0.82603 0.89163 0.0
C206 C 0.23558 0.86535 0.84556 0.0
C207 C 0.20447 0.87229 0.89107 0.0
C208 C 0.21916 0.88251 0.86001 0.0
C209 C 0.20665 0.8434 0.90627 0.0
C210 C 0.24264 0.73578 0.76011 0.0
C211 C 0.30685 0.73347 0.82649 0.0
C212 C 0.35874 0.75051 0.71908 0.0
C213 C 0.37374 0.72807 0.70588 0.0
C214 C 0.41007 0.73404 0.71779 0.0
C215 C 0.35389 0.70315 0.67837 0.0
C216 C 0.40602 0.69152 0.67528 0.0
C217 C 0.36945 0.6854 0.66361 0.0
C218 C 0.42563 0.71632 0.70309 0.0
C219 C 0.36601 0.83091 0.80308 0.0
O220 O 0.29248 0.82951 0.76638 0.0
O221 O 0.31325 0.81094 0.72431 0.0
O222 O 0.24015 0.78431 0.84052 0.0
O223 O 0.28668 0.83658 0.83224 0.0
O224 O 0.23012 0.73617 0.78782 0.0
O225 O 0.27189 0.76491 0.75753 0.0
O226 O 0.31131 0.73258 0.79449 0.0
O227 O 0.30203 0.75811 0.83944 0.0
O228 O 0.37766 0.77365 0.74439 0.0
O229 O 0.32317 0.74107 0.7145 0.0
O230 O 0.37712 0.8316 0.77425 0.0
O231 O 0.33825 0.80089 0.80671 0.0
H232 H 0.22347 0.80434 0.90483 0.0
H233 H 0.24697 0.87495 0.82225 0.0
H234 H 0.21883 0.90454 0.847 0.0
H235 H 0.19567 0.83367 0.92971 0.0
H236 H 0.42718 0.75326 0.7383 0.0
H237 H 0.32617 0.69766 0.66765 0.0
H238 H 0.35232 0.66663 0.64282 0.0
H239 H 0.45386 0.72308 0.7133 0.0
Gd240 Gd 0.52068 0.03059 0.02125 0.0
Gd241 Gd 0.49587 0.08418 0.01982 0.0
C242 C 0.56197 0.10287 0.97831 0.0
C243 C 0.53875 0.98552 1.00521 0.0
C244 C 0.57151 0.98702 0.99425 0.0
C245 C 0.60815 0.01046 0.01 0.0
C246 C 0.56597 0.96456 0.96747 0.0
C247 C 0.63311 0.98801 0.97282 0.0
C248 C 0.59645 0.9651 0.95678 0.0
C249 C 0.63868 0.01077 0.9995 0.0
C250 C 0.55411 0.07772 0.07363 0.0
C251 C 0.45863 0.01456 0.06482 0.0
C252 C 0.47417 0.12859 0.02973 0.0
C253 C 0.45191 0.13595 0.04977 0.0
C254 C 0.42501 0.10948 0.06777 0.0
C255 C 0.45631 0.16991 0.04911 0.0
C256 C 0.40659 0.15098 0.08363 0.0
C257 C 0.43395 0.17738 0.06583 0.0
C258 C 0.40259 0.11696 0.08464 0.0
C259 C 0.46301 0.03401 0.96911 0.0
O260 O 0.55612 0.0707 0.98513 0.0
O261 O 0.54408 0.11596 0.99128 0.0
O262 O 0.54259 0.99607 0.03632 0.0
O263 O 0.52027 0.99629 0.98362 0.0
O264 O 0.54461 0.04458 0.07553 0.0
O265 O 0.54765 0.08531 0.04356 0.0
O266 O 0.47061 0.04898 0.06347 0.0
O267 O 0.46842 0.9991 0.04432 0.0
O268 O 0.45561 0.10138 0.00839 0.0
O269 O 0.50566 0.13193 0.04494 0.0
O270 O 0.47422 0.06724 0.96429 0.0
O271 O 0.46941 0.02941 0.99978 0.0
H272 H 0.6132 0.02838 0.03049 0.0
H273 H 0.53796 0.94637 0.95496 0.0
H274 H 0.59121 0.94692 0.93645 0.0
H275 H 0.66664 0.02888 0.01213 0.0
H276 H 0.42102 0.083 0.06841 0.0
H277 H 0.47688 0.19066 0.03529 0.0
H278 H 0.43838 0.20401 0.06503 0.0
H279 H 0.38167 0.09593 0.09793 0.0
Gd280 Gd 0.33398 0.2669 0.30614 0.0
Gd281 Gd 0.27954 0.30026 0.25554 0.0
C282 C 0.29595 0.24079 0.22694 0.0
C283 C 0.36209 0.22895 0.3419 0.0
C284 C 0.38126 0.20809 0.36237 0.0
C285 C 0.42054 0.2204 0.36592 0.0
C286 C 0.36126 0.17476 0.37814 0.0
C287 C 0.41815 0.16807 0.39918 0.0
C288 C 0.37883 0.15595 0.39593 0.0
C289 C 0.43797 0.20131 0.38311 0.0
C290 C 0.3699 0.32061 0.26122 0.0
C291 C 0.31724 0.32608 0.33478 0.0
C292 C 0.25153 0.3383 0.2198 0.0
C293 C 0.23257 0.35929 0.19921 0.0
C294 C 0.19329 0.3471 0.19529 0.0
C295 C 0.25288 0.39276 0.18377 0.0
C296 C 0.19627 0.39975 0.16221 0.0
C297 C 0.23559 0.41176 0.1659 0.0
C298 C 0.1761 0.36639 0.17801 0.0
C299 C 0.24375 0.24679 0.30071 0.0
O300 O 0.30618 0.23325 0.25794 0.0
O301 O 0.28814 0.26681 0.21963 0.0
O302 O 0.3801 0.26366 0.33879 0.0
O303 O 0.32724 0.21497 0.32656 0.0
O304 O 0.38559 0.30675 0.28198 0.0
O305 O 0.33632 0.30574 0.26638 0.0
O306 O 0.30748 0.33391 0.30374 0.0
O307 O 0.3249 0.29997 0.34206 0.0
O308 O 0.23334 0.3036 0.22306 0.0
O309 O 0.28644 0.35215 0.23491 0.0
O310 O 0.22808 0.2608 0.28015 0.0
O311 O 0.27717 0.26133 0.29516 0.0
H312 H 0.43845 0.24529 0.35482 0.0
H313 H 0.33127 0.16278 0.37691 0.0
H314 H 0.36078 0.13101 0.40685 0.0
H315 H 0.46791 0.21337 0.38398 0.0
H316 H 0.17513 0.3221 0.20618 0.0
H317 H 0.28285 0.40468 0.18531 0.0
H318 H 0.25391 0.4368 0.15525 0.0
H319 H 0.14616 0.35443 0.17682 0.0
Gd320 Gd 0.5821 0.52299 0.03925 0.0
Gd321 Gd 0.51548 0.52886 0.01394 0.0
C322 C 0.50782 0.47963 0.07686 0.0
C323 C 0.64041 0.52376 0.0723 0.0
C324 C 0.65419 0.50031 0.08689 0.0
C325 C 0.65931 0.47849 0.06618 0.0
C326 C 0.66621 0.50259 0.12166 0.0
C327 C 0.69036 0.46344 0.1146 0.0
C328 C 0.68392 0.48422 0.13541 0.0
C329 C 0.6772 0.46028 0.0799 0.0
C330 C 0.53432 0.47365 0.99018 0.0
C331 C 0.59078 0.57424 0.97752 0.0
C332 C 0.45602 0.52637 0.98147 0.0
C333 C 0.44132 0.5479 0.96433 0.0
C334 C 0.46069 0.58498 0.96902 0.0
C335 C 0.4054 0.53049 0.94569 0.0
C336 C 0.40728 0.58683 0.9377 0.0
C337 C 0.38852 0.54971 0.93251 0.0
C338 C 0.44381 0.60432 0.95575 0.0
C339 C 0.56357 0.57721 0.06365 0.0
O340 O 0.54488 0.49547 0.08032 0.0
O341 O 0.48925 0.48372 0.04915 0.0
O342 O 0.6338 0.52367 0.03948 0.0
O343 O 0.61608 0.52642 0.08712 0.0
O344 O 0.57029 0.48812 0.99394 0.0
O345 O 0.52507 0.48387 0.01388 0.0
O346 O 0.55375 0.55946 0.97389 0.0
O347 O 0.60863 0.56848 1.00473 0.0
O348 O 0.46594 0.53205 0.01402 0.0
O349 O 0.47867 0.52098 0.96674 0.0
O350 O 0.52758 0.56257 0.06068 0.0
O351 O 0.5723 0.56756 0.03928 0.0
H352 H 0.65059 0.4763 0.0392 0.0
H353 H 0.66282 0.51936 0.13814 0.0
H354 H 0.69297 0.48669 0.16234 0.0
H355 H 0.68193 0.44479 0.06307 0.0
H356 H 0.48844 0.59883 0.98352 0.0
H357 H 0.38988 0.50181 0.94216 0.0
H358 H 0.36031 0.5353 0.91908 0.0
H359 H 0.45935 0.63291 0.95973 0.0
Gd360 Gd 0.78732 0.29454 0.30845 0.0
Gd361 Gd 0.82569 0.27266 0.25501 0.0
C362 C 0.80655 0.33431 0.23663 0.0
C363 C 0.76838 0.32565 0.35089 0.0
C364 C 0.75067 0.34587 0.36317 0.0
C365 C 0.71169 0.33307 0.35713 0.0
C366 C 0.77231 0.37648 0.38486 0.0
C367 C 0.71693 0.38039 0.39414 0.0
C368 C 0.75601 0.39321 0.3999 0.0
C369 C 0.69536 0.34995 0.37197 0.0
C370 C 0.74073 0.24244 0.26097 0.0
C371 C 0.80613 0.23261 0.32649 0.0
C372 C 0.84483 0.24165 0.21271 0.0
C373 C 0.8622 0.22106 0.20063 0.0
C374 C 0.90102 0.23323 0.2073 0.0
C375 C 0.84053 0.19082 0.1785 0.0
C376 C 0.89559 0.18604 0.17001 0.0
C377 C 0.85667 0.17384 0.16364 0.0
C378 C 0.91718 0.2161 0.19262 0.0
C379 C 0.87216 0.32509 0.30217 0.0
O380 O 0.80314 0.33636 0.26877 0.0
O381 O 0.80943 0.3083 0.22402 0.0
O382 O 0.74722 0.29277 0.33909 0.0
O383 O 0.80064 0.34171 0.3393 0.0
O384 O 0.73242 0.24453 0.29038 0.0
O385 O 0.77155 0.26939 0.2571 0.0
O386 O 0.80938 0.23067 0.29431 0.0
O387 O 0.80356 0.2587 0.33936 0.0
O388 O 0.86631 0.27422 0.22521 0.0
O389 O 0.81214 0.22585 0.22351 0.0
O390 O 0.88023 0.32301 0.27264 0.0
O391 O 0.84157 0.29794 0.30633 0.0
H392 H 0.69341 0.30938 0.34127 0.0
H393 H 0.80222 0.38728 0.39092 0.0
H394 H 0.77446 0.41653 0.41613 0.0
H395 H 0.6653 0.33824 0.36662 0.0
H396 H 0.91932 0.25662 0.22352 0.0
H397 H 0.81075 0.18052 0.17197 0.0
H398 H 0.83822 0.15082 0.14704 0.0
H399 H 0.94715 0.22734 0.19845 0.0
Gd400 Gd 0.11763 0.4838 0.54311 0.0
Gd401 Gd 0.09297 0.5375 0.54135 0.0
C402 C 0.15445 0.55299 0.49718 0.0
C403 C 0.13983 0.43992 0.53262 0.0
C404 C 0.16397 0.43436 0.51308 0.0
C405 C 0.19421 0.43199 0.53043 0.0
C406 C 0.15605 0.42897 0.47787 0.0
C407 C 0.20769 0.41803 0.47795 0.0
C408 C 0.17767 0.42092 0.46052 0.0
C409 C 0.21587 0.42405 0.51312 0.0
C410 C 0.15153 0.53487 0.59296 0.0
C411 C 0.05184 0.46554 0.58482 0.0
C412 C 0.07549 0.58294 0.55756 0.0
C413 C 1.04346 0.58169 0.56975 0.0
C414 C 1.00637 0.55593 0.55722 0.0
C415 C 0.05019 0.60662 0.59455 0.0
C416 C 0.98316 0.58107 0.59345 0.0
C417 C 1.02035 0.60629 0.60637 0.0
C418 C 0.97643 0.55579 0.56883 0.0
C419 C 0.05877 0.48947 0.48968 0.0
O420 O 0.14288 0.51868 0.49922 0.0
O421 O 0.14451 0.5687 0.51724 0.0
O422 O 0.15676 0.46524 0.55601 0.0
O423 O 0.1089 0.43731 0.51669 0.0
O424 O 0.14023 0.50172 0.59834 0.0
O425 O 0.14447 0.5389 0.56226 0.0
O426 O 0.05808 0.49786 0.57811 0.0
O427 O 0.06931 0.45213 0.5716 0.0
O428 O 0.07008 0.5713 0.52655 0.0
O429 O 0.09497 0.57291 0.57874 0.0
O430 O 0.06832 0.52261 0.48727 0.0
O431 O 0.06561 0.48247 0.51987 0.0
H432 H 0.20081 0.43579 0.55761 0.0
H433 H 0.13277 0.43033 0.46374 0.0
H434 H 0.17015 0.41601 0.43351 0.0
H435 H 0.23904 0.42261 0.52737 0.0
H436 H 1.00051 0.53608 0.53837 0.0
H437 H 0.07861 0.62658 0.6046 0.0
H438 H 1.0264 0.62637 0.62505 0.0
H439 H 0.94806 0.53589 0.55865 0.0
Gd440 Gd 0.81296 0.75488 0.27492 0.0
Gd441 Gd 0.79562 0.81056 0.28778 0.0
C442 C 0.84677 0.82893 0.23196 0.0
C443 C 0.82632 0.71454 0.2427 0.0
C444 C 0.84433 0.72441 0.2121 0.0
C445 C 0.87633 0.75811 0.21043 0.0
C446 C 0.82534 0.7035 0.18251 0.0
C447 C 0.86832 0.75088 0.14959 0.0
C448 C 0.83725 0.71652 0.15159 0.0
C449 C 0.88824 0.77115 0.17952 0.0
C450 C 0.85865 0.80102 0.32607 0.0
C451 C 0.76245 0.73696 0.3311 0.0
C452 C 0.78253 0.85101 0.32013 0.0
C453 C 0.76721 0.84232 0.35218 0.0
C454 C 0.73523 0.80913 0.35575 0.0
C455 C 0.78864 0.86394 0.38092 0.0
C456 C 0.74792 0.81839 0.41659 0.0
C457 C 0.77911 0.85215 0.41278 0.0
C458 C 0.72562 0.79737 0.38761 0.0
C459 C 0.75018 0.76442 0.2365 0.0
O460 O 0.83539 0.79452 0.23283 0.0
O461 O 0.83824 0.84386 0.25423 0.0
O462 O 0.84736 0.73185 0.27068 0.0
O463 O 0.79334 0.7116 0.23871 0.0
O464 O 0.84634 0.76714 0.32721 0.0
O465 O 0.84716 0.80864 0.29804 0.0
O466 O 0.77447 0.77149 0.33042 0.0
O467 O 0.7701 0.72171 0.30838 0.0
O468 O 0.75998 0.83186 0.29346 0.0
O469 O 0.81606 0.85543 0.32223 0.0
O470 O 0.76255 0.79832 0.23532 0.0
O471 O 0.76143 0.75683 0.26466 0.0
H472 H 0.89119 0.77523 0.23279 0.0
H473 H 0.80038 0.67765 0.18315 0.0
H474 H 0.82207 0.69944 0.12928 0.0
H475 H 0.91235 0.79758 0.17905 0.0
H476 H 0.71848 0.79146 0.33409 0.0
H477 H 0.81362 0.88942 0.37883 0.0
H478 H 0.79611 0.86976 0.4344 0.0
H479 H 0.7013 0.77139 0.38952 0.0
Gd480 Gd 0.83782 0.28289 0.80749 0.0
Gd481 Gd 0.7774 0.28268 0.75604 0.0
C482 C 0.7503 0.24416 0.82283 0.0
C483 C 0.87571 0.28451 0.86437 0.0
C484 C 0.86292 0.25634 0.88889 0.0
C485 C 0.83447 0.22202 0.8775 0.0
C486 C 0.87742 0.26306 0.92321 0.0
C487 C 0.83761 0.20012 0.93387 0.0
C488 C 0.86478 0.23512 0.94563 0.0
C489 C 0.82216 0.19427 0.89957 0.0
C490 C 0.80222 0.22717 0.76328 0.0
C491 C 0.86505 0.32147 0.74081 0.0
C492 C 0.73947 0.28148 0.69936 0.0
C493 C 0.75209 0.31032 0.67551 0.0
C494 C 0.78054 0.3444 0.68756 0.0
C495 C 0.73712 0.3046 0.64129 0.0
C496 C 0.77624 0.36806 0.63223 0.0
C497 C 0.74924 0.33328 0.61971 0.0
C498 C 0.79226 0.3729 0.66635 0.0
C499 C 0.81274 0.33815 0.8005 0.0
O500 O 0.78649 0.25932 0.83462 0.0
O501 O 0.73863 0.24509 0.7906 0.0
O502 O 0.88118 0.2755 0.83593 0.0
O503 O 0.85687 0.30107 0.85994 0.0
O504 O 0.83758 0.24184 0.77475 0.0
O505 O 0.7875 0.241 0.77705 0.0
O506 O 0.82887 0.3065 0.72897 0.0
O507 O 0.87664 0.32031 0.77299 0.0
O508 O 0.73351 0.28955 0.728 0.0
O509 O 0.75881 0.26541 0.70334 0.0
O510 O 0.77741 0.32346 0.78892 0.0
O511 O 0.82756 0.32454 0.78655 0.0
H512 H 0.8223 0.21641 0.85116 0.0
H513 H 0.89881 0.28963 0.93253 0.0
H514 H 0.87697 0.2408 0.97192 0.0
H515 H 0.80187 0.16791 0.88903 0.0
H516 H 0.79302 0.34925 0.71383 0.0
H517 H 0.71572 0.27823 0.63144 0.0
H518 H 0.73669 0.32832 0.5935 0.0
H519 H 0.81247 0.39901 0.67751 0.0
Gd520 Gd 0.79683 0.75988 0.75402 0.0
Gd521 Gd 0.81601 0.80656 0.80725 0.0
C522 C 0.85098 0.7502 0.81779 0.0
C523 C 0.78518 0.72753 0.69702 0.0
C524 C 0.79216 0.70075 0.68444 0.0
C525 C 0.79047 0.67304 0.70452 0.0
C526 C 0.80342 0.70459 0.65261 0.0
C527 C 0.81424 0.65507 0.66197 0.0
C528 C 0.81442 0.68207 0.64148 0.0
C529 C 0.80115 0.65023 0.69327 0.0
C530 C 0.75406 0.72731 0.80373 0.0
C531 C 0.76196 0.81624 0.74342 0.0
C532 C 0.82716 0.83992 0.86349 0.0
C533 C 0.81732 0.86559 0.87362 0.0
C534 C 0.83619 0.88688 0.90309 0.0
C535 C 0.78815 0.86817 0.85437 0.0
C536 C 0.79541 0.9119 0.89485 0.0
C537 C 0.77724 0.89097 0.86488 0.0
C538 C 0.82531 0.90984 0.91367 0.0
C539 C 0.85857 0.83895 0.75738 0.0
O540 O 0.83714 0.74242 0.78497 0.0
O541 O 0.84466 0.77361 0.83204 0.0
O542 O 0.76004 0.71696 0.71724 0.0
O543 O 0.81505 0.7581 0.70673 0.0
O544 O 0.76953 0.71423 0.78808 0.0
O545 O 0.76177 0.75753 0.79242 0.0
O546 O 0.77522 0.82345 0.77633 0.0
O547 O 0.76879 0.79328 0.72906 0.0
O548 O 0.85187 0.85116 0.84281 0.0
O549 O 0.79892 0.80796 0.85518 0.0
O550 O 0.84296 0.85198 0.77288 0.0
O551 O 0.85104 0.80887 0.76892 0.0
H552 H 0.78191 0.66963 0.72926 0.0
H553 H 0.80505 0.72594 0.63683 0.0
H554 H 0.82482 0.68705 0.6175 0.0
H555 H 0.80003 0.62936 0.70946 0.0
H556 H 0.8589 0.88532 0.9182 0.0
H557 H 0.77308 0.85186 0.83161 0.0
H558 H 0.75359 0.89112 0.85005 0.0
H559 H 0.84003 0.9256 0.93674 0.0
Gd560 Gd 0.5916 0.54682 0.56842 0.0
Gd561 Gd 0.52884 0.51963 0.50336 0.0
C562 C 0.59657 0.50013 0.50794 0.0
C563 C 0.63315 0.55092 0.6237 0.0
C564 C 0.67159 0.55756 0.62789 0.0
C565 C 0.69492 0.57696 0.60375 0.0
C566 C 0.682 0.53832 0.65116 0.0
C567 C 0.73401 0.55163 0.62148 0.0
C568 C 0.71321 0.53556 0.64813 0.0
C569 C 0.72583 0.57394 0.60051 0.0
C570 C 0.61748 0.59042 0.51544 0.0
C571 C 0.52511 0.56788 0.56378 0.0
C572 C 0.49141 0.51238 0.44455 0.0
C573 C 0.45183 0.49758 0.4312 0.0
C574 C 0.42401 0.4791 0.45189 0.0
C575 C 0.44195 0.50387 0.39798 0.0
C576 C 0.37749 0.47895 0.40787 0.0
C577 C 0.40508 0.49458 0.38633 0.0
C578 C 0.38695 0.46956 0.44019 0.0
C579 C 0.5028 0.47442 0.55489 0.0
O580 O 0.60832 0.51337 0.5397 0.0
O581 O 0.56859 0.50199 0.48924 0.0
O582 O 0.6288 0.57751 0.61297 0.0
O583 O 0.60804 0.52048 0.60811 0.0
O584 O 0.63621 0.5961 0.5454 0.0
O585 O 0.58595 0.56304 0.51654 0.0
O586 O 0.51333 0.55452 0.53188 0.0
O587 O 0.55283 0.56566 0.58281 0.0
O588 O 0.50062 0.48923 0.45667 0.0
O589 O 0.50697 0.54164 0.46342 0.0
O590 O 0.484 0.47 0.5251 0.0
O591 O 0.53441 0.50224 0.55487 0.0
H592 H 0.6876 0.59209 0.58552 0.0
H593 H 0.66424 0.52298 0.66978 0.0
H594 H 0.71868 0.51795 0.66456 0.0
H595 H 0.74153 0.58679 0.57993 0.0
H596 H 0.43125 0.47364 0.47757 0.0
H597 H 0.46313 0.51781 0.38165 0.0
H598 H 0.39919 0.50266 0.36142 0.0
H599 H 0.3663 0.45706 0.4572 0.0
Gd600 Gd 1.00995 0.57765 0.02479 0.0
Gd601 Gd 0.05366 0.59318 0.97008 0.0
C602 C 0.99532 0.6248 0.95853 0.0
C603 C 0.98169 0.58952 0.07141 0.0
C604 C 0.96137 0.60894 0.06739 0.0
C605 C 0.93185 0.59975 0.04068 0.0
C606 C 0.97757 0.64177 0.08469 0.0
C607 C 0.93944 0.65818 0.04534 0.0
C608 C 0.96689 0.66627 0.07362 0.0
C609 C 0.9207 0.6241 0.02998 0.0
C610 C 0.975 0.52786 0.97581 0.0
C611 C 0.06478 0.54191 0.03382 0.0
C612 C 0.08429 0.58919 0.92052 0.0
C613 C 0.11438 0.58256 0.91703 0.0
C614 C 0.11938 0.5762 0.88492 0.0
C615 C 0.13546 0.57878 0.94567 0.0
C616 C 0.16283 0.55766 0.91014 0.0
C617 C 0.15957 0.56638 0.94226 0.0
C618 C 0.14362 0.56399 0.88145 0.0
C619 C 0.08959 0.64024 0.02322 0.0
O620 O 0.99158 0.61467 0.99076 0.0
O621 O 1.0171 0.61697 0.94377 0.0
O622 O 0.96539 0.55846 0.0556 0.0
O623 O 1.01705 0.60943 0.06785 0.0
O624 O 0.97352 0.52084 0.00755 0.0
O625 O 0.99333 0.56091 0.97145 0.0
O626 O 0.07159 0.55537 1.00288 0.0
O627 O 1.04174 0.54822 0.04859 0.0
O628 O 0.09434 0.61925 0.93571 0.0
O629 O 0.05468 0.56205 0.93051 0.0
O630 O 0.09191 0.64965 0.99213 0.0
O631 O 0.06988 0.60711 0.02394 0.0
H632 H 0.91904 0.57474 0.02657 0.0
H633 H 1.00043 0.64951 0.10521 0.0
H634 H 0.98075 0.69192 0.08679 0.0
H635 H 0.899 0.61705 0.00851 0.0
H636 H 0.10333 0.57916 0.8626 0.0
H637 H 0.13193 0.58379 0.97067 0.0
H638 H 0.17381 0.56154 0.9648 0.0
H639 H 0.14612 0.55803 0.85638 0.0
H640 H 0.19515 0.1766 0.82286 0.0
H641 H 0.16673 0.15828 0.01642 0.0
H642 H 0.25824 0.26386 0.896 0.0
H643 H 0.08811 0.0791 0.94015 0.0
H644 H 0.19957 0.19724 0.97261 0.0
H645 H 0.15552 0.141 0.86469 0.0
C646 C 0.20068 0.18845 0.84772 0.0
C647 C 0.23048 0.22344 0.85583 0.0
C648 C 0.17495 0.17157 0.96525 0.0
C649 C 0.18477 0.1822 0.90431 0.0
C650 C 0.15606 0.14921 0.9903 0.0
C651 C 0.1245 0.1153 0.98201 0.0
C652 C 0.16278 0.15995 0.9313 0.0
C653 C 0.11213 0.10508 0.94771 0.0
C654 C 0.1778 0.16799 0.87161 0.0
C655 C 0.23575 0.23713 0.88848 0.0
N656 N 0.13155 0.12713 0.92365 0.0
N657 N 0.21343 0.21641 0.91154 0.0
H658 H 0.28081 0.09999 0.21476 0.0
H659 H 0.26955 0.93135 0.16077 0.0
H660 H 0.26732 0.06745 0.11124 0.0
H661 H 0.30645 0.97374 0.26336 0.0
H662 H 0.29075 0.99084 0.14106 0.0
H663 H 0.31425 0.0685 0.23146 0.0
C664 C 0.28593 0.0872 0.19539 0.0
C665 C 0.26906 0.08433 0.16188 0.0
C666 C 0.29494 0.98737 0.16791 0.0
C667 C 0.30648 0.04776 0.18077 0.0
C668 C 0.28275 0.95316 0.17926 0.0
C669 C 0.28464 0.94713 0.21394 0.0
C670 C 0.30797 0.01562 0.19136 0.0
C671 C 0.30248 0.9768 0.23644 0.0
C672 C 0.3051 0.06921 0.20491 0.0
C673 C 0.27835 0.06915 0.13764 0.0
N674 N 0.31249 0.00962 0.22482 0.0
N675 N 0.29524 0.05023 0.1477 0.0
H676 H 0.46008 0.8615 0.53884 0.0
H677 H 0.40567 0.85574 0.33807 0.0
H678 H 0.52763 0.94315 0.47399 0.0
H679 H 0.32352 0.79774 0.40443 0.0
H680 H 0.45464 0.87966 0.38722 0.0
H681 H 0.41344 0.82948 0.48916 0.0
C682 C 0.4654 0.87233 0.51414 0.0
C683 C 0.49777 0.90497 0.51048 0.0
C684 C 0.42591 0.86157 0.39102 0.0
C685 C 0.44491 0.86867 0.45386 0.0
C686 C 0.39801 0.8479 0.363 0.0
C687 C 0.36051 0.82515 0.3673 0.0
C688 C 0.41631 0.85209 0.42356 0.0
C689 C 0.3521 0.81561 0.40012 0.0
C690 C 0.43875 0.85421 0.48589 0.0
C691 C 0.50318 0.91799 0.47796 0.0
N692 N 0.37977 0.82919 0.42705 0.0
N693 N 0.47707 0.89987 0.45098 0.0
H694 H 0.30058 0.09303 0.63158 0.0
H695 H 0.47945 0.07328 0.68978 0.0
H696 H 0.39677 0.16436 0.70217 0.0
H697 H 0.3852 0.99928 0.61902 0.0
H698 H 0.44949 0.10787 0.69248 0.0
H699 H 0.3316 0.05977 0.62343 0.0
C700 C 0.32834 0.10186 0.64504 0.0
C701 C 0.346 0.13128 0.66775 0.0
C702 C 0.43519 0.08405 0.67637 0.0
C703 C 0.38159 0.09379 0.6585 0.0
C704 C 0.45213 0.06404 0.67512 0.0
C705 C 0.43456 0.03314 0.65446 0.0
C706 C 0.40031 0.07318 0.6568 0.0
C707 C 0.39966 0.02301 0.63525 0.0
C708 C 0.34602 0.08298 0.64035 0.0
C709 C 0.38222 0.14211 0.68411 0.0
N710 N 0.38354 0.04297 0.63696 0.0
N711 N 0.39864 0.12321 0.67935 0.0
H712 H 0.25105 0.99385 0.68503 0.0
H713 H 0.27526 0.82566 0.66833 0.0
H714 H 0.20501 0.92466 0.5959 0.0
H715 H 0.3198 0.89747 0.75519 0.0
H716 H 0.25612 0.86512 0.63781 0.0
H717 H 0.28232 0.9621 0.70789 0.0
C718 C 0.2477 0.97216 0.67005 0.0
C719 C 0.22513 0.96196 0.63844 0.0
C720 C 0.27068 0.87249 0.66335 0.0
C721 C 0.26063 0.92474 0.66499 0.0
C722 C 0.28191 0.85019 0.68058 0.0
C723 C 0.29882 0.8583 0.71432 0.0
C724 C 0.27661 0.90295 0.68011 0.0
C725 C 0.30645 0.89012 0.72927 0.0
C726 C 0.26552 0.95385 0.68325 0.0
C727 C 0.22151 0.93311 0.62064 0.0
N728 N 0.295 0.91104 0.71222 0.0
N729 N 0.23889 0.91538 0.63423 0.0
H730 H 0.35204 0.82921 0.86706 0.0
H731 H 0.46302 0.03994 0.90048 0.0
H732 H 0.41252 0.90186 0.7928 0.0
H733 H 0.42903 0.96333 0.9785 0.0
H734 H 0.43944 0.99089 0.85856 0.0
H735 H 0.37459 0.8793 0.90629 0.0
C736 C 0.37019 0.85581 0.85906 0.0
C737 C 0.38057 0.86147 0.82675 0.0
C738 C 0.43717 0.98496 0.88488 0.0
C739 C 0.40652 0.91913 0.87155 0.0
C740 C 0.4504 0.01283 0.90869 0.0
C741 C 0.44789 1.00556 0.9429 0.0
C742 C 0.421 0.94976 0.89551 0.0
C743 C 0.43156 0.9701 0.95237 0.0
C744 C 0.38311 0.88442 0.88148 0.0
C745 C 0.40411 0.89647 0.81764 0.0
N746 N 0.41868 0.94359 0.92884 0.0
N747 N 0.41626 0.92412 0.83994 0.0
H748 H 0.3848 0.12989 0.1459 0.0
H749 H 0.31113 0.26235 0.16266 0.0
H750 H 0.37491 0.19161 0.06247 0.0
H751 H 0.28937 0.17547 0.22874 0.0
H752 H 0.3322 0.2365 0.12408 0.0
H753 H 0.3504 0.14758 0.17652 0.0
C754 C 0.37479 0.14659 0.1337 0.0
C755 C 0.38301 0.15935 0.10154 0.0
C756 C 0.32211 0.22279 0.14673 0.0
C757 C 0.34272 0.17926 0.13647 0.0
C758 C 0.30971 0.23736 0.16861 0.0
C759 C 0.29886 0.22133 0.19922 0.0
C760 C 0.32396 0.19225 0.15577 0.0
C761 C 0.29805 0.18913 0.20572 0.0
C762 C 0.35495 0.1566 0.15121 0.0
C763 C 0.36975 0.18152 0.08741 0.0
N764 N 0.31103 0.17605 0.18455 0.0
N765 N 0.35045 0.19091 0.105 0.0
H766 H 0.07519 0.10602 0.42462 0.0
H767 H 0.27402 0.22369 0.3558 0.0
H768 H 0.17879 0.12092 0.47953 0.0
H769 H 0.16987 0.21219 0.3066 0.0
H770 H 0.24041 0.18455 0.40024 0.0
H771 H 0.10978 0.14337 0.38048 0.0
C772 C 0.1052 0.11712 0.42752 0.0
C773 C 0.12386 0.11013 0.45616 0.0
C774 C 0.22491 0.19047 0.3796 0.0
C775 C 0.16413 0.15329 0.40505 0.0
C776 C 0.24411 0.21269 0.3541 0.0
C777 C 0.22481 0.2212 0.3272 0.0
C778 C 0.18605 0.17655 0.3782 0.0
C779 C 0.18604 0.20642 0.3267 0.0
C780 C 0.12506 0.13854 0.40216 0.0
C781 C 0.16298 0.12548 0.45811 0.0
N782 N 0.16814 0.18504 0.35159 0.0
N783 N 0.18168 0.14616 0.43305 0.0
H784 H 0.95991 0.18171 0.19314 0.0
H785 H 0.95287 0.07196 0.03055 0.0
H786 H 0.87291 0.14801 0.10754 0.0
H787 H 1.03376 0.09904 0.12013 0.0
H788 H 0.92428 0.10025 0.05694 0.0
H789 H 0.98763 0.1534 0.16614 0.0
C790 C 0.94643 0.16869 0.16862 0.0
C791 C 0.91336 0.16794 0.15322 0.0
C792 C 0.94829 0.10008 0.07093 0.0
C793 C 0.94601 0.13421 0.12131 0.0
C794 C 0.96488 0.08379 0.05572 0.0
C795 C 0.99632 0.08264 0.07268 0.0
C796 C 0.96292 0.116 0.10376 0.0
C797 C 1.00981 0.09881 0.10554 0.0
C798 C 0.96245 0.1521 0.15313 0.0
C799 C 0.89786 0.14951 0.1213 0.0
N800 N 0.99337 0.11455 0.11962 0.0
N801 N 0.91412 0.13382 0.10672 0.0
H802 H 0.21504 0.61963 0.50395 0.0
H803 H 0.19819 0.66352 0.31356 0.0
H804 H 0.14231 0.53487 0.43033 0.0
H805 H 0.30487 0.71575 0.37772 0.0
H806 H 0.17307 0.6183 0.3563 0.0
H807 H 0.24549 0.65809 0.45854 0.0
C808 C 0.20597 0.60902 0.4782 0.0
C809 C 0.1765 0.57408 0.47073 0.0
C810 C 0.20211 0.63943 0.36067 0.0
C811 C 0.21006 0.61812 0.41877 0.0
C812 C 0.21632 0.66524 0.33649 0.0
C813 C 0.25367 0.69312 0.34212 0.0
C814 C 0.22518 0.64233 0.39096 0.0
C815 C 0.27608 0.69433 0.37222 0.0
C816 C 0.22326 0.63091 0.45237 0.0
C817 C 0.16536 0.56158 0.43701 0.0
N818 N 0.26136 0.66961 0.39574 0.0
N819 N 0.18171 0.58385 0.41207 0.0
H820 H 0.64939 0.90292 0.5804 0.0
H821 H 0.73649 0.86103 0.76511 0.0
H822 H 0.63752 0.93582 0.67455 0.0
H823 H 0.73583 0.8159 0.67202 0.0
H824 H 0.70377 0.88941 0.73336 0.0
H825 H 0.68224 0.87425 0.61164 0.0
C826 C 0.65382 0.90491 0.60758 0.0
C827 C 0.63987 0.92349 0.6235 0.0
C828 C 0.71054 0.87337 0.71943 0.0
C829 C 0.67932 0.88818 0.66191 0.0
C830 C 0.72976 0.85664 0.73802 0.0
C831 C 0.74015 0.83469 0.72257 0.0
C832 C 0.70059 0.86962 0.68362 0.0
C833 C 0.72932 0.83172 0.68655 0.0
C834 C 0.67278 0.88776 0.62591 0.0
C835 C 0.64685 0.92268 0.65966 0.0
N836 N 0.71103 0.84845 0.66917 0.0
N837 N 0.66549 0.90617 0.67675 0.0
H838 H 0.46 0.42503 0.99221 0.0
H839 H 0.42412 0.33956 0.81172 0.0
H840 H 0.54985 0.45304 0.93485 0.0
H841 H 0.35533 0.27859 0.88694 0.0
H842 H 0.46841 0.38432 0.8552 0.0
H843 H 0.41821 0.37428 0.95255 0.0
C844 C 0.47087 0.42049 0.97127 0.0
C845 C 0.50836 0.44322 0.96666 0.0
C846 C 0.444 0.3609 0.86239 0.0
C847 C 0.46093 0.38567 0.92142 0.0
C848 C 0.41885 0.33533 0.83765 0.0
C849 C 0.38654 0.30521 0.84602 0.0
C850 C 0.43619 0.35694 0.89563 0.0
C851 C 0.38044 0.30119 0.87976 0.0
C852 C 0.44716 0.39144 0.94888 0.0
C853 C 0.52114 0.43614 0.93927 0.0
N854 N 0.40482 0.32715 0.9034 0.0
N855 N 0.4974 0.40821 0.91751 0.0
H856 H 0.86951 0.79299 0.39399 0.0
H857 H 0.05718 0.97748 0.43418 0.0
H858 H 0.91008 0.86994 0.31695 0.0
H859 H 0.97637 0.93648 0.50355 0.0
H860 H 1.01053 0.93131 0.39216 0.0
H861 H 0.91571 0.8389 0.43662 0.0
C862 C 0.88829 0.81946 0.38611 0.0
C863 C 0.88618 0.82784 0.35206 0.0
C864 C 1.00318 0.93249 0.41665 0.0
C865 C 0.93912 0.87974 0.40014 0.0
C866 C 1.02971 0.95861 0.44057 0.0
C867 C 1.02045 0.96067 0.47221 0.0
C868 C 0.96765 0.90776 0.42489 0.0
C869 C 0.98445 0.93577 0.47932 0.0
C870 C 0.91439 0.84555 0.41033 0.0
C871 C 0.91086 0.86253 0.34302 0.0
N872 N 0.9594 0.91003 0.45593 0.0
N873 N 0.93667 0.88716 0.36688 0.0
H874 H 0.46636 0.57924 0.53555 0.0
H875 H 0.46385 0.67811 0.7022 0.0
H876 H 0.54088 0.59871 0.62839 0.0
H877 H 0.38947 0.66073 0.60948 0.0
H878 H 0.49155 0.64959 0.67566 0.0
H879 H 0.43796 0.60808 0.56143 0.0
C880 C 0.47701 0.58946 0.56134 0.0
C881 C 0.50667 0.58599 0.57929 0.0
C882 C 0.46915 0.65193 0.66097 0.0
C883 C 0.47328 0.61997 0.60993 0.0
C884 C 0.45311 0.66872 0.67623 0.0
C885 C 0.42356 0.67276 0.65874 0.0
C886 C 0.45622 0.63837 0.6273 0.0
C887 C 0.41152 0.65855 0.62496 0.0
C888 C 0.46054 0.60613 0.57627 0.0
C889 C 0.5184 0.60029 0.61292 0.0
N890 N 0.42763 0.64242 0.61074 0.0
N891 N 0.50198 0.61627 0.62676 0.0
H892 H 0.565 0.15674 0.93885 0.0
H893 H 0.76087 0.2146 0.88166 0.0
H894 H 0.62212 0.09868 0.96631 0.0
H895 H 0.6771 0.22748 0.81708 0.0
H896 H 0.71503 0.18042 0.91964 0.0
H897 H 0.61069 0.19151 0.90053 0.0
C898 C 0.58727 0.15147 0.93698 0.0
C899 C 0.58978 0.12478 0.95577 0.0
C900 C 0.70673 0.19075 0.89715 0.0
C901 C 0.64217 0.16464 0.91244 0.0
C902 C 0.73287 0.21036 0.87551 0.0
C903 C 0.72274 0.22381 0.84607 0.0
C904 C 0.67039 0.18524 0.88978 0.0
C905 C 0.68599 0.2174 0.8394 0.0
C906 C 0.61312 0.17114 0.915 0.0
C907 C 0.61904 0.11889 0.9522 0.0
N908 N 0.66118 0.19881 0.86124 0.0
N909 N 0.64428 0.13886 0.93118 0.0
H910 H 0.04957 0.49952 0.09269 0.0
H911 H 0.21983 0.45292 0.11122 0.0
H912 H 0.1259 0.53315 0.02024 0.0
H913 H 0.12658 0.39789 0.16632 0.0
H914 H 0.19002 0.4848 0.08167 0.0
H915 H 0.07898 0.46688 0.12156 0.0
C916 C 0.07248 0.50049 0.08238 0.0
C917 C 0.08395 0.52032 0.05271 0.0
C918 C 0.17572 0.46585 0.10021 0.0
C919 C 0.12035 0.48113 0.08815 0.0
C920 C 0.19323 0.44712 0.11776 0.0
C921 C 0.177 0.42117 0.14263 0.0
C922 C 0.14069 0.46041 0.10679 0.0
C923 C 0.14159 0.4166 0.14795 0.0
C924 C 0.08968 0.48128 0.09938 0.0
C925 C 0.11466 0.51898 0.04234 0.0
N926 N 0.12561 0.4355 0.13101 0.0
N927 N 0.13117 0.50064 0.05959 0.0
H928 H 0.66071 0.59046 0.96817 0.0
H929 H 0.69928 0.73584 0.82708 0.0
H930 H 0.57381 0.61243 0.92736 0.0
H931 H 0.75173 0.67251 0.83973 0.0
H932 H 0.65783 0.69917 0.86863 0.0
H933 H 0.69912 0.62856 0.9268 0.0
C934 C 0.64961 0.6034 0.95059 0.0
C935 C 0.61366 0.59791 0.95149 0.0
C936 C 0.67845 0.6934 0.86221 0.0
C937 C 0.65847 0.6426 0.90357 0.0
C938 C 0.70226 0.71445 0.83865 0.0
C939 C 0.72911 0.70729 0.82973 0.0
C940 C 0.68212 0.66554 0.87758 0.0
C941 C 0.73148 0.67907 0.84557 0.0
C942 C 0.67169 0.62519 0.92677 0.0
C943 C 0.60117 0.61559 0.92764 0.0
N944 N 0.7087 0.65962 0.86866 0.0
N945 N 0.62358 0.63729 0.90486 0.0
H946 H 0.82375 0.40163 0.25068 0.0
H947 H 0.67848 0.39771 0.09776 0.0
H948 H 0.77182 0.32048 0.17121 0.0
H949 H 0.75164 0.48993 0.16377 0.0
H950 H 0.71366 0.36976 0.12267 0.0
H951 H 0.80008 0.43575 0.21742 0.0
C952 C 0.80797 0.39137 0.22587 0.0
C953 C 0.7996 0.35818 0.21369 0.0
C954 C 0.72216 0.39622 0.13149 0.0
C955 C 0.77151 0.3966 0.17581 0.0
C956 C 0.7021 0.41224 0.11727 0.0
C957 C 0.71177 0.44613 0.12891 0.0
C958 C 0.75197 0.41408 0.15773 0.0
C959 C 0.74248 0.46345 0.15452 0.0
C960 C 0.79434 0.41079 0.20692 0.0
C961 C 0.77906 0.34607 0.18142 0.0
N962 N 0.76124 0.44714 0.16819 0.0
N963 N 0.76511 0.36501 0.16379 0.0
H964 H 1.0087 0.41834 0.49477 0.0
H965 H 0.93755 0.38623 0.29654 0.0
H966 H 0.05232 0.50094 0.42304 0.0
H967 H 0.86948 0.31937 0.37 0.0
H968 H 0.98505 0.42502 0.34241 0.0
H969 H 0.9629 0.37727 0.44877 0.0
C970 C 1.00891 0.42761 0.46929 0.0
C971 C 1.03401 0.46298 0.46253 0.0
C972 C 0.95967 0.40192 0.34849 0.0
C973 C 0.98216 0.41659 0.41024 0.0
C974 C 0.93258 0.37986 0.32236 0.0
C975 C 0.89961 0.34974 0.32958 0.0
C976 C 0.95392 0.39348 0.38208 0.0
C977 C 0.8945 0.34251 0.36343 0.0
C978 C 0.98267 0.40435 0.44318 0.0
C979 C 1.03317 0.47387 0.42922 0.0
N980 N 0.92153 0.36415 0.38851 0.0
N981 N 1.00766 0.45077 0.4043 0.0
H982 H 0.59687 0.57212 0.44692 0.0
H983 H 0.76466 0.75897 0.39461 0.0
H984 H 0.67565 0.65795 0.51741 0.0
H985 H 0.70879 0.66564 0.32861 0.0
H986 H 0.72603 0.72415 0.43757 0.0
H987 H 0.63084 0.60762 0.40089 0.0
C988 C 0.62082 0.5986 0.45262 0.0
C989 C 0.63336 0.61213 0.48606 0.0
C990 C 0.7221 0.71116 0.41371 0.0
C991 C 0.6724 0.65277 0.43374 0.0
C992 C 0.74406 0.73116 0.38905 0.0
C993 C 0.73986 0.71537 0.3578 0.0
C994 C 0.69539 0.67487 0.40725 0.0
C995 C 0.71313 0.67894 0.35238 0.0
C996 C 0.64041 0.61873 0.42643 0.0
C997 C 0.66493 0.64642 0.49205 0.0
N998 N 0.69184 0.65999 0.37673 0.0
N999 N 0.68319 0.66543 0.46632 0.0
H1000 H 0.78787 0.35603 0.85118 0.0
H1001 H 0.97944 0.53387 0.90864 0.0
H1002 H 0.88575 0.38873 0.80369 0.0
H1003 H 0.9136 0.46305 0.98146 0.0
H1004 H 0.93749 0.48929 0.86372 0.0
H1005 H 0.82644 0.40476 0.89374 0.0
C1006 C 0.8173 0.37382 0.84952 0.0
C1007 C 0.83395 0.3686 0.82429 0.0
C1008 C 0.93233 0.48375 0.88959 0.0
C1009 C 0.8774 0.4239 0.87179 0.0
C1010 C 0.95617 0.50897 0.91509 0.0
C1011 C 0.95012 0.50173 0.94865 0.0
C1012 C 0.90184 0.45171 0.89781 0.0
C1013 C 0.91936 0.46935 0.95584 0.0
C1014 C 0.83916 0.40129 0.87372 0.0
C1015 C 0.87213 0.39195 0.82305 0.0
N1016 N 0.89612 0.44547 0.93051 0.0
N1017 N 0.89266 0.41882 0.84647 0.0
H1018 H 0.89942 0.90042 0.23546 0.0
H1019 H 0.93802 0.90548 0.04518 0.0
H1020 H 0.8473 0.80783 0.1688 0.0
H1021 H 1.01025 0.99253 0.11663 0.0
H1022 H 0.90437 0.87006 0.09033 0.0
H1023 H 0.93877 0.9355 0.19263 0.0
C1024 C 0.89619 0.88745 0.2118 0.0
C1025 C 0.87013 0.85096 0.20588 0.0
C1026 C 0.92776 0.89675 0.0964 0.0
C1027 C 0.91522 0.89109 0.15662 0.0
C1028 C 0.94715 0.91701 0.07058 0.0
C1029 C 0.97722 0.95199 0.07711 0.0
C1030 C 0.93774 0.91162 0.12925 0.0
C1031 C 0.98753 0.96555 0.11052 0.0
C1032 C 0.9189 0.90747 0.18745 0.0
C1033 C 0.86736 0.83567 0.17476 0.0
N1034 N 0.96755 0.94551 0.13528 0.0
N1035 N 0.8894 0.85573 0.15139 0.0
H1036 H 0.88516 0.19272 0.98414 0.0
H1037 H 0.87781 0.0382 0.00964 0.0
H1038 H 0.77159 0.13541 0.93235 0.0
H1039 H 0.82497 0.02683 0.90664 0.0
H1040 H 0.85333 0.0756 0.02288 0.0
H1041 H 0.87937 0.13683 1.00205 0.0
C1042 C 0.85841 0.16865 0.97752 0.0
C1043 C 0.82947 0.16889 0.95516 0.0
C1044 C 0.84603 0.06381 0.99772 0.0
C1045 C 0.82321 0.10448 0.97494 0.0
C1046 C 0.85978 0.04231 0.99009 0.0
C1047 C 0.854 0.02998 0.95672 0.0
C1048 C 0.82635 0.07282 0.97181 0.0
C1049 C 0.83066 0.0364 0.93247 0.0
C1050 C 0.85515 0.13649 0.98785 0.0
C1051 C 0.7955 0.13644 0.9479 0.0
N1052 N 0.81811 0.05787 0.94038 0.0
N1053 N 0.79389 0.10536 0.95636 0.0
H1054 H 0.72985 0.17593 0.76229 0.0
H1055 H 0.70033 0.10495 0.57923 0.0
H1056 H 0.82541 0.20932 0.71113 0.0
H1057 H 0.63726 0.03415 0.65348 0.0
H1058 H 0.74333 0.14819 0.62459 0.0
H1059 H 0.69166 0.12745 0.72014 0.0
C1060 C 0.74278 0.17276 0.74226 0.0
C1061 C 0.78064 0.19636 0.73992 0.0
C1062 C 0.72017 0.12307 0.63083 0.0
C1063 C 0.73721 0.1419 0.6916 0.0
C1064 C 0.69551 0.0986 0.60508 0.0
C1065 C 0.66515 0.06621 0.6128 0.0
C1066 C 0.71373 0.1153 0.66426 0.0
C1067 C 0.66024 0.05902 0.64661 0.0
C1068 C 0.72109 0.14513 0.71841 0.0
C1069 C 0.79627 0.19135 0.71368 0.0
N1070 N 0.68407 0.08367 0.6712 0.0
N1071 N 0.77422 0.16487 0.68999 0.0
H1072 H 0.75022 0.92599 0.54074 0.0
H1073 H 0.79284 0.82918 0.4777 0.0
H1074 H 0.63391 0.84368 0.52909 0.0
H1075 H 0.67681 0.78113 0.43355 0.0
H1076 H 0.77569 0.83481 0.53172 0.0
H1077 H 0.7676 0.88105 0.54207 0.0
C1078 C 0.72833 0.89829 0.53962 0.0
C1079 C 0.69059 0.88842 0.53235 0.0
C1080 C 0.75387 0.82227 0.51038 0.0
C1081 C 0.70999 0.83657 0.53279 0.0
C1082 C 0.76364 0.81913 0.47949 0.0
C1083 C 0.73667 0.80753 0.45046 0.0
C1084 C 0.71725 0.81473 0.5115 0.0
C1085 C 0.69902 0.79223 0.45475 0.0
C1086 C 0.7382 0.87228 0.54058 0.0
C1087 C 0.66341 0.85225 0.53239 0.0
N1088 N 0.69053 0.79732 0.48452 0.0
N1089 N 0.67356 0.8275 0.53135 0.0
H1090 H 0.78714 0.16525 0.31095 0.0
H1091 H 0.91855 0.15391 0.47088 0.0
H1092 H 0.84118 0.24466 0.39202 0.0
H1093 H 0.87243 0.08343 0.38272 0.0
H1094 H 0.88525 0.184 0.44646 0.0
H1095 H 0.81051 0.13002 0.34216 0.0
C1096 C 0.80336 0.17492 0.33571 0.0
C1097 C 0.81246 0.20799 0.34885 0.0
C1098 C 0.88232 0.16181 0.43262 0.0
C1099 C 0.84027 0.1682 0.38447 0.0
C1100 C 0.90159 0.14482 0.44637 0.0
C1101 C 0.89838 0.11605 0.42884 0.0
C1102 C 0.85964 0.14992 0.40113 0.0
C1103 C 0.87543 0.1051 0.39744 0.0
C1104 C 0.81695 0.15491 0.35345 0.0
C1105 C 0.83342 0.2192 0.38109 0.0
N1106 N 0.85708 0.12205 0.38465 0.0
N1107 N 0.84717 0.19956 0.39765 0.0
H1108 H 0.74578 0.24797 0.19362 0.0
H1109 H 0.5576 0.06516 0.14013 0.0
H1110 H 0.67362 0.18234 0.26511 0.0
H1111 H 0.60581 0.14862 0.07001 0.0
H1112 H 0.60248 0.10581 0.18614 0.0
H1113 H 0.69818 0.20945 0.14759 0.0
C1114 C 0.72001 0.22531 0.19962 0.0
C1115 C 0.71352 0.21822 0.23317 0.0
C1116 C 0.60307 0.11538 0.16077 0.0
C1117 C 0.65915 0.17423 0.18078 0.0
C1118 C 0.57751 0.09224 0.13454 0.0
C1119 C 0.57822 0.10366 0.10136 0.0
C1120 C 0.63 0.15003 0.15366 0.0
C1121 C 0.60439 0.13893 0.09535 0.0
C1122 C 0.69278 0.20355 0.17335 0.0
C1123 C 0.67964 0.18866 0.23956 0.0
N1124 N 0.62967 0.16084 0.12127 0.0
N1125 N 0.65375 0.16762 0.21359 0.0
H1126 H 0.76787 0.94992 0.85782 0.0
H1127 H 0.69129 0.98703 0.01314 0.0
H1128 H 0.79023 0.92357 0.9602 0.0
H1129 H 0.64741 0.98624 0.90881 0.0
H1130 H 0.73905 0.97757 0.99511 0.0
H1131 H 0.73471 0.97641 0.87742 0.0
C1132 C 0.76601 0.94981 0.88445 0.0
C1133 C 0.78112 0.9336 0.90723 0.0
C1134 C 0.71916 0.97981 0.9762 0.0
C1135 C 0.74368 0.96456 0.9299 0.0
C1136 C 0.69208 0.98544 0.98645 0.0
C1137 C 0.665 0.98687 0.96241 0.0
C1138 C 0.7192 0.97575 0.9417 0.0
C1139 C 0.66726 0.98454 0.92817 0.0
C1140 C 0.74716 0.96508 0.89562 0.0
C1141 C 0.77898 0.93557 0.94163 0.0
N1142 N 0.69367 0.97882 0.91885 0.0
N1143 N 0.76021 0.95039 0.95187 0.0
H1144 H 0.95225 0.97682 0.59395 0.0
H1145 H 0.9134 0.83045 0.73405 0.0
H1146 H 1.03861 0.95363 0.63335 0.0
H1147 H 0.861 0.89383 0.72155 0.0
H1148 H 0.95496 0.86727 0.69262 0.0
H1149 H 0.91399 0.93864 0.63529 0.0
C1150 C 0.96328 0.96361 0.61123 0.0
C1151 C 0.99901 0.96876 0.60991 0.0
C1152 C 0.93434 0.87302 0.69906 0.0
C1153 C 0.95437 0.92398 0.65786 0.0
C1154 C 0.91046 0.85188 0.72254 0.0
C1155 C 0.88359 0.85901 0.73146 0.0
C1156 C 0.93072 0.90095 0.6838 0.0
C1157 C 0.88127 0.88728 0.71572 0.0
C1158 C 0.94128 0.94177 0.63504 0.0
C1159 C 1.01142 0.95074 0.6334 0.0
N1160 N 0.90412 0.90683 0.69273 0.0
N1161 N 0.98908 0.929 0.65622 0.0
H1162 H 0.20369 0.88323 0.95962 0.0
H1163 H 0.07797 0.97776 0.93207 0.0
H1164 H 0.16544 0.90604 0.8614 0.0
H1165 H 0.13453 0.97428 0.02945 0.0
H1166 H 0.10643 0.94905 0.90658 0.0
H1167 H 0.17615 0.91268 0.9853 0.0
C1168 C 0.1894 0.89408 0.9431 0.0
C1169 C 0.18743 0.89137 0.90763 0.0
C1170 C 0.11276 0.95446 0.93354 0.0
C1171 C 0.15478 0.92625 0.93805 0.0
C1172 C 0.09628 0.97103 0.94839 0.0
C1173 C 0.1033 0.97905 0.9835 0.0
C1174 C 0.13672 0.94481 0.95348 0.0
C1175 C 0.12779 0.96914 1.00245 0.0
C1176 C 0.17367 0.91133 0.95811 0.0
C1177 C 0.16854 0.90714 0.88862 0.0
N1178 N 0.14311 0.95269 0.98745 0.0
N1179 N 0.1531 0.92333 0.90381 0.0
H1180 H 0.99221 0.47062 0.5968 0.0
H1181 H 0.93794 0.33744 0.74694 0.0
H1182 H 0.04774 0.41107 0.624 0.0
H1183 H 0.85544 0.35208 0.68225 0.0
H1184 H 0.98345 0.37177 0.70836 0.0
H1185 H 0.94638 0.43477 0.63442 0.0
C1186 C 0.99481 0.45004 0.61073 0.0
C1187 C 1.02377 0.44372 0.6072 0.0
C1188 C 0.95533 0.36733 0.70267 0.0
C1189 C 0.97181 0.40311 0.65063 0.0
C1190 C 0.92944 0.34793 0.7247 0.0
C1191 C 0.89284 0.34186 0.71777 0.0
C1192 C 0.9448 0.38148 0.674 0.0
C1193 C 0.88328 0.35596 0.6885 0.0
C1194 C 0.96857 0.42954 0.63206 0.0
C1195 C 1.0257 0.41664 0.62581 0.0
N1196 N 0.90919 0.37541 0.66787 0.0
N1197 N 1.00027 0.39753 0.647 0.0
H1198 H 0.48876 0.03433 0.54366 0.0
H1199 H 0.48731 0.17031 0.39337 0.0
H1200 H 0.56205 0.06746 0.46857 0.0
H1201 H 0.39629 0.11517 0.45099 0.0
H1202 H 0.51675 0.13798 0.42247 0.0
H1203 H 0.45853 0.06614 0.51432 0.0
C1204 C 0.4991 0.04819 0.52115 0.0
C1205 C 0.52923 0.0469 0.50974 0.0
C1206 C 0.49034 0.13267 0.4291 0.0
C1207 C 0.49287 0.08608 0.47417 0.0
C1208 C 0.47297 0.15175 0.41212 0.0
C1209 C 0.43789 0.1469 0.41841 0.0
C1210 C 0.47407 0.1076 0.45432 0.0
C1211 C 0.42264 0.12106 0.44379 0.0
C1212 C 0.48125 0.06678 0.50394 0.0
C1213 C 0.53952 0.06649 0.47958 0.0
N1214 N 0.44037 0.10343 0.46021 0.0
N1215 N 0.52217 0.08467 0.46376 0.0
H1216 H 0.55343 0.5876 0.12679 0.0
H1217 H 0.73994 0.77272 0.16859 0.0
H1218 H 0.63505 0.62975 0.05818 0.0
H1219 H 0.69897 0.69529 0.24518 0.0
H1220 H 0.69442 0.72688 0.12562 0.0
H1221 H 0.59945 0.63366 0.16919 0.0
C1222 C 0.58095 0.6067 0.12065 0.0
C1223 C 0.59062 0.60499 0.08911 0.0
C1224 C 0.6955 0.72011 0.15188 0.0
C1225 C 0.6427 0.65779 0.13687 0.0
C1226 C 0.72121 0.74616 0.1763 0.0
C1227 C 0.72301 0.73763 0.21032 0.0
C1228 C 0.67084 0.68578 0.16184 0.0
C1229 C 0.69841 0.70282 0.21913 0.0
C1230 C 0.60712 0.63275 0.14479 0.0
C1231 C 0.62666 0.63018 0.08233 0.0
N1232 N 0.67298 0.67822 0.19507 0.0
N1233 N 0.65136 0.65586 0.10592 0.0
H1234 H 0.18682 0.22266 0.75092 0.0
H1235 H 0.15117 0.14111 0.56847 0.0
H1236 H 0.25478 0.2861 0.67611 0.0
H1237 H 0.06147 0.11108 0.62662 0.0
H1238 H 0.19288 0.19118 0.60893 0.0
H1239 H 0.14302 0.1783 0.70695 0.0
C1240 C 0.19203 0.22748 0.725 0.0
C1241 C 0.22395 0.2582 0.71688 0.0
C1242 C 0.16399 0.1737 0.61259 0.0
C1243 C 0.17483 0.20698 0.66668 0.0
C1244 C 0.14032 0.14506 0.58974 0.0
C1245 C 0.1029 0.12198 0.59434 0.0
C1246 C 0.15021 0.17868 0.64047 0.0
C1247 C 0.09014 0.12827 0.62218 0.0
C1248 C 0.16716 0.20215 0.69998 0.0
C1249 C 0.22997 0.26301 0.68311 0.0
N1250 N 0.11382 0.1558 0.64435 0.0
N1251 N 0.20585 0.2373 0.65916 0.0
H1252 H 0.65155 0.38323 0.37188 0.0
H1253 H 0.65948 0.49437 0.53389 0.0
H1254 H 0.7403 0.4194 0.45616 0.0
H1255 H 0.57722 0.46525 0.44509 0.0
H1256 H 0.68836 0.4664 0.50739 0.0
H1257 H 0.62364 0.4112 0.3991 0.0
C1258 C 0.66539 0.39673 0.39615 0.0
C1259 C 0.69901 0.39827 0.4111 0.0
C1260 C 0.66398 0.46604 0.4936 0.0
C1261 C 0.66609 0.43161 0.4433 0.0
C1262 C 0.64723 0.48215 0.50889 0.0
C1263 C 0.6153 0.48265 0.49217 0.0
C1264 C 0.64904 0.44964 0.46096 0.0
C1265 C 0.60153 0.466 0.45951 0.0
C1266 C 0.64925 0.41312 0.41178 0.0
C1267 C 0.71491 0.41728 0.44273 0.0
N1268 N 0.61813 0.45045 0.44537 0.0
N1269 N 0.69852 0.43276 0.45746 0.0
H1270 H 0.39853 0.94763 0.05789 0.0
H1271 H 0.41666 0.90374 0.24856 0.0
H1272 H 0.47081 0.03224 0.13178 0.0
H1273 H 0.31052 0.84947 0.18379 0.0
H1274 H 0.44119 0.94906 0.20579 0.0
H1275 H 0.36875 0.90864 0.10322 0.0
C1276 C 0.40763 0.95809 0.08368 0.0
C1277 C 0.43679 0.99315 0.09125 0.0
C1278 C 0.41238 0.92744 0.20128 0.0
C1279 C 0.40401 0.94851 0.14313 0.0
C1280 C 0.39854 0.90157 0.22548 0.0
C1281 C 0.36149 0.87314 0.2197 0.0
C1282 C 0.38928 0.92405 0.17085 0.0
C1283 C 0.33906 0.87134 0.1894 0.0
C1284 C 0.39073 0.9359 0.10948 0.0
C1285 C 0.44797 1.00544 0.12503 0.0
N1286 N 0.35343 0.89617 0.16591 0.0
N1287 N 0.432 0.9829 0.14992 0.0
H1288 H 0.96471 0.66498 0.9813 0.0
H1289 H 0.87598 0.70486 0.79639 0.0
H1290 H 0.97629 0.63148 0.88733 0.0
H1291 H 0.87802 0.75153 0.88911 0.0
H1292 H 0.90902 0.67684 0.8283 0.0
H1293 H 0.93169 0.69338 0.94991 0.0
C1294 C 0.96019 0.6628 0.95413 0.0
C1295 C 0.97413 0.64415 0.93832 0.0
C1296 C 0.90248 0.69315 0.84211 0.0
C1297 C 0.93437 0.67909 0.89969 0.0
C1298 C 0.88307 0.70966 0.82343 0.0
C1299 C 0.87297 0.73193 0.83872 0.0
C1300 C 0.9129 0.69742 0.87787 0.0
C1301 C 0.88428 0.73543 0.87469 0.0
C1302 C 0.94111 0.67979 0.9357 0.0
C1303 C 0.96699 0.6447 0.90214 0.0
N1304 N 0.90272 0.71888 0.89216 0.0
N1305 N 0.94819 0.66103 0.88495 0.0
H1306 H 0.43164 0.44426 0.07891 0.0
H1307 H 0.4442 0.35693 0.25735 0.0
H1308 H 0.53492 0.46199 0.1371 0.0
H1309 H 0.34008 0.34266 0.20474 0.0
H1310 H 0.47703 0.39552 0.21338 0.0
H1311 H 0.39742 0.4073 0.12357 0.0
C1312 C 0.44725 0.44042 0.101 0.0
C1313 C 0.48651 0.45647 0.10393 0.0
C1314 C 0.44705 0.38424 0.21133 0.0
C1315 C 0.447 0.41378 0.15564 0.0
C1316 C 0.42815 0.36213 0.23661 0.0
C1317 C 0.38918 0.34649 0.23504 0.0
C1318 C 0.42709 0.39095 0.18363 0.0
C1319 C 0.37012 0.35429 0.20728 0.0
C1320 C 0.42755 0.41926 0.12661 0.0
C1321 C 0.50482 0.45032 0.13342 0.0
N1322 N 0.38919 0.37578 0.18265 0.0
N1323 N 0.48503 0.42958 0.15788 0.0
H1324 H 0.41045 0.64416 0.96736 0.0
H1325 H 0.28411 0.66562 0.80938 0.0
H1326 H 0.36073 0.57518 0.87802 0.0
H1327 H 0.34127 0.74285 0.89213 0.0
H1328 H 0.3037 0.62715 0.83963 0.0
H1329 H 0.37948 0.6768 0.94454 0.0
C1330 C 0.39318 0.6359 0.94293 0.0
C1331 C 0.38847 0.60691 0.92453 0.0
C1332 C 0.31168 0.65228 0.85149 0.0
C1333 C 0.3523 0.64374 0.89867 0.0
C1334 C 0.3003 0.67416 0.83429 0.0
C1335 C 0.31141 0.70753 0.84821 0.0
C1336 C 0.33489 0.66402 0.88271 0.0
C1337 C 0.3321 0.71724 0.88061 0.0
C1338 C 0.37521 0.65436 0.9301 0.0
C1339 C 0.365 0.59703 0.89338 0.0
N1340 N 0.34376 0.69578 0.89662 0.0
N1341 N 0.34798 0.61544 0.88146 0.0
H1342 H 0.18559 0.60527 0.58247 0.0
H1343 H 0.19704 0.66503 0.7714 0.0
H1344 H 0.15023 0.53007 0.66155 0.0
H1345 H 0.25409 0.73701 0.69537 0.0
H1346 H 0.17514 0.61468 0.73156 0.0
H1347 H 0.20689 0.65344 0.62355 0.0
C1348 C 0.18249 0.59894 0.60863 0.0
C1349 C 0.16621 0.56369 0.6187 0.0
C1350 C 0.19249 0.64152 0.7237 0.0
C1351 C 0.19034 0.61887 0.66605 0.0
C1352 C 0.20473 0.67016 0.74627 0.0
C1353 C 0.22746 0.70506 0.73655 0.0
C1354 C 0.20275 0.64808 0.69118 0.0
C1355 C 0.23687 0.71044 0.70389 0.0
C1356 C 0.19467 0.62649 0.63212 0.0
C1357 C 0.16285 0.55699 0.65289 0.0
N1358 N 0.22444 0.68231 0.6824 0.0
N1359 N 0.17465 0.58439 0.67543 0.0
H1360 H 0.35142 0.29836 0.66766 0.0
H1361 H 0.52435 0.48712 0.6242 0.0
H1362 H 0.4139 0.38737 0.739 0.0
H1363 H 0.44399 0.4071 0.54931 0.0
H1364 H 0.49074 0.44777 0.6685 0.0
H1365 H 0.39141 0.33465 0.62572 0.0
C1366 C 0.37367 0.32535 0.67464 0.0
C1367 C 0.37893 0.33977 0.70693 0.0
C1368 C 0.48074 0.43875 0.64234 0.0
C1369 C 0.42513 0.3816 0.65899 0.0
C1370 C 0.5001 0.46112 0.61712 0.0
C1371 C 0.48696 0.45043 0.583 0.0
C1372 C 0.44831 0.40531 0.63335 0.0
C1373 C 0.45509 0.41654 0.57527 0.0
C1374 C 0.39647 0.34615 0.65065 0.0
C1375 C 0.40839 0.37508 0.71439 0.0
N1376 N 0.43695 0.39535 0.60008 0.0
N1377 N 0.43021 0.39467 0.69073 0.0
H1378 H 0.29329 0.77075 0.15799 0.0
H1379 H 0.0854 0.62262 0.08858 0.0
H1380 H 0.20999 0.71068 0.2228 0.0
H1381 H 0.15406 0.70613 0.02579 0.0
H1382 H 0.13127 0.65425 0.13772 0.0
H1383 H 0.24397 0.74734 0.10897 0.0
C1384 C 0.26457 0.7527 0.16187 0.0
C1385 C 0.25567 0.74226 0.1944 0.0
C1386 C 0.13617 0.66602 0.11333 0.0
C1387 C 0.19928 0.71535 0.13857 0.0
C1388 C 0.10986 0.64802 0.08521 0.0
C1389 C 0.11573 0.66191 0.05304 0.0
C1390 C 0.16922 0.69788 0.10936 0.0
C1391 C 0.14836 0.69461 0.05017 0.0
C1392 C 0.23646 0.73953 0.13393 0.0
C1393 C 0.21805 0.71919 0.19812 0.0
N1394 N 0.1742 0.71131 0.07796 0.0
N1395 N 0.1913 0.70619 0.17051 0.0
H1396 H 0.72782 0.3759 0.58333 0.0
H1397 H 0.73381 0.53013 0.5587 0.0
H1398 H 0.84142 0.43376 0.63507 0.0
H1399 H 0.78761 0.54293 0.66153 0.0
H1400 H 0.75827 0.49262 0.54577 0.0
H1401 H 0.73263 0.43171 0.56671 0.0
C1402 C 0.75435 0.4001 0.59025 0.0
C1403 C 0.78363 0.3999 0.61211 0.0
C1404 C 0.76567 0.50463 0.57084 0.0
C1405 C 0.78877 0.46425 0.59381 0.0
C1406 C 0.75195 0.5262 0.57828 0.0
C1407 C 0.75796 0.53888 0.61152 0.0
C1408 C 0.78549 0.49586 0.59683 0.0
C1409 C 0.78152 0.53281 0.63584 0.0
C1410 C 0.75705 0.43221 0.58068 0.0
C1411 C 0.81725 0.43258 0.61987 0.0
N1412 N 0.79399 0.5112 0.62813 0.0
N1413 N 0.81833 0.46356 0.61209 0.0
H1414 H 0.94094 0.79163 0.13669 0.0
H1415 H 0.98713 0.7283 0.03408 0.0
H1416 H 0.8268 0.74048 0.08666 0.0
H1417 H 0.86981 0.64968 0.02776 0.0
H1418 H 0.97182 0.77514 0.03504 0.0
H1419 H 0.96144 0.79043 0.08422 0.0
C1420 C 0.92011 0.78117 0.11441 0.0
C1421 C 0.88172 0.76349 0.11667 0.0
C1422 C 0.94932 0.74767 0.0327 0.0
C1423 C 0.905 0.76041 0.05632 0.0
C1424 C 0.95804 0.72097 0.03221 0.0
C1425 C 0.92983 0.68523 0.03328 0.0
C1426 C 0.91248 0.73819 0.0358 0.0
C1427 C 0.89256 0.67699 0.02866 0.0
C1428 C 0.93193 0.78052 0.08395 0.0
C1429 C 0.85651 0.7518 0.08652 0.0
N1430 N 0.88499 0.70335 0.03123 0.0
N1431 N 0.86839 0.74906 0.05772 0.0
H1432 H 0.97389 0.58917 0.65787 0.0
H1433 H 0.81088 0.63077 0.59858 0.0
H1434 H 0.92122 0.5763 0.55467 0.0
H1435 H 0.85697 0.63338 0.70266 0.0
H1436 H 0.84622 0.60494 0.5824 0.0
H1437 H 0.92643 0.59911 0.6753 0.0
C1438 C 0.95212 0.58818 0.63892 0.0
C1439 C 0.95178 0.58241 0.60474 0.0
C1440 C 0.84826 0.61082 0.60881 0.0
C1441 C 0.89742 0.59393 0.62442 0.0
C1442 C 0.82816 0.62571 0.61809 0.0
C1443 C 0.83108 0.63463 0.65206 0.0
C1444 C 0.87173 0.60502 0.63363 0.0
C1445 C 0.85342 0.62672 0.67622 0.0
C1446 C 0.92493 0.59371 0.64887 0.0
C1447 C 0.92253 0.5807 0.58129 0.0
N1448 N 0.87316 0.61277 0.66649 0.0
N1449 N 0.89681 0.58695 0.5915 0.0
H1450 H 0.34323 0.49667 0.45015 0.0
H1451 H 0.3049 0.59228 0.29538 0.0
H1452 H 0.33286 0.46677 0.34632 0.0
H1453 H 0.34635 0.63284 0.39842 0.0
H1454 H 0.28461 0.53235 0.31507 0.0
H1455 H 0.30932 0.52713 0.43229 0.0
C1456 C 0.33259 0.49516 0.42365 0.0
C1457 C 0.34303 0.48104 0.39942 0.0
C1458 C 0.29722 0.55432 0.33337 0.0
C1459 C 0.3055 0.51715 0.37894 0.0
C1460 C 0.30938 0.58862 0.32215 0.0
C1461 C 0.32888 0.61792 0.34512 0.0
C1462 C 0.30466 0.54934 0.36776 0.0
C1463 C 0.33211 0.61131 0.37962 0.0
C1464 C 0.31338 0.51293 0.41345 0.0
C1465 C 0.32737 0.47926 0.36565 0.0
N1466 N 0.32084 0.57781 0.3898 0.0
N1467 N 0.31057 0.49841 0.35617 0.0
H1468 H 0.31257 0.47369 0.93031 0.0
H1469 H 0.13829 0.49984 0.86933 0.0
H1470 H 0.21632 0.40428 0.85876 0.0
H1471 H 0.23048 0.56973 0.94403 0.0
H1472 H 0.16741 0.4646 0.8661 0.0
H1473 H 0.28316 0.5086 0.93786 0.0
C1474 C 0.28513 0.46562 0.91652 0.0
C1475 C 0.26695 0.43621 0.89376 0.0
C1476 C 0.18147 0.48768 0.88318 0.0
C1477 C 0.23325 0.47564 0.90226 0.0
C1478 C 0.16503 0.50809 0.88472 0.0
C1479 C 0.1822 0.53797 0.90673 0.0
C1480 C 0.21542 0.49708 0.90381 0.0
C1481 C 0.21632 0.5468 0.92679 0.0
C1482 C 0.26837 0.48545 0.92086 0.0
C1483 C 0.2312 0.42645 0.87689 0.0
N1484 N 0.23193 0.52642 0.92482 0.0
N1485 N 0.21571 0.44627 0.88132 0.0
H1486 H 0.30057 0.30365 0.39854 0.0
H1487 H 0.22954 0.43843 0.41552 0.0
H1488 H 0.32415 0.39151 0.33335 0.0
H1489 H 0.23624 0.37458 0.49829 0.0
H1490 H 0.26226 0.41902 0.38461 0.0
H1491 H 0.27881 0.32914 0.43683 0.0
C1492 C 0.30223 0.32877 0.39275 0.0
C1493 C 0.31385 0.34522 0.36246 0.0
C1494 C 0.25733 0.40985 0.40983 0.0
C1495 C 0.28794 0.37386 0.40552 0.0
C1496 C 0.23803 0.42048 0.42734 0.0
C1497 C 0.22982 0.40807 0.45962 0.0
C1498 C 0.26907 0.38688 0.42464 0.0
C1499 C 0.24228 0.38526 0.47368 0.0
C1500 C 0.28944 0.34312 0.41444 0.0
C1501 C 0.31492 0.37755 0.35612 0.0
N1502 N 0.26108 0.37526 0.45606 0.0
N1503 N 0.30157 0.39042 0.37709 0.0
loop_
_geom_bond_atom_site_label_1
_geom_bond_atom_site_label_2
_geom_bond_distance
_geom_bond_site_symmetry_2
_ccdc_geom_bond_type
Gd0 C3 2.818 . S
Gd0 O20 2.377 . S
Gd0 O22 2.448 . S
Gd0 O23 2.506 1_545 S
Gd0 O24 2.435 . S
Gd0 O25 2.717 . S
Gd0 O27 2.395 . S
Gd0 O31 2.327 1_445 S
Gd1 C12 2.818 . S
Gd1 O21 2.395 1_545 S
Gd1 O25 2.327 1_656 S
Gd1 O26 2.377 1_556 S
Gd1 O28 2.448 . S
Gd1 O29 2.506 . S
Gd1 O30 2.435 1_546 S
Gd1 O31 2.717 1_546 S
C2 O20 1.240 1_566 S
C2 O21 1.240 1_455 S
C3 Gd0 2.818 . S
C3 C4 1.510 1_545 S
C3 O22 1.249 . S
C3 O23 1.252 1_545 S
C4 C3 1.510 1_565 S
C4 C5 1.404 1_565 S
C4 C6 1.352 . S
C5 C4 1.404 1_545 S
C5 C9 1.389 . S
C5 H32 0.930 . S
C6 C4 1.352 . S
C6 C8 1.374 . S
C6 H33 0.931 . S
C7 C8 1.359 . S
C7 C9 1.364 1_565 S
C8 C6 1.374 . S
C8 C7 1.359 . S
C8 H34 0.931 . S
C9 C5 1.389 . S
C9 C7 1.364 1_545 S
C9 H35 0.931 . S
C10 O24 1.256 . S
C10 O25 1.257 . S
C11 O26 1.240 . S
C11 O27 1.240 1_655 S
C12 Gd1 2.818 . S
C12 C13 1.510 . S
C12 O28 1.249 . S
C12 O29 1.252 . S
C13 C12 1.510 . S
C13 C14 1.404 . S
C13 C15 1.352 . S
C14 C13 1.404 . S
C14 C18 1.389 . S
C14 H36 0.930 . S
C15 C13 1.352 . S
C15 C17 1.374 . S
C15 H37 0.931 . S
C16 C17 1.359 . S
C16 C18 1.364 . S
C17 C15 1.374 . S
C17 C16 1.359 . S
C17 H38 0.931 . S
C18 C14 1.389 . S
C18 C16 1.364 . S
C18 H39 0.931 . S
C19 O30 1.256 . S
C19 O31 1.257 . S
O20 Gd0 2.377 . S
O20 C2 1.240 1_544 S
O21 Gd1 2.395 1_565 S
O21 C2 1.240 1_655 S
O22 Gd0 2.448 . S
O22 C3 1.249 . S
O23 Gd0 2.506 1_565 S
O23 C3 1.252 1_565 S
O24 Gd0 2.435 . S
O24 C10 1.256 . S
O25 Gd0 2.717 . S
O25 Gd1 2.327 1_454 S
O25 C10 1.257 . S
O26 Gd1 2.377 1_554 S
O26 C11 1.240 . S
O27 Gd0 2.395 . S
O27 C11 1.240 1_455 S
O28 Gd1 2.448 . S
O28 C12 1.249 . S
O29 Gd1 2.506 . S
O29 C12 1.252 . S
O30 Gd1 2.435 1_564 S
O30 C19 1.256 . S
O31 Gd0 2.327 1_665 S
O31 Gd1 2.717 1_564 S
O31 C19 1.257 . S
H32 C5 0.930 . S
H33 C6 0.931 . S
H34 C8 0.931 . S
H35 C9 0.931 . S
H36 C14 0.930 . S
H37 C15 0.931 . S
H38 C17 0.931 . S
H39 C18 0.931 . S
Gd40 C43 2.818 . S
Gd40 O60 2.377 . S
Gd40 O62 2.448 . S
Gd40 O63 2.506 . S
Gd40 O64 2.435 . S
Gd40 O65 2.717 . S
Gd40 O67 2.395 . S
Gd40 O71 2.327 . S
Gd41 C52 2.818 . S
Gd41 O61 2.395 . S
Gd41 O65 2.327 . S
Gd41 O66 2.377 . S
Gd41 O68 2.448 . S
Gd41 O69 2.506 . S
Gd41 O70 2.435 . S
Gd41 O71 2.717 . S
C42 O60 1.240 . S
C42 O61 1.240 . S
C43 Gd40 2.818 . S
C43 C44 1.510 . S
C43 O62 1.249 . S
C43 O63 1.252 . S
C44 C43 1.510 . S
C44 C45 1.404 . S
C44 C46 1.352 . S
C45 C44 1.404 . S
C45 C49 1.389 . S
C45 H72 0.930 . S
C46 C44 1.352 . S
C46 C48 1.374 . S
C46 H73 0.931 . S
C47 C48 1.359 . S
C47 C49 1.364 . S
C48 C46 1.374 . S
C48 C47 1.359 . S
C48 H74 0.931 . S
C49 C45 1.389 . S
C49 C47 1.364 . S
C49 H75 0.931 . S
C50 O64 1.256 . S
C50 O65 1.257 . S
C51 O66 1.240 . S
C51 O67 1.240 . S
C52 Gd41 2.818 . S
C52 C53 1.510 . S
C52 O68 1.249 . S
C52 O69 1.252 . S
C53 C52 1.510 . S
C53 C54 1.404 . S
C53 C55 1.352 . S
C54 C53 1.404 . S
C54 C58 1.389 . S
C54 H76 0.930 . S
C55 C53 1.352 . S
C55 C57 1.374 . S
C55 H77 0.931 . S
C56 C57 1.359 . S
C56 C58 1.364 . S
C57 C55 1.374 . S
C57 C56 1.359 . S
C57 H78 0.931 . S
C58 C54 1.389 . S
C58 C56 1.364 . S
C58 H79 0.931 . S
C59 O70 1.256 . S
C59 O71 1.257 . S
O60 Gd40 2.377 . S
O60 C42 1.240 . S
O61 Gd41 2.395 . S
O61 C42 1.240 . S
O62 Gd40 2.448 . S
O62 C43 1.249 . S
O63 Gd40 2.506 . S
O63 C43 1.252 . S
O64 Gd40 2.435 . S
O64 C50 1.256 . S
O65 Gd40 2.717 . S
O65 Gd41 2.327 . S
O65 C50 1.257 . S
O66 Gd41 2.377 . S
O66 C51 1.240 . S
O67 Gd40 2.395 . S
O67 C51 1.240 . S
O68 Gd41 2.448 . S
O68 C52 1.249 . S
O69 Gd41 2.506 . S
O69 C52 1.252 . S
O70 Gd41 2.435 . S
O70 C59 1.256 . S
O71 Gd40 2.327 . S
O71 Gd41 2.717 . S
O71 C59 1.257 . S
H72 C45 0.930 . S
H73 C46 0.931 . S
H74 C48 0.931 . S
H75 C49 0.931 . S
H76 C54 0.930 . S
H77 C55 0.931 . S
H78 C57 0.931 . S
H79 C58 0.931 . S
Gd80 C83 2.818 1_565 S
Gd80 O100 2.377 1_565 S
Gd80 O102 2.448 . S
Gd80 O103 2.506 1_565 S
Gd80 O104 2.435 . S
Gd80 O105 2.717 . S
Gd80 O107 2.395 . S
Gd80 O111 2.327 1_565 S
Gd81 C92 2.818 1_545 S
Gd81 O101 2.395 . S
Gd81 O105 2.327 1_545 S
Gd81 O106 2.377 1_545 S
Gd81 O108 2.448 . S
Gd81 O109 2.506 1_545 S
Gd81 O110 2.435 . S
Gd81 O111 2.717 . S
C82 O100 1.240 . S
C82 O101 1.240 . S
C83 Gd80 2.818 1_545 S
C83 C84 1.510 . S
C83 O102 1.249 1_545 S
C83 O103 1.252 . S
C84 C83 1.510 . S
C84 C85 1.404 . S
C84 C86 1.352 . S
C85 C84 1.404 . S
C85 C89 1.389 . S
C85 H112 0.930 1_545 S
C86 C84 1.352 . S
C86 C88 1.374 . S
C86 H113 0.931 . S
C87 C88 1.359 . S
C87 C89 1.364 . S
C88 C86 1.374 . S
C88 C87 1.359 . S
C88 H114 0.931 . S
C89 C85 1.389 . S
C89 C87 1.364 . S
C89 H115 0.931 1_545 S
C90 O104 1.256 . S
C90 O105 1.257 . S
C91 O106 1.240 . S
C91 O107 1.240 . S
C92 Gd81 2.818 1_565 S
C92 C93 1.510 . S
C92 O108 1.249 1_565 S
C92 O109 1.252 . S
C93 C92 1.510 . S
C93 C94 1.404 . S
C93 C95 1.352 . S
C94 C93 1.404 . S
C94 C98 1.389 . S
C94 H116 0.930 1_565 S
C95 C93 1.352 . S
C95 C97 1.374 . S
C95 H117 0.931 . S
C96 C97 1.359 . S
C96 C98 1.364 . S
C97 C95 1.374 . S
C97 C96 1.359 . S
C97 H118 0.931 . S
C98 C94 1.389 . S
C98 C96 1.364 . S
C98 H119 0.931 1_565 S
C99 O110 1.256 . S
C99 O111 1.257 . S
O100 Gd80 2.377 1_545 S
O100 C82 1.240 . S
O101 Gd81 2.395 . S
O101 C82 1.240 . S
O102 Gd80 2.448 . S
O102 C83 1.249 1_565 S
O103 Gd80 2.506 1_545 S
O103 C83 1.252 . S
O104 Gd80 2.435 . S
O104 C90 1.256 . S
O105 Gd80 2.717 . S
O105 Gd81 2.327 1_565 S
O105 C90 1.257 . S
O106 Gd81 2.377 1_565 S
O106 C91 1.240 . S
O107 Gd80 2.395 . S
O107 C91 1.240 . S
O108 Gd81 2.448 . S
O108 C92 1.249 1_545 S
O109 Gd81 2.506 1_565 S
O109 C92 1.252 . S
O110 Gd81 2.435 . S
O110 C99 1.256 . S
O111 Gd80 2.327 1_545 S
O111 Gd81 2.717 . S
O111 C99 1.257 . S
H112 C85 0.930 1_565 S
H113 C86 0.931 . S
H114 C88 0.931 . S
H115 C89 0.931 1_565 S
H116 C94 0.930 1_545 S
H117 C95 0.931 . S
H118 C97 0.931 . S
H119 C98 0.931 1_545 S
Gd120 C123 2.818 . S
Gd120 O140 2.377 . S
Gd120 O142 2.448 . S
Gd120 O143 2.506 . S
Gd120 O144 2.435 . S
Gd120 O145 2.717 . S
Gd120 O147 2.395 . S
Gd120 O151 2.327 . S
Gd121 C132 2.818 . S
Gd121 O141 2.395 . S
Gd121 O145 2.327 . S
Gd121 O146 2.377 . S
Gd121 O148 2.448 . S
Gd121 O149 2.506 . S
Gd121 O150 2.435 . S
Gd121 O151 2.717 . S
C122 O140 1.240 . S
C122 O141 1.240 . S
C123 Gd120 2.818 . S
C123 C124 1.510 . S
C123 O142 1.249 . S
C123 O143 1.252 . S
C124 C123 1.510 . S
C124 C125 1.404 . S
C124 C126 1.352 . S
C125 C124 1.404 . S
C125 C129 1.389 . S
C125 H152 0.930 . S
C126 C124 1.352 . S
C126 C128 1.374 . S
C126 H153 0.931 . S
C127 C128 1.359 . S
C127 C129 1.364 . S
C128 C126 1.374 . S
C128 C127 1.359 . S
C128 H154 0.931 . S
C129 C125 1.389 . S
C129 C127 1.364 . S
C129 H155 0.931 . S
C130 O144 1.256 . S
C130 O145 1.257 . S
C131 O146 1.240 . S
C131 O147 1.240 . S
C132 Gd121 2.818 . S
C132 C133 1.510 . S
C132 O148 1.249 . S
C132 O149 1.252 . S
C133 C132 1.510 . S
C133 C134 1.404 . S
C133 C135 1.352 . S
C134 C133 1.404 . S
C134 C138 1.389 . S
C134 H156 0.930 . S
C135 C133 1.352 . S
C135 C137 1.374 . S
C135 H157 0.931 . S
C136 C137 1.359 . S
C136 C138 1.364 . S
C137 C135 1.374 . S
C137 C136 1.359 . S
C137 H158 0.931 . S
C138 C134 1.389 . S
C138 C136 1.364 . S
C138 H159 0.931 . S
C139 O150 1.256 . S
C139 O151 1.257 . S
O140 Gd120 2.377 . S
O140 C122 1.240 . S
O141 Gd121 2.395 . S
O141 C122 1.240 . S
O142 Gd120 2.448 . S
O142 C123 1.249 . S
O143 Gd120 2.506 . S
O143 C123 1.252 . S
O144 Gd120 2.435 . S
O144 C130 1.256 . S
O145 Gd120 2.717 . S
O145 Gd121 2.327 . S
O145 C130 1.257 . S
O146 Gd121 2.377 . S
O146 C131 1.240 . S
O147 Gd120 2.395 . S
O147 C131 1.240 . S
O148 Gd121 2.448 . S
O148 C132 1.249 . S
O149 Gd121 2.506 . S
O149 C132 1.252 . S
O150 Gd121 2.435 . S
O150 C139 1.256 . S
O151 Gd120 2.327 . S
O151 Gd121 2.717 . S
O151 C139 1.257 . S
H152 C125 0.930 . S
H153 C126 0.931 . S
H154 C128 0.931 . S
H155 C129 0.931 . S
H156 C134 0.930 . S
H157 C135 0.931 . S
H158 C137 0.931 . S
H159 C138 0.931 . S
Gd160 C163 2.818 1_545 S
Gd160 O180 2.377 1_445 S
Gd160 O182 2.448 1_545 S
Gd160 O183 2.506 1_545 S
Gd160 O184 2.435 1_445 S
Gd160 O185 2.717 1_455 S
Gd160 O187 2.395 . S
Gd160 O191 2.327 . S
Gd161 C172 2.818 . S
Gd161 O181 2.397 1_545 S
Gd161 O185 2.327 . S
Gd161 O186 2.377 1_655 S
Gd161 O188 2.448 . S
Gd161 O189 2.506 . S
Gd161 O190 2.435 1_655 S
Gd161 O191 2.717 1_655 S
C162 O180 1.240 . S
C162 O181 1.238 . S
C163 Gd160 2.818 1_565 S
C163 C164 1.510 . S
C163 O182 1.249 . S
C163 O183 1.252 . S
C164 C163 1.510 . S
C164 C165 1.404 . S
C164 C166 1.352 . S
C165 C164 1.404 . S
C165 C169 1.389 . S
C165 H192 0.930 . S
C166 C164 1.352 . S
C166 C168 1.374 . S
C166 H193 0.931 . S
C167 C168 1.359 . S
C167 C169 1.364 . S
C168 C166 1.374 . S
C168 C167 1.359 . S
C168 H194 0.931 . S
C169 C165 1.389 . S
C169 C167 1.364 . S
C169 H195 0.931 . S
C170 O184 1.256 . S
C170 O185 1.257 1_565 S
C171 O186 1.240 . S
C171 O187 1.240 . S
C172 Gd161 2.818 . S
C172 C173 1.510 . S
C172 O188 1.249 . S
C172 O189 1.252 . S
C173 C172 1.510 . S
C173 C174 1.404 . S
C173 C175 1.352 . S
C174 C173 1.404 . S
C174 C178 1.389 . S
C174 H196 0.930 . S
C175 C173 1.352 . S
C175 C177 1.374 . S
C175 H197 0.931 . S
C176 C177 1.359 . S
C176 C178 1.364 . S
C177 C175 1.374 . S
C177 C176 1.359 . S
C177 H198 0.931 . S
C178 C174 1.389 . S
C178 C176 1.364 . S
C178 H199 0.931 . S
C179 O190 1.256 . S
C179 O191 1.257 . S
O180 Gd160 2.377 1_665 S
O180 C162 1.240 . S
O181 Gd161 2.397 1_565 S
O181 C162 1.238 . S
O182 Gd160 2.448 1_565 S
O182 C163 1.249 . S
O183 Gd160 2.506 1_565 S
O183 C163 1.252 . S
O184 Gd160 2.435 1_665 S
O184 C170 1.256 . S
O185 Gd160 2.717 1_655 S
O185 Gd161 2.327 . S
O185 C170 1.257 1_545 S
O186 Gd161 2.377 1_455 S
O186 C171 1.240 . S
O187 Gd160 2.395 . S
O187 C171 1.240 . S
O188 Gd161 2.448 . S
O188 C172 1.249 . S
O189 Gd161 2.506 . S
O189 C172 1.252 . S
O190 Gd161 2.435 1_455 S
O190 C179 1.256 . S
O191 Gd160 2.327 . S
O191 Gd161 2.717 1_455 S
O191 C179 1.257 . S
H192 C165 0.930 . S
H193 C166 0.931 . S
H194 C168 0.931 . S
H195 C169 0.931 . S
H196 C174 0.930 . S
H197 C175 0.931 . S
H198 C177 0.931 . S
H199 C178 0.931 . S
Gd200 C203 2.818 . S
Gd200 O220 2.377 . S
Gd200 O222 2.448 . S
Gd200 O223 2.506 . S
Gd200 O224 2.435 . S
Gd200 O225 2.717 . S
Gd200 O227 2.395 . S
Gd200 O231 2.327 . S
Gd201 C212 2.818 . S
Gd201 O221 2.395 . S
Gd201 O225 2.327 . S
Gd201 O226 2.377 . S
Gd201 O228 2.448 . S
Gd201 O229 2.506 . S
Gd201 O230 2.435 . S
Gd201 O231 2.717 . S
C202 O220 1.240 . S
C202 O221 1.240 . S
C203 Gd200 2.818 . S
C203 C204 1.510 . S
C203 O222 1.249 . S
C203 O223 1.252 . S
C204 C203 1.510 . S
C204 C205 1.404 . S
C204 C206 1.352 . S
C205 C204 1.404 . S
C205 C209 1.389 . S
C205 H232 0.930 . S
C206 C204 1.352 . S
C206 C208 1.374 . S
C206 H233 0.931 . S
C207 C208 1.359 . S
C207 C209 1.364 . S
C208 C206 1.374 . S
C208 C207 1.359 . S
C208 H234 0.931 . S
C209 C205 1.389 . S
C209 C207 1.364 . S
C209 H235 0.931 . S
C210 O224 1.256 . S
C210 O225 1.257 . S
C211 O226 1.240 . S
C211 O227 1.240 . S
C212 Gd201 2.818 . S
C212 C213 1.510 . S
C212 O228 1.249 . S
C212 O229 1.252 . S
C213 C212 1.510 . S
C213 C214 1.404 . S
C213 C215 1.352 . S
C214 C213 1.404 . S
C214 C218 1.389 . S
C214 H236 0.930 . S
C215 C213 1.352 . S
C215 C217 1.374 . S
C215 H237 0.931 . S
C216 C217 1.359 . S
C216 C218 1.364 . S
C217 C215 1.374 . S
C217 C216 1.359 . S
C217 H238 0.931 . S
C218 C214 1.389 . S
C218 C216 1.364 . S
C218 H239 0.931 . S
C219 O230 1.256 . S
C219 O231 1.257 . S
O220 Gd200 2.377 . S
O220 C202 1.240 . S
O221 Gd201 2.395 . S
O221 C202 1.240 . S
O222 Gd200 2.448 . S
O222 C203 1.249 . S
O223 Gd200 2.506 . S
O223 C203 1.252 . S
O224 Gd200 2.435 . S
O224 C210 1.256 . S
O225 Gd200 2.717 . S
O225 Gd201 2.327 . S
O225 C210 1.257 . S
O226 Gd201 2.377 . S
O226 C211 1.240 . S
O227 Gd200 2.395 . S
O227 C211 1.240 . S
O228 Gd201 2.448 . S
O228 C212 1.249 . S
O229 Gd201 2.506 . S
O229 C212 1.252 . S
O230 Gd201 2.435 . S
O230 C219 1.256 . S
O231 Gd200 2.327 . S
O231 Gd201 2.717 . S
O231 C219 1.257 . S
H232 C205 0.930 . S
H233 C206 0.931 . S
H234 C208 0.931 . S
H235 C209 0.931 . S
H236 C214 0.930 . S
H237 C215 0.931 . S
H238 C217 0.931 . S
H239 C218 0.931 . S
Gd240 C243 2.818 . S
Gd240 O260 2.377 . S
Gd240 O262 2.448 . S
Gd240 O263 2.506 1_545 S
Gd240 O264 2.435 . S
Gd240 O265 2.717 . S
Gd240 O267 2.395 1_545 S
Gd240 O271 2.327 . S
Gd241 C252 2.818 . S
Gd241 O261 2.395 . S
Gd241 O265 2.327 . S
Gd241 O266 2.377 . S
Gd241 O268 2.448 . S
Gd241 O269 2.506 . S
Gd241 O270 2.435 . S
Gd241 O271 2.717 . S
C242 O260 1.262 . S
C242 O261 1.248 . S
C243 Gd240 2.818 . S
C243 C244 1.510 1_544 S
C243 O262 1.249 . S
C243 O263 1.252 1_545 S
C244 C243 1.510 1_566 S
C244 C245 1.404 1_566 S
C244 C246 1.352 . S
C245 C244 1.404 1_544 S
C245 C249 1.402 1_554 S
C245 H272 0.930 . S
C246 C244 1.352 . S
C246 C248 1.374 . S
C246 H273 0.931 . S
C247 C248 1.359 . S
C247 C249 1.361 1_565 S
C248 C246 1.374 . S
C248 C247 1.359 . S
C248 H274 0.931 . S
C249 C245 1.402 1_556 S
C249 C247 1.361 1_545 S
C249 H275 0.923 1_556 S
C250 O264 1.256 . S
C250 O265 1.257 . S
C251 O266 1.240 . S
C251 O267 1.240 1_545 S
C252 Gd241 2.818 . S
C252 C253 1.510 . S
C252 O268 1.249 . S
C252 O269 1.252 . S
C253 C252 1.510 . S
C253 C254 1.404 . S
C253 C255 1.352 . S
C254 C253 1.404 . S
C254 C258 1.389 . S
C254 H276 0.930 . S
C255 C253 1.352 . S
C255 C257 1.374 . S
C255 H277 0.931 . S
C256 C257 1.359 . S
C256 C258 1.364 . S
C257 C255 1.374 . S
C257 C256 1.359 . S
C257 H278 0.931 . S
C258 C254 1.389 . S
C258 C256 1.364 . S
C258 H279 0.931 . S
C259 O270 1.251 1_556 S
C259 O271 1.245 1_556 S
O260 Gd240 2.377 . S
O260 C242 1.262 . S
O261 Gd241 2.395 . S
O261 C242 1.248 . S
O262 Gd240 2.448 . S
O262 C243 1.249 . S
O263 Gd240 2.506 1_565 S
O263 C243 1.252 1_565 S
O264 Gd240 2.435 . S
O264 C250 1.256 . S
O265 Gd240 2.717 . S
O265 Gd241 2.327 . S
O265 C250 1.257 . S
O266 Gd241 2.377 . S
O266 C251 1.240 . S
O267 Gd240 2.395 1_565 S
O267 C251 1.240 1_565 S
O268 Gd241 2.448 . S
O268 C252 1.249 . S
O269 Gd241 2.506 . S
O269 C252 1.252 . S
O270 Gd241 2.435 . S
O270 C259 1.251 1_554 S
O271 Gd240 2.327 . S
O271 Gd241 2.717 . S
O271 C259 1.245 1_554 S
H272 C245 0.930 . S
H273 C246 0.931 . S
H274 C248 0.931 . S
H275 C249 0.923 1_554 S
H276 C254 0.930 . S
H277 C255 0.931 . S
H278 C257 0.931 . S
H279 C258 0.931 . S
Gd280 C283 2.818 . S
Gd280 O300 2.377 . S
Gd280 O302 2.448 . S
Gd280 O303 2.506 . S
Gd280 O304 2.435 . S
Gd280 O305 2.717 . S
Gd280 O307 2.395 . S
Gd280 O311 2.327 . S
Gd281 C292 2.818 . S
Gd281 O301 2.395 . S
Gd281 O305 2.327 . S
Gd281 O306 2.377 . S
Gd281 O308 2.448 . S
Gd281 O309 2.506 . S
Gd281 O310 2.435 . S
Gd281 O311 2.717 . S
C282 O300 1.240 . S
C282 O301 1.240 . S
C283 Gd280 2.818 . S
C283 C284 1.510 . S
C283 O302 1.249 . S
C283 O303 1.252 . S
C284 C283 1.510 . S
C284 C285 1.404 . S
C284 C286 1.352 . S
C285 C284 1.404 . S
C285 C289 1.389 . S
C285 H312 0.930 . S
C286 C284 1.352 . S
C286 C288 1.374 . S
C286 H313 0.931 . S
C287 C288 1.359 . S
C287 C289 1.364 . S
C288 C286 1.374 . S
C288 C287 1.359 . S
C288 H314 0.931 . S
C289 C285 1.389 . S
C289 C287 1.364 . S
C289 H315 0.931 . S
C290 O304 1.256 . S
C290 O305 1.257 . S
C291 O306 1.240 . S
C291 O307 1.240 . S
C292 Gd281 2.818 . S
C292 C293 1.510 . S
C292 O308 1.249 . S
C292 O309 1.252 . S
C293 C292 1.510 . S
C293 C294 1.404 . S
C293 C295 1.352 . S
C294 C293 1.404 . S
C294 C298 1.389 . S
C294 H316 0.930 . S
C295 C293 1.352 . S
C295 C297 1.374 . S
C295 H317 0.931 . S
C296 C297 1.359 . S
C296 C298 1.364 . S
C297 C295 1.374 . S
C297 C296 1.359 . S
C297 H318 0.931 . S
C298 C294 1.389 . S
C298 C296 1.364 . S
C298 H319 0.931 . S
C299 O310 1.256 . S
C299 O311 1.257 . S
O300 Gd280 2.377 . S
O300 C282 1.240 . S
O301 Gd281 2.395 . S
O301 C282 1.240 . S
O302 Gd280 2.448 . S
O302 C283 1.249 . S
O303 Gd280 2.506 . S
O303 C283 1.252 . S
O304 Gd280 2.435 . S
O304 C290 1.256 . S
O305 Gd280 2.717 . S
O305 Gd281 2.327 . S
O305 C290 1.257 . S
O306 Gd281 2.377 . S
O306 C291 1.240 . S
O307 Gd280 2.395 . S
O307 C291 1.240 . S
O308 Gd281 2.448 . S
O308 C292 1.249 . S
O309 Gd281 2.506 . S
O309 C292 1.252 . S
O310 Gd281 2.435 . S
O310 C299 1.256 . S
O311 Gd280 2.327 . S
O311 Gd281 2.717 . S
O311 C299 1.257 . S
H312 C285 0.930 . S
H313 C286 0.931 . S
H314 C288 0.931 . S
H315 C289 0.931 . S
H316 C294 0.930 . S
H317 C295 0.931 . S
H318 C297 0.931 . S
H319 C298 0.931 . S
Gd320 C323 2.818 . S
Gd320 O340 2.377 . S
Gd320 O342 2.448 . S
Gd320 O343 2.506 . S
Gd320 O344 2.435 1_554 S
Gd320 O345 2.717 1_554 S
Gd320 O347 2.395 1_554 S
Gd320 O351 2.327 . S
Gd321 C332 2.818 1_554 S
Gd321 O341 2.395 . S
Gd321 O345 2.327 1_554 S
Gd321 O346 2.384 . S
Gd321 O348 2.448 . S
Gd321 O349 2.506 1_554 S
Gd321 O350 2.435 . S
Gd321 O351 2.717 . S
C322 O340 1.240 . S
C322 O341 1.240 . S
C323 Gd320 2.818 . S
C323 C324 1.510 . S
C323 O342 1.249 . S
C323 O343 1.252 . S
C324 C323 1.510 . S
C324 C325 1.404 . S
C324 C326 1.352 . S
C325 C324 1.404 . S
C325 C329 1.389 . S
C325 H352 0.930 . S
C326 C324 1.352 . S
C326 C328 1.374 . S
C326 H353 0.931 . S
C327 C328 1.359 . S
C327 C329 1.364 . S
C328 C326 1.374 . S
C328 C327 1.359 . S
C328 H354 0.931 . S
C329 C325 1.389 . S
C329 C327 1.364 . S
C329 H355 0.931 . S
C330 O344 1.256 . S
C330 O345 1.257 . S
C331 O346 1.234 1_556 S
C331 O347 1.240 . S
C332 Gd321 2.818 1_556 S
C332 C333 1.510 . S
C332 O348 1.249 1_556 S
C332 O349 1.252 . S
C333 C332 1.510 . S
C333 C334 1.404 . S
C333 C335 1.352 . S
C334 C333 1.404 . S
C334 C338 1.389 . S
C334 H356 0.930 1_556 S
C335 C333 1.352 . S
C335 C337 1.374 . S
C335 H357 0.931 . S
C336 C337 1.359 . S
C336 C338 1.364 . S
C337 C335 1.374 . S
C337 C336 1.359 . S
C337 H358 0.931 . S
C338 C334 1.389 . S
C338 C336 1.364 . S
C338 H359 0.931 . S
C339 O350 1.256 . S
C339 O351 1.257 . S
O340 Gd320 2.377 . S
O340 C322 1.240 . S
O341 Gd321 2.395 . S
O341 C322 1.240 . S
O342 Gd320 2.448 . S
O342 C323 1.249 . S
O343 Gd320 2.506 . S
O343 C323 1.252 . S
O344 Gd320 2.435 1_556 S
O344 C330 1.256 . S
O345 Gd320 2.717 1_556 S
O345 Gd321 2.327 1_556 S
O345 C330 1.257 . S
O346 Gd321 2.384 . S
O346 C331 1.234 1_554 S
O347 Gd320 2.395 1_556 S
O347 C331 1.240 . S
O348 Gd321 2.448 . S
O348 C332 1.249 1_554 S
O349 Gd321 2.506 1_556 S
O349 C332 1.252 . S
O350 Gd321 2.435 . S
O350 C339 1.256 . S
O351 Gd320 2.327 . S
O351 Gd321 2.717 . S
O351 C339 1.257 . S
H352 C325 0.930 . S
H353 C326 0.931 . S
H354 C328 0.931 . S
H355 C329 0.931 . S
H356 C334 0.930 1_554 S
H357 C335 0.931 . S
H358 C337 0.931 . S
H359 C338 0.931 . S
Gd360 C363 2.818 . S
Gd360 O380 2.377 . S
Gd360 O382 2.448 . S
Gd360 O383 2.506 . S
Gd360 O384 2.435 . S
Gd360 O385 2.717 . S
Gd360 O387 2.395 . S
Gd360 O391 2.327 . S
Gd361 C372 2.818 . S
Gd361 O381 2.395 . S
Gd361 O385 2.327 . S
Gd361 O386 2.377 . S
Gd361 O388 2.448 . S
Gd361 O389 2.506 . S
Gd361 O390 2.435 . S
Gd361 O391 2.717 . S
C362 O380 1.240 . S
C362 O381 1.240 . S
C363 Gd360 2.818 . S
C363 C364 1.510 . S
C363 O382 1.249 . S
C363 O383 1.252 . S
C364 C363 1.510 . S
C364 C365 1.404 . S
C364 C366 1.352 . S
C365 C364 1.404 . S
C365 C369 1.389 . S
C365 H392 0.930 . S
C366 C364 1.352 . S
C366 C368 1.374 . S
C366 H393 0.931 . S
C367 C368 1.359 . S
C367 C369 1.364 . S
C368 C366 1.374 . S
C368 C367 1.359 . S
C368 H394 0.931 . S
C369 C365 1.389 . S
C369 C367 1.364 . S
C369 H395 0.931 . S
C370 O384 1.256 . S
C370 O385 1.257 . S
C371 O386 1.240 . S
C371 O387 1.240 . S
C372 Gd361 2.818 . S
C372 C373 1.510 . S
C372 O388 1.249 . S
C372 O389 1.252 . S
C373 C372 1.510 . S
C373 C374 1.404 . S
C373 C375 1.352 . S
C374 C373 1.404 . S
C374 C378 1.389 . S
C374 H396 0.930 . S
C375 C373 1.352 . S
C375 C377 1.374 . S
C375 H397 0.931 . S
C376 C377 1.359 . S
C376 C378 1.364 . S
C377 C375 1.374 . S
C377 C376 1.359 . S
C377 H398 0.931 . S
C378 C374 1.389 . S
C378 C376 1.364 . S
C378 H399 0.931 . S
C379 O390 1.256 . S
C379 O391 1.257 . S
O380 Gd360 2.377 . S
O380 C362 1.240 . S
O381 Gd361 2.395 . S
O381 C362 1.240 . S
O382 Gd360 2.448 . S
O382 C363 1.249 . S
O383 Gd360 2.506 . S
O383 C363 1.252 . S
O384 Gd360 2.435 . S
O384 C370 1.256 . S
O385 Gd360 2.717 . S
O385 Gd361 2.327 . S
O385 C370 1.257 . S
O386 Gd361 2.377 . S
O386 C371 1.240 . S
O387 Gd360 2.395 . S
O387 C371 1.240 . S
O388 Gd361 2.448 . S
O388 C372 1.249 . S
O389 Gd361 2.506 . S
O389 C372 1.252 . S
O390 Gd361 2.435 . S
O390 C379 1.256 . S
O391 Gd360 2.327 . S
O391 Gd361 2.717 . S
O391 C379 1.257 . S
H392 C365 0.930 . S
H393 C366 0.931 . S
H394 C368 0.931 . S
H395 C369 0.931 . S
H396 C374 0.930 . S
H397 C375 0.931 . S
H398 C377 0.931 . S
H399 C378 0.931 . S
Gd400 C403 2.818 . S
Gd400 O420 2.377 . S
Gd400 O422 2.448 . S
Gd400 O423 2.506 . S
Gd400 O424 2.435 . S
Gd400 O425 2.717 . S
Gd400 O427 2.395 . S
Gd400 O431 2.327 . S
Gd401 C412 2.818 1_455 S
Gd401 O421 2.395 . S
Gd401 O425 2.327 . S
Gd401 O426 2.377 1_455 S
Gd401 O428 2.448 1_455 S
Gd401 O429 2.506 . S
Gd401 O430 2.435 1_455 S
Gd401 O431 2.717 . S
C402 O420 1.240 . S
C402 O421 1.240 . S
C403 Gd400 2.818 . S
C403 C404 1.510 . S
C403 O422 1.249 . S
C403 O423 1.252 . S
C404 C403 1.510 . S
C404 C405 1.404 . S
C404 C406 1.352 . S
C405 C404 1.404 . S
C405 C409 1.389 . S
C405 H432 0.930 . S
C406 C404 1.352 . S
C406 C408 1.374 . S
C406 H433 0.931 . S
C407 C408 1.359 . S
C407 C409 1.364 . S
C408 C406 1.374 . S
C408 C407 1.359 . S
C408 H434 0.931 . S
C409 C405 1.389 . S
C409 C407 1.364 . S
C409 H435 0.931 . S
C410 O424 1.256 . S
C410 O425 1.257 . S
C411 O426 1.240 . S
C411 O427 1.240 1_655 S
C412 Gd401 2.818 1_655 S
C412 C413 1.510 . S
C412 O428 1.249 . S
C412 O429 1.252 1_655 S
C413 C412 1.510 . S
C413 C414 1.404 . S
C413 C415 1.352 . S
C414 C413 1.404 . S
C414 C418 1.389 . S
C414 H436 0.930 . S
C415 C413 1.352 . S
C415 C417 1.374 . S
C415 H437 0.931 . S
C416 C417 1.359 . S
C416 C418 1.364 . S
C417 C415 1.374 . S
C417 C416 1.359 . S
C417 H438 0.931 . S
C418 C414 1.389 . S
C418 C416 1.364 . S
C418 H439 0.931 . S
C419 O430 1.256 . S
C419 O431 1.257 1_655 S
O420 Gd400 2.377 . S
O420 C402 1.240 . S
O421 Gd401 2.395 . S
O421 C402 1.240 . S
O422 Gd400 2.448 . S
O422 C403 1.249 . S
O423 Gd400 2.506 . S
O423 C403 1.252 . S
O424 Gd400 2.435 . S
O424 C410 1.256 . S
O425 Gd400 2.717 . S
O425 Gd401 2.327 . S
O425 C410 1.257 . S
O426 Gd401 2.377 1_655 S
O426 C411 1.240 . S
O427 Gd400 2.395 . S
O427 C411 1.240 1_455 S
O428 Gd401 2.448 1_655 S
O428 C412 1.249 . S
O429 Gd401 2.506 . S
O429 C412 1.252 1_455 S
O430 Gd401 2.435 1_655 S
O430 C419 1.256 . S
O431 Gd400 2.327 . S
O431 Gd401 2.717 . S
O431 C419 1.257 1_455 S
H432 C405 0.930 . S
H433 C406 0.931 . S
H434 C408 0.931 . S
H435 C409 0.931 . S
H436 C414 0.930 . S
H437 C415 0.931 . S
H438 C417 0.931 . S
H439 C418 0.931 . S
Gd440 C443 2.818 . S
Gd440 O460 2.377 . S
Gd440 O462 2.448 . S
Gd440 O463 2.506 . S
Gd440 O464 2.435 . S
Gd440 O465 2.717 . S
Gd440 O467 2.395 . S
Gd440 O471 2.327 . S
Gd441 C452 2.818 . S
Gd441 O461 2.395 . S
Gd441 O465 2.327 . S
Gd441 O466 2.377 . S
Gd441 O468 2.448 . S
Gd441 O469 2.506 . S
Gd441 O470 2.435 . S
Gd441 O471 2.717 . S
C442 O460 1.240 . S
C442 O461 1.240 . S
C443 Gd440 2.818 . S
C443 C444 1.510 . S
C443 O462 1.249 . S
C443 O463 1.252 . S
C444 C443 1.510 . S
C444 C445 1.404 . S
C444 C446 1.352 . S
C445 C444 1.404 . S
C445 C449 1.389 . S
C445 H472 0.930 . S
C446 C444 1.352 . S
C446 C448 1.374 . S
C446 H473 0.931 . S
C447 C448 1.359 . S
C447 C449 1.364 . S
C448 C446 1.374 . S
C448 C447 1.359 . S
C448 H474 0.931 . S
C449 C445 1.389 . S
C449 C447 1.364 . S
C449 H475 0.931 . S
C450 O464 1.256 . S
C450 O465 1.257 . S
C451 O466 1.240 . S
C451 O467 1.240 . S
C452 Gd441 2.818 . S
C452 C453 1.510 . S
C452 O468 1.249 . S
C452 O469 1.252 . S
C453 C452 1.510 . S
C453 C454 1.404 . S
C453 C455 1.352 . S
C454 C453 1.404 . S
C454 C458 1.389 . S
C454 H476 0.930 . S
C455 C453 1.352 . S
C455 C457 1.374 . S
C455 H477 0.931 . S
C456 C457 1.359 . S
C456 C458 1.364 . S
C457 C455 1.374 . S
C457 C456 1.359 . S
C457 H478 0.931 . S
C458 C454 1.389 . S
C458 C456 1.364 . S
C458 H479 0.931 . S
C459 O470 1.256 . S
C459 O471 1.257 . S
O460 Gd440 2.377 . S
O460 C442 1.240 . S
O461 Gd441 2.395 . S
O461 C442 1.240 . S
O462 Gd440 2.448 . S
O462 C443 1.249 . S
O463 Gd440 2.506 . S
O463 C443 1.252 . S
O464 Gd440 2.435 . S
O464 C450 1.256 . S
O465 Gd440 2.717 . S
O465 Gd441 2.327 . S
O465 C450 1.257 . S
O466 Gd441 2.377 . S
O466 C451 1.240 . S
O467 Gd440 2.395 . S
O467 C451 1.240 . S
O468 Gd441 2.448 . S
O468 C452 1.249 . S
O469 Gd441 2.506 . S
O469 C452 1.252 . S
O470 Gd441 2.435 . S
O470 C459 1.256 . S
O471 Gd440 2.327 . S
O471 Gd441 2.717 . S
O471 C459 1.257 . S
H472 C445 0.930 . S
H473 C446 0.931 . S
H474 C448 0.931 . S
H475 C449 0.931 . S
H476 C454 0.930 . S
H477 C455 0.931 . S
H478 C457 0.931 . S
H479 C458 0.931 . S
Gd480 C483 2.818 . S
Gd480 O500 2.377 . S
Gd480 O502 2.448 . S
Gd480 O503 2.506 . S
Gd480 O504 2.435 . S
Gd480 O505 2.717 . S
Gd480 O507 2.395 . S
Gd480 O511 2.327 . S
Gd481 C492 2.818 . S
Gd481 O501 2.395 . S
Gd481 O505 2.327 . S
Gd481 O506 2.377 . S
Gd481 O508 2.448 . S
Gd481 O509 2.506 . S
Gd481 O510 2.435 . S
Gd481 O511 2.717 . S
C482 O500 1.240 . S
C482 O501 1.240 . S
C483 Gd480 2.818 . S
C483 C484 1.510 . S
C483 O502 1.249 . S
C483 O503 1.252 . S
C484 C483 1.510 . S
C484 C485 1.404 . S
C484 C486 1.352 . S
C485 C484 1.404 . S
C485 C489 1.389 . S
C485 H512 0.930 . S
C486 C484 1.352 . S
C486 C488 1.374 . S
C486 H513 0.931 . S
C487 C488 1.359 . S
C487 C489 1.364 . S
C488 C486 1.374 . S
C488 C487 1.359 . S
C488 H514 0.931 . S
C489 C485 1.389 . S
C489 C487 1.364 . S
C489 H515 0.931 . S
C490 O504 1.256 . S
C490 O505 1.257 . S
C491 O506 1.240 . S
C491 O507 1.240 . S
C492 Gd481 2.818 . S
C492 C493 1.510 . S
C492 O508 1.249 . S
C492 O509 1.252 . S
C493 C492 1.510 . S
C493 C494 1.404 . S
C493 C495 1.352 . S
C494 C493 1.404 . S
C494 C498 1.389 . S
C494 H516 0.930 . S
C495 C493 1.352 . S
C495 C497 1.374 . S
C495 H517 0.931 . S
C496 C497 1.359 . S
C496 C498 1.364 . S
C497 C495 1.374 . S
C497 C496 1.359 . S
C497 H518 0.931 . S
C498 C494 1.389 . S
C498 C496 1.364 . S
C498 H519 0.931 . S
C499 O510 1.256 . S
C499 O511 1.257 . S
O500 Gd480 2.377 . S
O500 C482 1.240 . S
O501 Gd481 2.395 . S
O501 C482 1.240 . S
O502 Gd480 2.448 . S
O502 C483 1.249 . S
O503 Gd480 2.506 . S
O503 C483 1.252 . S
O504 Gd480 2.435 . S
O504 C490 1.256 . S
O505 Gd480 2.717 . S
O505 Gd481 2.327 . S
O505 C490 1.257 . S
O506 Gd481 2.377 . S
O506 C491 1.240 . S
O507 Gd480 2.395 . S
O507 C491 1.240 . S
O508 Gd481 2.448 . S
O508 C492 1.249 . S
O509 Gd481 2.506 . S
O509 C492 1.252 . S
O510 Gd481 2.435 . S
O510 C499 1.256 . S
O511 Gd480 2.327 . S
O511 Gd481 2.717 . S
O511 C499 1.257 . S
H512 C485 0.930 . S
H513 C486 0.931 . S
H514 C488 0.931 . S
H515 C489 0.931 . S
H516 C494 0.930 . S
H517 C495 0.931 . S
H518 C497 0.931 . S
H519 C498 0.931 . S
Gd520 C523 2.818 . S
Gd520 O540 2.377 . S
Gd520 O542 2.448 . S
Gd520 O543 2.506 . S
Gd520 O544 2.435 . S
Gd520 O545 2.717 . S
Gd520 O547 2.395 . S
Gd520 O551 2.327 . S
Gd521 C532 2.818 . S
Gd521 O541 2.395 . S
Gd521 O545 2.327 . S
Gd521 O546 2.377 . S
Gd521 O548 2.448 . S
Gd521 O549 2.506 . S
Gd521 O550 2.435 . S
Gd521 O551 2.717 . S
C522 O540 1.240 . S
C522 O541 1.240 . S
C523 Gd520 2.818 . S
C523 C524 1.510 . S
C523 O542 1.249 . S
C523 O543 1.252 . S
C524 C523 1.510 . S
C524 C525 1.404 . S
C524 C526 1.352 . S
C525 C524 1.404 . S
C525 C529 1.389 . S
C525 H552 0.930 . S
C526 C524 1.352 . S
C526 C528 1.374 . S
C526 H553 0.931 . S
C527 C528 1.359 . S
C527 C529 1.364 . S
C528 C526 1.374 . S
C528 C527 1.359 . S
C528 H554 0.931 . S
C529 C525 1.389 . S
C529 C527 1.364 . S
C529 H555 0.931 . S
C530 O544 1.256 . S
C530 O545 1.257 . S
C531 O546 1.240 . S
C531 O547 1.240 . S
C532 Gd521 2.818 . S
C532 C533 1.510 . S
C532 O548 1.249 . S
C532 O549 1.252 . S
C533 C532 1.510 . S
C533 C534 1.404 . S
C533 C535 1.352 . S
C534 C533 1.404 . S
C534 C538 1.389 . S
C534 H556 0.930 . S
C535 C533 1.352 . S
C535 C537 1.374 . S
C535 H557 0.931 . S
C536 C537 1.359 . S
C536 C538 1.364 . S
C537 C535 1.374 . S
C537 C536 1.359 . S
C537 H558 0.931 . S
C538 C534 1.389 . S
C538 C536 1.364 . S
C538 H559 0.931 . S
C539 O550 1.256 . S
C539 O551 1.257 . S
O540 Gd520 2.377 . S
O540 C522 1.240 . S
O541 Gd521 2.395 . S
O541 C522 1.240 . S
O542 Gd520 2.448 . S
O542 C523 1.249 . S
O543 Gd520 2.506 . S
O543 C523 1.252 . S
O544 Gd520 2.435 . S
O544 C530 1.256 . S
O545 Gd520 2.717 . S
O545 Gd521 2.327 . S
O545 C530 1.257 . S
O546 Gd521 2.377 . S
O546 C531 1.240 . S
O547 Gd520 2.395 . S
O547 C531 1.240 . S
O548 Gd521 2.448 . S
O548 C532 1.249 . S
O549 Gd521 2.506 . S
O549 C532 1.252 . S
O550 Gd521 2.435 . S
O550 C539 1.256 . S
O551 Gd520 2.327 . S
O551 Gd521 2.717 . S
O551 C539 1.257 . S
H552 C525 0.930 . S
H553 C526 0.931 . S
H554 C528 0.931 . S
H555 C529 0.931 . S
H556 C534 0.930 . S
H557 C535 0.931 . S
H558 C537 0.931 . S
H559 C538 0.931 . S
Gd560 C563 2.818 . S
Gd560 O580 2.377 . S
Gd560 O582 2.448 . S
Gd560 O583 2.506 . S
Gd560 O584 2.435 . S
Gd560 O585 2.717 . S
Gd560 O587 2.395 . S
Gd560 O591 2.327 . S
Gd561 C572 2.818 . S
Gd561 O581 2.395 . S
Gd561 O585 2.327 . S
Gd561 O586 2.377 . S
Gd561 O588 2.448 . S
Gd561 O589 2.506 . S
Gd561 O590 2.435 . S
Gd561 O591 2.717 . S
C562 O580 1.240 . S
C562 O581 1.240 . S
C563 Gd560 2.818 . S
C563 C564 1.510 . S
C563 O582 1.249 . S
C563 O583 1.252 . S
C564 C563 1.510 . S
C564 C565 1.404 . S
C564 C566 1.352 . S
C565 C564 1.404 . S
C565 C569 1.389 . S
C565 H592 0.930 . S
C566 C564 1.352 . S
C566 C568 1.374 . S
C566 H593 0.931 . S
C567 C568 1.359 . S
C567 C569 1.364 . S
C568 C566 1.374 . S
C568 C567 1.359 . S
C568 H594 0.931 . S
C569 C565 1.389 . S
C569 C567 1.364 . S
C569 H595 0.931 . S
C570 O584 1.256 . S
C570 O585 1.257 . S
C571 O586 1.240 . S
C571 O587 1.240 . S
C572 Gd561 2.818 . S
C572 C573 1.510 . S
C572 O588 1.249 . S
C572 O589 1.252 . S
C573 C572 1.510 . S
C573 C574 1.404 . S
C573 C575 1.352 . S
C574 C573 1.404 . S
C574 C578 1.389 . S
C574 H596 0.930 . S
C575 C573 1.352 . S
C575 C577 1.374 . S
C575 H597 0.931 . S
C576 C577 1.359 . S
C576 C578 1.364 . S
C577 C575 1.374 . S
C577 C576 1.359 . S
C577 H598 0.931 . S
C578 C574 1.389 . S
C578 C576 1.364 . S
C578 H599 0.931 . S
C579 O590 1.256 . S
C579 O591 1.257 . S
O580 Gd560 2.377 . S
O580 C562 1.240 . S
O581 Gd561 2.395 . S
O581 C562 1.240 . S
O582 Gd560 2.448 . S
O582 C563 1.249 . S
O583 Gd560 2.506 . S
O583 C563 1.252 . S
O584 Gd560 2.435 . S
O584 C570 1.256 . S
O585 Gd560 2.717 . S
O585 Gd561 2.327 . S
O585 C570 1.257 . S
O586 Gd561 2.377 . S
O586 C571 1.240 . S
O587 Gd560 2.395 . S
O587 C571 1.240 . S
O588 Gd561 2.448 . S
O588 C572 1.249 . S
O589 Gd561 2.506 . S
O589 C572 1.252 . S
O590 Gd561 2.435 . S
O590 C579 1.256 . S
O591 Gd560 2.327 . S
O591 Gd561 2.717 . S
O591 C579 1.257 . S
H592 C565 0.930 . S
H593 C566 0.931 . S
H594 C568 0.931 . S
H595 C569 0.931 . S
H596 C574 0.930 . S
H597 C575 0.931 . S
H598 C577 0.931 . S
H599 C578 0.931 . S
Gd600 C603 2.818 . S
Gd600 O620 2.377 1_554 S
Gd600 O622 2.448 . S
Gd600 O623 2.506 . S
Gd600 O624 2.435 1_554 S
Gd600 O625 2.717 1_554 S
Gd600 O627 2.395 1_655 S
Gd600 O631 2.327 1_655 S
Gd601 C612 2.818 . S
Gd601 O621 2.395 . S
Gd601 O625 2.327 1_455 S
Gd601 O626 2.377 1_556 S
Gd601 O628 2.448 . S
Gd601 O629 2.506 . S
Gd601 O630 2.435 1_556 S
Gd601 O631 2.717 1_556 S
C602 O620 1.240 . S
C602 O621 1.240 1_655 S
C603 Gd600 2.818 . S
C603 C604 1.510 . S
C603 O622 1.249 . S
C603 O623 1.252 . S
C604 C603 1.510 . S
C604 C605 1.404 . S
C604 C606 1.352 . S
C605 C604 1.404 . S
C605 C609 1.389 . S
C605 H632 0.930 . S
C606 C604 1.352 . S
C606 C608 1.374 . S
C606 H633 0.931 . S
C607 C608 1.359 . S
C607 C609 1.364 . S
C608 C606 1.374 . S
C608 C607 1.359 . S
C608 H634 0.931 . S
C609 C605 1.389 . S
C609 C607 1.364 . S
C609 H635 0.931 . S
C610 O624 1.256 . S
C610 O625 1.257 . S
C611 O626 1.240 . S
C611 O627 1.240 . S
C612 Gd601 2.818 . S
C612 C613 1.510 . S
C612 O628 1.249 . S
C612 O629 1.252 . S
C613 C612 1.510 . S
C613 C614 1.404 . S
C613 C615 1.352 . S
C614 C613 1.404 . S
C614 C618 1.389 . S
C614 H636 0.930 . S
C615 C613 1.352 . S
C615 C617 1.374 . S
C615 H637 0.931 . S
C616 C617 1.359 . S
C616 C618 1.364 . S
C617 C615 1.374 . S
C617 C616 1.359 . S
C617 H638 0.931 . S
C618 C614 1.389 . S
C618 C616 1.364 . S
C618 H639 0.931 . S
C619 O630 1.256 . S
C619 O631 1.257 . S
O620 Gd600 2.377 1_556 S
O620 C602 1.240 . S
O621 Gd601 2.395 . S
O621 C602 1.240 1_455 S
O622 Gd600 2.448 . S
O622 C603 1.249 . S
O623 Gd600 2.506 . S
O623 C603 1.252 . S
O624 Gd600 2.435 1_556 S
O624 C610 1.256 . S
O625 Gd600 2.717 1_556 S
O625 Gd601 2.327 1_655 S
O625 C610 1.257 . S
O626 Gd601 2.377 1_554 S
O626 C611 1.240 . S
O627 Gd600 2.395 1_455 S
O627 C611 1.240 . S
O628 Gd601 2.448 . S
O628 C612 1.249 . S
O629 Gd601 2.506 . S
O629 C612 1.252 . S
O630 Gd601 2.435 1_554 S
O630 C619 1.256 . S
O631 Gd600 2.327 1_455 S
O631 Gd601 2.717 1_554 S
O631 C619 1.257 . S
H632 C605 0.930 . S
H633 C606 0.931 . S
H634 C608 0.931 . S
H635 C609 0.931 . S
H636 C614 0.930 . S
H637 C615 0.931 . S
H638 C617 0.931 . S
H639 C618 0.931 . S
H640 C646 0.930 . S
H641 C650 0.930 . S
H642 C655 0.929 . S
H643 C653 0.929 . S
H644 C648 0.929 . S
H645 C654 0.929 . S
C646 H640 0.930 . S
C646 C647 1.367 . S
C646 C654 1.378 . S
C647 C646 1.367 . S
C647 C655 1.433 . S
C648 H644 0.929 . S
C648 C650 1.378 . S
C648 C652 1.350 . S
C649 C652 1.463 . S
C649 C654 1.350 . S
C649 N657 1.427 . S
C650 H641 0.930 . S
C650 C648 1.378 . S
C650 C651 1.367 . S
C651 C650 1.367 . S
C651 C653 1.433 . S
C652 C648 1.350 . S
C652 C649 1.463 . S
C652 N656 1.427 . S
C653 H643 0.929 . S
C653 C651 1.433 . S
C653 N656 1.384 . S
C654 H645 0.929 . S
C654 C646 1.378 . S
C654 C649 1.350 . S
C655 H642 0.929 . S
C655 C647 1.433 . S
C655 N657 1.384 . S
N656 C652 1.427 . S
N656 C653 1.384 . S
N657 C649 1.427 . S
N657 C655 1.384 . S
H658 C664 0.930 1_545 S
H659 C668 0.930 . S
H660 C673 0.929 . S
H661 C671 0.929 . S
H662 C666 0.929 . S
H663 C672 0.929 . S
C664 H658 0.930 1_565 S
C664 C665 1.367 . S
C664 C672 1.378 . S
C665 C664 1.367 . S
C665 C673 1.433 . S
C666 H662 0.929 . S
C666 C668 1.378 . S
C666 C670 1.350 . S
C667 C670 1.463 . S
C667 C672 1.350 . S
C667 N675 1.427 . S
C668 H659 0.930 . S
C668 C666 1.378 . S
C668 C669 1.367 . S
C669 C668 1.367 . S
C669 C671 1.433 . S
C670 C666 1.350 . S
C670 C667 1.463 . S
C670 N674 1.427 . S
C671 H661 0.929 . S
C671 C669 1.433 . S
C671 N674 1.384 . S
C672 H663 0.929 . S
C672 C664 1.378 . S
C672 C667 1.350 . S
C673 H660 0.929 . S
C673 C665 1.433 . S
C673 N675 1.384 . S
N674 C670 1.427 . S
N674 C671 1.384 . S
N675 C667 1.427 . S
N675 C673 1.384 . S
H676 C682 0.930 . S
H677 C686 0.930 . S
H678 C691 0.929 . S
H679 C689 0.929 . S
H680 C684 0.929 . S
H681 C690 0.929 . S
C682 H676 0.930 . S
C682 C683 1.367 . S
C682 C690 1.378 . S
C683 C682 1.367 . S
C683 C691 1.433 . S
C684 H680 0.929 . S
C684 C686 1.378 . S
C684 C688 1.350 . S
C685 C688 1.463 . S
C685 C690 1.350 . S
C685 N693 1.427 . S
C686 H677 0.930 . S
C686 C684 1.378 . S
C686 C687 1.367 . S
C687 C686 1.367 . S
C687 C689 1.433 . S
C688 C684 1.350 . S
C688 C685 1.463 . S
C688 N692 1.427 . S
C689 H679 0.929 . S
C689 C687 1.433 . S
C689 N692 1.384 . S
C690 H681 0.929 . S
C690 C682 1.378 . S
C690 C685 1.350 . S
C691 H678 0.929 . S
C691 C683 1.433 . S
C691 N693 1.384 . S
N692 C688 1.427 . S
N692 C689 1.384 . S
N693 C685 1.427 . S
N693 C691 1.384 . S
H694 C700 0.930 . S
H695 C704 0.930 . S
H696 C709 0.929 . S
H697 C707 0.929 . S
H698 C702 0.929 . S
H699 C708 0.929 . S
C700 H694 0.930 . S
C700 C701 1.367 . S
C700 C708 1.378 . S
C701 C700 1.367 . S
C701 C709 1.433 . S
C702 H698 0.929 . S
C702 C704 1.378 . S
C702 C706 1.350 . S
C703 C706 1.463 . S
C703 C708 1.350 . S
C703 N711 1.427 . S
C704 H695 0.930 . S
C704 C702 1.378 . S
C704 C705 1.367 . S
C705 C704 1.367 . S
C705 C707 1.433 . S
C706 C702 1.350 . S
C706 C703 1.463 . S
C706 N710 1.427 . S
C707 H697 0.929 . S
C707 C705 1.433 . S
C707 N710 1.384 . S
C708 H699 0.929 . S
C708 C700 1.378 . S
C708 C703 1.350 . S
C709 H696 0.929 . S
C709 C701 1.433 . S
C709 N711 1.384 . S
N710 C706 1.427 . S
N710 C707 1.384 . S
N711 C703 1.427 . S
N711 C709 1.384 . S
H712 C718 0.930 . S
H713 C722 0.930 . S
H714 C727 0.929 . S
H715 C725 0.929 . S
H716 C720 0.929 . S
H717 C726 0.929 . S
C718 H712 0.930 . S
C718 C719 1.367 . S
C718 C726 1.378 . S
C719 C718 1.367 . S
C719 C727 1.433 . S
C720 H716 0.929 . S
C720 C722 1.378 . S
C720 C724 1.350 . S
C721 C724 1.463 . S
C721 C726 1.350 . S
C721 N729 1.427 . S
C722 H713 0.930 . S
C722 C720 1.378 . S
C722 C723 1.367 . S
C723 C722 1.367 . S
C723 C725 1.433 . S
C724 C720 1.350 . S
C724 C721 1.463 . S
C724 N728 1.427 . S
C725 H715 0.929 . S
C725 C723 1.433 . S
C725 N728 1.384 . S
C726 H717 0.929 . S
C726 C718 1.378 . S
C726 C721 1.350 . S
C727 H714 0.929 . S
C727 C719 1.433 . S
C727 N729 1.384 . S
N728 C724 1.427 . S
N728 C725 1.384 . S
N729 C721 1.427 . S
N729 C727 1.384 . S
H730 C736 0.930 . S
H731 C740 0.930 . S
H732 C745 0.929 . S
H733 C743 0.929 . S
H734 C738 0.929 . S
H735 C744 0.929 . S
C736 H730 0.930 . S
C736 C737 1.367 . S
C736 C744 1.378 . S
C737 C736 1.367 . S
C737 C745 1.433 . S
C738 H734 0.929 . S
C738 C740 1.378 . S
C738 C742 1.350 . S
C739 C742 1.463 . S
C739 C744 1.350 . S
C739 N747 1.427 . S
C740 H731 0.930 . S
C740 C738 1.378 . S
C740 C741 1.367 . S
C741 C740 1.367 . S
C741 C743 1.433 . S
C742 C738 1.350 . S
C742 C739 1.463 . S
C742 N746 1.427 . S
C743 H733 0.929 . S
C743 C741 1.433 . S
C743 N746 1.384 . S
C744 H735 0.929 . S
C744 C736 1.378 . S
C744 C739 1.350 . S
C745 H732 0.929 . S
C745 C737 1.433 . S
C745 N747 1.384 . S
N746 C742 1.427 . S
N746 C743 1.384 . S
N747 C739 1.427 . S
N747 C745 1.384 . S
H748 C754 0.930 . S
H749 C758 0.930 . S
H750 C763 0.929 . S
H751 C761 0.929 . S
H752 C756 0.929 . S
H753 C762 0.929 . S
C754 H748 0.930 . S
C754 C755 1.367 . S
C754 C762 1.378 . S
C755 C754 1.367 . S
C755 C763 1.433 . S
C756 H752 0.929 . S
C756 C758 1.378 . S
C756 C760 1.350 . S
C757 C760 1.463 . S
C757 C762 1.350 . S
C757 N765 1.427 . S
C758 H749 0.930 . S
C758 C756 1.378 . S
C758 C759 1.367 . S
C759 C758 1.367 . S
C759 C761 1.433 . S
C760 C756 1.350 . S
C760 C757 1.463 . S
C760 N764 1.427 . S
C761 H751 0.929 . S
C761 C759 1.433 . S
C761 N764 1.384 . S
C762 H753 0.929 . S
C762 C754 1.378 . S
C762 C757 1.350 . S
C763 H750 0.929 . S
C763 C755 1.433 . S
C763 N765 1.384 . S
N764 C760 1.427 . S
N764 C761 1.384 . S
N765 C757 1.427 . S
N765 C763 1.384 . S
H766 C772 0.930 . S
H767 C776 0.930 . S
H768 C781 0.929 . S
H769 C779 0.929 . S
H770 C774 0.929 . S
H771 C780 0.929 . S
C772 H766 0.930 . S
C772 C773 1.367 . S
C772 C780 1.378 . S
C773 C772 1.367 . S
C773 C781 1.433 . S
C774 H770 0.929 . S
C774 C776 1.378 . S
C774 C778 1.350 . S
C775 C778 1.463 . S
C775 C780 1.350 . S
C775 N783 1.427 . S
C776 H767 0.930 . S
C776 C774 1.378 . S
C776 C777 1.367 . S
C777 C776 1.367 . S
C777 C779 1.433 . S
C778 C774 1.350 . S
C778 C775 1.463 . S
C778 N782 1.427 . S
C779 H769 0.929 . S
C779 C777 1.433 . S
C779 N782 1.384 . S
C780 H771 0.929 . S
C780 C772 1.378 . S
C780 C775 1.350 . S
C781 H768 0.929 . S
C781 C773 1.433 . S
C781 N783 1.384 . S
N782 C778 1.427 . S
N782 C779 1.384 . S
N783 C775 1.427 . S
N783 C781 1.384 . S
H784 C790 0.930 . S
H785 C794 0.930 . S
H786 C799 0.929 . S
H787 C797 0.929 1_455 S
H788 C792 0.929 . S
H789 C798 0.929 . S
C790 H784 0.930 . S
C790 C791 1.367 . S
C790 C798 1.378 . S
C791 C790 1.367 . S
C791 C799 1.433 . S
C792 H788 0.929 . S
C792 C794 1.378 . S
C792 C796 1.350 . S
C793 C796 1.463 . S
C793 C798 1.350 . S
C793 N801 1.427 . S
C794 H785 0.930 . S
C794 C792 1.378 . S
C794 C795 1.367 . S
C795 C794 1.367 . S
C795 C797 1.433 . S
C796 C792 1.350 . S
C796 C793 1.463 . S
C796 N800 1.427 . S
C797 H787 0.929 1_655 S
C797 C795 1.433 . S
C797 N800 1.384 . S
C798 H789 0.929 . S
C798 C790 1.378 . S
C798 C793 1.350 . S
C799 H786 0.929 . S
C799 C791 1.433 . S
C799 N801 1.384 . S
N800 C796 1.427 . S
N800 C797 1.384 . S
N801 C793 1.427 . S
N801 C799 1.384 . S
H802 C808 0.930 . S
H803 C812 0.930 . S
H804 C817 0.929 . S
H805 C815 0.929 . S
H806 C810 0.929 . S
H807 C816 0.929 . S
C808 H802 0.930 . S
C808 C809 1.367 . S
C808 C816 1.378 . S
C809 C808 1.367 . S
C809 C817 1.433 . S
C810 H806 0.929 . S
C810 C812 1.378 . S
C810 C814 1.350 . S
C811 C814 1.463 . S
C811 C816 1.350 . S
C811 N819 1.427 . S
C812 H803 0.930 . S
C812 C810 1.378 . S
C812 C813 1.367 . S
C813 C812 1.367 . S
C813 C815 1.433 . S
C814 C810 1.350 . S
C814 C811 1.463 . S
C814 N818 1.427 . S
C815 H805 0.929 . S
C815 C813 1.433 . S
C815 N818 1.384 . S
C816 H807 0.929 . S
C816 C808 1.378 . S
C816 C811 1.350 . S
C817 H804 0.929 . S
C817 C809 1.433 . S
C817 N819 1.384 . S
N818 C814 1.427 . S
N818 C815 1.384 . S
N819 C811 1.427 . S
N819 C817 1.384 . S
H820 C826 0.930 . S
H821 C830 0.930 . S
H822 C835 0.929 . S
H823 C833 0.929 . S
H824 C828 0.929 . S
H825 C834 0.929 . S
C826 H820 0.930 . S
C826 C827 1.367 . S
C826 C834 1.378 . S
C827 C826 1.367 . S
C827 C835 1.433 . S
C828 H824 0.929 . S
C828 C830 1.378 . S
C828 C832 1.350 . S
C829 C832 1.463 . S
C829 C834 1.350 . S
C829 N837 1.427 . S
C830 H821 0.930 . S
C830 C828 1.378 . S
C830 C831 1.367 . S
C831 C830 1.367 . S
C831 C833 1.433 . S
C832 C828 1.350 . S
C832 C829 1.463 . S
C832 N836 1.427 . S
C833 H823 0.929 . S
C833 C831 1.433 . S
C833 N836 1.384 . S
C834 H825 0.929 . S
C834 C826 1.378 . S
C834 C829 1.350 . S
C835 H822 0.929 . S
C835 C827 1.433 . S
C835 N837 1.384 . S
N836 C832 1.427 . S
N836 C833 1.384 . S
N837 C829 1.427 . S
N837 C835 1.384 . S
H838 C844 0.930 . S
H839 C848 0.930 . S
H840 C853 0.929 . S
H841 C851 0.929 . S
H842 C846 0.929 . S
H843 C852 0.929 . S
C844 H838 0.930 . S
C844 C845 1.367 . S
C844 C852 1.378 . S
C845 C844 1.367 . S
C845 C853 1.433 . S
C846 H842 0.929 . S
C846 C848 1.378 . S
C846 C850 1.350 . S
C847 C850 1.463 . S
C847 C852 1.350 . S
C847 N855 1.427 . S
C848 H839 0.930 . S
C848 C846 1.378 . S
C848 C849 1.367 . S
C849 C848 1.367 . S
C849 C851 1.433 . S
C850 C846 1.350 . S
C850 C847 1.463 . S
C850 N854 1.427 . S
C851 H841 0.929 . S
C851 C849 1.433 . S
C851 N854 1.384 . S
C852 H843 0.929 . S
C852 C844 1.378 . S
C852 C847 1.350 . S
C853 H840 0.929 . S
C853 C845 1.433 . S
C853 N855 1.384 . S
N854 C850 1.427 . S
N854 C851 1.384 . S
N855 C847 1.427 . S
N855 C853 1.384 . S
H856 C862 0.930 . S
H857 C866 0.930 . S
H858 C871 0.929 . S
H859 C869 0.929 . S
H860 C864 0.929 . S
H861 C870 0.929 . S
C862 H856 0.930 . S
C862 C863 1.367 . S
C862 C870 1.378 . S
C863 C862 1.367 . S
C863 C871 1.433 . S
C864 H860 0.929 . S
C864 C866 1.378 . S
C864 C868 1.350 . S
C865 C868 1.463 . S
C865 C870 1.350 . S
C865 N873 1.427 . S
C866 H857 0.930 . S
C866 C864 1.378 . S
C866 C867 1.367 . S
C867 C866 1.367 . S
C867 C869 1.433 . S
C868 C864 1.350 . S
C868 C865 1.463 . S
C868 N872 1.427 . S
C869 H859 0.929 . S
C869 C867 1.433 . S
C869 N872 1.384 . S
C870 H861 0.929 . S
C870 C862 1.378 . S
C870 C865 1.350 . S
C871 H858 0.929 . S
C871 C863 1.433 . S
C871 N873 1.384 . S
N872 C868 1.427 . S
N872 C869 1.384 . S
N873 C865 1.427 . S
N873 C871 1.384 . S
H874 C880 0.930 . S
H875 C884 0.930 . S
H876 C889 0.929 . S
H877 C887 0.929 . S
H878 C882 0.929 . S
H879 C888 0.929 . S
C880 H874 0.930 . S
C880 C881 1.367 . S
C880 C888 1.378 . S
C881 C880 1.367 . S
C881 C889 1.433 . S
C882 H878 0.929 . S
C882 C884 1.378 . S
C882 C886 1.350 . S
C883 C886 1.463 . S
C883 C888 1.350 . S
C883 N891 1.427 . S
C884 H875 0.930 . S
C884 C882 1.378 . S
C884 C885 1.367 . S
C885 C884 1.367 . S
C885 C887 1.433 . S
C886 C882 1.350 . S
C886 C883 1.463 . S
C886 N890 1.427 . S
C887 H877 0.929 . S
C887 C885 1.433 . S
C887 N890 1.384 . S
C888 H879 0.929 . S
C888 C880 1.378 . S
C888 C883 1.350 . S
C889 H876 0.929 . S
C889 C881 1.433 . S
C889 N891 1.384 . S
N890 C886 1.427 . S
N890 C887 1.384 . S
N891 C883 1.427 . S
N891 C889 1.384 . S
H892 C898 0.930 . S
H893 C902 0.930 . S
H894 C907 0.929 . S
H895 C905 0.929 . S
H896 C900 0.929 . S
H897 C906 0.929 . S
C898 H892 0.930 . S
C898 C899 1.367 . S
C898 C906 1.378 . S
C899 C898 1.367 . S
C899 C907 1.433 . S
C900 H896 0.929 . S
C900 C902 1.378 . S
C900 C904 1.350 . S
C901 C904 1.463 . S
C901 C906 1.350 . S
C901 N909 1.427 . S
C902 H893 0.930 . S
C902 C900 1.378 . S
C902 C903 1.367 . S
C903 C902 1.367 . S
C903 C905 1.433 . S
C904 C900 1.350 . S
C904 C901 1.463 . S
C904 N908 1.427 . S
C905 H895 0.929 . S
C905 C903 1.433 . S
C905 N908 1.384 . S
C906 H897 0.929 . S
C906 C898 1.378 . S
C906 C901 1.350 . S
C907 H894 0.929 . S
C907 C899 1.433 . S
C907 N909 1.384 . S
N908 C904 1.427 . S
N908 C905 1.384 . S
N909 C901 1.427 . S
N909 C907 1.384 . S
H910 C916 0.930 . S
H911 C920 0.930 . S
H912 C925 0.929 . S
H913 C923 0.929 . S
H914 C918 0.929 . S
H915 C924 0.929 . S
C916 H910 0.930 . S
C916 C917 1.367 . S
C916 C924 1.378 . S
C917 C916 1.367 . S
C917 C925 1.433 . S
C918 H914 0.929 . S
C918 C920 1.378 . S
C918 C922 1.350 . S
C919 C922 1.463 . S
C919 C924 1.350 . S
C919 N927 1.427 . S
C920 H911 0.930 . S
C920 C918 1.378 . S
C920 C921 1.367 . S
C921 C920 1.367 . S
C921 C923 1.433 . S
C922 C918 1.350 . S
C922 C919 1.463 . S
C922 N926 1.427 . S
C923 H913 0.929 . S
C923 C921 1.433 . S
C923 N926 1.384 . S
C924 H915 0.929 . S
C924 C916 1.378 . S
C924 C919 1.350 . S
C925 H912 0.929 . S
C925 C917 1.433 . S
C925 N927 1.384 . S
N926 C922 1.427 . S
N926 C923 1.384 . S
N927 C919 1.427 . S
N927 C925 1.384 . S
H928 C934 0.930 . S
H929 C938 0.930 . S
H930 C943 0.929 . S
H931 C941 0.929 . S
H932 C936 0.929 . S
H933 C942 0.929 . S
C934 H928 0.930 . S
C934 C935 1.367 . S
C934 C942 1.378 . S
C935 C934 1.367 . S
C935 C943 1.433 . S
C936 H932 0.929 . S
C936 C938 1.378 . S
C936 C940 1.350 . S
C937 C940 1.463 . S
C937 C942 1.350 . S
C937 N945 1.427 . S
C938 H929 0.930 . S
C938 C936 1.378 . S
C938 C939 1.367 . S
C939 C938 1.367 . S
C939 C941 1.433 . S
C940 C936 1.350 . S
C940 C937 1.463 . S
C940 N944 1.427 . S
C941 H931 0.929 . S
C941 C939 1.433 . S
C941 N944 1.384 . S
C942 H933 0.929 . S
C942 C934 1.378 . S
C942 C937 1.350 . S
C943 H930 0.929 . S
C943 C935 1.433 . S
C943 N945 1.384 . S
N944 C940 1.427 . S
N944 C941 1.384 . S
N945 C937 1.427 . S
N945 C943 1.384 . S
H946 C952 0.930 . S
H947 C956 0.930 . S
H948 C961 0.929 . S
H949 C959 0.929 . S
H950 C954 0.929 . S
H951 C960 0.929 . S
C952 H946 0.930 . S
C952 C953 1.367 . S
C952 C960 1.378 . S
C953 C952 1.367 . S
C953 C961 1.433 . S
C954 H950 0.929 . S
C954 C956 1.378 . S
C954 C958 1.350 . S
C955 C958 1.463 . S
C955 C960 1.350 . S
C955 N963 1.427 . S
C956 H947 0.930 . S
C956 C954 1.378 . S
C956 C957 1.367 . S
C957 C956 1.367 . S
C957 C959 1.433 . S
C958 C954 1.350 . S
C958 C955 1.463 . S
C958 N962 1.427 . S
C959 H949 0.929 . S
C959 C957 1.433 . S
C959 N962 1.384 . S
C960 H951 0.929 . S
C960 C952 1.378 . S
C960 C955 1.350 . S
C961 H948 0.929 . S
C961 C953 1.433 . S
C961 N963 1.384 . S
N962 C958 1.427 . S
N962 C959 1.384 . S
N963 C955 1.427 . S
N963 C961 1.384 . S
H964 C970 0.930 . S
H965 C974 0.930 . S
H966 C979 0.929 1_455 S
H967 C977 0.929 . S
H968 C972 0.929 . S
H969 C978 0.929 . S
C970 H964 0.930 . S
C970 C971 1.367 . S
C970 C978 1.378 . S
C971 C970 1.367 . S
C971 C979 1.433 . S
C972 H968 0.929 . S
C972 C974 1.378 . S
C972 C976 1.350 . S
C973 C976 1.463 . S
C973 C978 1.350 . S
C973 N981 1.427 . S
C974 H965 0.930 . S
C974 C972 1.378 . S
C974 C975 1.367 . S
C975 C974 1.367 . S
C975 C977 1.433 . S
C976 C972 1.350 . S
C976 C973 1.463 . S
C976 N980 1.427 . S
C977 H967 0.929 . S
C977 C975 1.433 . S
C977 N980 1.384 . S
C978 H969 0.929 . S
C978 C970 1.378 . S
C978 C973 1.350 . S
C979 H966 0.929 1_655 S
C979 C971 1.433 . S
C979 N981 1.384 . S
N980 C976 1.427 . S
N980 C977 1.384 . S
N981 C973 1.427 . S
N981 C979 1.384 . S
H982 C988 0.930 . S
H983 C992 0.930 . S
H984 C997 0.929 . S
H985 C995 0.929 . S
H986 C990 0.929 . S
H987 C996 0.929 . S
C988 H982 0.930 . S
C988 C989 1.367 . S
C988 C996 1.378 . S
C989 C988 1.367 . S
C989 C997 1.433 . S
C990 H986 0.929 . S
C990 C992 1.378 . S
C990 C994 1.350 . S
C991 C994 1.463 . S
C991 C996 1.350 . S
C991 N999 1.427 . S
C992 H983 0.930 . S
C992 C990 1.378 . S
C992 C993 1.367 . S
C993 C992 1.367 . S
C993 C995 1.433 . S
C994 C990 1.350 . S
C994 C991 1.463 . S
C994 N998 1.427 . S
C995 H985 0.929 . S
C995 C993 1.433 . S
C995 N998 1.384 . S
C996 H987 0.929 . S
C996 C988 1.378 . S
C996 C991 1.350 . S
C997 H984 0.929 . S
C997 C989 1.433 . S
C997 N999 1.384 . S
N998 C994 1.427 . S
N998 C995 1.384 . S
N999 C991 1.427 . S
N999 C997 1.384 . S
H1000 C1006 0.930 . S
H1001 C1010 0.930 . S
H1002 C1015 0.929 . S
H1003 C1013 0.929 . S
H1004 C1008 0.929 . S
H1005 C1014 0.929 . S
C1006 H1000 0.930 . S
C1006 C1007 1.367 . S
C1006 C1014 1.378 . S
C1007 C1006 1.367 . S
C1007 C1015 1.433 . S
C1008 H1004 0.929 . S
C1008 C1010 1.378 . S
C1008 C1012 1.350 . S
C1009 C1012 1.463 . S
C1009 C1014 1.350 . S
C1009 N1017 1.427 . S
C1010 H1001 0.930 . S
C1010 C1008 1.378 . S
C1010 C1011 1.367 . S
C1011 C1010 1.367 . S
C1011 C1013 1.433 . S
C1012 C1008 1.350 . S
C1012 C1009 1.463 . S
C1012 N1016 1.427 . S
C1013 H1003 0.929 . S
C1013 C1011 1.433 . S
C1013 N1016 1.384 . S
C1014 H1005 0.929 . S
C1014 C1006 1.378 . S
C1014 C1009 1.350 . S
C1015 H1002 0.929 . S
C1015 C1007 1.433 . S
C1015 N1017 1.384 . S
N1016 C1012 1.427 . S
N1016 C1013 1.384 . S
N1017 C1009 1.427 . S
N1017 C1015 1.384 . S
H1018 C1024 0.930 . S
H1019 C1028 0.930 . S
H1020 C1033 0.929 . S
H1021 C1031 0.929 . S
H1022 C1026 0.929 . S
H1023 C1032 0.929 . S
C1024 H1018 0.930 . S
C1024 C1025 1.367 . S
C1024 C1032 1.378 . S
C1025 C1024 1.367 . S
C1025 C1033 1.433 . S
C1026 H1022 0.929 . S
C1026 C1028 1.378 . S
C1026 C1030 1.350 . S
C1027 C1030 1.463 . S
C1027 C1032 1.350 . S
C1027 N1035 1.427 . S
C1028 H1019 0.930 . S
C1028 C1026 1.378 . S
C1028 C1029 1.367 . S
C1029 C1028 1.367 . S
C1029 C1031 1.433 . S
C1030 C1026 1.350 . S
C1030 C1027 1.463 . S
C1030 N1034 1.427 . S
C1031 H1021 0.929 . S
C1031 C1029 1.433 . S
C1031 N1034 1.384 . S
C1032 H1023 0.929 . S
C1032 C1024 1.378 . S
C1032 C1027 1.350 . S
C1033 H1020 0.929 . S
C1033 C1025 1.433 . S
C1033 N1035 1.384 . S
N1034 C1030 1.427 . S
N1034 C1031 1.384 . S
N1035 C1027 1.427 . S
N1035 C1033 1.384 . S
H1036 C1042 0.930 . S
H1037 C1046 0.930 . S
H1038 C1051 0.929 . S
H1039 C1049 0.929 . S
H1040 C1044 0.929 . S
H1041 C1050 0.929 . S
C1042 H1036 0.930 . S
C1042 C1043 1.367 . S
C1042 C1050 1.378 . S
C1043 C1042 1.367 . S
C1043 C1051 1.433 . S
C1044 H1040 0.929 . S
C1044 C1046 1.378 . S
C1044 C1048 1.350 . S
C1045 C1048 1.463 . S
C1045 C1050 1.350 . S
C1045 N1053 1.427 . S
C1046 H1037 0.930 . S
C1046 C1044 1.378 . S
C1046 C1047 1.367 . S
C1047 C1046 1.367 . S
C1047 C1049 1.433 . S
C1048 C1044 1.350 . S
C1048 C1045 1.463 . S
C1048 N1052 1.427 . S
C1049 H1039 0.929 . S
C1049 C1047 1.433 . S
C1049 N1052 1.384 . S
C1050 H1041 0.929 . S
C1050 C1042 1.378 . S
C1050 C1045 1.350 . S
C1051 H1038 0.929 . S
C1051 C1043 1.433 . S
C1051 N1053 1.384 . S
N1052 C1048 1.427 . S
N1052 C1049 1.384 . S
N1053 C1045 1.427 . S
N1053 C1051 1.384 . S
H1054 C1060 0.930 . S
H1055 C1064 0.930 . S
H1056 C1069 0.929 . S
H1057 C1067 0.929 . S
H1058 C1062 0.929 . S
H1059 C1068 0.929 . S
C1060 H1054 0.930 . S
C1060 C1061 1.367 . S
C1060 C1068 1.378 . S
C1061 C1060 1.367 . S
C1061 C1069 1.433 . S
C1062 H1058 0.929 . S
C1062 C1064 1.378 . S
C1062 C1066 1.350 . S
C1063 C1066 1.463 . S
C1063 C1068 1.350 . S
C1063 N1071 1.427 . S
C1064 H1055 0.930 . S
C1064 C1062 1.378 . S
C1064 C1065 1.367 . S
C1065 C1064 1.367 . S
C1065 C1067 1.433 . S
C1066 C1062 1.350 . S
C1066 C1063 1.463 . S
C1066 N1070 1.427 . S
C1067 H1057 0.929 . S
C1067 C1065 1.433 . S
C1067 N1070 1.384 . S
C1068 H1059 0.929 . S
C1068 C1060 1.378 . S
C1068 C1063 1.350 . S
C1069 H1056 0.929 . S
C1069 C1061 1.433 . S
C1069 N1071 1.384 . S
N1070 C1066 1.427 . S
N1070 C1067 1.384 . S
N1071 C1063 1.427 . S
N1071 C1069 1.384 . S
H1072 C1078 0.930 . S
H1073 C1082 0.930 . S
H1074 C1087 0.929 . S
H1075 C1085 0.929 . S
H1076 C1080 0.929 . S
H1077 C1086 0.929 . S
C1078 H1072 0.930 . S
C1078 C1079 1.367 . S
C1078 C1086 1.378 . S
C1079 C1078 1.367 . S
C1079 C1087 1.433 . S
C1080 H1076 0.929 . S
C1080 C1082 1.378 . S
C1080 C1084 1.350 . S
C1081 C1084 1.463 . S
C1081 C1086 1.350 . S
C1081 N1089 1.427 . S
C1082 H1073 0.930 . S
C1082 C1080 1.378 . S
C1082 C1083 1.367 . S
C1083 C1082 1.367 . S
C1083 C1085 1.433 . S
C1084 C1080 1.350 . S
C1084 C1081 1.463 . S
C1084 N1088 1.427 . S
C1085 H1075 0.929 . S
C1085 C1083 1.433 . S
C1085 N1088 1.384 . S
C1086 H1077 0.929 . S
C1086 C1078 1.378 . S
C1086 C1081 1.350 . S
C1087 H1074 0.929 . S
C1087 C1079 1.433 . S
C1087 N1089 1.384 . S
N1088 C1084 1.427 . S
N1088 C1085 1.384 . S
N1089 C1081 1.427 . S
N1089 C1087 1.384 . S
H1090 C1096 0.930 . S
H1091 C1100 0.930 . S
H1092 C1105 0.929 . S
H1093 C1103 0.929 . S
H1094 C1098 0.929 . S
H1095 C1104 0.929 . S
C1096 H1090 0.930 . S
C1096 C1097 1.367 . S
C1096 C1104 1.378 . S
C1097 C1096 1.367 . S
C1097 C1105 1.433 . S
C1098 H1094 0.929 . S
C1098 C1100 1.378 . S
C1098 C1102 1.350 . S
C1099 C1102 1.463 . S
C1099 C1104 1.350 . S
C1099 N1107 1.427 . S
C1100 H1091 0.930 . S
C1100 C1098 1.378 . S
C1100 C1101 1.367 . S
C1101 C1100 1.367 . S
C1101 C1103 1.433 . S
C1102 C1098 1.350 . S
C1102 C1099 1.463 . S
C1102 N1106 1.427 . S
C1103 H1093 0.929 . S
C1103 C1101 1.433 . S
C1103 N1106 1.384 . S
C1104 H1095 0.929 . S
C1104 C1096 1.378 . S
C1104 C1099 1.350 . S
C1105 H1092 0.929 . S
C1105 C1097 1.433 . S
C1105 N1107 1.384 . S
N1106 C1102 1.427 . S
N1106 C1103 1.384 . S
N1107 C1099 1.427 . S
N1107 C1105 1.384 . S
H1108 C1114 0.930 . S
H1109 C1118 0.930 . S
H1110 C1123 0.929 . S
H1111 C1121 0.929 . S
H1112 C1116 0.929 . S
H1113 C1122 0.929 . S
C1114 H1108 0.930 . S
C1114 C1115 1.367 . S
C1114 C1122 1.378 . S
C1115 C1114 1.367 . S
C1115 C1123 1.433 . S
C1116 H1112 0.929 . S
C1116 C1118 1.378 . S
C1116 C1120 1.350 . S
C1117 C1120 1.463 . S
C1117 C1122 1.350 . S
C1117 N1125 1.427 . S
C1118 H1109 0.930 . S
C1118 C1116 1.378 . S
C1118 C1119 1.367 . S
C1119 C1118 1.367 . S
C1119 C1121 1.433 . S
C1120 C1116 1.350 . S
C1120 C1117 1.463 . S
C1120 N1124 1.427 . S
C1121 H1111 0.929 . S
C1121 C1119 1.433 . S
C1121 N1124 1.384 . S
C1122 H1113 0.929 . S
C1122 C1114 1.378 . S
C1122 C1117 1.350 . S
C1123 H1110 0.929 . S
C1123 C1115 1.433 . S
C1123 N1125 1.384 . S
N1124 C1120 1.427 . S
N1124 C1121 1.384 . S
N1125 C1117 1.427 . S
N1125 C1123 1.384 . S
H1126 C1132 0.930 . S
H1127 C1136 0.930 . S
H1128 C1141 0.929 . S
H1129 C1139 0.929 . S
H1130 C1134 0.929 . S
H1131 C1140 0.929 . S
C1132 H1126 0.930 . S
C1132 C1133 1.367 . S
C1132 C1140 1.378 . S
C1133 C1132 1.367 . S
C1133 C1141 1.433 . S
C1134 H1130 0.929 . S
C1134 C1136 1.378 . S
C1134 C1138 1.350 . S
C1135 C1138 1.463 . S
C1135 C1140 1.350 . S
C1135 N1143 1.427 . S
C1136 H1127 0.930 . S
C1136 C1134 1.378 . S
C1136 C1137 1.367 . S
C1137 C1136 1.367 . S
C1137 C1139 1.433 . S
C1138 C1134 1.350 . S
C1138 C1135 1.463 . S
C1138 N1142 1.427 . S
C1139 H1129 0.929 . S
C1139 C1137 1.433 . S
C1139 N1142 1.384 . S
C1140 H1131 0.929 . S
C1140 C1132 1.378 . S
C1140 C1135 1.350 . S
C1141 H1128 0.929 . S
C1141 C1133 1.433 . S
C1141 N1143 1.384 . S
N1142 C1138 1.427 . S
N1142 C1139 1.384 . S
N1143 C1135 1.427 . S
N1143 C1141 1.384 . S
H1144 C1150 0.930 . S
H1145 C1154 0.930 . S
H1146 C1159 0.929 . S
H1147 C1157 0.929 . S
H1148 C1152 0.929 . S
H1149 C1158 0.929 . S
C1150 H1144 0.930 . S
C1150 C1151 1.367 . S
C1150 C1158 1.378 . S
C1151 C1150 1.367 . S
C1151 C1159 1.433 . S
C1152 H1148 0.929 . S
C1152 C1154 1.378 . S
C1152 C1156 1.350 . S
C1153 C1156 1.463 . S
C1153 C1158 1.350 . S
C1153 N1161 1.427 . S
C1154 H1145 0.930 . S
C1154 C1152 1.378 . S
C1154 C1155 1.367 . S
C1155 C1154 1.367 . S
C1155 C1157 1.433 . S
C1156 C1152 1.350 . S
C1156 C1153 1.463 . S
C1156 N1160 1.427 . S
C1157 H1147 0.929 . S
C1157 C1155 1.433 . S
C1157 N1160 1.384 . S
C1158 H1149 0.929 . S
C1158 C1150 1.378 . S
C1158 C1153 1.350 . S
C1159 H1146 0.929 . S
C1159 C1151 1.433 . S
C1159 N1161 1.384 . S
N1160 C1156 1.427 . S
N1160 C1157 1.384 . S
N1161 C1153 1.427 . S
N1161 C1159 1.384 . S
H1162 C1168 0.930 . S
H1163 C1172 0.930 . S
H1164 C1177 0.929 . S
H1165 C1175 0.929 . S
H1166 C1170 0.929 . S
H1167 C1176 0.929 . S
C1168 H1162 0.930 . S
C1168 C1169 1.367 . S
C1168 C1176 1.378 . S
C1169 C1168 1.367 . S
C1169 C1177 1.433 . S
C1170 H1166 0.929 . S
C1170 C1172 1.378 . S
C1170 C1174 1.350 . S
C1171 C1174 1.463 . S
C1171 C1176 1.350 . S
C1171 N1179 1.427 . S
C1172 H1163 0.930 . S
C1172 C1170 1.378 . S
C1172 C1173 1.367 . S
C1173 C1172 1.367 . S
C1173 C1175 1.433 . S
C1174 C1170 1.350 . S
C1174 C1171 1.463 . S
C1174 N1178 1.427 . S
C1175 H1165 0.929 . S
C1175 C1173 1.433 . S
C1175 N1178 1.384 . S
C1176 H1167 0.929 . S
C1176 C1168 1.378 . S
C1176 C1171 1.350 . S
C1177 H1164 0.929 . S
C1177 C1169 1.433 . S
C1177 N1179 1.384 . S
N1178 C1174 1.427 . S
N1178 C1175 1.384 . S
N1179 C1171 1.427 . S
N1179 C1177 1.384 . S
H1180 C1186 0.930 . S
H1181 C1190 0.930 . S
H1182 C1195 0.929 . S
H1183 C1193 0.929 . S
H1184 C1188 0.929 . S
H1185 C1194 0.929 . S
C1186 H1180 0.930 . S
C1186 C1187 1.367 . S
C1186 C1194 1.378 . S
C1187 C1186 1.367 . S
C1187 C1195 1.433 . S
C1188 H1184 0.929 . S
C1188 C1190 1.378 . S
C1188 C1192 1.350 . S
C1189 C1192 1.463 . S
C1189 C1194 1.350 . S
C1189 N1197 1.427 . S
C1190 H1181 0.930 . S
C1190 C1188 1.378 . S
C1190 C1191 1.367 . S
C1191 C1190 1.367 . S
C1191 C1193 1.433 . S
C1192 C1188 1.350 . S
C1192 C1189 1.463 . S
C1192 N1196 1.427 . S
C1193 H1183 0.929 . S
C1193 C1191 1.433 . S
C1193 N1196 1.384 . S
C1194 H1185 0.929 . S
C1194 C1186 1.378 . S
C1194 C1189 1.350 . S
C1195 H1182 0.929 . S
C1195 C1187 1.433 . S
C1195 N1197 1.384 . S
N1196 C1192 1.427 . S
N1196 C1193 1.384 . S
N1197 C1189 1.427 . S
N1197 C1195 1.384 . S
H1198 C1204 0.930 . S
H1199 C1208 0.930 . S
H1200 C1213 0.929 . S
H1201 C1211 0.929 . S
H1202 C1206 0.929 . S
H1203 C1212 0.929 . S
C1204 H1198 0.930 . S
C1204 C1205 1.367 . S
C1204 C1212 1.378 . S
C1205 C1204 1.367 . S
C1205 C1213 1.433 . S
C1206 H1202 0.929 . S
C1206 C1208 1.378 . S
C1206 C1210 1.350 . S
C1207 C1210 1.463 . S
C1207 C1212 1.350 . S
C1207 N1215 1.427 . S
C1208 H1199 0.930 . S
C1208 C1206 1.378 . S
C1208 C1209 1.367 . S
C1209 C1208 1.367 . S
C1209 C1211 1.433 . S
C1210 C1206 1.350 . S
C1210 C1207 1.463 . S
C1210 N1214 1.427 . S
C1211 H1201 0.929 . S
C1211 C1209 1.433 . S
C1211 N1214 1.384 . S
C1212 H1203 0.929 . S
C1212 C1204 1.378 . S
C1212 C1207 1.350 . S
C1213 H1200 0.929 . S
C1213 C1205 1.433 . S
C1213 N1215 1.384 . S
N1214 C1210 1.427 . S
N1214 C1211 1.384 . S
N1215 C1207 1.427 . S
N1215 C1213 1.384 . S
H1216 C1222 0.930 . S
H1217 C1226 0.930 . S
H1218 C1231 0.929 . S
H1219 C1229 0.929 . S
H1220 C1224 0.929 . S
H1221 C1230 0.929 . S
C1222 H1216 0.930 . S
C1222 C1223 1.367 . S
C1222 C1230 1.378 . S
C1223 C1222 1.367 . S
C1223 C1231 1.433 . S
C1224 H1220 0.929 . S
C1224 C1226 1.378 . S
C1224 C1228 1.350 . S
C1225 C1228 1.463 . S
C1225 C1230 1.350 . S
C1225 N1233 1.427 . S
C1226 H1217 0.930 . S
C1226 C1224 1.378 . S
C1226 C1227 1.367 . S
C1227 C1226 1.367 . S
C1227 C1229 1.433 . S
C1228 C1224 1.350 . S
C1228 C1225 1.463 . S
C1228 N1232 1.427 . S
C1229 H1219 0.929 . S
C1229 C1227 1.433 . S
C1229 N1232 1.384 . S
C1230 H1221 0.929 . S
C1230 C1222 1.378 . S
C1230 C1225 1.350 . S
C1231 H1218 0.929 . S
C1231 C1223 1.433 . S
C1231 N1233 1.384 . S
N1232 C1228 1.427 . S
N1232 C1229 1.384 . S
N1233 C1225 1.427 . S
N1233 C1231 1.384 . S
H1234 C1240 0.930 . S
H1235 C1244 0.930 . S
H1236 C1249 0.929 . S
H1237 C1247 0.929 . S
H1238 C1242 0.929 . S
H1239 C1248 0.929 . S
C1240 H1234 0.930 . S
C1240 C1241 1.367 . S
C1240 C1248 1.378 . S
C1241 C1240 1.367 . S
C1241 C1249 1.433 . S
C1242 H1238 0.929 . S
C1242 C1244 1.378 . S
C1242 C1246 1.350 . S
C1243 C1246 1.463 . S
C1243 C1248 1.350 . S
C1243 N1251 1.427 . S
C1244 H1235 0.930 . S
C1244 C1242 1.378 . S
C1244 C1245 1.367 . S
C1245 C1244 1.367 . S
C1245 C1247 1.433 . S
C1246 C1242 1.350 . S
C1246 C1243 1.463 . S
C1246 N1250 1.427 . S
C1247 H1237 0.929 . S
C1247 C1245 1.433 . S
C1247 N1250 1.384 . S
C1248 H1239 0.929 . S
C1248 C1240 1.378 . S
C1248 C1243 1.350 . S
C1249 H1236 0.929 . S
C1249 C1241 1.433 . S
C1249 N1251 1.384 . S
N1250 C1246 1.427 . S
N1250 C1247 1.384 . S
N1251 C1243 1.427 . S
N1251 C1249 1.384 . S
H1252 C1258 0.930 . S
H1253 C1262 0.930 . S
H1254 C1267 0.929 . S
H1255 C1265 0.929 . S
H1256 C1260 0.929 . S
H1257 C1266 0.929 . S
C1258 H1252 0.930 . S
C1258 C1259 1.367 . S
C1258 C1266 1.378 . S
C1259 C1258 1.367 . S
C1259 C1267 1.433 . S
C1260 H1256 0.929 . S
C1260 C1262 1.378 . S
C1260 C1264 1.350 . S
C1261 C1264 1.463 . S
C1261 C1266 1.350 . S
C1261 N1269 1.427 . S
C1262 H1253 0.930 . S
C1262 C1260 1.378 . S
C1262 C1263 1.367 . S
C1263 C1262 1.367 . S
C1263 C1265 1.433 . S
C1264 C1260 1.350 . S
C1264 C1261 1.463 . S
C1264 N1268 1.427 . S
C1265 H1255 0.929 . S
C1265 C1263 1.433 . S
C1265 N1268 1.384 . S
C1266 H1257 0.929 . S
C1266 C1258 1.378 . S
C1266 C1261 1.350 . S
C1267 H1254 0.929 . S
C1267 C1259 1.433 . S
C1267 N1269 1.384 . S
N1268 C1264 1.427 . S
N1268 C1265 1.384 . S
N1269 C1261 1.427 . S
N1269 C1267 1.384 . S
H1270 C1276 0.930 . S
H1271 C1280 0.930 . S
H1272 C1285 0.929 1_545 S
H1273 C1283 0.929 . S
H1274 C1278 0.929 . S
H1275 C1284 0.929 . S
C1276 H1270 0.930 . S
C1276 C1277 1.367 . S
C1276 C1284 1.378 . S
C1277 C1276 1.367 . S
C1277 C1285 1.433 . S
C1278 H1274 0.929 . S
C1278 C1280 1.378 . S
C1278 C1282 1.350 . S
C1279 C1282 1.463 . S
C1279 C1284 1.350 . S
C1279 N1287 1.427 . S
C1280 H1271 0.930 . S
C1280 C1278 1.378 . S
C1280 C1281 1.367 . S
C1281 C1280 1.367 . S
C1281 C1283 1.433 . S
C1282 C1278 1.350 . S
C1282 C1279 1.463 . S
C1282 N1286 1.427 . S
C1283 H1273 0.929 . S
C1283 C1281 1.433 . S
C1283 N1286 1.384 . S
C1284 H1275 0.929 . S
C1284 C1276 1.378 . S
C1284 C1279 1.350 . S
C1285 H1272 0.929 1_565 S
C1285 C1277 1.433 . S
C1285 N1287 1.384 . S
N1286 C1282 1.427 . S
N1286 C1283 1.384 . S
N1287 C1279 1.427 . S
N1287 C1285 1.384 . S
H1288 C1294 0.930 . S
H1289 C1298 0.930 . S
H1290 C1303 0.929 . S
H1291 C1301 0.929 . S
H1292 C1296 0.929 . S
H1293 C1302 0.929 . S
C1294 H1288 0.930 . S
C1294 C1295 1.367 . S
C1294 C1302 1.378 . S
C1295 C1294 1.367 . S
C1295 C1303 1.433 . S
C1296 H1292 0.929 . S
C1296 C1298 1.378 . S
C1296 C1300 1.350 . S
C1297 C1300 1.463 . S
C1297 C1302 1.350 . S
C1297 N1305 1.427 . S
C1298 H1289 0.930 . S
C1298 C1296 1.378 . S
C1298 C1299 1.367 . S
C1299 C1298 1.367 . S
C1299 C1301 1.433 . S
C1300 C1296 1.350 . S
C1300 C1297 1.463 . S
C1300 N1304 1.427 . S
C1301 H1291 0.929 . S
C1301 C1299 1.433 . S
C1301 N1304 1.384 . S
C1302 H1293 0.929 . S
C1302 C1294 1.378 . S
C1302 C1297 1.350 . S
C1303 H1290 0.929 . S
C1303 C1295 1.433 . S
C1303 N1305 1.384 . S
N1304 C1300 1.427 . S
N1304 C1301 1.384 . S
N1305 C1297 1.427 . S
N1305 C1303 1.384 . S
H1306 C1312 0.930 . S
H1307 C1316 0.930 . S
H1308 C1321 0.929 . S
H1309 C1319 0.929 . S
H1310 C1314 0.929 . S
H1311 C1320 0.929 . S
C1312 H1306 0.930 . S
C1312 C1313 1.367 . S
C1312 C1320 1.378 . S
C1313 C1312 1.367 . S
C1313 C1321 1.433 . S
C1314 H1310 0.929 . S
C1314 C1316 1.378 . S
C1314 C1318 1.350 . S
C1315 C1318 1.463 . S
C1315 C1320 1.350 . S
C1315 N1323 1.427 . S
C1316 H1307 0.930 . S
C1316 C1314 1.378 . S
C1316 C1317 1.367 . S
C1317 C1316 1.367 . S
C1317 C1319 1.433 . S
C1318 C1314 1.350 . S
C1318 C1315 1.463 . S
C1318 N1322 1.427 . S
C1319 H1309 0.929 . S
C1319 C1317 1.433 . S
C1319 N1322 1.384 . S
C1320 H1311 0.929 . S
C1320 C1312 1.378 . S
C1320 C1315 1.350 . S
C1321 H1308 0.929 . S
C1321 C1313 1.433 . S
C1321 N1323 1.384 . S
N1322 C1318 1.427 . S
N1322 C1319 1.384 . S
N1323 C1315 1.427 . S
N1323 C1321 1.384 . S
H1324 C1330 0.930 . S
H1325 C1334 0.930 . S
H1326 C1339 0.929 . S
H1327 C1337 0.929 . S
H1328 C1332 0.929 . S
H1329 C1338 0.929 . S
C1330 H1324 0.930 . S
C1330 C1331 1.367 . S
C1330 C1338 1.378 . S
C1331 C1330 1.367 . S
C1331 C1339 1.433 . S
C1332 H1328 0.929 . S
C1332 C1334 1.378 . S
C1332 C1336 1.350 . S
C1333 C1336 1.463 . S
C1333 C1338 1.350 . S
C1333 N1341 1.427 . S
C1334 H1325 0.930 . S
C1334 C1332 1.378 . S
C1334 C1335 1.367 . S
C1335 C1334 1.367 . S
C1335 C1337 1.433 . S
C1336 C1332 1.350 . S
C1336 C1333 1.463 . S
C1336 N1340 1.427 . S
C1337 H1327 0.929 . S
C1337 C1335 1.433 . S
C1337 N1340 1.384 . S
C1338 H1329 0.929 . S
C1338 C1330 1.378 . S
C1338 C1333 1.350 . S
C1339 H1326 0.929 . S
C1339 C1331 1.433 . S
C1339 N1341 1.384 . S
N1340 C1336 1.427 . S
N1340 C1337 1.384 . S
N1341 C1333 1.427 . S
N1341 C1339 1.384 . S
H1342 C1348 0.930 . S
H1343 C1352 0.930 . S
H1344 C1357 0.929 . S
H1345 C1355 0.929 . S
H1346 C1350 0.929 . S
H1347 C1356 0.929 . S
C1348 H1342 0.930 . S
C1348 C1349 1.367 . S
C1348 C1356 1.378 . S
C1349 C1348 1.367 . S
C1349 C1357 1.433 . S
C1350 H1346 0.929 . S
C1350 C1352 1.378 . S
C1350 C1354 1.350 . S
C1351 C1354 1.463 . S
C1351 C1356 1.350 . S
C1351 N1359 1.427 . S
C1352 H1343 0.930 . S
C1352 C1350 1.378 . S
C1352 C1353 1.367 . S
C1353 C1352 1.367 . S
C1353 C1355 1.433 . S
C1354 C1350 1.350 . S
C1354 C1351 1.463 . S
C1354 N1358 1.427 . S
C1355 H1345 0.929 . S
C1355 C1353 1.433 . S
C1355 N1358 1.384 . S
C1356 H1347 0.929 . S
C1356 C1348 1.378 . S
C1356 C1351 1.350 . S
C1357 H1344 0.929 . S
C1357 C1349 1.433 . S
C1357 N1359 1.384 . S
N1358 C1354 1.427 . S
N1358 C1355 1.384 . S
N1359 C1351 1.427 . S
N1359 C1357 1.384 . S
H1360 C1366 0.930 . S
H1361 C1370 0.930 . S
H1362 C1375 0.929 . S
H1363 C1373 0.929 . S
H1364 C1368 0.929 . S
H1365 C1374 0.929 . S
C1366 H1360 0.930 . S
C1366 C1367 1.367 . S
C1366 C1374 1.378 . S
C1367 C1366 1.367 . S
C1367 C1375 1.433 . S
C1368 H1364 0.929 . S
C1368 C1370 1.378 . S
C1368 C1372 1.350 . S
C1369 C1372 1.463 . S
C1369 C1374 1.350 . S
C1369 N1377 1.427 . S
C1370 H1361 0.930 . S
C1370 C1368 1.378 . S
C1370 C1371 1.367 . S
C1371 C1370 1.367 . S
C1371 C1373 1.433 . S
C1372 C1368 1.350 . S
C1372 C1369 1.463 . S
C1372 N1376 1.427 . S
C1373 H1363 0.929 . S
C1373 C1371 1.433 . S
C1373 N1376 1.384 . S
C1374 H1365 0.929 . S
C1374 C1366 1.378 . S
C1374 C1369 1.350 . S
C1375 H1362 0.929 . S
C1375 C1367 1.433 . S
C1375 N1377 1.384 . S
N1376 C1372 1.427 . S
N1376 C1373 1.384 . S
N1377 C1369 1.427 . S
N1377 C1375 1.384 . S
H1378 C1384 0.930 . S
H1379 C1388 0.930 . S
H1380 C1393 0.929 . S
H1381 C1391 0.929 . S
H1382 C1386 0.929 . S
H1383 C1392 0.929 . S
C1384 H1378 0.930 . S
C1384 C1385 1.367 . S
C1384 C1392 1.378 . S
C1385 C1384 1.367 . S
C1385 C1393 1.433 . S
C1386 H1382 0.929 . S
C1386 C1388 1.378 . S
C1386 C1390 1.350 . S
C1387 C1390 1.463 . S
C1387 C1392 1.350 . S
C1387 N1395 1.427 . S
C1388 H1379 0.930 . S
C1388 C1386 1.378 . S
C1388 C1389 1.367 . S
C1389 C1388 1.367 . S
C1389 C1391 1.433 . S
C1390 C1386 1.350 . S
C1390 C1387 1.463 . S
C1390 N1394 1.427 . S
C1391 H1381 0.929 . S
C1391 C1389 1.433 . S
C1391 N1394 1.384 . S
C1392 H1383 0.929 . S
C1392 C1384 1.378 . S
C1392 C1387 1.350 . S
C1393 H1380 0.929 . S
C1393 C1385 1.433 . S
C1393 N1395 1.384 . S
N1394 C1390 1.427 . S
N1394 C1391 1.384 . S
N1395 C1387 1.427 . S
N1395 C1393 1.384 . S
H1396 C1402 0.930 . S
H1397 C1406 0.930 . S
H1398 C1411 0.929 . S
H1399 C1409 0.929 . S
H1400 C1404 0.929 . S
H1401 C1410 0.929 . S
C1402 H1396 0.930 . S
C1402 C1403 1.367 . S
C1402 C1410 1.378 . S
C1403 C1402 1.367 . S
C1403 C1411 1.433 . S
C1404 H1400 0.929 . S
C1404 C1406 1.378 . S
C1404 C1408 1.350 . S
C1405 C1408 1.463 . S
C1405 C1410 1.350 . S
C1405 N1413 1.427 . S
C1406 H1397 0.930 . S
C1406 C1404 1.378 . S
C1406 C1407 1.367 . S
C1407 C1406 1.367 . S
C1407 C1409 1.433 . S
C1408 C1404 1.350 . S
C1408 C1405 1.463 . S
C1408 N1412 1.427 . S
C1409 H1399 0.929 . S
C1409 C1407 1.433 . S
C1409 N1412 1.384 . S
C1410 H1401 0.929 . S
C1410 C1402 1.378 . S
C1410 C1405 1.350 . S
C1411 H1398 0.929 . S
C1411 C1403 1.433 . S
C1411 N1413 1.384 . S
N1412 C1408 1.427 . S
N1412 C1409 1.384 . S
N1413 C1405 1.427 . S
N1413 C1411 1.384 . S
H1414 C1420 0.930 . S
H1415 C1424 0.930 . S
H1416 C1429 0.929 . S
H1417 C1427 0.929 . S
H1418 C1422 0.929 . S
H1419 C1428 0.929 . S
C1420 H1414 0.930 . S
C1420 C1421 1.367 . S
C1420 C1428 1.378 . S
C1421 C1420 1.367 . S
C1421 C1429 1.433 . S
C1422 H1418 0.929 . S
C1422 C1424 1.378 . S
C1422 C1426 1.350 . S
C1423 C1426 1.463 . S
C1423 C1428 1.350 . S
C1423 N1431 1.427 . S
C1424 H1415 0.930 . S
C1424 C1422 1.378 . S
C1424 C1425 1.367 . S
C1425 C1424 1.367 . S
C1425 C1427 1.433 . S
C1426 C1422 1.350 . S
C1426 C1423 1.463 . S
C1426 N1430 1.427 . S
C1427 H1417 0.929 . S
C1427 C1425 1.433 . S
C1427 N1430 1.384 . S
C1428 H1419 0.929 . S
C1428 C1420 1.378 . S
C1428 C1423 1.350 . S
C1429 H1416 0.929 . S
C1429 C1421 1.433 . S
C1429 N1431 1.384 . S
N1430 C1426 1.427 . S
N1430 C1427 1.384 . S
N1431 C1423 1.427 . S
N1431 C1429 1.384 . S
H1432 C1438 0.930 . S
H1433 C1442 0.930 . S
H1434 C1447 0.929 . S
H1435 C1445 0.929 . S
H1436 C1440 0.929 . S
H1437 C1446 0.929 . S
C1438 H1432 0.930 . S
C1438 C1439 1.367 . S
C1438 C1446 1.378 . S
C1439 C1438 1.367 . S
C1439 C1447 1.433 . S
C1440 H1436 0.929 . S
C1440 C1442 1.378 . S
C1440 C1444 1.350 . S
C1441 C1444 1.463 . S
C1441 C1446 1.350 . S
C1441 N1449 1.427 . S
C1442 H1433 0.930 . S
C1442 C1440 1.378 . S
C1442 C1443 1.367 . S
C1443 C1442 1.367 . S
C1443 C1445 1.433 . S
C1444 C1440 1.350 . S
C1444 C1441 1.463 . S
C1444 N1448 1.427 . S
C1445 H1435 0.929 . S
C1445 C1443 1.433 . S
C1445 N1448 1.384 . S
C1446 H1437 0.929 . S
C1446 C1438 1.378 . S
C1446 C1441 1.350 . S
C1447 H1434 0.929 . S
C1447 C1439 1.433 . S
C1447 N1449 1.384 . S
N1448 C1444 1.427 . S
N1448 C1445 1.384 . S
N1449 C1441 1.427 . S
N1449 C1447 1.384 . S
H1450 C1456 0.930 . S
H1451 C1460 0.930 . S
H1452 C1465 0.929 . S
H1453 C1463 0.929 . S
H1454 C1458 0.929 . S
H1455 C1464 0.929 . S
C1456 H1450 0.930 . S
C1456 C1457 1.367 . S
C1456 C1464 1.378 . S
C1457 C1456 1.367 . S
C1457 C1465 1.433 . S
C1458 H1454 0.929 . S
C1458 C1460 1.378 . S
C1458 C1462 1.350 . S
C1459 C1462 1.463 . S
C1459 C1464 1.350 . S
C1459 N1467 1.427 . S
C1460 H1451 0.930 . S
C1460 C1458 1.378 . S
C1460 C1461 1.367 . S
C1461 C1460 1.367 . S
C1461 C1463 1.433 . S
C1462 C1458 1.350 . S
C1462 C1459 1.463 . S
C1462 N1466 1.427 . S
C1463 H1453 0.929 . S
C1463 C1461 1.433 . S
C1463 N1466 1.384 . S
C1464 H1455 0.929 . S
C1464 C1456 1.378 . S
C1464 C1459 1.350 . S
C1465 H1452 0.929 . S
C1465 C1457 1.433 . S
C1465 N1467 1.384 . S
N1466 C1462 1.427 . S
N1466 C1463 1.384 . S
N1467 C1459 1.427 . S
N1467 C1465 1.384 . S
H1468 C1474 0.930 . S
H1469 C1478 0.930 . S
H1470 C1483 0.929 . S
H1471 C1481 0.929 . S
H1472 C1476 0.929 . S
H1473 C1482 0.929 . S
C1474 H1468 0.930 . S
C1474 C1475 1.367 . S
C1474 C1482 1.378 . S
C1475 C1474 1.367 . S
C1475 C1483 1.433 . S
C1476 H1472 0.929 . S
C1476 C1478 1.378 . S
C1476 C1480 1.350 . S
C1477 C1480 1.463 . S
C1477 C1482 1.350 . S
C1477 N1485 1.427 . S
C1478 H1469 0.930 . S
C1478 C1476 1.378 . S
C1478 C1479 1.367 . S
C1479 C1478 1.367 . S
C1479 C1481 1.433 . S
C1480 C1476 1.350 . S
C1480 C1477 1.463 . S
C1480 N1484 1.427 . S
C1481 H1471 0.929 . S
C1481 C1479 1.433 . S
C1481 N1484 1.384 . S
C1482 H1473 0.929 . S
C1482 C1474 1.378 . S
C1482 C1477 1.350 . S
C1483 H1470 0.929 . S
C1483 C1475 1.433 . S
C1483 N1485 1.384 . S
N1484 C1480 1.427 . S
N1484 C1481 1.384 . S
N1485 C1477 1.427 . S
N1485 C1483 1.384 . S
H1486 C1492 0.930 . S
H1487 C1496 0.930 . S
H1488 C1501 0.929 . S
H1489 C1499 0.929 . S
H1490 C1494 0.929 . S
H1491 C1500 0.929 . S
C1492 H1486 0.930 . S
C1492 C1493 1.367 . S
C1492 C1500 1.378 . S
C1493 C1492 1.367 . S
C1493 C1501 1.433 . S
C1494 H1490 0.929 . S
C1494 C1496 1.378 . S
C1494 C1498 1.350 . S
C1495 C1498 1.463 . S
C1495 C1500 1.350 . S
C1495 N1503 1.427 . S
C1496 H1487 0.930 . S
C1496 C1494 1.378 . S
C1496 C1497 1.367 . S
C1497 C1496 1.367 . S
C1497 C1499 1.433 . S
C1498 C1494 1.350 . S
C1498 C1495 1.463 . S
C1498 N1502 1.427 . S
C1499 H1489 0.929 . S
C1499 C1497 1.433 . S
C1499 N1502 1.384 . S
C1500 H1491 0.929 . S
C1500 C1492 1.378 . S
C1500 C1495 1.350 . S
C1501 H1488 0.929 . S
C1501 C1493 1.433 . S
C1501 N1503 1.384 . S
N1502 C1498 1.427 . S
N1502 C1499 1.384 . S
N1503 C1495 1.427 . S
N1503 C1501 1.384 . S
C647 C131 1.904 . S
C651 C10 1.906 1_556 S
C665 C7 0.752 . S
C669 C56 0.646 . S
C683 C90 1.044 . S
C687 C59 1.043 . S
C701 C127 0.905 . S
C705 C87 0.907 . S
C719 C167 2.195 . S
C723 C202 2.178 . S
C737 C219 1.284 . S
C741 C259 1.298 1_565 S
C755 C256 2.103 . S
C759 C282 2.107 . S
C773 C171 1.786 . S
C777 C299 1.774 . S
C791 C376 2.845 . S
C795 C11 2.814 . S
C809 C402 1.316 . S
C813 C42 1.339 . S
C827 C91 4.380 . S
C831 C531 4.372 . S
C845 C330 0.920 . S
C849 C130 0.925 . S
C863 C450 0.760 . S
C867 C170 0.755 . S
C881 C571 3.052 . S
C885 C216 3.050 . S
C899 C242 2.096 1_556 S
C903 C482 2.105 . S
C917 C611 2.999 . S
C921 C296 2.975 . S
C935 C331 1.866 . S
C939 C530 1.867 . S
C953 C362 2.240 . S
C957 C327 2.259 . S
C971 C419 0.619 . S
C975 C379 0.610 . S
C989 C570 1.739 . S
C993 C451 1.745 . S
C1007 C499 0.806 . S
C1011 C610 0.821 . S
C1025 C442 1.741 . S
C1029 C19 1.737 . S
C1043 C487 0.688 . S
C1047 C16 0.762 . S
C1061 C490 0.811 . S
C1065 C99 0.802 . S
C1079 C96 0.573 . S
C1083 C456 0.587 . S
C1097 C371 2.236 . S
C1101 C176 2.255 . S
C1115 C370 0.625 . S
C1119 C250 0.625 . S
C1133 C536 0.878 . S
C1137 C247 0.883 . S
C1151 C162 1.864 . S
C1155 C539 1.867 . S
C1169 C207 3.049 . S
C1173 C2 3.050 . S
C1187 C411 2.124 . S
C1191 C491 2.101 . S
C1205 C82 3.000 . S
C1209 C287 2.976 . S
C1223 C339 0.768 . S
C1227 C459 0.749 . S
C1241 C139 0.925 . S
C1245 C179 0.919 . S
C1259 C367 2.845 . S
C1263 C562 2.819 . S
C1277 C251 1.312 1_565 S
C1281 C51 1.340 . S
C1295 C602 4.382 . S
C1299 C522 4.365 . S
C1313 C322 1.781 . S
C1317 C290 1.768 . S
C1331 C336 2.191 . S
C1335 C211 2.178 . S
C1349 C410 1.281 . S
C1353 C210 1.284 . S
C1367 C122 1.905 . S
C1371 C579 1.905 . S
C1385 C50 1.047 . S
C1389 C619 1.034 . S
C1403 C496 0.699 . S
C1407 C567 0.773 . S
C1421 C447 0.549 . S
C1425 C607 0.548 . S
C1439 C416 0.881 . S
C1443 C527 0.877 . S
C1457 C576 0.740 . S
C1461 C47 0.650 . S
C1475 C136 0.902 . S
C1479 C616 0.909 . S
C1493 C291 2.106 . S
C1497 C407 2.103 . S
