# Generated by pormake.
# Topology fni, (5)-cn, num edge types: 1
# Building blocks:
#     Node 0, Type 0, BuildingBlock: BEQFEK_clean_sbu_0, # of connection points: 5
#     Node 1, Type 0, BuildingBlock: BEQFEK_clean_sbu_0, # of connection points: 5
#     Node 2, Type 0, BuildingBlock: BEQFEK_clean_sbu_0, # of connection points: 5
#     Node 3, Type 0, BuildingBlock: BEQFEK_clean_sbu_0, # of connection points: 5
#     Node 4, Type 0, BuildingBlock: BEQFEK_clean_sbu_0, # of connection points: 5
#     Node 5, Type 0, BuildingBlock: BEQFEK_clean_sbu_0, # of connection points: 5
#     Node 6, Type 0, BuildingBlock: BEQFEK_clean_sbu_0, # of connection points: 5
#     Node 7, Type 0, BuildingBlock: BEQFEK_clean_sbu_0, # of connection points: 5
#     Edge 8, Type (0, 0), BuildingBlock: MIFKUJ_clean_linker_0, # of connection points: 2
#     Edge 9, Type (0, 0), BuildingBlock: MIFKUJ_clean_linker_0, # of connection points: 2
#     Edge 10, Type (0, 0), BuildingBlock: MIFKUJ_clean_linker_0, # of connection points: 2
#     Edge 11, Type (0, 0), BuildingBlock: MIFKUJ_clean_linker_0, # of connection points: 2
#     Edge 12, Type (0, 0), BuildingBlock: MIFKUJ_clean_linker_0, # of connection points: 2
#     Edge 13, Type (0, 0), BuildingBlock: MIFKUJ_clean_linker_0, # of connection points: 2
#     Edge 14, Type (0, 0), BuildingBlock: MIFKUJ_clean_linker_0, # of connection points: 2
#     Edge 15, Type (0, 0), BuildingBlock: MIFKUJ_clean_linker_0, # of connection points: 2
#     Edge 16, Type (0, 0), BuildingBlock: MIFKUJ_clean_linker_0, # of connection points: 2
#     Edge 17, Type (0, 0), BuildingBlock: MIFKUJ_clean_linker_0, # of connection points: 2
#     Edge 18, Type (0, 0), BuildingBlock: MIFKUJ_clean_linker_0, # of connection points: 2
#     Edge 19, Type (0, 0), BuildingBlock: MIFKUJ_clean_linker_0, # of connection points: 2
#     Edge 20, Type (0, 0), BuildingBlock: MIFKUJ_clean_linker_0, # of connection points: 2
#     Edge 21, Type (0, 0), BuildingBlock: MIFKUJ_clean_linker_0, # of connection points: 2
#     Edge 22, Type (0, 0), BuildingBlock: MIFKUJ_clean_linker_0, # of connection points: 2
#     Edge 23, Type (0, 0), BuildingBlock: MIFKUJ_clean_linker_0, # of connection points: 2
#     Edge 24, Type (0, 0), BuildingBlock: MIFKUJ_clean_linker_0, # of connection points: 2
#     Edge 25, Type (0, 0), BuildingBlock: MIFKUJ_clean_linker_0, # of connection points: 2
#     Edge 26, Type (0, 0), BuildingBlock: MIFKUJ_clean_linker_0, # of connection points: 2
#     Edge 27, Type (0, 0), BuildingBlock: MIFKUJ_clean_linker_0, # of connection points: 2
# Relax obj value: 0.147
# Max RMSD: 0.209
# Mean RMSD: 0.177
data_MOF--net-fni--node1-BEQFEK_clean_sbu_0--edge1-MIFKUJ_clean_linker_0
_symmetry_space_group_name_H-M    P1
_symmetry_Int_Tables_number       1
_symmetry_cell_setting            triclinic
loop_
_symmetry_equiv_pos_as_xyz
'x, y, z'
_cell_length_a     65.839535
_cell_length_b     69.684677
_cell_length_c     23.259692
_cell_angle_alpha  91.154707
_cell_angle_beta   90.415317
_cell_angle_gamma 89.97732
loop_
_atom_site_label
_atom_site_type_symbol
_atom_site_fract_x
_atom_site_fract_y
_atom_site_fract_z
_atom_type_partial_charge
Co0 Co 0.37657 0.39485 0.07566 0.0
Co1 Co 0.38901 0.38653 0.9482 0.0
C2 C 0.34554 0.3945 0.98294 0.0
O3 O 0.34989 0.39721 0.03593 0.0
O4 O 0.3592 0.39011 0.94661 0.0
C5 C 0.36289 0.41395 0.18243 0.0
O6 O 0.35341 0.42668 0.15112 0.0
C7 C 0.39142 0.39727 0.82776 0.0
C8 C 0.40996 0.37384 0.79015 0.0
C9 C 0.39908 0.39017 0.77609 0.0
N10 N 0.39749 0.38567 0.8701 0.0
N11 N 0.40879 0.37184 0.84747 0.0
C12 C 0.3772 0.41385 0.83644 0.0
H13 H 0.37189 0.41485 0.88141 0.0
H14 H 0.38517 0.42743 0.82723 0.0
H15 H 0.36405 0.41245 0.8065 0.0
C16 C 0.40799 0.42538 0.06382 0.0
N17 N 0.39669 0.41068 0.04267 0.0
N18 N 0.40203 0.40701 0.9891 0.0
C19 C 0.41683 0.41931 0.97446 0.0
C20 C 0.42099 0.4314 0.02109 0.0
C21 C 0.40601 0.4337 0.12332 0.0
H22 H 0.39078 0.4403 0.12788 0.0
H23 H 0.41765 0.44485 0.13271 0.0
H24 H 0.40735 0.4221 0.15508 0.0
O25 O 0.38567 0.36777 0.07319 0.0
O26 O 0.39522 0.36145 0.9835 0.0
H27 H 0.43079 0.40367 0.90486 0.0
H28 H 0.44234 0.42668 0.92101 0.0
C29 C 0.42774 0.41875 0.91821 0.0
H30 H 0.41806 0.42544 0.885 0.0
H31 H 0.41506 0.36064 0.87083 0.0
O32 O 0.37312 0.40065 0.15826 0.0
C33 C 0.39276 0.35626 0.03517 0.0
Co34 Co 0.61316 0.88642 0.32002 0.0
Co35 Co 0.62668 0.89403 0.19454 0.0
C36 C 0.61041 0.8555 0.23192 0.0
O37 O 0.60711 0.86118 0.28334 0.0
O38 O 0.61798 0.86672 0.19528 0.0
C39 C 0.59415 0.87381 0.42529 0.0
O40 O 0.58945 0.85791 0.39699 0.0
C41 C 0.61788 0.89398 0.07312 0.0
C42 C 0.64306 0.91064 0.03664 0.0
C43 C 0.62564 0.90043 0.02178 0.0
N44 N 0.63019 0.89992 0.11608 0.0
N45 N 0.64525 0.90988 0.0942 0.0
C46 C 0.59832 0.88359 0.08244 0.0
H47 H 0.59251 0.88674 0.1263 0.0
H48 H 0.58675 0.88775 0.05005 0.0
H49 H 0.60099 0.86791 0.07837 0.0
C50 C 0.58632 0.91941 0.29604 0.0
N51 N 0.60063 0.90662 0.28008 0.0
N52 N 0.60675 0.91041 0.22783 0.0
C53 C 0.59672 0.926 0.20911 0.0
C54 C 0.58337 0.93213 0.25164 0.0
C55 C 0.57658 0.91998 0.354 0.0
H56 H 0.58849 0.92209 0.38751 0.0
H57 H 0.5691 0.906 0.36166 0.0
H58 H 0.56528 0.93171 0.35812 0.0
O59 O 0.64302 0.89025 0.32435 0.0
O60 O 0.65299 0.89665 0.23583 0.0
H61 H 0.61598 0.93633 0.14267 0.0
H62 H 0.59175 0.94855 0.14749 0.0
C63 C 0.59955 0.93452 0.15114 0.0
H64 H 0.5932 0.9246 0.11781 0.0
H65 H 0.657 0.91609 0.11848 0.0
O66 O 0.60373 0.88699 0.40008 0.0
C67 C 0.65697 0.89431 0.28892 0.0
Co68 Co 0.11995 0.10696 0.47975 0.0
Co69 Co 0.13345 0.10075 0.60661 0.0
C70 C 0.11692 0.1387 0.56548 0.0
O71 O 0.11373 0.13252 0.51435 0.0
O72 O 0.12457 0.12789 0.60338 0.0
C73 C 0.09903 0.11791 0.37483 0.0
O74 O 0.09209 0.13279 0.40415 0.0
C75 C 0.12457 0.10176 0.72786 0.0
C76 C 0.14962 0.08516 0.76631 0.0
C77 C 0.13216 0.0954 0.77991 0.0
N78 N 0.13699 0.09566 0.68581 0.0
N79 N 0.152 0.08579 0.7089 0.0
C80 C 0.10501 0.1121 0.71685 0.0
H81 H 0.09952 0.10905 0.67238 0.0
H82 H 0.09323 0.10777 0.74789 0.0
H83 H 0.10756 0.12779 0.72158 0.0
C84 C 0.09333 0.07408 0.50516 0.0
N85 N 0.10761 0.08703 0.52071 0.0
N86 N 0.11345 0.08397 0.57392 0.0
C87 C 0.10306 0.06884 0.59403 0.0
C88 C 0.08986 0.06216 0.55116 0.0
C89 C 0.08415 0.07258 0.44613 0.0
H90 H 0.09644 0.07164 0.41385 0.0
H91 H 0.07521 0.08574 0.43768 0.0
H92 H 0.07425 0.05979 0.44075 0.0
O93 O 0.14971 0.103 0.47673 0.0
O94 O 0.15989 0.09801 0.56642 0.0
H95 H 0.12144 0.05964 0.66471 0.0
H96 H 0.09701 0.04782 0.6596 0.0
C97 C 0.10515 0.06155 0.65392 0.0
H98 H 0.09868 0.07225 0.68449 0.0
H99 H 0.16377 0.07943 0.6855 0.0
O100 O 0.11053 0.10589 0.39933 0.0
C101 C 0.16373 0.09953 0.51307 0.0
Co102 Co 0.8808 0.60911 0.71962 0.0
Co103 Co 0.89646 0.61883 0.84388 0.0
C104 C 0.8523 0.60882 0.81609 0.0
O105 O 0.85541 0.6054 0.76286 0.0
O106 O 0.86661 0.61447 0.84951 0.0
C107 C 0.86771 0.5907 0.60793 0.0
O108 O 0.85884 0.57649 0.63422 0.0
C109 C 0.90196 0.60979 0.96553 0.0
C110 C 0.92173 0.63353 0.99616 0.0
C111 C 0.9112 0.61758 0.01454 0.0
N112 N 0.90683 0.62065 0.92051 0.0
N113 N 0.91885 0.63468 0.939 0.0
C114 C 0.88749 0.59321 0.96204 0.0
H115 H 0.87534 0.59511 0.99451 0.0
H116 H 0.88078 0.5916 0.91849 0.0
H117 H 0.89571 0.57973 0.97128 0.0
C118 C 0.91337 0.57936 0.72867 0.0
N119 N 0.90254 0.59428 0.75007 0.0
N120 N 0.90901 0.59835 0.80264 0.0
C121 C 0.92404 0.5861 0.81637 0.0
C122 C 0.92721 0.57364 0.77019 0.0
C123 C 0.90986 0.57022 0.67071 0.0
H124 H 0.91026 0.58137 0.63737 0.0
H125 H 0.89461 0.5635 0.66968 0.0
H126 H 0.92136 0.55904 0.66069 0.0
O127 O 0.88777 0.63666 0.72117 0.0
O128 O 0.90185 0.64361 0.80594 0.0
H129 H 0.9393 0.60166 0.88441 0.0
H130 H 0.94995 0.57825 0.86859 0.0
C131 C 0.93564 0.58662 0.87193 0.0
H132 H 0.92618 0.58036 0.906 0.0
H133 H 0.92453 0.64541 0.91292 0.0
O134 O 0.87678 0.60381 0.63677 0.0
C135 C 0.89638 0.64849 0.75574 0.0
Co136 Co 0.40768 0.13242 0.31163 0.0
Co137 Co 0.39301 0.12023 0.18863 0.0
C138 C 0.40391 0.16145 0.22171 0.0
O139 O 0.4091 0.1575 0.27299 0.0
O140 O 0.39743 0.14844 0.18699 0.0
C141 C 0.4147 0.14908 0.42311 0.0
O142 O 0.40494 0.16384 0.40206 0.0
C143 C 0.3986 0.11908 0.06579 0.0
C144 C 0.37585 0.09801 0.03431 0.0
C145 C 0.39068 0.11061 0.01629 0.0
N146 N 0.38881 0.11206 0.11111 0.0
N147 N 0.37526 0.09939 0.09221 0.0
C148 C 0.41618 0.13264 0.07041 0.0
H149 H 0.42354 0.13175 0.11334 0.0
H150 H 0.42745 0.12937 0.03632 0.0
H151 H 0.41069 0.1475 0.06455 0.0
C152 C 0.43843 0.1024 0.28634 0.0
N153 N 0.4224 0.11323 0.27112 0.0
N154 N 0.41588 0.10758 0.21996 0.0
C155 C 0.42742 0.09278 0.20119 0.0
C156 C 0.44214 0.08908 0.24253 0.0
C157 C 0.44878 0.10383 0.34376 0.0
H158 H 0.43772 0.10033 0.37775 0.0
H159 H 0.45397 0.1188 0.35172 0.0
H160 H 0.46191 0.09391 0.34673 0.0
O161 O 0.37888 0.12453 0.3203 0.0
O162 O 0.36833 0.1148 0.23372 0.0
H163 H 0.40823 0.07763 0.1411 0.0
H164 H 0.43447 0.06977 0.14027 0.0
C165 C 0.42428 0.08236 0.14494 0.0
H166 H 0.42736 0.09228 0.10941 0.0
H167 H 0.36547 0.09187 0.11872 0.0
O168 O 0.41833 0.13466 0.39064 0.0
C169 C 0.36508 0.11769 0.28712 0.0
Co170 Co 0.89385 0.87833 0.58276 0.0
Co171 Co 0.90587 0.86943 0.45482 0.0
C172 C 0.86338 0.88233 0.48961 0.0
O173 O 0.86799 0.88401 0.54279 0.0
O174 O 0.8764 0.87672 0.45248 0.0
C175 C 0.88262 0.89685 0.69402 0.0
O176 O 0.87157 0.90954 0.66686 0.0
C177 C 0.90905 0.87603 0.3309 0.0
C178 C 0.93761 0.86108 0.30868 0.0
C179 C 0.92239 0.87246 0.28606 0.0
N180 N 0.91633 0.86763 0.37828 0.0
N181 N 0.9333 0.85853 0.36456 0.0
C182 C 0.88868 0.88546 0.32809 0.0
H183 H 0.87715 0.87495 0.34172 0.0
H184 H 0.88834 0.89795 0.35845 0.0
H185 H 0.88451 0.89003 0.28425 0.0
C186 C 0.92828 0.90556 0.57357 0.0
N187 N 0.91589 0.89188 0.55122 0.0
N188 N 0.92074 0.88855 0.4971 0.0
C189 C 0.93605 0.9004 0.48303 0.0
C190 C 0.94135 0.9114 0.53106 0.0
C191 C 0.92721 0.91329 0.63395 0.0
H192 H 0.92799 0.90126 0.6644 0.0
H193 H 0.91249 0.92075 0.64014 0.0
H194 H 0.93974 0.92354 0.64368 0.0
O195 O 0.89885 0.85059 0.5786 0.0
O196 O 0.90911 0.8436 0.49011 0.0
H197 H 0.95335 0.88772 0.41497 0.0
H198 H 0.9565 0.91332 0.42233 0.0
C199 C 0.94539 0.9014 0.42474 0.0
H200 H 0.93333 0.90346 0.39196 0.0
H201 H 0.94215 0.85089 0.39364 0.0
O202 O 0.89208 0.88394 0.66573 0.0
C203 C 0.90503 0.83849 0.54103 0.0
Co204 Co 0.09713 0.36729 0.82537 0.0
Co205 Co 0.10653 0.37649 0.69734 0.0
C206 C 0.0959 0.33676 0.73243 0.0
O207 O 0.09394 0.34204 0.78482 0.0
O208 O 0.10073 0.34864 0.69402 0.0
C209 C 0.07232 0.35997 0.92745 0.0
O210 O 0.05609 0.3589 0.89443 0.0
C211 C 0.10293 0.37725 0.57166 0.0
C212 C 0.1178 0.4047 0.55143 0.0
C213 C 0.10789 0.38904 0.52676 0.0
N214 N 0.10965 0.38547 0.62094 0.0
N215 N 0.11867 0.40181 0.60852 0.0
C216 C 0.09052 0.35927 0.56837 0.0
H217 H 0.07992 0.35889 0.60518 0.0
H218 H 0.0817 0.35823 0.52761 0.0
H219 H 0.10085 0.34673 0.57082 0.0
C220 C 0.06868 0.40044 0.80986 0.0
N221 N 0.08206 0.38725 0.78996 0.0
N222 N 0.08514 0.39011 0.73491 0.0
C223 C 0.07305 0.40451 0.71744 0.0
C224 C 0.06236 0.4117 0.76443 0.0
C225 C 0.06416 0.40398 0.87216 0.0
H226 H 0.07694 0.39906 0.89937 0.0
H227 H 0.05018 0.3961 0.8836 0.0
H228 H 0.06148 0.41948 0.88104 0.0
O229 O 0.12597 0.37434 0.82816 0.0
O230 O 0.13306 0.38115 0.73781 0.0
H231 H 0.08405 0.42041 0.64649 0.0
H232 H 0.05674 0.41859 0.64907 0.0
C233 C 0.07119 0.41079 0.65646 0.0
H234 H 0.07165 0.39814 0.62695 0.0
H235 H 0.12511 0.41116 0.63917 0.0
O236 O 0.08956 0.36359 0.90614 0.0
C237 C 0.13847 0.37965 0.79027 0.0
Co238 Co 0.60601 0.62601 0.97277 0.0
Co239 Co 0.61395 0.61664 0.10225 0.0
C240 C 0.60334 0.6564 0.06589 0.0
O241 O 0.60193 0.65113 0.01324 0.0
O242 O 0.60797 0.64452 0.10477 0.0
C243 C 0.58198 0.6339 0.86975 0.0
O244 O 0.56621 0.63611 0.90349 0.0
C245 C 0.60884 0.61564 0.22764 0.0
C246 C 0.6222 0.58753 0.24882 0.0
C247 C 0.61259 0.60343 0.27266 0.0
N248 N 0.61595 0.60742 0.17904 0.0
N249 N 0.62408 0.59069 0.1921 0.0
C250 C 0.59716 0.63404 0.22999 0.0
H251 H 0.58683 0.63483 0.19224 0.0
H252 H 0.58812 0.6354 0.26994 0.0
H253 H 0.60803 0.64617 0.22859 0.0
C254 C 0.57697 0.59326 0.98447 0.0
N255 N 0.59061 0.606 0.00599 0.0
N256 N 0.59301 0.60309 0.06139 0.0
C257 C 0.58019 0.58912 0.07738 0.0
C258 C 0.56974 0.58227 0.02911 0.0
C259 C 0.57267 0.59008 0.9217 0.0
H260 H 0.58595 0.59431 0.89581 0.0
H261 H 0.55933 0.59877 0.90905 0.0
H262 H 0.56908 0.57477 0.91227 0.0
O263 O 0.63492 0.61923 0.97448 0.0
O264 O 0.64104 0.61217 0.06552 0.0
H265 H 0.58923 0.57313 0.15073 0.0
H266 H 0.56213 0.57621 0.14371 0.0
C267 C 0.57707 0.58328 0.13827 0.0
H268 H 0.57774 0.59606 0.16729 0.0
H269 H 0.63052 0.58122 0.16203 0.0
O270 O 0.59917 0.62953 0.89085 0.0
C271 C 0.64704 0.6139 0.01387 0.0
H272 H 0.57229 0.54723 0.07885 0.0
H273 H 0.54684 0.52173 0.07748 0.0
H274 H 0.5084 0.55561 0.9678 0.0
H275 H 0.53337 0.58165 0.97205 0.0
H276 H 0.48639 0.54035 0.04721 0.0
H277 H 0.5362 0.51617 0.91631 0.0
H278 H 0.57042 0.50696 0.88332 0.0
H279 H 0.57467 0.46536 0.01656 0.0
H280 H 0.54058 0.4745 0.05089 0.0
H281 H 0.42191 0.46286 0.95468 0.0
H282 H 0.44728 0.4887 0.95659 0.0
H283 H 0.47931 0.4607 0.09398 0.0
H284 H 0.45376 0.43495 0.09248 0.0
H285 H 0.50425 0.47271 -0.00019 0.0
H286 H 0.45335 0.49772 0.12883 0.0
H287 H 0.41856 0.50685 0.15677 0.0
H288 H 0.41587 0.54697 0.0192 0.0
H289 H 0.45056 0.53785 0.98987 0.0
C290 C 0.55832 0.54929 0.05491 0.0
C291 C 0.55474 0.56644 0.02581 0.0
C292 C 0.54389 0.53461 0.05352 0.0
C293 C 0.52578 0.53661 0.0219 0.0
C294 C 0.52226 0.55371 0.99239 0.0
C295 C 0.53661 0.56849 0.99436 0.0
C296 C 0.51034 0.52106 0.02076 0.0
C297 C 0.49027 0.52562 0.03599 0.0
C298 C 0.51542 0.50174 0.00714 0.0
C299 C 0.5359 0.49615 0.9865 0.0
C300 C 0.54449 0.50516 0.93885 0.0
C301 C 0.56386 0.49993 0.91987 0.0
C302 C 0.57473 0.48562 0.94792 0.0
C303 C 0.56624 0.47646 0.99492 0.0
C304 C 0.54689 0.48165 0.01413 0.0
C305 C 0.43433 0.46236 0.98543 0.0
C306 C 0.43592 0.44715 0.02379 0.0
C307 C 0.44875 0.47706 0.98654 0.0
C308 C 0.46508 0.47661 0.0256 0.0
C309 C 0.46678 0.46129 0.06362 0.0
C310 C 0.45219 0.44671 0.063 0.0
C311 C 0.48048 0.49207 0.02628 0.0
C312 C 0.50047 0.48747 0.01093 0.0
C313 C 0.47529 0.51137 0.039 0.0
C314 C 0.45448 0.51696 0.0568 0.0
C315 C 0.44528 0.50836 0.10422 0.0
C316 C 0.42559 0.51356 0.12037 0.0
C317 C 0.41499 0.52744 0.08969 0.0
C318 C 0.42409 0.5362 0.04288 0.0
C319 C 0.44377 0.53103 0.0265 0.0
H320 H 0.39975 0.53145 0.10226 0.0
H321 H 0.58972 0.48159 0.93315 0.0
H322 H 0.4345 0.05084 0.23993 0.0
H323 H 0.45935 0.02458 0.24179 0.0
H324 H 0.5082 0.06585 0.24706 0.0
H325 H 0.48327 0.09215 0.24543 0.0
H326 H 0.51421 0.03512 0.16748 0.0
H327 H 0.49664 0.04527 0.36566 0.0
H328 H 0.47322 0.04897 0.44736 0.0
H329 H 0.45035 0.99203 0.41535 0.0
H330 H 0.4734 0.9881 0.33279 0.0
H331 H 0.59279 0.96986 0.24097 0.0
H332 H 0.56925 0.99715 0.23971 0.0
H333 H 0.5187 0.95835 0.25792 0.0
H334 H 0.54234 0.93114 0.26031 0.0
H335 H 0.5141 0.98867 0.32644 0.0
H336 H 0.5306 0.97835 0.12777 0.0
H337 H 0.55335 0.97429 0.04468 0.0
H338 H 0.57737 0.03089 0.07523 0.0
H339 H 0.55497 0.03517 0.15912 0.0
C340 C 0.45056 0.05422 0.24126 0.0
C341 C 0.45712 0.07336 0.2425 0.0
C342 C 0.4647 0.03928 0.24251 0.0
C343 C 0.48559 0.04331 0.24487 0.0
C344 C 0.49215 0.06248 0.24521 0.0
C345 C 0.47798 0.07743 0.24449 0.0
C346 C 0.50053 0.02747 0.2476 0.0
C347 C 0.51442 0.0251 0.20259 0.0
C348 C 0.5004 0.0142 0.2928 0.0
C349 C 0.48662 0.01647 0.34268 0.0
C350 C 0.48649 0.0336 0.37572 0.0
C351 C 0.47331 0.03573 0.42225 0.0
C352 C 0.46027 0.02076 0.43646 0.0
C353 C 0.46043 0.00362 0.40425 0.0
C354 C 0.47357 0.00143 0.3576 0.0
C355 C 0.57663 0.96725 0.24441 0.0
C356 C 0.56924 0.94853 0.25029 0.0
C357 C 0.56321 0.98278 0.24359 0.0
C358 C 0.54217 0.97978 0.24793 0.0
C359 C 0.53485 0.96102 0.25444 0.0
C360 C 0.54829 0.94552 0.25565 0.0
C361 C 0.52778 0.99616 0.24605 0.0
C362 C 0.51397 0.99867 0.29129 0.0
C363 C 0.52789 0.00948 0.20082 0.0
C364 C 0.54125 0.00701 0.15008 0.0
C365 C 0.54084 0.98988 0.11704 0.0
C366 C 0.55366 0.98754 0.06976 0.0
C367 C 0.56683 0.0023 0.05477 0.0
C368 C 0.56718 0.01946 0.08694 0.0
C369 C 0.55441 0.02185 0.13434 0.0
H370 H 0.57675 0.00047 0.01815 0.0
H371 H 0.45007 0.02243 0.47251 0.0
H372 H 0.97871 0.90918 0.58017 0.0
H373 H 0.00479 0.93434 0.58539 0.0
H374 H 0.96423 0.97295 0.49772 0.0
H375 H 0.93859 0.94744 0.49053 0.0
H376 H 1.00019 0.97637 0.45571 0.0
H377 H 0.97373 0.97527 0.64731 0.0
H378 H 0.96422 0.9607 0.73903 0.0
H379 H 0.02632 0.94465 0.76884 0.0
H380 H 0.03616 0.95886 0.67683 0.0
H381 H 0.04947 0.06412 0.52837 0.0
H382 H 0.02477 0.03778 0.52729 0.0
H383 H 0.07178 0.99855 0.57955 0.0
H384 H 0.09668 0.02481 0.57902 0.0
H385 H 0.03376 0.99506 0.64018 0.0
H386 H 0.05965 0.99735 0.44749 0.0
H387 H 0.06847 0.01349 0.35768 0.0
H388 H 0.00595 0.02887 0.33211 0.0
H389 H 0.9968 0.01311 0.42239 0.0
C390 C 0.97551 0.92309 0.56215 0.0
C391 C 0.95682 0.92659 0.53517 0.0
C392 C 0.99029 0.93746 0.56537 0.0
C393 C 0.98638 0.95568 0.54274 0.0
C394 C 0.96762 0.95905 0.51553 0.0
C395 C 0.95297 0.94458 0.51161 0.0
C396 C 0.00188 0.97117 0.54672 0.0
C397 C 0.00731 0.98058 0.49624 0.0
C398 C 0.01153 0.97646 0.59938 0.0
C399 C 0.00565 0.96798 0.65488 0.0
C400 C 0.98534 0.96851 0.67321 0.0
C401 C 0.97989 0.96032 0.72528 0.0
C402 C 0.99466 0.95172 0.75968 0.0
C403 C 0.0149 0.9513 0.74211 0.0
C404 C 0.02042 0.95943 0.69002 0.0
C405 C 0.05448 0.04986 0.53964 0.0
C406 C 0.07489 0.04642 0.55389 0.0
C407 C 0.0404 0.03488 0.53914 0.0
C408 C 0.04651 0.01625 0.55315 0.0
C409 C 0.0668 0.01286 0.56887 0.0
C410 C 0.08095 0.02783 0.56873 0.0
C411 C 0.0318 1.00022 0.54943 0.0
C412 C 0.02658 0.99074 0.59982 0.0
C413 C 0.02216 0.99501 0.49689 0.0
C414 C 0.02757 0.0042 0.44202 0.0
C415 C 0.0478 0.0043 0.42297 0.0
C416 C 0.05286 0.01337 0.37194 0.0
C417 C 0.03779 0.02225 0.33928 0.0
C418 C 0.01761 0.02201 0.3575 0.0
C419 C 0.01248 0.013 0.40858 0.0
H420 H 0.04174 0.02927 0.29981 0.0
H421 H 0.99044 0.94544 0.80006 0.0
H422 H 0.06822 0.44666 0.71655 0.0
H423 H 0.04509 0.47406 0.71714 0.0
H424 H 0.00292 0.44259 0.82073 0.0
H425 H 0.0256 0.4147 0.81731 0.0
H426 H 0.98295 0.4604 0.74052 0.0
H427 H 0.03375 0.47893 0.878 0.0
H428 H 0.06839 0.48483 0.91522 0.0
H429 H 0.07777 0.52723 0.78667 0.0
H430 H 0.04327 0.52139 0.74812 0.0
H431 H 0.92602 0.54236 0.83712 0.0
H432 H 0.94914 0.51468 0.83513 0.0
H433 H 0.98288 0.54029 0.6981 0.0
H434 H 0.95945 0.56784 0.69935 0.0
H435 H 0.00682 0.52581 0.7957 0.0
H436 H 0.95467 0.50643 0.66007 0.0
H437 H 0.91931 0.50066 0.62875 0.0
H438 H 0.91187 0.45974 0.76256 0.0
H439 H 0.94711 0.46551 0.79532 0.0
C440 C 0.0539 0.44551 0.73884 0.0
C441 C 0.04861 0.42852 0.76653 0.0
C442 C 0.04081 0.46127 0.73982 0.0
C443 C 0.02235 0.46051 0.76963 0.0
C444 C 0.01709 0.44354 0.79754 0.0
C445 C 0.03011 0.42769 0.79601 0.0
C446 C 0.00844 0.47731 0.7708 0.0
C447 C 0.98815 0.47464 0.75338 0.0
C448 C 0.01523 0.49599 0.78668 0.0
C449 C 0.03598 0.49958 0.80982 0.0
C450 C 0.04325 0.48941 0.85738 0.0
C451 C 0.06285 0.49276 0.87876 0.0
C452 C 0.07529 0.50636 0.85324 0.0
C453 C 0.06813 0.51668 0.80635 0.0
C454 C 0.04854 0.51337 0.78474 0.0
C455 C 0.93835 0.54196 0.80651 0.0
C456 C 0.94102 0.557 0.76813 0.0
C457 C 0.95149 0.52623 0.80537 0.0
C458 C 0.96763 0.52548 0.76635 0.0
C459 C 0.97048 0.54066 0.72845 0.0
C460 C 0.95711 0.55627 0.72898 0.0
C461 C 0.98153 0.5088 0.76533 0.0
C462 C 0.00175 0.51153 0.78286 0.0
C463 C 0.97461 0.49015 0.75041 0.0
C464 C 0.95347 0.48656 0.73052 0.0
C465 C 0.94544 0.49634 0.68317 0.0
C466 C 0.92542 0.49304 0.66508 0.0
C467 C 0.91333 0.47988 0.69374 0.0
C468 C 0.92125 0.46995 0.74045 0.0
C469 C 0.94125 0.47322 0.75877 0.0
H470 H 0.89784 0.47734 0.67966 0.0
H471 H 0.09046 0.50894 0.86987 0.0
H472 H 0.35556 0.44532 0.2526 0.0
H473 H 0.3571 0.44656 0.35842 0.0
H474 H 0.36985 0.38585 0.35976 0.0
H475 H 0.36864 0.38456 0.25506 0.0
H476 H 0.34058 0.39854 0.4428 0.0
H477 H 0.40778 0.41535 0.36817 0.0
H478 H 0.43054 0.43582 0.31215 0.0
H479 H 0.41305 0.48501 0.41444 0.0
H480 H 0.38993 0.46483 0.4705 0.0
H481 H 0.39214 0.36697 0.68325 0.0
H482 H 0.38193 0.37613 0.58666 0.0
H483 H 0.38411 0.43591 0.63839 0.0
H484 H 0.39539 0.42683 0.73451 0.0
H485 H 0.40001 0.43088 0.5346 0.0
H486 H 0.33842 0.41361 0.62232 0.0
H487 H 0.31488 0.39415 0.67894 0.0
H488 H 0.31952 0.34798 0.55468 0.0
H489 H 0.34335 0.36703 0.49773 0.0
C490 C 0.35846 0.43225 0.27568 0.0
C491 C 0.36212 0.41488 0.24576 0.0
C492 C 0.35935 0.43298 0.3359 0.0
C493 C 0.3636 0.41629 0.36663 0.0
C494 C 0.36647 0.39886 0.33675 0.0
C495 C 0.36591 0.39818 0.27694 0.0
C496 C 0.36642 0.41678 0.4297 0.0
C497 C 0.35351 0.40564 0.46311 0.0
C498 C 0.38288 0.42663 0.4562 0.0
C499 C 0.39696 0.43865 0.42299 0.0
C500 C 0.40867 0.43055 0.37839 0.0
C501 C 0.42165 0.4421 0.34669 0.0
C502 C 0.42319 0.46172 0.3596 0.0
C503 C 0.41181 0.46982 0.40439 0.0
C504 C 0.39876 0.45834 0.43614 0.0
C505 C 0.39057 0.38208 0.67405 0.0
C506 C 0.39396 0.39615 0.71707 0.0
C507 C 0.38452 0.38729 0.61898 0.0
C508 C 0.38164 0.40669 0.60583 0.0
C509 C 0.38584 0.42084 0.64798 0.0
C510 C 0.392 0.41561 0.70317 0.0
C511 C 0.37463 0.41193 0.54753 0.0
C512 C 0.38673 0.42417 0.51498 0.0
C513 C 0.35722 0.40329 0.52197 0.0
C514 C 0.34277 0.39175 0.55584 0.0
C515 C 0.33453 0.39926 0.60722 0.0
C516 C 0.32112 0.38831 0.63937 0.0
C517 C 0.31572 0.36984 0.62044 0.0
C518 C 0.3237 0.3623 0.56927 0.0
C519 C 0.33714 0.37318 0.53699 0.0
H520 H 0.30533 0.36138 0.64538 0.0
H521 H 0.43325 0.47063 0.33501 0.0
H522 H 0.60803 0.86771 0.97717 0.0
H523 H 0.59561 0.86205 0.87934 0.0
H524 H 0.61469 0.91894 0.83368 0.0
H525 H 0.62637 0.92502 0.93262 0.0
H526 H 0.57764 0.90976 0.7866 0.0
H527 H 0.64408 0.88024 0.80358 0.0
H528 H 0.66934 0.8585 0.84627 0.0
H529 H 0.63071 0.8102 0.80807 0.0
H530 H 0.60509 0.83171 0.76578 0.0
H531 H 0.59909 0.90594 0.4923 0.0
H532 H 0.59695 0.90864 0.59641 0.0
H533 H 0.57796 0.84948 0.60387 0.0
H534 H 0.58042 0.84653 0.49896 0.0
H535 H 0.60921 0.85651 0.67409 0.0
H536 H 0.54525 0.88579 0.64193 0.0
H537 H 0.52048 0.90765 0.59766 0.0
H538 H 0.55408 0.95632 0.66269 0.0
H539 H 0.57923 0.93477 0.70666 0.0
C540 C 0.60904 0.87924 0.94691 0.0
C541 C 0.61776 0.89698 0.96288 0.0
C542 C 0.60218 0.87587 0.89074 0.0
C543 C 0.60429 0.89005 0.84928 0.0
C544 C 0.61282 0.90785 0.86519 0.0
C545 C 0.61962 0.91125 0.92149 0.0
C546 C 0.59859 0.88604 0.78859 0.0
C547 C 0.58458 0.89819 0.76177 0.0
C548 C 0.60715 0.87053 0.75697 0.0
C549 C 0.62258 0.8576 0.78216 0.0
C550 C 0.64091 0.865 0.8047 0.0
C551 C 0.6553 0.85272 0.82875 0.0
C552 C 0.65161 0.83298 0.83005 0.0
C553 C 0.63353 0.82549 0.80714 0.0
C554 C 0.61908 0.83771 0.7831 0.0
C555 C 0.59416 0.89354 0.51587 0.0
C556 C 0.59012 0.87595 0.48745 0.0
C557 C 0.59276 0.89517 0.57546 0.0
C558 C 0.58713 0.87931 0.60789 0.0
C559 C 0.58227 0.86191 0.57953 0.0
C560 C 0.58366 0.86026 0.51966 0.0
C561 C 0.58859 0.88051 0.6714 0.0
C562 C 0.60187 0.86785 0.69895 0.0
C563 C 0.57935 0.89556 0.70355 0.0
C564 C 0.5642 0.90863 0.67738 0.0
C565 C 0.54745 0.90115 0.64648 0.0
C566 C 0.53332 0.91349 0.62148 0.0
C567 C 0.53572 0.93336 0.6273 0.0
C568 C 0.55223 0.94092 0.65823 0.0
C569 C 0.56642 0.92865 0.68329 0.0
H570 H 0.52477 0.94289 0.6079 0.0
H571 H 0.66277 0.8235 0.84868 0.0
H572 H 0.11215 0.12705 0.8238 0.0
H573 H 0.09864 0.13159 0.92028 0.0
H574 H 0.12164 0.07599 0.96685 0.0
H575 H 0.13411 0.07084 0.86896 0.0
H576 H 0.08486 0.08195 0.01242 0.0
H577 H 0.14774 0.11797 -0.00088 0.0
H578 H 0.17043 0.14214 0.95768 0.0
H579 H 0.1264 0.18622 0.99307 0.0
H580 H 0.10336 0.16224 0.03417 0.0
H581 H 0.1077 0.08695 0.3063 0.0
H582 H 0.10531 0.08455 0.2021 0.0
H583 H 0.07891 0.14119 0.19731 0.0
H584 H 0.08159 0.14387 0.30238 0.0
H585 H 0.1106 0.13783 0.12665 0.0
H586 H 0.05067 0.10186 0.158 0.0
H587 H 0.02922 0.07735 0.20251 0.0
H588 H 0.06808 0.03283 0.13588 0.0
H589 H 0.08995 0.05707 0.09166 0.0
C590 C 0.11376 0.1155 0.8538 0.0
C591 C 0.12378 0.09837 0.83825 0.0
C592 C 0.1063 0.11826 0.90936 0.0
C593 C 0.10923 0.10418 0.95087 0.0
C594 C 0.11911 0.08701 0.93538 0.0
C595 C 0.12638 0.08416 0.87963 0.0
C596 C 0.10301 0.10765 0.01126 0.0
C597 C 0.09052 0.09412 0.03756 0.0
C598 C 0.10986 0.12388 0.04343 0.0
C599 C 0.12375 0.1383 0.01908 0.0
C600 C 0.14286 0.1328 0.9977 0.0
C601 C 0.15578 0.14646 0.97434 0.0
C602 C 0.14983 0.1657 0.97258 0.0
C603 C 0.13097 0.17131 0.99436 0.0
C604 C 0.11798 0.1577 0.01773 0.0
C605 C 0.10112 0.09883 0.2833 0.0
C606 C 0.09502 0.11569 0.31253 0.0
C607 C 0.09958 0.09735 0.22366 0.0
C608 C 0.09176 0.11262 0.19196 0.0
C609 C 0.08492 0.12922 0.22109 0.0
C610 C 0.08643 0.13071 0.28103 0.0
C611 C 0.0929 0.11185 0.12843 0.0
C612 C 0.10449 0.12588 0.10138 0.0
C613 C 0.08529 0.09603 0.09579 0.0
C614 C 0.07202 0.08133 0.12167 0.0
C615 C 0.05472 0.08685 0.15308 0.0
C616 C 0.04247 0.073 0.17825 0.0
C617 C 0.0473 0.05354 0.17208 0.0
C618 C 0.06435 0.0479 0.14059 0.0
C619 C 0.07666 0.0617 0.11537 0.0
H620 H 0.0378 0.04284 0.19162 0.0
H621 H 0.15986 0.17625 0.95447 0.0
H622 H 0.90896 0.58158 0.06118 0.0
H623 H 0.9011 0.57384 0.16064 0.0
H624 H 0.8999 0.6342 0.20536 0.0
H625 H 0.90718 0.64204 0.10573 0.0
H626 H 0.92111 0.61304 0.28331 0.0
H627 H 0.85639 0.61005 0.18338 0.0
H628 H 0.83301 0.59809 0.10748 0.0
H629 H 0.83985 0.54065 0.16825 0.0
H630 H 0.86355 0.55224 0.24397 0.0
H631 H 0.87168 0.62215 0.5428 0.0
H632 H 0.87842 0.6233 0.44017 0.0
H633 H 0.87403 0.56158 0.42721 0.0
H634 H 0.86664 0.56038 0.53063 0.0
H635 H 0.85765 0.57883 0.3327 0.0
H636 H 0.91961 0.58263 0.43986 0.0
H637 H 0.94316 0.59478 0.515 0.0
H638 H 0.94252 0.65046 0.43924 0.0
H639 H 0.91844 0.63884 0.3648 0.0
C640 C 0.90658 0.59321 0.09179 0.0
C641 C 0.90803 0.61244 0.0752 0.0
C642 C 0.90232 0.58875 0.14877 0.0
C643 C 0.8996 0.60347 0.19005 0.0
C644 C 0.90185 0.62264 0.17404 0.0
C645 C 0.90604 0.62709 0.11715 0.0
C646 C 0.89425 0.59907 0.25004 0.0
C647 C 0.90718 0.60568 0.29421 0.0
C648 C 0.87639 0.5889 0.26388 0.0
C649 C 0.86191 0.58198 0.21893 0.0
C650 C 0.85302 0.59485 0.18029 0.0
C651 C 0.8397 0.58814 0.13734 0.0
C652 C 0.83499 0.56862 0.13295 0.0
C653 C 0.84354 0.55577 0.17164 0.0
C654 C 0.85691 0.5624 0.21459 0.0
C655 C 0.87187 0.60882 0.51802 0.0
C656 C 0.86889 0.59114 0.5447 0.0
C657 C 0.87579 0.60949 0.4594 0.0
C658 C 0.87726 0.59249 0.42642 0.0
C659 C 0.87311 0.57485 0.45211 0.0
C660 C 0.86888 0.57418 0.51102 0.0
C661 C 0.88425 0.59334 0.36611 0.0
C662 C 0.8717 0.586 0.32189 0.0
C663 C 0.90253 0.60283 0.35207 0.0
C664 C 0.91708 0.60987 0.39688 0.0
C665 C 0.92432 0.59752 0.43953 0.0
C666 C 0.93775 0.60432 0.48208 0.0
C667 C 0.94427 0.6234 0.48204 0.0
C668 C 0.93739 0.6357 0.43939 0.0
C669 C 0.92383 0.62902 0.39705 0.0
H670 H 0.95469 0.62863 0.51496 0.0
H671 H 0.82468 0.56345 0.09965 0.0
H672 H 0.39412 0.14602 0.97084 0.0
H673 H 0.40198 0.15392 0.87153 0.0
H674 H 0.40551 0.09362 0.8271 0.0
H675 H 0.39757 0.08561 0.92705 0.0
H676 H 0.43862 0.11834 0.78396 0.0
H677 H 0.36531 0.11355 0.79054 0.0
H678 H 0.33151 0.12113 0.82993 0.0
H679 H 0.3408 0.1809 0.79718 0.0
H680 H 0.37481 0.17369 0.75832 0.0
H681 H 0.42831 0.11801 0.48158 0.0
H682 H 0.42842 0.11378 0.58506 0.0
H683 H 0.4095 0.17265 0.61045 0.0
H684 H 0.40866 0.1768 0.50629 0.0
H685 H 0.38581 0.15044 0.66675 0.0
H686 H 0.45753 0.15607 0.65346 0.0
H687 H 0.49188 0.14974 0.61609 0.0
H688 H 0.48705 0.09067 0.66323 0.0
H689 H 0.45254 0.09657 0.70019 0.0
C690 C 0.39691 0.13446 0.94014 0.0
C691 C 0.39558 0.11521 0.95649 0.0
C692 C 0.40126 0.13898 0.88347 0.0
C693 C 0.40439 0.12434 0.84234 0.0
C694 C 0.40325 0.10508 0.85857 0.0
C695 C 0.39862 0.10053 0.91527 0.0
C696 C 0.40806 0.12924 0.7819 0.0
C697 C 0.42707 0.12516 0.75786 0.0
C698 C 0.39316 0.13876 0.74906 0.0
C699 C 0.37268 0.1431 0.77213 0.0
C700 C 0.36022 0.12833 0.79223 0.0
C701 C 0.34101 0.13255 0.81435 0.0
C702 C 0.33404 0.1515 0.81622 0.0
C703 C 0.34624 0.16624 0.7958 0.0
C704 C 0.36547 0.16209 0.77368 0.0
C705 C 0.42453 0.1302 0.5091 0.0
C706 C 0.41826 0.14771 0.48568 0.0
C707 C 0.42473 0.12778 0.56845 0.0
C708 C 0.41906 0.14292 0.60567 0.0
C709 C 0.41388 0.16075 0.58251 0.0
C710 C 0.41346 0.16312 0.52301 0.0
C711 C 0.41647 0.13947 0.6679 0.0
C712 C 0.39756 0.14379 0.69255 0.0
C713 C 0.43159 0.13038 0.70138 0.0
C714 C 0.45236 0.12674 0.6792 0.0
C715 C 0.46372 0.14169 0.65545 0.0
C716 C 0.48324 0.13818 0.63442 0.0
C717 C 0.49162 0.1198 0.63717 0.0
C718 C 0.48053 0.1049 0.66109 0.0
C719 C 0.461 0.10832 0.68217 0.0
H720 H 0.50674 0.11712 0.62087 0.0
H721 H 0.31916 0.15474 0.83335 0.0
H722 H 0.91222 0.90832 0.24991 0.0
H723 H 0.90667 0.91836 0.15064 0.0
H724 H 0.92598 0.86256 0.08875 0.0
H725 H 0.93085 0.85223 0.18807 0.0
H726 H 0.94125 0.89493 0.02527 0.0
H727 H 0.87788 0.86967 0.10294 0.0
H728 H 0.85066 0.86976 0.17524 0.0
H729 H 0.83633 0.92822 0.13631 0.0
H730 H 0.86373 0.92856 0.06441 0.0
H731 H 0.90137 0.87065 0.76079 0.0
H732 H 0.90875 0.87293 0.86302 0.0
H733 H 0.87837 0.92773 0.87352 0.0
H734 H 0.87066 0.92551 0.76991 0.0
H735 H 0.86938 0.90409 0.96543 0.0
H736 H 0.92752 0.92814 0.87572 0.0
H737 H 0.95471 0.92948 0.80379 0.0
H738 H 0.97977 0.87688 0.86612 0.0
H739 H 0.95237 0.87492 0.93751 0.0
C740 C 0.91504 0.89814 0.21508 0.0
C741 C 0.92112 0.87924 0.22644 0.0
C742 C 0.91212 0.90397 0.15855 0.0
C743 C 0.91565 0.8911 0.11265 0.0
C744 C 0.9231 0.87266 0.12379 0.0
C745 C 0.92582 0.86676 0.18036 0.0
C746 C 0.9102 0.89622 0.05321 0.0
C747 C 0.92558 0.89692 0.012 0.0
C748 C 0.88979 0.89962 0.03674 0.0
C749 C 0.87299 0.89921 0.0788 0.0
C750 C 0.86901 0.88258 0.11007 0.0
C751 C 0.85355 0.88255 0.15096 0.0
C752 C 0.84181 0.899 0.1605 0.0
C753 C 0.84546 0.91549 0.12896 0.0
C754 C 0.86095 0.91562 0.08813 0.0
C755 C 0.89615 0.88321 0.78456 0.0
C756 C 0.88559 0.89801 0.75704 0.0
C757 C 0.90045 0.8845 0.84309 0.0
C758 C 0.89447 0.90067 0.87551 0.0
C759 C 0.88324 0.9152 0.84896 0.0
C760 C 0.87886 0.91391 0.78992 0.0
C761 C 0.90039 0.90206 0.93693 0.0
C762 C 0.88513 0.90258 0.97865 0.0
C763 C 0.92097 0.90013 0.95404 0.0
C764 C 0.93779 0.90134 0.91191 0.0
C765 C 0.93874 0.91678 0.87391 0.0
C766 C 0.9542 0.91765 0.8332 0.0
C767 C 0.96898 0.90329 0.83042 0.0
C768 C 0.96831 0.88801 0.86836 0.0
C769 C 0.95281 0.88701 0.909 0.0
H770 H 0.98096 0.90401 0.79889 0.0
H771 H 0.82986 0.89896 0.19222 0.0
H772 H 0.08912 0.41369 0.4546 0.0
H773 H 0.08024 0.40786 0.35276 0.0
H774 H 0.10815 0.35194 0.35922 0.0
H775 H 0.11651 0.35749 0.46125 0.0
H776 H 0.11894 0.38045 0.26128 0.0
H777 H 0.06423 0.34788 0.36112 0.0
H778 H 0.03634 0.34712 0.4312 0.0
H779 H 0.00576 0.39233 0.3424 0.0
H780 H 0.03369 0.39358 0.27234 0.0
H781 H 0.09543 0.33885 0.99823 0.0
H782 H 0.09816 0.34234 0.10272 0.0
H783 H 0.04998 0.38439 0.10182 0.0
H784 H 0.04648 0.38002 0.99709 0.0
H785 H 0.04853 0.36496 0.19797 0.0
H786 H 0.10009 0.39797 0.09722 0.0
H787 H 0.12751 0.40168 0.02663 0.0
H788 H 0.16381 0.36049 0.11596 0.0
H789 H 0.13646 0.35628 0.18658 0.0
C790 C 0.09334 0.4002 0.43402 0.0
C791 C 0.10332 0.38595 0.46531 0.0
C792 C 0.08823 0.39688 0.37625 0.0
C793 C 0.09347 0.37945 0.34903 0.0
C794 C 0.10394 0.36543 0.37986 0.0
C795 C 0.10864 0.36858 0.43786 0.0
C796 C 0.08817 0.37584 0.28812 0.0
C797 C 0.10362 0.37685 0.24731 0.0
C798 C 0.06803 0.37189 0.27024 0.0
C799 C 0.05116 0.37099 0.31195 0.0
C800 C 0.05167 0.3578 0.35691 0.0
C801 C 0.03583 0.35725 0.39655 0.0
C802 C 0.01932 0.36971 0.39137 0.0
C803 C 0.01858 0.38271 0.34642 0.0
C804 C 0.0344 0.38334 0.30673 0.0
C805 C 0.08504 0.3484 0.02071 0.0
C806 C 0.0708 0.35922 0.99017 0.0
C807 C 0.0867 0.35051 0.08021 0.0
C808 C 0.07473 0.36409 0.10981 0.0
C809 C 0.05947 0.37394 0.07977 0.0
C810 C 0.05744 0.37142 0.02014 0.0
C811 C 0.07943 0.36908 0.17073 0.0
C812 C 0.06388 0.36854 0.21162 0.0
C813 C 0.09946 0.37392 0.18865 0.0
C814 C 0.11615 0.37669 0.14694 0.0
C815 C 0.11388 0.38963 0.10166 0.0
C816 C 0.12941 0.39182 0.06163 0.0
C817 C 0.14737 0.3813 0.06673 0.0
C818 C 0.14988 0.36861 0.11202 0.0
C819 C 0.13437 0.36633 0.1521 0.0
H820 H 0.15937 0.38299 0.03564 0.0
H821 H 0.00707 0.36926 0.42209 0.0
H822 H 0.55116 0.6188 0.80431 0.0
H823 H 0.55078 0.61459 0.69897 0.0
H824 H 0.60728 0.64558 0.68919 0.0
H825 H 0.60814 0.64913 0.79417 0.0
H826 H 0.57176 0.65302 0.59872 0.0
H827 H 0.61629 0.60467 0.69037 0.0
H828 H 0.62118 0.57914 0.76111 0.0
H829 H 0.57134 0.54751 0.68597 0.0
H830 H 0.56598 0.57307 0.61539 0.0
H831 H 0.62269 0.63356 0.34233 0.0
H832 H 0.61267 0.63917 0.44224 0.0
H833 H 0.57903 0.58594 0.43808 0.0
H834 H 0.59016 0.57985 0.33886 0.0
H835 H 0.5963 0.58873 0.53481 0.0
H836 H 0.5556 0.632 0.43065 0.0
H837 H 0.5476 0.65701 0.36053 0.0
H838 H 0.5842 0.6975 0.45657 0.0
H839 H 0.59272 0.67265 0.5268 0.0
C840 C 0.56321 0.62507 0.77939 0.0
C841 C 0.5797 0.63426 0.80691 0.0
C842 C 0.56299 0.62265 0.71951 0.0
C843 C 0.57899 0.62983 0.68671 0.0
C844 C 0.59476 0.64007 0.71396 0.0
C845 C 0.59528 0.64202 0.77372 0.0
C846 C 0.58073 0.62485 0.62503 0.0
C847 C 0.57713 0.63902 0.58437 0.0
C848 C 0.58703 0.60637 0.60672 0.0
C849 C 0.59059 0.59084 0.64815 0.0
C850 C 0.60629 0.59234 0.68928 0.0
C851 C 0.60916 0.57786 0.72927 0.0
C852 C 0.59654 0.56173 0.72816 0.0
C853 C 0.58108 0.56002 0.68687 0.0
C854 C 0.57812 0.5745 0.64686 0.0
C855 C 0.6132 0.62308 0.36303 0.0
C856 C 0.60702 0.60638 0.3333 0.0
C857 C 0.60731 0.62635 0.41986 0.0
C858 C 0.59456 0.61326 0.44738 0.0
C859 C 0.58872 0.59633 0.41778 0.0
C860 C 0.59506 0.59284 0.36126 0.0
C861 C 0.58787 0.6171 0.50745 0.0
C862 C 0.59055 0.60269 0.54822 0.0
C863 C 0.5802 0.63527 0.52551 0.0
C864 C 0.5749 0.65039 0.48385 0.0
C865 C 0.56204 0.6462 0.43668 0.0
C866 C 0.55741 0.66036 0.3969 0.0
C867 C 0.56541 0.67882 0.40405 0.0
C868 C 0.57802 0.68319 0.45109 0.0
C869 C 0.58273 0.66907 0.49094 0.0
H870 H 0.56182 0.68976 0.37318 0.0
H871 H 0.59877 0.55054 0.75918 0.0
H872 H 0.17103 0.38781 0.7217 0.0
H873 H 0.20632 0.39315 0.75207 0.0
H874 H 0.18922 0.38608 0.92906 0.0
H875 H 0.15404 0.38092 0.89943 0.0
H876 H 0.21539 0.41594 0.91732 0.0
H877 H 0.21071 0.34963 0.85415 0.0
H878 H 0.20304 0.32326 0.7851 0.0
H879 H 0.24605 0.34602 0.66648 0.0
H880 H 0.25377 0.37269 0.73453 0.0
H881 H 0.31082 0.39535 0.04744 0.0
H882 H 0.27571 0.39556 0.01233 0.0
H883 H 0.29706 0.39764 0.83756 0.0
H884 H 0.33208 0.39686 0.87214 0.0
H885 H 0.26888 0.37184 0.84419 0.0
H886 H 0.27511 0.43726 0.90813 0.0
H887 H 0.28295 0.46382 0.97633 0.0
H888 H 0.2375 0.44349 0.09171 0.0
H889 H 0.22957 0.41664 0.02454 0.0
C890 C 0.17476 0.3875 0.7671 0.0
C891 C 0.15972 0.38379 0.80803 0.0
C892 C 0.19494 0.39051 0.78436 0.0
C893 C 0.20041 0.38982 0.84278 0.0
C894 C 0.18534 0.38666 0.88378 0.0
C895 C 0.16523 0.38362 0.86663 0.0
C896 C 0.22192 0.39176 0.86138 0.0
C897 C 0.22709 0.40622 0.90172 0.0
C898 C 0.23722 0.37934 0.83999 0.0
C899 C 0.23263 0.36328 0.79914 0.0
C900 C 0.2184 0.3491 0.81313 0.0
C901 C 0.21407 0.33408 0.77421 0.0
C902 C 0.224 0.333 0.72136 0.0
C903 C 0.23833 0.3469 0.70738 0.0
C904 C 0.2427 0.36197 0.74611 0.0
C905 C 0.30803 0.39602 0.00158 0.0
C906 C 0.32425 0.39601 0.96262 0.0
C907 C 0.28794 0.39623 0.98154 0.0
C908 C 0.28371 0.39679 0.92225 0.0
C909 C 0.29992 0.39716 0.88344 0.0
C910 C 0.31995 0.39674 0.90335 0.0
C911 C 0.26246 0.39604 0.90038 0.0
C912 C 0.25728 0.38172 0.85949 0.0
C913 C 0.2472 0.40866 0.92109 0.0
C914 C 0.25187 0.42484 0.9615 0.0
C915 C 0.26689 0.43837 0.94824 0.0
C916 C 0.27133 0.45349 0.98668 0.0
C917 C 0.26077 0.45532 0.03838 0.0
C918 C 0.24569 0.44205 0.05168 0.0
C919 C 0.2412 0.42689 0.0134 0.0
H920 H 0.26423 0.46704 0.06809 0.0
H921 H 0.22062 0.32135 0.69129 0.0
H922 H 0.59582 0.82661 0.29861 0.0
H923 H 0.59103 0.79285 0.27085 0.0
H924 H 0.61079 0.80483 0.09887 0.0
H925 H 0.61552 0.83854 0.12594 0.0
H926 H 0.57811 0.78053 0.09871 0.0
H927 H 0.64338 0.78603 0.19364 0.0
H928 H 0.6665 0.79504 0.2736 0.0
H929 H 0.63405 0.75797 0.38608 0.0
H930 H 0.61055 0.74895 0.30693 0.0
H931 H 0.60656 0.68761 0.99719 0.0
H932 H 0.60435 0.72145 0.02609 0.0
H933 H 0.59079 0.70526 0.19978 0.0
H934 H 0.59353 0.67146 0.1714 0.0
H935 H 0.61836 0.73173 0.20224 0.0
H936 H 0.55416 0.72455 0.10624 0.0
H937 H 0.53085 0.71563 0.02667 0.0
H938 H 0.56051 0.75561 0.91706 0.0
H939 H 0.58418 0.7646 0.99576 0.0
C940 C 0.599 0.82211 0.25475 0.0
C941 C 0.60617 0.83529 0.21462 0.0
C942 C 0.59629 0.8028 0.23901 0.0
C943 C 0.60076 0.79632 0.18296 0.0
C944 C 0.60725 0.80954 0.14233 0.0
C945 C 0.60999 0.82882 0.15801 0.0
C946 C 0.59957 0.77563 0.16712 0.0
C947 C 0.58701 0.76984 0.12099 0.0
C948 C 0.61086 0.76168 0.19707 0.0
C949 C 0.62508 0.76697 0.24454 0.0
C950 C 0.64109 0.77991 0.23554 0.0
C951 C 0.65427 0.785 0.28069 0.0
C952 C 0.65171 0.77713 0.33493 0.0
C953 C 0.636 0.76409 0.34407 0.0
C954 C 0.62275 0.75897 0.29908 0.0
C955 C 0.6029 0.69126 0.0414 0.0
C956 C 0.60037 0.67684 0.08214 0.0
C957 C 0.60155 0.71063 0.05785 0.0
C958 C 0.59722 0.71595 0.11508 0.0
C959 C 0.59423 0.70154 0.15545 0.0
C960 C 0.59583 0.6822 0.13919 0.0
C961 C 0.59686 0.73649 0.13358 0.0
C962 C 0.60924 0.74231 0.18018 0.0
C963 C 0.58534 0.75043 0.10413 0.0
C964 C 0.57106 0.74513 0.05679 0.0
C965 C 0.55581 0.73134 0.06505 0.0
C966 C 0.54251 0.72629 0.02012 0.0
C967 C 0.54423 0.73501 0.96681 0.0
C968 C 0.55921 0.74885 0.95836 0.0
C969 C 0.57255 0.75395 0.00314 0.0
H970 H 0.53392 0.73108 0.93207 0.0
H971 H 0.66194 0.78109 0.36984 0.0
H972 H 0.35321 0.12086 0.39944 0.0
H973 H 0.31952 0.11522 0.43867 0.0
H974 H 0.29729 0.09929 0.26949 0.0
H975 H 0.33095 0.10508 0.22956 0.0
H976 H 0.27242 0.12477 0.32361 0.0
H977 H 0.30538 0.06543 0.37049 0.0
H978 H 0.33241 0.04541 0.41217 0.0
H979 H 0.32034 0.06951 0.57982 0.0
H980 H 0.29341 0.08987 0.539 0.0
H981 H 0.17635 0.09224 0.40351 0.0
H982 H 0.21098 0.09268 0.3672 0.0
H983 H 0.23372 0.10466 0.53863 0.0
H984 H 0.19899 0.10359 0.57573 0.0
H985 H 0.25861 0.08083 0.48397 0.0
H986 H 0.22704 0.14073 0.43964 0.0
H987 H 0.2005 0.16184 0.40035 0.0
H988 H 0.21069 0.13829 0.23099 0.0
H989 H 0.23711 0.11684 0.26942 0.0
C990 C 0.34122 0.11605 0.37048 0.0
C991 C 0.34482 0.11345 0.31124 0.0
C992 C 0.32197 0.11274 0.39312 0.0
C993 C 0.30593 0.10667 0.35711 0.0
C994 C 0.30947 0.10394 0.29806 0.0
C995 C 0.32874 0.10722 0.27534 0.0
C996 C 0.28526 0.10399 0.38066 0.0
C997 C 0.26933 0.11492 0.35803 0.0
C998 C 0.2814 0.09163 0.42691 0.0
C999 C 0.29749 0.0793 0.45158 0.0
C1000 C 0.30859 0.06656 0.41617 0.0
C1001 C 0.32388 0.05513 0.43966 0.0
C1002 C 0.32812 0.05622 0.49858 0.0
C1003 C 0.31705 0.06869 0.53417 0.0
C1004 C 0.30175 0.08017 0.5109 0.0
C1005 C 0.18871 0.09482 0.43364 0.0
C1006 C 0.18491 0.0981 0.49243 0.0
C1007 C 0.20852 0.09514 0.41275 0.0
C1008 C 0.22493 0.09918 0.44992 0.0
C1009 C 0.22128 0.10163 0.50907 0.0
C1010 C 0.20144 0.10104 0.53021 0.0
C1011 C 0.24572 0.10151 0.42657 0.0
C1012 C 0.26168 0.0906 0.44937 0.0
C1013 C 0.2497 0.11407 0.38082 0.0
C1014 C 0.23392 0.12705 0.35751 0.0
C1015 C 0.22352 0.13996 0.39408 0.0
C1016 C 0.20852 0.152 0.37196 0.0
C1017 C 0.20388 0.15138 0.31324 0.0
C1018 C 0.21428 0.13874 0.27648 0.0
C1019 C 0.22929 0.12665 0.2984 0.0
H1020 H 0.19225 0.16071 0.29619 0.0
H1021 H 0.33996 0.04736 0.51668 0.0
H1022 H 0.87202 0.66941 0.68689 0.0
H1023 H 0.87856 0.70106 0.64839 0.0
H1024 H 0.93627 0.70306 0.73777 0.0
H1025 H 0.92904 0.67173 0.77956 0.0
H1026 H 0.92178 0.73619 0.74249 0.0
H1027 H 0.93123 0.69288 0.58831 0.0
H1028 H 0.92343 0.66549 0.52345 0.0
H1029 H 0.87146 0.69533 0.4575 0.0
H1030 H 0.87857 0.72272 0.5234 0.0
H1031 H 0.92641 0.80934 0.48696 0.0
H1032 H 0.93093 0.77632 0.52021 0.0
H1033 H 0.89239 0.78897 0.6654 0.0
H1034 H 0.8884 0.82173 0.63387 0.0
H1035 H 0.90703 0.74726 0.53622 0.0
H1036 H 0.90639 0.76728 0.78259 0.0
H1037 H 0.9189 0.79346 0.84636 0.0
H1038 H 0.96342 0.80845 0.721 0.0
H1039 H 0.95141 0.7822 0.65683 0.0
C1040 C 0.88605 0.67668 0.69861 0.0
C1041 C 0.90009 0.66814 0.73589 0.0
C1042 C 0.88989 0.69469 0.67611 0.0
C1043 C 0.90823 0.70426 0.68854 0.0
C1044 C 0.92208 0.69594 0.72709 0.0
C1045 C 0.91795 0.67807 0.751 0.0
C1046 C 0.91259 0.72305 0.6618 0.0
C1047 C 0.91869 0.73854 0.69732 0.0
C1048 C 0.90949 0.72605 0.60218 0.0
C1049 C 0.9054 0.70986 0.5611 0.0
C1050 C 0.91808 0.69359 0.56017 0.0
C1051 C 0.91378 0.67804 0.5232 0.0
C1052 C 0.897 0.67867 0.48619 0.0
C1053 C 0.88448 0.69487 0.48613 0.0
C1054 C 0.88863 0.71042 0.52335 0.0
C1055 C 0.91896 0.80502 0.52599 0.0
C1056 C 0.90726 0.81823 0.55812 0.0
C1057 C 0.92154 0.78617 0.54494 0.0
C1058 C 0.9124 0.78027 0.59611 0.0
C1059 C 0.90014 0.7933 0.62684 0.0
C1060 C 0.89778 0.81206 0.60847 0.0
C1061 C 0.9151 0.76047 0.6177 0.0
C1062 C 0.91042 0.7448 0.58117 0.0
C1063 C 0.9204 0.75714 0.67581 0.0
C1064 C 0.92789 0.77281 0.71471 0.0
C1065 C 0.91894 0.77607 0.76875 0.0
C1066 C 0.92592 0.79096 0.80495 0.0
C1067 C 0.94191 0.80264 0.78769 0.0
C1068 C 0.951 0.79943 0.73426 0.0
C1069 C 0.94409 0.78456 0.69793 0.0
H1070 H 0.94728 0.81417 0.81575 0.0
H1071 H 0.89369 0.6666 0.45762 0.0
H1072 H 0.84979 0.89082 0.38157 0.0
H1073 H 0.81481 0.89476 0.34914 0.0
H1074 H 0.79391 0.88714 0.5225 0.0
H1075 H 0.82902 0.88274 0.55512 0.0
H1076 H 0.77271 0.86504 0.44405 0.0
H1077 H 0.7931 0.93117 0.46401 0.0
H1078 H 0.81528 0.95904 0.44795 0.0
H1079 H 0.80513 0.95345 0.2658 0.0
H1080 H 0.78307 0.92539 0.28074 0.0
H1081 H 0.67073 0.89102 0.39943 0.0
H1082 H 0.70582 0.89105 0.43353 0.0
H1083 H 0.72669 0.90016 0.26087 0.0
H1084 H 0.69148 0.9004 0.2262 0.0
H1085 H 0.74797 0.92181 0.3387 0.0
H1086 H 0.72857 0.85607 0.3158 0.0
H1087 H 0.70705 0.82752 0.32817 0.0
H1088 H 0.71626 0.83128 0.51099 0.0
H1089 H 0.73761 0.86005 0.49979 0.0
C1090 C 0.83782 0.88987 0.4128 0.0
C1091 C 0.84224 0.8862 0.47077 0.0
C1092 C 0.81779 0.89235 0.39428 0.0
C1093 C 0.80175 0.89133 0.43344 0.0
C1094 C 0.80608 0.88797 0.49157 0.0
C1095 C 0.82616 0.88556 0.51016 0.0
C1096 C 0.78042 0.89303 0.41321 0.0
C1097 C 0.76719 0.87759 0.42191 0.0
C1098 C 0.77346 0.90912 0.38253 0.0
C1099 C 0.78656 0.92609 0.37348 0.0
C1100 C 0.7957 0.93581 0.4205 0.0
C1101 C 0.80823 0.95165 0.41161 0.0
C1102 C 0.81164 0.95799 0.35588 0.0
C1103 C 0.80248 0.94852 0.30894 0.0
C1104 C 0.78994 0.93267 0.31761 0.0
C1105 C 0.68273 0.89314 0.36858 0.0
C1106 C 0.67826 0.89555 0.30991 0.0
C1107 C 0.70281 0.8931 0.38821 0.0
C1108 C 0.71888 0.89531 0.34961 0.0
C1109 C 0.7145 0.89837 0.29135 0.0
C1110 C 0.69437 0.89845 0.27161 0.0
C1111 C 0.74021 0.89389 0.37005 0.0
C1112 C 0.75346 0.90931 0.36115 0.0
C1113 C 0.74728 0.87769 0.40006 0.0
C1114 C 0.73452 0.86034 0.40699 0.0
C1115 C 0.72588 0.85091 0.35869 0.0
C1116 C 0.71373 0.83467 0.36548 0.0
C1117 C 0.71024 0.82763 0.42035 0.0
C1118 C 0.71895 0.83677 0.46853 0.0
C1119 C 0.73108 0.85304 0.46198 0.0
H1120 H 0.70083 0.81505 0.42551 0.0
H1121 H 0.82135 0.97025 0.34909 0.0
H1122 H 0.12335 0.15688 0.66918 0.0
H1123 H 0.11626 0.19021 0.69534 0.0
H1124 H 0.09238 0.19976 0.52512 0.0
H1125 H 0.0997 0.16633 0.49806 0.0
H1126 H 0.11812 0.22803 0.55969 0.0
H1127 H 0.06054 0.19606 0.64028 0.0
H1128 H 0.04369 0.17156 0.69828 0.0
H1129 H 0.07423 0.19309 0.85003 0.0
H1130 H 0.09147 0.21757 0.7928 0.0
H1131 H 0.08424 0.32146 0.62847 0.0
H1132 H 0.08384 0.28762 0.59897 0.0
H1133 H 0.10313 0.27194 0.76946 0.0
H1134 H 0.10273 0.30576 0.79971 0.0
H1135 H 0.07741 0.24657 0.73074 0.0
H1136 H 0.13707 0.27606 0.65318 0.0
H1137 H 0.15584 0.30007 0.59802 0.0
H1138 H 0.12376 0.2827 0.44423 0.0
H1139 H 0.10461 0.25874 0.49867 0.0
C1140 C 0.11646 0.16598 0.63725 0.0
C1141 C 0.11204 0.15887 0.58149 0.0
C1142 C 0.11234 0.18505 0.65243 0.0
C1143 C 0.10352 0.19741 0.61245 0.0
C1144 C 0.09911 0.19042 0.55671 0.0
C1145 C 0.10327 0.17131 0.54137 0.0
C1146 C 0.09959 0.21778 0.62851 0.0
C1147 C 0.1089 0.23212 0.59644 0.0
C1148 C 0.08805 0.22306 0.67746 0.0
C1149 C 0.07739 0.20858 0.71215 0.0
C1150 C 0.06374 0.19551 0.68597 0.0
C1151 C 0.05411 0.18163 0.71871 0.0
C1152 C 0.05791 0.18075 0.77778 0.0
C1153 C 0.0713 0.19379 0.80427 0.0
C1154 C 0.08097 0.20769 0.77171 0.0
C1155 C 0.08828 0.31078 0.6597 0.0
C1156 C 0.09378 0.31625 0.71615 0.0
C1157 C 0.0881 0.29144 0.64279 0.0
C1158 C 0.09397 0.27723 0.68155 0.0
C1159 C 0.09863 0.28262 0.73866 0.0
C1160 C 0.09842 0.30196 0.75591 0.0
C1161 C 0.09606 0.25686 0.66213 0.0
C1162 C 0.08645 0.24252 0.69362 0.0
C1163 C 0.10757 0.25154 0.61307 0.0
C1164 C 0.11927 0.26575 0.5801 0.0
C1165 C 0.13394 0.27744 0.60766 0.0
C1166 C 0.14465 0.29103 0.57653 0.0
C1167 C 0.14095 0.29295 0.51769 0.0
C1168 C 0.12658 0.28122 0.48982 0.0
C1169 C 0.11581 0.26762 0.52078 0.0
H1170 H 0.14924 0.3035 0.49367 0.0
H1171 H 0.05047 0.16997 0.80304 0.0
H1172 H 0.6791 0.60574 0.08605 0.0
H1173 H 0.71479 0.60112 0.05952 0.0
H1174 H 0.69915 0.60905 0.88116 0.0
H1175 H 0.66369 0.61344 0.90687 0.0
H1176 H 0.72559 0.57962 0.89372 0.0
H1177 H 0.71901 0.64561 0.96345 0.0
H1178 H 0.71063 0.67062 0.03604 0.0
H1179 H 0.75404 0.64666 0.15315 0.0
H1180 H 0.76248 0.62136 0.08145 0.0
H1181 H 0.81616 0.60655 0.75754 0.0
H1182 H 0.78214 0.60401 0.79783 0.0
H1183 H 0.80788 0.60237 0.96889 0.0
H1184 H 0.84186 0.60571 0.929 0.0
H1185 H 0.77735 0.62531 0.97014 0.0
H1186 H 0.787 0.56147 0.8981 0.0
H1187 H 0.79566 0.53615 0.82684 0.0
H1188 H 0.7471 0.55471 0.71698 0.0
H1189 H 0.7383 0.58031 0.78722 0.0
C1190 C 0.68325 0.60637 0.04116 0.0
C1191 C 0.66853 0.6101 -0.00132 0.0
C1192 C 0.70365 0.60378 0.0261 0.0
C1193 C 0.70964 0.60491 0.96839 0.0
C1194 C 0.69488 0.60809 0.92592 0.0
C1195 C 0.67459 0.6107 0.94084 0.0
C1196 C 0.73131 0.60351 0.95169 0.0
C1197 C 0.73693 0.58964 0.91018 0.0
C1198 C 0.7462 0.61621 0.97449 0.0
C1199 C 0.7412 0.63148 0.01738 0.0
C1200 C 0.72665 0.6456 0.00485 0.0
C1201 C 0.72191 0.65983 0.04579 0.0
C1202 C 0.73175 0.66019 0.09924 0.0
C1203 C 0.7464 0.64634 0.11178 0.0
C1204 C 0.75117 0.63206 0.071 0.0
C1205 C 0.81458 0.60552 0.80369 0.0
C1206 C 0.83171 0.60634 0.84002 0.0
C1207 C 0.79512 0.60394 0.82672 0.0
C1208 C 0.79241 0.60268 0.88644 0.0
C1209 C 0.80954 0.60331 0.92272 0.0
C1210 C 0.82898 0.60519 0.8998 0.0
C1211 C 0.77166 0.60162 0.9111 0.0
C1212 C 0.76618 0.61503 0.95416 0.0
C1213 C 0.75694 0.58838 0.89002 0.0
C1214 C 0.76208 0.5729 0.8478 0.0
C1215 C 0.77824 0.56023 0.85859 0.0
C1216 C 0.78316 0.54581 0.81839 0.0
C1217 C 0.77196 0.54384 0.76737 0.0
C1218 C 0.75577 0.55625 0.75651 0.0
C1219 C 0.75079 0.5707 0.79654 0.0
H1220 H 0.7758 0.53268 0.73629 0.0
H1221 H 0.72806 0.67122 0.13088 0.0
H1222 H 0.39952 0.34295 0.14307 0.0
H1223 H 0.40456 0.30971 0.1715 0.0
H1224 H 0.40109 0.29111 0.99377 0.0
H1225 H 0.39629 0.32446 0.96469 0.0
H1226 H 0.37477 0.27132 0.06987 0.0
H1227 H 0.44496 0.28919 0.05545 0.0
H1228 H 0.47508 0.30936 0.07493 0.0
H1229 H 0.46986 0.29921 0.25569 0.0
H1230 H 0.43951 0.27919 0.23738 0.0
H1231 H 0.39692 0.17436 0.11327 0.0
H1232 H 0.39803 0.20718 0.0801 0.0
H1233 H 0.41328 0.22723 0.25174 0.0
H1234 H 0.41321 0.19409 0.28489 0.0
H1235 H 0.43439 0.24648 0.17689 0.0
H1236 H 0.36416 0.23055 0.19566 0.0
H1237 H 0.33309 0.21128 0.18089 0.0
H1238 H 0.33684 0.21901 0.99858 0.0
H1239 H 0.36811 0.23812 0.01222 0.0
C1240 C 0.40003 0.33182 0.1099 0.0
C1241 C 0.39744 0.33632 0.0516 0.0
C1242 C 0.40299 0.31285 0.12625 0.0
C1243 C 0.40325 0.298 0.08471 0.0
C1244 C 0.40098 0.30242 0.0264 0.0
C1245 C 0.39831 0.32146 0.00988 0.0
C1246 C 0.40467 0.27778 0.10274 0.0
C1247 C 0.38794 0.26575 0.09236 0.0
C1248 C 0.42156 0.27083 0.13395 0.0
C1249 C 0.43983 0.28283 0.14507 0.0
C1250 C 0.45012 0.2914 0.09941 0.0
C1251 C 0.46726 0.30278 0.11023 0.0
C1252 C 0.47435 0.30561 0.16652 0.0
C1253 C 0.46434 0.29702 0.21211 0.0
C1254 C 0.44717 0.28564 0.20153 0.0
C1255 C 0.40077 0.18565 0.144 0.0
C1256 C 0.40502 0.18151 0.2018 0.0
C1257 C 0.40121 0.2045 0.12499 0.0
C1258 C 0.40535 0.21975 0.1636 0.0
C1259 C 0.40999 0.2157 0.22116 0.0
C1260 C 0.40986 0.19675 0.24009 0.0
C1261 C 0.40447 0.2399 0.14386 0.0
C1262 C 0.42124 0.25197 0.15413 0.0
C1263 C 0.38745 0.24702 0.11328 0.0
C1264 C 0.36859 0.23561 0.10493 0.0
C1265 C 0.35844 0.22803 0.15239 0.0
C1266 C 0.34078 0.21715 0.14423 0.0
C1267 C 0.33302 0.21388 0.08882 0.0
C1268 C 0.34288 0.22153 0.04147 0.0
C1269 C 0.36056 0.2324 0.04939 0.0
H1270 H 0.31935 0.20546 0.08259 0.0
H1271 H 0.48762 0.31442 0.17481 0.0
loop_
_geom_bond_atom_site_label_1
_geom_bond_atom_site_label_2
_geom_bond_distance
_geom_bond_site_symmetry_2
_ccdc_geom_bond_type
Co0 O3 1.970 . S
Co0 N17 1.989 . S
Co0 O25 1.967 . S
Co0 O32 1.920 . S
Co1 O4 1.966 . S
Co1 N10 2.022 . S
Co1 N18 1.993 . S
Co1 O26 1.941 . S
C2 O3 1.258 . S
C2 O4 1.263 1_554 S
O3 Co0 1.970 . S
O3 C2 1.258 . S
O4 Co1 1.966 . S
O4 C2 1.263 1_556 S
C5 O6 1.235 . S
C5 O32 1.289 . S
O6 C5 1.235 . S
C7 C9 1.400 . S
C7 N10 1.351 . S
C7 C12 1.501 . S
C8 C9 1.387 . S
C8 N11 1.341 . S
C9 C7 1.400 . S
C9 C8 1.387 . S
N10 Co1 2.022 . S
N10 C7 1.351 . S
N10 N11 1.365 . S
N11 C8 1.341 . S
N11 N10 1.365 . S
N11 H31 0.862 . S
C12 C7 1.501 . S
C12 H13 0.961 . S
C12 H14 0.961 . S
C12 H15 0.960 . S
H13 C12 0.961 . S
H14 C12 0.961 . S
H15 C12 0.960 . S
C16 N17 1.342 . S
C16 C20 1.401 . S
C16 C21 1.499 . S
N17 Co0 1.989 . S
N17 C16 1.342 . S
N17 N18 1.388 1_554 S
N18 Co1 1.993 . S
N18 N17 1.388 1_556 S
N18 C19 1.346 . S
C19 N18 1.346 . S
C19 C20 1.396 1_556 S
C19 C29 1.510 . S
C20 C16 1.401 . S
C20 C19 1.396 1_554 S
C21 C16 1.499 . S
C21 H22 0.959 . S
C21 H23 0.960 . S
C21 H24 0.961 . S
H22 C21 0.959 . S
H23 C21 0.960 . S
H24 C21 0.961 . S
O25 Co0 1.967 . S
O25 C33 1.258 . S
O26 Co1 1.941 . S
O26 C33 1.266 1_556 S
H27 C29 0.959 . S
H28 C29 0.961 . S
C29 C19 1.510 . S
C29 H27 0.959 . S
C29 H28 0.961 . S
C29 H30 0.960 . S
H30 C29 0.960 . S
H31 N11 0.862 . S
O32 Co0 1.920 . S
O32 C5 1.289 . S
C33 O25 1.258 . S
C33 O26 1.266 1_554 S
Co34 O37 1.970 . S
Co34 N51 1.989 . S
Co34 O59 1.967 . S
Co34 O66 1.920 . S
Co35 O38 1.966 . S
Co35 N44 2.022 . S
Co35 N52 1.993 . S
Co35 O60 1.941 . S
C36 O37 1.258 . S
C36 O38 1.263 . S
O37 Co34 1.970 . S
O37 C36 1.258 . S
O38 Co35 1.966 . S
O38 C36 1.263 . S
C39 O40 1.235 . S
C39 O66 1.289 . S
O40 C39 1.235 . S
C41 C43 1.400 . S
C41 N44 1.351 . S
C41 C46 1.501 . S
C42 C43 1.387 . S
C42 N45 1.341 . S
C43 C41 1.400 . S
C43 C42 1.387 . S
N44 Co35 2.022 . S
N44 C41 1.351 . S
N44 N45 1.365 . S
N45 C42 1.341 . S
N45 N44 1.365 . S
N45 H65 0.862 . S
C46 C41 1.501 . S
C46 H47 0.961 . S
C46 H48 0.961 . S
C46 H49 0.960 . S
H47 C46 0.961 . S
H48 C46 0.961 . S
H49 C46 0.960 . S
C50 N51 1.342 . S
C50 C54 1.401 . S
C50 C55 1.499 . S
N51 Co34 1.989 . S
N51 C50 1.342 . S
N51 N52 1.388 . S
N52 Co35 1.993 . S
N52 N51 1.388 . S
N52 C53 1.346 . S
C53 N52 1.346 . S
C53 C54 1.396 . S
C53 C63 1.510 . S
C54 C50 1.401 . S
C54 C53 1.396 . S
C55 C50 1.499 . S
C55 H56 0.959 . S
C55 H57 0.960 . S
C55 H58 0.961 . S
H56 C55 0.959 . S
H57 C55 0.960 . S
H58 C55 0.961 . S
O59 Co34 1.967 . S
O59 C67 1.258 . S
O60 Co35 1.941 . S
O60 C67 1.266 . S
H61 C63 0.959 . S
H62 C63 0.961 . S
C63 C53 1.510 . S
C63 H61 0.959 . S
C63 H62 0.961 . S
C63 H64 0.960 . S
H64 C63 0.960 . S
H65 N45 0.862 . S
O66 Co34 1.920 . S
O66 C39 1.289 . S
C67 O59 1.258 . S
C67 O60 1.266 . S
Co68 O71 1.970 . S
Co68 N85 1.989 . S
Co68 O93 1.967 . S
Co68 O100 1.920 . S
Co69 O72 1.966 . S
Co69 N78 2.022 . S
Co69 N86 1.993 . S
Co69 O94 1.941 . S
C70 O71 1.258 . S
C70 O72 1.263 . S
O71 Co68 1.970 . S
O71 C70 1.258 . S
O72 Co69 1.966 . S
O72 C70 1.263 . S
C73 O74 1.235 . S
C73 O100 1.289 . S
O74 C73 1.235 . S
C75 C77 1.400 . S
C75 N78 1.351 . S
C75 C80 1.501 . S
C76 C77 1.387 . S
C76 N79 1.341 . S
C77 C75 1.400 . S
C77 C76 1.387 . S
N78 Co69 2.022 . S
N78 C75 1.351 . S
N78 N79 1.365 . S
N79 C76 1.341 . S
N79 N78 1.365 . S
N79 H99 0.862 . S
C80 C75 1.501 . S
C80 H81 0.961 . S
C80 H82 0.961 . S
C80 H83 0.960 . S
H81 C80 0.961 . S
H82 C80 0.961 . S
H83 C80 0.960 . S
C84 N85 1.342 . S
C84 C88 1.401 . S
C84 C89 1.499 . S
N85 Co68 1.989 . S
N85 C84 1.342 . S
N85 N86 1.388 . S
N86 Co69 1.993 . S
N86 N85 1.388 . S
N86 C87 1.346 . S
C87 N86 1.346 . S
C87 C88 1.396 . S
C87 C97 1.510 . S
C88 C84 1.401 . S
C88 C87 1.396 . S
C89 C84 1.499 . S
C89 H90 0.959 . S
C89 H91 0.960 . S
C89 H92 0.961 . S
H90 C89 0.959 . S
H91 C89 0.960 . S
H92 C89 0.961 . S
O93 Co68 1.967 . S
O93 C101 1.258 . S
O94 Co69 1.941 . S
O94 C101 1.266 . S
H95 C97 0.959 . S
H96 C97 0.961 . S
C97 C87 1.510 . S
C97 H95 0.959 . S
C97 H96 0.961 . S
C97 H98 0.960 . S
H98 C97 0.960 . S
H99 N79 0.862 . S
O100 Co68 1.920 . S
O100 C73 1.289 . S
C101 O93 1.258 . S
C101 O94 1.266 . S
Co102 O105 1.970 . S
Co102 N119 1.989 . S
Co102 O127 1.967 . S
Co102 O134 1.920 . S
Co103 O106 1.966 . S
Co103 N112 2.022 . S
Co103 N120 1.993 . S
Co103 O128 1.941 . S
C104 O105 1.258 . S
C104 O106 1.263 . S
O105 Co102 1.970 . S
O105 C104 1.258 . S
O106 Co103 1.966 . S
O106 C104 1.263 . S
C107 O108 1.235 . S
C107 O134 1.289 . S
O108 C107 1.235 . S
C109 C111 1.400 1_556 S
C109 N112 1.351 . S
C109 C114 1.501 . S
C110 C111 1.387 . S
C110 N113 1.341 1_554 S
C111 C109 1.400 1_554 S
C111 C110 1.387 . S
N112 Co103 2.022 . S
N112 C109 1.351 . S
N112 N113 1.365 . S
N113 C110 1.341 1_556 S
N113 N112 1.365 . S
N113 H133 0.862 . S
C114 C109 1.501 . S
C114 H115 0.961 . S
C114 H116 0.961 . S
C114 H117 0.960 1_556 S
H115 C114 0.961 . S
H116 C114 0.961 . S
H117 C114 0.960 1_554 S
C118 N119 1.342 . S
C118 C122 1.401 . S
C118 C123 1.499 . S
N119 Co102 1.989 . S
N119 C118 1.342 . S
N119 N120 1.388 . S
N120 Co103 1.993 . S
N120 N119 1.388 . S
N120 C121 1.346 . S
C121 N120 1.346 . S
C121 C122 1.396 . S
C121 C131 1.510 . S
C122 C118 1.401 . S
C122 C121 1.396 . S
C123 C118 1.499 . S
C123 H124 0.959 . S
C123 H125 0.960 . S
C123 H126 0.961 . S
H124 C123 0.959 . S
H125 C123 0.960 . S
H126 C123 0.961 . S
O127 Co102 1.967 . S
O127 C135 1.258 . S
O128 Co103 1.941 . S
O128 C135 1.266 . S
H129 C131 0.959 . S
H130 C131 0.961 . S
C131 C121 1.510 . S
C131 H129 0.959 . S
C131 H130 0.961 . S
C131 H132 0.960 . S
H132 C131 0.960 . S
H133 N113 0.862 . S
O134 Co102 1.920 . S
O134 C107 1.289 . S
C135 O127 1.258 . S
C135 O128 1.266 . S
Co136 O139 1.970 . S
Co136 N153 1.989 . S
Co136 O161 1.967 . S
Co136 O168 1.920 . S
Co137 O140 1.966 . S
Co137 N146 2.022 . S
Co137 N154 1.993 . S
Co137 O162 1.941 . S
C138 O139 1.258 . S
C138 O140 1.263 . S
O139 Co136 1.970 . S
O139 C138 1.258 . S
O140 Co137 1.966 . S
O140 C138 1.263 . S
C141 O142 1.235 . S
C141 O168 1.289 . S
O142 C141 1.235 . S
C143 C145 1.400 . S
C143 N146 1.351 . S
C143 C148 1.501 . S
C144 C145 1.387 . S
C144 N147 1.341 . S
C145 C143 1.400 . S
C145 C144 1.387 . S
N146 Co137 2.022 . S
N146 C143 1.351 . S
N146 N147 1.365 . S
N147 C144 1.341 . S
N147 N146 1.365 . S
N147 H167 0.862 . S
C148 C143 1.501 . S
C148 H149 0.961 . S
C148 H150 0.961 . S
C148 H151 0.960 . S
H149 C148 0.961 . S
H150 C148 0.961 . S
H151 C148 0.960 . S
C152 N153 1.342 . S
C152 C156 1.401 . S
C152 C157 1.499 . S
N153 Co136 1.989 . S
N153 C152 1.342 . S
N153 N154 1.388 . S
N154 Co137 1.993 . S
N154 N153 1.388 . S
N154 C155 1.346 . S
C155 N154 1.346 . S
C155 C156 1.396 . S
C155 C165 1.510 . S
C156 C152 1.401 . S
C156 C155 1.396 . S
C157 C152 1.499 . S
C157 H158 0.959 . S
C157 H159 0.960 . S
C157 H160 0.961 . S
H158 C157 0.959 . S
H159 C157 0.960 . S
H160 C157 0.961 . S
O161 Co136 1.967 . S
O161 C169 1.258 . S
O162 Co137 1.941 . S
O162 C169 1.266 . S
H163 C165 0.959 . S
H164 C165 0.961 . S
C165 C155 1.510 . S
C165 H163 0.959 . S
C165 H164 0.961 . S
C165 H166 0.960 . S
H166 C165 0.960 . S
H167 N147 0.862 . S
O168 Co136 1.920 . S
O168 C141 1.289 . S
C169 O161 1.258 . S
C169 O162 1.266 . S
Co170 O173 1.970 . S
Co170 N187 1.989 . S
Co170 O195 1.967 . S
Co170 O202 1.920 . S
Co171 O174 1.966 . S
Co171 N180 2.022 . S
Co171 N188 1.993 . S
Co171 O196 1.941 . S
C172 O173 1.258 . S
C172 O174 1.263 . S
O173 Co170 1.970 . S
O173 C172 1.258 . S
O174 Co171 1.966 . S
O174 C172 1.263 . S
C175 O176 1.235 . S
C175 O202 1.289 . S
O176 C175 1.235 . S
C177 C179 1.400 . S
C177 N180 1.351 . S
C177 C182 1.501 . S
C178 C179 1.387 . S
C178 N181 1.341 . S
C179 C177 1.400 . S
C179 C178 1.387 . S
N180 Co171 2.022 . S
N180 C177 1.351 . S
N180 N181 1.365 . S
N181 C178 1.341 . S
N181 N180 1.365 . S
N181 H201 0.862 . S
C182 C177 1.501 . S
C182 H183 0.961 . S
C182 H184 0.961 . S
C182 H185 0.960 . S
H183 C182 0.961 . S
H184 C182 0.961 . S
H185 C182 0.960 . S
C186 N187 1.342 . S
C186 C190 1.401 . S
C186 C191 1.499 . S
N187 Co170 1.989 . S
N187 C186 1.342 . S
N187 N188 1.388 . S
N188 Co171 1.993 . S
N188 N187 1.388 . S
N188 C189 1.346 . S
C189 N188 1.346 . S
C189 C190 1.396 . S
C189 C199 1.510 . S
C190 C186 1.401 . S
C190 C189 1.396 . S
C191 C186 1.499 . S
C191 H192 0.959 . S
C191 H193 0.960 . S
C191 H194 0.961 . S
H192 C191 0.959 . S
H193 C191 0.960 . S
H194 C191 0.961 . S
O195 Co170 1.967 . S
O195 C203 1.258 . S
O196 Co171 1.941 . S
O196 C203 1.266 . S
H197 C199 0.959 . S
H198 C199 0.961 . S
C199 C189 1.510 . S
C199 H197 0.959 . S
C199 H198 0.961 . S
C199 H200 0.960 . S
H200 C199 0.960 . S
H201 N181 0.862 . S
O202 Co170 1.920 . S
O202 C175 1.289 . S
C203 O195 1.258 . S
C203 O196 1.266 . S
Co204 O207 1.970 . S
Co204 N221 1.989 . S
Co204 O229 1.967 . S
Co204 O236 1.920 . S
Co205 O208 1.966 . S
Co205 N214 2.022 . S
Co205 N222 1.993 . S
Co205 O230 1.941 . S
C206 O207 1.258 . S
C206 O208 1.263 . S
O207 Co204 1.970 . S
O207 C206 1.258 . S
O208 Co205 1.966 . S
O208 C206 1.263 . S
C209 O210 1.235 . S
C209 O236 1.289 . S
O210 C209 1.235 . S
C211 C213 1.400 . S
C211 N214 1.351 . S
C211 C216 1.501 . S
C212 C213 1.387 . S
C212 N215 1.341 . S
C213 C211 1.400 . S
C213 C212 1.387 . S
N214 Co205 2.022 . S
N214 C211 1.351 . S
N214 N215 1.365 . S
N215 C212 1.341 . S
N215 N214 1.365 . S
N215 H235 0.862 . S
C216 C211 1.501 . S
C216 H217 0.961 . S
C216 H218 0.961 . S
C216 H219 0.960 . S
H217 C216 0.961 . S
H218 C216 0.961 . S
H219 C216 0.960 . S
C220 N221 1.342 . S
C220 C224 1.401 . S
C220 C225 1.499 . S
N221 Co204 1.989 . S
N221 C220 1.342 . S
N221 N222 1.388 . S
N222 Co205 1.993 . S
N222 N221 1.388 . S
N222 C223 1.346 . S
C223 N222 1.346 . S
C223 C224 1.396 . S
C223 C233 1.510 . S
C224 C220 1.401 . S
C224 C223 1.396 . S
C225 C220 1.499 . S
C225 H226 0.959 . S
C225 H227 0.960 . S
C225 H228 0.961 . S
H226 C225 0.959 . S
H227 C225 0.960 . S
H228 C225 0.961 . S
O229 Co204 1.967 . S
O229 C237 1.258 . S
O230 Co205 1.941 . S
O230 C237 1.266 . S
H231 C233 0.959 . S
H232 C233 0.961 . S
C233 C223 1.510 . S
C233 H231 0.959 . S
C233 H232 0.961 . S
C233 H234 0.960 . S
H234 C233 0.960 . S
H235 N215 0.862 . S
O236 Co204 1.920 . S
O236 C209 1.289 . S
C237 O229 1.258 . S
C237 O230 1.266 . S
Co238 O241 1.970 1_556 S
Co238 N255 1.989 1_556 S
Co238 O263 1.967 . S
Co238 O270 1.920 . S
Co239 O242 1.966 . S
Co239 N248 2.022 . S
Co239 N256 1.993 . S
Co239 O264 1.941 . S
C240 O241 1.258 . S
C240 O242 1.263 . S
O241 Co238 1.970 1_554 S
O241 C240 1.258 . S
O242 Co239 1.966 . S
O242 C240 1.263 . S
C243 O244 1.235 . S
C243 O270 1.289 . S
O244 C243 1.235 . S
C245 C247 1.400 . S
C245 N248 1.351 . S
C245 C250 1.501 . S
C246 C247 1.387 . S
C246 N249 1.341 . S
C247 C245 1.400 . S
C247 C246 1.387 . S
N248 Co239 2.022 . S
N248 C245 1.351 . S
N248 N249 1.365 . S
N249 C246 1.341 . S
N249 N248 1.365 . S
N249 H269 0.862 . S
C250 C245 1.501 . S
C250 H251 0.961 . S
C250 H252 0.961 . S
C250 H253 0.960 . S
H251 C250 0.961 . S
H252 C250 0.961 . S
H253 C250 0.960 . S
C254 N255 1.342 1_556 S
C254 C258 1.401 1_556 S
C254 C259 1.499 . S
N255 Co238 1.989 1_554 S
N255 C254 1.342 1_554 S
N255 N256 1.388 . S
N256 Co239 1.993 . S
N256 N255 1.388 . S
N256 C257 1.346 . S
C257 N256 1.346 . S
C257 C258 1.396 . S
C257 C267 1.510 . S
C258 C254 1.401 1_554 S
C258 C257 1.396 . S
C259 C254 1.499 . S
C259 H260 0.959 . S
C259 H261 0.960 . S
C259 H262 0.961 . S
H260 C259 0.959 . S
H261 C259 0.960 . S
H262 C259 0.961 . S
O263 Co238 1.967 . S
O263 C271 1.258 1_556 S
O264 Co239 1.941 . S
O264 C271 1.266 . S
H265 C267 0.959 . S
H266 C267 0.961 . S
C267 C257 1.510 . S
C267 H265 0.959 . S
C267 H266 0.961 . S
C267 H268 0.960 . S
H268 C267 0.960 . S
H269 N249 0.862 . S
O270 Co238 1.920 . S
O270 C243 1.289 . S
C271 O263 1.258 1_554 S
C271 O264 1.266 . S
H272 C290 0.951 . S
H273 C292 0.951 . S
H274 C294 0.950 . S
H275 C295 0.950 . S
H276 C297 0.950 . S
H277 C300 0.950 . S
H278 C301 0.950 . S
H279 C303 0.950 . S
H280 C304 0.950 . S
H281 C305 0.951 . S
H282 C307 0.951 . S
H283 C309 0.950 . S
H284 C310 0.950 . S
H285 C312 0.950 . S
H286 C315 0.950 . S
H287 C316 0.950 . S
H288 C318 0.950 1_556 S
H289 C319 0.950 1_556 S
C290 H272 0.951 . S
C290 C291 1.366 . S
C290 C292 1.388 . S
C291 C290 1.366 . S
C291 C295 1.385 1_554 S
C292 H273 0.951 . S
C292 C290 1.388 . S
C292 C293 1.366 . S
C293 C292 1.366 . S
C293 C294 1.414 1_554 S
C293 C296 1.499 . S
C294 H274 0.950 . S
C294 C293 1.414 1_556 S
C294 C295 1.374 . S
C295 H275 0.950 . S
C295 C291 1.385 1_556 S
C295 C294 1.374 . S
C296 C293 1.499 . S
C296 C297 1.373 . S
C296 C298 1.389 . S
C297 H276 0.950 . S
C297 C296 1.373 . S
C297 C313 1.377 . S
C298 C296 1.389 . S
C298 C299 1.524 . S
C298 C312 1.377 . S
C299 C298 1.524 . S
C299 C300 1.397 1_554 S
C299 C304 1.363 . S
C300 H277 0.950 . S
C300 C299 1.397 1_556 S
C300 C301 1.334 . S
C301 H278 0.950 . S
C301 C300 1.334 . S
C301 C302 1.287 1_556 S
C302 C301 1.287 1_554 S
C302 C303 1.524 . S
C302 H321 0.912 1_554 S
C303 H279 0.950 . S
C303 C302 1.524 . S
C303 C304 1.415 . S
C304 H280 0.950 . S
C304 C299 1.363 . S
C304 C303 1.415 . S
C305 H281 0.951 . S
C305 C306 1.366 1_556 S
C305 C307 1.388 . S
C306 C305 1.366 1_554 S
C306 C310 1.385 . S
C307 H282 0.951 . S
C307 C305 1.388 . S
C307 C308 1.366 1_556 S
C308 C307 1.366 1_554 S
C308 C309 1.414 . S
C308 C311 1.499 . S
C309 H283 0.950 . S
C309 C308 1.414 . S
C309 C310 1.374 . S
C310 H284 0.950 . S
C310 C306 1.385 . S
C310 C309 1.374 . S
C311 C308 1.499 . S
C311 C312 1.373 . S
C311 C313 1.389 . S
C312 H285 0.950 . S
C312 C298 1.377 . S
C312 C311 1.373 . S
C313 C297 1.377 . S
C313 C311 1.389 . S
C313 C314 1.524 . S
C314 C313 1.524 . S
C314 C315 1.397 . S
C314 C319 1.363 . S
C315 H286 0.950 . S
C315 C314 1.397 . S
C315 C316 1.334 . S
C316 H287 0.950 . S
C316 C315 1.334 . S
C316 C317 1.287 . S
C317 C316 1.287 . S
C317 C318 1.524 . S
C317 H320 0.999 . S
C318 H288 0.950 1_554 S
C318 C317 1.524 . S
C318 C319 1.415 . S
C319 H289 0.950 1_554 S
C319 C314 1.363 . S
C319 C318 1.415 . S
H320 C317 0.999 . S
H321 C302 0.912 1_556 S
H322 C340 0.951 . S
H323 C342 0.951 . S
H324 C344 0.950 . S
H325 C345 0.950 . S
H326 C347 0.950 . S
H327 C350 0.950 . S
H328 C351 0.950 . S
H329 C353 0.983 . S
H330 C354 0.950 . S
H331 C355 0.951 . S
H332 C357 0.951 . S
H333 C359 0.950 . S
H334 C360 0.950 . S
H335 C362 0.950 . S
H336 C365 0.950 . S
H337 C366 0.950 . S
H338 C368 0.950 . S
H339 C369 0.950 . S
C340 H322 0.951 . S
C340 C341 1.366 . S
C340 C342 1.388 . S
C341 C340 1.366 . S
C341 C345 1.385 . S
C342 H323 0.951 . S
C342 C340 1.388 . S
C342 C343 1.366 . S
C343 C342 1.366 . S
C343 C344 1.414 . S
C343 C346 1.499 . S
C344 H324 0.950 . S
C344 C343 1.414 . S
C344 C345 1.374 . S
C345 H325 0.950 . S
C345 C341 1.385 . S
C345 C344 1.374 . S
C346 C343 1.499 . S
C346 C347 1.373 . S
C346 C348 1.389 . S
C347 H326 0.950 . S
C347 C346 1.373 . S
C347 C363 1.377 . S
C348 C346 1.389 . S
C348 C349 1.524 . S
C348 C362 1.377 1_545 S
C349 C348 1.524 . S
C349 C350 1.397 . S
C349 C354 1.363 1_545 S
C350 H327 0.950 . S
C350 C349 1.397 . S
C350 C351 1.334 . S
C351 H328 0.950 . S
C351 C350 1.334 . S
C351 C352 1.287 . S
C352 C351 1.287 . S
C352 C353 1.485 1_545 S
C352 H371 0.913 . S
C353 H329 0.983 . S
C353 C352 1.485 1_565 S
C353 C354 1.418 . S
C354 H330 0.950 . S
C354 C349 1.363 1_565 S
C354 C353 1.418 . S
C355 H331 0.951 . S
C355 C356 1.366 . S
C355 C357 1.388 . S
C356 C355 1.366 . S
C356 C360 1.385 . S
C357 H332 0.951 . S
C357 C355 1.388 . S
C357 C358 1.366 . S
C358 C357 1.366 . S
C358 C359 1.414 . S
C358 C361 1.499 . S
C359 H333 0.950 . S
C359 C358 1.414 . S
C359 C360 1.374 . S
C360 H334 0.950 . S
C360 C356 1.385 . S
C360 C359 1.374 . S
C361 C358 1.499 . S
C361 C362 1.373 . S
C361 C363 1.389 1_565 S
C362 H335 0.950 . S
C362 C348 1.377 1_565 S
C362 C361 1.373 . S
C363 C347 1.377 . S
C363 C361 1.389 1_545 S
C363 C364 1.524 . S
C364 C363 1.524 . S
C364 C365 1.397 1_545 S
C364 C369 1.363 . S
C365 H336 0.950 . S
C365 C364 1.397 1_565 S
C365 C366 1.334 . S
C366 H337 0.950 . S
C366 C365 1.334 . S
C366 C367 1.327 . S
C367 C366 1.327 . S
C367 C368 1.479 1_565 S
C367 H370 1.004 . S
C368 H338 0.950 . S
C368 C367 1.479 1_545 S
C368 C369 1.415 . S
C369 H339 0.950 . S
C369 C364 1.363 . S
C369 C368 1.415 . S
H370 C367 1.004 . S
H371 C352 0.913 . S
H372 C390 0.951 . S
H373 C392 0.951 1_455 S
H374 C394 0.950 . S
H375 C395 0.950 . S
H376 C397 0.950 . S
H377 C400 0.950 . S
H378 C401 0.950 . S
H379 C403 0.950 . S
H380 C404 0.950 . S
H381 C405 0.951 . S
H382 C407 0.951 . S
H383 C409 0.950 1_565 S
H384 C410 0.950 . S
H385 C412 0.950 . S
H386 C415 0.950 . S
H387 C416 0.950 . S
H388 C418 0.950 . S
H389 C419 0.948 1_545 S
C390 H372 0.951 . S
C390 C391 1.366 . S
C390 C392 1.388 . S
C391 C390 1.366 . S
C391 C395 1.385 . S
C392 H373 0.951 1_655 S
C392 C390 1.388 . S
C392 C393 1.366 . S
C393 C392 1.366 . S
C393 C394 1.414 . S
C393 C396 1.499 1_655 S
C394 H374 0.950 . S
C394 C393 1.414 . S
C394 C395 1.374 . S
C395 H375 0.950 . S
C395 C391 1.385 . S
C395 C394 1.374 . S
C396 C393 1.499 1_455 S
C396 C397 1.373 . S
C396 C398 1.389 . S
C397 H376 0.950 . S
C397 C396 1.373 . S
C397 C413 1.377 . S
C398 C396 1.389 . S
C398 C399 1.524 . S
C398 C412 1.377 . S
C399 C398 1.524 . S
C399 C400 1.397 1_455 S
C399 C404 1.363 . S
C400 H377 0.950 . S
C400 C399 1.397 1_655 S
C400 C401 1.334 . S
C401 H378 0.950 . S
C401 C400 1.334 . S
C401 C402 1.287 . S
C402 C401 1.287 . S
C402 C403 1.524 1_655 S
C402 H421 0.913 . S
C403 H379 0.950 . S
C403 C402 1.524 1_455 S
C403 C404 1.415 . S
C404 H380 0.950 . S
C404 C399 1.363 . S
C404 C403 1.415 . S
C405 H381 0.951 . S
C405 C406 1.366 . S
C405 C407 1.388 . S
C406 C405 1.366 . S
C406 C410 1.385 . S
C407 H382 0.951 . S
C407 C405 1.388 . S
C407 C408 1.366 . S
C408 C407 1.366 . S
C408 C409 1.414 . S
C408 C411 1.499 1_545 S
C409 H383 0.950 1_545 S
C409 C408 1.414 . S
C409 C410 1.374 . S
C410 H384 0.950 . S
C410 C406 1.385 . S
C410 C409 1.374 . S
C411 C408 1.499 1_565 S
C411 C412 1.373 . S
C411 C413 1.389 . S
C412 H385 0.950 . S
C412 C398 1.377 . S
C412 C411 1.373 . S
C413 C397 1.377 . S
C413 C411 1.389 . S
C413 C414 1.524 . S
C414 C413 1.524 . S
C414 C415 1.397 . S
C414 C419 1.369 . S
C415 H386 0.950 . S
C415 C414 1.397 . S
C415 C416 1.334 . S
C416 H387 0.950 . S
C416 C415 1.334 . S
C416 C417 1.285 1_565 S
C417 C416 1.285 1_545 S
C417 C418 1.525 . S
C417 H420 1.001 . S
C418 H388 0.950 . S
C418 C417 1.525 . S
C418 C419 1.411 1_545 S
C419 H389 0.948 1_565 S
C419 C414 1.369 . S
C419 C418 1.411 1_565 S
H420 C417 1.001 . S
H421 C402 0.913 . S
H422 C440 0.951 . S
H423 C442 0.951 . S
H424 C444 0.950 . S
H425 C445 0.950 . S
H426 C447 0.950 . S
H427 C450 0.950 . S
H428 C451 0.950 . S
H429 C453 0.950 . S
H430 C454 0.950 . S
H431 C455 0.951 . S
H432 C457 0.951 . S
H433 C459 0.950 . S
H434 C460 0.950 . S
H435 C462 0.950 . S
H436 C465 0.950 . S
H437 C466 0.950 . S
H438 C468 0.950 . S
H439 C469 0.950 . S
C440 H422 0.951 . S
C440 C441 1.366 . S
C440 C442 1.388 . S
C441 C440 1.366 . S
C441 C445 1.385 . S
C442 H423 0.951 . S
C442 C440 1.388 . S
C442 C443 1.366 . S
C443 C442 1.366 . S
C443 C444 1.414 . S
C443 C446 1.499 . S
C444 H424 0.950 . S
C444 C443 1.414 . S
C444 C445 1.374 . S
C445 H425 0.950 . S
C445 C441 1.385 . S
C445 C444 1.374 . S
C446 C443 1.499 . S
C446 C447 1.373 1_455 S
C446 C448 1.389 . S
C447 H426 0.950 . S
C447 C446 1.373 1_655 S
C447 C463 1.377 . S
C448 C446 1.389 . S
C448 C449 1.524 . S
C448 C462 1.377 . S
C449 C448 1.524 . S
C449 C450 1.397 . S
C449 C454 1.363 . S
C450 H427 0.950 . S
C450 C449 1.397 . S
C450 C451 1.334 . S
C451 H428 0.950 . S
C451 C450 1.334 . S
C451 C452 1.287 . S
C452 C451 1.287 . S
C452 C453 1.524 . S
C452 H471 0.913 . S
C453 H429 0.950 . S
C453 C452 1.524 . S
C453 C454 1.415 . S
C454 H430 0.950 . S
C454 C449 1.363 . S
C454 C453 1.415 . S
C455 H431 0.951 . S
C455 C456 1.366 . S
C455 C457 1.388 . S
C456 C455 1.366 . S
C456 C460 1.385 . S
C457 H432 0.951 . S
C457 C455 1.388 . S
C457 C458 1.366 . S
C458 C457 1.366 . S
C458 C459 1.414 . S
C458 C461 1.499 . S
C459 H433 0.950 . S
C459 C458 1.414 . S
C459 C460 1.374 . S
C460 H434 0.950 . S
C460 C456 1.385 . S
C460 C459 1.374 . S
C461 C458 1.499 . S
C461 C462 1.373 1_655 S
C461 C463 1.389 . S
C462 H435 0.950 . S
C462 C448 1.377 . S
C462 C461 1.373 1_455 S
C463 C447 1.377 . S
C463 C461 1.389 . S
C463 C464 1.524 . S
C464 C463 1.524 . S
C464 C465 1.397 . S
C464 C469 1.363 . S
C465 H436 0.950 . S
C465 C464 1.397 . S
C465 C466 1.334 . S
C466 H437 0.950 . S
C466 C465 1.334 . S
C466 C467 1.287 . S
C467 C466 1.287 . S
C467 C468 1.524 . S
C467 H470 0.999 . S
C468 H438 0.950 . S
C468 C467 1.524 . S
C468 C469 1.415 . S
C469 H439 0.950 . S
C469 C464 1.363 . S
C469 C468 1.415 . S
H470 C467 0.999 . S
H471 C452 0.913 . S
H472 C490 0.951 . S
H473 C492 0.951 . S
H474 C494 0.950 . S
H475 C495 0.950 . S
H476 C497 0.950 . S
H477 C500 0.950 . S
H478 C501 0.950 . S
H479 C503 0.950 . S
H480 C504 0.950 . S
H481 C505 0.951 . S
H482 C507 0.951 . S
H483 C509 0.950 . S
H484 C510 0.950 . S
H485 C512 0.950 . S
H486 C515 0.950 . S
H487 C516 0.950 . S
H488 C518 0.950 . S
H489 C519 0.950 . S
C490 H472 0.951 . S
C490 C491 1.366 . S
C490 C492 1.388 . S
C491 C490 1.366 . S
C491 C495 1.385 . S
C492 H473 0.951 . S
C492 C490 1.388 . S
C492 C493 1.366 . S
C493 C492 1.366 . S
C493 C494 1.414 . S
C493 C496 1.499 . S
C494 H474 0.950 . S
C494 C493 1.414 . S
C494 C495 1.374 . S
C495 H475 0.950 . S
C495 C491 1.385 . S
C495 C494 1.374 . S
C496 C493 1.499 . S
C496 C497 1.373 . S
C496 C498 1.389 . S
C497 H476 0.950 . S
C497 C496 1.373 . S
C497 C513 1.377 . S
C498 C496 1.389 . S
C498 C499 1.524 . S
C498 C512 1.377 . S
C499 C498 1.524 . S
C499 C500 1.397 . S
C499 C504 1.363 . S
C500 H477 0.950 . S
C500 C499 1.397 . S
C500 C501 1.334 . S
C501 H478 0.950 . S
C501 C500 1.334 . S
C501 C502 1.287 . S
C502 C501 1.287 . S
C502 C503 1.524 . S
C502 H521 0.913 . S
C503 H479 0.950 . S
C503 C502 1.524 . S
C503 C504 1.415 . S
C504 H480 0.950 . S
C504 C499 1.363 . S
C504 C503 1.415 . S
C505 H481 0.951 . S
C505 C506 1.366 . S
C505 C507 1.388 . S
C506 C505 1.366 . S
C506 C510 1.385 . S
C507 H482 0.951 . S
C507 C505 1.388 . S
C507 C508 1.366 . S
C508 C507 1.366 . S
C508 C509 1.414 . S
C508 C511 1.499 . S
C509 H483 0.950 . S
C509 C508 1.414 . S
C509 C510 1.374 . S
C510 H484 0.950 . S
C510 C506 1.385 . S
C510 C509 1.374 . S
C511 C508 1.499 . S
C511 C512 1.373 . S
C511 C513 1.389 . S
C512 H485 0.950 . S
C512 C498 1.377 . S
C512 C511 1.373 . S
C513 C497 1.377 . S
C513 C511 1.389 . S
C513 C514 1.524 . S
C514 C513 1.524 . S
C514 C515 1.397 . S
C514 C519 1.363 . S
C515 H486 0.950 . S
C515 C514 1.397 . S
C515 C516 1.334 . S
C516 H487 0.950 . S
C516 C515 1.334 . S
C516 C517 1.287 . S
C517 C516 1.287 . S
C517 C518 1.524 . S
C517 H520 0.999 . S
C518 H488 0.950 . S
C518 C517 1.524 . S
C518 C519 1.415 . S
C519 H489 0.950 . S
C519 C514 1.363 . S
C519 C518 1.415 . S
H520 C517 0.999 . S
H521 C502 0.913 . S
H522 C540 0.951 . S
H523 C542 0.951 . S
H524 C544 0.950 . S
H525 C545 0.950 . S
H526 C547 0.950 . S
H527 C550 0.950 . S
H528 C551 0.950 . S
H529 C553 0.950 . S
H530 C554 0.950 . S
H531 C555 0.951 . S
H532 C557 0.951 . S
H533 C559 0.950 . S
H534 C560 0.950 . S
H535 C562 0.950 . S
H536 C565 0.950 . S
H537 C566 0.950 . S
H538 C568 0.950 . S
H539 C569 0.950 . S
C540 H522 0.951 . S
C540 C541 1.366 . S
C540 C542 1.388 . S
C541 C540 1.366 . S
C541 C545 1.385 . S
C542 H523 0.951 . S
C542 C540 1.388 . S
C542 C543 1.366 . S
C543 C542 1.366 . S
C543 C544 1.414 . S
C543 C546 1.499 . S
C544 H524 0.950 . S
C544 C543 1.414 . S
C544 C545 1.374 . S
C545 H525 0.950 . S
C545 C541 1.385 . S
C545 C544 1.374 . S
C546 C543 1.499 . S
C546 C547 1.373 . S
C546 C548 1.389 . S
C547 H526 0.950 . S
C547 C546 1.373 . S
C547 C563 1.377 . S
C548 C546 1.389 . S
C548 C549 1.524 . S
C548 C562 1.377 . S
C549 C548 1.524 . S
C549 C550 1.397 . S
C549 C554 1.363 . S
C550 H527 0.950 . S
C550 C549 1.397 . S
C550 C551 1.334 . S
C551 H528 0.950 . S
C551 C550 1.334 . S
C551 C552 1.287 . S
C552 C551 1.287 . S
C552 C553 1.524 . S
C552 H571 0.913 . S
C553 H529 0.950 . S
C553 C552 1.524 . S
C553 C554 1.415 . S
C554 H530 0.950 . S
C554 C549 1.363 . S
C554 C553 1.415 . S
C555 H531 0.951 . S
C555 C556 1.366 . S
C555 C557 1.388 . S
C556 C555 1.366 . S
C556 C560 1.385 . S
C557 H532 0.951 . S
C557 C555 1.388 . S
C557 C558 1.366 . S
C558 C557 1.366 . S
C558 C559 1.414 . S
C558 C561 1.499 . S
C559 H533 0.950 . S
C559 C558 1.414 . S
C559 C560 1.374 . S
C560 H534 0.950 . S
C560 C556 1.385 . S
C560 C559 1.374 . S
C561 C558 1.499 . S
C561 C562 1.373 . S
C561 C563 1.389 . S
C562 H535 0.950 . S
C562 C548 1.377 . S
C562 C561 1.373 . S
C563 C547 1.377 . S
C563 C561 1.389 . S
C563 C564 1.524 . S
C564 C563 1.524 . S
C564 C565 1.397 . S
C564 C569 1.363 . S
C565 H536 0.950 . S
C565 C564 1.397 . S
C565 C566 1.334 . S
C566 H537 0.950 . S
C566 C565 1.334 . S
C566 C567 1.287 . S
C567 C566 1.287 . S
C567 C568 1.524 . S
C567 H570 0.999 . S
C568 H538 0.950 . S
C568 C567 1.524 . S
C568 C569 1.415 . S
C569 H539 0.950 . S
C569 C564 1.363 . S
C569 C568 1.415 . S
H570 C567 0.999 . S
H571 C552 0.913 . S
H572 C590 0.951 . S
H573 C592 0.951 . S
H574 C594 0.950 . S
H575 C595 0.950 . S
H576 C597 0.950 . S
H577 C600 0.950 . S
H578 C601 0.950 . S
H579 C603 0.950 . S
H580 C604 0.950 . S
H581 C605 0.951 . S
H582 C607 0.951 . S
H583 C609 0.950 . S
H584 C610 0.950 . S
H585 C612 0.950 . S
H586 C615 0.950 . S
H587 C616 0.950 . S
H588 C618 0.950 . S
H589 C619 0.950 . S
C590 H572 0.951 . S
C590 C591 1.366 . S
C590 C592 1.388 . S
C591 C590 1.366 . S
C591 C595 1.385 . S
C592 H573 0.951 . S
C592 C590 1.388 . S
C592 C593 1.366 . S
C593 C592 1.366 . S
C593 C594 1.414 . S
C593 C596 1.499 1_556 S
C594 H574 0.950 . S
C594 C593 1.414 . S
C594 C595 1.374 . S
C595 H575 0.950 . S
C595 C591 1.385 . S
C595 C594 1.374 . S
C596 C593 1.499 1_554 S
C596 C597 1.373 . S
C596 C598 1.389 . S
C597 H576 0.950 . S
C597 C596 1.373 . S
C597 C613 1.377 . S
C598 C596 1.389 . S
C598 C599 1.524 . S
C598 C612 1.377 . S
C599 C598 1.524 . S
C599 C600 1.397 1_554 S
C599 C604 1.363 . S
C600 H577 0.950 . S
C600 C599 1.397 1_556 S
C600 C601 1.334 . S
C601 H578 0.950 . S
C601 C600 1.334 . S
C601 C602 1.287 . S
C602 C601 1.287 . S
C602 C603 1.524 1_556 S
C602 H621 0.913 . S
C603 H579 0.950 . S
C603 C602 1.524 1_554 S
C603 C604 1.415 . S
C604 H580 0.950 . S
C604 C599 1.363 . S
C604 C603 1.415 . S
C605 H581 0.951 . S
C605 C606 1.366 . S
C605 C607 1.388 . S
C606 C605 1.366 . S
C606 C610 1.385 . S
C607 H582 0.951 . S
C607 C605 1.388 . S
C607 C608 1.366 . S
C608 C607 1.366 . S
C608 C609 1.414 . S
C608 C611 1.499 . S
C609 H583 0.950 . S
C609 C608 1.414 . S
C609 C610 1.374 . S
C610 H584 0.950 . S
C610 C606 1.385 . S
C610 C609 1.374 . S
C611 C608 1.499 . S
C611 C612 1.373 . S
C611 C613 1.389 . S
C612 H585 0.950 . S
C612 C598 1.377 . S
C612 C611 1.373 . S
C613 C597 1.377 . S
C613 C611 1.389 . S
C613 C614 1.524 . S
C614 C613 1.524 . S
C614 C615 1.397 . S
C614 C619 1.363 . S
C615 H586 0.950 . S
C615 C614 1.397 . S
C615 C616 1.334 . S
C616 H587 0.950 . S
C616 C615 1.334 . S
C616 C617 1.287 . S
C617 C616 1.287 . S
C617 C618 1.524 . S
C617 H620 0.999 . S
C618 H588 0.950 . S
C618 C617 1.524 . S
C618 C619 1.415 . S
C619 H589 0.950 . S
C619 C614 1.363 . S
C619 C618 1.415 . S
H620 C617 0.999 . S
H621 C602 0.913 . S
H622 C640 0.951 . S
H623 C642 0.951 . S
H624 C644 0.950 . S
H625 C645 0.950 . S
H626 C647 0.950 . S
H627 C650 0.950 . S
H628 C651 0.950 . S
H629 C653 0.950 . S
H630 C654 0.950 . S
H631 C655 0.951 . S
H632 C657 0.951 . S
H633 C659 0.950 . S
H634 C660 0.950 . S
H635 C662 0.950 . S
H636 C665 0.950 . S
H637 C666 0.950 . S
H638 C668 0.950 . S
H639 C669 0.950 . S
C640 H622 0.951 . S
C640 C641 1.366 . S
C640 C642 1.388 . S
C641 C640 1.366 . S
C641 C645 1.385 . S
C642 H623 0.951 . S
C642 C640 1.388 . S
C642 C643 1.366 . S
C643 C642 1.366 . S
C643 C644 1.414 . S
C643 C646 1.499 . S
C644 H624 0.950 . S
C644 C643 1.414 . S
C644 C645 1.374 . S
C645 H625 0.950 . S
C645 C641 1.385 . S
C645 C644 1.374 . S
C646 C643 1.499 . S
C646 C647 1.373 . S
C646 C648 1.389 . S
C647 H626 0.950 . S
C647 C646 1.373 . S
C647 C663 1.377 . S
C648 C646 1.389 . S
C648 C649 1.524 . S
C648 C662 1.377 . S
C649 C648 1.524 . S
C649 C650 1.397 . S
C649 C654 1.363 . S
C650 H627 0.950 . S
C650 C649 1.397 . S
C650 C651 1.334 . S
C651 H628 0.950 . S
C651 C650 1.334 . S
C651 C652 1.287 . S
C652 C651 1.287 . S
C652 C653 1.524 . S
C652 H671 0.913 . S
C653 H629 0.950 . S
C653 C652 1.524 . S
C653 C654 1.415 . S
C654 H630 0.950 . S
C654 C649 1.363 . S
C654 C653 1.415 . S
C655 H631 0.951 . S
C655 C656 1.366 . S
C655 C657 1.388 . S
C656 C655 1.366 . S
C656 C660 1.385 . S
C657 H632 0.951 . S
C657 C655 1.388 . S
C657 C658 1.366 . S
C658 C657 1.366 . S
C658 C659 1.414 . S
C658 C661 1.499 . S
C659 H633 0.950 . S
C659 C658 1.414 . S
C659 C660 1.374 . S
C660 H634 0.950 . S
C660 C656 1.385 . S
C660 C659 1.374 . S
C661 C658 1.499 . S
C661 C662 1.373 . S
C661 C663 1.389 . S
C662 H635 0.950 . S
C662 C648 1.377 . S
C662 C661 1.373 . S
C663 C647 1.377 . S
C663 C661 1.389 . S
C663 C664 1.524 . S
C664 C663 1.524 . S
C664 C665 1.397 . S
C664 C669 1.363 . S
C665 H636 0.950 . S
C665 C664 1.397 . S
C665 C666 1.334 . S
C666 H637 0.950 . S
C666 C665 1.334 . S
C666 C667 1.287 . S
C667 C666 1.287 . S
C667 C668 1.524 . S
C667 H670 0.999 . S
C668 H638 0.950 . S
C668 C667 1.524 . S
C668 C669 1.415 . S
C669 H639 0.950 . S
C669 C664 1.363 . S
C669 C668 1.415 . S
H670 C667 0.999 . S
H671 C652 0.913 . S
H672 C690 0.951 . S
H673 C692 0.951 . S
H674 C694 0.950 . S
H675 C695 0.950 . S
H676 C697 0.950 . S
H677 C700 0.950 . S
H678 C701 0.950 . S
H679 C703 0.950 . S
H680 C704 0.950 . S
H681 C705 0.951 . S
H682 C707 0.951 . S
H683 C709 0.950 . S
H684 C710 0.950 . S
H685 C712 0.950 . S
H686 C715 0.950 . S
H687 C716 0.950 . S
H688 C718 0.950 . S
H689 C719 0.950 . S
C690 H672 0.951 . S
C690 C691 1.366 . S
C690 C692 1.388 . S
C691 C690 1.366 . S
C691 C695 1.385 . S
C692 H673 0.951 . S
C692 C690 1.388 . S
C692 C693 1.366 . S
C693 C692 1.366 . S
C693 C694 1.414 . S
C693 C696 1.499 . S
C694 H674 0.950 . S
C694 C693 1.414 . S
C694 C695 1.374 . S
C695 H675 0.950 . S
C695 C691 1.385 . S
C695 C694 1.374 . S
C696 C693 1.499 . S
C696 C697 1.373 . S
C696 C698 1.389 . S
C697 H676 0.950 . S
C697 C696 1.373 . S
C697 C713 1.377 . S
C698 C696 1.389 . S
C698 C699 1.524 . S
C698 C712 1.377 . S
C699 C698 1.524 . S
C699 C700 1.397 . S
C699 C704 1.363 . S
C700 H677 0.950 . S
C700 C699 1.397 . S
C700 C701 1.334 . S
C701 H678 0.950 . S
C701 C700 1.334 . S
C701 C702 1.287 . S
C702 C701 1.287 . S
C702 C703 1.524 . S
C702 H721 0.913 . S
C703 H679 0.950 . S
C703 C702 1.524 . S
C703 C704 1.415 . S
C704 H680 0.950 . S
C704 C699 1.363 . S
C704 C703 1.415 . S
C705 H681 0.951 . S
C705 C706 1.366 . S
C705 C707 1.388 . S
C706 C705 1.366 . S
C706 C710 1.385 . S
C707 H682 0.951 . S
C707 C705 1.388 . S
C707 C708 1.366 . S
C708 C707 1.366 . S
C708 C709 1.414 . S
C708 C711 1.499 . S
C709 H683 0.950 . S
C709 C708 1.414 . S
C709 C710 1.374 . S
C710 H684 0.950 . S
C710 C706 1.385 . S
C710 C709 1.374 . S
C711 C708 1.499 . S
C711 C712 1.373 . S
C711 C713 1.389 . S
C712 H685 0.950 . S
C712 C698 1.377 . S
C712 C711 1.373 . S
C713 C697 1.377 . S
C713 C711 1.389 . S
C713 C714 1.524 . S
C714 C713 1.524 . S
C714 C715 1.397 . S
C714 C719 1.363 . S
C715 H686 0.950 . S
C715 C714 1.397 . S
C715 C716 1.334 . S
C716 H687 0.950 . S
C716 C715 1.334 . S
C716 C717 1.287 . S
C717 C716 1.287 . S
C717 C718 1.524 . S
C717 H720 0.999 . S
C718 H688 0.950 . S
C718 C717 1.524 . S
C718 C719 1.415 . S
C719 H689 0.950 . S
C719 C714 1.363 . S
C719 C718 1.415 . S
H720 C717 0.999 . S
H721 C702 0.913 . S
H722 C740 0.951 . S
H723 C742 0.951 . S
H724 C744 0.950 . S
H725 C745 0.950 . S
H726 C747 0.950 1_554 S
H727 C750 0.950 . S
H728 C751 0.950 . S
H729 C753 0.950 . S
H730 C754 0.950 . S
H731 C755 0.951 . S
H732 C757 0.951 . S
H733 C759 0.950 . S
H734 C760 0.950 . S
H735 C762 0.950 . S
H736 C765 0.950 . S
H737 C766 0.950 . S
H738 C768 0.950 . S
H739 C769 0.950 . S
C740 H722 0.951 . S
C740 C741 1.366 . S
C740 C742 1.388 . S
C741 C740 1.366 . S
C741 C745 1.385 . S
C742 H723 0.951 . S
C742 C740 1.388 . S
C742 C743 1.366 . S
C743 C742 1.366 . S
C743 C744 1.414 . S
C743 C746 1.499 . S
C744 H724 0.950 . S
C744 C743 1.414 . S
C744 C745 1.374 . S
C745 H725 0.950 . S
C745 C741 1.385 . S
C745 C744 1.374 . S
C746 C743 1.499 . S
C746 C747 1.373 1_554 S
C746 C748 1.389 . S
C747 H726 0.950 1_556 S
C747 C746 1.373 1_556 S
C747 C763 1.377 . S
C748 C746 1.389 . S
C748 C749 1.524 . S
C748 C762 1.377 1_554 S
C749 C748 1.524 . S
C749 C750 1.397 . S
C749 C754 1.363 . S
C750 H727 0.950 . S
C750 C749 1.397 . S
C750 C751 1.334 . S
C751 H728 0.950 . S
C751 C750 1.334 . S
C751 C752 1.287 . S
C752 C751 1.287 . S
C752 C753 1.524 . S
C752 H771 0.913 . S
C753 H729 0.950 . S
C753 C752 1.524 . S
C753 C754 1.415 . S
C754 H730 0.950 . S
C754 C749 1.363 . S
C754 C753 1.415 . S
C755 H731 0.951 . S
C755 C756 1.366 . S
C755 C757 1.388 . S
C756 C755 1.366 . S
C756 C760 1.385 . S
C757 H732 0.951 . S
C757 C755 1.388 . S
C757 C758 1.366 . S
C758 C757 1.366 . S
C758 C759 1.414 . S
C758 C761 1.499 . S
C759 H733 0.950 . S
C759 C758 1.414 . S
C759 C760 1.374 . S
C760 H734 0.950 . S
C760 C756 1.385 . S
C760 C759 1.374 . S
C761 C758 1.499 . S
C761 C762 1.373 . S
C761 C763 1.389 . S
C762 H735 0.950 . S
C762 C748 1.377 1_556 S
C762 C761 1.373 . S
C763 C747 1.377 . S
C763 C761 1.389 . S
C763 C764 1.524 . S
C764 C763 1.524 . S
C764 C765 1.397 . S
C764 C769 1.363 . S
C765 H736 0.950 . S
C765 C764 1.397 . S
C765 C766 1.334 . S
C766 H737 0.950 . S
C766 C765 1.334 . S
C766 C767 1.287 . S
C767 C766 1.287 . S
C767 C768 1.524 . S
C767 H770 0.999 . S
C768 H738 0.950 . S
C768 C767 1.524 . S
C768 C769 1.415 . S
C769 H739 0.950 . S
C769 C764 1.363 . S
C769 C768 1.415 . S
H770 C767 0.999 . S
H771 C752 0.913 . S
H772 C790 0.951 . S
H773 C792 0.951 . S
H774 C794 0.950 . S
H775 C795 0.950 . S
H776 C797 0.950 . S
H777 C800 0.950 . S
H778 C801 0.950 . S
H779 C803 0.950 . S
H780 C804 0.950 . S
H781 C805 0.949 1_556 S
H782 C807 0.951 . S
H783 C809 0.950 . S
H784 C810 0.950 1_556 S
H785 C812 0.950 . S
H786 C815 0.950 . S
H787 C816 0.950 . S
H788 C818 0.950 . S
H789 C819 0.950 . S
C790 H772 0.951 . S
C790 C791 1.366 . S
C790 C792 1.388 . S
C791 C790 1.366 . S
C791 C795 1.385 . S
C792 H773 0.951 . S
C792 C790 1.388 . S
C792 C793 1.366 . S
C793 C792 1.366 . S
C793 C794 1.414 . S
C793 C796 1.499 . S
C794 H774 0.950 . S
C794 C793 1.414 . S
C794 C795 1.374 . S
C795 H775 0.950 . S
C795 C791 1.385 . S
C795 C794 1.374 . S
C796 C793 1.499 . S
C796 C797 1.373 . S
C796 C798 1.389 . S
C797 H776 0.950 . S
C797 C796 1.373 . S
C797 C813 1.377 . S
C798 C796 1.389 . S
C798 C799 1.524 . S
C798 C812 1.377 . S
C799 C798 1.524 . S
C799 C800 1.397 . S
C799 C804 1.363 . S
C800 H777 0.950 . S
C800 C799 1.397 . S
C800 C801 1.334 . S
C801 H778 0.950 . S
C801 C800 1.334 . S
C801 C802 1.287 . S
C802 C801 1.287 . S
C802 C803 1.524 . S
C802 H821 0.913 . S
C803 H779 0.950 . S
C803 C802 1.524 . S
C803 C804 1.415 . S
C804 H780 0.950 . S
C804 C799 1.363 . S
C804 C803 1.415 . S
C805 H781 0.949 1_554 S
C805 C806 1.366 1_554 S
C805 C807 1.388 . S
C806 C805 1.366 1_556 S
C806 C810 1.385 1_556 S
C807 H782 0.951 . S
C807 C805 1.388 . S
C807 C808 1.366 . S
C808 C807 1.366 . S
C808 C809 1.414 . S
C808 C811 1.499 . S
C809 H783 0.950 . S
C809 C808 1.414 . S
C809 C810 1.374 . S
C810 H784 0.950 1_554 S
C810 C806 1.385 1_554 S
C810 C809 1.374 . S
C811 C808 1.499 . S
C811 C812 1.373 . S
C811 C813 1.389 . S
C812 H785 0.950 . S
C812 C798 1.377 . S
C812 C811 1.373 . S
C813 C797 1.377 . S
C813 C811 1.389 . S
C813 C814 1.524 . S
C814 C813 1.524 . S
C814 C815 1.397 . S
C814 C819 1.363 . S
C815 H786 0.950 . S
C815 C814 1.397 . S
C815 C816 1.334 . S
C816 H787 0.950 . S
C816 C815 1.334 . S
C816 C817 1.287 . S
C817 C816 1.287 . S
C817 C818 1.524 . S
C817 H820 0.999 . S
C818 H788 0.950 . S
C818 C817 1.524 . S
C818 C819 1.415 . S
C819 H789 0.950 . S
C819 C814 1.363 . S
C819 C818 1.415 . S
H820 C817 0.999 . S
H821 C802 0.913 . S
H822 C840 0.951 . S
H823 C842 0.951 . S
H824 C844 0.950 . S
H825 C845 0.950 . S
H826 C847 0.950 . S
H827 C850 0.950 . S
H828 C851 0.950 . S
H829 C853 0.950 . S
H830 C854 0.950 . S
H831 C855 0.951 . S
H832 C857 0.951 . S
H833 C859 0.950 . S
H834 C860 0.950 . S
H835 C862 0.950 . S
H836 C865 0.950 . S
H837 C866 0.950 . S
H838 C868 0.950 . S
H839 C869 0.950 . S
C840 H822 0.951 . S
C840 C841 1.366 . S
C840 C842 1.388 . S
C841 C840 1.366 . S
C841 C845 1.385 . S
C842 H823 0.951 . S
C842 C840 1.388 . S
C842 C843 1.366 . S
C843 C842 1.366 . S
C843 C844 1.414 . S
C843 C846 1.499 . S
C844 H824 0.950 . S
C844 C843 1.414 . S
C844 C845 1.374 . S
C845 H825 0.950 . S
C845 C841 1.385 . S
C845 C844 1.374 . S
C846 C843 1.499 . S
C846 C847 1.373 . S
C846 C848 1.389 . S
C847 H826 0.950 . S
C847 C846 1.373 . S
C847 C863 1.377 . S
C848 C846 1.389 . S
C848 C849 1.524 . S
C848 C862 1.377 . S
C849 C848 1.524 . S
C849 C850 1.397 . S
C849 C854 1.363 . S
C850 H827 0.950 . S
C850 C849 1.397 . S
C850 C851 1.334 . S
C851 H828 0.950 . S
C851 C850 1.334 . S
C851 C852 1.287 . S
C852 C851 1.287 . S
C852 C853 1.524 . S
C852 H871 0.913 . S
C853 H829 0.950 . S
C853 C852 1.524 . S
C853 C854 1.415 . S
C854 H830 0.950 . S
C854 C849 1.363 . S
C854 C853 1.415 . S
C855 H831 0.951 . S
C855 C856 1.366 . S
C855 C857 1.388 . S
C856 C855 1.366 . S
C856 C860 1.385 . S
C857 H832 0.951 . S
C857 C855 1.388 . S
C857 C858 1.366 . S
C858 C857 1.366 . S
C858 C859 1.414 . S
C858 C861 1.499 . S
C859 H833 0.950 . S
C859 C858 1.414 . S
C859 C860 1.374 . S
C860 H834 0.950 . S
C860 C856 1.385 . S
C860 C859 1.374 . S
C861 C858 1.499 . S
C861 C862 1.373 . S
C861 C863 1.389 . S
C862 H835 0.950 . S
C862 C848 1.377 . S
C862 C861 1.373 . S
C863 C847 1.377 . S
C863 C861 1.389 . S
C863 C864 1.524 . S
C864 C863 1.524 . S
C864 C865 1.397 . S
C864 C869 1.363 . S
C865 H836 0.950 . S
C865 C864 1.397 . S
C865 C866 1.334 . S
C866 H837 0.950 . S
C866 C865 1.334 . S
C866 C867 1.287 . S
C867 C866 1.287 . S
C867 C868 1.524 . S
C867 H870 0.999 . S
C868 H838 0.950 . S
C868 C867 1.524 . S
C868 C869 1.415 . S
C869 H839 0.950 . S
C869 C864 1.363 . S
C869 C868 1.415 . S
H870 C867 0.999 . S
H871 C852 0.913 . S
H872 C890 0.951 . S
H873 C892 0.951 . S
H874 C894 0.950 . S
H875 C895 0.950 . S
H876 C897 0.950 . S
H877 C900 0.950 . S
H878 C901 0.950 . S
H879 C903 0.950 . S
H880 C904 0.950 . S
H881 C905 0.951 . S
H882 C907 0.962 . S
H883 C909 0.950 . S
H884 C910 0.950 . S
H885 C912 0.950 . S
H886 C915 0.950 . S
H887 C916 0.950 . S
H888 C918 0.950 . S
H889 C919 0.950 . S
C890 H872 0.951 . S
C890 C891 1.366 . S
C890 C892 1.388 . S
C891 C890 1.366 . S
C891 C895 1.385 . S
C892 H873 0.951 . S
C892 C890 1.388 . S
C892 C893 1.366 . S
C893 C892 1.366 . S
C893 C894 1.414 . S
C893 C896 1.499 . S
C894 H874 0.950 . S
C894 C893 1.414 . S
C894 C895 1.374 . S
C895 H875 0.950 . S
C895 C891 1.385 . S
C895 C894 1.374 . S
C896 C893 1.499 . S
C896 C897 1.373 . S
C896 C898 1.389 . S
C897 H876 0.950 . S
C897 C896 1.373 . S
C897 C913 1.377 . S
C898 C896 1.389 . S
C898 C899 1.524 . S
C898 C912 1.377 . S
C899 C898 1.524 . S
C899 C900 1.397 . S
C899 C904 1.363 . S
C900 H877 0.950 . S
C900 C899 1.397 . S
C900 C901 1.334 . S
C901 H878 0.950 . S
C901 C900 1.334 . S
C901 C902 1.287 . S
C902 C901 1.287 . S
C902 C903 1.524 . S
C902 H921 0.913 . S
C903 H879 0.950 . S
C903 C902 1.524 . S
C903 C904 1.415 . S
C904 H880 0.950 . S
C904 C899 1.363 . S
C904 C903 1.415 . S
C905 H881 0.951 . S
C905 C906 1.366 1_554 S
C905 C907 1.395 . S
C906 C905 1.366 1_556 S
C906 C910 1.385 . S
C907 H882 0.962 . S
C907 C905 1.395 . S
C907 C908 1.348 1_554 S
C908 C907 1.348 1_556 S
C908 C909 1.414 . S
C908 C911 1.499 . S
C909 H883 0.950 . S
C909 C908 1.414 . S
C909 C910 1.374 . S
C910 H884 0.950 . S
C910 C906 1.385 . S
C910 C909 1.374 . S
C911 C908 1.499 . S
C911 C912 1.373 . S
C911 C913 1.389 . S
C912 H885 0.950 . S
C912 C898 1.377 . S
C912 C911 1.373 . S
C913 C897 1.377 . S
C913 C911 1.389 . S
C913 C914 1.524 . S
C914 C913 1.524 . S
C914 C915 1.397 . S
C914 C919 1.363 1_556 S
C915 H886 0.950 . S
C915 C914 1.397 . S
C915 C916 1.334 1_556 S
C916 H887 0.950 . S
C916 C915 1.334 1_554 S
C916 C917 1.287 . S
C917 C916 1.287 . S
C917 C918 1.524 . S
C917 H920 0.999 . S
C918 H888 0.950 . S
C918 C917 1.524 . S
C918 C919 1.415 . S
C919 H889 0.950 . S
C919 C914 1.363 1_554 S
C919 C918 1.415 . S
H920 C917 0.999 . S
H921 C902 0.913 . S
H922 C940 0.951 . S
H923 C942 0.951 . S
H924 C944 0.950 . S
H925 C945 0.950 . S
H926 C947 0.950 . S
H927 C950 0.950 . S
H928 C951 0.950 . S
H929 C953 0.950 . S
H930 C954 0.950 . S
H931 C955 0.951 . S
H932 C957 0.951 . S
H933 C959 0.950 . S
H934 C960 0.950 . S
H935 C962 0.950 . S
H936 C965 0.950 1_554 S
H937 C966 0.950 . S
H938 C968 0.950 . S
H939 C969 0.950 1_554 S
C940 H922 0.951 . S
C940 C941 1.366 . S
C940 C942 1.388 . S
C941 C940 1.366 . S
C941 C945 1.385 . S
C942 H923 0.951 . S
C942 C940 1.388 . S
C942 C943 1.366 . S
C943 C942 1.366 . S
C943 C944 1.414 . S
C943 C946 1.499 . S
C944 H924 0.950 . S
C944 C943 1.414 . S
C944 C945 1.374 . S
C945 H925 0.950 . S
C945 C941 1.385 . S
C945 C944 1.374 . S
C946 C943 1.499 . S
C946 C947 1.373 . S
C946 C948 1.389 . S
C947 H926 0.950 . S
C947 C946 1.373 . S
C947 C963 1.377 . S
C948 C946 1.389 . S
C948 C949 1.524 . S
C948 C962 1.377 . S
C949 C948 1.524 . S
C949 C950 1.397 . S
C949 C954 1.363 . S
C950 H927 0.950 . S
C950 C949 1.397 . S
C950 C951 1.334 . S
C951 H928 0.950 . S
C951 C950 1.334 . S
C951 C952 1.287 . S
C952 C951 1.287 . S
C952 C953 1.524 . S
C952 H971 0.913 . S
C953 H929 0.950 . S
C953 C952 1.524 . S
C953 C954 1.415 . S
C954 H930 0.950 . S
C954 C949 1.363 . S
C954 C953 1.415 . S
C955 H931 0.951 . S
C955 C956 1.366 . S
C955 C957 1.388 . S
C956 C955 1.366 . S
C956 C960 1.385 . S
C957 H932 0.951 . S
C957 C955 1.388 . S
C957 C958 1.366 . S
C958 C957 1.366 . S
C958 C959 1.414 . S
C958 C961 1.499 . S
C959 H933 0.950 . S
C959 C958 1.414 . S
C959 C960 1.374 . S
C960 H934 0.950 . S
C960 C956 1.385 . S
C960 C959 1.374 . S
C961 C958 1.499 . S
C961 C962 1.373 . S
C961 C963 1.389 . S
C962 H935 0.950 . S
C962 C948 1.377 . S
C962 C961 1.373 . S
C963 C947 1.377 . S
C963 C961 1.389 . S
C963 C964 1.524 . S
C964 C963 1.524 . S
C964 C965 1.397 1_554 S
C964 C969 1.363 1_554 S
C965 H936 0.950 1_556 S
C965 C964 1.397 1_556 S
C965 C966 1.334 . S
C966 H937 0.950 . S
C966 C965 1.334 . S
C966 C967 1.287 . S
C967 C966 1.287 . S
C967 C968 1.524 . S
C967 H970 0.999 . S
C968 H938 0.950 . S
C968 C967 1.524 . S
C968 C969 1.415 . S
C969 H939 0.950 1_556 S
C969 C964 1.363 1_556 S
C969 C968 1.415 . S
H970 C967 0.999 . S
H971 C952 0.913 . S
H972 C990 0.951 . S
H973 C992 0.951 . S
H974 C994 0.950 . S
H975 C995 0.950 . S
H976 C997 0.950 . S
H977 C1000 0.950 . S
H978 C1001 0.950 . S
H979 C1003 0.950 . S
H980 C1004 0.950 . S
H981 C1005 0.951 . S
H982 C1007 0.951 . S
H983 C1009 0.950 . S
H984 C1010 0.950 . S
H985 C1012 0.950 . S
H986 C1015 0.950 . S
H987 C1016 0.950 . S
H988 C1018 0.950 . S
H989 C1019 0.950 . S
C990 H972 0.951 . S
C990 C991 1.366 . S
C990 C992 1.388 . S
C991 C990 1.366 . S
C991 C995 1.385 . S
C992 H973 0.951 . S
C992 C990 1.388 . S
C992 C993 1.366 . S
C993 C992 1.366 . S
C993 C994 1.414 . S
C993 C996 1.499 . S
C994 H974 0.950 . S
C994 C993 1.414 . S
C994 C995 1.374 . S
C995 H975 0.950 . S
C995 C991 1.385 . S
C995 C994 1.374 . S
C996 C993 1.499 . S
C996 C997 1.373 . S
C996 C998 1.389 . S
C997 H976 0.950 . S
C997 C996 1.373 . S
C997 C1013 1.377 . S
C998 C996 1.389 . S
C998 C999 1.524 . S
C998 C1012 1.377 . S
C999 C998 1.524 . S
C999 C1000 1.397 . S
C999 C1004 1.363 . S
C1000 H977 0.950 . S
C1000 C999 1.397 . S
C1000 C1001 1.334 . S
C1001 H978 0.950 . S
C1001 C1000 1.334 . S
C1001 C1002 1.287 . S
C1002 C1001 1.287 . S
C1002 C1003 1.524 . S
C1002 H1021 0.913 . S
C1003 H979 0.950 . S
C1003 C1002 1.524 . S
C1003 C1004 1.415 . S
C1004 H980 0.950 . S
C1004 C999 1.363 . S
C1004 C1003 1.415 . S
C1005 H981 0.951 . S
C1005 C1006 1.366 . S
C1005 C1007 1.388 . S
C1006 C1005 1.366 . S
C1006 C1010 1.385 . S
C1007 H982 0.951 . S
C1007 C1005 1.388 . S
C1007 C1008 1.366 . S
C1008 C1007 1.366 . S
C1008 C1009 1.414 . S
C1008 C1011 1.499 . S
C1009 H983 0.950 . S
C1009 C1008 1.414 . S
C1009 C1010 1.374 . S
C1010 H984 0.950 . S
C1010 C1006 1.385 . S
C1010 C1009 1.374 . S
C1011 C1008 1.499 . S
C1011 C1012 1.373 . S
C1011 C1013 1.389 . S
C1012 H985 0.950 . S
C1012 C998 1.377 . S
C1012 C1011 1.373 . S
C1013 C997 1.377 . S
C1013 C1011 1.389 . S
C1013 C1014 1.524 . S
C1014 C1013 1.524 . S
C1014 C1015 1.397 . S
C1014 C1019 1.363 . S
C1015 H986 0.950 . S
C1015 C1014 1.397 . S
C1015 C1016 1.334 . S
C1016 H987 0.950 . S
C1016 C1015 1.334 . S
C1016 C1017 1.287 . S
C1017 C1016 1.287 . S
C1017 C1018 1.524 . S
C1017 H1020 0.999 . S
C1018 H988 0.950 . S
C1018 C1017 1.524 . S
C1018 C1019 1.415 . S
C1019 H989 0.950 . S
C1019 C1014 1.363 . S
C1019 C1018 1.415 . S
H1020 C1017 0.999 . S
H1021 C1002 0.913 . S
H1022 C1040 0.951 . S
H1023 C1042 0.951 . S
H1024 C1044 0.950 . S
H1025 C1045 0.950 . S
H1026 C1047 0.950 . S
H1027 C1050 0.950 . S
H1028 C1051 0.950 . S
H1029 C1053 0.950 . S
H1030 C1054 0.950 . S
H1031 C1055 0.951 . S
H1032 C1057 0.951 . S
H1033 C1059 0.950 . S
H1034 C1060 0.950 . S
H1035 C1062 0.950 . S
H1036 C1065 0.950 . S
H1037 C1066 0.950 . S
H1038 C1068 0.950 . S
H1039 C1069 0.950 . S
C1040 H1022 0.951 . S
C1040 C1041 1.366 . S
C1040 C1042 1.388 . S
C1041 C1040 1.366 . S
C1041 C1045 1.385 . S
C1042 H1023 0.951 . S
C1042 C1040 1.388 . S
C1042 C1043 1.366 . S
C1043 C1042 1.366 . S
C1043 C1044 1.414 . S
C1043 C1046 1.499 . S
C1044 H1024 0.950 . S
C1044 C1043 1.414 . S
C1044 C1045 1.374 . S
C1045 H1025 0.950 . S
C1045 C1041 1.385 . S
C1045 C1044 1.374 . S
C1046 C1043 1.499 . S
C1046 C1047 1.373 . S
C1046 C1048 1.389 . S
C1047 H1026 0.950 . S
C1047 C1046 1.373 . S
C1047 C1063 1.377 . S
C1048 C1046 1.389 . S
C1048 C1049 1.524 . S
C1048 C1062 1.377 . S
C1049 C1048 1.524 . S
C1049 C1050 1.397 . S
C1049 C1054 1.363 . S
C1050 H1027 0.950 . S
C1050 C1049 1.397 . S
C1050 C1051 1.334 . S
C1051 H1028 0.950 . S
C1051 C1050 1.334 . S
C1051 C1052 1.287 . S
C1052 C1051 1.287 . S
C1052 C1053 1.524 . S
C1052 H1071 0.913 . S
C1053 H1029 0.950 . S
C1053 C1052 1.524 . S
C1053 C1054 1.415 . S
C1054 H1030 0.950 . S
C1054 C1049 1.363 . S
C1054 C1053 1.415 . S
C1055 H1031 0.951 . S
C1055 C1056 1.366 . S
C1055 C1057 1.388 . S
C1056 C1055 1.366 . S
C1056 C1060 1.385 . S
C1057 H1032 0.951 . S
C1057 C1055 1.388 . S
C1057 C1058 1.366 . S
C1058 C1057 1.366 . S
C1058 C1059 1.414 . S
C1058 C1061 1.499 . S
C1059 H1033 0.950 . S
C1059 C1058 1.414 . S
C1059 C1060 1.374 . S
C1060 H1034 0.950 . S
C1060 C1056 1.385 . S
C1060 C1059 1.374 . S
C1061 C1058 1.499 . S
C1061 C1062 1.373 . S
C1061 C1063 1.389 . S
C1062 H1035 0.950 . S
C1062 C1048 1.377 . S
C1062 C1061 1.373 . S
C1063 C1047 1.377 . S
C1063 C1061 1.389 . S
C1063 C1064 1.524 . S
C1064 C1063 1.524 . S
C1064 C1065 1.397 . S
C1064 C1069 1.363 . S
C1065 H1036 0.950 . S
C1065 C1064 1.397 . S
C1065 C1066 1.334 . S
C1066 H1037 0.950 . S
C1066 C1065 1.334 . S
C1066 C1067 1.287 . S
C1067 C1066 1.287 . S
C1067 C1068 1.524 . S
C1067 H1070 0.999 . S
C1068 H1038 0.950 . S
C1068 C1067 1.524 . S
C1068 C1069 1.415 . S
C1069 H1039 0.950 . S
C1069 C1064 1.363 . S
C1069 C1068 1.415 . S
H1070 C1067 0.999 . S
H1071 C1052 0.913 . S
H1072 C1090 0.951 . S
H1073 C1092 0.951 . S
H1074 C1094 0.950 . S
H1075 C1095 0.950 . S
H1076 C1097 0.950 . S
H1077 C1100 0.950 . S
H1078 C1101 0.950 . S
H1079 C1103 0.950 . S
H1080 C1104 0.950 . S
H1081 C1105 0.951 . S
H1082 C1107 0.951 . S
H1083 C1109 0.950 . S
H1084 C1110 0.950 . S
H1085 C1112 0.950 . S
H1086 C1115 0.950 . S
H1087 C1116 0.950 . S
H1088 C1118 0.950 . S
H1089 C1119 0.950 . S
C1090 H1072 0.951 . S
C1090 C1091 1.366 . S
C1090 C1092 1.388 . S
C1091 C1090 1.366 . S
C1091 C1095 1.385 . S
C1092 H1073 0.951 . S
C1092 C1090 1.388 . S
C1092 C1093 1.366 . S
C1093 C1092 1.366 . S
C1093 C1094 1.414 . S
C1093 C1096 1.499 . S
C1094 H1074 0.950 . S
C1094 C1093 1.414 . S
C1094 C1095 1.374 . S
C1095 H1075 0.950 . S
C1095 C1091 1.385 . S
C1095 C1094 1.374 . S
C1096 C1093 1.499 . S
C1096 C1097 1.373 . S
C1096 C1098 1.389 . S
C1097 H1076 0.950 . S
C1097 C1096 1.373 . S
C1097 C1113 1.377 . S
C1098 C1096 1.389 . S
C1098 C1099 1.524 . S
C1098 C1112 1.377 . S
C1099 C1098 1.524 . S
C1099 C1100 1.397 . S
C1099 C1104 1.363 . S
C1100 H1077 0.950 . S
C1100 C1099 1.397 . S
C1100 C1101 1.334 . S
C1101 H1078 0.950 . S
C1101 C1100 1.334 . S
C1101 C1102 1.287 . S
C1102 C1101 1.287 . S
C1102 C1103 1.524 . S
C1102 H1121 0.913 . S
C1103 H1079 0.950 . S
C1103 C1102 1.524 . S
C1103 C1104 1.415 . S
C1104 H1080 0.950 . S
C1104 C1099 1.363 . S
C1104 C1103 1.415 . S
C1105 H1081 0.951 . S
C1105 C1106 1.366 . S
C1105 C1107 1.388 . S
C1106 C1105 1.366 . S
C1106 C1110 1.385 . S
C1107 H1082 0.951 . S
C1107 C1105 1.388 . S
C1107 C1108 1.366 . S
C1108 C1107 1.366 . S
C1108 C1109 1.414 . S
C1108 C1111 1.499 . S
C1109 H1083 0.950 . S
C1109 C1108 1.414 . S
C1109 C1110 1.374 . S
C1110 H1084 0.950 . S
C1110 C1106 1.385 . S
C1110 C1109 1.374 . S
C1111 C1108 1.499 . S
C1111 C1112 1.373 . S
C1111 C1113 1.389 . S
C1112 H1085 0.950 . S
C1112 C1098 1.377 . S
C1112 C1111 1.373 . S
C1113 C1097 1.377 . S
C1113 C1111 1.389 . S
C1113 C1114 1.524 . S
C1114 C1113 1.524 . S
C1114 C1115 1.397 . S
C1114 C1119 1.363 . S
C1115 H1086 0.950 . S
C1115 C1114 1.397 . S
C1115 C1116 1.334 . S
C1116 H1087 0.950 . S
C1116 C1115 1.334 . S
C1116 C1117 1.287 . S
C1117 C1116 1.287 . S
C1117 C1118 1.524 . S
C1117 H1120 0.999 . S
C1118 H1088 0.950 . S
C1118 C1117 1.524 . S
C1118 C1119 1.415 . S
C1119 H1089 0.950 . S
C1119 C1114 1.363 . S
C1119 C1118 1.415 . S
H1120 C1117 0.999 . S
H1121 C1102 0.913 . S
H1122 C1140 0.951 . S
H1123 C1142 0.951 . S
H1124 C1144 0.950 . S
H1125 C1145 0.950 . S
H1126 C1147 0.950 . S
H1127 C1150 0.950 . S
H1128 C1151 0.950 . S
H1129 C1153 0.950 . S
H1130 C1154 0.950 . S
H1131 C1155 0.951 . S
H1132 C1157 0.951 . S
H1133 C1159 0.950 . S
H1134 C1160 0.950 . S
H1135 C1162 0.950 . S
H1136 C1165 0.950 . S
H1137 C1166 0.950 . S
H1138 C1168 0.950 . S
H1139 C1169 0.950 . S
C1140 H1122 0.951 . S
C1140 C1141 1.366 . S
C1140 C1142 1.388 . S
C1141 C1140 1.366 . S
C1141 C1145 1.385 . S
C1142 H1123 0.951 . S
C1142 C1140 1.388 . S
C1142 C1143 1.366 . S
C1143 C1142 1.366 . S
C1143 C1144 1.414 . S
C1143 C1146 1.499 . S
C1144 H1124 0.950 . S
C1144 C1143 1.414 . S
C1144 C1145 1.374 . S
C1145 H1125 0.950 . S
C1145 C1141 1.385 . S
C1145 C1144 1.374 . S
C1146 C1143 1.499 . S
C1146 C1147 1.373 . S
C1146 C1148 1.389 . S
C1147 H1126 0.950 . S
C1147 C1146 1.373 . S
C1147 C1163 1.377 . S
C1148 C1146 1.389 . S
C1148 C1149 1.524 . S
C1148 C1162 1.377 . S
C1149 C1148 1.524 . S
C1149 C1150 1.397 . S
C1149 C1154 1.363 . S
C1150 H1127 0.950 . S
C1150 C1149 1.397 . S
C1150 C1151 1.334 . S
C1151 H1128 0.950 . S
C1151 C1150 1.334 . S
C1151 C1152 1.287 . S
C1152 C1151 1.287 . S
C1152 C1153 1.524 . S
C1152 H1171 0.913 . S
C1153 H1129 0.950 . S
C1153 C1152 1.524 . S
C1153 C1154 1.415 . S
C1154 H1130 0.950 . S
C1154 C1149 1.363 . S
C1154 C1153 1.415 . S
C1155 H1131 0.951 . S
C1155 C1156 1.366 . S
C1155 C1157 1.388 . S
C1156 C1155 1.366 . S
C1156 C1160 1.385 . S
C1157 H1132 0.951 . S
C1157 C1155 1.388 . S
C1157 C1158 1.366 . S
C1158 C1157 1.366 . S
C1158 C1159 1.414 . S
C1158 C1161 1.499 . S
C1159 H1133 0.950 . S
C1159 C1158 1.414 . S
C1159 C1160 1.374 . S
C1160 H1134 0.950 . S
C1160 C1156 1.385 . S
C1160 C1159 1.374 . S
C1161 C1158 1.499 . S
C1161 C1162 1.373 . S
C1161 C1163 1.389 . S
C1162 H1135 0.950 . S
C1162 C1148 1.377 . S
C1162 C1161 1.373 . S
C1163 C1147 1.377 . S
C1163 C1161 1.389 . S
C1163 C1164 1.524 . S
C1164 C1163 1.524 . S
C1164 C1165 1.397 . S
C1164 C1169 1.363 . S
C1165 H1136 0.950 . S
C1165 C1164 1.397 . S
C1165 C1166 1.334 . S
C1166 H1137 0.950 . S
C1166 C1165 1.334 . S
C1166 C1167 1.287 . S
C1167 C1166 1.287 . S
C1167 C1168 1.524 . S
C1167 H1170 0.999 . S
C1168 H1138 0.950 . S
C1168 C1167 1.524 . S
C1168 C1169 1.415 . S
C1169 H1139 0.950 . S
C1169 C1164 1.363 . S
C1169 C1168 1.415 . S
H1170 C1167 0.999 . S
H1171 C1152 0.913 . S
H1172 C1190 0.951 . S
H1173 C1192 0.951 . S
H1174 C1194 0.950 . S
H1175 C1195 0.950 . S
H1176 C1197 0.950 . S
H1177 C1200 0.950 . S
H1178 C1201 0.950 . S
H1179 C1203 0.950 . S
H1180 C1204 0.950 . S
H1181 C1205 0.951 . S
H1182 C1207 0.951 . S
H1183 C1209 0.950 . S
H1184 C1210 0.950 . S
H1185 C1212 0.950 . S
H1186 C1215 0.950 . S
H1187 C1216 0.950 . S
H1188 C1218 0.950 . S
H1189 C1219 0.950 . S
C1190 H1172 0.951 . S
C1190 C1191 1.366 . S
C1190 C1192 1.388 . S
C1191 C1190 1.366 . S
C1191 C1195 1.385 1_554 S
C1192 H1173 0.951 . S
C1192 C1190 1.388 . S
C1192 C1193 1.366 1_554 S
C1193 C1192 1.366 1_556 S
C1193 C1194 1.414 . S
C1193 C1196 1.499 . S
C1194 H1174 0.950 . S
C1194 C1193 1.414 . S
C1194 C1195 1.374 . S
C1195 H1175 0.950 . S
C1195 C1191 1.385 1_556 S
C1195 C1194 1.374 . S
C1196 C1193 1.499 . S
C1196 C1197 1.373 . S
C1196 C1198 1.389 . S
C1197 H1176 0.950 . S
C1197 C1196 1.373 . S
C1197 C1213 1.377 . S
C1198 C1196 1.389 . S
C1198 C1199 1.524 1_556 S
C1198 C1212 1.377 . S
C1199 C1198 1.524 1_554 S
C1199 C1200 1.397 . S
C1199 C1204 1.363 . S
C1200 H1177 0.950 . S
C1200 C1199 1.397 . S
C1200 C1201 1.334 . S
C1201 H1178 0.950 . S
C1201 C1200 1.334 . S
C1201 C1202 1.287 . S
C1202 C1201 1.287 . S
C1202 C1203 1.524 . S
C1202 H1221 0.913 . S
C1203 H1179 0.950 . S
C1203 C1202 1.524 . S
C1203 C1204 1.415 . S
C1204 H1180 0.950 . S
C1204 C1199 1.363 . S
C1204 C1203 1.415 . S
C1205 H1181 0.951 . S
C1205 C1206 1.366 . S
C1205 C1207 1.388 . S
C1206 C1205 1.366 . S
C1206 C1210 1.385 . S
C1207 H1182 0.951 . S
C1207 C1205 1.388 . S
C1207 C1208 1.366 . S
C1208 C1207 1.366 . S
C1208 C1209 1.414 . S
C1208 C1211 1.499 . S
C1209 H1183 0.950 . S
C1209 C1208 1.414 . S
C1209 C1210 1.374 . S
C1210 H1184 0.950 . S
C1210 C1206 1.385 . S
C1210 C1209 1.374 . S
C1211 C1208 1.499 . S
C1211 C1212 1.373 . S
C1211 C1213 1.389 . S
C1212 H1185 0.950 . S
C1212 C1198 1.377 . S
C1212 C1211 1.373 . S
C1213 C1197 1.377 . S
C1213 C1211 1.389 . S
C1213 C1214 1.524 . S
C1214 C1213 1.524 . S
C1214 C1215 1.397 . S
C1214 C1219 1.363 . S
C1215 H1186 0.950 . S
C1215 C1214 1.397 . S
C1215 C1216 1.334 . S
C1216 H1187 0.950 . S
C1216 C1215 1.334 . S
C1216 C1217 1.287 . S
C1217 C1216 1.287 . S
C1217 C1218 1.524 . S
C1217 H1220 0.999 . S
C1218 H1188 0.950 . S
C1218 C1217 1.524 . S
C1218 C1219 1.415 . S
C1219 H1189 0.950 . S
C1219 C1214 1.363 . S
C1219 C1218 1.415 . S
H1220 C1217 0.999 . S
H1221 C1202 0.913 . S
H1222 C1240 0.951 . S
H1223 C1242 0.951 . S
H1224 C1244 0.950 . S
H1225 C1245 0.950 1_556 S
H1226 C1247 0.950 . S
H1227 C1250 0.950 . S
H1228 C1251 0.950 . S
H1229 C1253 0.950 . S
H1230 C1254 0.950 . S
H1231 C1255 0.951 . S
H1232 C1257 0.951 . S
H1233 C1259 0.950 . S
H1234 C1260 0.950 . S
H1235 C1262 0.950 . S
H1236 C1265 0.950 . S
H1237 C1266 0.950 . S
H1238 C1268 0.950 . S
H1239 C1269 0.950 . S
C1240 H1222 0.951 . S
C1240 C1241 1.366 . S
C1240 C1242 1.388 . S
C1241 C1240 1.366 . S
C1241 C1245 1.385 . S
C1242 H1223 0.951 . S
C1242 C1240 1.388 . S
C1242 C1243 1.366 . S
C1243 C1242 1.366 . S
C1243 C1244 1.414 . S
C1243 C1246 1.499 . S
C1244 H1224 0.950 . S
C1244 C1243 1.414 . S
C1244 C1245 1.374 . S
C1245 H1225 0.950 1_554 S
C1245 C1241 1.385 . S
C1245 C1244 1.374 . S
C1246 C1243 1.499 . S
C1246 C1247 1.373 . S
C1246 C1248 1.389 . S
C1247 H1226 0.950 . S
C1247 C1246 1.373 . S
C1247 C1263 1.377 . S
C1248 C1246 1.389 . S
C1248 C1249 1.524 . S
C1248 C1262 1.377 . S
C1249 C1248 1.524 . S
C1249 C1250 1.397 . S
C1249 C1254 1.363 . S
C1250 H1227 0.950 . S
C1250 C1249 1.397 . S
C1250 C1251 1.334 . S
C1251 H1228 0.950 . S
C1251 C1250 1.334 . S
C1251 C1252 1.287 . S
C1252 C1251 1.287 . S
C1252 C1253 1.524 . S
C1252 H1271 0.913 . S
C1253 H1229 0.950 . S
C1253 C1252 1.524 . S
C1253 C1254 1.415 . S
C1254 H1230 0.950 . S
C1254 C1249 1.363 . S
C1254 C1253 1.415 . S
C1255 H1231 0.951 . S
C1255 C1256 1.366 . S
C1255 C1257 1.388 . S
C1256 C1255 1.366 . S
C1256 C1260 1.385 . S
C1257 H1232 0.951 . S
C1257 C1255 1.388 . S
C1257 C1258 1.366 . S
C1258 C1257 1.366 . S
C1258 C1259 1.414 . S
C1258 C1261 1.499 . S
C1259 H1233 0.950 . S
C1259 C1258 1.414 . S
C1259 C1260 1.374 . S
C1260 H1234 0.950 . S
C1260 C1256 1.385 . S
C1260 C1259 1.374 . S
C1261 C1258 1.499 . S
C1261 C1262 1.373 . S
C1261 C1263 1.389 . S
C1262 H1235 0.950 . S
C1262 C1248 1.377 . S
C1262 C1261 1.373 . S
C1263 C1247 1.377 . S
C1263 C1261 1.389 . S
C1263 C1264 1.524 . S
C1264 C1263 1.524 . S
C1264 C1265 1.397 . S
C1264 C1269 1.363 . S
C1265 H1236 0.950 . S
C1265 C1264 1.397 . S
C1265 C1266 1.334 . S
C1266 H1237 0.950 . S
C1266 C1265 1.334 . S
C1266 C1267 1.287 . S
C1267 C1266 1.287 . S
C1267 C1268 1.524 . S
C1267 H1270 0.999 . S
C1268 H1238 0.950 . S
C1268 C1267 1.524 . S
C1268 C1269 1.415 . S
C1269 H1239 0.950 . S
C1269 C1264 1.363 . S
C1269 C1268 1.415 . S
H1270 C1267 0.999 . S
H1271 C1252 0.913 . S
C291 C258 1.387 . S
C306 C20 1.388 . S
C341 C156 1.506 . S
C356 C54 1.502 . S
C391 C190 1.663 . S
C406 C88 1.660 . S
C441 C224 1.538 . S
C456 C122 1.527 . S
C491 C5 1.156 . S
C506 C9 1.128 . S
C541 C43 1.090 1_556 S
C556 C39 1.121 . S
C591 C77 1.124 . S
C606 C73 1.150 . S
C641 C111 1.160 . S
C656 C107 1.184 . S
C691 C145 1.150 1_556 S
C706 C141 1.172 . S
C741 C179 1.161 . S
C756 C175 1.184 . S
C791 C213 1.094 . S
C806 C209 1.126 . S
C841 C243 1.126 . S
C856 C247 1.094 . S
C891 C237 1.355 . S
C906 C2 1.353 1_556 S
C941 C36 1.290 . S
C956 C240 1.291 . S
C991 C169 1.672 . S
C1006 C101 1.661 . S
C1041 C135 1.693 . S
C1056 C203 1.689 . S
C1091 C172 1.715 . S
C1106 C67 1.715 . S
C1141 C70 1.665 . S
C1156 C206 1.664 . S
C1191 C271 1.537 . S
C1206 C104 1.537 . S
C1241 C33 1.601 . S
C1256 C138 1.598 . S
