# Generated by pormake.
# Topology uma, (4)-cn, num edge types: 1
# Building blocks:
#     Node 0, Type 0, BuildingBlock: KOZSID_clean_sbu_0, # of connection points: 4
#     Node 1, Type 0, BuildingBlock: KOZSID_clean_sbu_0, # of connection points: 4
#     Node 2, Type 0, BuildingBlock: KOZSID_clean_sbu_0, # of connection points: 4
#     Node 3, Type 0, BuildingBlock: KOZSID_clean_sbu_0, # of connection points: 4
#     Node 4, Type 0, BuildingBlock: KOZSID_clean_sbu_0, # of connection points: 4
#     Node 5, Type 0, BuildingBlock: KOZSID_clean_sbu_0, # of connection points: 4
#     Node 6, Type 0, BuildingBlock: KOZSID_clean_sbu_0, # of connection points: 4
#     Node 7, Type 0, BuildingBlock: KOZSID_clean_sbu_0, # of connection points: 4
#     Node 8, Type 0, BuildingBlock: KOZSID_clean_sbu_0, # of connection points: 4
#     Node 9, Type 0, BuildingBlock: KOZSID_clean_sbu_0, # of connection points: 4
#     Node 10, Type 0, BuildingBlock: KOZSID_clean_sbu_0, # of connection points: 4
#     Node 11, Type 0, BuildingBlock: KOZSID_clean_sbu_0, # of connection points: 4
#     Node 12, Type 0, BuildingBlock: KOZSID_clean_sbu_0, # of connection points: 4
#     Node 13, Type 0, BuildingBlock: KOZSID_clean_sbu_0, # of connection points: 4
#     Node 14, Type 0, BuildingBlock: KOZSID_clean_sbu_0, # of connection points: 4
#     Node 15, Type 0, BuildingBlock: KOZSID_clean_sbu_0, # of connection points: 4
#     Node 16, Type 0, BuildingBlock: KOZSID_clean_sbu_0, # of connection points: 4
#     Node 17, Type 0, BuildingBlock: KOZSID_clean_sbu_0, # of connection points: 4
#     Node 18, Type 0, BuildingBlock: KOZSID_clean_sbu_0, # of connection points: 4
#     Node 19, Type 0, BuildingBlock: KOZSID_clean_sbu_0, # of connection points: 4
#     Node 20, Type 0, BuildingBlock: KOZSID_clean_sbu_0, # of connection points: 4
#     Node 21, Type 0, BuildingBlock: KOZSID_clean_sbu_0, # of connection points: 4
#     Node 22, Type 0, BuildingBlock: KOZSID_clean_sbu_0, # of connection points: 4
#     Node 23, Type 0, BuildingBlock: KOZSID_clean_sbu_0, # of connection points: 4
#     Node 24, Type 0, BuildingBlock: KOZSID_clean_sbu_0, # of connection points: 4
#     Node 25, Type 0, BuildingBlock: KOZSID_clean_sbu_0, # of connection points: 4
#     Node 26, Type 0, BuildingBlock: KOZSID_clean_sbu_0, # of connection points: 4
#     Node 27, Type 0, BuildingBlock: KOZSID_clean_sbu_0, # of connection points: 4
#     Node 28, Type 0, BuildingBlock: KOZSID_clean_sbu_0, # of connection points: 4
#     Node 29, Type 0, BuildingBlock: KOZSID_clean_sbu_0, # of connection points: 4
#     Node 30, Type 0, BuildingBlock: KOZSID_clean_sbu_0, # of connection points: 4
#     Node 31, Type 0, BuildingBlock: KOZSID_clean_sbu_0, # of connection points: 4
#     Node 32, Type 0, BuildingBlock: KOZSID_clean_sbu_0, # of connection points: 4
#     Node 33, Type 0, BuildingBlock: KOZSID_clean_sbu_0, # of connection points: 4
#     Node 34, Type 0, BuildingBlock: KOZSID_clean_sbu_0, # of connection points: 4
#     Node 35, Type 0, BuildingBlock: KOZSID_clean_sbu_0, # of connection points: 4
#     Edge 36, Type (0, 0), BuildingBlock: KIFKEQ_clean_linker_1, # of connection points: 2
#     Edge 37, Type (0, 0), BuildingBlock: KIFKEQ_clean_linker_1, # of connection points: 2
#     Edge 38, Type (0, 0), BuildingBlock: KIFKEQ_clean_linker_1, # of connection points: 2
#     Edge 39, Type (0, 0), BuildingBlock: KIFKEQ_clean_linker_1, # of connection points: 2
#     Edge 40, Type (0, 0), BuildingBlock: KIFKEQ_clean_linker_1, # of connection points: 2
#     Edge 41, Type (0, 0), BuildingBlock: KIFKEQ_clean_linker_1, # of connection points: 2
#     Edge 42, Type (0, 0), BuildingBlock: KIFKEQ_clean_linker_1, # of connection points: 2
#     Edge 43, Type (0, 0), BuildingBlock: KIFKEQ_clean_linker_1, # of connection points: 2
#     Edge 44, Type (0, 0), BuildingBlock: KIFKEQ_clean_linker_1, # of connection points: 2
#     Edge 45, Type (0, 0), BuildingBlock: KIFKEQ_clean_linker_1, # of connection points: 2
#     Edge 46, Type (0, 0), BuildingBlock: KIFKEQ_clean_linker_1, # of connection points: 2
#     Edge 47, Type (0, 0), BuildingBlock: KIFKEQ_clean_linker_1, # of connection points: 2
#     Edge 48, Type (0, 0), BuildingBlock: KIFKEQ_clean_linker_1, # of connection points: 2
#     Edge 49, Type (0, 0), BuildingBlock: KIFKEQ_clean_linker_1, # of connection points: 2
#     Edge 50, Type (0, 0), BuildingBlock: KIFKEQ_clean_linker_1, # of connection points: 2
#     Edge 51, Type (0, 0), BuildingBlock: KIFKEQ_clean_linker_1, # of connection points: 2
#     Edge 52, Type (0, 0), BuildingBlock: KIFKEQ_clean_linker_1, # of connection points: 2
#     Edge 53, Type (0, 0), BuildingBlock: KIFKEQ_clean_linker_1, # of connection points: 2
#     Edge 54, Type (0, 0), BuildingBlock: KIFKEQ_clean_linker_1, # of connection points: 2
#     Edge 55, Type (0, 0), BuildingBlock: KIFKEQ_clean_linker_1, # of connection points: 2
#     Edge 56, Type (0, 0), BuildingBlock: KIFKEQ_clean_linker_1, # of connection points: 2
#     Edge 57, Type (0, 0), BuildingBlock: KIFKEQ_clean_linker_1, # of connection points: 2
#     Edge 58, Type (0, 0), BuildingBlock: KIFKEQ_clean_linker_1, # of connection points: 2
#     Edge 59, Type (0, 0), BuildingBlock: KIFKEQ_clean_linker_1, # of connection points: 2
#     Edge 60, Type (0, 0), BuildingBlock: KIFKEQ_clean_linker_1, # of connection points: 2
#     Edge 61, Type (0, 0), BuildingBlock: KIFKEQ_clean_linker_1, # of connection points: 2
#     Edge 62, Type (0, 0), BuildingBlock: KIFKEQ_clean_linker_1, # of connection points: 2
#     Edge 63, Type (0, 0), BuildingBlock: KIFKEQ_clean_linker_1, # of connection points: 2
#     Edge 64, Type (0, 0), BuildingBlock: KIFKEQ_clean_linker_1, # of connection points: 2
#     Edge 65, Type (0, 0), BuildingBlock: KIFKEQ_clean_linker_1, # of connection points: 2
#     Edge 66, Type (0, 0), BuildingBlock: KIFKEQ_clean_linker_1, # of connection points: 2
#     Edge 67, Type (0, 0), BuildingBlock: KIFKEQ_clean_linker_1, # of connection points: 2
#     Edge 68, Type (0, 0), BuildingBlock: KIFKEQ_clean_linker_1, # of connection points: 2
#     Edge 69, Type (0, 0), BuildingBlock: KIFKEQ_clean_linker_1, # of connection points: 2
#     Edge 70, Type (0, 0), BuildingBlock: KIFKEQ_clean_linker_1, # of connection points: 2
#     Edge 71, Type (0, 0), BuildingBlock: KIFKEQ_clean_linker_1, # of connection points: 2
#     Edge 72, Type (0, 0), BuildingBlock: KIFKEQ_clean_linker_1, # of connection points: 2
#     Edge 73, Type (0, 0), BuildingBlock: KIFKEQ_clean_linker_1, # of connection points: 2
#     Edge 74, Type (0, 0), BuildingBlock: KIFKEQ_clean_linker_1, # of connection points: 2
#     Edge 75, Type (0, 0), BuildingBlock: KIFKEQ_clean_linker_1, # of connection points: 2
#     Edge 76, Type (0, 0), BuildingBlock: KIFKEQ_clean_linker_1, # of connection points: 2
#     Edge 77, Type (0, 0), BuildingBlock: KIFKEQ_clean_linker_1, # of connection points: 2
#     Edge 78, Type (0, 0), BuildingBlock: KIFKEQ_clean_linker_1, # of connection points: 2
#     Edge 79, Type (0, 0), BuildingBlock: KIFKEQ_clean_linker_1, # of connection points: 2
#     Edge 80, Type (0, 0), BuildingBlock: KIFKEQ_clean_linker_1, # of connection points: 2
#     Edge 81, Type (0, 0), BuildingBlock: KIFKEQ_clean_linker_1, # of connection points: 2
#     Edge 82, Type (0, 0), BuildingBlock: KIFKEQ_clean_linker_1, # of connection points: 2
#     Edge 83, Type (0, 0), BuildingBlock: KIFKEQ_clean_linker_1, # of connection points: 2
#     Edge 84, Type (0, 0), BuildingBlock: KIFKEQ_clean_linker_1, # of connection points: 2
#     Edge 85, Type (0, 0), BuildingBlock: KIFKEQ_clean_linker_1, # of connection points: 2
#     Edge 86, Type (0, 0), BuildingBlock: KIFKEQ_clean_linker_1, # of connection points: 2
#     Edge 87, Type (0, 0), BuildingBlock: KIFKEQ_clean_linker_1, # of connection points: 2
#     Edge 88, Type (0, 0), BuildingBlock: KIFKEQ_clean_linker_1, # of connection points: 2
#     Edge 89, Type (0, 0), BuildingBlock: KIFKEQ_clean_linker_1, # of connection points: 2
#     Edge 90, Type (0, 0), BuildingBlock: KIFKEQ_clean_linker_1, # of connection points: 2
#     Edge 91, Type (0, 0), BuildingBlock: KIFKEQ_clean_linker_1, # of connection points: 2
#     Edge 92, Type (0, 0), BuildingBlock: KIFKEQ_clean_linker_1, # of connection points: 2
#     Edge 93, Type (0, 0), BuildingBlock: KIFKEQ_clean_linker_1, # of connection points: 2
#     Edge 94, Type (0, 0), BuildingBlock: KIFKEQ_clean_linker_1, # of connection points: 2
#     Edge 95, Type (0, 0), BuildingBlock: KIFKEQ_clean_linker_1, # of connection points: 2
#     Edge 96, Type (0, 0), BuildingBlock: KIFKEQ_clean_linker_1, # of connection points: 2
#     Edge 97, Type (0, 0), BuildingBlock: KIFKEQ_clean_linker_1, # of connection points: 2
#     Edge 98, Type (0, 0), BuildingBlock: KIFKEQ_clean_linker_1, # of connection points: 2
#     Edge 99, Type (0, 0), BuildingBlock: KIFKEQ_clean_linker_1, # of connection points: 2
#     Edge 100, Type (0, 0), BuildingBlock: KIFKEQ_clean_linker_1, # of connection points: 2
#     Edge 101, Type (0, 0), BuildingBlock: KIFKEQ_clean_linker_1, # of connection points: 2
#     Edge 102, Type (0, 0), BuildingBlock: KIFKEQ_clean_linker_1, # of connection points: 2
#     Edge 103, Type (0, 0), BuildingBlock: KIFKEQ_clean_linker_1, # of connection points: 2
#     Edge 104, Type (0, 0), BuildingBlock: KIFKEQ_clean_linker_1, # of connection points: 2
#     Edge 105, Type (0, 0), BuildingBlock: KIFKEQ_clean_linker_1, # of connection points: 2
#     Edge 106, Type (0, 0), BuildingBlock: KIFKEQ_clean_linker_1, # of connection points: 2
#     Edge 107, Type (0, 0), BuildingBlock: KIFKEQ_clean_linker_1, # of connection points: 2
# Relax obj value: 0.141
# Max RMSD: 0.173
# Mean RMSD: 0.156
data_MOF--net-uma--node1-KOZSID_clean_sbu_0--edge1-KIFKEQ_clean_linker_1
_symmetry_space_group_name_H-M    P1
_symmetry_Int_Tables_number       1
_symmetry_cell_setting            triclinic
loop_
_symmetry_equiv_pos_as_xyz
'x, y, z'
_cell_length_a     104.34956
_cell_length_b     108.46401
_cell_length_c     44.818901
_cell_angle_alpha  87.952289
_cell_angle_beta   89.964099
_cell_angle_gamma 118.89186
loop_
_atom_site_label
_atom_site_type_symbol
_atom_site_fract_x
_atom_site_fract_y
_atom_site_fract_z
_atom_type_partial_charge
C0 C 0.09474 0.37739 0.07738 0.0
C1 C 0.08998 0.36854 0.10278 0.0
C2 C 0.08914 0.35601 0.09517 0.0
C3 C 0.09349 0.35787 0.06565 0.0
N4 N 0.09701 0.37078 0.05427 0.0
Co5 Co 0.10379 0.37758 0.01245 0.0
N6 N 0.09557 0.35811 0.99788 0.0
C7 C 0.09207 0.34655 0.01542 0.0
C8 C 0.08694 0.33451 0.9996 0.0
C9 C 0.08737 0.33878 0.97023 0.0
C10 C 0.09273 0.35326 0.96967 0.0
N11 N 0.11051 0.38437 0.97052 0.0
C12 C 0.1066 0.37744 0.94442 0.0
C13 C 0.11421 0.38654 0.92044 0.0
C14 C 0.12329 0.39942 0.93197 0.0
C15 C 0.12073 0.39757 0.9623 0.0
N16 N 0.11185 0.39697 0.0274 0.0
C17 C 0.1219 0.40876 0.01279 0.0
C18 C 0.12472 0.42074 0.02727 0.0
C19 C 0.11593 0.41618 0.05256 0.0
C20 C 0.10826 0.40157 0.05245 0.0
N21 N 0.12249 0.37783 0.02034 0.0
C22 C 0.14956 0.37859 0.02975 0.0
C23 C 0.14376 0.38404 0.0506 0.0
C24 C 0.13018 0.38347 0.04559 0.0
C25 C 0.14147 0.37278 1.00418 0.0
C26 C 0.1281 0.37255 0.99988 0.0
N27 N 0.08547 0.37743 1.00426 0.0
C28 C 0.07244 0.38882 0.98355 0.0
C29 C 0.05921 0.37683 0.99092 0.0
C30 C 0.05926 0.36526 1.00552 0.0
C31 C 0.07253 0.36581 0.01223 0.0
C32 C 0.0855 0.38886 0.99019 0.0
H33 H 0.07234 0.3568 0.0236 0.0
H34 H 0.09562 0.39808 0.98369 0.0
H35 H 0.12592 0.38764 0.06208 0.0
H36 H 0.12237 0.36815 0.97971 0.0
C37 C 0.09176 0.34718 0.04665 0.0
C38 C 0.09805 0.3923 0.07673 0.0
C39 C 0.09651 0.36213 0.94183 0.0
C40 C 0.12584 0.40828 0.98303 0.0
H41 H 0.08745 0.37089 0.12455 0.0
H42 H 0.08522 0.3465 0.10917 0.0
H43 H 0.08302 0.32384 1.00838 0.0
H44 H 0.08437 0.33205 0.95135 0.0
H45 H 0.11336 0.38415 0.89707 0.0
H46 H 0.1305 0.40909 0.91956 0.0
H47 H 0.13164 0.43156 0.01948 0.0
H48 H 0.11513 0.42294 0.06872 0.0
H49 H 0.14956 0.38854 0.07081 0.0
H50 H 0.14555 0.36863 0.98718 0.0
H51 H 0.07268 0.39792 0.97219 0.0
H52 H 0.04911 0.35585 0.01167 0.0
C53 C 0.63083 0.71473 0.07968 0.0
C54 C 0.64037 0.71945 0.10334 0.0
C55 C 0.65295 0.73096 0.09258 0.0
C56 C 0.65051 0.73262 0.06297 0.0
N57 N 0.63717 0.72289 0.05445 0.0
Co58 Co 0.62974 0.72106 0.013 0.0
N59 N 0.64975 0.73243 0.99493 0.0
C60 C 0.66173 0.741 0.01012 0.0
C61 C 0.67409 0.74777 0.99229 0.0
C62 C 0.6696 0.74336 0.96403 0.0
C63 C 0.65465 0.73415 0.96604 0.0
N64 N 0.62223 0.71907 0.97159 0.0
C65 C 0.62931 0.72179 0.94452 0.0
C66 C 0.61959 0.71935 0.92151 0.0
C67 C 0.6061 0.71513 0.93457 0.0
C68 C 0.60826 0.71523 0.96482 0.0
N69 N 0.60986 0.70969 0.03137 0.0
C70 C 0.59728 0.70699 0.0181 0.0
C71 C 0.58518 0.69838 0.03566 0.0
C72 C 0.59054 0.69549 0.0615 0.0
C73 C 0.60566 0.70246 0.0583 0.0
N74 N 0.62822 0.73835 0.01632 0.0
C75 C 0.62467 0.76238 0.01909 0.0
C76 C 0.63031 0.75971 0.9933 0.0
C77 C 0.63216 0.7478 0.99249 0.0
C78 C 0.62113 0.75294 0.04382 0.0
C79 C 0.62284 0.74091 0.04187 0.0
N80 N 0.631 0.7039 0.00972 0.0
C81 C 0.61888 0.67904 1.0018 0.0
C82 C 0.6307 0.67811 0.01404 0.0
C83 C 0.64301 0.69048 0.02255 0.0
C84 C 0.64296 0.70327 0.0201 0.0
C85 C 0.61927 0.69206 0.99974 0.0
H86 H 0.65238 0.71257 0.02749 0.0
H87 H 0.60984 0.69242 0.99111 0.0
H88 H 0.63664 0.74621 0.97229 0.0
H89 H 0.61964 0.73359 0.06091 0.0
C90 C 0.66128 0.74092 0.04142 0.0
C91 C 0.61572 0.70277 0.08193 0.0
C92 C 0.64537 0.72825 0.93977 0.0
C93 C 0.59729 0.71014 0.98737 0.0
H94 H 0.63859 0.71497 0.12588 0.0
H95 H 0.663 0.73684 0.10452 0.0
H96 H 0.68514 0.7548 0.99912 0.0
H97 H 0.67655 0.7467 0.94418 0.0
H98 H 0.62205 0.7208 0.89777 0.0
H99 H 0.5959 0.71213 0.9233 0.0
H100 H 0.5738 0.69407 0.0298 0.0
H101 H 0.58408 0.68896 0.08044 0.0
H102 H 0.63337 0.76684 0.97384 0.0
H103 H 0.61672 0.75464 0.06419 0.0
H104 H 0.60924 0.66975 0.99467 0.0
H105 H 0.6526 0.69027 0.03118 0.0
C106 C 0.29299 0.91495 0.0916 0.0
C107 C 0.28724 0.91807 0.11631 0.0
C108 C 0.27472 0.91821 0.10717 0.0
C109 C 0.27344 0.91511 0.07747 0.0
N110 N 0.28434 0.91298 0.06751 0.0
Co111 Co 0.28688 0.9088 0.02579 0.0
N112 N 0.27433 0.91649 1.0094 0.0
C113 C 0.26461 0.9184 0.02564 0.0
C114 C 0.25703 0.9234 1.00866 0.0
C115 C 0.26217 0.92456 0.97991 0.0
C116 C 0.27268 0.9202 0.98084 0.0
N117 N 0.28954 0.90469 0.98399 0.0
C118 C 0.28663 0.90928 0.9574 0.0
C119 C 0.29006 0.90339 0.93379 0.0
C120 C 0.29499 0.89469 0.94602 0.0
C121 C 0.29438 0.89574 0.97638 0.0
N122 N 0.29948 0.90128 0.04258 0.0
C123 C 0.30325 0.89274 0.02849 0.0
C124 C 0.31303 0.89017 0.04437 0.0
C125 C 0.31557 0.89759 0.06994 0.0
C126 C 0.30707 0.90423 0.06855 0.0
N127 N 0.26948 0.89002 0.0307 0.0
C128 C 0.24418 0.8633 0.03715 0.0
C129 C 0.25433 0.86869 0.06025 0.0
C130 C 0.26691 0.88196 0.05651 0.0
C131 C 0.24725 0.87165 0.01067 0.0
C132 C 0.25972 0.88489 1.00806 0.0
N133 N 0.30403 0.92727 0.02103 0.0
C134 C 0.32977 0.94145 0.00993 0.0
C135 C 0.32969 0.95281 0.02342 0.0
C136 C 0.31646 0.95144 0.03413 0.0
C137 C 0.30371 0.93863 0.03236 0.0
C138 C 0.31677 0.92868 1.00911 0.0
H139 H 0.29369 0.93776 0.04117 0.0
H140 H 0.31714 0.91985 0.99979 0.0
H141 H 0.2745 0.88577 0.07462 0.0
H142 H 0.26142 0.89097 0.98751 0.0
C143 C 0.26438 0.91716 0.05701 0.0
C144 C 0.30609 0.91303 0.09221 0.0
C145 C 0.27956 0.91825 0.95385 0.0
C146 C 0.30021 0.89026 0.99807 0.0
H147 H 0.29166 0.9201 0.13852 0.0
H148 H 0.26786 0.92102 0.12023 0.0
H149 H 0.24894 0.92616 0.01631 0.0
H150 H 0.25838 0.92792 0.9604 0.0
H151 H 0.28897 0.90507 0.9102 0.0
H152 H 0.29895 0.88865 0.93411 0.0
H153 H 0.3185 0.88443 0.03728 0.0
H154 H 0.32313 0.89826 0.08707 0.0
H155 H 0.25255 0.86284 0.08132 0.0
H156 H 0.24015 0.86801 0.99168 0.0
H157 H 0.33983 0.94231 1.00097 0.0
H158 H 0.31599 0.96021 0.04393 0.0
C159 C 0.37833 0.08923 0.9287 0.0
C160 C 0.36891 0.08502 0.90479 0.0
C161 C 0.35617 0.08456 0.91434 0.0
C162 C 0.3584 0.08842 0.94354 0.0
N163 N 0.37175 0.09128 0.95291 0.0
Co164 Co 0.379 0.09659 0.99403 0.0
N165 N 0.35889 0.08894 0.01142 0.0
C166 C 0.34693 0.0863 0.99564 0.0
C167 C 0.3345 0.08129 0.01324 0.0
C168 C 0.33894 0.08087 0.04192 0.0
C169 C 0.3539 0.08562 0.0403 0.0
N170 N 0.38629 0.1019 0.03514 0.0
C171 C 0.37913 0.09775 0.06219 0.0
C172 C 0.38874 0.10439 0.08501 0.0
C173 C 0.40218 0.1131 0.07176 0.0
C174 C 0.40014 0.1113 0.04161 0.0
N175 N 0.39899 0.10401 0.97643 0.0
C176 C 0.41144 0.11325 0.98924 0.0
C177 C 0.42367 0.11613 0.97242 0.0
C178 C 0.41855 0.10818 0.94755 0.0
C179 C 0.40343 0.10081 0.95055 0.0
N180 N 0.38008 0.11514 0.98719 0.0
C181 C 0.38286 0.14234 0.9803 0.0
C182 C 0.37589 0.13356 1.00556 0.0
C183 C 0.37477 0.12021 1.00868 0.0
C184 C 0.38803 0.1369 0.95805 0.0
C185 C 0.38645 0.12329 0.96183 0.0
N186 N 0.37803 0.07841 1.00121 0.0
C187 C 0.38909 0.06471 0.01934 0.0
C188 C 0.37631 0.05237 0.01338 0.0
C189 C 0.36452 0.05323 1.00069 0.0
C190 C 0.36565 0.06638 0.9945 0.0
C191 C 0.38967 0.07766 0.01335 0.0
H192 H 0.35647 0.06681 0.98461 0.0
H193 H 0.39949 0.08706 0.01886 0.0
H194 H 0.36969 0.11408 0.02887 0.0
H195 H 0.3906 0.11944 0.94445 0.0
C196 C 0.34748 0.08664 0.96428 0.0
C197 C 0.39357 0.09167 0.92754 0.0
C198 C 0.36317 0.08834 0.06683 0.0
C199 C 0.41121 0.1165 0.01929 0.0
H200 H 0.37092 0.08237 0.88287 0.0
H201 H 0.34618 0.08104 0.90194 0.0
H202 H 0.32344 0.07798 1.00605 0.0
H203 H 0.33202 0.07767 0.06179 0.0
H204 H 0.3863 0.10316 0.10874 0.0
H205 H 0.41232 0.1196 0.08291 0.0
H206 H 0.435 0.12267 0.97821 0.0
H207 H 0.42517 0.10782 0.92935 0.0
H208 H 0.37124 0.13689 0.02308 0.0
H209 H 0.39356 0.14317 0.93812 0.0
H210 H 0.39836 0.06432 0.02927 0.0
H211 H 0.3545 0.04379 0.99565 0.0
C212 C 0.91995 0.29127 0.93737 0.0
C213 C 0.92366 0.28613 0.91282 0.0
C214 C 0.92463 0.27449 0.92291 0.0
C215 C 0.92138 0.27309 0.95298 0.0
N216 N 0.91838 0.28307 0.96235 0.0
Co217 Co 0.91359 0.28502 1.00431 0.0
N218 N 0.92234 0.27354 0.02102 0.0
C219 C 0.92529 0.26487 1.00511 0.0
C220 C 0.93104 0.25801 0.02205 0.0
C221 C 0.93154 0.26245 0.05051 0.0
C222 C 0.92593 0.27174 0.04952 0.0
N223 N 0.90886 0.28709 0.04632 0.0
C224 C 0.91356 0.28427 0.07284 0.0
C225 C 0.90676 0.28682 0.09662 0.0
C226 C 0.89748 0.29123 0.08463 0.0
C227 C 0.89903 0.29112 0.05422 0.0
N228 N 0.90499 0.29651 0.98717 0.0
C229 C 0.89568 0.29957 1.00172 0.0
C230 C 0.89249 0.30868 0.98538 0.0
C231 C 0.90031 0.31151 0.95897 0.0
C232 C 0.90778 0.30385 0.96035 0.0
N233 N 0.89456 0.26778 1.00202 0.0
C234 C 0.86734 0.24291 0.99952 0.0
C235 C 0.87595 0.246 0.02511 0.0
C236 C 0.88945 0.25827 0.02575 0.0
C237 C 0.87274 0.25276 0.97521 0.0
C238 C 0.88627 0.26513 0.977 0.0
N239 N 0.93229 0.3021 1.00645 0.0
C240 C 0.94554 0.32701 0.01375 0.0
C241 C 0.95759 0.32785 0.99846 0.0
C242 C 0.95716 0.3155 0.98907 0.0
C243 C 0.94445 0.30268 0.9937 0.0
C244 C 0.93291 0.31399 0.0174 0.0
H245 H 0.94424 0.29333 0.98572 0.0
H246 H 0.92346 0.31367 0.02788 0.0
H247 H 0.89572 0.26002 0.04571 0.0
H248 H 0.89005 0.27253 0.95805 0.0
C249 C 0.92415 0.26477 0.97388 0.0
C250 C 0.91715 0.3034 0.93585 0.0
C251 C 0.92298 0.27759 0.07643 0.0
C252 C 0.89304 0.29643 0.03254 0.0
H253 H 0.92556 0.29038 0.89005 0.0
H254 H 0.92808 0.2683 0.91012 0.0
H255 H 0.93474 0.25086 0.01454 0.0
H256 H 0.9354 0.25904 0.06984 0.0
H257 H 0.90811 0.28533 0.12018 0.0
H258 H 0.89062 0.29439 0.09669 0.0
H259 H 0.88608 0.31347 0.99257 0.0
H260 H 0.90067 0.3187 0.94125 0.0
H261 H 0.87228 0.2391 0.04492 0.0
H262 H 0.86672 0.25093 0.95473 0.0
H263 H 0.94569 0.33639 0.02176 0.0
H264 H 0.96653 0.3158 0.97792 0.0
C265 C 0.7215 0.63008 0.93824 0.0
C266 C 0.72474 0.63929 0.91361 0.0
C267 C 0.73495 0.65229 0.92236 0.0
C268 C 0.73738 0.65039 0.9518 0.0
N269 N 0.72958 0.63688 0.96226 0.0
Co270 Co 0.72882 0.62998 1.00491 0.0
N271 N 0.74046 0.64965 0.01965 0.0
C272 C 0.74643 0.66167 1.00238 0.0
C273 C 0.75328 0.67365 0.01829 0.0
C274 C 0.75148 0.66907 0.04755 0.0
C275 C 0.74365 0.65446 0.04793 0.0
N276 N 0.72795 0.6231 0.04755 0.0
C277 C 0.73223 0.63027 0.07338 0.0
C278 C 0.72921 0.6211 0.09798 0.0
C279 C 0.72269 0.60777 0.08752 0.0
C280 C 0.72211 0.60946 0.05715 0.0
N281 N 0.71668 0.6104 0.99019 0.0
C282 C 0.71194 0.59827 1.00676 0.0
C283 C 0.70265 0.58652 0.99177 0.0
C284 C 0.70106 0.59145 0.96426 0.0
C285 C 0.70946 0.606 0.96393 0.0
N286 N 0.74742 0.62906 0.99805 0.0
C287 C 0.77409 0.62815 0.99118 0.0
C288 C 0.76144 0.61657 1.00306 0.0
C289 C 0.74841 0.61722 1.0061 0.0
C290 C 0.77304 0.64011 0.98226 0.0
C291 C 0.75979 0.64034 0.98585 0.0
N292 N 0.71058 0.6307 0.01156 0.0
C293 C 0.68503 0.61878 0.02625 0.0
C294 C 0.68321 0.62952 0.0124 0.0
C295 C 0.69549 0.64127 0.99975 0.0
C296 C 0.70902 0.64168 0.99977 0.0
C297 C 0.69878 0.61962 0.0257 0.0
H298 H 0.71802 0.6508 0.98953 0.0
H299 H 0.69953 0.61101 0.03613 0.0
H300 H 0.73936 0.60794 0.0151 0.0
H301 H 0.75997 0.64985 0.97872 0.0
C302 C 0.74473 0.66133 0.97137 0.0
C303 C 0.70998 0.61519 0.93832 0.0
C304 C 0.73926 0.64569 0.07581 0.0
C305 C 0.7148 0.5985 0.03744 0.0
H306 H 0.71976 0.63705 0.89192 0.0
H307 H 0.7393 0.66213 0.90937 0.0
H308 H 0.75865 0.68447 1.00968 0.0
H309 H 0.75531 0.67575 0.0665 0.0
H310 H 0.73135 0.62379 0.12115 0.0
H311 H 0.71846 0.59797 0.10063 0.0
H312 H 0.69706 0.5757 1.00037 0.0
H313 H 0.69416 0.58511 0.94671 0.0
H314 H 0.7615 0.60691 0.00978 0.0
H315 H 0.78249 0.64945 0.97304 0.0
H316 H 0.67585 0.60963 0.03678 0.0
H317 H 0.69467 0.65011 0.98984 0.0
C318 C 0.88344 0.64202 0.95499 0.0
C319 C 0.88119 0.65153 0.93725 0.0
C320 C 0.89466 0.66133 0.92584 0.0
C321 C 0.90435 0.65732 0.93731 0.0
N322 N 0.8978 0.64561 0.95514 0.0
Co323 Co 0.90764 0.63646 0.97712 0.0
N324 N 0.92684 0.65394 0.97409 0.0
C325 C 0.93033 0.66492 0.95464 0.0
C326 C 0.94453 0.67541 0.95692 0.0
C327 C 0.95039 0.67067 0.97887 0.0
C328 C 0.93939 0.65746 0.9889 0.0
N329 N 0.91741 0.62714 0.99885 0.0
C330 C 0.9308 0.6328 0.01131 0.0
C331 C 0.93331 0.62228 0.02389 0.0
C332 C 0.92123 0.60966 0.01835 0.0
C333 C 0.91197 0.61311 1.00292 0.0
N334 N 0.88832 0.61916 0.9801 0.0
C335 C 0.88596 0.60596 0.98565 0.0
C336 C 0.8713 0.59625 0.98727 0.0
C337 C 0.86406 0.60387 0.98247 0.0
C338 C 0.87475 0.61784 0.97825 0.0
N339 N 0.91208 0.63039 0.93949 0.0
C340 C 0.91828 0.61799 0.89155 0.0
C341 C 0.90441 0.61699 0.89489 0.0
C342 C 0.90154 0.62333 0.91902 0.0
C343 C 0.92914 0.62612 0.91148 0.0
C344 C 0.92584 0.63213 0.93509 0.0
N345 N 0.90352 0.64232 0.01506 0.0
C346 C 0.89773 0.63702 0.06745 0.0
C347 C 0.90213 0.65117 0.07226 0.0
C348 C 0.90626 0.66065 0.04746 0.0
C349 C 0.90688 0.65599 0.01897 0.0
C350 C 0.89846 0.63282 0.0388 0.0
H351 H 0.91065 0.66356 1.00035 0.0
H352 H 0.89551 0.62195 0.03616 0.0
H353 H 0.89069 0.62207 0.92179 0.0
H354 H 0.93443 0.63768 0.95051 0.0
C355 C 0.91958 0.66573 0.93732 0.0
C356 C 0.87183 0.62953 0.97086 0.0
C357 C 0.9419 0.64783 1.00899 0.0
C358 C 0.89747 0.60371 0.99546 0.0
H359 H 0.87097 0.65154 0.93327 0.0
H360 H 0.89717 0.67072 0.9123 0.0
H361 H 0.94993 0.6854 0.94442 0.0
H362 H 0.96165 0.67614 0.98589 0.0
H363 H 0.94297 0.62358 0.03539 0.0
H364 H 0.9193 0.59924 0.02535 0.0
H365 H 0.86643 0.58508 0.99289 0.0
H366 H 0.85232 0.59969 0.98224 0.0
H367 H 0.8957 0.61091 0.87979 0.0
H368 H 0.94014 0.62759 0.90935 0.0
H369 H 0.89414 0.62928 0.08588 0.0
H370 H 0.90969 0.67169 0.0502 0.0
C371 C 0.39744 0.29728 0.94269 0.0
C372 C 0.41227 0.30701 0.94186 0.0
C373 C 0.41786 0.30518 0.96838 0.0
C374 C 0.40617 0.29456 0.98398 0.0
N375 N 0.39365 0.28963 0.96878 0.0
Co376 Co 0.37413 0.27491 0.98321 0.0
N377 N 0.38012 0.27799 0.02531 0.0
C378 C 0.39398 0.28425 0.03496 0.0
C379 C 0.39472 0.28476 0.06551 0.0
C380 C 0.38043 0.27832 0.07561 0.0
C381 C 0.37175 0.27423 0.05053 0.0
N382 N 0.35467 0.25998 0.99758 0.0
C383 C 0.34845 0.25746 0.02521 0.0
C384 C 0.33468 0.24565 0.02571 0.0
C385 C 0.33237 0.24061 0.99736 0.0
C386 C 0.34481 0.24959 0.98112 0.0
N387 N 0.36826 0.27216 0.94104 0.0
C388 C 0.35698 0.26067 0.93014 0.0
C389 C 0.35536 0.2623 0.90001 0.0
C390 C 0.36631 0.27565 0.89174 0.0
C391 C 0.37398 0.28142 0.91736 0.0
N392 N 0.38049 0.26053 0.98119 0.0
C393 C 0.38582 0.23759 0.97644 0.0
C394 C 0.38925 0.24751 0.95264 0.0
C395 C 0.38675 0.25904 0.95566 0.0
C396 C 0.38016 0.23969 1.00292 0.0
C397 C 0.37745 0.25107 1.00473 0.0
N398 N 0.3674 0.28889 0.9851 0.0
C399 C 0.34842 0.29496 0.97549 0.0
C400 C 0.35695 0.30838 0.98669 0.0
C401 C 0.37091 0.31178 0.99729 0.0
C402 C 0.37591 0.30186 0.99641 0.0
C403 C 0.35385 0.28551 0.97467 0.0
H404 H 0.38663 0.30467 1.00478 0.0
H405 H 0.34696 0.27538 0.96561 0.0
H406 H 0.38948 0.26652 0.93701 0.0
H407 H 0.3724 0.25188 0.025 0.0
C408 C 0.40578 0.2914 0.01469 0.0
C409 C 0.38716 0.29529 0.91858 0.0
C410 C 0.35573 0.26557 0.0515 0.0
C411 C 0.34659 0.25018 0.94983 0.0
H412 H 0.41841 0.31479 0.92436 0.0
H413 H 0.4289 0.31151 0.97611 0.0
H414 H 0.40445 0.28961 0.07884 0.0
H415 H 0.37683 0.27664 0.09877 0.0
H416 H 0.32712 0.24113 0.04455 0.0
H417 H 0.32256 0.23179 0.98934 0.0
H418 H 0.34679 0.25501 0.88602 0.0
H419 H 0.36838 0.28059 0.86956 0.0
H420 H 0.39378 0.24633 0.93186 0.0
H421 H 0.37728 0.23225 0.02179 0.0
H422 H 0.33743 0.29156 0.96779 0.0
H423 H 0.378 0.32202 1.00601 0.0
C424 C 0.7107 0.10509 0.97627 0.0
C425 C 0.70061 0.10992 0.97364 0.0
C426 C 0.70119 0.11653 0.9996 0.0
C427 C 0.71153 0.11533 0.01659 0.0
N428 N 0.71745 0.10843 1.00277 0.0
Co429 Co 0.73219 0.10372 0.01921 0.0
N430 N 0.72717 0.10579 0.0606 0.0
C431 C 0.72009 0.11278 0.06874 0.0
C432 C 0.7183 0.11257 0.09913 0.0
C433 C 0.72477 0.1051 0.11076 0.0
C434 C 0.73021 0.10118 0.0867 0.0
N435 N 0.74708 0.09914 0.03554 0.0
C436 C 0.74858 0.0952 0.06377 0.0
C437 C 0.76088 0.09343 0.06566 0.0
C438 C 0.76728 0.09652 0.03762 0.0
C439 C 0.7586 0.10001 0.02016 0.0
N440 N 0.73704 0.10165 0.97774 0.0
C441 C 0.74951 0.10223 0.96807 0.0
C442 C 0.74922 0.09974 0.9381 0.0
C443 C 0.73571 0.09745 0.92864 0.0
C444 C 0.72851 0.09864 0.95345 0.0
N445 N 0.74707 0.12377 0.01674 0.0
C446 C 0.77077 0.15145 0.01106 0.0
C447 C 0.76044 0.1458 0.98835 0.0
C448 C 0.74874 0.13198 0.99158 0.0
C449 C 0.76852 0.14297 0.03706 0.0
C450 C 0.75662 0.12936 0.03957 0.0
N451 N 0.71763 0.0837 0.02144 0.0
C452 C 0.71164 0.05977 0.01272 0.0
C453 C 0.69724 0.0549 0.02273 0.0
C454 C 0.69316 0.06477 0.03189 0.0
C455 C 0.70359 0.07914 0.03137 0.0
C456 C 0.72158 0.07412 0.01208 0.0
H457 H 0.70032 0.08657 0.0389 0.0
H458 H 0.7325 0.07746 1.0038 0.0
H459 H 0.74123 0.12781 0.97342 0.0
H460 H 0.75549 0.12319 0.05974 0.0
C461 C 0.71344 0.11746 0.04729 0.0
C462 C 0.71397 0.09761 0.95342 0.0
C463 C 0.73936 0.09432 0.08949 0.0
C464 C 0.75947 0.1019 0.98882 0.0
H465 H 0.69343 0.10862 0.95522 0.0
H466 H 0.69423 0.12086 1.00604 0.0
H467 H 0.71259 0.11694 0.11137 0.0
H468 H 0.72557 0.10296 0.13426 0.0
H469 H 0.76489 0.0904 0.08531 0.0
H470 H 0.77687 0.09587 0.03066 0.0
H471 H 0.75746 0.09888 0.92505 0.0
H472 H 0.73157 0.09507 0.90625 0.0
H473 H 0.76139 0.15191 0.96805 0.0
H474 H 0.77616 0.14654 0.05518 0.0
H475 H 0.7152 0.05252 1.00509 0.0
H476 H 0.68212 0.06139 0.03989 0.0
C477 C 0.60502 0.89952 0.04009 0.0
C478 C 0.59006 0.89475 0.0403 0.0
C479 C 0.58511 0.88889 0.01313 0.0
C480 C 0.5973 0.89041 0.99799 0.0
N481 N 0.60949 0.89678 0.01411 0.0
Co482 Co 0.62951 0.90164 1.00116 0.0
N483 N 0.62432 0.90093 0.95862 0.0
C484 C 0.61066 0.8943 0.94788 0.0
C485 C 0.61047 0.89536 0.91729 0.0
C486 C 0.62488 0.90301 0.90831 0.0
C487 C 0.63312 0.9062 0.93405 0.0
N488 N 0.64958 0.90646 0.98825 0.0
C489 C 0.65629 0.91117 0.96115 0.0
C490 C 0.67036 0.91288 0.96165 0.0
C491 C 0.67235 0.90891 0.99 0.0
C492 C 0.65945 0.90502 1.00526 0.0
N493 N 0.63446 0.90227 0.04383 0.0
C494 C 0.64582 0.90124 0.05531 0.0
C495 C 0.64674 0.9029 0.08567 0.0
C496 C 0.63527 0.90512 0.09348 0.0
C497 C 0.62794 0.90464 0.06738 0.0
N498 N 0.62403 0.88155 1.00164 0.0
C499 C 0.62 0.8539 1.00602 0.0
C500 C 0.61423 0.85892 0.02794 0.0
C501 C 0.61637 0.87273 0.02536 0.0
C502 C 0.62727 0.86295 0.98125 0.0
C503 C 0.629 0.87656 0.97935 0.0
N504 N 0.63527 0.92171 1.0011 0.0
C505 C 0.65198 0.94477 0.01779 0.0
C506 C 0.64301 0.95011 1.00681 0.0
C507 C 0.63028 0.94102 0.99184 0.0
C508 C 0.62656 0.9268 0.98934 0.0
C509 C 0.64798 0.93066 0.01458 0.0
H510 H 0.61653 0.91986 0.97846 0.0
H511 H 0.65509 0.92695 0.02369 0.0
H512 H 0.6122 0.87641 0.04302 0.0
H513 H 0.63491 0.88323 0.96025 0.0
C514 C 0.5984 0.88912 0.96721 0.0
C515 C 0.61469 0.90613 0.06503 0.0
C516 C 0.64918 0.91292 0.9342 0.0
C517 C 0.65697 0.90214 0.03624 0.0
H518 H 0.58351 0.89557 0.05806 0.0
H519 H 0.57413 0.88483 1.0048 0.0
H520 H 0.60098 0.8914 0.90321 0.0
H521 H 0.62888 0.90572 0.88543 0.0
H522 H 0.67828 0.91645 0.94337 0.0
H523 H 0.68219 0.90924 0.99864 0.0
H524 H 0.65527 0.90339 0.10011 0.0
H525 H 0.6328 0.90711 0.11565 0.0
H526 H 0.60821 0.85232 0.04718 0.0
H527 H 0.63213 0.85982 0.96378 0.0
H528 H 0.66209 0.95147 0.02888 0.0
H529 H 0.62308 0.94476 0.98288 0.0
C530 C 0.10363 0.70858 0.07614 0.0
C531 C 0.10895 0.69907 0.07536 0.0
C532 C 0.11588 0.70122 0.04808 0.0
C533 C 0.11432 0.71179 0.03364 0.0
N534 N 0.10689 0.7164 0.05028 0.0
Co535 Co 0.10131 0.73077 0.03782 0.0
N536 N 0.10346 0.72804 0.99512 0.0
C537 C 0.11123 0.72227 0.98396 0.0
C538 C 0.11093 0.72198 0.95337 0.0
C539 C 0.10256 0.72806 0.94484 0.0
C540 C 0.0982 0.73174 0.97085 0.0
N541 N 0.09572 0.74519 0.02548 0.0
C542 C 0.09121 0.74758 0.99861 0.0
C543 C 0.0887 0.75902 0.99948 0.0
C544 C 0.09194 0.76396 0.02786 0.0
C545 C 0.09622 0.75531 0.04276 0.0
N546 N 0.09924 0.73335 0.08061 0.0
C547 C 0.09947 0.74466 0.09245 0.0
C548 C 0.097 0.7429 0.12287 0.0
C549 C 0.09507 0.72966 0.13032 0.0
C550 C 0.09644 0.72407 0.10395 0.0
N551 N 0.12197 0.74562 0.03798 0.0
C552 C 0.15045 0.76891 0.04001 0.0
C553 C 0.14511 0.75819 0.06268 0.0
C554 C 0.13088 0.74667 0.06125 0.0
C555 C 0.14121 0.76736 0.01604 0.0
C556 C 0.12723 0.7557 0.01531 0.0
N557 N 0.08066 0.71632 0.03764 0.0
C558 C 0.05565 0.70913 0.05129 0.0
C559 C 0.05078 0.69657 0.03642 0.0
C560 C 0.06125 0.69402 0.02233 0.0
C561 C 0.07616 0.70398 0.02345 0.0
C562 C 0.07052 0.71885 0.05145 0.0
H563 H 0.08405 0.7018 0.0126 0.0
H564 H 0.07377 0.72854 0.06252 0.0
H565 H 0.12697 0.73875 0.07926 0.0
H566 H 0.12051 0.75514 0.99664 0.0
C567 C 0.11649 0.71522 1.00294 0.0
C568 C 0.09579 0.7103 0.10153 0.0
C569 C 0.09037 0.73992 0.97156 0.0
C570 C 0.09849 0.75486 0.07369 0.0
H571 H 0.10777 0.69123 0.0923 0.0
H572 H 0.12059 0.69513 0.03914 0.0
H573 H 0.11579 0.71748 0.93901 0.0
H574 H 0.10013 0.72977 0.92208 0.0
H575 H 0.08505 0.7634 0.98146 0.0
H576 H 0.09083 0.77255 0.03677 0.0
H577 H 0.09582 0.74999 0.13763 0.0
H578 H 0.09278 0.72464 0.15243 0.0
H579 H 0.15181 0.75867 0.0815 0.0
H580 H 0.14447 0.77533 0.99816 0.0
H581 H 0.04796 0.71167 0.06204 0.0
H582 H 0.05794 0.6844 0.01064 0.0
C583 C 0.24439 0.36496 0.06458 0.0
C584 C 0.2322 0.35581 0.08182 0.0
C585 C 0.23491 0.34536 0.09294 0.0
C586 C 0.24855 0.34872 0.08192 0.0
N587 N 0.25459 0.36066 0.06472 0.0
Co588 Co 0.27392 0.36924 0.04386 0.0
N589 N 0.27449 0.3512 0.0466 0.0
C590 C 0.26585 0.33989 0.06442 0.0
C591 C 0.26831 0.3287 0.06075 0.0
C592 C 0.27937 0.33335 0.03974 0.0
C593 C 0.28321 0.34725 0.032 0.0
N594 N 0.2934 0.37802 0.02338 0.0
C595 C 0.30104 0.37202 0.01205 0.0
C596 C 0.31473 0.38229 1.00143 0.0
C597 C 0.3157 0.39509 1.00666 0.0
C598 C 0.30263 0.39199 0.02019 0.0
N599 N 0.27299 0.38711 0.04097 0.0
C600 C 0.28436 0.4001 0.03597 0.0
C601 C 0.28014 0.41031 0.03425 0.0
C602 C 0.26519 0.40325 0.03842 0.0
C603 C 0.26114 0.3891 0.04248 0.0
N604 N 0.28395 0.3746 0.08221 0.0
C605 C 0.30241 0.38636 0.13076 0.0
C606 C 0.29004 0.38814 0.12666 0.0
C607 C 0.28089 0.38211 0.10226 0.0
C608 C 0.3046 0.3777 0.11139 0.0
C609 C 0.29536 0.37201 0.08749 0.0
N610 N 0.26441 0.36408 1.00522 0.0
C611 C 0.2653 0.36958 0.95254 0.0
C612 C 0.25467 0.35571 0.94748 0.0
C613 C 0.24824 0.34636 0.97218 0.0
C614 C 0.2533 0.35075 1.00091 0.0
C615 C 0.2699 0.37357 0.9815 0.0
H616 H 0.24868 0.3432 0.01943 0.0
H617 H 0.2784 0.38421 0.98448 0.0
H618 H 0.27172 0.38399 0.09891 0.0
H619 H 0.29802 0.36604 0.07253 0.0
C620 C 0.25439 0.33953 0.08135 0.0
C621 C 0.24617 0.37779 0.04901 0.0
C622 C 0.29651 0.35688 0.01447 0.0
C623 C 0.29803 0.40178 0.0272 0.0
H624 H 0.22234 0.35653 0.08557 0.0
H625 H 0.22743 0.33599 0.10592 0.0
H626 H 0.26258 0.31832 0.0716 0.0
H627 H 0.28434 0.32731 0.03175 0.0
H628 H 0.3233 0.38072 0.9917 0.0
H629 H 0.32479 0.40541 1.00098 0.0
H630 H 0.28699 0.42146 0.02904 0.0
H631 H 0.25809 0.40793 0.0383 0.0
H632 H 0.2878 0.39463 0.14132 0.0
H633 H 0.3137 0.37561 0.11414 0.0
H634 H 0.27035 0.3772 0.9341 0.0
H635 H 0.23995 0.33554 0.96919 0.0
C636 C 0.75993 0.71014 0.41561 0.0
C637 C 0.7537 0.70092 0.44017 0.0
C638 C 0.75079 0.6879 0.43148 0.0
C639 C 0.75529 0.68978 0.40214 0.0
N640 N 0.76122 0.7033 0.39168 0.0
Co641 Co 0.7676 0.71017 0.34907 0.0
N642 N 0.75946 0.69048 0.33439 0.0
C643 C 0.75321 0.67847 0.35167 0.0
C644 C 0.74809 0.66648 0.33581 0.0
C645 C 0.75111 0.67105 0.30656 0.0
C646 C 0.75801 0.68567 0.30615 0.0
N647 N 0.77383 0.71702 0.30647 0.0
C648 C 0.77108 0.70984 0.28068 0.0
C649 C 0.77741 0.719 0.25611 0.0
C650 C 0.78421 0.73234 0.26654 0.0
C651 C 0.78175 0.73066 0.29686 0.0
N652 N 0.77519 0.72977 0.36373 0.0
C653 C 0.78275 0.74189 0.34717 0.0
C654 C 0.78533 0.75367 0.36211 0.0
C655 C 0.7787 0.74878 0.38957 0.0
C656 C 0.77236 0.73422 0.38992 0.0
N657 N 0.78703 0.71097 0.35632 0.0
C658 C 0.81449 0.71168 0.3636 0.0
C659 C 0.8136 0.72329 0.3515 0.0
C660 C 0.79997 0.72274 0.34825 0.0
C661 C 0.80136 0.6998 0.37257 0.0
C662 C 0.78794 0.69967 0.36878 0.0
N663 N 0.74871 0.70957 0.34206 0.0
C664 C 0.73534 0.7217 0.32744 0.0
C665 C 0.72266 0.711 0.3412 0.0
C666 C 0.723 0.69916 0.35366 0.0
C667 C 0.73604 0.69862 0.35367 0.0
C668 C 0.74817 0.72073 0.32798 0.0
H669 H 0.73577 0.68944 0.3638 0.0
H670 H 0.75763 0.72931 0.31764 0.0
H671 H 0.80033 0.73203 0.33906 0.0
H672 H 0.77851 0.69022 0.37596 0.0
C673 C 0.75169 0.67883 0.38262 0.0
C674 C 0.76353 0.72508 0.41548 0.0
C675 C 0.76269 0.69441 0.27826 0.0
C676 C 0.78544 0.74163 0.31653 0.0
H677 H 0.75087 0.70317 0.46175 0.0
H678 H 0.74512 0.67805 0.44443 0.0
H679 H 0.74251 0.65566 0.34444 0.0
H680 H 0.74834 0.66436 0.28766 0.0
H681 H 0.77701 0.7163 0.23298 0.0
H682 H 0.78994 0.74213 0.25344 0.0
H683 H 0.79072 0.76449 0.3535 0.0
H684 H 0.77821 0.75517 0.40707 0.0
H685 H 0.82342 0.73291 0.34475 0.0
H686 H 0.80134 0.69045 0.38196 0.0
H687 H 0.73547 0.73093 0.31701 0.0
H688 H 0.71323 0.69034 0.36347 0.0
C689 C 0.298 0.0484 0.41527 0.0
C690 C 0.30753 0.05292 0.43898 0.0
C691 C 0.32024 0.06431 0.42834 0.0
C692 C 0.31789 0.06612 0.39874 0.0
N693 N 0.30447 0.05658 0.39014 0.0
Co694 Co 0.29711 0.05505 0.34872 0.0
N695 N 0.31719 0.066 0.33077 0.0
C696 C 0.32923 0.07441 0.34596 0.0
C697 C 0.3416 0.08105 0.3281 0.0
C698 C 0.33705 0.07668 0.29981 0.0
C699 C 0.32208 0.06755 0.30191 0.0
N700 N 0.28967 0.05355 0.30736 0.0
C701 C 0.29675 0.05633 0.2803 0.0
C702 C 0.28705 0.05408 0.25731 0.0
C703 C 0.27363 0.05008 0.27041 0.0
C704 C 0.27577 0.05002 0.30064 0.0
N705 N 0.27717 0.04392 0.36696 0.0
C706 C 0.26466 0.04149 0.35372 0.0
C707 C 0.25249 0.03294 0.37115 0.0
C708 C 0.25771 0.0298 0.39688 0.0
C709 C 0.27283 0.03657 0.39375 0.0
N710 N 0.29613 0.07261 0.35252 0.0
C711 C 0.2942 0.09749 0.35649 0.0
C712 C 0.30083 0.09525 0.33165 0.0
C713 C 0.30155 0.08277 0.32995 0.0
C714 C 0.28856 0.087 0.37944 0.0
C715 C 0.2898 0.07473 0.3772 0.0
N716 N 0.29789 0.03765 0.345 0.0
C717 C 0.28542 0.01285 0.33634 0.0
C718 C 0.29708 0.01162 0.34859 0.0
C719 C 0.30948 0.02381 0.35746 0.0
C720 C 0.30968 0.03672 0.35539 0.0
C721 C 0.28606 0.026 0.33466 0.0
H722 H 0.31918 0.04587 0.36306 0.0
H723 H 0.27677 0.02662 0.326 0.0
H724 H 0.30642 0.08134 0.31012 0.0
H725 H 0.28558 0.06692 0.39538 0.0
C726 C 0.32877 0.07434 0.37727 0.0
C727 C 0.28279 0.03662 0.41736 0.0
C728 C 0.31273 0.06205 0.2756 0.0
C729 C 0.26478 0.0449 0.32312 0.0
H730 H 0.30567 0.04837 0.46146 0.0
H731 H 0.33031 0.07001 0.44034 0.0
H732 H 0.35267 0.08803 0.33487 0.0
H733 H 0.3439 0.08011 0.27982 0.0
H734 H 0.28943 0.05534 0.23356 0.0
H735 H 0.26345 0.0472 0.25917 0.0
H736 H 0.24113 0.02886 0.36528 0.0
H737 H 0.25117 0.02324 0.41572 0.0
H738 H 0.3052 0.10302 0.31328 0.0
H739 H 0.28341 0.08836 0.39912 0.0
H740 H 0.27573 0.0037 0.3289 0.0
H741 H 0.31895 0.02338 0.3661 0.0
C742 C 0.95957 0.25012 0.42428 0.0
C743 C 0.95429 0.25432 0.44809 0.0
C744 C 0.94179 0.25438 0.43866 0.0
C745 C 0.94012 0.25033 0.4096 0.0
N746 N 0.9508 0.24775 0.40019 0.0
Co747 Co 0.95288 0.24252 0.35904 0.0
N748 N 0.93984 0.24946 0.34173 0.0
C749 C 0.93032 0.25177 0.35763 0.0
C750 C 0.92269 0.25654 0.34014 0.0
C751 C 0.92761 0.25713 0.31144 0.0
C752 C 0.93798 0.2526 0.31287 0.0
N753 N 0.95522 0.23752 0.31786 0.0
C754 C 0.9523 0.24176 0.29085 0.0
C755 C 0.95544 0.23531 0.26792 0.0
C756 C 0.96039 0.22678 0.28105 0.0
C757 C 0.95999 0.22841 0.31125 0.0
N758 N 0.96583 0.2356 0.37655 0.0
C759 C 0.96927 0.22654 0.36369 0.0
C760 C 0.97875 0.22388 0.38052 0.0
C761 C 0.9814 0.23177 0.40543 0.0
C762 C 0.97343 0.2389 0.40244 0.0
N763 N 0.93572 0.22371 0.36599 0.0
C764 C 0.91148 0.19656 0.37421 0.0
C765 C 0.92131 0.20281 0.39736 0.0
C766 C 0.93346 0.21632 0.39269 0.0
C767 C 0.91394 0.20426 0.34713 0.0
C768 C 0.92593 0.21779 0.34362 0.0
N769 N 0.96978 0.26098 0.35184 0.0
C770 C 0.99459 0.27528 0.33408 0.0
C771 C 0.99369 0.2874 0.33969 0.0
C772 C 0.98078 0.28613 0.35202 0.0
C773 C 0.96897 0.2728 0.3582 0.0
C774 C 0.98242 0.26213 0.34004 0.0
H775 H 0.95915 0.27205 0.36782 0.0
H776 H 0.9832 0.25291 0.33478 0.0
H777 H 0.94107 0.22076 0.41059 0.0
H778 H 0.92728 0.22342 0.32256 0.0
C779 C 0.93071 0.25165 0.38895 0.0
C780 C 0.97254 0.24794 0.42545 0.0
C781 C 0.9451 0.25056 0.28634 0.0
C782 C 0.96594 0.22332 0.33358 0.0
H783 H 0.95901 0.25724 0.46988 0.0
H784 H 0.93521 0.25776 0.45102 0.0
H785 H 0.91489 0.25975 0.34746 0.0
H786 H 0.92395 0.2605 0.29177 0.0
H787 H 0.95406 0.23647 0.24424 0.0
H788 H 0.96418 0.22043 0.2698 0.0
H789 H 0.98375 0.21754 0.37471 0.0
H790 H 0.98842 0.23226 0.42364 0.0
H791 H 0.9198 0.19719 0.41865 0.0
H792 H 0.90653 0.19988 0.32877 0.0
H793 H 1.00445 0.27597 0.32442 0.0
H794 H 0.97983 0.29538 0.3568 0.0
C795 C 0.0486 0.42552 0.25678 0.0
C796 C 0.03987 0.42253 0.23187 0.0
C797 C 0.02717 0.42236 0.24078 0.0
C798 C 0.02883 0.42533 0.27055 0.0
N799 N 0.0418 0.4274 0.28077 0.0
Co800 Co 0.04827 0.43146 0.32263 0.0
N801 N 0.0279 0.42363 0.33862 0.0
C802 C 0.01633 0.42169 0.32215 0.0
C803 C 1.00362 0.41651 0.33887 0.0
C804 C 0.00745 0.41528 0.3677 0.0
C805 C 0.02237 0.41976 0.36708 0.0
N806 N 0.05482 0.43559 0.36454 0.0
C807 C 0.04716 0.43098 0.39098 0.0
C808 C 0.05639 0.43689 0.41475 0.0
C809 C 0.07011 0.44561 0.40276 0.0
C810 C 0.0686 0.44456 0.37237 0.0
N811 N 0.06853 0.43897 0.30627 0.0
C812 C 0.0808 0.44746 0.32062 0.0
C813 C 0.09324 0.44996 0.3051 0.0
C814 C 0.08846 0.44256 0.27947 0.0
C815 C 0.07328 0.436 0.28047 0.0
N816 N 0.04973 0.45024 0.31769 0.0
C817 C 0.05105 0.47677 0.31091 0.0
C818 C 0.04429 0.46789 0.33605 0.0
C819 C 0.04389 0.45485 0.33917 0.0
C820 C 0.05735 0.47216 0.28932 0.0
C821 C 0.05643 0.45881 0.29296 0.0
N822 N 0.04689 0.413 0.32745 0.0
C823 C 0.05819 0.39875 0.33953 0.0
C824 C 0.0468 0.38739 0.32583 0.0
C825 C 0.03511 0.38882 0.31442 0.0
C826 C 0.03527 0.40167 0.31578 0.0
C827 C 0.05807 0.41155 0.33995 0.0
H828 H 0.02623 0.40257 0.30649 0.0
H829 H 0.06724 0.42037 0.34952 0.0
H830 H 0.03876 0.44846 0.35907 0.0
H831 H 0.06106 0.45537 0.27569 0.0
C832 C 0.01755 0.42311 0.2908 0.0
C833 C 0.06359 0.42732 0.2565 0.0
C834 C 0.0311 0.42182 0.39427 0.0
C835 C 0.08006 0.44998 0.35096 0.0
H836 H 0.04238 0.42057 0.20968 0.0
H837 H 0.01756 0.4196 0.22752 0.0
H838 H 0.99278 0.41372 0.33101 0.0
H839 H 1.00018 0.41182 0.38707 0.0
H840 H 0.05352 0.43515 0.43831 0.0
H841 H 0.08007 0.45164 0.41485 0.0
H842 H 0.10443 0.45566 0.31244 0.0
H843 H 0.09544 0.44186 0.26257 0.0
H844 H 0.03943 0.47109 0.35346 0.0
H845 H 0.06265 0.47867 0.26948 0.0
H846 H 0.06727 0.39785 0.34903 0.0
H847 H 0.02589 0.38007 0.30444 0.0
C848 C 0.5864 0.62447 0.273 0.0
C849 C 0.59142 0.62001 0.24922 0.0
C850 C 0.59301 0.60881 0.25988 0.0
C851 C 0.58898 0.60703 0.28957 0.0
N852 N 0.58492 0.61641 0.29819 0.0
Co853 Co 0.57919 0.61797 0.3397 0.0
N854 N 0.58875 0.60744 0.35755 0.0
C855 C 0.59257 0.59919 0.34232 0.0
C856 C 0.59857 0.59281 0.3601 0.0
C857 C 0.59835 0.59716 0.38837 0.0
C858 C 0.59222 0.60602 0.38637 0.0
N859 N 0.57333 0.61947 0.38115 0.0
C860 C 0.57777 0.61683 0.40817 0.0
C861 C 0.57024 0.61893 0.43123 0.0
C862 C 0.56064 0.62268 0.41825 0.0
C863 C 0.56281 0.62276 0.38799 0.0
N864 N 0.56998 0.62869 0.32151 0.0
C865 C 0.5598 0.63092 0.33489 0.0
C866 C 0.55595 0.63928 0.31749 0.0
C867 C 0.56428 0.64251 0.29163 0.0
C868 C 0.57283 0.63598 0.29467 0.0
N869 N 0.56076 0.60017 0.33651 0.0
C870 C 0.53334 0.57549 0.33503 0.0
C871 C 0.53825 0.58562 0.31121 0.0
C872 C 0.552 0.59779 0.31229 0.0
C873 C 0.54281 0.57789 0.35898 0.0
C874 C 0.55625 0.59022 0.35944 0.0
N875 N 0.59721 0.63561 0.34291 0.0
C876 C 0.60909 0.66043 0.35128 0.0
C877 C 0.62206 0.662 0.33863 0.0
C878 C 0.62255 0.64999 0.32966 0.0
C879 C 0.61003 0.63689 0.33209 0.0
C880 C 0.59679 0.64712 0.3533 0.0
H881 H 0.61059 0.62786 0.32438 0.0
H882 H 0.5868 0.64624 0.36227 0.0
H883 H 0.55542 0.60542 0.29378 0.0
H884 H 0.56288 0.59174 0.37876 0.0
C885 C 0.59199 0.5991 0.31104 0.0
C886 C 0.5828 0.6361 0.27097 0.0
C887 C 0.58819 0.61132 0.41276 0.0
C888 C 0.55667 0.6276 0.36558 0.0
H889 H 0.59396 0.62451 0.22667 0.0
H890 H 0.59749 0.60323 0.24784 0.0
H891 H 0.60281 0.58598 0.35328 0.0
H892 H 0.60192 0.59387 0.40832 0.0
H893 H 0.57143 0.61771 0.45497 0.0
H894 H 0.55321 0.62537 0.42958 0.0
H895 H 0.54857 0.64321 0.32347 0.0
H896 H 0.56415 0.64897 0.27279 0.0
H897 H 0.53144 0.58439 0.29215 0.0
H898 H 0.53991 0.5703 0.37755 0.0
H899 H 0.60833 0.66944 0.35881 0.0
H900 H 0.63254 0.65069 0.32071 0.0
C901 C 0.38741 0.96285 0.27108 0.0
C902 C 0.39114 0.97167 0.24568 0.0
C903 C 0.4015 0.98473 0.25389 0.0
C904 C 0.40365 0.98319 0.28368 0.0
N905 N 0.39553 0.96985 0.29483 0.0
Co906 Co 0.39496 0.96331 0.33758 0.0
N907 N 0.40646 0.98312 0.35159 0.0
C908 C 0.41227 0.995 0.33389 0.0
C909 C 0.41906 0.00713 0.34937 0.0
C910 C 0.41733 1.00278 0.37879 0.0
C911 C 0.40955 0.98816 0.37968 0.0
N912 N 0.3945 0.9568 0.38035 0.0
C913 C 0.39911 0.96419 0.40585 0.0
C914 C 0.3964 0.9552 0.43067 0.0
C915 C 0.38988 0.94179 0.42065 0.0
C916 C 0.38893 0.94325 0.39032 0.0
N917 N 0.38274 0.94358 0.32356 0.0
C918 C 0.37786 0.93162 0.3408 0.0
C919 C 0.36812 0.91977 0.32674 0.0
C920 C 0.36635 0.92444 0.29912 0.0
C921 C 0.37526 0.93896 0.29759 0.0
N922 N 0.41357 0.9624 0.33066 0.0
C923 C 0.44015 0.96132 0.32389 0.0
C924 C 0.42722 0.94949 0.33385 0.0
C925 C 0.41424 0.95023 0.33685 0.0
C926 C 0.43945 0.97364 0.31684 0.0
C927 C 0.42625 0.97396 0.32039 0.0
N928 N 0.37672 0.96401 0.34429 0.0
C929 C 0.35133 0.9523 0.36013 0.0
C930 C 0.34929 0.96274 0.34534 0.0
C931 C 0.36142 0.97425 0.33159 0.0
C932 C 0.37497 0.9747 0.33147 0.0
C933 C 0.36511 0.95319 0.3595 0.0
H934 H 0.38383 0.98362 0.32029 0.0
H935 H 0.36605 0.94485 0.37076 0.0
H936 H 0.40495 0.94074 0.34429 0.0
H937 H 0.42674 0.98376 0.31484 0.0
C938 C 0.41087 0.99436 0.30279 0.0
C939 C 0.37572 0.94804 0.27169 0.0
C940 C 0.40566 0.97961 0.40781 0.0
C941 C 0.38124 0.93214 0.37121 0.0
H942 H 0.38647 0.96906 0.22375 0.0
H943 H 0.40619 0.99439 0.2402 0.0
H944 H 0.42449 0.01788 0.34035 0.0
H945 H 0.42136 0.0096 0.3975 0.0
H946 H 0.39859 0.95801 0.45375 0.0
H947 H 0.38578 0.93208 0.43406 0.0
H948 H 0.36231 0.90909 0.33608 0.0
H949 H 0.35884 0.9179 0.28259 0.0
H950 H 0.42703 0.93958 0.33908 0.0
H951 H 0.44914 0.98317 0.30916 0.0
H952 H 0.34229 0.94334 0.37152 0.0
H953 H 0.36048 0.98289 0.32092 0.0
C954 C 0.54929 0.97559 0.28817 0.0
C955 C 0.54677 0.98521 0.2715 0.0
C956 C 0.56013 0.99537 0.26039 0.0
C957 C 0.57003 0.99144 0.27097 0.0
N958 N 0.56372 0.97943 0.28794 0.0
Co959 Co 0.57395 0.97029 0.30855 0.0
N960 N 0.59301 0.98796 0.30573 0.0
C961 C 0.59612 0.99938 0.28794 0.0
C962 C 0.61001 0.01025 0.29152 0.0
C963 C 0.61612 0.00529 0.31247 0.0
C964 C 0.60563 0.99151 0.32026 0.0
N965 N 0.58411 0.96096 0.32881 0.0
C966 C 0.59775 0.96658 0.34019 0.0
C967 C 0.60069 0.95601 0.35068 0.0
C968 C 0.58856 0.94341 0.34531 0.0
C969 C 0.57889 0.94692 0.33183 0.0
N970 N 0.55476 0.9528 0.31151 0.0
C971 C 0.55264 0.93964 0.31622 0.0
C972 C 0.53804 0.92974 0.31795 0.0
C973 C 0.53058 0.93721 0.31408 0.0
C974 C 0.54108 0.95127 0.31027 0.0
N975 N 0.57821 0.96471 0.27007 0.0
C976 C 0.58404 0.95245 0.22135 0.0
C977 C 0.57014 0.9513 0.22553 0.0
C978 C 0.56746 0.95757 0.25003 0.0
C979 C 0.59512 0.96075 0.24072 0.0
C980 C 0.59201 0.96672 0.2647 0.0
N981 N 0.56999 0.97564 0.3473 0.0
C982 C 0.56463 0.96985 0.39973 0.0
C983 C 0.56854 0.98384 0.40521 0.0
C984 C 0.57227 0.99347 0.38074 0.0
C985 C 0.57293 0.98914 0.35193 0.0
C986 C 0.56538 0.96597 0.37075 0.0
H987 H 0.57635 0.99684 0.33361 0.0
H988 H 0.56274 0.95522 0.36754 0.0
H989 H 0.55658 0.95614 0.25349 0.0
H990 H 0.60077 0.97241 0.27967 0.0
C991 C 0.58518 1.00019 0.27134 0.0
C992 C 0.53786 0.96282 0.3036 0.0
C993 C 0.60878 0.98161 0.33798 0.0
C994 C 0.56435 0.93748 0.32479 0.0
H995 H 0.53646 0.9851 0.26814 0.0
H996 H 0.56242 0.00494 0.24778 0.0
H997 H 0.615 0.02065 0.28073 0.0
H998 H 0.62719 0.01104 0.32044 0.0
H999 H 0.61071 0.95725 0.36043 0.0
H1000 H 0.58694 0.93296 0.35088 0.0
H1001 H 0.53336 0.91854 0.32291 0.0
H1002 H 0.51881 0.93286 0.3141 0.0
H1003 H 0.56127 0.9451 0.21085 0.0
H1004 H 0.60613 0.96232 0.23791 0.0
H1005 H 0.56136 0.96199 0.41787 0.0
H1006 H 0.57533 0.00439 0.38394 0.0
C1007 C 0.06572 0.63168 0.27997 0.0
C1008 C 0.08065 0.64104 0.27829 0.0
C1009 C 0.08641 0.63923 0.30457 0.0
C1010 C 0.07474 0.62897 0.32087 0.0
N1011 N 0.06205 0.62425 0.30634 0.0
Co1012 Co 0.0425 0.6101 0.32189 0.0
N1013 N 0.04908 0.61334 0.36364 0.0
C1014 C 0.06306 0.61936 0.37252 0.0
C1015 C 0.06423 0.62017 0.40298 0.0
C1016 C 0.0501 0.61416 0.41385 0.0
C1017 C 0.04106 0.60997 0.3893 0.0
N1018 N 0.02297 0.59577 0.33731 0.0
C1019 C 0.01715 0.5936 0.36525 0.0
C1020 C 1.00319 0.58205 0.36655 0.0
C1021 C 1.00033 0.57682 0.33838 0.0
C1022 C 0.01265 0.58543 0.32145 0.0
N1023 N 0.03607 0.60717 0.28006 0.0
C1024 C 0.02439 0.59579 0.26984 0.0
C1025 C 0.02249 0.59725 0.23978 0.0
C1026 C 0.03366 0.61037 0.23082 0.0
C1027 C 0.04174 0.61618 0.25599 0.0
N1028 N 0.04806 0.59514 0.31984 0.0
C1029 C 0.05139 0.57091 0.31512 0.0
C1030 C 0.05536 0.58098 0.29127 0.0
C1031 C 0.05376 0.59305 0.29419 0.0
C1032 C 0.04662 0.57388 0.34189 0.0
C1033 C 0.04489 0.58582 0.34366 0.0
N1034 N 0.03651 0.62462 0.32401 0.0
C1035 C 0.01786 0.63133 0.31607 0.0
C1036 C 0.02667 0.64453 0.32803 0.0
C1037 C 0.04065 0.64754 0.33786 0.0
C1038 C 0.04535 0.63744 0.33567 0.0
C1039 C 0.02298 0.62167 0.31411 0.0
H1040 H 0.05608 0.63995 0.34354 0.0
H1041 H 0.01582 0.61166 0.30482 0.0
H1042 H 0.05661 0.60043 0.2753 0.0
H1043 H 0.04044 0.58716 0.36419 0.0
C1044 C 0.07463 0.62605 0.35162 0.0
C1045 C 0.05523 0.62983 0.25639 0.0
C1046 C 0.02501 0.60161 0.39119 0.0
C1047 C 0.01402 0.58568 0.29013 0.0
H1048 H 0.08674 0.6486 0.26038 0.0
H1049 H 0.0976 0.64535 0.31169 0.0
H1050 H 0.07416 0.62495 0.41573 0.0
H1051 H 0.04684 0.61285 0.43718 0.0
H1052 H 0.99591 0.57778 0.38586 0.0
H1053 H 0.99026 0.5681 0.33096 0.0
H1054 H 0.0136 0.59002 0.22631 0.0
H1055 H 0.03561 0.61513 0.20849 0.0
H1056 H 0.05916 0.57934 0.27008 0.0
H1057 H 0.04391 0.56687 0.36146 0.0
H1058 H 0.00687 0.62825 0.30881 0.0
H1059 H 0.04794 0.65761 0.34706 0.0
C1060 C 0.37579 0.43877 0.31125 0.0
C1061 C 0.36589 0.44379 0.30807 0.0
C1062 C 0.36616 0.45018 0.33418 0.0
C1063 C 0.3762 0.44871 0.35168 0.0
N1064 N 0.38226 0.44189 0.33803 0.0
Co1065 Co 0.39675 0.43697 0.35488 0.0
N1066 N 0.3912 0.43862 0.3962 0.0
C1067 C 0.3838 0.44534 0.40418 0.0
C1068 C 0.38141 0.44464 0.43445 0.0
C1069 C 0.38786 0.43719 0.44622 0.0
C1070 C 0.394 0.43386 0.42239 0.0
N1071 N 0.41146 0.43225 0.37165 0.0
C1072 C 0.41288 0.42833 0.39998 0.0
C1073 C 0.42524 0.42667 0.40219 0.0
C1074 C 0.43176 0.42978 0.37428 0.0
C1075 C 0.4231 0.43319 0.35658 0.0
N1076 N 0.40203 0.43524 0.31341 0.0
C1077 C 0.41454 0.43577 0.30418 0.0
C1078 C 0.41447 0.43336 0.27422 0.0
C1079 C 0.40107 0.43118 0.26426 0.0
C1080 C 0.39372 0.43242 0.28877 0.0
N1081 N 0.4117 0.45701 0.35333 0.0
C1082 C 0.43639 0.4841 0.34816 0.0
C1083 C 0.42675 0.47851 0.32433 0.0
C1084 C 0.41441 0.46508 0.32751 0.0
C1085 C 0.43271 0.47609 0.37521 0.0
C1086 C 0.42051 0.46263 0.37723 0.0
N1087 N 0.38213 0.41693 0.35593 0.0
C1088 C 0.37576 0.39355 0.34152 0.0
C1089 C 0.3611 0.38867 0.34954 0.0
C1090 C 0.35725 0.3981 0.36223 0.0
C1091 C 0.36795 0.41225 0.3651 0.0
C1092 C 0.38606 0.40758 0.34509 0.0
H1093 H 0.36472 0.41949 0.37394 0.0
H1094 H 0.39716 0.41096 0.33807 0.0
H1095 H 0.40741 0.46097 0.30858 0.0
H1096 H 0.41856 0.4566 0.39795 0.0
C1097 C 0.37754 0.45035 0.38257 0.0
C1098 C 0.37914 0.43135 0.28851 0.0
C1099 C 0.40364 0.42752 0.42563 0.0
C1100 C 0.42425 0.43526 0.32529 0.0
H1101 H 0.35905 0.44272 0.28913 0.0
H1102 H 0.35916 0.45451 0.34035 0.0
H1103 H 0.37534 0.4487 0.44649 0.0
H1104 H 0.3882 0.43472 0.46971 0.0
H1105 H 0.42925 0.42376 0.42199 0.0
H1106 H 0.44146 0.42927 0.3676 0.0
H1107 H 0.42275 0.43241 0.26151 0.0
H1108 H 0.39713 0.42876 0.24177 0.0
H1109 H 0.42893 0.48415 0.30292 0.0
H1110 H 0.43934 0.48 0.39476 0.0
H1111 H 0.37927 0.38655 0.33222 0.0
H1112 H 0.34602 0.39469 0.36891 0.0
C1113 C 0.27261 0.23384 0.37514 0.0
C1114 C 0.25767 0.22878 0.37855 0.0
C1115 C 0.25143 0.22215 0.35272 0.0
C1116 C 0.26289 0.22351 0.33516 0.0
N1117 N 0.27586 0.23052 0.34848 0.0
Co1118 Co 0.29521 0.23525 0.3314 0.0
N1119 N 0.2878 0.23314 0.29021 0.0
C1120 C 0.27362 0.22632 0.28254 0.0
C1121 C 0.2718 0.22675 0.25228 0.0
C1122 C 0.28568 0.23415 0.2402 0.0
C1123 C 0.29528 0.23773 0.26386 0.0
N1124 N 0.31455 0.23973 0.31439 0.0
C1125 C 0.31978 0.24344 0.28594 0.0
C1126 C 0.33379 0.24505 0.28359 0.0
C1127 C 0.3373 0.24215 0.31156 0.0
C1128 C 0.32529 0.23889 0.32943 0.0
N1129 N 0.30246 0.23749 0.3727 0.0
C1130 C 0.31449 0.23707 0.38191 0.0
C1131 C 0.31697 0.23974 0.41174 0.0
C1132 C 0.30579 0.24198 0.42164 0.0
C1133 C 0.29707 0.2405 0.39724 0.0
N1134 N 0.29002 0.2152 0.33395 0.0
C1135 C 0.28779 0.18825 0.34023 0.0
C1136 C 0.28387 0.19404 0.36388 0.0
C1137 C 0.28489 0.2074 0.36016 0.0
C1138 C 0.29182 0.19595 0.3128 0.0
C1139 C 0.293 0.20934 0.31022 0.0
N1140 N 0.30077 0.2553 0.32915 0.0
C1141 C 0.31898 0.27922 0.33747 0.0
C1142 C 0.3094 0.28414 0.32827 0.0
C1143 C 0.29528 0.27428 0.31967 0.0
C1144 C 0.29123 0.25989 0.31999 0.0
C1145 C 0.31446 0.26486 0.33789 0.0
H1146 H 0.28039 0.25247 0.31296 0.0
H1147 H 0.3221 0.26152 0.34561 0.0
H1148 H 0.28214 0.21169 0.37897 0.0
H1149 H 0.29692 0.21515 0.28921 0.0
C1150 C 0.26243 0.22153 0.30438 0.0
C1151 C 0.28348 0.24144 0.39764 0.0
C1152 C 0.31129 0.2442 0.26041 0.0
C1153 C 0.32456 0.23724 0.3608 0.0
H1154 H 0.25195 0.22996 0.39746 0.0
H1155 H 0.24004 0.21769 0.34678 0.0
H1156 H 0.2616 0.22258 0.24044 0.0
H1157 H 0.2884 0.23645 0.21663 0.0
H1158 H 0.34066 0.24785 0.26369 0.0
H1159 H 0.34756 0.24275 0.31819 0.0
H1160 H 0.32625 0.24077 0.42439 0.0
H1161 H 0.30434 0.24454 0.44406 0.0
H1162 H 0.28062 0.18862 0.38556 0.0
H1163 H 0.29442 0.19186 0.29338 0.0
H1164 H 0.3299 0.28643 0.34473 0.0
H1165 H 0.28756 0.27768 0.31231 0.0
C1166 C 0.76897 0.04328 0.41372 0.0
C1167 C 0.77447 0.03395 0.41664 0.0
C1168 C 0.78217 0.0354 0.39063 0.0
C1169 C 0.78096 0.04554 0.37343 0.0
N1170 N 0.77307 0.05052 0.3872 0.0
Co1171 Co 0.76805 0.06472 0.37071 0.0
N1172 N 0.77127 0.06094 0.32933 0.0
C1173 C 0.77904 0.05463 0.32113 0.0
C1174 C 0.77941 0.05349 0.29077 0.0
C1175 C 0.77152 0.05958 0.27925 0.0
C1176 C 0.76681 0.0642 0.30331 0.0
N1177 N 0.76311 0.07904 0.35429 0.0
C1178 C 0.75947 0.08095 0.32615 0.0
C1179 C 0.75728 0.09259 0.32413 0.0
C1180 C 0.75975 0.09813 0.35201 0.0
C1181 C 0.76334 0.08962 0.3695 0.0
N1182 N 0.76481 0.06824 0.41229 0.0
C1183 C 0.76473 0.07982 0.42175 0.0
C1184 C 0.76106 0.07858 0.45162 0.0
C1185 C 0.75868 0.06542 0.46126 0.0
C1186 C 0.7611 0.05935 0.43668 0.0
N1187 N 0.78872 0.07945 0.3722 0.0
C1188 C 0.81719 0.10268 0.3756 0.0
C1189 C 0.81108 0.09248 0.39922 0.0
C1190 C 0.79688 0.08099 0.39708 0.0
C1191 C 0.80872 0.10063 0.35005 0.0
C1192 C 0.79474 0.08901 0.3487 0.0
N1193 N 0.7474 0.05037 0.36923 0.0
C1194 C 0.72216 0.04393 0.37817 0.0
C1195 C 0.71751 0.03037 0.36802 0.0
C1196 C 0.72829 0.02709 0.35831 0.0
C1197 C 0.74316 0.03725 0.359 0.0
C1198 C 0.73701 0.05363 0.37882 0.0
H1199 H 0.75124 0.03452 0.35133 0.0
H1200 H 0.74006 0.06387 0.38704 0.0
H1201 H 0.79237 0.07349 0.41579 0.0
H1202 H 0.78863 0.08805 0.32877 0.0
C1203 C 0.78381 0.04808 0.3426 0.0
C1204 C 0.76024 0.04539 0.43656 0.0
C1205 C 0.75937 0.07275 0.30058 0.0
C1206 C 0.76456 0.08972 0.40081 0.0
H1207 H 0.77288 0.02673 0.43536 0.0
H1208 H 0.78719 0.02915 0.38431 0.0
H1209 H 0.78441 0.04844 0.27852 0.0
H1210 H 0.76963 0.06065 0.2558 0.0
H1211 H 0.75438 0.09674 0.3045 0.0
H1212 H 0.7586 0.10702 0.35886 0.0
H1213 H 0.75933 0.08594 0.46444 0.0
H1214 H 0.7553 0.06079 0.48356 0.0
H1215 H 0.81717 0.09334 0.4193 0.0
H1216 H 0.8126 0.10818 0.33131 0.0
H1217 H 0.71439 0.04724 0.38516 0.0
H1218 H 0.72531 0.01674 0.35043 0.0
C1219 C 0.90996 0.69768 0.39964 0.0
C1220 C 0.89767 0.68782 0.41574 0.0
C1221 C 0.90037 0.67713 0.42449 0.0
C1222 C 0.91407 0.68101 0.41327 0.0
N1223 N 0.92039 0.69363 0.39823 0.0
Co1224 Co 0.94012 0.70301 0.3778 0.0
N1225 N 0.94242 0.68578 0.38407 0.0
C1226 C 0.93251 0.67334 0.39716 0.0
C1227 C 0.9365 0.66305 0.39641 0.0
C1228 C 0.94979 0.66928 0.38202 0.0
C1229 C 0.95329 0.68318 0.37524 0.0
N1230 N 0.96017 0.71266 0.35868 0.0
C1231 C 0.96993 0.70793 0.35432 0.0
C1232 C 0.98314 0.71859 0.34263 0.0
C1233 C 0.98165 0.73039 0.33932 0.0
C1234 C 0.96772 0.72637 0.34938 0.0
N1235 N 0.93725 0.71984 0.36968 0.0
C1236 C 0.94699 0.73228 0.35634 0.0
C1237 C 0.94153 0.7414 0.35132 0.0
C1238 C 0.92732 0.73421 0.36138 0.0
C1239 C 0.92495 0.7211 0.37208 0.0
N1240 N 0.94961 0.71029 0.41682 0.0
C1241 C 0.96916 0.72076 0.46468 0.0
C1242 C 0.96774 0.72989 0.44386 0.0
C1243 C 0.95784 0.7245 0.42065 0.0
C1244 C 0.95954 0.70633 0.4629 0.0
C1245 C 0.94983 0.70137 0.43912 0.0
N1246 N 0.93112 0.6959 0.33889 0.0
C1247 C 0.93148 0.69914 0.28525 0.0
C1248 C 0.91971 0.68557 0.28259 0.0
C1249 C 0.91351 0.67739 0.3089 0.0
C1250 C 0.91935 0.68271 0.33663 0.0
C1251 C 0.93688 0.70407 0.3133 0.0
H1252 H 0.91431 0.67598 0.35599 0.0
H1253 H 0.94592 0.71448 0.31374 0.0
H1254 H 0.95745 0.73213 0.40569 0.0
H1255 H 0.94298 0.69023 0.4388 0.0
C1256 C 0.91995 0.67194 0.41133 0.0
C1257 C 0.91081 0.71017 0.38418 0.0
C1258 C 0.96728 0.6936 0.36148 0.0
C1259 C 0.96106 0.73488 0.34833 0.0
H1260 H 0.88752 0.68798 0.41966 0.0
H1261 H 0.89282 0.66726 0.43588 0.0
H1262 H 0.93052 0.65233 0.40551 0.0
H1263 H 0.95622 0.66415 0.37741 0.0
H1264 H 0.99289 0.71794 0.33715 0.0
H1265 H 0.98972 0.74067 0.3304 0.0
H1266 H 0.94712 0.75189 0.34098 0.0
H1267 H 0.91951 0.73809 0.36066 0.0
H1268 H 0.97447 0.7412 0.4451 0.0
H1269 H 0.95993 0.69883 0.47896 0.0
H1270 H 0.93686 0.70587 0.26572 0.0
H1271 H 0.90422 0.66689 0.30817 0.0
C1272 C 0.42481 0.04291 0.74618 0.0
C1273 C 0.41749 0.03329 0.76963 0.0
C1274 C 0.41462 0.02036 0.76034 0.0
C1275 C 0.42019 0.02272 0.73174 0.0
N1276 N 0.42676 0.03642 0.72234 0.0
Co1277 Co 0.43452 0.04392 0.68066 0.0
N1278 N 0.42738 0.02454 0.66518 0.0
C1279 C 0.42188 0.01244 0.68205 0.0
C1280 C 0.41782 1.00071 0.66572 0.0
C1281 C 0.42078 0.00558 0.63663 0.0
C1282 C 0.42641 0.02007 0.63676 0.0
N1283 N 0.44141 0.05133 0.63855 0.0
C1284 C 0.43882 0.04447 0.61235 0.0
C1285 C 0.44472 0.05397 0.58813 0.0
C1286 C 0.45113 0.06718 0.59927 0.0
C1287 C 0.44874 0.06508 0.62958 0.0
N1288 N 0.4418 0.06325 0.69642 0.0
C1289 C 0.4503 0.07554 0.68112 0.0
C1290 C 0.4531 0.08717 0.69694 0.0
C1291 C 0.44578 0.08198 0.72371 0.0
C1292 C 0.43879 0.06742 0.72278 0.0
N1293 N 0.45385 0.04486 0.68991 0.0
C1294 C 0.48105 0.04524 0.69913 0.0
C1295 C 0.48012 0.05547 0.68088 0.0
C1296 C 0.46665 0.05512 0.67673 0.0
C1297 C 0.46813 0.035 0.71334 0.0
C1298 C 0.45484 0.03505 0.70862 0.0
N1299 N 0.41573 0.04309 0.67125 0.0
C1300 C 0.40214 0.05447 0.65308 0.0
C1301 C 0.38912 0.04187 0.6569 0.0
C1302 C 0.38952 0.02991 0.66826 0.0
C1303 C 0.40289 0.03078 0.67554 0.0
C1304 C 0.4153 0.05481 0.66006 0.0
H1305 H 0.40265 0.02141 0.68459 0.0
H1306 H 0.425 0.06466 0.65616 0.0
H1307 H 0.46701 0.06325 0.66237 0.0
H1308 H 0.44558 0.02697 0.72038 0.0
C1309 C 0.41857 0.01223 0.71238 0.0
C1310 C 0.4292 0.05801 0.74727 0.0
C1311 C 0.43056 0.02906 0.60924 0.0
C1312 C 0.45285 0.07572 0.65029 0.0
H1313 H 0.41418 0.03529 0.79098 0.0
H1314 H 0.40866 0.01035 0.77258 0.0
H1315 H 0.41269 0.98982 0.67387 0.0
H1316 H 0.41874 0.99915 0.61743 0.0
H1317 H 0.44423 0.05161 0.56478 0.0
H1318 H 0.4566 0.07713 0.58666 0.0
H1319 H 0.45899 0.09811 0.68922 0.0
H1320 H 0.44524 0.0882 0.74154 0.0
H1321 H 0.48971 0.06362 0.66909 0.0
H1322 H 0.46822 0.02696 0.72826 0.0
H1323 H 0.40217 0.06393 0.64433 0.0
H1324 H 0.37954 0.01998 0.6719 0.0
C1325 C 0.96545 0.3797 0.74178 0.0
C1326 C 0.97484 0.3841 0.76572 0.0
C1327 C 0.98773 0.39532 0.75528 0.0
C1328 C 0.98554 0.39724 0.72563 0.0
N1329 N 0.97207 0.38795 0.71683 0.0
Co1330 Co 0.96464 0.38722 0.67574 0.0
N1331 N 0.98474 0.39794 0.65771 0.0
C1332 C 0.99689 0.40596 0.67301 0.0
C1333 C 0.00925 0.41251 0.6551 0.0
C1334 C 1.00457 0.40849 0.6267 0.0
C1335 C 0.98955 0.39966 0.62876 0.0
N1336 N 0.95721 0.38651 0.63455 0.0
C1337 C 0.96421 0.38936 0.60738 0.0
C1338 C 0.95455 0.38763 0.58461 0.0
C1339 C 0.94124 0.38385 0.59797 0.0
C1340 C 0.9434 0.38341 0.62813 0.0
N1341 N 0.94466 0.37636 0.69415 0.0
C1342 C 0.93225 0.37433 0.681 0.0
C1343 C 0.91997 0.36557 0.69787 0.0
C1344 C 0.92499 0.36191 0.7232 0.0
C1345 C 0.94015 0.36876 0.7207 0.0
N1346 N 0.96428 0.405 0.68094 0.0
C1347 C 0.96168 0.42963 0.6847 0.0
C1348 C 0.95648 0.4192 0.70795 0.0
C1349 C 0.95799 0.40706 0.70574 0.0
C1350 C 0.96872 0.42757 0.66022 0.0
C1351 C 0.96975 0.41526 0.65863 0.0
N1352 N 0.96481 0.36964 0.67021 0.0
C1353 C 0.95251 0.34558 0.65553 0.0
C1354 C 0.96477 0.34432 0.66309 0.0
C1355 C 0.97705 0.35584 0.67427 0.0
C1356 C 0.97681 0.36842 0.67786 0.0
C1357 C 0.9528 0.35842 0.65901 0.0
H1358 H 0.98631 0.37715 0.68683 0.0
H1359 H 0.9433 0.35925 0.65267 0.0
H1360 H 0.95377 0.39918 0.7238 0.0
H1361 H 0.97479 0.414 0.63887 0.0
C1362 C 0.99648 0.40556 0.70436 0.0
C1363 C 0.95006 0.36833 0.74411 0.0
C1364 C 0.98011 0.39463 0.60245 0.0
C1365 C 0.93246 0.37819 0.65065 0.0
H1366 H 0.9726 0.37968 0.78837 0.0
H1367 H 0.99773 0.40096 0.76754 0.0
H1368 H 0.02039 0.41919 0.66192 0.0
H1369 H 0.0114 0.41198 0.60666 0.0
H1370 H 0.95687 0.38903 0.56083 0.0
H1371 H 0.93109 0.38132 0.58692 0.0
H1372 H 0.90866 0.36158 0.6917 0.0
H1373 H 0.91815 0.35477 0.74101 0.0
H1374 H 0.95094 0.42018 0.72741 0.0
H1375 H 0.97342 0.4354 0.64206 0.0
H1376 H 0.94291 0.33681 0.64666 0.0
H1377 H 0.98671 0.35509 0.6803 0.0
C1378 C 0.62661 0.58329 0.7588 0.0
C1379 C 0.62136 0.58741 0.7828 0.0
C1380 C 0.60895 0.58767 0.77346 0.0
C1381 C 0.60729 0.5838 0.74426 0.0
N1382 N 0.61789 0.58114 0.7347 0.0
Co1383 Co 0.61988 0.57604 0.69341 0.0
N1384 N 0.60723 0.58349 0.67635 0.0
C1385 C 0.5978 0.58589 0.69233 0.0
C1386 C 0.59028 0.59083 0.67493 0.0
C1387 C 0.5952 0.59144 0.64619 0.0
C1388 C 0.60553 0.58687 0.64757 0.0
N1389 N 0.62193 0.57093 0.65214 0.0
C1390 C 0.61888 0.57513 0.62522 0.0
C1391 C 0.62195 0.56867 0.6022 0.0
C1392 C 0.6268 0.56004 0.61519 0.0
C1393 C 0.62652 0.56169 0.6454 0.0
N1394 N 0.63266 0.56883 0.71067 0.0
C1395 C 0.63598 0.55974 0.6976 0.0
C1396 C 0.64545 0.55697 0.71422 0.0
C1397 C 0.64823 0.56483 0.73921 0.0
C1398 C 0.64034 0.57205 0.73649 0.0
N1399 N 0.60251 0.55735 0.70009 0.0
C1400 C 0.57811 0.53003 0.70675 0.0
C1401 C 0.5799 0.53886 0.68163 0.0
C1402 C 0.5921 0.55225 0.67861 0.0
C1403 C 0.58875 0.53548 0.72899 0.0
C1404 C 0.60077 0.54915 0.72532 0.0
N1405 N 0.63699 0.59436 0.68635 0.0
C1406 C 0.66157 0.60846 0.66712 0.0
C1407 C 0.66085 0.62064 0.673 0.0
C1408 C 0.64821 0.61951 0.68645 0.0
C1409 C 0.63644 0.60625 0.69322 0.0
C1410 C 0.64943 0.59537 0.67375 0.0
H1411 H 0.62679 0.60561 0.7035 0.0
H1412 H 0.65001 0.58608 0.66821 0.0
H1413 H 0.59312 0.55842 0.65851 0.0
H1414 H 0.60879 0.553 0.74268 0.0
C1415 C 0.59804 0.58547 0.72368 0.0
C1416 C 0.63954 0.58104 0.75975 0.0
C1417 C 0.61221 0.58442 0.62088 0.0
C1418 C 0.63251 0.55656 0.66754 0.0
H1419 H 0.62607 0.59016 0.80465 0.0
H1420 H 0.60244 0.59109 0.78597 0.0
H1421 H 0.58245 0.59398 0.6823 0.0
H1422 H 0.59142 0.59465 0.62643 0.0
H1423 H 0.62074 0.56998 0.57851 0.0
H1424 H 0.63054 0.55368 0.60385 0.0
H1425 H 0.65035 0.55058 0.70821 0.0
H1426 H 0.65526 0.56523 0.75732 0.0
H1427 H 0.5719 0.53553 0.66413 0.0
H1428 H 0.58802 0.52917 0.74883 0.0
H1429 H 0.67123 0.60906 0.65665 0.0
H1430 H 0.64743 0.62883 0.69146 0.0
C1431 C 0.71256 0.75884 0.59216 0.0
C1432 C 0.70363 0.75548 0.56748 0.0
C1433 C 0.69099 0.7554 0.57639 0.0
C1434 C 0.69277 0.75862 0.60599 0.0
N1435 N 0.70577 0.76076 0.61617 0.0
Co1436 Co 0.71217 0.76459 0.65824 0.0
N1437 N 0.6918 0.75704 0.67414 0.0
C1438 C 0.68027 0.75507 0.65755 0.0
C1439 C 0.66749 0.7498 0.67408 0.0
C1440 C 0.67125 0.74853 0.70293 0.0
C1441 C 0.68621 0.75322 0.70257 0.0
N1442 N 0.71868 0.76847 0.7002 0.0
C1443 C 0.71098 0.76382 0.7266 0.0
C1444 C 0.72014 0.76978 0.75043 0.0
C1445 C 0.73391 0.77846 0.73852 0.0
C1446 C 0.73247 0.7774 0.70812 0.0
N1447 N 0.73238 0.77183 0.64211 0.0
C1448 C 0.74468 0.78037 0.65632 0.0
C1449 C 0.7571 0.78308 0.64036 0.0
C1450 C 0.75225 0.77574 0.61463 0.0
C1451 C 0.73709 0.76887 0.61628 0.0
N1452 N 0.714 0.78353 0.65352 0.0
C1453 C 0.71682 0.81079 0.64794 0.0
C1454 C 0.70974 0.80176 0.67285 0.0
C1455 C 0.70857 0.78836 0.6753 0.0
C1456 C 0.72229 0.80566 0.62564 0.0
C1457 C 0.72073 0.79205 0.62879 0.0
N1458 N 0.71049 0.746 0.66282 0.0
C1459 C 0.72179 0.7317 0.67427 0.0
C1460 C 0.71049 0.72046 0.6601 0.0
C1461 C 0.69879 0.72195 0.64888 0.0
C1462 C 0.69891 0.73477 0.65081 0.0
C1463 C 0.72162 0.74445 0.67527 0.0
H1464 H 0.6899 0.73574 0.64159 0.0
H1465 H 0.73077 0.75318 0.6851 0.0
H1466 H 0.70324 0.78193 0.69503 0.0
H1467 H 0.72505 0.78844 0.61127 0.0
C1468 C 0.68151 0.75641 0.62624 0.0
C1469 C 0.72748 0.76042 0.59218 0.0
C1470 C 0.69488 0.75502 0.72984 0.0
C1471 C 0.74397 0.78288 0.6867 0.0
H1472 H 0.70581 0.75301 0.54553 0.0
H1473 H 0.68127 0.75238 0.56333 0.0
H1474 H 0.65664 0.74682 0.66603 0.0
H1475 H 0.66382 0.74473 0.72204 0.0
H1476 H 0.71714 0.76823 0.77392 0.0
H1477 H 0.74383 0.78455 0.75068 0.0
H1478 H 0.76834 0.78902 0.64728 0.0
H1479 H 0.75905 0.7754 0.59679 0.0
H1480 H 0.70496 0.8049 0.69045 0.0
H1481 H 0.72798 0.81216 0.60604 0.0
H1482 H 0.73088 0.73077 0.6836 0.0
H1483 H 0.68964 0.71328 0.63856 0.0
C1484 C 0.25162 0.95733 0.60705 0.0
C1485 C 0.25611 0.95251 0.58304 0.0
C1486 C 0.2573 0.94107 0.5936 0.0
C1487 C 0.25358 0.93952 0.62344 0.0
N1488 N 0.25008 0.94926 0.63223 0.0
Co1489 Co 0.24502 0.95128 0.67395 0.0
N1490 N 0.25427 0.9404 0.69138 0.0
C1491 C 0.25754 0.9318 0.67604 0.0
C1492 C 0.26342 0.92523 0.69358 0.0
C1493 C 0.26371 0.92984 0.72182 0.0
C1494 C 0.25798 0.93903 0.72003 0.0
N1495 N 0.23979 0.95323 0.7156 0.0
C1496 C 0.24439 0.95059 0.74239 0.0
C1497 C 0.23732 0.95307 0.76577 0.0
C1498 C 0.22783 0.95709 0.75321 0.0
C1499 C 0.22961 0.95692 0.72289 0.0
N1500 N 0.23614 0.96237 0.65617 0.0
C1501 C 0.22637 0.96506 0.66995 0.0
C1502 C 0.22278 0.97366 0.65274 0.0
C1503 C 0.23086 0.97658 0.62661 0.0
C1504 C 0.23901 0.96963 0.6293 0.0
N1505 N 0.22625 0.93375 0.67163 0.0
C1506 C 0.19883 0.90907 0.67034 0.0
C1507 C 0.20369 0.91919 0.64653 0.0
C1508 C 0.21742 0.93137 0.64753 0.0
C1509 C 0.20827 0.91155 0.69438 0.0
C1510 C 0.22173 0.92389 0.69472 0.0
N1511 N 0.2634 0.96866 0.67618 0.0
C1512 C 0.2759 0.99366 0.68267 0.0
C1513 C 0.28811 0.99479 0.66746 0.0
C1514 C 0.28817 0.98258 0.65867 0.0
C1515 C 0.27576 0.96957 0.66364 0.0
C1516 C 0.26358 0.98043 0.68673 0.0
H1517 H 0.27591 0.96033 0.65603 0.0
H1518 H 0.25398 0.97983 0.6971 0.0
H1519 H 0.22083 0.93896 0.62895 0.0
H1520 H 0.22842 0.92543 0.71396 0.0
C1521 C 0.25654 0.9315 0.6448 0.0
C1522 C 0.24864 0.96936 0.60532 0.0
C1523 C 0.25452 0.94472 0.74652 0.0
C1524 C 0.2235 0.96193 0.70075 0.0
H1525 H 0.25857 0.95693 0.56043 0.0
H1526 H 0.26136 0.93519 0.58137 0.0
H1527 H 0.26726 0.9181 0.68663 0.0
H1528 H 0.26734 0.92651 0.74161 0.0
H1529 H 0.23873 0.95193 0.78944 0.0
H1530 H 0.22075 0.96011 0.76486 0.0
H1531 H 0.21577 0.97796 0.65902 0.0
H1532 H 0.23084 0.98313 0.60783 0.0
H1533 H 0.19686 0.91791 0.62745 0.0
H1534 H 0.20539 0.904 0.713 0.0
H1535 H 0.2757 1.00293 0.69027 0.0
H1536 H 0.29769 0.98313 0.64765 0.0
C1537 C 0.05511 0.29688 0.60271 0.0
C1538 C 0.05867 0.30598 0.57779 0.0
C1539 C 0.06899 0.31896 0.58643 0.0
C1540 C 0.07117 0.31718 0.61609 0.0
N1541 N 0.06308 0.30374 0.62676 0.0
Co1542 Co 0.06217 0.29697 0.6695 0.0
N1543 N 0.07328 0.31668 0.68417 0.0
C1544 C 0.07898 0.32866 0.66684 0.0
C1545 C 0.08548 0.34069 0.68271 0.0
C1546 C 0.08365 0.33614 0.71201 0.0
C1547 C 0.07609 0.32152 0.71245 0.0
N1548 N 0.06152 0.2902 0.7121 0.0
C1549 C 0.0659 0.29739 0.73786 0.0
C1550 C 0.06321 0.28824 0.76238 0.0
C1551 C 0.057 0.27493 0.75186 0.0
C1552 C 0.05618 0.2766 0.72156 0.0
N1553 N 0.05013 0.27736 0.65491 0.0
C1554 C 0.04526 0.26528 0.6717 0.0
C1555 C 0.03579 0.25351 0.65698 0.0
C1556 C 0.03416 0.2584 0.62944 0.0
C1557 C 0.04275 0.27293 0.62884 0.0
N1558 N 0.08095 0.29634 0.66297 0.0
C1559 C 0.10782 0.29567 0.657 0.0
C1560 C 0.09473 0.28353 0.66507 0.0
C1561 C 0.08162 0.28408 0.6677 0.0
C1562 C 0.10709 0.30808 0.65137 0.0
C1563 C 0.09375 0.30819 0.65445 0.0
N1564 N 0.04374 0.29738 0.67581 0.0
C1565 C 0.0183 0.28524 0.69135 0.0
C1566 C 0.01588 0.29489 0.67439 0.0
C1567 C 0.02773 0.30636 0.66006 0.0
C1568 C 0.04158 0.30754 0.66149 0.0
C1569 C 0.03231 0.28666 0.69171 0.0
H1570 H 0.05032 0.31647 0.65006 0.0
H1571 H 0.03358 0.27875 0.70413 0.0
H1572 H 0.07224 0.27439 0.67385 0.0
H1573 H 0.09423 0.31806 0.64986 0.0
C1574 C 0.07797 0.3282 0.63569 0.0
C1575 C 0.04336 0.2821 0.60312 0.0
C1576 C 0.07218 0.31277 0.74033 0.0
C1577 C 0.04862 0.26561 0.70209 0.0
H1578 H 0.05381 0.30369 0.556 0.0
H1579 H 0.07347 0.32877 0.57326 0.0
H1580 H 0.09084 0.35149 0.67401 0.0
H1581 H 0.08748 0.34284 0.73093 0.0
H1582 H 0.0652 0.29087 0.78559 0.0
H1583 H 0.05297 0.26514 0.76495 0.0
H1584 H 0.03018 0.24272 0.66573 0.0
H1585 H 0.02715 0.25204 0.61203 0.0
H1586 H 0.09455 0.2736 0.66998 0.0
H1587 H 0.11676 0.31777 0.64435 0.0
H1588 H 0.00936 0.27644 0.70341 0.0
H1589 H 0.02627 0.31434 0.64763 0.0
C1590 C 0.21694 0.30899 0.62287 0.0
C1591 C 0.21427 0.31809 0.60473 0.0
C1592 C 0.22755 0.32788 0.59244 0.0
C1593 C 0.23753 0.32419 0.60374 0.0
N1594 N 0.23132 0.31269 0.62223 0.0
Co1595 Co 0.24158 0.30393 0.644 0.0
N1596 N 0.26063 0.32152 0.63984 0.0
C1597 C 0.26377 0.3323 0.62002 0.0
C1598 C 0.27795 0.34292 0.62149 0.0
C1599 C 0.28417 0.33848 0.64327 0.0
C1600 C 0.27339 0.32531 0.65403 0.0
N1601 N 0.25176 0.29498 0.66554 0.0
C1602 C 0.26532 0.30088 0.6773 0.0
C1603 C 0.2681 0.29057 0.69007 0.0
C1604 C 0.25602 0.27783 0.68535 0.0
C1605 C 0.2465 0.281 0.6702 0.0
N1606 N 0.22238 0.28651 0.6481 0.0
C1607 C 0.22023 0.27342 0.65415 0.0
C1608 C 0.20561 0.26361 0.65658 0.0
C1609 C 0.19819 0.27106 0.65179 0.0
C1610 C 0.20873 0.28502 0.6467 0.0
N1611 N 0.24572 0.29759 0.60635 0.0
C1612 C 0.25175 0.28523 0.55799 0.0
C1613 C 0.23781 0.28402 0.56197 0.0
C1614 C 0.23502 0.29032 0.58631 0.0
C1615 C 0.26271 0.2935 0.57761 0.0
C1616 C 0.2595 0.29947 0.60142 0.0
N1617 N 0.2378 0.31009 0.68194 0.0
C1618 C 0.2331 0.30555 0.73482 0.0
C1619 C 0.23703 0.31967 0.73872 0.0
C1620 C 0.24039 0.32871 0.71335 0.0
C1621 C 0.24076 0.32371 0.6851 0.0
C1622 C 0.23342 0.30096 0.70632 0.0
H1623 H 0.24404 0.331 0.66601 0.0
H1624 H 0.23073 0.29013 0.70425 0.0
H1625 H 0.22413 0.28892 0.58952 0.0
H1626 H 0.26821 0.30518 0.61647 0.0
C1627 C 0.25274 0.33277 0.60299 0.0
C1628 C 0.20563 0.29663 0.63952 0.0
C1629 C 0.2763 0.31593 0.67409 0.0
C1630 C 0.23193 0.27142 0.66359 0.0
H1631 H 0.20386 0.31776 0.60102 0.0
H1632 H 0.22975 0.33704 0.57838 0.0
H1633 H 0.28311 0.35279 0.60853 0.0
H1634 H 0.29551 0.34412 0.64967 0.0
H1635 H 0.27794 0.29208 0.70115 0.0
H1636 H 0.25429 0.26751 0.69271 0.0
H1637 H 0.20091 0.25251 0.66277 0.0
H1638 H 0.18642 0.26676 0.6523 0.0
H1639 H 0.229 0.27783 0.54716 0.0
H1640 H 0.27376 0.29513 0.57503 0.0
H1641 H 0.2302 0.29818 0.75382 0.0
H1642 H 0.24347 0.33971 0.71547 0.0
C1643 C 0.73069 0.96557 0.60972 0.0
C1644 C 0.74553 0.9747 0.60533 0.0
C1645 C 0.75235 0.97306 0.63024 0.0
C1646 C 0.7413 0.96302 0.64829 0.0
N1647 N 0.72806 0.95827 0.63609 0.0
Co1648 Co 0.70915 0.94416 0.65423 0.0
N1649 N 0.71727 0.9477 0.69481 0.0
C1650 C 0.73157 0.95393 0.70142 0.0
C1651 C 0.73388 0.95518 0.73157 0.0
C1652 C 0.72018 0.94926 0.74462 0.0
C1653 C 0.7102 0.94457 0.72163 0.0
N1654 N 0.69024 0.92986 0.67225 0.0
C1655 C 0.68543 0.92792 0.70097 0.0
C1656 C 0.67155 0.91632 0.70409 0.0
C1657 C 0.66767 0.91087 0.67624 0.0
C1658 C 0.67937 0.91938 0.65769 0.0
N1659 N 0.7012 0.94096 0.61348 0.0
C1660 C 0.68913 0.92952 0.60476 0.0
C1661 C 0.68595 0.93092 0.57545 0.0
C1662 C 0.6967 0.94405 0.56539 0.0
C1663 C 0.70591 0.94993 0.58915 0.0
N1664 N 0.7147 0.92928 0.65027 0.0
C1665 C 0.71943 0.906 0.64435 0.0
C1666 C 0.72184 0.91547 0.62008 0.0
C1667 C 0.71963 0.92716 0.62362 0.0
C1668 C 0.71497 0.90867 0.6717 0.0
C1669 C 0.71255 0.92019 0.67411 0.0
N1670 N 0.70322 0.95863 0.65841 0.0
C1671 C 0.68405 0.96493 0.65624 0.0
C1672 C 0.69337 0.97811 0.66745 0.0
C1673 C 0.7079 0.98158 0.67326 0.0
C1674 C 0.71259 0.97162 0.66883 0.0
C1675 C 0.68921 0.95545 0.65158 0.0
H1676 H 0.72368 0.97429 0.67424 0.0
H1677 H 0.68171 0.94541 0.64289 0.0
H1678 H 0.72159 0.93431 0.60464 0.0
H1679 H 0.7085 0.92144 0.69524 0.0
C1680 C 0.74237 0.96041 0.67881 0.0
C1681 C 0.71932 0.96372 0.58838 0.0
C1682 C 0.69422 0.93614 0.72591 0.0
C1683 C 0.67956 0.91949 0.62624 0.0
H1684 H 0.75082 0.98191 0.58639 0.0
H1685 H 0.76383 0.97913 0.63535 0.0
H1686 H 0.74427 0.96026 0.7427 0.0
H1687 H 0.71786 0.94841 0.76836 0.0
H1688 H 0.66497 0.91216 0.72438 0.0
H1689 H 0.65735 0.90208 0.67013 0.0
H1690 H 0.67645 0.92368 0.56336 0.0
H1691 H 0.69748 0.94877 0.54333 0.0
H1692 H 0.7254 0.91386 0.59857 0.0
H1693 H 0.71284 0.90158 0.69098 0.0
H1694 H 0.67279 0.96194 0.65126 0.0
H1695 H 0.7154 0.99171 0.68199 0.0
C1696 C 0.04338 0.77074 0.64218 0.0
C1697 C 0.03349 0.77569 0.63749 0.0
C1698 C 0.03343 0.78242 0.66284 0.0
C1699 C 0.04321 0.78116 0.68153 0.0
N1700 N 0.04941 0.77412 0.66934 0.0
Co1701 Co 0.0635 0.76924 0.68851 0.0
N1702 N 0.0574 0.77152 0.72887 0.0
C1703 C 0.04999 0.77843 0.73518 0.0
C1704 C 0.04708 0.77807 0.76514 0.0
C1705 C 0.0532 0.77064 0.7785 0.0
C1706 C 0.05968 0.76698 0.75586 0.0
N1707 N 0.07779 0.76455 0.70753 0.0
C1708 C 0.07869 0.76092 0.73638 0.0
C1709 C 0.09093 0.75916 0.74027 0.0
C1710 C 0.0979 0.7619 0.71288 0.0
C1711 C 0.08961 0.76521 0.69379 0.0
N1712 N 0.06934 0.76688 0.64805 0.0
C1713 C 0.08195 0.76723 0.64023 0.0
C1714 C 0.08234 0.76451 0.61057 0.0
C1715 C 0.06914 0.7623 0.59933 0.0
C1716 C 0.06143 0.76378 0.62286 0.0
N1717 N 0.07859 0.78923 0.68638 0.0
C1718 C 0.10307 0.81647 0.68139 0.0
C1719 C 0.09388 0.81054 0.65705 0.0
C1720 C 0.08165 0.79704 0.66011 0.0
C1721 C 0.09909 0.80865 0.7087 0.0
C1722 C 0.08701 0.79513 0.71064 0.0
N1723 N 0.04872 0.74926 0.69024 0.0
C1724 C 0.04223 0.72549 0.67866 0.0
C1725 C 0.02756 0.72085 0.68625 0.0
C1726 C 0.02376 0.73068 0.697 0.0
C1727 C 0.03451 0.74488 0.69869 0.0
C1728 C 0.05259 0.73961 0.68101 0.0
H1729 H 0.03131 0.75235 0.70619 0.0
H1730 H 0.06372 0.74277 0.67458 0.0
H1731 H 0.07498 0.7927 0.64084 0.0
H1732 H 0.08479 0.78929 0.73168 0.0
C1733 C 0.04411 0.7832 0.71229 0.0
C1734 C 0.04702 0.76295 0.62077 0.0
C1735 C 0.06908 0.76048 0.76094 0.0
C1736 C 0.09128 0.76691 0.66248 0.0
H1737 H 0.02681 0.77435 0.61817 0.0
H1738 H 0.02635 0.78682 0.6678 0.0
H1739 H 0.04085 0.78231 0.77594 0.0
H1740 H 0.05304 0.76836 0.80223 0.0
H1741 H 0.09457 0.75643 0.76082 0.0
H1742 H 0.10763 0.76121 0.70744 0.0
H1743 H 0.09081 0.76343 0.5989 0.0
H1744 H 0.06553 0.75979 0.57663 0.0
H1745 H 0.09633 0.81602 0.63541 0.0
H1746 H 0.10538 0.8128 0.72858 0.0
H1747 H 0.04573 0.71822 0.67089 0.0
H1748 H 0.01254 0.72751 0.70327 0.0
C1749 C 0.93995 0.56539 0.71197 0.0
C1750 C 0.92492 0.56001 0.71443 0.0
C1751 C 0.91921 0.55355 0.68814 0.0
C1752 C 0.93105 0.55534 0.67126 0.0
N1753 N 0.94375 0.56245 0.68547 0.0
Co1754 Co 0.96349 0.5679 0.66964 0.0
N1755 N 0.95673 0.56615 0.62801 0.0
C1756 C 0.94273 0.55897 0.61934 0.0
C1757 C 0.9414 0.5596 0.58893 0.0
C1758 C 0.95543 0.56752 0.57786 0.0
C1759 C 0.96461 0.57124 0.60222 0.0
N1760 N 0.98326 0.5732 0.65387 0.0
C1761 C 0.98892 0.57747 0.62585 0.0
C1762 C 1.00315 0.57963 0.62427 0.0
C1763 C 0.00637 0.57646 0.65231 0.0
C1764 C 0.99397 0.57254 0.66945 0.0
N1765 N 0.97005 0.56969 0.71141 0.0
C1766 C 0.98209 0.56946 0.72129 0.0
C1767 C 0.984 0.57177 0.75136 0.0
C1768 C 0.97243 0.57356 0.76068 0.0
C1769 C 0.9641 0.57221 0.7357 0.0
N1770 N 0.95889 0.54802 0.67122 0.0
C1771 C 0.95673 0.52107 0.67619 0.0
C1772 C 0.95227 0.52641 0.69984 0.0
C1773 C 0.95326 0.53978 0.69677 0.0
C1774 C 0.96141 0.52929 0.64942 0.0
C1775 C 0.96254 0.54266 0.64751 0.0
N1776 N 0.96843 0.58779 0.66845 0.0
C1777 C 0.98505 0.6115 0.6819 0.0
C1778 C 0.97533 0.6161 0.67185 0.0
C1779 C 0.96219 0.60628 0.65916 0.0
C1780 C 0.9589 0.59213 0.65782 0.0
C1781 C 0.98147 0.59742 0.67983 0.0
H1782 H 0.94859 0.58466 0.64867 0.0
H1783 H 0.98921 0.5943 0.68801 0.0
H1784 H 0.95002 0.54369 0.71554 0.0
H1785 H 0.96688 0.54885 0.62703 0.0
C1786 C 0.93115 0.55366 0.64041 0.0
C1787 C 0.95039 0.57292 0.73517 0.0
C1788 C 0.98068 0.57832 0.59995 0.0
C1789 C 0.99272 0.57035 0.70072 0.0
H1790 H 0.91882 0.56086 0.73303 0.0
H1791 H 0.90791 0.54892 0.68145 0.0
H1792 H 0.93141 0.55519 0.57635 0.0
H1793 H 0.95854 0.57006 0.55449 0.0
H1794 H 0.01037 0.58295 0.60483 0.0
H1795 H 0.01666 0.57733 0.65949 0.0
H1796 H 0.99315 0.5729 0.76458 0.0
H1797 H 0.9705 0.57579 0.78306 0.0
H1798 H 0.94854 0.52061 0.72104 0.0
H1799 H 0.96446 0.52557 0.62998 0.0
H1800 H 0.99546 0.61876 0.69126 0.0
H1801 H 0.95439 0.60943 0.651 0.0
C1802 C 0.43693 0.3749 0.7422 0.0
C1803 C 0.44192 0.36512 0.74251 0.0
C1804 C 0.44935 0.36711 0.71591 0.0
C1805 C 0.44841 0.37787 0.70078 0.0
N1806 N 0.44089 0.38274 0.71634 0.0
Co1807 Co 0.43618 0.39756 0.70259 0.0
N1808 N 0.43909 0.39476 0.66029 0.0
C1809 C 0.44672 0.38862 0.65026 0.0
C1810 C 0.44696 0.38831 0.61967 0.0
C1811 C 0.43909 0.39476 0.60997 0.0
C1812 C 0.43447 0.39865 0.63531 0.0
N1813 N 0.43163 0.41251 0.6889 0.0
C1814 C 0.42786 0.41513 0.66144 0.0
C1815 C 0.42588 0.42689 0.66141 0.0
C1816 C 0.42867 0.43179 0.68988 0.0
C1817 C 0.43218 0.42278 0.70572 0.0
N1818 N 0.43319 0.40011 0.74498 0.0
C1819 C 0.43352 0.41156 0.7563 0.0
C1820 C 0.43032 0.40977 0.78647 0.0
C1821 C 0.42782 0.39637 0.7943 0.0
C1822 C 0.4296 0.39071 0.76839 0.0
N1823 N 0.45699 0.41193 0.70465 0.0
C1824 C 0.48538 0.43482 0.70961 0.0
C1825 C 0.4789 0.42472 0.73312 0.0
C1826 C 0.46481 0.41322 0.72999 0.0
C1827 C 0.47755 0.43293 0.6833 0.0
C1828 C 0.46341 0.42158 0.68138 0.0
N1829 N 0.41541 0.38361 0.70064 0.0
C1830 C 0.39038 0.37708 0.71251 0.0
C1831 C 0.38545 0.36427 0.69863 0.0
C1832 C 0.39586 0.36132 0.68561 0.0
C1833 C 0.41083 0.3711 0.68711 0.0
C1834 C 0.40529 0.38659 0.71305 0.0
H1835 H 0.41869 0.36859 0.67729 0.0
H1836 H 0.40861 0.39643 0.7235 0.0
H1837 H 0.46006 0.40559 0.74841 0.0
H1838 H 0.4575 0.42093 0.66128 0.0
C1839 C 0.45128 0.3813 0.67016 0.0
C1840 C 0.42872 0.37681 0.76661 0.0
C1841 C 0.42703 0.40719 0.63486 0.0
C1842 C 0.43353 0.42209 0.73696 0.0
H1843 H 0.44018 0.35719 0.7597 0.0
H1844 H 0.454 0.36081 0.70782 0.0
H1845 H 0.45183 0.38356 0.60606 0.0
H1846 H 0.43715 0.39655 0.58691 0.0
H1847 H 0.42282 0.43148 0.64279 0.0
H1848 H 0.4277 0.44055 0.69824 0.0
H1849 H 0.42911 0.41699 0.80076 0.0
H1850 H 0.42494 0.39131 0.81637 0.0
H1851 H 0.48465 0.42573 0.75376 0.0
H1852 H 0.48212 0.44051 0.66465 0.0
H1853 H 0.38273 0.37991 0.72236 0.0
H1854 H 0.39248 0.35151 0.67464 0.0
C1855 C 0.57678 0.03129 0.73191 0.0
C1856 C 0.56468 0.02178 0.74895 0.0
C1857 C 0.56738 0.01115 0.75822 0.0
C1858 C 0.58097 0.01481 0.74656 0.0
N1859 N 0.58719 0.02724 0.73081 0.0
Co1860 Co 0.60688 0.03651 0.71033 0.0
N1861 N 0.60918 0.01931 0.71728 0.0
C1862 C 0.59932 0.00698 0.73085 0.0
C1863 C 0.60342 0.99674 0.73088 0.0
C1864 C 0.61672 1.00291 0.71653 0.0
C1865 C 0.6201 0.0167 0.70893 0.0
N1866 N 0.62689 0.04603 0.69107 0.0
C1867 C 0.63664 0.04127 0.68702 0.0
C1868 C 0.64978 0.05179 0.67476 0.0
C1869 C 0.64828 0.06357 0.67091 0.0
C1870 C 0.63441 0.05965 0.68119 0.0
N1871 N 0.60398 0.0533 0.70161 0.0
C1872 C 0.61369 0.06562 0.68781 0.0
C1873 C 0.60818 0.07465 0.68214 0.0
C1874 C 0.59398 0.06754 0.69229 0.0
C1875 C 0.59168 0.05457 0.70388 0.0
N1876 N 0.61644 0.04409 0.74917 0.0
C1877 C 0.63589 0.05509 0.79716 0.0
C1878 C 0.6343 0.06399 0.77598 0.0
C1879 C 0.6245 0.05835 0.75268 0.0
C1880 C 0.62651 0.04059 0.79553 0.0
C1881 C 0.61686 0.03537 0.77171 0.0
N1882 N 0.59782 0.02909 0.67161 0.0
C1883 C 0.59803 0.03197 0.61789 0.0
C1884 C 0.58633 0.01833 0.61558 0.0
C1885 C 0.58025 0.01029 0.6421 0.0
C1886 C 0.58611 0.01583 0.6697 0.0
C1887 C 0.60348 0.03711 0.6458 0.0
H1888 H 0.58115 0.00922 0.68925 0.0
H1889 H 0.61247 0.04755 0.64594 0.0
H1890 H 0.62402 0.06584 0.73743 0.0
H1891 H 0.6102 0.02421 0.77163 0.0
C1892 C 0.58683 0.0057 0.7451 0.0
C1893 C 0.57752 0.04359 0.71589 0.0
C1894 C 0.63409 0.02706 0.69516 0.0
C1895 C 0.62773 0.06815 0.67978 0.0
H1896 H 0.5547 0.02222 0.75326 0.0
H1897 H 0.55995 1.00148 0.77041 0.0
H1898 H 0.59755 0.98613 0.74062 0.0
H1899 H 0.6233 0.99786 0.71261 0.0
H1900 H 0.65948 0.05104 0.66926 0.0
H1901 H 0.65631 0.07375 0.66149 0.0
H1902 H 0.61371 0.08502 0.67117 0.0
H1903 H 0.58615 0.07136 0.69077 0.0
H1904 H 0.64082 0.07533 0.77702 0.0
H1905 H 0.62704 0.03323 0.81178 0.0
H1906 H 0.60333 0.0386 0.59819 0.0
H1907 H 0.57103 0.99975 0.64163 0.0
H1908 H 0.9752 0.34597 0.03919 0.0
H1909 H 0.96974 0.33988 0.94454 0.0
H1910 H 1.00046 0.36426 0.03023 0.0
H1911 H 0.99488 0.35858 0.9352 0.0
H1912 H 0.04015 0.35971 0.95145 0.0
H1913 H 0.01466 0.35377 0.94706 0.0
H1914 H 0.02111 0.38589 1.00898 0.0
H1915 H 0.04687 0.39172 0.01336 0.0
C1916 C 0.97927 0.34904 0.01639 0.0
C1917 C 0.97084 0.34141 0.99257 0.0
C1918 C 0.99369 0.3596 0.01115 0.0
C1919 C 0.99975 0.36262 0.98201 0.0
C1920 C 0.99057 0.35625 0.95792 0.0
C1921 C 0.97625 0.34557 0.96321 0.0
C1922 C 0.03618 0.36579 0.96326 0.0
C1923 C 0.04521 0.37599 0.98297 0.0
C1924 C 0.02163 0.36253 0.96059 0.0
C1925 C 0.01582 0.36931 0.97789 0.0
C1926 C 0.02528 0.38045 0.99558 0.0
C1927 C 0.03995 0.3838 0.99805 0.0
H1928 H 0.67084 0.63595 0.96539 0.0
H1929 H 0.66299 0.62155 0.05803 0.0
H1930 H 0.65072 0.64106 0.96757 0.0
H1931 H 0.6422 0.62598 0.05996 0.0
H1932 H 0.63943 0.6681 0.06175 0.0
H1933 H 0.64533 0.6491 0.06218 0.0
H1934 H 0.62666 0.63761 0.97473 0.0
H1935 H 0.62148 0.65727 0.97377 0.0
C1936 C 0.66448 0.6335 0.986 0.0
C1937 C 0.66879 0.62892 0.01185 0.0
C1938 C 0.65274 0.63617 0.98716 0.0
C1939 C 0.64505 0.63426 0.01422 0.0
C1940 C 0.64815 0.62787 0.03899 0.0
C1941 C 0.66002 0.62529 0.03787 0.0
C1942 C 0.63637 0.66136 0.04284 0.0
C1943 C 0.63058 0.66447 0.01725 0.0
C1944 C 0.63948 0.65025 0.04327 0.0
C1945 C 0.6368 0.64202 0.01811 0.0
C1946 C 0.62918 0.64399 0.99415 0.0
C1947 C 0.62617 0.65521 0.99363 0.0
H1948 H 0.39237 0.04083 0.99172 0.0
H1949 H 0.35684 0.03289 0.05232 0.0
H1950 H 0.3869 0.01618 0.99896 0.0
H1951 H 0.35135 0.00852 0.05969 0.0
H1952 H 0.34756 0.96971 0.97826 0.0
H1953 H 0.36476 0.99483 0.98112 0.0
H1954 H 0.3591 0.99137 0.07715 0.0
H1955 H 0.34159 0.96633 0.07402 0.0
C1956 C 0.38367 0.03387 1.00717 0.0
C1957 C 0.37487 0.03852 0.02128 0.0
C1958 C 0.38055 0.01984 0.0113 0.0
C1959 C 0.36874 0.01046 0.02991 0.0
C1960 C 0.36068 0.01553 0.0456 0.0
C1961 C 0.36368 0.02941 0.04118 0.0
C1962 C 0.35049 0.97426 0.99999 0.0
C1963 C 0.34312 0.96634 0.02586 0.0
C1964 C 0.36038 0.9886 1.0017 0.0
C1965 C 0.363 0.99507 0.02933 0.0
C1966 C 0.35705 0.98666 0.05555 0.0
C1967 C 0.34706 0.97239 0.05379 0.0
H1968 H 0.03029 0.68727 0.08169 0.0
H1969 H 0.03514 0.6838 0.98723 0.0
H1970 H 1.00375 0.6735 0.07793 0.0
H1971 H 0.0086 0.67033 0.98316 0.0
H1972 H 0.96046 0.63961 0.98528 0.0
H1973 H 0.98659 0.64917 0.99426 0.0
H1974 H 0.98431 0.67675 0.05889 0.0
H1975 H 0.95804 0.66665 0.05057 0.0
C1976 C 0.02566 0.68349 0.06012 0.0
C1977 C 0.0348 0.68668 0.03472 0.0
C1978 C 0.01043 0.67566 0.05792 0.0
C1979 C 1.00393 0.67089 0.03019 0.0
C1980 C 0.01315 0.67364 1.00498 0.0
C1981 C 0.0284 0.68138 1.00726 0.0
C1982 C 0.96553 0.64743 1.002 0.0
C1983 C 0.95726 0.65226 0.01763 0.0
C1984 C 0.98054 0.65307 1.00686 0.0
C1985 C 0.98767 0.66382 0.02719 0.0
C1986 C 0.97922 0.66834 0.04342 0.0
C1987 C 0.96418 0.66261 0.03868 0.0
H1988 H 0.33887 0.3119 0.94681 0.0
H1989 H 0.36129 0.3277 0.02932 0.0
H1990 H 0.32592 0.3251 0.95268 0.0
H1991 H 0.34937 0.34206 0.03373 0.0
H1992 H 0.3108 0.34935 0.0557 0.0
H1993 H 0.32707 0.3396 0.04742 0.0
H1994 H 0.32474 0.34569 0.95198 0.0
H1995 H 0.30748 0.35447 0.96076 0.0
C1996 C 0.34118 0.31831 0.96612 0.0
C1997 C 0.35089 0.31836 0.988 0.0
C1998 C 0.33391 0.32616 0.96921 0.0
C1999 C 0.33635 0.33461 0.99393 0.0
C2000 C 0.34682 0.33541 0.01478 0.0
C2001 C 0.3539 0.32732 0.01199 0.0
C2002 C 0.31377 0.34853 0.03298 0.0
C2003 C 0.30764 0.3523 1.00883 0.0
C2004 C 0.3233 0.34312 0.02813 0.0
C2005 C 0.32727 0.34168 0.99894 0.0
C2006 C 0.3217 0.34624 0.97478 0.0
C2007 C 0.3119 0.35139 0.97969 0.0
H2008 H 0.65183 0.96419 0.05826 0.0
H2009 H 0.64386 0.96991 0.96565 0.0
H2010 H 0.66263 0.98947 0.0645 0.0
H2011 H 0.65481 0.99539 0.97183 0.0
H2012 H 0.66968 0.041 0.99954 0.0
H2013 H 0.65386 0.01535 0.99733 0.0
H2014 H 0.68604 0.00879 0.04557 0.0
H2015 H 0.70159 0.03415 0.04788 0.0
C2016 C 0.65227 0.97087 0.03928 0.0
C2017 C 0.64724 0.96511 0.01133 0.0
C2018 C 0.65847 0.98535 0.04285 0.0
C2019 C 0.65982 0.99448 0.01854 0.0
C2020 C 0.65389 0.98863 0.99103 0.0
C2021 C 0.64763 0.97406 0.98746 0.0
C2022 C 0.67318 0.034 0.01006 0.0
C2023 C 0.68685 0.03953 0.02385 0.0
C2024 C 0.66421 0.01936 1.00858 0.0
C2025 C 0.66867 0.01002 0.02132 0.0
C2026 C 0.68215 0.01565 0.03587 0.0
C2027 C 0.69113 0.03019 0.03704 0.0
H2028 H 0.70374 0.70448 0.38816 0.0
H2029 H 0.71069 0.71944 0.29587 0.0
H2030 H 0.67856 0.6995 0.38593 0.0
H2031 H 0.68552 0.71518 0.29393 0.0
H2032 H 0.64068 0.67292 0.29074 0.0
H2033 H 0.66545 0.69226 0.29074 0.0
H2034 H 0.65786 0.70264 0.37902 0.0
H2035 H 0.63316 0.68261 0.37952 0.0
C2036 C 0.69995 0.70709 0.36762 0.0
C2037 C 0.70891 0.71176 0.34185 0.0
C2038 C 0.68555 0.7045 0.36645 0.0
C2039 C 0.67986 0.70659 0.33944 0.0
C2040 C 0.68948 0.71312 0.31484 0.0
C2041 C 0.7039 0.71561 0.31596 0.0
C2042 C 0.64423 0.67951 0.30992 0.0
C2043 C 0.63528 0.67594 0.33562 0.0
C2044 C 0.65838 0.6908 0.30975 0.0
C2045 C 0.66381 0.69878 0.3353 0.0
C2046 C 0.65411 0.69643 0.35932 0.0
C2047 C 0.63995 0.68501 0.35958 0.0
H2048 H 0.33657 0.9689 0.29843 0.0
H2049 H 0.32926 0.95498 0.39139 0.0
H2050 H 0.31659 0.97416 0.30095 0.0
H2051 H 0.30849 0.9594 0.39358 0.0
H2052 H 0.30535 1.00114 0.39621 0.0
H2053 H 0.31122 0.98215 0.39615 0.0
H2054 H 0.29295 0.97128 0.30821 0.0
H2055 H 0.28786 0.991 0.30774 0.0
C2056 C 0.33038 0.96658 0.31921 0.0
C2057 C 0.33484 0.96213 0.34503 0.0
C2058 C 0.31868 0.96933 0.32056 0.0
C2059 C 0.31115 0.96757 0.34777 0.0
C2060 C 0.31435 0.96123 0.37251 0.0
C2061 C 0.3262 0.95863 0.37123 0.0
C2062 C 0.30237 0.99453 0.37708 0.0
C2063 C 0.29674 0.99787 0.3515 0.0
C2064 C 0.30548 0.98343 0.37721 0.0
C2065 C 0.30292 0.97538 0.35177 0.0
C2066 C 0.29541 0.97753 0.32782 0.0
C2067 C 0.29243 0.98878 0.32759 0.0
H2068 H 0.99311 0.30672 0.30125 0.0
H2069 H 0.02147 0.29944 0.36074 0.0
H2070 H 0.01186 0.33117 0.29319 0.0
H2071 H 0.04049 0.32418 0.35283 0.0
H2072 H 0.04787 0.37093 0.37178 0.0
H2073 H 0.03972 0.34574 0.37022 0.0
H2074 H 0.03684 0.34808 0.27418 0.0
H2075 H 0.04468 0.37321 0.27598 0.0
C2076 C 1.00354 0.31037 0.31207 0.0
C2077 C 0.00591 0.30142 0.33179 0.0
C2078 C 0.01435 0.32429 0.30723 0.0
C2079 C 0.02767 0.32955 0.32232 0.0
C2080 C 0.03033 0.32035 0.34092 0.0
C2081 C 0.01952 0.30629 0.34544 0.0
C2082 C 0.04606 0.36613 0.35031 0.0
C2083 C 0.04652 0.37377 0.32408 0.0
C2084 C 0.04147 0.35174 0.34935 0.0
C2085 C 0.03737 0.34495 0.32211 0.0
C2086 C 0.03971 0.35305 0.2955 0.0
C2087 C 0.04416 0.36737 0.2965 0.0
H2088 H 0.63078 0.98834 0.29751 0.0
H2089 H 0.62169 0.98402 0.3922 0.0
H2090 H 0.65676 0.99794 0.3066 0.0
H2091 H 0.64769 0.99268 0.40185 0.0
H2092 H 0.69562 0.02694 0.4071 0.0
H2093 H 0.66947 0.01338 0.40091 0.0
H2094 H 0.67657 0.99572 0.32162 0.0
H2095 H 0.70287 0.0104 0.32631 0.0
C2096 C 0.63442 0.98926 0.32037 0.0
C2097 C 0.62436 0.9858 0.34418 0.0
C2098 C 0.64932 0.9946 0.32568 0.0
C2099 C 0.65455 0.99629 0.35505 0.0
C2100 C 0.64424 0.99195 0.37891 0.0
C2101 C 0.62932 0.98686 0.37351 0.0
C2102 C 0.69166 0.02028 0.38812 0.0
C2103 C 0.70149 0.02014 0.36677 0.0
C2104 C 0.67653 0.01223 0.38486 0.0
C2105 C 0.67069 0.00349 0.36048 0.0
C2106 C 0.68054 1.00259 0.34026 0.0
C2107 C 0.69572 0.01087 0.34322 0.0
H2108 H 0.97935 0.69275 0.30798 0.0
H2109 H 0.98122 0.68538 0.40256 0.0
H2110 H 0.99647 0.68392 0.29854 0.0
H2111 H 0.99743 0.67555 0.39344 0.0
H2112 H 0.03121 0.6629 0.37293 0.0
H2113 H 0.01971 0.67755 0.3796 0.0
H2114 H 0.99654 0.66284 0.29729 0.0
H2115 H 0.00896 0.64928 0.28946 0.0
C2116 C 0.98353 0.68929 0.32674 0.0
C2117 C 0.9789 0.68961 0.35594 0.0
C2118 C 0.9932 0.68404 0.3214 0.0
C2119 C 0.99825 0.67872 0.34514 0.0
C2120 C 0.99402 0.67964 0.37449 0.0
C2121 C 0.98459 0.68516 0.3798 0.0
C2122 C 0.02396 0.66308 0.35586 0.0
C2123 C 0.02089 0.65467 0.33087 0.0
C2124 C 0.01714 0.67134 0.35992 0.0
C2125 C 0.00693 0.67131 0.33927 0.0
C2126 C 1.00438 0.66335 0.31368 0.0
C2127 C 0.01135 0.6553 0.30941 0.0
H2128 H 0.34085 0.36863 0.38871 0.0
H2129 H 0.35685 0.37523 0.2976 0.0
H2130 H 0.3261 0.34328 0.38102 0.0
H2131 H 0.34203 0.35012 0.28966 0.0
H2132 H 0.33477 0.30503 0.30385 0.0
H2133 H 0.34489 0.33032 0.30736 0.0
H2134 H 0.30585 0.32365 0.35478 0.0
H2135 H 0.29577 0.29804 0.35161 0.0
C2136 C 0.34091 0.3647 0.36686 0.0
C2137 C 0.35016 0.37384 0.3439 0.0
C2138 C 0.33247 0.3502 0.36241 0.0
C2139 C 0.33308 0.34461 0.33486 0.0
C2140 C 0.34156 0.35398 0.31137 0.0
C2141 C 0.35002 0.36838 0.31586 0.0
C2142 C 0.32828 0.30895 0.31481 0.0
C2143 C 0.31451 0.29955 0.32755 0.0
C2144 C 0.33402 0.32348 0.31662 0.0
C2145 C 0.32618 0.32908 0.33131 0.0
C2146 C 0.31221 0.31969 0.34348 0.0
C2147 C 0.30638 0.30505 0.34142 0.0
H2148 H 0.30586 0.01326 0.70745 0.0
H2149 H 0.29948 0.00674 0.61308 0.0
H2150 H 0.33113 0.03132 0.69752 0.0
H2151 H 0.32467 0.02515 0.6028 0.0
H2152 H 0.36901 0.0241 0.61939 0.0
H2153 H 0.34376 0.01903 0.61544 0.0
H2154 H 0.35212 0.05267 0.67457 0.0
H2155 H 0.37762 0.05767 0.67848 0.0
C2156 C 0.30971 0.01624 0.6845 0.0
C2157 C 0.30105 0.00851 0.66104 0.0
C2158 C 0.32414 0.02664 0.67872 0.0
C2159 C 0.32996 0.02937 0.64939 0.0
C2160 C 0.32053 0.02304 0.62564 0.0
C2161 C 0.30617 0.01253 0.63147 0.0
C2162 C 0.36552 0.03065 0.63081 0.0
C2163 C 0.37502 0.04106 0.64963 0.0
C2164 C 0.35111 0.0279 0.62829 0.0
C2165 C 0.34593 0.03543 0.64486 0.0
C2166 C 0.35584 0.04669 0.66168 0.0
C2167 C 0.37036 0.04954 0.66392 0.0
H2168 H 0.95066 0.31983 0.69634 0.0
H2169 H 0.98015 0.33977 0.62102 0.0
H2170 H 0.95622 0.30026 0.69644 0.0
H2171 H 0.98583 0.32055 0.62094 0.0
H2172 H 1.00011 0.29081 0.62434 0.0
H2173 H 0.98005 0.29616 0.61754 0.0
H2174 H 0.97962 0.30229 0.71228 0.0
H2175 H 0.99924 0.29642 0.71893 0.0
C2176 C 0.95792 0.31971 0.6792 0.0
C2177 C 0.96515 0.33119 0.65883 0.0
C2178 C 0.96111 0.30858 0.67925 0.0
C2179 C 0.97152 0.30889 0.65886 0.0
C2180 C 0.9776 0.31983 0.63671 0.0
C2181 C 0.9745 0.33093 0.63685 0.0
C2182 C 0.99521 0.2927 0.64377 0.0
C2183 C 1.00125 0.29354 0.67203 0.0
C2184 C 0.98378 0.29575 0.63993 0.0
C2185 C 0.97856 0.30003 0.66422 0.0
C2186 C 0.98337 0.29903 0.69309 0.0
C2187 C 0.99467 0.29577 0.69696 0.0
H2188 H 0.70832 0.7067 0.60952 0.0
H2189 H 0.71229 0.70394 0.70502 0.0
H2190 H 0.70173 0.6819 0.60653 0.0
H2191 H 0.70531 0.67906 0.70233 0.0
H2192 H 0.68878 0.63347 0.69323 0.0
H2193 H 0.70708 0.65841 0.68473 0.0
H2194 H 0.67754 0.66372 0.62457 0.0
H2195 H 0.65957 0.63906 0.63311 0.0
C2196 C 0.70816 0.70083 0.62972 0.0
C2197 C 0.71043 0.70697 0.65757 0.0
C2198 C 0.70444 0.6867 0.62804 0.0
C2199 C 0.70269 0.6785 0.65426 0.0
C2200 C 0.70662 0.68512 0.68172 0.0
C2201 C 0.71051 0.69932 0.68335 0.0
C2202 C 0.68651 0.63998 0.67758 0.0
C2203 C 0.67285 0.6346 0.66401 0.0
C2204 C 0.6969 0.65418 0.67275 0.0
C2205 C 0.69374 0.663 0.65403 0.0
C2206 C 0.68044 0.65718 0.63875 0.0
C2207 C 0.67007 0.64312 0.64383 0.0
H2208 H 0.36516 0.35546 0.74406 0.0
H2209 H 0.36961 0.35122 0.64983 0.0
H2210 H 0.33859 0.3419 0.74075 0.0
H2211 H 0.34301 0.33799 0.64613 0.0
H2212 H 0.29463 0.3076 0.64969 0.0
H2213 H 0.32083 0.31712 0.65777 0.0
H2214 H 0.31928 0.34529 0.72182 0.0
H2215 H 0.29295 0.33522 0.71445 0.0
C2216 C 0.36042 0.35155 0.72264 0.0
C2217 C 0.36945 0.35446 0.69716 0.0
C2218 C 0.34518 0.34385 0.72067 0.0
C2219 C 0.33855 0.33896 0.6931 0.0
C2220 C 0.34766 0.34141 0.66783 0.0
C2221 C 0.36293 0.34902 0.66989 0.0
C2222 C 0.29989 0.31557 0.66605 0.0
C2223 C 0.2918 0.32054 0.68186 0.0
C2224 C 0.31493 0.32118 0.67041 0.0
C2225 C 0.32228 0.33205 0.69038 0.0
C2226 C 0.31402 0.33678 0.70665 0.0
C2227 C 0.29895 0.33107 0.70243 0.0
H2228 H 0.67217 0.97354 0.70795 0.0
H2229 H 0.70089 0.00393 0.64102 0.0
H2230 H 0.66016 0.98777 0.71546 0.0
H2231 H 0.68869 0.01822 0.64816 0.0
H2232 H 0.64576 0.02382 0.64331 0.0
H2233 H 0.66256 0.01412 0.63787 0.0
H2234 H 0.66531 0.01155 0.73381 0.0
H2235 H 0.6487 0.02138 0.73905 0.0
C2236 C 0.67603 0.98341 0.69518 0.0
C2237 C 0.68747 0.98771 0.67405 0.0
C2238 C 0.6692 0.99157 0.69951 0.0
C2239 C 0.67349 0.00413 0.68243 0.0
C2240 C 0.68514 0.00858 0.66159 0.0
C2241 C 0.69217 1.00049 0.65764 0.0
C2242 C 0.65027 0.02147 0.6631 0.0
C2243 C 0.64594 0.02324 0.69157 0.0
C2244 C 0.65988 0.01595 0.66004 0.0
C2245 C 0.66516 0.01197 0.68543 0.0
C2246 C 0.66131 0.01438 0.71386 0.0
C2247 C 0.65187 0.02005 0.71688 0.0
H2248 H 0.02393 0.70487 0.6382 0.0
H2249 H 0.00646 0.70281 0.72664 0.0
H2250 H 0.00846 0.6795 0.6348 0.0
H2251 H 0.99069 0.67733 0.7231 0.0
H2252 H 0.98584 0.63206 0.72066 0.0
H2253 H 0.99571 0.65743 0.72352 0.0
H2254 H 0.98353 0.65966 0.6322 0.0
H2255 H 0.97385 0.63417 0.62925 0.0
C2256 C 0.01661 0.69899 0.65678 0.0
C2257 C 0.01654 0.7058 0.68285 0.0
C2258 C 0.00762 0.68446 0.65471 0.0
C2259 C 0.99838 0.67633 0.67874 0.0
C2260 C 0.9978 0.68326 0.70431 0.0
C2261 C 0.00674 0.69786 0.70627 0.0
C2262 C 0.98513 0.63795 0.70129 0.0
C2263 C 0.97923 0.63115 0.67461 0.0
C2264 C 0.99066 0.65249 0.70301 0.0
C2265 C 0.99051 0.66063 0.67803 0.0
C2266 C 0.98396 0.65372 0.65175 0.0
C2267 C 0.97831 0.63911 0.65011 0.0
H2268 H 0.23657 0.39211 0.0836 0.0
H2269 H 0.22613 0.3673 1.00548 0.0
H2270 H 0.21339 0.39264 0.07988 0.0
H2271 H 0.20321 0.36813 1.00083 0.0
H2272 H 0.15636 0.35765 0.0198 0.0
H2273 H 0.17993 0.35836 0.02404 0.0
H2274 H 0.19918 0.40109 0.05329 0.0
H2275 H 0.17537 0.40021 0.04957 0.0
C2276 C 0.22941 0.38706 0.06522 0.0
C2277 C 0.23314 0.37981 0.0446 0.0
C2278 C 0.21613 0.38734 0.06302 0.0
C2279 C 0.20626 0.38034 0.04015 0.0
C2280 C 0.21031 0.37341 0.01911 0.0
C2281 C 0.22352 0.37307 0.02146 0.0
C2282 C 0.16562 0.36723 0.02707 0.0
C2283 C 0.16394 0.37891 0.03414 0.0
C2284 C 0.17922 0.36767 0.02937 0.0
C2285 C 0.19164 0.37986 0.03863 0.0
C2286 C 0.1899 0.39147 0.04631 0.0
C2287 C 0.17622 0.39098 0.04418 0.0
H2288 H 0.63508 0.78347 0.05899 0.0
H2289 H 0.60912 0.76948 0.98009 0.0
H2290 H 0.63313 0.80505 0.05674 0.0
H2291 H 0.60631 0.7905 0.97861 0.0
H2292 H 0.61762 0.83596 0.9617 0.0
H2293 H 0.61841 0.81407 0.96624 0.0
H2294 H 0.61953 0.81653 0.06235 0.0
H2295 H 0.62013 0.83919 0.05758 0.0
C2296 C 0.62871 0.78493 0.0415 0.0
C2297 C 0.62235 0.77487 0.01959 0.0
C2298 C 0.6275 0.79728 0.04022 0.0
C2299 C 0.61965 0.79976 0.01728 0.0
C2300 C 0.61281 0.78932 0.99612 0.0
C2301 C 0.61429 0.77715 0.99707 0.0
C2302 C 0.61825 0.832 0.98386 0.0
C2303 C 0.61898 0.83961 1.00921 0.0
C2304 C 0.61842 0.81919 0.98654 0.0
C2305 C 0.61902 0.81332 0.01472 0.0
C2306 C 0.61932 0.82071 0.04018 0.0
C2307 C 0.61939 0.83368 0.03745 0.0
H2308 H 0.16559 0.783 0.08967 0.0
H2309 H 0.16921 0.78446 0.99332 0.0
H2310 H 0.1886 0.80524 0.09083 0.0
H2311 H 0.19158 0.80695 0.99474 0.0
H2312 H 0.2173 0.85508 0.01176 0.0
H2313 H 0.19579 0.83189 0.01338 0.0
H2314 H 0.21749 0.81613 0.07278 0.0
H2315 H 0.23959 0.8392 0.06989 0.0
C2316 C 0.17127 0.78788 0.06876 0.0
C2317 C 0.16523 0.78186 0.04135 0.0
C2318 C 0.18445 0.8007 0.06949 0.0
C2319 C 0.19178 0.80793 0.04285 0.0
C2320 C 0.18605 0.80174 0.01561 0.0
C2321 C 0.1731 0.78885 0.01487 0.0
C2322 C 0.21776 0.84671 0.02479 0.0
C2323 C 0.23051 0.84917 0.04022 0.0
C2324 C 0.20529 0.8334 0.02589 0.0
C2325 C 0.20498 0.82216 0.04302 0.0
C2326 C 0.21741 0.82462 0.05944 0.0
C2327 C 0.23006 0.83791 0.05786 0.0
H2328 H 0.40083 0.22861 0.01292 0.0
H2329 H 0.37437 0.21752 0.93441 0.0
H2330 H 0.40186 0.20668 0.01165 0.0
H2331 H 0.37449 0.19506 0.93395 0.0
H2332 H 0.38321 0.158 0.92961 0.0
H2333 H 0.38586 0.18159 0.9265 0.0
H2334 H 0.38832 0.18318 0.02268 0.0
H2335 H 0.38708 0.1604 0.02548 0.0
C2336 C 0.39522 0.22142 0.99535 0.0
C2337 C 0.38752 0.22478 0.97379 0.0
C2338 C 0.39564 0.20871 0.99475 0.0
C2339 C 0.38803 0.19876 0.973 0.0
C2340 C 0.38065 0.20238 0.9509 0.0
C2341 C 0.38051 0.21527 0.95116 0.0
C2342 C 0.38461 0.16348 0.95007 0.0
C2343 C 0.38477 0.15703 0.97784 0.0
C2344 C 0.38591 0.17702 0.94834 0.0
C2345 C 0.38727 0.18451 0.97432 0.0
C2346 C 0.38756 0.17806 1.00197 0.0
C2347 C 0.38651 0.16469 1.00366 0.0
H2348 H 0.85944 0.21711 0.02762 0.0
H2349 H 0.84224 0.23798 0.96911 0.0
H2350 H 0.83563 0.19603 0.02955 0.0
H2351 H 0.81861 0.21633 0.96968 0.0
H2352 H 0.7865 0.16541 0.95946 0.0
H2353 H 0.80921 0.18788 0.95485 0.0
H2354 H 0.80862 0.19219 0.04994 0.0
H2355 H 0.78552 0.17031 0.05469 0.0
C2356 C 0.85066 0.21734 0.01524 0.0
C2357 C 0.85291 0.22954 0.99863 0.0
C2358 C 0.83701 0.20513 0.01618 0.0
C2359 C 0.82528 0.20459 0.99993 0.0
C2360 C 0.82752 0.21648 0.98238 0.0
C2361 C 0.84113 0.22886 0.98194 0.0
C2362 C 0.79093 0.17125 0.97938 0.0
C2363 C 0.78407 0.16577 1.00756 0.0
C2364 C 0.80402 0.18411 0.97667 0.0
C2365 C 0.81072 0.19167 1.00208 0.0
C2366 C 0.80377 0.18646 0.03004 0.0
C2367 C 0.79055 0.17381 0.03271 0.0
H2368 H 0.85128 0.62365 0.92801 0.0
H2369 H 0.8588 0.63172 0.02151 0.0
H2370 H 0.82743 0.62273 0.93294 0.0
H2371 H 0.83502 0.63095 0.02671 0.0
H2372 H 0.78574 0.61638 0.03054 0.0
H2373 H 0.80865 0.61563 0.02575 0.0
H2374 H 0.81763 0.63865 0.94087 0.0
H2375 H 0.79452 0.63903 0.94523 0.0
C2376 C 0.84774 0.62516 0.94965 0.0
C2377 C 0.85685 0.62784 0.97435 0.0
C2378 C 0.83414 0.62474 0.95249 0.0
C2379 C 0.82929 0.62689 0.98018 0.0
C2380 C 0.8383 0.62914 1.00509 0.0
C2381 C 0.85193 0.62962 1.00217 0.0
C2382 C 0.79251 0.62116 0.01069 0.0
C2383 C 0.7882 0.62775 0.98826 0.0
C2384 C 0.80576 0.62086 1.00809 0.0
C2385 C 0.81506 0.62707 0.98291 0.0
C2386 C 0.81071 0.63361 0.96043 0.0
C2387 C 0.79751 0.63398 0.9631 0.0
H2388 H 0.82381 0.70072 0.40971 0.0
H2389 H 0.83802 0.72329 0.32434 0.0
H2390 H 0.84721 0.70094 0.41424 0.0
H2391 H 0.86159 0.72389 0.32932 0.0
H2392 H 0.89544 0.70779 0.33361 0.0
H2393 H 0.87242 0.70851 0.32846 0.0
H2394 H 0.87303 0.71669 0.42224 0.0
H2395 H 0.89597 0.71581 0.42715 0.0
C2396 C 0.8319 0.70572 0.39187 0.0
C2397 C 0.82894 0.71197 0.36664 0.0
C2398 C 0.84543 0.70599 0.39463 0.0
C2399 C 0.85638 0.71247 0.37219 0.0
C2400 C 0.85341 0.7187 0.34695 0.0
C2401 C 0.83991 0.71849 0.34425 0.0
C2402 C 0.89066 0.70985 0.35298 0.0
C2403 C 0.89737 0.71165 0.38079 0.0
C2404 C 0.8775 0.71031 0.35008 0.0
C2405 C 0.87075 0.71256 0.37498 0.0
C2406 C 0.87773 0.71469 0.40269 0.0
C2407 C 0.89091 0.71429 0.40552 0.0
H2408 H 0.27053 0.16468 0.37678 0.0
H2409 H 0.30669 0.18096 0.31312 0.0
H2410 H 0.27236 0.14322 0.3839 0.0
H2411 H 0.30763 0.15921 0.31818 0.0
H2412 H 0.31635 0.12448 0.34919 0.0
H2413 H 0.31483 0.14618 0.34799 0.0
H2414 H 0.26804 0.122 0.36393 0.0
H2415 H 0.26987 0.10035 0.36678 0.0
C2416 C 0.27884 0.16374 0.36417 0.0
C2417 C 0.28839 0.17471 0.34421 0.0
C2418 C 0.27976 0.15126 0.36796 0.0
C2419 C 0.29018 0.14932 0.35173 0.0
C2420 C 0.29963 0.16026 0.33165 0.0
C2421 C 0.29886 0.17276 0.32821 0.0
C2422 C 0.30577 0.12385 0.35269 0.0
C2423 C 0.29323 0.11072 0.35796 0.0
C2424 C 0.30483 0.1363 0.35172 0.0
C2425 C 0.29125 0.136 0.3553 0.0
C2426 C 0.27873 0.12281 0.36134 0.0
C2427 C 0.27974 0.11034 0.36288 0.0
H2428 H 0.83097 0.11784 0.42516 0.0
H2429 H 0.83736 0.11698 0.33015 0.0
H2430 H 0.85437 0.13936 0.42714 0.0
H2431 H 0.85986 0.139 0.33161 0.0
H2432 H 0.90538 0.17408 0.34051 0.0
H2433 H 0.88389 0.15081 0.34319 0.0
H2434 H 0.8667 0.16342 0.41703 0.0
H2435 H 0.88883 0.18641 0.41528 0.0
C2436 C 0.83732 0.12216 0.40466 0.0
C2437 C 0.83201 0.11555 0.37745 0.0
C2438 C 0.85072 0.13473 0.4057 0.0
C2439 C 0.85921 0.14121 0.37953 0.0
C2440 C 0.85396 0.13442 0.35247 0.0
C2441 C 0.84074 0.12179 0.35152 0.0
C2442 C 0.89705 0.17177 0.35752 0.0
C2443 C 0.89877 0.18206 0.37764 0.0
C2444 C 0.88458 0.15844 0.35892 0.0
C2445 C 0.8732 0.15508 0.38002 0.0
C2446 C 0.87516 0.16537 0.40065 0.0
C2447 C 0.88784 0.17863 0.39963 0.0
H2448 H 0.02784 0.48164 0.31437 0.0
H2449 H 0.07461 0.50311 0.29994 0.0
H2450 H 0.02789 0.50409 0.31219 0.0
H2451 H 0.07495 0.52584 0.29944 0.0
H2452 H 0.07008 0.56517 0.28123 0.0
H2453 H 0.06982 0.5427 0.27685 0.0
H2454 H 0.03337 0.52321 0.33977 0.0
H2455 H 0.03281 0.54509 0.34204 0.0
C2456 C 0.03818 0.49123 0.31087 0.0
C2457 C 0.05123 0.4906 0.3075 0.0
C2458 C 0.03827 0.50419 0.3099 0.0
C2459 C 0.05147 0.51702 0.30622 0.0
C2460 C 0.06451 0.51632 0.30206 0.0
C2461 C 0.06437 0.50327 0.30245 0.0
C2462 C 0.06185 0.55605 0.29377 0.0
C2463 C 0.05155 0.55719 0.31221 0.0
C2464 C 0.06183 0.54311 0.29157 0.0
C2465 C 0.05156 0.53092 0.30789 0.0
C2466 C 0.04131 0.53213 0.32629 0.0
C2467 C 0.0412 0.54493 0.32813 0.0
H2468 H 0.51525 0.5617 0.38362 0.0
H2469 H 0.5173 0.55995 0.28756 0.0
H2470 H 0.49207 0.53993 0.38526 0.0
H2471 H 0.49353 0.53842 0.28942 0.0
H2472 H 0.44248 0.50785 0.31244 0.0
H2473 H 0.46557 0.52998 0.3073 0.0
H2474 H 0.48518 0.514 0.37159 0.0
H2475 H 0.46263 0.49169 0.37562 0.0
C2476 C 0.51088 0.55671 0.36278 0.0
C2477 C 0.51848 0.56261 0.33547 0.0
C2478 C 0.49747 0.54424 0.3638 0.0
C2479 C 0.49103 0.53742 0.33751 0.0
C2480 C 0.49822 0.5435 0.31004 0.0
C2481 C 0.51184 0.55589 0.30903 0.0
C2482 C 0.45173 0.50889 0.32519 0.0
C2483 C 0.45043 0.49784 0.34477 0.0
C2484 C 0.46496 0.52164 0.32228 0.0
C2485 C 0.47713 0.52375 0.33923 0.0
C2486 C 0.47591 0.51276 0.35857 0.0
C2487 C 0.46285 0.49996 0.36106 0.0
H2488 H 0.451 0.94833 0.36198 0.0
H2489 H 0.46119 0.97316 0.27927 0.0
H2490 H 0.47387 0.94746 0.35726 0.0
H2491 H 0.4842 0.97256 0.27491 0.0
H2492 H 0.51749 0.95727 0.26051 0.0
H2493 H 0.4936 0.95624 0.26544 0.0
H2494 H 0.50045 0.96296 0.35984 0.0
H2495 H 0.52433 0.96393 0.35462 0.0
C2496 C 0.45808 0.95356 0.34271 0.0
C2497 C 0.45418 0.96081 0.32099 0.0
C2498 C 0.47128 0.95317 0.34015 0.0
C2499 C 0.48093 0.95992 0.31568 0.0
C2500 C 0.477 0.9671 0.29389 0.0
C2501 C 0.46385 0.96758 0.29656 0.0
C2502 C 0.51377 0.9584 0.2823 0.0
C2503 C 0.52273 0.96078 0.30716 0.0
C2504 C 0.50016 0.95792 0.28513 0.0
C2505 C 0.4951 0.95966 0.313 0.0
C2506 C 0.50391 0.9615 0.33808 0.0
C2507 C 0.51759 0.96208 0.33516 0.0
H2508 H 0.5701 0.06174 0.74224 0.0
H2509 H 0.55401 0.02748 0.68227 0.0
H2510 H 0.54689 0.06221 0.73906 0.0
H2511 H 0.53086 0.02797 0.67848 0.0
H2512 H 0.48589 0.02244 0.70283 0.0
H2513 H 0.50914 0.02238 0.7071 0.0
H2514 H 0.53198 0.06787 0.70649 0.0
H2515 H 0.50869 0.06791 0.70346 0.0
C2516 C 0.56164 0.05447 0.728 0.0
C2517 C 0.56387 0.0447 0.71221 0.0
C2518 C 0.54833 0.05471 0.72612 0.0
C2519 C 0.5369 0.04511 0.70854 0.0
C2520 C 0.53927 0.0354 0.69259 0.0
C2521 C 0.55257 0.03518 0.69448 0.0
C2522 C 0.49583 0.03244 0.70402 0.0
C2523 C 0.49531 0.04517 0.70274 0.0
C2524 C 0.50924 0.03242 0.70607 0.0
C2525 C 0.52255 0.04513 0.70694 0.0
C2526 C 0.52201 0.05786 0.70609 0.0
C2527 C 0.50861 0.05788 0.70401 0.0
H2528 H 0.96131 0.44462 0.73333 0.0
H2529 H 0.95722 0.44383 0.63728 0.0
H2530 H 0.95921 0.46619 0.73298 0.0
H2531 H 0.95601 0.46563 0.63713 0.0
H2532 H 0.97585 0.51386 0.64959 0.0
H2533 H 0.97589 0.49149 0.65281 0.0
H2534 H 0.93934 0.47479 0.71508 0.0
H2535 H 0.93856 0.49699 0.71067 0.0
C2536 C 0.95988 0.4489 0.71219 0.0
C2537 C 0.9597 0.44246 0.68528 0.0
C2538 C 0.95874 0.46131 0.71204 0.0
C2539 C 0.95762 0.46766 0.68499 0.0
C2540 C 0.95709 0.46109 0.65828 0.0
C2541 C 0.95794 0.44861 0.65843 0.0
C2542 C 0.96755 0.50542 0.66354 0.0
C2543 C 0.95701 0.50735 0.67941 0.0
C2544 C 0.96772 0.49261 0.66559 0.0
C2545 C 0.95759 0.48139 0.68409 0.0
C2546 C 0.94732 0.48331 0.70075 0.0
C2547 C 0.94695 0.49609 0.69825 0.0
H2548 H 0.56276 0.5142 0.75733 0.0
H2549 H 0.56428 0.51207 0.6614 0.0
H2550 H 0.54171 0.4906 0.7602 0.0
H2551 H 0.54266 0.48928 0.66397 0.0
H2552 H 0.50942 0.44389 0.67305 0.0
H2553 H 0.53251 0.46577 0.67458 0.0
H2554 H 0.51683 0.47713 0.75277 0.0
H2555 H 0.49412 0.4547 0.75204 0.0
C2556 C 0.55867 0.50877 0.73681 0.0
C2557 C 0.56532 0.51531 0.7091 0.0
C2558 C 0.54637 0.49522 0.73841 0.0
C2559 C 0.54023 0.48781 0.71234 0.0
C2560 C 0.54702 0.49434 0.68474 0.0
C2561 C 0.55939 0.50771 0.6832 0.0
C2562 C 0.51104 0.45101 0.69079 0.0
C2563 C 0.49997 0.44758 0.71241 0.0
C2564 C 0.52425 0.4637 0.69154 0.0
C2565 C 0.52666 0.47357 0.7135 0.0
C2566 C 0.51563 0.46988 0.73565 0.0
C2567 C 0.50253 0.45701 0.73524 0.0
H2568 H 0.73476 0.89707 0.68011 0.0
H2569 H 0.7075 0.88567 0.60272 0.0
H2570 H 0.73556 0.87503 0.67901 0.0
H2571 H 0.70757 0.86317 0.60229 0.0
H2572 H 0.71697 0.82641 0.59743 0.0
H2573 H 0.71932 0.84989 0.59441 0.0
H2574 H 0.72164 0.8514 0.69058 0.0
H2575 H 0.72053 0.82863 0.69335 0.0
C2576 C 0.72892 0.8898 0.66281 0.0
C2577 C 0.72105 0.89312 0.64155 0.0
C2578 C 0.72923 0.87704 0.6623 0.0
C2579 C 0.72141 0.867 0.64088 0.0
C2580 C 0.71388 0.87056 0.61901 0.0
C2581 C 0.71379 0.88349 0.61924 0.0
C2582 C 0.71826 0.83184 0.61792 0.0
C2583 C 0.71846 0.82539 0.64566 0.0
C2584 C 0.71939 0.84532 0.61623 0.0
C2585 C 0.72066 0.85275 0.64223 0.0
C2586 C 0.72094 0.84629 0.66988 0.0
C2587 C 0.72 0.83296 0.67154 0.0
H2588 H 0.12897 0.82478 0.71077 0.0
H2589 H 0.10907 0.83988 0.64465 0.0
H2590 H 0.15119 0.84739 0.70731 0.0
H2591 H 0.13183 0.86233 0.64021 0.0
H2592 H 0.18327 0.89338 0.62267 0.0
H2593 H 0.15979 0.87157 0.62412 0.0
H2594 H 0.15766 0.87303 0.71989 0.0
H2595 H 0.18058 0.89507 0.71861 0.0
C2596 C 0.12918 0.83289 0.69568 0.0
C2597 C 0.11693 0.83038 0.67837 0.0
C2598 C 0.14205 0.84586 0.69354 0.0
C2599 C 0.14325 0.85666 0.67361 0.0
C2600 C 0.13125 0.85416 0.65568 0.0
C2601 C 0.11821 0.84123 0.65819 0.0
C2602 C 0.17771 0.88925 0.64403 0.0
C2603 C 0.1841 0.89604 0.67057 0.0
C2604 C 0.16426 0.87669 0.64481 0.0
C2605 C 0.15697 0.87051 0.67215 0.0
C2606 C 0.16314 0.87741 0.69852 0.0
C2607 C 0.1764 0.89004 0.69773 0.0
H2608 H 0.18169 0.28292 0.6047 0.0
H2609 H 0.19646 0.30749 0.68309 0.0
H2610 H 0.15809 0.28251 0.6089 0.0
H2611 H 0.17274 0.30676 0.68828 0.0
H2612 H 0.13545 0.31638 0.67101 0.0
H2613 H 0.15852 0.31609 0.6669 0.0
H2614 H 0.13567 0.2737 0.63562 0.0
H2615 H 0.1127 0.27432 0.63796 0.0
C2616 C 0.17971 0.28799 0.62319 0.0
C2617 C 0.19076 0.2951 0.64378 0.0
C2618 C 0.16618 0.28775 0.62571 0.0
C2619 C 0.16337 0.29462 0.64894 0.0
C2620 C 0.17448 0.30154 0.66979 0.0
C2621 C 0.18802 0.30184 0.6671 0.0
C2622 C 0.13531 0.30705 0.66282 0.0
C2623 C 0.12206 0.29539 0.65475 0.0
C2624 C 0.1486 0.30679 0.66092 0.0
C2625 C 0.1491 0.29484 0.65105 0.0
C2626 C 0.13585 0.28317 0.64302 0.0
C2627 C 0.12257 0.28346 0.64476 0.0
H2628 H 0.05285 0.40036 0.23711 0.0
H2629 H 0.08605 0.44295 0.21492 0.0
H2630 H 0.06088 0.39205 0.19441 0.0
H2631 H 0.0944 0.43468 0.1728 0.0
H2632 H 0.11488 0.41271 0.11699 0.0
H2633 H 0.10675 0.4212 0.15907 0.0
H2634 H 0.06181 0.39207 0.13981 0.0
H2635 H 0.07003 0.38392 0.09715 0.0
C2636 C 0.06198 0.40797 0.22331 0.0
C2637 C 0.06903 0.42232 0.23033 0.0
C2638 C 0.06657 0.4032 0.19857 0.0
C2639 C 0.07847 0.41259 0.17982 0.0
C2640 C 0.08543 0.42698 0.18677 0.0
C2641 C 0.08069 0.43175 0.21126 0.0
C2642 C 0.10324 0.40837 0.12115 0.0
C2643 C 0.09315 0.3979 0.10273 0.0
C2644 C 0.09853 0.41318 0.14561 0.0
C2645 C 0.08352 0.40748 0.15322 0.0
C2646 C 0.07345 0.39678 0.13513 0.0
C2647 C 0.07817 0.39212 0.1104 0.0
H2648 H 0.573 0.63001 0.21317 0.0
H2649 H 0.60176 0.66467 0.26603 0.0
H2650 H 0.58027 0.64569 0.16845 0.0
H2651 H 0.60933 0.68047 0.22137 0.0
H2652 H 0.61212 0.70883 0.13986 0.0
H2653 H 0.60389 0.69316 0.18463 0.0
H2654 H 0.59837 0.65851 0.13164 0.0
H2655 H 0.60642 0.67429 0.08694 0.0
C2656 C 0.58096 0.64101 0.21523 0.0
C2657 C 0.58688 0.64597 0.24335 0.0
C2658 C 0.58525 0.65009 0.18939 0.0
C2659 C 0.59559 0.66457 0.19056 0.0
C2660 C 0.60126 0.66954 0.21901 0.0
C2661 C 0.59696 0.66043 0.24484 0.0
C2662 C 0.60919 0.69786 0.1378 0.0
C2663 C 0.61015 0.69293 0.10965 0.0
C2664 C 0.60449 0.68879 0.16367 0.0
C2665 C 0.60044 0.67434 0.16248 0.0
C2666 C 0.60116 0.66941 0.13401 0.0
C2667 C 0.60588 0.67851 0.10816 0.0
H2668 H 0.31223 0.89731 0.13459 0.0
H2669 H 0.3229 0.94005 0.11083 0.0
H2670 H 0.32881 0.90552 0.17679 0.0
H2671 H 0.33927 0.94834 0.15349 0.0
H2672 H 0.35677 0.95706 0.25025 0.0
H2673 H 0.34033 0.94887 0.20771 0.0
H2674 H 0.35448 0.91834 0.19099 0.0
H2675 H 0.37108 0.92678 0.23318 0.0
C2676 C 0.31833 0.90852 0.13797 0.0
C2677 C 0.31647 0.91801 0.11847 0.0
C2678 C 0.32784 0.91327 0.16246 0.0
C2679 C 0.33565 0.9277 0.16893 0.0
C2680 C 0.33351 0.93716 0.14972 0.0
C2681 C 0.32413 0.9324 0.12501 0.0
C2682 C 0.35635 0.94857 0.23753 0.0
C2683 C 0.36515 0.94246 0.24577 0.0
C2684 C 0.34693 0.94389 0.21288 0.0
C2685 C 0.34584 0.93281 0.1955 0.0
C2686 C 0.35468 0.9267 0.20381 0.0
C2687 C 0.36424 0.93153 0.22823 0.0
H2688 H 0.40299 0.07194 0.92639 0.0
H2689 H 0.39776 0.10166 0.86864 0.0
H2690 H 0.41163 0.06419 0.88384 0.0
H2691 H 0.40672 0.09429 0.826 0.0
H2692 H 0.41062 0.06942 0.74821 0.0
H2693 H 0.40237 0.07755 0.79073 0.0
H2694 H 0.42977 0.06809 0.84879 0.0
H2695 H 0.4376 0.05966 0.8062 0.0
C2696 C 0.40377 0.0769 0.90456 0.0
C2697 C 0.39946 0.08732 0.90108 0.0
C2698 C 0.40884 0.07251 0.87992 0.0
C2699 C 0.40994 0.07845 0.85073 0.0
C2700 C 0.40584 0.0891 0.84756 0.0
C2701 C 0.40074 0.09344 0.87221 0.0
C2702 C 0.4149 0.06913 0.77008 0.0
C2703 C 0.42472 0.06375 0.77361 0.0
C2704 C 0.41022 0.07388 0.79469 0.0
C2705 C 0.41522 0.07355 0.82394 0.0
C2706 C 0.42528 0.06836 0.82718 0.0
C2707 C 0.42992 0.06358 0.80255 0.0
H2708 H 0.94489 0.32009 0.91222 0.0
H2709 H 0.89996 0.30848 0.89493 0.0
H2710 H 0.95265 0.33533 0.86663 0.0
H2711 H 0.90768 0.32405 0.84996 0.0
H2712 H 0.92895 0.36467 0.78689 0.0
H2713 H 0.9209 0.34914 0.83192 0.0
H2714 H 0.95197 0.33501 0.81161 0.0
H2715 H 0.95962 0.35022 0.76598 0.0
C2716 C 0.93665 0.3209 0.89889 0.0
C2717 C 0.9218 0.31329 0.90808 0.0
C2718 C 0.9411 0.32963 0.87251 0.0
C2719 C 0.93088 0.33117 0.85425 0.0
C2720 C 0.916 0.32348 0.86343 0.0
C2721 C 0.91155 0.31458 0.88956 0.0
C2722 C 0.93378 0.35796 0.79146 0.0
C2723 C 0.94464 0.35845 0.7719 0.0
C2724 C 0.92924 0.34908 0.81763 0.0
C2725 C 0.93564 0.3406 0.82581 0.0
C2726 C 0.94673 0.34133 0.80651 0.0
C2727 C 0.95109 0.35003 0.7801 0.0
H2728 H 0.68015 0.60529 0.93754 0.0
H2729 H 0.71607 0.61189 0.87991 0.0
H2730 H 0.66348 0.59701 0.89544 0.0
H2731 H 0.69951 0.6034 0.83774 0.0
H2732 H 0.66903 0.60006 0.75996 0.0
H2733 H 0.68569 0.60791 0.80213 0.0
H2734 H 0.65029 0.57945 0.86153 0.0
H2735 H 0.63374 0.57186 0.81926 0.0
C2736 C 0.68448 0.60487 0.91586 0.0
C2737 C 0.69955 0.60942 0.91228 0.0
C2738 C 0.67487 0.60003 0.8915 0.0
C2739 C 0.6799 0.59947 0.86247 0.0
C2740 C 0.69501 0.60383 0.85919 0.0
C2741 C 0.7046 0.60866 0.88357 0.0
C2742 C 0.66482 0.59548 0.78206 0.0
C2743 C 0.6499 0.58548 0.78605 0.0
C2744 C 0.67444 0.59994 0.80646 0.0
C2745 C 0.66957 0.5945 0.83596 0.0
C2746 C 0.65463 0.58425 0.83968 0.0
C2747 C 0.64505 0.57981 0.81526 0.0
H2748 H 0.91076 0.6149 0.8322 0.0
H2749 H 0.93337 0.6035 0.89907 0.0
H2750 H 0.91805 0.60355 0.79444 0.0
H2751 H 0.94113 0.5928 0.86153 0.0
H2752 H 0.94202 0.56339 0.79283 0.0
H2753 H 0.93291 0.57331 0.83022 0.0
H2754 H 0.93964 0.60713 0.76716 0.0
H2755 H 0.94839 0.59686 0.72973 0.0
C2756 C 0.9172 0.60992 0.83887 0.0
C2757 C 0.92161 0.61026 0.86858 0.0
C2758 C 0.92154 0.60356 0.81719 0.0
C2759 C 0.9303 0.59733 0.82483 0.0
C2760 C 0.93431 0.59735 0.85475 0.0
C2761 C 0.92998 0.60366 0.87628 0.0
C2762 C 0.94173 0.57305 0.78729 0.0
C2763 C 0.94617 0.57957 0.7588 0.0
C2764 C 0.93648 0.57874 0.80859 0.0
C2765 C 0.93555 0.59108 0.80181 0.0
C2766 C 0.94001 0.59754 0.7731 0.0
C2767 C 0.9452 0.5918 0.75179 0.0
H2768 H 0.37604 0.31314 0.90769 0.0
H2769 H 0.4077 0.30204 0.87435 0.0
H2770 H 0.38523 0.33328 0.87135 0.0
H2771 H 0.41711 0.32222 0.83854 0.0
H2772 H 0.44222 0.36916 0.80984 0.0
H2773 H 0.43096 0.34889 0.84536 0.0
H2774 H 0.38816 0.33936 0.81406 0.0
H2775 H 0.39957 0.35957 0.77796 0.0
C2776 C 0.38482 0.31492 0.89225 0.0
C2777 C 0.39128 0.30618 0.89389 0.0
C2778 C 0.3901 0.32644 0.87155 0.0
C2779 C 0.40206 0.32948 0.85241 0.0
C2780 C 0.40806 0.32032 0.85333 0.0
C2781 C 0.40264 0.30873 0.87365 0.0
C2782 C 0.4304 0.36277 0.81075 0.0
C2783 C 0.42175 0.36576 0.79099 0.0
C2784 C 0.42396 0.35113 0.83091 0.0
C2785 C 0.40868 0.34238 0.8322 0.0
C2786 C 0.39996 0.34587 0.81355 0.0
C2787 C 0.40645 0.35743 0.79299 0.0
H2788 H 0.69499 0.0698 0.94752 0.0
H2789 H 0.70957 0.11069 0.90463 0.0
H2790 H 0.67642 0.05899 0.90931 0.0
H2791 H 0.6908 0.10016 0.86694 0.0
H2792 H 0.66415 0.07601 0.78876 0.0
H2793 H 0.68348 0.08571 0.82515 0.0
H2794 H 0.65365 0.05715 0.89354 0.0
H2795 H 0.63432 0.04727 0.8568 0.0
C2796 C 0.69423 0.07642 0.92968 0.0
C2797 C 0.70364 0.09102 0.92879 0.0
C2798 C 0.68351 0.0703 0.908 0.0
C2799 C 0.68198 0.07868 0.88499 0.0
C2800 C 0.69171 0.0933 0.88397 0.0
C2801 C 0.70244 0.09939 0.90557 0.0
C2802 C 0.66166 0.07186 0.81162 0.0
C2803 C 0.64761 0.06093 0.81986 0.0
C2804 C 0.67278 0.07744 0.83255 0.0
C2805 C 0.67019 0.07231 0.86246 0.0
C2806 C 0.65616 0.06126 0.87067 0.0
C2807 C 0.64503 0.05561 0.84962 0.0
H2808 H 0.60521 0.89625 0.12221 0.0
H2809 H 0.61313 0.93032 0.05941 0.0
H2810 H 0.5965 0.90658 0.15949 0.0
H2811 H 0.60459 0.94087 0.09667 0.0
H2812 H 0.59895 0.9378 0.22833 0.0
H2813 H 0.60602 0.92658 0.1906 0.0
H2814 H 0.58285 0.9376 0.12424 0.0
H2815 H 0.57612 0.94931 0.16222 0.0
C2816 C 0.60531 0.9061 0.11666 0.0
C2817 C 0.61015 0.91271 0.08834 0.0
C2818 C 0.60028 0.91201 0.1379 0.0
C2819 C 0.59989 0.92462 0.13118 0.0
C2820 C 0.60458 0.9311 0.10255 0.0
C2821 C 0.60961 0.92517 0.08134 0.0
C2822 C 0.59538 0.93789 0.20567 0.0
C2823 C 0.58711 0.94462 0.19823 0.0
C2824 C 0.59931 0.9313 0.18405 0.0
C2825 C 0.59506 0.93119 0.15428 0.0
C2826 C 0.58648 0.93763 0.14688 0.0
C2827 C 0.58248 0.94422 0.16867 0.0
H2828 H 0.07506 0.63571 0.21107 0.0
H2829 H 0.04474 0.64819 0.2459 0.0
H2830 H 0.08431 0.6555 0.17426 0.0
H2831 H 0.0538 0.66795 0.20869 0.0
H2832 H 0.06682 0.69361 0.11542 0.0
H2833 H 0.05575 0.67364 0.15212 0.0
H2834 H 0.09891 0.68202 0.17855 0.0
H2835 H 0.10984 0.70204 0.14239 0.0
C2836 C 0.07027 0.64263 0.21052 0.0
C2837 C 0.05933 0.64057 0.23141 0.0
C2838 C 0.07561 0.654 0.18963 0.0
C2839 C 0.06994 0.66344 0.18883 0.0
C2840 C 0.0584 0.66089 0.20874 0.0
C2841 C 0.05319 0.64959 0.22995 0.0
C2842 C 0.07387 0.69123 0.12942 0.0
C2843 C 0.08915 0.69916 0.12584 0.0
C2844 C 0.06757 0.67982 0.15036 0.0
C2845 C 0.07645 0.67609 0.16789 0.0
C2846 C 0.09176 0.68442 0.16496 0.0
C2847 C 0.09803 0.6959 0.14438 0.0
H2848 H 0.35289 0.40762 0.29395 0.0
H2849 H 0.38102 0.44021 0.23003 0.0
H2850 H 0.33406 0.39722 0.25614 0.0
H2851 H 0.36222 0.43008 0.19217 0.0
H2852 H 0.29799 0.39024 0.18964 0.0
H2853 H 0.31662 0.40137 0.22759 0.0
H2854 H 0.35053 0.41004 0.16182 0.0
H2855 H 0.3321 0.39949 0.12404 0.0
C2856 C 0.35504 0.41244 0.27161 0.0
C2857 C 0.36847 0.42446 0.26455 0.0
C2858 C 0.34423 0.40662 0.25007 0.0
C2859 C 0.34658 0.41279 0.22102 0.0
C2860 C 0.36009 0.42488 0.21411 0.0
C2861 C 0.37091 0.43067 0.23567 0.0
C2862 C 0.30944 0.3947 0.18329 0.0
C2863 C 0.31352 0.39383 0.15387 0.0
C2864 C 0.32012 0.40093 0.20509 0.0
C2865 C 0.33512 0.40654 0.19787 0.0
C2866 C 0.33914 0.40596 0.16824 0.0
C2867 C 0.32852 0.39975 0.1466 0.0
H2868 H 0.73235 0.77019 0.53303 0.0
H2869 H 0.73643 0.74031 0.59251 0.0
H2870 H 0.74123 0.76224 0.49122 0.0
H2871 H 0.74521 0.73216 0.5508 0.0
H2872 H 0.77222 0.72779 0.47439 0.0
H2873 H 0.76415 0.73647 0.51623 0.0
H2874 H 0.73607 0.74442 0.45712 0.0
H2875 H 0.74437 0.73585 0.41539 0.0
C2876 C 0.73504 0.76181 0.53717 0.0
C2877 C 0.73342 0.75579 0.56627 0.0
C2878 C 0.74013 0.75717 0.51302 0.0
C2879 C 0.74396 0.74636 0.51696 0.0
C2880 C 0.7426 0.74056 0.54636 0.0
C2881 C 0.73747 0.7452 0.57049 0.0
C2882 C 0.7643 0.73137 0.47035 0.0
C2883 C 0.75889 0.73095 0.44136 0.0
C2884 C 0.75956 0.73632 0.49452 0.0
C2885 C 0.74927 0.74119 0.49072 0.0
C2886 C 0.74408 0.74098 0.46144 0.0
C2887 C 0.74881 0.73599 0.4373 0.0
H2888 H 0.27951 0.04264 0.47551 0.0
H2889 H 0.27278 0.008 0.4218 0.0
H2890 H 0.27106 0.02683 0.52006 0.0
H2891 H 0.26445 0.99207 0.46627 0.0
H2892 H 0.23855 0.9637 0.54765 0.0
H2893 H 0.24615 0.97955 0.50315 0.0
H2894 H 0.27635 0.01366 0.5562 0.0
H2895 H 0.26848 0.99771 0.60064 0.0
C2896 C 0.2763 0.03162 0.47323 0.0
C2897 C 0.27705 0.0267 0.44493 0.0
C2898 C 0.27148 0.02248 0.49896 0.0
C2899 C 0.26705 0.00796 0.49746 0.0
C2900 C 0.26754 1.00304 0.46886 0.0
C2901 C 0.27241 0.01222 0.44314 0.0
C2902 C 0.24684 0.97459 0.54977 0.0
C2903 C 0.25297 0.97933 0.57785 0.0
C2904 C 0.2513 0.98376 0.52407 0.0
C2905 C 0.26205 0.9981 0.52538 0.0
C2906 C 0.26797 1.00285 0.55378 0.0
C2907 C 0.26349 0.99365 0.57947 0.0
H2908 H 0.01371 0.27303 0.6025 0.0
H2909 H 0.04909 0.2781 0.54501 0.0
H2910 H 0.99689 0.26478 0.5606 0.0
H2911 H 0.03238 0.26966 0.50306 0.0
H2912 H 1.00207 0.26672 0.42531 0.0
H2913 H 0.01882 0.2746 0.46733 0.0
H2914 H 0.98334 0.24686 0.52733 0.0
H2915 H 0.9667 0.2392 0.48518 0.0
C2916 C 0.01788 0.27228 0.5809 0.0
C2917 C 0.03284 0.27637 0.57726 0.0
C2918 C 0.00819 0.26747 0.55667 0.0
C2919 C 0.01305 0.2665 0.52777 0.0
C2920 C 0.02805 0.27042 0.52444 0.0
C2921 C 0.03771 0.27521 0.54868 0.0
C2922 C 0.99786 0.26232 0.44751 0.0
C2923 C 0.98291 0.2525 0.45171 0.0
C2924 C 0.00752 0.26679 0.47181 0.0
C2925 C 1.00265 0.26154 0.5014 0.0
C2926 C 0.98767 0.2515 0.50536 0.0
C2927 C 0.97804 0.24703 0.48103 0.0
H2928 H 0.28091 0.26512 0.39334 0.0
H2929 H 0.27626 0.23202 0.45577 0.0
H2930 H 0.27233 0.27509 0.43176 0.0
H2931 H 0.26735 0.24166 0.49418 0.0
H2932 H 0.26749 0.27129 0.56409 0.0
H2933 H 0.2753 0.26101 0.52571 0.0
H2934 H 0.25098 0.27108 0.46037 0.0
H2935 H 0.24364 0.28202 0.49895 0.0
C2936 C 0.27817 0.2601 0.41549 0.0
C2937 C 0.27959 0.24806 0.42197 0.0
C2938 C 0.27307 0.26566 0.43738 0.0
C2939 C 0.26912 0.25921 0.4662 0.0
C2940 C 0.27053 0.24709 0.47248 0.0
C2941 C 0.27568 0.24157 0.45059 0.0
C2942 C 0.26384 0.27139 0.54151 0.0
C2943 C 0.25509 0.27769 0.53456 0.0
C2944 C 0.2682 0.26532 0.51949 0.0
C2945 C 0.26387 0.26523 0.48978 0.0
C2946 C 0.25474 0.27115 0.48291 0.0
C2947 C 0.25036 0.27727 0.50507 0.0
H2948 H 0.72346 0.9635 0.5279 0.0
H2949 H 0.72345 0.98995 0.59735 0.0
H2950 H 0.73189 0.9834 0.49159 0.0
H2951 H 0.73186 0.00992 0.56121 0.0
H2952 H 0.76569 0.04527 0.4965 0.0
H2953 H 0.75413 0.0254 0.53286 0.0
H2954 H 0.72563 0.99952 0.46451 0.0
H2955 H 0.73729 0.01948 0.42831 0.0
C2956 C 0.72483 0.97348 0.53516 0.0
C2957 C 0.72247 0.97512 0.56525 0.0
C2958 C 0.72975 0.98493 0.51442 0.0
C2959 C 0.73258 0.99834 0.52337 0.0
C2960 C 0.72995 0.99984 0.55349 0.0
C2961 C 0.72499 0.98838 0.57415 0.0
C2962 C 0.75667 0.03545 0.48956 0.0
C2963 C 0.75213 0.03399 0.45981 0.0
C2964 C 0.75007 0.02402 0.51032 0.0
C2965 C 0.73889 0.01079 0.50172 0.0
C2966 C 0.73427 0.00946 0.47194 0.0
C2967 C 0.74084 0.02091 0.45125 0.0
H2968 H 0.04384 0.77559 0.56993 0.0
H2969 H 0.02775 0.73514 0.61593 0.0
H2970 H 0.02524 0.76496 0.53205 0.0
H2971 H 0.00936 0.72419 0.57746 0.0
H2972 H 0.96754 0.71321 0.52443 0.0
H2973 H 0.98705 0.72283 0.56085 0.0
H2974 H 0.01726 0.75008 0.49141 0.0
H2975 H 0.9977 0.74072 0.45543 0.0
C2976 C 0.03646 0.76433 0.57143 0.0
C2977 C 0.03715 0.75614 0.59563 0.0
C2978 C 0.02581 0.75819 0.54973 0.0
C2979 C 0.01567 0.74367 0.55161 0.0
C2980 C 0.01677 0.73542 0.57547 0.0
C2981 C 0.0274 0.74162 0.5973 0.0
C2982 C 0.97837 0.72122 0.51699 0.0
C2983 C 0.98101 0.72631 0.48709 0.0
C2984 C 0.98961 0.7267 0.53784 0.0
C2985 C 1.0038 0.73733 0.52923 0.0
C2986 C 0.00644 0.74216 0.49913 0.0
C2987 C 0.99521 0.73678 0.47843 0.0
H2988 H 0.06971 0.34791 0.91526 0.0
H2989 H 0.11515 0.36021 0.90072 0.0
H2990 H 0.06368 0.33591 0.8678 0.0
H2991 H 0.10931 0.34845 0.85305 0.0
H2992 H 0.09255 0.31462 0.78187 0.0
H2993 H 0.09827 0.32631 0.82966 0.0
H2994 H 0.06514 0.33867 0.81443 0.0
H2995 H 0.0594 0.32678 0.76688 0.0
C2996 C 0.07846 0.34818 0.90173 0.0
C2997 C 0.09296 0.35527 0.91173 0.0
C2998 C 0.07502 0.34131 0.87431 0.0
C2999 C 0.08594 0.3411 0.85596 0.0
C3000 C 0.10047 0.34814 0.86627 0.0
C3001 C 0.1039 0.35507 0.8936 0.0
C3002 C 0.08642 0.31975 0.78887 0.0
C3003 C 0.0754 0.31961 0.77049 0.0
C3004 C 0.08979 0.32661 0.81629 0.0
C3005 C 0.08224 0.33359 0.82648 0.0
C3006 C 0.07115 0.33334 0.80799 0.0
C3007 C 0.06785 0.32655 0.7805 0.0
H3008 H 0.64769 0.71089 0.89897 0.0
H3009 H 0.65839 0.75406 0.90941 0.0
H3010 H 0.65932 0.71707 0.84905 0.0
H3011 H 0.67027 0.76044 0.85992 0.0
H3012 H 0.67957 0.7661 0.75859 0.0
H3013 H 0.66738 0.7595 0.80776 0.0
H3014 H 0.68181 0.72854 0.82098 0.0
H3015 H 0.69372 0.73506 0.77135 0.0
C3016 C 0.65254 0.72172 0.89058 0.0
C3017 C 0.65213 0.73196 0.90841 0.0
C3018 C 0.65936 0.72535 0.8619 0.0
C3019 C 0.66595 0.73936 0.84984 0.0
C3020 C 0.66528 0.74952 0.86775 0.0
C3021 C 0.65851 0.74589 0.8964 0.0
C3022 C 0.68007 0.75783 0.77195 0.0
C3023 C 0.68751 0.75101 0.76066 0.0
C3024 C 0.67315 0.75408 0.80047 0.0
C3025 C 0.67342 0.74337 0.81899 0.0
C3026 C 0.68102 0.73665 0.80763 0.0
C3027 C 0.68799 0.74045 0.7791 0.0
H3028 H 0.26017 0.90102 0.9126 0.0
H3029 H 0.29094 0.94455 0.92584 0.0
H3030 H 0.25426 0.90743 0.8635 0.0
H3031 H 0.28504 0.95113 0.8768 0.0
H3032 H 0.28122 0.95641 0.7741 0.0
H3033 H 0.28737 0.95024 0.82329 0.0
H3034 H 0.24218 0.91867 0.83802 0.0
H3035 H 0.23621 0.92486 0.78876 0.0
C3036 C 0.26574 0.91199 0.90492 0.0
C3037 C 0.27618 0.92223 0.92313 0.0
C3038 C 0.26226 0.91573 0.87674 0.0
C3039 C 0.26912 0.92988 0.86561 0.0
C3040 C 0.27959 0.94011 0.88401 0.0
C3041 C 0.28297 0.93636 0.91232 0.0
C3042 C 0.2726 0.94823 0.78799 0.0
C3043 C 0.25818 0.94129 0.77751 0.0
C3044 C 0.2761 0.94468 0.81638 0.0
C3045 C 0.26533 0.93389 0.8352 0.0
C3046 C 0.2509 0.92692 0.82445 0.0
C3047 C 0.2474 0.93055 0.79619 0.0
H3048 H 0.34861 0.06213 0.09539 0.0
H3049 H 0.36128 0.10563 0.10833 0.0
H3050 H 0.3364 0.05561 0.14475 0.0
H3051 H 0.34925 0.09927 0.15777 0.0
H3052 H 0.32761 0.05039 0.24751 0.0
H3053 H 0.33976 0.05655 0.19811 0.0
H3054 H 0.32609 0.08801 0.18392 0.0
H3055 H 0.31411 0.08184 0.23342 0.0
C3056 C 0.3489 0.07034 0.10894 0.0
C3057 C 0.35615 0.08444 0.09793 0.0
C3058 C 0.34192 0.06661 0.13743 0.0
C3059 C 0.34172 0.07685 0.15585 0.0
C3060 C 0.34892 0.09097 0.14454 0.0
C3061 C 0.356 0.09469 0.11617 0.0
C3062 C 0.32711 0.05855 0.2337 0.0
C3063 C 0.31966 0.06545 0.24441 0.0
C3064 C 0.33407 0.06209 0.20518 0.0
C3065 C 0.33403 0.07284 0.18643 0.0
C3066 C 0.3266 0.07979 0.19742 0.0
C3067 C 0.31956 0.07616 0.22582 0.0
H3068 H 0.91914 0.23864 0.25609 0.0
H3069 H 0.96409 0.27096 0.24568 0.0
H3070 H 0.9138 0.24521 0.20669 0.0
H3071 H 0.95899 0.27747 0.19581 0.0
H3072 H 0.94224 0.29486 0.11797 0.0
H3073 H 0.94764 0.28849 0.1677 0.0
H3074 H 0.91638 0.24489 0.15463 0.0
H3075 H 0.91089 0.25144 0.10539 0.0
C3076 C 0.92793 0.24714 0.24312 0.0
C3077 C 0.94203 0.25433 0.25512 0.0
C3078 C 0.92491 0.2509 0.21451 0.0
C3079 C 0.9359 0.26198 0.19662 0.0
C3080 C 0.95008 0.26905 0.20866 0.0
C3081 C 0.95309 0.26524 0.2373 0.0
C3082 C 0.93654 0.28392 0.1258 0.0
C3083 C 0.92623 0.27368 0.1074 0.0
C3084 C 0.9397 0.2802 0.15437 0.0
C3085 C 0.93256 0.26607 0.16578 0.0
C3086 C 0.92209 0.25588 0.1473 0.0
C3087 C 0.91898 0.25962 0.11876 0.0
H3088 H 0.77539 0.68017 0.25214 0.0
H3089 H 0.74289 0.69308 0.23595 0.0
H3090 H 0.76982 0.66839 0.20444 0.0
H3091 H 0.73726 0.68139 0.18808 0.0
H3092 H 0.72041 0.64722 0.11688 0.0
H3093 H 0.72602 0.65891 0.16476 0.0
H3094 H 0.77171 0.67148 0.15092 0.0
H3095 H 0.76594 0.65971 0.1032 0.0
C3096 C 0.76709 0.68056 0.23825 0.0
C3097 C 0.75962 0.68762 0.24803 0.0
C3098 C 0.76389 0.67382 0.21068 0.0
C3099 C 0.75299 0.67376 0.19185 0.0
C3100 C 0.74557 0.68092 0.20175 0.0
C3101 C 0.74888 0.68776 0.22922 0.0
C3102 C 0.73164 0.65244 0.12417 0.0
C3103 C 0.7427 0.65247 0.10606 0.0
C3104 C 0.73493 0.65928 0.15164 0.0
C3105 C 0.7494 0.66632 0.16225 0.0
C3106 C 0.76041 0.66615 0.14412 0.0
C3107 C 0.75713 0.65941 0.11654 0.0
H3108 H 0.91007 0.65859 0.26476 0.0
H3109 H 0.91778 0.69961 0.23192 0.0
H3110 H 0.90396 0.64987 0.21473 0.0
H3111 H 0.91266 0.69115 0.1815 0.0
H3112 H 0.89307 0.66895 0.09517 0.0
H3113 H 0.89526 0.67657 0.14659 0.0
H3114 H 0.91693 0.6523 0.16997 0.0
H3115 H 0.91437 0.6445 0.1192 0.0
C3116 C 0.91033 0.66574 0.24699 0.0
C3117 C 0.91459 0.67987 0.2525 0.0
C3118 C 0.90704 0.66079 0.2181 0.0
C3119 C 0.90806 0.66985 0.19384 0.0
C3120 C 0.9117 0.68382 0.19954 0.0
C3121 C 0.91485 0.68874 0.22849 0.0
C3122 C 0.89827 0.66527 0.11142 0.0
C3123 C 0.90341 0.65602 0.10325 0.0
C3124 C 0.89955 0.66963 0.14086 0.0
C3125 C 0.90615 0.66496 0.16264 0.0
C3126 C 0.91142 0.65583 0.15417 0.0
C3127 C 0.91001 0.65139 0.12496 0.0
H3128 H 0.32986 0.2699 0.23419 0.0
H3129 H 0.30792 0.22547 0.21835 0.0
H3130 H 0.34043 0.275 0.18343 0.0
H3131 H 0.31785 0.2304 0.16735 0.0
H3132 H 0.34526 0.28031 0.0816 0.0
H3133 H 0.33445 0.27519 0.13213 0.0
H3134 H 0.33954 0.23791 0.13898 0.0
H3135 H 0.3498 0.24291 0.08818 0.0
C3136 C 0.32728 0.26126 0.21967 0.0
C3137 C 0.318 0.24734 0.22986 0.0
C3138 C 0.33319 0.26414 0.19054 0.0
C3139 C 0.32994 0.25313 0.17103 0.0
C3140 C 0.32077 0.23916 0.18167 0.0
C3141 C 0.31497 0.23631 0.21079 0.0
C3142 C 0.34379 0.27092 0.09392 0.0
C3143 C 0.34805 0.26184 0.08105 0.0
C3144 C 0.33779 0.26806 0.12296 0.0
C3145 C 0.33609 0.25612 0.13983 0.0
C3146 C 0.34038 0.24704 0.12662 0.0
C3147 C 0.34628 0.24988 0.09756 0.0
H3148 H 0.77886 0.09126 0.25941 0.0
H3149 H 0.7329 0.06246 0.27371 0.0
H3150 H 0.77428 0.09617 0.20806 0.0
H3151 H 0.72804 0.06765 0.22253 0.0
H3152 H 0.72662 0.0689 0.12014 0.0
H3153 H 0.73133 0.06377 0.17147 0.0
H3154 H 0.76394 0.10751 0.17867 0.0
H3155 H 0.75946 0.11233 0.12716 0.0
C3156 C 0.76774 0.08615 0.25149 0.0
C3157 C 0.75622 0.07649 0.27025 0.0
C3158 C 0.76506 0.08897 0.22215 0.0
C3159 C 0.75077 0.08229 0.21094 0.0
C3160 C 0.73921 0.07281 0.23013 0.0
C3161 C 0.74193 0.06993 0.2595 0.0
C3162 C 0.73489 0.0773 0.13277 0.0
C3163 C 0.74278 0.09095 0.11989 0.0
C3164 C 0.7375 0.07445 0.16224 0.0
C3165 C 0.74801 0.08523 0.17941 0.0
C3166 C 0.75594 0.09888 0.16613 0.0
C3167 C 0.75338 0.10169 0.13669 0.0
H3168 H 0.69802 0.92035 0.76991 0.0
H3169 H 0.67564 0.94417 0.75053 0.0
H3170 H 0.68818 0.91545 0.82098 0.0
H3171 H 0.66514 0.93881 0.80135 0.0
H3172 H 0.65973 0.93799 0.9027 0.0
H3173 H 0.67094 0.94388 0.85247 0.0
H3174 H 0.66644 0.90217 0.84926 0.0
H3175 H 0.6558 0.89666 0.89972 0.0
C3176 C 0.69092 0.92448 0.77673 0.0
C3177 C 0.68773 0.9328 0.75664 0.0
C3178 C 0.68517 0.92159 0.80589 0.0
C3179 C 0.67587 0.92676 0.81551 0.0
C3180 C 0.67248 0.93489 0.79502 0.0
C3181 C 0.67836 0.93787 0.76586 0.0
C3182 C 0.66143 0.93025 0.89126 0.0
C3183 C 0.6572 0.917 0.90501 0.0
C3184 C 0.66766 0.93351 0.8624 0.0
C3185 C 0.66961 0.92351 0.84662 0.0
C3186 C 0.6654 0.91025 0.86076 0.0
C3187 C 0.65928 0.90705 0.88964 0.0
H3188 H 0.0832 0.77951 0.80337 0.0
H3189 H 0.06207 0.73503 0.7882 0.0
H3190 H 0.08735 0.77496 0.8552 0.0
H3191 H 0.06679 0.73034 0.83979 0.0
H3192 H 0.06532 0.72484 0.94105 0.0
H3193 H 0.05981 0.72989 0.89037 0.0
H3194 H 0.10143 0.76829 0.88546 0.0
H3195 H 0.10647 0.76337 0.9364 0.0
C3196 C 0.07951 0.76874 0.81127 0.0
C3197 C 0.07212 0.75758 0.79212 0.0
C3198 C 0.08198 0.76611 0.84089 0.0
C3199 C 0.07736 0.75225 0.85195 0.0
C3200 C 0.07023 0.74111 0.83238 0.0
C3201 C 0.06764 0.74376 0.80276 0.0
C3202 C 0.07306 0.73449 0.92919 0.0
C3203 C 0.08614 0.74388 0.94261 0.0
C3204 C 0.07005 0.73732 0.90004 0.0
C3205 C 0.08018 0.7495 0.88357 0.0
C3206 C 0.09322 0.75895 0.89745 0.0
C3207 C 0.09614 0.75617 0.92664 0.0
H3208 H 0.22563 0.33532 0.76296 0.0
H3209 H 0.25268 0.31619 0.78325 0.0
H3210 H 0.22909 0.34414 0.81385 0.0
H3211 H 0.25629 0.32512 0.83353 0.0
H3212 H 0.27422 0.35953 0.90342 0.0
H3213 H 0.26931 0.351 0.85279 0.0
H3214 H 0.22287 0.33233 0.87057 0.0
H3215 H 0.22779 0.34075 0.92177 0.0
C3216 C 0.2323 0.33303 0.77828 0.0
C3217 C 0.23884 0.32504 0.76928 0.0
C3218 C 0.2342 0.33798 0.80734 0.0
C3219 C 0.24297 0.3353 0.82752 0.0
C3220 C 0.24953 0.32737 0.81838 0.0
C3221 C 0.2474 0.32221 0.78969 0.0
C3222 C 0.26296 0.35371 0.89647 0.0
C3223 C 0.25138 0.35083 0.91648 0.0
C3224 C 0.26016 0.34877 0.86757 0.0
C3225 C 0.24572 0.34102 0.85782 0.0
C3226 C 0.2341 0.33836 0.87755 0.0
C3227 C 0.2369 0.34309 0.90679 0.0
H3228 H 0.01586 0.39538 0.42165 0.0
H3229 H 0.02899 0.43886 0.43604 0.0
H3230 H 1.00342 0.38861 0.47078 0.0
H3231 H 0.01676 0.43226 0.48526 0.0
H3232 H 0.98181 0.41485 0.56102 0.0
H3233 H 0.9937 0.42115 0.51147 0.0
H3234 H 0.00665 0.38909 0.52407 0.0
H3235 H 0.99455 0.38278 0.57352 0.0
C3236 C 0.01616 0.40352 0.43542 0.0
C3237 C 0.02361 0.41769 0.42491 0.0
C3238 C 0.00906 0.39965 0.4638 0.0
C3239 C 0.00897 0.40982 0.4826 0.0
C3240 C 0.01633 0.42401 0.47173 0.0
C3241 C 0.02351 0.42786 0.44347 0.0
C3242 C 0.98707 0.40905 0.55305 0.0
C3243 C 0.98698 0.39813 0.57122 0.0
C3244 C 0.99407 0.41276 0.52461 0.0
C3245 C 1.00127 0.40569 0.51316 0.0
C3246 C 1.00112 0.39473 0.53149 0.0
C3247 C 0.9942 0.3911 0.56004 0.0
H3248 H 0.59317 0.56724 0.57898 0.0
H3249 H 0.62373 0.61075 0.59299 0.0
H3250 H 0.58752 0.57375 0.52973 0.0
H3251 H 0.61806 0.61743 0.54384 0.0
H3252 H 0.61469 0.62315 0.44116 0.0
H3253 H 0.62064 0.61685 0.49042 0.0
H3254 H 0.5755 0.58491 0.50389 0.0
H3255 H 0.56974 0.59122 0.45455 0.0
C3256 C 0.59877 0.57822 0.57142 0.0
C3257 C 0.60909 0.58842 0.58991 0.0
C3258 C 0.59543 0.58202 0.54316 0.0
C3259 C 0.60228 0.59621 0.53221 0.0
C3260 C 0.61263 0.60639 0.55088 0.0
C3261 C 0.61588 0.60258 0.57926 0.0
C3262 C 0.60603 0.61486 0.45479 0.0
C3263 C 0.59168 0.60786 0.44391 0.0
C3264 C 0.60941 0.61124 0.48323 0.0
C3265 C 0.59861 0.60031 0.50174 0.0
C3266 C 0.58425 0.59327 0.49059 0.0
C3267 C 0.58086 0.59698 0.46227 0.0
H3268 H 0.40365 0.01404 0.58361 0.0
H3269 H 0.4494 0.02857 0.5664 0.0
H3270 H 0.39761 1.0022 0.536 0.0
H3271 H 0.44351 0.01683 0.5186 0.0
H3272 H 0.39263 0.99324 0.43498 0.0
H3273 H 0.39859 0.00531 0.48235 0.0
H3274 H 0.4328 0.99425 0.49573 0.0
H3275 H 0.42678 0.98228 0.44821 0.0
C3276 C 0.41246 0.01482 0.56947 0.0
C3277 C 0.42704 0.02243 0.57886 0.0
C3278 C 0.40901 0.00804 0.54197 0.0
C3279 C 0.42001 0.00842 0.52288 0.0
C3280 C 0.43463 0.01606 0.53245 0.0
C3281 C 0.43807 0.02295 0.55986 0.0
C3282 C 0.40137 0.99333 0.44815 0.0
C3283 C 0.40912 0.98665 0.43775 0.0
C3284 C 0.4048 1.00023 0.47552 0.0
C3285 C 0.41625 1.00089 0.49344 0.0
C3286 C 0.42403 0.99422 0.48279 0.0
C3287 C 0.4205 0.98721 0.45553 0.0
H3288 H 0.55897 1.0011 0.42882 0.0
H3289 H 0.58086 0.9771 0.45205 0.0
H3290 H 0.56115 0.00858 0.48029 0.0
H3291 H 0.58339 0.98477 0.50295 0.0
H3292 H 0.57697 0.99133 0.59813 0.0
H3293 H 0.57073 0.9824 0.54822 0.0
H3294 H 0.57867 0.02339 0.51462 0.0
H3295 H 0.58395 0.03205 0.56486 0.0
C3296 C 0.56429 0.99747 0.4449 0.0
C3297 C 0.56964 0.98842 0.43643 0.0
C3298 C 0.56557 1.00177 0.4744 0.0
C3299 C 0.57237 0.99723 0.49599 0.0
C3300 C 0.57775 0.98822 0.4873 0.0
C3301 C 0.57636 0.98384 0.458 0.0
C3302 C 0.57704 0.99836 0.58028 0.0
C3303 C 0.58113 0.01248 0.58562 0.0
C3304 C 0.57368 0.99329 0.55148 0.0
C3305 C 0.57442 1.00221 0.52715 0.0
C3306 C 0.57791 0.01616 0.53271 0.0
C3307 C 0.58115 0.0212 0.56156 0.0
H3308 H 0.99608 0.60434 0.57234 0.0
H3309 H 0.98097 0.56026 0.56004 0.0
H3310 H 0.00673 0.60999 0.52159 0.0
H3311 H 0.99106 0.56565 0.50912 0.0
H3312 H 0.02349 0.58134 0.43044 0.0
H3313 H 0.01338 0.57602 0.48137 0.0
H3314 H 1.00006 0.60794 0.46998 0.0
H3315 H 0.01071 0.61348 0.41923 0.0
C3316 C 0.99509 0.5959 0.55865 0.0
C3317 C 0.98777 0.58191 0.56982 0.0
C3318 C 1.00103 0.59907 0.52954 0.0
C3319 C 0.99972 0.58828 0.51108 0.0
C3320 C 0.99248 0.57427 0.52269 0.0
C3321 C 0.98664 0.57114 0.55177 0.0
C3322 C 0.01828 0.5871 0.43893 0.0
C3323 C 0.01776 0.59775 0.42116 0.0
C3324 C 0.01245 0.58406 0.46802 0.0
C3325 C 0.00588 0.59154 0.47993 0.0
C3326 C 0.00523 0.60211 0.46177 0.0
C3327 C 0.01115 0.60519 0.43266 0.0
H3328 H 0.39664 0.40198 0.45246 0.0
H3329 H 0.41919 0.44652 0.46709 0.0
H3330 H 0.40217 0.39721 0.50339 0.0
H3331 H 0.42423 0.44193 0.51826 0.0
H3332 H 0.44362 0.42995 0.59822 0.0
H3333 H 0.43834 0.43473 0.54732 0.0
H3334 H 0.39598 0.39723 0.55446 0.0
H3335 H 0.4017 0.39232 0.60507 0.0
C3336 C 0.40274 0.41071 0.46674 0.0
C3337 C 0.40738 0.42457 0.45617 0.0
C3338 C 0.4058 0.40803 0.49597 0.0
C3339 C 0.41356 0.41917 0.51522 0.0
C3340 C 0.41838 0.43307 0.50417 0.0
C3341 C 0.41542 0.43573 0.47494 0.0
C3342 C 0.43311 0.42291 0.58891 0.0
C3343 C 0.42294 0.41093 0.60551 0.0
C3344 C 0.43005 0.4256 0.55977 0.0
C3345 C 0.4167 0.41638 0.54658 0.0
C3346 C 0.40645 0.40447 0.56359 0.0
C3347 C 0.4096 0.40173 0.5927 0.0
loop_
_geom_bond_atom_site_label_1
_geom_bond_atom_site_label_2
_geom_bond_distance
_geom_bond_site_symmetry_2
_ccdc_geom_bond_type
C0 C1 1.443 . S
C0 N4 1.376 . S
C0 C38 1.389 . S
C1 C0 1.443 . S
C1 C2 1.340 . S
C1 H41 0.951 . S
C2 C1 1.340 . S
C2 C3 1.439 . S
C2 H42 0.950 . S
C3 C2 1.439 . S
C3 N4 1.374 . S
C3 C37 1.395 . S
N4 C0 1.376 . S
N4 C3 1.374 . S
N4 Co5 2.008 . S
Co5 N4 2.008 . S
Co5 N6 1.995 1_554 S
Co5 N11 2.008 1_554 S
Co5 N16 1.995 . S
Co5 N21 2.282 . S
Co5 N27 2.282 1_554 S
N6 Co5 1.995 1_556 S
N6 C7 1.376 1_556 S
N6 C10 1.383 . S
C7 N6 1.376 1_554 S
C7 C8 1.446 1_554 S
C7 C37 1.391 . S
C8 C7 1.446 1_556 S
C8 C9 1.339 . S
C8 H43 0.949 . S
C9 C8 1.339 . S
C9 C10 1.439 . S
C9 H44 0.950 . S
C10 N6 1.383 . S
C10 C9 1.439 . S
C10 C39 1.392 . S
N11 Co5 2.008 1_556 S
N11 C12 1.376 . S
N11 C15 1.374 . S
C12 N11 1.376 . S
C12 C13 1.443 . S
C12 C39 1.389 . S
C13 C12 1.443 . S
C13 C14 1.340 . S
C13 H45 0.951 . S
C14 C13 1.340 . S
C14 C15 1.439 . S
C14 H46 0.950 . S
C15 N11 1.374 . S
C15 C14 1.439 . S
C15 C40 1.395 . S
N16 Co5 1.995 . S
N16 C17 1.376 1_554 S
N16 C20 1.383 . S
C17 N16 1.376 1_556 S
C17 C18 1.446 1_556 S
C17 C40 1.391 . S
C18 C17 1.446 1_554 S
C18 C19 1.339 . S
C18 H47 0.949 . S
C19 C18 1.339 . S
C19 C20 1.439 . S
C19 H48 0.950 . S
C20 N16 1.383 . S
C20 C19 1.439 . S
C20 C38 1.392 . S
N21 Co5 2.282 . S
N21 C24 1.322 1_554 S
N21 C26 1.337 . S
C22 C23 1.386 . S
C22 C25 1.391 . S
C23 C22 1.386 . S
C23 C24 1.382 . S
C23 H49 0.950 . S
C24 N21 1.322 1_556 S
C24 C23 1.382 . S
C24 H35 0.952 . S
C25 C22 1.391 . S
C25 C26 1.381 1_556 S
C25 H50 0.949 1_556 S
C26 N21 1.337 . S
C26 C25 1.381 1_554 S
C26 H36 0.948 . S
N27 Co5 2.282 1_556 S
N27 C31 1.324 1_556 S
N27 C32 1.335 . S
C28 C29 1.394 . S
C28 C32 1.379 1_554 S
C28 H51 0.948 1_554 S
C29 C28 1.394 . S
C29 C30 1.386 . S
C30 C29 1.386 . S
C30 C31 1.382 . S
C30 H52 0.950 . S
C31 N27 1.324 1_554 S
C31 C30 1.382 . S
C31 H33 0.952 . S
C32 N27 1.335 . S
C32 C28 1.379 1_556 S
C32 H34 0.948 . S
H33 C31 0.952 . S
H34 C32 0.948 . S
H35 C24 0.952 . S
H36 C26 0.948 . S
C37 C3 1.395 . S
C37 C7 1.391 . S
C38 C0 1.389 . S
C38 C20 1.392 . S
C39 C10 1.392 . S
C39 C12 1.389 . S
C40 C15 1.395 . S
C40 C17 1.391 . S
H41 C1 0.951 . S
H42 C2 0.950 . S
H43 C8 0.949 . S
H44 C9 0.950 . S
H45 C13 0.951 . S
H46 C14 0.950 . S
H47 C18 0.949 . S
H48 C19 0.950 . S
H49 C23 0.950 . S
H50 C25 0.949 1_554 S
H51 C28 0.948 1_556 S
H52 C30 0.950 . S
C53 C54 1.443 . S
C53 N57 1.376 . S
C53 C91 1.389 . S
C54 C53 1.443 . S
C54 C55 1.340 . S
C54 H94 0.951 . S
C55 C54 1.340 . S
C55 C56 1.439 . S
C55 H95 0.950 . S
C56 C55 1.439 . S
C56 N57 1.374 . S
C56 C90 1.395 . S
N57 C53 1.376 . S
N57 C56 1.374 . S
N57 Co58 2.008 . S
Co58 N57 2.008 . S
Co58 N59 1.995 1_554 S
Co58 N64 2.008 1_554 S
Co58 N69 1.995 . S
Co58 N74 2.281 . S
Co58 N80 2.281 1_554 S
N59 Co58 1.995 1_556 S
N59 C60 1.368 1_556 S
N59 C63 1.383 . S
C60 N59 1.368 1_554 S
C60 C61 1.437 1_554 S
C60 C90 1.406 . S
C61 C60 1.437 1_556 S
C61 C62 1.339 . S
C61 H96 0.949 . S
C62 C61 1.339 . S
C62 C63 1.439 . S
C62 H97 0.950 . S
C63 N59 1.383 . S
C63 C62 1.439 . S
C63 C92 1.392 . S
N64 Co58 2.008 1_556 S
N64 C65 1.376 . S
N64 C68 1.374 . S
C65 N64 1.376 . S
C65 C66 1.443 . S
C65 C92 1.389 . S
C66 C65 1.443 . S
C66 C67 1.340 . S
C66 H98 0.951 . S
C67 C66 1.340 . S
C67 C68 1.439 . S
C67 H99 0.950 . S
C68 N64 1.374 . S
C68 C67 1.439 . S
C68 C93 1.395 . S
N69 Co58 1.995 . S
N69 C70 1.373 1_554 S
N69 C73 1.383 . S
C70 N69 1.373 1_556 S
C70 C71 1.443 1_556 S
C70 C93 1.397 . S
C71 C70 1.443 1_554 S
C71 C72 1.339 . S
C71 H100 0.949 . S
C72 C71 1.339 . S
C72 C73 1.439 . S
C72 H101 0.950 . S
C73 N69 1.383 . S
C73 C72 1.439 . S
C73 C91 1.392 . S
N74 Co58 2.281 . S
N74 C77 1.323 1_554 S
N74 C79 1.336 . S
C75 C76 1.386 . S
C75 C78 1.388 . S
C76 C75 1.386 . S
C76 C77 1.382 . S
C76 H102 0.950 . S
C77 N74 1.323 1_556 S
C77 C76 1.382 . S
C77 H88 0.952 . S
C78 C75 1.388 . S
C78 C79 1.382 1_556 S
C78 H103 0.950 . S
C79 N74 1.336 . S
C79 C78 1.382 1_554 S
C79 H89 0.948 . S
N80 Co58 2.281 1_556 S
N80 C84 1.325 1_556 S
N80 C85 1.335 . S
C81 C82 1.388 . S
C81 C85 1.382 1_554 S
C81 H104 0.950 . S
C82 C81 1.388 . S
C82 C83 1.386 . S
C83 C82 1.386 . S
C83 C84 1.382 . S
C83 H105 0.950 . S
C84 N80 1.325 1_554 S
C84 C83 1.382 . S
C84 H86 0.952 . S
C85 N80 1.335 . S
C85 C81 1.382 1_556 S
C85 H87 0.948 . S
H86 C84 0.952 . S
H87 C85 0.948 . S
H88 C77 0.952 . S
H89 C79 0.948 . S
C90 C56 1.395 . S
C90 C60 1.406 . S
C91 C53 1.389 . S
C91 C73 1.392 . S
C92 C63 1.392 . S
C92 C65 1.389 . S
C93 C68 1.395 . S
C93 C70 1.397 . S
H94 C54 0.951 . S
H95 C55 0.950 . S
H96 C61 0.949 . S
H97 C62 0.950 . S
H98 C66 0.951 . S
H99 C67 0.950 . S
H100 C71 0.949 . S
H101 C72 0.950 . S
H102 C76 0.950 . S
H103 C78 0.950 . S
H104 C81 0.950 . S
H105 C83 0.950 . S
C106 C107 1.443 . S
C106 N110 1.376 . S
C106 C144 1.389 . S
C107 C106 1.443 . S
C107 C108 1.340 . S
C107 H147 0.951 . S
C108 C107 1.340 . S
C108 C109 1.439 . S
C108 H148 0.950 . S
C109 C108 1.439 . S
C109 N110 1.374 . S
C109 C143 1.395 . S
N110 C106 1.376 . S
N110 C109 1.374 . S
N110 Co111 2.008 . S
Co111 N110 2.008 . S
Co111 N112 1.995 1_554 S
Co111 N117 2.008 1_554 S
Co111 N122 1.995 . S
Co111 N127 2.282 . S
Co111 N133 2.282 1_554 S
N112 Co111 1.995 1_556 S
N112 C113 1.376 1_556 S
N112 C116 1.383 . S
C113 N112 1.376 1_554 S
C113 C114 1.446 1_554 S
C113 C143 1.391 . S
C114 C113 1.446 1_556 S
C114 C115 1.339 . S
C114 H149 0.949 . S
C115 C114 1.339 . S
C115 C116 1.439 . S
C115 H150 0.950 . S
C116 N112 1.383 . S
C116 C115 1.439 . S
C116 C145 1.392 . S
N117 Co111 2.008 1_556 S
N117 C118 1.376 . S
N117 C121 1.374 . S
C118 N117 1.376 . S
C118 C119 1.443 . S
C118 C145 1.389 . S
C119 C118 1.443 . S
C119 C120 1.340 . S
C119 H151 0.951 . S
C120 C119 1.340 . S
C120 C121 1.439 . S
C120 H152 0.950 . S
C121 N117 1.374 . S
C121 C120 1.439 . S
C121 C146 1.395 . S
N122 Co111 1.995 . S
N122 C123 1.376 1_554 S
N122 C126 1.383 . S
C123 N122 1.376 1_556 S
C123 C124 1.446 1_556 S
C123 C146 1.391 . S
C124 C123 1.446 1_554 S
C124 C125 1.339 . S
C124 H153 0.949 . S
C125 C124 1.339 . S
C125 C126 1.439 . S
C125 H154 0.950 . S
C126 N122 1.383 . S
C126 C125 1.439 . S
C126 C144 1.392 . S
N127 Co111 2.282 . S
N127 C130 1.332 1_554 S
N127 C132 1.332 . S
C128 C129 1.386 . S
C128 C131 1.395 . S
C129 C128 1.386 . S
C129 C130 1.382 . S
C129 H155 0.950 . S
C130 N127 1.332 1_556 S
C130 C129 1.382 . S
C130 H141 0.952 . S
C131 C128 1.395 . S
C131 C132 1.378 1_556 S
C131 H156 0.948 1_556 S
C132 N127 1.332 . S
C132 C131 1.378 1_554 S
C132 H142 0.948 . S
N133 Co111 2.282 1_556 S
N133 C137 1.332 1_556 S
N133 C138 1.332 . S
C134 C135 1.398 . S
C134 C138 1.376 1_554 S
C134 H157 0.948 1_554 S
C135 C134 1.398 . S
C135 C136 1.386 . S
C136 C135 1.386 . S
C136 C137 1.382 . S
C136 H158 0.950 . S
C137 N133 1.332 1_554 S
C137 C136 1.382 . S
C137 H139 0.952 . S
C138 N133 1.332 . S
C138 C134 1.376 1_556 S
C138 H140 0.948 . S
H139 C137 0.952 . S
H140 C138 0.948 . S
H141 C130 0.952 . S
H142 C132 0.948 . S
C143 C109 1.395 . S
C143 C113 1.391 . S
C144 C106 1.389 . S
C144 C126 1.392 . S
C145 C116 1.392 . S
C145 C118 1.389 . S
C146 C121 1.395 . S
C146 C123 1.391 . S
H147 C107 0.951 . S
H148 C108 0.950 . S
H149 C114 0.949 . S
H150 C115 0.950 . S
H151 C119 0.951 . S
H152 C120 0.950 . S
H153 C124 0.949 . S
H154 C125 0.950 . S
H155 C129 0.950 . S
H156 C131 0.948 1_554 S
H157 C134 0.948 1_556 S
H158 C136 0.950 . S
C159 C160 1.443 . S
C159 N163 1.376 . S
C159 C197 1.389 . S
C160 C159 1.443 . S
C160 C161 1.340 . S
C160 H200 0.951 . S
C161 C160 1.340 . S
C161 C162 1.439 . S
C161 H201 0.950 . S
C162 C161 1.439 . S
C162 N163 1.374 . S
C162 C196 1.395 . S
N163 C159 1.376 . S
N163 C162 1.374 . S
N163 Co164 2.008 . S
Co164 N163 2.008 . S
Co164 N165 1.995 1_556 S
Co164 N170 2.008 1_556 S
Co164 N175 1.995 . S
Co164 N180 2.282 . S
Co164 N186 2.282 1_556 S
N165 Co164 1.995 1_554 S
N165 C166 1.376 1_554 S
N165 C169 1.383 . S
C166 N165 1.376 1_556 S
C166 C167 1.446 1_556 S
C166 C196 1.391 . S
C167 C166 1.446 1_554 S
C167 C168 1.339 . S
C167 H202 0.949 . S
C168 C167 1.339 . S
C168 C169 1.439 . S
C168 H203 0.950 . S
C169 N165 1.383 . S
C169 C168 1.439 . S
C169 C198 1.392 . S
N170 Co164 2.008 1_554 S
N170 C171 1.376 . S
N170 C174 1.374 . S
C171 N170 1.376 . S
C171 C172 1.443 . S
C171 C198 1.389 . S
C172 C171 1.443 . S
C172 C173 1.340 . S
C172 H204 0.951 . S
C173 C172 1.340 . S
C173 C174 1.439 . S
C173 H205 0.950 . S
C174 N170 1.374 . S
C174 C173 1.439 . S
C174 C199 1.395 . S
N175 Co164 1.995 . S
N175 C176 1.376 1_556 S
N175 C179 1.383 . S
C176 N175 1.376 1_554 S
C176 C177 1.446 1_554 S
C176 C199 1.391 . S
C177 C176 1.446 1_556 S
C177 C178 1.339 . S
C177 H206 0.949 . S
C178 C177 1.339 . S
C178 C179 1.439 . S
C178 H207 0.950 . S
C179 N175 1.383 . S
C179 C178 1.439 . S
C179 C197 1.392 . S
N180 Co164 2.282 . S
N180 C183 1.332 1_556 S
N180 C185 1.332 . S
C181 C182 1.386 . S
C181 C184 1.395 . S
C182 C181 1.386 . S
C182 C183 1.382 . S
C182 H208 0.950 . S
C183 N180 1.332 1_554 S
C183 C182 1.382 . S
C183 H194 0.952 . S
C184 C181 1.395 . S
C184 C185 1.378 1_554 S
C184 H209 0.948 1_554 S
C185 N180 1.332 . S
C185 C184 1.378 1_556 S
C185 H195 0.948 . S
N186 Co164 2.282 1_554 S
N186 C190 1.332 1_554 S
N186 C191 1.332 . S
C187 C188 1.398 . S
C187 C191 1.376 1_556 S
C187 H210 0.948 1_556 S
C188 C187 1.398 . S
C188 C189 1.386 . S
C189 C188 1.386 . S
C189 C190 1.382 . S
C189 H211 0.950 . S
C190 N186 1.332 1_556 S
C190 C189 1.382 . S
C190 H192 0.952 . S
C191 N186 1.332 . S
C191 C187 1.376 1_554 S
C191 H193 0.948 . S
H192 C190 0.952 . S
H193 C191 0.948 . S
H194 C183 0.952 . S
H195 C185 0.948 . S
C196 C162 1.395 . S
C196 C166 1.391 . S
C197 C159 1.389 . S
C197 C179 1.392 . S
C198 C169 1.392 . S
C198 C171 1.389 . S
C199 C174 1.395 . S
C199 C176 1.391 . S
H200 C160 0.951 . S
H201 C161 0.950 . S
H202 C167 0.949 . S
H203 C168 0.950 . S
H204 C172 0.951 . S
H205 C173 0.950 . S
H206 C177 0.949 . S
H207 C178 0.950 . S
H208 C182 0.950 . S
H209 C184 0.948 1_556 S
H210 C187 0.948 1_554 S
H211 C189 0.950 . S
C212 C213 1.443 . S
C212 N216 1.376 . S
C212 C250 1.389 . S
C213 C212 1.443 . S
C213 C214 1.340 . S
C213 H253 0.951 . S
C214 C213 1.340 . S
C214 C215 1.439 . S
C214 H254 0.950 . S
C215 C214 1.439 . S
C215 N216 1.374 . S
C215 C249 1.395 . S
N216 C212 1.376 . S
N216 C215 1.374 . S
N216 Co217 2.008 . S
Co217 N216 2.008 . S
Co217 N218 1.995 1_556 S
Co217 N223 2.008 1_556 S
Co217 N228 1.995 . S
Co217 N233 2.281 . S
Co217 N239 2.281 1_556 S
N218 Co217 1.995 1_554 S
N218 C219 1.367 1_554 S
N218 C222 1.383 . S
C219 N218 1.367 1_556 S
C219 C220 1.437 1_556 S
C219 C249 1.407 . S
C220 C219 1.437 1_554 S
C220 C221 1.339 . S
C220 H255 0.949 . S
C221 C220 1.339 . S
C221 C222 1.439 . S
C221 H256 0.950 . S
C222 N218 1.383 . S
C222 C221 1.439 . S
C222 C251 1.392 . S
N223 Co217 2.008 1_554 S
N223 C224 1.376 . S
N223 C227 1.374 . S
C224 N223 1.376 . S
C224 C225 1.443 . S
C224 C251 1.389 . S
C225 C224 1.443 . S
C225 C226 1.340 . S
C225 H257 0.951 . S
C226 C225 1.340 . S
C226 C227 1.439 . S
C226 H258 0.950 . S
C227 N223 1.374 . S
C227 C226 1.439 . S
C227 C252 1.395 . S
N228 Co217 1.995 . S
N228 C229 1.372 1_556 S
N228 C232 1.383 . S
C229 N228 1.372 1_554 S
C229 C230 1.442 1_554 S
C229 C252 1.398 . S
C230 C229 1.442 1_556 S
C230 C231 1.339 . S
C230 H259 0.949 . S
C231 C230 1.339 . S
C231 C232 1.439 . S
C231 H260 0.950 . S
C232 N228 1.383 . S
C232 C231 1.439 . S
C232 C250 1.392 . S
N233 Co217 2.281 . S
N233 C236 1.323 1_556 S
N233 C238 1.336 . S
C234 C235 1.386 . S
C234 C237 1.388 . S
C235 C234 1.386 . S
C235 C236 1.382 . S
C235 H261 0.950 . S
C236 N233 1.323 1_554 S
C236 C235 1.382 . S
C236 H247 0.952 . S
C237 C234 1.388 . S
C237 C238 1.382 1_554 S
C237 H262 0.950 . S
C238 N233 1.336 . S
C238 C237 1.382 1_556 S
C238 H248 0.948 . S
N239 Co217 2.281 1_554 S
N239 C243 1.325 1_554 S
N239 C244 1.335 . S
C240 C241 1.388 . S
C240 C244 1.382 1_556 S
C240 H263 0.950 . S
C241 C240 1.388 . S
C241 C242 1.386 . S
C242 C241 1.386 . S
C242 C243 1.382 . S
C242 H264 0.950 . S
C243 N239 1.325 1_556 S
C243 C242 1.382 . S
C243 H245 0.952 . S
C244 N239 1.335 . S
C244 C240 1.382 1_554 S
C244 H246 0.948 . S
H245 C243 0.952 . S
H246 C244 0.948 . S
H247 C236 0.952 . S
H248 C238 0.948 . S
C249 C215 1.395 . S
C249 C219 1.407 . S
C250 C212 1.389 . S
C250 C232 1.392 . S
C251 C222 1.392 . S
C251 C224 1.389 . S
C252 C227 1.395 . S
C252 C229 1.398 . S
H253 C213 0.951 . S
H254 C214 0.950 . S
H255 C220 0.949 . S
H256 C221 0.950 . S
H257 C225 0.951 . S
H258 C226 0.950 . S
H259 C230 0.949 . S
H260 C231 0.950 . S
H261 C235 0.950 . S
H262 C237 0.950 . S
H263 C240 0.950 . S
H264 C242 0.950 . S
C265 C266 1.443 . S
C265 N269 1.376 . S
C265 C303 1.389 . S
C266 C265 1.443 . S
C266 C267 1.340 . S
C266 H306 0.951 . S
C267 C266 1.340 . S
C267 C268 1.439 . S
C267 H307 0.950 . S
C268 C267 1.439 . S
C268 N269 1.374 . S
C268 C302 1.395 . S
N269 C265 1.376 . S
N269 C268 1.374 . S
N269 Co270 2.008 . S
Co270 N269 2.008 . S
Co270 N271 1.995 1_556 S
Co270 N276 2.008 1_556 S
Co270 N281 1.995 . S
Co270 N286 2.282 . S
Co270 N292 2.282 1_556 S
N271 Co270 1.995 1_554 S
N271 C272 1.376 1_554 S
N271 C275 1.383 . S
C272 N271 1.376 1_556 S
C272 C273 1.446 1_556 S
C272 C302 1.391 . S
C273 C272 1.446 1_554 S
C273 C274 1.339 . S
C273 H308 0.949 . S
C274 C273 1.339 . S
C274 C275 1.439 . S
C274 H309 0.950 . S
C275 N271 1.383 . S
C275 C274 1.439 . S
C275 C304 1.392 . S
N276 Co270 2.008 1_554 S
N276 C277 1.376 . S
N276 C280 1.374 . S
C277 N276 1.376 . S
C277 C278 1.443 . S
C277 C304 1.389 . S
C278 C277 1.443 . S
C278 C279 1.340 . S
C278 H310 0.951 . S
C279 C278 1.340 . S
C279 C280 1.439 . S
C279 H311 0.950 . S
C280 N276 1.374 . S
C280 C279 1.439 . S
C280 C305 1.395 . S
N281 Co270 1.995 . S
N281 C282 1.376 1_556 S
N281 C285 1.383 . S
C282 N281 1.376 1_554 S
C282 C283 1.446 1_554 S
C282 C305 1.391 . S
C283 C282 1.446 1_556 S
C283 C284 1.339 . S
C283 H312 0.949 . S
C284 C283 1.339 . S
C284 C285 1.439 . S
C284 H313 0.950 . S
C285 N281 1.383 . S
C285 C284 1.439 . S
C285 C303 1.392 . S
N286 Co270 2.282 . S
N286 C289 1.322 1_556 S
N286 C291 1.337 . S
C287 C288 1.386 . S
C287 C290 1.391 . S
C288 C287 1.386 . S
C288 C289 1.382 . S
C288 H314 0.950 . S
C289 N286 1.322 1_554 S
C289 C288 1.382 . S
C289 H300 0.952 . S
C290 C287 1.391 . S
C290 C291 1.381 1_554 S
C290 H315 0.949 1_554 S
C291 N286 1.337 . S
C291 C290 1.381 1_556 S
C291 H301 0.948 . S
N292 Co270 2.282 1_554 S
N292 C296 1.324 1_554 S
N292 C297 1.335 . S
C293 C294 1.393 . S
C293 C297 1.379 1_556 S
C293 H316 0.948 1_556 S
C294 C293 1.393 . S
C294 C295 1.386 . S
C295 C294 1.386 . S
C295 C296 1.382 . S
C295 H317 0.950 . S
C296 N292 1.324 1_556 S
C296 C295 1.382 . S
C296 H298 0.952 . S
C297 N292 1.335 . S
C297 C293 1.379 1_554 S
C297 H299 0.948 . S
H298 C296 0.952 . S
H299 C297 0.948 . S
H300 C289 0.952 . S
H301 C291 0.948 . S
C302 C268 1.395 . S
C302 C272 1.391 . S
C303 C265 1.389 . S
C303 C285 1.392 . S
C304 C275 1.392 . S
C304 C277 1.389 . S
C305 C280 1.395 . S
C305 C282 1.391 . S
H306 C266 0.951 . S
H307 C267 0.950 . S
H308 C273 0.949 . S
H309 C274 0.950 . S
H310 C278 0.951 . S
H311 C279 0.950 . S
H312 C283 0.949 . S
H313 C284 0.950 . S
H314 C288 0.950 . S
H315 C290 0.949 1_556 S
H316 C293 0.948 1_554 S
H317 C295 0.950 . S
C318 C319 1.443 . S
C318 N322 1.376 . S
C318 C356 1.389 1_556 S
C319 C318 1.443 . S
C319 C320 1.340 . S
C319 H359 0.951 . S
C320 C319 1.340 . S
C320 C321 1.439 . S
C320 H360 0.950 . S
C321 C320 1.439 . S
C321 N322 1.374 . S
C321 C355 1.395 . S
N322 C318 1.376 . S
N322 C321 1.374 . S
N322 Co323 2.008 . S
Co323 N322 2.008 . S
Co323 N324 1.995 . S
Co323 N329 2.008 1_556 S
Co323 N334 1.995 1_556 S
Co323 N339 2.282 . S
Co323 N345 2.282 1_556 S
N324 Co323 1.995 . S
N324 C325 1.376 . S
N324 C328 1.383 . S
C325 N324 1.376 . S
C325 C326 1.446 . S
C325 C355 1.391 . S
C326 C325 1.446 . S
C326 C327 1.339 . S
C326 H361 0.949 . S
C327 C326 1.339 . S
C327 C328 1.439 . S
C327 H362 0.950 . S
C328 N324 1.383 . S
C328 C327 1.439 . S
C328 C357 1.392 . S
N329 Co323 2.008 1_554 S
N329 C330 1.376 . S
N329 C333 1.374 . S
C330 N329 1.376 . S
C330 C331 1.443 . S
C330 C357 1.389 1_554 S
C331 C330 1.443 . S
C331 C332 1.340 . S
C331 H363 0.951 . S
C332 C331 1.340 . S
C332 C333 1.439 . S
C332 H364 0.950 . S
C333 N329 1.374 . S
C333 C332 1.439 . S
C333 C358 1.395 . S
N334 Co323 1.995 1_554 S
N334 C335 1.376 . S
N334 C338 1.383 . S
C335 N334 1.376 . S
C335 C336 1.446 . S
C335 C358 1.391 . S
C336 C335 1.446 . S
C336 C337 1.339 . S
C336 H365 0.949 . S
C337 C336 1.339 . S
C337 C338 1.439 . S
C337 H366 0.950 . S
C338 N334 1.383 . S
C338 C337 1.439 . S
C338 C356 1.392 . S
N339 Co323 2.282 . S
N339 C342 1.332 . S
N339 C344 1.332 . S
C340 C341 1.386 . S
C340 C343 1.388 . S
C341 C340 1.386 . S
C341 C342 1.382 . S
C341 H367 0.950 . S
C342 N339 1.332 . S
C342 C341 1.382 . S
C342 H353 0.952 . S
C343 C340 1.388 . S
C343 C344 1.382 . S
C343 H368 0.950 . S
C344 N339 1.332 . S
C344 C343 1.382 . S
C344 H354 0.948 . S
N345 Co323 2.282 1_554 S
N345 C349 1.332 . S
N345 C350 1.332 . S
C346 C347 1.388 . S
C346 C350 1.382 . S
C346 H369 0.950 . S
C347 C346 1.388 . S
C347 C348 1.386 . S
C348 C347 1.386 . S
C348 C349 1.382 . S
C348 H370 0.950 . S
C349 N345 1.332 . S
C349 C348 1.382 . S
C349 H351 0.952 . S
C350 N345 1.332 . S
C350 C346 1.382 . S
C350 H352 0.948 . S
H351 C349 0.952 . S
H352 C350 0.948 . S
H353 C342 0.952 . S
H354 C344 0.948 . S
C355 C321 1.395 . S
C355 C325 1.391 . S
C356 C318 1.389 1_554 S
C356 C338 1.392 . S
C357 C328 1.392 . S
C357 C330 1.389 1_556 S
C358 C333 1.395 . S
C358 C335 1.391 . S
H359 C319 0.951 . S
H360 C320 0.950 . S
H361 C326 0.949 . S
H362 C327 0.950 . S
H363 C331 0.951 . S
H364 C332 0.950 . S
H365 C336 0.949 . S
H366 C337 0.950 . S
H367 C341 0.950 . S
H368 C343 0.950 . S
H369 C346 0.950 . S
H370 C348 0.950 . S
C371 C372 1.443 . S
C371 N375 1.376 . S
C371 C409 1.389 . S
C372 C371 1.443 . S
C372 C373 1.340 . S
C372 H412 0.951 . S
C373 C372 1.340 . S
C373 C374 1.439 1_556 S
C373 H413 0.950 . S
C374 C373 1.439 1_554 S
C374 N375 1.374 1_554 S
C374 C408 1.395 . S
N375 C371 1.376 . S
N375 C374 1.374 1_556 S
N375 Co376 2.008 . S
Co376 N375 2.008 . S
Co376 N377 1.995 1_556 S
Co376 N382 2.008 1_556 S
Co376 N387 1.995 . S
Co376 N392 2.282 1_556 S
Co376 N398 2.282 . S
N377 Co376 1.995 1_554 S
N377 C378 1.376 . S
N377 C381 1.383 . S
C378 N377 1.376 . S
C378 C379 1.446 . S
C378 C408 1.391 . S
C379 C378 1.446 . S
C379 C380 1.339 . S
C379 H414 0.949 . S
C380 C379 1.339 . S
C380 C381 1.439 . S
C380 H415 0.950 . S
C381 N377 1.383 . S
C381 C380 1.439 . S
C381 C410 1.392 . S
N382 Co376 2.008 1_554 S
N382 C383 1.376 . S
N382 C386 1.374 1_554 S
C383 N382 1.376 . S
C383 C384 1.443 . S
C383 C410 1.389 . S
C384 C383 1.443 . S
C384 C385 1.340 . S
C384 H416 0.951 . S
C385 C384 1.340 . S
C385 C386 1.439 1_554 S
C385 H417 0.950 . S
C386 N382 1.374 1_556 S
C386 C385 1.439 1_556 S
C386 C411 1.395 . S
N387 Co376 1.995 . S
N387 C388 1.376 . S
N387 C391 1.383 . S
C388 N387 1.376 . S
C388 C389 1.446 . S
C388 C411 1.391 . S
C389 C388 1.446 . S
C389 C390 1.339 . S
C389 H418 0.949 . S
C390 C389 1.339 . S
C390 C391 1.439 . S
C390 H419 0.950 . S
C391 N387 1.383 . S
C391 C390 1.439 . S
C391 C409 1.392 . S
N392 Co376 2.282 1_554 S
N392 C395 1.332 1_554 S
N392 C397 1.332 . S
C393 C394 1.386 1_554 S
C393 C396 1.388 . S
C394 C393 1.386 1_556 S
C394 C395 1.382 . S
C394 H420 0.950 . S
C395 N392 1.332 1_556 S
C395 C394 1.382 . S
C395 H406 0.952 . S
C396 C393 1.388 . S
C396 C397 1.382 . S
C396 H421 0.950 . S
C397 N392 1.332 . S
C397 C396 1.382 . S
C397 H407 0.948 . S
N398 Co376 2.282 . S
N398 C402 1.332 1_556 S
N398 C403 1.332 . S
C399 C400 1.388 . S
C399 C403 1.382 . S
C399 H422 0.950 . S
C400 C399 1.388 . S
C400 C401 1.386 1_556 S
C401 C400 1.386 1_554 S
C401 C402 1.382 . S
C401 H423 0.950 . S
C402 N398 1.332 1_554 S
C402 C401 1.382 . S
C402 H404 0.952 . S
C403 N398 1.332 . S
C403 C399 1.382 . S
C403 H405 0.948 . S
H404 C402 0.952 . S
H405 C403 0.948 . S
H406 C395 0.952 . S
H407 C397 0.948 . S
C408 C374 1.395 . S
C408 C378 1.391 . S
C409 C371 1.389 . S
C409 C391 1.392 . S
C410 C381 1.392 . S
C410 C383 1.389 . S
C411 C386 1.395 . S
C411 C388 1.391 . S
H412 C372 0.951 . S
H413 C373 0.950 . S
H414 C379 0.949 . S
H415 C380 0.950 . S
H416 C384 0.951 . S
H417 C385 0.950 . S
H418 C389 0.949 . S
H419 C390 0.950 . S
H420 C394 0.950 . S
H421 C396 0.950 . S
H422 C399 0.950 . S
H423 C401 0.950 . S
C424 C425 1.443 . S
C424 N428 1.376 . S
C424 C462 1.389 . S
C425 C424 1.443 . S
C425 C426 1.340 . S
C425 H465 0.951 . S
C426 C425 1.340 . S
C426 C427 1.439 1_556 S
C426 H466 0.950 . S
C427 C426 1.439 1_554 S
C427 N428 1.374 1_554 S
C427 C461 1.395 . S
N428 C424 1.376 . S
N428 C427 1.374 1_556 S
N428 Co429 2.008 . S
Co429 N428 2.008 . S
Co429 N430 1.995 1_556 S
Co429 N435 2.008 1_556 S
Co429 N440 1.995 . S
Co429 N445 2.282 1_556 S
Co429 N451 2.281 . S
N430 Co429 1.995 1_554 S
N430 C431 1.376 . S
N430 C434 1.383 . S
C431 N430 1.376 . S
C431 C432 1.446 . S
C431 C461 1.391 . S
C432 C431 1.446 . S
C432 C433 1.339 . S
C432 H467 0.949 . S
C433 C432 1.339 . S
C433 C434 1.439 . S
C433 H468 0.950 . S
C434 N430 1.383 . S
C434 C433 1.439 . S
C434 C463 1.392 . S
N435 Co429 2.008 1_554 S
N435 C436 1.376 . S
N435 C439 1.374 1_554 S
C436 N435 1.376 . S
C436 C437 1.443 . S
C436 C463 1.389 . S
C437 C436 1.443 . S
C437 C438 1.340 . S
C437 H469 0.951 . S
C438 C437 1.340 . S
C438 C439 1.439 1_554 S
C438 H470 0.950 . S
C439 N435 1.374 1_556 S
C439 C438 1.439 1_556 S
C439 C464 1.395 . S
N440 Co429 1.995 . S
N440 C441 1.376 . S
N440 C444 1.383 . S
C441 N440 1.376 . S
C441 C442 1.446 . S
C441 C464 1.391 . S
C442 C441 1.446 . S
C442 C443 1.339 . S
C442 H471 0.949 . S
C443 C442 1.339 . S
C443 C444 1.439 . S
C443 H472 0.950 . S
C444 N440 1.383 . S
C444 C443 1.439 . S
C444 C462 1.392 . S
N445 Co429 2.282 1_554 S
N445 C448 1.324 1_554 S
N445 C450 1.344 . S
C446 C447 1.386 1_554 S
C446 C449 1.388 . S
C447 C446 1.386 1_556 S
C447 C448 1.382 . S
C447 H473 0.950 . S
C448 N445 1.324 1_556 S
C448 C447 1.382 . S
C448 H459 0.952 . S
C449 C446 1.388 . S
C449 C450 1.382 . S
C449 H474 0.950 . S
C450 N445 1.344 . S
C450 C449 1.382 . S
C450 H460 0.948 . S
N451 Co429 2.281 . S
N451 C455 1.320 1_556 S
N451 C456 1.350 . S
C452 C453 1.388 . S
C452 C456 1.382 . S
C452 H475 0.950 . S
C453 C452 1.388 . S
C453 C454 1.386 1_556 S
C454 C453 1.386 1_554 S
C454 C455 1.382 . S
C454 H476 0.950 . S
C455 N451 1.320 1_554 S
C455 C454 1.382 . S
C455 H457 0.952 . S
C456 N451 1.350 . S
C456 C452 1.382 . S
C456 H458 0.948 . S
H457 C455 0.952 . S
H458 C456 0.948 . S
H459 C448 0.952 . S
H460 C450 0.948 . S
C461 C427 1.395 . S
C461 C431 1.391 . S
C462 C424 1.389 . S
C462 C444 1.392 . S
C463 C434 1.392 . S
C463 C436 1.389 . S
C464 C439 1.395 . S
C464 C441 1.391 . S
H465 C425 0.951 . S
H466 C426 0.950 . S
H467 C432 0.949 . S
H468 C433 0.950 . S
H469 C437 0.951 . S
H470 C438 0.950 . S
H471 C442 0.949 . S
H472 C443 0.950 . S
H473 C447 0.950 . S
H474 C449 0.950 . S
H475 C452 0.950 . S
H476 C454 0.950 . S
C477 C478 1.443 . S
C477 N481 1.376 . S
C477 C515 1.389 . S
C478 C477 1.443 . S
C478 C479 1.340 . S
C478 H518 0.951 . S
C479 C478 1.340 . S
C479 C480 1.439 1_554 S
C479 H519 0.950 . S
C480 C479 1.439 1_556 S
C480 N481 1.374 1_556 S
C480 C514 1.395 . S
N481 C477 1.376 . S
N481 C480 1.374 1_554 S
N481 Co482 2.008 . S
Co482 N481 2.008 . S
Co482 N483 1.995 1_554 S
Co482 N488 2.008 1_554 S
Co482 N493 1.995 . S
Co482 N498 2.282 1_554 S
Co482 N504 2.281 . S
N483 Co482 1.995 1_556 S
N483 C484 1.376 . S
N483 C487 1.383 . S
C484 N483 1.376 . S
C484 C485 1.446 . S
C484 C514 1.391 . S
C485 C484 1.446 . S
C485 C486 1.339 . S
C485 H520 0.949 . S
C486 C485 1.339 . S
C486 C487 1.439 . S
C486 H521 0.950 . S
C487 N483 1.383 . S
C487 C486 1.439 . S
C487 C516 1.392 . S
N488 Co482 2.008 1_556 S
N488 C489 1.376 . S
N488 C492 1.374 1_556 S
C489 N488 1.376 . S
C489 C490 1.443 . S
C489 C516 1.389 . S
C490 C489 1.443 . S
C490 C491 1.340 . S
C490 H522 0.951 . S
C491 C490 1.340 . S
C491 C492 1.439 1_556 S
C491 H523 0.950 . S
C492 N488 1.374 1_554 S
C492 C491 1.439 1_554 S
C492 C517 1.395 . S
N493 Co482 1.995 . S
N493 C494 1.376 . S
N493 C497 1.383 . S
C494 N493 1.376 . S
C494 C495 1.446 . S
C494 C517 1.391 . S
C495 C494 1.446 . S
C495 C496 1.339 . S
C495 H524 0.949 . S
C496 C495 1.339 . S
C496 C497 1.439 . S
C496 H525 0.950 . S
C497 N493 1.383 . S
C497 C496 1.439 . S
C497 C515 1.392 . S
N498 Co482 2.282 1_556 S
N498 C501 1.324 1_556 S
N498 C503 1.343 . S
C499 C500 1.386 1_556 S
C499 C502 1.388 . S
C500 C499 1.386 1_554 S
C500 C501 1.382 . S
C500 H526 0.950 . S
C501 N498 1.324 1_554 S
C501 C500 1.382 . S
C501 H512 0.952 . S
C502 C499 1.388 . S
C502 C503 1.382 . S
C502 H527 0.950 . S
C503 N498 1.343 . S
C503 C502 1.382 . S
C503 H513 0.948 . S
N504 Co482 2.281 . S
N504 C508 1.320 1_554 S
N504 C509 1.350 . S
C505 C506 1.388 . S
C505 C509 1.382 . S
C505 H528 0.950 . S
C506 C505 1.388 . S
C506 C507 1.386 1_554 S
C507 C506 1.386 1_556 S
C507 C508 1.382 . S
C507 H529 0.950 . S
C508 N504 1.320 1_556 S
C508 C507 1.382 . S
C508 H510 0.952 . S
C509 N504 1.350 . S
C509 C505 1.382 . S
C509 H511 0.948 . S
H510 C508 0.952 . S
H511 C509 0.948 . S
H512 C501 0.952 . S
H513 C503 0.948 . S
C514 C480 1.395 . S
C514 C484 1.391 . S
C515 C477 1.389 . S
C515 C497 1.392 . S
C516 C487 1.392 . S
C516 C489 1.389 . S
C517 C492 1.395 . S
C517 C494 1.391 . S
H518 C478 0.951 . S
H519 C479 0.950 . S
H520 C485 0.949 . S
H521 C486 0.950 . S
H522 C490 0.951 . S
H523 C491 0.950 . S
H524 C495 0.949 . S
H525 C496 0.950 . S
H526 C500 0.950 . S
H527 C502 0.950 . S
H528 C505 0.950 . S
H529 C507 0.950 . S
C530 C531 1.443 . S
C530 N534 1.376 . S
C530 C568 1.389 . S
C531 C530 1.443 . S
C531 C532 1.340 . S
C531 H571 0.951 . S
C532 C531 1.340 . S
C532 C533 1.439 1_554 S
C532 H572 0.950 . S
C533 C532 1.439 1_556 S
C533 N534 1.374 1_556 S
C533 C567 1.395 . S
N534 C530 1.376 . S
N534 C533 1.374 1_554 S
N534 Co535 2.008 . S
Co535 N534 2.008 . S
Co535 N536 1.995 1_554 S
Co535 N541 2.008 1_554 S
Co535 N546 1.995 . S
Co535 N551 2.282 1_554 S
Co535 N557 2.282 . S
N536 Co535 1.995 1_556 S
N536 C537 1.376 . S
N536 C540 1.383 . S
C537 N536 1.376 . S
C537 C538 1.446 . S
C537 C567 1.391 . S
C538 C537 1.446 . S
C538 C539 1.339 . S
C538 H573 0.949 . S
C539 C538 1.339 . S
C539 C540 1.439 . S
C539 H574 0.950 . S
C540 N536 1.383 . S
C540 C539 1.439 . S
C540 C569 1.392 . S
N541 Co535 2.008 1_556 S
N541 C542 1.376 . S
N541 C545 1.374 1_556 S
C542 N541 1.376 . S
C542 C543 1.443 . S
C542 C569 1.389 . S
C543 C542 1.443 . S
C543 C544 1.340 . S
C543 H575 0.951 . S
C544 C543 1.340 . S
C544 C545 1.439 1_556 S
C544 H576 0.950 . S
C545 N541 1.374 1_554 S
C545 C544 1.439 1_554 S
C545 C570 1.395 . S
N546 Co535 1.995 . S
N546 C547 1.376 . S
N546 C550 1.383 . S
C547 N546 1.376 . S
C547 C548 1.446 . S
C547 C570 1.391 . S
C548 C547 1.446 . S
C548 C549 1.339 . S
C548 H577 0.949 . S
C549 C548 1.339 . S
C549 C550 1.439 . S
C549 H578 0.950 . S
C550 N546 1.383 . S
C550 C549 1.439 . S
C550 C568 1.392 . S
N551 Co535 2.282 1_556 S
N551 C554 1.332 1_556 S
N551 C556 1.332 . S
C552 C553 1.386 1_556 S
C552 C555 1.388 . S
C553 C552 1.386 1_554 S
C553 C554 1.382 . S
C553 H579 0.950 . S
C554 N551 1.332 1_554 S
C554 C553 1.382 . S
C554 H565 0.952 . S
C555 C552 1.388 . S
C555 C556 1.382 . S
C555 H580 0.950 . S
C556 N551 1.332 . S
C556 C555 1.382 . S
C556 H566 0.948 . S
N557 Co535 2.282 . S
N557 C561 1.332 1_554 S
N557 C562 1.332 . S
C558 C559 1.388 . S
C558 C562 1.382 . S
C558 H581 0.950 . S
C559 C558 1.388 . S
C559 C560 1.386 1_554 S
C560 C559 1.386 1_556 S
C560 C561 1.382 . S
C560 H582 0.950 . S
C561 N557 1.332 1_556 S
C561 C560 1.382 . S
C561 H563 0.952 . S
C562 N557 1.332 . S
C562 C558 1.382 . S
C562 H564 0.948 . S
H563 C561 0.952 . S
H564 C562 0.948 . S
H565 C554 0.952 . S
H566 C556 0.948 . S
C567 C533 1.395 . S
C567 C537 1.391 . S
C568 C530 1.389 . S
C568 C550 1.392 . S
C569 C540 1.392 . S
C569 C542 1.389 . S
C570 C545 1.395 . S
C570 C547 1.391 . S
H571 C531 0.951 . S
H572 C532 0.950 . S
H573 C538 0.949 . S
H574 C539 0.950 . S
H575 C543 0.951 . S
H576 C544 0.950 . S
H577 C548 0.949 . S
H578 C549 0.950 . S
H579 C553 0.950 . S
H580 C555 0.950 . S
H581 C558 0.950 . S
H582 C560 0.950 . S
C583 C584 1.443 . S
C583 N587 1.376 . S
C583 C621 1.389 1_554 S
C584 C583 1.443 . S
C584 C585 1.340 . S
C584 H624 0.951 . S
C585 C584 1.340 . S
C585 C586 1.439 . S
C585 H625 0.950 . S
C586 C585 1.439 . S
C586 N587 1.374 . S
C586 C620 1.395 . S
N587 C583 1.376 . S
N587 C586 1.374 . S
N587 Co588 2.008 . S
Co588 N587 2.008 . S
Co588 N589 1.995 . S
Co588 N594 2.008 1_554 S
Co588 N599 1.995 1_554 S
Co588 N604 2.282 . S
Co588 N610 2.282 1_554 S
N589 Co588 1.995 . S
N589 C590 1.376 . S
N589 C593 1.383 . S
C590 N589 1.376 . S
C590 C591 1.446 . S
C590 C620 1.391 . S
C591 C590 1.446 . S
C591 C592 1.339 . S
C591 H626 0.949 . S
C592 C591 1.339 . S
C592 C593 1.439 . S
C592 H627 0.950 . S
C593 N589 1.383 . S
C593 C592 1.439 . S
C593 C622 1.392 . S
N594 Co588 2.008 1_556 S
N594 C595 1.376 . S
N594 C598 1.374 . S
C595 N594 1.376 . S
C595 C596 1.443 . S
C595 C622 1.389 1_556 S
C596 C595 1.443 . S
C596 C597 1.340 . S
C596 H628 0.951 . S
C597 C596 1.340 . S
C597 C598 1.439 . S
C597 H629 0.950 . S
C598 N594 1.374 . S
C598 C597 1.439 . S
C598 C623 1.395 . S
N599 Co588 1.995 1_556 S
N599 C600 1.376 . S
N599 C603 1.383 . S
C600 N599 1.376 . S
C600 C601 1.446 . S
C600 C623 1.391 . S
C601 C600 1.446 . S
C601 C602 1.339 . S
C601 H630 0.949 . S
C602 C601 1.339 . S
C602 C603 1.439 . S
C602 H631 0.950 . S
C603 N599 1.383 . S
C603 C602 1.439 . S
C603 C621 1.392 . S
N604 Co588 2.282 . S
N604 C607 1.332 . S
N604 C609 1.332 . S
C605 C606 1.386 . S
C605 C608 1.388 . S
C606 C605 1.386 . S
C606 C607 1.382 . S
C606 H632 0.950 . S
C607 N604 1.332 . S
C607 C606 1.382 . S
C607 H618 0.952 . S
C608 C605 1.388 . S
C608 C609 1.382 . S
C608 H633 0.950 . S
C609 N604 1.332 . S
C609 C608 1.382 . S
C609 H619 0.948 . S
N610 Co588 2.282 1_556 S
N610 C614 1.332 . S
N610 C615 1.332 . S
C611 C612 1.388 . S
C611 C615 1.382 . S
C611 H634 0.950 . S
C612 C611 1.388 . S
C612 C613 1.386 . S
C613 C612 1.386 . S
C613 C614 1.382 . S
C613 H635 0.950 . S
C614 N610 1.332 . S
C614 C613 1.382 . S
C614 H616 0.952 . S
C615 N610 1.332 . S
C615 C611 1.382 . S
C615 H617 0.948 . S
H616 C614 0.952 . S
H617 C615 0.948 . S
H618 C607 0.952 . S
H619 C609 0.948 . S
C620 C586 1.395 . S
C620 C590 1.391 . S
C621 C583 1.389 1_556 S
C621 C603 1.392 . S
C622 C593 1.392 . S
C622 C595 1.389 1_554 S
C623 C598 1.395 . S
C623 C600 1.391 . S
H624 C584 0.951 . S
H625 C585 0.950 . S
H626 C591 0.949 . S
H627 C592 0.950 . S
H628 C596 0.951 . S
H629 C597 0.950 . S
H630 C601 0.949 . S
H631 C602 0.950 . S
H632 C606 0.950 . S
H633 C608 0.950 . S
H634 C611 0.950 . S
H635 C613 0.950 . S
C636 C637 1.443 . S
C636 N640 1.376 . S
C636 C674 1.389 . S
C637 C636 1.443 . S
C637 C638 1.340 . S
C637 H677 0.951 . S
C638 C637 1.340 . S
C638 C639 1.439 . S
C638 H678 0.950 . S
C639 C638 1.439 . S
C639 N640 1.374 . S
C639 C673 1.395 . S
N640 C636 1.376 . S
N640 C639 1.374 . S
N640 Co641 2.008 . S
Co641 N640 2.008 . S
Co641 N642 1.995 . S
Co641 N647 2.008 . S
Co641 N652 1.995 . S
Co641 N657 2.282 . S
Co641 N663 2.282 . S
N642 Co641 1.995 . S
N642 C643 1.376 . S
N642 C646 1.383 . S
C643 N642 1.376 . S
C643 C644 1.446 . S
C643 C673 1.391 . S
C644 C643 1.446 . S
C644 C645 1.339 . S
C644 H679 0.949 . S
C645 C644 1.339 . S
C645 C646 1.439 . S
C645 H680 0.950 . S
C646 N642 1.383 . S
C646 C645 1.439 . S
C646 C675 1.392 . S
N647 Co641 2.008 . S
N647 C648 1.376 . S
N647 C651 1.374 . S
C648 N647 1.376 . S
C648 C649 1.443 . S
C648 C675 1.389 . S
C649 C648 1.443 . S
C649 C650 1.340 . S
C649 H681 0.951 . S
C650 C649 1.340 . S
C650 C651 1.439 . S
C650 H682 0.950 . S
C651 N647 1.374 . S
C651 C650 1.439 . S
C651 C676 1.395 . S
N652 Co641 1.995 . S
N652 C653 1.376 . S
N652 C656 1.383 . S
C653 N652 1.376 . S
C653 C654 1.446 . S
C653 C676 1.391 . S
C654 C653 1.446 . S
C654 C655 1.339 . S
C654 H683 0.949 . S
C655 C654 1.339 . S
C655 C656 1.439 . S
C655 H684 0.950 . S
C656 N652 1.383 . S
C656 C655 1.439 . S
C656 C674 1.392 . S
N657 Co641 2.282 . S
N657 C660 1.332 . S
N657 C662 1.332 . S
C658 C659 1.386 . S
C658 C661 1.388 . S
C659 C658 1.386 . S
C659 C660 1.382 . S
C659 H685 0.950 . S
C660 N657 1.332 . S
C660 C659 1.382 . S
C660 H671 0.952 . S
C661 C658 1.388 . S
C661 C662 1.382 . S
C661 H686 0.950 . S
C662 N657 1.332 . S
C662 C661 1.382 . S
C662 H672 0.948 . S
N663 Co641 2.282 . S
N663 C667 1.332 . S
N663 C668 1.332 . S
C664 C665 1.388 . S
C664 C668 1.382 . S
C664 H687 0.950 . S
C665 C664 1.388 . S
C665 C666 1.386 . S
C666 C665 1.386 . S
C666 C667 1.382 . S
C666 H688 0.950 . S
C667 N663 1.332 . S
C667 C666 1.382 . S
C667 H669 0.952 . S
C668 N663 1.332 . S
C668 C664 1.382 . S
C668 H670 0.948 . S
H669 C667 0.952 . S
H670 C668 0.948 . S
H671 C660 0.952 . S
H672 C662 0.948 . S
C673 C639 1.395 . S
C673 C643 1.391 . S
C674 C636 1.389 . S
C674 C656 1.392 . S
C675 C646 1.392 . S
C675 C648 1.389 . S
C676 C651 1.395 . S
C676 C653 1.391 . S
H677 C637 0.951 . S
H678 C638 0.950 . S
H679 C644 0.949 . S
H680 C645 0.950 . S
H681 C649 0.951 . S
H682 C650 0.950 . S
H683 C654 0.949 . S
H684 C655 0.950 . S
H685 C659 0.950 . S
H686 C661 0.950 . S
H687 C664 0.950 . S
H688 C666 0.950 . S
C689 C690 1.443 . S
C689 N693 1.376 . S
C689 C727 1.389 . S
C690 C689 1.443 . S
C690 C691 1.340 . S
C690 H730 0.951 . S
C691 C690 1.340 . S
C691 C692 1.439 . S
C691 H731 0.950 . S
C692 C691 1.439 . S
C692 N693 1.374 . S
C692 C726 1.395 . S
N693 C689 1.376 . S
N693 C692 1.374 . S
N693 Co694 2.008 . S
Co694 N693 2.008 . S
Co694 N695 1.995 . S
Co694 N700 2.008 . S
Co694 N705 1.995 . S
Co694 N710 2.282 . S
Co694 N716 2.282 . S
N695 Co694 1.995 . S
N695 C696 1.376 . S
N695 C699 1.383 . S
C696 N695 1.376 . S
C696 C697 1.446 . S
C696 C726 1.391 . S
C697 C696 1.446 . S
C697 C698 1.339 . S
C697 H732 0.949 . S
C698 C697 1.339 . S
C698 C699 1.439 . S
C698 H733 0.950 . S
C699 N695 1.383 . S
C699 C698 1.439 . S
C699 C728 1.392 . S
N700 Co694 2.008 . S
N700 C701 1.376 . S
N700 C704 1.374 . S
C701 N700 1.376 . S
C701 C702 1.443 . S
C701 C728 1.389 . S
C702 C701 1.443 . S
C702 C703 1.340 . S
C702 H734 0.951 . S
C703 C702 1.340 . S
C703 C704 1.439 . S
C703 H735 0.950 . S
C704 N700 1.374 . S
C704 C703 1.439 . S
C704 C729 1.395 . S
N705 Co694 1.995 . S
N705 C706 1.376 . S
N705 C709 1.383 . S
C706 N705 1.376 . S
C706 C707 1.446 . S
C706 C729 1.391 . S
C707 C706 1.446 . S
C707 C708 1.339 . S
C707 H736 0.949 . S
C708 C707 1.339 . S
C708 C709 1.439 . S
C708 H737 0.950 . S
C709 N705 1.383 . S
C709 C708 1.439 . S
C709 C727 1.392 . S
N710 Co694 2.282 . S
N710 C713 1.332 . S
N710 C715 1.332 . S
C711 C712 1.386 . S
C711 C714 1.388 . S
C712 C711 1.386 . S
C712 C713 1.382 . S
C712 H738 0.950 . S
C713 N710 1.332 . S
C713 C712 1.382 . S
C713 H724 0.952 . S
C714 C711 1.388 . S
C714 C715 1.382 . S
C714 H739 0.950 . S
C715 N710 1.332 . S
C715 C714 1.382 . S
C715 H725 0.948 . S
N716 Co694 2.282 . S
N716 C720 1.332 . S
N716 C721 1.332 . S
C717 C718 1.388 . S
C717 C721 1.382 . S
C717 H740 0.950 1_545 S
C718 C717 1.388 . S
C718 C719 1.386 . S
C719 C718 1.386 . S
C719 C720 1.382 . S
C719 H741 0.950 . S
C720 N716 1.332 . S
C720 C719 1.382 . S
C720 H722 0.952 . S
C721 N716 1.332 . S
C721 C717 1.382 . S
C721 H723 0.948 . S
H722 C720 0.952 . S
H723 C721 0.948 . S
H724 C713 0.952 . S
H725 C715 0.948 . S
C726 C692 1.395 . S
C726 C696 1.391 . S
C727 C689 1.389 . S
C727 C709 1.392 . S
C728 C699 1.392 . S
C728 C701 1.389 . S
C729 C704 1.395 . S
C729 C706 1.391 . S
H730 C690 0.951 . S
H731 C691 0.950 . S
H732 C697 0.949 . S
H733 C698 0.950 . S
H734 C702 0.951 . S
H735 C703 0.950 . S
H736 C707 0.949 . S
H737 C708 0.950 . S
H738 C712 0.950 . S
H739 C714 0.950 . S
H740 C717 0.950 1_565 S
H741 C719 0.950 . S
C742 C743 1.443 . S
C742 N746 1.376 . S
C742 C780 1.389 . S
C743 C742 1.443 . S
C743 C744 1.340 . S
C743 H783 0.951 . S
C744 C743 1.340 . S
C744 C745 1.439 . S
C744 H784 0.950 . S
C745 C744 1.439 . S
C745 N746 1.374 . S
C745 C779 1.395 . S
N746 C742 1.376 . S
N746 C745 1.374 . S
N746 Co747 2.008 . S
Co747 N746 2.008 . S
Co747 N748 1.995 . S
Co747 N753 2.008 . S
Co747 N758 1.995 . S
Co747 N763 2.282 . S
Co747 N769 2.282 . S
N748 Co747 1.995 . S
N748 C749 1.376 . S
N748 C752 1.383 . S
C749 N748 1.376 . S
C749 C750 1.446 . S
C749 C779 1.391 . S
C750 C749 1.446 . S
C750 C751 1.339 . S
C750 H785 0.949 . S
C751 C750 1.339 . S
C751 C752 1.439 . S
C751 H786 0.950 . S
C752 N748 1.383 . S
C752 C751 1.439 . S
C752 C781 1.392 . S
N753 Co747 2.008 . S
N753 C754 1.376 . S
N753 C757 1.374 . S
C754 N753 1.376 . S
C754 C755 1.443 . S
C754 C781 1.389 . S
C755 C754 1.443 . S
C755 C756 1.340 . S
C755 H787 0.951 . S
C756 C755 1.340 . S
C756 C757 1.439 . S
C756 H788 0.950 . S
C757 N753 1.374 . S
C757 C756 1.439 . S
C757 C782 1.395 . S
N758 Co747 1.995 . S
N758 C759 1.376 . S
N758 C762 1.383 . S
C759 N758 1.376 . S
C759 C760 1.446 . S
C759 C782 1.391 . S
C760 C759 1.446 . S
C760 C761 1.339 . S
C760 H789 0.949 . S
C761 C760 1.339 . S
C761 C762 1.439 . S
C761 H790 0.950 . S
C762 N758 1.383 . S
C762 C761 1.439 . S
C762 C780 1.392 . S
N763 Co747 2.282 . S
N763 C766 1.332 . S
N763 C768 1.332 . S
C764 C765 1.386 . S
C764 C767 1.388 . S
C765 C764 1.386 . S
C765 C766 1.382 . S
C765 H791 0.950 . S
C766 N763 1.332 . S
C766 C765 1.382 . S
C766 H777 0.952 . S
C767 C764 1.388 . S
C767 C768 1.382 . S
C767 H792 0.950 . S
C768 N763 1.332 . S
C768 C767 1.382 . S
C768 H778 0.948 . S
N769 Co747 2.282 . S
N769 C773 1.332 . S
N769 C774 1.332 . S
C770 C771 1.388 . S
C770 C774 1.382 . S
C770 H793 0.950 1_655 S
C771 C770 1.388 . S
C771 C772 1.386 . S
C772 C771 1.386 . S
C772 C773 1.382 . S
C772 H794 0.950 . S
C773 N769 1.332 . S
C773 C772 1.382 . S
C773 H775 0.952 . S
C774 N769 1.332 . S
C774 C770 1.382 . S
C774 H776 0.948 . S
H775 C773 0.952 . S
H776 C774 0.948 . S
H777 C766 0.952 . S
H778 C768 0.948 . S
C779 C745 1.395 . S
C779 C749 1.391 . S
C780 C742 1.389 . S
C780 C762 1.392 . S
C781 C752 1.392 . S
C781 C754 1.389 . S
C782 C757 1.395 . S
C782 C759 1.391 . S
H783 C743 0.951 . S
H784 C744 0.950 . S
H785 C750 0.949 . S
H786 C751 0.950 . S
H787 C755 0.951 . S
H788 C756 0.950 . S
H789 C760 0.949 . S
H790 C761 0.950 . S
H791 C765 0.950 . S
H792 C767 0.950 . S
H793 C770 0.950 1_455 S
H794 C772 0.950 . S
C795 C796 1.443 . S
C795 N799 1.376 . S
C795 C833 1.389 . S
C796 C795 1.443 . S
C796 C797 1.340 . S
C796 H836 0.951 . S
C797 C796 1.340 . S
C797 C798 1.439 . S
C797 H837 0.950 . S
C798 C797 1.439 . S
C798 N799 1.374 . S
C798 C832 1.395 . S
N799 C795 1.376 . S
N799 C798 1.374 . S
N799 Co800 2.008 . S
Co800 N799 2.008 . S
Co800 N801 1.995 . S
Co800 N806 2.008 . S
Co800 N811 1.995 . S
Co800 N816 2.282 . S
Co800 N822 2.282 . S
N801 Co800 1.995 . S
N801 C802 1.376 . S
N801 C805 1.383 . S
C802 N801 1.376 . S
C802 C803 1.446 . S
C802 C832 1.391 . S
C803 C802 1.446 . S
C803 C804 1.339 . S
C803 H838 0.949 . S
C804 C803 1.339 . S
C804 C805 1.439 . S
C804 H839 0.950 . S
C805 N801 1.383 . S
C805 C804 1.439 . S
C805 C834 1.392 . S
N806 Co800 2.008 . S
N806 C807 1.376 . S
N806 C810 1.374 . S
C807 N806 1.376 . S
C807 C808 1.443 . S
C807 C834 1.389 . S
C808 C807 1.443 . S
C808 C809 1.340 . S
C808 H840 0.951 . S
C809 C808 1.340 . S
C809 C810 1.439 . S
C809 H841 0.950 . S
C810 N806 1.374 . S
C810 C809 1.439 . S
C810 C835 1.395 . S
N811 Co800 1.995 . S
N811 C812 1.376 . S
N811 C815 1.383 . S
C812 N811 1.376 . S
C812 C813 1.446 . S
C812 C835 1.391 . S
C813 C812 1.446 . S
C813 C814 1.339 . S
C813 H842 0.949 . S
C814 C813 1.339 . S
C814 C815 1.439 . S
C814 H843 0.950 . S
C815 N811 1.383 . S
C815 C814 1.439 . S
C815 C833 1.392 . S
N816 Co800 2.282 . S
N816 C819 1.332 . S
N816 C821 1.332 . S
C817 C818 1.386 . S
C817 C820 1.388 . S
C818 C817 1.386 . S
C818 C819 1.382 . S
C818 H844 0.950 . S
C819 N816 1.332 . S
C819 C818 1.382 . S
C819 H830 0.952 . S
C820 C817 1.388 . S
C820 C821 1.382 . S
C820 H845 0.950 . S
C821 N816 1.332 . S
C821 C820 1.382 . S
C821 H831 0.948 . S
N822 Co800 2.282 . S
N822 C826 1.332 . S
N822 C827 1.332 . S
C823 C824 1.388 . S
C823 C827 1.382 . S
C823 H846 0.950 . S
C824 C823 1.388 . S
C824 C825 1.386 . S
C825 C824 1.386 . S
C825 C826 1.382 . S
C825 H847 0.950 . S
C826 N822 1.332 . S
C826 C825 1.382 . S
C826 H828 0.952 . S
C827 N822 1.332 . S
C827 C823 1.382 . S
C827 H829 0.948 . S
H828 C826 0.952 . S
H829 C827 0.948 . S
H830 C819 0.952 . S
H831 C821 0.948 . S
C832 C798 1.395 . S
C832 C802 1.391 . S
C833 C795 1.389 . S
C833 C815 1.392 . S
C834 C805 1.392 . S
C834 C807 1.389 . S
C835 C810 1.395 . S
C835 C812 1.391 . S
H836 C796 0.951 . S
H837 C797 0.950 . S
H838 C803 0.949 . S
H839 C804 0.950 . S
H840 C808 0.951 . S
H841 C809 0.950 . S
H842 C813 0.949 . S
H843 C814 0.950 . S
H844 C818 0.950 . S
H845 C820 0.950 . S
H846 C823 0.950 . S
H847 C825 0.950 . S
C848 C849 1.443 . S
C848 N852 1.376 . S
C848 C886 1.389 . S
C849 C848 1.443 . S
C849 C850 1.340 . S
C849 H889 0.951 . S
C850 C849 1.340 . S
C850 C851 1.439 . S
C850 H890 0.950 . S
C851 C850 1.439 . S
C851 N852 1.374 . S
C851 C885 1.395 . S
N852 C848 1.376 . S
N852 C851 1.374 . S
N852 Co853 2.008 . S
Co853 N852 2.008 . S
Co853 N854 1.995 . S
Co853 N859 2.008 . S
Co853 N864 1.995 . S
Co853 N869 2.282 . S
Co853 N875 2.282 . S
N854 Co853 1.995 . S
N854 C855 1.376 . S
N854 C858 1.383 . S
C855 N854 1.376 . S
C855 C856 1.446 . S
C855 C885 1.391 . S
C856 C855 1.446 . S
C856 C857 1.339 . S
C856 H891 0.949 . S
C857 C856 1.339 . S
C857 C858 1.439 . S
C857 H892 0.950 . S
C858 N854 1.383 . S
C858 C857 1.439 . S
C858 C887 1.392 . S
N859 Co853 2.008 . S
N859 C860 1.376 . S
N859 C863 1.374 . S
C860 N859 1.376 . S
C860 C861 1.443 . S
C860 C887 1.389 . S
C861 C860 1.443 . S
C861 C862 1.340 . S
C861 H893 0.951 . S
C862 C861 1.340 . S
C862 C863 1.439 . S
C862 H894 0.950 . S
C863 N859 1.374 . S
C863 C862 1.439 . S
C863 C888 1.395 . S
N864 Co853 1.995 . S
N864 C865 1.376 . S
N864 C868 1.383 . S
C865 N864 1.376 . S
C865 C866 1.446 . S
C865 C888 1.391 . S
C866 C865 1.446 . S
C866 C867 1.339 . S
C866 H895 0.949 . S
C867 C866 1.339 . S
C867 C868 1.439 . S
C867 H896 0.950 . S
C868 N864 1.383 . S
C868 C867 1.439 . S
C868 C886 1.392 . S
N869 Co853 2.282 . S
N869 C872 1.332 . S
N869 C874 1.332 . S
C870 C871 1.386 . S
C870 C873 1.388 . S
C871 C870 1.386 . S
C871 C872 1.382 . S
C871 H897 0.950 . S
C872 N869 1.332 . S
C872 C871 1.382 . S
C872 H883 0.952 . S
C873 C870 1.388 . S
C873 C874 1.382 . S
C873 H898 0.950 . S
C874 N869 1.332 . S
C874 C873 1.382 . S
C874 H884 0.948 . S
N875 Co853 2.282 . S
N875 C879 1.332 . S
N875 C880 1.332 . S
C876 C877 1.388 . S
C876 C880 1.382 . S
C876 H899 0.950 . S
C877 C876 1.388 . S
C877 C878 1.386 . S
C878 C877 1.386 . S
C878 C879 1.382 . S
C878 H900 0.950 . S
C879 N875 1.332 . S
C879 C878 1.382 . S
C879 H881 0.952 . S
C880 N875 1.332 . S
C880 C876 1.382 . S
C880 H882 0.948 . S
H881 C879 0.952 . S
H882 C880 0.948 . S
H883 C872 0.952 . S
H884 C874 0.948 . S
C885 C851 1.395 . S
C885 C855 1.391 . S
C886 C848 1.389 . S
C886 C868 1.392 . S
C887 C858 1.392 . S
C887 C860 1.389 . S
C888 C863 1.395 . S
C888 C865 1.391 . S
H889 C849 0.951 . S
H890 C850 0.950 . S
H891 C856 0.949 . S
H892 C857 0.950 . S
H893 C861 0.951 . S
H894 C862 0.950 . S
H895 C866 0.949 . S
H896 C867 0.950 . S
H897 C871 0.950 . S
H898 C873 0.950 . S
H899 C876 0.950 . S
H900 C878 0.950 . S
C901 C902 1.443 . S
C901 N905 1.376 . S
C901 C939 1.389 . S
C902 C901 1.443 . S
C902 C903 1.340 . S
C902 H942 0.951 . S
C903 C902 1.340 . S
C903 C904 1.439 . S
C903 H943 0.950 . S
C904 C903 1.439 . S
C904 N905 1.374 . S
C904 C938 1.395 . S
N905 C901 1.376 . S
N905 C904 1.374 . S
N905 Co906 2.008 . S
Co906 N905 2.008 . S
Co906 N907 1.995 . S
Co906 N912 2.008 . S
Co906 N917 1.995 . S
Co906 N922 2.282 . S
Co906 N928 2.282 . S
N907 Co906 1.995 . S
N907 C908 1.376 . S
N907 C911 1.383 . S
C908 N907 1.376 . S
C908 C909 1.446 . S
C908 C938 1.391 . S
C909 C908 1.446 . S
C909 C910 1.339 . S
C909 H944 0.949 . S
C910 C909 1.339 . S
C910 C911 1.439 . S
C910 H945 0.950 . S
C911 N907 1.383 . S
C911 C910 1.439 . S
C911 C940 1.392 . S
N912 Co906 2.008 . S
N912 C913 1.376 . S
N912 C916 1.374 . S
C913 N912 1.376 . S
C913 C914 1.443 . S
C913 C940 1.389 . S
C914 C913 1.443 . S
C914 C915 1.340 . S
C914 H946 0.951 . S
C915 C914 1.340 . S
C915 C916 1.439 . S
C915 H947 0.950 . S
C916 N912 1.374 . S
C916 C915 1.439 . S
C916 C941 1.395 . S
N917 Co906 1.995 . S
N917 C918 1.376 . S
N917 C921 1.383 . S
C918 N917 1.376 . S
C918 C919 1.446 . S
C918 C941 1.391 . S
C919 C918 1.446 . S
C919 C920 1.339 . S
C919 H948 0.949 . S
C920 C919 1.339 . S
C920 C921 1.439 . S
C920 H949 0.950 . S
C921 N917 1.383 . S
C921 C920 1.439 . S
C921 C939 1.392 . S
N922 Co906 2.282 . S
N922 C925 1.332 . S
N922 C927 1.332 . S
C923 C924 1.386 . S
C923 C926 1.388 . S
C924 C923 1.386 . S
C924 C925 1.382 . S
C924 H950 0.950 . S
C925 N922 1.332 . S
C925 C924 1.382 . S
C925 H936 0.952 . S
C926 C923 1.388 . S
C926 C927 1.382 . S
C926 H951 0.950 . S
C927 N922 1.332 . S
C927 C926 1.382 . S
C927 H937 0.948 . S
N928 Co906 2.282 . S
N928 C932 1.332 . S
N928 C933 1.332 . S
C929 C930 1.388 . S
C929 C933 1.382 . S
C929 H952 0.950 . S
C930 C929 1.388 . S
C930 C931 1.386 . S
C931 C930 1.386 . S
C931 C932 1.382 . S
C931 H953 0.950 . S
C932 N928 1.332 . S
C932 C931 1.382 . S
C932 H934 0.952 . S
C933 N928 1.332 . S
C933 C929 1.382 . S
C933 H935 0.948 . S
H934 C932 0.952 . S
H935 C933 0.948 . S
H936 C925 0.952 . S
H937 C927 0.948 . S
C938 C904 1.395 . S
C938 C908 1.391 . S
C939 C901 1.389 . S
C939 C921 1.392 . S
C940 C911 1.392 . S
C940 C913 1.389 . S
C941 C916 1.395 . S
C941 C918 1.391 . S
H942 C902 0.951 . S
H943 C903 0.950 . S
H944 C909 0.949 . S
H945 C910 0.950 . S
H946 C914 0.951 . S
H947 C915 0.950 . S
H948 C919 0.949 . S
H949 C920 0.950 . S
H950 C924 0.950 . S
H951 C926 0.950 . S
H952 C929 0.950 . S
H953 C931 0.950 . S
C954 C955 1.443 . S
C954 N958 1.376 . S
C954 C992 1.389 . S
C955 C954 1.443 . S
C955 C956 1.340 . S
C955 H995 0.951 . S
C956 C955 1.340 . S
C956 C957 1.439 . S
C956 H996 0.950 . S
C957 C956 1.439 . S
C957 N958 1.374 . S
C957 C991 1.395 . S
N958 C954 1.376 . S
N958 C957 1.374 . S
N958 Co959 2.008 . S
Co959 N958 2.008 . S
Co959 N960 1.995 . S
Co959 N965 2.008 . S
Co959 N970 1.995 . S
Co959 N975 2.282 . S
Co959 N981 2.282 . S
N960 Co959 1.995 . S
N960 C961 1.376 . S
N960 C964 1.383 . S
C961 N960 1.376 . S
C961 C962 1.446 . S
C961 C991 1.391 . S
C962 C961 1.446 . S
C962 C963 1.339 . S
C962 H997 0.949 . S
C963 C962 1.339 . S
C963 C964 1.439 . S
C963 H998 0.950 . S
C964 N960 1.383 . S
C964 C963 1.439 . S
C964 C993 1.392 . S
N965 Co959 2.008 . S
N965 C966 1.376 . S
N965 C969 1.374 . S
C966 N965 1.376 . S
C966 C967 1.443 . S
C966 C993 1.389 . S
C967 C966 1.443 . S
C967 C968 1.340 . S
C967 H999 0.951 . S
C968 C967 1.340 . S
C968 C969 1.439 . S
C968 H1000 0.950 . S
C969 N965 1.374 . S
C969 C968 1.439 . S
C969 C994 1.395 . S
N970 Co959 1.995 . S
N970 C971 1.376 . S
N970 C974 1.383 . S
C971 N970 1.376 . S
C971 C972 1.446 . S
C971 C994 1.391 . S
C972 C971 1.446 . S
C972 C973 1.339 . S
C972 H1001 0.949 . S
C973 C972 1.339 . S
C973 C974 1.439 . S
C973 H1002 0.950 . S
C974 N970 1.383 . S
C974 C973 1.439 . S
C974 C992 1.392 . S
N975 Co959 2.282 . S
N975 C978 1.332 . S
N975 C980 1.332 . S
C976 C977 1.386 . S
C976 C979 1.388 . S
C977 C976 1.386 . S
C977 C978 1.382 . S
C977 H1003 0.950 . S
C978 N975 1.332 . S
C978 C977 1.382 . S
C978 H989 0.952 . S
C979 C976 1.388 . S
C979 C980 1.382 . S
C979 H1004 0.950 . S
C980 N975 1.332 . S
C980 C979 1.382 . S
C980 H990 0.948 . S
N981 Co959 2.282 . S
N981 C985 1.332 . S
N981 C986 1.332 . S
C982 C983 1.388 . S
C982 C986 1.382 . S
C982 H1005 0.950 . S
C983 C982 1.388 . S
C983 C984 1.386 . S
C984 C983 1.386 . S
C984 C985 1.382 . S
C984 H1006 0.950 . S
C985 N981 1.332 . S
C985 C984 1.382 . S
C985 H987 0.952 . S
C986 N981 1.332 . S
C986 C982 1.382 . S
C986 H988 0.948 . S
H987 C985 0.952 . S
H988 C986 0.948 . S
H989 C978 0.952 . S
H990 C980 0.948 . S
C991 C957 1.395 . S
C991 C961 1.391 . S
C992 C954 1.389 . S
C992 C974 1.392 . S
C993 C964 1.392 . S
C993 C966 1.389 . S
C994 C969 1.395 . S
C994 C971 1.391 . S
H995 C955 0.951 . S
H996 C956 0.950 . S
H997 C962 0.949 . S
H998 C963 0.950 . S
H999 C967 0.951 . S
H1000 C968 0.950 . S
H1001 C972 0.949 . S
H1002 C973 0.950 . S
H1003 C977 0.950 . S
H1004 C979 0.950 . S
H1005 C982 0.950 . S
H1006 C984 0.950 . S
C1007 C1008 1.443 . S
C1007 N1011 1.376 . S
C1007 C1045 1.389 . S
C1008 C1007 1.443 . S
C1008 C1009 1.340 . S
C1008 H1048 0.951 . S
C1009 C1008 1.340 . S
C1009 C1010 1.439 . S
C1009 H1049 0.950 . S
C1010 C1009 1.439 . S
C1010 N1011 1.374 . S
C1010 C1044 1.395 . S
N1011 C1007 1.376 . S
N1011 C1010 1.374 . S
N1011 Co1012 2.008 . S
Co1012 N1011 2.008 . S
Co1012 N1013 1.995 . S
Co1012 N1018 2.008 . S
Co1012 N1023 1.995 . S
Co1012 N1028 2.282 . S
Co1012 N1034 2.282 . S
N1013 Co1012 1.995 . S
N1013 C1014 1.376 . S
N1013 C1017 1.383 . S
C1014 N1013 1.376 . S
C1014 C1015 1.446 . S
C1014 C1044 1.391 . S
C1015 C1014 1.446 . S
C1015 C1016 1.339 . S
C1015 H1050 0.949 . S
C1016 C1015 1.339 . S
C1016 C1017 1.439 . S
C1016 H1051 0.950 . S
C1017 N1013 1.383 . S
C1017 C1016 1.439 . S
C1017 C1046 1.392 . S
N1018 Co1012 2.008 . S
N1018 C1019 1.376 . S
N1018 C1022 1.374 . S
C1019 N1018 1.376 . S
C1019 C1020 1.443 . S
C1019 C1046 1.389 . S
C1020 C1019 1.443 . S
C1020 C1021 1.340 . S
C1020 H1052 0.951 . S
C1021 C1020 1.340 . S
C1021 C1022 1.439 . S
C1021 H1053 0.950 . S
C1022 N1018 1.374 . S
C1022 C1021 1.439 . S
C1022 C1047 1.395 . S
N1023 Co1012 1.995 . S
N1023 C1024 1.376 . S
N1023 C1027 1.383 . S
C1024 N1023 1.376 . S
C1024 C1025 1.446 . S
C1024 C1047 1.391 . S
C1025 C1024 1.446 . S
C1025 C1026 1.339 . S
C1025 H1054 0.949 . S
C1026 C1025 1.339 . S
C1026 C1027 1.439 . S
C1026 H1055 0.950 . S
C1027 N1023 1.383 . S
C1027 C1026 1.439 . S
C1027 C1045 1.392 . S
N1028 Co1012 2.282 . S
N1028 C1031 1.332 . S
N1028 C1033 1.332 . S
C1029 C1030 1.386 . S
C1029 C1032 1.388 . S
C1030 C1029 1.386 . S
C1030 C1031 1.382 . S
C1030 H1056 0.950 . S
C1031 N1028 1.332 . S
C1031 C1030 1.382 . S
C1031 H1042 0.952 . S
C1032 C1029 1.388 . S
C1032 C1033 1.382 . S
C1032 H1057 0.950 . S
C1033 N1028 1.332 . S
C1033 C1032 1.382 . S
C1033 H1043 0.948 . S
N1034 Co1012 2.282 . S
N1034 C1038 1.332 . S
N1034 C1039 1.332 . S
C1035 C1036 1.388 . S
C1035 C1039 1.382 . S
C1035 H1058 0.950 . S
C1036 C1035 1.388 . S
C1036 C1037 1.386 . S
C1037 C1036 1.386 . S
C1037 C1038 1.382 . S
C1037 H1059 0.950 . S
C1038 N1034 1.332 . S
C1038 C1037 1.382 . S
C1038 H1040 0.952 . S
C1039 N1034 1.332 . S
C1039 C1035 1.382 . S
C1039 H1041 0.948 . S
H1040 C1038 0.952 . S
H1041 C1039 0.948 . S
H1042 C1031 0.952 . S
H1043 C1033 0.948 . S
C1044 C1010 1.395 . S
C1044 C1014 1.391 . S
C1045 C1007 1.389 . S
C1045 C1027 1.392 . S
C1046 C1017 1.392 . S
C1046 C1019 1.389 . S
C1047 C1022 1.395 . S
C1047 C1024 1.391 . S
H1048 C1008 0.951 . S
H1049 C1009 0.950 . S
H1050 C1015 0.949 . S
H1051 C1016 0.950 . S
H1052 C1020 0.951 . S
H1053 C1021 0.950 . S
H1054 C1025 0.949 . S
H1055 C1026 0.950 . S
H1056 C1030 0.950 . S
H1057 C1032 0.950 . S
H1058 C1035 0.950 . S
H1059 C1037 0.950 . S
C1060 C1061 1.443 . S
C1060 N1064 1.376 . S
C1060 C1098 1.389 . S
C1061 C1060 1.443 . S
C1061 C1062 1.340 . S
C1061 H1101 0.951 . S
C1062 C1061 1.340 . S
C1062 C1063 1.439 . S
C1062 H1102 0.950 . S
C1063 C1062 1.439 . S
C1063 N1064 1.374 . S
C1063 C1097 1.395 . S
N1064 C1060 1.376 . S
N1064 C1063 1.374 . S
N1064 Co1065 2.008 . S
Co1065 N1064 2.008 . S
Co1065 N1066 1.995 . S
Co1065 N1071 2.008 . S
Co1065 N1076 1.995 . S
Co1065 N1081 2.282 . S
Co1065 N1087 2.282 . S
N1066 Co1065 1.995 . S
N1066 C1067 1.376 . S
N1066 C1070 1.383 . S
C1067 N1066 1.376 . S
C1067 C1068 1.446 . S
C1067 C1097 1.391 . S
C1068 C1067 1.446 . S
C1068 C1069 1.339 . S
C1068 H1103 0.949 . S
C1069 C1068 1.339 . S
C1069 C1070 1.439 . S
C1069 H1104 0.950 . S
C1070 N1066 1.383 . S
C1070 C1069 1.439 . S
C1070 C1099 1.392 . S
N1071 Co1065 2.008 . S
N1071 C1072 1.376 . S
N1071 C1075 1.374 . S
C1072 N1071 1.376 . S
C1072 C1073 1.443 . S
C1072 C1099 1.389 . S
C1073 C1072 1.443 . S
C1073 C1074 1.340 . S
C1073 H1105 0.951 . S
C1074 C1073 1.340 . S
C1074 C1075 1.439 . S
C1074 H1106 0.950 . S
C1075 N1071 1.374 . S
C1075 C1074 1.439 . S
C1075 C1100 1.395 . S
N1076 Co1065 1.995 . S
N1076 C1077 1.376 . S
N1076 C1080 1.383 . S
C1077 N1076 1.376 . S
C1077 C1078 1.446 . S
C1077 C1100 1.391 . S
C1078 C1077 1.446 . S
C1078 C1079 1.339 . S
C1078 H1107 0.949 . S
C1079 C1078 1.339 . S
C1079 C1080 1.439 . S
C1079 H1108 0.950 . S
C1080 N1076 1.383 . S
C1080 C1079 1.439 . S
C1080 C1098 1.392 . S
N1081 Co1065 2.282 . S
N1081 C1084 1.332 . S
N1081 C1086 1.332 . S
C1082 C1083 1.386 . S
C1082 C1085 1.388 . S
C1083 C1082 1.386 . S
C1083 C1084 1.382 . S
C1083 H1109 0.950 . S
C1084 N1081 1.332 . S
C1084 C1083 1.382 . S
C1084 H1095 0.952 . S
C1085 C1082 1.388 . S
C1085 C1086 1.382 . S
C1085 H1110 0.950 . S
C1086 N1081 1.332 . S
C1086 C1085 1.382 . S
C1086 H1096 0.948 . S
N1087 Co1065 2.282 . S
N1087 C1091 1.332 . S
N1087 C1092 1.332 . S
C1088 C1089 1.388 . S
C1088 C1092 1.382 . S
C1088 H1111 0.950 . S
C1089 C1088 1.388 . S
C1089 C1090 1.386 . S
C1090 C1089 1.386 . S
C1090 C1091 1.382 . S
C1090 H1112 0.950 . S
C1091 N1087 1.332 . S
C1091 C1090 1.382 . S
C1091 H1093 0.952 . S
C1092 N1087 1.332 . S
C1092 C1088 1.382 . S
C1092 H1094 0.948 . S
H1093 C1091 0.952 . S
H1094 C1092 0.948 . S
H1095 C1084 0.952 . S
H1096 C1086 0.948 . S
C1097 C1063 1.395 . S
C1097 C1067 1.391 . S
C1098 C1060 1.389 . S
C1098 C1080 1.392 . S
C1099 C1070 1.392 . S
C1099 C1072 1.389 . S
C1100 C1075 1.395 . S
C1100 C1077 1.391 . S
H1101 C1061 0.951 . S
H1102 C1062 0.950 . S
H1103 C1068 0.949 . S
H1104 C1069 0.950 . S
H1105 C1073 0.951 . S
H1106 C1074 0.950 . S
H1107 C1078 0.949 . S
H1108 C1079 0.950 . S
H1109 C1083 0.950 . S
H1110 C1085 0.950 . S
H1111 C1088 0.950 . S
H1112 C1090 0.950 . S
C1113 C1114 1.443 . S
C1113 N1117 1.376 . S
C1113 C1151 1.389 . S
C1114 C1113 1.443 . S
C1114 C1115 1.340 . S
C1114 H1154 0.951 . S
C1115 C1114 1.340 . S
C1115 C1116 1.439 . S
C1115 H1155 0.950 . S
C1116 C1115 1.439 . S
C1116 N1117 1.374 . S
C1116 C1150 1.395 . S
N1117 C1113 1.376 . S
N1117 C1116 1.374 . S
N1117 Co1118 2.008 . S
Co1118 N1117 2.008 . S
Co1118 N1119 1.995 . S
Co1118 N1124 2.008 . S
Co1118 N1129 1.995 . S
Co1118 N1134 2.282 . S
Co1118 N1140 2.282 . S
N1119 Co1118 1.995 . S
N1119 C1120 1.376 . S
N1119 C1123 1.383 . S
C1120 N1119 1.376 . S
C1120 C1121 1.446 . S
C1120 C1150 1.391 . S
C1121 C1120 1.446 . S
C1121 C1122 1.339 . S
C1121 H1156 0.949 . S
C1122 C1121 1.339 . S
C1122 C1123 1.439 . S
C1122 H1157 0.950 . S
C1123 N1119 1.383 . S
C1123 C1122 1.439 . S
C1123 C1152 1.392 . S
N1124 Co1118 2.008 . S
N1124 C1125 1.376 . S
N1124 C1128 1.374 . S
C1125 N1124 1.376 . S
C1125 C1126 1.443 . S
C1125 C1152 1.389 . S
C1126 C1125 1.443 . S
C1126 C1127 1.340 . S
C1126 H1158 0.951 . S
C1127 C1126 1.340 . S
C1127 C1128 1.439 . S
C1127 H1159 0.950 . S
C1128 N1124 1.374 . S
C1128 C1127 1.439 . S
C1128 C1153 1.395 . S
N1129 Co1118 1.995 . S
N1129 C1130 1.376 . S
N1129 C1133 1.383 . S
C1130 N1129 1.376 . S
C1130 C1131 1.446 . S
C1130 C1153 1.391 . S
C1131 C1130 1.446 . S
C1131 C1132 1.339 . S
C1131 H1160 0.949 . S
C1132 C1131 1.339 . S
C1132 C1133 1.439 . S
C1132 H1161 0.950 . S
C1133 N1129 1.383 . S
C1133 C1132 1.439 . S
C1133 C1151 1.392 . S
N1134 Co1118 2.282 . S
N1134 C1137 1.332 . S
N1134 C1139 1.332 . S
C1135 C1136 1.386 . S
C1135 C1138 1.388 . S
C1136 C1135 1.386 . S
C1136 C1137 1.382 . S
C1136 H1162 0.950 . S
C1137 N1134 1.332 . S
C1137 C1136 1.382 . S
C1137 H1148 0.952 . S
C1138 C1135 1.388 . S
C1138 C1139 1.382 . S
C1138 H1163 0.950 . S
C1139 N1134 1.332 . S
C1139 C1138 1.382 . S
C1139 H1149 0.948 . S
N1140 Co1118 2.282 . S
N1140 C1144 1.332 . S
N1140 C1145 1.332 . S
C1141 C1142 1.388 . S
C1141 C1145 1.382 . S
C1141 H1164 0.950 . S
C1142 C1141 1.388 . S
C1142 C1143 1.386 . S
C1143 C1142 1.386 . S
C1143 C1144 1.382 . S
C1143 H1165 0.950 . S
C1144 N1140 1.332 . S
C1144 C1143 1.382 . S
C1144 H1146 0.952 . S
C1145 N1140 1.332 . S
C1145 C1141 1.382 . S
C1145 H1147 0.948 . S
H1146 C1144 0.952 . S
H1147 C1145 0.948 . S
H1148 C1137 0.952 . S
H1149 C1139 0.948 . S
C1150 C1116 1.395 . S
C1150 C1120 1.391 . S
C1151 C1113 1.389 . S
C1151 C1133 1.392 . S
C1152 C1123 1.392 . S
C1152 C1125 1.389 . S
C1153 C1128 1.395 . S
C1153 C1130 1.391 . S
H1154 C1114 0.951 . S
H1155 C1115 0.950 . S
H1156 C1121 0.949 . S
H1157 C1122 0.950 . S
H1158 C1126 0.951 . S
H1159 C1127 0.950 . S
H1160 C1131 0.949 . S
H1161 C1132 0.950 . S
H1162 C1136 0.950 . S
H1163 C1138 0.950 . S
H1164 C1141 0.950 . S
H1165 C1143 0.950 . S
C1166 C1167 1.443 . S
C1166 N1170 1.376 . S
C1166 C1204 1.389 . S
C1167 C1166 1.443 . S
C1167 C1168 1.340 . S
C1167 H1207 0.951 . S
C1168 C1167 1.340 . S
C1168 C1169 1.439 . S
C1168 H1208 0.950 . S
C1169 C1168 1.439 . S
C1169 N1170 1.374 . S
C1169 C1203 1.395 . S
N1170 C1166 1.376 . S
N1170 C1169 1.374 . S
N1170 Co1171 2.008 . S
Co1171 N1170 2.008 . S
Co1171 N1172 1.995 . S
Co1171 N1177 2.008 . S
Co1171 N1182 1.995 . S
Co1171 N1187 2.282 . S
Co1171 N1193 2.282 . S
N1172 Co1171 1.995 . S
N1172 C1173 1.376 . S
N1172 C1176 1.383 . S
C1173 N1172 1.376 . S
C1173 C1174 1.446 . S
C1173 C1203 1.391 . S
C1174 C1173 1.446 . S
C1174 C1175 1.339 . S
C1174 H1209 0.949 . S
C1175 C1174 1.339 . S
C1175 C1176 1.439 . S
C1175 H1210 0.950 . S
C1176 N1172 1.383 . S
C1176 C1175 1.439 . S
C1176 C1205 1.392 . S
N1177 Co1171 2.008 . S
N1177 C1178 1.376 . S
N1177 C1181 1.374 . S
C1178 N1177 1.376 . S
C1178 C1179 1.443 . S
C1178 C1205 1.389 . S
C1179 C1178 1.443 . S
C1179 C1180 1.340 . S
C1179 H1211 0.951 . S
C1180 C1179 1.340 . S
C1180 C1181 1.439 . S
C1180 H1212 0.950 . S
C1181 N1177 1.374 . S
C1181 C1180 1.439 . S
C1181 C1206 1.395 . S
N1182 Co1171 1.995 . S
N1182 C1183 1.376 . S
N1182 C1186 1.383 . S
C1183 N1182 1.376 . S
C1183 C1184 1.446 . S
C1183 C1206 1.391 . S
C1184 C1183 1.446 . S
C1184 C1185 1.339 . S
C1184 H1213 0.949 . S
C1185 C1184 1.339 . S
C1185 C1186 1.439 . S
C1185 H1214 0.950 . S
C1186 N1182 1.383 . S
C1186 C1185 1.439 . S
C1186 C1204 1.392 . S
N1187 Co1171 2.282 . S
N1187 C1190 1.332 . S
N1187 C1192 1.332 . S
C1188 C1189 1.386 . S
C1188 C1191 1.388 . S
C1189 C1188 1.386 . S
C1189 C1190 1.382 . S
C1189 H1215 0.950 . S
C1190 N1187 1.332 . S
C1190 C1189 1.382 . S
C1190 H1201 0.952 . S
C1191 C1188 1.388 . S
C1191 C1192 1.382 . S
C1191 H1216 0.950 . S
C1192 N1187 1.332 . S
C1192 C1191 1.382 . S
C1192 H1202 0.948 . S
N1193 Co1171 2.282 . S
N1193 C1197 1.332 . S
N1193 C1198 1.332 . S
C1194 C1195 1.388 . S
C1194 C1198 1.382 . S
C1194 H1217 0.950 . S
C1195 C1194 1.388 . S
C1195 C1196 1.386 . S
C1196 C1195 1.386 . S
C1196 C1197 1.382 . S
C1196 H1218 0.950 1_545 S
C1197 N1193 1.332 . S
C1197 C1196 1.382 . S
C1197 H1199 0.952 . S
C1198 N1193 1.332 . S
C1198 C1194 1.382 . S
C1198 H1200 0.948 . S
H1199 C1197 0.952 . S
H1200 C1198 0.948 . S
H1201 C1190 0.952 . S
H1202 C1192 0.948 . S
C1203 C1169 1.395 . S
C1203 C1173 1.391 . S
C1204 C1166 1.389 . S
C1204 C1186 1.392 . S
C1205 C1176 1.392 . S
C1205 C1178 1.389 . S
C1206 C1181 1.395 . S
C1206 C1183 1.391 . S
H1207 C1167 0.951 . S
H1208 C1168 0.950 . S
H1209 C1174 0.949 . S
H1210 C1175 0.950 . S
H1211 C1179 0.951 . S
H1212 C1180 0.950 . S
H1213 C1184 0.949 . S
H1214 C1185 0.950 . S
H1215 C1189 0.950 . S
H1216 C1191 0.950 . S
H1217 C1194 0.950 . S
H1218 C1196 0.950 1_565 S
C1219 C1220 1.443 . S
C1219 N1223 1.376 . S
C1219 C1257 1.389 . S
C1220 C1219 1.443 . S
C1220 C1221 1.340 . S
C1220 H1260 0.951 . S
C1221 C1220 1.340 . S
C1221 C1222 1.439 . S
C1221 H1261 0.950 . S
C1222 C1221 1.439 . S
C1222 N1223 1.374 . S
C1222 C1256 1.395 . S
N1223 C1219 1.376 . S
N1223 C1222 1.374 . S
N1223 Co1224 2.008 . S
Co1224 N1223 2.008 . S
Co1224 N1225 1.995 . S
Co1224 N1230 2.008 . S
Co1224 N1235 1.995 . S
Co1224 N1240 2.282 . S
Co1224 N1246 2.282 . S
N1225 Co1224 1.995 . S
N1225 C1226 1.376 . S
N1225 C1229 1.383 . S
C1226 N1225 1.376 . S
C1226 C1227 1.446 . S
C1226 C1256 1.391 . S
C1227 C1226 1.446 . S
C1227 C1228 1.339 . S
C1227 H1262 0.949 . S
C1228 C1227 1.339 . S
C1228 C1229 1.439 . S
C1228 H1263 0.950 . S
C1229 N1225 1.383 . S
C1229 C1228 1.439 . S
C1229 C1258 1.392 . S
N1230 Co1224 2.008 . S
N1230 C1231 1.376 . S
N1230 C1234 1.374 . S
C1231 N1230 1.376 . S
C1231 C1232 1.399 1_655 S
C1231 C1258 1.389 . S
C1232 C1231 1.399 1_455 S
C1232 C1233 1.305 1_455 S
C1232 H1264 1.019 . S
C1233 C1232 1.305 1_655 S
C1233 C1234 1.443 . S
C1233 H1265 0.948 1_655 S
C1234 N1230 1.374 . S
C1234 C1233 1.443 . S
C1234 C1259 1.395 . S
N1235 Co1224 1.995 . S
N1235 C1236 1.376 . S
N1235 C1239 1.383 . S
C1236 N1235 1.376 . S
C1236 C1237 1.446 . S
C1236 C1259 1.391 . S
C1237 C1236 1.446 . S
C1237 C1238 1.339 . S
C1237 H1266 0.949 . S
C1238 C1237 1.339 . S
C1238 C1239 1.439 . S
C1238 H1267 0.950 . S
C1239 N1235 1.383 . S
C1239 C1238 1.439 . S
C1239 C1257 1.392 . S
N1240 Co1224 2.282 . S
N1240 C1243 1.332 . S
N1240 C1245 1.332 . S
C1241 C1242 1.386 . S
C1241 C1244 1.388 . S
C1242 C1241 1.386 . S
C1242 C1243 1.382 . S
C1242 H1268 0.950 . S
C1243 N1240 1.332 . S
C1243 C1242 1.382 . S
C1243 H1254 0.952 . S
C1244 C1241 1.388 . S
C1244 C1245 1.382 . S
C1244 H1269 0.950 . S
C1245 N1240 1.332 . S
C1245 C1244 1.382 . S
C1245 H1255 0.948 . S
N1246 Co1224 2.282 . S
N1246 C1250 1.332 . S
N1246 C1251 1.332 . S
C1247 C1248 1.388 . S
C1247 C1251 1.382 . S
C1247 H1270 0.950 . S
C1248 C1247 1.388 . S
C1248 C1249 1.386 . S
C1249 C1248 1.386 . S
C1249 C1250 1.382 . S
C1249 H1271 0.950 . S
C1250 N1246 1.332 . S
C1250 C1249 1.382 . S
C1250 H1252 0.952 . S
C1251 N1246 1.332 . S
C1251 C1247 1.382 . S
C1251 H1253 0.948 . S
H1252 C1250 0.952 . S
H1253 C1251 0.948 . S
H1254 C1243 0.952 . S
H1255 C1245 0.948 . S
C1256 C1222 1.395 . S
C1256 C1226 1.391 . S
C1257 C1219 1.389 . S
C1257 C1239 1.392 . S
C1258 C1229 1.392 . S
C1258 C1231 1.389 . S
C1259 C1234 1.395 . S
C1259 C1236 1.391 . S
H1260 C1220 0.951 . S
H1261 C1221 0.950 . S
H1262 C1227 0.949 . S
H1263 C1228 0.950 . S
H1264 C1232 1.019 . S
H1265 C1233 0.948 1_455 S
H1266 C1237 0.949 . S
H1267 C1238 0.950 . S
H1268 C1242 0.950 . S
H1269 C1244 0.950 . S
H1270 C1247 0.950 . S
H1271 C1249 0.950 . S
C1272 C1273 1.443 . S
C1272 N1276 1.376 . S
C1272 C1310 1.389 . S
C1273 C1272 1.443 . S
C1273 C1274 1.340 . S
C1273 H1313 0.951 . S
C1274 C1273 1.340 . S
C1274 C1275 1.439 . S
C1274 H1314 0.950 . S
C1275 C1274 1.439 . S
C1275 N1276 1.374 . S
C1275 C1309 1.395 . S
N1276 C1272 1.376 . S
N1276 C1275 1.374 . S
N1276 Co1277 2.008 . S
Co1277 N1276 2.008 . S
Co1277 N1278 1.995 . S
Co1277 N1283 2.008 . S
Co1277 N1288 1.995 . S
Co1277 N1293 2.282 . S
Co1277 N1299 2.282 . S
N1278 Co1277 1.995 . S
N1278 C1279 1.376 . S
N1278 C1282 1.383 . S
C1279 N1278 1.376 . S
C1279 C1280 1.446 . S
C1279 C1309 1.391 . S
C1280 C1279 1.446 . S
C1280 C1281 1.339 . S
C1280 H1315 0.949 . S
C1281 C1280 1.339 . S
C1281 C1282 1.439 . S
C1281 H1316 0.950 . S
C1282 N1278 1.383 . S
C1282 C1281 1.439 . S
C1282 C1311 1.392 . S
N1283 Co1277 2.008 . S
N1283 C1284 1.376 . S
N1283 C1287 1.374 . S
C1284 N1283 1.376 . S
C1284 C1285 1.443 . S
C1284 C1311 1.389 . S
C1285 C1284 1.443 . S
C1285 C1286 1.340 . S
C1285 H1317 0.951 . S
C1286 C1285 1.340 . S
C1286 C1287 1.439 . S
C1286 H1318 0.950 . S
C1287 N1283 1.374 . S
C1287 C1286 1.439 . S
C1287 C1312 1.395 . S
N1288 Co1277 1.995 . S
N1288 C1289 1.376 . S
N1288 C1292 1.383 . S
C1289 N1288 1.376 . S
C1289 C1290 1.446 . S
C1289 C1312 1.391 . S
C1290 C1289 1.446 . S
C1290 C1291 1.339 . S
C1290 H1319 0.949 . S
C1291 C1290 1.339 . S
C1291 C1292 1.439 . S
C1291 H1320 0.950 . S
C1292 N1288 1.383 . S
C1292 C1291 1.439 . S
C1292 C1310 1.392 . S
N1293 Co1277 2.282 . S
N1293 C1296 1.332 . S
N1293 C1298 1.332 . S
C1294 C1295 1.386 . S
C1294 C1297 1.388 . S
C1295 C1294 1.386 . S
C1295 C1296 1.382 . S
C1295 H1321 0.950 . S
C1296 N1293 1.332 . S
C1296 C1295 1.382 . S
C1296 H1307 0.952 . S
C1297 C1294 1.388 . S
C1297 C1298 1.382 . S
C1297 H1322 0.950 . S
C1298 N1293 1.332 . S
C1298 C1297 1.382 . S
C1298 H1308 0.948 . S
N1299 Co1277 2.282 . S
N1299 C1303 1.332 . S
N1299 C1304 1.332 . S
C1300 C1301 1.388 . S
C1300 C1304 1.382 . S
C1300 H1323 0.950 . S
C1301 C1300 1.388 . S
C1301 C1302 1.386 . S
C1302 C1301 1.386 . S
C1302 C1303 1.382 . S
C1302 H1324 0.950 . S
C1303 N1299 1.332 . S
C1303 C1302 1.382 . S
C1303 H1305 0.952 . S
C1304 N1299 1.332 . S
C1304 C1300 1.382 . S
C1304 H1306 0.948 . S
H1305 C1303 0.952 . S
H1306 C1304 0.948 . S
H1307 C1296 0.952 . S
H1308 C1298 0.948 . S
C1309 C1275 1.395 . S
C1309 C1279 1.391 . S
C1310 C1272 1.389 . S
C1310 C1292 1.392 . S
C1311 C1282 1.392 . S
C1311 C1284 1.389 . S
C1312 C1287 1.395 . S
C1312 C1289 1.391 . S
H1313 C1273 0.951 . S
H1314 C1274 0.950 . S
H1315 C1280 0.949 . S
H1316 C1281 0.950 . S
H1317 C1285 0.951 . S
H1318 C1286 0.950 . S
H1319 C1290 0.949 . S
H1320 C1291 0.950 . S
H1321 C1295 0.950 . S
H1322 C1297 0.950 . S
H1323 C1300 0.950 . S
H1324 C1302 0.950 . S
C1325 C1326 1.443 . S
C1325 N1329 1.376 . S
C1325 C1363 1.389 . S
C1326 C1325 1.443 . S
C1326 C1327 1.340 . S
C1326 H1366 0.951 . S
C1327 C1326 1.340 . S
C1327 C1328 1.439 . S
C1327 H1367 0.950 . S
C1328 C1327 1.439 . S
C1328 N1329 1.374 . S
C1328 C1362 1.395 . S
N1329 C1325 1.376 . S
N1329 C1328 1.374 . S
N1329 Co1330 2.008 . S
Co1330 N1329 2.008 . S
Co1330 N1331 1.995 . S
Co1330 N1336 2.008 . S
Co1330 N1341 1.995 . S
Co1330 N1346 2.282 . S
Co1330 N1352 2.282 . S
N1331 Co1330 1.995 . S
N1331 C1332 1.376 . S
N1331 C1335 1.383 . S
C1332 N1331 1.376 . S
C1332 C1333 1.446 . S
C1332 C1362 1.391 . S
C1333 C1332 1.446 . S
C1333 C1334 1.339 . S
C1333 H1368 0.910 1_655 S
C1334 C1333 1.339 . S
C1334 C1335 1.439 . S
C1334 H1369 0.950 . S
C1335 N1331 1.383 . S
C1335 C1334 1.439 . S
C1335 C1364 1.392 . S
N1336 Co1330 2.008 . S
N1336 C1337 1.376 . S
N1336 C1340 1.374 . S
C1337 N1336 1.376 . S
C1337 C1338 1.443 . S
C1337 C1364 1.389 . S
C1338 C1337 1.443 . S
C1338 C1339 1.340 . S
C1338 H1370 0.951 . S
C1339 C1338 1.340 . S
C1339 C1340 1.439 . S
C1339 H1371 0.950 . S
C1340 N1336 1.374 . S
C1340 C1339 1.439 . S
C1340 C1365 1.395 . S
N1341 Co1330 1.995 . S
N1341 C1342 1.376 . S
N1341 C1345 1.383 . S
C1342 N1341 1.376 . S
C1342 C1343 1.446 . S
C1342 C1365 1.391 . S
C1343 C1342 1.446 . S
C1343 C1344 1.339 . S
C1343 H1372 0.949 . S
C1344 C1343 1.339 . S
C1344 C1345 1.439 . S
C1344 H1373 0.950 . S
C1345 N1341 1.383 . S
C1345 C1344 1.439 . S
C1345 C1363 1.392 . S
N1346 Co1330 2.282 . S
N1346 C1349 1.332 . S
N1346 C1351 1.332 . S
C1347 C1348 1.386 . S
C1347 C1350 1.388 . S
C1348 C1347 1.386 . S
C1348 C1349 1.382 . S
C1348 H1374 0.950 . S
C1349 N1346 1.332 . S
C1349 C1348 1.382 . S
C1349 H1360 0.952 . S
C1350 C1347 1.388 . S
C1350 C1351 1.382 . S
C1350 H1375 0.950 . S
C1351 N1346 1.332 . S
C1351 C1350 1.382 . S
C1351 H1361 0.948 . S
N1352 Co1330 2.282 . S
N1352 C1356 1.332 . S
N1352 C1357 1.332 . S
C1353 C1354 1.388 . S
C1353 C1357 1.382 . S
C1353 H1376 0.950 . S
C1354 C1353 1.388 . S
C1354 C1355 1.386 . S
C1355 C1354 1.386 . S
C1355 C1356 1.382 . S
C1355 H1377 0.950 . S
C1356 N1352 1.332 . S
C1356 C1355 1.382 . S
C1356 H1358 0.952 . S
C1357 N1352 1.332 . S
C1357 C1353 1.382 . S
C1357 H1359 0.948 . S
H1358 C1356 0.952 . S
H1359 C1357 0.948 . S
H1360 C1349 0.952 . S
H1361 C1351 0.948 . S
C1362 C1328 1.395 . S
C1362 C1332 1.391 . S
C1363 C1325 1.389 . S
C1363 C1345 1.392 . S
C1364 C1335 1.392 . S
C1364 C1337 1.389 . S
C1365 C1340 1.395 . S
C1365 C1342 1.391 . S
H1366 C1326 0.951 . S
H1367 C1327 0.950 . S
H1368 C1333 0.910 1_455 S
H1369 C1334 0.950 . S
H1370 C1338 0.951 . S
H1371 C1339 0.950 . S
H1372 C1343 0.949 . S
H1373 C1344 0.950 . S
H1374 C1348 0.950 . S
H1375 C1350 0.950 . S
H1376 C1353 0.950 . S
H1377 C1355 0.950 . S
C1378 C1379 1.443 . S
C1378 N1382 1.376 . S
C1378 C1416 1.389 . S
C1379 C1378 1.443 . S
C1379 C1380 1.340 . S
C1379 H1419 0.951 . S
C1380 C1379 1.340 . S
C1380 C1381 1.439 . S
C1380 H1420 0.950 . S
C1381 C1380 1.439 . S
C1381 N1382 1.374 . S
C1381 C1415 1.395 . S
N1382 C1378 1.376 . S
N1382 C1381 1.374 . S
N1382 Co1383 2.008 . S
Co1383 N1382 2.008 . S
Co1383 N1384 1.995 . S
Co1383 N1389 2.008 . S
Co1383 N1394 1.995 . S
Co1383 N1399 2.282 . S
Co1383 N1405 2.282 . S
N1384 Co1383 1.995 . S
N1384 C1385 1.376 . S
N1384 C1388 1.383 . S
C1385 N1384 1.376 . S
C1385 C1386 1.446 . S
C1385 C1415 1.391 . S
C1386 C1385 1.446 . S
C1386 C1387 1.339 . S
C1386 H1421 0.949 . S
C1387 C1386 1.339 . S
C1387 C1388 1.439 . S
C1387 H1422 0.950 . S
C1388 N1384 1.383 . S
C1388 C1387 1.439 . S
C1388 C1417 1.392 . S
N1389 Co1383 2.008 . S
N1389 C1390 1.376 . S
N1389 C1393 1.374 . S
C1390 N1389 1.376 . S
C1390 C1391 1.443 . S
C1390 C1417 1.389 . S
C1391 C1390 1.443 . S
C1391 C1392 1.340 . S
C1391 H1423 0.951 . S
C1392 C1391 1.340 . S
C1392 C1393 1.439 . S
C1392 H1424 0.950 . S
C1393 N1389 1.374 . S
C1393 C1392 1.439 . S
C1393 C1418 1.395 . S
N1394 Co1383 1.995 . S
N1394 C1395 1.376 . S
N1394 C1398 1.383 . S
C1395 N1394 1.376 . S
C1395 C1396 1.446 . S
C1395 C1418 1.391 . S
C1396 C1395 1.446 . S
C1396 C1397 1.339 . S
C1396 H1425 0.949 . S
C1397 C1396 1.339 . S
C1397 C1398 1.439 . S
C1397 H1426 0.950 . S
C1398 N1394 1.383 . S
C1398 C1397 1.439 . S
C1398 C1416 1.392 . S
N1399 Co1383 2.282 . S
N1399 C1402 1.332 . S
N1399 C1404 1.332 . S
C1400 C1401 1.386 . S
C1400 C1403 1.388 . S
C1401 C1400 1.386 . S
C1401 C1402 1.382 . S
C1401 H1427 0.950 . S
C1402 N1399 1.332 . S
C1402 C1401 1.382 . S
C1402 H1413 0.952 . S
C1403 C1400 1.388 . S
C1403 C1404 1.382 . S
C1403 H1428 0.950 . S
C1404 N1399 1.332 . S
C1404 C1403 1.382 . S
C1404 H1414 0.948 . S
N1405 Co1383 2.282 . S
N1405 C1409 1.332 . S
N1405 C1410 1.332 . S
C1406 C1407 1.388 . S
C1406 C1410 1.382 . S
C1406 H1429 0.950 . S
C1407 C1406 1.388 . S
C1407 C1408 1.386 . S
C1408 C1407 1.386 . S
C1408 C1409 1.382 . S
C1408 H1430 0.950 . S
C1409 N1405 1.332 . S
C1409 C1408 1.382 . S
C1409 H1411 0.952 . S
C1410 N1405 1.332 . S
C1410 C1406 1.382 . S
C1410 H1412 0.948 . S
H1411 C1409 0.952 . S
H1412 C1410 0.948 . S
H1413 C1402 0.952 . S
H1414 C1404 0.948 . S
C1415 C1381 1.395 . S
C1415 C1385 1.391 . S
C1416 C1378 1.389 . S
C1416 C1398 1.392 . S
C1417 C1388 1.392 . S
C1417 C1390 1.389 . S
C1418 C1393 1.395 . S
C1418 C1395 1.391 . S
H1419 C1379 0.951 . S
H1420 C1380 0.950 . S
H1421 C1386 0.949 . S
H1422 C1387 0.950 . S
H1423 C1391 0.951 . S
H1424 C1392 0.950 . S
H1425 C1396 0.949 . S
H1426 C1397 0.950 . S
H1427 C1401 0.950 . S
H1428 C1403 0.950 . S
H1429 C1406 0.950 . S
H1430 C1408 0.950 . S
C1431 C1432 1.443 . S
C1431 N1435 1.376 . S
C1431 C1469 1.389 . S
C1432 C1431 1.443 . S
C1432 C1433 1.340 . S
C1432 H1472 0.951 . S
C1433 C1432 1.340 . S
C1433 C1434 1.439 . S
C1433 H1473 0.950 . S
C1434 C1433 1.439 . S
C1434 N1435 1.374 . S
C1434 C1468 1.395 . S
N1435 C1431 1.376 . S
N1435 C1434 1.374 . S
N1435 Co1436 2.008 . S
Co1436 N1435 2.008 . S
Co1436 N1437 1.995 . S
Co1436 N1442 2.008 . S
Co1436 N1447 1.995 . S
Co1436 N1452 2.282 . S
Co1436 N1458 2.282 . S
N1437 Co1436 1.995 . S
N1437 C1438 1.376 . S
N1437 C1441 1.383 . S
C1438 N1437 1.376 . S
C1438 C1439 1.446 . S
C1438 C1468 1.391 . S
C1439 C1438 1.446 . S
C1439 C1440 1.339 . S
C1439 H1474 0.949 . S
C1440 C1439 1.339 . S
C1440 C1441 1.439 . S
C1440 H1475 0.950 . S
C1441 N1437 1.383 . S
C1441 C1440 1.439 . S
C1441 C1470 1.392 . S
N1442 Co1436 2.008 . S
N1442 C1443 1.376 . S
N1442 C1446 1.374 . S
C1443 N1442 1.376 . S
C1443 C1444 1.443 . S
C1443 C1470 1.389 . S
C1444 C1443 1.443 . S
C1444 C1445 1.340 . S
C1444 H1476 0.951 . S
C1445 C1444 1.340 . S
C1445 C1446 1.439 . S
C1445 H1477 0.950 . S
C1446 N1442 1.374 . S
C1446 C1445 1.439 . S
C1446 C1471 1.395 . S
N1447 Co1436 1.995 . S
N1447 C1448 1.376 . S
N1447 C1451 1.383 . S
C1448 N1447 1.376 . S
C1448 C1449 1.446 . S
C1448 C1471 1.391 . S
C1449 C1448 1.446 . S
C1449 C1450 1.339 . S
C1449 H1478 0.949 . S
C1450 C1449 1.339 . S
C1450 C1451 1.439 . S
C1450 H1479 0.950 . S
C1451 N1447 1.383 . S
C1451 C1450 1.439 . S
C1451 C1469 1.392 . S
N1452 Co1436 2.282 . S
N1452 C1455 1.332 . S
N1452 C1457 1.332 . S
C1453 C1454 1.386 . S
C1453 C1456 1.388 . S
C1454 C1453 1.386 . S
C1454 C1455 1.382 . S
C1454 H1480 0.950 . S
C1455 N1452 1.332 . S
C1455 C1454 1.382 . S
C1455 H1466 0.952 . S
C1456 C1453 1.388 . S
C1456 C1457 1.382 . S
C1456 H1481 0.950 . S
C1457 N1452 1.332 . S
C1457 C1456 1.382 . S
C1457 H1467 0.948 . S
N1458 Co1436 2.282 . S
N1458 C1462 1.332 . S
N1458 C1463 1.332 . S
C1459 C1460 1.388 . S
C1459 C1463 1.382 . S
C1459 H1482 0.950 . S
C1460 C1459 1.388 . S
C1460 C1461 1.386 . S
C1461 C1460 1.386 . S
C1461 C1462 1.382 . S
C1461 H1483 0.950 . S
C1462 N1458 1.332 . S
C1462 C1461 1.382 . S
C1462 H1464 0.952 . S
C1463 N1458 1.332 . S
C1463 C1459 1.382 . S
C1463 H1465 0.948 . S
H1464 C1462 0.952 . S
H1465 C1463 0.948 . S
H1466 C1455 0.952 . S
H1467 C1457 0.948 . S
C1468 C1434 1.395 . S
C1468 C1438 1.391 . S
C1469 C1431 1.389 . S
C1469 C1451 1.392 . S
C1470 C1441 1.392 . S
C1470 C1443 1.389 . S
C1471 C1446 1.395 . S
C1471 C1448 1.391 . S
H1472 C1432 0.951 . S
H1473 C1433 0.950 . S
H1474 C1439 0.949 . S
H1475 C1440 0.950 . S
H1476 C1444 0.951 . S
H1477 C1445 0.950 . S
H1478 C1449 0.949 . S
H1479 C1450 0.950 . S
H1480 C1454 0.950 . S
H1481 C1456 0.950 . S
H1482 C1459 0.950 . S
H1483 C1461 0.950 . S
C1484 C1485 1.443 . S
C1484 N1488 1.376 . S
C1484 C1522 1.389 . S
C1485 C1484 1.443 . S
C1485 C1486 1.340 . S
C1485 H1525 0.951 . S
C1486 C1485 1.340 . S
C1486 C1487 1.439 . S
C1486 H1526 0.950 . S
C1487 C1486 1.439 . S
C1487 N1488 1.374 . S
C1487 C1521 1.395 . S
N1488 C1484 1.376 . S
N1488 C1487 1.374 . S
N1488 Co1489 2.008 . S
Co1489 N1488 2.008 . S
Co1489 N1490 1.995 . S
Co1489 N1495 2.008 . S
Co1489 N1500 1.995 . S
Co1489 N1505 2.282 . S
Co1489 N1511 2.282 . S
N1490 Co1489 1.995 . S
N1490 C1491 1.376 . S
N1490 C1494 1.383 . S
C1491 N1490 1.376 . S
C1491 C1492 1.446 . S
C1491 C1521 1.391 . S
C1492 C1491 1.446 . S
C1492 C1493 1.339 . S
C1492 H1527 0.949 . S
C1493 C1492 1.339 . S
C1493 C1494 1.439 . S
C1493 H1528 0.950 . S
C1494 N1490 1.383 . S
C1494 C1493 1.439 . S
C1494 C1523 1.392 . S
N1495 Co1489 2.008 . S
N1495 C1496 1.376 . S
N1495 C1499 1.374 . S
C1496 N1495 1.376 . S
C1496 C1497 1.443 . S
C1496 C1523 1.389 . S
C1497 C1496 1.443 . S
C1497 C1498 1.340 . S
C1497 H1529 0.951 . S
C1498 C1497 1.340 . S
C1498 C1499 1.439 . S
C1498 H1530 0.950 . S
C1499 N1495 1.374 . S
C1499 C1498 1.439 . S
C1499 C1524 1.395 . S
N1500 Co1489 1.995 . S
N1500 C1501 1.376 . S
N1500 C1504 1.383 . S
C1501 N1500 1.376 . S
C1501 C1502 1.446 . S
C1501 C1524 1.391 . S
C1502 C1501 1.446 . S
C1502 C1503 1.339 . S
C1502 H1531 0.949 . S
C1503 C1502 1.339 . S
C1503 C1504 1.439 . S
C1503 H1532 0.950 . S
C1504 N1500 1.383 . S
C1504 C1503 1.439 . S
C1504 C1522 1.392 . S
N1505 Co1489 2.282 . S
N1505 C1508 1.332 . S
N1505 C1510 1.332 . S
C1506 C1507 1.386 . S
C1506 C1509 1.388 . S
C1507 C1506 1.386 . S
C1507 C1508 1.382 . S
C1507 H1533 0.950 . S
C1508 N1505 1.332 . S
C1508 C1507 1.382 . S
C1508 H1519 0.952 . S
C1509 C1506 1.388 . S
C1509 C1510 1.382 . S
C1509 H1534 0.950 . S
C1510 N1505 1.332 . S
C1510 C1509 1.382 . S
C1510 H1520 0.948 . S
N1511 Co1489 2.282 . S
N1511 C1515 1.332 . S
N1511 C1516 1.332 . S
C1512 C1513 1.388 . S
C1512 C1516 1.382 . S
C1512 H1535 0.950 1_565 S
C1513 C1512 1.388 . S
C1513 C1514 1.386 . S
C1514 C1513 1.386 . S
C1514 C1515 1.382 . S
C1514 H1536 0.950 . S
C1515 N1511 1.332 . S
C1515 C1514 1.382 . S
C1515 H1517 0.952 . S
C1516 N1511 1.332 . S
C1516 C1512 1.382 . S
C1516 H1518 0.948 . S
H1517 C1515 0.952 . S
H1518 C1516 0.948 . S
H1519 C1508 0.952 . S
H1520 C1510 0.948 . S
C1521 C1487 1.395 . S
C1521 C1491 1.391 . S
C1522 C1484 1.389 . S
C1522 C1504 1.392 . S
C1523 C1494 1.392 . S
C1523 C1496 1.389 . S
C1524 C1499 1.395 . S
C1524 C1501 1.391 . S
H1525 C1485 0.951 . S
H1526 C1486 0.950 . S
H1527 C1492 0.949 . S
H1528 C1493 0.950 . S
H1529 C1497 0.951 . S
H1530 C1498 0.950 . S
H1531 C1502 0.949 . S
H1532 C1503 0.950 . S
H1533 C1507 0.950 . S
H1534 C1509 0.950 . S
H1535 C1512 0.950 1_545 S
H1536 C1514 0.950 . S
C1537 C1538 1.443 . S
C1537 N1541 1.376 . S
C1537 C1575 1.389 . S
C1538 C1537 1.443 . S
C1538 C1539 1.340 . S
C1538 H1578 0.951 . S
C1539 C1538 1.340 . S
C1539 C1540 1.439 . S
C1539 H1579 0.950 . S
C1540 C1539 1.439 . S
C1540 N1541 1.374 . S
C1540 C1574 1.395 . S
N1541 C1537 1.376 . S
N1541 C1540 1.374 . S
N1541 Co1542 2.008 . S
Co1542 N1541 2.008 . S
Co1542 N1543 1.995 . S
Co1542 N1548 2.008 . S
Co1542 N1553 1.995 . S
Co1542 N1558 2.282 . S
Co1542 N1564 2.282 . S
N1543 Co1542 1.995 . S
N1543 C1544 1.376 . S
N1543 C1547 1.383 . S
C1544 N1543 1.376 . S
C1544 C1545 1.446 . S
C1544 C1574 1.391 . S
C1545 C1544 1.446 . S
C1545 C1546 1.339 . S
C1545 H1580 0.949 . S
C1546 C1545 1.339 . S
C1546 C1547 1.439 . S
C1546 H1581 0.950 . S
C1547 N1543 1.383 . S
C1547 C1546 1.439 . S
C1547 C1576 1.392 . S
N1548 Co1542 2.008 . S
N1548 C1549 1.376 . S
N1548 C1552 1.374 . S
C1549 N1548 1.376 . S
C1549 C1550 1.443 . S
C1549 C1576 1.389 . S
C1550 C1549 1.443 . S
C1550 C1551 1.340 . S
C1550 H1582 0.951 . S
C1551 C1550 1.340 . S
C1551 C1552 1.439 . S
C1551 H1583 0.950 . S
C1552 N1548 1.374 . S
C1552 C1551 1.439 . S
C1552 C1577 1.395 . S
N1553 Co1542 1.995 . S
N1553 C1554 1.376 . S
N1553 C1557 1.383 . S
C1554 N1553 1.376 . S
C1554 C1555 1.446 . S
C1554 C1577 1.391 . S
C1555 C1554 1.446 . S
C1555 C1556 1.339 . S
C1555 H1584 0.949 . S
C1556 C1555 1.339 . S
C1556 C1557 1.439 . S
C1556 H1585 0.950 . S
C1557 N1553 1.383 . S
C1557 C1556 1.439 . S
C1557 C1575 1.392 . S
N1558 Co1542 2.282 . S
N1558 C1561 1.332 . S
N1558 C1563 1.332 . S
C1559 C1560 1.386 . S
C1559 C1562 1.388 . S
C1560 C1559 1.386 . S
C1560 C1561 1.382 . S
C1560 H1586 0.950 . S
C1561 N1558 1.332 . S
C1561 C1560 1.382 . S
C1561 H1572 0.952 . S
C1562 C1559 1.388 . S
C1562 C1563 1.382 . S
C1562 H1587 0.950 . S
C1563 N1558 1.332 . S
C1563 C1562 1.382 . S
C1563 H1573 0.948 . S
N1564 Co1542 2.282 . S
N1564 C1568 1.332 . S
N1564 C1569 1.332 . S
C1565 C1566 1.388 . S
C1565 C1569 1.382 . S
C1565 H1588 0.950 1_455 S
C1566 C1565 1.388 . S
C1566 C1567 1.386 . S
C1567 C1566 1.386 . S
C1567 C1568 1.382 . S
C1567 H1589 0.950 . S
C1568 N1564 1.332 . S
C1568 C1567 1.382 . S
C1568 H1570 0.952 . S
C1569 N1564 1.332 . S
C1569 C1565 1.382 . S
C1569 H1571 0.948 . S
H1570 C1568 0.952 . S
H1571 C1569 0.948 . S
H1572 C1561 0.952 . S
H1573 C1563 0.948 . S
C1574 C1540 1.395 . S
C1574 C1544 1.391 . S
C1575 C1537 1.389 . S
C1575 C1557 1.392 . S
C1576 C1547 1.392 . S
C1576 C1549 1.389 . S
C1577 C1552 1.395 . S
C1577 C1554 1.391 . S
H1578 C1538 0.951 . S
H1579 C1539 0.950 . S
H1580 C1545 0.949 . S
H1581 C1546 0.950 . S
H1582 C1550 0.951 . S
H1583 C1551 0.950 . S
H1584 C1555 0.949 . S
H1585 C1556 0.950 . S
H1586 C1560 0.950 . S
H1587 C1562 0.950 . S
H1588 C1565 0.950 1_655 S
H1589 C1567 0.950 . S
C1590 C1591 1.443 . S
C1590 N1594 1.376 . S
C1590 C1628 1.389 . S
C1591 C1590 1.443 . S
C1591 C1592 1.340 . S
C1591 H1631 0.951 . S
C1592 C1591 1.340 . S
C1592 C1593 1.439 . S
C1592 H1632 0.950 . S
C1593 C1592 1.439 . S
C1593 N1594 1.374 . S
C1593 C1627 1.395 . S
N1594 C1590 1.376 . S
N1594 C1593 1.374 . S
N1594 Co1595 2.008 . S
Co1595 N1594 2.008 . S
Co1595 N1596 1.995 . S
Co1595 N1601 2.008 . S
Co1595 N1606 1.995 . S
Co1595 N1611 2.282 . S
Co1595 N1617 2.282 . S
N1596 Co1595 1.995 . S
N1596 C1597 1.376 . S
N1596 C1600 1.383 . S
C1597 N1596 1.376 . S
C1597 C1598 1.446 . S
C1597 C1627 1.391 . S
C1598 C1597 1.446 . S
C1598 C1599 1.339 . S
C1598 H1633 0.949 . S
C1599 C1598 1.339 . S
C1599 C1600 1.439 . S
C1599 H1634 0.950 . S
C1600 N1596 1.383 . S
C1600 C1599 1.439 . S
C1600 C1629 1.392 . S
N1601 Co1595 2.008 . S
N1601 C1602 1.376 . S
N1601 C1605 1.374 . S
C1602 N1601 1.376 . S
C1602 C1603 1.443 . S
C1602 C1629 1.389 . S
C1603 C1602 1.443 . S
C1603 C1604 1.340 . S
C1603 H1635 0.951 . S
C1604 C1603 1.340 . S
C1604 C1605 1.439 . S
C1604 H1636 0.950 . S
C1605 N1601 1.374 . S
C1605 C1604 1.439 . S
C1605 C1630 1.395 . S
N1606 Co1595 1.995 . S
N1606 C1607 1.376 . S
N1606 C1610 1.383 . S
C1607 N1606 1.376 . S
C1607 C1608 1.446 . S
C1607 C1630 1.391 . S
C1608 C1607 1.446 . S
C1608 C1609 1.339 . S
C1608 H1637 0.949 . S
C1609 C1608 1.339 . S
C1609 C1610 1.439 . S
C1609 H1638 0.950 . S
C1610 N1606 1.383 . S
C1610 C1609 1.439 . S
C1610 C1628 1.392 . S
N1611 Co1595 2.282 . S
N1611 C1614 1.332 . S
N1611 C1616 1.332 . S
C1612 C1613 1.386 . S
C1612 C1615 1.388 . S
C1613 C1612 1.386 . S
C1613 C1614 1.382 . S
C1613 H1639 0.950 . S
C1614 N1611 1.332 . S
C1614 C1613 1.382 . S
C1614 H1625 0.952 . S
C1615 C1612 1.388 . S
C1615 C1616 1.382 . S
C1615 H1640 0.950 . S
C1616 N1611 1.332 . S
C1616 C1615 1.382 . S
C1616 H1626 0.948 . S
N1617 Co1595 2.282 . S
N1617 C1621 1.332 . S
N1617 C1622 1.332 . S
C1618 C1619 1.388 . S
C1618 C1622 1.382 . S
C1618 H1641 0.950 . S
C1619 C1618 1.388 . S
C1619 C1620 1.386 . S
C1620 C1619 1.386 . S
C1620 C1621 1.382 . S
C1620 H1642 0.950 . S
C1621 N1617 1.332 . S
C1621 C1620 1.382 . S
C1621 H1623 0.952 . S
C1622 N1617 1.332 . S
C1622 C1618 1.382 . S
C1622 H1624 0.948 . S
H1623 C1621 0.952 . S
H1624 C1622 0.948 . S
H1625 C1614 0.952 . S
H1626 C1616 0.948 . S
C1627 C1593 1.395 . S
C1627 C1597 1.391 . S
C1628 C1590 1.389 . S
C1628 C1610 1.392 . S
C1629 C1600 1.392 . S
C1629 C1602 1.389 . S
C1630 C1605 1.395 . S
C1630 C1607 1.391 . S
H1631 C1591 0.951 . S
H1632 C1592 0.950 . S
H1633 C1598 0.949 . S
H1634 C1599 0.950 . S
H1635 C1603 0.951 . S
H1636 C1604 0.950 . S
H1637 C1608 0.949 . S
H1638 C1609 0.950 . S
H1639 C1613 0.950 . S
H1640 C1615 0.950 . S
H1641 C1618 0.950 . S
H1642 C1620 0.950 . S
C1643 C1644 1.443 . S
C1643 N1647 1.376 . S
C1643 C1681 1.389 . S
C1644 C1643 1.443 . S
C1644 C1645 1.340 . S
C1644 H1684 0.951 . S
C1645 C1644 1.340 . S
C1645 C1646 1.439 . S
C1645 H1685 0.950 . S
C1646 C1645 1.439 . S
C1646 N1647 1.374 . S
C1646 C1680 1.395 . S
N1647 C1643 1.376 . S
N1647 C1646 1.374 . S
N1647 Co1648 2.008 . S
Co1648 N1647 2.008 . S
Co1648 N1649 1.995 . S
Co1648 N1654 2.008 . S
Co1648 N1659 1.995 . S
Co1648 N1664 2.282 . S
Co1648 N1670 2.282 . S
N1649 Co1648 1.995 . S
N1649 C1650 1.376 . S
N1649 C1653 1.383 . S
C1650 N1649 1.376 . S
C1650 C1651 1.446 . S
C1650 C1680 1.391 . S
C1651 C1650 1.446 . S
C1651 C1652 1.339 . S
C1651 H1686 0.949 . S
C1652 C1651 1.339 . S
C1652 C1653 1.439 . S
C1652 H1687 0.950 . S
C1653 N1649 1.383 . S
C1653 C1652 1.439 . S
C1653 C1682 1.392 . S
N1654 Co1648 2.008 . S
N1654 C1655 1.376 . S
N1654 C1658 1.374 . S
C1655 N1654 1.376 . S
C1655 C1656 1.443 . S
C1655 C1682 1.389 . S
C1656 C1655 1.443 . S
C1656 C1657 1.340 . S
C1656 H1688 0.951 . S
C1657 C1656 1.340 . S
C1657 C1658 1.439 . S
C1657 H1689 0.950 . S
C1658 N1654 1.374 . S
C1658 C1657 1.439 . S
C1658 C1683 1.395 . S
N1659 Co1648 1.995 . S
N1659 C1660 1.376 . S
N1659 C1663 1.383 . S
C1660 N1659 1.376 . S
C1660 C1661 1.446 . S
C1660 C1683 1.391 . S
C1661 C1660 1.446 . S
C1661 C1662 1.339 . S
C1661 H1690 0.949 . S
C1662 C1661 1.339 . S
C1662 C1663 1.439 . S
C1662 H1691 0.950 . S
C1663 N1659 1.383 . S
C1663 C1662 1.439 . S
C1663 C1681 1.392 . S
N1664 Co1648 2.282 . S
N1664 C1667 1.332 . S
N1664 C1669 1.332 . S
C1665 C1666 1.386 . S
C1665 C1668 1.388 . S
C1666 C1665 1.386 . S
C1666 C1667 1.382 . S
C1666 H1692 0.950 . S
C1667 N1664 1.332 . S
C1667 C1666 1.382 . S
C1667 H1678 0.952 . S
C1668 C1665 1.388 . S
C1668 C1669 1.382 . S
C1668 H1693 0.950 . S
C1669 N1664 1.332 . S
C1669 C1668 1.382 . S
C1669 H1679 0.948 . S
N1670 Co1648 2.282 . S
N1670 C1674 1.332 . S
N1670 C1675 1.332 . S
C1671 C1672 1.388 . S
C1671 C1675 1.382 . S
C1671 H1694 0.950 . S
C1672 C1671 1.388 . S
C1672 C1673 1.386 . S
C1673 C1672 1.386 . S
C1673 C1674 1.382 . S
C1673 H1695 0.950 1_565 S
C1674 N1670 1.332 . S
C1674 C1673 1.382 . S
C1674 H1676 0.952 . S
C1675 N1670 1.332 . S
C1675 C1671 1.382 . S
C1675 H1677 0.948 . S
H1676 C1674 0.952 . S
H1677 C1675 0.948 . S
H1678 C1667 0.952 . S
H1679 C1669 0.948 . S
C1680 C1646 1.395 . S
C1680 C1650 1.391 . S
C1681 C1643 1.389 . S
C1681 C1663 1.392 . S
C1682 C1653 1.392 . S
C1682 C1655 1.389 . S
C1683 C1658 1.395 . S
C1683 C1660 1.391 . S
H1684 C1644 0.951 . S
H1685 C1645 0.950 . S
H1686 C1651 0.949 . S
H1687 C1652 0.950 . S
H1688 C1656 0.951 . S
H1689 C1657 0.950 . S
H1690 C1661 0.949 . S
H1691 C1662 0.950 . S
H1692 C1666 0.950 . S
H1693 C1668 0.950 . S
H1694 C1671 0.950 . S
H1695 C1673 0.950 1_545 S
C1696 C1697 1.443 . S
C1696 N1700 1.376 . S
C1696 C1734 1.389 . S
C1697 C1696 1.443 . S
C1697 C1698 1.340 . S
C1697 H1737 0.951 . S
C1698 C1697 1.340 . S
C1698 C1699 1.439 . S
C1698 H1738 0.950 1_455 S
C1699 C1698 1.439 . S
C1699 N1700 1.374 . S
C1699 C1733 1.395 . S
N1700 C1696 1.376 . S
N1700 C1699 1.374 . S
N1700 Co1701 2.008 . S
Co1701 N1700 2.008 . S
Co1701 N1702 1.995 . S
Co1701 N1707 2.008 . S
Co1701 N1712 1.995 . S
Co1701 N1717 2.282 . S
Co1701 N1723 2.282 . S
N1702 Co1701 1.995 . S
N1702 C1703 1.376 . S
N1702 C1706 1.383 . S
C1703 N1702 1.376 . S
C1703 C1704 1.446 . S
C1703 C1733 1.391 . S
C1704 C1703 1.446 . S
C1704 C1705 1.339 . S
C1704 H1739 0.949 . S
C1705 C1704 1.339 . S
C1705 C1706 1.439 . S
C1705 H1740 0.950 . S
C1706 N1702 1.383 . S
C1706 C1705 1.439 . S
C1706 C1735 1.392 . S
N1707 Co1701 2.008 . S
N1707 C1708 1.376 . S
N1707 C1711 1.374 . S
C1708 N1707 1.376 . S
C1708 C1709 1.443 . S
C1708 C1735 1.389 . S
C1709 C1708 1.443 . S
C1709 C1710 1.340 . S
C1709 H1741 0.951 . S
C1710 C1709 1.340 . S
C1710 C1711 1.439 . S
C1710 H1742 0.950 . S
C1711 N1707 1.374 . S
C1711 C1710 1.439 . S
C1711 C1736 1.395 . S
N1712 Co1701 1.995 . S
N1712 C1713 1.376 . S
N1712 C1716 1.383 . S
C1713 N1712 1.376 . S
C1713 C1714 1.446 . S
C1713 C1736 1.391 . S
C1714 C1713 1.446 . S
C1714 C1715 1.339 . S
C1714 H1743 0.949 . S
C1715 C1714 1.339 . S
C1715 C1716 1.439 . S
C1715 H1744 0.950 . S
C1716 N1712 1.383 . S
C1716 C1715 1.439 . S
C1716 C1734 1.392 . S
N1717 Co1701 2.282 . S
N1717 C1720 1.332 . S
N1717 C1722 1.332 . S
C1718 C1719 1.386 . S
C1718 C1721 1.388 . S
C1719 C1718 1.386 . S
C1719 C1720 1.382 . S
C1719 H1745 0.950 . S
C1720 N1717 1.332 . S
C1720 C1719 1.382 . S
C1720 H1731 0.952 . S
C1721 C1718 1.388 . S
C1721 C1722 1.382 . S
C1721 H1746 0.950 . S
C1722 N1717 1.332 . S
C1722 C1721 1.382 . S
C1722 H1732 0.948 . S
N1723 Co1701 2.282 . S
N1723 C1727 1.332 . S
N1723 C1728 1.332 . S
C1724 C1725 1.388 . S
C1724 C1728 1.382 . S
C1724 H1747 0.950 . S
C1725 C1724 1.388 . S
C1725 C1726 1.386 . S
C1726 C1725 1.386 . S
C1726 C1727 1.382 . S
C1726 H1748 0.950 1_455 S
C1727 N1723 1.332 . S
C1727 C1726 1.382 . S
C1727 H1729 0.952 . S
C1728 N1723 1.332 . S
C1728 C1724 1.382 . S
C1728 H1730 0.948 . S
H1729 C1727 0.952 . S
H1730 C1728 0.948 . S
H1731 C1720 0.952 . S
H1732 C1722 0.948 . S
C1733 C1699 1.395 . S
C1733 C1703 1.391 . S
C1734 C1696 1.389 . S
C1734 C1716 1.392 . S
C1735 C1706 1.392 . S
C1735 C1708 1.389 . S
C1736 C1711 1.395 . S
C1736 C1713 1.391 . S
H1737 C1697 0.951 . S
H1738 C1698 0.950 1_655 S
H1739 C1704 0.949 . S
H1740 C1705 0.950 . S
H1741 C1709 0.951 . S
H1742 C1710 0.950 . S
H1743 C1714 0.949 . S
H1744 C1715 0.950 . S
H1745 C1719 0.950 . S
H1746 C1721 0.950 . S
H1747 C1724 0.950 . S
H1748 C1726 0.950 1_655 S
C1749 C1750 1.443 . S
C1749 N1753 1.376 . S
C1749 C1787 1.389 . S
C1750 C1749 1.443 . S
C1750 C1751 1.340 . S
C1750 H1790 0.951 . S
C1751 C1750 1.340 . S
C1751 C1752 1.439 . S
C1751 H1791 0.950 . S
C1752 C1751 1.439 . S
C1752 N1753 1.374 . S
C1752 C1786 1.395 . S
N1753 C1749 1.376 . S
N1753 C1752 1.374 . S
N1753 Co1754 2.008 . S
Co1754 N1753 2.008 . S
Co1754 N1755 1.995 . S
Co1754 N1760 2.008 . S
Co1754 N1765 1.995 . S
Co1754 N1770 2.282 . S
Co1754 N1776 2.282 . S
N1755 Co1754 1.995 . S
N1755 C1756 1.376 . S
N1755 C1759 1.383 . S
C1756 N1755 1.376 . S
C1756 C1757 1.446 . S
C1756 C1786 1.391 . S
C1757 C1756 1.446 . S
C1757 C1758 1.339 . S
C1757 H1792 0.949 . S
C1758 C1757 1.339 . S
C1758 C1759 1.439 . S
C1758 H1793 0.950 . S
C1759 N1755 1.383 . S
C1759 C1758 1.439 . S
C1759 C1788 1.392 . S
N1760 Co1754 2.008 . S
N1760 C1761 1.376 . S
N1760 C1764 1.374 . S
C1761 N1760 1.376 . S
C1761 C1762 1.443 . S
C1761 C1788 1.389 . S
C1762 C1761 1.443 . S
C1762 C1763 1.340 . S
C1762 H1794 0.951 . S
C1763 C1762 1.340 . S
C1763 C1764 1.439 . S
C1763 H1795 0.950 . S
C1764 N1760 1.374 . S
C1764 C1763 1.439 . S
C1764 C1789 1.395 . S
N1765 Co1754 1.995 . S
N1765 C1766 1.376 . S
N1765 C1769 1.383 . S
C1766 N1765 1.376 . S
C1766 C1767 1.446 . S
C1766 C1789 1.391 . S
C1767 C1766 1.446 . S
C1767 C1768 1.339 . S
C1767 H1796 0.949 . S
C1768 C1767 1.339 . S
C1768 C1769 1.439 . S
C1768 H1797 0.950 . S
C1769 N1765 1.383 . S
C1769 C1768 1.439 . S
C1769 C1787 1.392 . S
N1770 Co1754 2.282 . S
N1770 C1773 1.332 . S
N1770 C1775 1.332 . S
C1771 C1772 1.386 . S
C1771 C1774 1.388 . S
C1772 C1771 1.386 . S
C1772 C1773 1.382 . S
C1772 H1798 0.950 . S
C1773 N1770 1.332 . S
C1773 C1772 1.382 . S
C1773 H1784 0.952 . S
C1774 C1771 1.388 . S
C1774 C1775 1.382 . S
C1774 H1799 0.950 . S
C1775 N1770 1.332 . S
C1775 C1774 1.382 . S
C1775 H1785 0.948 . S
N1776 Co1754 2.282 . S
N1776 C1780 1.332 . S
N1776 C1781 1.332 . S
C1777 C1778 1.388 . S
C1777 C1781 1.382 . S
C1777 H1800 0.950 . S
C1778 C1777 1.388 . S
C1778 C1779 1.386 . S
C1779 C1778 1.386 . S
C1779 C1780 1.382 . S
C1779 H1801 0.950 . S
C1780 N1776 1.332 . S
C1780 C1779 1.382 . S
C1780 H1782 0.952 . S
C1781 N1776 1.332 . S
C1781 C1777 1.382 . S
C1781 H1783 0.948 . S
H1782 C1780 0.952 . S
H1783 C1781 0.948 . S
H1784 C1773 0.952 . S
H1785 C1775 0.948 . S
C1786 C1752 1.395 . S
C1786 C1756 1.391 . S
C1787 C1749 1.389 . S
C1787 C1769 1.392 . S
C1788 C1759 1.392 . S
C1788 C1761 1.389 . S
C1789 C1764 1.395 . S
C1789 C1766 1.391 . S
H1790 C1750 0.951 . S
H1791 C1751 0.950 . S
H1792 C1757 0.949 . S
H1793 C1758 0.950 . S
H1794 C1762 0.951 . S
H1795 C1763 0.950 . S
H1796 C1767 0.949 . S
H1797 C1768 0.950 . S
H1798 C1772 0.950 . S
H1799 C1774 0.950 . S
H1800 C1777 0.950 . S
H1801 C1779 0.950 . S
C1802 C1803 1.443 . S
C1802 N1806 1.376 . S
C1802 C1840 1.389 . S
C1803 C1802 1.443 . S
C1803 C1804 1.340 . S
C1803 H1843 0.951 . S
C1804 C1803 1.340 . S
C1804 C1805 1.439 . S
C1804 H1844 0.950 . S
C1805 C1804 1.439 . S
C1805 N1806 1.374 . S
C1805 C1839 1.395 . S
N1806 C1802 1.376 . S
N1806 C1805 1.374 . S
N1806 Co1807 2.008 . S
Co1807 N1806 2.008 . S
Co1807 N1808 1.995 . S
Co1807 N1813 2.008 . S
Co1807 N1818 1.995 . S
Co1807 N1823 2.282 . S
Co1807 N1829 2.282 . S
N1808 Co1807 1.995 . S
N1808 C1809 1.376 . S
N1808 C1812 1.383 . S
C1809 N1808 1.376 . S
C1809 C1810 1.446 . S
C1809 C1839 1.391 . S
C1810 C1809 1.446 . S
C1810 C1811 1.339 . S
C1810 H1845 0.949 . S
C1811 C1810 1.339 . S
C1811 C1812 1.439 . S
C1811 H1846 0.950 . S
C1812 N1808 1.383 . S
C1812 C1811 1.439 . S
C1812 C1841 1.392 . S
N1813 Co1807 2.008 . S
N1813 C1814 1.376 . S
N1813 C1817 1.374 . S
C1814 N1813 1.376 . S
C1814 C1815 1.443 . S
C1814 C1841 1.389 . S
C1815 C1814 1.443 . S
C1815 C1816 1.340 . S
C1815 H1847 0.951 . S
C1816 C1815 1.340 . S
C1816 C1817 1.439 . S
C1816 H1848 0.950 . S
C1817 N1813 1.374 . S
C1817 C1816 1.439 . S
C1817 C1842 1.395 . S
N1818 Co1807 1.995 . S
N1818 C1819 1.376 . S
N1818 C1822 1.383 . S
C1819 N1818 1.376 . S
C1819 C1820 1.446 . S
C1819 C1842 1.391 . S
C1820 C1819 1.446 . S
C1820 C1821 1.339 . S
C1820 H1849 0.949 . S
C1821 C1820 1.339 . S
C1821 C1822 1.439 . S
C1821 H1850 0.950 . S
C1822 N1818 1.383 . S
C1822 C1821 1.439 . S
C1822 C1840 1.392 . S
N1823 Co1807 2.282 . S
N1823 C1826 1.332 . S
N1823 C1828 1.332 . S
C1824 C1825 1.386 . S
C1824 C1827 1.388 . S
C1825 C1824 1.386 . S
C1825 C1826 1.382 . S
C1825 H1851 0.950 . S
C1826 N1823 1.332 . S
C1826 C1825 1.382 . S
C1826 H1837 0.952 . S
C1827 C1824 1.388 . S
C1827 C1828 1.382 . S
C1827 H1852 0.950 . S
C1828 N1823 1.332 . S
C1828 C1827 1.382 . S
C1828 H1838 0.948 . S
N1829 Co1807 2.282 . S
N1829 C1833 1.332 . S
N1829 C1834 1.332 . S
C1830 C1831 1.388 . S
C1830 C1834 1.382 . S
C1830 H1853 0.950 . S
C1831 C1830 1.388 . S
C1831 C1832 1.386 . S
C1832 C1831 1.386 . S
C1832 C1833 1.382 . S
C1832 H1854 0.950 . S
C1833 N1829 1.332 . S
C1833 C1832 1.382 . S
C1833 H1835 0.952 . S
C1834 N1829 1.332 . S
C1834 C1830 1.382 . S
C1834 H1836 0.948 . S
H1835 C1833 0.952 . S
H1836 C1834 0.948 . S
H1837 C1826 0.952 . S
H1838 C1828 0.948 . S
C1839 C1805 1.395 . S
C1839 C1809 1.391 . S
C1840 C1802 1.389 . S
C1840 C1822 1.392 . S
C1841 C1812 1.392 . S
C1841 C1814 1.389 . S
C1842 C1817 1.395 . S
C1842 C1819 1.391 . S
H1843 C1803 0.951 . S
H1844 C1804 0.950 . S
H1845 C1810 0.949 . S
H1846 C1811 0.950 . S
H1847 C1815 0.951 . S
H1848 C1816 0.950 . S
H1849 C1820 0.949 . S
H1850 C1821 0.950 . S
H1851 C1825 0.950 . S
H1852 C1827 0.950 . S
H1853 C1830 0.950 . S
H1854 C1832 0.950 . S
C1855 C1856 1.443 . S
C1855 N1859 1.376 . S
C1855 C1893 1.389 . S
C1856 C1855 1.443 . S
C1856 C1857 1.340 . S
C1856 H1896 0.951 . S
C1857 C1856 1.340 . S
C1857 C1858 1.439 . S
C1857 H1897 0.950 . S
C1858 C1857 1.439 . S
C1858 N1859 1.374 . S
C1858 C1892 1.395 . S
N1859 C1855 1.376 . S
N1859 C1858 1.374 . S
N1859 Co1860 2.008 . S
Co1860 N1859 2.008 . S
Co1860 N1861 1.995 . S
Co1860 N1866 2.008 . S
Co1860 N1871 1.995 . S
Co1860 N1876 2.282 . S
Co1860 N1882 2.282 . S
N1861 Co1860 1.995 . S
N1861 C1862 1.376 . S
N1861 C1865 1.383 . S
C1862 N1861 1.376 . S
C1862 C1863 1.446 . S
C1862 C1892 1.391 . S
C1863 C1862 1.446 . S
C1863 C1864 1.339 . S
C1863 H1898 0.949 . S
C1864 C1863 1.339 . S
C1864 C1865 1.439 . S
C1864 H1899 0.950 . S
C1865 N1861 1.383 . S
C1865 C1864 1.439 . S
C1865 C1894 1.392 . S
N1866 Co1860 2.008 . S
N1866 C1867 1.376 . S
N1866 C1870 1.374 . S
C1867 N1866 1.376 . S
C1867 C1868 1.443 . S
C1867 C1894 1.389 . S
C1868 C1867 1.443 . S
C1868 C1869 1.340 . S
C1868 H1900 0.951 . S
C1869 C1868 1.340 . S
C1869 C1870 1.439 . S
C1869 H1901 0.950 . S
C1870 N1866 1.374 . S
C1870 C1869 1.439 . S
C1870 C1895 1.395 . S
N1871 Co1860 1.995 . S
N1871 C1872 1.376 . S
N1871 C1875 1.383 . S
C1872 N1871 1.376 . S
C1872 C1873 1.446 . S
C1872 C1895 1.391 . S
C1873 C1872 1.446 . S
C1873 C1874 1.339 . S
C1873 H1902 0.949 . S
C1874 C1873 1.339 . S
C1874 C1875 1.439 . S
C1874 H1903 0.950 . S
C1875 N1871 1.383 . S
C1875 C1874 1.439 . S
C1875 C1893 1.392 . S
N1876 Co1860 2.282 . S
N1876 C1879 1.332 . S
N1876 C1881 1.332 . S
C1877 C1878 1.386 . S
C1877 C1880 1.388 . S
C1878 C1877 1.386 . S
C1878 C1879 1.382 . S
C1878 H1904 0.950 . S
C1879 N1876 1.332 . S
C1879 C1878 1.382 . S
C1879 H1890 0.952 . S
C1880 C1877 1.388 . S
C1880 C1881 1.382 . S
C1880 H1905 0.950 . S
C1881 N1876 1.332 . S
C1881 C1880 1.382 . S
C1881 H1891 0.948 . S
N1882 Co1860 2.282 . S
N1882 C1886 1.332 . S
N1882 C1887 1.332 . S
C1883 C1884 1.388 . S
C1883 C1887 1.382 . S
C1883 H1906 0.950 . S
C1884 C1883 1.388 . S
C1884 C1885 1.386 . S
C1885 C1884 1.386 . S
C1885 C1886 1.382 . S
C1885 H1907 0.950 . S
C1886 N1882 1.332 . S
C1886 C1885 1.382 . S
C1886 H1888 0.952 . S
C1887 N1882 1.332 . S
C1887 C1883 1.382 . S
C1887 H1889 0.948 . S
H1888 C1886 0.952 . S
H1889 C1887 0.948 . S
H1890 C1879 0.952 . S
H1891 C1881 0.948 . S
C1892 C1858 1.395 . S
C1892 C1862 1.391 . S
C1893 C1855 1.389 . S
C1893 C1875 1.392 . S
C1894 C1865 1.392 . S
C1894 C1867 1.389 . S
C1895 C1870 1.395 . S
C1895 C1872 1.391 . S
H1896 C1856 0.951 . S
H1897 C1857 0.950 . S
H1898 C1863 0.949 . S
H1899 C1864 0.950 . S
H1900 C1868 0.951 . S
H1901 C1869 0.950 . S
H1902 C1873 0.949 . S
H1903 C1874 0.950 . S
H1904 C1878 0.950 . S
H1905 C1880 0.950 . S
H1906 C1883 0.950 . S
H1907 C1885 0.950 . S
H1908 C1916 0.950 . S
H1909 C1921 0.950 . S
H1910 C1918 0.950 . S
H1911 C1920 0.950 . S
H1912 C1922 0.950 . S
H1913 C1924 0.950 . S
H1914 C1926 0.950 . S
H1915 C1927 0.950 . S
C1916 H1908 0.950 . S
C1916 C1917 1.386 1_554 S
C1916 C1918 1.391 . S
C1917 C1916 1.386 1_556 S
C1917 C1921 1.393 . S
C1918 H1910 0.950 . S
C1918 C1916 1.391 . S
C1918 C1919 1.400 1_554 S
C1919 C1918 1.400 1_556 S
C1919 C1920 1.398 . S
C1919 C1925 1.491 1_656 S
C1920 H1911 0.950 . S
C1920 C1919 1.398 . S
C1920 C1921 1.391 . S
C1921 H1909 0.950 . S
C1921 C1917 1.393 . S
C1921 C1920 1.391 . S
C1922 H1912 0.950 . S
C1922 C1923 1.386 1_556 S
C1922 C1924 1.391 . S
C1923 C1922 1.386 1_554 S
C1923 C1927 1.393 . S
C1924 H1913 0.950 . S
C1924 C1922 1.391 . S
C1924 C1925 1.400 1_556 S
C1925 C1919 1.491 1_454 S
C1925 C1924 1.400 1_554 S
C1925 C1926 1.398 . S
C1926 H1914 0.950 . S
C1926 C1925 1.398 . S
C1926 C1927 1.391 . S
C1927 H1915 0.950 . S
C1927 C1923 1.393 . S
C1927 C1926 1.391 . S
H1928 C1936 0.950 . S
H1929 C1941 0.950 . S
H1930 C1938 0.950 . S
H1931 C1940 0.950 . S
H1932 C1942 0.950 . S
H1933 C1944 0.950 . S
H1934 C1946 0.950 . S
H1935 C1947 0.950 . S
C1936 H1928 0.950 . S
C1936 C1937 1.386 . S
C1936 C1938 1.391 . S
C1937 C1936 1.386 . S
C1937 C1941 1.393 1_556 S
C1938 H1930 0.950 . S
C1938 C1936 1.391 . S
C1938 C1939 1.400 . S
C1939 C1938 1.400 . S
C1939 C1940 1.398 1_556 S
C1939 C1945 1.491 1_556 S
C1940 H1931 0.950 . S
C1940 C1939 1.398 1_554 S
C1940 C1941 1.391 . S
C1941 H1929 0.950 . S
C1941 C1937 1.393 1_554 S
C1941 C1940 1.391 . S
C1942 H1932 0.950 . S
C1942 C1943 1.386 . S
C1942 C1944 1.391 . S
C1943 C1942 1.386 . S
C1943 C1947 1.393 1_554 S
C1944 H1933 0.950 . S
C1944 C1942 1.391 . S
C1944 C1945 1.400 . S
C1945 C1939 1.491 1_554 S
C1945 C1944 1.400 . S
C1945 C1946 1.398 1_554 S
C1946 H1934 0.950 . S
C1946 C1945 1.398 1_556 S
C1946 C1947 1.391 . S
C1947 H1935 0.950 . S
C1947 C1943 1.393 1_556 S
C1947 C1946 1.391 . S
H1948 C1956 0.950 . S
H1949 C1961 0.950 . S
H1950 C1958 0.950 . S
H1951 C1960 0.948 1_554 S
H1952 C1962 0.950 . S
H1953 C1964 0.950 . S
H1954 C1966 0.949 1_556 S
H1955 C1967 0.950 . S
C1956 H1948 0.950 . S
C1956 C1957 1.386 . S
C1956 C1958 1.391 . S
C1957 C1956 1.386 . S
C1957 C1961 1.393 . S
C1958 H1950 0.950 . S
C1958 C1956 1.391 . S
C1958 C1959 1.400 . S
C1959 C1958 1.400 . S
C1959 C1960 1.399 . S
C1959 C1965 1.491 1_546 S
C1960 H1951 0.948 1_556 S
C1960 C1959 1.399 . S
C1960 C1961 1.392 . S
C1961 H1949 0.950 . S
C1961 C1957 1.393 . S
C1961 C1960 1.392 . S
C1962 H1952 0.950 . S
C1962 C1963 1.386 . S
C1962 C1964 1.391 . S
C1963 C1962 1.386 . S
C1963 C1967 1.393 . S
C1964 H1953 0.950 . S
C1964 C1962 1.391 . S
C1964 C1965 1.400 . S
C1965 C1959 1.491 1_564 S
C1965 C1964 1.400 . S
C1965 C1966 1.399 . S
C1966 H1954 0.949 1_554 S
C1966 C1965 1.399 . S
C1966 C1967 1.391 . S
C1967 H1955 0.950 . S
C1967 C1963 1.393 . S
C1967 C1966 1.391 . S
H1968 C1976 0.950 . S
H1969 C1981 0.950 . S
H1970 C1978 0.950 1_655 S
H1971 C1980 0.950 . S
H1972 C1982 0.950 . S
H1973 C1984 0.950 . S
H1974 C1986 0.950 . S
H1975 C1987 0.950 . S
C1976 H1968 0.950 . S
C1976 C1977 1.386 . S
C1976 C1978 1.391 . S
C1977 C1976 1.386 . S
C1977 C1981 1.393 1_554 S
C1978 H1970 0.950 1_455 S
C1978 C1976 1.391 . S
C1978 C1979 1.400 1_455 S
C1979 C1978 1.400 1_655 S
C1979 C1980 1.398 1_654 S
C1979 C1985 1.488 1_554 S
C1980 H1971 0.950 . S
C1980 C1979 1.398 1_456 S
C1980 C1981 1.391 . S
C1981 H1969 0.950 . S
C1981 C1977 1.393 1_556 S
C1981 C1980 1.391 . S
C1982 H1972 0.950 . S
C1982 C1983 1.386 . S
C1982 C1984 1.391 . S
C1983 C1982 1.386 . S
C1983 C1987 1.393 1_556 S
C1984 H1973 0.950 . S
C1984 C1982 1.391 . S
C1984 C1985 1.411 . S
C1985 C1979 1.488 1_556 S
C1985 C1984 1.411 . S
C1985 C1986 1.390 1_556 S
C1986 H1974 0.950 . S
C1986 C1985 1.390 1_554 S
C1986 C1987 1.391 . S
C1987 H1975 0.950 . S
C1987 C1983 1.393 1_554 S
C1987 C1986 1.391 . S
H1988 C1996 0.950 . S
H1989 C2001 0.950 . S
H1990 C1998 0.950 . S
H1991 C2000 0.950 . S
H1992 C2002 0.950 . S
H1993 C2004 0.950 . S
H1994 C2006 0.950 . S
H1995 C2007 0.950 . S
C1996 H1988 0.950 . S
C1996 C1997 1.386 . S
C1996 C1998 1.391 . S
C1997 C1996 1.386 . S
C1997 C2001 1.393 1_556 S
C1998 H1990 0.950 . S
C1998 C1996 1.391 . S
C1998 C1999 1.400 . S
C1999 C1998 1.400 . S
C1999 C2000 1.398 1_556 S
C1999 C2005 1.491 . S
C2000 H1991 0.950 . S
C2000 C1999 1.398 1_554 S
C2000 C2001 1.391 . S
C2001 H1989 0.950 . S
C2001 C1997 1.393 1_554 S
C2001 C2000 1.391 . S
C2002 H1992 0.950 . S
C2002 C2003 1.386 . S
C2002 C2004 1.391 . S
C2003 C2002 1.386 . S
C2003 C2007 1.393 1_554 S
C2004 H1993 0.950 . S
C2004 C2002 1.391 . S
C2004 C2005 1.398 1_554 S
C2005 C1999 1.491 . S
C2005 C2004 1.398 1_556 S
C2005 C2006 1.400 . S
C2006 H1994 0.950 . S
C2006 C2005 1.400 . S
C2006 C2007 1.391 . S
C2007 H1995 0.950 . S
C2007 C2003 1.393 1_556 S
C2007 C2006 1.391 . S
H2008 C2016 0.950 . S
H2009 C2021 0.950 . S
H2010 C2018 0.950 . S
H2011 C2020 0.950 . S
H2012 C2022 0.950 . S
H2013 C2024 0.950 . S
H2014 C2026 0.950 . S
H2015 C2027 0.950 . S
C2016 H2008 0.950 . S
C2016 C2017 1.386 . S
C2016 C2018 1.391 . S
C2017 C2016 1.386 . S
C2017 C2021 1.393 1_554 S
C2018 H2010 0.950 . S
C2018 C2016 1.391 . S
C2018 C2019 1.400 . S
C2019 C2018 1.400 . S
C2019 C2020 1.398 1_554 S
C2019 C2025 1.491 1_564 S
C2020 H2011 0.950 . S
C2020 C2019 1.398 1_556 S
C2020 C2021 1.391 . S
C2021 H2009 0.950 . S
C2021 C2017 1.393 1_556 S
C2021 C2020 1.391 . S
C2022 H2012 0.950 . S
C2022 C2023 1.386 . S
C2022 C2024 1.391 . S
C2023 C2022 1.386 . S
C2023 C2027 1.393 1_556 S
C2024 H2013 0.950 . S
C2024 C2022 1.391 . S
C2024 C2025 1.400 . S
C2025 C2019 1.491 1_546 S
C2025 C2024 1.400 . S
C2025 C2026 1.398 1_556 S
C2026 H2014 0.950 . S
C2026 C2025 1.398 1_554 S
C2026 C2027 1.391 . S
C2027 H2015 0.950 . S
C2027 C2023 1.393 1_554 S
C2027 C2026 1.391 . S
H2028 C2036 0.950 . S
H2029 C2041 0.950 . S
H2030 C2038 0.950 . S
H2031 C2040 0.950 . S
H2032 C2042 0.950 . S
H2033 C2044 0.950 . S
H2034 C2046 0.950 . S
H2035 C2047 0.950 . S
C2036 H2028 0.950 . S
C2036 C2037 1.386 . S
C2036 C2038 1.391 . S
C2037 C2036 1.386 . S
C2037 C2041 1.393 . S
C2038 H2030 0.950 . S
C2038 C2036 1.391 . S
C2038 C2039 1.400 . S
C2039 C2038 1.400 . S
C2039 C2040 1.398 . S
C2039 C2045 1.491 . S
C2040 H2031 0.950 . S
C2040 C2039 1.398 . S
C2040 C2041 1.391 . S
C2041 H2029 0.950 . S
C2041 C2037 1.393 . S
C2041 C2040 1.391 . S
C2042 H2032 0.950 . S
C2042 C2043 1.386 . S
C2042 C2044 1.391 . S
C2043 C2042 1.386 . S
C2043 C2047 1.393 . S
C2044 H2033 0.950 . S
C2044 C2042 1.391 . S
C2044 C2045 1.400 . S
C2045 C2039 1.491 . S
C2045 C2044 1.400 . S
C2045 C2046 1.398 . S
C2046 H2034 0.950 . S
C2046 C2045 1.398 . S
C2046 C2047 1.391 . S
C2047 H2035 0.950 . S
C2047 C2043 1.393 . S
C2047 C2046 1.391 . S
H2048 C2056 0.950 . S
H2049 C2061 0.950 . S
H2050 C2058 0.950 . S
H2051 C2060 0.950 . S
H2052 C2062 0.950 1_545 S
H2053 C2064 0.950 . S
H2054 C2066 0.950 . S
H2055 C2067 0.950 . S
C2056 H2048 0.950 . S
C2056 C2057 1.386 . S
C2056 C2058 1.391 . S
C2057 C2056 1.386 . S
C2057 C2061 1.393 . S
C2058 H2050 0.950 . S
C2058 C2056 1.391 . S
C2058 C2059 1.400 . S
C2059 C2058 1.400 . S
C2059 C2060 1.398 . S
C2059 C2065 1.491 . S
C2060 H2051 0.950 . S
C2060 C2059 1.398 . S
C2060 C2061 1.391 . S
C2061 H2049 0.950 . S
C2061 C2057 1.393 . S
C2061 C2060 1.391 . S
C2062 H2052 0.950 1_565 S
C2062 C2063 1.386 . S
C2062 C2064 1.391 . S
C2063 C2062 1.386 . S
C2063 C2067 1.393 . S
C2064 H2053 0.950 . S
C2064 C2062 1.391 . S
C2064 C2065 1.400 . S
C2065 C2059 1.491 . S
C2065 C2064 1.400 . S
C2065 C2066 1.398 . S
C2066 H2054 0.950 . S
C2066 C2065 1.398 . S
C2066 C2067 1.391 . S
C2067 H2055 0.950 . S
C2067 C2063 1.393 . S
C2067 C2066 1.391 . S
H2068 C2076 0.950 . S
H2069 C2081 0.950 . S
H2070 C2078 0.950 1_655 S
H2071 C2080 0.950 . S
H2072 C2082 0.950 . S
H2073 C2084 0.950 . S
H2074 C2086 0.950 . S
H2075 C2087 0.950 . S
C2076 H2068 0.950 . S
C2076 C2077 1.351 1_655 S
C2076 C2078 1.391 1_655 S
C2077 C2076 1.351 1_455 S
C2077 C2081 1.428 . S
C2078 H2070 0.950 1_455 S
C2078 C2076 1.391 1_455 S
C2078 C2079 1.400 . S
C2079 C2078 1.400 . S
C2079 C2080 1.398 . S
C2079 C2085 1.491 . S
C2080 H2071 0.950 . S
C2080 C2079 1.398 . S
C2080 C2081 1.391 . S
C2081 H2069 0.950 . S
C2081 C2077 1.428 . S
C2081 C2080 1.391 . S
C2082 H2072 0.950 . S
C2082 C2083 1.386 . S
C2082 C2084 1.391 . S
C2083 C2082 1.386 . S
C2083 C2087 1.393 . S
C2084 H2073 0.950 . S
C2084 C2082 1.391 . S
C2084 C2085 1.400 . S
C2085 C2079 1.491 . S
C2085 C2084 1.400 . S
C2085 C2086 1.398 . S
C2086 H2074 0.950 . S
C2086 C2085 1.398 . S
C2086 C2087 1.391 . S
C2087 H2075 0.950 . S
C2087 C2083 1.393 . S
C2087 C2086 1.391 . S
H2088 C2096 0.950 . S
H2089 C2101 0.950 . S
H2090 C2098 0.950 . S
H2091 C2100 0.950 . S
H2092 C2102 0.950 . S
H2093 C2104 0.950 . S
H2094 C2106 0.950 . S
H2095 C2107 0.950 . S
C2096 H2088 0.950 . S
C2096 C2097 1.386 . S
C2096 C2098 1.391 . S
C2097 C2096 1.386 . S
C2097 C2101 1.393 . S
C2098 H2090 0.950 . S
C2098 C2096 1.391 . S
C2098 C2099 1.400 . S
C2099 C2098 1.400 . S
C2099 C2100 1.398 . S
C2099 C2105 1.491 . S
C2100 H2091 0.950 . S
C2100 C2099 1.398 . S
C2100 C2101 1.391 . S
C2101 H2089 0.950 . S
C2101 C2097 1.393 . S
C2101 C2100 1.391 . S
C2102 H2092 0.950 . S
C2102 C2103 1.386 . S
C2102 C2104 1.391 . S
C2103 C2102 1.386 . S
C2103 C2107 1.393 . S
C2104 H2093 0.950 . S
C2104 C2102 1.391 . S
C2104 C2105 1.400 . S
C2105 C2099 1.491 . S
C2105 C2104 1.400 . S
C2105 C2106 1.398 . S
C2106 H2094 0.950 . S
C2106 C2105 1.398 . S
C2106 C2107 1.391 . S
C2107 H2095 0.950 . S
C2107 C2103 1.393 . S
C2107 C2106 1.391 . S
H2108 C2116 0.947 1_655 S
H2109 C2121 0.950 . S
H2110 C2118 0.950 . S
H2111 C2120 0.950 . S
H2112 C2122 0.950 . S
H2113 C2124 0.950 . S
H2114 C2126 0.950 . S
H2115 C2127 0.950 . S
C2116 H2108 0.947 1_455 S
C2116 C2117 1.383 1_455 S
C2116 C2118 1.396 . S
C2117 C2116 1.383 1_655 S
C2117 C2121 1.393 . S
C2118 H2110 0.950 . S
C2118 C2116 1.396 . S
C2118 C2119 1.400 . S
C2119 C2118 1.400 . S
C2119 C2120 1.398 . S
C2119 C2125 1.491 . S
C2120 H2111 0.950 . S
C2120 C2119 1.398 . S
C2120 C2121 1.391 1_455 S
C2121 H2109 0.950 . S
C2121 C2117 1.393 . S
C2121 C2120 1.391 1_655 S
C2122 H2112 0.950 . S
C2122 C2123 1.386 . S
C2122 C2124 1.391 . S
C2123 C2122 1.386 . S
C2123 C2127 1.393 . S
C2124 H2113 0.950 . S
C2124 C2122 1.391 . S
C2124 C2125 1.400 . S
C2125 C2119 1.491 . S
C2125 C2124 1.400 . S
C2125 C2126 1.398 . S
C2126 H2114 0.950 . S
C2126 C2125 1.398 . S
C2126 C2127 1.391 . S
C2127 H2115 0.950 . S
C2127 C2123 1.393 . S
C2127 C2126 1.391 . S
H2128 C2136 0.950 . S
H2129 C2141 0.950 . S
H2130 C2138 0.950 . S
H2131 C2140 0.950 . S
H2132 C2142 0.950 . S
H2133 C2144 0.950 . S
H2134 C2146 0.950 . S
H2135 C2147 0.950 . S
C2136 H2128 0.950 . S
C2136 C2137 1.386 . S
C2136 C2138 1.391 . S
C2137 C2136 1.386 . S
C2137 C2141 1.393 . S
C2138 H2130 0.950 . S
C2138 C2136 1.391 . S
C2138 C2139 1.400 . S
C2139 C2138 1.400 . S
C2139 C2140 1.398 . S
C2139 C2145 1.491 . S
C2140 H2131 0.950 . S
C2140 C2139 1.398 . S
C2140 C2141 1.391 . S
C2141 H2129 0.950 . S
C2141 C2137 1.393 . S
C2141 C2140 1.391 . S
C2142 H2132 0.950 . S
C2142 C2143 1.386 . S
C2142 C2144 1.391 . S
C2143 C2142 1.386 . S
C2143 C2147 1.393 . S
C2144 H2133 0.950 . S
C2144 C2142 1.391 . S
C2144 C2145 1.400 . S
C2145 C2139 1.491 . S
C2145 C2144 1.400 . S
C2145 C2146 1.398 . S
C2146 H2134 0.950 . S
C2146 C2145 1.398 . S
C2146 C2147 1.391 . S
C2147 H2135 0.950 . S
C2147 C2143 1.393 . S
C2147 C2146 1.391 . S
H2148 C2156 0.950 . S
H2149 C2161 0.950 . S
H2150 C2158 0.950 . S
H2151 C2160 1.010 . S
H2152 C2162 0.950 . S
H2153 C2164 0.950 . S
H2154 C2166 0.950 . S
H2155 C2167 0.950 . S
C2156 H2148 0.950 . S
C2156 C2157 1.386 . S
C2156 C2158 1.391 . S
C2157 C2156 1.386 . S
C2157 C2161 1.393 1_545 S
C2158 H2150 0.950 . S
C2158 C2156 1.391 . S
C2158 C2159 1.400 . S
C2159 C2158 1.400 . S
C2159 C2160 1.398 . S
C2159 C2165 1.491 . S
C2160 H2151 1.010 . S
C2160 C2159 1.398 . S
C2160 C2161 1.391 1_545 S
C2161 H2149 0.950 . S
C2161 C2157 1.393 1_565 S
C2161 C2160 1.391 1_565 S
C2162 H2152 0.950 . S
C2162 C2163 1.386 . S
C2162 C2164 1.391 . S
C2163 C2162 1.386 . S
C2163 C2167 1.393 . S
C2164 H2153 0.950 . S
C2164 C2162 1.391 . S
C2164 C2165 1.400 . S
C2165 C2159 1.491 . S
C2165 C2164 1.400 . S
C2165 C2166 1.398 . S
C2166 H2154 0.950 . S
C2166 C2165 1.398 . S
C2166 C2167 1.391 . S
C2167 H2155 0.950 . S
C2167 C2163 1.393 . S
C2167 C2166 1.391 . S
H2168 C2176 0.950 . S
H2169 C2181 0.950 . S
H2170 C2178 0.950 . S
H2171 C2180 0.950 . S
H2172 C2182 0.950 . S
H2173 C2184 0.950 . S
H2174 C2186 0.950 . S
H2175 C2187 0.950 . S
C2176 H2168 0.950 . S
C2176 C2177 1.386 . S
C2176 C2178 1.391 . S
C2177 C2176 1.386 . S
C2177 C2181 1.393 . S
C2178 H2170 0.950 . S
C2178 C2176 1.391 . S
C2178 C2179 1.400 . S
C2179 C2178 1.400 . S
C2179 C2180 1.398 . S
C2179 C2185 1.491 . S
C2180 H2171 0.950 . S
C2180 C2179 1.398 . S
C2180 C2181 1.391 . S
C2181 H2169 0.950 . S
C2181 C2177 1.393 . S
C2181 C2180 1.391 . S
C2182 H2172 0.950 . S
C2182 C2183 1.386 . S
C2182 C2184 1.391 . S
C2183 C2182 1.386 . S
C2183 C2187 1.393 1_455 S
C2184 H2173 0.950 . S
C2184 C2182 1.391 . S
C2184 C2185 1.400 1_455 S
C2185 C2179 1.491 . S
C2185 C2184 1.400 1_655 S
C2185 C2186 1.398 . S
C2186 H2174 0.950 . S
C2186 C2185 1.398 . S
C2186 C2187 1.391 . S
C2187 H2175 0.950 . S
C2187 C2183 1.393 1_655 S
C2187 C2186 1.391 . S
H2188 C2196 0.950 . S
H2189 C2201 0.950 . S
H2190 C2198 0.950 . S
H2191 C2200 0.950 . S
H2192 C2202 0.950 . S
H2193 C2204 0.950 . S
H2194 C2206 0.950 . S
H2195 C2207 0.950 . S
C2196 H2188 0.950 . S
C2196 C2197 1.386 . S
C2196 C2198 1.391 . S
C2197 C2196 1.386 . S
C2197 C2201 1.393 . S
C2198 H2190 0.950 . S
C2198 C2196 1.391 . S
C2198 C2199 1.400 . S
C2199 C2198 1.400 . S
C2199 C2200 1.398 . S
C2199 C2205 1.491 . S
C2200 H2191 0.950 . S
C2200 C2199 1.398 . S
C2200 C2201 1.391 . S
C2201 H2189 0.950 . S
C2201 C2197 1.393 . S
C2201 C2200 1.391 . S
C2202 H2192 0.950 . S
C2202 C2203 1.386 . S
C2202 C2204 1.391 . S
C2203 C2202 1.386 . S
C2203 C2207 1.393 . S
C2204 H2193 0.950 . S
C2204 C2202 1.391 . S
C2204 C2205 1.400 . S
C2205 C2199 1.491 . S
C2205 C2204 1.400 . S
C2205 C2206 1.398 . S
C2206 H2194 0.950 . S
C2206 C2205 1.398 . S
C2206 C2207 1.391 . S
C2207 H2195 0.950 . S
C2207 C2203 1.393 . S
C2207 C2206 1.391 . S
H2208 C2216 0.950 . S
H2209 C2221 0.950 . S
H2210 C2218 0.950 . S
H2211 C2220 0.950 . S
H2212 C2222 0.950 . S
H2213 C2224 0.950 . S
H2214 C2226 0.950 . S
H2215 C2227 0.950 . S
C2216 H2208 0.950 . S
C2216 C2217 1.386 . S
C2216 C2218 1.391 . S
C2217 C2216 1.386 . S
C2217 C2221 1.393 . S
C2218 H2210 0.950 . S
C2218 C2216 1.391 . S
C2218 C2219 1.400 . S
C2219 C2218 1.400 . S
C2219 C2220 1.398 . S
C2219 C2225 1.491 . S
C2220 H2211 0.950 . S
C2220 C2219 1.398 . S
C2220 C2221 1.391 . S
C2221 H2209 0.950 . S
C2221 C2217 1.393 . S
C2221 C2220 1.391 . S
C2222 H2212 0.950 . S
C2222 C2223 1.386 . S
C2222 C2224 1.391 . S
C2223 C2222 1.386 . S
C2223 C2227 1.393 . S
C2224 H2213 0.950 . S
C2224 C2222 1.391 . S
C2224 C2225 1.400 . S
C2225 C2219 1.491 . S
C2225 C2224 1.400 . S
C2225 C2226 1.398 . S
C2226 H2214 0.950 . S
C2226 C2225 1.398 . S
C2226 C2227 1.391 . S
C2227 H2215 0.950 . S
C2227 C2223 1.393 . S
C2227 C2226 1.391 . S
H2228 C2236 0.888 1_565 S
H2229 C2241 0.950 . S
H2230 C2238 0.950 . S
H2231 C2240 0.950 . S
H2232 C2242 0.950 . S
H2233 C2244 0.950 . S
H2234 C2246 0.950 . S
H2235 C2247 0.950 . S
C2236 H2228 0.888 1_545 S
C2236 C2237 1.375 . S
C2236 C2238 1.470 . S
C2237 C2236 1.375 . S
C2237 C2241 1.393 . S
C2238 H2230 0.950 . S
C2238 C2236 1.470 . S
C2238 C2239 1.400 . S
C2239 C2238 1.400 . S
C2239 C2240 1.398 . S
C2239 C2245 1.491 . S
C2240 H2231 0.950 . S
C2240 C2239 1.398 . S
C2240 C2241 1.391 . S
C2241 H2229 0.950 . S
C2241 C2237 1.393 . S
C2241 C2240 1.391 . S
C2242 H2232 0.950 . S
C2242 C2243 1.386 . S
C2242 C2244 1.391 . S
C2243 C2242 1.386 . S
C2243 C2247 1.393 . S
C2244 H2233 0.950 . S
C2244 C2242 1.391 . S
C2244 C2245 1.400 . S
C2245 C2239 1.491 . S
C2245 C2244 1.400 . S
C2245 C2246 1.398 . S
C2246 H2234 0.950 . S
C2246 C2245 1.398 . S
C2246 C2247 1.391 . S
C2247 H2235 0.950 . S
C2247 C2243 1.393 . S
C2247 C2246 1.391 . S
H2248 C2256 0.950 . S
H2249 C2261 0.950 . S
H2250 C2258 0.950 . S
H2251 C2260 0.950 . S
H2252 C2262 0.950 . S
H2253 C2264 0.950 . S
H2254 C2266 0.950 . S
H2255 C2267 0.950 . S
C2256 H2248 0.950 . S
C2256 C2257 1.386 . S
C2256 C2258 1.391 . S
C2257 C2256 1.386 . S
C2257 C2261 1.393 . S
C2258 H2250 0.950 . S
C2258 C2256 1.391 . S
C2258 C2259 1.400 . S
C2259 C2258 1.400 . S
C2259 C2260 1.398 . S
C2259 C2265 1.491 . S
C2260 H2251 0.950 . S
C2260 C2259 1.398 . S
C2260 C2261 1.391 . S
C2261 H2249 0.950 . S
C2261 C2257 1.393 . S
C2261 C2260 1.391 . S
C2262 H2252 0.950 . S
C2262 C2263 1.386 . S
C2262 C2264 1.391 . S
C2263 C2262 1.386 . S
C2263 C2267 1.393 . S
C2264 H2253 0.950 . S
C2264 C2262 1.391 . S
C2264 C2265 1.400 . S
C2265 C2259 1.491 . S
C2265 C2264 1.400 . S
C2265 C2266 1.398 . S
C2266 H2254 0.950 . S
C2266 C2265 1.398 . S
C2266 C2267 1.391 . S
C2267 H2255 0.950 . S
C2267 C2263 1.393 . S
C2267 C2266 1.391 . S
H2268 C2276 0.950 . S
H2269 C2281 0.942 1_554 S
H2270 C2278 0.950 . S
H2271 C2280 0.950 1_554 S
H2272 C2282 0.947 1_554 S
H2273 C2284 0.949 1_554 S
H2274 C2286 0.950 . S
H2275 C2287 0.950 . S
C2276 H2268 0.950 . S
C2276 C2277 1.386 . S
C2276 C2278 1.391 . S
C2277 C2276 1.386 . S
C2277 C2281 1.401 . S
C2278 H2270 0.950 . S
C2278 C2276 1.391 . S
C2278 C2279 1.400 . S
C2279 C2278 1.400 . S
C2279 C2280 1.398 . S
C2279 C2285 1.491 . S
C2280 H2271 0.950 1_556 S
C2280 C2279 1.398 . S
C2280 C2281 1.392 . S
C2281 H2269 0.942 1_556 S
C2281 C2277 1.401 . S
C2281 C2280 1.392 . S
C2282 H2272 0.947 1_556 S
C2282 C2283 1.388 . S
C2282 C2284 1.391 . S
C2283 C2282 1.388 . S
C2283 C2287 1.393 . S
C2284 H2273 0.949 1_556 S
C2284 C2282 1.391 . S
C2284 C2285 1.401 . S
C2285 C2279 1.491 . S
C2285 C2284 1.401 . S
C2285 C2286 1.398 . S
C2286 H2274 0.950 . S
C2286 C2285 1.398 . S
C2286 C2287 1.391 . S
C2287 H2275 0.950 . S
C2287 C2283 1.393 . S
C2287 C2286 1.391 . S
H2288 C2296 0.950 . S
H2289 C2301 0.950 . S
H2290 C2298 0.950 . S
H2291 C2300 0.950 . S
H2292 C2302 0.950 . S
H2293 C2304 0.950 . S
H2294 C2306 0.950 . S
H2295 C2307 0.950 . S
C2296 H2288 0.950 . S
C2296 C2297 1.386 . S
C2296 C2298 1.391 . S
C2297 C2296 1.386 . S
C2297 C2301 1.393 . S
C2298 H2290 0.950 . S
C2298 C2296 1.391 . S
C2298 C2299 1.400 . S
C2299 C2298 1.400 . S
C2299 C2300 1.398 . S
C2299 C2305 1.491 . S
C2300 H2291 0.950 . S
C2300 C2299 1.398 . S
C2300 C2301 1.391 . S
C2301 H2289 0.950 . S
C2301 C2297 1.393 . S
C2301 C2300 1.391 . S
C2302 H2292 0.950 . S
C2302 C2303 1.386 . S
C2302 C2304 1.391 . S
C2303 C2302 1.386 . S
C2303 C2307 1.393 . S
C2304 H2293 0.950 . S
C2304 C2302 1.391 . S
C2304 C2305 1.400 . S
C2305 C2299 1.491 . S
C2305 C2304 1.400 . S
C2305 C2306 1.398 . S
C2306 H2294 0.950 . S
C2306 C2305 1.398 . S
C2306 C2307 1.391 . S
C2307 H2295 0.950 . S
C2307 C2303 1.393 . S
C2307 C2306 1.391 . S
H2308 C2316 0.950 . S
H2309 C2321 0.950 . S
H2310 C2318 0.950 . S
H2311 C2320 0.950 . S
H2312 C2322 0.950 . S
H2313 C2324 0.950 . S
H2314 C2326 0.950 . S
H2315 C2327 0.950 . S
C2316 H2308 0.950 . S
C2316 C2317 1.386 1_554 S
C2316 C2318 1.391 . S
C2317 C2316 1.386 1_556 S
C2317 C2321 1.393 . S
C2318 H2310 0.950 . S
C2318 C2316 1.391 . S
C2318 C2319 1.400 1_554 S
C2319 C2318 1.400 1_556 S
C2319 C2320 1.398 . S
C2319 C2325 1.491 . S
C2320 H2311 0.950 . S
C2320 C2319 1.398 . S
C2320 C2321 1.391 . S
C2321 H2309 0.950 . S
C2321 C2317 1.393 . S
C2321 C2320 1.391 . S
C2322 H2312 0.950 . S
C2322 C2323 1.386 . S
C2322 C2324 1.391 . S
C2323 C2322 1.386 . S
C2323 C2327 1.393 1_556 S
C2324 H2313 0.950 . S
C2324 C2322 1.391 . S
C2324 C2325 1.400 . S
C2325 C2319 1.491 . S
C2325 C2324 1.400 . S
C2325 C2326 1.398 1_556 S
C2326 H2314 0.950 . S
C2326 C2325 1.398 1_554 S
C2326 C2327 1.391 . S
C2327 H2315 0.950 . S
C2327 C2323 1.393 1_554 S
C2327 C2326 1.391 . S
H2328 C2336 0.950 . S
H2329 C2341 0.950 1_556 S
H2330 C2338 0.950 . S
H2331 C2340 0.950 1_556 S
H2332 C2342 0.950 . S
H2333 C2344 0.961 . S
H2334 C2346 0.950 . S
H2335 C2347 0.950 . S
C2336 H2328 0.950 . S
C2336 C2337 1.386 . S
C2336 C2338 1.391 . S
C2337 C2336 1.386 . S
C2337 C2341 1.393 . S
C2338 H2330 0.950 . S
C2338 C2336 1.391 . S
C2338 C2339 1.400 . S
C2339 C2338 1.400 . S
C2339 C2340 1.398 . S
C2339 C2345 1.491 . S
C2340 H2331 0.950 1_554 S
C2340 C2339 1.398 . S
C2340 C2341 1.391 . S
C2341 H2329 0.950 1_554 S
C2341 C2337 1.393 . S
C2341 C2340 1.391 . S
C2342 H2332 0.950 . S
C2342 C2343 1.386 1_556 S
C2342 C2344 1.393 . S
C2343 C2342 1.386 1_554 S
C2343 C2347 1.393 . S
C2344 H2333 0.961 . S
C2344 C2342 1.393 . S
C2344 C2345 1.388 1_556 S
C2345 C2339 1.491 . S
C2345 C2344 1.388 1_554 S
C2345 C2346 1.398 . S
C2346 H2334 0.950 . S
C2346 C2345 1.398 . S
C2346 C2347 1.391 . S
C2347 H2335 0.950 . S
C2347 C2343 1.393 . S
C2347 C2346 1.391 . S
H2348 C2356 0.950 . S
H2349 C2361 0.950 . S
H2350 C2358 0.950 . S
H2351 C2360 0.950 . S
H2352 C2362 0.950 . S
H2353 C2364 0.950 . S
H2354 C2366 0.950 . S
H2355 C2367 0.950 . S
C2356 H2348 0.950 . S
C2356 C2357 1.386 . S
C2356 C2358 1.391 . S
C2357 C2356 1.386 . S
C2357 C2361 1.393 1_554 S
C2358 H2350 0.950 . S
C2358 C2356 1.391 . S
C2358 C2359 1.400 . S
C2359 C2358 1.400 . S
C2359 C2360 1.398 1_554 S
C2359 C2365 1.491 . S
C2360 H2351 0.950 . S
C2360 C2359 1.398 1_556 S
C2360 C2361 1.391 . S
C2361 H2349 0.950 . S
C2361 C2357 1.393 1_556 S
C2361 C2360 1.391 . S
C2362 H2352 0.950 . S
C2362 C2363 1.386 1_556 S
C2362 C2364 1.391 . S
C2363 C2362 1.386 1_554 S
C2363 C2367 1.393 . S
C2364 H2353 0.950 . S
C2364 C2362 1.391 . S
C2364 C2365 1.400 1_556 S
C2365 C2359 1.491 . S
C2365 C2364 1.400 1_554 S
C2365 C2366 1.398 . S
C2366 H2354 0.950 . S
C2366 C2365 1.398 . S
C2366 C2367 1.391 . S
C2367 H2355 0.950 . S
C2367 C2363 1.393 . S
C2367 C2366 1.391 . S
H2368 C2376 0.950 . S
H2369 C2381 0.950 . S
H2370 C2378 0.950 . S
H2371 C2380 0.950 . S
H2372 C2382 0.950 . S
H2373 C2384 0.950 . S
H2374 C2386 0.950 . S
H2375 C2387 0.950 . S
C2376 H2368 0.950 . S
C2376 C2377 1.386 1_556 S
C2376 C2378 1.391 . S
C2377 C2376 1.386 1_554 S
C2377 C2381 1.393 . S
C2378 H2370 0.950 . S
C2378 C2376 1.391 . S
C2378 C2379 1.400 1_556 S
C2379 C2378 1.400 1_554 S
C2379 C2380 1.398 . S
C2379 C2385 1.491 . S
C2380 H2371 0.950 . S
C2380 C2379 1.398 . S
C2380 C2381 1.391 . S
C2381 H2369 0.950 . S
C2381 C2377 1.393 . S
C2381 C2380 1.391 . S
C2382 H2372 0.950 . S
C2382 C2383 1.386 . S
C2382 C2384 1.391 . S
C2383 C2382 1.386 . S
C2383 C2387 1.393 1_554 S
C2384 H2373 0.950 . S
C2384 C2382 1.391 . S
C2384 C2385 1.400 . S
C2385 C2379 1.491 . S
C2385 C2384 1.400 . S
C2385 C2386 1.398 1_554 S
C2386 H2374 0.950 . S
C2386 C2385 1.398 1_556 S
C2386 C2387 1.391 . S
C2387 H2375 0.950 . S
C2387 C2383 1.393 1_556 S
C2387 C2386 1.391 . S
H2388 C2396 0.950 . S
H2389 C2401 0.950 . S
H2390 C2398 0.950 . S
H2391 C2400 0.950 . S
H2392 C2402 0.950 . S
H2393 C2404 0.950 . S
H2394 C2406 0.950 . S
H2395 C2407 0.950 . S
C2396 H2388 0.950 . S
C2396 C2397 1.386 . S
C2396 C2398 1.391 . S
C2397 C2396 1.386 . S
C2397 C2401 1.393 . S
C2398 H2390 0.950 . S
C2398 C2396 1.391 . S
C2398 C2399 1.400 . S
C2399 C2398 1.400 . S
C2399 C2400 1.398 . S
C2399 C2405 1.491 . S
C2400 H2391 0.950 . S
C2400 C2399 1.398 . S
C2400 C2401 1.391 . S
C2401 H2389 0.950 . S
C2401 C2397 1.393 . S
C2401 C2400 1.391 . S
C2402 H2392 0.950 . S
C2402 C2403 1.386 . S
C2402 C2404 1.391 . S
C2403 C2402 1.386 . S
C2403 C2407 1.393 . S
C2404 H2393 0.950 . S
C2404 C2402 1.391 . S
C2404 C2405 1.400 . S
C2405 C2399 1.491 . S
C2405 C2404 1.400 . S
C2405 C2406 1.398 . S
C2406 H2394 0.950 . S
C2406 C2405 1.398 . S
C2406 C2407 1.391 . S
C2407 H2395 0.950 . S
C2407 C2403 1.393 . S
C2407 C2406 1.391 . S
H2408 C2416 0.950 . S
H2409 C2421 0.950 . S
H2410 C2418 0.950 . S
H2411 C2420 0.950 . S
H2412 C2422 0.950 . S
H2413 C2424 0.950 . S
H2414 C2426 0.950 . S
H2415 C2427 0.950 . S
C2416 H2408 0.950 . S
C2416 C2417 1.386 . S
C2416 C2418 1.391 . S
C2417 C2416 1.386 . S
C2417 C2421 1.393 . S
C2418 H2410 0.950 . S
C2418 C2416 1.391 . S
C2418 C2419 1.400 . S
C2419 C2418 1.400 . S
C2419 C2420 1.398 . S
C2419 C2425 1.491 . S
C2420 H2411 0.950 . S
C2420 C2419 1.398 . S
C2420 C2421 1.391 . S
C2421 H2409 0.950 . S
C2421 C2417 1.393 . S
C2421 C2420 1.391 . S
C2422 H2412 0.950 . S
C2422 C2423 1.386 . S
C2422 C2424 1.391 . S
C2423 C2422 1.386 . S
C2423 C2427 1.393 . S
C2424 H2413 0.950 . S
C2424 C2422 1.391 . S
C2424 C2425 1.400 . S
C2425 C2419 1.491 . S
C2425 C2424 1.400 . S
C2425 C2426 1.398 . S
C2426 H2414 0.950 . S
C2426 C2425 1.398 . S
C2426 C2427 1.391 . S
C2427 H2415 0.950 . S
C2427 C2423 1.393 . S
C2427 C2426 1.391 . S
H2428 C2436 0.950 . S
H2429 C2441 0.950 . S
H2430 C2438 0.950 . S
H2431 C2440 0.950 . S
H2432 C2442 0.950 . S
H2433 C2444 0.950 . S
H2434 C2446 0.950 . S
H2435 C2447 0.950 . S
C2436 H2428 0.950 . S
C2436 C2437 1.386 . S
C2436 C2438 1.391 . S
C2437 C2436 1.386 . S
C2437 C2441 1.393 . S
C2438 H2430 0.950 . S
C2438 C2436 1.391 . S
C2438 C2439 1.400 . S
C2439 C2438 1.400 . S
C2439 C2440 1.398 . S
C2439 C2445 1.491 . S
C2440 H2431 0.950 . S
C2440 C2439 1.398 . S
C2440 C2441 1.391 . S
C2441 H2429 0.950 . S
C2441 C2437 1.393 . S
C2441 C2440 1.391 . S
C2442 H2432 0.950 . S
C2442 C2443 1.386 . S
C2442 C2444 1.391 . S
C2443 C2442 1.386 . S
C2443 C2447 1.393 . S
C2444 H2433 0.950 . S
C2444 C2442 1.391 . S
C2444 C2445 1.400 . S
C2445 C2439 1.491 . S
C2445 C2444 1.400 . S
C2445 C2446 1.398 . S
C2446 H2434 0.950 . S
C2446 C2445 1.398 . S
C2446 C2447 1.391 . S
C2447 H2435 0.950 . S
C2447 C2443 1.393 . S
C2447 C2446 1.391 . S
H2448 C2456 0.950 . S
H2449 C2461 0.950 . S
H2450 C2458 0.950 . S
H2451 C2460 0.950 . S
H2452 C2462 0.950 . S
H2453 C2464 0.950 . S
H2454 C2466 0.950 . S
H2455 C2467 0.950 . S
C2456 H2448 0.950 . S
C2456 C2457 1.386 . S
C2456 C2458 1.391 . S
C2457 C2456 1.386 . S
C2457 C2461 1.393 . S
C2458 H2450 0.950 . S
C2458 C2456 1.391 . S
C2458 C2459 1.400 . S
C2459 C2458 1.400 . S
C2459 C2460 1.398 . S
C2459 C2465 1.491 . S
C2460 H2451 0.950 . S
C2460 C2459 1.398 . S
C2460 C2461 1.391 . S
C2461 H2449 0.950 . S
C2461 C2457 1.393 . S
C2461 C2460 1.391 . S
C2462 H2452 0.950 . S
C2462 C2463 1.386 . S
C2462 C2464 1.391 . S
C2463 C2462 1.386 . S
C2463 C2467 1.393 . S
C2464 H2453 0.950 . S
C2464 C2462 1.391 . S
C2464 C2465 1.400 . S
C2465 C2459 1.491 . S
C2465 C2464 1.400 . S
C2465 C2466 1.398 . S
C2466 H2454 0.950 . S
C2466 C2465 1.398 . S
C2466 C2467 1.391 . S
C2467 H2455 0.950 . S
C2467 C2463 1.393 . S
C2467 C2466 1.391 . S
H2468 C2476 0.950 . S
H2469 C2481 0.950 . S
H2470 C2478 0.950 . S
H2471 C2480 0.950 . S
H2472 C2482 0.950 . S
H2473 C2484 0.950 . S
H2474 C2486 0.950 . S
H2475 C2487 0.950 . S
C2476 H2468 0.950 . S
C2476 C2477 1.386 . S
C2476 C2478 1.391 . S
C2477 C2476 1.386 . S
C2477 C2481 1.393 . S
C2478 H2470 0.950 . S
C2478 C2476 1.391 . S
C2478 C2479 1.400 . S
C2479 C2478 1.400 . S
C2479 C2480 1.398 . S
C2479 C2485 1.491 . S
C2480 H2471 0.950 . S
C2480 C2479 1.398 . S
C2480 C2481 1.391 . S
C2481 H2469 0.950 . S
C2481 C2477 1.393 . S
C2481 C2480 1.391 . S
C2482 H2472 0.950 . S
C2482 C2483 1.386 . S
C2482 C2484 1.391 . S
C2483 C2482 1.386 . S
C2483 C2487 1.393 . S
C2484 H2473 0.950 . S
C2484 C2482 1.391 . S
C2484 C2485 1.400 . S
C2485 C2479 1.491 . S
C2485 C2484 1.400 . S
C2485 C2486 1.398 . S
C2486 H2474 0.950 . S
C2486 C2485 1.398 . S
C2486 C2487 1.391 . S
C2487 H2475 0.950 . S
C2487 C2483 1.393 . S
C2487 C2486 1.391 . S
H2488 C2496 0.950 . S
H2489 C2501 0.950 . S
H2490 C2498 0.950 . S
H2491 C2500 0.950 . S
H2492 C2502 0.950 . S
H2493 C2504 0.950 . S
H2494 C2506 0.950 . S
H2495 C2507 0.950 . S
C2496 H2488 0.950 . S
C2496 C2497 1.386 . S
C2496 C2498 1.391 . S
C2497 C2496 1.386 . S
C2497 C2501 1.393 . S
C2498 H2490 0.950 . S
C2498 C2496 1.391 . S
C2498 C2499 1.400 . S
C2499 C2498 1.400 . S
C2499 C2500 1.398 . S
C2499 C2505 1.491 . S
C2500 H2491 0.950 . S
C2500 C2499 1.398 . S
C2500 C2501 1.391 . S
C2501 H2489 0.950 . S
C2501 C2497 1.393 . S
C2501 C2500 1.391 . S
C2502 H2492 0.950 . S
C2502 C2503 1.386 . S
C2502 C2504 1.391 . S
C2503 C2502 1.386 . S
C2503 C2507 1.393 . S
C2504 H2493 0.950 . S
C2504 C2502 1.391 . S
C2504 C2505 1.400 . S
C2505 C2499 1.491 . S
C2505 C2504 1.400 . S
C2505 C2506 1.398 . S
C2506 H2494 0.950 . S
C2506 C2505 1.398 . S
C2506 C2507 1.391 . S
C2507 H2495 0.950 . S
C2507 C2503 1.393 . S
C2507 C2506 1.391 . S
H2508 C2516 0.950 . S
H2509 C2521 0.950 . S
H2510 C2518 0.950 . S
H2511 C2520 0.950 . S
H2512 C2522 0.950 . S
H2513 C2524 0.950 . S
H2514 C2526 0.950 . S
H2515 C2527 0.950 . S
C2516 H2508 0.950 . S
C2516 C2517 1.386 . S
C2516 C2518 1.391 . S
C2517 C2516 1.386 . S
C2517 C2521 1.393 . S
C2518 H2510 0.950 . S
C2518 C2516 1.391 . S
C2518 C2519 1.400 . S
C2519 C2518 1.400 . S
C2519 C2520 1.398 . S
C2519 C2525 1.491 . S
C2520 H2511 0.950 . S
C2520 C2519 1.398 . S
C2520 C2521 1.391 . S
C2521 H2509 0.950 . S
C2521 C2517 1.393 . S
C2521 C2520 1.391 . S
C2522 H2512 0.950 . S
C2522 C2523 1.386 . S
C2522 C2524 1.391 . S
C2523 C2522 1.386 . S
C2523 C2527 1.393 . S
C2524 H2513 0.950 . S
C2524 C2522 1.391 . S
C2524 C2525 1.400 . S
C2525 C2519 1.491 . S
C2525 C2524 1.400 . S
C2525 C2526 1.398 . S
C2526 H2514 0.950 . S
C2526 C2525 1.398 . S
C2526 C2527 1.391 . S
C2527 H2515 0.950 . S
C2527 C2523 1.393 . S
C2527 C2526 1.391 . S
H2528 C2536 0.950 . S
H2529 C2541 0.950 . S
H2530 C2538 0.950 . S
H2531 C2540 0.950 . S
H2532 C2542 0.950 . S
H2533 C2544 0.950 . S
H2534 C2546 0.950 . S
H2535 C2547 0.950 . S
C2536 H2528 0.950 . S
C2536 C2537 1.386 . S
C2536 C2538 1.391 . S
C2537 C2536 1.386 . S
C2537 C2541 1.393 . S
C2538 H2530 0.950 . S
C2538 C2536 1.391 . S
C2538 C2539 1.400 . S
C2539 C2538 1.400 . S
C2539 C2540 1.398 . S
C2539 C2545 1.491 . S
C2540 H2531 0.950 . S
C2540 C2539 1.398 . S
C2540 C2541 1.391 . S
C2541 H2529 0.950 . S
C2541 C2537 1.393 . S
C2541 C2540 1.391 . S
C2542 H2532 0.950 . S
C2542 C2543 1.386 . S
C2542 C2544 1.391 . S
C2543 C2542 1.386 . S
C2543 C2547 1.393 . S
C2544 H2533 0.950 . S
C2544 C2542 1.391 . S
C2544 C2545 1.400 . S
C2545 C2539 1.491 . S
C2545 C2544 1.400 . S
C2545 C2546 1.398 . S
C2546 H2534 0.950 . S
C2546 C2545 1.398 . S
C2546 C2547 1.391 . S
C2547 H2535 0.950 . S
C2547 C2543 1.393 . S
C2547 C2546 1.391 . S
H2548 C2556 0.950 . S
H2549 C2561 0.950 . S
H2550 C2558 0.950 . S
H2551 C2560 0.950 . S
H2552 C2562 0.950 . S
H2553 C2564 0.950 . S
H2554 C2566 0.950 . S
H2555 C2567 0.950 . S
C2556 H2548 0.950 . S
C2556 C2557 1.386 . S
C2556 C2558 1.391 . S
C2557 C2556 1.386 . S
C2557 C2561 1.393 . S
C2558 H2550 0.950 . S
C2558 C2556 1.391 . S
C2558 C2559 1.400 . S
C2559 C2558 1.400 . S
C2559 C2560 1.398 . S
C2559 C2565 1.491 . S
C2560 H2551 0.950 . S
C2560 C2559 1.398 . S
C2560 C2561 1.391 . S
C2561 H2549 0.950 . S
C2561 C2557 1.393 . S
C2561 C2560 1.391 . S
C2562 H2552 0.950 . S
C2562 C2563 1.386 . S
C2562 C2564 1.391 . S
C2563 C2562 1.386 . S
C2563 C2567 1.393 . S
C2564 H2553 0.950 . S
C2564 C2562 1.391 . S
C2564 C2565 1.400 . S
C2565 C2559 1.491 . S
C2565 C2564 1.400 . S
C2565 C2566 1.398 . S
C2566 H2554 0.950 . S
C2566 C2565 1.398 . S
C2566 C2567 1.391 . S
C2567 H2555 0.950 . S
C2567 C2563 1.393 . S
C2567 C2566 1.391 . S
H2568 C2576 0.950 . S
H2569 C2581 0.950 . S
H2570 C2578 0.950 . S
H2571 C2580 0.950 . S
H2572 C2582 0.950 . S
H2573 C2584 0.950 . S
H2574 C2586 0.950 . S
H2575 C2587 0.950 . S
C2576 H2568 0.950 . S
C2576 C2577 1.386 . S
C2576 C2578 1.391 . S
C2577 C2576 1.386 . S
C2577 C2581 1.393 . S
C2578 H2570 0.950 . S
C2578 C2576 1.391 . S
C2578 C2579 1.400 . S
C2579 C2578 1.400 . S
C2579 C2580 1.398 . S
C2579 C2585 1.491 . S
C2580 H2571 0.950 . S
C2580 C2579 1.398 . S
C2580 C2581 1.391 . S
C2581 H2569 0.950 . S
C2581 C2577 1.393 . S
C2581 C2580 1.391 . S
C2582 H2572 0.950 . S
C2582 C2583 1.386 . S
C2582 C2584 1.391 . S
C2583 C2582 1.386 . S
C2583 C2587 1.393 . S
C2584 H2573 0.950 . S
C2584 C2582 1.391 . S
C2584 C2585 1.400 . S
C2585 C2579 1.491 . S
C2585 C2584 1.400 . S
C2585 C2586 1.398 . S
C2586 H2574 0.950 . S
C2586 C2585 1.398 . S
C2586 C2587 1.391 . S
C2587 H2575 0.950 . S
C2587 C2583 1.393 . S
C2587 C2586 1.391 . S
H2588 C2596 0.950 . S
H2589 C2601 0.950 . S
H2590 C2598 0.950 . S
H2591 C2600 0.950 . S
H2592 C2602 0.950 . S
H2593 C2604 0.950 . S
H2594 C2606 0.950 . S
H2595 C2607 0.950 . S
C2596 H2588 0.950 . S
C2596 C2597 1.386 . S
C2596 C2598 1.391 . S
C2597 C2596 1.386 . S
C2597 C2601 1.393 . S
C2598 H2590 0.950 . S
C2598 C2596 1.391 . S
C2598 C2599 1.400 . S
C2599 C2598 1.400 . S
C2599 C2600 1.398 . S
C2599 C2605 1.491 . S
C2600 H2591 0.950 . S
C2600 C2599 1.398 . S
C2600 C2601 1.391 . S
C2601 H2589 0.950 . S
C2601 C2597 1.393 . S
C2601 C2600 1.391 . S
C2602 H2592 0.950 . S
C2602 C2603 1.386 . S
C2602 C2604 1.391 . S
C2603 C2602 1.386 . S
C2603 C2607 1.393 . S
C2604 H2593 0.950 . S
C2604 C2602 1.391 . S
C2604 C2605 1.400 . S
C2605 C2599 1.491 . S
C2605 C2604 1.400 . S
C2605 C2606 1.398 . S
C2606 H2594 0.950 . S
C2606 C2605 1.398 . S
C2606 C2607 1.391 . S
C2607 H2595 0.950 . S
C2607 C2603 1.393 . S
C2607 C2606 1.391 . S
H2608 C2616 0.950 . S
H2609 C2621 0.950 . S
H2610 C2618 0.950 . S
H2611 C2620 0.950 . S
H2612 C2622 0.950 . S
H2613 C2624 0.950 . S
H2614 C2626 0.950 . S
H2615 C2627 0.950 . S
C2616 H2608 0.950 . S
C2616 C2617 1.386 . S
C2616 C2618 1.391 . S
C2617 C2616 1.386 . S
C2617 C2621 1.393 . S
C2618 H2610 0.950 . S
C2618 C2616 1.391 . S
C2618 C2619 1.400 . S
C2619 C2618 1.400 . S
C2619 C2620 1.398 . S
C2619 C2625 1.491 . S
C2620 H2611 0.950 . S
C2620 C2619 1.398 . S
C2620 C2621 1.391 . S
C2621 H2609 0.950 . S
C2621 C2617 1.393 . S
C2621 C2620 1.391 . S
C2622 H2612 0.950 . S
C2622 C2623 1.386 . S
C2622 C2624 1.391 . S
C2623 C2622 1.386 . S
C2623 C2627 1.393 . S
C2624 H2613 0.950 . S
C2624 C2622 1.391 . S
C2624 C2625 1.400 . S
C2625 C2619 1.491 . S
C2625 C2624 1.400 . S
C2625 C2626 1.398 . S
C2626 H2614 0.950 . S
C2626 C2625 1.398 . S
C2626 C2627 1.391 . S
C2627 H2615 0.950 . S
C2627 C2623 1.393 . S
C2627 C2626 1.391 . S
H2628 C2636 0.950 . S
H2629 C2641 0.950 . S
H2630 C2638 0.950 . S
H2631 C2640 0.950 . S
H2632 C2642 0.950 . S
H2633 C2644 0.950 . S
H2634 C2646 0.950 . S
H2635 C2647 0.950 . S
C2636 H2628 0.950 . S
C2636 C2637 1.386 . S
C2636 C2638 1.391 . S
C2637 C2636 1.386 . S
C2637 C2641 1.393 . S
C2638 H2630 0.950 . S
C2638 C2636 1.391 . S
C2638 C2639 1.400 . S
C2639 C2638 1.400 . S
C2639 C2640 1.398 . S
C2639 C2645 1.491 . S
C2640 H2631 0.950 . S
C2640 C2639 1.398 . S
C2640 C2641 1.391 . S
C2641 H2629 0.950 . S
C2641 C2637 1.393 . S
C2641 C2640 1.391 . S
C2642 H2632 0.950 . S
C2642 C2643 1.386 . S
C2642 C2644 1.391 . S
C2643 C2642 1.386 . S
C2643 C2647 1.393 . S
C2644 H2633 0.950 . S
C2644 C2642 1.391 . S
C2644 C2645 1.400 . S
C2645 C2639 1.491 . S
C2645 C2644 1.400 . S
C2645 C2646 1.398 . S
C2646 H2634 0.950 . S
C2646 C2645 1.398 . S
C2646 C2647 1.391 . S
C2647 H2635 0.950 . S
C2647 C2643 1.393 . S
C2647 C2646 1.391 . S
H2648 C2656 0.950 . S
H2649 C2661 0.950 . S
H2650 C2658 0.950 . S
H2651 C2660 0.950 . S
H2652 C2662 0.950 . S
H2653 C2664 0.950 . S
H2654 C2666 0.950 . S
H2655 C2667 0.950 . S
C2656 H2648 0.950 . S
C2656 C2657 1.386 . S
C2656 C2658 1.391 . S
C2657 C2656 1.386 . S
C2657 C2661 1.393 . S
C2658 H2650 0.950 . S
C2658 C2656 1.391 . S
C2658 C2659 1.400 . S
C2659 C2658 1.400 . S
C2659 C2660 1.398 . S
C2659 C2665 1.491 . S
C2660 H2651 0.950 . S
C2660 C2659 1.398 . S
C2660 C2661 1.391 . S
C2661 H2649 0.950 . S
C2661 C2657 1.393 . S
C2661 C2660 1.391 . S
C2662 H2652 0.950 . S
C2662 C2663 1.386 . S
C2662 C2664 1.391 . S
C2663 C2662 1.386 . S
C2663 C2667 1.393 . S
C2664 H2653 0.950 . S
C2664 C2662 1.391 . S
C2664 C2665 1.400 . S
C2665 C2659 1.491 . S
C2665 C2664 1.400 . S
C2665 C2666 1.398 . S
C2666 H2654 0.950 . S
C2666 C2665 1.398 . S
C2666 C2667 1.391 . S
C2667 H2655 0.950 . S
C2667 C2663 1.393 . S
C2667 C2666 1.391 . S
H2668 C2676 0.950 . S
H2669 C2681 0.950 . S
H2670 C2678 0.950 . S
H2671 C2680 0.950 . S
H2672 C2682 0.950 . S
H2673 C2684 0.950 . S
H2674 C2686 0.950 . S
H2675 C2687 0.950 . S
C2676 H2668 0.950 . S
C2676 C2677 1.386 . S
C2676 C2678 1.391 . S
C2677 C2676 1.386 . S
C2677 C2681 1.393 . S
C2678 H2670 0.950 . S
C2678 C2676 1.391 . S
C2678 C2679 1.400 . S
C2679 C2678 1.400 . S
C2679 C2680 1.398 . S
C2679 C2685 1.491 . S
C2680 H2671 0.950 . S
C2680 C2679 1.398 . S
C2680 C2681 1.391 . S
C2681 H2669 0.950 . S
C2681 C2677 1.393 . S
C2681 C2680 1.391 . S
C2682 H2672 0.950 . S
C2682 C2683 1.386 . S
C2682 C2684 1.391 . S
C2683 C2682 1.386 . S
C2683 C2687 1.393 . S
C2684 H2673 0.950 . S
C2684 C2682 1.391 . S
C2684 C2685 1.400 . S
C2685 C2679 1.491 . S
C2685 C2684 1.400 . S
C2685 C2686 1.398 . S
C2686 H2674 0.950 . S
C2686 C2685 1.398 . S
C2686 C2687 1.391 . S
C2687 H2675 0.950 . S
C2687 C2683 1.393 . S
C2687 C2686 1.391 . S
H2688 C2696 0.950 . S
H2689 C2701 0.950 . S
H2690 C2698 0.950 . S
H2691 C2700 0.950 . S
H2692 C2702 0.950 . S
H2693 C2704 0.950 . S
H2694 C2706 0.950 . S
H2695 C2707 0.950 . S
C2696 H2688 0.950 . S
C2696 C2697 1.386 . S
C2696 C2698 1.391 . S
C2697 C2696 1.386 . S
C2697 C2701 1.393 . S
C2698 H2690 0.950 . S
C2698 C2696 1.391 . S
C2698 C2699 1.400 . S
C2699 C2698 1.400 . S
C2699 C2700 1.398 . S
C2699 C2705 1.491 . S
C2700 H2691 0.950 . S
C2700 C2699 1.398 . S
C2700 C2701 1.391 . S
C2701 H2689 0.950 . S
C2701 C2697 1.393 . S
C2701 C2700 1.391 . S
C2702 H2692 0.950 . S
C2702 C2703 1.386 . S
C2702 C2704 1.391 . S
C2703 C2702 1.386 . S
C2703 C2707 1.393 . S
C2704 H2693 0.950 . S
C2704 C2702 1.391 . S
C2704 C2705 1.400 . S
C2705 C2699 1.491 . S
C2705 C2704 1.400 . S
C2705 C2706 1.398 . S
C2706 H2694 0.950 . S
C2706 C2705 1.398 . S
C2706 C2707 1.391 . S
C2707 H2695 0.950 . S
C2707 C2703 1.393 . S
C2707 C2706 1.391 . S
H2708 C2716 0.950 . S
H2709 C2721 0.950 . S
H2710 C2718 0.950 . S
H2711 C2720 0.950 . S
H2712 C2722 0.950 . S
H2713 C2724 0.950 . S
H2714 C2726 0.950 . S
H2715 C2727 0.950 . S
C2716 H2708 0.950 . S
C2716 C2717 1.386 . S
C2716 C2718 1.391 . S
C2717 C2716 1.386 . S
C2717 C2721 1.393 . S
C2718 H2710 0.950 . S
C2718 C2716 1.391 . S
C2718 C2719 1.400 . S
C2719 C2718 1.400 . S
C2719 C2720 1.398 . S
C2719 C2725 1.491 . S
C2720 H2711 0.950 . S
C2720 C2719 1.398 . S
C2720 C2721 1.391 . S
C2721 H2709 0.950 . S
C2721 C2717 1.393 . S
C2721 C2720 1.391 . S
C2722 H2712 0.950 . S
C2722 C2723 1.386 . S
C2722 C2724 1.391 . S
C2723 C2722 1.386 . S
C2723 C2727 1.393 . S
C2724 H2713 0.950 . S
C2724 C2722 1.391 . S
C2724 C2725 1.400 . S
C2725 C2719 1.491 . S
C2725 C2724 1.400 . S
C2725 C2726 1.398 . S
C2726 H2714 0.950 . S
C2726 C2725 1.398 . S
C2726 C2727 1.391 . S
C2727 H2715 0.950 . S
C2727 C2723 1.393 . S
C2727 C2726 1.391 . S
H2728 C2736 0.950 . S
H2729 C2741 0.950 . S
H2730 C2738 0.950 . S
H2731 C2740 0.950 . S
H2732 C2742 0.950 . S
H2733 C2744 0.950 . S
H2734 C2746 0.950 . S
H2735 C2747 0.950 . S
C2736 H2728 0.950 . S
C2736 C2737 1.386 . S
C2736 C2738 1.391 . S
C2737 C2736 1.386 . S
C2737 C2741 1.393 . S
C2738 H2730 0.950 . S
C2738 C2736 1.391 . S
C2738 C2739 1.400 . S
C2739 C2738 1.400 . S
C2739 C2740 1.398 . S
C2739 C2745 1.491 . S
C2740 H2731 0.950 . S
C2740 C2739 1.398 . S
C2740 C2741 1.391 . S
C2741 H2729 0.950 . S
C2741 C2737 1.393 . S
C2741 C2740 1.391 . S
C2742 H2732 0.950 . S
C2742 C2743 1.386 . S
C2742 C2744 1.391 . S
C2743 C2742 1.386 . S
C2743 C2747 1.393 . S
C2744 H2733 0.950 . S
C2744 C2742 1.391 . S
C2744 C2745 1.400 . S
C2745 C2739 1.491 . S
C2745 C2744 1.400 . S
C2745 C2746 1.398 . S
C2746 H2734 0.950 . S
C2746 C2745 1.398 . S
C2746 C2747 1.391 . S
C2747 H2735 0.950 . S
C2747 C2743 1.393 . S
C2747 C2746 1.391 . S
H2748 C2756 0.950 . S
H2749 C2761 0.950 . S
H2750 C2758 0.950 . S
H2751 C2760 0.950 . S
H2752 C2762 0.950 . S
H2753 C2764 0.950 . S
H2754 C2766 0.950 . S
H2755 C2767 0.950 . S
C2756 H2748 0.950 . S
C2756 C2757 1.386 . S
C2756 C2758 1.391 . S
C2757 C2756 1.386 . S
C2757 C2761 1.393 . S
C2758 H2750 0.950 . S
C2758 C2756 1.391 . S
C2758 C2759 1.400 . S
C2759 C2758 1.400 . S
C2759 C2760 1.398 . S
C2759 C2765 1.491 . S
C2760 H2751 0.950 . S
C2760 C2759 1.398 . S
C2760 C2761 1.391 . S
C2761 H2749 0.950 . S
C2761 C2757 1.393 . S
C2761 C2760 1.391 . S
C2762 H2752 0.950 . S
C2762 C2763 1.386 . S
C2762 C2764 1.391 . S
C2763 C2762 1.386 . S
C2763 C2767 1.393 . S
C2764 H2753 0.950 . S
C2764 C2762 1.391 . S
C2764 C2765 1.400 . S
C2765 C2759 1.491 . S
C2765 C2764 1.400 . S
C2765 C2766 1.398 . S
C2766 H2754 0.950 . S
C2766 C2765 1.398 . S
C2766 C2767 1.391 . S
C2767 H2755 0.950 . S
C2767 C2763 1.393 . S
C2767 C2766 1.391 . S
H2768 C2776 0.950 . S
H2769 C2781 0.950 . S
H2770 C2778 0.950 . S
H2771 C2780 0.950 . S
H2772 C2782 0.950 . S
H2773 C2784 0.950 . S
H2774 C2786 0.950 . S
H2775 C2787 0.950 . S
C2776 H2768 0.950 . S
C2776 C2777 1.386 . S
C2776 C2778 1.391 . S
C2777 C2776 1.386 . S
C2777 C2781 1.393 . S
C2778 H2770 0.950 . S
C2778 C2776 1.391 . S
C2778 C2779 1.400 . S
C2779 C2778 1.400 . S
C2779 C2780 1.398 . S
C2779 C2785 1.491 . S
C2780 H2771 0.950 . S
C2780 C2779 1.398 . S
C2780 C2781 1.391 . S
C2781 H2769 0.950 . S
C2781 C2777 1.393 . S
C2781 C2780 1.391 . S
C2782 H2772 0.950 . S
C2782 C2783 1.386 . S
C2782 C2784 1.391 . S
C2783 C2782 1.386 . S
C2783 C2787 1.393 . S
C2784 H2773 0.950 . S
C2784 C2782 1.391 . S
C2784 C2785 1.400 . S
C2785 C2779 1.491 . S
C2785 C2784 1.400 . S
C2785 C2786 1.398 . S
C2786 H2774 0.950 . S
C2786 C2785 1.398 . S
C2786 C2787 1.391 . S
C2787 H2775 0.950 . S
C2787 C2783 1.393 . S
C2787 C2786 1.391 . S
H2788 C2796 0.950 . S
H2789 C2801 0.950 . S
H2790 C2798 0.950 . S
H2791 C2800 0.950 . S
H2792 C2802 0.950 . S
H2793 C2804 0.950 . S
H2794 C2806 0.950 . S
H2795 C2807 0.950 . S
C2796 H2788 0.950 . S
C2796 C2797 1.386 . S
C2796 C2798 1.391 . S
C2797 C2796 1.386 . S
C2797 C2801 1.393 . S
C2798 H2790 0.950 . S
C2798 C2796 1.391 . S
C2798 C2799 1.400 . S
C2799 C2798 1.400 . S
C2799 C2800 1.398 . S
C2799 C2805 1.491 . S
C2800 H2791 0.950 . S
C2800 C2799 1.398 . S
C2800 C2801 1.391 . S
C2801 H2789 0.950 . S
C2801 C2797 1.393 . S
C2801 C2800 1.391 . S
C2802 H2792 0.950 . S
C2802 C2803 1.386 . S
C2802 C2804 1.391 . S
C2803 C2802 1.386 . S
C2803 C2807 1.393 . S
C2804 H2793 0.950 . S
C2804 C2802 1.391 . S
C2804 C2805 1.400 . S
C2805 C2799 1.491 . S
C2805 C2804 1.400 . S
C2805 C2806 1.398 . S
C2806 H2794 0.950 . S
C2806 C2805 1.398 . S
C2806 C2807 1.391 . S
C2807 H2795 0.950 . S
C2807 C2803 1.393 . S
C2807 C2806 1.391 . S
H2808 C2816 0.950 . S
H2809 C2821 0.950 . S
H2810 C2818 0.950 . S
H2811 C2820 0.950 . S
H2812 C2822 0.950 . S
H2813 C2824 0.950 . S
H2814 C2826 0.950 . S
H2815 C2827 0.950 . S
C2816 H2808 0.950 . S
C2816 C2817 1.386 . S
C2816 C2818 1.391 . S
C2817 C2816 1.386 . S
C2817 C2821 1.393 . S
C2818 H2810 0.950 . S
C2818 C2816 1.391 . S
C2818 C2819 1.400 . S
C2819 C2818 1.400 . S
C2819 C2820 1.398 . S
C2819 C2825 1.491 . S
C2820 H2811 0.950 . S
C2820 C2819 1.398 . S
C2820 C2821 1.391 . S
C2821 H2809 0.950 . S
C2821 C2817 1.393 . S
C2821 C2820 1.391 . S
C2822 H2812 0.950 . S
C2822 C2823 1.386 . S
C2822 C2824 1.391 . S
C2823 C2822 1.386 . S
C2823 C2827 1.393 . S
C2824 H2813 0.950 . S
C2824 C2822 1.391 . S
C2824 C2825 1.400 . S
C2825 C2819 1.491 . S
C2825 C2824 1.400 . S
C2825 C2826 1.398 . S
C2826 H2814 0.950 . S
C2826 C2825 1.398 . S
C2826 C2827 1.391 . S
C2827 H2815 0.950 . S
C2827 C2823 1.393 . S
C2827 C2826 1.391 . S
H2828 C2836 0.950 . S
H2829 C2841 0.950 . S
H2830 C2838 0.950 . S
H2831 C2840 0.950 . S
H2832 C2842 0.950 . S
H2833 C2844 0.950 . S
H2834 C2846 0.950 . S
H2835 C2847 0.950 . S
C2836 H2828 0.950 . S
C2836 C2837 1.386 . S
C2836 C2838 1.391 . S
C2837 C2836 1.386 . S
C2837 C2841 1.393 . S
C2838 H2830 0.950 . S
C2838 C2836 1.391 . S
C2838 C2839 1.400 . S
C2839 C2838 1.400 . S
C2839 C2840 1.398 . S
C2839 C2845 1.491 . S
C2840 H2831 0.950 . S
C2840 C2839 1.398 . S
C2840 C2841 1.391 . S
C2841 H2829 0.950 . S
C2841 C2837 1.393 . S
C2841 C2840 1.391 . S
C2842 H2832 0.950 . S
C2842 C2843 1.386 . S
C2842 C2844 1.391 . S
C2843 C2842 1.386 . S
C2843 C2847 1.393 . S
C2844 H2833 0.950 . S
C2844 C2842 1.391 . S
C2844 C2845 1.400 . S
C2845 C2839 1.491 . S
C2845 C2844 1.400 . S
C2845 C2846 1.398 . S
C2846 H2834 0.950 . S
C2846 C2845 1.398 . S
C2846 C2847 1.391 . S
C2847 H2835 0.950 . S
C2847 C2843 1.393 . S
C2847 C2846 1.391 . S
H2848 C2856 0.950 . S
H2849 C2861 0.950 . S
H2850 C2858 0.950 . S
H2851 C2860 0.950 . S
H2852 C2862 0.950 . S
H2853 C2864 0.950 . S
H2854 C2866 0.950 . S
H2855 C2867 0.950 . S
C2856 H2848 0.950 . S
C2856 C2857 1.386 . S
C2856 C2858 1.391 . S
C2857 C2856 1.386 . S
C2857 C2861 1.393 . S
C2858 H2850 0.950 . S
C2858 C2856 1.391 . S
C2858 C2859 1.400 . S
C2859 C2858 1.400 . S
C2859 C2860 1.398 . S
C2859 C2865 1.491 . S
C2860 H2851 0.950 . S
C2860 C2859 1.398 . S
C2860 C2861 1.391 . S
C2861 H2849 0.950 . S
C2861 C2857 1.393 . S
C2861 C2860 1.391 . S
C2862 H2852 0.950 . S
C2862 C2863 1.386 . S
C2862 C2864 1.391 . S
C2863 C2862 1.386 . S
C2863 C2867 1.393 . S
C2864 H2853 0.950 . S
C2864 C2862 1.391 . S
C2864 C2865 1.400 . S
C2865 C2859 1.491 . S
C2865 C2864 1.400 . S
C2865 C2866 1.398 . S
C2866 H2854 0.950 . S
C2866 C2865 1.398 . S
C2866 C2867 1.391 . S
C2867 H2855 0.950 . S
C2867 C2863 1.393 . S
C2867 C2866 1.391 . S
H2868 C2876 0.950 . S
H2869 C2881 0.950 . S
H2870 C2878 0.950 . S
H2871 C2880 0.950 . S
H2872 C2882 0.950 . S
H2873 C2884 0.950 . S
H2874 C2886 0.950 . S
H2875 C2887 0.950 . S
C2876 H2868 0.950 . S
C2876 C2877 1.386 . S
C2876 C2878 1.391 . S
C2877 C2876 1.386 . S
C2877 C2881 1.393 . S
C2878 H2870 0.950 . S
C2878 C2876 1.391 . S
C2878 C2879 1.400 . S
C2879 C2878 1.400 . S
C2879 C2880 1.398 . S
C2879 C2885 1.491 . S
C2880 H2871 0.950 . S
C2880 C2879 1.398 . S
C2880 C2881 1.391 . S
C2881 H2869 0.950 . S
C2881 C2877 1.393 . S
C2881 C2880 1.391 . S
C2882 H2872 0.950 . S
C2882 C2883 1.386 . S
C2882 C2884 1.391 . S
C2883 C2882 1.386 . S
C2883 C2887 1.393 . S
C2884 H2873 0.950 . S
C2884 C2882 1.391 . S
C2884 C2885 1.400 . S
C2885 C2879 1.491 . S
C2885 C2884 1.400 . S
C2885 C2886 1.398 . S
C2886 H2874 0.950 . S
C2886 C2885 1.398 . S
C2886 C2887 1.391 . S
C2887 H2875 0.950 . S
C2887 C2883 1.393 . S
C2887 C2886 1.391 . S
H2888 C2896 0.950 . S
H2889 C2901 0.950 . S
H2890 C2898 0.950 . S
H2891 C2900 0.950 . S
H2892 C2902 0.950 . S
H2893 C2904 0.950 . S
H2894 C2906 0.950 . S
H2895 C2907 0.950 . S
C2896 H2888 0.950 . S
C2896 C2897 1.386 . S
C2896 C2898 1.391 . S
C2897 C2896 1.386 . S
C2897 C2901 1.393 . S
C2898 H2890 0.950 . S
C2898 C2896 1.391 . S
C2898 C2899 1.400 . S
C2899 C2898 1.400 . S
C2899 C2900 1.398 1_545 S
C2899 C2905 1.491 1_545 S
C2900 H2891 0.950 . S
C2900 C2899 1.398 1_565 S
C2900 C2901 1.391 1_565 S
C2901 H2889 0.950 . S
C2901 C2897 1.393 . S
C2901 C2900 1.391 1_545 S
C2902 H2892 0.950 . S
C2902 C2903 1.386 . S
C2902 C2904 1.391 . S
C2903 C2902 1.386 . S
C2903 C2907 1.393 . S
C2904 H2893 0.950 . S
C2904 C2902 1.391 . S
C2904 C2905 1.400 . S
C2905 C2899 1.491 1_565 S
C2905 C2904 1.400 . S
C2905 C2906 1.398 1_565 S
C2906 H2894 0.950 . S
C2906 C2905 1.398 1_545 S
C2906 C2907 1.391 1_545 S
C2907 H2895 0.950 . S
C2907 C2903 1.393 . S
C2907 C2906 1.391 1_565 S
H2908 C2916 0.950 . S
H2909 C2921 0.950 . S
H2910 C2918 0.950 . S
H2911 C2920 0.950 . S
H2912 C2922 0.950 1_455 S
H2913 C2924 0.950 . S
H2914 C2926 0.950 . S
H2915 C2927 0.950 . S
C2916 H2908 0.950 . S
C2916 C2917 1.386 . S
C2916 C2918 1.391 1_455 S
C2917 C2916 1.386 . S
C2917 C2921 1.393 . S
C2918 H2910 0.950 . S
C2918 C2916 1.391 1_655 S
C2918 C2919 1.400 1_655 S
C2919 C2918 1.400 1_455 S
C2919 C2920 1.398 . S
C2919 C2925 1.491 1_455 S
C2920 H2911 0.950 . S
C2920 C2919 1.398 . S
C2920 C2921 1.391 . S
C2921 H2909 0.950 . S
C2921 C2917 1.393 . S
C2921 C2920 1.391 . S
C2922 H2912 0.950 1_655 S
C2922 C2923 1.386 . S
C2922 C2924 1.391 1_655 S
C2923 C2922 1.386 . S
C2923 C2927 1.393 . S
C2924 H2913 0.950 . S
C2924 C2922 1.391 1_455 S
C2924 C2925 1.400 1_455 S
C2925 C2919 1.491 1_655 S
C2925 C2924 1.400 1_655 S
C2925 C2926 1.398 . S
C2926 H2914 0.950 . S
C2926 C2925 1.398 . S
C2926 C2927 1.391 . S
C2927 H2915 0.950 . S
C2927 C2923 1.393 . S
C2927 C2926 1.391 . S
H2928 C2936 0.950 . S
H2929 C2941 0.950 . S
H2930 C2938 0.950 . S
H2931 C2940 0.950 . S
H2932 C2942 0.950 . S
H2933 C2944 0.950 . S
H2934 C2946 0.950 . S
H2935 C2947 0.950 . S
C2936 H2928 0.950 . S
C2936 C2937 1.386 . S
C2936 C2938 1.391 . S
C2937 C2936 1.386 . S
C2937 C2941 1.393 . S
C2938 H2930 0.950 . S
C2938 C2936 1.391 . S
C2938 C2939 1.400 . S
C2939 C2938 1.400 . S
C2939 C2940 1.398 . S
C2939 C2945 1.491 . S
C2940 H2931 0.950 . S
C2940 C2939 1.398 . S
C2940 C2941 1.391 . S
C2941 H2929 0.950 . S
C2941 C2937 1.393 . S
C2941 C2940 1.391 . S
C2942 H2932 0.950 . S
C2942 C2943 1.386 . S
C2942 C2944 1.391 . S
C2943 C2942 1.386 . S
C2943 C2947 1.393 . S
C2944 H2933 0.950 . S
C2944 C2942 1.391 . S
C2944 C2945 1.400 . S
C2945 C2939 1.491 . S
C2945 C2944 1.400 . S
C2945 C2946 1.398 . S
C2946 H2934 0.950 . S
C2946 C2945 1.398 . S
C2946 C2947 1.391 . S
C2947 H2935 0.950 . S
C2947 C2943 1.393 . S
C2947 C2946 1.391 . S
H2948 C2956 0.950 . S
H2949 C2961 0.934 1_545 S
H2950 C2958 0.950 . S
H2951 C2960 0.950 . S
H2952 C2962 0.950 . S
H2953 C2964 0.950 . S
H2954 C2966 0.950 . S
H2955 C2967 0.932 1_565 S
C2956 H2948 0.950 . S
C2956 C2957 1.386 . S
C2956 C2958 1.391 . S
C2957 C2956 1.386 . S
C2957 C2961 1.393 . S
C2958 H2950 0.950 . S
C2958 C2956 1.391 . S
C2958 C2959 1.400 . S
C2959 C2958 1.400 . S
C2959 C2960 1.398 1_565 S
C2959 C2965 1.491 1_565 S
C2960 H2951 0.950 . S
C2960 C2959 1.398 1_545 S
C2960 C2961 1.391 1_545 S
C2961 H2949 0.934 1_565 S
C2961 C2957 1.393 . S
C2961 C2960 1.391 1_565 S
C2962 H2952 0.950 . S
C2962 C2963 1.386 . S
C2962 C2964 1.391 . S
C2963 C2962 1.386 . S
C2963 C2967 1.393 . S
C2964 H2953 0.950 . S
C2964 C2962 1.391 . S
C2964 C2965 1.400 . S
C2965 C2959 1.491 1_545 S
C2965 C2964 1.400 . S
C2965 C2966 1.398 1_545 S
C2966 H2954 0.950 . S
C2966 C2965 1.398 1_565 S
C2966 C2967 1.391 1_565 S
C2967 H2955 0.932 1_545 S
C2967 C2963 1.393 . S
C2967 C2966 1.391 1_545 S
H2968 C2976 0.950 . S
H2969 C2981 0.925 1_655 S
H2970 C2978 0.950 . S
H2971 C2980 0.950 . S
H2972 C2982 0.950 . S
H2973 C2984 0.950 . S
H2974 C2986 0.950 . S
H2975 C2987 0.950 . S
C2976 H2968 0.950 . S
C2976 C2977 1.386 . S
C2976 C2978 1.391 . S
C2977 C2976 1.386 . S
C2977 C2981 1.393 . S
C2978 H2970 0.950 . S
C2978 C2976 1.391 . S
C2978 C2979 1.400 . S
C2979 C2978 1.400 . S
C2979 C2980 1.398 1_455 S
C2979 C2985 1.492 . S
C2980 H2971 0.950 . S
C2980 C2979 1.398 1_655 S
C2980 C2981 1.391 1_655 S
C2981 H2969 0.925 1_455 S
C2981 C2977 1.393 . S
C2981 C2980 1.391 1_455 S
C2982 H2972 0.950 . S
C2982 C2983 1.386 . S
C2982 C2984 1.391 . S
C2983 C2982 1.386 . S
C2983 C2987 1.393 1_655 S
C2984 H2973 0.950 . S
C2984 C2982 1.391 . S
C2984 C2985 1.398 1_655 S
C2985 C2979 1.492 . S
C2985 C2984 1.398 1_455 S
C2985 C2986 1.400 . S
C2986 H2974 0.950 . S
C2986 C2985 1.400 . S
C2986 C2987 1.391 . S
C2987 H2975 0.950 . S
C2987 C2983 1.393 1_455 S
C2987 C2986 1.391 . S
H2988 C2996 0.950 . S
H2989 C3001 0.950 . S
H2990 C2998 0.950 . S
H2991 C3000 0.950 . S
H2992 C3002 0.950 . S
H2993 C3004 0.950 . S
H2994 C3006 0.950 . S
H2995 C3007 0.950 . S
C2996 H2988 0.950 . S
C2996 C2997 1.386 . S
C2996 C2998 1.391 . S
C2997 C2996 1.386 . S
C2997 C3001 1.393 . S
C2998 H2990 0.950 . S
C2998 C2996 1.391 . S
C2998 C2999 1.400 . S
C2999 C2998 1.400 . S
C2999 C3000 1.398 . S
C2999 C3005 1.491 . S
C3000 H2991 0.950 . S
C3000 C2999 1.398 . S
C3000 C3001 1.391 . S
C3001 H2989 0.950 . S
C3001 C2997 1.393 . S
C3001 C3000 1.391 . S
C3002 H2992 0.950 . S
C3002 C3003 1.386 . S
C3002 C3004 1.391 . S
C3003 C3002 1.386 . S
C3003 C3007 1.393 . S
C3004 H2993 0.950 . S
C3004 C3002 1.391 . S
C3004 C3005 1.400 . S
C3005 C2999 1.491 . S
C3005 C3004 1.400 . S
C3005 C3006 1.398 . S
C3006 H2994 0.950 . S
C3006 C3005 1.398 . S
C3006 C3007 1.391 . S
C3007 H2995 0.950 . S
C3007 C3003 1.393 . S
C3007 C3006 1.391 . S
H3008 C3016 0.950 . S
H3009 C3021 0.950 . S
H3010 C3018 0.950 . S
H3011 C3020 0.950 . S
H3012 C3022 0.950 . S
H3013 C3024 0.950 . S
H3014 C3026 0.950 . S
H3015 C3027 0.950 . S
C3016 H3008 0.950 . S
C3016 C3017 1.386 . S
C3016 C3018 1.391 . S
C3017 C3016 1.386 . S
C3017 C3021 1.393 . S
C3018 H3010 0.950 . S
C3018 C3016 1.391 . S
C3018 C3019 1.400 . S
C3019 C3018 1.400 . S
C3019 C3020 1.398 . S
C3019 C3025 1.491 . S
C3020 H3011 0.950 . S
C3020 C3019 1.398 . S
C3020 C3021 1.391 . S
C3021 H3009 0.950 . S
C3021 C3017 1.393 . S
C3021 C3020 1.391 . S
C3022 H3012 0.950 . S
C3022 C3023 1.386 . S
C3022 C3024 1.391 . S
C3023 C3022 1.386 . S
C3023 C3027 1.393 . S
C3024 H3013 0.950 . S
C3024 C3022 1.391 . S
C3024 C3025 1.400 . S
C3025 C3019 1.491 . S
C3025 C3024 1.400 . S
C3025 C3026 1.398 . S
C3026 H3014 0.950 . S
C3026 C3025 1.398 . S
C3026 C3027 1.391 . S
C3027 H3015 0.950 . S
C3027 C3023 1.393 . S
C3027 C3026 1.391 . S
H3028 C3036 0.950 . S
H3029 C3041 0.950 . S
H3030 C3038 0.950 . S
H3031 C3040 0.950 . S
H3032 C3042 0.950 . S
H3033 C3044 0.950 . S
H3034 C3046 0.950 . S
H3035 C3047 0.950 . S
C3036 H3028 0.950 . S
C3036 C3037 1.386 . S
C3036 C3038 1.391 . S
C3037 C3036 1.386 . S
C3037 C3041 1.393 . S
C3038 H3030 0.950 . S
C3038 C3036 1.391 . S
C3038 C3039 1.400 . S
C3039 C3038 1.400 . S
C3039 C3040 1.398 . S
C3039 C3045 1.491 . S
C3040 H3031 0.950 . S
C3040 C3039 1.398 . S
C3040 C3041 1.391 . S
C3041 H3029 0.950 . S
C3041 C3037 1.393 . S
C3041 C3040 1.391 . S
C3042 H3032 0.950 . S
C3042 C3043 1.386 . S
C3042 C3044 1.391 . S
C3043 C3042 1.386 . S
C3043 C3047 1.393 . S
C3044 H3033 0.950 . S
C3044 C3042 1.391 . S
C3044 C3045 1.400 . S
C3045 C3039 1.491 . S
C3045 C3044 1.400 . S
C3045 C3046 1.398 . S
C3046 H3034 0.950 . S
C3046 C3045 1.398 . S
C3046 C3047 1.391 . S
C3047 H3035 0.950 . S
C3047 C3043 1.393 . S
C3047 C3046 1.391 . S
H3048 C3056 0.950 . S
H3049 C3061 0.950 . S
H3050 C3058 0.950 . S
H3051 C3060 0.950 . S
H3052 C3062 0.950 . S
H3053 C3064 0.950 . S
H3054 C3066 0.950 . S
H3055 C3067 0.950 . S
C3056 H3048 0.950 . S
C3056 C3057 1.386 . S
C3056 C3058 1.391 . S
C3057 C3056 1.386 . S
C3057 C3061 1.393 . S
C3058 H3050 0.950 . S
C3058 C3056 1.391 . S
C3058 C3059 1.400 . S
C3059 C3058 1.400 . S
C3059 C3060 1.398 . S
C3059 C3065 1.491 . S
C3060 H3051 0.950 . S
C3060 C3059 1.398 . S
C3060 C3061 1.391 . S
C3061 H3049 0.950 . S
C3061 C3057 1.393 . S
C3061 C3060 1.391 . S
C3062 H3052 0.950 . S
C3062 C3063 1.386 . S
C3062 C3064 1.391 . S
C3063 C3062 1.386 . S
C3063 C3067 1.393 . S
C3064 H3053 0.950 . S
C3064 C3062 1.391 . S
C3064 C3065 1.400 . S
C3065 C3059 1.491 . S
C3065 C3064 1.400 . S
C3065 C3066 1.398 . S
C3066 H3054 0.950 . S
C3066 C3065 1.398 . S
C3066 C3067 1.391 . S
C3067 H3055 0.950 . S
C3067 C3063 1.393 . S
C3067 C3066 1.391 . S
H3068 C3076 0.950 . S
H3069 C3081 0.950 . S
H3070 C3078 0.950 . S
H3071 C3080 0.950 . S
H3072 C3082 0.950 . S
H3073 C3084 0.950 . S
H3074 C3086 0.950 . S
H3075 C3087 0.950 . S
C3076 H3068 0.950 . S
C3076 C3077 1.386 . S
C3076 C3078 1.391 . S
C3077 C3076 1.386 . S
C3077 C3081 1.393 . S
C3078 H3070 0.950 . S
C3078 C3076 1.391 . S
C3078 C3079 1.400 . S
C3079 C3078 1.400 . S
C3079 C3080 1.398 . S
C3079 C3085 1.491 . S
C3080 H3071 0.950 . S
C3080 C3079 1.398 . S
C3080 C3081 1.391 . S
C3081 H3069 0.950 . S
C3081 C3077 1.393 . S
C3081 C3080 1.391 . S
C3082 H3072 0.950 . S
C3082 C3083 1.386 . S
C3082 C3084 1.391 . S
C3083 C3082 1.386 . S
C3083 C3087 1.393 . S
C3084 H3073 0.950 . S
C3084 C3082 1.391 . S
C3084 C3085 1.400 . S
C3085 C3079 1.491 . S
C3085 C3084 1.400 . S
C3085 C3086 1.398 . S
C3086 H3074 0.950 . S
C3086 C3085 1.398 . S
C3086 C3087 1.391 . S
C3087 H3075 0.950 . S
C3087 C3083 1.393 . S
C3087 C3086 1.391 . S
H3088 C3096 0.950 . S
H3089 C3101 0.950 . S
H3090 C3098 0.950 . S
H3091 C3100 0.950 . S
H3092 C3102 0.950 . S
H3093 C3104 0.950 . S
H3094 C3106 0.950 . S
H3095 C3107 0.950 . S
C3096 H3088 0.950 . S
C3096 C3097 1.386 . S
C3096 C3098 1.391 . S
C3097 C3096 1.386 . S
C3097 C3101 1.393 . S
C3098 H3090 0.950 . S
C3098 C3096 1.391 . S
C3098 C3099 1.400 . S
C3099 C3098 1.400 . S
C3099 C3100 1.398 . S
C3099 C3105 1.491 . S
C3100 H3091 0.950 . S
C3100 C3099 1.398 . S
C3100 C3101 1.391 . S
C3101 H3089 0.950 . S
C3101 C3097 1.393 . S
C3101 C3100 1.391 . S
C3102 H3092 0.950 . S
C3102 C3103 1.386 . S
C3102 C3104 1.391 . S
C3103 C3102 1.386 . S
C3103 C3107 1.393 . S
C3104 H3093 0.950 . S
C3104 C3102 1.391 . S
C3104 C3105 1.400 . S
C3105 C3099 1.491 . S
C3105 C3104 1.400 . S
C3105 C3106 1.398 . S
C3106 H3094 0.950 . S
C3106 C3105 1.398 . S
C3106 C3107 1.391 . S
C3107 H3095 0.950 . S
C3107 C3103 1.393 . S
C3107 C3106 1.391 . S
H3108 C3116 0.950 . S
H3109 C3121 0.950 . S
H3110 C3118 0.950 . S
H3111 C3120 0.950 . S
H3112 C3122 0.950 . S
H3113 C3124 0.950 . S
H3114 C3126 0.950 . S
H3115 C3127 0.950 . S
C3116 H3108 0.950 . S
C3116 C3117 1.386 . S
C3116 C3118 1.391 . S
C3117 C3116 1.386 . S
C3117 C3121 1.393 . S
C3118 H3110 0.950 . S
C3118 C3116 1.391 . S
C3118 C3119 1.400 . S
C3119 C3118 1.400 . S
C3119 C3120 1.398 . S
C3119 C3125 1.491 . S
C3120 H3111 0.950 . S
C3120 C3119 1.398 . S
C3120 C3121 1.391 . S
C3121 H3109 0.950 . S
C3121 C3117 1.393 . S
C3121 C3120 1.391 . S
C3122 H3112 0.950 . S
C3122 C3123 1.386 . S
C3122 C3124 1.391 . S
C3123 C3122 1.386 . S
C3123 C3127 1.393 . S
C3124 H3113 0.950 . S
C3124 C3122 1.391 . S
C3124 C3125 1.400 . S
C3125 C3119 1.491 . S
C3125 C3124 1.400 . S
C3125 C3126 1.398 . S
C3126 H3114 0.950 . S
C3126 C3125 1.398 . S
C3126 C3127 1.391 . S
C3127 H3115 0.950 . S
C3127 C3123 1.393 . S
C3127 C3126 1.391 . S
H3128 C3136 0.950 . S
H3129 C3141 0.950 . S
H3130 C3138 0.950 . S
H3131 C3140 0.950 . S
H3132 C3142 0.950 . S
H3133 C3144 0.950 . S
H3134 C3146 0.950 . S
H3135 C3147 0.950 . S
C3136 H3128 0.950 . S
C3136 C3137 1.386 . S
C3136 C3138 1.391 . S
C3137 C3136 1.386 . S
C3137 C3141 1.393 . S
C3138 H3130 0.950 . S
C3138 C3136 1.391 . S
C3138 C3139 1.400 . S
C3139 C3138 1.400 . S
C3139 C3140 1.398 . S
C3139 C3145 1.491 . S
C3140 H3131 0.950 . S
C3140 C3139 1.398 . S
C3140 C3141 1.391 . S
C3141 H3129 0.950 . S
C3141 C3137 1.393 . S
C3141 C3140 1.391 . S
C3142 H3132 0.950 . S
C3142 C3143 1.386 . S
C3142 C3144 1.391 . S
C3143 C3142 1.386 . S
C3143 C3147 1.393 . S
C3144 H3133 0.950 . S
C3144 C3142 1.391 . S
C3144 C3145 1.400 . S
C3145 C3139 1.491 . S
C3145 C3144 1.400 . S
C3145 C3146 1.398 . S
C3146 H3134 0.950 . S
C3146 C3145 1.398 . S
C3146 C3147 1.391 . S
C3147 H3135 0.950 . S
C3147 C3143 1.393 . S
C3147 C3146 1.391 . S
H3148 C3156 0.950 . S
H3149 C3161 0.950 . S
H3150 C3158 0.950 . S
H3151 C3160 0.950 . S
H3152 C3162 0.950 . S
H3153 C3164 0.950 . S
H3154 C3166 0.950 . S
H3155 C3167 0.950 . S
C3156 H3148 0.950 . S
C3156 C3157 1.386 . S
C3156 C3158 1.391 . S
C3157 C3156 1.386 . S
C3157 C3161 1.393 . S
C3158 H3150 0.950 . S
C3158 C3156 1.391 . S
C3158 C3159 1.400 . S
C3159 C3158 1.400 . S
C3159 C3160 1.398 . S
C3159 C3165 1.491 . S
C3160 H3151 0.950 . S
C3160 C3159 1.398 . S
C3160 C3161 1.391 . S
C3161 H3149 0.950 . S
C3161 C3157 1.393 . S
C3161 C3160 1.391 . S
C3162 H3152 0.950 . S
C3162 C3163 1.386 . S
C3162 C3164 1.391 . S
C3163 C3162 1.386 . S
C3163 C3167 1.393 . S
C3164 H3153 0.950 . S
C3164 C3162 1.391 . S
C3164 C3165 1.400 . S
C3165 C3159 1.491 . S
C3165 C3164 1.400 . S
C3165 C3166 1.398 . S
C3166 H3154 0.950 . S
C3166 C3165 1.398 . S
C3166 C3167 1.391 . S
C3167 H3155 0.950 . S
C3167 C3163 1.393 . S
C3167 C3166 1.391 . S
H3168 C3176 0.950 . S
H3169 C3181 0.950 . S
H3170 C3178 0.950 . S
H3171 C3180 0.950 . S
H3172 C3182 0.950 . S
H3173 C3184 0.950 . S
H3174 C3186 0.950 . S
H3175 C3187 0.950 . S
C3176 H3168 0.950 . S
C3176 C3177 1.386 . S
C3176 C3178 1.391 . S
C3177 C3176 1.386 . S
C3177 C3181 1.393 . S
C3178 H3170 0.950 . S
C3178 C3176 1.391 . S
C3178 C3179 1.400 . S
C3179 C3178 1.400 . S
C3179 C3180 1.398 . S
C3179 C3185 1.491 . S
C3180 H3171 0.950 . S
C3180 C3179 1.398 . S
C3180 C3181 1.391 . S
C3181 H3169 0.950 . S
C3181 C3177 1.393 . S
C3181 C3180 1.391 . S
C3182 H3172 0.950 . S
C3182 C3183 1.386 . S
C3182 C3184 1.391 . S
C3183 C3182 1.386 . S
C3183 C3187 1.393 . S
C3184 H3173 0.950 . S
C3184 C3182 1.391 . S
C3184 C3185 1.400 . S
C3185 C3179 1.491 . S
C3185 C3184 1.400 . S
C3185 C3186 1.398 . S
C3186 H3174 0.950 . S
C3186 C3185 1.398 . S
C3186 C3187 1.391 . S
C3187 H3175 0.950 . S
C3187 C3183 1.393 . S
C3187 C3186 1.391 . S
H3188 C3196 0.950 . S
H3189 C3201 0.950 . S
H3190 C3198 0.950 . S
H3191 C3200 0.950 . S
H3192 C3202 0.950 . S
H3193 C3204 0.950 . S
H3194 C3206 0.950 . S
H3195 C3207 0.950 . S
C3196 H3188 0.950 . S
C3196 C3197 1.386 . S
C3196 C3198 1.391 . S
C3197 C3196 1.386 . S
C3197 C3201 1.393 . S
C3198 H3190 0.950 . S
C3198 C3196 1.391 . S
C3198 C3199 1.400 . S
C3199 C3198 1.400 . S
C3199 C3200 1.398 . S
C3199 C3205 1.491 . S
C3200 H3191 0.950 . S
C3200 C3199 1.398 . S
C3200 C3201 1.391 . S
C3201 H3189 0.950 . S
C3201 C3197 1.393 . S
C3201 C3200 1.391 . S
C3202 H3192 0.950 . S
C3202 C3203 1.386 . S
C3202 C3204 1.391 . S
C3203 C3202 1.386 . S
C3203 C3207 1.393 . S
C3204 H3193 0.950 . S
C3204 C3202 1.391 . S
C3204 C3205 1.400 . S
C3205 C3199 1.491 . S
C3205 C3204 1.400 . S
C3205 C3206 1.398 . S
C3206 H3194 0.950 . S
C3206 C3205 1.398 . S
C3206 C3207 1.391 . S
C3207 H3195 0.950 . S
C3207 C3203 1.393 . S
C3207 C3206 1.391 . S
H3208 C3216 0.950 . S
H3209 C3221 0.950 . S
H3210 C3218 0.950 . S
H3211 C3220 0.950 . S
H3212 C3222 0.950 . S
H3213 C3224 0.950 . S
H3214 C3226 0.950 . S
H3215 C3227 0.950 . S
C3216 H3208 0.950 . S
C3216 C3217 1.386 . S
C3216 C3218 1.391 . S
C3217 C3216 1.386 . S
C3217 C3221 1.393 . S
C3218 H3210 0.950 . S
C3218 C3216 1.391 . S
C3218 C3219 1.400 . S
C3219 C3218 1.400 . S
C3219 C3220 1.398 . S
C3219 C3225 1.491 . S
C3220 H3211 0.950 . S
C3220 C3219 1.398 . S
C3220 C3221 1.391 . S
C3221 H3209 0.950 . S
C3221 C3217 1.393 . S
C3221 C3220 1.391 . S
C3222 H3212 0.950 . S
C3222 C3223 1.386 . S
C3222 C3224 1.391 . S
C3223 C3222 1.386 . S
C3223 C3227 1.393 . S
C3224 H3213 0.950 . S
C3224 C3222 1.391 . S
C3224 C3225 1.400 . S
C3225 C3219 1.491 . S
C3225 C3224 1.400 . S
C3225 C3226 1.398 . S
C3226 H3214 0.950 . S
C3226 C3225 1.398 . S
C3226 C3227 1.391 . S
C3227 H3215 0.950 . S
C3227 C3223 1.393 . S
C3227 C3226 1.391 . S
H3228 C3236 0.950 . S
H3229 C3241 0.950 . S
H3230 C3238 0.950 . S
H3231 C3240 0.950 . S
H3232 C3242 0.950 . S
H3233 C3244 0.962 . S
H3234 C3246 0.950 . S
H3235 C3247 0.950 . S
C3236 H3228 0.950 . S
C3236 C3237 1.386 . S
C3236 C3238 1.391 . S
C3237 C3236 1.386 . S
C3237 C3241 1.393 . S
C3238 H3230 0.950 . S
C3238 C3236 1.391 . S
C3238 C3239 1.400 . S
C3239 C3238 1.400 . S
C3239 C3240 1.398 . S
C3239 C3245 1.491 1_455 S
C3240 H3231 0.950 . S
C3240 C3239 1.398 . S
C3240 C3241 1.391 . S
C3241 H3229 0.950 . S
C3241 C3237 1.393 . S
C3241 C3240 1.391 . S
C3242 H3232 0.950 . S
C3242 C3243 1.386 . S
C3242 C3244 1.391 . S
C3243 C3242 1.386 . S
C3243 C3247 1.393 . S
C3244 H3233 0.962 . S
C3244 C3242 1.391 . S
C3244 C3245 1.400 . S
C3245 C3239 1.491 1_655 S
C3245 C3244 1.400 . S
C3245 C3246 1.398 . S
C3246 H3234 0.950 . S
C3246 C3245 1.398 . S
C3246 C3247 1.391 . S
C3247 H3235 0.950 . S
C3247 C3243 1.393 . S
C3247 C3246 1.391 . S
H3248 C3256 0.950 . S
H3249 C3261 0.950 . S
H3250 C3258 0.950 . S
H3251 C3260 0.950 . S
H3252 C3262 0.950 . S
H3253 C3264 0.950 . S
H3254 C3266 0.950 . S
H3255 C3267 0.950 . S
C3256 H3248 0.950 . S
C3256 C3257 1.386 . S
C3256 C3258 1.391 . S
C3257 C3256 1.386 . S
C3257 C3261 1.393 . S
C3258 H3250 0.950 . S
C3258 C3256 1.391 . S
C3258 C3259 1.400 . S
C3259 C3258 1.400 . S
C3259 C3260 1.398 . S
C3259 C3265 1.491 . S
C3260 H3251 0.950 . S
C3260 C3259 1.398 . S
C3260 C3261 1.391 . S
C3261 H3249 0.950 . S
C3261 C3257 1.393 . S
C3261 C3260 1.391 . S
C3262 H3252 0.950 . S
C3262 C3263 1.386 . S
C3262 C3264 1.391 . S
C3263 C3262 1.386 . S
C3263 C3267 1.393 . S
C3264 H3253 0.950 . S
C3264 C3262 1.391 . S
C3264 C3265 1.400 . S
C3265 C3259 1.491 . S
C3265 C3264 1.400 . S
C3265 C3266 1.398 . S
C3266 H3254 0.950 . S
C3266 C3265 1.398 . S
C3266 C3267 1.391 . S
C3267 H3255 0.950 . S
C3267 C3263 1.393 . S
C3267 C3266 1.391 . S
H3268 C3276 0.950 . S
H3269 C3281 0.950 . S
H3270 C3278 0.950 1_565 S
H3271 C3280 0.950 . S
H3272 C3282 0.950 . S
H3273 C3284 0.950 1_545 S
H3274 C3286 0.950 . S
H3275 C3287 0.950 . S
C3276 H3268 0.950 . S
C3276 C3277 1.386 . S
C3276 C3278 1.391 . S
C3277 C3276 1.386 . S
C3277 C3281 1.393 . S
C3278 H3270 0.950 1_545 S
C3278 C3276 1.391 . S
C3278 C3279 1.400 . S
C3279 C3278 1.400 . S
C3279 C3280 1.398 . S
C3279 C3285 1.491 1_545 S
C3280 H3271 0.950 . S
C3280 C3279 1.398 . S
C3280 C3281 1.391 . S
C3281 H3269 0.950 . S
C3281 C3277 1.393 . S
C3281 C3280 1.391 . S
C3282 H3272 0.950 . S
C3282 C3283 1.386 . S
C3282 C3284 1.391 . S
C3283 C3282 1.386 . S
C3283 C3287 1.393 . S
C3284 H3273 0.950 1_565 S
C3284 C3282 1.391 . S
C3284 C3285 1.400 . S
C3285 C3279 1.491 1_565 S
C3285 C3284 1.400 . S
C3285 C3286 1.398 . S
C3286 H3274 0.950 . S
C3286 C3285 1.398 . S
C3286 C3287 1.391 . S
C3287 H3275 0.950 . S
C3287 C3283 1.393 . S
C3287 C3286 1.391 . S
H3288 C3296 0.950 . S
H3289 C3301 0.950 . S
H3290 C3298 0.950 1_545 S
H3291 C3300 0.950 . S
H3292 C3302 0.950 . S
H3293 C3304 0.950 1_565 S
H3294 C3306 0.950 . S
H3295 C3307 0.950 . S
C3296 H3288 0.950 . S
C3296 C3297 1.386 . S
C3296 C3298 1.391 . S
C3297 C3296 1.386 . S
C3297 C3301 1.393 . S
C3298 H3290 0.950 1_565 S
C3298 C3296 1.391 . S
C3298 C3299 1.400 . S
C3299 C3298 1.400 . S
C3299 C3300 1.398 . S
C3299 C3305 1.491 1_565 S
C3300 H3291 0.950 . S
C3300 C3299 1.398 . S
C3300 C3301 1.391 . S
C3301 H3289 0.950 . S
C3301 C3297 1.393 . S
C3301 C3300 1.391 . S
C3302 H3292 0.950 . S
C3302 C3303 1.386 . S
C3302 C3304 1.391 . S
C3303 C3302 1.386 . S
C3303 C3307 1.393 . S
C3304 H3293 0.950 1_545 S
C3304 C3302 1.391 . S
C3304 C3305 1.400 . S
C3305 C3299 1.491 1_545 S
C3305 C3304 1.400 . S
C3305 C3306 1.398 . S
C3306 H3294 0.950 . S
C3306 C3305 1.398 . S
C3306 C3307 1.391 . S
C3307 H3295 0.950 . S
C3307 C3303 1.393 . S
C3307 C3306 1.391 . S
H3308 C3316 0.950 . S
H3309 C3321 0.950 . S
H3310 C3318 0.950 . S
H3311 C3320 0.950 1_455 S
H3312 C3322 0.950 . S
H3313 C3324 0.950 . S
H3314 C3326 0.950 . S
H3315 C3327 0.950 . S
C3316 H3308 0.950 . S
C3316 C3317 1.386 . S
C3316 C3318 1.391 . S
C3317 C3316 1.386 . S
C3317 C3321 1.393 . S
C3318 H3310 0.950 . S
C3318 C3316 1.391 . S
C3318 C3319 1.400 . S
C3319 C3318 1.400 . S
C3319 C3320 1.398 . S
C3319 C3325 1.491 1_655 S
C3320 H3311 0.950 1_655 S
C3320 C3319 1.398 . S
C3320 C3321 1.391 . S
C3321 H3309 0.950 . S
C3321 C3317 1.393 . S
C3321 C3320 1.391 . S
C3322 H3312 0.950 . S
C3322 C3323 1.386 . S
C3322 C3324 1.391 . S
C3323 C3322 1.386 . S
C3323 C3327 1.393 . S
C3324 H3313 0.950 . S
C3324 C3322 1.391 . S
C3324 C3325 1.400 . S
C3325 C3319 1.491 1_455 S
C3325 C3324 1.400 . S
C3325 C3326 1.398 . S
C3326 H3314 0.950 . S
C3326 C3325 1.398 . S
C3326 C3327 1.391 . S
C3327 H3315 0.950 . S
C3327 C3323 1.393 . S
C3327 C3326 1.391 . S
H3328 C3336 0.950 . S
H3329 C3341 0.950 . S
H3330 C3338 0.950 . S
H3331 C3340 0.950 . S
H3332 C3342 0.950 . S
H3333 C3344 0.950 . S
H3334 C3346 0.950 . S
H3335 C3347 0.950 . S
C3336 H3328 0.950 . S
C3336 C3337 1.386 . S
C3336 C3338 1.391 . S
C3337 C3336 1.386 . S
C3337 C3341 1.393 . S
C3338 H3330 0.950 . S
C3338 C3336 1.391 . S
C3338 C3339 1.400 . S
C3339 C3338 1.400 . S
C3339 C3340 1.398 . S
C3339 C3345 1.491 . S
C3340 H3331 0.950 . S
C3340 C3339 1.398 . S
C3340 C3341 1.391 . S
C3341 H3329 0.950 . S
C3341 C3337 1.393 . S
C3341 C3340 1.391 . S
C3342 H3332 0.950 . S
C3342 C3343 1.386 . S
C3342 C3344 1.391 . S
C3343 C3342 1.386 . S
C3343 C3347 1.393 . S
C3344 H3333 0.950 . S
C3344 C3342 1.391 . S
C3344 C3345 1.400 . S
C3345 C3339 1.491 . S
C3345 C3344 1.400 . S
C3345 C3346 1.398 . S
C3346 H3334 0.950 . S
C3346 C3345 1.398 . S
C3346 C3347 1.391 . S
C3347 H3335 0.950 . S
C3347 C3343 1.393 . S
C3347 C3346 1.391 . S
C1917 C241 1.149 . S
C1923 C29 1.168 . S
C1937 C294 1.176 . S
C1943 C82 1.149 . S
C1957 C188 1.191 . S
C1963 C135 1.192 . S
C1977 C559 1.617 . S
C1983 C357 1.637 . S
C1997 C400 1.610 . S
C2003 C622 1.631 . S
C2017 C506 1.245 . S
C2023 C453 1.258 . S
C2037 C665 1.123 . S
C2043 C877 1.105 . S
C2057 C930 1.168 . S
C2063 C718 1.150 1_565 S
C2077 C771 1.177 1_455 S
C2083 C824 1.187 . S
C2097 C993 1.570 . S
C2103 C1195 1.575 1_565 S
C2117 C1258 1.648 . S
C2123 C1036 1.618 . S
C2137 C1089 1.309 . S
C2143 C1142 1.297 . S
C2157 C1513 1.153 1_545 S
C2163 C1301 1.167 . S
C2177 C1354 1.115 . S
C2183 C1566 1.110 . S
C2197 C1460 1.189 . S
C2203 C1407 1.182 . S
C2217 C1831 1.625 . S
C2223 C1629 1.649 . S
C2237 C1672 1.571 1_545 S
C2243 C1894 1.568 . S
C2257 C1725 1.294 1_655 S
C2263 C1778 1.313 . S
C2277 C621 1.796 . S
C2283 C22 1.794 . S
C2297 C75 1.701 . S
C2303 C499 1.707 . S
C2317 C552 1.894 . S
C2323 C128 1.883 . S
C2337 C393 1.892 . S
C2343 C181 1.888 . S
C2357 C234 1.695 . S
C2363 C446 1.709 . S
C2377 C356 1.800 . S
C2383 C287 1.790 . S
C2397 C658 1.898 . S
C2403 C1257 1.916 . S
C2417 C1135 1.878 . S
C2423 C711 1.869 . S
C2437 C1188 1.955 . S
C2443 C764 1.948 . S
C2457 C817 1.963 . S
C2463 C1029 1.954 . S
C2477 C870 1.792 . S
C2483 C1082 1.782 . S
C2497 C923 1.833 . S
C2503 C992 1.853 . S
C2517 C1893 1.859 . S
C2523 C1294 1.828 . S
C2537 C1347 1.782 . S
C2543 C1771 1.794 . S
C2557 C1400 1.959 . S
C2563 C1824 1.957 . S
C2577 C1665 1.954 . S
C2583 C1453 1.951 . S
C2597 C1718 1.867 . S
C2603 C1506 1.878 . S
C2617 C1628 1.918 . S
C2623 C1559 1.889 . S
C2637 C833 2.351 . S
C2643 C38 2.348 . S
C2657 C886 2.230 . S
C2663 C91 2.227 . S
C2677 C144 2.463 . S
C2683 C939 2.457 . S
C2697 C197 2.463 . S
C2703 C1310 2.459 . S
C2717 C250 2.230 . S
C2723 C1363 2.223 . S
C2737 C303 2.351 . S
C2743 C1416 2.348 . S
C2757 C340 1.721 . S
C2763 C1787 1.725 . S
C2777 C409 1.989 . S
C2783 C1840 1.979 . S
C2797 C462 1.476 . S
C2803 C1877 1.458 . S
C2817 C515 1.480 . S
C2823 C976 1.463 . S
C2837 C1045 1.981 . S
C2843 C568 1.980 . S
C2857 C1098 1.726 . S
C2863 C605 1.723 . S
C2877 C1469 2.737 . S
C2883 C674 2.732 . S
C2897 C727 2.616 . S
C2903 C1522 2.612 . S
C2917 C1575 2.731 . S
C2923 C780 2.736 . S
C2937 C1151 1.930 . S
C2943 C1612 1.918 . S
C2957 C1681 2.347 . S
C2963 C1204 2.350 . S
C2977 C1734 1.925 . S
C2983 C1241 1.925 . S
C2997 C39 2.264 . S
C3003 C1576 2.284 . S
C3017 C92 2.025 . S
C3023 C1470 2.037 . S
C3037 C145 1.938 . S
C3043 C1523 1.946 . S
C3057 C198 1.935 . S
C3063 C728 1.961 . S
C3077 C781 2.023 . S
C3083 C251 2.018 . S
C3097 C675 2.265 . S
C3103 C304 2.264 . S
C3117 C1248 1.386 . S
C3123 C347 1.365 . S
C3137 C1152 1.664 . S
C3143 C410 1.654 . S
C3157 C1205 1.757 . S
C3163 C463 1.756 . S
C3177 C1682 1.764 . S
C3183 C516 1.755 . S
C3197 C1735 1.668 . S
C3203 C569 1.672 . S
C3217 C1619 1.393 . S
C3223 C612 1.378 . S
C3237 C834 1.595 . S
C3243 C1364 1.605 . S
C3257 C1417 1.596 . S
C3263 C887 1.585 . S
C3277 C1311 1.986 . S
C3283 C940 1.999 . S
C3297 C983 0.986 . S
C3303 C1884 0.961 . S
C3317 C1788 1.380 . S
C3323 C1046 1.389 . S
C3337 C1099 1.401 . S
C3343 C1841 1.385 . S
