# Generated by pormake.
# Topology uot, (4)-cn, num edge types: 1
# Building blocks:
#     Node 0, Type 0, BuildingBlock: NAHDIM_clean_sbu_0, # of connection points: 4
#     Node 1, Type 0, BuildingBlock: NAHDIM_clean_sbu_0, # of connection points: 4
#     Node 2, Type 0, BuildingBlock: NAHDIM_clean_sbu_0, # of connection points: 4
#     Node 3, Type 0, BuildingBlock: NAHDIM_clean_sbu_0, # of connection points: 4
#     Node 4, Type 0, BuildingBlock: NAHDIM_clean_sbu_0, # of connection points: 4
#     Node 5, Type 0, BuildingBlock: NAHDIM_clean_sbu_0, # of connection points: 4
#     Node 6, Type 0, BuildingBlock: NAHDIM_clean_sbu_0, # of connection points: 4
#     Node 7, Type 0, BuildingBlock: NAHDIM_clean_sbu_0, # of connection points: 4
#     Node 8, Type 0, BuildingBlock: NAHDIM_clean_sbu_0, # of connection points: 4
#     Node 9, Type 0, BuildingBlock: NAHDIM_clean_sbu_0, # of connection points: 4
#     Node 10, Type 0, BuildingBlock: NAHDIM_clean_sbu_0, # of connection points: 4
#     Node 11, Type 0, BuildingBlock: NAHDIM_clean_sbu_0, # of connection points: 4
#     Node 12, Type 0, BuildingBlock: NAHDIM_clean_sbu_0, # of connection points: 4
#     Node 13, Type 0, BuildingBlock: NAHDIM_clean_sbu_0, # of connection points: 4
#     Node 14, Type 0, BuildingBlock: NAHDIM_clean_sbu_0, # of connection points: 4
#     Node 15, Type 0, BuildingBlock: NAHDIM_clean_sbu_0, # of connection points: 4
#     Edge 16, Type (0, 0), BuildingBlock: XIVTED_clean_linker_0, # of connection points: 2
#     Edge 17, Type (0, 0), BuildingBlock: XIVTED_clean_linker_0, # of connection points: 2
#     Edge 18, Type (0, 0), BuildingBlock: XIVTED_clean_linker_0, # of connection points: 2
#     Edge 19, Type (0, 0), BuildingBlock: XIVTED_clean_linker_0, # of connection points: 2
#     Edge 20, Type (0, 0), BuildingBlock: XIVTED_clean_linker_0, # of connection points: 2
#     Edge 21, Type (0, 0), BuildingBlock: XIVTED_clean_linker_0, # of connection points: 2
#     Edge 22, Type (0, 0), BuildingBlock: XIVTED_clean_linker_0, # of connection points: 2
#     Edge 23, Type (0, 0), BuildingBlock: XIVTED_clean_linker_0, # of connection points: 2
#     Edge 24, Type (0, 0), BuildingBlock: XIVTED_clean_linker_0, # of connection points: 2
#     Edge 25, Type (0, 0), BuildingBlock: XIVTED_clean_linker_0, # of connection points: 2
#     Edge 26, Type (0, 0), BuildingBlock: XIVTED_clean_linker_0, # of connection points: 2
#     Edge 27, Type (0, 0), BuildingBlock: XIVTED_clean_linker_0, # of connection points: 2
#     Edge 28, Type (0, 0), BuildingBlock: XIVTED_clean_linker_0, # of connection points: 2
#     Edge 29, Type (0, 0), BuildingBlock: XIVTED_clean_linker_0, # of connection points: 2
#     Edge 30, Type (0, 0), BuildingBlock: XIVTED_clean_linker_0, # of connection points: 2
#     Edge 31, Type (0, 0), BuildingBlock: XIVTED_clean_linker_0, # of connection points: 2
#     Edge 32, Type (0, 0), BuildingBlock: XIVTED_clean_linker_0, # of connection points: 2
#     Edge 33, Type (0, 0), BuildingBlock: XIVTED_clean_linker_0, # of connection points: 2
#     Edge 34, Type (0, 0), BuildingBlock: XIVTED_clean_linker_0, # of connection points: 2
#     Edge 35, Type (0, 0), BuildingBlock: XIVTED_clean_linker_0, # of connection points: 2
#     Edge 36, Type (0, 0), BuildingBlock: XIVTED_clean_linker_0, # of connection points: 2
#     Edge 37, Type (0, 0), BuildingBlock: XIVTED_clean_linker_0, # of connection points: 2
#     Edge 38, Type (0, 0), BuildingBlock: XIVTED_clean_linker_0, # of connection points: 2
#     Edge 39, Type (0, 0), BuildingBlock: XIVTED_clean_linker_0, # of connection points: 2
#     Edge 40, Type (0, 0), BuildingBlock: XIVTED_clean_linker_0, # of connection points: 2
#     Edge 41, Type (0, 0), BuildingBlock: XIVTED_clean_linker_0, # of connection points: 2
#     Edge 42, Type (0, 0), BuildingBlock: XIVTED_clean_linker_0, # of connection points: 2
#     Edge 43, Type (0, 0), BuildingBlock: XIVTED_clean_linker_0, # of connection points: 2
#     Edge 44, Type (0, 0), BuildingBlock: XIVTED_clean_linker_0, # of connection points: 2
#     Edge 45, Type (0, 0), BuildingBlock: XIVTED_clean_linker_0, # of connection points: 2
#     Edge 46, Type (0, 0), BuildingBlock: XIVTED_clean_linker_0, # of connection points: 2
#     Edge 47, Type (0, 0), BuildingBlock: XIVTED_clean_linker_0, # of connection points: 2
# Relax obj value: 0.173
# Max RMSD: 0.206
# Mean RMSD: 0.206
data_MOF--net-uot--node1-NAHDIM_clean_sbu_0--edge1-XIVTED_clean_linker_0
_symmetry_space_group_name_H-M    P1
_symmetry_Int_Tables_number       1
_symmetry_cell_setting            triclinic
loop_
_symmetry_equiv_pos_as_xyz
'x, y, z'
_cell_length_a     44.177833
_cell_length_b     44.181397
_cell_length_c     39.331041
_cell_angle_alpha  90.020006
_cell_angle_beta   90.019657
_cell_angle_gamma 90.083331
loop_
_atom_site_label
_atom_site_type_symbol
_atom_site_fract_x
_atom_site_fract_y
_atom_site_fract_z
_atom_type_partial_charge
C0 C 0.29511 0.44923 0.30721 0.0
O1 O 0.29439 0.46878 0.33238 0.0
O2 O 0.19812 0.43003 0.29224 0.0
Zn3 Zn 0.23054 0.45977 0.30575 0.0
O4 O 0.22969 0.46567 0.35638 0.0
C5 C 0.2148 0.50347 0.25329 0.0
O6 O 0.21678 0.48022 0.23257 0.0
O7 O 0.27079 0.44311 0.29138 0.0
C8 C 0.20496 0.47402 0.36991 0.0
O9 O 0.18106 0.47784 0.35049 0.0
C10 C 0.18985 0.40843 0.31149 0.0
O11 O 0.20292 0.40503 0.34125 0.0
O12 O 0.22099 0.49993 0.28457 0.0
C13 C 0.42263 0.71931 0.71778 0.0
O14 O 0.41618 0.74212 0.73796 0.0
O15 O 0.41867 0.7954 0.68859 0.0
Zn16 Zn 0.45228 0.76589 0.67874 0.0
O17 O 0.46008 0.76661 0.6285 0.0
C18 C 0.48751 0.79267 0.7322 0.0
O19 O 0.46064 0.79568 0.7461 0.0
O20 O 0.43895 0.72399 0.69172 0.0
C21 C 0.48327 0.75478 0.61488 0.0
O22 O 0.5033 0.74109 0.63417 0.0
C23 C 0.41665 0.8196 0.67129 0.0
O24 O 0.43643 0.82471 0.64702 0.0
O25 O 0.48977 0.77939 0.70365 0.0
C26 C 0.73203 0.56928 0.27587 0.0
O27 O 0.75549 0.57625 0.2569 0.0
O28 O 0.8084 0.56978 0.30264 0.0
Zn29 Zn 0.7772 0.53878 0.31627 0.0
O30 O 0.7772 0.53292 0.36685 0.0
C31 C 0.79473 0.49663 0.26362 0.0
O32 O 0.792 0.52039 0.24378 0.0
O33 O 0.73585 0.55268 0.3019 0.0
C34 C 0.8014 0.52622 0.38259 0.0
O35 O 0.82684 0.52393 0.36549 0.0
C36 C 0.81765 0.59116 0.32163 0.0
O37 O 0.80645 0.59407 0.35239 0.0
O38 O 0.7885 0.49911 0.29502 0.0
C39 C 0.54901 0.28384 0.68305 0.0
O40 O 0.52907 0.2825 0.65831 0.0
O41 O 0.57307 0.18778 0.69441 0.0
Zn42 Zn 0.54096 0.21876 0.68414 0.0
O43 O 0.53111 0.21871 0.63422 0.0
C44 C 0.50552 0.19374 0.73853 0.0
O45 O 0.53222 0.19131 0.753 0.0
O46 O 0.55649 0.25965 0.69836 0.0
C47 C 0.51966 0.19519 0.62074 0.0
O48 O 0.51498 0.17113 0.63967 0.0
C49 C 0.58983 0.17449 0.67282 0.0
O50 O 0.58733 0.18121 0.64041 0.0
O51 O 0.50351 0.20644 0.70963 0.0
C52 C 0.27692 0.55261 0.69271 0.0
O53 O 0.27967 0.53262 0.66818 0.0
O54 O 0.17937 0.57262 0.68605 0.0
Zn55 Zn 0.21253 0.54143 0.68435 0.0
O56 O 0.21848 0.52963 0.63552 0.0
C57 C 0.18272 0.50798 0.73716 0.0
O58 O 0.17848 0.53522 0.74969 0.0
O59 O 0.25075 0.55883 0.70406 0.0
C60 C 0.19493 0.52271 0.61866 0.0
O61 O 0.16846 0.52347 0.63388 0.0
C62 C 0.18191 0.5981 0.70077 0.0
O63 O 0.20764 0.60536 0.71542 0.0
O64 O 0.19807 0.50497 0.71005 0.0
C65 C 0.56044 0.70951 0.28982 0.0
O66 O 0.53972 0.70636 0.31351 0.0
O67 O 0.57953 0.80672 0.29514 0.0
Zn68 Zn 0.54895 0.77327 0.29978 0.0
O69 O 0.54086 0.76616 0.34958 0.0
C70 C 0.51192 0.80145 0.24887 0.0
O71 O 0.53843 0.80715 0.23513 0.0
O72 O 0.56694 0.73587 0.27917 0.0
C73 C 0.51725 0.7765 0.3639 0.0
O74 O 0.49766 0.79198 0.34581 0.0
C75 C 0.57657 0.83166 0.31087 0.0
O76 O 0.55319 0.83553 0.33103 0.0
O77 O 0.51071 0.78596 0.27604 0.0
C78 C 0.70201 0.44685 0.69032 0.0
O79 O 0.70346 0.46567 0.66452 0.0
O80 O 0.79799 0.42728 0.70586 0.0
Zn81 Zn 0.76641 0.45856 0.69457 0.0
O82 O 0.76744 0.46745 0.64451 0.0
C83 C 0.78683 0.49855 0.7488 0.0
O84 O 0.78897 0.4735 0.76662 0.0
O85 O 0.72575 0.44168 0.70762 0.0
C86 C 0.79168 0.4776 0.63135 0.0
O87 O 0.81561 0.48146 0.65072 0.0
C88 C 0.80733 0.40795 0.68433 0.0
O89 O 0.79626 0.40815 0.65334 0.0
O90 O 0.77657 0.49735 0.71865 0.0
C91 C 0.44617 0.28523 0.30733 0.0
O92 O 0.46644 0.28397 0.33174 0.0
O93 O 0.42355 0.18852 0.29451 0.0
Zn94 Zn 0.45441 0.2204 0.30653 0.0
O95 O 0.46224 0.22032 0.35688 0.0
C96 C 0.49295 0.19815 0.25338 0.0
O97 O 0.46692 0.19454 0.23772 0.0
O98 O 0.43839 0.26098 0.29227 0.0
C99 C 0.46959 0.196 0.37198 0.0
O100 O 0.47148 0.17079 0.3544 0.0
C101 C 0.40305 0.17879 0.31439 0.0
O102 O 0.40093 0.18995 0.34526 0.0
O103 O 0.4933 0.21012 0.28276 0.0
C104 C 0.77996 0.94439 0.80921 0.0
O105 O 0.78069 0.96652 0.83149 0.0
O106 O 0.68231 0.92186 0.80264 0.0
Zn107 Zn 0.71496 0.95184 0.81445 0.0
O108 O 0.71678 0.95716 0.86534 0.0
C109 C 0.701 0.99436 0.76067 0.0
O110 O 0.70482 0.97072 0.74086 0.0
O111 O 0.75459 0.93538 0.79778 0.0
C112 C 0.72298 0.98274 0.87845 0.0
O113 O 0.72834 0.00592 0.85841 0.0
C114 C 0.65764 0.92079 0.81919 0.0
O115 O 0.65349 0.93956 0.84467 0.0
O116 O 0.70488 0.99154 0.79251 0.0
C117 C 0.95563 0.20723 0.19947 0.0
O118 O 0.97655 0.2067 0.17575 0.0
O119 O 0.9317 0.30438 0.20678 0.0
Zn120 Zn 0.9619 0.27238 0.19333 0.0
O121 O 0.96423 0.27027 0.14228 0.0
C122 C 0.00931 0.28576 0.2429 0.0
O123 O 0.9893 0.27701 0.26559 0.0
O124 O 0.94725 0.23253 0.21158 0.0
C125 C 0.9889 0.26534 0.12665 0.0
O126 O 0.01374 0.2606 0.14422 0.0
C127 C 0.91679 0.31968 0.18514 0.0
O128 O 0.92091 0.31467 0.15255 0.0
O129 O 0.00257 0.28459 0.21154 0.0
C130 C 0.2399 0.0807 0.805 0.0
O131 O 0.26293 0.08728 0.82485 0.0
O132 O 0.31192 0.05713 0.79387 0.0
Zn133 Zn 0.27583 0.03072 0.80425 0.0
O134 O 0.27363 0.0229 0.85457 0.0
C135 C 0.29051 0.99258 0.74815 0.0
O136 O 0.2943 0.01897 0.73333 0.0
O137 O 0.2389 0.05469 0.79122 0.0
C138 C 0.27996 0.99773 0.86844 0.0
O139 O 0.28875 0.97495 0.8494 0.0
C140 C 0.33453 0.06082 0.8134 0.0
O141 O 0.33575 0.04601 0.84232 0.0
O142 O 0.28065 0.9918 0.77847 0.0
C143 C 0.04941 0.78726 0.19196 0.0
O144 O 0.02841 0.78756 0.1683 0.0
O145 O 0.07199 0.69004 0.19955 0.0
Zn146 Zn 0.04133 0.72224 0.18824 0.0
O147 O 0.03452 0.72383 0.13774 0.0
C148 C 0.99638 0.71054 0.24143 0.0
O149 O 0.01748 0.71947 0.26276 0.0
O150 O 0.05738 0.76213 0.20483 0.0
C151 C 0.02691 0.6997 0.12234 0.0
O152 O 0.02442 0.67443 0.13974 0.0
C153 C 0.09261 0.68158 0.17911 0.0
O154 O 0.09449 0.69413 0.14891 0.0
O155 O 0.00171 0.71093 0.20971 0.0
C156 C 0.79462 0.05395 0.19979 0.0
O157 O 0.7949 0.03233 0.17686 0.0
O158 O 0.69771 0.07809 0.20157 0.0
Zn159 Zn 0.72986 0.04652 0.19448 0.0
O160 O 0.73308 0.0381 0.14416 0.0
C161 C 0.70231 0.01054 0.24699 0.0
O162 O 0.69697 0.03726 0.26036 0.0
O163 O 0.76942 0.06284 0.21172 0.0
C164 C 0.72693 0.0124 0.13134 0.0
O165 O 0.71868 0.99012 0.15142 0.0
C166 C 0.67302 0.0766 0.18507 0.0
O167 O 0.66914 0.05459 0.163 0.0
O168 O 0.71726 0.00886 0.21946 0.0
C169 C 0.08032 0.23996 0.80277 0.0
O170 O 0.087 0.26404 0.82092 0.0
O171 O 0.05235 0.31022 0.79373 0.0
Zn172 Zn 0.02849 0.27293 0.80595 0.0
O173 O 0.02384 0.27075 0.85675 0.0
C174 C 0.98521 0.28408 0.75282 0.0
O175 O 0.00972 0.28675 0.73415 0.0
O176 O 0.05347 0.23701 0.79158 0.0
C177 C -0.00042 0.27752 0.8723 0.0
O178 O 0.97598 0.28672 0.85482 0.0
C179 C 0.05299 0.33422 0.81151 0.0
O180 O 0.03638 0.33595 0.83914 0.0
O181 O 0.98777 0.2761 0.7837 0.0
C182 C 0.20823 0.94349 0.19379 0.0
O183 O 0.20745 0.9652 0.17099 0.0
O184 O 0.30637 0.92221 0.19884 0.0
Zn185 Zn 0.273 0.9514 0.18761 0.0
O186 O 0.27088 0.95508 0.13662 0.0
C187 C 0.28513 0.99737 0.23919 0.0
O188 O 0.27755 0.97612 0.26095 0.0
O189 O 0.23365 0.93492 0.20544 0.0
C190 C 0.26544 0.98023 0.12222 0.0
O191 O 0.26019 0.00423 0.14102 0.0
C192 C 0.33132 0.9244 0.18293 0.0
O193 O 0.33446 0.94569 0.15988 0.0
O194 O 0.28384 0.99184 0.20753 0.0
C195 C 0.94064 0.79009 0.80921 0.0
O196 O 0.96345 0.79128 0.83061 0.0
O197 O 0.92217 0.69162 0.80201 0.0
Zn198 Zn 0.95167 0.72557 0.81135 0.0
O199 O 0.96222 0.72684 0.86103 0.0
C200 C 0.99023 0.70362 0.75756 0.0
O201 O 0.96439 0.69503 0.74409 0.0
O202 O 0.93241 0.76464 0.79731 0.0
C203 C 0.9756 0.70421 0.87409 0.0
O204 O 0.98164 0.68065 0.85486 0.0
C205 C 0.9062 0.67865 0.82463 0.0
O206 O 0.90841 0.68739 0.85645 0.0
O207 O 0.99008 0.71801 0.78552 0.0
H208 H 0.34894 0.45028 0.342 0.0
H209 H 0.40442 0.29608 0.25742 0.0
H210 H 0.30373 0.40618 0.25815 0.0
H211 H 0.44978 0.33901 0.34193 0.0
H212 H 0.37216 0.34051 0.25159 0.0
H213 H 0.39066 0.41431 0.33658 0.0
C214 C 0.34797 0.43334 0.32212 0.0
C215 C 0.32256 0.43094 0.30085 0.0
C216 C 0.38938 0.3404 0.27119 0.0
C217 C 0.37011 0.38958 0.29468 0.0
C218 C 0.40784 0.315 0.27453 0.0
C219 C 0.42954 0.31362 0.30055 0.0
C220 C 0.39244 0.36454 0.29419 0.0
C221 C 0.43315 0.33896 0.32171 0.0
C222 C 0.37178 0.41276 0.31909 0.0
C223 C 0.32266 0.40865 0.27541 0.0
N224 N 0.41451 0.36323 0.31835 0.0
N225 N 0.34587 0.38863 0.27331 0.0
H226 H 0.38007 0.7037 0.76533 0.0
H227 H 0.33447 0.55247 0.66658 0.0
H228 H 0.42943 0.66792 0.67956 0.0
H229 H 0.27917 0.59497 0.74343 0.0
H230 H 0.37494 0.58856 0.67916 0.0
H231 H 0.34878 0.65809 0.76574 0.0
C232 C 0.38466 0.68607 0.7469 0.0
C233 C 0.40706 0.68989 0.72198 0.0
C234 C 0.35409 0.58973 0.69356 0.0
C235 C 0.37118 0.63771 0.72219 0.0
C236 C 0.33098 0.56908 0.68645 0.0
C237 C 0.30319 0.57102 0.70357 0.0
C238 C 0.34935 0.61246 0.71797 0.0
C239 C 0.30006 0.5929 0.72924 0.0
C240 C 0.36672 0.66005 0.74711 0.0
C241 C 0.41213 0.66614 0.69894 0.0
N242 N 0.32272 0.61297 0.73538 0.0
N243 N 0.39407 0.64123 0.69934 0.0
H244 H 0.56047 0.65207 0.31619 0.0
H245 H 0.71746 0.61114 0.22721 0.0
H246 H 0.60447 0.70801 0.24093 0.0
H247 H 0.67923 0.56122 0.31127 0.0
H248 H 0.6709 0.64068 0.22353 0.0
H249 H 0.59822 0.6127 0.30608 0.0
C250 C 0.57775 0.6559 0.29714 0.0
C251 C 0.57964 0.68361 0.27983 0.0
C252 C 0.67255 0.62301 0.24251 0.0
C253 C 0.623 0.63874 0.26831 0.0
C254 C 0.69913 0.60608 0.2446 0.0
C255 C 0.70246 0.58403 0.26999 0.0
C256 C 0.64916 0.61788 0.26601 0.0
C257 C 0.67782 0.5783 0.2916 0.0
C258 C 0.59936 0.63343 0.29145 0.0
C259 C 0.60241 0.68719 0.25525 0.0
N260 N 0.65236 0.59537 0.28939 0.0
N261 N 0.62341 0.66517 0.25053 0.0
H262 H 0.54494 0.33795 0.64918 0.0
H263 H 0.69189 0.40503 0.74042 0.0
H264 H 0.59138 0.29444 0.73246 0.0
H265 H 0.64975 0.44587 0.65268 0.0
H266 H 0.64998 0.36918 0.74396 0.0
H267 H 0.57779 0.3821 0.65615 0.0
C268 C 0.56176 0.33782 0.66923 0.0
C269 C 0.5657 0.31226 0.68995 0.0
C270 C 0.6497 0.38619 0.72415 0.0
C271 C 0.60345 0.36267 0.69793 0.0
C272 C 0.67363 0.40673 0.72214 0.0
C273 C 0.67459 0.42822 0.69588 0.0
C274 C 0.62658 0.387 0.69964 0.0
C275 C 0.65012 0.4295 0.67314 0.0
C276 C 0.58055 0.36303 0.67314 0.0
C277 C 0.58775 0.31347 0.71562 0.0
N278 N 0.6273 0.40891 0.67529 0.0
N279 N 0.60598 0.33811 0.71865 0.0
H280 H 0.78689 0.89948 0.76204 0.0
H281 H 0.94546 0.84644 0.83814 0.0
H282 H 0.83604 0.94948 0.83861 0.0
H283 H 0.89364 0.79567 0.76448 0.0
H284 H 0.91015 0.88865 0.83171 0.0
H285 H 0.83021 0.86587 0.75551 0.0
C286 C 0.80695 0.90362 0.77721 0.0
C287 C 0.80765 0.92702 0.80132 0.0
C288 C 0.90674 0.8684 0.81666 0.0
C289 C 0.85729 0.88839 0.79421 0.0
C290 C 0.92692 0.8443 0.82027 0.0
C291 C 0.92221 0.81729 0.80223 0.0
C292 C 0.8817 0.86541 0.79487 0.0
C293 C 0.89791 0.81589 0.77928 0.0
C294 C 0.8317 0.88439 0.77348 0.0
C295 C 0.83439 0.93154 0.81995 0.0
N296 N 0.87841 0.83946 0.77654 0.0
N297 N 0.85801 0.91211 0.81635 0.0
H298 H 0.80239 0.09809 0.24782 0.0
H299 H 0.96041 0.15092 0.17054 0.0
H300 H 0.85059 0.04853 0.17029 0.0
H301 H 0.91066 0.20064 0.2467 0.0
H302 H 0.92526 0.10859 0.17744 0.0
H303 H 0.84632 0.13094 0.25498 0.0
C304 C 0.82236 0.09387 0.23257 0.0
C305 C 0.82261 0.07084 0.20799 0.0
C306 C 0.9223 0.1286 0.19299 0.0
C307 C 0.87297 0.1086 0.21586 0.0
C308 C 0.94242 0.15277 0.18913 0.0
C309 C 0.93815 0.1796 0.20763 0.0
C310 C 0.89772 0.13134 0.21543 0.0
C311 C 0.91457 0.18059 0.23151 0.0
C312 C 0.84747 0.11266 0.23668 0.0
C313 C 0.84926 0.06621 0.18928 0.0
N314 N 0.89502 0.15699 0.23439 0.0
N315 N 0.87323 0.08522 0.19325 0.0
H316 H 0.14071 0.24663 0.81152 0.0
H317 H 0.18301 0.07328 0.77698 0.0
H318 H 0.07369 0.18093 0.78068 0.0
H319 H 0.24289 0.14044 0.82001 0.0
H320 H 0.14368 0.11241 0.77127 0.0
H321 H 0.17955 0.20821 0.80705 0.0
C322 C 0.13415 0.22404 0.80369 0.0
C323 C 0.10385 0.21687 0.7969 0.0
C324 C 0.16553 0.11847 0.78177 0.0
C325 C 0.14846 0.17236 0.79196 0.0
C326 C 0.18793 0.09622 0.78498 0.0
C327 C 0.21614 0.10359 0.79928 0.0
C328 C 0.17165 0.14816 0.79267 0.0
C329 C 0.2214 0.1336 0.8092 0.0
C330 C 0.15641 0.20203 0.80113 0.0
C331 C 0.09682 0.18731 0.78632 0.0
N332 N 0.19941 0.15466 0.80577 0.0
N333 N 0.11899 0.16594 0.78449 0.0
H334 H 0.20148 0.89847 0.24097 0.0
H335 H 0.04438 0.84346 0.16282 0.0
H336 H 0.15208 0.94823 0.16457 0.0
H337 H 0.09476 0.79408 0.23874 0.0
H338 H 0.07902 0.88619 0.16996 0.0
H339 H 0.15829 0.86451 0.24739 0.0
C340 C 0.18139 0.90251 0.22584 0.0
C341 C 0.1806 0.92594 0.20177 0.0
C342 C 0.08225 0.86616 0.18538 0.0
C343 C 0.13111 0.8869 0.20876 0.0
C344 C 0.06243 0.84175 0.18136 0.0
C345 C 0.06697 0.81493 0.19979 0.0
C346 C 0.10682 0.86368 0.2079 0.0
C347 C 0.09063 0.81412 0.22362 0.0
C348 C 0.15671 0.88307 0.2295 0.0
C349 C 0.15382 0.93027 0.18317 0.0
N350 N 0.10986 0.83797 0.22667 0.0
N351 N 0.13029 0.91066 0.18671 0.0
H352 H 0.19864 0.5522 0.292 0.0
H353 H 0.12988 0.64807 0.13805 0.0
H354 H 0.20048 0.52063 0.18809 0.0
H355 H 0.10353 0.6598 0.24291 0.0
H356 H 0.16329 0.60653 0.1553 0.0
H357 H 0.17179 0.59744 0.27342 0.0
C358 C 0.19371 0.5549 0.26519 0.0
C359 C 0.20161 0.53241 0.24159 0.0
C360 C 0.15025 0.61832 0.17447 0.0
C361 C 0.17076 0.58424 0.22022 0.0
C362 C 0.13127 0.64205 0.1647 0.0
C363 C 0.11378 0.65728 0.18908 0.0
C364 C 0.15204 0.61012 0.20889 0.0
C365 C 0.11642 0.64852 0.22323 0.0
C366 C 0.17823 0.5807 0.25465 0.0
C367 C 0.19463 0.53727 0.20718 0.0
N368 N 0.13521 0.62556 0.23212 0.0
N369 N 0.17948 0.56264 0.19751 0.0
H370 H 0.54595 0.79349 0.70874 0.0
H371 H 0.60212 0.91247 0.8488 0.0
H372 H 0.48986 0.82595 0.79087 0.0
H373 H 0.65815 0.88012 0.76657 0.0
H374 H 0.56184 0.87833 0.83022 0.0
H375 H 0.58849 0.82216 0.73202 0.0
C376 C 0.54263 0.80643 0.73184 0.0
C377 C 0.51421 0.80748 0.74774 0.0
C378 C 0.58299 0.8786 0.81632 0.0
C379 C 0.56281 0.84054 0.77441 0.0
C380 C 0.60601 0.89812 0.82692 0.0
C381 C 0.63351 0.89932 0.8091 0.0
C382 C 0.58744 0.86016 0.78765 0.0
C383 C 0.63729 0.88008 0.781 0.0
C384 C 0.56693 0.82285 0.74509 0.0
C385 C 0.5113 0.82458 0.77765 0.0
N386 N 0.61447 0.86141 0.77106 0.0
N387 N 0.53523 0.84059 0.78988 0.0
H388 H 0.89959 0.3332 0.25026 0.0
H389 H 0.8096 0.48255 0.19783 0.0
H390 H 0.886 0.36066 0.14602 0.0
H391 H 0.81101 0.44634 0.29978 0.0
H392 H 0.83649 0.43756 0.17795 0.0
H393 H 0.86647 0.3742 0.26868 0.0
C394 C 0.88956 0.34778 0.23122 0.0
C395 C 0.89573 0.34359 0.19654 0.0
C396 C 0.83068 0.43936 0.20462 0.0
C397 C 0.85782 0.39067 0.21749 0.0
C398 C 0.81532 0.46504 0.21598 0.0
C399 C 0.80823 0.46833 0.25056 0.0
C400 C 0.83922 0.41694 0.22805 0.0
C401 C 0.8161 0.44485 0.27291 0.0
C402 C 0.87057 0.37116 0.24176 0.0
C403 C 0.88196 0.36311 0.17302 0.0
N404 N 0.83141 0.4203 0.26132 0.0
N405 N 0.86381 0.38594 0.18394 0.0
H406 H 0.50234 0.16147 0.79796 0.0
H407 H 0.33659 0.09791 0.75784 0.0
H408 H 0.44826 0.18979 0.71224 0.0
H409 H 0.38763 0.07288 0.84713 0.0
H410 H 0.37674 0.13305 0.74206 0.0
H411 H 0.45983 0.13089 0.81813 0.0
C412 C 0.48144 0.16153 0.78356 0.0
C413 C 0.47895 0.17808 0.75322 0.0
C414 C 0.37917 0.11996 0.76517 0.0
C415 C 0.43032 0.14289 0.77601 0.0
C416 C 0.35626 0.09978 0.77417 0.0
C417 C 0.3588 0.08227 0.8038 0.0
C418 C 0.40496 0.12265 0.78583 0.0
C419 C 0.38476 0.08584 0.82401 0.0
C420 C 0.4572 0.14399 0.79506 0.0
C421 C 0.45128 0.17732 0.73568 0.0
N422 N 0.4069 0.10554 0.81458 0.0
N423 N 0.42816 0.15983 0.74719 0.0
H424 H 0.14525 0.50661 0.79271 0.0
H425 H 0.09334 0.33576 0.75892 0.0
H426 H 0.18307 0.44944 0.71449 0.0
H427 H 0.05915 0.38986 0.84187 0.0
H428 H 0.12707 0.37711 0.74321 0.0
H429 H 0.11483 0.46385 0.81258 0.0
C430 C 0.14739 0.48501 0.77991 0.0
C431 C 0.16662 0.48166 0.75175 0.0
C432 C 0.11225 0.37997 0.7649 0.0
C433 C 0.13167 0.43275 0.77417 0.0
C434 C 0.09288 0.35637 0.77383 0.0
C435 C 0.07327 0.35938 0.8017 0.0
C436 C 0.11202 0.40691 0.78384 0.0
C437 C 0.07382 0.38658 0.82015 0.0
C438 C 0.12995 0.46063 0.79122 0.0
C439 C 0.16848 0.45313 0.7362 0.0
N440 N 0.09283 0.40935 0.81083 0.0
N441 N 0.15108 0.42986 0.74748 0.0
H442 H 0.3332 0.87891 0.23029 0.0
H443 H 0.50679 0.83872 0.19356 0.0
H444 H 0.38721 0.92262 0.15305 0.0
H445 H 0.45407 0.79756 0.27363 0.0
H446 H 0.4619 0.86643 0.17517 0.0
H447 H 0.37604 0.84607 0.24366 0.0
C448 C 0.35403 0.88155 0.21606 0.0
C449 C 0.35667 0.90369 0.19064 0.0
C450 C 0.46009 0.85118 0.19662 0.0
C451 C 0.4058 0.86613 0.20581 0.0
C452 C 0.48572 0.83528 0.20709 0.0
C453 C 0.48426 0.81593 0.23533 0.0
C454 C 0.4328 0.84778 0.21454 0.0
C455 C 0.4563 0.81233 0.25182 0.0
C456 C 0.37848 0.86277 0.2237 0.0
C457 C 0.38418 0.90598 0.17297 0.0
N458 N 0.43173 0.82826 0.24132 0.0
N459 N 0.40769 0.88752 0.18097 0.0
H460 H 0.79465 0.55166 0.71426 0.0
H461 H 0.87831 0.63766 0.8666 0.0
H462 H 0.80911 0.51069 0.81259 0.0
H463 H 0.88747 0.66247 0.76094 0.0
H464 H 0.84586 0.59518 0.84969 0.0
H465 H 0.82101 0.59695 0.73387 0.0
C466 C 0.80308 0.55227 0.74012 0.0
C467 C 0.79986 0.52719 0.76175 0.0
C468 C 0.85492 0.61002 0.83029 0.0
C469 C 0.83018 0.57907 0.78428 0.0
C470 C 0.87336 0.63429 0.83989 0.0
C471 C 0.88573 0.65354 0.81511 0.0
C472 C 0.84852 0.60525 0.79573 0.0
C473 C 0.8786 0.64809 0.78088 0.0
C474 C 0.81827 0.57811 0.75122 0.0
C475 C 0.81124 0.5294 0.795 0.0
N476 N 0.86045 0.62449 0.77222 0.0
N477 N 0.82601 0.55487 0.80524 0.0
H478 H 0.67179 0.12201 0.23251 0.0
H479 H 0.49933 0.16571 0.19446 0.0
H480 H 0.61791 0.08058 0.15353 0.0
H481 H 0.55031 0.20019 0.27982 0.0
H482 H 0.54457 0.13931 0.1747 0.0
H483 H 0.62945 0.15543 0.24593 0.0
C484 C 0.65113 0.12006 0.21783 0.0
C485 C 0.64832 0.09828 0.19203 0.0
C486 C 0.54591 0.15284 0.19761 0.0
C487 C 0.59973 0.13648 0.20729 0.0
C488 C 0.5201 0.16801 0.20887 0.0
C489 C 0.52093 0.18497 0.23903 0.0
C490 C 0.57277 0.15464 0.21663 0.0
C491 C 0.54854 0.1872 0.25656 0.0
C492 C 0.62695 0.13915 0.22553 0.0
C493 C 0.62103 0.09688 0.17379 0.0
N494 N 0.57329 0.17203 0.24523 0.0
N495 N 0.59775 0.11561 0.18189 0.0
H496 H 0.68788 0.04623 0.79549 0.0
H497 H 0.62074 0.13327 0.63381 0.0
H498 H 0.68779 0.00833 0.69427 0.0
H499 H 0.60593 0.16047 0.73793 0.0
H500 H 0.65189 0.09113 0.65411 0.0
H501 H 0.66468 0.09211 0.77319 0.0
C502 C 0.6832 0.04762 0.7685 0.0
C503 C 0.68952 0.02324 0.74676 0.0
C504 C 0.64195 0.10646 0.67244 0.0
C505 C 0.66281 0.07581 0.72106 0.0
C506 C 0.62425 0.13056 0.66089 0.0
C507 C 0.61053 0.15029 0.68423 0.0
C508 C 0.64611 0.10226 0.70753 0.0
C509 C 0.61585 0.14569 0.71902 0.0
C510 C 0.66987 0.07384 0.75579 0.0
C511 C 0.6831 0.02648 0.71198 0.0
N512 N 0.63313 0.12213 0.72959 0.0
N513 N 0.66992 0.05223 0.70022 0.0
H514 H 0.16432 0.40333 0.24845 0.0
H515 H 0.0321 0.29216 0.30754 0.0
H516 H 0.159 0.367 0.35016 0.0
H517 H 0.05219 0.31198 0.20242 0.0
H518 H 0.07787 0.31978 0.32431 0.0
H519 H 0.1223 0.37071 0.23165 0.0
C520 C 0.15436 0.38842 0.26725 0.0
C521 C 0.16513 0.38796 0.3008 0.0
C522 C 0.07234 0.31783 0.29758 0.0
C523 C 0.11686 0.3506 0.28174 0.0
C524 C 0.04623 0.30209 0.28798 0.0
C525 C 0.03817 0.29991 0.25354 0.0
C526 C 0.09032 0.33171 0.27256 0.0
C527 C 0.05739 0.31316 0.22929 0.0
C528 C 0.13042 0.36971 0.2576 0.0
C529 C 0.15142 0.36807 0.32402 0.0
N530 N 0.08238 0.32869 0.23929 0.0
N531 N 0.12782 0.35033 0.31412 0.0
H532 H 0.31739 0.98677 0.68579 0.0
H533 H 0.37488 0.81845 0.72284 0.0
H534 H 0.2916 0.9351 0.77436 0.0
H535 H 0.40539 0.87294 0.63839 0.0
H536 H 0.33904 0.85831 0.73807 0.0
H537 H 0.34395 0.94251 0.66377 0.0
C538 C 0.31695 0.96601 0.70041 0.0
C539 C 0.30254 0.96478 0.73218 0.0
C540 C 0.35343 0.86144 0.71607 0.0
C541 C 0.33319 0.91407 0.70725 0.0
C542 C 0.3739 0.83869 0.70735 0.0
C543 C 0.39339 0.84249 0.67949 0.0
C544 C 0.35242 0.88819 0.69679 0.0
C545 C 0.391 0.86913 0.66025 0.0
C546 C 0.33223 0.94075 0.68787 0.0
C547 C 0.3026 0.93717 0.74988 0.0
N548 N 0.37105 0.89103 0.66939 0.0
N549 N 0.31798 0.91301 0.73734 0.0
H550 H 0.83894 0.59722 0.25684 0.0
H551 H 0.97654 0.70529 0.30745 0.0
H552 H 0.85127 0.63185 0.35857 0.0
H553 H 0.95101 0.68501 0.20391 0.0
H554 H 0.93097 0.67895 0.32723 0.0
H555 H 0.88034 0.62934 0.23739 0.0
C556 C 0.85031 0.61168 0.2751 0.0
C557 C 0.84172 0.61174 0.30943 0.0
C558 C 0.93527 0.68052 0.30018 0.0
C559 C 0.88936 0.64856 0.28732 0.0
C560 C 0.96127 0.69553 0.28887 0.0
C561 C 0.96774 0.69718 0.25398 0.0
C562 C 0.9158 0.66686 0.27642 0.0
C563 C 0.94708 0.6842 0.23106 0.0
C564 C 0.87391 0.63011 0.26395 0.0
C565 C 0.85716 0.63109 0.33188 0.0
N566 N 0.92223 0.6694 0.2427 0.0
N567 N 0.88043 0.64856 0.32048 0.0
H568 H 0.66391 0.00663 0.3015 0.0
H569 H 0.62593 0.83191 0.26882 0.0
H570 H 0.7075 0.95203 0.22478 0.0
H571 H 0.57688 0.88819 0.33961 0.0
H572 H 0.65987 0.87423 0.25702 0.0
H573 H 0.636 0.96199 0.32061 0.0
C574 C 0.66787 0.9852 0.2889 0.0
C575 C 0.68789 0.98314 0.2613 0.0
C576 C 0.64179 0.87729 0.27527 0.0
C577 C 0.65586 0.932 0.28292 0.0
C578 C 0.62238 0.85311 0.28204 0.0
C579 C 0.59835 0.85657 0.30505 0.0
C580 C 0.63718 0.90518 0.29159 0.0
C581 C 0.59498 0.88455 0.32152 0.0
C582 C 0.65184 0.95974 0.29976 0.0
C583 C 0.69215 0.95474 0.24601 0.0
N584 N 0.61407 0.90783 0.31433 0.0
N585 N 0.67611 0.93035 0.25688 0.0
H586 H 0.8257 0.39239 0.74829 0.0
H587 H 0.97025 0.30121 0.68792 0.0
H588 H 0.84282 0.37354 0.64233 0.0
H589 H 0.93365 0.29446 0.78943 0.0
H590 H 0.92436 0.3279 0.6701 0.0
H591 H 0.86624 0.3575 0.76376 0.0
C592 C 0.83794 0.38083 0.72827 0.0
C593 C 0.83098 0.38597 0.69397 0.0
C594 C 0.92625 0.32018 0.69614 0.0
C595 C 0.87753 0.34613 0.7115 0.0
C596 C 0.95241 0.30494 0.70633 0.0
C597 C 0.95593 0.29582 0.74029 0.0
C598 C 0.90371 0.32672 0.72021 0.0
C599 C 0.93203 0.30119 0.76303 0.0
C600 C 0.86097 0.36079 0.73713 0.0
C601 C 0.84746 0.37022 0.6691 0.0
N602 N 0.90714 0.31666 0.7527 0.0
N603 N 0.87022 0.35124 0.67834 0.0
H604 H 0.3956 0.15707 0.24994 0.0
H605 H 0.29196 0.01756 0.30486 0.0
H606 H 0.36411 0.14453 0.35288 0.0
H607 H 0.30829 0.04324 0.20054 0.0
H608 H 0.31789 0.06373 0.32351 0.0
H609 H 0.36372 0.11501 0.23178 0.0
C610 C 0.38188 0.14552 0.26874 0.0
C611 C 0.38262 0.15426 0.30302 0.0
C612 C 0.31554 0.05934 0.29655 0.0
C613 C 0.3461 0.10586 0.28238 0.0
C614 C 0.30076 0.03299 0.28588 0.0
C615 C 0.29814 0.02638 0.25109 0.0
C616 C 0.328 0.07903 0.27223 0.0
C617 C 0.30989 0.04727 0.22763 0.0
C618 C 0.36359 0.12154 0.25832 0.0
C619 C 0.36423 0.13854 0.32619 0.0
N620 N 0.32451 0.07247 0.23864 0.0
N621 N 0.34688 0.11491 0.3155 0.0
H622 H 0.17703 0.65103 0.73668 0.0
H623 H -0.00099 0.6657 0.70333 0.0
H624 H 0.12604 0.59075 0.67183 0.0
H625 H 0.0476 0.7176 0.77877 0.0
H626 H 0.0469 0.64379 0.68449 0.0
H627 H 0.13132 0.68114 0.74547 0.0
C628 C 0.15631 0.64427 0.72404 0.0
C629 C 0.15528 0.61813 0.70381 0.0
C630 C 0.0471 0.66019 0.70496 0.0
C631 C 0.10291 0.65246 0.7138 0.0
C632 C 0.01977 0.67278 0.71567 0.0
C633 C 0.01924 0.69323 0.74296 0.0
C634 C 0.0741 0.66812 0.72163 0.0
C635 C 0.04688 0.70168 0.75786 0.0
C636 C 0.13021 0.66145 0.72911 0.0
C637 C 0.12782 0.61056 0.68792 0.0
N638 N 0.07316 0.68889 0.74719 0.0
N639 N 0.10269 0.62752 0.69345 0.0
H640 H 0.24613 0.5146 0.5803 0.0
H641 H 0.15462 0.48692 0.40756 0.0
H642 H 0.14856 0.51201 0.57423 0.0
H643 H 0.25125 0.47467 0.41634 0.0
H644 H 0.15222 0.49784 0.46832 0.0
H645 H 0.24878 0.50166 0.5199 0.0
C646 C 0.22527 0.51129 0.56629 0.0
C647 C 0.19707 0.51443 0.58233 0.0
C648 C 0.17395 0.49267 0.457 0.0
C649 C 0.19995 0.49972 0.51324 0.0
C650 C 0.17534 0.48648 0.42227 0.0
C651 C 0.20318 0.47991 0.40683 0.0
C652 C 0.20062 0.49252 0.47644 0.0
C653 C 0.22929 0.4796 0.4272 0.0
C654 C 0.2268 0.50384 0.53183 0.0
C655 C 0.17079 0.50981 0.56294 0.0
N656 N 0.22739 0.48594 0.46095 0.0
N657 N 0.17288 0.5028 0.52941 0.0
H658 H 0.55351 0.7464 0.40928 0.0
H659 H 0.44619 0.78181 0.56831 0.0
H660 H 0.46961 0.79604 0.40241 0.0
H661 H 0.53041 0.73287 0.57667 0.0
H662 H 0.45405 0.78608 0.5072 0.0
H663 H 0.54509 0.74005 0.4703 0.0
C664 C 0.53329 0.75592 0.42057 0.0
C665 C 0.51225 0.77185 0.4007 0.0
C666 C 0.47082 0.77436 0.52235 0.0
C667 C 0.50251 0.76467 0.47051 0.0
C668 C 0.46634 0.7719 0.5573 0.0
C669 C 0.48771 0.75698 0.5777 0.0
C670 C 0.49688 0.76186 0.50755 0.0
C671 C 0.51336 0.74459 0.56194 0.0
C672 C 0.52851 0.75229 0.45542 0.0
C673 C 0.48646 0.78365 0.4167 0.0
N674 N 0.51726 0.74734 0.52779 0.0
N675 N 0.48235 0.77985 0.45065 0.0
H676 H 0.84931 0.51702 0.42561 0.0
H677 H 0.74481 0.47883 0.58588 0.0
H678 H 0.75169 0.52145 0.42369 0.0
H679 H 0.84127 0.49327 0.59345 0.0
H680 H 0.74727 0.4914 0.5255 0.0
H681 H 0.84721 0.50558 0.48642 0.0
C682 C 0.82745 0.51564 0.43797 0.0
C683 C 0.80064 0.52016 0.41953 0.0
C684 C 0.76789 0.49188 0.54038 0.0
C685 C 0.79807 0.50692 0.48899 0.0
C686 C 0.76652 0.48461 0.57484 0.0
C687 C 0.79288 0.48501 0.59475 0.0
C688 C 0.79585 0.49937 0.5256 0.0
C689 C 0.82037 0.49273 0.57908 0.0
C690 C 0.82627 0.50916 0.47268 0.0
C691 C 0.77294 0.51817 0.43688 0.0
N692 N 0.82116 0.49952 0.54539 0.0
N693 N 0.77238 0.51156 0.47059 0.0
H694 H 0.47542 0.24508 0.41398 0.0
H695 H 0.50215 0.14677 0.58195 0.0
H696 H 0.47888 0.14742 0.41391 0.0
H697 H 0.51939 0.24285 0.57628 0.0
H698 H 0.48936 0.14681 0.52146 0.0
H699 H 0.48721 0.24492 0.47467 0.0
C700 C 0.47859 0.22358 0.42673 0.0
C701 C 0.47622 0.1962 0.40882 0.0
C702 C 0.49598 0.16786 0.53346 0.0
C703 C 0.48966 0.19589 0.47831 0.0
C704 C 0.50322 0.16788 0.56801 0.0
C705 C 0.51189 0.19485 0.58419 0.0
C706 C 0.49717 0.19505 0.51502 0.0
C707 C 0.51292 0.22152 0.56483 0.0
C708 C 0.48541 0.22353 0.46136 0.0
C709 C 0.4806 0.16906 0.42668 0.0
N710 N 0.50556 0.22096 0.53129 0.0
N711 N 0.48704 0.16958 0.46046 0.0
H712 H 0.74144 0.05401 0.08235 0.0
H713 H 0.7123 0.9399 0.92742 0.0
H714 H 0.7145 0.96075 0.09539 0.0
H715 H 0.73671 0.03387 0.91462 0.0
H716 H 0.71433 0.94667 0.98903 0.0
H717 H 0.74134 0.04659 0.02083 0.0
C718 C 0.73558 0.03194 0.0723 0.0
C719 C 0.7279 0.00798 0.09409 0.0
C720 C 0.71927 0.9658 0.97274 0.0
C721 C 0.72768 -0.00066 0.02361 0.0
C722 C 0.71811 0.96195 0.93754 0.0
C723 C 0.7243 0.98637 0.9158 0.0
C724 C 0.72668 0.99427 0.98634 0.0
C725 C 0.73172 0.01442 0.93038 0.0
C726 C 0.7355 0.02772 0.03714 0.0
C727 C 0.72052 0.97988 0.07958 0.0
N728 N 0.73268 0.0176 0.96472 0.0
N729 N 0.72055 0.97636 0.04526 0.0
H730 H 0.04478 0.26085 0.916 0.0
H731 H 0.94233 0.27743 0.08276 0.0
H732 H 0.95109 0.28853 0.91395 0.0
H733 H 0.03737 0.25483 0.08493 0.0
H734 H 0.94458 0.27982 0.0208 0.0
H735 H 0.04199 0.25693 0.97779 0.0
C736 C 0.02359 0.2661 0.92853 0.0
C737 C 0.99811 0.27507 0.90974 0.0
C738 C 0.96493 0.27429 0.03482 0.0
C739 C 0.99479 0.27059 0.98057 0.0
C740 C 0.96366 0.27287 0.07022 0.0
C741 C 0.98973 0.26596 0.08909 0.0
C742 C 0.99245 0.26872 0.01812 0.0
C743 C 0.01673 0.26029 0.07144 0.0
C744 C 0.02203 0.26386 0.96384 0.0
C745 C 0.97129 0.28157 0.92739 0.0
N746 N 0.01739 0.26183 0.03695 0.0
N747 N 0.97034 0.2792 0.96182 0.0
H748 H 0.2904 0.94704 0.90694 0.0
H749 H 0.25408 0.03022 0.08323 0.0
H750 H 0.2635 0.0407 0.91494 0.0
H751 H 0.27849 0.93585 0.07579 0.0
H752 H 0.25694 0.03421 0.02144 0.0
H753 H 0.2859 0.94225 0.96867 0.0
C754 C 0.28355 0.96659 0.92165 0.0
C755 C 0.27735 0.99432 0.90573 0.0
C756 C 0.26161 0.0126 0.03329 0.0
C757 C 0.27214 0.98899 0.97637 0.0
C758 C 0.25996 0.0103 0.06861 0.0
C759 C 0.2661 0.98267 0.08474 0.0
C760 C 0.26952 0.9871 0.0139 0.0
C761 C 0.27358 0.95761 0.06444 0.0
C762 C 0.28096 0.96383 0.9569 0.0
C763 C 0.26853 0.01888 0.92609 0.0
N764 N 0.27515 0.96045 0.03009 0.0
N765 N 0.26622 0.01563 0.96032 0.0
H766 H 0.97401 0.75165 0.91888 0.0
H767 H 0.01867 0.6513 0.08 0.0
H768 H 0.99576 0.6566 0.91225 0.0
H769 H 0.02036 0.749 0.08079 0.0
H770 H 0.00684 0.65243 0.01932 0.0
H771 H 0.98738 0.75079 0.97922 0.0
C772 C 0.98158 0.7306 0.93011 0.0
C773 C 0.98376 0.70414 0.91051 0.0
C774 C 0.0099 0.67362 0.03275 0.0
C775 C -0.00103 0.703 0.97951 0.0
C776 C 0.01658 0.67299 0.06741 0.0
C777 C 0.02048 0.7001 0.08549 0.0
C778 C 0.00677 0.70155 0.01611 0.0
C779 C 0.01759 0.72756 0.06783 0.0
C780 C 0.9893 0.73016 0.96451 0.0
C781 C 0.9938 0.67753 0.92638 0.0
N782 N 0.01075 0.72758 0.03414 0.0
N783 N 0.0009 0.67761 0.95999 0.0
loop_
_geom_bond_atom_site_label_1
_geom_bond_atom_site_label_2
_geom_bond_distance
_geom_bond_site_symmetry_2
_ccdc_geom_bond_type
C0 O1 1.160 . S
C0 O7 1.185 . S
O1 C0 1.160 . S
O2 Zn3 1.899 . S
O2 C10 1.284 . S
Zn3 O2 1.899 . S
Zn3 O4 2.032 . S
Zn3 O7 2.086 . S
Zn3 O12 1.977 . S
O4 Zn3 2.032 . S
O4 C8 1.278 . S
C5 O6 1.203 . S
C5 O12 1.267 . S
O6 C5 1.203 . S
O7 C0 1.185 . S
O7 Zn3 2.086 . S
C8 O4 1.278 . S
C8 O9 1.211 . S
O9 C8 1.211 . S
C10 O2 1.284 . S
C10 O11 1.273 . S
O11 C10 1.273 . S
O12 Zn3 1.977 . S
O12 C5 1.267 . S
C13 O14 1.160 . S
C13 O20 1.185 . S
O14 C13 1.160 . S
O15 Zn16 1.899 . S
O15 C23 1.284 . S
Zn16 O15 1.899 . S
Zn16 O17 2.032 . S
Zn16 O20 2.086 . S
Zn16 O25 1.977 . S
O17 Zn16 2.032 . S
O17 C21 1.278 . S
C18 O19 1.203 . S
C18 O25 1.267 . S
O19 C18 1.203 . S
O20 C13 1.185 . S
O20 Zn16 2.086 . S
C21 O17 1.278 . S
C21 O22 1.211 . S
O22 C21 1.211 . S
C23 O15 1.284 . S
C23 O24 1.273 . S
O24 C23 1.273 . S
O25 Zn16 1.977 . S
O25 C18 1.267 . S
C26 O27 1.160 . S
C26 O33 1.185 . S
O27 C26 1.160 . S
O28 Zn29 1.899 . S
O28 C36 1.284 . S
Zn29 O28 1.899 . S
Zn29 O30 2.032 . S
Zn29 O33 2.086 . S
Zn29 O38 1.977 . S
O30 Zn29 2.032 . S
O30 C34 1.278 . S
C31 O32 1.203 . S
C31 O38 1.267 . S
O32 C31 1.203 . S
O33 C26 1.185 . S
O33 Zn29 2.086 . S
C34 O30 1.278 . S
C34 O35 1.211 . S
O35 C34 1.211 . S
C36 O28 1.284 . S
C36 O37 1.273 . S
O37 C36 1.273 . S
O38 Zn29 1.977 . S
O38 C31 1.267 . S
C39 O40 1.160 . S
C39 O46 1.185 . S
O40 C39 1.160 . S
O41 Zn42 1.899 . S
O41 C49 1.284 . S
Zn42 O41 1.899 . S
Zn42 O43 2.032 . S
Zn42 O46 2.086 . S
Zn42 O51 1.977 . S
O43 Zn42 2.032 . S
O43 C47 1.278 . S
C44 O45 1.203 . S
C44 O51 1.267 . S
O45 C44 1.203 . S
O46 C39 1.185 . S
O46 Zn42 2.086 . S
C47 O43 1.278 . S
C47 O48 1.211 . S
O48 C47 1.211 . S
C49 O41 1.284 . S
C49 O50 1.273 . S
O50 C49 1.273 . S
O51 Zn42 1.977 . S
O51 C44 1.267 . S
C52 O53 1.160 . S
C52 O59 1.185 . S
O53 C52 1.160 . S
O54 Zn55 1.899 . S
O54 C62 1.284 . S
Zn55 O54 1.899 . S
Zn55 O56 2.032 . S
Zn55 O59 2.086 . S
Zn55 O64 1.977 . S
O56 Zn55 2.032 . S
O56 C60 1.278 . S
C57 O58 1.203 . S
C57 O64 1.267 . S
O58 C57 1.203 . S
O59 C52 1.185 . S
O59 Zn55 2.086 . S
C60 O56 1.278 . S
C60 O61 1.211 . S
O61 C60 1.211 . S
C62 O54 1.284 . S
C62 O63 1.273 . S
O63 C62 1.273 . S
O64 Zn55 1.977 . S
O64 C57 1.267 . S
C65 O66 1.160 . S
C65 O72 1.185 . S
O66 C65 1.160 . S
O67 Zn68 1.899 . S
O67 C75 1.284 . S
Zn68 O67 1.899 . S
Zn68 O69 2.032 . S
Zn68 O72 2.086 . S
Zn68 O77 1.977 . S
O69 Zn68 2.032 . S
O69 C73 1.278 . S
C70 O71 1.203 . S
C70 O77 1.267 . S
O71 C70 1.203 . S
O72 C65 1.185 . S
O72 Zn68 2.086 . S
C73 O69 1.278 . S
C73 O74 1.211 . S
O74 C73 1.211 . S
C75 O67 1.284 . S
C75 O76 1.273 . S
O76 C75 1.273 . S
O77 Zn68 1.977 . S
O77 C70 1.267 . S
C78 O79 1.160 . S
C78 O85 1.185 . S
O79 C78 1.160 . S
O80 Zn81 1.899 . S
O80 C88 1.284 . S
Zn81 O80 1.899 . S
Zn81 O82 2.032 . S
Zn81 O85 2.086 . S
Zn81 O90 1.977 . S
O82 Zn81 2.032 . S
O82 C86 1.278 . S
C83 O84 1.203 . S
C83 O90 1.267 . S
O84 C83 1.203 . S
O85 C78 1.185 . S
O85 Zn81 2.086 . S
C86 O82 1.278 . S
C86 O87 1.211 . S
O87 C86 1.211 . S
C88 O80 1.284 . S
C88 O89 1.273 . S
O89 C88 1.273 . S
O90 Zn81 1.977 . S
O90 C83 1.267 . S
C91 O92 1.160 . S
C91 O98 1.185 . S
O92 C91 1.160 . S
O93 Zn94 1.899 . S
O93 C101 1.284 . S
Zn94 O93 1.899 . S
Zn94 O95 2.032 . S
Zn94 O98 2.086 . S
Zn94 O103 1.977 . S
O95 Zn94 2.032 . S
O95 C99 1.278 . S
C96 O97 1.203 . S
C96 O103 1.267 . S
O97 C96 1.203 . S
O98 C91 1.185 . S
O98 Zn94 2.086 . S
C99 O95 1.278 . S
C99 O100 1.211 . S
O100 C99 1.211 . S
C101 O93 1.284 . S
C101 O102 1.273 . S
O102 C101 1.273 . S
O103 Zn94 1.977 . S
O103 C96 1.267 . S
C104 O105 1.160 . S
C104 O111 1.185 . S
O105 C104 1.160 . S
O106 Zn107 1.899 . S
O106 C114 1.284 . S
Zn107 O106 1.899 . S
Zn107 O108 2.032 . S
Zn107 O111 2.086 . S
Zn107 O116 1.977 . S
O108 Zn107 2.032 . S
O108 C112 1.278 . S
C109 O110 1.203 1_545 S
C109 O116 1.267 1_545 S
O110 C109 1.203 1_565 S
O111 C104 1.185 . S
O111 Zn107 2.086 . S
C112 O108 1.278 . S
C112 O113 1.211 . S
O113 C112 1.211 . S
C114 O106 1.284 . S
C114 O115 1.273 . S
O115 C114 1.273 . S
O116 Zn107 1.977 . S
O116 C109 1.267 1_565 S
C117 O118 1.160 . S
C117 O124 1.185 . S
O118 C117 1.160 . S
O119 Zn120 1.899 . S
O119 C127 1.284 . S
Zn120 O119 1.899 . S
Zn120 O121 2.032 . S
Zn120 O124 2.086 . S
Zn120 O129 1.977 . S
O121 Zn120 2.032 . S
O121 C125 1.278 . S
C122 O123 1.203 1_455 S
C122 O129 1.267 1_455 S
O123 C122 1.203 1_655 S
O124 C117 1.185 . S
O124 Zn120 2.086 . S
C125 O121 1.278 . S
C125 O126 1.211 . S
O126 C125 1.211 . S
C127 O119 1.284 . S
C127 O128 1.273 . S
O128 C127 1.273 . S
O129 Zn120 1.977 . S
O129 C122 1.267 1_655 S
C130 O131 1.160 . S
C130 O137 1.185 . S
O131 C130 1.160 . S
O132 Zn133 1.899 . S
O132 C140 1.284 . S
Zn133 O132 1.899 . S
Zn133 O134 2.032 . S
Zn133 O137 2.086 . S
Zn133 O142 1.977 . S
O134 Zn133 2.032 . S
O134 C138 1.278 . S
C135 O136 1.203 1_565 S
C135 O142 1.267 1_565 S
O136 C135 1.203 1_545 S
O137 C130 1.185 . S
O137 Zn133 2.086 . S
C138 O134 1.278 . S
C138 O139 1.211 . S
O139 C138 1.211 . S
C140 O132 1.284 . S
C140 O141 1.273 . S
O141 C140 1.273 . S
O142 Zn133 1.977 . S
O142 C135 1.267 1_545 S
C143 O144 1.160 . S
C143 O150 1.185 . S
O144 C143 1.160 . S
O145 Zn146 1.899 . S
O145 C153 1.284 . S
Zn146 O145 1.899 . S
Zn146 O147 2.032 . S
Zn146 O150 2.086 . S
Zn146 O155 1.977 . S
O147 Zn146 2.032 . S
O147 C151 1.278 . S
C148 O149 1.203 1_655 S
C148 O155 1.267 1_655 S
O149 C148 1.203 1_455 S
O150 C143 1.185 . S
O150 Zn146 2.086 . S
C151 O147 1.278 . S
C151 O152 1.211 . S
O152 C151 1.211 . S
C153 O145 1.284 . S
C153 O154 1.273 . S
O154 C153 1.273 . S
O155 Zn146 1.977 . S
O155 C148 1.267 1_455 S
C156 O157 1.160 . S
C156 O163 1.185 . S
O157 C156 1.160 . S
O158 Zn159 1.899 . S
O158 C166 1.284 . S
Zn159 O158 1.899 . S
Zn159 O160 2.032 . S
Zn159 O163 2.086 . S
Zn159 O168 1.977 . S
O160 Zn159 2.032 . S
O160 C164 1.278 . S
C161 O162 1.203 1_565 S
C161 O168 1.267 1_565 S
O162 C161 1.203 1_545 S
O163 C156 1.185 . S
O163 Zn159 2.086 . S
C164 O160 1.278 . S
C164 O165 1.211 . S
O165 C164 1.211 . S
C166 O158 1.284 . S
C166 O167 1.273 . S
O167 C166 1.273 . S
O168 Zn159 1.977 . S
O168 C161 1.267 1_545 S
C169 O170 1.160 . S
C169 O176 1.185 . S
O170 C169 1.160 . S
O171 Zn172 1.899 . S
O171 C179 1.284 . S
Zn172 O171 1.899 . S
Zn172 O173 2.032 . S
Zn172 O176 2.086 . S
Zn172 O181 1.977 . S
O173 Zn172 2.032 . S
O173 C177 1.278 . S
C174 O175 1.203 1_655 S
C174 O181 1.267 1_655 S
O175 C174 1.203 1_455 S
O176 C169 1.185 . S
O176 Zn172 2.086 . S
C177 O173 1.278 . S
C177 O178 1.211 . S
O178 C177 1.211 . S
C179 O171 1.284 . S
C179 O180 1.273 . S
O180 C179 1.273 . S
O181 Zn172 1.977 . S
O181 C174 1.267 1_455 S
C182 O183 1.160 . S
C182 O189 1.185 . S
O183 C182 1.160 . S
O184 Zn185 1.899 . S
O184 C192 1.284 . S
Zn185 O184 1.899 . S
Zn185 O186 2.032 . S
Zn185 O189 2.086 . S
Zn185 O194 1.977 . S
O186 Zn185 2.032 . S
O186 C190 1.278 . S
C187 O188 1.203 1_545 S
C187 O194 1.267 1_545 S
O188 C187 1.203 1_565 S
O189 C182 1.185 . S
O189 Zn185 2.086 . S
C190 O186 1.278 . S
C190 O191 1.211 . S
O191 C190 1.211 . S
C192 O184 1.284 . S
C192 O193 1.273 . S
O193 C192 1.273 . S
O194 Zn185 1.977 . S
O194 C187 1.267 1_565 S
C195 O196 1.160 . S
C195 O202 1.185 . S
O196 C195 1.160 . S
O197 Zn198 1.899 . S
O197 C205 1.284 . S
Zn198 O197 1.899 . S
Zn198 O199 2.032 . S
Zn198 O202 2.086 . S
Zn198 O207 1.977 . S
O199 Zn198 2.032 . S
O199 C203 1.278 . S
C200 O201 1.203 1_455 S
C200 O207 1.267 1_455 S
O201 C200 1.203 1_655 S
O202 C195 1.185 . S
O202 Zn198 2.086 . S
C203 O199 1.278 . S
C203 O204 1.211 . S
O204 C203 1.211 . S
C205 O197 1.284 . S
C205 O206 1.273 . S
O206 C205 1.273 . S
O207 Zn198 1.977 . S
O207 C200 1.267 1_655 S
H208 C214 0.930 . S
H209 C218 0.930 . S
H210 C223 0.929 . S
H211 C221 0.929 . S
H212 C216 0.929 . S
H213 C222 0.929 . S
C214 H208 0.930 . S
C214 C215 1.367 . S
C214 C222 1.378 . S
C215 C214 1.367 . S
C215 C223 1.433 . S
C216 H212 0.929 . S
C216 C218 1.378 . S
C216 C220 1.350 . S
C217 C220 1.463 . S
C217 C222 1.350 . S
C217 N225 1.427 . S
C218 H209 0.930 . S
C218 C216 1.378 . S
C218 C219 1.367 . S
C219 C218 1.367 . S
C219 C221 1.433 . S
C220 C216 1.350 . S
C220 C217 1.463 . S
C220 N224 1.427 . S
C221 H211 0.929 . S
C221 C219 1.433 . S
C221 N224 1.384 . S
C222 H213 0.929 . S
C222 C214 1.378 . S
C222 C217 1.350 . S
C223 H210 0.929 . S
C223 C215 1.433 . S
C223 N225 1.384 . S
N224 C220 1.427 . S
N224 C221 1.384 . S
N225 C217 1.427 . S
N225 C223 1.384 . S
H226 C232 0.930 . S
H227 C236 0.930 . S
H228 C241 0.929 . S
H229 C239 0.929 . S
H230 C234 0.929 . S
H231 C240 0.929 . S
C232 H226 0.930 . S
C232 C233 1.367 . S
C232 C240 1.378 . S
C233 C232 1.367 . S
C233 C241 1.433 . S
C234 H230 0.929 . S
C234 C236 1.378 . S
C234 C238 1.350 . S
C235 C238 1.463 . S
C235 C240 1.350 . S
C235 N243 1.427 . S
C236 H227 0.930 . S
C236 C234 1.378 . S
C236 C237 1.367 . S
C237 C236 1.367 . S
C237 C239 1.433 . S
C238 C234 1.350 . S
C238 C235 1.463 . S
C238 N242 1.427 . S
C239 H229 0.929 . S
C239 C237 1.433 . S
C239 N242 1.384 . S
C240 H231 0.929 . S
C240 C232 1.378 . S
C240 C235 1.350 . S
C241 H228 0.929 . S
C241 C233 1.433 . S
C241 N243 1.384 . S
N242 C238 1.427 . S
N242 C239 1.384 . S
N243 C235 1.427 . S
N243 C241 1.384 . S
H244 C250 0.930 . S
H245 C254 0.930 . S
H246 C259 0.929 . S
H247 C257 0.929 . S
H248 C252 0.929 . S
H249 C258 0.929 . S
C250 H244 0.930 . S
C250 C251 1.367 . S
C250 C258 1.378 . S
C251 C250 1.367 . S
C251 C259 1.433 . S
C252 H248 0.929 . S
C252 C254 1.378 . S
C252 C256 1.350 . S
C253 C256 1.463 . S
C253 C258 1.350 . S
C253 N261 1.427 . S
C254 H245 0.930 . S
C254 C252 1.378 . S
C254 C255 1.367 . S
C255 C254 1.367 . S
C255 C257 1.433 . S
C256 C252 1.350 . S
C256 C253 1.463 . S
C256 N260 1.427 . S
C257 H247 0.929 . S
C257 C255 1.433 . S
C257 N260 1.384 . S
C258 H249 0.929 . S
C258 C250 1.378 . S
C258 C253 1.350 . S
C259 H246 0.929 . S
C259 C251 1.433 . S
C259 N261 1.384 . S
N260 C256 1.427 . S
N260 C257 1.384 . S
N261 C253 1.427 . S
N261 C259 1.384 . S
H262 C268 0.930 . S
H263 C272 0.930 . S
H264 C277 0.929 . S
H265 C275 0.929 . S
H266 C270 0.929 . S
H267 C276 0.929 . S
C268 H262 0.930 . S
C268 C269 1.367 . S
C268 C276 1.378 . S
C269 C268 1.367 . S
C269 C277 1.433 . S
C270 H266 0.929 . S
C270 C272 1.378 . S
C270 C274 1.350 . S
C271 C274 1.463 . S
C271 C276 1.350 . S
C271 N279 1.427 . S
C272 H263 0.930 . S
C272 C270 1.378 . S
C272 C273 1.367 . S
C273 C272 1.367 . S
C273 C275 1.433 . S
C274 C270 1.350 . S
C274 C271 1.463 . S
C274 N278 1.427 . S
C275 H265 0.929 . S
C275 C273 1.433 . S
C275 N278 1.384 . S
C276 H267 0.929 . S
C276 C268 1.378 . S
C276 C271 1.350 . S
C277 H264 0.929 . S
C277 C269 1.433 . S
C277 N279 1.384 . S
N278 C274 1.427 . S
N278 C275 1.384 . S
N279 C271 1.427 . S
N279 C277 1.384 . S
H280 C286 0.930 . S
H281 C290 0.930 . S
H282 C295 0.929 . S
H283 C293 0.929 . S
H284 C288 0.929 . S
H285 C294 0.929 . S
C286 H280 0.930 . S
C286 C287 1.367 . S
C286 C294 1.378 . S
C287 C286 1.367 . S
C287 C295 1.433 . S
C288 H284 0.929 . S
C288 C290 1.378 . S
C288 C292 1.350 . S
C289 C292 1.463 . S
C289 C294 1.350 . S
C289 N297 1.427 . S
C290 H281 0.930 . S
C290 C288 1.378 . S
C290 C291 1.367 . S
C291 C290 1.367 . S
C291 C293 1.433 . S
C292 C288 1.350 . S
C292 C289 1.463 . S
C292 N296 1.427 . S
C293 H283 0.929 . S
C293 C291 1.433 . S
C293 N296 1.384 . S
C294 H285 0.929 . S
C294 C286 1.378 . S
C294 C289 1.350 . S
C295 H282 0.929 . S
C295 C287 1.433 . S
C295 N297 1.384 . S
N296 C292 1.427 . S
N296 C293 1.384 . S
N297 C289 1.427 . S
N297 C295 1.384 . S
H298 C304 0.930 . S
H299 C308 0.930 . S
H300 C313 0.929 . S
H301 C311 0.929 . S
H302 C306 0.929 . S
H303 C312 0.929 . S
C304 H298 0.930 . S
C304 C305 1.367 . S
C304 C312 1.378 . S
C305 C304 1.367 . S
C305 C313 1.433 . S
C306 H302 0.929 . S
C306 C308 1.378 . S
C306 C310 1.350 . S
C307 C310 1.463 . S
C307 C312 1.350 . S
C307 N315 1.427 . S
C308 H299 0.930 . S
C308 C306 1.378 . S
C308 C309 1.367 . S
C309 C308 1.367 . S
C309 C311 1.433 . S
C310 C306 1.350 . S
C310 C307 1.463 . S
C310 N314 1.427 . S
C311 H301 0.929 . S
C311 C309 1.433 . S
C311 N314 1.384 . S
C312 H303 0.929 . S
C312 C304 1.378 . S
C312 C307 1.350 . S
C313 H300 0.929 . S
C313 C305 1.433 . S
C313 N315 1.384 . S
N314 C310 1.427 . S
N314 C311 1.384 . S
N315 C307 1.427 . S
N315 C313 1.384 . S
H316 C322 0.930 . S
H317 C326 0.930 . S
H318 C331 0.929 . S
H319 C329 0.929 . S
H320 C324 0.929 . S
H321 C330 0.929 . S
C322 H316 0.930 . S
C322 C323 1.367 . S
C322 C330 1.378 . S
C323 C322 1.367 . S
C323 C331 1.433 . S
C324 H320 0.929 . S
C324 C326 1.378 . S
C324 C328 1.350 . S
C325 C328 1.463 . S
C325 C330 1.350 . S
C325 N333 1.427 . S
C326 H317 0.930 . S
C326 C324 1.378 . S
C326 C327 1.367 . S
C327 C326 1.367 . S
C327 C329 1.433 . S
C328 C324 1.350 . S
C328 C325 1.463 . S
C328 N332 1.427 . S
C329 H319 0.929 . S
C329 C327 1.433 . S
C329 N332 1.384 . S
C330 H321 0.929 . S
C330 C322 1.378 . S
C330 C325 1.350 . S
C331 H318 0.929 . S
C331 C323 1.433 . S
C331 N333 1.384 . S
N332 C328 1.427 . S
N332 C329 1.384 . S
N333 C325 1.427 . S
N333 C331 1.384 . S
H334 C340 0.930 . S
H335 C344 0.930 . S
H336 C349 0.929 . S
H337 C347 0.929 . S
H338 C342 0.929 . S
H339 C348 0.929 . S
C340 H334 0.930 . S
C340 C341 1.367 . S
C340 C348 1.378 . S
C341 C340 1.367 . S
C341 C349 1.433 . S
C342 H338 0.929 . S
C342 C344 1.378 . S
C342 C346 1.350 . S
C343 C346 1.463 . S
C343 C348 1.350 . S
C343 N351 1.427 . S
C344 H335 0.930 . S
C344 C342 1.378 . S
C344 C345 1.367 . S
C345 C344 1.367 . S
C345 C347 1.433 . S
C346 C342 1.350 . S
C346 C343 1.463 . S
C346 N350 1.427 . S
C347 H337 0.929 . S
C347 C345 1.433 . S
C347 N350 1.384 . S
C348 H339 0.929 . S
C348 C340 1.378 . S
C348 C343 1.350 . S
C349 H336 0.929 . S
C349 C341 1.433 . S
C349 N351 1.384 . S
N350 C346 1.427 . S
N350 C347 1.384 . S
N351 C343 1.427 . S
N351 C349 1.384 . S
H352 C358 0.930 . S
H353 C362 0.930 . S
H354 C367 0.929 . S
H355 C365 0.929 . S
H356 C360 0.929 . S
H357 C366 0.929 . S
C358 H352 0.930 . S
C358 C359 1.367 . S
C358 C366 1.378 . S
C359 C358 1.367 . S
C359 C367 1.433 . S
C360 H356 0.929 . S
C360 C362 1.378 . S
C360 C364 1.350 . S
C361 C364 1.463 . S
C361 C366 1.350 . S
C361 N369 1.427 . S
C362 H353 0.930 . S
C362 C360 1.378 . S
C362 C363 1.367 . S
C363 C362 1.367 . S
C363 C365 1.433 . S
C364 C360 1.350 . S
C364 C361 1.463 . S
C364 N368 1.427 . S
C365 H355 0.929 . S
C365 C363 1.433 . S
C365 N368 1.384 . S
C366 H357 0.929 . S
C366 C358 1.378 . S
C366 C361 1.350 . S
C367 H354 0.929 . S
C367 C359 1.433 . S
C367 N369 1.384 . S
N368 C364 1.427 . S
N368 C365 1.384 . S
N369 C361 1.427 . S
N369 C367 1.384 . S
H370 C376 0.930 . S
H371 C380 0.930 . S
H372 C385 0.929 . S
H373 C383 0.929 . S
H374 C378 0.929 . S
H375 C384 0.929 . S
C376 H370 0.930 . S
C376 C377 1.367 . S
C376 C384 1.378 . S
C377 C376 1.367 . S
C377 C385 1.433 . S
C378 H374 0.929 . S
C378 C380 1.378 . S
C378 C382 1.350 . S
C379 C382 1.463 . S
C379 C384 1.350 . S
C379 N387 1.427 . S
C380 H371 0.930 . S
C380 C378 1.378 . S
C380 C381 1.367 . S
C381 C380 1.367 . S
C381 C383 1.433 . S
C382 C378 1.350 . S
C382 C379 1.463 . S
C382 N386 1.427 . S
C383 H373 0.929 . S
C383 C381 1.433 . S
C383 N386 1.384 . S
C384 H375 0.929 . S
C384 C376 1.378 . S
C384 C379 1.350 . S
C385 H372 0.929 . S
C385 C377 1.433 . S
C385 N387 1.384 . S
N386 C382 1.427 . S
N386 C383 1.384 . S
N387 C379 1.427 . S
N387 C385 1.384 . S
H388 C394 0.930 . S
H389 C398 0.930 . S
H390 C403 0.929 . S
H391 C401 0.929 . S
H392 C396 0.929 . S
H393 C402 0.929 . S
C394 H388 0.930 . S
C394 C395 1.367 . S
C394 C402 1.378 . S
C395 C394 1.367 . S
C395 C403 1.433 . S
C396 H392 0.929 . S
C396 C398 1.378 . S
C396 C400 1.350 . S
C397 C400 1.463 . S
C397 C402 1.350 . S
C397 N405 1.427 . S
C398 H389 0.930 . S
C398 C396 1.378 . S
C398 C399 1.367 . S
C399 C398 1.367 . S
C399 C401 1.433 . S
C400 C396 1.350 . S
C400 C397 1.463 . S
C400 N404 1.427 . S
C401 H391 0.929 . S
C401 C399 1.433 . S
C401 N404 1.384 . S
C402 H393 0.929 . S
C402 C394 1.378 . S
C402 C397 1.350 . S
C403 H390 0.929 . S
C403 C395 1.433 . S
C403 N405 1.384 . S
N404 C400 1.427 . S
N404 C401 1.384 . S
N405 C397 1.427 . S
N405 C403 1.384 . S
H406 C412 0.930 . S
H407 C416 0.930 . S
H408 C421 0.929 . S
H409 C419 0.929 . S
H410 C414 0.929 . S
H411 C420 0.929 . S
C412 H406 0.930 . S
C412 C413 1.367 . S
C412 C420 1.378 . S
C413 C412 1.367 . S
C413 C421 1.433 . S
C414 H410 0.929 . S
C414 C416 1.378 . S
C414 C418 1.350 . S
C415 C418 1.463 . S
C415 C420 1.350 . S
C415 N423 1.427 . S
C416 H407 0.930 . S
C416 C414 1.378 . S
C416 C417 1.367 . S
C417 C416 1.367 . S
C417 C419 1.433 . S
C418 C414 1.350 . S
C418 C415 1.463 . S
C418 N422 1.427 . S
C419 H409 0.929 . S
C419 C417 1.433 . S
C419 N422 1.384 . S
C420 H411 0.929 . S
C420 C412 1.378 . S
C420 C415 1.350 . S
C421 H408 0.929 . S
C421 C413 1.433 . S
C421 N423 1.384 . S
N422 C418 1.427 . S
N422 C419 1.384 . S
N423 C415 1.427 . S
N423 C421 1.384 . S
H424 C430 0.930 . S
H425 C434 0.930 . S
H426 C439 0.929 . S
H427 C437 0.929 . S
H428 C432 0.929 . S
H429 C438 0.929 . S
C430 H424 0.930 . S
C430 C431 1.367 . S
C430 C438 1.378 . S
C431 C430 1.367 . S
C431 C439 1.433 . S
C432 H428 0.929 . S
C432 C434 1.378 . S
C432 C436 1.350 . S
C433 C436 1.463 . S
C433 C438 1.350 . S
C433 N441 1.427 . S
C434 H425 0.930 . S
C434 C432 1.378 . S
C434 C435 1.367 . S
C435 C434 1.367 . S
C435 C437 1.433 . S
C436 C432 1.350 . S
C436 C433 1.463 . S
C436 N440 1.427 . S
C437 H427 0.929 . S
C437 C435 1.433 . S
C437 N440 1.384 . S
C438 H429 0.929 . S
C438 C430 1.378 . S
C438 C433 1.350 . S
C439 H426 0.929 . S
C439 C431 1.433 . S
C439 N441 1.384 . S
N440 C436 1.427 . S
N440 C437 1.384 . S
N441 C433 1.427 . S
N441 C439 1.384 . S
H442 C448 0.930 . S
H443 C452 0.930 . S
H444 C457 0.929 . S
H445 C455 0.929 . S
H446 C450 0.929 . S
H447 C456 0.929 . S
C448 H442 0.930 . S
C448 C449 1.367 . S
C448 C456 1.378 . S
C449 C448 1.367 . S
C449 C457 1.433 . S
C450 H446 0.929 . S
C450 C452 1.378 . S
C450 C454 1.350 . S
C451 C454 1.463 . S
C451 C456 1.350 . S
C451 N459 1.427 . S
C452 H443 0.930 . S
C452 C450 1.378 . S
C452 C453 1.367 . S
C453 C452 1.367 . S
C453 C455 1.433 . S
C454 C450 1.350 . S
C454 C451 1.463 . S
C454 N458 1.427 . S
C455 H445 0.929 . S
C455 C453 1.433 . S
C455 N458 1.384 . S
C456 H447 0.929 . S
C456 C448 1.378 . S
C456 C451 1.350 . S
C457 H444 0.929 . S
C457 C449 1.433 . S
C457 N459 1.384 . S
N458 C454 1.427 . S
N458 C455 1.384 . S
N459 C451 1.427 . S
N459 C457 1.384 . S
H460 C466 0.930 . S
H461 C470 0.930 . S
H462 C475 0.929 . S
H463 C473 0.929 . S
H464 C468 0.929 . S
H465 C474 0.929 . S
C466 H460 0.930 . S
C466 C467 1.367 . S
C466 C474 1.378 . S
C467 C466 1.367 . S
C467 C475 1.433 . S
C468 H464 0.929 . S
C468 C470 1.378 . S
C468 C472 1.350 . S
C469 C472 1.463 . S
C469 C474 1.350 . S
C469 N477 1.427 . S
C470 H461 0.930 . S
C470 C468 1.378 . S
C470 C471 1.367 . S
C471 C470 1.367 . S
C471 C473 1.433 . S
C472 C468 1.350 . S
C472 C469 1.463 . S
C472 N476 1.427 . S
C473 H463 0.929 . S
C473 C471 1.433 . S
C473 N476 1.384 . S
C474 H465 0.929 . S
C474 C466 1.378 . S
C474 C469 1.350 . S
C475 H462 0.929 . S
C475 C467 1.433 . S
C475 N477 1.384 . S
N476 C472 1.427 . S
N476 C473 1.384 . S
N477 C469 1.427 . S
N477 C475 1.384 . S
H478 C484 0.930 . S
H479 C488 0.930 . S
H480 C493 0.929 . S
H481 C491 0.929 . S
H482 C486 0.929 . S
H483 C492 0.929 . S
C484 H478 0.930 . S
C484 C485 1.367 . S
C484 C492 1.378 . S
C485 C484 1.367 . S
C485 C493 1.433 . S
C486 H482 0.929 . S
C486 C488 1.378 . S
C486 C490 1.350 . S
C487 C490 1.463 . S
C487 C492 1.350 . S
C487 N495 1.427 . S
C488 H479 0.930 . S
C488 C486 1.378 . S
C488 C489 1.367 . S
C489 C488 1.367 . S
C489 C491 1.433 . S
C490 C486 1.350 . S
C490 C487 1.463 . S
C490 N494 1.427 . S
C491 H481 0.929 . S
C491 C489 1.433 . S
C491 N494 1.384 . S
C492 H483 0.929 . S
C492 C484 1.378 . S
C492 C487 1.350 . S
C493 H480 0.929 . S
C493 C485 1.433 . S
C493 N495 1.384 . S
N494 C490 1.427 . S
N494 C491 1.384 . S
N495 C487 1.427 . S
N495 C493 1.384 . S
H496 C502 0.930 . S
H497 C506 0.930 . S
H498 C511 0.929 . S
H499 C509 0.929 . S
H500 C504 0.929 . S
H501 C510 0.929 . S
C502 H496 0.930 . S
C502 C503 1.367 . S
C502 C510 1.378 . S
C503 C502 1.367 . S
C503 C511 1.433 . S
C504 H500 0.929 . S
C504 C506 1.378 . S
C504 C508 1.350 . S
C505 C508 1.463 . S
C505 C510 1.350 . S
C505 N513 1.427 . S
C506 H497 0.930 . S
C506 C504 1.378 . S
C506 C507 1.367 . S
C507 C506 1.367 . S
C507 C509 1.433 . S
C508 C504 1.350 . S
C508 C505 1.463 . S
C508 N512 1.427 . S
C509 H499 0.929 . S
C509 C507 1.433 . S
C509 N512 1.384 . S
C510 H501 0.929 . S
C510 C502 1.378 . S
C510 C505 1.350 . S
C511 H498 0.929 . S
C511 C503 1.433 . S
C511 N513 1.384 . S
N512 C508 1.427 . S
N512 C509 1.384 . S
N513 C505 1.427 . S
N513 C511 1.384 . S
H514 C520 0.930 . S
H515 C524 0.930 . S
H516 C529 0.929 . S
H517 C527 0.929 . S
H518 C522 0.929 . S
H519 C528 0.929 . S
C520 H514 0.930 . S
C520 C521 1.367 . S
C520 C528 1.378 . S
C521 C520 1.367 . S
C521 C529 1.433 . S
C522 H518 0.929 . S
C522 C524 1.378 . S
C522 C526 1.350 . S
C523 C526 1.463 . S
C523 C528 1.350 . S
C523 N531 1.427 . S
C524 H515 0.930 . S
C524 C522 1.378 . S
C524 C525 1.367 . S
C525 C524 1.367 . S
C525 C527 1.433 . S
C526 C522 1.350 . S
C526 C523 1.463 . S
C526 N530 1.427 . S
C527 H517 0.929 . S
C527 C525 1.433 . S
C527 N530 1.384 . S
C528 H519 0.929 . S
C528 C520 1.378 . S
C528 C523 1.350 . S
C529 H516 0.929 . S
C529 C521 1.433 . S
C529 N531 1.384 . S
N530 C526 1.427 . S
N530 C527 1.384 . S
N531 C523 1.427 . S
N531 C529 1.384 . S
H532 C538 0.930 . S
H533 C542 0.930 . S
H534 C547 0.929 . S
H535 C545 0.929 . S
H536 C540 0.929 . S
H537 C546 0.929 . S
C538 H532 0.930 . S
C538 C539 1.367 . S
C538 C546 1.378 . S
C539 C538 1.367 . S
C539 C547 1.433 . S
C540 H536 0.929 . S
C540 C542 1.378 . S
C540 C544 1.350 . S
C541 C544 1.463 . S
C541 C546 1.350 . S
C541 N549 1.427 . S
C542 H533 0.930 . S
C542 C540 1.378 . S
C542 C543 1.367 . S
C543 C542 1.367 . S
C543 C545 1.433 . S
C544 C540 1.350 . S
C544 C541 1.463 . S
C544 N548 1.427 . S
C545 H535 0.929 . S
C545 C543 1.433 . S
C545 N548 1.384 . S
C546 H537 0.929 . S
C546 C538 1.378 . S
C546 C541 1.350 . S
C547 H534 0.929 . S
C547 C539 1.433 . S
C547 N549 1.384 . S
N548 C544 1.427 . S
N548 C545 1.384 . S
N549 C541 1.427 . S
N549 C547 1.384 . S
H550 C556 0.930 . S
H551 C560 0.930 . S
H552 C565 0.929 . S
H553 C563 0.929 . S
H554 C558 0.929 . S
H555 C564 0.929 . S
C556 H550 0.930 . S
C556 C557 1.367 . S
C556 C564 1.378 . S
C557 C556 1.367 . S
C557 C565 1.433 . S
C558 H554 0.929 . S
C558 C560 1.378 . S
C558 C562 1.350 . S
C559 C562 1.463 . S
C559 C564 1.350 . S
C559 N567 1.427 . S
C560 H551 0.930 . S
C560 C558 1.378 . S
C560 C561 1.367 . S
C561 C560 1.367 . S
C561 C563 1.433 . S
C562 C558 1.350 . S
C562 C559 1.463 . S
C562 N566 1.427 . S
C563 H553 0.929 . S
C563 C561 1.433 . S
C563 N566 1.384 . S
C564 H555 0.929 . S
C564 C556 1.378 . S
C564 C559 1.350 . S
C565 H552 0.929 . S
C565 C557 1.433 . S
C565 N567 1.384 . S
N566 C562 1.427 . S
N566 C563 1.384 . S
N567 C559 1.427 . S
N567 C565 1.384 . S
H568 C574 0.925 1_545 S
H569 C578 0.930 . S
H570 C583 0.929 . S
H571 C581 0.929 . S
H572 C576 0.929 . S
H573 C582 0.929 . S
C574 H568 0.925 1_565 S
C574 C575 1.367 . S
C574 C582 1.378 . S
C575 C574 1.367 . S
C575 C583 1.433 . S
C576 H572 0.929 . S
C576 C578 1.378 . S
C576 C580 1.350 . S
C577 C580 1.463 . S
C577 C582 1.350 . S
C577 N585 1.427 . S
C578 H569 0.930 . S
C578 C576 1.378 . S
C578 C579 1.367 . S
C579 C578 1.367 . S
C579 C581 1.433 . S
C580 C576 1.350 . S
C580 C577 1.463 . S
C580 N584 1.427 . S
C581 H571 0.929 . S
C581 C579 1.433 . S
C581 N584 1.384 . S
C582 H573 0.929 . S
C582 C574 1.378 . S
C582 C577 1.350 . S
C583 H570 0.929 . S
C583 C575 1.433 . S
C583 N585 1.384 . S
N584 C580 1.427 . S
N584 C581 1.384 . S
N585 C577 1.427 . S
N585 C583 1.384 . S
H586 C592 0.930 . S
H587 C596 0.930 . S
H588 C601 0.929 . S
H589 C599 0.929 . S
H590 C594 0.929 . S
H591 C600 0.929 . S
C592 H586 0.930 . S
C592 C593 1.367 . S
C592 C600 1.378 . S
C593 C592 1.367 . S
C593 C601 1.433 . S
C594 H590 0.929 . S
C594 C596 1.378 . S
C594 C598 1.350 . S
C595 C598 1.463 . S
C595 C600 1.350 . S
C595 N603 1.427 . S
C596 H587 0.930 . S
C596 C594 1.378 . S
C596 C597 1.367 . S
C597 C596 1.367 . S
C597 C599 1.433 . S
C598 C594 1.350 . S
C598 C595 1.463 . S
C598 N602 1.427 . S
C599 H589 0.929 . S
C599 C597 1.433 . S
C599 N602 1.384 . S
C600 H591 0.929 . S
C600 C592 1.378 . S
C600 C595 1.350 . S
C601 H588 0.929 . S
C601 C593 1.433 . S
C601 N603 1.384 . S
N602 C598 1.427 . S
N602 C599 1.384 . S
N603 C595 1.427 . S
N603 C601 1.384 . S
H604 C610 0.930 . S
H605 C614 0.930 . S
H606 C619 0.929 . S
H607 C617 0.929 . S
H608 C612 0.929 . S
H609 C618 0.929 . S
C610 H604 0.930 . S
C610 C611 1.367 . S
C610 C618 1.378 . S
C611 C610 1.367 . S
C611 C619 1.433 . S
C612 H608 0.929 . S
C612 C614 1.378 . S
C612 C616 1.350 . S
C613 C616 1.463 . S
C613 C618 1.350 . S
C613 N621 1.427 . S
C614 H605 0.930 . S
C614 C612 1.378 . S
C614 C615 1.367 . S
C615 C614 1.367 . S
C615 C617 1.433 . S
C616 C612 1.350 . S
C616 C613 1.463 . S
C616 N620 1.427 . S
C617 H607 0.929 . S
C617 C615 1.433 . S
C617 N620 1.384 . S
C618 H609 0.929 . S
C618 C610 1.378 . S
C618 C613 1.350 . S
C619 H606 0.929 . S
C619 C611 1.433 . S
C619 N621 1.384 . S
N620 C616 1.427 . S
N620 C617 1.384 . S
N621 C613 1.427 . S
N621 C619 1.384 . S
H622 C628 0.930 . S
H623 C632 0.930 . S
H624 C637 0.929 . S
H625 C635 0.929 . S
H626 C630 0.929 . S
H627 C636 0.929 . S
C628 H622 0.930 . S
C628 C629 1.367 . S
C628 C636 1.378 . S
C629 C628 1.367 . S
C629 C637 1.433 . S
C630 H626 0.929 . S
C630 C632 1.378 . S
C630 C634 1.350 . S
C631 C634 1.463 . S
C631 C636 1.350 . S
C631 N639 1.427 . S
C632 H623 0.930 . S
C632 C630 1.378 . S
C632 C633 1.367 . S
C633 C632 1.367 . S
C633 C635 1.433 . S
C634 C630 1.350 . S
C634 C631 1.463 . S
C634 N638 1.427 . S
C635 H625 0.929 . S
C635 C633 1.433 . S
C635 N638 1.384 . S
C636 H627 0.929 . S
C636 C628 1.378 . S
C636 C631 1.350 . S
C637 H624 0.929 . S
C637 C629 1.433 . S
C637 N639 1.384 . S
N638 C634 1.427 . S
N638 C635 1.384 . S
N639 C631 1.427 . S
N639 C637 1.384 . S
H640 C646 0.930 . S
H641 C650 0.930 . S
H642 C655 0.929 . S
H643 C653 0.929 . S
H644 C648 0.929 . S
H645 C654 0.929 . S
C646 H640 0.930 . S
C646 C647 1.367 . S
C646 C654 1.378 . S
C647 C646 1.367 . S
C647 C655 1.433 . S
C648 H644 0.929 . S
C648 C650 1.378 . S
C648 C652 1.350 . S
C649 C652 1.463 . S
C649 C654 1.350 . S
C649 N657 1.427 . S
C650 H641 0.930 . S
C650 C648 1.378 . S
C650 C651 1.367 . S
C651 C650 1.367 . S
C651 C653 1.433 . S
C652 C648 1.350 . S
C652 C649 1.463 . S
C652 N656 1.427 . S
C653 H643 0.929 . S
C653 C651 1.433 . S
C653 N656 1.384 . S
C654 H645 0.929 . S
C654 C646 1.378 . S
C654 C649 1.350 . S
C655 H642 0.929 . S
C655 C647 1.433 . S
C655 N657 1.384 . S
N656 C652 1.427 . S
N656 C653 1.384 . S
N657 C649 1.427 . S
N657 C655 1.384 . S
H658 C664 0.930 . S
H659 C668 0.930 . S
H660 C673 0.929 . S
H661 C671 0.929 . S
H662 C666 0.929 . S
H663 C672 0.929 . S
C664 H658 0.930 . S
C664 C665 1.367 . S
C664 C672 1.378 . S
C665 C664 1.367 . S
C665 C673 1.433 . S
C666 H662 0.929 . S
C666 C668 1.378 . S
C666 C670 1.350 . S
C667 C670 1.463 . S
C667 C672 1.350 . S
C667 N675 1.427 . S
C668 H659 0.930 . S
C668 C666 1.378 . S
C668 C669 1.367 . S
C669 C668 1.367 . S
C669 C671 1.433 . S
C670 C666 1.350 . S
C670 C667 1.463 . S
C670 N674 1.427 . S
C671 H661 0.929 . S
C671 C669 1.433 . S
C671 N674 1.384 . S
C672 H663 0.929 . S
C672 C664 1.378 . S
C672 C667 1.350 . S
C673 H660 0.929 . S
C673 C665 1.433 . S
C673 N675 1.384 . S
N674 C670 1.427 . S
N674 C671 1.384 . S
N675 C667 1.427 . S
N675 C673 1.384 . S
H676 C682 0.930 . S
H677 C686 0.930 . S
H678 C691 0.929 . S
H679 C689 0.929 . S
H680 C684 0.929 . S
H681 C690 0.929 . S
C682 H676 0.930 . S
C682 C683 1.367 . S
C682 C690 1.378 . S
C683 C682 1.367 . S
C683 C691 1.433 . S
C684 H680 0.929 . S
C684 C686 1.378 . S
C684 C688 1.350 . S
C685 C688 1.463 . S
C685 C690 1.350 . S
C685 N693 1.427 . S
C686 H677 0.930 . S
C686 C684 1.378 . S
C686 C687 1.367 . S
C687 C686 1.367 . S
C687 C689 1.433 . S
C688 C684 1.350 . S
C688 C685 1.463 . S
C688 N692 1.427 . S
C689 H679 0.929 . S
C689 C687 1.433 . S
C689 N692 1.384 . S
C690 H681 0.929 . S
C690 C682 1.378 . S
C690 C685 1.350 . S
C691 H678 0.929 . S
C691 C683 1.433 . S
C691 N693 1.384 . S
N692 C688 1.427 . S
N692 C689 1.384 . S
N693 C685 1.427 . S
N693 C691 1.384 . S
H694 C700 0.930 . S
H695 C704 0.930 . S
H696 C709 0.929 . S
H697 C707 0.929 . S
H698 C702 0.929 . S
H699 C708 0.929 . S
C700 H694 0.930 . S
C700 C701 1.367 . S
C700 C708 1.378 . S
C701 C700 1.367 . S
C701 C709 1.433 . S
C702 H698 0.929 . S
C702 C704 1.378 . S
C702 C706 1.350 . S
C703 C706 1.463 . S
C703 C708 1.350 . S
C703 N711 1.427 . S
C704 H695 0.930 . S
C704 C702 1.378 . S
C704 C705 1.367 . S
C705 C704 1.367 . S
C705 C707 1.433 . S
C706 C702 1.350 . S
C706 C703 1.463 . S
C706 N710 1.427 . S
C707 H697 0.929 . S
C707 C705 1.433 . S
C707 N710 1.384 . S
C708 H699 0.929 . S
C708 C700 1.378 . S
C708 C703 1.350 . S
C709 H696 0.929 . S
C709 C701 1.433 . S
C709 N711 1.384 . S
N710 C706 1.427 . S
N710 C707 1.384 . S
N711 C703 1.427 . S
N711 C709 1.384 . S
H712 C718 0.930 . S
H713 C722 0.930 . S
H714 C727 0.951 . S
H715 C725 0.951 . S
H716 C720 0.929 . S
H717 C726 0.929 . S
C718 H712 0.930 . S
C718 C719 1.367 . S
C718 C726 1.378 . S
C719 C718 1.367 . S
C719 C727 1.396 1_545 S
C720 H716 0.929 . S
C720 C722 1.378 . S
C720 C724 1.350 . S
C721 C724 1.463 1_544 S
C721 C726 1.350 . S
C721 N729 1.427 1_545 S
C722 H713 0.930 . S
C722 C720 1.378 . S
C722 C723 1.367 . S
C723 C722 1.367 . S
C723 C725 1.396 1_565 S
C724 C720 1.350 . S
C724 C721 1.463 1_566 S
C724 N728 1.427 1_565 S
C725 H715 0.951 . S
C725 C723 1.396 1_545 S
C725 N728 1.398 . S
C726 H717 0.929 . S
C726 C718 1.378 . S
C726 C721 1.350 . S
C727 H714 0.951 . S
C727 C719 1.396 1_565 S
C727 N729 1.398 . S
N728 C724 1.427 1_545 S
N728 C725 1.398 . S
N729 C721 1.427 1_565 S
N729 C727 1.398 . S
H730 C736 0.930 . S
H731 C740 0.930 . S
H732 C745 0.929 . S
H733 C743 0.929 . S
H734 C738 0.929 . S
H735 C744 0.929 . S
C736 H730 0.930 . S
C736 C737 1.367 . S
C736 C744 1.378 . S
C737 C736 1.367 . S
C737 C745 1.433 1_455 S
C738 H734 0.929 . S
C738 C740 1.378 . S
C738 C742 1.350 . S
C739 C742 1.463 1_456 S
C739 C744 1.350 . S
C739 N747 1.427 1_455 S
C740 H731 0.930 . S
C740 C738 1.378 . S
C740 C741 1.367 . S
C741 C740 1.367 . S
C741 C743 1.433 1_655 S
C742 C738 1.350 . S
C742 C739 1.463 1_654 S
C742 N746 1.427 1_655 S
C743 H733 0.929 . S
C743 C741 1.433 1_455 S
C743 N746 1.384 . S
C744 H735 0.929 . S
C744 C736 1.378 . S
C744 C739 1.350 . S
C745 H732 0.929 . S
C745 C737 1.433 1_655 S
C745 N747 1.384 . S
N746 C742 1.427 1_455 S
N746 C743 1.384 . S
N747 C739 1.427 1_655 S
N747 C745 1.384 . S
H748 C754 0.914 1_565 S
H749 C758 0.914 1_545 S
H750 C763 0.929 . S
H751 C761 0.929 . S
H752 C756 0.929 . S
H753 C762 0.929 . S
C754 H748 0.914 1_545 S
C754 C755 1.395 . S
C754 C762 1.366 1_545 S
C755 C754 1.395 . S
C755 C763 1.433 . S
C756 H752 0.929 . S
C756 C758 1.366 1_545 S
C756 C760 1.350 1_545 S
C757 C760 1.463 1_546 S
C757 C762 1.350 1_545 S
C757 N765 1.427 . S
C758 H749 0.914 1_565 S
C758 C756 1.366 1_565 S
C758 C759 1.395 . S
C759 C758 1.395 . S
C759 C761 1.433 . S
C760 C756 1.350 1_565 S
C760 C757 1.463 1_564 S
C760 N764 1.427 . S
C761 H751 0.929 . S
C761 C759 1.433 . S
C761 N764 1.384 . S
C762 H753 0.929 . S
C762 C754 1.366 1_565 S
C762 C757 1.350 1_565 S
C763 H750 0.929 . S
C763 C755 1.433 . S
C763 N765 1.384 . S
N764 C760 1.427 . S
N764 C761 1.384 . S
N765 C757 1.427 . S
N765 C763 1.384 . S
H766 C772 0.930 . S
H767 C776 0.930 . S
H768 C781 0.929 . S
H769 C779 0.929 . S
H770 C774 0.929 . S
H771 C780 0.929 . S
C772 H766 0.930 . S
C772 C773 1.367 . S
C772 C780 1.378 . S
C773 C772 1.367 . S
C773 C781 1.433 . S
C774 H770 0.929 . S
C774 C776 1.378 . S
C774 C778 1.350 . S
C775 C778 1.463 1_656 S
C775 C780 1.350 . S
C775 N783 1.427 . S
C776 H767 0.930 . S
C776 C774 1.378 . S
C776 C777 1.367 . S
C777 C776 1.367 . S
C777 C779 1.433 . S
C778 C774 1.350 . S
C778 C775 1.463 1_454 S
C778 N782 1.427 . S
C779 H769 0.929 . S
C779 C777 1.433 . S
C779 N782 1.384 . S
C780 H771 0.929 . S
C780 C772 1.378 . S
C780 C775 1.350 . S
C781 H768 0.929 . S
C781 C773 1.433 . S
C781 N783 1.384 . S
N782 C778 1.427 . S
N782 C779 1.384 . S
N783 C775 1.427 . S
N783 C781 1.384 . S
C215 C0 1.146 . S
C219 C91 1.148 . S
C233 C13 1.140 . S
C237 C52 1.154 . S
C251 C65 1.151 . S
C255 C26 1.143 . S
C269 C39 1.137 . S
C273 C78 1.157 . S
C287 C104 1.148 . S
C291 C195 1.146 . S
C305 C156 1.150 . S
C309 C117 1.144 . S
C323 C169 1.137 . S
C327 C130 1.157 . S
C341 C182 1.145 . S
C345 C143 1.149 . S
C359 C5 1.115 . S
C363 C153 1.205 . S
C377 C18 1.104 . S
C381 C114 1.205 . S
C395 C127 1.210 . S
C399 C31 1.119 . S
C413 C44 1.120 . S
C417 C140 1.210 . S
C431 C57 1.095 . S
C435 C179 1.207 . S
C449 C192 1.210 . S
C453 C70 1.109 . S
C467 C83 1.111 . S
C471 C205 1.205 . S
C485 C166 1.210 . S
C489 C96 1.107 . S
C503 C109 1.108 . S
C507 C49 1.205 . S
C521 C10 1.210 . S
C525 C122 1.117 . S
C539 C135 1.110 . S
C543 C23 1.210 . S
C557 C36 1.210 . S
C561 C148 1.119 . S
C575 C161 1.095 . S
C579 C75 1.208 . S
C593 C88 1.210 . S
C597 C174 1.115 . S
C611 C101 1.210 . S
C615 C187 1.113 . S
C629 C62 1.207 . S
C633 C200 1.094 . S
C647 C60 1.526 . S
C651 C8 1.524 . S
C665 C73 1.536 . S
C669 C21 1.534 . S
C683 C34 1.526 . S
C687 C86 1.528 . S
C701 C99 1.535 . S
C705 C47 1.533 . S
C719 C164 1.536 . S
C723 C112 1.535 . S
C737 C177 1.536 . S
C741 C125 1.536 . S
C755 C138 1.523 . S
C759 C190 1.524 . S
C773 C203 1.532 . S
C777 C151 1.530 . S
