# Generated by pormake.
# Topology vby, (6)-cn, num edge types: 1
# Building blocks:
#     Node 0, Type 0, BuildingBlock: BETFEN_clean_sbu_0, # of connection points: 6
#     Node 1, Type 0, BuildingBlock: BETFEN_clean_sbu_0, # of connection points: 6
#     Node 2, Type 0, BuildingBlock: BETFEN_clean_sbu_0, # of connection points: 6
#     Node 3, Type 0, BuildingBlock: BETFEN_clean_sbu_0, # of connection points: 6
#     Node 4, Type 0, BuildingBlock: BETFEN_clean_sbu_0, # of connection points: 6
#     Node 5, Type 0, BuildingBlock: BETFEN_clean_sbu_0, # of connection points: 6
#     Node 6, Type 0, BuildingBlock: BETFEN_clean_sbu_0, # of connection points: 6
#     Node 7, Type 0, BuildingBlock: BETFEN_clean_sbu_0, # of connection points: 6
#     Edge 8, Type (0, 0), BuildingBlock: KIFKEQ_clean_linker_1, # of connection points: 2
#     Edge 9, Type (0, 0), BuildingBlock: KIFKEQ_clean_linker_1, # of connection points: 2
#     Edge 10, Type (0, 0), BuildingBlock: KIFKEQ_clean_linker_1, # of connection points: 2
#     Edge 11, Type (0, 0), BuildingBlock: KIFKEQ_clean_linker_1, # of connection points: 2
#     Edge 12, Type (0, 0), BuildingBlock: KIFKEQ_clean_linker_1, # of connection points: 2
#     Edge 13, Type (0, 0), BuildingBlock: KIFKEQ_clean_linker_1, # of connection points: 2
#     Edge 14, Type (0, 0), BuildingBlock: KIFKEQ_clean_linker_1, # of connection points: 2
#     Edge 15, Type (0, 0), BuildingBlock: KIFKEQ_clean_linker_1, # of connection points: 2
#     Edge 16, Type (0, 0), BuildingBlock: KIFKEQ_clean_linker_1, # of connection points: 2
#     Edge 17, Type (0, 0), BuildingBlock: KIFKEQ_clean_linker_1, # of connection points: 2
#     Edge 18, Type (0, 0), BuildingBlock: KIFKEQ_clean_linker_1, # of connection points: 2
#     Edge 19, Type (0, 0), BuildingBlock: KIFKEQ_clean_linker_1, # of connection points: 2
#     Edge 20, Type (0, 0), BuildingBlock: KIFKEQ_clean_linker_1, # of connection points: 2
#     Edge 21, Type (0, 0), BuildingBlock: KIFKEQ_clean_linker_1, # of connection points: 2
#     Edge 22, Type (0, 0), BuildingBlock: KIFKEQ_clean_linker_1, # of connection points: 2
#     Edge 23, Type (0, 0), BuildingBlock: KIFKEQ_clean_linker_1, # of connection points: 2
#     Edge 24, Type (0, 0), BuildingBlock: KIFKEQ_clean_linker_1, # of connection points: 2
#     Edge 25, Type (0, 0), BuildingBlock: KIFKEQ_clean_linker_1, # of connection points: 2
#     Edge 26, Type (0, 0), BuildingBlock: KIFKEQ_clean_linker_1, # of connection points: 2
#     Edge 27, Type (0, 0), BuildingBlock: KIFKEQ_clean_linker_1, # of connection points: 2
#     Edge 28, Type (0, 0), BuildingBlock: KIFKEQ_clean_linker_1, # of connection points: 2
#     Edge 29, Type (0, 0), BuildingBlock: KIFKEQ_clean_linker_1, # of connection points: 2
#     Edge 30, Type (0, 0), BuildingBlock: KIFKEQ_clean_linker_1, # of connection points: 2
#     Edge 31, Type (0, 0), BuildingBlock: KIFKEQ_clean_linker_1, # of connection points: 2
# Relax obj value: 0.200
# Max RMSD: 0.215
# Mean RMSD: 0.215
data_MOF--net-vby--node1-BETFEN_clean_sbu_0--edge1-KIFKEQ_clean_linker_1
_symmetry_space_group_name_H-M    P1
_symmetry_Int_Tables_number       1
_symmetry_cell_setting            triclinic
loop_
_symmetry_equiv_pos_as_xyz
'x, y, z'
_cell_length_a     15.976773
_cell_length_b     105.60486
_cell_length_c     30.008367
_cell_angle_alpha  90.11605
_cell_angle_beta   94.436087
_cell_angle_gamma 89.925127
loop_
_atom_site_label
_atom_site_type_symbol
_atom_site_fract_x
_atom_site_fract_y
_atom_site_fract_z
_atom_type_partial_charge
Pr0 Pr 0.08565 0.3727 0.01976 0.0
Pr1 Pr 0.08827 0.40161 0.02365 0.0
C2 C 0.0912 0.34856 0.99045 0.0
C3 C 0.12926 0.3359 0.99897 0.0
C4 C 0.12184 0.32935 0.03923 0.0
C5 C 0.15282 0.31696 0.04459 0.0
C6 C 0.19173 0.31086 0.00982 0.0
C7 C 0.20022 0.31758 0.96997 0.0
C8 C 0.16948 0.32993 0.9647 0.0
C9 C 0.09453 0.37896 0.11114 0.0
C10 C 0.26999 0.38761 0.03003 0.0
C11 C 0.07387 0.42686 0.03022 0.0
C12 C 0.06503 0.44079 0.03149 0.0
C13 C 0.04235 0.44744 0.99191 0.0
C14 C 0.03817 0.46065 0.99194 0.0
C15 C 0.05563 0.46759 0.03167 0.0
C16 C 0.07762 0.46088 0.07144 0.0
C17 C 0.08264 0.44762 0.07129 0.0
C18 C 0.10375 0.3913 0.93835 0.0
C19 C 0.90431 0.38709 0.02336 0.0
O20 O 0.13957 0.35752 0.97669 0.0
O21 O 0.03586 0.35264 0.01714 0.0
O22 O 0.09231 0.387 0.0799 0.0
O23 O 0.09702 0.36754 0.09554 0.0
O24 O 0.23063 0.39786 0.04246 0.0
O25 O 0.22818 0.37749 0.01514 0.0
O26 O 0.11418 0.42019 0.06184 0.0
O27 O 0.03949 0.42029 0.99669 0.0
O28 O 0.05188 0.38765 0.96538 0.0
O29 O 0.15158 0.40015 0.95618 0.0
O30 O 0.94162 0.37667 0.01081 0.0
O31 O 0.94735 0.3974 0.0348 0.0
H32 H 0.09127 0.33372 0.06636 0.0
H33 H 0.14623 0.31218 0.07601 0.0
H34 H 0.22849 0.31319 0.94216 0.0
H35 H 0.17545 0.33474 0.93323 0.0
H36 H 1.02942 0.44245 0.96057 0.0
H37 H 1.0228 0.46542 0.96045 0.0
H38 H 0.09037 0.46584 0.10282 0.0
H39 H 0.10035 0.44272 0.10228 0.0
Pr40 Pr 0.98304 0.62849 0.01535 0.0
Pr41 Pr 0.99412 0.6563 0.0229 0.0
C42 C 0.98742 0.60344 0.99627 0.0
C43 C 1.01139 0.59018 0.00703 0.0
C44 C 0.98352 0.58396 0.04456 0.0
C45 C 0.99434 0.57085 0.04975 0.0
C46 C 1.03302 0.56367 0.01746 0.0
C47 C 0.06401 0.57004 0.98102 0.0
C48 C 0.05309 0.58312 0.97585 0.0
C49 C 0.9856 0.63718 0.10435 0.0
C50 C 0.17178 0.64178 0.02583 0.0
C51 C 0.98684 0.68138 0.04115 0.0
C52 C 0.94229 0.69364 0.03336 0.0
C53 C 0.96433 0.70177 0.99912 0.0
C54 C 0.93196 0.71408 0.99562 0.0
C55 C 0.87662 0.71862 0.0263 0.0
C56 C 0.85247 0.71032 0.05968 0.0
C57 C 0.88518 0.69801 0.06329 0.0
C58 C 1.00964 0.64765 0.9359 0.0
C59 C 0.80503 0.6431 0.00951 0.0
O60 O 0.04339 0.61141 0.9835 0.0
O61 O 0.9297 0.60879 0.0184 0.0
O62 O 1.03205 0.64118 0.07551 0.0
O63 O 0.93739 0.6282 0.08806 0.0
O64 O 0.13428 0.65145 0.04379 0.0
O65 O 0.12682 0.63237 0.00738 0.0
O66 O 0.95406 0.67273 0.06565 0.0
O67 O 1.02681 0.67662 0.00865 0.0
O68 O 0.9548 0.64355 0.96061 0.0
O69 O 0.05443 0.65657 0.95523 0.0
O70 O 0.84329 0.63317 0.99414 0.0
O71 O 0.84887 0.65277 0.02656 0.0
H72 H 0.9505 0.58912 0.06906 0.0
H73 H 0.96908 0.56628 0.07806 0.0
H74 H 0.0955 0.56489 0.95592 0.0
H75 H 0.07457 0.58765 0.94644 0.0
H76 H 1.00913 0.69881 0.97586 0.0
H77 H 0.95318 0.72019 0.96986 0.0
H78 H 0.80897 0.71337 0.08348 0.0
H79 H 0.86747 0.69205 0.09033 0.0
Pr80 Pr 0.08284 0.6281 0.522 0.0
Pr81 Pr 0.0797 0.65758 0.51962 0.0
C82 C 0.06681 0.6029 0.52766 0.0
C83 C 0.05716 0.58899 0.52825 0.0
C84 C 0.03584 0.58245 0.4882 0.0
C85 C 1.02983 0.56927 0.48774 0.0
C86 C 0.04416 0.56225 0.52743 0.0
C87 C 0.06525 0.56884 0.56762 0.0
C88 C 0.07205 0.58207 0.56797 0.0
C89 C 0.09546 0.63902 0.43784 0.0
C90 C 0.89933 0.64294 0.52237 0.0
C91 C 0.08568 0.68179 0.4916 0.0
C92 C 0.12477 0.69435 0.50113 0.0
C93 C 0.10028 0.70207 0.53611 0.0
C94 C 0.13141 0.71443 0.54154 0.0
C95 C 0.18761 0.71936 0.51212 0.0
C96 C 0.21366 0.71149 0.47792 0.0
C97 C 0.18247 0.69916 0.47246 0.0
C98 C 0.08741 0.65052 0.60996 0.0
C99 C 0.26457 0.64232 0.52914 0.0
O100 O 0.10824 0.60942 0.55941 0.0
O101 O 1.0322 0.6096 0.49453 0.0
O102 O 0.04536 0.64248 0.466 0.0
O103 O 0.14299 0.62985 0.45346 0.0
O104 O 0.93625 0.65324 0.50853 0.0
O105 O 0.94294 0.63276 0.53513 0.0
O106 O 0.13315 0.67279 0.47693 0.0
O107 O 1.03018 0.67766 0.51809 0.0
O108 O 0.0859 0.64291 0.57743 0.0
O109 O 0.08873 0.66214 0.59621 0.0
O110 O 0.22547 0.63181 0.53901 0.0
O111 O 0.22309 0.65273 0.51671 0.0
H112 H 1.0252 0.58752 0.45691 0.0
H113 H 1.01539 0.56457 0.45597 0.0
H114 H 0.07579 0.5638 0.59893 0.0
H115 H 0.08876 0.58689 0.5993 0.0
H116 H 0.05581 0.69869 0.55881 0.0
H117 H 0.11093 0.72015 0.56866 0.0
H118 H 0.25599 0.71499 0.45429 0.0
H119 H 0.20182 0.6935 0.44491 0.0
Pr120 Pr 0.98587 0.3719 0.52638 0.0
Pr121 Pr 0.9846 0.4031 0.51173 0.0
C122 C 0.98328 0.3482 0.55927 0.0
C123 C 0.94743 0.33542 0.54962 0.0
C124 C 0.97507 0.32775 0.51526 0.0
C125 C 0.94585 0.31529 0.50947 0.0
C126 C 0.88828 0.31021 0.53787 0.0
C127 C 0.85891 0.31806 0.57129 0.0
C128 C 0.88838 0.33047 0.57718 0.0
C129 C 0.97489 0.37813 0.43446 0.0
C130 C 0.8025 0.3873 0.5147 0.0
C131 C 0.98202 0.42671 0.47789 0.0
C132 C 0.99696 0.44018 0.48929 0.0
C133 C 0.96262 0.44597 0.526 0.0
C134 C 0.97159 0.45904 0.53321 0.0
C135 C 1.01497 0.46654 0.50384 0.0
C136 C 0.05174 0.46058 0.46819 0.0
C137 C 0.04264 0.44757 0.46099 0.0
C138 C 1.00326 0.3971 0.60366 0.0
C139 C 0.16621 0.3874 0.52074 0.0
O140 O 0.93175 0.35712 0.57058 0.0
O141 O 0.04181 0.35229 0.53455 0.0
O142 O 0.97766 0.38563 0.46719 0.0
O143 O 0.97403 0.3666 0.44939 0.0
O144 O 0.84121 0.39773 0.50285 0.0
O145 O 0.84319 0.37685 0.52768 0.0
O146 O 0.04763 0.41926 0.47761 0.0
O147 O 0.91609 0.42123 0.49273 0.0
O148 O 0.99626 0.38945 0.57128 0.0
O149 O 1.00104 0.40859 0.58822 0.0
O150 O 0.12841 0.37757 0.53799 0.0
O151 O 0.12414 0.39727 0.5034 0.0
H152 H 1.02071 0.33124 0.49342 0.0
H153 H 0.97055 0.30953 0.48362 0.0
H154 H 0.81336 0.31461 0.59323 0.0
H155 H 0.86597 0.33613 0.60395 0.0
H156 H 0.92726 0.44047 0.54849 0.0
H157 H 0.94211 0.46332 0.56086 0.0
H158 H 0.08704 0.466 0.44546 0.0
H159 H 0.06992 0.4433 0.4326 0.0
Pr160 Pr 0.57769 0.87334 0.02139 0.0
Pr161 Pr 0.58844 0.9012 0.02708 0.0
C162 C 0.58472 0.84816 0.00507 0.0
C163 C 0.63176 0.83604 0.00908 0.0
C164 C 0.64974 0.8301 0.05068 0.0
C165 C 0.68204 0.81775 0.05296 0.0
C166 C 0.69682 0.81104 0.01373 0.0
C167 C 0.68196 0.81722 0.97236 0.0
C168 C 0.64963 0.82954 0.97009 0.0
C169 C 0.5607 0.88247 0.10754 0.0
C170 C 0.76655 0.88666 0.03342 0.0
C171 C 0.58658 0.92633 0.04416 0.0
C172 C 0.5596 0.93966 0.03823 0.0
C173 C 0.55063 0.94541 0.99593 0.0
C174 C 0.53759 0.95851 0.9921 0.0
C175 C 0.53412 0.96617 0.0305 0.0
C176 C 0.541 0.96025 0.07264 0.0
C177 C 0.55325 0.94717 0.07637 0.0
C178 C 0.58722 0.89187 0.93907 0.0
C179 C 0.39915 0.88788 0.01683 0.0
O180 O 0.60656 0.85669 0.97659 0.0
O181 O 0.55649 0.85303 0.04102 0.0
O182 O 0.61624 0.88641 0.08289 0.0
O183 O 0.51503 0.87363 0.08828 0.0
O184 O 0.7284 0.89671 0.04793 0.0
O185 O 0.72279 0.87687 0.0173 0.0
O186 O 0.54193 0.91828 0.06535 0.0
O187 O 0.62986 0.92113 0.01384 0.0
O188 O 0.53951 0.88819 0.96789 0.0
O189 O 0.63719 0.90066 0.95517 0.0
O190 O 0.43675 0.87783 1.00149 0.0
O191 O 0.44364 0.89765 0.03289 0.0
H192 H 0.63614 0.83481 0.08141 0.0
H193 H 0.69206 0.81328 0.08539 0.0
H194 H 0.69402 0.81246 0.94151 0.0
H195 H 0.63587 0.83383 0.93758 0.0
H196 H 0.55577 0.93983 0.96591 0.0
H197 H 0.53115 0.96264 0.95902 0.0
H198 H 0.54029 0.96575 0.10308 0.0
H199 H 0.56131 0.94298 0.10936 0.0
Pr200 Pr 0.49341 0.12733 0.01792 0.0
Pr201 Pr 0.49379 0.15731 0.02441 0.0
C202 C 0.52277 0.10272 1.00113 0.0
C203 C 0.51015 0.08894 0.00441 0.0
C204 C 0.47952 0.08324 0.04215 0.0
C205 C 0.47742 0.06998 0.04572 0.0
C206 C 0.50698 0.06227 0.01189 0.0
C207 C 0.5356 0.06809 0.97383 0.0
C208 C 0.53693 0.08126 0.97015 0.0
C209 C 0.48198 0.1373 0.10379 0.0
C210 C 0.67497 0.1431 0.02016 0.0
C211 C 0.48583 0.18147 0.05312 0.0
C212 C 0.44797 0.19408 0.04237 0.0
C213 C 0.48941 0.20286 0.01658 0.0
C214 C 0.45882 0.21522 0.01064 0.0
C215 C 0.38622 0.21917 0.03053 0.0
C216 C 0.34343 0.21029 0.05526 0.0
C217 C 0.37404 0.19792 0.0612 0.0
C218 C 0.48598 0.15049 0.93343 0.0
C219 C 0.31037 0.14149 0.01506 0.0
O220 O 0.47057 0.10958 0.97538 0.0
O221 O 0.5571 0.10877 0.036 0.0
O222 O 0.52926 0.14145 0.07527 0.0
O223 O 0.43974 0.1275 0.08844 0.0
O224 O 0.63754 0.15313 0.03591 0.0
O225 O 0.63185 0.13306 0.00539 0.0
O226 O 0.43683 0.17247 0.06626 0.0
O227 O 0.54414 0.17731 0.02832 0.0
O228 O 0.48836 0.14301 0.96611 0.0
O229 O 0.48406 0.16209 0.94752 0.0
O230 O 0.34939 0.131 0.00417 0.0
O231 O 0.35159 0.15191 0.02781 0.0
H232 H 0.45907 0.08902 0.06916 0.0
H233 H 0.45531 0.06578 0.07553 0.0
H234 H 0.5576 0.06245 0.94691 0.0
H235 H 0.56117 0.08548 0.94087 0.0
H236 H 0.54674 0.20028 1.00175 0.0
H237 H 0.49269 0.22172 0.99077 0.0
H238 H 0.28788 0.21301 0.07147 0.0
H239 H 0.34098 0.19147 0.08167 0.0
Pr240 Pr 0.59061 0.1286 0.52679 0.0
Pr241 Pr 0.57936 0.15628 0.52038 0.0
C242 C 0.58675 0.10356 0.54529 0.0
C243 C 0.56194 0.09031 0.53511 0.0
C244 C 0.58678 0.08402 0.49691 0.0
C245 C 0.57576 0.07092 0.49211 0.0
C246 C 0.5399 0.06382 0.52543 0.0
C247 C 0.51176 0.07026 0.56257 0.0
C248 C 0.5229 0.08333 0.56738 0.0
C249 C 0.58837 0.13734 0.43794 0.0
C250 C 0.40132 0.14187 0.51666 0.0
C251 C 0.58674 0.18142 0.50379 0.0
C252 C 0.63477 0.19342 0.50842 0.0
C253 C 0.65368 0.19917 0.55033 0.0
C254 C 0.68764 0.21141 0.55327 0.0
C255 C 0.70332 0.21818 0.5144 0.0
C256 C 0.68732 0.21219 0.47269 0.0
C257 C 0.65327 0.19999 0.46977 0.0
C258 C 0.56224 0.14741 0.60686 0.0
C259 C 0.7684 0.1431 0.5331 0.0
O260 O 0.53225 0.11157 0.55953 0.0
O261 O 0.64255 0.10884 0.52182 0.0
O262 O 0.54152 0.14133 0.46678 0.0
O263 O 0.6372 0.12845 0.45432 0.0
O264 O 0.43864 0.15174 0.50014 0.0
O265 O 0.4463 0.1323 0.53391 0.0
O266 O 0.60941 0.17282 0.47566 0.0
O267 O 0.55699 0.17663 0.5394 0.0
O268 O 0.61816 0.14347 0.58239 0.0
O269 O 0.51617 0.15615 0.58727 0.0
O270 O 0.73021 0.13318 0.54835 0.0
O271 O 0.72445 0.15275 0.51614 0.0
H272 H 0.61771 0.08913 0.47158 0.0
H273 H 0.59878 0.06628 0.46323 0.0
H274 H 0.48248 0.06516 0.58849 0.0
H275 H 0.50384 0.08792 0.5973 0.0
H276 H 0.6397 0.19441 0.58081 0.0
H277 H 0.6984 0.21573 0.58596 0.0
H278 H 0.69999 0.21699 0.44209 0.0
H279 H 0.63886 0.19583 0.43704 0.0
Pr280 Pr 0.49204 0.87236 0.52393 0.0
Pr281 Pr 0.48881 0.90191 0.52129 0.0
C282 C 0.48842 0.84825 0.55292 0.0
C283 C 0.44933 0.83567 0.54536 0.0
C284 C 0.43472 0.83038 0.50245 0.0
C285 C 0.40226 0.81808 0.49712 0.0
C286 C 0.38387 0.81084 0.53457 0.0
C287 C 0.39769 0.81632 0.57731 0.0
C288 C 0.42976 0.82858 0.58255 0.0
C289 C 0.48384 0.87942 0.43357 0.0
C290 C 0.30711 0.88757 0.51439 0.0
C291 C 0.50346 0.92712 0.51499 0.0
C292 C 0.51251 0.94104 0.5135 0.0
C293 C 0.53846 0.94775 0.5526 0.0
C294 C 0.54284 0.96096 0.55235 0.0
C295 C 0.522 0.96782 0.51287 0.0
C296 C 0.49676 0.96105 0.47359 0.0
C297 C 0.49174 0.94781 0.47397 0.0
C298 C 0.47682 0.89094 0.60552 0.0
C299 C 0.67231 0.88708 0.5207 0.0
O300 O 0.44208 0.85725 0.5684 0.0
O301 O 0.54026 0.85223 0.52421 0.0
O302 O 0.48546 0.88702 0.46615 0.0
O303 O 0.48239 0.8678 0.44729 0.0
O304 O 0.34618 0.89809 0.50457 0.0
O305 O 0.34856 0.87715 0.52672 0.0
O306 O 0.46195 0.92047 0.48364 0.0
O307 O 0.53903 0.92054 0.54818 0.0
O308 O 0.52679 0.88755 0.5772 0.0
O309 O 0.42931 0.90014 0.59011 0.0
O310 O 0.63546 0.87678 0.53451 0.0
O311 O 0.62872 0.89728 0.50807 0.0
H312 H 0.44902 0.83569 0.47315 0.0
H313 H 0.39138 0.81427 0.46365 0.0
H314 H 0.38584 0.81103 0.60703 0.0
H315 H 0.4409 0.83245 0.61595 0.0
H316 H 0.55383 0.94281 0.58376 0.0
H317 H 0.56088 0.96579 0.58346 0.0
H318 H 0.4813 0.96598 0.44242 0.0
H319 H 0.4714 0.94288 0.44335 0.0
H320 H 0.3691 0.37008 0.99261 0.0
H321 H 0.38189 0.40511 0.06736 0.0
H322 H 0.52022 0.37021 0.99002 0.0
H323 H 0.53428 0.40492 0.06708 0.0
H324 H 0.8004 0.40768 0.02474 0.0
H325 H 0.64833 0.40791 0.02578 0.0
H326 H 0.64731 0.36695 0.02885 0.0
H327 H 0.79861 0.3668 0.02509 0.0
C328 C 0.40433 0.37775 0.00909 0.0
C329 C 0.36307 0.38757 0.03033 0.0
C330 C 0.49163 0.37778 0.0079 0.0
C331 C 0.54071 0.38753 0.02855 0.0
C332 C 0.49921 0.39733 0.05009 0.0
C333 C 0.41155 0.3974 0.05067 0.0
C334 C 0.76752 0.39873 0.02552 0.0
C335 C 0.81168 0.38722 0.02469 0.0
C336 C 0.68003 0.39884 0.02649 0.0
C337 C 0.63438 0.38745 0.02747 0.0
C338 C 0.67921 0.37594 0.02712 0.0
C339 C 0.76646 0.37584 0.0253 0.0
H340 H 0.28624 0.65784 0.06885 0.0
H341 H 0.26773 0.62577 0.97923 0.0
H342 H 0.43777 0.65809 0.06513 0.0
H343 H 0.41836 0.62638 0.97339 0.0
H344 H 0.69962 0.62275 1.00105 0.0
H345 H 0.54898 0.62227 0.00685 0.0
H346 H 0.54808 0.66298 0.02341 0.0
H347 H 0.69995 0.66326 0.02029 0.0
C348 C 0.31452 0.65085 0.0482 0.0
C349 C 0.26467 0.64173 0.0246 0.0
C350 C 0.40174 0.65107 0.04562 0.0
C351 C 0.44161 0.64228 0.0188 0.0
C352 C 0.39117 0.63317 0.99516 0.0
C353 C 0.30419 0.63285 0.99827 0.0
C354 C 0.66719 0.63161 0.0057 0.0
C355 C 0.712 0.64305 0.01 0.0
C356 C 0.58021 0.63136 0.00882 0.0
C357 C 0.53497 0.64259 0.01552 0.0
C358 C 0.58007 0.65407 0.01916 0.0
C359 C 0.66741 0.65428 0.01688 0.0
H360 H 0.80251 0.62524 0.56068 0.0
H361 H 0.78559 0.6603 0.48671 0.0
H362 H 0.65108 0.62518 0.56402 0.0
H363 H 0.63376 0.65994 0.4878 0.0
H364 H 0.36943 0.66279 0.53031 0.0
H365 H 0.52145 0.66293 0.53 0.0
H366 H 0.52231 0.62198 0.52599 0.0
H367 H 0.37063 0.62192 0.52893 0.0
C368 C 0.76637 0.63289 0.54474 0.0
C369 C 0.80649 0.64279 0.52357 0.0
C370 C 0.679 0.63281 0.54632 0.0
C371 C 0.62897 0.64255 0.52619 0.0
C372 C 0.66948 0.65239 0.50459 0.0
C373 C 0.75695 0.65256 0.5036 0.0
C374 C 0.40219 0.65381 0.52968 0.0
C375 C 0.35771 0.64235 0.52991 0.0
C376 C 0.48972 0.65388 0.52904 0.0
C377 C 0.53534 0.64247 0.52776 0.0
C378 C 0.49039 0.63099 0.52787 0.0
C379 C 0.40294 0.63093 0.52931 0.0
H380 H 0.69703 0.36692 0.51707 0.0
H381 H 0.69626 0.40777 0.51211 0.0
H382 H 0.54505 0.3669 0.5177 0.0
H383 H 0.54459 0.40785 0.51519 0.0
H384 H 0.26484 0.4044 0.48017 0.0
H385 H 0.41611 0.40424 0.47739 0.0
H386 H 0.43166 0.3705 0.55907 0.0
H387 H 0.27949 0.37035 0.55987 0.0
C388 C 0.66445 0.37593 0.51641 0.0
C389 C 0.70918 0.38735 0.51434 0.0
C390 C 0.57687 0.37593 0.5172 0.0
C391 C 0.53128 0.38737 0.51668 0.0
C392 C 0.57643 0.3988 0.51474 0.0
C393 C 0.66394 0.39878 0.51323 0.0
C394 C 0.30038 0.39692 0.49753 0.0
C395 C 0.25946 0.38738 0.52023 0.0
C396 C 0.38782 0.39688 0.49625 0.0
C397 C 0.43744 0.38738 0.51807 0.0
C398 C 0.39628 0.37787 0.54107 0.0
C399 C 0.3086 0.37783 0.54191 0.0
H400 H 0.8721 0.86639 0.02597 0.0
H401 H 0.87103 0.90712 0.03815 0.0
H402 H 1.02397 0.86667 0.02277 0.0
H403 H 1.02155 0.90756 0.03214 0.0
H404 H 0.3027 0.90455 0.06035 0.0
H405 H 0.15212 0.90396 0.06631 0.0
H406 H 0.13397 0.87099 0.98026 0.0
H407 H 0.28545 0.87123 0.97656 0.0
C408 C 0.90435 0.87542 0.02778 0.0
C409 C 0.85944 0.88671 0.03275 0.0
C410 C 0.99165 0.87562 0.02546 0.0
C411 C 0.03628 0.88715 0.02708 0.0
C412 C 0.99067 0.89844 0.0318 0.0
C413 C 0.90377 0.89821 0.03503 0.0
C414 C 0.2665 0.8972 0.04256 0.0
C415 C 0.30632 0.88796 0.01786 0.0
C416 C 0.17957 0.89689 0.04574 0.0
C417 C 0.12955 0.88744 0.02374 0.0
C418 C 0.16971 0.87829 0.99851 0.0
C419 C 0.25688 0.8785 0.99591 0.0
H420 H 0.20271 0.12124 0.01476 0.0
H421 H 0.20676 0.16212 0.01443 0.0
H422 H 0.05073 0.12163 0.01726 0.0
H423 H 0.05479 0.16257 0.01453 0.0
H424 H 0.78924 0.16023 0.05738 0.0
H425 H 0.9414 0.15965 0.05677 0.0
H426 H 0.92307 0.12533 0.97777 0.0
H427 H 0.77161 0.12562 0.98034 0.0
C428 C 0.17104 0.13032 0.01459 0.0
C429 C 0.21715 0.14164 0.01439 0.0
C430 C 0.08348 0.13057 0.01578 0.0
C431 C 0.03937 0.14215 0.01609 0.0
C432 C 0.08587 0.15345 0.0153 0.0
C433 C 0.17341 0.1532 0.01482 0.0
C434 C 0.81774 0.15255 0.03995 0.0
C435 C 0.7679 0.14296 0.019 0.0
C436 C 0.90535 0.15225 0.03927 0.0
C437 C 0.94563 0.14244 0.01715 0.0
C438 C 0.89529 0.13292 0.99593 0.0
C439 C 0.80787 0.13314 0.99708 0.0
H440 H 0.28676 0.15811 0.47482 0.0
H441 H 0.30563 0.12557 0.56188 0.0
H442 H 0.13526 0.15831 0.47849 0.0
H443 H 0.15499 0.12614 0.56776 0.0
H444 H 0.87371 0.12269 0.54013 0.0
H445 H 1.02433 0.12221 0.53421 0.0
H446 H 1.02515 0.16299 0.52051 0.0
H447 H 0.87331 0.16327 0.52366 0.0
C448 C 0.25855 0.15101 0.49491 0.0
C449 C 0.30848 0.14177 0.5178 0.0
C450 C 0.17135 0.1512 0.49747 0.0
C451 C 0.1316 0.14227 0.5236 0.0
C452 C 0.1821 0.13304 0.54652 0.0
C453 C 0.26907 0.13274 0.54339 0.0
C454 C 0.90614 0.13156 0.53607 0.0
C455 C 0.86135 0.14303 0.53256 0.0
C456 C 0.99309 0.13131 0.53289 0.0
C457 C 0.03829 0.14256 0.52695 0.0
C458 C 0.99319 0.15407 0.52413 0.0
C459 C 0.90587 0.15427 0.52643 0.0
H460 H 0.76932 0.90477 0.48237 0.0
H461 H 0.78584 0.86972 0.55644 0.0
H462 H 0.92081 0.90479 0.47912 0.0
H463 H 0.93765 0.87005 0.55542 0.0
H464 H 0.20205 0.86712 0.51312 0.0
H465 H 0.04999 0.86701 0.51326 0.0
H466 H 0.04953 0.90797 0.5173 0.0
H467 H 0.20123 0.90799 0.51454 0.0
C468 C 0.80538 0.89711 0.49834 0.0
C469 C 0.76514 0.88722 0.51952 0.0
C470 C 0.89277 0.89717 0.49682 0.0
C471 C 0.94267 0.88742 0.51699 0.0
C472 C 0.90203 0.8776 0.53859 0.0
C473 C 0.81457 0.87745 0.53953 0.0
C474 C 0.16937 0.8761 0.51373 0.0
C475 C 0.21397 0.88756 0.51357 0.0
C476 C 0.08182 0.87606 0.51427 0.0
C477 C 0.03631 0.88748 0.5155 0.0
C478 C 0.08138 0.89895 0.51545 0.0
C479 C 0.16884 0.89899 0.51412 0.0
H480 H 0.06513 0.54888 0.09235 0.0
H481 H 1.00968 0.54638 0.94939 0.0
H482 H 0.06798 0.52581 0.09692 0.0
H483 H 1.01625 0.52342 0.95372 0.0
H484 H 0.94448 0.48275 0.98196 0.0
H485 H 0.93941 0.50572 0.97923 0.0
H486 H 0.15072 0.50765 0.07788 0.0
H487 H 0.15655 0.4846 0.08034 0.0
C488 C 0.05369 0.54343 0.06188 0.0
C489 C 0.03746 0.54955 0.02048 0.0
C490 C 0.05623 0.53019 0.06444 0.0
C491 C 0.04244 0.52271 0.0257 0.0
C492 C 1.02626 0.52883 0.98435 0.0
C493 C 1.0237 0.54205 0.98179 0.0
C494 C 0.99055 0.48803 1.00282 0.0
C495 C 0.05119 0.48172 0.03124 0.0
C496 C 0.98753 0.50125 1.00126 0.0
C497 C 0.04483 0.50859 0.02821 0.0
C498 C 0.10485 0.50232 0.05708 0.0
C499 C 0.1081 0.48907 0.05853 0.0
H500 H 0.03933 0.48055 0.58126 0.0
H501 H 0.99925 0.48438 0.43787 0.0
H502 H 0.04408 0.50362 0.58872 0.0
H503 H 1.00726 0.50728 0.44521 0.0
H504 H 0.93221 0.54758 0.4763 0.0
H505 H 0.92529 0.52463 0.47191 0.0
H506 H 0.13281 0.52181 0.57251 0.0
H507 H 0.14099 0.54485 0.57644 0.0
C508 C 1.03156 0.48629 0.55136 0.0
C509 C 1.01918 0.48058 0.50895 0.0
C510 C 1.03516 0.49951 0.55561 0.0
C511 C 1.02594 0.5073 0.51757 0.0
C512 C 1.0136 0.50158 0.47526 0.0
C513 C 1.01012 0.48842 0.47102 0.0
C514 C 0.97706 0.54212 0.49724 0.0
C515 C 0.03763 0.54815 0.52649 0.0
C516 C 0.97291 0.52892 0.49477 0.0
C517 C 1.02881 0.52136 0.52166 0.0
C518 C 0.08824 0.52735 0.55165 0.0
C519 C 0.09277 0.54058 0.55394 0.0
H520 H 0.60107 0.98203 0.96979 0.0
H521 H 0.45087 0.98252 0.08356 0.0
H522 H 0.59126 1.00493 0.96507 0.0
H523 H 0.44692 1.00548 0.0811 0.0
H524 H 0.38634 0.04627 0.03983 0.0
H525 H 0.39031 0.02319 0.04341 0.0
H526 H 0.64141 0.02354 0.99896 0.0
H527 H 0.63578 0.0465 0.99405 0.0
C528 C 0.56564 0.98697 0.99378 0.0
C529 C 0.52663 0.98029 0.02701 0.0
C530 C 0.5613 1.0002 0.99158 0.0
C531 C 0.51877 1.0072 0.0229 0.0
C532 C 0.47943 1.0005 0.05599 0.0
C533 C 0.48284 0.98726 0.05783 0.0
C534 C 0.44242 0.04139 0.03105 0.0
C535 C 0.51039 0.04822 0.0163 0.0
C536 C 0.44496 0.02813 0.03321 0.0
C537 C 0.51603 0.02137 0.02119 0.0
C538 C 0.58466 0.02829 0.00739 0.0
C539 C 0.58168 0.04151 0.00477 0.0
H540 H 0.50182 0.04889 0.45138 0.0
H541 H 0.56965 0.04673 0.59338 0.0
H542 H 0.4996 0.0258 0.4472 0.0
H543 H 0.56373 0.02375 0.58951 0.0
H544 H 0.63722 0.98317 0.559 0.0
H545 H 0.64062 1.00618 0.56144 0.0
H546 H 0.41931 1.00764 0.46933 0.0
H547 H 0.41509 0.98458 0.46726 0.0
C548 C 0.51606 0.04351 0.48172 0.0
C549 C 0.53564 0.04972 0.52273 0.0
C550 C 0.51392 0.03026 0.4794 0.0
C551 C 0.5315 0.02289 0.51801 0.0
C552 C 0.55081 0.02911 0.559 0.0
C553 C 0.55301 0.04232 0.56131 0.0
C554 C 0.58871 0.98836 0.53954 0.0
C555 C 0.52567 0.98194 0.51305 0.0
C556 C 0.59075 1.00159 0.54092 0.0
C557 C 0.53007 1.00879 0.51571 0.0
C558 C 0.46768 1.00241 0.48874 0.0
C559 C 0.46539 0.98916 0.4875 0.0
H560 H 0.33277 0.30022 0.9783 0.0
H561 H 0.11841 0.29099 0.0514 0.0
H562 H 0.3772 0.27822 0.9818 0.0
H563 H 0.16581 0.26908 0.05731 0.0
H564 H 0.22449 0.22824 0.019 0.0
H565 H 0.17812 0.25024 0.01465 0.0
H566 H 0.43645 0.26259 0.03087 0.0
H567 H 0.48257 0.24066 0.03476 0.0
C568 C 0.29508 0.29352 0.99526 0.0
C569 C 0.22162 0.29746 0.01439 0.0
C570 C 0.3213 0.28088 0.9978 0.0
C571 C 0.27529 0.27179 0.01988 0.0
C572 C 0.20235 0.27574 0.03949 0.0
C573 C 0.17581 0.28839 0.0367 0.0
C574 C 0.27138 0.23566 0.02183 0.0
C575 C 0.35737 0.23263 0.02703 0.0
C576 C 0.24476 0.2483 0.01946 0.0
C577 C 0.30339 0.25828 0.02239 0.0
C578 C 0.38936 0.25522 0.02763 0.0
C579 C 0.41592 0.24259 0.02985 0.0
H580 H 0.81005 0.79955 0.07463 0.0
H581 H 0.64364 0.79171 0.9575 0.0
H582 H 0.85225 0.77735 0.07775 0.0
H583 H 0.68499 0.76957 0.9608 0.0
H584 H 0.83614 0.73331 0.95211 0.0
H585 H 0.79633 0.75553 0.94935 0.0
H586 H 0.80616 0.75662 0.09362 0.0
H587 H 0.85132 0.73461 0.09645 0.0
C588 C 0.78203 0.79309 0.04969 0.0
C589 C 0.7238 0.79749 0.01565 0.0
C590 C 0.80608 0.78032 0.05153 0.0
C591 C 0.77228 0.77159 0.01947 0.0
C592 C 0.71379 0.77601 0.98557 0.0
C593 C 0.69 0.78876 0.98366 0.0
C594 C 0.83074 0.7383 0.98332 0.0
C595 C 0.84726 0.73208 0.02451 0.0
C596 C 0.80672 0.75105 0.98172 0.0
C597 C 0.79778 0.75795 0.02126 0.0
C598 C 0.81341 0.7517 0.06245 0.0
C599 C 0.83804 0.73897 0.06405 0.0
H600 H 0.09558 0.74035 0.53099 0.0
H601 H 0.3448 0.72886 0.50133 0.0
H602 H 0.14088 0.76233 0.53491 0.0
H603 H 0.39062 0.75085 0.50576 0.0
H604 H 0.42783 0.79253 0.47517 0.0
H605 H 0.37892 0.77072 0.46884 0.0
H606 H 0.22344 0.77693 0.57847 0.0
H607 H 0.26802 0.79889 0.58286 0.0
C608 C 0.16042 0.74249 0.52589 0.0
C609 C 0.2165 0.73279 0.51594 0.0
C610 C 0.18651 0.75513 0.52812 0.0
C611 C 0.26958 0.75845 0.52065 0.0
C612 C 0.3258 0.74873 0.51092 0.0
C613 C 0.29957 0.73608 0.50851 0.0
C614 C 0.38206 0.78933 0.49742 0.0
C615 C 0.35216 0.79755 0.52959 0.0
C616 C 0.35493 0.77672 0.49425 0.0
C617 C 0.29744 0.77196 0.5233 0.0
C618 C 0.26699 0.78023 0.55515 0.0
C619 C 0.29359 0.79283 0.55809 0.0
H620 H 0.86042 0.29356 0.60523 0.0
H621 H 0.85509 0.29605 0.46132 0.0
H622 H 0.81527 0.27163 0.59908 0.0
H623 H 0.81449 0.27384 0.45529 0.0
H624 H 0.65478 0.23792 0.45894 0.0
H625 H 0.69966 0.2599 0.46405 0.0
H626 H 0.86297 0.25102 0.58137 0.0
H627 H 0.81776 0.229 0.57631 0.0
C628 C 0.84942 0.28946 0.57219 0.0
C629 C 0.86108 0.29668 0.53377 0.0
C630 C 0.82473 0.27677 0.5687 0.0
C631 C 0.81144 0.27087 0.52669 0.0
C632 C 0.8232 0.27807 0.48822 0.0
C633 C 0.84756 0.2908 0.4917 0.0
C634 C 0.70111 0.24059 0.48553 0.0
C635 C 0.73275 0.23161 0.51713 0.0
C636 C 0.72689 0.25325 0.48847 0.0
C637 C 0.78506 0.25731 0.52313 0.0
C638 C 0.81704 0.24832 0.55463 0.0
C639 C 0.79116 0.23565 0.55171 0.0
H640 H 0.13271 0.36294 0.17925 0.0
H641 H 0.03825 0.40068 0.15227 0.0
H642 H 0.10139 0.36495 0.2567 0.0
H643 H 1.00547 0.40268 0.23117 0.0
H644 H 0.03756 0.39975 0.3959 0.0
H645 H 0.07016 0.40209 0.31709 0.0
H646 H 0.96002 0.36546 0.28722 0.0
H647 H 0.92915 0.3631 0.36463 0.0
C648 C 0.10605 0.37176 0.19004 0.0
C649 C 0.08719 0.38158 0.15942 0.0
C650 C 0.08766 0.3729 0.23453 0.0
C651 C 0.04916 0.38386 0.25001 0.0
C652 C 1.03484 0.39409 0.22023 0.0
C653 C 0.05365 0.39295 0.17515 0.0
C654 C 1.01889 0.39237 0.37208 0.0
C655 C 0.98153 0.38117 0.38651 0.0
C656 C 0.03765 0.39369 0.32706 0.0
C657 C 1.01932 0.38383 0.29607 0.0
C658 C 0.97686 0.37311 0.31032 0.0
C659 C 0.95869 0.37178 0.35477 0.0
H660 H 0.12031 0.64894 0.14865 0.0
H661 H 0.88311 0.63124 0.16946 0.0
H662 H 0.14832 0.65153 0.22962 0.0
H663 H 0.91054 0.63397 0.2502 0.0
H664 H 0.95795 0.64954 0.39181 0.0
H665 H 0.9304 0.65099 0.31049 0.0
H666 H 0.17691 0.63581 0.29337 0.0
H667 H 0.20395 0.63422 0.37447 0.0
C668 C 0.07374 0.64575 0.1705 0.0
C669 C 0.99974 0.6398 0.15283 0.0
C670 C 0.0899 0.6472 0.2168 0.0
C671 C 1.03165 0.64295 0.24627 0.0
C672 C 0.95627 0.63745 0.22837 0.0
C673 C 0.94078 0.63581 0.18218 0.0
C674 C 1.0067 0.64672 0.37065 0.0
C675 C 0.08298 0.6417 0.3894 0.0
C676 C 0.99074 0.64747 0.32414 0.0
C677 C 0.05134 0.64345 0.29554 0.0
C678 C 0.12921 0.63906 0.31449 0.0
C679 C 0.14459 0.63811 0.3609 0.0
H680 H 0.8931 0.63864 0.8699 0.0
H681 H 0.15473 0.64811 0.89703 0.0
H682 H 0.91506 0.63674 0.78956 0.0
H683 H 0.17672 0.64605 0.8182 0.0
H684 H 0.14015 0.66481 0.6807 0.0
H685 H 0.12081 0.66126 0.75908 0.0
H686 H 0.99992 0.62553 0.72641 0.0
H687 H 1.02031 0.62912 0.6466 0.0
C688 C 0.95547 0.63995 0.85889 0.0
C689 C 1.02191 0.64376 0.88944 0.0
C690 C 0.96814 0.63886 0.81305 0.0
C691 C 0.04738 0.64148 0.79752 0.0
C692 C 0.11466 0.64421 0.82892 0.0
C693 C 0.102 0.64539 0.87413 0.0
C694 C 0.11044 0.65611 0.69013 0.0
C695 C 0.08244 0.64721 0.6576 0.0
C696 C 0.09941 0.65405 0.73513 0.0
C697 C 0.05917 0.64308 0.74906 0.0
C698 C 1.03109 0.63407 0.71662 0.0
C699 C 0.0435 0.63606 0.67116 0.0
H700 H 1.02291 0.37379 0.64681 0.0
H701 H 1.00549 0.414 0.67076 0.0
H702 H 0.04747 0.37028 0.72833 0.0
H703 H 1.02978 0.41053 0.7505 0.0
H704 H 0.19128 0.40282 0.87622 0.0
H705 H 0.16516 0.40232 0.7954 0.0
H706 H 0.96739 0.37501 0.80667 0.0
H707 H 0.99302 0.37562 0.88882 0.0
C708 C 1.02368 0.38182 0.66932 0.0
C709 C 1.01318 0.39419 0.65227 0.0
C710 C 0.03743 0.37982 0.71585 0.0
C711 C 0.04155 0.39016 0.74572 0.0
C712 C 1.02831 0.40239 0.7284 0.0
C713 C 1.01428 0.40437 0.68254 0.0
C714 C 0.14286 0.39656 0.86173 0.0
C715 C 0.0936 0.38937 0.8891 0.0
C716 C 0.12789 0.39628 0.81529 0.0
C717 C 0.06379 0.38871 0.79465 0.0
C718 C 1.01735 0.38092 0.82167 0.0
C719 C 1.03181 0.3813 0.86861 0.0
H720 H 0.67798 0.8913 0.17352 0.0
H721 H 0.4157 0.8822 0.14654 0.0
H722 H 0.65644 0.89313 0.25393 0.0
H723 H 0.39421 0.88418 0.22546 0.0
H724 H 0.43095 0.86517 0.36271 0.0
H725 H 0.45024 0.86878 0.28432 0.0
H726 H 0.57166 0.90445 0.31729 0.0
H727 H 0.55124 0.90082 0.39707 0.0
C728 C 0.61557 0.89006 0.18457 0.0
C729 C 0.54879 0.88639 0.15402 0.0
C730 C 0.60316 0.89112 0.23046 0.0
C731 C 0.52384 0.88857 0.24605 0.0
C732 C 0.45629 0.88596 0.21468 0.0
C733 C 0.46868 0.88484 0.16942 0.0
C734 C 0.46077 0.87388 0.35334 0.0
C735 C 0.48887 0.88275 0.38594 0.0
C736 C 0.47179 0.87596 0.30835 0.0
C737 C 0.51217 0.88693 0.2945 0.0
C738 C 0.54039 0.89591 0.32702 0.0
C739 C 0.52796 0.8939 0.37246 0.0
H740 H 0.37439 0.13199 0.1671 0.0
H741 H 0.61552 0.14889 0.14991 0.0
H742 H 0.39965 0.13413 0.24822 0.0
H743 H 0.64151 0.15084 0.23125 0.0
H744 H 0.69265 0.13172 0.37326 0.0
H745 H 0.66533 0.13401 0.29237 0.0
H746 H 0.42318 0.15043 0.31158 0.0
H747 H 0.45119 0.14832 0.39278 0.0
C748 C 0.4323 0.13632 0.1807 0.0
C749 C 0.4931 0.14021 0.15222 0.0
C750 C 0.44663 0.13759 0.22713 0.0
C751 C 0.52279 0.14258 0.24616 0.0
C752 C 0.58249 0.14687 0.21756 0.0
C753 C 0.56742 0.14583 0.17103 0.0
C754 C 0.63403 0.13596 0.36022 0.0
C755 C 0.57394 0.13978 0.38931 0.0
C756 C 0.61857 0.13734 0.31393 0.0
C757 C 0.54205 0.14238 0.29556 0.0
C758 C 0.48255 0.14645 0.32474 0.0
C759 C 0.4987 0.14528 0.37118 0.0
H760 H 0.43052 0.16456 0.86275 0.0
H761 H 0.55537 0.12923 0.89653 0.0
H762 H 0.44935 0.16099 0.78424 0.0
H763 H 0.5754 0.12562 0.81663 0.0
H764 H 0.67959 0.13866 0.67294 0.0
H765 H 0.65804 0.13683 0.75331 0.0
H766 H 0.39565 0.14577 0.72489 0.0
H767 H 0.41724 0.14777 0.64601 0.0
C768 C 0.46124 0.15592 0.85323 0.0
C769 C 0.49079 0.14714 0.88572 0.0
C770 C 0.47198 0.15386 0.80814 0.0
C771 C 0.51358 0.14299 0.79406 0.0
C772 C 0.54316 0.13409 0.82648 0.0
C773 C 0.53099 0.13608 0.87202 0.0
C774 C 0.61717 0.13992 0.68399 0.0
C775 C 0.55039 0.14359 0.65345 0.0
C776 C 0.60473 0.13886 0.72988 0.0
C777 C 0.52536 0.14139 0.74551 0.0
C778 C 0.45782 0.14401 0.71413 0.0
C779 C 0.47025 0.14514 0.66887 0.0
H780 H 0.36928 0.8959 0.66924 0.0
H781 H 0.61327 0.87997 0.65109 0.0
H782 H 0.3963 0.89402 0.75023 0.0
H783 H 0.64077 0.8782 0.73233 0.0
H784 H 0.69143 0.89723 0.87419 0.0
H785 H 0.66366 0.89472 0.79342 0.0
H786 H 0.42224 0.87827 0.81347 0.0
H787 H 0.45052 0.88066 0.89451 0.0
C788 C 0.42819 0.89181 0.6826 0.0
C789 C 0.48926 0.88813 0.6539 0.0
C790 C 0.44355 0.89069 0.72897 0.0
C791 C 0.52085 0.88602 0.74771 0.0
C792 C 0.58088 0.88192 0.71888 0.0
C793 C 0.56494 0.88286 0.6724 0.0
C794 C 0.63288 0.89293 0.86136 0.0
C795 C 0.57299 0.88921 0.8906 0.0
C796 C 0.61717 0.89143 0.81512 0.0
C797 C 0.54066 0.88632 0.79703 0.0
C798 C 0.48153 0.8823 0.8264 0.0
C799 C 0.49785 0.88363 0.87276 0.0
loop_
_geom_bond_atom_site_label_1
_geom_bond_atom_site_label_2
_geom_bond_distance
_geom_bond_site_symmetry_2
_ccdc_geom_bond_type
Pr0 C2 2.880 . S
Pr0 O20 2.562 1_554 S
Pr0 O21 2.490 . S
Pr0 O22 2.695 . S
Pr0 O23 2.512 . S
Pr0 O25 2.437 . S
Pr0 O28 2.436 1_554 S
Pr0 O30 2.438 1_455 S
Pr1 C11 2.880 1_455 S
Pr1 O22 2.436 . S
Pr1 O24 2.438 . S
Pr1 O26 2.562 . S
Pr1 O27 2.490 1_554 S
Pr1 O28 2.695 1_554 S
Pr1 O29 2.512 1_554 S
Pr1 O31 2.437 1_454 S
C2 Pr0 2.880 . S
C2 C3 1.491 . S
C2 O20 1.254 1_554 S
C2 O21 1.225 . S
C3 C2 1.491 . S
C3 C4 1.392 . S
C3 C8 1.356 1_554 S
C4 C3 1.392 . S
C4 C5 1.368 . S
C4 H32 0.929 . S
C5 C4 1.368 . S
C5 C6 1.386 . S
C5 H33 0.929 . S
C6 C5 1.386 . S
C6 C7 1.373 1_554 S
C7 C6 1.373 1_556 S
C7 C8 1.409 . S
C7 H34 0.931 . S
C8 C3 1.356 1_556 S
C8 C7 1.409 . S
C8 H35 0.930 . S
C9 O22 1.270 . S
C9 O23 1.248 . S
C10 O24 1.267 . S
C10 O25 1.278 . S
C11 Pr1 2.880 1_655 S
C11 C12 1.491 . S
C11 O26 1.254 1_655 S
C11 O27 1.225 1_654 S
C12 C11 1.491 . S
C12 C13 1.392 1_554 S
C12 C17 1.356 . S
C13 C12 1.392 1_556 S
C13 C14 1.368 . S
C13 H36 0.929 . S
C14 C13 1.368 . S
C14 C15 1.386 1_556 S
C14 H37 0.929 . S
C15 C14 1.386 1_554 S
C15 C16 1.373 . S
C16 C15 1.373 . S
C16 C17 1.409 . S
C16 H38 0.931 . S
C17 C12 1.356 . S
C17 C16 1.409 . S
C17 H39 0.930 . S
C18 O28 1.270 . S
C18 O29 1.248 . S
C19 O30 1.267 . S
C19 O31 1.278 1_554 S
O20 Pr0 2.562 1_556 S
O20 C2 1.254 1_556 S
O21 Pr0 2.490 . S
O21 C2 1.225 . S
O22 Pr0 2.695 . S
O22 Pr1 2.436 . S
O22 C9 1.270 . S
O23 Pr0 2.512 . S
O23 C9 1.248 . S
O24 Pr1 2.438 . S
O24 C10 1.267 . S
O25 Pr0 2.437 . S
O25 C10 1.278 . S
O26 Pr1 2.562 . S
O26 C11 1.254 1_455 S
O27 Pr1 2.490 1_556 S
O27 C11 1.225 1_456 S
O28 Pr0 2.436 1_556 S
O28 Pr1 2.695 1_556 S
O28 C18 1.270 . S
O29 Pr1 2.512 1_556 S
O29 C18 1.248 . S
O30 Pr0 2.438 1_655 S
O30 C19 1.267 . S
O31 Pr1 2.437 1_656 S
O31 C19 1.278 1_556 S
H32 C4 0.929 . S
H33 C5 0.929 . S
H34 C7 0.931 . S
H35 C8 0.930 . S
H36 C13 0.929 . S
H37 C14 0.929 . S
H38 C16 0.931 . S
H39 C17 0.930 . S
Pr40 C42 2.880 1_655 S
Pr40 O60 2.562 1_554 S
Pr40 O61 2.490 . S
Pr40 O62 2.695 . S
Pr40 O63 2.512 . S
Pr40 O65 2.437 1_655 S
Pr40 O68 2.436 1_554 S
Pr40 O70 2.438 . S
Pr41 C51 2.880 . S
Pr41 O62 2.436 . S
Pr41 O64 2.438 1_655 S
Pr41 O66 2.562 . S
Pr41 O67 2.490 1_554 S
Pr41 O68 2.695 1_554 S
Pr41 O69 2.512 1_554 S
Pr41 O71 2.437 1_554 S
C42 Pr40 2.880 1_455 S
C42 C43 1.491 . S
C42 O60 1.254 1_454 S
C42 O61 1.225 1_455 S
C43 C42 1.491 . S
C43 C44 1.392 . S
C43 C48 1.356 1_554 S
C44 C43 1.392 . S
C44 C45 1.368 . S
C44 H72 0.929 . S
C45 C44 1.368 . S
C45 C46 1.386 . S
C45 H73 0.929 . S
C46 C45 1.386 . S
C46 C47 1.373 1_554 S
C47 C46 1.373 1_556 S
C47 C48 1.409 . S
C47 H74 0.931 . S
C48 C43 1.356 1_556 S
C48 C47 1.409 . S
C48 H75 0.930 . S
C49 O62 1.270 . S
C49 O63 1.248 . S
C50 O64 1.267 . S
C50 O65 1.278 . S
C51 Pr41 2.880 . S
C51 C52 1.491 . S
C51 O66 1.254 . S
C51 O67 1.225 1_554 S
C52 C51 1.491 . S
C52 C53 1.392 1_554 S
C52 C57 1.356 . S
C53 C52 1.392 1_556 S
C53 C54 1.368 . S
C53 H76 0.929 . S
C54 C53 1.368 . S
C54 C55 1.386 1_556 S
C54 H77 0.929 . S
C55 C54 1.386 1_554 S
C55 C56 1.373 . S
C56 C55 1.373 . S
C56 C57 1.409 . S
C56 H78 0.931 . S
C57 C52 1.356 . S
C57 C56 1.409 . S
C57 H79 0.930 . S
C58 O68 1.270 . S
C58 O69 1.248 . S
C59 O70 1.267 . S
C59 O71 1.278 1_554 S
O60 Pr40 2.562 1_556 S
O60 C42 1.254 1_656 S
O61 Pr40 2.490 . S
O61 C42 1.225 1_655 S
O62 Pr40 2.695 . S
O62 Pr41 2.436 . S
O62 C49 1.270 . S
O63 Pr40 2.512 . S
O63 C49 1.248 . S
O64 Pr41 2.438 1_455 S
O64 C50 1.267 . S
O65 Pr40 2.437 1_455 S
O65 C50 1.278 . S
O66 Pr41 2.562 . S
O66 C51 1.254 . S
O67 Pr41 2.490 1_556 S
O67 C51 1.225 1_556 S
O68 Pr40 2.436 1_556 S
O68 Pr41 2.695 1_556 S
O68 C58 1.270 . S
O69 Pr41 2.512 1_556 S
O69 C58 1.248 . S
O70 Pr40 2.438 . S
O70 C59 1.267 . S
O71 Pr41 2.437 1_556 S
O71 C59 1.278 1_556 S
H72 C44 0.929 . S
H73 C45 0.929 . S
H74 C47 0.931 . S
H75 C48 0.930 . S
H76 C53 0.929 . S
H77 C54 0.929 . S
H78 C56 0.931 . S
H79 C57 0.930 . S
Pr80 C82 2.880 1_455 S
Pr80 O100 2.562 . S
Pr80 O101 2.490 . S
Pr80 O102 2.695 . S
Pr80 O103 2.512 . S
Pr80 O105 2.437 1_455 S
Pr80 O108 2.436 . S
Pr80 O110 2.438 . S
Pr81 C91 2.880 . S
Pr81 O102 2.436 . S
Pr81 O104 2.438 1_455 S
Pr81 O106 2.562 . S
Pr81 O107 2.490 . S
Pr81 O108 2.695 . S
Pr81 O109 2.512 . S
Pr81 O111 2.437 . S
C82 Pr80 2.880 1_655 S
C82 C83 1.491 . S
C82 O100 1.254 1_655 S
C82 O101 1.225 1_655 S
C83 C82 1.491 . S
C83 C84 1.392 . S
C83 C88 1.356 . S
C84 C83 1.392 . S
C84 C85 1.368 . S
C84 H112 0.929 . S
C85 C84 1.368 . S
C85 C86 1.386 . S
C85 H113 0.929 . S
C86 C85 1.386 . S
C86 C87 1.373 . S
C87 C86 1.373 . S
C87 C88 1.409 . S
C87 H114 0.931 . S
C88 C83 1.356 . S
C88 C87 1.409 . S
C88 H115 0.930 . S
C89 O102 1.270 . S
C89 O103 1.248 . S
C90 O104 1.267 . S
C90 O105 1.278 . S
C91 Pr81 2.880 . S
C91 C92 1.491 . S
C91 O106 1.254 . S
C91 O107 1.225 . S
C92 C91 1.491 . S
C92 C93 1.392 . S
C92 C97 1.356 . S
C93 C92 1.392 . S
C93 C94 1.368 . S
C93 H116 0.929 . S
C94 C93 1.368 . S
C94 C95 1.386 . S
C94 H117 0.929 . S
C95 C94 1.386 . S
C95 C96 1.373 . S
C96 C95 1.373 . S
C96 C97 1.409 . S
C96 H118 0.931 . S
C97 C92 1.356 . S
C97 C96 1.409 . S
C97 H119 0.930 . S
C98 O108 1.270 . S
C98 O109 1.248 . S
C99 O110 1.267 . S
C99 O111 1.278 . S
O100 Pr80 2.562 . S
O100 C82 1.254 1_455 S
O101 Pr80 2.490 . S
O101 C82 1.225 1_455 S
O102 Pr80 2.695 . S
O102 Pr81 2.436 . S
O102 C89 1.270 . S
O103 Pr80 2.512 . S
O103 C89 1.248 . S
O104 Pr81 2.438 1_655 S
O104 C90 1.267 . S
O105 Pr80 2.437 1_655 S
O105 C90 1.278 . S
O106 Pr81 2.562 . S
O106 C91 1.254 . S
O107 Pr81 2.490 . S
O107 C91 1.225 . S
O108 Pr80 2.436 . S
O108 Pr81 2.695 . S
O108 C98 1.270 . S
O109 Pr81 2.512 . S
O109 C98 1.248 . S
O110 Pr80 2.438 . S
O110 C99 1.267 . S
O111 Pr81 2.437 . S
O111 C99 1.278 . S
H112 C84 0.929 . S
H113 C85 0.929 . S
H114 C87 0.931 . S
H115 C88 0.930 . S
H116 C93 0.929 . S
H117 C94 0.929 . S
H118 C96 0.931 . S
H119 C97 0.930 . S
Pr120 C122 2.880 . S
Pr120 O140 2.562 . S
Pr120 O141 2.490 . S
Pr120 O142 2.695 . S
Pr120 O143 2.512 . S
Pr120 O145 2.437 . S
Pr120 O148 2.436 . S
Pr120 O150 2.438 1_655 S
Pr121 C131 2.880 1_655 S
Pr121 O142 2.436 . S
Pr121 O144 2.438 . S
Pr121 O146 2.562 . S
Pr121 O147 2.490 . S
Pr121 O148 2.695 . S
Pr121 O149 2.512 . S
Pr121 O151 2.437 1_655 S
C122 Pr120 2.880 . S
C122 C123 1.491 . S
C122 O140 1.254 . S
C122 O141 1.225 . S
C123 C122 1.491 . S
C123 C124 1.392 . S
C123 C128 1.356 . S
C124 C123 1.392 . S
C124 C125 1.368 . S
C124 H152 0.929 . S
C125 C124 1.368 . S
C125 C126 1.386 . S
C125 H153 0.929 . S
C126 C125 1.386 . S
C126 C127 1.373 . S
C127 C126 1.373 . S
C127 C128 1.409 . S
C127 H154 0.931 . S
C128 C123 1.356 . S
C128 C127 1.409 . S
C128 H155 0.930 . S
C129 O142 1.270 . S
C129 O143 1.248 . S
C130 O144 1.267 . S
C130 O145 1.278 . S
C131 Pr121 2.880 1_455 S
C131 C132 1.491 . S
C131 O146 1.254 1_455 S
C131 O147 1.225 1_455 S
C132 C131 1.491 . S
C132 C133 1.392 . S
C132 C137 1.356 . S
C133 C132 1.392 . S
C133 C134 1.368 . S
C133 H156 0.929 . S
C134 C133 1.368 . S
C134 C135 1.386 . S
C134 H157 0.929 . S
C135 C134 1.386 . S
C135 C136 1.373 . S
C136 C135 1.373 . S
C136 C137 1.409 . S
C136 H158 0.931 . S
C137 C132 1.356 . S
C137 C136 1.409 . S
C137 H159 0.930 . S
C138 O148 1.270 . S
C138 O149 1.248 . S
C139 O150 1.267 . S
C139 O151 1.278 . S
O140 Pr120 2.562 . S
O140 C122 1.254 . S
O141 Pr120 2.490 . S
O141 C122 1.225 . S
O142 Pr120 2.695 . S
O142 Pr121 2.436 . S
O142 C129 1.270 . S
O143 Pr120 2.512 . S
O143 C129 1.248 . S
O144 Pr121 2.438 . S
O144 C130 1.267 . S
O145 Pr120 2.437 . S
O145 C130 1.278 . S
O146 Pr121 2.562 . S
O146 C131 1.254 1_655 S
O147 Pr121 2.490 . S
O147 C131 1.225 1_655 S
O148 Pr120 2.436 . S
O148 Pr121 2.695 . S
O148 C138 1.270 . S
O149 Pr121 2.512 . S
O149 C138 1.248 . S
O150 Pr120 2.438 1_455 S
O150 C139 1.267 . S
O151 Pr121 2.437 1_455 S
O151 C139 1.278 . S
H152 C124 0.929 . S
H153 C125 0.929 . S
H154 C127 0.931 . S
H155 C128 0.930 . S
H156 C133 0.929 . S
H157 C134 0.929 . S
H158 C136 0.931 . S
H159 C137 0.930 . S
Pr160 C162 2.880 . S
Pr160 O180 2.562 1_554 S
Pr160 O181 2.490 . S
Pr160 O182 2.695 . S
Pr160 O183 2.512 . S
Pr160 O185 2.437 . S
Pr160 O188 2.436 1_554 S
Pr160 O190 2.438 . S
Pr161 C171 2.880 . S
Pr161 O182 2.436 . S
Pr161 O184 2.438 . S
Pr161 O186 2.562 . S
Pr161 O187 2.490 1_554 S
Pr161 O188 2.695 1_554 S
Pr161 O189 2.512 1_554 S
Pr161 O191 2.437 1_554 S
C162 Pr160 2.880 . S
C162 C163 1.491 . S
C162 O180 1.254 1_554 S
C162 O181 1.225 . S
C163 C162 1.491 . S
C163 C164 1.392 . S
C163 C168 1.356 1_554 S
C164 C163 1.392 . S
C164 C165 1.368 . S
C164 H192 0.929 . S
C165 C164 1.368 . S
C165 C166 1.386 . S
C165 H193 0.929 . S
C166 C165 1.386 . S
C166 C167 1.373 1_554 S
C167 C166 1.373 1_556 S
C167 C168 1.409 . S
C167 H194 0.931 . S
C168 C163 1.356 1_556 S
C168 C167 1.409 . S
C168 H195 0.930 . S
C169 O182 1.270 . S
C169 O183 1.248 . S
C170 O184 1.267 . S
C170 O185 1.278 . S
C171 Pr161 2.880 . S
C171 C172 1.491 . S
C171 O186 1.254 . S
C171 O187 1.225 1_554 S
C172 C171 1.491 . S
C172 C173 1.392 1_554 S
C172 C177 1.356 . S
C173 C172 1.392 1_556 S
C173 C174 1.368 . S
C173 H196 0.929 . S
C174 C173 1.368 . S
C174 C175 1.386 1_556 S
C174 H197 0.929 . S
C175 C174 1.386 1_554 S
C175 C176 1.373 . S
C176 C175 1.373 . S
C176 C177 1.409 . S
C176 H198 0.931 . S
C177 C172 1.356 . S
C177 C176 1.409 . S
C177 H199 0.930 . S
C178 O188 1.270 . S
C178 O189 1.248 . S
C179 O190 1.267 . S
C179 O191 1.278 1_554 S
O180 Pr160 2.562 1_556 S
O180 C162 1.254 1_556 S
O181 Pr160 2.490 . S
O181 C162 1.225 . S
O182 Pr160 2.695 . S
O182 Pr161 2.436 . S
O182 C169 1.270 . S
O183 Pr160 2.512 . S
O183 C169 1.248 . S
O184 Pr161 2.438 . S
O184 C170 1.267 . S
O185 Pr160 2.437 . S
O185 C170 1.278 . S
O186 Pr161 2.562 . S
O186 C171 1.254 . S
O187 Pr161 2.490 1_556 S
O187 C171 1.225 1_556 S
O188 Pr160 2.436 1_556 S
O188 Pr161 2.695 1_556 S
O188 C178 1.270 . S
O189 Pr161 2.512 1_556 S
O189 C178 1.248 . S
O190 Pr160 2.438 . S
O190 C179 1.267 . S
O191 Pr161 2.437 1_556 S
O191 C179 1.278 1_556 S
H192 C164 0.929 . S
H193 C165 0.929 . S
H194 C167 0.931 . S
H195 C168 0.930 . S
H196 C173 0.929 . S
H197 C174 0.929 . S
H198 C176 0.931 . S
H199 C177 0.930 . S
Pr200 C202 2.880 . S
Pr200 O220 2.562 1_554 S
Pr200 O221 2.490 . S
Pr200 O222 2.695 . S
Pr200 O223 2.512 . S
Pr200 O225 2.437 . S
Pr200 O228 2.436 1_554 S
Pr200 O230 2.438 . S
Pr201 C211 2.880 . S
Pr201 O222 2.436 . S
Pr201 O224 2.438 . S
Pr201 O226 2.562 . S
Pr201 O227 2.490 1_554 S
Pr201 O228 2.695 1_554 S
Pr201 O229 2.512 1_554 S
Pr201 O231 2.437 1_554 S
C202 Pr200 2.880 . S
C202 C203 1.491 . S
C202 O220 1.254 1_554 S
C202 O221 1.225 . S
C203 C202 1.491 . S
C203 C204 1.392 . S
C203 C208 1.356 1_554 S
C204 C203 1.392 . S
C204 C205 1.368 . S
C204 H232 0.929 . S
C205 C204 1.368 . S
C205 C206 1.386 . S
C205 H233 0.929 . S
C206 C205 1.386 . S
C206 C207 1.373 1_554 S
C207 C206 1.373 1_556 S
C207 C208 1.409 . S
C207 H234 0.931 . S
C208 C203 1.356 1_556 S
C208 C207 1.409 . S
C208 H235 0.930 . S
C209 O222 1.270 . S
C209 O223 1.248 . S
C210 O224 1.267 . S
C210 O225 1.278 . S
C211 Pr201 2.880 . S
C211 C212 1.491 . S
C211 O226 1.254 . S
C211 O227 1.225 1_554 S
C212 C211 1.491 . S
C212 C213 1.392 1_554 S
C212 C217 1.356 . S
C213 C212 1.392 1_556 S
C213 C214 1.368 . S
C213 H236 0.929 . S
C214 C213 1.368 . S
C214 C215 1.386 1_556 S
C214 H237 0.929 . S
C215 C214 1.386 1_554 S
C215 C216 1.373 . S
C216 C215 1.373 . S
C216 C217 1.409 . S
C216 H238 0.931 . S
C217 C212 1.356 . S
C217 C216 1.409 . S
C217 H239 0.930 . S
C218 O228 1.270 . S
C218 O229 1.248 . S
C219 O230 1.267 . S
C219 O231 1.278 1_554 S
O220 Pr200 2.562 1_556 S
O220 C202 1.254 1_556 S
O221 Pr200 2.490 . S
O221 C202 1.225 . S
O222 Pr200 2.695 . S
O222 Pr201 2.436 . S
O222 C209 1.270 . S
O223 Pr200 2.512 . S
O223 C209 1.248 . S
O224 Pr201 2.438 . S
O224 C210 1.267 . S
O225 Pr200 2.437 . S
O225 C210 1.278 . S
O226 Pr201 2.562 . S
O226 C211 1.254 . S
O227 Pr201 2.490 1_556 S
O227 C211 1.225 1_556 S
O228 Pr200 2.436 1_556 S
O228 Pr201 2.695 1_556 S
O228 C218 1.270 . S
O229 Pr201 2.512 1_556 S
O229 C218 1.248 . S
O230 Pr200 2.438 . S
O230 C219 1.267 . S
O231 Pr201 2.437 1_556 S
O231 C219 1.278 1_556 S
H232 C204 0.929 . S
H233 C205 0.929 . S
H234 C207 0.931 . S
H235 C208 0.930 . S
H236 C213 0.929 . S
H237 C214 0.929 . S
H238 C216 0.931 . S
H239 C217 0.930 . S
Pr240 C242 2.880 . S
Pr240 O260 2.562 . S
Pr240 O261 2.490 . S
Pr240 O262 2.695 . S
Pr240 O263 2.512 . S
Pr240 O265 2.437 . S
Pr240 O268 2.436 . S
Pr240 O270 2.438 . S
Pr241 C251 2.880 . S
Pr241 O262 2.436 . S
Pr241 O264 2.438 . S
Pr241 O266 2.562 . S
Pr241 O267 2.490 . S
Pr241 O268 2.695 . S
Pr241 O269 2.512 . S
Pr241 O271 2.437 . S
C242 Pr240 2.880 . S
C242 C243 1.491 . S
C242 O260 1.254 . S
C242 O261 1.225 . S
C243 C242 1.491 . S
C243 C244 1.392 . S
C243 C248 1.356 . S
C244 C243 1.392 . S
C244 C245 1.368 . S
C244 H272 0.929 . S
C245 C244 1.368 . S
C245 C246 1.386 . S
C245 H273 0.929 . S
C246 C245 1.386 . S
C246 C247 1.373 . S
C247 C246 1.373 . S
C247 C248 1.409 . S
C247 H274 0.931 . S
C248 C243 1.356 . S
C248 C247 1.409 . S
C248 H275 0.930 . S
C249 O262 1.270 . S
C249 O263 1.248 . S
C250 O264 1.267 . S
C250 O265 1.278 . S
C251 Pr241 2.880 . S
C251 C252 1.491 . S
C251 O266 1.254 . S
C251 O267 1.225 . S
C252 C251 1.491 . S
C252 C253 1.392 . S
C252 C257 1.356 . S
C253 C252 1.392 . S
C253 C254 1.368 . S
C253 H276 0.929 . S
C254 C253 1.368 . S
C254 C255 1.386 . S
C254 H277 0.929 . S
C255 C254 1.386 . S
C255 C256 1.373 . S
C256 C255 1.373 . S
C256 C257 1.409 . S
C256 H278 0.931 . S
C257 C252 1.356 . S
C257 C256 1.409 . S
C257 H279 0.930 . S
C258 O268 1.270 . S
C258 O269 1.248 . S
C259 O270 1.267 . S
C259 O271 1.278 . S
O260 Pr240 2.562 . S
O260 C242 1.254 . S
O261 Pr240 2.490 . S
O261 C242 1.225 . S
O262 Pr240 2.695 . S
O262 Pr241 2.436 . S
O262 C249 1.270 . S
O263 Pr240 2.512 . S
O263 C249 1.248 . S
O264 Pr241 2.438 . S
O264 C250 1.267 . S
O265 Pr240 2.437 . S
O265 C250 1.278 . S
O266 Pr241 2.562 . S
O266 C251 1.254 . S
O267 Pr241 2.490 . S
O267 C251 1.225 . S
O268 Pr240 2.436 . S
O268 Pr241 2.695 . S
O268 C258 1.270 . S
O269 Pr241 2.512 . S
O269 C258 1.248 . S
O270 Pr240 2.438 . S
O270 C259 1.267 . S
O271 Pr241 2.437 . S
O271 C259 1.278 . S
H272 C244 0.929 . S
H273 C245 0.929 . S
H274 C247 0.931 . S
H275 C248 0.930 . S
H276 C253 0.929 . S
H277 C254 0.929 . S
H278 C256 0.931 . S
H279 C257 0.930 . S
Pr280 C282 2.880 . S
Pr280 O300 2.562 . S
Pr280 O301 2.490 . S
Pr280 O302 2.695 . S
Pr280 O303 2.512 . S
Pr280 O305 2.437 . S
Pr280 O308 2.436 . S
Pr280 O310 2.438 . S
Pr281 C291 2.880 . S
Pr281 O302 2.436 . S
Pr281 O304 2.438 . S
Pr281 O306 2.562 . S
Pr281 O307 2.490 . S
Pr281 O308 2.695 . S
Pr281 O309 2.512 . S
Pr281 O311 2.437 . S
C282 Pr280 2.880 . S
C282 C283 1.491 . S
C282 O300 1.254 . S
C282 O301 1.225 . S
C283 C282 1.491 . S
C283 C284 1.392 . S
C283 C288 1.356 . S
C284 C283 1.392 . S
C284 C285 1.368 . S
C284 H312 0.929 . S
C285 C284 1.368 . S
C285 C286 1.386 . S
C285 H313 0.929 . S
C286 C285 1.386 . S
C286 C287 1.373 . S
C287 C286 1.373 . S
C287 C288 1.409 . S
C287 H314 0.931 . S
C288 C283 1.356 . S
C288 C287 1.409 . S
C288 H315 0.930 . S
C289 O302 1.270 . S
C289 O303 1.248 . S
C290 O304 1.267 . S
C290 O305 1.278 . S
C291 Pr281 2.880 . S
C291 C292 1.491 . S
C291 O306 1.254 . S
C291 O307 1.225 . S
C292 C291 1.491 . S
C292 C293 1.392 . S
C292 C297 1.356 . S
C293 C292 1.392 . S
C293 C294 1.368 . S
C293 H316 0.929 . S
C294 C293 1.368 . S
C294 C295 1.386 . S
C294 H317 0.929 . S
C295 C294 1.386 . S
C295 C296 1.373 . S
C296 C295 1.373 . S
C296 C297 1.409 . S
C296 H318 0.931 . S
C297 C292 1.356 . S
C297 C296 1.409 . S
C297 H319 0.930 . S
C298 O308 1.270 . S
C298 O309 1.248 . S
C299 O310 1.267 . S
C299 O311 1.278 . S
O300 Pr280 2.562 . S
O300 C282 1.254 . S
O301 Pr280 2.490 . S
O301 C282 1.225 . S
O302 Pr280 2.695 . S
O302 Pr281 2.436 . S
O302 C289 1.270 . S
O303 Pr280 2.512 . S
O303 C289 1.248 . S
O304 Pr281 2.438 . S
O304 C290 1.267 . S
O305 Pr280 2.437 . S
O305 C290 1.278 . S
O306 Pr281 2.562 . S
O306 C291 1.254 . S
O307 Pr281 2.490 . S
O307 C291 1.225 . S
O308 Pr280 2.436 . S
O308 Pr281 2.695 . S
O308 C298 1.270 . S
O309 Pr281 2.512 . S
O309 C298 1.248 . S
O310 Pr280 2.438 . S
O310 C299 1.267 . S
O311 Pr281 2.437 . S
O311 C299 1.278 . S
H312 C284 0.929 . S
H313 C285 0.929 . S
H314 C287 0.931 . S
H315 C288 0.930 . S
H316 C293 0.929 . S
H317 C294 0.929 . S
H318 C296 0.931 . S
H319 C297 0.930 . S
H320 C328 0.950 . S
H321 C333 0.950 . S
H322 C330 0.950 . S
H323 C332 0.950 . S
H324 C334 0.950 . S
H325 C336 0.950 . S
H326 C338 0.950 . S
H327 C339 0.950 . S
C328 H320 0.950 . S
C328 C329 1.386 1_556 S
C328 C330 1.391 . S
C329 C328 1.386 1_554 S
C329 C333 1.393 . S
C330 H322 0.950 . S
C330 C328 1.391 . S
C330 C331 1.400 1_556 S
C331 C330 1.400 1_554 S
C331 C332 1.398 . S
C331 C337 1.491 . S
C332 H323 0.950 . S
C332 C331 1.398 . S
C332 C333 1.391 . S
C333 H321 0.950 . S
C333 C329 1.393 . S
C333 C332 1.391 . S
C334 H324 0.950 . S
C334 C335 1.386 . S
C334 C336 1.391 . S
C335 C334 1.386 . S
C335 C339 1.393 1_554 S
C336 H325 0.950 . S
C336 C334 1.391 . S
C336 C337 1.400 . S
C337 C331 1.491 . S
C337 C336 1.400 . S
C337 C338 1.398 1_554 S
C338 H326 0.950 . S
C338 C337 1.398 1_556 S
C338 C339 1.391 . S
C339 H327 0.950 . S
C339 C335 1.393 1_556 S
C339 C338 1.391 . S
H340 C348 0.950 . S
H341 C353 0.950 . S
H342 C350 0.950 . S
H343 C352 0.950 . S
H344 C354 0.950 . S
H345 C356 0.950 . S
H346 C358 0.950 . S
H347 C359 0.950 . S
C348 H340 0.950 . S
C348 C349 1.386 . S
C348 C350 1.391 . S
C349 C348 1.386 . S
C349 C353 1.393 1_554 S
C350 H342 0.950 . S
C350 C348 1.391 . S
C350 C351 1.400 . S
C351 C350 1.400 . S
C351 C352 1.398 1_554 S
C351 C357 1.491 . S
C352 H343 0.950 . S
C352 C351 1.398 1_556 S
C352 C353 1.391 . S
C353 H341 0.950 . S
C353 C349 1.393 1_556 S
C353 C352 1.391 . S
C354 H344 0.950 . S
C354 C355 1.386 1_556 S
C354 C356 1.391 . S
C355 C354 1.386 1_554 S
C355 C359 1.393 . S
C356 H345 0.950 . S
C356 C354 1.391 . S
C356 C357 1.400 1_556 S
C357 C351 1.491 . S
C357 C356 1.400 1_554 S
C357 C358 1.398 . S
C358 H346 0.950 . S
C358 C357 1.398 . S
C358 C359 1.391 . S
C359 H347 0.950 . S
C359 C355 1.393 . S
C359 C358 1.391 . S
H360 C368 0.950 . S
H361 C373 0.950 . S
H362 C370 0.950 . S
H363 C372 0.950 . S
H364 C374 0.950 . S
H365 C376 0.950 . S
H366 C378 0.950 . S
H367 C379 0.950 . S
C368 H360 0.950 . S
C368 C369 1.386 . S
C368 C370 1.391 . S
C369 C368 1.386 . S
C369 C373 1.393 . S
C370 H362 0.950 . S
C370 C368 1.391 . S
C370 C371 1.400 . S
C371 C370 1.400 . S
C371 C372 1.398 . S
C371 C377 1.491 . S
C372 H363 0.950 . S
C372 C371 1.398 . S
C372 C373 1.391 . S
C373 H361 0.950 . S
C373 C369 1.393 . S
C373 C372 1.391 . S
C374 H364 0.950 . S
C374 C375 1.386 . S
C374 C376 1.391 . S
C375 C374 1.386 . S
C375 C379 1.393 . S
C376 H365 0.950 . S
C376 C374 1.391 . S
C376 C377 1.400 . S
C377 C371 1.491 . S
C377 C376 1.400 . S
C377 C378 1.398 . S
C378 H366 0.950 . S
C378 C377 1.398 . S
C378 C379 1.391 . S
C379 H367 0.950 . S
C379 C375 1.393 . S
C379 C378 1.391 . S
H380 C388 0.950 . S
H381 C393 0.950 . S
H382 C390 0.950 . S
H383 C392 0.950 . S
H384 C394 0.950 . S
H385 C396 0.950 . S
H386 C398 0.950 . S
H387 C399 0.950 . S
C388 H380 0.950 . S
C388 C389 1.386 . S
C388 C390 1.391 . S
C389 C388 1.386 . S
C389 C393 1.393 . S
C390 H382 0.950 . S
C390 C388 1.391 . S
C390 C391 1.400 . S
C391 C390 1.400 . S
C391 C392 1.398 . S
C391 C397 1.491 . S
C392 H383 0.950 . S
C392 C391 1.398 . S
C392 C393 1.391 . S
C393 H381 0.950 . S
C393 C389 1.393 . S
C393 C392 1.391 . S
C394 H384 0.950 . S
C394 C395 1.386 . S
C394 C396 1.391 . S
C395 C394 1.386 . S
C395 C399 1.393 . S
C396 H385 0.950 . S
C396 C394 1.391 . S
C396 C397 1.400 . S
C397 C391 1.491 . S
C397 C396 1.400 . S
C397 C398 1.398 . S
C398 H386 0.950 . S
C398 C397 1.398 . S
C398 C399 1.391 . S
C399 H387 0.950 . S
C399 C395 1.393 . S
C399 C398 1.391 . S
H400 C408 0.950 1_556 S
H401 C413 0.950 . S
H402 C410 0.950 1_456 S
H403 C412 0.950 . S
H404 C414 0.950 . S
H405 C416 0.950 . S
H406 C418 0.950 . S
H407 C419 0.944 1_556 S
C408 H400 0.950 1_554 S
C408 C409 1.386 . S
C408 C410 1.391 . S
C409 C408 1.386 . S
C409 C413 1.393 . S
C410 H402 0.950 1_654 S
C410 C408 1.391 . S
C410 C411 1.400 1_655 S
C411 C410 1.400 1_455 S
C411 C412 1.398 1_455 S
C411 C417 1.491 . S
C412 H403 0.950 . S
C412 C411 1.398 1_655 S
C412 C413 1.391 . S
C413 H401 0.950 . S
C413 C409 1.393 . S
C413 C412 1.391 . S
C414 H404 0.950 . S
C414 C415 1.386 . S
C414 C416 1.391 . S
C415 C414 1.386 . S
C415 C419 1.393 . S
C416 H405 0.950 . S
C416 C414 1.391 . S
C416 C417 1.400 . S
C417 C411 1.491 . S
C417 C416 1.400 . S
C417 C418 1.398 . S
C418 H406 0.950 . S
C418 C417 1.398 . S
C418 C419 1.391 . S
C419 H407 0.944 1_554 S
C419 C415 1.393 . S
C419 C418 1.391 . S
H420 C428 0.950 . S
H421 C433 0.950 . S
H422 C430 0.950 . S
H423 C432 0.950 1_655 S
H424 C434 0.950 . S
H425 C436 0.950 . S
H426 C438 0.950 . S
H427 C439 0.950 . S
C428 H420 0.950 . S
C428 C429 1.386 . S
C428 C430 1.391 . S
C429 C428 1.386 . S
C429 C433 1.393 1_554 S
C430 H422 0.950 . S
C430 C428 1.391 . S
C430 C431 1.400 1_455 S
C431 C430 1.400 1_655 S
C431 C432 1.398 1_654 S
C431 C437 1.491 . S
C432 H423 0.950 1_455 S
C432 C431 1.398 1_456 S
C432 C433 1.391 . S
C433 H421 0.950 . S
C433 C429 1.393 1_556 S
C433 C432 1.391 . S
C434 H424 0.950 . S
C434 C435 1.386 1_556 S
C434 C436 1.391 . S
C435 C434 1.386 1_554 S
C435 C439 1.393 . S
C436 H425 0.950 . S
C436 C434 1.391 . S
C436 C437 1.400 1_556 S
C437 C431 1.491 . S
C437 C436 1.400 1_554 S
C437 C438 1.398 . S
C438 H426 0.950 . S
C438 C437 1.398 . S
C438 C439 1.391 . S
C439 H427 0.950 . S
C439 C435 1.393 . S
C439 C438 1.391 . S
H440 C448 0.950 . S
H441 C453 0.950 . S
H442 C450 0.950 . S
H443 C452 0.950 . S
H444 C454 0.950 . S
H445 C456 0.950 1_455 S
H446 C458 0.950 1_455 S
H447 C459 0.950 . S
C448 H440 0.950 . S
C448 C449 1.386 . S
C448 C450 1.391 . S
C449 C448 1.386 . S
C449 C453 1.393 . S
C450 H442 0.950 . S
C450 C448 1.391 . S
C450 C451 1.400 . S
C451 C450 1.400 . S
C451 C452 1.398 . S
C451 C457 1.491 . S
C452 H443 0.950 . S
C452 C451 1.398 . S
C452 C453 1.391 . S
C453 H441 0.950 . S
C453 C449 1.393 . S
C453 C452 1.391 . S
C454 H444 0.950 . S
C454 C455 1.386 . S
C454 C456 1.391 . S
C455 C454 1.386 . S
C455 C459 1.393 . S
C456 H445 0.950 1_655 S
C456 C454 1.391 . S
C456 C457 1.400 1_655 S
C457 C451 1.491 . S
C457 C456 1.400 1_455 S
C457 C458 1.398 1_455 S
C458 H446 0.950 1_655 S
C458 C457 1.398 1_655 S
C458 C459 1.391 . S
C459 H447 0.950 . S
C459 C455 1.393 . S
C459 C458 1.391 . S
H460 C468 0.950 . S
H461 C473 0.950 . S
H462 C470 0.950 . S
H463 C472 0.950 . S
H464 C474 0.950 . S
H465 C476 0.950 . S
H466 C478 0.950 1_655 S
H467 C479 0.950 . S
C468 H460 0.950 . S
C468 C469 1.386 . S
C468 C470 1.391 . S
C469 C468 1.386 . S
C469 C473 1.393 . S
C470 H462 0.950 . S
C470 C468 1.391 . S
C470 C471 1.400 . S
C471 C470 1.400 . S
C471 C472 1.398 . S
C471 C477 1.491 . S
C472 H463 0.950 . S
C472 C471 1.398 . S
C472 C473 1.391 . S
C473 H461 0.950 . S
C473 C469 1.393 . S
C473 C472 1.391 . S
C474 H464 0.950 . S
C474 C475 1.386 . S
C474 C476 1.391 . S
C475 C474 1.386 . S
C475 C479 1.393 . S
C476 H465 0.950 . S
C476 C474 1.391 . S
C476 C477 1.400 1_455 S
C477 C471 1.491 . S
C477 C476 1.400 1_655 S
C477 C478 1.398 1_655 S
C478 H466 0.950 1_455 S
C478 C477 1.398 1_455 S
C478 C479 1.391 . S
C479 H467 0.950 . S
C479 C475 1.393 . S
C479 C478 1.391 . S
H480 C488 0.950 . S
H481 C493 0.950 . S
H482 C490 0.950 . S
H483 C492 0.950 . S
H484 C494 0.950 . S
H485 C496 0.950 . S
H486 C498 0.950 . S
H487 C499 0.950 . S
C488 H480 0.950 . S
C488 C489 1.386 . S
C488 C490 1.391 . S
C489 C488 1.386 . S
C489 C493 1.393 1_554 S
C490 H482 0.950 . S
C490 C488 1.391 . S
C490 C491 1.400 . S
C491 C490 1.400 . S
C491 C492 1.398 1_554 S
C491 C497 1.491 1_455 S
C492 H483 0.950 . S
C492 C491 1.398 1_556 S
C492 C493 1.391 . S
C493 H481 0.950 . S
C493 C489 1.393 1_556 S
C493 C492 1.391 . S
C494 H484 0.950 . S
C494 C495 1.386 1_556 S
C494 C496 1.391 . S
C495 C494 1.386 1_554 S
C495 C499 1.393 . S
C496 H485 0.950 . S
C496 C494 1.391 . S
C496 C497 1.400 1_556 S
C497 C491 1.491 1_655 S
C497 C496 1.400 1_554 S
C497 C498 1.398 . S
C498 H486 0.950 . S
C498 C497 1.398 . S
C498 C499 1.391 . S
C499 H487 0.950 . S
C499 C495 1.393 . S
C499 C498 1.391 . S
H500 C508 0.950 . S
H501 C513 0.950 . S
H502 C510 0.950 . S
H503 C512 0.950 . S
H504 C514 0.950 . S
H505 C516 0.950 . S
H506 C518 0.950 . S
H507 C519 0.950 . S
C508 H500 0.950 . S
C508 C509 1.386 . S
C508 C510 1.391 . S
C509 C508 1.386 . S
C509 C513 1.393 . S
C510 H502 0.950 . S
C510 C508 1.391 . S
C510 C511 1.400 . S
C511 C510 1.400 . S
C511 C512 1.398 . S
C511 C517 1.491 1_455 S
C512 H503 0.950 . S
C512 C511 1.398 . S
C512 C513 1.391 . S
C513 H501 0.950 . S
C513 C509 1.393 . S
C513 C512 1.391 . S
C514 H504 0.950 . S
C514 C515 1.386 . S
C514 C516 1.391 . S
C515 C514 1.386 . S
C515 C519 1.393 . S
C516 H505 0.950 . S
C516 C514 1.391 . S
C516 C517 1.400 . S
C517 C511 1.491 1_655 S
C517 C516 1.400 . S
C517 C518 1.398 . S
C518 H506 0.950 . S
C518 C517 1.398 . S
C518 C519 1.391 . S
C519 H507 0.950 . S
C519 C515 1.393 . S
C519 C518 1.391 . S
H520 C528 0.950 . S
H521 C533 0.950 . S
H522 C530 0.950 . S
H523 C532 0.930 1_545 S
H524 C534 0.950 . S
H525 C536 0.950 . S
H526 C538 0.930 1_565 S
H527 C539 0.950 . S
C528 H520 0.950 . S
C528 C529 1.386 . S
C528 C530 1.391 . S
C529 C528 1.386 . S
C529 C533 1.393 . S
C530 H522 0.950 . S
C530 C528 1.391 . S
C530 C531 1.400 . S
C531 C530 1.400 . S
C531 C532 1.398 . S
C531 C537 1.491 1_565 S
C532 H523 0.930 1_565 S
C532 C531 1.398 . S
C532 C533 1.391 . S
C533 H521 0.950 . S
C533 C529 1.393 . S
C533 C532 1.391 . S
C534 H524 0.950 . S
C534 C535 1.386 . S
C534 C536 1.391 . S
C535 C534 1.386 . S
C535 C539 1.393 . S
C536 H525 0.950 . S
C536 C534 1.391 . S
C536 C537 1.400 . S
C537 C531 1.491 1_545 S
C537 C536 1.400 . S
C537 C538 1.398 . S
C538 H526 0.930 1_545 S
C538 C537 1.398 . S
C538 C539 1.391 . S
C539 H527 0.950 . S
C539 C535 1.393 . S
C539 C538 1.391 . S
H540 C548 0.950 . S
H541 C553 0.950 . S
H542 C550 0.950 . S
H543 C552 0.950 . S
H544 C554 0.950 . S
H545 C556 0.950 . S
H546 C558 0.950 . S
H547 C559 0.950 . S
C548 H540 0.950 . S
C548 C549 1.386 . S
C548 C550 1.391 . S
C549 C548 1.386 . S
C549 C553 1.393 . S
C550 H542 0.950 . S
C550 C548 1.391 . S
C550 C551 1.400 . S
C551 C550 1.400 . S
C551 C552 1.398 . S
C551 C557 1.491 1_545 S
C552 H543 0.950 . S
C552 C551 1.398 . S
C552 C553 1.391 . S
C553 H541 0.950 . S
C553 C549 1.393 . S
C553 C552 1.391 . S
C554 H544 0.950 . S
C554 C555 1.386 . S
C554 C556 1.391 . S
C555 C554 1.386 . S
C555 C559 1.393 . S
C556 H545 0.950 . S
C556 C554 1.391 . S
C556 C557 1.400 . S
C557 C551 1.491 1_565 S
C557 C556 1.400 . S
C557 C558 1.398 . S
C558 H546 0.950 . S
C558 C557 1.398 . S
C558 C559 1.391 . S
C559 H547 0.950 . S
C559 C555 1.393 . S
C559 C558 1.391 . S
H560 C568 0.950 . S
H561 C573 0.950 . S
H562 C570 0.950 . S
H563 C572 0.950 . S
H564 C574 0.950 . S
H565 C576 0.950 . S
H566 C578 0.950 . S
H567 C579 0.950 . S
C568 H560 0.950 . S
C568 C569 1.386 . S
C568 C570 1.391 . S
C569 C568 1.386 . S
C569 C573 1.393 . S
C570 H562 0.950 . S
C570 C568 1.391 . S
C570 C571 1.400 . S
C571 C570 1.400 . S
C571 C572 1.398 . S
C571 C577 1.491 . S
C572 H563 0.950 . S
C572 C571 1.398 . S
C572 C573 1.391 . S
C573 H561 0.950 . S
C573 C569 1.393 . S
C573 C572 1.391 . S
C574 H564 0.950 . S
C574 C575 1.386 . S
C574 C576 1.391 . S
C575 C574 1.386 . S
C575 C579 1.393 . S
C576 H565 0.950 . S
C576 C574 1.391 . S
C576 C577 1.400 . S
C577 C571 1.491 . S
C577 C576 1.400 . S
C577 C578 1.398 . S
C578 H566 0.950 . S
C578 C577 1.398 . S
C578 C579 1.391 . S
C579 H567 0.950 . S
C579 C575 1.393 . S
C579 C578 1.391 . S
H580 C588 0.950 . S
H581 C593 0.950 . S
H582 C590 0.950 . S
H583 C592 0.950 . S
H584 C594 0.950 . S
H585 C596 0.950 . S
H586 C598 0.950 . S
H587 C599 0.950 . S
C588 H580 0.950 . S
C588 C589 1.386 . S
C588 C590 1.391 . S
C589 C588 1.386 . S
C589 C593 1.393 1_554 S
C590 H582 0.950 . S
C590 C588 1.391 . S
C590 C591 1.400 . S
C591 C590 1.400 . S
C591 C592 1.398 1_554 S
C591 C597 1.491 . S
C592 H583 0.950 . S
C592 C591 1.398 1_556 S
C592 C593 1.391 . S
C593 H581 0.950 . S
C593 C589 1.393 1_556 S
C593 C592 1.391 . S
C594 H584 0.950 . S
C594 C595 1.386 1_556 S
C594 C596 1.391 . S
C595 C594 1.386 1_554 S
C595 C599 1.393 . S
C596 H585 0.950 . S
C596 C594 1.391 . S
C596 C597 1.400 1_556 S
C597 C591 1.491 . S
C597 C596 1.400 1_554 S
C597 C598 1.398 . S
C598 H586 0.950 . S
C598 C597 1.398 . S
C598 C599 1.391 . S
C599 H587 0.950 . S
C599 C595 1.393 . S
C599 C598 1.391 . S
H600 C608 0.950 . S
H601 C613 0.950 . S
H602 C610 0.950 . S
H603 C612 0.950 . S
H604 C614 0.950 . S
H605 C616 0.950 . S
H606 C618 0.950 . S
H607 C619 0.950 . S
C608 H600 0.950 . S
C608 C609 1.386 . S
C608 C610 1.391 . S
C609 C608 1.386 . S
C609 C613 1.393 . S
C610 H602 0.950 . S
C610 C608 1.391 . S
C610 C611 1.400 . S
C611 C610 1.400 . S
C611 C612 1.398 . S
C611 C617 1.491 . S
C612 H603 0.950 . S
C612 C611 1.398 . S
C612 C613 1.391 . S
C613 H601 0.950 . S
C613 C609 1.393 . S
C613 C612 1.391 . S
C614 H604 0.950 . S
C614 C615 1.386 . S
C614 C616 1.391 . S
C615 C614 1.386 . S
C615 C619 1.393 . S
C616 H605 0.950 . S
C616 C614 1.391 . S
C616 C617 1.400 . S
C617 C611 1.491 . S
C617 C616 1.400 . S
C617 C618 1.398 . S
C618 H606 0.950 . S
C618 C617 1.398 . S
C618 C619 1.391 . S
C619 H607 0.950 . S
C619 C615 1.393 . S
C619 C618 1.391 . S
H620 C628 0.950 . S
H621 C633 0.950 . S
H622 C630 0.950 . S
H623 C632 0.950 . S
H624 C634 0.950 . S
H625 C636 0.950 . S
H626 C638 0.950 . S
H627 C639 0.950 . S
C628 H620 0.950 . S
C628 C629 1.386 . S
C628 C630 1.391 . S
C629 C628 1.386 . S
C629 C633 1.393 . S
C630 H622 0.950 . S
C630 C628 1.391 . S
C630 C631 1.400 . S
C631 C630 1.400 . S
C631 C632 1.398 . S
C631 C637 1.491 . S
C632 H623 0.950 . S
C632 C631 1.398 . S
C632 C633 1.391 . S
C633 H621 0.950 . S
C633 C629 1.393 . S
C633 C632 1.391 . S
C634 H624 0.950 . S
C634 C635 1.386 . S
C634 C636 1.391 . S
C635 C634 1.386 . S
C635 C639 1.393 . S
C636 H625 0.950 . S
C636 C634 1.391 . S
C636 C637 1.400 . S
C637 C631 1.491 . S
C637 C636 1.400 . S
C637 C638 1.398 . S
C638 H626 0.950 . S
C638 C637 1.398 . S
C638 C639 1.391 . S
C639 H627 0.950 . S
C639 C635 1.393 . S
C639 C638 1.391 . S
H640 C648 0.950 . S
H641 C653 0.950 . S
H642 C650 0.950 1_655 S
H643 C652 0.950 . S
H644 C654 0.950 . S
H645 C656 0.950 1_455 S
H646 C658 0.950 . S
H647 C659 0.950 . S
C648 H640 0.950 . S
C648 C649 1.386 . S
C648 C650 1.391 . S
C649 C648 1.386 . S
C649 C653 1.393 . S
C650 H642 0.950 1_455 S
C650 C648 1.391 . S
C650 C651 1.400 . S
C651 C650 1.400 . S
C651 C652 1.398 . S
C651 C657 1.491 1_455 S
C652 H643 0.950 . S
C652 C651 1.398 . S
C652 C653 1.391 . S
C653 H641 0.950 . S
C653 C649 1.393 . S
C653 C652 1.391 . S
C654 H644 0.950 . S
C654 C655 1.386 . S
C654 C656 1.391 . S
C655 C654 1.386 . S
C655 C659 1.393 . S
C656 H645 0.950 1_655 S
C656 C654 1.391 . S
C656 C657 1.400 . S
C657 C651 1.491 1_655 S
C657 C656 1.400 . S
C657 C658 1.398 . S
C658 H646 0.950 . S
C658 C657 1.398 . S
C658 C659 1.391 . S
C659 H647 0.950 . S
C659 C655 1.393 . S
C659 C658 1.391 . S
H660 C668 0.950 . S
H661 C673 0.950 . S
H662 C670 0.950 . S
H663 C672 0.950 . S
H664 C674 0.950 . S
H665 C676 0.950 . S
H666 C678 0.950 . S
H667 C679 0.950 . S
C668 H660 0.950 . S
C668 C669 1.386 1_455 S
C668 C670 1.391 . S
C669 C668 1.386 1_655 S
C669 C673 1.393 . S
C670 H662 0.950 . S
C670 C668 1.391 . S
C670 C671 1.400 1_455 S
C671 C670 1.400 1_655 S
C671 C672 1.398 . S
C671 C677 1.491 1_655 S
C672 H663 0.950 . S
C672 C671 1.398 . S
C672 C673 1.391 . S
C673 H661 0.950 . S
C673 C669 1.393 . S
C673 C672 1.391 . S
C674 H664 0.950 . S
C674 C675 1.386 1_655 S
C674 C676 1.391 . S
C675 C674 1.386 1_455 S
C675 C679 1.393 . S
C676 H665 0.950 . S
C676 C674 1.391 . S
C676 C677 1.400 1_655 S
C677 C671 1.491 1_455 S
C677 C676 1.400 1_455 S
C677 C678 1.398 . S
C678 H666 0.950 . S
C678 C677 1.398 . S
C678 C679 1.391 . S
C679 H667 0.950 . S
C679 C675 1.393 . S
C679 C678 1.391 . S
H680 C688 0.950 . S
H681 C693 0.950 . S
H682 C690 0.950 . S
H683 C692 0.950 . S
H684 C694 0.950 . S
H685 C696 0.950 . S
H686 C698 0.950 . S
H687 C699 0.950 . S
C688 H680 0.950 . S
C688 C689 1.386 . S
C688 C690 1.391 . S
C689 C688 1.386 . S
C689 C693 1.393 1_655 S
C690 H682 0.950 . S
C690 C688 1.391 . S
C690 C691 1.400 . S
C691 C690 1.400 . S
C691 C692 1.398 1_655 S
C691 C697 1.491 1_655 S
C692 H683 0.950 . S
C692 C691 1.398 1_455 S
C692 C693 1.391 . S
C693 H681 0.950 . S
C693 C689 1.393 1_455 S
C693 C692 1.391 . S
C694 H684 0.950 . S
C694 C695 1.386 . S
C694 C696 1.391 . S
C695 C694 1.386 . S
C695 C699 1.393 1_455 S
C696 H685 0.950 . S
C696 C694 1.391 . S
C696 C697 1.400 . S
C697 C691 1.491 1_455 S
C697 C696 1.400 . S
C697 C698 1.398 1_455 S
C698 H686 0.950 . S
C698 C697 1.398 1_655 S
C698 C699 1.391 . S
C699 H687 0.950 . S
C699 C695 1.393 1_655 S
C699 C698 1.391 . S
H700 C708 0.950 . S
H701 C713 0.950 . S
H702 C710 0.950 . S
H703 C712 0.950 . S
H704 C714 0.950 . S
H705 C716 0.950 . S
H706 C718 0.950 . S
H707 C719 0.950 . S
C708 H700 0.950 . S
C708 C709 1.386 1_455 S
C708 C710 1.391 . S
C709 C708 1.386 1_655 S
C709 C713 1.393 . S
C710 H702 0.950 . S
C710 C708 1.391 . S
C710 C711 1.400 1_455 S
C711 C710 1.400 1_655 S
C711 C712 1.398 . S
C711 C717 1.491 1_655 S
C712 H703 0.950 . S
C712 C711 1.398 . S
C712 C713 1.391 . S
C713 H701 0.950 . S
C713 C709 1.393 . S
C713 C712 1.391 . S
C714 H704 0.950 . S
C714 C715 1.386 1_655 S
C714 C716 1.391 . S
C715 C714 1.386 1_455 S
C715 C719 1.393 . S
C716 H705 0.950 . S
C716 C714 1.391 . S
C716 C717 1.400 1_655 S
C717 C711 1.491 1_455 S
C717 C716 1.400 1_455 S
C717 C718 1.398 . S
C718 H706 0.950 . S
C718 C717 1.398 . S
C718 C719 1.391 . S
C719 H707 0.950 . S
C719 C715 1.393 . S
C719 C718 1.391 . S
H720 C728 0.950 . S
H721 C733 0.950 . S
H722 C730 0.950 . S
H723 C732 0.950 . S
H724 C734 0.950 . S
H725 C736 0.950 . S
H726 C738 0.950 . S
H727 C739 0.950 . S
C728 H720 0.950 . S
C728 C729 1.386 . S
C728 C730 1.391 . S
C729 C728 1.386 . S
C729 C733 1.393 . S
C730 H722 0.950 . S
C730 C728 1.391 . S
C730 C731 1.400 . S
C731 C730 1.400 . S
C731 C732 1.398 . S
C731 C737 1.491 . S
C732 H723 0.950 . S
C732 C731 1.398 . S
C732 C733 1.391 . S
C733 H721 0.950 . S
C733 C729 1.393 . S
C733 C732 1.391 . S
C734 H724 0.950 . S
C734 C735 1.386 . S
C734 C736 1.391 . S
C735 C734 1.386 . S
C735 C739 1.393 . S
C736 H725 0.950 . S
C736 C734 1.391 . S
C736 C737 1.400 . S
C737 C731 1.491 . S
C737 C736 1.400 . S
C737 C738 1.398 . S
C738 H726 0.950 . S
C738 C737 1.398 . S
C738 C739 1.391 . S
C739 H727 0.950 . S
C739 C735 1.393 . S
C739 C738 1.391 . S
H740 C748 0.950 . S
H741 C753 0.950 . S
H742 C750 0.950 . S
H743 C752 0.950 . S
H744 C754 0.950 . S
H745 C756 0.950 . S
H746 C758 0.950 . S
H747 C759 0.950 . S
C748 H740 0.950 . S
C748 C749 1.386 . S
C748 C750 1.391 . S
C749 C748 1.386 . S
C749 C753 1.393 . S
C750 H742 0.950 . S
C750 C748 1.391 . S
C750 C751 1.400 . S
C751 C750 1.400 . S
C751 C752 1.398 . S
C751 C757 1.491 . S
C752 H743 0.950 . S
C752 C751 1.398 . S
C752 C753 1.391 . S
C753 H741 0.950 . S
C753 C749 1.393 . S
C753 C752 1.391 . S
C754 H744 0.950 . S
C754 C755 1.386 . S
C754 C756 1.391 . S
C755 C754 1.386 . S
C755 C759 1.393 . S
C756 H745 0.950 . S
C756 C754 1.391 . S
C756 C757 1.400 . S
C757 C751 1.491 . S
C757 C756 1.400 . S
C757 C758 1.398 . S
C758 H746 0.950 . S
C758 C757 1.398 . S
C758 C759 1.391 . S
C759 H747 0.950 . S
C759 C755 1.393 . S
C759 C758 1.391 . S
H760 C768 0.950 . S
H761 C773 0.950 . S
H762 C770 0.950 . S
H763 C772 0.950 . S
H764 C774 0.950 . S
H765 C776 0.950 . S
H766 C778 0.950 . S
H767 C779 0.950 . S
C768 H760 0.950 . S
C768 C769 1.386 . S
C768 C770 1.391 . S
C769 C768 1.386 . S
C769 C773 1.393 . S
C770 H762 0.950 . S
C770 C768 1.391 . S
C770 C771 1.400 . S
C771 C770 1.400 . S
C771 C772 1.398 . S
C771 C777 1.491 . S
C772 H763 0.950 . S
C772 C771 1.398 . S
C772 C773 1.391 . S
C773 H761 0.950 . S
C773 C769 1.393 . S
C773 C772 1.391 . S
C774 H764 0.950 . S
C774 C775 1.386 . S
C774 C776 1.391 . S
C775 C774 1.386 . S
C775 C779 1.393 . S
C776 H765 0.950 . S
C776 C774 1.391 . S
C776 C777 1.400 . S
C777 C771 1.491 . S
C777 C776 1.400 . S
C777 C778 1.398 . S
C778 H766 0.950 . S
C778 C777 1.398 . S
C778 C779 1.391 . S
C779 H767 0.950 . S
C779 C775 1.393 . S
C779 C778 1.391 . S
H780 C788 0.950 . S
H781 C793 0.950 . S
H782 C790 0.950 . S
H783 C792 0.950 . S
H784 C794 0.950 . S
H785 C796 0.950 . S
H786 C798 0.950 . S
H787 C799 0.950 . S
C788 H780 0.950 . S
C788 C789 1.386 . S
C788 C790 1.391 . S
C789 C788 1.386 . S
C789 C793 1.393 . S
C790 H782 0.950 . S
C790 C788 1.391 . S
C790 C791 1.400 . S
C791 C790 1.400 . S
C791 C792 1.398 . S
C791 C797 1.491 . S
C792 H783 0.950 . S
C792 C791 1.398 . S
C792 C793 1.391 . S
C793 H781 0.950 . S
C793 C789 1.393 . S
C793 C792 1.391 . S
C794 H784 0.950 . S
C794 C795 1.386 . S
C794 C796 1.391 . S
C795 C794 1.386 . S
C795 C799 1.393 . S
C796 H785 0.950 . S
C796 C794 1.391 . S
C796 C797 1.400 . S
C797 C791 1.491 . S
C797 C796 1.400 . S
C797 C798 1.398 . S
C798 H786 0.950 . S
C798 C797 1.398 . S
C798 C799 1.391 . S
C799 H787 0.950 . S
C799 C795 1.393 . S
C799 C798 1.391 . S
C329 C10 2.304 . S
C335 C19 2.304 . S
C349 C50 2.315 . S
C355 C59 2.315 . S
C369 C90 2.301 . S
C375 C99 2.301 . S
C389 C130 2.307 . S
C395 C139 2.307 . S
C409 C170 2.307 . S
C415 C179 2.307 . S
C429 C219 2.316 . S
C435 C210 2.316 . S
C449 C250 2.314 . S
C455 C259 2.314 . S
C469 C299 2.314 . S
C475 C290 2.314 . S
C489 C46 2.605 . S
C495 C15 2.605 . S
C509 C135 2.626 . S
C515 C86 2.626 . S
C529 C175 2.616 . S
C535 C206 2.616 . S
C549 C246 2.605 . S
C555 C295 2.605 . S
C569 C6 1.824 . S
C575 C215 1.824 . S
C589 C166 1.817 . S
C595 C55 1.817 . S
C609 C95 1.833 . S
C615 C286 1.833 . S
C629 C126 1.838 . S
C635 C255 1.838 . S
C649 C9 1.590 . S
C655 C129 1.591 . S
C669 C49 1.491 . S
C675 C89 1.466 . S
C689 C58 1.572 . S
C695 C98 1.595 . S
C709 C138 1.468 . S
C715 C18 1.486 . S
C729 C169 1.589 . S
C735 C289 1.569 . S
C749 C209 1.467 . S
C755 C249 1.490 . S
C769 C218 1.570 . S
C775 C258 1.593 . S
C789 C298 1.489 . S
C795 C178 1.465 . S
