# Generated by pormake.
# Topology reo, (8)-cn, num edge types: 1
# Building blocks:
#     Node 0, Type 0, BuildingBlock: EBIMEJ_clean_sbu_0, # of connection points: 8
#     Node 1, Type 0, BuildingBlock: EBIMEJ_clean_sbu_0, # of connection points: 8
#     Node 2, Type 0, BuildingBlock: EBIMEJ_clean_sbu_0, # of connection points: 8
#     Edge 3, Type (0, 0), BuildingBlock: MIFKUJ_clean_linker_0, # of connection points: 2
#     Edge 4, Type (0, 0), BuildingBlock: MIFKUJ_clean_linker_0, # of connection points: 2
#     Edge 5, Type (0, 0), BuildingBlock: MIFKUJ_clean_linker_0, # of connection points: 2
#     Edge 6, Type (0, 0), BuildingBlock: MIFKUJ_clean_linker_0, # of connection points: 2
#     Edge 7, Type (0, 0), BuildingBlock: MIFKUJ_clean_linker_0, # of connection points: 2
#     Edge 8, Type (0, 0), BuildingBlock: MIFKUJ_clean_linker_0, # of connection points: 2
#     Edge 9, Type (0, 0), BuildingBlock: MIFKUJ_clean_linker_0, # of connection points: 2
#     Edge 10, Type (0, 0), BuildingBlock: MIFKUJ_clean_linker_0, # of connection points: 2
#     Edge 11, Type (0, 0), BuildingBlock: MIFKUJ_clean_linker_0, # of connection points: 2
#     Edge 12, Type (0, 0), BuildingBlock: MIFKUJ_clean_linker_0, # of connection points: 2
#     Edge 13, Type (0, 0), BuildingBlock: MIFKUJ_clean_linker_0, # of connection points: 2
#     Edge 14, Type (0, 0), BuildingBlock: MIFKUJ_clean_linker_0, # of connection points: 2
# Relax obj value: 0.148
# Max RMSD: 0.258
# Mean RMSD: 0.249
data_MOF--net-reo--node1-EBIMEJ_clean_sbu_0--edge1-MIFKUJ_clean_linker_0
_symmetry_space_group_name_H-M    P1
_symmetry_Int_Tables_number       1
_symmetry_cell_setting            triclinic
loop_
_symmetry_equiv_pos_as_xyz
'x, y, z'
_cell_length_a     30.577991
_cell_length_b     30.816648
_cell_length_c     31.040057
_cell_angle_alpha  91.644236
_cell_angle_beta   91.861882
_cell_angle_gamma 100.04878
loop_
_atom_site_label
_atom_site_type_symbol
_atom_site_fract_x
_atom_site_fract_y
_atom_site_fract_z
_atom_type_partial_charge
Co0 Co 0.99989 1.01952 0.41501 0.0
Co1 Co 1.00014 0.07032 0.50558 0.0
Co2 Co 1.00386 0.97255 0.50263 0.0
H3 H 0.99386 1.00205 0.46516 0.0
O4 O 0.97386 1.01771 0.47093 0.0
H5 H 0.01384 0.04196 0.54253 0.0
O6 O 0.03291 0.0257 0.53543 0.0
Co7 Co 0.01369 0.02631 0.59372 0.0
O8 O 0.01248 0.0905 0.60933 0.0
O9 O 0.025 0.12207 0.54535 0.0
O10 O 1.0 0.961 0.60559 0.0
O11 O 0.02271 0.93047 0.54537 0.0
O12 O 0.98089 0.02778 0.35233 0.0
O13 O 0.93412 1.00766 0.39868 0.0
O14 O 0.94985 1.00648 0.57827 0.0
O15 O 0.94189 0.06229 0.53685 0.0
C16 C 0.98437 0.92005 0.42227 0.0
C17 C 0.99467 0.11559 0.42601 0.0
C18 C 0.0764 0.02739 0.64458 0.0
C19 C 0.0838 1.00374 0.44892 0.0
C20 C 0.02241 0.12444 0.58653 0.0
C21 C 0.01204 0.92863 0.58519 0.0
C22 C 0.94037 1.0173 0.36017 0.0
C23 C 0.92548 0.03082 0.56087 0.0
O24 O 0.99956 0.95417 0.40107 0.0
O25 O 0.97711 0.92191 0.46277 0.0
O26 O 0.97818 0.11076 0.46356 0.0
O27 O 0.01334 0.08614 0.40777 0.0
O28 O 0.04206 0.04225 0.65421 0.0
O29 O 0.07507 1.01289 0.6064 0.0
O30 O 0.06486 0.03133 0.42937 0.0
O31 O 0.06226 0.97489 0.47281 0.0
Co32 Co 0.58869 0.03913 0.96422 0.0
Co33 Co 0.49664 0.06972 0.99787 0.0
Co34 Co 0.51762 0.97966 0.01838 0.0
H35 H 0.54232 1.01324 0.98674 0.0
O36 O 0.52451 0.0238 0.96958 0.0
H37 H 0.47044 0.0352 0.02814 0.0
O38 O 0.48784 0.02474 0.04581 0.0
Co39 Co 0.42334 1.00788 0.04863 0.0
O40 O 0.40063 0.06552 0.04041 0.0
O41 O 0.46206 0.1128 0.02468 0.0
O42 O 0.42451 0.94322 0.0578 0.0
O43 O 0.49629 0.93493 0.06147 0.0
O44 O 0.64712 0.05355 0.93261 0.0
O45 O 0.5893 0.0222 0.89978 0.0
O46 O 0.40972 0.9868 0.98735 0.0
O47 O 0.44485 0.04752 0.95797 0.0
C48 C 0.59618 0.94653 0.98653 0.0
C49 C 0.55911 0.12646 0.94489 0.0
C50 C 0.37736 1.00215 0.11323 0.0
C51 C 0.59545 0.043 0.0575 0.0
C52 C 0.42097 0.10465 0.03436 0.0
C53 C 0.45499 0.92113 0.06732 0.0
C54 C 0.62987 0.03765 0.89708 0.0
C55 C 0.41732 1.01132 0.95535 0.0
O56 O 0.61555 0.98598 0.98076 0.0
O57 O 0.5542 0.93724 0.99251 0.0
O58 O 0.51868 0.11495 0.95533 0.0
O59 O 0.58907 0.10297 0.95127 0.0
O60 O 0.3765 0.97154 0.08551 0.0
O61 O 0.40413 0.03607 0.10418 0.0
O62 O 0.60125 0.06505 0.02371 0.0
O63 O 0.56915 1.00593 0.058 0.0
Co64 Co 0.97948 0.60845 0.0074 0.0
Co65 Co 0.99607 0.51481 0.05189 0.0
Co66 Co 0.0163 0.53058 0.95791 0.0
H67 H 0.99203 0.5599 0.98861 0.0
O68 O 0.97192 0.54378 1.00271 0.0
H69 H 0.02076 0.48556 0.02163 0.0
O70 O 0.04064 0.50158 0.00719 0.0
Co71 Co 0.03399 0.43681 1.00409 0.0
O72 O 0.01744 0.41595 0.06399 0.0
O73 O 0.01801 0.48029 0.09989 0.0
O74 O 0.04287 0.43377 0.93946 0.0
O75 O 0.05183 0.50312 0.91502 0.0
O76 O 0.95655 0.66588 0.02417 0.0
O77 O 0.91768 0.61841 0.9843 0.0
O78 O 0.96914 0.42508 0.98658 0.0
O79 O 0.94443 0.4657 0.03803 0.0
C80 C 0.99476 0.60762 0.91179 0.0
C81 C 0.95857 0.58266 0.10003 0.0
C82 C 0.09429 0.39116 0.01001 0.0
C83 C 0.07567 0.60776 1.00332 0.0
C84 C 0.01762 0.43857 0.09913 0.0
C85 C 0.05302 0.46178 0.91014 0.0
C86 C 0.92029 0.65547 1.00307 0.0
C87 C 0.93754 0.43635 0.00743 0.0
O88 O 0.9951 0.62931 0.94753 0.0
O89 O 0.99435 0.5658 0.91022 0.0
O90 O 0.95965 0.54145 0.09434 0.0
O91 O 0.97016 0.61146 0.07182 0.0
O92 O 0.05966 0.38533 0.03129 0.0
O93 O 0.09476 0.42292 0.98555 0.0
O94 O 0.04433 0.6183 0.0251 0.0
O95 O 0.06832 0.57957 0.97166 0.0
H96 H 0.9454 0.38379 0.12557 0.0
H97 H 0.94074 0.33473 0.18675 0.0
H98 H 0.07779 0.38609 0.22288 0.0
H99 H 0.08219 0.43573 0.1617 0.0
H100 H 0.05832 0.2939 0.21852 0.0
H101 H 0.99668 0.41236 0.28431 0.0
H102 H 0.94514 0.46549 0.28842 0.0
H103 H 0.83385 0.35883 0.28328 0.0
H104 H 0.88473 0.30506 0.2786 0.0
H105 H 0.0661 0.17668 0.4085 0.0
H106 H 0.06924 0.23708 0.35854 0.0
H107 H 0.9271 0.20421 0.336 0.0
H108 H 0.92396 0.14489 0.38778 0.0
H109 H 0.94925 0.28879 0.33396 0.0
H110 H 1.00499 0.17045 0.26556 0.0
H111 H 0.05203 0.11378 0.25622 0.0
H112 H 0.16864 0.21438 0.25908 0.0
H113 H 0.12234 0.27166 0.26912 0.0
C114 C 0.97418 0.38527 0.14724 0.0
C115 C 0.01387 0.41408 0.13956 0.0
C116 C 0.97155 0.35718 0.18213 0.0
C117 C 0.0088 0.35683 0.20979 0.0
C118 C 0.04851 0.3859 0.20223 0.0
C119 C 0.05095 0.41451 0.16757 0.0
C120 C 0.00674 0.32458 0.24513 0.0
C121 C 0.03506 0.29331 0.24425 0.0
C122 C 0.9751 0.32245 0.2777 0.0
C123 C 0.9445 0.35472 0.28078 0.0
C124 C 0.9612 0.40025 0.28375 0.0
C125 C 0.93211 0.43048 0.28624 0.0
C126 C 0.88625 0.41555 0.28603 0.0
C127 C 0.86938 0.37035 0.28343 0.0
C128 C 0.89833 0.33999 0.28092 0.0
C129 C 0.03542 0.18325 0.39375 0.0
C130 C 0.99471 0.15674 0.40255 0.0
C131 C 0.03725 0.21737 0.36465 0.0
C132 C 0.99856 0.22485 0.34241 0.0
C133 C 0.95752 0.19932 0.35252 0.0
C134 C 0.95562 0.16558 0.38232 0.0
C135 C 1.00125 0.25817 0.30778 0.0
C136 C 0.97284 0.28947 0.30852 0.0
C137 C 0.0322 0.25973 0.27444 0.0
C138 C 0.06021 0.22534 0.2686 0.0
C139 C 0.04069 0.18048 0.26459 0.0
C140 C 0.06723 0.14824 0.25911 0.0
C141 C 0.11331 0.16046 0.2572 0.0
C142 C 0.13295 0.20496 0.26067 0.0
C143 C 0.10657 0.23733 0.26624 0.0
H144 H 0.13379 0.13545 0.25291 0.0
H145 H 0.86378 0.439 0.28796 0.0
H146 H 0.85287 1.00443 0.37627 0.0
H147 H 0.79212 1.01542 0.32749 0.0
H148 H 0.88449 0.04691 0.22595 0.0
H149 H 0.946 0.03722 0.27532 0.0
H150 H 0.83052 0.1057 0.2329 0.0
H151 H 0.81443 0.9482 0.22742 0.0
H152 H 0.80521 0.87313 0.25516 0.0
H153 H 0.68185 0.88986 0.30995 0.0
H154 H 0.69067 0.96532 0.28317 0.0
H155 H 0.68153 0.08017 0.05291 0.0
H156 H 0.73832 0.0861 0.10998 0.0
H157 H 0.63764 0.04302 0.20161 0.0
H158 H 0.58064 0.03354 0.14311 0.0
H159 H 0.69471 0.99354 0.20393 0.0
H160 H 0.71061 0.15241 0.20343 0.0
H161 H 0.7211 0.22532 0.17064 0.0
H162 H 0.84598 0.20432 0.12226 0.0
H163 H 0.836 0.13117 0.15414 0.0
C164 C 0.86019 1.01328 0.34342 0.0
C165 C 0.90393 1.01997 0.32933 0.0
C166 C 0.82547 1.01941 0.31562 0.0
C167 C 0.83393 0.03158 0.27317 0.0
C168 C 0.87752 0.03752 0.25873 0.0
C169 C 0.91244 0.03178 0.28674 0.0
C170 C 0.79734 0.03972 0.24444 0.0
C171 C 0.80085 0.08117 0.22613 0.0
C172 C 0.75841 1.00791 0.23689 0.0
C173 C 0.75351 0.9627 0.25369 0.0
C174 C 0.78563 0.93613 0.24588 0.0
C175 C 0.78041 0.89343 0.26134 0.0
C176 C 0.74305 0.87678 0.28442 0.0
C177 C 0.71082 0.90281 0.29211 0.0
C178 C 0.7159 0.94554 0.27678 0.0
C179 C 0.67134 0.0732 0.08547 0.0
C180 C 0.62695 0.05609 0.09385 0.0
C181 C 0.70387 0.07707 0.11826 0.0
C182 C 0.69228 0.06553 0.16027 0.0
C183 C 0.64727 0.05204 0.16934 0.0
C184 C 0.6148 0.04664 0.13612 0.0
C185 C 0.72733 0.05993 0.19235 0.0
C186 C 0.7238 1.01865 0.21122 0.0
C187 C 0.76636 0.09182 0.20001 0.0
C188 C 0.7724 0.13614 0.18109 0.0
C189 C 0.74017 0.16323 0.18559 0.0
C190 C 0.74605 0.20465 0.16715 0.0
C191 C 0.78413 0.21943 0.14428 0.0
C192 C 0.81648 0.19289 0.13992 0.0
C193 C 0.81076 0.15148 0.15825 0.0
H194 H 0.7886 0.25146 0.12999 0.0
H195 H 0.73901 0.84368 0.29626 0.0
H196 H 0.90615 0.86651 0.39839 0.0
H197 H 0.89603 0.80164 0.34893 0.0
H198 H 0.03854 0.81294 0.34342 0.0
H199 H 0.04822 0.87912 0.39069 0.0
H200 H 0.00752 0.79943 0.26766 0.0
H201 H 0.96613 0.72798 0.39914 0.0
H202 H 0.92482 0.71418 0.46574 0.0
H203 H 0.80193 0.68404 0.39112 0.0
H204 H 0.84247 0.69825 0.32409 0.0
H205 H 0.0107 0.58766 0.17249 0.0
H206 H 0.00891 0.63802 0.23491 0.0
H207 H 0.88581 0.6702 0.18487 0.0
H208 H 0.88868 0.62142 0.12136 0.0
H209 H 0.90483 0.65871 0.28864 0.0
H210 H 0.95088 0.73532 0.15686 0.0
H211 H 0.99582 0.74318 0.09212 0.0
H212 H 0.11551 0.76074 0.17169 0.0
H213 H 0.07114 0.75152 0.23697 0.0
C214 C 0.93514 0.85438 0.3872 0.0
C215 C 0.97793 0.87709 0.39876 0.0
C216 C 0.92944 0.81729 0.35897 0.0
C217 C 0.96652 0.80169 0.34264 0.0
C218 C 0.00932 0.82406 0.35534 0.0
C219 C 0.01492 0.86161 0.3827 0.0
C220 C 0.96106 0.76373 0.31061 0.0
C221 C 0.98539 0.76861 0.27279 0.0
C222 C 0.93173 0.72339 0.31643 0.0
C223 C 0.9073 0.71458 0.35664 0.0
C224 C 0.93027 0.71869 0.39696 0.0
C225 C 0.907 0.71076 0.43478 0.0
C226 C 0.86077 0.69835 0.43267 0.0
C227 C 0.83773 0.69371 0.39271 0.0
C228 C 0.86084 0.70166 0.3548 0.0
C229 C 0.98232 0.60405 0.17583 0.0
C230 C 0.94936 0.60015 0.14272 0.0
C231 C 0.98149 0.63299 0.21126 0.0
C232 C 0.94724 0.65777 0.21439 0.0
C233 C 0.91229 0.65108 0.18315 0.0
C234 C 0.91379 0.62308 0.14709 0.0
C235 C 0.95133 0.69487 0.2466 0.0
C236 C 0.92684 0.68974 0.28405 0.0
C237 C 0.98092 0.73479 0.24085 0.0
C238 C 0.00765 0.74184 0.20176 0.0
C239 C 0.98675 0.74022 0.16056 0.0
C240 C 0.01211 0.745 0.12377 0.0
C241 C 0.05847 0.7521 0.12779 0.0
C242 C 0.07957 0.75491 0.16864 0.0
C243 C 0.05432 0.74984 0.20555 0.0
H244 H 0.07799 0.75546 0.09926 0.0
H245 H 0.84281 0.69223 0.46198 0.0
H246 H 0.3272 0.92813 0.14359 0.0
H247 H 0.28429 0.92212 0.20906 0.0
H248 H 0.32391 0.06206 0.2353 0.0
H249 H 0.3677 0.06796 0.17052 0.0
H250 H 0.33019 1.0206 0.30647 0.0
H251 H 0.22019 1.01539 0.193 0.0
H252 H 0.17602 0.98963 0.12643 0.0
H253 H 0.13335 0.86338 0.18087 0.0
H254 H 0.17819 0.88801 0.24736 0.0
H255 H 0.15053 0.06909 0.4285 0.0
H256 H 0.21135 0.06097 0.38159 0.0
H257 H 0.17564 0.91943 0.38546 0.0
H258 H 0.11491 0.92746 0.43304 0.0
H259 H 0.17053 0.95315 0.30325 0.0
H260 H 0.27644 0.96696 0.42211 0.0
H261 H 0.31468 1.00098 0.48909 0.0
H262 H 0.35891 0.12075 0.42371 0.0
H263 H 0.32041 0.08769 0.35647 0.0
C264 C 0.32664 0.95758 0.16335 0.0
C265 C 0.35069 0.99852 0.15208 0.0
C266 C 0.30204 0.95414 0.20066 0.0
C267 C 0.30061 0.99169 0.22698 0.0
C268 C 0.32468 0.0326 0.21564 0.0
C269 C 0.34954 0.03598 0.17856 0.0
C270 C 0.27422 0.98856 0.26645 0.0
C271 C 0.2952 1.00604 0.30569 0.0
C272 C 0.22874 0.96883 0.26566 0.0
C273 C 0.20319 0.95333 0.22495 0.0
C274 C 0.20201 0.98189 0.19052 0.0
C275 C 0.17675 0.96752 0.15282 0.0
C276 C 0.15206 0.92484 0.14932 0.0
C277 C 0.15268 0.89637 0.18349 0.0
C278 C 0.17809 0.91048 0.22117 0.0
C279 C 0.15692 0.03628 0.42089 0.0
C280 C 0.12803 0.9989 0.43419 0.0
C281 C 0.19164 0.03166 0.39406 0.0
C282 C 0.19781 0.9896 0.37989 0.0
C283 C 0.17141 0.95217 0.39616 0.0
C284 C 0.13699 0.95679 0.4236 0.0
C285 C 0.22646 0.98532 0.34302 0.0
C286 C 0.20579 0.96673 0.30414 0.0
C287 C 0.27182 1.00498 0.34394 0.0
C288 C 0.29532 0.02487 0.38427 0.0
C289 C 0.29406 1.00065 0.42207 0.0
C290 C 0.31584 1.01976 0.46008 0.0
C291 C 0.33917 0.06301 0.46067 0.0
C292 C 0.34085 0.08724 0.42321 0.0
C293 C 0.31912 0.0683 0.38511 0.0
H294 H 0.35599 0.07775 0.49014 0.0
H295 H 0.13228 0.91393 0.12021 0.0
H296 H 0.98143 0.84089 0.5632 0.0
H297 H 0.97778 0.77801 0.61133 0.0
H298 H 0.04551 0.86525 0.71284 0.0
H299 H 0.04779 0.92768 0.6658 0.0
H300 H 0.07851 0.78587 0.7041 0.0
H301 H 0.94195 0.83869 0.71887 0.0
H302 H 0.87068 0.85952 0.69614 0.0
H303 H 0.8223 0.72693 0.64895 0.0
H304 H 0.8937 0.70547 0.67075 0.0
H305 H 0.02752 0.69476 0.90522 0.0
H306 H 0.03091 0.73945 0.8417 0.0
H307 H 0.97059 0.62555 0.76354 0.0
H308 H 0.9676 0.5797 0.82773 0.0
H309 H 0.93297 0.70875 0.75218 0.0
H310 H 0.07259 0.65689 0.74975 0.0
H311 H 0.14298 0.64167 0.78176 0.0
H312 H 0.18475 0.77937 0.81434 0.0
H313 H 0.11433 0.79534 0.78306 0.0
C314 C 0.99616 0.84632 0.59553 0.0
C315 C 0.01522 0.88912 0.61063 0.0
C316 C 0.99375 0.81052 0.62312 0.0
C317 C 0.01125 0.81689 0.66583 0.0
C318 C 0.03184 0.85938 0.68012 0.0
C319 C 0.03324 0.89507 0.65311 0.0
C320 C 0.00751 0.78 0.69644 0.0
C321 C 0.04665 0.76888 0.71439 0.0
C322 C 0.96597 0.75764 0.70996 0.0
C323 C 0.92351 0.77067 0.69564 0.0
C324 C 0.91641 0.81413 0.70298 0.0
C325 C 0.87592 0.82602 0.69045 0.0
C326 C 0.84207 0.79463 0.6709 0.0
C327 C 0.84864 0.75126 0.66391 0.0
C328 C 0.88913 0.73922 0.67632 0.0
C329 C 0.01487 0.67889 0.87462 0.0
C330 C 0.99716 0.63346 0.87173 0.0
C331 C 0.01699 0.70464 0.83821 0.0
C332 C 1.00114 0.68596 0.79777 0.0
C333 C 0.98306 0.64067 0.79447 0.0
C334 C 0.98157 0.61448 0.83108 0.0
C335 C 1.00398 0.71453 0.75954 0.0
C336 C 0.96475 0.72461 0.74069 0.0
C337 C 0.04546 0.73666 0.74577 0.0
C338 C 0.08804 0.72725 0.76426 0.0
C339 C 0.09665 0.68388 0.764 0.0
C340 C 0.13658 0.67513 0.78198 0.0
C341 C 0.16829 0.70952 0.80014 0.0
C342 C 0.16016 0.75276 0.80027 0.0
C343 C 0.12027 0.76169 0.78235 0.0
H344 H 0.19918 0.70267 0.81405 0.0
H345 H 0.81068 0.80385 0.66135 0.0
H346 H 0.35217 0.93945 0.93814 0.0
H347 H 0.29632 0.93053 0.879 0.0
H348 H 0.36126 0.05218 0.82628 0.0
H349 H 0.41766 0.06076 0.88413 0.0
H350 H 0.24047 0.98611 0.86877 0.0
H351 H 0.33968 0.05537 0.72175 0.0
H352 H 0.41203 0.05305 0.68973 0.0
H353 H 0.41726 0.92949 0.74843 0.0
H354 H 0.34468 0.93077 0.78036 0.0
H355 H 0.10137 0.07412 0.72001 0.0
H356 H 0.1619 0.06363 0.77044 0.0
H357 H 0.18895 0.95618 0.68881 0.0
H358 H 0.13076 0.96822 0.63767 0.0
H359 H 0.26216 1.00522 0.71235 0.0
H360 H 0.13077 0.93988 0.78491 0.0
H361 H 0.0575 0.93952 0.81602 0.0
H362 H 0.11442 0.04542 0.90466 0.0
H363 H 0.18793 0.04677 0.87373 0.0
C364 C 0.35518 0.96369 0.91332 0.0
C365 C 0.38885 1.00118 0.9161 0.0
C366 C 0.32326 0.95855 0.87969 0.0
C367 C 0.32479 0.99071 0.8485 0.0
C368 C 0.35992 0.02666 0.84974 0.0
C369 C 0.39197 0.03165 0.88305 0.0
C370 C 0.28713 0.98991 0.81775 0.0
C371 C 0.24499 0.9896 0.83443 0.0
C372 C 0.29334 0.99465 0.77316 0.0
C373 C 0.33683 0.99332 0.75366 0.0
C374 C 0.35614 0.02758 0.72763 0.0
C375 C 0.39723 0.02648 0.70955 0.0
C376 C 0.41927 0.9912 0.71712 0.0
C377 C 0.40022 0.95688 0.74271 0.0
C378 C 0.35913 0.95781 0.76087 0.0
C379 C 0.12055 0.0485 0.71306 0.0
C380 C 0.11198 0.02212 0.6752 0.0
C381 C 0.15473 0.04231 0.74182 0.0
C382 C 0.17943 1.00877 0.73344 0.0
C383 C 0.17041 0.98235 0.69568 0.0
C384 C 0.13724 0.98926 0.66657 0.0
C385 C 0.21546 1.00139 0.76331 0.0
C386 C 0.2574 1.00074 0.74653 0.0
C387 C 0.20883 0.99492 0.80766 0.0
C388 C 0.16479 0.99357 0.82683 0.0
C389 C 0.12762 0.96319 0.81093 0.0
C390 C 0.08605 0.96281 0.82854 0.0
C391 C 0.0813 0.99246 0.86226 0.0
C392 C 0.11814 0.02246 0.87855 0.0
C393 C 0.15978 0.023 0.86104 0.0
H394 H 0.04907 0.99216 0.8758 0.0
H395 H 0.45109 0.99042 0.7031 0.0
H396 H 0.11395 0.41006 0.89292 0.0
H397 H 0.11411 0.36151 0.82891 0.0
H398 H 0.00806 0.41744 0.77005 0.0
H399 H 0.00897 0.46733 0.83351 0.0
H400 H 1.00348 0.3109 0.79388 0.0
H401 H 0.07344 0.43765 0.71402 0.0
H402 H 0.13248 0.502 0.70512 0.0
H403 H 0.23123 0.41872 0.71198 0.0
H404 H 0.17274 0.35397 0.72162 0.0
H405 H 0.96242 0.17763 0.6022 0.0
H406 H 0.97243 0.24261 0.65177 0.0
H407 H 0.10984 0.23156 0.6746 0.0
H408 H 0.09966 0.16637 0.62532 0.0
H409 H 0.10004 0.31798 0.66798 0.0
H410 H 0.03862 0.19322 0.74432 0.0
H411 H 0.98816 0.1263 0.76476 0.0
H412 H 0.882 0.20002 0.77634 0.0
H413 H 0.93149 0.26723 0.75468 0.0
C414 C 0.0921 0.41335 0.86548 0.0
C415 C 0.06206 0.44301 0.86773 0.0
C416 C 0.09198 0.38541 0.82912 0.0
C417 C 0.06117 0.38598 0.79477 0.0
C418 C 0.03244 0.41691 0.79606 0.0
C419 C 0.03328 0.44566 0.83206 0.0
C420 C 0.05552 0.35072 0.76042 0.0
C421 C 0.02373 0.31274 0.7657 0.0
C422 C 0.08372 0.35237 0.72516 0.0
C423 C 0.1188 0.39112 0.71903 0.0
C424 C 0.10778 0.43316 0.7141 0.0
C425 C 0.14113 0.46968 0.7088 0.0
C426 C 0.1856 0.46448 0.70811 0.0
C427 C 0.19678 0.42272 0.71258 0.0
C428 C 0.16355 0.3861 0.71792 0.0
C429 C 0.99495 0.18982 0.61711 0.0
C430 C 0.0305 0.16769 0.6096 0.0
C431 C 1.00054 0.22658 0.64567 0.0
C432 C 0.04176 0.24174 0.66724 0.0
C433 C 0.07779 0.22059 0.65829 0.0
C434 C 0.07206 0.18356 0.63004 0.0
C435 C 0.04666 0.27838 0.70042 0.0
C436 C 0.07887 0.3163 0.69547 0.0
C437 C 0.01941 0.27621 0.73669 0.0
C438 C 0.98869 0.23525 0.74718 0.0
C439 C 1.00431 0.19507 0.75039 0.0
C440 C 0.97592 0.1571 0.76244 0.0
C441 C 0.93194 0.15893 0.77196 0.0
C442 C 0.91615 0.1987 0.76913 0.0
C443 C 0.9443 0.2367 0.75674 0.0
H444 H 0.91003 0.12952 0.78136 0.0
H445 H 0.21137 0.49279 0.70401 0.0
H446 H 0.59714 1.00583 0.81754 0.0
H447 H 0.63761 1.00608 0.75083 0.0
H448 H 0.75785 0.0699 0.81933 0.0
H449 H 0.71727 0.07046 0.88595 0.0
H450 H 0.75336 0.1049 0.74442 0.0
H451 H 0.74312 0.9622 0.79487 0.0
H452 H 0.71039 0.89027 0.82299 0.0
H453 H 0.63084 0.85878 0.70604 0.0
H454 H 0.66266 0.93096 0.67743 0.0
H455 H 0.88311 0.96427 0.60715 0.0
H456 H 0.82289 0.96731 0.6539 0.0
H457 H 0.79909 0.08734 0.59587 0.0
H458 H 0.86451 0.08733 0.55197 0.0
H459 H 0.74661 0.96423 0.6608 0.0
H460 H 0.75813 0.15321 0.67031 0.0
H461 H 0.81037 0.22087 0.65432 0.0
H462 H 0.92044 0.15297 0.67278 0.0
H463 H 0.86902 0.08542 0.69021 0.0
C464 C 0.63217 1.02002 0.81829 0.0
C465 C 0.65418 0.03791 0.85687 0.0
C466 C 0.65526 1.02011 0.78021 0.0
C467 C 0.70081 0.03777 0.78013 0.0
C468 C 0.72267 0.05629 0.81857 0.0
C469 C 0.69955 0.05632 0.85665 0.0
C470 C 0.72595 0.03558 0.7403 0.0
C471 C 0.75199 0.07418 0.72603 0.0
C472 C 0.72502 0.99534 0.71698 0.0
C473 C 0.70469 0.95233 0.73429 0.0
C474 C 0.71817 0.94022 0.77537 0.0
C475 C 0.69991 0.89934 0.79135 0.0
C476 C 0.66839 0.87006 0.7664 0.0
C477 C 0.65513 0.8816 0.72539 0.0
C478 C 0.67325 0.9225 0.70927 0.0
C479 C 0.8651 0.9914 0.60382 0.0
C480 C 0.87991 0.02658 0.57698 0.0
C481 C 0.8299 0.99282 0.63055 0.0
C482 C 0.80697 0.02845 0.62994 0.0
C483 C 0.81745 0.06045 0.59852 0.0
C484 C 0.8544 0.06011 0.57283 0.0
C485 C 0.77598 0.03333 0.66528 0.0
C486 C 0.74803 0.99522 0.6787 0.0
C487 C 0.77823 0.07334 0.68983 0.0
C488 C 0.80965 0.11409 0.68072 0.0
C489 C 0.79351 0.15283 0.67112 0.0
C490 C 0.82298 0.19117 0.66189 0.0
C491 C 0.86867 0.19114 0.66221 0.0
C492 C 0.88503 0.15288 0.67217 0.0
C493 C 0.85577 0.11465 0.68202 0.0
H494 H 0.89136 0.22083 0.65498 0.0
H495 H 0.65438 0.83836 0.77878 0.0
H496 H 0.16529 0.39243 0.95829 0.0
H497 H 0.22336 0.34688 0.96247 0.0
H498 H 0.16192 0.28237 0.07227 0.0
H499 H 0.10371 0.32789 0.06815 0.0
H500 H 0.25066 0.30267 0.08593 0.0
H501 H 0.15165 0.23072 0.97405 0.0
H502 H 0.1062 0.22433 0.90636 0.0
H503 H 0.22357 0.264 0.83494 0.0
H504 H 0.26973 0.2713 0.90236 0.0
H505 H 0.34934 0.10928 0.08309 0.0
H506 H 0.29827 0.16196 0.07874 0.0
H507 H 0.37802 0.23242 0.98253 0.0
H508 H 0.43003 0.17989 0.98728 0.0
H509 H 0.28296 0.21139 0.96056 0.0
H510 H 0.38168 0.28005 0.07589 0.0
H511 H 0.4243 0.28157 0.14487 0.0
H512 H 0.30322 0.2425 0.21092 0.0
H513 H 0.25989 0.24011 0.14217 0.0
C514 C 0.16414 0.36853 0.98333 0.0
C515 C 0.12977 0.36372 0.01282 0.0
C516 C 0.19731 0.34234 0.98559 0.0
C517 C 0.19702 0.31078 0.01749 0.0
C518 C 0.163 0.30638 0.04733 0.0
C519 C 0.12961 0.33233 0.04486 0.0
C520 C 0.23221 0.28255 0.01985 0.0
C521 C 0.25734 0.28245 0.05857 0.0
C522 C 0.24169 0.25651 0.98404 0.0
C523 C 0.21411 0.25213 0.94337 0.0
C524 C 0.16775 0.23851 0.94398 0.0
C525 C 0.14186 0.23464 0.90564 0.0
C526 C 0.16197 0.24393 0.86639 0.0
C527 C 0.20804 0.25694 0.86539 0.0
C528 C 0.23409 0.26093 0.90366 0.0
C529 C 0.35651 0.1364 0.06148 0.0
C530 C 0.39404 0.14054 0.03578 0.0
C531 C 0.32716 0.16646 0.05895 0.0
C532 C 0.33414 0.20118 0.03024 0.0
C533 C 0.37189 0.20588 1.00489 0.0
C534 C 0.40186 0.17614 0.00797 0.0
C535 C 0.30134 0.23176 0.02653 0.0
C536 C 0.27651 0.23206 0.98767 0.0
C537 C 0.29171 0.25756 0.06232 0.0
C538 C 0.31757 0.25956 0.10382 0.0
C539 C 0.36416 0.27148 0.10507 0.0
C540 C 0.38844 0.27255 0.14414 0.0
C541 C 0.36649 0.26205 0.18225 0.0
C542 C 0.32018 0.2506 0.18137 0.0
C543 C 0.29573 0.24943 0.14237 0.0
H544 H 0.38535 0.26286 0.21246 0.0
H545 H 0.14186 0.24091 0.83674 0.0
H546 H 0.10512 0.65567 0.07692 0.0
H547 H 0.17891 0.69773 0.09397 0.0
H548 H 0.22445 0.65485 0.97247 0.0
H549 H 0.15035 0.61142 0.95538 0.0
H550 H 0.28887 0.65868 0.03685 0.0
H551 H 0.1964 0.7552 0.98044 0.0
H552 H 0.12882 0.78845 0.97401 0.0
H553 H 0.1482 0.83597 0.10574 0.0
H554 H 0.21589 0.80306 0.11306 0.0
H555 H 0.46187 0.84851 0.01898 0.0
H556 H 0.40523 0.7818 0.01566 0.0
H557 H 0.35152 0.82453 0.13328 0.0
H558 H 0.407 0.89202 0.1354 0.0
H559 H 0.29263 0.81782 0.06952 0.0
H560 H 0.3922 0.72372 0.12134 0.0
H561 H 0.46122 0.69257 0.12154 0.0
H562 H 0.43056 0.64248 0.99153 0.0
H563 H 0.36164 0.67382 0.99035 0.0
C564 C 0.13079 0.65479 0.05382 0.0
C565 C 0.12162 0.63057 0.01448 0.0
C566 C 0.17306 0.6789 0.06369 0.0
C567 C 0.20703 0.68005 0.0342 0.0
C568 C 0.19868 0.65447 0.99566 0.0
C569 C 0.15629 0.62984 0.98588 0.0
C570 C 0.25002 0.71037 0.04274 0.0
C571 C 0.28989 0.69357 0.04368 0.0
C572 C 0.25131 0.75584 0.05175 0.0
C573 C 0.21104 0.77642 0.04736 0.0
C574 C 0.18618 0.77268 0.00808 0.0
C575 C 0.14793 0.79159 1.00425 0.0
C576 C 0.13433 0.8145 0.03943 0.0
C577 C 0.15901 0.81861 0.07846 0.0
C578 C 0.19733 0.79986 0.08246 0.0
C579 C 0.43968 0.84227 0.04549 0.0
C580 C 0.43887 0.87508 0.07762 0.0
C581 C 0.40698 0.80422 0.04342 0.0
C582 C 0.3737 0.79826 0.074 0.0
C583 C 0.37664 0.82849 0.10918 0.0
C584 C 0.40876 0.86676 0.1108 0.0
C585 C 0.33182 0.76614 0.06513 0.0
C586 C 0.29191 0.78284 0.06343 0.0
C587 C 0.33087 0.72093 0.05471 0.0
C588 C 0.37189 0.70138 0.05568 0.0
C589 C 0.4003 0.70627 0.09272 0.0
C590 C 0.43938 0.68854 0.09301 0.0
C591 C 0.45031 0.66563 0.05655 0.0
C592 C 0.42207 0.66024 0.01976 0.0
C593 C 0.38294 0.67791 0.01929 0.0
H594 H 0.48062 0.652 0.05681 0.0
H595 H 0.10461 0.82897 0.0365 0.0
H596 H 0.54733 0.20242 0.98565 0.0
H597 H 0.60331 0.26987 0.98765 0.0
H598 H 0.66696 0.21866 0.88016 0.0
H599 H 0.61166 0.15117 0.87862 0.0
H600 H 0.71644 0.22663 0.95736 0.0
H601 H 0.63238 0.31521 0.87282 0.0
H602 H 0.56634 0.34832 0.85579 0.0
H603 H 0.58157 0.41738 0.97898 0.0
H604 H 0.64739 0.3842 0.99699 0.0
H605 H 0.9104 0.37751 0.94058 0.0
H606 H 0.83626 0.3359 0.92441 0.0
H607 H 0.78607 0.40043 0.03256 0.0
H608 H 0.86068 0.44295 0.04905 0.0
H609 H 0.72694 0.38916 0.95981 0.0
H610 H 0.80621 0.3028 0.04701 0.0
H611 H 0.86928 0.26821 0.07078 0.0
H612 H 0.85881 0.19216 0.95163 0.0
H613 H 0.79624 0.22707 0.92668 0.0
C614 C 0.5716 0.20683 0.96076 0.0
C615 C 0.57555 0.17169 0.93217 0.0
C616 C 0.60382 0.24524 0.96214 0.0
C617 C 0.63967 0.24882 0.93452 0.0
C618 C 0.6397 0.21635 0.90191 0.0
C619 C 0.60785 0.178 0.90076 0.0
C620 C 0.68127 0.28019 0.94539 0.0
C621 C 0.7189 0.26219 0.95705 0.0
C622 C 0.68368 0.32642 0.9475 0.0
C623 C 0.6446 0.34695 0.93639 0.0
C624 C 0.62147 0.33722 0.8964 0.0
C625 C 0.58411 0.35605 0.88654 0.0
C626 C 0.56971 0.38486 0.91632 0.0
C627 C 0.59275 0.39504 0.95595 0.0
C628 C 0.63013 0.37629 0.96597 0.0
C629 C 0.88371 0.38322 0.96094 0.0
C630 C 0.89168 0.41323 0.9965 0.0
C631 C 0.84127 0.35941 0.95153 0.0
C632 C 0.80584 0.36476 0.97757 0.0
C633 C 0.81305 0.39589 0.01209 0.0
C634 C 0.85572 0.41993 0.02157 0.0
C635 C 0.76232 0.33542 0.96997 0.0
C636 C 0.72439 0.35361 0.95969 0.0
C637 C 0.75911 0.28909 0.96999 0.0
C638 C 0.7968 0.26794 0.98478 0.0
C639 C 0.81762 0.27904 0.02567 0.0
C640 C 0.85324 0.2593 0.0394 0.0
C641 C 0.86807 0.22802 0.01273 0.0
C642 C 0.8473 0.21642 0.97224 0.0
C643 C 0.81176 0.23619 0.95828 0.0
H644 H 0.8956 0.21271 0.02346 0.0
H645 H 0.54073 0.39935 0.90866 0.0
H646 H 0.83984 0.63779 0.95864 0.0
H647 H 0.78167 0.68324 0.9557 0.0
H648 H 0.86294 0.78188 0.03912 0.0
H649 H 0.92066 0.736 0.04288 0.0
H650 H 0.7833 0.77408 0.06401 0.0
H651 H 0.84753 0.79396 0.92819 0.0
H652 H 0.87474 0.77536 0.85731 0.0
H653 H 0.74268 0.71381 0.81555 0.0
H654 H 0.71474 0.73136 0.88652 0.0
H655 H 0.68406 0.95919 0.0093 0.0
H656 H 0.73349 0.90526 0.01266 0.0
H657 H 0.62477 0.80183 0.97265 0.0
H658 H 0.57413 0.85609 0.97006 0.0
H659 H 0.71348 0.80885 0.9257 0.0
H660 H 0.6533 0.80021 0.06925 0.0
H661 H 0.63504 0.83301 0.13837 0.0
H662 H 0.77244 0.89004 0.16231 0.0
H663 H 0.7914 0.85801 0.09328 0.0
C664 C 0.84532 0.66919 0.97633 0.0
C665 C 0.88502 0.68328 1.00088 0.0
C666 C 0.81206 0.69536 0.97444 0.0
C667 C 0.81777 0.73651 0.99677 0.0
C668 C 0.8574 0.7504 0.02155 0.0
C669 C 0.89058 0.72418 0.02355 0.0
C670 C 0.78239 0.76475 0.99486 0.0
C671 C 0.76834 0.7817 0.03362 0.0
C672 C 0.76237 0.77505 0.95537 0.0
C673 C 0.77914 0.76339 0.91297 0.0
C674 C 0.82436 0.77593 0.90412 0.0
C675 C 0.83991 0.76569 0.86387 0.0
C676 C 0.81049 0.74326 0.832 0.0
C677 C 0.76545 0.73104 0.84033 0.0
C678 C 0.74974 0.74111 0.88058 0.0
C679 C 0.67036 0.92499 1.00114 0.0
C680 C 0.62497 0.91211 0.98913 0.0
C681 C 0.69882 0.89414 1.00325 0.0
C682 C 0.683 0.84948 0.9929 0.0
C683 C 0.63774 0.83618 0.98074 0.0
C684 C 0.6088 0.86715 0.97942 0.0
C685 C 0.71439 0.81739 0.9947 0.0
C686 C 0.72797 0.80022 0.95595 0.0
C687 C 0.73519 0.80825 0.03401 0.0
C688 C 0.72372 0.82693 0.07591 0.0
C689 C 0.67956 0.81997 0.08915 0.0
C690 C 0.6691 0.83838 0.12839 0.0
C691 C 0.70254 0.86366 0.15477 0.0
C692 C 0.74653 0.87044 0.14199 0.0
C693 C 0.75717 0.8521 0.10283 0.0
H694 H 0.69439 0.87794 0.1851 0.0
H695 H 0.82257 0.73551 0.80081 0.0
loop_
_geom_bond_atom_site_label_1
_geom_bond_atom_site_label_2
_geom_bond_distance
_geom_bond_site_symmetry_2
_ccdc_geom_bond_type
Co0 H3 2.400 . S
Co0 O4 2.009 . S
Co0 O12 2.113 1_565 S
Co0 O13 2.315 . S
Co0 O24 2.053 . S
Co0 O27 2.094 1_565 S
Co0 O30 2.122 1_665 S
Co1 O4 2.126 1_545 S
Co1 H5 2.388 1_655 S
Co1 O6 2.053 1_655 S
Co1 O9 2.047 1_655 S
Co1 O15 2.113 . S
Co1 O26 2.063 . S
Co2 H3 2.388 1_455 S
Co2 O4 2.053 1_455 S
Co2 O6 2.126 1_565 S
Co2 O11 2.063 . S
Co2 O25 2.047 1_455 S
Co2 O31 2.113 . S
H3 Co0 2.400 . S
H3 Co2 2.388 1_655 S
H3 O4 0.760 . S
O4 Co0 2.009 . S
O4 Co1 2.126 1_565 S
O4 Co2 2.053 1_655 S
O4 H3 0.760 . S
H5 Co1 2.388 1_455 S
H5 O6 0.760 . S
H5 Co7 2.400 . S
O6 Co1 2.053 1_455 S
O6 Co2 2.126 1_545 S
O6 H5 0.760 . S
O6 Co7 2.009 . S
Co7 H5 2.400 . S
Co7 O6 2.009 . S
Co7 O8 2.053 . S
Co7 O10 2.094 1_545 S
Co7 O14 2.122 1_445 S
Co7 O28 2.114 1_545 S
Co7 O29 2.315 . S
O8 Co7 2.053 . S
O8 C20 1.259 . S
O9 Co1 2.047 1_455 S
O9 C20 1.257 . S
O10 Co7 2.094 1_565 S
O10 C21 1.253 . S
O11 Co2 2.063 . S
O11 C21 1.268 . S
O12 Co0 2.113 1_545 S
O12 C22 1.284 1_545 S
O13 Co0 2.315 . S
O13 C22 1.252 . S
O14 Co7 2.122 1_665 S
O14 C23 1.272 1_565 S
O15 Co1 2.113 . S
O15 C23 1.245 . S
C16 O24 1.259 . S
C16 O25 1.257 . S
C17 O26 1.268 . S
C17 O27 1.253 . S
C18 O28 1.284 1_545 S
C18 O29 1.253 . S
C19 O30 1.272 1_565 S
C19 O31 1.245 . S
C20 O8 1.259 . S
C20 O9 1.257 . S
C21 O10 1.253 . S
C21 O11 1.268 . S
C22 O12 1.284 1_565 S
C22 O13 1.252 . S
C23 O14 1.272 1_545 S
C23 O15 1.245 . S
O24 Co0 2.053 . S
O24 C16 1.259 . S
O25 Co2 2.047 1_655 S
O25 C16 1.257 . S
O26 Co1 2.063 . S
O26 C17 1.268 . S
O27 Co0 2.094 1_545 S
O27 C17 1.253 . S
O28 Co7 2.114 1_565 S
O28 C18 1.284 1_565 S
O29 Co7 2.315 . S
O29 C18 1.253 . S
O30 Co0 2.122 1_445 S
O30 C19 1.272 1_545 S
O31 Co2 2.113 . S
O31 C19 1.245 . S
Co32 H35 2.400 1_545 S
Co32 O36 2.012 1_545 S
Co32 O44 2.115 . S
Co32 O45 2.315 . S
Co32 O56 2.053 1_545 S
Co32 O59 2.094 . S
Co32 O62 2.122 1_556 S
Co33 O36 2.108 1_545 S
Co33 H37 2.388 1_556 S
Co33 O38 2.072 1_556 S
Co33 O41 2.047 1_556 S
Co33 O47 2.113 . S
Co33 O58 2.063 . S
Co34 H35 2.388 1_554 S
Co34 O36 2.068 1_554 S
Co34 O38 2.102 1_565 S
Co34 O43 2.063 . S
Co34 O57 2.047 1_554 S
Co34 O63 2.113 . S
H35 Co32 2.400 1_565 S
H35 Co34 2.388 1_556 S
H35 O36 0.762 . S
O36 Co32 2.012 1_565 S
O36 Co33 2.108 1_565 S
O36 Co34 2.068 1_556 S
O36 H35 0.762 . S
H37 Co33 2.388 1_554 S
H37 O38 0.763 . S
H37 Co39 2.400 1_545 S
O38 Co33 2.072 1_554 S
O38 Co34 2.102 1_545 S
O38 H37 0.763 . S
O38 Co39 2.012 1_545 S
Co39 H37 2.400 1_565 S
Co39 O38 2.012 1_565 S
Co39 O40 2.053 1_565 S
Co39 O42 2.094 . S
Co39 O46 2.122 1_554 S
Co39 O60 2.115 . S
Co39 O61 2.315 . S
O40 Co39 2.053 1_545 S
O40 C52 1.259 . S
O41 Co33 2.047 1_554 S
O41 C52 1.257 . S
O42 Co39 2.094 . S
O42 C53 1.253 . S
O43 Co34 2.063 . S
O43 C53 1.268 . S
O44 Co32 2.115 . S
O44 C54 1.281 . S
O45 Co32 2.315 . S
O45 C54 1.252 . S
O46 Co39 2.122 1_556 S
O46 C55 1.272 1_565 S
O47 Co33 2.113 . S
O47 C55 1.245 . S
C48 O56 1.259 . S
C48 O57 1.257 . S
C49 O58 1.268 . S
C49 O59 1.253 . S
C50 O60 1.281 . S
C50 O61 1.252 . S
C51 O62 1.272 1_565 S
C51 O63 1.245 . S
C52 O40 1.259 . S
C52 O41 1.257 . S
C53 O42 1.253 . S
C53 O43 1.268 . S
C54 O44 1.281 . S
C54 O45 1.252 . S
C55 O46 1.272 1_545 S
C55 O47 1.245 . S
O56 Co32 2.053 1_565 S
O56 C48 1.259 . S
O57 Co34 2.047 1_556 S
O57 C48 1.257 . S
O58 Co33 2.063 . S
O58 C49 1.268 . S
O59 Co32 2.094 . S
O59 C49 1.253 . S
O60 Co39 2.115 . S
O60 C50 1.281 . S
O61 Co39 2.315 . S
O61 C50 1.252 . S
O62 Co32 2.122 1_554 S
O62 C51 1.272 1_545 S
O63 Co34 2.113 . S
O63 C51 1.245 . S
Co64 H67 2.399 1_554 S
Co64 O68 2.009 1_554 S
Co64 O76 2.116 . S
Co64 O77 2.317 . S
Co64 O88 2.032 1_554 S
Co64 O91 2.115 . S
Co64 O94 2.123 1_655 S
Co65 O68 2.126 1_554 S
Co65 H69 2.388 1_655 S
Co65 O70 2.053 1_655 S
Co65 O73 2.047 1_655 S
Co65 O79 2.113 . S
Co65 O90 2.063 . S
Co66 H67 2.388 1_455 S
Co66 O68 2.053 1_455 S
Co66 O70 2.126 1_556 S
Co66 O75 2.063 . S
Co66 O89 2.047 1_455 S
Co66 O95 2.113 . S
H67 Co64 2.399 1_556 S
H67 Co66 2.388 1_655 S
H67 O68 0.760 . S
O68 Co64 2.009 1_556 S
O68 Co65 2.126 1_556 S
O68 Co66 2.053 1_655 S
O68 H67 0.760 . S
H69 Co65 2.388 1_455 S
H69 O70 0.760 . S
H69 Co71 2.400 1_554 S
O70 Co65 2.053 1_455 S
O70 Co66 2.126 1_554 S
O70 H69 0.760 . S
O70 Co71 2.009 1_554 S
Co71 H69 2.400 1_556 S
Co71 O70 2.009 1_556 S
Co71 O72 2.038 1_556 S
Co71 O74 2.108 . S
Co71 O78 2.123 1_455 S
Co71 O92 2.116 . S
Co71 O93 2.316 . S
O72 Co71 2.038 1_554 S
O72 C84 1.259 . S
O73 Co65 2.047 1_455 S
O73 C84 1.257 . S
O74 Co71 2.108 . S
O74 C85 1.253 . S
O75 Co66 2.063 . S
O75 C85 1.268 . S
O76 Co64 2.116 . S
O76 C86 1.281 . S
O77 Co64 2.317 . S
O77 C86 1.252 . S
O78 Co71 2.123 1_655 S
O78 C87 1.272 1_556 S
O79 Co65 2.113 . S
O79 C87 1.245 . S
C80 O88 1.259 . S
C80 O89 1.257 . S
C81 O90 1.268 . S
C81 O91 1.253 . S
C82 O92 1.281 . S
C82 O93 1.252 . S
C83 O94 1.272 1_556 S
C83 O95 1.245 . S
C84 O72 1.259 . S
C84 O73 1.257 . S
C85 O74 1.253 . S
C85 O75 1.268 . S
C86 O76 1.281 . S
C86 O77 1.252 . S
C87 O78 1.272 1_554 S
C87 O79 1.245 . S
O88 Co64 2.032 1_556 S
O88 C80 1.259 . S
O89 Co66 2.047 1_655 S
O89 C80 1.257 . S
O90 Co65 2.063 . S
O90 C81 1.268 . S
O91 Co64 2.115 . S
O91 C81 1.253 . S
O92 Co71 2.116 . S
O92 C82 1.281 . S
O93 Co71 2.316 . S
O93 C82 1.252 . S
O94 Co64 2.123 1_455 S
O94 C83 1.272 1_554 S
O95 Co66 2.113 . S
O95 C83 1.245 . S
H96 C114 0.951 . S
H97 C116 0.951 . S
H98 C118 0.950 . S
H99 C119 0.950 . S
H100 C121 0.950 . S
H101 C124 0.950 . S
H102 C125 0.950 . S
H103 C127 0.950 . S
H104 C128 0.950 . S
H105 C129 0.949 . S
H106 C131 0.951 . S
H107 C133 0.950 . S
H108 C134 0.950 . S
H109 C136 0.950 . S
H110 C139 0.950 1_655 S
H111 C140 0.950 . S
H112 C142 0.950 . S
H113 C143 0.950 . S
C114 H96 0.951 . S
C114 C115 1.366 1_655 S
C114 C116 1.388 . S
C115 C114 1.366 1_455 S
C115 C119 1.385 . S
C116 H97 0.951 . S
C116 C114 1.388 . S
C116 C117 1.366 . S
C117 C116 1.366 . S
C117 C118 1.414 1_655 S
C117 C120 1.499 . S
C118 H98 0.950 . S
C118 C117 1.414 1_455 S
C118 C119 1.374 . S
C119 H99 0.950 . S
C119 C115 1.385 . S
C119 C118 1.374 . S
C120 C117 1.499 . S
C120 C121 1.373 1_655 S
C120 C122 1.389 . S
C121 H100 0.950 . S
C121 C120 1.373 1_455 S
C121 C137 1.377 . S
C122 C120 1.389 . S
C122 C123 1.524 . S
C122 C136 1.377 . S
C123 C122 1.524 . S
C123 C124 1.397 . S
C123 C128 1.363 . S
C124 H101 0.950 . S
C124 C123 1.397 . S
C124 C125 1.334 . S
C125 H102 0.950 . S
C125 C124 1.334 . S
C125 C126 1.287 . S
C126 C125 1.287 . S
C126 C127 1.524 . S
C126 H145 0.913 . S
C127 H103 0.950 . S
C127 C126 1.524 . S
C127 C128 1.415 . S
C128 H104 0.950 . S
C128 C123 1.363 . S
C128 C127 1.415 . S
C129 H105 0.949 . S
C129 C130 1.368 1_455 S
C129 C131 1.388 . S
C130 C129 1.368 1_655 S
C130 C134 1.385 . S
C131 H106 0.951 . S
C131 C129 1.388 . S
C131 C132 1.366 1_455 S
C132 C131 1.366 1_655 S
C132 C133 1.414 . S
C132 C135 1.499 . S
C133 H107 0.950 . S
C133 C132 1.414 . S
C133 C134 1.374 . S
C134 H108 0.950 . S
C134 C130 1.385 . S
C134 C133 1.374 . S
C135 C132 1.499 . S
C135 C136 1.373 . S
C135 C137 1.389 1_655 S
C136 H109 0.950 . S
C136 C122 1.377 . S
C136 C135 1.373 . S
C137 C121 1.377 . S
C137 C135 1.389 1_455 S
C137 C138 1.524 . S
C138 C137 1.524 . S
C138 C139 1.397 . S
C138 C143 1.363 . S
C139 H110 0.950 1_455 S
C139 C138 1.397 . S
C139 C140 1.334 . S
C140 H111 0.950 . S
C140 C139 1.334 . S
C140 C141 1.287 . S
C141 C140 1.287 . S
C141 C142 1.524 . S
C141 H144 0.999 . S
C142 H112 0.950 . S
C142 C141 1.524 . S
C142 C143 1.415 . S
C143 H113 0.950 . S
C143 C138 1.363 . S
C143 C142 1.415 . S
H144 C141 0.999 . S
H145 C126 0.913 . S
H146 C164 0.951 . S
H147 C166 0.948 . S
H148 C168 0.951 1_565 S
H149 C169 0.950 . S
H150 C171 0.950 . S
H151 C174 0.950 . S
H152 C175 0.950 . S
H153 C177 0.950 . S
H154 C178 0.950 . S
H155 C179 0.951 . S
H156 C181 0.951 . S
H157 C183 0.950 . S
H158 C184 0.950 . S
H159 C186 0.950 . S
H160 C189 0.950 . S
H161 C190 0.950 . S
H162 C192 0.950 . S
H163 C193 0.950 . S
C164 H146 0.951 . S
C164 C165 1.366 . S
C164 C166 1.388 . S
C165 C164 1.366 . S
C165 C169 1.385 . S
C166 H147 0.948 . S
C166 C164 1.388 . S
C166 C167 1.366 1_545 S
C167 C166 1.366 1_565 S
C167 C168 1.415 1_565 S
C167 C170 1.499 . S
C168 H148 0.951 1_545 S
C168 C167 1.415 1_545 S
C168 C169 1.373 . S
C169 H149 0.950 . S
C169 C165 1.385 . S
C169 C168 1.373 . S
C170 C167 1.499 . S
C170 C171 1.373 1_565 S
C170 C172 1.389 . S
C171 H150 0.950 . S
C171 C170 1.373 1_545 S
C171 C187 1.377 . S
C172 C170 1.389 . S
C172 C173 1.524 . S
C172 C186 1.377 . S
C173 C172 1.524 . S
C173 C174 1.397 . S
C173 C178 1.363 . S
C174 H151 0.950 . S
C174 C173 1.397 . S
C174 C175 1.334 . S
C175 H152 0.950 . S
C175 C174 1.334 . S
C175 C176 1.287 . S
C176 C175 1.287 . S
C176 C177 1.524 . S
C176 H195 0.913 . S
C177 H153 0.950 . S
C177 C176 1.524 . S
C177 C178 1.415 . S
C178 H154 0.950 . S
C178 C173 1.363 . S
C178 C177 1.415 . S
C179 H155 0.951 . S
C179 C180 1.366 . S
C179 C181 1.388 . S
C180 C179 1.366 . S
C180 C184 1.385 . S
C181 H156 0.951 . S
C181 C179 1.388 . S
C181 C182 1.366 . S
C182 C181 1.366 . S
C182 C183 1.414 . S
C182 C185 1.499 . S
C183 H157 0.950 . S
C183 C182 1.414 . S
C183 C184 1.374 . S
C184 H158 0.950 . S
C184 C180 1.385 . S
C184 C183 1.374 . S
C185 C182 1.499 . S
C185 C186 1.373 . S
C185 C187 1.389 1_565 S
C186 H159 0.950 . S
C186 C172 1.377 . S
C186 C185 1.373 . S
C187 C171 1.377 . S
C187 C185 1.389 1_545 S
C187 C188 1.524 . S
C188 C187 1.524 . S
C188 C189 1.397 . S
C188 C193 1.363 . S
C189 H160 0.950 . S
C189 C188 1.397 . S
C189 C190 1.334 . S
C190 H161 0.950 . S
C190 C189 1.334 . S
C190 C191 1.287 . S
C191 C190 1.287 . S
C191 C192 1.524 . S
C191 H194 0.999 . S
C192 H162 0.950 . S
C192 C191 1.524 . S
C192 C193 1.415 . S
C193 H163 0.950 . S
C193 C188 1.363 . S
C193 C192 1.415 . S
H194 C191 0.999 . S
H195 C176 0.913 . S
H196 C214 0.951 . S
H197 C216 0.951 . S
H198 C218 0.950 . S
H199 C219 0.950 . S
H200 C221 0.950 1_455 S
H201 C224 0.950 . S
H202 C225 0.950 . S
H203 C227 0.950 . S
H204 C228 0.950 . S
H205 C229 0.951 1_455 S
H206 C231 0.951 1_455 S
H207 C233 0.950 . S
H208 C234 0.950 . S
H209 C236 0.950 . S
H210 C239 0.950 . S
H211 C240 0.943 1_655 S
H212 C242 0.950 . S
H213 C243 0.950 . S
C214 H196 0.951 . S
C214 C215 1.366 . S
C214 C216 1.388 . S
C215 C214 1.366 . S
C215 C219 1.385 1_655 S
C216 H197 0.951 . S
C216 C214 1.388 . S
C216 C217 1.366 . S
C217 C216 1.366 . S
C217 C218 1.414 1_655 S
C217 C220 1.499 . S
C218 H198 0.950 . S
C218 C217 1.414 1_455 S
C218 C219 1.374 . S
C219 H199 0.950 . S
C219 C215 1.385 1_455 S
C219 C218 1.374 . S
C220 C217 1.499 . S
C220 C221 1.373 . S
C220 C222 1.389 . S
C221 H200 0.950 1_655 S
C221 C220 1.373 . S
C221 C237 1.377 . S
C222 C220 1.389 . S
C222 C223 1.524 . S
C222 C236 1.377 . S
C223 C222 1.524 . S
C223 C224 1.397 . S
C223 C228 1.363 . S
C224 H201 0.950 . S
C224 C223 1.397 . S
C224 C225 1.334 . S
C225 H202 0.950 . S
C225 C224 1.334 . S
C225 C226 1.287 . S
C226 C225 1.287 . S
C226 C227 1.524 . S
C226 H245 0.913 . S
C227 H203 0.950 . S
C227 C226 1.524 . S
C227 C228 1.415 . S
C228 H204 0.950 . S
C228 C223 1.363 . S
C228 C227 1.415 . S
C229 H205 0.951 1_655 S
C229 C230 1.366 . S
C229 C231 1.388 . S
C230 C229 1.366 . S
C230 C234 1.385 . S
C231 H206 0.951 1_655 S
C231 C229 1.388 . S
C231 C232 1.366 . S
C232 C231 1.366 . S
C232 C233 1.414 . S
C232 C235 1.499 . S
C233 H207 0.950 . S
C233 C232 1.414 . S
C233 C234 1.374 . S
C234 H208 0.950 . S
C234 C230 1.385 . S
C234 C233 1.374 . S
C235 C232 1.499 . S
C235 C236 1.373 . S
C235 C237 1.389 . S
C236 H209 0.950 . S
C236 C222 1.377 . S
C236 C235 1.373 . S
C237 C221 1.377 . S
C237 C235 1.389 . S
C237 C238 1.524 1_655 S
C238 C237 1.524 1_455 S
C238 C239 1.397 1_455 S
C238 C243 1.363 . S
C239 H210 0.950 . S
C239 C238 1.397 1_655 S
C239 C240 1.334 1_655 S
C240 H211 0.943 1_455 S
C240 C239 1.334 1_455 S
C240 C241 1.287 . S
C241 C240 1.287 . S
C241 C242 1.524 . S
C241 H244 0.999 . S
C242 H212 0.950 . S
C242 C241 1.524 . S
C242 C243 1.415 . S
C243 H213 0.950 . S
C243 C238 1.363 . S
C243 C242 1.415 . S
H244 C241 0.999 . S
H245 C226 0.913 . S
H246 C264 0.951 . S
H247 C266 0.951 . S
H248 C268 0.950 . S
H249 C269 0.950 . S
H250 C271 0.950 1_545 S
H251 C274 0.965 . S
H252 C275 0.950 . S
H253 C277 0.950 . S
H254 C278 0.950 . S
H255 C279 0.951 . S
H256 C281 0.951 . S
H257 C283 0.950 . S
H258 C284 0.950 . S
H259 C286 0.950 . S
H260 C289 0.950 . S
H261 C290 0.938 1_565 S
H262 C292 0.950 . S
H263 C293 0.950 . S
C264 H246 0.951 . S
C264 C265 1.366 . S
C264 C266 1.388 . S
C265 C264 1.366 . S
C265 C269 1.385 1_565 S
C266 H247 0.951 . S
C266 C264 1.388 . S
C266 C267 1.366 . S
C267 C266 1.366 . S
C267 C268 1.414 1_565 S
C267 C270 1.499 . S
C268 H248 0.950 . S
C268 C267 1.414 1_545 S
C268 C269 1.374 . S
C269 H249 0.950 . S
C269 C265 1.385 1_545 S
C269 C268 1.374 . S
C270 C267 1.499 . S
C270 C271 1.373 . S
C270 C272 1.389 . S
C271 H250 0.950 1_565 S
C271 C270 1.373 . S
C271 C287 1.377 . S
C272 C270 1.389 . S
C272 C273 1.524 . S
C272 C286 1.377 . S
C273 C272 1.524 . S
C273 C274 1.397 . S
C273 C278 1.363 . S
C274 H251 0.965 . S
C274 C273 1.397 . S
C274 C275 1.334 . S
C275 H252 0.950 . S
C275 C274 1.334 . S
C275 C276 1.287 . S
C276 C275 1.287 . S
C276 C277 1.524 . S
C276 H295 0.913 . S
C277 H253 0.950 . S
C277 C276 1.524 . S
C277 C278 1.415 . S
C278 H254 0.950 . S
C278 C273 1.363 . S
C278 C277 1.415 . S
C279 H255 0.951 . S
C279 C280 1.366 1_545 S
C279 C281 1.388 . S
C280 C279 1.366 1_565 S
C280 C284 1.385 . S
C281 H256 0.951 . S
C281 C279 1.388 . S
C281 C282 1.366 1_545 S
C282 C281 1.366 1_565 S
C282 C283 1.414 . S
C282 C285 1.499 . S
C283 H257 0.950 . S
C283 C282 1.414 . S
C283 C284 1.374 . S
C284 H258 0.950 . S
C284 C280 1.385 . S
C284 C283 1.374 . S
C285 C282 1.499 . S
C285 C286 1.373 . S
C285 C287 1.389 . S
C286 H259 0.950 . S
C286 C272 1.377 . S
C286 C285 1.373 . S
C287 C271 1.377 . S
C287 C285 1.389 . S
C287 C288 1.524 1_565 S
C288 C287 1.524 1_545 S
C288 C289 1.397 1_545 S
C288 C293 1.363 . S
C289 H260 0.950 . S
C289 C288 1.397 1_565 S
C289 C290 1.332 1_565 S
C290 H261 0.938 1_545 S
C290 C289 1.332 1_545 S
C290 C291 1.303 . S
C291 C290 1.303 . S
C291 C292 1.524 . S
C291 H294 0.999 . S
C292 H262 0.950 . S
C292 C291 1.524 . S
C292 C293 1.415 . S
C293 H263 0.950 . S
C293 C288 1.363 . S
C293 C292 1.415 . S
H294 C291 0.999 . S
H295 C276 0.913 . S
H296 C314 0.951 1_655 S
H297 C316 0.951 1_655 S
H298 C318 0.950 . S
H299 C319 0.950 . S
H300 C321 0.950 . S
H301 C324 0.950 . S
H302 C325 0.950 . S
H303 C327 0.950 . S
H304 C328 0.950 . S
H305 C329 0.951 . S
H306 C331 0.951 . S
H307 C333 0.950 . S
H308 C334 0.950 . S
H309 C336 0.950 . S
H310 C339 0.950 . S
H311 C340 0.950 . S
H312 C342 0.950 . S
H313 C343 0.950 . S
C314 H296 0.951 1_455 S
C314 C315 1.366 . S
C314 C316 1.388 . S
C315 C314 1.366 . S
C315 C319 1.385 . S
C316 H297 0.951 1_455 S
C316 C314 1.388 . S
C316 C317 1.366 . S
C317 C316 1.366 . S
C317 C318 1.414 . S
C317 C320 1.499 . S
C318 H298 0.950 . S
C318 C317 1.414 . S
C318 C319 1.374 . S
C319 H299 0.950 . S
C319 C315 1.385 . S
C319 C318 1.374 . S
C320 C317 1.499 . S
C320 C321 1.373 . S
C320 C322 1.389 1_455 S
C321 H300 0.950 . S
C321 C320 1.373 . S
C321 C337 1.377 . S
C322 C320 1.389 1_655 S
C322 C323 1.524 . S
C322 C336 1.377 . S
C323 C322 1.524 . S
C323 C324 1.397 . S
C323 C328 1.363 . S
C324 H301 0.950 . S
C324 C323 1.397 . S
C324 C325 1.334 . S
C325 H302 0.950 . S
C325 C324 1.334 . S
C325 C326 1.287 . S
C326 C325 1.287 . S
C326 C327 1.524 . S
C326 H345 0.913 . S
C327 H303 0.950 . S
C327 C326 1.524 . S
C327 C328 1.415 . S
C328 H304 0.950 . S
C328 C323 1.363 . S
C328 C327 1.415 . S
C329 H305 0.951 . S
C329 C330 1.366 1_455 S
C329 C331 1.388 . S
C330 C329 1.366 1_655 S
C330 C334 1.385 . S
C331 H306 0.951 . S
C331 C329 1.388 . S
C331 C332 1.366 . S
C332 C331 1.366 . S
C332 C333 1.414 1_455 S
C332 C335 1.499 . S
C333 H307 0.950 . S
C333 C332 1.414 1_655 S
C333 C334 1.374 . S
C334 H308 0.950 . S
C334 C330 1.385 . S
C334 C333 1.374 . S
C335 C332 1.499 . S
C335 C336 1.373 1_455 S
C335 C337 1.389 . S
C336 H309 0.950 . S
C336 C322 1.377 . S
C336 C335 1.373 1_655 S
C337 C321 1.377 . S
C337 C335 1.389 . S
C337 C338 1.524 . S
C338 C337 1.524 . S
C338 C339 1.397 . S
C338 C343 1.363 . S
C339 H310 0.950 . S
C339 C338 1.397 . S
C339 C340 1.334 . S
C340 H311 0.950 . S
C340 C339 1.334 . S
C340 C341 1.287 . S
C341 C340 1.287 . S
C341 C342 1.524 . S
C341 H344 0.999 . S
C342 H312 0.950 . S
C342 C341 1.524 . S
C342 C343 1.415 . S
C343 H313 0.950 . S
C343 C338 1.363 . S
C343 C342 1.415 . S
H344 C341 0.999 . S
H345 C326 0.913 . S
H346 C364 0.951 . S
H347 C366 0.951 . S
H348 C368 0.950 . S
H349 C369 0.950 . S
H350 C371 0.950 . S
H351 C374 0.950 . S
H352 C375 0.950 . S
H353 C377 0.950 . S
H354 C378 0.950 . S
H355 C379 0.951 . S
H356 C381 0.951 . S
H357 C383 0.950 . S
H358 C384 0.950 . S
H359 C386 0.950 . S
H360 C389 0.950 . S
H361 C390 0.950 . S
H362 C392 0.950 . S
H363 C393 0.950 . S
C364 H346 0.951 . S
C364 C365 1.366 1_565 S
C364 C366 1.388 . S
C365 C364 1.366 1_545 S
C365 C369 1.385 . S
C366 H347 0.951 . S
C366 C364 1.388 . S
C366 C367 1.366 1_565 S
C367 C366 1.366 1_545 S
C367 C368 1.414 . S
C367 C370 1.499 . S
C368 H348 0.950 . S
C368 C367 1.414 . S
C368 C369 1.374 . S
C369 H349 0.950 . S
C369 C365 1.385 . S
C369 C368 1.374 . S
C370 C367 1.499 . S
C370 C371 1.373 . S
C370 C372 1.390 . S
C371 H350 0.950 . S
C371 C370 1.373 . S
C371 C387 1.377 . S
C372 C370 1.390 . S
C372 C373 1.519 1_545 S
C372 C386 1.377 1_545 S
C373 C372 1.519 1_565 S
C373 C374 1.379 1_565 S
C373 C378 1.384 . S
C374 H351 0.950 . S
C374 C373 1.379 1_545 S
C374 C375 1.334 . S
C375 H352 0.950 . S
C375 C374 1.334 . S
C375 C376 1.287 . S
C376 C375 1.287 . S
C376 C377 1.524 1_545 S
C376 H395 0.913 . S
C377 H353 0.950 . S
C377 C376 1.524 1_565 S
C377 C378 1.415 . S
C378 H354 0.950 . S
C378 C373 1.384 . S
C378 C377 1.415 . S
C379 H355 0.951 . S
C379 C380 1.366 1_545 S
C379 C381 1.388 . S
C380 C379 1.366 1_565 S
C380 C384 1.385 . S
C381 H356 0.951 . S
C381 C379 1.388 . S
C381 C382 1.366 1_545 S
C382 C381 1.366 1_565 S
C382 C383 1.414 . S
C382 C385 1.494 . S
C383 H357 0.950 . S
C383 C382 1.414 . S
C383 C384 1.374 . S
C384 H358 0.950 . S
C384 C380 1.385 . S
C384 C383 1.374 . S
C385 C382 1.494 . S
C385 C386 1.380 . S
C385 C387 1.386 1_565 S
C386 H359 0.950 . S
C386 C372 1.377 1_565 S
C386 C385 1.380 . S
C387 C371 1.377 . S
C387 C385 1.386 1_545 S
C387 C388 1.524 . S
C388 C387 1.524 . S
C388 C389 1.397 1_545 S
C388 C393 1.363 . S
C389 H360 0.950 . S
C389 C388 1.397 1_565 S
C389 C390 1.334 . S
C390 H361 0.950 . S
C390 C389 1.334 . S
C390 C391 1.282 1_565 S
C391 C390 1.282 1_545 S
C391 C392 1.529 . S
C391 H394 0.998 . S
C392 H362 0.950 . S
C392 C391 1.529 . S
C392 C393 1.415 . S
C393 H363 0.950 . S
C393 C388 1.363 . S
C393 C392 1.415 . S
H394 C391 0.998 . S
H395 C376 0.913 . S
H396 C414 0.951 . S
H397 C416 0.951 . S
H398 C418 0.950 1_655 S
H399 C419 0.950 1_655 S
H400 C421 0.950 1_655 S
H401 C424 0.950 . S
H402 C425 0.950 . S
H403 C427 0.950 . S
H404 C428 0.950 . S
H405 C429 0.951 . S
H406 C431 0.951 . S
H407 C433 0.950 . S
H408 C434 0.950 . S
H409 C436 0.950 . S
H410 C439 0.950 1_455 S
H411 C440 0.950 . S
H412 C442 0.950 . S
H413 C443 0.950 . S
C414 H396 0.951 . S
C414 C415 1.366 . S
C414 C416 1.388 . S
C415 C414 1.366 . S
C415 C419 1.385 . S
C416 H397 0.951 . S
C416 C414 1.388 . S
C416 C417 1.366 . S
C417 C416 1.366 . S
C417 C418 1.414 . S
C417 C420 1.499 . S
C418 H398 0.950 1_455 S
C418 C417 1.414 . S
C418 C419 1.374 . S
C419 H399 0.950 1_455 S
C419 C415 1.385 . S
C419 C418 1.374 . S
C420 C417 1.499 . S
C420 C421 1.373 . S
C420 C422 1.389 . S
C421 H400 0.950 1_455 S
C421 C420 1.373 . S
C421 C437 1.377 . S
C422 C420 1.389 . S
C422 C423 1.524 . S
C422 C436 1.377 . S
C423 C422 1.524 . S
C423 C424 1.397 . S
C423 C428 1.363 . S
C424 H401 0.950 . S
C424 C423 1.397 . S
C424 C425 1.334 . S
C425 H402 0.950 . S
C425 C424 1.334 . S
C425 C426 1.287 . S
C426 C425 1.287 . S
C426 C427 1.524 . S
C426 H445 0.913 . S
C427 H403 0.950 . S
C427 C426 1.524 . S
C427 C428 1.415 . S
C428 H404 0.950 . S
C428 C423 1.363 . S
C428 C427 1.415 . S
C429 H405 0.951 . S
C429 C430 1.366 1_655 S
C429 C431 1.388 . S
C430 C429 1.366 1_455 S
C430 C434 1.385 . S
C431 H406 0.951 . S
C431 C429 1.388 . S
C431 C432 1.366 1_655 S
C432 C431 1.366 1_455 S
C432 C433 1.414 . S
C432 C435 1.499 . S
C433 H407 0.950 . S
C433 C432 1.414 . S
C433 C434 1.374 . S
C434 H408 0.950 . S
C434 C430 1.385 . S
C434 C433 1.374 . S
C435 C432 1.499 . S
C435 C436 1.373 . S
C435 C437 1.389 . S
C436 H409 0.950 . S
C436 C422 1.377 . S
C436 C435 1.373 . S
C437 C421 1.377 . S
C437 C435 1.389 . S
C437 C438 1.524 1_455 S
C438 C437 1.524 1_655 S
C438 C439 1.397 . S
C438 C443 1.363 . S
C439 H410 0.950 1_655 S
C439 C438 1.397 . S
C439 C440 1.334 . S
C440 H411 0.950 . S
C440 C439 1.334 . S
C440 C441 1.287 . S
C441 C440 1.287 . S
C441 C442 1.524 . S
C441 H444 0.999 . S
C442 H412 0.950 . S
C442 C441 1.524 . S
C442 C443 1.415 . S
C443 H413 0.950 . S
C443 C438 1.363 . S
C443 C442 1.415 . S
H444 C441 0.999 . S
H445 C426 0.913 . S
H446 C464 0.951 . S
H447 C466 0.952 . S
H448 C468 0.950 . S
H449 C469 0.950 . S
H450 C471 0.950 . S
H451 C474 0.950 . S
H452 C475 0.950 . S
H453 C477 0.950 . S
H454 C478 0.950 . S
H455 C479 0.951 . S
H456 C481 0.951 . S
H457 C483 0.950 1_565 S
H458 C484 0.950 . S
H459 C486 0.950 . S
H460 C489 0.950 . S
H461 C490 0.950 . S
H462 C492 0.950 . S
H463 C493 0.950 . S
C464 H446 0.951 . S
C464 C465 1.366 . S
C464 C466 1.388 . S
C465 C464 1.366 . S
C465 C469 1.385 . S
C466 H447 0.952 . S
C466 C464 1.388 . S
C466 C467 1.366 . S
C467 C466 1.366 . S
C467 C468 1.414 . S
C467 C470 1.499 . S
C468 H448 0.950 . S
C468 C467 1.414 . S
C468 C469 1.374 . S
C469 H449 0.950 . S
C469 C465 1.385 . S
C469 C468 1.374 . S
C470 C467 1.499 . S
C470 C471 1.373 . S
C470 C472 1.389 1_545 S
C471 H450 0.950 . S
C471 C470 1.373 . S
C471 C487 1.377 . S
C472 C470 1.389 1_565 S
C472 C473 1.524 . S
C472 C486 1.377 . S
C473 C472 1.524 . S
C473 C474 1.397 . S
C473 C478 1.363 . S
C474 H451 0.950 . S
C474 C473 1.397 . S
C474 C475 1.334 . S
C475 H452 0.950 . S
C475 C474 1.334 . S
C475 C476 1.287 . S
C476 C475 1.287 . S
C476 C477 1.524 . S
C476 H495 0.913 . S
C477 H453 0.950 . S
C477 C476 1.524 . S
C477 C478 1.415 . S
C478 H454 0.950 . S
C478 C473 1.363 . S
C478 C477 1.415 . S
C479 H455 0.951 . S
C479 C480 1.366 . S
C479 C481 1.388 . S
C480 C479 1.366 . S
C480 C484 1.385 1_545 S
C481 H456 0.951 . S
C481 C479 1.388 . S
C481 C482 1.366 . S
C482 C481 1.366 . S
C482 C483 1.414 . S
C482 C485 1.499 . S
C483 H457 0.950 1_545 S
C483 C482 1.414 . S
C483 C484 1.374 1_545 S
C484 H458 0.950 . S
C484 C480 1.385 1_565 S
C484 C483 1.374 1_565 S
C485 C482 1.499 . S
C485 C486 1.373 1_545 S
C485 C487 1.389 . S
C486 H459 0.950 . S
C486 C472 1.377 . S
C486 C485 1.373 1_565 S
C487 C471 1.377 . S
C487 C485 1.389 . S
C487 C488 1.524 . S
C488 C487 1.524 . S
C488 C489 1.397 . S
C488 C493 1.363 . S
C489 H460 0.950 . S
C489 C488 1.397 . S
C489 C490 1.334 . S
C490 H461 0.950 . S
C490 C489 1.334 . S
C490 C491 1.287 . S
C491 C490 1.287 . S
C491 C492 1.524 . S
C491 H494 0.999 . S
C492 H462 0.950 . S
C492 C491 1.524 . S
C492 C493 1.415 . S
C493 H463 0.950 . S
C493 C488 1.363 . S
C493 C492 1.415 . S
H494 C491 0.999 . S
H495 C476 0.913 . S
H496 C514 0.951 . S
H497 C516 0.951 . S
H498 C518 0.950 . S
H499 C519 0.950 . S
H500 C521 0.950 . S
H501 C524 0.950 . S
H502 C525 0.950 . S
H503 C527 0.950 . S
H504 C528 0.950 . S
H505 C529 0.951 . S
H506 C531 0.951 . S
H507 C533 0.950 . S
H508 C534 0.950 . S
H509 C536 0.950 . S
H510 C539 0.950 . S
H511 C540 0.950 . S
H512 C542 0.950 . S
H513 C543 0.950 . S
C514 H496 0.951 . S
C514 C515 1.366 . S
C514 C516 1.388 . S
C515 C514 1.366 . S
C515 C519 1.385 1_556 S
C516 H497 0.951 . S
C516 C514 1.388 . S
C516 C517 1.366 . S
C517 C516 1.366 . S
C517 C518 1.414 1_556 S
C517 C520 1.499 . S
C518 H498 0.950 . S
C518 C517 1.414 1_554 S
C518 C519 1.374 . S
C519 H499 0.950 . S
C519 C515 1.385 1_554 S
C519 C518 1.374 . S
C520 C517 1.499 . S
C520 C521 1.373 1_556 S
C520 C522 1.389 . S
C521 H500 0.950 . S
C521 C520 1.373 1_554 S
C521 C537 1.377 . S
C522 C520 1.389 . S
C522 C523 1.524 . S
C522 C536 1.377 . S
C523 C522 1.524 . S
C523 C524 1.397 . S
C523 C528 1.363 . S
C524 H501 0.950 . S
C524 C523 1.397 . S
C524 C525 1.334 . S
C525 H502 0.950 . S
C525 C524 1.334 . S
C525 C526 1.287 . S
C526 C525 1.287 . S
C526 C527 1.524 . S
C526 H545 0.913 . S
C527 H503 0.950 . S
C527 C526 1.524 . S
C527 C528 1.415 . S
C528 H504 0.950 . S
C528 C523 1.363 . S
C528 C527 1.415 . S
C529 H505 0.951 . S
C529 C530 1.366 . S
C529 C531 1.388 . S
C530 C529 1.366 . S
C530 C534 1.385 1_554 S
C531 H506 0.951 . S
C531 C529 1.388 . S
C531 C532 1.366 . S
C532 C531 1.366 . S
C532 C533 1.414 1_554 S
C532 C535 1.499 . S
C533 H507 0.950 . S
C533 C532 1.414 1_556 S
C533 C534 1.374 . S
C534 H508 0.950 . S
C534 C530 1.385 1_556 S
C534 C533 1.374 . S
C535 C532 1.499 . S
C535 C536 1.373 1_554 S
C535 C537 1.389 . S
C536 H509 0.950 . S
C536 C522 1.377 . S
C536 C535 1.373 1_556 S
C537 C521 1.377 . S
C537 C535 1.389 . S
C537 C538 1.524 . S
C538 C537 1.524 . S
C538 C539 1.397 . S
C538 C543 1.363 . S
C539 H510 0.950 . S
C539 C538 1.397 . S
C539 C540 1.334 . S
C540 H511 0.950 . S
C540 C539 1.334 . S
C540 C541 1.287 . S
C541 C540 1.287 . S
C541 C542 1.524 . S
C541 H544 0.999 . S
C542 H512 0.950 . S
C542 C541 1.524 . S
C542 C543 1.415 . S
C543 H513 0.950 . S
C543 C538 1.363 . S
C543 C542 1.415 . S
H544 C541 0.999 . S
H545 C526 0.913 . S
H546 C564 0.951 . S
H547 C566 0.951 . S
H548 C568 0.950 . S
H549 C569 0.950 . S
H550 C571 0.950 . S
H551 C574 0.950 1_556 S
H552 C575 0.950 1_556 S
H553 C577 0.950 . S
H554 C578 0.950 . S
H555 C579 0.951 1_556 S
H556 C581 0.932 1_556 S
H557 C583 0.950 . S
H558 C584 0.950 . S
H559 C586 0.950 . S
H560 C589 0.950 . S
H561 C590 0.950 . S
H562 C592 0.950 . S
H563 C593 0.950 . S
C564 H546 0.951 . S
C564 C565 1.366 1_554 S
C564 C566 1.388 . S
C565 C564 1.366 1_556 S
C565 C569 1.385 . S
C566 H547 0.951 . S
C566 C564 1.388 . S
C566 C567 1.366 1_554 S
C567 C566 1.366 1_556 S
C567 C568 1.414 . S
C567 C570 1.499 1_556 S
C568 H548 0.950 . S
C568 C567 1.414 . S
C568 C569 1.374 . S
C569 H549 0.950 . S
C569 C565 1.385 . S
C569 C568 1.374 . S
C570 C567 1.499 1_554 S
C570 C571 1.373 1_554 S
C570 C572 1.389 . S
C571 H550 0.950 . S
C571 C570 1.373 1_556 S
C571 C587 1.377 1_556 S
C572 C570 1.389 . S
C572 C573 1.524 . S
C572 C586 1.377 . S
C573 C572 1.524 . S
C573 C574 1.397 . S
C573 C578 1.363 . S
C574 H551 0.950 1_554 S
C574 C573 1.397 . S
C574 C575 1.334 . S
C575 H552 0.950 1_554 S
C575 C574 1.334 . S
C575 C576 1.287 . S
C576 C575 1.287 . S
C576 C577 1.524 . S
C576 H595 0.913 . S
C577 H553 0.950 . S
C577 C576 1.524 . S
C577 C578 1.415 . S
C578 H554 0.950 . S
C578 C573 1.363 . S
C578 C577 1.415 . S
C579 H555 0.951 1_554 S
C579 C580 1.366 . S
C579 C581 1.390 . S
C580 C579 1.366 . S
C580 C584 1.385 . S
C581 H556 0.932 1_554 S
C581 C579 1.390 . S
C581 C582 1.382 . S
C582 C581 1.382 . S
C582 C583 1.414 . S
C582 C585 1.499 . S
C583 H557 0.950 . S
C583 C582 1.414 . S
C583 C584 1.374 . S
C584 H558 0.950 . S
C584 C580 1.385 . S
C584 C583 1.374 . S
C585 C582 1.499 . S
C585 C586 1.373 . S
C585 C587 1.389 . S
C586 H559 0.950 . S
C586 C572 1.377 . S
C586 C585 1.373 . S
C587 C571 1.377 1_554 S
C587 C585 1.389 . S
C587 C588 1.524 1_554 S
C588 C587 1.524 1_556 S
C588 C589 1.397 1_556 S
C588 C593 1.363 . S
C589 H560 0.950 . S
C589 C588 1.397 1_554 S
C589 C590 1.334 . S
C590 H561 0.950 . S
C590 C589 1.334 . S
C590 C591 1.287 1_554 S
C591 C590 1.287 1_556 S
C591 C592 1.524 . S
C591 H594 0.999 . S
C592 H562 0.950 . S
C592 C591 1.524 . S
C592 C593 1.415 . S
C593 H563 0.950 . S
C593 C588 1.363 . S
C593 C592 1.415 . S
H594 C591 0.999 . S
H595 C576 0.913 . S
H596 C614 0.951 1_554 S
H597 C616 0.951 1_554 S
H598 C618 0.950 . S
H599 C619 0.950 . S
H600 C621 0.950 . S
H601 C624 0.950 . S
H602 C625 0.950 . S
H603 C627 0.950 1_554 S
H604 C628 0.950 . S
H605 C629 0.951 . S
H606 C631 0.951 . S
H607 C633 0.950 . S
H608 C634 0.950 . S
H609 C636 0.950 . S
H610 C639 0.950 . S
H611 C640 0.950 . S
H612 C642 0.950 . S
H613 C643 0.950 . S
C614 H596 0.951 1_556 S
C614 C615 1.366 . S
C614 C616 1.388 . S
C615 C614 1.366 . S
C615 C619 1.385 . S
C616 H597 0.951 1_556 S
C616 C614 1.388 . S
C616 C617 1.366 . S
C617 C616 1.366 . S
C617 C618 1.414 . S
C617 C620 1.499 . S
C618 H598 0.950 . S
C618 C617 1.414 . S
C618 C619 1.374 . S
C619 H599 0.950 . S
C619 C615 1.385 . S
C619 C618 1.374 . S
C620 C617 1.499 . S
C620 C621 1.373 . S
C620 C622 1.389 . S
C621 H600 0.950 . S
C621 C620 1.373 . S
C621 C637 1.377 . S
C622 C620 1.389 . S
C622 C623 1.524 . S
C622 C636 1.377 . S
C623 C622 1.524 . S
C623 C624 1.397 . S
C623 C628 1.363 1_556 S
C624 H601 0.950 . S
C624 C623 1.397 . S
C624 C625 1.334 . S
C625 H602 0.950 . S
C625 C624 1.334 . S
C625 C626 1.287 . S
C626 C625 1.287 . S
C626 C627 1.524 . S
C626 H645 0.913 . S
C627 H603 0.950 1_556 S
C627 C626 1.524 . S
C627 C628 1.415 1_556 S
C628 H604 0.950 . S
C628 C623 1.363 1_554 S
C628 C627 1.415 1_554 S
C629 H605 0.951 . S
C629 C630 1.366 1_556 S
C629 C631 1.388 . S
C630 C629 1.366 1_554 S
C630 C634 1.385 . S
C631 H606 0.951 . S
C631 C629 1.388 . S
C631 C632 1.366 1_556 S
C632 C631 1.366 1_554 S
C632 C633 1.414 . S
C632 C635 1.499 1_554 S
C633 H607 0.950 . S
C633 C632 1.414 . S
C633 C634 1.374 . S
C634 H608 0.950 . S
C634 C630 1.385 . S
C634 C633 1.374 . S
C635 C632 1.499 1_556 S
C635 C636 1.373 . S
C635 C637 1.389 . S
C636 H609 0.950 . S
C636 C622 1.377 . S
C636 C635 1.373 . S
C637 C621 1.377 . S
C637 C635 1.389 . S
C637 C638 1.524 . S
C638 C637 1.524 . S
C638 C639 1.397 1_556 S
C638 C643 1.363 . S
C639 H610 0.950 . S
C639 C638 1.397 1_554 S
C639 C640 1.334 . S
C640 H611 0.950 . S
C640 C639 1.334 . S
C640 C641 1.287 . S
C641 C640 1.287 . S
C641 C642 1.524 1_554 S
C641 H644 0.999 . S
C642 H612 0.950 . S
C642 C641 1.524 1_556 S
C642 C643 1.415 . S
C643 H613 0.950 . S
C643 C638 1.363 . S
C643 C642 1.415 . S
H644 C641 0.999 . S
H645 C626 0.913 . S
H646 C664 0.951 . S
H647 C666 0.951 . S
H648 C668 0.950 . S
H649 C669 0.950 . S
H650 C671 0.950 . S
H651 C674 0.950 . S
H652 C675 0.950 . S
H653 C677 0.950 . S
H654 C678 0.950 . S
H655 C679 0.951 . S
H656 C681 0.951 . S
H657 C683 0.950 . S
H658 C684 0.950 . S
H659 C686 0.950 . S
H660 C689 0.950 . S
H661 C690 0.950 . S
H662 C692 0.950 . S
H663 C693 0.950 . S
C664 H646 0.951 . S
C664 C665 1.366 1_556 S
C664 C666 1.388 . S
C665 C664 1.366 1_554 S
C665 C669 1.385 . S
C666 H647 0.951 . S
C666 C664 1.388 . S
C666 C667 1.366 1_556 S
C667 C666 1.366 1_554 S
C667 C668 1.414 . S
C667 C670 1.499 . S
C668 H648 0.950 . S
C668 C667 1.414 . S
C668 C669 1.374 . S
C669 H649 0.950 . S
C669 C665 1.385 . S
C669 C668 1.374 . S
C670 C667 1.499 . S
C670 C671 1.373 . S
C670 C672 1.389 1_554 S
C671 H650 0.950 . S
C671 C670 1.373 . S
C671 C687 1.377 . S
C672 C670 1.389 1_556 S
C672 C673 1.524 . S
C672 C686 1.377 . S
C673 C672 1.524 . S
C673 C674 1.397 . S
C673 C678 1.363 . S
C674 H651 0.950 . S
C674 C673 1.397 . S
C674 C675 1.334 . S
C675 H652 0.950 . S
C675 C674 1.334 . S
C675 C676 1.287 . S
C676 C675 1.287 . S
C676 C677 1.524 . S
C676 H695 0.913 . S
C677 H653 0.950 . S
C677 C676 1.524 . S
C677 C678 1.415 . S
C678 H654 0.950 . S
C678 C673 1.363 . S
C678 C677 1.415 . S
C679 H655 0.951 . S
C679 C680 1.366 1_554 S
C679 C681 1.388 . S
C680 C679 1.366 1_556 S
C680 C684 1.385 . S
C681 H656 0.951 . S
C681 C679 1.388 . S
C681 C682 1.366 1_554 S
C682 C681 1.366 1_556 S
C682 C683 1.414 . S
C682 C685 1.499 . S
C683 H657 0.950 . S
C683 C682 1.414 . S
C683 C684 1.374 . S
C684 H658 0.950 . S
C684 C680 1.385 . S
C684 C683 1.374 . S
C685 C682 1.499 . S
C685 C686 1.373 . S
C685 C687 1.389 1_556 S
C686 H659 0.950 . S
C686 C672 1.377 . S
C686 C685 1.373 . S
C687 C671 1.377 . S
C687 C685 1.389 1_554 S
C687 C688 1.524 . S
C688 C687 1.524 . S
C688 C689 1.397 . S
C688 C693 1.363 . S
C689 H660 0.950 . S
C689 C688 1.397 . S
C689 C690 1.334 . S
C690 H661 0.950 . S
C690 C689 1.334 . S
C690 C691 1.287 . S
C691 C690 1.287 . S
C691 C692 1.524 . S
C691 H694 0.999 . S
C692 H662 0.950 . S
C692 C691 1.524 . S
C692 C693 1.415 . S
C693 H663 0.950 . S
C693 C688 1.363 . S
C693 C692 1.415 . S
H694 C691 0.999 . S
H695 C676 0.913 . S
C115 C84 2.130 . S
C130 C17 2.068 . S
C165 C22 0.856 1_545 S
C180 C51 0.843 . S
C215 C16 1.510 . S
C230 C81 1.473 . S
C265 C50 1.485 . S
C280 C19 1.440 . S
C315 C21 2.073 . S
C330 C80 2.135 . S
C365 C55 0.843 . S
C380 C18 0.853 1_565 S
C415 C85 1.472 . S
C430 C20 1.510 . S
C465 C54 1.486 . S
C480 C23 1.449 . S
C515 C82 2.093 . S
C530 C52 2.083 . S
C565 C83 0.817 . S
C580 C53 0.813 . S
C615 C49 0.812 . S
C630 C87 0.819 . S
C665 C86 2.094 . S
C680 C48 2.094 . S
