# Generated by pormake.
# Topology wjv, (5)-cn, num edge types: 1
# Building blocks:
#     Node 0, Type 0, BuildingBlock: XOMCOT_clean_sbu_0, # of connection points: 5
#     Node 1, Type 0, BuildingBlock: XOMCOT_clean_sbu_0, # of connection points: 5
#     Node 2, Type 0, BuildingBlock: XOMCOT_clean_sbu_0, # of connection points: 5
#     Node 3, Type 0, BuildingBlock: XOMCOT_clean_sbu_0, # of connection points: 5
#     Node 4, Type 0, BuildingBlock: XOMCOT_clean_sbu_0, # of connection points: 5
#     Node 5, Type 0, BuildingBlock: XOMCOT_clean_sbu_0, # of connection points: 5
#     Node 6, Type 0, BuildingBlock: XOMCOT_clean_sbu_0, # of connection points: 5
#     Node 7, Type 0, BuildingBlock: XOMCOT_clean_sbu_0, # of connection points: 5
#     Node 8, Type 0, BuildingBlock: XOMCOT_clean_sbu_0, # of connection points: 5
#     Node 9, Type 0, BuildingBlock: XOMCOT_clean_sbu_0, # of connection points: 5
#     Node 10, Type 0, BuildingBlock: XOMCOT_clean_sbu_0, # of connection points: 5
#     Node 11, Type 0, BuildingBlock: XOMCOT_clean_sbu_0, # of connection points: 5
#     Edge 12, Type (0, 0), BuildingBlock: TEMPAE_clean_linker_10, # of connection points: 2
#     Edge 13, Type (0, 0), BuildingBlock: TEMPAE_clean_linker_10, # of connection points: 2
#     Edge 14, Type (0, 0), BuildingBlock: TEMPAE_clean_linker_10, # of connection points: 2
#     Edge 15, Type (0, 0), BuildingBlock: TEMPAE_clean_linker_10, # of connection points: 2
#     Edge 16, Type (0, 0), BuildingBlock: TEMPAE_clean_linker_10, # of connection points: 2
#     Edge 17, Type (0, 0), BuildingBlock: TEMPAE_clean_linker_10, # of connection points: 2
#     Edge 18, Type (0, 0), BuildingBlock: TEMPAE_clean_linker_10, # of connection points: 2
#     Edge 19, Type (0, 0), BuildingBlock: TEMPAE_clean_linker_10, # of connection points: 2
#     Edge 20, Type (0, 0), BuildingBlock: TEMPAE_clean_linker_10, # of connection points: 2
#     Edge 21, Type (0, 0), BuildingBlock: TEMPAE_clean_linker_10, # of connection points: 2
#     Edge 22, Type (0, 0), BuildingBlock: TEMPAE_clean_linker_10, # of connection points: 2
#     Edge 23, Type (0, 0), BuildingBlock: TEMPAE_clean_linker_10, # of connection points: 2
#     Edge 24, Type (0, 0), BuildingBlock: TEMPAE_clean_linker_10, # of connection points: 2
#     Edge 25, Type (0, 0), BuildingBlock: TEMPAE_clean_linker_10, # of connection points: 2
#     Edge 26, Type (0, 0), BuildingBlock: TEMPAE_clean_linker_10, # of connection points: 2
#     Edge 27, Type (0, 0), BuildingBlock: TEMPAE_clean_linker_10, # of connection points: 2
#     Edge 28, Type (0, 0), BuildingBlock: TEMPAE_clean_linker_10, # of connection points: 2
#     Edge 29, Type (0, 0), BuildingBlock: TEMPAE_clean_linker_10, # of connection points: 2
#     Edge 30, Type (0, 0), BuildingBlock: TEMPAE_clean_linker_10, # of connection points: 2
#     Edge 31, Type (0, 0), BuildingBlock: TEMPAE_clean_linker_10, # of connection points: 2
#     Edge 32, Type (0, 0), BuildingBlock: TEMPAE_clean_linker_10, # of connection points: 2
#     Edge 33, Type (0, 0), BuildingBlock: TEMPAE_clean_linker_10, # of connection points: 2
#     Edge 34, Type (0, 0), BuildingBlock: TEMPAE_clean_linker_10, # of connection points: 2
#     Edge 35, Type (0, 0), BuildingBlock: TEMPAE_clean_linker_10, # of connection points: 2
#     Edge 36, Type (0, 0), BuildingBlock: TEMPAE_clean_linker_10, # of connection points: 2
#     Edge 37, Type (0, 0), BuildingBlock: TEMPAE_clean_linker_10, # of connection points: 2
#     Edge 38, Type (0, 0), BuildingBlock: TEMPAE_clean_linker_10, # of connection points: 2
#     Edge 39, Type (0, 0), BuildingBlock: TEMPAE_clean_linker_10, # of connection points: 2
#     Edge 40, Type (0, 0), BuildingBlock: TEMPAE_clean_linker_10, # of connection points: 2
#     Edge 41, Type (0, 0), BuildingBlock: TEMPAE_clean_linker_10, # of connection points: 2
# Relax obj value: 0.158
# Max RMSD: 0.187
# Mean RMSD: 0.187
data_MOF--net-wjv--node1-XOMCOT_clean_sbu_0--edge1-TEMPAE_clean_linker_10
_symmetry_space_group_name_H-M    P1
_symmetry_Int_Tables_number       1
_symmetry_cell_setting            triclinic
loop_
_symmetry_equiv_pos_as_xyz
'x, y, z'
_cell_length_a     37.590342
_cell_length_b     37.583021
_cell_length_c     51.156754
_cell_angle_alpha  90.023377
_cell_angle_beta   89.968487
_cell_angle_gamma 120.01321
loop_
_atom_site_label
_atom_site_type_symbol
_atom_site_fract_x
_atom_site_fract_y
_atom_site_fract_z
_atom_type_partial_charge
Co0 Co 0.20916 0.30449 0.18776 0.0
C1 C 0.19706 0.30744 0.12947 0.0
C2 C 0.18271 0.24805 0.14354 0.0
C3 C 0.17494 0.24509 0.11723 0.0
N4 N 0.19803 0.28739 0.15125 0.0
N5 N 0.18404 0.28241 0.10833 0.0
H6 H 0.20403 0.33892 0.12897 0.0
H7 H 0.17637 0.22271 0.15639 0.0
C8 C 0.25521 0.26049 0.17806 0.0
O9 O 0.27113 0.28397 0.15737 0.0
N10 N 0.21848 0.31952 0.22428 0.0
C11 C 0.2293 0.35651 0.23463 0.0
C12 C 0.23719 0.35575 0.26087 0.0
C13 C 0.2194 0.2966 0.24429 0.0
N14 N 0.23107 0.31811 0.26689 0.0
C15 C 0.27145 0.38139 0.16401 0.0
C16 C 0.33692 0.37999 0.18759 0.0
C17 C 0.34493 0.40991 0.16872 0.0
C18 C 0.31175 0.41167 0.15759 0.0
C19 C 0.29657 0.35102 0.19362 0.0
N20 N 0.26441 0.34976 0.18033 0.0
H21 H 0.24617 0.38379 0.15619 0.0
H22 H 0.29131 0.32876 0.20866 0.0
H23 H 0.23256 0.38257 0.22365 0.0
H24 H 0.21349 0.26546 0.24213 0.0
O25 O 0.17706 0.33183 0.18418 0.0
O26 O 0.15267 0.2666 0.19535 0.0
O27 O 0.23063 0.26535 0.19297 0.0
C28 C 0.14553 0.29639 0.19051 0.0
H29 H 0.16184 0.21718 0.10572 0.0
H30 H 0.24729 0.38117 0.27438 0.0
H31 H 0.36176 0.37894 0.19763 0.0
H32 H 0.31689 0.43568 0.14384 0.0
Co33 Co 0.9032 0.20732 0.51998 0.0
C34 C 0.88171 0.1892 0.46364 0.0
C35 C 0.92261 0.16874 0.47727 0.0
C36 C 0.91272 0.15676 0.4517 0.0
N37 N 0.90325 0.18902 0.48474 0.0
N38 N 0.88701 0.16952 0.44317 0.0
H39 H 0.86176 0.20225 0.46352 0.0
H40 H 0.9418 0.16222 0.48982 0.0
C41 C 0.99406 0.26261 0.52895 0.0
O42 O 0.98781 0.2908 0.53967 0.0
N43 N 0.90315 0.22379 0.55621 0.0
C44 C 0.87321 0.22674 0.56887 0.0
C45 C 0.88334 0.23464 0.5949 0.0
C46 C 0.9297 0.22737 0.57529 0.0
N47 N 0.91906 0.2352 0.59896 0.0
C48 C 0.88937 0.27638 0.51419 0.0
C49 C 0.95791 0.32268 0.48348 0.0
C50 C 0.93738 0.34167 0.49432 0.0
C51 C 0.9015 0.3174 0.50883 0.0
C52 C 0.94477 0.28168 0.48944 0.0
N53 N 0.91296 0.26012 0.50643 0.0
H54 H 0.86149 0.25814 0.52496 0.0
H55 H 0.96188 0.26803 0.48158 0.0
H56 H 0.84468 0.22137 0.56034 0.0
H57 H 0.9553 0.22239 0.57222 0.0
O58 O 0.84346 0.17555 0.5198 0.0
O59 O 0.88501 0.15267 0.53222 0.0
O60 O 0.96395 0.22835 0.52139 0.0
C61 C 0.84773 0.14506 0.52814 0.0
H62 H 0.92353 0.13984 0.44023 0.0
H63 H 0.86533 0.2391 0.60967 0.0
H64 H 0.98526 0.33987 0.4717 0.0
H65 H 0.88345 0.33025 0.51645 0.0
Co66 Co 0.68635 0.90335 0.85499 0.0
C67 C 0.68435 0.88695 0.79701 0.0
C68 C 0.7419 0.93657 0.81021 0.0
C69 C 0.74513 0.93095 0.78404 0.0
N70 N 0.70329 0.91023 0.81835 0.0
N71 N 0.7089 0.89987 0.77563 0.0
H72 H 0.65429 0.85992 0.79717 0.0
H73 H 0.76688 0.95742 0.8227 0.0
C74 C 0.72823 0.99368 0.84655 0.0
O75 O 0.70379 0.98637 0.82642 0.0
N76 N 0.6715 0.89647 0.89168 0.0
C77 C 0.63668 0.86637 0.90235 0.0
C78 C 0.63691 0.87404 0.92871 0.0
C79 C 0.69255 0.92186 0.91163 0.0
N80 N 0.67195 0.90919 0.93458 0.0
C81 C 0.61101 0.89147 0.82987 0.0
C82 C 0.6081 0.95228 0.85864 0.0
C83 C 0.57977 0.93329 0.83845 0.0
C84 C 0.58088 0.90198 0.82417 0.0
C85 C 0.63776 0.94135 0.86335 0.0
N86 N 0.64059 0.9129 0.84816 0.0
H87 H 0.60995 0.86585 0.81987 0.0
H88 H 0.65947 0.95704 0.87888 0.0
H89 H 0.61241 0.84109 0.89161 0.0
H90 H 0.72159 0.94989 0.90913 0.0
O91 O 0.65988 0.84398 0.85087 0.0
O92 O 0.72498 0.88564 0.86211 0.0
O93 O 0.72458 0.96396 0.86067 0.0
C94 C 0.69555 0.84854 0.85728 0.0
H95 H 0.77276 0.94716 0.77239 0.0
H96 H 0.61275 0.85515 0.94233 0.0
H97 H 0.60811 0.97631 0.87036 0.0
H98 H 0.55839 0.88547 0.80905 0.0
Co99 Co 0.78455 0.69676 0.18715 0.0
C100 C 0.79975 0.69461 0.13001 0.0
C101 C 0.81757 0.75515 0.14412 0.0
C102 C 0.82533 0.75752 0.11778 0.0
N103 N 0.80126 0.71578 0.15175 0.0
N104 N 0.814 0.71951 0.10882 0.0
H105 H 0.788 0.66179 0.12967 0.0
H106 H 0.82362 0.78049 0.15691 0.0
C107 C 0.72938 0.73203 0.19801 0.0
O108 O 0.70102 0.69764 0.20865 0.0
N109 N 0.76945 0.67965 0.2235 0.0
C110 C 0.76684 0.64652 0.23564 0.0
C111 C 0.75836 0.64761 0.26173 0.0
C112 C 0.76534 0.70176 0.24299 0.0
N113 N 0.75722 0.68232 0.2663 0.0
C114 C 0.7157 0.61379 0.18144 0.0
C115 C 0.66853 0.63597 0.15162 0.0
C116 C 0.65019 0.59616 0.16193 0.0
C117 C 0.6748 0.58463 0.17605 0.0
C118 C 0.70937 0.66411 0.15766 0.0
N119 N 0.73143 0.65376 0.17412 0.0
H120 H 0.73431 0.60421 0.19181 0.0
H121 H 0.72258 0.695 0.15013 0.0
H122 H 0.77264 0.6239 0.22669 0.0
H123 H 0.76883 0.73185 0.24039 0.0
O124 O 0.81634 0.66894 0.18564 0.0
O125 O 0.8396 0.73322 0.19867 0.0
O126 O 0.7633 0.73615 0.18985 0.0
C127 C 0.84703 0.70356 0.19397 0.0
H128 H 0.83911 0.78536 0.10621 0.0
H129 H 0.75472 0.62524 0.27637 0.0
H130 H 0.65096 0.64604 0.14017 0.0
H131 H 0.66232 0.55356 0.18331 0.0
Co132 Co 0.08907 0.78396 0.52133 0.0
C133 C 0.10897 0.79863 0.46372 0.0
C134 C 0.06738 0.81801 0.4773 0.0
C135 C 0.07705 0.83011 0.45178 0.0
N136 N 0.08678 0.79767 0.48488 0.0
N137 N 0.10308 0.81787 0.44329 0.0
H138 H 0.13117 0.7885 0.46348 0.0
H139 H 0.04886 0.82531 0.48996 0.0
C140 C 0.00033 0.74154 0.5082 0.0
O141 O 0.0092 0.72718 0.48727 0.0
N142 N 0.09116 0.77223 0.55786 0.0
C143 C 0.1153 0.75959 0.56905 0.0
C144 C 0.10458 0.75133 0.59504 0.0
C145 C 0.0664 0.77189 0.57708 0.0
N146 N 0.07367 0.75891 0.60008 0.0
C147 C 0.10379 0.72127 0.49802 0.0
C148 C 0.03357 0.65583 0.5188 0.0
C149 C 0.05703 0.64772 0.50118 0.0
C150 C 0.0935 0.68089 0.49145 0.0
C151 C 0.0452 0.69619 0.52501 0.0
N152 N 0.07808 0.72851 0.51312 0.0
H153 H 0.13265 0.74643 0.49141 0.0
H154 H 0.02712 0.70134 0.53931 0.0
H155 H 0.13808 0.75533 0.5588 0.0
H156 H 0.04319 0.78045 0.57411 0.0
O157 O 0.14888 0.81524 0.51967 0.0
O158 O 0.10821 0.84019 0.53004 0.0
O159 O 0.02854 0.7639 0.5245 0.0
C160 C 0.14517 0.84689 0.52605 0.0
H161 H 0.06665 0.84752 0.44046 0.0
H162 H 0.1175 0.73906 0.60882 0.0
H163 H 0.00643 0.63104 0.5279 0.0
H164 H 0.11351 0.67572 0.47874 0.0
Co165 Co 0.30108 0.09401 0.85538 0.0
C166 C 0.30388 0.11384 0.79785 0.0
C167 C 0.24342 0.07291 0.8125 0.0
C168 C 0.23997 0.08225 0.78707 0.0
N169 N 0.28349 0.09203 0.81932 0.0
N170 N 0.27792 0.10789 0.7779 0.0
H171 H 0.33625 0.13574 0.79701 0.0
H172 H 0.21813 0.0546 0.82556 0.0
C173 C 0.25404 0.00564 0.84195 0.0
O174 O 0.27676 0.01512 0.82073 0.0
N175 N 0.3165 0.09601 0.89158 0.0
C176 C 0.35364 0.12091 0.90216 0.0
C177 C 0.35261 0.11049 0.92809 0.0
C178 C 0.29326 0.07112 0.91112 0.0
N179 N 0.31465 0.07908 0.93368 0.0
C180 C 0.37623 0.10611 0.82974 0.0
C181 C 0.37071 0.0358 0.85086 0.0
C182 C 0.40054 0.0573 0.83185 0.0
C183 C 0.40447 0.09396 0.82199 0.0
C184 C 0.34379 0.04916 0.85813 0.0
N185 N 0.3444 0.08192 0.84606 0.0
H186 H 0.38045 0.1351 0.82301 0.0
H187 H 0.32153 0.03221 0.87318 0.0
H188 H 0.37986 0.14429 0.89158 0.0
H189 H 0.26182 0.04669 0.90862 0.0
O190 O 0.33055 0.15379 0.85378 0.0
O191 O 0.26522 0.11408 0.86522 0.0
O192 O 0.26006 0.0335 0.85862 0.0
C193 C 0.29585 0.1508 0.86106 0.0
H194 H 0.21169 0.07164 0.77623 0.0
H195 H 0.37799 0.12478 0.9417 0.0
H196 H 0.36818 0.0087 0.86013 0.0
H197 H 0.42867 0.11264 0.80828 0.0
Co198 Co 0.6884 0.78155 0.51465 0.0
C199 C 0.68519 0.79298 0.57314 0.0
C200 C 0.74521 0.81084 0.55846 0.0
C201 C 0.74832 0.81879 0.58474 0.0
N202 N 0.70553 0.79353 0.5511 0.0
N203 N 0.71061 0.80747 0.59407 0.0
H204 H 0.65308 0.78365 0.574 0.0
H205 H 0.77057 0.81829 0.54534 0.0
C206 C 0.73299 0.73638 0.52533 0.0
O207 O 0.71013 0.72137 0.54636 0.0
N208 N 0.67362 0.77134 0.47812 0.0
C209 C 0.63653 0.75886 0.46745 0.0
C210 C 0.63827 0.75101 0.44129 0.0
C211 C 0.6975 0.77139 0.45841 0.0
N212 N 0.67664 0.75873 0.43557 0.0
C213 C 0.61071 0.72014 0.53803 0.0
C214 C 0.61253 0.65371 0.51627 0.0
C215 C 0.58176 0.64638 0.53436 0.0
C216 C 0.57989 0.68007 0.54456 0.0
C217 C 0.64201 0.69383 0.51009 0.0
N218 N 0.64297 0.72652 0.52252 0.0
H219 H 0.6082 0.74581 0.54508 0.0
H220 H 0.66462 0.69849 0.49544 0.0
H221 H 0.60973 0.75423 0.47817 0.0
H222 H 0.72933 0.77988 0.46096 0.0
O223 O 0.6614 0.81411 0.51769 0.0
O224 O 0.72652 0.8378 0.50653 0.0
O225 O 0.7274 0.75994 0.50994 0.0
C226 C 0.69697 0.84535 0.5112 0.0
H227 H 0.77654 0.83346 0.59592 0.0
H228 H 0.61261 0.73883 0.42787 0.0
H229 H 0.61372 0.6285 0.50682 0.0
H230 H 0.55531 0.67552 0.55766 0.0
Co231 Co 0.90477 0.69376 0.84704 0.0
C232 C 0.88825 0.6909 0.90515 0.0
C233 C 0.93742 0.74878 0.89199 0.0
C234 C 0.93207 0.75169 0.91824 0.0
N235 N 0.91118 0.7102 0.88376 0.0
N236 N 0.9013 0.71525 0.92662 0.0
H237 H 0.86146 0.66067 0.90503 0.0
H238 H 0.95815 0.7739 0.87954 0.0
C239 C 0.99499 0.73515 0.85592 0.0
O240 O 0.9874 0.71076 0.87613 0.0
N241 N 0.89861 0.67958 0.8103 0.0
C242 C 0.87098 0.6435 0.79954 0.0
C243 C 0.87977 0.64445 0.77329 0.0
C244 C 0.92344 0.70217 0.79053 0.0
N245 N 0.9129 0.6813 0.76768 0.0
C246 C 0.89136 0.61753 0.87153 0.0
C247 C 0.95281 0.61474 0.84345 0.0
C248 C 0.93276 0.5858 0.86319 0.0
C249 C 0.90115 0.58686 0.87712 0.0
C250 C 0.94258 0.64493 0.83887 0.0
N251 N 0.91381 0.64767 0.85377 0.0
H252 H 0.8654 0.61639 0.88111 0.0
H253 H 0.95882 0.66695 0.82356 0.0
H254 H 0.84707 0.61783 0.81022 0.0
H255 H 0.94989 0.73248 0.79306 0.0
O256 O 0.84536 0.66749 0.85065 0.0
O257 O 0.88747 0.73274 0.84001 0.0
O258 O 0.96545 0.73172 0.84172 0.0
C259 C 0.85019 0.70335 0.84445 0.0
H260 H 0.94834 0.77919 0.92999 0.0
H261 H 0.8634 0.61961 0.75952 0.0
H262 H 0.97701 0.61469 0.83197 0.0
H263 H 0.88381 0.56388 0.89182 0.0
Co264 Co 0.20976 0.90577 0.18036 0.0
C265 C 0.1969 0.8864 0.23806 0.0
C266 C 0.18034 0.93055 0.22541 0.0
C267 C 0.16895 0.92123 0.25107 0.0
N268 N 0.19856 0.90938 0.21716 0.0
N269 N 0.17944 0.89361 0.25896 0.0
H270 H 0.2049 0.8626 0.23773 0.0
H271 H 0.17369 0.94991 0.21311 0.0
C272 C 0.25498 0.99496 0.19248 0.0
O273 O 0.27053 0.98613 0.21281 0.0
N274 N 0.21895 0.90226 0.14354 0.0
C275 C 0.22913 0.87639 0.13203 0.0
C276 C 0.23654 0.88643 0.10592 0.0
C277 C 0.21989 0.92737 0.12439 0.0
N278 N 0.23091 0.91865 0.10113 0.0
C279 C 0.27263 0.88985 0.2019 0.0
C280 C 0.3372 0.9559 0.17698 0.0
C281 C 0.3459 0.93166 0.19354 0.0
C282 C 0.31299 0.89796 0.206 0.0
C283 C 0.29689 0.94691 0.17361 0.0
N284 N 0.2652 0.91556 0.18698 0.0
H285 H 0.24755 0.86224 0.20996 0.0
H286 H 0.29126 0.96536 0.15991 0.0
H287 H 0.23243 0.85292 0.14213 0.0
H288 H 0.21331 0.95195 0.12758 0.0
O289 O 0.17751 0.84606 0.18258 0.0
O290 O 0.15334 0.88768 0.17309 0.0
O291 O 0.231 0.96651 0.17681 0.0
C292 C 0.14608 0.85048 0.17688 0.0
H293 H 0.15298 0.93279 0.26284 0.0
H294 H 0.24704 0.87219 0.09185 0.0
H295 H 0.36144 0.98195 0.16669 0.0
H296 H 0.31828 0.87748 0.21817 0.0
Co297 Co 0.29382 0.20674 0.51437 0.0
C298 C 0.29726 0.18976 0.57087 0.0
C299 C 0.23558 0.16539 0.55658 0.0
C300 C 0.2337 0.15364 0.58219 0.0
N301 N 0.2753 0.18791 0.5495 0.0
N302 N 0.27238 0.16897 0.59111 0.0
H303 H 0.33046 0.20481 0.57136 0.0
H304 H 0.20977 0.15716 0.54372 0.0
C305 C 0.25698 0.26089 0.50555 0.0
O306 O 0.29159 0.28965 0.49532 0.0
N307 N 0.31055 0.2238 0.47825 0.0
C308 C 0.344 0.22793 0.4657 0.0
C309 C 0.34197 0.23641 0.43975 0.0
C310 C 0.2875 0.22723 0.45918 0.0
N311 N 0.30641 0.23616 0.43563 0.0
C312 C 0.37617 0.27616 0.52085 0.0
C313 C 0.35297 0.32195 0.55129 0.0
C314 C 0.39271 0.34117 0.54077 0.0
C315 C 0.4048 0.31715 0.52643 0.0
C316 C 0.32537 0.28094 0.54511 0.0
N317 N 0.33613 0.25969 0.5282 0.0
H318 H 0.38618 0.25807 0.51025 0.0
H319 H 0.29447 0.26703 0.55277 0.0
H320 H 0.36749 0.22308 0.47421 0.0
H321 H 0.25663 0.22147 0.46217 0.0
O322 O 0.32283 0.17603 0.51458 0.0
O323 O 0.25834 0.15195 0.50189 0.0
O324 O 0.25319 0.22668 0.51289 0.0
C325 C 0.28849 0.1451 0.50613 0.0
H326 H 0.20604 0.13509 0.59343 0.0
H327 H 0.36492 0.24191 0.4251 0.0
H328 H 0.34249 0.33895 0.56299 0.0
H329 H 0.43589 0.33018 0.5191 0.0
Co330 Co 0.08702 0.30118 0.84695 0.0
C331 C 0.10356 0.30394 0.90515 0.0
C332 C 0.06241 0.24368 0.89038 0.0
C333 C 0.06799 0.24052 0.91657 0.0
N334 N 0.08358 0.28354 0.88319 0.0
N335 N 0.09373 0.27839 0.92592 0.0
H336 H 0.12569 0.33623 0.90608 0.0
H337 H 0.04467 0.2183 0.87725 0.0
C338 C -0.00186 0.25481 0.8592 0.0
O339 O 0.00714 0.27791 0.88021 0.0
N340 N 0.09039 0.31677 0.81063 0.0
C341 C 0.11522 0.35426 0.80046 0.0
C342 C 0.10553 0.35374 0.77443 0.0
C343 C 0.06629 0.29378 0.79072 0.0
N344 N 0.0747 0.31574 0.76836 0.0
C345 C 0.09967 0.37682 0.87189 0.0
C346 C 0.03006 0.37213 0.85027 0.0
C347 C 0.05163 0.40198 0.86927 0.0
C348 C 0.08797 0.4055 0.87936 0.0
C349 C 0.043 0.34475 0.84329 0.0
N350 N 0.07531 0.34492 0.85568 0.0
H351 H 0.12846 0.38071 0.87878 0.0
H352 H 0.0261 0.32251 0.82822 0.0
H353 H 0.13789 0.38045 0.81142 0.0
H354 H 0.04196 0.26219 0.7928 0.0
O355 O 0.14666 0.33033 0.84932 0.0
O356 O 0.10712 0.26501 0.83782 0.0
O357 O 0.02645 0.2605 0.84297 0.0
C358 C 0.14378 0.29559 0.84228 0.0
H359 H 0.05527 0.21225 0.92767 0.0
H360 H 0.11976 0.37951 0.7611 0.0
H361 H 0.00325 0.36995 0.8408 0.0
H362 H 0.10674 0.4297 0.89304 0.0
Co363 Co 0.78858 0.0928 0.17926 0.0
C364 C 0.80338 0.11185 0.23605 0.0
C365 C 0.83413 0.08077 0.22129 0.0
C366 C 0.84555 0.09134 0.24685 0.0
N367 N 0.80771 0.09354 0.21447 0.0
N368 N 0.82631 0.11085 0.25608 0.0
H369 H 0.78534 0.12701 0.23674 0.0
H370 H 0.84581 0.06635 0.20831 0.0
C371 C 0.79104 0.01701 0.16917 0.0
O372 O 0.82801 0.04046 0.15959 0.0
N373 N 0.77036 0.09191 0.14342 0.0
C374 C 0.77633 0.12445 0.12893 0.0
C375 C 0.76382 0.11168 0.10368 0.0
C376 C 0.75401 0.05977 0.12663 0.0
N377 N 0.75002 0.07099 0.10217 0.0
C378 C 0.71583 0.09954 0.18377 0.0
C379 C 0.67288 0.03014 0.21447 0.0
C380 C 0.65179 0.04877 0.2039 0.0
C381 C 0.67423 0.08481 0.18908 0.0
C382 C 0.71424 0.04558 0.20847 0.0
N383 N 0.73469 0.07881 0.19241 0.0
H384 H 0.73243 0.12652 0.1717 0.0
H385 H 0.72949 0.02985 0.21606 0.0
H386 H 0.79002 0.15573 0.13586 0.0
H387 H 0.74555 0.02876 0.13197 0.0
O388 O 0.81696 0.15274 0.18036 0.0
O389 O 0.84386 0.11533 0.16678 0.0
O390 O 0.76983 0.03275 0.17706 0.0
C391 C 0.84885 0.15141 0.17157 0.0
H392 H 0.86688 0.08567 0.25778 0.0
H393 H 0.76647 0.13135 0.08747 0.0
H394 H 0.65731 0.00309 0.2267 0.0
H395 H 0.65942 0.10041 0.18053 0.0
C396 C 0.30833 0.24136 0.38725 0.0
C397 C 0.29201 0.24436 0.41133 0.0
C398 C 0.29662 0.25178 0.36368 0.0
C399 C 0.26742 0.26508 0.36401 0.0
C400 C 0.24984 0.26701 0.38808 0.0
C401 C 0.26251 0.25691 0.41141 0.0
C402 C 0.31628 0.24947 0.33846 0.0
C403 C 0.21832 0.28067 0.38927 0.0
C404 C 0.27048 0.33312 0.30799 0.0
C405 C 0.23911 0.30491 0.2916 0.0
C406 C 0.27976 0.32059 0.33164 0.0
C407 C 0.25684 0.27883 0.33931 0.0
C408 C 0.22469 0.25027 0.32304 0.0
C409 C 0.21639 0.26361 0.29931 0.0
C410 C 0.31467 0.35195 0.3482 0.0
C411 C 0.19918 0.20561 0.33066 0.0
H412 H 0.33051 0.23104 0.38672 0.0
H413 H 0.24996 0.25992 0.42978 0.0
H414 H 0.29231 0.22933 0.32426 0.0
H415 H 0.33358 0.28048 0.32953 0.0
H416 H 0.3377 0.23753 0.34141 0.0
H417 H 0.20551 0.27781 0.40924 0.0
H418 H 0.23251 0.31322 0.38302 0.0
H419 H 0.1927 0.26217 0.3756 0.0
H420 H 0.28858 0.36493 0.30199 0.0
H421 H 0.19186 0.24177 0.28685 0.0
H422 H 0.33854 0.34302 0.35035 0.0
H423 H 0.30342 0.3529 0.36809 0.0
H424 H 0.32914 0.3833 0.33966 0.0
H425 H 0.21909 0.19172 0.3323 0.0
H426 H 0.17445 0.18759 0.31629 0.0
H427 H 0.185 0.20295 0.35012 0.0
C428 C 0.98373 0.25721 0.62343 0.0
C429 C 0.94132 0.24299 0.62336 0.0
C430 C 0.00614 0.26704 0.64691 0.0
C431 C 0.98584 0.26304 0.67098 0.0
C432 C 0.94297 0.24796 0.67114 0.0
C433 C 0.92126 0.23793 0.64741 0.0
C434 C 0.05176 0.28271 0.64588 0.0
C435 C 0.92015 0.24336 0.69636 0.0
C436 C 0.03616 0.26164 0.73542 0.0
C437 C 0.05312 0.30251 0.74376 0.0
C438 C 0.01475 0.24843 0.71159 0.0
C439 C 0.00969 0.27664 0.69589 0.0
C440 C 0.02672 0.31792 0.70426 0.0
C441 C 0.04836 0.33036 0.72797 0.0
C442 C -0.00247 0.2043 0.70322 0.0
C443 C 0.02153 0.34886 0.68834 0.0
H444 H -0.0002 0.26176 0.60507 0.0
H445 H 0.88849 0.22631 0.64778 0.0
H446 H 0.06879 0.31504 0.65272 0.0
H447 H 0.05978 0.26446 0.65917 0.0
H448 H 0.06242 0.28133 0.62583 0.0
H449 H 0.8866 0.22997 0.69325 0.0
H450 H 0.92504 0.22347 0.71017 0.0
H451 H 0.9323 0.27384 0.70582 0.0
H452 H 0.04008 0.2401 0.74741 0.0
H453 H 0.06079 0.3618 0.73447 0.0
H454 H 0.00991 0.20311 0.68375 0.0
H455 H 0.96365 0.18915 0.70129 0.0
H456 H 0.00497 0.18648 0.7173 0.0
H457 H 0.03437 0.35141 0.66845 0.0
H458 H 0.03691 0.37985 0.69746 0.0
H459 H 0.98838 0.33841 0.68606 0.0
C460 C 0.65387 0.9211 0.97919 0.0
C461 C 0.68342 0.93041 0.95953 0.0
C462 C 0.66419 0.94246 1.00307 0.0
C463 C 0.70499 0.97441 1.00746 0.0
C464 C 0.73511 0.9838 0.98793 0.0
C465 C 0.72408 0.96156 0.96435 0.0
C466 C 0.6312 0.93123 0.02348 0.0
C467 C 0.77895 0.0178 0.99177 0.0
C468 C 0.7226 0.05727 0.05702 0.0
C469 C 0.73734 0.04586 0.07881 0.0
C470 C 0.712 0.03433 0.03375 0.0
C471 C 0.71585 -0.00121 0.03217 0.0
C472 C 0.73012 0.98668 0.05416 0.0
C473 C 0.74081 0.01039 0.07713 0.0
C474 C 0.69694 0.04835 1.01075 0.0
C475 C 0.73448 0.94888 0.05334 0.0
H476 H 0.6223 0.89763 0.97587 0.0
H477 H 0.7475 0.96879 0.94972 0.0
H478 H 0.64094 0.92413 0.04231 0.0
H479 H 0.62645 0.95769 0.02697 0.0
H480 H 0.60141 0.90433 1.01761 0.0
H481 H 0.79885 0.02103 0.97482 0.0
H482 H 0.77979 0.04745 0.99477 0.0
H483 H 0.79204 0.01185 1.00955 0.0
H484 H 0.71919 0.08417 0.05813 0.0
H485 H 0.75272 0.00149 0.09358 0.0
H486 H 0.66573 0.02382 1.00502 0.0
H487 H 0.71738 0.05425 0.99368 0.0
H488 H 0.69584 0.07675 1.01508 0.0
H489 H 0.70467 0.92157 0.04807 0.0
H490 H 0.74484 0.94291 0.07234 0.0
H491 H 0.75696 0.95247 0.03804 0.0
C492 C 0.72142 0.66593 0.30887 0.0
C493 C 0.74807 0.69525 0.29079 0.0
C494 C 0.71097 0.67775 0.3324 0.0
C495 C 0.72786 0.72002 0.33823 0.0
C496 C 0.75516 0.74984 0.32021 0.0
C497 C 0.76475 0.73711 0.29666 0.0
C498 C 0.68133 0.64492 0.35088 0.0
C499 C 0.77421 0.79519 0.32579 0.0
C500 C 0.66986 0.74802 0.38754 0.0
C501 C 0.69103 0.75149 0.4109 0.0
C502 C 0.6819 0.7385 0.36373 0.0
C503 C 0.71637 0.73277 0.36304 0.0
C504 C 0.73869 0.73744 0.3863 0.0
C505 C 0.72565 0.74646 0.40991 0.0
C506 C 0.65712 0.73363 0.3394 0.0
C507 C 0.77585 0.73198 0.3864 0.0
H508 H 0.70789 0.63358 0.30432 0.0
H509 H 0.78571 0.75996 0.28297 0.0
H510 H 0.69593 0.6485 0.37027 0.0
H511 H 0.65391 0.64828 0.35381 0.0
H512 H 0.67105 0.61342 0.34354 0.0
H513 H 0.79542 0.81448 0.31001 0.0
H514 H 0.7498 0.80334 0.32809 0.0
H515 H 0.79149 0.80282 0.34447 0.0
H516 H 0.64361 0.75253 0.38779 0.0
H517 H 0.74218 0.74852 0.42767 0.0
H518 H 0.64369 0.70179 0.33186 0.0
H519 H 0.67728 0.75456 0.32384 0.0
H520 H 0.63181 0.74017 0.34303 0.0
H521 H 0.76645 0.69971 0.38144 0.0
H522 H 0.79156 0.73947 0.40567 0.0
H523 H 0.79815 0.75185 0.37129 0.0
C524 C 0.06881 0.74991 0.64818 0.0
C525 C 0.05111 0.75144 0.62433 0.0
C526 C 0.04649 0.74026 0.67168 0.0
C527 C 0.00545 0.73222 0.67149 0.0
C528 C 0.98772 0.73484 0.64767 0.0
C529 C 0.01064 0.74422 0.62442 0.0
C530 C 0.06658 0.73781 0.69664 0.0
C531 C 0.94413 0.72671 0.64663 0.0
C532 C 0.93471 0.66497 0.7259 0.0
C533 C 0.93493 0.69411 0.74317 0.0
C534 C 0.95724 0.67697 0.70248 0.0
C535 C 0.98053 0.71921 0.696 0.0
C536 C 0.98054 0.7488 0.71316 0.0
C537 C 0.95785 0.73591 0.73655 0.0
C538 C 0.95666 0.64443 0.68486 0.0
C539 C 0.00468 0.79409 0.70688 0.0
H540 H 0.1002 0.75611 0.64851 0.0
H541 H -0.0037 0.74478 0.60621 0.0
H542 H 0.06543 0.75857 0.71161 0.0
H543 H 0.04952 0.70612 0.7046 0.0
H544 H 0.09914 0.74621 0.69366 0.0
H545 H 0.93575 0.73263 0.62693 0.0
H546 H 0.92253 0.69424 0.65195 0.0
H547 H 0.93983 0.74629 0.66106 0.0
H548 H 0.91771 0.6327 0.73099 0.0
H549 H 0.95785 0.75859 0.74961 0.0
H550 H 0.98824 0.64949 0.68272 0.0
H551 H 0.94587 0.64659 0.66506 0.0
H552 H 0.93646 0.61287 0.69248 0.0
H553 H 0.03782 0.80416 0.7052 0.0
H554 H 0.00085 0.81314 0.722 0.0
H555 H 0.99477 0.8 0.68773 0.0
C556 C 0.32883 0.05398 0.97482 0.0
C557 C 0.30082 0.05676 0.95802 0.0
C558 C 0.3158 0.03152 0.99822 0.0
C559 C 0.27369 0.01134 1.00512 0.0
C560 C 0.24525 0.01429 0.9884 0.0
C561 C 0.25913 0.03686 0.96504 0.0
C562 C 0.3471 0.02892 1.01539 0.0
C563 C 0.20014 0.99348 0.99516 0.0
C564 C 0.23772 0.92237 0.05293 0.0
C565 C 0.23882 0.94118 0.07687 0.0
C566 C 0.24806 0.94457 0.02938 0.0
C567 C 0.25954 0.98665 0.02966 0.0
C568 C 0.25949 0.00556 0.05359 0.0
C569 C 0.24929 0.98269 0.07688 0.0
C570 C 0.24765 0.92322 1.00428 0.0
C571 C 0.27136 0.05031 0.05473 0.0
H572 H 0.36094 0.06864 0.96941 0.0
H573 H 0.23737 0.03924 0.95235 0.0
H574 H 0.34666 0.04052 0.03526 0.0
H575 H 0.33919 0.99638 1.01746 0.0
H576 H 0.37877 0.04685 1.00743 0.0
H577 H 0.18208 -0.00077 0.98029 0.0
H578 H 0.18743 0.95983 0.99688 0.0
H579 H 0.19598 0.00455 1.0144 0.0
H580 H 0.22899 0.89021 0.05257 0.0
H581 H 0.25075 -0.00219 0.09518 0.0
H582 H 0.27913 0.9378 0.99599 0.0
H583 H 0.22782 0.92656 0.98959 0.0
H584 H 0.23642 0.88997 1.0072 0.0
H585 H 0.30412 0.06976 0.04918 0.0
H586 H 0.26689 0.05965 0.07452 0.0
H587 H 0.25294 0.05666 0.04052 0.0
C588 C 0.14854 0.31968 0.958 0.0
C589 C 0.1085 0.28807 0.95246 0.0
C590 C 0.16428 0.32598 0.98362 0.0
C591 C 0.13935 0.30004 1.00407 0.0
C592 C 0.09823 0.26959 0.99875 0.0
C593 C 0.08337 0.26407 0.97309 0.0
C594 C 0.20816 0.35899 0.98853 0.0
C595 C 0.07044 0.24132 0.01993 0.0
C596 C 0.18375 0.27079 0.06103 0.0
C597 C 0.17816 0.2917 0.08188 0.0
C598 C 0.17343 0.27515 0.03538 0.0
C599 C 0.15702 0.30113 0.03035 0.0
C600 C 0.15347 0.32422 0.05109 0.0
C601 C 0.16415 0.31926 0.07667 0.0
C602 C 0.17801 0.25011 1.0139 0.0
C603 C 0.13635 0.35243 0.04651 0.0
H604 H 0.16815 0.33828 0.94216 0.0
H605 H 0.05211 0.24025 0.96903 0.0
H606 H 0.21017 0.37715 1.00614 0.0
H607 H 0.22715 0.34451 0.99226 0.0
H608 H 0.22148 0.38018 0.97162 0.0
H609 H 0.03839 0.22148 1.01302 0.0
H610 H 0.08234 0.22126 0.02685 0.0
H611 H 0.07006 0.25942 0.03695 0.0
H612 H 0.19537 0.25012 0.06493 0.0
H613 H 0.15966 0.33541 0.09273 0.0
H614 H 0.19492 0.27006 0.99708 0.0
H615 H 0.14717 0.22667 1.00677 0.0
H616 H 0.19449 0.23415 0.02062 0.0
H617 H 0.15081 0.37201 0.02909 0.0
H618 H 0.14108 0.37251 0.06364 0.0
H619 H 0.10289 0.33381 0.04262 0.0
C620 C 0.79701 0.12039 0.29689 0.0
C621 C 0.83124 0.12788 0.28189 0.0
C622 C 0.80124 0.13054 0.32366 0.0
C623 C 0.84069 0.14898 0.33539 0.0
C624 C 0.87561 0.15946 0.31968 0.0
C625 C 0.87038 0.1485 0.2932 0.0
C626 C 0.76327 0.11889 0.33968 0.0
C627 C 0.91832 0.17972 0.33118 0.0
C628 C 0.86628 0.1936 0.40418 0.0
C629 C 0.86916 0.16253 0.41746 0.0
C630 C 0.85466 0.18892 0.37767 0.0
C631 C 0.84544 0.15217 0.36437 0.0
C632 C 0.84562 0.11972 0.37833 0.0
C633 C 0.85764 0.1254 0.40461 0.0
C634 C 0.85478 0.22419 0.36353 0.0
C635 C 0.83548 0.07978 0.36511 0.0
H636 H 0.76675 0.10433 0.28808 0.0
H637 H 0.89686 0.15479 0.2814 0.0
H638 H 0.75607 0.09163 0.35183 0.0
H639 H 0.76843 0.14415 0.35317 0.0
H640 H 0.73622 0.11127 0.32718 0.0
H641 H 0.94245 0.19013 0.31586 0.0
H642 H 0.92405 0.20657 0.34328 0.0
H643 H 0.92124 0.15762 0.34412 0.0
H644 H 0.87525 0.22234 0.41412 0.0
H645 H 0.85911 0.10109 0.41504 0.0
H646 H 0.82705 0.21302 0.35109 0.0
H647 H 0.88196 0.23914 0.35048 0.0
H648 H 0.85608 0.24767 0.37731 0.0
H649 H 0.80611 0.06727 0.35424 0.0
H650 H 0.83297 0.05623 0.37928 0.0
H651 H 0.85986 0.08536 0.35074 0.0
C652 C 0.67291 0.84138 0.74485 0.0
C653 C 0.7002 0.88327 0.74944 0.0
C654 C 0.66761 0.82474 0.71952 0.0
C655 C 0.69027 0.85057 0.69838 0.0
C656 C 0.71629 0.89317 0.70277 0.0
C657 C 0.72076 0.90892 0.72814 0.0
C658 C 0.63922 0.77925 0.71559 0.0
C659 C 0.74103 0.92193 0.68086 0.0
C660 C 0.7253 0.81165 0.64123 0.0
C661 C 0.70121 0.8128 0.62067 0.0
C662 C 0.72049 0.82177 0.66685 0.0
C663 C 0.69052 0.83306 0.67225 0.0
C664 C 0.6643 0.83183 0.65192 0.0
C665 C 0.67001 0.82179 0.62631 0.0
C666 C 0.74912 0.82258 0.68786 0.0
C667 C 0.63164 0.84316 0.65693 0.0
H668 H 0.65695 0.8213 0.76116 0.0
H669 H 0.74108 0.94146 0.73141 0.0
H670 H 0.61909 0.77362 0.6984 0.0
H671 H 0.65762 0.7642 0.71165 0.0
H672 H 0.61967 0.7645 0.73302 0.0
H673 H 0.75773 0.95459 0.68718 0.0
H674 H 0.76382 0.91373 0.67355 0.0
H675 H 0.72071 0.91879 0.66425 0.0
H676 H 0.74877 0.80374 0.63713 0.0
H677 H 0.6513 0.82281 0.61057 0.0
H678 H 0.73136 0.80469 0.70514 0.0
H679 H 0.76955 0.85471 0.69439 0.0
H680 H 0.76857 0.80992 0.68094 0.0
H681 H 0.61394 0.82769 0.67482 0.0
H682 H 0.61 0.83483 0.64025 0.0
H683 H 0.64639 0.87677 0.66022 0.0
C684 C 0.84335 0.67903 0.95775 0.0
C685 C 0.88518 0.7062 0.95292 0.0
C686 C 0.82714 0.67373 0.98322 0.0
C687 C 0.85337 0.69626 1.00423 0.0
C688 C 0.89594 0.72201 0.99959 0.0
C689 C 0.91124 0.72648 0.9741 0.0
C690 C 0.78169 0.64559 0.9874 0.0
C691 C 0.92513 0.74658 0.02136 0.0
C692 C 0.81647 0.73297 0.06154 0.0
C693 C 0.81797 0.70919 0.08219 0.0
C694 C 0.82567 0.72741 0.03584 0.0
C695 C 0.83634 0.69699 0.03045 0.0
C696 C 0.83524 0.67096 0.05087 0.0
C697 C 0.82614 0.67743 0.07656 0.0
C698 C 0.82632 0.75584 1.01473 0.0
C699 C 0.84583 0.63777 0.04587 0.0
H700 H 0.82298 0.66325 0.94153 0.0
H701 H 0.94375 0.74668 0.97062 0.0
H702 H 0.77612 0.62577 1.00476 0.0
H703 H 0.76683 0.66421 0.99118 0.0
H704 H 0.76669 0.62573 0.97013 0.0
H705 H 0.9577 0.7629 1.01485 0.0
H706 H 0.91743 0.76969 0.02874 0.0
H707 H 0.92194 0.72621 0.03795 0.0
H708 H 0.80907 0.75681 0.06561 0.0
H709 H 0.82732 0.6589 0.09238 0.0
H710 H 0.808 0.73791 0.99763 0.0
H711 H 0.85836 0.77596 1.00793 0.0
H712 H 0.81407 0.77563 0.02168 0.0
H713 H 0.83012 0.62011 0.02802 0.0
H714 H 0.83724 0.61616 0.0626 0.0
H715 H 0.87939 0.65204 0.04254 0.0
C716 C 0.12106 0.79488 0.40281 0.0
C717 C 0.12216 0.82644 0.41797 0.0
C718 C 0.13356 0.80169 0.37645 0.0
C719 C 0.14815 0.84117 0.36536 0.0
C720 C 0.15193 0.87374 0.38128 0.0
C721 C 0.13846 0.86583 0.40729 0.0
C722 C 0.12863 0.76608 0.36011 0.0
C723 C 0.16811 0.91651 0.37049 0.0
C724 C 0.20156 0.87455 0.29931 0.0
C725 C 0.17036 0.87402 0.28411 0.0
C726 C 0.19443 0.86193 0.32563 0.0
C727 C 0.15497 0.84781 0.33664 0.0
C728 C 0.1227 0.84452 0.32064 0.0
C729 C 0.13095 0.85813 0.29467 0.0
C730 C 0.22974 0.86636 0.34206 0.0
C731 C 0.07995 0.82884 0.33133 0.0
H732 H 0.1082 0.7644 0.41115 0.0
H733 H 0.13965 0.89024 0.41923 0.0
H734 H 0.10265 0.75675 0.34633 0.0
H735 H 0.15658 0.77513 0.34825 0.0
H736 H 0.12233 0.73908 0.3723 0.0
H737 H 0.17354 0.93925 0.3861 0.0
H738 H 0.1973 0.92666 0.35978 0.0
H739 H 0.14564 0.91645 0.3564 0.0
H740 H 0.23207 0.88714 0.29104 0.0
H741 H 0.10685 0.85748 0.28269 0.0
H742 H 0.22024 0.83837 0.35397 0.0
H743 H 0.23938 0.89246 0.35579 0.0
H744 H 0.25665 0.8722 0.32992 0.0
H745 H 0.06943 0.79965 0.34212 0.0
H746 H 0.05738 0.82358 0.31565 0.0
H747 H 0.08023 0.85154 0.34533 0.0
C748 C 0.31861 0.12529 0.73731 0.0
C749 C 0.28757 0.12574 0.75221 0.0
C750 C 0.32354 0.1363 0.7107 0.0
C751 C 0.29721 0.14863 0.69904 0.0
C752 C 0.26786 0.15195 0.71464 0.0
C753 C 0.26316 0.14008 0.74095 0.0
C754 C 0.35497 0.13205 0.69474 0.0
C755 C 0.23967 0.1657 0.7032 0.0
C756 C 0.31352 0.19633 0.6313 0.0
C757 C 0.28358 0.16307 0.61693 0.0
C758 C 0.31996 0.19185 0.65792 0.0
C759 C 0.29632 0.15305 0.67013 0.0
C760 C 0.26806 0.11885 0.65509 0.0
C761 C 0.26179 0.12441 0.62877 0.0
C762 C 0.35011 0.2291 0.67329 0.0
C763 C 0.24275 0.07675 0.66713 0.0
H764 H 0.33731 0.114 0.74608 0.0
H765 H 0.23955 0.1409 0.75267 0.0
H766 H 0.33903 0.1049 0.68172 0.0
H767 H 0.37256 0.15935 0.68209 0.0
H768 H 0.37683 0.128 0.70726 0.0
H769 H 0.22207 0.17128 0.71853 0.0
H770 H 0.25754 0.1943 0.69169 0.0
H771 H 0.21751 0.14174 0.68971 0.0
H772 H 0.33017 0.22624 0.62208 0.0
H773 H 0.23903 0.09865 0.61747 0.0
H774 H 0.36988 0.22182 0.68563 0.0
H775 H 0.33302 0.23863 0.68657 0.0
H776 H 0.36999 0.25543 0.66037 0.0
H777 H 0.26273 0.06825 0.67825 0.0
H778 H 0.22556 0.05268 0.6522 0.0
H779 H 0.22031 0.07708 0.6811 0.0
C780 C 0.58236 0.547 0.18175 0.0
C781 C 0.60517 0.56806 0.15961 0.0
C782 C 0.53947 0.52253 0.18067 0.0
C783 C 0.51879 0.51869 0.15679 0.0
C784 C 0.54163 0.53948 0.13426 0.0
C785 C 0.58458 0.56413 0.13597 0.0
C786 C 0.51624 0.50105 0.2052 0.0
C787 C 0.52069 0.53565 0.1084 0.0
C788 C 0.41362 0.42328 0.1541 0.0
C789 C 0.38806 0.43884 0.16137 0.0
C790 C 0.45601 0.44934 0.15097 0.0
C791 C 0.47333 0.49197 0.15556 0.0
C792 C 0.44733 0.50813 0.16155 0.0
C793 C 0.4048 0.48129 0.16425 0.0
C794 C 0.48249 0.4309 0.14421 0.0
C795 C 0.46467 0.55338 0.16671 0.0
H796 H 0.59802 0.55054 0.20018 0.0
H797 H 0.60213 0.58023 0.11878 0.0
H798 H 0.49341 0.5106 0.20991 0.0
H799 H 0.49904 0.46732 0.20205 0.0
H800 H 0.53687 0.50784 0.2223 0.0
H801 H 0.54284 0.55382 0.09272 0.0
H802 H 0.50347 0.50295 0.10229 0.0
H803 H 0.49804 0.5462 0.11042 0.0
H804 H 0.40049 0.39039 0.15168 0.0
H805 H 0.38501 0.49323 0.17002 0.0
H806 H 0.50136 0.43287 0.16141 0.0
H807 H 0.50394 0.44832 0.12808 0.0
H808 H 0.4639 0.39814 0.13832 0.0
H809 H 0.48249 0.56191 0.1852 0.0
H810 H 0.44022 0.56164 0.16841 0.0
H811 H 0.48609 0.57196 0.15086 0.0
C812 C 0.95656 0.4097 0.51428 0.0
C813 C 0.95491 0.3869 0.49213 0.0
C814 C 0.97513 0.45264 0.51329 0.0
C815 C 0.99237 0.47349 0.48951 0.0
C816 C 0.99061 0.45072 0.46699 0.0
C817 C 0.97203 0.40769 0.4686 0.0
C818 C 0.97648 0.47574 0.53779 0.0
C819 C 0.00824 0.4718 0.44124 0.0
C820 C 0.00207 0.57873 0.48634 0.0
C821 C 0.04301 0.60445 0.49395 0.0
C822 C 0.98583 0.5363 0.48335 0.0
C823 C 0.01108 0.51903 0.48831 0.0
C824 C 0.05311 0.54517 0.49461 0.0
C825 C 0.06867 0.58772 0.49725 0.0
C826 C 0.94104 0.50971 0.47632 0.0
C827 C 0.081 0.52794 0.50009 0.0
H828 H 0.94415 0.39398 0.53266 0.0
H829 H 0.97068 0.39025 0.45137 0.0
H830 H 0.00878 0.49854 0.5427 0.0
H831 H 0.96002 0.49297 0.5345 0.0
H832 H 0.96232 0.45501 0.55482 0.0
H833 H 0.00478 0.44976 0.42561 0.0
H834 H 0.99271 0.48884 0.43488 0.0
H835 H 0.04135 0.49463 0.44353 0.0
H836 H 0.9823 0.59175 0.48352 0.0
H837 H 0.10026 0.60754 0.50328 0.0
H838 H 0.92389 0.49067 0.49342 0.0
H839 H 0.93737 0.48842 0.46018 0.0
H840 H 0.92684 0.52823 0.47032 0.0
H841 H 0.07142 0.5101 0.51857 0.0
H842 H 0.11366 0.55247 0.50197 0.0
H843 H 0.0785 0.50655 0.48431 0.0
C844 C 0.47037 0.06545 0.82565 0.0
C845 C 0.42761 0.04118 0.82365 0.0
C846 C 0.49543 0.04762 0.82358 0.0
C847 C 0.47711 0.00469 0.81937 0.0
C848 C 0.43428 0.98086 0.8151 0.0
C849 C 0.41006 -0.00058 0.81731 0.0
C850 C 0.54105 0.07413 0.82802 0.0
C851 C 0.4135 0.93512 0.81038 0.0
C852 C 0.54572 0.95845 0.80727 0.0
C853 C 0.54986 0.94701 0.83267 0.0
C854 C 0.52176 0.97693 0.80243 0.0
C855 C 0.50145 0.9838 0.82349 0.0
C856 C 0.50437 0.97081 0.84899 0.0
C857 C 0.52853 0.95262 0.85324 0.0
C858 C 0.51926 0.99027 0.775 0.0
C859 C 0.48274 0.97697 0.87196 0.0
H860 H 0.48395 0.09771 0.83059 0.0
H861 H 0.37696 0.98074 0.81544 0.0
H862 H 0.54899 0.06723 0.84755 0.0
H863 H 0.55846 0.06734 0.81326 0.0
H864 H 0.5512 0.10741 0.82721 0.0
H865 H 0.38133 0.92231 0.80355 0.0
H866 H 0.43068 0.92787 0.79571 0.0
H867 H 0.41308 0.91942 0.82884 0.0
H868 H 0.56255 0.95449 0.79139 0.0
H869 H 0.53141 0.94342 0.87285 0.0
H870 H 0.53429 0.02427 0.77425 0.0
H871 H 0.48672 0.9778 0.76921 0.0
H872 H 0.53438 0.98012 0.76052 0.0
H873 H 0.49414 0.01024 0.87478 0.0
H874 H 0.48751 0.96435 0.89042 0.0
H875 H 0.44925 0.96189 0.86811 0.0
C876 C 0.44162 0.40929 0.52105 0.0
C877 C 0.42025 0.38638 0.5431 0.0
C878 C 0.46619 0.45219 0.52221 0.0
C879 C 0.46976 0.47287 0.54606 0.0
C880 C 0.44837 0.44999 0.56845 0.0
C881 C 0.4237 0.407 0.56668 0.0
C882 C 0.4883 0.4754 0.49782 0.0
C883 C 0.45177 0.47092 0.59426 0.0
C884 C 0.56642 0.57712 0.54937 0.0
C885 C 0.55191 0.60339 0.54169 0.0
C886 C 0.53958 0.53484 0.55245 0.0
C887 C 0.49716 0.51829 0.54746 0.0
C888 C 0.482 0.54502 0.54112 0.0
C889 C 0.50962 0.58742 0.53843 0.0
C890 C 0.55702 0.50761 0.55955 0.0
C891 C 0.43701 0.52856 0.53558 0.0
H892 H 0.43844 0.39369 0.50264 0.0
H893 H 0.40738 0.38945 0.58382 0.0
H894 H 0.47938 0.49868 0.49304 0.0
H895 H 0.52197 0.49209 0.50119 0.0
H896 H 0.48147 0.45482 0.48067 0.0
H897 H 0.43258 0.44885 0.60971 0.0
H898 H 0.48423 0.48728 0.60088 0.0
H899 H 0.44223 0.4943 0.59196 0.0
H900 H 0.59915 0.58959 0.55213 0.0
H901 H 0.49842 0.6077 0.53236 0.0
H902 H 0.55499 0.48855 0.54242 0.0
H903 H 0.53896 0.48634 0.57559 0.0
H904 H 0.58969 0.52564 0.5657 0.0
H905 H 0.42861 0.51101 0.51698 0.0
H906 H 0.42944 0.55351 0.53388 0.0
H907 H 0.4178 0.50709 0.55123 0.0
C908 C 0.95083 0.53381 0.84809 0.0
C909 C 0.94554 0.55515 0.86879 0.0
C910 C 0.96814 0.50885 0.85222 0.0
C911 C 0.98063 0.50518 0.87772 0.0
C912 C 0.97409 0.52552 0.8989 0.0
C913 C 0.95643 0.55025 0.89418 0.0
C914 C 0.97396 0.48718 0.82913 0.0
C915 C 0.98696 0.52226 0.92632 0.0
C916 C 0.9942 0.41248 0.88342 0.0
C917 C 0.03596 0.4295 0.87728 0.0
C918 C 0.97628 0.43727 0.88571 0.0
C919 C 0.00076 0.48012 0.8817 0.0
C920 C 0.04366 0.49784 0.87764 0.0
C921 C 0.06084 0.47223 0.87551 0.0
C922 C 0.93056 0.41712 0.89029 0.0
C923 C 0.07083 0.54346 0.87346 0.0
H924 H 0.94207 0.53733 0.82848 0.0
H925 H 0.95271 0.56709 0.91015 0.0
H926 H 0.00713 0.49807 0.82637 0.0
H927 H 0.95834 0.45361 0.8328 0.0
H928 H 0.9617 0.49252 0.8107 0.0
H929 H 0.97702 0.53746 0.94089 0.0
H930 H 0.97395 0.48955 0.93189 0.0
H931 H 0.0209 0.5368 0.9272 0.0
H932 H 0.97506 0.3794 0.88514 0.0
H933 H 0.09311 0.48539 0.87073 0.0
H934 H 0.91517 0.4173 0.87182 0.0
H935 H 0.92359 0.43439 0.90506 0.0
H936 H 0.91718 0.38478 0.89693 0.0
H937 H 0.06429 0.55192 0.854 0.0
H938 H 0.10397 0.55304 0.87432 0.0
H939 H 0.06437 0.56095 0.88835 0.0
C940 C 0.58737 0.05287 0.20969 0.0
C941 C 0.6063 0.02904 0.20671 0.0
C942 C 0.54436 0.0346 0.20991 0.0
C943 C 0.5196 0.99141 0.20724 0.0
C944 C 0.53845 0.96703 0.20534 0.0
C945 C 0.58148 0.98611 0.20495 0.0
C946 C 0.52542 0.0617 0.21196 0.0
C947 C 0.5132 0.92091 0.20252 0.0
C948 C 0.40534 0.94382 0.22215 0.0
C949 C 0.38928 0.94198 0.19713 0.0
C950 C 0.44762 0.95885 0.22579 0.0
C951 C 0.4743 0.97232 0.20388 0.0
C952 C 0.45788 0.96883 0.1785 0.0
C953 C 0.41565 0.95355 0.17545 0.0
C954 C 0.46395 0.96166 0.25311 0.0
C955 C 0.48513 0.98253 0.15458 0.0
H956 H 0.6062 0.08594 0.21148 0.0
H957 H 0.59561 0.96734 0.20223 0.0
H958 H 0.50927 0.06012 0.19347 0.0
H959 H 0.50223 0.05068 0.22785 0.0
H960 H 0.54871 0.09431 0.21579 0.0
H961 H 0.53224 0.90601 0.20422 0.0
H962 H 0.48874 0.90778 0.21762 0.0
H963 H 0.49786 0.91306 0.18316 0.0
H964 H 0.38513 0.93508 0.23897 0.0
H965 H 0.40328 0.95147 0.15601 0.0
H966 H 0.48396 0.9944 0.25852 0.0
H967 H 0.48307 0.94681 0.254 0.0
H968 H 0.43892 0.94695 0.26779 0.0
H969 H 0.50742 0.01596 0.15586 0.0
H970 H 0.46733 0.9765 0.13617 0.0
H971 H 0.5031 0.96648 0.15357 0.0
C972 C 0.07255 0.2537 0.20362 0.0
C973 C 0.10284 0.28844 0.19054 0.0
C974 C 0.03082 0.24069 0.2005 0.0
C975 C 0.01891 0.26288 0.18373 0.0
C976 C 0.04946 0.29982 0.17202 0.0
C977 C 0.09126 0.31224 0.17557 0.0
C978 C -0.00057 0.20135 0.21366 0.0
C979 C 0.0381 0.32471 0.15435 0.0
C980 C 0.91872 0.18674 0.15258 0.0
C981 C 0.89033 0.18776 0.16985 0.0
C982 C 0.96086 0.21435 0.15517 0.0
C983 C 0.97499 0.24347 0.17574 0.0
C984 C 0.94612 0.24745 0.19149 0.0
C985 C 0.90388 0.21942 0.18833 0.0
C986 C 0.99038 0.20929 0.13763 0.0
C987 C 0.95984 0.27857 0.21329 0.0
H988 H 0.0814 0.23554 0.21554 0.0
H989 H 0.11462 0.3392 0.16546 0.0
H990 H 0.97618 0.20601 0.22405 0.0
H991 H 0.98305 0.17719 0.19868 0.0
H992 H 0.01369 0.18992 0.22792 0.0
H993 H 0.06405 0.35661 0.15193 0.0
H994 H 0.02981 0.31007 0.13478 0.0
H995 H 0.01108 0.32581 0.16206 0.0
H996 H 0.90816 0.1625 0.13807 0.0
H997 H 0.88194 0.22022 0.20175 0.0
H998 H 0.00529 0.19507 0.1489 0.0
H999 H 0.01495 0.23956 0.1305 0.0
H1000 H 0.97464 0.18943 0.12048 0.0
H1001 H 0.96858 0.26667 0.2305 0.0
H1002 H 0.93494 0.28459 0.21932 0.0
H1003 H 0.98714 0.30798 0.20739 0.0
C1004 C 0.738 0.91719 0.49563 0.0
C1005 C 0.70556 0.88824 0.511 0.0
C1006 C 0.75282 0.95935 0.49859 0.0
C1007 C 0.7351 0.97306 0.51768 0.0
C1008 C 0.7003 0.94384 0.53194 0.0
C1009 C 0.68577 0.90157 0.52836 0.0
C1010 C 0.78957 0.98925 0.48263 0.0
C1011 C 0.68033 0.95714 0.55232 0.0
C1012 C 0.81768 0.074 0.54526 0.0
C1013 C 0.8131 0.10242 0.53003 0.0
C1014 C 0.79006 0.03174 0.54311 0.0
C1015 C 0.75719 0.01742 0.52504 0.0
C1016 C 0.7504 0.04618 0.51122 0.0
C1017 C 0.77848 0.08852 0.51393 0.0
C1018 C 0.79828 0.00233 0.55854 0.0
C1019 C 0.71555 0.03226 0.49197 0.0
H1020 H 0.75306 0.9069 0.48198 0.0
H1021 H 0.66076 0.87923 0.54035 0.0
H1022 H 0.78415 0.0131 0.47385 0.0
H1023 H 0.81686 0.00511 0.49554 0.0
H1024 H 0.7968 0.97374 0.46671 0.0
H1025 H 0.64927 0.93177 0.55771 0.0
H1026 H 0.69962 0.96703 0.57019 0.0
H1027 H 0.67775 0.9837 0.54532 0.0
H1028 H 0.84419 0.08469 0.55796 0.0
H1029 H 0.77488 0.1104 0.50207 0.0
H1030 H 0.80951 0.98682 0.54516 0.0
H1031 H 0.76962 0.97817 0.56779 0.0
H1032 H 0.82169 0.01823 0.57404 0.0
H1033 H 0.72371 0.02221 0.47364 0.0
H1034 H 0.70921 0.05737 0.48712 0.0
H1035 H 0.68709 0.00569 0.49974 0.0
C1036 C 0.73428 0.81702 0.87542 0.0
C1037 C 0.70396 0.81423 0.85829 0.0
C1038 C 0.74938 0.7898 0.87361 0.0
C1039 C 0.73421 0.75934 0.85384 0.0
C1040 C 0.70117 0.75423 0.83784 0.0
C1041 C 0.68622 0.78178 0.84033 0.0
C1042 C 0.78417 0.79613 0.89138 0.0
C1043 C 0.6839 0.72194 0.81671 0.0
C1044 C 0.8211 0.74587 0.82888 0.0
C1045 C 0.81592 0.71192 0.8433 0.0
C1046 C 0.79267 0.75946 0.83053 0.0
C1047 C 0.75821 0.7388 0.84724 0.0
C1048 C 0.75114 0.70261 0.86037 0.0
C1049 C 0.78017 0.68946 0.85821 0.0
C1050 C 0.80135 0.79793 0.81591 0.0
C1051 C 0.71457 0.67946 0.87813 0.0
H1052 H 0.7476 0.84182 0.88958 0.0
H1053 H 0.66276 0.77964 0.82704 0.0
H1054 H 0.77834 0.76642 0.89965 0.0
H1055 H 0.81311 0.80918 0.87995 0.0
H1056 H 0.78873 0.81743 0.90775 0.0
H1057 H 0.65329 0.71599 0.81 0.0
H1058 H 0.70504 0.73258 0.79969 0.0
H1059 H 0.68116 0.6927 0.82363 0.0
H1060 H 0.84841 0.76292 0.81698 0.0
H1061 H 0.77604 0.66311 0.86933 0.0
H1062 H 0.80988 0.82339 0.83002 0.0
H1063 H 0.77355 0.79309 0.80531 0.0
H1064 H 0.82682 0.80764 0.80161 0.0
H1065 H 0.72046 0.69613 0.89696 0.0
H1066 H 0.70861 0.64793 0.88227 0.0
H1067 H 0.68658 0.67744 0.86942 0.0
C1068 C 0.90297 0.69021 0.17935 0.0
C1069 C 0.88954 0.71121 0.19559 0.0
C1070 C 0.94516 0.70386 0.17664 0.0
C1071 C 0.97424 0.73907 0.19061 0.0
C1072 C 0.96035 0.75781 0.20885 0.0
C1073 C 0.91822 0.74379 0.21099 0.0
C1074 C 0.95863 0.68271 0.15724 0.0
C1075 C 0.99012 0.79502 0.22449 0.0
C1076 C 0.08991 0.78275 0.19363 0.0
C1077 C 0.10329 0.8161 0.17647 0.0
C1078 C 0.04763 0.75508 0.19719 0.0
C1079 C 0.0185 0.76102 0.18313 0.0
C1080 C 0.03228 0.79264 0.16417 0.0
C1081 C 0.07444 0.81987 0.16122 0.0
C1082 C 0.03426 0.72157 0.21739 0.0
C1083 C 0.00248 0.79991 0.14844 0.0
H1084 H 0.88085 0.66496 0.16741 0.0
H1085 H 0.90787 0.75975 0.22384 0.0
H1086 H 0.96891 0.70107 0.13898 0.0
H1087 H 0.98494 0.68031 0.16494 0.0
H1088 H 0.93322 0.65145 0.15229 0.0
H1089 H 0.97447 0.80264 0.24011 0.0
H1090 H 0.01397 0.78994 0.23361 0.0
H1091 H 0.00596 0.82194 0.21128 0.0
H1092 H 0.11221 0.77989 0.20553 0.0
H1093 H 0.08481 0.84542 0.14773 0.0
H1094 H 0.00716 0.69273 0.21053 0.0
H1095 H 0.02525 0.7312 0.23555 0.0
H1096 H 0.05936 0.71523 0.22226 0.0
H1097 H 0.97846 0.77079 0.13959 0.0
H1098 H 0.01803 0.82276 0.1326 0.0
H1099 H 0.98685 0.81139 0.16152 0.0
C1100 C 0.212 0.90278 0.50812 0.0
C1101 C 0.17989 0.88953 0.52627 0.0
C1102 C 0.23914 0.94504 0.504 0.0
C1103 C 0.23393 0.97432 0.51847 0.0
C1104 C 0.20381 0.96074 0.53843 0.0
C1105 C 0.17707 0.91857 0.54195 0.0
C1106 C 0.27109 0.95818 0.48275 0.0
C1107 C 0.19739 0.9907 0.55463 0.0
C1108 C 0.30386 0.09023 0.52011 0.0
C1109 C 0.28138 0.10273 0.50454 0.0
C1110 C 0.29086 0.04823 0.52323 0.0
C1111 C 0.25473 0.01836 0.51043 0.0
C1112 C 0.2343 0.03123 0.49283 0.0
C1113 C 0.24778 0.0732 0.49021 0.0
C1114 C 0.31386 0.03586 0.54185 0.0
C1115 C 0.19599 0.00058 0.47845 0.0
H1116 H 0.21407 0.88036 0.49585 0.0
H1117 H 0.15242 0.90831 0.55615 0.0
H1118 H 0.25983 0.96635 0.46497 0.0
H1119 H 0.30021 0.98574 0.48874 0.0
H1120 H 0.27749 0.93321 0.47757 0.0
H1121 H 0.17596 0.97542 0.5712 0.0
H1122 H 0.22706 0.01525 0.56255 0.0
H1123 H 0.18452 0.00565 0.54211 0.0
H1124 H 0.32988 0.11296 0.53124 0.0
H1125 H 0.2306 0.08278 0.4779 0.0
H1126 H 0.31591 0.00939 0.53406 0.0
H1127 H 0.29709 0.02624 0.56072 0.0
H1128 H 0.34538 0.06167 0.54574 0.0
H1129 H 0.20072 0.9767 0.46901 0.0
H1130 H 0.18672 0.01544 0.46324 0.0
H1131 H 0.1703 0.98486 0.49257 0.0
C1132 C 0.17647 0.25643 0.82647 0.0
C1133 C 0.17934 0.28902 0.84139 0.0
C1134 C 0.20519 0.24335 0.82923 0.0
C1135 C 0.23749 0.26313 0.84758 0.0
C1136 C 0.24265 0.29841 0.86102 0.0
C1137 C 0.21341 0.31105 0.85773 0.0
C1138 C 0.19871 0.20597 0.81415 0.0
C1139 C 0.27703 0.32078 0.8804 0.0
C1140 C 0.25706 0.18321 0.87781 0.0
C1141 C 0.28901 0.18617 0.86217 0.0
C1142 C 0.2426 0.21081 0.87492 0.0
C1143 C 0.26036 0.24206 0.85572 0.0
C1144 C 0.29522 0.24758 0.84157 0.0
C1145 C 0.30925 0.21944 0.84499 0.0
C1146 C 0.2057 0.20395 0.89071 0.0
C1147 C 0.3155 0.28092 0.82127 0.0
H1148 H 0.15045 0.23973 0.81351 0.0
H1149 H 0.21575 0.33634 0.86927 0.0
H1150 H 0.22786 0.21161 0.80506 0.0
H1151 H 0.18844 0.17959 0.82773 0.0
H1152 H 0.17521 0.19718 0.79855 0.0
H1153 H 0.28262 0.35223 0.88442 0.0
H1154 H 0.26879 0.30351 0.8991 0.0
H1155 H 0.30592 0.32294 0.87325 0.0
H1156 H 0.24172 0.15776 0.89136 0.0
H1157 H 0.33397 0.22177 0.83284 0.0
H1158 H 0.17841 0.1919 0.87776 0.0
H1159 H 0.21077 0.2333 0.89916 0.0
H1160 H 0.1987 0.18165 0.90687 0.0
H1161 H 0.29735 0.27084 0.80293 0.0
H1162 H 0.34718 0.28757 0.81684 0.0
H1163 H 0.31667 0.30965 0.82779 0.0
C1164 C 0.23725 0.19425 0.19989 0.0
C1165 C 0.26219 0.22563 0.18239 0.0
C1166 C 0.24011 0.15858 0.20188 0.0
C1167 C 0.26896 0.15452 0.18624 0.0
C1168 C 0.29568 0.18698 0.16955 0.0
C1169 C 0.29181 0.22212 0.16771 0.0
C1170 C 0.21094 0.12448 0.21983 0.0
C1171 C 0.32728 0.18397 0.15293 0.0
C1172 C 0.28877 0.06873 0.2059 0.0
C1173 C 0.26212 0.03706 0.18908 0.0
C1174 C 0.29262 0.10778 0.20454 0.0
C1175 C 0.26899 0.11508 0.18608 0.0
C1176 C 0.24327 0.08372 0.16839 0.0
C1177 C 0.2403 0.04512 0.17002 0.0
C1178 C 0.32087 0.14076 0.22342 0.0
C1179 C 0.21753 0.09036 0.14844 0.0
H1180 H 0.21432 0.19677 0.21132 0.0
H1181 H 0.31145 0.24647 0.15432 0.0
H1182 H 0.19016 0.09698 0.20808 0.0
H1183 H 0.22827 0.11547 0.23322 0.0
H1184 H 0.1919 0.1334 0.23172 0.0
H1185 H 0.34844 0.21348 0.14308 0.0
H1186 H 0.34569 0.1746 0.16505 0.0
H1187 H 0.31158 0.16002 0.13775 0.0
H1188 H 0.30599 0.06282 0.22055 0.0
H1189 H 0.21978 0.02087 0.15687 0.0
H1190 H 0.30243 0.14765 0.2373 0.0
H1191 H 0.34142 0.1696 0.21277 0.0
H1192 H 0.34003 0.13144 0.23482 0.0
H1193 H 0.19481 0.09614 0.15859 0.0
H1194 H 0.20073 0.0635 0.13526 0.0
H1195 H 0.23719 0.11782 0.13636 0.0
C1196 C 0.21993 0.29959 0.49658 0.0
C1197 C 0.22223 0.26811 0.50977 0.0
C1198 C 0.18572 0.30488 0.49979 0.0
C1199 C 0.15345 0.27825 0.5167 0.0
C1200 C 0.15653 0.24757 0.53084 0.0
C1201 C 0.19076 0.24279 0.52713 0.0
C1202 C 0.18333 0.33781 0.48432 0.0
C1203 C 0.1229 0.21867 0.54919 0.0
C1204 C 0.06889 0.29779 0.5403 0.0
C1205 C 0.0361 0.27036 0.52453 0.0
C1206 C 0.10812 0.30231 0.53724 0.0
C1207 C 0.11447 0.2792 0.51778 0.0
C1208 C 0.08188 0.25318 0.50095 0.0
C1209 C 0.04308 0.24891 0.50464 0.0
C1210 C 0.14214 0.33017 0.55562 0.0
C1211 C 0.08743 0.22828 0.4798 0.0
H1212 H 0.24427 0.31932 0.48322 0.0
H1213 H 0.19265 0.21883 0.53773 0.0
H1214 H 0.15881 0.32326 0.46935 0.0
H1215 H 0.17508 0.35626 0.49728 0.0
H1216 H 0.21274 0.35875 0.47429 0.0
H1217 H 0.13159 0.19876 0.56029 0.0
H1218 H 0.11531 0.23629 0.56331 0.0
H1219 H 0.09463 0.19867 0.53786 0.0
H1220 H 0.06353 0.31445 0.55565 0.0
H1221 H 0.01794 0.22825 0.49206 0.0
H1222 H 0.17063 0.35041 0.54456 0.0
H1223 H 0.14915 0.31133 0.56906 0.0
H1224 H 0.13371 0.34959 0.56753 0.0
H1225 H 0.11465 0.24828 0.46762 0.0
H1226 H 0.06013 0.21256 0.46686 0.0
H1227 H 0.09292 0.20463 0.48886 0.0
C1228 C 0.79491 0.04141 0.86811 0.0
C1229 C 0.7639 0.03523 0.85037 0.0
C1230 C 0.83147 0.07924 0.86949 0.0
C1231 C 0.83691 0.11176 0.85294 0.0
C1232 C 0.80493 0.10642 0.83595 0.0
C1233 C 0.7688 0.06809 0.83478 0.0
C1234 C 0.86495 0.08383 0.88788 0.0
C1235 C 0.80948 0.14069 0.81834 0.0
C1236 C 0.92412 0.2169 0.87176 0.0
C1237 C 0.95586 0.2204 0.85558 0.0
C1238 C 0.88465 0.18239 0.87038 0.0
C1239 C 0.87697 0.15056 0.85258 0.0
C1240 C 0.90845 0.1546 0.8355 0.0
C1241 C 0.94754 0.18964 0.83712 0.0
C1242 C 0.85164 0.17935 0.88863 0.0
C1243 C 0.90134 0.12114 0.8163 0.0
H1244 H 0.79133 0.01621 0.88028 0.0
H1245 H 0.74483 0.06361 0.82116 0.0
H1246 H 0.89231 0.08921 0.87645 0.0
H1247 H 0.87459 0.11087 0.90077 0.0
H1248 H 0.85508 0.05622 0.90032 0.0
H1249 H 0.78044 0.13276 0.80802 0.0
H1250 H 0.81939 0.16918 0.82983 0.0
H1251 H 0.83363 0.14754 0.80352 0.0
H1252 H 0.93027 0.24079 0.8859 0.0
H1253 H 0.97193 0.19221 0.82454 0.0
H1254 H 0.84363 0.15429 0.90295 0.0
H1255 H 0.8233 0.17155 0.87753 0.0
H1256 H 0.86149 0.20836 0.89955 0.0
H1257 H 0.89466 0.09284 0.82708 0.0
H1258 H 0.92833 0.13005 0.80343 0.0
H1259 H 0.87426 0.11347 0.80387 0.0
C1260 C 0.73296 0.94523 0.175 0.0
C1261 C 0.7753 0.97277 0.17298 0.0
C1262 C 0.71791 0.90324 0.1795 0.0
C1263 C 0.74601 0.88889 0.18265 0.0
C1264 C 0.78881 0.91677 0.18096 0.0
C1265 C 0.80289 0.9583 0.17583 0.0
C1266 C 0.67212 0.8742 0.18054 0.0
C1267 C 0.81981 0.90276 0.18462 0.0
C1268 C 0.72192 0.7893 0.21581 0.0
C1269 C 0.72263 0.76674 0.19431 0.0
C1270 C 0.72652 0.82845 0.21227 0.0
C1271 C 0.7313 0.84458 0.18663 0.0
C1272 C 0.72825 0.82003 0.16482 0.0
C1273 C 0.72459 0.78156 0.16898 0.0
C1274 C 0.73013 0.85389 0.23601 0.0
C1275 C 0.7324 0.83574 0.13718 0.0
H1276 H 0.71159 0.95646 0.17276 0.0
H1277 H 0.83565 0.97964 0.17464 0.0
H1278 H 0.66292 0.85111 0.16466 0.0
H1279 H 0.66352 0.85715 0.19931 0.0
H1280 H 0.65442 0.89045 0.17841 0.0
H1281 H 0.85197 0.92874 0.18411 0.0
H1282 H 0.81458 0.88659 0.20359 0.0
H1283 H 0.81607 0.88067 0.16899 0.0
H1284 H 0.72101 0.77778 0.23538 0.0
H1285 H 0.72536 0.76391 0.15243 0.0
H1286 H 0.71205 0.8696 0.2334 0.0
H1287 H 0.76274 0.87804 0.23867 0.0
H1288 H 0.71958 0.83498 0.25407 0.0
H1289 H 0.71397 0.85105 0.1344 0.0
H1290 H 0.7225 0.81066 0.12256 0.0
H1291 H 0.765 0.85886 0.13326 0.0
C1292 C 0.79695 0.75174 0.50146 0.0
C1293 C 0.76783 0.72944 0.52085 0.0
C1294 C 0.83284 0.74942 0.49905 0.0
C1295 C 0.83946 0.7238 0.51625 0.0
C1296 C 0.80914 0.69945 0.53487 0.0
C1297 C 0.77371 0.70272 0.53706 0.0
C1298 C 0.86458 0.77597 0.47898 0.0
C1299 C 0.81489 0.67122 0.55319 0.0
C1300 C 0.9257 0.70451 0.49695 0.0
C1301 C 0.95826 0.73405 0.51202 0.0
C1302 C 0.88625 0.69953 0.4989 0.0
C1303 C 0.87955 0.72518 0.51601 0.0
C1304 C 0.91201 0.75417 0.53186 0.0
C1305 C 0.95093 0.75802 0.52982 0.0
C1306 C 0.85208 0.66773 0.48211 0.0
C1307 C 0.90609 0.7823 0.55021 0.0
H1308 H 0.79254 0.77231 0.48877 0.0
H1309 H 0.75111 0.68509 0.55191 0.0
H1310 H 0.89287 0.79928 0.48904 0.0
H1311 H 0.87312 0.75709 0.46668 0.0
H1312 H 0.85354 0.79216 0.46602 0.0
H1313 H 0.78654 0.65097 0.56443 0.0
H1314 H 0.82414 0.65175 0.54211 0.0
H1315 H 0.83991 0.68975 0.56723 0.0
H1316 H 0.93113 0.68561 0.48335 0.0
H1317 H 0.97598 0.7809 0.54154 0.0
H1318 H 0.84297 0.68323 0.46731 0.0
H1319 H 0.82458 0.64828 0.49423 0.0
H1320 H 0.86131 0.64758 0.4718 0.0
H1321 H 0.89809 0.80245 0.53881 0.0
H1322 H 0.93404 0.802 0.56194 0.0
H1323 H 0.88022 0.76405 0.56378 0.0
C1324 C 0.18875 0.95472 0.86358 0.0
C1325 C 0.22024 0.96315 0.8457 0.0
C1326 C 0.15431 0.91527 0.86538 0.0
C1327 C 0.15172 0.88351 0.84917 0.0
C1328 C 0.1844 0.89134 0.83206 0.0
C1329 C 0.21821 0.93123 0.83038 0.0
C1330 C 0.11988 0.90807 0.88377 0.0
C1331 C 0.18298 0.858 0.81486 0.0
C1332 C 0.06919 0.77603 0.86816 0.0
C1333 C 0.03673 0.77038 0.8519 0.0
C1334 C 0.10759 0.81205 0.86672 0.0
C1335 C 0.11337 0.8431 0.84876 0.0
C1336 C 0.08135 0.8367 0.83144 0.0
C1337 C 0.04346 0.8003 0.83313 0.0
C1338 C 0.14135 0.8176 0.88516 0.0
C1339 C 0.08642 0.86916 0.81199 0.0
H1340 H 0.19022 0.9793 0.87548 0.0
H1341 H 0.24276 0.93753 0.81675 0.0
H1342 H 0.09182 0.90029 0.87234 0.0
H1343 H 0.11235 0.88164 0.8968 0.0
H1344 H 0.12768 0.93541 0.89605 0.0
H1345 H 0.2127 0.86798 0.80479 0.0
H1346 H 0.17498 0.83015 0.82658 0.0
H1347 H 0.15872 0.84913 0.79982 0.0
H1348 H 0.06431 0.75287 0.88256 0.0
H1349 H 0.01862 0.79607 0.82038 0.0
H1350 H 0.14697 0.84177 0.8997 0.0
H1351 H 0.17046 0.82796 0.8743 0.0
H1352 H 0.13352 0.78884 0.89582 0.0
H1353 H 0.09093 0.8969 0.82258 0.0
H1354 H 0.05934 0.85839 0.79892 0.0
H1355 H 0.11407 0.87853 0.79975 0.0
loop_
_geom_bond_atom_site_label_1
_geom_bond_atom_site_label_2
_geom_bond_distance
_geom_bond_site_symmetry_2
_ccdc_geom_bond_type
Co0 N4 2.148 . S
Co0 N10 2.128 . S
Co0 N20 2.194 . S
Co0 O25 2.351 . S
Co0 O26 2.155 . S
Co0 O27 2.096 . S
C1 N4 1.301 . S
C1 N5 1.328 . S
C1 H6 0.930 . S
C2 C3 1.333 . S
C2 N4 1.317 . S
C2 H7 0.930 . S
C3 C2 1.333 . S
C3 N5 1.350 . S
C3 H29 0.931 . S
N4 Co0 2.148 . S
N4 C1 1.301 . S
N4 C2 1.317 . S
N5 C1 1.328 . S
N5 C3 1.350 . S
H6 C1 0.930 . S
H7 C2 0.930 . S
C8 O9 1.224 . S
C8 O27 1.247 . S
O9 C8 1.224 . S
N10 Co0 2.128 . S
N10 C11 1.355 . S
N10 C13 1.311 . S
C11 N10 1.355 . S
C11 C12 1.363 . S
C11 H23 0.929 . S
C12 C11 1.363 . S
C12 N14 1.375 . S
C12 H30 0.931 . S
C13 N10 1.311 . S
C13 N14 1.347 . S
C13 H24 0.929 . S
N14 C12 1.375 . S
N14 C13 1.347 . S
C15 C18 1.365 . S
C15 N20 1.328 . S
C15 H21 0.929 . S
C16 C17 1.362 . S
C16 C19 1.378 . S
C16 H31 0.929 . S
C17 C16 1.362 . S
C17 C18 1.366 . S
C18 C15 1.365 . S
C18 C17 1.366 . S
C18 H32 0.930 . S
C19 C16 1.378 . S
C19 N20 1.315 . S
C19 H22 0.930 . S
N20 Co0 2.194 . S
N20 C15 1.328 . S
N20 C19 1.315 . S
H21 C15 0.929 . S
H22 C19 0.930 . S
H23 C11 0.929 . S
H24 C13 0.929 . S
O25 Co0 2.351 . S
O25 C28 1.244 . S
O26 Co0 2.155 . S
O26 C28 1.240 . S
O27 Co0 2.096 . S
O27 C8 1.247 . S
C28 O25 1.244 . S
C28 O26 1.240 . S
H29 C3 0.931 . S
H30 C12 0.931 . S
H31 C16 0.929 . S
H32 C18 0.930 . S
Co33 N37 2.148 . S
Co33 N43 2.128 . S
Co33 N53 2.194 . S
Co33 O58 2.351 . S
Co33 O59 2.155 . S
Co33 O60 2.096 . S
C34 N37 1.301 . S
C34 N38 1.328 . S
C34 H39 0.930 . S
C35 C36 1.333 . S
C35 N37 1.317 . S
C35 H40 0.930 . S
C36 C35 1.333 . S
C36 N38 1.350 . S
C36 H62 0.931 . S
N37 Co33 2.148 . S
N37 C34 1.301 . S
N37 C35 1.317 . S
N38 C34 1.328 . S
N38 C36 1.350 . S
H39 C34 0.930 . S
H40 C35 0.930 . S
C41 O42 1.224 . S
C41 O60 1.247 1_455 S
O42 C41 1.224 . S
N43 Co33 2.128 . S
N43 C44 1.355 . S
N43 C46 1.311 . S
C44 N43 1.355 . S
C44 C45 1.363 . S
C44 H56 0.929 . S
C45 C44 1.363 . S
C45 N47 1.375 . S
C45 H63 0.931 . S
C46 N43 1.311 . S
C46 N47 1.347 . S
C46 H57 0.929 . S
N47 C45 1.375 . S
N47 C46 1.347 . S
C48 C51 1.365 . S
C48 N53 1.328 . S
C48 H54 0.929 . S
C49 C50 1.362 . S
C49 C52 1.378 . S
C49 H64 0.929 . S
C50 C49 1.362 . S
C50 C51 1.366 . S
C51 C48 1.365 . S
C51 C50 1.366 . S
C51 H65 0.930 . S
C52 C49 1.378 . S
C52 N53 1.315 . S
C52 H55 0.930 . S
N53 Co33 2.194 . S
N53 C48 1.328 . S
N53 C52 1.315 . S
H54 C48 0.929 . S
H55 C52 0.930 . S
H56 C44 0.929 . S
H57 C46 0.929 . S
O58 Co33 2.351 . S
O58 C61 1.244 . S
O59 Co33 2.155 . S
O59 C61 1.240 . S
O60 Co33 2.096 . S
O60 C41 1.247 1_655 S
C61 O58 1.244 . S
C61 O59 1.240 . S
H62 C36 0.931 . S
H63 C45 0.931 . S
H64 C49 0.929 . S
H65 C51 0.930 . S
Co66 N70 2.148 . S
Co66 N76 2.128 . S
Co66 N86 2.194 . S
Co66 O91 2.351 . S
Co66 O92 2.155 . S
Co66 O93 2.096 . S
C67 N70 1.301 . S
C67 N71 1.328 . S
C67 H72 0.930 . S
C68 C69 1.333 . S
C68 N70 1.317 . S
C68 H73 0.930 . S
C69 C68 1.333 . S
C69 N71 1.350 . S
C69 H95 0.931 . S
N70 Co66 2.148 . S
N70 C67 1.301 . S
N70 C68 1.317 . S
N71 C67 1.328 . S
N71 C69 1.350 . S
H72 C67 0.930 . S
H73 C68 0.930 . S
C74 O75 1.224 . S
C74 O93 1.247 1_545 S
O75 C74 1.224 . S
N76 Co66 2.128 . S
N76 C77 1.355 . S
N76 C79 1.311 . S
C77 N76 1.355 . S
C77 C78 1.363 . S
C77 H89 0.929 . S
C78 C77 1.363 . S
C78 N80 1.375 . S
C78 H96 0.931 . S
C79 N76 1.311 . S
C79 N80 1.347 . S
C79 H90 0.929 . S
N80 C78 1.375 . S
N80 C79 1.347 . S
C81 C84 1.365 . S
C81 N86 1.328 . S
C81 H87 0.929 . S
C82 C83 1.362 . S
C82 C85 1.378 . S
C82 H97 0.929 . S
C83 C82 1.362 . S
C83 C84 1.366 . S
C84 C81 1.365 . S
C84 C83 1.366 . S
C84 H98 0.930 . S
C85 C82 1.378 . S
C85 N86 1.315 . S
C85 H88 0.930 . S
N86 Co66 2.194 . S
N86 C81 1.328 . S
N86 C85 1.315 . S
H87 C81 0.929 . S
H88 C85 0.930 . S
H89 C77 0.929 . S
H90 C79 0.929 . S
O91 Co66 2.351 . S
O91 C94 1.244 . S
O92 Co66 2.155 . S
O92 C94 1.240 . S
O93 Co66 2.096 . S
O93 C74 1.247 1_565 S
C94 O91 1.244 . S
C94 O92 1.240 . S
H95 C69 0.931 . S
H96 C78 0.931 . S
H97 C82 0.929 . S
H98 C84 0.930 . S
Co99 N103 2.148 . S
Co99 N109 2.128 . S
Co99 N119 2.194 . S
Co99 O124 2.351 . S
Co99 O125 2.155 . S
Co99 O126 2.096 . S
C100 N103 1.301 . S
C100 N104 1.328 . S
C100 H105 0.930 . S
C101 C102 1.333 . S
C101 N103 1.317 . S
C101 H106 0.930 . S
C102 C101 1.333 . S
C102 N104 1.350 . S
C102 H128 0.931 . S
N103 Co99 2.148 . S
N103 C100 1.301 . S
N103 C101 1.317 . S
N104 C100 1.328 . S
N104 C102 1.350 . S
H105 C100 0.930 . S
H106 C101 0.930 . S
C107 O108 1.224 . S
C107 O126 1.247 . S
O108 C107 1.224 . S
N109 Co99 2.128 . S
N109 C110 1.355 . S
N109 C112 1.311 . S
C110 N109 1.355 . S
C110 C111 1.363 . S
C110 H122 0.929 . S
C111 C110 1.363 . S
C111 N113 1.375 . S
C111 H129 0.931 . S
C112 N109 1.311 . S
C112 N113 1.347 . S
C112 H123 0.929 . S
N113 C111 1.375 . S
N113 C112 1.347 . S
C114 C117 1.365 . S
C114 N119 1.328 . S
C114 H120 0.929 . S
C115 C116 1.362 . S
C115 C118 1.378 . S
C115 H130 0.929 . S
C116 C115 1.362 . S
C116 C117 1.366 . S
C117 C114 1.365 . S
C117 C116 1.366 . S
C117 H131 0.930 . S
C118 C115 1.378 . S
C118 N119 1.315 . S
C118 H121 0.930 . S
N119 Co99 2.194 . S
N119 C114 1.328 . S
N119 C118 1.315 . S
H120 C114 0.929 . S
H121 C118 0.930 . S
H122 C110 0.929 . S
H123 C112 0.929 . S
O124 Co99 2.351 . S
O124 C127 1.244 . S
O125 Co99 2.155 . S
O125 C127 1.240 . S
O126 Co99 2.096 . S
O126 C107 1.247 . S
C127 O124 1.244 . S
C127 O125 1.240 . S
H128 C102 0.931 . S
H129 C111 0.931 . S
H130 C115 0.929 . S
H131 C117 0.930 . S
Co132 N136 2.148 . S
Co132 N142 2.128 . S
Co132 N152 2.194 . S
Co132 O157 2.351 . S
Co132 O158 2.155 . S
Co132 O159 2.096 . S
C133 N136 1.301 . S
C133 N137 1.328 . S
C133 H138 0.930 . S
C134 C135 1.333 . S
C134 N136 1.317 . S
C134 H139 0.930 . S
C135 C134 1.333 . S
C135 N137 1.350 . S
C135 H161 0.931 . S
N136 Co132 2.148 . S
N136 C133 1.301 . S
N136 C134 1.317 . S
N137 C133 1.328 . S
N137 C135 1.350 . S
H138 C133 0.930 . S
H139 C134 0.930 . S
C140 O141 1.224 . S
C140 O159 1.247 1_655 S
O141 C140 1.224 . S
N142 Co132 2.128 . S
N142 C143 1.355 . S
N142 C145 1.311 . S
C143 N142 1.355 . S
C143 C144 1.363 . S
C143 H155 0.929 . S
C144 C143 1.363 . S
C144 N146 1.375 . S
C144 H162 0.931 . S
C145 N142 1.311 . S
C145 N146 1.347 . S
C145 H156 0.929 . S
N146 C144 1.375 . S
N146 C145 1.347 . S
C147 C150 1.365 . S
C147 N152 1.328 . S
C147 H153 0.929 . S
C148 C149 1.362 . S
C148 C151 1.378 . S
C148 H163 0.929 . S
C149 C148 1.362 . S
C149 C150 1.366 . S
C150 C147 1.365 . S
C150 C149 1.366 . S
C150 H164 0.930 . S
C151 C148 1.378 . S
C151 N152 1.315 . S
C151 H154 0.930 . S
N152 Co132 2.194 . S
N152 C147 1.328 . S
N152 C151 1.315 . S
H153 C147 0.929 . S
H154 C151 0.930 . S
H155 C143 0.929 . S
H156 C145 0.929 . S
O157 Co132 2.351 . S
O157 C160 1.244 . S
O158 Co132 2.155 . S
O158 C160 1.240 . S
O159 Co132 2.096 . S
O159 C140 1.247 1_455 S
C160 O157 1.244 . S
C160 O158 1.240 . S
H161 C135 0.931 . S
H162 C144 0.931 . S
H163 C148 0.929 . S
H164 C150 0.930 . S
Co165 N169 2.148 . S
Co165 N175 2.128 . S
Co165 N185 2.194 . S
Co165 O190 2.351 . S
Co165 O191 2.155 . S
Co165 O192 2.096 . S
C166 N169 1.301 . S
C166 N170 1.328 . S
C166 H171 0.930 . S
C167 C168 1.333 . S
C167 N169 1.317 . S
C167 H172 0.930 . S
C168 C167 1.333 . S
C168 N170 1.350 . S
C168 H194 0.931 . S
N169 Co165 2.148 . S
N169 C166 1.301 . S
N169 C167 1.317 . S
N170 C166 1.328 . S
N170 C168 1.350 . S
H171 C166 0.930 . S
H172 C167 0.930 . S
C173 O174 1.224 . S
C173 O192 1.247 1_565 S
O174 C173 1.224 . S
N175 Co165 2.128 . S
N175 C176 1.355 . S
N175 C178 1.311 . S
C176 N175 1.355 . S
C176 C177 1.363 . S
C176 H188 0.929 . S
C177 C176 1.363 . S
C177 N179 1.375 . S
C177 H195 0.931 . S
C178 N175 1.311 . S
C178 N179 1.347 . S
C178 H189 0.929 . S
N179 C177 1.375 . S
N179 C178 1.347 . S
C180 C183 1.365 . S
C180 N185 1.328 . S
C180 H186 0.929 . S
C181 C182 1.362 . S
C181 C184 1.378 . S
C181 H196 0.929 . S
C182 C181 1.362 . S
C182 C183 1.366 . S
C183 C180 1.365 . S
C183 C182 1.366 . S
C183 H197 0.930 . S
C184 C181 1.378 . S
C184 N185 1.315 . S
C184 H187 0.930 . S
N185 Co165 2.194 . S
N185 C180 1.328 . S
N185 C184 1.315 . S
H186 C180 0.929 . S
H187 C184 0.930 . S
H188 C176 0.929 . S
H189 C178 0.929 . S
O190 Co165 2.351 . S
O190 C193 1.244 . S
O191 Co165 2.155 . S
O191 C193 1.240 . S
O192 Co165 2.096 . S
O192 C173 1.247 1_545 S
C193 O190 1.244 . S
C193 O191 1.240 . S
H194 C168 0.931 . S
H195 C177 0.931 . S
H196 C181 0.929 . S
H197 C183 0.930 . S
Co198 N202 2.148 . S
Co198 N208 2.128 . S
Co198 N218 2.194 . S
Co198 O223 2.351 . S
Co198 O224 2.155 . S
Co198 O225 2.096 . S
C199 N202 1.301 . S
C199 N203 1.328 . S
C199 H204 0.930 . S
C200 C201 1.333 . S
C200 N202 1.317 . S
C200 H205 0.930 . S
C201 C200 1.333 . S
C201 N203 1.350 . S
C201 H227 0.931 . S
N202 Co198 2.148 . S
N202 C199 1.301 . S
N202 C200 1.317 . S
N203 C199 1.328 . S
N203 C201 1.350 . S
H204 C199 0.930 . S
H205 C200 0.930 . S
C206 O207 1.224 . S
C206 O225 1.247 . S
O207 C206 1.224 . S
N208 Co198 2.128 . S
N208 C209 1.355 . S
N208 C211 1.311 . S
C209 N208 1.355 . S
C209 C210 1.363 . S
C209 H221 0.929 . S
C210 C209 1.363 . S
C210 N212 1.375 . S
C210 H228 0.931 . S
C211 N208 1.311 . S
C211 N212 1.347 . S
C211 H222 0.929 . S
N212 C210 1.375 . S
N212 C211 1.347 . S
C213 C216 1.365 . S
C213 N218 1.328 . S
C213 H219 0.929 . S
C214 C215 1.362 . S
C214 C217 1.378 . S
C214 H229 0.929 . S
C215 C214 1.362 . S
C215 C216 1.366 . S
C216 C213 1.365 . S
C216 C215 1.366 . S
C216 H230 0.930 . S
C217 C214 1.378 . S
C217 N218 1.315 . S
C217 H220 0.930 . S
N218 Co198 2.194 . S
N218 C213 1.328 . S
N218 C217 1.315 . S
H219 C213 0.929 . S
H220 C217 0.930 . S
H221 C209 0.929 . S
H222 C211 0.929 . S
O223 Co198 2.351 . S
O223 C226 1.244 . S
O224 Co198 2.155 . S
O224 C226 1.240 . S
O225 Co198 2.096 . S
O225 C206 1.247 . S
C226 O223 1.244 . S
C226 O224 1.240 . S
H227 C201 0.931 . S
H228 C210 0.931 . S
H229 C214 0.929 . S
H230 C216 0.930 . S
Co231 N235 2.148 . S
Co231 N241 2.128 . S
Co231 N251 2.194 . S
Co231 O256 2.351 . S
Co231 O257 2.155 . S
Co231 O258 2.096 . S
C232 N235 1.301 . S
C232 N236 1.328 . S
C232 H237 0.930 . S
C233 C234 1.333 . S
C233 N235 1.317 . S
C233 H238 0.930 . S
C234 C233 1.333 . S
C234 N236 1.350 . S
C234 H260 0.931 . S
N235 Co231 2.148 . S
N235 C232 1.301 . S
N235 C233 1.317 . S
N236 C232 1.328 . S
N236 C234 1.350 . S
H237 C232 0.930 . S
H238 C233 0.930 . S
C239 O240 1.224 . S
C239 O258 1.247 1_455 S
O240 C239 1.224 . S
N241 Co231 2.128 . S
N241 C242 1.355 . S
N241 C244 1.311 . S
C242 N241 1.355 . S
C242 C243 1.363 . S
C242 H254 0.929 . S
C243 C242 1.363 . S
C243 N245 1.375 . S
C243 H261 0.931 . S
C244 N241 1.311 . S
C244 N245 1.347 . S
C244 H255 0.929 . S
N245 C243 1.375 . S
N245 C244 1.347 . S
C246 C249 1.365 . S
C246 N251 1.328 . S
C246 H252 0.929 . S
C247 C248 1.362 . S
C247 C250 1.378 . S
C247 H262 0.929 . S
C248 C247 1.362 . S
C248 C249 1.366 . S
C249 C246 1.365 . S
C249 C248 1.366 . S
C249 H263 0.930 . S
C250 C247 1.378 . S
C250 N251 1.315 . S
C250 H253 0.930 . S
N251 Co231 2.194 . S
N251 C246 1.328 . S
N251 C250 1.315 . S
H252 C246 0.929 . S
H253 C250 0.930 . S
H254 C242 0.929 . S
H255 C244 0.929 . S
O256 Co231 2.351 . S
O256 C259 1.244 . S
O257 Co231 2.155 . S
O257 C259 1.240 . S
O258 Co231 2.096 . S
O258 C239 1.247 1_655 S
C259 O256 1.244 . S
C259 O257 1.240 . S
H260 C234 0.931 . S
H261 C243 0.931 . S
H262 C247 0.929 . S
H263 C249 0.930 . S
Co264 N268 2.148 . S
Co264 N274 2.128 . S
Co264 N284 2.194 . S
Co264 O289 2.351 . S
Co264 O290 2.155 . S
Co264 O291 2.096 . S
C265 N268 1.301 . S
C265 N269 1.328 . S
C265 H270 0.930 . S
C266 C267 1.333 . S
C266 N268 1.317 . S
C266 H271 0.930 . S
C267 C266 1.333 . S
C267 N269 1.350 . S
C267 H293 0.931 . S
N268 Co264 2.148 . S
N268 C265 1.301 . S
N268 C266 1.317 . S
N269 C265 1.328 . S
N269 C267 1.350 . S
H270 C265 0.930 . S
H271 C266 0.930 . S
C272 O273 1.224 . S
C272 O291 1.247 1_545 S
O273 C272 1.224 . S
N274 Co264 2.128 . S
N274 C275 1.355 . S
N274 C277 1.311 . S
C275 N274 1.355 . S
C275 C276 1.363 . S
C275 H287 0.929 . S
C276 C275 1.363 . S
C276 N278 1.375 . S
C276 H294 0.931 . S
C277 N274 1.311 . S
C277 N278 1.347 . S
C277 H288 0.929 . S
N278 C276 1.375 . S
N278 C277 1.347 . S
C279 C282 1.365 . S
C279 N284 1.328 . S
C279 H285 0.929 . S
C280 C281 1.362 . S
C280 C283 1.378 . S
C280 H295 0.929 . S
C281 C280 1.362 . S
C281 C282 1.366 . S
C282 C279 1.365 . S
C282 C281 1.366 . S
C282 H296 0.930 . S
C283 C280 1.378 . S
C283 N284 1.315 . S
C283 H286 0.930 . S
N284 Co264 2.194 . S
N284 C279 1.328 . S
N284 C283 1.315 . S
H285 C279 0.929 . S
H286 C283 0.930 . S
H287 C275 0.929 . S
H288 C277 0.929 . S
O289 Co264 2.351 . S
O289 C292 1.244 . S
O290 Co264 2.155 . S
O290 C292 1.240 . S
O291 Co264 2.096 . S
O291 C272 1.247 1_565 S
C292 O289 1.244 . S
C292 O290 1.240 . S
H293 C267 0.931 . S
H294 C276 0.931 . S
H295 C280 0.929 . S
H296 C282 0.930 . S
Co297 N301 2.148 . S
Co297 N307 2.128 . S
Co297 N317 2.194 . S
Co297 O322 2.351 . S
Co297 O323 2.155 . S
Co297 O324 2.096 . S
C298 N301 1.301 . S
C298 N302 1.328 . S
C298 H303 0.930 . S
C299 C300 1.333 . S
C299 N301 1.317 . S
C299 H304 0.930 . S
C300 C299 1.333 . S
C300 N302 1.350 . S
C300 H326 0.931 . S
N301 Co297 2.148 . S
N301 C298 1.301 . S
N301 C299 1.317 . S
N302 C298 1.328 . S
N302 C300 1.350 . S
H303 C298 0.930 . S
H304 C299 0.930 . S
C305 O306 1.224 . S
C305 O324 1.247 . S
O306 C305 1.224 . S
N307 Co297 2.128 . S
N307 C308 1.355 . S
N307 C310 1.311 . S
C308 N307 1.355 . S
C308 C309 1.363 . S
C308 H320 0.929 . S
C309 C308 1.363 . S
C309 N311 1.375 . S
C309 H327 0.931 . S
C310 N307 1.311 . S
C310 N311 1.347 . S
C310 H321 0.929 . S
N311 C309 1.375 . S
N311 C310 1.347 . S
C312 C315 1.365 . S
C312 N317 1.328 . S
C312 H318 0.929 . S
C313 C314 1.362 . S
C313 C316 1.378 . S
C313 H328 0.929 . S
C314 C313 1.362 . S
C314 C315 1.366 . S
C315 C312 1.365 . S
C315 C314 1.366 . S
C315 H329 0.930 . S
C316 C313 1.378 . S
C316 N317 1.315 . S
C316 H319 0.930 . S
N317 Co297 2.194 . S
N317 C312 1.328 . S
N317 C316 1.315 . S
H318 C312 0.929 . S
H319 C316 0.930 . S
H320 C308 0.929 . S
H321 C310 0.929 . S
O322 Co297 2.351 . S
O322 C325 1.244 . S
O323 Co297 2.155 . S
O323 C325 1.240 . S
O324 Co297 2.096 . S
O324 C305 1.247 . S
C325 O322 1.244 . S
C325 O323 1.240 . S
H326 C300 0.931 . S
H327 C309 0.931 . S
H328 C313 0.929 . S
H329 C315 0.930 . S
Co330 N334 2.148 . S
Co330 N340 2.128 . S
Co330 N350 2.194 . S
Co330 O355 2.351 . S
Co330 O356 2.155 . S
Co330 O357 2.096 . S
C331 N334 1.301 . S
C331 N335 1.328 . S
C331 H336 0.930 . S
C332 C333 1.333 . S
C332 N334 1.317 . S
C332 H337 0.930 . S
C333 C332 1.333 . S
C333 N335 1.350 . S
C333 H359 0.931 . S
N334 Co330 2.148 . S
N334 C331 1.301 . S
N334 C332 1.317 . S
N335 C331 1.328 . S
N335 C333 1.350 . S
H336 C331 0.930 . S
H337 C332 0.930 . S
C338 O339 1.224 . S
C338 O357 1.247 1_655 S
O339 C338 1.224 . S
N340 Co330 2.128 . S
N340 C341 1.355 . S
N340 C343 1.311 . S
C341 N340 1.355 . S
C341 C342 1.363 . S
C341 H353 0.929 . S
C342 C341 1.363 . S
C342 N344 1.375 . S
C342 H360 0.931 . S
C343 N340 1.311 . S
C343 N344 1.347 . S
C343 H354 0.929 . S
N344 C342 1.375 . S
N344 C343 1.347 . S
C345 C348 1.365 . S
C345 N350 1.328 . S
C345 H351 0.929 . S
C346 C347 1.362 . S
C346 C349 1.378 . S
C346 H361 0.929 . S
C347 C346 1.362 . S
C347 C348 1.366 . S
C348 C345 1.365 . S
C348 C347 1.366 . S
C348 H362 0.930 . S
C349 C346 1.378 . S
C349 N350 1.315 . S
C349 H352 0.930 . S
N350 Co330 2.194 . S
N350 C345 1.328 . S
N350 C349 1.315 . S
H351 C345 0.929 . S
H352 C349 0.930 . S
H353 C341 0.929 . S
H354 C343 0.929 . S
O355 Co330 2.351 . S
O355 C358 1.244 . S
O356 Co330 2.155 . S
O356 C358 1.240 . S
O357 Co330 2.096 . S
O357 C338 1.247 1_455 S
C358 O355 1.244 . S
C358 O356 1.240 . S
H359 C333 0.931 . S
H360 C342 0.931 . S
H361 C346 0.929 . S
H362 C348 0.930 . S
Co363 N367 2.148 . S
Co363 N373 2.128 . S
Co363 N383 2.194 . S
Co363 O388 2.351 . S
Co363 O389 2.155 . S
Co363 O390 2.096 . S
C364 N367 1.301 . S
C364 N368 1.328 . S
C364 H369 0.930 . S
C365 C366 1.333 . S
C365 N367 1.317 . S
C365 H370 0.930 . S
C366 C365 1.333 . S
C366 N368 1.350 . S
C366 H392 0.931 . S
N367 Co363 2.148 . S
N367 C364 1.301 . S
N367 C365 1.317 . S
N368 C364 1.328 . S
N368 C366 1.350 . S
H369 C364 0.930 . S
H370 C365 0.930 . S
C371 O372 1.224 . S
C371 O390 1.247 1_565 S
O372 C371 1.224 . S
N373 Co363 2.128 . S
N373 C374 1.355 . S
N373 C376 1.311 . S
C374 N373 1.355 . S
C374 C375 1.363 . S
C374 H386 0.929 . S
C375 C374 1.363 . S
C375 N377 1.375 . S
C375 H393 0.931 . S
C376 N373 1.311 . S
C376 N377 1.347 . S
C376 H387 0.929 . S
N377 C375 1.375 . S
N377 C376 1.347 . S
C378 C381 1.365 . S
C378 N383 1.328 . S
C378 H384 0.929 . S
C379 C380 1.362 . S
C379 C382 1.378 . S
C379 H394 0.929 . S
C380 C379 1.362 . S
C380 C381 1.366 . S
C381 C378 1.365 . S
C381 C380 1.366 . S
C381 H395 0.930 . S
C382 C379 1.378 . S
C382 N383 1.315 . S
C382 H385 0.930 . S
N383 Co363 2.194 . S
N383 C378 1.328 . S
N383 C382 1.315 . S
H384 C378 0.929 . S
H385 C382 0.930 . S
H386 C374 0.929 . S
H387 C376 0.929 . S
O388 Co363 2.351 . S
O388 C391 1.244 . S
O389 Co363 2.155 . S
O389 C391 1.240 . S
O390 Co363 2.096 . S
O390 C371 1.247 1_545 S
C391 O388 1.244 . S
C391 O389 1.240 . S
H392 C366 0.931 . S
H393 C375 0.931 . S
H394 C379 0.929 . S
H395 C381 0.930 . S
C396 C397 1.391 . S
C396 C398 1.394 . S
C396 H412 0.931 . S
C397 C396 1.391 . S
C397 C401 1.376 . S
C398 C396 1.394 . S
C398 C399 1.369 . S
C398 C402 1.531 . S
C399 C398 1.369 . S
C399 C400 1.410 . S
C399 C407 1.503 . S
C400 C399 1.410 . S
C400 C401 1.392 . S
C400 C403 1.511 . S
C401 C397 1.376 . S
C401 C400 1.392 . S
C401 H413 0.929 . S
C402 C398 1.531 . S
C402 H414 0.960 . S
C402 H415 0.962 . S
C402 H416 0.960 . S
C403 C400 1.511 . S
C403 H417 0.961 . S
C403 H418 0.961 . S
C403 H419 0.961 . S
C404 C405 1.370 . S
C404 C406 1.363 . S
C404 H420 0.931 . S
C405 C404 1.370 . S
C405 C409 1.408 . S
C406 C404 1.363 . S
C406 C407 1.370 . S
C406 C410 1.524 . S
C407 C399 1.503 . S
C407 C406 1.370 . S
C407 C408 1.403 . S
C408 C407 1.403 . S
C408 C409 1.404 . S
C408 C411 1.539 . S
C409 C405 1.408 . S
C409 C408 1.404 . S
C409 H421 0.930 . S
C410 C406 1.524 . S
C410 H422 0.956 . S
C410 H423 0.961 . S
C410 H424 0.961 . S
C411 C408 1.539 . S
C411 H425 0.958 . S
C411 H426 0.961 . S
C411 H427 0.960 . S
H412 C396 0.931 . S
H413 C401 0.929 . S
H414 C402 0.960 . S
H415 C402 0.962 . S
H416 C402 0.960 . S
H417 C403 0.961 . S
H418 C403 0.961 . S
H419 C403 0.961 . S
H420 C404 0.931 . S
H421 C409 0.930 . S
H422 C410 0.956 . S
H423 C410 0.961 . S
H424 C410 0.961 . S
H425 C411 0.958 . S
H426 C411 0.961 . S
H427 C411 0.960 . S
C428 C429 1.391 1_455 S
C428 C430 1.394 . S
C428 H444 0.931 . S
C429 C428 1.391 1_655 S
C429 C433 1.376 . S
C430 C428 1.394 . S
C430 C431 1.369 1_455 S
C430 C434 1.531 . S
C431 C430 1.369 1_655 S
C431 C432 1.410 . S
C431 C439 1.503 1_655 S
C432 C431 1.410 . S
C432 C433 1.392 . S
C432 C435 1.511 . S
C433 C429 1.376 . S
C433 C432 1.392 . S
C433 H445 0.929 . S
C434 C430 1.531 . S
C434 H446 0.960 . S
C434 H447 0.962 . S
C434 H448 0.960 . S
C435 C432 1.511 . S
C435 H449 0.961 . S
C435 H450 0.961 . S
C435 H451 0.961 . S
C436 C437 1.370 . S
C436 C438 1.363 . S
C436 H452 0.931 . S
C437 C436 1.370 . S
C437 C441 1.408 . S
C438 C436 1.363 . S
C438 C439 1.370 . S
C438 C442 1.524 . S
C439 C431 1.503 1_455 S
C439 C438 1.370 . S
C439 C440 1.403 1_455 S
C440 C439 1.403 1_655 S
C440 C441 1.404 1_655 S
C440 C443 1.539 . S
C441 C437 1.408 . S
C441 C440 1.404 1_455 S
C441 H453 0.930 . S
C442 C438 1.524 . S
C442 H454 0.956 . S
C442 H455 0.961 . S
C442 H456 0.961 . S
C443 C440 1.539 . S
C443 H457 0.958 . S
C443 H458 0.961 . S
C443 H459 0.960 . S
H444 C428 0.931 . S
H445 C433 0.929 . S
H446 C434 0.960 . S
H447 C434 0.962 . S
H448 C434 0.960 . S
H449 C435 0.961 . S
H450 C435 0.961 . S
H451 C435 0.961 . S
H452 C436 0.931 . S
H453 C441 0.930 . S
H454 C442 0.956 . S
H455 C442 0.961 . S
H456 C442 0.961 . S
H457 C443 0.958 . S
H458 C443 0.961 . S
H459 C443 0.960 . S
C460 C461 1.391 . S
C460 C462 1.394 . S
C460 H476 0.931 . S
C461 C460 1.391 . S
C461 C465 1.376 . S
C462 C460 1.394 . S
C462 C463 1.369 . S
C462 C466 1.531 . S
C463 C462 1.369 . S
C463 C464 1.410 1_565 S
C463 C471 1.503 1_566 S
C464 C463 1.410 1_545 S
C464 C465 1.392 1_545 S
C464 C467 1.511 . S
C465 C461 1.376 . S
C465 C464 1.392 1_565 S
C465 H477 0.929 1_565 S
C466 C462 1.531 . S
C466 H478 0.960 1_556 S
C466 H479 0.962 . S
C466 H480 0.960 . S
C467 C464 1.511 . S
C467 H481 0.961 . S
C467 H482 0.961 . S
C467 H483 0.961 . S
C468 C469 1.370 . S
C468 C470 1.363 . S
C468 H484 0.931 . S
C469 C468 1.370 . S
C469 C473 1.408 1_545 S
C470 C468 1.363 . S
C470 C471 1.370 . S
C470 C474 1.554 . S
C471 C463 1.503 1_544 S
C471 C470 1.370 . S
C471 C472 1.403 1_545 S
C472 C471 1.403 1_565 S
C472 C473 1.404 . S
C472 C475 1.539 . S
C473 C469 1.408 1_565 S
C473 C472 1.404 . S
C473 H485 0.930 . S
C474 C470 1.554 . S
C474 H486 0.942 1_554 S
C474 H487 0.929 1_554 S
C474 H488 0.979 . S
C475 C472 1.539 . S
C475 H489 0.958 . S
C475 H490 0.961 . S
C475 H491 0.960 . S
H476 C460 0.931 . S
H477 C465 0.929 1_545 S
H478 C466 0.960 1_554 S
H479 C466 0.962 . S
H480 C466 0.960 . S
H481 C467 0.961 . S
H482 C467 0.961 . S
H483 C467 0.961 . S
H484 C468 0.931 . S
H485 C473 0.930 . S
H486 C474 0.942 1_556 S
H487 C474 0.929 1_556 S
H488 C474 0.979 . S
H489 C475 0.958 . S
H490 C475 0.961 . S
H491 C475 0.960 . S
C492 C493 1.391 . S
C492 C494 1.394 . S
C492 H508 0.931 . S
C493 C492 1.391 . S
C493 C497 1.376 . S
C494 C492 1.394 . S
C494 C495 1.369 . S
C494 C498 1.531 . S
C495 C494 1.369 . S
C495 C496 1.410 . S
C495 C503 1.503 . S
C496 C495 1.410 . S
C496 C497 1.392 . S
C496 C499 1.511 . S
C497 C493 1.376 . S
C497 C496 1.392 . S
C497 H509 0.929 . S
C498 C494 1.531 . S
C498 H510 0.960 . S
C498 H511 0.962 . S
C498 H512 0.960 . S
C499 C496 1.511 . S
C499 H513 0.961 . S
C499 H514 0.961 . S
C499 H515 0.961 . S
C500 C501 1.370 . S
C500 C502 1.363 . S
C500 H516 0.931 . S
C501 C500 1.370 . S
C501 C505 1.408 . S
C502 C500 1.363 . S
C502 C503 1.370 . S
C502 C506 1.524 . S
C503 C495 1.503 . S
C503 C502 1.370 . S
C503 C504 1.403 . S
C504 C503 1.403 . S
C504 C505 1.404 . S
C504 C507 1.539 . S
C505 C501 1.408 . S
C505 C504 1.404 . S
C505 H517 0.930 . S
C506 C502 1.524 . S
C506 H518 0.956 . S
C506 H519 0.961 . S
C506 H520 0.961 . S
C507 C504 1.539 . S
C507 H521 0.958 . S
C507 H522 0.961 . S
C507 H523 0.960 . S
H508 C492 0.931 . S
H509 C497 0.929 . S
H510 C498 0.960 . S
H511 C498 0.962 . S
H512 C498 0.960 . S
H513 C499 0.961 . S
H514 C499 0.961 . S
H515 C499 0.961 . S
H516 C500 0.931 . S
H517 C505 0.930 . S
H518 C506 0.956 . S
H519 C506 0.961 . S
H520 C506 0.961 . S
H521 C507 0.958 . S
H522 C507 0.961 . S
H523 C507 0.960 . S
C524 C525 1.391 . S
C524 C526 1.394 . S
C524 H540 0.931 . S
C525 C524 1.391 . S
C525 C529 1.376 1_455 S
C526 C524 1.394 . S
C526 C527 1.369 . S
C526 C530 1.531 . S
C527 C526 1.369 . S
C527 C528 1.410 1_455 S
C527 C535 1.503 1_455 S
C528 C527 1.410 1_655 S
C528 C529 1.392 . S
C528 C531 1.511 . S
C529 C525 1.376 1_655 S
C529 C528 1.392 . S
C529 H541 0.929 . S
C530 C526 1.531 . S
C530 H542 0.960 . S
C530 H543 0.962 . S
C530 H544 0.960 . S
C531 C528 1.511 . S
C531 H545 0.961 . S
C531 H546 0.961 . S
C531 H547 0.961 . S
C532 C533 1.370 . S
C532 C534 1.363 . S
C532 H548 0.931 . S
C533 C532 1.370 . S
C533 C537 1.408 . S
C534 C532 1.363 . S
C534 C535 1.370 . S
C534 C538 1.524 . S
C535 C527 1.503 1_655 S
C535 C534 1.370 . S
C535 C536 1.403 . S
C536 C535 1.403 . S
C536 C537 1.404 . S
C536 C539 1.539 . S
C537 C533 1.408 . S
C537 C536 1.404 . S
C537 H549 0.930 . S
C538 C534 1.524 . S
C538 H550 0.956 1_655 S
C538 H551 0.961 . S
C538 H552 0.961 . S
C539 C536 1.539 . S
C539 H553 0.958 1_655 S
C539 H554 0.961 . S
C539 H555 0.960 . S
H540 C524 0.931 . S
H541 C529 0.929 . S
H542 C530 0.960 . S
H543 C530 0.962 . S
H544 C530 0.960 . S
H545 C531 0.961 . S
H546 C531 0.961 . S
H547 C531 0.961 . S
H548 C532 0.931 . S
H549 C537 0.930 . S
H550 C538 0.956 1_455 S
H551 C538 0.961 . S
H552 C538 0.961 . S
H553 C539 0.958 1_455 S
H554 C539 0.961 . S
H555 C539 0.960 . S
C556 C557 1.391 . S
C556 C558 1.394 . S
C556 H572 0.931 . S
C557 C556 1.391 . S
C557 C561 1.376 . S
C558 C556 1.394 . S
C558 C559 1.369 . S
C558 C562 1.531 . S
C559 C558 1.369 . S
C559 C560 1.410 1_545 S
C559 C567 1.497 1_546 S
C560 C559 1.410 1_565 S
C560 C561 1.392 1_565 S
C560 C563 1.511 . S
C561 C557 1.376 . S
C561 C560 1.392 1_545 S
C561 H573 0.929 1_545 S
C562 C558 1.531 . S
C562 H574 0.960 1_556 S
C562 H575 0.962 . S
C562 H576 0.960 . S
C563 C560 1.511 . S
C563 H577 0.961 . S
C563 H578 0.961 . S
C563 H579 0.961 . S
C564 C565 1.370 . S
C564 C566 1.363 . S
C564 H580 0.931 . S
C565 C564 1.370 . S
C565 C569 1.408 1_565 S
C566 C564 1.363 . S
C566 C567 1.393 . S
C566 C570 1.526 . S
C567 C559 1.497 1_564 S
C567 C566 1.393 . S
C567 C568 1.387 1_565 S
C568 C567 1.387 1_545 S
C568 C569 1.404 . S
C568 C571 1.539 . S
C569 C565 1.408 1_545 S
C569 C568 1.404 . S
C569 H581 0.930 . S
C570 C566 1.526 . S
C570 H582 0.955 1_554 S
C570 H583 0.958 1_554 S
C570 H584 0.962 . S
C571 C568 1.539 . S
C571 H585 0.958 . S
C571 H586 0.961 . S
C571 H587 0.960 . S
H572 C556 0.931 . S
H573 C561 0.929 1_565 S
H574 C562 0.960 1_554 S
H575 C562 0.962 . S
H576 C562 0.960 . S
H577 C563 0.961 . S
H578 C563 0.961 . S
H579 C563 0.961 . S
H580 C564 0.931 . S
H581 C569 0.930 . S
H582 C570 0.955 1_556 S
H583 C570 0.958 1_556 S
H584 C570 0.962 . S
H585 C571 0.958 . S
H586 C571 0.961 . S
H587 C571 0.960 . S
C588 C589 1.391 . S
C588 C590 1.394 . S
C588 H604 0.931 . S
C589 C588 1.391 . S
C589 C593 1.376 . S
C590 C588 1.394 . S
C590 C591 1.369 . S
C590 C594 1.531 . S
C591 C590 1.369 . S
C591 C592 1.410 . S
C591 C599 1.503 1_556 S
C592 C591 1.410 . S
C592 C593 1.392 . S
C592 C595 1.511 . S
C593 C589 1.376 . S
C593 C592 1.392 . S
C593 H605 0.929 . S
C594 C590 1.531 . S
C594 H606 0.960 1_556 S
C594 H607 0.962 . S
C594 H608 0.960 . S
C595 C592 1.511 . S
C595 H609 0.961 . S
C595 H610 0.961 1_556 S
C595 H611 0.961 . S
C596 C597 1.370 . S
C596 C598 1.363 . S
C596 H612 0.931 . S
C597 C596 1.370 . S
C597 C601 1.408 . S
C598 C596 1.363 . S
C598 C599 1.370 . S
C598 C602 1.524 1_554 S
C599 C591 1.503 1_554 S
C599 C598 1.370 . S
C599 C600 1.403 . S
C600 C599 1.403 . S
C600 C601 1.404 . S
C600 C603 1.539 . S
C601 C597 1.408 . S
C601 C600 1.404 . S
C601 H613 0.930 . S
C602 C598 1.524 1_556 S
C602 H614 0.956 . S
C602 H615 0.961 . S
C602 H616 0.964 . S
C603 C600 1.539 . S
C603 H617 0.958 . S
C603 H618 0.961 . S
C603 H619 0.960 . S
H604 C588 0.931 . S
H605 C593 0.929 . S
H606 C594 0.960 1_554 S
H607 C594 0.962 . S
H608 C594 0.960 . S
H609 C595 0.961 . S
H610 C595 0.961 1_554 S
H611 C595 0.961 . S
H612 C596 0.931 . S
H613 C601 0.930 . S
H614 C602 0.956 . S
H615 C602 0.961 . S
H616 C602 0.964 . S
H617 C603 0.958 . S
H618 C603 0.961 . S
H619 C603 0.960 . S
C620 C621 1.391 . S
C620 C622 1.394 . S
C620 H636 0.931 . S
C621 C620 1.391 . S
C621 C625 1.376 . S
C622 C620 1.394 . S
C622 C623 1.369 . S
C622 C626 1.531 . S
C623 C622 1.369 . S
C623 C624 1.410 . S
C623 C631 1.503 . S
C624 C623 1.410 . S
C624 C625 1.392 . S
C624 C627 1.511 . S
C625 C621 1.376 . S
C625 C624 1.392 . S
C625 H637 0.929 . S
C626 C622 1.531 . S
C626 H638 0.960 . S
C626 H639 0.962 . S
C626 H640 0.960 . S
C627 C624 1.511 . S
C627 H641 0.961 . S
C627 H642 0.961 . S
C627 H643 0.961 . S
C628 C629 1.370 . S
C628 C630 1.363 . S
C628 H644 0.931 . S
C629 C628 1.370 . S
C629 C633 1.408 . S
C630 C628 1.363 . S
C630 C631 1.370 . S
C630 C634 1.524 . S
C631 C623 1.503 . S
C631 C630 1.370 . S
C631 C632 1.403 . S
C632 C631 1.403 . S
C632 C633 1.404 . S
C632 C635 1.539 . S
C633 C629 1.408 . S
C633 C632 1.404 . S
C633 H645 0.930 . S
C634 C630 1.524 . S
C634 H646 0.956 . S
C634 H647 0.961 . S
C634 H648 0.961 . S
C635 C632 1.539 . S
C635 H649 0.958 . S
C635 H650 0.961 . S
C635 H651 0.960 . S
H636 C620 0.931 . S
H637 C625 0.929 . S
H638 C626 0.960 . S
H639 C626 0.962 . S
H640 C626 0.960 . S
H641 C627 0.961 . S
H642 C627 0.961 . S
H643 C627 0.961 . S
H644 C628 0.931 . S
H645 C633 0.930 . S
H646 C634 0.956 . S
H647 C634 0.961 . S
H648 C634 0.961 . S
H649 C635 0.958 . S
H650 C635 0.961 . S
H651 C635 0.960 . S
C652 C653 1.391 . S
C652 C654 1.394 . S
C652 H668 0.931 . S
C653 C652 1.391 . S
C653 C657 1.376 . S
C654 C652 1.394 . S
C654 C655 1.369 . S
C654 C658 1.531 . S
C655 C654 1.369 . S
C655 C656 1.410 . S
C655 C663 1.503 . S
C656 C655 1.410 . S
C656 C657 1.392 . S
C656 C659 1.511 . S
C657 C653 1.376 . S
C657 C656 1.392 . S
C657 H669 0.929 . S
C658 C654 1.531 . S
C658 H670 0.960 . S
C658 H671 0.962 . S
C658 H672 0.960 . S
C659 C656 1.511 . S
C659 H673 0.961 . S
C659 H674 0.961 . S
C659 H675 0.961 . S
C660 C661 1.370 . S
C660 C662 1.363 . S
C660 H676 0.931 . S
C661 C660 1.370 . S
C661 C665 1.408 . S
C662 C660 1.363 . S
C662 C663 1.370 . S
C662 C666 1.524 . S
C663 C655 1.503 . S
C663 C662 1.370 . S
C663 C664 1.403 . S
C664 C663 1.403 . S
C664 C665 1.404 . S
C664 C667 1.539 . S
C665 C661 1.408 . S
C665 C664 1.404 . S
C665 H677 0.930 . S
C666 C662 1.524 . S
C666 H678 0.956 . S
C666 H679 0.961 . S
C666 H680 0.961 . S
C667 C664 1.539 . S
C667 H681 0.958 . S
C667 H682 0.961 . S
C667 H683 0.960 . S
H668 C652 0.931 . S
H669 C657 0.929 . S
H670 C658 0.960 . S
H671 C658 0.962 . S
H672 C658 0.960 . S
H673 C659 0.961 . S
H674 C659 0.961 . S
H675 C659 0.961 . S
H676 C660 0.931 . S
H677 C665 0.930 . S
H678 C666 0.956 . S
H679 C666 0.961 . S
H680 C666 0.961 . S
H681 C667 0.958 . S
H682 C667 0.961 . S
H683 C667 0.960 . S
C684 C685 1.391 . S
C684 C686 1.394 . S
C684 H700 0.931 . S
C685 C684 1.391 . S
C685 C689 1.376 . S
C686 C684 1.394 . S
C686 C687 1.369 . S
C686 C690 1.531 . S
C687 C686 1.369 . S
C687 C688 1.410 . S
C687 C695 1.503 1_556 S
C688 C687 1.410 . S
C688 C689 1.392 . S
C688 C691 1.511 1_556 S
C689 C685 1.376 . S
C689 C688 1.392 . S
C689 H701 0.929 . S
C690 C686 1.531 . S
C690 H702 0.960 . S
C690 H703 0.962 . S
C690 H704 0.960 . S
C691 C688 1.511 1_554 S
C691 H705 0.957 1_554 S
C691 H706 0.961 . S
C691 H707 0.961 . S
C692 C693 1.370 . S
C692 C694 1.363 . S
C692 H708 0.931 . S
C693 C692 1.370 . S
C693 C697 1.408 . S
C694 C692 1.363 . S
C694 C695 1.370 . S
C694 C698 1.524 . S
C695 C687 1.503 1_554 S
C695 C694 1.370 . S
C695 C696 1.403 . S
C696 C695 1.403 . S
C696 C697 1.404 . S
C696 C699 1.539 . S
C697 C693 1.408 . S
C697 C696 1.404 . S
C697 H709 0.930 . S
C698 C694 1.524 . S
C698 H710 0.956 1_554 S
C698 H711 0.961 . S
C698 H712 0.961 . S
C699 C696 1.539 . S
C699 H713 0.958 . S
C699 H714 0.961 . S
C699 H715 0.960 . S
H700 C684 0.931 . S
H701 C689 0.929 . S
H702 C690 0.960 . S
H703 C690 0.962 . S
H704 C690 0.960 . S
H705 C691 0.957 1_556 S
H706 C691 0.961 . S
H707 C691 0.961 . S
H708 C692 0.931 . S
H709 C697 0.930 . S
H710 C698 0.956 1_556 S
H711 C698 0.961 . S
H712 C698 0.961 . S
H713 C699 0.958 . S
H714 C699 0.961 . S
H715 C699 0.960 . S
C716 C717 1.391 . S
C716 C718 1.394 . S
C716 H732 0.931 . S
C717 C716 1.391 . S
C717 C721 1.376 . S
C718 C716 1.394 . S
C718 C719 1.369 . S
C718 C722 1.531 . S
C719 C718 1.369 . S
C719 C720 1.410 . S
C719 C727 1.503 . S
C720 C719 1.410 . S
C720 C721 1.392 . S
C720 C723 1.511 . S
C721 C717 1.376 . S
C721 C720 1.392 . S
C721 H733 0.929 . S
C722 C718 1.531 . S
C722 H734 0.960 . S
C722 H735 0.962 . S
C722 H736 0.960 . S
C723 C720 1.511 . S
C723 H737 0.961 . S
C723 H738 0.961 . S
C723 H739 0.961 . S
C724 C725 1.370 . S
C724 C726 1.363 . S
C724 H740 0.931 . S
C725 C724 1.370 . S
C725 C729 1.408 . S
C726 C724 1.363 . S
C726 C727 1.370 . S
C726 C730 1.524 . S
C727 C719 1.503 . S
C727 C726 1.370 . S
C727 C728 1.403 . S
C728 C727 1.403 . S
C728 C729 1.404 . S
C728 C731 1.539 . S
C729 C725 1.408 . S
C729 C728 1.404 . S
C729 H741 0.930 . S
C730 C726 1.524 . S
C730 H742 0.956 . S
C730 H743 0.961 . S
C730 H744 0.961 . S
C731 C728 1.539 . S
C731 H745 0.958 . S
C731 H746 0.961 . S
C731 H747 0.960 . S
H732 C716 0.931 . S
H733 C721 0.929 . S
H734 C722 0.960 . S
H735 C722 0.962 . S
H736 C722 0.960 . S
H737 C723 0.961 . S
H738 C723 0.961 . S
H739 C723 0.961 . S
H740 C724 0.931 . S
H741 C729 0.930 . S
H742 C730 0.956 . S
H743 C730 0.961 . S
H744 C730 0.961 . S
H745 C731 0.958 . S
H746 C731 0.961 . S
H747 C731 0.960 . S
C748 C749 1.391 . S
C748 C750 1.394 . S
C748 H764 0.931 . S
C749 C748 1.391 . S
C749 C753 1.376 . S
C750 C748 1.394 . S
C750 C751 1.369 . S
C750 C754 1.531 . S
C751 C750 1.369 . S
C751 C752 1.410 . S
C751 C759 1.503 . S
C752 C751 1.410 . S
C752 C753 1.392 . S
C752 C755 1.511 . S
C753 C749 1.376 . S
C753 C752 1.392 . S
C753 H765 0.929 . S
C754 C750 1.531 . S
C754 H766 0.960 . S
C754 H767 0.962 . S
C754 H768 0.960 . S
C755 C752 1.511 . S
C755 H769 0.961 . S
C755 H770 0.961 . S
C755 H771 0.961 . S
C756 C757 1.370 . S
C756 C758 1.363 . S
C756 H772 0.931 . S
C757 C756 1.370 . S
C757 C761 1.408 . S
C758 C756 1.363 . S
C758 C759 1.370 . S
C758 C762 1.524 . S
C759 C751 1.503 . S
C759 C758 1.370 . S
C759 C760 1.403 . S
C760 C759 1.403 . S
C760 C761 1.404 . S
C760 C763 1.539 . S
C761 C757 1.408 . S
C761 C760 1.404 . S
C761 H773 0.930 . S
C762 C758 1.524 . S
C762 H774 0.956 . S
C762 H775 0.961 . S
C762 H776 0.961 . S
C763 C760 1.539 . S
C763 H777 0.958 . S
C763 H778 0.961 . S
C763 H779 0.960 . S
H764 C748 0.931 . S
H765 C753 0.929 . S
H766 C754 0.960 . S
H767 C754 0.962 . S
H768 C754 0.960 . S
H769 C755 0.961 . S
H770 C755 0.961 . S
H771 C755 0.961 . S
H772 C756 0.931 . S
H773 C761 0.930 . S
H774 C762 0.956 . S
H775 C762 0.961 . S
H776 C762 0.961 . S
H777 C763 0.958 . S
H778 C763 0.961 . S
H779 C763 0.960 . S
C780 C781 1.391 . S
C780 C782 1.394 . S
C780 H796 0.931 . S
C781 C780 1.391 . S
C781 C785 1.376 . S
C782 C780 1.394 . S
C782 C783 1.369 . S
C782 C786 1.531 . S
C783 C782 1.369 . S
C783 C784 1.410 . S
C783 C791 1.503 . S
C784 C783 1.410 . S
C784 C785 1.392 . S
C784 C787 1.511 . S
C785 C781 1.376 . S
C785 C784 1.392 . S
C785 H797 0.929 . S
C786 C782 1.531 . S
C786 H798 0.960 . S
C786 H799 0.962 . S
C786 H800 0.960 . S
C787 C784 1.511 . S
C787 H801 0.961 . S
C787 H802 0.961 . S
C787 H803 0.961 . S
C788 C789 1.370 . S
C788 C790 1.363 . S
C788 H804 0.931 . S
C789 C788 1.370 . S
C789 C793 1.408 . S
C790 C788 1.363 . S
C790 C791 1.370 . S
C790 C794 1.524 . S
C791 C783 1.503 . S
C791 C790 1.370 . S
C791 C792 1.403 . S
C792 C791 1.403 . S
C792 C793 1.404 . S
C792 C795 1.539 . S
C793 C789 1.408 . S
C793 C792 1.404 . S
C793 H805 0.930 . S
C794 C790 1.524 . S
C794 H806 0.956 . S
C794 H807 0.961 . S
C794 H808 0.961 . S
C795 C792 1.539 . S
C795 H809 0.958 . S
C795 H810 0.961 . S
C795 H811 0.960 . S
H796 C780 0.931 . S
H797 C785 0.929 . S
H798 C786 0.960 . S
H799 C786 0.962 . S
H800 C786 0.960 . S
H801 C787 0.961 . S
H802 C787 0.961 . S
H803 C787 0.961 . S
H804 C788 0.931 . S
H805 C793 0.930 . S
H806 C794 0.956 . S
H807 C794 0.961 . S
H808 C794 0.961 . S
H809 C795 0.958 . S
H810 C795 0.961 . S
H811 C795 0.960 . S
C812 C813 1.391 . S
C812 C814 1.394 . S
C812 H828 0.931 . S
C813 C812 1.391 . S
C813 C817 1.376 . S
C814 C812 1.394 . S
C814 C815 1.369 . S
C814 C818 1.531 . S
C815 C814 1.369 . S
C815 C816 1.410 1_655 S
C815 C823 1.503 1_655 S
C816 C815 1.410 1_455 S
C816 C817 1.392 1_455 S
C816 C819 1.511 . S
C817 C813 1.376 . S
C817 C816 1.392 1_655 S
C817 H829 0.929 . S
C818 C814 1.531 . S
C818 H830 0.960 . S
C818 H831 0.962 . S
C818 H832 0.960 . S
C819 C816 1.511 . S
C819 H833 0.961 . S
C819 H834 0.961 . S
C819 H835 0.961 . S
C820 C821 1.370 . S
C820 C822 1.363 . S
C820 H836 0.931 . S
C821 C820 1.370 . S
C821 C825 1.408 . S
C822 C820 1.363 . S
C822 C823 1.370 . S
C822 C826 1.524 1_455 S
C823 C815 1.503 1_455 S
C823 C822 1.370 . S
C823 C824 1.403 . S
C824 C823 1.403 . S
C824 C825 1.404 . S
C824 C827 1.539 . S
C825 C821 1.408 . S
C825 C824 1.404 . S
C825 H837 0.930 . S
C826 C822 1.524 1_655 S
C826 H838 0.956 . S
C826 H839 0.961 . S
C826 H840 0.961 . S
C827 C824 1.539 . S
C827 H841 0.958 . S
C827 H842 0.961 . S
C827 H843 0.960 . S
H828 C812 0.931 . S
H829 C817 0.929 . S
H830 C818 0.960 . S
H831 C818 0.962 . S
H832 C818 0.960 . S
H833 C819 0.961 . S
H834 C819 0.961 . S
H835 C819 0.961 . S
H836 C820 0.931 . S
H837 C825 0.930 . S
H838 C826 0.956 . S
H839 C826 0.961 . S
H840 C826 0.961 . S
H841 C827 0.958 . S
H842 C827 0.961 . S
H843 C827 0.960 . S
C844 C845 1.391 . S
C844 C846 1.394 . S
C844 H860 0.931 . S
C845 C844 1.391 . S
C845 C849 1.376 . S
C846 C844 1.394 . S
C846 C847 1.369 . S
C846 C850 1.531 . S
C847 C846 1.369 . S
C847 C848 1.410 1_545 S
C847 C855 1.503 1_545 S
C848 C847 1.410 1_565 S
C848 C849 1.392 1_565 S
C848 C851 1.511 . S
C849 C845 1.376 . S
C849 C848 1.392 1_545 S
C849 H861 0.929 . S
C850 C846 1.531 . S
C850 H862 0.960 . S
C850 H863 0.962 . S
C850 H864 0.960 . S
C851 C848 1.511 . S
C851 H865 0.961 . S
C851 H866 0.961 . S
C851 H867 0.961 . S
C852 C853 1.370 . S
C852 C854 1.363 . S
C852 H868 0.931 . S
C853 C852 1.370 . S
C853 C857 1.408 . S
C854 C852 1.363 . S
C854 C855 1.370 . S
C854 C858 1.524 . S
C855 C847 1.503 1_565 S
C855 C854 1.370 . S
C855 C856 1.403 . S
C856 C855 1.403 . S
C856 C857 1.404 . S
C856 C859 1.539 . S
C857 C853 1.408 . S
C857 C856 1.404 . S
C857 H869 0.930 . S
C858 C854 1.524 . S
C858 H870 0.956 1_565 S
C858 H871 0.961 . S
C858 H872 0.961 . S
C859 C856 1.539 . S
C859 H873 0.970 . S
C859 H874 0.961 . S
C859 H875 0.960 . S
H860 C844 0.931 . S
H861 C849 0.929 . S
H862 C850 0.960 . S
H863 C850 0.962 . S
H864 C850 0.960 . S
H865 C851 0.961 . S
H866 C851 0.961 . S
H867 C851 0.961 . S
H868 C852 0.931 . S
H869 C857 0.930 . S
H870 C858 0.956 1_545 S
H871 C858 0.961 . S
H872 C858 0.961 . S
H873 C859 0.970 . S
H874 C859 0.961 . S
H875 C859 0.960 . S
C876 C877 1.391 . S
C876 C878 1.394 . S
C876 H892 0.931 . S
C877 C876 1.391 . S
C877 C881 1.376 . S
C878 C876 1.394 . S
C878 C879 1.369 . S
C878 C882 1.531 . S
C879 C878 1.369 . S
C879 C880 1.410 . S
C879 C887 1.503 . S
C880 C879 1.410 . S
C880 C881 1.392 . S
C880 C883 1.511 . S
C881 C877 1.376 . S
C881 C880 1.392 . S
C881 H893 0.929 . S
C882 C878 1.531 . S
C882 H894 0.960 . S
C882 H895 0.962 . S
C882 H896 0.960 . S
C883 C880 1.511 . S
C883 H897 0.961 . S
C883 H898 0.961 . S
C883 H899 0.961 . S
C884 C885 1.370 . S
C884 C886 1.363 . S
C884 H900 0.931 . S
C885 C884 1.370 . S
C885 C889 1.408 . S
C886 C884 1.363 . S
C886 C887 1.370 . S
C886 C890 1.524 . S
C887 C879 1.503 . S
C887 C886 1.370 . S
C887 C888 1.403 . S
C888 C887 1.403 . S
C888 C889 1.404 . S
C888 C891 1.539 . S
C889 C885 1.408 . S
C889 C888 1.404 . S
C889 H901 0.930 . S
C890 C886 1.524 . S
C890 H902 0.956 . S
C890 H903 0.961 . S
C890 H904 0.961 . S
C891 C888 1.539 . S
C891 H905 0.958 . S
C891 H906 0.961 . S
C891 H907 0.960 . S
H892 C876 0.931 . S
H893 C881 0.929 . S
H894 C882 0.960 . S
H895 C882 0.962 . S
H896 C882 0.960 . S
H897 C883 0.961 . S
H898 C883 0.961 . S
H899 C883 0.961 . S
H900 C884 0.931 . S
H901 C889 0.930 . S
H902 C890 0.956 . S
H903 C890 0.961 . S
H904 C890 0.961 . S
H905 C891 0.958 . S
H906 C891 0.961 . S
H907 C891 0.960 . S
C908 C909 1.391 . S
C908 C910 1.394 . S
C908 H924 0.931 . S
C909 C908 1.391 . S
C909 C913 1.376 . S
C910 C908 1.394 . S
C910 C911 1.369 . S
C910 C914 1.531 . S
C911 C910 1.369 . S
C911 C912 1.410 . S
C911 C919 1.503 1_655 S
C912 C911 1.410 . S
C912 C913 1.392 . S
C912 C915 1.511 . S
C913 C909 1.376 . S
C913 C912 1.392 . S
C913 H925 0.929 . S
C914 C910 1.531 . S
C914 H926 0.960 1_655 S
C914 H927 0.962 . S
C914 H928 0.960 . S
C915 C912 1.511 . S
C915 H929 0.961 . S
C915 H930 0.956 1_655 S
C915 H931 0.961 1_655 S
C916 C917 1.370 . S
C916 C918 1.363 . S
C916 H932 0.931 . S
C917 C916 1.370 . S
C917 C921 1.408 . S
C918 C916 1.363 . S
C918 C919 1.370 . S
C918 C922 1.524 1_455 S
C919 C911 1.503 1_455 S
C919 C918 1.370 . S
C919 C920 1.403 . S
C920 C919 1.403 . S
C920 C921 1.404 . S
C920 C923 1.539 . S
C921 C917 1.408 . S
C921 C920 1.404 . S
C921 H933 0.930 . S
C922 C918 1.524 1_655 S
C922 H934 0.956 . S
C922 H935 0.961 . S
C922 H936 0.961 . S
C923 C920 1.539 . S
C923 H937 0.958 . S
C923 H938 0.961 . S
C923 H939 0.960 . S
H924 C908 0.931 . S
H925 C913 0.929 . S
H926 C914 0.960 1_455 S
H927 C914 0.962 . S
H928 C914 0.960 . S
H929 C915 0.961 . S
H930 C915 0.956 1_455 S
H931 C915 0.961 1_455 S
H932 C916 0.931 . S
H933 C921 0.930 . S
H934 C922 0.956 . S
H935 C922 0.961 . S
H936 C922 0.961 . S
H937 C923 0.958 . S
H938 C923 0.961 . S
H939 C923 0.960 . S
C940 C941 1.391 . S
C940 C942 1.394 . S
C940 H956 0.931 . S
C941 C940 1.391 . S
C941 C945 1.376 . S
C942 C940 1.394 . S
C942 C943 1.369 . S
C942 C946 1.531 . S
C943 C942 1.369 . S
C943 C944 1.410 1_545 S
C943 C951 1.503 1_545 S
C944 C943 1.410 1_565 S
C944 C945 1.392 1_565 S
C944 C947 1.511 . S
C945 C941 1.376 . S
C945 C944 1.392 1_545 S
C945 H957 0.929 . S
C946 C942 1.531 . S
C946 H958 0.960 . S
C946 H959 0.962 . S
C946 H960 0.960 . S
C947 C944 1.511 . S
C947 H961 0.961 . S
C947 H962 0.961 . S
C947 H963 0.961 . S
C948 C949 1.370 . S
C948 C950 1.363 . S
C948 H964 0.931 . S
C949 C948 1.370 . S
C949 C953 1.408 . S
C950 C948 1.363 . S
C950 C951 1.370 . S
C950 C954 1.524 . S
C951 C943 1.503 1_565 S
C951 C950 1.370 . S
C951 C952 1.403 . S
C952 C951 1.403 . S
C952 C953 1.404 . S
C952 C955 1.539 . S
C953 C949 1.408 . S
C953 C952 1.404 . S
C953 H965 0.930 . S
C954 C950 1.524 . S
C954 H966 0.956 1_565 S
C954 H967 0.961 . S
C954 H968 0.961 . S
C955 C952 1.539 . S
C955 H969 0.958 1_565 S
C955 H970 0.961 . S
C955 H971 0.960 . S
H956 C940 0.931 . S
H957 C945 0.929 . S
H958 C946 0.960 . S
H959 C946 0.962 . S
H960 C946 0.960 . S
H961 C947 0.961 . S
H962 C947 0.961 . S
H963 C947 0.961 . S
H964 C948 0.931 . S
H965 C953 0.930 . S
H966 C954 0.956 1_545 S
H967 C954 0.961 . S
H968 C954 0.961 . S
H969 C955 0.958 1_545 S
H970 C955 0.961 . S
H971 C955 0.960 . S
C972 C973 1.391 . S
C972 C974 1.394 . S
C972 H988 0.931 . S
C973 C972 1.391 . S
C973 C977 1.376 . S
C974 C972 1.394 . S
C974 C975 1.369 . S
C974 C978 1.531 . S
C975 C974 1.369 . S
C975 C976 1.410 . S
C975 C983 1.503 1_455 S
C976 C975 1.410 . S
C976 C977 1.392 . S
C976 C979 1.511 . S
C977 C973 1.376 . S
C977 C976 1.392 . S
C977 H989 0.929 . S
C978 C974 1.531 . S
C978 H990 0.960 1_455 S
C978 H991 0.962 . S
C978 H992 0.960 . S
C979 C976 1.511 . S
C979 H993 0.961 . S
C979 H994 0.961 1_455 S
C979 H995 0.961 . S
C980 C981 1.370 . S
C980 C982 1.363 . S
C980 H996 0.931 . S
C981 C980 1.370 . S
C981 C985 1.408 . S
C982 C980 1.363 . S
C982 C983 1.370 . S
C982 C986 1.524 . S
C983 C975 1.503 1_655 S
C983 C982 1.370 . S
C983 C984 1.403 . S
C984 C983 1.403 . S
C984 C985 1.404 . S
C984 C987 1.539 . S
C985 C981 1.408 . S
C985 C984 1.404 . S
C985 H997 0.930 . S
C986 C982 1.524 . S
C986 H998 0.955 1_655 S
C986 H999 0.961 1_655 S
C986 H1000 0.961 . S
C987 C984 1.539 . S
C987 H1001 0.958 . S
C987 H1002 0.961 . S
C987 H1003 0.960 . S
H988 C972 0.931 . S
H989 C977 0.929 . S
H990 C978 0.960 1_655 S
H991 C978 0.962 . S
H992 C978 0.960 . S
H993 C979 0.961 . S
H994 C979 0.961 1_655 S
H995 C979 0.961 . S
H996 C980 0.931 . S
H997 C985 0.930 . S
H998 C986 0.955 1_455 S
H999 C986 0.961 1_455 S
H1000 C986 0.961 . S
H1001 C987 0.958 . S
H1002 C987 0.961 . S
H1003 C987 0.960 . S
C1004 C1005 1.391 . S
C1004 C1006 1.394 . S
C1004 H1020 0.931 . S
C1005 C1004 1.391 . S
C1005 C1009 1.376 . S
C1006 C1004 1.394 . S
C1006 C1007 1.369 . S
C1006 C1010 1.531 . S
C1007 C1006 1.369 . S
C1007 C1008 1.410 . S
C1007 C1015 1.503 1_565 S
C1008 C1007 1.410 . S
C1008 C1009 1.392 . S
C1008 C1011 1.511 . S
C1009 C1005 1.376 . S
C1009 C1008 1.392 . S
C1009 H1021 0.929 . S
C1010 C1006 1.531 . S
C1010 H1022 0.960 1_565 S
C1010 H1023 0.962 . S
C1010 H1024 0.960 . S
C1011 C1008 1.511 . S
C1011 H1025 0.961 . S
C1011 H1026 0.961 1_565 S
C1011 H1027 0.961 . S
C1012 C1013 1.370 . S
C1012 C1014 1.363 . S
C1012 H1028 0.931 . S
C1013 C1012 1.370 . S
C1013 C1017 1.408 . S
C1014 C1012 1.363 . S
C1014 C1015 1.370 . S
C1014 C1018 1.524 . S
C1015 C1007 1.503 1_545 S
C1015 C1014 1.370 . S
C1015 C1016 1.403 . S
C1016 C1015 1.403 . S
C1016 C1017 1.404 . S
C1016 C1019 1.539 . S
C1017 C1013 1.408 . S
C1017 C1016 1.404 . S
C1017 H1029 0.930 . S
C1018 C1014 1.524 . S
C1018 H1030 0.956 . S
C1018 H1031 0.961 1_545 S
C1018 H1032 0.961 . S
C1019 C1016 1.539 . S
C1019 H1033 0.958 . S
C1019 H1034 0.961 . S
C1019 H1035 0.967 . S
H1020 C1004 0.931 . S
H1021 C1009 0.929 . S
H1022 C1010 0.960 1_545 S
H1023 C1010 0.962 . S
H1024 C1010 0.960 . S
H1025 C1011 0.961 . S
H1026 C1011 0.961 1_545 S
H1027 C1011 0.961 . S
H1028 C1012 0.931 . S
H1029 C1017 0.930 . S
H1030 C1018 0.956 . S
H1031 C1018 0.961 1_565 S
H1032 C1018 0.961 . S
H1033 C1019 0.958 . S
H1034 C1019 0.961 . S
H1035 C1019 0.967 . S
C1036 C1037 1.391 . S
C1036 C1038 1.394 . S
C1036 H1052 0.931 . S
C1037 C1036 1.391 . S
C1037 C1041 1.376 . S
C1038 C1036 1.394 . S
C1038 C1039 1.369 . S
C1038 C1042 1.531 . S
C1039 C1038 1.369 . S
C1039 C1040 1.410 . S
C1039 C1047 1.503 . S
C1040 C1039 1.410 . S
C1040 C1041 1.392 . S
C1040 C1043 1.511 . S
C1041 C1037 1.376 . S
C1041 C1040 1.392 . S
C1041 H1053 0.929 . S
C1042 C1038 1.531 . S
C1042 H1054 0.960 . S
C1042 H1055 0.962 . S
C1042 H1056 0.960 . S
C1043 C1040 1.511 . S
C1043 H1057 0.961 . S
C1043 H1058 0.961 . S
C1043 H1059 0.961 . S
C1044 C1045 1.370 . S
C1044 C1046 1.363 . S
C1044 H1060 0.931 . S
C1045 C1044 1.370 . S
C1045 C1049 1.408 . S
C1046 C1044 1.363 . S
C1046 C1047 1.370 . S
C1046 C1050 1.524 . S
C1047 C1039 1.503 . S
C1047 C1046 1.370 . S
C1047 C1048 1.403 . S
C1048 C1047 1.403 . S
C1048 C1049 1.404 . S
C1048 C1051 1.539 . S
C1049 C1045 1.408 . S
C1049 C1048 1.404 . S
C1049 H1061 0.930 . S
C1050 C1046 1.524 . S
C1050 H1062 0.956 . S
C1050 H1063 0.961 . S
C1050 H1064 0.961 . S
C1051 C1048 1.539 . S
C1051 H1065 0.958 . S
C1051 H1066 0.961 . S
C1051 H1067 0.960 . S
H1052 C1036 0.931 . S
H1053 C1041 0.929 . S
H1054 C1042 0.960 . S
H1055 C1042 0.962 . S
H1056 C1042 0.960 . S
H1057 C1043 0.961 . S
H1058 C1043 0.961 . S
H1059 C1043 0.961 . S
H1060 C1044 0.931 . S
H1061 C1049 0.930 . S
H1062 C1050 0.956 . S
H1063 C1050 0.961 . S
H1064 C1050 0.961 . S
H1065 C1051 0.958 . S
H1066 C1051 0.961 . S
H1067 C1051 0.960 . S
C1068 C1069 1.391 . S
C1068 C1070 1.394 . S
C1068 H1084 0.931 . S
C1069 C1068 1.391 . S
C1069 C1073 1.376 . S
C1070 C1068 1.394 . S
C1070 C1071 1.369 . S
C1070 C1074 1.531 . S
C1071 C1070 1.369 . S
C1071 C1072 1.410 . S
C1071 C1079 1.503 1_655 S
C1072 C1071 1.410 . S
C1072 C1073 1.392 . S
C1072 C1075 1.511 . S
C1073 C1069 1.376 . S
C1073 C1072 1.392 . S
C1073 H1085 0.929 . S
C1074 C1070 1.531 . S
C1074 H1086 0.960 1_655 S
C1074 H1087 0.962 . S
C1074 H1088 0.960 . S
C1075 C1072 1.511 . S
C1075 H1089 0.961 . S
C1075 H1090 0.961 1_655 S
C1075 H1091 0.961 . S
C1076 C1077 1.370 . S
C1076 C1078 1.363 . S
C1076 H1092 0.931 . S
C1077 C1076 1.370 . S
C1077 C1081 1.408 . S
C1078 C1076 1.363 . S
C1078 C1079 1.370 . S
C1078 C1082 1.524 . S
C1079 C1071 1.503 1_455 S
C1079 C1078 1.370 . S
C1079 C1080 1.403 . S
C1080 C1079 1.403 . S
C1080 C1081 1.404 . S
C1080 C1083 1.539 . S
C1081 C1077 1.408 . S
C1081 C1080 1.404 . S
C1081 H1093 0.930 . S
C1082 C1078 1.524 . S
C1082 H1094 0.956 . S
C1082 H1095 0.946 1_455 S
C1082 H1096 0.961 . S
C1083 C1080 1.539 . S
C1083 H1097 0.958 . S
C1083 H1098 0.961 . S
C1083 H1099 0.933 1_455 S
H1084 C1068 0.931 . S
H1085 C1073 0.929 . S
H1086 C1074 0.960 1_455 S
H1087 C1074 0.962 . S
H1088 C1074 0.960 . S
H1089 C1075 0.961 . S
H1090 C1075 0.961 1_455 S
H1091 C1075 0.961 . S
H1092 C1076 0.931 . S
H1093 C1081 0.930 . S
H1094 C1082 0.956 . S
H1095 C1082 0.946 1_655 S
H1096 C1082 0.961 . S
H1097 C1083 0.958 . S
H1098 C1083 0.961 . S
H1099 C1083 0.933 1_655 S
C1100 C1101 1.391 . S
C1100 C1102 1.394 . S
C1100 H1116 0.931 . S
C1101 C1100 1.391 . S
C1101 C1105 1.376 . S
C1102 C1100 1.394 . S
C1102 C1103 1.369 . S
C1102 C1106 1.531 . S
C1103 C1102 1.369 . S
C1103 C1104 1.410 . S
C1103 C1111 1.503 1_565 S
C1104 C1103 1.410 . S
C1104 C1105 1.392 . S
C1104 C1107 1.511 . S
C1105 C1101 1.376 . S
C1105 C1104 1.392 . S
C1105 H1117 0.929 . S
C1106 C1102 1.531 . S
C1106 H1118 0.960 1_565 S
C1106 H1119 0.962 . S
C1106 H1120 0.960 . S
C1107 C1104 1.511 . S
C1107 H1121 0.961 . S
C1107 H1122 0.961 1_565 S
C1107 H1123 0.961 . S
C1108 C1109 1.370 . S
C1108 C1110 1.363 . S
C1108 H1124 0.931 . S
C1109 C1108 1.370 . S
C1109 C1113 1.408 . S
C1110 C1108 1.363 . S
C1110 C1111 1.370 . S
C1110 C1114 1.524 . S
C1111 C1103 1.503 1_545 S
C1111 C1110 1.370 . S
C1111 C1112 1.403 . S
C1112 C1111 1.403 . S
C1112 C1113 1.404 . S
C1112 C1115 1.539 . S
C1113 C1109 1.408 . S
C1113 C1112 1.404 . S
C1113 H1125 0.930 . S
C1114 C1110 1.524 . S
C1114 H1126 0.956 . S
C1114 H1127 0.957 1_545 S
C1114 H1128 0.961 . S
C1115 C1112 1.539 . S
C1115 H1129 0.958 . S
C1115 H1130 0.961 . S
C1115 H1131 0.960 1_545 S
H1116 C1100 0.931 . S
H1117 C1105 0.929 . S
H1118 C1106 0.960 1_545 S
H1119 C1106 0.962 . S
H1120 C1106 0.960 . S
H1121 C1107 0.961 . S
H1122 C1107 0.961 1_545 S
H1123 C1107 0.961 . S
H1124 C1108 0.931 . S
H1125 C1113 0.930 . S
H1126 C1114 0.956 . S
H1127 C1114 0.957 1_565 S
H1128 C1114 0.961 . S
H1129 C1115 0.958 . S
H1130 C1115 0.961 . S
H1131 C1115 0.960 1_565 S
C1132 C1133 1.391 . S
C1132 C1134 1.394 . S
C1132 H1148 0.931 . S
C1133 C1132 1.391 . S
C1133 C1137 1.376 . S
C1134 C1132 1.394 . S
C1134 C1135 1.369 . S
C1134 C1138 1.531 . S
C1135 C1134 1.369 . S
C1135 C1136 1.410 . S
C1135 C1143 1.503 . S
C1136 C1135 1.410 . S
C1136 C1137 1.392 . S
C1136 C1139 1.511 . S
C1137 C1133 1.376 . S
C1137 C1136 1.392 . S
C1137 H1149 0.929 . S
C1138 C1134 1.531 . S
C1138 H1150 0.960 . S
C1138 H1151 0.962 . S
C1138 H1152 0.960 . S
C1139 C1136 1.511 . S
C1139 H1153 0.961 . S
C1139 H1154 0.961 . S
C1139 H1155 0.961 . S
C1140 C1141 1.370 . S
C1140 C1142 1.363 . S
C1140 H1156 0.931 . S
C1141 C1140 1.370 . S
C1141 C1145 1.408 . S
C1142 C1140 1.363 . S
C1142 C1143 1.370 . S
C1142 C1146 1.524 . S
C1143 C1135 1.503 . S
C1143 C1142 1.370 . S
C1143 C1144 1.403 . S
C1144 C1143 1.403 . S
C1144 C1145 1.404 . S
C1144 C1147 1.539 . S
C1145 C1141 1.408 . S
C1145 C1144 1.404 . S
C1145 H1157 0.930 . S
C1146 C1142 1.524 . S
C1146 H1158 0.956 . S
C1146 H1159 0.961 . S
C1146 H1160 0.961 . S
C1147 C1144 1.539 . S
C1147 H1161 0.958 . S
C1147 H1162 0.961 . S
C1147 H1163 0.960 . S
H1148 C1132 0.931 . S
H1149 C1137 0.929 . S
H1150 C1138 0.960 . S
H1151 C1138 0.962 . S
H1152 C1138 0.960 . S
H1153 C1139 0.961 . S
H1154 C1139 0.961 . S
H1155 C1139 0.961 . S
H1156 C1140 0.931 . S
H1157 C1145 0.930 . S
H1158 C1146 0.956 . S
H1159 C1146 0.961 . S
H1160 C1146 0.961 . S
H1161 C1147 0.958 . S
H1162 C1147 0.961 . S
H1163 C1147 0.960 . S
C1164 C1165 1.391 . S
C1164 C1166 1.394 . S
C1164 H1180 0.931 . S
C1165 C1164 1.391 . S
C1165 C1169 1.376 . S
C1166 C1164 1.394 . S
C1166 C1167 1.369 . S
C1166 C1170 1.531 . S
C1167 C1166 1.369 . S
C1167 C1168 1.410 . S
C1167 C1175 1.503 . S
C1168 C1167 1.410 . S
C1168 C1169 1.392 . S
C1168 C1171 1.511 . S
C1169 C1165 1.376 . S
C1169 C1168 1.392 . S
C1169 H1181 0.929 . S
C1170 C1166 1.531 . S
C1170 H1182 0.960 . S
C1170 H1183 0.962 . S
C1170 H1184 0.960 . S
C1171 C1168 1.511 . S
C1171 H1185 0.961 . S
C1171 H1186 0.961 . S
C1171 H1187 0.961 . S
C1172 C1173 1.370 . S
C1172 C1174 1.363 . S
C1172 H1188 0.931 . S
C1173 C1172 1.370 . S
C1173 C1177 1.408 . S
C1174 C1172 1.363 . S
C1174 C1175 1.370 . S
C1174 C1178 1.524 . S
C1175 C1167 1.503 . S
C1175 C1174 1.370 . S
C1175 C1176 1.403 . S
C1176 C1175 1.403 . S
C1176 C1177 1.404 . S
C1176 C1179 1.539 . S
C1177 C1173 1.408 . S
C1177 C1176 1.404 . S
C1177 H1189 0.930 . S
C1178 C1174 1.524 . S
C1178 H1190 0.956 . S
C1178 H1191 0.961 . S
C1178 H1192 0.961 . S
C1179 C1176 1.539 . S
C1179 H1193 0.958 . S
C1179 H1194 0.961 . S
C1179 H1195 0.960 . S
H1180 C1164 0.931 . S
H1181 C1169 0.929 . S
H1182 C1170 0.960 . S
H1183 C1170 0.962 . S
H1184 C1170 0.960 . S
H1185 C1171 0.961 . S
H1186 C1171 0.961 . S
H1187 C1171 0.961 . S
H1188 C1172 0.931 . S
H1189 C1177 0.930 . S
H1190 C1178 0.956 . S
H1191 C1178 0.961 . S
H1192 C1178 0.961 . S
H1193 C1179 0.958 . S
H1194 C1179 0.961 . S
H1195 C1179 0.960 . S
C1196 C1197 1.391 . S
C1196 C1198 1.394 . S
C1196 H1212 0.931 . S
C1197 C1196 1.391 . S
C1197 C1201 1.376 . S
C1198 C1196 1.394 . S
C1198 C1199 1.369 . S
C1198 C1202 1.531 . S
C1199 C1198 1.369 . S
C1199 C1200 1.410 . S
C1199 C1207 1.503 . S
C1200 C1199 1.410 . S
C1200 C1201 1.392 . S
C1200 C1203 1.511 . S
C1201 C1197 1.376 . S
C1201 C1200 1.392 . S
C1201 H1213 0.929 . S
C1202 C1198 1.531 . S
C1202 H1214 0.960 . S
C1202 H1215 0.962 . S
C1202 H1216 0.960 . S
C1203 C1200 1.511 . S
C1203 H1217 0.961 . S
C1203 H1218 0.961 . S
C1203 H1219 0.961 . S
C1204 C1205 1.370 . S
C1204 C1206 1.363 . S
C1204 H1220 0.931 . S
C1205 C1204 1.370 . S
C1205 C1209 1.408 . S
C1206 C1204 1.363 . S
C1206 C1207 1.370 . S
C1206 C1210 1.524 . S
C1207 C1199 1.503 . S
C1207 C1206 1.370 . S
C1207 C1208 1.403 . S
C1208 C1207 1.403 . S
C1208 C1209 1.404 . S
C1208 C1211 1.539 . S
C1209 C1205 1.408 . S
C1209 C1208 1.404 . S
C1209 H1221 0.930 . S
C1210 C1206 1.524 . S
C1210 H1222 0.956 . S
C1210 H1223 0.961 . S
C1210 H1224 0.961 . S
C1211 C1208 1.539 . S
C1211 H1225 0.958 . S
C1211 H1226 0.961 . S
C1211 H1227 0.960 . S
H1212 C1196 0.931 . S
H1213 C1201 0.929 . S
H1214 C1202 0.960 . S
H1215 C1202 0.962 . S
H1216 C1202 0.960 . S
H1217 C1203 0.961 . S
H1218 C1203 0.961 . S
H1219 C1203 0.961 . S
H1220 C1204 0.931 . S
H1221 C1209 0.930 . S
H1222 C1210 0.956 . S
H1223 C1210 0.961 . S
H1224 C1210 0.961 . S
H1225 C1211 0.958 . S
H1226 C1211 0.961 . S
H1227 C1211 0.960 . S
C1228 C1229 1.391 . S
C1228 C1230 1.394 . S
C1228 H1244 0.931 . S
C1229 C1228 1.391 . S
C1229 C1233 1.376 . S
C1230 C1228 1.394 . S
C1230 C1231 1.369 . S
C1230 C1234 1.531 . S
C1231 C1230 1.369 . S
C1231 C1232 1.410 . S
C1231 C1239 1.503 . S
C1232 C1231 1.410 . S
C1232 C1233 1.392 . S
C1232 C1235 1.511 . S
C1233 C1229 1.376 . S
C1233 C1232 1.392 . S
C1233 H1245 0.929 . S
C1234 C1230 1.531 . S
C1234 H1246 0.960 . S
C1234 H1247 0.962 . S
C1234 H1248 0.960 . S
C1235 C1232 1.511 . S
C1235 H1249 0.961 . S
C1235 H1250 0.961 . S
C1235 H1251 0.961 . S
C1236 C1237 1.370 . S
C1236 C1238 1.363 . S
C1236 H1252 0.931 . S
C1237 C1236 1.370 . S
C1237 C1241 1.408 . S
C1238 C1236 1.363 . S
C1238 C1239 1.370 . S
C1238 C1242 1.524 . S
C1239 C1231 1.503 . S
C1239 C1238 1.370 . S
C1239 C1240 1.403 . S
C1240 C1239 1.403 . S
C1240 C1241 1.404 . S
C1240 C1243 1.539 . S
C1241 C1237 1.408 . S
C1241 C1240 1.404 . S
C1241 H1253 0.930 . S
C1242 C1238 1.524 . S
C1242 H1254 0.956 . S
C1242 H1255 0.961 . S
C1242 H1256 0.961 . S
C1243 C1240 1.539 . S
C1243 H1257 0.958 . S
C1243 H1258 0.961 . S
C1243 H1259 0.960 . S
H1244 C1228 0.931 . S
H1245 C1233 0.929 . S
H1246 C1234 0.960 . S
H1247 C1234 0.962 . S
H1248 C1234 0.960 . S
H1249 C1235 0.961 . S
H1250 C1235 0.961 . S
H1251 C1235 0.961 . S
H1252 C1236 0.931 . S
H1253 C1241 0.930 . S
H1254 C1242 0.956 . S
H1255 C1242 0.961 . S
H1256 C1242 0.961 . S
H1257 C1243 0.958 . S
H1258 C1243 0.961 . S
H1259 C1243 0.960 . S
C1260 C1261 1.391 . S
C1260 C1262 1.394 . S
C1260 H1276 0.931 . S
C1261 C1260 1.391 . S
C1261 C1265 1.376 . S
C1262 C1260 1.394 . S
C1262 C1263 1.369 . S
C1262 C1266 1.531 . S
C1263 C1262 1.369 . S
C1263 C1264 1.410 . S
C1263 C1271 1.503 . S
C1264 C1263 1.410 . S
C1264 C1265 1.392 . S
C1264 C1267 1.511 . S
C1265 C1261 1.376 . S
C1265 C1264 1.392 . S
C1265 H1277 0.929 . S
C1266 C1262 1.531 . S
C1266 H1278 0.960 . S
C1266 H1279 0.962 . S
C1266 H1280 0.960 . S
C1267 C1264 1.511 . S
C1267 H1281 0.961 . S
C1267 H1282 0.961 . S
C1267 H1283 0.961 . S
C1268 C1269 1.370 . S
C1268 C1270 1.363 . S
C1268 H1284 0.931 . S
C1269 C1268 1.370 . S
C1269 C1273 1.408 . S
C1270 C1268 1.363 . S
C1270 C1271 1.370 . S
C1270 C1274 1.524 . S
C1271 C1263 1.503 . S
C1271 C1270 1.370 . S
C1271 C1272 1.403 . S
C1272 C1271 1.403 . S
C1272 C1273 1.404 . S
C1272 C1275 1.539 . S
C1273 C1269 1.408 . S
C1273 C1272 1.404 . S
C1273 H1285 0.930 . S
C1274 C1270 1.524 . S
C1274 H1286 0.956 . S
C1274 H1287 0.961 . S
C1274 H1288 0.961 . S
C1275 C1272 1.539 . S
C1275 H1289 0.958 . S
C1275 H1290 0.961 . S
C1275 H1291 0.960 . S
H1276 C1260 0.931 . S
H1277 C1265 0.929 . S
H1278 C1266 0.960 . S
H1279 C1266 0.962 . S
H1280 C1266 0.960 . S
H1281 C1267 0.961 . S
H1282 C1267 0.961 . S
H1283 C1267 0.961 . S
H1284 C1268 0.931 . S
H1285 C1273 0.930 . S
H1286 C1274 0.956 . S
H1287 C1274 0.961 . S
H1288 C1274 0.961 . S
H1289 C1275 0.958 . S
H1290 C1275 0.961 . S
H1291 C1275 0.960 . S
C1292 C1293 1.391 . S
C1292 C1294 1.394 . S
C1292 H1308 0.931 . S
C1293 C1292 1.391 . S
C1293 C1297 1.376 . S
C1294 C1292 1.394 . S
C1294 C1295 1.369 . S
C1294 C1298 1.531 . S
C1295 C1294 1.369 . S
C1295 C1296 1.410 . S
C1295 C1303 1.503 . S
C1296 C1295 1.410 . S
C1296 C1297 1.392 . S
C1296 C1299 1.511 . S
C1297 C1293 1.376 . S
C1297 C1296 1.392 . S
C1297 H1309 0.929 . S
C1298 C1294 1.531 . S
C1298 H1310 0.960 . S
C1298 H1311 0.962 . S
C1298 H1312 0.960 . S
C1299 C1296 1.511 . S
C1299 H1313 0.961 . S
C1299 H1314 0.961 . S
C1299 H1315 0.961 . S
C1300 C1301 1.370 . S
C1300 C1302 1.363 . S
C1300 H1316 0.931 . S
C1301 C1300 1.370 . S
C1301 C1305 1.408 . S
C1302 C1300 1.363 . S
C1302 C1303 1.370 . S
C1302 C1306 1.524 . S
C1303 C1295 1.503 . S
C1303 C1302 1.370 . S
C1303 C1304 1.403 . S
C1304 C1303 1.403 . S
C1304 C1305 1.404 . S
C1304 C1307 1.539 . S
C1305 C1301 1.408 . S
C1305 C1304 1.404 . S
C1305 H1317 0.930 . S
C1306 C1302 1.524 . S
C1306 H1318 0.956 . S
C1306 H1319 0.961 . S
C1306 H1320 0.961 . S
C1307 C1304 1.539 . S
C1307 H1321 0.958 . S
C1307 H1322 0.961 . S
C1307 H1323 0.960 . S
H1308 C1292 0.931 . S
H1309 C1297 0.929 . S
H1310 C1298 0.960 . S
H1311 C1298 0.962 . S
H1312 C1298 0.960 . S
H1313 C1299 0.961 . S
H1314 C1299 0.961 . S
H1315 C1299 0.961 . S
H1316 C1300 0.931 . S
H1317 C1305 0.930 . S
H1318 C1306 0.956 . S
H1319 C1306 0.961 . S
H1320 C1306 0.961 . S
H1321 C1307 0.958 . S
H1322 C1307 0.961 . S
H1323 C1307 0.960 . S
C1324 C1325 1.391 . S
C1324 C1326 1.394 . S
C1324 H1340 0.931 . S
C1325 C1324 1.391 . S
C1325 C1329 1.376 . S
C1326 C1324 1.394 . S
C1326 C1327 1.369 . S
C1326 C1330 1.531 . S
C1327 C1326 1.369 . S
C1327 C1328 1.410 . S
C1327 C1335 1.503 . S
C1328 C1327 1.410 . S
C1328 C1329 1.392 . S
C1328 C1331 1.511 . S
C1329 C1325 1.376 . S
C1329 C1328 1.392 . S
C1329 H1341 0.929 . S
C1330 C1326 1.531 . S
C1330 H1342 0.960 . S
C1330 H1343 0.962 . S
C1330 H1344 0.960 . S
C1331 C1328 1.511 . S
C1331 H1345 0.961 . S
C1331 H1346 0.961 . S
C1331 H1347 0.961 . S
C1332 C1333 1.370 . S
C1332 C1334 1.363 . S
C1332 H1348 0.931 . S
C1333 C1332 1.370 . S
C1333 C1337 1.408 . S
C1334 C1332 1.363 . S
C1334 C1335 1.370 . S
C1334 C1338 1.524 . S
C1335 C1327 1.503 . S
C1335 C1334 1.370 . S
C1335 C1336 1.403 . S
C1336 C1335 1.403 . S
C1336 C1337 1.404 . S
C1336 C1339 1.539 . S
C1337 C1333 1.408 . S
C1337 C1336 1.404 . S
C1337 H1349 0.930 . S
C1338 C1334 1.524 . S
C1338 H1350 0.956 . S
C1338 H1351 0.961 . S
C1338 H1352 0.961 . S
C1339 C1336 1.539 . S
C1339 H1353 0.958 . S
C1339 H1354 0.961 . S
C1339 H1355 0.960 . S
H1340 C1324 0.931 . S
H1341 C1329 0.929 . S
H1342 C1330 0.960 . S
H1343 C1330 0.962 . S
H1344 C1330 0.960 . S
H1345 C1331 0.961 . S
H1346 C1331 0.961 . S
H1347 C1331 0.961 . S
H1348 C1332 0.931 . S
H1349 C1337 0.930 . S
H1350 C1338 0.956 . S
H1351 C1338 0.961 . S
H1352 C1338 0.961 . S
H1353 C1339 0.958 . S
H1354 C1339 0.961 . S
H1355 C1339 0.960 . S
C397 N311 1.549 . S
C405 N14 1.538 . S
C429 N47 1.517 . S
C437 N344 1.540 . S
C461 N80 1.526 . S
C469 N377 1.546 . S
C493 N113 1.513 . S
C501 N212 1.544 . S
C525 N146 1.543 . S
C533 N245 1.541 . S
C557 N179 1.524 . S
C565 N278 1.547 . S
C589 N335 1.373 . S
C597 N5 1.386 . S
C621 N368 1.356 . S
C629 N38 1.376 . S
C653 N71 1.403 . S
C661 N203 1.395 . S
C685 N236 1.405 . S
C693 N104 1.395 . S
C717 N137 1.361 . S
C725 N269 1.380 . S
C749 N170 1.359 . S
C757 N302 1.378 . S
C781 C116 1.683 . S
C789 C17 1.711 . S
C813 C50 1.682 . S
C821 C149 1.711 . S
C845 C182 1.696 . S
C853 C83 1.705 . S
C877 C314 1.669 . S
C885 C215 1.714 . S
C909 C248 1.663 . S
C917 C347 1.714 . S
C941 C380 1.705 . S
C949 C281 1.702 . S
C973 C28 1.215 . S
C981 C391 1.229 . S
C1005 C226 1.268 . S
C1013 C61 1.250 . S
C1037 C94 1.265 . S
C1045 C259 1.248 . S
C1069 C127 1.207 . S
C1077 C292 1.224 . S
C1101 C160 1.211 . S
C1109 C325 1.226 . S
C1133 C358 1.264 . S
C1141 C193 1.249 . S
C1165 C8 0.718 . S
C1173 C272 0.710 . S
C1197 C305 0.707 . S
C1205 C41 0.713 . S
C1229 C74 0.717 . S
C1237 C338 0.710 . S
C1261 C371 0.705 . S
C1269 C107 0.711 . S
C1293 C206 0.705 . S
C1301 C140 0.711 . S
C1325 C173 0.717 . S
C1333 C239 0.710 . S
