# Generated by pormake.
# Topology cbo, (4)-cn, num edge types: 1
# Building blocks:
#     Node 0, Type 0, BuildingBlock: ESEHIV_clean_sbu_0, # of connection points: 4
#     Node 1, Type 0, BuildingBlock: ESEHIV_clean_sbu_0, # of connection points: 4
#     Node 2, Type 0, BuildingBlock: ESEHIV_clean_sbu_0, # of connection points: 4
#     Node 3, Type 0, BuildingBlock: ESEHIV_clean_sbu_0, # of connection points: 4
#     Node 4, Type 0, BuildingBlock: ESEHIV_clean_sbu_0, # of connection points: 4
#     Node 5, Type 0, BuildingBlock: ESEHIV_clean_sbu_0, # of connection points: 4
#     Node 6, Type 0, BuildingBlock: ESEHIV_clean_sbu_0, # of connection points: 4
#     Node 7, Type 0, BuildingBlock: ESEHIV_clean_sbu_0, # of connection points: 4
#     Node 8, Type 0, BuildingBlock: ESEHIV_clean_sbu_0, # of connection points: 4
#     Node 9, Type 0, BuildingBlock: ESEHIV_clean_sbu_0, # of connection points: 4
#     Node 10, Type 0, BuildingBlock: ESEHIV_clean_sbu_0, # of connection points: 4
#     Node 11, Type 0, BuildingBlock: ESEHIV_clean_sbu_0, # of connection points: 4
#     Node 12, Type 0, BuildingBlock: ESEHIV_clean_sbu_0, # of connection points: 4
#     Node 13, Type 0, BuildingBlock: ESEHIV_clean_sbu_0, # of connection points: 4
#     Node 14, Type 0, BuildingBlock: ESEHIV_clean_sbu_0, # of connection points: 4
#     Node 15, Type 0, BuildingBlock: ESEHIV_clean_sbu_0, # of connection points: 4
#     Node 16, Type 0, BuildingBlock: ESEHIV_clean_sbu_0, # of connection points: 4
#     Node 17, Type 0, BuildingBlock: ESEHIV_clean_sbu_0, # of connection points: 4
#     Node 18, Type 0, BuildingBlock: ESEHIV_clean_sbu_0, # of connection points: 4
#     Node 19, Type 0, BuildingBlock: ESEHIV_clean_sbu_0, # of connection points: 4
#     Node 20, Type 0, BuildingBlock: ESEHIV_clean_sbu_0, # of connection points: 4
#     Node 21, Type 0, BuildingBlock: ESEHIV_clean_sbu_0, # of connection points: 4
#     Node 22, Type 0, BuildingBlock: ESEHIV_clean_sbu_0, # of connection points: 4
#     Node 23, Type 0, BuildingBlock: ESEHIV_clean_sbu_0, # of connection points: 4
#     Edge 24, Type (0, 0), BuildingBlock: CIFDUS_clean_linker_0, # of connection points: 2
#     Edge 25, Type (0, 0), BuildingBlock: CIFDUS_clean_linker_0, # of connection points: 2
#     Edge 26, Type (0, 0), BuildingBlock: CIFDUS_clean_linker_0, # of connection points: 2
#     Edge 27, Type (0, 0), BuildingBlock: CIFDUS_clean_linker_0, # of connection points: 2
#     Edge 28, Type (0, 0), BuildingBlock: CIFDUS_clean_linker_0, # of connection points: 2
#     Edge 29, Type (0, 0), BuildingBlock: CIFDUS_clean_linker_0, # of connection points: 2
#     Edge 30, Type (0, 0), BuildingBlock: CIFDUS_clean_linker_0, # of connection points: 2
#     Edge 31, Type (0, 0), BuildingBlock: CIFDUS_clean_linker_0, # of connection points: 2
#     Edge 32, Type (0, 0), BuildingBlock: CIFDUS_clean_linker_0, # of connection points: 2
#     Edge 33, Type (0, 0), BuildingBlock: CIFDUS_clean_linker_0, # of connection points: 2
#     Edge 34, Type (0, 0), BuildingBlock: CIFDUS_clean_linker_0, # of connection points: 2
#     Edge 35, Type (0, 0), BuildingBlock: CIFDUS_clean_linker_0, # of connection points: 2
#     Edge 36, Type (0, 0), BuildingBlock: CIFDUS_clean_linker_0, # of connection points: 2
#     Edge 37, Type (0, 0), BuildingBlock: CIFDUS_clean_linker_0, # of connection points: 2
#     Edge 38, Type (0, 0), BuildingBlock: CIFDUS_clean_linker_0, # of connection points: 2
#     Edge 39, Type (0, 0), BuildingBlock: CIFDUS_clean_linker_0, # of connection points: 2
#     Edge 40, Type (0, 0), BuildingBlock: CIFDUS_clean_linker_0, # of connection points: 2
#     Edge 41, Type (0, 0), BuildingBlock: CIFDUS_clean_linker_0, # of connection points: 2
#     Edge 42, Type (0, 0), BuildingBlock: CIFDUS_clean_linker_0, # of connection points: 2
#     Edge 43, Type (0, 0), BuildingBlock: CIFDUS_clean_linker_0, # of connection points: 2
#     Edge 44, Type (0, 0), BuildingBlock: CIFDUS_clean_linker_0, # of connection points: 2
#     Edge 45, Type (0, 0), BuildingBlock: CIFDUS_clean_linker_0, # of connection points: 2
#     Edge 46, Type (0, 0), BuildingBlock: CIFDUS_clean_linker_0, # of connection points: 2
#     Edge 47, Type (0, 0), BuildingBlock: CIFDUS_clean_linker_0, # of connection points: 2
#     Edge 48, Type (0, 0), BuildingBlock: CIFDUS_clean_linker_0, # of connection points: 2
#     Edge 49, Type (0, 0), BuildingBlock: CIFDUS_clean_linker_0, # of connection points: 2
#     Edge 50, Type (0, 0), BuildingBlock: CIFDUS_clean_linker_0, # of connection points: 2
#     Edge 51, Type (0, 0), BuildingBlock: CIFDUS_clean_linker_0, # of connection points: 2
#     Edge 52, Type (0, 0), BuildingBlock: CIFDUS_clean_linker_0, # of connection points: 2
#     Edge 53, Type (0, 0), BuildingBlock: CIFDUS_clean_linker_0, # of connection points: 2
#     Edge 54, Type (0, 0), BuildingBlock: CIFDUS_clean_linker_0, # of connection points: 2
#     Edge 55, Type (0, 0), BuildingBlock: CIFDUS_clean_linker_0, # of connection points: 2
#     Edge 56, Type (0, 0), BuildingBlock: CIFDUS_clean_linker_0, # of connection points: 2
#     Edge 57, Type (0, 0), BuildingBlock: CIFDUS_clean_linker_0, # of connection points: 2
#     Edge 58, Type (0, 0), BuildingBlock: CIFDUS_clean_linker_0, # of connection points: 2
#     Edge 59, Type (0, 0), BuildingBlock: CIFDUS_clean_linker_0, # of connection points: 2
#     Edge 60, Type (0, 0), BuildingBlock: CIFDUS_clean_linker_0, # of connection points: 2
#     Edge 61, Type (0, 0), BuildingBlock: CIFDUS_clean_linker_0, # of connection points: 2
#     Edge 62, Type (0, 0), BuildingBlock: CIFDUS_clean_linker_0, # of connection points: 2
#     Edge 63, Type (0, 0), BuildingBlock: CIFDUS_clean_linker_0, # of connection points: 2
#     Edge 64, Type (0, 0), BuildingBlock: CIFDUS_clean_linker_0, # of connection points: 2
#     Edge 65, Type (0, 0), BuildingBlock: CIFDUS_clean_linker_0, # of connection points: 2
#     Edge 66, Type (0, 0), BuildingBlock: CIFDUS_clean_linker_0, # of connection points: 2
#     Edge 67, Type (0, 0), BuildingBlock: CIFDUS_clean_linker_0, # of connection points: 2
#     Edge 68, Type (0, 0), BuildingBlock: CIFDUS_clean_linker_0, # of connection points: 2
#     Edge 69, Type (0, 0), BuildingBlock: CIFDUS_clean_linker_0, # of connection points: 2
#     Edge 70, Type (0, 0), BuildingBlock: CIFDUS_clean_linker_0, # of connection points: 2
#     Edge 71, Type (0, 0), BuildingBlock: CIFDUS_clean_linker_0, # of connection points: 2
# Relax obj value: 0.119
# Max RMSD: 0.290
# Mean RMSD: 0.269
data_MOF--net-cbo--node1-ESEHIV_clean_sbu_0--edge1-CIFDUS_clean_linker_0
_symmetry_space_group_name_H-M    P1
_symmetry_Int_Tables_number       1
_symmetry_cell_setting            triclinic
loop_
_symmetry_equiv_pos_as_xyz
'x, y, z'
_cell_length_a     48.392575
_cell_length_b     53.196269
_cell_length_c     50.031937
_cell_angle_alpha  89.952558
_cell_angle_beta   90.02015
_cell_angle_gamma 90.013074
loop_
_atom_site_label
_atom_site_type_symbol
_atom_site_fract_x
_atom_site_fract_y
_atom_site_fract_z
_atom_type_partial_charge
Cu0 Cu 0.12647 0.18824 0.31399 0.0
N1 N 0.13278 0.18132 0.35015 0.0
N2 N 0.14266 0.18352 0.39383 0.0
C3 C 0.14192 0.19607 0.37024 0.0
C4 C 0.1339 0.16003 0.3881 0.0
C5 C 0.12783 0.15879 0.36132 0.0
O6 O 0.09285 0.17081 0.30363 0.0
C7 C 0.16957 0.15638 0.29208 0.0
O8 O 0.15857 0.13743 0.30513 0.0
H9 H 0.14755 0.2156 0.36767 0.0
H10 H 0.1202 0.14255 0.35062 0.0
N11 N 0.1221 0.22244 0.30677 0.0
N12 N 0.12376 0.25794 0.28287 0.0
C13 C 0.12649 0.23271 0.28254 0.0
C14 C 0.1161 0.24181 0.32306 0.0
C15 C 0.1173 0.26381 0.30837 0.0
C16 C 0.0712 0.1757 0.31714 0.0
O17 O 0.07281 0.1924 0.33642 0.0
H18 H 0.13266 0.22191 0.26521 0.0
H19 H 0.11161 0.24013 0.34415 0.0
O20 O 0.15835 0.17798 0.29325 0.0
H21 H 0.1323 0.14462 0.40214 0.0
H22 H 0.11391 0.28264 0.31587 0.0
Cu23 Cu 0.41159 0.84474 0.81875 0.0
N24 N 0.40643 0.83026 0.85233 0.0
N25 N 0.39198 0.82447 0.89434 0.0
C26 C 0.39014 0.83887 0.87213 0.0
C27 C 0.41014 0.8061 0.88816 0.0
C28 C 0.419 0.80973 0.86226 0.0
O29 O 0.44512 0.86491 0.82041 0.0
C30 C 0.37286 0.87146 0.78604 0.0
O31 O 0.39258 0.87146 0.76799 0.0
H32 H 0.37766 0.85567 0.87039 0.0
H33 H 0.43371 0.7983 0.85146 0.0
N34 N 0.41815 0.81949 0.79366 0.0
N35 N 0.41499 0.79566 0.75699 0.0
C36 C 0.40229 0.81277 0.77271 0.0
C37 C 0.44157 0.80608 0.79124 0.0
C38 C 0.43966 0.7913 0.76872 0.0
C39 C 0.44904 0.8871 0.81174 0.0
O40 O 0.42832 0.89976 0.80145 0.0
H41 H 0.38201 0.82052 0.76888 0.0
H42 H 0.45917 0.80763 0.80446 0.0
O43 O 0.37771 0.86237 0.80912 0.0
H44 H 0.41639 0.79095 0.90128 0.0
H45 H 0.45567 0.7791 0.761 0.0
Cu46 Cu 0.61961 0.33556 0.71135 0.0
N47 N 0.62656 0.3238 0.67675 0.0
N48 N 0.64057 0.32042 0.63427 0.0
C49 C 0.64106 0.33458 0.65675 0.0
C50 C 0.62535 0.29998 0.64058 0.0
C51 C 0.61677 0.30214 0.66668 0.0
O52 O 0.58539 0.3548 0.71228 0.0
C53 C 0.67521 0.34747 0.72284 0.0
O54 O 0.67997 0.32683 0.70918 0.0
H55 H 0.65124 0.35261 0.65853 0.0
H56 H 0.60414 0.28887 0.6776 0.0
N57 N 0.61363 0.30794 0.73361 0.0
N58 N 0.61914 0.2776 0.76407 0.0
C59 C 0.63159 0.29605 0.74988 0.0
C60 C 0.58912 0.2966 0.73757 0.0
C61 C 0.59243 0.27791 0.75635 0.0
C62 C 0.57342 0.36436 0.69202 0.0
O63 O 0.58546 0.36324 0.66853 0.0
H64 H 0.6531 0.30127 0.75183 0.0
H65 H 0.5701 0.30182 0.72765 0.0
O66 O 0.6504 0.35504 0.72547 0.0
H67 H 0.62095 0.28437 0.6274 0.0
H68 H 0.57643 0.26547 0.76369 0.0
Cu69 Cu 0.9034 0.68838 0.1998 0.0
N70 N 0.9015 0.70211 0.16535 0.0
N71 N 0.89534 0.7064 0.12127 0.0
C72 C 0.89145 0.69149 0.14286 0.0
C73 C 0.90811 0.72716 0.13058 0.0
C74 C 0.91174 0.72452 0.15773 0.0
O75 O 0.93451 0.66497 0.20203 0.0
C76 C 0.86488 0.65869 0.22891 0.0
O77 O 0.88649 0.65283 0.24356 0.0
H78 H 0.88218 0.67298 0.1422 0.0
H79 H 0.92167 0.7378 0.17097 0.0
N80 N 0.90936 0.71417 0.22456 0.0
N81 N 0.90228 0.74183 0.25756 0.0
C82 C 0.89077 0.72422 0.24154 0.0
C83 C 0.93339 0.72583 0.22997 0.0
C84 C 0.9291 0.74288 0.25025 0.0
C85 C 0.9577 0.67107 0.19176 0.0
O86 O 0.95963 0.69239 0.17866 0.0
H87 H 0.8694 0.71827 0.24252 0.0
H88 H 0.95276 0.72212 0.22002 0.0
O89 O 0.86815 0.67276 0.20856 0.0
H90 H 0.91431 0.74315 0.11859 0.0
H91 H 0.94455 0.7552 0.2588 0.0
Cu92 Cu 0.3377 0.09896 0.16822 0.0
N93 N 0.32698 0.07318 0.14517 0.0
N94 N 0.31893 0.03477 0.12878 0.0
C95 C 0.32942 0.04824 0.14933 0.0
C96 C 0.30966 0.05196 0.11106 0.0
C97 C 0.31469 0.07559 0.12119 0.0
O98 O 0.37591 0.09327 0.17861 0.0
C99 C 0.30541 0.1209 0.20918 0.0
O100 O 0.31882 0.14138 0.20234 0.0
H101 H 0.3382 0.0402 0.1673 0.0
H102 H 0.30965 0.0933 0.11175 0.0
N103 N 0.33644 0.12974 0.15018 0.0
N104 N 0.32019 0.1652 0.13229 0.0
C105 C 0.31408 0.14159 0.1402 0.0
C106 C 0.35734 0.14636 0.14821 0.0
C107 C 0.34734 0.16831 0.13729 0.0
C108 C 0.38804 0.10549 0.19705 0.0
O109 O 0.37357 0.12087 0.21204 0.0
H110 H 0.2935 0.13359 0.14011 0.0
H111 H 0.37816 0.14309 0.15523 0.0
O112 O 0.31174 0.10014 0.19807 0.0
H113 H 0.30012 0.04779 0.092 0.0
H114 H 0.35895 0.18538 0.1337 0.0
Cu115 Cu 0.19339 0.91247 0.66921 0.0
N116 N 0.19483 0.94144 0.64803 0.0
N117 N 0.1977 0.98211 0.63674 0.0
C118 C 0.19572 0.9653 0.65696 0.0
C119 C 0.19802 0.9681 0.61421 0.0
C120 C 0.1963 0.94306 0.62125 0.0
O121 O 0.1577 0.90999 0.68728 0.0
C122 C 0.22944 0.9007 0.71355 0.0
O123 O 0.20991 0.8856 0.72222 0.0
H124 H 0.1949 0.97011 0.67795 0.0
H125 H 0.1965 0.92714 0.60782 0.0
N126 N 0.19686 0.88365 0.64823 0.0
N127 N 0.21054 0.84555 0.63485 0.0
C128 C 0.21618 0.86554 0.65058 0.0
C129 C 0.17846 0.8749 0.63036 0.0
C130 C 0.18684 0.85139 0.62205 0.0
C131 C 0.13609 0.91763 0.67511 0.0
O132 O 0.13886 0.92886 0.65189 0.0
H133 H 0.23331 0.8665 0.66445 0.0
H134 H 0.15978 0.88459 0.62446 0.0
O135 O 0.22526 0.91389 0.69273 0.0
H136 H 0.20009 0.9753 0.59409 0.0
H137 H 0.17617 0.83944 0.60791 0.0
Cu138 Cu 0.83587 0.41096 0.8454 0.0
N139 N 0.82837 0.43924 0.86638 0.0
N140 N 0.82305 0.47911 0.87967 0.0
C141 C 0.82695 0.4635 0.85865 0.0
C142 C 0.8219 0.46402 0.90134 0.0
C143 C 0.82517 0.4395 0.89308 0.0
O144 O 0.87286 0.41285 0.83043 0.0
C145 C 0.81208 0.38893 0.80065 0.0
O146 O 0.83533 0.3762 0.80159 0.0
H147 H 0.82946 0.4696 0.83815 0.0
H148 H 0.82561 0.42299 0.90571 0.0
N149 N 0.83535 0.38202 0.86646 0.0
N150 N 0.82034 0.34816 0.88842 0.0
C151 C 0.81345 0.37073 0.87798 0.0
C152 C 0.8567 0.36612 0.86988 0.0
C153 C 0.8475 0.3452 0.88339 0.0
C154 C 0.89309 0.4192 0.84524 0.0
O155 O 0.88804 0.4272 0.86959 0.0
H156 H 0.79269 0.37829 0.87752 0.0
H157 H 0.8773 0.36905 0.86213 0.0
O158 O 0.80819 0.40636 0.81764 0.0
H159 H 0.81876 0.47022 0.92171 0.0
H160 H 0.85968 0.32887 0.88869 0.0
Cu161 Cu 0.69046 0.60333 0.34677 0.0
N162 N 0.6896 0.57384 0.36719 0.0
N163 N 0.69455 0.53411 0.38127 0.0
C164 C 0.7 0.5509 0.36158 0.0
C165 C 0.68034 0.54713 0.39989 0.0
C166 C 0.67729 0.57145 0.39115 0.0
O167 O 0.65472 0.60649 0.32875 0.0
C168 C 0.72589 0.61886 0.30427 0.0
O169 O 0.70631 0.63527 0.29918 0.0
H170 H 0.71092 0.54657 0.34328 0.0
H171 H 0.66671 0.58634 0.40162 0.0
N172 N 0.69467 0.63037 0.37026 0.0
N173 N 0.71135 0.66457 0.39053 0.0
C174 C 0.71576 0.64686 0.37165 0.0
C175 C 0.67629 0.63798 0.38873 0.0
C176 C 0.68653 0.65898 0.4013 0.0
C177 C 0.64295 0.62775 0.32582 0.0
O178 O 0.65662 0.64831 0.33186 0.0
H179 H 0.73388 0.64592 0.35901 0.0
H180 H 0.65641 0.62929 0.39222 0.0
O181 O 0.72229 0.60286 0.3229 0.0
H182 H 0.67294 0.53975 0.41874 0.0
H183 H 0.67606 0.6698 0.41656 0.0
Cu184 Cu 0.17244 0.33622 0.09214 0.0
N185 N 0.18695 0.368 0.09976 0.0
N186 N 0.19066 0.40821 0.11233 0.0
C187 C 0.17359 0.38825 0.1095 0.0
C188 C 0.21567 0.40007 0.10406 0.0
C189 C 0.2133 0.37532 0.09633 0.0
O190 O 0.14963 0.33678 0.05995 0.0
C191 C 0.16016 0.32707 0.14664 0.0
O192 O 0.18091 0.34251 0.15077 0.0
H193 H 0.15184 0.3882 0.11454 0.0
H194 H 0.22959 0.36349 0.08855 0.0
N195 N 0.20106 0.31395 0.08451 0.0
N196 N 0.23202 0.28316 0.08868 0.0
C197 C 0.21632 0.30021 0.10167 0.0
C198 C 0.20752 0.30544 0.05997 0.0
C199 C 0.22657 0.28637 0.06248 0.0
C200 C 0.14761 0.35539 0.044 0.0
O201 O 0.15887 0.377 0.05045 0.0
H202 H 0.21485 0.3017 0.1232 0.0
H203 H 0.19811 0.31195 0.04161 0.0
O204 O 0.15248 0.32259 0.12274 0.0
H205 H 0.23429 0.41131 0.10313 0.0
H206 H 0.23532 0.27534 0.0464 0.0
Cu207 Cu 0.67696 0.17846 0.93984 0.0
N208 N 0.69219 0.14734 0.93107 0.0
N209 N 0.69642 0.10851 0.91447 0.0
C210 C 0.68019 0.1291 0.91647 0.0
C211 C 0.71952 0.1141 0.92841 0.0
C212 C 0.71684 0.13807 0.9386 0.0
O213 O 0.65431 0.17481 0.97157 0.0
C214 C 0.66641 0.19259 0.88664 0.0
O215 O 0.69075 0.18235 0.88257 0.0
H216 H 0.65975 0.13084 0.90786 0.0
H217 H 0.73176 0.14804 0.95072 0.0
N218 N 0.7044 0.20177 0.94831 0.0
N219 N 0.7353 0.23264 0.94396 0.0
C220 C 0.72197 0.21362 0.93164 0.0
C221 C 0.70698 0.21357 0.97198 0.0
C222 C 0.72597 0.2327 0.96933 0.0
C223 C 0.63483 0.19007 0.9768 0.0
O224 O 0.62839 0.20746 0.9592 0.0
H225 H 0.72377 0.20948 0.91057 0.0
H226 H 0.69484 0.20937 0.98957 0.0
O227 O 0.65591 0.19184 0.90995 0.0
H228 H 0.73726 0.10191 0.93078 0.0
H229 H 0.73188 0.24608 0.9846 0.0
Cu230 Cu 0.84393 0.83982 0.43538 0.0
N231 N 0.8288 0.87097 0.42599 0.0
N232 N 0.82301 0.91126 0.4143 0.0
C233 C 0.84144 0.89306 0.42075 0.0
C234 C 0.79802 0.90004 0.41538 0.0
C235 C 0.80167 0.87532 0.4225 0.0
O236 O 0.86747 0.84234 0.46678 0.0
C237 C 0.85111 0.82081 0.38344 0.0
O238 O 0.82497 0.82717 0.38118 0.0
H239 H 0.86359 0.89572 0.42173 0.0
H240 H 0.7856 0.86134 0.42461 0.0
N241 N 0.81503 0.81843 0.44493 0.0
N242 N 0.78596 0.78582 0.4469 0.0
C243 C 0.80825 0.79588 0.43458 0.0
C244 C 0.79665 0.82271 0.46453 0.0
C245 C 0.77865 0.80272 0.46575 0.0
C246 C 0.87947 0.82233 0.47451 0.0
O247 O 0.87724 0.80207 0.45963 0.0
H248 H 0.81966 0.78691 0.41864 0.0
H249 H 0.79629 0.83936 0.47692 0.0
O250 O 0.86367 0.8253 0.40529 0.0
H251 H 0.77848 0.90888 0.41065 0.0
H252 H 0.76123 0.80105 0.47918 0.0
Cu253 Cu 0.34734 0.67666 0.60137 0.0
N254 N 0.35516 0.6427 0.60741 0.0
N255 N 0.35266 0.60163 0.61704 0.0
C256 C 0.33827 0.6228 0.61115 0.0
C257 C 0.37946 0.60873 0.61712 0.0
C258 C 0.38087 0.6339 0.6113 0.0
O259 O 0.35502 0.68562 0.56444 0.0
C260 C 0.3719 0.71933 0.62702 0.0
O261 O 0.35958 0.73293 0.6086 0.0
H262 H 0.31598 0.62393 0.61005 0.0
H263 H 0.39937 0.64529 0.61088 0.0
N264 N 0.31019 0.68435 0.60745 0.0
N265 N 0.27359 0.70931 0.61451 0.0
C266 C 0.30071 0.7053 0.61946 0.0
C267 C 0.28823 0.67437 0.59488 0.0
C268 C 0.26563 0.68961 0.59929 0.0
C269 C 0.37722 0.68095 0.55174 0.0
O270 O 0.39781 0.66988 0.56413 0.0
H271 H 0.31384 0.71805 0.63039 0.0
H272 H 0.28911 0.65832 0.58165 0.0
O273 O 0.36985 0.69551 0.62636 0.0
H274 H 0.39685 0.59688 0.62223 0.0
H275 H 0.24552 0.68734 0.59015 0.0
Cu276 Cu 0.93833 0.84466 0.70467 0.0
N277 N 0.93026 0.83008 0.67144 0.0
N278 N 0.92184 0.82445 0.62783 0.0
C279 C 0.92976 0.84087 0.64699 0.0
C280 C 0.91744 0.80251 0.64071 0.0
C281 C 0.92257 0.80606 0.6675 0.0
O282 O 0.97322 0.86285 0.70294 0.0
C283 C 0.89152 0.87807 0.70195 0.0
O284 O 0.89667 0.87963 0.67625 0.0
H285 H 0.93483 0.86037 0.64334 0.0
H286 H 0.92026 0.7922 0.68316 0.0
N287 N 0.94242 0.81913 0.72997 0.0
N288 N 0.93625 0.7963 0.76703 0.0
C289 C 0.92894 0.81722 0.75342 0.0
C290 C 0.95893 0.79883 0.72868 0.0
C291 C 0.95508 0.78463 0.75147 0.0
C292 C 0.97632 0.88382 0.6911 0.0
O293 O 0.95481 0.8946 0.67994 0.0
H294 H 0.91369 0.8307 0.76012 0.0
H295 H 0.97265 0.79461 0.71222 0.0
O296 O 0.90746 0.86523 0.71689 0.0
H297 H 0.91001 0.78535 0.63157 0.0
H298 H 0.96553 0.76722 0.75631 0.0
Cu299 Cu 0.59155 0.17815 0.21055 0.0
N300 N 0.58973 0.1894 0.17529 0.0
N301 N 0.59527 0.19236 0.13099 0.0
C302 C 0.60084 0.17885 0.1533 0.0
C303 C 0.58011 0.21213 0.1395 0.0
C304 C 0.57672 0.21021 0.16673 0.0
O305 O 0.55784 0.16015 0.21915 0.0
C306 C 0.63151 0.15039 0.23894 0.0
O307 O 0.61497 0.15484 0.25921 0.0
H308 H 0.61255 0.16154 0.15375 0.0
H309 H 0.56571 0.2232 0.1795 0.0
N310 N 0.59293 0.20598 0.23312 0.0
N311 N 0.60771 0.23483 0.2622 0.0
C312 C 0.61503 0.21591 0.24564 0.0
C313 C 0.571 0.21915 0.24184 0.0
C314 C 0.58003 0.23694 0.25981 0.0
C315 C 0.54678 0.14374 0.20409 0.0
O316 O 0.55969 0.13674 0.18223 0.0
H317 H 0.63584 0.20876 0.24345 0.0
H318 H 0.54985 0.21564 0.23593 0.0
O319 O 0.62458 0.15807 0.21579 0.0
H320 H 0.57248 0.22729 0.1271 0.0
H321 H 0.5672 0.25025 0.27045 0.0
Cu322 Cu 0.4297 0.68404 0.31986 0.0
N323 N 0.41545 0.6954 0.35237 0.0
N324 N 0.40582 0.69896 0.39595 0.0
C325 C 0.42036 0.6864 0.37711 0.0
C326 C 0.39143 0.71662 0.38239 0.0
C327 C 0.39739 0.71434 0.3556 0.0
O328 O 0.46784 0.67373 0.32508 0.0
C329 C 0.39202 0.64275 0.31915 0.0
O330 O 0.39837 0.64033 0.34455 0.0
H331 H 0.43381 0.67057 0.38105 0.0
H332 H 0.38907 0.72565 0.33952 0.0
N333 N 0.42974 0.7109 0.29599 0.0
N334 N 0.42102 0.73397 0.25964 0.0
C335 C 0.41815 0.71132 0.27155 0.0
C336 C 0.4404 0.73398 0.29973 0.0
C337 C 0.43498 0.74831 0.27734 0.0
C338 C 0.48102 0.65647 0.31294 0.0
O339 O 0.46804 0.64201 0.29576 0.0
H340 H 0.40725 0.69549 0.26299 0.0
H341 H 0.4511 0.73999 0.3176 0.0
O342 O 0.40489 0.65886 0.30506 0.0
H343 H 0.37768 0.73037 0.39114 0.0
H344 H 0.44099 0.7677 0.27429 0.0
Cu345 Cu 0.08529 0.33573 0.82091 0.0
N346 N 0.09181 0.32073 0.85423 0.0
N347 N 0.10206 0.31408 0.89735 0.0
C348 C 0.10164 0.33095 0.87703 0.0
C349 C 0.09212 0.29256 0.88674 0.0
C350 C 0.08588 0.29672 0.86032 0.0
O351 O 0.05238 0.35645 0.82309 0.0
C352 C 0.14091 0.34666 0.80784 0.0
O353 O 0.14507 0.3232 0.81501 0.0
H354 H 0.1084 0.35027 0.87861 0.0
H355 H 0.0772 0.28319 0.84657 0.0
N356 N 0.07771 0.31034 0.79614 0.0
N357 N 0.08133 0.28116 0.76422 0.0
C358 C 0.09385 0.30058 0.77677 0.0
C359 C 0.05419 0.29687 0.79552 0.0
C360 C 0.05639 0.2788 0.77598 0.0
C361 C 0.05019 0.37528 0.83858 0.0
O362 O 0.07132 0.38174 0.85356 0.0
H363 H 0.11457 0.30704 0.77246 0.0
H364 H 0.03685 0.29971 0.80882 0.0
O365 O 0.11665 0.35577 0.80933 0.0
H366 H 0.08888 0.27511 0.89741 0.0
H367 H 0.04089 0.26493 0.77086 0.0
Cu368 Cu 0.69095 0.92363 0.82991 0.0
N369 N 0.65573 0.92212 0.81453 0.0
N370 N 0.61025 0.91637 0.80932 0.0
C371 C 0.63217 0.91378 0.82587 0.0
C372 C 0.62049 0.92662 0.78672 0.0
C373 C 0.64851 0.93007 0.78996 0.0
O374 O 0.69338 0.95239 0.85389 0.0
C375 C 0.72147 0.88812 0.85979 0.0
O376 O 0.74064 0.90561 0.85909 0.0
H377 H 0.63109 0.90635 0.84599 0.0
H378 H 0.66261 0.938 0.77548 0.0
N379 N 0.71762 0.92783 0.80316 0.0
N380 N 0.7554 0.92222 0.77806 0.0
C381 C 0.7384 0.91211 0.79662 0.0
C382 C 0.72149 0.94848 0.78808 0.0
C383 C 0.74468 0.94507 0.77254 0.0
C384 C 0.68234 0.9733 0.84755 0.0
O385 O 0.66825 0.97488 0.82518 0.0
H386 H 0.74119 0.89376 0.80555 0.0
H387 H 0.70879 0.96517 0.78889 0.0
O388 O 0.69812 0.89245 0.84901 0.0
H389 H 0.60866 0.93098 0.76894 0.0
H390 H 0.75355 0.95878 0.75905 0.0
Cu391 Cu 0.84412 0.09264 0.33665 0.0
N392 N 0.87956 0.09664 0.32249 0.0
N393 N 0.92267 0.11083 0.31616 0.0
C394 C 0.89798 0.11485 0.32818 0.0
C395 C 0.91939 0.08921 0.30234 0.0
C396 C 0.89288 0.08053 0.30633 0.0
O397 O 0.84246 0.06063 0.35524 0.0
C398 C 0.83193 0.1421 0.35112 0.0
O399 O 0.83527 0.14555 0.32531 0.0
H400 H 0.89337 0.13045 0.34127 0.0
H401 H 0.88418 0.06323 0.29871 0.0
N402 N 0.81758 0.09258 0.30951 0.0
N403 N 0.77728 0.09875 0.28853 0.0
C404 C 0.79153 0.10125 0.31162 0.0
C405 C 0.81998 0.08419 0.28427 0.0
C406 C 0.79518 0.08801 0.27125 0.0
C407 C 0.82129 0.05466 0.36888 0.0
O408 O 0.8009 0.07087 0.3709 0.0
H409 H 0.78345 0.10965 0.32968 0.0
H410 H 0.83844 0.07589 0.27591 0.0
O411 O 0.83563 0.12021 0.36077 0.0
H412 H 0.93525 0.0797 0.29097 0.0
H413 H 0.79067 0.08299 0.25076 0.0
Cu414 Cu 0.18836 0.59326 0.19759 0.0
N415 N 0.15111 0.59629 0.20734 0.0
N416 N 0.10693 0.60901 0.20839 0.0
C417 C 0.13228 0.61252 0.19749 0.0
C418 C 0.11015 0.58973 0.22572 0.0
C419 C 0.13729 0.58191 0.22493 0.0
O420 O 0.19531 0.56035 0.18212 0.0
C421 C 0.20013 0.6421 0.18021 0.0
O422 O 0.19389 0.6474 0.20514 0.0
H423 H 0.1371 0.62626 0.18224 0.0
H424 H 0.14628 0.56663 0.23623 0.0
N425 N 0.21144 0.59661 0.22739 0.0
N426 N 0.24938 0.60409 0.25177 0.0
C427 C 0.23819 0.60365 0.227 0.0
C428 C 0.20542 0.59242 0.25326 0.0
C429 C 0.22876 0.59701 0.26833 0.0
C430 C 0.17736 0.54754 0.16945 0.0
O431 O 0.15256 0.55693 0.16568 0.0
H432 H 0.24922 0.60818 0.20881 0.0
H433 H 0.18547 0.58659 0.2607 0.0
O434 O 0.19831 0.61943 0.17229 0.0
H435 H 0.09418 0.58187 0.23833 0.0
H436 H 0.23019 0.59573 0.28988 0.0
Cu437 Cu 0.34211 0.41627 0.6957 0.0
N438 N 0.3745 0.41183 0.71538 0.0
N439 N 0.41838 0.40328 0.72613 0.0
C440 C 0.39941 0.4044 0.70629 0.0
C441 C 0.40475 0.41035 0.74845 0.0
C442 C 0.37776 0.41563 0.74175 0.0
O443 O 0.34651 0.44646 0.67408 0.0
C444 C 0.31461 0.3839 0.65995 0.0
O445 O 0.29608 0.40195 0.65973 0.0
H446 H 0.40336 0.39958 0.68564 0.0
H447 H 0.36163 0.42188 0.75514 0.0
N448 N 0.31237 0.41899 0.71941 0.0
N449 N 0.27567 0.40845 0.74416 0.0
C450 C 0.29478 0.4005 0.72639 0.0
C451 C 0.30436 0.43929 0.73344 0.0
C452 C 0.28161 0.43289 0.7486 0.0
C453 C 0.3275 0.46203 0.66807 0.0
O454 O 0.302 0.45769 0.67576 0.0
H455 H 0.29586 0.38163 0.71838 0.0
H456 H 0.31445 0.45742 0.73274 0.0
O457 O 0.33656 0.3868 0.67358 0.0
H458 H 0.41369 0.41192 0.76821 0.0
H459 H 0.27063 0.44516 0.7622 0.0
Cu460 Cu 0.83278 0.69841 0.92155 0.0
N461 N 0.81832 0.66744 0.91085 0.0
N462 N 0.81359 0.62638 0.90232 0.0
C463 C 0.82871 0.64422 0.9149 0.0
C464 C 0.79292 0.63892 0.89006 0.0
C465 C 0.79591 0.66418 0.89534 0.0
O466 O 0.84719 0.69628 0.95795 0.0
C467 C 0.87186 0.72994 0.89507 0.0
O468 O 0.86681 0.74577 0.91463 0.0
H469 H 0.8474 0.6406 0.92616 0.0
H470 H 0.78289 0.67922 0.88804 0.0
N471 N 0.80439 0.72234 0.92114 0.0
N472 N 0.78057 0.75742 0.91227 0.0
C473 C 0.80294 0.74338 0.90619 0.0
C474 C 0.78191 0.72289 0.93695 0.0
C475 C 0.76712 0.74449 0.93149 0.0
C476 C 0.8727 0.69803 0.9639 0.0
O477 O 0.891 0.70032 0.94468 0.0
H478 H 0.81804 0.74843 0.8912 0.0
H479 H 0.77701 0.70886 0.95188 0.0
O480 O 0.86045 0.70837 0.89533 0.0
H481 H 0.77671 0.63046 0.87817 0.0
H482 H 0.74856 0.75067 0.9416 0.0
Cu483 Cu 0.3173 0.81955 0.09575 0.0
N484 N 0.29798 0.84968 0.09966 0.0
N485 N 0.28768 0.89049 0.10332 0.0
C486 C 0.30812 0.87317 0.10222 0.0
C487 C 0.26392 0.87731 0.1015 0.0
C488 C 0.27034 0.8522 0.09929 0.0
O489 O 0.33922 0.82003 0.06323 0.0
C490 C 0.35295 0.79294 0.12924 0.0
O491 O 0.3506 0.77613 0.11014 0.0
H492 H 0.32997 0.87751 0.10255 0.0
H493 H 0.25588 0.83681 0.09723 0.0
N494 N 0.29212 0.79299 0.09391 0.0
N495 N 0.26558 0.76062 0.10638 0.0
C496 C 0.28234 0.77943 0.11458 0.0
C497 C 0.28113 0.78255 0.07187 0.0
C498 C 0.26477 0.76257 0.07947 0.0
C499 C 0.32944 0.82881 0.04152 0.0
O500 O 0.30439 0.83834 0.04146 0.0
H501 H 0.28814 0.78286 0.13515 0.0
H502 H 0.28505 0.7888 0.05165 0.0
O503 O 0.34071 0.81396 0.12661 0.0
H504 H 0.24333 0.88524 0.10181 0.0
H505 H 0.25318 0.75045 0.0662 0.0
Cu506 Cu 0.19474 0.20286 0.6008 0.0
N507 N 0.2047 0.17205 0.61596 0.0
N508 N 0.20748 0.13077 0.62435 0.0
C509 C 0.19563 0.14894 0.60925 0.0
C510 C 0.22466 0.1431 0.64113 0.0
C511 C 0.22289 0.16848 0.63591 0.0
O512 O 0.17801 0.19707 0.56593 0.0
C513 C 0.1559 0.21167 0.64327 0.0
O514 O 0.15533 0.18715 0.64631 0.0
H515 H 0.18046 0.14565 0.59375 0.0
H516 H 0.23421 0.18334 0.6458 0.0
N517 N 0.22607 0.22302 0.59771 0.0
N518 N 0.25272 0.25711 0.60153 0.0
C519 C 0.22703 0.24756 0.60404 0.0
C520 C 0.25203 0.21667 0.59091 0.0
C521 C 0.2686 0.23772 0.59331 0.0
C522 C 0.18242 0.21091 0.54556 0.0
O523 O 0.19827 0.23083 0.54793 0.0
H524 H 0.20933 0.25796 0.61127 0.0
H525 H 0.25852 0.19799 0.58515 0.0
O526 O 0.17007 0.22121 0.62441 0.0
H527 H 0.23805 0.13445 0.65582 0.0
H528 H 0.29059 0.23862 0.58948 0.0
Cu529 Cu 0.70774 0.3167 0.43023 0.0
N530 N 0.72057 0.34877 0.42156 0.0
N531 N 0.7211 0.38982 0.41186 0.0
C532 C 0.70546 0.3699 0.41919 0.0
C533 C 0.74705 0.38073 0.40955 0.0
C534 C 0.74664 0.35543 0.41554 0.0
O535 O 0.68903 0.31681 0.4646 0.0
C536 C 0.68714 0.30657 0.37843 0.0
O537 O 0.71072 0.31633 0.37057 0.0
H538 H 0.68335 0.37047 0.42239 0.0
H539 H 0.76409 0.34273 0.41546 0.0
N540 N 0.73705 0.29382 0.43135 0.0
N541 N 0.76584 0.26295 0.41939 0.0
C542 C 0.74483 0.27801 0.41174 0.0
C543 C 0.7537 0.28856 0.45217 0.0
C544 C 0.77147 0.26946 0.44487 0.0
C545 C 0.69796 0.32827 0.4852 0.0
O546 O 0.72091 0.34138 0.48354 0.0
H547 H 0.73474 0.27698 0.3925 0.0
H548 H 0.75273 0.29774 0.47143 0.0
O549 O 0.68165 0.30558 0.40329 0.0
H550 H 0.76515 0.39162 0.40431 0.0
H551 H 0.7873 0.26109 0.4573 0.0
H552 H 0.1646 0.33794 0.19959 0.0
H553 H 0.12882 0.28433 0.14491 0.0
H554 H 0.11333 0.25859 0.18251 0.0
H555 H 0.11247 0.24999 0.23092 0.0
H556 H 0.14735 0.30393 0.28557 0.0
H557 H 0.16041 0.331 0.24808 0.0
C558 C 0.15321 0.32073 0.19589 0.0
C559 C 0.1481 0.31299 0.16943 0.0
C560 C 0.14429 0.30604 0.21763 0.0
C561 C 0.13304 0.29076 0.16503 0.0
C562 C 0.12428 0.27596 0.18654 0.0
C563 C 0.12285 0.26772 0.23456 0.0
C564 C 0.12916 0.27485 0.26095 0.0
C565 C 0.13021 0.28319 0.2129 0.0
C566 C 0.14215 0.29809 0.26547 0.0
C567 C 0.14977 0.31349 0.24402 0.0
H568 H 0.42827 0.75088 0.73548 0.0
H569 H 0.37974 0.81768 0.7219 0.0
H570 H 0.36337 0.8006 0.67948 0.0
H571 H 0.36207 0.76621 0.64657 0.0
H572 H 0.40982 0.69903 0.66089 0.0
H573 H 0.42776 0.71697 0.70232 0.0
C574 C 0.41433 0.76181 0.72314 0.0
C575 C 0.40523 0.7855 0.73197 0.0
C576 C 0.405 0.75187 0.69875 0.0
C577 C 0.38678 0.79924 0.71585 0.0
C578 C 0.37757 0.78956 0.69145 0.0
C579 C 0.37672 0.75566 0.65857 0.0
C580 C 0.38472 0.73138 0.6506 0.0
C581 C 0.38648 0.76586 0.68273 0.0
C582 C 0.40335 0.71777 0.66659 0.0
C583 C 0.41356 0.72798 0.69032 0.0
H584 H 0.59447 0.25842 0.80783 0.0
H585 H 0.67172 0.26049 0.76498 0.0
H586 H 0.69289 0.23326 0.79865 0.0
H587 H 0.68961 0.20949 0.84061 0.0
H588 H 0.61279 0.20864 0.88439 0.0
H589 H 0.59112 0.23447 0.84978 0.0
C590 C 0.61585 0.2527 0.80573 0.0
C591 C 0.63149 0.26143 0.78389 0.0
C592 C 0.62791 0.23722 0.82529 0.0
C593 C 0.65933 0.25423 0.78173 0.0
C594 C 0.67139 0.23856 0.8009 0.0
C595 C 0.66805 0.21475 0.84249 0.0
C596 C 0.6528 0.20703 0.865 0.0
C597 C 0.6559 0.23001 0.8228 0.0
C598 C 0.62498 0.21431 0.86726 0.0
C599 C 0.61259 0.2291 0.8475 0.0
H600 H 0.92613 0.76122 0.30179 0.0
H601 H 0.84823 0.75489 0.26039 0.0
H602 H 0.8256 0.77916 0.29553 0.0
H603 H 0.82788 0.80214 0.33804 0.0
H604 H 0.90578 0.80824 0.37961 0.0
H605 H 0.92852 0.78444 0.34414 0.0
C606 C 0.90427 0.76535 0.30027 0.0
C607 C 0.88896 0.75622 0.27837 0.0
C608 C 0.89138 0.77936 0.32056 0.0
C609 C 0.86049 0.7614 0.2771 0.0
C610 C 0.84755 0.77542 0.29713 0.0
C611 C 0.84987 0.7984 0.33931 0.0
C612 C 0.86509 0.80707 0.36147 0.0
C613 C 0.86278 0.78448 0.31896 0.0
C614 C 0.89354 0.80184 0.36281 0.0
C615 C 0.90657 0.7882 0.34253 0.0
H616 H 0.27962 0.16339 0.2251 0.0
H617 H 0.27587 0.08267 0.23273 0.0
H618 H 0.23373 0.08637 0.25961 0.0
H619 H 0.19709 0.11276 0.27984 0.0
H620 H 0.20087 0.19337 0.26991 0.0
H621 H 0.24372 0.18938 0.24498 0.0
C622 C 0.2698 0.14655 0.23282 0.0
C623 C 0.281 0.12279 0.22699 0.0
C624 C 0.24537 0.14879 0.2477 0.0
C625 C 0.26773 0.10121 0.23695 0.0
C626 C 0.24358 0.10332 0.25227 0.0
C627 C 0.20732 0.12943 0.27225 0.0
C628 C 0.19563 0.15332 0.27677 0.0
C629 C 0.23205 0.12703 0.25757 0.0
C630 C 0.2092 0.17472 0.2667 0.0
C631 C 0.23382 0.1725 0.25245 0.0
H632 H 0.35637 0.89794 0.74234 0.0
H633 H 0.32488 0.86002 0.81225 0.0
H634 H 0.27757 0.8666 0.7967 0.0
H635 H 0.24516 0.88053 0.76156 0.0
H636 H 0.27702 0.91951 0.69239 0.0
H637 H 0.32392 0.91521 0.70941 0.0
C638 C 0.33916 0.89134 0.75432 0.0
C639 C 0.34423 0.87833 0.77831 0.0
C640 C 0.31197 0.89523 0.74531 0.0
C641 C 0.32163 0.87011 0.7937 0.0
C642 C 0.29452 0.87375 0.78476 0.0
C643 C 0.26234 0.88827 0.75034 0.0
C644 C 0.25748 0.90012 0.72561 0.0
C645 C 0.28944 0.88588 0.76033 0.0
C646 C 0.28003 0.91026 0.71147 0.0
C647 C 0.30696 0.90775 0.72114 0.0
H648 H 0.75857 0.40571 0.79816 0.0
H649 H 0.81572 0.35423 0.76086 0.0
H650 H 0.77886 0.33799 0.7326 0.0
H651 H 0.72996 0.33641 0.72027 0.0
H652 H 0.67223 0.38725 0.75759 0.0
H653 H 0.70972 0.40578 0.78378 0.0
C654 C 0.76302 0.39114 0.78365 0.0
C655 C 0.78992 0.38113 0.78183 0.0
C656 C 0.74157 0.38162 0.7675 0.0
C657 C 0.79525 0.36223 0.76288 0.0
C658 C 0.77414 0.35287 0.74667 0.0
C659 C 0.72554 0.35167 0.73397 0.0
C660 C 0.69823 0.36027 0.73704 0.0
C661 C 0.74714 0.36211 0.74912 0.0
C662 C 0.69302 0.38018 0.75482 0.0
C663 C 0.71446 0.39077 0.76988 0.0
H664 H 0.85069 0.6248 0.26752 0.0
H665 H 0.81545 0.67638 0.21027 0.0
H666 H 0.76928 0.66765 0.22756 0.0
H667 H 0.7391 0.64739 0.26078 0.0
H668 H 0.77422 0.59529 0.31758 0.0
H669 H 0.82004 0.60206 0.29849 0.0
C670 C 0.8329 0.63399 0.25867 0.0
C671 C 0.83666 0.65138 0.23773 0.0
C672 C 0.8063 0.62885 0.2687 0.0
C673 C 0.81327 0.66293 0.22639 0.0
C674 C 0.78681 0.65801 0.23633 0.0
C675 C 0.75673 0.63734 0.26885 0.0
C676 C 0.75315 0.62099 0.29075 0.0
C677 C 0.78311 0.64131 0.25776 0.0
C678 C 0.77626 0.60799 0.30077 0.0
C679 C 0.80255 0.61193 0.28992 0.0
H680 H 0.31733 0.21348 0.14733 0.0
H681 H 0.28075 0.15848 0.09511 0.0
H682 H 0.24984 0.19058 0.0765 0.0
H683 H 0.23407 0.23464 0.07459 0.0
H684 H 0.26831 0.28901 0.12898 0.0
H685 H 0.29936 0.25694 0.14752 0.0
C686 C 0.30258 0.20867 0.13185 0.0
C687 C 0.30138 0.18386 0.12228 0.0
C688 C 0.28458 0.22709 0.12175 0.0
C689 C 0.28189 0.17752 0.10265 0.0
C690 C 0.26435 0.19586 0.09202 0.0
C691 C 0.24841 0.23935 0.09046 0.0
C692 C 0.24929 0.26409 0.10028 0.0
C693 C 0.26565 0.22073 0.10129 0.0
C694 C 0.26743 0.27003 0.12122 0.0
C695 C 0.28516 0.25176 0.1317 0.0
H696 H 0.82129 0.29822 0.88125 0.0
H697 H 0.77857 0.3576 0.9226 0.0
H698 H 0.74849 0.32665 0.9444 0.0
H699 H 0.73467 0.28254 0.95173 0.0
H700 H 0.77563 0.22347 0.90829 0.0
H701 H 0.80628 0.25435 0.88718 0.0
C702 C 0.80547 0.30429 0.89516 0.0
C703 C 0.80222 0.33004 0.9006 0.0
C704 C 0.78807 0.28645 0.90717 0.0
C705 C 0.78131 0.33784 0.91815 0.0
C706 C 0.76424 0.32017 0.93064 0.0
C707 C 0.75048 0.27652 0.93779 0.0
C708 C 0.75324 0.25084 0.93172 0.0
C709 C 0.76751 0.29442 0.92537 0.0
C710 C 0.77328 0.24318 0.91318 0.0
C711 C 0.79076 0.2608 0.9012 0.0
H712 H 0.7861 0.76064 0.39988 0.0
H713 H 0.755 0.75776 0.4807 0.0
H714 H 0.72963 0.71947 0.47039 0.0
H715 H 0.71529 0.68733 0.43829 0.0
H716 H 0.74628 0.68966 0.35755 0.0
H717 H 0.77333 0.72719 0.36818 0.0
C718 C 0.77409 0.75149 0.41535 0.0
C719 C 0.77232 0.76233 0.44099 0.0
C720 C 0.75959 0.72929 0.40933 0.0
C721 C 0.75637 0.75022 0.46067 0.0
C722 C 0.74195 0.72819 0.45485 0.0
C723 C 0.72787 0.6961 0.42299 0.0
C724 C 0.72857 0.6858 0.39713 0.0
C725 C 0.74316 0.71773 0.42919 0.0
C726 C 0.74549 0.69708 0.37767 0.0
C727 C 0.76083 0.71865 0.3837 0.0
H728 H 0.18992 0.79912 0.62644 0.0
H729 H 0.26577 0.83979 0.63958 0.0
H730 H 0.29215 0.80076 0.63564 0.0
H731 H 0.29373 0.75568 0.62644 0.0
H732 H 0.21775 0.7145 0.61467 0.0
H733 H 0.19139 0.75327 0.61975 0.0
C734 C 0.21223 0.79943 0.62829 0.0
C735 C 0.22589 0.82237 0.63306 0.0
C736 C 0.22724 0.77689 0.62614 0.0
C737 C 0.25477 0.82239 0.63601 0.0
C738 C 0.26986 0.80009 0.63366 0.0
C739 C 0.27142 0.75488 0.62541 0.0
C740 C 0.25791 0.73194 0.61993 0.0
C741 C 0.25631 0.77725 0.62856 0.0
C742 C 0.22886 0.73179 0.6184 0.0
C743 C 0.21371 0.754 0.6214 0.0
H744 H 0.88355 0.77787 0.88004 0.0
H745 H 0.89453 0.70063 0.85601 0.0
H746 H 0.9166 0.71441 0.81456 0.0
H747 H 0.93054 0.74845 0.78407 0.0
H748 H 0.91805 0.8256 0.80752 0.0
H749 H 0.89859 0.81183 0.85011 0.0
C750 C 0.8911 0.76403 0.86591 0.0
C751 C 0.88748 0.73825 0.87117 0.0
C752 C 0.90321 0.77209 0.84185 0.0
C753 C 0.89705 0.72059 0.85245 0.0
C754 C 0.90963 0.72846 0.82871 0.0
C755 C 0.92388 0.76224 0.79864 0.0
C756 C 0.9257 0.78803 0.79254 0.0
C757 C 0.91249 0.75416 0.82304 0.0
C758 C 0.91656 0.80565 0.81152 0.0
C759 C 0.90557 0.79778 0.83596 0.0
H760 H 0.59431 0.25292 0.31067 0.0
H761 H 0.66108 0.24771 0.25397 0.0
H762 H 0.69145 0.27063 0.28457 0.0
H763 H 0.69917 0.29138 0.32788 0.0
H764 H 0.63269 0.295 0.38523 0.0
H765 H 0.6019 0.27378 0.3538 0.0
C766 C 0.6154 0.25707 0.3049 0.0
C767 C 0.62541 0.24872 0.28004 0.0
C768 C 0.63276 0.26998 0.32271 0.0
C769 C 0.65298 0.25377 0.27307 0.0
C770 C 0.67029 0.26696 0.29051 0.0
C771 C 0.67788 0.28773 0.33341 0.0
C772 C 0.66821 0.29485 0.35883 0.0
C773 C 0.66043 0.27506 0.31544 0.0
C774 C 0.64066 0.28968 0.36581 0.0
C775 C 0.62304 0.27754 0.34785 0.0
H776 H 0.40514 0.78043 0.24427 0.0
H777 H 0.41337 0.70401 0.21665 0.0
H778 H 0.39404 0.71582 0.17337 0.0
H779 H 0.3736 0.7475 0.14384 0.0
H780 H 0.3645 0.82389 0.1715 0.0
H781 H 0.3858 0.81253 0.21413 0.0
C782 C 0.40302 0.76643 0.22868 0.0
C783 C 0.41061 0.74133 0.23377 0.0
C784 C 0.39175 0.77335 0.20383 0.0
C785 C 0.40734 0.72336 0.21343 0.0
C786 C 0.39642 0.73013 0.18861 0.0
C787 C 0.37645 0.76175 0.15908 0.0
C788 C 0.36744 0.78651 0.15444 0.0
C789 C 0.38835 0.75502 0.18367 0.0
C790 C 0.3712 0.80467 0.17453 0.0
C791 C 0.38335 0.79818 0.19894 0.0
H792 H 0.12067 0.19837 0.68337 0.0
H793 H 0.16141 0.26258 0.64821 0.0
H794 H 0.14227 0.28977 0.68281 0.0
H795 H 0.1146 0.29529 0.72378 0.0
H796 H 0.07303 0.23135 0.75816 0.0
H797 H 0.09176 0.20416 0.72326 0.0
C798 C 0.12525 0.21833 0.68318 0.0
C799 C 0.14252 0.22834 0.66322 0.0
C800 C 0.11409 0.23394 0.70311 0.0
C801 C 0.14812 0.25431 0.66326 0.0
C802 C 0.13727 0.2699 0.68312 0.0
C803 C 0.10981 0.27539 0.72363 0.0
C804 C 0.09253 0.26533 0.74353 0.0
C805 C 0.12042 0.2599 0.70329 0.0
C806 C 0.08609 0.23957 0.74292 0.0
C807 C 0.09687 0.22399 0.72302 0.0
H808 H 0.77899 0.93197 0.73032 0.0
H809 H 0.78942 0.88901 0.8028 0.0
H810 H 0.83291 0.87209 0.78596 0.0
H811 H 0.86811 0.86948 0.75065 0.0
H812 H 0.85741 0.91217 0.67796 0.0
H813 H 0.81423 0.92955 0.69512 0.0
C814 C 0.79086 0.91906 0.74253 0.0
C815 C 0.78083 0.9118 0.76779 0.0
C816 C 0.81595 0.90945 0.73275 0.0
C817 C 0.79634 0.89469 0.78314 0.0
C818 C 0.82138 0.88514 0.77361 0.0
C819 C 0.85646 0.88273 0.73863 0.0
C820 C 0.86609 0.88957 0.71308 0.0
C821 C 0.8314 0.89241 0.74846 0.0
C822 C 0.85053 0.90657 0.69769 0.0
C823 C 0.82579 0.9165 0.70747 0.0
H824 H 0.65365 0.13479 0.28615 0.0
H825 H 0.67155 0.14034 0.20182 0.0
H826 H 0.7181 0.12421 0.20965 0.0
H827 H 0.75441 0.11035 0.24068 0.0
H828 H 0.73621 0.1045 0.32492 0.0
H829 H 0.68928 0.11921 0.31684 0.0
C830 C 0.66763 0.13232 0.26942 0.0
C831 C 0.65905 0.13885 0.24344 0.0
C832 C 0.69447 0.1232 0.27407 0.0
C833 C 0.67754 0.13549 0.22204 0.0
C834 C 0.70422 0.12631 0.2265 0.0
C835 C 0.74014 0.11196 0.25726 0.0
C836 C 0.7491 0.10645 0.28342 0.0
C837 C 0.71302 0.12034 0.25247 0.0
C838 C 0.73022 0.10901 0.30464 0.0
C839 C 0.70324 0.11728 0.30003 0.0
H840 H 0.36672 0.65125 0.27125 0.0
H841 H 0.36071 0.60622 0.34284 0.0
H842 H 0.31644 0.58941 0.32769 0.0
H843 H 0.27809 0.58941 0.29544 0.0
H844 H 0.28343 0.63563 0.22472 0.0
H845 H 0.32934 0.64977 0.23807 0.0
C846 C 0.35595 0.6375 0.28341 0.0
C847 C 0.36707 0.63011 0.30824 0.0
C848 C 0.33022 0.62822 0.2748 0.0
C849 C 0.35267 0.61232 0.3237 0.0
C850 C 0.32727 0.60275 0.31509 0.0
C851 C 0.28922 0.60264 0.28298 0.0
C852 C 0.2771 0.61151 0.25915 0.0
C853 C 0.31557 0.61095 0.29094 0.0
C854 C 0.2922 0.62828 0.24301 0.0
C855 C 0.31847 0.63651 0.25072 0.0
H856 H 0.22588 0.42531 0.76045 0.0
H857 H 0.27599 0.35853 0.75458 0.0
H858 H 0.23887 0.33355 0.77427 0.0
H859 H 0.19203 0.33058 0.79294 0.0
H860 H 0.14148 0.39724 0.79806 0.0
H861 H 0.17897 0.42237 0.7792 0.0
C862 C 0.22876 0.40534 0.7637 0.0
C863 C 0.25372 0.39384 0.75603 0.0
C864 C 0.20723 0.39106 0.77495 0.0
C865 C 0.25691 0.36783 0.75999 0.0
C866 C 0.23573 0.35354 0.7714 0.0
C867 C 0.18924 0.35063 0.79007 0.0
C868 C 0.16396 0.36198 0.79699 0.0
C869 C 0.21078 0.36494 0.77891 0.0
C870 C 0.16067 0.38797 0.7929 0.0
C871 C 0.18212 0.40238 0.7821 0.0
H872 H 0.72979 0.77745 0.90568 0.0
H873 H 0.81667 0.79311 0.89617 0.0
H874 H 0.806 0.8352 0.87977 0.0
H875 H 0.77209 0.86767 0.86814 0.0
H876 H 0.68503 0.85186 0.87593 0.0
H877 H 0.69562 0.8099 0.89324 0.0
C878 C 0.74634 0.79015 0.90012 0.0
C879 C 0.77397 0.7821 0.90213 0.0
C880 C 0.74003 0.81435 0.89051 0.0
C881 C 0.79522 0.79867 0.89451 0.0
C882 C 0.78915 0.82283 0.88529 0.0
C883 C 0.75542 0.85512 0.87381 0.0
C884 C 0.72781 0.86296 0.87096 0.0
C885 C 0.76164 0.83089 0.88324 0.0
C886 C 0.70646 0.8463 0.87798 0.0
C887 C 0.7125 0.8223 0.88786 0.0
H888 H 0.21152 0.69068 0.19293 0.0
H889 H 0.21334 0.63824 0.12715 0.0
H890 H 0.23319 0.67059 0.09824 0.0
H891 H 0.25147 0.71335 0.09208 0.0
H892 H 0.2498 0.76555 0.15801 0.0
H893 H 0.22872 0.7336 0.18647 0.0
C894 C 0.21609 0.68632 0.17223 0.0
C895 C 0.21092 0.66202 0.16226 0.0
C896 C 0.22773 0.70493 0.15578 0.0
C897 C 0.2171 0.65675 0.13538 0.0
C898 C 0.22849 0.67525 0.11883 0.0
C899 C 0.2462 0.71786 0.11256 0.0
C900 C 0.25232 0.74187 0.12285 0.0
C901 C 0.23407 0.69935 0.12886 0.0
C902 C 0.24571 0.74718 0.14963 0.0
C903 C 0.2335 0.72894 0.1659 0.0
H904 H 0.26753 0.37 0.63423 0.0
H905 H 0.34817 0.34259 0.65686 0.0
H906 H 0.33672 0.3011 0.63916 0.0
H907 H 0.30262 0.27183 0.62001 0.0
H908 H 0.2219 0.29932 0.59806 0.0
H909 H 0.23454 0.34147 0.61283 0.0
C910 C 0.28273 0.35505 0.63508 0.0
C911 C 0.30862 0.35943 0.647 0.0
C912 C 0.2759 0.33114 0.62518 0.0
C913 C 0.32804 0.33977 0.64789 0.0
C914 C 0.3215 0.31599 0.63781 0.0
C915 C 0.28797 0.28712 0.61806 0.0
C916 C 0.26126 0.28234 0.60815 0.0
C917 C 0.29533 0.31135 0.62679 0.0
C918 C 0.24242 0.30237 0.60604 0.0
C919 C 0.24967 0.32652 0.61438 0.0
H920 H 0.7875 0.21924 0.43721 0.0
H921 H 0.77328 0.26303 0.36595 0.0
H922 H 0.79344 0.22977 0.33865 0.0
H923 H 0.81396 0.18791 0.33482 0.0
H924 H 0.82725 0.14324 0.40572 0.0
H925 H 0.80891 0.17727 0.43339 0.0
C926 C 0.78911 0.22158 0.41575 0.0
C927 C 0.77882 0.24357 0.40363 0.0
C928 C 0.80054 0.20222 0.40011 0.0
C929 C 0.78071 0.24618 0.37573 0.0
C930 C 0.79236 0.22721 0.36012 0.0
C931 C 0.81305 0.18562 0.35635 0.0
C932 C 0.82202 0.16303 0.36815 0.0
C933 C 0.80214 0.20508 0.37206 0.0
C934 C 0.82048 0.16041 0.39608 0.0
C935 C 0.80997 0.17986 0.41193 0.0
H936 H 0.19333 0.23253 0.49723 0.0
H937 H 0.14582 0.17327 0.53428 0.0
H938 H 0.1285 0.16033 0.49061 0.0
H939 H 0.12766 0.1651 0.44203 0.0
H940 H 0.1765 0.22311 0.40447 0.0
H941 H 0.192 0.23757 0.4483 0.0
C942 C 0.17907 0.21686 0.4958 0.0
C943 C 0.17096 0.20387 0.51908 0.0
C944 C 0.16938 0.20931 0.47053 0.0
C945 C 0.1525 0.18358 0.51676 0.0
C946 C 0.14257 0.17615 0.49176 0.0
C947 C 0.1419 0.18075 0.44328 0.0
C948 C 0.15103 0.1928 0.41977 0.0
C949 C 0.15108 0.18871 0.46851 0.0
C950 C 0.16893 0.21353 0.42209 0.0
C951 C 0.17796 0.22173 0.44719 0.0
H952 H 0.31428 0.84571 0.9923 0.0
H953 H 0.38052 0.80791 0.03389 0.0
H954 H 0.4059 0.80351 0.99197 0.0
H955 H 0.40897 0.80979 0.94337 0.0
H956 H 0.34244 0.8471 0.90183 0.0
H957 H 0.31769 0.85254 0.94391 0.0
C958 C 0.33431 0.83657 0.99226 0.0
C959 C 0.3454 0.8271 0.01626 0.0
C960 C 0.34878 0.83403 0.96806 0.0
C961 C 0.37144 0.81538 0.01576 0.0
C962 C 0.38597 0.81281 0.99176 0.0
C963 C 0.38897 0.81894 0.94346 0.0
C964 C 0.3776 0.82795 0.91937 0.0
C965 C 0.37475 0.8219 0.96776 0.0
C966 C 0.35186 0.84021 0.92003 0.0
C967 C 0.3376 0.8432 0.9441 0.0
H968 H 0.71235 0.34825 0.53362 0.0
H969 H 0.65011 0.30273 0.49506 0.0
H970 H 0.62651 0.29705 0.53764 0.0
H971 H 0.62394 0.30406 0.58589 0.0
H972 H 0.68629 0.34876 0.62506 0.0
H973 H 0.70911 0.35604 0.58214 0.0
C974 C 0.69357 0.33716 0.53449 0.0
C975 C 0.68315 0.32586 0.51109 0.0
C976 C 0.68005 0.33384 0.55917 0.0
C977 C 0.65872 0.31161 0.51268 0.0
C978 C 0.64516 0.30832 0.53706 0.0
C979 C 0.64264 0.31524 0.58514 0.0
C980 C 0.65346 0.32565 0.60881 0.0
C981 C 0.65577 0.31915 0.56046 0.0
C982 C 0.67736 0.34063 0.60722 0.0
C983 C 0.69053 0.34468 0.58267 0.0
H984 H 0.92492 0.71819 0.07766 0.0
H985 H 0.84923 0.68316 0.10337 0.0
H986 H 0.83537 0.67697 0.05666 0.0
H987 H 0.84421 0.68309 1.00838 0.0
H988 H 0.92118 0.71656 0.98318 0.0
H989 H 0.93511 0.7218 0.02969 0.0
C990 C 0.90539 0.70922 0.07297 0.0
C991 C 0.88797 0.70136 0.09386 0.0
C992 C 0.89779 0.7055 0.04615 0.0
C993 C 0.86298 0.68929 0.08759 0.0
C994 C 0.85503 0.68587 0.06091 0.0
C995 C 0.86407 0.69144 0.01309 0.0
C996 C 0.88153 0.69957 0.99227 0.0
C997 C 0.87216 0.69412 0.04 0.0
C998 C 0.90734 0.71009 0.99874 0.0
C999 C 0.9153 0.71318 0.02537 0.0
H1000 H 0.4207 0.13075 0.23236 0.0
H1001 H 0.42447 0.08145 0.16395 0.0
H1002 H 0.4744 0.0873 0.16143 0.0
H1003 H 0.51633 0.10964 0.17589 0.0
H1004 H 0.51234 0.15921 0.24409 0.0
H1005 H 0.46336 0.14983 0.24948 0.0
C1006 C 0.43246 0.12099 0.21711 0.0
C1007 C 0.41871 0.10591 0.19821 0.0
C1008 C 0.46119 0.12464 0.21556 0.0
C1009 C 0.4344 0.09328 0.17872 0.0
C1010 C 0.463 0.09669 0.17717 0.0
C1011 C 0.50484 0.11817 0.19214 0.0
C1012 C 0.51802 0.13534 0.20933 0.0
C1013 C 0.47652 0.11284 0.19505 0.0
C1014 C 0.50279 0.14603 0.23042 0.0
C1015 C 0.47469 0.14073 0.23351 0.0
H1016 H 0.0244 0.86921 0.7154 0.0
H1017 H 0.99122 0.92364 0.65993 0.0
H1018 H 0.03748 0.94007 0.65183 0.0
H1019 H 0.08755 0.93721 0.65801 0.0
H1020 H 0.12133 0.88317 0.71344 0.0
H1021 H 0.07463 0.86866 0.72432 0.0
C1022 C 0.02726 0.88478 0.70168 0.0
C1023 C 1.0043 0.89498 0.6881 0.0
C1024 C 0.05404 0.89422 0.69709 0.0
C1025 C 1.00843 0.91533 0.6706 0.0
C1026 C 0.03493 0.92474 0.6659 0.0
C1027 C 0.08474 0.92241 0.67269 0.0
C1028 C 0.10796 0.91115 0.68471 0.0
C1029 C 0.05791 0.91407 0.67868 0.0
C1030 C 0.10385 0.89219 0.70389 0.0
C1031 C 0.07714 0.88378 0.71 0.0
H1032 H 1.00495 0.37091 0.80647 0.0
H1033 H 0.03504 0.40942 0.8766 0.0
H1034 H 0.9896 0.42827 0.88341 0.0
H1035 H 0.94048 0.43118 0.87153 0.0
H1036 H 0.9103 0.39267 0.80143 0.0
H1037 H 0.95671 0.37683 0.79234 0.0
C1038 C 1.00164 0.38358 0.82313 0.0
C1039 C 0.02334 0.3885 0.84117 0.0
C1040 C 0.97542 0.39437 0.82696 0.0
C1041 C 0.01873 0.4052 0.86246 0.0
C1042 C 0.99271 0.41597 0.86641 0.0
C1043 C 0.94408 0.41959 0.85406 0.0
C1044 C 0.92183 0.41296 0.83735 0.0
C1045 C 0.97078 0.41031 0.84908 0.0
C1046 C 0.92699 0.39808 0.81467 0.0
C1047 C 0.95352 0.38887 0.80953 0.0
H1048 H 0.51542 0.61776 0.2983 0.0
H1049 H 0.51504 0.69061 0.33637 0.0
H1050 H 0.56488 0.68858 0.34212 0.0
H1051 H 0.60856 0.66631 0.337 0.0
H1052 H 0.60986 0.59243 0.30162 0.0
H1053 H 0.55983 0.59476 0.29399 0.0
C1054 C 0.52627 0.63316 0.30785 0.0
C1055 C 0.51137 0.6543 0.31687 0.0
C1056 C 0.55515 0.63178 0.31147 0.0
C1057 C 0.52581 0.67403 0.32935 0.0
C1058 C 0.55441 0.67297 0.33257 0.0
C1059 C 0.59801 0.65078 0.32736 0.0
C1060 C 0.613 0.62933 0.31964 0.0
C1061 C 0.56927 0.65198 0.32373 0.0
C1062 C 0.59883 0.60921 0.30764 0.0
C1063 C 0.57021 0.61052 0.30334 0.0
H1064 H 0.22493 0.44159 0.13582 0.0
H1065 H 0.14063 0.43116 0.11002 0.0
H1066 H 0.12902 0.4734 0.12538 0.0
H1067 H 0.1429 0.51354 0.14581 0.0
H1068 H 0.22741 0.52385 0.1713 0.0
H1069 H 0.23886 0.48161 0.156 0.0
C1070 C 0.20407 0.44859 0.13331 0.0
C1071 C 0.18373 0.43311 0.12171 0.0
C1072 C 0.19756 0.47297 0.14206 0.0
C1073 C 0.15666 0.44245 0.11914 0.0
C1074 C 0.15003 0.46671 0.12777 0.0
C1075 C 0.16385 0.5066 0.14796 0.0
C1076 C 0.18424 0.52195 0.15967 0.0
C1077 C 0.17032 0.48217 0.13923 0.0
C1078 C 0.21126 0.51252 0.16238 0.0
C1079 C 0.21786 0.48832 0.15364 0.0
H1080 H 0.66089 0.01983 0.83927 0.0
H1081 H 0.7136 0.97817 0.89301 0.0
H1082 H 0.72241 0.01642 0.91873 0.0
H1083 H 0.71582 0.06195 0.92538 0.0
H1084 H 0.66351 0.1033 0.87108 0.0
H1085 H 0.65369 0.06486 0.84634 0.0
C1086 C 0.67425 0.01902 0.85666 0.0
C1087 C 0.68662 0.99611 0.86411 0.0
C1088 C 0.6793 0.04108 0.87128 0.0
C1089 C 0.70379 0.99551 0.88679 0.0
C1090 C 0.70889 0.01741 0.90148 0.0
C1091 C 0.70243 0.06259 0.90804 0.0
C1092 C 0.69047 0.08558 0.90013 0.0
C1093 C 0.69694 0.04035 0.89378 0.0
C1094 C 0.67275 0.08591 0.87785 0.0
C1095 C 0.66724 0.06392 0.86357 0.0
H1096 H 0.85866 0.01606 0.36731 0.0
H1097 H 0.77815 0.03611 0.39782 0.0
H1098 H 0.77233 0.99383 0.41569 0.0
H1099 H 0.7891 0.95078 0.42125 0.0
H1100 H 0.869 0.92993 0.3903 0.0
H1101 H 0.87628 0.973 0.37452 0.0
C1102 C 0.83991 0.01123 0.378 0.0
C1103 C 0.81881 0.02928 0.38103 0.0
C1104 C 0.83658 0.98673 0.3882 0.0
C1105 C 0.7947 0.02266 0.39505 0.0
C1106 C 0.79132 0.99843 0.4053 0.0
C1107 C 0.80807 0.95559 0.41095 0.0
C1108 C 0.82833 0.93703 0.40674 0.0
C1109 C 0.81195 0.98026 0.4017 0.0
C1110 C 0.85311 0.94382 0.39395 0.0
C1111 C 0.8572 0.96842 0.38476 0.0
H1112 H 0.29604 0.50445 0.66323 0.0
H1113 H 0.37539 0.4732 0.64201 0.0
H1114 H 0.38917 0.51324 0.62237 0.0
H1115 H 0.37984 0.55752 0.61341 0.0
H1116 H 0.3018 0.58996 0.6368 0.0
H1117 H 0.28611 0.54892 0.6527 0.0
C1118 C 0.31623 0.50632 0.65406 0.0
C1119 C 0.3347 0.48583 0.65424 0.0
C1120 C 0.32428 0.52962 0.64317 0.0
C1121 C 0.36083 0.48866 0.64234 0.0
C1122 C 0.36874 0.51157 0.63108 0.0
C1123 C 0.35944 0.55576 0.62211 0.0
C1124 C 0.34224 0.57703 0.62418 0.0
C1125 C 0.35084 0.53227 0.63182 0.0
C1126 C 0.31552 0.57402 0.63481 0.0
C1127 C 0.30659 0.55054 0.64411 0.0
H1128 H 0.88188 0.85826 0.51379 0.0
H1129 H 0.90647 0.78213 0.49566 0.0
H1130 H 0.92327 0.77664 0.54114 0.0
H1131 H 0.92809 0.79222 0.58698 0.0
H1132 H 0.90346 0.86798 0.60586 0.0
H1133 H 0.89004 0.87497 0.55926 0.0
C1134 C 0.89123 0.84059 0.51969 0.0
C1135 C 0.89262 0.82058 0.50129 0.0
C1136 C 0.90077 0.83742 0.54612 0.0
C1137 C 0.9049 0.79783 0.50935 0.0
C1138 C 0.91451 0.79461 0.53543 0.0
C1139 C 0.91985 0.81028 0.58086 0.0
C1140 C 0.91654 0.82944 0.59993 0.0
C1141 C 0.91202 0.81407 0.55412 0.0
C1142 C 0.90636 0.85294 0.59158 0.0
C1143 C 0.8985 0.85689 0.56495 0.0
H1144 H 0.65291 0.16644 0.02185 0.0
H1145 H 0.5881 0.21476 0.99225 0.0
H1146 H 0.56922 0.21859 0.03732 0.0
H1147 H 0.5724 0.20989 0.08528 0.0
H1148 H 0.63876 0.16354 0.1153 0.0
H1149 H 0.65536 0.15691 0.06988 0.0
C1150 C 0.63446 0.17757 0.02519 0.0
C1151 C 0.62196 0.19032 1.00367 0.0
C1152 C 0.62401 0.18011 0.05127 0.0
C1153 C 0.59819 0.20481 1.00843 0.0
C1154 C 0.58739 0.20704 0.03422 0.0
C1155 C 0.59061 0.19847 0.08203 0.0
C1156 C 0.60434 0.18743 0.10394 0.0
C1157 C 0.60042 0.19513 0.05585 0.0
C1158 C 0.62754 0.17217 0.09901 0.0
C1159 C 0.6372 0.16847 0.07297 0.0
H1160 H 0.36467 0.71069 0.43021 0.0
H1161 H 0.44531 0.6763 0.42617 0.0
H1162 H 0.4438 0.66789 0.47413 0.0
H1163 H 0.41946 0.67019 0.51733 0.0
H1164 H 0.339 0.70514 0.52095 0.0
H1165 H 0.34089 0.71383 0.47316 0.0
C1166 C 0.38212 0.70164 0.43976 0.0
C1167 C 0.40509 0.6942 0.42441 0.0
C1168 C 0.3812 0.697 0.46739 0.0
C1169 C 0.42721 0.682 0.43729 0.0
C1170 C 0.42644 0.67731 0.46481 0.0
C1171 C 0.40238 0.67981 0.50771 0.0
C1172 C 0.37912 0.68697 0.52282 0.0
C1173 C 0.40351 0.68469 0.48007 0.0
C1174 C 0.35717 0.69937 0.50991 0.0
C1175 C 0.3582 0.70434 0.48252 0.0
H1176 H 0.14084 0.31142 0.01725 0.0
H1177 H 0.12927 0.39147 1.00933 0.0
H1178 H 0.11388 0.38587 0.96311 0.0
H1179 H 0.10472 0.35819 0.92457 0.0
H1180 H 0.11915 0.27841 0.93238 0.0
H1181 H 0.1322 0.284 0.97888 0.0
C1182 C 0.13462 0.32763 1.00554 0.0
C1183 C 0.13602 0.35181 0.01682 0.0
C1184 C 0.12643 0.32434 0.97882 0.0
C1185 C 0.12833 0.37263 1.00116 0.0
C1186 C 0.1196 0.36945 0.9747 0.0
C1187 C 0.11093 0.34204 0.93632 0.0
C1188 C 0.11068 0.31787 0.92477 0.0
C1189 C 0.11886 0.3454 0.96319 0.0
C1190 C 0.11857 0.29719 0.94063 0.0
C1191 C 0.12622 0.30036 0.96731 0.0
H1192 H 0.56449 0.93881 0.78996 0.0
H1193 H 0.59224 0.87773 0.83988 0.0
H1194 H 0.54447 0.86401 0.84625 0.0
H1195 H 0.49507 0.86808 0.83573 0.0
H1196 H 0.4672 0.92939 0.78597 0.0
H1197 H 0.51473 0.9443 0.78146 0.0
C1198 C 0.56006 0.92247 0.80218 0.0
C1199 C 0.58194 0.90919 0.81424 0.0
C1200 C 0.53253 0.91471 0.80575 0.0
C1201 C 0.57581 0.88836 0.83049 0.0
C1202 C 0.5485 0.88043 0.83402 0.0
C1203 C 0.49933 0.88481 0.82403 0.0
C1204 C 0.47753 0.89748 0.81106 0.0
C1205 C 0.52672 0.89329 0.82149 0.0
C1206 C 0.48349 0.91924 0.79617 0.0
C1207 C 0.51071 0.92774 0.7935 0.0
H1208 H 0.96788 0.10993 0.28401 0.0
H1209 H 0.93473 0.14489 0.35504 0.0
H1210 H 0.97719 0.16859 0.36066 0.0
H1211 H 0.02429 0.17854 0.34659 0.0
H1212 H 0.05876 0.1425 0.27691 0.0
H1213 H 0.01534 0.11981 0.26992 0.0
C1214 C 0.96989 0.12254 0.30087 0.0
C1215 C 0.94779 0.12541 0.31903 0.0
C1216 C 0.99473 0.13589 0.30435 0.0
C1217 C 0.95094 0.14233 0.34045 0.0
C1218 C 0.97542 0.15585 0.34385 0.0
C1219 C 0.02235 0.1658 0.32978 0.0
C1220 C 0.0448 0.16226 0.3123 0.0
C1221 C 0.99749 0.15267 0.32604 0.0
C1222 C 0.04185 0.14558 0.2907 0.0
C1223 C 0.01701 0.1326 0.2867 0.0
H1224 H 0.05404 0.59469 0.21882 0.0
H1225 H 0.10265 0.65521 0.18546 0.0
H1226 H 0.06074 0.67889 0.17638 0.0
H1227 H 1.0105 0.68322 0.17888 0.0
H1228 H 0.96158 0.62393 0.214 0.0
H1229 H 1.0035 0.59918 0.22169 0.0
C1230 C 0.05564 0.61313 0.20978 0.0
C1231 C 0.08181 0.62296 0.20287 0.0
C1232 C 0.03133 0.62697 0.20496 0.0
C1233 C 0.08304 0.64682 0.19073 0.0
C1234 C 0.05899 0.66054 0.18565 0.0
C1235 C 1.00889 0.66482 0.18812 0.0
C1236 C 0.98283 0.65546 0.1958 0.0
C1237 C 0.03306 0.65086 0.19276 0.0
C1238 C 0.98131 0.63163 0.20788 0.0
C1239 C 1.00531 0.61747 0.21229 0.0
H1240 H 0.45161 0.40669 0.68278 0.0
H1241 H 0.4499 0.38278 0.7652 0.0
H1242 H 0.49812 0.36991 0.76228 0.0
H1243 H 0.54045 0.36424 0.73612 0.0
H1244 H 0.5422 0.3872 0.65336 0.0
H1245 H 0.49436 0.40152 0.65664 0.0
C1246 C 0.4617 0.39851 0.70004 0.0
C1247 C 0.447 0.39575 0.72417 0.0
C1248 C 0.48951 0.39097 0.6982 0.0
C1249 C 0.46067 0.38545 0.74647 0.0
C1250 C 0.48827 0.37795 0.74479 0.0
C1251 C 0.53048 0.37254 0.71882 0.0
C1252 C 0.54499 0.37461 0.69453 0.0
C1253 C 0.50287 0.38054 0.72075 0.0
C1254 C 0.5316 0.38535 0.67233 0.0
C1255 C 0.50418 0.3935 0.67416 0.0
H1256 H 0.80106 0.5944 0.86229 0.0
H1257 H 0.83723 0.59794 0.94097 0.0
H1258 H 0.84394 0.55237 0.94071 0.0
H1259 H 0.83845 0.51138 0.91852 0.0
H1260 H 0.80232 0.50791 0.83982 0.0
H1261 H 0.79671 0.55358 0.83963 0.0
C1262 C 0.81025 0.58519 0.87945 0.0
C1263 C 0.81844 0.59959 0.90172 0.0
C1264 C 0.81406 0.55899 0.87913 0.0
C1265 C 0.8309 0.58738 0.92353 0.0
C1266 C 0.83461 0.56129 0.92344 0.0
C1267 C 0.82921 0.5206 0.90139 0.0
C1268 C 0.82065 0.50617 0.87927 0.0
C1269 C 0.82608 0.54688 0.90143 0.0
C1270 C 0.80925 0.51852 0.857 0.0
C1271 C 0.80591 0.54464 0.85695 0.0
H1272 H 0.32754 0.91665 0.12896 0.0
H1273 H 0.25362 0.92509 0.08164 0.0
H1274 H 0.25687 0.9707 0.08532 0.0
H1275 H 0.28024 1.00821 0.10241 0.0
H1276 H 0.354 1.00036 0.15002 0.0
H1277 H 0.35126 0.95459 0.14596 0.0
C1278 C 0.31232 0.92852 0.11929 0.0
C1279 C 0.29033 0.91745 0.1051 0.0
C1280 C 0.3142 0.95484 0.12166 0.0
C1281 C 0.27053 0.93308 0.09297 0.0
C1282 C 0.27244 0.95919 0.09496 0.0
C1283 C 0.29588 0.99653 0.11167 0.0
C1284 C 0.31734 1.00775 0.12642 0.0
C1285 C 0.29411 0.97027 0.10932 0.0
C1286 C 0.33712 0.99223 0.13876 0.0
C1287 C 0.33564 0.96605 0.13633 0.0
H1288 H 0.18543 0.0167 0.59875 0.0
H1289 H 0.21567 1.00895 0.67953 0.0
H1290 H 0.22039 0.05436 0.68306 0.0
H1291 H 0.21674 0.09631 0.66315 0.0
H1292 H 0.18851 0.10417 0.58172 0.0
H1293 H 0.18217 0.05879 0.57864 0.0
C1294 C 0.19326 0.02485 0.61707 0.0
C1295 C 0.20014 1.00917 0.63882 0.0
C1296 C 0.19627 0.05112 0.61891 0.0
C1297 C 0.20981 0.02034 0.66254 0.0
C1298 C 0.21272 0.04641 0.66455 0.0
C1299 C 0.20945 0.08818 0.64461 0.0
C1300 C 0.20323 0.10387 0.62269 0.0
C1301 C 0.20614 0.06197 0.64283 0.0
C1302 C 0.19322 0.09279 0.59905 0.0
C1303 C 0.18974 0.06673 0.5972 0.0
H1304 H 0.74511 0.42518 0.38057 0.0
H1305 H 0.67667 0.41251 0.43422 0.0
H1306 H 0.66173 0.45588 0.42836 0.0
H1307 H 0.66855 0.49759 0.40897 0.0
H1308 H 0.73778 0.51121 0.35662 0.0
H1309 H 0.7518 0.46723 0.36082 0.0
C1310 C 0.72705 0.43192 0.39114 0.0
C1311 C 0.71211 0.41546 0.40787 0.0
C1312 C 0.71865 0.45706 0.38785 0.0
C1313 C 0.68842 0.42452 0.42099 0.0
C1314 C 0.67993 0.44943 0.41777 0.0
C1315 C 0.68687 0.49109 0.39864 0.0
C1316 C 0.7022 0.50788 0.38268 0.0
C1317 C 0.69497 0.46588 0.40141 0.0
C1318 C 0.72546 0.49877 0.36889 0.0
C1319 C 0.73359 0.47362 0.37144 0.0
loop_
_geom_bond_atom_site_label_1
_geom_bond_atom_site_label_2
_geom_bond_distance
_geom_bond_site_symmetry_2
_ccdc_geom_bond_type
Cu0 N1 1.999 . S
Cu0 O6 1.974 . S
Cu0 N11 1.985 . S
Cu0 O20 1.959 . S
N1 Cu0 1.999 . S
N1 C3 1.263 . S
N1 C5 1.389 . S
N2 C3 1.358 . S
N2 C4 1.400 . S
C3 N1 1.263 . S
C3 N2 1.358 . S
C3 H9 0.930 . S
C4 N2 1.400 . S
C4 C5 1.351 . S
C4 H21 0.930 . S
C5 N1 1.389 . S
C5 C4 1.351 . S
C5 H10 0.930 . S
O6 Cu0 1.974 . S
O6 C16 1.282 . S
C7 O8 1.261 . S
C7 O20 1.251 . S
O8 C7 1.261 . S
H9 C3 0.930 . S
H10 C5 0.930 . S
N11 Cu0 1.985 . S
N11 C13 1.335 . S
N11 C14 1.390 . S
N12 C13 1.345 . S
N12 C15 1.336 . S
C13 N11 1.335 . S
C13 N12 1.345 . S
C13 H18 0.930 . S
C14 N11 1.390 . S
C14 C15 1.346 . S
C14 H19 0.930 . S
C15 N12 1.336 . S
C15 C14 1.346 . S
C15 H22 0.929 . S
C16 O6 1.282 . S
C16 O17 1.216 . S
O17 C16 1.216 . S
H18 C13 0.930 . S
H19 C14 0.930 . S
O20 Cu0 1.959 . S
O20 C7 1.251 . S
H21 C4 0.930 . S
H22 C15 0.929 . S
Cu23 N24 1.999 . S
Cu23 O29 1.974 . S
Cu23 N34 1.985 . S
Cu23 O43 1.959 . S
N24 Cu23 1.999 . S
N24 C26 1.263 . S
N24 C28 1.389 . S
N25 C26 1.358 . S
N25 C27 1.400 . S
C26 N24 1.263 . S
C26 N25 1.358 . S
C26 H32 0.930 . S
C27 N25 1.400 . S
C27 C28 1.351 . S
C27 H44 0.930 . S
C28 N24 1.389 . S
C28 C27 1.351 . S
C28 H33 0.930 . S
O29 Cu23 1.974 . S
O29 C39 1.282 . S
C30 O31 1.261 . S
C30 O43 1.251 . S
O31 C30 1.261 . S
H32 C26 0.930 . S
H33 C28 0.930 . S
N34 Cu23 1.985 . S
N34 C36 1.335 . S
N34 C37 1.390 . S
N35 C36 1.345 . S
N35 C38 1.336 . S
C36 N34 1.335 . S
C36 N35 1.345 . S
C36 H41 0.930 . S
C37 N34 1.390 . S
C37 C38 1.346 . S
C37 H42 0.930 . S
C38 N35 1.336 . S
C38 C37 1.346 . S
C38 H45 0.929 . S
C39 O29 1.282 . S
C39 O40 1.216 . S
O40 C39 1.216 . S
H41 C36 0.930 . S
H42 C37 0.930 . S
O43 Cu23 1.959 . S
O43 C30 1.251 . S
H44 C27 0.930 . S
H45 C38 0.929 . S
Cu46 N47 1.999 . S
Cu46 O52 1.974 . S
Cu46 N57 1.985 . S
Cu46 O66 1.959 . S
N47 Cu46 1.999 . S
N47 C49 1.263 . S
N47 C51 1.389 . S
N48 C49 1.358 . S
N48 C50 1.400 . S
C49 N47 1.263 . S
C49 N48 1.358 . S
C49 H55 0.930 . S
C50 N48 1.400 . S
C50 C51 1.351 . S
C50 H67 0.930 . S
C51 N47 1.389 . S
C51 C50 1.351 . S
C51 H56 0.930 . S
O52 Cu46 1.974 . S
O52 C62 1.282 . S
C53 O54 1.261 . S
C53 O66 1.251 . S
O54 C53 1.261 . S
H55 C49 0.930 . S
H56 C51 0.930 . S
N57 Cu46 1.985 . S
N57 C59 1.335 . S
N57 C60 1.390 . S
N58 C59 1.345 . S
N58 C61 1.336 . S
C59 N57 1.335 . S
C59 N58 1.345 . S
C59 H64 0.930 . S
C60 N57 1.390 . S
C60 C61 1.346 . S
C60 H65 0.930 . S
C61 N58 1.336 . S
C61 C60 1.346 . S
C61 H68 0.929 . S
C62 O52 1.282 . S
C62 O63 1.216 . S
O63 C62 1.216 . S
H64 C59 0.930 . S
H65 C60 0.930 . S
O66 Cu46 1.959 . S
O66 C53 1.251 . S
H67 C50 0.930 . S
H68 C61 0.929 . S
Cu69 N70 1.999 . S
Cu69 O75 1.974 . S
Cu69 N80 1.985 . S
Cu69 O89 1.959 . S
N70 Cu69 1.999 . S
N70 C72 1.263 . S
N70 C74 1.389 . S
N71 C72 1.358 . S
N71 C73 1.400 . S
C72 N70 1.263 . S
C72 N71 1.358 . S
C72 H78 0.930 . S
C73 N71 1.400 . S
C73 C74 1.351 . S
C73 H90 0.930 . S
C74 N70 1.389 . S
C74 C73 1.351 . S
C74 H79 0.930 . S
O75 Cu69 1.974 . S
O75 C85 1.282 . S
C76 O77 1.261 . S
C76 O89 1.251 . S
O77 C76 1.261 . S
H78 C72 0.930 . S
H79 C74 0.930 . S
N80 Cu69 1.985 . S
N80 C82 1.335 . S
N80 C83 1.390 . S
N81 C82 1.345 . S
N81 C84 1.336 . S
C82 N80 1.335 . S
C82 N81 1.345 . S
C82 H87 0.930 . S
C83 N80 1.390 . S
C83 C84 1.346 . S
C83 H88 0.930 . S
C84 N81 1.336 . S
C84 C83 1.346 . S
C84 H91 0.929 . S
C85 O75 1.282 . S
C85 O86 1.216 . S
O86 C85 1.216 . S
H87 C82 0.930 . S
H88 C83 0.930 . S
O89 Cu69 1.959 . S
O89 C76 1.251 . S
H90 C73 0.930 . S
H91 C84 0.929 . S
Cu92 N93 1.999 . S
Cu92 O98 1.974 . S
Cu92 N103 1.985 . S
Cu92 O112 1.959 . S
N93 Cu92 1.999 . S
N93 C95 1.263 . S
N93 C97 1.389 . S
N94 C95 1.358 . S
N94 C96 1.400 . S
C95 N93 1.263 . S
C95 N94 1.358 . S
C95 H101 0.930 . S
C96 N94 1.400 . S
C96 C97 1.351 . S
C96 H113 0.930 . S
C97 N93 1.389 . S
C97 C96 1.351 . S
C97 H102 0.930 . S
O98 Cu92 1.974 . S
O98 C108 1.282 . S
C99 O100 1.261 . S
C99 O112 1.251 . S
O100 C99 1.261 . S
H101 C95 0.930 . S
H102 C97 0.930 . S
N103 Cu92 1.985 . S
N103 C105 1.335 . S
N103 C106 1.390 . S
N104 C105 1.345 . S
N104 C107 1.336 . S
C105 N103 1.335 . S
C105 N104 1.345 . S
C105 H110 0.930 . S
C106 N103 1.390 . S
C106 C107 1.346 . S
C106 H111 0.930 . S
C107 N104 1.336 . S
C107 C106 1.346 . S
C107 H114 0.929 . S
C108 O98 1.282 . S
C108 O109 1.216 . S
O109 C108 1.216 . S
H110 C105 0.930 . S
H111 C106 0.930 . S
O112 Cu92 1.959 . S
O112 C99 1.251 . S
H113 C96 0.930 . S
H114 C107 0.929 . S
Cu115 N116 1.999 . S
Cu115 O121 1.974 . S
Cu115 N126 1.985 . S
Cu115 O135 1.959 . S
N116 Cu115 1.999 . S
N116 C118 1.263 . S
N116 C120 1.389 . S
N117 C118 1.358 . S
N117 C119 1.400 . S
C118 N116 1.263 . S
C118 N117 1.358 . S
C118 H124 0.930 . S
C119 N117 1.400 . S
C119 C120 1.351 . S
C119 H136 0.930 . S
C120 N116 1.389 . S
C120 C119 1.351 . S
C120 H125 0.930 . S
O121 Cu115 1.974 . S
O121 C131 1.282 . S
C122 O123 1.261 . S
C122 O135 1.251 . S
O123 C122 1.261 . S
H124 C118 0.930 . S
H125 C120 0.930 . S
N126 Cu115 1.985 . S
N126 C128 1.335 . S
N126 C129 1.390 . S
N127 C128 1.345 . S
N127 C130 1.336 . S
C128 N126 1.335 . S
C128 N127 1.345 . S
C128 H133 0.930 . S
C129 N126 1.390 . S
C129 C130 1.346 . S
C129 H134 0.930 . S
C130 N127 1.336 . S
C130 C129 1.346 . S
C130 H137 0.929 . S
C131 O121 1.282 . S
C131 O132 1.216 . S
O132 C131 1.216 . S
H133 C128 0.930 . S
H134 C129 0.930 . S
O135 Cu115 1.959 . S
O135 C122 1.251 . S
H136 C119 0.930 . S
H137 C130 0.929 . S
Cu138 N139 1.999 . S
Cu138 O144 1.974 . S
Cu138 N149 1.985 . S
Cu138 O158 1.959 . S
N139 Cu138 1.999 . S
N139 C141 1.263 . S
N139 C143 1.389 . S
N140 C141 1.358 . S
N140 C142 1.400 . S
C141 N139 1.263 . S
C141 N140 1.358 . S
C141 H147 0.930 . S
C142 N140 1.400 . S
C142 C143 1.351 . S
C142 H159 0.930 . S
C143 N139 1.389 . S
C143 C142 1.351 . S
C143 H148 0.930 . S
O144 Cu138 1.974 . S
O144 C154 1.282 . S
C145 O146 1.261 . S
C145 O158 1.251 . S
O146 C145 1.261 . S
H147 C141 0.930 . S
H148 C143 0.930 . S
N149 Cu138 1.985 . S
N149 C151 1.335 . S
N149 C152 1.390 . S
N150 C151 1.345 . S
N150 C153 1.336 . S
C151 N149 1.335 . S
C151 N150 1.345 . S
C151 H156 0.930 . S
C152 N149 1.390 . S
C152 C153 1.346 . S
C152 H157 0.930 . S
C153 N150 1.336 . S
C153 C152 1.346 . S
C153 H160 0.929 . S
C154 O144 1.282 . S
C154 O155 1.216 . S
O155 C154 1.216 . S
H156 C151 0.930 . S
H157 C152 0.930 . S
O158 Cu138 1.959 . S
O158 C145 1.251 . S
H159 C142 0.930 . S
H160 C153 0.929 . S
Cu161 N162 1.999 . S
Cu161 O167 1.974 . S
Cu161 N172 1.985 . S
Cu161 O181 1.959 . S
N162 Cu161 1.999 . S
N162 C164 1.263 . S
N162 C166 1.389 . S
N163 C164 1.358 . S
N163 C165 1.400 . S
C164 N162 1.263 . S
C164 N163 1.358 . S
C164 H170 0.930 . S
C165 N163 1.400 . S
C165 C166 1.351 . S
C165 H182 0.930 . S
C166 N162 1.389 . S
C166 C165 1.351 . S
C166 H171 0.930 . S
O167 Cu161 1.974 . S
O167 C177 1.282 . S
C168 O169 1.261 . S
C168 O181 1.251 . S
O169 C168 1.261 . S
H170 C164 0.930 . S
H171 C166 0.930 . S
N172 Cu161 1.985 . S
N172 C174 1.335 . S
N172 C175 1.390 . S
N173 C174 1.345 . S
N173 C176 1.336 . S
C174 N172 1.335 . S
C174 N173 1.345 . S
C174 H179 0.930 . S
C175 N172 1.390 . S
C175 C176 1.346 . S
C175 H180 0.930 . S
C176 N173 1.336 . S
C176 C175 1.346 . S
C176 H183 0.929 . S
C177 O167 1.282 . S
C177 O178 1.216 . S
O178 C177 1.216 . S
H179 C174 0.930 . S
H180 C175 0.930 . S
O181 Cu161 1.959 . S
O181 C168 1.251 . S
H182 C165 0.930 . S
H183 C176 0.929 . S
Cu184 N185 1.999 . S
Cu184 O190 1.974 . S
Cu184 N195 1.985 . S
Cu184 O204 1.959 . S
N185 Cu184 1.999 . S
N185 C187 1.263 . S
N185 C189 1.389 . S
N186 C187 1.358 . S
N186 C188 1.400 . S
C187 N185 1.263 . S
C187 N186 1.358 . S
C187 H193 0.930 . S
C188 N186 1.400 . S
C188 C189 1.351 . S
C188 H205 0.930 . S
C189 N185 1.389 . S
C189 C188 1.351 . S
C189 H194 0.930 . S
O190 Cu184 1.974 . S
O190 C200 1.282 . S
C191 O192 1.261 . S
C191 O204 1.251 . S
O192 C191 1.261 . S
H193 C187 0.930 . S
H194 C189 0.930 . S
N195 Cu184 1.985 . S
N195 C197 1.335 . S
N195 C198 1.390 . S
N196 C197 1.345 . S
N196 C199 1.336 . S
C197 N195 1.335 . S
C197 N196 1.345 . S
C197 H202 0.930 . S
C198 N195 1.390 . S
C198 C199 1.346 . S
C198 H203 0.930 . S
C199 N196 1.336 . S
C199 C198 1.346 . S
C199 H206 0.929 . S
C200 O190 1.282 . S
C200 O201 1.216 . S
O201 C200 1.216 . S
H202 C197 0.930 . S
H203 C198 0.930 . S
O204 Cu184 1.959 . S
O204 C191 1.251 . S
H205 C188 0.930 . S
H206 C199 0.929 . S
Cu207 N208 1.999 . S
Cu207 O213 1.974 . S
Cu207 N218 1.985 . S
Cu207 O227 1.959 . S
N208 Cu207 1.999 . S
N208 C210 1.263 . S
N208 C212 1.389 . S
N209 C210 1.358 . S
N209 C211 1.400 . S
C210 N208 1.263 . S
C210 N209 1.358 . S
C210 H216 0.930 . S
C211 N209 1.400 . S
C211 C212 1.351 . S
C211 H228 0.930 . S
C212 N208 1.389 . S
C212 C211 1.351 . S
C212 H217 0.930 . S
O213 Cu207 1.974 . S
O213 C223 1.282 . S
C214 O215 1.261 . S
C214 O227 1.251 . S
O215 C214 1.261 . S
H216 C210 0.930 . S
H217 C212 0.930 . S
N218 Cu207 1.985 . S
N218 C220 1.335 . S
N218 C221 1.390 . S
N219 C220 1.345 . S
N219 C222 1.336 . S
C220 N218 1.335 . S
C220 N219 1.345 . S
C220 H225 0.930 . S
C221 N218 1.390 . S
C221 C222 1.346 . S
C221 H226 0.930 . S
C222 N219 1.336 . S
C222 C221 1.346 . S
C222 H229 0.929 . S
C223 O213 1.282 . S
C223 O224 1.216 . S
O224 C223 1.216 . S
H225 C220 0.930 . S
H226 C221 0.930 . S
O227 Cu207 1.959 . S
O227 C214 1.251 . S
H228 C211 0.930 . S
H229 C222 0.929 . S
Cu230 N231 1.999 . S
Cu230 O236 1.974 . S
Cu230 N241 1.985 . S
Cu230 O250 1.959 . S
N231 Cu230 1.999 . S
N231 C233 1.263 . S
N231 C235 1.389 . S
N232 C233 1.358 . S
N232 C234 1.400 . S
C233 N231 1.263 . S
C233 N232 1.358 . S
C233 H239 0.930 . S
C234 N232 1.400 . S
C234 C235 1.351 . S
C234 H251 0.930 . S
C235 N231 1.389 . S
C235 C234 1.351 . S
C235 H240 0.930 . S
O236 Cu230 1.974 . S
O236 C246 1.282 . S
C237 O238 1.261 . S
C237 O250 1.251 . S
O238 C237 1.261 . S
H239 C233 0.930 . S
H240 C235 0.930 . S
N241 Cu230 1.985 . S
N241 C243 1.335 . S
N241 C244 1.390 . S
N242 C243 1.345 . S
N242 C245 1.336 . S
C243 N241 1.335 . S
C243 N242 1.345 . S
C243 H248 0.930 . S
C244 N241 1.390 . S
C244 C245 1.346 . S
C244 H249 0.930 . S
C245 N242 1.336 . S
C245 C244 1.346 . S
C245 H252 0.929 . S
C246 O236 1.282 . S
C246 O247 1.216 . S
O247 C246 1.216 . S
H248 C243 0.930 . S
H249 C244 0.930 . S
O250 Cu230 1.959 . S
O250 C237 1.251 . S
H251 C234 0.930 . S
H252 C245 0.929 . S
Cu253 N254 1.999 . S
Cu253 O259 1.974 . S
Cu253 N264 1.985 . S
Cu253 O273 1.959 . S
N254 Cu253 1.999 . S
N254 C256 1.263 . S
N254 C258 1.389 . S
N255 C256 1.358 . S
N255 C257 1.400 . S
C256 N254 1.263 . S
C256 N255 1.358 . S
C256 H262 0.930 . S
C257 N255 1.400 . S
C257 C258 1.351 . S
C257 H274 0.930 . S
C258 N254 1.389 . S
C258 C257 1.351 . S
C258 H263 0.930 . S
O259 Cu253 1.974 . S
O259 C269 1.282 . S
C260 O261 1.261 . S
C260 O273 1.251 . S
O261 C260 1.261 . S
H262 C256 0.930 . S
H263 C258 0.930 . S
N264 Cu253 1.985 . S
N264 C266 1.335 . S
N264 C267 1.390 . S
N265 C266 1.345 . S
N265 C268 1.336 . S
C266 N264 1.335 . S
C266 N265 1.345 . S
C266 H271 0.930 . S
C267 N264 1.390 . S
C267 C268 1.346 . S
C267 H272 0.930 . S
C268 N265 1.336 . S
C268 C267 1.346 . S
C268 H275 0.929 . S
C269 O259 1.282 . S
C269 O270 1.216 . S
O270 C269 1.216 . S
H271 C266 0.930 . S
H272 C267 0.930 . S
O273 Cu253 1.959 . S
O273 C260 1.251 . S
H274 C257 0.930 . S
H275 C268 0.929 . S
Cu276 N277 1.999 . S
Cu276 O282 1.974 . S
Cu276 N287 1.985 . S
Cu276 O296 1.959 . S
N277 Cu276 1.999 . S
N277 C279 1.263 . S
N277 C281 1.389 . S
N278 C279 1.358 . S
N278 C280 1.400 . S
C279 N277 1.263 . S
C279 N278 1.358 . S
C279 H285 0.930 . S
C280 N278 1.400 . S
C280 C281 1.351 . S
C280 H297 0.930 . S
C281 N277 1.389 . S
C281 C280 1.351 . S
C281 H286 0.930 . S
O282 Cu276 1.974 . S
O282 C292 1.282 . S
C283 O284 1.261 . S
C283 O296 1.251 . S
O284 C283 1.261 . S
H285 C279 0.930 . S
H286 C281 0.930 . S
N287 Cu276 1.985 . S
N287 C289 1.335 . S
N287 C290 1.390 . S
N288 C289 1.345 . S
N288 C291 1.336 . S
C289 N287 1.335 . S
C289 N288 1.345 . S
C289 H294 0.930 . S
C290 N287 1.390 . S
C290 C291 1.346 . S
C290 H295 0.930 . S
C291 N288 1.336 . S
C291 C290 1.346 . S
C291 H298 0.929 . S
C292 O282 1.282 . S
C292 O293 1.216 . S
O293 C292 1.216 . S
H294 C289 0.930 . S
H295 C290 0.930 . S
O296 Cu276 1.959 . S
O296 C283 1.251 . S
H297 C280 0.930 . S
H298 C291 0.929 . S
Cu299 N300 1.999 . S
Cu299 O305 1.974 . S
Cu299 N310 1.985 . S
Cu299 O319 1.959 . S
N300 Cu299 1.999 . S
N300 C302 1.263 . S
N300 C304 1.389 . S
N301 C302 1.358 . S
N301 C303 1.400 . S
C302 N300 1.263 . S
C302 N301 1.358 . S
C302 H308 0.930 . S
C303 N301 1.400 . S
C303 C304 1.351 . S
C303 H320 0.930 . S
C304 N300 1.389 . S
C304 C303 1.351 . S
C304 H309 0.930 . S
O305 Cu299 1.974 . S
O305 C315 1.282 . S
C306 O307 1.261 . S
C306 O319 1.251 . S
O307 C306 1.261 . S
H308 C302 0.930 . S
H309 C304 0.930 . S
N310 Cu299 1.985 . S
N310 C312 1.335 . S
N310 C313 1.390 . S
N311 C312 1.345 . S
N311 C314 1.336 . S
C312 N310 1.335 . S
C312 N311 1.345 . S
C312 H317 0.930 . S
C313 N310 1.390 . S
C313 C314 1.346 . S
C313 H318 0.930 . S
C314 N311 1.336 . S
C314 C313 1.346 . S
C314 H321 0.929 . S
C315 O305 1.282 . S
C315 O316 1.216 . S
O316 C315 1.216 . S
H317 C312 0.930 . S
H318 C313 0.930 . S
O319 Cu299 1.959 . S
O319 C306 1.251 . S
H320 C303 0.930 . S
H321 C314 0.929 . S
Cu322 N323 1.999 . S
Cu322 O328 1.974 . S
Cu322 N333 1.985 . S
Cu322 O342 1.959 . S
N323 Cu322 1.999 . S
N323 C325 1.263 . S
N323 C327 1.389 . S
N324 C325 1.358 . S
N324 C326 1.400 . S
C325 N323 1.263 . S
C325 N324 1.358 . S
C325 H331 0.930 . S
C326 N324 1.400 . S
C326 C327 1.351 . S
C326 H343 0.930 . S
C327 N323 1.389 . S
C327 C326 1.351 . S
C327 H332 0.930 . S
O328 Cu322 1.974 . S
O328 C338 1.282 . S
C329 O330 1.261 . S
C329 O342 1.251 . S
O330 C329 1.261 . S
H331 C325 0.930 . S
H332 C327 0.930 . S
N333 Cu322 1.985 . S
N333 C335 1.335 . S
N333 C336 1.390 . S
N334 C335 1.345 . S
N334 C337 1.336 . S
C335 N333 1.335 . S
C335 N334 1.345 . S
C335 H340 0.930 . S
C336 N333 1.390 . S
C336 C337 1.346 . S
C336 H341 0.930 . S
C337 N334 1.336 . S
C337 C336 1.346 . S
C337 H344 0.929 . S
C338 O328 1.282 . S
C338 O339 1.216 . S
O339 C338 1.216 . S
H340 C335 0.930 . S
H341 C336 0.930 . S
O342 Cu322 1.959 . S
O342 C329 1.251 . S
H343 C326 0.930 . S
H344 C337 0.929 . S
Cu345 N346 1.999 . S
Cu345 O351 1.974 . S
Cu345 N356 1.985 . S
Cu345 O365 1.959 . S
N346 Cu345 1.999 . S
N346 C348 1.263 . S
N346 C350 1.389 . S
N347 C348 1.358 . S
N347 C349 1.400 . S
C348 N346 1.263 . S
C348 N347 1.358 . S
C348 H354 0.930 . S
C349 N347 1.400 . S
C349 C350 1.351 . S
C349 H366 0.930 . S
C350 N346 1.389 . S
C350 C349 1.351 . S
C350 H355 0.930 . S
O351 Cu345 1.974 . S
O351 C361 1.282 . S
C352 O353 1.261 . S
C352 O365 1.251 . S
O353 C352 1.261 . S
H354 C348 0.930 . S
H355 C350 0.930 . S
N356 Cu345 1.985 . S
N356 C358 1.335 . S
N356 C359 1.390 . S
N357 C358 1.345 . S
N357 C360 1.336 . S
C358 N356 1.335 . S
C358 N357 1.345 . S
C358 H363 0.930 . S
C359 N356 1.390 . S
C359 C360 1.346 . S
C359 H364 0.930 . S
C360 N357 1.336 . S
C360 C359 1.346 . S
C360 H367 0.929 . S
C361 O351 1.282 . S
C361 O362 1.216 . S
O362 C361 1.216 . S
H363 C358 0.930 . S
H364 C359 0.930 . S
O365 Cu345 1.959 . S
O365 C352 1.251 . S
H366 C349 0.930 . S
H367 C360 0.929 . S
Cu368 N369 1.999 . S
Cu368 O374 1.974 . S
Cu368 N379 1.985 . S
Cu368 O388 1.959 . S
N369 Cu368 1.999 . S
N369 C371 1.263 . S
N369 C373 1.389 . S
N370 C371 1.358 . S
N370 C372 1.400 . S
C371 N369 1.263 . S
C371 N370 1.358 . S
C371 H377 0.930 . S
C372 N370 1.400 . S
C372 C373 1.351 . S
C372 H389 0.930 . S
C373 N369 1.389 . S
C373 C372 1.351 . S
C373 H378 0.930 . S
O374 Cu368 1.974 . S
O374 C384 1.282 . S
C375 O376 1.261 . S
C375 O388 1.251 . S
O376 C375 1.261 . S
H377 C371 0.930 . S
H378 C373 0.930 . S
N379 Cu368 1.985 . S
N379 C381 1.335 . S
N379 C382 1.390 . S
N380 C381 1.345 . S
N380 C383 1.336 . S
C381 N379 1.335 . S
C381 N380 1.345 . S
C381 H386 0.930 . S
C382 N379 1.390 . S
C382 C383 1.346 . S
C382 H387 0.930 . S
C383 N380 1.336 . S
C383 C382 1.346 . S
C383 H390 0.929 . S
C384 O374 1.282 . S
C384 O385 1.216 . S
O385 C384 1.216 . S
H386 C381 0.930 . S
H387 C382 0.930 . S
O388 Cu368 1.959 . S
O388 C375 1.251 . S
H389 C372 0.930 . S
H390 C383 0.929 . S
Cu391 N392 1.999 . S
Cu391 O397 1.974 . S
Cu391 N402 1.985 . S
Cu391 O411 1.959 . S
N392 Cu391 1.999 . S
N392 C394 1.263 . S
N392 C396 1.389 . S
N393 C394 1.358 . S
N393 C395 1.400 . S
C394 N392 1.263 . S
C394 N393 1.358 . S
C394 H400 0.930 . S
C395 N393 1.400 . S
C395 C396 1.351 . S
C395 H412 0.930 . S
C396 N392 1.389 . S
C396 C395 1.351 . S
C396 H401 0.930 . S
O397 Cu391 1.974 . S
O397 C407 1.282 . S
C398 O399 1.261 . S
C398 O411 1.251 . S
O399 C398 1.261 . S
H400 C394 0.930 . S
H401 C396 0.930 . S
N402 Cu391 1.985 . S
N402 C404 1.335 . S
N402 C405 1.390 . S
N403 C404 1.345 . S
N403 C406 1.336 . S
C404 N402 1.335 . S
C404 N403 1.345 . S
C404 H409 0.930 . S
C405 N402 1.390 . S
C405 C406 1.346 . S
C405 H410 0.930 . S
C406 N403 1.336 . S
C406 C405 1.346 . S
C406 H413 0.929 . S
C407 O397 1.282 . S
C407 O408 1.216 . S
O408 C407 1.216 . S
H409 C404 0.930 . S
H410 C405 0.930 . S
O411 Cu391 1.959 . S
O411 C398 1.251 . S
H412 C395 0.930 . S
H413 C406 0.929 . S
Cu414 N415 1.999 . S
Cu414 O420 1.974 . S
Cu414 N425 1.985 . S
Cu414 O434 1.959 . S
N415 Cu414 1.999 . S
N415 C417 1.263 . S
N415 C419 1.389 . S
N416 C417 1.358 . S
N416 C418 1.400 . S
C417 N415 1.263 . S
C417 N416 1.358 . S
C417 H423 0.930 . S
C418 N416 1.400 . S
C418 C419 1.351 . S
C418 H435 0.930 . S
C419 N415 1.389 . S
C419 C418 1.351 . S
C419 H424 0.930 . S
O420 Cu414 1.974 . S
O420 C430 1.282 . S
C421 O422 1.261 . S
C421 O434 1.251 . S
O422 C421 1.261 . S
H423 C417 0.930 . S
H424 C419 0.930 . S
N425 Cu414 1.985 . S
N425 C427 1.335 . S
N425 C428 1.390 . S
N426 C427 1.345 . S
N426 C429 1.336 . S
C427 N425 1.335 . S
C427 N426 1.345 . S
C427 H432 0.930 . S
C428 N425 1.390 . S
C428 C429 1.346 . S
C428 H433 0.930 . S
C429 N426 1.336 . S
C429 C428 1.346 . S
C429 H436 0.929 . S
C430 O420 1.282 . S
C430 O431 1.216 . S
O431 C430 1.216 . S
H432 C427 0.930 . S
H433 C428 0.930 . S
O434 Cu414 1.959 . S
O434 C421 1.251 . S
H435 C418 0.930 . S
H436 C429 0.929 . S
Cu437 N438 1.999 . S
Cu437 O443 1.974 . S
Cu437 N448 1.985 . S
Cu437 O457 1.959 . S
N438 Cu437 1.999 . S
N438 C440 1.263 . S
N438 C442 1.389 . S
N439 C440 1.358 . S
N439 C441 1.400 . S
C440 N438 1.263 . S
C440 N439 1.358 . S
C440 H446 0.930 . S
C441 N439 1.400 . S
C441 C442 1.351 . S
C441 H458 0.930 . S
C442 N438 1.389 . S
C442 C441 1.351 . S
C442 H447 0.930 . S
O443 Cu437 1.974 . S
O443 C453 1.282 . S
C444 O445 1.261 . S
C444 O457 1.251 . S
O445 C444 1.261 . S
H446 C440 0.930 . S
H447 C442 0.930 . S
N448 Cu437 1.985 . S
N448 C450 1.335 . S
N448 C451 1.390 . S
N449 C450 1.345 . S
N449 C452 1.336 . S
C450 N448 1.335 . S
C450 N449 1.345 . S
C450 H455 0.930 . S
C451 N448 1.390 . S
C451 C452 1.346 . S
C451 H456 0.930 . S
C452 N449 1.336 . S
C452 C451 1.346 . S
C452 H459 0.929 . S
C453 O443 1.282 . S
C453 O454 1.216 . S
O454 C453 1.216 . S
H455 C450 0.930 . S
H456 C451 0.930 . S
O457 Cu437 1.959 . S
O457 C444 1.251 . S
H458 C441 0.930 . S
H459 C452 0.929 . S
Cu460 N461 1.999 . S
Cu460 O466 1.974 . S
Cu460 N471 1.985 . S
Cu460 O480 1.959 . S
N461 Cu460 1.999 . S
N461 C463 1.263 . S
N461 C465 1.389 . S
N462 C463 1.358 . S
N462 C464 1.400 . S
C463 N461 1.263 . S
C463 N462 1.358 . S
C463 H469 0.930 . S
C464 N462 1.400 . S
C464 C465 1.351 . S
C464 H481 0.930 . S
C465 N461 1.389 . S
C465 C464 1.351 . S
C465 H470 0.930 . S
O466 Cu460 1.974 . S
O466 C476 1.282 . S
C467 O468 1.261 . S
C467 O480 1.251 . S
O468 C467 1.261 . S
H469 C463 0.930 . S
H470 C465 0.930 . S
N471 Cu460 1.985 . S
N471 C473 1.335 . S
N471 C474 1.390 . S
N472 C473 1.345 . S
N472 C475 1.336 . S
C473 N471 1.335 . S
C473 N472 1.345 . S
C473 H478 0.930 . S
C474 N471 1.390 . S
C474 C475 1.346 . S
C474 H479 0.930 . S
C475 N472 1.336 . S
C475 C474 1.346 . S
C475 H482 0.929 . S
C476 O466 1.282 . S
C476 O477 1.216 . S
O477 C476 1.216 . S
H478 C473 0.930 . S
H479 C474 0.930 . S
O480 Cu460 1.959 . S
O480 C467 1.251 . S
H481 C464 0.930 . S
H482 C475 0.929 . S
Cu483 N484 1.999 . S
Cu483 O489 1.974 . S
Cu483 N494 1.985 . S
Cu483 O503 1.959 . S
N484 Cu483 1.999 . S
N484 C486 1.263 . S
N484 C488 1.389 . S
N485 C486 1.358 . S
N485 C487 1.400 . S
C486 N484 1.263 . S
C486 N485 1.358 . S
C486 H492 0.930 . S
C487 N485 1.400 . S
C487 C488 1.351 . S
C487 H504 0.930 . S
C488 N484 1.389 . S
C488 C487 1.351 . S
C488 H493 0.930 . S
O489 Cu483 1.974 . S
O489 C499 1.282 . S
C490 O491 1.261 . S
C490 O503 1.251 . S
O491 C490 1.261 . S
H492 C486 0.930 . S
H493 C488 0.930 . S
N494 Cu483 1.985 . S
N494 C496 1.335 . S
N494 C497 1.390 . S
N495 C496 1.345 . S
N495 C498 1.336 . S
C496 N494 1.335 . S
C496 N495 1.345 . S
C496 H501 0.930 . S
C497 N494 1.390 . S
C497 C498 1.346 . S
C497 H502 0.930 . S
C498 N495 1.336 . S
C498 C497 1.346 . S
C498 H505 0.929 . S
C499 O489 1.282 . S
C499 O500 1.216 . S
O500 C499 1.216 . S
H501 C496 0.930 . S
H502 C497 0.930 . S
O503 Cu483 1.959 . S
O503 C490 1.251 . S
H504 C487 0.930 . S
H505 C498 0.929 . S
Cu506 N507 1.999 . S
Cu506 O512 1.974 . S
Cu506 N517 1.985 . S
Cu506 O526 1.959 . S
N507 Cu506 1.999 . S
N507 C509 1.263 . S
N507 C511 1.389 . S
N508 C509 1.358 . S
N508 C510 1.400 . S
C509 N507 1.263 . S
C509 N508 1.358 . S
C509 H515 0.930 . S
C510 N508 1.400 . S
C510 C511 1.351 . S
C510 H527 0.930 . S
C511 N507 1.389 . S
C511 C510 1.351 . S
C511 H516 0.930 . S
O512 Cu506 1.974 . S
O512 C522 1.282 . S
C513 O514 1.261 . S
C513 O526 1.251 . S
O514 C513 1.261 . S
H515 C509 0.930 . S
H516 C511 0.930 . S
N517 Cu506 1.985 . S
N517 C519 1.335 . S
N517 C520 1.390 . S
N518 C519 1.345 . S
N518 C521 1.336 . S
C519 N517 1.335 . S
C519 N518 1.345 . S
C519 H524 0.930 . S
C520 N517 1.390 . S
C520 C521 1.346 . S
C520 H525 0.930 . S
C521 N518 1.336 . S
C521 C520 1.346 . S
C521 H528 0.929 . S
C522 O512 1.282 . S
C522 O523 1.216 . S
O523 C522 1.216 . S
H524 C519 0.930 . S
H525 C520 0.930 . S
O526 Cu506 1.959 . S
O526 C513 1.251 . S
H527 C510 0.930 . S
H528 C521 0.929 . S
Cu529 N530 1.999 . S
Cu529 O535 1.974 . S
Cu529 N540 1.985 . S
Cu529 O549 1.959 . S
N530 Cu529 1.999 . S
N530 C532 1.263 . S
N530 C534 1.389 . S
N531 C532 1.358 . S
N531 C533 1.400 . S
C532 N530 1.263 . S
C532 N531 1.358 . S
C532 H538 0.930 . S
C533 N531 1.400 . S
C533 C534 1.351 . S
C533 H550 0.930 . S
C534 N530 1.389 . S
C534 C533 1.351 . S
C534 H539 0.930 . S
O535 Cu529 1.974 . S
O535 C545 1.282 . S
C536 O537 1.261 . S
C536 O549 1.251 . S
O537 C536 1.261 . S
H538 C532 0.930 . S
H539 C534 0.930 . S
N540 Cu529 1.985 . S
N540 C542 1.335 . S
N540 C543 1.390 . S
N541 C542 1.345 . S
N541 C544 1.336 . S
C542 N540 1.335 . S
C542 N541 1.345 . S
C542 H547 0.930 . S
C543 N540 1.390 . S
C543 C544 1.346 . S
C543 H548 0.930 . S
C544 N541 1.336 . S
C544 C543 1.346 . S
C544 H551 0.929 . S
C545 O535 1.282 . S
C545 O546 1.216 . S
O546 C545 1.216 . S
H547 C542 0.930 . S
H548 C543 0.930 . S
O549 Cu529 1.959 . S
O549 C536 1.251 . S
H550 C533 0.930 . S
H551 C544 0.929 . S
H552 C558 0.930 . S
H553 C561 0.930 . S
H554 C562 0.930 . S
H555 C563 0.930 . S
H556 C566 0.930 . S
H557 C567 0.930 . S
C558 H552 0.930 . S
C558 C559 1.355 . S
C558 C560 1.415 . S
C559 C558 1.355 . S
C559 C561 1.419 . S
C560 C558 1.415 . S
C560 C565 1.425 . S
C560 C567 1.409 . S
C561 H553 0.930 . S
C561 C559 1.419 . S
C561 C562 1.362 . S
C562 H554 0.930 . S
C562 C561 1.362 . S
C562 C565 1.409 . S
C563 H555 0.930 . S
C563 C564 1.355 . S
C563 C565 1.415 . S
C564 C563 1.355 . S
C564 C566 1.419 . S
C565 C560 1.425 . S
C565 C562 1.409 . S
C565 C563 1.415 . S
C566 H556 0.930 . S
C566 C564 1.419 . S
C566 C567 1.362 . S
C567 H557 0.930 . S
C567 C560 1.409 . S
C567 C566 1.362 . S
H568 C574 0.930 . S
H569 C577 0.930 . S
H570 C578 0.930 . S
H571 C579 0.930 . S
H572 C582 0.930 . S
H573 C583 0.930 . S
C574 H568 0.930 . S
C574 C575 1.355 . S
C574 C576 1.415 . S
C575 C574 1.355 . S
C575 C577 1.419 . S
C576 C574 1.415 . S
C576 C581 1.425 . S
C576 C583 1.409 . S
C577 H569 0.930 . S
C577 C575 1.419 . S
C577 C578 1.362 . S
C578 H570 0.930 . S
C578 C577 1.362 . S
C578 C581 1.409 . S
C579 H571 0.930 . S
C579 C580 1.355 . S
C579 C581 1.415 . S
C580 C579 1.355 . S
C580 C582 1.419 . S
C581 C576 1.425 . S
C581 C578 1.409 . S
C581 C579 1.415 . S
C582 H572 0.930 . S
C582 C580 1.419 . S
C582 C583 1.362 . S
C583 H573 0.930 . S
C583 C576 1.409 . S
C583 C582 1.362 . S
H584 C590 0.930 . S
H585 C593 0.930 . S
H586 C594 0.930 . S
H587 C595 0.930 . S
H588 C598 0.930 . S
H589 C599 0.930 . S
C590 H584 0.930 . S
C590 C591 1.355 . S
C590 C592 1.415 . S
C591 C590 1.355 . S
C591 C593 1.419 . S
C592 C590 1.415 . S
C592 C597 1.425 . S
C592 C599 1.409 . S
C593 H585 0.930 . S
C593 C591 1.419 . S
C593 C594 1.362 . S
C594 H586 0.930 . S
C594 C593 1.362 . S
C594 C597 1.409 . S
C595 H587 0.930 . S
C595 C596 1.355 . S
C595 C597 1.415 . S
C596 C595 1.355 . S
C596 C598 1.419 . S
C597 C592 1.425 . S
C597 C594 1.409 . S
C597 C595 1.415 . S
C598 H588 0.930 . S
C598 C596 1.419 . S
C598 C599 1.362 . S
C599 H589 0.930 . S
C599 C592 1.409 . S
C599 C598 1.362 . S
H600 C606 0.930 . S
H601 C609 0.930 . S
H602 C610 0.930 . S
H603 C611 0.930 . S
H604 C614 0.930 . S
H605 C615 0.930 . S
C606 H600 0.930 . S
C606 C607 1.355 . S
C606 C608 1.415 . S
C607 C606 1.355 . S
C607 C609 1.419 . S
C608 C606 1.415 . S
C608 C613 1.425 . S
C608 C615 1.409 . S
C609 H601 0.930 . S
C609 C607 1.419 . S
C609 C610 1.362 . S
C610 H602 0.930 . S
C610 C609 1.362 . S
C610 C613 1.409 . S
C611 H603 0.930 . S
C611 C612 1.355 . S
C611 C613 1.415 . S
C612 C611 1.355 . S
C612 C614 1.419 . S
C613 C608 1.425 . S
C613 C610 1.409 . S
C613 C611 1.415 . S
C614 H604 0.930 . S
C614 C612 1.419 . S
C614 C615 1.362 . S
C615 H605 0.930 . S
C615 C608 1.409 . S
C615 C614 1.362 . S
H616 C622 0.930 . S
H617 C625 0.930 . S
H618 C626 0.930 . S
H619 C627 0.930 . S
H620 C630 0.930 . S
H621 C631 0.930 . S
C622 H616 0.930 . S
C622 C623 1.355 . S
C622 C624 1.415 . S
C623 C622 1.355 . S
C623 C625 1.419 . S
C624 C622 1.415 . S
C624 C629 1.425 . S
C624 C631 1.409 . S
C625 H617 0.930 . S
C625 C623 1.419 . S
C625 C626 1.362 . S
C626 H618 0.930 . S
C626 C625 1.362 . S
C626 C629 1.409 . S
C627 H619 0.930 . S
C627 C628 1.355 . S
C627 C629 1.415 . S
C628 C627 1.355 . S
C628 C630 1.419 . S
C629 C624 1.425 . S
C629 C626 1.409 . S
C629 C627 1.415 . S
C630 H620 0.930 . S
C630 C628 1.419 . S
C630 C631 1.362 . S
C631 H621 0.930 . S
C631 C624 1.409 . S
C631 C630 1.362 . S
H632 C638 0.930 . S
H633 C641 0.930 . S
H634 C642 0.930 . S
H635 C643 0.930 . S
H636 C646 0.930 . S
H637 C647 0.930 . S
C638 H632 0.930 . S
C638 C639 1.355 . S
C638 C640 1.415 . S
C639 C638 1.355 . S
C639 C641 1.419 . S
C640 C638 1.415 . S
C640 C645 1.425 . S
C640 C647 1.409 . S
C641 H633 0.930 . S
C641 C639 1.419 . S
C641 C642 1.362 . S
C642 H634 0.930 . S
C642 C641 1.362 . S
C642 C645 1.409 . S
C643 H635 0.930 . S
C643 C644 1.355 . S
C643 C645 1.415 . S
C644 C643 1.355 . S
C644 C646 1.419 . S
C645 C640 1.425 . S
C645 C642 1.409 . S
C645 C643 1.415 . S
C646 H636 0.930 . S
C646 C644 1.419 . S
C646 C647 1.362 . S
C647 H637 0.930 . S
C647 C640 1.409 . S
C647 C646 1.362 . S
H648 C654 0.930 . S
H649 C657 0.930 . S
H650 C658 0.930 . S
H651 C659 0.930 . S
H652 C662 0.930 . S
H653 C663 0.930 . S
C654 H648 0.930 . S
C654 C655 1.355 . S
C654 C656 1.415 . S
C655 C654 1.355 . S
C655 C657 1.419 . S
C656 C654 1.415 . S
C656 C661 1.425 . S
C656 C663 1.409 . S
C657 H649 0.930 . S
C657 C655 1.419 . S
C657 C658 1.362 . S
C658 H650 0.930 . S
C658 C657 1.362 . S
C658 C661 1.409 . S
C659 H651 0.930 . S
C659 C660 1.355 . S
C659 C661 1.415 . S
C660 C659 1.355 . S
C660 C662 1.419 . S
C661 C656 1.425 . S
C661 C658 1.409 . S
C661 C659 1.415 . S
C662 H652 0.930 . S
C662 C660 1.419 . S
C662 C663 1.362 . S
C663 H653 0.930 . S
C663 C656 1.409 . S
C663 C662 1.362 . S
H664 C670 0.930 . S
H665 C673 0.930 . S
H666 C674 0.930 . S
H667 C675 0.930 . S
H668 C678 0.930 . S
H669 C679 0.930 . S
C670 H664 0.930 . S
C670 C671 1.355 . S
C670 C672 1.415 . S
C671 C670 1.355 . S
C671 C673 1.419 . S
C672 C670 1.415 . S
C672 C677 1.425 . S
C672 C679 1.409 . S
C673 H665 0.930 . S
C673 C671 1.419 . S
C673 C674 1.362 . S
C674 H666 0.930 . S
C674 C673 1.362 . S
C674 C677 1.409 . S
C675 H667 0.930 . S
C675 C676 1.355 . S
C675 C677 1.415 . S
C676 C675 1.355 . S
C676 C678 1.419 . S
C677 C672 1.425 . S
C677 C674 1.409 . S
C677 C675 1.415 . S
C678 H668 0.930 . S
C678 C676 1.419 . S
C678 C679 1.362 . S
C679 H669 0.930 . S
C679 C672 1.409 . S
C679 C678 1.362 . S
H680 C686 0.930 . S
H681 C689 0.930 . S
H682 C690 0.930 . S
H683 C691 0.930 . S
H684 C694 0.930 . S
H685 C695 0.930 . S
C686 H680 0.930 . S
C686 C687 1.355 . S
C686 C688 1.415 . S
C687 C686 1.355 . S
C687 C689 1.419 . S
C688 C686 1.415 . S
C688 C693 1.425 . S
C688 C695 1.409 . S
C689 H681 0.930 . S
C689 C687 1.419 . S
C689 C690 1.362 . S
C690 H682 0.930 . S
C690 C689 1.362 . S
C690 C693 1.409 . S
C691 H683 0.930 . S
C691 C692 1.355 . S
C691 C693 1.415 . S
C692 C691 1.355 . S
C692 C694 1.419 . S
C693 C688 1.425 . S
C693 C690 1.409 . S
C693 C691 1.415 . S
C694 H684 0.930 . S
C694 C692 1.419 . S
C694 C695 1.362 . S
C695 H685 0.930 . S
C695 C688 1.409 . S
C695 C694 1.362 . S
H696 C702 0.930 . S
H697 C705 0.930 . S
H698 C706 0.930 . S
H699 C707 0.930 . S
H700 C710 0.930 . S
H701 C711 0.930 . S
C702 H696 0.930 . S
C702 C703 1.355 . S
C702 C704 1.415 . S
C703 C702 1.355 . S
C703 C705 1.419 . S
C704 C702 1.415 . S
C704 C709 1.425 . S
C704 C711 1.409 . S
C705 H697 0.930 . S
C705 C703 1.419 . S
C705 C706 1.362 . S
C706 H698 0.930 . S
C706 C705 1.362 . S
C706 C709 1.409 . S
C707 H699 0.930 . S
C707 C708 1.355 . S
C707 C709 1.415 . S
C708 C707 1.355 . S
C708 C710 1.419 . S
C709 C704 1.425 . S
C709 C706 1.409 . S
C709 C707 1.415 . S
C710 H700 0.930 . S
C710 C708 1.419 . S
C710 C711 1.362 . S
C711 H701 0.930 . S
C711 C704 1.409 . S
C711 C710 1.362 . S
H712 C718 0.930 . S
H713 C721 0.930 . S
H714 C722 0.930 . S
H715 C723 0.930 . S
H716 C726 0.930 . S
H717 C727 0.930 . S
C718 H712 0.930 . S
C718 C719 1.355 . S
C718 C720 1.415 . S
C719 C718 1.355 . S
C719 C721 1.419 . S
C720 C718 1.415 . S
C720 C725 1.425 . S
C720 C727 1.409 . S
C721 H713 0.930 . S
C721 C719 1.419 . S
C721 C722 1.362 . S
C722 H714 0.930 . S
C722 C721 1.362 . S
C722 C725 1.409 . S
C723 H715 0.930 . S
C723 C724 1.355 . S
C723 C725 1.415 . S
C724 C723 1.355 . S
C724 C726 1.419 . S
C725 C720 1.425 . S
C725 C722 1.409 . S
C725 C723 1.415 . S
C726 H716 0.930 . S
C726 C724 1.419 . S
C726 C727 1.362 . S
C727 H717 0.930 . S
C727 C720 1.409 . S
C727 C726 1.362 . S
H728 C734 0.930 . S
H729 C737 0.930 . S
H730 C738 0.930 . S
H731 C739 0.930 . S
H732 C742 0.930 . S
H733 C743 0.930 . S
C734 H728 0.930 . S
C734 C735 1.355 . S
C734 C736 1.415 . S
C735 C734 1.355 . S
C735 C737 1.419 . S
C736 C734 1.415 . S
C736 C741 1.425 . S
C736 C743 1.409 . S
C737 H729 0.930 . S
C737 C735 1.419 . S
C737 C738 1.362 . S
C738 H730 0.930 . S
C738 C737 1.362 . S
C738 C741 1.409 . S
C739 H731 0.930 . S
C739 C740 1.355 . S
C739 C741 1.415 . S
C740 C739 1.355 . S
C740 C742 1.419 . S
C741 C736 1.425 . S
C741 C738 1.409 . S
C741 C739 1.415 . S
C742 H732 0.930 . S
C742 C740 1.419 . S
C742 C743 1.362 . S
C743 H733 0.930 . S
C743 C736 1.409 . S
C743 C742 1.362 . S
H744 C750 0.930 . S
H745 C753 0.930 . S
H746 C754 0.930 . S
H747 C755 0.930 . S
H748 C758 0.930 . S
H749 C759 0.930 . S
C750 H744 0.930 . S
C750 C751 1.355 . S
C750 C752 1.415 . S
C751 C750 1.355 . S
C751 C753 1.419 . S
C752 C750 1.415 . S
C752 C757 1.425 . S
C752 C759 1.409 . S
C753 H745 0.930 . S
C753 C751 1.419 . S
C753 C754 1.362 . S
C754 H746 0.930 . S
C754 C753 1.362 . S
C754 C757 1.409 . S
C755 H747 0.930 . S
C755 C756 1.355 . S
C755 C757 1.415 . S
C756 C755 1.355 . S
C756 C758 1.419 . S
C757 C752 1.425 . S
C757 C754 1.409 . S
C757 C755 1.415 . S
C758 H748 0.930 . S
C758 C756 1.419 . S
C758 C759 1.362 . S
C759 H749 0.930 . S
C759 C752 1.409 . S
C759 C758 1.362 . S
H760 C766 0.930 . S
H761 C769 0.930 . S
H762 C770 0.930 . S
H763 C771 0.930 . S
H764 C774 0.930 . S
H765 C775 0.930 . S
C766 H760 0.930 . S
C766 C767 1.355 . S
C766 C768 1.415 . S
C767 C766 1.355 . S
C767 C769 1.419 . S
C768 C766 1.415 . S
C768 C773 1.425 . S
C768 C775 1.409 . S
C769 H761 0.930 . S
C769 C767 1.419 . S
C769 C770 1.362 . S
C770 H762 0.930 . S
C770 C769 1.362 . S
C770 C773 1.409 . S
C771 H763 0.930 . S
C771 C772 1.355 . S
C771 C773 1.415 . S
C772 C771 1.355 . S
C772 C774 1.419 . S
C773 C768 1.425 . S
C773 C770 1.409 . S
C773 C771 1.415 . S
C774 H764 0.930 . S
C774 C772 1.419 . S
C774 C775 1.362 . S
C775 H765 0.930 . S
C775 C768 1.409 . S
C775 C774 1.362 . S
H776 C782 0.930 . S
H777 C785 0.930 . S
H778 C786 0.930 . S
H779 C787 0.930 . S
H780 C790 0.930 . S
H781 C791 0.930 . S
C782 H776 0.930 . S
C782 C783 1.355 . S
C782 C784 1.415 . S
C783 C782 1.355 . S
C783 C785 1.419 . S
C784 C782 1.415 . S
C784 C789 1.425 . S
C784 C791 1.409 . S
C785 H777 0.930 . S
C785 C783 1.419 . S
C785 C786 1.362 . S
C786 H778 0.930 . S
C786 C785 1.362 . S
C786 C789 1.409 . S
C787 H779 0.930 . S
C787 C788 1.355 . S
C787 C789 1.415 . S
C788 C787 1.355 . S
C788 C790 1.419 . S
C789 C784 1.425 . S
C789 C786 1.409 . S
C789 C787 1.415 . S
C790 H780 0.930 . S
C790 C788 1.419 . S
C790 C791 1.362 . S
C791 H781 0.930 . S
C791 C784 1.409 . S
C791 C790 1.362 . S
H792 C798 0.930 . S
H793 C801 0.930 . S
H794 C802 0.930 . S
H795 C803 0.930 . S
H796 C806 0.930 . S
H797 C807 0.930 . S
C798 H792 0.930 . S
C798 C799 1.355 . S
C798 C800 1.415 . S
C799 C798 1.355 . S
C799 C801 1.419 . S
C800 C798 1.415 . S
C800 C805 1.425 . S
C800 C807 1.409 . S
C801 H793 0.930 . S
C801 C799 1.419 . S
C801 C802 1.362 . S
C802 H794 0.930 . S
C802 C801 1.362 . S
C802 C805 1.409 . S
C803 H795 0.930 . S
C803 C804 1.355 . S
C803 C805 1.415 . S
C804 C803 1.355 . S
C804 C806 1.419 . S
C805 C800 1.425 . S
C805 C802 1.409 . S
C805 C803 1.415 . S
C806 H796 0.930 . S
C806 C804 1.419 . S
C806 C807 1.362 . S
C807 H797 0.930 . S
C807 C800 1.409 . S
C807 C806 1.362 . S
H808 C814 0.930 . S
H809 C817 0.930 . S
H810 C818 0.930 . S
H811 C819 0.930 . S
H812 C822 0.930 . S
H813 C823 0.930 . S
C814 H808 0.930 . S
C814 C815 1.355 . S
C814 C816 1.415 . S
C815 C814 1.355 . S
C815 C817 1.419 . S
C816 C814 1.415 . S
C816 C821 1.425 . S
C816 C823 1.409 . S
C817 H809 0.930 . S
C817 C815 1.419 . S
C817 C818 1.362 . S
C818 H810 0.930 . S
C818 C817 1.362 . S
C818 C821 1.409 . S
C819 H811 0.930 . S
C819 C820 1.355 . S
C819 C821 1.415 . S
C820 C819 1.355 . S
C820 C822 1.419 . S
C821 C816 1.425 . S
C821 C818 1.409 . S
C821 C819 1.415 . S
C822 H812 0.930 . S
C822 C820 1.419 . S
C822 C823 1.362 . S
C823 H813 0.930 . S
C823 C816 1.409 . S
C823 C822 1.362 . S
H824 C830 0.930 . S
H825 C833 0.930 . S
H826 C834 0.930 . S
H827 C835 0.930 . S
H828 C838 0.930 . S
H829 C839 0.930 . S
C830 H824 0.930 . S
C830 C831 1.355 . S
C830 C832 1.415 . S
C831 C830 1.355 . S
C831 C833 1.419 . S
C832 C830 1.415 . S
C832 C837 1.425 . S
C832 C839 1.409 . S
C833 H825 0.930 . S
C833 C831 1.419 . S
C833 C834 1.362 . S
C834 H826 0.930 . S
C834 C833 1.362 . S
C834 C837 1.409 . S
C835 H827 0.930 . S
C835 C836 1.355 . S
C835 C837 1.415 . S
C836 C835 1.355 . S
C836 C838 1.419 . S
C837 C832 1.425 . S
C837 C834 1.409 . S
C837 C835 1.415 . S
C838 H828 0.930 . S
C838 C836 1.419 . S
C838 C839 1.362 . S
C839 H829 0.930 . S
C839 C832 1.409 . S
C839 C838 1.362 . S
H840 C846 0.930 . S
H841 C849 0.930 . S
H842 C850 0.930 . S
H843 C851 0.930 . S
H844 C854 0.930 . S
H845 C855 0.930 . S
C846 H840 0.930 . S
C846 C847 1.355 . S
C846 C848 1.415 . S
C847 C846 1.355 . S
C847 C849 1.419 . S
C848 C846 1.415 . S
C848 C853 1.425 . S
C848 C855 1.409 . S
C849 H841 0.930 . S
C849 C847 1.419 . S
C849 C850 1.362 . S
C850 H842 0.930 . S
C850 C849 1.362 . S
C850 C853 1.409 . S
C851 H843 0.930 . S
C851 C852 1.355 . S
C851 C853 1.415 . S
C852 C851 1.355 . S
C852 C854 1.419 . S
C853 C848 1.425 . S
C853 C850 1.409 . S
C853 C851 1.415 . S
C854 H844 0.930 . S
C854 C852 1.419 . S
C854 C855 1.362 . S
C855 H845 0.930 . S
C855 C848 1.409 . S
C855 C854 1.362 . S
H856 C862 0.930 . S
H857 C865 0.930 . S
H858 C866 0.930 . S
H859 C867 0.930 . S
H860 C870 0.930 . S
H861 C871 0.930 . S
C862 H856 0.930 . S
C862 C863 1.355 . S
C862 C864 1.415 . S
C863 C862 1.355 . S
C863 C865 1.419 . S
C864 C862 1.415 . S
C864 C869 1.425 . S
C864 C871 1.409 . S
C865 H857 0.930 . S
C865 C863 1.419 . S
C865 C866 1.362 . S
C866 H858 0.930 . S
C866 C865 1.362 . S
C866 C869 1.409 . S
C867 H859 0.930 . S
C867 C868 1.355 . S
C867 C869 1.415 . S
C868 C867 1.355 . S
C868 C870 1.419 . S
C869 C864 1.425 . S
C869 C866 1.409 . S
C869 C867 1.415 . S
C870 H860 0.930 . S
C870 C868 1.419 . S
C870 C871 1.362 . S
C871 H861 0.930 . S
C871 C864 1.409 . S
C871 C870 1.362 . S
H872 C878 0.930 . S
H873 C881 0.930 . S
H874 C882 0.930 . S
H875 C883 0.930 . S
H876 C886 0.930 . S
H877 C887 0.930 . S
C878 H872 0.930 . S
C878 C879 1.355 . S
C878 C880 1.415 . S
C879 C878 1.355 . S
C879 C881 1.419 . S
C880 C878 1.415 . S
C880 C885 1.425 . S
C880 C887 1.409 . S
C881 H873 0.930 . S
C881 C879 1.419 . S
C881 C882 1.362 . S
C882 H874 0.930 . S
C882 C881 1.362 . S
C882 C885 1.409 . S
C883 H875 0.930 . S
C883 C884 1.355 . S
C883 C885 1.415 . S
C884 C883 1.355 . S
C884 C886 1.419 . S
C885 C880 1.425 . S
C885 C882 1.409 . S
C885 C883 1.415 . S
C886 H876 0.930 . S
C886 C884 1.419 . S
C886 C887 1.362 . S
C887 H877 0.930 . S
C887 C880 1.409 . S
C887 C886 1.362 . S
H888 C894 0.930 . S
H889 C897 0.930 . S
H890 C898 0.930 . S
H891 C899 0.930 . S
H892 C902 0.930 . S
H893 C903 0.930 . S
C894 H888 0.930 . S
C894 C895 1.355 . S
C894 C896 1.415 . S
C895 C894 1.355 . S
C895 C897 1.419 . S
C896 C894 1.415 . S
C896 C901 1.425 . S
C896 C903 1.409 . S
C897 H889 0.930 . S
C897 C895 1.419 . S
C897 C898 1.362 . S
C898 H890 0.930 . S
C898 C897 1.362 . S
C898 C901 1.409 . S
C899 H891 0.930 . S
C899 C900 1.355 . S
C899 C901 1.415 . S
C900 C899 1.355 . S
C900 C902 1.419 . S
C901 C896 1.425 . S
C901 C898 1.409 . S
C901 C899 1.415 . S
C902 H892 0.930 . S
C902 C900 1.419 . S
C902 C903 1.362 . S
C903 H893 0.930 . S
C903 C896 1.409 . S
C903 C902 1.362 . S
H904 C910 0.930 . S
H905 C913 0.930 . S
H906 C914 0.930 . S
H907 C915 0.930 . S
H908 C918 0.930 . S
H909 C919 0.930 . S
C910 H904 0.930 . S
C910 C911 1.355 . S
C910 C912 1.415 . S
C911 C910 1.355 . S
C911 C913 1.419 . S
C912 C910 1.415 . S
C912 C917 1.425 . S
C912 C919 1.409 . S
C913 H905 0.930 . S
C913 C911 1.419 . S
C913 C914 1.362 . S
C914 H906 0.930 . S
C914 C913 1.362 . S
C914 C917 1.409 . S
C915 H907 0.930 . S
C915 C916 1.355 . S
C915 C917 1.415 . S
C916 C915 1.355 . S
C916 C918 1.419 . S
C917 C912 1.425 . S
C917 C914 1.409 . S
C917 C915 1.415 . S
C918 H908 0.930 . S
C918 C916 1.419 . S
C918 C919 1.362 . S
C919 H909 0.930 . S
C919 C912 1.409 . S
C919 C918 1.362 . S
H920 C926 0.930 . S
H921 C929 0.930 . S
H922 C930 0.930 . S
H923 C931 0.930 . S
H924 C934 0.930 . S
H925 C935 0.930 . S
C926 H920 0.930 . S
C926 C927 1.355 . S
C926 C928 1.415 . S
C927 C926 1.355 . S
C927 C929 1.419 . S
C928 C926 1.415 . S
C928 C933 1.425 . S
C928 C935 1.409 . S
C929 H921 0.930 . S
C929 C927 1.419 . S
C929 C930 1.362 . S
C930 H922 0.930 . S
C930 C929 1.362 . S
C930 C933 1.409 . S
C931 H923 0.930 . S
C931 C932 1.355 . S
C931 C933 1.415 . S
C932 C931 1.355 . S
C932 C934 1.419 . S
C933 C928 1.425 . S
C933 C930 1.409 . S
C933 C931 1.415 . S
C934 H924 0.930 . S
C934 C932 1.419 . S
C934 C935 1.362 . S
C935 H925 0.930 . S
C935 C928 1.409 . S
C935 C934 1.362 . S
H936 C942 0.930 . S
H937 C945 0.930 . S
H938 C946 0.930 . S
H939 C947 0.930 . S
H940 C950 0.930 . S
H941 C951 0.930 . S
C942 H936 0.930 . S
C942 C943 1.355 . S
C942 C944 1.415 . S
C943 C942 1.355 . S
C943 C945 1.419 . S
C944 C942 1.415 . S
C944 C949 1.425 . S
C944 C951 1.409 . S
C945 H937 0.930 . S
C945 C943 1.419 . S
C945 C946 1.362 . S
C946 H938 0.930 . S
C946 C945 1.362 . S
C946 C949 1.409 . S
C947 H939 0.930 . S
C947 C948 1.355 . S
C947 C949 1.415 . S
C948 C947 1.355 . S
C948 C950 1.419 . S
C949 C944 1.425 . S
C949 C946 1.409 . S
C949 C947 1.415 . S
C950 H940 0.930 . S
C950 C948 1.419 . S
C950 C951 1.362 . S
C951 H941 0.930 . S
C951 C944 1.409 . S
C951 C950 1.362 . S
H952 C958 0.930 1_554 S
H953 C961 0.930 . S
H954 C962 0.930 . S
H955 C963 0.930 . S
H956 C966 0.930 . S
H957 C967 0.930 . S
C958 H952 0.930 1_556 S
C958 C959 1.355 1_556 S
C958 C960 1.415 . S
C959 C958 1.355 1_554 S
C959 C961 1.419 . S
C960 C958 1.415 . S
C960 C965 1.425 . S
C960 C967 1.409 . S
C961 H953 0.930 . S
C961 C959 1.419 . S
C961 C962 1.362 1_554 S
C962 H954 0.930 . S
C962 C961 1.362 1_556 S
C962 C965 1.409 . S
C963 H955 0.930 . S
C963 C964 1.355 . S
C963 C965 1.415 . S
C964 C963 1.355 . S
C964 C966 1.419 . S
C965 C960 1.425 . S
C965 C962 1.409 . S
C965 C963 1.415 . S
C966 H956 0.930 . S
C966 C964 1.419 . S
C966 C967 1.362 . S
C967 H957 0.930 . S
C967 C960 1.409 . S
C967 C966 1.362 . S
H968 C974 0.930 . S
H969 C977 0.930 . S
H970 C978 0.930 . S
H971 C979 0.930 . S
H972 C982 0.930 . S
H973 C983 0.930 . S
C974 H968 0.930 . S
C974 C975 1.355 . S
C974 C976 1.415 . S
C975 C974 1.355 . S
C975 C977 1.419 . S
C976 C974 1.415 . S
C976 C981 1.425 . S
C976 C983 1.409 . S
C977 H969 0.930 . S
C977 C975 1.419 . S
C977 C978 1.362 . S
C978 H970 0.930 . S
C978 C977 1.362 . S
C978 C981 1.409 . S
C979 H971 0.930 . S
C979 C980 1.355 . S
C979 C981 1.415 . S
C980 C979 1.355 . S
C980 C982 1.419 . S
C981 C976 1.425 . S
C981 C978 1.409 . S
C981 C979 1.415 . S
C982 H972 0.930 . S
C982 C980 1.419 . S
C982 C983 1.362 . S
C983 H973 0.930 . S
C983 C976 1.409 . S
C983 C982 1.362 . S
H984 C990 0.930 . S
H985 C993 0.930 . S
H986 C994 0.930 . S
H987 C995 0.930 . S
H988 C998 0.930 . S
H989 C999 0.930 . S
C990 H984 0.930 . S
C990 C991 1.355 . S
C990 C992 1.415 . S
C991 C990 1.355 . S
C991 C993 1.419 . S
C992 C990 1.415 . S
C992 C997 1.425 . S
C992 C999 1.409 . S
C993 H985 0.930 . S
C993 C991 1.419 . S
C993 C994 1.362 . S
C994 H986 0.930 . S
C994 C993 1.362 . S
C994 C997 1.409 . S
C995 H987 0.930 . S
C995 C996 1.355 . S
C995 C997 1.415 1_556 S
C996 C995 1.355 . S
C996 C998 1.419 . S
C997 C992 1.425 . S
C997 C994 1.409 . S
C997 C995 1.415 1_554 S
C998 H988 0.930 . S
C998 C996 1.419 . S
C998 C999 1.362 1_556 S
C999 H989 0.930 . S
C999 C992 1.409 . S
C999 C998 1.362 1_554 S
H1000 C1006 0.930 . S
H1001 C1009 0.930 . S
H1002 C1010 0.930 . S
H1003 C1011 0.930 . S
H1004 C1014 0.930 . S
H1005 C1015 0.930 . S
C1006 H1000 0.930 . S
C1006 C1007 1.355 . S
C1006 C1008 1.415 . S
C1007 C1006 1.355 . S
C1007 C1009 1.419 . S
C1008 C1006 1.415 . S
C1008 C1013 1.425 . S
C1008 C1015 1.409 . S
C1009 H1001 0.930 . S
C1009 C1007 1.419 . S
C1009 C1010 1.362 . S
C1010 H1002 0.930 . S
C1010 C1009 1.362 . S
C1010 C1013 1.409 . S
C1011 H1003 0.930 . S
C1011 C1012 1.355 . S
C1011 C1013 1.415 . S
C1012 C1011 1.355 . S
C1012 C1014 1.419 . S
C1013 C1008 1.425 . S
C1013 C1010 1.409 . S
C1013 C1011 1.415 . S
C1014 H1004 0.930 . S
C1014 C1012 1.419 . S
C1014 C1015 1.362 . S
C1015 H1005 0.930 . S
C1015 C1008 1.409 . S
C1015 C1014 1.362 . S
H1016 C1022 0.930 . S
H1017 C1025 0.930 . S
H1018 C1026 0.930 . S
H1019 C1027 0.930 . S
H1020 C1030 0.930 . S
H1021 C1031 0.930 . S
C1022 H1016 0.930 . S
C1022 C1023 1.355 1_455 S
C1022 C1024 1.415 . S
C1023 C1022 1.355 1_655 S
C1023 C1025 1.419 . S
C1024 C1022 1.415 . S
C1024 C1029 1.425 . S
C1024 C1031 1.409 . S
C1025 H1017 0.930 . S
C1025 C1023 1.419 . S
C1025 C1026 1.362 1_655 S
C1026 H1018 0.930 . S
C1026 C1025 1.362 1_455 S
C1026 C1029 1.409 . S
C1027 H1019 0.930 . S
C1027 C1028 1.355 . S
C1027 C1029 1.415 . S
C1028 C1027 1.355 . S
C1028 C1030 1.419 . S
C1029 C1024 1.425 . S
C1029 C1026 1.409 . S
C1029 C1027 1.415 . S
C1030 H1020 0.930 . S
C1030 C1028 1.419 . S
C1030 C1031 1.362 . S
C1031 H1021 0.930 . S
C1031 C1024 1.409 . S
C1031 C1030 1.362 . S
H1032 C1038 0.930 . S
H1033 C1041 0.930 . S
H1034 C1042 0.930 . S
H1035 C1043 0.930 . S
H1036 C1046 0.930 . S
H1037 C1047 0.930 . S
C1038 H1032 0.930 . S
C1038 C1039 1.355 1_655 S
C1038 C1040 1.415 . S
C1039 C1038 1.355 1_455 S
C1039 C1041 1.419 . S
C1040 C1038 1.415 . S
C1040 C1045 1.425 . S
C1040 C1047 1.409 . S
C1041 H1033 0.930 . S
C1041 C1039 1.419 . S
C1041 C1042 1.362 1_455 S
C1042 H1034 0.930 . S
C1042 C1041 1.362 1_655 S
C1042 C1045 1.409 . S
C1043 H1035 0.930 . S
C1043 C1044 1.355 . S
C1043 C1045 1.415 . S
C1044 C1043 1.355 . S
C1044 C1046 1.419 . S
C1045 C1040 1.425 . S
C1045 C1042 1.409 . S
C1045 C1043 1.415 . S
C1046 H1036 0.930 . S
C1046 C1044 1.419 . S
C1046 C1047 1.362 . S
C1047 H1037 0.930 . S
C1047 C1040 1.409 . S
C1047 C1046 1.362 . S
H1048 C1054 0.930 . S
H1049 C1057 0.930 . S
H1050 C1058 0.930 . S
H1051 C1059 0.930 . S
H1052 C1062 0.930 . S
H1053 C1063 0.930 . S
C1054 H1048 0.930 . S
C1054 C1055 1.355 . S
C1054 C1056 1.415 . S
C1055 C1054 1.355 . S
C1055 C1057 1.419 . S
C1056 C1054 1.415 . S
C1056 C1061 1.425 . S
C1056 C1063 1.409 . S
C1057 H1049 0.930 . S
C1057 C1055 1.419 . S
C1057 C1058 1.362 . S
C1058 H1050 0.930 . S
C1058 C1057 1.362 . S
C1058 C1061 1.409 . S
C1059 H1051 0.930 . S
C1059 C1060 1.355 . S
C1059 C1061 1.415 . S
C1060 C1059 1.355 . S
C1060 C1062 1.419 . S
C1061 C1056 1.425 . S
C1061 C1058 1.409 . S
C1061 C1059 1.415 . S
C1062 H1052 0.930 . S
C1062 C1060 1.419 . S
C1062 C1063 1.362 . S
C1063 H1053 0.930 . S
C1063 C1056 1.409 . S
C1063 C1062 1.362 . S
H1064 C1070 0.930 . S
H1065 C1073 0.930 . S
H1066 C1074 0.930 . S
H1067 C1075 0.930 . S
H1068 C1078 0.930 . S
H1069 C1079 0.930 . S
C1070 H1064 0.930 . S
C1070 C1071 1.355 . S
C1070 C1072 1.415 . S
C1071 C1070 1.355 . S
C1071 C1073 1.419 . S
C1072 C1070 1.415 . S
C1072 C1077 1.425 . S
C1072 C1079 1.409 . S
C1073 H1065 0.930 . S
C1073 C1071 1.419 . S
C1073 C1074 1.362 . S
C1074 H1066 0.930 . S
C1074 C1073 1.362 . S
C1074 C1077 1.409 . S
C1075 H1067 0.930 . S
C1075 C1076 1.355 . S
C1075 C1077 1.415 . S
C1076 C1075 1.355 . S
C1076 C1078 1.419 . S
C1077 C1072 1.425 . S
C1077 C1074 1.409 . S
C1077 C1075 1.415 . S
C1078 H1068 0.930 . S
C1078 C1076 1.419 . S
C1078 C1079 1.362 . S
C1079 H1069 0.930 . S
C1079 C1072 1.409 . S
C1079 C1078 1.362 . S
H1080 C1086 0.930 . S
H1081 C1089 0.930 . S
H1082 C1090 0.930 . S
H1083 C1091 0.930 . S
H1084 C1094 0.930 . S
H1085 C1095 0.930 . S
C1086 H1080 0.930 . S
C1086 C1087 1.355 . S
C1086 C1088 1.415 1_565 S
C1087 C1086 1.355 . S
C1087 C1089 1.419 . S
C1088 C1086 1.415 1_545 S
C1088 C1093 1.425 . S
C1088 C1095 1.409 . S
C1089 H1081 0.930 . S
C1089 C1087 1.419 . S
C1089 C1090 1.362 1_565 S
C1090 H1082 0.930 . S
C1090 C1089 1.362 1_545 S
C1090 C1093 1.409 . S
C1091 H1083 0.930 . S
C1091 C1092 1.355 . S
C1091 C1093 1.415 . S
C1092 C1091 1.355 . S
C1092 C1094 1.419 . S
C1093 C1088 1.425 . S
C1093 C1090 1.409 . S
C1093 C1091 1.415 . S
C1094 H1084 0.930 . S
C1094 C1092 1.419 . S
C1094 C1095 1.362 . S
C1095 H1085 0.930 . S
C1095 C1088 1.409 . S
C1095 C1094 1.362 . S
H1096 C1102 0.930 . S
H1097 C1105 0.930 . S
H1098 C1106 0.930 . S
H1099 C1107 0.930 . S
H1100 C1110 0.930 . S
H1101 C1111 0.930 . S
C1102 H1096 0.930 . S
C1102 C1103 1.355 . S
C1102 C1104 1.415 1_545 S
C1103 C1102 1.355 . S
C1103 C1105 1.419 . S
C1104 C1102 1.415 1_565 S
C1104 C1109 1.425 . S
C1104 C1111 1.409 . S
C1105 H1097 0.930 . S
C1105 C1103 1.419 . S
C1105 C1106 1.362 1_545 S
C1106 H1098 0.930 . S
C1106 C1105 1.362 1_565 S
C1106 C1109 1.409 . S
C1107 H1099 0.930 . S
C1107 C1108 1.355 . S
C1107 C1109 1.415 . S
C1108 C1107 1.355 . S
C1108 C1110 1.419 . S
C1109 C1104 1.425 . S
C1109 C1106 1.409 . S
C1109 C1107 1.415 . S
C1110 H1100 0.930 . S
C1110 C1108 1.419 . S
C1110 C1111 1.362 . S
C1111 H1101 0.930 . S
C1111 C1104 1.409 . S
C1111 C1110 1.362 . S
H1112 C1118 0.930 . S
H1113 C1121 0.930 . S
H1114 C1122 0.930 . S
H1115 C1123 0.930 . S
H1116 C1126 0.930 . S
H1117 C1127 0.930 . S
C1118 H1112 0.930 . S
C1118 C1119 1.355 . S
C1118 C1120 1.415 . S
C1119 C1118 1.355 . S
C1119 C1121 1.419 . S
C1120 C1118 1.415 . S
C1120 C1125 1.425 . S
C1120 C1127 1.409 . S
C1121 H1113 0.930 . S
C1121 C1119 1.419 . S
C1121 C1122 1.362 . S
C1122 H1114 0.930 . S
C1122 C1121 1.362 . S
C1122 C1125 1.409 . S
C1123 H1115 0.930 . S
C1123 C1124 1.355 . S
C1123 C1125 1.415 . S
C1124 C1123 1.355 . S
C1124 C1126 1.419 . S
C1125 C1120 1.425 . S
C1125 C1122 1.409 . S
C1125 C1123 1.415 . S
C1126 H1116 0.930 . S
C1126 C1124 1.419 . S
C1126 C1127 1.362 . S
C1127 H1117 0.930 . S
C1127 C1120 1.409 . S
C1127 C1126 1.362 . S
H1128 C1134 0.930 . S
H1129 C1137 0.930 . S
H1130 C1138 0.930 . S
H1131 C1139 0.930 . S
H1132 C1142 0.930 . S
H1133 C1143 0.930 . S
C1134 H1128 0.930 . S
C1134 C1135 1.355 . S
C1134 C1136 1.415 . S
C1135 C1134 1.355 . S
C1135 C1137 1.419 . S
C1136 C1134 1.415 . S
C1136 C1141 1.425 . S
C1136 C1143 1.409 . S
C1137 H1129 0.930 . S
C1137 C1135 1.419 . S
C1137 C1138 1.362 . S
C1138 H1130 0.930 . S
C1138 C1137 1.362 . S
C1138 C1141 1.409 . S
C1139 H1131 0.930 . S
C1139 C1140 1.355 . S
C1139 C1141 1.415 . S
C1140 C1139 1.355 . S
C1140 C1142 1.419 . S
C1141 C1136 1.425 . S
C1141 C1138 1.409 . S
C1141 C1139 1.415 . S
C1142 H1132 0.930 . S
C1142 C1140 1.419 . S
C1142 C1143 1.362 . S
C1143 H1133 0.930 . S
C1143 C1136 1.409 . S
C1143 C1142 1.362 . S
H1144 C1150 0.928 1_556 S
H1145 C1153 0.930 . S
H1146 C1154 0.930 . S
H1147 C1155 0.930 . S
H1148 C1158 0.930 . S
H1149 C1159 0.930 . S
C1150 H1144 0.928 1_554 S
C1150 C1151 1.348 1_554 S
C1150 C1152 1.423 . S
C1151 C1150 1.348 1_556 S
C1151 C1153 1.419 . S
C1152 C1150 1.423 . S
C1152 C1157 1.425 . S
C1152 C1159 1.409 . S
C1153 H1145 0.930 . S
C1153 C1151 1.419 . S
C1153 C1154 1.362 1_556 S
C1154 H1146 0.930 . S
C1154 C1153 1.362 1_554 S
C1154 C1157 1.409 . S
C1155 H1147 0.930 . S
C1155 C1156 1.355 . S
C1155 C1157 1.415 . S
C1156 C1155 1.355 . S
C1156 C1158 1.419 . S
C1157 C1152 1.425 . S
C1157 C1154 1.409 . S
C1157 C1155 1.415 . S
C1158 H1148 0.930 . S
C1158 C1156 1.419 . S
C1158 C1159 1.362 . S
C1159 H1149 0.930 . S
C1159 C1152 1.409 . S
C1159 C1158 1.362 . S
H1160 C1166 0.930 . S
H1161 C1169 0.930 . S
H1162 C1170 0.930 . S
H1163 C1171 0.930 . S
H1164 C1174 0.930 . S
H1165 C1175 0.930 . S
C1166 H1160 0.930 . S
C1166 C1167 1.355 . S
C1166 C1168 1.415 . S
C1167 C1166 1.355 . S
C1167 C1169 1.419 . S
C1168 C1166 1.415 . S
C1168 C1173 1.425 . S
C1168 C1175 1.409 . S
C1169 H1161 0.930 . S
C1169 C1167 1.419 . S
C1169 C1170 1.362 . S
C1170 H1162 0.930 . S
C1170 C1169 1.362 . S
C1170 C1173 1.409 . S
C1171 H1163 0.930 . S
C1171 C1172 1.355 . S
C1171 C1173 1.415 . S
C1172 C1171 1.355 . S
C1172 C1174 1.419 . S
C1173 C1168 1.425 . S
C1173 C1170 1.409 . S
C1173 C1171 1.415 . S
C1174 H1164 0.930 . S
C1174 C1172 1.419 . S
C1174 C1175 1.362 . S
C1175 H1165 0.930 . S
C1175 C1168 1.409 . S
C1175 C1174 1.362 . S
H1176 C1182 0.930 1_554 S
H1177 C1185 0.930 . S
H1178 C1186 0.930 . S
H1179 C1187 0.930 . S
H1180 C1190 0.930 . S
H1181 C1191 0.930 . S
C1182 H1176 0.930 1_556 S
C1182 C1183 1.355 1_556 S
C1182 C1184 1.415 . S
C1183 C1182 1.355 1_554 S
C1183 C1185 1.419 . S
C1184 C1182 1.415 . S
C1184 C1189 1.425 . S
C1184 C1191 1.409 . S
C1185 H1177 0.930 . S
C1185 C1183 1.419 . S
C1185 C1186 1.362 1_554 S
C1186 H1178 0.930 . S
C1186 C1185 1.362 1_556 S
C1186 C1189 1.409 . S
C1187 H1179 0.930 . S
C1187 C1188 1.355 . S
C1187 C1189 1.415 . S
C1188 C1187 1.355 . S
C1188 C1190 1.419 . S
C1189 C1184 1.425 . S
C1189 C1186 1.409 . S
C1189 C1187 1.415 . S
C1190 H1180 0.930 . S
C1190 C1188 1.419 . S
C1190 C1191 1.362 . S
C1191 H1181 0.930 . S
C1191 C1184 1.409 . S
C1191 C1190 1.362 . S
H1192 C1198 0.930 . S
H1193 C1201 0.930 . S
H1194 C1202 0.930 . S
H1195 C1203 0.930 . S
H1196 C1206 0.930 . S
H1197 C1207 0.930 . S
C1198 H1192 0.930 . S
C1198 C1199 1.355 . S
C1198 C1200 1.415 . S
C1199 C1198 1.355 . S
C1199 C1201 1.419 . S
C1200 C1198 1.415 . S
C1200 C1205 1.425 . S
C1200 C1207 1.409 . S
C1201 H1193 0.930 . S
C1201 C1199 1.419 . S
C1201 C1202 1.362 . S
C1202 H1194 0.930 . S
C1202 C1201 1.362 . S
C1202 C1205 1.409 . S
C1203 H1195 0.930 . S
C1203 C1204 1.355 . S
C1203 C1205 1.415 . S
C1204 C1203 1.355 . S
C1204 C1206 1.419 . S
C1205 C1200 1.425 . S
C1205 C1202 1.409 . S
C1205 C1203 1.415 . S
C1206 H1196 0.930 . S
C1206 C1204 1.419 . S
C1206 C1207 1.362 . S
C1207 H1197 0.930 . S
C1207 C1200 1.409 . S
C1207 C1206 1.362 . S
H1208 C1214 0.930 . S
H1209 C1217 0.930 . S
H1210 C1218 0.930 . S
H1211 C1219 0.930 . S
H1212 C1222 0.930 . S
H1213 C1223 0.930 . S
C1214 H1208 0.930 . S
C1214 C1215 1.355 . S
C1214 C1216 1.415 . S
C1215 C1214 1.355 . S
C1215 C1217 1.419 . S
C1216 C1214 1.415 . S
C1216 C1221 1.425 . S
C1216 C1223 1.409 . S
C1217 H1209 0.930 . S
C1217 C1215 1.419 . S
C1217 C1218 1.362 . S
C1218 H1210 0.930 . S
C1218 C1217 1.362 . S
C1218 C1221 1.409 . S
C1219 H1211 0.930 . S
C1219 C1220 1.355 . S
C1219 C1221 1.415 1_455 S
C1220 C1219 1.355 . S
C1220 C1222 1.419 . S
C1221 C1216 1.425 . S
C1221 C1218 1.409 . S
C1221 C1219 1.415 1_655 S
C1222 H1212 0.930 . S
C1222 C1220 1.419 . S
C1222 C1223 1.362 1_455 S
C1223 H1213 0.930 . S
C1223 C1216 1.409 . S
C1223 C1222 1.362 1_655 S
H1224 C1230 0.930 . S
H1225 C1233 0.930 . S
H1226 C1234 0.930 . S
H1227 C1235 0.930 . S
H1228 C1238 0.930 . S
H1229 C1239 0.930 . S
C1230 H1224 0.930 . S
C1230 C1231 1.355 . S
C1230 C1232 1.415 . S
C1231 C1230 1.355 . S
C1231 C1233 1.419 . S
C1232 C1230 1.415 . S
C1232 C1237 1.425 . S
C1232 C1239 1.409 . S
C1233 H1225 0.930 . S
C1233 C1231 1.419 . S
C1233 C1234 1.362 . S
C1234 H1226 0.930 . S
C1234 C1233 1.362 . S
C1234 C1237 1.409 . S
C1235 H1227 0.930 . S
C1235 C1236 1.355 . S
C1235 C1237 1.415 1_655 S
C1236 C1235 1.355 . S
C1236 C1238 1.419 . S
C1237 C1232 1.425 . S
C1237 C1234 1.409 . S
C1237 C1235 1.415 1_455 S
C1238 H1228 0.930 . S
C1238 C1236 1.419 . S
C1238 C1239 1.362 1_655 S
C1239 H1229 0.930 . S
C1239 C1232 1.409 . S
C1239 C1238 1.362 1_455 S
H1240 C1246 0.930 . S
H1241 C1249 0.930 . S
H1242 C1250 0.930 . S
H1243 C1251 0.930 . S
H1244 C1254 0.930 . S
H1245 C1255 0.930 . S
C1246 H1240 0.930 . S
C1246 C1247 1.355 . S
C1246 C1248 1.415 . S
C1247 C1246 1.355 . S
C1247 C1249 1.419 . S
C1248 C1246 1.415 . S
C1248 C1253 1.425 . S
C1248 C1255 1.409 . S
C1249 H1241 0.930 . S
C1249 C1247 1.419 . S
C1249 C1250 1.362 . S
C1250 H1242 0.930 . S
C1250 C1249 1.362 . S
C1250 C1253 1.409 . S
C1251 H1243 0.930 . S
C1251 C1252 1.355 . S
C1251 C1253 1.415 . S
C1252 C1251 1.355 . S
C1252 C1254 1.419 . S
C1253 C1248 1.425 . S
C1253 C1250 1.409 . S
C1253 C1251 1.415 . S
C1254 H1244 0.930 . S
C1254 C1252 1.419 . S
C1254 C1255 1.362 . S
C1255 H1245 0.930 . S
C1255 C1248 1.409 . S
C1255 C1254 1.362 . S
H1256 C1262 0.930 . S
H1257 C1265 0.930 . S
H1258 C1266 0.930 . S
H1259 C1267 0.930 . S
H1260 C1270 0.930 . S
H1261 C1271 0.930 . S
C1262 H1256 0.930 . S
C1262 C1263 1.355 . S
C1262 C1264 1.415 . S
C1263 C1262 1.355 . S
C1263 C1265 1.419 . S
C1264 C1262 1.415 . S
C1264 C1269 1.425 . S
C1264 C1271 1.409 . S
C1265 H1257 0.930 . S
C1265 C1263 1.419 . S
C1265 C1266 1.362 . S
C1266 H1258 0.930 . S
C1266 C1265 1.362 . S
C1266 C1269 1.409 . S
C1267 H1259 0.930 . S
C1267 C1268 1.355 . S
C1267 C1269 1.415 . S
C1268 C1267 1.355 . S
C1268 C1270 1.419 . S
C1269 C1264 1.425 . S
C1269 C1266 1.409 . S
C1269 C1267 1.415 . S
C1270 H1260 0.930 . S
C1270 C1268 1.419 . S
C1270 C1271 1.362 . S
C1271 H1261 0.930 . S
C1271 C1264 1.409 . S
C1271 C1270 1.362 . S
H1272 C1278 0.930 . S
H1273 C1281 0.930 . S
H1274 C1282 0.930 . S
H1275 C1283 0.930 . S
H1276 C1286 0.901 1_545 S
H1277 C1287 0.930 . S
C1278 H1272 0.930 . S
C1278 C1279 1.355 . S
C1278 C1280 1.415 . S
C1279 C1278 1.355 . S
C1279 C1281 1.419 . S
C1280 C1278 1.415 . S
C1280 C1285 1.425 . S
C1280 C1287 1.409 . S
C1281 H1273 0.930 . S
C1281 C1279 1.419 . S
C1281 C1282 1.362 . S
C1282 H1274 0.930 . S
C1282 C1281 1.362 . S
C1282 C1285 1.409 . S
C1283 H1275 0.930 . S
C1283 C1284 1.375 . S
C1283 C1285 1.415 . S
C1284 C1283 1.375 . S
C1284 C1286 1.419 . S
C1285 C1280 1.425 . S
C1285 C1282 1.409 . S
C1285 C1283 1.415 . S
C1286 H1276 0.901 1_565 S
C1286 C1284 1.419 . S
C1286 C1287 1.391 . S
C1287 H1277 0.930 . S
C1287 C1280 1.409 . S
C1287 C1286 1.391 . S
H1288 C1294 0.930 . S
H1289 C1297 0.930 1_565 S
H1290 C1298 0.930 . S
H1291 C1299 0.930 . S
H1292 C1302 0.930 . S
H1293 C1303 0.930 . S
C1294 H1288 0.930 . S
C1294 C1295 1.355 . S
C1294 C1296 1.415 . S
C1295 C1294 1.355 . S
C1295 C1297 1.419 . S
C1296 C1294 1.415 . S
C1296 C1301 1.425 . S
C1296 C1303 1.409 . S
C1297 H1289 0.930 1_545 S
C1297 C1295 1.419 . S
C1297 C1298 1.362 . S
C1298 H1290 0.930 . S
C1298 C1297 1.362 . S
C1298 C1301 1.409 . S
C1299 H1291 0.930 . S
C1299 C1300 1.355 . S
C1299 C1301 1.415 . S
C1300 C1299 1.355 . S
C1300 C1302 1.419 . S
C1301 C1296 1.425 . S
C1301 C1298 1.409 . S
C1301 C1299 1.415 . S
C1302 H1292 0.930 . S
C1302 C1300 1.419 . S
C1302 C1303 1.362 . S
C1303 H1293 0.930 . S
C1303 C1296 1.409 . S
C1303 C1302 1.362 . S
H1304 C1310 0.930 . S
H1305 C1313 0.930 . S
H1306 C1314 0.930 . S
H1307 C1315 0.930 . S
H1308 C1318 0.930 . S
H1309 C1319 0.930 . S
C1310 H1304 0.930 . S
C1310 C1311 1.355 . S
C1310 C1312 1.415 . S
C1311 C1310 1.355 . S
C1311 C1313 1.419 . S
C1312 C1310 1.415 . S
C1312 C1317 1.425 . S
C1312 C1319 1.409 . S
C1313 H1305 0.930 . S
C1313 C1311 1.419 . S
C1313 C1314 1.362 . S
C1314 H1306 0.930 . S
C1314 C1313 1.362 . S
C1314 C1317 1.409 . S
C1315 H1307 0.930 . S
C1315 C1316 1.355 . S
C1315 C1317 1.415 . S
C1316 C1315 1.355 . S
C1316 C1318 1.419 . S
C1317 C1312 1.425 . S
C1317 C1314 1.409 . S
C1317 C1315 1.415 . S
C1318 H1308 0.930 . S
C1318 C1316 1.419 . S
C1318 C1319 1.362 . S
C1319 H1309 0.930 . S
C1319 C1312 1.409 . S
C1319 C1318 1.362 . S
C559 C191 1.832 . S
C564 N12 1.802 . S
C575 N35 1.844 . S
C580 C260 1.870 . S
C591 N58 1.794 . S
C596 C214 1.820 . S
C607 N81 1.801 . S
C612 C237 1.806 . S
C623 C99 1.803 . S
C628 C7 1.829 . S
C639 C30 1.880 . S
C644 C122 1.865 . S
C655 C145 1.798 . S
C660 C53 1.822 . S
C671 C76 1.880 . S
C676 C168 1.860 . S
C687 N104 1.662 . S
C692 N196 1.601 . S
C703 N150 1.665 . S
C708 N219 1.599 . S
C719 N242 1.627 . S
C724 N173 1.696 . S
C735 N127 1.678 . S
C740 N265 1.603 . S
C751 C467 1.799 . S
C756 N288 1.790 . S
C767 N311 1.755 . S
C772 C536 1.757 . S
C783 N334 1.817 . S
C788 C490 1.802 . S
C799 C513 1.782 . S
C804 N357 1.772 . S
C815 N380 1.753 . S
C820 C283 1.736 . S
C831 C306 1.753 . S
C836 N403 1.752 . S
C847 C329 1.739 . S
C852 N426 1.755 . S
C863 N449 1.692 . S
C868 C352 1.689 . S
C879 N472 1.719 . S
C884 C375 1.722 . S
C895 C421 1.656 . S
C900 N495 1.659 . S
C911 C444 1.721 . S
C916 N518 1.721 . S
C927 N541 1.678 . S
C932 C398 1.661 . S
C943 C522 1.936 . S
C948 N2 1.678 . S
C959 C499 1.939 . S
C964 N25 1.685 . S
C975 C545 1.940 . S
C980 N48 1.738 . S
C991 N71 1.714 . S
C996 C476 1.903 . S
C1007 C108 1.735 . S
C1012 C315 1.782 . S
C1023 C292 1.775 . S
C1028 C131 1.657 . S
C1039 C361 1.781 . S
C1044 C154 1.654 . S
C1055 C338 1.789 . S
C1060 C177 1.729 . S
C1071 N186 1.658 . S
C1076 C430 1.898 . S
C1087 C384 1.880 . S
C1092 N209 1.733 . S
C1103 C407 1.858 . S
C1108 N232 1.709 . S
C1119 C453 1.890 . S
C1124 N255 1.637 . S
C1135 C246 1.879 . S
C1140 N278 1.696 . S
C1151 C223 1.886 . S
C1156 N301 1.667 . S
C1167 N324 1.651 . S
C1172 C269 1.907 . S
C1183 C200 1.889 . S
C1188 N347 1.661 . S
C1199 N370 1.708 . S
C1204 C39 1.863 . S
C1215 N393 1.685 . S
C1220 C16 1.911 . S
C1231 N416 1.724 . S
C1236 C85 1.910 . S
C1247 N439 1.676 . S
C1252 C62 1.864 . S
C1263 N462 1.759 . S
C1268 N140 1.797 . S
C1279 N485 1.668 . S
C1284 N94 1.800 1_565 S
C1295 N117 1.853 1_545 S
C1300 N508 1.684 . S
C1311 N531 1.761 . S
C1316 N163 1.799 . S
