# Generated by pormake.
# Topology rac, (4)-cn, num edge types: 1
# Building blocks:
#     Node 0, Type 0, BuildingBlock: UXUYUI_clean_sbu_0, # of connection points: 4
#     Node 1, Type 0, BuildingBlock: UXUYUI_clean_sbu_0, # of connection points: 4
#     Node 2, Type 0, BuildingBlock: UXUYUI_clean_sbu_0, # of connection points: 4
#     Node 3, Type 0, BuildingBlock: UXUYUI_clean_sbu_0, # of connection points: 4
#     Node 4, Type 0, BuildingBlock: UXUYUI_clean_sbu_0, # of connection points: 4
#     Node 5, Type 0, BuildingBlock: UXUYUI_clean_sbu_0, # of connection points: 4
#     Node 6, Type 0, BuildingBlock: UXUYUI_clean_sbu_0, # of connection points: 4
#     Node 7, Type 0, BuildingBlock: UXUYUI_clean_sbu_0, # of connection points: 4
#     Edge 8, Type (0, 0), BuildingBlock: XIVTED_clean_linker_0, # of connection points: 2
#     Edge 9, Type (0, 0), BuildingBlock: XIVTED_clean_linker_0, # of connection points: 2
#     Edge 10, Type (0, 0), BuildingBlock: XIVTED_clean_linker_0, # of connection points: 2
#     Edge 11, Type (0, 0), BuildingBlock: XIVTED_clean_linker_0, # of connection points: 2
#     Edge 12, Type (0, 0), BuildingBlock: XIVTED_clean_linker_0, # of connection points: 2
#     Edge 13, Type (0, 0), BuildingBlock: XIVTED_clean_linker_0, # of connection points: 2
#     Edge 14, Type (0, 0), BuildingBlock: XIVTED_clean_linker_0, # of connection points: 2
#     Edge 15, Type (0, 0), BuildingBlock: XIVTED_clean_linker_0, # of connection points: 2
#     Edge 16, Type (0, 0), BuildingBlock: XIVTED_clean_linker_0, # of connection points: 2
#     Edge 17, Type (0, 0), BuildingBlock: XIVTED_clean_linker_0, # of connection points: 2
#     Edge 18, Type (0, 0), BuildingBlock: XIVTED_clean_linker_0, # of connection points: 2
#     Edge 19, Type (0, 0), BuildingBlock: XIVTED_clean_linker_0, # of connection points: 2
#     Edge 20, Type (0, 0), BuildingBlock: XIVTED_clean_linker_0, # of connection points: 2
#     Edge 21, Type (0, 0), BuildingBlock: XIVTED_clean_linker_0, # of connection points: 2
#     Edge 22, Type (0, 0), BuildingBlock: XIVTED_clean_linker_0, # of connection points: 2
#     Edge 23, Type (0, 0), BuildingBlock: XIVTED_clean_linker_0, # of connection points: 2
# Relax obj value: 0.361
# Max RMSD: 0.174
# Mean RMSD: 0.174
data_MOF--net-rac--node1-UXUYUI_clean_sbu_0--edge1-XIVTED_clean_linker_0
_symmetry_space_group_name_H-M    P1
_symmetry_Int_Tables_number       1
_symmetry_cell_setting            triclinic
loop_
_symmetry_equiv_pos_as_xyz
'x, y, z'
_cell_length_a     57.438583
_cell_length_b     29.559467
_cell_length_c     61.86184
_cell_angle_alpha  90.000447
_cell_angle_beta   90.00442
_cell_angle_gamma 89.954024
loop_
_atom_site_label
_atom_site_type_symbol
_atom_site_fract_x
_atom_site_fract_y
_atom_site_fract_z
_atom_type_partial_charge
Li0 Li 0.4068 0.26112 0.05699 0.0
Li1 Li 0.39555 0.24379 0.09477 0.0
Li2 Li 0.37667 0.20144 0.06323 0.0
Li3 Li 0.36806 0.2812 0.06975 0.0
C4 C 0.43244 0.18548 0.0717 0.0
N5 N 0.47744 0.15285 0.06903 0.0
C6 C 0.44986 0.20339 0.08492 0.0
C7 C 0.43781 0.15039 0.05739 0.0
C8 C 0.47253 0.18663 0.08325 0.0
C9 C 0.46069 0.13451 0.0562 0.0
C10 C 0.40038 0.33968 0.09372 0.0
C11 C 0.38926 0.38018 0.12597 0.0
N12 N 0.405 0.41299 0.12109 0.0
C13 C 0.41644 0.37379 0.08903 0.0
C14 C 0.38667 0.34288 0.11232 0.0
C15 C 0.4185 0.4106 0.10306 0.0
C16 C 0.42514 0.31007 0.02147 0.0
N17 N 0.4311 0.29001 0.0405 0.0
C18 C 0.46597 0.33433 0.04219 0.0
C19 C 0.45134 0.3009 0.05067 0.0
C20 C 0.45961 0.35721 0.02314 0.0
C21 C 0.43931 0.34341 0.01236 0.0
H22 H 0.40846 0.30327 0.01418 0.0
H23 H 0.45519 0.28665 0.06633 0.0
C24 C 0.39379 0.21098 0.13764 0.0
N25 N 0.40514 0.24016 0.12432 0.0
C26 C 0.39782 0.21208 0.15993 0.0
C27 C 0.42552 0.27246 0.15427 0.0
C28 C 0.42137 0.26948 0.13209 0.0
C29 C 0.41336 0.24403 0.16846 0.0
H30 H 0.38095 0.18807 0.13103 0.0
H31 H 0.43041 0.29196 0.12116 0.0
C32 C 0.37806 0.23639 0.02131 0.0
N33 N 0.38188 0.20456 0.97948 0.0
C34 C 0.36149 0.2485 0.0058 0.0
C35 C 0.39664 0.20837 0.01552 0.0
C36 C 0.3637 0.23196 0.98474 0.0
C37 C 0.39825 0.19257 0.9943 0.0
C38 C 0.34001 0.23208 0.0968 0.0
C39 C 0.32153 0.21764 0.08381 0.0
C40 C 0.33549 0.24811 0.11764 0.0
C41 C 0.29881 0.22001 0.09178 0.0
C42 C 0.31252 0.24999 0.12503 0.0
N43 N 0.29481 0.23604 0.11205 0.0
C44 C 0.3535 0.1227 0.07477 0.0
C45 C 0.34931 0.139 0.03749 0.0
C46 C 0.33492 0.09222 0.07391 0.0
N47 N 0.35972 0.14671 0.05693 0.0
C48 C 0.3308 0.10843 0.03586 0.0
C49 C 0.32269 0.08612 0.05445 0.0
H50 H 0.36164 0.13014 0.09014 0.0
H51 H 0.35399 0.15883 0.02356 0.0
C52 C 0.3453 0.36711 0.07284 0.0
N53 N 0.34383 0.32379 0.06565 0.0
C54 C 0.32774 0.39797 0.06812 0.0
C55 C 0.30762 0.33955 0.04817 0.0
C56 C 0.32563 0.30977 0.0533 0.0
C57 C 0.30865 0.38435 0.05556 0.0
H58 H 0.36021 0.37836 0.08183 0.0
H59 H 0.32535 0.27564 0.04705 0.0
O60 O 0.41009 0.20117 0.07322 0.0
O61 O 0.39852 0.30293 0.08038 0.0
O62 O 0.37613 0.25235 0.04197 0.0
O63 O 0.36243 0.2295 0.08936 0.0
H64 H 0.44596 0.23024 0.09621 0.0
H65 H 0.42442 0.1354 0.04738 0.0
H66 H 0.48622 0.20047 0.09327 0.0
H67 H 0.46512 0.10751 0.04513 0.0
H68 H 0.37877 0.38304 0.14043 0.0
H69 H 0.42719 0.37189 0.07469 0.0
H70 H 0.37414 0.31686 0.11613 0.0
H71 H 0.43086 0.43725 0.09963 0.0
H72 H 0.48148 0.34377 0.05105 0.0
H73 H 0.4334 0.36064 0.99792 0.0
H74 H 0.38809 0.18975 0.17047 0.0
H75 H 0.43775 0.29728 0.16034 0.0
H76 H 0.34706 0.27036 0.01 0.0
H77 H 0.40976 0.19934 0.02724 0.0
H78 H 0.35098 0.24093 0.97258 0.0
H79 H 0.41255 0.17087 0.98959 0.0
H80 H 0.32463 0.205 0.06767 0.0
H81 H 0.34954 0.25867 0.12811 0.0
H82 H 0.28437 0.20909 0.08185 0.0
H83 H 0.30879 0.26239 0.14111 0.0
H84 H 0.32943 0.07535 0.08859 0.0
H85 H 0.32181 0.105 0.02056 0.0
H86 H 0.32911 0.43215 0.07429 0.0
H87 H 0.29335 0.32793 0.03817 0.0
Li88 Li 0.08974 0.74174 0.06026 0.0
Li89 Li 0.10015 0.75784 0.09822 0.0
Li90 Li 0.11827 0.80208 0.0666 0.0
Li91 Li 0.12731 0.72332 0.07262 0.0
C92 C 0.06359 0.81099 0.06896 0.0
N93 N 0.02004 0.82963 0.05231 0.0
C94 C 0.04381 0.80534 0.08181 0.0
C95 C 0.0613 0.82636 0.04771 0.0
C96 C 0.02192 0.8149 0.07308 0.0
C97 C 0.0391 0.83552 0.03957 0.0
C98 C 0.10249 0.65436 0.08563 0.0
C99 C 0.12114 0.59304 0.10472 0.0
N100 N 0.11429 0.56392 0.08894 0.0
C101 C 0.09558 0.62374 0.06964 0.0
C102 C 0.1153 0.63884 0.10337 0.0
C103 C 0.10172 0.57819 0.07161 0.0
C104 C 0.07 0.70054 0.02326 0.0
N105 N 0.06529 0.7151 0.04365 0.0
C106 C 0.03212 0.66649 0.04569 0.0
C107 C 0.0464 0.69978 0.05467 0.0
C108 C 0.03756 0.64811 0.02533 0.0
C109 C 0.05622 0.66703 0.01369 0.0
H110 H 0.08564 0.71182 0.01522 0.0
H111 H 0.0436 0.71044 0.07118 0.0
C112 C 0.09244 0.79875 0.13905 0.0
N113 N 0.09015 0.76001 0.12745 0.0
C114 C 0.0879 0.7988 0.16126 0.0
C115 C 0.07841 0.71932 0.15897 0.0
C116 C 0.08272 0.72103 0.13679 0.0
C117 C 0.08135 0.75837 0.17168 0.0
H118 H 0.09842 0.82927 0.13116 0.0
H119 H 0.08097 0.69075 0.12715 0.0
C120 C 0.13816 0.75901 0.03159 0.0
N121 N 0.17638 0.77275 0.00523 0.0
C122 C 0.1602 0.76554 0.04061 0.0
C123 C 0.13559 0.75929 0.00912 0.0
C124 C 0.1793 0.77248 0.02704 0.0
C125 C 0.15511 0.76633 0.99607 0.0
C126 C 0.15151 0.77191 0.10637 0.0
C127 C 0.17248 0.79346 0.10121 0.0
C128 C 0.14954 0.74883 0.12603 0.0
C129 C 0.19114 0.79107 0.11565 0.0
C130 C 0.1686 0.74725 0.14004 0.0
N131 N 0.18883 0.76819 0.1346 0.0
C132 C 0.14178 0.88031 0.07808 0.0
C133 C 0.14079 0.87028 0.04013 0.0
C134 C 0.15942 0.91254 0.07617 0.0
N135 N 0.13367 0.85833 0.06032 0.0
C136 C 0.15847 0.90243 0.03746 0.0
C137 C 0.16877 0.92264 0.05572 0.0
H138 H 0.13597 0.86998 0.09396 0.0
H139 H 0.13397 0.85275 0.02618 0.0
C140 C 0.14785 0.6527 0.05065 0.0
N141 N 0.15073 0.67863 0.06861 0.0
C142 C 0.16404 0.61935 0.04547 0.0
C143 C 0.18605 0.64037 0.07725 0.0
C144 C 0.16926 0.67284 0.08199 0.0
C145 C 0.18352 0.61337 0.05876 0.0
H146 H 0.13294 0.65816 0.04029 0.0
H147 H 0.17117 0.69322 0.09627 0.0
O148 O 0.0851 0.80108 0.07707 0.0
O149 O 0.09715 0.69936 0.08373 0.0
O150 O 0.11913 0.75236 0.04455 0.0
O151 O 0.1329 0.77429 0.09255 0.0
H152 H 0.04536 0.79337 0.0983 0.0
H153 H 0.07651 0.83077 0.03758 0.0
H154 H 0.00642 0.81052 0.08279 0.0
H155 H 0.03702 0.84724 0.02312 0.0
H156 H 0.13118 0.58069 0.11829 0.0
H157 H 0.08582 0.63497 0.05572 0.0
H158 H 0.12094 0.66197 0.11583 0.0
H159 H 0.09657 0.55421 0.05929 0.0
H160 H 0.01776 0.65344 0.05515 0.0
H161 H 0.0613 0.65363 0.9981 0.0
H162 H 0.08991 0.83008 0.17016 0.0
H163 H 0.07375 0.68715 0.1661 0.0
H164 H 0.16254 0.76524 0.05789 0.0
H165 H 0.11866 0.75448 0.00181 0.0
H166 H 0.19644 0.77767 0.03386 0.0
H167 H 0.15335 0.76677 0.97866 0.0
H168 H 0.17445 0.81183 0.08622 0.0
H169 H 0.13358 0.73201 0.13042 0.0
H170 H 0.20745 0.80746 0.1118 0.0
H171 H 0.1673 0.72933 0.15524 0.0
H172 H 0.16678 0.92676 0.09078 0.0
H173 H 0.16468 0.90989 0.02132 0.0
H174 H 0.16162 0.59912 0.03104 0.0
H175 H 0.20077 0.63611 0.08802 0.0
Li176 Li 0.37214 0.22091 0.42795 0.0
Li177 Li 0.38164 0.29628 0.43674 0.0
Li178 Li 0.39912 0.25972 0.40398 0.0
Li179 Li 0.41031 0.23428 0.44119 0.0
C180 C 0.34434 0.29072 0.40835 0.0
N181 N 0.30032 0.32813 0.40585 0.0
C182 C 0.32825 0.28351 0.42495 0.0
C183 C 0.33802 0.31677 0.39044 0.0
C184 C 0.30609 0.30275 0.4234 0.0
C185 C 0.31568 0.33543 0.38949 0.0
C186 C 0.38522 0.25811 0.47745 0.0
C187 C 0.40499 0.30938 0.50161 0.0
N188 N 0.39508 0.28804 0.51878 0.0
C189 C 0.37516 0.23684 0.49533 0.0
C190 C 0.40021 0.29481 0.4806 0.0
C191 C 0.3804 0.25241 0.51609 0.0
C192 C 0.34426 0.15339 0.44589 0.0
N193 N 0.34775 0.17881 0.42791 0.0
C194 C 0.31678 0.14181 0.40946 0.0
C195 C 0.3345 0.17385 0.40989 0.0
C196 C 0.31286 0.11472 0.42773 0.0
C197 C 0.32681 0.12076 0.44614 0.0
H198 H 0.35526 0.15817 0.45989 0.0
H199 H 0.33795 0.19439 0.39578 0.0
C200 C 0.36357 0.38489 0.43113 0.0
N201 N 0.36537 0.35052 0.44568 0.0
C202 C 0.34552 0.41665 0.43288 0.0
C203 C 0.33266 0.37924 0.46542 0.0
C204 C 0.35072 0.34801 0.46294 0.0
C205 C 0.32926 0.4131 0.44981 0.0
H206 H 0.37482 0.38529 0.41711 0.0
H207 H 0.35145 0.31938 0.47371 0.0
C208 C 0.39584 0.15367 0.4129 0.0
N209 N 0.38212 0.06469 0.40776 0.0
C210 C 0.39842 0.12283 0.42988 0.0
C211 C 0.38616 0.13924 0.39334 0.0
C212 C 0.39143 0.078 0.42694 0.0
C213 C 0.37936 0.09412 0.39106 0.0
C214 C 0.43852 0.30455 0.42545 0.0
C215 C 0.45224 0.27848 0.41157 0.0
C216 C 0.44879 0.33902 0.43761 0.0
C217 C 0.47608 0.28724 0.41011 0.0
C218 C 0.4727 0.34678 0.43569 0.0
N219 N 0.48574 0.32093 0.4221 0.0
C220 C 0.40396 0.30522 0.36357 0.0
C221 C 0.41711 0.22932 0.36444 0.0
C222 C 0.408 0.30748 0.34128 0.0
N223 N 0.4082 0.26626 0.37454 0.0
C224 C 0.42095 0.22973 0.34218 0.0
C225 C 0.41606 0.26896 0.3301 0.0
H226 H 0.39689 0.33416 0.37205 0.0
H227 H 0.42059 0.19892 0.37358 0.0
C228 C 0.43528 0.19449 0.47766 0.0
N229 N 0.43525 0.2025 0.45598 0.0
C230 C 0.44904 0.15989 0.48637 0.0
C231 C 0.46372 0.14418 0.45063 0.0
C232 C 0.44972 0.17906 0.44261 0.0
C233 C 0.46283 0.13296 0.47269 0.0
H234 H 0.42363 0.21263 0.48818 0.0
H235 H 0.44894 0.18472 0.42538 0.0
O236 O 0.36645 0.27367 0.40987 0.0
O237 O 0.38002 0.24323 0.45707 0.0
O238 O 0.40197 0.19806 0.41568 0.0
O239 O 0.41516 0.29645 0.42723 0.0
H240 H 0.33294 0.26396 0.43909 0.0
H241 H 0.35032 0.32286 0.37751 0.0
H242 H 0.29353 0.29775 0.4362 0.0
H243 H 0.31058 0.35587 0.37577 0.0
H244 H 0.41655 0.33771 0.50427 0.0
H245 H 0.36343 0.20854 0.49318 0.0
H246 H 0.40796 0.31209 0.46705 0.0
H247 H 0.37277 0.23618 0.53007 0.0
H248 H 0.30657 0.13766 0.39488 0.0
H249 H 0.32415 0.10071 0.46058 0.0
H250 H 0.34367 0.44236 0.42053 0.0
H251 H 0.32037 0.3745 0.4785 0.0
H252 H 0.40532 0.13349 0.44532 0.0
H253 H 0.38343 0.1628 0.3802 0.0
H254 H 0.39326 0.05386 0.43998 0.0
H255 H 0.37173 0.08257 0.37605 0.0
H256 H 0.44463 0.2515 0.40216 0.0
H257 H 0.4384 0.35963 0.4484 0.0
H258 H 0.48692 0.26721 0.39948 0.0
H259 H 0.48089 0.37335 0.445 0.0
H260 H 0.40447 0.33891 0.33294 0.0
H261 H 0.42683 0.19886 0.33454 0.0
H262 H 0.44808 0.15305 0.50355 0.0
H263 H 0.47383 0.12416 0.43937 0.0
Li264 Li 0.1217 0.69613 0.43859 0.0
Li265 Li 0.12957 0.77178 0.42752 0.0
Li266 Li 0.09276 0.75742 0.44278 0.0
Li267 Li 0.10061 0.73247 0.40609 0.0
C268 C 0.12123 0.74041 0.47854 0.0
N269 N 0.11606 0.71922 0.52176 0.0
C270 C 0.13064 0.76868 0.49439 0.0
C271 C 0.10934 0.70125 0.48464 0.0
C272 C 0.12779 0.75743 0.51617 0.0
C273 C 0.10688 0.69113 0.50658 0.0
C274 C 0.15413 0.72521 0.39985 0.0
C275 C 0.17522 0.75486 0.36928 0.0
N276 N 0.19563 0.74541 0.37947 0.0
C277 C 0.17531 0.71562 0.41 0.0
C278 C 0.15404 0.74488 0.3793 0.0
C279 C 0.19611 0.72616 0.39944 0.0
C280 C 0.14032 0.60711 0.43441 0.0
N281 N 0.14011 0.64468 0.44711 0.0
C282 C 0.17545 0.62127 0.46438 0.0
C283 C 0.15701 0.65173 0.46216 0.0
C284 C 0.17689 0.58338 0.45073 0.0
C285 C 0.15859 0.57577 0.43603 0.0
H286 H 0.12722 0.60309 0.422 0.0
H287 H 0.15736 0.68288 0.47125 0.0
C288 C 0.156 0.84154 0.40869 0.0
N289 N 0.15416 0.81314 0.42585 0.0
C290 C 0.17391 0.87321 0.40796 0.0
C291 C 0.18768 0.84521 0.44247 0.0
C292 C 0.16954 0.81404 0.44249 0.0
C293 C 0.1899 0.8755 0.42511 0.0
H294 H 0.14349 0.83967 0.39565 0.0
H295 H 0.16755 0.79079 0.45585 0.0
C296 C 0.06415 0.68685 0.43387 0.0
N297 N 0.01728 0.67218 0.44116 0.0
C298 C 0.04748 0.70718 0.42059 0.0
C299 C 0.05697 0.65845 0.45067 0.0
C300 C 0.02388 0.69955 0.42459 0.0
C301 C 0.03319 0.6516 0.45414 0.0
C302 C 0.0988 0.84039 0.42089 0.0
C303 C 0.105 0.85749 0.44119 0.0
C304 C 0.09212 0.87028 0.40451 0.0
C305 C 0.10397 0.90407 0.44484 0.0
C306 C 0.0914 0.91666 0.40879 0.0
N307 N 0.09725 0.93245 0.42871 0.0
C308 C 0.06929 0.79792 0.48008 0.0
C309 C 0.05203 0.80911 0.44577 0.0
C310 C 0.05553 0.83233 0.48895 0.0
N311 N 0.06801 0.78815 0.45859 0.0
C312 C 0.03789 0.84355 0.45398 0.0
C313 C 0.0402 0.85688 0.47566 0.0
H314 H 0.08194 0.78142 0.49018 0.0
H315 H 0.05166 0.80195 0.42864 0.0
C316 C 0.09732 0.69178 0.36442 0.0
N317 N 0.08963 0.7259 0.37732 0.0
C318 C 0.09276 0.69276 0.34219 0.0
C319 C 0.07189 0.76306 0.34726 0.0
C320 C 0.0766 0.76044 0.36934 0.0
C321 C 0.08053 0.72955 0.33334 0.0
H322 H 0.108 0.66516 0.37118 0.0
H323 H 0.07069 0.78698 0.38001 0.0
O324 O 0.12395 0.75104 0.45718 0.0
O325 O 0.13359 0.71611 0.41012 0.0
O326 O 0.08734 0.6944 0.43027 0.0
O327 O 0.0999 0.79485 0.41681 0.0
H328 H 0.13993 0.79912 0.48991 0.0
H329 H 0.10235 0.67875 0.47257 0.0
H330 H 0.13489 0.77908 0.52863 0.0
H331 H 0.09772 0.66089 0.51152 0.0
H332 H 0.17542 0.7703 0.35342 0.0
H333 H 0.17569 0.70069 0.42595 0.0
H334 H 0.1378 0.7529 0.3713 0.0
H335 H 0.21262 0.71916 0.40715 0.0
H336 H 0.18932 0.62928 0.4756 0.0
H337 H 0.15886 0.54692 0.42525 0.0
H338 H 0.17525 0.89555 0.39415 0.0
H339 H 0.19948 0.84625 0.45611 0.0
H340 H 0.0527 0.72904 0.40746 0.0
H341 H 0.06955 0.6415 0.46085 0.0
H342 H 0.01081 0.71542 0.41453 0.0
H343 H 0.0274 0.62981 0.46711 0.0
H344 H 0.11059 0.83515 0.454 0.0
H345 H 0.08769 0.85789 0.38858 0.0
H346 H 0.10859 0.91767 0.4605 0.0
H347 H 0.08625 0.94013 0.39625 0.0
H348 H 0.05759 0.84091 0.50587 0.0
H349 H 0.02652 0.86171 0.44304 0.0
H350 H 0.09987 0.66651 0.33191 0.0
H351 H 0.06222 0.79171 0.34104 0.0
Li352 Li 0.59131 0.7409 0.94317 0.0
Li353 Li 0.62628 0.71977 0.92558 0.0
Li354 Li 0.62307 0.79607 0.93753 0.0
Li355 Li 0.59982 0.76799 0.90585 0.0
C356 C 0.62274 0.75318 0.97686 0.0
N357 N 0.62177 0.77887 0.01979 0.0
C358 C 0.63641 0.73038 0.99205 0.0
C359 C 0.60867 0.78925 0.98348 0.0
C360 C 0.63565 0.74382 0.01369 0.0
C361 C 0.6084 0.80166 0.00527 0.0
C362 C 0.5884 0.66155 0.91956 0.0
C363 C 0.5654 0.59614 0.9103 0.0
N364 N 0.574 0.57409 0.92788 0.0
C365 C 0.59709 0.63816 0.93748 0.0
C366 C 0.57248 0.64037 0.90582 0.0
C367 C 0.58957 0.594 0.94142 0.0
C368 C 0.54679 0.7035 0.94972 0.0
N369 N 0.56697 0.71318 0.96027 0.0
C370 C 0.55745 0.6601 0.98814 0.0
C371 C 0.57211 0.69312 0.9795 0.0
C372 C 0.53744 0.64684 0.97676 0.0
C373 C 0.53174 0.67015 0.95766 0.0
H374 H 0.54339 0.71878 0.93414 0.0
H375 H 0.5885 0.69942 0.98735 0.0
C376 C 0.66765 0.67645 0.93505 0.0
N377 N 0.64847 0.6735 0.92232 0.0
C378 C 0.68553 0.64502 0.9329 0.0
C379 C 0.66335 0.60776 0.90478 0.0
C380 C 0.64593 0.64012 0.9074 0.0
C381 C 0.68351 0.61027 0.91756 0.0
H382 H 0.66913 0.70365 0.94666 0.0
H383 H 0.6306 0.63918 0.89726 0.0
C384 C 0.58262 0.84858 0.92836 0.0
N385 N 0.57121 0.93834 0.92179 0.0
C386 C 0.59192 0.87212 0.9108 0.0
C387 C 0.56753 0.87066 0.94261 0.0
C388 C 0.58591 0.91748 0.90772 0.0
C389 C 0.56199 0.91608 0.93902 0.0
C390 C 0.65222 0.76106 0.89702 0.0
C391 C 0.67484 0.77346 0.90285 0.0
C392 C 0.64874 0.73286 0.87916 0.0
C393 C 0.69364 0.75708 0.89083 0.0
C394 C 0.66799 0.71724 0.86753 0.0
N395 N 0.68985 0.72952 0.87358 0.0
C396 C 0.66338 0.82423 0.9568 0.0
C397 C 0.64154 0.8878 0.94531 0.0
C398 C 0.68252 0.85147 0.96147 0.0
N399 N 0.64361 0.84235 0.94834 0.0
C400 C 0.66039 0.91651 0.94982 0.0
C401 C 0.68151 0.89808 0.95732 0.0
H402 H 0.66485 0.788 0.95869 0.0
H403 H 0.62583 0.9017 0.93846 0.0
C404 C 0.5687 0.75928 0.87017 0.0
N405 N 0.58876 0.77883 0.87719 0.0
C406 C 0.56371 0.75746 0.84801 0.0
C407 C 0.59965 0.79735 0.84099 0.0
C408 C 0.60374 0.79906 0.86318 0.0
C409 C 0.57979 0.7752 0.83319 0.0
H410 H 0.55732 0.74269 0.88162 0.0
H411 H 0.61972 0.81383 0.86911 0.0
O412 O 0.62361 0.74053 0.9556 0.0
O413 O 0.59478 0.70548 0.9158 0.0
O414 O 0.58807 0.80408 0.93166 0.0
O415 O 0.63359 0.7758 0.90891 0.0
H416 H 0.64748 0.70255 0.98714 0.0
H417 H 0.59807 0.8075 0.97201 0.0
H418 H 0.6461 0.7264 0.02562 0.0
H419 H 0.59758 0.82944 0.01063 0.0
H420 H 0.553 0.5794 0.89985 0.0
H421 H 0.6093 0.65408 0.94841 0.0
H422 H 0.56551 0.65807 0.89193 0.0
H423 H 0.59603 0.57564 0.95531 0.0
H424 H 0.56278 0.64266 0.00272 0.0
H425 H 0.5164 0.66125 0.94842 0.0
H426 H 0.70071 0.64771 0.94322 0.0
H427 H 0.66132 0.58171 0.89262 0.0
H428 H 0.60401 0.85587 0.89992 0.0
H429 H 0.5602 0.85285 0.9563 0.0
H430 H 0.59306 0.93618 0.89424 0.0
H431 H 0.55036 0.93361 0.94994 0.0
H432 H 0.67791 0.7954 0.91651 0.0
H433 H 0.63139 0.72232 0.8746 0.0
H434 H 0.71124 0.76627 0.89522 0.0
H435 H 0.66554 0.6951 0.8538 0.0
H436 H 0.69828 0.83584 0.96754 0.0
H437 H 0.65887 0.95228 0.94632 0.0
H438 H 0.54833 0.73974 0.84246 0.0
H439 H 0.61242 0.81128 0.82996 0.0
Li440 Li 0.90852 0.26278 0.94205 0.0
Li441 Li 0.87314 0.28173 0.92465 0.0
Li442 Li 0.8783 0.20532 0.93667 0.0
Li443 Li 0.90059 0.23532 0.90539 0.0
C444 C 0.87726 0.2479 0.97583 0.0
N445 N 0.87839 0.22179 0.01871 0.0
C446 C 0.86261 0.26871 0.99088 0.0
C447 C 0.8924 0.21358 0.98256 0.0
C448 C 0.86347 0.25511 0.01249 0.0
C449 C 0.89272 0.20093 0.00432 0.0
C450 C 0.90927 0.34295 0.91913 0.0
C451 C 0.92982 0.4118 0.91057 0.0
N452 N 0.92044 0.43183 0.92834 0.0
C453 C 0.89975 0.36432 0.93727 0.0
C454 C 0.92437 0.36691 0.90563 0.0
C455 C 0.90564 0.40922 0.94166 0.0
C456 C 0.95232 0.30273 0.94855 0.0
N457 N 0.93232 0.29203 0.95916 0.0
C458 C 0.94142 0.345 0.9872 0.0
C459 C 0.92701 0.31165 0.97846 0.0
C460 C 0.96129 0.35907 0.97583 0.0
C461 C 0.96708 0.33646 0.95658 0.0
H462 H 0.95582 0.28779 0.93291 0.0
H463 H 0.9107 0.30457 0.98631 0.0
C464 C 0.83079 0.32202 0.93395 0.0
N465 N 0.84989 0.32585 0.92116 0.0
C466 C 0.81248 0.35255 0.93181 0.0
C467 C 0.83396 0.39039 0.90341 0.0
C468 C 0.85183 0.359 0.90605 0.0
C469 C 0.81398 0.38725 0.91638 0.0
H470 H 0.82981 0.29508 0.94573 0.0
H471 H 0.86712 0.36069 0.89589 0.0
C472 C 0.9186 0.15654 0.92405 0.0
N473 N 0.92981 0.0705 0.90998 0.0
C474 C 0.90309 0.13242 0.91101 0.0
C475 C 0.93981 0.13691 0.92993 0.0
C476 C 0.90907 0.08898 0.90407 0.0
C477 C 0.94516 0.09336 0.92266 0.0
C478 C 0.84994 0.23836 0.89406 0.0
C479 C 0.82704 0.22353 0.8969 0.0
C480 C 0.85528 0.26711 0.87681 0.0
C481 C 0.80983 0.23794 0.88249 0.0
C482 C 0.83759 0.2807 0.86274 0.0
N483 N 0.81541 0.266 0.86586 0.0
C484 C 0.83702 0.17364 0.95122 0.0
C485 C 0.86409 0.11325 0.95058 0.0
C486 C 0.81893 0.14422 0.95639 0.0
N487 N 0.8589 0.1578 0.94777 0.0
C488 C 0.84641 0.08237 0.9558 0.0
C489 C 0.82329 0.09764 0.95828 0.0
H490 H 0.83341 0.20925 0.949 0.0
H491 H 0.8817 0.10136 0.94823 0.0
C492 C 0.92939 0.24924 0.8687 0.0
N493 N 0.9117 0.22392 0.87687 0.0
C494 C 0.93364 0.24978 0.84642 0.0
C495 C 0.9022 0.19639 0.84166 0.0
C496 C 0.89868 0.19664 0.86396 0.0
C497 C 0.9193 0.22445 0.83256 0.0
H498 H 0.93923 0.27114 0.87931 0.0
H499 H 0.8844 0.17754 0.87074 0.0
O500 O 0.87631 0.26066 0.9546 0.0
O501 O 0.90448 0.29844 0.91487 0.0
O502 O 0.9134 0.19943 0.93083 0.0
O503 O 0.86698 0.22548 0.90828 0.0
H504 H 0.85072 0.29515 0.98589 0.0
H505 H 0.90378 0.19686 0.97119 0.0
H506 H 0.85227 0.271 0.02432 0.0
H507 H 0.90437 0.1745 0.00976 0.0
H508 H 0.94156 0.43067 0.9003 0.0
H509 H 0.88815 0.34634 0.94802 0.0
H510 H 0.93195 0.35089 0.89156 0.0
H511 H 0.89851 0.42604 0.95572 0.0
H512 H 0.93604 0.36195 0.00189 0.0
H513 H 0.98231 0.34607 0.94734 0.0
H514 H 0.79746 0.34938 0.94228 0.0
H515 H 0.83561 0.41639 0.89117 0.0
H516 H 0.88648 0.14673 0.90653 0.0
H517 H 0.95204 0.15521 0.93997 0.0
H518 H 0.89719 0.06989 0.89403 0.0
H519 H 0.96152 0.07776 0.92709 0.0
H520 H 0.82256 0.20108 0.91003 0.0
H521 H 0.87282 0.27955 0.87454 0.0
H522 H 0.79203 0.2268 0.88453 0.0
H523 H 0.84147 0.30317 0.84942 0.0
H524 H 0.80149 0.1578 0.95784 0.0
H525 H 0.85072 0.04689 0.95751 0.0
H526 H 0.94689 0.2721 0.84001 0.0
H527 H 0.89092 0.17608 0.83154 0.0
Li528 Li 0.60214 0.73306 0.59995 0.0
Li529 Li 0.62123 0.69907 0.568 0.0
Li530 Li 0.62712 0.77636 0.57533 0.0
Li531 Li 0.58981 0.75341 0.56121 0.0
C532 C 0.65714 0.73681 0.60068 0.0
N533 N 0.70116 0.76427 0.61301 0.0
C534 C 0.67659 0.72389 0.58856 0.0
C535 C 0.66009 0.76357 0.6191 0.0
C536 C 0.6987 0.73812 0.59507 0.0
C537 C 0.68249 0.77715 0.62505 0.0
C538 C 0.58542 0.64885 0.57292 0.0
C539 C 0.58198 0.58714 0.54766 0.0
N540 N 0.58382 0.55728 0.56431 0.0
C541 C 0.58723 0.61764 0.5898 0.0
C542 C 0.58272 0.63363 0.55169 0.0
C543 C 0.58639 0.57143 0.5851 0.0
C544 C 0.57165 0.7398 0.63628 0.0
N545 N 0.59274 0.72507 0.62919 0.0
C546 C 0.60452 0.70765 0.66526 0.0
C547 C 0.60886 0.70822 0.64308 0.0
C548 C 0.58319 0.72402 0.67331 0.0
C549 C 0.56645 0.73941 0.65839 0.0
H550 H 0.55921 0.75329 0.62483 0.0
H551 H 0.6255 0.69681 0.63699 0.0
C552 C 0.64826 0.64139 0.54015 0.0
N553 N 0.63907 0.64661 0.56027 0.0
C554 C 0.6669 0.6115 0.53679 0.0
C555 C 0.66547 0.59174 0.57466 0.0
C556 C 0.64678 0.62148 0.57723 0.0
C557 C 0.67633 0.58765 0.55441 0.0
H558 H 0.64228 0.66267 0.52707 0.0
H559 H 0.63961 0.6272 0.59317 0.0
C560 C 0.59406 0.83366 0.59697 0.0
N561 N 0.58892 0.91566 0.61801 0.0
C562 C 0.58548 0.8714 0.58587 0.0
C563 C 0.59983 0.8377 0.61886 0.0
C564 C 0.58308 0.91253 0.59676 0.0
C565 C 0.59716 0.87942 0.62918 0.0
C566 C 0.62147 0.77932 0.53003 0.0
C567 C 0.61574 0.82461 0.53374 0.0
C568 C 0.62793 0.76554 0.50926 0.0
C569 C 0.61633 0.85531 0.51659 0.0
C570 C 0.62833 0.79727 0.49251 0.0
N571 N 0.62254 0.84112 0.49649 0.0
C572 C 0.6674 0.81408 0.55838 0.0
C573 C 0.65168 0.85795 0.58694 0.0
C574 C 0.68568 0.8445 0.5558 0.0
N575 N 0.65077 0.82144 0.57363 0.0
C576 C 0.66961 0.8893 0.58491 0.0
C577 C 0.68684 0.88277 0.56913 0.0
H578 H 0.66657 0.78424 0.54831 0.0
H579 H 0.63885 0.86261 0.59937 0.0
C580 C 0.54842 0.80124 0.55759 0.0
N581 N 0.56409 0.77843 0.54524 0.0
C582 C 0.53383 0.83369 0.54831 0.0
C583 C 0.55008 0.81545 0.51338 0.0
C584 C 0.56431 0.78309 0.52336 0.0
C585 C 0.53531 0.84272 0.52604 0.0
H586 H 0.5487 0.79718 0.57496 0.0
H587 H 0.57674 0.76432 0.51378 0.0
O588 O 0.63528 0.72431 0.59422 0.0
O589 O 0.58683 0.69412 0.5771 0.0
O590 O 0.5961 0.79274 0.5867 0.0
O591 O 0.62085 0.74845 0.54653 0.0
H592 H 0.67466 0.70379 0.57408 0.0
H593 H 0.64525 0.77421 0.62857 0.0
H594 H 0.71388 0.7286 0.58577 0.0
H595 H 0.68501 0.79808 0.6392 0.0
H596 H 0.58 0.5748 0.5313 0.0
H597 H 0.58946 0.62902 0.6063 0.0
H598 H 0.58145 0.6575 0.53846 0.0
H599 H 0.58786 0.54683 0.59798 0.0
H600 H 0.6182 0.69619 0.67597 0.0
H601 H 0.54964 0.75171 0.66371 0.0
H602 H 0.67487 0.60953 0.52096 0.0
H603 H 0.67207 0.5737 0.58862 0.0
H604 H 0.58063 0.86915 0.56902 0.0
H605 H 0.60671 0.80927 0.62775 0.0
H606 H 0.57652 0.94196 0.58833 0.0
H607 H 0.60171 0.88299 0.64607 0.0
H608 H 0.61092 0.8359 0.54968 0.0
H609 H 0.63244 0.73064 0.50606 0.0
H610 H 0.61184 0.89042 0.51927 0.0
H611 H 0.6332 0.78701 0.47635 0.0
H612 H 0.69863 0.8383 0.54343 0.0
H613 H 0.67022 0.91789 0.59584 0.0
H614 H 0.52286 0.85387 0.55879 0.0
H615 H 0.55144 0.82051 0.49609 0.0
Li616 Li 0.87968 0.29436 0.56824 0.0
Li617 Li 0.90014 0.26189 0.59867 0.0
Li618 Li 0.91133 0.24011 0.55994 0.0
Li619 Li 0.87395 0.21629 0.57693 0.0
C620 C 0.91954 0.34365 0.56943 0.0
N621 N 0.93133 0.43111 0.55821 0.0
C622 C 0.91547 0.37916 0.58385 0.0
C623 C 0.92975 0.35248 0.54937 0.0
C624 C 0.92154 0.42318 0.57787 0.0
C625 C 0.93551 0.39698 0.54396 0.0
C626 C 0.85811 0.28652 0.61356 0.0
C627 C 0.84636 0.2776 0.65077 0.0
N628 N 0.84222 0.32283 0.65201 0.0
C629 C 0.85373 0.33294 0.61522 0.0
C630 C 0.85435 0.25859 0.63147 0.0
C631 C 0.84567 0.35062 0.63479 0.0
C632 C 0.83682 0.32778 0.56008 0.0
N633 N 0.8592 0.34257 0.55872 0.0
C634 C 0.8458 0.41634 0.54836 0.0
C635 C 0.86403 0.38583 0.5526 0.0
C636 C 0.82254 0.40169 0.54991 0.0
C637 C 0.81826 0.35657 0.55555 0.0
H638 H 0.83336 0.29343 0.56516 0.0
H639 H 0.88183 0.39706 0.55133 0.0
C640 C 0.92292 0.23265 0.63658 0.0
N641 N 0.91179 0.26869 0.62761 0.0
C642 C 0.92787 0.23196 0.65868 0.0
C643 C 0.91126 0.30678 0.66171 0.0
C644 C 0.90687 0.3062 0.6395 0.0
C645 C 0.92126 0.26873 0.67166 0.0
H646 H 0.92706 0.20352 0.62676 0.0
H647 H 0.89845 0.33484 0.63203 0.0
C648 C 0.86879 0.25732 0.53009 0.0
N649 N 0.84606 0.29212 0.49443 0.0
C650 C 0.84587 0.2445 0.52563 0.0
C651 C 0.88023 0.28748 0.51633 0.0
C652 C 0.83466 0.26257 0.50754 0.0
C653 C 0.86841 0.30479 0.49841 0.0
C654 C 0.90316 0.15603 0.59043 0.0
C655 C 0.91014 0.1235 0.57535 0.0
C656 C 0.89243 0.14231 0.60962 0.0
C657 C 0.90625 0.07776 0.57973 0.0
C658 C 0.88882 0.09626 0.61339 0.0
N659 N 0.89575 0.0652 0.5985 0.0
C660 C 0.95442 0.19809 0.55302 0.0
C661 C 0.92964 0.19879 0.5224 0.0
C662 C 0.96825 0.16435 0.54368 0.0
N663 N 0.93511 0.21338 0.54261 0.0
C664 C 0.9431 0.16536 0.51239 0.0
C665 C 0.96211 0.1461 0.52344 0.0
H666 H 0.95783 0.20896 0.56941 0.0
H667 H 0.9138 0.21038 0.51475 0.0
C668 C 0.83311 0.17219 0.58976 0.0
N669 N 0.85163 0.17019 0.57619 0.0
C670 C 0.81533 0.14044 0.58809 0.0
C671 C 0.83616 0.10512 0.55854 0.0
C672 C 0.8535 0.13773 0.56074 0.0
C673 C 0.81666 0.10668 0.57218 0.0
H674 H 0.83185 0.19907 0.60151 0.0
H675 H 0.86818 0.13793 0.54979 0.0
O676 O 0.91427 0.30023 0.57518 0.0
O677 O 0.86608 0.26849 0.59455 0.0
O678 O 0.87987 0.24085 0.548 0.0
O679 O 0.90629 0.20111 0.58623 0.0
H680 H 0.9076 0.37286 0.59943 0.0
H681 H 0.93332 0.32521 0.53818 0.0
H682 H 0.91842 0.45105 0.58883 0.0
H683 H 0.94338 0.40437 0.52848 0.0
H684 H 0.84352 0.25641 0.66477 0.0
H685 H 0.8568 0.35528 0.60169 0.0
H686 H 0.85778 0.22268 0.63056 0.0
H687 H 0.84229 0.38648 0.63631 0.0
H688 H 0.8498 0.45094 0.54398 0.0
H689 H 0.80064 0.34399 0.55723 0.0
H690 H 0.93559 0.20192 0.66571 0.0
H691 H 0.90623 0.33612 0.6711 0.0
H692 H 0.83676 0.22125 0.53617 0.0
H693 H 0.89797 0.29764 0.51956 0.0
H694 H 0.81687 0.25319 0.50396 0.0
H695 H 0.877 0.32837 0.48768 0.0
H696 H 0.91814 0.13335 0.56026 0.0
H697 H 0.88677 0.16699 0.6214 0.0
H698 H 0.91147 0.05227 0.56816 0.0
H699 H 0.88045 0.08521 0.62814 0.0
H700 H 0.98248 0.15037 0.55302 0.0
H701 H 0.9379 0.15309 0.49663 0.0
H702 H 0.80063 0.1425 0.59901 0.0
H703 H 0.83761 0.07996 0.54588 0.0
H704 H 0.30673 0.02592 0.02382 0.0
H705 H 0.18151 0.99753 0.07951 0.0
H706 H 0.28719 0.0898 0.08384 0.0
H707 H 0.20577 0.91102 0.02795 0.0
H708 H 0.21884 0.03698 0.0789 0.0
H709 H 0.26868 0.98823 0.02286 0.0
C710 C 0.29449 0.0319 0.03682 0.0
C711 C 0.30029 0.06074 0.05404 0.0
C712 C 0.21595 0.00948 0.06765 0.0
C713 C 0.25661 0.01815 0.05293 0.0
C714 C 0.19461 0.98684 0.068 0.0
C715 C 0.19037 0.95056 0.05384 0.0
C716 C 0.2333 0.99609 0.05297 0.0
C717 C 0.20799 0.93905 0.03901 0.0
C718 C 0.27279 0.01035 0.03628 0.0
C719 C 0.2837 0.0672 0.07046 0.0
N720 N 0.22866 0.96158 0.03902 0.0
N721 N 0.26265 0.04627 0.06945 0.0
H722 H 0.19966 0.54715 0.41566 0.0
H723 H 0.30706 0.45114 0.48483 0.0
H724 H 0.20381 0.55577 0.48521 0.0
H725 H 0.30154 0.43762 0.41556 0.0
H726 H 0.2696 0.49054 0.48522 0.0
H727 H 0.23673 0.5066 0.41532 0.0
C728 C 0.20815 0.53998 0.43091 0.0
C729 C 0.19844 0.55498 0.45051 0.0
C730 C 0.27662 0.47915 0.46991 0.0
C731 C 0.24138 0.50923 0.45016 0.0
C732 C 0.29804 0.45661 0.46967 0.0
C733 C 0.3076 0.44106 0.45012 0.0
C734 C 0.26451 0.48621 0.45046 0.0
C735 C 0.29512 0.44958 0.43099 0.0
C736 C 0.22949 0.51718 0.43067 0.0
C737 C 0.21066 0.5454 0.46968 0.0
N738 N 0.27425 0.47138 0.43165 0.0
N739 N 0.23145 0.52331 0.46901 0.0
H740 H 0.72558 0.87618 0.94434 0.0
H741 H 0.78357 0.10881 0.98278 0.0
H742 H 0.6864 0.98407 0.97412 0.0
H743 H 0.81746 0.01316 0.94041 0.0
H744 H 0.74934 0.05979 0.98376 0.0
H745 H 0.7607 0.9222 0.94678 0.0
C746 C 0.72439 0.90943 0.95161 0.0
C747 C 0.70296 0.92614 0.95916 0.0
C748 C 0.76433 0.04946 0.97434 0.0
C749 C 0.74328 0.97939 0.9618 0.0
C750 C 0.78391 0.07749 0.97372 0.0
C751 C 0.80349 0.06549 0.9613 0.0
C752 C 0.76428 0.00884 0.9626 0.0
C753 C 0.80297 0.02383 0.95036 0.0
C754 C 0.74446 0.93582 0.95286 0.0
C755 C 0.70248 0.9699 0.968 0.0
N756 N 0.78368 0.9972 0.95119 0.0
N757 N 0.72235 0.99498 0.96912 0.0
H758 H 0.71437 0.59226 0.58071 0.0
H759 H 0.78321 0.389 0.52563 0.0
H760 H 0.6892 0.52592 0.5232 0.0
H761 H 0.81605 0.48515 0.56821 0.0
H762 H 0.74816 0.4364 0.52508 0.0
H763 H 0.75098 0.55056 0.5775 0.0
C764 C 0.71651 0.56865 0.56746 0.0
C765 C 0.69859 0.56218 0.55232 0.0
C766 C 0.76312 0.44743 0.53434 0.0
C767 C 0.74063 0.51441 0.54848 0.0
C768 C 0.78311 0.42039 0.53467 0.0
C769 C 0.80256 0.43317 0.54701 0.0
C770 C 0.76237 0.48717 0.54675 0.0
C771 C 0.80153 0.47422 0.55836 0.0
C772 C 0.73751 0.54517 0.56553 0.0
C773 C 0.70254 0.53186 0.53523 0.0
N774 N 0.78167 0.49944 0.55819 0.0
N775 N 0.72304 0.50875 0.53389 0.0
H776 H 0.40536 0.32027 0.19189 0.0
H777 H 0.44682 0.22053 0.30457 0.0
H778 H 0.42632 0.18091 0.19851 0.0
H779 H 0.39007 0.31635 0.3001 0.0
H780 H 0.44712 0.21492 0.2652 0.0
H781 H 0.40752 0.32888 0.23135 0.0
C782 C 0.41063 0.29167 0.2017 0.0
C783 C 0.41568 0.24983 0.19209 0.0
C784 C 0.43473 0.23728 0.27296 0.0
C785 C 0.41846 0.25957 0.23691 0.0
C786 C 0.43439 0.2404 0.29548 0.0
C787 C 0.41817 0.2686 0.30599 0.0
C788 C 0.41917 0.26331 0.26073 0.0
C789 C 0.40312 0.29458 0.29298 0.0
C790 C 0.41175 0.29653 0.22411 0.0
C791 C 0.42224 0.21363 0.20541 0.0
N792 N 0.40403 0.29136 0.27107 0.0
N793 N 0.42361 0.21939 0.2272 0.0
H794 H 0.09109 0.80448 0.30978 0.0
H795 H 0.05168 0.70505 0.19598 0.0
H796 H 0.06608 0.66767 0.30303 0.0
H797 H 0.10552 0.80626 0.20258 0.0
H798 H 0.05038 0.69809 0.23533 0.0
H799 H 0.08963 0.81323 0.27047 0.0
C800 C 0.08504 0.77644 0.3 0.0
C801 C 0.07864 0.73531 0.30961 0.0
C802 C 0.06237 0.72189 0.22806 0.0
C803 C 0.07691 0.74514 0.26471 0.0
C804 C 0.06326 0.72582 0.20557 0.0
C805 C 0.07886 0.75617 0.1957 0.0
C806 C 0.07686 0.74905 0.24086 0.0
C807 C 0.09291 0.78295 0.20923 0.0
C808 C 0.08437 0.78137 0.2776 0.0
C809 C 0.07124 0.69984 0.29619 0.0
N810 N 0.09153 0.7788 0.23106 0.0
N811 N 0.07047 0.70562 0.27437 0.0
H812 H 0.54501 0.80117 0.80528 0.0
H813 H 0.59837 0.66608 0.70521 0.0
H814 H 0.6097 0.7275 0.80828 0.0
H815 H 0.55889 0.78913 0.69608 0.0
H816 H 0.59569 0.67672 0.74421 0.0
H817 H 0.54318 0.78599 0.76605 0.0
C818 C 0.5587 0.78164 0.79765 0.0
C819 C 0.57762 0.76581 0.80981 0.0
C820 C 0.5875 0.70119 0.73361 0.0
C821 C 0.57544 0.74767 0.76553 0.0
C822 C 0.58911 0.69533 0.7113 0.0
C823 C 0.5792 0.72714 0.69712 0.0
C824 C 0.57557 0.7387 0.74198 0.0
C825 C 0.56672 0.7635 0.70623 0.0
C826 C 0.55769 0.77311 0.77539 0.0
C827 C 0.59495 0.74059 0.79934 0.0
N828 N 0.56533 0.76838 0.72807 0.0
N829 N 0.5934 0.73212 0.77783 0.0
H830 H 0.95763 0.23756 0.69655 0.0
H831 H 0.88296 0.23872 0.80521 0.0
H832 H 0.88801 0.29161 0.70114 0.0
H833 H 0.95779 0.22614 0.80595 0.0
H834 H 0.88429 0.25142 0.76629 0.0
H835 H 0.95803 0.22747 0.73597 0.0
C836 C 0.94251 0.24754 0.70587 0.0
C837 C 0.92279 0.26563 0.69558 0.0
C838 C 0.90045 0.24589 0.77491 0.0
C839 C 0.92304 0.25372 0.74048 0.0
C840 C 0.89969 0.23819 0.79711 0.0
C841 C 0.92029 0.23093 0.80879 0.0
C842 C 0.92196 0.24598 0.76416 0.0
C843 C 0.94151 0.23161 0.79752 0.0
C844 C 0.94278 0.2419 0.72832 0.0
C845 C 0.90369 0.27813 0.70841 0.0
N846 N 0.94181 0.23872 0.77576 0.0
N847 N 0.90423 0.2716 0.73013 0.0
H848 H 0.47008 0.38381 0.98158 0.0
H849 H 0.52537 0.62115 0.01798 0.0
H850 H 0.47769 0.4254 0.04808 0.0
H851 H 0.51993 0.5786 0.95145 0.0
H852 H 0.50716 0.55021 0.0292 0.0
H853 H 0.48795 0.45504 0.97012 0.0
C854 C 0.4756 0.40779 0.99379 0.0
C855 C 0.47242 0.39836 0.01585 0.0
C856 C 0.50983 0.55645 0.01213 0.0
C857 C 0.49285 0.48025 0.00282 0.0
C858 C 0.52024 0.597 0.00571 0.0
C859 C 0.52417 0.60603 0.98372 0.0
C860 C 0.50332 0.52439 0.99648 0.0
C861 C 0.51693 0.57353 0.96855 0.0
C862 C 0.48582 0.44847 0.98723 0.0
C863 C 0.48011 0.43069 0.03092 0.0
N864 N 0.50697 0.53416 0.97521 0.0
N865 N 0.48985 0.47013 0.02413 0.0
H866 H 0.02489 0.62547 0.98363 0.0
H867 H 0.97408 0.38249 0.01711 0.0
H868 H 0.02373 0.57452 0.04902 0.0
H869 H 0.97784 0.42915 0.95112 0.0
H870 H 0.99241 0.45285 0.02895 0.0
H871 H 0.0076 0.55429 0.97124 0.0
C872 C 0.02096 0.59946 0.9954 0.0
C873 C 0.02565 0.60637 0.01745 0.0
C874 C 0.98936 0.44766 0.01186 0.0
C875 C 0.00584 0.52463 0.00335 0.0
C876 C 0.97887 0.40745 0.00509 0.0
C877 C 0.97445 0.39976 0.98308 0.0
C878 C 0.99539 0.48077 0.99654 0.0
C879 C 0.98122 0.43327 0.96822 0.0
C880 C 0.01106 0.55881 0.98831 0.0
C881 C 0.02001 0.57137 0.03194 0.0
N882 N 0.99123 0.47235 0.97523 0.0
N883 N 0.01046 0.53218 0.02464 0.0
H884 H 0.49152 0.87576 0.53516 0.0
H885 H 0.50572 0.09781 0.46163 0.0
H886 H 0.55214 0.90285 0.49603 0.0
H887 H 0.44598 0.07152 0.50203 0.0
H888 H 0.52277 0.02607 0.47349 0.0
H889 H 0.47418 0.94644 0.52242 0.0
C890 C 0.50116 0.89641 0.52381 0.0
C891 C 0.52336 0.88312 0.51669 0.0
C892 C 0.50596 0.03609 0.47982 0.0
C893 C 0.50355 0.96446 0.502 0.0
C894 C 0.49619 0.07708 0.47302 0.0
C895 C 0.47438 0.09104 0.48088 0.0
C896 C 0.49384 0.00857 0.49453 0.0
C897 C 0.46299 0.06275 0.49578 0.0
C898 C 0.49122 0.93683 0.51652 0.0
C899 C 0.53486 0.91121 0.50176 0.0
N900 N 0.47281 0.02296 0.50205 0.0
N901 N 0.52488 0.95054 0.49501 0.0
H902 H 0.94247 0.07452 0.50169 0.0
H903 H 0.05825 0.92355 0.5015 0.0
H904 H 0.00843 0.12135 0.52659 0.0
H905 H 0.99546 0.88608 0.46769 0.0
H906 H 0.03961 0.99412 0.51269 0.0
H907 H 0.96116 0.00455 0.49017 0.0
C908 C 0.96097 0.07057 0.50447 0.0
C909 C 0.97385 0.10443 0.51507 0.0
C910 C 0.02987 0.97043 0.50287 0.0
C911 C 0.99531 0.02313 0.50234 0.0
C912 C 0.04042 0.92984 0.49665 0.0
C913 C 0.02838 0.89855 0.48371 0.0
C914 C 0.00701 0.97997 0.49621 0.0
C915 C 0.00547 0.90921 0.47755 0.0
C916 C 0.97159 0.03021 0.49805 0.0
C917 C 0.99766 0.09627 0.5187 0.0
N918 N 0.99554 0.94891 0.48387 0.0
N919 N 0.00757 0.05651 0.51242 0.0
H920 H 0.17683 0.52433 0.04879 0.0
H921 H 0.31323 0.47282 0.0436 0.0
H922 H 0.23036 0.62525 0.05668 0.0
H923 H 0.26153 0.36999 0.05581 0.0
H924 H 0.28219 0.52861 0.03972 0.0
H925 H 0.2071 0.46698 0.0429 0.0
C926 C 0.19496 0.53438 0.049 0.0
C927 C 0.20126 0.57922 0.05346 0.0
C928 C 0.27765 0.49375 0.04308 0.0
C929 C 0.23568 0.51444 0.04672 0.0
C930 C 0.29533 0.46197 0.04539 0.0
C931 C 0.28993 0.41695 0.05048 0.0
C932 C 0.25441 0.48041 0.04585 0.0
C933 C 0.26643 0.40441 0.05195 0.0
C934 C 0.21216 0.50177 0.04573 0.0
C935 C 0.2249 0.59078 0.05363 0.0
N936 N 0.24948 0.43615 0.04988 0.0
N937 N 0.24129 0.5585 0.0504 0.0
H938 H 0.26849 0.12279 0.4124 0.0
H939 H 0.23536 0.86552 0.43753 0.0
H940 H 0.31554 0.02772 0.44239 0.0
H941 H 0.18656 0.96419 0.41304 0.0
H942 H 0.26536 0.92392 0.43855 0.0
H943 H 0.23854 0.06427 0.41142 0.0
C944 C 0.2725 0.0895 0.41871 0.0
C945 C 0.29447 0.07995 0.42747 0.0
C946 C 0.24809 0.93277 0.43294 0.0
C947 C 0.26036 0.01303 0.42652 0.0
C948 C 0.23095 0.89951 0.43243 0.0
C949 C 0.20845 0.91006 0.42519 0.0
C950 C 0.24268 0.97684 0.42612 0.0
C951 C 0.20377 0.95445 0.41845 0.0
C952 C 0.2554 0.0562 0.41825 0.0
C953 C 0.29871 0.03654 0.43571 0.0
N954 N 0.22075 0.98625 0.4191 0.0
N955 N 0.2818 0.00458 0.43499 0.0
H956 H 0.6797 0.51854 0.91326 0.0
H957 H 0.81743 0.4789 0.91178 0.0
H958 H 0.73025 0.62634 0.91589 0.0
H959 H 0.76716 0.37076 0.91582 0.0
H960 H 0.78556 0.5334 0.90963 0.0
H961 H 0.71146 0.46372 0.91056 0.0
C962 C 0.69749 0.53064 0.91308 0.0
C963 C 0.70242 0.57691 0.91495 0.0
C964 C 0.78149 0.49774 0.91091 0.0
C965 C 0.73874 0.51462 0.91205 0.0
C966 C 0.79967 0.46664 0.91201 0.0
C967 C 0.79488 0.42034 0.91409 0.0
C968 C 0.75839 0.48239 0.91186 0.0
C969 C 0.77157 0.40626 0.91455 0.0
C970 C 0.71559 0.49938 0.91166 0.0
C971 C 0.72575 0.59085 0.91483 0.0
N972 N 0.75416 0.43721 0.9135 0.0
N973 N 0.74307 0.55979 0.91347 0.0
H974 H 0.73315 0.86471 0.56324 0.0
H975 H 0.7701 0.12449 0.57234 0.0
H976 H 0.68436 0.97496 0.57002 0.0
H977 H 0.81947 0.01525 0.56561 0.0
H978 H 0.73835 0.07021 0.56927 0.0
H979 H 0.76495 0.91944 0.56145 0.0
C980 C 0.72913 0.90047 0.56413 0.0
C981 C 0.70614 0.9154 0.56694 0.0
C982 C 0.75611 0.05805 0.5684 0.0
C983 C 0.74236 0.97801 0.56515 0.0
C984 C 0.77422 0.08898 0.57029 0.0
C985 C 0.7974 0.07417 0.56948 0.0
C986 C 0.7612 0.01193 0.56576 0.0
C987 C 0.80181 0.02799 0.56628 0.0
C988 C 0.74728 0.93165 0.56322 0.0
C989 C 0.70189 0.96203 0.56824 0.0
N990 N 0.78385 0.99838 0.56468 0.0
N991 N 0.71986 0.99168 0.56742 0.0
loop_
_geom_bond_atom_site_label_1
_geom_bond_atom_site_label_2
_geom_bond_distance
_geom_bond_site_symmetry_2
_ccdc_geom_bond_type
Li0 N17 1.990 . S
Li0 O60 1.956 . S
Li0 O61 1.970 . S
Li0 O62 1.961 . S
Li1 N25 1.990 . S
Li1 O60 1.970 . S
Li1 O61 1.956 . S
Li1 O63 1.961 . S
Li2 N47 1.990 . S
Li2 O60 1.961 . S
Li2 O62 1.956 . S
Li2 O63 1.970 . S
Li3 N53 1.990 . S
Li3 O61 1.961 . S
Li3 O62 1.970 . S
Li3 O63 1.956 . S
C4 C6 1.348 . S
C4 C7 1.356 . S
C4 O60 1.325 . S
N5 C8 1.314 . S
N5 C9 1.279 . S
C6 C4 1.348 . S
C6 C8 1.353 . S
C6 H64 0.929 . S
C7 C4 1.356 . S
C7 C9 1.358 . S
C7 H65 0.930 . S
C8 N5 1.314 . S
C8 C6 1.353 . S
C8 H66 0.930 . S
C9 N5 1.279 . S
C9 C7 1.358 . S
C9 H67 0.930 . S
C10 C13 1.348 . S
C10 C14 1.356 . S
C10 O61 1.325 . S
C11 N12 1.279 . S
C11 C14 1.358 . S
C11 H68 0.930 . S
N12 C11 1.279 . S
N12 C15 1.314 . S
C13 C10 1.348 . S
C13 C15 1.353 . S
C13 H69 0.929 . S
C14 C10 1.356 . S
C14 C11 1.358 . S
C14 H70 0.930 . S
C15 N12 1.314 . S
C15 C13 1.353 . S
C15 H71 0.930 . S
C16 N17 1.314 . S
C16 C21 1.353 . S
C16 H22 0.930 . S
N17 Li0 1.990 . S
N17 C16 1.314 . S
N17 C19 1.279 . S
C18 C19 1.358 . S
C18 C20 1.356 . S
C18 H72 0.930 . S
C19 N17 1.279 . S
C19 C18 1.358 . S
C19 H23 0.930 . S
C20 C18 1.356 . S
C20 C21 1.348 . S
C21 C16 1.353 . S
C21 C20 1.348 . S
C21 H73 0.915 1_554 S
H22 C16 0.930 . S
H23 C19 0.930 . S
C24 N25 1.314 . S
C24 C26 1.353 . S
C24 H30 0.930 . S
N25 Li1 1.990 . S
N25 C24 1.314 . S
N25 C28 1.279 . S
C26 C24 1.353 . S
C26 C29 1.348 . S
C26 H74 0.929 . S
C27 C28 1.358 . S
C27 C29 1.356 . S
C27 H75 0.930 . S
C28 N25 1.279 . S
C28 C27 1.358 . S
C28 H31 0.930 . S
C29 C26 1.348 . S
C29 C27 1.356 . S
H30 C24 0.930 . S
H31 C28 0.930 . S
C32 C34 1.348 . S
C32 C35 1.356 . S
C32 O62 1.325 . S
N33 C36 1.314 . S
N33 C37 1.279 . S
C34 C32 1.348 . S
C34 C36 1.353 1_554 S
C34 H76 0.929 . S
C35 C32 1.356 . S
C35 C37 1.358 1_554 S
C35 H77 0.930 . S
C36 N33 1.314 . S
C36 C34 1.353 1_556 S
C36 H78 0.930 . S
C37 N33 1.279 . S
C37 C35 1.358 1_556 S
C37 H79 0.930 . S
C38 C39 1.348 . S
C38 C40 1.356 . S
C38 O63 1.325 . S
C39 C38 1.348 . S
C39 C41 1.353 . S
C39 H80 0.929 . S
C40 C38 1.356 . S
C40 C42 1.358 . S
C40 H81 0.930 . S
C41 C39 1.353 . S
C41 N43 1.314 . S
C41 H82 0.930 . S
C42 C40 1.358 . S
C42 N43 1.279 . S
C42 H83 0.930 . S
N43 C41 1.314 . S
N43 C42 1.279 . S
C44 C46 1.353 . S
C44 N47 1.314 . S
C44 H50 0.930 . S
C45 N47 1.279 . S
C45 C48 1.358 . S
C45 H51 0.930 . S
C46 C44 1.353 . S
C46 C49 1.348 . S
C46 H84 0.929 . S
N47 Li2 1.990 . S
N47 C44 1.314 . S
N47 C45 1.279 . S
C48 C45 1.358 . S
C48 C49 1.356 . S
C48 H85 0.930 . S
C49 C46 1.348 . S
C49 C48 1.356 . S
H50 C44 0.930 . S
H51 C45 0.930 . S
C52 N53 1.314 . S
C52 C54 1.353 . S
C52 H58 0.930 . S
N53 Li3 1.990 . S
N53 C52 1.314 . S
N53 C56 1.279 . S
C54 C52 1.353 . S
C54 C57 1.348 . S
C54 H86 0.929 . S
C55 C56 1.358 . S
C55 C57 1.356 . S
C55 H87 0.930 . S
C56 N53 1.279 . S
C56 C55 1.358 . S
C56 H59 0.930 . S
C57 C54 1.348 . S
C57 C55 1.356 . S
H58 C52 0.930 . S
H59 C56 0.930 . S
O60 Li0 1.956 . S
O60 Li1 1.970 . S
O60 Li2 1.961 . S
O60 C4 1.325 . S
O61 Li0 1.970 . S
O61 Li1 1.956 . S
O61 Li3 1.961 . S
O61 C10 1.325 . S
O62 Li0 1.961 . S
O62 Li2 1.956 . S
O62 Li3 1.970 . S
O62 C32 1.325 . S
O63 Li1 1.961 . S
O63 Li2 1.970 . S
O63 Li3 1.956 . S
O63 C38 1.325 . S
H64 C6 0.929 . S
H65 C7 0.930 . S
H66 C8 0.930 . S
H67 C9 0.930 . S
H68 C11 0.930 . S
H69 C13 0.929 . S
H70 C14 0.930 . S
H71 C15 0.930 . S
H72 C18 0.930 . S
H73 C21 0.915 1_556 S
H74 C26 0.929 . S
H75 C27 0.930 . S
H76 C34 0.929 . S
H77 C35 0.930 . S
H78 C36 0.930 . S
H79 C37 0.930 . S
H80 C39 0.929 . S
H81 C40 0.930 . S
H82 C41 0.930 . S
H83 C42 0.930 . S
H84 C46 0.929 . S
H85 C48 0.930 . S
H86 C54 0.929 . S
H87 C55 0.930 . S
Li88 N105 1.990 . S
Li88 O148 1.956 . S
Li88 O149 1.970 . S
Li88 O150 1.961 . S
Li89 N113 1.990 . S
Li89 O148 1.970 . S
Li89 O149 1.956 . S
Li89 O151 1.961 . S
Li90 N135 1.990 . S
Li90 O148 1.961 . S
Li90 O150 1.956 . S
Li90 O151 1.970 . S
Li91 N141 1.990 . S
Li91 O149 1.961 . S
Li91 O150 1.970 . S
Li91 O151 1.956 . S
C92 C94 1.348 . S
C92 C95 1.356 . S
C92 O148 1.325 . S
N93 C96 1.314 . S
N93 C97 1.279 . S
C94 C92 1.348 . S
C94 C96 1.353 . S
C94 H152 0.929 . S
C95 C92 1.356 . S
C95 C97 1.358 . S
C95 H153 0.930 . S
C96 N93 1.314 . S
C96 C94 1.353 . S
C96 H154 0.930 . S
C97 N93 1.279 . S
C97 C95 1.358 . S
C97 H155 0.930 . S
C98 C101 1.348 . S
C98 C102 1.356 . S
C98 O149 1.325 . S
C99 N100 1.279 . S
C99 C102 1.358 . S
C99 H156 0.930 . S
N100 C99 1.279 . S
N100 C103 1.314 . S
C101 C98 1.348 . S
C101 C103 1.353 . S
C101 H157 0.929 . S
C102 C98 1.356 . S
C102 C99 1.358 . S
C102 H158 0.930 . S
C103 N100 1.314 . S
C103 C101 1.353 . S
C103 H159 0.930 . S
C104 N105 1.314 . S
C104 C109 1.353 . S
C104 H110 0.930 . S
N105 Li88 1.990 . S
N105 C104 1.314 . S
N105 C107 1.279 . S
C106 C107 1.358 . S
C106 C108 1.356 . S
C106 H160 0.930 . S
C107 N105 1.279 . S
C107 C106 1.358 . S
C107 H111 0.930 . S
C108 C106 1.356 . S
C108 C109 1.348 . S
C109 C104 1.353 . S
C109 C108 1.348 . S
C109 H161 0.915 1_554 S
H110 C104 0.930 . S
H111 C107 0.930 . S
C112 N113 1.314 . S
C112 C114 1.353 . S
C112 H118 0.930 . S
N113 Li89 1.990 . S
N113 C112 1.314 . S
N113 C116 1.279 . S
C114 C112 1.353 . S
C114 C117 1.348 . S
C114 H162 0.929 . S
C115 C116 1.358 . S
C115 C117 1.356 . S
C115 H163 0.930 . S
C116 N113 1.279 . S
C116 C115 1.358 . S
C116 H119 0.930 . S
C117 C114 1.348 . S
C117 C115 1.356 . S
H118 C112 0.930 . S
H119 C116 0.930 . S
C120 C122 1.348 . S
C120 C123 1.356 . S
C120 O150 1.325 . S
N121 C124 1.314 . S
N121 C125 1.279 . S
C122 C120 1.348 . S
C122 C124 1.353 1_554 S
C122 H164 0.929 . S
C123 C120 1.356 . S
C123 C125 1.358 1_554 S
C123 H165 0.930 . S
C124 N121 1.314 . S
C124 C122 1.353 1_556 S
C124 H166 0.930 . S
C125 N121 1.279 . S
C125 C123 1.358 1_556 S
C125 H167 0.930 . S
C126 C127 1.348 . S
C126 C128 1.356 . S
C126 O151 1.325 . S
C127 C126 1.348 . S
C127 C129 1.353 . S
C127 H168 0.929 . S
C128 C126 1.356 . S
C128 C130 1.358 . S
C128 H169 0.930 . S
C129 C127 1.353 . S
C129 N131 1.314 . S
C129 H170 0.930 . S
C130 C128 1.358 . S
C130 N131 1.279 . S
C130 H171 0.930 . S
N131 C129 1.314 . S
N131 C130 1.279 . S
C132 C134 1.353 . S
C132 N135 1.314 . S
C132 H138 0.930 . S
C133 N135 1.279 . S
C133 C136 1.358 . S
C133 H139 0.930 . S
C134 C132 1.353 . S
C134 C137 1.348 . S
C134 H172 0.929 . S
N135 Li90 1.990 . S
N135 C132 1.314 . S
N135 C133 1.279 . S
C136 C133 1.358 . S
C136 C137 1.356 . S
C136 H173 0.930 . S
C137 C134 1.348 . S
C137 C136 1.356 . S
H138 C132 0.930 . S
H139 C133 0.930 . S
C140 N141 1.314 . S
C140 C142 1.353 . S
C140 H146 0.930 . S
N141 Li91 1.990 . S
N141 C140 1.314 . S
N141 C144 1.279 . S
C142 C140 1.353 . S
C142 C145 1.348 . S
C142 H174 0.929 . S
C143 C144 1.358 . S
C143 C145 1.356 . S
C143 H175 0.930 . S
C144 N141 1.279 . S
C144 C143 1.358 . S
C144 H147 0.930 . S
C145 C142 1.348 . S
C145 C143 1.356 . S
H146 C140 0.930 . S
H147 C144 0.930 . S
O148 Li88 1.956 . S
O148 Li89 1.970 . S
O148 Li90 1.961 . S
O148 C92 1.325 . S
O149 Li88 1.970 . S
O149 Li89 1.956 . S
O149 Li91 1.961 . S
O149 C98 1.325 . S
O150 Li88 1.961 . S
O150 Li90 1.956 . S
O150 Li91 1.970 . S
O150 C120 1.325 . S
O151 Li89 1.961 . S
O151 Li90 1.970 . S
O151 Li91 1.956 . S
O151 C126 1.325 . S
H152 C94 0.929 . S
H153 C95 0.930 . S
H154 C96 0.930 . S
H155 C97 0.930 . S
H156 C99 0.930 . S
H157 C101 0.929 . S
H158 C102 0.930 . S
H159 C103 0.930 . S
H160 C106 0.930 . S
H161 C109 0.915 1_556 S
H162 C114 0.929 . S
H163 C115 0.930 . S
H164 C122 0.929 . S
H165 C123 0.930 . S
H166 C124 0.930 . S
H167 C125 0.930 . S
H168 C127 0.929 . S
H169 C128 0.930 . S
H170 C129 0.930 . S
H171 C130 0.930 . S
H172 C134 0.929 . S
H173 C136 0.930 . S
H174 C142 0.929 . S
H175 C143 0.930 . S
Li176 N193 1.990 . S
Li176 O236 1.956 . S
Li176 O237 1.970 . S
Li176 O238 1.961 . S
Li177 N201 1.990 . S
Li177 O236 1.970 . S
Li177 O237 1.956 . S
Li177 O239 1.961 . S
Li178 N223 1.990 . S
Li178 O236 1.961 . S
Li178 O238 1.956 . S
Li178 O239 1.970 . S
Li179 N229 1.990 . S
Li179 O237 1.961 . S
Li179 O238 1.970 . S
Li179 O239 1.956 . S
C180 C182 1.348 . S
C180 C183 1.356 . S
C180 O236 1.325 . S
N181 C184 1.314 . S
N181 C185 1.279 . S
C182 C180 1.348 . S
C182 C184 1.353 . S
C182 H240 0.929 . S
C183 C180 1.356 . S
C183 C185 1.358 . S
C183 H241 0.930 . S
C184 N181 1.314 . S
C184 C182 1.353 . S
C184 H242 0.930 . S
C185 N181 1.279 . S
C185 C183 1.358 . S
C185 H243 0.930 . S
C186 C189 1.348 . S
C186 C190 1.356 . S
C186 O237 1.325 . S
C187 N188 1.279 . S
C187 C190 1.358 . S
C187 H244 0.930 . S
N188 C187 1.279 . S
N188 C191 1.314 . S
C189 C186 1.348 . S
C189 C191 1.353 . S
C189 H245 0.929 . S
C190 C186 1.356 . S
C190 C187 1.358 . S
C190 H246 0.930 . S
C191 N188 1.314 . S
C191 C189 1.353 . S
C191 H247 0.930 . S
C192 N193 1.314 . S
C192 C197 1.353 . S
C192 H198 0.930 . S
N193 Li176 1.990 . S
N193 C192 1.314 . S
N193 C195 1.279 . S
C194 C195 1.358 . S
C194 C196 1.356 . S
C194 H248 0.930 . S
C195 N193 1.279 . S
C195 C194 1.358 . S
C195 H199 0.930 . S
C196 C194 1.356 . S
C196 C197 1.348 . S
C197 C192 1.353 . S
C197 C196 1.348 . S
C197 H249 0.929 . S
H198 C192 0.930 . S
H199 C195 0.930 . S
C200 N201 1.314 . S
C200 C202 1.353 . S
C200 H206 0.930 . S
N201 Li177 1.990 . S
N201 C200 1.314 . S
N201 C204 1.279 . S
C202 C200 1.353 . S
C202 C205 1.348 . S
C202 H250 0.929 . S
C203 C204 1.358 . S
C203 C205 1.356 . S
C203 H251 0.930 . S
C204 N201 1.279 . S
C204 C203 1.358 . S
C204 H207 0.930 . S
C205 C202 1.348 . S
C205 C203 1.356 . S
H206 C200 0.930 . S
H207 C204 0.930 . S
C208 C210 1.348 . S
C208 C211 1.356 . S
C208 O238 1.325 . S
N209 C212 1.314 . S
N209 C213 1.279 . S
C210 C208 1.348 . S
C210 C212 1.353 . S
C210 H252 0.929 . S
C211 C208 1.356 . S
C211 C213 1.358 . S
C211 H253 0.930 . S
C212 N209 1.314 . S
C212 C210 1.353 . S
C212 H254 0.930 . S
C213 N209 1.279 . S
C213 C211 1.358 . S
C213 H255 0.930 . S
C214 C215 1.348 . S
C214 C216 1.356 . S
C214 O239 1.325 . S
C215 C214 1.348 . S
C215 C217 1.353 . S
C215 H256 0.929 . S
C216 C214 1.356 . S
C216 C218 1.358 . S
C216 H257 0.930 . S
C217 C215 1.353 . S
C217 N219 1.314 . S
C217 H258 0.930 . S
C218 C216 1.358 . S
C218 N219 1.279 . S
C218 H259 0.930 . S
N219 C217 1.314 . S
N219 C218 1.279 . S
C220 C222 1.353 . S
C220 N223 1.314 . S
C220 H226 0.930 . S
C221 N223 1.279 . S
C221 C224 1.358 . S
C221 H227 0.930 . S
C222 C220 1.353 . S
C222 C225 1.348 . S
C222 H260 0.929 . S
N223 Li178 1.990 . S
N223 C220 1.314 . S
N223 C221 1.279 . S
C224 C221 1.358 . S
C224 C225 1.356 . S
C224 H261 0.930 . S
C225 C222 1.348 . S
C225 C224 1.356 . S
H226 C220 0.930 . S
H227 C221 0.930 . S
C228 N229 1.314 . S
C228 C230 1.353 . S
C228 H234 0.930 . S
N229 Li179 1.990 . S
N229 C228 1.314 . S
N229 C232 1.279 . S
C230 C228 1.353 . S
C230 C233 1.348 . S
C230 H262 0.929 . S
C231 C232 1.358 . S
C231 C233 1.356 . S
C231 H263 0.930 . S
C232 N229 1.279 . S
C232 C231 1.358 . S
C232 H235 0.930 . S
C233 C230 1.348 . S
C233 C231 1.356 . S
H234 C228 0.930 . S
H235 C232 0.930 . S
O236 Li176 1.956 . S
O236 Li177 1.970 . S
O236 Li178 1.961 . S
O236 C180 1.325 . S
O237 Li176 1.970 . S
O237 Li177 1.956 . S
O237 Li179 1.961 . S
O237 C186 1.325 . S
O238 Li176 1.961 . S
O238 Li178 1.956 . S
O238 Li179 1.970 . S
O238 C208 1.325 . S
O239 Li177 1.961 . S
O239 Li178 1.970 . S
O239 Li179 1.956 . S
O239 C214 1.325 . S
H240 C182 0.929 . S
H241 C183 0.930 . S
H242 C184 0.930 . S
H243 C185 0.930 . S
H244 C187 0.930 . S
H245 C189 0.929 . S
H246 C190 0.930 . S
H247 C191 0.930 . S
H248 C194 0.930 . S
H249 C197 0.929 . S
H250 C202 0.929 . S
H251 C203 0.930 . S
H252 C210 0.929 . S
H253 C211 0.930 . S
H254 C212 0.930 . S
H255 C213 0.930 . S
H256 C215 0.929 . S
H257 C216 0.930 . S
H258 C217 0.930 . S
H259 C218 0.930 . S
H260 C222 0.929 . S
H261 C224 0.930 . S
H262 C230 0.929 . S
H263 C231 0.930 . S
Li264 N281 1.990 . S
Li264 O324 1.956 . S
Li264 O325 1.970 . S
Li264 O326 1.961 . S
Li265 N289 1.990 . S
Li265 O324 1.970 . S
Li265 O325 1.956 . S
Li265 O327 1.961 . S
Li266 N311 1.990 . S
Li266 O324 1.961 . S
Li266 O326 1.956 . S
Li266 O327 1.970 . S
Li267 N317 1.990 . S
Li267 O325 1.961 . S
Li267 O326 1.970 . S
Li267 O327 1.956 . S
C268 C270 1.348 . S
C268 C271 1.356 . S
C268 O324 1.325 . S
N269 C272 1.314 . S
N269 C273 1.279 . S
C270 C268 1.348 . S
C270 C272 1.353 . S
C270 H328 0.929 . S
C271 C268 1.356 . S
C271 C273 1.358 . S
C271 H329 0.930 . S
C272 N269 1.314 . S
C272 C270 1.353 . S
C272 H330 0.930 . S
C273 N269 1.279 . S
C273 C271 1.358 . S
C273 H331 0.930 . S
C274 C277 1.348 . S
C274 C278 1.356 . S
C274 O325 1.325 . S
C275 N276 1.279 . S
C275 C278 1.358 . S
C275 H332 0.930 . S
N276 C275 1.279 . S
N276 C279 1.314 . S
C277 C274 1.348 . S
C277 C279 1.353 . S
C277 H333 0.929 . S
C278 C274 1.356 . S
C278 C275 1.358 . S
C278 H334 0.930 . S
C279 N276 1.314 . S
C279 C277 1.353 . S
C279 H335 0.930 . S
C280 N281 1.314 . S
C280 C285 1.353 . S
C280 H286 0.930 . S
N281 Li264 1.990 . S
N281 C280 1.314 . S
N281 C283 1.279 . S
C282 C283 1.358 . S
C282 C284 1.356 . S
C282 H336 0.930 . S
C283 N281 1.279 . S
C283 C282 1.358 . S
C283 H287 0.930 . S
C284 C282 1.356 . S
C284 C285 1.348 . S
C285 C280 1.353 . S
C285 C284 1.348 . S
C285 H337 0.929 . S
H286 C280 0.930 . S
H287 C283 0.930 . S
C288 N289 1.314 . S
C288 C290 1.353 . S
C288 H294 0.930 . S
N289 Li265 1.990 . S
N289 C288 1.314 . S
N289 C292 1.279 . S
C290 C288 1.353 . S
C290 C293 1.348 . S
C290 H338 0.929 . S
C291 C292 1.358 . S
C291 C293 1.356 . S
C291 H339 0.930 . S
C292 N289 1.279 . S
C292 C291 1.358 . S
C292 H295 0.930 . S
C293 C290 1.348 . S
C293 C291 1.356 . S
H294 C288 0.930 . S
H295 C292 0.930 . S
C296 C298 1.348 . S
C296 C299 1.356 . S
C296 O326 1.325 . S
N297 C300 1.314 . S
N297 C301 1.279 . S
C298 C296 1.348 . S
C298 C300 1.353 . S
C298 H340 0.929 . S
C299 C296 1.356 . S
C299 C301 1.358 . S
C299 H341 0.930 . S
C300 N297 1.314 . S
C300 C298 1.353 . S
C300 H342 0.930 . S
C301 N297 1.279 . S
C301 C299 1.358 . S
C301 H343 0.930 . S
C302 C303 1.348 . S
C302 C304 1.356 . S
C302 O327 1.325 . S
C303 C302 1.348 . S
C303 C305 1.353 . S
C303 H344 0.929 . S
C304 C302 1.356 . S
C304 C306 1.358 . S
C304 H345 0.930 . S
C305 C303 1.353 . S
C305 N307 1.314 . S
C305 H346 0.930 . S
C306 C304 1.358 . S
C306 N307 1.279 . S
C306 H347 0.930 . S
N307 C305 1.314 . S
N307 C306 1.279 . S
C308 C310 1.353 . S
C308 N311 1.314 . S
C308 H314 0.930 . S
C309 N311 1.279 . S
C309 C312 1.358 . S
C309 H315 0.930 . S
C310 C308 1.353 . S
C310 C313 1.348 . S
C310 H348 0.929 . S
N311 Li266 1.990 . S
N311 C308 1.314 . S
N311 C309 1.279 . S
C312 C309 1.358 . S
C312 C313 1.356 . S
C312 H349 0.930 . S
C313 C310 1.348 . S
C313 C312 1.356 . S
H314 C308 0.930 . S
H315 C309 0.930 . S
C316 N317 1.314 . S
C316 C318 1.353 . S
C316 H322 0.930 . S
N317 Li267 1.990 . S
N317 C316 1.314 . S
N317 C320 1.279 . S
C318 C316 1.353 . S
C318 C321 1.348 . S
C318 H350 0.929 . S
C319 C320 1.358 . S
C319 C321 1.356 . S
C319 H351 0.930 . S
C320 N317 1.279 . S
C320 C319 1.358 . S
C320 H323 0.930 . S
C321 C318 1.348 . S
C321 C319 1.356 . S
H322 C316 0.930 . S
H323 C320 0.930 . S
O324 Li264 1.956 . S
O324 Li265 1.970 . S
O324 Li266 1.961 . S
O324 C268 1.325 . S
O325 Li264 1.970 . S
O325 Li265 1.956 . S
O325 Li267 1.961 . S
O325 C274 1.325 . S
O326 Li264 1.961 . S
O326 Li266 1.956 . S
O326 Li267 1.970 . S
O326 C296 1.325 . S
O327 Li265 1.961 . S
O327 Li266 1.970 . S
O327 Li267 1.956 . S
O327 C302 1.325 . S
H328 C270 0.929 . S
H329 C271 0.930 . S
H330 C272 0.930 . S
H331 C273 0.930 . S
H332 C275 0.930 . S
H333 C277 0.929 . S
H334 C278 0.930 . S
H335 C279 0.930 . S
H336 C282 0.930 . S
H337 C285 0.929 . S
H338 C290 0.929 . S
H339 C291 0.930 . S
H340 C298 0.929 . S
H341 C299 0.930 . S
H342 C300 0.930 . S
H343 C301 0.930 . S
H344 C303 0.929 . S
H345 C304 0.930 . S
H346 C305 0.930 . S
H347 C306 0.930 . S
H348 C310 0.929 . S
H349 C312 0.930 . S
H350 C318 0.929 . S
H351 C319 0.930 . S
Li352 N369 1.990 . S
Li352 O412 1.956 . S
Li352 O413 1.970 . S
Li352 O414 1.961 . S
Li353 N377 1.990 . S
Li353 O412 1.970 . S
Li353 O413 1.956 . S
Li353 O415 1.961 . S
Li354 N399 1.990 . S
Li354 O412 1.961 . S
Li354 O414 1.956 . S
Li354 O415 1.970 . S
Li355 N405 1.990 . S
Li355 O413 1.961 . S
Li355 O414 1.970 . S
Li355 O415 1.956 . S
C356 C358 1.348 . S
C356 C359 1.356 . S
C356 O412 1.325 . S
N357 C360 1.314 . S
N357 C361 1.279 . S
C358 C356 1.348 . S
C358 C360 1.353 1_556 S
C358 H416 0.929 . S
C359 C356 1.356 . S
C359 C361 1.358 1_556 S
C359 H417 0.930 . S
C360 N357 1.314 . S
C360 C358 1.353 1_554 S
C360 H418 0.930 . S
C361 N357 1.279 . S
C361 C359 1.358 1_554 S
C361 H419 0.930 . S
C362 C365 1.348 . S
C362 C366 1.356 . S
C362 O413 1.325 . S
C363 N364 1.279 . S
C363 C366 1.358 . S
C363 H420 0.930 . S
N364 C363 1.279 . S
N364 C367 1.314 . S
C365 C362 1.348 . S
C365 C367 1.353 . S
C365 H421 0.929 . S
C366 C362 1.356 . S
C366 C363 1.358 . S
C366 H422 0.930 . S
C367 N364 1.314 . S
C367 C365 1.353 . S
C367 H423 0.930 . S
C368 N369 1.314 . S
C368 C373 1.353 . S
C368 H374 0.930 . S
N369 Li352 1.990 . S
N369 C368 1.314 . S
N369 C371 1.279 . S
C370 C371 1.358 . S
C370 C372 1.356 . S
C370 H424 0.930 1_556 S
C371 N369 1.279 . S
C371 C370 1.358 . S
C371 H375 0.930 . S
C372 C370 1.356 . S
C372 C373 1.348 . S
C373 C368 1.353 . S
C373 C372 1.348 . S
C373 H425 0.929 . S
H374 C368 0.930 . S
H375 C371 0.930 . S
C376 N377 1.314 . S
C376 C378 1.353 . S
C376 H382 0.930 . S
N377 Li353 1.990 . S
N377 C376 1.314 . S
N377 C380 1.279 . S
C378 C376 1.353 . S
C378 C381 1.348 . S
C378 H426 0.929 . S
C379 C380 1.358 . S
C379 C381 1.356 . S
C379 H427 0.930 . S
C380 N377 1.279 . S
C380 C379 1.358 . S
C380 H383 0.930 . S
C381 C378 1.348 . S
C381 C379 1.356 . S
H382 C376 0.930 . S
H383 C380 0.930 . S
C384 C386 1.348 . S
C384 C387 1.356 . S
C384 O414 1.325 . S
N385 C388 1.314 . S
N385 C389 1.279 . S
C386 C384 1.348 . S
C386 C388 1.353 . S
C386 H428 0.929 . S
C387 C384 1.356 . S
C387 C389 1.358 . S
C387 H429 0.930 . S
C388 N385 1.314 . S
C388 C386 1.353 . S
C388 H430 0.930 . S
C389 N385 1.279 . S
C389 C387 1.358 . S
C389 H431 0.930 . S
C390 C391 1.348 . S
C390 C392 1.356 . S
C390 O415 1.325 . S
C391 C390 1.348 . S
C391 C393 1.353 . S
C391 H432 0.929 . S
C392 C390 1.356 . S
C392 C394 1.358 . S
C392 H433 0.930 . S
C393 C391 1.353 . S
C393 N395 1.314 . S
C393 H434 0.930 . S
C394 C392 1.358 . S
C394 N395 1.279 . S
C394 H435 0.930 . S
N395 C393 1.314 . S
N395 C394 1.279 . S
C396 C398 1.353 . S
C396 N399 1.314 . S
C396 H402 0.930 . S
C397 N399 1.279 . S
C397 C400 1.358 . S
C397 H403 0.930 . S
C398 C396 1.353 . S
C398 C401 1.348 . S
C398 H436 0.929 . S
N399 Li354 1.990 . S
N399 C396 1.314 . S
N399 C397 1.279 . S
C400 C397 1.358 . S
C400 C401 1.356 . S
C400 H437 0.930 . S
C401 C398 1.348 . S
C401 C400 1.356 . S
H402 C396 0.930 . S
H403 C397 0.930 . S
C404 N405 1.314 . S
C404 C406 1.353 . S
C404 H410 0.930 . S
N405 Li355 1.990 . S
N405 C404 1.314 . S
N405 C408 1.279 . S
C406 C404 1.353 . S
C406 C409 1.348 . S
C406 H438 0.929 . S
C407 C408 1.358 . S
C407 C409 1.356 . S
C407 H439 0.930 . S
C408 N405 1.279 . S
C408 C407 1.358 . S
C408 H411 0.930 . S
C409 C406 1.348 . S
C409 C407 1.356 . S
H410 C404 0.930 . S
H411 C408 0.930 . S
O412 Li352 1.956 . S
O412 Li353 1.970 . S
O412 Li354 1.961 . S
O412 C356 1.325 . S
O413 Li352 1.970 . S
O413 Li353 1.956 . S
O413 Li355 1.961 . S
O413 C362 1.325 . S
O414 Li352 1.961 . S
O414 Li354 1.956 . S
O414 Li355 1.970 . S
O414 C384 1.325 . S
O415 Li353 1.961 . S
O415 Li354 1.970 . S
O415 Li355 1.956 . S
O415 C390 1.325 . S
H416 C358 0.929 . S
H417 C359 0.930 . S
H418 C360 0.930 . S
H419 C361 0.930 . S
H420 C363 0.930 . S
H421 C365 0.929 . S
H422 C366 0.930 . S
H423 C367 0.930 . S
H424 C370 0.930 1_554 S
H425 C373 0.929 . S
H426 C378 0.929 . S
H427 C379 0.930 . S
H428 C386 0.929 . S
H429 C387 0.930 . S
H430 C388 0.930 . S
H431 C389 0.930 . S
H432 C391 0.929 . S
H433 C392 0.930 . S
H434 C393 0.930 . S
H435 C394 0.930 . S
H436 C398 0.929 . S
H437 C400 0.930 . S
H438 C406 0.929 . S
H439 C407 0.930 . S
Li440 N457 1.990 . S
Li440 O500 1.956 . S
Li440 O501 1.970 . S
Li440 O502 1.961 . S
Li441 N465 1.990 . S
Li441 O500 1.970 . S
Li441 O501 1.956 . S
Li441 O503 1.961 . S
Li442 N487 1.990 . S
Li442 O500 1.961 . S
Li442 O502 1.956 . S
Li442 O503 1.970 . S
Li443 N493 1.990 . S
Li443 O501 1.961 . S
Li443 O502 1.970 . S
Li443 O503 1.956 . S
C444 C446 1.348 . S
C444 C447 1.356 . S
C444 O500 1.325 . S
N445 C448 1.314 . S
N445 C449 1.279 . S
C446 C444 1.348 . S
C446 C448 1.353 1_556 S
C446 H504 0.929 . S
C447 C444 1.356 . S
C447 C449 1.358 1_556 S
C447 H505 0.930 . S
C448 N445 1.314 . S
C448 C446 1.353 1_554 S
C448 H506 0.930 . S
C449 N445 1.279 . S
C449 C447 1.358 1_554 S
C449 H507 0.930 . S
C450 C453 1.348 . S
C450 C454 1.356 . S
C450 O501 1.325 . S
C451 N452 1.279 . S
C451 C454 1.358 . S
C451 H508 0.930 . S
N452 C451 1.279 . S
N452 C455 1.314 . S
C453 C450 1.348 . S
C453 C455 1.353 . S
C453 H509 0.929 . S
C454 C450 1.356 . S
C454 C451 1.358 . S
C454 H510 0.930 . S
C455 N452 1.314 . S
C455 C453 1.353 . S
C455 H511 0.930 . S
C456 N457 1.314 . S
C456 C461 1.353 . S
C456 H462 0.930 . S
N457 Li440 1.990 . S
N457 C456 1.314 . S
N457 C459 1.279 . S
C458 C459 1.358 . S
C458 C460 1.356 . S
C458 H512 0.930 1_556 S
C459 N457 1.279 . S
C459 C458 1.358 . S
C459 H463 0.930 . S
C460 C458 1.356 . S
C460 C461 1.348 . S
C461 C456 1.353 . S
C461 C460 1.348 . S
C461 H513 0.929 . S
H462 C456 0.930 . S
H463 C459 0.930 . S
C464 N465 1.314 . S
C464 C466 1.353 . S
C464 H470 0.930 . S
N465 Li441 1.990 . S
N465 C464 1.314 . S
N465 C468 1.279 . S
C466 C464 1.353 . S
C466 C469 1.348 . S
C466 H514 0.929 . S
C467 C468 1.358 . S
C467 C469 1.356 . S
C467 H515 0.930 . S
C468 N465 1.279 . S
C468 C467 1.358 . S
C468 H471 0.930 . S
C469 C466 1.348 . S
C469 C467 1.356 . S
H470 C464 0.930 . S
H471 C468 0.930 . S
C472 C474 1.348 . S
C472 C475 1.356 . S
C472 O502 1.325 . S
N473 C476 1.314 . S
N473 C477 1.279 . S
C474 C472 1.348 . S
C474 C476 1.353 . S
C474 H516 0.929 . S
C475 C472 1.356 . S
C475 C477 1.358 . S
C475 H517 0.930 . S
C476 N473 1.314 . S
C476 C474 1.353 . S
C476 H518 0.930 . S
C477 N473 1.279 . S
C477 C475 1.358 . S
C477 H519 0.930 . S
C478 C479 1.348 . S
C478 C480 1.356 . S
C478 O503 1.325 . S
C479 C478 1.348 . S
C479 C481 1.353 . S
C479 H520 0.929 . S
C480 C478 1.356 . S
C480 C482 1.358 . S
C480 H521 0.930 . S
C481 C479 1.353 . S
C481 N483 1.314 . S
C481 H522 0.930 . S
C482 C480 1.358 . S
C482 N483 1.279 . S
C482 H523 0.930 . S
N483 C481 1.314 . S
N483 C482 1.279 . S
C484 C486 1.353 . S
C484 N487 1.314 . S
C484 H490 0.930 . S
C485 N487 1.279 . S
C485 C488 1.358 . S
C485 H491 0.930 . S
C486 C484 1.353 . S
C486 C489 1.348 . S
C486 H524 0.929 . S
N487 Li442 1.990 . S
N487 C484 1.314 . S
N487 C485 1.279 . S
C488 C485 1.358 . S
C488 C489 1.356 . S
C488 H525 0.930 . S
C489 C486 1.348 . S
C489 C488 1.356 . S
H490 C484 0.930 . S
H491 C485 0.930 . S
C492 N493 1.314 . S
C492 C494 1.353 . S
C492 H498 0.930 . S
N493 Li443 1.990 . S
N493 C492 1.314 . S
N493 C496 1.279 . S
C494 C492 1.353 . S
C494 C497 1.348 . S
C494 H526 0.929 . S
C495 C496 1.358 . S
C495 C497 1.356 . S
C495 H527 0.930 . S
C496 N493 1.279 . S
C496 C495 1.358 . S
C496 H499 0.930 . S
C497 C494 1.348 . S
C497 C495 1.356 . S
H498 C492 0.930 . S
H499 C496 0.930 . S
O500 Li440 1.956 . S
O500 Li441 1.970 . S
O500 Li442 1.961 . S
O500 C444 1.325 . S
O501 Li440 1.970 . S
O501 Li441 1.956 . S
O501 Li443 1.961 . S
O501 C450 1.325 . S
O502 Li440 1.961 . S
O502 Li442 1.956 . S
O502 Li443 1.970 . S
O502 C472 1.325 . S
O503 Li441 1.961 . S
O503 Li442 1.970 . S
O503 Li443 1.956 . S
O503 C478 1.325 . S
H504 C446 0.929 . S
H505 C447 0.930 . S
H506 C448 0.930 . S
H507 C449 0.930 . S
H508 C451 0.930 . S
H509 C453 0.929 . S
H510 C454 0.930 . S
H511 C455 0.930 . S
H512 C458 0.930 1_554 S
H513 C461 0.929 . S
H514 C466 0.929 . S
H515 C467 0.930 . S
H516 C474 0.929 . S
H517 C475 0.930 . S
H518 C476 0.930 . S
H519 C477 0.930 . S
H520 C479 0.929 . S
H521 C480 0.930 . S
H522 C481 0.930 . S
H523 C482 0.930 . S
H524 C486 0.929 . S
H525 C488 0.930 . S
H526 C494 0.929 . S
H527 C495 0.930 . S
Li528 N545 1.990 . S
Li528 O588 1.956 . S
Li528 O589 1.970 . S
Li528 O590 1.961 . S
Li529 N553 1.990 . S
Li529 O588 1.970 . S
Li529 O589 1.956 . S
Li529 O591 1.961 . S
Li530 N575 1.990 . S
Li530 O588 1.961 . S
Li530 O590 1.956 . S
Li530 O591 1.970 . S
Li531 N581 1.990 . S
Li531 O589 1.961 . S
Li531 O590 1.970 . S
Li531 O591 1.956 . S
C532 C534 1.348 . S
C532 C535 1.356 . S
C532 O588 1.325 . S
N533 C536 1.314 . S
N533 C537 1.279 . S
C534 C532 1.348 . S
C534 C536 1.353 . S
C534 H592 0.929 . S
C535 C532 1.356 . S
C535 C537 1.358 . S
C535 H593 0.930 . S
C536 N533 1.314 . S
C536 C534 1.353 . S
C536 H594 0.930 . S
C537 N533 1.279 . S
C537 C535 1.358 . S
C537 H595 0.930 . S
C538 C541 1.348 . S
C538 C542 1.356 . S
C538 O589 1.325 . S
C539 N540 1.279 . S
C539 C542 1.358 . S
C539 H596 0.930 . S
N540 C539 1.279 . S
N540 C543 1.314 . S
C541 C538 1.348 . S
C541 C543 1.353 . S
C541 H597 0.929 . S
C542 C538 1.356 . S
C542 C539 1.358 . S
C542 H598 0.930 . S
C543 N540 1.314 . S
C543 C541 1.353 . S
C543 H599 0.930 . S
C544 N545 1.314 . S
C544 C549 1.353 . S
C544 H550 0.930 . S
N545 Li528 1.990 . S
N545 C544 1.314 . S
N545 C547 1.279 . S
C546 C547 1.358 . S
C546 C548 1.356 . S
C546 H600 0.930 . S
C547 N545 1.279 . S
C547 C546 1.358 . S
C547 H551 0.930 . S
C548 C546 1.356 . S
C548 C549 1.348 . S
C549 C544 1.353 . S
C549 C548 1.348 . S
C549 H601 0.929 . S
H550 C544 0.930 . S
H551 C547 0.930 . S
C552 N553 1.314 . S
C552 C554 1.353 . S
C552 H558 0.930 . S
N553 Li529 1.990 . S
N553 C552 1.314 . S
N553 C556 1.279 . S
C554 C552 1.353 . S
C554 C557 1.348 . S
C554 H602 0.929 . S
C555 C556 1.358 . S
C555 C557 1.356 . S
C555 H603 0.930 . S
C556 N553 1.279 . S
C556 C555 1.358 . S
C556 H559 0.930 . S
C557 C554 1.348 . S
C557 C555 1.356 . S
H558 C552 0.930 . S
H559 C556 0.930 . S
C560 C562 1.348 . S
C560 C563 1.356 . S
C560 O590 1.325 . S
N561 C564 1.314 . S
N561 C565 1.279 . S
C562 C560 1.348 . S
C562 C564 1.353 . S
C562 H604 0.929 . S
C563 C560 1.356 . S
C563 C565 1.358 . S
C563 H605 0.930 . S
C564 N561 1.314 . S
C564 C562 1.353 . S
C564 H606 0.930 . S
C565 N561 1.279 . S
C565 C563 1.358 . S
C565 H607 0.930 . S
C566 C567 1.348 . S
C566 C568 1.356 . S
C566 O591 1.325 . S
C567 C566 1.348 . S
C567 C569 1.353 . S
C567 H608 0.929 . S
C568 C566 1.356 . S
C568 C570 1.358 . S
C568 H609 0.930 . S
C569 C567 1.353 . S
C569 N571 1.314 . S
C569 H610 0.930 . S
C570 C568 1.358 . S
C570 N571 1.279 . S
C570 H611 0.930 . S
N571 C569 1.314 . S
N571 C570 1.279 . S
C572 C574 1.353 . S
C572 N575 1.314 . S
C572 H578 0.930 . S
C573 N575 1.279 . S
C573 C576 1.358 . S
C573 H579 0.930 . S
C574 C572 1.353 . S
C574 C577 1.348 . S
C574 H612 0.929 . S
N575 Li530 1.990 . S
N575 C572 1.314 . S
N575 C573 1.279 . S
C576 C573 1.358 . S
C576 C577 1.356 . S
C576 H613 0.930 . S
C577 C574 1.348 . S
C577 C576 1.356 . S
H578 C572 0.930 . S
H579 C573 0.930 . S
C580 N581 1.314 . S
C580 C582 1.353 . S
C580 H586 0.930 . S
N581 Li531 1.990 . S
N581 C580 1.314 . S
N581 C584 1.279 . S
C582 C580 1.353 . S
C582 C585 1.348 . S
C582 H614 0.929 . S
C583 C584 1.358 . S
C583 C585 1.356 . S
C583 H615 0.930 . S
C584 N581 1.279 . S
C584 C583 1.358 . S
C584 H587 0.930 . S
C585 C582 1.348 . S
C585 C583 1.356 . S
H586 C580 0.930 . S
H587 C584 0.930 . S
O588 Li528 1.956 . S
O588 Li529 1.970 . S
O588 Li530 1.961 . S
O588 C532 1.325 . S
O589 Li528 1.970 . S
O589 Li529 1.956 . S
O589 Li531 1.961 . S
O589 C538 1.325 . S
O590 Li528 1.961 . S
O590 Li530 1.956 . S
O590 Li531 1.970 . S
O590 C560 1.325 . S
O591 Li529 1.961 . S
O591 Li530 1.970 . S
O591 Li531 1.956 . S
O591 C566 1.325 . S
H592 C534 0.929 . S
H593 C535 0.930 . S
H594 C536 0.930 . S
H595 C537 0.930 . S
H596 C539 0.930 . S
H597 C541 0.929 . S
H598 C542 0.930 . S
H599 C543 0.930 . S
H600 C546 0.930 . S
H601 C549 0.929 . S
H602 C554 0.929 . S
H603 C555 0.930 . S
H604 C562 0.929 . S
H605 C563 0.930 . S
H606 C564 0.930 . S
H607 C565 0.930 . S
H608 C567 0.929 . S
H609 C568 0.930 . S
H610 C569 0.930 . S
H611 C570 0.930 . S
H612 C574 0.929 . S
H613 C576 0.930 . S
H614 C582 0.929 . S
H615 C583 0.930 . S
Li616 N633 1.990 . S
Li616 O676 1.956 . S
Li616 O677 1.970 . S
Li616 O678 1.961 . S
Li617 N641 1.990 . S
Li617 O676 1.970 . S
Li617 O677 1.956 . S
Li617 O679 1.961 . S
Li618 N663 1.990 . S
Li618 O676 1.961 . S
Li618 O678 1.956 . S
Li618 O679 1.970 . S
Li619 N669 1.990 . S
Li619 O677 1.961 . S
Li619 O678 1.970 . S
Li619 O679 1.956 . S
C620 C622 1.348 . S
C620 C623 1.356 . S
C620 O676 1.325 . S
N621 C624 1.314 . S
N621 C625 1.279 . S
C622 C620 1.348 . S
C622 C624 1.353 . S
C622 H680 0.929 . S
C623 C620 1.356 . S
C623 C625 1.358 . S
C623 H681 0.930 . S
C624 N621 1.314 . S
C624 C622 1.353 . S
C624 H682 0.930 . S
C625 N621 1.279 . S
C625 C623 1.358 . S
C625 H683 0.930 . S
C626 C629 1.348 . S
C626 C630 1.356 . S
C626 O677 1.325 . S
C627 N628 1.279 . S
C627 C630 1.358 . S
C627 H684 0.930 . S
N628 C627 1.279 . S
N628 C631 1.314 . S
C629 C626 1.348 . S
C629 C631 1.353 . S
C629 H685 0.929 . S
C630 C626 1.356 . S
C630 C627 1.358 . S
C630 H686 0.930 . S
C631 N628 1.314 . S
C631 C629 1.353 . S
C631 H687 0.930 . S
C632 N633 1.314 . S
C632 C637 1.353 . S
C632 H638 0.930 . S
N633 Li616 1.990 . S
N633 C632 1.314 . S
N633 C635 1.279 . S
C634 C635 1.358 . S
C634 C636 1.356 . S
C634 H688 0.930 . S
C635 N633 1.279 . S
C635 C634 1.358 . S
C635 H639 0.930 . S
C636 C634 1.356 . S
C636 C637 1.348 . S
C637 C632 1.353 . S
C637 C636 1.348 . S
C637 H689 0.929 . S
H638 C632 0.930 . S
H639 C635 0.930 . S
C640 N641 1.314 . S
C640 C642 1.353 . S
C640 H646 0.930 . S
N641 Li617 1.990 . S
N641 C640 1.314 . S
N641 C644 1.279 . S
C642 C640 1.353 . S
C642 C645 1.348 . S
C642 H690 0.929 . S
C643 C644 1.358 . S
C643 C645 1.356 . S
C643 H691 0.930 . S
C644 N641 1.279 . S
C644 C643 1.358 . S
C644 H647 0.930 . S
C645 C642 1.348 . S
C645 C643 1.356 . S
H646 C640 0.930 . S
H647 C644 0.930 . S
C648 C650 1.348 . S
C648 C651 1.356 . S
C648 O678 1.325 . S
N649 C652 1.314 . S
N649 C653 1.279 . S
C650 C648 1.348 . S
C650 C652 1.353 . S
C650 H692 0.929 . S
C651 C648 1.356 . S
C651 C653 1.358 . S
C651 H693 0.930 . S
C652 N649 1.314 . S
C652 C650 1.353 . S
C652 H694 0.930 . S
C653 N649 1.279 . S
C653 C651 1.358 . S
C653 H695 0.930 . S
C654 C655 1.348 . S
C654 C656 1.356 . S
C654 O679 1.325 . S
C655 C654 1.348 . S
C655 C657 1.353 . S
C655 H696 0.929 . S
C656 C654 1.356 . S
C656 C658 1.358 . S
C656 H697 0.930 . S
C657 C655 1.353 . S
C657 N659 1.314 . S
C657 H698 0.930 . S
C658 C656 1.358 . S
C658 N659 1.279 . S
C658 H699 0.930 . S
N659 C657 1.314 . S
N659 C658 1.279 . S
C660 C662 1.353 . S
C660 N663 1.314 . S
C660 H666 0.930 . S
C661 N663 1.279 . S
C661 C664 1.358 . S
C661 H667 0.930 . S
C662 C660 1.353 . S
C662 C665 1.348 . S
C662 H700 0.929 . S
N663 Li618 1.990 . S
N663 C660 1.314 . S
N663 C661 1.279 . S
C664 C661 1.358 . S
C664 C665 1.356 . S
C664 H701 0.930 . S
C665 C662 1.348 . S
C665 C664 1.356 . S
H666 C660 0.930 . S
H667 C661 0.930 . S
C668 N669 1.314 . S
C668 C670 1.353 . S
C668 H674 0.930 . S
N669 Li619 1.990 . S
N669 C668 1.314 . S
N669 C672 1.279 . S
C670 C668 1.353 . S
C670 C673 1.348 . S
C670 H702 0.929 . S
C671 C672 1.358 . S
C671 C673 1.356 . S
C671 H703 0.930 . S
C672 N669 1.279 . S
C672 C671 1.358 . S
C672 H675 0.930 . S
C673 C670 1.348 . S
C673 C671 1.356 . S
H674 C668 0.930 . S
H675 C672 0.930 . S
O676 Li616 1.956 . S
O676 Li617 1.970 . S
O676 Li618 1.961 . S
O676 C620 1.325 . S
O677 Li616 1.970 . S
O677 Li617 1.956 . S
O677 Li619 1.961 . S
O677 C626 1.325 . S
O678 Li616 1.961 . S
O678 Li618 1.956 . S
O678 Li619 1.970 . S
O678 C648 1.325 . S
O679 Li617 1.961 . S
O679 Li618 1.970 . S
O679 Li619 1.956 . S
O679 C654 1.325 . S
H680 C622 0.929 . S
H681 C623 0.930 . S
H682 C624 0.930 . S
H683 C625 0.930 . S
H684 C627 0.930 . S
H685 C629 0.929 . S
H686 C630 0.930 . S
H687 C631 0.930 . S
H688 C634 0.930 . S
H689 C637 0.929 . S
H690 C642 0.929 . S
H691 C643 0.930 . S
H692 C650 0.929 . S
H693 C651 0.930 . S
H694 C652 0.930 . S
H695 C653 0.930 . S
H696 C655 0.929 . S
H697 C656 0.930 . S
H698 C657 0.930 . S
H699 C658 0.930 . S
H700 C662 0.929 . S
H701 C664 0.930 . S
H702 C670 0.929 . S
H703 C671 0.930 . S
H704 C710 0.920 1_565 S
H705 C714 0.920 1_545 S
H706 C719 0.929 . S
H707 C717 0.929 . S
H708 C712 0.929 . S
H709 C718 0.929 . S
C710 H704 0.920 1_545 S
C710 C711 1.386 . S
C710 C718 1.370 1_545 S
C711 C710 1.386 . S
C711 C719 1.433 . S
C712 H708 0.929 . S
C712 C714 1.370 1_545 S
C712 C716 1.350 1_545 S
C713 C716 1.463 1_545 S
C713 C718 1.350 1_545 S
C713 N721 1.427 . S
C714 H705 0.920 1_565 S
C714 C712 1.370 1_565 S
C714 C715 1.386 . S
C715 C714 1.386 . S
C715 C717 1.433 . S
C716 C712 1.350 1_565 S
C716 C713 1.463 1_565 S
C716 N720 1.427 . S
C717 H707 0.929 . S
C717 C715 1.433 . S
C717 N720 1.384 . S
C718 H709 0.929 . S
C718 C710 1.370 1_565 S
C718 C713 1.350 1_565 S
C719 H706 0.929 . S
C719 C711 1.433 . S
C719 N721 1.384 . S
N720 C716 1.427 . S
N720 C717 1.384 . S
N721 C713 1.427 . S
N721 C719 1.384 . S
H722 C728 0.930 . S
H723 C732 0.930 . S
H724 C737 0.929 . S
H725 C735 0.929 . S
H726 C730 0.929 . S
H727 C736 0.929 . S
C728 H722 0.930 . S
C728 C729 1.367 . S
C728 C736 1.378 . S
C729 C728 1.367 . S
C729 C737 1.433 . S
C730 H726 0.929 . S
C730 C732 1.378 . S
C730 C734 1.350 . S
C731 C734 1.463 . S
C731 C736 1.350 . S
C731 N739 1.427 . S
C732 H723 0.930 . S
C732 C730 1.378 . S
C732 C733 1.367 . S
C733 C732 1.367 . S
C733 C735 1.433 . S
C734 C730 1.350 . S
C734 C731 1.463 . S
C734 N738 1.427 . S
C735 H725 0.929 . S
C735 C733 1.433 . S
C735 N738 1.384 . S
C736 H727 0.929 . S
C736 C728 1.378 . S
C736 C731 1.350 . S
C737 H724 0.929 . S
C737 C729 1.433 . S
C737 N739 1.384 . S
N738 C734 1.427 . S
N738 C735 1.384 . S
N739 C731 1.427 . S
N739 C737 1.384 . S
H740 C746 0.930 . S
H741 C750 0.930 . S
H742 C755 0.929 1_545 S
H743 C753 0.929 1_565 S
H744 C748 0.929 . S
H745 C754 0.929 . S
C746 H740 0.930 . S
C746 C747 1.367 . S
C746 C754 1.378 . S
C747 C746 1.367 . S
C747 C755 1.433 . S
C748 H744 0.929 . S
C748 C750 1.378 . S
C748 C752 1.350 . S
C749 C752 1.463 1_565 S
C749 C754 1.350 . S
C749 N757 1.427 1_565 S
C750 H741 0.930 . S
C750 C748 1.378 . S
C750 C751 1.367 . S
C751 C750 1.367 . S
C751 C753 1.433 . S
C752 C748 1.350 . S
C752 C749 1.463 1_545 S
C752 N756 1.427 1_545 S
C753 H743 0.929 1_545 S
C753 C751 1.433 . S
C753 N756 1.384 1_545 S
C754 H745 0.929 . S
C754 C746 1.378 . S
C754 C749 1.350 . S
C755 H742 0.929 1_565 S
C755 C747 1.433 . S
C755 N757 1.384 1_565 S
N756 C752 1.427 1_565 S
N756 C753 1.384 1_565 S
N757 C749 1.427 1_545 S
N757 C755 1.384 1_545 S
H758 C764 0.930 . S
H759 C768 0.930 . S
H760 C773 0.929 . S
H761 C771 0.929 . S
H762 C766 0.929 . S
H763 C772 0.929 . S
C764 H758 0.930 . S
C764 C765 1.367 . S
C764 C772 1.378 . S
C765 C764 1.367 . S
C765 C773 1.433 . S
C766 H762 0.929 . S
C766 C768 1.378 . S
C766 C770 1.350 . S
C767 C770 1.463 . S
C767 C772 1.350 . S
C767 N775 1.427 . S
C768 H759 0.930 . S
C768 C766 1.378 . S
C768 C769 1.367 . S
C769 C768 1.367 . S
C769 C771 1.433 . S
C770 C766 1.350 . S
C770 C767 1.463 . S
C770 N774 1.427 . S
C771 H761 0.929 . S
C771 C769 1.433 . S
C771 N774 1.384 . S
C772 H763 0.929 . S
C772 C764 1.378 . S
C772 C767 1.350 . S
C773 H760 0.929 . S
C773 C765 1.433 . S
C773 N775 1.384 . S
N774 C770 1.427 . S
N774 C771 1.384 . S
N775 C767 1.427 . S
N775 C773 1.384 . S
H776 C782 0.930 . S
H777 C786 0.930 . S
H778 C791 0.929 . S
H779 C789 0.929 . S
H780 C784 0.929 . S
H781 C790 0.929 . S
C782 H776 0.930 . S
C782 C783 1.367 . S
C782 C790 1.378 . S
C783 C782 1.367 . S
C783 C791 1.433 . S
C784 H780 0.929 . S
C784 C786 1.378 . S
C784 C788 1.350 . S
C785 C788 1.463 . S
C785 C790 1.350 . S
C785 N793 1.427 . S
C786 H777 0.930 . S
C786 C784 1.378 . S
C786 C787 1.367 . S
C787 C786 1.367 . S
C787 C789 1.433 . S
C788 C784 1.350 . S
C788 C785 1.463 . S
C788 N792 1.427 . S
C789 H779 0.929 . S
C789 C787 1.433 . S
C789 N792 1.384 . S
C790 H781 0.929 . S
C790 C782 1.378 . S
C790 C785 1.350 . S
C791 H778 0.929 . S
C791 C783 1.433 . S
C791 N793 1.384 . S
N792 C788 1.427 . S
N792 C789 1.384 . S
N793 C785 1.427 . S
N793 C791 1.384 . S
H794 C800 0.930 . S
H795 C804 0.930 . S
H796 C809 0.929 . S
H797 C807 0.929 . S
H798 C802 0.929 . S
H799 C808 0.929 . S
C800 H794 0.930 . S
C800 C801 1.367 . S
C800 C808 1.378 . S
C801 C800 1.367 . S
C801 C809 1.433 . S
C802 H798 0.929 . S
C802 C804 1.378 . S
C802 C806 1.350 . S
C803 C806 1.463 . S
C803 C808 1.350 . S
C803 N811 1.427 . S
C804 H795 0.930 . S
C804 C802 1.378 . S
C804 C805 1.367 . S
C805 C804 1.367 . S
C805 C807 1.433 . S
C806 C802 1.350 . S
C806 C803 1.463 . S
C806 N810 1.427 . S
C807 H797 0.929 . S
C807 C805 1.433 . S
C807 N810 1.384 . S
C808 H799 0.929 . S
C808 C800 1.378 . S
C808 C803 1.350 . S
C809 H796 0.929 . S
C809 C801 1.433 . S
C809 N811 1.384 . S
N810 C806 1.427 . S
N810 C807 1.384 . S
N811 C803 1.427 . S
N811 C809 1.384 . S
H812 C818 0.930 . S
H813 C822 0.930 . S
H814 C827 0.929 . S
H815 C825 0.929 . S
H816 C820 0.929 . S
H817 C826 0.929 . S
C818 H812 0.930 . S
C818 C819 1.367 . S
C818 C826 1.378 . S
C819 C818 1.367 . S
C819 C827 1.433 . S
C820 H816 0.929 . S
C820 C822 1.378 . S
C820 C824 1.350 . S
C821 C824 1.463 . S
C821 C826 1.350 . S
C821 N829 1.427 . S
C822 H813 0.930 . S
C822 C820 1.378 . S
C822 C823 1.367 . S
C823 C822 1.367 . S
C823 C825 1.433 . S
C824 C820 1.350 . S
C824 C821 1.463 . S
C824 N828 1.427 . S
C825 H815 0.929 . S
C825 C823 1.433 . S
C825 N828 1.384 . S
C826 H817 0.929 . S
C826 C818 1.378 . S
C826 C821 1.350 . S
C827 H814 0.929 . S
C827 C819 1.433 . S
C827 N829 1.384 . S
N828 C824 1.427 . S
N828 C825 1.384 . S
N829 C821 1.427 . S
N829 C827 1.384 . S
H830 C836 0.930 . S
H831 C840 0.930 . S
H832 C845 0.929 . S
H833 C843 0.929 . S
H834 C838 0.929 . S
H835 C844 0.929 . S
C836 H830 0.930 . S
C836 C837 1.367 . S
C836 C844 1.378 . S
C837 C836 1.367 . S
C837 C845 1.433 . S
C838 H834 0.929 . S
C838 C840 1.378 . S
C838 C842 1.350 . S
C839 C842 1.463 . S
C839 C844 1.350 . S
C839 N847 1.427 . S
C840 H831 0.930 . S
C840 C838 1.378 . S
C840 C841 1.367 . S
C841 C840 1.367 . S
C841 C843 1.433 . S
C842 C838 1.350 . S
C842 C839 1.463 . S
C842 N846 1.427 . S
C843 H833 0.929 . S
C843 C841 1.433 . S
C843 N846 1.384 . S
C844 H835 0.929 . S
C844 C836 1.378 . S
C844 C839 1.350 . S
C845 H832 0.929 . S
C845 C837 1.433 . S
C845 N847 1.384 . S
N846 C842 1.427 . S
N846 C843 1.384 . S
N847 C839 1.427 . S
N847 C845 1.384 . S
H848 C854 0.930 . S
H849 C858 0.930 . S
H850 C863 0.929 . S
H851 C861 0.929 . S
H852 C856 0.929 . S
H853 C862 0.929 . S
C854 H848 0.930 . S
C854 C855 1.367 1_556 S
C854 C862 1.378 . S
C855 C854 1.367 1_554 S
C855 C863 1.433 . S
C856 H852 0.929 . S
C856 C858 1.378 . S
C856 C860 1.334 1_554 S
C857 C860 1.461 1_554 S
C857 C862 1.325 1_554 S
C857 N865 1.456 . S
C858 H849 0.930 . S
C858 C856 1.378 . S
C858 C859 1.367 1_554 S
C859 C858 1.367 1_556 S
C859 C861 1.433 . S
C860 C856 1.334 1_556 S
C860 C857 1.461 1_556 S
C860 N864 1.445 . S
C861 H851 0.929 . S
C861 C859 1.433 . S
C861 N864 1.384 . S
C862 H853 0.929 . S
C862 C854 1.378 . S
C862 C857 1.325 1_556 S
C863 H850 0.929 . S
C863 C855 1.433 . S
C863 N865 1.384 . S
N864 C860 1.445 . S
N864 C861 1.384 . S
N865 C857 1.456 . S
N865 C863 1.384 . S
H866 C872 0.930 . S
H867 C876 0.930 . S
H868 C881 0.929 . S
H869 C879 0.929 . S
H870 C874 0.929 . S
H871 C880 0.929 . S
C872 H866 0.930 . S
C872 C873 1.367 1_556 S
C872 C880 1.378 . S
C873 C872 1.367 1_554 S
C873 C881 1.433 . S
C874 H870 0.929 . S
C874 C876 1.378 . S
C874 C878 1.335 1_554 S
C875 C878 1.461 1_454 S
C875 C880 1.325 1_554 S
C875 N883 1.456 . S
C876 H867 0.930 . S
C876 C874 1.378 . S
C876 C877 1.367 1_554 S
C877 C876 1.367 1_556 S
C877 C879 1.433 . S
C878 C874 1.335 1_556 S
C878 C875 1.461 1_656 S
C878 N882 1.445 . S
C879 H869 0.929 . S
C879 C877 1.433 . S
C879 N882 1.384 . S
C880 H871 0.929 . S
C880 C872 1.378 . S
C880 C875 1.325 1_556 S
C881 H868 0.929 . S
C881 C873 1.433 . S
C881 N883 1.384 . S
N882 C878 1.445 . S
N882 C879 1.384 . S
N883 C875 1.456 . S
N883 C881 1.384 . S
H884 C890 0.930 . S
H885 C894 0.930 . S
H886 C899 0.929 . S
H887 C897 0.929 . S
H888 C892 0.929 . S
H889 C898 0.929 . S
C890 H884 0.930 . S
C890 C891 1.367 . S
C890 C898 1.378 . S
C891 C890 1.367 . S
C891 C899 1.433 . S
C892 H888 0.929 . S
C892 C894 1.378 . S
C892 C896 1.350 . S
C893 C896 1.463 1_565 S
C893 C898 1.350 . S
C893 N901 1.427 . S
C894 H885 0.930 . S
C894 C892 1.378 . S
C894 C895 1.367 . S
C895 C894 1.367 . S
C895 C897 1.433 . S
C896 C892 1.350 . S
C896 C893 1.463 1_545 S
C896 N900 1.427 . S
C897 H887 0.929 . S
C897 C895 1.433 . S
C897 N900 1.384 . S
C898 H889 0.929 . S
C898 C890 1.378 . S
C898 C893 1.350 . S
C899 H886 0.929 . S
C899 C891 1.433 . S
C899 N901 1.384 . S
N900 C896 1.427 . S
N900 C897 1.384 . S
N901 C893 1.427 . S
N901 C899 1.384 . S
H902 C908 0.930 . S
H903 C912 0.930 . S
H904 C917 0.929 . S
H905 C915 0.929 . S
H906 C910 0.929 . S
H907 C916 0.929 . S
C908 H902 0.930 . S
C908 C909 1.367 . S
C908 C916 1.378 . S
C909 C908 1.367 . S
C909 C917 1.433 1_655 S
C910 H906 0.929 . S
C910 C912 1.378 . S
C910 C914 1.350 . S
C911 C914 1.463 1_645 S
C911 C916 1.350 . S
C911 N919 1.427 1_655 S
C912 H903 0.930 . S
C912 C910 1.378 . S
C912 C913 1.367 . S
C913 C912 1.367 . S
C913 C915 1.433 1_455 S
C914 C910 1.350 . S
C914 C911 1.463 1_465 S
C914 N918 1.427 1_455 S
C915 H905 0.929 . S
C915 C913 1.433 1_655 S
C915 N918 1.384 . S
C916 H907 0.929 . S
C916 C908 1.378 . S
C916 C911 1.350 . S
C917 H904 0.929 . S
C917 C909 1.433 1_455 S
C917 N919 1.384 . S
N918 C914 1.427 1_655 S
N918 C915 1.384 . S
N919 C911 1.427 1_455 S
N919 C917 1.384 . S
H920 C926 0.930 . S
H921 C930 0.930 . S
H922 C935 0.929 . S
H923 C933 0.929 . S
H924 C928 0.929 . S
H925 C934 0.929 . S
C926 H920 0.930 . S
C926 C927 1.367 . S
C926 C934 1.378 . S
C927 C926 1.367 . S
C927 C935 1.433 . S
C928 H924 0.929 . S
C928 C930 1.378 . S
C928 C932 1.350 . S
C929 C932 1.463 . S
C929 C934 1.350 . S
C929 N937 1.427 . S
C930 H921 0.930 . S
C930 C928 1.378 . S
C930 C931 1.367 . S
C931 C930 1.367 . S
C931 C933 1.433 . S
C932 C928 1.350 . S
C932 C929 1.463 . S
C932 N936 1.427 . S
C933 H923 0.929 . S
C933 C931 1.433 . S
C933 N936 1.384 . S
C934 H925 0.929 . S
C934 C926 1.378 . S
C934 C929 1.350 . S
C935 H922 0.929 . S
C935 C927 1.433 . S
C935 N937 1.384 . S
N936 C932 1.427 . S
N936 C933 1.384 . S
N937 C929 1.427 . S
N937 C935 1.384 . S
H938 C944 0.930 . S
H939 C948 0.930 . S
H940 C953 0.929 . S
H941 C951 0.929 . S
H942 C946 0.929 . S
H943 C952 0.929 . S
C944 H938 0.930 . S
C944 C945 1.367 . S
C944 C952 1.378 . S
C945 C944 1.367 . S
C945 C953 1.433 . S
C946 H942 0.929 . S
C946 C948 1.378 . S
C946 C950 1.350 . S
C947 C950 1.463 1_545 S
C947 C952 1.350 . S
C947 N955 1.427 . S
C948 H939 0.930 . S
C948 C946 1.378 . S
C948 C949 1.367 . S
C949 C948 1.367 . S
C949 C951 1.433 . S
C950 C946 1.350 . S
C950 C947 1.463 1_565 S
C950 N954 1.427 . S
C951 H941 0.929 . S
C951 C949 1.433 . S
C951 N954 1.384 . S
C952 H943 0.929 . S
C952 C944 1.378 . S
C952 C947 1.350 . S
C953 H940 0.929 . S
C953 C945 1.433 . S
C953 N955 1.384 . S
N954 C950 1.427 . S
N954 C951 1.384 . S
N955 C947 1.427 . S
N955 C953 1.384 . S
H956 C962 0.930 . S
H957 C966 0.930 . S
H958 C971 0.929 . S
H959 C969 0.929 . S
H960 C964 0.929 . S
H961 C970 0.929 . S
C962 H956 0.930 . S
C962 C963 1.367 . S
C962 C970 1.378 . S
C963 C962 1.367 . S
C963 C971 1.433 . S
C964 H960 0.929 . S
C964 C966 1.378 . S
C964 C968 1.350 . S
C965 C968 1.463 . S
C965 C970 1.350 . S
C965 N973 1.427 . S
C966 H957 0.930 . S
C966 C964 1.378 . S
C966 C967 1.367 . S
C967 C966 1.367 . S
C967 C969 1.433 . S
C968 C964 1.350 . S
C968 C965 1.463 . S
C968 N972 1.427 . S
C969 H959 0.929 . S
C969 C967 1.433 . S
C969 N972 1.384 . S
C970 H961 0.929 . S
C970 C962 1.378 . S
C970 C965 1.350 . S
C971 H958 0.929 . S
C971 C963 1.433 . S
C971 N973 1.384 . S
N972 C968 1.427 . S
N972 C969 1.384 . S
N973 C965 1.427 . S
N973 C971 1.384 . S
H974 C980 0.930 . S
H975 C984 0.930 . S
H976 C989 0.929 . S
H977 C987 0.929 . S
H978 C982 0.929 . S
H979 C988 0.929 . S
C980 H974 0.930 . S
C980 C981 1.367 . S
C980 C988 1.378 . S
C981 C980 1.367 . S
C981 C989 1.433 . S
C982 H978 0.929 . S
C982 C984 1.378 . S
C982 C986 1.350 . S
C983 C986 1.463 1_565 S
C983 C988 1.350 . S
C983 N991 1.427 . S
C984 H975 0.930 . S
C984 C982 1.378 . S
C984 C985 1.367 . S
C985 C984 1.367 . S
C985 C987 1.433 . S
C986 C982 1.350 . S
C986 C983 1.463 1_545 S
C986 N990 1.427 . S
C987 H977 0.929 . S
C987 C985 1.433 . S
C987 N990 1.384 . S
C988 H979 0.929 . S
C988 C980 1.378 . S
C988 C983 1.350 . S
C989 H976 0.929 . S
C989 C981 1.433 . S
C989 N991 1.384 . S
N990 C986 1.427 . S
N990 C987 1.384 . S
N991 C983 1.427 . S
N991 C989 1.384 . S
C711 C49 1.953 . S
C715 C137 1.950 . S
C729 C284 1.939 . S
C733 C205 1.945 . S
C747 C401 1.948 . S
C751 C489 1.952 . S
C765 C557 1.948 . S
C769 C636 1.953 . S
C783 C29 1.616 . S
C787 C225 1.620 . S
C801 C321 1.616 . S
C805 C117 1.621 . S
C819 C409 1.621 . S
C823 C548 1.616 . S
C837 C645 1.621 . S
C841 C497 1.615 . S
C855 C20 2.273 . S
C859 C372 2.266 . S
C873 C108 2.273 . S
C877 C460 2.267 . S
C891 C585 2.272 . S
C895 C233 2.278 . S
C909 C665 2.259 . S
C913 C313 2.265 . S
C927 C145 0.129 . S
C931 C57 0.158 . S
C945 C196 0.151 . S
C949 C293 0.107 . S
C963 C381 0.128 . S
C967 C469 0.132 . S
C981 C577 0.103 . S
C985 C673 0.136 . S
