# Generated by pormake.
# Topology cds-f, (5)-cn, num edge types: 1
# Building blocks:
#     Node 0, Type 0, BuildingBlock: BEQFEK_clean_sbu_0, # of connection points: 5
#     Node 1, Type 0, BuildingBlock: BEQFEK_clean_sbu_0, # of connection points: 5
#     Node 2, Type 0, BuildingBlock: BEQFEK_clean_sbu_0, # of connection points: 5
#     Node 3, Type 0, BuildingBlock: BEQFEK_clean_sbu_0, # of connection points: 5
#     Node 4, Type 0, BuildingBlock: BEQFEK_clean_sbu_0, # of connection points: 5
#     Node 5, Type 0, BuildingBlock: BEQFEK_clean_sbu_0, # of connection points: 5
#     Node 6, Type 0, BuildingBlock: BEQFEK_clean_sbu_0, # of connection points: 5
#     Node 7, Type 0, BuildingBlock: BEQFEK_clean_sbu_0, # of connection points: 5
#     Node 8, Type 0, BuildingBlock: BEQFEK_clean_sbu_0, # of connection points: 5
#     Node 9, Type 0, BuildingBlock: BEQFEK_clean_sbu_0, # of connection points: 5
#     Node 10, Type 0, BuildingBlock: BEQFEK_clean_sbu_0, # of connection points: 5
#     Node 11, Type 0, BuildingBlock: BEQFEK_clean_sbu_0, # of connection points: 5
#     Node 12, Type 0, BuildingBlock: BEQFEK_clean_sbu_0, # of connection points: 5
#     Node 13, Type 0, BuildingBlock: BEQFEK_clean_sbu_0, # of connection points: 5
#     Node 14, Type 0, BuildingBlock: BEQFEK_clean_sbu_0, # of connection points: 5
#     Node 15, Type 0, BuildingBlock: BEQFEK_clean_sbu_0, # of connection points: 5
#     Edge 16, Type (0, 0), BuildingBlock: AJUNOK_clean_linker_0, # of connection points: 2
#     Edge 17, Type (0, 0), BuildingBlock: AJUNOK_clean_linker_0, # of connection points: 2
#     Edge 18, Type (0, 0), BuildingBlock: AJUNOK_clean_linker_0, # of connection points: 2
#     Edge 19, Type (0, 0), BuildingBlock: AJUNOK_clean_linker_0, # of connection points: 2
#     Edge 20, Type (0, 0), BuildingBlock: AJUNOK_clean_linker_0, # of connection points: 2
#     Edge 21, Type (0, 0), BuildingBlock: AJUNOK_clean_linker_0, # of connection points: 2
#     Edge 22, Type (0, 0), BuildingBlock: AJUNOK_clean_linker_0, # of connection points: 2
#     Edge 23, Type (0, 0), BuildingBlock: AJUNOK_clean_linker_0, # of connection points: 2
#     Edge 24, Type (0, 0), BuildingBlock: AJUNOK_clean_linker_0, # of connection points: 2
#     Edge 25, Type (0, 0), BuildingBlock: AJUNOK_clean_linker_0, # of connection points: 2
#     Edge 26, Type (0, 0), BuildingBlock: AJUNOK_clean_linker_0, # of connection points: 2
#     Edge 27, Type (0, 0), BuildingBlock: AJUNOK_clean_linker_0, # of connection points: 2
#     Edge 28, Type (0, 0), BuildingBlock: AJUNOK_clean_linker_0, # of connection points: 2
#     Edge 29, Type (0, 0), BuildingBlock: AJUNOK_clean_linker_0, # of connection points: 2
#     Edge 30, Type (0, 0), BuildingBlock: AJUNOK_clean_linker_0, # of connection points: 2
#     Edge 31, Type (0, 0), BuildingBlock: AJUNOK_clean_linker_0, # of connection points: 2
#     Edge 32, Type (0, 0), BuildingBlock: AJUNOK_clean_linker_0, # of connection points: 2
#     Edge 33, Type (0, 0), BuildingBlock: AJUNOK_clean_linker_0, # of connection points: 2
#     Edge 34, Type (0, 0), BuildingBlock: AJUNOK_clean_linker_0, # of connection points: 2
#     Edge 35, Type (0, 0), BuildingBlock: AJUNOK_clean_linker_0, # of connection points: 2
#     Edge 36, Type (0, 0), BuildingBlock: AJUNOK_clean_linker_0, # of connection points: 2
#     Edge 37, Type (0, 0), BuildingBlock: AJUNOK_clean_linker_0, # of connection points: 2
#     Edge 38, Type (0, 0), BuildingBlock: AJUNOK_clean_linker_0, # of connection points: 2
#     Edge 39, Type (0, 0), BuildingBlock: AJUNOK_clean_linker_0, # of connection points: 2
#     Edge 40, Type (0, 0), BuildingBlock: AJUNOK_clean_linker_0, # of connection points: 2
#     Edge 41, Type (0, 0), BuildingBlock: AJUNOK_clean_linker_0, # of connection points: 2
#     Edge 42, Type (0, 0), BuildingBlock: AJUNOK_clean_linker_0, # of connection points: 2
#     Edge 43, Type (0, 0), BuildingBlock: AJUNOK_clean_linker_0, # of connection points: 2
#     Edge 44, Type (0, 0), BuildingBlock: AJUNOK_clean_linker_0, # of connection points: 2
#     Edge 45, Type (0, 0), BuildingBlock: AJUNOK_clean_linker_0, # of connection points: 2
#     Edge 46, Type (0, 0), BuildingBlock: AJUNOK_clean_linker_0, # of connection points: 2
#     Edge 47, Type (0, 0), BuildingBlock: AJUNOK_clean_linker_0, # of connection points: 2
#     Edge 48, Type (0, 0), BuildingBlock: AJUNOK_clean_linker_0, # of connection points: 2
#     Edge 49, Type (0, 0), BuildingBlock: AJUNOK_clean_linker_0, # of connection points: 2
#     Edge 50, Type (0, 0), BuildingBlock: AJUNOK_clean_linker_0, # of connection points: 2
#     Edge 51, Type (0, 0), BuildingBlock: AJUNOK_clean_linker_0, # of connection points: 2
#     Edge 52, Type (0, 0), BuildingBlock: AJUNOK_clean_linker_0, # of connection points: 2
#     Edge 53, Type (0, 0), BuildingBlock: AJUNOK_clean_linker_0, # of connection points: 2
#     Edge 54, Type (0, 0), BuildingBlock: AJUNOK_clean_linker_0, # of connection points: 2
#     Edge 55, Type (0, 0), BuildingBlock: AJUNOK_clean_linker_0, # of connection points: 2
# Relax obj value: 0.090
# Max RMSD: 0.143
# Mean RMSD: 0.099
data_MOF--net-cds-f--node1-BEQFEK_clean_sbu_0--edge1-AJUNOK_clean_linker_0
_symmetry_space_group_name_H-M    P1
_symmetry_Int_Tables_number       1
_symmetry_cell_setting            triclinic
loop_
_symmetry_equiv_pos_as_xyz
'x, y, z'
_cell_length_a     31.116884
_cell_length_b     31.120747
_cell_length_c     45.944317
_cell_angle_alpha  90.032486
_cell_angle_beta   94.29021
_cell_angle_gamma 87.674251
loop_
_atom_site_label
_atom_site_type_symbol
_atom_site_fract_x
_atom_site_fract_y
_atom_site_fract_z
_atom_type_partial_charge
Co0 Co 0.29693 0.31758 0.14273 0.0
Co1 Co 0.19629 0.32691 0.13967 0.0
C2 C 0.24874 0.2885 0.19194 0.0
O3 O 0.28425 0.29166 0.18015 0.0
O4 O 0.21281 0.30102 0.17887 0.0
C5 C 0.38948 0.2881 0.1464 0.0
O6 O 0.38019 0.25243 0.1594 0.0
C7 C 0.10474 0.3029 0.13811 0.0
C8 C 0.07312 0.36242 0.11903 0.0
C9 C 0.06479 0.32237 0.1298 0.0
N10 N 0.13531 0.33034 0.13225 0.0
N11 N 0.11609 0.36566 0.12072 0.0
C12 C 0.11373 0.26035 0.15292 0.0
H13 H 0.14206 0.2619 0.16892 0.0
H14 H 0.12142 0.23592 0.13629 0.0
H15 H 0.08536 0.2502 0.16408 0.0
C16 C 0.27787 0.2776 0.08521 0.0
N17 N 0.26507 0.29249 0.11078 0.0
N18 N 0.22287 0.2983 0.1087 0.0
C19 C 0.20755 0.28901 0.08128 0.0
C20 C 0.24199 0.27541 0.0653 0.0
C21 C 0.32418 0.26971 0.07929 0.0
H22 H 0.34096 0.25073 0.09747 0.0
H23 H 0.32732 0.25202 0.05853 0.0
H24 H 0.33998 0.30094 0.07822 0.0
O25 O 0.28387 0.38077 0.14369 0.0
O26 O 0.21277 0.38691 0.14086 0.0
H27 H 0.15602 0.33627 0.07473 0.0
H28 H 0.15799 0.29848 0.04542 0.0
C29 C 0.16276 0.30206 0.06939 0.0
H30 H 0.13928 0.28245 0.07994 0.0
H31 H 0.13233 0.39231 0.11428 0.0
O32 O 0.35949 0.31509 0.13791 0.0
C33 C 0.24918 0.40398 0.14261 0.0
Co34 Co 0.65449 0.29917 0.63598 0.0
Co35 Co 0.65228 0.19892 0.63513 0.0
C36 C 0.68874 0.24558 0.68767 0.0
O37 O 0.6809 0.28169 0.67491 0.0
O38 O 0.68003 0.21038 0.67474 0.0
C39 C 0.69121 0.38367 0.64041 0.0
O40 O 0.72552 0.36437 0.65373 0.0
C41 C 0.67417 0.10488 0.63789 0.0
C42 C 0.62047 0.08125 0.60872 0.0
C43 C 0.65689 0.06773 0.62594 0.0
N44 N 0.64928 0.1388 0.6277 0.0
N45 N 0.6173 0.12432 0.61035 0.0
C46 C 0.71141 0.10812 0.66024 0.0
H47 H 0.73933 0.12051 0.64964 0.0
H48 H 0.72063 0.07653 0.67054 0.0
H49 H 0.70298 0.13122 0.67744 0.0
C50 C 0.6939 0.28292 0.58016 0.0
N51 N 0.6804 0.26883 0.60548 0.0
N52 N 0.67934 0.22663 0.6048 0.0
C53 C 0.69172 0.2126 0.57877 0.0
C54 C 0.70082 0.24787 0.56203 0.0
C55 C 0.69644 0.32947 0.57253 0.0
H56 H 0.66411 0.34568 0.57324 0.0
H57 H 0.71865 0.34496 0.58896 0.0
H58 H 0.70846 0.33379 0.55062 0.0
O59 O 0.59135 0.29036 0.63409 0.0
O60 O 0.59144 0.21939 0.6344 0.0
H61 H 0.65347 0.16019 0.56431 0.0
H62 H 0.70409 0.16165 0.54788 0.0
C63 C 0.68805 0.16722 0.56836 0.0
H64 H 0.70285 0.14482 0.58535 0.0
H65 H 0.593 0.14395 0.59977 0.0
O66 O 0.65947 0.36159 0.63139 0.0
C67 C 0.57111 0.25565 0.63392 0.0
Co68 Co 0.71297 0.67875 0.13311 0.0
Co69 Co 0.81426 0.6731 0.13977 0.0
C70 C 0.7646 0.7112 0.18686 0.0
O71 O 0.7292 0.70481 0.17191 0.0
O72 O 0.80081 0.70082 0.17704 0.0
C73 C 0.62436 0.71278 0.13561 0.0
O74 O 0.63973 0.73872 0.156 0.0
C75 C 0.90848 0.69115 0.14517 0.0
C76 C 0.93351 0.63387 0.12243 0.0
C77 C 0.94629 0.67074 0.13695 0.0
N78 N 0.87502 0.66715 0.13594 0.0
N79 N 0.89041 0.63311 0.12232 0.0
C80 C 0.90442 0.73186 0.16223 0.0
H81 H 0.87417 0.73318 0.1735 0.0
H82 H 0.90365 0.75962 0.14703 0.0
H83 H 0.93253 0.73468 0.17838 0.0
C84 C 0.73114 0.71017 0.07498 0.0
N85 N 0.74399 0.7009 0.10299 0.0
N86 N 0.78626 0.7018 0.1066 0.0
C87 C 0.80155 0.71358 0.08125 0.0
C88 C 0.7673 0.71826 0.06004 0.0
C89 C 0.68625 0.70354 0.0621 0.0
H90 H 0.67511 0.67243 0.06987 0.0
H91 H 0.66438 0.72945 0.06985 0.0
H92 H 0.68402 0.70359 0.03792 0.0
O93 O 0.72393 0.61607 0.13567 0.0
O94 O 0.79525 0.61267 0.14052 0.0
H95 H 0.86492 0.68622 0.07654 0.0
H96 H 0.85274 0.73554 0.05637 0.0
C97 C 0.84836 0.71837 0.07705 0.0
H98 H 0.8635 0.73647 0.09564 0.0
H99 H 0.87136 0.60922 0.11289 0.0
O100 O 0.64997 0.68684 0.12343 0.0
C101 C 0.75937 0.59418 0.13864 0.0
Co102 Co 0.32042 0.80752 0.62042 0.0
Co103 Co 0.31684 0.70803 0.61359 0.0
C104 C 0.29017 0.76434 0.56354 0.0
O105 O 0.29925 0.79704 0.57921 0.0
O106 O 0.29328 0.72642 0.57413 0.0
C107 C 0.28623 0.89637 0.62128 0.0
O108 O 0.24951 0.88254 0.60961 0.0
C109 C 0.293 0.61717 0.60526 0.0
C110 C 0.34218 0.5853 0.63616 0.0
C111 C 0.30775 0.57725 0.61635 0.0
N112 N 0.31781 0.64728 0.61804 0.0
N113 N 0.3472 0.62793 0.63632 0.0
C114 C 0.25477 0.62716 0.58434 0.0
H115 H 0.2387 0.65807 0.59034 0.0
H116 H 0.23154 0.60099 0.58405 0.0
H117 H 0.26584 0.63095 0.56211 0.0
C118 C 0.28108 0.78709 0.67509 0.0
N119 N 0.2921 0.77652 0.64811 0.0
N120 N 0.28742 0.73513 0.64396 0.0
C121 C 0.27115 0.71841 0.66762 0.0
C122 C 0.26777 0.75042 0.68861 0.0
C123 C 0.28996 0.82967 0.68898 0.0
H124 H 0.32107 0.84118 0.68233 0.0
H125 H 0.26413 0.85343 0.68113 0.0
H126 H 0.29111 0.82789 0.71313 0.0
O127 O 0.38191 0.79157 0.62415 0.0
O128 O 0.37929 0.72132 0.61764 0.0
H129 H 0.28937 0.65182 0.67451 0.0
H130 H 0.23842 0.66805 0.68829 0.0
C131 C 0.25968 0.67237 0.67024 0.0
H132 H 0.24309 0.66169 0.64944 0.0
H133 H 0.37053 0.64398 0.64915 0.0
O134 O 0.31732 0.86966 0.62783 0.0
C135 C 0.40084 0.75494 0.62195 0.0
Co136 Co 0.19828 0.67942 0.88349 0.0
Co137 Co 0.29872 0.67482 0.89185 0.0
C138 C 0.24704 0.70853 0.93902 0.0
O139 O 0.21244 0.702 0.92327 0.0
O140 O 0.28416 0.70105 0.92959 0.0
C141 C 0.1078 0.70755 0.88503 0.0
O142 O 0.11993 0.73782 0.90343 0.0
C143 C 0.39223 0.69347 0.89747 0.0
C144 C 0.41668 0.64096 0.8699 0.0
C145 C 0.42932 0.67634 0.8861 0.0
N146 N 0.35905 0.66948 0.88791 0.0
N147 N 0.37409 0.63795 0.87176 0.0
C148 C 0.38778 0.73329 0.91537 0.0
H149 H 0.35435 0.74726 0.91236 0.0
H150 H 0.41112 0.75724 0.9094 0.0
H151 H 0.39481 0.72487 0.93875 0.0
C152 C 0.2169 0.71705 0.82707 0.0
N153 N 0.2291 0.70425 0.85456 0.0
N154 N 0.27127 0.70508 0.85891 0.0
C155 C 0.28717 0.72051 0.83469 0.0
C156 C 0.25344 0.72747 0.81331 0.0
C157 C 0.17207 0.71299 0.81336 0.0
H158 H 0.15994 0.68123 0.81898 0.0
H159 H 0.15062 0.7381 0.82248 0.0
H160 H 0.17054 0.71643 0.78929 0.0
O161 O 0.21063 0.61772 0.88472 0.0
O162 O 0.28164 0.61346 0.89174 0.0
H163 H 0.35201 0.69753 0.82961 0.0
H164 H 0.33822 0.74922 0.81291 0.0
C165 C 0.33385 0.72851 0.83204 0.0
H166 H 0.34731 0.74437 0.85212 0.0
H167 H 0.35497 0.61488 0.86137 0.0
O168 O 0.13591 0.68353 0.87376 0.0
C169 C 0.24559 0.59548 0.88868 0.0
Co170 Co 0.32189 0.30433 0.36696 0.0
Co171 Co 0.32246 0.2035 0.36436 0.0
C172 C 0.28349 0.256 0.31468 0.0
O173 O 0.29151 0.29066 0.32855 0.0
O174 O 0.29401 0.21912 0.32565 0.0
C175 C 0.2909 0.3959 0.37332 0.0
O176 O 0.25064 0.38443 0.37064 0.0
C177 C 0.30691 0.10971 0.35761 0.0
C178 C 0.35217 0.08447 0.39357 0.0
C179 C 0.3229 0.07189 0.37135 0.0
N180 N 0.32554 0.14303 0.37156 0.0
N181 N 0.35259 0.12756 0.3929 0.0
C182 C 0.27822 0.11416 0.33007 0.0
H183 H 0.29177 0.13723 0.31519 0.0
H184 H 0.24606 0.12731 0.33539 0.0
H185 H 0.2746 0.08287 0.31876 0.0
C186 C 0.28906 0.28647 0.42478 0.0
N187 N 0.29949 0.27435 0.39795 0.0
N188 N 0.29567 0.23256 0.39525 0.0
C189 C 0.28027 0.21717 0.41964 0.0
C190 C 0.27669 0.25051 0.4396 0.0
C191 C 0.29659 0.33027 0.43717 0.0
H192 H 0.32407 0.34465 0.42724 0.0
H193 H 0.26731 0.35123 0.43205 0.0
H194 H 0.30339 0.32901 0.46121 0.0
O195 O 0.38346 0.28901 0.36582 0.0
O196 O 0.38412 0.21805 0.36473 0.0
H197 H 0.2966 0.15111 0.43026 0.0
H198 H 0.24428 0.16952 0.44036 0.0
C199 C 0.26776 0.17165 0.42343 0.0
H200 H 0.25347 0.15913 0.40241 0.0
H201 H 0.37184 0.14657 0.40684 0.0
O202 O 0.32127 0.36745 0.37265 0.0
C203 C 0.40397 0.25298 0.36515 0.0
Co204 Co 0.78356 0.31993 0.88442 0.0
Co205 Co 0.68294 0.32676 0.88237 0.0
C206 C 0.7361 0.2963 0.93615 0.0
O207 O 0.77144 0.29886 0.92398 0.0
O208 O 0.69991 0.30625 0.9225 0.0
C209 C 0.87502 0.29496 0.89596 0.0
O210 O 0.86455 0.27821 0.92057 0.0
C211 C 0.59194 0.30908 0.88905 0.0
C212 C 0.55925 0.355 0.85711 0.0
C213 C 0.5516 0.32452 0.87782 0.0
N214 N 0.62198 0.32978 0.87562 0.0
N215 N 0.60223 0.35718 0.8566 0.0
C216 C 0.60217 0.27429 0.91122 0.0
H217 H 0.63036 0.25422 0.90506 0.0
H218 H 0.57411 0.25385 0.91322 0.0
H219 H 0.61105 0.2891 0.9327 0.0
C220 C 0.76323 0.27308 0.82912 0.0
N221 N 0.7513 0.29125 0.85406 0.0
N222 N 0.70896 0.29279 0.85366 0.0
C223 C 0.69268 0.27492 0.82867 0.0
C224 C 0.72653 0.26203 0.81217 0.0
C225 C 0.80851 0.27088 0.82023 0.0
H226 H 0.83001 0.25508 0.83774 0.0
H227 H 0.8111 0.25275 0.79958 0.0
H228 H 0.81931 0.30403 0.81732 0.0
O229 O 0.77068 0.38316 0.88196 0.0
O230 O 0.69943 0.38685 0.87958 0.0
H231 H 0.63534 0.30969 0.81246 0.0
H232 H 0.63895 0.2551 0.7997 0.0
C233 C 0.64571 0.27626 0.81877 0.0
H234 H 0.62671 0.26612 0.83685 0.0
H235 H 0.61816 0.37776 0.84351 0.0
O236 O 0.84577 0.31268 0.8787 0.0
C237 C 0.73517 0.40518 0.87997 0.0
Co238 Co 0.69662 0.80488 0.37753 0.0
Co239 Co 0.69562 0.70429 0.38072 0.0
C240 C 0.72211 0.75373 0.43304 0.0
O241 O 0.714 0.78837 0.41855 0.0
O242 O 0.71897 0.71688 0.42112 0.0
C243 C 0.71694 0.89277 0.39201 0.0
O244 O 0.72346 0.87863 0.41898 0.0
C245 C 0.70803 0.60879 0.38644 0.0
C246 C 0.65999 0.58957 0.35139 0.0
C247 C 0.68983 0.57324 0.37277 0.0
N248 N 0.68991 0.64446 0.37331 0.0
N249 N 0.66132 0.63259 0.35243 0.0
C250 C 0.73921 0.60923 0.41283 0.0
H251 H 0.72853 0.634 0.42838 0.0
H252 H 0.77125 0.61797 0.40613 0.0
H253 H 0.74217 0.57746 0.4239 0.0
C254 C 0.74214 0.78354 0.32501 0.0
N255 N 0.72628 0.77182 0.35017 0.0
N256 N 0.7273 0.72961 0.35185 0.0
C257 C 0.74467 0.71322 0.32798 0.0
C258 C 0.7541 0.74684 0.30995 0.0
C259 C 0.74116 0.82886 0.31415 0.0
H260 H 0.76036 0.84857 0.33004 0.0
H261 H 0.75459 0.83098 0.2925 0.0
H262 H 0.70742 0.84213 0.31264 0.0
O263 O 0.63383 0.79742 0.37162 0.0
O264 O 0.63492 0.72677 0.37697 0.0
H265 H 0.71403 0.65735 0.31108 0.0
H266 H 0.76987 0.65944 0.30384 0.0
C267 C 0.7463 0.66647 0.32034 0.0
H268 H 0.75547 0.64688 0.34014 0.0
H269 H 0.64218 0.65405 0.33911 0.0
O270 O 0.70605 0.86664 0.37178 0.0
C271 C 0.6141 0.76261 0.37319 0.0
Co272 Co 0.69826 0.68005 0.88392 0.0
Co273 Co 0.79821 0.66808 0.88037 0.0
C274 C 0.76046 0.7018 0.93425 0.0
O275 O 0.72211 0.70085 0.92253 0.0
O276 O 0.79284 0.69008 0.92037 0.0
C277 C 0.61207 0.70307 0.9008 0.0
O278 O 0.63083 0.70903 0.92698 0.0
C279 C 0.89227 0.68125 0.88307 0.0
C280 C 0.91079 0.63756 0.84775 0.0
C281 C 0.92725 0.66645 0.8682 0.0
N282 N 0.85683 0.66232 0.87149 0.0
N283 N 0.86829 0.63597 0.85063 0.0
C284 C 0.89261 0.7101 0.90917 0.0
H285 H 0.873 0.69649 0.92579 0.0
H286 H 0.87792 0.74202 0.90252 0.0
H287 H 0.92569 0.714 0.91926 0.0
C288 C 0.70625 0.72136 0.82685 0.0
N289 N 0.72402 0.70553 0.85246 0.0
N290 N 0.76619 0.70242 0.85153 0.0
C291 C 0.77655 0.71736 0.82551 0.0
C292 C 0.73896 0.72903 0.8088 0.0
C293 C 0.65889 0.72218 0.81833 0.0
H294 H 0.6469 0.68933 0.82058 0.0
H295 H 0.64196 0.74363 0.83343 0.0
H296 H 0.65125 0.73361 0.7956 0.0
O297 O 0.70714 0.61656 0.88209 0.0
O298 O 0.77766 0.60881 0.87885 0.0
H299 H 0.831 0.68519 0.80818 0.0
H300 H 0.8228 0.74046 0.79718 0.0
C301 C 0.82129 0.71774 0.81567 0.0
H302 H 0.84418 0.72732 0.83394 0.0
H303 H 0.8469 0.61704 0.83822 0.0
O304 O 0.63504 0.69184 0.88012 0.0
C305 C 0.74092 0.59263 0.87987 0.0
Co306 Co 0.33797 0.80172 0.36184 0.0
Co307 Co 0.35119 0.7021 0.37198 0.0
C308 C 0.31469 0.74101 0.31444 0.0
O309 O 0.3147 0.77956 0.32372 0.0
O310 O 0.32801 0.70945 0.33082 0.0
C311 C 0.30022 0.88965 0.35208 0.0
O312 O 0.2656 0.87291 0.33935 0.0
C313 C 0.32671 0.61112 0.37423 0.0
C314 C 0.38176 0.58257 0.40184 0.0
C315 C 0.34334 0.57264 0.38665 0.0
N316 N 0.35384 0.64238 0.38222 0.0
N317 N 0.3866 0.62502 0.39872 0.0
C318 C 0.28792 0.61776 0.35319 0.0
H319 H 0.29705 0.63473 0.33351 0.0
H320 H 0.26348 0.63851 0.36347 0.0
H321 H 0.27373 0.58692 0.34634 0.0
C322 C 0.29457 0.79417 0.41694 0.0
N323 N 0.31251 0.77639 0.39376 0.0
N324 N 0.31918 0.73487 0.39842 0.0
C325 C 0.30666 0.72505 0.42499 0.0
C326 C 0.2908 0.76239 0.43784 0.0
C327 C 0.2837 0.84122 0.41964 0.0
H328 H 0.31368 0.8594 0.42004 0.0
H329 H 0.26263 0.85204 0.40029 0.0
H330 H 0.2668 0.84839 0.43963 0.0
O331 O 0.40182 0.79052 0.3654 0.0
O332 O 0.41093 0.72065 0.37412 0.0
H333 H 0.35209 0.67512 0.43991 0.0
H334 H 0.30724 0.68149 0.46219 0.0
C335 C 0.31689 0.68238 0.43951 0.0
H336 H 0.30018 0.65698 0.42667 0.0
H337 H 0.41261 0.64211 0.40758 0.0
O338 O 0.33123 0.86513 0.36252 0.0
C339 C 0.42646 0.75726 0.37044 0.0
Co340 Co 0.28429 0.32212 0.88935 0.0
Co341 Co 0.18385 0.33171 0.88806 0.0
C342 C 0.23577 0.29435 0.93967 0.0
O343 O 0.2705 0.30086 0.92772 0.0
O344 O 0.19892 0.30287 0.92649 0.0
C345 C 0.37464 0.31085 0.90602 0.0
O346 O 0.36245 0.31757 0.93246 0.0
C347 C 0.09215 0.31109 0.88756 0.0
C348 C 0.0611 0.36939 0.86644 0.0
C349 C 0.05234 0.33008 0.87829 0.0
N350 N 0.12294 0.3379 0.88119 0.0
N351 N 0.10412 0.37276 0.86875 0.0
C352 C 0.10118 0.2678 0.90127 0.0
H353 H 0.13334 0.25472 0.89587 0.0
H354 H 0.07583 0.24529 0.89389 0.0
H355 H 0.10151 0.27108 0.92534 0.0
C356 C 0.26306 0.28257 0.83236 0.0
N357 N 0.25079 0.29714 0.85813 0.0
N358 N 0.20867 0.30351 0.85636 0.0
C359 C 0.19287 0.29497 0.82889 0.0
C360 C 0.22696 0.28135 0.81263 0.0
C361 C 0.30913 0.27353 0.82621 0.0
H362 H 0.32542 0.30439 0.82441 0.0
H363 H 0.32597 0.2549 0.84455 0.0
H364 H 0.31163 0.25501 0.80571 0.0
O365 O 0.27486 0.3857 0.88872 0.0
O366 O 0.20392 0.3908 0.89031 0.0
H367 H 0.14197 0.34279 0.82212 0.0
H368 H 0.14283 0.30383 0.7934 0.0
C369 C 0.14805 0.30829 0.81729 0.0
H370 H 0.12453 0.28955 0.82846 0.0
H371 H 0.1207 0.39884 0.86171 0.0
O372 O 0.34619 0.31059 0.88472 0.0
C373 C 0.24004 0.40838 0.88993 0.0
Co374 Co 0.67026 0.30463 0.38194 0.0
Co375 Co 0.67701 0.20435 0.37997 0.0
C376 C 0.6965 0.24986 0.4354 0.0
O377 O 0.68694 0.28539 0.42232 0.0
O378 O 0.69672 0.21425 0.42169 0.0
C379 C 0.7069 0.38848 0.38899 0.0
O380 O 0.7427 0.36735 0.39828 0.0
C381 C 0.70286 0.11182 0.38255 0.0
C382 C 0.65795 0.08724 0.34743 0.0
C383 C 0.69058 0.07451 0.36814 0.0
N384 N 0.67868 0.14499 0.37065 0.0
N385 N 0.65189 0.13001 0.34975 0.0
C386 C 0.73774 0.11645 0.40641 0.0
H387 H 0.75246 0.14816 0.40472 0.0
H388 H 0.76288 0.09025 0.40544 0.0
H389 H 0.72349 0.11492 0.4278 0.0
C390 C 0.71952 0.2941 0.32973 0.0
N391 N 0.704 0.27794 0.35386 0.0
N392 N 0.7074 0.23568 0.35303 0.0
C393 C 0.72556 0.22372 0.32835 0.0
C394 C 0.73375 0.26027 0.31276 0.0
C395 C 0.71403 0.34041 0.32084 0.0
H396 H 0.68118 0.35288 0.32507 0.0
H397 H 0.73771 0.35929 0.33416 0.0
H398 H 0.71928 0.34507 0.29745 0.0
O399 O 0.60909 0.29175 0.37348 0.0
O400 O 0.61474 0.22069 0.37489 0.0
H401 H 0.69882 0.1672 0.30937 0.0
H402 H 0.75317 0.17587 0.30044 0.0
C403 C 0.73065 0.17833 0.31806 0.0
H404 H 0.74303 0.15723 0.3365 0.0
H405 H 0.62928 0.14908 0.33712 0.0
O406 O 0.67373 0.36776 0.38094 0.0
C407 C 0.59178 0.25539 0.37217 0.0
Co408 Co 0.7987 0.32157 0.14105 0.0
Co409 Co 0.69822 0.32796 0.13687 0.0
C410 C 0.74781 0.29167 0.18987 0.0
O411 O 0.78341 0.29708 0.17867 0.0
O412 O 0.71189 0.30148 0.17586 0.0
C413 C 0.88644 0.28208 0.13799 0.0
O414 O 0.87034 0.24377 0.13553 0.0
C415 C 0.60537 0.31168 0.13988 0.0
C416 C 0.57668 0.35608 0.10553 0.0
C417 C 0.56622 0.32662 0.12619 0.0
N418 N 0.63732 0.33131 0.1276 0.0
N419 N 0.61986 0.35786 0.10719 0.0
C420 C 0.6126 0.28298 0.16606 0.0
H421 H 0.62959 0.30086 0.18405 0.0
H422 H 0.63376 0.25492 0.16078 0.0
H423 H 0.58207 0.27184 0.17379 0.0
C424 C 0.7812 0.28917 0.08072 0.0
N425 N 0.76861 0.29858 0.10754 0.0
N426 N 0.72637 0.29737 0.10707 0.0
C427 C 0.71104 0.28419 0.08048 0.0
C428 C 0.74502 0.27953 0.06249 0.0
C429 C 0.8252 0.29802 0.07154 0.0
H430 H 0.83947 0.32427 0.08489 0.0
H431 H 0.84634 0.26861 0.07493 0.0
H432 H 0.82409 0.30733 0.04819 0.0
O433 O 0.78717 0.3836 0.14151 0.0
O434 O 0.71593 0.38944 0.13805 0.0
H435 H 0.64806 0.30855 0.06514 0.0
H436 H 0.66082 0.25468 0.05352 0.0
C437 C 0.66438 0.27754 0.07202 0.0
H438 H 0.64848 0.26489 0.09087 0.0
H439 H 0.63751 0.3776 0.0946 0.0
O440 O 0.86152 0.31513 0.13985 0.0
C441 C 0.75253 0.40668 0.13999 0.0
Co442 Co 0.66948 0.79768 0.63301 0.0
Co443 Co 0.6727 0.69735 0.6283 0.0
C444 C 0.70437 0.74141 0.68321 0.0
O445 O 0.69452 0.77814 0.67181 0.0
O446 O 0.6987 0.70683 0.6687 0.0
C447 C 0.70007 0.88551 0.63911 0.0
O448 O 0.73812 0.86893 0.64841 0.0
C449 C 0.68841 0.60248 0.63192 0.0
C450 C 0.64829 0.58288 0.59277 0.0
C451 C 0.67464 0.56681 0.61616 0.0
N452 N 0.67168 0.63802 0.61796 0.0
N453 N 0.6476 0.62594 0.5947 0.0
C454 C 0.71149 0.60301 0.66163 0.0
H455 H 0.69261 0.62362 0.67615 0.0
H456 H 0.74337 0.61725 0.66013 0.0
H457 H 0.7159 0.5704 0.67136 0.0
C458 C 0.71253 0.78864 0.57776 0.0
N459 N 0.69823 0.77168 0.60203 0.0
N460 N 0.70039 0.72946 0.60011 0.0
C461 C 0.71688 0.71834 0.57466 0.0
C462 C 0.72411 0.75544 0.55924 0.0
C463 C 0.71187 0.83587 0.57148 0.0
H464 H 0.67874 0.84988 0.57294 0.0
H465 H 0.73341 0.85163 0.58817 0.0
H466 H 0.72313 0.84259 0.54964 0.0
O467 O 0.60772 0.78494 0.62939 0.0
O468 O 0.6107 0.71405 0.62713 0.0
H469 H 0.68966 0.6647 0.55206 0.0
H470 H 0.74597 0.66983 0.54784 0.0
C471 C 0.72074 0.67323 0.56355 0.0
H472 H 0.72918 0.65059 0.58186 0.0
H473 H 0.62954 0.64721 0.58061 0.0
O474 O 0.66965 0.86094 0.63149 0.0
C475 C 0.58896 0.74942 0.62753 0.0
Co476 Co 0.21753 0.67917 0.14341 0.0
Co477 Co 0.31686 0.66476 0.13785 0.0
C478 C 0.2804 0.7045 0.19129 0.0
O479 O 0.24149 0.70364 0.1806 0.0
O480 O 0.31174 0.6905 0.17709 0.0
C481 C 0.12677 0.71338 0.14789 0.0
O482 O 0.1402 0.75121 0.15631 0.0
C483 C 0.40696 0.68896 0.13347 0.0
C484 C 0.43461 0.62988 0.11427 0.0
C485 C 0.4448 0.67076 0.1237 0.0
N486 N 0.37594 0.66021 0.12963 0.0
N487 N 0.39279 0.62493 0.11829 0.0
C488 C 0.39942 0.73342 0.14487 0.0
H489 H 0.36505 0.74398 0.14033 0.0
H490 H 0.42061 0.75627 0.13494 0.0
H491 H 0.40683 0.7333 0.16887 0.0
C492 C 0.22308 0.71863 0.08514 0.0
N493 N 0.24172 0.7028 0.1105 0.0
N494 N 0.28314 0.69529 0.10774 0.0
C495 C 0.292 0.70502 0.08031 0.0
C496 C 0.25416 0.72004 0.06486 0.0
C497 C 0.17576 0.72911 0.08001 0.0
H498 H 0.16534 0.75083 0.09751 0.0
H499 H 0.16786 0.74488 0.0585 0.0
H500 H 0.15775 0.69919 0.0812 0.0
O501 O 0.22866 0.61572 0.14406 0.0
O502 O 0.29845 0.60538 0.13918 0.0
H503 H 0.33305 0.69727 0.04404 0.0
H504 H 0.35989 0.71147 0.07863 0.0
C505 C 0.33388 0.69236 0.06794 0.0
H506 H 0.34176 0.6579 0.07265 0.0
H507 H 0.37562 0.59749 0.11311 0.0
O508 O 0.15371 0.68397 0.1411 0.0
C509 C 0.26156 0.59057 0.14195 0.0
Co510 Co 0.29735 0.30975 0.61567 0.0
Co511 Co 0.30367 0.20936 0.62312 0.0
C512 C 0.27587 0.25063 0.56557 0.0
O513 O 0.27892 0.28831 0.57615 0.0
O514 O 0.28367 0.21719 0.5814 0.0
C515 C 0.27894 0.39746 0.59496 0.0
O516 O 0.27406 0.38049 0.5688 0.0
C517 C 0.29051 0.11462 0.62406 0.0
C518 C 0.34145 0.09569 0.65831 0.0
C519 C 0.31026 0.07923 0.63885 0.0
N520 N 0.30947 0.15028 0.6344 0.0
N521 N 0.33974 0.13853 0.65488 0.0
C522 C 0.25638 0.1142 0.59935 0.0
H523 H 0.2561 0.14396 0.5862 0.0
H524 H 0.22442 0.11212 0.60836 0.0
H525 H 0.26143 0.0858 0.58519 0.0
C526 C 0.24798 0.30152 0.66793 0.0
N527 N 0.26709 0.28381 0.64521 0.0
N528 N 0.27023 0.24185 0.64873 0.0
C529 C 0.25416 0.23155 0.67418 0.0
C530 C 0.23948 0.26915 0.68736 0.0
C531 C 0.24162 0.34899 0.67215 0.0
H532 H 0.22622 0.36375 0.6518 0.0
H533 H 0.22106 0.35637 0.69038 0.0
H534 H 0.27348 0.36334 0.67672 0.0
O535 O 0.36136 0.29854 0.62277 0.0
O536 O 0.36294 0.22784 0.62713 0.0
H537 H 0.29613 0.18183 0.69339 0.0
H538 H 0.24496 0.18519 0.70855 0.0
C539 C 0.26112 0.18803 0.68807 0.0
H540 H 0.2493 0.16311 0.67254 0.0
H541 H 0.3599 0.15984 0.66621 0.0
O542 O 0.28783 0.37297 0.61691 0.0
C543 C 0.38245 0.26278 0.62669 0.0
C544 C 0.94941 0.32731 0.14897 0.0
C545 C 0.93331 0.28833 0.13814 0.0
C546 C 0.99244 0.337 0.14705 0.0
C547 C 0.02129 0.30805 0.13441 0.0
H548 H 0.92841 0.35113 0.15857 0.0
H549 H 0.00306 0.36785 0.15509 0.0
S550 S 0.99613 0.20146 0.10307 0.0
N551 N 0.95004 0.22006 0.11482 0.0
N552 N 0.03145 0.23872 0.11105 0.0
C553 C 0.00631 0.26839 0.12425 0.0
C554 C 0.96216 0.25839 0.1262 0.0
C555 C 0.63862 0.99281 0.63627 0.0
C556 C 0.67036 0.02222 0.63136 0.0
C557 C 0.64894 0.94888 0.63929 0.0
C558 C 0.69148 0.93253 0.63754 0.0
H559 H 0.60533 0.00382 0.63757 0.0
H560 H 0.62319 0.92752 0.64288 0.0
S561 S 0.78612 0.99583 0.6232 0.0
N562 N 0.74573 0.03194 0.62344 0.0
N563 N 0.76553 0.94908 0.62996 0.0
C564 C 0.72374 0.96159 0.6329 0.0
C565 C 0.71308 0.00652 0.62954 0.0
C566 C 0.00417 0.72528 0.13877 0.0
C567 C 0.99172 0.6828 0.14268 0.0
C568 C 0.04795 0.73549 0.14128 0.0
C569 C 0.08058 0.70343 0.14742 0.0
H570 H 0.98019 0.75047 0.13266 0.0
H571 H 0.05634 0.76833 0.13738 0.0
S572 S 0.06427 0.58846 0.1632 0.0
N573 N 0.01518 0.60947 0.15565 0.0
N574 N 0.09702 0.62831 0.16002 0.0
C575 C 0.06827 0.66122 0.15245 0.0
C576 C 0.02397 0.651 0.15011 0.0
C577 C 0.25705 0.97252 0.62441 0.0
C578 C 0.2926 0.94295 0.62563 0.0
C579 C 0.26273 0.01672 0.62849 0.0
C580 C 0.30416 0.03286 0.63365 0.0
H581 H 0.22455 0.96146 0.62065 0.0
H582 H 0.23442 0.03814 0.62819 0.0
S583 S 0.40807 0.96947 0.63731 0.0
N584 N 0.37093 0.93346 0.63154 0.0
N585 N 0.38135 0.01618 0.6388 0.0
C586 C 0.33994 0.00373 0.63463 0.0
C587 C 0.33425 0.95889 0.63065 0.0
C588 C 0.98549 0.71913 0.879 0.0
C589 C 0.97322 0.67684 0.87281 0.0
C590 C 0.02914 0.72902 0.88304 0.0
C591 C 0.0619 0.69718 0.88021 0.0
H592 H 0.9613 0.74491 0.88033 0.0
H593 H 0.03727 0.76189 0.88796 0.0
S594 S 0.04662 0.5815 0.86417 0.0
N595 N 0.99729 0.60294 0.86433 0.0
N596 N 0.07903 0.62152 0.87101 0.0
C597 C 0.04997 0.6549 0.87359 0.0
C598 C 0.00571 0.64479 0.86999 0.0
C599 C 0.34546 0.95344 0.35936 0.0
C600 C 0.30413 0.93681 0.35467 0.0
C601 C 0.35089 0.99735 0.36376 0.0
C602 C 0.31528 0.02658 0.3636 0.0
H603 H 0.37405 0.9323 0.35993 0.0
H604 H 0.38337 0.00847 0.36766 0.0
S605 S 0.20014 -0.00027 0.35346 0.0
N606 N 0.22678 0.95313 0.3504 0.0
N607 N 0.23716 0.03595 0.35936 0.0
C608 C 0.27372 0.01071 0.35871 0.0
C609 C 0.26812 0.96575 0.35403 0.0
C610 C 0.95394 0.28977 0.912 0.0
C611 C 0.92094 0.29794 0.88976 0.0
C612 C 0.99705 0.29803 0.90776 0.0
C613 C 0.0086 0.3146 0.88112 0.0
H614 H 0.94628 0.27873 0.93329 0.0
H615 H 0.021 0.29358 0.92597 0.0
S616 S 0.93593 0.3358 0.81461 0.0
N617 N 0.90395 0.31936 0.83905 0.0
N618 N 0.98477 0.33487 0.83134 0.0
C619 C 0.97647 0.32058 0.85823 0.0
C620 C 0.93271 0.31216 0.86246 0.0
C621 C 0.7097 0.01364 0.40293 0.0
C622 C 0.70486 0.02935 0.37415 0.0
C623 C 0.71583 0.96945 0.40859 0.0
C624 C 0.71695 0.93946 0.38565 0.0
H625 H 0.70631 0.03521 0.42118 0.0
H626 H 0.71759 0.95869 0.43108 0.0
S627 S 0.71152 0.96528 0.30648 0.0
N628 N 0.70586 0.01234 0.32262 0.0
N629 N 0.7171 0.92942 0.33308 0.0
C630 C 0.7146 0.95519 0.35682 0.0
C631 C 0.70851 9e-05 0.35113 0.0
C632 C 0.29143 0.47093 0.14457 0.0
C633 C 0.2512 0.45163 0.14295 0.0
C634 C 0.29434 0.51571 0.14435 0.0
C635 C 0.25715 0.54324 0.14257 0.0
H636 H 0.32112 0.45136 0.14589 0.0
H637 H 0.32618 0.52876 0.14559 0.0
S638 S 0.1438 0.50918 0.13763 0.0
N639 N 0.17312 0.4638 0.13948 0.0
N640 N 0.17865 0.54782 0.13895 0.0
C641 C 0.21665 0.52446 0.14105 0.0
C642 C 0.21367 0.47878 0.14126 0.0
C643 C 0.45397 0.29837 0.62816 0.0
C644 C 0.43053 0.26078 0.62972 0.0
C645 C 0.49932 0.29658 0.62978 0.0
C646 C 0.52311 0.25711 0.63297 0.0
H647 H 0.43725 0.32947 0.62538 0.0
H648 H 0.51576 0.32641 0.62822 0.0
S649 S 0.47741 0.14914 0.63905 0.0
N650 N 0.43502 0.18272 0.63533 0.0
N651 N 0.5195 0.1795 0.63836 0.0
C652 C 0.50004 0.21931 0.63495 0.0
C653 C 0.45404 0.22111 0.63334 0.0
C654 C 0.71732 0.48085 0.1383 0.0
C655 C 0.75518 0.45437 0.14015 0.0
C656 C 0.71904 0.52582 0.13799 0.0
C657 C 0.7587 0.54637 0.13953 0.0
H658 H 0.68594 0.46682 0.13695 0.0
H659 H 0.68885 0.54456 0.13643 0.0
S660 S 0.86756 0.49192 0.1448 0.0
N661 N 0.83384 0.45231 0.14366 0.0
N662 N 0.83693 0.53648 0.14314 0.0
C663 C 0.79688 0.5203 0.14154 0.0
C664 C 0.79516 0.4745 0.14183 0.0
C665 C 0.51711 0.78859 0.62718 0.0
C666 C 0.54108 0.74938 0.62612 0.0
C667 C 0.47203 0.78986 0.62604 0.0
C668 C 0.44876 0.75196 0.62373 0.0
H669 H 0.53319 0.81882 0.6289 0.0
H670 H 0.45538 0.82104 0.62682 0.0
S671 S 0.49594 0.6406 0.62048 0.0
N672 N 0.53801 0.67137 0.62284 0.0
N673 N 0.45326 0.67381 0.6207 0.0
C674 C 0.47224 0.71239 0.62275 0.0
C675 C 0.51831 0.71109 0.62394 0.0
C676 C 0.27978 0.47676 0.8867 0.0
C677 C 0.24113 0.45609 0.89053 0.0
C678 C 0.28115 0.52179 0.88643 0.0
C679 C 0.2439 0.54793 0.88985 0.0
H680 H 0.30922 0.4581 0.88359 0.0
H681 H 0.31154 0.53615 0.88308 0.0
S682 S 0.13512 0.51004 0.90269 0.0
N683 N 0.16504 0.46563 0.8993 0.0
N684 N 0.16764 0.54979 0.89869 0.0
C685 C 0.20521 0.52771 0.89426 0.0
C686 C 0.20383 0.48197 0.89462 0.0
C687 C 0.51837 0.29176 0.36777 0.0
C688 C 0.54403 0.25344 0.36871 0.0
C689 C 0.47333 0.29113 0.36622 0.0
C690 C 0.4518 0.25214 0.36552 0.0
H691 H 0.53309 0.32273 0.36866 0.0
H692 H 0.45534 0.32168 0.36591 0.0
S693 S 0.50379 0.14248 0.36611 0.0
N694 N 0.54438 0.1751 0.36778 0.0
N695 N 0.45974 0.17398 0.36492 0.0
C696 C 0.47697 0.21346 0.36582 0.0
C697 C 0.52298 0.2141 0.3674 0.0
C698 C 0.77608 0.51873 0.87985 0.0
C699 C 0.73804 0.54502 0.87899 0.0
C700 C 0.77478 0.47378 0.87984 0.0
C701 C 0.73538 0.453 0.87888 0.0
H702 H 0.8074 0.53287 0.88087 0.0
H703 H 0.80509 0.45526 0.88082 0.0
S704 S 0.62614 0.50689 0.87514 0.0
N705 N 0.65956 0.54677 0.87628 0.0
N706 N 0.65701 0.46246 0.87619 0.0
C707 C 0.69694 0.47887 0.87752 0.0
C708 C 0.6983 0.52474 0.8776 0.0
C709 C 0.50045 0.72255 0.37252 0.0
C710 C 0.4741 0.76044 0.3711 0.0
C711 C 0.54532 0.72382 0.37276 0.0
C712 C 0.56615 0.76306 0.37169 0.0
H713 H 0.48642 0.69132 0.37335 0.0
H714 H 0.56375 0.6935 0.37391 0.0
S715 S 0.51222 0.87187 0.368 0.0
N716 N 0.47225 0.83868 0.36866 0.0
N717 N 0.55679 0.84108 0.36922 0.0
C718 C 0.54031 0.80136 0.3702 0.0
C719 C 0.49434 0.80005 0.3699 0.0
C720 C 0.27005 0.30265 0.01974 0.0
C721 C 0.24247 0.27525 0.03303 0.0
C722 C 0.26881 0.30668 0.98943 0.0
C723 C 0.23894 0.2846 0.97117 0.0
H724 H 0.29179 0.32246 0.03283 0.0
H725 H 0.29007 0.32899 0.98029 0.0
S726 S 0.16119 0.2071 0.99478 0.0
N727 N 0.18656 0.22316 0.02553 0.0
N728 N 0.1821 0.23321 0.96825 0.0
C729 C 0.21148 0.25664 0.98398 0.0
C730 C 0.21378 0.25136 0.01498 0.0
C731 C 0.73197 0.22704 0.48436 0.0
C732 C 0.69893 0.24986 0.4676 0.0
C733 C 0.73313 0.22709 0.51508 0.0
C734 C 0.70074 0.24908 0.52975 0.0
H735 H 0.75716 0.20952 0.47371 0.0
H736 H 0.75928 0.20967 0.52742 0.0
S737 S 0.60456 0.30892 0.49546 0.0
N738 N 0.63193 0.29276 0.46777 0.0
N739 N 0.63292 0.29088 0.52504 0.0
C740 C 0.66693 0.27073 0.51307 0.0
C741 C 0.66632 0.27158 0.48209 0.0
C742 C 0.74168 0.74173 0.97927 0.0
C743 C 0.76683 0.70991 0.9659 0.0
C744 C 0.74359 0.74574 0.00981 0.0
C745 C 0.76976 0.7173 0.02791 0.0
H746 H 0.71988 0.76311 0.96607 0.0
H747 H 0.72339 0.77029 0.01937 0.0
S748 S 0.83918 0.62645 0.0035 0.0
N749 N 0.81827 0.64932 0.97298 0.0
N750 N 0.81953 0.65489 0.03014 0.0
C751 C 0.79499 0.68539 0.01471 0.0
C752 C 0.79407 0.68217 0.98374 0.0
C753 C 0.2571 0.74315 0.48379 0.0
C754 C 0.2854 0.76854 0.46941 0.0
C755 C 0.2571 0.74319 0.51439 0.0
C756 C 0.28445 0.7697 0.53149 0.0
H757 H 0.23632 0.72159 0.47137 0.0
H758 H 0.23652 0.72152 0.52477 0.0
S759 S 0.36434 0.84242 0.50438 0.0
N760 N 0.34184 0.82032 0.47467 0.0
N761 N 0.33987 0.82264 0.53175 0.0
C762 C 0.3113 0.79682 0.51722 0.0
C763 C 0.31223 0.79576 0.48627 0.0
C764 C 0.27162 0.74493 0.98577 0.0
C765 C 0.2439 0.71678 0.97046 0.0
C766 C 0.27256 0.74816 0.01634 0.0
C767 C 0.24692 0.7223 0.03258 0.0
H768 H 0.29331 0.7638 0.97412 0.0
H769 H 0.29499 0.7695 0.02748 0.0
S770 S 0.17052 0.64201 1.00272 0.0
N771 N 0.18991 0.66302 0.9737 0.0
N772 N 0.19398 0.66688 0.031 0.0
C773 C 0.21872 0.6945 0.01741 0.0
C774 C 0.21674 0.69222 0.98637 0.0
C775 C 0.2453 0.27569 0.4857 0.0
C776 C 0.2725 0.2467 0.47146 0.0
C777 C 0.24484 0.27565 0.51626 0.0
C778 C 0.27082 0.24593 0.5335 0.0
H779 H 0.22528 0.29942 0.47319 0.0
H780 H 0.22483 0.29966 0.52652 0.0
S781 S 0.34921 0.16478 0.50697 0.0
N782 N 0.32777 0.18919 0.47716 0.0
N783 N 0.32475 0.18716 0.53414 0.0
C784 C 0.29712 0.21595 0.51943 0.0
C785 C 0.29851 0.21682 0.4885 0.0
C786 C 0.71061 0.30735 0.01494 0.0
C787 C 0.74139 0.27953 0.03 0.0
C788 C 0.70806 0.31077 0.98452 0.0
C789 C 0.73713 0.28762 0.96785 0.0
H790 H 0.68926 0.32808 0.02671 0.0
H791 H 0.68431 0.33337 0.97411 0.0
S792 S 0.82269 0.20894 0.9963 0.0
N793 N 0.79994 0.22633 0.02571 0.0
N794 N 0.79692 0.23483 0.96839 0.0
C795 C 0.76792 0.25936 0.98245 0.0
C796 C 0.76966 0.25488 0.01353 0.0
C797 C 0.75947 0.73719 0.48242 0.0
C798 C 0.72499 0.75668 0.46508 0.0
C799 C 0.76016 0.73851 0.51308 0.0
C800 C 0.72581 0.75821 0.52713 0.0
H801 H 0.78588 0.72092 0.47225 0.0
H802 H 0.7873 0.72339 0.52586 0.0
S803 S 0.62651 0.81041 0.49104 0.0
N804 N 0.65548 0.79525 0.46389 0.0
N805 N 0.65542 0.79531 0.52114 0.0
C806 C 0.69102 0.77723 0.50984 0.0
C807 C 0.69093 0.77699 0.47888 0.0
C808 C 0.50966 0.27437 0.13654 0.0
C809 C 0.52174 0.31697 0.13271 0.0
C810 C 0.46695 0.26513 0.14145 0.0
C811 C 0.43475 0.29814 0.14213 0.0
H812 H 0.5331 0.24791 0.1351 0.0
H813 H 0.45893 0.23188 0.14406 0.0
S814 S 0.45041 0.41524 0.13426 0.0
N815 N 0.49855 0.39244 0.13077 0.0
N816 N 0.41846 0.37535 0.13945 0.0
C817 C 0.44663 0.3409 0.13842 0.0
C818 C 0.49002 0.35021 0.13373 0.0
C819 C 0.64825 0.45111 0.6276 0.0
C820 C 0.68868 0.43075 0.63549 0.0
C821 C 0.64426 0.49518 0.62182 0.0
C822 C 0.68044 0.5208 0.62379 0.0
H823 H 0.61923 0.43289 0.6258 0.0
H824 H 0.61245 0.50936 0.61579 0.0
S825 S 0.7939 0.48337 0.64178 0.0
N826 N 0.76596 0.43965 0.64414 0.0
N827 N 0.75827 0.52277 0.63267 0.0
C828 C 0.72113 0.50113 0.63145 0.0
C829 C 0.72528 0.45604 0.63749 0.0
C830 C 0.54928 0.72056 0.15161 0.0
C831 C 0.57722 0.70863 0.12999 0.0
C832 C 0.50565 0.71031 0.14886 0.0
C833 C 0.48842 0.68818 0.12426 0.0
H834 H 0.56163 0.73576 0.17157 0.0
H835 H 0.48612 0.71756 0.16689 0.0
S836 S 0.54626 0.65592 0.05946 0.0
N837 N 0.58328 0.67782 0.08173 0.0
N838 N 0.50137 0.65896 0.07649 0.0
C839 C 0.51534 0.67863 0.10168 0.0
C840 C 0.55969 0.68885 0.10452 0.0
C841 C 0.28182 0.46156 0.62756 0.0
C842 C 0.27914 0.44478 0.59904 0.0
C843 C 0.28859 0.50513 0.63269 0.0
C844 C 0.29245 0.53383 0.60956 0.0
H845 H 0.28033 0.44064 0.64627 0.0
H846 H 0.29227 0.5162 0.65508 0.0
S847 S 0.28527 0.50733 0.53073 0.0
N848 N 0.27839 0.46118 0.54715 0.0
N849 N 0.29164 0.54317 0.55705 0.0
C850 C 0.28768 0.51822 0.58087 0.0
C851 C 0.28081 0.47365 0.57555 0.0
C852 C 0.5388 0.70504 0.92033 0.0
C853 C 0.56431 0.70357 0.8962 0.0
C854 C 0.49424 0.69896 0.91687 0.0
C855 C 0.47382 0.69121 0.88918 0.0
H856 H 0.55356 0.70887 0.94223 0.0
H857 H 0.47623 0.69785 0.93612 0.0
S858 S 0.52406 0.6912 0.81855 0.0
N859 N 0.56426 0.699 0.84325 0.0
N860 N 0.48086 0.6873 0.83699 0.0
C861 C 0.49823 0.69252 0.86476 0.0
C862 C 0.54338 0.69886 0.86819 0.0
C863 C 0.34456 0.45315 0.37212 0.0
C864 C 0.3021 0.44172 0.37634 0.0
C865 C 0.35712 0.49562 0.37522 0.0
C866 C 0.3278 0.52861 0.38252 0.0
H867 H 0.36856 0.4291 0.3663 0.0
H868 H 0.39017 0.50272 0.37175 0.0
S869 S 0.21377 0.51598 0.39804 0.0
N870 N 0.23102 0.46707 0.38933 0.0
N871 N 0.25515 0.54707 0.39563 0.0
C872 C 0.28538 0.51792 0.38714 0.0
C873 C 0.2724 0.47446 0.38388 0.0
C874 C 0.43264 0.30447 0.87134 0.0
C875 C 0.42098 0.30852 0.9003 0.0
C876 C 0.47544 0.30774 0.86454 0.0
C877 C 0.50839 0.3145 0.88641 0.0
H878 H 0.40835 0.30027 0.85353 0.0
H879 H 0.48267 0.30606 0.84185 0.0
S880 S 0.49594 0.32556 0.96572 0.0
N881 N 0.44669 0.31783 0.95124 0.0
N882 N 0.52713 0.32443 0.93818 0.0
C883 C 0.49776 0.31692 0.91555 0.0
C884 C 0.45404 0.31374 0.92256 0.0
C885 C 0.66388 0.45767 0.38495 0.0
C886 C 0.70458 0.43603 0.38715 0.0
C887 C 0.65984 0.50224 0.38131 0.0
C888 C 0.69628 0.52708 0.37985 0.0
H889 H 0.63468 0.44002 0.38571 0.0
H890 H 0.62776 0.51736 0.37926 0.0
S891 S 0.81015 0.48643 0.38349 0.0
N892 N 0.78226 0.44301 0.38738 0.0
N893 N 0.77435 0.52711 0.38007 0.0
C894 C 0.73726 0.50621 0.38234 0.0
C895 C 0.74148 0.4606 0.38615 0.0
C896 C 0.28723 0.23335 0.26296 0.0
C897 C 0.26744 0.25918 0.28369 0.0
C898 C 0.27936 0.24162 0.233 0.0
C899 C 0.25039 0.27503 0.22279 0.0
H900 H 0.31113 0.20846 0.26995 0.0
H901 H 0.29721 0.22275 0.21776 0.0
S902 S 0.18686 0.34872 0.26815 0.0
N903 N 0.21566 0.31756 0.29201 0.0
N904 N 0.1994 0.33195 0.23562 0.0
C905 C 0.22808 0.29905 0.24323 0.0
C906 C 0.23702 0.29143 0.27374 0.0
C907 C 0.73345 0.28607 0.76118 0.0
C908 C 0.72306 0.25375 0.78044 0.0
C909 C 0.72423 0.28209 0.73102 0.0
C910 C 0.70448 0.24549 0.71898 0.0
H911 H 0.74703 0.31551 0.76962 0.0
H912 H 0.73135 0.3086 0.71712 0.0
S913 S 0.67407 0.15039 0.76054 0.0
N914 N 0.69458 0.18309 0.78578 0.0
N915 N 0.67723 0.1751 0.729 0.0
C916 C 0.69603 0.21191 0.73807 0.0
C917 C 0.70522 0.21623 0.76884 0.0
C918 C 0.79906 0.7178 0.23774 0.0
C919 C 0.76341 0.72645 0.21747 0.0
C920 C 0.79652 0.72589 0.26764 0.0
C921 C 0.7585 0.74344 0.27822 0.0
H922 H 0.82857 0.70285 0.2307 0.0
H923 H 0.82398 0.71724 0.28269 0.0
S924 S 0.65734 0.77534 0.23456 0.0
N925 N 0.68988 0.75647 0.21037 0.0
N926 N 0.68526 0.77114 0.26649 0.0
C927 C 0.72337 0.75402 0.25825 0.0
C928 C 0.7258 0.74571 0.22789 0.0
C929 C 0.23197 0.76504 0.76565 0.0
C930 C 0.25704 0.73311 0.78151 0.0
C931 C 0.2352 0.77036 0.7355 0.0
C932 C 0.2639 0.74417 0.72034 0.0
H933 H 0.20983 0.78607 0.77666 0.0
H934 H 0.21523 0.79513 0.72396 0.0
S935 S 0.33706 0.65633 0.75199 0.0
N936 N 0.31005 0.67382 0.7795 0.0
N937 N 0.31942 0.68675 0.72386 0.0
C938 C 0.28957 0.71266 0.73612 0.0
C939 C 0.28532 0.7064 0.76645 0.0
C940 C 0.71542 0.77077 0.76361 0.0
C941 C 0.73411 0.73315 0.77669 0.0
C942 C 0.70775 0.77381 0.73319 0.0
C943 C 0.71812 0.73909 0.71484 0.0
H944 H 0.70592 0.79766 0.77702 0.0
H945 H 0.69212 0.80308 0.72414 0.0
S946 S 0.76976 0.63417 0.73889 0.0
N947 N 0.76388 0.66093 0.76946 0.0
N948 N 0.75055 0.66686 0.71232 0.0
C949 C 0.73815 0.70179 0.72782 0.0
C950 C 0.74586 0.69875 0.75875 0.0
C951 C 0.32177 0.69353 0.23921 0.0
C952 C 0.28911 0.71648 0.22221 0.0
C953 C 0.32886 0.70115 0.26913 0.0
C954 C 0.30433 0.73279 0.28311 0.0
H955 H 0.34137 0.66863 0.22949 0.0
H956 H 0.35431 0.68251 0.28133 0.0
S957 S 0.21567 0.80259 0.24834 0.0
N958 N 0.2319 0.77216 0.22145 0.0
N959 N 0.24657 0.7878 0.27774 0.0
C960 C 0.27208 0.75661 0.26635 0.0
C961 C 0.26408 0.74806 0.23589 0.0
C962 C 0.25909 0.30117 0.73601 0.0
C963 C 0.23216 0.27462 0.7187 0.0
C964 C 0.25616 0.30395 0.76616 0.0
C965 C 0.22724 0.27915 0.78039 0.0
H966 H 0.28344 0.31922 0.72633 0.0
H967 H 0.27722 0.32535 0.77848 0.0
S968 S 0.14804 0.20627 0.74479 0.0
N969 N 0.17302 0.22584 0.71752 0.0
N970 N 0.17032 0.22791 0.77481 0.0
C971 C 0.19957 0.25298 0.76333 0.0
C972 C 0.20145 0.25139 0.73236 0.0
C973 C 0.70877 0.25022 0.2605 0.0
C974 C 0.74108 0.26271 0.28143 0.0
C975 C 0.71202 0.25806 0.23071 0.0
C976 C 0.74799 0.27813 0.22081 0.0
H977 H 0.67994 0.23598 0.26733 0.0
H978 H 0.68567 0.2493 0.21539 0.0
S979 S 0.84224 0.31484 0.26733 0.0
N980 N 0.8105 0.2946 0.29063 0.0
N981 N 0.81747 0.30866 0.23461 0.0
C982 C 0.78143 0.28897 0.24161 0.0
C983 C 0.77769 0.28153 0.27195 0.0
loop_
_geom_bond_atom_site_label_1
_geom_bond_atom_site_label_2
_geom_bond_distance
_geom_bond_site_symmetry_2
_ccdc_geom_bond_type
Co0 O3 1.970 . S
Co0 N17 1.989 . S
Co0 O25 1.967 . S
Co0 O32 1.920 . S
Co1 O4 1.966 . S
Co1 N10 2.022 . S
Co1 N18 1.993 . S
Co1 O26 1.941 . S
C2 O3 1.258 . S
C2 O4 1.263 . S
O3 Co0 1.970 . S
O3 C2 1.258 . S
O4 Co1 1.966 . S
O4 C2 1.263 . S
C5 O6 1.235 . S
C5 O32 1.289 . S
O6 C5 1.235 . S
C7 C9 1.400 . S
C7 N10 1.351 . S
C7 C12 1.501 . S
C8 C9 1.387 . S
C8 N11 1.341 . S
C9 C7 1.400 . S
C9 C8 1.387 . S
N10 Co1 2.022 . S
N10 C7 1.351 . S
N10 N11 1.365 . S
N11 C8 1.341 . S
N11 N10 1.365 . S
N11 H31 0.862 . S
C12 C7 1.501 . S
C12 H13 0.961 . S
C12 H14 0.961 . S
C12 H15 0.960 . S
H13 C12 0.961 . S
H14 C12 0.961 . S
H15 C12 0.960 . S
C16 N17 1.342 . S
C16 C20 1.401 . S
C16 C21 1.499 . S
N17 Co0 1.989 . S
N17 C16 1.342 . S
N17 N18 1.388 . S
N18 Co1 1.993 . S
N18 N17 1.388 . S
N18 C19 1.346 . S
C19 N18 1.346 . S
C19 C20 1.396 . S
C19 C29 1.510 . S
C20 C16 1.401 . S
C20 C19 1.396 . S
C21 C16 1.499 . S
C21 H22 0.959 . S
C21 H23 0.960 . S
C21 H24 0.961 . S
H22 C21 0.959 . S
H23 C21 0.960 . S
H24 C21 0.961 . S
O25 Co0 1.967 . S
O25 C33 1.258 . S
O26 Co1 1.941 . S
O26 C33 1.266 . S
H27 C29 0.959 . S
H28 C29 0.961 . S
C29 C19 1.510 . S
C29 H27 0.959 . S
C29 H28 0.961 . S
C29 H30 0.960 . S
H30 C29 0.960 . S
H31 N11 0.862 . S
O32 Co0 1.920 . S
O32 C5 1.289 . S
C33 O25 1.258 . S
C33 O26 1.266 . S
Co34 O37 1.970 . S
Co34 N51 1.989 . S
Co34 O59 1.967 . S
Co34 O66 1.920 . S
Co35 O38 1.966 . S
Co35 N44 2.022 . S
Co35 N52 1.993 . S
Co35 O60 1.941 . S
C36 O37 1.258 . S
C36 O38 1.263 . S
O37 Co34 1.970 . S
O37 C36 1.258 . S
O38 Co35 1.966 . S
O38 C36 1.263 . S
C39 O40 1.235 . S
C39 O66 1.289 . S
O40 C39 1.235 . S
C41 C43 1.400 . S
C41 N44 1.351 . S
C41 C46 1.501 . S
C42 C43 1.387 . S
C42 N45 1.341 . S
C43 C41 1.400 . S
C43 C42 1.387 . S
N44 Co35 2.022 . S
N44 C41 1.351 . S
N44 N45 1.365 . S
N45 C42 1.341 . S
N45 N44 1.365 . S
N45 H65 0.862 . S
C46 C41 1.501 . S
C46 H47 0.961 . S
C46 H48 0.961 . S
C46 H49 0.960 . S
H47 C46 0.961 . S
H48 C46 0.961 . S
H49 C46 0.960 . S
C50 N51 1.342 . S
C50 C54 1.401 . S
C50 C55 1.499 . S
N51 Co34 1.989 . S
N51 C50 1.342 . S
N51 N52 1.388 . S
N52 Co35 1.993 . S
N52 N51 1.388 . S
N52 C53 1.346 . S
C53 N52 1.346 . S
C53 C54 1.396 . S
C53 C63 1.510 . S
C54 C50 1.401 . S
C54 C53 1.396 . S
C55 C50 1.499 . S
C55 H56 0.959 . S
C55 H57 0.960 . S
C55 H58 0.961 . S
H56 C55 0.959 . S
H57 C55 0.960 . S
H58 C55 0.961 . S
O59 Co34 1.967 . S
O59 C67 1.258 . S
O60 Co35 1.941 . S
O60 C67 1.266 . S
H61 C63 0.959 . S
H62 C63 0.961 . S
C63 C53 1.510 . S
C63 H61 0.959 . S
C63 H62 0.961 . S
C63 H64 0.960 . S
H64 C63 0.960 . S
H65 N45 0.862 . S
O66 Co34 1.920 . S
O66 C39 1.289 . S
C67 O59 1.258 . S
C67 O60 1.266 . S
Co68 O71 1.970 . S
Co68 N85 1.989 . S
Co68 O93 1.967 . S
Co68 O100 1.920 . S
Co69 O72 1.966 . S
Co69 N78 2.022 . S
Co69 N86 1.993 . S
Co69 O94 1.941 . S
C70 O71 1.258 . S
C70 O72 1.263 . S
O71 Co68 1.970 . S
O71 C70 1.258 . S
O72 Co69 1.966 . S
O72 C70 1.263 . S
C73 O74 1.235 . S
C73 O100 1.289 . S
O74 C73 1.235 . S
C75 C77 1.400 . S
C75 N78 1.351 . S
C75 C80 1.501 . S
C76 C77 1.387 . S
C76 N79 1.341 . S
C77 C75 1.400 . S
C77 C76 1.387 . S
N78 Co69 2.022 . S
N78 C75 1.351 . S
N78 N79 1.365 . S
N79 C76 1.341 . S
N79 N78 1.365 . S
N79 H99 0.862 . S
C80 C75 1.501 . S
C80 H81 0.961 . S
C80 H82 0.961 . S
C80 H83 0.960 . S
H81 C80 0.961 . S
H82 C80 0.961 . S
H83 C80 0.960 . S
C84 N85 1.342 . S
C84 C88 1.401 . S
C84 C89 1.499 . S
N85 Co68 1.989 . S
N85 C84 1.342 . S
N85 N86 1.388 . S
N86 Co69 1.993 . S
N86 N85 1.388 . S
N86 C87 1.346 . S
C87 N86 1.346 . S
C87 C88 1.396 . S
C87 C97 1.510 . S
C88 C84 1.401 . S
C88 C87 1.396 . S
C89 C84 1.499 . S
C89 H90 0.959 . S
C89 H91 0.960 . S
C89 H92 0.961 . S
H90 C89 0.959 . S
H91 C89 0.960 . S
H92 C89 0.961 . S
O93 Co68 1.967 . S
O93 C101 1.258 . S
O94 Co69 1.941 . S
O94 C101 1.266 . S
H95 C97 0.959 . S
H96 C97 0.961 . S
C97 C87 1.510 . S
C97 H95 0.959 . S
C97 H96 0.961 . S
C97 H98 0.960 . S
H98 C97 0.960 . S
H99 N79 0.862 . S
O100 Co68 1.920 . S
O100 C73 1.289 . S
C101 O93 1.258 . S
C101 O94 1.266 . S
Co102 O105 1.970 . S
Co102 N119 1.989 . S
Co102 O127 1.967 . S
Co102 O134 1.920 . S
Co103 O106 1.966 . S
Co103 N112 2.022 . S
Co103 N120 1.993 . S
Co103 O128 1.941 . S
C104 O105 1.258 . S
C104 O106 1.263 . S
O105 Co102 1.970 . S
O105 C104 1.258 . S
O106 Co103 1.966 . S
O106 C104 1.263 . S
C107 O108 1.235 . S
C107 O134 1.289 . S
O108 C107 1.235 . S
C109 C111 1.400 . S
C109 N112 1.351 . S
C109 C114 1.501 . S
C110 C111 1.387 . S
C110 N113 1.341 . S
C111 C109 1.400 . S
C111 C110 1.387 . S
N112 Co103 2.022 . S
N112 C109 1.351 . S
N112 N113 1.365 . S
N113 C110 1.341 . S
N113 N112 1.365 . S
N113 H133 0.862 . S
C114 C109 1.501 . S
C114 H115 0.961 . S
C114 H116 0.961 . S
C114 H117 0.960 . S
H115 C114 0.961 . S
H116 C114 0.961 . S
H117 C114 0.960 . S
C118 N119 1.342 . S
C118 C122 1.401 . S
C118 C123 1.499 . S
N119 Co102 1.989 . S
N119 C118 1.342 . S
N119 N120 1.388 . S
N120 Co103 1.993 . S
N120 N119 1.388 . S
N120 C121 1.346 . S
C121 N120 1.346 . S
C121 C122 1.396 . S
C121 C131 1.510 . S
C122 C118 1.401 . S
C122 C121 1.396 . S
C123 C118 1.499 . S
C123 H124 0.959 . S
C123 H125 0.960 . S
C123 H126 0.961 . S
H124 C123 0.959 . S
H125 C123 0.960 . S
H126 C123 0.961 . S
O127 Co102 1.967 . S
O127 C135 1.258 . S
O128 Co103 1.941 . S
O128 C135 1.266 . S
H129 C131 0.959 . S
H130 C131 0.961 . S
C131 C121 1.510 . S
C131 H129 0.959 . S
C131 H130 0.961 . S
C131 H132 0.960 . S
H132 C131 0.960 . S
H133 N113 0.862 . S
O134 Co102 1.920 . S
O134 C107 1.289 . S
C135 O127 1.258 . S
C135 O128 1.266 . S
Co136 O139 1.970 . S
Co136 N153 1.989 . S
Co136 O161 1.967 . S
Co136 O168 1.920 . S
Co137 O140 1.966 . S
Co137 N146 2.022 . S
Co137 N154 1.993 . S
Co137 O162 1.941 . S
C138 O139 1.258 . S
C138 O140 1.263 . S
O139 Co136 1.970 . S
O139 C138 1.258 . S
O140 Co137 1.966 . S
O140 C138 1.263 . S
C141 O142 1.235 . S
C141 O168 1.289 . S
O142 C141 1.235 . S
C143 C145 1.400 . S
C143 N146 1.351 . S
C143 C148 1.501 . S
C144 C145 1.387 . S
C144 N147 1.341 . S
C145 C143 1.400 . S
C145 C144 1.387 . S
N146 Co137 2.022 . S
N146 C143 1.351 . S
N146 N147 1.365 . S
N147 C144 1.341 . S
N147 N146 1.365 . S
N147 H167 0.862 . S
C148 C143 1.501 . S
C148 H149 0.961 . S
C148 H150 0.961 . S
C148 H151 0.960 . S
H149 C148 0.961 . S
H150 C148 0.961 . S
H151 C148 0.960 . S
C152 N153 1.342 . S
C152 C156 1.401 . S
C152 C157 1.499 . S
N153 Co136 1.989 . S
N153 C152 1.342 . S
N153 N154 1.388 . S
N154 Co137 1.993 . S
N154 N153 1.388 . S
N154 C155 1.346 . S
C155 N154 1.346 . S
C155 C156 1.396 . S
C155 C165 1.510 . S
C156 C152 1.401 . S
C156 C155 1.396 . S
C157 C152 1.499 . S
C157 H158 0.959 . S
C157 H159 0.960 . S
C157 H160 0.961 . S
H158 C157 0.959 . S
H159 C157 0.960 . S
H160 C157 0.961 . S
O161 Co136 1.967 . S
O161 C169 1.258 . S
O162 Co137 1.941 . S
O162 C169 1.266 . S
H163 C165 0.959 . S
H164 C165 0.961 . S
C165 C155 1.510 . S
C165 H163 0.959 . S
C165 H164 0.961 . S
C165 H166 0.960 . S
H166 C165 0.960 . S
H167 N147 0.862 . S
O168 Co136 1.920 . S
O168 C141 1.289 . S
C169 O161 1.258 . S
C169 O162 1.266 . S
Co170 O173 1.970 . S
Co170 N187 1.989 . S
Co170 O195 1.967 . S
Co170 O202 1.920 . S
Co171 O174 1.966 . S
Co171 N180 2.022 . S
Co171 N188 1.993 . S
Co171 O196 1.941 . S
C172 O173 1.258 . S
C172 O174 1.263 . S
O173 Co170 1.970 . S
O173 C172 1.258 . S
O174 Co171 1.966 . S
O174 C172 1.263 . S
C175 O176 1.235 . S
C175 O202 1.289 . S
O176 C175 1.235 . S
C177 C179 1.400 . S
C177 N180 1.351 . S
C177 C182 1.501 . S
C178 C179 1.387 . S
C178 N181 1.341 . S
C179 C177 1.400 . S
C179 C178 1.387 . S
N180 Co171 2.022 . S
N180 C177 1.351 . S
N180 N181 1.365 . S
N181 C178 1.341 . S
N181 N180 1.365 . S
N181 H201 0.862 . S
C182 C177 1.501 . S
C182 H183 0.961 . S
C182 H184 0.961 . S
C182 H185 0.960 . S
H183 C182 0.961 . S
H184 C182 0.961 . S
H185 C182 0.960 . S
C186 N187 1.342 . S
C186 C190 1.401 . S
C186 C191 1.499 . S
N187 Co170 1.989 . S
N187 C186 1.342 . S
N187 N188 1.388 . S
N188 Co171 1.993 . S
N188 N187 1.388 . S
N188 C189 1.346 . S
C189 N188 1.346 . S
C189 C190 1.396 . S
C189 C199 1.510 . S
C190 C186 1.401 . S
C190 C189 1.396 . S
C191 C186 1.499 . S
C191 H192 0.959 . S
C191 H193 0.960 . S
C191 H194 0.961 . S
H192 C191 0.959 . S
H193 C191 0.960 . S
H194 C191 0.961 . S
O195 Co170 1.967 . S
O195 C203 1.258 . S
O196 Co171 1.941 . S
O196 C203 1.266 . S
H197 C199 0.959 . S
H198 C199 0.961 . S
C199 C189 1.510 . S
C199 H197 0.959 . S
C199 H198 0.961 . S
C199 H200 0.960 . S
H200 C199 0.960 . S
H201 N181 0.862 . S
O202 Co170 1.920 . S
O202 C175 1.289 . S
C203 O195 1.258 . S
C203 O196 1.266 . S
Co204 O207 1.970 . S
Co204 N221 1.989 . S
Co204 O229 1.967 . S
Co204 O236 1.920 . S
Co205 O208 1.966 . S
Co205 N214 2.022 . S
Co205 N222 1.993 . S
Co205 O230 1.941 . S
C206 O207 1.258 . S
C206 O208 1.263 . S
O207 Co204 1.970 . S
O207 C206 1.258 . S
O208 Co205 1.966 . S
O208 C206 1.263 . S
C209 O210 1.235 . S
C209 O236 1.289 . S
O210 C209 1.235 . S
C211 C213 1.400 . S
C211 N214 1.351 . S
C211 C216 1.501 . S
C212 C213 1.387 . S
C212 N215 1.341 . S
C213 C211 1.400 . S
C213 C212 1.387 . S
N214 Co205 2.022 . S
N214 C211 1.351 . S
N214 N215 1.365 . S
N215 C212 1.341 . S
N215 N214 1.365 . S
N215 H235 0.862 . S
C216 C211 1.501 . S
C216 H217 0.961 . S
C216 H218 0.961 . S
C216 H219 0.960 . S
H217 C216 0.961 . S
H218 C216 0.961 . S
H219 C216 0.960 . S
C220 N221 1.342 . S
C220 C224 1.401 . S
C220 C225 1.499 . S
N221 Co204 1.989 . S
N221 C220 1.342 . S
N221 N222 1.388 . S
N222 Co205 1.993 . S
N222 N221 1.388 . S
N222 C223 1.346 . S
C223 N222 1.346 . S
C223 C224 1.396 . S
C223 C233 1.510 . S
C224 C220 1.401 . S
C224 C223 1.396 . S
C225 C220 1.499 . S
C225 H226 0.959 . S
C225 H227 0.960 . S
C225 H228 0.961 . S
H226 C225 0.959 . S
H227 C225 0.960 . S
H228 C225 0.961 . S
O229 Co204 1.967 . S
O229 C237 1.258 . S
O230 Co205 1.941 . S
O230 C237 1.266 . S
H231 C233 0.959 . S
H232 C233 0.961 . S
C233 C223 1.510 . S
C233 H231 0.959 . S
C233 H232 0.961 . S
C233 H234 0.960 . S
H234 C233 0.960 . S
H235 N215 0.862 . S
O236 Co204 1.920 . S
O236 C209 1.289 . S
C237 O229 1.258 . S
C237 O230 1.266 . S
Co238 O241 1.970 . S
Co238 N255 1.989 . S
Co238 O263 1.967 . S
Co238 O270 1.920 . S
Co239 O242 1.966 . S
Co239 N248 2.022 . S
Co239 N256 1.993 . S
Co239 O264 1.941 . S
C240 O241 1.258 . S
C240 O242 1.263 . S
O241 Co238 1.970 . S
O241 C240 1.258 . S
O242 Co239 1.966 . S
O242 C240 1.263 . S
C243 O244 1.235 . S
C243 O270 1.289 . S
O244 C243 1.235 . S
C245 C247 1.400 . S
C245 N248 1.351 . S
C245 C250 1.501 . S
C246 C247 1.387 . S
C246 N249 1.341 . S
C247 C245 1.400 . S
C247 C246 1.387 . S
N248 Co239 2.022 . S
N248 C245 1.351 . S
N248 N249 1.365 . S
N249 C246 1.341 . S
N249 N248 1.365 . S
N249 H269 0.862 . S
C250 C245 1.501 . S
C250 H251 0.961 . S
C250 H252 0.961 . S
C250 H253 0.960 . S
H251 C250 0.961 . S
H252 C250 0.961 . S
H253 C250 0.960 . S
C254 N255 1.342 . S
C254 C258 1.401 . S
C254 C259 1.499 . S
N255 Co238 1.989 . S
N255 C254 1.342 . S
N255 N256 1.388 . S
N256 Co239 1.993 . S
N256 N255 1.388 . S
N256 C257 1.346 . S
C257 N256 1.346 . S
C257 C258 1.396 . S
C257 C267 1.510 . S
C258 C254 1.401 . S
C258 C257 1.396 . S
C259 C254 1.499 . S
C259 H260 0.959 . S
C259 H261 0.960 . S
C259 H262 0.961 . S
H260 C259 0.959 . S
H261 C259 0.960 . S
H262 C259 0.961 . S
O263 Co238 1.967 . S
O263 C271 1.258 . S
O264 Co239 1.941 . S
O264 C271 1.266 . S
H265 C267 0.959 . S
H266 C267 0.961 . S
C267 C257 1.510 . S
C267 H265 0.959 . S
C267 H266 0.961 . S
C267 H268 0.960 . S
H268 C267 0.960 . S
H269 N249 0.862 . S
O270 Co238 1.920 . S
O270 C243 1.289 . S
C271 O263 1.258 . S
C271 O264 1.266 . S
Co272 O275 1.970 . S
Co272 N289 1.989 . S
Co272 O297 1.967 . S
Co272 O304 1.920 . S
Co273 O276 1.966 . S
Co273 N282 2.022 . S
Co273 N290 1.993 . S
Co273 O298 1.941 . S
C274 O275 1.258 . S
C274 O276 1.263 . S
O275 Co272 1.970 . S
O275 C274 1.258 . S
O276 Co273 1.966 . S
O276 C274 1.263 . S
C277 O278 1.235 . S
C277 O304 1.289 . S
O278 C277 1.235 . S
C279 C281 1.400 . S
C279 N282 1.351 . S
C279 C284 1.501 . S
C280 C281 1.387 . S
C280 N283 1.341 . S
C281 C279 1.400 . S
C281 C280 1.387 . S
N282 Co273 2.022 . S
N282 C279 1.351 . S
N282 N283 1.365 . S
N283 C280 1.341 . S
N283 N282 1.365 . S
N283 H303 0.862 . S
C284 C279 1.501 . S
C284 H285 0.961 . S
C284 H286 0.961 . S
C284 H287 0.960 . S
H285 C284 0.961 . S
H286 C284 0.961 . S
H287 C284 0.960 . S
C288 N289 1.342 . S
C288 C292 1.401 . S
C288 C293 1.499 . S
N289 Co272 1.989 . S
N289 C288 1.342 . S
N289 N290 1.388 . S
N290 Co273 1.993 . S
N290 N289 1.388 . S
N290 C291 1.346 . S
C291 N290 1.346 . S
C291 C292 1.396 . S
C291 C301 1.510 . S
C292 C288 1.401 . S
C292 C291 1.396 . S
C293 C288 1.499 . S
C293 H294 0.959 . S
C293 H295 0.960 . S
C293 H296 0.961 . S
H294 C293 0.959 . S
H295 C293 0.960 . S
H296 C293 0.961 . S
O297 Co272 1.967 . S
O297 C305 1.258 . S
O298 Co273 1.941 . S
O298 C305 1.266 . S
H299 C301 0.959 . S
H300 C301 0.961 . S
C301 C291 1.510 . S
C301 H299 0.959 . S
C301 H300 0.961 . S
C301 H302 0.960 . S
H302 C301 0.960 . S
H303 N283 0.862 . S
O304 Co272 1.920 . S
O304 C277 1.289 . S
C305 O297 1.258 . S
C305 O298 1.266 . S
Co306 O309 1.970 . S
Co306 N323 1.989 . S
Co306 O331 1.967 . S
Co306 O338 1.920 . S
Co307 O310 1.966 . S
Co307 N316 2.022 . S
Co307 N324 1.993 . S
Co307 O332 1.941 . S
C308 O309 1.258 . S
C308 O310 1.263 . S
O309 Co306 1.970 . S
O309 C308 1.258 . S
O310 Co307 1.966 . S
O310 C308 1.263 . S
C311 O312 1.235 . S
C311 O338 1.289 . S
O312 C311 1.235 . S
C313 C315 1.400 . S
C313 N316 1.351 . S
C313 C318 1.501 . S
C314 C315 1.387 . S
C314 N317 1.341 . S
C315 C313 1.400 . S
C315 C314 1.387 . S
N316 Co307 2.022 . S
N316 C313 1.351 . S
N316 N317 1.365 . S
N317 C314 1.341 . S
N317 N316 1.365 . S
N317 H337 0.862 . S
C318 C313 1.501 . S
C318 H319 0.961 . S
C318 H320 0.961 . S
C318 H321 0.960 . S
H319 C318 0.961 . S
H320 C318 0.961 . S
H321 C318 0.960 . S
C322 N323 1.342 . S
C322 C326 1.401 . S
C322 C327 1.499 . S
N323 Co306 1.989 . S
N323 C322 1.342 . S
N323 N324 1.388 . S
N324 Co307 1.993 . S
N324 N323 1.388 . S
N324 C325 1.346 . S
C325 N324 1.346 . S
C325 C326 1.396 . S
C325 C335 1.510 . S
C326 C322 1.401 . S
C326 C325 1.396 . S
C327 C322 1.499 . S
C327 H328 0.959 . S
C327 H329 0.960 . S
C327 H330 0.961 . S
H328 C327 0.959 . S
H329 C327 0.960 . S
H330 C327 0.961 . S
O331 Co306 1.967 . S
O331 C339 1.258 . S
O332 Co307 1.941 . S
O332 C339 1.266 . S
H333 C335 0.959 . S
H334 C335 0.961 . S
C335 C325 1.510 . S
C335 H333 0.959 . S
C335 H334 0.961 . S
C335 H336 0.960 . S
H336 C335 0.960 . S
H337 N317 0.862 . S
O338 Co306 1.920 . S
O338 C311 1.289 . S
C339 O331 1.258 . S
C339 O332 1.266 . S
Co340 O343 1.970 . S
Co340 N357 1.989 . S
Co340 O365 1.967 . S
Co340 O372 1.920 . S
Co341 O344 1.966 . S
Co341 N350 2.022 . S
Co341 N358 1.993 . S
Co341 O366 1.941 . S
C342 O343 1.258 . S
C342 O344 1.263 . S
O343 Co340 1.970 . S
O343 C342 1.258 . S
O344 Co341 1.966 . S
O344 C342 1.263 . S
C345 O346 1.235 . S
C345 O372 1.289 . S
O346 C345 1.235 . S
C347 C349 1.400 . S
C347 N350 1.351 . S
C347 C352 1.501 . S
C348 C349 1.387 . S
C348 N351 1.341 . S
C349 C347 1.400 . S
C349 C348 1.387 . S
N350 Co341 2.022 . S
N350 C347 1.351 . S
N350 N351 1.365 . S
N351 C348 1.341 . S
N351 N350 1.365 . S
N351 H371 0.862 . S
C352 C347 1.501 . S
C352 H353 0.961 . S
C352 H354 0.961 . S
C352 H355 0.960 . S
H353 C352 0.961 . S
H354 C352 0.961 . S
H355 C352 0.960 . S
C356 N357 1.342 . S
C356 C360 1.401 . S
C356 C361 1.499 . S
N357 Co340 1.989 . S
N357 C356 1.342 . S
N357 N358 1.388 . S
N358 Co341 1.993 . S
N358 N357 1.388 . S
N358 C359 1.346 . S
C359 N358 1.346 . S
C359 C360 1.396 . S
C359 C369 1.510 . S
C360 C356 1.401 . S
C360 C359 1.396 . S
C361 C356 1.499 . S
C361 H362 0.959 . S
C361 H363 0.960 . S
C361 H364 0.961 . S
H362 C361 0.959 . S
H363 C361 0.960 . S
H364 C361 0.961 . S
O365 Co340 1.967 . S
O365 C373 1.258 . S
O366 Co341 1.941 . S
O366 C373 1.266 . S
H367 C369 0.959 . S
H368 C369 0.961 . S
C369 C359 1.510 . S
C369 H367 0.959 . S
C369 H368 0.961 . S
C369 H370 0.960 . S
H370 C369 0.960 . S
H371 N351 0.862 . S
O372 Co340 1.920 . S
O372 C345 1.289 . S
C373 O365 1.258 . S
C373 O366 1.266 . S
Co374 O377 1.970 . S
Co374 N391 1.989 . S
Co374 O399 1.967 . S
Co374 O406 1.920 . S
Co375 O378 1.966 . S
Co375 N384 2.022 . S
Co375 N392 1.993 . S
Co375 O400 1.941 . S
C376 O377 1.258 . S
C376 O378 1.263 . S
O377 Co374 1.970 . S
O377 C376 1.258 . S
O378 Co375 1.966 . S
O378 C376 1.263 . S
C379 O380 1.235 . S
C379 O406 1.289 . S
O380 C379 1.235 . S
C381 C383 1.400 . S
C381 N384 1.351 . S
C381 C386 1.501 . S
C382 C383 1.387 . S
C382 N385 1.341 . S
C383 C381 1.400 . S
C383 C382 1.387 . S
N384 Co375 2.022 . S
N384 C381 1.351 . S
N384 N385 1.365 . S
N385 C382 1.341 . S
N385 N384 1.365 . S
N385 H405 0.862 . S
C386 C381 1.501 . S
C386 H387 0.961 . S
C386 H388 0.961 . S
C386 H389 0.960 . S
H387 C386 0.961 . S
H388 C386 0.961 . S
H389 C386 0.960 . S
C390 N391 1.342 . S
C390 C394 1.401 . S
C390 C395 1.499 . S
N391 Co374 1.989 . S
N391 C390 1.342 . S
N391 N392 1.388 . S
N392 Co375 1.993 . S
N392 N391 1.388 . S
N392 C393 1.346 . S
C393 N392 1.346 . S
C393 C394 1.396 . S
C393 C403 1.510 . S
C394 C390 1.401 . S
C394 C393 1.396 . S
C395 C390 1.499 . S
C395 H396 0.959 . S
C395 H397 0.960 . S
C395 H398 0.961 . S
H396 C395 0.959 . S
H397 C395 0.960 . S
H398 C395 0.961 . S
O399 Co374 1.967 . S
O399 C407 1.258 . S
O400 Co375 1.941 . S
O400 C407 1.266 . S
H401 C403 0.959 . S
H402 C403 0.961 . S
C403 C393 1.510 . S
C403 H401 0.959 . S
C403 H402 0.961 . S
C403 H404 0.960 . S
H404 C403 0.960 . S
H405 N385 0.862 . S
O406 Co374 1.920 . S
O406 C379 1.289 . S
C407 O399 1.258 . S
C407 O400 1.266 . S
Co408 O411 1.970 . S
Co408 N425 1.989 . S
Co408 O433 1.967 . S
Co408 O440 1.920 . S
Co409 O412 1.966 . S
Co409 N418 2.022 . S
Co409 N426 1.993 . S
Co409 O434 1.941 . S
C410 O411 1.258 . S
C410 O412 1.263 . S
O411 Co408 1.970 . S
O411 C410 1.258 . S
O412 Co409 1.966 . S
O412 C410 1.263 . S
C413 O414 1.235 . S
C413 O440 1.289 . S
O414 C413 1.235 . S
C415 C417 1.400 . S
C415 N418 1.351 . S
C415 C420 1.501 . S
C416 C417 1.387 . S
C416 N419 1.341 . S
C417 C415 1.400 . S
C417 C416 1.387 . S
N418 Co409 2.022 . S
N418 C415 1.351 . S
N418 N419 1.365 . S
N419 C416 1.341 . S
N419 N418 1.365 . S
N419 H439 0.862 . S
C420 C415 1.501 . S
C420 H421 0.961 . S
C420 H422 0.961 . S
C420 H423 0.960 . S
H421 C420 0.961 . S
H422 C420 0.961 . S
H423 C420 0.960 . S
C424 N425 1.342 . S
C424 C428 1.401 . S
C424 C429 1.499 . S
N425 Co408 1.989 . S
N425 C424 1.342 . S
N425 N426 1.388 . S
N426 Co409 1.993 . S
N426 N425 1.388 . S
N426 C427 1.346 . S
C427 N426 1.346 . S
C427 C428 1.396 . S
C427 C437 1.510 . S
C428 C424 1.401 . S
C428 C427 1.396 . S
C429 C424 1.499 . S
C429 H430 0.959 . S
C429 H431 0.960 . S
C429 H432 0.961 . S
H430 C429 0.959 . S
H431 C429 0.960 . S
H432 C429 0.961 . S
O433 Co408 1.967 . S
O433 C441 1.258 . S
O434 Co409 1.941 . S
O434 C441 1.266 . S
H435 C437 0.959 . S
H436 C437 0.961 . S
C437 C427 1.510 . S
C437 H435 0.959 . S
C437 H436 0.961 . S
C437 H438 0.960 . S
H438 C437 0.960 . S
H439 N419 0.862 . S
O440 Co408 1.920 . S
O440 C413 1.289 . S
C441 O433 1.258 . S
C441 O434 1.266 . S
Co442 O445 1.970 . S
Co442 N459 1.989 . S
Co442 O467 1.967 . S
Co442 O474 1.920 . S
Co443 O446 1.966 . S
Co443 N452 2.022 . S
Co443 N460 1.993 . S
Co443 O468 1.941 . S
C444 O445 1.258 . S
C444 O446 1.263 . S
O445 Co442 1.970 . S
O445 C444 1.258 . S
O446 Co443 1.966 . S
O446 C444 1.263 . S
C447 O448 1.235 . S
C447 O474 1.289 . S
O448 C447 1.235 . S
C449 C451 1.400 . S
C449 N452 1.351 . S
C449 C454 1.501 . S
C450 C451 1.387 . S
C450 N453 1.341 . S
C451 C449 1.400 . S
C451 C450 1.387 . S
N452 Co443 2.022 . S
N452 C449 1.351 . S
N452 N453 1.365 . S
N453 C450 1.341 . S
N453 N452 1.365 . S
N453 H473 0.862 . S
C454 C449 1.501 . S
C454 H455 0.961 . S
C454 H456 0.961 . S
C454 H457 0.960 . S
H455 C454 0.961 . S
H456 C454 0.961 . S
H457 C454 0.960 . S
C458 N459 1.342 . S
C458 C462 1.401 . S
C458 C463 1.499 . S
N459 Co442 1.989 . S
N459 C458 1.342 . S
N459 N460 1.388 . S
N460 Co443 1.993 . S
N460 N459 1.388 . S
N460 C461 1.346 . S
C461 N460 1.346 . S
C461 C462 1.396 . S
C461 C471 1.510 . S
C462 C458 1.401 . S
C462 C461 1.396 . S
C463 C458 1.499 . S
C463 H464 0.959 . S
C463 H465 0.960 . S
C463 H466 0.961 . S
H464 C463 0.959 . S
H465 C463 0.960 . S
H466 C463 0.961 . S
O467 Co442 1.967 . S
O467 C475 1.258 . S
O468 Co443 1.941 . S
O468 C475 1.266 . S
H469 C471 0.959 . S
H470 C471 0.961 . S
C471 C461 1.510 . S
C471 H469 0.959 . S
C471 H470 0.961 . S
C471 H472 0.960 . S
H472 C471 0.960 . S
H473 N453 0.862 . S
O474 Co442 1.920 . S
O474 C447 1.289 . S
C475 O467 1.258 . S
C475 O468 1.266 . S
Co476 O479 1.970 . S
Co476 N493 1.989 . S
Co476 O501 1.967 . S
Co476 O508 1.920 . S
Co477 O480 1.966 . S
Co477 N486 2.022 . S
Co477 N494 1.993 . S
Co477 O502 1.941 . S
C478 O479 1.258 . S
C478 O480 1.263 . S
O479 Co476 1.970 . S
O479 C478 1.258 . S
O480 Co477 1.966 . S
O480 C478 1.263 . S
C481 O482 1.235 . S
C481 O508 1.289 . S
O482 C481 1.235 . S
C483 C485 1.400 . S
C483 N486 1.351 . S
C483 C488 1.501 . S
C484 C485 1.387 . S
C484 N487 1.341 . S
C485 C483 1.400 . S
C485 C484 1.387 . S
N486 Co477 2.022 . S
N486 C483 1.351 . S
N486 N487 1.365 . S
N487 C484 1.341 . S
N487 N486 1.365 . S
N487 H507 0.862 . S
C488 C483 1.501 . S
C488 H489 0.961 . S
C488 H490 0.961 . S
C488 H491 0.960 . S
H489 C488 0.961 . S
H490 C488 0.961 . S
H491 C488 0.960 . S
C492 N493 1.342 . S
C492 C496 1.401 . S
C492 C497 1.499 . S
N493 Co476 1.989 . S
N493 C492 1.342 . S
N493 N494 1.388 . S
N494 Co477 1.993 . S
N494 N493 1.388 . S
N494 C495 1.346 . S
C495 N494 1.346 . S
C495 C496 1.396 . S
C495 C505 1.510 . S
C496 C492 1.401 . S
C496 C495 1.396 . S
C497 C492 1.499 . S
C497 H498 0.959 . S
C497 H499 0.960 . S
C497 H500 0.961 . S
H498 C497 0.959 . S
H499 C497 0.960 . S
H500 C497 0.961 . S
O501 Co476 1.967 . S
O501 C509 1.258 . S
O502 Co477 1.941 . S
O502 C509 1.266 . S
H503 C505 0.959 . S
H504 C505 0.961 . S
C505 C495 1.510 . S
C505 H503 0.959 . S
C505 H504 0.961 . S
C505 H506 0.960 . S
H506 C505 0.960 . S
H507 N487 0.862 . S
O508 Co476 1.920 . S
O508 C481 1.289 . S
C509 O501 1.258 . S
C509 O502 1.266 . S
Co510 O513 1.970 . S
Co510 N527 1.989 . S
Co510 O535 1.967 . S
Co510 O542 1.920 . S
Co511 O514 1.966 . S
Co511 N520 2.022 . S
Co511 N528 1.993 . S
Co511 O536 1.941 . S
C512 O513 1.258 . S
C512 O514 1.263 . S
O513 Co510 1.970 . S
O513 C512 1.258 . S
O514 Co511 1.966 . S
O514 C512 1.263 . S
C515 O516 1.235 . S
C515 O542 1.289 . S
O516 C515 1.235 . S
C517 C519 1.400 . S
C517 N520 1.351 . S
C517 C522 1.501 . S
C518 C519 1.387 . S
C518 N521 1.341 . S
C519 C517 1.400 . S
C519 C518 1.387 . S
N520 Co511 2.022 . S
N520 C517 1.351 . S
N520 N521 1.365 . S
N521 C518 1.341 . S
N521 N520 1.365 . S
N521 H541 0.862 . S
C522 C517 1.501 . S
C522 H523 0.961 . S
C522 H524 0.961 . S
C522 H525 0.960 . S
H523 C522 0.961 . S
H524 C522 0.961 . S
H525 C522 0.960 . S
C526 N527 1.342 . S
C526 C530 1.401 . S
C526 C531 1.499 . S
N527 Co510 1.989 . S
N527 C526 1.342 . S
N527 N528 1.388 . S
N528 Co511 1.993 . S
N528 N527 1.388 . S
N528 C529 1.346 . S
C529 N528 1.346 . S
C529 C530 1.396 . S
C529 C539 1.510 . S
C530 C526 1.401 . S
C530 C529 1.396 . S
C531 C526 1.499 . S
C531 H532 0.959 . S
C531 H533 0.960 . S
C531 H534 0.961 . S
H532 C531 0.959 . S
H533 C531 0.960 . S
H534 C531 0.961 . S
O535 Co510 1.967 . S
O535 C543 1.258 . S
O536 Co511 1.941 . S
O536 C543 1.266 . S
H537 C539 0.959 . S
H538 C539 0.961 . S
C539 C529 1.510 . S
C539 H537 0.959 . S
C539 H538 0.961 . S
C539 H540 0.960 . S
H540 C539 0.960 . S
H541 N521 0.862 . S
O542 Co510 1.920 . S
O542 C515 1.289 . S
C543 O535 1.258 . S
C543 O536 1.266 . S
C544 C545 1.369 . S
C544 C546 1.419 1_655 S
C544 H548 0.930 . S
C545 C544 1.369 . S
C545 C554 1.429 . S
C546 C544 1.419 1_455 S
C546 C547 1.363 . S
C546 H549 0.929 . S
C547 C546 1.363 . S
C547 C553 1.428 . S
H548 C544 0.930 . S
H549 C546 0.929 . S
S550 N551 1.611 . S
S550 N552 1.612 1_655 S
N551 S550 1.611 . S
N551 C554 1.350 . S
N552 S550 1.612 1_455 S
N552 C553 1.351 . S
C553 C547 1.428 . S
C553 N552 1.351 . S
C553 C554 1.434 1_455 S
C554 C545 1.429 . S
C554 N551 1.350 . S
C554 C553 1.434 1_655 S
C555 C556 1.369 . S
C555 C557 1.419 1_545 S
C555 H559 0.930 . S
C556 C555 1.369 . S
C556 C565 1.430 1_545 S
C557 C555 1.419 1_565 S
C557 C558 1.363 . S
C557 H560 0.929 . S
C558 C557 1.363 . S
C558 C564 1.428 . S
H559 C555 0.930 . S
H560 C557 0.929 . S
S561 N562 1.613 1_565 S
S561 N563 1.610 . S
N562 S561 1.613 1_545 S
N562 C565 1.350 1_545 S
N563 S561 1.610 . S
N563 C564 1.351 . S
C564 C558 1.428 . S
C564 N563 1.351 . S
C564 C565 1.432 . S
C565 C556 1.430 1_565 S
C565 N562 1.350 1_565 S
C565 C564 1.432 . S
C566 C567 1.369 1_455 S
C566 C568 1.419 . S
C566 H570 0.929 . S
C567 C566 1.369 1_655 S
C567 C576 1.429 1_655 S
C568 C566 1.419 . S
C568 C569 1.363 . S
C568 H571 0.929 . S
C569 C568 1.363 . S
C569 C575 1.428 . S
H570 C566 0.929 . S
H571 C568 0.929 . S
S572 N573 1.613 . S
S572 N574 1.610 . S
N573 S572 1.613 . S
N573 C576 1.350 . S
N574 S572 1.610 . S
N574 C575 1.351 . S
C575 C569 1.428 . S
C575 N574 1.351 . S
C575 C576 1.434 . S
C576 C567 1.429 1_455 S
C576 N573 1.350 . S
C576 C575 1.434 . S
C577 C578 1.369 . S
C577 C579 1.419 1_565 S
C577 H581 0.930 . S
C578 C577 1.369 . S
C578 C587 1.429 . S
C579 C577 1.419 1_545 S
C579 C580 1.363 . S
C579 H582 0.929 . S
C580 C579 1.363 . S
C580 C586 1.428 . S
H581 C577 0.930 . S
H582 C579 0.929 . S
S583 N584 1.613 1_545 S
S583 N585 1.610 . S
N584 S583 1.613 1_565 S
N584 C587 1.350 . S
N585 S583 1.610 . S
N585 C586 1.351 . S
C586 C580 1.428 . S
C586 N585 1.351 . S
C586 C587 1.434 1_545 S
C587 C578 1.429 . S
C587 N584 1.350 . S
C587 C586 1.434 1_565 S
C588 C589 1.369 . S
C588 C590 1.419 1_655 S
C588 H592 0.930 . S
C589 C588 1.369 . S
C589 C598 1.429 . S
C590 C588 1.419 1_455 S
C590 C591 1.363 . S
C590 H593 0.929 . S
C591 C590 1.363 . S
C591 C597 1.428 . S
H592 C588 0.930 . S
H593 C590 0.929 . S
S594 N595 1.613 1_455 S
S594 N596 1.610 . S
N595 S594 1.613 1_655 S
N595 C598 1.350 . S
N596 S594 1.610 . S
N596 C597 1.351 . S
C597 C591 1.428 . S
C597 N596 1.351 . S
C597 C598 1.434 1_455 S
C598 C589 1.429 . S
C598 N595 1.350 . S
C598 C597 1.434 1_655 S
C599 C600 1.369 . S
C599 C601 1.419 1_565 S
C599 H603 0.930 . S
C600 C599 1.369 . S
C600 C609 1.429 . S
C601 C599 1.419 1_545 S
C601 C602 1.363 . S
C601 H604 0.929 . S
C602 C601 1.363 . S
C602 C608 1.428 . S
H603 C599 0.930 . S
H604 C601 0.929 . S
S605 N606 1.613 . S
S605 N607 1.610 1_565 S
N606 S605 1.613 . S
N606 C609 1.350 . S
N607 S605 1.610 1_545 S
N607 C608 1.351 . S
C608 C602 1.428 . S
C608 N607 1.351 . S
C608 C609 1.434 1_545 S
C609 C600 1.429 . S
C609 N606 1.350 . S
C609 C608 1.434 1_565 S
C610 C611 1.369 . S
C610 C612 1.419 . S
C610 H614 0.930 . S
C611 C610 1.369 . S
C611 C620 1.429 . S
C612 C610 1.419 . S
C612 C613 1.363 1_655 S
C612 H615 0.929 . S
C613 C612 1.363 1_455 S
C613 C619 1.428 1_455 S
H614 C610 0.930 . S
H615 C612 0.929 . S
S616 N617 1.613 . S
S616 N618 1.610 . S
N617 S616 1.613 . S
N617 C620 1.350 . S
N618 S616 1.610 . S
N618 C619 1.351 . S
C619 C613 1.428 1_655 S
C619 N618 1.351 . S
C619 C620 1.434 . S
C620 C611 1.429 . S
C620 N617 1.350 . S
C620 C619 1.434 . S
C621 C622 1.369 1_565 S
C621 C623 1.419 . S
C621 H625 0.930 1_565 S
C622 C621 1.369 1_545 S
C622 C631 1.437 . S
C623 C621 1.419 . S
C623 C624 1.363 . S
C623 H626 0.929 . S
C624 C623 1.363 . S
C624 C630 1.428 . S
H625 C621 0.930 1_545 S
H626 C623 0.929 . S
S627 N628 1.613 1_565 S
S627 N629 1.610 . S
N628 S627 1.613 1_545 S
N628 C631 1.358 . S
N629 S627 1.610 . S
N629 C630 1.351 . S
C630 C624 1.428 . S
C630 N629 1.351 . S
C630 C631 1.417 1_565 S
C631 C622 1.437 . S
C631 N628 1.358 . S
C631 C630 1.417 1_545 S
C632 C633 1.369 . S
C632 C634 1.419 . S
C632 H636 0.930 . S
C633 C632 1.369 . S
C633 C642 1.429 . S
C634 C632 1.419 . S
C634 C635 1.363 . S
C634 H637 0.929 . S
C635 C634 1.363 . S
C635 C641 1.428 . S
H636 C632 0.930 . S
H637 C634 0.929 . S
S638 N639 1.613 . S
S638 N640 1.610 . S
N639 S638 1.613 . S
N639 C642 1.350 . S
N640 S638 1.610 . S
N640 C641 1.351 . S
C641 C635 1.428 . S
C641 N640 1.351 . S
C641 C642 1.434 . S
C642 C633 1.429 . S
C642 N639 1.350 . S
C642 C641 1.434 . S
C643 C644 1.369 . S
C643 C645 1.419 . S
C643 H647 0.930 . S
C644 C643 1.369 . S
C644 C653 1.429 . S
C645 C643 1.419 . S
C645 C646 1.363 . S
C645 H648 0.929 . S
C646 C645 1.363 . S
C646 C652 1.428 . S
H647 C643 0.930 . S
H648 C645 0.929 . S
S649 N650 1.613 . S
S649 N651 1.610 . S
N650 S649 1.613 . S
N650 C653 1.350 . S
N651 S649 1.610 . S
N651 C652 1.351 . S
C652 C646 1.428 . S
C652 N651 1.351 . S
C652 C653 1.434 . S
C653 C644 1.429 . S
C653 N650 1.350 . S
C653 C652 1.434 . S
C654 C655 1.369 . S
C654 C656 1.419 . S
C654 H658 0.930 . S
C655 C654 1.369 . S
C655 C664 1.429 . S
C656 C654 1.419 . S
C656 C657 1.363 . S
C656 H659 0.929 . S
C657 C656 1.363 . S
C657 C663 1.428 . S
H658 C654 0.930 . S
H659 C656 0.929 . S
S660 N661 1.613 . S
S660 N662 1.610 . S
N661 S660 1.613 . S
N661 C664 1.350 . S
N662 S660 1.610 . S
N662 C663 1.351 . S
C663 C657 1.428 . S
C663 N662 1.351 . S
C663 C664 1.434 . S
C664 C655 1.429 . S
C664 N661 1.350 . S
C664 C663 1.434 . S
C665 C666 1.369 . S
C665 C667 1.419 . S
C665 H669 0.930 . S
C666 C665 1.369 . S
C666 C675 1.429 . S
C667 C665 1.419 . S
C667 C668 1.363 . S
C667 H670 0.929 . S
C668 C667 1.363 . S
C668 C674 1.428 . S
H669 C665 0.930 . S
H670 C667 0.929 . S
S671 N672 1.613 . S
S671 N673 1.610 . S
N672 S671 1.613 . S
N672 C675 1.350 . S
N673 S671 1.610 . S
N673 C674 1.351 . S
C674 C668 1.428 . S
C674 N673 1.351 . S
C674 C675 1.434 . S
C675 C666 1.429 . S
C675 N672 1.350 . S
C675 C674 1.434 . S
C676 C677 1.369 . S
C676 C678 1.419 . S
C676 H680 0.930 . S
C677 C676 1.369 . S
C677 C686 1.429 . S
C678 C676 1.419 . S
C678 C679 1.363 . S
C678 H681 0.929 . S
C679 C678 1.363 . S
C679 C685 1.428 . S
H680 C676 0.930 . S
H681 C678 0.929 . S
S682 N683 1.613 . S
S682 N684 1.610 . S
N683 S682 1.613 . S
N683 C686 1.350 . S
N684 S682 1.610 . S
N684 C685 1.351 . S
C685 C679 1.428 . S
C685 N684 1.351 . S
C685 C686 1.434 . S
C686 C677 1.429 . S
C686 N683 1.350 . S
C686 C685 1.434 . S
C687 C688 1.369 . S
C687 C689 1.419 . S
C687 H691 0.930 . S
C688 C687 1.369 . S
C688 C697 1.429 . S
C689 C687 1.419 . S
C689 C690 1.363 . S
C689 H692 0.929 . S
C690 C689 1.363 . S
C690 C696 1.428 . S
H691 C687 0.930 . S
H692 C689 0.929 . S
S693 N694 1.613 . S
S693 N695 1.610 . S
N694 S693 1.613 . S
N694 C697 1.350 . S
N695 S693 1.610 . S
N695 C696 1.351 . S
C696 C690 1.428 . S
C696 N695 1.351 . S
C696 C697 1.434 . S
C697 C688 1.429 . S
C697 N694 1.350 . S
C697 C696 1.434 . S
C698 C699 1.369 . S
C698 C700 1.419 . S
C698 H702 0.930 . S
C699 C698 1.369 . S
C699 C708 1.429 . S
C700 C698 1.419 . S
C700 C701 1.363 . S
C700 H703 0.929 . S
C701 C700 1.363 . S
C701 C707 1.428 . S
H702 C698 0.930 . S
H703 C700 0.929 . S
S704 N705 1.613 . S
S704 N706 1.610 . S
N705 S704 1.613 . S
N705 C708 1.350 . S
N706 S704 1.610 . S
N706 C707 1.351 . S
C707 C701 1.428 . S
C707 N706 1.351 . S
C707 C708 1.434 . S
C708 C699 1.429 . S
C708 N705 1.350 . S
C708 C707 1.434 . S
C709 C710 1.369 . S
C709 C711 1.419 . S
C709 H713 0.930 . S
C710 C709 1.369 . S
C710 C719 1.429 . S
C711 C709 1.419 . S
C711 C712 1.363 . S
C711 H714 0.929 . S
C712 C711 1.363 . S
C712 C718 1.428 . S
H713 C709 0.930 . S
H714 C711 0.929 . S
S715 N716 1.613 . S
S715 N717 1.610 . S
N716 S715 1.613 . S
N716 C719 1.350 . S
N717 S715 1.610 . S
N717 C718 1.351 . S
C718 C712 1.428 . S
C718 N717 1.351 . S
C718 C719 1.434 . S
C719 C710 1.429 . S
C719 N716 1.350 . S
C719 C718 1.434 . S
C720 C721 1.369 . S
C720 C722 1.419 1_554 S
C720 H724 0.930 . S
C721 C720 1.369 . S
C721 C730 1.429 . S
C722 C720 1.419 1_556 S
C722 C723 1.363 . S
C722 H725 0.929 . S
C723 C722 1.363 . S
C723 C729 1.428 . S
H724 C720 0.930 . S
H725 C722 0.929 . S
S726 N727 1.613 1_556 S
S726 N728 1.610 . S
N727 S726 1.613 1_554 S
N727 C730 1.350 . S
N728 S726 1.610 . S
N728 C729 1.351 . S
C729 C723 1.428 . S
C729 N728 1.351 . S
C729 C730 1.434 1_556 S
C730 C721 1.429 . S
C730 N727 1.350 . S
C730 C729 1.434 1_554 S
C731 C732 1.369 . S
C731 C733 1.419 . S
C731 H735 0.930 . S
C732 C731 1.369 . S
C732 C741 1.429 . S
C733 C731 1.419 . S
C733 C734 1.363 . S
C733 H736 0.929 . S
C734 C733 1.363 . S
C734 C740 1.428 . S
H735 C731 0.930 . S
H736 C733 0.929 . S
S737 N738 1.613 . S
S737 N739 1.610 . S
N738 S737 1.613 . S
N738 C741 1.350 . S
N739 S737 1.610 . S
N739 C740 1.351 . S
C740 C734 1.428 . S
C740 N739 1.351 . S
C740 C741 1.434 . S
C741 C732 1.429 . S
C741 N738 1.350 . S
C741 C740 1.434 . S
C742 C743 1.369 . S
C742 C744 1.419 1_556 S
C742 H746 0.930 . S
C743 C742 1.369 . S
C743 C752 1.429 . S
C744 C742 1.419 1_554 S
C744 C745 1.363 . S
C744 H747 0.929 . S
C745 C744 1.363 . S
C745 C751 1.428 . S
H746 C742 0.930 . S
H747 C744 0.929 . S
S748 N749 1.613 . S
S748 N750 1.610 1_556 S
N749 S748 1.613 . S
N749 C752 1.350 . S
N750 S748 1.610 1_554 S
N750 C751 1.351 . S
C751 C745 1.428 . S
C751 N750 1.351 . S
C751 C752 1.434 1_554 S
C752 C743 1.429 . S
C752 N749 1.350 . S
C752 C751 1.434 1_556 S
C753 C754 1.369 . S
C753 C755 1.419 . S
C753 H757 0.930 . S
C754 C753 1.369 . S
C754 C763 1.429 . S
C755 C753 1.419 . S
C755 C756 1.363 . S
C755 H758 0.929 . S
C756 C755 1.363 . S
C756 C762 1.428 . S
H757 C753 0.930 . S
H758 C755 0.929 . S
S759 N760 1.613 . S
S759 N761 1.610 . S
N760 S759 1.613 . S
N760 C763 1.350 . S
N761 S759 1.610 . S
N761 C762 1.351 . S
C762 C756 1.428 . S
C762 N761 1.351 . S
C762 C763 1.434 . S
C763 C754 1.429 . S
C763 N760 1.350 . S
C763 C762 1.434 . S
C764 C765 1.369 . S
C764 C766 1.419 1_556 S
C764 H768 0.930 . S
C765 C764 1.369 . S
C765 C774 1.429 . S
C766 C764 1.419 1_554 S
C766 C767 1.363 . S
C766 H769 0.929 . S
C767 C766 1.363 . S
C767 C773 1.428 . S
H768 C764 0.930 . S
H769 C766 0.929 . S
S770 N771 1.613 1_554 S
S770 N772 1.610 . S
N771 S770 1.613 1_556 S
N771 C774 1.350 . S
N772 S770 1.610 . S
N772 C773 1.351 . S
C773 C767 1.428 . S
C773 N772 1.351 . S
C773 C774 1.434 1_554 S
C774 C765 1.429 . S
C774 N771 1.350 . S
C774 C773 1.434 1_556 S
C775 C776 1.369 . S
C775 C777 1.419 . S
C775 H779 0.930 . S
C776 C775 1.369 . S
C776 C785 1.429 . S
C777 C775 1.419 . S
C777 C778 1.363 . S
C777 H780 0.929 . S
C778 C777 1.363 . S
C778 C784 1.428 . S
H779 C775 0.930 . S
H780 C777 0.929 . S
S781 N782 1.613 . S
S781 N783 1.610 . S
N782 S781 1.613 . S
N782 C785 1.350 . S
N783 S781 1.610 . S
N783 C784 1.351 . S
C784 C778 1.428 . S
C784 N783 1.351 . S
C784 C785 1.434 . S
C785 C776 1.429 . S
C785 N782 1.350 . S
C785 C784 1.434 . S
C786 C787 1.369 . S
C786 C788 1.419 1_554 S
C786 H790 0.930 . S
C787 C786 1.369 . S
C787 C796 1.429 . S
C788 C786 1.419 1_556 S
C788 C789 1.363 . S
C788 H791 0.929 . S
C789 C788 1.363 . S
C789 C795 1.428 . S
H790 C786 0.930 . S
H791 C788 0.929 . S
S792 N793 1.613 1_556 S
S792 N794 1.610 . S
N793 S792 1.613 1_554 S
N793 C796 1.350 . S
N794 S792 1.610 . S
N794 C795 1.351 . S
C795 C789 1.428 . S
C795 N794 1.351 . S
C795 C796 1.434 1_556 S
C796 C787 1.429 . S
C796 N793 1.350 . S
C796 C795 1.434 1_554 S
C797 C798 1.369 . S
C797 C799 1.419 . S
C797 H801 0.930 . S
C798 C797 1.369 . S
C798 C807 1.429 . S
C799 C797 1.419 . S
C799 C800 1.363 . S
C799 H802 0.929 . S
C800 C799 1.363 . S
C800 C806 1.428 . S
H801 C797 0.930 . S
H802 C799 0.929 . S
S803 N804 1.613 . S
S803 N805 1.610 . S
N804 S803 1.613 . S
N804 C807 1.350 . S
N805 S803 1.610 . S
N805 C806 1.351 . S
C806 C800 1.428 . S
C806 N805 1.351 . S
C806 C807 1.434 . S
C807 C798 1.429 . S
C807 N804 1.350 . S
C807 C806 1.434 . S
C808 C809 1.369 . S
C808 C810 1.419 . S
C808 H812 0.930 . S
C809 C808 1.369 . S
C809 C818 1.429 . S
C810 C808 1.419 . S
C810 C811 1.363 . S
C810 H813 0.929 . S
C811 C810 1.363 . S
C811 C817 1.428 . S
H812 C808 0.930 . S
H813 C810 0.929 . S
S814 N815 1.613 . S
S814 N816 1.610 . S
N815 S814 1.613 . S
N815 C818 1.350 . S
N816 S814 1.610 . S
N816 C817 1.351 . S
C817 C811 1.428 . S
C817 N816 1.351 . S
C817 C818 1.434 . S
C818 C809 1.429 . S
C818 N815 1.350 . S
C818 C817 1.434 . S
C819 C820 1.369 . S
C819 C821 1.419 . S
C819 H823 0.930 . S
C820 C819 1.369 . S
C820 C829 1.429 . S
C821 C819 1.419 . S
C821 C822 1.363 . S
C821 H824 0.929 . S
C822 C821 1.363 . S
C822 C828 1.428 . S
H823 C819 0.930 . S
H824 C821 0.929 . S
S825 N826 1.613 . S
S825 N827 1.610 . S
N826 S825 1.613 . S
N826 C829 1.350 . S
N827 S825 1.610 . S
N827 C828 1.351 . S
C828 C822 1.428 . S
C828 N827 1.351 . S
C828 C829 1.434 . S
C829 C820 1.429 . S
C829 N826 1.350 . S
C829 C828 1.434 . S
C830 C831 1.369 . S
C830 C832 1.419 . S
C830 H834 0.930 . S
C831 C830 1.369 . S
C831 C840 1.429 . S
C832 C830 1.419 . S
C832 C833 1.363 . S
C832 H835 0.929 . S
C833 C832 1.363 . S
C833 C839 1.428 . S
H834 C830 0.930 . S
H835 C832 0.929 . S
S836 N837 1.613 . S
S836 N838 1.610 . S
N837 S836 1.613 . S
N837 C840 1.350 . S
N838 S836 1.610 . S
N838 C839 1.351 . S
C839 C833 1.428 . S
C839 N838 1.351 . S
C839 C840 1.434 . S
C840 C831 1.429 . S
C840 N837 1.350 . S
C840 C839 1.434 . S
C841 C842 1.369 . S
C841 C843 1.419 . S
C841 H845 0.930 . S
C842 C841 1.369 . S
C842 C851 1.429 . S
C843 C841 1.419 . S
C843 C844 1.363 . S
C843 H846 0.929 . S
C844 C843 1.363 . S
C844 C850 1.428 . S
H845 C841 0.930 . S
H846 C843 0.929 . S
S847 N848 1.613 . S
S847 N849 1.610 . S
N848 S847 1.613 . S
N848 C851 1.350 . S
N849 S847 1.610 . S
N849 C850 1.351 . S
C850 C844 1.428 . S
C850 N849 1.351 . S
C850 C851 1.434 . S
C851 C842 1.429 . S
C851 N848 1.350 . S
C851 C850 1.434 . S
C852 C853 1.369 . S
C852 C854 1.419 . S
C852 H856 0.930 . S
C853 C852 1.369 . S
C853 C862 1.429 . S
C854 C852 1.419 . S
C854 C855 1.363 . S
C854 H857 0.929 . S
C855 C854 1.363 . S
C855 C861 1.428 . S
H856 C852 0.930 . S
H857 C854 0.929 . S
S858 N859 1.613 . S
S858 N860 1.610 . S
N859 S858 1.613 . S
N859 C862 1.350 . S
N860 S858 1.610 . S
N860 C861 1.351 . S
C861 C855 1.428 . S
C861 N860 1.351 . S
C861 C862 1.434 . S
C862 C853 1.429 . S
C862 N859 1.350 . S
C862 C861 1.434 . S
C863 C864 1.369 . S
C863 C865 1.419 . S
C863 H867 0.930 . S
C864 C863 1.369 . S
C864 C873 1.429 . S
C865 C863 1.419 . S
C865 C866 1.363 . S
C865 H868 0.929 . S
C866 C865 1.363 . S
C866 C872 1.428 . S
H867 C863 0.930 . S
H868 C865 0.929 . S
S869 N870 1.613 . S
S869 N871 1.610 . S
N870 S869 1.613 . S
N870 C873 1.350 . S
N871 S869 1.610 . S
N871 C872 1.351 . S
C872 C866 1.428 . S
C872 N871 1.351 . S
C872 C873 1.434 . S
C873 C864 1.429 . S
C873 N870 1.350 . S
C873 C872 1.434 . S
C874 C875 1.369 . S
C874 C876 1.419 . S
C874 H878 0.930 . S
C875 C874 1.369 . S
C875 C884 1.429 . S
C876 C874 1.419 . S
C876 C877 1.363 . S
C876 H879 0.929 . S
C877 C876 1.363 . S
C877 C883 1.428 . S
H878 C874 0.930 . S
H879 C876 0.929 . S
S880 N881 1.613 . S
S880 N882 1.610 . S
N881 S880 1.613 . S
N881 C884 1.350 . S
N882 S880 1.610 . S
N882 C883 1.351 . S
C883 C877 1.428 . S
C883 N882 1.351 . S
C883 C884 1.434 . S
C884 C875 1.429 . S
C884 N881 1.350 . S
C884 C883 1.434 . S
C885 C886 1.369 . S
C885 C887 1.419 . S
C885 H889 0.930 . S
C886 C885 1.369 . S
C886 C895 1.429 . S
C887 C885 1.419 . S
C887 C888 1.363 . S
C887 H890 0.929 . S
C888 C887 1.363 . S
C888 C894 1.428 . S
H889 C885 0.930 . S
H890 C887 0.929 . S
S891 N892 1.613 . S
S891 N893 1.610 . S
N892 S891 1.613 . S
N892 C895 1.350 . S
N893 S891 1.610 . S
N893 C894 1.351 . S
C894 C888 1.428 . S
C894 N893 1.351 . S
C894 C895 1.434 . S
C895 C886 1.429 . S
C895 N892 1.350 . S
C895 C894 1.434 . S
C896 C897 1.369 . S
C896 C898 1.419 . S
C896 H900 0.930 . S
C897 C896 1.369 . S
C897 C906 1.429 . S
C898 C896 1.419 . S
C898 C899 1.363 . S
C898 H901 0.929 . S
C899 C898 1.363 . S
C899 C905 1.428 . S
H900 C896 0.930 . S
H901 C898 0.929 . S
S902 N903 1.613 . S
S902 N904 1.610 . S
N903 S902 1.613 . S
N903 C906 1.350 . S
N904 S902 1.610 . S
N904 C905 1.351 . S
C905 C899 1.428 . S
C905 N904 1.351 . S
C905 C906 1.434 . S
C906 C897 1.429 . S
C906 N903 1.350 . S
C906 C905 1.434 . S
C907 C908 1.369 . S
C907 C909 1.419 . S
C907 H911 0.930 . S
C908 C907 1.369 . S
C908 C917 1.429 . S
C909 C907 1.419 . S
C909 C910 1.363 . S
C909 H912 0.929 . S
C910 C909 1.363 . S
C910 C916 1.428 . S
H911 C907 0.930 . S
H912 C909 0.929 . S
S913 N914 1.613 . S
S913 N915 1.610 . S
N914 S913 1.613 . S
N914 C917 1.350 . S
N915 S913 1.610 . S
N915 C916 1.351 . S
C916 C910 1.428 . S
C916 N915 1.351 . S
C916 C917 1.434 . S
C917 C908 1.429 . S
C917 N914 1.350 . S
C917 C916 1.434 . S
C918 C919 1.369 . S
C918 C920 1.419 . S
C918 H922 0.930 . S
C919 C918 1.369 . S
C919 C928 1.429 . S
C920 C918 1.419 . S
C920 C921 1.363 . S
C920 H923 0.929 . S
C921 C920 1.363 . S
C921 C927 1.428 . S
H922 C918 0.930 . S
H923 C920 0.929 . S
S924 N925 1.613 . S
S924 N926 1.610 . S
N925 S924 1.613 . S
N925 C928 1.350 . S
N926 S924 1.610 . S
N926 C927 1.351 . S
C927 C921 1.428 . S
C927 N926 1.351 . S
C927 C928 1.434 . S
C928 C919 1.429 . S
C928 N925 1.350 . S
C928 C927 1.434 . S
C929 C930 1.369 . S
C929 C931 1.419 . S
C929 H933 0.930 . S
C930 C929 1.369 . S
C930 C939 1.429 . S
C931 C929 1.419 . S
C931 C932 1.363 . S
C931 H934 0.929 . S
C932 C931 1.363 . S
C932 C938 1.428 . S
H933 C929 0.930 . S
H934 C931 0.929 . S
S935 N936 1.613 . S
S935 N937 1.610 . S
N936 S935 1.613 . S
N936 C939 1.350 . S
N937 S935 1.610 . S
N937 C938 1.351 . S
C938 C932 1.428 . S
C938 N937 1.351 . S
C938 C939 1.434 . S
C939 C930 1.429 . S
C939 N936 1.350 . S
C939 C938 1.434 . S
C940 C941 1.369 . S
C940 C942 1.419 . S
C940 H944 0.930 . S
C941 C940 1.369 . S
C941 C950 1.429 . S
C942 C940 1.419 . S
C942 C943 1.363 . S
C942 H945 0.929 . S
C943 C942 1.363 . S
C943 C949 1.428 . S
H944 C940 0.930 . S
H945 C942 0.929 . S
S946 N947 1.613 . S
S946 N948 1.610 . S
N947 S946 1.613 . S
N947 C950 1.350 . S
N948 S946 1.610 . S
N948 C949 1.351 . S
C949 C943 1.428 . S
C949 N948 1.351 . S
C949 C950 1.434 . S
C950 C941 1.429 . S
C950 N947 1.350 . S
C950 C949 1.434 . S
C951 C952 1.369 . S
C951 C953 1.419 . S
C951 H955 0.930 . S
C952 C951 1.369 . S
C952 C961 1.429 . S
C953 C951 1.419 . S
C953 C954 1.363 . S
C953 H956 0.929 . S
C954 C953 1.363 . S
C954 C960 1.428 . S
H955 C951 0.930 . S
H956 C953 0.929 . S
S957 N958 1.613 . S
S957 N959 1.610 . S
N958 S957 1.613 . S
N958 C961 1.350 . S
N959 S957 1.610 . S
N959 C960 1.351 . S
C960 C954 1.428 . S
C960 N959 1.351 . S
C960 C961 1.434 . S
C961 C952 1.429 . S
C961 N958 1.350 . S
C961 C960 1.434 . S
C962 C963 1.369 . S
C962 C964 1.419 . S
C962 H966 0.930 . S
C963 C962 1.369 . S
C963 C972 1.429 . S
C964 C962 1.419 . S
C964 C965 1.363 . S
C964 H967 0.929 . S
C965 C964 1.363 . S
C965 C971 1.428 . S
H966 C962 0.930 . S
H967 C964 0.929 . S
S968 N969 1.613 . S
S968 N970 1.610 . S
N969 S968 1.613 . S
N969 C972 1.350 . S
N970 S968 1.610 . S
N970 C971 1.351 . S
C971 C965 1.428 . S
C971 N970 1.351 . S
C971 C972 1.434 . S
C972 C963 1.429 . S
C972 N969 1.350 . S
C972 C971 1.434 . S
C973 C974 1.369 . S
C973 C975 1.419 . S
C973 H977 0.930 . S
C974 C973 1.369 . S
C974 C983 1.429 . S
C975 C973 1.419 . S
C975 C976 1.363 . S
C975 H978 0.929 . S
C976 C975 1.363 . S
C976 C982 1.428 . S
H977 C973 0.930 . S
H978 C975 0.929 . S
S979 N980 1.613 . S
S979 N981 1.610 . S
N980 S979 1.613 . S
N980 C983 1.350 . S
N981 S979 1.610 . S
N981 C982 1.351 . S
C982 C976 1.428 . S
C982 N981 1.351 . S
C982 C983 1.434 . S
C983 C974 1.429 . S
C983 N980 1.350 . S
C983 C982 1.434 . S
C545 C413 1.531 . S
C547 C9 1.455 . S
C556 C43 1.365 . S
C558 C447 1.479 . S
C567 C77 1.437 . S
C569 C481 1.522 . S
C578 C107 1.494 . S
C580 C519 1.363 . S
C589 C281 1.444 . S
C591 C141 1.526 . S
C600 C311 1.571 . S
C602 C179 1.456 . S
C611 C209 1.514 . S
C613 C349 1.420 . S
C622 C383 1.457 . S
C624 C243 1.590 . S
C633 C33 1.681 . S
C635 C509 1.681 . S
C644 C543 1.753 . S
C646 C67 1.747 . S
C655 C441 1.667 . S
C657 C101 1.670 . S
C666 C475 1.760 . S
C668 C135 1.767 . S
C677 C373 1.880 . S
C679 C169 1.879 . S
C688 C407 1.768 . S
C690 C203 1.763 . S
C699 C305 1.883 . S
C701 C237 1.882 . S
C710 C339 1.766 . S
C712 C271 1.767 . S
C721 C20 1.473 . S
C723 C342 1.489 . S
C732 C376 1.478 . S
C734 C54 1.514 . S
C743 C274 1.528 . S
C745 C88 1.502 . S
C754 C326 1.496 . S
C756 C104 1.469 . S
C765 C138 1.494 . S
C767 C496 1.467 . S
C776 C190 1.475 . S
C778 C512 1.438 . S
C787 C428 1.448 . S
C789 C206 1.480 . S
C798 C240 1.421 . S
C800 C462 1.443 . S
C809 C417 1.315 . S
C811 C5 1.401 . S
C820 C39 1.452 . S
C822 C451 1.340 . S
C831 C73 1.395 . S
C833 C485 1.297 . S
C842 C515 1.435 . S
C844 C111 1.348 . S
C853 C277 1.392 . S
C855 C145 1.311 . S
C864 C175 1.342 . S
C866 C315 1.258 . S
C875 C345 1.410 . S
C877 C213 1.339 . S
C886 C379 1.345 . S
C888 C247 1.258 . S
C897 C172 1.587 . S
C899 C2 1.585 . S
C908 C224 1.632 . S
C910 C36 1.648 . S
C919 C70 1.324 . S
C921 C258 1.306 . S
C930 C156 1.392 . S
C932 C122 1.390 . S
C941 C292 1.657 . S
C943 C444 1.690 . S
C952 C478 1.541 . S
C954 C308 1.537 . S
C963 C530 1.459 . S
C965 C360 1.452 . S
C974 C394 1.357 . S
C976 C410 1.394 . S
