# Generated by pormake.
# Topology qtz-a, (4)-cn, num edge types: 1
# Building blocks:
#     Node 0, Type 0, BuildingBlock: NAHDIM_clean_sbu_0, # of connection points: 4
#     Node 1, Type 0, BuildingBlock: NAHDIM_clean_sbu_0, # of connection points: 4
#     Node 2, Type 0, BuildingBlock: NAHDIM_clean_sbu_0, # of connection points: 4
#     Node 3, Type 0, BuildingBlock: NAHDIM_clean_sbu_0, # of connection points: 4
#     Node 4, Type 0, BuildingBlock: NAHDIM_clean_sbu_0, # of connection points: 4
#     Node 5, Type 0, BuildingBlock: NAHDIM_clean_sbu_0, # of connection points: 4
#     Node 6, Type 0, BuildingBlock: NAHDIM_clean_sbu_0, # of connection points: 4
#     Node 7, Type 0, BuildingBlock: NAHDIM_clean_sbu_0, # of connection points: 4
#     Node 8, Type 0, BuildingBlock: NAHDIM_clean_sbu_0, # of connection points: 4
#     Node 9, Type 0, BuildingBlock: NAHDIM_clean_sbu_0, # of connection points: 4
#     Node 10, Type 0, BuildingBlock: NAHDIM_clean_sbu_0, # of connection points: 4
#     Node 11, Type 0, BuildingBlock: NAHDIM_clean_sbu_0, # of connection points: 4
#     Edge 12, Type (0, 0), BuildingBlock: UVAHIK_clean_linker_0, # of connection points: 2
#     Edge 13, Type (0, 0), BuildingBlock: UVAHIK_clean_linker_0, # of connection points: 2
#     Edge 14, Type (0, 0), BuildingBlock: UVAHIK_clean_linker_0, # of connection points: 2
#     Edge 15, Type (0, 0), BuildingBlock: UVAHIK_clean_linker_0, # of connection points: 2
#     Edge 16, Type (0, 0), BuildingBlock: UVAHIK_clean_linker_0, # of connection points: 2
#     Edge 17, Type (0, 0), BuildingBlock: UVAHIK_clean_linker_0, # of connection points: 2
#     Edge 18, Type (0, 0), BuildingBlock: UVAHIK_clean_linker_0, # of connection points: 2
#     Edge 19, Type (0, 0), BuildingBlock: UVAHIK_clean_linker_0, # of connection points: 2
#     Edge 20, Type (0, 0), BuildingBlock: UVAHIK_clean_linker_0, # of connection points: 2
#     Edge 21, Type (0, 0), BuildingBlock: UVAHIK_clean_linker_0, # of connection points: 2
#     Edge 22, Type (0, 0), BuildingBlock: UVAHIK_clean_linker_0, # of connection points: 2
#     Edge 23, Type (0, 0), BuildingBlock: UVAHIK_clean_linker_0, # of connection points: 2
#     Edge 24, Type (0, 0), BuildingBlock: UVAHIK_clean_linker_0, # of connection points: 2
#     Edge 25, Type (0, 0), BuildingBlock: UVAHIK_clean_linker_0, # of connection points: 2
#     Edge 26, Type (0, 0), BuildingBlock: UVAHIK_clean_linker_0, # of connection points: 2
#     Edge 27, Type (0, 0), BuildingBlock: UVAHIK_clean_linker_0, # of connection points: 2
#     Edge 28, Type (0, 0), BuildingBlock: UVAHIK_clean_linker_0, # of connection points: 2
#     Edge 29, Type (0, 0), BuildingBlock: UVAHIK_clean_linker_0, # of connection points: 2
#     Edge 30, Type (0, 0), BuildingBlock: UVAHIK_clean_linker_0, # of connection points: 2
#     Edge 31, Type (0, 0), BuildingBlock: UVAHIK_clean_linker_0, # of connection points: 2
#     Edge 32, Type (0, 0), BuildingBlock: UVAHIK_clean_linker_0, # of connection points: 2
#     Edge 33, Type (0, 0), BuildingBlock: UVAHIK_clean_linker_0, # of connection points: 2
#     Edge 34, Type (0, 0), BuildingBlock: UVAHIK_clean_linker_0, # of connection points: 2
#     Edge 35, Type (0, 0), BuildingBlock: UVAHIK_clean_linker_0, # of connection points: 2
# Relax obj value: 0.802
# Max RMSD: 0.426
# Mean RMSD: 0.306
data_MOF--net-qtz-a--node1-NAHDIM_clean_sbu_0--edge1-UVAHIK_clean_linker_0
_symmetry_space_group_name_H-M    P1
_symmetry_Int_Tables_number       1
_symmetry_cell_setting            triclinic
loop_
_symmetry_equiv_pos_as_xyz
'x, y, z'
_cell_length_a     63.761481
_cell_length_b     49.787454
_cell_length_c     52.970598
_cell_angle_alpha  89.950309
_cell_angle_beta   7745142.0
_cell_angle_gamma 112.96438
loop_
_atom_site_label
_atom_site_type_symbol
_atom_site_fract_x
_atom_site_fract_y
_atom_site_fract_z
_atom_type_partial_charge
C0 C 0.36657 0.17672 0.11989 0.0
O1 O 0.36576 0.15493 0.1342 0.0
O2 O 0.37088 0.11008 0.10341 0.0
Zn3 Zn 0.35998 0.1348 0.07809 0.0
O4 O 0.38066 0.14449 0.05253 0.0
C5 C 0.3144 0.08695 0.06412 0.0
O6 O 0.31959 0.08086 0.08816 0.0
O7 O 0.36306 0.17245 0.09545 0.0
C8 C 0.38377 0.1232 0.04316 0.0
O9 O 0.37395 0.0971 0.05103 0.0
C10 C 0.39222 0.11899 0.11522 0.0
O11 O 0.40673 0.14547 0.11225 0.0
O12 O 0.32794 0.11047 0.05686 0.0
C13 C 0.6353 0.70731 0.55763 0.0
O14 O 0.64125 0.73082 0.54492 0.0
O15 O 0.70419 0.69935 0.57466 0.0
Zn16 Zn 0.68144 0.71568 0.55614 0.0
O17 O 0.69411 0.75954 0.56522 0.0
C18 C 0.66565 0.67604 0.5126 0.0
O19 O 0.65948 0.6592 0.53116 0.0
O20 O 0.65035 0.69664 0.56577 0.0
C21 C 0.70239 0.7802 0.55132 0.0
O22 O 0.71135 0.80741 0.56154 0.0
C23 C 0.72522 0.71236 0.57254 0.0
O24 O 0.73095 0.7366 0.5608 0.0
O25 O 0.67613 0.70357 0.51823 0.0
C26 C 1.20302 0.38473 0.80811 0.0
O27 O 1.21911 0.38627 0.82875 0.0
O28 O 1.25571 0.44988 0.82657 0.0
Zn29 Zn 1.2427 0.42607 0.79185 0.0
O30 O 1.24398 0.45465 0.76435 0.0
C31 C 1.28263 0.4157 0.78621 0.0
O32 O 1.29356 0.44282 0.79676 0.0
O33 O 1.20914 0.39929 0.78928 0.0
C34 C 1.25968 0.48061 0.76827 0.0
O35 O 1.27512 0.48879 0.79048 0.0
C36 C 1.24259 0.4614 0.83262 0.0
O37 O 1.22184 0.45485 0.81739 0.0
O38 O 1.26073 0.40296 0.78424 0.0
C39 C 0.5567 0.90484 0.17199 0.0
O40 O 0.54752 0.9148 0.18784 0.0
O41 O 0.49846 0.90219 0.1591 0.0
Zn42 Zn 0.50836 0.87394 0.14265 0.0
O43 O 0.49421 0.83362 0.15543 0.0
C44 C 0.50882 0.90222 0.09757 0.0
O45 O 0.52235 0.92343 0.1157 0.0
O46 O 0.54339 0.88756 0.15227 0.0
C47 C 0.4755 0.81117 0.1466 0.0
O48 O 0.46972 0.78871 0.16058 0.0
C49 C 0.47689 0.89755 0.15348 0.0
O50 O 0.46203 0.87365 0.13894 0.0
O51 O 0.49971 0.87635 0.10415 0.0
C52 C 0.91283 0.57283 0.45062 0.0
O53 O 0.90352 0.56986 0.42567 0.0
O54 O 0.85139 0.57316 0.47874 0.0
Zn55 Zn 0.86773 0.56849 0.45139 0.0
O56 O 0.84803 0.53119 0.42827 0.0
C57 C 0.87578 0.62755 0.43771 0.0
O58 O 0.87947 0.63321 0.46284 0.0
O59 O 0.90014 0.5715 0.46655 0.0
C60 C 0.82901 0.51292 0.43282 0.0
O61 O 0.82333 0.51684 0.45457 0.0
C62 C 0.86068 0.58143 0.50259 0.0
O63 O 0.88293 0.58694 0.51138 0.0
O64 O 0.87063 0.60159 0.4286 0.0
C65 C 0.40586 0.79265 0.85153 0.0
O66 O 0.39739 0.76874 0.86319 0.0
O67 O 1.34732 0.75627 0.85798 0.0
Zn68 Zn 0.35757 0.77544 0.82679 0.0
O69 O 0.35241 0.74258 0.80077 0.0
C70 C 0.34819 0.82316 0.80214 0.0
O71 O 0.37099 0.83751 0.809 0.0
O72 O 0.39192 0.80045 0.83555 0.0
C73 C 0.33378 0.73166 0.78308 0.0
O74 O 1.3176 0.7421 0.78163 0.0
C75 C 1.32583 0.74306 0.85811 0.0
O76 O 1.31014 0.74576 0.839 0.0
O77 O 0.33891 0.79778 0.80962 0.0
C78 C 1.16344 0.70187 0.5269 0.0
O79 O 1.17422 0.73056 0.52924 0.0
O80 O 0.22286 0.69663 0.50878 0.0
Zn81 Zn 1.21042 0.70206 0.53958 0.0
O82 O 1.21885 0.67632 0.56596 0.0
C83 C 0.24496 0.76119 0.55653 0.0
O84 O 0.25774 0.75296 0.54437 0.0
O85 O 1.17538 0.68634 0.53034 0.0
C86 C 1.23634 0.68548 0.58516 0.0
O87 O 0.24997 0.71349 0.58895 0.0
C88 C 0.20922 0.68297 0.48753 0.0
O89 O 1.18672 0.67636 0.48422 0.0
O90 O 1.22403 0.74364 0.55573 0.0
C91 C 0.65264 0.95545 0.88258 0.0
O92 O 0.66632 0.95925 0.90572 0.0
O93 O 0.70323 1.01955 0.84314 0.0
Zn94 Zn 0.69038 1.00754 0.87486 0.0
O95 O 0.71353 0.99966 0.90277 0.0
C96 C 0.6929 1.06657 0.88673 0.0
O97 O 0.70782 1.07531 0.87163 0.0
O98 O 0.65984 0.97274 0.86569 0.0
C99 C 0.73534 1.00992 0.90364 0.0
O100 O 0.74328 1.0249 0.88478 0.0
C101 C 0.69267 1.0284 0.82407 0.0
O102 O 0.67245 1.02923 0.82476 0.0
O103 O 0.68377 1.03956 0.89021 0.0
C104 C 0.55131 0.44638 0.20355 0.0
O105 O 0.55471 0.47211 0.19482 0.0
O106 O 0.60562 0.50111 0.19689 0.0
Zn107 Zn 0.60046 0.47484 0.22589 0.0
O108 O 0.62563 0.45912 0.23481 0.0
C109 C 0.61437 0.52699 0.26049 0.0
O110 O 0.62318 0.54032 0.24138 0.0
O111 O 0.56854 0.44223 0.21713 0.0
C112 C 0.64664 0.47783 0.23891 0.0
O113 O 0.65053 0.50535 0.23543 0.0
C114 C 0.61658 0.50045 0.17959 0.0
O115 O 0.62428 0.47964 0.17851 0.0
O116 O 0.6034 0.49927 0.25792 0.0
C117 C 0.39067 0.55068 0.54985 0.0
O118 O 0.37636 0.564 0.54361 0.0
O119 O 0.3295 0.50656 0.5211 0.0
Zn120 Zn 0.34861 0.50478 0.55601 0.0
O121 O 0.34259 0.52924 0.58184 0.0
C122 C 0.32456 0.44087 0.56185 0.0
O123 O 0.30724 0.43985 0.54293 0.0
O124 O 0.3826 0.52437 0.55562 0.0
C125 C 0.32872 0.51893 0.59689 0.0
O126 O 0.31741 0.49044 0.59631 0.0
C127 C 0.30767 0.5 0.51744 0.0
O128 O 0.29684 0.48865 0.53586 0.0
O129 O 0.34248 0.4647 0.5686 0.0
C130 C 0.96202 0.28208 0.82168 0.0
O131 O 0.95707 0.27894 0.84467 0.0
O132 O 0.88724 0.24078 0.77896 0.0
Zn133 Zn 0.91355 0.26037 0.80986 0.0
O134 O 0.90872 0.2918 0.82879 0.0
C135 C 0.89504 0.21796 0.84495 0.0
O136 O 0.87686 0.22469 0.83746 0.0
O137 O 0.94536 0.27593 0.80177 0.0
C138 C 0.88899 0.29357 0.82536 0.0
O139 O 0.87166 0.2763 0.80691 0.0
C140 C 0.88469 0.2158 0.76993 0.0
O141 O 0.90112 0.20621 0.77866 0.0
O142 O 0.91273 0.22993 0.83515 0.0
C143 C 0.7646 0.86876 0.23029 0.0
O144 O 0.76515 0.85094 0.21241 0.0
O145 O 0.75616 0.79495 0.2345 0.0
Zn146 Zn 0.7715 0.82612 0.2644 0.0
O147 O 0.75331 0.81329 0.29212 0.0
C148 C 0.81321 0.81499 0.26926 0.0
O149 O 0.8038 0.80444 0.24497 0.0
O150 O 0.76934 0.86399 0.25394 0.0
C151 C 0.74911 0.78828 0.30065 0.0
O152 O 0.7562 0.77015 0.29051 0.0
C153 C 0.73439 0.78602 0.22469 0.0
O154 O 0.72213 0.79805 0.23383 0.0
O155 O 0.80372 0.82826 0.28047 0.0
C156 C 0.40362 0.15294 0.01011 0.0
C157 C 0.39726 0.12713 0.02287 0.0
C158 C 0.83446 0.36513 0.98621 0.0
C159 C 0.8689 0.3338 0.95744 0.0
H160 H 0.84308 0.35744 0.89261 0.0
C161 C 0.86163 0.30814 0.84415 0.0
C162 C 0.88445 0.31033 0.84512 0.0
C163 C 0.85646 0.31927 0.86517 0.0
C164 C 0.85057 0.35097 0.91063 0.0
H165 H 0.39855 0.08426 0.02487 0.0
H166 H 0.83793 0.29847 0.98609 0.0
H167 H 0.8285 0.36096 0.93116 0.0
H168 H 0.92012 0.32821 0.86801 0.0
H169 H 0.91109 0.34784 0.90455 0.0
H170 H 0.89015 0.32247 0.93683 0.0
C171 C 0.83415 0.3167 0.99176 0.0
C172 C 0.84237 0.35322 0.93274 0.0
C173 C 0.40316 0.10441 0.01542 0.0
C174 C 0.9023 0.32585 0.86673 0.0
C175 C 0.89712 0.33699 0.88775 0.0
C176 C 0.87715 0.33167 0.93542 0.0
C177 C 0.84005 0.34217 0.97857 0.0
C178 C 0.85101 0.34387 0.95617 0.0
C179 C 0.874 0.33288 0.88759 0.0
C180 C 0.86767 0.33952 0.9116 0.0
H181 H 0.39929 0.17083 0.01542 0.0
H182 H 0.83891 0.38507 0.97645 0.0
H183 H 0.87607 0.32676 0.97532 0.0
H184 H 0.84748 0.29643 0.82775 0.0
H185 H 0.83843 0.31557 0.86446 0.0
C186 C 0.73186 0.80096 0.33486 0.0
C187 C 0.73819 0.78078 0.32319 0.0
C188 C 0.72354 0.79516 0.35751 0.0
C189 C 0.69816 0.77369 0.40063 0.0
H190 H 0.73351 0.74462 0.45391 0.0
C191 C 0.68293 0.76342 0.50494 0.0
C192 C 0.70339 0.7742 0.5246 0.0
C193 C 0.68417 0.75951 0.47922 0.0
C194 C 0.72346 0.75274 0.43922 0.0
H195 H 0.73968 0.73803 0.32551 0.0
H196 H 0.72494 0.7278 0.36501 0.0
H197 H 0.74031 0.74629 0.41024 0.0
H198 H 0.74109 0.79013 0.53325 0.0
H199 H 0.74339 0.78307 0.48842 0.0
H200 H 0.68215 0.78147 0.42999 0.0
C201 C 0.72677 0.74832 0.35681 0.0
C202 C 0.72714 0.75335 0.41409 0.0
C203 C 0.73512 0.75414 0.33412 0.0
C204 C 0.72509 0.78124 0.51834 0.0
C205 C 0.72634 0.77705 0.49273 0.0
C206 C 0.69449 0.77309 0.42578 0.0
C207 C 0.72129 0.76901 0.36903 0.0
C208 C 0.71498 0.76456 0.39466 0.0
C209 C 0.70591 0.76625 0.47285 0.0
C210 C 0.70758 0.76336 0.44551 0.0
H211 H 0.73395 0.82168 0.32693 0.0
H212 H 0.71979 0.81176 0.36655 0.0
H213 H 0.68823 0.78202 0.386 0.0
H214 H 0.66606 0.75837 0.50941 0.0
H215 H 0.66812 0.75106 0.46436 0.0
C216 C 1.22852 0.63441 0.59763 0.0
C217 C 1.2413 0.66479 0.6031 0.0
C218 C 1.23307 0.61496 0.61479 0.0
C219 C 1.25702 0.61137 0.68336 0.0
H220 H 1.25721 0.53804 0.65908 0.0
C221 C 1.27566 0.53134 0.75429 0.0
C222 C 1.26029 0.50173 0.74845 0.0
C223 C 1.27567 0.55163 0.73605 0.0
C224 C 1.25711 0.55839 0.66613 0.0
H225 H 0.26907 0.69853 0.63077 0.0
H226 H 0.27677 0.66463 0.66073 0.0
H227 H 1.25298 0.57296 0.62804 0.0
H228 H 1.2333 0.47008 0.71857 0.0
H229 H 1.23334 0.50554 0.68671 0.0
H230 H 1.26105 0.5969 0.72139 0.0
C231 C 1.26325 0.65584 0.64322 0.0
C232 C 1.25465 0.57834 0.64837 0.0
C233 C 1.25885 0.67527 0.62598 0.0
C234 C 1.24532 0.49274 0.72371 0.0
C235 C 1.24547 0.51302 0.70538 0.0
C236 C 1.25963 0.59154 0.70112 0.0
C237 C 1.25037 0.62548 0.63788 0.0
C238 C 1.25432 0.60492 0.65677 0.0
C239 C 1.26046 0.54276 0.71146 0.0
C240 C 1.25938 0.56464 0.69268 0.0
H241 H 1.21491 0.62561 0.58014 0.0
H242 H 1.22264 0.59171 0.61027 0.0
H243 H 1.25639 0.63139 0.69039 0.0
H244 H 1.28747 0.53902 0.77313 0.0
H245 H 1.2875 0.57433 0.7413 0.0
C246 C 0.46774 0.81406 0.09883 0.0
C247 C 0.45972 0.81023 0.12179 0.0
C248 C 0.45233 0.81166 0.07508 0.0
C249 C 0.39467 0.81444 0.0477 0.0
H250 H 0.81959 0.98988 0.98128 0.0
C251 C 0.74372 0.99727 0.94934 0.0
C252 C 0.75176 1.00762 0.92698 0.0
C253 C 0.75942 0.99755 0.97216 0.0
C254 C 0.39859 0.79006 0.00228 0.0
H255 H 0.42939 0.79944 0.13823 0.0
H256 H 0.40241 0.79549 0.09691 0.0
H257 H 0.42721 0.78291 0.02589 0.0
H258 H 0.78251 1.02533 0.91078 0.0
H259 H 0.80993 1.02542 0.95068 0.0
H260 H 0.36576 0.82102 0.0241 0.0
C261 C 0.42064 0.80107 0.09707 0.0
C262 C 0.41409 0.79167 0.02576 0.0
C263 C 0.436 0.80317 0.12072 0.0
C264 C 0.77576 1.01727 0.92769 0.0
C265 C 0.79146 1.01723 0.95048 0.0
C266 C 0.37905 0.81251 0.02431 0.0
C267 C 0.42863 0.80553 0.07393 0.0
C268 C 0.41229 0.80384 0.04881 0.0
C269 C 0.78347 1.00786 0.97306 0.0
C270 C 0.38081 0.80026 0.00138 0.0
H271 H 0.48583 0.81842 0.0992 0.0
H272 H 0.45905 0.8148 0.05767 0.0
H273 H 0.39306 0.82457 0.06487 0.0
H274 H 0.72534 0.98965 0.94947 0.0
H275 H 0.75276 0.98986 0.9892 0.0
C276 C 0.78758 0.48089 0.41231 0.0
C277 C 0.81131 0.49204 0.41149 0.0
C278 C 0.7703 0.46706 0.39005 0.0
C279 C 0.76359 0.46982 0.31949 0.0
H280 H 0.69899 0.42384 0.32119 0.0
C281 C 0.68915 0.49156 0.25715 0.0
C282 C 0.66634 0.4698 0.25066 0.0
C283 C 0.70742 0.48546 0.27163 0.0
C284 C 0.71694 0.43612 0.31998 0.0
H285 H 0.83564 0.49425 0.38763 0.0
H286 H 0.8055 0.46892 0.34902 0.0
H287 H 0.72994 0.42535 0.35743 0.0
H288 H 0.64512 0.42393 0.25261 0.0
H289 H 0.67725 0.41307 0.27757 0.0
H290 H 0.75061 0.48043 0.28201 0.0
C291 C 0.80014 0.472 0.36652 0.0
C292 C 0.73475 0.43737 0.34104 0.0
C293 C 0.81745 0.48634 0.38871 0.0
C294 C 0.66248 0.44125 0.25753 0.0
C295 C 0.68088 0.43507 0.27195 0.0
C296 C 0.74584 0.46812 0.29827 0.0
C297 C 0.77633 0.46358 0.36651 0.0
C298 C 0.75821 0.45562 0.34173 0.0
C299 C 0.70346 0.45735 0.27983 0.0
C300 C 0.72223 0.45269 0.2989 0.0
H301 H 0.78224 0.4848 0.42959 0.0
H302 H 0.75227 0.4612 0.39099 0.0
H303 H 0.78135 0.48411 0.31906 0.0
H304 H 0.69278 0.51376 0.2521 0.0
H305 H 0.7244 0.50338 0.2776 0.0
C306 C 0.31229 0.52797 0.63367 0.0
C307 C 0.32559 0.53898 0.61503 0.0
C308 C 0.31003 0.54708 0.65129 0.0
C309 C 0.31668 0.62369 0.66252 0.0
H310 H 0.32711 0.60968 0.73518 0.0
C311 C 0.312 0.69929 0.74198 0.0
C312 C 0.33042 0.7077 0.76413 0.0
C313 C 0.30909 0.67714 0.72375 0.0
C314 C 0.32415 0.61386 0.71495 0.0
H315 H 0.3465 0.57869 0.59994 0.0
H316 H 0.34264 0.61187 0.63062 0.0
H317 H 0.32547 0.57369 0.70272 0.0
H318 H 0.35999 0.69906 0.78473 0.0
H319 H 0.35479 0.66024 0.75292 0.0
H320 H 0.31608 0.66425 0.67483 0.0
C321 C 0.3338 0.5885 0.63154 0.0
C322 C 0.32299 0.59313 0.69634 0.0
C323 C 0.33617 0.56945 0.61407 0.0
C324 C 0.34565 0.69314 0.76784 0.0
C325 C 0.34257 0.67075 0.74972 0.0
C326 C 0.31772 0.64432 0.68111 0.0
C327 C 0.32087 0.57756 0.65048 0.0
C328 C 0.31969 0.59809 0.66995 0.0
C329 C 0.32435 0.66264 0.72738 0.0
C330 C 0.32177 0.63982 0.70756 0.0
H331 H 0.30384 0.50461 0.63489 0.0
H332 H 0.29982 0.538 0.66555 0.0
H333 H 0.3138 0.62796 0.64231 0.0
H334 H 1.29996 0.71007 0.73853 0.0
H335 H 1.29486 0.67134 0.70682 0.0
C336 C 0.28381 0.03605 0.05136 0.0
C337 C 0.29733 0.06352 0.04419 0.0
C338 C 0.27226 0.01192 0.03287 0.0
C339 C 0.67878 1.19845 0.95819 0.0
H340 H 0.69167 1.13238 0.98424 0.0
C341 C 0.69686 1.11782 0.89654 0.0
C342 C 0.68795 1.08807 0.9011 0.0
C343 C 0.6937 1.13838 0.91161 0.0
C344 C 0.68753 1.15039 0.97667 0.0
H345 H 0.30731 0.08785 0.01155 0.0
H346 H 0.70734 0.25551 0.97612 0.0
H347 H 0.27729 0.96254 0.01806 0.0
H348 H 0.66786 1.0564 0.92433 0.0
H349 H 0.66264 1.09238 0.95077 0.0
H350 H 0.67114 1.17721 0.92018 0.0
C351 C 0.70528 0.25235 0.99582 0.0
C352 C 0.69024 1.17318 0.99404 0.0
C353 C 0.29721 0.06695 0.01782 0.0
C354 C 0.67508 1.07918 0.92039 0.0
C355 C 0.6721 1.09975 0.93558 0.0
C356 C 0.67634 1.17575 0.94077 0.0
C357 C 0.27422 0.01472 0.00692 0.0
C358 C 0.6865 1.1979 0.98503 0.0
C359 C 0.68173 1.12962 0.93165 0.0
C360 C 0.68122 1.15183 0.94985 0.0
H361 H 0.28326 0.03277 0.07147 0.0
H362 H 0.26281 0.99077 0.03921 0.0
H363 H 0.6753 0.21685 0.95055 0.0
H364 H 0.70675 1.12535 0.88174 0.0
H365 H 0.70151 1.1613 0.90831 0.0
C366 C 0.60976 0.52967 0.30614 0.0
C367 C 0.61867 0.54384 0.2854 0.0
C368 C 0.615 0.54528 0.33012 0.0
C369 C 0.63635 0.62 0.36238 0.0
H370 H 0.65105 0.58244 0.42374 0.0
C371 C 0.67048 0.67912 0.46659 0.0
C372 C 0.66057 0.66274 0.48589 0.0
C373 C 0.6659 0.66588 0.4416 0.0
C374 C 0.64679 0.59315 0.40681 0.0
H375 H 0.63972 0.58569 0.27345 0.0
H376 H 0.64902 0.61282 0.31539 0.0
H377 H 0.64158 0.55691 0.38112 0.0
H378 H 0.63784 0.61971 0.49403 0.0
H379 H 0.6298 0.59679 0.45068 0.0
H380 H 0.64163 0.65631 0.38828 0.0
C381 C 0.6378 0.58971 0.31303 0.0
C382 C 0.64131 0.57849 0.38237 0.0
C383 C 0.63254 0.5741 0.28902 0.0
C384 C 0.64589 0.63295 0.47968 0.0
C385 C 0.64136 0.61975 0.45483 0.0
C386 C 0.64188 0.63473 0.38691 0.0
C387 C 0.62931 0.5754 0.33395 0.0
C388 C 0.63575 0.59157 0.35986 0.0
C389 C 0.65143 0.63595 0.43555 0.0
C390 C 0.64687 0.62128 0.40939 0.0
H391 H 0.59892 0.50643 0.30398 0.0
H392 H 0.60783 0.53369 0.3457 0.0
H393 H 0.632 0.63062 0.34542 0.0
H394 H 0.68211 0.70198 0.47089 0.0
H395 H 0.67409 0.67889 0.42721 0.0
C396 C 0.29925 0.40448 0.58641 0.0
C397 C 0.321 0.41783 0.57992 0.0
C398 C 0.29734 0.38959 0.60872 0.0
C399 C 0.29542 0.3609 0.65827 0.0
H400 H 0.34978 0.4037 0.71286 0.0
C401 C 1.28271 0.3741 0.75969 0.0
C402 C 1.29393 0.40331 0.77052 0.0
C403 C 1.29015 0.36458 0.73968 0.0
C404 C 0.33436 0.39155 0.69791 0.0
H405 H 0.35711 0.42294 0.58942 0.0
H406 H 0.35351 0.39504 0.62726 0.0
H407 H 0.35308 0.40654 0.66836 0.0
H408 H 0.32319 0.44456 0.77078 0.0
H409 H 0.33541 0.42875 0.73553 0.0
H410 H 1.27606 0.34897 0.68769 0.0
C411 C 0.33813 0.39742 0.61618 0.0
C412 C 0.33634 0.39268 0.67214 0.0
C413 C 0.34019 0.41311 0.59428 0.0
C414 C 1.31406 0.42195 0.76277 0.0
C415 C 0.32121 0.41266 0.74248 0.0
C416 C 0.29328 0.36054 0.684 0.0
C417 C 0.31707 0.38713 0.62471 0.0
C418 C 0.31655 0.3788 0.6518 0.0
C419 C 0.30865 0.38427 0.72975 0.0
C420 C 0.31243 0.37736 0.70405 0.0
H421 H 0.28419 0.40794 0.57573 0.0
H422 H 0.28079 0.38237 0.61441 0.0
H423 H 0.27999 0.34875 0.64335 0.0
H424 H 1.26735 0.35906 0.76562 0.0
H425 H 1.2805 0.34228 0.73105 0.0
C426 C 0.51498 0.93766 0.06372 0.0
C427 C 0.5045 0.90881 0.07019 0.0
C428 C 0.51118 0.94428 0.03803 0.0
C429 C 0.88992 1.12769 0.97077 0.0
H430 H 0.94206 1.18446 0.94696 0.0
C431 C 0.8788 0.19122 0.88116 0.0
C432 C 0.89602 0.19931 0.86655 0.0
C433 C 0.88117 1.17658 0.90342 0.0
C434 C 0.92735 1.16822 0.95307 0.0
H435 H 0.48178 0.86431 0.0547 0.0
H436 H 0.47507 0.87582 0.00961 0.0
H437 H 0.94862 1.16806 0.98996 0.0
H438 H 0.92846 0.19675 0.86286 0.0
H439 H 0.93234 1.17073 0.90137 0.0
H440 H 0.86865 1.1279 0.93373 0.0
C441 C 0.48614 0.89334 0.02454 0.0
C442 C 0.93107 1.15912 0.9779 0.0
C443 C 0.49002 0.88671 0.05034 0.0
C444 C 0.91502 0.19111 0.87387 0.0
C445 C 0.9173 1.17633 0.89602 0.0
C446 C 0.88618 1.1368 0.94584 0.0
C447 C 0.49681 0.92221 0.01811 0.0
C448 C 0.91234 1.13921 0.98724 0.0
C449 C 0.90074 1.16958 0.91145 0.0
C450 C 0.90481 1.15754 0.93686 0.0
H451 H 0.52615 0.95529 0.07852 0.0
H452 H 0.51931 0.96683 0.03382 0.0
H453 H 0.87512 1.11239 0.97744 0.0
H454 H 0.86394 0.1972 0.87604 0.0
H455 H 0.86819 1.17199 0.91496 0.0
C456 C 0.83686 0.81109 0.31217 0.0
C457 C 0.83031 0.80485 0.28509 0.0
C458 C 0.84838 0.79606 0.32773 0.0
C459 C 0.85045 0.72404 0.32599 0.0
H460 H 0.89498 0.75373 0.39184 0.0
C461 C 0.87542 0.64576 0.3936 0.0
C462 C 0.87641 0.65074 0.42001 0.0
C463 C 0.87457 0.66692 0.37655 0.0
C464 C 0.88245 0.74508 0.37355 0.0
H465 H 0.83285 0.78008 0.253 0.0
H466 H 0.85313 0.75411 0.28016 0.0
H467 H 0.88622 0.78798 0.36272 0.0
H468 H 0.87795 0.6822 0.44938 0.0
H469 H 0.87582 0.71879 0.41954 0.0
H470 H 0.84582 0.68123 0.33705 0.0
C471 C 0.84889 0.77016 0.28937 0.0
C472 C 0.87751 0.76472 0.35685 0.0
C473 C 0.83739 0.7852 0.27381 0.0
C474 C 0.87721 0.67769 0.42914 0.0
C475 C 0.87616 0.69878 0.41203 0.0
C476 C 0.85527 0.70446 0.34269 0.0
C477 C 0.85361 0.77452 0.31653 0.0
C478 C 0.8612 0.75436 0.33303 0.0
C479 C 0.87446 0.69348 0.38544 0.0
C480 C 0.87106 0.71467 0.36686 0.0
H481 H 0.83179 0.82621 0.32151 0.0
H482 H 0.85171 0.79991 0.34858 0.0
H483 H 0.83744 0.71527 0.30804 0.0
H484 H 0.87505 0.62535 0.386 0.0
H485 H 0.87373 0.66231 0.3563 0.0
C486 C 0.34478 0.85922 0.77007 0.0
C487 C 0.33432 0.83283 0.78094 0.0
C488 C 0.33344 0.86498 0.74642 0.0
C489 C 1.27763 0.83366 0.69475 0.0
H490 H 0.32036 0.85925 0.64884 0.0
C491 C 1.2426 0.79763 0.58713 0.0
C492 C 0.25621 0.78623 0.57658 0.0
C493 C 1.25223 0.81615 0.61009 0.0
C494 C 0.30811 0.85197 0.66132 0.0
H495 H 1.30277 0.7932 0.77678 0.0
H496 H 1.28354 0.8025 0.73556 0.0
H497 H 0.33569 0.86693 0.69526 0.0
H498 H 0.29102 0.78725 0.58053 0.0
H499 H 0.30749 0.81808 0.62086 0.0
H500 H 1.25028 0.81575 0.66097 0.0
C501 C 1.30028 0.81919 0.74517 0.0
C502 C 0.31691 0.85688 0.68813 0.0
C503 C 1.31146 0.81365 0.76889 0.0
C504 C 0.28007 0.79568 0.58817 0.0
C505 C 0.28957 0.81364 0.61139 0.0
C506 C 1.26888 0.82812 0.66797 0.0
C507 C 0.31151 0.84432 0.73301 0.0
C508 C 0.30187 0.84638 0.70522 0.0
C509 C 0.27552 0.82307 0.62333 0.0
C510 C 0.28412 0.83582 0.6509 0.0
H511 H 0.36227 0.87469 0.77908 0.0
H512 H 0.34238 0.88495 0.73805 0.0
H513 H 1.2654 0.82619 0.70724 0.0
H514 H 1.22419 0.79102 0.57837 0.0
H515 H 1.24102 0.82371 0.61815 0.0
C516 C 0.44517 0.9153 0.15328 0.0
C517 C 0.46902 0.92047 0.15998 0.0
C518 C 0.4379 0.93798 0.15612 0.0
C519 C 0.45974 1.01742 0.15533 0.0
H520 H 0.40115 1.00706 0.17293 0.0
C521 C 0.42484 0.10801 0.14184 0.0
C522 C 0.40117 0.09848 0.12915 0.0
C523 C 0.43396 0.08792 0.15206 0.0
C524 C 0.41754 1.01028 0.16791 0.0
H525 H 0.50384 0.95313 0.17634 0.0
H526 H 0.49109 0.99274 0.18134 0.0
H527 H 0.41577 0.96835 0.17955 0.0
H528 H 0.36823 0.06055 0.11845 0.0
H529 H 0.38419 1.02554 0.13578 0.0
H530 H 0.46115 0.05869 0.14267 0.0
C531 C 0.47806 0.97119 0.17361 0.0
C532 C 0.42592 0.98814 0.17174 0.0
C533 C 0.48534 0.94845 0.17086 0.0
C534 C 0.38656 0.06864 0.12808 0.0
C535 C 0.3957 0.04854 0.13819 0.0
C536 C 0.45134 0.03948 0.15141 0.0
C537 C 0.45432 0.96637 0.16567 0.0
C538 C 0.44687 0.99121 0.16498 0.0
C539 C 0.41964 0.05783 0.14973 0.0
C540 C 0.42988 0.03594 0.15712 0.0
H541 H 0.43214 0.89397 0.14493 0.0
H542 H 0.41951 0.93358 0.1496 0.0
H543 H 0.47576 1.02032 0.14954 0.0
H544 H 0.43651 0.13089 0.14321 0.0
H545 H 0.45238 0.09588 0.16126 0.0
C546 C 0.85748 0.6005 0.54493 0.0
C547 C 0.84698 0.58775 0.51938 0.0
C548 C 0.84503 0.60946 0.55956 0.0
C549 C 0.78518 0.60513 0.56 0.0
H550 H 0.81882 0.68426 0.59288 0.0
C551 C 0.735 0.66997 0.58778 0.0
C552 C 0.74189 0.69808 0.57892 0.0
C553 C 0.7495 0.65465 0.5895 0.0
C554 C 0.80916 0.6621 0.58388 0.0
H555 H 0.81478 0.57295 0.48967 0.0
H556 H 0.79342 0.58899 0.51474 0.0
H557 H 0.84018 0.65866 0.57792 0.0
H558 H 0.77009 0.73296 0.56676 0.0
H559 H 0.79493 0.70622 0.56911 0.0
H560 H 0.75397 0.6094 0.56399 0.0
C561 C 0.8111 0.59179 0.52379 0.0
C562 C 0.82146 0.64723 0.57559 0.0
C563 C 0.82347 0.58282 0.50925 0.0
C564 C 0.76417 0.71129 0.57353 0.0
C565 C 0.77857 0.69597 0.57511 0.0
C566 C 0.77286 0.62009 0.56805 0.0
C567 C 0.82184 0.60581 0.54892 0.0
C568 C 0.80951 0.61901 0.56257 0.0
C569 C 0.77112 0.66709 0.58231 0.0
C570 C 0.7846 0.64921 0.57913 0.0
H571 H 0.87552 0.60442 0.55337 0.0
H572 H 0.85374 0.61984 0.57898 0.0
H573 H 0.77547 0.58315 0.55059 0.0
H574 H 0.71801 0.65928 0.59231 0.0
H575 H 0.74339 0.63265 0.59556 0.0
C576 C 1.33585 0.71196 0.89169 0.0
C577 C 1.31878 0.71911 0.8752 0.0
C578 C 1.32964 0.6849 0.90213 0.0
C579 C 1.27971 0.61578 0.90759 0.0
H580 H 1.31517 0.57951 0.88028 0.0
C581 C 1.23815 0.50127 0.8565 0.0
C582 C 1.2519 0.48593 0.8531 0.0
C583 C 1.24807 0.52804 0.87151 0.0
C584 C 1.30538 0.58905 0.88886 0.0
H585 H 1.28153 0.70518 0.85962 0.0
H586 H 1.27075 0.65802 0.87769 0.0
H587 H 1.32969 0.63224 0.88595 0.0
H588 H 1.28621 0.48495 0.86519 0.0
H589 H 1.30346 0.53139 0.89211 0.0
H590 H 1.25486 0.57239 0.90946 0.0
C591 C 1.28893 0.67318 0.8825 0.0
C592 C 1.31376 0.6195 0.89208 0.0
C593 C 1.29513 0.7002 0.87197 0.0
C594 C 1.27524 0.49648 0.86712 0.0
C595 C 1.28515 0.52321 0.88243 0.0
C596 C 1.27144 0.58522 0.90469 0.0
C597 C 1.30626 0.6646 0.89642 0.0
C598 C 1.30045 0.63319 0.90022 0.0
C599 C 1.27197 0.54002 0.88376 0.0
C600 C 1.28355 0.57149 0.89391 0.0
H601 H 1.35422 0.72624 0.89493 0.0
H602 H 1.34332 0.67904 0.91315 0.0
H603 H 1.26925 0.62577 0.91427 0.0
H604 H 1.22002 0.49362 0.8462 0.0
H605 H 1.2373 0.54026 0.87179 0.0
C606 C 0.20147 0.64301 0.45392 0.0
C607 C 0.21759 0.66756 0.47066 0.0
C608 C 0.20894 0.62313 0.44406 0.0
C609 C 0.25994 0.60683 0.43902 0.0
H610 H 0.22945 0.53753 0.47242 0.0
C611 C 0.30851 0.53944 0.48832 0.0
C612 C 0.29603 0.5119 0.49611 0.0
C613 C 0.29666 0.55446 0.47334 0.0
C614 C 0.23787 0.55601 0.46209 0.0
H615 H 0.25444 0.69269 0.48715 0.0
H616 H 0.26745 0.65812 0.46971 0.0
H617 H 0.21273 0.57344 0.46534 0.0
H618 H 0.26186 0.47681 0.49185 0.0
H619 H 0.24123 0.50188 0.46395 0.0
H620 H 0.28534 0.58961 0.43607 0.0
C621 C 0.24905 0.65406 0.46444 0.0
C622 C 0.2282 0.57681 0.45813 0.0
C623 C 0.24157 0.67378 0.47458 0.0
C624 C 0.27181 0.49825 0.48636 0.0
C625 C 0.26001 0.51286 0.47063 0.0
C626 C 0.26938 0.58561 0.44239 0.0
C627 C 0.23266 0.62772 0.45041 0.0
C628 C 0.2397 0.60303 0.4477 0.0
C629 C 0.27208 0.54194 0.46526 0.0
C630 C 0.25915 0.56061 0.45529 0.0
H631 H 1.18288 0.63771 0.45028 0.0
H632 H 0.19599 0.60307 0.43311 0.0
H633 H 0.26904 0.62681 0.43073 0.0
H634 H 0.32723 0.55054 0.49568 0.0
H635 H 0.30679 0.57677 0.46998 0.0
C636 C 0.7244 1.03657 0.80046 0.0
C637 C 0.70464 1.0413 0.80322 0.0
C638 C 0.7379 1.05211 0.78349 0.0
C639 C 0.76158 1.08422 0.74159 0.0
H640 H 0.78209 0.16688 0.76165 0.0
C641 C 0.8433 0.2049 0.74718 0.0
C642 C 0.86127 0.19513 0.7558 0.0
C643 C 0.82 0.18486 0.74019 0.0
C644 C 0.77627 1.14406 0.75496 0.0
H645 H 0.68261 1.06457 0.78911 0.0
H646 H 0.70657 1.09223 0.75978 0.0
H647 H 0.74718 1.13212 0.77285 0.0
H648 H 0.86916 1.15659 0.76098 0.0
H649 H 0.82885 1.12195 0.74988 0.0
H650 H 0.79124 1.0961 0.72453 0.0
C651 C 0.7115 1.07638 0.77071 0.0
C652 C 0.75616 1.12404 0.76152 0.0
C653 C 0.6978 1.06054 0.78747 0.0
C654 C 0.85572 0.16489 0.75466 0.0
C655 C 0.83245 1.1449 0.74806 0.0
C656 C 0.78157 1.10431 0.73469 0.0
C657 C 0.73205 1.07293 0.76914 0.0
C658 C 0.7493 1.09385 0.75605 0.0
C659 C 0.8142 1.15471 0.74209 0.0
C660 C 0.78988 1.13436 0.74254 0.0
H661 H 0.73001 1.02172 0.81219 0.0
H662 H 0.75378 1.0492 0.78294 0.0
H663 H 0.75644 1.06105 0.73681 0.0
H664 H 0.84707 0.22809 0.74741 0.0
H665 H 0.80646 0.19317 0.7349 0.0
C666 C 0.64526 0.53341 0.1556 0.0
C667 C 0.62506 0.52666 0.16533 0.0
C668 C 0.65674 0.56155 0.14842 0.0
C669 C 0.65346 0.63461 0.14066 0.0
H670 H 0.7165 0.66323 0.18309 0.0
C671 C 0.69818 0.74645 0.19857 0.0
C672 C 0.72268 0.7603 0.20534 0.0
C673 C 0.68713 0.71978 0.18327 0.0
C674 C 0.69921 0.6558 0.17051 0.0
H675 H 0.59949 0.54277 0.1722 0.0
H676 H 0.61945 0.59162 0.1599 0.0
H677 H 0.69448 0.6111 0.17271 0.0
H678 H 0.75478 0.7584 0.19951 0.0
H679 H 0.73547 0.71209 0.17245 0.0
H680 H 0.65789 0.67949 0.13973 0.0
C681 C 0.62657 0.57544 0.15778 0.0
C682 C 0.68653 0.62574 0.1645 0.0
C683 C 0.61519 0.54745 0.16507 0.0
C684 C 0.73586 0.74803 0.19495 0.0
C685 C 0.7248 0.72145 0.17949 0.0
C686 C 0.6662 0.66477 0.1466 0.0
C687 C 0.64811 0.58327 0.1507 0.0
C688 C 0.66314 0.61474 0.15056 0.0
C689 C 0.70034 0.70648 0.17423 0.0
C690 C 0.68884 0.67561 0.16264 0.0
H691 H 0.6532 0.51777 0.1554 0.0
H692 H 0.67314 0.56684 0.14267 0.0
H693 H 0.63558 0.62678 0.12952 0.0
H694 H 0.68751 0.7554 0.20616 0.0
H695 H 0.66829 0.70879 0.17991 0.0
C696 C 0.5232 0.39684 0.21051 0.0
C697 C 0.52779 0.42236 0.1974 0.0
C698 C 0.50123 0.37369 0.20411 0.0
C699 C 0.45247 0.33973 0.14942 0.0
H700 H 0.42146 0.29471 0.20059 0.0
C701 C 0.37525 0.23001 0.11724 0.0
C702 C 0.37655 0.20706 0.13204 0.0
C703 C 0.3887 0.25913 0.12699 0.0
C704 C 0.42991 0.30698 0.18605 0.0
H705 H 0.51282 0.44388 0.16769 0.0
H706 H 0.4745 0.40307 0.15618 0.0
H707 H 0.45555 0.34075 0.21444 0.0
H708 H 0.39155 0.19659 0.1694 0.0
H709 H 0.41554 0.2471 0.18606 0.0
H710 H 0.42802 0.30545 0.12117 0.0
C711 C 0.48792 0.40114 0.17148 0.0
C712 C 0.44937 0.33336 0.194 0.0
C713 C 0.50983 0.42447 0.1781 0.0
C714 C 0.39017 0.21379 0.1575 0.0
C715 C 0.40389 0.24289 0.16712 0.0
C716 C 0.43323 0.31322 0.1415 0.0
C717 C 0.48349 0.37545 0.1843 0.0
C718 C 0.46113 0.34963 0.1758 0.0
C719 C 0.40402 0.26589 0.1516 0.0
C720 C 0.42202 0.29613 0.15976 0.0
H721 H 0.53664 0.39461 0.22556 0.0
H722 H 0.49838 0.35399 0.21408 0.0
H723 H 0.46136 0.35166 0.13501 0.0
H724 H 0.36464 0.22547 0.09766 0.0
H725 H 0.38785 0.27629 0.11478 0.0
C726 C 0.43155 0.55305 0.55992 0.0
C727 C 0.41596 0.56647 0.55116 0.0
C728 C 0.45552 0.56828 0.5619 0.0
C729 C 0.50099 0.64332 0.56668 0.0
H730 H 0.53715 0.60373 0.54577 0.0
C731 C 0.59459 0.70464 0.55192 0.0
C732 C 0.6109 0.69218 0.56034 0.0
C733 C 0.57115 0.68951 0.55264 0.0
C734 C 0.52735 0.61498 0.55202 0.0
H735 H 0.41327 0.60626 0.53726 0.0
H736 H 0.45504 0.63265 0.54031 0.0
H737 H 0.49541 0.57672 0.54266 0.0
H738 H 0.6155 0.65435 0.5767 0.0
H739 H 0.5745 0.62796 0.57805 0.0
H740 H 0.53291 0.68169 0.57569 0.0
C741 C 0.44879 0.61054 0.5461 0.0
C742 C 0.50343 0.59952 0.55022 0.0
C743 C 0.42483 0.59533 0.54418 0.0
C744 C 0.60336 0.66454 0.57006 0.0
C745 C 0.57986 0.64933 0.57066 0.0
C746 C 0.52489 0.6588 0.56839 0.0
C747 C 0.46443 0.59724 0.55511 0.0
C748 C 0.48994 0.61354 0.55741 0.0
C749 C 0.56347 0.66154 0.56171 0.0
C750 C 0.5383 0.64483 0.56097 0.0
H751 H 0.42529 0.53086 0.56555 0.0
H752 H 0.46711 0.55751 0.56919 0.0
H753 H 0.49119 0.65464 0.57282 0.0
H754 H 0.59983 0.72589 0.54431 0.0
H755 H 0.5589 0.69937 0.54537 0.0
C756 C 0.99257 0.29744 0.79528 0.0
C757 C 0.98651 0.29148 0.81932 0.0
C758 C 1.01582 0.30605 0.79335 0.0
C759 C 1.07629 0.33713 0.83347 0.0
H760 H 1.09135 0.3085 0.77448 0.0
C761 C 1.17095 0.35826 0.83069 0.0
C762 C 1.17794 0.36931 0.80802 0.0
C763 C 1.14732 0.34657 0.83143 0.0
C764 C 1.08736 0.31675 0.791 0.0
H765 H 0.99998 0.28942 0.8601 0.0
H766 H 1.04022 0.30379 0.85665 0.0
H767 H 1.05049 0.29302 0.77694 0.0
H768 H 1.16556 0.37552 0.76797 0.0
H769 H 1.12429 0.35499 0.76929 0.0
H770 H 1.11312 0.36068 0.8476 0.0
C771 C 1.02722 0.3025 0.83937 0.0
C772 C 1.06398 0.30801 0.79236 0.0
C773 C 1.00408 0.29411 0.84132 0.0
C774 C 1.16074 0.36727 0.78577 0.0
C775 C 1.1371 0.35539 0.78647 0.0
C776 C 1.09961 0.34567 0.83218 0.0
C777 C 1.03341 0.30871 0.81541 0.0
C778 C 1.05818 0.3181 0.81364 0.0
C779 C 1.1302 0.3455 0.80946 0.0
C780 C 1.10539 0.33558 0.81095 0.0
H781 H 0.97941 0.29563 0.77798 0.0
H782 H 1.02004 0.311 0.77465 0.0
H783 H 1.07245 0.3458 0.84988 0.0
H784 H 1.18375 0.35942 0.84814 0.0
H785 H 1.14246 0.33872 0.84931 0.0
C786 C 0.73943 0.88619 0.19763 0.0
C787 C 0.75239 0.88852 0.22306 0.0
C788 C 0.72311 0.89888 0.19212 0.0
C789 C 0.68523 0.91682 0.2262 0.0
H790 H 0.66269 0.93864 0.15893 0.0
C791 C 0.59684 0.92806 0.20097 0.0
C792 C 0.5822 0.91254 0.17746 0.0
C793 C 0.62064 0.93342 0.20674 0.0
C794 C 0.66883 0.93267 0.17785 0.0
H795 H 0.76042 0.90888 0.26201 0.0
H796 H 0.73239 0.93163 0.25224 0.0
H797 H 0.70068 0.93517 0.16868 0.0
H798 H 0.58127 0.89161 0.14107 0.0
H799 H 0.62259 0.90073 0.15121 0.0
H800 H 0.6531 0.91331 0.23508 0.0
C801 C 0.73425 0.91918 0.23673 0.0
C802 C 0.69057 0.93067 0.18343 0.0
C803 C 0.75044 0.90631 0.24228 0.0
C804 C 0.59203 0.9035 0.15943 0.0
C805 C 0.61579 0.90898 0.16513 0.0
C806 C 0.66357 0.91893 0.22065 0.0
C807 C 0.71957 0.91439 0.21188 0.0
C808 C 0.69872 0.92185 0.20741 0.0
C809 C 0.63029 0.92354 0.18903 0.0
C810 C 0.65481 0.92601 0.19615 0.0
H811 H 0.74055 0.87274 0.18232 0.0
H812 H 0.7121 0.8946 0.17278 0.0
H813 H 0.69068 0.90949 0.24471 0.0
H814 H 0.58984 0.93547 0.21521 0.0
H815 H 0.63142 0.94492 0.22522 0.0
C816 C 1.12397 0.70411 0.51629 0.0
C817 C 1.13762 0.68748 0.52026 0.0
C818 C 1.09956 0.69026 0.50987 0.0
C819 C 1.05148 0.61997 0.48189 0.0
H820 H 1.01397 0.65045 0.5122 0.0
C821 C 0.9524 0.5843 0.44206 0.0
C822 C 0.93826 0.58127 0.45989 0.0
C823 C 0.97668 0.59519 0.45047 0.0
C824 C 1.0242 0.64148 0.50379 0.0
H825 H 1.13636 0.64326 0.52084 0.0
H826 H 1.09392 0.61924 0.5099 0.0
H827 H 1.05651 0.67406 0.52516 0.0
H828 H 0.93847 0.58623 0.50065 0.0
H829 H 0.98091 0.60498 0.51534 0.0
H830 H 1.01919 0.58725 0.46069 0.0
C831 C 1.10203 0.64295 0.5114 0.0
C832 C 1.04856 0.65523 0.51095 0.0
C833 C 1.12637 0.65675 0.51781 0.0
C834 C 0.94888 0.58839 0.48641 0.0
C835 C 0.97319 0.59934 0.49481 0.0
C836 C 1.02713 0.60625 0.4747 0.0
C837 C 1.08834 0.65952 0.50727 0.0
C838 C 1.06247 0.64471 0.49999 0.0
C839 C 0.98737 0.60329 0.47688 0.0
C840 C 1.01322 0.61694 0.48546 0.0
H841 H 1.1321 0.72781 0.518 0.0
H842 H 1.08949 0.70363 0.50652 0.0
H843 H 1.0617 0.61149 0.47292 0.0
H844 H 0.94477 0.57902 0.42149 0.0
H845 H 0.98711 0.59822 0.43613 0.0
C846 C 0.44689 0.80279 0.87512 0.0
C847 C 0.43138 0.80916 0.85553 0.0
C848 C 0.47104 0.81763 0.87814 0.0
C849 C 0.51567 0.88429 0.86015 0.0
H850 H 0.55581 0.842 0.87754 0.0
C851 C 0.61207 0.93491 0.85494 0.0
C852 C 0.62801 0.93428 0.87745 0.0
C853 C 0.58824 0.91779 0.85165 0.0
C854 C 0.54478 0.85405 0.87279 0.0
H855 H 0.42901 0.83606 0.82369 0.0
H856 H 0.47098 0.86135 0.82849 0.0
H857 H 0.5137 0.81639 0.8735 0.0
H858 H 0.6316 0.91393 0.91344 0.0
H859 H 0.58985 0.8837 0.90745 0.0
H860 H 0.54673 0.92179 0.85901 0.0
C861 C 0.4646 0.8454 0.84196 0.0
C862 C 0.5207 0.83949 0.87061 0.0
C863 C 0.44049 0.83079 0.83912 0.0
C864 C 0.61975 0.91499 0.89594 0.0
C865 C 0.59589 0.89762 0.8925 0.0
C866 C 0.53966 0.89872 0.86205 0.0
C867 C 0.48019 0.83899 0.86147 0.0
C868 C 0.50585 0.85444 0.86423 0.0
C869 C 0.57988 0.89947 0.87064 0.0
C870 C 0.55443 0.88375 0.86833 0.0
H871 H 0.44039 0.78631 0.88815 0.0
H872 H 0.48253 0.81248 0.89364 0.0
H873 H 0.50487 0.89668 0.85576 0.0
H874 H 0.61786 0.94943 0.84027 0.0
H875 H 0.57627 0.91928 0.83444 0.0
loop_
_geom_bond_atom_site_label_1
_geom_bond_atom_site_label_2
_geom_bond_distance
_geom_bond_site_symmetry_2
_ccdc_geom_bond_type
C0 O1 1.160 . S
C0 O7 1.185 . S
O1 C0 1.160 . S
O2 Zn3 1.899 . S
O2 C10 1.284 . S
Zn3 O2 1.899 . S
Zn3 O4 2.032 . S
Zn3 O7 2.086 . S
Zn3 O12 1.977 . S
O4 Zn3 2.032 . S
O4 C8 1.278 . S
C5 O6 1.203 . S
C5 O12 1.267 . S
O6 C5 1.203 . S
O7 C0 1.185 . S
O7 Zn3 2.086 . S
C8 O4 1.278 . S
C8 O9 1.211 . S
O9 C8 1.211 . S
C10 O2 1.284 . S
C10 O11 1.273 . S
O11 C10 1.273 . S
O12 Zn3 1.977 . S
O12 C5 1.267 . S
C13 O14 1.160 . S
C13 O20 1.185 . S
O14 C13 1.160 . S
O15 Zn16 1.899 . S
O15 C23 1.284 . S
Zn16 O15 1.899 . S
Zn16 O17 2.032 . S
Zn16 O20 2.086 . S
Zn16 O25 1.977 . S
O17 Zn16 2.032 . S
O17 C21 1.278 . S
C18 O19 1.203 . S
C18 O25 1.267 . S
O19 C18 1.203 . S
O20 C13 1.185 . S
O20 Zn16 2.086 . S
C21 O17 1.278 . S
C21 O22 1.211 . S
O22 C21 1.211 . S
C23 O15 1.284 . S
C23 O24 1.273 . S
O24 C23 1.273 . S
O25 Zn16 1.977 . S
O25 C18 1.267 . S
C26 O27 1.160 . S
C26 O33 1.185 . S
O27 C26 1.160 . S
O28 Zn29 1.899 . S
O28 C36 1.284 . S
Zn29 O28 1.899 . S
Zn29 O30 2.032 . S
Zn29 O33 2.086 . S
Zn29 O38 1.977 . S
O30 Zn29 2.032 . S
O30 C34 1.278 . S
C31 O32 1.203 . S
C31 O38 1.267 . S
O32 C31 1.203 . S
O33 C26 1.185 . S
O33 Zn29 2.086 . S
C34 O30 1.278 . S
C34 O35 1.211 . S
O35 C34 1.211 . S
C36 O28 1.284 . S
C36 O37 1.273 . S
O37 C36 1.273 . S
O38 Zn29 1.977 . S
O38 C31 1.267 . S
C39 O40 1.160 . S
C39 O46 1.185 . S
O40 C39 1.160 . S
O41 Zn42 1.899 . S
O41 C49 1.284 . S
Zn42 O41 1.899 . S
Zn42 O43 2.032 . S
Zn42 O46 2.086 . S
Zn42 O51 1.977 . S
O43 Zn42 2.032 . S
O43 C47 1.278 . S
C44 O45 1.203 . S
C44 O51 1.267 . S
O45 C44 1.203 . S
O46 C39 1.185 . S
O46 Zn42 2.086 . S
C47 O43 1.278 . S
C47 O48 1.211 . S
O48 C47 1.211 . S
C49 O41 1.284 . S
C49 O50 1.273 . S
O50 C49 1.273 . S
O51 Zn42 1.977 . S
O51 C44 1.267 . S
C52 O53 1.160 . S
C52 O59 1.185 . S
O53 C52 1.160 . S
O54 Zn55 1.899 . S
O54 C62 1.284 . S
Zn55 O54 1.899 . S
Zn55 O56 2.032 . S
Zn55 O59 2.086 . S
Zn55 O64 1.977 . S
O56 Zn55 2.032 . S
O56 C60 1.278 . S
C57 O58 1.203 . S
C57 O64 1.267 . S
O58 C57 1.203 . S
O59 C52 1.185 . S
O59 Zn55 2.086 . S
C60 O56 1.278 . S
C60 O61 1.211 . S
O61 C60 1.211 . S
C62 O54 1.284 . S
C62 O63 1.273 . S
O63 C62 1.273 . S
O64 Zn55 1.977 . S
O64 C57 1.267 . S
C65 O66 1.160 . S
C65 O72 1.185 . S
O66 C65 1.160 . S
O67 Zn68 1.899 . S
O67 C75 1.284 . S
Zn68 O67 1.899 . S
Zn68 O69 2.032 . S
Zn68 O72 2.086 . S
Zn68 O77 1.977 . S
O69 Zn68 2.032 . S
O69 C73 1.278 . S
C70 O71 1.203 . S
C70 O77 1.267 . S
O71 C70 1.203 . S
O72 C65 1.185 . S
O72 Zn68 2.086 . S
C73 O69 1.278 . S
C73 O74 1.211 . S
O74 C73 1.211 . S
C75 O67 1.284 . S
C75 O76 1.273 . S
O76 C75 1.273 . S
O77 Zn68 1.977 . S
O77 C70 1.267 . S
C78 O79 1.160 . S
C78 O85 1.185 . S
O79 C78 1.160 . S
O80 Zn81 1.899 . S
O80 C88 1.284 . S
Zn81 O80 1.899 . S
Zn81 O82 2.032 . S
Zn81 O85 2.086 . S
Zn81 O90 1.977 . S
O82 Zn81 2.032 . S
O82 C86 1.278 . S
C83 O84 1.203 . S
C83 O90 1.267 . S
O84 C83 1.203 . S
O85 C78 1.185 . S
O85 Zn81 2.086 . S
C86 O82 1.278 . S
C86 O87 1.211 . S
O87 C86 1.211 . S
C88 O80 1.284 . S
C88 O89 1.273 . S
O89 C88 1.273 . S
O90 Zn81 1.977 . S
O90 C83 1.267 . S
C91 O92 1.160 . S
C91 O98 1.185 . S
O92 C91 1.160 . S
O93 Zn94 1.899 . S
O93 C101 1.284 . S
Zn94 O93 1.899 . S
Zn94 O95 2.032 . S
Zn94 O98 2.086 . S
Zn94 O103 1.977 . S
O95 Zn94 2.032 . S
O95 C99 1.278 . S
C96 O97 1.203 . S
C96 O103 1.267 . S
O97 C96 1.203 . S
O98 C91 1.185 . S
O98 Zn94 2.086 . S
C99 O95 1.278 . S
C99 O100 1.211 . S
O100 C99 1.211 . S
C101 O93 1.284 . S
C101 O102 1.273 . S
O102 C101 1.273 . S
O103 Zn94 1.977 . S
O103 C96 1.267 . S
C104 O105 1.160 . S
C104 O111 1.185 . S
O105 C104 1.160 . S
O106 Zn107 1.899 . S
O106 C114 1.284 . S
Zn107 O106 1.899 . S
Zn107 O108 2.032 . S
Zn107 O111 2.086 . S
Zn107 O116 1.977 . S
O108 Zn107 2.032 . S
O108 C112 1.278 . S
C109 O110 1.203 . S
C109 O116 1.267 . S
O110 C109 1.203 . S
O111 C104 1.185 . S
O111 Zn107 2.086 . S
C112 O108 1.278 . S
C112 O113 1.211 . S
O113 C112 1.211 . S
C114 O106 1.284 . S
C114 O115 1.273 . S
O115 C114 1.273 . S
O116 Zn107 1.977 . S
O116 C109 1.267 . S
C117 O118 1.160 . S
C117 O124 1.185 . S
O118 C117 1.160 . S
O119 Zn120 1.899 . S
O119 C127 1.284 . S
Zn120 O119 1.899 . S
Zn120 O121 2.032 . S
Zn120 O124 2.086 . S
Zn120 O129 1.977 . S
O121 Zn120 2.032 . S
O121 C125 1.278 . S
C122 O123 1.203 . S
C122 O129 1.267 . S
O123 C122 1.203 . S
O124 C117 1.185 . S
O124 Zn120 2.086 . S
C125 O121 1.278 . S
C125 O126 1.211 . S
O126 C125 1.211 . S
C127 O119 1.284 . S
C127 O128 1.273 . S
O128 C127 1.273 . S
O129 Zn120 1.977 . S
O129 C122 1.267 . S
C130 O131 1.160 . S
C130 O137 1.185 . S
O131 C130 1.160 . S
O132 Zn133 1.899 . S
O132 C140 1.284 . S
Zn133 O132 1.899 . S
Zn133 O134 2.032 . S
Zn133 O137 2.086 . S
Zn133 O142 1.977 . S
O134 Zn133 2.032 . S
O134 C138 1.278 . S
C135 O136 1.203 . S
C135 O142 1.267 . S
O136 C135 1.203 . S
O137 C130 1.185 . S
O137 Zn133 2.086 . S
C138 O134 1.278 . S
C138 O139 1.211 . S
O139 C138 1.211 . S
C140 O132 1.284 . S
C140 O141 1.273 . S
O141 C140 1.273 . S
O142 Zn133 1.977 . S
O142 C135 1.267 . S
C143 O144 1.160 . S
C143 O150 1.185 . S
O144 C143 1.160 . S
O145 Zn146 1.899 . S
O145 C153 1.284 . S
Zn146 O145 1.899 . S
Zn146 O147 2.032 . S
Zn146 O150 2.086 . S
Zn146 O155 1.977 . S
O147 Zn146 2.032 . S
O147 C151 1.278 . S
C148 O149 1.203 . S
C148 O155 1.267 . S
O149 C148 1.203 . S
O150 C143 1.185 . S
O150 Zn146 2.086 . S
C151 O147 1.278 . S
C151 O152 1.211 . S
O152 C151 1.211 . S
C153 O145 1.284 . S
C153 O154 1.273 . S
O154 C153 1.273 . S
O155 Zn146 1.977 . S
O155 C148 1.267 . S
C156 C157 1.349 . S
C156 C158 1.327 . S
C156 H181 0.950 . S
C157 C156 1.349 . S
C157 C173 1.349 . S
C158 C156 1.327 . S
C158 C177 1.429 1_554 S
C158 H182 0.950 . S
C159 C176 1.574 . S
C159 C178 1.368 . S
C159 H183 0.949 . S
H160 C164 0.949 . S
C161 C162 1.349 . S
C161 C163 1.327 . S
C161 H184 0.950 . S
C162 C161 1.349 . S
C162 C174 1.349 . S
C163 C161 1.327 . S
C163 C179 1.429 . S
C163 H185 0.950 . S
C164 H160 0.949 . S
C164 C172 1.574 . S
C164 C180 1.368 . S
H165 C173 0.950 . S
H166 C171 0.966 . S
H167 C172 0.949 . S
H168 C174 0.950 . S
H169 C175 0.950 . S
H170 C176 0.949 . S
C171 H166 0.966 . S
C171 C173 1.310 1_556 S
C171 C177 1.430 . S
C172 C164 1.574 . S
C172 H167 0.949 . S
C172 C178 1.368 . S
C173 C157 1.349 . S
C173 H165 0.950 . S
C173 C171 1.310 1_554 S
C174 C162 1.349 . S
C174 H168 0.950 . S
C174 C175 1.327 . S
C175 H169 0.950 . S
C175 C174 1.327 . S
C175 C179 1.429 . S
C176 C159 1.574 . S
C176 H170 0.949 . S
C176 C180 1.368 . S
C177 C158 1.429 1_556 S
C177 C171 1.430 . S
C177 C178 1.523 . S
C178 C159 1.368 . S
C178 C172 1.368 . S
C178 C177 1.523 . S
C179 C163 1.429 . S
C179 C175 1.429 . S
C179 C180 1.523 . S
C180 C164 1.368 . S
C180 C176 1.368 . S
C180 C179 1.523 . S
H181 C156 0.950 . S
H182 C158 0.950 . S
H183 C159 0.949 . S
H184 C161 0.950 . S
H185 C163 0.950 . S
C186 C187 1.349 . S
C186 C188 1.327 . S
C186 H211 0.950 . S
C187 C186 1.349 . S
C187 C203 1.349 . S
C188 C186 1.327 . S
C188 C207 1.429 . S
C188 H212 0.950 . S
C189 C206 1.574 . S
C189 C208 1.368 . S
C189 H213 0.949 . S
H190 C194 0.949 . S
C191 C192 1.349 . S
C191 C193 1.327 . S
C191 H214 0.950 . S
C192 C191 1.349 . S
C192 C204 1.349 . S
C193 C191 1.327 . S
C193 C209 1.429 . S
C193 H215 0.950 . S
C194 H190 0.949 . S
C194 C202 1.574 . S
C194 C210 1.368 . S
H195 C203 0.950 . S
H196 C201 0.950 . S
H197 C202 0.949 . S
H198 C204 0.950 . S
H199 C205 0.950 . S
H200 C206 0.949 . S
C201 H196 0.950 . S
C201 C203 1.327 . S
C201 C207 1.429 . S
C202 C194 1.574 . S
C202 H197 0.949 . S
C202 C208 1.368 . S
C203 C187 1.349 . S
C203 H195 0.950 . S
C203 C201 1.327 . S
C204 C192 1.349 . S
C204 H198 0.950 . S
C204 C205 1.327 . S
C205 H199 0.950 . S
C205 C204 1.327 . S
C205 C209 1.429 . S
C206 C189 1.574 . S
C206 H200 0.949 . S
C206 C210 1.368 . S
C207 C188 1.429 . S
C207 C201 1.429 . S
C207 C208 1.523 . S
C208 C189 1.368 . S
C208 C202 1.368 . S
C208 C207 1.523 . S
C209 C193 1.429 . S
C209 C205 1.429 . S
C209 C210 1.523 . S
C210 C194 1.368 . S
C210 C206 1.368 . S
C210 C209 1.523 . S
H211 C186 0.950 . S
H212 C188 0.950 . S
H213 C189 0.949 . S
H214 C191 0.950 . S
H215 C193 0.950 . S
C216 C217 1.349 . S
C216 C218 1.327 . S
C216 H241 0.950 . S
C217 C216 1.349 . S
C217 C233 1.349 . S
C218 C216 1.327 . S
C218 C237 1.429 . S
C218 H242 0.950 . S
C219 C236 1.574 . S
C219 C238 1.368 . S
C219 H243 0.949 . S
H220 C224 0.949 . S
C221 C222 1.349 . S
C221 C223 1.327 . S
C221 H244 0.950 . S
C222 C221 1.349 . S
C222 C234 1.349 . S
C223 C221 1.327 . S
C223 C239 1.429 . S
C223 H245 0.950 . S
C224 H220 0.949 . S
C224 C232 1.574 . S
C224 C240 1.368 . S
H225 C233 0.950 . S
H226 C231 0.950 . S
H227 C232 0.949 . S
H228 C234 0.950 . S
H229 C235 0.950 . S
H230 C236 0.949 . S
C231 H226 0.950 . S
C231 C233 1.327 . S
C231 C237 1.429 . S
C232 C224 1.574 . S
C232 H227 0.949 . S
C232 C238 1.368 . S
C233 C217 1.349 . S
C233 H225 0.950 . S
C233 C231 1.327 . S
C234 C222 1.349 . S
C234 H228 0.950 . S
C234 C235 1.327 . S
C235 H229 0.950 . S
C235 C234 1.327 . S
C235 C239 1.429 . S
C236 C219 1.574 . S
C236 H230 0.949 . S
C236 C240 1.368 . S
C237 C218 1.429 . S
C237 C231 1.429 . S
C237 C238 1.523 . S
C238 C219 1.368 . S
C238 C232 1.368 . S
C238 C237 1.523 . S
C239 C223 1.429 . S
C239 C235 1.429 . S
C239 C240 1.523 . S
C240 C224 1.368 . S
C240 C236 1.368 . S
C240 C239 1.523 . S
H241 C216 0.950 . S
H242 C218 0.950 . S
H243 C219 0.949 . S
H244 C221 0.950 . S
H245 C223 0.950 . S
C246 C247 1.349 . S
C246 C248 1.327 . S
C246 H271 0.950 . S
C247 C246 1.349 . S
C247 C263 1.349 . S
C248 C246 1.327 . S
C248 C267 1.429 . S
C248 H272 0.950 . S
C249 C266 1.574 . S
C249 C268 1.368 . S
C249 H273 0.949 . S
H250 C254 0.949 . S
C251 C252 1.349 . S
C251 C253 1.327 . S
C251 H274 0.950 . S
C252 C251 1.349 . S
C252 C264 1.349 . S
C253 C251 1.327 . S
C253 C269 1.429 . S
C253 H275 0.950 . S
C254 H250 0.949 . S
C254 C262 1.574 1_556 S
C254 C270 1.368 . S
H255 C263 0.950 . S
H256 C261 0.950 . S
H257 C262 0.949 . S
H258 C264 0.950 . S
H259 C265 0.950 . S
H260 C266 0.935 1_556 S
C261 H256 0.950 . S
C261 C263 1.327 . S
C261 C267 1.429 . S
C262 C254 1.574 1_554 S
C262 H257 0.949 . S
C262 C268 1.368 . S
C263 C247 1.349 . S
C263 H255 0.950 . S
C263 C261 1.327 . S
C264 C252 1.349 . S
C264 H258 0.950 . S
C264 C265 1.327 . S
C265 H259 0.950 . S
C265 C264 1.327 . S
C265 C269 1.429 . S
C266 C249 1.574 . S
C266 H260 0.935 1_554 S
C266 C270 1.368 1_554 S
C267 C248 1.429 . S
C267 C261 1.429 . S
C267 C268 1.523 . S
C268 C249 1.368 . S
C268 C262 1.368 . S
C268 C267 1.523 . S
C269 C253 1.429 . S
C269 C265 1.429 . S
C269 C270 1.523 . S
C270 C254 1.368 . S
C270 C266 1.368 1_556 S
C270 C269 1.523 . S
H271 C246 0.950 . S
H272 C248 0.950 . S
H273 C249 0.949 . S
H274 C251 0.950 . S
H275 C253 0.950 . S
C276 C277 1.349 . S
C276 C278 1.327 . S
C276 H301 0.950 . S
C277 C276 1.349 . S
C277 C293 1.349 . S
C278 C276 1.327 . S
C278 C297 1.429 . S
C278 H302 0.950 . S
C279 C296 1.574 . S
C279 C298 1.368 . S
C279 H303 0.949 . S
H280 C284 0.949 . S
C281 C282 1.349 . S
C281 C283 1.327 . S
C281 H304 0.950 . S
C282 C281 1.349 . S
C282 C294 1.349 . S
C283 C281 1.327 . S
C283 C299 1.429 . S
C283 H305 0.950 . S
C284 H280 0.949 . S
C284 C292 1.574 . S
C284 C300 1.368 . S
H285 C293 0.950 . S
H286 C291 0.950 . S
H287 C292 0.949 . S
H288 C294 0.950 . S
H289 C295 0.950 . S
H290 C296 0.949 . S
C291 H286 0.950 . S
C291 C293 1.327 . S
C291 C297 1.429 . S
C292 C284 1.574 . S
C292 H287 0.949 . S
C292 C298 1.368 . S
C293 C277 1.349 . S
C293 H285 0.950 . S
C293 C291 1.327 . S
C294 C282 1.349 . S
C294 H288 0.950 . S
C294 C295 1.327 . S
C295 H289 0.950 . S
C295 C294 1.327 . S
C295 C299 1.429 . S
C296 C279 1.574 . S
C296 H290 0.949 . S
C296 C300 1.368 . S
C297 C278 1.429 . S
C297 C291 1.429 . S
C297 C298 1.523 . S
C298 C279 1.368 . S
C298 C292 1.368 . S
C298 C297 1.523 . S
C299 C283 1.429 . S
C299 C295 1.429 . S
C299 C300 1.523 . S
C300 C284 1.368 . S
C300 C296 1.368 . S
C300 C299 1.523 . S
H301 C276 0.950 . S
H302 C278 0.950 . S
H303 C279 0.949 . S
H304 C281 0.950 . S
H305 C283 0.950 . S
C306 C307 1.349 . S
C306 C308 1.327 . S
C306 H331 0.950 . S
C307 C306 1.349 . S
C307 C323 1.349 . S
C308 C306 1.327 . S
C308 C327 1.429 . S
C308 H332 0.950 . S
C309 C326 1.574 . S
C309 C328 1.368 . S
C309 H333 0.949 . S
H310 C314 0.949 . S
C311 C312 1.349 . S
C311 C313 1.327 . S
C311 H334 0.950 . S
C312 C311 1.349 . S
C312 C324 1.349 . S
C313 C311 1.327 . S
C313 C329 1.429 . S
C313 H335 0.950 . S
C314 H310 0.949 . S
C314 C322 1.574 . S
C314 C330 1.368 . S
H315 C323 0.950 . S
H316 C321 0.950 . S
H317 C322 0.949 . S
H318 C324 0.950 . S
H319 C325 0.950 . S
H320 C326 0.949 . S
C321 H316 0.950 . S
C321 C323 1.327 . S
C321 C327 1.429 . S
C322 C314 1.574 . S
C322 H317 0.949 . S
C322 C328 1.368 . S
C323 C307 1.349 . S
C323 H315 0.950 . S
C323 C321 1.327 . S
C324 C312 1.349 . S
C324 H318 0.950 . S
C324 C325 1.327 . S
C325 H319 0.950 . S
C325 C324 1.327 . S
C325 C329 1.429 . S
C326 C309 1.574 . S
C326 H320 0.949 . S
C326 C330 1.368 . S
C327 C308 1.429 . S
C327 C321 1.429 . S
C327 C328 1.523 . S
C328 C309 1.368 . S
C328 C322 1.368 . S
C328 C327 1.523 . S
C329 C313 1.429 . S
C329 C325 1.429 . S
C329 C330 1.523 . S
C330 C314 1.368 . S
C330 C326 1.368 . S
C330 C329 1.523 . S
H331 C306 0.950 . S
H332 C308 0.950 . S
H333 C309 0.949 . S
H334 C311 0.950 . S
H335 C313 0.950 . S
C336 C337 1.349 . S
C336 C338 1.327 . S
C336 H361 0.950 . S
C337 C336 1.349 . S
C337 C353 1.349 . S
C338 C336 1.327 . S
C338 C357 1.429 . S
C338 H362 0.950 . S
C339 C356 1.574 1_545 S
C339 C358 1.368 1_556 S
C339 H363 0.949 . S
H340 C344 0.954 . S
C341 C342 1.349 . S
C341 C343 1.327 . S
C341 H364 0.950 . S
C342 C341 1.349 . S
C342 C354 1.349 . S
C343 C341 1.327 . S
C343 C359 1.429 . S
C343 H365 0.950 . S
C344 H340 0.954 . S
C344 C352 1.580 . S
C344 C360 1.357 1_554 S
H345 C353 0.950 . S
H346 C351 0.950 1_556 S
H347 C352 0.949 . S
H348 C354 0.950 . S
H349 C355 0.950 . S
H350 C356 0.949 . S
C351 H346 0.950 1_554 S
C351 C353 1.327 . S
C351 C357 1.429 . S
C352 C344 1.580 . S
C352 H347 0.949 . S
C352 C358 1.368 1_565 S
C353 C337 1.349 . S
C353 H345 0.950 . S
C353 C351 1.327 . S
C354 C342 1.349 . S
C354 H348 0.950 . S
C354 C355 1.327 . S
C355 H349 0.950 . S
C355 C354 1.327 . S
C355 C359 1.429 . S
C356 C339 1.574 1_565 S
C356 H350 0.949 . S
C356 C360 1.368 . S
C357 C338 1.429 . S
C357 C351 1.429 . S
C357 C358 1.523 . S
C358 C339 1.368 1_554 S
C358 C352 1.368 1_545 S
C358 C357 1.523 . S
C359 C343 1.429 . S
C359 C355 1.429 . S
C359 C360 1.523 . S
C360 C344 1.357 1_556 S
C360 C356 1.368 . S
C360 C359 1.523 . S
H361 C336 0.950 . S
H362 C338 0.950 . S
H363 C339 0.949 . S
H364 C341 0.950 . S
H365 C343 0.950 . S
C366 C367 1.349 . S
C366 C368 1.327 . S
C366 H391 0.950 . S
C367 C366 1.349 . S
C367 C383 1.349 . S
C368 C366 1.327 . S
C368 C387 1.429 . S
C368 H392 0.950 . S
C369 C386 1.574 . S
C369 C388 1.368 . S
C369 H393 0.949 . S
H370 C374 0.949 . S
C371 C372 1.349 . S
C371 C373 1.327 . S
C371 H394 0.950 . S
C372 C371 1.349 . S
C372 C384 1.349 . S
C373 C371 1.327 . S
C373 C389 1.429 . S
C373 H395 0.950 . S
C374 H370 0.949 . S
C374 C382 1.574 . S
C374 C390 1.368 . S
H375 C383 0.950 . S
H376 C381 0.950 . S
H377 C382 0.949 . S
H378 C384 0.950 . S
H379 C385 0.950 . S
H380 C386 0.949 . S
C381 H376 0.950 . S
C381 C383 1.327 . S
C381 C387 1.429 . S
C382 C374 1.574 . S
C382 H377 0.949 . S
C382 C388 1.368 . S
C383 C367 1.349 . S
C383 H375 0.950 . S
C383 C381 1.327 . S
C384 C372 1.349 . S
C384 H378 0.950 . S
C384 C385 1.327 . S
C385 H379 0.950 . S
C385 C384 1.327 . S
C385 C389 1.429 . S
C386 C369 1.574 . S
C386 H380 0.949 . S
C386 C390 1.368 . S
C387 C368 1.429 . S
C387 C381 1.429 . S
C387 C388 1.523 . S
C388 C369 1.368 . S
C388 C382 1.368 . S
C388 C387 1.523 . S
C389 C373 1.429 . S
C389 C385 1.429 . S
C389 C390 1.523 . S
C390 C374 1.368 . S
C390 C386 1.368 . S
C390 C389 1.523 . S
H391 C366 0.950 . S
H392 C368 0.950 . S
H393 C369 0.949 . S
H394 C371 0.950 . S
H395 C373 0.950 . S
C396 C397 1.349 . S
C396 C398 1.327 . S
C396 H421 0.950 . S
C397 C396 1.349 . S
C397 C413 1.349 . S
C398 C396 1.327 . S
C398 C417 1.429 . S
C398 H422 0.950 . S
C399 C416 1.574 1_455 S
C399 C418 1.368 . S
C399 H423 0.949 . S
H400 C404 0.949 . S
C401 C402 1.349 . S
C401 C403 1.327 . S
C401 H424 0.950 . S
C402 C401 1.349 . S
C402 C414 1.349 . S
C403 C401 1.327 . S
C403 C419 1.429 . S
C403 H425 0.950 . S
C404 H400 0.949 . S
C404 C412 1.574 1_655 S
C404 C420 1.368 . S
H405 C413 0.950 . S
H406 C411 0.950 . S
H407 C412 0.949 . S
H408 C414 0.950 . S
H409 C415 0.950 . S
H410 C416 0.949 . S
C411 H406 0.950 . S
C411 C413 1.327 . S
C411 C417 1.429 . S
C412 C404 1.574 1_455 S
C412 H407 0.949 . S
C412 C418 1.368 . S
C413 C397 1.349 . S
C413 H405 0.950 . S
C413 C411 1.327 . S
C414 C402 1.349 . S
C414 H408 0.950 . S
C414 C415 1.327 . S
C415 H409 0.950 . S
C415 C414 1.327 . S
C415 C419 1.429 . S
C416 C399 1.574 1_655 S
C416 H410 0.949 . S
C416 C420 1.368 . S
C417 C398 1.429 . S
C417 C411 1.429 . S
C417 C418 1.523 . S
C418 C399 1.368 . S
C418 C412 1.368 . S
C418 C417 1.523 . S
C419 C403 1.429 . S
C419 C415 1.429 . S
C419 C420 1.523 . S
C420 C404 1.368 . S
C420 C416 1.368 . S
C420 C419 1.523 . S
H421 C396 0.950 . S
H422 C398 0.950 . S
H423 C399 0.949 . S
H424 C401 0.950 . S
H425 C403 0.950 . S
C426 C427 1.349 . S
C426 C428 1.327 . S
C426 H451 0.950 . S
C427 C426 1.349 . S
C427 C443 1.349 . S
C428 C426 1.327 . S
C428 C447 1.429 . S
C428 H452 0.950 . S
C429 C446 1.574 . S
C429 C448 1.368 1_556 S
C429 H453 0.949 . S
H430 C434 0.949 . S
C431 C432 1.349 . S
C431 C433 1.327 . S
C431 H454 0.950 . S
C432 C431 1.349 . S
C432 C444 1.349 . S
C433 C431 1.327 . S
C433 C449 1.429 . S
C433 H455 0.950 . S
C434 H430 0.949 . S
C434 C442 1.577 . S
C434 C450 1.368 . S
H435 C443 0.950 . S
H436 C441 0.950 . S
H437 C442 0.945 1_554 S
H438 C444 0.950 . S
H439 C445 0.950 . S
H440 C446 0.949 . S
C441 H436 0.950 . S
C441 C443 1.327 . S
C441 C447 1.429 . S
C442 C434 1.577 . S
C442 H437 0.945 1_556 S
C442 C448 1.369 1_556 S
C443 C427 1.349 . S
C443 H435 0.950 . S
C443 C441 1.327 . S
C444 C432 1.349 . S
C444 H438 0.950 . S
C444 C445 1.327 . S
C445 H439 0.950 . S
C445 C444 1.327 . S
C445 C449 1.429 . S
C446 C429 1.574 . S
C446 H440 0.949 . S
C446 C450 1.368 . S
C447 C428 1.429 . S
C447 C441 1.429 . S
C447 C448 1.523 . S
C448 C429 1.368 1_554 S
C448 C442 1.369 1_554 S
C448 C447 1.523 . S
C449 C433 1.429 . S
C449 C445 1.429 . S
C449 C450 1.523 1_545 S
C450 C434 1.368 . S
C450 C446 1.368 . S
C450 C449 1.523 1_565 S
H451 C426 0.950 . S
H452 C428 0.950 . S
H453 C429 0.949 . S
H454 C431 0.950 . S
H455 C433 0.950 . S
C456 C457 1.349 . S
C456 C458 1.327 . S
C456 H481 0.950 . S
C457 C456 1.349 . S
C457 C473 1.349 . S
C458 C456 1.327 . S
C458 C477 1.429 . S
C458 H482 0.950 . S
C459 C476 1.574 . S
C459 C478 1.368 . S
C459 H483 0.949 . S
H460 C464 0.949 . S
C461 C462 1.349 . S
C461 C463 1.327 . S
C461 H484 0.950 . S
C462 C461 1.349 . S
C462 C474 1.349 . S
C463 C461 1.327 . S
C463 C479 1.429 . S
C463 H485 0.950 . S
C464 H460 0.949 . S
C464 C472 1.574 . S
C464 C480 1.368 . S
H465 C473 0.950 . S
H466 C471 0.950 . S
H467 C472 0.949 . S
H468 C474 0.950 . S
H469 C475 0.950 . S
H470 C476 0.949 . S
C471 H466 0.950 . S
C471 C473 1.327 . S
C471 C477 1.429 . S
C472 C464 1.574 . S
C472 H467 0.949 . S
C472 C478 1.368 . S
C473 C457 1.349 . S
C473 H465 0.950 . S
C473 C471 1.327 . S
C474 C462 1.349 . S
C474 H468 0.950 . S
C474 C475 1.327 . S
C475 H469 0.950 . S
C475 C474 1.327 . S
C475 C479 1.429 . S
C476 C459 1.574 . S
C476 H470 0.949 . S
C476 C480 1.368 . S
C477 C458 1.429 . S
C477 C471 1.429 . S
C477 C478 1.523 . S
C478 C459 1.368 . S
C478 C472 1.368 . S
C478 C477 1.523 . S
C479 C463 1.429 . S
C479 C475 1.429 . S
C479 C480 1.523 . S
C480 C464 1.368 . S
C480 C476 1.368 . S
C480 C479 1.523 . S
H481 C456 0.950 . S
H482 C458 0.950 . S
H483 C459 0.949 . S
H484 C461 0.950 . S
H485 C463 0.950 . S
C486 C487 1.349 . S
C486 C488 1.327 . S
C486 H511 0.950 . S
C487 C486 1.349 . S
C487 C503 1.349 . S
C488 C486 1.327 . S
C488 C507 1.429 . S
C488 H512 0.950 . S
C489 C506 1.574 . S
C489 C508 1.368 1_655 S
C489 H513 0.949 . S
H490 C494 0.949 . S
C491 C492 1.349 . S
C491 C493 1.327 . S
C491 H514 0.950 . S
C492 C491 1.349 . S
C492 C504 1.349 . S
C493 C491 1.327 . S
C493 C509 1.429 . S
C493 H515 0.950 . S
C494 H490 0.949 . S
C494 C502 1.574 . S
C494 C510 1.368 1_455 S
H495 C503 0.950 1_655 S
H496 C501 0.985 . S
H497 C502 0.949 . S
H498 C504 0.950 1_455 S
H499 C505 0.950 . S
H500 C506 0.949 . S
C501 H496 0.985 . S
C501 C503 1.307 1_655 S
C501 C507 1.416 1_655 S
C502 C494 1.574 . S
C502 H497 0.949 . S
C502 C508 1.368 . S
C503 C487 1.349 . S
C503 H495 0.950 1_455 S
C503 C501 1.307 1_455 S
C504 C492 1.349 . S
C504 H498 0.950 1_655 S
C504 C505 1.327 1_655 S
C505 H499 0.950 . S
C505 C504 1.327 1_455 S
C505 C509 1.429 1_455 S
C506 C489 1.574 . S
C506 H500 0.949 . S
C506 C510 1.368 . S
C507 C488 1.429 . S
C507 C501 1.416 1_455 S
C507 C508 1.523 . S
C508 C489 1.368 1_455 S
C508 C502 1.368 . S
C508 C507 1.523 . S
C509 C493 1.429 . S
C509 C505 1.429 1_655 S
C509 C510 1.523 . S
C510 C494 1.368 1_655 S
C510 C506 1.368 . S
C510 C509 1.523 . S
H511 C486 0.950 . S
H512 C488 0.950 . S
H513 C489 0.949 . S
H514 C491 0.950 . S
H515 C493 0.950 . S
C516 C517 1.349 . S
C516 C518 1.327 . S
C516 H541 0.950 . S
C517 C516 1.349 . S
C517 C533 1.349 . S
C518 C516 1.327 . S
C518 C537 1.429 . S
C518 H542 0.950 . S
C519 C536 1.574 . S
C519 C538 1.368 . S
C519 H543 0.949 . S
H520 C524 0.949 . S
C521 C522 1.349 . S
C521 C523 1.327 . S
C521 H544 0.950 . S
C522 C521 1.349 . S
C522 C534 1.349 . S
C523 C521 1.327 . S
C523 C539 1.429 . S
C523 H545 0.950 . S
C524 H520 0.949 . S
C524 C532 1.574 . S
C524 C540 1.368 . S
H525 C533 0.950 . S
H526 C531 0.950 . S
H527 C532 0.949 . S
H528 C534 0.950 . S
H529 C535 0.950 . S
H530 C536 0.949 1_545 S
C531 H526 0.950 . S
C531 C533 1.327 . S
C531 C537 1.429 . S
C532 C524 1.574 . S
C532 H527 0.949 . S
C532 C538 1.368 . S
C533 C517 1.349 . S
C533 H525 0.950 . S
C533 C531 1.327 . S
C534 C522 1.349 . S
C534 H528 0.950 . S
C534 C535 1.327 . S
C535 H529 0.950 . S
C535 C534 1.327 . S
C535 C539 1.429 . S
C536 C519 1.574 . S
C536 H530 0.949 1_565 S
C536 C540 1.368 . S
C537 C518 1.429 . S
C537 C531 1.429 . S
C537 C538 1.523 . S
C538 C519 1.368 . S
C538 C532 1.368 . S
C538 C537 1.523 . S
C539 C523 1.429 . S
C539 C535 1.429 . S
C539 C540 1.523 1_545 S
C540 C524 1.368 . S
C540 C536 1.368 . S
C540 C539 1.523 1_565 S
H541 C516 0.950 . S
H542 C518 0.950 . S
H543 C519 0.949 . S
H544 C521 0.950 . S
H545 C523 0.950 . S
C546 C547 1.349 . S
C546 C548 1.327 . S
C546 H571 0.950 . S
C547 C546 1.349 . S
C547 C563 1.349 . S
C548 C546 1.327 . S
C548 C567 1.429 . S
C548 H572 0.950 . S
C549 C566 1.574 . S
C549 C568 1.368 . S
C549 H573 0.949 . S
H550 C554 0.949 . S
C551 C552 1.349 . S
C551 C553 1.327 . S
C551 H574 0.950 . S
C552 C551 1.349 . S
C552 C564 1.349 . S
C553 C551 1.327 . S
C553 C569 1.429 . S
C553 H575 0.950 . S
C554 H550 0.949 . S
C554 C562 1.574 . S
C554 C570 1.368 . S
H555 C563 0.950 . S
H556 C561 0.950 . S
H557 C562 0.949 . S
H558 C564 0.950 . S
H559 C565 0.950 . S
H560 C566 0.949 . S
C561 H556 0.950 . S
C561 C563 1.327 . S
C561 C567 1.429 . S
C562 C554 1.574 . S
C562 H557 0.949 . S
C562 C568 1.368 . S
C563 C547 1.349 . S
C563 H555 0.950 . S
C563 C561 1.327 . S
C564 C552 1.349 . S
C564 H558 0.950 . S
C564 C565 1.327 . S
C565 H559 0.950 . S
C565 C564 1.327 . S
C565 C569 1.429 . S
C566 C549 1.574 . S
C566 H560 0.949 . S
C566 C570 1.368 . S
C567 C548 1.429 . S
C567 C561 1.429 . S
C567 C568 1.523 . S
C568 C549 1.368 . S
C568 C562 1.368 . S
C568 C567 1.523 . S
C569 C553 1.429 . S
C569 C565 1.429 . S
C569 C570 1.523 . S
C570 C554 1.368 . S
C570 C566 1.368 . S
C570 C569 1.523 . S
H571 C546 0.950 . S
H572 C548 0.950 . S
H573 C549 0.949 . S
H574 C551 0.950 . S
H575 C553 0.950 . S
C576 C577 1.349 . S
C576 C578 1.327 . S
C576 H601 0.950 . S
C577 C576 1.349 . S
C577 C593 1.349 1_455 S
C578 C576 1.327 . S
C578 C597 1.429 1_455 S
C578 H602 0.950 . S
C579 C596 1.574 . S
C579 C598 1.368 . S
C579 H603 0.949 . S
H580 C584 0.949 . S
C581 C582 1.349 . S
C581 C583 1.327 . S
C581 H604 0.950 . S
C582 C581 1.349 . S
C582 C594 1.349 . S
C583 C581 1.327 . S
C583 C599 1.429 . S
C583 H605 0.950 . S
C584 H580 0.949 . S
C584 C592 1.574 . S
C584 C600 1.368 . S
H585 C593 0.950 . S
H586 C591 0.950 . S
H587 C592 0.949 . S
H588 C594 0.950 . S
H589 C595 0.950 . S
H590 C596 0.949 . S
C591 H586 0.950 . S
C591 C593 1.327 . S
C591 C597 1.429 . S
C592 C584 1.574 . S
C592 H587 0.949 . S
C592 C598 1.368 . S
C593 C577 1.349 1_655 S
C593 H585 0.950 . S
C593 C591 1.327 . S
C594 C582 1.349 . S
C594 H588 0.950 . S
C594 C595 1.327 . S
C595 H589 0.950 . S
C595 C594 1.327 . S
C595 C599 1.429 . S
C596 C579 1.574 . S
C596 H590 0.949 . S
C596 C600 1.368 . S
C597 C578 1.429 1_655 S
C597 C591 1.429 . S
C597 C598 1.523 . S
C598 C579 1.368 . S
C598 C592 1.368 . S
C598 C597 1.523 . S
C599 C583 1.429 . S
C599 C595 1.429 . S
C599 C600 1.523 . S
C600 C584 1.368 . S
C600 C596 1.368 . S
C600 C599 1.523 . S
H601 C576 0.950 . S
H602 C578 0.950 . S
H603 C579 0.949 . S
H604 C581 0.950 . S
H605 C583 0.950 . S
C606 C607 1.349 . S
C606 C608 1.327 . S
C606 H631 0.950 . S
C607 C606 1.349 . S
C607 C623 1.349 1_655 S
C608 C606 1.327 . S
C608 C627 1.429 1_655 S
C608 H632 0.950 . S
C609 C626 1.574 . S
C609 C628 1.368 . S
C609 H633 0.949 . S
H610 C614 0.949 . S
C611 C612 1.349 . S
C611 C613 1.327 . S
C611 H634 0.950 . S
C612 C611 1.349 . S
C612 C624 1.349 . S
C613 C611 1.327 . S
C613 C629 1.429 . S
C613 H635 0.950 . S
C614 H610 0.949 . S
C614 C622 1.574 . S
C614 C630 1.368 . S
H615 C623 0.950 . S
H616 C621 0.950 . S
H617 C622 0.949 1_655 S
H618 C624 0.950 . S
H619 C625 0.950 . S
H620 C626 0.949 . S
C621 H616 0.950 . S
C621 C623 1.327 . S
C621 C627 1.429 . S
C622 C614 1.574 . S
C622 H617 0.949 1_455 S
C622 C628 1.368 . S
C623 C607 1.349 1_455 S
C623 H615 0.950 . S
C623 C621 1.327 . S
C624 C612 1.349 . S
C624 H618 0.950 . S
C624 C625 1.327 . S
C625 H619 0.950 . S
C625 C624 1.327 . S
C625 C629 1.429 . S
C626 C609 1.574 . S
C626 H620 0.949 . S
C626 C630 1.368 . S
C627 C608 1.429 1_455 S
C627 C621 1.429 . S
C627 C628 1.523 . S
C628 C609 1.368 . S
C628 C622 1.368 . S
C628 C627 1.523 . S
C629 C613 1.429 . S
C629 C625 1.429 . S
C629 C630 1.523 . S
C630 C614 1.368 . S
C630 C626 1.368 . S
C630 C629 1.523 . S
H631 C606 0.950 . S
H632 C608 0.950 . S
H633 C609 0.949 . S
H634 C611 0.950 . S
H635 C613 0.950 . S
C636 C637 1.349 . S
C636 C638 1.327 . S
C636 H661 0.950 . S
C637 C636 1.349 . S
C637 C653 1.349 . S
C638 C636 1.327 . S
C638 C657 1.429 . S
C638 H662 0.950 . S
C639 C656 1.574 . S
C639 C658 1.368 . S
C639 H663 0.949 . S
H640 C644 0.949 . S
C641 C642 1.349 . S
C641 C643 1.327 . S
C641 H664 0.950 . S
C642 C641 1.349 . S
C642 C654 1.349 . S
C643 C641 1.327 . S
C643 C659 1.429 . S
C643 H665 0.950 . S
C644 H640 0.949 . S
C644 C652 1.574 . S
C644 C660 1.368 . S
H645 C653 0.950 . S
H646 C651 0.950 . S
H647 C652 0.949 . S
H648 C654 0.950 . S
H649 C655 0.950 . S
H650 C656 0.949 . S
C651 H646 0.950 . S
C651 C653 1.327 . S
C651 C657 1.429 . S
C652 C644 1.574 . S
C652 H647 0.949 . S
C652 C658 1.368 . S
C653 C637 1.349 . S
C653 H645 0.950 . S
C653 C651 1.327 . S
C654 C642 1.349 . S
C654 H648 0.950 . S
C654 C655 1.327 . S
C655 H649 0.950 . S
C655 C654 1.327 . S
C655 C659 1.429 . S
C656 C639 1.574 . S
C656 H650 0.949 . S
C656 C660 1.368 . S
C657 C638 1.429 . S
C657 C651 1.429 . S
C657 C658 1.523 . S
C658 C639 1.368 . S
C658 C652 1.368 . S
C658 C657 1.523 . S
C659 C643 1.429 . S
C659 C655 1.429 . S
C659 C660 1.523 1_545 S
C660 C644 1.368 . S
C660 C656 1.368 . S
C660 C659 1.523 1_565 S
H661 C636 0.950 . S
H662 C638 0.950 . S
H663 C639 0.949 . S
H664 C641 0.950 . S
H665 C643 0.950 . S
C666 C667 1.349 . S
C666 C668 1.327 . S
C666 H691 0.950 . S
C667 C666 1.349 . S
C667 C683 1.349 . S
C668 C666 1.327 . S
C668 C687 1.429 . S
C668 H692 0.950 . S
C669 C686 1.574 . S
C669 C688 1.368 . S
C669 H693 0.949 . S
H670 C674 0.949 . S
C671 C672 1.349 . S
C671 C673 1.327 . S
C671 H694 0.950 . S
C672 C671 1.349 . S
C672 C684 1.349 . S
C673 C671 1.327 . S
C673 C689 1.429 . S
C673 H695 0.950 . S
C674 H670 0.949 . S
C674 C682 1.574 . S
C674 C690 1.368 . S
H675 C683 0.950 . S
H676 C681 0.950 . S
H677 C682 0.949 . S
H678 C684 0.950 . S
H679 C685 0.950 . S
H680 C686 0.949 . S
C681 H676 0.950 . S
C681 C683 1.327 . S
C681 C687 1.429 . S
C682 C674 1.574 . S
C682 H677 0.949 . S
C682 C688 1.368 . S
C683 C667 1.349 . S
C683 H675 0.950 . S
C683 C681 1.327 . S
C684 C672 1.349 . S
C684 H678 0.950 . S
C684 C685 1.327 . S
C685 H679 0.950 . S
C685 C684 1.327 . S
C685 C689 1.429 . S
C686 C669 1.574 . S
C686 H680 0.949 . S
C686 C690 1.368 . S
C687 C668 1.429 . S
C687 C681 1.429 . S
C687 C688 1.523 . S
C688 C669 1.368 . S
C688 C682 1.368 . S
C688 C687 1.523 . S
C689 C673 1.429 . S
C689 C685 1.429 . S
C689 C690 1.523 . S
C690 C674 1.368 . S
C690 C686 1.368 . S
C690 C689 1.523 . S
H691 C666 0.950 . S
H692 C668 0.950 . S
H693 C669 0.949 . S
H694 C671 0.950 . S
H695 C673 0.950 . S
C696 C697 1.349 . S
C696 C698 1.327 . S
C696 H721 0.950 . S
C697 C696 1.349 . S
C697 C713 1.349 . S
C698 C696 1.327 . S
C698 C717 1.429 . S
C698 H722 0.950 . S
C699 C716 1.574 . S
C699 C718 1.368 . S
C699 H723 0.949 . S
H700 C704 0.949 . S
C701 C702 1.349 . S
C701 C703 1.327 . S
C701 H724 0.950 . S
C702 C701 1.349 . S
C702 C714 1.349 . S
C703 C701 1.327 . S
C703 C719 1.429 . S
C703 H725 0.950 . S
C704 H700 0.949 . S
C704 C712 1.574 . S
C704 C720 1.368 . S
H705 C713 0.950 . S
H706 C711 0.950 . S
H707 C712 0.949 . S
H708 C714 0.950 . S
H709 C715 0.950 . S
H710 C716 0.949 . S
C711 H706 0.950 . S
C711 C713 1.327 . S
C711 C717 1.429 . S
C712 C704 1.574 . S
C712 H707 0.949 . S
C712 C718 1.368 . S
C713 C697 1.349 . S
C713 H705 0.950 . S
C713 C711 1.327 . S
C714 C702 1.349 . S
C714 H708 0.950 . S
C714 C715 1.327 . S
C715 H709 0.950 . S
C715 C714 1.327 . S
C715 C719 1.429 . S
C716 C699 1.574 . S
C716 H710 0.949 . S
C716 C720 1.368 . S
C717 C698 1.429 . S
C717 C711 1.429 . S
C717 C718 1.523 . S
C718 C699 1.368 . S
C718 C712 1.368 . S
C718 C717 1.523 . S
C719 C703 1.429 . S
C719 C715 1.429 . S
C719 C720 1.523 . S
C720 C704 1.368 . S
C720 C716 1.368 . S
C720 C719 1.523 . S
H721 C696 0.950 . S
H722 C698 0.950 . S
H723 C699 0.949 . S
H724 C701 0.950 . S
H725 C703 0.950 . S
C726 C727 1.349 . S
C726 C728 1.327 . S
C726 H751 0.950 . S
C727 C726 1.349 . S
C727 C743 1.349 . S
C728 C726 1.327 . S
C728 C747 1.429 . S
C728 H752 0.950 . S
C729 C746 1.574 . S
C729 C748 1.368 . S
C729 H753 0.949 . S
H730 C734 0.949 . S
C731 C732 1.349 . S
C731 C733 1.327 . S
C731 H754 0.950 . S
C732 C731 1.349 . S
C732 C744 1.349 . S
C733 C731 1.327 . S
C733 C749 1.429 . S
C733 H755 0.950 . S
C734 H730 0.949 . S
C734 C742 1.574 . S
C734 C750 1.368 . S
H735 C743 0.950 . S
H736 C741 0.950 . S
H737 C742 0.949 . S
H738 C744 0.950 . S
H739 C745 0.950 . S
H740 C746 0.949 . S
C741 H736 0.950 . S
C741 C743 1.327 . S
C741 C747 1.429 . S
C742 C734 1.574 . S
C742 H737 0.949 . S
C742 C748 1.368 . S
C743 C727 1.349 . S
C743 H735 0.950 . S
C743 C741 1.327 . S
C744 C732 1.349 . S
C744 H738 0.950 . S
C744 C745 1.327 . S
C745 H739 0.950 . S
C745 C744 1.327 . S
C745 C749 1.429 . S
C746 C729 1.574 . S
C746 H740 0.949 . S
C746 C750 1.368 . S
C747 C728 1.429 . S
C747 C741 1.429 . S
C747 C748 1.523 . S
C748 C729 1.368 . S
C748 C742 1.368 . S
C748 C747 1.523 . S
C749 C733 1.429 . S
C749 C745 1.429 . S
C749 C750 1.523 . S
C750 C734 1.368 . S
C750 C746 1.368 . S
C750 C749 1.523 . S
H751 C726 0.950 . S
H752 C728 0.950 . S
H753 C729 0.949 . S
H754 C731 0.950 . S
H755 C733 0.950 . S
C756 C757 1.349 . S
C756 C758 1.327 . S
C756 H781 0.950 . S
C757 C756 1.349 . S
C757 C773 1.349 . S
C758 C756 1.327 . S
C758 C777 1.429 . S
C758 H782 0.950 . S
C759 C776 1.574 . S
C759 C778 1.368 . S
C759 H783 0.949 . S
H760 C764 0.949 . S
C761 C762 1.349 . S
C761 C763 1.327 . S
C761 H784 0.950 . S
C762 C761 1.349 . S
C762 C774 1.349 . S
C763 C761 1.327 . S
C763 C779 1.429 . S
C763 H785 0.950 . S
C764 H760 0.949 . S
C764 C772 1.574 . S
C764 C780 1.368 . S
H765 C773 0.950 . S
H766 C771 0.950 . S
H767 C772 0.949 . S
H768 C774 0.950 . S
H769 C775 0.950 . S
H770 C776 0.949 . S
C771 H766 0.950 . S
C771 C773 1.327 . S
C771 C777 1.429 . S
C772 C764 1.574 . S
C772 H767 0.949 . S
C772 C778 1.368 . S
C773 C757 1.349 . S
C773 H765 0.950 . S
C773 C771 1.327 . S
C774 C762 1.349 . S
C774 H768 0.950 . S
C774 C775 1.327 . S
C775 H769 0.950 . S
C775 C774 1.327 . S
C775 C779 1.429 . S
C776 C759 1.574 . S
C776 H770 0.949 . S
C776 C780 1.368 . S
C777 C758 1.429 . S
C777 C771 1.429 . S
C777 C778 1.523 . S
C778 C759 1.368 . S
C778 C772 1.368 . S
C778 C777 1.523 . S
C779 C763 1.429 . S
C779 C775 1.429 . S
C779 C780 1.523 . S
C780 C764 1.368 . S
C780 C776 1.368 . S
C780 C779 1.523 . S
H781 C756 0.950 . S
H782 C758 0.950 . S
H783 C759 0.949 . S
H784 C761 0.950 . S
H785 C763 0.950 . S
C786 C787 1.349 . S
C786 C788 1.327 . S
C786 H811 0.950 . S
C787 C786 1.349 . S
C787 C803 1.349 . S
C788 C786 1.327 . S
C788 C807 1.429 . S
C788 H812 0.950 . S
C789 C806 1.574 . S
C789 C808 1.368 . S
C789 H813 0.949 . S
H790 C794 0.949 . S
C791 C792 1.349 . S
C791 C793 1.327 . S
C791 H814 0.950 . S
C792 C791 1.349 . S
C792 C804 1.349 . S
C793 C791 1.327 . S
C793 C809 1.429 . S
C793 H815 0.950 . S
C794 H790 0.949 . S
C794 C802 1.574 . S
C794 C810 1.368 . S
H795 C803 0.950 . S
H796 C801 0.950 . S
H797 C802 0.949 . S
H798 C804 0.950 . S
H799 C805 0.950 . S
H800 C806 0.949 . S
C801 H796 0.950 . S
C801 C803 1.327 . S
C801 C807 1.429 . S
C802 C794 1.574 . S
C802 H797 0.949 . S
C802 C808 1.368 . S
C803 C787 1.349 . S
C803 H795 0.950 . S
C803 C801 1.327 . S
C804 C792 1.349 . S
C804 H798 0.950 . S
C804 C805 1.327 . S
C805 H799 0.950 . S
C805 C804 1.327 . S
C805 C809 1.429 . S
C806 C789 1.574 . S
C806 H800 0.949 . S
C806 C810 1.368 . S
C807 C788 1.429 . S
C807 C801 1.429 . S
C807 C808 1.523 . S
C808 C789 1.368 . S
C808 C802 1.368 . S
C808 C807 1.523 . S
C809 C793 1.429 . S
C809 C805 1.429 . S
C809 C810 1.523 . S
C810 C794 1.368 . S
C810 C806 1.368 . S
C810 C809 1.523 . S
H811 C786 0.950 . S
H812 C788 0.950 . S
H813 C789 0.949 . S
H814 C791 0.950 . S
H815 C793 0.950 . S
C816 C817 1.349 . S
C816 C818 1.327 . S
C816 H841 0.950 . S
C817 C816 1.349 . S
C817 C833 1.349 . S
C818 C816 1.327 . S
C818 C837 1.429 . S
C818 H842 0.950 . S
C819 C836 1.574 . S
C819 C838 1.368 . S
C819 H843 0.949 . S
H820 C824 0.949 . S
C821 C822 1.349 . S
C821 C823 1.327 . S
C821 H844 0.950 . S
C822 C821 1.349 . S
C822 C834 1.349 . S
C823 C821 1.327 . S
C823 C839 1.429 . S
C823 H845 0.950 . S
C824 H820 0.949 . S
C824 C832 1.574 . S
C824 C840 1.368 . S
H825 C833 0.950 . S
H826 C831 0.950 . S
H827 C832 0.949 . S
H828 C834 0.950 . S
H829 C835 0.950 . S
H830 C836 0.949 . S
C831 H826 0.950 . S
C831 C833 1.327 . S
C831 C837 1.429 . S
C832 C824 1.574 . S
C832 H827 0.949 . S
C832 C838 1.368 . S
C833 C817 1.349 . S
C833 H825 0.950 . S
C833 C831 1.327 . S
C834 C822 1.349 . S
C834 H828 0.950 . S
C834 C835 1.327 . S
C835 H829 0.950 . S
C835 C834 1.327 . S
C835 C839 1.429 . S
C836 C819 1.574 . S
C836 H830 0.949 . S
C836 C840 1.368 . S
C837 C818 1.429 . S
C837 C831 1.429 . S
C837 C838 1.523 . S
C838 C819 1.368 . S
C838 C832 1.368 . S
C838 C837 1.523 . S
C839 C823 1.429 . S
C839 C835 1.429 . S
C839 C840 1.523 . S
C840 C824 1.368 . S
C840 C836 1.368 . S
C840 C839 1.523 . S
H841 C816 0.950 . S
H842 C818 0.950 . S
H843 C819 0.949 . S
H844 C821 0.950 . S
H845 C823 0.950 . S
C846 C847 1.349 . S
C846 C848 1.327 . S
C846 H871 0.950 . S
C847 C846 1.349 . S
C847 C863 1.349 . S
C848 C846 1.327 . S
C848 C867 1.429 . S
C848 H872 0.950 . S
C849 C866 1.574 . S
C849 C868 1.368 . S
C849 H873 0.949 . S
H850 C854 0.949 . S
C851 C852 1.349 . S
C851 C853 1.327 . S
C851 H874 0.950 . S
C852 C851 1.349 . S
C852 C864 1.349 . S
C853 C851 1.327 . S
C853 C869 1.429 . S
C853 H875 0.950 . S
C854 H850 0.949 . S
C854 C862 1.574 . S
C854 C870 1.368 . S
H855 C863 0.950 . S
H856 C861 0.950 . S
H857 C862 0.949 . S
H858 C864 0.950 . S
H859 C865 0.950 . S
H860 C866 0.949 . S
C861 H856 0.950 . S
C861 C863 1.327 . S
C861 C867 1.429 . S
C862 C854 1.574 . S
C862 H857 0.949 . S
C862 C868 1.368 . S
C863 C847 1.349 . S
C863 H855 0.950 . S
C863 C861 1.327 . S
C864 C852 1.349 . S
C864 H858 0.950 . S
C864 C865 1.327 . S
C865 H859 0.950 . S
C865 C864 1.327 . S
C865 C869 1.429 . S
C866 C849 1.574 . S
C866 H860 0.949 . S
C866 C870 1.368 . S
C867 C848 1.429 . S
C867 C861 1.429 . S
C867 C868 1.523 . S
C868 C849 1.368 . S
C868 C862 1.368 . S
C868 C867 1.523 . S
C869 C853 1.429 . S
C869 C865 1.429 . S
C869 C870 1.523 . S
C870 C854 1.368 . S
C870 C866 1.368 . S
C870 C869 1.523 . S
H871 C846 0.950 . S
H872 C848 0.950 . S
H873 C849 0.949 . S
H874 C851 0.950 . S
H875 C853 0.950 . S
C157 C8 0.647 . S
C162 C138 1.034 . S
C187 C151 0.647 . S
C192 C21 1.033 . S
C217 C86 0.461 . S
C222 C34 0.456 . S
C247 C47 1.235 . S
C252 C99 1.103 . S
C277 C60 1.103 . S
C282 C112 1.236 . S
C307 C125 0.456 . S
C312 C73 0.461 . S
C337 C5 0.917 . S
C342 C96 1.263 . S
C367 C109 0.513 . S
C372 C18 0.513 . S
C397 C122 0.623 . S
C402 C31 0.623 . S
C427 C44 0.513 . S
C432 C135 0.513 . S
C457 C148 0.916 . S
C462 C57 1.262 . S
C487 C70 0.618 . S
C492 C83 0.617 . S
C517 C49 0.640 . S
C522 C10 0.434 . S
C547 C62 0.609 . S
C552 C23 0.767 . S
C577 C75 0.654 . S
C582 C36 0.647 . S
C607 C88 0.654 . S
C612 C127 0.647 . S
C637 C101 0.610 . S
C642 C140 0.767 . S
C667 C114 0.640 . S
C672 C153 0.434 . S
C697 C104 1.639 . S
C702 C0 1.501 . S
C727 C117 1.400 . S
C732 C13 1.414 . S
C757 C130 1.414 . S
C762 C26 1.400 . S
C787 C143 1.502 . S
C792 C39 1.639 . S
C817 C78 1.357 . S
C822 C52 1.370 . S
C847 C65 1.355 . S
C852 C91 1.368 . S
