# Generated by pormake.
# Topology mdf, (4)-cn, num edge types: 1
# Building blocks:
#     Node 0, Type 0, BuildingBlock: QUQFOY_clean_sbu_3, # of connection points: 4
#     Node 1, Type 0, BuildingBlock: QUQFOY_clean_sbu_3, # of connection points: 4
#     Node 2, Type 0, BuildingBlock: QUQFOY_clean_sbu_3, # of connection points: 4
#     Node 3, Type 0, BuildingBlock: QUQFOY_clean_sbu_3, # of connection points: 4
#     Node 4, Type 0, BuildingBlock: QUQFOY_clean_sbu_3, # of connection points: 4
#     Node 5, Type 0, BuildingBlock: QUQFOY_clean_sbu_3, # of connection points: 4
#     Node 6, Type 0, BuildingBlock: QUQFOY_clean_sbu_3, # of connection points: 4
#     Node 7, Type 0, BuildingBlock: QUQFOY_clean_sbu_3, # of connection points: 4
#     Edge 8, Type (0, 0), BuildingBlock: OJICUG_clean_linker_0, # of connection points: 2
#     Edge 9, Type (0, 0), BuildingBlock: OJICUG_clean_linker_0, # of connection points: 2
#     Edge 10, Type (0, 0), BuildingBlock: OJICUG_clean_linker_0, # of connection points: 2
#     Edge 11, Type (0, 0), BuildingBlock: OJICUG_clean_linker_0, # of connection points: 2
#     Edge 12, Type (0, 0), BuildingBlock: OJICUG_clean_linker_0, # of connection points: 2
#     Edge 13, Type (0, 0), BuildingBlock: OJICUG_clean_linker_0, # of connection points: 2
#     Edge 14, Type (0, 0), BuildingBlock: OJICUG_clean_linker_0, # of connection points: 2
#     Edge 15, Type (0, 0), BuildingBlock: OJICUG_clean_linker_0, # of connection points: 2
#     Edge 16, Type (0, 0), BuildingBlock: OJICUG_clean_linker_0, # of connection points: 2
#     Edge 17, Type (0, 0), BuildingBlock: OJICUG_clean_linker_0, # of connection points: 2
#     Edge 18, Type (0, 0), BuildingBlock: OJICUG_clean_linker_0, # of connection points: 2
#     Edge 19, Type (0, 0), BuildingBlock: OJICUG_clean_linker_0, # of connection points: 2
#     Edge 20, Type (0, 0), BuildingBlock: OJICUG_clean_linker_0, # of connection points: 2
#     Edge 21, Type (0, 0), BuildingBlock: OJICUG_clean_linker_0, # of connection points: 2
#     Edge 22, Type (0, 0), BuildingBlock: OJICUG_clean_linker_0, # of connection points: 2
#     Edge 23, Type (0, 0), BuildingBlock: OJICUG_clean_linker_0, # of connection points: 2
# Relax obj value: 0.015
# Max RMSD: 0.038
# Mean RMSD: 0.038
data_MOF--net-mdf--node1-QUQFOY_clean_sbu_3--edge1-OJICUG_clean_linker_0
_symmetry_space_group_name_H-M    P1
_symmetry_Int_Tables_number       1
_symmetry_cell_setting            triclinic
loop_
_symmetry_equiv_pos_as_xyz
'x, y, z'
_cell_length_a     28.93927
_cell_length_b     29.048235
_cell_length_c     9.1805271
_cell_angle_alpha  89.975403
_cell_angle_beta   90.032833
_cell_angle_gamma 91.410336
loop_
_atom_site_label
_atom_site_type_symbol
_atom_site_fract_x
_atom_site_fract_y
_atom_site_fract_z
_atom_type_partial_charge
C0 C 0.28932 0.5481 0.08857 0.0
O1 O 0.27165 0.51844 0.00199 0.0
Cd2 Cd 0.22272 0.4569 0.09199 0.0
O3 O 0.27767 0.54901 0.22174 0.0
Cd4 Cd 0.22628 0.51556 0.40217 0.0
C5 C 0.29305 0.42237 0.37767 0.0
O6 O 0.16602 0.49296 0.23773 0.0
O7 O 0.15833 0.46768 0.4578 0.0
O8 O 0.20473 0.59375 0.43679 0.0
C9 C 0.14254 0.4695 0.32903 0.0
O10 O 0.27574 0.41618 0.25121 0.0
C11 C 0.20969 0.59386 0.57403 0.0
O12 O 0.28177 0.45637 0.45686 0.0
O13 O 0.22433 0.55724 0.63274 0.0
C14 C 0.42534 0.68096 0.88886 0.0
O15 O 0.45607 0.69736 0.97434 0.0
Cd16 Cd 0.51858 0.74417 0.8792 0.0
O17 O 0.42413 0.69314 0.75628 0.0
Cd18 Cd 0.45899 0.74471 0.57993 0.0
C19 C 0.55008 0.6752 0.58942 0.0
O20 O 0.48544 0.80503 0.74201 0.0
O21 O 0.5106 0.8086 0.52024 0.0
O22 O 0.38209 0.77176 0.54876 0.0
C23 C 0.50949 0.82622 0.64655 0.0
O24 O 0.55775 0.69147 0.71627 0.0
C25 C 0.38087 0.76648 0.41171 0.0
O26 O 0.51556 0.68776 0.51416 0.0
O27 O 0.41606 0.74904 0.35178 0.0
C28 C 0.19025 0.92886 0.58532 0.0
O29 O 0.20762 0.95854 0.4982 0.0
Cd30 Cd 0.25704 0.01994 0.58675 0.0
O31 O 0.20244 0.92786 0.71802 0.0
Cd32 Cd 0.25464 0.9612 0.89626 0.0
C33 C 0.18797 0.05455 0.87475 0.0
O34 O 0.31446 0.98385 0.73004 0.0
O35 O 0.32269 0.00903 0.95006 0.0
O36 O 0.27655 0.88307 0.93089 0.0
C37 C 0.33818 0.00722 0.82098 0.0
O38 O 0.20477 0.06081 0.74772 0.0
C39 C 0.27165 0.88292 0.06814 0.0
O40 O 0.19949 0.02044 0.95323 0.0
O41 O 0.25696 0.9195 0.12683 0.0
C42 C 0.05411 0.79544 0.39001 0.0
O43 O 0.0236 0.77896 0.47603 0.0
Cd44 Cd 0.96135 0.73158 0.38148 0.0
O45 O 0.05531 0.78299 0.25776 0.0
Cd46 Cd 0.02094 0.7309 0.08229 0.0
C47 C 0.92951 0.79996 0.09037 0.0
O48 O -0.00536 0.67069 0.245 0.0
O49 O 0.96969 0.66674 0.02293 0.0
O50 O 0.09802 0.70419 0.05287 0.0
C51 C 0.97071 0.64931 0.14958 0.0
O52 O 0.92193 0.78385 0.21749 0.0
C53 C 0.09946 0.70949 0.91584 0.0
O54 O 0.96408 0.78746 0.01539 0.0
O55 O 0.06427 0.7267 0.85506 0.0
C56 C 0.79116 0.04952 0.55589 0.0
O57 O 0.7752 0.01904 0.46909 0.0
Cd58 Cd 0.72865 0.95631 0.5645 0.0
O59 O 0.77841 0.05026 0.68791 0.0
Cd60 Cd 0.72687 0.01554 0.86406 0.0
C61 C 0.79833 0.92608 0.85479 0.0
O62 O 0.66688 -0.01165 0.70157 0.0
O63 O 0.66321 0.96364 0.92389 0.0
O64 O 0.69924 0.09202 0.89443 0.0
C65 C 0.64578 0.96424 0.7971 0.0
O66 O 0.78229 0.91814 0.72769 0.0
C67 C 0.70536 0.09362 0.03113 0.0
O68 O 0.78487 0.96013 0.9299 0.0
O69 O 0.7231 0.05869 0.09125 0.0
C70 C 0.92657 0.18499 0.36977 0.0
O71 O 0.95593 0.20183 0.45914 0.0
Cd72 Cd 0.01862 0.25071 0.37656 0.0
O73 O 0.92662 0.19739 0.23729 0.0
Cd74 Cd 0.96274 0.25019 0.06652 0.0
C75 C 0.05595 0.18337 0.08978 0.0
O76 O 0.98463 0.30997 0.23553 0.0
O77 O 0.01237 0.3168 0.01782 0.0
O78 O 0.8853 0.27398 0.02438 0.0
C79 C 0.00913 0.33298 0.14562 0.0
O80 O 0.0614 0.19952 0.21787 0.0
C81 C 0.88652 0.26962 0.88703 0.0
O82 O 0.02217 0.19517 0.0099 0.0
O83 O 0.92341 0.25417 0.83179 0.0
C84 C 0.6898 0.42524 0.05739 0.0
O85 O 0.70563 0.45595 0.97114 0.0
Cd86 Cd 0.75156 0.519 0.06694 0.0
O87 O 0.70227 0.42452 0.18976 0.0
Cd88 Cd 0.75327 0.45988 0.36666 0.0
C89 C 0.68133 0.54895 0.35581 0.0
O90 O 0.81334 0.48722 0.20475 0.0
O91 O 0.81661 0.51222 0.42669 0.0
O92 O 0.78132 0.38363 0.39895 0.0
C93 C 0.83424 0.51149 0.30026 0.0
O94 O 0.69749 0.55696 0.22896 0.0
C95 C 0.77523 0.38228 0.53566 0.0
O96 O 0.69485 0.51497 0.43124 0.0
O97 O 0.75724 0.4172 0.59488 0.0
C98 C 0.55498 0.28983 0.86661 0.0
O99 O 0.52561 0.27271 0.95539 0.0
Cd100 Cd 0.46276 0.22432 0.87134 0.0
O101 O 0.55483 0.27799 0.73362 0.0
Cd102 Cd 0.51863 0.22609 0.56016 0.0
C103 C 0.42557 0.293 0.58683 0.0
O104 O 0.49678 0.16592 0.72734 0.0
O105 O 0.46901 0.15947 0.50956 0.0
O106 O 0.59616 0.20276 0.51797 0.0
C107 C 0.4722 0.14309 0.63718 0.0
O108 O 0.4202 0.27633 0.71433 0.0
C109 C 0.5949 0.20722 0.38065 0.0
O110 O 0.45923 0.28145 0.5062 0.0
O111 O 0.55795 0.2226 0.32542 0.0
C112 C 0.3837 0.63995 0.09024 0.0
C113 C 0.39053 0.64718 0.94086 0.0
H114 H 0.34598 0.60298 0.254 0.0
C115 C 0.36367 0.62174 0.83987 0.0
H116 H 0.40373 0.65925 0.17029 0.0
C117 C 0.33082 0.58931 0.88743 0.0
C118 C 0.32394 0.58212 0.0368 0.0
H119 H 0.36825 0.62654 0.72369 0.0
H120 H 0.31069 0.57015 0.80735 0.0
C121 C 0.35051 0.60786 0.13783 0.0
C122 C 0.34326 0.78222 0.17314 0.0
C123 C 0.34359 0.7866 0.32521 0.0
H124 H 0.31892 0.809 0.97147 0.0
C125 C 0.31246 0.81643 0.39227 0.0
H126 H 0.36635 0.75896 0.11879 0.0
C127 C 0.28563 0.84549 0.30805 0.0
C128 C 0.28921 0.84469 0.15578 0.0
H129 H 0.31147 0.82005 0.50966 0.0
H130 H 0.26463 0.87066 0.36229 0.0
C131 C 0.31603 0.8109 0.08895 0.0
C132 C 0.09584 0.83705 0.5901 0.0
C133 C 0.08876 0.82955 0.44097 0.0
H134 H 0.13383 0.87434 0.75261 0.0
C135 C 0.11533 0.85494 0.33911 0.0
H136 H 0.07603 0.8178 0.67078 0.0
C137 C 0.14822 0.8875 0.38558 0.0
C138 C 0.15542 0.89488 0.5347 0.0
H139 H 0.11055 0.84994 0.22309 0.0
H140 H 0.16819 0.90654 0.30485 0.0
C141 C 0.12906 0.86929 0.63661 0.0
C142 C 0.13779 0.69434 0.67824 0.0
C143 C 0.13706 0.68967 0.83021 0.0
H144 H 0.16274 0.66798 0.47694 0.0
C145 C 0.16813 0.65985 0.89779 0.0
H146 H 0.11478 0.71762 0.62353 0.0
C147 C 0.19527 0.63101 0.81396 0.0
C148 C 0.19205 0.63204 0.66161 0.0
H149 H 0.16882 0.65603 0.01515 0.0
H150 H 0.21616 0.60579 0.86848 0.0
C151 C 0.16534 0.66589 0.59447 0.0
C152 C 0.83381 0.09151 0.35823 0.0
C153 C 0.82541 0.08432 0.50685 0.0
H154 H 0.87242 0.12937 0.19835 0.0
C155 C 0.85031 0.11067 0.6104 0.0
H156 H 0.81496 0.07185 0.2763 0.0
C157 C 0.88337 0.14334 0.56621 0.0
C158 C 0.8918 0.15055 0.41767 0.0
H159 H 0.84463 0.10582 0.72608 0.0
H160 H 0.90206 0.16309 0.64829 0.0
C161 C 0.86658 0.12454 0.31396 0.0
C162 C 0.81568 0.31575 0.86037 0.0
C163 C 0.84968 0.28857 0.79599 0.0
H164 H 0.76489 0.36703 0.82731 0.0
C165 C 0.85221 0.28583 0.64374 0.0
H166 H 0.81248 0.31805 -0.02231 0.0
C167 C 0.82458 0.31361 0.5577 0.0
C168 C 0.79446 0.34481 0.62294 0.0
H169 H 0.8776 0.26463 0.59128 0.0
H170 H 0.82947 0.31309 0.44073 0.0
C171 C 0.78842 0.34389 0.77443 0.0
C172 C 0.64766 0.38342 0.85837 0.0
C173 C 0.65593 0.39023 0.00725 0.0
H174 H 0.60923 0.34594 0.69716 0.0
C175 C 0.63113 0.36342 0.10988 0.0
H176 H 0.66643 0.40341 0.7771 0.0
C177 C 0.5982 0.33077 0.06453 0.0
C178 C 0.58981 0.32404 0.91573 0.0
H179 H 0.63675 0.36796 0.22573 0.0
H180 H 0.57953 0.31073 0.14592 0.0
C181 C 0.61502 0.35041 0.81294 0.0
C182 C 0.65631 0.16254 0.05174 0.0
C183 C 0.68646 0.13143 0.11748 0.0
H184 H 0.60343 0.21168 0.08466 0.0
C185 C 0.69283 0.13278 0.26882 0.0
H186 H 0.65119 0.16273 0.93484 0.0
C187 C 0.66581 0.16122 0.35431 0.0
C188 C 0.6317 0.18825 0.28966 0.0
H189 H 0.71641 0.10973 0.32202 0.0
H190 H 0.66923 0.15922 0.47165 0.0
C191 C 0.62891 0.19062 0.13737 0.0
C192 C 0.353 0.36371 0.33267 0.0
C193 C 0.32729 0.38971 0.43152 0.0
H194 H 0.40488 0.31316 0.30442 0.0
C195 C 0.33454 0.38409 0.58156 0.0
H196 H 0.3483 0.36758 0.21625 0.0
C197 C 0.36636 0.35241 0.63189 0.0
C198 C 0.39218 0.32653 0.53301 0.0
H199 H 0.31514 0.40363 0.66008 0.0
H200 H 0.37101 0.34849 0.7483 0.0
C201 C 0.38552 0.33275 0.38295 0.0
C202 C 0.58186 0.90985 0.86812 0.0
C203 C 0.60679 0.93327 0.75851 0.0
H204 H 0.53085 0.85776 0.9183 0.0
C205 C 0.59631 0.92432 0.61181 0.0
H206 H 0.58902 0.91642 -0.01782 0.0
C207 C 0.56329 0.89054 0.57531 0.0
C208 C 0.53995 0.86556 0.68495 0.0
H209 H 0.6149 0.94203 0.52515 0.0
H210 H 0.557 0.8831 0.46127 0.0
C211 C 0.54851 0.87639 0.83161 0.0
C212 C 0.09564 0.14428 0.88411 0.0
C213 C 0.08932 0.15009 0.03446 0.0
H214 H 0.13242 0.10986 0.71581 0.0
C215 C 0.11542 0.12399 0.13216 0.0
H216 H 0.07607 0.16405 0.80645 0.0
C217 C 0.14711 0.09245 0.08041 0.0
C218 C 0.15397 0.08718 0.93009 0.0
H219 H 0.11104 0.1276 0.24876 0.0
H220 H 0.1667 0.0727 0.15807 0.0
C221 C 0.12803 0.11345 0.8324 0.0
C222 C 0.9314 0.59948 0.33496 0.0
C223 C 0.94023 0.61002 0.18825 0.0
H224 H 0.89061 0.55974 0.48554 0.0
C225 C 0.91709 0.58482 0.07867 0.0
H226 H 0.9489 0.61829 0.4216 0.0
C227 C 0.88401 0.55111 0.11521 0.0
C228 C 0.87326 0.54244 0.26187 0.0
H229 H 0.92358 0.59203 0.9646 0.0
H230 H 0.86558 0.53322 0.02853 0.0
C231 C 0.89798 0.56609 0.3715 0.0
C232 C 0.40362 0.06163 0.87746 0.0
C233 C 0.37697 0.03725 0.77403 0.0
H234 H 0.45535 0.11411 0.91479 0.0
C235 C 0.38534 0.04455 0.6251 0.0
H236 H 0.39811 0.05632 -0.00697 0.0
C237 C 0.41784 0.07781 0.58038 0.0
C238 C 0.44272 0.10394 0.68389 0.0
H239 H 0.36544 0.02603 0.54301 0.0
H240 H 0.42239 0.08405 0.46486 0.0
C241 C 0.43643 0.0946 0.8327 0.0
C242 C 0.86032 0.86874 0.82171 0.0
C243 C 0.83301 0.89505 0.9152 0.0
H244 H 0.91296 0.8185 0.80404 0.0
C245 C 0.83862 0.89083 0.06641 0.0
H246 H 0.8569 0.87157 0.70454 0.0
C247 C 0.87013 0.85994 0.12319 0.0
C248 C 0.89727 0.83346 0.02973 0.0
H249 H 0.81797 0.91064 0.1409 0.0
H250 H 0.8733 0.85688 0.24037 0.0
C251 C 0.89254 0.83856 0.87849 0.0
C252 C 0.04498 0.38133 0.34143 0.0
C253 C 0.03839 0.37227 0.19258 0.0
H254 H 0.08343 0.41957 0.50163 0.0
C255 C 0.06279 0.39882 0.08904 0.0
H256 H 0.02643 0.36148 0.42353 0.0
C257 C 0.09512 0.43224 0.13366 0.0
C258 C 0.10384 0.43929 0.28252 0.0
H259 H 0.05798 0.3928 0.9735 0.0
H260 H 0.11465 0.45109 0.05146 0.0
C261 C 0.07765 0.41448 0.3861 0.0
C262 C 0.58698 0.63635 0.37812 0.0
C263 C 0.58221 0.64155 0.52928 0.0
H264 H 0.62268 0.60326 0.20468 0.0
C265 C 0.6093 0.61509 0.62314 0.0
H266 H 0.56659 0.65639 0.30337 0.0
C267 C 0.64082 0.58417 0.56683 0.0
C268 C 0.6465 0.57989 0.41569 0.0
H269 H 0.6061 0.61823 0.74027 0.0
H270 H 0.66146 0.5644 0.64163 0.0
C271 C 0.61921 0.60614 0.3218 0.0
loop_
_geom_bond_atom_site_label_1
_geom_bond_atom_site_label_2
_geom_bond_distance
_geom_bond_site_symmetry_2
_ccdc_geom_bond_type
C0 O1 1.306 . S
C0 O3 1.160 . S
O1 C0 1.306 . S
O1 Cd2 2.228 . S
Cd2 O1 2.228 . S
Cd2 O6 2.273 . S
Cd2 O10 2.277 . S
O3 C0 1.160 . S
O3 Cd4 2.203 . S
Cd4 O3 2.203 . S
Cd4 O6 2.411 . S
Cd4 O7 2.333 . S
Cd4 O8 2.352 . S
Cd4 O12 2.277 . S
Cd4 O13 2.356 . S
C5 O10 1.209 . S
C5 O12 1.226 . S
O6 Cd2 2.273 . S
O6 Cd4 2.411 . S
O6 C9 1.320 . S
O7 Cd4 2.333 . S
O7 C9 1.214 . S
O8 Cd4 2.352 . S
O8 C11 1.258 . S
C9 O6 1.320 . S
C9 O7 1.214 . S
O10 Cd2 2.277 . S
O10 C5 1.209 . S
C11 O8 1.258 . S
C11 O13 1.282 . S
O12 Cd4 2.277 . S
O12 C5 1.226 . S
O13 Cd4 2.356 . S
O13 C11 1.282 . S
C14 O15 1.306 . S
C14 O17 1.160 . S
O15 C14 1.306 . S
O15 Cd16 2.228 . S
Cd16 O15 2.228 . S
Cd16 O20 2.273 . S
Cd16 O24 2.277 . S
O17 C14 1.160 . S
O17 Cd18 2.203 . S
Cd18 O17 2.203 . S
Cd18 O20 2.411 . S
Cd18 O21 2.333 . S
Cd18 O22 2.352 . S
Cd18 O26 2.277 . S
Cd18 O27 2.356 . S
C19 O24 1.209 . S
C19 O26 1.226 . S
O20 Cd16 2.273 . S
O20 Cd18 2.411 . S
O20 C23 1.320 . S
O21 Cd18 2.333 . S
O21 C23 1.214 . S
O22 Cd18 2.352 . S
O22 C25 1.258 . S
C23 O20 1.320 . S
C23 O21 1.214 . S
O24 Cd16 2.277 . S
O24 C19 1.209 . S
C25 O22 1.258 . S
C25 O27 1.282 . S
O26 Cd18 2.277 . S
O26 C19 1.226 . S
O27 Cd18 2.356 . S
O27 C25 1.282 . S
C28 O29 1.306 . S
C28 O31 1.160 . S
O29 C28 1.306 . S
O29 Cd30 2.228 1_565 S
Cd30 O29 2.228 1_545 S
Cd30 O34 2.273 . S
Cd30 O38 2.277 . S
O31 C28 1.160 . S
O31 Cd32 2.203 . S
Cd32 O31 2.203 . S
Cd32 O34 2.411 1_565 S
Cd32 O35 2.333 1_565 S
Cd32 O36 2.352 . S
Cd32 O40 2.277 1_566 S
Cd32 O41 2.356 1_556 S
C33 O38 1.209 . S
C33 O40 1.226 1_556 S
O34 Cd30 2.273 . S
O34 Cd32 2.411 1_545 S
O34 C37 1.320 . S
O35 Cd32 2.333 1_545 S
O35 C37 1.214 . S
O36 Cd32 2.352 . S
O36 C39 1.258 1_556 S
C37 O34 1.320 . S
C37 O35 1.214 . S
O38 Cd30 2.277 . S
O38 C33 1.209 . S
C39 O36 1.258 1_554 S
C39 O41 1.282 . S
O40 Cd32 2.277 1_544 S
O40 C33 1.226 1_554 S
O41 Cd32 2.356 1_554 S
O41 C39 1.282 . S
C42 O43 1.306 . S
C42 O45 1.160 . S
O43 C42 1.306 . S
O43 Cd44 2.228 1_455 S
Cd44 O43 2.228 1_655 S
Cd44 O48 2.273 . S
Cd44 O52 2.277 . S
O45 C42 1.160 . S
O45 Cd46 2.203 . S
Cd46 O45 2.203 . S
Cd46 O48 2.411 1_455 S
Cd46 O49 2.333 1_455 S
Cd46 O50 2.352 . S
Cd46 O54 2.277 1_454 S
Cd46 O55 2.356 1_554 S
C47 O52 1.209 . S
C47 O54 1.226 1_554 S
O48 Cd44 2.273 . S
O48 Cd46 2.411 1_655 S
O48 C51 1.320 . S
O49 Cd46 2.333 1_655 S
O49 C51 1.214 . S
O50 Cd46 2.352 . S
O50 C53 1.258 1_554 S
C51 O48 1.320 . S
C51 O49 1.214 . S
O52 Cd44 2.277 . S
O52 C47 1.209 . S
C53 O50 1.258 1_556 S
C53 O55 1.282 . S
O54 Cd46 2.277 1_656 S
O54 C47 1.226 1_556 S
O55 Cd46 2.356 1_556 S
O55 C53 1.282 . S
C56 O57 1.306 . S
C56 O59 1.160 . S
O57 C56 1.306 . S
O57 Cd58 2.228 1_545 S
Cd58 O57 2.228 1_565 S
Cd58 O62 2.273 . S
Cd58 O66 2.277 . S
O59 C56 1.160 . S
O59 Cd60 2.203 . S
Cd60 O59 2.203 . S
Cd60 O62 2.411 1_545 S
Cd60 O63 2.333 1_545 S
Cd60 O64 2.352 . S
Cd60 O68 2.277 1_546 S
Cd60 O69 2.356 1_556 S
C61 O66 1.209 . S
C61 O68 1.226 1_556 S
O62 Cd58 2.273 . S
O62 Cd60 2.411 1_565 S
O62 C65 1.320 . S
O63 Cd60 2.333 1_565 S
O63 C65 1.214 . S
O64 Cd60 2.352 . S
O64 C67 1.258 1_556 S
C65 O62 1.320 . S
C65 O63 1.214 . S
O66 Cd58 2.277 . S
O66 C61 1.209 . S
C67 O64 1.258 1_554 S
C67 O69 1.282 . S
O68 Cd60 2.277 1_564 S
O68 C61 1.226 1_554 S
O69 Cd60 2.356 1_554 S
O69 C67 1.282 . S
C70 O71 1.306 . S
C70 O73 1.160 . S
O71 C70 1.306 . S
O71 Cd72 2.228 1_655 S
Cd72 O71 2.228 1_455 S
Cd72 O76 2.273 . S
Cd72 O80 2.277 . S
O73 C70 1.160 . S
O73 Cd74 2.203 . S
Cd74 O73 2.203 . S
Cd74 O76 2.411 1_655 S
Cd74 O77 2.333 1_655 S
Cd74 O78 2.352 . S
Cd74 O82 2.277 1_654 S
Cd74 O83 2.356 1_554 S
C75 O80 1.209 . S
C75 O82 1.226 1_554 S
O76 Cd72 2.273 . S
O76 Cd74 2.411 1_455 S
O76 C79 1.320 . S
O77 Cd74 2.333 1_455 S
O77 C79 1.214 . S
O78 Cd74 2.352 . S
O78 C81 1.258 1_554 S
C79 O76 1.320 . S
C79 O77 1.214 . S
O80 Cd72 2.277 . S
O80 C75 1.209 . S
C81 O78 1.258 1_556 S
C81 O83 1.282 . S
O82 Cd74 2.277 1_456 S
O82 C75 1.226 1_556 S
O83 Cd74 2.356 1_556 S
O83 C81 1.282 . S
C84 O85 1.306 . S
C84 O87 1.160 . S
O85 C84 1.306 . S
O85 Cd86 2.228 . S
Cd86 O85 2.228 . S
Cd86 O90 2.273 . S
Cd86 O94 2.277 . S
O87 C84 1.160 . S
O87 Cd88 2.203 . S
Cd88 O87 2.203 . S
Cd88 O90 2.411 . S
Cd88 O91 2.333 . S
Cd88 O92 2.352 . S
Cd88 O96 2.277 . S
Cd88 O97 2.356 . S
C89 O94 1.209 . S
C89 O96 1.226 . S
O90 Cd86 2.273 . S
O90 Cd88 2.411 . S
O90 C93 1.320 . S
O91 Cd88 2.333 . S
O91 C93 1.214 . S
O92 Cd88 2.352 . S
O92 C95 1.258 . S
C93 O90 1.320 . S
C93 O91 1.214 . S
O94 Cd86 2.277 . S
O94 C89 1.209 . S
C95 O92 1.258 . S
C95 O97 1.282 . S
O96 Cd88 2.277 . S
O96 C89 1.226 . S
O97 Cd88 2.356 . S
O97 C95 1.282 . S
C98 O99 1.306 . S
C98 O101 1.160 . S
O99 C98 1.306 . S
O99 Cd100 2.228 . S
Cd100 O99 2.228 . S
Cd100 O104 2.273 . S
Cd100 O108 2.277 . S
O101 C98 1.160 . S
O101 Cd102 2.203 . S
Cd102 O101 2.203 . S
Cd102 O104 2.411 . S
Cd102 O105 2.333 . S
Cd102 O106 2.352 . S
Cd102 O110 2.277 . S
Cd102 O111 2.356 . S
C103 O108 1.209 . S
C103 O110 1.226 . S
O104 Cd100 2.273 . S
O104 Cd102 2.411 . S
O104 C107 1.320 . S
O105 Cd102 2.333 . S
O105 C107 1.214 . S
O106 Cd102 2.352 . S
O106 C109 1.258 . S
C107 O104 1.320 . S
C107 O105 1.214 . S
O108 Cd100 2.277 . S
O108 C103 1.209 . S
C109 O106 1.258 . S
C109 O111 1.282 . S
O110 Cd102 2.277 . S
O110 C103 1.226 . S
O111 Cd102 2.356 . S
O111 C109 1.282 . S
C112 C113 1.387 1_554 S
C112 H116 0.950 . S
C112 C121 1.390 . S
C113 C112 1.387 1_556 S
C113 C115 1.387 . S
H114 C121 0.950 . S
C115 C113 1.387 . S
C115 C117 1.390 . S
C115 H119 0.950 . S
H116 C112 0.950 . S
C117 C115 1.390 . S
C117 C118 1.387 1_556 S
C117 H120 0.950 . S
C118 C117 1.387 1_554 S
C118 C121 1.387 . S
H119 C115 0.950 . S
H120 C117 0.950 . S
C121 C112 1.390 . S
C121 H114 0.950 . S
C121 C118 1.387 . S
C122 C123 1.387 . S
C122 H126 0.950 . S
C122 C131 1.390 . S
C123 C122 1.387 . S
C123 C125 1.387 . S
H124 C131 0.950 1_556 S
C125 C123 1.387 . S
C125 C127 1.390 . S
C125 H129 0.950 . S
H126 C122 0.950 . S
C127 C125 1.390 . S
C127 C128 1.387 . S
C127 H130 0.950 . S
C128 C127 1.387 . S
C128 C131 1.387 . S
H129 C125 0.950 . S
H130 C127 0.950 . S
C131 C122 1.390 . S
C131 H124 0.950 1_554 S
C131 C128 1.387 . S
C132 C133 1.387 . S
C132 H136 0.950 . S
C132 C141 1.390 . S
C133 C132 1.387 . S
C133 C135 1.387 . S
H134 C141 0.950 . S
C135 C133 1.387 . S
C135 C137 1.390 . S
C135 H139 0.950 . S
H136 C132 0.950 . S
C137 C135 1.390 . S
C137 C138 1.387 . S
C137 H140 0.950 . S
C138 C137 1.387 . S
C138 C141 1.387 . S
H139 C135 0.950 . S
H140 C137 0.950 . S
C141 C132 1.390 . S
C141 H134 0.950 . S
C141 C138 1.387 . S
C142 C143 1.387 . S
C142 H146 0.950 . S
C142 C151 1.390 . S
C143 C142 1.387 . S
C143 C145 1.387 . S
H144 C151 0.950 . S
C145 C143 1.387 . S
C145 C147 1.390 . S
C145 H149 0.950 . S
H146 C142 0.950 . S
C147 C145 1.390 . S
C147 C148 1.387 . S
C147 H150 0.950 . S
C148 C147 1.387 . S
C148 C151 1.387 . S
H149 C145 0.950 . S
H150 C147 0.950 . S
C151 C142 1.390 . S
C151 H144 0.950 . S
C151 C148 1.387 . S
C152 C153 1.387 . S
C152 H156 0.950 . S
C152 C161 1.390 . S
C153 C152 1.387 . S
C153 C155 1.387 . S
H154 C161 0.950 . S
C155 C153 1.387 . S
C155 C157 1.390 . S
C155 H159 0.950 . S
H156 C152 0.950 . S
C157 C155 1.390 . S
C157 C158 1.387 . S
C157 H160 0.950 . S
C158 C157 1.387 . S
C158 C161 1.387 . S
H159 C155 0.950 . S
H160 C157 0.950 . S
C161 C152 1.390 . S
C161 H154 0.950 . S
C161 C158 1.387 . S
C162 C163 1.387 . S
C162 H166 0.950 . S
C162 C171 1.390 . S
C163 C162 1.387 . S
C163 C165 1.387 . S
H164 C171 0.950 . S
C165 C163 1.387 . S
C165 C167 1.390 . S
C165 H169 0.950 . S
H166 C162 0.950 . S
C167 C165 1.390 . S
C167 C168 1.387 . S
C167 H170 0.950 . S
C168 C167 1.387 . S
C168 C171 1.387 . S
H169 C165 0.950 . S
H170 C167 0.950 . S
C171 C162 1.390 . S
C171 H164 0.950 . S
C171 C168 1.387 . S
C172 C173 1.387 . S
C172 H176 0.950 . S
C172 C181 1.390 1_554 S
C173 C172 1.387 . S
C173 C175 1.387 . S
H174 C181 0.950 . S
C175 C173 1.387 . S
C175 C177 1.390 1_554 S
C175 H179 0.950 . S
H176 C172 0.950 . S
C177 C175 1.390 1_556 S
C177 C178 1.387 . S
C177 H180 0.950 . S
C178 C177 1.387 . S
C178 C181 1.387 . S
H179 C175 0.950 . S
H180 C177 0.950 . S
C181 C172 1.390 1_556 S
C181 H174 0.950 . S
C181 C178 1.387 . S
C182 C183 1.387 . S
C182 H186 0.950 . S
C182 C191 1.390 . S
C183 C182 1.387 . S
C183 C185 1.387 . S
H184 C191 0.950 . S
C185 C183 1.387 . S
C185 C187 1.390 . S
C185 H189 0.950 . S
H186 C182 0.950 . S
C187 C185 1.390 . S
C187 C188 1.387 . S
C187 H190 0.950 . S
C188 C187 1.387 . S
C188 C191 1.387 . S
H189 C185 0.950 . S
H190 C187 0.950 . S
C191 C182 1.390 . S
C191 H184 0.950 . S
C191 C188 1.387 . S
C192 C193 1.387 . S
C192 H196 0.950 . S
C192 C201 1.390 . S
C193 C192 1.387 . S
C193 C195 1.387 . S
H194 C201 0.950 . S
C195 C193 1.387 . S
C195 C197 1.390 . S
C195 H199 0.950 . S
H196 C192 0.950 . S
C197 C195 1.390 . S
C197 C198 1.387 . S
C197 H200 0.950 . S
C198 C197 1.387 . S
C198 C201 1.387 . S
H199 C195 0.950 . S
H200 C197 0.950 . S
C201 C192 1.390 . S
C201 H194 0.950 . S
C201 C198 1.387 . S
C202 C203 1.387 . S
C202 H206 0.950 . S
C202 C211 1.390 . S
C203 C202 1.387 . S
C203 C205 1.387 . S
H204 C211 0.950 . S
C205 C203 1.387 . S
C205 C207 1.390 . S
C205 H209 0.950 . S
H206 C202 0.950 . S
C207 C205 1.390 . S
C207 C208 1.387 . S
C207 H210 0.950 . S
C208 C207 1.387 . S
C208 C211 1.387 . S
H209 C205 0.950 . S
H210 C207 0.950 . S
C211 C202 1.390 . S
C211 H204 0.950 . S
C211 C208 1.387 . S
C212 C213 1.387 1_556 S
C212 H216 0.950 . S
C212 C221 1.390 . S
C213 C212 1.387 1_554 S
C213 C215 1.387 . S
H214 C221 0.950 . S
C215 C213 1.387 . S
C215 C217 1.390 . S
C215 H219 0.950 . S
H216 C212 0.950 . S
C217 C215 1.390 . S
C217 C218 1.387 1_554 S
C217 H220 0.950 . S
C218 C217 1.387 1_556 S
C218 C221 1.387 . S
H219 C215 0.950 . S
H220 C217 0.950 . S
C221 C212 1.390 . S
C221 H214 0.950 . S
C221 C218 1.387 . S
C222 C223 1.387 . S
C222 H226 0.950 . S
C222 C231 1.390 . S
C223 C222 1.387 . S
C223 C225 1.387 . S
H224 C231 0.950 . S
C225 C223 1.387 . S
C225 C227 1.390 . S
C225 H229 0.950 . S
H226 C222 0.950 . S
C227 C225 1.390 . S
C227 C228 1.387 . S
C227 H230 0.950 . S
C228 C227 1.387 . S
C228 C231 1.387 . S
H229 C225 0.950 . S
H230 C227 0.950 . S
C231 C222 1.390 . S
C231 H224 0.950 . S
C231 C228 1.387 . S
C232 C233 1.387 . S
C232 H236 0.950 . S
C232 C241 1.390 . S
C233 C232 1.387 . S
C233 C235 1.387 . S
H234 C241 0.950 . S
C235 C233 1.387 . S
C235 C237 1.390 . S
C235 H239 0.950 . S
H236 C232 0.950 . S
C237 C235 1.390 . S
C237 C238 1.387 . S
C237 H240 0.950 . S
C238 C237 1.387 . S
C238 C241 1.387 . S
H239 C235 0.950 . S
H240 C237 0.950 . S
C241 C232 1.390 . S
C241 H234 0.950 . S
C241 C238 1.387 . S
C242 C243 1.387 . S
C242 H246 0.950 . S
C242 C251 1.390 . S
C243 C242 1.387 . S
C243 C245 1.387 1_556 S
H244 C251 0.950 . S
C245 C243 1.387 1_554 S
C245 C247 1.390 . S
C245 H249 0.950 . S
H246 C242 0.950 . S
C247 C245 1.390 . S
C247 C248 1.387 . S
C247 H250 0.950 . S
C248 C247 1.387 . S
C248 C251 1.387 1_554 S
H249 C245 0.950 . S
H250 C247 0.950 . S
C251 C242 1.390 . S
C251 H244 0.950 . S
C251 C248 1.387 1_556 S
C252 C253 1.387 . S
C252 H256 0.950 . S
C252 C261 1.390 . S
C253 C252 1.387 . S
C253 C255 1.387 . S
H254 C261 0.950 . S
C255 C253 1.387 . S
C255 C257 1.390 . S
C255 H259 0.950 . S
H256 C252 0.950 . S
C257 C255 1.390 . S
C257 C258 1.387 . S
C257 H260 0.950 . S
C258 C257 1.387 . S
C258 C261 1.387 . S
H259 C255 0.950 . S
H260 C257 0.950 . S
C261 C252 1.390 . S
C261 H254 0.950 . S
C261 C258 1.387 . S
C262 C263 1.387 . S
C262 H266 0.950 . S
C262 C271 1.390 . S
C263 C262 1.387 . S
C263 C265 1.387 . S
H264 C271 0.950 . S
C265 C263 1.387 . S
C265 C267 1.390 . S
C265 H269 0.950 . S
H266 C262 0.950 . S
C267 C265 1.390 . S
C267 C268 1.387 . S
C267 H270 0.950 . S
C268 C267 1.387 . S
C268 C271 1.387 . S
H269 C265 0.950 . S
H270 C267 0.950 . S
C271 C262 1.390 . S
C271 H264 0.950 . S
C271 C268 1.387 . S
C113 C14 1.453 . S
C118 C0 1.454 . S
C123 C25 1.454 . S
C128 C39 1.455 . S
C133 C42 1.454 . S
C138 C28 1.455 . S
C143 C53 1.454 . S
C148 C11 1.454 . S
C153 C56 1.454 . S
C158 C70 1.455 . S
C163 C81 1.455 . S
C168 C95 1.454 . S
C173 C84 1.454 . S
C178 C98 1.455 . S
C183 C67 1.455 . S
C188 C109 1.454 . S
C193 C5 1.466 . S
C198 C103 1.467 . S
C203 C65 1.471 . S
C208 C23 1.471 . S
C213 C75 1.467 . S
C218 C33 1.466 . S
C223 C51 1.471 . S
C228 C93 1.471 . S
C233 C37 1.471 . S
C238 C107 1.471 . S
C243 C61 1.467 . S
C248 C47 1.467 . S
C253 C79 1.471 . S
C258 C9 1.471 . S
C263 C19 1.467 . S
C268 C89 1.466 . S
