# Generated by pormake.
# Topology umm, (4)-cn, num edge types: 1
# Building blocks:
#     Node 0, Type 0, BuildingBlock: KOZSID_clean_sbu_0, # of connection points: 4
#     Node 1, Type 0, BuildingBlock: KOZSID_clean_sbu_0, # of connection points: 4
#     Node 2, Type 0, BuildingBlock: KOZSID_clean_sbu_0, # of connection points: 4
#     Node 3, Type 0, BuildingBlock: KOZSID_clean_sbu_0, # of connection points: 4
#     Node 4, Type 0, BuildingBlock: KOZSID_clean_sbu_0, # of connection points: 4
#     Node 5, Type 0, BuildingBlock: KOZSID_clean_sbu_0, # of connection points: 4
#     Node 6, Type 0, BuildingBlock: KOZSID_clean_sbu_0, # of connection points: 4
#     Node 7, Type 0, BuildingBlock: KOZSID_clean_sbu_0, # of connection points: 4
#     Node 8, Type 0, BuildingBlock: KOZSID_clean_sbu_0, # of connection points: 4
#     Node 9, Type 0, BuildingBlock: KOZSID_clean_sbu_0, # of connection points: 4
#     Node 10, Type 0, BuildingBlock: KOZSID_clean_sbu_0, # of connection points: 4
#     Node 11, Type 0, BuildingBlock: KOZSID_clean_sbu_0, # of connection points: 4
#     Edge 12, Type (0, 0), BuildingBlock: MIFKUJ_clean_linker_0, # of connection points: 2
#     Edge 13, Type (0, 0), BuildingBlock: MIFKUJ_clean_linker_0, # of connection points: 2
#     Edge 14, Type (0, 0), BuildingBlock: MIFKUJ_clean_linker_0, # of connection points: 2
#     Edge 15, Type (0, 0), BuildingBlock: MIFKUJ_clean_linker_0, # of connection points: 2
#     Edge 16, Type (0, 0), BuildingBlock: MIFKUJ_clean_linker_0, # of connection points: 2
#     Edge 17, Type (0, 0), BuildingBlock: MIFKUJ_clean_linker_0, # of connection points: 2
#     Edge 18, Type (0, 0), BuildingBlock: MIFKUJ_clean_linker_0, # of connection points: 2
#     Edge 19, Type (0, 0), BuildingBlock: MIFKUJ_clean_linker_0, # of connection points: 2
#     Edge 20, Type (0, 0), BuildingBlock: MIFKUJ_clean_linker_0, # of connection points: 2
#     Edge 21, Type (0, 0), BuildingBlock: MIFKUJ_clean_linker_0, # of connection points: 2
#     Edge 22, Type (0, 0), BuildingBlock: MIFKUJ_clean_linker_0, # of connection points: 2
#     Edge 23, Type (0, 0), BuildingBlock: MIFKUJ_clean_linker_0, # of connection points: 2
#     Edge 24, Type (0, 0), BuildingBlock: MIFKUJ_clean_linker_0, # of connection points: 2
#     Edge 25, Type (0, 0), BuildingBlock: MIFKUJ_clean_linker_0, # of connection points: 2
#     Edge 26, Type (0, 0), BuildingBlock: MIFKUJ_clean_linker_0, # of connection points: 2
#     Edge 27, Type (0, 0), BuildingBlock: MIFKUJ_clean_linker_0, # of connection points: 2
#     Edge 28, Type (0, 0), BuildingBlock: MIFKUJ_clean_linker_0, # of connection points: 2
#     Edge 29, Type (0, 0), BuildingBlock: MIFKUJ_clean_linker_0, # of connection points: 2
#     Edge 30, Type (0, 0), BuildingBlock: MIFKUJ_clean_linker_0, # of connection points: 2
#     Edge 31, Type (0, 0), BuildingBlock: MIFKUJ_clean_linker_0, # of connection points: 2
#     Edge 32, Type (0, 0), BuildingBlock: MIFKUJ_clean_linker_0, # of connection points: 2
#     Edge 33, Type (0, 0), BuildingBlock: MIFKUJ_clean_linker_0, # of connection points: 2
#     Edge 34, Type (0, 0), BuildingBlock: MIFKUJ_clean_linker_0, # of connection points: 2
#     Edge 35, Type (0, 0), BuildingBlock: MIFKUJ_clean_linker_0, # of connection points: 2
# Relax obj value: 0.060
# Max RMSD: 0.166
# Mean RMSD: 0.166
data_MOF--net-umm--node1-KOZSID_clean_sbu_0--edge1-MIFKUJ_clean_linker_0
_symmetry_space_group_name_H-M    P1
_symmetry_Int_Tables_number       1
_symmetry_cell_setting            triclinic
loop_
_symmetry_equiv_pos_as_xyz
'x, y, z'
_cell_length_a     78.980707
_cell_length_b     78.982675
_cell_length_c     47.29384
_cell_angle_alpha  90.06883
_cell_angle_beta   89.924816
_cell_angle_gamma 119.99706
loop_
_atom_site_label
_atom_site_type_symbol
_atom_site_fract_x
_atom_site_fract_y
_atom_site_fract_z
_atom_type_partial_charge
C0 C 0.36555 0.55316 0.08473 0.0
C1 C 0.34571 0.53957 0.08541 0.0
C2 C 0.34406 0.52243 0.09502 0.0
C3 C 0.36289 0.52653 0.09971 0.0
N4 N 0.37626 0.54516 0.09372 0.0
Co5 Co 0.40501 0.5572 0.09724 0.0
N6 N 0.40335 0.53128 0.0969 0.0
C7 C 0.38695 0.51388 0.10056 0.0
C8 C 0.38986 0.49832 0.0966 0.0
C9 C 0.40933 0.50641 0.09055 0.0
C10 C 0.41743 0.5266 0.09186 0.0
N11 N 0.43376 0.56928 0.10137 0.0
C12 C 0.44548 0.56137 0.0983 0.0
C13 C 0.46463 0.57489 0.10561 0.0
C14 C 0.46479 0.5917 0.11348 0.0
C15 C 0.44581 0.58758 0.11078 0.0
N16 N 0.40639 0.583 0.09702 0.0
C17 C 0.42139 0.59991 0.10644 0.0
C18 C 0.41823 0.6154 0.10292 0.0
C19 C 0.40009 0.60765 0.09056 0.0
C20 C 0.39319 0.58781 0.08727 0.0
N21 N 0.40275 0.55624 0.13882 0.0
C22 C 0.40609 0.56164 0.19798 0.0
C23 C 0.39442 0.56687 0.18194 0.0
C24 C 0.39279 0.56387 0.15253 0.0
C25 C 0.41483 0.55235 0.18377 0.0
C26 C 0.41305 0.54987 0.15444 0.0
N27 N 0.4078 0.55865 0.05597 0.0
C28 C 0.42537 0.57698 0.01482 0.0
C29 C 0.41292 0.56156 0.99705 0.0
C30 C 0.39764 0.54467 1.00944 0.0
C31 C 0.39541 0.54344 0.03896 0.0
C32 C 0.42251 0.57529 0.04401 0.0
H33 H 0.38373 0.53021 0.04801 0.0
H34 H 0.43226 0.58756 0.0569 0.0
H35 H 0.38417 0.56855 0.14073 0.0
H36 H 0.42078 0.5435 0.14434 0.0
C37 C 0.36871 0.51261 0.10312 0.0
C38 C 0.37373 0.57363 0.07639 0.0
C39 C 0.43866 0.54069 0.09149 0.0
C40 C 0.4392 0.60106 0.11344 0.0
H41 H 0.33374 0.54174 0.07925 0.0
H42 H 0.33079 0.5084 0.0967 0.0
H43 H 0.37899 0.48293 0.09696 0.0
H44 H 0.41666 0.49825 0.08602 0.0
H45 H 0.47713 0.57276 0.10589 0.0
H46 H 0.47733 0.60536 0.11998 0.0
H47 H 0.42825 0.63065 0.10758 0.0
H48 H 0.39279 0.61562 0.08466 0.0
H49 H 0.38724 0.574 0.19171 0.0
H50 H 0.4234 0.54733 0.19508 0.0
H51 H 0.43716 0.59044 1.00619 0.0
H52 H 0.38769 0.53237 0.99648 0.0
C53 C 0.81694 0.36369 0.41752 0.0
C54 C 0.81066 0.34385 0.41706 0.0
C55 C 0.82611 0.3419 0.42589 0.0
C56 C 0.84091 0.3606 0.43124 0.0
N57 N 0.83571 0.37416 0.42637 0.0
Co58 Co 0.85257 0.40282 0.43114 0.0
N59 N 0.87677 0.40101 0.43012 0.0
C60 C 0.87765 0.38447 0.43264 0.0
C61 C 0.8961 0.38737 0.42859 0.0
C62 C 0.90762 0.40699 0.42369 0.0
C63 C 0.89561 0.41514 0.42573 0.0
N64 N 0.86939 0.43148 0.43658 0.0
C65 C 0.88906 0.44315 0.43404 0.0
C66 C 0.89476 0.46213 0.44246 0.0
C67 C 0.87812 0.46224 0.45051 0.0
C68 C 0.8632 0.4434 0.4468 0.0
N69 N 0.82826 0.40441 0.43156 0.0
C70 C 0.82645 0.41929 0.44187 0.0
C71 C 0.80783 0.4163 0.43884 0.0
C72 C 0.79733 0.39839 0.42586 0.0
C73 C 0.81019 0.39147 0.42169 0.0
N74 N 0.85115 0.39966 0.47251 0.0
C75 C 0.84891 0.40198 0.53174 0.0
C76 C 0.83203 0.39075 0.51544 0.0
C77 C 0.83349 0.3896 0.48599 0.0
C78 C 0.867 0.41071 0.51773 0.0
C79 C 0.86779 0.40947 0.48834 0.0
N80 N 0.85401 0.40645 0.39008 0.0
C81 C 0.85305 0.42463 0.34988 0.0
C82 C 0.85576 0.41233 0.33141 0.0
C83 C 0.85746 0.39689 0.34296 0.0
C84 C 0.85668 0.39428 0.37236 0.0
C85 C 0.85212 0.4214 0.37896 0.0
H86 H 0.85822 0.38244 0.38075 0.0
H87 H 0.84976 0.43101 0.39244 0.0
H88 H 0.82021 0.3813 0.474 0.0
H89 H 0.88194 0.41724 0.47843 0.0
C90 C 0.86061 0.36624 0.43443 0.0
C91 C 0.80464 0.37209 0.41024 0.0
C92 C 0.90289 0.43638 0.42678 0.0
C93 C 0.84315 0.43687 0.44952 0.0
H94 H 0.79649 0.33206 0.41067 0.0
H95 H 0.8268 0.32856 0.42665 0.0
H96 H 0.90055 0.37644 0.42819 0.0
H97 H 0.92316 0.41439 0.41951 0.0
H98 H 0.90942 0.47455 0.44343 0.0
H99 H 0.87705 0.47466 0.45786 0.0
H100 H 0.80268 0.42626 0.44434 0.0
H101 H 0.78201 0.3912 0.42022 0.0
H102 H 0.81767 0.38358 0.52505 0.0
H103 H 0.88057 0.41892 0.52925 0.0
H104 H 0.85133 0.43653 0.34191 0.0
H105 H 0.85966 0.38708 0.32944 0.0
C106 C 0.4529 0.81441 0.75139 0.0
C107 C 0.46746 0.80946 0.75189 0.0
C108 C 0.48437 0.82602 0.75901 0.0
C109 C 0.47918 0.84006 0.76257 0.0
N110 N 0.45991 0.83339 0.75863 0.0
Co111 Co 0.44625 0.84898 0.76094 0.0
N112 N 0.47168 0.87411 0.76498 0.0
C113 C 0.48972 0.8762 0.76662 0.0
C114 C 0.50448 0.89526 0.76856 0.0
C115 C 0.49536 0.90605 0.7677 0.0
C116 C 0.47547 0.89287 0.76523 0.0
N117 N 0.43259 0.8646 0.76369 0.0
C118 C 0.44004 0.88427 0.76464 0.0
C119 C 0.42534 0.88899 0.7661 0.0
C120 C 0.408 0.87172 0.76594 0.0
C121 C 0.41304 0.85745 0.76437 0.0
N122 N 0.4209 0.82382 0.75573 0.0
C123 C 0.40272 0.82151 0.75586 0.0
C124 C 0.38831 0.80287 0.74935 0.0
C125 C 0.39787 0.79277 0.74415 0.0
C126 C 0.41763 0.80585 0.74793 0.0
N127 N 0.44422 0.84569 0.80312 0.0
C128 C 0.4414 0.84542 0.86287 0.0
C129 C 0.42497 0.83933 0.84589 0.0
C130 C 0.42663 0.8393 0.81652 0.0
C131 C 0.45917 0.85067 0.84959 0.0
C132 C 0.46026 0.85077 0.8199 0.0
N133 N 0.44807 0.85237 0.71936 0.0
C134 C 0.43307 0.85338 0.67545 0.0
C135 C 0.44963 0.8569 0.66019 0.0
C136 C 0.46547 0.85798 0.67505 0.0
C137 C 0.46446 0.85586 0.70459 0.0
C138 C 0.43257 0.85111 0.70463 0.0
H139 H 0.477 0.85706 0.71517 0.0
H140 H 0.41939 0.84825 0.71482 0.0
H141 H 0.41339 0.83425 0.80531 0.0
H142 H 0.4743 0.85531 0.81116 0.0
C143 C 0.49234 0.86 0.76569 0.0
C144 C 0.43287 0.80085 0.7426 0.0
C145 C 0.46082 0.89894 0.7631 0.0
C146 C 0.39988 0.83748 0.76022 0.0
H147 H 0.46611 0.79548 0.74675 0.0
H148 H 0.49888 0.82785 0.76009 0.0
H149 H 0.52003 0.90067 0.77005 0.0
H150 H 0.50256 0.92184 0.76863 0.0
H151 H 0.42697 0.90343 0.76657 0.0
H152 H 0.39345 0.86982 0.76588 0.0
H153 H 0.37278 0.79746 0.74756 0.0
H154 H 0.39112 0.77764 0.73758 0.0
H155 H 0.41076 0.8346 0.85527 0.0
H156 H 0.47229 0.85528 0.86198 0.0
H157 H 0.4203 0.85203 0.66484 0.0
H158 H 0.47863 0.86071 0.66402 0.0
C159 C 0.64841 0.45666 0.08364 0.0
C160 C 0.668 0.47104 0.08312 0.0
C161 C 0.66887 0.48802 0.09182 0.0
C162 C 0.64984 0.48307 0.09717 0.0
N163 N 0.63709 0.46406 0.09239 0.0
Co164 Co 0.60832 0.45084 0.09724 0.0
N165 N 0.60852 0.47608 0.0961 0.0
C166 C 0.62441 0.49396 0.099 0.0
C167 C 0.62045 0.50881 0.09491 0.0
C168 C 0.60082 0.49974 0.08956 0.0
C169 C 0.59371 0.47972 0.09134 0.0
N170 N 0.57954 0.43758 0.10236 0.0
C171 C 0.567 0.4445 0.09902 0.0
C172 C 0.54818 0.43044 0.10693 0.0
C173 C 0.54908 0.41431 0.1155 0.0
C174 C 0.56833 0.41935 0.11255 0.0
N175 N 0.60838 0.42572 0.0982 0.0
C176 C 0.59413 0.40875 0.10878 0.0
C177 C 0.59825 0.39383 0.10622 0.0
C178 C 0.61626 0.40203 0.09331 0.0
C179 C 0.62211 0.42153 0.08872 0.0
N180 N 0.61137 0.45291 0.13861 0.0
C181 C 0.60914 0.44841 0.19766 0.0
C182 C 0.62117 0.44373 0.18157 0.0
C183 C 0.62235 0.4464 0.15217 0.0
C184 C 0.5993 0.4566 0.18373 0.0
C185 C 0.60054 0.45865 0.15433 0.0
N186 N 0.60471 0.44826 0.05621 0.0
C187 C 0.58781 0.42797 0.01621 0.0
C188 C 0.59749 0.44385 0.99768 0.0
C189 C 0.61131 0.46198 1.00928 0.0
C190 C 0.61484 0.46382 0.0385 0.0
C191 C 0.5914 0.43054 0.04516 0.0
H192 H 0.62555 0.47787 0.04682 0.0
H193 H 0.58323 0.41807 0.05863 0.0
H194 H 0.63145 0.44235 0.14027 0.0
H195 H 0.59189 0.46398 0.14429 0.0
C196 C 0.64313 0.49628 0.10064 0.0
C197 C 0.64114 0.43604 0.07695 0.0
C198 C 0.57273 0.46481 0.09148 0.0
C199 C 0.57597 0.40677 0.1159 0.0
H200 H 0.68033 0.46945 0.0769 0.0
H201 H 0.68172 0.50242 0.09265 0.0
H202 H 0.63073 0.52437 0.09464 0.0
H203 H 0.59273 0.50714 0.08511 0.0
H204 H 0.53522 0.43179 0.10716 0.0
H205 H 0.53707 0.40048 0.12265 0.0
H206 H 0.58894 0.37864 0.1119 0.0
H207 H 0.62417 0.39456 0.08792 0.0
H208 H 0.62934 0.43772 0.19157 0.0
H209 H 0.58985 0.46045 0.19529 0.0
H210 H 0.57747 0.4135 1.00857 0.0
H211 H 0.61914 0.4748 0.99609 0.0
C212 C 0.19806 0.64349 0.42009 0.0
C213 C 0.20293 0.66298 0.4194 0.0
C214 C 0.18623 0.66337 0.42528 0.0
C215 C 0.17221 0.6442 0.42933 0.0
N216 N 0.179 0.6316 0.42695 0.0
Co217 Co 0.16348 0.60241 0.43046 0.0
N218 N 0.13821 0.60262 0.43311 0.0
C219 C 0.13608 0.6186 0.43266 0.0
C220 C 0.11706 0.61436 0.43172 0.0
C221 C 0.1063 0.59449 0.43163 0.0
C222 C 0.11943 0.58762 0.43316 0.0
N223 N 0.14793 0.57318 0.43408 0.0
C224 C 0.12828 0.56092 0.4362 0.0
C225 C 0.12384 0.54167 0.43977 0.0
C226 C 0.14114 0.54172 0.43922 0.0
C227 C 0.15521 0.56091 0.43568 0.0
N228 N 0.18884 0.60232 0.42697 0.0
C229 C 0.1913 0.58658 0.42856 0.0
C230 C 0.21008 0.59081 0.42308 0.0
C231 C 0.22014 0.61034 0.41704 0.0
C232 C 0.20689 0.61694 0.4193 0.0
N233 N 0.16621 0.60452 0.47263 0.0
C234 C 0.16578 0.60318 0.53243 0.0
C235 C 0.17186 0.59234 0.51656 0.0
C236 C 0.17221 0.59342 0.48715 0.0
C237 C 0.16087 0.61558 0.51805 0.0
C238 C 0.1611 0.61595 0.4883 0.0
N239 N 0.16059 0.59997 0.38881 0.0
C240 C 0.16174 0.58412 0.34579 0.0
C241 C 0.15581 0.59505 0.32966 0.0
C242 C 0.15273 0.60891 0.3438 0.0
C243 C 0.15535 0.61123 0.3732 0.0
C244 C 0.16375 0.5866 0.37492 0.0
H245 H 0.15299 0.62211 0.38297 0.0
H246 H 0.16791 0.57747 0.38577 0.0
H247 H 0.17713 0.5848 0.47686 0.0
H248 H 0.15675 0.62531 0.47853 0.0
C249 C 0.15225 0.6374 0.43143 0.0
C250 C 0.2118 0.63696 0.4126 0.0
C251 C 0.11334 0.56679 0.43497 0.0
C252 C 0.17528 0.56777 0.4327 0.0
H253 H 0.21696 0.67553 0.41424 0.0
H254 H 0.18431 0.67602 0.42517 0.0
H255 H 0.11166 0.62453 0.43047 0.0
H256 H 0.09054 0.58612 0.43021 0.0
H257 H 0.10957 0.52886 0.44247 0.0
H258 H 0.14321 0.5292 0.44098 0.0
H259 H 0.2156 0.58074 0.42236 0.0
H260 H 0.23535 0.61867 0.41085 0.0
H261 H 0.17626 0.5829 0.52686 0.0
H262 H 0.15627 0.62443 0.52963 0.0
H263 H 0.16502 0.57368 0.33607 0.0
H264 H 0.14809 0.61778 0.33243 0.0
C265 C 0.55658 0.19295 0.75046 0.0
C266 C 0.54242 0.19846 0.75106 0.0
C267 C 0.52565 0.18273 0.76116 0.0
C268 C 0.53046 0.16851 0.7661 0.0
N269 N 0.5492 0.17436 0.75971 0.0
Co270 Co 0.56208 0.15842 0.76308 0.0
N271 N 0.53658 0.1337 0.76359 0.0
C272 C 0.51905 0.13207 0.76885 0.0
C273 C 0.50392 0.11312 0.76763 0.0
C274 C 0.51246 0.10212 0.76157 0.0
C275 C 0.53246 0.11502 0.75959 0.0
N276 N 0.57501 0.14252 0.76695 0.0
C277 C 0.56767 0.12303 0.7634 0.0
C278 C 0.58171 0.11792 0.76953 0.0
C279 C 0.5983 0.13479 0.77743 0.0
C280 C 0.59351 0.14925 0.77574 0.0
N281 N 0.58747 0.18324 0.76222 0.0
C282 C 0.60469 0.18575 0.77135 0.0
C283 C 0.61975 0.20459 0.76761 0.0
C284 C 0.61139 0.21447 0.75543 0.0
C285 C 0.59166 0.20105 0.75239 0.0
N286 N 0.56149 0.16 0.80459 0.0
C287 C 0.56687 0.16282 0.86367 0.0
C288 C 0.57139 0.17939 0.84727 0.0
C289 C 0.56841 0.17764 0.8179 0.0
C290 C 0.55836 0.14467 0.84984 0.0
C291 C 0.55592 0.1436 0.82052 0.0
N292 N 0.56315 0.15688 0.72185 0.0
C293 C 0.58184 0.1594 0.68025 0.0
C294 C 0.56628 0.15635 0.66271 0.0
C295 C 0.54887 0.15315 0.67561 0.0
C296 C 0.5476 0.15343 0.7052 0.0
C297 C 0.58003 0.15972 0.70951 0.0
H298 H 0.53414 0.15108 0.71462 0.0
H299 H 0.59245 0.16243 0.72215 0.0
H300 H 0.57249 0.19071 0.80582 0.0
H301 H 0.55019 0.12948 0.8107 0.0
C302 C 0.51715 0.14872 0.77084 0.0
C303 C 0.577 0.2058 0.74201 0.0
C304 C 0.54713 0.10884 0.75693 0.0
C305 C 0.60655 0.16946 0.77822 0.0
H306 H 0.54396 0.2123 0.74464 0.0
H307 H 0.51142 0.18148 0.76316 0.0
H308 H 0.48846 0.10796 0.77009 0.0
H309 H 0.50485 0.08638 0.75936 0.0
H310 H 0.58004 0.10346 0.76879 0.0
H311 H 0.6123 0.13637 0.78306 0.0
H312 H 0.6351 0.21029 0.77204 0.0
H313 H 0.6189 0.22976 0.74954 0.0
H314 H 0.57795 0.19378 0.85673 0.0
H315 H 0.55392 0.13129 0.86145 0.0
H316 H 0.59542 0.16147 0.67151 0.0
H317 H 0.53645 0.15081 0.663 0.0
C318 C 0.4581 0.64497 0.61077 0.0
C319 C 0.47254 0.66452 0.61261 0.0
C320 C 0.48958 0.66566 0.60368 0.0
C321 C 0.48471 0.64684 0.59721 0.0
N322 N 0.46567 0.63388 0.60151 0.0
Co323 Co 0.45283 0.60508 0.5964 0.0
N324 N 0.47832 0.60572 0.59693 0.0
C325 C 0.49609 0.62182 0.59453 0.0
C326 C 0.51115 0.61813 0.59817 0.0
C327 C 0.50236 0.59842 0.60269 0.0
C328 C 0.48229 0.59104 0.60086 0.0
N329 N 0.43996 0.57632 0.59077 0.0
C330 C 0.44725 0.56401 0.59301 0.0
C331 C 0.43336 0.54521 0.58474 0.0
C332 C 0.41697 0.54587 0.57704 0.0
C333 C 0.42169 0.56495 0.58082 0.0
N334 N 0.42746 0.60464 0.59636 0.0
C335 C 0.41047 0.59017 0.58613 0.0
C336 C 0.39534 0.59392 0.58916 0.0
C337 C 0.40338 0.61191 0.60202 0.0
C338 C 0.42301 0.61812 0.60617 0.0
N339 N 0.45455 0.60839 0.55499 0.0
C340 C 0.45028 0.60706 0.49575 0.0
C341 C 0.44545 0.61877 0.51244 0.0
C342 C 0.4479 0.6194 0.54191 0.0
C343 C 0.45836 0.59699 0.50935 0.0
C344 C 0.46039 0.59786 0.53878 0.0
N345 N 0.45064 0.60132 0.63752 0.0
C346 C 0.43104 0.58378 0.67782 0.0
C347 C 0.44625 0.59558 0.69639 0.0
C348 C 0.46388 0.61025 0.68464 0.0
C349 C 0.46578 0.61284 0.6552 0.0
C350 C 0.43348 0.58692 0.64872 0.0
H351 H 0.47943 0.62426 0.64679 0.0
H352 H 0.42134 0.57766 0.63527 0.0
H353 H 0.44369 0.62822 0.55419 0.0
H354 H 0.46587 0.58921 0.54841 0.0
C355 C 0.49809 0.64039 0.59354 0.0
C356 C 0.43734 0.63748 0.61719 0.0
C357 C 0.46773 0.56999 0.59971 0.0
C358 C 0.40879 0.57226 0.57838 0.0
H359 H 0.47114 0.67669 0.62012 0.0
H360 H 0.504 0.67851 0.60374 0.0
H361 H 0.52666 0.6286 0.59862 0.0
H362 H 0.50997 0.59045 0.60653 0.0
H363 H 0.435 0.53243 0.58363 0.0
H364 H 0.40319 0.5338 0.56986 0.0
H365 H 0.38014 0.58443 0.58364 0.0
H366 H 0.39575 0.61965 0.6075 0.0
H367 H 0.43954 0.62716 0.50288 0.0
H368 H 0.46228 0.58769 0.49753 0.0
H369 H 0.41727 0.572 0.68562 0.0
H370 H 0.47604 0.61988 0.69803 0.0
C371 C 0.81943 0.45497 0.94333 0.0
C372 C 0.81456 0.46959 0.94278 0.0
C373 C 0.83052 0.48599 0.93222 0.0
C374 C 0.84424 0.48052 0.92706 0.0
N375 N 0.83788 0.46175 0.93379 0.0
Co376 Co 0.8531 0.44809 0.93057 0.0
N377 N 0.87822 0.47315 0.9298 0.0
C378 C 0.88041 0.49076 0.92351 0.0
C379 C 0.89958 0.50545 0.92369 0.0
C380 C 0.91012 0.49649 0.9303 0.0
C381 C 0.8967 0.47674 0.93387 0.0
N382 N 0.86832 0.43443 0.92694 0.0
C383 C 0.88766 0.44121 0.93115 0.0
C384 C 0.89215 0.42659 0.926 0.0
C385 C 0.87509 0.41031 0.91777 0.0
C386 C 0.8611 0.41579 0.91847 0.0
N387 N 0.82787 0.42315 0.93157 0.0
C388 C 0.82484 0.4057 0.92257 0.0
C389 C 0.80581 0.39105 0.92641 0.0
C390 C 0.79638 0.39993 0.93852 0.0
C391 C 0.81025 0.41954 0.94144 0.0
N392 N 0.85153 0.44854 0.88909 0.0
C393 C 0.84849 0.4439 0.82997 0.0
C394 C 0.83215 0.43999 0.8465 0.0
C395 C 0.83402 0.44257 0.87592 0.0
C396 C 0.86652 0.45101 0.84367 0.0
C397 C 0.86773 0.45321 0.87305 0.0
N398 N 0.85455 0.44717 0.97179 0.0
C399 C 0.85122 0.4284 0.01355 0.0
C400 C 0.85452 0.44412 0.03096 0.0
C401 C 0.8583 0.46166 0.01791 0.0
C402 C 0.85833 0.4629 0.9883 0.0
C403 C 0.85117 0.43017 0.98429 0.0
H404 H 0.86114 0.47647 0.97874 0.0
H405 H 0.84818 0.4176 0.97176 0.0
H406 H 0.82113 0.43914 0.8881 0.0
H407 H 0.88171 0.45802 0.88284 0.0
C408 C 0.8641 0.49328 0.9216 0.0
C409 C 0.80609 0.43465 0.95182 0.0
C410 C 0.90219 0.46164 0.93798 0.0
C411 C 0.84081 0.40322 0.91593 0.0
H412 H 0.801 0.46862 0.94949 0.0
H413 H 0.83225 0.50041 0.93002 0.0
H414 H 0.90523 0.52089 0.92013 0.0
H415 H 0.92589 0.50365 0.93172 0.0
H416 H 0.90627 0.42757 0.92781 0.0
H417 H 0.87303 0.39602 0.91285 0.0
H418 H 0.79969 0.37561 0.92214 0.0
H419 H 0.78112 0.39284 0.94449 0.0
H420 H 0.81797 0.43479 0.83684 0.0
H421 H 0.87955 0.45412 0.83193 0.0
H422 H 0.84875 0.41471 0.02239 0.0
H423 H 0.86086 0.47422 0.03039 0.0
C424 C 0.36554 0.81563 0.27585 0.0
C425 C 0.34592 0.81021 0.27799 0.0
C426 C 0.34445 0.82601 0.26955 0.0
C427 C 0.36317 0.84022 0.26302 0.0
N428 N 0.37634 0.83435 0.26684 0.0
Co429 Co 0.40504 0.85061 0.26141 0.0
N430 N 0.40408 0.87526 0.26307 0.0
C431 C 0.38786 0.87674 0.26099 0.0
C432 C 0.39137 0.89538 0.26534 0.0
C433 C 0.41106 0.90639 0.27004 0.0
C434 C 0.41863 0.89389 0.26762 0.0
N435 N 0.4337 0.86681 0.25539 0.0
C436 C 0.44586 0.88636 0.25853 0.0
C437 C 0.46467 0.89163 0.24974 0.0
C438 C 0.46416 0.87484 0.24085 0.0
C439 C 0.44514 0.86026 0.24447 0.0
N440 N 0.40586 0.8259 0.26029 0.0
C441 C 0.42033 0.82368 0.2493 0.0
C442 C 0.41685 0.80486 0.25181 0.0
C443 C 0.39904 0.79466 0.26514 0.0
C444 C 0.39267 0.80788 0.27007 0.0
N445 N 0.40141 0.8494 0.2202 0.0
C446 C 0.4028 0.84697 0.1611 0.0
C447 C 0.39143 0.83021 0.17742 0.0
C448 C 0.39067 0.83178 0.20686 0.0
C449 C 0.41238 0.86509 0.17486 0.0
C450 C 0.41156 0.86598 0.2043 0.0
N451 N 0.4091 0.85178 0.30229 0.0
C452 C 0.42714 0.84964 0.34172 0.0
C453 C 0.41522 0.85247 0.36082 0.0
C454 C 0.4002 0.85515 0.34982 0.0
C455 C 0.39744 0.85482 0.32052 0.0
C456 C 0.42378 0.84922 0.31276 0.0
H457 H 0.3858 0.85689 0.31262 0.0
H458 H 0.43312 0.84675 0.29883 0.0
H459 H 0.38209 0.8186 0.21893 0.0
H460 H 0.42 0.88007 0.21421 0.0
C461 C 0.36937 0.86004 0.25982 0.0
C462 C 0.3734 0.80261 0.28177 0.0
C463 C 0.43972 0.9005 0.26681 0.0
C464 C 0.43805 0.84012 0.2414 0.0
H465 H 0.33391 0.79648 0.28538 0.0
H466 H 0.33147 0.82736 0.26997 0.0
H467 H 0.38078 0.90025 0.26623 0.0
H468 H 0.41886 0.92189 0.27452 0.0
H469 H 0.47737 0.90614 0.24918 0.0
H470 H 0.4763 0.87343 0.23313 0.0
H471 H 0.42641 0.79936 0.24567 0.0
H472 H 0.39153 0.77927 0.27043 0.0
H473 H 0.38349 0.81594 0.16756 0.0
H474 H 0.42134 0.87842 0.16311 0.0
H475 H 0.4392 0.84792 0.34897 0.0
H476 H 0.39046 0.85721 0.36369 0.0
C477 C 0.55852 0.36477 0.60685 0.0
C478 C 0.54422 0.34515 0.60671 0.0
C479 C 0.52705 0.3444 0.60017 0.0
C480 C 0.53182 0.36351 0.59663 0.0
N481 N 0.55104 0.37641 0.60012 0.0
Co482 Co 0.56413 0.40558 0.59702 0.0
N483 N 0.53838 0.40474 0.59392 0.0
C484 C 0.52048 0.38852 0.5946 0.0
C485 C 0.50539 0.39231 0.59573 0.0
C486 C 0.51411 0.41217 0.59578 0.0
C487 C 0.53417 0.41945 0.59397 0.0
N488 N 0.57723 0.43473 0.59295 0.0
C489 C 0.56946 0.44662 0.59017 0.0
C490 C 0.58397 0.46588 0.5857 0.0
C491 C 0.60143 0.46622 0.5863 0.0
C492 C 0.5967 0.44721 0.59072 0.0
N493 N 0.58981 0.40636 0.60185 0.0
C494 C 0.60781 0.42243 0.60121 0.0
C495 C 0.62256 0.41868 0.60766 0.0
C496 C 0.61339 0.3991 0.61339 0.0
C497 C 0.59353 0.39202 0.60997 0.0
N498 N 0.56545 0.4036 0.55486 0.0
C499 C 0.56773 0.406 0.49511 0.0
C500 C 0.5845 0.41494 0.5117 0.0
C501 C 0.58308 0.4133 0.54107 0.0
C502 C 0.54976 0.3948 0.50872 0.0
C503 C 0.54894 0.39385 0.53845 0.0
N504 N 0.56307 0.40795 0.63862 0.0
C505 C 0.57884 0.42493 0.68169 0.0
C506 C 0.56263 0.41215 0.69787 0.0
C507 C 0.5466 0.39699 0.68373 0.0
C508 C 0.54713 0.39515 0.65424 0.0
C509 C 0.57869 0.42268 0.6525 0.0
H510 H 0.53456 0.38332 0.64439 0.0
H511 H 0.59151 0.43304 0.64157 0.0
H512 H 0.59659 0.4204 0.55194 0.0
H513 H 0.53477 0.38548 0.54762 0.0
C514 C 0.51833 0.3699 0.59486 0.0
C515 C 0.57869 0.37166 0.61522 0.0
C516 C 0.54856 0.44037 0.5917 0.0
C517 C 0.61019 0.44088 0.59527 0.0
H518 H 0.54591 0.33272 0.61184 0.0
H519 H 0.51263 0.33155 0.59968 0.0
H520 H 0.48989 0.38187 0.59692 0.0
H521 H 0.50642 0.42024 0.59724 0.0
H522 H 0.58219 0.47846 0.58247 0.0
H523 H 0.61588 0.47889 0.58424 0.0
H524 H 0.63808 0.42903 0.60874 0.0
H525 H 0.62044 0.39098 0.61978 0.0
H526 H 0.59879 0.42335 0.502 0.0
H527 H 0.53637 0.38738 0.49656 0.0
H528 H 0.59187 0.43659 0.69146 0.0
H529 H 0.53362 0.38672 0.69524 0.0
C530 C 0.19435 0.5518 0.94302 0.0
C531 C 0.19887 0.53693 0.94375 0.0
C532 C 0.1826 0.52032 0.93443 0.0
C533 C 0.16905 0.5259 0.92872 0.0
N534 N 0.17578 0.54496 0.93393 0.0
Co535 Co 0.16084 0.55885 0.92961 0.0
N536 N 0.13548 0.53395 0.92996 0.0
C537 C 0.13298 0.516 0.92546 0.0
C538 C 0.11379 0.50147 0.9273 0.0
C539 C 0.10355 0.51086 0.93302 0.0
C540 C 0.11712 0.53073 0.93418 0.0
N541 N 0.14593 0.57276 0.92511 0.0
C542 C 0.12663 0.56629 0.92913 0.0
C543 C 0.12226 0.58079 0.92245 0.0
C544 C 0.13942 0.59676 0.91375 0.0
C545 C 0.1533 0.59117 0.91555 0.0
N546 N 0.1863 0.58363 0.92935 0.0
C547 C 0.18947 0.60088 0.91923 0.0
C548 C 0.20862 0.61546 0.92212 0.0
C549 C 0.21801 0.60674 0.93474 0.0
C550 C 0.204 0.58729 0.93891 0.0
N551 N 0.16205 0.55731 0.88825 0.0
C552 C 0.1647 0.56184 0.82929 0.0
C553 C 0.18122 0.56602 0.84545 0.0
C554 C 0.17952 0.56334 0.87483 0.0
C555 C 0.14667 0.55427 0.84309 0.0
C556 C 0.14568 0.55221 0.87246 0.0
N557 N 0.15961 0.56085 0.97066 0.0
C558 C 0.16331 0.58073 1.01127 0.0
C559 C 0.15689 0.56458 0.02927 0.0
C560 C 0.15224 0.5465 0.01715 0.0
C561 C 0.15384 0.54499 0.98783 0.0
C562 C 0.16432 0.57851 0.98225 0.0
H563 H 0.1502 0.53097 0.97902 0.0
H564 H 0.16887 0.59121 0.96917 0.0
H565 H 0.19251 0.56696 0.88682 0.0
H566 H 0.13173 0.54735 0.88242 0.0
C567 C 0.1491 0.51318 0.92413 0.0
C568 C 0.20813 0.57235 0.94997 0.0
C569 C 0.11187 0.54611 0.93657 0.0
C570 C 0.17359 0.60344 0.91234 0.0
H571 H 0.21238 0.53786 0.95055 0.0
H572 H 0.18058 0.50573 0.93344 0.0
H573 H 0.10799 0.48585 0.92566 0.0
H574 H 0.08787 0.50388 0.93569 0.0
H575 H 0.1081 0.57981 0.92336 0.0
H576 H 0.14157 0.61089 0.90754 0.0
H577 H 0.21487 0.63076 0.91683 0.0
H578 H 0.23336 0.61381 0.94016 0.0
H579 H 0.19539 0.57163 0.83552 0.0
H580 H 0.13355 0.5509 0.83145 0.0
H581 H 0.16765 0.59515 0.01942 0.0
H582 H 0.14708 0.53352 0.03003 0.0
C583 C 0.64759 0.19547 0.27665 0.0
C584 C 0.6674 0.20156 0.27676 0.0
C585 C 0.6691 0.18612 0.267 0.0
C586 C 0.65032 0.17155 0.26149 0.0
N587 N 0.63695 0.17688 0.26713 0.0
Co588 Co 0.60825 0.16038 0.26248 0.0
N589 N 0.60971 0.13601 0.26237 0.0
C590 C 0.62608 0.13492 0.25898 0.0
C591 C 0.62296 0.11634 0.2623 0.0
C592 C 0.60338 0.10498 0.26767 0.0
C593 C 0.59545 0.11722 0.26665 0.0
N594 N 0.57955 0.14393 0.2573 0.0
C595 C 0.56768 0.1243 0.26 0.0
C596 C 0.54866 0.11887 0.25226 0.0
C597 C 0.54874 0.13565 0.24447 0.0
C598 C 0.56774 0.15038 0.24767 0.0
N599 N 0.60702 0.18487 0.263 0.0
C600 C 0.59226 0.18702 0.25311 0.0
C601 C 0.59552 0.20569 0.2568 0.0
C602 C 0.61347 0.21585 0.26977 0.0
C603 C 0.62015 0.20276 0.27325 0.0
N604 N 0.61131 0.16226 0.2211 0.0
C605 C 0.61012 0.16545 0.16196 0.0
C606 C 0.62158 0.18196 0.17879 0.0
C607 C 0.62212 0.18003 0.20821 0.0
C608 C 0.60017 0.14721 0.17537 0.0
C609 C 0.60097 0.14593 0.20477 0.0
N610 N 0.60476 0.15851 0.30357 0.0
C611 C 0.58682 0.15919 0.34432 0.0
C612 C 0.59901 0.15602 0.36229 0.0
C613 C 0.6143 0.15426 0.35024 0.0
C614 C 0.61683 0.15539 0.3208 0.0
C615 C 0.58999 0.1605 0.31521 0.0
H616 H 0.62853 0.15376 0.31198 0.0
H617 H 0.58047 0.16323 0.30212 0.0
H618 H 0.63074 0.19304 0.22062 0.0
H619 H 0.59248 0.13173 0.21431 0.0
C620 C 0.64443 0.15185 0.25737 0.0
C621 C 0.63941 0.20784 0.28468 0.0
C622 C 0.57427 0.11029 0.26683 0.0
C623 C 0.57451 0.17052 0.24541 0.0
H624 H 0.67933 0.21558 0.28347 0.0
H625 H 0.68234 0.18527 0.26569 0.0
H626 H 0.63375 0.1117 0.26202 0.0
H627 H 0.59589 0.08942 0.27164 0.0
H628 H 0.53609 0.10429 0.25164 0.0
H629 H 0.53635 0.13695 0.23774 0.0
H630 H 0.58569 0.21108 0.2518 0.0
H631 H 0.6208 0.2311 0.27591 0.0
H632 H 0.62987 0.19633 0.16936 0.0
H633 H 0.59106 0.13402 0.16342 0.0
H634 H 0.57503 0.16096 0.35273 0.0
H635 H 0.62404 0.15173 0.36339 0.0
H636 H 0.38124 0.56242 0.23876 0.0
H637 H 0.38812 0.57088 0.28889 0.0
H638 H 0.44628 0.58004 0.27786 0.0
H639 H 0.43986 0.57228 0.22779 0.0
H640 H 0.42865 0.55827 0.32517 0.0
H641 H 0.43915 0.61838 0.28363 0.0
H642 H 0.43015 0.63911 0.25589 0.0
H643 H 0.38234 0.62508 0.31246 0.0
H644 H 0.3909 0.60403 0.34032 0.0
H645 H 0.47315 0.60549 0.45313 0.0
H646 H 0.46502 0.59841 0.40306 0.0
H647 H 0.40962 0.59527 0.41768 0.0
H648 H 0.41776 0.60254 0.46782 0.0
H649 H 0.42425 0.61305 0.36895 0.0
H650 H 0.4136 0.55355 0.41113 0.0
H651 H 0.42207 0.53256 0.43925 0.0
H652 H 0.46891 0.54447 0.38187 0.0
H653 H 0.4609 0.56577 0.35361 0.0
C654 C 0.39558 0.56642 0.24684 0.0
C655 C 0.4099 0.56649 0.22892 0.0
C656 C 0.39947 0.5712 0.27563 0.0
C657 C 0.41776 0.57615 0.28727 0.0
C658 C 0.43201 0.57614 0.26953 0.0
C659 C 0.42821 0.57153 0.24079 0.0
C660 C 0.42216 0.58132 0.31786 0.0
C661 C 0.42789 0.57038 0.33465 0.0
C662 C 0.42069 0.59679 0.33056 0.0
C663 C 0.41553 0.60945 0.31387 0.0
C664 C 0.42662 0.61958 0.29001 0.0
C665 C 0.42161 0.63141 0.27429 0.0
C666 C 0.40565 0.63337 0.28236 0.0
C667 C 0.39468 0.62353 0.30621 0.0
C668 C 0.39961 0.61165 0.32198 0.0
C669 C 0.45923 0.60331 0.44573 0.0
C670 C 0.44607 0.60446 0.46467 0.0
C671 C 0.45456 0.59922 0.41702 0.0
C672 C 0.4365 0.59588 0.4065 0.0
C673 C 0.42362 0.59771 0.42515 0.0
C674 C 0.42834 0.60195 0.45387 0.0
C675 C 0.43092 0.5901 0.37626 0.0
C676 C 0.42495 0.60088 0.35954 0.0
C677 C 0.43203 0.57438 0.36364 0.0
C678 C 0.43676 0.5614 0.3804 0.0
C679 C 0.42579 0.5518 0.40461 0.0
C680 C 0.4305 0.53983 0.42056 0.0
C681 C 0.44606 0.53723 0.4124 0.0
C682 C 0.45689 0.54652 0.38819 0.0
C683 C 0.45226 0.55853 0.37218 0.0
H684 H 0.44969 0.52797 0.42479 0.0
H685 H 0.40181 0.64255 0.27017 0.0
H686 H 0.82277 0.37689 0.57176 0.0
H687 H 0.82105 0.38329 0.62207 0.0
H688 H 0.87091 0.44108 0.61264 0.0
H689 H 0.87234 0.43522 0.56239 0.0
H690 H 0.87403 0.42142 0.65923 0.0
H691 H 0.82687 0.43584 0.61813 0.0
H692 H 0.7977 0.42866 0.59017 0.0
H693 H 0.76182 0.38074 0.64531 0.0
H694 H 0.79085 0.38746 0.67338 0.0
H695 H 0.8736 0.46626 0.78776 0.0
H696 H 0.87218 0.45831 0.73756 0.0
H697 H 0.81827 0.40428 0.75144 0.0
H698 H 0.81953 0.41225 0.80173 0.0
H699 H 0.81623 0.42005 0.70298 0.0
H700 H 0.86241 0.40542 0.74477 0.0
H701 H 0.89122 0.41167 0.77294 0.0
H702 H 0.92849 0.4583 0.71682 0.0
H703 H 0.89985 0.45252 0.68852 0.0
C704 C 0.83327 0.39105 0.58022 0.0
C705 C 0.84779 0.40544 0.56273 0.0
C706 C 0.83229 0.39466 0.6091 0.0
C707 C 0.84585 0.41268 0.62118 0.0
C708 C 0.86038 0.427 0.60389 0.0
C709 C 0.86124 0.42352 0.57506 0.0
C710 C 0.84512 0.41673 0.65184 0.0
C711 C 0.86147 0.42132 0.66873 0.0
C712 C 0.82853 0.41606 0.66449 0.0
C713 C 0.81107 0.41201 0.64765 0.0
C714 C 0.81279 0.42365 0.62414 0.0
C715 C 0.79627 0.41969 0.6083 0.0
C716 C 0.77792 0.40421 0.6159 0.0
C717 C 0.77605 0.3927 0.63941 0.0
C718 C 0.79253 0.39658 0.6553 0.0
C719 C 0.86142 0.45268 0.78016 0.0
C720 C 0.84676 0.43983 0.79891 0.0
C721 C 0.86063 0.44812 0.7514 0.0
C722 C 0.84531 0.43048 0.74066 0.0
C723 C 0.83028 0.41795 0.75912 0.0
C724 C 0.83099 0.42256 0.78791 0.0
C725 C 0.84527 0.42498 0.71038 0.0
C726 C 0.82877 0.42008 0.69357 0.0
C727 C 0.86168 0.42518 0.6978 0.0
C728 C 0.87896 0.42865 0.71468 0.0
C729 C 0.87673 0.4171 0.73855 0.0
C730 C 0.89303 0.42055 0.75453 0.0
C731 C 0.91167 0.43541 0.74672 0.0
C732 C 0.91404 0.44682 0.72286 0.0
C733 C 0.89778 0.44345 0.70683 0.0
H734 H 0.92427 0.43805 0.75911 0.0
H735 H 0.76515 0.40118 0.60363 0.0
H736 H 0.45362 0.82971 0.90445 0.0
H737 H 0.44832 0.82979 0.95576 0.0
H738 H 0.42027 0.86402 0.94269 0.0
H739 H 0.42523 0.86369 0.8916 0.0
H740 H 0.44798 0.87714 0.98876 0.0
H741 H 0.39238 0.81802 0.95216 0.0
H742 H 0.37694 0.7866 0.92658 0.0
H743 H 0.40355 0.76447 0.98357 0.0
H744 H 0.4194 0.79589 1.00924 0.0
H745 H 0.40047 0.869 0.11825 0.0
H746 H 0.40786 0.86839 0.06813 0.0
H747 H 0.42034 0.82197 0.08442 0.0
H748 H 0.4122 0.82207 0.13438 0.0
H749 H 0.40267 0.81484 0.03698 0.0
H750 H 0.45724 0.87166 0.07523 0.0
H751 H 0.47451 0.90282 0.10134 0.0
H752 H 0.45325 0.92926 0.04258 0.0
H753 H 0.4356 0.89817 0.01634 0.0
C754 C 0.4465 0.83739 0.91263 0.0
C755 C 0.43975 0.84661 0.89407 0.0
C756 C 0.44341 0.83737 0.94187 0.0
C757 C 0.43381 0.84684 0.95303 0.0
C758 C 0.4277 0.85663 0.93457 0.0
C759 C 0.43047 0.85635 0.9054 0.0
C760 C 0.42946 0.84608 0.98379 0.0
C761 C 0.43796 0.86356 0.99931 0.0
C762 C 0.41687 0.82829 0.99773 0.0
C763 C 0.40725 0.80938 0.98241 0.0
C764 C 0.39508 0.80652 0.95908 0.0
C765 C 0.38623 0.78869 0.9446 0.0
C766 C 0.38931 0.77356 0.95339 0.0
C767 C 0.40121 0.77621 0.97675 0.0
C768 C 0.41012 0.79402 0.99128 0.0
C769 C 0.40468 0.85859 0.11107 0.0
C770 C 0.40579 0.84561 0.13027 0.0
C771 C 0.40904 0.85833 0.08242 0.0
C772 C 0.41516 0.84545 0.07241 0.0
C773 C 0.41574 0.8321 0.09148 0.0
C774 C 0.41104 0.83213 0.12005 0.0
C775 C 0.42103 0.846 0.04219 0.0
C776 C 0.41283 0.82847 0.02667 0.0
C777 C 0.43423 0.86374 0.02839 0.0
C778 C 0.44495 0.88252 0.04396 0.0
C779 C 0.45614 0.88408 0.06798 0.0
C780 C 0.46601 0.90174 0.08279 0.0
C781 C 0.46494 0.91799 0.07367 0.0
C782 C 0.45404 0.91665 0.04965 0.0
C783 C 0.44412 0.89902 0.03478 0.0
H784 H 0.47258 0.93164 0.08517 0.0
H785 H 0.38244 0.75977 0.94216 0.0
H786 H 0.61001 0.47207 0.24074 0.0
H787 H 0.60252 0.46366 0.29088 0.0
H788 H 0.59259 0.40573 0.27411 0.0
H789 H 0.60032 0.41415 0.22398 0.0
H790 H 0.56237 0.40722 0.30752 0.0
H791 H 0.63227 0.4347 0.30564 0.0
H792 H 0.66616 0.45992 0.29447 0.0
H793 H 0.65995 0.50152 0.34545 0.0
H794 H 0.6259 0.47661 0.35659 0.0
H795 H 0.55601 0.37856 0.45284 0.0
H796 H 0.56248 0.38455 0.40196 0.0
H797 H 0.58937 0.44668 0.4167 0.0
H798 H 0.58378 0.44066 0.46746 0.0
H799 H 0.61118 0.44181 0.38312 0.0
H800 H 0.54193 0.41654 0.3842 0.0
H801 H 0.50738 0.39291 0.39466 0.0
H802 H 0.51106 0.34928 0.34508 0.0
H803 H 0.54573 0.37259 0.33462 0.0
C804 C 0.60634 0.45758 0.24778 0.0
C805 C 0.60587 0.44381 0.22843 0.0
C806 C 0.60208 0.4528 0.27642 0.0
C807 C 0.59698 0.43406 0.28625 0.0
C808 C 0.59646 0.42026 0.26699 0.0
C809 C 0.60105 0.42515 0.23842 0.0
C810 C 0.59216 0.42892 0.31664 0.0
C811 C 0.57308 0.41457 0.3241 0.0
C812 C 0.60598 0.43887 0.33827 0.0
C813 C 0.62648 0.45384 0.33172 0.0
C814 C 0.63807 0.44927 0.31427 0.0
C815 C 0.65732 0.4635 0.30799 0.0
C816 C 0.66519 0.48232 0.31919 0.0
C817 C 0.65383 0.48694 0.33676 0.0
C818 C 0.63456 0.47276 0.34309 0.0
C819 C 0.56307 0.39344 0.44504 0.0
C820 C 0.56938 0.40915 0.46401 0.0
C821 C 0.56673 0.3969 0.41594 0.0
C822 C 0.57632 0.41612 0.40517 0.0
C823 C 0.58209 0.43173 0.42424 0.0
C824 C 0.57879 0.42829 0.45327 0.0
C825 C 0.58117 0.4202 0.37438 0.0
C826 C 0.60035 0.43437 0.36673 0.0
C827 C 0.56731 0.4103 0.35262 0.0
C828 C 0.54648 0.39625 0.35889 0.0
C829 C 0.53542 0.40186 0.37571 0.0
C830 C 0.5158 0.38853 0.3816 0.0
C831 C 0.50705 0.36958 0.37061 0.0
C832 C 0.51787 0.36395 0.35362 0.0
C833 C 0.5375 0.37722 0.34769 0.0
H834 H 0.49186 0.35929 0.37519 0.0
H835 H 0.6801 0.49332 0.3143 0.0
H836 H 0.18314 0.63145 0.57329 0.0
H837 H 0.18325 0.62639 0.62468 0.0
H838 H 0.14508 0.56442 0.61287 0.0
H839 H 0.1452 0.56939 0.56176 0.0
H840 H 0.13458 0.58029 0.65936 0.0
H841 H 0.19137 0.58031 0.62001 0.0
H842 H 0.22232 0.59477 0.59331 0.0
H843 H 0.24776 0.6436 0.65038 0.0
H844 H 0.21683 0.62955 0.67719 0.0
H845 H 0.1419 0.53834 0.7863 0.0
H846 H 0.14255 0.54695 0.73649 0.0
H847 H 0.19092 0.60475 0.75335 0.0
H848 H 0.19075 0.59585 0.80301 0.0
H849 H 0.19671 0.59389 0.70491 0.0
H850 H 0.14187 0.59438 0.74614 0.0
H851 H 0.11117 0.58156 0.7732 0.0
H852 H 0.08219 0.53456 0.71367 0.0
H853 H 0.1128 0.54695 0.68647 0.0
C854 C 0.17457 0.61683 0.58181 0.0
C855 C 0.1642 0.6008 0.56364 0.0
C856 C 0.17472 0.61393 0.61107 0.0
C857 C 0.16426 0.595 0.62257 0.0
C858 C 0.15324 0.57914 0.60449 0.0
C859 C 0.15335 0.58198 0.57532 0.0
C860 C 0.16534 0.5914 0.65322 0.0
C861 C 0.14812 0.58314 0.66933 0.0
C862 C 0.18311 0.59563 0.66639 0.0
C863 C 0.20172 0.604 0.65039 0.0
C864 C 0.20351 0.59421 0.62671 0.0
C865 C 0.22106 0.60232 0.61159 0.0
C866 C 0.23698 0.62012 0.62009 0.0
C867 C 0.2354 0.62983 0.64378 0.0
C868 C 0.21787 0.6218 0.65896 0.0
C869 C 0.15276 0.55283 0.7793 0.0
C870 C 0.16624 0.56644 0.79856 0.0
C871 C 0.15305 0.55781 0.75084 0.0
C872 C 0.16646 0.57671 0.74113 0.0
C873 C 0.18035 0.59011 0.76021 0.0
C874 C 0.18029 0.58501 0.7886 0.0
C875 C 0.16583 0.5825 0.71123 0.0
C876 C 0.18314 0.59119 0.69518 0.0
C877 C 0.14817 0.57894 0.69821 0.0
C878 C 0.12968 0.57151 0.7144 0.0
C879 C 0.12898 0.58124 0.73892 0.0
C880 C 0.11159 0.57406 0.75427 0.0
C881 C 0.09476 0.55723 0.7452 0.0
C882 C 0.09526 0.54758 0.7207 0.0
C883 C 0.11262 0.55469 0.70529 0.0
H884 H 0.08131 0.55169 0.75711 0.0
H885 H 0.25056 0.62637 0.60836 0.0
H886 H 0.60897 0.14123 0.1193 0.0
H887 H 0.60269 0.14277 0.06904 0.0
H888 H 0.59961 0.19505 0.08368 0.0
H889 H 0.60545 0.19336 0.13419 0.0
H890 H 0.56963 0.16932 0.05045 0.0
H891 H 0.63935 0.19744 0.05146 0.0
H892 H 0.67044 0.19874 0.06282 0.0
H893 H 0.65265 0.14631 0.01488 0.0
H894 H 0.62132 0.14454 1.00354 0.0
H895 H 0.56649 0.18836 0.90354 0.0
H896 H 0.57532 0.19108 0.95351 0.0
H897 H 0.58625 0.14304 0.94445 0.0
H898 H 0.57881 0.1411 0.89431 0.0
H899 H 0.61331 0.16894 0.97534 0.0
H900 H 0.54321 0.13911 0.97659 0.0
H901 H 0.51142 0.13645 0.96583 0.0
H902 H 0.52893 0.1903 1.00986 0.0
H903 H 0.56094 0.19339 0.02058 0.0
C904 C 0.60696 0.15308 0.11188 0.0
C905 C 0.60776 0.16719 0.1309 0.0
C906 C 0.60351 0.15402 0.08303 0.0
C907 C 0.60081 0.16912 0.07242 0.0
C908 C 0.60168 0.18329 0.09129 0.0
C909 C 0.60523 0.1824 0.12016 0.0
C910 C 0.59664 0.16983 0.04176 0.0
C911 C 0.57934 0.16955 0.03401 0.0
C912 C 0.60903 0.16966 0.02022 0.0
C913 C 0.62792 0.17078 0.02684 0.0
C914 C 0.64201 0.18611 0.0435 0.0
C915 C 0.65968 0.18695 0.04991 0.0
C916 C 0.6635 0.17259 0.03963 0.0
C917 C 0.64967 0.1574 0.02285 0.0
C918 C 0.63196 0.15649 0.01639 0.0
C919 C 0.57096 0.17848 0.91203 0.0
C920 C 0.5717 0.16437 0.89461 0.0
C921 C 0.57578 0.17989 0.94084 0.0
C922 C 0.58117 0.16705 0.95311 0.0
C923 C 0.58207 0.15309 0.93572 0.0
C924 C 0.5775 0.15182 0.90694 0.0
C925 C 0.5861 0.16814 0.98388 0.0
C926 C 0.6036 0.16879 0.9917 0.0
C927 C 0.57378 0.16845 1.00548 0.0
C928 C 0.55454 0.16659 0.99912 0.0
C929 C 0.54033 0.15045 0.98379 0.0
C930 C 0.52227 0.14886 0.97774 0.0
C931 C 0.51818 0.16323 0.98709 0.0
C932 C 0.53213 0.1792 1.00259 0.0
C933 C 0.55023 0.18087 1.00868 0.0
H934 H 0.50419 0.16197 0.98237 0.0
H935 H 0.67719 0.17326 0.04462 0.0
H936 H 0.3639 0.57083 0.02086 0.0
H937 H 0.33803 0.57525 0.99955 0.0
H938 H 0.32683 0.59283 0.0806 0.0
H939 H 0.35282 0.58846 0.10181 0.0
H940 H 0.29325 0.56442 0.0557 0.0
H941 H 0.34778 0.62602 0.02799 0.0
H942 H 0.38 0.64779 1.00661 0.0
H943 H 0.35884 0.62015 0.92601 0.0
H944 H 0.32655 0.59801 0.94701 0.0
H945 H 0.22072 0.58399 1.00394 0.0
H946 H 0.25119 0.58915 0.02572 0.0
H947 H 0.26935 0.57734 0.94552 0.0
H948 H 0.23918 0.57284 0.92372 0.0
H949 H 0.3002 0.60484 0.97155 0.0
H950 H 0.24732 0.54197 0.99817 0.0
H951 H 0.21494 0.51894 0.01804 0.0
H952 H 0.23289 0.54708 0.09897 0.0
H953 H 0.26531 0.57049 0.07944 0.0
C954 C 0.35626 0.57618 0.03386 0.0
C955 C 0.3606 0.57974 0.06278 0.0
C956 C 0.34143 0.57863 0.02174 0.0
C957 C 0.33048 0.58451 0.03838 0.0
C958 C 0.33508 0.58838 0.06726 0.0
C959 C 0.35004 0.58608 0.07932 0.0
C960 C 0.31353 0.58544 0.02602 0.0
C961 C 0.29485 0.57355 0.03763 0.0
C962 C 0.31542 0.59687 1.00187 0.0
C963 C 0.33479 0.61024 0.98914 0.0
C964 C 0.35004 0.62448 1.00575 0.0
C965 C 0.36831 0.63691 0.99369 0.0
C966 C 0.37148 0.63533 0.96498 0.0
C967 C 0.35637 0.62135 0.94825 0.0
C968 C 0.33807 0.60887 0.96022 0.0
C969 C 0.23143 0.58285 0.99097 0.0
C970 C 0.22761 0.57786 0.96229 0.0
C971 C 0.24877 0.58564 1.00342 0.0
C972 C 0.2625 0.58321 0.98748 0.0
C973 C 0.25905 0.57921 0.9584 0.0
C974 C 0.24181 0.5766 0.94593 0.0
C975 C 0.27989 0.58382 1.00125 0.0
C976 C 0.29862 0.59588 0.98981 0.0
C977 C 0.27804 0.57234 0.02536 0.0
C978 C 0.25867 0.55811 0.03727 0.0
C979 C 0.24432 0.54332 0.02017 0.0
C980 C 0.22596 0.5302 0.03137 0.0
C981 C 0.22184 0.53158 0.05974 0.0
C982 C 0.2361 0.54605 0.07699 0.0
C983 C 0.25447 0.55925 0.06587 0.0
H984 H 0.20762 0.5214 0.06837 0.0
H985 H 0.38564 0.64496 0.95569 0.0
H986 H 0.7711 0.34688 0.43793 0.0
H987 H 0.74058 0.32097 0.41706 0.0
H988 H 0.76376 0.34149 0.33357 0.0
H989 H 0.79442 0.36725 0.35456 0.0
H990 H 0.72274 0.32948 0.33969 0.0
H991 H 0.76677 0.30471 0.35626 0.0
H992 H 0.78884 0.29801 0.38492 0.0
H993 H 0.74222 0.26466 0.4434 0.0
H994 H 0.71988 0.27122 0.41509 0.0
H995 H 0.66272 0.24299 0.2592 0.0
H996 H 0.68844 0.273 0.28128 0.0
H997 H 0.67159 0.24549 0.36326 0.0
H998 H 0.64634 0.2153 0.34085 0.0
H999 H 0.70883 0.26197 0.35892 0.0
H1000 H 0.66373 0.28425 0.34065 0.0
H1001 H 0.64145 0.29074 0.31221 0.0
H1002 H 0.68909 0.32894 0.25817 0.0
H1003 H 0.71163 0.32246 0.28605 0.0
C1004 C 0.76941 0.34612 0.41516 0.0
C1005 C 0.78495 0.3591 0.39779 0.0
C1006 C 0.75207 0.33126 0.40323 0.0
C1007 C 0.7499 0.32917 0.37371 0.0
C1008 C 0.76505 0.34283 0.35637 0.0
C1009 C 0.78251 0.35757 0.36832 0.0
C1010 C 0.73251 0.31189 0.36108 0.0
C1011 C 0.71975 0.31471 0.34364 0.0
C1012 C 0.72835 0.29259 0.3667 0.0
C1013 C 0.74172 0.28862 0.38373 0.0
C1014 C 0.76126 0.29605 0.37533 0.0
C1015 C 0.77379 0.29222 0.39145 0.0
C1016 C 0.76695 0.28098 0.41602 0.0
C1017 C 0.74751 0.27341 0.4244 0.0
C1018 C 0.73489 0.27713 0.40829 0.0
C1019 C 0.66425 0.24362 0.282 0.0
C1020 C 0.6524 0.22704 0.29845 0.0
C1021 C 0.67895 0.26076 0.29467 0.0
C1022 C 0.68196 0.26175 0.32412 0.0
C1023 C 0.66965 0.24523 0.34056 0.0
C1024 C 0.65509 0.22804 0.32784 0.0
C1025 C 0.69874 0.27937 0.3375 0.0
C1026 C 0.71155 0.27666 0.35505 0.0
C1027 C 0.70282 0.29873 0.33206 0.0
C1028 C 0.68933 0.30273 0.3153 0.0
C1029 C 0.66943 0.29392 0.32258 0.0
C1030 C 0.65676 0.29762 0.30658 0.0
C1031 C 0.66384 0.31021 0.28336 0.0
C1032 C 0.68362 0.31917 0.27614 0.0
C1033 C 0.69636 0.31551 0.29205 0.0
H1034 H 0.654 0.31305 0.271 0.0
H1035 H 0.7767 0.27809 0.42852 0.0
H1036 H 0.44172 0.7956 0.68889 0.0
H1037 H 0.43783 0.76552 0.66745 0.0
H1038 H 0.4109 0.73397 0.74421 0.0
H1039 H 0.41491 0.76417 0.76562 0.0
H1040 H 0.43928 0.72682 0.72577 0.0
H1041 H 0.38381 0.72675 0.68426 0.0
H1042 H 0.36698 0.741 0.65801 0.0
H1043 H 0.40232 0.74836 0.58492 0.0
H1044 H 0.41957 0.73441 0.61086 0.0
H1045 H 0.42151 0.6363 0.66911 0.0
H1046 H 0.41538 0.66112 0.69048 0.0
H1047 H 0.43392 0.6945 0.61308 0.0
H1048 H 0.43882 0.66911 0.59141 0.0
H1049 H 0.40716 0.69937 0.63374 0.0
H1050 H 0.46418 0.70199 0.6745 0.0
H1051 H 0.48305 0.68983 0.70038 0.0
H1052 H 0.44781 0.68057 0.77428 0.0
H1053 H 0.42829 0.69197 0.74855 0.0
C1054 C 0.43464 0.78212 0.7009 0.0
C1055 C 0.42834 0.78205 0.7287 0.0
C1056 C 0.43241 0.76494 0.68868 0.0
C1057 C 0.42389 0.74734 0.70406 0.0
C1058 C 0.41744 0.74729 0.73183 0.0
C1059 C 0.41959 0.76447 0.744 0.0
C1060 C 0.42267 0.72932 0.6917 0.0
C1061 C 0.43194 0.72058 0.70589 0.0
C1062 C 0.41361 0.72148 0.66534 0.0
C1063 C 0.40308 0.72966 0.64959 0.0
C1064 C 0.38808 0.73152 0.66265 0.0
C1065 C 0.37845 0.73953 0.64782 0.0
C1066 C 0.3836 0.74562 0.61984 0.0
C1067 C 0.39835 0.74365 0.6066 0.0
C1068 C 0.40805 0.73567 0.62135 0.0
C1069 C 0.42387 0.64878 0.6566 0.0
C1070 C 0.43098 0.65103 0.62885 0.0
C1071 C 0.42058 0.6631 0.66887 0.0
C1072 C 0.42479 0.68016 0.65381 0.0
C1073 C 0.43072 0.68169 0.62541 0.0
C1074 C 0.43359 0.6672 0.61301 0.0
C1075 C 0.42394 0.69683 0.66771 0.0
C1076 C 0.41435 0.70541 0.65377 0.0
C1077 C 0.43299 0.70473 0.69415 0.0
C1078 C 0.44459 0.69758 0.70946 0.0
C1079 C 0.46029 0.69711 0.69615 0.0
C1080 C 0.47109 0.69032 0.71079 0.0
C1081 C 0.46654 0.68427 0.7389 0.0
C1082 C 0.4512 0.68504 0.75243 0.0
C1083 C 0.44023 0.69162 0.73781 0.0
H1084 H 0.47496 0.67908 0.75024 0.0
H1085 H 0.37614 0.75182 0.60839 0.0
H1086 H 0.64942 0.43495 0.02137 0.0
H1087 H 0.67557 0.43041 1.00121 0.0
H1088 H 0.69107 0.42122 0.08493 0.0
H1089 H 0.66481 0.42571 0.10498 0.0
H1090 H 0.72306 0.44777 0.05535 0.0
H1091 H 0.6693 0.38346 0.03909 0.0
H1092 H 0.63659 0.35888 0.02208 0.0
H1093 H 0.65345 0.37916 0.9369 0.0
H1094 H 0.68619 0.40408 0.95345 0.0
H1095 H 0.79569 0.42692 1.00727 0.0
H1096 H 0.76568 0.42249 0.02984 0.0
H1097 H 0.74387 0.42721 0.94833 0.0
H1098 H 0.77361 0.431 0.92584 0.0
H1099 H 0.71451 0.40104 0.97895 0.0
H1100 H 0.76705 0.46661 0.99497 0.0
H1101 H 0.7999 0.49148 1.01114 0.0
H1102 H 0.78528 0.46953 0.09598 0.0
H1103 H 0.75242 0.4443 0.08021 0.0
C1104 C 0.65814 0.43148 0.0353 0.0
C1105 C 0.65493 0.43029 0.0646 0.0
C1106 C 0.67311 0.42894 0.02383 0.0
C1107 C 0.68529 0.42534 0.0415 0.0
C1108 C 0.68188 0.42391 0.07083 0.0
C1109 C 0.66679 0.42629 0.08226 0.0
C1110 C 0.70216 0.42406 0.02948 0.0
C1111 C 0.72113 0.43731 0.03899 0.0
C1112 C 0.69981 0.41077 1.00762 0.0
C1113 C 0.68015 0.39576 0.99756 0.0
C1114 C 0.66599 0.38279 0.01676 0.0
C1115 C 0.64745 0.36877 1.00719 0.0
C1116 C 0.64293 0.36749 0.97843 0.0
C1117 C 0.65696 0.38019 0.95917 0.0
C1118 C 0.67552 0.39425 0.96863 0.0
C1119 C 0.78427 0.42662 0.99424 0.0
C1120 C 0.7869 0.42937 0.96492 0.0
C1121 C 0.7672 0.42426 1.00711 0.0
C1122 C 0.75257 0.42492 0.99092 0.0
C1123 C 0.75487 0.4267 0.96138 0.0
C1124 C 0.77185 0.42889 0.94851 0.0
C1125 C 0.73543 0.42481 1.00473 0.0
C1126 C 0.71642 0.41139 0.99548 0.0
C1127 C 0.73774 0.43804 0.02672 0.0
C1128 C 0.75734 0.45345 0.03636 0.0
C1129 C 0.77088 0.46702 0.01705 0.0
C1130 C 0.7895 0.48118 0.02614 0.0
C1131 C 0.79469 0.48205 0.05456 0.0
C1132 C 0.78125 0.46881 0.07397 0.0
C1133 C 0.76262 0.45458 0.06497 0.0
H1134 H 0.80912 0.49301 0.06156 0.0
H1135 H 0.62857 0.35662 0.97107 0.0
H1136 H 0.21687 0.64958 0.35817 0.0
H1137 H 0.24678 0.6754 0.33593 0.0
H1138 H 0.27858 0.68226 0.41321 0.0
H1139 H 0.24851 0.65646 0.43545 0.0
H1140 H 0.28556 0.71721 0.39277 0.0
H1141 H 0.28547 0.66084 0.35453 0.0
H1142 H 0.27111 0.62912 0.32985 0.0
H1143 H 0.26383 0.65533 0.25481 0.0
H1144 H 0.27777 0.68714 0.2792 0.0
H1145 H 0.37534 0.78888 0.33392 0.0
H1146 H 0.35095 0.75815 0.35621 0.0
H1147 H 0.317 0.74167 0.2793 0.0
H1148 H 0.34196 0.7718 0.25672 0.0
H1149 H 0.31263 0.71043 0.30151 0.0
H1150 H 0.30879 0.76506 0.33893 0.0
H1151 H 0.32124 0.797 0.36246 0.0
H1152 H 0.33355 0.77442 0.4374 0.0
H1153 H 0.32152 0.74247 0.41412 0.0
C1154 C 0.23037 0.65639 0.37014 0.0
C1155 C 0.23054 0.65089 0.39831 0.0
C1156 C 0.24745 0.67113 0.35747 0.0
C1157 C 0.26507 0.68072 0.37275 0.0
C1158 C 0.26524 0.67506 0.40091 0.0
C1159 C 0.24814 0.66025 0.41355 0.0
C1160 C 0.28299 0.69727 0.35978 0.0
C1161 C 0.2917 0.71563 0.37307 0.0
C1162 C 0.29071 0.69543 0.33363 0.0
C1163 C 0.28254 0.67636 0.31879 0.0
C1164 C 0.28067 0.65982 0.33283 0.0
C1165 C 0.2726 0.64182 0.31889 0.0
C1166 C 0.26649 0.6402 0.29082 0.0
C1167 C 0.2685 0.6566 0.27659 0.0
C1168 C 0.27651 0.67462 0.29045 0.0
C1169 C 0.36285 0.77843 0.3217 0.0
C1170 C 0.36029 0.78278 0.29383 0.0
C1171 C 0.34879 0.76097 0.3345 0.0
C1172 C 0.33167 0.74773 0.31983 0.0
C1173 C 0.32987 0.75159 0.2913 0.0
C1174 C 0.3441 0.76884 0.27838 0.0
C1175 C 0.31518 0.73049 0.33439 0.0
C1176 C 0.30666 0.712 0.32137 0.0
C1177 C 0.30738 0.73227 0.36058 0.0
C1178 C 0.31446 0.75144 0.37467 0.0
C1179 C 0.31428 0.76696 0.36036 0.0
C1180 C 0.32127 0.78507 0.37365 0.0
C1181 C 0.32825 0.78777 0.40138 0.0
C1182 C 0.32821 0.77235 0.4159 0.0
C1183 C 0.32131 0.75423 0.40266 0.0
H1184 H 0.33365 0.8018 0.41164 0.0
H1185 H 0.26024 0.62625 0.28006 0.0
H1186 H 0.58238 0.23857 0.76913 0.0
H1187 H 0.58651 0.26873 0.74766 0.0
H1188 H 0.58826 0.24668 0.66488 0.0
H1189 H 0.58388 0.21636 0.68647 0.0
H1190 H 0.61561 0.28776 0.67205 0.0
H1191 H 0.54712 0.24187 0.68464 0.0
H1192 H 0.51793 0.21878 0.71176 0.0
H1193 H 0.52678 0.26476 0.76897 0.0
H1194 H 0.55618 0.28809 0.74234 0.0
H1195 H 0.59002 0.34787 0.58977 0.0
H1196 H 0.59354 0.32161 0.61171 0.0
H1197 H 0.58133 0.33748 0.69345 0.0
H1198 H 0.57741 0.36342 0.67124 0.0
H1199 H 0.56027 0.29972 0.68705 0.0
H1200 H 0.62797 0.34621 0.67361 0.0
H1201 H 0.65748 0.36937 0.64717 0.0
H1202 H 0.65091 0.323 0.59255 0.0
H1203 H 0.62117 0.29959 0.61841 0.0
C1204 C 0.58406 0.2404 0.74641 0.0
C1205 C 0.58283 0.22525 0.72938 0.0
C1206 C 0.58632 0.25755 0.73414 0.0
C1207 C 0.58752 0.25993 0.70461 0.0
C1208 C 0.58739 0.24521 0.68769 0.0
C1209 C 0.58492 0.22794 0.69998 0.0
C1210 C 0.58743 0.27706 0.69146 0.0
C1211 C 0.60344 0.2903 0.67504 0.0
C1212 C 0.57173 0.28061 0.6958 0.0
C1213 C 0.55395 0.26668 0.71167 0.0
C1214 C 0.54292 0.24703 0.70312 0.0
C1215 C 0.52631 0.23391 0.71836 0.0
C1216 C 0.52054 0.24029 0.74212 0.0
C1217 C 0.5313 0.25983 0.75059 0.0
C1218 C 0.54791 0.27302 0.73541 0.0
C1219 C 0.58852 0.34593 0.61249 0.0
C1220 C 0.58372 0.35774 0.62894 0.0
C1221 C 0.59052 0.33095 0.62506 0.0
C1222 C 0.58788 0.32756 0.65439 0.0
C1223 C 0.58347 0.33973 0.67084 0.0
C1224 C 0.58139 0.35464 0.65824 0.0
C1225 C 0.58857 0.3107 0.66767 0.0
C1226 C 0.57256 0.29737 0.68408 0.0
C1227 C 0.60433 0.30716 0.66336 0.0
C1228 C 0.62222 0.32118 0.64779 0.0
C1229 C 0.63272 0.34097 0.65582 0.0
C1230 C 0.64951 0.35414 0.64096 0.0
C1231 C 0.65604 0.34767 0.61815 0.0
C1232 C 0.64582 0.32799 0.6102 0.0
C1233 C 0.629 0.31477 0.62497 0.0
H1234 H 0.66904 0.35789 0.60668 0.0
H1235 H 0.5077 0.23009 0.75394 0.0
H1236 H 0.47052 0.5512 0.05721 0.0
H1237 H 0.49331 0.53866 0.05798 0.0
H1238 H 0.46027 0.49971 0.12629 0.0
H1239 H 0.43958 0.51436 0.12811 0.0
H1240 H 0.49207 0.50724 0.1364 0.0
H1241 H 0.45935 0.48695 0.04803 0.0
H1242 H 0.44731 0.49025 1.00143 0.0
H1243 H 0.50636 0.52678 0.97286 0.0
H1244 H 0.51875 0.52389 0.01943 0.0
H1245 H 0.54091 0.45311 0.05679 0.0
H1246 H 0.51674 0.46401 0.05759 0.0
H1247 H 0.54813 0.50328 0.12642 0.0
H1248 H 0.5704 0.49046 0.12795 0.0
H1249 H 0.5153 0.49314 0.04687 0.0
H1250 H 0.52327 0.51682 0.16582 0.0
H1251 H 0.52826 0.50559 0.21208 0.0
H1252 H 0.50561 0.44757 0.17905 0.0
H1253 H 0.50023 0.45837 0.13271 0.0
C1254 C 0.46835 0.5401 0.07253 0.0
C1255 C 0.45285 0.5333 0.09197 0.0
C1256 C 0.48119 0.53265 0.0727 0.0
C1257 C 0.47829 0.51753 0.09145 0.0
C1258 C 0.46305 0.5112 0.11136 0.0
C1259 C 0.45091 0.51936 0.11212 0.0
C1260 C 0.49113 0.50845 0.09089 0.0
C1261 C 0.49694 0.50406 0.11669 0.0
C1262 C 0.49733 0.50364 0.0654 0.0
C1263 C 0.48997 0.50536 0.03731 0.0
C1264 C 0.46976 0.49577 0.03186 0.0
C1265 C 0.46288 0.49756 1.00545 0.0
C1266 C 0.47606 0.50876 0.98422 0.0
C1267 C 0.49616 0.51813 0.98934 0.0
C1268 C 0.50313 0.51642 0.01573 0.0
C1269 C 0.54232 0.4638 0.07238 0.0
C1270 C 0.55773 0.47116 0.09198 0.0
C1271 C 0.52862 0.47021 0.0727 0.0
C1272 C 0.53025 0.48443 0.0923 0.0
C1273 C 0.54587 0.49187 0.11164 0.0
C1274 C 0.55895 0.48482 0.11214 0.0
C1275 C 0.51596 0.49177 0.09236 0.0
C1276 C 0.51009 0.49602 0.06651 0.0
C1277 C 0.5085 0.49512 0.11777 0.0
C1278 C 0.51152 0.48847 0.14571 0.0
C1279 C 0.51926 0.50165 0.16846 0.0
C1280 C 0.52218 0.49536 0.19469 0.0
C1281 C 0.51731 0.4759 0.19847 0.0
C1282 C 0.50944 0.46266 0.17606 0.0
C1283 C 0.50647 0.46886 0.14981 0.0
H1284 H 0.5196 0.47106 0.21878 0.0
H1285 H 0.4707 0.51014 0.9638 0.0
H1286 H 0.92945 0.43577 0.46335 0.0
H1287 H 0.96472 0.45696 0.46398 0.0
H1288 H 0.96019 0.49225 0.39792 0.0
H1289 H 0.92499 0.46911 0.39459 0.0
H1290 H 0.99035 0.4934 0.38771 0.0
H1291 H 0.96933 0.50497 0.47511 0.0
H1292 H 0.9521 0.49774 0.52088 0.0
H1293 H 0.98541 0.47204 0.5511 0.0
H1294 H 1.00266 0.47888 0.50536 0.0
H1295 H 0.08642 0.56421 0.47376 0.0
H1296 H 0.051 0.54344 0.47202 0.0
H1297 H 0.05679 0.51276 0.40028 0.0
H1298 H 0.09205 0.53552 0.39973 0.0
H1299 H 0.02562 0.51133 0.47918 0.0
H1300 H 0.01778 0.49088 0.35931 0.0
H1301 H 0.03418 0.50568 0.31416 0.0
H1302 H 0.05716 0.56304 0.34985 0.0
H1303 H 0.04069 0.5486 0.39508 0.0
C1304 C 0.93604 0.44779 0.44849 0.0
C1305 C 0.92448 0.45044 0.42837 0.0
C1306 C 0.95628 0.46029 0.44931 0.0
C1307 C 0.96547 0.47673 0.4315 0.0
C1308 C 0.95376 0.47971 0.41189 0.0
C1309 C 0.93356 0.46659 0.41012 0.0
C1310 C 0.98719 0.49045 0.43302 0.0
C1311 C 0.99796 0.49741 0.4078 0.0
C1312 C 0.99745 0.49642 0.45909 0.0
C1313 C 0.98717 0.4923 0.4867 0.0
C1314 C 0.9729 0.49767 0.49146 0.0
C1315 C 0.96314 0.49365 0.5174 0.0
C1316 C 0.96763 0.4844 0.53886 0.0
C1317 C 0.98193 0.47919 0.53444 0.0
C1318 C 0.99172 0.48316 0.50852 0.0
C1319 C 0.08005 0.55316 0.4574 0.0
C1320 C 0.09197 0.55185 0.43644 0.0
C1321 C 0.05971 0.54108 0.45653 0.0
C1322 C 0.05076 0.52667 0.43544 0.0
C1323 C 0.06294 0.52426 0.41597 0.0
C1324 C 0.08322 0.53703 0.41599 0.0
C1325 C 0.02882 0.51442 0.43387 0.0
C1326 C 0.018 0.50758 0.45909 0.0
C1327 C 0.0184 0.50983 0.4079 0.0
C1328 C 0.02817 0.51863 0.38066 0.0
C1329 C 0.02627 0.50665 0.35748 0.0
C1330 C 0.03559 0.51498 0.33188 0.0
C1331 C 0.04676 0.53529 0.32917 0.0
C1332 C 0.04856 0.54732 0.35201 0.0
C1333 C 0.03924 0.53906 0.37763 0.0
H1334 H 0.05398 0.5417 0.30935 0.0
H1335 H 0.96005 0.48129 0.55893 0.0
H1336 H 0.54544 0.0858 0.71259 0.0
H1337 H 0.53145 0.05011 0.71245 0.0
H1338 H 0.5189 0.04841 0.8016 0.0
H1339 H 0.53337 0.08407 0.80174 0.0
H1340 H 0.53117 0.02369 0.79088 0.0
H1341 H 0.48364 0.03716 0.74948 0.0
H1342 H 0.47176 0.05255 0.71557 0.0
H1343 H 0.4834 0.02437 0.64667 0.0
H1344 H 0.49566 0.00905 0.68016 0.0
H1345 H 0.46088 0.92316 0.80436 0.0
H1346 H 0.47546 0.95886 0.80217 0.0
H1347 H 0.49105 0.95819 0.71488 0.0
H1348 H 0.47632 0.92246 0.71711 0.0
H1349 H 0.47765 0.98391 0.72351 0.0
H1350 H 0.52433 0.96968 0.76585 0.0
H1351 H 0.5355 0.954 0.80036 0.0
H1352 H 0.52476 0.98354 0.8683 0.0
H1353 H 0.51317 0.99912 0.83421 0.0
C1354 C 0.53989 0.07774 0.73214 0.0
C1355 C 0.54035 0.08752 0.75713 0.0
C1356 C 0.53177 0.05736 0.73206 0.0
C1357 C 0.52374 0.04642 0.75693 0.0
C1358 C 0.52491 0.05641 0.78213 0.0
C1359 C 0.53314 0.07675 0.78222 0.0
C1360 C 0.51362 0.02457 0.7567 0.0
C1361 C 0.51933 0.01503 0.77633 0.0
C1362 C 0.49836 0.01313 0.73743 0.0
C1363 C 0.49074 0.02211 0.7173 0.0
C1364 C 0.48378 0.03434 0.72708 0.0
C1365 C 0.47697 0.04305 0.70794 0.0
C1366 C 0.47686 0.03947 0.67898 0.0
C1367 C 0.48352 0.02714 0.66911 0.0
C1368 C 0.49039 0.01844 0.68816 0.0
C1369 C 0.46712 0.93067 0.78463 0.0
C1370 C 0.46741 0.92018 0.76084 0.0
C1371 C 0.47556 0.95104 0.78341 0.0
C1372 C 0.48458 0.96129 0.75843 0.0
C1373 C 0.4842 0.95066 0.73436 0.0
C1374 C 0.4758 0.93029 0.73561 0.0
C1375 C 0.49513 0.98311 0.75779 0.0
C1376 C 0.48952 0.99261 0.738 0.0
C1377 C 0.51042 0.99452 0.77699 0.0
C1378 C 0.51772 0.98544 0.79749 0.0
C1379 C 0.52423 0.97274 0.78816 0.0
C1380 C 0.53065 0.96387 0.80765 0.0
C1381 C 0.53081 0.96775 0.83651 0.0
C1382 C 0.52461 0.98054 0.84594 0.0
C1383 C 0.51812 0.9894 0.82654 0.0
H1384 H 0.53578 0.96087 0.85157 0.0
H1385 H 0.47159 0.04623 0.66419 0.0
H1386 H 0.49374 0.56963 0.56177 0.0
H1387 H 0.50737 0.54805 0.56062 0.0
H1388 H 0.4684 0.51366 0.62811 0.0
H1389 H 0.45675 0.53713 0.63178 0.0
H1390 H 0.49765 0.51282 0.6378 0.0
H1391 H 0.4639 0.49979 0.55141 0.0
H1392 H 0.4532 0.5063 0.50576 0.0
H1393 H 0.51176 0.5317 0.47364 0.0
H1394 H 0.52288 0.5256 0.51924 0.0
H1395 H 0.52341 0.44173 0.5532 0.0
H1396 H 0.50819 0.462 0.55457 0.0
H1397 H 0.54531 0.49439 0.62481 0.0
H1398 H 0.55842 0.47214 0.62583 0.0
H1399 H 0.51414 0.49379 0.54644 0.0
H1400 H 0.5281 0.51625 0.66556 0.0
H1401 H 0.53058 0.50235 0.71102 0.0
H1402 H 0.49651 0.44433 0.67734 0.0
H1403 H 0.49361 0.45788 0.63183 0.0
C1404 C 0.48833 0.55765 0.57672 0.0
C1405 C 0.47455 0.55539 0.59739 0.0
C1406 C 0.49584 0.54496 0.57564 0.0
C1407 C 0.48876 0.52873 0.59383 0.0
C1408 C 0.47437 0.52604 0.61386 0.0
C1409 C 0.46752 0.53935 0.61583 0.0
C1410 C 0.49681 0.51504 0.59244 0.0
C1411 C 0.50106 0.50856 0.61774 0.0
C1412 C 0.50085 0.50874 0.56643 0.0
C1413 C 0.49425 0.51238 0.53885 0.0
C1414 C 0.47452 0.50687 0.53467 0.0
C1415 C 0.46838 0.51048 0.50879 0.0
C1416 C 0.4818 0.51945 0.48683 0.0
C1417 C 0.50138 0.52477 0.49068 0.0
C1418 C 0.50761 0.52122 0.51653 0.0
C1419 C 0.5281 0.45303 0.56918 0.0
C1420 C 0.5417 0.45496 0.5899 0.0
C1421 C 0.51952 0.46483 0.56982 0.0
C1422 C 0.52499 0.47957 0.59039 0.0
C1423 C 0.53994 0.48261 0.60954 0.0
C1424 C 0.54779 0.47013 0.60979 0.0
C1425 C 0.51494 0.4915 0.59181 0.0
C1426 C 0.51046 0.49779 0.56651 0.0
C1427 C 0.50933 0.49637 0.61777 0.0
C1428 C 0.51082 0.4881 0.6452 0.0
C1429 C 0.52107 0.50053 0.6679 0.0
C1430 C 0.52256 0.49271 0.69367 0.0
C1431 C 0.51376 0.47247 0.69703 0.0
C1432 C 0.50337 0.46 0.67468 0.0
C1433 C 0.50181 0.46774 0.6489 0.0
H1434 H 0.51496 0.46645 0.71698 0.0
H1435 H 0.47701 0.52224 0.46683 0.0
H1436 H 0.09055 0.54684 0.98169 0.0
H1437 H 0.05502 0.53376 0.98388 0.0
H1438 H 0.05028 0.51816 0.89556 0.0
H1439 H 0.08578 0.53181 0.89333 0.0
H1440 H 0.02635 0.53116 0.90636 0.0
H1441 H 0.04026 0.48461 0.95089 0.0
H1442 H 0.05645 0.47405 0.98546 0.0
H1443 H 0.0306 0.48921 0.05373 0.0
H1444 H 0.01448 0.50015 0.01952 0.0
H1445 H 0.92624 0.46101 0.89706 0.0
H1446 H 0.96187 0.47559 0.8989 0.0
H1447 H 0.96178 0.49284 0.98546 0.0
H1448 H 0.92598 0.47785 0.9837 0.0
H1449 H 0.988 0.48011 0.97776 0.0
H1450 H 0.97267 0.52505 0.93254 0.0
H1451 H 0.95617 0.53494 0.89753 0.0
H1452 H 0.98466 0.52237 0.83004 0.0
H1453 H 1.00105 0.51204 0.86465 0.0
C1454 C 0.08186 0.54087 0.96274 0.0
C1455 C 0.09075 0.54021 0.9374 0.0
C1456 C 0.06157 0.53325 0.964 0.0
C1457 C 0.04979 0.52456 0.94001 0.0
C1458 C 0.05891 0.52468 0.9144 0.0
C1459 C 0.07918 0.53245 0.9131 0.0
C1460 C 0.02796 0.51476 0.94159 0.0
C1461 C 0.018 0.51987 0.92183 0.0
C1462 C 0.01692 0.50026 0.96209 0.0
C1463 C 0.02631 0.49336 0.98266 0.0
C1464 C 0.0381 0.48578 0.97327 0.0
C1465 C 0.04727 0.47973 0.9928 0.0
C1466 C 0.04459 0.481 0.02178 0.0
C1467 C 0.03268 0.48826 0.03128 0.0
C1468 C 0.02352 0.49438 1.01183 0.0
C1469 C 0.93381 0.46747 0.91667 0.0
C1470 C 0.9234 0.46803 0.9404 0.0
C1471 C 0.95418 0.47599 0.91765 0.0
C1472 C 0.96461 0.48556 0.94223 0.0
C1473 C 0.95411 0.48554 0.96628 0.0
C1474 C 0.93369 0.47697 0.9653 0.0
C1475 C 0.98646 0.49636 0.94232 0.0
C1476 C 0.99639 0.49146 0.96239 0.0
C1477 C 0.99749 0.51101 0.92204 0.0
C1478 C 0.98798 0.51762 0.9012 0.0
C1479 C 0.97534 0.52429 0.91023 0.0
C1480 C 0.966 0.52997 0.89046 0.0
C1481 C 0.96935 0.52926 0.86158 0.0
C1482 C 0.98207 0.5229 0.85242 0.0
C1483 C 0.9914 0.51714 0.87211 0.0
H1484 H 0.9621 0.53365 0.84629 0.0
H1485 H 0.05171 0.47632 0.03687 0.0
H1486 H 0.44095 0.92855 0.23156 0.0
H1487 H 0.46312 0.96367 0.23308 0.0
H1488 H 0.4959 0.95586 0.29981 0.0
H1489 H 0.47191 0.92075 0.30071 0.0
H1490 H 0.49739 0.98641 0.31137 0.0
H1491 H 0.51074 0.96636 0.22421 0.0
H1492 H 0.50418 0.94997 0.17783 0.0
H1493 H 0.48134 0.98567 0.14702 0.0
H1494 H 0.48751 1.0021 0.19336 0.0
H1495 H 0.57289 0.08294 0.22984 0.0
H1496 H 0.55178 0.04763 0.23141 0.0
H1497 H 0.51943 0.05394 0.30045 0.0
H1498 H 0.5425 0.08921 0.30125 0.0
H1499 H 0.51949 0.02359 0.22167 0.0
H1500 H 0.49459 0.01393 0.33951 0.0
H1501 H 0.50777 0.02924 0.38585 0.0
H1502 H 0.5663 0.05125 0.35528 0.0
H1503 H 0.55347 0.03587 0.30889 0.0
C1504 C 0.45265 0.93438 0.24698 0.0
C1505 C 0.45437 0.92195 0.26656 0.0
C1506 C 0.46567 0.95452 0.24744 0.0
C1507 C 0.48168 0.96272 0.26613 0.0
C1508 C 0.48372 0.95015 0.28522 0.0
C1509 C 0.47011 0.93003 0.2856 0.0
C1510 C 0.49599 0.98432 0.26588 0.0
C1511 C 0.50232 0.99447 0.29169 0.0
C1512 C 0.50309 0.99508 0.24038 0.0
C1513 C 0.49945 0.98535 0.21236 0.0
C1514 C 0.50422 0.97064 0.2076 0.0
C1515 C 0.50057 0.96135 0.18131 0.0
C1516 C 0.4923 0.96675 0.15951 0.0
C1517 C 0.48772 0.9815 0.16394 0.0
C1518 C 0.49131 0.99082 0.1902 0.0
C1519 C 0.5616 0.07671 0.2459 0.0
C1520 C 0.5599 0.08876 0.26624 0.0
C1521 C 0.54924 0.05644 0.24652 0.0
C1522 C 0.53409 0.04765 0.26659 0.0
C1523 C 0.53146 0.05995 0.28557 0.0
C1524 C 0.54447 0.08021 0.28579 0.0
C1525 C 0.52111 0.02577 0.26718 0.0
C1526 C 0.51484 0.01556 0.24139 0.0
C1527 C 0.51522 0.01482 0.29269 0.0
C1528 C 0.52306 0.02392 0.32064 0.0
C1529 C 0.51027 0.02197 0.34272 0.0
C1530 C 0.51768 0.03068 0.36898 0.0
C1531 C 0.53786 0.04127 0.37347 0.0
C1532 C 0.55068 0.04311 0.35174 0.0
C1533 C 0.54334 0.03441 0.32546 0.0
H1534 H 0.54357 0.04803 0.3938 0.0
H1535 H 0.48948 0.95952 0.13918 0.0
H1536 H 0.41318 0.58557 0.72745 0.0
H1537 H 0.40799 0.57901 0.77791 0.0
H1538 H 0.4679 0.59294 0.7875 0.0
H1539 H 0.47295 0.59853 0.73648 0.0
H1540 H 0.44533 0.56209 0.81837 0.0
H1541 H 0.45245 0.62493 0.80802 0.0
H1542 H 0.44651 0.65008 0.78754 0.0
H1543 H 0.3866 0.61806 0.81457 0.0
H1544 H 0.39212 0.59242 0.83478 0.0
H1545 H 0.44737 0.57507 0.96841 0.0
H1546 H 0.45303 0.58016 0.91746 0.0
H1547 H 0.39141 0.5576 0.90411 0.0
H1548 H 0.38565 0.55251 0.95525 0.0
H1549 H 0.41555 0.59313 0.8757 0.0
H1550 H 0.4107 0.53008 0.88708 0.0
H1551 H 0.41945 0.50708 0.90866 0.0
H1552 H 0.47893 0.54306 0.88154 0.0
H1553 H 0.4706 0.56644 0.86012 0.0
C1554 C 0.42525 0.58704 0.74012 0.0
C1555 C 0.4435 0.59253 0.72766 0.0
C1556 C 0.42231 0.5835 0.76916 0.0
C1557 C 0.4376 0.5857 0.78674 0.0
C1558 C 0.45585 0.59117 0.77446 0.0
C1559 C 0.45879 0.59459 0.74528 0.0
C1560 C 0.43442 0.58223 0.81785 0.0
C1561 C 0.43906 0.56909 0.83092 0.0
C1562 C 0.42605 0.59118 0.83438 0.0
C1563 C 0.42266 0.60665 0.82266 0.0
C1564 C 0.43797 0.62316 0.80942 0.0
C1565 C 0.43467 0.63753 0.79787 0.0
C1566 C 0.41617 0.63569 0.79968 0.0
C1567 C 0.40092 0.61947 0.81315 0.0
C1568 C 0.40413 0.605 0.82466 0.0
C1569 C 0.435 0.57114 0.95462 0.0
C1570 C 0.41605 0.5634 0.96587 0.0
C1571 C 0.43825 0.57397 0.92549 0.0
C1572 C 0.42264 0.5692 0.90692 0.0
C1573 C 0.40367 0.56136 0.91803 0.0
C1574 C 0.40037 0.55833 0.94721 0.0
C1575 C 0.42624 0.57285 0.87602 0.0
C1576 C 0.42175 0.58609 0.86304 0.0
C1577 C 0.43511 0.56432 0.85975 0.0
C1578 C 0.44006 0.5501 0.87221 0.0
C1579 C 0.42568 0.53316 0.88587 0.0
C1580 C 0.43056 0.52004 0.89805 0.0
C1581 C 0.44975 0.52363 0.89654 0.0
C1582 C 0.46408 0.54031 0.88272 0.0
C1583 C 0.45928 0.55349 0.87053 0.0
H1584 H 0.4535 0.51348 0.90602 0.0
H1585 H 0.41365 0.64684 0.7907 0.0
H1586 H 0.83729 0.3853 0.28944 0.0
H1587 H 0.83731 0.39127 0.23865 0.0
H1588 H 0.87625 0.45293 0.25244 0.0
H1589 H 0.87593 0.44705 0.30323 0.0
H1590 H 0.84895 0.44846 0.21725 0.0
H1591 H 0.89196 0.42226 0.22333 0.0
H1592 H 0.9021 0.39847 0.2367 0.0
H1593 H 0.85514 0.3541 0.1876 0.0
H1594 H 0.84454 0.37756 0.17424 0.0
H1595 H 0.87751 0.4714 0.071 0.0
H1596 H 0.87757 0.46672 0.12222 0.0
H1597 H 0.83094 0.4071 0.11323 0.0
H1598 H 0.83016 0.4118 0.06242 0.0
H1599 H 0.86291 0.41119 0.14551 0.0
H1600 H 0.82021 0.43806 0.13975 0.0
H1601 H 0.81109 0.46248 0.12562 0.0
H1602 H 0.85906 0.50651 0.17366 0.0
H1603 H 0.86866 0.4824 0.18771 0.0
C1604 C 0.84602 0.40008 0.28158 0.0
C1605 C 0.85662 0.41569 0.30035 0.0
C1606 C 0.84604 0.40351 0.25252 0.0
C1607 C 0.85695 0.42256 0.24155 0.0
C1608 C 0.86765 0.43812 0.2603 0.0
C1609 C 0.86748 0.43474 0.28935 0.0
C1610 C 0.85696 0.42634 0.21065 0.0
C1611 C 0.8523 0.44049 0.20163 0.0
C1612 C 0.86098 0.41576 0.19009 0.0
C1613 C 0.86735 0.40163 0.19801 0.0
C1614 C 0.8837 0.40739 0.21556 0.0
C1615 C 0.88955 0.39397 0.2231 0.0
C1616 C 0.87924 0.37478 0.21306 0.0
C1617 C 0.86309 0.36897 0.19539 0.0
C1618 C 0.85717 0.38233 0.18781 0.0
C1619 C 0.86702 0.4574 0.07993 0.0
C1620 C 0.85398 0.44193 0.06238 0.0
C1621 C 0.86717 0.45471 0.10921 0.0
C1622 C 0.85434 0.43651 0.12148 0.0
C1623 C 0.84111 0.42119 0.10416 0.0
C1624 C 0.84078 0.42391 0.07503 0.0
C1625 C 0.85489 0.43321 0.1523 0.0
C1626 C 0.85966 0.41917 0.16124 0.0
C1627 C 0.85112 0.44399 0.17275 0.0
C1628 C 0.84529 0.45847 0.16453 0.0
C1629 C 0.82892 0.45299 0.1471 0.0
C1630 C 0.82365 0.46677 0.13914 0.0
C1631 C 0.83453 0.48605 0.14867 0.0
C1632 C 0.85067 0.49158 0.16625 0.0
C1633 C 0.85603 0.47786 0.17424 0.0
H1634 H 0.83042 0.4967 0.14248 0.0
H1635 H 0.88379 0.36441 0.21893 0.0
H1636 H 0.46082 0.83936 0.62002 0.0
H1637 H 0.45658 0.83949 0.56865 0.0
H1638 H 0.43424 0.87906 0.57879 0.0
H1639 H 0.4383 0.87884 0.62994 0.0
H1640 H 0.41059 0.84931 0.54626 0.0
H1641 H 0.47971 0.894 0.55019 0.0
H1642 H 0.51395 0.90508 0.56298 0.0
H1643 H 0.51185 0.85764 0.51566 0.0
H1644 H 0.4775 0.84611 0.50289 0.0
H1645 H 0.41179 0.8755 0.40154 0.0
H1646 H 0.41856 0.87645 0.45216 0.0
H1647 H 0.43395 0.83164 0.44102 0.0
H1648 H 0.42654 0.83 0.39068 0.0
H1649 H 0.46129 0.86357 0.47351 0.0
H1650 H 0.39228 0.81909 0.46955 0.0
H1651 H 0.35824 0.80834 0.45616 0.0
H1652 H 0.36032 0.85575 0.50353 0.0
H1653 H 0.39454 0.86701 0.51683 0.0
C1654 C 0.45539 0.84839 0.61118 0.0
C1655 C 0.44979 0.859 0.62898 0.0
C1656 C 0.45292 0.84843 0.58184 0.0
C1657 C 0.44505 0.85927 0.56982 0.0
C1658 C 0.44018 0.87045 0.58755 0.0
C1659 C 0.44254 0.87034 0.61677 0.0
C1660 C 0.44089 0.85826 0.539 0.0
C1661 C 0.42178 0.85272 0.53039 0.0
C1662 C 0.45531 0.86217 0.51822 0.0
C1663 C 0.47597 0.86908 0.52583 0.0
C1664 C 0.4865 0.88584 0.5427 0.0
C1665 C 0.50594 0.89222 0.54991 0.0
C1666 C 0.51505 0.88204 0.5402 0.0
C1667 C 0.50476 0.86549 0.5232 0.0
C1668 C 0.48531 0.85904 0.51595 0.0
C1669 C 0.41631 0.86561 0.40986 0.0
C1670 C 0.41867 0.85273 0.39187 0.0
C1671 C 0.42032 0.86629 0.43879 0.0
C1672 C 0.42682 0.85416 0.4503 0.0
C1673 C 0.42913 0.84126 0.43251 0.0
C1674 C 0.42494 0.84042 0.40368 0.0
C1675 C 0.43111 0.85485 0.48094 0.0
C1676 C 0.45018 0.86023 0.48946 0.0
C1677 C 0.41668 0.85083 0.50168 0.0
C1678 C 0.39605 0.84402 0.49393 0.0
C1679 C 0.38554 0.82733 0.47691 0.0
C1680 C 0.3662 0.82112 0.46937 0.0
C1681 C 0.35713 0.83138 0.47892 0.0
C1682 C 0.36738 0.84784 0.49611 0.0
C1683 C 0.38675 0.85414 0.50367 0.0
H1684 H 0.34215 0.82654 0.47305 0.0
H1685 H 0.5301 0.887 0.5458 0.0
H1686 H 0.57878 0.4465 0.7278 0.0
H1687 H 0.58301 0.45091 0.77887 0.0
H1688 H 0.5507 0.38849 0.79062 0.0
H1689 H 0.54724 0.38375 0.73923 0.0
H1690 H 0.54534 0.42462 0.82716 0.0
H1691 H 0.58477 0.3929 0.80369 0.0
H1692 H 0.60907 0.39085 0.77321 0.0
H1693 H 0.64983 0.45162 0.78807 0.0
H1694 H 0.62561 0.45406 0.81828 0.0
H1695 H 0.56238 0.41897 0.97193 0.0
H1696 H 0.55544 0.41306 0.92189 0.0
H1697 H 0.61432 0.4582 0.90229 0.0
H1698 H 0.62207 0.46285 0.95261 0.0
H1699 H 0.60591 0.43074 0.86838 0.0
H1700 H 0.57131 0.4633 0.89536 0.0
H1701 H 0.54871 0.46972 0.92326 0.0
H1702 H 0.50076 0.41359 0.89977 0.0
H1703 H 0.52313 0.40673 0.87202 0.0
C1704 C 0.57267 0.43363 0.7411 0.0
C1705 C 0.56296 0.41472 0.7292 0.0
C1706 C 0.57496 0.43623 0.77033 0.0
C1707 C 0.56734 0.42004 0.78838 0.0
C1708 C 0.55676 0.40116 0.77691 0.0
C1709 C 0.55469 0.3985 0.74754 0.0
C1710 C 0.57129 0.42304 0.8191 0.0
C1711 C 0.55836 0.42561 0.83644 0.0
C1712 C 0.58874 0.42526 0.8307 0.0
C1713 C 0.60333 0.42371 0.81291 0.0
C1714 C 0.59884 0.40585 0.8002 0.0
C1715 C 0.61261 0.40461 0.78304 0.0
C1716 C 0.63096 0.42111 0.77863 0.0
C1717 C 0.6356 0.43886 0.79146 0.0
C1718 C 0.62187 0.44018 0.8086 0.0
C1719 C 0.57408 0.42747 0.95716 0.0
C1720 C 0.59293 0.44131 0.9667 0.0
C1721 C 0.5699 0.42431 0.92831 0.0
C1722 C 0.58419 0.43541 0.90805 0.0
C1723 C 0.60296 0.44944 0.9174 0.0
C1724 C 0.60731 0.45228 0.94633 0.0
C1725 C 0.5797 0.43195 0.87721 0.0
C1726 C 0.59269 0.42955 0.85955 0.0
C1727 C 0.56245 0.43033 0.86524 0.0
C1728 C 0.54894 0.43444 0.88182 0.0
C1729 C 0.55597 0.45227 0.8963 0.0
C1730 C 0.5432 0.456 0.91206 0.0
C1731 C 0.52332 0.44205 0.91334 0.0
C1732 C 0.51616 0.42437 0.89879 0.0
C1733 C 0.52888 0.42057 0.88302 0.0
H1734 H 0.51345 0.44496 0.92556 0.0
H1735 H 0.6416 0.42012 0.76534 0.0
H1736 H 0.16328 0.54558 0.07338 0.0
H1737 H 0.16108 0.55038 0.12416 0.0
H1738 H 0.1453 0.59419 0.10646 0.0
H1739 H 0.14611 0.5887 0.05591 0.0
H1740 H 0.18077 0.60212 0.14895 0.0
H1741 H 0.11108 0.56153 0.12574 0.0
H1742 H 0.08338 0.53197 0.10511 0.0
H1743 H 0.09555 0.49583 0.15944 0.0
H1744 H 0.12354 0.52522 0.18007 0.0
H1745 H 0.16264 0.62207 0.2877 0.0
H1746 H 0.16039 0.61683 0.23666 0.0
H1747 H 0.14242 0.55606 0.24977 0.0
H1748 H 0.14261 0.56067 0.30045 0.0
H1749 H 0.12405 0.55704 0.20812 0.0
H1750 H 0.19209 0.59432 0.23252 0.0
H1751 H 0.22172 0.62195 0.25321 0.0
H1752 H 0.21599 0.66181 0.19777 0.0
H1753 H 0.18621 0.63444 0.17697 0.0
C1754 C 0.15898 0.55598 0.08018 0.0
C1755 C 0.15505 0.56685 0.0603 0.0
C1756 C 0.15792 0.55882 0.10922 0.0
C1757 C 0.15318 0.57274 0.11888 0.0
C1758 C 0.14917 0.58353 0.0993 0.0
C1759 C 0.14981 0.58043 0.07036 0.0
C1760 C 0.15245 0.57615 0.14948 0.0
C1761 C 0.16832 0.59243 0.16196 0.0
C1762 C 0.13645 0.56316 0.16635 0.0
C1763 C 0.11952 0.54554 0.15418 0.0
C1764 C 0.10797 0.54728 0.13307 0.0
C1765 C 0.09219 0.53056 0.12143 0.0
C1766 C 0.08774 0.51203 0.13089 0.0
C1767 C 0.09903 0.51019 0.15209 0.0
C1768 C 0.11484 0.52687 0.16378 0.0
C1769 C 0.15777 0.60748 0.27979 0.0
C1770 C 0.15322 0.59191 0.29845 0.0
C1771 C 0.15682 0.60457 0.25048 0.0
C1772 C 0.15185 0.58616 0.23917 0.0
C1773 C 0.14652 0.57047 0.25777 0.0
C1774 C 0.14695 0.57323 0.28694 0.0
C1775 C 0.15249 0.58316 0.20814 0.0
C1776 C 0.13659 0.56687 0.19539 0.0
C1777 C 0.16876 0.59592 0.19117 0.0
C1778 C 0.18681 0.61236 0.2034 0.0
C1779 C 0.1971 0.60899 0.22485 0.0
C1780 C 0.21392 0.6246 0.23659 0.0
C1781 C 0.22069 0.64363 0.22688 0.0
C1782 C 0.21071 0.64707 0.2053 0.0
C1783 C 0.19387 0.63151 0.19352 0.0
H1784 H 0.23367 0.65571 0.23603 0.0
H1785 H 0.07552 0.4991 0.12185 0.0
H1786 H 0.59876 0.18016 0.6312 0.0
H1787 H 0.60343 0.17925 0.58053 0.0
H1788 H 0.54347 0.13323 0.57156 0.0
H1789 H 0.53898 0.13323 0.62282 0.0
H1790 H 0.56576 0.12489 0.54064 0.0
H1791 H 0.55968 0.18163 0.55103 0.0
H1792 H 0.56658 0.21334 0.57086 0.0
H1793 H 0.62621 0.23951 0.54308 0.0
H1794 H 0.61975 0.20788 0.52343 0.0
H1795 H 0.5644 0.13519 0.39048 0.0
H1796 H 0.55847 0.13482 0.44134 0.0
H1797 H 0.62003 0.17384 0.45528 0.0
H1798 H 0.62607 0.17431 0.40425 0.0
H1799 H 0.59594 0.18545 0.48295 0.0
H1800 H 0.60086 0.12737 0.47271 0.0
H1801 H 0.59249 0.09554 0.45168 0.0
H1802 H 0.5328 0.07181 0.47794 0.0
H1803 H 0.54076 0.1036 0.49879 0.0
C1804 C 0.58656 0.16967 0.6186 0.0
C1805 C 0.56851 0.15665 0.6313 0.0
C1806 C 0.5892 0.16937 0.58944 0.0
C1807 C 0.57375 0.15635 0.572 0.0
C1808 C 0.55562 0.14346 0.5845 0.0
C1809 C 0.55301 0.14362 0.61382 0.0
C1810 C 0.57678 0.15597 0.54091 0.0
C1811 C 0.57207 0.1381 0.52799 0.0
C1812 C 0.58533 0.17323 0.52432 0.0
C1813 C 0.58926 0.19233 0.53597 0.0
C1814 C 0.5743 0.19411 0.54932 0.0
C1815 C 0.57813 0.21208 0.56051 0.0
C1816 C 0.59683 0.22842 0.55829 0.0
C1817 C 0.61173 0.22684 0.54481 0.0
C1818 C 0.60799 0.2089 0.53361 0.0
C1819 C 0.57669 0.14364 0.40439 0.0
C1820 C 0.59571 0.15479 0.39338 0.0
C1821 C 0.57329 0.14334 0.43346 0.0
C1822 C 0.58881 0.15425 0.45213 0.0
C1823 C 0.60785 0.1653 0.44124 0.0
C1824 C 0.6113 0.16545 0.41215 0.0
C1825 C 0.58506 0.15445 0.48291 0.0
C1826 C 0.58961 0.17227 0.4957 0.0
C1827 C 0.57613 0.13713 0.49926 0.0
C1828 C 0.57137 0.11793 0.48707 0.0
C1829 C 0.58592 0.11541 0.47382 0.0
C1830 C 0.58125 0.09737 0.46196 0.0
C1831 C 0.56211 0.08168 0.4634 0.0
C1832 C 0.54761 0.08398 0.47681 0.0
C1833 C 0.5522 0.10201 0.48868 0.0
H1834 H 0.55852 0.06773 0.45417 0.0
H1835 H 0.59976 0.24231 0.56697 0.0
loop_
_geom_bond_atom_site_label_1
_geom_bond_atom_site_label_2
_geom_bond_distance
_geom_bond_site_symmetry_2
_ccdc_geom_bond_type
C0 C1 1.443 . S
C0 N4 1.376 . S
C0 C38 1.389 . S
C1 C0 1.443 . S
C1 C2 1.340 . S
C1 H41 0.951 . S
C2 C1 1.340 . S
C2 C3 1.439 . S
C2 H42 0.950 . S
C3 C2 1.439 . S
C3 N4 1.374 . S
C3 C37 1.395 . S
N4 C0 1.376 . S
N4 C3 1.374 . S
N4 Co5 2.008 . S
Co5 N4 2.008 . S
Co5 N6 1.995 . S
Co5 N11 2.008 . S
Co5 N16 1.995 . S
Co5 N21 2.282 . S
Co5 N27 2.282 . S
N6 Co5 1.995 . S
N6 C7 1.376 . S
N6 C10 1.383 . S
C7 N6 1.376 . S
C7 C8 1.446 . S
C7 C37 1.391 . S
C8 C7 1.446 . S
C8 C9 1.339 . S
C8 H43 0.949 . S
C9 C8 1.339 . S
C9 C10 1.439 . S
C9 H44 0.950 . S
C10 N6 1.383 . S
C10 C9 1.439 . S
C10 C39 1.392 . S
N11 Co5 2.008 . S
N11 C12 1.376 . S
N11 C15 1.374 . S
C12 N11 1.376 . S
C12 C13 1.443 . S
C12 C39 1.389 . S
C13 C12 1.443 . S
C13 C14 1.340 . S
C13 H45 0.951 . S
C14 C13 1.340 . S
C14 C15 1.439 . S
C14 H46 0.950 . S
C15 N11 1.374 . S
C15 C14 1.439 . S
C15 C40 1.395 . S
N16 Co5 1.995 . S
N16 C17 1.376 . S
N16 C20 1.383 . S
C17 N16 1.376 . S
C17 C18 1.446 . S
C17 C40 1.391 . S
C18 C17 1.446 . S
C18 C19 1.339 . S
C18 H47 0.949 . S
C19 C18 1.339 . S
C19 C20 1.439 . S
C19 H48 0.950 . S
C20 N16 1.383 . S
C20 C19 1.439 . S
C20 C38 1.392 . S
N21 Co5 2.282 . S
N21 C24 1.332 . S
N21 C26 1.332 . S
C22 C23 1.386 . S
C22 C25 1.388 . S
C23 C22 1.386 . S
C23 C24 1.382 . S
C23 H49 0.950 . S
C24 N21 1.332 . S
C24 C23 1.382 . S
C24 H35 0.952 . S
C25 C22 1.388 . S
C25 C26 1.382 . S
C25 H50 0.950 . S
C26 N21 1.332 . S
C26 C25 1.382 . S
C26 H36 0.948 . S
N27 Co5 2.282 . S
N27 C31 1.332 . S
N27 C32 1.332 . S
C28 C29 1.388 . S
C28 C32 1.382 1_556 S
C28 H51 0.950 . S
C29 C28 1.388 . S
C29 C30 1.386 . S
C30 C29 1.386 . S
C30 C31 1.382 1_556 S
C30 H52 0.950 . S
C31 N27 1.332 . S
C31 C30 1.382 1_554 S
C31 H33 0.952 . S
C32 N27 1.332 . S
C32 C28 1.382 1_554 S
C32 H34 0.948 . S
H33 C31 0.952 . S
H34 C32 0.948 . S
H35 C24 0.952 . S
H36 C26 0.948 . S
C37 C3 1.395 . S
C37 C7 1.391 . S
C38 C0 1.389 . S
C38 C20 1.392 . S
C39 C10 1.392 . S
C39 C12 1.389 . S
C40 C15 1.395 . S
C40 C17 1.391 . S
H41 C1 0.951 . S
H42 C2 0.950 . S
H43 C8 0.949 . S
H44 C9 0.950 . S
H45 C13 0.951 . S
H46 C14 0.950 . S
H47 C18 0.949 . S
H48 C19 0.950 . S
H49 C23 0.950 . S
H50 C25 0.950 . S
H51 C28 0.950 . S
H52 C30 0.950 . S
C53 C54 1.443 . S
C53 N57 1.376 . S
C53 C91 1.389 . S
C54 C53 1.443 . S
C54 C55 1.340 . S
C54 H94 0.951 . S
C55 C54 1.340 . S
C55 C56 1.439 . S
C55 H95 0.950 . S
C56 C55 1.439 . S
C56 N57 1.374 . S
C56 C90 1.395 . S
N57 C53 1.376 . S
N57 C56 1.374 . S
N57 Co58 2.008 . S
Co58 N57 2.008 . S
Co58 N59 1.995 . S
Co58 N64 2.008 . S
Co58 N69 1.995 . S
Co58 N74 2.282 . S
Co58 N80 2.282 . S
N59 Co58 1.995 . S
N59 C60 1.376 . S
N59 C63 1.383 . S
C60 N59 1.376 . S
C60 C61 1.446 . S
C60 C90 1.391 . S
C61 C60 1.446 . S
C61 C62 1.339 . S
C61 H96 0.949 . S
C62 C61 1.339 . S
C62 C63 1.439 . S
C62 H97 0.950 . S
C63 N59 1.383 . S
C63 C62 1.439 . S
C63 C92 1.392 . S
N64 Co58 2.008 . S
N64 C65 1.376 . S
N64 C68 1.374 . S
C65 N64 1.376 . S
C65 C66 1.443 . S
C65 C92 1.389 . S
C66 C65 1.443 . S
C66 C67 1.340 . S
C66 H98 0.951 . S
C67 C66 1.340 . S
C67 C68 1.439 . S
C67 H99 0.950 . S
C68 N64 1.374 . S
C68 C67 1.439 . S
C68 C93 1.395 . S
N69 Co58 1.995 . S
N69 C70 1.376 . S
N69 C73 1.383 . S
C70 N69 1.376 . S
C70 C71 1.446 . S
C70 C93 1.391 . S
C71 C70 1.446 . S
C71 C72 1.339 . S
C71 H100 0.949 . S
C72 C71 1.339 . S
C72 C73 1.439 . S
C72 H101 0.950 . S
C73 N69 1.383 . S
C73 C72 1.439 . S
C73 C91 1.392 . S
N74 Co58 2.282 . S
N74 C77 1.332 . S
N74 C79 1.332 . S
C75 C76 1.386 . S
C75 C78 1.388 . S
C76 C75 1.386 . S
C76 C77 1.382 . S
C76 H102 0.950 . S
C77 N74 1.332 . S
C77 C76 1.382 . S
C77 H88 0.952 . S
C78 C75 1.388 . S
C78 C79 1.382 . S
C78 H103 0.950 . S
C79 N74 1.332 . S
C79 C78 1.382 . S
C79 H89 0.948 . S
N80 Co58 2.282 . S
N80 C84 1.332 . S
N80 C85 1.332 . S
C81 C82 1.388 . S
C81 C85 1.382 . S
C81 H104 0.950 . S
C82 C81 1.388 . S
C82 C83 1.386 . S
C83 C82 1.386 . S
C83 C84 1.382 . S
C83 H105 0.950 . S
C84 N80 1.332 . S
C84 C83 1.382 . S
C84 H86 0.952 . S
C85 N80 1.332 . S
C85 C81 1.382 . S
C85 H87 0.948 . S
H86 C84 0.952 . S
H87 C85 0.948 . S
H88 C77 0.952 . S
H89 C79 0.948 . S
C90 C56 1.395 . S
C90 C60 1.391 . S
C91 C53 1.389 . S
C91 C73 1.392 . S
C92 C63 1.392 . S
C92 C65 1.389 . S
C93 C68 1.395 . S
C93 C70 1.391 . S
H94 C54 0.951 . S
H95 C55 0.950 . S
H96 C61 0.949 . S
H97 C62 0.950 . S
H98 C66 0.951 . S
H99 C67 0.950 . S
H100 C71 0.949 . S
H101 C72 0.950 . S
H102 C76 0.950 . S
H103 C78 0.950 . S
H104 C81 0.950 . S
H105 C83 0.950 . S
C106 C107 1.443 . S
C106 N110 1.376 . S
C106 C144 1.389 . S
C107 C106 1.443 . S
C107 C108 1.340 . S
C107 H147 0.951 . S
C108 C107 1.340 . S
C108 C109 1.439 . S
C108 H148 0.950 . S
C109 C108 1.439 . S
C109 N110 1.374 . S
C109 C143 1.395 . S
N110 C106 1.376 . S
N110 C109 1.374 . S
N110 Co111 2.008 . S
Co111 N110 2.008 . S
Co111 N112 1.995 . S
Co111 N117 2.008 . S
Co111 N122 1.995 . S
Co111 N127 2.282 . S
Co111 N133 2.282 . S
N112 Co111 1.995 . S
N112 C113 1.376 . S
N112 C116 1.383 . S
C113 N112 1.376 . S
C113 C114 1.446 . S
C113 C143 1.391 . S
C114 C113 1.446 . S
C114 C115 1.339 . S
C114 H149 0.949 . S
C115 C114 1.339 . S
C115 C116 1.439 . S
C115 H150 0.950 . S
C116 N112 1.383 . S
C116 C115 1.439 . S
C116 C145 1.392 . S
N117 Co111 2.008 . S
N117 C118 1.376 . S
N117 C121 1.374 . S
C118 N117 1.376 . S
C118 C119 1.443 . S
C118 C145 1.389 . S
C119 C118 1.443 . S
C119 C120 1.340 . S
C119 H151 0.951 . S
C120 C119 1.340 . S
C120 C121 1.439 . S
C120 H152 0.950 . S
C121 N117 1.374 . S
C121 C120 1.439 . S
C121 C146 1.395 . S
N122 Co111 1.995 . S
N122 C123 1.376 . S
N122 C126 1.383 . S
C123 N122 1.376 . S
C123 C124 1.446 . S
C123 C146 1.391 . S
C124 C123 1.446 . S
C124 C125 1.339 . S
C124 H153 0.949 . S
C125 C124 1.339 . S
C125 C126 1.439 . S
C125 H154 0.950 . S
C126 N122 1.383 . S
C126 C125 1.439 . S
C126 C144 1.392 . S
N127 Co111 2.282 . S
N127 C130 1.332 . S
N127 C132 1.332 . S
C128 C129 1.386 . S
C128 C131 1.388 . S
C129 C128 1.386 . S
C129 C130 1.382 . S
C129 H155 0.950 . S
C130 N127 1.332 . S
C130 C129 1.382 . S
C130 H141 0.952 . S
C131 C128 1.388 . S
C131 C132 1.382 . S
C131 H156 0.950 . S
C132 N127 1.332 . S
C132 C131 1.382 . S
C132 H142 0.948 . S
N133 Co111 2.282 . S
N133 C137 1.332 . S
N133 C138 1.332 . S
C134 C135 1.388 . S
C134 C138 1.382 . S
C134 H157 0.950 . S
C135 C134 1.388 . S
C135 C136 1.386 . S
C136 C135 1.386 . S
C136 C137 1.382 . S
C136 H158 0.950 . S
C137 N133 1.332 . S
C137 C136 1.382 . S
C137 H139 0.952 . S
C138 N133 1.332 . S
C138 C134 1.382 . S
C138 H140 0.948 . S
H139 C137 0.952 . S
H140 C138 0.948 . S
H141 C130 0.952 . S
H142 C132 0.948 . S
C143 C109 1.395 . S
C143 C113 1.391 . S
C144 C106 1.389 . S
C144 C126 1.392 . S
C145 C116 1.392 . S
C145 C118 1.389 . S
C146 C121 1.395 . S
C146 C123 1.391 . S
H147 C107 0.951 . S
H148 C108 0.950 . S
H149 C114 0.949 . S
H150 C115 0.950 . S
H151 C119 0.951 . S
H152 C120 0.950 . S
H153 C124 0.949 . S
H154 C125 0.950 . S
H155 C129 0.950 . S
H156 C131 0.950 . S
H157 C134 0.950 . S
H158 C136 0.950 . S
C159 C160 1.443 . S
C159 N163 1.376 . S
C159 C197 1.389 . S
C160 C159 1.443 . S
C160 C161 1.340 . S
C160 H200 0.951 . S
C161 C160 1.340 . S
C161 C162 1.439 . S
C161 H201 0.950 . S
C162 C161 1.439 . S
C162 N163 1.374 . S
C162 C196 1.395 . S
N163 C159 1.376 . S
N163 C162 1.374 . S
N163 Co164 2.008 . S
Co164 N163 2.008 . S
Co164 N165 1.995 . S
Co164 N170 2.008 . S
Co164 N175 1.995 . S
Co164 N180 2.282 . S
Co164 N186 2.282 . S
N165 Co164 1.995 . S
N165 C166 1.376 . S
N165 C169 1.383 . S
C166 N165 1.376 . S
C166 C167 1.446 . S
C166 C196 1.391 . S
C167 C166 1.446 . S
C167 C168 1.339 . S
C167 H202 0.949 . S
C168 C167 1.339 . S
C168 C169 1.439 . S
C168 H203 0.950 . S
C169 N165 1.383 . S
C169 C168 1.439 . S
C169 C198 1.392 . S
N170 Co164 2.008 . S
N170 C171 1.376 . S
N170 C174 1.374 . S
C171 N170 1.376 . S
C171 C172 1.443 . S
C171 C198 1.389 . S
C172 C171 1.443 . S
C172 C173 1.340 . S
C172 H204 0.951 . S
C173 C172 1.340 . S
C173 C174 1.439 . S
C173 H205 0.950 . S
C174 N170 1.374 . S
C174 C173 1.439 . S
C174 C199 1.395 . S
N175 Co164 1.995 . S
N175 C176 1.376 . S
N175 C179 1.383 . S
C176 N175 1.376 . S
C176 C177 1.446 . S
C176 C199 1.391 . S
C177 C176 1.446 . S
C177 C178 1.339 . S
C177 H206 0.949 . S
C178 C177 1.339 . S
C178 C179 1.439 . S
C178 H207 0.950 . S
C179 N175 1.383 . S
C179 C178 1.439 . S
C179 C197 1.392 . S
N180 Co164 2.282 . S
N180 C183 1.332 . S
N180 C185 1.332 . S
C181 C182 1.386 . S
C181 C184 1.388 . S
C182 C181 1.386 . S
C182 C183 1.382 . S
C182 H208 0.950 . S
C183 N180 1.332 . S
C183 C182 1.382 . S
C183 H194 0.952 . S
C184 C181 1.388 . S
C184 C185 1.382 . S
C184 H209 0.950 . S
C185 N180 1.332 . S
C185 C184 1.382 . S
C185 H195 0.948 . S
N186 Co164 2.282 . S
N186 C190 1.332 . S
N186 C191 1.332 . S
C187 C188 1.388 . S
C187 C191 1.382 1_556 S
C187 H210 0.950 . S
C188 C187 1.388 . S
C188 C189 1.386 . S
C189 C188 1.386 . S
C189 C190 1.382 1_556 S
C189 H211 0.950 . S
C190 N186 1.332 . S
C190 C189 1.382 1_554 S
C190 H192 0.952 . S
C191 N186 1.332 . S
C191 C187 1.382 1_554 S
C191 H193 0.948 . S
H192 C190 0.952 . S
H193 C191 0.948 . S
H194 C183 0.952 . S
H195 C185 0.948 . S
C196 C162 1.395 . S
C196 C166 1.391 . S
C197 C159 1.389 . S
C197 C179 1.392 . S
C198 C169 1.392 . S
C198 C171 1.389 . S
C199 C174 1.395 . S
C199 C176 1.391 . S
H200 C160 0.951 . S
H201 C161 0.950 . S
H202 C167 0.949 . S
H203 C168 0.950 . S
H204 C172 0.951 . S
H205 C173 0.950 . S
H206 C177 0.949 . S
H207 C178 0.950 . S
H208 C182 0.950 . S
H209 C184 0.950 . S
H210 C187 0.950 . S
H211 C189 0.950 . S
C212 C213 1.443 . S
C212 N216 1.376 . S
C212 C250 1.389 . S
C213 C212 1.443 . S
C213 C214 1.340 . S
C213 H253 0.951 . S
C214 C213 1.340 . S
C214 C215 1.439 . S
C214 H254 0.950 . S
C215 C214 1.439 . S
C215 N216 1.374 . S
C215 C249 1.395 . S
N216 C212 1.376 . S
N216 C215 1.374 . S
N216 Co217 2.008 . S
Co217 N216 2.008 . S
Co217 N218 1.995 . S
Co217 N223 2.008 . S
Co217 N228 1.995 . S
Co217 N233 2.282 . S
Co217 N239 2.282 . S
N218 Co217 1.995 . S
N218 C219 1.376 . S
N218 C222 1.383 . S
C219 N218 1.376 . S
C219 C220 1.446 . S
C219 C249 1.391 . S
C220 C219 1.446 . S
C220 C221 1.339 . S
C220 H255 0.949 . S
C221 C220 1.339 . S
C221 C222 1.439 . S
C221 H256 0.950 . S
C222 N218 1.383 . S
C222 C221 1.439 . S
C222 C251 1.392 . S
N223 Co217 2.008 . S
N223 C224 1.376 . S
N223 C227 1.374 . S
C224 N223 1.376 . S
C224 C225 1.443 . S
C224 C251 1.389 . S
C225 C224 1.443 . S
C225 C226 1.340 . S
C225 H257 0.951 . S
C226 C225 1.340 . S
C226 C227 1.439 . S
C226 H258 0.950 . S
C227 N223 1.374 . S
C227 C226 1.439 . S
C227 C252 1.395 . S
N228 Co217 1.995 . S
N228 C229 1.376 . S
N228 C232 1.383 . S
C229 N228 1.376 . S
C229 C230 1.446 . S
C229 C252 1.391 . S
C230 C229 1.446 . S
C230 C231 1.339 . S
C230 H259 0.949 . S
C231 C230 1.339 . S
C231 C232 1.439 . S
C231 H260 0.950 . S
C232 N228 1.383 . S
C232 C231 1.439 . S
C232 C250 1.392 . S
N233 Co217 2.282 . S
N233 C236 1.332 . S
N233 C238 1.332 . S
C234 C235 1.386 . S
C234 C237 1.388 . S
C235 C234 1.386 . S
C235 C236 1.382 . S
C235 H261 0.950 . S
C236 N233 1.332 . S
C236 C235 1.382 . S
C236 H247 0.952 . S
C237 C234 1.388 . S
C237 C238 1.382 . S
C237 H262 0.950 . S
C238 N233 1.332 . S
C238 C237 1.382 . S
C238 H248 0.948 . S
N239 Co217 2.282 . S
N239 C243 1.332 . S
N239 C244 1.332 . S
C240 C241 1.388 . S
C240 C244 1.382 . S
C240 H263 0.950 . S
C241 C240 1.388 . S
C241 C242 1.386 . S
C242 C241 1.386 . S
C242 C243 1.382 . S
C242 H264 0.950 . S
C243 N239 1.332 . S
C243 C242 1.382 . S
C243 H245 0.952 . S
C244 N239 1.332 . S
C244 C240 1.382 . S
C244 H246 0.948 . S
H245 C243 0.952 . S
H246 C244 0.948 . S
H247 C236 0.952 . S
H248 C238 0.948 . S
C249 C215 1.395 . S
C249 C219 1.391 . S
C250 C212 1.389 . S
C250 C232 1.392 . S
C251 C222 1.392 . S
C251 C224 1.389 . S
C252 C227 1.395 . S
C252 C229 1.391 . S
H253 C213 0.951 . S
H254 C214 0.950 . S
H255 C220 0.949 . S
H256 C221 0.950 . S
H257 C225 0.951 . S
H258 C226 0.950 . S
H259 C230 0.949 . S
H260 C231 0.950 . S
H261 C235 0.950 . S
H262 C237 0.950 . S
H263 C240 0.950 . S
H264 C242 0.950 . S
C265 C266 1.443 . S
C265 N269 1.376 . S
C265 C303 1.389 . S
C266 C265 1.443 . S
C266 C267 1.340 . S
C266 H306 0.951 . S
C267 C266 1.340 . S
C267 C268 1.439 . S
C267 H307 0.950 . S
C268 C267 1.439 . S
C268 N269 1.374 . S
C268 C302 1.395 . S
N269 C265 1.376 . S
N269 C268 1.374 . S
N269 Co270 2.008 . S
Co270 N269 2.008 . S
Co270 N271 1.995 . S
Co270 N276 2.008 . S
Co270 N281 1.995 . S
Co270 N286 2.282 . S
Co270 N292 2.282 . S
N271 Co270 1.995 . S
N271 C272 1.376 . S
N271 C275 1.383 . S
C272 N271 1.376 . S
C272 C273 1.446 . S
C272 C302 1.391 . S
C273 C272 1.446 . S
C273 C274 1.339 . S
C273 H308 0.949 . S
C274 C273 1.339 . S
C274 C275 1.439 . S
C274 H309 0.950 . S
C275 N271 1.383 . S
C275 C274 1.439 . S
C275 C304 1.392 . S
N276 Co270 2.008 . S
N276 C277 1.376 . S
N276 C280 1.374 . S
C277 N276 1.376 . S
C277 C278 1.443 . S
C277 C304 1.389 . S
C278 C277 1.443 . S
C278 C279 1.340 . S
C278 H310 0.951 . S
C279 C278 1.340 . S
C279 C280 1.439 . S
C279 H311 0.950 . S
C280 N276 1.374 . S
C280 C279 1.439 . S
C280 C305 1.395 . S
N281 Co270 1.995 . S
N281 C282 1.376 . S
N281 C285 1.383 . S
C282 N281 1.376 . S
C282 C283 1.446 . S
C282 C305 1.391 . S
C283 C282 1.446 . S
C283 C284 1.339 . S
C283 H312 0.949 . S
C284 C283 1.339 . S
C284 C285 1.439 . S
C284 H313 0.950 . S
C285 N281 1.383 . S
C285 C284 1.439 . S
C285 C303 1.392 . S
N286 Co270 2.282 . S
N286 C289 1.332 . S
N286 C291 1.332 . S
C287 C288 1.386 . S
C287 C290 1.388 . S
C288 C287 1.386 . S
C288 C289 1.382 . S
C288 H314 0.950 . S
C289 N286 1.332 . S
C289 C288 1.382 . S
C289 H300 0.952 . S
C290 C287 1.388 . S
C290 C291 1.382 . S
C290 H315 0.950 . S
C291 N286 1.332 . S
C291 C290 1.382 . S
C291 H301 0.948 . S
N292 Co270 2.282 . S
N292 C296 1.332 . S
N292 C297 1.332 . S
C293 C294 1.388 . S
C293 C297 1.382 . S
C293 H316 0.950 . S
C294 C293 1.388 . S
C294 C295 1.386 . S
C295 C294 1.386 . S
C295 C296 1.382 . S
C295 H317 0.950 . S
C296 N292 1.332 . S
C296 C295 1.382 . S
C296 H298 0.952 . S
C297 N292 1.332 . S
C297 C293 1.382 . S
C297 H299 0.948 . S
H298 C296 0.952 . S
H299 C297 0.948 . S
H300 C289 0.952 . S
H301 C291 0.948 . S
C302 C268 1.395 . S
C302 C272 1.391 . S
C303 C265 1.389 . S
C303 C285 1.392 . S
C304 C275 1.392 . S
C304 C277 1.389 . S
C305 C280 1.395 . S
C305 C282 1.391 . S
H306 C266 0.951 . S
H307 C267 0.950 . S
H308 C273 0.949 . S
H309 C274 0.950 . S
H310 C278 0.951 . S
H311 C279 0.950 . S
H312 C283 0.949 . S
H313 C284 0.950 . S
H314 C288 0.950 . S
H315 C290 0.950 . S
H316 C293 0.950 . S
H317 C295 0.950 . S
C318 C319 1.443 . S
C318 N322 1.376 . S
C318 C356 1.389 . S
C319 C318 1.443 . S
C319 C320 1.340 . S
C319 H359 0.951 . S
C320 C319 1.340 . S
C320 C321 1.439 . S
C320 H360 0.950 . S
C321 C320 1.439 . S
C321 N322 1.374 . S
C321 C355 1.395 . S
N322 C318 1.376 . S
N322 C321 1.374 . S
N322 Co323 2.008 . S
Co323 N322 2.008 . S
Co323 N324 1.995 . S
Co323 N329 2.008 . S
Co323 N334 1.995 . S
Co323 N339 2.282 . S
Co323 N345 2.282 . S
N324 Co323 1.995 . S
N324 C325 1.376 . S
N324 C328 1.383 . S
C325 N324 1.376 . S
C325 C326 1.446 . S
C325 C355 1.391 . S
C326 C325 1.446 . S
C326 C327 1.339 . S
C326 H361 0.949 . S
C327 C326 1.339 . S
C327 C328 1.439 . S
C327 H362 0.950 . S
C328 N324 1.383 . S
C328 C327 1.439 . S
C328 C357 1.392 . S
N329 Co323 2.008 . S
N329 C330 1.376 . S
N329 C333 1.374 . S
C330 N329 1.376 . S
C330 C331 1.443 . S
C330 C357 1.389 . S
C331 C330 1.443 . S
C331 C332 1.340 . S
C331 H363 0.951 . S
C332 C331 1.340 . S
C332 C333 1.439 . S
C332 H364 0.950 . S
C333 N329 1.374 . S
C333 C332 1.439 . S
C333 C358 1.395 . S
N334 Co323 1.995 . S
N334 C335 1.376 . S
N334 C338 1.383 . S
C335 N334 1.376 . S
C335 C336 1.446 . S
C335 C358 1.391 . S
C336 C335 1.446 . S
C336 C337 1.339 . S
C336 H365 0.949 . S
C337 C336 1.339 . S
C337 C338 1.439 . S
C337 H366 0.950 . S
C338 N334 1.383 . S
C338 C337 1.439 . S
C338 C356 1.392 . S
N339 Co323 2.282 . S
N339 C342 1.332 . S
N339 C344 1.332 . S
C340 C341 1.386 . S
C340 C343 1.388 . S
C341 C340 1.386 . S
C341 C342 1.382 . S
C341 H367 0.950 . S
C342 N339 1.332 . S
C342 C341 1.382 . S
C342 H353 0.952 . S
C343 C340 1.388 . S
C343 C344 1.382 . S
C343 H368 0.950 . S
C344 N339 1.332 . S
C344 C343 1.382 . S
C344 H354 0.948 . S
N345 Co323 2.282 . S
N345 C349 1.332 . S
N345 C350 1.332 . S
C346 C347 1.388 . S
C346 C350 1.382 . S
C346 H369 0.950 . S
C347 C346 1.388 . S
C347 C348 1.386 . S
C348 C347 1.386 . S
C348 C349 1.382 . S
C348 H370 0.950 . S
C349 N345 1.332 . S
C349 C348 1.382 . S
C349 H351 0.952 . S
C350 N345 1.332 . S
C350 C346 1.382 . S
C350 H352 0.948 . S
H351 C349 0.952 . S
H352 C350 0.948 . S
H353 C342 0.952 . S
H354 C344 0.948 . S
C355 C321 1.395 . S
C355 C325 1.391 . S
C356 C318 1.389 . S
C356 C338 1.392 . S
C357 C328 1.392 . S
C357 C330 1.389 . S
C358 C333 1.395 . S
C358 C335 1.391 . S
H359 C319 0.951 . S
H360 C320 0.950 . S
H361 C326 0.949 . S
H362 C327 0.950 . S
H363 C331 0.951 . S
H364 C332 0.950 . S
H365 C336 0.949 . S
H366 C337 0.950 . S
H367 C341 0.950 . S
H368 C343 0.950 . S
H369 C346 0.950 . S
H370 C348 0.950 . S
C371 C372 1.443 . S
C371 N375 1.376 . S
C371 C409 1.389 . S
C372 C371 1.443 . S
C372 C373 1.340 . S
C372 H412 0.951 . S
C373 C372 1.340 . S
C373 C374 1.439 . S
C373 H413 0.950 . S
C374 C373 1.439 . S
C374 N375 1.374 . S
C374 C408 1.395 . S
N375 C371 1.376 . S
N375 C374 1.374 . S
N375 Co376 2.008 . S
Co376 N375 2.008 . S
Co376 N377 1.995 . S
Co376 N382 2.008 . S
Co376 N387 1.995 . S
Co376 N392 2.282 . S
Co376 N398 2.282 . S
N377 Co376 1.995 . S
N377 C378 1.376 . S
N377 C381 1.383 . S
C378 N377 1.376 . S
C378 C379 1.446 . S
C378 C408 1.391 . S
C379 C378 1.446 . S
C379 C380 1.339 . S
C379 H414 0.949 . S
C380 C379 1.339 . S
C380 C381 1.439 . S
C380 H415 0.950 . S
C381 N377 1.383 . S
C381 C380 1.439 . S
C381 C410 1.392 . S
N382 Co376 2.008 . S
N382 C383 1.376 . S
N382 C386 1.374 . S
C383 N382 1.376 . S
C383 C384 1.443 . S
C383 C410 1.389 . S
C384 C383 1.443 . S
C384 C385 1.340 . S
C384 H416 0.951 . S
C385 C384 1.340 . S
C385 C386 1.439 . S
C385 H417 0.950 . S
C386 N382 1.374 . S
C386 C385 1.439 . S
C386 C411 1.395 . S
N387 Co376 1.995 . S
N387 C388 1.376 . S
N387 C391 1.383 . S
C388 N387 1.376 . S
C388 C389 1.446 . S
C388 C411 1.391 . S
C389 C388 1.446 . S
C389 C390 1.339 . S
C389 H418 0.949 . S
C390 C389 1.339 . S
C390 C391 1.439 . S
C390 H419 0.950 . S
C391 N387 1.383 . S
C391 C390 1.439 . S
C391 C409 1.392 . S
N392 Co376 2.282 . S
N392 C395 1.332 . S
N392 C397 1.332 . S
C393 C394 1.386 . S
C393 C396 1.388 . S
C394 C393 1.386 . S
C394 C395 1.382 . S
C394 H420 0.950 . S
C395 N392 1.332 . S
C395 C394 1.382 . S
C395 H406 0.952 . S
C396 C393 1.388 . S
C396 C397 1.382 . S
C396 H421 0.950 . S
C397 N392 1.332 . S
C397 C396 1.382 . S
C397 H407 0.948 . S
N398 Co376 2.282 . S
N398 C402 1.332 . S
N398 C403 1.332 . S
C399 C400 1.388 . S
C399 C403 1.382 1_554 S
C399 H422 0.950 . S
C400 C399 1.388 . S
C400 C401 1.386 . S
C401 C400 1.386 . S
C401 C402 1.382 1_554 S
C401 H423 0.950 . S
C402 N398 1.332 . S
C402 C401 1.382 1_556 S
C402 H404 0.952 . S
C403 N398 1.332 . S
C403 C399 1.382 1_556 S
C403 H405 0.948 . S
H404 C402 0.952 . S
H405 C403 0.948 . S
H406 C395 0.952 . S
H407 C397 0.948 . S
C408 C374 1.395 . S
C408 C378 1.391 . S
C409 C371 1.389 . S
C409 C391 1.392 . S
C410 C381 1.392 . S
C410 C383 1.389 . S
C411 C386 1.395 . S
C411 C388 1.391 . S
H412 C372 0.951 . S
H413 C373 0.950 . S
H414 C379 0.949 . S
H415 C380 0.950 . S
H416 C384 0.951 . S
H417 C385 0.950 . S
H418 C389 0.949 . S
H419 C390 0.950 . S
H420 C394 0.950 . S
H421 C396 0.950 . S
H422 C399 0.950 . S
H423 C401 0.950 . S
C424 C425 1.443 . S
C424 N428 1.376 . S
C424 C462 1.389 . S
C425 C424 1.443 . S
C425 C426 1.340 . S
C425 H465 0.951 . S
C426 C425 1.340 . S
C426 C427 1.439 . S
C426 H466 0.950 . S
C427 C426 1.439 . S
C427 N428 1.374 . S
C427 C461 1.395 . S
N428 C424 1.376 . S
N428 C427 1.374 . S
N428 Co429 2.008 . S
Co429 N428 2.008 . S
Co429 N430 1.995 . S
Co429 N435 2.008 . S
Co429 N440 1.995 . S
Co429 N445 2.282 . S
Co429 N451 2.282 . S
N430 Co429 1.995 . S
N430 C431 1.376 . S
N430 C434 1.383 . S
C431 N430 1.376 . S
C431 C432 1.446 . S
C431 C461 1.391 . S
C432 C431 1.446 . S
C432 C433 1.339 . S
C432 H467 0.949 . S
C433 C432 1.339 . S
C433 C434 1.439 . S
C433 H468 0.950 . S
C434 N430 1.383 . S
C434 C433 1.439 . S
C434 C463 1.392 . S
N435 Co429 2.008 . S
N435 C436 1.376 . S
N435 C439 1.374 . S
C436 N435 1.376 . S
C436 C437 1.443 . S
C436 C463 1.389 . S
C437 C436 1.443 . S
C437 C438 1.340 . S
C437 H469 0.951 . S
C438 C437 1.340 . S
C438 C439 1.439 . S
C438 H470 0.950 . S
C439 N435 1.374 . S
C439 C438 1.439 . S
C439 C464 1.395 . S
N440 Co429 1.995 . S
N440 C441 1.376 . S
N440 C444 1.383 . S
C441 N440 1.376 . S
C441 C442 1.446 . S
C441 C464 1.391 . S
C442 C441 1.446 . S
C442 C443 1.339 . S
C442 H471 0.949 . S
C443 C442 1.339 . S
C443 C444 1.439 . S
C443 H472 0.950 . S
C444 N440 1.383 . S
C444 C443 1.439 . S
C444 C462 1.392 . S
N445 Co429 2.282 . S
N445 C448 1.332 . S
N445 C450 1.332 . S
C446 C447 1.386 . S
C446 C449 1.388 . S
C447 C446 1.386 . S
C447 C448 1.382 . S
C447 H473 0.950 . S
C448 N445 1.332 . S
C448 C447 1.382 . S
C448 H459 0.952 . S
C449 C446 1.388 . S
C449 C450 1.382 . S
C449 H474 0.950 . S
C450 N445 1.332 . S
C450 C449 1.382 . S
C450 H460 0.948 . S
N451 Co429 2.282 . S
N451 C455 1.332 . S
N451 C456 1.332 . S
C452 C453 1.388 . S
C452 C456 1.382 . S
C452 H475 0.950 . S
C453 C452 1.388 . S
C453 C454 1.386 . S
C454 C453 1.386 . S
C454 C455 1.382 . S
C454 H476 0.950 . S
C455 N451 1.332 . S
C455 C454 1.382 . S
C455 H457 0.952 . S
C456 N451 1.332 . S
C456 C452 1.382 . S
C456 H458 0.948 . S
H457 C455 0.952 . S
H458 C456 0.948 . S
H459 C448 0.952 . S
H460 C450 0.948 . S
C461 C427 1.395 . S
C461 C431 1.391 . S
C462 C424 1.389 . S
C462 C444 1.392 . S
C463 C434 1.392 . S
C463 C436 1.389 . S
C464 C439 1.395 . S
C464 C441 1.391 . S
H465 C425 0.951 . S
H466 C426 0.950 . S
H467 C432 0.949 . S
H468 C433 0.950 . S
H469 C437 0.951 . S
H470 C438 0.950 . S
H471 C442 0.949 . S
H472 C443 0.950 . S
H473 C447 0.950 . S
H474 C449 0.950 . S
H475 C452 0.950 . S
H476 C454 0.950 . S
C477 C478 1.443 . S
C477 N481 1.376 . S
C477 C515 1.389 . S
C478 C477 1.443 . S
C478 C479 1.340 . S
C478 H518 0.951 . S
C479 C478 1.340 . S
C479 C480 1.439 . S
C479 H519 0.950 . S
C480 C479 1.439 . S
C480 N481 1.374 . S
C480 C514 1.395 . S
N481 C477 1.376 . S
N481 C480 1.374 . S
N481 Co482 2.008 . S
Co482 N481 2.008 . S
Co482 N483 1.995 . S
Co482 N488 2.008 . S
Co482 N493 1.995 . S
Co482 N498 2.282 . S
Co482 N504 2.282 . S
N483 Co482 1.995 . S
N483 C484 1.376 . S
N483 C487 1.383 . S
C484 N483 1.376 . S
C484 C485 1.446 . S
C484 C514 1.391 . S
C485 C484 1.446 . S
C485 C486 1.339 . S
C485 H520 0.949 . S
C486 C485 1.339 . S
C486 C487 1.439 . S
C486 H521 0.950 . S
C487 N483 1.383 . S
C487 C486 1.439 . S
C487 C516 1.392 . S
N488 Co482 2.008 . S
N488 C489 1.376 . S
N488 C492 1.374 . S
C489 N488 1.376 . S
C489 C490 1.443 . S
C489 C516 1.389 . S
C490 C489 1.443 . S
C490 C491 1.340 . S
C490 H522 0.951 . S
C491 C490 1.340 . S
C491 C492 1.439 . S
C491 H523 0.950 . S
C492 N488 1.374 . S
C492 C491 1.439 . S
C492 C517 1.395 . S
N493 Co482 1.995 . S
N493 C494 1.376 . S
N493 C497 1.383 . S
C494 N493 1.376 . S
C494 C495 1.446 . S
C494 C517 1.391 . S
C495 C494 1.446 . S
C495 C496 1.339 . S
C495 H524 0.949 . S
C496 C495 1.339 . S
C496 C497 1.439 . S
C496 H525 0.950 . S
C497 N493 1.383 . S
C497 C496 1.439 . S
C497 C515 1.392 . S
N498 Co482 2.282 . S
N498 C501 1.332 . S
N498 C503 1.332 . S
C499 C500 1.386 . S
C499 C502 1.388 . S
C500 C499 1.386 . S
C500 C501 1.382 . S
C500 H526 0.950 . S
C501 N498 1.332 . S
C501 C500 1.382 . S
C501 H512 0.952 . S
C502 C499 1.388 . S
C502 C503 1.382 . S
C502 H527 0.950 . S
C503 N498 1.332 . S
C503 C502 1.382 . S
C503 H513 0.948 . S
N504 Co482 2.282 . S
N504 C508 1.332 . S
N504 C509 1.332 . S
C505 C506 1.388 . S
C505 C509 1.382 . S
C505 H528 0.950 . S
C506 C505 1.388 . S
C506 C507 1.386 . S
C507 C506 1.386 . S
C507 C508 1.382 . S
C507 H529 0.950 . S
C508 N504 1.332 . S
C508 C507 1.382 . S
C508 H510 0.952 . S
C509 N504 1.332 . S
C509 C505 1.382 . S
C509 H511 0.948 . S
H510 C508 0.952 . S
H511 C509 0.948 . S
H512 C501 0.952 . S
H513 C503 0.948 . S
C514 C480 1.395 . S
C514 C484 1.391 . S
C515 C477 1.389 . S
C515 C497 1.392 . S
C516 C487 1.392 . S
C516 C489 1.389 . S
C517 C492 1.395 . S
C517 C494 1.391 . S
H518 C478 0.951 . S
H519 C479 0.950 . S
H520 C485 0.949 . S
H521 C486 0.950 . S
H522 C490 0.951 . S
H523 C491 0.950 . S
H524 C495 0.949 . S
H525 C496 0.950 . S
H526 C500 0.950 . S
H527 C502 0.950 . S
H528 C505 0.950 . S
H529 C507 0.950 . S
C530 C531 1.443 . S
C530 N534 1.376 . S
C530 C568 1.389 . S
C531 C530 1.443 . S
C531 C532 1.340 . S
C531 H571 0.951 . S
C532 C531 1.340 . S
C532 C533 1.439 . S
C532 H572 0.950 . S
C533 C532 1.439 . S
C533 N534 1.374 . S
C533 C567 1.395 . S
N534 C530 1.376 . S
N534 C533 1.374 . S
N534 Co535 2.008 . S
Co535 N534 2.008 . S
Co535 N536 1.995 . S
Co535 N541 2.008 . S
Co535 N546 1.995 . S
Co535 N551 2.282 . S
Co535 N557 2.282 . S
N536 Co535 1.995 . S
N536 C537 1.376 . S
N536 C540 1.383 . S
C537 N536 1.376 . S
C537 C538 1.446 . S
C537 C567 1.391 . S
C538 C537 1.446 . S
C538 C539 1.339 . S
C538 H573 0.949 . S
C539 C538 1.339 . S
C539 C540 1.439 . S
C539 H574 0.950 . S
C540 N536 1.383 . S
C540 C539 1.439 . S
C540 C569 1.392 . S
N541 Co535 2.008 . S
N541 C542 1.376 . S
N541 C545 1.374 . S
C542 N541 1.376 . S
C542 C543 1.443 . S
C542 C569 1.389 . S
C543 C542 1.443 . S
C543 C544 1.340 . S
C543 H575 0.951 . S
C544 C543 1.340 . S
C544 C545 1.439 . S
C544 H576 0.950 . S
C545 N541 1.374 . S
C545 C544 1.439 . S
C545 C570 1.395 . S
N546 Co535 1.995 . S
N546 C547 1.376 . S
N546 C550 1.383 . S
C547 N546 1.376 . S
C547 C548 1.446 . S
C547 C570 1.391 . S
C548 C547 1.446 . S
C548 C549 1.339 . S
C548 H577 0.949 . S
C549 C548 1.339 . S
C549 C550 1.439 . S
C549 H578 0.950 . S
C550 N546 1.383 . S
C550 C549 1.439 . S
C550 C568 1.392 . S
N551 Co535 2.282 . S
N551 C554 1.332 . S
N551 C556 1.332 . S
C552 C553 1.386 . S
C552 C555 1.388 . S
C553 C552 1.386 . S
C553 C554 1.382 . S
C553 H579 0.950 . S
C554 N551 1.332 . S
C554 C553 1.382 . S
C554 H565 0.952 . S
C555 C552 1.388 . S
C555 C556 1.382 . S
C555 H580 0.950 . S
C556 N551 1.332 . S
C556 C555 1.382 . S
C556 H566 0.948 . S
N557 Co535 2.282 . S
N557 C561 1.332 . S
N557 C562 1.332 . S
C558 C559 1.388 . S
C558 C562 1.382 1_554 S
C558 H581 0.950 . S
C559 C558 1.388 . S
C559 C560 1.386 . S
C560 C559 1.386 . S
C560 C561 1.382 1_554 S
C560 H582 0.950 . S
C561 N557 1.332 . S
C561 C560 1.382 1_556 S
C561 H563 0.952 . S
C562 N557 1.332 . S
C562 C558 1.382 1_556 S
C562 H564 0.948 . S
H563 C561 0.952 . S
H564 C562 0.948 . S
H565 C554 0.952 . S
H566 C556 0.948 . S
C567 C533 1.395 . S
C567 C537 1.391 . S
C568 C530 1.389 . S
C568 C550 1.392 . S
C569 C540 1.392 . S
C569 C542 1.389 . S
C570 C545 1.395 . S
C570 C547 1.391 . S
H571 C531 0.951 . S
H572 C532 0.950 . S
H573 C538 0.949 . S
H574 C539 0.950 . S
H575 C543 0.951 . S
H576 C544 0.950 . S
H577 C548 0.949 . S
H578 C549 0.950 . S
H579 C553 0.950 . S
H580 C555 0.950 . S
H581 C558 0.950 . S
H582 C560 0.950 . S
C583 C584 1.443 . S
C583 N587 1.376 . S
C583 C621 1.389 . S
C584 C583 1.443 . S
C584 C585 1.340 . S
C584 H624 0.951 . S
C585 C584 1.340 . S
C585 C586 1.439 . S
C585 H625 0.950 . S
C586 C585 1.439 . S
C586 N587 1.374 . S
C586 C620 1.395 . S
N587 C583 1.376 . S
N587 C586 1.374 . S
N587 Co588 2.008 . S
Co588 N587 2.008 . S
Co588 N589 1.995 . S
Co588 N594 2.008 . S
Co588 N599 1.995 . S
Co588 N604 2.282 . S
Co588 N610 2.282 . S
N589 Co588 1.995 . S
N589 C590 1.376 . S
N589 C593 1.383 . S
C590 N589 1.376 . S
C590 C591 1.446 . S
C590 C620 1.391 . S
C591 C590 1.446 . S
C591 C592 1.339 . S
C591 H626 0.949 . S
C592 C591 1.339 . S
C592 C593 1.439 . S
C592 H627 0.950 . S
C593 N589 1.383 . S
C593 C592 1.439 . S
C593 C622 1.392 . S
N594 Co588 2.008 . S
N594 C595 1.376 . S
N594 C598 1.374 . S
C595 N594 1.376 . S
C595 C596 1.443 . S
C595 C622 1.389 . S
C596 C595 1.443 . S
C596 C597 1.340 . S
C596 H628 0.951 . S
C597 C596 1.340 . S
C597 C598 1.439 . S
C597 H629 0.950 . S
C598 N594 1.374 . S
C598 C597 1.439 . S
C598 C623 1.395 . S
N599 Co588 1.995 . S
N599 C600 1.376 . S
N599 C603 1.383 . S
C600 N599 1.376 . S
C600 C601 1.446 . S
C600 C623 1.391 . S
C601 C600 1.446 . S
C601 C602 1.339 . S
C601 H630 0.949 . S
C602 C601 1.339 . S
C602 C603 1.439 . S
C602 H631 0.950 . S
C603 N599 1.383 . S
C603 C602 1.439 . S
C603 C621 1.392 . S
N604 Co588 2.282 . S
N604 C607 1.332 . S
N604 C609 1.332 . S
C605 C606 1.386 . S
C605 C608 1.388 . S
C606 C605 1.386 . S
C606 C607 1.382 . S
C606 H632 0.950 . S
C607 N604 1.332 . S
C607 C606 1.382 . S
C607 H618 0.952 . S
C608 C605 1.388 . S
C608 C609 1.382 . S
C608 H633 0.950 . S
C609 N604 1.332 . S
C609 C608 1.382 . S
C609 H619 0.948 . S
N610 Co588 2.282 . S
N610 C614 1.332 . S
N610 C615 1.332 . S
C611 C612 1.388 . S
C611 C615 1.382 . S
C611 H634 0.950 . S
C612 C611 1.388 . S
C612 C613 1.386 . S
C613 C612 1.386 . S
C613 C614 1.382 . S
C613 H635 0.950 . S
C614 N610 1.332 . S
C614 C613 1.382 . S
C614 H616 0.952 . S
C615 N610 1.332 . S
C615 C611 1.382 . S
C615 H617 0.948 . S
H616 C614 0.952 . S
H617 C615 0.948 . S
H618 C607 0.952 . S
H619 C609 0.948 . S
C620 C586 1.395 . S
C620 C590 1.391 . S
C621 C583 1.389 . S
C621 C603 1.392 . S
C622 C593 1.392 . S
C622 C595 1.389 . S
C623 C598 1.395 . S
C623 C600 1.391 . S
H624 C584 0.951 . S
H625 C585 0.950 . S
H626 C591 0.949 . S
H627 C592 0.950 . S
H628 C596 0.951 . S
H629 C597 0.950 . S
H630 C601 0.949 . S
H631 C602 0.950 . S
H632 C606 0.950 . S
H633 C608 0.950 . S
H634 C611 0.950 . S
H635 C613 0.950 . S
H636 C654 0.951 . S
H637 C656 0.951 . S
H638 C658 0.950 . S
H639 C659 0.950 . S
H640 C661 0.950 . S
H641 C664 0.950 . S
H642 C665 0.950 . S
H643 C667 0.950 . S
H644 C668 0.950 . S
H645 C669 0.951 . S
H646 C671 0.951 . S
H647 C673 0.950 . S
H648 C674 0.950 . S
H649 C676 0.950 . S
H650 C679 0.950 . S
H651 C680 0.950 . S
H652 C682 0.950 . S
H653 C683 0.950 . S
C654 H636 0.951 . S
C654 C655 1.366 . S
C654 C656 1.388 . S
C655 C654 1.366 . S
C655 C659 1.385 . S
C656 H637 0.951 . S
C656 C654 1.388 . S
C656 C657 1.366 . S
C657 C656 1.366 . S
C657 C658 1.414 . S
C657 C660 1.499 . S
C658 H638 0.950 . S
C658 C657 1.414 . S
C658 C659 1.374 . S
C659 H639 0.950 . S
C659 C655 1.385 . S
C659 C658 1.374 . S
C660 C657 1.499 . S
C660 C661 1.373 . S
C660 C662 1.389 . S
C661 H640 0.950 . S
C661 C660 1.373 . S
C661 C677 1.377 . S
C662 C660 1.389 . S
C662 C663 1.524 . S
C662 C676 1.377 . S
C663 C662 1.524 . S
C663 C664 1.397 . S
C663 C668 1.363 . S
C664 H641 0.950 . S
C664 C663 1.397 . S
C664 C665 1.334 . S
C665 H642 0.950 . S
C665 C664 1.334 . S
C665 C666 1.287 . S
C666 C665 1.287 . S
C666 C667 1.524 . S
C666 H685 0.913 . S
C667 H643 0.950 . S
C667 C666 1.524 . S
C667 C668 1.415 . S
C668 H644 0.950 . S
C668 C663 1.363 . S
C668 C667 1.415 . S
C669 H645 0.951 . S
C669 C670 1.366 . S
C669 C671 1.388 . S
C670 C669 1.366 . S
C670 C674 1.385 . S
C671 H646 0.951 . S
C671 C669 1.388 . S
C671 C672 1.366 . S
C672 C671 1.366 . S
C672 C673 1.414 . S
C672 C675 1.499 . S
C673 H647 0.950 . S
C673 C672 1.414 . S
C673 C674 1.374 . S
C674 H648 0.950 . S
C674 C670 1.385 . S
C674 C673 1.374 . S
C675 C672 1.499 . S
C675 C676 1.373 . S
C675 C677 1.389 . S
C676 H649 0.950 . S
C676 C662 1.377 . S
C676 C675 1.373 . S
C677 C661 1.377 . S
C677 C675 1.389 . S
C677 C678 1.524 . S
C678 C677 1.524 . S
C678 C679 1.397 . S
C678 C683 1.363 . S
C679 H650 0.950 . S
C679 C678 1.397 . S
C679 C680 1.334 . S
C680 H651 0.950 . S
C680 C679 1.334 . S
C680 C681 1.287 . S
C681 C680 1.287 . S
C681 C682 1.524 . S
C681 H684 0.999 . S
C682 H652 0.950 . S
C682 C681 1.524 . S
C682 C683 1.415 . S
C683 H653 0.950 . S
C683 C678 1.363 . S
C683 C682 1.415 . S
H684 C681 0.999 . S
H685 C666 0.913 . S
H686 C704 0.951 . S
H687 C706 0.951 . S
H688 C708 0.950 . S
H689 C709 0.950 . S
H690 C711 0.950 . S
H691 C714 0.950 . S
H692 C715 0.950 . S
H693 C717 0.950 . S
H694 C718 0.950 . S
H695 C719 0.951 . S
H696 C721 0.951 . S
H697 C723 0.950 . S
H698 C724 0.950 . S
H699 C726 0.950 . S
H700 C729 0.950 . S
H701 C730 0.950 . S
H702 C732 0.950 . S
H703 C733 0.950 . S
C704 H686 0.951 . S
C704 C705 1.366 . S
C704 C706 1.388 . S
C705 C704 1.366 . S
C705 C709 1.385 . S
C706 H687 0.951 . S
C706 C704 1.388 . S
C706 C707 1.366 . S
C707 C706 1.366 . S
C707 C708 1.414 . S
C707 C710 1.499 . S
C708 H688 0.950 . S
C708 C707 1.414 . S
C708 C709 1.374 . S
C709 H689 0.950 . S
C709 C705 1.385 . S
C709 C708 1.374 . S
C710 C707 1.499 . S
C710 C711 1.373 . S
C710 C712 1.389 . S
C711 H690 0.950 . S
C711 C710 1.373 . S
C711 C727 1.377 . S
C712 C710 1.389 . S
C712 C713 1.524 . S
C712 C726 1.377 . S
C713 C712 1.524 . S
C713 C714 1.397 . S
C713 C718 1.363 . S
C714 H691 0.950 . S
C714 C713 1.397 . S
C714 C715 1.334 . S
C715 H692 0.950 . S
C715 C714 1.334 . S
C715 C716 1.287 . S
C716 C715 1.287 . S
C716 C717 1.524 . S
C716 H735 0.913 . S
C717 H693 0.950 . S
C717 C716 1.524 . S
C717 C718 1.415 . S
C718 H694 0.950 . S
C718 C713 1.363 . S
C718 C717 1.415 . S
C719 H695 0.951 . S
C719 C720 1.366 . S
C719 C721 1.388 . S
C720 C719 1.366 . S
C720 C724 1.385 . S
C721 H696 0.951 . S
C721 C719 1.388 . S
C721 C722 1.366 . S
C722 C721 1.366 . S
C722 C723 1.414 . S
C722 C725 1.499 . S
C723 H697 0.950 . S
C723 C722 1.414 . S
C723 C724 1.374 . S
C724 H698 0.950 . S
C724 C720 1.385 . S
C724 C723 1.374 . S
C725 C722 1.499 . S
C725 C726 1.373 . S
C725 C727 1.389 . S
C726 H699 0.950 . S
C726 C712 1.377 . S
C726 C725 1.373 . S
C727 C711 1.377 . S
C727 C725 1.389 . S
C727 C728 1.524 . S
C728 C727 1.524 . S
C728 C729 1.397 . S
C728 C733 1.363 . S
C729 H700 0.950 . S
C729 C728 1.397 . S
C729 C730 1.334 . S
C730 H701 0.950 . S
C730 C729 1.334 . S
C730 C731 1.287 . S
C731 C730 1.287 . S
C731 C732 1.524 . S
C731 H734 0.999 . S
C732 H702 0.950 . S
C732 C731 1.524 . S
C732 C733 1.415 . S
C733 H703 0.950 . S
C733 C728 1.363 . S
C733 C732 1.415 . S
H734 C731 0.999 . S
H735 C716 0.913 . S
H736 C754 0.951 . S
H737 C756 0.951 . S
H738 C758 0.950 . S
H739 C759 0.950 . S
H740 C761 0.950 . S
H741 C764 0.950 . S
H742 C765 0.950 . S
H743 C767 0.950 . S
H744 C768 0.950 . S
H745 C769 0.951 . S
H746 C771 0.951 . S
H747 C773 0.950 . S
H748 C774 0.950 . S
H749 C776 0.950 . S
H750 C779 0.950 . S
H751 C780 0.950 . S
H752 C782 0.950 . S
H753 C783 0.950 . S
C754 H736 0.951 . S
C754 C755 1.366 . S
C754 C756 1.388 . S
C755 C754 1.366 . S
C755 C759 1.385 . S
C756 H737 0.951 . S
C756 C754 1.388 . S
C756 C757 1.366 . S
C757 C756 1.366 . S
C757 C758 1.414 . S
C757 C760 1.499 . S
C758 H738 0.950 . S
C758 C757 1.414 . S
C758 C759 1.374 . S
C759 H739 0.950 . S
C759 C755 1.385 . S
C759 C758 1.374 . S
C760 C757 1.499 . S
C760 C761 1.373 . S
C760 C762 1.389 . S
C761 H740 0.950 . S
C761 C760 1.373 . S
C761 C777 1.377 1_556 S
C762 C760 1.389 . S
C762 C763 1.524 . S
C762 C776 1.377 1_556 S
C763 C762 1.524 . S
C763 C764 1.397 . S
C763 C768 1.363 . S
C764 H741 0.950 . S
C764 C763 1.397 . S
C764 C765 1.334 . S
C765 H742 0.950 . S
C765 C764 1.334 . S
C765 C766 1.287 . S
C766 C765 1.287 . S
C766 C767 1.524 . S
C766 H785 0.913 . S
C767 H743 0.950 . S
C767 C766 1.524 . S
C767 C768 1.415 . S
C768 H744 0.950 . S
C768 C763 1.363 . S
C768 C767 1.415 . S
C769 H745 0.951 . S
C769 C770 1.366 . S
C769 C771 1.388 . S
C770 C769 1.366 . S
C770 C774 1.385 . S
C771 H746 0.951 . S
C771 C769 1.388 . S
C771 C772 1.366 . S
C772 C771 1.366 . S
C772 C773 1.414 . S
C772 C775 1.499 . S
C773 H747 0.950 . S
C773 C772 1.414 . S
C773 C774 1.374 . S
C774 H748 0.950 . S
C774 C770 1.385 . S
C774 C773 1.374 . S
C775 C772 1.499 . S
C775 C776 1.373 . S
C775 C777 1.389 . S
C776 H749 0.950 . S
C776 C762 1.377 1_554 S
C776 C775 1.373 . S
C777 C761 1.377 1_554 S
C777 C775 1.389 . S
C777 C778 1.524 . S
C778 C777 1.524 . S
C778 C779 1.397 . S
C778 C783 1.363 . S
C779 H750 0.950 . S
C779 C778 1.397 . S
C779 C780 1.334 . S
C780 H751 0.950 . S
C780 C779 1.334 . S
C780 C781 1.287 . S
C781 C780 1.287 . S
C781 C782 1.524 . S
C781 H784 0.999 . S
C782 H752 0.950 . S
C782 C781 1.524 . S
C782 C783 1.415 . S
C783 H753 0.950 . S
C783 C778 1.363 . S
C783 C782 1.415 . S
H784 C781 0.999 . S
H785 C766 0.913 . S
H786 C804 0.951 . S
H787 C806 0.951 . S
H788 C808 0.950 . S
H789 C809 0.950 . S
H790 C811 0.950 . S
H791 C814 0.950 . S
H792 C815 0.950 . S
H793 C817 0.950 . S
H794 C818 0.950 . S
H795 C819 0.951 . S
H796 C821 0.951 . S
H797 C823 0.950 . S
H798 C824 0.950 . S
H799 C826 0.950 . S
H800 C829 0.950 . S
H801 C830 0.950 . S
H802 C832 0.950 . S
H803 C833 0.950 . S
C804 H786 0.951 . S
C804 C805 1.366 . S
C804 C806 1.388 . S
C805 C804 1.366 . S
C805 C809 1.385 . S
C806 H787 0.951 . S
C806 C804 1.388 . S
C806 C807 1.366 . S
C807 C806 1.366 . S
C807 C808 1.414 . S
C807 C810 1.499 . S
C808 H788 0.950 . S
C808 C807 1.414 . S
C808 C809 1.374 . S
C809 H789 0.950 . S
C809 C805 1.385 . S
C809 C808 1.374 . S
C810 C807 1.499 . S
C810 C811 1.373 . S
C810 C812 1.389 . S
C811 H790 0.950 . S
C811 C810 1.373 . S
C811 C827 1.377 . S
C812 C810 1.389 . S
C812 C813 1.524 . S
C812 C826 1.377 . S
C813 C812 1.524 . S
C813 C814 1.397 . S
C813 C818 1.363 . S
C814 H791 0.950 . S
C814 C813 1.397 . S
C814 C815 1.334 . S
C815 H792 0.950 . S
C815 C814 1.334 . S
C815 C816 1.287 . S
C816 C815 1.287 . S
C816 C817 1.524 . S
C816 H835 0.913 . S
C817 H793 0.950 . S
C817 C816 1.524 . S
C817 C818 1.415 . S
C818 H794 0.950 . S
C818 C813 1.363 . S
C818 C817 1.415 . S
C819 H795 0.951 . S
C819 C820 1.366 . S
C819 C821 1.388 . S
C820 C819 1.366 . S
C820 C824 1.385 . S
C821 H796 0.951 . S
C821 C819 1.388 . S
C821 C822 1.366 . S
C822 C821 1.366 . S
C822 C823 1.414 . S
C822 C825 1.499 . S
C823 H797 0.950 . S
C823 C822 1.414 . S
C823 C824 1.374 . S
C824 H798 0.950 . S
C824 C820 1.385 . S
C824 C823 1.374 . S
C825 C822 1.499 . S
C825 C826 1.373 . S
C825 C827 1.389 . S
C826 H799 0.950 . S
C826 C812 1.377 . S
C826 C825 1.373 . S
C827 C811 1.377 . S
C827 C825 1.389 . S
C827 C828 1.524 . S
C828 C827 1.524 . S
C828 C829 1.397 . S
C828 C833 1.363 . S
C829 H800 0.950 . S
C829 C828 1.397 . S
C829 C830 1.334 . S
C830 H801 0.950 . S
C830 C829 1.334 . S
C830 C831 1.287 . S
C831 C830 1.287 . S
C831 C832 1.524 . S
C831 H834 0.999 . S
C832 H802 0.950 . S
C832 C831 1.524 . S
C832 C833 1.415 . S
C833 H803 0.950 . S
C833 C828 1.363 . S
C833 C832 1.415 . S
H834 C831 0.999 . S
H835 C816 0.913 . S
H836 C854 0.951 . S
H837 C856 0.951 . S
H838 C858 0.950 . S
H839 C859 0.950 . S
H840 C861 0.950 . S
H841 C864 0.950 . S
H842 C865 0.950 . S
H843 C867 0.950 . S
H844 C868 0.950 . S
H845 C869 0.951 . S
H846 C871 0.951 . S
H847 C873 0.950 . S
H848 C874 0.950 . S
H849 C876 0.950 . S
H850 C879 0.950 . S
H851 C880 0.950 . S
H852 C882 0.950 . S
H853 C883 0.950 . S
C854 H836 0.951 . S
C854 C855 1.366 . S
C854 C856 1.388 . S
C855 C854 1.366 . S
C855 C859 1.385 . S
C856 H837 0.951 . S
C856 C854 1.388 . S
C856 C857 1.366 . S
C857 C856 1.366 . S
C857 C858 1.414 . S
C857 C860 1.499 . S
C858 H838 0.950 . S
C858 C857 1.414 . S
C858 C859 1.374 . S
C859 H839 0.950 . S
C859 C855 1.385 . S
C859 C858 1.374 . S
C860 C857 1.499 . S
C860 C861 1.373 . S
C860 C862 1.389 . S
C861 H840 0.950 . S
C861 C860 1.373 . S
C861 C877 1.377 . S
C862 C860 1.389 . S
C862 C863 1.524 . S
C862 C876 1.377 . S
C863 C862 1.524 . S
C863 C864 1.397 . S
C863 C868 1.363 . S
C864 H841 0.950 . S
C864 C863 1.397 . S
C864 C865 1.334 . S
C865 H842 0.950 . S
C865 C864 1.334 . S
C865 C866 1.287 . S
C866 C865 1.287 . S
C866 C867 1.524 . S
C866 H885 0.913 . S
C867 H843 0.950 . S
C867 C866 1.524 . S
C867 C868 1.415 . S
C868 H844 0.950 . S
C868 C863 1.363 . S
C868 C867 1.415 . S
C869 H845 0.951 . S
C869 C870 1.366 . S
C869 C871 1.388 . S
C870 C869 1.366 . S
C870 C874 1.385 . S
C871 H846 0.951 . S
C871 C869 1.388 . S
C871 C872 1.366 . S
C872 C871 1.366 . S
C872 C873 1.414 . S
C872 C875 1.499 . S
C873 H847 0.950 . S
C873 C872 1.414 . S
C873 C874 1.374 . S
C874 H848 0.950 . S
C874 C870 1.385 . S
C874 C873 1.374 . S
C875 C872 1.499 . S
C875 C876 1.373 . S
C875 C877 1.389 . S
C876 H849 0.950 . S
C876 C862 1.377 . S
C876 C875 1.373 . S
C877 C861 1.377 . S
C877 C875 1.389 . S
C877 C878 1.524 . S
C878 C877 1.524 . S
C878 C879 1.397 . S
C878 C883 1.363 . S
C879 H850 0.950 . S
C879 C878 1.397 . S
C879 C880 1.334 . S
C880 H851 0.950 . S
C880 C879 1.334 . S
C880 C881 1.287 . S
C881 C880 1.287 . S
C881 C882 1.524 . S
C881 H884 0.999 . S
C882 H852 0.950 . S
C882 C881 1.524 . S
C882 C883 1.415 . S
C883 H853 0.950 . S
C883 C878 1.363 . S
C883 C882 1.415 . S
H884 C881 0.999 . S
H885 C866 0.913 . S
H886 C904 0.951 . S
H887 C906 0.951 . S
H888 C908 0.950 . S
H889 C909 0.950 . S
H890 C911 0.950 . S
H891 C914 0.950 . S
H892 C915 0.950 . S
H893 C917 0.950 . S
H894 C918 0.950 1_556 S
H895 C919 0.951 . S
H896 C921 0.951 . S
H897 C923 0.950 . S
H898 C924 0.950 . S
H899 C926 0.950 . S
H900 C929 0.950 . S
H901 C930 0.950 . S
H902 C932 0.950 . S
H903 C933 0.950 1_554 S
C904 H886 0.951 . S
C904 C905 1.366 . S
C904 C906 1.388 . S
C905 C904 1.366 . S
C905 C909 1.385 . S
C906 H887 0.951 . S
C906 C904 1.388 . S
C906 C907 1.366 . S
C907 C906 1.366 . S
C907 C908 1.414 . S
C907 C910 1.499 . S
C908 H888 0.950 . S
C908 C907 1.414 . S
C908 C909 1.374 . S
C909 H889 0.950 . S
C909 C905 1.385 . S
C909 C908 1.374 . S
C910 C907 1.499 . S
C910 C911 1.373 . S
C910 C912 1.389 . S
C911 H890 0.950 . S
C911 C910 1.373 . S
C911 C927 1.377 1_554 S
C912 C910 1.389 . S
C912 C913 1.524 . S
C912 C926 1.377 1_554 S
C913 C912 1.524 . S
C913 C914 1.397 . S
C913 C918 1.363 . S
C914 H891 0.950 . S
C914 C913 1.397 . S
C914 C915 1.334 . S
C915 H892 0.950 . S
C915 C914 1.334 . S
C915 C916 1.287 . S
C916 C915 1.287 . S
C916 C917 1.524 . S
C916 H935 0.913 . S
C917 H893 0.950 . S
C917 C916 1.524 . S
C917 C918 1.415 . S
C918 H894 0.950 1_554 S
C918 C913 1.363 . S
C918 C917 1.415 . S
C919 H895 0.951 . S
C919 C920 1.366 . S
C919 C921 1.388 . S
C920 C919 1.366 . S
C920 C924 1.385 . S
C921 H896 0.951 . S
C921 C919 1.388 . S
C921 C922 1.366 . S
C922 C921 1.366 . S
C922 C923 1.414 . S
C922 C925 1.499 . S
C923 H897 0.950 . S
C923 C922 1.414 . S
C923 C924 1.374 . S
C924 H898 0.950 . S
C924 C920 1.385 . S
C924 C923 1.374 . S
C925 C922 1.499 . S
C925 C926 1.373 . S
C925 C927 1.389 . S
C926 H899 0.950 . S
C926 C912 1.377 1_556 S
C926 C925 1.373 . S
C927 C911 1.377 1_556 S
C927 C925 1.389 . S
C927 C928 1.524 . S
C928 C927 1.524 . S
C928 C929 1.397 . S
C928 C933 1.363 . S
C929 H900 0.950 . S
C929 C928 1.397 . S
C929 C930 1.334 . S
C930 H901 0.950 . S
C930 C929 1.334 . S
C930 C931 1.287 . S
C931 C930 1.287 . S
C931 C932 1.524 . S
C931 H934 0.999 . S
C932 H902 0.950 . S
C932 C931 1.524 . S
C932 C933 1.415 . S
C933 H903 0.950 1_556 S
C933 C928 1.363 . S
C933 C932 1.415 . S
H934 C931 0.999 . S
H935 C916 0.913 . S
H936 C954 0.951 . S
H937 C956 0.951 1_556 S
H938 C958 0.950 . S
H939 C959 0.950 . S
H940 C961 0.950 . S
H941 C964 0.950 1_554 S
H942 C965 0.944 1_554 S
H943 C967 0.950 . S
H944 C968 0.950 . S
H945 C969 0.951 . S
H946 C971 0.951 1_554 S
H947 C973 0.950 . S
H948 C974 0.950 . S
H949 C976 0.950 . S
H950 C979 0.950 1_556 S
H951 C980 0.944 1_556 S
H952 C982 0.950 . S
H953 C983 0.950 . S
C954 H936 0.951 . S
C954 C955 1.366 . S
C954 C956 1.388 . S
C955 C954 1.366 . S
C955 C959 1.385 . S
C956 H937 0.951 1_554 S
C956 C954 1.388 . S
C956 C957 1.366 . S
C957 C956 1.366 . S
C957 C958 1.414 . S
C957 C960 1.499 . S
C958 H938 0.950 . S
C958 C957 1.414 . S
C958 C959 1.374 . S
C959 H939 0.950 . S
C959 C955 1.385 . S
C959 C958 1.374 . S
C960 C957 1.499 . S
C960 C961 1.373 . S
C960 C962 1.389 1_554 S
C961 H940 0.950 . S
C961 C960 1.373 . S
C961 C977 1.377 . S
C962 C960 1.389 1_556 S
C962 C963 1.524 . S
C962 C976 1.377 . S
C963 C962 1.524 . S
C963 C964 1.397 . S
C963 C968 1.363 . S
C964 H941 0.950 1_556 S
C964 C963 1.397 . S
C964 C965 1.334 . S
C965 H942 0.944 1_556 S
C965 C964 1.334 . S
C965 C966 1.287 . S
C966 C965 1.287 . S
C966 C967 1.524 . S
C966 H985 0.913 . S
C967 H943 0.950 . S
C967 C966 1.524 . S
C967 C968 1.415 . S
C968 H944 0.950 . S
C968 C963 1.363 . S
C968 C967 1.415 . S
C969 H945 0.951 . S
C969 C970 1.366 . S
C969 C971 1.388 . S
C970 C969 1.366 . S
C970 C974 1.385 . S
C971 H946 0.951 1_556 S
C971 C969 1.388 . S
C971 C972 1.366 . S
C972 C971 1.366 . S
C972 C973 1.414 . S
C972 C975 1.499 . S
C973 H947 0.950 . S
C973 C972 1.414 . S
C973 C974 1.374 . S
C974 H948 0.950 . S
C974 C970 1.385 . S
C974 C973 1.374 . S
C975 C972 1.499 . S
C975 C976 1.373 . S
C975 C977 1.389 1_556 S
C976 H949 0.950 . S
C976 C962 1.377 . S
C976 C975 1.373 . S
C977 C961 1.377 . S
C977 C975 1.389 1_554 S
C977 C978 1.524 . S
C978 C977 1.524 . S
C978 C979 1.397 . S
C978 C983 1.363 . S
C979 H950 0.950 1_554 S
C979 C978 1.397 . S
C979 C980 1.334 . S
C980 H951 0.944 1_554 S
C980 C979 1.334 . S
C980 C981 1.287 . S
C981 C980 1.287 . S
C981 C982 1.524 . S
C981 H984 0.999 . S
C982 H952 0.950 . S
C982 C981 1.524 . S
C982 C983 1.415 . S
C983 H953 0.950 . S
C983 C978 1.363 . S
C983 C982 1.415 . S
H984 C981 0.999 . S
H985 C966 0.913 . S
H986 C1004 0.951 . S
H987 C1006 0.951 . S
H988 C1008 0.950 . S
H989 C1009 0.950 . S
H990 C1011 0.950 . S
H991 C1014 0.950 . S
H992 C1015 0.950 . S
H993 C1017 0.950 . S
H994 C1018 0.950 . S
H995 C1019 0.951 . S
H996 C1021 0.951 . S
H997 C1023 0.950 . S
H998 C1024 0.950 . S
H999 C1026 0.950 . S
H1000 C1029 0.950 . S
H1001 C1030 0.950 . S
H1002 C1032 0.950 . S
H1003 C1033 0.950 . S
C1004 H986 0.951 . S
C1004 C1005 1.366 . S
C1004 C1006 1.388 . S
C1005 C1004 1.366 . S
C1005 C1009 1.385 . S
C1006 H987 0.951 . S
C1006 C1004 1.388 . S
C1006 C1007 1.366 . S
C1007 C1006 1.366 . S
C1007 C1008 1.414 . S
C1007 C1010 1.499 . S
C1008 H988 0.950 . S
C1008 C1007 1.414 . S
C1008 C1009 1.374 . S
C1009 H989 0.950 . S
C1009 C1005 1.385 . S
C1009 C1008 1.374 . S
C1010 C1007 1.499 . S
C1010 C1011 1.373 . S
C1010 C1012 1.389 . S
C1011 H990 0.950 . S
C1011 C1010 1.373 . S
C1011 C1027 1.377 . S
C1012 C1010 1.389 . S
C1012 C1013 1.524 . S
C1012 C1026 1.377 . S
C1013 C1012 1.524 . S
C1013 C1014 1.397 . S
C1013 C1018 1.363 . S
C1014 H991 0.950 . S
C1014 C1013 1.397 . S
C1014 C1015 1.334 . S
C1015 H992 0.950 . S
C1015 C1014 1.334 . S
C1015 C1016 1.287 . S
C1016 C1015 1.287 . S
C1016 C1017 1.524 . S
C1016 H1035 0.913 . S
C1017 H993 0.950 . S
C1017 C1016 1.524 . S
C1017 C1018 1.415 . S
C1018 H994 0.950 . S
C1018 C1013 1.363 . S
C1018 C1017 1.415 . S
C1019 H995 0.951 . S
C1019 C1020 1.366 . S
C1019 C1021 1.388 . S
C1020 C1019 1.366 . S
C1020 C1024 1.385 . S
C1021 H996 0.951 . S
C1021 C1019 1.388 . S
C1021 C1022 1.366 . S
C1022 C1021 1.366 . S
C1022 C1023 1.414 . S
C1022 C1025 1.499 . S
C1023 H997 0.950 . S
C1023 C1022 1.414 . S
C1023 C1024 1.374 . S
C1024 H998 0.950 . S
C1024 C1020 1.385 . S
C1024 C1023 1.374 . S
C1025 C1022 1.499 . S
C1025 C1026 1.373 . S
C1025 C1027 1.389 . S
C1026 H999 0.950 . S
C1026 C1012 1.377 . S
C1026 C1025 1.373 . S
C1027 C1011 1.377 . S
C1027 C1025 1.389 . S
C1027 C1028 1.524 . S
C1028 C1027 1.524 . S
C1028 C1029 1.397 . S
C1028 C1033 1.363 . S
C1029 H1000 0.950 . S
C1029 C1028 1.397 . S
C1029 C1030 1.334 . S
C1030 H1001 0.950 . S
C1030 C1029 1.334 . S
C1030 C1031 1.287 . S
C1031 C1030 1.287 . S
C1031 C1032 1.524 . S
C1031 H1034 0.999 . S
C1032 H1002 0.950 . S
C1032 C1031 1.524 . S
C1032 C1033 1.415 . S
C1033 H1003 0.950 . S
C1033 C1028 1.363 . S
C1033 C1032 1.415 . S
H1034 C1031 0.999 . S
H1035 C1016 0.913 . S
H1036 C1054 0.951 . S
H1037 C1056 0.951 . S
H1038 C1058 0.950 . S
H1039 C1059 0.950 . S
H1040 C1061 0.950 . S
H1041 C1064 0.950 . S
H1042 C1065 0.950 . S
H1043 C1067 0.950 . S
H1044 C1068 0.950 . S
H1045 C1069 0.951 . S
H1046 C1071 0.951 . S
H1047 C1073 0.950 . S
H1048 C1074 0.950 . S
H1049 C1076 0.950 . S
H1050 C1079 0.950 . S
H1051 C1080 0.950 . S
H1052 C1082 0.950 . S
H1053 C1083 0.950 . S
C1054 H1036 0.951 . S
C1054 C1055 1.366 . S
C1054 C1056 1.388 . S
C1055 C1054 1.366 . S
C1055 C1059 1.385 . S
C1056 H1037 0.951 . S
C1056 C1054 1.388 . S
C1056 C1057 1.366 . S
C1057 C1056 1.366 . S
C1057 C1058 1.414 . S
C1057 C1060 1.499 . S
C1058 H1038 0.950 . S
C1058 C1057 1.414 . S
C1058 C1059 1.374 . S
C1059 H1039 0.950 . S
C1059 C1055 1.385 . S
C1059 C1058 1.374 . S
C1060 C1057 1.499 . S
C1060 C1061 1.373 . S
C1060 C1062 1.389 . S
C1061 H1040 0.950 . S
C1061 C1060 1.373 . S
C1061 C1077 1.377 . S
C1062 C1060 1.389 . S
C1062 C1063 1.524 . S
C1062 C1076 1.377 . S
C1063 C1062 1.524 . S
C1063 C1064 1.397 . S
C1063 C1068 1.363 . S
C1064 H1041 0.950 . S
C1064 C1063 1.397 . S
C1064 C1065 1.334 . S
C1065 H1042 0.950 . S
C1065 C1064 1.334 . S
C1065 C1066 1.287 . S
C1066 C1065 1.287 . S
C1066 C1067 1.524 . S
C1066 H1085 0.913 . S
C1067 H1043 0.950 . S
C1067 C1066 1.524 . S
C1067 C1068 1.415 . S
C1068 H1044 0.950 . S
C1068 C1063 1.363 . S
C1068 C1067 1.415 . S
C1069 H1045 0.951 . S
C1069 C1070 1.366 . S
C1069 C1071 1.388 . S
C1070 C1069 1.366 . S
C1070 C1074 1.385 . S
C1071 H1046 0.951 . S
C1071 C1069 1.388 . S
C1071 C1072 1.366 . S
C1072 C1071 1.366 . S
C1072 C1073 1.414 . S
C1072 C1075 1.499 . S
C1073 H1047 0.950 . S
C1073 C1072 1.414 . S
C1073 C1074 1.374 . S
C1074 H1048 0.950 . S
C1074 C1070 1.385 . S
C1074 C1073 1.374 . S
C1075 C1072 1.499 . S
C1075 C1076 1.373 . S
C1075 C1077 1.389 . S
C1076 H1049 0.950 . S
C1076 C1062 1.377 . S
C1076 C1075 1.373 . S
C1077 C1061 1.377 . S
C1077 C1075 1.389 . S
C1077 C1078 1.524 . S
C1078 C1077 1.524 . S
C1078 C1079 1.397 . S
C1078 C1083 1.363 . S
C1079 H1050 0.950 . S
C1079 C1078 1.397 . S
C1079 C1080 1.334 . S
C1080 H1051 0.950 . S
C1080 C1079 1.334 . S
C1080 C1081 1.287 . S
C1081 C1080 1.287 . S
C1081 C1082 1.524 . S
C1081 H1084 0.999 . S
C1082 H1052 0.950 . S
C1082 C1081 1.524 . S
C1082 C1083 1.415 . S
C1083 H1053 0.950 . S
C1083 C1078 1.363 . S
C1083 C1082 1.415 . S
H1084 C1081 0.999 . S
H1085 C1066 0.913 . S
H1086 C1104 0.951 . S
H1087 C1106 0.951 1_556 S
H1088 C1108 0.950 . S
H1089 C1109 0.950 . S
H1090 C1111 0.950 . S
H1091 C1114 0.950 . S
H1092 C1115 0.950 . S
H1093 C1117 0.950 . S
H1094 C1118 0.950 . S
H1095 C1119 0.951 . S
H1096 C1121 0.951 1_554 S
H1097 C1123 0.950 . S
H1098 C1124 0.950 . S
H1099 C1126 0.950 . S
H1100 C1129 0.950 . S
H1101 C1130 0.950 . S
H1102 C1132 0.950 . S
H1103 C1133 0.950 . S
C1104 H1086 0.951 . S
C1104 C1105 1.366 . S
C1104 C1106 1.388 . S
C1105 C1104 1.366 . S
C1105 C1109 1.385 . S
C1106 H1087 0.951 1_554 S
C1106 C1104 1.388 . S
C1106 C1107 1.366 . S
C1107 C1106 1.366 . S
C1107 C1108 1.414 . S
C1107 C1110 1.499 . S
C1108 H1088 0.950 . S
C1108 C1107 1.414 . S
C1108 C1109 1.374 . S
C1109 H1089 0.950 . S
C1109 C1105 1.385 . S
C1109 C1108 1.374 . S
C1110 C1107 1.499 . S
C1110 C1111 1.373 . S
C1110 C1112 1.389 1_554 S
C1111 H1090 0.950 . S
C1111 C1110 1.373 . S
C1111 C1127 1.377 . S
C1112 C1110 1.389 1_556 S
C1112 C1113 1.524 . S
C1112 C1126 1.377 . S
C1113 C1112 1.524 . S
C1113 C1114 1.397 1_556 S
C1113 C1118 1.363 . S
C1114 H1091 0.950 . S
C1114 C1113 1.397 1_554 S
C1114 C1115 1.334 . S
C1115 H1092 0.950 . S
C1115 C1114 1.334 . S
C1115 C1116 1.287 1_554 S
C1116 C1115 1.287 1_556 S
C1116 C1117 1.524 . S
C1116 H1135 0.913 . S
C1117 H1093 0.950 . S
C1117 C1116 1.524 . S
C1117 C1118 1.415 . S
C1118 H1094 0.950 . S
C1118 C1113 1.363 . S
C1118 C1117 1.415 . S
C1119 H1095 0.951 . S
C1119 C1120 1.366 . S
C1119 C1121 1.388 . S
C1120 C1119 1.366 . S
C1120 C1124 1.385 . S
C1121 H1096 0.951 1_556 S
C1121 C1119 1.388 . S
C1121 C1122 1.366 . S
C1122 C1121 1.366 . S
C1122 C1123 1.414 . S
C1122 C1125 1.499 . S
C1123 H1097 0.950 . S
C1123 C1122 1.414 . S
C1123 C1124 1.374 . S
C1124 H1098 0.950 . S
C1124 C1120 1.385 . S
C1124 C1123 1.374 . S
C1125 C1122 1.499 . S
C1125 C1126 1.373 . S
C1125 C1127 1.389 1_556 S
C1126 H1099 0.950 . S
C1126 C1112 1.377 . S
C1126 C1125 1.373 . S
C1127 C1111 1.377 . S
C1127 C1125 1.389 1_554 S
C1127 C1128 1.524 . S
C1128 C1127 1.524 . S
C1128 C1129 1.397 1_554 S
C1128 C1133 1.363 . S
C1129 H1100 0.950 . S
C1129 C1128 1.397 1_556 S
C1129 C1130 1.334 . S
C1130 H1101 0.950 . S
C1130 C1129 1.334 . S
C1130 C1131 1.287 1_556 S
C1131 C1130 1.287 1_554 S
C1131 C1132 1.524 . S
C1131 H1134 0.999 . S
C1132 H1102 0.950 . S
C1132 C1131 1.524 . S
C1132 C1133 1.415 . S
C1133 H1103 0.950 . S
C1133 C1128 1.363 . S
C1133 C1132 1.415 . S
H1134 C1131 0.999 . S
H1135 C1116 0.913 . S
H1136 C1154 0.951 . S
H1137 C1156 0.951 . S
H1138 C1158 0.950 . S
H1139 C1159 0.950 . S
H1140 C1161 0.950 . S
H1141 C1164 0.950 . S
H1142 C1165 0.950 . S
H1143 C1167 0.950 . S
H1144 C1168 0.950 . S
H1145 C1169 0.951 . S
H1146 C1171 0.951 . S
H1147 C1173 0.950 . S
H1148 C1174 0.950 . S
H1149 C1176 0.950 . S
H1150 C1179 0.950 . S
H1151 C1180 0.950 . S
H1152 C1182 0.950 . S
H1153 C1183 0.950 . S
C1154 H1136 0.951 . S
C1154 C1155 1.366 . S
C1154 C1156 1.388 . S
C1155 C1154 1.366 . S
C1155 C1159 1.385 . S
C1156 H1137 0.951 . S
C1156 C1154 1.388 . S
C1156 C1157 1.366 . S
C1157 C1156 1.366 . S
C1157 C1158 1.414 . S
C1157 C1160 1.499 . S
C1158 H1138 0.950 . S
C1158 C1157 1.414 . S
C1158 C1159 1.374 . S
C1159 H1139 0.950 . S
C1159 C1155 1.385 . S
C1159 C1158 1.374 . S
C1160 C1157 1.499 . S
C1160 C1161 1.373 . S
C1160 C1162 1.389 . S
C1161 H1140 0.950 . S
C1161 C1160 1.373 . S
C1161 C1177 1.377 . S
C1162 C1160 1.389 . S
C1162 C1163 1.524 . S
C1162 C1176 1.377 . S
C1163 C1162 1.524 . S
C1163 C1164 1.397 . S
C1163 C1168 1.363 . S
C1164 H1141 0.950 . S
C1164 C1163 1.397 . S
C1164 C1165 1.334 . S
C1165 H1142 0.950 . S
C1165 C1164 1.334 . S
C1165 C1166 1.287 . S
C1166 C1165 1.287 . S
C1166 C1167 1.524 . S
C1166 H1185 0.913 . S
C1167 H1143 0.950 . S
C1167 C1166 1.524 . S
C1167 C1168 1.415 . S
C1168 H1144 0.950 . S
C1168 C1163 1.363 . S
C1168 C1167 1.415 . S
C1169 H1145 0.951 . S
C1169 C1170 1.366 . S
C1169 C1171 1.388 . S
C1170 C1169 1.366 . S
C1170 C1174 1.385 . S
C1171 H1146 0.951 . S
C1171 C1169 1.388 . S
C1171 C1172 1.366 . S
C1172 C1171 1.366 . S
C1172 C1173 1.414 . S
C1172 C1175 1.499 . S
C1173 H1147 0.950 . S
C1173 C1172 1.414 . S
C1173 C1174 1.374 . S
C1174 H1148 0.950 . S
C1174 C1170 1.385 . S
C1174 C1173 1.374 . S
C1175 C1172 1.499 . S
C1175 C1176 1.373 . S
C1175 C1177 1.389 . S
C1176 H1149 0.950 . S
C1176 C1162 1.377 . S
C1176 C1175 1.373 . S
C1177 C1161 1.377 . S
C1177 C1175 1.389 . S
C1177 C1178 1.524 . S
C1178 C1177 1.524 . S
C1178 C1179 1.397 . S
C1178 C1183 1.363 . S
C1179 H1150 0.950 . S
C1179 C1178 1.397 . S
C1179 C1180 1.334 . S
C1180 H1151 0.950 . S
C1180 C1179 1.334 . S
C1180 C1181 1.287 . S
C1181 C1180 1.287 . S
C1181 C1182 1.524 . S
C1181 H1184 0.999 . S
C1182 H1152 0.950 . S
C1182 C1181 1.524 . S
C1182 C1183 1.415 . S
C1183 H1153 0.950 . S
C1183 C1178 1.363 . S
C1183 C1182 1.415 . S
H1184 C1181 0.999 . S
H1185 C1166 0.913 . S
H1186 C1204 0.951 . S
H1187 C1206 0.951 . S
H1188 C1208 0.950 . S
H1189 C1209 0.950 . S
H1190 C1211 0.950 . S
H1191 C1214 0.950 . S
H1192 C1215 0.950 . S
H1193 C1217 0.950 . S
H1194 C1218 0.950 . S
H1195 C1219 0.951 . S
H1196 C1221 0.951 . S
H1197 C1223 0.950 . S
H1198 C1224 0.950 . S
H1199 C1226 0.950 . S
H1200 C1229 0.950 . S
H1201 C1230 0.950 . S
H1202 C1232 0.950 . S
H1203 C1233 0.950 . S
C1204 H1186 0.951 . S
C1204 C1205 1.366 . S
C1204 C1206 1.388 . S
C1205 C1204 1.366 . S
C1205 C1209 1.385 . S
C1206 H1187 0.951 . S
C1206 C1204 1.388 . S
C1206 C1207 1.366 . S
C1207 C1206 1.366 . S
C1207 C1208 1.414 . S
C1207 C1210 1.499 . S
C1208 H1188 0.950 . S
C1208 C1207 1.414 . S
C1208 C1209 1.374 . S
C1209 H1189 0.950 . S
C1209 C1205 1.385 . S
C1209 C1208 1.374 . S
C1210 C1207 1.499 . S
C1210 C1211 1.373 . S
C1210 C1212 1.389 . S
C1211 H1190 0.950 . S
C1211 C1210 1.373 . S
C1211 C1227 1.377 . S
C1212 C1210 1.389 . S
C1212 C1213 1.524 . S
C1212 C1226 1.377 . S
C1213 C1212 1.524 . S
C1213 C1214 1.397 . S
C1213 C1218 1.363 . S
C1214 H1191 0.950 . S
C1214 C1213 1.397 . S
C1214 C1215 1.334 . S
C1215 H1192 0.950 . S
C1215 C1214 1.334 . S
C1215 C1216 1.287 . S
C1216 C1215 1.287 . S
C1216 C1217 1.524 . S
C1216 H1235 0.913 . S
C1217 H1193 0.950 . S
C1217 C1216 1.524 . S
C1217 C1218 1.415 . S
C1218 H1194 0.950 . S
C1218 C1213 1.363 . S
C1218 C1217 1.415 . S
C1219 H1195 0.951 . S
C1219 C1220 1.366 . S
C1219 C1221 1.388 . S
C1220 C1219 1.366 . S
C1220 C1224 1.385 . S
C1221 H1196 0.951 . S
C1221 C1219 1.388 . S
C1221 C1222 1.366 . S
C1222 C1221 1.366 . S
C1222 C1223 1.414 . S
C1222 C1225 1.499 . S
C1223 H1197 0.950 . S
C1223 C1222 1.414 . S
C1223 C1224 1.374 . S
C1224 H1198 0.950 . S
C1224 C1220 1.385 . S
C1224 C1223 1.374 . S
C1225 C1222 1.499 . S
C1225 C1226 1.373 . S
C1225 C1227 1.389 . S
C1226 H1199 0.950 . S
C1226 C1212 1.377 . S
C1226 C1225 1.373 . S
C1227 C1211 1.377 . S
C1227 C1225 1.389 . S
C1227 C1228 1.524 . S
C1228 C1227 1.524 . S
C1228 C1229 1.397 . S
C1228 C1233 1.363 . S
C1229 H1200 0.950 . S
C1229 C1228 1.397 . S
C1229 C1230 1.334 . S
C1230 H1201 0.950 . S
C1230 C1229 1.334 . S
C1230 C1231 1.287 . S
C1231 C1230 1.287 . S
C1231 C1232 1.524 . S
C1231 H1234 0.999 . S
C1232 H1202 0.950 . S
C1232 C1231 1.524 . S
C1232 C1233 1.415 . S
C1233 H1203 0.950 . S
C1233 C1228 1.363 . S
C1233 C1232 1.415 . S
H1234 C1231 0.999 . S
H1235 C1216 0.913 . S
H1236 C1254 0.951 . S
H1237 C1256 0.951 . S
H1238 C1258 0.950 . S
H1239 C1259 0.950 . S
H1240 C1261 0.950 . S
H1241 C1264 0.950 . S
H1242 C1265 0.950 . S
H1243 C1267 0.950 . S
H1244 C1268 0.950 . S
H1245 C1269 0.951 . S
H1246 C1271 0.951 . S
H1247 C1273 0.950 . S
H1248 C1274 0.950 . S
H1249 C1276 0.950 . S
H1250 C1279 0.950 . S
H1251 C1280 0.950 . S
H1252 C1282 0.950 . S
H1253 C1283 0.950 . S
C1254 H1236 0.951 . S
C1254 C1255 1.366 . S
C1254 C1256 1.388 . S
C1255 C1254 1.366 . S
C1255 C1259 1.385 . S
C1256 H1237 0.951 . S
C1256 C1254 1.388 . S
C1256 C1257 1.366 . S
C1257 C1256 1.366 . S
C1257 C1258 1.414 . S
C1257 C1260 1.499 . S
C1258 H1238 0.950 . S
C1258 C1257 1.414 . S
C1258 C1259 1.374 . S
C1259 H1239 0.950 . S
C1259 C1255 1.385 . S
C1259 C1258 1.374 . S
C1260 C1257 1.499 . S
C1260 C1261 1.373 . S
C1260 C1262 1.389 . S
C1261 H1240 0.950 . S
C1261 C1260 1.373 . S
C1261 C1277 1.377 . S
C1262 C1260 1.389 . S
C1262 C1263 1.524 . S
C1262 C1276 1.377 . S
C1263 C1262 1.524 . S
C1263 C1264 1.397 . S
C1263 C1268 1.363 . S
C1264 H1241 0.950 . S
C1264 C1263 1.397 . S
C1264 C1265 1.334 . S
C1265 H1242 0.950 . S
C1265 C1264 1.334 . S
C1265 C1266 1.287 . S
C1266 C1265 1.287 . S
C1266 C1267 1.524 . S
C1266 H1285 0.913 1_554 S
C1267 H1243 0.950 . S
C1267 C1266 1.524 . S
C1267 C1268 1.415 . S
C1268 H1244 0.950 . S
C1268 C1263 1.363 . S
C1268 C1267 1.415 . S
C1269 H1245 0.951 . S
C1269 C1270 1.366 . S
C1269 C1271 1.388 . S
C1270 C1269 1.366 . S
C1270 C1274 1.385 . S
C1271 H1246 0.951 . S
C1271 C1269 1.388 . S
C1271 C1272 1.366 . S
C1272 C1271 1.366 . S
C1272 C1273 1.414 . S
C1272 C1275 1.499 . S
C1273 H1247 0.950 . S
C1273 C1272 1.414 . S
C1273 C1274 1.374 . S
C1274 H1248 0.950 . S
C1274 C1270 1.385 . S
C1274 C1273 1.374 . S
C1275 C1272 1.499 . S
C1275 C1276 1.373 . S
C1275 C1277 1.389 . S
C1276 H1249 0.950 . S
C1276 C1262 1.377 . S
C1276 C1275 1.373 . S
C1277 C1261 1.377 . S
C1277 C1275 1.389 . S
C1277 C1278 1.524 . S
C1278 C1277 1.524 . S
C1278 C1279 1.397 . S
C1278 C1283 1.363 . S
C1279 H1250 0.950 . S
C1279 C1278 1.397 . S
C1279 C1280 1.334 . S
C1280 H1251 0.950 . S
C1280 C1279 1.334 . S
C1280 C1281 1.287 . S
C1281 C1280 1.287 . S
C1281 C1282 1.524 . S
C1281 H1284 0.999 . S
C1282 H1252 0.950 . S
C1282 C1281 1.524 . S
C1282 C1283 1.415 . S
C1283 H1253 0.950 . S
C1283 C1278 1.363 . S
C1283 C1282 1.415 . S
H1284 C1281 0.999 . S
H1285 C1266 0.913 1_556 S
H1286 C1304 0.951 . S
H1287 C1306 0.951 . S
H1288 C1308 0.950 . S
H1289 C1309 0.950 . S
H1290 C1311 0.950 . S
H1291 C1314 0.950 . S
H1292 C1315 0.950 . S
H1293 C1317 0.950 . S
H1294 C1318 0.950 . S
H1295 C1319 0.951 . S
H1296 C1321 0.951 . S
H1297 C1323 0.950 . S
H1298 C1324 0.950 . S
H1299 C1326 0.950 . S
H1300 C1329 0.950 . S
H1301 C1330 0.950 . S
H1302 C1332 0.950 . S
H1303 C1333 0.950 . S
C1304 H1286 0.951 . S
C1304 C1305 1.366 . S
C1304 C1306 1.388 . S
C1305 C1304 1.366 . S
C1305 C1309 1.385 . S
C1306 H1287 0.951 . S
C1306 C1304 1.388 . S
C1306 C1307 1.366 . S
C1307 C1306 1.366 . S
C1307 C1308 1.414 . S
C1307 C1310 1.499 . S
C1308 H1288 0.950 . S
C1308 C1307 1.414 . S
C1308 C1309 1.374 . S
C1309 H1289 0.950 . S
C1309 C1305 1.385 . S
C1309 C1308 1.374 . S
C1310 C1307 1.499 . S
C1310 C1311 1.373 . S
C1310 C1312 1.389 . S
C1311 H1290 0.950 . S
C1311 C1310 1.373 . S
C1311 C1327 1.377 1_655 S
C1312 C1310 1.389 . S
C1312 C1313 1.524 . S
C1312 C1326 1.377 1_655 S
C1313 C1312 1.524 . S
C1313 C1314 1.397 . S
C1313 C1318 1.363 . S
C1314 H1291 0.950 . S
C1314 C1313 1.397 . S
C1314 C1315 1.334 . S
C1315 H1292 0.950 . S
C1315 C1314 1.334 . S
C1315 C1316 1.287 . S
C1316 C1315 1.287 . S
C1316 C1317 1.524 . S
C1316 H1335 0.913 . S
C1317 H1293 0.950 . S
C1317 C1316 1.524 . S
C1317 C1318 1.415 . S
C1318 H1294 0.950 . S
C1318 C1313 1.363 . S
C1318 C1317 1.415 . S
C1319 H1295 0.951 . S
C1319 C1320 1.366 . S
C1319 C1321 1.388 . S
C1320 C1319 1.366 . S
C1320 C1324 1.385 . S
C1321 H1296 0.951 . S
C1321 C1319 1.388 . S
C1321 C1322 1.366 . S
C1322 C1321 1.366 . S
C1322 C1323 1.414 . S
C1322 C1325 1.499 . S
C1323 H1297 0.950 . S
C1323 C1322 1.414 . S
C1323 C1324 1.374 . S
C1324 H1298 0.950 . S
C1324 C1320 1.385 . S
C1324 C1323 1.374 . S
C1325 C1322 1.499 . S
C1325 C1326 1.373 . S
C1325 C1327 1.389 . S
C1326 H1299 0.950 . S
C1326 C1312 1.377 1_455 S
C1326 C1325 1.373 . S
C1327 C1311 1.377 1_455 S
C1327 C1325 1.389 . S
C1327 C1328 1.524 . S
C1328 C1327 1.524 . S
C1328 C1329 1.397 . S
C1328 C1333 1.363 . S
C1329 H1300 0.950 . S
C1329 C1328 1.397 . S
C1329 C1330 1.334 . S
C1330 H1301 0.950 . S
C1330 C1329 1.334 . S
C1330 C1331 1.287 . S
C1331 C1330 1.287 . S
C1331 C1332 1.524 . S
C1331 H1334 0.999 . S
C1332 H1302 0.950 . S
C1332 C1331 1.524 . S
C1332 C1333 1.415 . S
C1333 H1303 0.950 . S
C1333 C1328 1.363 . S
C1333 C1332 1.415 . S
H1334 C1331 0.999 . S
H1335 C1316 0.913 . S
H1336 C1354 0.951 . S
H1337 C1356 0.951 . S
H1338 C1358 0.950 . S
H1339 C1359 0.950 . S
H1340 C1361 0.950 . S
H1341 C1364 0.950 . S
H1342 C1365 0.950 . S
H1343 C1367 0.950 . S
H1344 C1368 0.950 . S
H1345 C1369 0.951 . S
H1346 C1371 0.951 . S
H1347 C1373 0.950 . S
H1348 C1374 0.950 . S
H1349 C1376 0.950 . S
H1350 C1379 0.950 . S
H1351 C1380 0.950 . S
H1352 C1382 0.950 . S
H1353 C1383 0.950 . S
C1354 H1336 0.951 . S
C1354 C1355 1.366 . S
C1354 C1356 1.388 . S
C1355 C1354 1.366 . S
C1355 C1359 1.385 . S
C1356 H1337 0.951 . S
C1356 C1354 1.388 . S
C1356 C1357 1.366 . S
C1357 C1356 1.366 . S
C1357 C1358 1.414 . S
C1357 C1360 1.499 . S
C1358 H1338 0.950 . S
C1358 C1357 1.414 . S
C1358 C1359 1.374 . S
C1359 H1339 0.950 . S
C1359 C1355 1.385 . S
C1359 C1358 1.374 . S
C1360 C1357 1.499 . S
C1360 C1361 1.373 . S
C1360 C1362 1.389 . S
C1361 H1340 0.950 . S
C1361 C1360 1.373 . S
C1361 C1377 1.377 1_545 S
C1362 C1360 1.389 . S
C1362 C1363 1.524 . S
C1362 C1376 1.377 1_545 S
C1363 C1362 1.524 . S
C1363 C1364 1.397 . S
C1363 C1368 1.363 . S
C1364 H1341 0.950 . S
C1364 C1363 1.397 . S
C1364 C1365 1.334 . S
C1365 H1342 0.950 . S
C1365 C1364 1.334 . S
C1365 C1366 1.287 . S
C1366 C1365 1.287 . S
C1366 C1367 1.524 . S
C1366 H1385 0.913 . S
C1367 H1343 0.950 . S
C1367 C1366 1.524 . S
C1367 C1368 1.415 . S
C1368 H1344 0.950 . S
C1368 C1363 1.363 . S
C1368 C1367 1.415 . S
C1369 H1345 0.951 . S
C1369 C1370 1.366 . S
C1369 C1371 1.388 . S
C1370 C1369 1.366 . S
C1370 C1374 1.385 . S
C1371 H1346 0.951 . S
C1371 C1369 1.388 . S
C1371 C1372 1.366 . S
C1372 C1371 1.366 . S
C1372 C1373 1.414 . S
C1372 C1375 1.499 . S
C1373 H1347 0.950 . S
C1373 C1372 1.414 . S
C1373 C1374 1.374 . S
C1374 H1348 0.950 . S
C1374 C1370 1.385 . S
C1374 C1373 1.374 . S
C1375 C1372 1.499 . S
C1375 C1376 1.373 . S
C1375 C1377 1.389 . S
C1376 H1349 0.950 . S
C1376 C1362 1.377 1_565 S
C1376 C1375 1.373 . S
C1377 C1361 1.377 1_565 S
C1377 C1375 1.389 . S
C1377 C1378 1.524 . S
C1378 C1377 1.524 . S
C1378 C1379 1.397 . S
C1378 C1383 1.363 . S
C1379 H1350 0.950 . S
C1379 C1378 1.397 . S
C1379 C1380 1.334 . S
C1380 H1351 0.950 . S
C1380 C1379 1.334 . S
C1380 C1381 1.287 . S
C1381 C1380 1.287 . S
C1381 C1382 1.524 . S
C1381 H1384 0.999 . S
C1382 H1352 0.950 . S
C1382 C1381 1.524 . S
C1382 C1383 1.415 . S
C1383 H1353 0.950 . S
C1383 C1378 1.363 . S
C1383 C1382 1.415 . S
H1384 C1381 0.999 . S
H1385 C1366 0.913 . S
H1386 C1404 0.951 . S
H1387 C1406 0.951 . S
H1388 C1408 0.950 . S
H1389 C1409 0.950 . S
H1390 C1411 0.950 . S
H1391 C1414 0.950 . S
H1392 C1415 0.950 . S
H1393 C1417 0.950 . S
H1394 C1418 0.950 . S
H1395 C1419 0.951 . S
H1396 C1421 0.951 . S
H1397 C1423 0.950 . S
H1398 C1424 0.950 . S
H1399 C1426 0.950 . S
H1400 C1429 0.950 . S
H1401 C1430 0.950 . S
H1402 C1432 0.950 . S
H1403 C1433 0.950 . S
C1404 H1386 0.951 . S
C1404 C1405 1.366 . S
C1404 C1406 1.388 . S
C1405 C1404 1.366 . S
C1405 C1409 1.385 . S
C1406 H1387 0.951 . S
C1406 C1404 1.388 . S
C1406 C1407 1.366 . S
C1407 C1406 1.366 . S
C1407 C1408 1.414 . S
C1407 C1410 1.499 . S
C1408 H1388 0.950 . S
C1408 C1407 1.414 . S
C1408 C1409 1.374 . S
C1409 H1389 0.950 . S
C1409 C1405 1.385 . S
C1409 C1408 1.374 . S
C1410 C1407 1.499 . S
C1410 C1411 1.373 . S
C1410 C1412 1.389 . S
C1411 H1390 0.950 . S
C1411 C1410 1.373 . S
C1411 C1427 1.377 . S
C1412 C1410 1.389 . S
C1412 C1413 1.524 . S
C1412 C1426 1.377 . S
C1413 C1412 1.524 . S
C1413 C1414 1.397 . S
C1413 C1418 1.363 . S
C1414 H1391 0.950 . S
C1414 C1413 1.397 . S
C1414 C1415 1.334 . S
C1415 H1392 0.950 . S
C1415 C1414 1.334 . S
C1415 C1416 1.287 . S
C1416 C1415 1.287 . S
C1416 C1417 1.524 . S
C1416 H1435 0.913 . S
C1417 H1393 0.950 . S
C1417 C1416 1.524 . S
C1417 C1418 1.415 . S
C1418 H1394 0.950 . S
C1418 C1413 1.363 . S
C1418 C1417 1.415 . S
C1419 H1395 0.951 . S
C1419 C1420 1.366 . S
C1419 C1421 1.388 . S
C1420 C1419 1.366 . S
C1420 C1424 1.385 . S
C1421 H1396 0.951 . S
C1421 C1419 1.388 . S
C1421 C1422 1.366 . S
C1422 C1421 1.366 . S
C1422 C1423 1.414 . S
C1422 C1425 1.499 . S
C1423 H1397 0.950 . S
C1423 C1422 1.414 . S
C1423 C1424 1.374 . S
C1424 H1398 0.950 . S
C1424 C1420 1.385 . S
C1424 C1423 1.374 . S
C1425 C1422 1.499 . S
C1425 C1426 1.373 . S
C1425 C1427 1.389 . S
C1426 H1399 0.950 . S
C1426 C1412 1.377 . S
C1426 C1425 1.373 . S
C1427 C1411 1.377 . S
C1427 C1425 1.389 . S
C1427 C1428 1.524 . S
C1428 C1427 1.524 . S
C1428 C1429 1.397 . S
C1428 C1433 1.363 . S
C1429 H1400 0.950 . S
C1429 C1428 1.397 . S
C1429 C1430 1.334 . S
C1430 H1401 0.950 . S
C1430 C1429 1.334 . S
C1430 C1431 1.287 . S
C1431 C1430 1.287 . S
C1431 C1432 1.524 . S
C1431 H1434 0.999 . S
C1432 H1402 0.950 . S
C1432 C1431 1.524 . S
C1432 C1433 1.415 . S
C1433 H1403 0.950 . S
C1433 C1428 1.363 . S
C1433 C1432 1.415 . S
H1434 C1431 0.999 . S
H1435 C1416 0.913 . S
H1436 C1454 0.951 . S
H1437 C1456 0.951 . S
H1438 C1458 0.950 . S
H1439 C1459 0.950 . S
H1440 C1461 0.950 . S
H1441 C1464 0.950 . S
H1442 C1465 0.950 . S
H1443 C1467 0.950 . S
H1444 C1468 0.950 . S
H1445 C1469 0.951 . S
H1446 C1471 0.951 . S
H1447 C1473 0.950 . S
H1448 C1474 0.950 . S
H1449 C1476 0.950 . S
H1450 C1479 0.950 . S
H1451 C1480 0.950 . S
H1452 C1482 0.950 . S
H1453 C1483 0.950 . S
C1454 H1436 0.951 . S
C1454 C1455 1.366 . S
C1454 C1456 1.388 . S
C1455 C1454 1.366 . S
C1455 C1459 1.385 . S
C1456 H1437 0.951 . S
C1456 C1454 1.388 . S
C1456 C1457 1.366 . S
C1457 C1456 1.366 . S
C1457 C1458 1.414 . S
C1457 C1460 1.499 . S
C1458 H1438 0.950 . S
C1458 C1457 1.414 . S
C1458 C1459 1.374 . S
C1459 H1439 0.950 . S
C1459 C1455 1.385 . S
C1459 C1458 1.374 . S
C1460 C1457 1.499 . S
C1460 C1461 1.373 . S
C1460 C1462 1.389 . S
C1461 H1440 0.950 . S
C1461 C1460 1.373 . S
C1461 C1477 1.377 1_455 S
C1462 C1460 1.389 . S
C1462 C1463 1.524 . S
C1462 C1476 1.377 1_455 S
C1463 C1462 1.524 . S
C1463 C1464 1.397 . S
C1463 C1468 1.363 . S
C1464 H1441 0.950 . S
C1464 C1463 1.397 . S
C1464 C1465 1.334 . S
C1465 H1442 0.950 . S
C1465 C1464 1.334 . S
C1465 C1466 1.287 . S
C1466 C1465 1.287 . S
C1466 C1467 1.524 . S
C1466 H1485 0.913 1_556 S
C1467 H1443 0.950 . S
C1467 C1466 1.524 . S
C1467 C1468 1.415 . S
C1468 H1444 0.950 . S
C1468 C1463 1.363 . S
C1468 C1467 1.415 . S
C1469 H1445 0.951 . S
C1469 C1470 1.366 . S
C1469 C1471 1.388 . S
C1470 C1469 1.366 . S
C1470 C1474 1.385 . S
C1471 H1446 0.951 . S
C1471 C1469 1.388 . S
C1471 C1472 1.366 . S
C1472 C1471 1.366 . S
C1472 C1473 1.414 . S
C1472 C1475 1.499 . S
C1473 H1447 0.950 . S
C1473 C1472 1.414 . S
C1473 C1474 1.374 . S
C1474 H1448 0.950 . S
C1474 C1470 1.385 . S
C1474 C1473 1.374 . S
C1475 C1472 1.499 . S
C1475 C1476 1.373 . S
C1475 C1477 1.389 . S
C1476 H1449 0.950 . S
C1476 C1462 1.377 1_655 S
C1476 C1475 1.373 . S
C1477 C1461 1.377 1_655 S
C1477 C1475 1.389 . S
C1477 C1478 1.524 . S
C1478 C1477 1.524 . S
C1478 C1479 1.397 . S
C1478 C1483 1.363 . S
C1479 H1450 0.950 . S
C1479 C1478 1.397 . S
C1479 C1480 1.334 . S
C1480 H1451 0.950 . S
C1480 C1479 1.334 . S
C1480 C1481 1.287 . S
C1481 C1480 1.287 . S
C1481 C1482 1.524 . S
C1481 H1484 0.999 . S
C1482 H1452 0.950 . S
C1482 C1481 1.524 . S
C1482 C1483 1.415 . S
C1483 H1453 0.950 . S
C1483 C1478 1.363 . S
C1483 C1482 1.415 . S
H1484 C1481 0.999 . S
H1485 C1466 0.913 1_554 S
H1486 C1504 0.951 . S
H1487 C1506 0.951 . S
H1488 C1508 0.950 . S
H1489 C1509 0.950 . S
H1490 C1511 0.950 . S
H1491 C1514 0.950 . S
H1492 C1515 0.950 . S
H1493 C1517 0.950 . S
H1494 C1518 0.950 . S
H1495 C1519 0.951 . S
H1496 C1521 0.951 . S
H1497 C1523 0.950 . S
H1498 C1524 0.950 . S
H1499 C1526 0.950 . S
H1500 C1529 0.950 . S
H1501 C1530 0.950 . S
H1502 C1532 0.950 . S
H1503 C1533 0.950 . S
C1504 H1486 0.951 . S
C1504 C1505 1.366 . S
C1504 C1506 1.388 . S
C1505 C1504 1.366 . S
C1505 C1509 1.385 . S
C1506 H1487 0.951 . S
C1506 C1504 1.388 . S
C1506 C1507 1.366 . S
C1507 C1506 1.366 . S
C1507 C1508 1.414 . S
C1507 C1510 1.499 . S
C1508 H1488 0.950 . S
C1508 C1507 1.414 . S
C1508 C1509 1.374 . S
C1509 H1489 0.950 . S
C1509 C1505 1.385 . S
C1509 C1508 1.374 . S
C1510 C1507 1.499 . S
C1510 C1511 1.373 . S
C1510 C1512 1.389 . S
C1511 H1490 0.950 . S
C1511 C1510 1.373 . S
C1511 C1527 1.377 1_565 S
C1512 C1510 1.389 . S
C1512 C1513 1.524 . S
C1512 C1526 1.377 1_565 S
C1513 C1512 1.524 . S
C1513 C1514 1.397 . S
C1513 C1518 1.363 . S
C1514 H1491 0.950 . S
C1514 C1513 1.397 . S
C1514 C1515 1.334 . S
C1515 H1492 0.950 . S
C1515 C1514 1.334 . S
C1515 C1516 1.287 . S
C1516 C1515 1.287 . S
C1516 C1517 1.524 . S
C1516 H1535 0.913 . S
C1517 H1493 0.950 . S
C1517 C1516 1.524 . S
C1517 C1518 1.415 . S
C1518 H1494 0.950 . S
C1518 C1513 1.363 . S
C1518 C1517 1.415 . S
C1519 H1495 0.951 . S
C1519 C1520 1.366 . S
C1519 C1521 1.388 . S
C1520 C1519 1.366 . S
C1520 C1524 1.385 . S
C1521 H1496 0.951 . S
C1521 C1519 1.388 . S
C1521 C1522 1.366 . S
C1522 C1521 1.366 . S
C1522 C1523 1.414 . S
C1522 C1525 1.499 . S
C1523 H1497 0.950 . S
C1523 C1522 1.414 . S
C1523 C1524 1.374 . S
C1524 H1498 0.950 . S
C1524 C1520 1.385 . S
C1524 C1523 1.374 . S
C1525 C1522 1.499 . S
C1525 C1526 1.373 . S
C1525 C1527 1.389 . S
C1526 H1499 0.950 . S
C1526 C1512 1.377 1_545 S
C1526 C1525 1.373 . S
C1527 C1511 1.377 1_545 S
C1527 C1525 1.389 . S
C1527 C1528 1.524 . S
C1528 C1527 1.524 . S
C1528 C1529 1.397 . S
C1528 C1533 1.363 . S
C1529 H1500 0.950 . S
C1529 C1528 1.397 . S
C1529 C1530 1.334 . S
C1530 H1501 0.950 . S
C1530 C1529 1.334 . S
C1530 C1531 1.287 . S
C1531 C1530 1.287 . S
C1531 C1532 1.524 . S
C1531 H1534 0.999 . S
C1532 H1502 0.950 . S
C1532 C1531 1.524 . S
C1532 C1533 1.415 . S
C1533 H1503 0.950 . S
C1533 C1528 1.363 . S
C1533 C1532 1.415 . S
H1534 C1531 0.999 . S
H1535 C1516 0.913 . S
H1536 C1554 0.951 . S
H1537 C1556 0.951 . S
H1538 C1558 0.950 . S
H1539 C1559 0.950 . S
H1540 C1561 0.950 . S
H1541 C1564 0.950 . S
H1542 C1565 0.950 . S
H1543 C1567 0.950 . S
H1544 C1568 0.950 . S
H1545 C1569 0.951 . S
H1546 C1571 0.951 . S
H1547 C1573 0.950 . S
H1548 C1574 0.950 . S
H1549 C1576 0.950 . S
H1550 C1579 0.950 . S
H1551 C1580 0.950 . S
H1552 C1582 0.950 . S
H1553 C1583 0.950 . S
C1554 H1536 0.951 . S
C1554 C1555 1.366 . S
C1554 C1556 1.388 . S
C1555 C1554 1.366 . S
C1555 C1559 1.385 . S
C1556 H1537 0.951 . S
C1556 C1554 1.388 . S
C1556 C1557 1.366 . S
C1557 C1556 1.366 . S
C1557 C1558 1.414 . S
C1557 C1560 1.499 . S
C1558 H1538 0.950 . S
C1558 C1557 1.414 . S
C1558 C1559 1.374 . S
C1559 H1539 0.950 . S
C1559 C1555 1.385 . S
C1559 C1558 1.374 . S
C1560 C1557 1.499 . S
C1560 C1561 1.373 . S
C1560 C1562 1.389 . S
C1561 H1540 0.950 . S
C1561 C1560 1.373 . S
C1561 C1577 1.377 . S
C1562 C1560 1.389 . S
C1562 C1563 1.524 . S
C1562 C1576 1.377 . S
C1563 C1562 1.524 . S
C1563 C1564 1.397 . S
C1563 C1568 1.363 . S
C1564 H1541 0.950 . S
C1564 C1563 1.397 . S
C1564 C1565 1.334 . S
C1565 H1542 0.950 . S
C1565 C1564 1.334 . S
C1565 C1566 1.287 . S
C1566 C1565 1.287 . S
C1566 C1567 1.524 . S
C1566 H1585 0.913 . S
C1567 H1543 0.950 . S
C1567 C1566 1.524 . S
C1567 C1568 1.415 . S
C1568 H1544 0.950 . S
C1568 C1563 1.363 . S
C1568 C1567 1.415 . S
C1569 H1545 0.951 . S
C1569 C1570 1.366 . S
C1569 C1571 1.388 . S
C1570 C1569 1.366 . S
C1570 C1574 1.385 . S
C1571 H1546 0.951 . S
C1571 C1569 1.388 . S
C1571 C1572 1.366 . S
C1572 C1571 1.366 . S
C1572 C1573 1.414 . S
C1572 C1575 1.499 . S
C1573 H1547 0.950 . S
C1573 C1572 1.414 . S
C1573 C1574 1.374 . S
C1574 H1548 0.950 . S
C1574 C1570 1.385 . S
C1574 C1573 1.374 . S
C1575 C1572 1.499 . S
C1575 C1576 1.373 . S
C1575 C1577 1.389 . S
C1576 H1549 0.950 . S
C1576 C1562 1.377 . S
C1576 C1575 1.373 . S
C1577 C1561 1.377 . S
C1577 C1575 1.389 . S
C1577 C1578 1.524 . S
C1578 C1577 1.524 . S
C1578 C1579 1.397 . S
C1578 C1583 1.363 . S
C1579 H1550 0.950 . S
C1579 C1578 1.397 . S
C1579 C1580 1.334 . S
C1580 H1551 0.950 . S
C1580 C1579 1.334 . S
C1580 C1581 1.287 . S
C1581 C1580 1.287 . S
C1581 C1582 1.524 . S
C1581 H1584 0.999 . S
C1582 H1552 0.950 . S
C1582 C1581 1.524 . S
C1582 C1583 1.415 . S
C1583 H1553 0.950 . S
C1583 C1578 1.363 . S
C1583 C1582 1.415 . S
H1584 C1581 0.999 . S
H1585 C1566 0.913 . S
H1586 C1604 0.951 . S
H1587 C1606 0.951 . S
H1588 C1608 0.950 . S
H1589 C1609 0.950 . S
H1590 C1611 0.950 . S
H1591 C1614 0.950 . S
H1592 C1615 0.950 . S
H1593 C1617 0.950 . S
H1594 C1618 0.950 . S
H1595 C1619 0.951 . S
H1596 C1621 0.951 . S
H1597 C1623 0.950 . S
H1598 C1624 0.950 . S
H1599 C1626 0.950 . S
H1600 C1629 0.950 . S
H1601 C1630 0.950 . S
H1602 C1632 0.950 . S
H1603 C1633 0.950 . S
C1604 H1586 0.951 . S
C1604 C1605 1.366 . S
C1604 C1606 1.388 . S
C1605 C1604 1.366 . S
C1605 C1609 1.385 . S
C1606 H1587 0.951 . S
C1606 C1604 1.388 . S
C1606 C1607 1.366 . S
C1607 C1606 1.366 . S
C1607 C1608 1.414 . S
C1607 C1610 1.499 . S
C1608 H1588 0.950 . S
C1608 C1607 1.414 . S
C1608 C1609 1.374 . S
C1609 H1589 0.950 . S
C1609 C1605 1.385 . S
C1609 C1608 1.374 . S
C1610 C1607 1.499 . S
C1610 C1611 1.373 . S
C1610 C1612 1.389 . S
C1611 H1590 0.950 . S
C1611 C1610 1.373 . S
C1611 C1627 1.377 . S
C1612 C1610 1.389 . S
C1612 C1613 1.524 . S
C1612 C1626 1.377 . S
C1613 C1612 1.524 . S
C1613 C1614 1.397 . S
C1613 C1618 1.363 . S
C1614 H1591 0.950 . S
C1614 C1613 1.397 . S
C1614 C1615 1.334 . S
C1615 H1592 0.950 . S
C1615 C1614 1.334 . S
C1615 C1616 1.287 . S
C1616 C1615 1.287 . S
C1616 C1617 1.524 . S
C1616 H1635 0.913 . S
C1617 H1593 0.950 . S
C1617 C1616 1.524 . S
C1617 C1618 1.415 . S
C1618 H1594 0.950 . S
C1618 C1613 1.363 . S
C1618 C1617 1.415 . S
C1619 H1595 0.951 . S
C1619 C1620 1.366 . S
C1619 C1621 1.388 . S
C1620 C1619 1.366 . S
C1620 C1624 1.385 . S
C1621 H1596 0.951 . S
C1621 C1619 1.388 . S
C1621 C1622 1.366 . S
C1622 C1621 1.366 . S
C1622 C1623 1.414 . S
C1622 C1625 1.499 . S
C1623 H1597 0.950 . S
C1623 C1622 1.414 . S
C1623 C1624 1.374 . S
C1624 H1598 0.950 . S
C1624 C1620 1.385 . S
C1624 C1623 1.374 . S
C1625 C1622 1.499 . S
C1625 C1626 1.373 . S
C1625 C1627 1.389 . S
C1626 H1599 0.950 . S
C1626 C1612 1.377 . S
C1626 C1625 1.373 . S
C1627 C1611 1.377 . S
C1627 C1625 1.389 . S
C1627 C1628 1.524 . S
C1628 C1627 1.524 . S
C1628 C1629 1.397 . S
C1628 C1633 1.363 . S
C1629 H1600 0.950 . S
C1629 C1628 1.397 . S
C1629 C1630 1.334 . S
C1630 H1601 0.950 . S
C1630 C1629 1.334 . S
C1630 C1631 1.287 . S
C1631 C1630 1.287 . S
C1631 C1632 1.524 . S
C1631 H1634 0.999 . S
C1632 H1602 0.950 . S
C1632 C1631 1.524 . S
C1632 C1633 1.415 . S
C1633 H1603 0.950 . S
C1633 C1628 1.363 . S
C1633 C1632 1.415 . S
H1634 C1631 0.999 . S
H1635 C1616 0.913 . S
H1636 C1654 0.951 . S
H1637 C1656 0.951 . S
H1638 C1658 0.950 . S
H1639 C1659 0.950 . S
H1640 C1661 0.950 . S
H1641 C1664 0.950 . S
H1642 C1665 0.950 . S
H1643 C1667 0.950 . S
H1644 C1668 0.950 . S
H1645 C1669 0.951 . S
H1646 C1671 0.951 . S
H1647 C1673 0.950 . S
H1648 C1674 0.950 . S
H1649 C1676 0.950 . S
H1650 C1679 0.950 . S
H1651 C1680 0.950 . S
H1652 C1682 0.950 . S
H1653 C1683 0.950 . S
C1654 H1636 0.951 . S
C1654 C1655 1.366 . S
C1654 C1656 1.388 . S
C1655 C1654 1.366 . S
C1655 C1659 1.385 . S
C1656 H1637 0.951 . S
C1656 C1654 1.388 . S
C1656 C1657 1.366 . S
C1657 C1656 1.366 . S
C1657 C1658 1.414 . S
C1657 C1660 1.499 . S
C1658 H1638 0.950 . S
C1658 C1657 1.414 . S
C1658 C1659 1.374 . S
C1659 H1639 0.950 . S
C1659 C1655 1.385 . S
C1659 C1658 1.374 . S
C1660 C1657 1.499 . S
C1660 C1661 1.373 . S
C1660 C1662 1.389 . S
C1661 H1640 0.950 . S
C1661 C1660 1.373 . S
C1661 C1677 1.377 . S
C1662 C1660 1.389 . S
C1662 C1663 1.524 . S
C1662 C1676 1.377 . S
C1663 C1662 1.524 . S
C1663 C1664 1.397 . S
C1663 C1668 1.363 . S
C1664 H1641 0.950 . S
C1664 C1663 1.397 . S
C1664 C1665 1.334 . S
C1665 H1642 0.950 . S
C1665 C1664 1.334 . S
C1665 C1666 1.287 . S
C1666 C1665 1.287 . S
C1666 C1667 1.524 . S
C1666 H1685 0.913 . S
C1667 H1643 0.950 . S
C1667 C1666 1.524 . S
C1667 C1668 1.415 . S
C1668 H1644 0.950 . S
C1668 C1663 1.363 . S
C1668 C1667 1.415 . S
C1669 H1645 0.951 . S
C1669 C1670 1.366 . S
C1669 C1671 1.388 . S
C1670 C1669 1.366 . S
C1670 C1674 1.385 . S
C1671 H1646 0.951 . S
C1671 C1669 1.388 . S
C1671 C1672 1.366 . S
C1672 C1671 1.366 . S
C1672 C1673 1.414 . S
C1672 C1675 1.499 . S
C1673 H1647 0.950 . S
C1673 C1672 1.414 . S
C1673 C1674 1.374 . S
C1674 H1648 0.950 . S
C1674 C1670 1.385 . S
C1674 C1673 1.374 . S
C1675 C1672 1.499 . S
C1675 C1676 1.373 . S
C1675 C1677 1.389 . S
C1676 H1649 0.950 . S
C1676 C1662 1.377 . S
C1676 C1675 1.373 . S
C1677 C1661 1.377 . S
C1677 C1675 1.389 . S
C1677 C1678 1.524 . S
C1678 C1677 1.524 . S
C1678 C1679 1.397 . S
C1678 C1683 1.363 . S
C1679 H1650 0.950 . S
C1679 C1678 1.397 . S
C1679 C1680 1.334 . S
C1680 H1651 0.950 . S
C1680 C1679 1.334 . S
C1680 C1681 1.287 . S
C1681 C1680 1.287 . S
C1681 C1682 1.524 . S
C1681 H1684 0.999 . S
C1682 H1652 0.950 . S
C1682 C1681 1.524 . S
C1682 C1683 1.415 . S
C1683 H1653 0.950 . S
C1683 C1678 1.363 . S
C1683 C1682 1.415 . S
H1684 C1681 0.999 . S
H1685 C1666 0.913 . S
H1686 C1704 0.951 . S
H1687 C1706 0.951 . S
H1688 C1708 0.950 . S
H1689 C1709 0.950 . S
H1690 C1711 0.950 . S
H1691 C1714 0.950 . S
H1692 C1715 0.950 . S
H1693 C1717 0.950 . S
H1694 C1718 0.950 . S
H1695 C1719 0.951 . S
H1696 C1721 0.951 . S
H1697 C1723 0.950 . S
H1698 C1724 0.950 . S
H1699 C1726 0.950 . S
H1700 C1729 0.950 . S
H1701 C1730 0.950 . S
H1702 C1732 0.950 . S
H1703 C1733 0.950 . S
C1704 H1686 0.951 . S
C1704 C1705 1.366 . S
C1704 C1706 1.388 . S
C1705 C1704 1.366 . S
C1705 C1709 1.385 . S
C1706 H1687 0.951 . S
C1706 C1704 1.388 . S
C1706 C1707 1.366 . S
C1707 C1706 1.366 . S
C1707 C1708 1.414 . S
C1707 C1710 1.499 . S
C1708 H1688 0.950 . S
C1708 C1707 1.414 . S
C1708 C1709 1.374 . S
C1709 H1689 0.950 . S
C1709 C1705 1.385 . S
C1709 C1708 1.374 . S
C1710 C1707 1.499 . S
C1710 C1711 1.373 . S
C1710 C1712 1.389 . S
C1711 H1690 0.950 . S
C1711 C1710 1.373 . S
C1711 C1727 1.377 . S
C1712 C1710 1.389 . S
C1712 C1713 1.524 . S
C1712 C1726 1.377 . S
C1713 C1712 1.524 . S
C1713 C1714 1.397 . S
C1713 C1718 1.363 . S
C1714 H1691 0.950 . S
C1714 C1713 1.397 . S
C1714 C1715 1.334 . S
C1715 H1692 0.950 . S
C1715 C1714 1.334 . S
C1715 C1716 1.287 . S
C1716 C1715 1.287 . S
C1716 C1717 1.524 . S
C1716 H1735 0.913 . S
C1717 H1693 0.950 . S
C1717 C1716 1.524 . S
C1717 C1718 1.415 . S
C1718 H1694 0.950 . S
C1718 C1713 1.363 . S
C1718 C1717 1.415 . S
C1719 H1695 0.951 . S
C1719 C1720 1.366 . S
C1719 C1721 1.388 . S
C1720 C1719 1.366 . S
C1720 C1724 1.385 . S
C1721 H1696 0.951 . S
C1721 C1719 1.388 . S
C1721 C1722 1.366 . S
C1722 C1721 1.366 . S
C1722 C1723 1.414 . S
C1722 C1725 1.499 . S
C1723 H1697 0.950 . S
C1723 C1722 1.414 . S
C1723 C1724 1.374 . S
C1724 H1698 0.950 . S
C1724 C1720 1.385 . S
C1724 C1723 1.374 . S
C1725 C1722 1.499 . S
C1725 C1726 1.373 . S
C1725 C1727 1.389 . S
C1726 H1699 0.950 . S
C1726 C1712 1.377 . S
C1726 C1725 1.373 . S
C1727 C1711 1.377 . S
C1727 C1725 1.389 . S
C1727 C1728 1.524 . S
C1728 C1727 1.524 . S
C1728 C1729 1.397 . S
C1728 C1733 1.363 . S
C1729 H1700 0.950 . S
C1729 C1728 1.397 . S
C1729 C1730 1.334 . S
C1730 H1701 0.950 . S
C1730 C1729 1.334 . S
C1730 C1731 1.287 . S
C1731 C1730 1.287 . S
C1731 C1732 1.524 . S
C1731 H1734 0.999 . S
C1732 H1702 0.950 . S
C1732 C1731 1.524 . S
C1732 C1733 1.415 . S
C1733 H1703 0.950 . S
C1733 C1728 1.363 . S
C1733 C1732 1.415 . S
H1734 C1731 0.999 . S
H1735 C1716 0.913 . S
H1736 C1754 0.951 . S
H1737 C1756 0.951 . S
H1738 C1758 0.950 . S
H1739 C1759 0.950 . S
H1740 C1761 0.950 . S
H1741 C1764 0.950 . S
H1742 C1765 0.950 . S
H1743 C1767 0.950 . S
H1744 C1768 0.950 . S
H1745 C1769 0.951 . S
H1746 C1771 0.951 . S
H1747 C1773 0.950 . S
H1748 C1774 0.950 . S
H1749 C1776 0.950 . S
H1750 C1779 0.950 . S
H1751 C1780 0.950 . S
H1752 C1782 0.950 . S
H1753 C1783 0.950 . S
C1754 H1736 0.951 . S
C1754 C1755 1.366 . S
C1754 C1756 1.388 . S
C1755 C1754 1.366 . S
C1755 C1759 1.385 . S
C1756 H1737 0.951 . S
C1756 C1754 1.388 . S
C1756 C1757 1.366 . S
C1757 C1756 1.366 . S
C1757 C1758 1.414 . S
C1757 C1760 1.499 . S
C1758 H1738 0.950 . S
C1758 C1757 1.414 . S
C1758 C1759 1.374 . S
C1759 H1739 0.950 . S
C1759 C1755 1.385 . S
C1759 C1758 1.374 . S
C1760 C1757 1.499 . S
C1760 C1761 1.373 . S
C1760 C1762 1.389 . S
C1761 H1740 0.950 . S
C1761 C1760 1.373 . S
C1761 C1777 1.377 . S
C1762 C1760 1.389 . S
C1762 C1763 1.524 . S
C1762 C1776 1.377 . S
C1763 C1762 1.524 . S
C1763 C1764 1.397 . S
C1763 C1768 1.363 . S
C1764 H1741 0.950 . S
C1764 C1763 1.397 . S
C1764 C1765 1.334 . S
C1765 H1742 0.950 . S
C1765 C1764 1.334 . S
C1765 C1766 1.287 . S
C1766 C1765 1.287 . S
C1766 C1767 1.524 . S
C1766 H1785 0.913 . S
C1767 H1743 0.950 . S
C1767 C1766 1.524 . S
C1767 C1768 1.415 . S
C1768 H1744 0.950 . S
C1768 C1763 1.363 . S
C1768 C1767 1.415 . S
C1769 H1745 0.951 . S
C1769 C1770 1.366 . S
C1769 C1771 1.388 . S
C1770 C1769 1.366 . S
C1770 C1774 1.385 . S
C1771 H1746 0.951 . S
C1771 C1769 1.388 . S
C1771 C1772 1.366 . S
C1772 C1771 1.366 . S
C1772 C1773 1.414 . S
C1772 C1775 1.499 . S
C1773 H1747 0.950 . S
C1773 C1772 1.414 . S
C1773 C1774 1.374 . S
C1774 H1748 0.950 . S
C1774 C1770 1.385 . S
C1774 C1773 1.374 . S
C1775 C1772 1.499 . S
C1775 C1776 1.373 . S
C1775 C1777 1.389 . S
C1776 H1749 0.950 . S
C1776 C1762 1.377 . S
C1776 C1775 1.373 . S
C1777 C1761 1.377 . S
C1777 C1775 1.389 . S
C1777 C1778 1.524 . S
C1778 C1777 1.524 . S
C1778 C1779 1.397 . S
C1778 C1783 1.363 . S
C1779 H1750 0.950 . S
C1779 C1778 1.397 . S
C1779 C1780 1.334 . S
C1780 H1751 0.950 . S
C1780 C1779 1.334 . S
C1780 C1781 1.287 . S
C1781 C1780 1.287 . S
C1781 C1782 1.524 . S
C1781 H1784 0.999 . S
C1782 H1752 0.950 . S
C1782 C1781 1.524 . S
C1782 C1783 1.415 . S
C1783 H1753 0.950 . S
C1783 C1778 1.363 . S
C1783 C1782 1.415 . S
H1784 C1781 0.999 . S
H1785 C1766 0.913 . S
H1786 C1804 0.951 . S
H1787 C1806 0.951 . S
H1788 C1808 0.950 . S
H1789 C1809 0.950 . S
H1790 C1811 0.950 . S
H1791 C1814 0.950 . S
H1792 C1815 0.950 . S
H1793 C1817 0.950 . S
H1794 C1818 0.950 . S
H1795 C1819 0.951 . S
H1796 C1821 0.951 . S
H1797 C1823 0.950 . S
H1798 C1824 0.950 . S
H1799 C1826 0.950 . S
H1800 C1829 0.950 . S
H1801 C1830 0.950 . S
H1802 C1832 0.950 . S
H1803 C1833 0.950 . S
C1804 H1786 0.951 . S
C1804 C1805 1.366 . S
C1804 C1806 1.388 . S
C1805 C1804 1.366 . S
C1805 C1809 1.385 . S
C1806 H1787 0.951 . S
C1806 C1804 1.388 . S
C1806 C1807 1.366 . S
C1807 C1806 1.366 . S
C1807 C1808 1.414 . S
C1807 C1810 1.499 . S
C1808 H1788 0.950 . S
C1808 C1807 1.414 . S
C1808 C1809 1.374 . S
C1809 H1789 0.950 . S
C1809 C1805 1.385 . S
C1809 C1808 1.374 . S
C1810 C1807 1.499 . S
C1810 C1811 1.373 . S
C1810 C1812 1.389 . S
C1811 H1790 0.950 . S
C1811 C1810 1.373 . S
C1811 C1827 1.377 . S
C1812 C1810 1.389 . S
C1812 C1813 1.524 . S
C1812 C1826 1.377 . S
C1813 C1812 1.524 . S
C1813 C1814 1.397 . S
C1813 C1818 1.363 . S
C1814 H1791 0.950 . S
C1814 C1813 1.397 . S
C1814 C1815 1.334 . S
C1815 H1792 0.950 . S
C1815 C1814 1.334 . S
C1815 C1816 1.287 . S
C1816 C1815 1.287 . S
C1816 C1817 1.524 . S
C1816 H1835 0.913 . S
C1817 H1793 0.950 . S
C1817 C1816 1.524 . S
C1817 C1818 1.415 . S
C1818 H1794 0.950 . S
C1818 C1813 1.363 . S
C1818 C1817 1.415 . S
C1819 H1795 0.951 . S
C1819 C1820 1.366 . S
C1819 C1821 1.388 . S
C1820 C1819 1.366 . S
C1820 C1824 1.385 . S
C1821 H1796 0.951 . S
C1821 C1819 1.388 . S
C1821 C1822 1.366 . S
C1822 C1821 1.366 . S
C1822 C1823 1.414 . S
C1822 C1825 1.499 . S
C1823 H1797 0.950 . S
C1823 C1822 1.414 . S
C1823 C1824 1.374 . S
C1824 H1798 0.950 . S
C1824 C1820 1.385 . S
C1824 C1823 1.374 . S
C1825 C1822 1.499 . S
C1825 C1826 1.373 . S
C1825 C1827 1.389 . S
C1826 H1799 0.950 . S
C1826 C1812 1.377 . S
C1826 C1825 1.373 . S
C1827 C1811 1.377 . S
C1827 C1825 1.389 . S
C1827 C1828 1.524 . S
C1828 C1827 1.524 . S
C1828 C1829 1.397 . S
C1828 C1833 1.363 . S
C1829 H1800 0.950 . S
C1829 C1828 1.397 . S
C1829 C1830 1.334 . S
C1830 H1801 0.950 . S
C1830 C1829 1.334 . S
C1830 C1831 1.287 . S
C1831 C1830 1.287 . S
C1831 C1832 1.524 . S
C1831 H1834 0.999 . S
C1832 H1802 0.950 . S
C1832 C1831 1.524 . S
C1832 C1833 1.415 . S
C1833 H1803 0.950 . S
C1833 C1828 1.363 . S
C1833 C1832 1.415 . S
H1834 C1831 0.999 . S
H1835 C1816 0.913 . S
C655 C22 1.646 . S
C670 C340 1.646 . S
C705 C75 1.646 . S
C720 C393 1.646 . S
C755 C128 1.646 . S
C770 C446 1.646 . S
C805 C181 1.646 . S
C820 C499 1.646 . S
C855 C234 1.646 . S
C870 C552 1.646 . S
C905 C605 1.646 . S
C920 C287 1.646 . S
C955 C38 1.904 . S
C970 C568 1.905 . S
C1005 C91 1.905 . S
C1020 C621 1.904 . S
C1055 C144 1.905 . S
C1070 C356 1.905 . S
C1105 C197 1.904 . S
C1120 C409 1.905 . S
C1155 C250 1.904 . S
C1170 C462 1.905 . S
C1205 C303 1.905 . S
C1220 C515 1.904 . S
C1255 C39 1.961 . S
C1270 C198 1.961 . S
C1305 C92 1.961 . S
C1320 C251 1.962 . S
C1355 C304 1.962 . S
C1370 C145 1.962 . S
C1405 C357 1.961 . S
C1420 C516 1.962 . S
C1455 C569 1.962 . S
C1470 C410 1.962 . S
C1505 C463 1.961 . S
C1520 C622 1.962 . S
C1555 C347 1.288 . S
C1570 C29 1.288 . S
C1605 C82 1.288 . S
C1620 C400 1.288 . S
C1655 C135 1.288 . S
C1670 C453 1.288 . S
C1705 C506 1.288 . S
C1720 C188 1.289 . S
C1755 C559 1.288 . S
C1770 C241 1.288 . S
C1805 C294 1.288 . S
C1820 C612 1.288 . S
