# Generated by pormake.
# Topology snz, (6)-cn, num edge types: 1
# Building blocks:
#     Node 0, Type 0, BuildingBlock: FUNLAD_clean_sbu_0, # of connection points: 6
#     Node 1, Type 0, BuildingBlock: FUNLAD_clean_sbu_0, # of connection points: 6
#     Node 2, Type 0, BuildingBlock: FUNLAD_clean_sbu_0, # of connection points: 6
#     Node 3, Type 0, BuildingBlock: FUNLAD_clean_sbu_0, # of connection points: 6
#     Node 4, Type 0, BuildingBlock: FUNLAD_clean_sbu_0, # of connection points: 6
#     Node 5, Type 0, BuildingBlock: FUNLAD_clean_sbu_0, # of connection points: 6
#     Node 6, Type 0, BuildingBlock: FUNLAD_clean_sbu_0, # of connection points: 6
#     Node 7, Type 0, BuildingBlock: FUNLAD_clean_sbu_0, # of connection points: 6
#     Node 8, Type 0, BuildingBlock: FUNLAD_clean_sbu_0, # of connection points: 6
#     Edge 9, Type (0, 0), BuildingBlock: TEMPAE_clean_linker_10, # of connection points: 2
#     Edge 10, Type (0, 0), BuildingBlock: TEMPAE_clean_linker_10, # of connection points: 2
#     Edge 11, Type (0, 0), BuildingBlock: TEMPAE_clean_linker_10, # of connection points: 2
#     Edge 12, Type (0, 0), BuildingBlock: TEMPAE_clean_linker_10, # of connection points: 2
#     Edge 13, Type (0, 0), BuildingBlock: TEMPAE_clean_linker_10, # of connection points: 2
#     Edge 14, Type (0, 0), BuildingBlock: TEMPAE_clean_linker_10, # of connection points: 2
#     Edge 15, Type (0, 0), BuildingBlock: TEMPAE_clean_linker_10, # of connection points: 2
#     Edge 16, Type (0, 0), BuildingBlock: TEMPAE_clean_linker_10, # of connection points: 2
#     Edge 17, Type (0, 0), BuildingBlock: TEMPAE_clean_linker_10, # of connection points: 2
#     Edge 18, Type (0, 0), BuildingBlock: TEMPAE_clean_linker_10, # of connection points: 2
#     Edge 19, Type (0, 0), BuildingBlock: TEMPAE_clean_linker_10, # of connection points: 2
#     Edge 20, Type (0, 0), BuildingBlock: TEMPAE_clean_linker_10, # of connection points: 2
#     Edge 21, Type (0, 0), BuildingBlock: TEMPAE_clean_linker_10, # of connection points: 2
#     Edge 22, Type (0, 0), BuildingBlock: TEMPAE_clean_linker_10, # of connection points: 2
#     Edge 23, Type (0, 0), BuildingBlock: TEMPAE_clean_linker_10, # of connection points: 2
#     Edge 24, Type (0, 0), BuildingBlock: TEMPAE_clean_linker_10, # of connection points: 2
#     Edge 25, Type (0, 0), BuildingBlock: TEMPAE_clean_linker_10, # of connection points: 2
#     Edge 26, Type (0, 0), BuildingBlock: TEMPAE_clean_linker_10, # of connection points: 2
#     Edge 27, Type (0, 0), BuildingBlock: TEMPAE_clean_linker_10, # of connection points: 2
#     Edge 28, Type (0, 0), BuildingBlock: TEMPAE_clean_linker_10, # of connection points: 2
#     Edge 29, Type (0, 0), BuildingBlock: TEMPAE_clean_linker_10, # of connection points: 2
#     Edge 30, Type (0, 0), BuildingBlock: TEMPAE_clean_linker_10, # of connection points: 2
#     Edge 31, Type (0, 0), BuildingBlock: TEMPAE_clean_linker_10, # of connection points: 2
#     Edge 32, Type (0, 0), BuildingBlock: TEMPAE_clean_linker_10, # of connection points: 2
#     Edge 33, Type (0, 0), BuildingBlock: TEMPAE_clean_linker_10, # of connection points: 2
#     Edge 34, Type (0, 0), BuildingBlock: TEMPAE_clean_linker_10, # of connection points: 2
#     Edge 35, Type (0, 0), BuildingBlock: TEMPAE_clean_linker_10, # of connection points: 2
# Relax obj value: 0.652
# Max RMSD: 0.282
# Mean RMSD: 0.258
data_MOF--net-snz--node1-FUNLAD_clean_sbu_0--edge1-TEMPAE_clean_linker_10
_symmetry_space_group_name_H-M    P1
_symmetry_Int_Tables_number       1
_symmetry_cell_setting            triclinic
loop_
_symmetry_equiv_pos_as_xyz
'x, y, z'
_cell_length_a     48.620133
_cell_length_b     54.134511
_cell_length_c     17.212675
_cell_angle_alpha  89.686828
_cell_angle_beta   89.442308
_cell_angle_gamma 120.06631
loop_
_atom_site_label
_atom_site_type_symbol
_atom_site_fract_x
_atom_site_fract_y
_atom_site_fract_z
_atom_type_partial_charge
C0 C 0.004 0.52315 0.96319 0.0
N1 N 0.09251 0.53323 0.92167 0.0
C2 C 0.0951 0.51574 0.86952 0.0
C3 C 0.0981 0.52277 0.79074 0.0
C4 C 0.09823 0.54778 0.76815 0.0
C5 C 0.10412 0.56848 0.82416 0.0
C6 C 0.10081 0.56052 0.90215 0.0
Zn7 Zn 0.05796 0.51446 1.00458 0.0
C8 C 0.06624 0.55254 0.1311 0.0
N9 N 0.9821 0.47594 0.16746 0.0
C10 C 0.96717 0.49091 0.18405 0.0
C11 C 0.98121 0.45634 0.21858 0.0
C12 C 0.97159 0.45608 0.29519 0.0
C13 C 0.96224 0.4758 0.31776 0.0
C14 C 0.95595 0.49035 0.2591 0.0
Zn15 Zn 0.01714 0.49232 0.08431 0.0
O16 O 0.0335 0.53352 0.95001 0.0
C17 C 0.00668 0.45537 0.95617 0.0
O18 O -0.00958 0.5046 1.01654 0.0
H19 H -0.008 0.44373 0.2034 0.0
H20 H 0.08902 0.49433 0.88684 0.0
H21 H 0.96765 0.50622 0.14281 0.0
O22 O 0.03133 0.47797 0.93237 0.0
O23 O -0.00384 0.45399 1.02471 0.0
H24 H 0.0988 0.57421 0.94453 0.0
O25 O 0.04458 0.47909 0.14819 0.0
O26 O 0.08172 0.49491 0.05762 0.0
O27 O 0.0383 0.532 0.14486 0.0
O28 O 0.08233 0.5503 0.07598 0.0
C29 C 0.07017 0.48135 0.12119 0.0
H30 H 0.09408 0.50648 0.74877 0.0
H31 H 0.10483 0.58819 0.80826 0.0
H32 H 0.97609 0.44367 0.33735 0.0
H33 H 0.94714 0.50465 0.27306 0.0
C34 C 0.42829 0.47852 0.07218 0.0
N35 N 0.52076 0.50102 0.12432 0.0
C36 C 0.53827 0.52113 0.17748 0.0
C37 C 0.5433 0.51277 0.25011 0.0
C38 C 0.53026 0.48349 0.26694 0.0
C39 C 0.5186 0.46419 0.20539 0.0
C40 C 0.51297 0.47329 0.13471 0.0
Zn41 Zn 0.49816 0.51025 0.04 0.0
C42 C 0.48036 0.46965 0.91095 0.0
N43 N 0.44675 0.52465 0.86619 0.0
C44 C 0.4184 0.50142 0.84796 0.0
C45 C 0.46396 0.54522 0.81207 0.0
C46 C 0.45743 0.53908 0.73364 0.0
C47 C 0.43292 0.51182 0.71341 0.0
C48 C 0.41064 0.49474 0.77048 0.0
Zn49 Zn 0.47121 0.51854 0.95266 0.0
O50 O 0.45405 0.47976 0.09166 0.0
C51 C 0.48962 0.56004 0.07874 0.0
O52 O 0.42875 0.4943 1.0169 0.0
H53 H 0.4858 0.56407 0.8281 0.0
H54 H 0.54517 0.54322 0.16717 0.0
H55 H 0.40457 0.48531 0.89127 0.0
O56 O 0.49807 0.54325 0.108 0.0
O57 O 0.47845 0.55549 1.01049 0.0
H58 H 0.49918 0.45743 0.0921 0.0
O59 O 0.51567 0.54288 0.89019 0.0
O60 O 0.54118 0.53974 0.99081 0.0
O61 O 0.46383 0.48101 0.89368 0.0
O62 O 0.4985 0.47875 0.9689 0.0
C63 C 0.54169 0.54935 0.92321 0.0
H64 H 0.55304 0.52865 0.29521 0.0
H65 H 0.50925 0.44157 0.21531 0.0
H66 H 0.47475 0.55318 0.69076 0.0
H67 H 0.39102 0.47384 0.75637 0.0
C68 C 0.53241 0.0105 0.89018 0.0
N69 N 0.45375 0.93788 0.80377 0.0
C70 C 0.47944 0.93862 0.7693 0.0
C71 C 0.48828 0.94995 0.69442 0.0
C72 C 0.46916 0.95855 0.65617 0.0
C73 C 0.43874 0.95013 0.68576 0.0
C74 C 0.43101 0.93883 0.76078 0.0
Zn75 Zn 0.46511 0.96242 0.90022 0.0
C76 C 0.49105 0.94168 1.02474 0.0
N77 N 0.49275 0.01704 0.09436 0.0
C78 C 0.47691 0.03115 0.11154 0.0
C79 C 0.51927 0.02233 0.13325 0.0
C80 C 0.52963 0.04102 0.19535 0.0
C81 C 0.51292 0.055 0.2172 0.0
C82 C 0.48708 0.05079 0.17171 0.0
Zn83 Zn 0.47974 0.99047 1.00245 0.0
O84 O 0.5113 0.98967 0.85261 0.0
C85 C 0.45503 0.01205 0.87831 0.0
O86 O 0.52603 0.01519 0.95808 0.0
H87 H 0.53212 0.01158 0.11712 0.0
H88 H 0.49682 0.93708 0.80462 0.0
H89 H 0.45611 0.02701 0.07923 0.0
O90 O 0.45005 0.98939 0.84478 0.0
O91 O 0.46736 0.01744 0.94486 0.0
H92 H 0.41034 0.93741 0.78936 0.0
O93 O 0.43241 0.96541 0.04673 0.0
O94 O 0.4195 0.93647 0.94748 0.0
O95 O 0.49275 0.96305 0.05962 0.0
O96 O 0.48057 0.93642 0.95584 0.0
C97 C 0.41188 0.94332 1.01124 0.0
H98 H 0.51185 0.95612 0.67244 0.0
H99 H 0.42346 0.95641 0.65681 0.0
H100 H 0.54937 0.04289 0.22846 0.0
H101 H 0.47379 0.06143 0.18458 0.0
C102 C 0.56386 0.82314 0.31693 0.0
N103 N 0.64782 0.81876 0.29277 0.0
C104 C 0.65331 0.8404 0.24311 0.0
C105 C 0.65822 0.83788 0.16441 0.0
C106 C 0.65771 0.81302 0.13893 0.0
C107 C 0.66076 0.79546 0.19438 0.0
C108 C 0.65502 0.7984 0.27221 0.0
Zn109 Zn 0.61218 0.80705 0.37266 0.0
C110 C 0.6258 0.85081 0.48818 0.0
N111 N 0.53394 0.77972 0.53123 0.0
C112 C 0.51879 0.75161 0.55236 0.0
C113 C 0.53418 0.79957 0.5798 0.0
C114 C 0.52685 0.79281 0.65834 0.0
C115 C 0.51878 0.76535 0.68457 0.0
C116 C 0.51001 0.74375 0.62963 0.0
Zn117 Zn 0.57014 0.79318 0.45077 0.0
O118 O 0.59048 0.82502 0.30146 0.0
C119 C 0.55944 0.74839 0.33603 0.0
O120 O 0.54865 0.80982 0.37801 0.0
H121 H 0.54478 0.82159 0.5611 0.0
H122 H 0.64838 0.85689 0.26143 0.0
H123 H 0.51798 0.73573 0.51346 0.0
O124 O 0.58691 0.76796 0.31524 0.0
O125 O 0.5455 0.75293 0.39223 0.0
H126 H 0.65084 0.78151 0.31274 0.0
O127 O 0.59273 0.77764 0.52663 0.0
O128 O 0.63258 0.78976 0.44502 0.0
O129 O 0.59702 0.8337 0.50764 0.0
O130 O 0.63817 0.84525 0.43068 0.0
C131 C 0.61913 0.77935 0.51001 0.0
H132 H 0.65663 0.85246 0.12385 0.0
H133 H 0.66152 0.77661 0.17689 0.0
H134 H 0.5329 0.81001 0.69872 0.0
H135 H 0.50257 0.72207 0.64778 0.0
C136 C 0.09735 0.78161 0.47876 0.0
N137 N 0.19095 0.80167 0.51666 0.0
C138 C 0.19233 0.81661 0.58108 0.0
C139 C 0.20121 0.81033 0.65154 0.0
C140 C 0.20716 0.78753 0.65623 0.0
C141 C 0.20957 0.77496 0.58752 0.0
C142 C 0.20182 0.78284 0.51729 0.0
Zn143 Zn 0.16414 0.80183 0.42662 0.0
C144 C 0.1342 0.74751 0.34203 0.0
N145 N 0.10666 0.80106 0.2422 0.0
C146 C 0.08118 0.77488 0.22804 0.0
C147 C 0.12142 0.82052 0.18399 0.0
C148 C 0.11568 0.81164 0.10709 0.0
C149 C 0.09471 0.78266 0.09192 0.0
C150 C 0.07473 0.76506 0.15208 0.0
Zn151 Zn 0.13367 0.80283 0.33387 0.0
O152 O 0.12458 0.7878 0.5034 0.0
C153 C 0.16144 0.85612 0.41905 0.0
O154 O 0.09363 0.78423 0.40691 0.0
H155 H 0.14136 0.84133 0.19679 0.0
H156 H 0.1834 0.83129 0.58021 0.0
H157 H 0.06965 0.75978 0.2753 0.0
O158 O 0.17636 0.84482 0.44928 0.0
O159 O 0.14112 0.84294 0.36677 0.0
H160 H 0.20146 0.77174 0.46498 0.0
O161 O 0.17551 0.82233 0.26163 0.0
O162 O 0.2033 0.81632 0.35153 0.0
O163 O 0.12554 0.76207 0.30208 0.0
O164 O 0.15055 0.75852 0.40219 0.0
C165 C 0.20159 0.8247 0.28372 0.0
H166 H 0.19882 0.82038 0.70341 0.0
H167 H 0.21399 0.75725 0.58921 0.0
H168 H 0.13135 0.82599 0.06205 0.0
H169 H 0.05801 0.7427 0.14216 0.0
C170 C 0.22415 0.35552 0.36928 0.0
N171 N 0.13933 0.28289 0.31039 0.0
C172 C 0.11517 0.28374 0.27372 0.0
C173 C 0.1183 0.29025 0.19465 0.0
C174 C 0.14593 0.2948 0.15593 0.0
C175 C 0.16522 0.28561 0.19084 0.0
C176 C 0.1612 0.2793 0.26999 0.0
Zn177 Zn 0.15732 0.31008 0.40094 0.0
C178 C 0.18658 0.29116 0.51801 0.0
N179 N 0.19529 0.36935 0.58463 0.0
C180 C 0.2267 0.38165 0.60135 0.0
C181 C 0.17567 0.37551 0.62626 0.0
C182 C 0.18655 0.39198 0.6927 0.0
C183 C 0.21826 0.40285 0.71596 0.0
C184 C 0.23892 0.3992 0.66574 0.0
Zn185 Zn 0.17667 0.341 0.49684 0.0
O186 O 0.20175 0.3327 0.34172 0.0
C187 C 0.14804 0.36059 0.37905 0.0
O188 O 0.22003 0.36417 0.43428 0.0
H189 H 0.15103 0.36636 0.61042 0.0
H190 H 0.0976 0.28592 0.30732 0.0
H191 H 0.24216 0.37693 0.5669 0.0
O192 O 0.14341 0.33772 0.34738 0.0
O193 O 0.16108 0.36713 0.44499 0.0
H194 H 0.17981 0.27808 0.30062 0.0
O195 O 0.13224 0.31686 0.55816 0.0
O196 O 0.11378 0.28812 0.4587 0.0
O197 O 0.19246 0.3146 0.54886 0.0
O198 O 0.17171 0.28371 0.45439 0.0
C199 C 0.10957 0.29527 0.52584 0.0
H200 H 0.10288 0.29702 0.16872 0.0
H201 H 0.18662 0.28873 0.16177 0.0
H202 H 0.16927 0.39385 0.72842 0.0
H203 H 0.26379 0.40794 0.67893 0.0
C204 C 0.32421 0.15515 0.88694 0.0
N205 N 0.38504 0.21984 0.71322 0.0
C206 C 0.3781 0.23363 0.76908 0.0
C207 C 0.39804 0.26243 0.78194 0.0
C208 C 0.4257 0.27783 0.73678 0.0
C209 C 0.43252 0.26348 0.67844 0.0
C210 C 0.4117 0.23408 0.6678 0.0
Zn211 Zn 0.34972 0.17802 0.70443 0.0
C212 C 0.36672 0.13513 0.71098 0.0
N213 N 0.2684 0.09608 0.695 0.0
C214 C 0.23942 0.08298 0.73147 0.0
C215 C 0.27558 0.08262 0.63866 0.0
C216 C 0.25337 0.05551 0.61532 0.0
C217 C 0.22308 0.0417 0.64962 0.0
C218 C 0.21616 0.05528 0.70982 0.0
Zn219 Zn 0.30434 0.13728 0.70761 0.0
O220 O 0.34584 0.17561 0.84472 0.0
C221 C 0.28702 0.17973 0.70079 0.0
O222 O 0.30246 0.13451 0.84708 0.0
H223 H 0.29852 0.09316 0.6098 0.0
H224 H 0.35638 0.2225 0.8029 0.0
H225 H 0.23414 0.09414 0.7758 0.0
O226 O 0.31718 0.19328 0.69793 0.0
O227 O 0.27237 0.15274 0.70777 0.0
H228 H 0.41655 0.22285 0.62282 0.0
O229 O 0.30667 0.14094 0.56751 0.0
O230 O 0.35295 0.17922 0.56492 0.0
O231 O 0.3366 0.12198 0.70929 0.0
O232 O 0.38193 0.16227 0.70935 0.0
C233 C 0.32969 0.16 0.52515 0.0
H234 H 0.39125 0.27276 0.82573 0.0
H235 H 0.45352 0.2748 0.64181 0.0
H236 H 0.25983 0.04545 0.56995 0.0
H237 H 0.19298 0.04499 0.73796 0.0
C238 C 0.82113 0.16072 0.52645 0.0
N239 N 0.80911 0.09668 0.7006 0.0
C240 C 0.79002 0.08308 0.63955 0.0
C241 C 0.77712 0.054 0.63013 0.0
C242 C 0.78309 0.03815 0.68484 0.0
C243 C 0.80266 0.0523 0.74809 0.0
C244 C 0.8158 0.08199 0.75461 0.0
Zn245 Zn 0.82007 0.1384 0.70797 0.0
C246 C 0.88462 0.18131 0.70651 0.0
N247 N 0.83001 0.22032 0.71123 0.0
C248 C 0.82045 0.233 0.65763 0.0
C249 C 0.85052 0.23573 0.76832 0.0
C250 C 0.86229 0.26484 0.77339 0.0
C251 C 0.85355 0.27857 0.71826 0.0
C252 C 0.83229 0.26256 0.65976 0.0
Zn253 Zn 0.81983 0.17892 0.70691 0.0
O254 O 0.8235 0.14193 0.56783 0.0
C255 C 0.75534 0.13593 0.70836 0.0
O256 O 0.81861 0.17948 0.56723 0.0
H257 H 0.85905 0.22574 0.80829 0.0
H258 H 0.7832 0.09442 0.59968 0.0
H259 H 0.80456 0.22042 0.61194 0.0
O260 O 0.77086 0.12286 0.70575 0.0
O261 O 0.77035 0.16301 0.71102 0.0
H262 H 0.83032 0.09304 0.80389 0.0
O263 O 0.82042 0.17733 0.84687 0.0
O264 O 0.81751 0.13609 0.84775 0.0
O265 O 0.86934 0.19463 0.70271 0.0
O266 O 0.86937 0.1542 0.71088 0.0
C267 C 0.81895 0.15674 0.88835 0.0
H268 H 0.76128 0.04376 0.58204 0.0
H269 H 0.80735 0.04055 0.79204 0.0
H270 H 0.8792 0.27681 0.81826 0.0
H271 H 0.82551 0.27281 0.61582 0.0
C272 C 0.82949 0.68412 0.93119 0.0
N273 N 0.8425 0.63196 0.75846 0.0
C274 C 0.86264 0.63584 0.81744 0.0
C275 C 0.87449 0.61755 0.82771 0.0
C276 C 0.86599 0.59494 0.77649 0.0
C277 C 0.84539 0.59128 0.71525 0.0
C278 C 0.83364 0.61017 0.70746 0.0
Zn279 Zn 0.83148 0.66369 0.75076 0.0
C280 C 0.76637 0.6476 0.74838 0.0
N281 N 0.81903 0.73566 0.74597 0.0
C282 C 0.82326 0.75296 0.80748 0.0
C283 C 0.80156 0.73502 0.68391 0.0
C284 C 0.78707 0.75147 0.68247 0.0
C285 C 0.78943 0.76807 0.74664 0.0
C286 C 0.80807 0.76919 0.80958 0.0
Zn287 Zn 0.83022 0.70382 0.74963 0.0
O288 O 0.82818 0.66361 0.89055 0.0
C289 C 0.89521 0.72011 0.75061 0.0
O290 O 0.83093 0.70471 0.88968 0.0
H291 H 0.79659 0.72017 0.63754 0.0
H292 H 0.87054 0.65382 0.85561 0.0
H293 H 0.8368 0.75296 0.85688 0.0
O294 O 0.8806 0.69304 0.7535 0.0
O295 O 0.8794 0.73293 0.74665 0.0
H296 H 0.81807 0.60779 0.6601 0.0
O297 O 0.83039 0.70206 0.60983 0.0
O298 O 0.83416 0.66388 0.61085 0.0
O299 O 0.78095 0.67466 0.75148 0.0
O300 O 0.78224 0.63477 0.74732 0.0
C301 C 0.83233 0.68298 0.5693 0.0
H302 H 0.89104 0.62163 0.87428 0.0
H303 H 0.83857 0.57415 0.67419 0.0
H304 H 0.77206 0.74951 0.63399 0.0
H305 H 0.80985 0.78152 0.86054 0.0
C306 C 0.04976 0.54482 0.71539 0.0
C307 C 0.0788 0.54582 0.70093 0.0
C308 C 0.02623 0.53516 0.65912 0.0
C309 C 0.03209 0.52659 0.58653 0.0
C310 C 0.06219 0.52949 0.56954 0.0
C311 C 0.08514 0.53871 0.62765 0.0
C312 C -0.00548 0.5324 0.67944 0.0
C313 C 0.06956 0.52158 0.49121 0.0
C314 C 0.96896 0.47074 0.46029 0.0
C315 C 0.96967 0.48771 0.3975 0.0
C316 C -0.01234 0.48327 0.5257 0.0
C317 C 0.00645 0.51335 0.52911 0.0
C318 C 0.00339 0.53052 0.47195 0.0
C319 C 0.98524 0.51754 0.40645 0.0
C320 C -0.01017 0.46431 0.58704 0.0
C321 C 0.02194 0.5627 0.47479 0.0
H322 H 0.04442 0.54957 0.77288 0.0
H323 H 0.10742 0.53916 0.61715 0.0
H324 H 0.98481 0.53844 0.62944 0.0
H325 H 0.97732 0.50986 0.69519 0.0
H326 H -0.00365 0.54595 0.72951 0.0
H327 H 0.0947 0.5268 0.48583 0.0
H328 H 0.05393 0.49835 0.48184 0.0
H329 H 0.06469 0.53299 0.44437 0.0
H330 H 0.95611 0.4477 0.45542 0.0
H331 H 0.9862 0.53128 0.35927 0.0
H332 H -0.0108 0.47218 0.64601 0.0
H333 H 0.01282 0.4648 0.5803 0.0
H334 H 0.97038 0.44182 0.58229 0.0
H335 H 0.00813 0.57179 0.44854 0.0
H336 H 0.04434 0.57058 0.44063 0.0
H337 H 0.02811 0.57083 0.53479 0.0
C338 C 0.44318 0.47438 0.6644 0.0
C339 C 0.43894 0.49771 0.64789 0.0
C340 C 0.45743 0.46502 0.61032 0.0
C341 C 0.46735 0.47918 0.53777 0.0
C342 C 0.46106 0.50141 0.51856 0.0
C343 C 0.44722 0.51067 0.57446 0.0
C344 C 0.46336 0.44123 0.63405 0.0
C345 C 0.47044 0.51638 0.44033 0.0
C346 C 0.53525 0.48939 0.41093 0.0
C347 C 0.51828 0.47322 0.34691 0.0
C348 C 0.5191 0.48899 0.47919 0.0
C349 C 0.48558 0.47205 0.48235 0.0
C350 C 0.46933 0.45188 0.42412 0.0
C351 C 0.48595 0.45257 0.35685 0.0
C352 C 0.53735 0.50905 0.54397 0.0
C353 C 0.43377 0.43226 0.42792 0.0
H354 H 0.43756 0.46466 0.72193 0.0
H355 H 0.44421 0.52884 0.56223 0.0
H356 H 0.47041 0.43236 0.58491 0.0
H357 H 0.48247 0.44934 0.67782 0.0
H358 H 0.4416 0.42364 0.66192 0.0
H359 H 0.46171 0.53166 0.43268 0.0
H360 H 0.49673 0.52827 0.43394 0.0
H361 H 0.46085 0.50051 0.39302 0.0
H362 H 0.56044 0.50458 0.40465 0.0
H363 H 0.47243 0.43945 0.30867 0.0
H364 H 0.52858 0.49824 0.60128 0.0
H365 H 0.53362 0.52767 0.54231 0.0
H366 H 0.56327 0.51701 0.53877 0.0
H367 H 0.42573 0.4238 0.48775 0.0
H368 H 0.426 0.41399 0.38789 0.0
H369 H 0.42187 0.44439 0.41098 0.0
C370 C 0.49393 0.01047 0.636 0.0
C371 C 0.48438 0.98355 0.60473 0.0
C372 C 0.50698 0.03487 0.58854 0.0
C373 C 0.50973 0.03192 0.50783 0.0
C374 C 0.50162 0.00475 0.47692 0.0
C375 C 0.48913 0.98082 0.52628 0.0
C376 C 0.5164 0.06319 0.6255 0.0
C377 C 0.50451 0.00046 0.39112 0.0
C378 C 0.49061 0.06147 0.34094 0.0
C379 C 0.51764 0.06758 0.29603 0.0
C380 C 0.48968 0.05538 0.42018 0.0
C381 C 0.51617 0.05542 0.45304 0.0
C382 C 0.54581 0.06982 0.4139 0.0
C383 C 0.54638 0.0763 0.33473 0.0
C384 C 0.45858 0.0435 0.46413 0.0
C385 C 0.57549 0.07355 0.4514 0.0
H386 H 0.4907 0.01235 0.69773 0.0
H387 H 0.48205 0.95988 0.50333 0.0
H388 H 0.53127 0.08166 0.5866 0.0
H389 H 0.49465 0.06378 0.64238 0.0
H390 H 0.52969 0.06547 0.67966 0.0
H391 H 0.4982 0.97819 0.37773 0.0
H392 H 0.48851 0.00555 0.35787 0.0
H393 H 0.52919 0.0149 0.37024 0.0
H394 H 0.46857 0.05666 0.31358 0.0
H395 H 0.56823 0.08377 0.3015 0.0
H396 H 0.46291 0.05161 0.52427 0.0
H397 H 0.44685 0.01986 0.46707 0.0
H398 H 0.44217 0.04937 0.43586 0.0
H399 H 0.5972 0.09059 0.42177 0.0
H400 H 0.57588 0.05326 0.44791 0.0
H401 H 0.57585 0.07887 0.51371 0.0
C402 C 0.5299 0.77619 0.82584 0.0
C403 C 0.53231 0.76286 0.75874 0.0
C404 C 0.55016 0.78105 0.88853 0.0
C405 C 0.5735 0.77275 0.88282 0.0
C406 C 0.57468 0.75771 0.81742 0.0
C407 C 0.5539 0.75274 0.75648 0.0
C408 C 0.54786 0.79657 0.95872 0.0
C409 C 0.59955 0.74892 0.80895 0.0
C410 C 0.64768 0.81783 0.99872 0.0
C411 C 0.64181 0.80052 0.06465 0.0
C412 C 0.62611 0.80859 0.93743 0.0
C413 C 0.59811 0.78149 0.94274 0.0
C414 C 0.59314 0.76318 1.00647 0.0
C415 C 0.61522 0.77279 0.06623 0.0
C416 C 0.63214 0.8287 0.86997 0.0
C417 C 0.56336 0.73429 1.01431 0.0
H418 H 0.5134 0.78414 0.82747 0.0
H419 H 0.55657 0.74305 0.70413 0.0
H420 H 0.54758 0.78526 1.01294 0.0
H421 H 0.56902 0.8183 0.96042 0.0
H422 H 0.52625 0.79863 0.95796 0.0
H423 H 0.59749 0.73765 0.75366 0.0
H424 H 0.62353 0.7681 0.8109 0.0
H425 H 0.59769 0.73481 0.85807 0.0
H426 H 0.6681 0.83924 0.99725 0.0
H427 H 0.61005 0.75935 0.11731 0.0
H428 H 0.61696 0.83849 0.87695 0.0
H429 H 0.62585 0.81711 0.81413 0.0
H430 H 0.65733 0.84615 0.86679 0.0
H431 H 0.54203 0.73673 1.01277 0.0
H432 H 0.5626 0.72312 0.06918 0.0
H433 H 0.56174 0.72061 0.96488 0.0
C434 C 0.21182 0.78669 0.79902 0.0
C435 C 0.19911 0.77165 0.73046 0.0
C436 C 0.19297 0.77939 0.86659 0.0
C437 C 0.16098 0.75692 0.86379 0.0
C438 C 0.1506 0.73833 0.79991 0.0
C439 C 0.17021 0.74572 0.73374 0.0
C440 C 0.20556 0.79855 0.9362 0.0
C441 C 0.11711 0.71346 0.79627 0.0
C442 C 0.11125 0.74925 0.04184 0.0
C443 C 0.10237 0.76977 1.02583 0.0
C444 C 0.12907 0.74349 0.9883 0.0
C445 C 0.13727 0.75801 0.91605 0.0
C446 C 0.12558 0.77658 0.89645 0.0
C447 C 0.10842 0.7824 0.95202 0.0
C448 C 0.14053 0.72321 1.01136 0.0
C449 C 0.13345 0.79216 0.81914 0.0
H450 H 0.23447 0.80643 0.7967 0.0
H451 H 0.16055 0.73373 0.68094 0.0
H452 H 0.19671 0.81389 0.93558 0.0
H453 H 0.19711 0.78591 0.99104 0.0
H454 H 0.23195 0.81092 0.93567 0.0
H455 H 0.11489 0.69792 0.75136 0.0
H456 H 0.10936 0.70229 0.85329 0.0
H457 H 0.10077 0.72147 0.78139 0.0
H458 H 0.10688 0.73964 0.09906 0.0
H459 H 0.10157 0.79824 0.93972 0.0
H460 H 0.16508 0.73072 0.98988 0.0
H461 H 0.12476 0.70204 0.98562 0.0
H462 H 0.13996 0.72031 0.07542 0.0
H463 H 0.15944 0.80701 0.81417 0.0
H464 H 0.12139 0.80481 0.81201 0.0
H465 H 0.1265 0.77676 0.77082 0.0
C466 C 0.24517 0.40088 0.83649 0.0
C467 C 0.22658 0.41046 0.79894 0.0
C468 C 0.23857 0.39142 0.91369 0.0
C469 C 0.21287 0.39145 0.9522 0.0
C470 C 0.20042 0.40804 0.92209 0.0
C471 C 0.20807 0.4181 0.84525 0.0
C472 C 0.25487 0.37653 0.94817 0.0
C473 C 0.17523 0.411 0.96578 0.0
C474 C 0.15466 0.31691 1.02421 0.0
C475 C 0.16142 0.31937 0.103 0.0
C476 C 0.17044 0.34083 0.97503 0.0
C477 C 0.1933 0.36759 1.00633 0.0
C478 C 0.19896 0.37022 0.08693 0.0
C479 C 0.18293 0.34596 0.1343 0.0
C480 C 0.16328 0.33718 0.88922 0.0
C481 C 0.2223 0.39799 0.12435 0.0
H482 H 0.26129 0.39643 0.80384 0.0
H483 H 0.19582 0.42803 0.81873 0.0
H484 H 0.25657 0.37897 1.01216 0.0
H485 H 0.24082 0.35339 0.93537 0.0
H486 H 0.27912 0.38501 0.92295 0.0
H487 H 0.17388 0.42982 0.94487 0.0
H488 H 0.15176 0.3916 0.95683 0.0
H489 H 0.17994 0.413 1.02907 0.0
H490 H 0.13756 0.2963 1.00117 0.0
H491 H 0.18743 0.34772 0.19622 0.0
H492 H 0.18473 0.34095 0.85593 0.0
H493 H 0.15673 0.35299 0.86873 0.0
H494 H 0.14355 0.31547 0.87553 0.0
H495 H 0.23253 0.41654 0.08377 0.0
H496 H 0.24193 0.39584 0.14947 0.0
H497 H 0.21042 0.40239 0.1734 0.0
C498 C 0.35679 0.17147 0.38267 0.0
C499 C 0.32906 0.15956 0.4314 0.0
C500 C 0.35634 0.17023 0.29777 0.0
C501 C 0.32736 0.15798 0.25348 0.0
C502 C 0.29929 0.14658 0.30286 0.0
C503 C 0.30048 0.14684 0.3877 0.0
C504 C 0.38799 0.18205 0.25654 0.0
C505 C 0.2669 0.13407 0.26729 0.0
C506 C 0.33917 0.18133 1.02462 0.0
C507 C 0.32467 0.15567 0.9807 0.0
C508 C 0.33945 0.18239 0.10947 0.0
C509 C 0.32642 0.15715 0.15864 0.0
C510 C 0.31242 0.13112 0.11413 0.0
C511 C 0.31106 0.13076 1.02923 0.0
C512 C 0.35378 0.2115 0.14532 0.0
C513 C 0.29883 0.10265 0.15512 0.0
H514 H 0.37957 0.1814 0.4112 0.0
H515 H 0.27827 0.13736 0.42026 0.0
H516 H 0.38583 0.17378 0.19676 0.0
H517 H 0.39957 0.20567 0.2537 0.0
H518 H 0.40395 0.17683 0.28968 0.0
H519 H 0.25154 0.13979 0.30193 0.0
H520 H 0.26788 0.14135 0.20645 0.0
H521 H 0.25536 0.11045 0.2686 0.0
H522 H 0.35 0.2013 0.99222 0.0
H523 H 0.29973 0.1103 1.00053 0.0
H524 H 0.38004 0.22155 0.14398 0.0
H525 H 0.34566 0.21071 0.20619 0.0
H526 H 0.34775 0.22551 0.11088 0.0
H527 H 0.30801 0.10445 0.21478 0.0
H528 H 0.3043 0.0881 0.12167 0.0
H529 H 0.27257 0.09257 0.15819 0.0
C530 C 0.80611 0.17211 0.3861 0.0
C531 C 0.82103 0.16041 0.43272 0.0
C532 C 0.80484 0.17099 0.30126 0.0
C533 C 0.82024 0.15906 0.25482 0.0
C534 C 0.83608 0.14787 0.302 0.0
C535 C 0.83552 0.14801 0.38693 0.0
C536 C 0.78594 0.18257 0.26249 0.0
C537 C 0.85462 0.13568 0.26387 0.0
C538 C 0.8054 0.13216 1.03033 0.0
C539 C 0.81923 0.15715 0.98208 0.0
C540 C 0.80479 0.13239 0.1153 0.0
C541 C 0.81987 0.15837 0.15999 0.0
C542 C 0.83462 0.18368 0.11105 0.0
C543 C 0.83339 0.18274 1.02624 0.0
C544 C 0.78699 0.10386 0.15622 0.0
C545 C 0.85272 0.21275 0.14705 0.0
H546 H 0.79429 0.18178 0.41634 0.0
H547 H 0.8475 0.13869 0.41781 0.0
H548 H 0.80047 0.2062 0.25961 0.0
H549 H 0.77865 0.17431 0.20292 0.0
H550 H 0.76425 0.17713 0.2974 0.0
H551 H 0.83999 0.11204 0.2649 0.0
H552 H 0.86151 0.14313 0.20288 0.0
H553 H 0.87653 0.14149 0.29688 0.0
H554 H 0.79395 0.11174 1.00143 0.0
H555 H 0.84462 0.20276 0.99402 0.0
H556 H 0.77999 0.10552 0.21664 0.0
H557 H 0.8022 0.09397 0.15734 0.0
H558 H 0.76521 0.08923 0.12388 0.0
H559 H 0.83749 0.22262 0.14788 0.0
H560 H 0.87419 0.22695 0.11143 0.0
H561 H 0.86028 0.21193 0.20714 0.0
C562 C 0.81688 0.69496 0.43072 0.0
C563 C 0.83202 0.68303 0.47558 0.0
C564 C 0.81555 0.69463 0.34592 0.0
C565 C 0.83119 0.68341 0.29767 0.0
C566 C 0.84727 0.67198 0.34306 0.0
C567 C 0.84674 0.67128 0.42805 0.0
C568 C 0.79635 0.7063 0.30919 0.0
C569 C 0.8661 0.66047 0.3029 0.0
C570 C 0.81625 0.65862 0.07155 0.0
C571 C 0.82969 0.68401 1.02493 0.0
C572 C 0.8158 0.65808 0.15649 0.0
C573 C 0.8307 0.68363 0.20284 0.0
C574 C 0.84506 0.70939 0.15555 0.0
C575 C 0.84367 0.70921 0.0707 0.0
C576 C 0.79838 0.62917 0.19557 0.0
C577 C 0.86294 0.73813 0.19338 0.0
H578 H 0.80493 0.70422 0.46239 0.0
H579 H 0.85898 0.66191 0.45753 0.0
H580 H 0.8107 0.72995 0.30764 0.0
H581 H 0.78898 0.6985 0.24929 0.0
H582 H 0.77469 0.70043 0.34472 0.0
H583 H 0.88815 0.66632 0.33527 0.0
H584 H 0.8518 0.63682 0.30265 0.0
H585 H 0.87276 0.66843 0.24222 0.0
H586 H 0.80502 0.63847 0.04133 0.0
H587 H 0.85466 0.72948 0.03979 0.0
H588 H 0.7913 0.63017 0.2564 0.0
H589 H 0.8139 0.61959 0.19521 0.0
H590 H 0.77669 0.61463 0.16282 0.0
H591 H 0.84753 0.74782 0.19561 0.0
H592 H 0.88436 0.75273 0.15818 0.0
H593 H 0.87052 0.73686 0.25312 0.0
C594 C 0.14825 0.40678 0.36854 0.0
C595 C 0.13893 0.37964 0.33899 0.0
C596 C 0.13958 0.425 0.33164 0.0
C597 C 0.12078 0.41571 0.2642 0.0
C598 C 0.11178 0.38855 0.23323 0.0
C599 C 0.12115 0.3709 0.27072 0.0
C600 C 0.15011 0.45402 0.3656 0.0
C601 C 0.09155 0.37779 0.1617 0.0
C602 C 0.06827 0.44738 0.22257 0.0
C603 C 0.08457 0.46624 0.16058 0.0
C604 C 0.07988 0.43091 0.25671 0.0
C605 C 0.10878 0.43362 0.22908 0.0
C606 C 0.12583 0.45313 0.16786 0.0
C607 C 0.11342 0.46911 0.13397 0.0
C608 C 0.06078 0.41012 0.32129 0.0
C609 C 0.15698 0.45687 0.13771 0.0
H610 H 0.16233 0.41383 0.42071 0.0
H611 H 0.11405 0.35004 0.24721 0.0
H612 H 0.16212 0.47086 0.32026 0.0
H613 H 0.12909 0.45507 0.38661 0.0
H614 H 0.16659 0.45886 0.41484 0.0
H615 H 0.0874 0.35652 0.14373 0.0
H616 H 0.0682 0.3762 0.17306 0.0
H617 H 0.10305 0.39306 0.11261 0.0
H618 H 0.04591 0.4449 0.24344 0.0
H619 H 0.12617 0.48364 0.08615 0.0
H620 H 0.07532 0.41508 0.37434 0.0
H621 H 0.05413 0.38811 0.30402 0.0
H622 H 0.03874 0.41058 0.33599 0.0
H623 H 0.17405 0.46276 0.18596 0.0
H624 H 0.1678 0.47354 0.09142 0.0
H625 H 0.15328 0.43644 0.11399 0.0
C626 C 0.50725 0.59103 0.1965 0.0
C627 C 0.4944 0.58555 0.12173 0.0
C628 C 0.51464 0.61644 0.23473 0.0
C629 C 0.50915 0.6369 0.19723 0.0
C630 C 0.49492 0.63094 0.12322 0.0
C631 C 0.4877 0.60535 0.08641 0.0
C632 C 0.52969 0.62194 0.31377 0.0
C633 C 0.48879 0.65222 0.08109 0.0
C634 C 0.51428 0.69841 0.31548 0.0
C635 C 0.54544 0.72015 0.29832 0.0
C636 C 0.50191 0.67119 0.28251 0.0
C637 C 0.52124 0.66563 0.23171 0.0
C638 C 0.55258 0.68758 0.21387 0.0
C639 C 0.56424 0.71447 0.24731 0.0
C640 C 0.46833 0.64831 0.30257 0.0
C641 C 0.57409 0.68257 0.1603 0.0
H642 H 0.51235 0.57581 0.22448 0.0
H643 H 0.47767 0.60129 1.02877 0.0
H644 H 0.55473 0.63953 0.30923 0.0
H645 H 0.51716 0.62879 0.35491 0.0
H646 H 0.52939 0.60278 0.33835 0.0
H647 H 0.47403 0.64297 1.02878 0.0
H648 H 0.47671 0.66015 0.1202 0.0
H649 H 0.51177 0.6709 0.06253 0.0
H650 H 0.49965 0.70259 0.35508 0.0
H651 H 0.58851 0.73094 0.23461 0.0
H652 H 0.46848 0.63 0.33136 0.0
H653 H 0.45433 0.64019 0.24877 0.0
H654 H 0.45615 0.6562 0.34168 0.0
H655 H 0.57836 0.66592 0.1856 0.0
H656 H 0.5974 0.70223 0.14998 0.0
H657 H 0.56254 0.67467 0.10343 0.0
C658 C 0.36875 0.93532 0.10575 0.0
C659 C 0.37951 0.92542 0.04408 0.0
C660 C 0.33837 0.9182 0.13859 0.0
C661 C 0.3185 0.89039 0.10973 0.0
C662 C 0.329 0.88045 0.04667 0.0
C663 C 0.35934 0.89816 1.01429 0.0
C664 C 0.32777 0.92965 0.2052 0.0
C665 C 0.3086 0.85081 1.01496 0.0
C666 C 0.25797 0.83872 0.25555 0.0
C667 C 0.23037 0.8389 0.23366 0.0
C668 C 0.28653 0.85456 0.21378 0.0
C669 C 0.28757 0.87119 0.14892 0.0
C670 C 0.2595 0.87056 0.12449 0.0
C671 C 0.23113 0.85428 0.16704 0.0
C672 C 0.31584 0.85427 0.24073 0.0
C673 C 0.25974 0.88801 0.0555 0.0
H674 H 0.3841 0.95646 0.12855 0.0
H675 H 0.36752 0.89036 0.96662 0.0
H676 H 0.30455 0.92787 0.19208 0.0
H677 H 0.3244 0.91675 0.25848 0.0
H678 H 0.34523 0.95233 0.21752 0.0
H679 H 0.31946 0.84695 0.96273 0.0
H680 H 0.30488 0.83471 0.06021 0.0
H681 H 0.28484 0.84736 0.99957 0.0
H682 H 0.25748 0.82664 0.30652 0.0
H683 H 0.20984 0.85444 0.1497 0.0
H684 H 0.33359 0.87577 0.26146 0.0
H685 H 0.32697 0.84906 0.19171 0.0
H686 H 0.31049 0.83858 0.2886 0.0
H687 H 0.27469 0.91107 0.06826 0.0
H688 H 0.2355 0.8836 0.04077 0.0
H689 H 0.27035 0.8836 1.00388 0.0
C690 C 0.4471 0.05391 0.88712 0.0
C691 C 0.44628 0.03198 0.84233 0.0
C692 C 0.43732 0.07225 0.85677 0.0
C693 C 0.4268 0.06888 0.77918 0.0
C694 C 0.4272 0.04759 0.7324 0.0
C695 C 0.43683 0.02925 0.76467 0.0
C696 C 0.4365 0.09415 0.90939 0.0
C697 C 0.41652 0.04367 0.64915 0.0
C698 C 0.36445 0.08982 0.74818 0.0
C699 C 0.38261 0.11812 0.72117 0.0
C700 C 0.37845 0.07331 0.76436 0.0
C701 C 0.41146 0.08507 0.75158 0.0
C702 C 0.4298 0.11313 0.72059 0.0
C703 C 0.41521 0.12957 0.70675 0.0
C704 C 0.35807 0.04376 0.79907 0.0
C705 C 0.46492 0.12599 0.70425 0.0
H706 H 0.45447 0.05627 0.94715 0.0
H707 H 0.43658 0.0126 0.72945 0.0
H708 H 0.44929 0.11562 0.88172 0.0
H709 H 0.4115 0.08877 0.91924 0.0
H710 H 0.44732 0.09518 0.96671 0.0
H711 H 0.41889 0.02654 0.62015 0.0
H712 H 0.3913 0.0382 0.64656 0.0
H713 H 0.43072 0.06398 0.61623 0.0
H714 H 0.33922 0.08076 0.7597 0.0
H715 H 0.42928 0.1513 0.68512 0.0
H716 H 0.36605 0.04311 0.85887 0.0
H717 H 0.36064 0.02777 0.76461 0.0
H718 H 0.33249 0.03729 0.80183 0.0
H719 H 0.4778 0.13025 0.75984 0.0
H720 H 0.47486 0.14635 0.67076 0.0
H721 H 0.4695 0.11081 0.67131 0.0
C722 C 0.89803 0.32587 0.67968 0.0
C723 C 0.86944 0.30985 0.72108 0.0
C724 C 0.92054 0.35335 0.70389 0.0
C725 C 0.91404 0.36471 0.77091 0.0
C726 C 0.88356 0.34989 0.80681 0.0
C727 C 0.86163 0.32241 0.78169 0.0
C728 C 0.9526 0.36863 0.66354 0.0
C729 C 0.87541 0.36145 0.87754 0.0
C730 C 0.97943 0.40487 0.91562 0.0
C731 C -0.01297 0.433 0.90142 0.0
C732 C 0.95678 0.38264 0.87054 0.0
C733 C 0.94051 0.38873 0.81222 0.0
C734 C 0.94842 0.41729 0.79734 0.0
C735 C 0.97212 0.43924 0.84141 0.0
C736 C 0.94933 0.35247 0.88756 0.0
C737 C 0.93052 0.42442 0.73862 0.0
H738 H 0.90413 0.31583 0.63351 0.0
H739 H 0.83961 0.30973 0.81411 0.0
H740 H 0.96106 0.39175 0.65699 0.0
H741 H 0.97016 0.36643 0.69928 0.0
H742 H 0.95199 0.35965 0.60527 0.0
H743 H 0.84933 0.35054 0.88829 0.0
H744 H 0.8866 0.35807 0.92932 0.0
H745 H 0.88467 0.38472 0.87131 0.0
H746 H -0.00918 0.40027 0.96292 0.0
H747 H 0.97766 0.46111 0.83212 0.0
H748 H 0.95094 0.34222 0.83339 0.0
H749 H 0.92464 0.33965 0.91048 0.0
H750 H 0.9657 0.35168 0.93078 0.0
H751 H 0.92951 0.41419 0.68228 0.0
H752 H 0.94128 0.4478 0.72935 0.0
H753 H 0.90564 0.41582 0.7592 0.0
C754 C 0.71402 0.60244 0.76444 0.0
C755 C 0.73128 0.63189 0.74988 0.0
C756 C 0.68105 0.5885 0.77777 0.0
C757 C 0.66523 0.60451 0.77655 0.0
C758 C 0.68214 0.63372 0.75522 0.0
C759 C 0.71497 0.64706 0.74214 0.0
C760 C 0.66364 0.55719 0.79937 0.0
C761 C 0.66615 0.6515 0.7527 0.0
C762 C 0.5753 0.56522 0.80218 0.0
C763 C 0.57252 0.56628 0.88305 0.0
C764 C 0.60539 0.57797 0.76573 0.0
C765 C 0.63298 0.59223 0.81155 0.0
C766 C 0.63007 0.59443 0.89277 0.0
C767 C 0.59989 0.5813 0.92746 0.0
C768 C 0.60763 0.57511 0.67906 0.0
C769 C 0.65888 0.60993 0.94362 0.0
H770 H 0.72643 0.59055 0.76948 0.0
H771 H 0.72807 0.66977 0.72922 0.0
H772 H 0.65809 0.5547 0.86261 0.0
H773 H 0.64077 0.54574 0.76832 0.0
H774 H 0.67797 0.54692 0.78589 0.0
H775 H 0.68123 0.67241 0.72299 0.0
H776 H 0.64307 0.63998 0.72259 0.0
H777 H 0.6612 0.65558 0.81291 0.0
H778 H 0.55408 0.55334 0.76795 0.0
H779 H 0.5977 0.58229 0.98999 0.0
H780 H 0.61646 0.56014 0.6672 0.0
H781 H 0.62483 0.59596 0.65204 0.0
H782 H 0.58425 0.56686 0.65071 0.0
H783 H 0.67327 0.59924 0.94094 0.0
H784 H 0.65237 0.61054 1.00534 0.0
H785 H 0.67416 0.63218 0.92232 0.0
C786 C 0.89716 0.57274 0.72678 0.0
C787 C 0.88025 0.57662 0.78733 0.0
C788 C 0.91686 0.56117 0.74184 0.0
C789 C 0.91973 0.5537 0.81912 0.0
C790 C 0.90087 0.5557 0.87916 0.0
C791 C 0.88115 0.56687 0.86229 0.0
C792 C 0.9357 0.55823 0.67603 0.0
C793 C 0.90305 0.54786 0.96239 0.0
C794 C 0.95554 0.50985 0.88785 0.0
C795 C 0.98495 0.53119 0.91494 0.0
C796 C 0.93517 0.51687 0.84891 0.0
C797 C 0.94403 0.54592 0.83984 0.0
C798 C 0.97463 0.56755 0.86308 0.0
C799 C -0.00499 0.55985 0.89946 0.0
C800 C 0.90338 0.49315 0.82239 0.0
C801 C 0.9849 0.59879 0.85492 0.0
H802 H 0.89648 0.58029 0.66876 0.0
H803 H 0.86768 0.5695 0.90886 0.0
H804 H 0.96143 0.5732 0.68423 0.0
H805 H 0.93216 0.53632 0.67584 0.0
H806 H 0.92886 0.56274 0.61856 0.0
H807 H 0.88599 0.54984 1.0016 0.0
H808 H 0.89832 0.52561 0.9661 0.0
H809 H 0.92745 0.562 0.98389 0.0
H810 H 0.94817 0.4876 0.89856 0.0
H811 H 0.01795 0.57624 0.92004 0.0
H812 H 0.89686 0.49862 0.7659 0.0
H813 H 0.88477 0.48991 0.86565 0.0
H814 H 0.90334 0.4727 0.81649 0.0
H815 H 0.9807 0.60373 0.7951 0.0
H816 H 0.01042 0.61284 0.86847 0.0
H817 H 0.97052 0.60391 0.89515 0.0
C818 C 0.44808 0.42397 0.84134 0.0
C819 C 0.47773 0.44536 0.86677 0.0
C820 C 0.44453 0.39875 0.80939 0.0
C821 C 0.47149 0.39538 0.8004 0.0
C822 C 0.5019 0.41803 0.82008 0.0
C823 C 0.50457 0.44256 0.85463 0.0
C824 C 0.41164 0.37508 0.78942 0.0
C825 C 0.53136 0.41581 0.80804 0.0
C826 C 0.45144 0.31885 0.82658 0.0
C827 C 0.44551 0.30895 0.75005 0.0
C828 C 0.4616 0.34739 0.84331 0.0
C829 C 0.46697 0.36678 0.78169 0.0
C830 C 0.46448 0.35762 0.70376 0.0
C831 C 0.45341 0.32862 0.68876 0.0
C832 C 0.46385 0.35609 0.92734 0.0
C833 C 0.47118 0.37778 0.63619 0.0
H834 H 0.42738 0.42627 0.85049 0.0
H835 H 0.52762 0.45939 0.87324 0.0
H836 H 0.41135 0.36811 0.72884 0.0
H837 H 0.40486 0.35637 0.82814 0.0
H838 H 0.39348 0.38169 0.79571 0.0
H839 H 0.55342 0.43682 0.81362 0.0
H840 H 0.53181 0.40093 0.85187 0.0
H841 H 0.53128 0.40708 0.74979 0.0
H842 H 0.44591 0.30373 0.874 0.0
H843 H 0.44892 0.32108 0.62946 0.0
H844 H 0.44533 0.36178 0.9405 0.0
H845 H 0.48725 0.37522 0.93838 0.0
H846 H 0.46057 0.3388 0.96811 0.0
H847 H 0.44942 0.37874 0.6234 0.0
H848 H 0.47786 0.37031 0.58308 0.0
H849 H 0.49052 0.39968 0.64939 0.0
C850 C 0.70177 0.13182 0.72504 0.0
C851 C 0.72033 0.1189 0.71503 0.0
C852 C 0.66912 0.11522 0.74243 0.0
C853 C 0.65516 0.08525 0.75133 0.0
C854 C 0.67339 0.07205 0.73642 0.0
C855 C 0.70563 0.089 0.71766 0.0
C856 C 0.65002 0.12986 0.7556 0.0
C857 C 0.65954 0.04019 0.74608 0.0
C858 C 0.58979 0.04621 0.90112 0.0
C859 C 0.56355 0.02995 0.85421 0.0
C860 C 0.6196 0.06492 0.86808 0.0
C861 C 0.62296 0.06796 0.78618 0.0
C862 C 0.59625 0.05233 0.73853 0.0
C863 C 0.56687 0.03311 0.7732 0.0
C864 C 0.64771 0.08066 0.92082 0.0
C865 C 0.59876 0.05567 0.65119 0.0
H866 H 0.71291 0.15487 0.72211 0.0
H867 H 0.71965 0.07872 0.70892 0.0
H868 H 0.6266 0.118 0.72708 0.0
H869 H 0.64549 0.13022 0.81875 0.0
H870 H 0.66265 0.1522 0.73323 0.0
H871 H 0.67626 0.03307 0.72627 0.0
H872 H 0.65359 0.03414 0.80827 0.0
H873 H 0.63723 0.02841 0.7131 0.0
H874 H 0.58717 0.04378 0.96379 0.0
H875 H 0.54644 0.02079 0.73698 0.0
H876 H 0.65935 0.10398 0.90978 0.0
H877 H 0.66559 0.07412 0.90841 0.0
H878 H 0.64084 0.07644 0.98331 0.0
H879 H 0.60946 0.07854 0.63472 0.0
H880 H 0.57527 0.04343 0.62301 0.0
H881 H 0.61465 0.04822 0.62783 0.0
C882 C 0.49492 0.89722 1.03121 0.0
C883 C 0.5013 0.92323 0.06393 0.0
C884 C 0.50433 0.8795 0.06826 0.0
C885 C 0.5208 0.88814 0.13928 0.0
C886 C 0.52757 0.9145 0.17217 0.0
C887 C 0.51759 0.93163 0.13436 0.0
C888 C 0.4964 0.85142 1.03182 0.0
C889 C 0.5454 0.92464 0.24738 0.0
C890 C 0.52144 0.8343 0.28064 0.0
C891 C 0.5517 0.83782 0.26681 0.0
C892 C 0.51066 0.84983 0.23766 0.0
C893 C 0.53072 0.86959 0.18001 0.0
C894 C 0.56091 0.87263 0.16417 0.0
C895 C 0.57097 0.85661 0.20748 0.0
C896 C 0.4781 0.84565 0.25542 0.0
C897 C 0.58306 0.89355 0.10338 0.0
H898 H 0.48227 0.89054 0.97689 0.0
H899 H 0.52278 0.95176 0.15985 0.0
H900 H 0.51846 0.85065 1.0206 0.0
H901 H 0.48141 0.83357 0.07248 0.0
H902 H 0.48358 0.84786 0.97624 0.0
H903 H 0.54935 0.94593 0.26441 0.0
H904 H 0.53199 0.90914 0.29485 0.0
H905 H 0.56881 0.92586 0.24181 0.0
H906 H 0.5063 0.81969 0.32599 0.0
H907 H 0.59437 0.85946 0.19626 0.0
H908 H 0.46418 0.84093 0.20136 0.0
H909 H 0.48046 0.86559 0.27937 0.0
H910 H 0.46455 0.82803 0.29801 0.0
H911 H 0.57091 0.88956 0.0468 0.0
H912 H 0.60503 0.8923 0.09529 0.0
H913 H 0.5899 0.91561 0.1206 0.0
C914 C 0.10692 0.70686 0.25094 0.0
C915 C 0.12514 0.71819 0.31775 0.0
C916 C 0.09865 0.67959 0.22472 0.0
C917 C 0.10801 0.66275 0.2677 0.0
C918 C 0.12572 0.67367 0.33642 0.0
C919 C 0.13435 0.70142 0.36033 0.0
C920 C 0.07983 0.66882 0.15096 0.0
C921 C 0.13545 0.65602 0.3846 0.0
C922 C 0.05933 0.58331 0.22832 0.0
C923 C 0.07861 0.57973 0.17363 0.0
C924 C 0.06903 0.61007 0.26124 0.0
C925 C 0.09898 0.63367 0.24019 0.0
C926 C 0.11911 0.62992 0.18758 0.0
C927 C 0.10869 0.60301 0.1549 0.0
C928 C 0.04672 0.61333 0.3163 0.0
C929 C 0.15098 0.65468 0.16268 0.0
H930 H 0.09899 0.71933 0.21896 0.0
H931 H 0.14818 0.70991 0.41246 0.0
H932 H 0.0931 0.66331 0.10827 0.0
H933 H 0.0569 0.64907 0.1634 0.0
H934 H 0.07479 0.68477 0.12379 0.0
H935 H 0.14892 0.66749 0.43687 0.0
H936 H 0.11404 0.63586 0.40354 0.0
H937 H 0.15039 0.65011 0.34907 0.0
H938 H 0.03609 0.56544 0.24338 0.0
H939 H 0.12375 0.60046 0.11269 0.0
H940 H 0.02325 0.59348 0.32134 0.0
H941 H 0.0428 0.63083 0.29643 0.0
H942 H 0.0575 0.61913 0.37465 0.0
H943 H 0.14741 0.67042 0.12923 0.0
H944 H 0.16479 0.64783 0.12588 0.0
H945 H 0.16523 0.66578 0.21427 0.0
C946 C 0.37035 0.45963 0.09571 0.0
C947 C 0.39815 0.45912 0.11345 0.0
C948 C 0.34174 0.44196 0.13565 0.0
C949 C 0.34081 0.42299 0.19391 0.0
C950 C 0.36859 0.42184 0.21079 0.0
C951 C 0.39703 0.44012 0.17081 0.0
C952 C 0.31254 0.44357 0.11511 0.0
C953 C 0.36843 0.40167 0.27194 0.0
C954 C 0.27729 0.39928 0.35134 0.0
C955 C 0.25428 0.37231 0.32522 0.0
C956 C 0.30557 0.41592 0.30911 0.0
C957 C 0.31108 0.40524 0.23939 0.0
C958 C 0.28805 0.37796 0.21286 0.0
C959 C 0.25987 0.3618 0.25612 0.0
C960 C 0.32933 0.44516 0.33839 0.0
C961 C 0.29333 0.36565 0.13949 0.0
H962 H 0.37097 0.47411 0.05106 0.0
H963 H 0.4184 0.43952 0.18464 0.0
H964 H 0.29551 0.42376 0.08501 0.0
H965 H 0.3005 0.44523 0.16828 0.0
H966 H 0.31823 0.46201 0.0762 0.0
H967 H 0.39066 0.40061 0.27045 0.0
H968 H 0.36581 0.40888 0.33034 0.0
H969 H 0.34797 0.37985 0.26396 0.0
H970 H 0.27307 0.4076 0.40447 0.0
H971 H 0.2422 0.34094 0.23563 0.0
H972 H 0.33316 0.46162 0.29413 0.0
H973 H 0.35258 0.44653 0.34785 0.0
H974 H 0.32142 0.45033 0.39365 0.0
H975 H 0.30165 0.38152 0.09122 0.0
H976 H 0.27143 0.34609 0.12116 0.0
H977 H 0.31217 0.36016 0.14943 0.0
C978 C 0.73963 0.76515 0.79231 0.0
C979 C 0.7681 0.77996 0.74959 0.0
C980 C 0.71291 0.76702 0.77126 0.0
C981 C 0.71514 0.78416 0.70649 0.0
C982 C 0.74509 0.80214 0.67049 0.0
C983 C 0.77128 0.79965 0.69223 0.0
C984 C 0.68158 0.74834 0.81254 0.0
C985 C 0.74868 0.82139 0.60266 0.0
C986 C 0.65043 0.75783 0.55702 0.0
C987 C 0.63755 0.77538 0.57055 0.0
C988 C 0.67403 0.75895 0.60538 0.0
C989 C 0.68596 0.77914 0.66618 0.0
C990 C 0.67224 0.79633 0.68141 0.0
C991 C 0.64745 0.79364 0.63447 0.0
C992 C 0.68774 0.73993 0.58783 0.0
C993 C 0.68499 0.81871 0.74378 0.0
H994 H 0.73726 0.74977 0.83634 0.0
H995 H 0.79334 0.81093 0.65912 0.0
H996 H 0.67058 0.7612 0.82952 0.0
H997 H 0.665 0.73148 0.77274 0.0
H998 H 0.68432 0.73793 0.86537 0.0
H999 H 0.774 0.83735 0.59034 0.0
H1000 H 0.73861 0.80828 0.55002 0.0
H1001 H 0.73546 0.83283 0.61377 0.0
H1002 H 0.64288 0.74403 0.50688 0.0
H1003 H 0.63761 0.80749 0.64385 0.0
H1004 H 0.6884 0.72879 0.64148 0.0
H1005 H 0.71254 0.7531 0.5659 0.0
H1006 H 0.67383 0.72367 0.54354 0.0
H1007 H 0.67801 0.80821 0.80179 0.0
H1008 H 0.67587 0.83377 0.73815 0.0
H1009 H 0.71133 0.83124 0.74143 0.0
C1010 C 0.1881 0.98917 0.66956 0.0
C1011 C 0.19994 0.01316 0.6206 0.0
C1012 C 0.17535 0.96172 0.63814 0.0
C1013 C 0.17513 0.95861 0.55635 0.0
C1014 C 0.18388 0.98252 0.50724 0.0
C1015 C 0.19581 0.00948 0.54016 0.0
C1016 C 0.16506 0.93652 0.69236 0.0
C1017 C 0.18428 0.98031 0.41983 0.0
C1018 C 0.19452 0.90351 0.47975 0.0
C1019 C 0.16522 0.88282 0.45074 0.0
C1020 C 0.19795 0.92827 0.51422 0.0
C1021 C 0.17111 0.93188 0.52222 0.0
C1022 C 0.14129 0.91074 0.49431 0.0
C1023 C 0.13881 0.88661 0.45768 0.0
C1024 C 0.23039 0.95069 0.54144 0.0
C1025 C 0.112 0.91342 0.50418 0.0
H1026 H 0.19126 -0.00797 0.73178 0.0
H1027 H 0.20477 0.02814 0.50249 0.0
H1028 H 0.14342 0.91751 0.67078 0.0
H1029 H 0.18418 0.93105 0.69539 0.0
H1030 H 0.16025 0.94124 0.75207 0.0
H1031 H 0.18741 -0.00012 0.39029 0.0
H1032 H 0.20424 0.97709 0.4019 0.0
H1033 H 0.16202 0.96173 0.39931 0.0
H1034 H 0.21485 0.90043 0.4747 0.0
H1035 H 0.11594 0.87023 0.43673 0.0
H1036 H 0.22965 0.95378 0.60491 0.0
H1037 H 0.23752 0.97145 0.51247 0.0
H1038 H 0.24891 0.9449 0.52907 0.0
H1039 H 0.10789 0.91555 0.56669 0.0
H1040 H 0.09042 0.89472 0.4809 0.0
H1041 H 0.11545 0.93297 0.47417 0.0
C1042 C 0.93511 0.22763 0.69316 0.0
C1043 C 0.9197 0.19779 0.70105 0.0
C1044 C 0.9677 0.24371 0.67689 0.0
C1045 C 0.98547 0.22968 0.66933 0.0
C1046 C 0.97065 0.19988 0.68343 0.0
C1047 C 0.93777 0.18418 0.69866 0.0
C1048 C 0.98246 0.2754 0.66151 0.0
C1049 C -0.01092 0.18433 0.67751 0.0
C1050 C 0.05149 0.26225 0.51871 0.0
C1051 C 0.07824 0.27849 0.56428 0.0
C1052 C 0.02132 0.24595 0.55263 0.0
C1053 C 0.01787 0.24542 0.63445 0.0
C1054 C 0.04487 0.26131 0.68115 0.0
C1055 C 0.07484 0.27802 0.64532 0.0
C1056 C -0.00697 0.22983 0.50056 0.0
C1057 C 0.04206 0.26075 0.76862 0.0
H1058 H 0.92145 0.23845 0.69607 0.0
H1059 H 0.9261 0.16119 0.70576 0.0
H1060 H 0.00505 0.28751 0.69325 0.0
H1061 H -0.01189 0.27985 0.59858 0.0
H1062 H 0.96637 0.28352 0.67869 0.0
H1063 H 0.9757 0.16251 0.70331 0.0
H1064 H -0.00589 0.18247 0.61548 0.0
H1065 H 0.01225 0.1964 0.70703 0.0
H1066 H 0.05402 0.26268 0.45597 0.0
H1067 H 0.0956 0.29037 0.68063 0.0
H1068 H 0.97598 0.23757 0.50927 0.0
H1069 H 0.98041 0.20677 0.51578 0.0
H1070 H -7e-05 0.23233 0.43805 0.0
H1071 H 0.02739 0.2702 0.78674 0.0
H1072 H 0.0656 0.27274 0.79668 0.0
H1073 H 0.02982 0.23837 0.79047 0.0
C1074 C 0.23673 0.18207 0.69755 0.0
C1075 C 0.26988 0.19558 0.68967 0.0
C1076 C 0.22053 0.19675 0.67961 0.0
C1077 C 0.23792 0.22528 0.65175 0.0
C1078 C 0.27146 0.2393 0.64662 0.0
C1079 C 0.28701 0.22437 0.66636 0.0
C1080 C 0.18478 0.18142 0.68766 0.0
C1081 C 0.29089 0.26959 0.61612 0.0
C1082 C 0.20107 0.25324 0.50915 0.0
C1083 C 0.19755 0.27295 0.55437 0.0
C1084 C 0.21317 0.23685 0.54104 0.0
C1085 C 0.2213 0.23981 0.62054 0.0
C1086 C 0.21644 0.25873 0.66743 0.0
C1087 C 0.20497 0.2754 0.63348 0.0
C1088 C 0.21864 0.21736 0.48868 0.0
C1089 C 0.22418 0.26195 0.75279 0.0
H1090 H 0.2234 0.15991 0.71625 0.0
H1091 H 0.31267 0.23506 0.66036 0.0
H1092 H 0.17713 0.19502 0.71821 0.0
H1093 H 0.17405 0.17701 0.62917 0.0
H1094 H 0.17526 0.16084 0.71987 0.0
H1095 H 0.31687 0.27785 0.61962 0.0
H1096 H 0.28493 0.27052 0.55449 0.0
H1097 H 0.28516 0.28398 0.64922 0.0
H1098 H 0.1954 0.25132 0.44792 0.0
H1099 H 0.20189 0.29039 0.66879 0.0
H1100 H 0.20673 0.19538 0.51329 0.0
H1101 H 0.24446 0.22487 0.48469 0.0
H1102 H 0.20971 0.21656 0.42905 0.0
H1103 H 0.21367 0.24068 0.78156 0.0
H1104 H 0.21533 0.27476 0.783 0.0
H1105 H 0.2503 0.27263 0.75997 0.0
C1106 C 0.67237 0.87421 0.57299 0.0
C1107 C 0.64659 0.87452 0.53838 0.0
C1108 C 0.69532 0.89798 0.61301 0.0
C1109 C 0.69278 0.92286 0.6162 0.0
C1110 C 0.66574 0.92263 0.58481 0.0
C1111 C 0.64265 0.89819 0.54679 0.0
C1112 C 0.72309 0.89701 0.64815 0.0
C1113 C 0.66235 0.94886 0.58636 0.0
C1114 C 0.74503 0.98891 0.734 0.0
C1115 C 0.76633 0.0068 0.67622 0.0
C1116 C 0.72211 0.96054 0.71724 0.0
C1117 C 0.7204 0.9503 0.64084 0.0
C1118 C 0.74369 0.96761 0.58456 0.0
C1119 C 0.76656 -0.00445 0.6033 0.0
C1120 C 0.69834 0.9424 0.77949 0.0
C1121 C 0.74288 0.95756 0.50242 0.0
H1122 H 0.67501 0.85557 0.56681 0.0
H1123 H 0.62259 0.89819 0.51981 0.0
H1124 H 0.74542 0.91233 0.6173 0.0
H1125 H 0.72565 0.90351 0.70988 0.0
H1126 H 0.7204 0.87541 0.645 0.0
H1127 H 0.63884 0.9445 0.56513 0.0
H1128 H 0.66552 0.95727 0.64619 0.0
H1129 H 0.68118 0.96584 0.54913 0.0
H1130 H 0.74474 -0.00235 0.79033 0.0
H1131 H 0.78323 0.00941 0.55889 0.0
H1132 H 0.69312 0.91998 0.77687 0.0
H1133 H 0.67572 0.94227 0.77029 0.0
H1134 H 0.70695 0.95077 0.83847 0.0
H1135 H 0.74208 0.93673 0.50264 0.0
H1136 H 0.76383 0.97304 0.46718 0.0
H1137 H 0.72106 0.95443 0.47358 0.0
C1138 C 0.94631 0.76258 0.70692 0.0
C1139 C 0.93007 0.73537 0.74139 0.0
C1140 C 0.97745 0.77356 0.6783 0.0
C1141 C -0.00785 0.75671 0.6839 0.0
C1142 C 0.9773 0.73093 0.72719 0.0
C1143 C 0.9464 0.72059 0.75576 0.0
C1144 C -0.00648 0.80195 0.63607 0.0
C1145 C -0.00729 0.71285 0.73651 0.0
C1146 C 0.03954 0.75822 0.50704 0.0
C1147 C 0.07074 0.77374 0.53342 0.0
C1148 C 0.01386 0.75243 0.55607 0.0
C1149 C 0.01964 0.76309 0.63278 0.0
C1150 C 0.05117 0.77887 0.65982 0.0
C1151 C 0.07641 0.78358 0.61006 0.0
C1152 C 0.98051 0.73493 0.52552 0.0
C1153 C 0.05857 0.79085 0.74078 0.0
H1154 H 0.93397 0.77432 0.69693 0.0
H1155 H 0.9342 0.69986 0.78444 0.0
H1156 H 0.01884 0.81466 0.65291 0.0
H1157 H -0.00705 0.79838 0.57253 0.0
H1158 H 0.98162 0.81451 0.64826 0.0
H1159 H 0.97956 0.69499 0.77871 0.0
H1160 H -0.00647 0.70374 0.67949 0.0
H1161 H 0.01753 0.7261 0.75627 0.0
H1162 H 0.03519 0.75056 0.44782 0.0
H1163 H 0.10063 0.79581 0.6304 0.0
H1164 H 0.96846 0.74773 0.52641 0.0
H1165 H 0.96645 0.7159 0.56338 0.0
H1166 H 0.98018 0.72762 0.46517 0.0
H1167 H 0.03987 0.79474 0.76502 0.0
H1168 H 0.08159 0.81124 0.74133 0.0
H1169 H 0.06069 0.77548 0.77964 0.0
loop_
_geom_bond_atom_site_label_1
_geom_bond_atom_site_label_2
_geom_bond_distance
_geom_bond_site_symmetry_2
_ccdc_geom_bond_type
C0 O16 1.251 1_554 S
C0 O18 1.254 . S
N1 C2 1.333 . S
N1 C6 1.307 . S
N1 Zn7 2.020 . S
C2 N1 1.333 . S
C2 C3 1.379 . S
C2 H20 0.952 . S
C3 C2 1.379 . S
C3 C4 1.390 . S
C3 H30 0.949 . S
C4 C3 1.390 . S
C4 C5 1.357 . S
C5 C4 1.357 . S
C5 C6 1.370 . S
C5 H31 0.950 . S
C6 N1 1.307 . S
C6 C5 1.370 . S
C6 H24 0.948 . S
Zn7 N1 2.020 . S
Zn7 O16 2.039 . S
Zn7 O22 2.034 . S
Zn7 O26 2.025 1_556 S
Zn7 O28 2.024 1_556 S
C8 O27 1.246 . S
C8 O28 1.249 . S
N9 C10 1.307 1_455 S
N9 C11 1.333 . S
N9 Zn15 2.020 . S
C10 N9 1.307 1_655 S
C10 C14 1.370 . S
C10 H21 0.948 . S
C11 N9 1.333 . S
C11 C12 1.379 . S
C11 H19 0.952 . S
C12 C11 1.379 . S
C12 C13 1.390 1_455 S
C12 H32 0.949 . S
C13 C12 1.390 1_655 S
C13 C14 1.357 . S
C14 C10 1.370 . S
C14 C13 1.357 . S
C14 H33 0.950 . S
Zn15 N9 2.020 . S
Zn15 O18 2.025 . S
Zn15 O23 2.026 . S
Zn15 O25 2.039 . S
Zn15 O27 2.034 . S
O16 C0 1.251 1_556 S
O16 Zn7 2.039 . S
C17 O22 1.246 1_554 S
C17 O23 1.251 . S
O18 C0 1.254 . S
O18 Zn15 2.025 . S
H19 C11 0.952 . S
H20 C2 0.952 . S
H21 C10 0.948 . S
O22 Zn7 2.034 . S
O22 C17 1.246 1_556 S
O23 Zn15 2.026 . S
O23 C17 1.251 . S
H24 C6 0.948 . S
O25 Zn15 2.039 . S
O25 C29 1.251 . S
O26 Zn7 2.025 1_554 S
O26 C29 1.254 . S
O27 C8 1.246 . S
O27 Zn15 2.034 . S
O28 Zn7 2.024 1_554 S
O28 C8 1.249 . S
C29 O25 1.251 . S
C29 O26 1.254 . S
H30 C3 0.949 . S
H31 C5 0.950 . S
H32 C12 0.949 . S
H33 C14 0.950 . S
C34 O50 1.251 . S
C34 O52 1.248 1_554 S
N35 C36 1.333 . S
N35 C40 1.307 . S
N35 Zn41 2.020 . S
C36 N35 1.333 . S
C36 C37 1.379 . S
C36 H54 0.952 . S
C37 C36 1.379 . S
C37 C38 1.390 . S
C37 H64 0.949 . S
C38 C37 1.390 . S
C38 C39 1.357 . S
C39 C38 1.357 . S
C39 C40 1.370 . S
C39 H65 0.950 . S
C40 N35 1.307 . S
C40 C39 1.370 . S
C40 H58 0.948 . S
Zn41 N35 2.020 . S
Zn41 O50 2.039 . S
Zn41 O56 2.034 . S
Zn41 O60 2.025 . S
Zn41 O62 2.024 . S
C42 O61 1.246 1_554 S
C42 O62 1.249 . S
N43 C44 1.307 . S
N43 C45 1.333 . S
N43 Zn49 2.020 . S
C44 N43 1.307 . S
C44 C48 1.370 . S
C44 H55 0.948 . S
C45 N43 1.333 . S
C45 C46 1.379 . S
C45 H53 0.952 . S
C46 C45 1.379 . S
C46 C47 1.390 . S
C46 H66 0.949 . S
C47 C46 1.390 . S
C47 C48 1.357 . S
C48 C44 1.370 . S
C48 C47 1.357 . S
C48 H67 0.950 . S
Zn49 N43 2.020 . S
Zn49 O52 2.028 . S
Zn49 O57 2.024 . S
Zn49 O59 2.039 . S
Zn49 O61 2.034 . S
O50 C34 1.251 . S
O50 Zn41 2.039 . S
C51 O56 1.246 . S
C51 O57 1.249 1_554 S
O52 C34 1.248 1_556 S
O52 Zn49 2.028 . S
H53 C45 0.952 . S
H54 C36 0.952 . S
H55 C44 0.948 . S
O56 Zn41 2.034 . S
O56 C51 1.246 . S
O57 Zn49 2.024 . S
O57 C51 1.249 1_556 S
H58 C40 0.948 . S
O59 Zn49 2.039 . S
O59 C63 1.251 . S
O60 Zn41 2.025 . S
O60 C63 1.254 1_554 S
O61 C42 1.246 1_556 S
O61 Zn49 2.034 . S
O62 Zn41 2.024 . S
O62 C42 1.249 . S
C63 O59 1.251 . S
C63 O60 1.254 1_556 S
H64 C37 0.949 . S
H65 C39 0.950 . S
H66 C46 0.949 . S
H67 C48 0.950 . S
C68 O84 1.251 . S
C68 O86 1.254 1_556 S
N69 C70 1.333 1_565 S
N69 C74 1.307 . S
N69 Zn75 2.011 1_565 S
C70 N69 1.333 1_545 S
C70 C71 1.379 . S
C70 H88 0.952 . S
C71 C70 1.379 . S
C71 C72 1.390 1_545 S
C71 H98 0.949 . S
C72 C71 1.390 1_565 S
C72 C73 1.357 . S
C73 C72 1.357 . S
C73 C74 1.370 . S
C73 H99 0.950 . S
C74 N69 1.307 . S
C74 C73 1.370 . S
C74 H92 0.948 . S
Zn75 N69 2.011 1_545 S
Zn75 O84 2.049 . S
Zn75 O90 2.072 . S
Zn75 O94 2.020 1_545 S
Zn75 O96 1.990 1_545 S
C76 O95 1.246 . S
C76 O96 1.249 1_554 S
N77 C78 1.307 . S
N77 C79 1.333 . S
N77 Zn83 2.020 . S
C78 N77 1.307 . S
C78 C82 1.370 . S
C78 H89 0.948 . S
C79 N77 1.333 . S
C79 C80 1.379 . S
C79 H87 0.952 1_545 S
C80 C79 1.379 . S
C80 C81 1.390 . S
C80 H100 0.949 . S
C81 C80 1.390 . S
C81 C82 1.357 . S
C82 C78 1.370 . S
C82 C81 1.357 . S
C82 H101 0.950 . S
Zn83 N77 2.020 . S
Zn83 O86 2.025 . S
Zn83 O91 2.024 . S
Zn83 O93 2.039 1_545 S
Zn83 O95 2.034 1_545 S
O84 C68 1.251 . S
O84 Zn75 2.049 . S
C85 O90 1.246 . S
C85 O91 1.249 1_556 S
O86 C68 1.254 1_554 S
O86 Zn83 2.025 . S
H87 C79 0.952 1_565 S
H88 C70 0.952 . S
H89 C78 0.948 . S
O90 Zn75 2.072 . S
O90 C85 1.246 . S
O91 Zn83 2.024 . S
O91 C85 1.249 1_554 S
H92 C74 0.948 . S
O93 Zn83 2.039 1_565 S
O93 C97 1.251 . S
O94 Zn75 2.020 1_565 S
O94 C97 1.254 1_556 S
O95 C76 1.246 . S
O95 Zn83 2.034 1_565 S
O96 Zn75 1.990 1_565 S
O96 C76 1.249 1_556 S
C97 O93 1.251 . S
C97 O94 1.254 1_554 S
H98 C71 0.949 . S
H99 C73 0.950 . S
H100 C80 0.949 . S
H101 C82 0.950 . S
C102 O118 1.251 . S
C102 O120 1.254 . S
N103 C104 1.333 . S
N103 C108 1.307 . S
N103 Zn109 2.020 . S
C104 N103 1.333 . S
C104 C105 1.379 1_554 S
C104 H122 0.952 . S
C105 C104 1.379 1_556 S
C105 C106 1.390 . S
C105 H132 0.949 . S
C106 C105 1.390 . S
C106 C107 1.357 1_556 S
C107 C106 1.357 1_554 S
C107 C108 1.370 . S
C107 H133 0.950 . S
C108 N103 1.307 . S
C108 C107 1.370 . S
C108 H126 0.948 . S
Zn109 N103 2.020 . S
Zn109 O118 2.039 . S
Zn109 O124 2.034 . S
Zn109 O128 2.025 . S
Zn109 O130 2.024 . S
C110 O129 1.246 . S
C110 O130 1.249 . S
N111 C112 1.307 . S
N111 C113 1.333 . S
N111 Zn117 2.020 . S
C112 N111 1.307 . S
C112 C116 1.370 . S
C112 H123 0.948 . S
C113 N111 1.333 . S
C113 C114 1.379 . S
C113 H121 0.952 . S
C114 C113 1.379 . S
C114 C115 1.390 . S
C114 H134 0.949 . S
C115 C114 1.390 . S
C115 C116 1.357 . S
C116 C112 1.370 . S
C116 C115 1.357 . S
C116 H135 0.950 . S
Zn117 N111 2.020 . S
Zn117 O120 2.025 . S
Zn117 O125 2.024 . S
Zn117 O127 2.039 . S
Zn117 O129 2.034 . S
O118 C102 1.251 . S
O118 Zn109 2.039 . S
C119 O124 1.246 . S
C119 O125 1.249 . S
O120 C102 1.254 . S
O120 Zn117 2.025 . S
H121 C113 0.952 . S
H122 C104 0.952 . S
H123 C112 0.948 . S
O124 Zn109 2.034 . S
O124 C119 1.246 . S
O125 Zn117 2.024 . S
O125 C119 1.249 . S
H126 C108 0.948 . S
O127 Zn117 2.039 . S
O127 C131 1.251 . S
O128 Zn109 2.025 . S
O128 C131 1.254 . S
O129 C110 1.246 . S
O129 Zn117 2.034 . S
O130 Zn109 2.024 . S
O130 C110 1.249 . S
C131 O127 1.251 . S
C131 O128 1.254 . S
H132 C105 0.949 . S
H133 C107 0.950 . S
H134 C114 0.949 . S
H135 C116 0.950 . S
C136 O152 1.251 . S
C136 O154 1.254 . S
N137 C138 1.333 . S
N137 C142 1.307 . S
N137 Zn143 2.020 . S
C138 N137 1.333 . S
C138 C139 1.379 . S
C138 H156 0.952 . S
C139 C138 1.379 . S
C139 C140 1.390 . S
C139 H166 0.949 . S
C140 C139 1.390 . S
C140 C141 1.357 . S
C141 C140 1.357 . S
C141 C142 1.370 . S
C141 H167 0.950 . S
C142 N137 1.307 . S
C142 C141 1.370 . S
C142 H160 0.948 . S
Zn143 N137 2.020 . S
Zn143 O152 2.039 . S
Zn143 O158 2.034 . S
Zn143 O162 2.025 . S
Zn143 O164 2.024 . S
C144 O163 1.246 . S
C144 O164 1.249 . S
N145 C146 1.307 . S
N145 C147 1.333 . S
N145 Zn151 2.020 . S
C146 N145 1.307 . S
C146 C150 1.370 . S
C146 H157 0.948 . S
C147 N145 1.333 . S
C147 C148 1.379 . S
C147 H155 0.952 . S
C148 C147 1.379 . S
C148 C149 1.390 . S
C148 H168 0.949 1_554 S
C149 C148 1.390 . S
C149 C150 1.357 . S
C150 C146 1.370 . S
C150 C149 1.357 . S
C150 H169 0.950 . S
Zn151 N145 2.020 . S
Zn151 O154 2.025 . S
Zn151 O159 2.024 . S
Zn151 O161 2.039 . S
Zn151 O163 2.034 . S
O152 C136 1.251 . S
O152 Zn143 2.039 . S
C153 O158 1.246 . S
C153 O159 1.249 . S
O154 C136 1.254 . S
O154 Zn151 2.025 . S
H155 C147 0.952 . S
H156 C138 0.952 . S
H157 C146 0.948 . S
O158 Zn143 2.034 . S
O158 C153 1.246 . S
O159 Zn151 2.024 . S
O159 C153 1.249 . S
H160 C142 0.948 . S
O161 Zn151 2.039 . S
O161 C165 1.251 . S
O162 Zn143 2.025 . S
O162 C165 1.254 . S
O163 C144 1.246 . S
O163 Zn151 2.034 . S
O164 Zn143 2.024 . S
O164 C144 1.249 . S
C165 O161 1.251 . S
C165 O162 1.254 . S
H166 C139 0.949 . S
H167 C141 0.950 . S
H168 C148 0.949 1_556 S
H169 C150 0.950 . S
C170 O186 1.251 . S
C170 O188 1.254 . S
N171 C172 1.333 . S
N171 C176 1.307 . S
N171 Zn177 2.020 . S
C172 N171 1.333 . S
C172 C173 1.379 . S
C172 H190 0.952 . S
C173 C172 1.379 . S
C173 C174 1.390 . S
C173 H200 0.949 . S
C174 C173 1.390 . S
C174 C175 1.357 . S
C175 C174 1.357 . S
C175 C176 1.370 . S
C175 H201 0.950 . S
C176 N171 1.307 . S
C176 C175 1.370 . S
C176 H194 0.948 . S
Zn177 N171 2.020 . S
Zn177 O186 2.039 . S
Zn177 O192 2.034 . S
Zn177 O196 2.025 . S
Zn177 O198 2.024 . S
C178 O197 1.246 . S
C178 O198 1.249 . S
N179 C180 1.307 . S
N179 C181 1.333 . S
N179 Zn185 2.020 . S
C180 N179 1.307 . S
C180 C184 1.370 . S
C180 H191 0.948 . S
C181 N179 1.333 . S
C181 C182 1.379 . S
C181 H189 0.952 . S
C182 C181 1.379 . S
C182 C183 1.390 . S
C182 H202 0.949 . S
C183 C182 1.390 . S
C183 C184 1.357 . S
C184 C180 1.370 . S
C184 C183 1.357 . S
C184 H203 0.950 . S
Zn185 N179 2.020 . S
Zn185 O188 2.025 . S
Zn185 O193 2.024 . S
Zn185 O195 2.039 . S
Zn185 O197 2.034 . S
O186 C170 1.251 . S
O186 Zn177 2.039 . S
C187 O192 1.246 . S
C187 O193 1.249 . S
O188 C170 1.254 . S
O188 Zn185 2.025 . S
H189 C181 0.952 . S
H190 C172 0.952 . S
H191 C180 0.948 . S
O192 Zn177 2.034 . S
O192 C187 1.246 . S
O193 Zn185 2.024 . S
O193 C187 1.249 . S
H194 C176 0.948 . S
O195 Zn185 2.039 . S
O195 C199 1.251 . S
O196 Zn177 2.025 . S
O196 C199 1.254 . S
O197 C178 1.246 . S
O197 Zn185 2.034 . S
O198 Zn177 2.024 . S
O198 C178 1.249 . S
C199 O195 1.251 . S
C199 O196 1.254 . S
H200 C173 0.949 . S
H201 C175 0.950 . S
H202 C182 0.949 . S
H203 C184 0.950 . S
C204 O220 1.251 . S
C204 O222 1.254 . S
N205 C206 1.333 . S
N205 C210 1.307 . S
N205 Zn211 2.020 . S
C206 N205 1.333 . S
C206 C207 1.379 . S
C206 H224 0.952 . S
C207 C206 1.379 . S
C207 C208 1.390 . S
C207 H234 0.949 . S
C208 C207 1.390 . S
C208 C209 1.357 . S
C209 C208 1.357 . S
C209 C210 1.370 . S
C209 H235 0.950 . S
C210 N205 1.307 . S
C210 C209 1.370 . S
C210 H228 0.948 . S
Zn211 N205 2.020 . S
Zn211 O220 2.039 . S
Zn211 O226 2.034 . S
Zn211 O230 2.025 . S
Zn211 O232 2.024 . S
C212 O231 1.246 . S
C212 O232 1.249 . S
N213 C214 1.307 . S
N213 C215 1.333 . S
N213 Zn219 2.020 . S
C214 N213 1.307 . S
C214 C218 1.370 . S
C214 H225 0.948 . S
C215 N213 1.333 . S
C215 C216 1.379 . S
C215 H223 0.952 . S
C216 C215 1.379 . S
C216 C217 1.390 . S
C216 H236 0.949 . S
C217 C216 1.390 . S
C217 C218 1.357 . S
C218 C214 1.370 . S
C218 C217 1.357 . S
C218 H237 0.950 . S
Zn219 N213 2.020 . S
Zn219 O222 2.025 . S
Zn219 O227 2.024 . S
Zn219 O229 2.039 . S
Zn219 O231 2.034 . S
O220 C204 1.251 . S
O220 Zn211 2.039 . S
C221 O226 1.246 . S
C221 O227 1.249 . S
O222 C204 1.254 . S
O222 Zn219 2.025 . S
H223 C215 0.952 . S
H224 C206 0.952 . S
H225 C214 0.948 . S
O226 Zn211 2.034 . S
O226 C221 1.246 . S
O227 Zn219 2.024 . S
O227 C221 1.249 . S
H228 C210 0.948 . S
O229 Zn219 2.039 . S
O229 C233 1.251 . S
O230 Zn211 2.025 . S
O230 C233 1.254 . S
O231 C212 1.246 . S
O231 Zn219 2.034 . S
O232 Zn211 2.024 . S
O232 C212 1.249 . S
C233 O229 1.251 . S
C233 O230 1.254 . S
H234 C207 0.949 . S
H235 C209 0.950 . S
H236 C216 0.949 . S
H237 C218 0.950 . S
C238 O254 1.251 . S
C238 O256 1.254 . S
N239 C240 1.333 . S
N239 C244 1.307 . S
N239 Zn245 2.020 . S
C240 N239 1.333 . S
C240 C241 1.379 . S
C240 H258 0.952 . S
C241 C240 1.379 . S
C241 C242 1.390 . S
C241 H268 0.949 . S
C242 C241 1.390 . S
C242 C243 1.357 . S
C243 C242 1.357 . S
C243 C244 1.370 . S
C243 H269 0.950 . S
C244 N239 1.307 . S
C244 C243 1.370 . S
C244 H262 0.948 . S
Zn245 N239 2.020 . S
Zn245 O254 2.039 . S
Zn245 O260 2.034 . S
Zn245 O264 2.025 . S
Zn245 O266 2.024 . S
C246 O265 1.246 . S
C246 O266 1.249 . S
N247 C248 1.307 . S
N247 C249 1.333 . S
N247 Zn253 2.020 . S
C248 N247 1.307 . S
C248 C252 1.370 . S
C248 H259 0.948 . S
C249 N247 1.333 . S
C249 C250 1.379 . S
C249 H257 0.952 . S
C250 C249 1.379 . S
C250 C251 1.390 . S
C250 H270 0.949 . S
C251 C250 1.390 . S
C251 C252 1.357 . S
C252 C248 1.370 . S
C252 C251 1.357 . S
C252 H271 0.950 . S
Zn253 N247 2.020 . S
Zn253 O256 2.025 . S
Zn253 O261 2.024 . S
Zn253 O263 2.039 . S
Zn253 O265 2.034 . S
O254 C238 1.251 . S
O254 Zn245 2.039 . S
C255 O260 1.246 . S
C255 O261 1.249 . S
O256 C238 1.254 . S
O256 Zn253 2.025 . S
H257 C249 0.952 . S
H258 C240 0.952 . S
H259 C248 0.948 . S
O260 Zn245 2.034 . S
O260 C255 1.246 . S
O261 Zn253 2.024 . S
O261 C255 1.249 . S
H262 C244 0.948 . S
O263 Zn253 2.039 . S
O263 C267 1.251 . S
O264 Zn245 2.025 . S
O264 C267 1.254 . S
O265 C246 1.246 . S
O265 Zn253 2.034 . S
O266 Zn245 2.024 . S
O266 C246 1.249 . S
C267 O263 1.251 . S
C267 O264 1.254 . S
H268 C241 0.949 . S
H269 C243 0.950 . S
H270 C250 0.949 . S
H271 C252 0.950 . S
C272 O288 1.251 . S
C272 O290 1.254 . S
N273 C274 1.333 . S
N273 C278 1.307 . S
N273 Zn279 2.020 . S
C274 N273 1.333 . S
C274 C275 1.379 . S
C274 H292 0.952 . S
C275 C274 1.379 . S
C275 C276 1.390 . S
C275 H302 0.949 . S
C276 C275 1.390 . S
C276 C277 1.357 . S
C277 C276 1.357 . S
C277 C278 1.370 . S
C277 H303 0.950 . S
C278 N273 1.307 . S
C278 C277 1.370 . S
C278 H296 0.948 . S
Zn279 N273 2.020 . S
Zn279 O288 2.039 . S
Zn279 O294 2.034 . S
Zn279 O298 2.025 . S
Zn279 O300 2.024 . S
C280 O299 1.246 . S
C280 O300 1.249 . S
N281 C282 1.307 . S
N281 C283 1.333 . S
N281 Zn287 2.020 . S
C282 N281 1.307 . S
C282 C286 1.370 . S
C282 H293 0.948 . S
C283 N281 1.333 . S
C283 C284 1.379 . S
C283 H291 0.952 . S
C284 C283 1.379 . S
C284 C285 1.390 . S
C284 H304 0.949 . S
C285 C284 1.390 . S
C285 C286 1.357 . S
C286 C282 1.370 . S
C286 C285 1.357 . S
C286 H305 0.950 . S
Zn287 N281 2.020 . S
Zn287 O290 2.025 . S
Zn287 O295 2.024 . S
Zn287 O297 2.039 . S
Zn287 O299 2.034 . S
O288 C272 1.251 . S
O288 Zn279 2.039 . S
C289 O294 1.246 . S
C289 O295 1.249 . S
O290 C272 1.254 . S
O290 Zn287 2.025 . S
H291 C283 0.952 . S
H292 C274 0.952 . S
H293 C282 0.948 . S
O294 Zn279 2.034 . S
O294 C289 1.246 . S
O295 Zn287 2.024 . S
O295 C289 1.249 . S
H296 C278 0.948 . S
O297 Zn287 2.039 . S
O297 C301 1.251 . S
O298 Zn279 2.025 . S
O298 C301 1.254 . S
O299 C280 1.246 . S
O299 Zn287 2.034 . S
O300 Zn279 2.024 . S
O300 C280 1.249 . S
C301 O297 1.251 . S
C301 O298 1.254 . S
H302 C275 0.949 . S
H303 C277 0.950 . S
H304 C284 0.949 . S
H305 C286 0.950 . S
C306 C307 1.391 . S
C306 C308 1.394 . S
C306 H322 0.931 . S
C307 C306 1.391 . S
C307 C311 1.376 . S
C308 C306 1.394 . S
C308 C309 1.369 . S
C308 C312 1.531 . S
C309 C308 1.369 . S
C309 C310 1.410 . S
C309 C317 1.503 . S
C310 C309 1.410 . S
C310 C311 1.392 . S
C310 C313 1.511 . S
C311 C307 1.376 . S
C311 C310 1.392 . S
C311 H323 0.929 . S
C312 C308 1.531 . S
C312 H324 0.960 . S
C312 H325 0.962 . S
C312 H326 0.960 . S
C313 C310 1.511 . S
C313 H327 0.961 . S
C313 H328 0.961 . S
C313 H329 0.961 . S
C314 C315 1.370 . S
C314 C316 1.363 1_655 S
C314 H330 0.931 . S
C315 C314 1.370 . S
C315 C319 1.408 1_655 S
C316 C314 1.363 1_455 S
C316 C317 1.370 . S
C316 C320 1.524 . S
C317 C309 1.503 . S
C317 C316 1.370 . S
C317 C318 1.403 . S
C318 C317 1.403 . S
C318 C319 1.404 . S
C318 C321 1.539 . S
C319 C315 1.408 1_455 S
C319 C318 1.404 . S
C319 H331 0.930 . S
C320 C316 1.524 . S
C320 H332 0.956 1_455 S
C320 H333 0.961 . S
C320 H334 0.961 1_455 S
C321 C318 1.539 . S
C321 H335 0.958 . S
C321 H336 0.961 . S
C321 H337 0.960 . S
H322 C306 0.931 . S
H323 C311 0.929 . S
H324 C312 0.960 . S
H325 C312 0.962 . S
H326 C312 0.960 . S
H327 C313 0.961 . S
H328 C313 0.961 . S
H329 C313 0.961 . S
H330 C314 0.931 . S
H331 C319 0.930 . S
H332 C320 0.956 1_655 S
H333 C320 0.961 . S
H334 C320 0.961 1_655 S
H335 C321 0.958 . S
H336 C321 0.961 . S
H337 C321 0.960 . S
C338 C339 1.391 . S
C338 C340 1.394 . S
C338 H354 0.931 . S
C339 C338 1.391 . S
C339 C343 1.376 . S
C340 C338 1.394 . S
C340 C341 1.369 . S
C340 C344 1.531 . S
C341 C340 1.369 . S
C341 C342 1.410 . S
C341 C349 1.503 . S
C342 C341 1.410 . S
C342 C343 1.392 . S
C342 C345 1.511 . S
C343 C339 1.376 . S
C343 C342 1.392 . S
C343 H355 0.929 . S
C344 C340 1.531 . S
C344 H356 0.960 . S
C344 H357 0.962 . S
C344 H358 0.960 . S
C345 C342 1.511 . S
C345 H359 0.961 . S
C345 H360 0.961 . S
C345 H361 0.961 . S
C346 C347 1.370 . S
C346 C348 1.363 . S
C346 H362 0.931 . S
C347 C346 1.370 . S
C347 C351 1.408 . S
C348 C346 1.363 . S
C348 C349 1.370 . S
C348 C352 1.524 . S
C349 C341 1.503 . S
C349 C348 1.370 . S
C349 C350 1.403 . S
C350 C349 1.403 . S
C350 C351 1.404 . S
C350 C353 1.539 . S
C351 C347 1.408 . S
C351 C350 1.404 . S
C351 H363 0.930 . S
C352 C348 1.524 . S
C352 H364 0.956 . S
C352 H365 0.961 . S
C352 H366 0.961 . S
C353 C350 1.539 . S
C353 H367 0.958 . S
C353 H368 0.961 . S
C353 H369 0.960 . S
H354 C338 0.931 . S
H355 C343 0.929 . S
H356 C344 0.960 . S
H357 C344 0.962 . S
H358 C344 0.960 . S
H359 C345 0.961 . S
H360 C345 0.961 . S
H361 C345 0.961 . S
H362 C346 0.931 . S
H363 C351 0.930 . S
H364 C352 0.956 . S
H365 C352 0.961 . S
H366 C352 0.961 . S
H367 C353 0.958 . S
H368 C353 0.961 . S
H369 C353 0.960 . S
C370 C371 1.391 . S
C370 C372 1.394 1_565 S
C370 H386 0.942 . S
C371 C370 1.391 . S
C371 C375 1.376 . S
C372 C370 1.394 1_545 S
C372 C373 1.369 . S
C372 C376 1.531 . S
C373 C372 1.369 . S
C373 C374 1.410 1_545 S
C373 C381 1.503 . S
C374 C373 1.410 1_565 S
C374 C375 1.392 . S
C374 C377 1.511 . S
C375 C371 1.376 . S
C375 C374 1.392 . S
C375 H387 0.929 . S
C376 C372 1.531 . S
C376 H388 0.960 . S
C376 H389 0.962 . S
C376 H390 0.960 . S
C377 C374 1.511 . S
C377 H391 0.961 . S
C377 H392 0.961 . S
C377 H393 0.961 . S
C378 C379 1.370 . S
C378 C380 1.363 . S
C378 H394 0.931 . S
C379 C378 1.370 . S
C379 C383 1.408 . S
C380 C378 1.363 . S
C380 C381 1.370 . S
C380 C384 1.524 1_545 S
C381 C373 1.503 . S
C381 C380 1.370 . S
C381 C382 1.403 . S
C382 C381 1.403 . S
C382 C383 1.404 . S
C382 C385 1.539 . S
C383 C379 1.408 . S
C383 C382 1.404 . S
C383 H395 0.930 . S
C384 C380 1.524 1_565 S
C384 H396 0.956 . S
C384 H397 0.961 . S
C384 H398 0.961 . S
C385 C382 1.539 . S
C385 H399 0.958 . S
C385 H400 0.961 . S
C385 H401 0.960 . S
H386 C370 0.942 . S
H387 C375 0.929 . S
H388 C376 0.960 . S
H389 C376 0.962 . S
H390 C376 0.960 . S
H391 C377 0.961 . S
H392 C377 0.961 . S
H393 C377 0.961 . S
H394 C378 0.931 . S
H395 C383 0.930 . S
H396 C384 0.956 . S
H397 C384 0.961 . S
H398 C384 0.961 . S
H399 C385 0.958 . S
H400 C385 0.961 . S
H401 C385 0.960 . S
C402 C403 1.391 . S
C402 C404 1.394 . S
C402 H418 0.931 . S
C403 C402 1.391 . S
C403 C407 1.376 . S
C404 C402 1.394 . S
C404 C405 1.369 . S
C404 C408 1.531 . S
C405 C404 1.369 . S
C405 C406 1.410 . S
C405 C413 1.503 . S
C406 C405 1.410 . S
C406 C407 1.392 . S
C406 C409 1.511 . S
C407 C403 1.376 . S
C407 C406 1.392 . S
C407 H419 0.929 . S
C408 C404 1.531 . S
C408 H420 0.960 . S
C408 H421 0.962 . S
C408 H422 0.960 . S
C409 C406 1.511 . S
C409 H423 0.961 . S
C409 H424 0.961 . S
C409 H425 0.961 . S
C410 C411 1.370 . S
C410 C412 1.363 . S
C410 H426 0.931 . S
C411 C410 1.370 . S
C411 C415 1.408 . S
C412 C410 1.363 . S
C412 C413 1.370 . S
C412 C416 1.524 . S
C413 C405 1.503 . S
C413 C412 1.370 . S
C413 C414 1.403 . S
C414 C413 1.403 . S
C414 C415 1.404 . S
C414 C417 1.539 . S
C415 C411 1.408 . S
C415 C414 1.404 . S
C415 H427 0.930 1_556 S
C416 C412 1.524 . S
C416 H428 0.956 . S
C416 H429 0.961 . S
C416 H430 0.961 . S
C417 C414 1.539 . S
C417 H431 0.958 . S
C417 H432 0.961 . S
C417 H433 0.960 . S
H418 C402 0.931 . S
H419 C407 0.929 . S
H420 C408 0.960 . S
H421 C408 0.962 . S
H422 C408 0.960 . S
H423 C409 0.961 . S
H424 C409 0.961 . S
H425 C409 0.961 . S
H426 C410 0.931 . S
H427 C415 0.930 1_554 S
H428 C416 0.956 . S
H429 C416 0.961 . S
H430 C416 0.961 . S
H431 C417 0.958 . S
H432 C417 0.961 . S
H433 C417 0.960 . S
C434 C435 1.391 . S
C434 C436 1.394 . S
C434 H450 0.931 . S
C435 C434 1.391 . S
C435 C439 1.376 . S
C436 C434 1.394 . S
C436 C437 1.369 . S
C436 C440 1.531 . S
C437 C436 1.369 . S
C437 C438 1.410 . S
C437 C445 1.503 . S
C438 C437 1.410 . S
C438 C439 1.392 . S
C438 C441 1.511 . S
C439 C435 1.376 . S
C439 C438 1.392 . S
C439 H451 0.929 . S
C440 C436 1.531 . S
C440 H452 0.960 . S
C440 H453 0.962 . S
C440 H454 0.960 . S
C441 C438 1.511 . S
C441 H455 0.961 . S
C441 H456 0.961 . S
C441 H457 0.961 . S
C442 C443 1.370 . S
C442 C444 1.363 . S
C442 H458 0.931 1_556 S
C443 C442 1.370 . S
C443 C447 1.408 . S
C444 C442 1.363 . S
C444 C445 1.370 . S
C444 C448 1.524 . S
C445 C437 1.503 . S
C445 C444 1.370 . S
C445 C446 1.403 . S
C446 C445 1.403 . S
C446 C447 1.404 . S
C446 C449 1.539 . S
C447 C443 1.408 . S
C447 C446 1.404 . S
C447 H459 0.930 . S
C448 C444 1.524 . S
C448 H460 0.956 . S
C448 H461 0.961 . S
C448 H462 0.961 . S
C449 C446 1.539 . S
C449 H463 0.958 . S
C449 H464 0.961 . S
C449 H465 0.960 . S
H450 C434 0.931 . S
H451 C439 0.929 . S
H452 C440 0.960 . S
H453 C440 0.962 . S
H454 C440 0.960 . S
H455 C441 0.961 . S
H456 C441 0.961 . S
H457 C441 0.961 . S
H458 C442 0.931 1_554 S
H459 C447 0.930 . S
H460 C448 0.956 . S
H461 C448 0.961 . S
H462 C448 0.961 . S
H463 C449 0.958 . S
H464 C449 0.961 . S
H465 C449 0.960 . S
C466 C467 1.391 . S
C466 C468 1.394 . S
C466 H482 0.931 . S
C467 C466 1.391 . S
C467 C471 1.376 . S
C468 C466 1.394 . S
C468 C469 1.369 . S
C468 C472 1.531 . S
C469 C468 1.369 . S
C469 C470 1.410 . S
C469 C477 1.503 . S
C470 C469 1.410 . S
C470 C471 1.392 . S
C470 C473 1.511 . S
C471 C467 1.376 . S
C471 C470 1.392 . S
C471 H483 0.929 . S
C472 C468 1.531 . S
C472 H484 0.960 . S
C472 H485 0.962 . S
C472 H486 0.960 . S
C473 C470 1.511 . S
C473 H487 0.961 . S
C473 H488 0.961 . S
C473 H489 0.961 . S
C474 C475 1.370 1_556 S
C474 C476 1.363 . S
C474 H490 0.931 . S
C475 C474 1.370 1_554 S
C475 C479 1.408 1_554 S
C476 C474 1.363 . S
C476 C477 1.370 . S
C476 C480 1.524 . S
C477 C469 1.503 . S
C477 C476 1.370 . S
C477 C478 1.403 . S
C478 C477 1.403 . S
C478 C479 1.404 . S
C478 C481 1.539 . S
C479 C475 1.408 1_556 S
C479 C478 1.404 . S
C479 H491 0.930 1_556 S
C480 C476 1.524 . S
C480 H492 0.956 . S
C480 H493 0.961 . S
C480 H494 0.961 . S
C481 C478 1.539 . S
C481 H495 0.958 . S
C481 H496 0.961 . S
C481 H497 0.960 . S
H482 C466 0.931 . S
H483 C471 0.929 . S
H484 C472 0.960 . S
H485 C472 0.962 . S
H486 C472 0.960 . S
H487 C473 0.961 . S
H488 C473 0.961 . S
H489 C473 0.961 . S
H490 C474 0.931 . S
H491 C479 0.930 1_554 S
H492 C480 0.956 . S
H493 C480 0.961 . S
H494 C480 0.961 . S
H495 C481 0.958 . S
H496 C481 0.961 . S
H497 C481 0.960 . S
C498 C499 1.391 . S
C498 C500 1.394 . S
C498 H514 0.931 . S
C499 C498 1.391 . S
C499 C503 1.376 . S
C500 C498 1.394 . S
C500 C501 1.369 . S
C500 C504 1.531 . S
C501 C500 1.369 . S
C501 C502 1.410 . S
C501 C509 1.503 . S
C502 C501 1.410 . S
C502 C503 1.392 . S
C502 C505 1.511 . S
C503 C499 1.376 . S
C503 C502 1.392 . S
C503 H515 0.929 . S
C504 C500 1.531 . S
C504 H516 0.960 . S
C504 H517 0.962 . S
C504 H518 0.960 . S
C505 C502 1.511 . S
C505 H519 0.961 . S
C505 H520 0.961 . S
C505 H521 0.961 . S
C506 C507 1.370 1_554 S
C506 C508 1.363 . S
C506 H522 0.931 1_554 S
C507 C506 1.370 1_556 S
C507 C511 1.408 1_556 S
C508 C506 1.363 . S
C508 C509 1.370 . S
C508 C512 1.524 . S
C509 C501 1.503 . S
C509 C508 1.370 . S
C509 C510 1.403 . S
C510 C509 1.403 . S
C510 C511 1.404 . S
C510 C513 1.539 . S
C511 C507 1.408 1_554 S
C511 C510 1.404 . S
C511 H523 0.930 . S
C512 C508 1.524 . S
C512 H524 0.956 . S
C512 H525 0.961 . S
C512 H526 0.961 . S
C513 C510 1.539 . S
C513 H527 0.958 . S
C513 H528 0.961 . S
C513 H529 0.960 . S
H514 C498 0.931 . S
H515 C503 0.929 . S
H516 C504 0.960 . S
H517 C504 0.962 . S
H518 C504 0.960 . S
H519 C505 0.961 . S
H520 C505 0.961 . S
H521 C505 0.961 . S
H522 C506 0.931 1_556 S
H523 C511 0.930 . S
H524 C512 0.956 . S
H525 C512 0.961 . S
H526 C512 0.961 . S
H527 C513 0.958 . S
H528 C513 0.961 . S
H529 C513 0.960 . S
C530 C531 1.391 . S
C530 C532 1.394 . S
C530 H546 0.931 . S
C531 C530 1.391 . S
C531 C535 1.376 . S
C532 C530 1.394 . S
C532 C533 1.369 . S
C532 C536 1.531 . S
C533 C532 1.369 . S
C533 C534 1.410 . S
C533 C541 1.503 . S
C534 C533 1.410 . S
C534 C535 1.392 . S
C534 C537 1.511 . S
C535 C531 1.376 . S
C535 C534 1.392 . S
C535 H547 0.929 . S
C536 C532 1.531 . S
C536 H548 0.960 . S
C536 H549 0.962 . S
C536 H550 0.960 . S
C537 C534 1.511 . S
C537 H551 0.961 . S
C537 H552 0.961 . S
C537 H553 0.961 . S
C538 C539 1.370 1_554 S
C538 C540 1.363 . S
C538 H554 0.931 . S
C539 C538 1.370 1_556 S
C539 C543 1.408 1_556 S
C540 C538 1.363 . S
C540 C541 1.370 . S
C540 C544 1.524 . S
C541 C533 1.503 . S
C541 C540 1.370 . S
C541 C542 1.403 . S
C542 C541 1.403 . S
C542 C543 1.404 . S
C542 C545 1.539 . S
C543 C539 1.408 1_554 S
C543 C542 1.404 . S
C543 H555 0.930 1_554 S
C544 C540 1.524 . S
C544 H556 0.956 . S
C544 H557 0.961 . S
C544 H558 0.961 . S
C545 C542 1.539 . S
C545 H559 0.958 . S
C545 H560 0.961 . S
C545 H561 0.960 . S
H546 C530 0.931 . S
H547 C535 0.929 . S
H548 C536 0.960 . S
H549 C536 0.962 . S
H550 C536 0.960 . S
H551 C537 0.961 . S
H552 C537 0.961 . S
H553 C537 0.961 . S
H554 C538 0.931 . S
H555 C543 0.930 1_556 S
H556 C544 0.956 . S
H557 C544 0.961 . S
H558 C544 0.961 . S
H559 C545 0.958 . S
H560 C545 0.961 . S
H561 C545 0.960 . S
C562 C563 1.391 . S
C562 C564 1.394 . S
C562 H578 0.931 . S
C563 C562 1.391 . S
C563 C567 1.376 . S
C564 C562 1.394 . S
C564 C565 1.369 . S
C564 C568 1.531 . S
C565 C564 1.369 . S
C565 C566 1.410 . S
C565 C573 1.503 . S
C566 C565 1.410 . S
C566 C567 1.392 . S
C566 C569 1.511 . S
C567 C563 1.376 . S
C567 C566 1.392 . S
C567 H579 0.929 . S
C568 C564 1.531 . S
C568 H580 0.960 . S
C568 H581 0.962 . S
C568 H582 0.960 . S
C569 C566 1.511 . S
C569 H583 0.961 . S
C569 H584 0.961 . S
C569 H585 0.961 . S
C570 C571 1.370 1_554 S
C570 C572 1.363 . S
C570 H586 0.931 1_554 S
C571 C570 1.370 1_556 S
C571 C575 1.408 1_556 S
C572 C570 1.363 . S
C572 C573 1.370 . S
C572 C576 1.524 . S
C573 C565 1.503 . S
C573 C572 1.370 . S
C573 C574 1.403 . S
C574 C573 1.403 . S
C574 C575 1.404 . S
C574 C577 1.539 . S
C575 C571 1.408 1_554 S
C575 C574 1.404 . S
C575 H587 0.930 . S
C576 C572 1.524 . S
C576 H588 0.956 . S
C576 H589 0.961 . S
C576 H590 0.961 . S
C577 C574 1.539 . S
C577 H591 0.958 . S
C577 H592 0.961 . S
C577 H593 0.960 . S
H578 C562 0.931 . S
H579 C567 0.929 . S
H580 C568 0.960 . S
H581 C568 0.962 . S
H582 C568 0.960 . S
H583 C569 0.961 . S
H584 C569 0.961 . S
H585 C569 0.961 . S
H586 C570 0.931 1_556 S
H587 C575 0.930 . S
H588 C576 0.956 . S
H589 C576 0.961 . S
H590 C576 0.961 . S
H591 C577 0.958 . S
H592 C577 0.961 . S
H593 C577 0.960 . S
C594 C595 1.391 . S
C594 C596 1.394 . S
C594 H610 0.931 . S
C595 C594 1.391 . S
C595 C599 1.376 . S
C596 C594 1.394 . S
C596 C597 1.369 . S
C596 C600 1.531 . S
C597 C596 1.369 . S
C597 C598 1.410 . S
C597 C605 1.503 . S
C598 C597 1.410 . S
C598 C599 1.392 . S
C598 C601 1.511 . S
C599 C595 1.376 . S
C599 C598 1.392 . S
C599 H611 0.929 . S
C600 C596 1.531 . S
C600 H612 0.960 . S
C600 H613 0.962 . S
C600 H614 0.960 . S
C601 C598 1.511 . S
C601 H615 0.961 . S
C601 H616 0.961 . S
C601 H617 0.961 . S
C602 C603 1.370 . S
C602 C604 1.363 . S
C602 H618 0.931 . S
C603 C602 1.370 . S
C603 C607 1.408 . S
C604 C602 1.363 . S
C604 C605 1.370 . S
C604 C608 1.524 . S
C605 C597 1.503 . S
C605 C604 1.370 . S
C605 C606 1.403 . S
C606 C605 1.403 . S
C606 C607 1.404 . S
C606 C609 1.539 . S
C607 C603 1.408 . S
C607 C606 1.404 . S
C607 H619 0.930 . S
C608 C604 1.524 . S
C608 H620 0.956 . S
C608 H621 0.961 . S
C608 H622 0.961 . S
C609 C606 1.539 . S
C609 H623 0.958 . S
C609 H624 0.961 . S
C609 H625 0.960 . S
H610 C594 0.931 . S
H611 C599 0.929 . S
H612 C600 0.960 . S
H613 C600 0.962 . S
H614 C600 0.960 . S
H615 C601 0.961 . S
H616 C601 0.961 . S
H617 C601 0.961 . S
H618 C602 0.931 . S
H619 C607 0.930 . S
H620 C608 0.956 . S
H621 C608 0.961 . S
H622 C608 0.961 . S
H623 C609 0.958 . S
H624 C609 0.961 . S
H625 C609 0.960 . S
C626 C627 1.391 . S
C626 C628 1.394 . S
C626 H642 0.931 . S
C627 C626 1.391 . S
C627 C631 1.376 . S
C628 C626 1.394 . S
C628 C629 1.369 . S
C628 C632 1.531 . S
C629 C628 1.369 . S
C629 C630 1.410 . S
C629 C637 1.503 . S
C630 C629 1.410 . S
C630 C631 1.392 . S
C630 C633 1.511 . S
C631 C627 1.376 . S
C631 C630 1.392 . S
C631 H643 0.929 . S
C632 C628 1.531 . S
C632 H644 0.960 . S
C632 H645 0.962 . S
C632 H646 0.960 . S
C633 C630 1.511 . S
C633 H647 0.961 . S
C633 H648 0.961 . S
C633 H649 0.961 . S
C634 C635 1.370 . S
C634 C636 1.363 . S
C634 H650 0.931 . S
C635 C634 1.370 . S
C635 C639 1.408 . S
C636 C634 1.363 . S
C636 C637 1.370 . S
C636 C640 1.524 . S
C637 C629 1.503 . S
C637 C636 1.370 . S
C637 C638 1.403 . S
C638 C637 1.403 . S
C638 C639 1.404 . S
C638 C641 1.539 . S
C639 C635 1.408 . S
C639 C638 1.404 . S
C639 H651 0.930 . S
C640 C636 1.524 . S
C640 H652 0.956 . S
C640 H653 0.961 . S
C640 H654 0.961 . S
C641 C638 1.539 . S
C641 H655 0.958 . S
C641 H656 0.961 . S
C641 H657 0.960 . S
H642 C626 0.931 . S
H643 C631 0.929 . S
H644 C632 0.960 . S
H645 C632 0.962 . S
H646 C632 0.960 . S
H647 C633 0.961 . S
H648 C633 0.961 . S
H649 C633 0.961 . S
H650 C634 0.931 . S
H651 C639 0.930 . S
H652 C640 0.956 . S
H653 C640 0.961 . S
H654 C640 0.961 . S
H655 C641 0.958 . S
H656 C641 0.961 . S
H657 C641 0.960 . S
C658 C659 1.391 . S
C658 C660 1.394 . S
C658 H674 0.931 . S
C659 C658 1.391 . S
C659 C663 1.376 . S
C660 C658 1.394 . S
C660 C661 1.369 . S
C660 C664 1.531 . S
C661 C660 1.369 . S
C661 C662 1.410 . S
C661 C669 1.503 . S
C662 C661 1.410 . S
C662 C663 1.392 . S
C662 C665 1.511 . S
C663 C659 1.376 . S
C663 C662 1.392 . S
C663 H675 0.926 1_554 S
C664 C660 1.531 . S
C664 H676 0.960 . S
C664 H677 0.962 . S
C664 H678 0.960 . S
C665 C662 1.511 . S
C665 H679 0.961 . S
C665 H680 0.961 . S
C665 H681 0.961 . S
C666 C667 1.370 . S
C666 C668 1.363 . S
C666 H682 0.931 . S
C667 C666 1.370 . S
C667 C671 1.408 . S
C668 C666 1.363 . S
C668 C669 1.370 . S
C668 C672 1.524 . S
C669 C661 1.503 . S
C669 C668 1.370 . S
C669 C670 1.403 . S
C670 C669 1.403 . S
C670 C671 1.404 . S
C670 C673 1.539 . S
C671 C667 1.408 . S
C671 C670 1.404 . S
C671 H683 0.930 . S
C672 C668 1.524 . S
C672 H684 0.956 . S
C672 H685 0.961 . S
C672 H686 0.961 . S
C673 C670 1.539 . S
C673 H687 0.958 . S
C673 H688 0.961 . S
C673 H689 0.960 . S
H674 C658 0.931 . S
H675 C663 0.926 1_556 S
H676 C664 0.960 . S
H677 C664 0.962 . S
H678 C664 0.960 . S
H679 C665 0.961 . S
H680 C665 0.961 . S
H681 C665 0.961 . S
H682 C666 0.931 . S
H683 C671 0.930 . S
H684 C672 0.956 . S
H685 C672 0.961 . S
H686 C672 0.961 . S
H687 C673 0.958 . S
H688 C673 0.961 . S
H689 C673 0.960 . S
C690 C691 1.391 . S
C690 C692 1.394 . S
C690 H706 0.931 . S
C691 C690 1.391 . S
C691 C695 1.376 . S
C692 C690 1.394 . S
C692 C693 1.369 . S
C692 C696 1.531 . S
C693 C692 1.369 . S
C693 C694 1.410 . S
C693 C701 1.503 . S
C694 C693 1.410 . S
C694 C695 1.392 . S
C694 C697 1.511 . S
C695 C691 1.376 . S
C695 C694 1.392 . S
C695 H707 0.929 . S
C696 C692 1.531 . S
C696 H708 0.960 . S
C696 H709 0.962 . S
C696 H710 0.960 . S
C697 C694 1.511 . S
C697 H711 0.961 . S
C697 H712 0.961 . S
C697 H713 0.961 . S
C698 C699 1.370 . S
C698 C700 1.363 . S
C698 H714 0.931 . S
C699 C698 1.370 . S
C699 C703 1.408 . S
C700 C698 1.363 . S
C700 C701 1.370 . S
C700 C704 1.524 . S
C701 C693 1.503 . S
C701 C700 1.370 . S
C701 C702 1.403 . S
C702 C701 1.403 . S
C702 C703 1.404 . S
C702 C705 1.539 . S
C703 C699 1.408 . S
C703 C702 1.404 . S
C703 H715 0.930 . S
C704 C700 1.524 . S
C704 H716 0.956 . S
C704 H717 0.961 . S
C704 H718 0.961 . S
C705 C702 1.539 . S
C705 H719 0.958 . S
C705 H720 0.961 . S
C705 H721 0.960 . S
H706 C690 0.931 . S
H707 C695 0.929 . S
H708 C696 0.960 . S
H709 C696 0.962 . S
H710 C696 0.960 . S
H711 C697 0.961 . S
H712 C697 0.961 . S
H713 C697 0.961 . S
H714 C698 0.931 . S
H715 C703 0.930 . S
H716 C704 0.956 . S
H717 C704 0.961 . S
H718 C704 0.961 . S
H719 C705 0.958 . S
H720 C705 0.961 . S
H721 C705 0.960 . S
C722 C723 1.391 . S
C722 C724 1.394 . S
C722 H738 0.931 . S
C723 C722 1.391 . S
C723 C727 1.376 . S
C724 C722 1.394 . S
C724 C725 1.369 . S
C724 C728 1.531 . S
C725 C724 1.369 . S
C725 C726 1.410 . S
C725 C733 1.503 . S
C726 C725 1.410 . S
C726 C727 1.392 . S
C726 C729 1.511 . S
C727 C723 1.376 . S
C727 C726 1.392 . S
C727 H739 0.929 . S
C728 C724 1.531 . S
C728 H740 0.960 . S
C728 H741 0.962 . S
C728 H742 0.960 . S
C729 C726 1.511 . S
C729 H743 0.961 . S
C729 H744 0.961 . S
C729 H745 0.961 . S
C730 C731 1.370 . S
C730 C732 1.363 1_554 S
C730 H746 0.931 . S
C731 C730 1.370 . S
C731 C735 1.408 1_554 S
C732 C730 1.363 1_556 S
C732 C733 1.370 . S
C732 C736 1.524 1_556 S
C733 C725 1.503 . S
C733 C732 1.370 . S
C733 C734 1.403 . S
C734 C733 1.403 . S
C734 C735 1.404 . S
C734 C737 1.539 . S
C735 C731 1.408 1_556 S
C735 C734 1.404 . S
C735 H747 0.930 . S
C736 C732 1.524 1_554 S
C736 H748 0.956 1_554 S
C736 H749 0.958 1_554 S
C736 H750 0.961 . S
C737 C734 1.539 . S
C737 H751 0.958 . S
C737 H752 0.961 . S
C737 H753 0.960 . S
H738 C722 0.931 . S
H739 C727 0.929 . S
H740 C728 0.960 . S
H741 C728 0.962 . S
H742 C728 0.960 . S
H743 C729 0.961 . S
H744 C729 0.961 . S
H745 C729 0.961 . S
H746 C730 0.931 . S
H747 C735 0.930 . S
H748 C736 0.956 1_556 S
H749 C736 0.958 1_556 S
H750 C736 0.961 . S
H751 C737 0.958 . S
H752 C737 0.961 . S
H753 C737 0.960 . S
C754 C755 1.391 . S
C754 C756 1.394 . S
C754 H770 0.931 . S
C755 C754 1.391 . S
C755 C759 1.376 . S
C756 C754 1.394 . S
C756 C757 1.369 . S
C756 C760 1.531 . S
C757 C756 1.369 . S
C757 C758 1.410 . S
C757 C765 1.503 . S
C758 C757 1.410 . S
C758 C759 1.392 . S
C758 C761 1.511 . S
C759 C755 1.376 . S
C759 C758 1.392 . S
C759 H771 0.929 . S
C760 C756 1.531 . S
C760 H772 0.960 . S
C760 H773 0.962 . S
C760 H774 0.960 . S
C761 C758 1.511 . S
C761 H775 0.961 . S
C761 H776 0.961 . S
C761 H777 0.961 . S
C762 C763 1.370 . S
C762 C764 1.363 . S
C762 H778 0.931 . S
C763 C762 1.370 . S
C763 C767 1.408 . S
C764 C762 1.363 . S
C764 C765 1.370 . S
C764 C768 1.524 . S
C765 C757 1.503 . S
C765 C764 1.370 . S
C765 C766 1.403 . S
C766 C765 1.403 . S
C766 C767 1.404 . S
C766 C769 1.539 . S
C767 C763 1.408 . S
C767 C766 1.404 . S
C767 H779 0.930 1_556 S
C768 C764 1.524 . S
C768 H780 0.956 . S
C768 H781 0.961 . S
C768 H782 0.961 . S
C769 C766 1.539 . S
C769 H783 0.958 . S
C769 H784 0.961 1_556 S
C769 H785 0.960 . S
H770 C754 0.931 . S
H771 C759 0.929 . S
H772 C760 0.960 . S
H773 C760 0.962 . S
H774 C760 0.960 . S
H775 C761 0.961 . S
H776 C761 0.961 . S
H777 C761 0.961 . S
H778 C762 0.931 . S
H779 C767 0.930 1_554 S
H780 C768 0.956 . S
H781 C768 0.961 . S
H782 C768 0.961 . S
H783 C769 0.958 . S
H784 C769 0.961 1_554 S
H785 C769 0.960 . S
C786 C787 1.391 . S
C786 C788 1.394 . S
C786 H802 0.931 . S
C787 C786 1.391 . S
C787 C791 1.376 . S
C788 C786 1.394 . S
C788 C789 1.369 . S
C788 C792 1.531 . S
C789 C788 1.369 . S
C789 C790 1.410 . S
C789 C797 1.503 . S
C790 C789 1.410 . S
C790 C791 1.392 . S
C790 C793 1.511 . S
C791 C787 1.376 . S
C791 C790 1.392 . S
C791 H803 0.929 . S
C792 C788 1.531 . S
C792 H804 0.960 . S
C792 H805 0.962 . S
C792 H806 0.960 . S
C793 C790 1.511 . S
C793 H807 0.961 . S
C793 H808 0.961 . S
C793 H809 0.961 1_556 S
C794 C795 1.370 1_556 S
C794 C796 1.363 . S
C794 H810 0.931 . S
C795 C794 1.370 1_554 S
C795 C799 1.408 . S
C796 C794 1.363 . S
C796 C797 1.370 . S
C796 C800 1.524 . S
C797 C789 1.503 . S
C797 C796 1.370 . S
C797 C798 1.403 . S
C798 C797 1.403 . S
C798 C799 1.404 1_556 S
C798 C801 1.539 . S
C799 C795 1.408 . S
C799 C798 1.404 1_554 S
C799 H811 0.930 1_655 S
C800 C796 1.524 . S
C800 H812 0.956 . S
C800 H813 0.961 . S
C800 H814 0.961 . S
C801 C798 1.539 . S
C801 H815 0.958 . S
C801 H816 0.961 1_556 S
C801 H817 0.960 . S
H802 C786 0.931 . S
H803 C791 0.929 . S
H804 C792 0.960 . S
H805 C792 0.962 . S
H806 C792 0.960 . S
H807 C793 0.961 . S
H808 C793 0.961 . S
H809 C793 0.961 1_554 S
H810 C794 0.931 . S
H811 C799 0.930 1_455 S
H812 C800 0.956 . S
H813 C800 0.961 . S
H814 C800 0.961 . S
H815 C801 0.958 . S
H816 C801 0.961 1_554 S
H817 C801 0.960 . S
C818 C819 1.391 . S
C818 C820 1.394 . S
C818 H834 0.931 . S
C819 C818 1.391 . S
C819 C823 1.376 . S
C820 C818 1.394 . S
C820 C821 1.369 . S
C820 C824 1.531 . S
C821 C820 1.369 . S
C821 C822 1.410 . S
C821 C829 1.503 . S
C822 C821 1.410 . S
C822 C823 1.392 . S
C822 C825 1.511 . S
C823 C819 1.376 . S
C823 C822 1.392 . S
C823 H835 0.929 1_556 S
C824 C820 1.531 . S
C824 H836 0.960 . S
C824 H837 0.962 . S
C824 H838 0.960 . S
C825 C822 1.511 . S
C825 H839 0.961 . S
C825 H840 0.961 . S
C825 H841 0.961 . S
C826 C827 1.370 . S
C826 C828 1.363 . S
C826 H842 0.931 . S
C827 C826 1.370 . S
C827 C831 1.408 . S
C828 C826 1.363 . S
C828 C829 1.370 . S
C828 C832 1.524 . S
C829 C821 1.503 . S
C829 C828 1.370 . S
C829 C830 1.403 . S
C830 C829 1.403 . S
C830 C831 1.404 . S
C830 C833 1.539 . S
C831 C827 1.408 . S
C831 C830 1.404 . S
C831 H843 0.930 . S
C832 C828 1.524 . S
C832 H844 0.956 . S
C832 H845 0.961 . S
C832 H846 0.961 . S
C833 C830 1.539 . S
C833 H847 0.958 . S
C833 H848 0.961 . S
C833 H849 0.960 . S
H834 C818 0.931 . S
H835 C823 0.929 1_554 S
H836 C824 0.960 . S
H837 C824 0.962 . S
H838 C824 0.960 . S
H839 C825 0.961 . S
H840 C825 0.961 . S
H841 C825 0.961 . S
H842 C826 0.931 . S
H843 C831 0.930 . S
H844 C832 0.956 . S
H845 C832 0.961 . S
H846 C832 0.961 . S
H847 C833 0.958 . S
H848 C833 0.961 . S
H849 C833 0.960 . S
C850 C851 1.391 . S
C850 C852 1.394 . S
C850 H866 0.931 . S
C851 C850 1.391 . S
C851 C855 1.376 . S
C852 C850 1.394 . S
C852 C853 1.369 . S
C852 C856 1.531 . S
C853 C852 1.369 . S
C853 C854 1.410 . S
C853 C861 1.503 . S
C854 C853 1.410 . S
C854 C855 1.392 . S
C854 C857 1.511 . S
C855 C851 1.376 . S
C855 C854 1.392 . S
C855 H867 0.929 . S
C856 C852 1.531 . S
C856 H868 0.960 . S
C856 H869 0.962 . S
C856 H870 0.960 . S
C857 C854 1.511 . S
C857 H871 0.961 . S
C857 H872 0.961 . S
C857 H873 0.961 . S
C858 C859 1.370 . S
C858 C860 1.363 . S
C858 H874 0.931 1_556 S
C859 C858 1.370 . S
C859 C863 1.408 . S
C860 C858 1.363 . S
C860 C861 1.370 . S
C860 C864 1.524 . S
C861 C853 1.503 . S
C861 C860 1.370 . S
C861 C862 1.403 . S
C862 C861 1.403 . S
C862 C863 1.404 . S
C862 C865 1.539 . S
C863 C859 1.408 . S
C863 C862 1.404 . S
C863 H875 0.930 . S
C864 C860 1.524 . S
C864 H876 0.956 . S
C864 H877 0.961 . S
C864 H878 0.961 1_556 S
C865 C862 1.539 . S
C865 H879 0.958 . S
C865 H880 0.961 . S
C865 H881 0.960 . S
H866 C850 0.931 . S
H867 C855 0.929 . S
H868 C856 0.960 . S
H869 C856 0.962 . S
H870 C856 0.960 . S
H871 C857 0.961 . S
H872 C857 0.961 . S
H873 C857 0.961 . S
H874 C858 0.931 1_554 S
H875 C863 0.930 . S
H876 C864 0.956 . S
H877 C864 0.961 . S
H878 C864 0.961 1_554 S
H879 C865 0.958 . S
H880 C865 0.961 . S
H881 C865 0.960 . S
C882 C883 1.391 . S
C882 C884 1.394 . S
C882 H898 0.931 . S
C883 C882 1.391 . S
C883 C887 1.376 . S
C884 C882 1.394 . S
C884 C885 1.369 . S
C884 C888 1.531 . S
C885 C884 1.369 . S
C885 C886 1.410 . S
C885 C893 1.503 . S
C886 C885 1.410 . S
C886 C887 1.392 . S
C886 C889 1.511 . S
C887 C883 1.376 . S
C887 C886 1.392 . S
C887 H899 0.929 . S
C888 C884 1.531 . S
C888 H900 0.960 . S
C888 H901 0.962 . S
C888 H902 0.960 . S
C889 C886 1.511 . S
C889 H903 0.961 . S
C889 H904 0.961 . S
C889 H905 0.961 . S
C890 C891 1.370 . S
C890 C892 1.363 . S
C890 H906 0.931 . S
C891 C890 1.370 . S
C891 C895 1.408 . S
C892 C890 1.363 . S
C892 C893 1.370 . S
C892 C896 1.524 . S
C893 C885 1.503 . S
C893 C892 1.370 . S
C893 C894 1.403 . S
C894 C893 1.403 . S
C894 C895 1.404 . S
C894 C897 1.539 . S
C895 C891 1.408 . S
C895 C894 1.404 . S
C895 H907 0.930 . S
C896 C892 1.524 . S
C896 H908 0.956 . S
C896 H909 0.961 . S
C896 H910 0.961 . S
C897 C894 1.539 . S
C897 H911 0.958 . S
C897 H912 0.961 . S
C897 H913 0.960 . S
H898 C882 0.931 . S
H899 C887 0.929 . S
H900 C888 0.960 . S
H901 C888 0.962 . S
H902 C888 0.960 . S
H903 C889 0.961 . S
H904 C889 0.961 . S
H905 C889 0.961 . S
H906 C890 0.931 . S
H907 C895 0.930 . S
H908 C896 0.956 . S
H909 C896 0.961 . S
H910 C896 0.961 . S
H911 C897 0.958 . S
H912 C897 0.961 . S
H913 C897 0.960 . S
C914 C915 1.391 . S
C914 C916 1.394 . S
C914 H930 0.931 . S
C915 C914 1.391 . S
C915 C919 1.376 . S
C916 C914 1.394 . S
C916 C917 1.369 . S
C916 C920 1.531 . S
C917 C916 1.369 . S
C917 C918 1.410 . S
C917 C925 1.503 . S
C918 C917 1.410 . S
C918 C919 1.392 . S
C918 C921 1.511 . S
C919 C915 1.376 . S
C919 C918 1.392 . S
C919 H931 0.929 . S
C920 C916 1.531 . S
C920 H932 0.960 . S
C920 H933 0.962 . S
C920 H934 0.960 . S
C921 C918 1.511 . S
C921 H935 0.961 . S
C921 H936 0.961 . S
C921 H937 0.961 . S
C922 C923 1.370 . S
C922 C924 1.363 . S
C922 H938 0.931 . S
C923 C922 1.370 . S
C923 C927 1.408 . S
C924 C922 1.363 . S
C924 C925 1.370 . S
C924 C928 1.524 . S
C925 C917 1.503 . S
C925 C924 1.370 . S
C925 C926 1.403 . S
C926 C925 1.403 . S
C926 C927 1.404 . S
C926 C929 1.539 . S
C927 C923 1.408 . S
C927 C926 1.404 . S
C927 H939 0.930 . S
C928 C924 1.524 . S
C928 H940 0.956 . S
C928 H941 0.961 . S
C928 H942 0.961 . S
C929 C926 1.539 . S
C929 H943 0.958 . S
C929 H944 0.961 1_554 S
C929 H945 0.960 . S
H930 C914 0.931 . S
H931 C919 0.929 . S
H932 C920 0.960 . S
H933 C920 0.962 . S
H934 C920 0.960 . S
H935 C921 0.961 . S
H936 C921 0.961 . S
H937 C921 0.961 . S
H938 C922 0.931 . S
H939 C927 0.930 . S
H940 C928 0.956 . S
H941 C928 0.961 . S
H942 C928 0.961 . S
H943 C929 0.958 . S
H944 C929 0.961 1_556 S
H945 C929 0.960 . S
C946 C947 1.391 . S
C946 C948 1.394 . S
C946 H962 0.931 . S
C947 C946 1.391 . S
C947 C951 1.376 . S
C948 C946 1.394 . S
C948 C949 1.369 . S
C948 C952 1.531 . S
C949 C948 1.369 . S
C949 C950 1.410 . S
C949 C957 1.503 . S
C950 C949 1.410 . S
C950 C951 1.392 . S
C950 C953 1.511 . S
C951 C947 1.376 . S
C951 C950 1.392 . S
C951 H963 0.929 . S
C952 C948 1.531 . S
C952 H964 0.960 . S
C952 H965 0.962 . S
C952 H966 0.960 . S
C953 C950 1.511 . S
C953 H967 0.961 . S
C953 H968 0.961 . S
C953 H969 0.961 . S
C954 C955 1.370 . S
C954 C956 1.363 . S
C954 H970 0.931 . S
C955 C954 1.370 . S
C955 C959 1.408 . S
C956 C954 1.363 . S
C956 C957 1.370 . S
C956 C960 1.524 . S
C957 C949 1.503 . S
C957 C956 1.370 . S
C957 C958 1.403 . S
C958 C957 1.403 . S
C958 C959 1.404 . S
C958 C961 1.539 . S
C959 C955 1.408 . S
C959 C958 1.404 . S
C959 H971 0.930 . S
C960 C956 1.524 . S
C960 H972 0.956 . S
C960 H973 0.961 . S
C960 H974 0.961 . S
C961 C958 1.539 . S
C961 H975 0.958 . S
C961 H976 0.961 . S
C961 H977 0.960 . S
H962 C946 0.931 . S
H963 C951 0.929 . S
H964 C952 0.960 . S
H965 C952 0.962 . S
H966 C952 0.960 . S
H967 C953 0.961 . S
H968 C953 0.961 . S
H969 C953 0.961 . S
H970 C954 0.931 . S
H971 C959 0.930 . S
H972 C960 0.956 . S
H973 C960 0.961 . S
H974 C960 0.961 . S
H975 C961 0.958 . S
H976 C961 0.961 . S
H977 C961 0.960 . S
C978 C979 1.391 . S
C978 C980 1.394 . S
C978 H994 0.931 . S
C979 C978 1.391 . S
C979 C983 1.376 . S
C980 C978 1.394 . S
C980 C981 1.369 . S
C980 C984 1.531 . S
C981 C980 1.369 . S
C981 C982 1.410 . S
C981 C989 1.503 . S
C982 C981 1.410 . S
C982 C983 1.392 . S
C982 C985 1.511 . S
C983 C979 1.376 . S
C983 C982 1.392 . S
C983 H995 0.929 . S
C984 C980 1.531 . S
C984 H996 0.960 . S
C984 H997 0.962 . S
C984 H998 0.960 . S
C985 C982 1.511 . S
C985 H999 0.961 . S
C985 H1000 0.961 . S
C985 H1001 0.961 . S
C986 C987 1.370 . S
C986 C988 1.363 . S
C986 H1002 0.931 . S
C987 C986 1.370 . S
C987 C991 1.408 . S
C988 C986 1.363 . S
C988 C989 1.370 . S
C988 C992 1.524 . S
C989 C981 1.503 . S
C989 C988 1.370 . S
C989 C990 1.403 . S
C990 C989 1.403 . S
C990 C991 1.404 . S
C990 C993 1.539 . S
C991 C987 1.408 . S
C991 C990 1.404 . S
C991 H1003 0.930 . S
C992 C988 1.524 . S
C992 H1004 0.956 . S
C992 H1005 0.961 . S
C992 H1006 0.961 . S
C993 C990 1.539 . S
C993 H1007 0.958 . S
C993 H1008 0.961 . S
C993 H1009 0.960 . S
H994 C978 0.931 . S
H995 C983 0.929 . S
H996 C984 0.960 . S
H997 C984 0.962 . S
H998 C984 0.960 . S
H999 C985 0.961 . S
H1000 C985 0.961 . S
H1001 C985 0.961 . S
H1002 C986 0.931 . S
H1003 C991 0.930 . S
H1004 C992 0.956 . S
H1005 C992 0.961 . S
H1006 C992 0.961 . S
H1007 C993 0.958 . S
H1008 C993 0.961 . S
H1009 C993 0.960 . S
C1010 C1011 1.391 1_565 S
C1010 C1012 1.394 . S
C1010 H1026 0.931 . S
C1011 C1010 1.391 1_545 S
C1011 C1015 1.376 . S
C1012 C1010 1.394 . S
C1012 C1013 1.369 . S
C1012 C1016 1.531 . S
C1013 C1012 1.369 . S
C1013 C1014 1.410 . S
C1013 C1021 1.503 . S
C1014 C1013 1.410 . S
C1014 C1015 1.392 1_565 S
C1014 C1017 1.511 . S
C1015 C1011 1.376 . S
C1015 C1014 1.392 1_545 S
C1015 H1027 0.929 . S
C1016 C1012 1.531 . S
C1016 H1028 0.960 . S
C1016 H1029 0.962 . S
C1016 H1030 0.960 . S
C1017 C1014 1.511 . S
C1017 H1031 0.970 . S
C1017 H1032 0.961 . S
C1017 H1033 0.961 . S
C1018 C1019 1.370 . S
C1018 C1020 1.363 . S
C1018 H1034 0.931 . S
C1019 C1018 1.370 . S
C1019 C1023 1.408 . S
C1020 C1018 1.363 . S
C1020 C1021 1.370 . S
C1020 C1024 1.524 . S
C1021 C1013 1.503 . S
C1021 C1020 1.370 . S
C1021 C1022 1.403 . S
C1022 C1021 1.403 . S
C1022 C1023 1.404 . S
C1022 C1025 1.539 . S
C1023 C1019 1.408 . S
C1023 C1022 1.404 . S
C1023 H1035 0.930 . S
C1024 C1020 1.524 . S
C1024 H1036 0.956 . S
C1024 H1037 0.961 . S
C1024 H1038 0.961 . S
C1025 C1022 1.539 . S
C1025 H1039 0.958 . S
C1025 H1040 0.961 . S
C1025 H1041 0.960 . S
H1026 C1010 0.931 . S
H1027 C1015 0.929 . S
H1028 C1016 0.960 . S
H1029 C1016 0.962 . S
H1030 C1016 0.960 . S
H1031 C1017 0.970 . S
H1032 C1017 0.961 . S
H1033 C1017 0.961 . S
H1034 C1018 0.931 . S
H1035 C1023 0.930 . S
H1036 C1024 0.956 . S
H1037 C1024 0.961 . S
H1038 C1024 0.961 . S
H1039 C1025 0.958 . S
H1040 C1025 0.961 . S
H1041 C1025 0.960 . S
C1042 C1043 1.391 . S
C1042 C1044 1.394 . S
C1042 H1058 0.931 . S
C1043 C1042 1.391 . S
C1043 C1047 1.376 . S
C1044 C1042 1.394 . S
C1044 C1045 1.369 . S
C1044 C1048 1.531 1_655 S
C1045 C1044 1.369 . S
C1045 C1046 1.410 . S
C1045 C1053 1.503 1_655 S
C1046 C1045 1.410 . S
C1046 C1047 1.392 . S
C1046 C1049 1.511 . S
C1047 C1043 1.376 . S
C1047 C1046 1.392 . S
C1047 H1059 0.929 . S
C1048 C1044 1.531 1_455 S
C1048 H1060 0.960 . S
C1048 H1061 0.962 . S
C1048 H1062 0.960 . S
C1049 C1046 1.511 . S
C1049 H1063 0.961 . S
C1049 H1064 0.961 . S
C1049 H1065 0.961 . S
C1050 C1051 1.370 . S
C1050 C1052 1.363 . S
C1050 H1066 0.931 . S
C1051 C1050 1.370 . S
C1051 C1055 1.408 . S
C1052 C1050 1.363 . S
C1052 C1053 1.370 . S
C1052 C1056 1.524 1_455 S
C1053 C1045 1.503 1_455 S
C1053 C1052 1.370 . S
C1053 C1054 1.403 . S
C1054 C1053 1.403 . S
C1054 C1055 1.404 . S
C1054 C1057 1.539 . S
C1055 C1051 1.408 . S
C1055 C1054 1.404 . S
C1055 H1067 0.930 . S
C1056 C1052 1.524 1_655 S
C1056 H1068 0.956 . S
C1056 H1069 0.961 . S
C1056 H1070 0.961 . S
C1057 C1054 1.539 . S
C1057 H1071 0.958 . S
C1057 H1072 0.961 . S
C1057 H1073 0.960 . S
H1058 C1042 0.931 . S
H1059 C1047 0.929 . S
H1060 C1048 0.960 . S
H1061 C1048 0.962 . S
H1062 C1048 0.960 . S
H1063 C1049 0.961 . S
H1064 C1049 0.961 . S
H1065 C1049 0.961 . S
H1066 C1050 0.931 . S
H1067 C1055 0.930 . S
H1068 C1056 0.956 . S
H1069 C1056 0.961 . S
H1070 C1056 0.961 . S
H1071 C1057 0.958 . S
H1072 C1057 0.961 . S
H1073 C1057 0.960 . S
C1074 C1075 1.391 . S
C1074 C1076 1.394 . S
C1074 H1090 0.931 . S
C1075 C1074 1.391 . S
C1075 C1079 1.376 . S
C1076 C1074 1.394 . S
C1076 C1077 1.369 . S
C1076 C1080 1.531 . S
C1077 C1076 1.369 . S
C1077 C1078 1.410 . S
C1077 C1085 1.503 . S
C1078 C1077 1.410 . S
C1078 C1079 1.392 . S
C1078 C1081 1.511 . S
C1079 C1075 1.376 . S
C1079 C1078 1.392 . S
C1079 H1091 0.929 . S
C1080 C1076 1.531 . S
C1080 H1092 0.960 . S
C1080 H1093 0.962 . S
C1080 H1094 0.960 . S
C1081 C1078 1.511 . S
C1081 H1095 0.961 . S
C1081 H1096 0.961 . S
C1081 H1097 0.961 . S
C1082 C1083 1.370 . S
C1082 C1084 1.363 . S
C1082 H1098 0.931 . S
C1083 C1082 1.370 . S
C1083 C1087 1.408 . S
C1084 C1082 1.363 . S
C1084 C1085 1.370 . S
C1084 C1088 1.524 . S
C1085 C1077 1.503 . S
C1085 C1084 1.370 . S
C1085 C1086 1.403 . S
C1086 C1085 1.403 . S
C1086 C1087 1.404 . S
C1086 C1089 1.539 . S
C1087 C1083 1.408 . S
C1087 C1086 1.404 . S
C1087 H1099 0.930 . S
C1088 C1084 1.524 . S
C1088 H1100 0.956 . S
C1088 H1101 0.961 . S
C1088 H1102 0.961 . S
C1089 C1086 1.539 . S
C1089 H1103 0.958 . S
C1089 H1104 0.961 . S
C1089 H1105 0.960 . S
H1090 C1074 0.931 . S
H1091 C1079 0.929 . S
H1092 C1080 0.960 . S
H1093 C1080 0.962 . S
H1094 C1080 0.960 . S
H1095 C1081 0.961 . S
H1096 C1081 0.961 . S
H1097 C1081 0.961 . S
H1098 C1082 0.931 . S
H1099 C1087 0.930 . S
H1100 C1088 0.956 . S
H1101 C1088 0.961 . S
H1102 C1088 0.961 . S
H1103 C1089 0.958 . S
H1104 C1089 0.961 . S
H1105 C1089 0.960 . S
C1106 C1107 1.391 . S
C1106 C1108 1.394 . S
C1106 H1122 0.931 . S
C1107 C1106 1.391 . S
C1107 C1111 1.376 . S
C1108 C1106 1.394 . S
C1108 C1109 1.369 . S
C1108 C1112 1.531 . S
C1109 C1108 1.369 . S
C1109 C1110 1.410 . S
C1109 C1117 1.503 . S
C1110 C1109 1.410 . S
C1110 C1111 1.392 . S
C1110 C1113 1.511 . S
C1111 C1107 1.376 . S
C1111 C1110 1.392 . S
C1111 H1123 0.929 . S
C1112 C1108 1.531 . S
C1112 H1124 0.960 . S
C1112 H1125 0.962 . S
C1112 H1126 0.960 . S
C1113 C1110 1.511 . S
C1113 H1127 0.961 . S
C1113 H1128 0.961 . S
C1113 H1129 0.961 . S
C1114 C1115 1.370 1_565 S
C1114 C1116 1.363 . S
C1114 H1130 0.931 . S
C1115 C1114 1.370 1_545 S
C1115 C1119 1.408 . S
C1116 C1114 1.363 . S
C1116 C1117 1.370 . S
C1116 C1120 1.524 . S
C1117 C1109 1.503 . S
C1117 C1116 1.370 . S
C1117 C1118 1.403 1_565 S
C1118 C1117 1.403 1_545 S
C1118 C1119 1.404 . S
C1118 C1121 1.539 . S
C1119 C1115 1.408 . S
C1119 C1118 1.404 . S
C1119 H1131 0.930 . S
C1120 C1116 1.524 . S
C1120 H1132 0.956 . S
C1120 H1133 0.961 . S
C1120 H1134 0.961 . S
C1121 C1118 1.539 . S
C1121 H1135 0.958 . S
C1121 H1136 0.961 . S
C1121 H1137 0.960 1_545 S
H1122 C1106 0.931 . S
H1123 C1111 0.929 . S
H1124 C1112 0.960 . S
H1125 C1112 0.962 . S
H1126 C1112 0.960 . S
H1127 C1113 0.961 . S
H1128 C1113 0.961 . S
H1129 C1113 0.961 . S
H1130 C1114 0.931 . S
H1131 C1119 0.930 . S
H1132 C1120 0.956 . S
H1133 C1120 0.961 . S
H1134 C1120 0.961 . S
H1135 C1121 0.958 . S
H1136 C1121 0.961 . S
H1137 C1121 0.960 1_565 S
C1138 C1139 1.391 . S
C1138 C1140 1.394 . S
C1138 H1154 0.931 . S
C1139 C1138 1.391 . S
C1139 C1143 1.376 . S
C1140 C1138 1.394 . S
C1140 C1141 1.369 . S
C1140 C1144 1.531 . S
C1141 C1140 1.369 . S
C1141 C1142 1.410 . S
C1141 C1149 1.503 1_655 S
C1142 C1141 1.410 . S
C1142 C1143 1.392 . S
C1142 C1145 1.511 . S
C1143 C1139 1.376 . S
C1143 C1142 1.392 . S
C1143 H1155 0.929 . S
C1144 C1140 1.531 . S
C1144 H1156 0.963 . S
C1144 H1157 0.962 . S
C1144 H1158 0.960 . S
C1145 C1142 1.511 . S
C1145 H1159 0.961 . S
C1145 H1160 0.961 1_655 S
C1145 H1161 0.961 1_655 S
C1146 C1147 1.370 . S
C1146 C1148 1.363 . S
C1146 H1162 0.931 . S
C1147 C1146 1.370 . S
C1147 C1151 1.408 . S
C1148 C1146 1.363 . S
C1148 C1149 1.370 . S
C1148 C1152 1.524 1_455 S
C1149 C1141 1.503 1_455 S
C1149 C1148 1.370 . S
C1149 C1150 1.403 . S
C1150 C1149 1.403 . S
C1150 C1151 1.404 . S
C1150 C1153 1.539 . S
C1151 C1147 1.408 . S
C1151 C1150 1.404 . S
C1151 H1163 0.930 . S
C1152 C1148 1.524 1_655 S
C1152 H1164 0.956 . S
C1152 H1165 0.961 . S
C1152 H1166 0.961 . S
C1153 C1150 1.539 . S
C1153 H1167 0.958 . S
C1153 H1168 0.961 . S
C1153 H1169 0.960 . S
H1154 C1138 0.931 . S
H1155 C1143 0.929 . S
H1156 C1144 0.963 . S
H1157 C1144 0.962 . S
H1158 C1144 0.960 . S
H1159 C1145 0.961 . S
H1160 C1145 0.961 1_455 S
H1161 C1145 0.961 1_455 S
H1162 C1146 0.931 . S
H1163 C1151 0.930 . S
H1164 C1152 0.956 . S
H1165 C1152 0.961 . S
H1166 C1152 0.961 . S
H1167 C1153 0.958 . S
H1168 C1153 0.961 . S
H1169 C1153 0.960 . S
C307 C4 0.725 . S
C315 C13 0.578 . S
C339 C47 0.643 . S
C347 C38 0.556 . S
C371 C72 0.517 . S
C379 C81 0.573 . S
C403 C115 0.735 . S
C411 C106 0.576 . S
C435 C140 0.466 . S
C443 C149 0.631 1_556 S
C467 C183 0.602 . S
C475 C174 0.537 . S
C499 C233 3.275 . S
C507 C204 3.291 . S
C531 C238 3.292 . S
C539 C267 3.293 . S
C563 C301 3.288 . S
C571 C272 3.306 . S
C595 C187 1.644 . S
C603 C29 1.646 . S
C627 C51 1.679 . S
C635 C119 1.648 . S
C659 C97 1.696 . S
C667 C165 1.665 . S
C691 C85 1.620 . S
C699 C212 1.650 . S
C723 C251 1.117 . S
C731 C17 1.081 1_655 S
C755 C280 1.401 . S
C763 C63 1.401 . S
C787 C276 0.997 . S
C795 C0 1.049 1_655 S
C819 C42 1.169 1_556 S
C827 C208 1.201 . S
C851 C255 1.582 . S
C859 C68 1.567 . S
C883 C76 1.673 . S
C891 C102 1.634 . S
C915 C144 1.654 . S
C923 C8 1.659 . S
C947 C34 1.653 . S
C955 C170 1.691 . S
C979 C285 1.066 . S
C987 C131 1.034 . S
C1011 C217 1.215 . S
C1019 C153 1.190 . S
C1043 C246 1.589 . S
C1051 C199 1.573 . S
C1075 C221 1.656 . S
C1083 C178 1.637 . S
C1107 C110 1.126 . S
C1115 C242 1.079 . S
C1139 C289 1.411 . S
C1147 C136 1.387 . S
