# Generated by pormake.
# Topology umy, (4)-cn, num edge types: 1
# Building blocks:
#     Node 0, Type 0, BuildingBlock: QUQFOY_clean_sbu_3, # of connection points: 4
#     Node 1, Type 0, BuildingBlock: QUQFOY_clean_sbu_3, # of connection points: 4
#     Node 2, Type 0, BuildingBlock: QUQFOY_clean_sbu_3, # of connection points: 4
#     Node 3, Type 0, BuildingBlock: QUQFOY_clean_sbu_3, # of connection points: 4
#     Node 4, Type 0, BuildingBlock: QUQFOY_clean_sbu_3, # of connection points: 4
#     Node 5, Type 0, BuildingBlock: QUQFOY_clean_sbu_3, # of connection points: 4
#     Node 6, Type 0, BuildingBlock: QUQFOY_clean_sbu_3, # of connection points: 4
#     Node 7, Type 0, BuildingBlock: QUQFOY_clean_sbu_3, # of connection points: 4
#     Node 8, Type 0, BuildingBlock: QUQFOY_clean_sbu_3, # of connection points: 4
#     Node 9, Type 0, BuildingBlock: QUQFOY_clean_sbu_3, # of connection points: 4
#     Node 10, Type 0, BuildingBlock: QUQFOY_clean_sbu_3, # of connection points: 4
#     Node 11, Type 0, BuildingBlock: QUQFOY_clean_sbu_3, # of connection points: 4
#     Edge 12, Type (0, 0), BuildingBlock: UVAHIK_clean_linker_0, # of connection points: 2
#     Edge 13, Type (0, 0), BuildingBlock: UVAHIK_clean_linker_0, # of connection points: 2
#     Edge 14, Type (0, 0), BuildingBlock: UVAHIK_clean_linker_0, # of connection points: 2
#     Edge 15, Type (0, 0), BuildingBlock: UVAHIK_clean_linker_0, # of connection points: 2
#     Edge 16, Type (0, 0), BuildingBlock: UVAHIK_clean_linker_0, # of connection points: 2
#     Edge 17, Type (0, 0), BuildingBlock: UVAHIK_clean_linker_0, # of connection points: 2
#     Edge 18, Type (0, 0), BuildingBlock: UVAHIK_clean_linker_0, # of connection points: 2
#     Edge 19, Type (0, 0), BuildingBlock: UVAHIK_clean_linker_0, # of connection points: 2
#     Edge 20, Type (0, 0), BuildingBlock: UVAHIK_clean_linker_0, # of connection points: 2
#     Edge 21, Type (0, 0), BuildingBlock: UVAHIK_clean_linker_0, # of connection points: 2
#     Edge 22, Type (0, 0), BuildingBlock: UVAHIK_clean_linker_0, # of connection points: 2
#     Edge 23, Type (0, 0), BuildingBlock: UVAHIK_clean_linker_0, # of connection points: 2
#     Edge 24, Type (0, 0), BuildingBlock: UVAHIK_clean_linker_0, # of connection points: 2
#     Edge 25, Type (0, 0), BuildingBlock: UVAHIK_clean_linker_0, # of connection points: 2
#     Edge 26, Type (0, 0), BuildingBlock: UVAHIK_clean_linker_0, # of connection points: 2
#     Edge 27, Type (0, 0), BuildingBlock: UVAHIK_clean_linker_0, # of connection points: 2
#     Edge 28, Type (0, 0), BuildingBlock: UVAHIK_clean_linker_0, # of connection points: 2
#     Edge 29, Type (0, 0), BuildingBlock: UVAHIK_clean_linker_0, # of connection points: 2
#     Edge 30, Type (0, 0), BuildingBlock: UVAHIK_clean_linker_0, # of connection points: 2
#     Edge 31, Type (0, 0), BuildingBlock: UVAHIK_clean_linker_0, # of connection points: 2
#     Edge 32, Type (0, 0), BuildingBlock: UVAHIK_clean_linker_0, # of connection points: 2
#     Edge 33, Type (0, 0), BuildingBlock: UVAHIK_clean_linker_0, # of connection points: 2
#     Edge 34, Type (0, 0), BuildingBlock: UVAHIK_clean_linker_0, # of connection points: 2
#     Edge 35, Type (0, 0), BuildingBlock: UVAHIK_clean_linker_0, # of connection points: 2
# Relax obj value: 0.099
# Max RMSD: 0.072
# Mean RMSD: 0.072
data_MOF--net-umy--node1-QUQFOY_clean_sbu_3--edge1-UVAHIK_clean_linker_0
_symmetry_space_group_name_H-M    P1
_symmetry_Int_Tables_number       1
_symmetry_cell_setting            triclinic
loop_
_symmetry_equiv_pos_as_xyz
'x, y, z'
_cell_length_a     51.48155
_cell_length_b     51.376122
_cell_length_c     67.735151
_cell_angle_alpha  89.991058
_cell_angle_beta   90.016739
_cell_angle_gamma 120.07592
loop_
_atom_site_label
_atom_site_type_symbol
_atom_site_fract_x
_atom_site_fract_y
_atom_site_fract_z
_atom_type_partial_charge
C0 C -0.01896 0.26249 0.12053 0.0
O1 O -0.00659 0.24795 0.11443 0.0
Cd2 Cd 0.04556 0.27203 0.1061 0.0
O3 O -0.00415 0.29112 0.12133 0.0
Cd4 Cd 0.0462 0.33367 0.11294 0.0
C5 C 0.07636 0.31182 0.14916 0.0
O6 O 0.05503 0.31182 0.08361 0.0
O7 O 0.09311 0.35245 0.09465 0.0
O8 O 0.02011 0.35703 0.09798 0.0
C9 C 0.08209 0.33243 0.08135 0.0
O10 O 0.07124 0.29 0.1378 0.0
C11 C 0.03513 0.38211 0.10672 0.0
O12 O 0.06877 0.33101 0.14418 0.0
O13 O 0.05504 0.38451 0.11887 0.0
C14 C 0.71377 -0.00316 0.28853 0.0
O15 O 0.74124 0.01215 0.28364 0.0
Cd16 Cd 0.76453 0.06342 0.27246 0.0
O17 O 0.69684 0.00826 0.28748 0.0
Cd18 Cd 0.70023 0.05613 0.2777 0.0
C19 C 0.75179 0.09479 0.3132 0.0
O20 O 0.73127 0.06537 0.24861 0.0
O21 O 0.72538 0.10224 0.25789 0.0
O22 O 0.65072 0.02696 0.26293 0.0
C23 C 0.73532 0.09138 0.24512 0.0
O24 O 0.77101 0.09402 0.30175 0.0
C25 C 0.63949 0.04094 0.27159 0.0
O26 O 0.72398 0.08086 0.30885 0.0
O27 O 0.65635 0.06155 0.28359 0.0
C28 C 0.70254 0.71468 0.45493 0.0
O29 O 0.71659 0.74218 0.44984 0.0
Cd30 Cd 0.69254 0.7691 0.43847 0.0
O31 O 0.67403 0.69928 0.45361 0.0
Cd32 Cd 0.63175 0.70564 0.44244 0.0
C33 C 0.64639 0.75757 0.47824 0.0
O34 O 0.65699 0.73755 0.41419 0.0
O35 O 0.61417 0.73285 0.42177 0.0
O36 O 0.60972 0.65627 0.42707 0.0
C37 C 0.6363 0.74316 0.41003 0.0
O38 O 0.66866 0.77582 0.46773 0.0
C39 C 0.58437 0.64572 0.43545 0.0
O40 O 0.63011 0.73018 0.47306 0.0
O41 O 0.58123 0.66291 0.44749 0.0
C42 C 0.97331 0.71216 0.61908 0.0
O43 O 0.95972 0.72524 0.61247 0.0
Cd44 Cd 0.90769 0.69877 0.60415 0.0
O45 O 0.95995 0.68356 0.62021 0.0
Cd46 Cd 0.91105 0.63892 0.61136 0.0
C47 C 0.87857 0.65851 0.64735 0.0
O48 O 0.90183 0.65995 0.58201 0.0
O49 O 0.86438 0.6181 0.59197 0.0
O50 O 0.9399 0.61803 0.59705 0.0
C51 C 0.87528 0.63875 0.57906 0.0
O52 O 0.88275 0.68007 0.63602 0.0
C53 C 0.92592 0.59289 0.60584 0.0
O54 O 0.88719 0.64015 0.64231 0.0
O55 O 0.90518 0.58924 0.61766 0.0
C56 C 0.24625 0.98092 0.78615 0.0
O57 O 0.22001 0.96798 0.77883 0.0
Cd58 Cd 0.19445 0.91671 0.7687 0.0
O59 O 0.26118 0.96728 0.78717 0.0
Cd60 Cd 0.25636 0.91849 0.77694 0.0
C61 C 0.20198 0.88378 0.81126 0.0
O62 O 0.22851 0.91238 0.74691 0.0
O63 O 0.22997 0.87305 0.7563 0.0
O64 O 0.30688 0.94721 0.76381 0.0
C65 C 0.22237 0.88572 0.74329 0.0
O66 O 0.18554 0.88895 0.79971 0.0
C67 C 0.31685 0.93192 0.77224 0.0
O68 O 0.22925 0.89266 0.80694 0.0
O69 O 0.29879 0.91065 0.78343 0.0
C70 C 0.25506 0.26007 0.95561 0.0
O71 O 0.24019 0.23322 0.94931 0.0
Cd72 Cd 0.26293 0.20458 0.93968 0.0
O73 O 0.28368 0.27383 0.95593 0.0
Cd74 Cd 0.32534 0.26526 0.946 0.0
C75 C 0.30415 0.21263 0.98185 0.0
O76 O 0.30149 0.23564 0.91678 0.0
O77 O 0.34154 0.23582 0.92633 0.0
O78 O 0.34989 0.31522 0.93146 0.0
C79 C 0.32107 0.22813 0.91348 0.0
O80 O 0.28178 0.19615 0.97083 0.0
C81 C 0.37502 0.32421 0.93983 0.0
O82 O 0.32339 0.23935 0.97673 0.0
O83 O 0.37688 0.30594 0.9516 0.0
C84 C 0.69877 0.97736 0.69317 0.0
O85 O 0.71234 0.96354 0.69838 0.0
Cd86 Cd 0.68653 0.91178 0.70845 0.0
O87 O 0.67023 0.96424 0.69379 0.0
Cd88 Cd 0.62704 0.91524 0.70361 0.0
C89 C 0.64257 0.87971 0.66733 0.0
O90 O 0.64985 0.90628 0.73231 0.0
O91 O 0.60775 0.86871 0.72267 0.0
O92 O 0.60617 0.94306 0.71947 0.0
C93 C 0.62863 0.8797 0.73539 0.0
O94 O 0.66405 0.88286 0.67832 0.0
C95 C 0.58082 0.9291 0.71098 0.0
O96 O 0.62633 0.89086 0.67236 0.0
O97 O 0.57711 0.90896 0.69857 0.0
C98 C 0.70614 0.71071 0.86153 0.0
O99 O 0.73285 0.72595 0.86791 0.0
Cd100 Cd 0.76163 0.70373 0.87841 0.0
O101 O 0.69266 0.68204 0.86147 0.0
Cd102 Cd 0.70159 0.64085 0.87205 0.0
C103 C 0.75506 0.66179 0.83687 0.0
O104 O 0.73059 0.66531 0.90144 0.0
O105 O 0.73062 0.62507 0.89244 0.0
O106 O 0.6515 0.61635 0.88617 0.0
C107 C 0.73807 0.64578 0.90511 0.0
O108 O 0.7711 0.68437 0.84787 0.0
C109 C 0.64273 0.59104 0.87804 0.0
O110 O 0.72826 0.64253 0.84172 0.0
O111 O 0.6612 0.58902 0.86659 0.0
C112 C -0.01487 0.71892 0.03061 0.0
O113 O -0.00076 0.74563 0.03723 0.0
Cd114 Cd 0.05133 0.77085 0.04533 0.0
O115 O -0.00196 0.70332 0.02924 0.0
Cd116 Cd 0.04713 0.70762 0.03757 0.0
C117 C 0.07964 0.76013 0.00175 0.0
O118 O 0.05704 0.73757 0.06725 0.0
O119 O 0.09419 0.73354 0.05629 0.0
O120 O 0.01946 0.65742 0.05171 0.0
C121 C 0.08358 0.74267 0.06974 0.0
O122 O 0.07603 0.77767 0.01328 0.0
C123 C 0.03395 0.64714 0.0426 0.0
O124 O 0.07059 0.73298 0.00664 0.0
O125 O 0.05403 0.6648 0.03058 0.0
C126 C 0.25467 -0.01316 0.19613 0.0
O127 O 0.23966 -0.00155 0.20267 0.0
Cd128 Cd 0.26264 0.04996 0.21252 0.0
O129 O 0.28326 0.00204 0.19571 0.0
Cd130 Cd 0.32522 0.05201 0.20564 0.0
C131 C 0.30383 0.0839 0.17033 0.0
O132 O 0.30178 0.05788 0.23497 0.0
O133 O 0.34222 0.09762 0.22551 0.0
O134 O 0.34788 0.025 0.22006 0.0
C135 C 0.32156 0.085 0.23826 0.0
O136 O 0.2816 0.0777 0.18155 0.0
C137 C 0.37319 0.04033 0.21173 0.0
O138 O 0.32315 0.07642 0.1751 0.0
O139 O 0.3762 0.06108 0.20009 0.0
C140 C 0.24566 0.2583 0.36387 0.0
O141 O 0.21922 0.24474 0.37085 0.0
Cd142 Cd 0.1933 0.26995 0.38095 0.0
O143 O 0.26067 0.28696 0.36318 0.0
Cd144 Cd 0.25545 0.33066 0.37364 0.0
C145 C 0.20179 0.31139 0.33875 0.0
O146 O 0.22699 0.30784 0.40326 0.0
O147 O 0.22862 0.34894 0.39466 0.0
O148 O 0.30594 0.35289 0.38701 0.0
C149 C 0.22053 0.32798 0.40723 0.0
O150 O 0.18509 0.28937 0.34998 0.0
C151 C 0.31585 0.3782 0.37861 0.0
O152 O 0.22889 0.32987 0.34347 0.0
O153 O 0.29774 0.38128 0.36742 0.0
C154 C 0.96762 0.25041 0.52911 0.0
O155 O 0.95184 0.22298 0.53412 0.0
Cd156 Cd 0.90057 0.20002 0.54472 0.0
O157 O 0.95685 0.26795 0.53 0.0
Cd158 Cd 0.9096 0.26577 0.54007 0.0
C159 C 0.87109 0.21528 0.50387 0.0
O160 O 0.89983 0.23375 0.56863 0.0
O161 O 0.86348 0.24073 0.56003 0.0
O162 O 0.93958 0.31519 0.55504 0.0
C163 C 0.87404 0.22988 0.57237 0.0
O164 O 0.87141 0.19543 0.51497 0.0
C165 C 0.92594 0.32691 0.54653 0.0
O166 O 0.88499 0.24293 0.50878 0.0
O167 O 0.90512 0.31033 0.53458 0.0
C168 C 0.04749 0.60706 0.03815 0.0
C169 C 0.02928 0.61693 0.04701 0.0
C170 C 0.04548 0.58006 0.04405 0.0
C171 C -0.00183 0.50884 0.07085 0.0
H172 H 0.07425 0.51248 0.08024 0.0
C173 C 0.04964 0.43623 0.11023 0.0
C174 C 0.03084 0.40776 0.10195 0.0
C175 C 0.04745 0.46106 0.1042 0.0
C176 C 0.05282 0.51118 0.07787 0.0
H177 H -0.00628 0.6056 0.06832 0.0
H178 H -0.00965 0.55856 0.07867 0.0
H179 H 0.07375 0.55642 0.06729 0.0
H180 H -0.0058 0.38273 0.08144 0.0
H181 H -0.00948 0.42609 0.07086 0.0
H182 H 0.9773 0.46364 0.08174 0.0
C183 C 0.00606 0.57159 0.06712 0.0
C184 C 0.05252 0.53621 0.07017 0.0
C185 C 0.00809 0.59861 0.06124 0.0
C186 C 0.00905 0.4044 0.08808 0.0
C187 C 0.00682 0.42921 0.08208 0.0
C188 C -0.00154 0.48372 0.07851 0.0
C189 C 0.02521 0.56237 0.0589 0.0
C190 C 0.02521 0.53533 0.06656 0.0
C191 C 0.02638 0.45791 0.0898 0.0
C192 C 0.02582 0.48466 0.08213 0.0
H193 H 0.06392 0.62059 0.02707 0.0
H194 H 0.06017 0.57327 0.0372 0.0
H195 H 0.97678 0.50746 0.06814 0.0
H196 H 0.06656 0.43951 0.12102 0.0
H197 H 0.06251 0.48283 0.11065 0.0
C198 C 0.59222 0.01453 0.25178 0.0
C199 C 0.60891 0.03482 0.2669 0.0
C200 C 0.56457 0.01091 0.24598 0.0
C201 C 0.52001 0.02648 0.22775 0.0
H202 H 0.46202 0.02371 0.26546 0.0
C203 C 0.42654 0.05276 0.20746 0.0
C204 C 0.39828 0.03509 0.21625 0.0
C205 C 0.45075 0.0492 0.21296 0.0
C206 C 0.47784 0.02414 0.25474 0.0
H207 H 0.60922 0.06636 0.28831 0.0
H208 H 0.5609 0.06001 0.27819 0.0
H209 H 0.50643 0.02296 0.27725 0.0
H210 H 0.37293 -0.00087 0.23719 0.0
H211 H 0.41516 -0.00706 0.24673 0.0
H212 H 0.49152 0.02792 0.20525 0.0
C213 C 0.56915 0.04683 0.27087 0.0
C214 C 0.50338 0.02399 0.2615 0.0
C215 C 0.59689 0.05057 0.2766 0.0
C216 C 0.39448 0.01321 0.23021 0.0
C217 C 0.41868 0.00974 0.23576 0.0
C218 C 0.49454 0.0268 0.22099 0.0
C219 C 0.55297 0.02737 0.25527 0.0
C220 C 0.52487 0.02545 0.24809 0.0
C221 C 0.44716 0.02799 0.22741 0.0
C222 C 0.47333 0.02591 0.23442 0.0
H223 H 0.60085 0.00199 0.24406 0.0
H224 H 0.55239 -0.00452 0.23408 0.0
H225 H 0.53633 0.02791 0.21707 0.0
H226 H 0.43015 0.06979 0.19665 0.0
H227 H 0.47252 0.06376 0.20639 0.0
C228 C 0.53157 0.60388 0.44036 0.0
C229 C 0.55926 0.61544 0.43061 0.0
C230 C 0.50722 0.57617 0.43479 0.0
C231 C 0.46382 0.51003 0.42621 0.0
H232 H 0.4469 0.49646 0.37015 0.0
C233 C 0.36482 0.39987 0.39649 0.0
C234 C 0.34645 0.40332 0.38262 0.0
C235 C 0.3927 0.42427 0.40164 0.0
C236 C 0.45136 0.49995 0.38584 0.0
H237 H 0.5834 0.60667 0.40774 0.0
H238 H 0.54082 0.55829 0.39803 0.0
H239 H 0.49199 0.54178 0.38133 0.0
H240 H 0.34335 0.43474 0.36273 0.0
H241 H 0.39209 0.47739 0.37174 0.0
H242 H 0.42283 0.46861 0.43076 0.0
C243 C 0.53792 0.57078 0.40986 0.0
C244 C 0.47729 0.52573 0.39224 0.0
C245 C 0.56232 0.5984 0.41551 0.0
C246 C 0.35699 0.43139 0.37348 0.0
C247 C 0.38496 0.45577 0.37857 0.0
C248 C 0.438 0.48417 0.41982 0.0
C249 C 0.51003 0.55955 0.4193 0.0
C250 C 0.48359 0.53121 0.4125 0.0
C251 C 0.40287 0.45258 0.39295 0.0
C252 C 0.43131 0.47904 0.39958 0.0
H253 H 0.52852 0.61648 0.45205 0.0
H254 H 0.48592 0.56821 0.44221 0.0
H255 H 0.46823 0.51355 0.44191 0.0
H256 H 0.3574 0.37849 0.40374 0.0
H257 H 0.4062 0.42105 0.41257 0.0
C258 C 0.95428 0.57282 0.58749 0.0
C259 C 0.93246 0.56854 0.6016 0.0
C260 C 0.95866 0.54907 0.5821 0.0
C261 C 0.94543 0.48998 0.56338 0.0
H262 H 0.94256 0.43175 0.60104 0.0
C263 C 0.91734 0.37027 0.54167 0.0
C264 C 0.93275 0.35778 0.55124 0.0
C265 C 0.92179 0.39834 0.54738 0.0
C266 C 0.94378 0.44802 0.59036 0.0
H267 H 0.89895 0.53634 0.62168 0.0
H268 H 0.9065 0.49479 0.61218 0.0
H269 H 0.94279 0.47674 0.61289 0.0
H270 H 0.96573 0.36535 0.57382 0.0
H271 H 0.97351 0.41442 0.58375 0.0
H272 H 0.9461 0.46112 0.54084 0.0
C273 C 0.92035 0.51658 0.60538 0.0
C274 C 0.9436 0.4736 0.59714 0.0
C275 C 0.91591 0.54033 0.61075 0.0
C276 C 0.95343 0.37434 0.5662 0.0
C277 C 0.95778 0.40235 0.57197 0.0
C278 C 0.94547 0.46435 0.5566 0.0
C279 C 0.94139 0.52057 0.59074 0.0
C280 C 0.94402 0.49465 0.58371 0.0
C281 C 0.94166 0.41443 0.56282 0.0
C282 C 0.94423 0.44289 0.57 0.0
H283 H 0.96753 0.59435 0.58025 0.0
H284 H 0.97532 0.55293 0.57097 0.0
H285 H 0.94549 0.50566 0.55266 0.0
H286 H 0.90126 0.35806 0.53009 0.0
H287 H 0.90882 0.40692 0.54017 0.0
C288 C 0.52837 0.91932 0.70671 0.0
C289 C 0.55635 0.93494 0.71619 0.0
C290 C 0.50458 0.92318 0.71275 0.0
C291 C 0.46248 0.94693 0.72253 0.0
H292 H 0.4475 0.94337 0.77889 0.0
C293 C 0.36571 0.9595 0.75427 0.0
C294 C 0.34739 0.93747 0.76809 0.0
C295 C 0.39333 0.96279 0.74876 0.0
C296 C 0.45143 0.94441 0.76312 0.0
H297 H 0.58162 0.96757 0.73904 0.0
H298 H 0.54005 0.97429 0.74955 0.0
H299 H 0.49165 0.94233 0.76676 0.0
H300 H 0.34419 0.90248 0.78757 0.0
H301 H 0.39248 0.90823 0.77791 0.0
H302 H 0.42186 0.9482 0.71885 0.0
C303 C 0.53647 0.95886 0.73758 0.0
C304 C 0.47682 0.94411 0.75619 0.0
C305 C 0.56029 0.95512 0.73148 0.0
C306 C 0.3578 0.91963 0.77687 0.0
C307 C 0.38551 0.92301 0.77141 0.0
C308 C 0.4372 0.94741 0.72947 0.0
C309 C 0.50826 0.94264 0.72845 0.0
C310 C 0.4824 0.94499 0.73581 0.0
C311 C 0.40327 0.94423 0.75701 0.0
C312 C 0.43122 0.9458 0.74983 0.0
H313 H 0.52465 0.90361 0.69489 0.0
H314 H 0.48301 0.91018 0.70555 0.0
H315 H 0.46635 0.94788 0.70676 0.0
H316 H 0.3584 0.97371 0.7473 0.0
H317 H 0.40674 0.97961 0.73783 0.0
C318 C 0.39886 0.37262 0.92105 0.0
C319 C 0.40128 0.35381 0.93511 0.0
C320 C 0.42418 0.39938 0.91523 0.0
C321 C 0.50631 0.43461 0.91265 0.0
H322 H 0.50357 0.50734 0.90188 0.0
C323 C 0.59399 0.56749 0.8963 0.0
C324 C 0.61309 0.56479 0.88267 0.0
C325 C 0.56713 0.54223 0.90205 0.0
C326 C 0.50473 0.48724 0.90491 0.0
H327 H 0.43193 0.34885 0.95462 0.0
H328 H 0.47611 0.39582 0.94464 0.0
H329 H 0.45908 0.46307 0.91475 0.0
H330 H 0.6185 0.53372 0.86382 0.0
H331 H 0.57136 0.48964 0.87367 0.0
H332 H 0.55208 0.45888 0.90321 0.0
C333 C 0.4547 0.38959 0.93787 0.0
C334 C 0.47918 0.46182 0.91212 0.0
C335 C 0.42937 0.3628 0.94369 0.0
C336 C 0.60432 0.53649 0.87443 0.0
C337 C 0.57743 0.51122 0.88017 0.0
C338 C 0.53182 0.45999 0.90544 0.0
C339 C 0.45247 0.40793 0.92334 0.0
C340 C 0.47971 0.43523 0.91609 0.0
C341 C 0.55877 0.51373 0.89428 0.0
C342 C 0.53133 0.4866 0.90148 0.0
H343 H 0.37752 0.3663 0.91415 0.0
H344 H 0.42174 0.41286 0.90388 0.0
H345 H 0.50735 0.41436 0.91529 0.0
H346 H 0.60013 0.589 0.90294 0.0
H347 H 0.55341 0.5449 0.91308 0.0
C348 C 0.13095 0.35404 0.06329 0.0
C349 C 0.10062 0.33165 0.06499 0.0
C350 C 0.14895 0.35224 0.04855 0.0
C351 C 0.14651 0.31379 0.00163 0.0
H352 H 0.22305 0.3251 0.01953 0.0
C353 C 0.20735 0.25932 0.96392 0.0
C354 C 0.2389 0.2747 0.96374 0.0
C355 C 0.19195 0.27164 0.97342 0.0
C356 C 0.20206 0.32247 0.01412 0.0
H357 H 0.06509 0.29039 0.05218 0.0
H358 H 0.09657 0.28703 0.02665 0.0
H359 H 0.19316 0.33694 0.04158 0.0
H360 H 0.279 0.31589 0.97249 0.0
H361 H 0.25202 0.33746 0.98901 0.0
H362 H 0.15507 0.29838 0.97436 0.0
C363 C 0.10639 0.30617 0.03654 0.0
C364 C 0.1849 0.32924 0.02679 0.0
C365 C 0.0884 0.30797 0.05127 0.0
C366 C 0.25469 0.30334 0.97249 0.0
C367 C 0.23926 0.31566 0.98201 0.0
C368 C 0.1637 0.30702 0.98895 0.0
C369 C 0.13697 0.32804 0.0352 0.0
C370 C 0.15663 0.32433 0.02085 0.0
C371 C 0.20774 0.29964 0.98296 0.0
C372 C 0.19135 0.31064 -0.00477 0.0
H373 H 0.14095 0.37271 0.07356 0.0
H374 H 0.17235 0.36963 0.04774 0.0
H375 H 0.12504 0.31026 -0.00347 0.0
H376 H 0.19445 0.23727 0.95727 0.0
H377 H 0.16768 0.25856 0.97406 0.0
C378 C 0.76033 0.13916 0.22557 0.0
C379 C 0.75372 0.10934 0.22825 0.0
C380 C 0.77965 0.15678 0.21047 0.0
C381 C 0.81719 0.15337 0.16448 0.0
H382 H 0.88082 0.23171 0.18143 0.0
C383 C 0.93399 0.21445 0.12866 0.0
C384 C 0.9498 0.24604 0.12792 0.0
C385 C 0.90581 0.199 0.13761 0.0
C386 C 0.86291 0.2102 0.17625 0.0
H387 H 0.76109 0.07417 0.21673 0.0
H388 H 0.79505 0.10495 0.19062 0.0
H389 H 0.83861 0.20224 0.20324 0.0
H390 H 0.94757 0.28611 0.13494 0.0
H391 H 0.89826 0.25907 0.15045 0.0
H392 H 0.84218 0.16099 0.13773 0.0
C393 C 0.78511 0.11469 0.2 0.0
C394 C 0.83868 0.19328 0.18878 0.0
C395 C 0.76584 0.09711 0.21508 0.0
C396 C 0.93613 0.26177 0.13544 0.0
C397 C 0.90793 0.24631 0.14438 0.0
C398 C 0.84146 0.17032 0.15192 0.0
C399 C 0.79266 0.14488 0.19774 0.0
C400 C 0.81594 0.16437 0.18325 0.0
C401 C 0.89278 0.2148 0.14599 0.0
C402 C 0.86496 0.1986 0.15789 0.0
H403 H 0.75112 0.14913 0.2354 0.0
H404 H 0.78479 0.17987 0.20894 0.0
H405 H 0.79975 0.13136 0.15968 0.0
H406 H 0.9438 0.20161 0.12296 0.0
H407 H 0.8949 0.17475 0.13879 0.0
C408 C 0.6167 0.77017 0.38961 0.0
C409 C 0.63961 0.76372 0.39376 0.0
C410 C 0.6208 0.79132 0.37517 0.0
C411 C 0.6695 0.8352 0.33312 0.0
H412 H 0.64641 0.89345 0.34862 0.0
C413 C 0.72037 0.9537 0.29903 0.0
C414 C 0.70164 0.96607 0.29649 0.0
C415 C 0.70951 0.92574 0.30814 0.0
C416 C 0.65252 0.87709 0.34387 0.0
H417 H 0.68436 0.77351 0.38557 0.0
H418 H 0.69173 0.81076 0.36067 0.0
H419 H 0.63307 0.85013 0.36956 0.0
H420 H 0.65639 0.95805 0.30067 0.0
H421 H 0.63749 0.90925 0.31645 0.0
H422 H 0.68979 0.86287 0.30769 0.0
C423 C 0.67043 0.79924 0.36834 0.0
C424 C 0.64484 0.85221 0.35588 0.0
C425 C 0.66629 0.77804 0.38273 0.0
C426 C 0.67151 0.94932 0.30254 0.0
C427 C 0.66068 0.9214 0.31165 0.0
C428 C 0.67726 0.86018 0.32111 0.0
C429 C 0.64793 0.80649 0.36463 0.0
C430 C 0.65363 0.83122 0.35081 0.0
C431 C 0.67971 0.90958 0.31489 0.0
C432 C 0.66923 0.88161 0.32652 0.0
H433 H 0.59578 0.75929 0.39776 0.0
H434 H 0.60286 0.79608 0.37245 0.0
H435 H 0.6762 0.81918 0.32866 0.0
H436 H 0.74367 0.96596 0.2945 0.0
H437 H 0.72481 0.91737 0.31059 0.0
C438 C 0.75075 0.71742 0.46477 0.0
C439 C 0.71929 0.70082 0.46334 0.0
C440 C 0.7664 0.70524 0.47414 0.0
C441 C 0.75593 0.65096 0.51251 0.0
H442 H 0.83426 0.66645 0.49531 0.0
C443 C 0.82686 0.61738 0.5604 0.0
C444 C 0.85697 0.64 0.56273 0.0
C445 C 0.80906 0.61985 0.54578 0.0
C446 C 0.81243 0.66199 0.50031 0.0
H447 H 0.6797 0.65786 0.46993 0.0
H448 H 0.70712 0.63666 0.4863 0.0
H449 H 0.80465 0.67984 0.47383 0.0
H450 H 0.89236 0.68239 0.55112 0.0
H451 H 0.86132 0.68698 0.52588 0.0
H452 H 0.76405 0.63414 0.53927 0.0
C453 C 0.71959 0.65921 0.48032 0.0
C454 C 0.79549 0.66964 0.48802 0.0
C455 C 0.70392 0.67135 0.47088 0.0
C456 C 0.86923 0.66462 0.54972 0.0
C457 C 0.85146 0.66709 0.53514 0.0
C458 C 0.77288 0.64339 0.52482 0.0
C459 C 0.75094 0.67622 0.48234 0.0
C460 C 0.76735 0.6648 0.49418 0.0
C461 C 0.82106 0.64499 0.53319 0.0
C462 C 0.80161 0.64945 0.51905 0.0
H463 H 0.7633 0.74015 0.45908 0.0
H464 H 0.79052 0.71905 0.47566 0.0
H465 H 0.73449 0.64729 0.51779 0.0
H466 H 0.81685 0.598 0.57014 0.0
H467 H 0.78581 0.60227 0.54449 0.0
C468 C 0.02011 0.76176 0.62396 0.0
C469 C 0.00429 0.73042 0.62665 0.0
C470 C 0.04798 0.77946 0.63292 0.0
C471 C 0.11008 0.77734 0.65947 0.0
H472 H 0.11676 0.8472 0.68616 0.0
C473 C 0.19075 0.83775 0.72474 0.0
C474 C 0.20334 0.86906 0.72628 0.0
C475 C 0.17024 0.8218 0.70971 0.0
C476 C 0.1156 0.82813 0.67852 0.0
H477 H 0.00602 0.69293 0.64002 0.0
H478 H 0.05441 0.72393 0.656 0.0
H479 H 0.07422 0.81761 0.66473 0.0
H480 H 0.20591 0.90847 0.7126 0.0
H481 H 0.17055 0.88075 0.68627 0.0
H482 H 0.15126 0.78761 0.67384 0.0
C483 C 0.04545 0.73478 0.64676 0.0
C484 C 0.09118 0.81114 0.6662 0.0
C485 C 0.01761 0.71703 0.6377 0.0
C486 C 0.19627 0.88429 0.71195 0.0
C487 C 0.17594 0.86841 0.6969 0.0
C488 C 0.13461 0.79439 0.67185 0.0
C489 C 0.06057 0.76626 0.64488 0.0
C490 C 0.08795 0.78539 0.65667 0.0
C491 C 0.16208 0.83692 0.69593 0.0
C492 C 0.13746 0.81982 0.68164 0.0
H493 H 0.01067 0.77276 0.61533 0.0
H494 H 0.05936 0.8036 0.63086 0.0
H495 H 0.10835 0.75777 0.65217 0.0
H496 H 0.19585 0.82542 0.73555 0.0
H497 H 0.15979 0.79752 0.70944 0.0
C498 C 0.2434 0.02742 0.7922 0.0
C499 C 0.25873 0.01142 0.79459 0.0
C500 C 0.25327 0.05476 0.80186 0.0
C501 C 0.31668 0.11572 0.82962 0.0
H502 H 0.25295 0.12105 0.85641 0.0
C503 C 0.33653 0.1957 0.89523 0.0
C504 C 0.31792 0.20832 0.89678 0.0
C505 C 0.33178 0.175 0.88029 0.0
C506 C 0.27101 0.12027 0.84876 0.0
H507 H 0.29736 0.01235 0.8082 0.0
H508 H 0.31428 0.0599 0.82536 0.0
H509 H 0.24046 0.07914 0.83441 0.0
H510 H 0.28083 0.21051 0.8833 0.0
H511 H 0.27281 0.17478 0.85711 0.0
H512 H 0.34726 0.15668 0.84445 0.0
C513 C 0.2948 0.05143 0.81584 0.0
C514 C 0.26384 0.0962 0.83612 0.0
C515 C 0.28499 0.02408 0.80609 0.0
C516 C 0.29532 0.20088 0.88263 0.0
C517 C 0.29065 0.18033 0.86767 0.0
C518 C 0.32388 0.1399 0.8423 0.0
C519 C 0.27859 0.06666 0.81421 0.0
C520 C 0.28657 0.0935 0.82653 0.0
C521 C 0.30839 0.16666 0.86659 0.0
C522 C 0.3011 0.14227 0.85213 0.0
H523 H 0.2233 0.0185 0.78324 0.0
H524 H 0.24065 0.06628 0.8 0.0
H525 H 0.33466 0.11438 0.82228 0.0
H526 H 0.35419 0.20108 0.9059 0.0
H527 H 0.34566 0.16468 0.87996 0.0
C528 C 0.66245 0.71015 0.84468 0.0
C529 C 0.69121 0.72644 0.85313 0.0
C530 C 0.64966 0.72511 0.83511 0.0
C531 C 0.65714 0.80028 0.82781 0.0
H532 H 0.62548 0.76938 0.7757 0.0
C533 C 0.65394 0.87398 0.76518 0.0
C534 C 0.6298 0.86147 0.75184 0.0
C535 C 0.65618 0.85631 0.77998 0.0
C536 C 0.63367 0.77803 0.79036 0.0
H537 H 0.72846 0.77131 0.85892 0.0
H538 H 0.70635 0.79727 0.84205 0.0
H539 H 0.63851 0.74022 0.79767 0.0
H540 H 0.58843 0.82095 0.74402 0.0
H541 H 0.59235 0.79005 0.76994 0.0
H542 H 0.65323 0.83861 0.82015 0.0
C543 C 0.69352 0.77297 0.84298 0.0
C544 C 0.64113 0.7613 0.80298 0.0
C545 C 0.70631 0.75804 0.85253 0.0
C546 C 0.60742 0.83117 0.754 0.0
C547 C 0.60969 0.81346 0.76879 0.0
C548 C 0.6497 0.81704 0.81517 0.0
C549 C 0.66532 0.75667 0.83382 0.0
C550 C 0.65362 0.77256 0.82165 0.0
C551 C 0.63433 0.82574 0.78175 0.0
C552 C 0.63855 0.80641 0.79614 0.0
H553 H 0.65011 0.68579 0.845 0.0
H554 H 0.62772 0.71196 0.82841 0.0
H555 H 0.66625 0.80931 0.84224 0.0
H556 H 0.67151 0.89728 0.76393 0.0
H557 H 0.67565 0.86635 0.78956 0.0
C558 C 0.76944 0.62996 0.92427 0.0
C559 C 0.75748 0.64909 0.92209 0.0
C560 C 0.78971 0.63472 0.93946 0.0
C561 C 0.84488 0.69588 0.97053 0.0
H562 H 0.84912 0.63182 -0.00207 0.0
C563 C 0.93915 0.72304 0.02572 0.0
C564 C 0.95415 0.70673 0.02318 0.0
C565 C 0.91145 0.71351 0.01672 0.0
C566 C 0.84822 0.64992 0.99036 0.0
H567 H 0.75609 0.68719 0.93469 0.0
H568 H 0.79115 0.69525 0.96133 0.0
H569 H 0.8069 0.6196 0.97587 0.0
H570 H 0.951 0.66669 0.01009 0.0
H571 H 0.90286 0.65036 -0.00593 0.0
H572 H 0.88643 0.72615 0.98448 0.0
C573 C 0.78535 0.67695 0.95108 0.0
C574 C 0.8241 0.64293 0.97773 0.0
C575 C 0.76519 0.67227 0.93586 0.0
C576 C 0.94008 0.67982 0.01229 0.0
C577 C 0.91238 0.67035 0.0032 0.0
C578 C 0.86892 0.70284 0.98311 0.0
C579 C 0.79833 0.65864 0.9528 0.0
C580 C 0.82239 0.66584 0.96749 0.0
C581 C 0.89817 0.68754 0.00489 0.0
C582 C 0.87108 0.67995 -0.00701 0.0
H583 H 0.76384 0.61185 0.9139 0.0
H584 H 0.79953 0.62039 0.94027 0.0
H585 H 0.84458 0.71402 0.96258 0.0
H586 H 0.94918 0.74367 0.03423 0.0
H587 H 0.90076 0.72691 0.01861 0.0
C588 C 0.25496 0.94342 0.17946 0.0
C589 C 0.2388 0.95598 0.18796 0.0
C590 C 0.23991 0.91551 0.17003 0.0
C591 C 0.16496 0.84761 0.16303 0.0
H592 H 0.19479 0.84758 0.11047 0.0
C593 C 0.09004 0.77229 0.10039 0.0
C594 C 0.10215 0.76117 0.08639 0.0
C595 C 0.10803 0.79155 0.11535 0.0
C596 C 0.18645 0.84687 0.12525 0.0
H597 H 0.19412 0.94835 0.19407 0.0
H598 H 0.16798 0.89996 0.17743 0.0
H599 H 0.22428 0.88955 0.13254 0.0
H600 H 0.14225 0.76037 0.07758 0.0
H601 H 0.17373 0.79402 0.10383 0.0
H602 H 0.12659 0.80535 0.15541 0.0
C603 C 0.19225 0.91151 0.1782 0.0
C604 C 0.20337 0.87096 0.13792 0.0
C605 C 0.20727 0.9394 0.18761 0.0
C606 C 0.13235 0.76879 0.08808 0.0
C607 C 0.15039 0.7881 0.10306 0.0
C608 C 0.14802 0.82349 0.15035 0.0
C609 C 0.20842 0.89956 0.16894 0.0
C610 C 0.19246 0.87197 0.15675 0.0
C611 C 0.13853 0.80008 0.11666 0.0
C612 C 0.15824 0.82326 0.13114 0.0
H613 H 0.27927 0.95549 0.17961 0.0
H614 H 0.25295 0.90669 0.16324 0.0
H615 H 0.1562 0.84754 0.17758 0.0
H616 H 0.06681 0.76675 0.09952 0.0
H617 H 0.0983 0.80069 0.12542 0.0
C618 C 0.29559 0.08697 0.26884 0.0
C619 C 0.3184 0.10193 0.25478 0.0
C620 C 0.29084 0.10313 0.28354 0.0
C621 C 0.32397 0.17732 0.30841 0.0
H622 H 0.2405 0.15456 0.31562 0.0
C623 C 0.28467 0.25422 0.34409 0.0
C624 C 0.2583 0.24044 0.35549 0.0
C625 C 0.2946 0.23679 0.33439 0.0
C626 C 0.2639 0.16092 0.31409 0.0
H627 H 0.35496 0.14538 0.24558 0.0
H628 H 0.34628 0.17373 0.27107 0.0
H629 H 0.25319 0.12494 0.294 0.0
H630 H 0.22282 0.19771 0.3667 0.0
H631 H 0.24037 0.16746 0.35003 0.0
H632 H 0.33456 0.21384 0.32825 0.0
C633 C 0.3323 0.14946 0.27087 0.0
C634 C 0.27118 0.14392 0.30167 0.0
C635 C 0.33715 0.13325 0.25619 0.0
C636 C 0.24299 0.20903 0.35782 0.0
C637 C 0.25297 0.19166 0.34821 0.0
C638 C 0.31666 0.19442 0.32087 0.0
C639 C 0.30868 0.13462 0.28445 0.0
C640 C 0.30128 0.15199 0.29859 0.0
C641 C 0.2784 0.20526 0.33597 0.0
C642 C 0.28652 0.18646 0.32374 0.0
H643 H 0.281 0.06279 0.26827 0.0
H644 H 0.27283 0.09098 0.29402 0.0
H645 H 0.34736 0.18393 0.30647 0.0
H646 H 0.29702 0.27838 0.34203 0.0
H647 H 0.31417 0.24792 0.32496 0.0
C648 C 0.18903 0.34386 0.42625 0.0
C649 C 0.20054 0.32437 0.4239 0.0
C650 C 0.16767 0.33832 0.44086 0.0
C651 C 0.10878 0.27498 0.4683 0.0
H652 H 0.10459 0.33648 0.49898 0.0
C653 C 0.01159 0.24365 0.52199 0.0
C654 C -0.0018 0.26167 0.52121 0.0
C655 C 0.03931 0.25313 0.51301 0.0
C656 C 0.1054 0.31909 0.49043 0.0
H657 H 0.20011 0.28489 0.43571 0.0
H658 H 0.16309 0.2754 0.46121 0.0
H659 H 0.14815 0.35025 0.47787 0.0
H660 H 0.00401 0.30434 0.51105 0.0
H661 H 0.05202 0.32054 0.49499 0.0
H662 H 0.06583 0.24395 0.48023 0.0
C663 C 0.17012 0.29462 0.45158 0.0
C664 C 0.13033 0.32698 0.47839 0.0
C665 C 0.1914 0.30013 0.43701 0.0
C666 C 0.01369 0.2899 0.51191 0.0
C667 C 0.04134 0.29929 0.5028 0.0
C668 C 0.08389 0.26714 0.48024 0.0
C669 C 0.15748 0.3132 0.45334 0.0
C670 C 0.13215 0.305 0.4671 0.0
C671 C 0.05417 0.28073 0.5029 0.0
C672 C 0.08176 0.2891 0.49134 0.0
H673 H 0.19574 0.36279 0.4164 0.0
H674 H 0.15818 0.35293 0.44179 0.0
H675 H 0.10923 0.25762 0.45949 0.0
H676 H 0.00042 0.22194 0.52924 0.0
H677 H 0.04887 0.23857 0.5137 0.0
C678 C 0.86773 0.19692 0.60117 0.0
C679 C 0.8558 0.21022 0.58873 0.0
C680 C 0.84994 0.17642 0.61566 0.0
C681 C 0.77118 0.12238 0.62615 0.0
H682 H 0.80315 0.11477 0.67631 0.0
C683 C 0.70124 0.02333 0.67849 0.0
C684 C 0.71609 0.00842 0.68542 0.0
C685 C 0.71736 0.05158 0.6696 0.0
C686 C 0.79393 0.11662 0.66235 0.0
H687 H 0.81629 0.21353 0.5823 0.0
H688 H 0.78517 0.17775 0.60777 0.0
H689 H 0.83319 0.15857 0.65544 0.0
H690 H 0.75969 0.01213 0.68921 0.0
H691 H 0.78771 0.06124 0.67354 0.0
H692 H 0.7323 0.08008 0.63275 0.0
C693 C 0.8082 0.18291 0.6061 0.0
C694 C 0.81111 0.14167 0.65041 0.0
C695 C 0.82603 0.20347 0.59157 0.0
C696 C 0.74753 0.02293 0.68398 0.0
C697 C 0.76364 0.0512 0.67513 0.0
C698 C 0.754 0.09739 0.6381 0.0
C699 C 0.81982 0.16877 0.61807 0.0
C700 C 0.80019 0.14446 0.63196 0.0
C701 C 0.74867 0.06557 0.66751 0.0
C702 C 0.76546 0.0939 0.65612 0.0
H703 H 0.89062 0.20172 0.59938 0.0
H704 H 0.85949 0.16566 0.62443 0.0
H705 H 0.76226 0.1236 0.61192 0.0
H706 H 0.67706 0.0129 0.67949 0.0
H707 H 0.70525 0.06228 0.66409 0.0
C708 C 0.2029 0.34212 0.30954 0.0
C709 C 0.18985 0.31441 0.31955 0.0
C710 C 0.1919 0.34438 0.29108 0.0
C711 C 0.15721 0.30166 0.24722 0.0
H712 H 0.12402 0.3536 0.23766 0.0
C713 C 0.08954 0.2888 0.17705 0.0
C714 C 0.09072 0.31429 0.16853 0.0
C715 C 0.1029 0.29071 0.19532 0.0
C716 C 0.13372 0.33939 0.2399 0.0
H717 H 0.15519 0.26739 0.31803 0.0
H718 H 0.13673 0.27125 0.28559 0.0
H719 H 0.14586 0.35432 0.26987 0.0
H720 H 0.10706 0.36189 0.17242 0.0
H721 H 0.13158 0.3656 0.204 0.0
H722 H 0.14616 0.28719 0.21734 0.0
C723 C 0.15513 0.29121 0.29218 0.0
C724 C 0.14607 0.33974 0.25839 0.0
C725 C 0.16563 0.28908 0.31076 0.0
C726 C 0.10567 0.34182 0.17868 0.0
C727 C 0.11957 0.34387 0.19685 0.0
C728 C 0.14548 0.30171 0.22866 0.0
C729 C 0.16821 0.31882 0.28217 0.0
C730 C 0.15738 0.32046 0.26226 0.0
C731 C 0.11839 0.31831 0.20542 0.0
C732 C 0.13295 0.32009 0.22483 0.0
H733 H 0.22154 0.36202 0.31599 0.0
H734 H 0.20233 0.36588 0.28356 0.0
H735 H 0.16618 0.28685 0.24984 0.0
H736 H 0.07784 0.26716 0.16973 0.0
H737 H 0.10068 0.27031 0.2016 0.0
C738 C 0.83196 0.17669 0.48158 0.0
C739 C 0.85577 0.20617 0.48454 0.0
C740 C 0.81884 0.16745 0.46294 0.0
C741 C 0.8372 0.17703 0.41202 0.0
H742 H 0.75269 0.14507 0.40092 0.0
C743 C 0.79094 0.136 0.33393 0.0
C744 C 0.76195 0.11104 0.33215 0.0
C745 C 0.8013 0.15032 0.35213 0.0
C746 C 0.77626 0.15348 0.40377 0.0
H747 H 0.88431 0.24917 0.47041 0.0
H748 H 0.862 0.23254 0.43759 0.0
H749 H 0.77227 0.16431 0.43384 0.0
H750 H 0.72093 0.08153 0.3479 0.0
H751 H 0.73942 0.10526 0.37988 0.0
H752 H 0.84132 0.16472 0.38265 0.0
C753 C 0.85325 0.21689 0.44983 0.0
C754 C 0.78744 0.16473 0.4226 0.0
C755 C 0.86589 0.22637 0.46858 0.0
C756 C 0.74332 0.10091 0.34884 0.0
C757 C 0.75394 0.11472 0.36718 0.0
C758 C 0.82596 0.16515 0.39337 0.0
C759 C 0.82977 0.18732 0.44687 0.0
C760 C 0.81798 0.17657 0.42683 0.0
C761 C 0.78323 0.13949 0.36915 0.0
C762 C 0.79529 0.15314 0.38892 0.0
H763 H 0.82365 0.16068 0.49364 0.0
H764 H 0.80084 0.14448 0.46091 0.0
H765 H 0.8608 0.18575 0.41509 0.0
H766 H 0.80564 0.1445 0.32122 0.0
H767 H 0.82361 0.1698 0.3528 0.0
C768 C 0.61686 0.86358 0.63436 0.0
C769 C 0.6372 0.86363 0.64826 0.0
C770 C 0.61312 0.84967 0.61598 0.0
C771 C 0.62601 0.7943 0.58926 0.0
H772 H 0.62832 0.83925 0.54265 0.0
C773 C 0.65649 0.79893 0.50205 0.0
C774 C 0.64014 0.76827 0.49701 0.0
C775 C 0.65186 0.80897 0.52015 0.0
C776 C 0.6276 0.82641 0.55553 0.0
H777 H 0.66898 0.84842 0.65386 0.0
H778 H 0.66249 0.82433 0.62191 0.0
H779 H 0.62811 0.85913 0.57535 0.0
H780 H 0.60557 0.72419 0.50696 0.0
H781 H 0.59755 0.74181 0.53864 0.0
H782 H 0.62651 0.76207 0.56947 0.0
C783 C 0.64928 0.83485 0.62524 0.0
C784 C 0.62718 0.83764 0.57425 0.0
C785 C 0.65316 0.84888 0.64352 0.0
C786 C 0.6186 0.74796 0.51038 0.0
C787 C 0.61409 0.75801 0.52856 0.0
C788 C 0.62628 0.78299 0.57054 0.0
C789 C 0.62945 0.83533 0.61118 0.0
C790 C 0.62694 0.82198 0.59133 0.0
C791 C 0.63086 0.7886 0.53371 0.0
C792 C 0.62764 0.79919 0.55348 0.0
H793 H 0.60417 0.8747 0.63753 0.0
H794 H 0.59748 0.85019 0.60551 0.0
H795 H 0.62549 0.78155 0.60214 0.0
H796 H 0.67323 0.81523 0.49211 0.0
H797 H 0.66541 0.83263 0.52375 0.0
C798 C 0.86638 0.68127 0.67587 0.0
C799 C 0.86479 0.65581 0.66695 0.0
C800 C 0.85451 0.67934 0.69469 0.0
C801 C 0.79756 0.63106 0.72882 0.0
H802 H 0.85063 0.68419 0.76951 0.0
C803 C 0.75519 0.6308 0.8082 0.0
C804 C 0.76763 0.65864 0.81796 0.0
C805 C 0.76728 0.6282 0.79028 0.0
C806 C 0.83532 0.66948 0.7583 0.0
H807 H 0.84893 0.60822 0.67054 0.0
H808 H 0.82713 0.60471 0.70338 0.0
H809 H 0.87066 0.68404 0.73697 0.0
H810 H 0.80208 0.70568 0.81639 0.0
H811 H 0.8222 0.70155 0.78496 0.0
H812 H 0.76185 0.61756 0.74965 0.0
C813 C 0.83803 0.62616 0.69579 0.0
C814 C 0.84693 0.66926 0.73972 0.0
C815 C 0.85054 0.62821 0.67709 0.0
C816 C 0.7922 0.68382 0.80937 0.0
C817 C 0.80391 0.68135 0.79135 0.0
C818 C 0.78576 0.63169 0.74732 0.0
C819 C 0.84025 0.65181 0.70479 0.0
C820 C 0.82811 0.65028 0.72479 0.0
C821 C 0.79177 0.65349 0.78157 0.0
C822 C 0.80444 0.65122 0.76225 0.0
H823 H 0.87734 0.70288 0.66848 0.0
H824 H 0.85632 0.69937 0.70133 0.0
H825 H 0.78263 0.61636 0.71744 0.0
H826 H 0.73634 0.61095 0.81452 0.0
H827 H 0.75756 0.60628 0.78339 0.0
C828 C 0.20238 0.85395 0.84053 0.0
C829 C 0.18937 0.86832 0.83024 0.0
C830 C 0.19041 0.83973 0.8586 0.0
C831 C 0.12215 0.81262 0.89045 0.0
H832 H 0.17552 0.81497 0.93173 0.0
C833 C 0.09193 0.79518 0.97322 0.0
C834 C 0.09337 0.77124 0.98214 0.0
C835 C 0.10373 0.80506 0.95437 0.0
C836 C 0.16042 0.814 0.92023 0.0
H837 H 0.15403 0.87956 0.83098 0.0
H838 H 0.13412 0.8562 0.86269 0.0
H839 H 0.19597 0.83621 0.8993 0.0
H840 H 0.10893 0.73933 0.97854 0.0
H841 H 0.13061 0.75751 0.94566 0.0
H842 H 0.08695 0.79186 0.9119 0.0
C843 C 0.15276 0.85469 0.85661 0.0
C844 C 0.17202 0.82598 0.90161 0.0
C845 C 0.16434 0.86835 0.83842 0.0
C846 C 0.10742 0.75777 0.97198 0.0
C847 C 0.11988 0.76816 0.95326 0.0
C848 C 0.11074 0.80128 0.90916 0.0
C849 C 0.16551 0.84004 0.86696 0.0
C850 C 0.15308 0.82575 0.88649 0.0
C851 C 0.11779 0.79165 0.94426 0.0
C852 C 0.1298 0.80208 0.92422 0.0
H853 H 0.22161 0.85343 0.83452 0.0
H854 H 0.2006 0.82832 0.86591 0.0
H855 H 0.10665 0.81119 0.87913 0.0
H856 H 0.08112 0.80591 0.98063 0.0
H857 H 0.102 0.8233 0.94769 0.0
C858 C 0.2812 0.09856 0.14299 0.0
C859 C 0.30651 0.09924 0.15131 0.0
C860 C 0.28324 0.11259 0.12496 0.0
C861 C 0.33166 0.14389 0.08044 0.0
H862 H 0.27987 0.17736 0.07122 0.0
C863 C 0.33478 0.21317 0.01089 0.0
C864 C 0.30693 0.20086 0.00118 0.0
C865 C 0.33696 0.20217 0.02937 0.0
C866 C 0.29446 0.16811 0.07364 0.0
H867 H 0.35398 0.11547 0.14734 0.0
H868 H 0.35791 0.14108 0.11616 0.0
H869 H 0.28027 0.15682 0.10355 0.0
H870 H 0.25958 0.16758 0.00325 0.0
H871 H 0.26334 0.14909 0.03572 0.0
H872 H 0.34628 0.15617 0.05045 0.0
C873 C 0.33621 0.12897 0.1233 0.0
C874 C 0.29456 0.1561 0.0921 0.0
C875 C 0.33403 0.11444 0.14123 0.0
C876 C 0.28137 0.17743 0.01031 0.0
C877 C 0.28345 0.16694 0.02891 0.0
C878 C 0.33196 0.15649 0.06205 0.0
C879 C 0.3108 0.12821 0.1149 0.0
C880 C 0.31266 0.14319 0.09566 0.0
C881 C 0.31122 0.17921 0.03859 0.0
C882 C 0.31293 0.16816 0.05842 0.0
H883 H 0.25956 0.08671 0.15025 0.0
H884 H 0.26296 0.11071 0.1188 0.0
H885 H 0.34565 0.1339 0.08247 0.0
H886 H 0.35487 0.23118 0.00418 0.0
H887 H 0.35859 0.21197 0.03663 0.0
loop_
_geom_bond_atom_site_label_1
_geom_bond_atom_site_label_2
_geom_bond_distance
_geom_bond_site_symmetry_2
_ccdc_geom_bond_type
C0 O1 1.306 . S
C0 O3 1.160 . S
O1 C0 1.306 . S
O1 Cd2 2.228 . S
Cd2 O1 2.228 . S
Cd2 O6 2.273 . S
Cd2 O10 2.277 . S
O3 C0 1.160 . S
O3 Cd4 2.203 . S
Cd4 O3 2.203 . S
Cd4 O6 2.411 . S
Cd4 O7 2.333 . S
Cd4 O8 2.352 . S
Cd4 O12 2.277 . S
Cd4 O13 2.356 . S
C5 O10 1.209 . S
C5 O12 1.226 . S
O6 Cd2 2.273 . S
O6 Cd4 2.411 . S
O6 C9 1.320 . S
O7 Cd4 2.333 . S
O7 C9 1.214 . S
O8 Cd4 2.352 . S
O8 C11 1.258 . S
C9 O6 1.320 . S
C9 O7 1.214 . S
O10 Cd2 2.277 . S
O10 C5 1.209 . S
C11 O8 1.258 . S
C11 O13 1.282 . S
O12 Cd4 2.277 . S
O12 C5 1.226 . S
O13 Cd4 2.356 . S
O13 C11 1.282 . S
C14 O15 1.306 . S
C14 O17 1.160 . S
O15 C14 1.306 . S
O15 Cd16 2.228 . S
Cd16 O15 2.228 . S
Cd16 O20 2.273 . S
Cd16 O24 2.277 . S
O17 C14 1.160 . S
O17 Cd18 2.203 . S
Cd18 O17 2.203 . S
Cd18 O20 2.411 . S
Cd18 O21 2.333 . S
Cd18 O22 2.352 . S
Cd18 O26 2.277 . S
Cd18 O27 2.356 . S
C19 O24 1.209 . S
C19 O26 1.226 . S
O20 Cd16 2.273 . S
O20 Cd18 2.411 . S
O20 C23 1.320 . S
O21 Cd18 2.333 . S
O21 C23 1.214 . S
O22 Cd18 2.352 . S
O22 C25 1.258 . S
C23 O20 1.320 . S
C23 O21 1.214 . S
O24 Cd16 2.277 . S
O24 C19 1.209 . S
C25 O22 1.258 . S
C25 O27 1.282 . S
O26 Cd18 2.277 . S
O26 C19 1.226 . S
O27 Cd18 2.356 . S
O27 C25 1.282 . S
C28 O29 1.306 . S
C28 O31 1.160 . S
O29 C28 1.306 . S
O29 Cd30 2.228 . S
Cd30 O29 2.228 . S
Cd30 O34 2.273 . S
Cd30 O38 2.277 . S
O31 C28 1.160 . S
O31 Cd32 2.203 . S
Cd32 O31 2.203 . S
Cd32 O34 2.411 . S
Cd32 O35 2.333 . S
Cd32 O36 2.352 . S
Cd32 O40 2.277 . S
Cd32 O41 2.356 . S
C33 O38 1.209 . S
C33 O40 1.226 . S
O34 Cd30 2.273 . S
O34 Cd32 2.411 . S
O34 C37 1.320 . S
O35 Cd32 2.333 . S
O35 C37 1.214 . S
O36 Cd32 2.352 . S
O36 C39 1.258 . S
C37 O34 1.320 . S
C37 O35 1.214 . S
O38 Cd30 2.277 . S
O38 C33 1.209 . S
C39 O36 1.258 . S
C39 O41 1.282 . S
O40 Cd32 2.277 . S
O40 C33 1.226 . S
O41 Cd32 2.356 . S
O41 C39 1.282 . S
C42 O43 1.306 . S
C42 O45 1.160 . S
O43 C42 1.306 . S
O43 Cd44 2.228 . S
Cd44 O43 2.228 . S
Cd44 O48 2.273 . S
Cd44 O52 2.277 . S
O45 C42 1.160 . S
O45 Cd46 2.203 . S
Cd46 O45 2.203 . S
Cd46 O48 2.411 . S
Cd46 O49 2.333 . S
Cd46 O50 2.352 . S
Cd46 O54 2.277 . S
Cd46 O55 2.356 . S
C47 O52 1.209 . S
C47 O54 1.226 . S
O48 Cd44 2.273 . S
O48 Cd46 2.411 . S
O48 C51 1.320 . S
O49 Cd46 2.333 . S
O49 C51 1.214 . S
O50 Cd46 2.352 . S
O50 C53 1.258 . S
C51 O48 1.320 . S
C51 O49 1.214 . S
O52 Cd44 2.277 . S
O52 C47 1.209 . S
C53 O50 1.258 . S
C53 O55 1.282 . S
O54 Cd46 2.277 . S
O54 C47 1.226 . S
O55 Cd46 2.356 . S
O55 C53 1.282 . S
C56 O57 1.306 . S
C56 O59 1.160 . S
O57 C56 1.306 . S
O57 Cd58 2.228 . S
Cd58 O57 2.228 . S
Cd58 O62 2.273 . S
Cd58 O66 2.277 . S
O59 C56 1.160 . S
O59 Cd60 2.203 . S
Cd60 O59 2.203 . S
Cd60 O62 2.411 . S
Cd60 O63 2.333 . S
Cd60 O64 2.352 . S
Cd60 O68 2.277 . S
Cd60 O69 2.356 . S
C61 O66 1.209 . S
C61 O68 1.226 . S
O62 Cd58 2.273 . S
O62 Cd60 2.411 . S
O62 C65 1.320 . S
O63 Cd60 2.333 . S
O63 C65 1.214 . S
O64 Cd60 2.352 . S
O64 C67 1.258 . S
C65 O62 1.320 . S
C65 O63 1.214 . S
O66 Cd58 2.277 . S
O66 C61 1.209 . S
C67 O64 1.258 . S
C67 O69 1.282 . S
O68 Cd60 2.277 . S
O68 C61 1.226 . S
O69 Cd60 2.356 . S
O69 C67 1.282 . S
C70 O71 1.306 . S
C70 O73 1.160 . S
O71 C70 1.306 . S
O71 Cd72 2.228 . S
Cd72 O71 2.228 . S
Cd72 O76 2.273 . S
Cd72 O80 2.277 . S
O73 C70 1.160 . S
O73 Cd74 2.203 . S
Cd74 O73 2.203 . S
Cd74 O76 2.411 . S
Cd74 O77 2.333 . S
Cd74 O78 2.352 . S
Cd74 O82 2.277 . S
Cd74 O83 2.356 . S
C75 O80 1.211 . S
C75 O82 1.227 . S
O76 Cd72 2.273 . S
O76 Cd74 2.411 . S
O76 C79 1.320 . S
O77 Cd74 2.333 . S
O77 C79 1.214 . S
O78 Cd74 2.352 . S
O78 C81 1.258 . S
C79 O76 1.320 . S
C79 O77 1.214 . S
O80 Cd72 2.277 . S
O80 C75 1.211 . S
C81 O78 1.258 . S
C81 O83 1.282 . S
O82 Cd74 2.277 . S
O82 C75 1.227 . S
O83 Cd74 2.356 . S
O83 C81 1.282 . S
C84 O85 1.306 . S
C84 O87 1.160 . S
O85 C84 1.306 . S
O85 Cd86 2.228 . S
Cd86 O85 2.228 . S
Cd86 O90 2.273 . S
Cd86 O94 2.277 . S
O87 C84 1.160 . S
O87 Cd88 2.203 . S
Cd88 O87 2.203 . S
Cd88 O90 2.411 . S
Cd88 O91 2.333 . S
Cd88 O92 2.352 . S
Cd88 O96 2.277 . S
Cd88 O97 2.356 . S
C89 O94 1.209 . S
C89 O96 1.226 . S
O90 Cd86 2.273 . S
O90 Cd88 2.411 . S
O90 C93 1.320 . S
O91 Cd88 2.333 . S
O91 C93 1.214 . S
O92 Cd88 2.352 . S
O92 C95 1.258 . S
C93 O90 1.320 . S
C93 O91 1.214 . S
O94 Cd86 2.277 . S
O94 C89 1.209 . S
C95 O92 1.258 . S
C95 O97 1.282 . S
O96 Cd88 2.277 . S
O96 C89 1.226 . S
O97 Cd88 2.356 . S
O97 C95 1.282 . S
C98 O99 1.306 . S
C98 O101 1.160 . S
O99 C98 1.306 . S
O99 Cd100 2.228 . S
Cd100 O99 2.228 . S
Cd100 O104 2.273 . S
Cd100 O108 2.277 . S
O101 C98 1.160 . S
O101 Cd102 2.203 . S
Cd102 O101 2.203 . S
Cd102 O104 2.411 . S
Cd102 O105 2.333 . S
Cd102 O106 2.352 . S
Cd102 O110 2.277 . S
Cd102 O111 2.356 . S
C103 O108 1.209 . S
C103 O110 1.226 . S
O104 Cd100 2.273 . S
O104 Cd102 2.411 . S
O104 C107 1.320 . S
O105 Cd102 2.333 . S
O105 C107 1.214 . S
O106 Cd102 2.352 . S
O106 C109 1.258 . S
C107 O104 1.320 . S
C107 O105 1.214 . S
O108 Cd100 2.277 . S
O108 C103 1.209 . S
C109 O106 1.258 . S
C109 O111 1.282 . S
O110 Cd102 2.277 . S
O110 C103 1.226 . S
O111 Cd102 2.356 . S
O111 C109 1.282 . S
C112 O113 1.306 . S
C112 O115 1.160 . S
O113 C112 1.306 . S
O113 Cd114 2.228 . S
Cd114 O113 2.228 . S
Cd114 O118 2.273 . S
Cd114 O122 2.277 . S
O115 C112 1.160 . S
O115 Cd116 2.203 . S
Cd116 O115 2.203 . S
Cd116 O118 2.411 . S
Cd116 O119 2.333 . S
Cd116 O120 2.352 . S
Cd116 O124 2.277 . S
Cd116 O125 2.356 . S
C117 O122 1.211 . S
C117 O124 1.227 . S
O118 Cd114 2.273 . S
O118 Cd116 2.411 . S
O118 C121 1.320 . S
O119 Cd116 2.333 . S
O119 C121 1.214 . S
O120 Cd116 2.352 . S
O120 C123 1.258 . S
C121 O118 1.320 . S
C121 O119 1.214 . S
O122 Cd114 2.277 . S
O122 C117 1.211 . S
C123 O120 1.258 . S
C123 O125 1.282 . S
O124 Cd116 2.277 . S
O124 C117 1.227 . S
O125 Cd116 2.356 . S
O125 C123 1.282 . S
C126 O127 1.306 . S
C126 O129 1.160 . S
O127 C126 1.306 . S
O127 Cd128 2.228 . S
Cd128 O127 2.228 . S
Cd128 O132 2.273 . S
Cd128 O136 2.277 . S
O129 C126 1.160 . S
O129 Cd130 2.203 . S
Cd130 O129 2.203 . S
Cd130 O132 2.411 . S
Cd130 O133 2.333 . S
Cd130 O134 2.352 . S
Cd130 O138 2.277 . S
Cd130 O139 2.356 . S
C131 O136 1.209 . S
C131 O138 1.226 . S
O132 Cd128 2.273 . S
O132 Cd130 2.411 . S
O132 C135 1.320 . S
O133 Cd130 2.333 . S
O133 C135 1.214 . S
O134 Cd130 2.352 . S
O134 C137 1.258 . S
C135 O132 1.320 . S
C135 O133 1.214 . S
O136 Cd128 2.277 . S
O136 C131 1.209 . S
C137 O134 1.258 . S
C137 O139 1.282 . S
O138 Cd130 2.277 . S
O138 C131 1.226 . S
O139 Cd130 2.356 . S
O139 C137 1.282 . S
C140 O141 1.306 . S
C140 O143 1.160 . S
O141 C140 1.306 . S
O141 Cd142 2.228 . S
Cd142 O141 2.228 . S
Cd142 O146 2.273 . S
Cd142 O150 2.277 . S
O143 C140 1.160 . S
O143 Cd144 2.203 . S
Cd144 O143 2.203 . S
Cd144 O146 2.411 . S
Cd144 O147 2.333 . S
Cd144 O148 2.352 . S
Cd144 O152 2.277 . S
Cd144 O153 2.356 . S
C145 O150 1.209 . S
C145 O152 1.226 . S
O146 Cd142 2.273 . S
O146 Cd144 2.411 . S
O146 C149 1.320 . S
O147 Cd144 2.333 . S
O147 C149 1.214 . S
O148 Cd144 2.352 . S
O148 C151 1.258 . S
C149 O146 1.320 . S
C149 O147 1.214 . S
O150 Cd142 2.277 . S
O150 C145 1.209 . S
C151 O148 1.258 . S
C151 O153 1.282 . S
O152 Cd144 2.277 . S
O152 C145 1.226 . S
O153 Cd144 2.356 . S
O153 C151 1.282 . S
C154 O155 1.306 . S
C154 O157 1.160 . S
O155 C154 1.306 . S
O155 Cd156 2.228 . S
Cd156 O155 2.228 . S
Cd156 O160 2.273 . S
Cd156 O164 2.277 . S
O157 C154 1.160 . S
O157 Cd158 2.203 . S
Cd158 O157 2.203 . S
Cd158 O160 2.411 . S
Cd158 O161 2.333 . S
Cd158 O162 2.352 . S
Cd158 O166 2.277 . S
Cd158 O167 2.356 . S
C159 O164 1.209 . S
C159 O166 1.226 . S
O160 Cd156 2.273 . S
O160 Cd158 2.411 . S
O160 C163 1.320 . S
O161 Cd158 2.333 . S
O161 C163 1.214 . S
O162 Cd158 2.352 . S
O162 C165 1.258 . S
C163 O160 1.320 . S
C163 O161 1.214 . S
O164 Cd156 2.277 . S
O164 C159 1.209 . S
C165 O162 1.258 . S
C165 O167 1.282 . S
O166 Cd158 2.277 . S
O166 C159 1.226 . S
O167 Cd158 2.356 . S
O167 C165 1.282 . S
C168 C169 1.349 . S
C168 C170 1.327 . S
C168 H193 0.950 . S
C169 C168 1.349 . S
C169 C185 1.349 . S
C170 C168 1.327 . S
C170 C189 1.429 . S
C170 H194 0.950 . S
C171 C188 1.574 . S
C171 C190 1.368 . S
C171 H195 0.949 . S
H172 C176 0.949 . S
C173 C174 1.349 . S
C173 C175 1.327 . S
C173 H196 0.950 . S
C174 C173 1.349 . S
C174 C186 1.349 . S
C175 C173 1.327 . S
C175 C191 1.429 . S
C175 H197 0.950 . S
C176 H172 0.949 . S
C176 C184 1.574 . S
C176 C192 1.368 . S
H177 C185 0.950 . S
H178 C183 0.950 . S
H179 C184 0.949 . S
H180 C186 0.950 . S
H181 C187 0.950 . S
H182 C188 0.949 . S
C183 H178 0.950 . S
C183 C185 1.327 . S
C183 C189 1.429 . S
C184 C176 1.574 . S
C184 H179 0.949 . S
C184 C190 1.368 . S
C185 C169 1.349 . S
C185 H177 0.950 . S
C185 C183 1.327 . S
C186 C174 1.349 . S
C186 H180 0.950 . S
C186 C187 1.327 . S
C187 H181 0.950 . S
C187 C186 1.327 . S
C187 C191 1.429 . S
C188 C171 1.574 . S
C188 H182 0.949 . S
C188 C192 1.368 . S
C189 C170 1.429 . S
C189 C183 1.429 . S
C189 C190 1.523 . S
C190 C171 1.368 . S
C190 C184 1.368 . S
C190 C189 1.523 . S
C191 C175 1.429 . S
C191 C187 1.429 . S
C191 C192 1.523 . S
C192 C176 1.368 . S
C192 C188 1.368 . S
C192 C191 1.523 . S
H193 C168 0.950 . S
H194 C170 0.950 . S
H195 C171 0.949 . S
H196 C173 0.950 . S
H197 C175 0.950 . S
C198 C199 1.349 . S
C198 C200 1.327 . S
C198 H223 0.950 . S
C199 C198 1.349 . S
C199 C215 1.349 . S
C200 C198 1.327 . S
C200 C219 1.429 . S
C200 H224 0.950 . S
C201 C218 1.574 . S
C201 C220 1.368 . S
C201 H225 0.949 . S
H202 C206 0.949 . S
C203 C204 1.349 . S
C203 C205 1.327 . S
C203 H226 0.950 . S
C204 C203 1.349 . S
C204 C216 1.349 . S
C205 C203 1.327 . S
C205 C221 1.429 . S
C205 H227 0.950 . S
C206 H202 0.949 . S
C206 C214 1.574 . S
C206 C222 1.368 . S
H207 C215 0.950 . S
H208 C213 0.950 . S
H209 C214 0.949 . S
H210 C216 0.950 . S
H211 C217 0.950 . S
H212 C218 0.949 . S
C213 H208 0.950 . S
C213 C215 1.327 . S
C213 C219 1.429 . S
C214 C206 1.574 . S
C214 H209 0.949 . S
C214 C220 1.368 . S
C215 C199 1.349 . S
C215 H207 0.950 . S
C215 C213 1.327 . S
C216 C204 1.349 . S
C216 H210 0.950 . S
C216 C217 1.327 . S
C217 H211 0.950 . S
C217 C216 1.327 . S
C217 C221 1.429 . S
C218 C201 1.574 . S
C218 H212 0.949 . S
C218 C222 1.368 . S
C219 C200 1.429 . S
C219 C213 1.429 . S
C219 C220 1.523 . S
C220 C201 1.368 . S
C220 C214 1.368 . S
C220 C219 1.523 . S
C221 C205 1.429 . S
C221 C217 1.429 . S
C221 C222 1.523 . S
C222 C206 1.368 . S
C222 C218 1.368 . S
C222 C221 1.523 . S
H223 C198 0.950 . S
H224 C200 0.950 . S
H225 C201 0.949 . S
H226 C203 0.950 . S
H227 C205 0.950 . S
C228 C229 1.349 . S
C228 C230 1.327 . S
C228 H253 0.950 . S
C229 C228 1.349 . S
C229 C245 1.349 . S
C230 C228 1.327 . S
C230 C249 1.429 . S
C230 H254 0.950 . S
C231 C248 1.574 . S
C231 C250 1.368 . S
C231 H255 0.949 . S
H232 C236 0.949 . S
C233 C234 1.349 . S
C233 C235 1.327 . S
C233 H256 0.950 . S
C234 C233 1.349 . S
C234 C246 1.349 . S
C235 C233 1.327 . S
C235 C251 1.429 . S
C235 H257 0.950 . S
C236 H232 0.949 . S
C236 C244 1.574 . S
C236 C252 1.368 . S
H237 C245 0.950 . S
H238 C243 0.950 . S
H239 C244 0.949 . S
H240 C246 0.950 . S
H241 C247 0.950 . S
H242 C248 0.949 . S
C243 H238 0.950 . S
C243 C245 1.327 . S
C243 C249 1.429 . S
C244 C236 1.574 . S
C244 H239 0.949 . S
C244 C250 1.368 . S
C245 C229 1.349 . S
C245 H237 0.950 . S
C245 C243 1.327 . S
C246 C234 1.349 . S
C246 H240 0.950 . S
C246 C247 1.327 . S
C247 H241 0.950 . S
C247 C246 1.327 . S
C247 C251 1.429 . S
C248 C231 1.574 . S
C248 H242 0.949 . S
C248 C252 1.368 . S
C249 C230 1.429 . S
C249 C243 1.429 . S
C249 C250 1.523 . S
C250 C231 1.368 . S
C250 C244 1.368 . S
C250 C249 1.523 . S
C251 C235 1.429 . S
C251 C247 1.429 . S
C251 C252 1.523 . S
C252 C236 1.368 . S
C252 C248 1.368 . S
C252 C251 1.523 . S
H253 C228 0.950 . S
H254 C230 0.950 . S
H255 C231 0.949 . S
H256 C233 0.950 . S
H257 C235 0.950 . S
C258 C259 1.349 . S
C258 C260 1.327 . S
C258 H283 0.960 . S
C259 C258 1.349 . S
C259 C275 1.349 . S
C260 C258 1.327 . S
C260 C279 1.429 . S
C260 H284 0.918 1_655 S
C261 C278 1.574 . S
C261 C280 1.368 . S
C261 H285 0.949 . S
H262 C266 0.949 1_455 S
C263 C264 1.349 . S
C263 C265 1.327 . S
C263 H286 0.950 . S
C264 C263 1.349 . S
C264 C276 1.349 . S
C265 C263 1.327 . S
C265 C281 1.429 . S
C265 H287 0.950 . S
C266 H262 0.949 1_655 S
C266 C274 1.574 . S
C266 C282 1.368 . S
H267 C275 0.950 . S
H268 C273 0.950 . S
H269 C274 0.949 1_455 S
H270 C276 0.969 . S
H271 C277 0.932 1_455 S
H272 C278 0.949 . S
C273 H268 0.950 . S
C273 C275 1.327 . S
C273 C279 1.429 . S
C274 C266 1.574 . S
C274 H269 0.949 1_655 S
C274 C280 1.368 . S
C275 C259 1.349 . S
C275 H267 0.950 . S
C275 C273 1.327 . S
C276 C264 1.349 . S
C276 H270 0.969 . S
C276 C277 1.327 . S
C277 H271 0.932 1_655 S
C277 C276 1.327 . S
C277 C281 1.429 . S
C278 C261 1.574 . S
C278 H272 0.949 . S
C278 C282 1.368 . S
C279 C260 1.429 . S
C279 C273 1.429 . S
C279 C280 1.523 . S
C280 C261 1.368 . S
C280 C274 1.368 . S
C280 C279 1.523 . S
C281 C265 1.429 . S
C281 C277 1.429 . S
C281 C282 1.523 . S
C282 C266 1.368 . S
C282 C278 1.368 . S
C282 C281 1.523 . S
H283 C258 0.960 . S
H284 C260 0.918 1_455 S
H285 C261 0.949 . S
H286 C263 0.950 . S
H287 C265 0.950 . S
C288 C289 1.349 . S
C288 C290 1.327 . S
C288 H313 0.950 . S
C289 C288 1.349 . S
C289 C305 1.349 . S
C290 C288 1.327 . S
C290 C309 1.429 . S
C290 H314 0.950 . S
C291 C308 1.574 . S
C291 C310 1.368 . S
C291 H315 0.949 . S
H292 C296 0.949 . S
C293 C294 1.349 . S
C293 C295 1.327 . S
C293 H316 0.950 . S
C294 C293 1.349 . S
C294 C306 1.349 . S
C295 C293 1.327 . S
C295 C311 1.429 . S
C295 H317 0.950 . S
C296 H292 0.949 . S
C296 C304 1.574 . S
C296 C312 1.368 . S
H297 C305 0.950 . S
H298 C303 0.950 . S
H299 C304 0.949 . S
H300 C306 0.950 . S
H301 C307 0.950 . S
H302 C308 0.949 . S
C303 H298 0.950 . S
C303 C305 1.327 . S
C303 C309 1.429 . S
C304 C296 1.574 . S
C304 H299 0.949 . S
C304 C310 1.368 . S
C305 C289 1.349 . S
C305 H297 0.950 . S
C305 C303 1.327 . S
C306 C294 1.349 . S
C306 H300 0.950 . S
C306 C307 1.327 . S
C307 H301 0.950 . S
C307 C306 1.327 . S
C307 C311 1.429 . S
C308 C291 1.574 . S
C308 H302 0.949 . S
C308 C312 1.368 . S
C309 C290 1.429 . S
C309 C303 1.429 . S
C309 C310 1.523 . S
C310 C291 1.368 . S
C310 C304 1.368 . S
C310 C309 1.523 . S
C311 C295 1.429 . S
C311 C307 1.429 . S
C311 C312 1.523 . S
C312 C296 1.368 . S
C312 C308 1.368 . S
C312 C311 1.523 . S
H313 C288 0.950 . S
H314 C290 0.950 . S
H315 C291 0.949 . S
H316 C293 0.950 . S
H317 C295 0.950 . S
C318 C319 1.349 . S
C318 C320 1.327 . S
C318 H343 0.950 . S
C319 C318 1.349 . S
C319 C335 1.349 . S
C320 C318 1.327 . S
C320 C339 1.429 . S
C320 H344 0.950 . S
C321 C338 1.574 . S
C321 C340 1.368 . S
C321 H345 0.949 . S
H322 C326 0.949 . S
C323 C324 1.349 . S
C323 C325 1.327 . S
C323 H346 0.950 . S
C324 C323 1.349 . S
C324 C336 1.349 . S
C325 C323 1.327 . S
C325 C341 1.429 . S
C325 H347 0.950 . S
C326 H322 0.949 . S
C326 C334 1.574 . S
C326 C342 1.368 . S
H327 C335 0.950 . S
H328 C333 0.950 . S
H329 C334 0.949 . S
H330 C336 0.950 . S
H331 C337 0.950 . S
H332 C338 0.949 . S
C333 H328 0.950 . S
C333 C335 1.327 . S
C333 C339 1.429 . S
C334 C326 1.574 . S
C334 H329 0.949 . S
C334 C340 1.368 . S
C335 C319 1.349 . S
C335 H327 0.950 . S
C335 C333 1.327 . S
C336 C324 1.349 . S
C336 H330 0.950 . S
C336 C337 1.327 . S
C337 H331 0.950 . S
C337 C336 1.327 . S
C337 C341 1.429 . S
C338 C321 1.574 . S
C338 H332 0.949 . S
C338 C342 1.368 . S
C339 C320 1.429 . S
C339 C333 1.429 . S
C339 C340 1.523 . S
C340 C321 1.368 . S
C340 C334 1.368 . S
C340 C339 1.523 . S
C341 C325 1.429 . S
C341 C337 1.429 . S
C341 C342 1.523 . S
C342 C326 1.368 . S
C342 C338 1.368 . S
C342 C341 1.523 . S
H343 C318 0.950 . S
H344 C320 0.950 . S
H345 C321 0.949 . S
H346 C323 0.950 . S
H347 C325 0.950 . S
C348 C349 1.349 . S
C348 C350 1.327 . S
C348 H373 0.950 . S
C349 C348 1.349 . S
C349 C365 1.349 . S
C350 C348 1.327 . S
C350 C369 1.429 . S
C350 H374 0.950 . S
C351 C368 1.574 . S
C351 C370 1.368 . S
C351 H375 0.949 . S
H352 C356 0.949 . S
C353 C354 1.349 . S
C353 C355 1.327 . S
C353 H376 0.950 . S
C354 C353 1.349 . S
C354 C366 1.349 1_556 S
C355 C353 1.327 . S
C355 C371 1.429 1_556 S
C355 H377 0.950 . S
C356 H352 0.949 . S
C356 C364 1.574 . S
C356 C372 1.368 . S
H357 C365 0.950 . S
H358 C363 0.950 . S
H359 C364 0.949 . S
H360 C366 0.950 . S
H361 C367 0.950 . S
H362 C368 0.949 . S
C363 H358 0.950 . S
C363 C365 1.327 . S
C363 C369 1.429 . S
C364 C356 1.574 . S
C364 H359 0.949 . S
C364 C370 1.368 . S
C365 C349 1.349 . S
C365 H357 0.950 . S
C365 C363 1.327 . S
C366 C354 1.349 1_554 S
C366 H360 0.950 . S
C366 C367 1.327 . S
C367 H361 0.950 . S
C367 C366 1.327 . S
C367 C371 1.429 . S
C368 C351 1.574 . S
C368 H362 0.949 . S
C368 C372 1.368 . S
C369 C350 1.429 . S
C369 C363 1.429 . S
C369 C370 1.523 . S
C370 C351 1.368 . S
C370 C364 1.368 . S
C370 C369 1.523 . S
C371 C355 1.429 1_554 S
C371 C367 1.429 . S
C371 C372 1.523 . S
C372 C356 1.368 . S
C372 C368 1.368 . S
C372 C371 1.523 . S
H373 C348 0.950 . S
H374 C350 0.950 . S
H375 C351 0.949 . S
H376 C353 0.950 . S
H377 C355 0.950 . S
C378 C379 1.349 . S
C378 C380 1.327 . S
C378 H403 0.950 . S
C379 C378 1.349 . S
C379 C395 1.349 . S
C380 C378 1.327 . S
C380 C399 1.429 . S
C380 H404 0.950 . S
C381 C398 1.574 . S
C381 C400 1.368 . S
C381 H405 0.949 . S
H382 C386 0.949 . S
C383 C384 1.349 . S
C383 C385 1.327 . S
C383 H406 0.950 . S
C384 C383 1.349 . S
C384 C396 1.349 . S
C385 C383 1.327 . S
C385 C401 1.429 . S
C385 H407 0.950 . S
C386 H382 0.949 . S
C386 C394 1.574 . S
C386 C402 1.368 . S
H387 C395 0.950 . S
H388 C393 0.950 . S
H389 C394 0.949 . S
H390 C396 0.980 . S
H391 C397 0.950 . S
H392 C398 0.949 . S
C393 H388 0.950 . S
C393 C395 1.327 . S
C393 C399 1.429 . S
C394 C386 1.574 . S
C394 H389 0.949 . S
C394 C400 1.368 . S
C395 C379 1.349 . S
C395 H387 0.950 . S
C395 C393 1.327 . S
C396 C384 1.349 . S
C396 H390 0.980 . S
C396 C397 1.327 . S
C397 H391 0.950 . S
C397 C396 1.327 . S
C397 C401 1.429 . S
C398 C381 1.574 . S
C398 H392 0.949 . S
C398 C402 1.368 . S
C399 C380 1.429 . S
C399 C393 1.429 . S
C399 C400 1.523 . S
C400 C381 1.368 . S
C400 C394 1.368 . S
C400 C399 1.523 . S
C401 C385 1.429 . S
C401 C397 1.429 . S
C401 C402 1.523 . S
C402 C386 1.368 . S
C402 C398 1.368 . S
C402 C401 1.523 . S
H403 C378 0.950 . S
H404 C380 0.950 . S
H405 C381 0.949 . S
H406 C383 0.950 . S
H407 C385 0.950 . S
C408 C409 1.349 . S
C408 C410 1.327 . S
C408 H433 0.950 . S
C409 C408 1.349 . S
C409 C425 1.349 . S
C410 C408 1.327 . S
C410 C429 1.429 . S
C410 H434 0.950 . S
C411 C428 1.574 . S
C411 C430 1.368 . S
C411 H435 0.949 . S
H412 C416 0.949 . S
C413 C414 1.349 . S
C413 C415 1.327 . S
C413 H436 0.950 . S
C414 C413 1.349 . S
C414 C426 1.349 . S
C415 C413 1.327 . S
C415 C431 1.429 . S
C415 H437 0.950 . S
C416 H412 0.949 . S
C416 C424 1.574 . S
C416 C432 1.368 . S
H417 C425 0.950 . S
H418 C423 0.950 . S
H419 C424 0.949 . S
H420 C426 0.950 . S
H421 C427 0.950 . S
H422 C428 0.949 . S
C423 H418 0.950 . S
C423 C425 1.327 . S
C423 C429 1.429 . S
C424 C416 1.574 . S
C424 H419 0.949 . S
C424 C430 1.368 . S
C425 C409 1.349 . S
C425 H417 0.950 . S
C425 C423 1.327 . S
C426 C414 1.349 . S
C426 H420 0.950 . S
C426 C427 1.327 . S
C427 H421 0.950 . S
C427 C426 1.327 . S
C427 C431 1.429 . S
C428 C411 1.574 . S
C428 H422 0.949 . S
C428 C432 1.368 . S
C429 C410 1.429 . S
C429 C423 1.429 . S
C429 C430 1.523 . S
C430 C411 1.368 . S
C430 C424 1.368 . S
C430 C429 1.523 . S
C431 C415 1.429 . S
C431 C427 1.429 . S
C431 C432 1.523 . S
C432 C416 1.368 . S
C432 C428 1.368 . S
C432 C431 1.523 . S
H433 C408 0.950 . S
H434 C410 0.950 . S
H435 C411 0.949 . S
H436 C413 0.950 . S
H437 C415 0.950 . S
C438 C439 1.349 . S
C438 C440 1.327 . S
C438 H463 0.950 . S
C439 C438 1.349 . S
C439 C455 1.349 . S
C440 C438 1.327 . S
C440 C459 1.429 . S
C440 H464 0.950 . S
C441 C458 1.574 . S
C441 C460 1.368 . S
C441 H465 0.949 . S
H442 C446 0.949 . S
C443 C444 1.349 . S
C443 C445 1.327 . S
C443 H466 0.950 . S
C444 C443 1.349 . S
C444 C456 1.349 . S
C445 C443 1.327 . S
C445 C461 1.429 . S
C445 H467 0.950 . S
C446 H442 0.949 . S
C446 C454 1.574 . S
C446 C462 1.368 . S
H447 C455 0.950 . S
H448 C453 0.950 . S
H449 C454 0.949 . S
H450 C456 0.950 . S
H451 C457 0.950 . S
H452 C458 0.949 . S
C453 H448 0.950 . S
C453 C455 1.327 . S
C453 C459 1.429 . S
C454 C446 1.574 . S
C454 H449 0.949 . S
C454 C460 1.368 . S
C455 C439 1.349 . S
C455 H447 0.950 . S
C455 C453 1.327 . S
C456 C444 1.349 . S
C456 H450 0.950 . S
C456 C457 1.327 . S
C457 H451 0.950 . S
C457 C456 1.327 . S
C457 C461 1.429 . S
C458 C441 1.574 . S
C458 H452 0.949 . S
C458 C462 1.368 . S
C459 C440 1.429 . S
C459 C453 1.429 . S
C459 C460 1.523 . S
C460 C441 1.368 . S
C460 C454 1.368 . S
C460 C459 1.523 . S
C461 C445 1.429 . S
C461 C457 1.429 . S
C461 C462 1.523 . S
C462 C446 1.368 . S
C462 C458 1.368 . S
C462 C461 1.523 . S
H463 C438 0.950 . S
H464 C440 0.950 . S
H465 C441 0.949 . S
H466 C443 0.950 . S
H467 C445 0.950 . S
C468 C469 1.349 . S
C468 C470 1.327 . S
C468 H493 0.950 . S
C469 C468 1.349 . S
C469 C485 1.349 . S
C470 C468 1.327 . S
C470 C489 1.429 . S
C470 H494 0.950 . S
C471 C488 1.574 . S
C471 C490 1.368 . S
C471 H495 0.949 . S
H472 C476 0.949 . S
C473 C474 1.349 . S
C473 C475 1.327 . S
C473 H496 0.950 . S
C474 C473 1.349 . S
C474 C486 1.349 . S
C475 C473 1.327 . S
C475 C491 1.429 . S
C475 H497 0.950 . S
C476 H472 0.949 . S
C476 C484 1.574 . S
C476 C492 1.368 . S
H477 C485 0.950 . S
H478 C483 0.950 . S
H479 C484 0.949 . S
H480 C486 0.950 . S
H481 C487 0.950 . S
H482 C488 0.949 . S
C483 H478 0.950 . S
C483 C485 1.327 . S
C483 C489 1.429 . S
C484 C476 1.574 . S
C484 H479 0.949 . S
C484 C490 1.368 . S
C485 C469 1.349 . S
C485 H477 0.950 . S
C485 C483 1.327 . S
C486 C474 1.349 . S
C486 H480 0.950 . S
C486 C487 1.327 . S
C487 H481 0.950 . S
C487 C486 1.327 . S
C487 C491 1.429 . S
C488 C471 1.574 . S
C488 H482 0.949 . S
C488 C492 1.368 . S
C489 C470 1.429 . S
C489 C483 1.429 . S
C489 C490 1.523 . S
C490 C471 1.368 . S
C490 C484 1.368 . S
C490 C489 1.523 . S
C491 C475 1.429 . S
C491 C487 1.429 . S
C491 C492 1.523 . S
C492 C476 1.368 . S
C492 C488 1.368 . S
C492 C491 1.523 . S
H493 C468 0.950 . S
H494 C470 0.950 . S
H495 C471 0.949 . S
H496 C473 0.950 . S
H497 C475 0.950 . S
C498 C499 1.349 . S
C498 C500 1.327 . S
C498 H523 0.950 . S
C499 C498 1.349 . S
C499 C515 1.349 . S
C500 C498 1.327 . S
C500 C519 1.429 . S
C500 H524 0.950 . S
C501 C518 1.574 . S
C501 C520 1.368 . S
C501 H525 0.949 . S
H502 C506 0.949 . S
C503 C504 1.349 . S
C503 C505 1.327 . S
C503 H526 0.950 . S
C504 C503 1.349 . S
C504 C516 1.349 . S
C505 C503 1.327 . S
C505 C521 1.429 . S
C505 H527 0.950 . S
C506 H502 0.949 . S
C506 C514 1.574 . S
C506 C522 1.368 . S
H507 C515 0.950 . S
H508 C513 0.950 . S
H509 C514 0.949 . S
H510 C516 0.950 . S
H511 C517 0.950 . S
H512 C518 0.949 . S
C513 H508 0.950 . S
C513 C515 1.327 . S
C513 C519 1.429 . S
C514 C506 1.574 . S
C514 H509 0.949 . S
C514 C520 1.368 . S
C515 C499 1.349 . S
C515 H507 0.950 . S
C515 C513 1.327 . S
C516 C504 1.349 . S
C516 H510 0.950 . S
C516 C517 1.327 . S
C517 H511 0.950 . S
C517 C516 1.327 . S
C517 C521 1.429 . S
C518 C501 1.574 . S
C518 H512 0.949 . S
C518 C522 1.368 . S
C519 C500 1.429 . S
C519 C513 1.429 . S
C519 C520 1.523 . S
C520 C501 1.368 . S
C520 C514 1.368 . S
C520 C519 1.523 . S
C521 C505 1.429 . S
C521 C517 1.429 . S
C521 C522 1.523 . S
C522 C506 1.368 . S
C522 C518 1.368 . S
C522 C521 1.523 . S
H523 C498 0.950 . S
H524 C500 0.950 . S
H525 C501 0.949 . S
H526 C503 0.950 . S
H527 C505 0.950 . S
C528 C529 1.349 . S
C528 C530 1.327 . S
C528 H553 0.950 . S
C529 C528 1.349 . S
C529 C545 1.349 . S
C530 C528 1.327 . S
C530 C549 1.429 . S
C530 H554 0.950 . S
C531 C548 1.574 . S
C531 C550 1.368 . S
C531 H555 0.949 . S
H532 C536 0.949 . S
C533 C534 1.349 . S
C533 C535 1.327 . S
C533 H556 0.950 . S
C534 C533 1.349 . S
C534 C546 1.349 . S
C535 C533 1.327 . S
C535 C551 1.429 . S
C535 H557 0.950 . S
C536 H532 0.949 . S
C536 C544 1.574 . S
C536 C552 1.368 . S
H537 C545 0.950 . S
H538 C543 0.950 . S
H539 C544 0.949 . S
H540 C546 0.950 . S
H541 C547 0.950 . S
H542 C548 0.949 . S
C543 H538 0.950 . S
C543 C545 1.327 . S
C543 C549 1.429 . S
C544 C536 1.574 . S
C544 H539 0.949 . S
C544 C550 1.368 . S
C545 C529 1.349 . S
C545 H537 0.950 . S
C545 C543 1.327 . S
C546 C534 1.349 . S
C546 H540 0.950 . S
C546 C547 1.327 . S
C547 H541 0.950 . S
C547 C546 1.327 . S
C547 C551 1.429 . S
C548 C531 1.574 . S
C548 H542 0.949 . S
C548 C552 1.368 . S
C549 C530 1.429 . S
C549 C543 1.429 . S
C549 C550 1.523 . S
C550 C531 1.368 . S
C550 C544 1.368 . S
C550 C549 1.523 . S
C551 C535 1.429 . S
C551 C547 1.429 . S
C551 C552 1.523 . S
C552 C536 1.368 . S
C552 C548 1.368 . S
C552 C551 1.523 . S
H553 C528 0.950 . S
H554 C530 0.950 . S
H555 C531 0.949 . S
H556 C533 0.950 . S
H557 C535 0.950 . S
C558 C559 1.349 . S
C558 C560 1.327 . S
C558 H583 0.950 . S
C559 C558 1.349 . S
C559 C575 1.349 . S
C560 C558 1.327 . S
C560 C579 1.429 . S
C560 H584 0.950 . S
C561 C578 1.574 . S
C561 C580 1.368 . S
C561 H585 0.949 . S
H562 C566 0.949 . S
C563 C564 1.349 . S
C563 C565 1.327 1_554 S
C563 H586 0.950 . S
C564 C563 1.349 . S
C564 C576 1.349 1_554 S
C565 C563 1.327 1_556 S
C565 C581 1.429 . S
C565 H587 0.950 . S
C566 H562 0.949 . S
C566 C574 1.574 . S
C566 C582 1.368 . S
H567 C575 0.950 . S
H568 C573 0.950 . S
H569 C574 0.949 . S
H570 C576 0.950 . S
H571 C577 0.950 . S
H572 C578 0.949 . S
C573 H568 0.950 . S
C573 C575 1.327 . S
C573 C579 1.429 . S
C574 C566 1.574 . S
C574 H569 0.949 . S
C574 C580 1.368 . S
C575 C559 1.349 . S
C575 H567 0.950 . S
C575 C573 1.327 . S
C576 C564 1.349 1_556 S
C576 H570 0.950 . S
C576 C577 1.327 . S
C577 H571 0.950 . S
C577 C576 1.327 . S
C577 C581 1.429 . S
C578 C561 1.574 . S
C578 H572 0.949 . S
C578 C582 1.368 . S
C579 C560 1.429 . S
C579 C573 1.429 . S
C579 C580 1.523 . S
C580 C561 1.368 . S
C580 C574 1.368 . S
C580 C579 1.523 . S
C581 C565 1.429 . S
C581 C577 1.429 . S
C581 C582 1.523 . S
C582 C566 1.368 . S
C582 C578 1.368 . S
C582 C581 1.523 . S
H583 C558 0.950 . S
H584 C560 0.950 . S
H585 C561 0.949 . S
H586 C563 0.950 . S
H587 C565 0.950 . S
C588 C589 1.349 . S
C588 C590 1.327 . S
C588 H613 0.950 . S
C589 C588 1.349 . S
C589 C605 1.349 . S
C590 C588 1.327 . S
C590 C609 1.429 . S
C590 H614 0.950 . S
C591 C608 1.574 . S
C591 C610 1.368 . S
C591 H615 0.949 . S
H592 C596 0.949 . S
C593 C594 1.349 . S
C593 C595 1.327 . S
C593 H616 0.950 . S
C594 C593 1.349 . S
C594 C606 1.349 . S
C595 C593 1.327 . S
C595 C611 1.429 . S
C595 H617 0.950 . S
C596 H592 0.949 . S
C596 C604 1.574 . S
C596 C612 1.368 . S
H597 C605 0.950 . S
H598 C603 0.950 . S
H599 C604 0.949 . S
H600 C606 0.950 . S
H601 C607 0.950 . S
H602 C608 0.949 . S
C603 H598 0.950 . S
C603 C605 1.327 . S
C603 C609 1.429 . S
C604 C596 1.574 . S
C604 H599 0.949 . S
C604 C610 1.368 . S
C605 C589 1.349 . S
C605 H597 0.950 . S
C605 C603 1.327 . S
C606 C594 1.349 . S
C606 H600 0.950 . S
C606 C607 1.327 . S
C607 H601 0.950 . S
C607 C606 1.327 . S
C607 C611 1.429 . S
C608 C591 1.574 . S
C608 H602 0.949 . S
C608 C612 1.368 . S
C609 C590 1.429 . S
C609 C603 1.429 . S
C609 C610 1.523 . S
C610 C591 1.368 . S
C610 C604 1.368 . S
C610 C609 1.523 . S
C611 C595 1.429 . S
C611 C607 1.429 . S
C611 C612 1.523 . S
C612 C596 1.368 . S
C612 C608 1.368 . S
C612 C611 1.523 . S
H613 C588 0.950 . S
H614 C590 0.950 . S
H615 C591 0.949 . S
H616 C593 0.950 . S
H617 C595 0.950 . S
C618 C619 1.349 . S
C618 C620 1.327 . S
C618 H643 0.950 . S
C619 C618 1.349 . S
C619 C635 1.349 . S
C620 C618 1.327 . S
C620 C639 1.429 . S
C620 H644 0.950 . S
C621 C638 1.574 . S
C621 C640 1.368 . S
C621 H645 0.949 . S
H622 C626 0.949 . S
C623 C624 1.349 . S
C623 C625 1.327 . S
C623 H646 0.950 . S
C624 C623 1.349 . S
C624 C636 1.349 . S
C625 C623 1.327 . S
C625 C641 1.429 . S
C625 H647 0.950 . S
C626 H622 0.949 . S
C626 C634 1.574 . S
C626 C642 1.368 . S
H627 C635 0.950 . S
H628 C633 0.950 . S
H629 C634 0.949 . S
H630 C636 0.950 . S
H631 C637 0.950 . S
H632 C638 0.949 . S
C633 H628 0.950 . S
C633 C635 1.327 . S
C633 C639 1.429 . S
C634 C626 1.574 . S
C634 H629 0.949 . S
C634 C640 1.368 . S
C635 C619 1.349 . S
C635 H627 0.950 . S
C635 C633 1.327 . S
C636 C624 1.349 . S
C636 H630 0.950 . S
C636 C637 1.327 . S
C637 H631 0.950 . S
C637 C636 1.327 . S
C637 C641 1.429 . S
C638 C621 1.574 . S
C638 H632 0.949 . S
C638 C642 1.368 . S
C639 C620 1.429 . S
C639 C633 1.429 . S
C639 C640 1.523 . S
C640 C621 1.368 . S
C640 C634 1.368 . S
C640 C639 1.523 . S
C641 C625 1.429 . S
C641 C637 1.429 . S
C641 C642 1.523 . S
C642 C626 1.368 . S
C642 C638 1.368 . S
C642 C641 1.523 . S
H643 C618 0.950 . S
H644 C620 0.950 . S
H645 C621 0.949 . S
H646 C623 0.950 . S
H647 C625 0.950 . S
C648 C649 1.349 . S
C648 C650 1.327 . S
C648 H673 0.950 . S
C649 C648 1.349 . S
C649 C665 1.349 . S
C650 C648 1.327 . S
C650 C669 1.429 . S
C650 H674 0.950 . S
C651 C668 1.574 . S
C651 C670 1.368 . S
C651 H675 0.949 . S
H652 C656 0.949 . S
C653 C654 1.349 . S
C653 C655 1.327 . S
C653 H676 0.950 . S
C654 C653 1.349 . S
C654 C666 1.349 . S
C655 C653 1.327 . S
C655 C671 1.429 . S
C655 H677 0.950 . S
C656 H652 0.949 . S
C656 C664 1.574 . S
C656 C672 1.368 . S
H657 C665 0.950 . S
H658 C663 0.950 . S
H659 C664 0.949 . S
H660 C666 0.950 . S
H661 C667 0.950 . S
H662 C668 0.949 . S
C663 H658 0.950 . S
C663 C665 1.327 . S
C663 C669 1.429 . S
C664 C656 1.574 . S
C664 H659 0.949 . S
C664 C670 1.368 . S
C665 C649 1.349 . S
C665 H657 0.950 . S
C665 C663 1.327 . S
C666 C654 1.349 . S
C666 H660 0.950 . S
C666 C667 1.327 . S
C667 H661 0.950 . S
C667 C666 1.327 . S
C667 C671 1.429 . S
C668 C651 1.574 . S
C668 H662 0.949 . S
C668 C672 1.368 . S
C669 C650 1.429 . S
C669 C663 1.429 . S
C669 C670 1.523 . S
C670 C651 1.368 . S
C670 C664 1.368 . S
C670 C669 1.523 . S
C671 C655 1.429 . S
C671 C667 1.429 . S
C671 C672 1.523 . S
C672 C656 1.368 . S
C672 C668 1.368 . S
C672 C671 1.523 . S
H673 C648 0.950 . S
H674 C650 0.950 . S
H675 C651 0.949 . S
H676 C653 0.950 . S
H677 C655 0.950 . S
C678 C679 1.349 . S
C678 C680 1.327 . S
C678 H703 0.950 . S
C679 C678 1.349 . S
C679 C695 1.349 . S
C680 C678 1.327 . S
C680 C699 1.429 . S
C680 H704 0.950 . S
C681 C698 1.574 . S
C681 C700 1.368 . S
C681 H705 0.949 . S
H682 C686 0.949 . S
C683 C684 1.349 . S
C683 C685 1.327 . S
C683 H706 0.950 . S
C684 C683 1.349 . S
C684 C696 1.349 . S
C685 C683 1.327 . S
C685 C701 1.429 . S
C685 H707 0.950 . S
C686 H682 0.949 . S
C686 C694 1.574 . S
C686 C702 1.368 . S
H687 C695 0.950 . S
H688 C693 0.950 . S
H689 C694 0.949 . S
H690 C696 0.964 . S
H691 C697 0.950 . S
H692 C698 0.949 . S
C693 H688 0.950 . S
C693 C695 1.327 . S
C693 C699 1.429 . S
C694 C686 1.574 . S
C694 H689 0.949 . S
C694 C700 1.368 . S
C695 C679 1.349 . S
C695 H687 0.950 . S
C695 C693 1.327 . S
C696 C684 1.349 . S
C696 H690 0.964 . S
C696 C697 1.327 . S
C697 H691 0.950 . S
C697 C696 1.327 . S
C697 C701 1.429 . S
C698 C681 1.574 . S
C698 H692 0.949 . S
C698 C702 1.368 . S
C699 C680 1.429 . S
C699 C693 1.429 . S
C699 C700 1.523 . S
C700 C681 1.368 . S
C700 C694 1.368 . S
C700 C699 1.523 . S
C701 C685 1.429 . S
C701 C697 1.429 . S
C701 C702 1.523 . S
C702 C686 1.368 . S
C702 C698 1.368 . S
C702 C701 1.523 . S
H703 C678 0.950 . S
H704 C680 0.950 . S
H705 C681 0.949 . S
H706 C683 0.950 . S
H707 C685 0.950 . S
C708 C709 1.349 . S
C708 C710 1.327 . S
C708 H733 0.950 . S
C709 C708 1.349 . S
C709 C725 1.349 . S
C710 C708 1.327 . S
C710 C729 1.429 . S
C710 H734 0.950 . S
C711 C728 1.574 . S
C711 C730 1.368 . S
C711 H735 0.949 . S
H712 C716 0.949 . S
C713 C714 1.349 . S
C713 C715 1.327 . S
C713 H736 0.950 . S
C714 C713 1.349 . S
C714 C726 1.349 . S
C715 C713 1.327 . S
C715 C731 1.429 . S
C715 H737 0.950 . S
C716 H712 0.949 . S
C716 C724 1.574 . S
C716 C732 1.368 . S
H717 C725 0.950 . S
H718 C723 0.950 . S
H719 C724 0.949 . S
H720 C726 0.950 . S
H721 C727 0.950 . S
H722 C728 0.949 . S
C723 H718 0.950 . S
C723 C725 1.327 . S
C723 C729 1.429 . S
C724 C716 1.574 . S
C724 H719 0.949 . S
C724 C730 1.368 . S
C725 C709 1.349 . S
C725 H717 0.950 . S
C725 C723 1.327 . S
C726 C714 1.349 . S
C726 H720 0.950 . S
C726 C727 1.327 . S
C727 H721 0.950 . S
C727 C726 1.327 . S
C727 C731 1.429 . S
C728 C711 1.574 . S
C728 H722 0.949 . S
C728 C732 1.368 . S
C729 C710 1.429 . S
C729 C723 1.429 . S
C729 C730 1.523 . S
C730 C711 1.368 . S
C730 C724 1.368 . S
C730 C729 1.523 . S
C731 C715 1.429 . S
C731 C727 1.429 . S
C731 C732 1.523 . S
C732 C716 1.368 . S
C732 C728 1.368 . S
C732 C731 1.523 . S
H733 C708 0.950 . S
H734 C710 0.950 . S
H735 C711 0.949 . S
H736 C713 0.950 . S
H737 C715 0.950 . S
C738 C739 1.349 . S
C738 C740 1.327 . S
C738 H763 0.950 . S
C739 C738 1.349 . S
C739 C755 1.349 . S
C740 C738 1.327 . S
C740 C759 1.429 . S
C740 H764 0.950 . S
C741 C758 1.574 . S
C741 C760 1.368 . S
C741 H765 0.949 . S
H742 C746 0.949 . S
C743 C744 1.349 . S
C743 C745 1.327 . S
C743 H766 0.950 . S
C744 C743 1.349 . S
C744 C756 1.349 . S
C745 C743 1.327 . S
C745 C761 1.429 . S
C745 H767 0.950 . S
C746 H742 0.949 . S
C746 C754 1.574 . S
C746 C762 1.368 . S
H747 C755 0.950 . S
H748 C753 0.950 . S
H749 C754 0.949 . S
H750 C756 0.950 . S
H751 C757 0.950 . S
H752 C758 0.949 . S
C753 H748 0.950 . S
C753 C755 1.327 . S
C753 C759 1.429 . S
C754 C746 1.574 . S
C754 H749 0.949 . S
C754 C760 1.368 . S
C755 C739 1.349 . S
C755 H747 0.950 . S
C755 C753 1.327 . S
C756 C744 1.349 . S
C756 H750 0.950 . S
C756 C757 1.327 . S
C757 H751 0.950 . S
C757 C756 1.327 . S
C757 C761 1.429 . S
C758 C741 1.574 . S
C758 H752 0.949 . S
C758 C762 1.368 . S
C759 C740 1.429 . S
C759 C753 1.429 . S
C759 C760 1.523 . S
C760 C741 1.368 . S
C760 C754 1.368 . S
C760 C759 1.523 . S
C761 C745 1.429 . S
C761 C757 1.429 . S
C761 C762 1.523 . S
C762 C746 1.368 . S
C762 C758 1.368 . S
C762 C761 1.523 . S
H763 C738 0.950 . S
H764 C740 0.950 . S
H765 C741 0.949 . S
H766 C743 0.950 . S
H767 C745 0.950 . S
C768 C769 1.349 . S
C768 C770 1.327 . S
C768 H793 0.950 . S
C769 C768 1.349 . S
C769 C785 1.349 . S
C770 C768 1.327 . S
C770 C789 1.429 . S
C770 H794 0.950 . S
C771 C788 1.574 . S
C771 C790 1.368 . S
C771 H795 0.949 . S
H772 C776 0.949 . S
C773 C774 1.349 . S
C773 C775 1.327 . S
C773 H796 0.950 . S
C774 C773 1.349 . S
C774 C786 1.349 . S
C775 C773 1.327 . S
C775 C791 1.429 . S
C775 H797 0.950 . S
C776 H772 0.949 . S
C776 C784 1.574 . S
C776 C792 1.368 . S
H777 C785 0.950 . S
H778 C783 0.950 . S
H779 C784 0.949 . S
H780 C786 0.950 . S
H781 C787 0.950 . S
H782 C788 0.949 . S
C783 H778 0.950 . S
C783 C785 1.327 . S
C783 C789 1.429 . S
C784 C776 1.574 . S
C784 H779 0.949 . S
C784 C790 1.368 . S
C785 C769 1.349 . S
C785 H777 0.950 . S
C785 C783 1.327 . S
C786 C774 1.349 . S
C786 H780 0.950 . S
C786 C787 1.327 . S
C787 H781 0.950 . S
C787 C786 1.327 . S
C787 C791 1.429 . S
C788 C771 1.574 . S
C788 H782 0.949 . S
C788 C792 1.368 . S
C789 C770 1.429 . S
C789 C783 1.429 . S
C789 C790 1.523 . S
C790 C771 1.368 . S
C790 C784 1.368 . S
C790 C789 1.523 . S
C791 C775 1.429 . S
C791 C787 1.429 . S
C791 C792 1.523 . S
C792 C776 1.368 . S
C792 C788 1.368 . S
C792 C791 1.523 . S
H793 C768 0.950 . S
H794 C770 0.950 . S
H795 C771 0.949 . S
H796 C773 0.950 . S
H797 C775 0.950 . S
C798 C799 1.349 . S
C798 C800 1.327 . S
C798 H823 0.950 . S
C799 C798 1.349 . S
C799 C815 1.349 . S
C800 C798 1.327 . S
C800 C819 1.429 . S
C800 H824 0.950 . S
C801 C818 1.574 . S
C801 C820 1.368 . S
C801 H825 0.949 . S
H802 C806 0.949 . S
C803 C804 1.349 . S
C803 C805 1.327 . S
C803 H826 0.950 . S
C804 C803 1.349 . S
C804 C816 1.349 . S
C805 C803 1.327 . S
C805 C821 1.429 . S
C805 H827 0.950 . S
C806 H802 0.949 . S
C806 C814 1.574 . S
C806 C822 1.368 . S
H807 C815 0.950 . S
H808 C813 0.950 . S
H809 C814 0.949 . S
H810 C816 0.950 . S
H811 C817 0.950 . S
H812 C818 0.949 . S
C813 H808 0.950 . S
C813 C815 1.327 . S
C813 C819 1.429 . S
C814 C806 1.574 . S
C814 H809 0.949 . S
C814 C820 1.368 . S
C815 C799 1.349 . S
C815 H807 0.950 . S
C815 C813 1.327 . S
C816 C804 1.349 . S
C816 H810 0.950 . S
C816 C817 1.327 . S
C817 H811 0.950 . S
C817 C816 1.327 . S
C817 C821 1.429 . S
C818 C801 1.574 . S
C818 H812 0.949 . S
C818 C822 1.368 . S
C819 C800 1.429 . S
C819 C813 1.429 . S
C819 C820 1.523 . S
C820 C801 1.368 . S
C820 C814 1.368 . S
C820 C819 1.523 . S
C821 C805 1.429 . S
C821 C817 1.429 . S
C821 C822 1.523 . S
C822 C806 1.368 . S
C822 C818 1.368 . S
C822 C821 1.523 . S
H823 C798 0.950 . S
H824 C800 0.950 . S
H825 C801 0.949 . S
H826 C803 0.950 . S
H827 C805 0.950 . S
C828 C829 1.349 . S
C828 C830 1.327 . S
C828 H853 0.950 . S
C829 C828 1.349 . S
C829 C845 1.349 . S
C830 C828 1.327 . S
C830 C849 1.429 . S
C830 H854 0.950 . S
C831 C848 1.574 . S
C831 C850 1.368 . S
C831 H855 0.949 . S
H832 C836 0.949 . S
C833 C834 1.349 . S
C833 C835 1.327 . S
C833 H856 0.950 . S
C834 C833 1.349 . S
C834 C846 1.349 . S
C835 C833 1.327 . S
C835 C851 1.429 . S
C835 H857 0.950 . S
C836 H832 0.949 . S
C836 C844 1.574 . S
C836 C852 1.368 . S
H837 C845 0.950 . S
H838 C843 0.950 . S
H839 C844 0.949 . S
H840 C846 0.950 . S
H841 C847 0.950 . S
H842 C848 0.949 . S
C843 H838 0.950 . S
C843 C845 1.327 . S
C843 C849 1.429 . S
C844 C836 1.574 . S
C844 H839 0.949 . S
C844 C850 1.368 . S
C845 C829 1.349 . S
C845 H837 0.950 . S
C845 C843 1.327 . S
C846 C834 1.349 . S
C846 H840 0.950 . S
C846 C847 1.327 . S
C847 H841 0.950 . S
C847 C846 1.327 . S
C847 C851 1.429 . S
C848 C831 1.574 . S
C848 H842 0.949 . S
C848 C852 1.368 . S
C849 C830 1.429 . S
C849 C843 1.429 . S
C849 C850 1.523 . S
C850 C831 1.368 . S
C850 C844 1.368 . S
C850 C849 1.523 . S
C851 C835 1.429 . S
C851 C847 1.429 . S
C851 C852 1.523 . S
C852 C836 1.368 . S
C852 C848 1.368 . S
C852 C851 1.523 . S
H853 C828 0.950 . S
H854 C830 0.950 . S
H855 C831 0.949 . S
H856 C833 0.950 . S
H857 C835 0.950 . S
C858 C859 1.349 . S
C858 C860 1.327 . S
C858 H883 0.950 . S
C859 C858 1.349 . S
C859 C875 1.349 . S
C860 C858 1.327 . S
C860 C879 1.429 . S
C860 H884 0.950 . S
C861 C878 1.574 . S
C861 C880 1.368 . S
C861 H885 0.949 . S
H862 C866 0.949 . S
C863 C864 1.349 . S
C863 C865 1.327 . S
C863 H886 0.950 . S
C864 C863 1.349 . S
C864 C876 1.349 . S
C865 C863 1.327 . S
C865 C881 1.429 . S
C865 H887 0.950 . S
C866 H862 0.949 . S
C866 C874 1.574 . S
C866 C882 1.368 . S
H867 C875 0.950 . S
H868 C873 0.950 . S
H869 C874 0.949 . S
H870 C876 0.950 . S
H871 C877 0.950 . S
H872 C878 0.949 . S
C873 H868 0.950 . S
C873 C875 1.327 . S
C873 C879 1.429 . S
C874 C866 1.574 . S
C874 H869 0.949 . S
C874 C880 1.368 . S
C875 C859 1.349 . S
C875 H867 0.950 . S
C875 C873 1.327 . S
C876 C864 1.349 . S
C876 H870 0.950 . S
C876 C877 1.327 . S
C877 H871 0.950 . S
C877 C876 1.327 . S
C877 C881 1.429 . S
C878 C861 1.574 . S
C878 H872 0.949 . S
C878 C882 1.368 . S
C879 C860 1.429 . S
C879 C873 1.429 . S
C879 C880 1.523 . S
C880 C861 1.368 . S
C880 C874 1.368 . S
C880 C879 1.523 . S
C881 C865 1.429 . S
C881 C877 1.429 . S
C881 C882 1.523 . S
C882 C866 1.368 . S
C882 C878 1.368 . S
C882 C881 1.523 . S
H883 C858 0.950 . S
H884 C860 0.950 . S
H885 C861 0.949 . S
H886 C863 0.950 . S
H887 C865 0.950 . S
C169 C123 1.355 . S
C174 C11 1.355 . S
C199 C25 1.355 . S
C204 C137 1.355 . S
C229 C39 1.355 . S
C234 C151 1.355 . S
C259 C53 1.355 . S
C264 C165 1.355 . S
C289 C95 1.355 . S
C294 C67 1.355 . S
C319 C81 1.355 . S
C324 C109 1.355 . S
C349 C9 1.505 . S
C354 C70 1.481 . S
C379 C23 1.505 . S
C384 C0 1.481 1_655 S
C409 C37 1.505 . S
C414 C14 1.481 1_565 S
C439 C28 1.481 . S
C444 C51 1.505 . S
C469 C42 1.481 1_455 S
C474 C65 1.505 . S
C499 C56 1.481 1_545 S
C504 C79 1.505 . S
C529 C98 1.481 . S
C534 C93 1.505 . S
C559 C107 1.505 . S
C564 C112 1.481 1_655 S
C589 C126 1.481 1_565 S
C594 C121 1.505 . S
C619 C135 1.505 . S
C624 C140 1.481 . S
C649 C149 1.505 . S
C654 C154 1.481 1_455 S
C679 C163 1.505 . S
C684 C84 1.481 1_545 S
C709 C145 1.226 . S
C714 C5 1.226 . S
C739 C159 1.226 . S
C744 C19 1.226 . S
C769 C89 1.226 . S
C774 C33 1.226 . S
C799 C47 1.226 . S
C804 C103 1.226 . S
C829 C61 1.226 . S
C834 C117 1.223 1_556 S
C859 C131 1.226 . S
C864 C75 1.223 1_554 S
