# Generated by pormake.
# Topology ukb, (4)-cn, num edge types: 1
# Building blocks:
#     Node 0, Type 0, BuildingBlock: AZAVOO_clean_sbu_0, # of connection points: 4
#     Node 1, Type 0, BuildingBlock: AZAVOO_clean_sbu_0, # of connection points: 4
#     Node 2, Type 0, BuildingBlock: AZAVOO_clean_sbu_0, # of connection points: 4
#     Node 3, Type 0, BuildingBlock: AZAVOO_clean_sbu_0, # of connection points: 4
#     Node 4, Type 0, BuildingBlock: AZAVOO_clean_sbu_0, # of connection points: 4
#     Node 5, Type 0, BuildingBlock: AZAVOO_clean_sbu_0, # of connection points: 4
#     Node 6, Type 0, BuildingBlock: AZAVOO_clean_sbu_0, # of connection points: 4
#     Node 7, Type 0, BuildingBlock: AZAVOO_clean_sbu_0, # of connection points: 4
#     Node 8, Type 0, BuildingBlock: AZAVOO_clean_sbu_0, # of connection points: 4
#     Node 9, Type 0, BuildingBlock: AZAVOO_clean_sbu_0, # of connection points: 4
#     Node 10, Type 0, BuildingBlock: AZAVOO_clean_sbu_0, # of connection points: 4
#     Node 11, Type 0, BuildingBlock: AZAVOO_clean_sbu_0, # of connection points: 4
#     Node 12, Type 0, BuildingBlock: AZAVOO_clean_sbu_0, # of connection points: 4
#     Node 13, Type 0, BuildingBlock: AZAVOO_clean_sbu_0, # of connection points: 4
#     Node 14, Type 0, BuildingBlock: AZAVOO_clean_sbu_0, # of connection points: 4
#     Node 15, Type 0, BuildingBlock: AZAVOO_clean_sbu_0, # of connection points: 4
#     Edge 16, Type (0, 0), BuildingBlock: CIFDUS_clean_linker_0, # of connection points: 2
#     Edge 17, Type (0, 0), BuildingBlock: CIFDUS_clean_linker_0, # of connection points: 2
#     Edge 18, Type (0, 0), BuildingBlock: CIFDUS_clean_linker_0, # of connection points: 2
#     Edge 19, Type (0, 0), BuildingBlock: CIFDUS_clean_linker_0, # of connection points: 2
#     Edge 20, Type (0, 0), BuildingBlock: CIFDUS_clean_linker_0, # of connection points: 2
#     Edge 21, Type (0, 0), BuildingBlock: CIFDUS_clean_linker_0, # of connection points: 2
#     Edge 22, Type (0, 0), BuildingBlock: CIFDUS_clean_linker_0, # of connection points: 2
#     Edge 23, Type (0, 0), BuildingBlock: CIFDUS_clean_linker_0, # of connection points: 2
#     Edge 24, Type (0, 0), BuildingBlock: CIFDUS_clean_linker_0, # of connection points: 2
#     Edge 25, Type (0, 0), BuildingBlock: CIFDUS_clean_linker_0, # of connection points: 2
#     Edge 26, Type (0, 0), BuildingBlock: CIFDUS_clean_linker_0, # of connection points: 2
#     Edge 27, Type (0, 0), BuildingBlock: CIFDUS_clean_linker_0, # of connection points: 2
#     Edge 28, Type (0, 0), BuildingBlock: CIFDUS_clean_linker_0, # of connection points: 2
#     Edge 29, Type (0, 0), BuildingBlock: CIFDUS_clean_linker_0, # of connection points: 2
#     Edge 30, Type (0, 0), BuildingBlock: CIFDUS_clean_linker_0, # of connection points: 2
#     Edge 31, Type (0, 0), BuildingBlock: CIFDUS_clean_linker_0, # of connection points: 2
#     Edge 32, Type (0, 0), BuildingBlock: CIFDUS_clean_linker_0, # of connection points: 2
#     Edge 33, Type (0, 0), BuildingBlock: CIFDUS_clean_linker_0, # of connection points: 2
#     Edge 34, Type (0, 0), BuildingBlock: CIFDUS_clean_linker_0, # of connection points: 2
#     Edge 35, Type (0, 0), BuildingBlock: CIFDUS_clean_linker_0, # of connection points: 2
#     Edge 36, Type (0, 0), BuildingBlock: CIFDUS_clean_linker_0, # of connection points: 2
#     Edge 37, Type (0, 0), BuildingBlock: CIFDUS_clean_linker_0, # of connection points: 2
#     Edge 38, Type (0, 0), BuildingBlock: CIFDUS_clean_linker_0, # of connection points: 2
#     Edge 39, Type (0, 0), BuildingBlock: CIFDUS_clean_linker_0, # of connection points: 2
#     Edge 40, Type (0, 0), BuildingBlock: CIFDUS_clean_linker_0, # of connection points: 2
#     Edge 41, Type (0, 0), BuildingBlock: CIFDUS_clean_linker_0, # of connection points: 2
#     Edge 42, Type (0, 0), BuildingBlock: CIFDUS_clean_linker_0, # of connection points: 2
#     Edge 43, Type (0, 0), BuildingBlock: CIFDUS_clean_linker_0, # of connection points: 2
#     Edge 44, Type (0, 0), BuildingBlock: CIFDUS_clean_linker_0, # of connection points: 2
#     Edge 45, Type (0, 0), BuildingBlock: CIFDUS_clean_linker_0, # of connection points: 2
#     Edge 46, Type (0, 0), BuildingBlock: CIFDUS_clean_linker_0, # of connection points: 2
#     Edge 47, Type (0, 0), BuildingBlock: CIFDUS_clean_linker_0, # of connection points: 2
# Relax obj value: 0.169
# Max RMSD: 0.202
# Mean RMSD: 0.179
data_MOF--net-ukb--node1-AZAVOO_clean_sbu_0--edge1-CIFDUS_clean_linker_0
_symmetry_space_group_name_H-M    P1
_symmetry_Int_Tables_number       1
_symmetry_cell_setting            triclinic
loop_
_symmetry_equiv_pos_as_xyz
'x, y, z'
_cell_length_a     35.451427
_cell_length_b     38.441254
_cell_length_c     36.013246
_cell_angle_alpha  90.042427
_cell_angle_beta   89.925877
_cell_angle_gamma 90.05238
loop_
_atom_site_label
_atom_site_type_symbol
_atom_site_fract_x
_atom_site_fract_y
_atom_site_fract_z
_atom_type_partial_charge
Mg0 Mg 0.52701 0.12432 0.17073 0.0
O1 O 0.53682 0.16546 0.21675 0.0
O2 O 0.54532 0.13644 0.27002 0.0
Mg3 Mg 0.5366 0.07884 0.25967 0.0
C4 C 0.5441 0.16474 0.25158 0.0
C5 C 0.50655 0.1564 0.09475 0.0
O6 O 0.51114 0.12334 0.08662 0.0
O7 O 0.46631 0.11657 0.18966 0.0
O8 O 0.47438 0.08875 0.24351 0.0
O9 O 0.58869 0.12059 0.16288 0.0
O10 O 0.55723 0.08798 0.2028 0.0
C11 C 0.45302 0.10218 0.21878 0.0
C12 C 0.58931 0.09823 0.18974 0.0
O13 O 0.50983 0.16596 0.12846 0.0
Mg14 Mg 0.28758 0.51885 0.67768 0.0
O15 O 0.2323 0.5341 0.70964 0.0
O16 O 0.25129 0.53518 0.76891 0.0
Mg17 Mg 0.31389 0.52502 0.77589 0.0
C18 C 0.22559 0.53861 0.74437 0.0
C19 C 0.28593 0.50601 0.59821 0.0
O20 O 0.3205 0.51257 0.60939 0.0
O21 O 0.28646 0.46227 0.69784 0.0
O22 O 0.30847 0.46898 0.75547 0.0
O23 O 0.30319 0.5749 0.67035 0.0
O24 O 0.31907 0.54269 0.71857 0.0
C25 C 0.29825 0.44958 0.72851 0.0
C26 C 0.31948 0.57245 0.70235 0.0
O27 O 0.25972 0.50553 0.62246 0.0
Mg28 Mg 0.95897 0.34472 0.17583 0.0
O29 O 0.94903 0.2982 0.21611 0.0
O30 O 0.93579 0.32204 0.27134 0.0
Mg31 Mg 0.94057 0.38081 0.26867 0.0
C32 C 0.93972 0.29548 0.2504 0.0
C33 C 0.97743 0.32288 0.09671 0.0
O34 O 0.96657 0.3555 0.09455 0.0
O35 O 0.01834 0.35416 0.19943 0.0
O36 O 0.00357 0.37621 0.2551 0.0
O37 O 0.8971 0.34639 0.16583 0.0
O38 O 0.9255 0.37637 0.21 0.0
C39 C 0.02789 0.36682 0.23091 0.0
C40 C 0.89453 0.36604 0.19492 0.0
O41 O 0.97974 0.30899 0.12874 0.0
Mg42 Mg 0.21465 0.96147 0.69633 0.0
O43 O 0.26835 0.94504 0.72934 0.0
O44 O 0.24791 0.94065 0.78793 0.0
Mg45 Mg 0.18488 0.95004 0.7931 0.0
C46 C 0.27425 0.93875 0.76381 0.0
C47 C 0.22379 0.97529 0.61671 0.0
O48 O 0.18798 0.96927 0.62373 0.0
O49 O 0.21427 0.01711 0.71956 0.0
O50 O 0.19005 0.00694 0.7758 0.0
O51 O 0.19992 0.90583 0.6855 0.0
O52 O 0.18113 0.93573 0.73451 0.0
C53 C 0.20083 0.02793 0.75047 0.0
C54 C 0.18186 0.90675 0.7167 0.0
O55 O 0.2467 0.97612 0.64389 0.0
Mg56 Mg 0.52412 0.30592 0.83668 0.0
O57 O 0.54073 0.26698 0.79011 0.0
O58 O 0.55159 0.29894 0.73922 0.0
Mg59 Mg 0.53988 0.3558 0.75118 0.0
C60 C 0.55069 0.26973 0.75599 0.0
C61 C 0.50356 0.27156 0.91025 0.0
O62 O 0.50912 0.30443 0.91867 0.0
O63 O 0.46487 0.31225 0.81266 0.0
O64 O 0.47724 0.34371 0.76195 0.0
O65 O 0.58443 0.31237 0.85086 0.0
O66 O 0.55531 0.34464 0.80906 0.0
C67 C 0.45401 0.32833 0.78357 0.0
C68 C 0.58638 0.33576 0.82511 0.0
O69 O 0.5058 0.26243 0.87632 0.0
Mg70 Mg 0.21161 0.49569 0.30815 0.0
O71 O 0.25558 0.53614 0.28433 0.0
O72 O 0.23694 0.54957 0.22621 0.0
Mg73 Mg 0.19736 0.50669 0.20725 0.0
C74 C 0.2579 0.55457 0.2546 0.0
C75 C 0.21446 0.4838 0.38903 0.0
O76 O 0.17992 0.47764 0.37753 0.0
O77 O 0.24277 0.44821 0.28466 0.0
O78 O 0.24321 0.47246 0.23109 0.0
O79 O 0.17144 0.53876 0.31708 0.0
O80 O 0.17372 0.50904 0.26451 0.0
C81 C 0.23424 0.44625 0.25049 0.0
C82 C 0.15975 0.53455 0.28338 0.0
O83 O 0.23939 0.49175 0.36498 0.0
Mg84 Mg 0.96121 0.15748 0.85447 0.0
O85 O 0.94756 0.19818 0.80841 0.0
O86 O 0.94073 0.16693 0.75624 0.0
Mg87 Mg 0.95226 0.10993 0.76642 0.0
C88 C 0.93999 0.19586 0.77364 0.0
C89 C 0.98434 0.18526 0.92993 0.0
O90 O 0.98434 0.15118 0.93293 0.0
O91 O 0.02206 0.15252 0.83403 0.0
O92 O 0.01379 0.12282 0.78132 0.0
O93 O 0.89996 0.15035 0.86422 0.0
O94 O 0.93215 0.11985 0.82306 0.0
C95 C 0.03517 0.13783 0.80495 0.0
C96 C 0.89992 0.12815 0.83719 0.0
O97 O 0.97717 0.19851 0.8983 0.0
Mg98 Mg 0.27809 0.92604 0.32444 0.0
O99 O 0.22716 0.90312 0.29145 0.0
O100 O 0.24878 0.89742 0.23344 0.0
Mg101 Mg 0.31019 0.91384 0.22848 0.0
C102 C 0.22259 0.894 0.2575 0.0
C103 C 0.26444 0.95288 0.40045 0.0
O104 O 0.3006 0.95649 0.3933 0.0
O105 O 0.27302 0.98046 0.299 0.0
O106 O 0.29939 0.97064 0.24363 0.0
O107 O 0.30004 0.87227 0.33698 0.0
O108 O 0.31546 0.90343 0.28795 0.0
C109 C 0.28636 0.99145 0.26814 0.0
C110 C 0.31912 0.87515 0.30646 0.0
O111 O 0.24321 0.94068 0.37511 0.0
Mg112 Mg 0.51234 0.75294 0.80038 0.0
O113 O 0.46933 0.79772 0.79284 0.0
O114 O 0.41441 0.77962 0.81667 0.0
Mg115 Mg 0.42064 0.72364 0.83645 0.0
C116 C 0.43466 0.80274 0.8009 0.0
C117 C 0.58798 0.79869 0.80463 0.0
O118 O 0.59224 0.7851 0.83782 0.0
O119 O 0.51768 0.76187 0.86402 0.0
O120 O 0.46151 0.74078 0.88117 0.0
O121 O 0.49386 0.73124 0.74529 0.0
O122 O 0.46907 0.71676 0.79934 0.0
C123 C 0.49368 0.75364 0.88915 0.0
C124 C 0.46867 0.71409 0.76382 0.0
O125 O 0.55945 0.79053 0.7852 0.0
Mg126 Mg 0.63084 0.4107 0.33908 0.0
O127 O 0.67925 0.3932 0.30016 0.0
O128 O 0.65378 0.37956 0.24517 0.0
Mg129 Mg 0.59125 0.39209 0.2466 0.0
C130 C 0.68217 0.38216 0.26674 0.0
C131 C 0.65913 0.4345 0.41591 0.0
O132 O 0.62225 0.4348 0.41956 0.0
O133 O 0.63127 0.46412 0.31068 0.0
O134 O 0.60694 0.44901 0.25561 0.0
O135 O 0.61763 0.35507 0.35279 0.0
O136 O 0.59165 0.38384 0.30653 0.0
C137 C 0.62054 0.47173 0.27776 0.0
C138 C 0.59588 0.35498 0.32395 0.0
O139 O 0.67308 0.42695 0.38432 0.0
Mg140 Mg 0.98493 0.71976 0.79064 0.0
O141 O 0.02957 0.6771 0.78095 0.0
O142 O 0.0817 0.69369 0.81111 0.0
Mg143 Mg 0.07269 0.74852 0.83488 0.0
C144 C 0.06353 0.67186 0.79125 0.0
C145 C 0.93038 0.67985 0.73758 0.0
O146 O 0.94731 0.70005 0.71333 0.0
O147 O 0.97711 0.70515 0.85251 0.0
O148 O 0.0291 0.72949 0.87666 0.0
O149 O 0.00549 0.74619 0.73868 0.0
O150 O 0.027 0.75683 0.79499 0.0
C151 C 0.9973 0.71434 0.88029 0.0
C152 C 0.02934 0.76214 0.7599 0.0
O153 O 0.93926 0.68215 0.77171 0.0
Mg154 Mg 0.85722 0.04248 0.32499 0.0
O155 O 0.80618 0.05565 0.28694 0.0
O156 O 0.83067 0.06623 0.23074 0.0
Mg157 Mg 0.894 0.05765 0.23083 0.0
C158 C 0.80252 0.06432 0.25279 0.0
C159 C 0.83391 0.02529 0.40477 0.0
O160 O 0.87027 0.03173 0.4067 0.0
O161 O 0.86085 0.98753 0.30007 0.0
O162 O 0.88428 -1e-05 0.24389 0.0
O163 O 0.86647 0.09902 0.3361 0.0
O164 O 0.89351 0.07083 0.28993 0.0
C165 C 0.8727 0.9781 0.26803 0.0
C166 C 0.88741 0.0999 0.30665 0.0
O167 O 0.81818 0.02585 0.37298 0.0
Mg168 Mg 0.51349 0.71084 0.18156 0.0
O169 O 0.45895 0.67719 0.19296 0.0
O170 O 0.40801 0.71056 0.18339 0.0
Mg171 Mg 0.4302 0.74961 0.14148 0.0
C172 C 0.42334 0.68289 0.19604 0.0
C173 C 0.56191 0.66473 0.2333 0.0
O174 O 0.55453 0.69101 0.25546 0.0
O175 O 0.52024 0.69898 0.11835 0.0
O176 O 0.45945 0.7014 0.12104 0.0
O177 O 0.49792 0.73911 0.23358 0.0
O178 O 0.48049 0.75614 0.17737 0.0
C179 C 0.48902 0.70256 0.10149 0.0
C180 C 0.47885 0.76011 0.21274 0.0
O181 O 0.54955 0.66528 0.20015 0.0
Mg182 Mg 0.83483 0.42867 0.66242 0.0
O183 O 0.78266 0.41331 0.69739 0.0
O184 O 0.80152 0.40859 0.75637 0.0
Mg185 Mg 0.86354 0.42271 0.76051 0.0
C186 C 0.77594 0.40669 0.73156 0.0
C187 C 0.81169 0.43364 0.57973 0.0
O188 O 0.84731 0.42436 0.57782 0.0
O189 O 0.83065 0.48498 0.68299 0.0
O190 O 0.84952 0.4779 0.7418 0.0
O191 O 0.85138 0.37257 0.65753 0.0
O192 O 0.8708 0.40713 0.70246 0.0
C193 C 0.83825 0.49717 0.71518 0.0
C194 C 0.8698 0.37647 0.68829 0.0
O195 O 0.79711 0.43869 0.61161 0.0
Mg196 Mg 0.98337 0.73056 0.18672 0.0
O197 O 0.0386 0.76196 0.18947 0.0
O198 O 0.08356 0.72938 0.16337 0.0
Mg199 Mg 0.05884 0.67585 0.14828 0.0
C200 C 0.07266 0.75748 0.17903 0.0
C201 C 0.92817 0.79604 0.1793 0.0
O202 O 0.92186 0.78342 0.14598 0.0
O203 O 0.97904 0.73828 0.12305 0.0
O204 O 0.0216 0.69933 0.10327 0.0
O205 O 0.99767 0.70691 0.2422 0.0
O206 O 0.01313 0.68404 0.18815 0.0
C207 C 0.99523 0.72112 0.09703 0.0
C208 C 0.01525 0.683 0.22368 0.0
O209 O 0.95087 0.78039 0.20087 0.0
Mg210 Mg 0.66385 0.03573 0.65551 0.0
O211 O 0.71396 0.05286 0.69288 0.0
O212 O 0.69061 0.05931 0.75019 0.0
Mg213 Mg 0.62861 0.04491 0.75134 0.0
C214 C 0.718 0.06065 0.72723 0.0
C215 C 0.68768 0.0224 0.57461 0.0
O216 O 0.6508 0.0255 0.57296 0.0
O217 O 0.6675 0.98012 0.67867 0.0
O218 O 0.64482 0.98939 0.7359 0.0
O219 O 0.64675 0.09152 0.64741 0.0
O220 O 0.62535 0.05824 0.69251 0.0
C221 C 0.65811 0.96921 0.71096 0.0
C222 C 0.62656 0.08837 0.67721 0.0
O223 O 0.70353 0.02427 0.60628 0.0
H224 H 0.41051 0.09808 0.28154 0.0
H225 H 0.4035 0.09159 0.1622 0.0
H226 H 0.34156 0.06418 0.16701 0.0
H227 H 0.29855 0.02913 0.20542 0.0
H228 H 0.30617 0.03492 0.32475 0.0
H229 H 0.35729 0.07701 0.31968 0.0
C230 C 0.39485 0.09163 0.25661 0.0
C231 C 0.41195 0.09588 0.22163 0.0
C232 C 0.35931 0.07563 0.25959 0.0
C233 C 0.39112 0.08819 0.18947 0.0
C234 C 0.35573 0.07234 0.19221 0.0
C235 C 0.31018 0.0409 0.2303 0.0
C236 C 0.29951 0.02794 0.26534 0.0
C237 C 0.3407 0.06405 0.22716 0.0
C238 C 0.31415 0.04398 0.29737 0.0
C239 C 0.34398 0.06765 0.2945 0.0
H240 H 0.30425 0.40832 0.7894 0.0
H241 H 0.32274 0.4093 0.67102 0.0
H242 H 0.36996 0.36365 0.67723 0.0
H243 H 0.41739 0.33664 0.71803 0.0
H244 H 0.39986 0.33665 0.83654 0.0
H245 H 0.34063 0.3681 0.82856 0.0
C246 C 0.31742 0.39742 0.76479 0.0
C247 C 0.31089 0.41293 0.72998 0.0
C248 C 0.34554 0.37198 0.76874 0.0
C249 C 0.32751 0.39813 0.69822 0.0
C250 C 0.35502 0.37232 0.70182 0.0
C251 C 0.39987 0.34245 0.74197 0.0
C252 C 0.4134 0.33524 0.77786 0.0
C253 C 0.36615 0.36106 0.7372 0.0
C254 C 0.39022 0.34222 0.80864 0.0
C255 C 0.35645 0.36049 0.80411 0.0
H256 H 0.08376 0.38506 0.18266 0.0
H257 H 0.06144 0.36555 0.29854 0.0
H258 H 0.12445 0.38608 0.3148 0.0
H259 H 0.18363 0.41429 0.29686 0.0
H260 H 0.20515 0.43688 0.18137 0.0
H261 H 0.1449 0.41048 0.16425 0.0
C262 C 0.09305 0.38465 0.21134 0.0
C263 C 0.06801 0.37381 0.23934 0.0
C264 C 0.12898 0.39757 0.22066 0.0
C265 C 0.08019 0.37388 0.27649 0.0
C266 C 0.11617 0.38573 0.28584 0.0
C267 C 0.17536 0.41324 0.26789 0.0
C268 C 0.1987 0.42805 0.24049 0.0
C269 C 0.14044 0.39847 0.25828 0.0
C270 C 0.18746 0.42615 0.20309 0.0
C271 C 0.15304 0.41098 0.19325 0.0
H272 H 0.18981 0.06568 0.81332 0.0
H273 H 0.17736 0.07023 0.69432 0.0
H274 H 0.12678 0.11267 0.701 0.0
H275 H 0.07549 0.13452 0.74097 0.0
H276 H 0.08684 0.12872 0.86 0.0
H277 H 0.14853 0.10121 0.85307 0.0
C278 C 0.17718 0.07719 0.7888 0.0
C279 C 0.18647 0.06398 0.75347 0.0
C280 C 0.14704 0.10057 0.79293 0.0
C281 C 0.1705 0.0796 0.72189 0.0
C282 C 0.14105 0.1035 0.72572 0.0
C283 C 0.09211 0.1283 0.76535 0.0
C284 C 0.0763 0.13273 0.80091 0.0
C285 C 0.12731 0.11202 0.76114 0.0
C286 C 0.09828 0.12526 0.83233 0.0
C287 C 0.13347 0.10927 0.82837 0.0
H288 H 0.60059 0.8182 0.73335 0.0
H289 H 0.63183 0.84196 0.84634 0.0
H290 H 0.66339 0.89503 0.82554 0.0
H291 H 0.6723 0.93896 0.77691 0.0
H292 H 0.64057 0.91582 0.66403 0.0
H293 H 0.61996 0.85763 0.68288 0.0
C294 C 0.6149 0.83471 0.75331 0.0
C295 C 0.61318 0.82667 0.79141 0.0
C296 C 0.63279 0.86524 0.74116 0.0
C297 C 0.63248 0.84779 0.81692 0.0
C298 C 0.6504 0.87819 0.80506 0.0
C299 C 0.66187 0.92075 0.75628 0.0
C300 C 0.65736 0.93168 0.7193 0.0
C301 C 0.64935 0.88781 0.76749 0.0
C302 C 0.64431 0.9079 0.69265 0.0
C303 C 0.6321 0.87482 0.70353 0.0
H304 H 0.58999 0.61075 0.1937 0.0
H305 H 0.57571 0.64812 0.30584 0.0
H306 H 0.59826 0.59259 0.33014 0.0
H307 H 0.61417 0.53087 0.31927 0.0
H308 H 0.62653 0.49393 0.20671 0.0
H309 H 0.61331 0.55191 0.18295 0.0
C310 C 0.59223 0.60691 0.22346 0.0
C311 C 0.58057 0.63324 0.24789 0.0
C312 C 0.6048 0.57488 0.23722 0.0
C313 C 0.58423 0.62811 0.28638 0.0
C314 C 0.59704 0.59632 0.30034 0.0
C315 C 0.61488 0.53579 0.28962 0.0
C316 C 0.62072 0.50811 0.26478 0.0
C317 C 0.60632 0.56913 0.276 0.0
C318 C 0.62152 0.51477 0.22639 0.0
C319 C 0.61388 0.54788 0.21273 0.0
H320 H 0.8834 0.64065 0.77974 0.0
H321 H 0.92072 0.65573 0.66679 0.0
H322 H 0.88797 0.60271 0.6478 0.0
H323 H 0.85815 0.54722 0.66566 0.0
H324 H 0.82372 0.53149 0.77933 0.0
H325 H 0.84492 0.58995 0.79542 0.0
C326 C 0.88387 0.63264 0.75085 0.0
C327 C 0.90516 0.65161 0.72491 0.0
C328 C 0.86548 0.60192 0.74024 0.0
C329 C 0.90488 0.64133 0.68743 0.0
C330 C 0.88623 0.61095 0.67654 0.0
C331 C 0.8541 0.5571 0.6936 0.0
C332 C 0.83989 0.53504 0.72138 0.0
C333 C 0.8677 0.59032 0.703 0.0
C334 C 0.83496 0.548 0.75757 0.0
C335 C 0.84732 0.5813 0.76686 0.0
H336 H 0.86864 0.94899 0.19988 0.0
H337 H 0.88561 0.92362 0.31529 0.0
H338 H 0.90273 0.86399 0.29811 0.0
H339 H 0.91862 0.82091 0.24958 0.0
H340 H 0.89974 0.84652 0.13442 0.0
H341 H 0.87755 0.90425 0.15223 0.0
C342 C 0.87561 0.93026 0.22133 0.0
C343 C 0.87629 0.94076 0.25875 0.0
C344 C 0.88547 0.89622 0.21124 0.0
C345 C 0.88482 0.91614 0.28629 0.0
C346 C 0.8949 0.88214 0.27644 0.0
C347 C 0.90937 0.83907 0.22844 0.0
C348 C 0.91133 0.82962 0.19068 0.0
C349 C 0.89629 0.87218 0.23891 0.0
C350 C 0.89867 0.85317 0.16363 0.0
C351 C 0.88605 0.88623 0.17379 0.0
H352 H 0.52564 0.23107 0.23218 0.0
H353 H 0.58523 0.17144 0.31492 0.0
H354 H 0.60545 0.22484 0.34552 0.0
H355 H 0.60876 0.28863 0.34722 0.0
H356 H 0.54615 0.34816 0.26662 0.0
H357 H 0.52473 0.29484 0.23692 0.0
C358 C 0.54293 0.2298 0.25697 0.0
C359 C 0.55407 0.19735 0.27105 0.0
C360 C 0.55419 0.26063 0.27476 0.0
C361 C 0.57613 0.1961 0.3035 0.0
C362 C 0.58785 0.22663 0.32101 0.0
C363 C 0.59023 0.28993 0.32333 0.0
C364 C 0.58002 0.3224 0.30859 0.0
C365 C 0.57738 0.25907 0.30667 0.0
C366 C 0.5555 0.32358 0.27791 0.0
C367 C 0.54297 0.29305 0.26098 0.0
H368 H 0.16913 0.56958 0.70333 0.0
H369 H 0.19995 0.5416 0.81542 0.0
H370 H 0.15026 0.57841 0.83994 0.0
H371 H 0.10428 0.6252 0.83028 0.0
H372 H 0.06991 0.65149 0.7192 0.0
H373 H 0.11429 0.60873 0.69367 0.0
C374 C 0.16431 0.57077 0.73304 0.0
C375 C 0.18906 0.55341 0.75738 0.0
C376 C 0.13534 0.5922 0.74729 0.0
C377 C 0.182 0.55514 0.79588 0.0
C378 C 0.15356 0.57633 0.81009 0.0
C379 C 0.10599 0.62092 0.80053 0.0
C380 C 0.08429 0.64151 0.7766 0.0
C381 C 0.13114 0.59608 0.78617 0.0
C382 C 0.08638 0.63574 0.73812 0.0
C383 C 0.11191 0.61146 0.72353 0.0
H384 H 0.88011 0.16397 0.33724 0.0
H385 H 0.9274 0.11114 0.24229 0.0
H386 H 0.94793 0.16661 0.21638 0.0
H387 H 0.95136 0.23074 0.22008 0.0
H388 H 0.90627 0.28246 0.31703 0.0
H389 H 0.88657 0.22698 0.34265 0.0
C390 C 0.89492 0.16451 0.31087 0.0
C391 C 0.90143 0.13337 0.29146 0.0
C392 C 0.9073 0.19645 0.29643 0.0
C393 C 0.92121 0.13464 0.25758 0.0
C394 C 0.9332 0.16643 0.24277 0.0
C395 C 0.9374 0.22985 0.24687 0.0
C396 C 0.93029 0.26092 0.26637 0.0
C397 C 0.92616 0.1976 0.26183 0.0
C398 C 0.9123 0.25912 0.30124 0.0
C399 C 0.90083 0.22733 0.316 0.0
H400 H 0.33238 0.91243 0.72139 0.0
H401 H 0.29791 0.93 0.83499 0.0
H402 H 0.34776 0.89204 0.85692 0.0
H403 H 0.39434 0.84658 0.8436 0.0
H404 H 0.43149 0.82981 0.73119 0.0
H405 H 0.38789 0.87482 0.70909 0.0
C406 C 0.33642 0.90874 0.75096 0.0
C407 C 0.31063 0.92345 0.77633 0.0
C408 C 0.36536 0.88655 0.76366 0.0
C409 C 0.31669 0.91854 0.81464 0.0
C410 C 0.34522 0.89669 0.82734 0.0
C411 C 0.39353 0.85353 0.81441 0.0
C412 C 0.41571 0.83496 0.78898 0.0
C413 C 0.3686 0.8794 0.80206 0.0
C414 C 0.4147 0.84404 0.75123 0.0
C415 C 0.38957 0.86956 0.7386 0.0
H416 H 0.5436 0.20123 0.77529 0.0
H417 H 0.58935 0.26867 0.69054 0.0
H418 H 0.61623 0.21881 0.65848 0.0
H419 H 0.62906 0.15618 0.65546 0.0
H420 H 0.58083 0.08836 0.73836 0.0
H421 H 0.55303 0.13806 0.77001 0.0
C422 C 0.55929 0.205 0.74973 0.0
C423 C 0.5645 0.23873 0.73557 0.0
C424 C 0.57464 0.17611 0.73113 0.0
C425 C 0.58472 0.24304 0.70218 0.0
C426 C 0.6003 0.21452 0.68378 0.0
C427 C 0.6124 0.15225 0.68039 0.0
C428 C 0.60795 0.11861 0.69496 0.0
C429 C 0.59579 0.18096 0.69818 0.0
C430 C 0.58574 0.114 0.72701 0.0
C431 C 0.56951 0.14244 0.74507 0.0
H432 H 0.34829 0.68809 0.2105 0.0
H433 H 0.44228 0.61747 0.22102 0.0
H434 H 0.3999 0.57245 0.24502 0.0
H435 H 0.33474 0.55143 0.2577 0.0
H436 H 0.24148 0.62191 0.24333 0.0
H437 H 0.28492 0.66879 0.22678 0.0
C438 C 0.35974 0.66296 0.21821 0.0
C439 C 0.39849 0.65619 0.21345 0.0
C440 C 0.33519 0.63711 0.23151 0.0
C441 C 0.41259 0.62345 0.22408 0.0
C442 C 0.38833 0.59764 0.23783 0.0
C443 C 0.32423 0.57734 0.25187 0.0
C444 C 0.28512 0.5835 0.25212 0.0
C445 C 0.34942 0.60394 0.24104 0.0
C446 C 0.27155 0.61683 0.24363 0.0
C447 C 0.29634 0.64352 0.23392 0.0
H448 H 0.86865 0.3085 0.66762 0.0
H449 H 0.91007 0.37724 0.75314 0.0
H450 H 0.93516 0.32784 0.78739 0.0
H451 H 0.94461 0.26457 0.79373 0.0
H452 H 0.90573 0.19663 0.70612 0.0
H453 H 0.88104 0.2461 0.67216 0.0
C454 C 0.8832 0.31272 0.69372 0.0
C455 C 0.88659 0.34651 0.70812 0.0
C456 C 0.8983 0.28422 0.71299 0.0
C457 C 0.90606 0.35148 0.74176 0.0
C458 C 0.92073 0.3232 0.76133 0.0
C459 C 0.93086 0.26063 0.76717 0.0
C460 C 0.92706 0.22684 0.75271 0.0
C461 C 0.91679 0.28938 0.74736 0.0
C462 C 0.90931 0.22229 0.71804 0.0
C463 C 0.89497 0.2506 0.69851 0.0
H464 H 0.07393 0.80415 0.2364 0.0
H465 H 0.13548 0.77208 0.13876 0.0
H466 H 0.18505 0.81413 0.15275 0.0
H467 H 0.21291 0.85675 0.19436 0.0
H468 H 0.15513 0.88628 0.29513 0.0
H469 H 0.10189 0.84873 0.27809 0.0
C470 C 0.098 0.80673 0.21799 0.0
C471 C 0.101 0.78501 0.18652 0.0
C472 C 0.1271 0.83037 0.22684 0.0
C473 C 0.13257 0.78832 0.1632 0.0
C474 C 0.16092 0.81239 0.17117 0.0
C475 C 0.18854 0.8555 0.21254 0.0
C476 C 0.18814 0.87454 0.24603 0.0
C477 C 0.15876 0.83311 0.20318 0.0
C478 C 0.15629 0.87203 0.2692 0.0
C479 C 0.12588 0.85045 0.2595 0.0
H480 H 0.35844 0.62284 0.66638 0.0
H481 H 0.32622 0.58744 0.77555 0.0
H482 H 0.36866 0.6296 0.8039 0.0
H483 H 0.41888 0.67178 0.79759 0.0
H484 H 0.45312 0.70795 0.68925 0.0
H485 H 0.40611 0.66969 0.66035 0.0
C486 C 0.36024 0.62497 0.69637 0.0
C487 C 0.33972 0.6019 0.71897 0.0
C488 C 0.38539 0.64885 0.71246 0.0
C489 C 0.34233 0.60452 0.7577 0.0
C490 C 0.36653 0.62863 0.77389 0.0
C491 C 0.41568 0.67203 0.76768 0.0
C492 C 0.43934 0.69283 0.74562 0.0
C493 C 0.3889 0.65016 0.75151 0.0
C494 C 0.43526 0.69208 0.70683 0.0
C495 C 0.40836 0.6703 0.69035 0.0
H496 H 0.82674 0.33831 0.17629 0.0
H497 H 0.87926 0.40921 0.25353 0.0
H498 H 0.81879 0.41841 0.28445 0.0
H499 H 0.75047 0.40728 0.28874 0.0
H500 H 0.69791 0.33831 0.20955 0.0
H501 H 0.75888 0.32729 0.18043 0.0
C502 C 0.825 0.35585 0.19983 0.0
C503 C 0.8576 0.3728 0.21272 0.0
C504 C 0.79008 0.36129 0.21727 0.0
C505 C 0.85475 0.39546 0.24327 0.0
C506 C 0.82012 0.40082 0.26095 0.0
C507 C 0.75248 0.38954 0.26539 0.0
C508 C 0.71973 0.37359 0.2514 0.0
C509 C 0.78758 0.38385 0.24822 0.0
C510 C 0.72269 0.35102 0.22079 0.0
C511 C 0.75753 0.34472 0.20406 0.0
H512 H 0.07616 0.80291 0.79942 0.0
H513 H 0.04973 0.77245 0.68706 0.0
H514 H 0.09849 0.8121 0.66364 0.0
H515 H 0.14559 0.85832 0.67553 0.0
H516 H 0.16989 0.88833 0.78844 0.0
H517 H 0.12562 0.84489 0.81146 0.0
C518 C 0.08142 0.80428 0.76982 0.0
C519 C 0.05947 0.78465 0.74502 0.0
C520 C 0.10918 0.82696 0.75675 0.0
C521 C 0.06622 0.78742 0.7067 0.0
C522 C 0.09412 0.80998 0.69334 0.0
C523 C 0.14167 0.85474 0.70517 0.0
C524 C 0.16054 0.87661 0.73035 0.0
C525 C 0.11544 0.83021 0.71816 0.0
C526 C 0.15515 0.87215 0.76862 0.0
C527 C 0.12987 0.84733 0.78176 0.0
H528 H 0.65901 0.11551 0.16579 0.0
H529 H 0.60183 0.05716 0.25129 0.0
H530 H 0.66253 0.0424 0.27943 0.0
H531 H 0.73249 0.04616 0.2795 0.0
H532 H 0.78807 0.10331 0.19182 0.0
H533 H 0.72745 0.11837 0.16502 0.0
C534 C 0.65966 0.09953 0.19059 0.0
C535 C 0.62577 0.08776 0.20653 0.0
C536 C 0.69455 0.09091 0.20634 0.0
C537 C 0.62737 0.06685 0.23853 0.0
C538 C 0.66215 0.05837 0.25465 0.0
C539 C 0.73125 0.06201 0.25463 0.0
C540 C 0.7649 0.07352 0.23776 0.0
C541 C 0.696 0.07034 0.23884 0.0
C542 C 0.76275 0.09384 0.20534 0.0
C543 C 0.72804 0.10257 0.18993 0.0
H544 H 0.43567 0.75403 0.27517 0.0
H545 H 0.46167 0.82211 0.18338 0.0
H546 H 0.41363 0.86303 0.20399 0.0
H547 H 0.36466 0.87916 0.24703 0.0
H548 H 0.33519 0.81174 0.33832 0.0
H549 H 0.38419 0.77046 0.3188 0.0
C550 C 0.43101 0.7781 0.26016 0.0
C551 C 0.45224 0.78544 0.22812 0.0
C552 C 0.40257 0.80119 0.27167 0.0
C553 C 0.44564 0.81618 0.20824 0.0
C554 C 0.41815 0.83946 0.21988 0.0
C555 C 0.36833 0.85525 0.26249 0.0
C556 C 0.346 0.84836 0.29382 0.0
C557 C 0.39631 0.83205 0.25127 0.0
C558 C 0.35186 0.81748 0.31386 0.0
C559 C 0.37998 0.79402 0.30284 0.0
H560 H 0.75543 0.37875 0.79762 0.0
H561 H 0.70999 0.41042 0.69174 0.0
H562 H 0.64685 0.39273 0.71185 0.0
H563 H 0.60496 0.36751 0.75938 0.0
H564 H 0.65171 0.33393 0.86396 0.0
H565 H 0.71405 0.3535 0.84447 0.0
C566 C 0.73177 0.38197 0.77887 0.0
C567 C 0.73751 0.39602 0.74323 0.0
C568 C 0.69577 0.37147 0.79042 0.0
C569 C 0.70645 0.39963 0.7193 0.0
C570 C 0.67031 0.38958 0.73081 0.0
C571 C 0.62862 0.36465 0.778 0.0
C572 C 0.62354 0.34929 0.81312 0.0
C573 C 0.66466 0.3754 0.76632 0.0
C574 C 0.6548 0.34556 0.83673 0.0
C575 C 0.6905 0.35674 0.82562 0.0
H576 H 0.12713 0.59025 0.31691 0.0
H577 H 0.13031 0.53361 0.21333 0.0
H578 H 0.0849 0.57407 0.18651 0.0
H579 H 0.04482 0.62538 0.1923 0.0
H580 H 0.04139 0.68263 0.29536 0.0
H581 H 0.08597 0.64143 0.32296 0.0
C582 C 0.11795 0.58675 0.28843 0.0
C583 C 0.13237 0.55909 0.26703 0.0
C584 C 0.09166 0.61 0.27326 0.0
C585 C 0.11996 0.55482 0.23029 0.0
C586 C 0.09389 0.57787 0.21498 0.0
C587 C 0.05393 0.62903 0.22076 0.0
C588 C 0.04016 0.65725 0.24165 0.0
C589 C 0.07968 0.60556 0.23618 0.0
C590 C 0.05161 0.66113 0.27872 0.0
C591 C 0.0772 0.63768 0.29442 0.0
H592 H 0.88671 0.09753 0.76941 0.0
H593 H 0.83122 0.13097 0.87003 0.0
H594 H 0.77054 0.11308 0.84484 0.0
H595 H 0.73313 0.08893 0.79446 0.0
H596 H 0.78718 0.05682 0.69256 0.0
H597 H 0.84864 0.07361 0.71799 0.0
C598 C 0.86148 0.10077 0.78591 0.0
C599 C 0.8637 0.11558 0.82164 0.0
C600 C 0.82639 0.09091 0.77096 0.0
C601 C 0.83043 0.11974 0.84244 0.0
C602 C 0.79565 0.10953 0.82806 0.0
C603 C 0.75828 0.08546 0.77768 0.0
C604 C 0.75544 0.07147 0.74164 0.0
C605 C 0.7933 0.09527 0.79233 0.0
C606 C 0.78845 0.06756 0.72035 0.0
C607 C 0.82362 0.07706 0.73493 0.0
H608 H 0.50002 0.14388 0.02055 0.0
H609 H 0.50117 0.22722 0.10099 0.0
H610 H 0.49779 0.26996 0.05097 0.0
H611 H 0.49856 0.28378 0.98447 0.0
H612 H 0.49847 0.20061 0.90386 0.0
H613 H 0.49706 0.15773 0.95395 0.0
C614 C 0.49924 0.17138 0.02723 0.0
C615 C 0.50113 0.18226 0.06458 0.0
C616 C 0.49762 0.19588 0.99827 0.0
C617 C 0.49989 0.21804 0.07258 0.0
C618 C 0.49802 0.24254 0.04395 0.0
C619 C 0.49792 0.25628 0.97776 0.0
C620 C 0.49889 0.24549 0.94035 0.0
C621 C 0.4975 0.23177 0.0067 0.0
C622 C 0.49783 0.20971 0.93232 0.0
C623 C 0.49714 0.18515 0.96099 0.0
H624 H 0.28182 0.49624 0.42322 0.0
H625 H 0.16506 0.47214 0.44571 0.0
H626 H 0.17662 0.47617 0.51224 0.0
H627 H 0.2194 0.48859 0.56441 0.0
H628 H 0.33627 0.5121 0.5416 0.0
H629 H 0.32507 0.50619 0.47529 0.0
C630 C 0.25897 0.49166 0.44267 0.0
C631 C 0.22265 0.48407 0.42938 0.0
C632 C 0.26573 0.49406 0.48104 0.0
C633 C 0.19336 0.47811 0.45506 0.0
C634 C 0.19988 0.48047 0.49322 0.0
C635 C 0.2424 0.4923 0.54493 0.0
C636 C 0.27852 0.50095 0.55808 0.0
C637 C 0.23586 0.48878 0.50657 0.0
C638 C 0.30809 0.50549 0.53238 0.0
C639 C 0.30177 0.50214 0.49432 0.0
H640 H 0.99273 0.25331 0.08969 0.0
H641 H 0.97401 0.34641 0.0254 0.0
H642 H 0.97662 0.31275 0.96813 0.0
H643 H 0.98014 0.25624 0.93607 0.0
H644 H 0.99862 0.16312 0.0004 0.0
H645 H 0.0004 0.19732 0.05732 0.0
C646 C 0.98962 0.2663 0.06315 0.0
C647 C 0.9829 0.30236 0.06207 0.0
C648 C 0.99088 0.2467 0.03007 0.0
C649 C 0.979 0.31868 0.02728 0.0
C650 C 0.98044 0.29943 0.99437 0.0
C651 C 0.98493 0.24347 0.96248 0.0
C652 C 0.98894 0.20707 0.96378 0.0
C653 C 0.98572 0.26332 0.9954 0.0
C654 C 0.99522 0.19105 0.99839 0.0
C655 C 0.99621 0.2106 0.03111 0.0
H656 H 0.30509 0.97194 0.46097 0.0
H657 H 0.19139 0.94982 0.42506 0.0
H658 H 0.16864 0.95754 0.48863 0.0
H659 H 0.18162 0.96694 0.55463 0.0
H660 H 0.29563 0.98672 0.59108 0.0
H661 H 0.31768 0.98381 0.52675 0.0
C662 C 0.27525 0.96906 0.46692 0.0
C663 C 0.24999 0.96012 0.43827 0.0
C664 C 0.26249 0.97301 0.50359 0.0
C665 C 0.21145 0.95655 0.44656 0.0
C666 C 0.19844 0.96093 0.48292 0.0
C667 C 0.21129 0.97094 0.54858 0.0
C668 C 0.23699 0.97688 0.57771 0.0
C669 C 0.2238 0.96862 0.51169 0.0
C670 C 0.27528 0.98203 0.56924 0.0
C671 C 0.28789 0.98028 0.53247 0.0
H672 H 0.44579 0.7634 0.94553 0.0
H673 H 0.56298 0.74325 0.9223 0.0
H674 H 0.57318 0.72734 0.98767 0.0
H675 H 0.54598 0.71172 0.04965 0.0
H676 H 0.42679 0.72836 0.06817 0.0
H677 H 0.42022 0.75235 0.00653 0.0
C678 C 0.47382 0.7562 0.95489 0.0
C679 C 0.50347 0.75423 0.92911 0.0
C680 C 0.47889 0.74553 0.99164 0.0
C681 C 0.53969 0.74522 0.94169 0.0
C682 C 0.54535 0.73558 0.97894 0.0
C683 C 0.51869 0.72078 0.04017 0.0
C684 C 0.48692 0.71781 0.06364 0.0
C685 C 0.51474 0.73431 0.00388 0.0
C686 C 0.45177 0.72988 0.05089 0.0
C687 C 0.44788 0.74385 0.01555 0.0
H688 H 0.73662 0.449 0.57327 0.0
H689 H 0.83519 0.42318 0.5084 0.0
H690 H 0.79745 0.4231 0.45187 0.0
H691 H 0.73578 0.42742 0.42091 0.0
H692 H 0.63712 0.45265 0.48589 0.0
H693 H 0.67553 0.45612 0.54186 0.0
C694 C 0.74992 0.44359 0.54675 0.0
C695 C 0.78872 0.43591 0.54528 0.0
C696 C 0.72797 0.44338 0.51417 0.0
C697 C 0.80539 0.42904 0.51055 0.0
C698 C 0.7838 0.42897 0.47808 0.0
C699 C 0.72272 0.43401 0.44723 0.0
C700 C 0.68351 0.43957 0.44906 0.0
C701 C 0.74497 0.43567 0.47958 0.0
C702 C 0.66716 0.44807 0.48353 0.0
C703 C 0.68912 0.45002 0.51569 0.0
H704 H 0.98485 0.6707 0.04625 0.0
H705 H 0.98116 0.782 0.06036 0.0
H706 H 0.97584 0.78949 0.99288 0.0
H707 H 0.98215 0.76429 0.93005 0.0
H708 H 0.985 0.65303 0.91614 0.0
H709 H 0.98005 0.64529 0.98362 0.0
C710 C 0.98209 0.69656 0.0345 0.0
C711 C 0.98397 0.72585 0.05794 0.0
C712 C 0.97906 0.70052 0.9959 0.0
C713 C 0.97984 0.75918 0.04273 0.0
C714 C 0.97704 0.76341 0.00421 0.0
C715 C 0.98047 0.73838 0.94188 0.0
C716 C 0.98389 0.70919 0.91853 0.0
C717 C 0.978 0.7343 0.98054 0.0
C718 C 0.98197 0.67572 0.93375 0.0
C719 C 0.97955 0.67138 0.97227 0.0
H720 H 0.76447 0.01952 0.56661 0.0
H721 H 0.66089 0.01835 0.50376 0.0
H722 H 0.69655 0.0172 0.44588 0.0
H723 H 0.75725 0.01956 0.41262 0.0
H724 H 0.8608 0.02123 0.47551 0.0
H725 H 0.82517 0.0189 0.53336 0.0
C726 C 0.74969 0.01875 0.54028 0.0
C727 C 0.70999 0.01923 0.53973 0.0
C728 C 0.77041 0.01828 0.50686 0.0
C729 C 0.6914 0.01816 0.50521 0.0
C730 C 0.71179 0.01752 0.47196 0.0
C731 C 0.77204 0.01908 0.43896 0.0
C732 C 0.8117 0.02076 0.43953 0.0
C733 C 0.75132 0.01802 0.47238 0.0
C734 C 0.83031 0.02012 0.47405 0.0
C735 C 0.80994 0.01884 0.50729 0.0
loop_
_geom_bond_atom_site_label_1
_geom_bond_atom_site_label_2
_geom_bond_distance
_geom_bond_site_symmetry_2
_ccdc_geom_bond_type
Mg0 O1 2.028 . S
Mg0 O7 1.986 . S
Mg0 O9 2.114 . S
Mg0 O10 2.251 . S
Mg0 O13 2.010 . S
O1 Mg0 2.028 . S
O1 C4 1.250 . S
O2 Mg3 2.028 . S
O2 C4 1.248 . S
Mg3 O2 2.028 . S
Mg3 O8 2.032 . S
Mg3 O10 2.079 . S
C4 O1 1.250 . S
C4 O2 1.248 . S
C5 O6 1.264 . S
C5 O13 1.249 . S
O6 C5 1.264 . S
O7 Mg0 1.986 . S
O7 C11 1.246 . S
O8 Mg3 2.032 . S
O8 C11 1.259 . S
O9 Mg0 2.114 . S
O9 C12 1.252 . S
O10 Mg0 2.251 . S
O10 Mg3 2.079 . S
O10 C12 1.273 . S
C11 O7 1.246 . S
C11 O8 1.259 . S
C12 O9 1.252 . S
C12 O10 1.273 . S
O13 Mg0 2.010 . S
O13 C5 1.249 . S
Mg14 O15 2.028 . S
Mg14 O21 1.986 . S
Mg14 O23 2.114 . S
Mg14 O24 2.251 . S
Mg14 O27 2.010 . S
O15 Mg14 2.028 . S
O15 C18 1.250 . S
O16 Mg17 2.028 . S
O16 C18 1.248 . S
Mg17 O16 2.028 . S
Mg17 O22 2.032 . S
Mg17 O24 2.079 . S
C18 O15 1.250 . S
C18 O16 1.248 . S
C19 O20 1.264 . S
C19 O27 1.249 . S
O20 C19 1.264 . S
O21 Mg14 1.986 . S
O21 C25 1.246 . S
O22 Mg17 2.032 . S
O22 C25 1.259 . S
O23 Mg14 2.114 . S
O23 C26 1.252 . S
O24 Mg14 2.251 . S
O24 Mg17 2.079 . S
O24 C26 1.273 . S
C25 O21 1.246 . S
C25 O22 1.259 . S
C26 O23 1.252 . S
C26 O24 1.273 . S
O27 Mg14 2.010 . S
O27 C19 1.249 . S
Mg28 O29 2.028 . S
Mg28 O35 1.986 1_655 S
Mg28 O37 2.114 . S
Mg28 O38 2.251 . S
Mg28 O41 2.010 . S
O29 Mg28 2.028 . S
O29 C32 1.250 . S
O30 Mg31 2.028 . S
O30 C32 1.248 . S
Mg31 O30 2.028 . S
Mg31 O36 2.032 1_655 S
Mg31 O38 2.079 . S
C32 O29 1.250 . S
C32 O30 1.248 . S
C33 O34 1.264 . S
C33 O41 1.249 . S
O34 C33 1.264 . S
O35 Mg28 1.986 1_455 S
O35 C39 1.246 . S
O36 Mg31 2.032 1_455 S
O36 C39 1.259 . S
O37 Mg28 2.114 . S
O37 C40 1.252 . S
O38 Mg28 2.251 . S
O38 Mg31 2.079 . S
O38 C40 1.273 . S
C39 O35 1.246 . S
C39 O36 1.259 . S
C40 O37 1.252 . S
C40 O38 1.273 . S
O41 Mg28 2.010 . S
O41 C33 1.249 . S
Mg42 O43 2.028 . S
Mg42 O49 1.986 . S
Mg42 O51 2.114 . S
Mg42 O52 2.251 . S
Mg42 O55 2.010 . S
O43 Mg42 2.028 . S
O43 C46 1.250 . S
O44 Mg45 2.028 . S
O44 C46 1.248 . S
Mg45 O44 2.028 . S
Mg45 O50 2.032 . S
Mg45 O52 2.079 . S
C46 O43 1.250 . S
C46 O44 1.248 . S
C47 O48 1.264 . S
C47 O55 1.249 . S
O48 C47 1.264 . S
O49 Mg42 1.986 . S
O49 C53 1.246 1_565 S
O50 Mg45 2.032 . S
O50 C53 1.259 1_565 S
O51 Mg42 2.114 . S
O51 C54 1.252 . S
O52 Mg42 2.251 . S
O52 Mg45 2.079 . S
O52 C54 1.273 . S
C53 O49 1.246 1_545 S
C53 O50 1.259 1_545 S
C54 O51 1.252 . S
C54 O52 1.273 . S
O55 Mg42 2.010 . S
O55 C47 1.249 . S
Mg56 O57 2.028 . S
Mg56 O63 1.986 . S
Mg56 O65 2.114 . S
Mg56 O66 2.251 . S
Mg56 O69 2.010 . S
O57 Mg56 2.028 . S
O57 C60 1.250 . S
O58 Mg59 2.028 . S
O58 C60 1.248 . S
Mg59 O58 2.028 . S
Mg59 O64 2.032 . S
Mg59 O66 2.079 . S
C60 O57 1.250 . S
C60 O58 1.248 . S
C61 O62 1.264 . S
C61 O69 1.249 . S
O62 C61 1.264 . S
O63 Mg56 1.986 . S
O63 C67 1.246 . S
O64 Mg59 2.032 . S
O64 C67 1.259 . S
O65 Mg56 2.114 . S
O65 C68 1.252 . S
O66 Mg56 2.251 . S
O66 Mg59 2.079 . S
O66 C68 1.273 . S
C67 O63 1.246 . S
C67 O64 1.259 . S
C68 O65 1.252 . S
C68 O66 1.273 . S
O69 Mg56 2.010 . S
O69 C61 1.249 . S
Mg70 O71 2.028 . S
Mg70 O77 1.986 . S
Mg70 O79 2.114 . S
Mg70 O80 2.251 . S
Mg70 O83 2.010 . S
O71 Mg70 2.028 . S
O71 C74 1.250 . S
O72 Mg73 2.028 . S
O72 C74 1.248 . S
Mg73 O72 2.028 . S
Mg73 O78 2.032 . S
Mg73 O80 2.079 . S
C74 O71 1.250 . S
C74 O72 1.248 . S
C75 O76 1.264 . S
C75 O83 1.249 . S
O76 C75 1.264 . S
O77 Mg70 1.986 . S
O77 C81 1.246 . S
O78 Mg73 2.032 . S
O78 C81 1.259 . S
O79 Mg70 2.114 . S
O79 C82 1.252 . S
O80 Mg70 2.251 . S
O80 Mg73 2.079 . S
O80 C82 1.273 . S
C81 O77 1.246 . S
C81 O78 1.259 . S
C82 O79 1.252 . S
C82 O80 1.273 . S
O83 Mg70 2.010 . S
O83 C75 1.249 . S
Mg84 O85 2.028 . S
Mg84 O91 1.986 1_655 S
Mg84 O93 2.114 . S
Mg84 O94 2.251 . S
Mg84 O97 2.010 . S
O85 Mg84 2.028 . S
O85 C88 1.250 . S
O86 Mg87 2.028 . S
O86 C88 1.248 . S
Mg87 O86 2.028 . S
Mg87 O92 2.032 1_655 S
Mg87 O94 2.079 . S
C88 O85 1.250 . S
C88 O86 1.248 . S
C89 O90 1.264 . S
C89 O97 1.249 . S
O90 C89 1.264 . S
O91 Mg84 1.986 1_455 S
O91 C95 1.246 . S
O92 Mg87 2.032 1_455 S
O92 C95 1.259 . S
O93 Mg84 2.114 . S
O93 C96 1.252 . S
O94 Mg84 2.251 . S
O94 Mg87 2.079 . S
O94 C96 1.273 . S
C95 O91 1.246 . S
C95 O92 1.259 . S
C96 O93 1.252 . S
C96 O94 1.273 . S
O97 Mg84 2.010 . S
O97 C89 1.249 . S
Mg98 O99 2.028 . S
Mg98 O105 1.986 . S
Mg98 O107 2.114 . S
Mg98 O108 2.251 . S
Mg98 O111 2.010 . S
O99 Mg98 2.028 . S
O99 C102 1.250 . S
O100 Mg101 2.028 . S
O100 C102 1.248 . S
Mg101 O100 2.028 . S
Mg101 O106 2.032 . S
Mg101 O108 2.079 . S
C102 O99 1.250 . S
C102 O100 1.248 . S
C103 O104 1.264 . S
C103 O111 1.249 . S
O104 C103 1.264 . S
O105 Mg98 1.986 . S
O105 C109 1.246 1_565 S
O106 Mg101 2.032 . S
O106 C109 1.259 1_565 S
O107 Mg98 2.114 . S
O107 C110 1.252 . S
O108 Mg98 2.251 . S
O108 Mg101 2.079 . S
O108 C110 1.273 . S
C109 O105 1.246 1_545 S
C109 O106 1.259 1_545 S
C110 O107 1.252 . S
C110 O108 1.273 . S
O111 Mg98 2.010 . S
O111 C103 1.249 . S
Mg112 O113 2.028 . S
Mg112 O119 1.986 . S
Mg112 O121 2.114 . S
Mg112 O122 2.251 . S
Mg112 O125 2.010 . S
O113 Mg112 2.028 . S
O113 C116 1.250 . S
O114 Mg115 2.028 . S
O114 C116 1.248 . S
Mg115 O114 2.028 . S
Mg115 O120 2.032 . S
Mg115 O122 2.079 . S
C116 O113 1.250 . S
C116 O114 1.248 . S
C117 O118 1.264 . S
C117 O125 1.249 . S
O118 C117 1.264 . S
O119 Mg112 1.986 . S
O119 C123 1.246 . S
O120 Mg115 2.032 . S
O120 C123 1.259 . S
O121 Mg112 2.114 . S
O121 C124 1.252 . S
O122 Mg112 2.251 . S
O122 Mg115 2.079 . S
O122 C124 1.273 . S
C123 O119 1.246 . S
C123 O120 1.259 . S
C124 O121 1.252 . S
C124 O122 1.273 . S
O125 Mg112 2.010 . S
O125 C117 1.249 . S
Mg126 O127 2.028 . S
Mg126 O133 1.986 . S
Mg126 O135 2.114 . S
Mg126 O136 2.251 . S
Mg126 O139 2.010 . S
O127 Mg126 2.028 . S
O127 C130 1.250 . S
O128 Mg129 2.028 . S
O128 C130 1.248 . S
Mg129 O128 2.028 . S
Mg129 O134 2.032 . S
Mg129 O136 2.079 . S
C130 O127 1.250 . S
C130 O128 1.248 . S
C131 O132 1.264 . S
C131 O139 1.249 . S
O132 C131 1.264 . S
O133 Mg126 1.986 . S
O133 C137 1.246 . S
O134 Mg129 2.032 . S
O134 C137 1.259 . S
O135 Mg126 2.114 . S
O135 C138 1.252 . S
O136 Mg126 2.251 . S
O136 Mg129 2.079 . S
O136 C138 1.273 . S
C137 O133 1.246 . S
C137 O134 1.259 . S
C138 O135 1.252 . S
C138 O136 1.273 . S
O139 Mg126 2.010 . S
O139 C131 1.249 . S
Mg140 O141 2.028 . S
Mg140 O147 1.986 . S
Mg140 O149 2.114 . S
Mg140 O150 2.251 . S
Mg140 O153 2.010 1_455 S
O141 Mg140 2.028 . S
O141 C144 1.250 . S
O142 Mg143 2.028 . S
O142 C144 1.248 . S
Mg143 O142 2.028 . S
Mg143 O148 2.032 . S
Mg143 O150 2.079 . S
C144 O141 1.250 . S
C144 O142 1.248 . S
C145 O146 1.264 . S
C145 O153 1.249 . S
O146 C145 1.264 . S
O147 Mg140 1.986 . S
O147 C151 1.246 . S
O148 Mg143 2.032 . S
O148 C151 1.259 . S
O149 Mg140 2.114 . S
O149 C152 1.252 . S
O150 Mg140 2.251 . S
O150 Mg143 2.079 . S
O150 C152 1.273 . S
C151 O147 1.246 . S
C151 O148 1.259 . S
C152 O149 1.252 . S
C152 O150 1.273 . S
O153 Mg140 2.010 1_655 S
O153 C145 1.249 . S
Mg154 O155 2.028 . S
Mg154 O161 1.986 1_545 S
Mg154 O163 2.114 . S
Mg154 O164 2.251 . S
Mg154 O167 2.010 . S
O155 Mg154 2.028 . S
O155 C158 1.250 . S
O156 Mg157 2.028 . S
O156 C158 1.248 . S
Mg157 O156 2.028 . S
Mg157 O162 2.032 1_545 S
Mg157 O164 2.079 . S
C158 O155 1.250 . S
C158 O156 1.248 . S
C159 O160 1.264 . S
C159 O167 1.249 . S
O160 C159 1.264 . S
O161 Mg154 1.986 1_565 S
O161 C165 1.246 . S
O162 Mg157 2.032 1_565 S
O162 C165 1.259 . S
O163 Mg154 2.114 . S
O163 C166 1.252 . S
O164 Mg154 2.251 . S
O164 Mg157 2.079 . S
O164 C166 1.273 . S
C165 O161 1.246 . S
C165 O162 1.259 . S
C166 O163 1.252 . S
C166 O164 1.273 . S
O167 Mg154 2.010 . S
O167 C159 1.249 . S
Mg168 O169 2.028 . S
Mg168 O175 1.986 . S
Mg168 O177 2.114 . S
Mg168 O178 2.251 . S
Mg168 O181 2.010 . S
O169 Mg168 2.028 . S
O169 C172 1.250 . S
O170 Mg171 2.028 . S
O170 C172 1.248 . S
Mg171 O170 2.028 . S
Mg171 O176 2.032 . S
Mg171 O178 2.079 . S
C172 O169 1.250 . S
C172 O170 1.248 . S
C173 O174 1.264 . S
C173 O181 1.249 . S
O174 C173 1.264 . S
O175 Mg168 1.986 . S
O175 C179 1.246 . S
O176 Mg171 2.032 . S
O176 C179 1.259 . S
O177 Mg168 2.114 . S
O177 C180 1.252 . S
O178 Mg168 2.251 . S
O178 Mg171 2.079 . S
O178 C180 1.273 . S
C179 O175 1.246 . S
C179 O176 1.259 . S
C180 O177 1.252 . S
C180 O178 1.273 . S
O181 Mg168 2.010 . S
O181 C173 1.249 . S
Mg182 O183 2.028 . S
Mg182 O189 1.986 . S
Mg182 O191 2.114 . S
Mg182 O192 2.251 . S
Mg182 O195 2.010 . S
O183 Mg182 2.028 . S
O183 C186 1.250 . S
O184 Mg185 2.028 . S
O184 C186 1.248 . S
Mg185 O184 2.028 . S
Mg185 O190 2.032 . S
Mg185 O192 2.079 . S
C186 O183 1.250 . S
C186 O184 1.248 . S
C187 O188 1.264 . S
C187 O195 1.249 . S
O188 C187 1.264 . S
O189 Mg182 1.986 . S
O189 C193 1.246 . S
O190 Mg185 2.032 . S
O190 C193 1.259 . S
O191 Mg182 2.114 . S
O191 C194 1.252 . S
O192 Mg182 2.251 . S
O192 Mg185 2.079 . S
O192 C194 1.273 . S
C193 O189 1.246 . S
C193 O190 1.259 . S
C194 O191 1.252 . S
C194 O192 1.273 . S
O195 Mg182 2.010 . S
O195 C187 1.249 . S
Mg196 O197 2.028 . S
Mg196 O203 1.986 . S
Mg196 O205 2.114 . S
Mg196 O206 2.251 . S
Mg196 O209 2.010 1_455 S
O197 Mg196 2.028 . S
O197 C200 1.250 . S
O198 Mg199 2.028 . S
O198 C200 1.248 . S
Mg199 O198 2.028 . S
Mg199 O204 2.032 . S
Mg199 O206 2.079 . S
C200 O197 1.250 . S
C200 O198 1.248 . S
C201 O202 1.264 . S
C201 O209 1.249 . S
O202 C201 1.264 . S
O203 Mg196 1.986 . S
O203 C207 1.246 . S
O204 Mg199 2.032 . S
O204 C207 1.259 . S
O205 Mg196 2.114 . S
O205 C208 1.252 . S
O206 Mg196 2.251 . S
O206 Mg199 2.079 . S
O206 C208 1.273 . S
C207 O203 1.246 . S
C207 O204 1.259 . S
C208 O205 1.252 . S
C208 O206 1.273 . S
O209 Mg196 2.010 1_655 S
O209 C201 1.249 . S
Mg210 O211 2.028 . S
Mg210 O217 1.986 1_545 S
Mg210 O219 2.114 . S
Mg210 O220 2.251 . S
Mg210 O223 2.010 . S
O211 Mg210 2.028 . S
O211 C214 1.250 . S
O212 Mg213 2.028 . S
O212 C214 1.248 . S
Mg213 O212 2.028 . S
Mg213 O218 2.032 1_545 S
Mg213 O220 2.079 . S
C214 O211 1.250 . S
C214 O212 1.248 . S
C215 O216 1.264 . S
C215 O223 1.249 . S
O216 C215 1.264 . S
O217 Mg210 1.986 1_565 S
O217 C221 1.246 . S
O218 Mg213 2.032 1_565 S
O218 C221 1.259 . S
O219 Mg210 2.114 . S
O219 C222 1.252 . S
O220 Mg210 2.251 . S
O220 Mg213 2.079 . S
O220 C222 1.273 . S
C221 O217 1.246 . S
C221 O218 1.259 . S
C222 O219 1.252 . S
C222 O220 1.273 . S
O223 Mg210 2.010 . S
O223 C215 1.249 . S
H224 C230 0.930 . S
H225 C233 0.930 . S
H226 C234 0.930 . S
H227 C235 0.930 . S
H228 C238 0.930 . S
H229 C239 0.930 . S
C230 H224 0.930 . S
C230 C231 1.355 . S
C230 C232 1.415 . S
C231 C230 1.355 . S
C231 C233 1.419 . S
C232 C230 1.415 . S
C232 C237 1.425 . S
C232 C239 1.409 . S
C233 H225 0.930 . S
C233 C231 1.419 . S
C233 C234 1.362 . S
C234 H226 0.930 . S
C234 C233 1.362 . S
C234 C237 1.409 . S
C235 H227 0.930 . S
C235 C236 1.355 . S
C235 C237 1.415 . S
C236 C235 1.355 . S
C236 C238 1.419 . S
C237 C232 1.425 . S
C237 C234 1.409 . S
C237 C235 1.415 . S
C238 H228 0.930 . S
C238 C236 1.419 . S
C238 C239 1.362 . S
C239 H229 0.930 . S
C239 C232 1.409 . S
C239 C238 1.362 . S
H240 C246 0.930 . S
H241 C249 0.930 . S
H242 C250 0.930 . S
H243 C251 0.930 . S
H244 C254 0.930 . S
H245 C255 0.930 . S
C246 H240 0.930 . S
C246 C247 1.355 . S
C246 C248 1.415 . S
C247 C246 1.355 . S
C247 C249 1.419 . S
C248 C246 1.415 . S
C248 C253 1.425 . S
C248 C255 1.409 . S
C249 H241 0.930 . S
C249 C247 1.419 . S
C249 C250 1.362 . S
C250 H242 0.930 . S
C250 C249 1.362 . S
C250 C253 1.409 . S
C251 H243 0.930 . S
C251 C252 1.355 . S
C251 C253 1.415 . S
C252 C251 1.355 . S
C252 C254 1.419 . S
C253 C248 1.425 . S
C253 C250 1.409 . S
C253 C251 1.415 . S
C254 H244 0.930 . S
C254 C252 1.419 . S
C254 C255 1.362 . S
C255 H245 0.930 . S
C255 C248 1.409 . S
C255 C254 1.362 . S
H256 C262 0.930 . S
H257 C265 0.930 . S
H258 C266 0.930 . S
H259 C267 0.930 . S
H260 C270 0.930 . S
H261 C271 0.930 . S
C262 H256 0.930 . S
C262 C263 1.355 . S
C262 C264 1.415 . S
C263 C262 1.355 . S
C263 C265 1.419 . S
C264 C262 1.415 . S
C264 C269 1.425 . S
C264 C271 1.409 . S
C265 H257 0.930 . S
C265 C263 1.419 . S
C265 C266 1.362 . S
C266 H258 0.930 . S
C266 C265 1.362 . S
C266 C269 1.409 . S
C267 H259 0.930 . S
C267 C268 1.355 . S
C267 C269 1.415 . S
C268 C267 1.355 . S
C268 C270 1.419 . S
C269 C264 1.425 . S
C269 C266 1.409 . S
C269 C267 1.415 . S
C270 H260 0.930 . S
C270 C268 1.419 . S
C270 C271 1.362 . S
C271 H261 0.930 . S
C271 C264 1.409 . S
C271 C270 1.362 . S
H272 C278 0.930 . S
H273 C281 0.930 . S
H274 C282 0.930 . S
H275 C283 0.930 . S
H276 C286 0.930 . S
H277 C287 0.930 . S
C278 H272 0.930 . S
C278 C279 1.355 . S
C278 C280 1.415 . S
C279 C278 1.355 . S
C279 C281 1.419 . S
C280 C278 1.415 . S
C280 C285 1.425 . S
C280 C287 1.409 . S
C281 H273 0.930 . S
C281 C279 1.419 . S
C281 C282 1.362 . S
C282 H274 0.930 . S
C282 C281 1.362 . S
C282 C285 1.409 . S
C283 H275 0.930 . S
C283 C284 1.355 . S
C283 C285 1.415 . S
C284 C283 1.355 . S
C284 C286 1.419 . S
C285 C280 1.425 . S
C285 C282 1.409 . S
C285 C283 1.415 . S
C286 H276 0.930 . S
C286 C284 1.419 . S
C286 C287 1.362 . S
C287 H277 0.930 . S
C287 C280 1.409 . S
C287 C286 1.362 . S
H288 C294 0.930 . S
H289 C297 0.930 . S
H290 C298 0.930 . S
H291 C299 0.930 . S
H292 C302 0.930 . S
H293 C303 0.930 . S
C294 H288 0.930 . S
C294 C295 1.355 . S
C294 C296 1.415 . S
C295 C294 1.355 . S
C295 C297 1.419 . S
C296 C294 1.415 . S
C296 C301 1.425 . S
C296 C303 1.409 . S
C297 H289 0.930 . S
C297 C295 1.419 . S
C297 C298 1.362 . S
C298 H290 0.930 . S
C298 C297 1.362 . S
C298 C301 1.409 . S
C299 H291 0.930 . S
C299 C300 1.355 . S
C299 C301 1.415 . S
C300 C299 1.355 . S
C300 C302 1.419 . S
C301 C296 1.425 . S
C301 C298 1.409 . S
C301 C299 1.415 . S
C302 H292 0.930 . S
C302 C300 1.419 . S
C302 C303 1.362 . S
C303 H293 0.930 . S
C303 C296 1.409 . S
C303 C302 1.362 . S
H304 C310 0.930 . S
H305 C313 0.930 . S
H306 C314 0.930 . S
H307 C315 0.930 . S
H308 C318 0.930 . S
H309 C319 0.930 . S
C310 H304 0.930 . S
C310 C311 1.355 . S
C310 C312 1.415 . S
C311 C310 1.355 . S
C311 C313 1.419 . S
C312 C310 1.415 . S
C312 C317 1.425 . S
C312 C319 1.409 . S
C313 H305 0.930 . S
C313 C311 1.419 . S
C313 C314 1.362 . S
C314 H306 0.930 . S
C314 C313 1.362 . S
C314 C317 1.409 . S
C315 H307 0.930 . S
C315 C316 1.355 . S
C315 C317 1.415 . S
C316 C315 1.355 . S
C316 C318 1.419 . S
C317 C312 1.425 . S
C317 C314 1.409 . S
C317 C315 1.415 . S
C318 H308 0.930 . S
C318 C316 1.419 . S
C318 C319 1.362 . S
C319 H309 0.930 . S
C319 C312 1.409 . S
C319 C318 1.362 . S
H320 C326 0.930 . S
H321 C329 0.930 . S
H322 C330 0.930 . S
H323 C331 0.930 . S
H324 C334 0.930 . S
H325 C335 0.930 . S
C326 H320 0.930 . S
C326 C327 1.355 . S
C326 C328 1.415 . S
C327 C326 1.355 . S
C327 C329 1.419 . S
C328 C326 1.415 . S
C328 C333 1.425 . S
C328 C335 1.409 . S
C329 H321 0.930 . S
C329 C327 1.419 . S
C329 C330 1.362 . S
C330 H322 0.930 . S
C330 C329 1.362 . S
C330 C333 1.409 . S
C331 H323 0.930 . S
C331 C332 1.355 . S
C331 C333 1.415 . S
C332 C331 1.355 . S
C332 C334 1.419 . S
C333 C328 1.425 . S
C333 C330 1.409 . S
C333 C331 1.415 . S
C334 H324 0.930 . S
C334 C332 1.419 . S
C334 C335 1.362 . S
C335 H325 0.930 . S
C335 C328 1.409 . S
C335 C334 1.362 . S
H336 C342 0.930 . S
H337 C345 0.930 . S
H338 C346 0.930 . S
H339 C347 0.930 . S
H340 C350 0.930 . S
H341 C351 0.930 . S
C342 H336 0.930 . S
C342 C343 1.355 . S
C342 C344 1.415 . S
C343 C342 1.355 . S
C343 C345 1.419 . S
C344 C342 1.415 . S
C344 C349 1.425 . S
C344 C351 1.409 . S
C345 H337 0.930 . S
C345 C343 1.419 . S
C345 C346 1.362 . S
C346 H338 0.930 . S
C346 C345 1.362 . S
C346 C349 1.409 . S
C347 H339 0.930 . S
C347 C348 1.355 . S
C347 C349 1.415 . S
C348 C347 1.355 . S
C348 C350 1.419 . S
C349 C344 1.425 . S
C349 C346 1.409 . S
C349 C347 1.415 . S
C350 H340 0.930 . S
C350 C348 1.419 . S
C350 C351 1.362 . S
C351 H341 0.930 . S
C351 C344 1.409 . S
C351 C350 1.362 . S
H352 C358 0.930 . S
H353 C361 0.930 . S
H354 C362 0.930 . S
H355 C363 0.930 . S
H356 C366 0.930 . S
H357 C367 0.930 . S
C358 H352 0.930 . S
C358 C359 1.355 . S
C358 C360 1.415 . S
C359 C358 1.355 . S
C359 C361 1.419 . S
C360 C358 1.415 . S
C360 C365 1.425 . S
C360 C367 1.409 . S
C361 H353 0.930 . S
C361 C359 1.419 . S
C361 C362 1.362 . S
C362 H354 0.930 . S
C362 C361 1.362 . S
C362 C365 1.409 . S
C363 H355 0.930 . S
C363 C364 1.355 . S
C363 C365 1.415 . S
C364 C363 1.355 . S
C364 C366 1.419 . S
C365 C360 1.425 . S
C365 C362 1.409 . S
C365 C363 1.415 . S
C366 H356 0.930 . S
C366 C364 1.419 . S
C366 C367 1.362 . S
C367 H357 0.930 . S
C367 C360 1.409 . S
C367 C366 1.362 . S
H368 C374 0.930 . S
H369 C377 0.930 . S
H370 C378 0.930 . S
H371 C379 0.930 . S
H372 C382 0.930 . S
H373 C383 0.930 . S
C374 H368 0.930 . S
C374 C375 1.355 . S
C374 C376 1.415 . S
C375 C374 1.355 . S
C375 C377 1.419 . S
C376 C374 1.415 . S
C376 C381 1.425 . S
C376 C383 1.409 . S
C377 H369 0.930 . S
C377 C375 1.419 . S
C377 C378 1.362 . S
C378 H370 0.930 . S
C378 C377 1.362 . S
C378 C381 1.409 . S
C379 H371 0.930 . S
C379 C380 1.355 . S
C379 C381 1.415 . S
C380 C379 1.355 . S
C380 C382 1.419 . S
C381 C376 1.425 . S
C381 C378 1.409 . S
C381 C379 1.415 . S
C382 H372 0.930 . S
C382 C380 1.419 . S
C382 C383 1.362 . S
C383 H373 0.930 . S
C383 C376 1.409 . S
C383 C382 1.362 . S
H384 C390 0.930 . S
H385 C393 0.930 . S
H386 C394 0.930 . S
H387 C395 0.930 . S
H388 C398 0.930 . S
H389 C399 0.930 . S
C390 H384 0.930 . S
C390 C391 1.355 . S
C390 C392 1.415 . S
C391 C390 1.355 . S
C391 C393 1.419 . S
C392 C390 1.415 . S
C392 C397 1.425 . S
C392 C399 1.409 . S
C393 H385 0.930 . S
C393 C391 1.419 . S
C393 C394 1.362 . S
C394 H386 0.930 . S
C394 C393 1.362 . S
C394 C397 1.409 . S
C395 H387 0.930 . S
C395 C396 1.355 . S
C395 C397 1.415 . S
C396 C395 1.355 . S
C396 C398 1.419 . S
C397 C392 1.425 . S
C397 C394 1.409 . S
C397 C395 1.415 . S
C398 H388 0.930 . S
C398 C396 1.419 . S
C398 C399 1.362 . S
C399 H389 0.930 . S
C399 C392 1.409 . S
C399 C398 1.362 . S
H400 C406 0.930 . S
H401 C409 0.930 . S
H402 C410 0.930 . S
H403 C411 0.930 . S
H404 C414 0.930 . S
H405 C415 0.930 . S
C406 H400 0.930 . S
C406 C407 1.355 . S
C406 C408 1.415 . S
C407 C406 1.355 . S
C407 C409 1.419 . S
C408 C406 1.415 . S
C408 C413 1.425 . S
C408 C415 1.409 . S
C409 H401 0.930 . S
C409 C407 1.419 . S
C409 C410 1.362 . S
C410 H402 0.930 . S
C410 C409 1.362 . S
C410 C413 1.409 . S
C411 H403 0.930 . S
C411 C412 1.355 . S
C411 C413 1.415 . S
C412 C411 1.355 . S
C412 C414 1.419 . S
C413 C408 1.425 . S
C413 C410 1.409 . S
C413 C411 1.415 . S
C414 H404 0.930 . S
C414 C412 1.419 . S
C414 C415 1.362 . S
C415 H405 0.930 . S
C415 C408 1.409 . S
C415 C414 1.362 . S
H416 C422 0.930 . S
H417 C425 0.930 . S
H418 C426 0.930 . S
H419 C427 0.930 . S
H420 C430 0.930 . S
H421 C431 0.930 . S
C422 H416 0.930 . S
C422 C423 1.355 . S
C422 C424 1.415 . S
C423 C422 1.355 . S
C423 C425 1.419 . S
C424 C422 1.415 . S
C424 C429 1.425 . S
C424 C431 1.409 . S
C425 H417 0.930 . S
C425 C423 1.419 . S
C425 C426 1.362 . S
C426 H418 0.930 . S
C426 C425 1.362 . S
C426 C429 1.409 . S
C427 H419 0.930 . S
C427 C428 1.355 . S
C427 C429 1.415 . S
C428 C427 1.355 . S
C428 C430 1.419 . S
C429 C424 1.425 . S
C429 C426 1.409 . S
C429 C427 1.415 . S
C430 H420 0.930 . S
C430 C428 1.419 . S
C430 C431 1.362 . S
C431 H421 0.930 . S
C431 C424 1.409 . S
C431 C430 1.362 . S
H432 C438 0.930 . S
H433 C441 0.930 . S
H434 C442 0.930 . S
H435 C443 0.930 . S
H436 C446 0.930 . S
H437 C447 0.930 . S
C438 H432 0.930 . S
C438 C439 1.355 . S
C438 C440 1.415 . S
C439 C438 1.355 . S
C439 C441 1.419 . S
C440 C438 1.415 . S
C440 C445 1.425 . S
C440 C447 1.409 . S
C441 H433 0.930 . S
C441 C439 1.419 . S
C441 C442 1.362 . S
C442 H434 0.930 . S
C442 C441 1.362 . S
C442 C445 1.409 . S
C443 H435 0.930 . S
C443 C444 1.355 . S
C443 C445 1.415 . S
C444 C443 1.355 . S
C444 C446 1.419 . S
C445 C440 1.425 . S
C445 C442 1.409 . S
C445 C443 1.415 . S
C446 H436 0.930 . S
C446 C444 1.419 . S
C446 C447 1.362 . S
C447 H437 0.930 . S
C447 C440 1.409 . S
C447 C446 1.362 . S
H448 C454 0.930 . S
H449 C457 0.930 . S
H450 C458 0.930 . S
H451 C459 0.930 . S
H452 C462 0.930 . S
H453 C463 0.930 . S
C454 H448 0.930 . S
C454 C455 1.355 . S
C454 C456 1.415 . S
C455 C454 1.355 . S
C455 C457 1.419 . S
C456 C454 1.415 . S
C456 C461 1.425 . S
C456 C463 1.409 . S
C457 H449 0.930 . S
C457 C455 1.419 . S
C457 C458 1.362 . S
C458 H450 0.930 . S
C458 C457 1.362 . S
C458 C461 1.409 . S
C459 H451 0.930 . S
C459 C460 1.355 . S
C459 C461 1.415 . S
C460 C459 1.355 . S
C460 C462 1.419 . S
C461 C456 1.425 . S
C461 C458 1.409 . S
C461 C459 1.415 . S
C462 H452 0.930 . S
C462 C460 1.419 . S
C462 C463 1.362 . S
C463 H453 0.930 . S
C463 C456 1.409 . S
C463 C462 1.362 . S
H464 C470 0.930 . S
H465 C473 0.930 . S
H466 C474 0.930 . S
H467 C475 0.930 . S
H468 C478 0.930 . S
H469 C479 0.930 . S
C470 H464 0.930 . S
C470 C471 1.355 . S
C470 C472 1.415 . S
C471 C470 1.355 . S
C471 C473 1.419 . S
C472 C470 1.415 . S
C472 C477 1.425 . S
C472 C479 1.409 . S
C473 H465 0.930 . S
C473 C471 1.419 . S
C473 C474 1.362 . S
C474 H466 0.930 . S
C474 C473 1.362 . S
C474 C477 1.409 . S
C475 H467 0.930 . S
C475 C476 1.355 . S
C475 C477 1.415 . S
C476 C475 1.355 . S
C476 C478 1.419 . S
C477 C472 1.425 . S
C477 C474 1.409 . S
C477 C475 1.415 . S
C478 H468 0.930 . S
C478 C476 1.419 . S
C478 C479 1.362 . S
C479 H469 0.930 . S
C479 C472 1.409 . S
C479 C478 1.362 . S
H480 C486 0.930 . S
H481 C489 0.930 . S
H482 C490 0.930 . S
H483 C491 0.930 . S
H484 C494 0.930 . S
H485 C495 0.930 . S
C486 H480 0.930 . S
C486 C487 1.355 . S
C486 C488 1.415 . S
C487 C486 1.355 . S
C487 C489 1.419 . S
C488 C486 1.415 . S
C488 C493 1.425 . S
C488 C495 1.409 . S
C489 H481 0.930 . S
C489 C487 1.419 . S
C489 C490 1.362 . S
C490 H482 0.930 . S
C490 C489 1.362 . S
C490 C493 1.409 . S
C491 H483 0.930 . S
C491 C492 1.355 . S
C491 C493 1.415 . S
C492 C491 1.355 . S
C492 C494 1.419 . S
C493 C488 1.425 . S
C493 C490 1.409 . S
C493 C491 1.415 . S
C494 H484 0.930 . S
C494 C492 1.419 . S
C494 C495 1.362 . S
C495 H485 0.930 . S
C495 C488 1.409 . S
C495 C494 1.362 . S
H496 C502 0.930 . S
H497 C505 0.930 . S
H498 C506 0.930 . S
H499 C507 0.930 . S
H500 C510 0.930 . S
H501 C511 0.930 . S
C502 H496 0.930 . S
C502 C503 1.355 . S
C502 C504 1.415 . S
C503 C502 1.355 . S
C503 C505 1.419 . S
C504 C502 1.415 . S
C504 C509 1.425 . S
C504 C511 1.409 . S
C505 H497 0.930 . S
C505 C503 1.419 . S
C505 C506 1.362 . S
C506 H498 0.930 . S
C506 C505 1.362 . S
C506 C509 1.409 . S
C507 H499 0.930 . S
C507 C508 1.355 . S
C507 C509 1.415 . S
C508 C507 1.355 . S
C508 C510 1.419 . S
C509 C504 1.425 . S
C509 C506 1.409 . S
C509 C507 1.415 . S
C510 H500 0.930 . S
C510 C508 1.419 . S
C510 C511 1.362 . S
C511 H501 0.930 . S
C511 C504 1.409 . S
C511 C510 1.362 . S
H512 C518 0.930 . S
H513 C521 0.930 . S
H514 C522 0.930 . S
H515 C523 0.930 . S
H516 C526 0.930 . S
H517 C527 0.930 . S
C518 H512 0.930 . S
C518 C519 1.355 . S
C518 C520 1.415 . S
C519 C518 1.355 . S
C519 C521 1.419 . S
C520 C518 1.415 . S
C520 C525 1.425 . S
C520 C527 1.409 . S
C521 H513 0.930 . S
C521 C519 1.419 . S
C521 C522 1.362 . S
C522 H514 0.930 . S
C522 C521 1.362 . S
C522 C525 1.409 . S
C523 H515 0.930 . S
C523 C524 1.355 . S
C523 C525 1.415 . S
C524 C523 1.355 . S
C524 C526 1.419 . S
C525 C520 1.425 . S
C525 C522 1.409 . S
C525 C523 1.415 . S
C526 H516 0.930 . S
C526 C524 1.419 . S
C526 C527 1.362 . S
C527 H517 0.930 . S
C527 C520 1.409 . S
C527 C526 1.362 . S
H528 C534 0.930 . S
H529 C537 0.930 . S
H530 C538 0.930 . S
H531 C539 0.930 . S
H532 C542 0.930 . S
H533 C543 0.930 . S
C534 H528 0.930 . S
C534 C535 1.355 . S
C534 C536 1.415 . S
C535 C534 1.355 . S
C535 C537 1.419 . S
C536 C534 1.415 . S
C536 C541 1.425 . S
C536 C543 1.409 . S
C537 H529 0.930 . S
C537 C535 1.419 . S
C537 C538 1.362 . S
C538 H530 0.930 . S
C538 C537 1.362 . S
C538 C541 1.409 . S
C539 H531 0.930 . S
C539 C540 1.355 . S
C539 C541 1.415 . S
C540 C539 1.355 . S
C540 C542 1.419 . S
C541 C536 1.425 . S
C541 C538 1.409 . S
C541 C539 1.415 . S
C542 H532 0.930 . S
C542 C540 1.419 . S
C542 C543 1.362 . S
C543 H533 0.930 . S
C543 C536 1.409 . S
C543 C542 1.362 . S
H544 C550 0.930 . S
H545 C553 0.930 . S
H546 C554 0.930 . S
H547 C555 0.930 . S
H548 C558 0.930 . S
H549 C559 0.930 . S
C550 H544 0.930 . S
C550 C551 1.355 . S
C550 C552 1.415 . S
C551 C550 1.355 . S
C551 C553 1.419 . S
C552 C550 1.415 . S
C552 C557 1.425 . S
C552 C559 1.409 . S
C553 H545 0.930 . S
C553 C551 1.419 . S
C553 C554 1.362 . S
C554 H546 0.930 . S
C554 C553 1.362 . S
C554 C557 1.409 . S
C555 H547 0.930 . S
C555 C556 1.355 . S
C555 C557 1.415 . S
C556 C555 1.355 . S
C556 C558 1.419 . S
C557 C552 1.425 . S
C557 C554 1.409 . S
C557 C555 1.415 . S
C558 H548 0.930 . S
C558 C556 1.419 . S
C558 C559 1.362 . S
C559 H549 0.930 . S
C559 C552 1.409 . S
C559 C558 1.362 . S
H560 C566 0.930 . S
H561 C569 0.930 . S
H562 C570 0.930 . S
H563 C571 0.930 . S
H564 C574 0.930 . S
H565 C575 0.930 . S
C566 H560 0.930 . S
C566 C567 1.355 . S
C566 C568 1.415 . S
C567 C566 1.355 . S
C567 C569 1.419 . S
C568 C566 1.415 . S
C568 C573 1.425 . S
C568 C575 1.409 . S
C569 H561 0.930 . S
C569 C567 1.419 . S
C569 C570 1.362 . S
C570 H562 0.930 . S
C570 C569 1.362 . S
C570 C573 1.409 . S
C571 H563 0.930 . S
C571 C572 1.355 . S
C571 C573 1.415 . S
C572 C571 1.355 . S
C572 C574 1.419 . S
C573 C568 1.425 . S
C573 C570 1.409 . S
C573 C571 1.415 . S
C574 H564 0.930 . S
C574 C572 1.419 . S
C574 C575 1.362 . S
C575 H565 0.930 . S
C575 C568 1.409 . S
C575 C574 1.362 . S
H576 C582 0.930 . S
H577 C585 0.930 . S
H578 C586 0.930 . S
H579 C587 0.930 . S
H580 C590 0.930 . S
H581 C591 0.930 . S
C582 H576 0.930 . S
C582 C583 1.355 . S
C582 C584 1.415 . S
C583 C582 1.355 . S
C583 C585 1.419 . S
C584 C582 1.415 . S
C584 C589 1.425 . S
C584 C591 1.409 . S
C585 H577 0.930 . S
C585 C583 1.419 . S
C585 C586 1.362 . S
C586 H578 0.930 . S
C586 C585 1.362 . S
C586 C589 1.409 . S
C587 H579 0.930 . S
C587 C588 1.355 . S
C587 C589 1.415 . S
C588 C587 1.355 . S
C588 C590 1.419 . S
C589 C584 1.425 . S
C589 C586 1.409 . S
C589 C587 1.415 . S
C590 H580 0.930 . S
C590 C588 1.419 . S
C590 C591 1.362 . S
C591 H581 0.930 . S
C591 C584 1.409 . S
C591 C590 1.362 . S
H592 C598 0.930 . S
H593 C601 0.930 . S
H594 C602 0.930 . S
H595 C603 0.930 . S
H596 C606 0.930 . S
H597 C607 0.930 . S
C598 H592 0.930 . S
C598 C599 1.355 . S
C598 C600 1.415 . S
C599 C598 1.355 . S
C599 C601 1.419 . S
C600 C598 1.415 . S
C600 C605 1.425 . S
C600 C607 1.409 . S
C601 H593 0.930 . S
C601 C599 1.419 . S
C601 C602 1.362 . S
C602 H594 0.930 . S
C602 C601 1.362 . S
C602 C605 1.409 . S
C603 H595 0.930 . S
C603 C604 1.355 . S
C603 C605 1.415 . S
C604 C603 1.355 . S
C604 C606 1.419 . S
C605 C600 1.425 . S
C605 C602 1.409 . S
C605 C603 1.415 . S
C606 H596 0.930 . S
C606 C604 1.419 . S
C606 C607 1.362 . S
C607 H597 0.930 . S
C607 C600 1.409 . S
C607 C606 1.362 . S
H608 C614 0.930 . S
H609 C617 0.930 . S
H610 C618 0.930 . S
H611 C619 0.930 . S
H612 C622 0.930 . S
H613 C623 0.930 . S
C614 H608 0.930 . S
C614 C615 1.355 . S
C614 C616 1.415 . S
C615 C614 1.355 . S
C615 C617 1.419 . S
C616 C614 1.415 . S
C616 C621 1.425 1_554 S
C616 C623 1.409 1_554 S
C617 H609 0.930 . S
C617 C615 1.419 . S
C617 C618 1.362 . S
C618 H610 0.930 . S
C618 C617 1.362 . S
C618 C621 1.409 1_554 S
C619 H611 0.930 . S
C619 C620 1.355 . S
C619 C621 1.415 . S
C620 C619 1.355 . S
C620 C622 1.419 . S
C621 C616 1.425 1_556 S
C621 C618 1.409 1_556 S
C621 C619 1.415 . S
C622 H612 0.930 . S
C622 C620 1.419 . S
C622 C623 1.362 . S
C623 H613 0.930 . S
C623 C616 1.409 1_556 S
C623 C622 1.362 . S
H624 C630 0.930 . S
H625 C633 0.930 . S
H626 C634 0.930 . S
H627 C635 0.930 . S
H628 C638 0.930 . S
H629 C639 0.930 . S
C630 H624 0.930 . S
C630 C631 1.355 . S
C630 C632 1.415 . S
C631 C630 1.355 . S
C631 C633 1.419 . S
C632 C630 1.415 . S
C632 C637 1.425 . S
C632 C639 1.409 . S
C633 H625 0.930 . S
C633 C631 1.419 . S
C633 C634 1.362 . S
C634 H626 0.930 . S
C634 C633 1.362 . S
C634 C637 1.409 . S
C635 H627 0.930 . S
C635 C636 1.355 . S
C635 C637 1.415 . S
C636 C635 1.355 . S
C636 C638 1.419 . S
C637 C632 1.425 . S
C637 C634 1.409 . S
C637 C635 1.415 . S
C638 H628 0.930 . S
C638 C636 1.419 . S
C638 C639 1.362 . S
C639 H629 0.930 . S
C639 C632 1.409 . S
C639 C638 1.362 . S
H640 C646 0.930 . S
H641 C649 0.930 . S
H642 C650 0.930 . S
H643 C651 0.930 . S
H644 C654 0.930 . S
H645 C655 0.930 . S
C646 H640 0.930 . S
C646 C647 1.355 . S
C646 C648 1.415 . S
C647 C646 1.355 . S
C647 C649 1.419 . S
C648 C646 1.415 . S
C648 C653 1.425 1_554 S
C648 C655 1.409 . S
C649 H641 0.930 . S
C649 C647 1.419 . S
C649 C650 1.362 1_554 S
C650 H642 0.930 . S
C650 C649 1.362 1_556 S
C650 C653 1.409 . S
C651 H643 0.930 . S
C651 C652 1.355 . S
C651 C653 1.415 . S
C652 C651 1.355 . S
C652 C654 1.419 . S
C653 C648 1.425 1_556 S
C653 C650 1.409 . S
C653 C651 1.415 . S
C654 H644 0.930 . S
C654 C652 1.419 . S
C654 C655 1.362 1_556 S
C655 H645 0.930 . S
C655 C648 1.409 . S
C655 C654 1.362 1_554 S
H656 C662 0.930 . S
H657 C665 0.930 . S
H658 C666 0.930 1_545 S
H659 C667 0.930 . S
H660 C670 0.930 . S
H661 C671 0.930 . S
C662 H656 0.930 . S
C662 C663 1.355 . S
C662 C664 1.415 . S
C663 C662 1.355 . S
C663 C665 1.419 . S
C664 C662 1.415 . S
C664 C669 1.425 . S
C664 C671 1.409 . S
C665 H657 0.930 . S
C665 C663 1.419 . S
C665 C666 1.362 . S
C666 H658 0.930 1_565 S
C666 C665 1.362 . S
C666 C669 1.409 . S
C667 H659 0.930 . S
C667 C668 1.355 . S
C667 C669 1.415 . S
C668 C667 1.355 . S
C668 C670 1.419 . S
C669 C664 1.425 . S
C669 C666 1.409 . S
C669 C667 1.415 . S
C670 H660 0.930 . S
C670 C668 1.419 . S
C670 C671 1.362 . S
C671 H661 0.930 . S
C671 C664 1.409 . S
C671 C670 1.362 . S
H672 C678 0.930 . S
H673 C681 0.930 . S
H674 C682 0.930 . S
H675 C683 0.930 . S
H676 C686 0.930 . S
H677 C687 0.930 . S
C678 H672 0.930 . S
C678 C679 1.355 . S
C678 C680 1.412 . S
C679 C678 1.355 . S
C679 C681 1.419 . S
C680 C678 1.412 . S
C680 C685 1.425 1_556 S
C680 C687 1.412 1_556 S
C681 H673 0.930 . S
C681 C679 1.419 . S
C681 C682 1.362 . S
C682 H674 0.930 . S
C682 C681 1.362 . S
C682 C685 1.412 1_556 S
C683 H675 0.930 . S
C683 C684 1.355 . S
C683 C685 1.412 . S
C684 C683 1.355 . S
C684 C686 1.419 . S
C685 C680 1.425 1_554 S
C685 C682 1.412 1_554 S
C685 C683 1.412 . S
C686 H676 0.930 . S
C686 C684 1.419 . S
C686 C687 1.362 . S
C687 H677 0.930 . S
C687 C680 1.412 1_554 S
C687 C686 1.362 . S
H688 C694 0.930 . S
H689 C697 0.930 . S
H690 C698 0.930 . S
H691 C699 0.930 . S
H692 C702 0.930 . S
H693 C703 0.930 . S
C694 H688 0.930 . S
C694 C695 1.355 . S
C694 C696 1.415 . S
C695 C694 1.355 . S
C695 C697 1.419 . S
C696 C694 1.415 . S
C696 C701 1.425 . S
C696 C703 1.409 . S
C697 H689 0.930 . S
C697 C695 1.419 . S
C697 C698 1.362 . S
C698 H690 0.930 . S
C698 C697 1.362 . S
C698 C701 1.409 . S
C699 H691 0.930 . S
C699 C700 1.355 . S
C699 C701 1.415 . S
C700 C699 1.355 . S
C700 C702 1.419 . S
C701 C696 1.425 . S
C701 C698 1.409 . S
C701 C699 1.415 . S
C702 H692 0.930 . S
C702 C700 1.419 . S
C702 C703 1.362 . S
C703 H693 0.930 . S
C703 C696 1.409 . S
C703 C702 1.362 . S
H704 C710 0.930 . S
H705 C713 0.930 1_655 S
H706 C714 0.930 . S
H707 C715 0.929 1_655 S
H708 C718 0.930 . S
H709 C719 0.930 . S
C710 H704 0.930 . S
C710 C711 1.355 . S
C710 C712 1.415 1_554 S
C711 C710 1.355 . S
C711 C713 1.419 . S
C712 C710 1.415 1_556 S
C712 C717 1.424 1_556 S
C712 C719 1.409 . S
C713 H705 0.930 1_455 S
C713 C711 1.419 . S
C713 C714 1.362 1_455 S
C714 H706 0.930 . S
C714 C713 1.362 1_655 S
C714 C717 1.437 1_655 S
C715 H707 0.929 1_455 S
C715 C716 1.355 . S
C715 C717 1.388 1_556 S
C716 C715 1.355 . S
C716 C718 1.419 . S
C717 C712 1.424 1_554 S
C717 C714 1.437 1_455 S
C717 C715 1.388 1_554 S
C718 H708 0.930 . S
C718 C716 1.419 . S
C718 C719 1.362 . S
C719 H709 0.930 . S
C719 C712 1.409 . S
C719 C718 1.362 . S
H720 C726 0.930 . S
H721 C729 0.930 . S
H722 C730 0.930 . S
H723 C731 0.930 . S
H724 C734 0.930 . S
H725 C735 0.930 . S
C726 H720 0.930 . S
C726 C727 1.355 . S
C726 C728 1.415 . S
C727 C726 1.355 . S
C727 C729 1.419 . S
C728 C726 1.415 . S
C728 C733 1.425 . S
C728 C735 1.409 . S
C729 H721 0.930 . S
C729 C727 1.419 . S
C729 C730 1.362 . S
C730 H722 0.930 . S
C730 C729 1.362 . S
C730 C733 1.409 . S
C731 H723 0.930 . S
C731 C732 1.355 . S
C731 C733 1.415 . S
C732 C731 1.355 . S
C732 C734 1.419 . S
C733 C728 1.425 . S
C733 C730 1.409 . S
C733 C731 1.415 . S
C734 H724 0.930 . S
C734 C732 1.419 . S
C734 C735 1.362 . S
C735 H725 0.930 . S
C735 C728 1.409 . S
C735 C734 1.362 . S
C231 C11 1.270 . S
C236 C109 1.236 . S
C247 C25 1.207 . S
C252 C67 1.252 . S
C263 C39 1.242 . S
C268 C81 1.207 . S
C279 C53 1.230 . S
C284 C95 1.271 . S
C295 C117 1.080 . S
C300 C221 1.195 . S
C311 C173 1.199 . S
C316 C137 1.218 . S
C327 C145 1.162 . S
C332 C193 1.195 . S
C343 C165 1.222 . S
C348 C201 1.086 . S
C359 C4 1.162 . S
C364 C138 1.273 . S
C375 C18 1.382 . S
C380 C144 1.378 . S
C391 C166 1.273 . S
C396 C32 1.176 . S
C407 C46 1.333 . S
C412 C116 1.392 . S
C423 C60 1.176 . S
C428 C222 1.282 . S
C439 C172 1.428 . S
C444 C74 1.309 . S
C455 C194 1.276 . S
C460 C88 1.210 . S
C471 C200 1.389 . S
C476 C102 1.390 . S
C487 C26 1.175 . S
C492 C124 1.146 . S
C503 C40 1.261 . S
C508 C130 1.188 . S
C519 C152 1.179 . S
C524 C54 1.182 . S
C535 C12 1.242 . S
C540 C158 1.171 . S
C551 C180 1.124 . S
C556 C110 1.176 . S
C567 C186 1.241 . S
C572 C68 1.268 . S
C583 C82 1.179 . S
C588 C208 1.119 . S
C599 C96 1.264 . S
C604 C214 1.253 . S
C615 C5 1.304 . S
C620 C61 1.303 . S
C631 C75 1.237 . S
C636 C19 1.236 . S
C647 C33 1.226 . S
C652 C89 1.226 . S
C663 C103 1.357 . S
C668 C47 1.362 . S
C679 C123 1.545 . S
C684 C179 1.504 . S
C695 C187 1.275 . S
C700 C131 1.276 . S
C711 C207 1.537 . S
C716 C151 1.502 . S
C727 C215 1.276 . S
C732 C159 1.277 . S
