# Generated by pormake.
# Topology una, (4)-cn, num edge types: 1
# Building blocks:
#     Node 0, Type 0, BuildingBlock: GALJAG_clean_sbu_0, # of connection points: 4
#     Node 1, Type 0, BuildingBlock: GALJAG_clean_sbu_0, # of connection points: 4
#     Node 2, Type 0, BuildingBlock: GALJAG_clean_sbu_0, # of connection points: 4
#     Node 3, Type 0, BuildingBlock: GALJAG_clean_sbu_0, # of connection points: 4
#     Node 4, Type 0, BuildingBlock: GALJAG_clean_sbu_0, # of connection points: 4
#     Node 5, Type 0, BuildingBlock: GALJAG_clean_sbu_0, # of connection points: 4
#     Node 6, Type 0, BuildingBlock: GALJAG_clean_sbu_0, # of connection points: 4
#     Node 7, Type 0, BuildingBlock: GALJAG_clean_sbu_0, # of connection points: 4
#     Node 8, Type 0, BuildingBlock: GALJAG_clean_sbu_0, # of connection points: 4
#     Node 9, Type 0, BuildingBlock: GALJAG_clean_sbu_0, # of connection points: 4
#     Node 10, Type 0, BuildingBlock: GALJAG_clean_sbu_0, # of connection points: 4
#     Node 11, Type 0, BuildingBlock: GALJAG_clean_sbu_0, # of connection points: 4
#     Edge 12, Type (0, 0), BuildingBlock: MIFKUJ_clean_linker_0, # of connection points: 2
#     Edge 13, Type (0, 0), BuildingBlock: MIFKUJ_clean_linker_0, # of connection points: 2
#     Edge 14, Type (0, 0), BuildingBlock: MIFKUJ_clean_linker_0, # of connection points: 2
#     Edge 15, Type (0, 0), BuildingBlock: MIFKUJ_clean_linker_0, # of connection points: 2
#     Edge 16, Type (0, 0), BuildingBlock: MIFKUJ_clean_linker_0, # of connection points: 2
#     Edge 17, Type (0, 0), BuildingBlock: MIFKUJ_clean_linker_0, # of connection points: 2
#     Edge 18, Type (0, 0), BuildingBlock: MIFKUJ_clean_linker_0, # of connection points: 2
#     Edge 19, Type (0, 0), BuildingBlock: MIFKUJ_clean_linker_0, # of connection points: 2
#     Edge 20, Type (0, 0), BuildingBlock: MIFKUJ_clean_linker_0, # of connection points: 2
#     Edge 21, Type (0, 0), BuildingBlock: MIFKUJ_clean_linker_0, # of connection points: 2
#     Edge 22, Type (0, 0), BuildingBlock: MIFKUJ_clean_linker_0, # of connection points: 2
#     Edge 23, Type (0, 0), BuildingBlock: MIFKUJ_clean_linker_0, # of connection points: 2
#     Edge 24, Type (0, 0), BuildingBlock: MIFKUJ_clean_linker_0, # of connection points: 2
#     Edge 25, Type (0, 0), BuildingBlock: MIFKUJ_clean_linker_0, # of connection points: 2
#     Edge 26, Type (0, 0), BuildingBlock: MIFKUJ_clean_linker_0, # of connection points: 2
#     Edge 27, Type (0, 0), BuildingBlock: MIFKUJ_clean_linker_0, # of connection points: 2
#     Edge 28, Type (0, 0), BuildingBlock: MIFKUJ_clean_linker_0, # of connection points: 2
#     Edge 29, Type (0, 0), BuildingBlock: MIFKUJ_clean_linker_0, # of connection points: 2
#     Edge 30, Type (0, 0), BuildingBlock: MIFKUJ_clean_linker_0, # of connection points: 2
#     Edge 31, Type (0, 0), BuildingBlock: MIFKUJ_clean_linker_0, # of connection points: 2
#     Edge 32, Type (0, 0), BuildingBlock: MIFKUJ_clean_linker_0, # of connection points: 2
#     Edge 33, Type (0, 0), BuildingBlock: MIFKUJ_clean_linker_0, # of connection points: 2
#     Edge 34, Type (0, 0), BuildingBlock: MIFKUJ_clean_linker_0, # of connection points: 2
#     Edge 35, Type (0, 0), BuildingBlock: MIFKUJ_clean_linker_0, # of connection points: 2
# Relax obj value: 0.044
# Max RMSD: 0.038
# Mean RMSD: 0.038
data_MOF--net-una--node1-GALJAG_clean_sbu_0--edge1-MIFKUJ_clean_linker_0
_symmetry_space_group_name_H-M    P1
_symmetry_Int_Tables_number       1
_symmetry_cell_setting            triclinic
loop_
_symmetry_equiv_pos_as_xyz
'x, y, z'
_cell_length_a     78.881731
_cell_length_b     78.879924
_cell_length_c     25.963537
_cell_angle_alpha  89.994356
_cell_angle_beta   90.012242
_cell_angle_gamma 119.9843
loop_
_atom_site_label
_atom_site_type_symbol
_atom_site_fract_x
_atom_site_fract_y
_atom_site_fract_z
_atom_type_partial_charge
In0 In 0.12682 0.44217 0.06306 0.0
O1 O 0.09827 0.41232 0.06104 0.0
O2 O 0.09913 0.4364 0.02188 0.0
C3 C 0.1471 0.43721 0.13998 0.0
C4 C 0.12436 0.47363 0.09189 0.0
C5 C 0.14834 0.44241 0.98186 0.0
O6 O 0.12975 0.42421 0.12921 0.0
O7 O 0.15363 0.45255 0.11334 0.0
O8 O 0.15121 0.45783 0.00398 0.0
O9 O 0.13432 0.4269 0.9998 0.0
C10 C 0.08932 0.41853 0.03339 0.0
O11 O 0.13018 0.47193 0.0479 0.0
O12 O 0.11973 0.45935 0.12199 0.0
In13 In 0.68986 0.12553 0.23292 0.0
O14 O 0.67824 0.09236 0.23918 0.0
O15 O 0.68559 0.10543 0.16526 0.0
C16 C 0.71166 0.14143 0.31853 0.0
C17 C 0.65509 0.12361 0.24779 0.0
C18 C 0.71553 0.15273 0.1678 0.0
O19 O 0.71212 0.12789 0.2937 0.0
O20 O 0.69958 0.1461 0.30164 0.0
O21 O 0.69798 0.14887 0.17127 0.0
O22 O 0.72001 0.14269 0.19665 0.0
C23 C 0.67905 0.08999 0.19136 0.0
O24 O 0.66664 0.13347 0.21195 0.0
O25 O 0.66104 0.11463 0.27611 0.0
In26 In 0.55636 0.68502 0.38235 0.0
O27 O 0.5866 0.68739 0.3732 0.0
O28 O 0.56158 0.66231 0.34347 0.0
C29 C 0.56156 0.71038 0.45929 0.0
C30 C 0.5245 0.65168 0.41243 0.0
C31 C 0.55571 0.70548 0.2998 0.0
O32 O 0.57324 0.70397 0.45273 0.0
O33 O 0.54737 0.70358 0.42838 0.0
O34 O 0.54041 0.69161 0.31915 0.0
O35 O 0.57138 0.70878 0.32138 0.0
C36 C 0.57987 0.67135 0.34928 0.0
O37 O 0.52555 0.66006 0.37016 0.0
O38 O 0.53967 0.66021 0.44033 0.0
In39 In 0.87035 0.55677 0.54836 0.0
O40 O 0.86098 0.52477 0.53391 0.0
O41 O 0.88047 0.53914 0.59611 0.0
C42 C 0.84901 0.56259 0.47781 0.0
C43 C 0.90632 0.58056 0.50895 0.0
C44 C 0.84995 0.55983 0.62747 0.0
O45 O 0.85008 0.54711 0.47888 0.0
O46 O 0.85924 0.5753 0.5111 0.0
O47 O 0.86831 0.57098 0.62403 0.0
O48 O 0.84247 0.54693 0.59294 0.0
C49 C 0.87089 0.52359 0.57047 0.0
O50 O 0.90174 0.58302 0.55393 0.0
O51 O 0.89292 0.56626 0.48497 0.0
In52 In 0.31402 0.87397 0.73205 0.0
O53 O 0.341 0.8734 0.70228 0.0
O54 O 0.34075 0.88097 0.78075 0.0
C55 C 0.29058 0.84652 0.66372 0.0
C56 C 0.3248 0.91034 0.69713 0.0
C57 C 0.29061 0.85782 0.8152 0.0
O58 O 0.30508 0.84645 0.68417 0.0
O59 O 0.28804 0.86041 0.67761 0.0
O60 O 0.29047 0.87133 0.78944 0.0
O61 O 0.30288 0.85315 0.8 0.0
C62 C 0.3499 0.87821 0.74489 0.0
O63 O 0.32607 0.90699 0.74415 0.0
O64 O 0.31778 0.89544 0.66869 0.0
In65 In 0.43956 0.3121 0.89852 0.0
O66 O 0.41049 0.31251 0.89534 0.0
O67 O 0.43545 0.3353 0.85833 0.0
C68 C 0.42951 0.28399 0.97207 0.0
C69 C 0.47442 0.34206 0.92888 0.0
C70 C 0.44078 0.29479 0.81066 0.0
O71 O 0.43406 0.30132 0.98316 0.0
O72 O 0.42949 0.28087 0.92469 0.0
O73 O 0.45612 0.30658 0.83488 0.0
O74 O 0.42501 0.29218 0.83026 0.0
C75 C 0.41753 0.32789 0.86843 0.0
O76 O 0.47288 0.32988 0.89498 0.0
O77 O 0.45839 0.33885 0.94826 0.0
In78 In 0.55786 0.87153 0.87726 0.0
O79 O 0.52736 0.86675 0.89192 0.0
O80 O 0.54226 0.88261 0.82457 0.0
C81 C 0.55595 0.84491 0.94538 0.0
C82 C 0.58053 0.90662 0.92287 0.0
C83 C 0.56559 0.85537 0.79523 0.0
O84 O 0.54081 0.84469 0.92858 0.0
O85 O 0.57188 0.85861 0.92818 0.0
O86 O 0.57905 0.86938 0.82026 0.0
O87 O 0.5485 0.85027 0.81025 0.0
C88 C 0.52701 0.87573 0.85202 0.0
O89 O 0.58316 0.90357 0.8765 0.0
O90 O 0.56671 0.89214 0.94522 0.0
In91 In 0.68477 0.55622 0.05428 0.0
O92 O 0.66526 0.52328 0.06389 0.0
O93 O 0.65855 0.53704 0.00301 0.0
C94 C 0.70677 0.56239 0.1386 0.0
C95 C 0.66982 0.57925 0.08095 0.0
C96 C 0.71107 0.56073 0.98131 0.0
O97 O 0.69037 0.54701 0.13297 0.0
O98 O 0.71163 0.5747 0.10261 0.0
O99 O 0.69985 0.56776 0.97546 0.0
O100 O 0.70846 0.55122 0.0223 0.0
C101 C 0.65407 0.52138 0.02684 0.0
O102 O 0.68446 0.5853 0.05145 0.0
O103 O 0.66269 0.56176 0.09538 0.0
In104 In 0.12951 0.68773 0.22611 0.0
O105 O 0.09663 0.67726 0.21642 0.0
O106 O 0.10904 0.685 0.29108 0.0
C107 C 0.14752 0.71135 0.14461 0.0
C108 C 0.1248 0.65185 0.20917 0.0
C109 C 0.15664 0.71099 0.29497 0.0
O110 O 0.13226 0.70999 0.16451 0.0
O111 O 0.15297 0.70027 0.16441 0.0
O112 O 0.15386 0.6942 0.28366 0.0
O113 O 0.14562 0.71584 0.2719 0.0
C114 C 0.09391 0.67873 0.26376 0.0
O115 O 0.13027 0.66048 0.25198 0.0
O116 O 0.12159 0.66125 0.17493 0.0
In117 In 0.4495 0.13272 0.40248 0.0
O118 O 0.48122 0.14036 0.41105 0.0
O119 O 0.46563 0.12334 0.34606 0.0
C120 C 0.4479 0.15475 0.47891 0.0
C121 C 0.42773 0.09685 0.44471 0.0
C122 C 0.44219 0.15188 0.32714 0.0
O123 O 0.46388 0.15696 0.46184 0.0
O124 O 0.43271 0.14108 0.45825 0.0
O125 O 0.43157 0.13356 0.33303 0.0
O126 O 0.45648 0.15997 0.35759 0.0
C127 C 0.48153 0.13157 0.37084 0.0
O128 O 0.4227 0.10159 0.40328 0.0
O129 O 0.44359 0.11002 0.46369 0.0
In130 In 0.3127 0.44187 0.55922 0.0
O131 O 0.33513 0.47386 0.56947 0.0
O132 O 0.34057 0.45831 0.5107 0.0
C133 C 0.2881 0.44044 0.63358 0.0
C134 C 0.32701 0.41977 0.59839 0.0
C135 C 0.29011 0.43651 0.47542 0.0
O136 O 0.30388 0.4558 0.62302 0.0
O137 O 0.28487 0.42571 0.60728 0.0
O138 O 0.29256 0.42299 0.49326 0.0
O139 O 0.29955 0.45263 0.49858 0.0
C140 C 0.34639 0.47434 0.53423 0.0
O141 O 0.31533 0.41405 0.56067 0.0
O142 O 0.33139 0.43638 0.61562 0.0
In143 In 0.87154 0.3134 0.72217 0.0
O144 O 0.865 0.33794 0.73624 0.0
O145 O 0.88146 0.33984 0.66921 0.0
C146 C 0.84823 0.2891 0.79706 0.0
C147 C 0.90789 0.32798 0.76135 0.0
C148 C 0.85487 0.29048 0.63864 0.0
O149 O 0.84468 0.30114 0.77456 0.0
O150 O 0.86361 0.28947 0.78236 0.0
O151 O 0.8712 0.29367 0.65586 0.0
O152 O 0.84755 0.29913 0.66267 0.0
C153 C 0.87368 0.34746 0.69627 0.0
O154 O 0.90144 0.31495 0.72669 0.0
O155 O 0.8962 0.33364 0.77507 0.0
H156 H 0.14092 0.40316 0.18582 0.0
H157 H 0.16404 0.39887 0.24005 0.0
H158 H 0.20459 0.46102 0.23289 0.0
H159 H 0.18191 0.46526 0.17812 0.0
H160 H 0.22296 0.44186 0.21264 0.0
H161 H 0.17696 0.43751 0.34263 0.0
H162 H 0.14448 0.42383 0.38332 0.0
H163 H 0.1405 0.36764 0.39468 0.0
H164 H 0.17287 0.38094 0.35345 0.0
H165 H 0.28741 0.46462 0.4218 0.0
H166 H 0.26212 0.46027 0.36036 0.0
H167 H 0.2352 0.39759 0.37495 0.0
H168 H 0.26069 0.40188 0.43668 0.0
H169 H 0.2087 0.41125 0.38581 0.0
H170 H 0.25732 0.41769 0.26603 0.0
H171 H 0.29026 0.43235 0.22769 0.0
H172 H 0.28966 0.48563 0.19856 0.0
H173 H 0.25683 0.47141 0.23745 0.0
C174 C 0.15467 0.4159 0.19649 0.0
C175 C 0.15963 0.43453 0.17769 0.0
C176 C 0.16787 0.41345 0.22745 0.0
C177 C 0.18611 0.42964 0.24057 0.0
C178 C 0.19072 0.44829 0.223 0.0
C179 C 0.17767 0.4507 0.19187 0.0
C180 C 0.20087 0.42739 0.27095 0.0
C181 C 0.21984 0.43528 0.25067 0.0
C182 C 0.19668 0.41816 0.31978 0.0
C183 C 0.17721 0.41015 0.34437 0.0
C184 C 0.16907 0.42219 0.35339 0.0
C185 C 0.1507 0.41452 0.37664 0.0
C186 C 0.1404 0.39486 0.39141 0.0
C187 C 0.14847 0.38285 0.38311 0.0
C188 C 0.16683 0.39045 0.35982 0.0
C189 C 0.27628 0.44989 0.4114 0.0
C190 C 0.27605 0.43358 0.43393 0.0
C191 C 0.26185 0.44743 0.37621 0.0
C192 C 0.24682 0.42861 0.36289 0.0
C193 C 0.24669 0.41224 0.38465 0.0
C194 C 0.26131 0.4147 0.4196 0.0
C195 C 0.23087 0.42635 0.32814 0.0
C196 C 0.2117 0.41756 0.34746 0.0
C197 C 0.23488 0.43488 0.27853 0.0
C198 C 0.25464 0.44351 0.25501 0.0
C199 C 0.26427 0.43259 0.25183 0.0
C200 C 0.28292 0.44081 0.22992 0.0
C201 C 0.29206 0.45992 0.21078 0.0
C202 C 0.28256 0.47083 0.21342 0.0
C203 C 0.26392 0.46269 0.23534 0.0
H204 H 0.3065 0.46626 0.19383 0.0
H205 H 0.12618 0.38894 0.40943 0.0
H206 H 0.82241 0.28568 0.58978 0.0
H207 H 0.80074 0.25896 0.53297 0.0
H208 H 0.84024 0.23611 0.53744 0.0
H209 H 0.86227 0.2631 0.59462 0.0
H210 H 0.82029 0.23335 0.43599 0.0
H211 H 0.80647 0.21785 0.61718 0.0
H212 H 0.80166 0.227 0.70447 0.0
H213 H 0.75105 0.22909 0.65264 0.0
H214 H 0.75595 0.22062 0.56455 0.0
H215 H 0.74509 0.14108 0.34506 0.0
H216 H 0.77144 0.16449 0.40122 0.0
H217 H 0.73719 0.19169 0.43791 0.0
H218 H 0.71089 0.16839 0.38222 0.0
H219 H 0.75662 0.19011 0.52153 0.0
H220 H 0.77011 0.20942 0.34506 0.0
H221 H 0.77491 0.20515 0.25322 0.0
H222 H 0.82491 0.1996 0.29099 0.0
H223 H 0.82 0.20317 0.38339 0.0
C224 C 0.82674 0.27522 0.57793 0.0
C225 C 0.84391 0.27633 0.59719 0.0
C226 C 0.81434 0.25998 0.54535 0.0
C227 C 0.81877 0.24544 0.53164 0.0
C228 C 0.83659 0.24721 0.54768 0.0
C229 C 0.84911 0.26259 0.58038 0.0
C230 C 0.80363 0.22742 0.5059 0.0
C231 C 0.80654 0.22359 0.45492 0.0
C232 C 0.78549 0.21509 0.53038 0.0
C233 C 0.78167 0.21874 0.58413 0.0
C234 C 0.79435 0.22032 0.62433 0.0
C235 C 0.79165 0.22547 0.67391 0.0
C236 C 0.77611 0.22872 0.68403 0.0
C237 C 0.76312 0.22663 0.64469 0.0
C238 C 0.76586 0.22168 0.5949 0.0
C239 C 0.74302 0.15177 0.36606 0.0
C240 C 0.72599 0.15299 0.35906 0.0
C241 C 0.75812 0.1652 0.39785 0.0
C242 C 0.75638 0.18001 0.42316 0.0
C243 C 0.73887 0.18043 0.4187 0.0
C244 C 0.72385 0.16711 0.38678 0.0
C245 C 0.77318 0.19594 0.45132 0.0
C246 C 0.77054 0.1995 0.50282 0.0
C247 C 0.79138 0.20823 0.42688 0.0
C248 C 0.7945 0.20626 0.37129 0.0
C249 C 0.78199 0.20706 0.3339 0.0
C250 C 0.78473 0.20477 0.28172 0.0
C251 C 0.80019 0.20208 0.26628 0.0
C252 C 0.81291 0.20164 0.30303 0.0
C253 C 0.81012 0.20373 0.35534 0.0
H254 H 0.80233 0.2004 0.22582 0.0
H255 H 0.77409 0.23277 0.72241 0.0
H256 H 0.59384 0.73276 0.51993 0.0
H257 H 0.59927 0.76011 0.57616 0.0
H258 H 0.54137 0.74955 0.54014 0.0
H259 H 0.53605 0.72267 0.48381 0.0
H260 H 0.56726 0.78717 0.53031 0.0
H261 H 0.55281 0.73682 0.65731 0.0
H262 H 0.55776 0.71217 0.70276 0.0
H263 H 0.61594 0.75651 0.74477 0.0
H264 H 0.61141 0.78139 0.69896 0.0
H265 H 0.53941 0.82965 0.72652 0.0
H266 H 0.54395 0.80826 0.66716 0.0
H267 H 0.6042 0.83384 0.71485 0.0
H268 H 0.59974 0.85551 0.7745 0.0
H269 H 0.58373 0.79267 0.71618 0.0
H270 H 0.59569 0.84377 0.59838 0.0
H271 H 0.5895 0.86796 0.55505 0.0
H272 H 0.53491 0.82171 0.4968 0.0
H273 H 0.54062 0.79724 0.54042 0.0
C274 C 0.58223 0.73618 0.52457 0.0
C275 C 0.56455 0.7256 0.49738 0.0
C276 C 0.58534 0.7518 0.55667 0.0
C277 C 0.57073 0.75693 0.56232 0.0
C278 C 0.55293 0.74601 0.53612 0.0
C279 C 0.54987 0.73055 0.50407 0.0
C280 C 0.57387 0.77396 0.59411 0.0
C281 C 0.57077 0.7883 0.57103 0.0
C282 C 0.57912 0.77585 0.64683 0.0
C283 C 0.58187 0.7609 0.67414 0.0
C284 C 0.56672 0.74127 0.67582 0.0
C285 C 0.56944 0.72727 0.70174 0.0
C286 C 0.58718 0.73276 0.72648 0.0
C287 C 0.60222 0.75227 0.72547 0.0
C288 C 0.59959 0.76633 0.69956 0.0
C289 C 0.55372 0.83096 0.72383 0.0
C290 C 0.56924 0.84431 0.75501 0.0
C291 C 0.5563 0.81873 0.68985 0.0
C292 C 0.57443 0.8195 0.68643 0.0
C293 C 0.5901 0.83304 0.71686 0.0
C294 C 0.58758 0.84549 0.75059 0.0
C295 C 0.57647 0.80543 0.65265 0.0
C296 C 0.58058 0.79171 0.67527 0.0
C297 C 0.57202 0.804 0.59952 0.0
C298 C 0.56854 0.81867 0.57297 0.0
C299 C 0.58229 0.83875 0.57665 0.0
C300 C 0.57888 0.85252 0.55198 0.0
C301 C 0.56181 0.84638 0.52326 0.0
C302 C 0.54813 0.82645 0.51907 0.0
C303 C 0.55146 0.81262 0.5437 0.0
H304 H 0.55919 0.85706 0.50419 0.0
H305 H 0.58925 0.7219 0.74655 0.0
H306 H 0.85974 0.57577 0.7246 0.0
H307 H 0.83795 0.57904 0.78698 0.0
H308 H 0.79093 0.55417 0.67632 0.0
H309 H 0.8122 0.55019 0.61504 0.0
H310 H 0.80067 0.59298 0.7381 0.0
H311 H 0.78401 0.52394 0.74817 0.0
H312 H 0.79313 0.49851 0.76044 0.0
H313 H 0.818 0.52289 0.90796 0.0
H314 H 0.80926 0.54865 0.89611 0.0
H315 H 0.7131 0.56755 0.87703 0.0
H316 H 0.73863 0.57033 0.81775 0.0
H317 H 0.77044 0.5649 0.9461 0.0
H318 H 0.74455 0.56097 0.00435 0.0
H319 H 0.77085 0.54343 0.87688 0.0
H320 H 0.78495 0.60969 0.87645 0.0
H321 H 0.77839 0.63702 0.86774 0.0
H322 H 0.76216 0.62171 0.70947 0.0
H323 H 0.76837 0.59411 0.71742 0.0
C324 C 0.84476 0.57105 0.71379 0.0
C325 C 0.83756 0.56254 0.66536 0.0
C326 C 0.8324 0.57297 0.74921 0.0
C327 C 0.81291 0.5669 0.73593 0.0
C328 C 0.80595 0.55899 0.68706 0.0
C329 C 0.81807 0.55659 0.65235 0.0
C330 C 0.7993 0.56771 0.77366 0.0
C331 C 0.79403 0.58217 0.76846 0.0
C332 C 0.79111 0.55386 0.81374 0.0
C333 C 0.79623 0.53834 0.82095 0.0
C334 C 0.79161 0.52399 0.78295 0.0
C335 C 0.79666 0.50949 0.78988 0.0
C336 C 0.80621 0.50913 0.83487 0.0
C337 C 0.81065 0.52322 0.87308 0.0
C338 C 0.80565 0.53776 0.86629 0.0
C339 C 0.72563 0.56707 0.89234 0.0
C340 C 0.72681 0.56391 0.94509 0.0
C341 C 0.7403 0.56879 0.85859 0.0
C342 C 0.75666 0.56801 0.87735 0.0
C343 C 0.75798 0.56541 0.93039 0.0
C344 C 0.74317 0.5632 0.96373 0.0
C345 C 0.77194 0.56883 0.84193 0.0
C346 C 0.77753 0.55454 0.84722 0.0
C347 C 0.78072 0.58315 0.80266 0.0
C348 C 0.77694 0.59971 0.79769 0.0
C349 C 0.77983 0.61205 0.8399 0.0
C350 C 0.77621 0.62761 0.83508 0.0
C351 C 0.76981 0.63107 0.78812 0.0
C352 C 0.76708 0.619 0.74584 0.0
C353 C 0.77067 0.60341 0.75047 0.0
H354 H 0.76702 0.64312 0.78446 0.0
H355 H 0.8101 0.49789 0.84018 0.0
H356 H 0.2911 0.83104 0.87989 0.0
H357 H 0.26491 0.80834 0.93661 0.0
H358 H 0.23107 0.83587 0.89891 0.0
H359 H 0.25747 0.85891 0.84195 0.0
H360 H 0.22826 0.82333 0.00615 0.0
H361 H 0.22275 0.79854 0.83383 0.0
H362 H 0.23677 0.79185 0.75698 0.0
H363 H 0.24733 0.75173 0.84386 0.0
H364 H 0.23417 0.75884 0.92192 0.0
H365 H 0.14174 0.74005 0.10264 0.0
H366 H 0.16383 0.76644 0.04443 0.0
H367 H 0.20256 0.7426 0.04124 0.0
H368 H 0.1805 0.71617 0.09819 0.0
H369 H 0.19994 0.75439 0.94861 0.0
H370 H 0.21087 0.7812 0.11993 0.0
H371 H 0.20137 0.78961 0.20238 0.0
H372 H 0.1833 0.82562 0.12261 0.0
H373 H 0.19232 0.8171 0.0395 0.0
C374 C 0.27827 0.83255 0.88436 0.0
C375 C 0.27624 0.84661 0.856 0.0
C376 C 0.26331 0.81956 0.91682 0.0
C377 C 0.24593 0.82023 0.92126 0.0
C378 C 0.24436 0.83511 0.89585 0.0
C379 C 0.25943 0.84822 0.86332 0.0
C380 C 0.22888 0.80416 0.94819 0.0
C381 C 0.22177 0.80829 0.99315 0.0
C382 C 0.22071 0.78451 0.93156 0.0
C383 C 0.22759 0.77935 0.88391 0.0
C384 C 0.22815 0.78837 0.83668 0.0
C385 C 0.23599 0.78453 0.7929 0.0
C386 C 0.24292 0.77136 0.79552 0.0
C387 C 0.24197 0.76195 0.84191 0.0
C388 C 0.23437 0.76592 0.88599 0.0
C389 C 0.15483 0.74031 0.08884 0.0
C390 C 0.15941 0.72607 0.1051 0.0
C391 C 0.1675 0.75546 0.0559 0.0
C392 C 0.18501 0.75667 0.03899 0.0
C393 C 0.18917 0.74201 0.05372 0.0
C394 C 0.17653 0.7269 0.0864 0.0
C395 C 0.19947 0.77343 0.00742 0.0
C396 C 0.20612 0.76944 0.96133 0.0
C397 C 0.20741 0.79315 0.02353 0.0
C398 C 0.20203 0.79832 0.07344 0.0
C399 C 0.20471 0.79078 0.11992 0.0
C400 C 0.19945 0.79559 0.16678 0.0
C401 C 0.19172 0.80812 0.16773 0.0
C402 C 0.18926 0.81589 0.1218 0.0
C403 C 0.19442 0.81106 0.0748 0.0
H404 H 0.18768 0.81185 0.20405 0.0
H405 H 0.249 0.76842 0.76157 0.0
H406 H 0.45725 0.19118 0.32752 0.0
H407 H 0.45064 0.21098 0.26759 0.0
H408 H 0.41116 0.15908 0.18245 0.0
H409 H 0.41754 0.13895 0.24327 0.0
H410 H 0.43961 0.19142 0.12125 0.0
H411 H 0.39149 0.17867 0.25184 0.0
H412 H 0.37994 0.17715 0.34086 0.0
H413 H 0.41868 0.239 0.35791 0.0
H414 H 0.43066 0.24086 0.26918 0.0
H415 H 0.41234 0.24471 0.95693 0.0
H416 H 0.41027 0.22005 0.01746 0.0
H417 H 0.43849 0.26463 0.13394 0.0
H418 H 0.43972 0.28921 0.074 0.0
H419 H 0.41262 0.23323 0.17828 0.0
H420 H 0.46353 0.24682 0.05668 0.0
H421 H 0.47875 0.25002 0.9716 0.0
H422 H 0.43918 0.18917 0.9412 0.0
H423 H 0.42354 0.18565 0.02588 0.0
C424 C 0.44715 0.18392 0.29606 0.0
C425 C 0.43796 0.1635 0.28993 0.0
C426 C 0.44331 0.19527 0.26203 0.0
C427 C 0.43031 0.18649 0.22085 0.0
C428 C 0.42119 0.16611 0.21418 0.0
C429 C 0.42482 0.15464 0.24886 0.0
C430 C 0.42686 0.19888 0.18419 0.0
C431 C 0.43331 0.20025 0.13327 0.0
C432 C 0.41932 0.21092 0.20062 0.0
C433 C 0.41204 0.20988 0.2539 0.0
C434 C 0.39764 0.19193 0.27466 0.0
C435 C 0.39098 0.19101 0.32505 0.0
C436 C 0.39854 0.20797 0.35498 0.0
C437 C 0.41278 0.22589 0.3346 0.0
C438 C 0.4195 0.22688 0.28425 0.0
C439 C 0.41783 0.24919 0.99572 0.0
C440 C 0.42627 0.2689 0.01073 0.0
C441 C 0.4168 0.23511 0.0302 0.0
C442 C 0.42468 0.2405 0.07999 0.0
C443 C 0.43237 0.26006 0.09571 0.0
C444 C 0.43308 0.27412 0.06146 0.0
C445 C 0.42552 0.22595 0.11501 0.0
C446 C 0.41867 0.22422 0.16578 0.0
C447 C 0.43311 0.21387 0.09875 0.0
C448 C 0.44224 0.21602 0.04742 0.0
C449 C 0.45796 0.23416 0.03167 0.0
C450 C 0.46669 0.23602 0.98358 0.0
C451 C 0.45996 0.2198 0.95109 0.0
C452 C 0.44441 0.2017 0.96649 0.0
C453 C 0.4356 0.19977 0.01451 0.0
H454 H 0.4668 0.22124 0.91397 0.0
H455 H 0.3934 0.20723 0.39403 0.0
H456 H 0.11963 0.48485 0.18817 0.0
H457 H 0.11874 0.51452 0.21129 0.0
H458 H 0.12469 0.53095 0.05087 0.0
H459 H 0.12633 0.50182 0.028 0.0
H460 H 0.14777 0.56122 0.10398 0.0
H461 H 0.08016 0.51179 0.11969 0.0
H462 H 0.05206 0.48109 0.1512 0.0
H463 H 0.06558 0.5021 0.3068 0.0
H464 H 0.09393 0.53284 0.27626 0.0
H465 H 0.11948 0.63339 0.1168 0.0
H466 H 0.11833 0.60227 0.1002 0.0
H467 H 0.12481 0.59561 0.26266 0.0
H468 H 0.12614 0.62683 0.27957 0.0
H469 H 0.09573 0.56071 0.21241 0.0
H470 H 0.16329 0.61089 0.19291 0.0
H471 H 0.19032 0.64165 0.15809 0.0
H472 H 0.17525 0.61875 0.00447 0.0
H473 H 0.14793 0.58794 0.03834 0.0
C474 C 0.12067 0.49479 0.15793 0.0
C475 C 0.12307 0.49106 0.10633 0.0
C476 C 0.12006 0.51169 0.17111 0.0
C477 C 0.12143 0.52491 0.13276 0.0
C478 C 0.12366 0.52104 0.08119 0.0
C479 C 0.12455 0.50435 0.06814 0.0
C480 C 0.12113 0.5431 0.14608 0.0
C481 C 0.13622 0.56101 0.12715 0.0
C482 C 0.10633 0.54298 0.17727 0.0
C483 C 0.08928 0.52453 0.19573 0.0
C484 C 0.07723 0.5098 0.16066 0.0
C485 C 0.06124 0.4924 0.17834 0.0
C486 C 0.05707 0.48962 0.23098 0.0
C487 C 0.06885 0.50426 0.26605 0.0
C488 C 0.08487 0.52168 0.24857 0.0
C489 C 0.12053 0.62524 0.14902 0.0
C490 C 0.123 0.63257 0.19945 0.0
C491 C 0.11991 0.6075 0.13947 0.0
C492 C 0.12162 0.59675 0.1802 0.0
C493 C 0.12347 0.60372 0.23076 0.0
C494 C 0.12431 0.62157 0.24029 0.0
C495 C 0.12217 0.57858 0.16967 0.0
C496 C 0.10722 0.56078 0.18927 0.0
C497 C 0.13694 0.57872 0.13854 0.0
C498 C 0.15345 0.59718 0.11814 0.0
C499 C 0.16564 0.61247 0.15167 0.0
C500 C 0.18103 0.6299 0.13211 0.0
C501 C 0.18447 0.63217 0.07909 0.0
C502 C 0.17255 0.61698 0.04553 0.0
C503 C 0.15712 0.59953 0.06489 0.0
H504 H 0.19639 0.64568 0.06402 0.0
H505 H 0.04469 0.47614 0.24459 0.0
H506 H 0.63921 0.1413 0.19086 0.0
H507 H 0.60897 0.1418 0.20802 0.0
H508 H 0.59867 0.10579 0.34253 0.0
H509 H 0.62874 0.10496 0.32508 0.0
H510 H 0.56529 0.09411 0.29047 0.0
H511 H 0.61806 0.155 0.35381 0.0
H512 H 0.64931 0.18615 0.34806 0.0
H513 H 0.62552 0.20596 0.22905 0.0
H514 H 0.5942 0.1748 0.23362 0.0
H515 H 0.5168 0.14802 0.41939 0.0
H516 H 0.54562 0.14596 0.39513 0.0
H517 H 0.515 0.1115 0.26194 0.0
H518 H 0.48592 0.11327 0.2865 0.0
H519 H 0.56873 0.15824 0.31291 0.0
H520 H 0.5305 0.07839 0.24003 0.0
H521 H 0.49981 0.0472 0.2539 0.0
H522 H 0.49548 0.06529 0.40699 0.0
H523 H 0.52626 0.09646 0.39427 0.0
C524 C 0.63044 0.1334 0.22393 0.0
C525 C 0.63639 0.12319 0.25683 0.0
C526 C 0.6132 0.13374 0.23376 0.0
C527 C 0.60169 0.12403 0.27691 0.0
C528 C 0.60733 0.11339 0.30902 0.0
C529 C 0.62455 0.11299 0.29913 0.0
C530 C 0.58408 0.12543 0.28952 0.0
C531 C 0.56602 0.10813 0.29517 0.0
C532 C 0.58508 0.14372 0.29636 0.0
C533 C 0.60386 0.16249 0.2937 0.0
C534 C 0.61955 0.16594 0.32615 0.0
C535 C 0.63726 0.18361 0.32315 0.0
C536 C 0.63942 0.198 0.28812 0.0
C537 C 0.62384 0.19478 0.25611 0.0
C538 C 0.6061 0.17713 0.25892 0.0
C539 C 0.5162 0.14002 0.38489 0.0
C540 C 0.49908 0.13074 0.35494 0.0
C541 C 0.53271 0.13891 0.37098 0.0
C542 C 0.53243 0.12845 0.32697 0.0
C543 C 0.51545 0.11943 0.29645 0.0
C544 C 0.49889 0.12051 0.31041 0.0
C545 C 0.5499 0.12692 0.31361 0.0
C546 C 0.56795 0.14421 0.30775 0.0
C547 C 0.54896 0.10862 0.30762 0.0
C548 C 0.53056 0.08984 0.31594 0.0
C549 C 0.52302 0.07568 0.2767 0.0
C550 C 0.50561 0.05801 0.28435 0.0
C551 C 0.49566 0.0543 0.33123 0.0
C552 C 0.50315 0.06822 0.37062 0.0
C553 C 0.52057 0.08589 0.36319 0.0
H554 H 0.48218 0.04062 0.33706 0.0
H555 H 0.65314 0.21167 0.28585 0.0
H556 H 0.37405 0.47938 0.46255 0.0
H557 H 0.40505 0.50942 0.44465 0.0
H558 H 0.39179 0.53972 0.56215 0.0
H559 H 0.36084 0.50996 0.57971 0.0
H560 H 0.40484 0.56143 0.4779 0.0
H561 H 0.42484 0.52496 0.58425 0.0
H562 H 0.4275 0.4963 0.61011 0.0
H563 H 0.45778 0.50001 0.46944 0.0
H564 H 0.45506 0.52855 0.44239 0.0
H565 H 0.51759 0.63092 0.50224 0.0
H566 H 0.48775 0.60055 0.52611 0.0
H567 H 0.4621 0.60024 0.37909 0.0
H568 H 0.49157 0.63057 0.35545 0.0
H569 H 0.46901 0.5641 0.48451 0.0
H570 H 0.41396 0.58387 0.39409 0.0
H571 H 0.41152 0.61324 0.37526 0.0
H572 H 0.45168 0.64419 0.49812 0.0
H573 H 0.45415 0.61494 0.51813 0.0
C574 C 0.37777 0.49246 0.48446 0.0
C575 C 0.36503 0.49233 0.52251 0.0
C576 C 0.39551 0.50958 0.47441 0.0
C577 C 0.4008 0.52677 0.50239 0.0
C578 C 0.388 0.52664 0.54008 0.0
C579 C 0.37033 0.5096 0.55013 0.0
C580 C 0.41951 0.54504 0.49209 0.0
C581 C 0.41886 0.56199 0.47928 0.0
C582 C 0.43784 0.54588 0.49485 0.0
C583 C 0.43957 0.52877 0.51108 0.0
C584 C 0.43193 0.51957 0.55865 0.0
C585 C 0.43347 0.50336 0.57355 0.0
C586 C 0.44276 0.49631 0.54138 0.0
C587 C 0.45057 0.50548 0.49429 0.0
C588 C 0.44904 0.52168 0.47917 0.0
C589 C 0.50556 0.62435 0.47511 0.0
C590 C 0.50684 0.6332 0.42718 0.0
C591 C 0.48858 0.60698 0.48868 0.0
C592 C 0.47263 0.59827 0.45461 0.0
C593 C 0.4741 0.60688 0.40632 0.0
C594 C 0.49098 0.62421 0.39284 0.0
C595 C 0.45426 0.58035 0.46954 0.0
C596 C 0.45498 0.5635 0.48312 0.0
C597 C 0.43598 0.57966 0.46847 0.0
C598 C 0.43437 0.59726 0.45727 0.0
C599 C 0.4222 0.59692 0.41722 0.0
C600 C 0.42083 0.61355 0.40632 0.0
C601 C 0.43149 0.63059 0.43537 0.0
C602 C 0.44349 0.63101 0.47552 0.0
C603 C 0.4449 0.61441 0.48662 0.0
H604 H 0.43042 0.64345 0.42683 0.0
H605 H 0.44394 0.48376 0.55299 0.0
H606 H 0.89198 0.51793 0.6451 0.0
H607 H 0.89286 0.48793 0.6634 0.0
H608 H 0.85189 0.45845 0.53993 0.0
H609 H 0.8508 0.48832 0.52177 0.0
H610 H 0.84204 0.43585 0.62402 0.0
H611 H 0.89986 0.4736 0.52382 0.0
H612 H 0.9312 0.50276 0.50062 0.0
H613 H 0.95602 0.49948 0.6449 0.0
H614 H 0.92473 0.47045 0.66929 0.0
H615 H 0.88917 0.36944 0.60927 0.0
H616 H 0.88893 0.39933 0.58486 0.0
H617 H 0.85981 0.39719 0.72738 0.0
H618 H 0.85967 0.36719 0.75149 0.0
H619 H 0.90451 0.43498 0.62671 0.0
H620 H 0.82787 0.41327 0.70751 0.0
H621 H 0.79618 0.38341 0.72379 0.0
H622 H 0.80831 0.35327 0.60452 0.0
H623 H 0.83993 0.38301 0.58706 0.0
C624 C 0.88316 0.50505 0.62188 0.0
C625 C 0.87135 0.50547 0.58193 0.0
C626 C 0.88374 0.48795 0.63223 0.0
C627 C 0.87259 0.47101 0.60269 0.0
C628 C 0.86062 0.47136 0.56316 0.0
C629 C 0.86005 0.48845 0.55275 0.0
C630 C 0.87325 0.45287 0.61329 0.0
C631 C 0.8557 0.43566 0.62462 0.0
C632 C 0.89103 0.45254 0.61318 0.0
C633 C 0.90989 0.46996 0.59857 0.0
C634 C 0.91196 0.47919 0.55077 0.0
C635 C 0.92972 0.49568 0.53737 0.0
C636 C 0.94557 0.503 0.57131 0.0
C637 C 0.94372 0.49381 0.61867 0.0
C638 C 0.92598 0.47732 0.63228 0.0
C639 C 0.88275 0.37537 0.63538 0.0
C640 C 0.87432 0.36592 0.68211 0.0
C641 C 0.88267 0.39247 0.62147 0.0
C642 C 0.87413 0.40035 0.65398 0.0
C643 C 0.86616 0.39118 0.70125 0.0
C644 C 0.86616 0.37407 0.71506 0.0
C645 C 0.87333 0.41805 0.63835 0.0
C646 C 0.89086 0.43517 0.62612 0.0
C647 C 0.85547 0.41821 0.6367 0.0
C648 C 0.83635 0.40032 0.64634 0.0
C649 C 0.82373 0.40029 0.68462 0.0
C650 C 0.80579 0.38339 0.69407 0.0
C651 C 0.80027 0.36644 0.66531 0.0
C652 C 0.81264 0.36638 0.62689 0.0
C653 C 0.83058 0.38325 0.61724 0.0
H654 H 0.78638 0.35336 0.67274 0.0
H655 H 0.95931 0.51576 0.56087 0.0
H656 H 0.36801 0.88063 0.83605 0.0
H657 H 0.39944 0.88235 0.84957 0.0
H658 H 0.40728 0.88207 0.68508 0.0
H659 H 0.37536 0.87952 0.67147 0.0
H660 H 0.41743 0.85895 0.72695 0.0
H661 H 0.43348 0.92447 0.76073 0.0
H662 H 0.43021 0.95124 0.79942 0.0
H663 H 0.43862 0.93424 0.95014 0.0
H664 H 0.44167 0.90718 0.91242 0.0
H665 H 0.51864 0.88611 0.75909 0.0
H666 H 0.48971 0.88855 0.73658 0.0
H667 H 0.46831 0.87291 0.89208 0.0
H668 H 0.49694 0.87006 0.91458 0.0
H669 H 0.46703 0.90645 0.84835 0.0
H670 H 0.44871 0.83915 0.80954 0.0
H671 H 0.45315 0.81372 0.76678 0.0
H672 H 0.45087 0.83681 0.61878 0.0
H673 H 0.44671 0.86257 0.66075 0.0
C674 C 0.37648 0.88104 0.80276 0.0
C675 C 0.36927 0.88 0.75271 0.0
C676 C 0.39452 0.88215 0.81051 0.0
C677 C 0.40596 0.88271 0.76834 0.0
C678 C 0.39878 0.88171 0.71824 0.0
C679 C 0.38056 0.8803 0.71048 0.0
C680 C 0.42506 0.88362 0.77681 0.0
C681 C 0.4284 0.8696 0.75277 0.0
C682 C 0.43939 0.89738 0.81084 0.0
C683 C 0.43765 0.91369 0.83375 0.0
C684 C 0.4345 0.92635 0.80216 0.0
C685 C 0.4327 0.94159 0.82392 0.0
C686 C 0.43417 0.94441 0.87721 0.0
C687 C 0.43748 0.93203 0.90886 0.0
C688 C 0.43926 0.91675 0.88731 0.0
C689 C 0.50778 0.88325 0.78846 0.0
C690 C 0.50997 0.87783 0.83853 0.0
C691 C 0.49129 0.88463 0.77555 0.0
C692 C 0.47691 0.88088 0.8127 0.0
C693 C 0.47929 0.87589 0.86296 0.0
C694 C 0.49558 0.87419 0.87566 0.0
C695 C 0.45911 0.88168 0.79908 0.0
C696 C 0.45607 0.896 0.82215 0.0
C697 C 0.44524 0.86846 0.76349 0.0
C698 C 0.44763 0.85292 0.73829 0.0
C699 C 0.44934 0.83892 0.7679 0.0
C700 C 0.45177 0.82442 0.7438 0.0
C701 C 0.45235 0.82368 0.6901 0.0
C702 C 0.45045 0.83741 0.66037 0.0
C703 C 0.44805 0.85196 0.68429 0.0
H704 H 0.45423 0.81245 0.67151 0.0
H705 H 0.43277 0.95622 0.89399 0.0
H706 H 0.48079 0.37192 0.99367 0.0
H707 H 0.51174 0.40196 0.01031 0.0
H708 H 0.54179 0.38142 0.91183 0.0
H709 H 0.51079 0.35153 0.89414 0.0
H710 H 0.54532 0.4103 0.05225 0.0
H711 H 0.57812 0.41991 0.8472 0.0
H712 H 0.56674 0.41158 0.75734 0.0
H713 H 0.51312 0.41007 0.79657 0.0
H714 H 0.52429 0.41865 0.88642 0.0
H715 H 0.64438 0.48515 0.06293 0.0
H716 H 0.61447 0.45414 0.04566 0.0
H717 H 0.59389 0.48408 0.94677 0.0
H718 H 0.6241 0.51498 0.96248 0.0
H719 H 0.58502 0.45092 0.90521 0.0
H720 H 0.57744 0.47089 0.07363 0.0
H721 H 0.58653 0.48147 0.16371 0.0
H722 H 0.58561 0.42778 0.19825 0.0
H723 H 0.57676 0.41698 0.10816 0.0
C724 C 0.49402 0.37375 0.97583 0.0
C725 C 0.49335 0.35943 0.94235 0.0
C726 C 0.5117 0.39091 0.98545 0.0
C727 C 0.52906 0.39408 0.96178 0.0
C728 C 0.52853 0.37946 0.92979 0.0
C729 C 0.51083 0.36235 0.91992 0.0
C730 C 0.54757 0.41288 0.96963 0.0
C731 C 0.55403 0.41914 0.0201 0.0
C732 C 0.55873 0.42467 0.92774 0.0
C733 C 0.55196 0.4197 0.87365 0.0
C734 C 0.56393 0.41785 0.83659 0.0
C735 C 0.55751 0.41309 0.78567 0.0
C736 C 0.53919 0.41023 0.7713 0.0
C737 C 0.52728 0.4122 0.80778 0.0
C738 C 0.53363 0.417 0.85873 0.0
C739 C 0.63352 0.48508 0.03722 0.0
C740 C 0.63651 0.50249 0.01422 0.0
C741 C 0.61638 0.46737 0.0276 0.0
C742 C 0.60173 0.4668 0.99564 0.0
C743 C 0.60494 0.48412 0.97162 0.0
C744 C 0.6222 0.50179 0.98069 0.0
C745 C 0.58292 0.44826 0.98788 0.0
C746 C 0.57639 0.44203 0.9374 0.0
C747 C 0.57138 0.4368 0.02981 0.0
C748 C 0.57663 0.44321 0.08405 0.0
C749 C 0.57931 0.4614 0.10036 0.0
C750 C 0.5844 0.46743 0.15142 0.0
C751 C 0.5867 0.45533 0.18665 0.0
C752 C 0.58385 0.43715 0.17091 0.0
C753 C 0.57878 0.43106 0.11986 0.0
H754 H 0.59064 0.46002 0.22617 0.0
H755 H 0.53425 0.40652 0.73187 0.0
H756 H 0.25192 0.40986 0.65638 0.0
H757 H 0.22774 0.40989 0.7153 0.0
H758 H 0.26816 0.47005 0.75487 0.0
H759 H 0.29247 0.4701 0.69623 0.0
H760 H 0.24938 0.44783 0.83951 0.0
H761 H 0.23243 0.45995 0.67141 0.0
H762 H 0.22439 0.45343 0.57914 0.0
H763 H 0.17375 0.39829 0.61627 0.0
H764 H 0.18167 0.40435 0.7088 0.0
H765 H 0.18321 0.47302 0.95069 0.0
H766 H 0.20648 0.47212 0.89006 0.0
H767 H 0.1664 0.41091 0.86136 0.0
H768 H 0.14305 0.41165 0.92233 0.0
H769 H 0.18459 0.43307 0.77142 0.0
H770 H 0.20156 0.42125 0.93984 0.0
H771 H 0.20965 0.42802 0.03201 0.0
H772 H 0.26041 0.48294 0.99397 0.0
H773 H 0.25242 0.47664 0.90152 0.0
C774 C 0.2557 0.42304 0.67793 0.0
C775 C 0.27402 0.44001 0.6716 0.0
C776 C 0.24186 0.42306 0.71136 0.0
C777 C 0.24611 0.44005 0.73886 0.0
C778 C 0.26461 0.45681 0.73383 0.0
C779 C 0.27845 0.45683 0.70029 0.0
C780 C 0.2311 0.44047 0.77212 0.0
C781 C 0.23531 0.44484 0.82453 0.0
C782 C 0.21261 0.43616 0.75261 0.0
C783 C 0.20776 0.43252 0.69701 0.0
C784 C 0.21967 0.44636 0.65988 0.0
C785 C 0.21512 0.44276 0.60754 0.0
C786 C 0.1986 0.42543 0.59184 0.0
C787 C 0.18657 0.41169 0.62848 0.0
C788 C 0.19107 0.41521 0.68089 0.0
C789 C 0.17925 0.45943 0.931 0.0
C790 C 0.16139 0.44237 0.94134 0.0
C791 C 0.19257 0.45893 0.89659 0.0
C792 C 0.18819 0.4414 0.87181 0.0
C793 C 0.17001 0.42455 0.8803 0.0
C794 C 0.15675 0.42499 0.91513 0.0
C795 C 0.20293 0.44051 0.83865 0.0
C796 C 0.19867 0.43604 0.78633 0.0
C797 C 0.22139 0.44476 0.8582 0.0
C798 C 0.22627 0.44857 0.91377 0.0
C799 C 0.21434 0.43486 0.95113 0.0
C800 C 0.21893 0.43859 0.00343 0.0
C801 C 0.2355 0.45592 0.01885 0.0
C802 C 0.24755 0.46954 0.98197 0.0
C803 C 0.24301 0.46589 0.92961 0.0
H804 H 0.23904 0.45878 0.05935 0.0
H805 H 0.1951 0.42267 0.55129 0.0
H806 H 0.75476 0.16632 0.16185 0.0
H807 H 0.77813 0.19045 0.10128 0.0
H808 H 0.73181 0.19714 0.03382 0.0
H809 H 0.70834 0.17295 0.09413 0.0
H810 H 0.75359 0.19143 0.9617 0.0
H811 H 0.76546 0.23247 0.11013 0.0
H812 H 0.77341 0.24221 0.20112 0.0
H813 H 0.8287 0.24466 0.1834 0.0
H814 H 0.821 0.23472 0.0924 0.0
H815 H 0.81007 0.27803 0.81499 0.0
H816 H 0.78815 0.2545 0.87918 0.0
H817 H 0.83505 0.24582 0.93254 0.0
H818 H 0.85696 0.26905 0.86765 0.0
H819 H 0.81395 0.25232 0.01246 0.0
H820 H 0.80291 0.21125 0.86731 0.0
H821 H 0.79492 0.19865 0.7785 0.0
H822 H 0.7387 0.19448 0.79108 0.0
H823 H 0.74643 0.20728 0.87987 0.0
C824 C 0.74958 0.17299 0.13419 0.0
C825 C 0.72973 0.16772 0.13245 0.0
C826 C 0.76296 0.18684 0.09987 0.0
C827 C 0.7567 0.19564 0.06333 0.0
C828 C 0.73691 0.1905 0.0618 0.0
C829 C 0.72355 0.17673 0.09627 0.0
C830 C 0.77058 0.20956 0.02511 0.0
C831 C 0.76662 0.20493 0.97274 0.0
C832 C 0.78793 0.22674 0.0398 0.0
C833 C 0.79259 0.2327 0.09453 0.0
C834 C 0.77926 0.23495 0.12572 0.0
C835 C 0.78374 0.24056 0.17725 0.0
C836 C 0.80157 0.2441 0.19797 0.0
C837 C 0.81493 0.24199 0.16723 0.0
C838 C 0.81052 0.23637 0.11567 0.0
C839 C 0.8157 0.27112 0.84048 0.0
C840 C 0.83518 0.27533 0.8365 0.0
C841 C 0.80317 0.25765 0.87689 0.0
C842 C 0.81002 0.24842 0.91032 0.0
C843 C 0.82954 0.25282 0.90697 0.0
C844 C 0.84199 0.26602 0.86991 0.0
C845 C 0.79675 0.23431 0.94909 0.0
C846 C 0.80087 0.23888 0.00148 0.0
C847 C 0.77959 0.21696 0.93451 0.0
C848 C 0.77534 0.21043 0.88009 0.0
C849 C 0.78896 0.20794 0.8509 0.0
C850 C 0.78443 0.20063 0.80068 0.0
C851 C 0.76628 0.19568 0.77929 0.0
C852 C 0.75272 0.19825 0.80781 0.0
C853 C 0.75717 0.20554 0.85808 0.0
H854 H 0.76273 0.18988 0.74055 0.0
H855 H 0.805 0.24842 0.23789 0.0
H856 H 0.58678 0.73584 0.25185 0.0
H857 H 0.58594 0.75843 0.18882 0.0
H858 H 0.5228 0.72613 0.19158 0.0
H859 H 0.52354 0.70326 0.25401 0.0
H860 H 0.53656 0.73746 0.09473 0.0
H861 H 0.54742 0.76741 0.26131 0.0
H862 H 0.56394 0.77909 0.34511 0.0
H863 H 0.61758 0.8186 0.26805 0.0
H864 H 0.60144 0.80694 0.18372 0.0
H865 H 0.52353 0.81325 0.98552 0.0
H866 H 0.52267 0.78852 0.04428 0.0
H867 H 0.5858 0.81847 0.0449 0.0
H868 H 0.58677 0.84329 0.98677 0.0
H869 H 0.57092 0.80795 0.14091 0.0
H870 H 0.55982 0.77749 0.974 0.0
H871 H 0.543 0.7657 0.8906 0.0
H872 H 0.48931 0.72723 0.96897 0.0
H873 H 0.50577 0.73899 0.0529 0.0
C874 C 0.57273 0.73343 0.23858 0.0
C875 C 0.55522 0.7179 0.25808 0.0
C876 C 0.57226 0.74638 0.20277 0.0
C877 C 0.5543 0.74414 0.18629 0.0
C878 C 0.5368 0.72815 0.204 0.0
C879 C 0.53725 0.71513 0.23969 0.0
C880 C 0.55381 0.75892 0.1522 0.0
C881 C 0.54385 0.75284 0.10506 0.0
C882 C 0.56355 0.77901 0.16552 0.0
C883 C 0.57326 0.78617 0.21619 0.0
C884 C 0.56277 0.77849 0.26222 0.0
C885 C 0.57206 0.78512 0.30982 0.0
C886 C 0.59181 0.79954 0.3119 0.0
C887 C 0.60229 0.80741 0.26637 0.0
C888 C 0.59307 0.8008 0.21867 0.0
C889 C 0.53721 0.81456 0.99831 0.0
C890 C 0.55522 0.83015 0.98154 0.0
C891 C 0.5367 0.8004 0.03164 0.0
C892 C 0.55418 0.80158 0.04848 0.0
C893 C 0.57215 0.81729 0.03231 0.0
C894 C 0.57268 0.83142 0.99902 0.0
C895 C 0.55385 0.78654 0.08317 0.0
C896 C 0.5636 0.79257 0.13057 0.0
C897 C 0.54387 0.76642 0.07014 0.0
C898 C 0.53398 0.75927 0.01972 0.0
C899 C 0.54439 0.76663 0.97345 0.0
C900 C 0.53493 0.75993 0.92608 0.0
C901 C 0.51508 0.74576 0.92449 0.0
C902 C 0.50468 0.73822 0.97027 0.0
C903 C 0.51407 0.74489 0.01774 0.0
H904 H 0.50778 0.74059 0.88778 0.0
H905 H 0.59898 0.80466 0.34878 0.0
H906 H 0.83498 0.5875 0.49057 0.0
H907 H 0.80949 0.58881 0.44036 0.0
H908 H 0.80718 0.54466 0.33756 0.0
H909 H 0.83196 0.54258 0.38948 0.0
H910 H 0.80549 0.59814 0.35051 0.0
H911 H 0.76245 0.51561 0.29232 0.0
H912 H 0.75525 0.48374 0.32827 0.0
H913 H 0.76509 0.50753 0.48123 0.0
H914 H 0.77207 0.53944 0.44628 0.0
H915 H 0.74618 0.58499 0.13756 0.0
H916 H 0.76921 0.58669 0.20246 0.0
H917 H 0.72106 0.54778 0.30043 0.0
H918 H 0.69789 0.54503 0.23345 0.0
H919 H 0.74536 0.53653 0.30282 0.0
H920 H 0.75256 0.59916 0.32633 0.0
H921 H 0.75716 0.63144 0.30235 0.0
H922 H 0.81403 0.64834 0.24137 0.0
H923 H 0.80967 0.61606 0.26429 0.0
C924 C 0.82911 0.57817 0.45704 0.0
C925 C 0.83531 0.56484 0.44397 0.0
C926 C 0.81454 0.57893 0.42837 0.0
C927 C 0.80611 0.56656 0.38575 0.0
C928 C 0.81304 0.55394 0.37117 0.0
C929 C 0.82731 0.55287 0.40052 0.0
C930 C 0.78993 0.5667 0.35692 0.0
C931 C 0.7923 0.58468 0.34024 0.0
C932 C 0.77237 0.54921 0.34521 0.0
C933 C 0.76795 0.52997 0.36659 0.0
C934 C 0.76298 0.51401 0.33363 0.0
C935 C 0.75896 0.49594 0.35384 0.0
C936 C 0.75977 0.49363 0.40698 0.0
C937 C 0.76454 0.50935 0.44006 0.0
C938 C 0.76854 0.52744 0.42006 0.0
C939 C 0.7405 0.57701 0.17326 0.0
C940 C 0.72029 0.56494 0.18073 0.0
C941 C 0.75369 0.57809 0.21057 0.0
C942 C 0.74694 0.56767 0.25696 0.0
C943 C 0.72666 0.55597 0.26501 0.0
C944 C 0.71343 0.55447 0.22694 0.0
C945 C 0.76112 0.56797 0.29511 0.0
C946 C 0.75841 0.55004 0.31355 0.0
C947 C 0.77795 0.58559 0.31042 0.0
C948 C 0.78073 0.60512 0.29679 0.0
C949 C 0.766 0.60971 0.30753 0.0
C950 C 0.76857 0.62802 0.29416 0.0
C951 C 0.78587 0.64192 0.27029 0.0
C952 C 0.80064 0.63756 0.25986 0.0
C953 C 0.79814 0.61926 0.27311 0.0
H954 H 0.78782 0.65608 0.25995 0.0
H955 H 0.75667 0.47963 0.42254 0.0
H956 H 0.16577 0.74794 0.32139 0.0
H957 H 0.19058 0.76979 0.38259 0.0
H958 H 0.2064 0.72571 0.41319 0.0
H959 H 0.18136 0.70358 0.3521 0.0
H960 H 0.2025 0.74228 0.50138 0.0
H961 H 0.23617 0.76464 0.34129 0.0
H962 H 0.24035 0.77552 0.25083 0.0
H963 H 0.23515 0.82517 0.29507 0.0
H964 H 0.23068 0.81445 0.38579 0.0
H965 H 0.2883 0.81158 0.64112 0.0
H966 H 0.26671 0.78714 0.57794 0.0
H967 H 0.2424 0.82372 0.53806 0.0
H968 H 0.26369 0.84803 0.60135 0.0
H969 H 0.25325 0.80966 0.45239 0.0
H970 H 0.21486 0.78505 0.60764 0.0
H971 H 0.20735 0.77298 0.69704 0.0
H972 H 0.22067 0.72776 0.66118 0.0
H973 H 0.22813 0.73951 0.57135 0.0
C974 C 0.17454 0.74289 0.34107 0.0
C975 C 0.17167 0.72408 0.33197 0.0
C976 C 0.18878 0.75543 0.3758 0.0
C977 C 0.20049 0.74945 0.40184 0.0
C978 C 0.19755 0.7306 0.39324 0.0
C979 C 0.18329 0.71802 0.35836 0.0
C980 C 0.21543 0.76283 0.43897 0.0
C981 C 0.21389 0.75686 0.49047 0.0
C982 C 0.22999 0.78198 0.4248 0.0
C983 C 0.23298 0.78867 0.37036 0.0
C984 C 0.23581 0.77782 0.33172 0.0
C985 C 0.23825 0.78397 0.2804 0.0
C986 C 0.23802 0.80102 0.26722 0.0
C987 C 0.23536 0.81197 0.30536 0.0
C988 C 0.2329 0.80588 0.35676 0.0
C989 C 0.27832 0.81437 0.61887 0.0
C990 C 0.27765 0.83168 0.62603 0.0
C991 C 0.26599 0.8004 0.58301 0.0
C992 C 0.25298 0.80366 0.5535 0.0
C993 C 0.25238 0.82098 0.56045 0.0
C994 C 0.2645 0.8348 0.59669 0.0
C995 C 0.2401 0.78918 0.51483 0.0
C996 C 0.24207 0.79496 0.46304 0.0
C997 C 0.22591 0.76988 0.5287 0.0
C998 C 0.22228 0.7633 0.58305 0.0
C999 C 0.2164 0.77268 0.619 0.0
C1000 C 0.21206 0.76583 0.66965 0.0
C1001 C 0.2136 0.74966 0.68482 0.0
C1002 C 0.2195 0.7403 0.64937 0.0
C1003 C 0.22373 0.74701 0.59856 0.0
H1004 H 0.21015 0.74433 0.724 0.0
H1005 H 0.23991 0.80576 0.22746 0.0
H1006 H 0.40958 0.26325 0.76748 0.0
H1007 H 0.41037 0.24028 0.70574 0.0
H1008 H 0.47305 0.27653 0.6933 0.0
H1009 H 0.47245 0.29951 0.75597 0.0
H1010 H 0.45078 0.2579 0.59581 0.0
H1011 H 0.46006 0.24412 0.77182 0.0
H1012 H 0.45085 0.23886 0.86349 0.0
H1013 H 0.396 0.18815 0.82463 0.0
H1014 H 0.40459 0.19359 0.73234 0.0
H1015 H 0.47794 0.18987 0.51051 0.0
H1016 H 0.47586 0.2141 0.56485 0.0
H1017 H 0.41406 0.1746 0.58623 0.0
H1018 H 0.41595 0.15033 0.53121 0.0
H1019 H 0.43483 0.1947 0.67776 0.0
H1020 H 0.42524 0.20685 0.50357 0.0
H1021 H 0.43306 0.21202 0.41107 0.0
H1022 H 0.48654 0.26506 0.44475 0.0
H1023 H 0.47944 0.25981 0.53779 0.0
C1024 C 0.42349 0.26657 0.7508 0.0
C1025 C 0.441 0.28303 0.76689 0.0
C1026 C 0.4239 0.25345 0.71556 0.0
C1027 C 0.44177 0.25671 0.69551 0.0
C1028 C 0.45913 0.27386 0.70849 0.0
C1029 C 0.45877 0.28688 0.74436 0.0
C1030 C 0.44254 0.24114 0.66599 0.0
C1031 C 0.44753 0.24416 0.61368 0.0
C1032 C 0.4378 0.2231 0.68945 0.0
C1033 C 0.43287 0.21942 0.74506 0.0
C1034 C 0.44595 0.23197 0.78272 0.0
C1035 C 0.44084 0.22895 0.83483 0.0
C1036 C 0.42285 0.21318 0.84992 0.0
C1037 C 0.40993 0.20039 0.81288 0.0
C1038 C 0.41489 0.20346 0.76063 0.0
C1039 C 0.46396 0.18624 0.52735 0.0
C1040 C 0.44707 0.16829 0.51651 0.0
C1041 C 0.4628 0.2001 0.55818 0.0
C1042 C 0.44478 0.19614 0.57898 0.0
C1043 C 0.42807 0.17787 0.57034 0.0
C1044 C 0.42917 0.16409 0.5389 0.0
C1045 C 0.44326 0.2115 0.60756 0.0
C1046 C 0.43809 0.20842 0.65976 0.0
C1047 C 0.44769 0.22941 0.58385 0.0
C1048 C 0.45192 0.2328 0.52782 0.0
C1049 C 0.43879 0.21951 0.49137 0.0
C1050 C 0.44307 0.22247 0.43879 0.0
C1051 C 0.46026 0.23888 0.422 0.0
C1052 C 0.47323 0.25234 0.45782 0.0
C1053 C 0.46911 0.24935 0.51052 0.0
H1054 H 0.4635 0.24117 0.38125 0.0
H1055 H 0.41893 0.21086 0.8903 0.0
H1056 H 0.06998 0.37887 0.01718 0.0
H1057 H 0.03814 0.35917 0.97417 0.0
H1058 H 0.03206 0.41038 0.96144 0.0
H1059 H 0.06385 0.4301 0.00294 0.0
H1060 H 0.99731 0.37456 0.99671 0.0
H1061 H 0.04762 0.39921 0.86262 0.0
H1062 H 0.0774 0.40264 0.82172 0.0
H1063 H 0.05004 0.34016 0.80802 0.0
H1064 H 0.02018 0.33637 0.84959 0.0
H1065 H 0.92836 0.36209 0.81341 0.0
H1066 H 0.95857 0.37356 0.86204 0.0
H1067 H 0.9607 0.32194 0.8175 0.0
H1068 H 0.93069 0.31077 0.76656 0.0
H1069 H 0.99619 0.35192 0.81771 0.0
H1070 H 0.94461 0.32637 0.93953 0.0
H1071 H 0.91454 0.3213 0.9824 0.0
H1072 H 0.94322 0.38209 0.02405 0.0
H1073 H 0.97339 0.3876 0.98076 0.0
C1074 C 0.06168 0.3858 0.00577 0.0
C1075 C 0.06934 0.40598 0.01325 0.0
C1076 C 0.0436 0.37459 0.98109 0.0
C1077 C 0.03284 0.38338 0.96454 0.0
C1078 C 0.04014 0.40334 0.97399 0.0
C1079 C 0.0583 0.41458 0.99759 0.0
C1080 C 0.01434 0.37223 0.93539 0.0
C1081 C 0.99701 0.36961 0.95755 0.0
C1082 C 0.01391 0.36518 0.88504 0.0
C1083 C 0.03179 0.3675 0.85979 0.0
C1084 C 0.04803 0.3862 0.85134 0.0
C1085 C 0.0649 0.38822 0.82794 0.0
C1086 C 0.06563 0.37163 0.81244 0.0
C1087 C 0.04947 0.353 0.82016 0.0
C1088 C 0.03257 0.35091 0.84361 0.0
C1089 C 0.93534 0.35325 0.8136 0.0
C1090 C 0.92712 0.33547 0.78656 0.0
C1091 C 0.95254 0.35974 0.84178 0.0
C1092 C 0.96163 0.34834 0.84484 0.0
C1093 C 0.95386 0.3309 0.81617 0.0
C1094 C 0.93675 0.32455 0.78705 0.0
C1095 C 0.9791 0.35475 0.87839 0.0
C1096 C 0.99627 0.35647 0.85718 0.0
C1097 C 0.97931 0.36066 0.9301 0.0
C1098 C 0.96124 0.35741 0.95661 0.0
C1099 C 0.94448 0.33869 0.95757 0.0
C1100 C 0.92741 0.33573 0.98197 0.0
C1101 C 0.92696 0.35137 0.00587 0.0
C1102 C 0.94359 0.36999 0.00552 0.0
C1103 C 0.96069 0.37303 0.98111 0.0
H1104 H 0.91374 0.34905 0.02473 0.0
H1105 H 0.07871 0.37321 0.79433 0.0
H1106 H 0.57681 0.91505 0.02214 0.0
H1107 H 0.59533 0.94616 0.06705 0.0
H1108 H 0.62939 0.97232 0.92996 0.0
H1109 H 0.61091 0.9409 0.88454 0.0
H1110 H 0.65228 0.98337 0.01674 0.0
H1111 H 0.59362 0.98143 0.96197 0.0
H1112 H 0.55805 0.96739 0.95074 0.0
H1113 H 0.55042 0.96483 0.11485 0.0
H1114 H 0.58593 0.97859 0.12709 0.0
H1115 H 0.68609 0.08255 0.09378 0.0
H1116 H 0.67138 0.05092 0.0498 0.0
H1117 H 0.64014 0.02217 0.18849 0.0
H1118 H 0.65506 0.05385 0.23307 0.0
H1119 H 0.61636 0.01282 0.09959 0.0
H1120 H 0.67578 0.01539 0.15302 0.0
H1121 H 0.7115 0.0301 0.16225 0.0
H1122 H 0.71787 0.03256 0.99774 0.0
H1123 H 0.68219 0.01812 0.98751 0.0
C1124 C 0.58826 0.92739 0.00141 0.0
C1125 C 0.59232 0.92556 0.94963 0.0
C1126 C 0.5988 0.94519 0.02717 0.0
C1127 C 0.61356 0.96164 0.00169 0.0
C1128 C 0.61801 0.95981 0.95029 0.0
C1129 C 0.60741 0.9419 0.92436 0.0
C1130 C 0.62405 0.98072 0.02897 0.0
C1131 C 0.64447 0.98997 0.0342 0.0
C1132 C 0.61381 0.98914 0.05261 0.0
C1133 C 0.59243 0.98087 0.04544 0.0
C1134 C 0.58434 0.97772 0.99568 0.0
C1135 C 0.56419 0.96984 0.98913 0.0
C1136 C 0.55197 0.96517 0.03205 0.0
C1137 C 0.5599 0.96842 0.08163 0.0
C1138 C 0.58004 0.97628 0.0884 0.0
C1139 C 0.6763 0.06946 0.11514 0.0
C1140 C 0.6717 0.07065 0.16684 0.0
C1141 C 0.66795 0.0514 0.08998 0.0
C1142 C 0.65471 0.03422 0.11591 0.0
C1143 C 0.65036 0.03529 0.16786 0.0
C1144 C 0.65894 0.05335 0.19331 0.0
C1145 C 0.64454 0.01535 0.08776 0.0
C1146 C 0.62416 0.0062 0.08219 0.0
C1147 C 0.65485 0.00715 0.0635 0.0
C1148 C 0.67632 0.01586 0.06951 0.0
C1149 C 0.68481 0.01924 0.1188 0.0
C1150 C 0.70505 0.02749 0.12422 0.0
C1151 C 0.71696 0.03231 0.08061 0.0
C1152 C 0.70864 0.02884 0.03149 0.0
C1153 C 0.6884 0.02061 0.02586 0.0
H1154 H 0.73262 0.03869 0.08489 0.0
H1155 H 0.53638 0.95908 0.0269 0.0
H1156 H 0.68833 0.61937 0.08457 0.0
H1157 H 0.67625 0.63936 0.12608 0.0
H1158 H 0.62203 0.587 0.16278 0.0
H1159 H 0.63404 0.56708 0.12232 0.0
H1160 H 0.61722 0.61774 0.12314 0.0
H1161 H 0.65571 0.60652 0.25154 0.0
H1162 H 0.68614 0.60875 0.28404 0.0
H1163 H 0.71568 0.67138 0.27133 0.0
H1164 H 0.68546 0.66949 0.23802 0.0
H1165 H 0.56821 0.63428 0.31889 0.0
H1166 H 0.58689 0.62271 0.2704 0.0
H1167 H 0.63772 0.68052 0.27591 0.0
H1168 H 0.61909 0.69211 0.32631 0.0
H1169 H 0.64824 0.65303 0.28527 0.0
H1170 H 0.60939 0.66522 0.16793 0.0
H1171 H 0.57949 0.66382 0.13425 0.0
H1172 H 0.55171 0.60128 0.12191 0.0
H1173 H 0.58134 0.60226 0.15626 0.0
C1174 C 0.67374 0.6122 0.10091 0.0
C1175 C 0.66211 0.59169 0.10033 0.0
C1176 C 0.66692 0.6236 0.1248 0.0
C1177 C 0.6483 0.61462 0.14773 0.0
C1178 C 0.63644 0.59421 0.14531 0.0
C1179 C 0.64333 0.58285 0.12225 0.0
C1180 C 0.64112 0.62613 0.17598 0.0
C1181 C 0.62396 0.62544 0.15862 0.0
C1182 C 0.65033 0.63672 0.2213 0.0
C1183 C 0.66841 0.63785 0.24169 0.0
C1184 C 0.66874 0.62075 0.25525 0.0
C1185 C 0.68594 0.62196 0.2739 0.0
C1186 C 0.70285 0.64019 0.27958 0.0
C1187 C 0.70258 0.65727 0.26679 0.0
C1188 C 0.68542 0.65614 0.24805 0.0
C1189 C 0.58344 0.6445 0.31037 0.0
C1190 C 0.59215 0.66413 0.32593 0.0
C1191 C 0.59408 0.63789 0.28236 0.0
C1192 C 0.61356 0.65087 0.2682 0.0
C1193 C 0.62266 0.67029 0.28598 0.0
C1194 C 0.61203 0.67688 0.31479 0.0
C1195 C 0.6239 0.64407 0.23334 0.0
C1196 C 0.64166 0.64567 0.2493 0.0
C1197 C 0.61538 0.63449 0.18626 0.0
C1198 C 0.59757 0.63382 0.16495 0.0
C1199 C 0.59687 0.65116 0.1583 0.0
C1200 C 0.57997 0.65044 0.13907 0.0
C1201 C 0.5637 0.63247 0.12601 0.0
C1202 C 0.56432 0.61519 0.13204 0.0
C1203 C 0.58118 0.61582 0.15132 0.0
H1204 H 0.55063 0.63195 0.11115 0.0
H1205 H 0.71616 0.6411 0.29401 0.0
H1206 H 0.08626 0.6864 0.36031 0.0
H1207 H 0.05445 0.67306 0.40238 0.0
H1208 H 0.02589 0.64267 0.26246 0.0
H1209 H 0.05779 0.65651 0.21957 0.0
H1210 H 0.00501 0.65646 0.3087 0.0
H1211 H 0.03518 0.61936 0.36161 0.0
H1212 H 0.06143 0.61455 0.39746 0.0
H1213 H 0.05795 0.63962 0.54112 0.0
H1214 H 0.03185 0.64483 0.50585 0.0
H1215 H 0.91701 0.57942 0.41021 0.0
H1216 H 0.94894 0.59952 0.37033 0.0
H1217 H 0.9716 0.63045 0.5135 0.0
H1218 H 0.93944 0.6102 0.55403 0.0
H1219 H 0.99579 0.61855 0.4691 0.0
H1220 H 0.96307 0.6529 0.41607 0.0
H1221 H 0.93618 0.65631 0.37878 0.0
H1222 H 0.94366 0.63476 0.23367 0.0
H1223 H 0.97042 0.63095 0.27031 0.0
C1224 C 0.07319 0.67706 0.33828 0.0
C1225 C 0.0745 0.67235 0.28677 0.0
C1226 C 0.05502 0.66937 0.36246 0.0
C1227 C 0.0378 0.6565 0.33598 0.0
C1228 C 0.03899 0.65249 0.28376 0.0
C1229 C 0.05721 0.66039 0.25929 0.0
C1230 C 0.01871 0.64657 0.36345 0.0
C1231 C 0.00294 0.64802 0.3435 0.0
C1232 C 0.01609 0.63589 0.40952 0.0
C1233 C 0.03171 0.63267 0.43091 0.0
C1234 C 0.04011 0.62398 0.40072 0.0
C1235 C 0.05495 0.62116 0.42095 0.0
C1236 C 0.06139 0.62683 0.47149 0.0
C1237 C 0.05297 0.63527 0.50195 0.0
C1238 C 0.03814 0.63814 0.48187 0.0
C1239 C 0.92874 0.59055 0.43328 0.0
C1240 C 0.92572 0.59324 0.4853 0.0
C1241 C 0.94697 0.6021 0.41028 0.0
C1242 C 0.96259 0.61664 0.43874 0.0
C1243 C 0.95969 0.61936 0.4908 0.0
C1244 C 0.94134 0.60783 0.51386 0.0
C1245 C 0.98208 0.62835 0.41422 0.0
C1246 C 0.99791 0.62717 0.43463 0.0
C1247 C 0.98468 0.63911 0.36836 0.0
C1248 C 0.96867 0.6415 0.34608 0.0
C1249 C 0.95889 0.64875 0.37632 0.0
C1250 C 0.94368 0.65078 0.35527 0.0
C1251 C 0.93819 0.64572 0.30392 0.0
C1252 C 0.94792 0.63866 0.27346 0.0
C1253 C 0.96313 0.63659 0.29433 0.0
H1254 H 0.92641 0.64729 0.2877 0.0
H1255 H 0.07288 0.62463 0.48709 0.0
H1256 H 0.39366 0.06492 0.41128 0.0
H1257 H 0.37453 0.03341 0.45548 0.0
H1258 H 0.41602 0.05434 0.58082 0.0
H1259 H 0.43531 0.08548 0.53652 0.0
H1260 H 0.40737 0.01884 0.55741 0.0
H1261 H 0.37049 0.05088 0.59013 0.0
H1262 H 0.35249 0.068 0.5682 0.0
H1263 H 0.31098 0.0182 0.48089 0.0
H1264 H 0.32889 0.00086 0.50172 0.0
H1265 H 0.35077 0.94539 0.74114 0.0
H1266 H 0.36658 0.97769 0.69975 0.0
H1267 H 0.33187 0.95227 0.56323 0.0
H1268 H 0.31626 0.91996 0.60395 0.0
H1269 H 0.33638 0.98972 0.59288 0.0
H1270 H 0.37458 0.95832 0.56094 0.0
H1271 H 0.39243 0.94148 0.58726 0.0
H1272 H 0.43168 0.99124 0.67835 0.0
H1273 H 0.41385 0.00827 0.65318 0.0
C1274 C 0.39867 0.06275 0.44822 0.0
C1275 C 0.41598 0.07767 0.47041 0.0
C1276 C 0.38769 0.04479 0.4736 0.0
C1277 C 0.39371 0.04155 0.52183 0.0
C1278 C 0.41106 0.05644 0.54371 0.0
C1279 C 0.42206 0.07428 0.51832 0.0
C1280 C 0.38223 0.0226 0.54946 0.0
C1281 C 0.3919 0.01266 0.56567 0.0
C1282 C 0.36196 0.01428 0.55968 0.0
C1283 C 0.35116 0.02466 0.54702 0.0
C1284 C 0.35762 0.04364 0.56589 0.0
C1285 C 0.34742 0.05337 0.55373 0.0
C1286 C 0.33064 0.04422 0.52304 0.0
C1287 C 0.324 0.02528 0.50457 0.0
C1288 C 0.33416 0.01549 0.51657 0.0
C1289 C 0.34628 0.94677 0.70267 0.0
C1290 C 0.33238 0.93018 0.67563 0.0
C1291 C 0.35535 0.96518 0.67905 0.0
C1292 C 0.35046 0.9673 0.62833 0.0
C1293 C 0.33582 0.95093 0.60237 0.0
C1294 C 0.32698 0.9325 0.62563 0.0
C1295 C 0.36161 0.98622 0.60089 0.0
C1296 C 0.35186 0.99605 0.58462 0.0
C1297 C 0.38186 0.99457 0.59103 0.0
C1298 C 0.39275 0.98447 0.60564 0.0
C1299 C 0.38692 0.96561 0.58692 0.0
C1300 C 0.39705 0.95604 0.60157 0.0
C1301 C 0.41314 0.96526 0.63459 0.0
C1302 C 0.41919 0.98411 0.65286 0.0
C1303 C 0.40908 0.99372 0.63839 0.0
H1304 H 0.42096 0.95783 0.64591 0.0
H1305 H 0.32275 0.05177 0.51369 0.0
H1306 H 0.31082 0.37988 0.59864 0.0
H1307 H 0.32341 0.36087 0.64335 0.0
H1308 H 0.37372 0.41448 0.69397 0.0
H1309 H 0.36099 0.43344 0.65114 0.0
H1310 H 0.37951 0.38202 0.64405 0.0
H1311 H 0.34475 0.39663 0.77793 0.0
H1312 H 0.31524 0.3956 0.81323 0.0
H1313 H 0.28392 0.33287 0.80308 0.0
H1314 H 0.31322 0.33357 0.76691 0.0
H1315 H 0.43085 0.36467 0.8327 0.0
H1316 H 0.4126 0.37713 0.78576 0.0
H1317 H 0.35958 0.32149 0.80396 0.0
H1318 H 0.37783 0.30914 0.853 0.0
H1319 H 0.35138 0.34993 0.81164 0.0
H1320 H 0.38562 0.3336 0.69006 0.0
H1321 H 0.41364 0.33263 0.65121 0.0
H1322 H 0.44373 0.39499 0.63101 0.0
H1323 H 0.41601 0.39638 0.67048 0.0
C1324 C 0.32461 0.38755 0.61907 0.0
C1325 C 0.33494 0.4081 0.62161 0.0
C1326 C 0.33173 0.37671 0.64463 0.0
C1327 C 0.34944 0.38633 0.67194 0.0
C1328 C 0.36002 0.40683 0.67308 0.0
C1329 C 0.35271 0.41762 0.64872 0.0
C1330 C 0.35701 0.37524 0.70029 0.0
C1331 C 0.37346 0.37505 0.68078 0.0
C1332 C 0.34859 0.36557 0.74714 0.0
C1333 C 0.33106 0.36517 0.76907 0.0
C1334 C 0.33151 0.38263 0.78268 0.0
C1335 C 0.31484 0.38211 0.80297 0.0
C1336 C 0.29769 0.36418 0.81021 0.0
C1337 C 0.2972 0.34674 0.79733 0.0
C1338 C 0.31383 0.34719 0.77695 0.0
C1339 C 0.41525 0.35516 0.82731 0.0
C1340 C 0.40577 0.3359 0.84614 0.0
C1341 C 0.40485 0.36224 0.80011 0.0
C1342 C 0.38481 0.35007 0.78993 0.0
C1343 C 0.37507 0.3311 0.8109 0.0
C1344 C 0.38547 0.32407 0.83898 0.0
C1345 C 0.3744 0.3572 0.7563 0.0
C1346 C 0.35737 0.35661 0.77461 0.0
C1347 C 0.38207 0.36584 0.70767 0.0
C1348 C 0.39877 0.3651 0.68358 0.0
C1349 C 0.39826 0.34713 0.67765 0.0
C1350 C 0.41409 0.3465 0.65548 0.0
C1351 C 0.43047 0.36374 0.63874 0.0
C1352 C 0.43103 0.38165 0.64403 0.0
C1353 C 0.41525 0.38236 0.66624 0.0
H1354 H 0.4427 0.36323 0.62158 0.0
H1355 H 0.2848 0.36381 0.82595 0.0
loop_
_geom_bond_atom_site_label_1
_geom_bond_atom_site_label_2
_geom_bond_distance
_geom_bond_site_symmetry_2
_ccdc_geom_bond_type
In0 O1 2.294 . S
In0 O2 2.341 . S
In0 O6 2.266 . S
In0 O7 2.326 . S
In0 O8 2.266 1_554 S
In0 O9 2.326 . S
In0 O11 2.294 . S
In0 O12 2.326 . S
O1 In0 2.294 . S
O1 C10 1.240 . S
O2 In0 2.341 . S
O2 C10 1.263 . S
C3 O6 1.252 . S
C3 O7 1.260 . S
C4 O11 1.240 . S
C4 O12 1.252 . S
C5 O8 1.252 . S
C5 O9 1.260 1_556 S
O6 In0 2.266 . S
O6 C3 1.252 . S
O7 In0 2.326 . S
O7 C3 1.260 . S
O8 In0 2.266 1_556 S
O8 C5 1.252 . S
O9 In0 2.326 . S
O9 C5 1.260 1_554 S
C10 O1 1.240 . S
C10 O2 1.263 . S
O11 In0 2.294 . S
O11 C4 1.240 . S
O12 In0 2.326 . S
O12 C4 1.252 . S
In13 O14 2.294 . S
In13 O15 2.326 . S
In13 O19 2.266 . S
In13 O20 2.326 . S
In13 O21 2.266 . S
In13 O22 2.326 . S
In13 O24 2.294 . S
In13 O25 2.326 . S
O14 In13 2.294 . S
O14 C23 1.240 . S
O15 In13 2.326 . S
O15 C23 1.252 . S
C16 O19 1.252 . S
C16 O20 1.260 . S
C17 O24 1.240 . S
C17 O25 1.252 . S
C18 O21 1.252 . S
C18 O22 1.260 . S
O19 In13 2.266 . S
O19 C16 1.252 . S
O20 In13 2.326 . S
O20 C16 1.260 . S
O21 In13 2.266 . S
O21 C18 1.252 . S
O22 In13 2.326 . S
O22 C18 1.260 . S
C23 O14 1.240 . S
C23 O15 1.252 . S
O24 In13 2.294 . S
O24 C17 1.240 . S
O25 In13 2.326 . S
O25 C17 1.252 . S
In26 O27 2.294 . S
In26 O28 2.326 . S
In26 O32 2.266 . S
In26 O33 2.326 . S
In26 O34 2.266 . S
In26 O35 2.326 . S
In26 O37 2.294 . S
In26 O38 2.326 . S
O27 In26 2.294 . S
O27 C36 1.240 . S
O28 In26 2.326 . S
O28 C36 1.252 . S
C29 O32 1.252 . S
C29 O33 1.260 . S
C30 O37 1.240 . S
C30 O38 1.252 . S
C31 O34 1.252 . S
C31 O35 1.260 . S
O32 In26 2.266 . S
O32 C29 1.252 . S
O33 In26 2.326 . S
O33 C29 1.260 . S
O34 In26 2.266 . S
O34 C31 1.252 . S
O35 In26 2.326 . S
O35 C31 1.260 . S
C36 O27 1.240 . S
C36 O28 1.252 . S
O37 In26 2.294 . S
O37 C30 1.240 . S
O38 In26 2.326 . S
O38 C30 1.252 . S
In39 O40 2.294 . S
In39 O41 2.326 . S
In39 O45 2.266 . S
In39 O46 2.326 . S
In39 O47 2.266 . S
In39 O48 2.326 . S
In39 O50 2.294 . S
In39 O51 2.326 . S
O40 In39 2.294 . S
O40 C49 1.240 . S
O41 In39 2.326 . S
O41 C49 1.252 . S
C42 O45 1.252 . S
C42 O46 1.260 . S
C43 O50 1.240 . S
C43 O51 1.252 . S
C44 O47 1.252 . S
C44 O48 1.260 . S
O45 In39 2.266 . S
O45 C42 1.252 . S
O46 In39 2.326 . S
O46 C42 1.260 . S
O47 In39 2.266 . S
O47 C44 1.252 . S
O48 In39 2.326 . S
O48 C44 1.260 . S
C49 O40 1.240 . S
C49 O41 1.252 . S
O50 In39 2.294 . S
O50 C43 1.240 . S
O51 In39 2.326 . S
O51 C43 1.252 . S
In52 O53 2.294 . S
In52 O54 2.326 . S
In52 O58 2.266 . S
In52 O59 2.326 . S
In52 O60 2.266 . S
In52 O61 2.326 . S
In52 O63 2.294 . S
In52 O64 2.326 . S
O53 In52 2.294 . S
O53 C62 1.240 . S
O54 In52 2.326 . S
O54 C62 1.252 . S
C55 O58 1.252 . S
C55 O59 1.260 . S
C56 O63 1.240 . S
C56 O64 1.252 . S
C57 O60 1.252 . S
C57 O61 1.260 . S
O58 In52 2.266 . S
O58 C55 1.252 . S
O59 In52 2.326 . S
O59 C55 1.260 . S
O60 In52 2.266 . S
O60 C57 1.252 . S
O61 In52 2.326 . S
O61 C57 1.260 . S
C62 O53 1.240 . S
C62 O54 1.252 . S
O63 In52 2.294 . S
O63 C56 1.240 . S
O64 In52 2.326 . S
O64 C56 1.252 . S
In65 O66 2.294 . S
In65 O67 2.326 . S
In65 O71 2.266 . S
In65 O72 2.326 . S
In65 O73 2.266 . S
In65 O74 2.326 . S
In65 O76 2.294 . S
In65 O77 2.326 . S
O66 In65 2.294 . S
O66 C75 1.240 . S
O67 In65 2.326 . S
O67 C75 1.252 . S
C68 O71 1.252 . S
C68 O72 1.260 . S
C69 O76 1.240 . S
C69 O77 1.252 . S
C70 O73 1.252 . S
C70 O74 1.260 . S
O71 In65 2.266 . S
O71 C68 1.252 . S
O72 In65 2.326 . S
O72 C68 1.260 . S
O73 In65 2.266 . S
O73 C70 1.252 . S
O74 In65 2.326 . S
O74 C70 1.260 . S
C75 O66 1.240 . S
C75 O67 1.252 . S
O76 In65 2.294 . S
O76 C69 1.240 . S
O77 In65 2.326 . S
O77 C69 1.252 . S
In78 O79 2.294 . S
In78 O80 2.326 . S
In78 O84 2.266 . S
In78 O85 2.326 . S
In78 O86 2.266 . S
In78 O87 2.326 . S
In78 O89 2.294 . S
In78 O90 2.326 . S
O79 In78 2.294 . S
O79 C88 1.240 . S
O80 In78 2.326 . S
O80 C88 1.252 . S
C81 O84 1.252 . S
C81 O85 1.260 . S
C82 O89 1.240 . S
C82 O90 1.252 . S
C83 O86 1.252 . S
C83 O87 1.260 . S
O84 In78 2.266 . S
O84 C81 1.252 . S
O85 In78 2.326 . S
O85 C81 1.260 . S
O86 In78 2.266 . S
O86 C83 1.252 . S
O87 In78 2.326 . S
O87 C83 1.260 . S
C88 O79 1.240 . S
C88 O80 1.252 . S
O89 In78 2.294 . S
O89 C82 1.240 . S
O90 In78 2.326 . S
O90 C82 1.252 . S
In91 O92 2.294 . S
In91 O93 2.326 . S
In91 O97 2.266 . S
In91 O98 2.326 . S
In91 O99 2.266 1_554 S
In91 O100 2.326 . S
In91 O102 2.294 . S
In91 O103 2.326 . S
O92 In91 2.294 . S
O92 C101 1.240 . S
O93 In91 2.326 . S
O93 C101 1.252 . S
C94 O97 1.252 . S
C94 O98 1.260 . S
C95 O102 1.240 . S
C95 O103 1.252 . S
C96 O99 1.252 . S
C96 O100 1.260 1_556 S
O97 In91 2.266 . S
O97 C94 1.252 . S
O98 In91 2.326 . S
O98 C94 1.260 . S
O99 In91 2.266 1_556 S
O99 C96 1.252 . S
O100 In91 2.326 . S
O100 C96 1.260 1_554 S
C101 O92 1.240 . S
C101 O93 1.252 . S
O102 In91 2.294 . S
O102 C95 1.240 . S
O103 In91 2.326 . S
O103 C95 1.252 . S
In104 O105 2.294 . S
In104 O106 2.326 . S
In104 O110 2.266 . S
In104 O111 2.326 . S
In104 O112 2.266 . S
In104 O113 2.326 . S
In104 O115 2.294 . S
In104 O116 2.326 . S
O105 In104 2.294 . S
O105 C114 1.240 . S
O106 In104 2.326 . S
O106 C114 1.252 . S
C107 O110 1.252 . S
C107 O111 1.260 . S
C108 O115 1.240 . S
C108 O116 1.252 . S
C109 O112 1.252 . S
C109 O113 1.260 . S
O110 In104 2.266 . S
O110 C107 1.252 . S
O111 In104 2.326 . S
O111 C107 1.260 . S
O112 In104 2.266 . S
O112 C109 1.252 . S
O113 In104 2.326 . S
O113 C109 1.260 . S
C114 O105 1.240 . S
C114 O106 1.252 . S
O115 In104 2.294 . S
O115 C108 1.240 . S
O116 In104 2.326 . S
O116 C108 1.252 . S
In117 O118 2.294 . S
In117 O119 2.326 . S
In117 O123 2.266 . S
In117 O124 2.326 . S
In117 O125 2.266 . S
In117 O126 2.326 . S
In117 O128 2.294 . S
In117 O129 2.326 . S
O118 In117 2.294 . S
O118 C127 1.240 . S
O119 In117 2.326 . S
O119 C127 1.252 . S
C120 O123 1.252 . S
C120 O124 1.260 . S
C121 O128 1.240 . S
C121 O129 1.252 . S
C122 O125 1.252 . S
C122 O126 1.260 . S
O123 In117 2.266 . S
O123 C120 1.252 . S
O124 In117 2.326 . S
O124 C120 1.260 . S
O125 In117 2.266 . S
O125 C122 1.252 . S
O126 In117 2.326 . S
O126 C122 1.260 . S
C127 O118 1.240 . S
C127 O119 1.252 . S
O128 In117 2.294 . S
O128 C121 1.240 . S
O129 In117 2.326 . S
O129 C121 1.252 . S
In130 O131 2.294 . S
In130 O132 2.326 . S
In130 O136 2.266 . S
In130 O137 2.326 . S
In130 O138 2.266 . S
In130 O139 2.326 . S
In130 O141 2.294 . S
In130 O142 2.326 . S
O131 In130 2.294 . S
O131 C140 1.240 . S
O132 In130 2.326 . S
O132 C140 1.252 . S
C133 O136 1.252 . S
C133 O137 1.260 . S
C134 O141 1.240 . S
C134 O142 1.252 . S
C135 O138 1.252 . S
C135 O139 1.260 . S
O136 In130 2.266 . S
O136 C133 1.252 . S
O137 In130 2.326 . S
O137 C133 1.260 . S
O138 In130 2.266 . S
O138 C135 1.252 . S
O139 In130 2.326 . S
O139 C135 1.260 . S
C140 O131 1.240 . S
C140 O132 1.252 . S
O141 In130 2.294 . S
O141 C134 1.240 . S
O142 In130 2.326 . S
O142 C134 1.252 . S
In143 O144 2.294 . S
In143 O145 2.326 . S
In143 O149 2.266 . S
In143 O150 2.326 . S
In143 O151 2.266 . S
In143 O152 2.326 . S
In143 O154 2.294 . S
In143 O155 2.326 . S
O144 In143 2.294 . S
O144 C153 1.240 . S
O145 In143 2.326 . S
O145 C153 1.252 . S
C146 O149 1.252 . S
C146 O150 1.260 . S
C147 O154 1.240 . S
C147 O155 1.252 . S
C148 O151 1.252 . S
C148 O152 1.260 . S
O149 In143 2.266 . S
O149 C146 1.252 . S
O150 In143 2.326 . S
O150 C146 1.260 . S
O151 In143 2.266 . S
O151 C148 1.252 . S
O152 In143 2.326 . S
O152 C148 1.260 . S
C153 O144 1.240 . S
C153 O145 1.252 . S
O154 In143 2.294 . S
O154 C147 1.240 . S
O155 In143 2.326 . S
O155 C147 1.252 . S
H156 C174 0.951 . S
H157 C176 0.951 . S
H158 C178 0.950 . S
H159 C179 0.950 . S
H160 C181 0.950 . S
H161 C184 0.950 . S
H162 C185 0.950 . S
H163 C187 0.950 . S
H164 C188 0.950 . S
H165 C189 0.951 . S
H166 C191 0.951 . S
H167 C193 0.950 . S
H168 C194 0.950 . S
H169 C196 0.950 . S
H170 C199 0.950 . S
H171 C200 0.950 . S
H172 C202 0.950 . S
H173 C203 0.950 . S
C174 H156 0.951 . S
C174 C175 1.366 . S
C174 C176 1.388 . S
C175 C174 1.366 . S
C175 C179 1.385 . S
C176 H157 0.951 . S
C176 C174 1.388 . S
C176 C177 1.366 . S
C177 C176 1.366 . S
C177 C178 1.414 . S
C177 C180 1.499 . S
C178 H158 0.950 . S
C178 C177 1.414 . S
C178 C179 1.374 . S
C179 H159 0.950 . S
C179 C175 1.385 . S
C179 C178 1.374 . S
C180 C177 1.499 . S
C180 C181 1.373 . S
C180 C182 1.389 . S
C181 H160 0.950 . S
C181 C180 1.373 . S
C181 C197 1.377 . S
C182 C180 1.389 . S
C182 C183 1.524 . S
C182 C196 1.377 . S
C183 C182 1.524 . S
C183 C184 1.397 . S
C183 C188 1.363 . S
C184 H161 0.950 . S
C184 C183 1.397 . S
C184 C185 1.334 . S
C185 H162 0.950 . S
C185 C184 1.334 . S
C185 C186 1.287 . S
C186 C185 1.287 . S
C186 C187 1.524 . S
C186 H205 0.913 . S
C187 H163 0.950 . S
C187 C186 1.524 . S
C187 C188 1.415 . S
C188 H164 0.950 . S
C188 C183 1.363 . S
C188 C187 1.415 . S
C189 H165 0.951 . S
C189 C190 1.366 . S
C189 C191 1.388 . S
C190 C189 1.366 . S
C190 C194 1.385 . S
C191 H166 0.951 . S
C191 C189 1.388 . S
C191 C192 1.366 . S
C192 C191 1.366 . S
C192 C193 1.414 . S
C192 C195 1.499 . S
C193 H167 0.950 . S
C193 C192 1.414 . S
C193 C194 1.374 . S
C194 H168 0.950 . S
C194 C190 1.385 . S
C194 C193 1.374 . S
C195 C192 1.499 . S
C195 C196 1.373 . S
C195 C197 1.389 . S
C196 H169 0.950 . S
C196 C182 1.377 . S
C196 C195 1.373 . S
C197 C181 1.377 . S
C197 C195 1.389 . S
C197 C198 1.524 . S
C198 C197 1.524 . S
C198 C199 1.397 . S
C198 C203 1.363 . S
C199 H170 0.950 . S
C199 C198 1.397 . S
C199 C200 1.334 . S
C200 H171 0.950 . S
C200 C199 1.334 . S
C200 C201 1.287 . S
C201 C200 1.287 . S
C201 C202 1.524 . S
C201 H204 0.999 . S
C202 H172 0.950 . S
C202 C201 1.524 . S
C202 C203 1.415 . S
C203 H173 0.950 . S
C203 C198 1.363 . S
C203 C202 1.415 . S
H204 C201 0.999 . S
H205 C186 0.913 . S
H206 C224 0.951 . S
H207 C226 0.951 . S
H208 C228 0.950 . S
H209 C229 0.950 . S
H210 C231 0.950 . S
H211 C234 0.950 . S
H212 C235 0.950 . S
H213 C237 0.950 . S
H214 C238 0.950 . S
H215 C239 0.951 . S
H216 C241 0.951 . S
H217 C243 0.950 . S
H218 C244 0.950 . S
H219 C246 0.950 . S
H220 C249 0.950 . S
H221 C250 0.950 . S
H222 C252 0.950 . S
H223 C253 0.950 . S
C224 H206 0.951 . S
C224 C225 1.366 . S
C224 C226 1.388 . S
C225 C224 1.366 . S
C225 C229 1.385 . S
C226 H207 0.951 . S
C226 C224 1.388 . S
C226 C227 1.366 . S
C227 C226 1.366 . S
C227 C228 1.414 . S
C227 C230 1.499 . S
C228 H208 0.950 . S
C228 C227 1.414 . S
C228 C229 1.374 . S
C229 H209 0.950 . S
C229 C225 1.385 . S
C229 C228 1.374 . S
C230 C227 1.499 . S
C230 C231 1.373 . S
C230 C232 1.389 . S
C231 H210 0.950 . S
C231 C230 1.373 . S
C231 C247 1.377 . S
C232 C230 1.389 . S
C232 C233 1.524 . S
C232 C246 1.377 . S
C233 C232 1.524 . S
C233 C234 1.397 . S
C233 C238 1.363 . S
C234 H211 0.950 . S
C234 C233 1.397 . S
C234 C235 1.334 . S
C235 H212 0.950 . S
C235 C234 1.334 . S
C235 C236 1.287 . S
C236 C235 1.287 . S
C236 C237 1.524 . S
C236 H255 0.913 . S
C237 H213 0.950 . S
C237 C236 1.524 . S
C237 C238 1.415 . S
C238 H214 0.950 . S
C238 C233 1.363 . S
C238 C237 1.415 . S
C239 H215 0.951 . S
C239 C240 1.366 . S
C239 C241 1.388 . S
C240 C239 1.366 . S
C240 C244 1.385 . S
C241 H216 0.951 . S
C241 C239 1.388 . S
C241 C242 1.366 . S
C242 C241 1.366 . S
C242 C243 1.414 . S
C242 C245 1.499 . S
C243 H217 0.950 . S
C243 C242 1.414 . S
C243 C244 1.374 . S
C244 H218 0.950 . S
C244 C240 1.385 . S
C244 C243 1.374 . S
C245 C242 1.499 . S
C245 C246 1.373 . S
C245 C247 1.389 . S
C246 H219 0.950 . S
C246 C232 1.377 . S
C246 C245 1.373 . S
C247 C231 1.377 . S
C247 C245 1.389 . S
C247 C248 1.524 . S
C248 C247 1.524 . S
C248 C249 1.397 . S
C248 C253 1.363 . S
C249 H220 0.950 . S
C249 C248 1.397 . S
C249 C250 1.334 . S
C250 H221 0.950 . S
C250 C249 1.334 . S
C250 C251 1.287 . S
C251 C250 1.287 . S
C251 C252 1.524 . S
C251 H254 0.999 . S
C252 H222 0.950 . S
C252 C251 1.524 . S
C252 C253 1.415 . S
C253 H223 0.950 . S
C253 C248 1.363 . S
C253 C252 1.415 . S
H254 C251 0.999 . S
H255 C236 0.913 . S
H256 C274 0.951 . S
H257 C276 0.951 . S
H258 C278 0.950 . S
H259 C279 0.950 . S
H260 C281 0.950 . S
H261 C284 0.950 . S
H262 C285 0.950 . S
H263 C287 0.950 . S
H264 C288 0.950 . S
H265 C289 0.951 . S
H266 C291 0.951 . S
H267 C293 0.950 . S
H268 C294 0.950 . S
H269 C296 0.950 . S
H270 C299 0.950 . S
H271 C300 0.950 . S
H272 C302 0.950 . S
H273 C303 0.950 . S
C274 H256 0.951 . S
C274 C275 1.366 . S
C274 C276 1.388 . S
C275 C274 1.366 . S
C275 C279 1.385 . S
C276 H257 0.951 . S
C276 C274 1.388 . S
C276 C277 1.366 . S
C277 C276 1.366 . S
C277 C278 1.414 . S
C277 C280 1.499 . S
C278 H258 0.950 . S
C278 C277 1.414 . S
C278 C279 1.374 . S
C279 H259 0.950 . S
C279 C275 1.385 . S
C279 C278 1.374 . S
C280 C277 1.499 . S
C280 C281 1.373 . S
C280 C282 1.389 . S
C281 H260 0.950 . S
C281 C280 1.373 . S
C281 C297 1.377 . S
C282 C280 1.389 . S
C282 C283 1.524 . S
C282 C296 1.377 . S
C283 C282 1.524 . S
C283 C284 1.397 . S
C283 C288 1.363 . S
C284 H261 0.950 . S
C284 C283 1.397 . S
C284 C285 1.334 . S
C285 H262 0.950 . S
C285 C284 1.334 . S
C285 C286 1.287 . S
C286 C285 1.287 . S
C286 C287 1.524 . S
C286 H305 0.913 . S
C287 H263 0.950 . S
C287 C286 1.524 . S
C287 C288 1.415 . S
C288 H264 0.950 . S
C288 C283 1.363 . S
C288 C287 1.415 . S
C289 H265 0.951 . S
C289 C290 1.366 . S
C289 C291 1.388 . S
C290 C289 1.366 . S
C290 C294 1.385 . S
C291 H266 0.951 . S
C291 C289 1.388 . S
C291 C292 1.366 . S
C292 C291 1.366 . S
C292 C293 1.414 . S
C292 C295 1.499 . S
C293 H267 0.950 . S
C293 C292 1.414 . S
C293 C294 1.374 . S
C294 H268 0.950 . S
C294 C290 1.385 . S
C294 C293 1.374 . S
C295 C292 1.499 . S
C295 C296 1.373 . S
C295 C297 1.389 . S
C296 H269 0.950 . S
C296 C282 1.377 . S
C296 C295 1.373 . S
C297 C281 1.377 . S
C297 C295 1.389 . S
C297 C298 1.524 . S
C298 C297 1.524 . S
C298 C299 1.397 . S
C298 C303 1.363 . S
C299 H270 0.950 . S
C299 C298 1.397 . S
C299 C300 1.334 . S
C300 H271 0.950 . S
C300 C299 1.334 . S
C300 C301 1.287 . S
C301 C300 1.287 . S
C301 C302 1.524 . S
C301 H304 0.999 . S
C302 H272 0.950 . S
C302 C301 1.524 . S
C302 C303 1.415 . S
C303 H273 0.950 . S
C303 C298 1.363 . S
C303 C302 1.415 . S
H304 C301 0.999 . S
H305 C286 0.913 . S
H306 C324 0.951 . S
H307 C326 0.951 . S
H308 C328 0.950 . S
H309 C329 0.950 . S
H310 C331 0.950 . S
H311 C334 0.950 . S
H312 C335 0.950 . S
H313 C337 0.950 . S
H314 C338 0.950 . S
H315 C339 0.951 . S
H316 C341 0.951 . S
H317 C343 0.950 . S
H318 C344 0.932 1_554 S
H319 C346 0.950 . S
H320 C349 0.950 . S
H321 C350 0.950 . S
H322 C352 0.950 . S
H323 C353 0.950 . S
C324 H306 0.951 . S
C324 C325 1.366 . S
C324 C326 1.388 . S
C325 C324 1.366 . S
C325 C329 1.385 . S
C326 H307 0.951 . S
C326 C324 1.388 . S
C326 C327 1.366 . S
C327 C326 1.366 . S
C327 C328 1.414 . S
C327 C330 1.499 . S
C328 H308 0.950 . S
C328 C327 1.414 . S
C328 C329 1.374 . S
C329 H309 0.950 . S
C329 C325 1.385 . S
C329 C328 1.374 . S
C330 C327 1.499 . S
C330 C331 1.373 . S
C330 C332 1.389 . S
C331 H310 0.950 . S
C331 C330 1.373 . S
C331 C347 1.377 . S
C332 C330 1.389 . S
C332 C333 1.524 . S
C332 C346 1.377 . S
C333 C332 1.524 . S
C333 C334 1.397 . S
C333 C338 1.363 . S
C334 H311 0.950 . S
C334 C333 1.397 . S
C334 C335 1.334 . S
C335 H312 0.950 . S
C335 C334 1.334 . S
C335 C336 1.287 . S
C336 C335 1.287 . S
C336 C337 1.524 . S
C336 H355 0.913 . S
C337 H313 0.950 . S
C337 C336 1.524 . S
C337 C338 1.415 . S
C338 H314 0.950 . S
C338 C333 1.363 . S
C338 C337 1.415 . S
C339 H315 0.951 . S
C339 C340 1.366 . S
C339 C341 1.388 . S
C340 C339 1.366 . S
C340 C344 1.385 . S
C341 H316 0.951 . S
C341 C339 1.388 . S
C341 C342 1.366 . S
C342 C341 1.366 . S
C342 C343 1.414 . S
C342 C345 1.499 . S
C343 H317 0.950 . S
C343 C342 1.414 . S
C343 C344 1.374 . S
C344 H318 0.932 1_556 S
C344 C340 1.385 . S
C344 C343 1.374 . S
C345 C342 1.499 . S
C345 C346 1.373 . S
C345 C347 1.389 . S
C346 H319 0.950 . S
C346 C332 1.377 . S
C346 C345 1.373 . S
C347 C331 1.377 . S
C347 C345 1.389 . S
C347 C348 1.524 . S
C348 C347 1.524 . S
C348 C349 1.397 . S
C348 C353 1.363 . S
C349 H320 0.950 . S
C349 C348 1.397 . S
C349 C350 1.334 . S
C350 H321 0.950 . S
C350 C349 1.334 . S
C350 C351 1.287 . S
C351 C350 1.287 . S
C351 C352 1.524 . S
C351 H354 0.999 . S
C352 H322 0.950 . S
C352 C351 1.524 . S
C352 C353 1.415 . S
C353 H323 0.950 . S
C353 C348 1.363 . S
C353 C352 1.415 . S
H354 C351 0.999 . S
H355 C336 0.913 . S
H356 C374 0.951 . S
H357 C376 0.951 . S
H358 C378 0.950 . S
H359 C379 0.950 . S
H360 C381 0.950 . S
H361 C384 0.950 . S
H362 C385 0.950 . S
H363 C387 0.950 . S
H364 C388 0.950 1_554 S
H365 C389 0.951 . S
H366 C391 0.951 . S
H367 C393 0.950 . S
H368 C394 0.950 . S
H369 C396 0.950 1_554 S
H370 C399 0.950 . S
H371 C400 0.950 . S
H372 C402 0.950 . S
H373 C403 0.950 . S
C374 H356 0.951 . S
C374 C375 1.366 . S
C374 C376 1.388 . S
C375 C374 1.366 . S
C375 C379 1.385 . S
C376 H357 0.951 . S
C376 C374 1.388 . S
C376 C377 1.366 . S
C377 C376 1.366 . S
C377 C378 1.414 . S
C377 C380 1.499 . S
C378 H358 0.950 . S
C378 C377 1.414 . S
C378 C379 1.374 . S
C379 H359 0.950 . S
C379 C375 1.385 . S
C379 C378 1.374 . S
C380 C377 1.499 . S
C380 C381 1.373 . S
C380 C382 1.389 . S
C381 H360 0.950 . S
C381 C380 1.373 . S
C381 C397 1.377 . S
C382 C380 1.389 . S
C382 C383 1.524 . S
C382 C396 1.377 . S
C383 C382 1.524 . S
C383 C384 1.397 . S
C383 C388 1.363 . S
C384 H361 0.950 . S
C384 C383 1.397 . S
C384 C385 1.334 . S
C385 H362 0.950 . S
C385 C384 1.334 . S
C385 C386 1.287 . S
C386 C385 1.287 . S
C386 C387 1.524 . S
C386 H405 0.913 . S
C387 H363 0.950 . S
C387 C386 1.524 . S
C387 C388 1.415 . S
C388 H364 0.950 1_556 S
C388 C383 1.363 . S
C388 C387 1.415 . S
C389 H365 0.951 . S
C389 C390 1.366 . S
C389 C391 1.388 . S
C390 C389 1.366 . S
C390 C394 1.385 . S
C391 H366 0.951 . S
C391 C389 1.388 . S
C391 C392 1.366 . S
C392 C391 1.366 . S
C392 C393 1.414 . S
C392 C395 1.499 . S
C393 H367 0.950 . S
C393 C392 1.414 . S
C393 C394 1.374 . S
C394 H368 0.950 . S
C394 C390 1.385 . S
C394 C393 1.374 . S
C395 C392 1.499 . S
C395 C396 1.373 1_554 S
C395 C397 1.389 1_554 S
C396 H369 0.950 1_556 S
C396 C382 1.377 . S
C396 C395 1.373 1_556 S
C397 C381 1.377 . S
C397 C395 1.389 1_556 S
C397 C398 1.524 1_556 S
C398 C397 1.524 1_554 S
C398 C399 1.397 . S
C398 C403 1.363 1_554 S
C399 H370 0.950 . S
C399 C398 1.397 . S
C399 C400 1.334 . S
C400 H371 0.950 . S
C400 C399 1.334 . S
C400 C401 1.287 . S
C401 C400 1.287 . S
C401 C402 1.524 1_554 S
C401 H404 0.999 . S
C402 H372 0.950 . S
C402 C401 1.524 1_556 S
C402 C403 1.415 . S
C403 H373 0.950 . S
C403 C398 1.363 1_556 S
C403 C402 1.415 . S
H404 C401 0.999 . S
H405 C386 0.913 . S
H406 C424 0.951 . S
H407 C426 0.951 . S
H408 C428 0.950 . S
H409 C429 0.950 . S
H410 C431 0.950 . S
H411 C434 0.950 . S
H412 C435 0.950 . S
H413 C437 0.950 . S
H414 C438 0.950 . S
H415 C439 0.951 . S
H416 C441 0.951 . S
H417 C443 0.950 . S
H418 C444 0.950 . S
H419 C446 0.950 . S
H420 C449 0.950 . S
H421 C450 0.950 . S
H422 C452 0.950 . S
H423 C453 0.950 . S
C424 H406 0.951 . S
C424 C425 1.366 . S
C424 C426 1.388 . S
C425 C424 1.366 . S
C425 C429 1.385 . S
C426 H407 0.951 . S
C426 C424 1.388 . S
C426 C427 1.366 . S
C427 C426 1.366 . S
C427 C428 1.414 . S
C427 C430 1.499 . S
C428 H408 0.950 . S
C428 C427 1.414 . S
C428 C429 1.374 . S
C429 H409 0.950 . S
C429 C425 1.385 . S
C429 C428 1.374 . S
C430 C427 1.499 . S
C430 C431 1.373 . S
C430 C432 1.389 . S
C431 H410 0.950 . S
C431 C430 1.373 . S
C431 C447 1.377 . S
C432 C430 1.389 . S
C432 C433 1.524 . S
C432 C446 1.377 . S
C433 C432 1.524 . S
C433 C434 1.397 . S
C433 C438 1.363 . S
C434 H411 0.950 . S
C434 C433 1.397 . S
C434 C435 1.334 . S
C435 H412 0.950 . S
C435 C434 1.334 . S
C435 C436 1.287 . S
C436 C435 1.287 . S
C436 C437 1.524 . S
C436 H455 0.913 . S
C437 H413 0.950 . S
C437 C436 1.524 . S
C437 C438 1.415 . S
C438 H414 0.950 . S
C438 C433 1.363 . S
C438 C437 1.415 . S
C439 H415 0.951 . S
C439 C440 1.366 1_556 S
C439 C441 1.388 1_556 S
C440 C439 1.366 1_554 S
C440 C444 1.385 . S
C441 H416 0.951 . S
C441 C439 1.388 1_554 S
C441 C442 1.366 . S
C442 C441 1.366 . S
C442 C443 1.414 . S
C442 C445 1.499 . S
C443 H417 0.950 . S
C443 C442 1.414 . S
C443 C444 1.374 . S
C444 H418 0.950 . S
C444 C440 1.385 . S
C444 C443 1.374 . S
C445 C442 1.499 . S
C445 C446 1.373 . S
C445 C447 1.389 . S
C446 H419 0.950 . S
C446 C432 1.377 . S
C446 C445 1.373 . S
C447 C431 1.377 . S
C447 C445 1.389 . S
C447 C448 1.524 . S
C448 C447 1.524 . S
C448 C449 1.397 . S
C448 C453 1.363 . S
C449 H420 0.950 . S
C449 C448 1.397 . S
C449 C450 1.334 . S
C450 H421 0.950 . S
C450 C449 1.334 . S
C450 C451 1.287 1_554 S
C451 C450 1.287 1_556 S
C451 C452 1.524 . S
C451 H454 0.999 . S
C452 H422 0.950 . S
C452 C451 1.524 . S
C452 C453 1.415 1_556 S
C453 H423 0.950 . S
C453 C448 1.363 . S
C453 C452 1.415 1_554 S
H454 C451 0.999 . S
H455 C436 0.913 . S
H456 C474 0.951 . S
H457 C476 0.951 . S
H458 C478 0.950 . S
H459 C479 0.950 . S
H460 C481 0.950 . S
H461 C484 0.950 . S
H462 C485 0.950 . S
H463 C487 0.950 . S
H464 C488 0.950 . S
H465 C489 0.951 . S
H466 C491 0.951 . S
H467 C493 0.950 . S
H468 C494 0.950 . S
H469 C496 0.950 . S
H470 C499 0.950 . S
H471 C500 0.950 . S
H472 C502 0.950 1_556 S
H473 C503 0.950 . S
C474 H456 0.951 . S
C474 C475 1.366 . S
C474 C476 1.388 . S
C475 C474 1.366 . S
C475 C479 1.385 . S
C476 H457 0.951 . S
C476 C474 1.388 . S
C476 C477 1.366 . S
C477 C476 1.366 . S
C477 C478 1.414 . S
C477 C480 1.499 . S
C478 H458 0.950 . S
C478 C477 1.414 . S
C478 C479 1.374 . S
C479 H459 0.950 . S
C479 C475 1.385 . S
C479 C478 1.374 . S
C480 C477 1.499 . S
C480 C481 1.373 . S
C480 C482 1.389 . S
C481 H460 0.950 . S
C481 C480 1.373 . S
C481 C497 1.377 . S
C482 C480 1.389 . S
C482 C483 1.524 . S
C482 C496 1.377 . S
C483 C482 1.524 . S
C483 C484 1.397 . S
C483 C488 1.363 . S
C484 H461 0.950 . S
C484 C483 1.397 . S
C484 C485 1.334 . S
C485 H462 0.950 . S
C485 C484 1.334 . S
C485 C486 1.287 . S
C486 C485 1.287 . S
C486 C487 1.524 . S
C486 H505 0.913 . S
C487 H463 0.950 . S
C487 C486 1.524 . S
C487 C488 1.415 . S
C488 H464 0.950 . S
C488 C483 1.363 . S
C488 C487 1.415 . S
C489 H465 0.951 . S
C489 C490 1.366 . S
C489 C491 1.388 . S
C490 C489 1.366 . S
C490 C494 1.385 . S
C491 H466 0.951 . S
C491 C489 1.388 . S
C491 C492 1.366 . S
C492 C491 1.366 . S
C492 C493 1.414 . S
C492 C495 1.499 . S
C493 H467 0.950 . S
C493 C492 1.414 . S
C493 C494 1.374 . S
C494 H468 0.950 . S
C494 C490 1.385 . S
C494 C493 1.374 . S
C495 C492 1.499 . S
C495 C496 1.373 . S
C495 C497 1.389 . S
C496 H469 0.950 . S
C496 C482 1.377 . S
C496 C495 1.373 . S
C497 C481 1.377 . S
C497 C495 1.389 . S
C497 C498 1.524 . S
C498 C497 1.524 . S
C498 C499 1.397 . S
C498 C503 1.363 . S
C499 H470 0.950 . S
C499 C498 1.397 . S
C499 C500 1.334 . S
C500 H471 0.950 . S
C500 C499 1.334 . S
C500 C501 1.287 . S
C501 C500 1.287 . S
C501 C502 1.524 . S
C501 H504 0.999 . S
C502 H472 0.950 1_554 S
C502 C501 1.524 . S
C502 C503 1.415 . S
C503 H473 0.950 . S
C503 C498 1.363 . S
C503 C502 1.415 . S
H504 C501 0.999 . S
H505 C486 0.913 . S
H506 C524 0.951 . S
H507 C526 0.951 . S
H508 C528 0.950 . S
H509 C529 0.950 . S
H510 C531 0.950 . S
H511 C534 0.950 . S
H512 C535 0.950 . S
H513 C537 0.950 . S
H514 C538 0.950 . S
H515 C539 0.951 . S
H516 C541 0.951 . S
H517 C543 0.950 . S
H518 C544 0.950 . S
H519 C546 0.950 . S
H520 C549 0.950 . S
H521 C550 0.950 . S
H522 C552 0.950 . S
H523 C553 0.950 . S
C524 H506 0.951 . S
C524 C525 1.366 . S
C524 C526 1.388 . S
C525 C524 1.366 . S
C525 C529 1.385 . S
C526 H507 0.951 . S
C526 C524 1.388 . S
C526 C527 1.366 . S
C527 C526 1.366 . S
C527 C528 1.414 . S
C527 C530 1.499 . S
C528 H508 0.950 . S
C528 C527 1.414 . S
C528 C529 1.374 . S
C529 H509 0.950 . S
C529 C525 1.385 . S
C529 C528 1.374 . S
C530 C527 1.499 . S
C530 C531 1.373 . S
C530 C532 1.389 . S
C531 H510 0.950 . S
C531 C530 1.373 . S
C531 C547 1.377 . S
C532 C530 1.389 . S
C532 C533 1.524 . S
C532 C546 1.377 . S
C533 C532 1.524 . S
C533 C534 1.397 . S
C533 C538 1.363 . S
C534 H511 0.950 . S
C534 C533 1.397 . S
C534 C535 1.334 . S
C535 H512 0.950 . S
C535 C534 1.334 . S
C535 C536 1.287 . S
C536 C535 1.287 . S
C536 C537 1.524 . S
C536 H555 0.913 . S
C537 H513 0.950 . S
C537 C536 1.524 . S
C537 C538 1.415 . S
C538 H514 0.950 . S
C538 C533 1.363 . S
C538 C537 1.415 . S
C539 H515 0.951 . S
C539 C540 1.366 . S
C539 C541 1.388 . S
C540 C539 1.366 . S
C540 C544 1.385 . S
C541 H516 0.951 . S
C541 C539 1.388 . S
C541 C542 1.366 . S
C542 C541 1.366 . S
C542 C543 1.414 . S
C542 C545 1.499 . S
C543 H517 0.950 . S
C543 C542 1.414 . S
C543 C544 1.374 . S
C544 H518 0.950 . S
C544 C540 1.385 . S
C544 C543 1.374 . S
C545 C542 1.499 . S
C545 C546 1.373 . S
C545 C547 1.389 . S
C546 H519 0.950 . S
C546 C532 1.377 . S
C546 C545 1.373 . S
C547 C531 1.377 . S
C547 C545 1.389 . S
C547 C548 1.524 . S
C548 C547 1.524 . S
C548 C549 1.397 . S
C548 C553 1.363 . S
C549 H520 0.950 . S
C549 C548 1.397 . S
C549 C550 1.334 . S
C550 H521 0.950 . S
C550 C549 1.334 . S
C550 C551 1.287 . S
C551 C550 1.287 . S
C551 C552 1.524 . S
C551 H554 0.999 . S
C552 H522 0.950 . S
C552 C551 1.524 . S
C552 C553 1.415 . S
C553 H523 0.950 . S
C553 C548 1.363 . S
C553 C552 1.415 . S
H554 C551 0.999 . S
H555 C536 0.913 . S
H556 C574 0.951 . S
H557 C576 0.951 . S
H558 C578 0.950 . S
H559 C579 0.950 . S
H560 C581 0.950 . S
H561 C584 0.950 . S
H562 C585 0.950 . S
H563 C587 0.950 . S
H564 C588 0.950 . S
H565 C589 0.951 . S
H566 C591 0.951 . S
H567 C593 0.950 . S
H568 C594 0.950 . S
H569 C596 0.950 . S
H570 C599 0.950 . S
H571 C600 0.950 . S
H572 C602 0.950 . S
H573 C603 0.950 . S
C574 H556 0.951 . S
C574 C575 1.366 . S
C574 C576 1.388 . S
C575 C574 1.366 . S
C575 C579 1.385 . S
C576 H557 0.951 . S
C576 C574 1.388 . S
C576 C577 1.366 . S
C577 C576 1.366 . S
C577 C578 1.414 . S
C577 C580 1.499 . S
C578 H558 0.950 . S
C578 C577 1.414 . S
C578 C579 1.374 . S
C579 H559 0.950 . S
C579 C575 1.385 . S
C579 C578 1.374 . S
C580 C577 1.499 . S
C580 C581 1.373 . S
C580 C582 1.389 . S
C581 H560 0.950 . S
C581 C580 1.373 . S
C581 C597 1.377 . S
C582 C580 1.389 . S
C582 C583 1.524 . S
C582 C596 1.377 . S
C583 C582 1.524 . S
C583 C584 1.397 . S
C583 C588 1.363 . S
C584 H561 0.950 . S
C584 C583 1.397 . S
C584 C585 1.334 . S
C585 H562 0.950 . S
C585 C584 1.334 . S
C585 C586 1.287 . S
C586 C585 1.287 . S
C586 C587 1.524 . S
C586 H605 0.913 . S
C587 H563 0.950 . S
C587 C586 1.524 . S
C587 C588 1.415 . S
C588 H564 0.950 . S
C588 C583 1.363 . S
C588 C587 1.415 . S
C589 H565 0.951 . S
C589 C590 1.366 . S
C589 C591 1.388 . S
C590 C589 1.366 . S
C590 C594 1.385 . S
C591 H566 0.951 . S
C591 C589 1.388 . S
C591 C592 1.366 . S
C592 C591 1.366 . S
C592 C593 1.414 . S
C592 C595 1.499 . S
C593 H567 0.950 . S
C593 C592 1.414 . S
C593 C594 1.374 . S
C594 H568 0.950 . S
C594 C590 1.385 . S
C594 C593 1.374 . S
C595 C592 1.499 . S
C595 C596 1.373 . S
C595 C597 1.389 . S
C596 H569 0.950 . S
C596 C582 1.377 . S
C596 C595 1.373 . S
C597 C581 1.377 . S
C597 C595 1.389 . S
C597 C598 1.524 . S
C598 C597 1.524 . S
C598 C599 1.397 . S
C598 C603 1.363 . S
C599 H570 0.950 . S
C599 C598 1.397 . S
C599 C600 1.334 . S
C600 H571 0.950 . S
C600 C599 1.334 . S
C600 C601 1.287 . S
C601 C600 1.287 . S
C601 C602 1.524 . S
C601 H604 0.999 . S
C602 H572 0.950 . S
C602 C601 1.524 . S
C602 C603 1.415 . S
C603 H573 0.950 . S
C603 C598 1.363 . S
C603 C602 1.415 . S
H604 C601 0.999 . S
H605 C586 0.913 . S
H606 C624 0.951 . S
H607 C626 0.951 . S
H608 C628 0.950 . S
H609 C629 0.950 . S
H610 C631 0.950 . S
H611 C634 0.950 . S
H612 C635 0.950 . S
H613 C637 0.950 . S
H614 C638 0.950 . S
H615 C639 0.951 . S
H616 C641 0.951 . S
H617 C643 0.950 . S
H618 C644 0.950 . S
H619 C646 0.950 . S
H620 C649 0.950 . S
H621 C650 0.950 . S
H622 C652 0.950 . S
H623 C653 0.950 . S
C624 H606 0.951 . S
C624 C625 1.366 . S
C624 C626 1.388 . S
C625 C624 1.366 . S
C625 C629 1.385 . S
C626 H607 0.951 . S
C626 C624 1.388 . S
C626 C627 1.366 . S
C627 C626 1.366 . S
C627 C628 1.414 . S
C627 C630 1.499 . S
C628 H608 0.950 . S
C628 C627 1.414 . S
C628 C629 1.374 . S
C629 H609 0.950 . S
C629 C625 1.385 . S
C629 C628 1.374 . S
C630 C627 1.499 . S
C630 C631 1.373 . S
C630 C632 1.389 . S
C631 H610 0.950 . S
C631 C630 1.373 . S
C631 C647 1.377 . S
C632 C630 1.389 . S
C632 C633 1.524 . S
C632 C646 1.377 . S
C633 C632 1.524 . S
C633 C634 1.397 . S
C633 C638 1.363 . S
C634 H611 0.950 . S
C634 C633 1.397 . S
C634 C635 1.334 . S
C635 H612 0.950 . S
C635 C634 1.334 . S
C635 C636 1.287 . S
C636 C635 1.287 . S
C636 C637 1.524 . S
C636 H655 0.913 . S
C637 H613 0.950 . S
C637 C636 1.524 . S
C637 C638 1.415 . S
C638 H614 0.950 . S
C638 C633 1.363 . S
C638 C637 1.415 . S
C639 H615 0.951 . S
C639 C640 1.366 . S
C639 C641 1.388 . S
C640 C639 1.366 . S
C640 C644 1.385 . S
C641 H616 0.951 . S
C641 C639 1.388 . S
C641 C642 1.366 . S
C642 C641 1.366 . S
C642 C643 1.414 . S
C642 C645 1.499 . S
C643 H617 0.950 . S
C643 C642 1.414 . S
C643 C644 1.374 . S
C644 H618 0.950 . S
C644 C640 1.385 . S
C644 C643 1.374 . S
C645 C642 1.499 . S
C645 C646 1.373 . S
C645 C647 1.389 . S
C646 H619 0.950 . S
C646 C632 1.377 . S
C646 C645 1.373 . S
C647 C631 1.377 . S
C647 C645 1.389 . S
C647 C648 1.524 . S
C648 C647 1.524 . S
C648 C649 1.397 . S
C648 C653 1.363 . S
C649 H620 0.950 . S
C649 C648 1.397 . S
C649 C650 1.334 . S
C650 H621 0.950 . S
C650 C649 1.334 . S
C650 C651 1.287 . S
C651 C650 1.287 . S
C651 C652 1.524 . S
C651 H654 0.999 . S
C652 H622 0.950 . S
C652 C651 1.524 . S
C652 C653 1.415 . S
C653 H623 0.950 . S
C653 C648 1.363 . S
C653 C652 1.415 . S
H654 C651 0.999 . S
H655 C636 0.913 . S
H656 C674 0.951 . S
H657 C676 0.951 . S
H658 C678 0.950 . S
H659 C679 0.950 . S
H660 C681 0.950 . S
H661 C684 0.950 . S
H662 C685 0.950 . S
H663 C687 0.950 . S
H664 C688 0.950 . S
H665 C689 0.951 . S
H666 C691 0.951 . S
H667 C693 0.950 . S
H668 C694 0.950 . S
H669 C696 0.950 . S
H670 C699 0.950 . S
H671 C700 0.950 . S
H672 C702 0.950 . S
H673 C703 0.950 . S
C674 H656 0.951 . S
C674 C675 1.366 . S
C674 C676 1.388 . S
C675 C674 1.366 . S
C675 C679 1.385 . S
C676 H657 0.951 . S
C676 C674 1.388 . S
C676 C677 1.366 . S
C677 C676 1.366 . S
C677 C678 1.414 . S
C677 C680 1.499 . S
C678 H658 0.950 . S
C678 C677 1.414 . S
C678 C679 1.374 . S
C679 H659 0.950 . S
C679 C675 1.385 . S
C679 C678 1.374 . S
C680 C677 1.499 . S
C680 C681 1.373 . S
C680 C682 1.389 . S
C681 H660 0.950 . S
C681 C680 1.373 . S
C681 C697 1.377 . S
C682 C680 1.389 . S
C682 C683 1.524 . S
C682 C696 1.377 . S
C683 C682 1.524 . S
C683 C684 1.397 . S
C683 C688 1.363 . S
C684 H661 0.950 . S
C684 C683 1.397 . S
C684 C685 1.334 . S
C685 H662 0.950 . S
C685 C684 1.334 . S
C685 C686 1.287 . S
C686 C685 1.287 . S
C686 C687 1.524 . S
C686 H705 0.913 . S
C687 H663 0.950 . S
C687 C686 1.524 . S
C687 C688 1.415 . S
C688 H664 0.950 . S
C688 C683 1.363 . S
C688 C687 1.415 . S
C689 H665 0.951 . S
C689 C690 1.366 . S
C689 C691 1.388 . S
C690 C689 1.366 . S
C690 C694 1.385 . S
C691 H666 0.951 . S
C691 C689 1.388 . S
C691 C692 1.366 . S
C692 C691 1.366 . S
C692 C693 1.414 . S
C692 C695 1.499 . S
C693 H667 0.950 . S
C693 C692 1.414 . S
C693 C694 1.374 . S
C694 H668 0.950 . S
C694 C690 1.385 . S
C694 C693 1.374 . S
C695 C692 1.499 . S
C695 C696 1.373 . S
C695 C697 1.389 . S
C696 H669 0.950 . S
C696 C682 1.377 . S
C696 C695 1.373 . S
C697 C681 1.377 . S
C697 C695 1.389 . S
C697 C698 1.524 . S
C698 C697 1.524 . S
C698 C699 1.397 . S
C698 C703 1.363 . S
C699 H670 0.950 . S
C699 C698 1.397 . S
C699 C700 1.334 . S
C700 H671 0.950 . S
C700 C699 1.334 . S
C700 C701 1.287 . S
C701 C700 1.287 . S
C701 C702 1.524 . S
C701 H704 0.999 . S
C702 H672 0.950 . S
C702 C701 1.524 . S
C702 C703 1.415 . S
C703 H673 0.950 . S
C703 C698 1.363 . S
C703 C702 1.415 . S
H704 C701 0.999 . S
H705 C686 0.913 . S
H706 C724 0.951 . S
H707 C726 0.951 . S
H708 C728 0.950 . S
H709 C729 0.950 . S
H710 C731 0.950 . S
H711 C734 0.950 . S
H712 C735 0.950 . S
H713 C737 0.950 . S
H714 C738 0.950 . S
H715 C739 0.951 . S
H716 C741 0.951 . S
H717 C743 0.950 . S
H718 C744 0.950 . S
H719 C746 0.950 . S
H720 C749 0.950 . S
H721 C750 0.950 . S
H722 C752 0.950 . S
H723 C753 0.950 . S
C724 H706 0.951 . S
C724 C725 1.366 . S
C724 C726 1.388 . S
C725 C724 1.366 . S
C725 C729 1.385 . S
C726 H707 0.951 . S
C726 C724 1.388 . S
C726 C727 1.366 . S
C727 C726 1.366 . S
C727 C728 1.414 . S
C727 C730 1.499 . S
C728 H708 0.950 . S
C728 C727 1.414 . S
C728 C729 1.374 . S
C729 H709 0.950 . S
C729 C725 1.385 . S
C729 C728 1.374 . S
C730 C727 1.499 . S
C730 C731 1.373 1_556 S
C730 C732 1.389 . S
C731 H710 0.950 . S
C731 C730 1.373 1_554 S
C731 C747 1.377 . S
C732 C730 1.389 . S
C732 C733 1.524 . S
C732 C746 1.377 . S
C733 C732 1.524 . S
C733 C734 1.397 . S
C733 C738 1.363 . S
C734 H711 0.950 . S
C734 C733 1.397 . S
C734 C735 1.334 . S
C735 H712 0.950 . S
C735 C734 1.334 . S
C735 C736 1.287 . S
C736 C735 1.287 . S
C736 C737 1.524 . S
C736 H755 0.913 . S
C737 H713 0.950 . S
C737 C736 1.524 . S
C737 C738 1.415 . S
C738 H714 0.950 . S
C738 C733 1.363 . S
C738 C737 1.415 . S
C739 H715 0.951 . S
C739 C740 1.366 . S
C739 C741 1.388 . S
C740 C739 1.366 . S
C740 C744 1.385 1_554 S
C741 H716 0.951 . S
C741 C739 1.388 . S
C741 C742 1.366 1_554 S
C742 C741 1.366 1_556 S
C742 C743 1.414 . S
C742 C745 1.499 . S
C743 H717 0.950 . S
C743 C742 1.414 . S
C743 C744 1.374 . S
C744 H718 0.950 . S
C744 C740 1.385 1_556 S
C744 C743 1.374 . S
C745 C742 1.499 . S
C745 C746 1.373 . S
C745 C747 1.389 1_556 S
C746 H719 0.950 . S
C746 C732 1.377 . S
C746 C745 1.373 . S
C747 C731 1.377 . S
C747 C745 1.389 1_554 S
C747 C748 1.524 . S
C748 C747 1.524 . S
C748 C749 1.397 . S
C748 C753 1.363 . S
C749 H720 0.950 . S
C749 C748 1.397 . S
C749 C750 1.334 . S
C750 H721 0.950 . S
C750 C749 1.334 . S
C750 C751 1.287 . S
C751 C750 1.287 . S
C751 C752 1.524 . S
C751 H754 0.999 . S
C752 H722 0.950 . S
C752 C751 1.524 . S
C752 C753 1.415 . S
C753 H723 0.950 . S
C753 C748 1.363 . S
C753 C752 1.415 . S
H754 C751 0.999 . S
H755 C736 0.913 . S
H756 C774 0.951 . S
H757 C776 0.951 . S
H758 C778 0.950 . S
H759 C779 0.950 . S
H760 C781 0.950 . S
H761 C784 0.950 . S
H762 C785 0.950 . S
H763 C787 0.950 . S
H764 C788 0.950 . S
H765 C789 0.951 . S
H766 C791 0.951 . S
H767 C793 0.950 . S
H768 C794 0.950 . S
H769 C796 0.950 . S
H770 C799 0.950 . S
H771 C800 0.950 . S
H772 C802 0.950 1_554 S
H773 C803 0.950 . S
C774 H756 0.951 . S
C774 C775 1.366 . S
C774 C776 1.388 . S
C775 C774 1.366 . S
C775 C779 1.385 . S
C776 H757 0.951 . S
C776 C774 1.388 . S
C776 C777 1.366 . S
C777 C776 1.366 . S
C777 C778 1.414 . S
C777 C780 1.499 . S
C778 H758 0.950 . S
C778 C777 1.414 . S
C778 C779 1.374 . S
C779 H759 0.950 . S
C779 C775 1.385 . S
C779 C778 1.374 . S
C780 C777 1.499 . S
C780 C781 1.373 . S
C780 C782 1.389 . S
C781 H760 0.950 . S
C781 C780 1.373 . S
C781 C797 1.377 . S
C782 C780 1.389 . S
C782 C783 1.524 . S
C782 C796 1.377 . S
C783 C782 1.524 . S
C783 C784 1.397 . S
C783 C788 1.363 . S
C784 H761 0.950 . S
C784 C783 1.397 . S
C784 C785 1.334 . S
C785 H762 0.950 . S
C785 C784 1.334 . S
C785 C786 1.287 . S
C786 C785 1.287 . S
C786 C787 1.524 . S
C786 H805 0.913 . S
C787 H763 0.950 . S
C787 C786 1.524 . S
C787 C788 1.415 . S
C788 H764 0.950 . S
C788 C783 1.363 . S
C788 C787 1.415 . S
C789 H765 0.951 . S
C789 C790 1.366 . S
C789 C791 1.388 . S
C790 C789 1.366 . S
C790 C794 1.385 . S
C791 H766 0.951 . S
C791 C789 1.388 . S
C791 C792 1.366 . S
C792 C791 1.366 . S
C792 C793 1.414 . S
C792 C795 1.499 . S
C793 H767 0.950 . S
C793 C792 1.414 . S
C793 C794 1.374 . S
C794 H768 0.950 . S
C794 C790 1.385 . S
C794 C793 1.374 . S
C795 C792 1.499 . S
C795 C796 1.373 . S
C795 C797 1.389 . S
C796 H769 0.950 . S
C796 C782 1.377 . S
C796 C795 1.373 . S
C797 C781 1.377 . S
C797 C795 1.389 . S
C797 C798 1.524 . S
C798 C797 1.524 . S
C798 C799 1.397 . S
C798 C803 1.363 . S
C799 H770 0.950 . S
C799 C798 1.397 . S
C799 C800 1.334 . S
C800 H771 0.950 . S
C800 C799 1.334 . S
C800 C801 1.287 . S
C801 C800 1.287 . S
C801 C802 1.524 . S
C801 H804 0.999 1_556 S
C802 H772 0.950 1_556 S
C802 C801 1.524 . S
C802 C803 1.415 . S
C803 H773 0.950 . S
C803 C798 1.363 . S
C803 C802 1.415 . S
H804 C801 0.999 1_554 S
H805 C786 0.913 . S
H806 C824 0.951 . S
H807 C826 0.951 . S
H808 C828 0.950 . S
H809 C829 0.950 . S
H810 C831 0.950 . S
H811 C834 0.950 . S
H812 C835 0.950 . S
H813 C837 0.950 . S
H814 C838 0.950 . S
H815 C839 0.951 . S
H816 C841 0.951 . S
H817 C843 0.950 . S
H818 C844 0.950 . S
H819 C846 0.956 . S
H820 C849 0.950 . S
H821 C850 0.950 . S
H822 C852 0.950 . S
H823 C853 0.950 . S
C824 H806 0.951 . S
C824 C825 1.366 . S
C824 C826 1.388 . S
C825 C824 1.366 . S
C825 C829 1.385 . S
C826 H807 0.951 . S
C826 C824 1.388 . S
C826 C827 1.366 . S
C827 C826 1.366 . S
C827 C828 1.414 . S
C827 C830 1.499 . S
C828 H808 0.950 . S
C828 C827 1.414 . S
C828 C829 1.374 . S
C829 H809 0.950 . S
C829 C825 1.385 . S
C829 C828 1.374 . S
C830 C827 1.499 . S
C830 C831 1.373 1_554 S
C830 C832 1.389 . S
C831 H810 0.950 . S
C831 C830 1.373 1_556 S
C831 C847 1.377 . S
C832 C830 1.389 . S
C832 C833 1.524 . S
C832 C846 1.377 1_554 S
C833 C832 1.524 . S
C833 C834 1.397 . S
C833 C838 1.363 . S
C834 H811 0.950 . S
C834 C833 1.397 . S
C834 C835 1.334 . S
C835 H812 0.950 . S
C835 C834 1.334 . S
C835 C836 1.287 . S
C836 C835 1.287 . S
C836 C837 1.524 . S
C836 H855 0.913 . S
C837 H813 0.950 . S
C837 C836 1.524 . S
C837 C838 1.415 . S
C838 H814 0.950 . S
C838 C833 1.363 . S
C838 C837 1.415 . S
C839 H815 0.951 . S
C839 C840 1.366 . S
C839 C841 1.388 . S
C840 C839 1.366 . S
C840 C844 1.385 . S
C841 H816 0.951 . S
C841 C839 1.388 . S
C841 C842 1.366 . S
C842 C841 1.366 . S
C842 C843 1.414 . S
C842 C845 1.499 . S
C843 H817 0.950 . S
C843 C842 1.414 . S
C843 C844 1.374 . S
C844 H818 0.950 . S
C844 C840 1.385 . S
C844 C843 1.374 . S
C845 C842 1.499 . S
C845 C846 1.373 . S
C845 C847 1.389 . S
C846 H819 0.956 . S
C846 C832 1.377 1_556 S
C846 C845 1.373 . S
C847 C831 1.377 . S
C847 C845 1.389 . S
C847 C848 1.524 . S
C848 C847 1.524 . S
C848 C849 1.397 . S
C848 C853 1.363 . S
C849 H820 0.950 . S
C849 C848 1.397 . S
C849 C850 1.334 . S
C850 H821 0.950 . S
C850 C849 1.334 . S
C850 C851 1.287 . S
C851 C850 1.287 . S
C851 C852 1.524 . S
C851 H854 0.999 . S
C852 H822 0.950 . S
C852 C851 1.524 . S
C852 C853 1.415 . S
C853 H823 0.950 . S
C853 C848 1.363 . S
C853 C852 1.415 . S
H854 C851 0.999 . S
H855 C836 0.913 . S
H856 C874 0.951 . S
H857 C876 0.951 . S
H858 C878 0.950 . S
H859 C879 0.950 . S
H860 C881 0.950 . S
H861 C884 0.950 . S
H862 C885 0.950 . S
H863 C887 0.950 . S
H864 C888 0.950 . S
H865 C889 0.951 . S
H866 C891 0.951 . S
H867 C893 0.950 . S
H868 C894 0.950 1_556 S
H869 C896 0.950 . S
H870 C899 0.950 . S
H871 C900 0.950 . S
H872 C902 0.950 . S
H873 C903 0.950 . S
C874 H856 0.951 . S
C874 C875 1.366 . S
C874 C876 1.388 . S
C875 C874 1.366 . S
C875 C879 1.385 . S
C876 H857 0.951 . S
C876 C874 1.388 . S
C876 C877 1.366 . S
C877 C876 1.366 . S
C877 C878 1.414 . S
C877 C880 1.499 . S
C878 H858 0.950 . S
C878 C877 1.414 . S
C878 C879 1.374 . S
C879 H859 0.950 . S
C879 C875 1.385 . S
C879 C878 1.374 . S
C880 C877 1.499 . S
C880 C881 1.373 . S
C880 C882 1.389 . S
C881 H860 0.950 . S
C881 C880 1.373 . S
C881 C897 1.377 . S
C882 C880 1.389 . S
C882 C883 1.524 . S
C882 C896 1.377 . S
C883 C882 1.524 . S
C883 C884 1.397 . S
C883 C888 1.363 . S
C884 H861 0.950 . S
C884 C883 1.397 . S
C884 C885 1.334 . S
C885 H862 0.950 . S
C885 C884 1.334 . S
C885 C886 1.287 . S
C886 C885 1.287 . S
C886 C887 1.524 . S
C886 H905 0.913 . S
C887 H863 0.950 . S
C887 C886 1.524 . S
C887 C888 1.415 . S
C888 H864 0.950 . S
C888 C883 1.363 . S
C888 C887 1.415 . S
C889 H865 0.951 . S
C889 C890 1.366 1_554 S
C889 C891 1.388 . S
C890 C889 1.366 1_556 S
C890 C894 1.385 1_556 S
C891 H866 0.951 . S
C891 C889 1.388 . S
C891 C892 1.366 . S
C892 C891 1.366 . S
C892 C893 1.414 . S
C892 C895 1.499 . S
C893 H867 0.950 . S
C893 C892 1.414 . S
C893 C894 1.374 . S
C894 H868 0.950 1_554 S
C894 C890 1.385 1_554 S
C894 C893 1.374 . S
C895 C892 1.499 . S
C895 C896 1.373 . S
C895 C897 1.389 . S
C896 H869 0.950 . S
C896 C882 1.377 . S
C896 C895 1.373 . S
C897 C881 1.377 . S
C897 C895 1.389 . S
C897 C898 1.524 . S
C898 C897 1.524 . S
C898 C899 1.397 . S
C898 C903 1.363 . S
C899 H870 0.950 . S
C899 C898 1.397 . S
C899 C900 1.334 1_554 S
C900 H871 0.950 . S
C900 C899 1.334 1_556 S
C900 C901 1.287 . S
C901 C900 1.287 . S
C901 C902 1.524 1_556 S
C901 H904 0.999 . S
C902 H872 0.950 . S
C902 C901 1.524 1_554 S
C902 C903 1.415 . S
C903 H873 0.950 . S
C903 C898 1.363 . S
C903 C902 1.415 . S
H904 C901 0.999 . S
H905 C886 0.913 . S
H906 C924 0.951 . S
H907 C926 0.951 . S
H908 C928 0.950 . S
H909 C929 0.950 . S
H910 C931 0.950 . S
H911 C934 0.950 . S
H912 C935 0.950 . S
H913 C937 0.950 . S
H914 C938 0.950 . S
H915 C939 0.951 . S
H916 C941 0.951 . S
H917 C943 0.950 . S
H918 C944 0.950 . S
H919 C946 0.950 . S
H920 C949 0.950 . S
H921 C950 0.950 . S
H922 C952 0.950 . S
H923 C953 0.950 . S
C924 H906 0.951 . S
C924 C925 1.366 . S
C924 C926 1.388 . S
C925 C924 1.366 . S
C925 C929 1.385 . S
C926 H907 0.951 . S
C926 C924 1.388 . S
C926 C927 1.366 . S
C927 C926 1.366 . S
C927 C928 1.414 . S
C927 C930 1.499 . S
C928 H908 0.950 . S
C928 C927 1.414 . S
C928 C929 1.374 . S
C929 H909 0.950 . S
C929 C925 1.385 . S
C929 C928 1.374 . S
C930 C927 1.499 . S
C930 C931 1.373 . S
C930 C932 1.389 . S
C931 H910 0.950 . S
C931 C930 1.373 . S
C931 C947 1.377 . S
C932 C930 1.389 . S
C932 C933 1.524 . S
C932 C946 1.377 . S
C933 C932 1.524 . S
C933 C934 1.397 . S
C933 C938 1.363 . S
C934 H911 0.950 . S
C934 C933 1.397 . S
C934 C935 1.334 . S
C935 H912 0.950 . S
C935 C934 1.334 . S
C935 C936 1.287 . S
C936 C935 1.287 . S
C936 C937 1.524 . S
C936 H955 0.913 . S
C937 H913 0.950 . S
C937 C936 1.524 . S
C937 C938 1.415 . S
C938 H914 0.950 . S
C938 C933 1.363 . S
C938 C937 1.415 . S
C939 H915 0.951 . S
C939 C940 1.366 . S
C939 C941 1.388 . S
C940 C939 1.366 . S
C940 C944 1.385 . S
C941 H916 0.951 . S
C941 C939 1.388 . S
C941 C942 1.366 . S
C942 C941 1.366 . S
C942 C943 1.414 . S
C942 C945 1.499 . S
C943 H917 0.950 . S
C943 C942 1.414 . S
C943 C944 1.374 . S
C944 H918 0.950 . S
C944 C940 1.385 . S
C944 C943 1.374 . S
C945 C942 1.499 . S
C945 C946 1.373 . S
C945 C947 1.389 . S
C946 H919 0.950 . S
C946 C932 1.377 . S
C946 C945 1.373 . S
C947 C931 1.377 . S
C947 C945 1.389 . S
C947 C948 1.524 . S
C948 C947 1.524 . S
C948 C949 1.397 . S
C948 C953 1.363 . S
C949 H920 0.950 . S
C949 C948 1.397 . S
C949 C950 1.334 . S
C950 H921 0.950 . S
C950 C949 1.334 . S
C950 C951 1.287 . S
C951 C950 1.287 . S
C951 C952 1.524 . S
C951 H954 0.999 . S
C952 H922 0.950 . S
C952 C951 1.524 . S
C952 C953 1.415 . S
C953 H923 0.950 . S
C953 C948 1.363 . S
C953 C952 1.415 . S
H954 C951 0.999 . S
H955 C936 0.913 . S
H956 C974 0.951 . S
H957 C976 0.951 . S
H958 C978 0.950 . S
H959 C979 0.950 . S
H960 C981 0.950 . S
H961 C984 0.950 . S
H962 C985 0.950 . S
H963 C987 0.950 . S
H964 C988 0.950 . S
H965 C989 0.951 . S
H966 C991 0.951 . S
H967 C993 0.950 . S
H968 C994 0.950 . S
H969 C996 0.950 . S
H970 C999 0.950 . S
H971 C1000 0.950 . S
H972 C1002 0.950 . S
H973 C1003 0.950 . S
C974 H956 0.951 . S
C974 C975 1.366 . S
C974 C976 1.388 . S
C975 C974 1.366 . S
C975 C979 1.385 . S
C976 H957 0.951 . S
C976 C974 1.388 . S
C976 C977 1.366 . S
C977 C976 1.366 . S
C977 C978 1.414 . S
C977 C980 1.499 . S
C978 H958 0.950 . S
C978 C977 1.414 . S
C978 C979 1.374 . S
C979 H959 0.950 . S
C979 C975 1.385 . S
C979 C978 1.374 . S
C980 C977 1.499 . S
C980 C981 1.373 . S
C980 C982 1.389 . S
C981 H960 0.950 . S
C981 C980 1.373 . S
C981 C997 1.377 . S
C982 C980 1.389 . S
C982 C983 1.524 . S
C982 C996 1.377 . S
C983 C982 1.524 . S
C983 C984 1.397 . S
C983 C988 1.363 . S
C984 H961 0.950 . S
C984 C983 1.397 . S
C984 C985 1.334 . S
C985 H962 0.950 . S
C985 C984 1.334 . S
C985 C986 1.287 . S
C986 C985 1.287 . S
C986 C987 1.524 . S
C986 H1005 0.913 . S
C987 H963 0.950 . S
C987 C986 1.524 . S
C987 C988 1.415 . S
C988 H964 0.950 . S
C988 C983 1.363 . S
C988 C987 1.415 . S
C989 H965 0.951 . S
C989 C990 1.366 . S
C989 C991 1.388 . S
C990 C989 1.366 . S
C990 C994 1.385 . S
C991 H966 0.951 . S
C991 C989 1.388 . S
C991 C992 1.366 . S
C992 C991 1.366 . S
C992 C993 1.414 . S
C992 C995 1.499 . S
C993 H967 0.950 . S
C993 C992 1.414 . S
C993 C994 1.374 . S
C994 H968 0.950 . S
C994 C990 1.385 . S
C994 C993 1.374 . S
C995 C992 1.499 . S
C995 C996 1.373 . S
C995 C997 1.389 . S
C996 H969 0.950 . S
C996 C982 1.377 . S
C996 C995 1.373 . S
C997 C981 1.377 . S
C997 C995 1.389 . S
C997 C998 1.524 . S
C998 C997 1.524 . S
C998 C999 1.397 . S
C998 C1003 1.363 . S
C999 H970 0.950 . S
C999 C998 1.397 . S
C999 C1000 1.334 . S
C1000 H971 0.950 . S
C1000 C999 1.334 . S
C1000 C1001 1.287 . S
C1001 C1000 1.287 . S
C1001 C1002 1.524 . S
C1001 H1004 0.999 . S
C1002 H972 0.950 . S
C1002 C1001 1.524 . S
C1002 C1003 1.415 . S
C1003 H973 0.950 . S
C1003 C998 1.363 . S
C1003 C1002 1.415 . S
H1004 C1001 0.999 . S
H1005 C986 0.913 . S
H1006 C1024 0.951 . S
H1007 C1026 0.951 . S
H1008 C1028 0.950 . S
H1009 C1029 0.950 . S
H1010 C1031 0.950 . S
H1011 C1034 0.950 . S
H1012 C1035 0.950 . S
H1013 C1037 0.950 . S
H1014 C1038 0.950 . S
H1015 C1039 0.951 . S
H1016 C1041 0.951 . S
H1017 C1043 0.950 . S
H1018 C1044 0.950 . S
H1019 C1046 0.950 . S
H1020 C1049 0.950 . S
H1021 C1050 0.950 . S
H1022 C1052 0.950 . S
H1023 C1053 0.950 . S
C1024 H1006 0.951 . S
C1024 C1025 1.366 . S
C1024 C1026 1.388 . S
C1025 C1024 1.366 . S
C1025 C1029 1.385 . S
C1026 H1007 0.951 . S
C1026 C1024 1.388 . S
C1026 C1027 1.366 . S
C1027 C1026 1.366 . S
C1027 C1028 1.414 . S
C1027 C1030 1.499 . S
C1028 H1008 0.950 . S
C1028 C1027 1.414 . S
C1028 C1029 1.374 . S
C1029 H1009 0.950 . S
C1029 C1025 1.385 . S
C1029 C1028 1.374 . S
C1030 C1027 1.499 . S
C1030 C1031 1.373 . S
C1030 C1032 1.389 . S
C1031 H1010 0.950 . S
C1031 C1030 1.373 . S
C1031 C1047 1.377 . S
C1032 C1030 1.389 . S
C1032 C1033 1.524 . S
C1032 C1046 1.377 . S
C1033 C1032 1.524 . S
C1033 C1034 1.397 . S
C1033 C1038 1.363 . S
C1034 H1011 0.950 . S
C1034 C1033 1.397 . S
C1034 C1035 1.334 . S
C1035 H1012 0.950 . S
C1035 C1034 1.334 . S
C1035 C1036 1.287 . S
C1036 C1035 1.287 . S
C1036 C1037 1.524 . S
C1036 H1055 0.913 . S
C1037 H1013 0.950 . S
C1037 C1036 1.524 . S
C1037 C1038 1.415 . S
C1038 H1014 0.950 . S
C1038 C1033 1.363 . S
C1038 C1037 1.415 . S
C1039 H1015 0.951 . S
C1039 C1040 1.366 . S
C1039 C1041 1.388 . S
C1040 C1039 1.366 . S
C1040 C1044 1.385 . S
C1041 H1016 0.951 . S
C1041 C1039 1.388 . S
C1041 C1042 1.366 . S
C1042 C1041 1.366 . S
C1042 C1043 1.414 . S
C1042 C1045 1.499 . S
C1043 H1017 0.950 . S
C1043 C1042 1.414 . S
C1043 C1044 1.374 . S
C1044 H1018 0.950 . S
C1044 C1040 1.385 . S
C1044 C1043 1.374 . S
C1045 C1042 1.499 . S
C1045 C1046 1.373 . S
C1045 C1047 1.389 . S
C1046 H1019 0.950 . S
C1046 C1032 1.377 . S
C1046 C1045 1.373 . S
C1047 C1031 1.377 . S
C1047 C1045 1.389 . S
C1047 C1048 1.524 . S
C1048 C1047 1.524 . S
C1048 C1049 1.397 . S
C1048 C1053 1.363 . S
C1049 H1020 0.950 . S
C1049 C1048 1.397 . S
C1049 C1050 1.334 . S
C1050 H1021 0.950 . S
C1050 C1049 1.334 . S
C1050 C1051 1.287 . S
C1051 C1050 1.287 . S
C1051 C1052 1.524 . S
C1051 H1054 0.999 . S
C1052 H1022 0.950 . S
C1052 C1051 1.524 . S
C1052 C1053 1.415 . S
C1053 H1023 0.950 . S
C1053 C1048 1.363 . S
C1053 C1052 1.415 . S
H1054 C1051 0.999 . S
H1055 C1036 0.913 . S
H1056 C1074 0.951 . S
H1057 C1076 0.951 . S
H1058 C1078 0.950 . S
H1059 C1079 0.950 1_554 S
H1060 C1081 0.950 . S
H1061 C1084 0.950 . S
H1062 C1085 0.950 . S
H1063 C1087 0.950 . S
H1064 C1088 0.950 . S
H1065 C1089 0.951 . S
H1066 C1091 0.951 . S
H1067 C1093 0.950 . S
H1068 C1094 0.950 . S
H1069 C1096 0.950 . S
H1070 C1099 0.950 . S
H1071 C1100 0.950 . S
H1072 C1102 0.950 1_554 S
H1073 C1103 0.950 . S
C1074 H1056 0.951 . S
C1074 C1075 1.366 1_556 S
C1074 C1076 1.388 . S
C1075 C1074 1.366 1_554 S
C1075 C1079 1.385 1_554 S
C1076 H1057 0.951 . S
C1076 C1074 1.388 . S
C1076 C1077 1.366 . S
C1077 C1076 1.366 . S
C1077 C1078 1.414 . S
C1077 C1080 1.499 . S
C1078 H1058 0.950 . S
C1078 C1077 1.414 . S
C1078 C1079 1.374 . S
C1079 H1059 0.950 1_556 S
C1079 C1075 1.385 1_556 S
C1079 C1078 1.374 . S
C1080 C1077 1.499 . S
C1080 C1081 1.373 . S
C1080 C1082 1.389 . S
C1081 H1060 0.950 . S
C1081 C1080 1.373 . S
C1081 C1097 1.377 1_455 S
C1082 C1080 1.389 . S
C1082 C1083 1.524 . S
C1082 C1096 1.377 1_455 S
C1083 C1082 1.524 . S
C1083 C1084 1.397 . S
C1083 C1088 1.363 . S
C1084 H1061 0.950 . S
C1084 C1083 1.397 . S
C1084 C1085 1.334 . S
C1085 H1062 0.950 . S
C1085 C1084 1.334 . S
C1085 C1086 1.287 . S
C1086 C1085 1.287 . S
C1086 C1087 1.524 . S
C1086 H1105 0.913 . S
C1087 H1063 0.950 . S
C1087 C1086 1.524 . S
C1087 C1088 1.415 . S
C1088 H1064 0.950 . S
C1088 C1083 1.363 . S
C1088 C1087 1.415 . S
C1089 H1065 0.951 . S
C1089 C1090 1.366 . S
C1089 C1091 1.388 . S
C1090 C1089 1.366 . S
C1090 C1094 1.385 . S
C1091 H1066 0.951 . S
C1091 C1089 1.388 . S
C1091 C1092 1.366 . S
C1092 C1091 1.366 . S
C1092 C1093 1.414 . S
C1092 C1095 1.499 . S
C1093 H1067 0.950 . S
C1093 C1092 1.414 . S
C1093 C1094 1.374 . S
C1094 H1068 0.950 . S
C1094 C1090 1.385 . S
C1094 C1093 1.374 . S
C1095 C1092 1.499 . S
C1095 C1096 1.373 . S
C1095 C1097 1.389 . S
C1096 H1069 0.950 . S
C1096 C1082 1.377 1_655 S
C1096 C1095 1.373 . S
C1097 C1081 1.377 1_655 S
C1097 C1095 1.389 . S
C1097 C1098 1.524 . S
C1098 C1097 1.524 . S
C1098 C1099 1.397 . S
C1098 C1103 1.363 . S
C1099 H1070 0.950 . S
C1099 C1098 1.397 . S
C1099 C1100 1.334 . S
C1100 H1071 0.950 . S
C1100 C1099 1.334 . S
C1100 C1101 1.287 . S
C1101 C1100 1.287 . S
C1101 C1102 1.524 . S
C1101 H1104 0.999 1_556 S
C1102 H1072 0.950 1_556 S
C1102 C1101 1.524 . S
C1102 C1103 1.415 . S
C1103 H1073 0.950 . S
C1103 C1098 1.363 . S
C1103 C1102 1.415 . S
H1104 C1101 0.999 1_554 S
H1105 C1086 0.913 . S
H1106 C1124 0.951 . S
H1107 C1126 0.951 . S
H1108 C1128 0.950 . S
H1109 C1129 0.950 . S
H1110 C1131 0.950 . S
H1111 C1134 0.950 . S
H1112 C1135 0.950 . S
H1113 C1137 0.950 . S
H1114 C1138 0.950 . S
H1115 C1139 0.951 . S
H1116 C1141 0.951 . S
H1117 C1143 0.950 . S
H1118 C1144 0.950 . S
H1119 C1146 0.950 . S
H1120 C1149 0.950 . S
H1121 C1150 0.950 . S
H1122 C1152 0.950 . S
H1123 C1153 0.950 . S
C1124 H1106 0.951 . S
C1124 C1125 1.366 . S
C1124 C1126 1.388 1_556 S
C1125 C1124 1.366 . S
C1125 C1129 1.385 . S
C1126 H1107 0.951 . S
C1126 C1124 1.388 1_554 S
C1126 C1127 1.365 1_554 S
C1127 C1126 1.365 1_556 S
C1127 C1128 1.414 . S
C1127 C1130 1.498 1_556 S
C1128 H1108 0.950 . S
C1128 C1127 1.414 . S
C1128 C1129 1.374 . S
C1129 H1109 0.950 . S
C1129 C1125 1.385 . S
C1129 C1128 1.374 . S
C1130 C1127 1.498 1_554 S
C1130 C1131 1.373 . S
C1130 C1132 1.389 . S
C1131 H1110 0.950 . S
C1131 C1130 1.373 . S
C1131 C1147 1.377 1_565 S
C1132 C1130 1.389 . S
C1132 C1133 1.524 . S
C1132 C1146 1.377 1_565 S
C1133 C1132 1.524 . S
C1133 C1134 1.397 1_554 S
C1133 C1138 1.363 . S
C1134 H1111 0.950 . S
C1134 C1133 1.397 1_556 S
C1134 C1135 1.334 . S
C1135 H1112 0.950 . S
C1135 C1134 1.334 . S
C1135 C1136 1.287 . S
C1136 C1135 1.287 . S
C1136 C1137 1.524 1_556 S
C1136 H1155 0.913 . S
C1137 H1113 0.950 . S
C1137 C1136 1.524 1_554 S
C1137 C1138 1.415 . S
C1138 H1114 0.950 . S
C1138 C1133 1.363 . S
C1138 C1137 1.415 . S
C1139 H1115 0.951 . S
C1139 C1140 1.366 . S
C1139 C1141 1.388 . S
C1140 C1139 1.366 . S
C1140 C1144 1.385 . S
C1141 H1116 0.951 . S
C1141 C1139 1.388 . S
C1141 C1142 1.366 . S
C1142 C1141 1.366 . S
C1142 C1143 1.414 . S
C1142 C1145 1.499 . S
C1143 H1117 0.950 . S
C1143 C1142 1.414 . S
C1143 C1144 1.374 . S
C1144 H1118 0.950 . S
C1144 C1140 1.385 . S
C1144 C1143 1.374 . S
C1145 C1142 1.499 . S
C1145 C1146 1.373 . S
C1145 C1147 1.389 . S
C1146 H1119 0.950 . S
C1146 C1132 1.377 1_545 S
C1146 C1145 1.373 . S
C1147 C1131 1.377 1_545 S
C1147 C1145 1.389 . S
C1147 C1148 1.524 . S
C1148 C1147 1.524 . S
C1148 C1149 1.397 . S
C1148 C1153 1.363 . S
C1149 H1120 0.950 . S
C1149 C1148 1.397 . S
C1149 C1150 1.334 . S
C1150 H1121 0.950 . S
C1150 C1149 1.334 . S
C1150 C1151 1.287 . S
C1151 C1150 1.287 . S
C1151 C1152 1.524 . S
C1151 H1154 0.999 . S
C1152 H1122 0.950 . S
C1152 C1151 1.524 . S
C1152 C1153 1.415 . S
C1153 H1123 0.950 . S
C1153 C1148 1.363 . S
C1153 C1152 1.415 . S
H1154 C1151 0.999 . S
H1155 C1136 0.913 . S
H1156 C1174 0.951 . S
H1157 C1176 0.951 . S
H1158 C1178 0.950 . S
H1159 C1179 0.950 . S
H1160 C1181 0.950 . S
H1161 C1184 0.950 . S
H1162 C1185 0.950 . S
H1163 C1187 0.950 . S
H1164 C1188 0.950 . S
H1165 C1189 0.951 . S
H1166 C1191 0.951 . S
H1167 C1193 0.950 . S
H1168 C1194 0.950 . S
H1169 C1196 0.950 . S
H1170 C1199 0.950 . S
H1171 C1200 0.950 . S
H1172 C1202 0.950 . S
H1173 C1203 0.950 . S
C1174 H1156 0.951 . S
C1174 C1175 1.366 . S
C1174 C1176 1.388 . S
C1175 C1174 1.366 . S
C1175 C1179 1.385 . S
C1176 H1157 0.951 . S
C1176 C1174 1.388 . S
C1176 C1177 1.366 . S
C1177 C1176 1.366 . S
C1177 C1178 1.414 . S
C1177 C1180 1.499 . S
C1178 H1158 0.950 . S
C1178 C1177 1.414 . S
C1178 C1179 1.374 . S
C1179 H1159 0.950 . S
C1179 C1175 1.385 . S
C1179 C1178 1.374 . S
C1180 C1177 1.499 . S
C1180 C1181 1.373 . S
C1180 C1182 1.389 . S
C1181 H1160 0.950 . S
C1181 C1180 1.373 . S
C1181 C1197 1.377 . S
C1182 C1180 1.389 . S
C1182 C1183 1.524 . S
C1182 C1196 1.377 . S
C1183 C1182 1.524 . S
C1183 C1184 1.397 . S
C1183 C1188 1.363 . S
C1184 H1161 0.950 . S
C1184 C1183 1.397 . S
C1184 C1185 1.334 . S
C1185 H1162 0.950 . S
C1185 C1184 1.334 . S
C1185 C1186 1.287 . S
C1186 C1185 1.287 . S
C1186 C1187 1.524 . S
C1186 H1205 0.913 . S
C1187 H1163 0.950 . S
C1187 C1186 1.524 . S
C1187 C1188 1.415 . S
C1188 H1164 0.950 . S
C1188 C1183 1.363 . S
C1188 C1187 1.415 . S
C1189 H1165 0.951 . S
C1189 C1190 1.366 . S
C1189 C1191 1.388 . S
C1190 C1189 1.366 . S
C1190 C1194 1.385 . S
C1191 H1166 0.951 . S
C1191 C1189 1.388 . S
C1191 C1192 1.366 . S
C1192 C1191 1.366 . S
C1192 C1193 1.414 . S
C1192 C1195 1.499 . S
C1193 H1167 0.950 . S
C1193 C1192 1.414 . S
C1193 C1194 1.374 . S
C1194 H1168 0.950 . S
C1194 C1190 1.385 . S
C1194 C1193 1.374 . S
C1195 C1192 1.499 . S
C1195 C1196 1.373 . S
C1195 C1197 1.389 . S
C1196 H1169 0.950 . S
C1196 C1182 1.377 . S
C1196 C1195 1.373 . S
C1197 C1181 1.377 . S
C1197 C1195 1.389 . S
C1197 C1198 1.524 . S
C1198 C1197 1.524 . S
C1198 C1199 1.397 . S
C1198 C1203 1.363 . S
C1199 H1170 0.950 . S
C1199 C1198 1.397 . S
C1199 C1200 1.334 . S
C1200 H1171 0.950 . S
C1200 C1199 1.334 . S
C1200 C1201 1.287 . S
C1201 C1200 1.287 . S
C1201 C1202 1.524 . S
C1201 H1204 0.999 . S
C1202 H1172 0.950 . S
C1202 C1201 1.524 . S
C1202 C1203 1.415 . S
C1203 H1173 0.950 . S
C1203 C1198 1.363 . S
C1203 C1202 1.415 . S
H1204 C1201 0.999 . S
H1205 C1186 0.913 . S
H1206 C1224 0.951 . S
H1207 C1226 0.951 . S
H1208 C1228 0.950 . S
H1209 C1229 0.950 . S
H1210 C1231 0.950 . S
H1211 C1234 0.950 . S
H1212 C1235 0.950 . S
H1213 C1237 0.950 . S
H1214 C1238 0.950 . S
H1215 C1239 0.951 . S
H1216 C1241 0.951 . S
H1217 C1243 0.950 . S
H1218 C1244 0.950 . S
H1219 C1246 0.950 . S
H1220 C1249 0.950 . S
H1221 C1250 0.950 . S
H1222 C1252 0.950 . S
H1223 C1253 0.950 . S
C1224 H1206 0.951 . S
C1224 C1225 1.366 . S
C1224 C1226 1.388 . S
C1225 C1224 1.366 . S
C1225 C1229 1.385 . S
C1226 H1207 0.951 . S
C1226 C1224 1.388 . S
C1226 C1227 1.366 . S
C1227 C1226 1.366 . S
C1227 C1228 1.414 . S
C1227 C1230 1.499 . S
C1228 H1208 0.950 . S
C1228 C1227 1.414 . S
C1228 C1229 1.374 . S
C1229 H1209 0.950 . S
C1229 C1225 1.385 . S
C1229 C1228 1.374 . S
C1230 C1227 1.499 . S
C1230 C1231 1.373 . S
C1230 C1232 1.389 . S
C1231 H1210 0.950 . S
C1231 C1230 1.373 . S
C1231 C1247 1.377 1_455 S
C1232 C1230 1.389 . S
C1232 C1233 1.524 . S
C1232 C1246 1.377 1_455 S
C1233 C1232 1.524 . S
C1233 C1234 1.397 . S
C1233 C1238 1.363 . S
C1234 H1211 0.950 . S
C1234 C1233 1.397 . S
C1234 C1235 1.334 . S
C1235 H1212 0.950 . S
C1235 C1234 1.334 . S
C1235 C1236 1.287 . S
C1236 C1235 1.287 . S
C1236 C1237 1.524 . S
C1236 H1255 0.913 . S
C1237 H1213 0.950 . S
C1237 C1236 1.524 . S
C1237 C1238 1.415 . S
C1238 H1214 0.950 . S
C1238 C1233 1.363 . S
C1238 C1237 1.415 . S
C1239 H1215 0.951 . S
C1239 C1240 1.366 . S
C1239 C1241 1.388 . S
C1240 C1239 1.366 . S
C1240 C1244 1.385 . S
C1241 H1216 0.951 . S
C1241 C1239 1.388 . S
C1241 C1242 1.366 . S
C1242 C1241 1.366 . S
C1242 C1243 1.414 . S
C1242 C1245 1.499 . S
C1243 H1217 0.950 . S
C1243 C1242 1.414 . S
C1243 C1244 1.374 . S
C1244 H1218 0.950 . S
C1244 C1240 1.385 . S
C1244 C1243 1.374 . S
C1245 C1242 1.499 . S
C1245 C1246 1.373 . S
C1245 C1247 1.389 . S
C1246 H1219 0.950 . S
C1246 C1232 1.377 1_655 S
C1246 C1245 1.373 . S
C1247 C1231 1.377 1_655 S
C1247 C1245 1.389 . S
C1247 C1248 1.524 . S
C1248 C1247 1.524 . S
C1248 C1249 1.397 . S
C1248 C1253 1.363 . S
C1249 H1220 0.950 . S
C1249 C1248 1.397 . S
C1249 C1250 1.334 . S
C1250 H1221 0.950 . S
C1250 C1249 1.334 . S
C1250 C1251 1.287 . S
C1251 C1250 1.287 . S
C1251 C1252 1.524 . S
C1251 H1254 0.999 . S
C1252 H1222 0.950 . S
C1252 C1251 1.524 . S
C1252 C1253 1.415 . S
C1253 H1223 0.950 . S
C1253 C1248 1.363 . S
C1253 C1252 1.415 . S
H1254 C1251 0.999 . S
H1255 C1236 0.913 . S
H1256 C1274 0.951 . S
H1257 C1276 0.951 . S
H1258 C1278 0.950 . S
H1259 C1279 0.950 . S
H1260 C1281 0.950 . S
H1261 C1284 0.950 . S
H1262 C1285 0.950 . S
H1263 C1287 0.950 . S
H1264 C1288 0.950 . S
H1265 C1289 0.951 . S
H1266 C1291 0.951 . S
H1267 C1293 0.950 . S
H1268 C1294 0.950 . S
H1269 C1296 0.950 . S
H1270 C1299 0.950 . S
H1271 C1300 0.950 . S
H1272 C1302 0.950 . S
H1273 C1303 0.950 . S
C1274 H1256 0.951 . S
C1274 C1275 1.366 . S
C1274 C1276 1.388 . S
C1275 C1274 1.366 . S
C1275 C1279 1.385 . S
C1276 H1257 0.951 . S
C1276 C1274 1.388 . S
C1276 C1277 1.366 . S
C1277 C1276 1.366 . S
C1277 C1278 1.414 . S
C1277 C1280 1.499 . S
C1278 H1258 0.950 . S
C1278 C1277 1.414 . S
C1278 C1279 1.374 . S
C1279 H1259 0.950 . S
C1279 C1275 1.385 . S
C1279 C1278 1.374 . S
C1280 C1277 1.499 . S
C1280 C1281 1.373 . S
C1280 C1282 1.389 . S
C1281 H1260 0.950 . S
C1281 C1280 1.373 . S
C1281 C1297 1.377 1_545 S
C1282 C1280 1.389 . S
C1282 C1283 1.524 . S
C1282 C1296 1.377 1_545 S
C1283 C1282 1.524 . S
C1283 C1284 1.397 . S
C1283 C1288 1.363 . S
C1284 H1261 0.950 . S
C1284 C1283 1.397 . S
C1284 C1285 1.334 . S
C1285 H1262 0.950 . S
C1285 C1284 1.334 . S
C1285 C1286 1.287 . S
C1286 C1285 1.287 . S
C1286 C1287 1.524 . S
C1286 H1305 0.913 . S
C1287 H1263 0.950 . S
C1287 C1286 1.524 . S
C1287 C1288 1.415 . S
C1288 H1264 0.950 . S
C1288 C1283 1.363 . S
C1288 C1287 1.415 . S
C1289 H1265 0.951 . S
C1289 C1290 1.366 . S
C1289 C1291 1.388 . S
C1290 C1289 1.366 . S
C1290 C1294 1.385 . S
C1291 H1266 0.951 . S
C1291 C1289 1.388 . S
C1291 C1292 1.366 . S
C1292 C1291 1.366 . S
C1292 C1293 1.414 . S
C1292 C1295 1.499 . S
C1293 H1267 0.950 . S
C1293 C1292 1.414 . S
C1293 C1294 1.374 . S
C1294 H1268 0.950 . S
C1294 C1290 1.385 . S
C1294 C1293 1.374 . S
C1295 C1292 1.499 . S
C1295 C1296 1.373 . S
C1295 C1297 1.389 . S
C1296 H1269 0.950 . S
C1296 C1282 1.377 1_565 S
C1296 C1295 1.373 . S
C1297 C1281 1.377 1_565 S
C1297 C1295 1.389 . S
C1297 C1298 1.524 . S
C1298 C1297 1.524 . S
C1298 C1299 1.397 . S
C1298 C1303 1.363 . S
C1299 H1270 0.950 . S
C1299 C1298 1.397 . S
C1299 C1300 1.334 . S
C1300 H1271 0.950 . S
C1300 C1299 1.334 . S
C1300 C1301 1.287 . S
C1301 C1300 1.287 . S
C1301 C1302 1.524 . S
C1301 H1304 0.999 . S
C1302 H1272 0.950 . S
C1302 C1301 1.524 . S
C1302 C1303 1.415 . S
C1303 H1273 0.950 . S
C1303 C1298 1.363 . S
C1303 C1302 1.415 . S
H1304 C1301 0.999 . S
H1305 C1286 0.913 . S
H1306 C1324 0.951 . S
H1307 C1326 0.951 . S
H1308 C1328 0.950 . S
H1309 C1329 0.950 . S
H1310 C1331 0.950 . S
H1311 C1334 0.950 . S
H1312 C1335 0.950 . S
H1313 C1337 0.950 . S
H1314 C1338 0.950 . S
H1315 C1339 0.951 . S
H1316 C1341 0.951 . S
H1317 C1343 0.950 . S
H1318 C1344 0.950 . S
H1319 C1346 0.950 . S
H1320 C1349 0.950 . S
H1321 C1350 0.950 . S
H1322 C1352 0.950 . S
H1323 C1353 0.950 . S
C1324 H1306 0.951 . S
C1324 C1325 1.366 . S
C1324 C1326 1.388 . S
C1325 C1324 1.366 . S
C1325 C1329 1.385 . S
C1326 H1307 0.951 . S
C1326 C1324 1.388 . S
C1326 C1327 1.366 . S
C1327 C1326 1.366 . S
C1327 C1328 1.414 . S
C1327 C1330 1.499 . S
C1328 H1308 0.950 . S
C1328 C1327 1.414 . S
C1328 C1329 1.374 . S
C1329 H1309 0.950 . S
C1329 C1325 1.385 . S
C1329 C1328 1.374 . S
C1330 C1327 1.499 . S
C1330 C1331 1.373 . S
C1330 C1332 1.389 . S
C1331 H1310 0.950 . S
C1331 C1330 1.373 . S
C1331 C1347 1.377 . S
C1332 C1330 1.389 . S
C1332 C1333 1.524 . S
C1332 C1346 1.377 . S
C1333 C1332 1.524 . S
C1333 C1334 1.397 . S
C1333 C1338 1.363 . S
C1334 H1311 0.950 . S
C1334 C1333 1.397 . S
C1334 C1335 1.334 . S
C1335 H1312 0.950 . S
C1335 C1334 1.334 . S
C1335 C1336 1.287 . S
C1336 C1335 1.287 . S
C1336 C1337 1.524 . S
C1336 H1355 0.913 . S
C1337 H1313 0.950 . S
C1337 C1336 1.524 . S
C1337 C1338 1.415 . S
C1338 H1314 0.950 . S
C1338 C1333 1.363 . S
C1338 C1337 1.415 . S
C1339 H1315 0.951 . S
C1339 C1340 1.366 . S
C1339 C1341 1.388 . S
C1340 C1339 1.366 . S
C1340 C1344 1.385 . S
C1341 H1316 0.951 . S
C1341 C1339 1.388 . S
C1341 C1342 1.366 . S
C1342 C1341 1.366 . S
C1342 C1343 1.414 . S
C1342 C1345 1.499 . S
C1343 H1317 0.950 . S
C1343 C1342 1.414 . S
C1343 C1344 1.374 . S
C1344 H1318 0.950 . S
C1344 C1340 1.385 . S
C1344 C1343 1.374 . S
C1345 C1342 1.499 . S
C1345 C1346 1.373 . S
C1345 C1347 1.389 . S
C1346 H1319 0.950 . S
C1346 C1332 1.377 . S
C1346 C1345 1.373 . S
C1347 C1331 1.377 . S
C1347 C1345 1.389 . S
C1347 C1348 1.524 . S
C1348 C1347 1.524 . S
C1348 C1349 1.397 . S
C1348 C1353 1.363 . S
C1349 H1320 0.950 . S
C1349 C1348 1.397 . S
C1349 C1350 1.334 . S
C1350 H1321 0.950 . S
C1350 C1349 1.334 . S
C1350 C1351 1.287 . S
C1351 C1350 1.287 . S
C1351 C1352 1.524 . S
C1351 H1354 0.999 . S
C1352 H1322 0.950 . S
C1352 C1351 1.524 . S
C1352 C1353 1.415 . S
C1353 H1323 0.950 . S
C1353 C1348 1.363 . S
C1353 C1352 1.415 . S
H1354 C1351 0.999 . S
H1355 C1336 0.913 . S
C175 C3 1.485 . S
C190 C135 1.485 . S
C225 C148 1.485 . S
C240 C16 1.485 . S
C275 C29 1.485 . S
C290 C83 1.485 . S
C325 C44 1.485 . S
C340 C96 1.485 . S
C375 C57 1.485 . S
C390 C107 1.485 . S
C425 C122 1.485 . S
C440 C68 1.485 1_554 S
C475 C4 1.806 . S
C490 C108 1.807 . S
C525 C17 1.807 . S
C540 C127 1.806 . S
C575 C140 1.807 . S
C590 C30 1.807 . S
C625 C49 1.807 . S
C640 C153 1.807 . S
C675 C62 1.806 . S
C690 C88 1.807 . S
C725 C69 1.807 . S
C740 C101 1.807 . S
C775 C133 1.461 . S
C790 C5 1.461 . S
C825 C18 1.462 . S
C840 C146 1.462 . S
C875 C31 1.462 . S
C890 C81 1.462 . S
C925 C42 1.462 . S
C940 C94 1.461 . S
C975 C109 1.462 . S
C990 C55 1.462 . S
C1025 C70 1.462 . S
C1040 C120 1.462 . S
C1075 C10 1.362 . S
C1090 C147 1.362 . S
C1125 C82 1.362 . S
C1140 C23 1.362 . S
C1175 C95 1.361 . S
C1190 C36 1.361 . S
C1225 C114 1.362 . S
C1240 C43 1.362 . S
C1275 C121 1.362 . S
C1290 C56 1.362 . S
C1325 C134 1.362 . S
C1340 C75 1.362 . S
