# Generated by pormake.
# Topology fcs, (5)-cn, num edge types: 1
# Building blocks:
#     Node 0, Type 0, BuildingBlock: BEQFEK_clean_sbu_0, # of connection points: 5
#     Node 1, Type 0, BuildingBlock: BEQFEK_clean_sbu_0, # of connection points: 5
#     Node 2, Type 0, BuildingBlock: BEQFEK_clean_sbu_0, # of connection points: 5
#     Node 3, Type 0, BuildingBlock: BEQFEK_clean_sbu_0, # of connection points: 5
#     Node 4, Type 0, BuildingBlock: BEQFEK_clean_sbu_0, # of connection points: 5
#     Node 5, Type 0, BuildingBlock: BEQFEK_clean_sbu_0, # of connection points: 5
#     Node 6, Type 0, BuildingBlock: BEQFEK_clean_sbu_0, # of connection points: 5
#     Node 7, Type 0, BuildingBlock: BEQFEK_clean_sbu_0, # of connection points: 5
#     Node 8, Type 0, BuildingBlock: BEQFEK_clean_sbu_0, # of connection points: 5
#     Node 9, Type 0, BuildingBlock: BEQFEK_clean_sbu_0, # of connection points: 5
#     Node 10, Type 0, BuildingBlock: BEQFEK_clean_sbu_0, # of connection points: 5
#     Node 11, Type 0, BuildingBlock: BEQFEK_clean_sbu_0, # of connection points: 5
#     Node 12, Type 0, BuildingBlock: BEQFEK_clean_sbu_0, # of connection points: 5
#     Node 13, Type 0, BuildingBlock: BEQFEK_clean_sbu_0, # of connection points: 5
#     Node 14, Type 0, BuildingBlock: BEQFEK_clean_sbu_0, # of connection points: 5
#     Node 15, Type 0, BuildingBlock: BEQFEK_clean_sbu_0, # of connection points: 5
#     Node 16, Type 0, BuildingBlock: BEQFEK_clean_sbu_0, # of connection points: 5
#     Node 17, Type 0, BuildingBlock: BEQFEK_clean_sbu_0, # of connection points: 5
#     Node 18, Type 0, BuildingBlock: BEQFEK_clean_sbu_0, # of connection points: 5
#     Node 19, Type 0, BuildingBlock: BEQFEK_clean_sbu_0, # of connection points: 5
#     Node 20, Type 0, BuildingBlock: BEQFEK_clean_sbu_0, # of connection points: 5
#     Node 21, Type 0, BuildingBlock: BEQFEK_clean_sbu_0, # of connection points: 5
#     Node 22, Type 0, BuildingBlock: BEQFEK_clean_sbu_0, # of connection points: 5
#     Node 23, Type 0, BuildingBlock: BEQFEK_clean_sbu_0, # of connection points: 5
#     Node 24, Type 0, BuildingBlock: BEQFEK_clean_sbu_0, # of connection points: 5
#     Node 25, Type 0, BuildingBlock: BEQFEK_clean_sbu_0, # of connection points: 5
#     Node 26, Type 0, BuildingBlock: BEQFEK_clean_sbu_0, # of connection points: 5
#     Node 27, Type 0, BuildingBlock: BEQFEK_clean_sbu_0, # of connection points: 5
#     Node 28, Type 0, BuildingBlock: BEQFEK_clean_sbu_0, # of connection points: 5
#     Node 29, Type 0, BuildingBlock: BEQFEK_clean_sbu_0, # of connection points: 5
#     Node 30, Type 0, BuildingBlock: BEQFEK_clean_sbu_0, # of connection points: 5
#     Node 31, Type 0, BuildingBlock: BEQFEK_clean_sbu_0, # of connection points: 5
#     Node 32, Type 0, BuildingBlock: BEQFEK_clean_sbu_0, # of connection points: 5
#     Node 33, Type 0, BuildingBlock: BEQFEK_clean_sbu_0, # of connection points: 5
#     Node 34, Type 0, BuildingBlock: BEQFEK_clean_sbu_0, # of connection points: 5
#     Node 35, Type 0, BuildingBlock: BEQFEK_clean_sbu_0, # of connection points: 5
#     Node 36, Type 0, BuildingBlock: BEQFEK_clean_sbu_0, # of connection points: 5
#     Node 37, Type 0, BuildingBlock: BEQFEK_clean_sbu_0, # of connection points: 5
#     Node 38, Type 0, BuildingBlock: BEQFEK_clean_sbu_0, # of connection points: 5
#     Node 39, Type 0, BuildingBlock: BEQFEK_clean_sbu_0, # of connection points: 5
#     Node 40, Type 0, BuildingBlock: BEQFEK_clean_sbu_0, # of connection points: 5
#     Node 41, Type 0, BuildingBlock: BEQFEK_clean_sbu_0, # of connection points: 5
#     Node 42, Type 0, BuildingBlock: BEQFEK_clean_sbu_0, # of connection points: 5
#     Node 43, Type 0, BuildingBlock: BEQFEK_clean_sbu_0, # of connection points: 5
#     Node 44, Type 0, BuildingBlock: BEQFEK_clean_sbu_0, # of connection points: 5
#     Node 45, Type 0, BuildingBlock: BEQFEK_clean_sbu_0, # of connection points: 5
#     Node 46, Type 0, BuildingBlock: BEQFEK_clean_sbu_0, # of connection points: 5
#     Node 47, Type 0, BuildingBlock: BEQFEK_clean_sbu_0, # of connection points: 5
#     Edge 48, Type (0, 0), BuildingBlock: AJUNOK_clean_linker_0, # of connection points: 2
#     Edge 49, Type (0, 0), BuildingBlock: AJUNOK_clean_linker_0, # of connection points: 2
#     Edge 50, Type (0, 0), BuildingBlock: AJUNOK_clean_linker_0, # of connection points: 2
#     Edge 51, Type (0, 0), BuildingBlock: AJUNOK_clean_linker_0, # of connection points: 2
#     Edge 52, Type (0, 0), BuildingBlock: AJUNOK_clean_linker_0, # of connection points: 2
#     Edge 53, Type (0, 0), BuildingBlock: AJUNOK_clean_linker_0, # of connection points: 2
#     Edge 54, Type (0, 0), BuildingBlock: AJUNOK_clean_linker_0, # of connection points: 2
#     Edge 55, Type (0, 0), BuildingBlock: AJUNOK_clean_linker_0, # of connection points: 2
#     Edge 56, Type (0, 0), BuildingBlock: AJUNOK_clean_linker_0, # of connection points: 2
#     Edge 57, Type (0, 0), BuildingBlock: AJUNOK_clean_linker_0, # of connection points: 2
#     Edge 58, Type (0, 0), BuildingBlock: AJUNOK_clean_linker_0, # of connection points: 2
#     Edge 59, Type (0, 0), BuildingBlock: AJUNOK_clean_linker_0, # of connection points: 2
#     Edge 60, Type (0, 0), BuildingBlock: AJUNOK_clean_linker_0, # of connection points: 2
#     Edge 61, Type (0, 0), BuildingBlock: AJUNOK_clean_linker_0, # of connection points: 2
#     Edge 62, Type (0, 0), BuildingBlock: AJUNOK_clean_linker_0, # of connection points: 2
#     Edge 63, Type (0, 0), BuildingBlock: AJUNOK_clean_linker_0, # of connection points: 2
#     Edge 64, Type (0, 0), BuildingBlock: AJUNOK_clean_linker_0, # of connection points: 2
#     Edge 65, Type (0, 0), BuildingBlock: AJUNOK_clean_linker_0, # of connection points: 2
#     Edge 66, Type (0, 0), BuildingBlock: AJUNOK_clean_linker_0, # of connection points: 2
#     Edge 67, Type (0, 0), BuildingBlock: AJUNOK_clean_linker_0, # of connection points: 2
#     Edge 68, Type (0, 0), BuildingBlock: AJUNOK_clean_linker_0, # of connection points: 2
#     Edge 69, Type (0, 0), BuildingBlock: AJUNOK_clean_linker_0, # of connection points: 2
#     Edge 70, Type (0, 0), BuildingBlock: AJUNOK_clean_linker_0, # of connection points: 2
#     Edge 71, Type (0, 0), BuildingBlock: AJUNOK_clean_linker_0, # of connection points: 2
#     Edge 72, Type (0, 0), BuildingBlock: AJUNOK_clean_linker_0, # of connection points: 2
#     Edge 73, Type (0, 0), BuildingBlock: AJUNOK_clean_linker_0, # of connection points: 2
#     Edge 74, Type (0, 0), BuildingBlock: AJUNOK_clean_linker_0, # of connection points: 2
#     Edge 75, Type (0, 0), BuildingBlock: AJUNOK_clean_linker_0, # of connection points: 2
#     Edge 76, Type (0, 0), BuildingBlock: AJUNOK_clean_linker_0, # of connection points: 2
#     Edge 77, Type (0, 0), BuildingBlock: AJUNOK_clean_linker_0, # of connection points: 2
#     Edge 78, Type (0, 0), BuildingBlock: AJUNOK_clean_linker_0, # of connection points: 2
#     Edge 79, Type (0, 0), BuildingBlock: AJUNOK_clean_linker_0, # of connection points: 2
#     Edge 80, Type (0, 0), BuildingBlock: AJUNOK_clean_linker_0, # of connection points: 2
#     Edge 81, Type (0, 0), BuildingBlock: AJUNOK_clean_linker_0, # of connection points: 2
#     Edge 82, Type (0, 0), BuildingBlock: AJUNOK_clean_linker_0, # of connection points: 2
#     Edge 83, Type (0, 0), BuildingBlock: AJUNOK_clean_linker_0, # of connection points: 2
#     Edge 84, Type (0, 0), BuildingBlock: AJUNOK_clean_linker_0, # of connection points: 2
#     Edge 85, Type (0, 0), BuildingBlock: AJUNOK_clean_linker_0, # of connection points: 2
#     Edge 86, Type (0, 0), BuildingBlock: AJUNOK_clean_linker_0, # of connection points: 2
#     Edge 87, Type (0, 0), BuildingBlock: AJUNOK_clean_linker_0, # of connection points: 2
#     Edge 88, Type (0, 0), BuildingBlock: AJUNOK_clean_linker_0, # of connection points: 2
#     Edge 89, Type (0, 0), BuildingBlock: AJUNOK_clean_linker_0, # of connection points: 2
#     Edge 90, Type (0, 0), BuildingBlock: AJUNOK_clean_linker_0, # of connection points: 2
#     Edge 91, Type (0, 0), BuildingBlock: AJUNOK_clean_linker_0, # of connection points: 2
#     Edge 92, Type (0, 0), BuildingBlock: AJUNOK_clean_linker_0, # of connection points: 2
#     Edge 93, Type (0, 0), BuildingBlock: AJUNOK_clean_linker_0, # of connection points: 2
#     Edge 94, Type (0, 0), BuildingBlock: AJUNOK_clean_linker_0, # of connection points: 2
#     Edge 95, Type (0, 0), BuildingBlock: AJUNOK_clean_linker_0, # of connection points: 2
#     Edge 96, Type (0, 0), BuildingBlock: AJUNOK_clean_linker_0, # of connection points: 2
#     Edge 97, Type (0, 0), BuildingBlock: AJUNOK_clean_linker_0, # of connection points: 2
#     Edge 98, Type (0, 0), BuildingBlock: AJUNOK_clean_linker_0, # of connection points: 2
#     Edge 99, Type (0, 0), BuildingBlock: AJUNOK_clean_linker_0, # of connection points: 2
#     Edge 100, Type (0, 0), BuildingBlock: AJUNOK_clean_linker_0, # of connection points: 2
#     Edge 101, Type (0, 0), BuildingBlock: AJUNOK_clean_linker_0, # of connection points: 2
#     Edge 102, Type (0, 0), BuildingBlock: AJUNOK_clean_linker_0, # of connection points: 2
#     Edge 103, Type (0, 0), BuildingBlock: AJUNOK_clean_linker_0, # of connection points: 2
#     Edge 104, Type (0, 0), BuildingBlock: AJUNOK_clean_linker_0, # of connection points: 2
#     Edge 105, Type (0, 0), BuildingBlock: AJUNOK_clean_linker_0, # of connection points: 2
#     Edge 106, Type (0, 0), BuildingBlock: AJUNOK_clean_linker_0, # of connection points: 2
#     Edge 107, Type (0, 0), BuildingBlock: AJUNOK_clean_linker_0, # of connection points: 2
#     Edge 108, Type (0, 0), BuildingBlock: AJUNOK_clean_linker_0, # of connection points: 2
#     Edge 109, Type (0, 0), BuildingBlock: AJUNOK_clean_linker_0, # of connection points: 2
#     Edge 110, Type (0, 0), BuildingBlock: AJUNOK_clean_linker_0, # of connection points: 2
#     Edge 111, Type (0, 0), BuildingBlock: AJUNOK_clean_linker_0, # of connection points: 2
#     Edge 112, Type (0, 0), BuildingBlock: AJUNOK_clean_linker_0, # of connection points: 2
#     Edge 113, Type (0, 0), BuildingBlock: AJUNOK_clean_linker_0, # of connection points: 2
#     Edge 114, Type (0, 0), BuildingBlock: AJUNOK_clean_linker_0, # of connection points: 2
#     Edge 115, Type (0, 0), BuildingBlock: AJUNOK_clean_linker_0, # of connection points: 2
#     Edge 116, Type (0, 0), BuildingBlock: AJUNOK_clean_linker_0, # of connection points: 2
#     Edge 117, Type (0, 0), BuildingBlock: AJUNOK_clean_linker_0, # of connection points: 2
#     Edge 118, Type (0, 0), BuildingBlock: AJUNOK_clean_linker_0, # of connection points: 2
#     Edge 119, Type (0, 0), BuildingBlock: AJUNOK_clean_linker_0, # of connection points: 2
#     Edge 120, Type (0, 0), BuildingBlock: AJUNOK_clean_linker_0, # of connection points: 2
#     Edge 121, Type (0, 0), BuildingBlock: AJUNOK_clean_linker_0, # of connection points: 2
#     Edge 122, Type (0, 0), BuildingBlock: AJUNOK_clean_linker_0, # of connection points: 2
#     Edge 123, Type (0, 0), BuildingBlock: AJUNOK_clean_linker_0, # of connection points: 2
#     Edge 124, Type (0, 0), BuildingBlock: AJUNOK_clean_linker_0, # of connection points: 2
#     Edge 125, Type (0, 0), BuildingBlock: AJUNOK_clean_linker_0, # of connection points: 2
#     Edge 126, Type (0, 0), BuildingBlock: AJUNOK_clean_linker_0, # of connection points: 2
#     Edge 127, Type (0, 0), BuildingBlock: AJUNOK_clean_linker_0, # of connection points: 2
#     Edge 128, Type (0, 0), BuildingBlock: AJUNOK_clean_linker_0, # of connection points: 2
#     Edge 129, Type (0, 0), BuildingBlock: AJUNOK_clean_linker_0, # of connection points: 2
#     Edge 130, Type (0, 0), BuildingBlock: AJUNOK_clean_linker_0, # of connection points: 2
#     Edge 131, Type (0, 0), BuildingBlock: AJUNOK_clean_linker_0, # of connection points: 2
#     Edge 132, Type (0, 0), BuildingBlock: AJUNOK_clean_linker_0, # of connection points: 2
#     Edge 133, Type (0, 0), BuildingBlock: AJUNOK_clean_linker_0, # of connection points: 2
#     Edge 134, Type (0, 0), BuildingBlock: AJUNOK_clean_linker_0, # of connection points: 2
#     Edge 135, Type (0, 0), BuildingBlock: AJUNOK_clean_linker_0, # of connection points: 2
#     Edge 136, Type (0, 0), BuildingBlock: AJUNOK_clean_linker_0, # of connection points: 2
#     Edge 137, Type (0, 0), BuildingBlock: AJUNOK_clean_linker_0, # of connection points: 2
#     Edge 138, Type (0, 0), BuildingBlock: AJUNOK_clean_linker_0, # of connection points: 2
#     Edge 139, Type (0, 0), BuildingBlock: AJUNOK_clean_linker_0, # of connection points: 2
#     Edge 140, Type (0, 0), BuildingBlock: AJUNOK_clean_linker_0, # of connection points: 2
#     Edge 141, Type (0, 0), BuildingBlock: AJUNOK_clean_linker_0, # of connection points: 2
#     Edge 142, Type (0, 0), BuildingBlock: AJUNOK_clean_linker_0, # of connection points: 2
#     Edge 143, Type (0, 0), BuildingBlock: AJUNOK_clean_linker_0, # of connection points: 2
#     Edge 144, Type (0, 0), BuildingBlock: AJUNOK_clean_linker_0, # of connection points: 2
#     Edge 145, Type (0, 0), BuildingBlock: AJUNOK_clean_linker_0, # of connection points: 2
#     Edge 146, Type (0, 0), BuildingBlock: AJUNOK_clean_linker_0, # of connection points: 2
#     Edge 147, Type (0, 0), BuildingBlock: AJUNOK_clean_linker_0, # of connection points: 2
#     Edge 148, Type (0, 0), BuildingBlock: AJUNOK_clean_linker_0, # of connection points: 2
#     Edge 149, Type (0, 0), BuildingBlock: AJUNOK_clean_linker_0, # of connection points: 2
#     Edge 150, Type (0, 0), BuildingBlock: AJUNOK_clean_linker_0, # of connection points: 2
#     Edge 151, Type (0, 0), BuildingBlock: AJUNOK_clean_linker_0, # of connection points: 2
#     Edge 152, Type (0, 0), BuildingBlock: AJUNOK_clean_linker_0, # of connection points: 2
#     Edge 153, Type (0, 0), BuildingBlock: AJUNOK_clean_linker_0, # of connection points: 2
#     Edge 154, Type (0, 0), BuildingBlock: AJUNOK_clean_linker_0, # of connection points: 2
#     Edge 155, Type (0, 0), BuildingBlock: AJUNOK_clean_linker_0, # of connection points: 2
#     Edge 156, Type (0, 0), BuildingBlock: AJUNOK_clean_linker_0, # of connection points: 2
#     Edge 157, Type (0, 0), BuildingBlock: AJUNOK_clean_linker_0, # of connection points: 2
#     Edge 158, Type (0, 0), BuildingBlock: AJUNOK_clean_linker_0, # of connection points: 2
#     Edge 159, Type (0, 0), BuildingBlock: AJUNOK_clean_linker_0, # of connection points: 2
#     Edge 160, Type (0, 0), BuildingBlock: AJUNOK_clean_linker_0, # of connection points: 2
#     Edge 161, Type (0, 0), BuildingBlock: AJUNOK_clean_linker_0, # of connection points: 2
#     Edge 162, Type (0, 0), BuildingBlock: AJUNOK_clean_linker_0, # of connection points: 2
#     Edge 163, Type (0, 0), BuildingBlock: AJUNOK_clean_linker_0, # of connection points: 2
#     Edge 164, Type (0, 0), BuildingBlock: AJUNOK_clean_linker_0, # of connection points: 2
#     Edge 165, Type (0, 0), BuildingBlock: AJUNOK_clean_linker_0, # of connection points: 2
#     Edge 166, Type (0, 0), BuildingBlock: AJUNOK_clean_linker_0, # of connection points: 2
#     Edge 167, Type (0, 0), BuildingBlock: AJUNOK_clean_linker_0, # of connection points: 2
# Relax obj value: 0.297
# Max RMSD: 0.230
# Mean RMSD: 0.230
data_MOF--net-fcs--node1-BEQFEK_clean_sbu_0--edge1-AJUNOK_clean_linker_0
_symmetry_space_group_name_H-M    P1
_symmetry_Int_Tables_number       1
_symmetry_cell_setting            triclinic
loop_
_symmetry_equiv_pos_as_xyz
'x, y, z'
_cell_length_a     46.899013
_cell_length_b     46.907792
_cell_length_c     46.899251
_cell_angle_alpha  90.118221
_cell_angle_beta   89.974795
_cell_angle_gamma 89.982151
loop_
_atom_site_label
_atom_site_type_symbol
_atom_site_fract_x
_atom_site_fract_y
_atom_site_fract_z
_atom_type_partial_charge
Co0 Co 0.14948 0.11829 0.30043 0.0
Co1 Co 0.08208 0.12086 0.30233 0.0
C2 C 0.12292 0.1449 0.34876 0.0
O3 O 0.14623 0.13452 0.33908 0.0
O4 O 0.0991 0.14021 0.33632 0.0
C5 C 0.20396 0.12896 0.27425 0.0
O6 O 0.19847 0.15591 0.27956 0.0
C7 C 0.02381 0.11203 0.32693 0.0
C8 C -0.00218 0.11555 0.28781 0.0
C9 C -0.0042 0.11132 0.31693 0.0
N10 N 0.04139 0.11642 0.30464 0.0
N11 N 0.02562 0.11837 0.28137 0.0
C12 C 0.03358 0.11022 0.35724 0.0
H13 H 0.0552 0.11933 0.3597 0.0
H14 H 0.03439 0.0875 0.36372 0.0
H15 H 0.01845 0.12153 0.37154 0.0
C16 C 0.1365 0.05851 0.28764 0.0
N17 N 0.12785 0.08468 0.29563 0.0
N18 N 0.09988 0.08576 0.2946 0.0
C19 C 0.08988 0.06048 0.28525 0.0
C20 C 0.11285 0.04256 0.28013 0.0
C21 C 0.16698 0.04911 0.28618 0.0
H22 H 0.17917 0.05841 0.3042 0.0
H23 H 0.16855 0.0255 0.28683 0.0
H24 H 0.17659 0.05657 0.26598 0.0
O25 O 0.13588 0.15025 0.2767 0.0
O26 O 0.08887 0.14841 0.2717 0.0
H27 H 0.05252 0.06976 0.261 0.0
H28 H 0.05591 0.03268 0.27067 0.0
C29 C 0.05933 0.05489 0.27804 0.0
H30 H 0.04591 0.0589 0.29711 0.0
H31 H 0.03386 0.12196 0.26103 0.0
O32 O 0.18799 0.10991 0.28491 0.0
C33 C 0.11277 0.15998 0.26652 0.0
Co34 Co 0.38348 0.5929 0.9513 0.0
Co35 Co 0.37626 0.65388 0.92758 0.0
C36 C 0.40111 0.61096 0.89086 0.0
O37 O 0.39886 0.59328 0.91144 0.0
O38 O 0.39069 0.63604 0.89258 0.0
C39 C 0.36319 0.53759 0.97098 0.0
O40 O 0.34031 0.54006 0.95501 0.0
C41 C 0.36689 0.71124 0.90269 0.0
C42 C 0.35308 0.73447 0.9415 0.0
C43 C 0.35841 0.73785 0.91274 0.0
N44 N 0.36612 0.6929 0.9246 0.0
N45 N 0.35793 0.70693 0.94767 0.0
C46 C 0.3781 0.70379 0.87372 0.0
H47 H 0.39718 0.68998 0.87582 0.0
H48 H 0.36164 0.69155 0.86193 0.0
H49 H 0.38378 0.72314 0.86141 0.0
C50 C 0.32576 0.6068 0.97437 0.0
N51 N 0.34834 0.61137 0.9572 0.0
N52 N 0.34381 0.63443 0.94225 0.0
C53 C 0.31686 0.64339 0.94662 0.0
C54 C 0.30451 0.62651 0.96782 0.0
C55 C 0.32696 0.5885 0.00051 0.0
H56 H 0.34941 0.58468 0.00681 0.0
H57 H 0.31636 0.5678 -0.0036 0.0
H58 H 0.31562 0.59898 0.01848 0.0
O59 O 0.41166 0.61181 0.97374 0.0
O60 O 0.41032 0.65463 0.95399 0.0
H61 H 0.30557 0.68674 0.93738 0.0
H62 H 0.27944 0.66078 0.92629 0.0
C63 C 0.30262 0.6652 0.92817 0.0
H64 H 0.31247 0.66519 0.90664 0.0
H65 H 0.35591 0.69767 0.96779 0.0
O66 O 0.38363 0.55485 0.96769 0.0
C67 C 0.42139 0.63677 0.97114 0.0
Co68 Co 0.84298 0.35867 0.28981 0.0
Co69 Co 0.90647 0.36374 0.30848 0.0
C70 C 0.86241 0.34407 0.34935 0.0
O71 O 0.84263 0.34793 0.33098 0.0
O72 O 0.88824 0.35106 0.34423 0.0
C73 C 0.78535 0.3762 0.27038 0.0
O74 O 0.78519 0.39842 0.2875 0.0
C75 C 0.96337 0.37223 0.33465 0.0
C76 C 0.98808 0.38686 0.29726 0.0
C77 C 0.99041 0.38061 0.32593 0.0
N78 N 0.94579 0.3736 0.31212 0.0
N79 N 0.9607 0.38243 0.28989 0.0
C80 C 0.95428 0.36298 0.36377 0.0
H81 H 0.93525 0.37541 0.37035 0.0
H82 H 0.97155 0.36601 0.37967 0.0
H83 H 0.94803 0.34017 0.36306 0.0
C84 C 0.85707 0.41459 0.2635 0.0
N85 N 0.86307 0.39194 0.28006 0.0
N86 N 0.88756 0.39609 0.29271 0.0
C87 C 0.89634 0.42297 0.28757 0.0
C88 C 0.87764 0.4356 0.26805 0.0
C89 C 0.83513 0.41409 0.24029 0.0
H90 H 0.83073 0.39185 0.23357 0.0
H91 H 0.81512 0.424 0.24799 0.0
H92 H 0.84262 0.42631 0.22148 0.0
O93 O 0.8601 0.32634 0.27233 0.0
O94 O 0.9057 0.32781 0.28393 0.0
H95 H 0.94007 0.43473 0.29428 0.0
H96 H 0.91453 0.46041 0.30728 0.0
C97 C 0.91911 0.43731 0.30483 0.0
H98 H 0.92055 0.42732 0.32622 0.0
H99 H 0.95221 0.38507 0.26949 0.0
O100 O 0.80568 0.35852 0.27175 0.0
C101 C 0.88459 0.31517 0.2723 0.0
Co102 Co 0.61579 0.90519 0.94826 0.0
Co103 Co 0.61623 0.83845 0.93559 0.0
C104 C 0.59265 0.87723 0.89375 0.0
O105 O 0.59717 0.89753 0.9112 0.0
O106 O 0.60164 0.85209 0.89863 0.0
C107 C 0.62903 0.97034 0.96028 0.0
O108 O 0.63236 0.99366 0.94518 0.0
C109 C 0.62394 0.77985 0.91294 0.0
C110 C 0.62995 0.75509 0.95251 0.0
C111 C 0.62938 0.75259 0.92313 0.0
N112 N 0.62187 0.79779 0.93527 0.0
N113 N 0.62539 0.78277 0.95886 0.0
C114 C 0.62154 0.78887 0.88246 0.0
H115 H 0.634 0.80869 0.87906 0.0
H116 H 0.62928 0.77198 0.86776 0.0
H117 H 0.59888 0.79363 0.87757 0.0
C118 C 0.6756 0.89174 0.96368 0.0
N119 N 0.65009 0.88428 0.95277 0.0
N120 N 0.65061 0.85694 0.9463 0.0
C121 C 0.67674 0.8465 0.9523 0.0
C122 C 0.69317 0.86809 0.96371 0.0
C123 C 0.68204 0.92004 0.97678 0.0
H124 H 0.66721 0.92363 0.99484 0.0
H125 H 0.67873 0.93699 0.9607 0.0
H126 H 0.7043 0.9212 0.98472 0.0
O127 O 0.586 0.89287 0.97514 0.0
O128 O 0.58425 0.8471 0.96254 0.0
H129 H 0.67794 0.80346 0.96688 0.0
H130 H 0.70937 0.8144 0.94797 0.0
C131 C 0.68577 0.81615 0.94859 0.0
H132 H 0.67685 0.80736 0.92854 0.0
H133 H 0.62481 0.79147 0.97934 0.0
O134 O 0.62278 0.94738 0.94713 0.0
C135 C 0.57416 0.86838 0.97627 0.0
Co136 Co 0.15073 0.86194 0.19623 0.0
Co137 Co 0.08535 0.86354 0.18183 0.0
C138 C 0.13045 0.84076 0.14091 0.0
O139 O 0.15138 0.84799 0.15677 0.0
O140 O 0.10457 0.84651 0.14759 0.0
C141 C 0.21284 0.87265 0.21534 0.0
O142 O 0.22215 0.88692 0.19314 0.0
C143 C 0.02806 0.87203 0.15553 0.0
C144 C 0.0024 0.87734 0.19484 0.0
C145 C 0.00049 0.87696 0.16545 0.0
N146 N 0.04548 0.87025 0.1782 0.0
N147 N 0.02994 0.87327 0.20154 0.0
C148 C 0.03744 0.86647 0.12552 0.0
H149 H 0.05304 0.84871 0.12512 0.0
H150 H 0.04827 0.88574 0.11713 0.0
H151 H 0.0191 0.86106 0.11158 0.0
C152 C 0.13907 0.9217 0.21196 0.0
N153 N 0.1309 0.89648 0.20085 0.0
N154 N 0.10358 0.89753 0.19462 0.0
C155 C 0.09368 0.92377 0.20123 0.0
C156 C 0.11578 0.9397 0.21254 0.0
C157 C 0.16785 0.92759 0.22438 0.0
H158 H 0.17255 0.91171 0.24122 0.0
H159 H 0.18412 0.92566 0.20737 0.0
H160 H 0.16919 0.94927 0.23378 0.0
O161 O 0.13305 0.83074 0.21692 0.0
O162 O 0.08663 0.83253 0.21008 0.0
H163 H 0.05043 0.9254 0.21528 0.0
H164 H 0.06236 0.95725 0.19769 0.0
C165 C 0.06359 0.93361 0.19748 0.0
H166 H 0.05491 0.92555 0.17702 0.0
H167 H 0.03821 0.87241 0.22217 0.0
O168 O 0.18734 0.8638 0.21617 0.0
C169 C 0.10833 0.82068 0.22094 0.0
Co170 Co 0.10992 0.59701 0.02679 0.0
Co171 Co 0.11484 0.658 0.05109 0.0
C172 C 0.08708 0.61518 0.08545 0.0
O173 O 0.09112 0.59788 0.06482 0.0
O174 O 0.09783 0.64017 0.08524 0.0
C175 C 0.13038 0.53844 0.0162 0.0
O176 O 0.15201 0.54199 0.03363 0.0
C177 C 0.1269 0.71466 0.07757 0.0
C178 C 0.13157 0.74044 0.03835 0.0
C179 C 0.13214 0.74212 0.06774 0.0
N180 N 0.12363 0.69748 0.05482 0.0
N181 N 0.12669 0.71303 0.03153 0.0
C182 C 0.1233 0.70517 0.1078 0.0
H183 H 0.10494 0.69037 0.10945 0.0
H184 H 0.14269 0.6934 0.11452 0.0
H185 H 0.11998 0.72355 0.12236 0.0
C186 C 0.1693 0.60894 0.01019 0.0
N187 N 0.14524 0.61503 0.02454 0.0
N188 N 0.14855 0.6389 0.03861 0.0
C189 C 0.1759 0.64744 0.03612 0.0
C190 C 0.19006 0.62889 0.01744 0.0
C191 C 0.17052 0.58803 0.98599 0.0
H192 H 0.14878 0.58332 0.97797 0.0
H193 H 0.18055 0.56796 0.99326 0.0
H194 H 0.18358 0.59663 0.96824 0.0
O195 O 0.08379 0.61506 0.00107 0.0
O196 O 0.0825 0.65714 0.02234 0.0
H197 H 0.18422 0.69188 0.04228 0.0
H198 H 0.21153 0.66848 0.05635 0.0
C199 C 0.18824 0.67137 0.05328 0.0
H200 H 0.17761 0.67242 0.0744 0.0
H201 H 0.125 0.70491 0.01087 0.0
O202 O 0.11227 0.5582 0.01289 0.0
C203 C 0.07302 0.63964 0.00375 0.0
Co204 Co 0.84267 0.6289 0.20238 0.0
Co205 Co 0.90562 0.62304 0.18052 0.0
C206 C 0.86113 0.64985 0.14431 0.0
O207 O 0.84181 0.64506 0.16295 0.0
O208 O 0.88667 0.64096 0.14754 0.0
C209 C 0.78447 0.61231 0.22269 0.0
O210 O 0.78262 0.5916 0.20389 0.0
C211 C 0.96124 0.61391 0.15132 0.0
C212 C 0.98766 0.60099 0.18822 0.0
C213 C 0.98876 0.60615 0.15924 0.0
N214 N 0.94459 0.61296 0.17462 0.0
N215 N 0.96053 0.6052 0.19652 0.0
C216 C 0.95138 0.62466 0.12296 0.0
H217 H 0.93864 0.64436 0.12598 0.0
H218 H 0.93732 0.60846 0.11298 0.0
H219 H 0.96956 0.62926 0.10854 0.0
C220 C 0.85584 0.57041 0.22262 0.0
N221 N 0.86152 0.59375 0.20694 0.0
N222 N 0.88566 0.59 0.1934 0.0
C223 C 0.89443 0.5629 0.19713 0.0
C224 C 0.87618 0.54952 0.21658 0.0
C225 C 0.83496 0.57027 0.24683 0.0
H226 H 0.83156 0.59223 0.25492 0.0
H227 H 0.81432 0.56142 0.23949 0.0
H228 H 0.84285 0.5569 0.26467 0.0
O229 O 0.86277 0.65679 0.22376 0.0
O230 O 0.90779 0.65441 0.2099 0.0
H231 H 0.93838 0.55279 0.18948 0.0
H232 H 0.91349 0.52634 0.17655 0.0
C233 C 0.91734 0.54954 0.17929 0.0
H234 H 0.91805 0.55989 0.15803 0.0
H235 H 0.9529 0.60321 0.21734 0.0
O236 O 0.80578 0.62894 0.2222 0.0
C237 C 0.88822 0.66548 0.22511 0.0
Co238 Co 0.87394 0.90017 0.04473 0.0
Co239 Co 0.8764 0.83365 0.05422 0.0
C240 C 0.89853 0.87758 0.09707 0.0
O241 O 0.88972 0.89928 0.08326 0.0
O242 O 0.89367 0.85204 0.08873 0.0
C243 C 0.85992 0.96388 0.02785 0.0
O244 O 0.85112 0.9762 0.05144 0.0
C245 C 0.86664 0.77656 0.08055 0.0
C246 C 0.86673 0.74951 0.04187 0.0
C247 C 0.86315 0.74855 0.07112 0.0
N248 N 0.87131 0.79324 0.0577 0.0
N249 N 0.87147 0.77685 0.03474 0.0
C250 C 0.86781 0.78712 0.11067 0.0
H251 H 0.88481 0.80338 0.11288 0.0
H252 H 0.84721 0.79744 0.11609 0.0
H253 H 0.87197 0.76948 0.12583 0.0
C254 C 0.81456 0.8867 0.0315 0.0
N255 N 0.84048 0.87869 0.04075 0.0
N256 N 0.84115 0.85082 0.04347 0.0
C257 C 0.81546 0.84024 0.03575 0.0
C258 C 0.79799 0.8627 0.02767 0.0
C259 C 0.806 0.91676 0.02517 0.0
H260 H 0.81267 0.93078 0.04301 0.0
H261 H 0.78258 0.91869 0.02231 0.0
H262 H 0.81671 0.92387 0.00533 0.0
O263 O 0.90527 0.88568 0.02113 0.0
O264 O 0.90671 0.83872 0.02518 0.0
H265 H 0.8216 0.79954 0.01631 0.0
H266 H 0.78571 0.80567 0.02862 0.0
C267 C 0.80857 0.80919 0.03353 0.0
H268 H 0.81388 0.79846 0.05388 0.0
H269 H 0.87475 0.78441 0.01408 0.0
O270 O 0.86723 0.93785 0.02795 0.0
C271 C 0.91663 0.86185 0.01514 0.0
Co272 Co 0.29528 0.14932 0.12443 0.0
Co273 Co 0.29876 0.08218 0.12672 0.0
C274 C 0.34453 0.12427 0.14954 0.0
O275 O 0.33459 0.14747 0.13927 0.0
O276 O 0.33267 0.10019 0.14473 0.0
C277 C 0.2766 0.21204 0.11026 0.0
O278 O 0.29945 0.22273 0.0981 0.0
C279 C 0.32483 0.02464 0.11681 0.0
C280 C 0.28658 -0.00233 0.12217 0.0
C281 C 0.31553 -0.00357 0.11669 0.0
N282 N 0.30226 0.04165 0.12211 0.0
N283 N 0.27952 0.0253 0.12509 0.0
C284 C 0.35477 0.03508 0.11338 0.0
H285 H 0.35752 0.05611 0.12381 0.0
H286 H 0.35944 0.03752 0.09032 0.0
H287 H 0.37014 0.01955 0.12244 0.0
C288 C 0.28047 0.13587 0.06473 0.0
N289 N 0.2892 0.12768 0.09082 0.0
N290 N 0.28975 0.09968 0.09176 0.0
C291 C 0.28144 0.08922 0.06628 0.0
C292 C 0.27507 0.11186 0.04848 0.0
C293 C 0.27579 0.16609 0.05579 0.0
H294 H 0.25621 0.17437 0.06619 0.0
H295 H 0.29423 0.17921 0.06255 0.0
H296 H 0.27321 0.1678 0.03233 0.0
O297 O 0.27381 0.13498 0.15736 0.0
O298 O 0.26895 0.08808 0.15626 0.0
H299 H 0.26079 0.04949 0.07433 0.0
H300 H 0.27071 0.05474 0.03745 0.0
C301 C 0.27732 0.05826 0.0599 0.0
H302 H 0.29753 0.04667 0.06391 0.0
H303 H 0.25912 0.03304 0.12949 0.0
O304 O 0.27657 0.18652 0.11915 0.0
C305 C 0.2644 0.11206 0.16812 0.0
Co306 Co 0.39799 0.44771 0.11832 0.0
Co307 Co 0.33206 0.43554 0.11659 0.0
C308 C 0.3772 0.39404 0.09414 0.0
O309 O 0.39864 0.40924 0.10134 0.0
O310 O 0.35159 0.40161 0.09975 0.0
C311 C 0.46109 0.46738 0.12777 0.0
O312 O 0.47455 0.44292 0.12975 0.0
C313 C 0.27825 0.40787 0.13351 0.0
C314 C 0.24691 0.43786 0.11507 0.0
C315 C 0.24903 0.41242 0.12984 0.0
N316 N 0.2923 0.42944 0.12104 0.0
N317 N 0.27346 0.44741 0.11037 0.0
C318 C 0.29303 0.38502 0.15016 0.0
H319 H 0.31189 0.39404 0.16124 0.0
H320 H 0.27843 0.37518 0.16597 0.0
H321 H 0.30114 0.36848 0.13528 0.0
C322 C 0.38424 0.461 0.17763 0.0
N323 N 0.37667 0.45034 0.15212 0.0
N324 N 0.34882 0.44725 0.15132 0.0
C325 C 0.33773 0.45636 0.17627 0.0
C326 C 0.3599 0.46533 0.19363 0.0
C327 C 0.41393 0.46951 0.18561 0.0
H328 H 0.4292 0.45297 0.17834 0.0
H329 H 0.416 0.47239 0.20903 0.0
H330 H 0.41928 0.48995 0.17502 0.0
O331 O 0.38145 0.47143 0.08869 0.0
O332 O 0.33482 0.465 0.08707 0.0
H333 H 0.29622 0.47013 0.16307 0.0
H334 H 0.30263 0.47346 0.20102 0.0
C335 C 0.30653 0.46014 0.18183 0.0
H336 H 0.29662 0.43897 0.18523 0.0
H337 H 0.27874 0.46607 0.09952 0.0
O338 O 0.43437 0.46783 0.12375 0.0
C339 C 0.35729 0.47685 0.07793 0.0
Co340 Co 0.69306 0.34248 0.12171 0.0
Co341 Co 0.68743 0.40972 0.12334 0.0
C342 C 0.64311 0.36825 0.14827 0.0
O343 O 0.65474 0.34532 0.13913 0.0
O344 O 0.65357 0.39281 0.14269 0.0
C345 C 0.70999 0.2777 0.10984 0.0
O346 O 0.6862 0.26442 0.10338 0.0
C347 C 0.66233 0.46737 0.11342 0.0
C348 C 0.70102 0.49399 0.1177 0.0
C349 C 0.67203 0.49544 0.11258 0.0
N350 N 0.68478 0.4502 0.11839 0.0
N351 N 0.70778 0.46631 0.12081 0.0
C352 C 0.63217 0.45713 0.11165 0.0
H353 H 0.62883 0.43897 0.12634 0.0
H354 H 0.62791 0.4495 0.08964 0.0
H355 H 0.61691 0.47443 0.11693 0.0
C356 C 0.7059 0.35479 0.06185 0.0
N357 N 0.69702 0.36341 0.08774 0.0
N358 N 0.69573 0.39141 0.08824 0.0
C359 C 0.70385 0.40147 0.06256 0.0
C360 C 0.71076 0.37853 0.04515 0.0
C361 C 0.71163 0.32445 0.05378 0.0
H362 H 0.69392 0.31077 0.06137 0.0
H363 H 0.71382 0.322 0.03033 0.0
H364 H 0.73171 0.31734 0.06405 0.0
O365 O 0.71809 0.35716 0.1516 0.0
O366 O 0.71793 0.40429 0.15161 0.0
H367 H 0.72482 0.4411 0.07039 0.0
H368 H 0.71491 0.4357 0.03359 0.0
C369 C 0.70821 0.43236 0.05602 0.0
H370 H 0.6881 0.44415 0.06 0.0
H371 H 0.72815 0.45838 0.12498 0.0
O372 O 0.70954 0.30414 0.11568 0.0
C373 C 0.72659 0.38075 0.16174 0.0
Co374 Co 0.59557 0.03886 0.11292 0.0
Co375 Co 0.66196 0.04775 0.115 0.0
C376 C 0.62051 0.09004 0.08759 0.0
O377 O 0.59779 0.07724 0.0954 0.0
O378 O 0.64526 0.08067 0.0941 0.0
C379 C 0.53219 0.02637 0.12555 0.0
O380 O 0.52505 0.05024 0.13839 0.0
C381 C 0.71889 0.07479 0.12547 0.0
C382 C 0.74557 0.03604 0.12843 0.0
C383 C 0.74679 0.06548 0.12961 0.0
N384 N 0.70202 0.05177 0.12219 0.0
N385 N 0.71819 0.02877 0.12405 0.0
C386 C 0.70872 0.10496 0.12316 0.0
H387 H 0.68976 0.1063 0.10921 0.0
H388 H 0.70264 0.11274 0.14468 0.0
H389 H 0.72577 0.11897 0.11464 0.0
C390 C 0.60524 0.0275 0.17421 0.0
N391 N 0.61445 0.03618 0.14842 0.0
N392 N 0.64217 0.0403 0.14955 0.0
C393 C 0.65127 0.03494 0.1763 0.0
C394 C 0.62819 0.02651 0.19263 0.0
C395 C 0.57558 0.01769 0.18064 0.0
H396 H 0.56975 3e-05 0.16601 0.0
H397 H 0.56067 0.03567 0.1774 0.0
H398 H 0.5734 0.01022 0.20297 0.0
O399 O 0.61211 0.01265 0.08464 0.0
O400 O 0.65902 0.01571 0.08751 0.0
H401 H 0.69311 0.01707 0.17552 0.0
H402 H 0.68365 0.03343 0.20905 0.0
C403 C 0.68177 0.03525 0.18553 0.0
H404 H 0.69202 0.05533 0.1785 0.0
H405 H 0.7105 0.00798 0.12212 0.0
O406 O 0.5573 0.0227 0.11626 0.0
C407 C 0.63672 0.00489 0.07652 0.0
Co408 Co 0.29777 0.83858 0.36901 0.0
Co409 Co 0.30595 0.90569 0.36619 0.0
C410 C 0.35042 0.86324 0.34511 0.0
O411 O 0.3367 0.84126 0.35345 0.0
O412 O 0.34144 0.88855 0.35001 0.0
C413 C 0.28597 0.77556 0.38598 0.0
O414 O 0.3079 0.77102 0.40275 0.0
C415 C 0.33043 0.96384 0.37454 0.0
C416 C 0.29121 0.98992 0.37249 0.0
C417 C 0.32035 0.99164 0.37625 0.0
N418 N 0.30806 0.94633 0.37049 0.0
N419 N 0.28473 0.96214 0.3693 0.0
C420 C 0.36078 0.95421 0.37553 0.0
H421 H 0.36218 0.93287 0.38562 0.0
H422 H 0.37418 0.96978 0.38732 0.0
H423 H 0.36899 0.95237 0.3534 0.0
C424 C 0.28087 0.85336 0.42775 0.0
N425 N 0.29183 0.86064 0.40224 0.0
N426 N 0.29463 0.88854 0.40118 0.0
C427 C 0.28553 0.89978 0.42613 0.0
C428 C 0.27612 0.87784 0.44347 0.0
C429 C 0.27403 0.82358 0.43671 0.0
H430 H 0.29359 0.81052 0.43509 0.0
H431 H 0.26637 0.82262 0.45908 0.0
H432 H 0.25743 0.81464 0.42245 0.0
O433 O 0.27409 0.85232 0.33744 0.0
O434 O 0.27773 0.89932 0.33559 0.0
H435 H 0.26588 0.94013 0.41887 0.0
H436 H 0.27798 0.93517 0.45491 0.0
C437 C 0.2831 0.931 0.4322 0.0
H438 H 0.30344 0.94175 0.42682 0.0
H439 H 0.26431 0.95394 0.36604 0.0
O440 O 0.28243 0.79949 0.37385 0.0
C441 C 0.26793 0.87598 0.3259 0.0
Co442 Co 0.09314 0.44307 0.87089 0.0
Co443 Co 0.16042 0.43694 0.87115 0.0
C444 C 0.11838 0.39239 0.89562 0.0
O445 O 0.09549 0.40419 0.88659 0.0
O446 O 0.14301 0.40289 0.89025 0.0
C447 C 0.03026 0.46181 0.86059 0.0
O448 O 0.02099 0.43967 0.84613 0.0
C449 C 0.21847 0.41238 0.86 0.0
C450 C 0.24402 0.45187 0.86285 0.0
C451 C 0.24631 0.42277 0.85857 0.0
N452 N 0.20076 0.43444 0.86499 0.0
N453 N 0.21626 0.45792 0.86647 0.0
C454 C 0.20894 0.382 0.85815 0.0
H455 H 0.18661 0.37981 0.86545 0.0
H456 H 0.21002 0.3748 0.83563 0.0
H457 H 0.22316 0.36816 0.87102 0.0
C458 C 0.10473 0.45765 0.81087 0.0
N459 N 0.11345 0.44825 0.83655 0.0
N460 N 0.14146 0.44658 0.83669 0.0
C461 C 0.15135 0.45493 0.81102 0.0
C462 C 0.12841 0.46224 0.79397 0.0
C463 C 0.0746 0.46514 0.80366 0.0
H464 H 0.06776 0.48357 0.81684 0.0
H465 H 0.06066 0.44674 0.80853 0.0
H466 H 0.07222 0.47077 0.78081 0.0
O467 O 0.10974 0.46502 0.90159 0.0
O468 O 0.15658 0.4667 0.90059 0.0
H469 H 0.1917 0.47526 0.81643 0.0
H470 H 0.185 0.46299 0.78054 0.0
C471 C 0.18218 0.45792 0.80347 0.0
H472 H 0.19354 0.43778 0.80833 0.0
H473 H 0.20785 0.47816 0.87033 0.0
O474 O 0.05579 0.46266 0.86944 0.0
C475 C 0.13305 0.47356 0.91204 0.0
Co476 Co 0.69531 0.65166 0.37146 0.0
Co477 Co 0.68044 0.58613 0.37053 0.0
C478 C 0.63979 0.62965 0.34778 0.0
O479 O 0.65678 0.65012 0.35376 0.0
O480 O 0.6451 0.60392 0.35506 0.0
C481 C 0.71072 0.71477 0.38772 0.0
O482 O 0.69031 0.72194 0.40553 0.0
C483 C 0.65764 0.52675 0.37776 0.0
C484 C 0.69828 0.50293 0.3751 0.0
C485 C 0.66919 0.4994 0.37819 0.0
N486 N 0.6791 0.54555 0.37463 0.0
N487 N 0.70325 0.53107 0.37317 0.0
C488 C 0.62677 0.53476 0.37875 0.0
H489 H 0.62313 0.5552 0.36754 0.0
H490 H 0.62022 0.53746 0.40133 0.0
H491 H 0.61339 0.51782 0.36903 0.0
C492 C 0.71155 0.63724 0.4306 0.0
N493 N 0.69959 0.63039 0.40536 0.0
N494 N 0.69295 0.60314 0.40541 0.0
C495 C 0.69982 0.59208 0.43111 0.0
C496 C 0.71189 0.61333 0.44774 0.0
C497 C 0.7249 0.66541 0.43739 0.0
H498 H 0.73993 0.67141 0.42017 0.0
H499 H 0.70793 0.68176 0.43886 0.0
H500 H 0.73656 0.66497 0.45796 0.0
O501 O 0.72009 0.63676 0.34154 0.0
O502 O 0.70805 0.59124 0.33888 0.0
H503 H 0.71314 0.54865 0.4287 0.0
H504 H 0.69809 0.55869 0.46265 0.0
C505 C 0.69629 0.56149 0.43922 0.0
H506 H 0.67521 0.55363 0.43193 0.0
H507 H 0.72323 0.54048 0.37053 0.0
O508 O 0.71128 0.6901 0.37658 0.0
C509 C 0.72192 0.61255 0.32962 0.0
Co510 Co 0.89858 0.0414 0.87685 0.0
Co511 Co 0.83316 0.05673 0.8733 0.0
C512 C 0.87524 0.09693 0.89895 0.0
O513 O 0.89663 0.08082 0.89358 0.0
O514 O 0.8501 0.0909 0.8904 0.0
C515 C 0.95925 0.02606 0.86009 0.0
O516 O 0.96154 0.04642 0.84105 0.0
C517 C 0.77581 0.08251 0.8662 0.0
C518 C 0.7508 0.0444 0.85402 0.0
C519 C 0.74863 0.07338 0.85881 0.0
N520 N 0.79339 0.05991 0.86543 0.0
N521 N 0.77824 0.03722 0.85828 0.0
C522 C 0.78506 0.1121 0.87368 0.0
H523 H 0.80571 0.11687 0.86316 0.0
H524 H 0.76886 0.12807 0.86718 0.0
H525 H 0.78838 0.11352 0.89707 0.0
C526 C 0.88627 0.02313 0.81718 0.0
N527 N 0.87903 0.03622 0.8418 0.0
N528 N 0.8526 0.0454 0.83967 0.0
C529 C 0.84313 0.04039 0.81296 0.0
C530 C 0.86396 0.02584 0.79817 0.0
C531 C 0.91247 0.00548 0.81271 0.0
H532 H 0.91819 0.99423 0.83263 0.0
H533 H 0.93014 0.01961 0.80604 0.0
H534 H 0.90942 0.98948 0.79554 0.0
O535 O 0.88129 0.01813 0.90623 0.0
O536 O 0.8353 0.02874 0.90502 0.0
H537 H 0.79926 0.03067 0.80559 0.0
H538 H 0.81541 0.05185 0.77829 0.0
C539 C 0.8144 0.04838 0.80168 0.0
H540 H 0.80659 0.06809 0.81213 0.0
H541 H 0.78669 0.01671 0.85644 0.0
O542 O 0.93688 0.02411 0.8752 0.0
C543 C 0.85629 0.0157 0.91612 0.0
Co544 Co 0.12216 0.28933 0.14767 0.0
Co545 Co 0.12401 0.30499 0.08245 0.0
C546 C 0.14781 0.3432 0.12985 0.0
O547 O 0.13942 0.32745 0.15041 0.0
O548 O 0.14236 0.3373 0.1037 0.0
C549 C 0.12247 0.26821 0.20852 0.0
O550 O 0.13915 0.28871 0.21779 0.0
C551 C 0.11588 0.33257 0.02513 0.0
C552 C 0.11632 0.29359 -0.00148 0.0
C553 C 0.1137 0.32284 -0.00277 0.0
N554 N 0.11914 0.30983 0.0423 0.0
N555 N 0.11924 0.28669 0.02614 0.0
C556 C 0.11613 0.36289 0.03493 0.0
H557 H 0.1205 0.36429 0.05813 0.0
H558 H 0.09513 0.37274 0.03027 0.0
H559 H 0.13252 0.37498 0.02288 0.0
C560 C 0.06202 0.28082 0.13411 0.0
N561 N 0.08835 0.2891 0.12643 0.0
N562 N 0.08879 0.29416 0.09891 0.0
C563 C 0.06262 0.28883 0.08813 0.0
C564 C 0.04499 0.2799 0.11012 0.0
C565 C 0.05347 0.2726 0.16372 0.0
H566 H 0.06354 0.28716 0.17942 0.0
H567 H 0.02995 0.2734 0.16631 0.0
H568 H 0.06073 0.25053 0.16798 0.0
O569 O 0.1528 0.26626 0.13088 0.0
O570 O 0.15357 0.27517 0.08471 0.0
H571 H 0.06705 0.27243 0.04588 0.0
H572 H 0.03214 0.28649 0.05351 0.0
C573 C 0.0553 0.28961 0.0571 0.0
H574 H 0.06183 0.31039 0.04797 0.0
H575 H 0.12166 0.26604 0.03403 0.0
O576 O 0.11454 0.26801 0.18273 0.0
C577 C 0.16377 0.26271 0.10641 0.0
Co578 Co 0.13069 0.70358 0.34238 0.0
Co579 Co 0.12704 0.68608 0.40618 0.0
C580 C 0.14542 0.64436 0.36461 0.0
O581 O 0.14285 0.66259 0.34457 0.0
O582 O 0.13641 0.64937 0.38974 0.0
C583 C 0.10505 0.71706 0.2869 0.0
O584 O 0.08195 0.70324 0.29458 0.0
C585 C 0.11932 0.6619 0.46377 0.0
C586 C 0.10595 0.70013 0.48803 0.0
C587 C 0.11119 0.67127 0.49066 0.0
N588 N 0.11875 0.68424 0.44593 0.0
N589 N 0.11074 0.707 0.46057 0.0
C590 C 0.12672 0.63215 0.45485 0.0
H591 H 0.11334 0.62595 0.43635 0.0
H592 H 0.12336 0.61668 0.47239 0.0
H593 H 0.14933 0.63148 0.44787 0.0
C594 C 0.07673 0.73225 0.35911 0.0
N595 N 0.09868 0.71446 0.36384 0.0
N596 N 0.09474 0.70154 0.38814 0.0
C597 C 0.06841 0.70737 0.3979 0.0
C598 C 0.0561 0.72791 0.38016 0.0
C599 C 0.07826 0.75661 0.33852 0.0
H600 H 0.10074 0.76109 0.33265 0.0
H601 H 0.06633 0.75137 0.31892 0.0
H602 H 0.06856 0.77603 0.34801 0.0
O603 O 0.16346 0.72309 0.35663 0.0
O604 O 0.16383 0.70908 0.40172 0.0
H605 H 0.05745 0.69951 0.44164 0.0
H606 H 0.03101 0.68773 0.4162 0.0
C607 C 0.05422 0.6897 0.4204 0.0
H608 H 0.06391 0.6681 0.42096 0.0
H609 H 0.10852 0.7273 0.45177 0.0
O610 O 0.12677 0.71686 0.30307 0.0
C611 C 0.17568 0.7217 0.38065 0.0
Co612 Co 0.94472 0.61422 0.90571 0.0
Co613 Co 0.9336 0.6138 0.83838 0.0
C614 C 0.89044 0.59178 0.8779 0.0
O615 O 0.90715 0.59653 0.89875 0.0
O616 O 0.89661 0.59962 0.85266 0.0
C617 C 0.95585 0.62878 0.97185 0.0
O618 O 0.93909 0.62963 0.9943 0.0
C619 C 0.91246 0.6228 0.7787 0.0
C620 C 0.95262 0.61767 0.75458 0.0
C621 C 0.92378 0.62295 0.7512 0.0
N622 N 0.93376 0.61791 0.79739 0.0
N623 N 0.95765 0.61493 0.7827 0.0
C624 C 0.88176 0.62571 0.78697 0.0
H625 H 0.87676 0.61155 0.80511 0.0
H626 H 0.87765 0.64802 0.79374 0.0
H627 H 0.86742 0.62036 0.76893 0.0
C628 C 0.95938 0.67433 0.89189 0.0
N629 N 0.94956 0.64837 0.88434 0.0
N630 N 0.94492 0.64814 0.85662 0.0
C631 C 0.95186 0.67386 0.84584 0.0
C632 C 0.96129 0.69114 0.86781 0.0
C633 C 0.96922 0.68237 0.9211 0.0
H634 H 0.98952 0.67121 0.9256 0.0
H635 H 0.95302 0.67595 0.937 0.0
H636 H 0.97294 0.70566 0.92297 0.0
O637 O 0.97089 0.58321 0.89325 0.0
O638 O 0.96032 0.58217 0.84707 0.0
H639 H 0.96778 0.66934 0.80343 0.0
H640 H 0.95454 0.70456 0.81163 0.0
C641 C 0.95097 0.6814 0.8149 0.0
H642 H 0.92997 0.67539 0.80588 0.0
H643 H 0.97746 0.61075 0.79192 0.0
O644 O 0.94473 0.62169 0.94803 0.0
C645 C 0.97314 0.57177 0.86862 0.0
Co646 Co 0.86449 0.7924 0.3418 0.0
Co647 Co 0.86562 0.80956 0.40641 0.0
C648 C 0.84365 0.84943 0.36339 0.0
O649 O 0.84922 0.83227 0.34292 0.0
O650 O 0.85154 0.84455 0.38895 0.0
C651 C 0.88731 0.77265 0.28558 0.0
O652 O 0.90962 0.78954 0.2867 0.0
C653 C 0.87434 0.8343 0.46429 0.0
C654 C 0.88066 0.79468 0.48907 0.0
C655 C 0.87975 0.82402 0.49157 0.0
N656 N 0.87258 0.81192 0.44643 0.0
N657 N 0.87641 0.78837 0.46141 0.0
C658 C 0.86904 0.86449 0.45551 0.0
H659 H 0.85021 0.86542 0.44124 0.0
H660 H 0.88772 0.87236 0.44332 0.0
H661 H 0.86539 0.87853 0.47423 0.0
C662 C 0.92167 0.7702 0.3587 0.0
N663 N 0.89764 0.78512 0.36357 0.0
N664 N 0.8996 0.79742 0.38855 0.0
C665 C 0.92618 0.79399 0.39881 0.0
C666 C 0.94116 0.776 0.38037 0.0
C667 C 0.92342 0.74587 0.33805 0.0
H668 H 0.90178 0.73786 0.33333 0.0
H669 H 0.93387 0.75277 0.31807 0.0
H670 H 0.93617 0.72811 0.34709 0.0
O671 O 0.83326 0.77104 0.35707 0.0
O672 O 0.8324 0.78224 0.40276 0.0
H673 H 0.93309 0.79882 0.4437 0.0
H674 H 0.96066 0.81435 0.42158 0.0
C675 C 0.93739 0.81061 0.42369 0.0
H676 H 0.92627 0.83145 0.42514 0.0
H677 H 0.876 0.7679 0.45267 0.0
O678 O 0.86727 0.77567 0.30348 0.0
C679 C 0.8217 0.76932 0.38134 0.0
Co680 Co 0.54762 0.37314 0.40201 0.0
Co681 Co 0.55845 0.37231 0.3354 0.0
C682 C 0.60091 0.3971 0.37672 0.0
O683 O 0.58581 0.39037 0.39831 0.0
O684 O 0.59361 0.39023 0.35135 0.0
C685 C 0.5312 0.36272 0.46846 0.0
O686 O 0.55192 0.36073 0.48718 0.0
C687 C 0.58311 0.36553 0.27745 0.0
C688 C 0.54413 0.35827 0.25195 0.0
C689 C 0.57344 0.36038 0.24994 0.0
N690 N 0.5605 0.3661 0.29506 0.0
N691 N 0.53729 0.36183 0.27962 0.0
C692 C 0.61326 0.36976 0.28688 0.0
H693 H 0.61662 0.35954 0.30793 0.0
H694 H 0.62847 0.36084 0.27106 0.0
H695 H 0.61739 0.39293 0.28927 0.0
C696 C 0.53381 0.31316 0.39036 0.0
N697 N 0.54383 0.33863 0.38178 0.0
N698 N 0.54858 0.33779 0.35415 0.0
C699 C 0.54192 0.3115 0.34444 0.0
C700 C 0.5322 0.29525 0.36702 0.0
C701 C 0.5232 0.30689 0.41977 0.0
H702 H 0.54042 0.31122 0.43538 0.0
H703 H 0.51634 0.28436 0.42193 0.0
H704 H 0.50491 0.32106 0.42466 0.0
O705 O 0.52234 0.40293 0.38767 0.0
O706 O 0.52912 0.4022 0.34071 0.0
H707 H 0.52349 0.31092 0.30286 0.0
H708 H 0.54221 0.2788 0.31205 0.0
C709 C 0.54257 0.3024 0.31388 0.0
H710 H 0.56203 0.31067 0.30335 0.0
H711 H 0.51667 0.36159 0.28798 0.0
O712 O 0.53756 0.36679 0.44247 0.0
C713 C 0.51754 0.41266 0.3629 0.0
Co714 Co 0.36552 0.70007 0.64791 0.0
Co715 Co 0.36553 0.68336 0.58288 0.0
C716 C 0.34241 0.64417 0.62753 0.0
O717 O 0.34858 0.66143 0.64773 0.0
O718 O 0.34964 0.64891 0.60166 0.0
C719 C 0.3783 0.71687 0.71135 0.0
O720 O 0.3861 0.69265 0.72299 0.0
C721 C 0.37479 0.6582 0.52482 0.0
C722 C 0.37735 0.69809 0.49986 0.0
C723 C 0.37885 0.66875 0.49734 0.0
N724 N 0.37135 0.68046 0.54265 0.0
N725 N 0.37287 0.70414 0.5275 0.0
C726 C 0.37282 0.62768 0.53382 0.0
H727 H 0.35925 0.62562 0.55305 0.0
H728 H 0.39448 0.6198 0.53912 0.0
H729 H 0.36397 0.61429 0.51641 0.0
C730 C 0.42503 0.71427 0.63445 0.0
N731 N 0.3996 0.70304 0.62721 0.0
N732 N 0.40009 0.69568 0.60016 0.0
C733 C 0.42626 0.70139 0.58958 0.0
C734 C 0.44264 0.71356 0.61088 0.0
C735 C 0.43167 0.72764 0.66267 0.0
H736 H 0.41663 0.74546 0.6667 0.0
H737 H 0.42896 0.71154 0.67971 0.0
H738 H 0.45382 0.73592 0.66345 0.0
O739 O 0.33566 0.72405 0.63194 0.0
O740 O 0.33376 0.71112 0.58656 0.0
H741 H 0.42648 0.71405 0.5459 0.0
H742 H 0.45889 0.69712 0.55741 0.0
C743 C 0.4353 0.69677 0.55935 0.0
H744 H 0.4272 0.67599 0.55155 0.0
H745 H 0.37093 0.72456 0.53616 0.0
O746 O 0.37134 0.71773 0.68526 0.0
C747 C 0.3241 0.72531 0.60756 0.0
Co748 Co 0.94497 0.37814 0.59168 0.0
Co749 Co 0.93791 0.37837 0.65838 0.0
C750 C 0.89245 0.40154 0.61763 0.0
O751 O 0.90573 0.39416 0.59493 0.0
O752 O 0.90222 0.39542 0.64236 0.0
C753 C 0.96306 0.36545 0.52652 0.0
O754 O 0.94091 0.35871 0.51077 0.0
C755 C 0.91241 0.36608 0.71442 0.0
C756 C 0.95034 0.36639 0.74235 0.0
C757 C 0.92116 0.36226 0.74242 0.0
N758 N 0.93542 0.3718 0.69843 0.0
N759 N 0.95804 0.3719 0.71526 0.0
C760 C 0.88272 0.36424 0.70294 0.0
H761 H 0.88305 0.35494 0.68115 0.0
H762 H 0.86895 0.35122 0.7171 0.0
H763 H 0.87366 0.38604 0.7015 0.0
C764 C 0.9596 0.31808 0.60329 0.0
N765 N 0.9503 0.34384 0.61208 0.0
N766 N 0.94846 0.34389 0.64003 0.0
C767 C 0.95669 0.31812 0.64988 0.0
C768 C 0.96419 0.30106 0.62688 0.0
C769 C 0.965 0.31 0.57289 0.0
H770 H 0.94692 0.31716 0.55947 0.0
H771 H 0.96754 0.28659 0.57046 0.0
H772 H 0.9848 0.32056 0.56546 0.0
O773 O 0.96901 0.40942 0.60604 0.0
O774 O 0.96594 0.4093 0.6532 0.0
H775 H 0.96689 0.28845 0.68386 0.0
H776 H 0.94002 0.31473 0.69221 0.0
C777 C 0.96034 0.31094 0.68073 0.0
H778 H 0.97699 0.32488 0.69002 0.0
H779 H 0.97877 0.37594 0.70825 0.0
O780 O 0.95962 0.37094 0.5528 0.0
C781 C 0.97504 0.42027 0.63017 0.0
Co782 Co 0.04676 0.11832 0.59208 0.0
Co783 Co 0.05407 0.11846 0.6591 0.0
C784 C 0.09847 0.09482 0.61741 0.0
O785 O 0.08604 0.10273 0.59449 0.0
O786 O 0.08839 0.10078 0.64203 0.0
C787 C 0.02866 0.12938 0.52725 0.0
O788 O 0.05142 0.13694 0.5128 0.0
C789 C 0.07912 0.12847 0.71701 0.0
C790 C 0.03998 0.1256 0.74312 0.0
C791 C 0.06913 0.12962 0.74496 0.0
N792 N 0.05676 0.12405 0.69953 0.0
N793 N 0.03349 0.12252 0.71537 0.0
C794 C 0.1095 0.12988 0.70732 0.0
H795 H 0.11213 0.11961 0.68623 0.0
H796 H 0.1159 0.15256 0.70542 0.0
H797 H 0.12375 0.11948 0.72308 0.0
C798 C 0.03195 0.17829 0.60398 0.0
N799 N 0.04147 0.15262 0.61267 0.0
N800 N 0.04378 0.15273 0.64061 0.0
C801 C 0.03576 0.17851 0.65054 0.0
C802 C 0.02787 0.19542 0.62767 0.0
C803 C 0.02387 0.18525 0.57392 0.0
H804 H 0.00487 0.17254 0.56783 0.0
H805 H 0.0417 0.17957 0.55946 0.0
H806 H 0.01876 0.20818 0.5713 0.0
O807 O 0.02338 0.08693 0.60705 0.0
O808 O 0.02548 0.08807 0.65419 0.0
H809 H 0.0172 0.17416 0.69186 0.0
H810 H 0.0301 0.20961 0.68417 0.0
C811 C 0.03441 0.1865 0.68138 0.0
H812 H 0.0549 0.18112 0.69185 0.0
H813 H 0.0131 0.11895 0.70719 0.0
O814 O 0.03067 0.12396 0.55365 0.0
C815 C 0.01683 0.0766 0.6312 0.0
Co816 Co 0.6523 0.63158 0.79695 0.0
Co817 Co 0.58665 0.62662 0.81013 0.0
C818 C 0.62635 0.65044 0.8532 0.0
O819 O 0.64837 0.64555 0.83773 0.0
O820 O 0.60155 0.64203 0.84582 0.0
C821 C 0.71044 0.6114 0.78051 0.0
O822 O 0.70639 0.58742 0.79433 0.0
C823 C 0.52802 0.61492 0.83202 0.0
C824 C 0.5053 0.60862 0.79115 0.0
C825 C 0.50136 0.60906 0.82037 0.0
N826 N 0.54685 0.61764 0.81056 0.0
N827 N 0.53309 0.61373 0.78626 0.0
C828 C 0.53523 0.61969 0.86275 0.0
H829 H 0.55028 0.63779 0.86483 0.0
H830 H 0.54589 0.60036 0.87122 0.0
H831 H 0.51591 0.62419 0.87564 0.0
C832 C 0.63803 0.57474 0.77026 0.0
N833 N 0.63218 0.59757 0.78684 0.0
N834 N 0.60697 0.59395 0.79824 0.0
C835 C 0.59752 0.56746 0.79252 0.0
C836 C 0.6166 0.55429 0.77375 0.0
C837 C 0.66011 0.575 0.74719 0.0
H838 H 0.66648 0.59718 0.74207 0.0
H839 H 0.67904 0.56284 0.75417 0.0
H840 H 0.65173 0.56465 0.72761 0.0
O841 O 0.63665 0.66338 0.77677 0.0
O842 O 0.58992 0.65998 0.78334 0.0
H843 H 0.55279 0.559 0.79682 0.0
H844 H 0.5757 0.53094 0.81013 0.0
C845 C 0.57297 0.55436 0.80818 0.0
H846 H 0.57125 0.56385 0.82981 0.0
H847 H 0.54272 0.61481 0.76622 0.0
O848 O 0.6918 0.63099 0.78197 0.0
C849 C 0.61166 0.67291 0.77347 0.0
Co850 Co 0.87604 0.09281 0.44824 0.0
Co851 Co 0.87551 0.1582 0.43256 0.0
C852 C 0.89796 0.1144 0.39177 0.0
O853 O 0.89268 0.09409 0.40915 0.0
O854 O 0.89079 0.14018 0.39719 0.0
C855 C 0.85882 0.03141 0.46201 0.0
O856 O 0.84106 0.02805 0.44062 0.0
C857 C 0.86503 0.21706 0.40925 0.0
C858 C 0.86719 0.2414 0.44962 0.0
C859 C 0.8631 0.2445 0.42061 0.0
N860 N 0.8699 0.19869 0.43075 0.0
N861 N 0.87106 0.2135 0.45474 0.0
C862 C 0.86358 0.20862 0.37851 0.0
H863 H 0.87489 0.1882 0.37492 0.0
H864 H 0.84092 0.20574 0.37237 0.0
H865 H 0.87294 0.22546 0.36479 0.0
C866 C 0.81664 0.10666 0.46513 0.0
N867 N 0.8417 0.1135 0.45277 0.0
N868 N 0.84105 0.14052 0.44525 0.0
C869 C 0.81507 0.15127 0.45161 0.0
C870 C 0.79896 0.1302 0.46449 0.0
C871 C 0.81045 0.0791 0.47989 0.0
H872 H 0.8289 0.07279 0.49319 0.0
H873 H 0.80637 0.0625 0.46361 0.0
H874 H 0.79125 0.08055 0.49364 0.0
O875 O 0.90566 0.10872 0.47246 0.0
O876 O 0.90761 0.15418 0.46019 0.0
H877 H 0.81648 0.19514 0.46364 0.0
H878 H 0.78276 0.18396 0.44906 0.0
C879 C 0.80624 0.18156 0.44721 0.0
H880 H 0.81319 0.18886 0.42585 0.0
H881 H 0.87463 0.20446 0.47473 0.0
O882 O 0.87259 0.05451 0.46491 0.0
C883 C 0.91699 0.13314 0.47441 0.0
Co884 Co 0.3412 0.86652 0.79249 0.0
Co885 Co 0.40578 0.86744 0.81053 0.0
C886 C 0.36131 0.84196 0.84782 0.0
O887 O 0.34155 0.84849 0.83028 0.0
O888 O 0.38712 0.85012 0.84441 0.0
C889 C 0.27883 0.87996 0.77664 0.0
O890 O 0.27097 0.89385 0.79969 0.0
C891 C 0.46433 0.87535 0.83479 0.0
C892 C 0.48868 0.87788 0.79442 0.0
C893 C 0.49173 0.87845 0.82371 0.0
N894 N 0.44599 0.87321 0.81287 0.0
N895 N 0.46075 0.87476 0.78889 0.0
C896 C 0.45591 0.87277 0.86545 0.0
H897 H 0.43628 0.85979 0.86755 0.0
H898 H 0.45146 0.89435 0.8741 0.0
H899 H 0.47332 0.86301 0.87815 0.0
C900 C 0.35346 0.92643 0.77969 0.0
N901 N 0.36092 0.90111 0.79086 0.0
N902 N 0.38785 0.90195 0.79859 0.0
C903 C 0.39813 0.92825 0.79305 0.0
C904 C 0.37672 0.9444 0.78077 0.0
C905 C 0.32568 0.93239 0.76515 0.0
H906 H 0.32167 0.91595 0.74861 0.0
H907 H 0.30832 0.93157 0.78113 0.0
H908 H 0.32541 0.95375 0.75504 0.0
O909 O 0.35829 0.83802 0.76777 0.0
O910 O 0.40302 0.83605 0.78253 0.0
H911 H 0.4416 0.92879 0.77961 0.0
H912 H 0.43015 0.96096 0.79718 0.0
C913 C 0.42838 0.93736 0.79726 0.0
H914 H 0.43657 0.929 0.81777 0.0
H915 H 0.45167 0.8735 0.76862 0.0
O916 O 0.30387 0.87007 0.77448 0.0
C917 C 0.38278 0.82671 0.76725 0.0
Co918 Co 0.11485 0.39586 0.44904 0.0
Co919 Co 0.11769 0.32956 0.43816 0.0
C920 C 0.09155 0.37035 0.3958 0.0
O921 O 0.09784 0.39276 0.41009 0.0
O922 O 0.09952 0.34565 0.40388 0.0
C923 C 0.1292 0.45804 0.46236 0.0
O924 O 0.14632 0.46197 0.44055 0.0
C925 C 0.12687 0.27277 0.41159 0.0
C926 C 0.13349 0.2463 0.44995 0.0
C927 C 0.13204 0.24509 0.42057 0.0
N928 N 0.12552 0.28973 0.43468 0.0
N929 N 0.12965 0.27373 0.45751 0.0
C930 C 0.12302 0.2827 0.38156 0.0
H931 H 0.13034 0.30508 0.37934 0.0
H932 H 0.13491 0.26874 0.36655 0.0
H933 H 0.1001 0.28164 0.37596 0.0
C934 C 0.17515 0.38514 0.46548 0.0
N935 N 0.15012 0.37673 0.45403 0.0
N936 N 0.15167 0.34934 0.44803 0.0
C937 C 0.17821 0.34 0.45409 0.0
C938 C 0.19369 0.36228 0.46549 0.0
C939 C 0.18035 0.41332 0.47952 0.0
H940 H 0.16188 0.4191 0.49308 0.0
H941 H 0.18337 0.42968 0.46283 0.0
H942 H 0.19983 0.41305 0.49294 0.0
O943 O 0.0859 0.3793 0.47349 0.0
O944 O 0.08692 0.33251 0.46745 0.0
H945 H 0.18076 0.29712 0.46897 0.0
H946 H 0.21209 0.30912 0.45048 0.0
C947 C 0.18843 0.30999 0.45073 0.0
H948 H 0.18017 0.30076 0.43059 0.0
H949 H 0.12933 0.28152 0.47837 0.0
O950 O 0.11649 0.4344 0.46557 0.0
C951 C 0.07627 0.35469 0.47891 0.0
Co952 Co 0.64814 0.36159 0.7022 0.0
Co953 Co 0.58458 0.36819 0.68399 0.0
C954 C 0.62476 0.34297 0.64408 0.0
O955 O 0.64494 0.3455 0.66225 0.0
O956 O 0.60017 0.35357 0.64852 0.0
C957 C 0.70576 0.3835 0.71493 0.0
O958 O 0.69991 0.40689 0.70074 0.0
C959 C 0.52701 0.37656 0.65932 0.0
C960 C 0.50287 0.38983 0.69766 0.0
C961 C 0.49998 0.38426 0.66884 0.0
N962 N 0.54505 0.37772 0.68155 0.0
N963 N 0.53047 0.3857 0.70435 0.0
C964 C 0.53525 0.3659 0.63035 0.0
H965 H 0.54753 0.34581 0.6325 0.0
H966 H 0.5493 0.38183 0.61997 0.0
H967 H 0.51638 0.36189 0.61669 0.0
C968 C 0.63509 0.41907 0.72629 0.0
N969 N 0.62918 0.39638 0.70968 0.0
N970 N 0.60489 0.40074 0.69676 0.0
C971 C 0.59636 0.42776 0.70146 0.0
C972 C 0.61494 0.44043 0.72115 0.0
C973 C 0.65545 0.41777 0.75086 0.0
H974 H 0.66072 0.39532 0.7561 0.0
H975 H 0.67531 0.42918 0.74542 0.0
H976 H 0.64606 0.42826 0.76992 0.0
O977 O 0.63147 0.33263 0.72572 0.0
O978 O 0.58666 0.33426 0.71065 0.0
H979 H 0.55247 0.43851 0.69447 0.0
H980 H 0.57762 0.46478 0.68156 0.0
C981 C 0.57345 0.44163 0.68409 0.0
H982 H 0.57232 0.43147 0.66271 0.0
H983 H 0.53937 0.38804 0.72462 0.0
O984 O 0.68779 0.36327 0.7154 0.0
C985 C 0.60634 0.3228 0.72554 0.0
Co986 Co 0.61726 0.09196 0.54503 0.0
Co987 Co 0.61448 0.15819 0.55443 0.0
C988 C 0.59281 0.11556 0.59796 0.0
O989 O 0.60136 0.09392 0.58379 0.0
O990 O 0.59775 0.14107 0.58975 0.0
C991 C 0.62966 0.02685 0.53023 0.0
O992 O 0.63327 0.01285 0.55418 0.0
C993 C 0.62315 0.21475 0.58077 0.0
C994 C 0.62552 0.24235 0.54268 0.0
C995 C 0.62733 0.24272 0.5721 0.0
N996 N 0.61947 0.19847 0.55748 0.0
N997 N 0.62083 0.21513 0.5348 0.0
C998 C 0.62335 0.20348 0.61058 0.0
H999 H 0.6338 0.18226 0.61105 0.0
H1000 H 0.63452 0.21834 0.62526 0.0
H1001 H 0.60102 0.20079 0.61796 0.0
C1002 C 0.67636 0.10607 0.52951 0.0
N1003 N 0.65059 0.11358 0.53978 0.0
N1004 N 0.64989 0.14133 0.54367 0.0
C1005 C 0.67554 0.15225 0.53631 0.0
C1006 C 0.69292 0.13028 0.52689 0.0
C1007 C 0.68455 0.07646 0.52085 0.0
H1008 H 0.67991 0.06155 0.53857 0.0
H1009 H 0.70752 0.07502 0.51534 0.0
H1010 H 0.67172 0.06998 0.50206 0.0
O1011 O 0.5858 0.10519 0.52111 0.0
O1012 O 0.58378 0.15211 0.52579 0.0
H1013 H 0.67148 0.19383 0.51843 0.0
H1014 H 0.7061 0.18661 0.5333 0.0
C1015 C 0.68286 0.18327 0.53622 0.0
H1016 H 0.67614 0.19319 0.5566 0.0
H1017 H 0.61865 0.20786 0.51387 0.0
O1018 O 0.62443 0.05335 0.53078 0.0
C1019 C 0.57405 0.12891 0.51555 0.0
Co1020 Co 0.34116 0.12138 0.69216 0.0
Co1021 Co 0.40825 0.1239 0.68883 0.0
C1022 C 0.36689 0.14743 0.64316 0.0
O1023 O 0.34372 0.13716 0.65321 0.0
O1024 O 0.3909 0.14285 0.6552 0.0
C1025 C 0.27698 0.10784 0.70957 0.0
O1026 O 0.26403 0.09916 0.6863 0.0
C1027 C 0.46547 0.11745 0.66215 0.0
C1028 C 0.4927 0.11515 0.70057 0.0
C1029 C 0.4936 0.11427 0.67111 0.0
N1030 N 0.44874 0.1195 0.68539 0.0
N1031 N 0.46522 0.11822 0.70822 0.0
C1032 C 0.45478 0.12098 0.63229 0.0
H1033 H 0.43992 0.13932 0.63131 0.0
H1034 H 0.44275 0.1016 0.62596 0.0
H1035 H 0.47246 0.12466 0.61702 0.0
C1036 C 0.35456 0.06171 0.70659 0.0
N1037 N 0.36274 0.0877 0.69758 0.0
N1038 N 0.39073 0.08849 0.6963 0.0
C1039 C 0.40115 0.06286 0.70411 0.0
C1040 C 0.37856 0.04526 0.71117 0.0
C1041 C 0.32448 0.05338 0.71315 0.0
H1042 H 0.31734 0.06467 0.73269 0.0
H1043 H 0.31047 0.05961 0.69518 0.0
H1044 H 0.32259 0.03006 0.71668 0.0
O1045 O 0.35485 0.15334 0.71548 0.0
O1046 O 0.40187 0.1517 0.71994 0.0
H1047 H 0.44064 0.06801 0.72609 0.0
H1048 H 0.43553 0.03295 0.7111 0.0
C1049 C 0.43211 0.05609 0.70754 0.0
H1050 H 0.44392 0.06271 0.68818 0.0
H1051 H 0.45766 0.11955 0.72911 0.0
O1052 O 0.30311 0.11476 0.70872 0.0
C1053 C 0.37795 0.16318 0.72553 0.0
Co1054 Co 0.37718 0.39817 0.53998 0.0
Co1055 Co 0.37615 0.33385 0.55721 0.0
C1056 C 0.40117 0.37766 0.59589 0.0
O1057 O 0.3961 0.39724 0.5777 0.0
O1058 O 0.3928 0.35196 0.59209 0.0
C1059 C 0.36631 0.46308 0.52306 0.0
O1060 O 0.36475 0.47898 0.5461 0.0
C1061 C 0.3673 0.27696 0.58341 0.0
C1062 C 0.36179 0.25061 0.54463 0.0
C1063 C 0.36194 0.24937 0.57404 0.0
N1064 N 0.36978 0.29387 0.56047 0.0
N1065 N 0.36653 0.27794 0.5374 0.0
C1066 C 0.36963 0.28721 0.61354 0.0
H1067 H 0.36001 0.30875 0.61555 0.0
H1068 H 0.359 0.27222 0.62844 0.0
H1069 H 0.39249 0.28889 0.61938 0.0
C1070 C 0.31652 0.3869 0.52958 0.0
N1071 N 0.34225 0.37871 0.53926 0.0
N1072 N 0.34142 0.35152 0.54583 0.0
C1073 C 0.31488 0.34158 0.54051 0.0
C1074 C 0.29846 0.36365 0.5297 0.0
C1075 C 0.30957 0.41617 0.51901 0.0
H1076 H 0.31587 0.43211 0.5353 0.0
H1077 H 0.28645 0.41859 0.51461 0.0
H1078 H 0.32168 0.42035 0.49915 0.0
O1079 O 0.4049 0.38183 0.51309 0.0
O1080 O 0.4072 0.33731 0.52853 0.0
H1081 H 0.31523 0.2988 0.525 0.0
H1082 H 0.28251 0.30875 0.54215 0.0
C1083 C 0.30601 0.31106 0.543 0.0
H1084 H 0.3139 0.30204 0.56334 0.0
H1085 H 0.3676 0.28579 0.51663 0.0
O1086 O 0.37052 0.43654 0.52533 0.0
C1087 C 0.4161 0.35721 0.51244 0.0
Co1088 Co 0.7972 0.65406 0.62912 0.0
Co1089 Co 0.80742 0.58694 0.62926 0.0
C1090 C 0.85177 0.62517 0.65116 0.0
O1091 O 0.83531 0.64634 0.64666 0.0
O1092 O 0.84513 0.60017 0.64278 0.0
C1093 C 0.78205 0.7189 0.61708 0.0
O1094 O 0.79602 0.74303 0.61449 0.0
C1095 C 0.82894 0.52806 0.61924 0.0
C1096 C 0.78941 0.50286 0.62353 0.0
C1097 C 0.81831 0.50045 0.61819 0.0
N1098 N 0.80721 0.54609 0.62453 0.0
N1099 N 0.78363 0.53081 0.6269 0.0
C1100 C 0.85944 0.537 0.61684 0.0
H1101 H 0.86091 0.55763 0.60538 0.0
H1102 H 0.87233 0.52054 0.6057 0.0
H1103 H 0.86822 0.54009 0.6386 0.0
C1104 C 0.77865 0.64002 0.56985 0.0
N1105 N 0.79053 0.63276 0.59501 0.0
N1106 N 0.79554 0.60511 0.59488 0.0
C1107 C 0.78744 0.59421 0.56945 0.0
C1108 C 0.77607 0.61589 0.55299 0.0
C1109 C 0.76814 0.66913 0.56258 0.0
H1110 H 0.74835 0.67326 0.57482 0.0
H1111 H 0.78445 0.68516 0.56844 0.0
H1112 H 0.76333 0.67105 0.53949 0.0
O1113 O 0.77142 0.64251 0.65992 0.0
O1114 O 0.78164 0.5962 0.6621 0.0
H1115 H 0.77162 0.55181 0.57399 0.0
H1116 H 0.7845 0.55984 0.53874 0.0
C1117 C 0.78833 0.56325 0.56184 0.0
H1118 H 0.80941 0.55426 0.56756 0.0
H1119 H 0.76358 0.53948 0.6312 0.0
O1120 O 0.79632 0.69648 0.62287 0.0
C1121 C 0.76951 0.61839 0.67226 0.0
Co1122 Co 0.89892 0.94916 0.61421 0.0
Co1123 Co 0.83329 0.93567 0.61386 0.0
C1124 C 0.87899 0.89446 0.59219 0.0
O1125 O 0.90003 0.90968 0.6004 0.0
O1126 O 0.85313 0.90173 0.59703 0.0
C1127 C 0.96058 0.96671 0.62777 0.0
O1128 O 0.96823 0.94357 0.64152 0.0
C1129 C 0.77894 0.90521 0.62305 0.0
C1130 C 0.74876 0.94131 0.62602 0.0
C1131 C 0.7504 0.91192 0.62714 0.0
N1132 N 0.7936 0.92959 0.62006 0.0
N1133 N 0.77541 0.95107 0.62182 0.0
C1134 C 0.79214 0.8762 0.62202 0.0
H1135 H 0.81337 0.87666 0.63247 0.0
H1136 H 0.77826 0.8602 0.63256 0.0
H1137 H 0.79528 0.86991 0.59941 0.0
C1138 C 0.88559 0.96475 0.67368 0.0
N1139 N 0.87799 0.95396 0.64817 0.0
N1140 N 0.8505 0.94842 0.64835 0.0
C1141 C 0.83987 0.95524 0.67428 0.0
C1142 C 0.86175 0.96602 0.69092 0.0
C1143 C 0.91499 0.97439 0.68138 0.0
H1144 H 0.92136 0.99228 0.66733 0.0
H1145 H 0.92999 0.95644 0.67825 0.0
H1146 H 0.91639 0.98144 0.70393 0.0
O1147 O 0.88197 0.96959 0.58217 0.0
O1148 O 0.83525 0.96407 0.58275 0.0
H1149 H 0.79714 0.97042 0.67094 0.0
H1150 H 0.80599 0.95689 0.70563 0.0
C1151 C 0.80908 0.9536 0.6824 0.0
H1152 H 0.80032 0.9325 0.67632 0.0
H1153 H 0.78119 0.97246 0.61985 0.0
O1154 O 0.93571 0.96893 0.61739 0.0
C1155 C 0.85764 0.97414 0.57131 0.0
Co1156 Co 0.19497 0.8424 0.62487 0.0
Co1157 Co 0.18381 0.90858 0.62513 0.0
C1158 C 0.14067 0.86528 0.64723 0.0
O1159 O 0.15573 0.84357 0.64031 0.0
O1160 O 0.14866 0.89077 0.64154 0.0
C1161 C 0.21285 0.77905 0.6122 0.0
O1162 O 0.18916 0.7675 0.60272 0.0
C1163 C 0.15862 0.96573 0.61548 0.0
C1164 C 0.19768 0.99199 0.61301 0.0
C1165 C 0.16831 0.99339 0.61143 0.0
N1166 N 0.1813 0.94865 0.61899 0.0
N1167 N 0.20456 0.96451 0.61746 0.0
C1168 C 0.12839 0.95567 0.61576 0.0
H1169 H 0.12714 0.93335 0.60796 0.0
H1170 H 0.11477 0.96969 0.60243 0.0
H1171 H 0.12031 0.95636 0.63797 0.0
C1172 C 0.20887 0.8548 0.56488 0.0
N1173 N 0.19931 0.86301 0.59072 0.0
N1174 N 0.1953 0.89074 0.59071 0.0
C1175 C 0.20219 0.90099 0.56473 0.0
C1176 C 0.21108 0.87859 0.54773 0.0
C1177 C 0.21815 0.82518 0.55746 0.0
H1178 H 0.23702 0.81944 0.57048 0.0
H1179 H 0.20065 0.81009 0.56235 0.0
H1180 H 0.22385 0.82316 0.53458 0.0
O1181 O 0.21786 0.85803 0.656 0.0
O1182 O 0.21186 0.90476 0.65611 0.0
H1183 H 0.21905 0.9432 0.56651 0.0
H1184 H 0.20326 0.93405 0.53274 0.0
C1185 C 0.20119 0.93167 0.5562 0.0
H1186 H 0.18076 0.9413 0.56313 0.0
H1187 H 0.22522 0.95653 0.61964 0.0
O1188 O 0.21325 0.80505 0.61964 0.0
C1189 C 0.22252 0.88237 0.66686 0.0
Co1190 Co 0.09215 0.5469 0.6125 0.0
Co1191 Co 0.15887 0.55428 0.61317 0.0
C1192 C 0.11714 0.5992 0.59022 0.0
O1193 O 0.09429 0.58643 0.59786 0.0
O1194 O 0.14177 0.58892 0.59581 0.0
C1195 C 0.02899 0.53133 0.62516 0.0
O1196 O 0.02059 0.55456 0.6384 0.0
C1197 C 0.21586 0.58049 0.62242 0.0
C1198 C 0.24245 0.54172 0.62629 0.0
C1199 C 0.24363 0.57116 0.62728 0.0
N1200 N 0.19901 0.55748 0.61951 0.0
N1201 N 0.21512 0.53444 0.62163 0.0
C1202 C 0.20581 0.61044 0.61785 0.0
H1203 H 0.19151 0.61122 0.59908 0.0
H1204 H 0.19337 0.61748 0.63672 0.0
H1205 H 0.22386 0.62528 0.61426 0.0
C1206 C 0.10346 0.53126 0.67258 0.0
N1207 N 0.11225 0.54108 0.64705 0.0
N1208 N 0.14013 0.54409 0.64756 0.0
C1209 C 0.1498 0.53674 0.67366 0.0
C1210 C 0.12688 0.52813 0.69016 0.0
C1211 C 0.07336 0.52366 0.67981 0.0
H1212 H 0.05947 0.54223 0.6755 0.0
H1213 H 0.07106 0.5177 0.70259 0.0
H1214 H 0.06641 0.50549 0.66635 0.0
O1215 O 0.10787 0.52432 0.581 0.0
O1216 O 0.15489 0.52529 0.58283 0.0
H1217 H 0.1909 0.51743 0.671 0.0
H1218 H 0.1831 0.53266 0.70534 0.0
C1219 C 0.18055 0.53561 0.68203 0.0
H1220 H 0.19134 0.5556 0.6756 0.0
H1221 H 0.20739 0.51366 0.61984 0.0
O1222 O 0.0543 0.52921 0.61585 0.0
C1223 C 0.13195 0.51713 0.57098 0.0
Co1224 Co 0.79564 0.34108 0.86348 0.0
Co1225 Co 0.80279 0.40789 0.86423 0.0
C1226 C 0.84781 0.36576 0.84163 0.0
O1227 O 0.83566 0.34271 0.8497 0.0
O1228 O 0.83715 0.39029 0.84702 0.0
C1229 C 0.77726 0.27893 0.87533 0.0
O1230 O 0.79986 0.27054 0.88956 0.0
C1231 C 0.82764 0.46576 0.87329 0.0
C1232 C 0.78787 0.49106 0.87554 0.0
C1233 C 0.81722 0.49334 0.87683 0.0
N1234 N 0.8053 0.44803 0.87036 0.0
N1235 N 0.78168 0.46336 0.87165 0.0
C1236 C 0.85813 0.45659 0.87087 0.0
H1237 H 0.86009 0.43826 0.85609 0.0
H1238 H 0.86584 0.44979 0.89216 0.0
H1239 H 0.87177 0.47429 0.86314 0.0
C1240 C 0.77884 0.35295 0.92342 0.0
N1241 N 0.78901 0.36142 0.89789 0.0
N1242 N 0.79223 0.38928 0.89828 0.0
C1243 C 0.78481 0.39922 0.92423 0.0
C1244 C 0.7759 0.3766 0.94079 0.0
C1245 C 0.76924 0.32333 0.9302 0.0
H1246 H 0.75201 0.31705 0.91528 0.0
H1247 H 0.78743 0.30853 0.92757 0.0
H1248 H 0.7611 0.32158 0.95235 0.0
O1249 O 0.77522 0.3574 0.83119 0.0
O1250 O 0.77437 0.40426 0.83353 0.0
H1251 H 0.76722 0.44117 0.92287 0.0
H1252 H 0.78326 0.43208 0.95653 0.0
C1253 C 0.78529 0.42987 0.93304 0.0
H1254 H 0.80553 0.43989 0.92611 0.0
H1255 H 0.76121 0.45484 0.86976 0.0
O1256 O 0.77597 0.30404 0.86546 0.0
C1257 C 0.76785 0.38122 0.82092 0.0
Co1258 Co 0.59209 0.94961 0.37866 0.0
Co1259 Co 0.65719 0.93516 0.37485 0.0
C1260 C 0.61473 0.89308 0.39803 0.0
O1261 O 0.59364 0.90995 0.39414 0.0
O1262 O 0.63996 0.89952 0.38992 0.0
C1263 C 0.52969 0.9653 0.36593 0.0
O1264 O 0.52247 0.94232 0.35163 0.0
C1265 C 0.71196 0.90894 0.35915 0.0
C1266 C 0.74143 0.94514 0.3658 0.0
C1267 C 0.74059 0.91665 0.35819 0.0
N1268 N 0.69678 0.93177 0.36727 0.0
N1269 N 0.71444 0.95343 0.37084 0.0
C1270 C 0.69885 0.88089 0.35145 0.0
H1271 H 0.67889 0.88446 0.33926 0.0
H1272 H 0.71382 0.86759 0.33878 0.0
H1273 H 0.69298 0.86945 0.37123 0.0
C1274 C 0.60284 0.96673 0.3186 0.0
N1275 N 0.61115 0.95487 0.34344 0.0
N1276 N 0.63843 0.94858 0.34178 0.0
C1277 C 0.6481 0.9556 0.31561 0.0
C1278 C 0.62589 0.96737 0.30028 0.0
C1279 C 0.57391 0.97884 0.31285 0.0
H1280 H 0.5686 0.99489 0.32941 0.0
H1281 H 0.558 0.96144 0.31357 0.0
H1282 H 0.57274 0.98907 0.29157 0.0
O1283 O 0.6093 0.97279 0.40861 0.0
O1284 O 0.65518 0.96169 0.40757 0.0
H1285 H 0.69198 0.9673 0.31892 0.0
H1286 H 0.68079 0.95865 0.28314 0.0
C1287 C 0.67838 0.95294 0.30597 0.0
H1288 H 0.68576 0.93074 0.30911 0.0
H1289 H 0.7081 0.97376 0.3773 0.0
O1290 O 0.55452 0.96761 0.37633 0.0
C1291 C 0.63428 0.97488 0.4186 0.0
Co1292 Co 0.20155 0.14773 0.86263 0.0
Co1293 Co 0.18505 0.08288 0.86523 0.0
C1294 C 0.14482 0.12732 0.84191 0.0
O1295 O 0.1622 0.14779 0.84679 0.0
O1296 O 0.15034 0.10164 0.84932 0.0
C1297 C 0.2198 0.21048 0.87313 0.0
O1298 O 0.19561 0.22131 0.88221 0.0
C1299 C 0.15771 0.02645 0.87347 0.0
C1300 C 0.19577 -0.00049 0.8805 0.0
C1301 C 0.16641 -0.00143 0.87847 0.0
N1302 N 0.18096 0.04312 0.87264 0.0
N1303 N 0.20359 0.02687 0.87695 0.0
C1304 C 0.12796 0.03722 0.86959 0.0
H1305 H 0.12519 0.05747 0.88155 0.0
H1306 H 0.11203 0.02132 0.8769 0.0
H1307 H 0.12438 0.04183 0.84667 0.0
C1308 C 0.21508 0.13689 0.92311 0.0
N1309 N 0.20477 0.12841 0.89765 0.0
N1310 N 0.19779 0.10131 0.89906 0.0
C1311 C 0.20297 0.09193 0.92578 0.0
C1312 C 0.21425 0.11408 0.94165 0.0
C1313 C 0.22711 0.16579 0.92923 0.0
H1314 H 0.24549 0.16982 0.9149 0.0
H1315 H 0.21056 0.18213 0.92508 0.0
H1316 H 0.23427 0.16776 0.95171 0.0
O1317 O 0.22439 0.13006 0.83273 0.0
O1318 O 0.21257 0.08444 0.83305 0.0
H1319 H 0.2155 0.04831 0.92898 0.0
H1320 H 0.19706 0.06166 0.95985 0.0
C1321 C 0.19782 0.06226 0.93619 0.0
H1322 H 0.17743 0.05403 0.92756 0.0
H1323 H 0.22451 0.03445 0.87701 0.0
O1324 O 0.2212 0.18443 0.86609 0.0
C1325 C 0.22615 0.10521 0.82226 0.0
Co1326 Co 0.39661 0.54161 0.37284 0.0
Co1327 Co 0.33212 0.55875 0.37367 0.0
C1328 C 0.37815 0.59673 0.398 0.0
O1329 O 0.39821 0.57918 0.39205 0.0
O1330 O 0.35219 0.59228 0.39066 0.0
C1331 C 0.45867 0.52062 0.36793 0.0
O1332 O 0.47177 0.54371 0.37688 0.0
C1333 C 0.27605 0.58618 0.36393 0.0
C1334 C 0.24878 0.54776 0.3611 0.0
C1335 C 0.24819 0.57714 0.35937 0.0
N1336 N 0.2924 0.56305 0.36775 0.0
N1337 N 0.27596 0.54021 0.36609 0.0
C1338 C 0.2872 0.61606 0.36389 0.0
H1339 H 0.30907 0.61648 0.35481 0.0
H1340 H 0.27298 0.63037 0.35154 0.0
H1341 H 0.28844 0.62392 0.38619 0.0
C1342 C 0.38457 0.5357 0.31172 0.0
N1343 N 0.3766 0.54292 0.33833 0.0
N1344 N 0.34903 0.54778 0.33871 0.0
C1345 C 0.33855 0.54306 0.31233 0.0
C1346 C 0.36069 0.53503 0.29457 0.0
C1347 C 0.4141 0.5274 0.30301 0.0
H1348 H 0.43009 0.53939 0.31562 0.0
H1349 H 0.41749 0.53169 0.27998 0.0
H1350 H 0.417 0.50426 0.30647 0.0
O1351 O 0.37904 0.51649 0.40101 0.0
O1352 O 0.33401 0.52992 0.40391 0.0
H1353 H 0.2963 0.52634 0.31485 0.0
H1354 H 0.30488 0.54207 0.2809 0.0
C1355 C 0.30772 0.54412 0.30432 0.0
H1356 H 0.29831 0.5646 0.31142 0.0
H1357 H 0.28338 0.51936 0.36832 0.0
O1358 O 0.43177 0.52019 0.36636 0.0
C1359 C 0.35461 0.51467 0.4123 0.0
Co1360 Co 0.6256 0.7848 0.64299 0.0
Co1361 Co 0.62871 0.79206 0.57634 0.0
C1362 C 0.65474 0.83419 0.61962 0.0
O1363 O 0.64512 0.82227 0.64215 0.0
O1364 O 0.64923 0.82442 0.59474 0.0
C1365 C 0.62169 0.77412 0.70643 0.0
O1366 O 0.63772 0.79616 0.71291 0.0
C1367 C 0.61886 0.82071 0.52029 0.0
C1368 C 0.62305 0.78379 0.49126 0.0
C1369 C 0.61792 0.81286 0.49162 0.0
N1370 N 0.62426 0.79727 0.53598 0.0
N1371 N 0.62657 0.77533 0.51841 0.0
C1372 C 0.61578 0.85007 0.53245 0.0
H1373 H 0.62518 0.8513 0.55406 0.0
H1374 H 0.59278 0.85538 0.53409 0.0
H1375 H 0.62607 0.86599 0.51829 0.0
C1376 C 0.56454 0.77976 0.62934 0.0
N1377 N 0.59163 0.78491 0.62138 0.0
N1378 N 0.59284 0.78597 0.59342 0.0
C1379 C 0.56665 0.78068 0.58277 0.0
C1380 C 0.54796 0.77642 0.60524 0.0
C1381 C 0.55474 0.77566 0.65937 0.0
H1382 H 0.56691 0.78961 0.67408 0.0
H1383 H 0.53164 0.78051 0.66135 0.0
H1384 H 0.55795 0.75306 0.66529 0.0
O1385 O 0.65477 0.75743 0.62873 0.0
O1386 O 0.65505 0.75952 0.5816 0.0
H1387 H 0.57413 0.76012 0.54276 0.0
H1388 H 0.53753 0.77125 0.54823 0.0
C1389 C 0.56021 0.777 0.55177 0.0
H1390 H 0.56488 0.79719 0.54043 0.0
H1391 H 0.63072 0.7545 0.52499 0.0
O1392 O 0.61592 0.76885 0.68056 0.0
C1393 C 0.66462 0.74923 0.6048 0.0
Co1394 Co 0.62309 0.19521 0.84134 0.0
Co1395 Co 0.62464 0.18797 0.90811 0.0
C1396 C 0.64739 0.14337 0.86654 0.0
O1397 O 0.63915 0.1561 0.84391 0.0
O1398 O 0.64185 0.15334 0.89128 0.0
C1399 C 0.60857 0.21046 0.77628 0.0
O1400 O 0.60112 0.18707 0.76278 0.0
C1401 C 0.61633 0.16029 0.9636 0.0
C1402 C 0.61565 0.19717 0.99299 0.0
C1403 C 0.61361 0.16777 0.9921 0.0
N1404 N 0.61959 0.18418 0.94826 0.0
N1405 N 0.61913 0.20617 0.96595 0.0
C1406 C 0.61555 0.13098 0.95101 0.0
H1407 H 0.60435 0.13144 0.93016 0.0
H1408 H 0.60477 0.11577 0.96557 0.0
H1409 H 0.63771 0.12359 0.94722 0.0
C1410 C 0.56375 0.21115 0.85504 0.0
N1411 N 0.58932 0.2006 0.86281 0.0
N1412 N 0.58983 0.1978 0.89068 0.0
C1413 C 0.56451 0.20622 0.90143 0.0
C1414 C 0.5474 0.21529 0.87923 0.0
C1415 C 0.55578 0.2195 0.82532 0.0
H1416 H 0.56894 0.23795 0.81862 0.0
H1417 H 0.55996 0.2014 0.81066 0.0
H1418 H 0.53292 0.22546 0.82383 0.0
O1419 O 0.65476 0.21943 0.8551 0.0
O1420 O 0.65462 0.21678 0.90231 0.0
H1421 H 0.57055 0.22626 0.94186 0.0
H1422 H 0.53487 0.21327 0.93612 0.0
C1423 C 0.5578 0.20868 0.93251 0.0
H1424 H 0.5634 0.18853 0.94346 0.0
H1425 H 0.62151 0.22734 0.95958 0.0
O1426 O 0.61526 0.20941 0.8025 0.0
C1427 C 0.66553 0.2258 0.87919 0.0
Co1428 Co 0.44432 0.11544 0.39998 0.0
Co1429 Co 0.43621 0.11713 0.33346 0.0
C1430 C 0.392 0.0922 0.37461 0.0
O1431 O 0.40516 0.09954 0.39737 0.0
O1432 O 0.40154 0.09887 0.34994 0.0
C1433 C 0.46187 0.12608 0.46339 0.0
O1434 O 0.43993 0.14057 0.47307 0.0
C1435 C 0.4089 0.12999 0.27862 0.0
C1436 C 0.44547 0.12695 0.24901 0.0
C1437 C 0.41637 0.13159 0.24996 0.0
N1438 N 0.43248 0.12438 0.29376 0.0
N1439 N 0.45432 0.12293 0.276 0.0
C1440 C 0.38013 0.13434 0.29176 0.0
H1441 H 0.38221 0.14782 0.31113 0.0
H1442 H 0.36513 0.14444 0.2765 0.0
H1443 H 0.37145 0.11346 0.29864 0.0
C1444 C 0.46042 0.17547 0.38949 0.0
N1445 N 0.44979 0.1503 0.38057 0.0
N1446 N 0.44659 0.15109 0.35273 0.0
C1447 C 0.45465 0.17699 0.34319 0.0
C1448 C 0.46383 0.19311 0.36617 0.0
C1449 C 0.46927 0.18194 0.41942 0.0
H1450 H 0.45108 0.17788 0.4339 0.0
H1451 H 0.47606 0.20448 0.42191 0.0
H1452 H 0.48723 0.1678 0.42548 0.0
O1453 O 0.46738 0.08511 0.38343 0.0
O1454 O 0.46511 0.08666 0.33639 0.0
H1455 H 0.47259 0.17199 0.30164 0.0
H1456 H 0.46202 0.20806 0.30991 0.0
C1457 C 0.45628 0.18526 0.31246 0.0
H1458 H 0.43539 0.18136 0.30211 0.0
H1459 H 0.47521 0.11852 0.28225 0.0
O1460 O 0.46247 0.11765 0.43771 0.0
C1461 C 0.47409 0.07522 0.35919 0.0
Co1462 Co 0.37154 0.29611 0.84157 0.0
Co1463 Co 0.36728 0.31015 0.90738 0.0
C1464 C 0.34555 0.35035 0.86197 0.0
O1465 O 0.35252 0.33378 0.84141 0.0
O1466 O 0.35164 0.34469 0.888 0.0
C1467 C 0.36264 0.26833 0.78813 0.0
O1468 O 0.33581 0.27546 0.79182 0.0
C1469 C 0.37497 0.33411 0.96629 0.0
C1470 C 0.37093 0.29422 0.99103 0.0
C1471 C 0.37556 0.32318 0.9939 0.0
N1472 N 0.37038 0.31241 0.94803 0.0
N1473 N 0.36802 0.28872 0.96306 0.0
C1474 C 0.3775 0.36463 0.95747 0.0
H1475 H 0.36709 0.36806 0.93655 0.0
H1476 H 0.4004 0.37018 0.95538 0.0
H1477 H 0.36781 0.37887 0.97374 0.0
C1478 C 0.43172 0.28905 0.85708 0.0
N1479 N 0.40476 0.29607 0.86399 0.0
N1480 N 0.40287 0.29918 0.89177 0.0
C1481 C 0.42844 0.29306 0.90344 0.0
C1482 C 0.44742 0.28635 0.88181 0.0
C1483 C 0.44216 0.28326 0.82748 0.0
H1484 H 0.43105 0.29718 0.81198 0.0
H1485 H 0.46548 0.28699 0.82592 0.0
H1486 H 0.43814 0.26067 0.82203 0.0
O1487 O 0.34194 0.27002 0.85585 0.0
O1488 O 0.33702 0.2819 0.9013 0.0
H1489 H 0.42159 0.2749 0.94459 0.0
H1490 H 0.45738 0.28803 0.93896 0.0
C1491 C 0.43444 0.29209 0.93472 0.0
H1492 H 0.4283 0.31266 0.94463 0.0
H1493 H 0.36447 0.26864 0.95413 0.0
O1494 O 0.38148 0.27879 0.80447 0.0
C1495 C 0.32914 0.26785 0.87957 0.0
Co1496 Co 0.04497 0.87465 0.89721 0.0
Co1497 Co 0.05079 0.8725 0.83028 0.0
C1498 C 0.09614 0.89727 0.87044 0.0
O1499 O 0.08433 0.88974 0.89386 0.0
O1500 O 0.08557 0.89045 0.84626 0.0
C1501 C 0.02798 0.86466 0.96117 0.0
O1502 O 0.0503 0.85115 0.97132 0.0
C1503 C 0.07563 0.86158 0.77287 0.0
C1504 C 0.03662 0.86439 0.74652 0.0
C1505 C 0.06582 0.86061 0.7449 0.0
N1506 N 0.05311 0.86576 0.79017 0.0
N1507 N 0.0299 0.86712 0.77425 0.0
C1508 C 0.10593 0.86158 0.78278 0.0
H1509 H 0.10707 0.85668 0.80589 0.0
H1510 H 0.11871 0.84581 0.77064 0.0
H1511 H 0.11528 0.88299 0.77906 0.0
C1512 C 0.02896 0.81442 0.88724 0.0
N1513 N 0.03866 0.83974 0.87779 0.0
N1514 N 0.04074 0.83876 0.84984 0.0
C1515 C 0.03274 0.81266 0.84071 0.0
C1516 C 0.0248 0.79653 0.86413 0.0
C1517 C 0.02254 0.80774 0.91772 0.0
H1518 H 0.04115 0.81357 0.93103 0.0
H1519 H 0.01782 0.78476 0.92076 0.0
H1520 H 0.00385 0.82042 0.92477 0.0
O1521 O 0.02259 0.906 0.88124 0.0
O1522 O 0.0223 0.90326 0.83427 0.0
H1523 H 0.0134 0.81722 0.7998 0.0
H1524 H 0.02478 0.78136 0.80762 0.0
C1525 C 0.03026 0.80423 0.81005 0.0
H1526 H 0.05072 0.80852 0.799 0.0
H1527 H 0.00948 0.87073 0.78232 0.0
O1528 O 0.02731 0.87233 0.93527 0.0
C1529 C 0.01506 0.91576 0.8572 0.0
Co1530 Co 0.86249 0.20049 0.15067 0.0
Co1531 Co 0.86504 0.18182 0.08631 0.0
C1532 C 0.84292 0.14207 0.12895 0.0
O1533 O 0.84646 0.16088 0.1484 0.0
O1534 O 0.85146 0.14612 0.10345 0.0
C1535 C 0.88691 0.21059 0.20883 0.0
O1536 O 0.90905 0.19449 0.2029 0.0
C1537 C 0.8751 0.1559 0.02951 0.0
C1538 C 0.88031 0.1945 0.00303 0.0
C1539 C 0.88051 0.16505 0.00186 0.0
N1540 N 0.87206 0.17894 0.04629 0.0
N1541 N 0.87525 0.20192 0.03031 0.0
C1542 C 0.87381 0.12586 0.04012 0.0
H1543 H 0.88443 0.12438 0.0612 0.0
H1544 H 0.88414 0.11093 0.0249 0.0
H1545 H 0.85117 0.11961 0.04293 0.0
C1546 C 0.92005 0.22209 0.13528 0.0
N1547 N 0.89645 0.20659 0.12986 0.0
N1548 N 0.89862 0.1955 0.10418 0.0
C1549 C 0.92467 0.20157 0.09355 0.0
C1550 C 0.93876 0.21879 0.1128 0.0
C1551 C 0.92332 0.24292 0.15927 0.0
H1552 H 0.90228 0.24896 0.16812 0.0
H1553 H 0.93699 0.23335 0.17595 0.0
H1554 H 0.93424 0.26254 0.15196 0.0
O1555 O 0.83248 0.22441 0.13494 0.0
O1556 O 0.83168 0.2084 0.09031 0.0
H1557 H 0.92919 0.20839 0.04879 0.0
H1558 H 0.95922 0.1913 0.0651 0.0
C1559 C 0.93558 0.19245 0.065 0.0
H1560 H 0.92677 0.17131 0.05917 0.0
H1561 H 0.87394 0.22274 0.03809 0.0
O1562 O 0.86695 0.21342 0.19067 0.0
C1563 C 0.82135 0.22374 0.11028 0.0
Co1564 Co 0.44556 0.87627 0.09224 0.0
Co1565 Co 0.43454 0.87702 0.15891 0.0
C1566 C 0.39133 0.89917 0.1159 0.0
O1567 O 0.40625 0.89233 0.09405 0.0
O1568 O 0.39943 0.89336 0.14129 0.0
C1569 C 0.46281 0.86186 0.02997 0.0
O1570 O 0.44174 0.84463 0.02342 0.0
C1571 C 0.41072 0.86579 0.21711 0.0
C1572 C 0.45011 0.87068 0.2426 0.0
C1573 C 0.42136 0.8647 0.24479 0.0
N1574 N 0.43245 0.87175 0.19934 0.0
N1575 N 0.45588 0.8745 0.21479 0.0
C1576 C 0.38026 0.86333 0.20798 0.0
H1577 H 0.37795 0.86861 0.18512 0.0
H1578 H 0.37266 0.84123 0.21126 0.0
H1579 H 0.36675 0.87773 0.22109 0.0
C1580 C 0.46224 0.81679 0.10609 0.0
N1581 N 0.45093 0.84222 0.11342 0.0
N1582 N 0.44608 0.84239 0.14107 0.0
C1583 C 0.45359 0.81682 0.15194 0.0
C1584 C 0.46415 0.79995 0.13016 0.0
C1585 C 0.47343 0.80944 0.07716 0.0
H1586 H 0.45551 0.80948 0.06183 0.0
H1587 H 0.48355 0.78805 0.07672 0.0
H1588 H 0.48935 0.82559 0.07055 0.0
O1589 O 0.46835 0.90703 0.10779 0.0
O1590 O 0.46282 0.90801 0.15451 0.0
H1591 H 0.46917 0.82176 0.19442 0.0
H1592 H 0.45707 0.7862 0.18616 0.0
C1593 C 0.45278 0.80923 0.18287 0.0
H1594 H 0.43154 0.81451 0.19181 0.0
H1595 H 0.47589 0.87925 0.2063 0.0
O1596 O 0.46403 0.87349 0.05438 0.0
C1597 C 0.47345 0.91821 0.13184 0.0
Co1598 Co 0.54378 0.61887 0.09324 0.0
Co1599 Co 0.55842 0.61806 0.15912 0.0
C1600 C 0.59873 0.5945 0.1151 0.0
O1601 O 0.58219 0.60115 0.09449 0.0
O1602 O 0.5932 0.60164 0.14089 0.0
C1603 C 0.52946 0.63277 0.0288 0.0
O1604 O 0.55432 0.6373 0.01675 0.0
C1605 C 0.58218 0.62586 0.21824 0.0
C1606 C 0.54174 0.6277 0.24242 0.0
C1607 C 0.57101 0.62908 0.24567 0.0
N1608 N 0.56035 0.623 0.19978 0.0
N1609 N 0.53633 0.62407 0.21451 0.0
C1610 C 0.6129 0.62399 0.20985 0.0
H1611 H 0.61538 0.61082 0.19037 0.0
H1612 H 0.62094 0.64573 0.20518 0.0
H1613 H 0.62587 0.61475 0.22734 0.0
C1614 C 0.53026 0.67849 0.10708 0.0
N1615 N 0.54084 0.65285 0.1145 0.0
N1616 N 0.54677 0.65296 0.1419 0.0
C1617 C 0.54042 0.67899 0.15261 0.0
C1618 C 0.52951 0.69577 0.13092 0.0
C1619 C 0.51934 0.68595 0.07807 0.0
H1620 H 0.53626 0.68187 0.06206 0.0
H1621 H 0.51294 0.7087 0.07673 0.0
H1622 H 0.50064 0.67242 0.07302 0.0
O1623 O 0.51848 0.58909 0.10808 0.0
O1624 O 0.53038 0.58692 0.15382 0.0
H1625 H 0.525 0.67761 0.19538 0.0
H1626 H 0.54178 0.71078 0.18592 0.0
C1627 C 0.54285 0.68728 0.18329 0.0
H1628 H 0.56327 0.67938 0.19215 0.0
H1629 H 0.5161 0.62236 0.2054 0.0
O1630 O 0.52806 0.62641 0.05507 0.0
C1631 C 0.51642 0.57771 0.13251 0.0
C1632 C 0.10353 0.21853 0.21236 0.0
C1633 C 0.11724 0.24203 0.22548 0.0
C1634 C 0.1015 0.19208 0.22592 0.0
C1635 C 0.11347 0.18804 0.25287 0.0
H1636 H 0.09507 0.22013 0.19097 0.0
H1637 H 0.09139 0.17447 0.21487 0.0
S1638 S 0.14737 0.24294 0.29864 0.0
N1639 N 0.13983 0.25987 0.26871 0.0
N1640 N 0.13644 0.20981 0.29391 0.0
C1641 C 0.12589 0.21142 0.26696 0.0
C1642 C 0.12764 0.23852 0.25335 0.0
C1643 C 0.47637 0.6331 0.02842 0.0
C1644 C 0.50214 0.63755 0.0135 0.0
C1645 C 0.44999 0.63557 0.01498 0.0
C1646 C 0.44811 0.64292 0.98614 0.0
H1647 H 0.47639 0.62666 0.05058 0.0
H1648 H 0.43091 0.63028 0.02691 0.0
S1649 S 0.50832 0.65816 0.93733 0.0
N1650 N 0.52372 0.65093 0.96818 0.0
N1651 N 0.47363 0.65554 0.94293 0.0
C1652 C 0.47332 0.64879 0.97109 0.0
C1653 C 0.50047 0.64605 0.98475 0.0
C1654 C 0.91269 0.27462 0.25043 0.0
C1655 C 0.88678 0.28579 0.26062 0.0
C1656 C 0.91345 0.24818 0.23614 0.0
C1657 C 0.8883 0.23233 0.23157 0.0
H1658 H 0.93212 0.28699 0.25212 0.0
H1659 H 0.93341 0.24121 0.22686 0.0
S1660 S 0.81643 0.24889 0.25974 0.0
N1661 N 0.83635 0.27614 0.26963 0.0
N1662 N 0.83802 0.2273 0.24224 0.0
C1663 C 0.86299 0.24194 0.2441 0.0
C1664 C 0.86215 0.2685 0.2587 0.0
C1665 C 0.53074 0.8905 -0.00187 0.0
C1666 C 0.5457 0.8657 0.9901 0.0
C1667 C 0.50324 0.88908 0.00964 0.0
C1668 C 0.48911 0.8629 0.01277 0.0
H1669 H 0.54014 0.91133 0.99529 0.0
H1670 H 0.49304 0.90866 0.01649 0.0
S1671 S 0.51804 0.79157 0.99472 0.0
N1672 N 0.54387 0.81389 0.98614 0.0
N1673 N 0.49168 0.81153 0.00687 0.0
C1674 C 0.50325 0.83794 0.00414 0.0
C1675 C 0.53163 0.83927 0.99303 0.0
C1676 C 0.13095 0.77791 0.24229 0.0
C1677 C 0.10584 0.79302 0.23588 0.0
C1678 C 0.13008 0.75187 0.25641 0.0
C1679 C 0.1041 0.73977 0.26512 0.0
H1680 H 0.15173 0.78638 0.23679 0.0
H1681 H 0.15017 0.7418 0.26178 0.0
S1682 S 0.0319 0.76876 0.25041 0.0
N1683 N 0.05392 0.79262 0.23684 0.0
N1684 N 0.0523 0.74332 0.26366 0.0
C1685 C 0.07862 0.75355 0.2572 0.0
C1686 C 0.0795 0.78033 0.24269 0.0
C1687 C 0.99443 0.65347 -0.00106 0.0
C1688 C 0.98636 0.63654 0.9754 0.0
C1689 C 0.02315 0.65742 0.00616 0.0
C1690 C 0.04492 0.64432 0.99026 0.0
H1691 H 0.97838 0.66267 0.0128 0.0
H1692 H 0.02811 0.66873 0.02571 0.0
S1693 S 0.03566 0.60232 0.92388 0.0
N1694 N 0.00284 0.60992 0.93415 0.0
N1695 N 0.05685 0.61725 0.9477 0.0
C1696 C 0.03733 0.62957 0.96525 0.0
C1697 C 0.00805 0.62562 0.95787 0.0
C1698 C 0.90731 0.7407 0.24709 0.0
C1699 C 0.88911 0.74475 0.27067 0.0
C1700 C 0.90909 0.71404 0.23331 0.0
C1701 C 0.89324 0.6906 0.24322 0.0
H1702 H 0.9195 0.75841 0.23871 0.0
H1703 H 0.9217 0.71218 0.21403 0.0
S1704 S 0.84614 0.68837 0.30663 0.0
N1705 N 0.85676 0.72178 0.30455 0.0
N1706 N 0.8618 0.67198 0.27976 0.0
C1707 C 0.87673 0.69386 0.2679 0.0
C1708 C 0.87409 0.72086 0.28127 0.0
C1709 C 0.99245 0.8423 0.99418 0.0
C1710 C 0.0006 0.86527 0.97678 0.0
C1711 C 0.96474 0.84061 0.00547 0.0
C1712 C 0.94435 0.86199 -2e-05 0.0
H1713 H 0.00727 0.82511 -0.00157 0.0
H1714 H 0.95947 0.82272 0.01905 0.0
S1715 S 0.95542 0.92685 0.9561 0.0
N1716 N 0.9863 0.90999 0.95491 0.0
N1717 N 0.93446 0.90691 0.97608 0.0
C1718 C 0.95242 0.88516 0.98278 0.0
C1719 C 0.98047 0.88679 0.97124 0.0
C1720 C 0.22677 0.09757 0.20323 0.0
C1721 C 0.251 0.11375 0.19657 0.0
C1722 C 0.2125 0.10153 0.22927 0.0
C1723 C 0.22221 0.12152 0.24961 0.0
H1724 H 0.21803 0.08282 0.18773 0.0
H1725 H 0.19282 0.09003 0.23273 0.0
S1726 S 0.28783 0.1651 0.24439 0.0
N1727 N 0.28636 0.14764 0.21381 0.0
N1728 N 0.25939 0.15508 0.26258 0.0
C1729 C 0.24743 0.13645 0.24386 0.0
C1730 C 0.26191 0.13249 0.21741 0.0
C1731 C 0.34075 0.50118 0.00298 0.0
C1732 C 0.36187 0.52194 -0.00167 0.0
C1733 C 0.33816 0.48762 0.0295 0.0
C1734 C 0.35653 0.49454 0.05217 0.0
H1735 H 0.32631 0.49518 0.98598 0.0
H1736 H 0.32239 0.47092 0.03192 0.0
S1737 S 0.41302 0.54975 0.05257 0.0
N1738 N 0.40012 0.55023 0.01987 0.0
N1739 N 0.3947 0.52493 0.06936 0.0
C1740 C 0.37692 0.51597 0.04824 0.0
C1741 C 0.3798 0.52957 0.02138 0.0
C1742 C 0.74032 0.40239 0.20852 0.0
C1743 C 0.74314 0.38019 0.18848 0.0
C1744 C 0.75268 0.40037 0.23568 0.0
C1745 C 0.76834 0.37609 0.24373 0.0
H1746 H 0.72796 0.42123 0.20345 0.0
H1747 H 0.75041 0.41823 0.25019 0.0
S1748 S 0.78221 0.31214 0.19856 0.0
N1749 N 0.76317 0.33351 0.17819 0.0
N1750 N 0.78563 0.32912 0.22919 0.0
C1751 C 0.77104 0.35361 0.22381 0.0
C1752 C 0.75877 0.35587 0.19618 0.0
C1753 C 0.65777 0.98746 0.00123 0.0
C1754 C 0.63414 0.97186 0.99131 0.0
C1755 C 0.66028 0.99523 0.02998 0.0
C1756 C 0.6388 0.98831 0.0497 0.0
H1757 H 0.67373 0.99502 0.98634 0.0
H1758 H 0.67785 0.00891 0.03613 0.0
S1759 S 0.57441 0.94483 0.03523 0.0
N1760 N 0.5904 0.94734 0.00392 0.0
N1761 N 0.59485 0.96219 0.05804 0.0
C1762 C 0.61625 0.97076 0.0405 0.0
C1763 C 0.61393 0.96251 0.01124 0.0
C1764 C 0.25812 0.89673 0.27778 0.0
C1765 C 0.25267 0.87552 0.29832 0.0
C1766 C 0.24651 0.89495 0.25025 0.0
C1767 C 0.22881 0.87206 0.24245 0.0
H1768 H 0.27188 0.91459 0.28281 0.0
H1769 H 0.25075 0.91202 0.23531 0.0
S1770 S 0.20786 0.81106 0.28827 0.0
N1771 N 0.22839 0.83093 0.30884 0.0
N1772 N 0.2066 0.82761 0.25729 0.0
C1773 C 0.22332 0.85068 0.26275 0.0
C1774 C 0.23518 0.85242 0.29063 0.0
C1775 C 0.15762 0.4946 0.9547 0.0
C1776 C 0.13225 0.48875 0.93971 0.0
C1777 C 0.15698 0.50833 0.9813 0.0
C1778 C 0.13096 0.51664 0.99366 0.0
H1779 H 0.17813 0.48901 0.94566 0.0
H1780 H 0.17701 0.5139 0.99136 0.0
S1781 S 0.05844 0.5036 0.96506 0.0
N1782 N 0.08018 0.49063 0.94063 0.0
N1783 N 0.0793 0.5157 0.99064 0.0
C1784 C 0.10548 0.50933 0.97982 0.0
C1785 C 0.10603 0.49574 0.95277 0.0
C1786 C 0.77531 0.62974 0.2721 0.0
C1787 C 0.76688 0.61228 0.24903 0.0
C1788 C 0.76122 0.62886 0.29828 0.0
C1789 C 0.7381 0.61045 0.30271 0.0
H1790 H 0.79328 0.64413 0.27022 0.0
H1791 H 0.7685 0.64284 0.3152 0.0
S1792 S 0.70586 0.56194 0.24904 0.0
N1793 N 0.73288 0.57692 0.23214 0.0
N1794 N 0.70617 0.57539 0.28161 0.0
C1795 C 0.72908 0.59304 0.27993 0.0
C1796 C 0.74346 0.59399 0.25304 0.0
C1797 C 0.8721 0.96553 0.97634 0.0
C1798 C 0.85775 0.97795 -0.00032 0.0
C1799 C 0.87005 0.97696 0.94899 0.0
C1800 C 0.85325 0.00108 0.94366 0.0
H1801 H 0.88548 0.94693 0.97919 0.0
H1802 H 0.88228 0.9672 0.93195 0.0
S1803 S 0.81143 0.04206 -0.00303 0.0
N1804 N 0.82603 0.01592 0.0155 0.0
N1805 N 0.82214 0.03745 0.96371 0.0
C1806 C 0.83834 0.01359 0.96653 0.0
C1807 C 0.84069 0.0021 0.99465 0.0
C1808 C 0.22743 0.21881 0.12868 0.0
C1809 C 0.24857 0.22647 0.1088 0.0
C1810 C 0.1997 0.2295 0.12679 0.0
C1811 C 0.19171 0.24808 0.10472 0.0
H1812 H 0.23238 0.20441 0.14603 0.0
H1813 H 0.18447 0.22344 0.14307 0.0
S1814 S 0.2388 0.27425 0.04665 0.0
N1815 N 0.25957 0.25341 0.06596 0.0
N1816 N 0.20718 0.27347 0.06217 0.0
C1817 C 0.21245 0.25552 0.08426 0.0
C1818 C 0.24097 0.24488 0.08646 0.0
C1819 C 0.24609 0.74998 0.41031 0.0
C1820 C 0.26153 0.75595 0.38529 0.0
C1821 C 0.21845 0.7383 0.40895 0.0
C1822 C 0.20546 0.73246 0.3825 0.0
H1823 H 0.25467 0.756 0.43091 0.0
H1824 H 0.20682 0.73491 0.42861 0.0
S1825 S 0.23955 0.74036 0.31115 0.0
N1826 N 0.26347 0.75265 0.33384 0.0
N1827 N 0.21222 0.73024 0.33084 0.0
C1828 C 0.22177 0.73667 0.35748 0.0
C1829 C 0.24963 0.74854 0.35899 0.0
C1830 C 0.017 0.50607 0.88677 0.0
C1831 C 0.01349 0.48844 0.86272 0.0
C1832 C 0.00428 0.53305 0.88833 0.0
C1833 C 0.98798 0.54386 0.8656 0.0
H1834 H 0.02983 0.49895 0.90456 0.0
H1835 H 0.00732 0.54548 0.90756 0.0
S1836 S 0.97297 0.50616 0.79729 0.0
N1837 N 0.9928 0.48356 0.81554 0.0
N1838 N 0.96916 0.53442 0.81797 0.0
C1839 C 0.98441 0.52637 0.84125 0.0
C1840 C -0.00298 0.49863 0.83996 0.0
C1841 C 0.74851 0.74643 0.40868 0.0
C1842 C 0.73706 0.73181 0.3851 0.0
C1843 C 0.77623 0.75789 0.40772 0.0
C1844 C 0.79336 0.75515 0.38314 0.0
H1845 H 0.73645 0.7481 0.42831 0.0
H1846 H 0.78422 0.769 0.42634 0.0
S1847 S 0.77197 0.71997 0.31511 0.0
N1848 N 0.74407 0.71639 0.33618 0.0
N1849 N 0.79587 0.7373 0.33422 0.0
C1850 C 0.78163 0.74101 0.35924 0.0
C1851 C 0.75356 0.7296 0.36024 0.0
C1852 C 0.50314 0.49118 0.3707 0.0
C1853 C 0.47421 0.49344 0.36321 0.0
C1854 C 0.51717 0.46483 0.36975 0.0
C1855 C 0.50289 0.44004 0.36083 0.0
H1856 H 0.5148 0.50961 0.37833 0.0
H1857 H 0.53922 0.46369 0.37659 0.0
S1858 S 0.42808 0.4341 0.33715 0.0
N1859 N 0.43218 0.46807 0.34545 0.0
N1860 N 0.45933 0.41902 0.34303 0.0
C1861 C 0.47458 0.44195 0.35209 0.0
C1862 C 0.46004 0.46859 0.35341 0.0
C1863 C 0.29167 0.76452 0.62187 0.0
C1864 C 0.29642 0.74 0.60541 0.0
C1865 C 0.26451 0.7765 0.62407 0.0
C1866 C 0.24076 0.76427 0.61022 0.0
H1867 H 0.30906 0.7743 0.63354 0.0
H1868 H 0.26215 0.79547 0.63709 0.0
S1869 S 0.24187 0.69909 0.56523 0.0
N1870 N 0.27533 0.70333 0.57536 0.0
N1871 N 0.22396 0.72585 0.57957 0.0
C1872 C 0.24521 0.73962 0.59366 0.0
C1873 C 0.27312 0.72756 0.59114 0.0
C1874 C 0.01696 0.48413 0.60477 0.0
C1875 C 0.01239 0.5046 0.62624 0.0
C1876 C 0.00546 0.45677 0.60678 0.0
C1877 C 0.98931 0.44842 0.63055 0.0
H1878 H 0.02986 0.48921 0.58629 0.0
H1879 H 0.00924 0.44204 0.58944 0.0
S1880 S 0.97044 0.49426 0.69247 0.0
N1881 N 0.99008 0.515 0.6719 0.0
N1882 N 0.96848 0.46324 0.67583 0.0
C1883 C 0.98433 0.46873 0.65221 0.0
C1884 C -0.00424 0.49692 0.64995 0.0
C1885 C 0.9868 0.03977 0.6077 0.0
C1886 C 0.00218 0.04867 0.63182 0.0
C1887 C 0.97466 0.01266 0.60622 0.0
C1888 C 0.97778 0.99302 0.62859 0.0
H1889 H 0.98407 0.05388 0.5897 0.0
H1890 H 0.96238 0.00714 0.58743 0.0
S1891 S 0.01734 0.00492 0.69602 0.0
N1892 N 0.02082 0.03517 0.67838 0.0
N1893 N -0.00202 0.98387 0.67542 0.0
C1894 C 0.99368 0.00119 0.65264 0.0
C1895 C 0.00579 0.02913 0.65435 0.0
C1896 C 0.59213 0.70533 0.73637 0.0
C1897 C 0.60908 0.70122 0.76048 0.0
C1898 C 0.59488 0.73021 0.72017 0.0
C1899 C 0.61444 0.7519 0.7277 0.0
H1900 H 0.57824 0.68846 0.72885 0.0
H1901 H 0.58279 0.73156 0.70065 0.0
S1902 S 0.65956 0.75296 0.79264 0.0
N1903 N 0.64304 0.7219 0.79374 0.0
N1904 N 0.64796 0.76893 0.76351 0.0
C1905 C 0.62942 0.74905 0.75346 0.0
C1906 C 0.62684 0.72356 0.76976 0.0
C1907 C 0.96743 0.14972 0.47797 0.0
C1908 C 0.94408 0.1354 0.49018 0.0
C1909 C 0.99486 0.14741 0.48979 0.0
C1910 C -0.00025 0.13104 0.51445 0.0
H1911 H 0.96475 0.16173 0.45845 0.0
H1912 H 0.0123 0.15848 0.4795 0.0
S1913 S 0.94494 0.09094 0.55532 0.0
N1914 N 0.92718 0.10533 0.52862 0.0
N1915 N 0.97834 0.10124 0.55123 0.0
C1916 C 0.97623 0.11741 0.5273 0.0
C1917 C 0.9485 0.11954 0.51508 0.0
C1918 C 0.37187 0.76955 0.71234 0.0
C1919 C 0.38089 0.74455 0.72649 0.0
C1920 C 0.37401 0.79631 0.72514 0.0
C1921 C 0.38568 0.79934 0.75241 0.0
H1922 H 0.36259 0.76856 0.69121 0.0
H1923 H 0.36593 0.81476 0.71384 0.0
S1924 S 0.41155 0.7413 0.79935 0.0
N1925 N 0.40148 0.72484 0.76985 0.0
N1926 N 0.40565 0.77557 0.79386 0.0
C1927 C 0.39512 0.77485 0.76687 0.0
C1928 C 0.39264 0.74735 0.75394 0.0
C1929 C -0.00183 0.34211 0.49342 0.0
C1930 C 0.99251 0.36158 0.51562 0.0
C1931 C 0.02604 0.3379 0.48322 0.0
C1932 C 0.04909 0.35334 0.49462 0.0
H1933 H 0.98095 0.33016 0.48371 0.0
H1934 H 0.0293 0.3237 0.46526 0.0
S1935 S 0.0461 0.40593 0.55352 0.0
N1936 N 0.01272 0.39549 0.54939 0.0
N1937 N 0.06479 0.38794 0.52973 0.0
C1938 C 0.04387 0.3722 0.51727 0.0
C1939 C 0.01567 0.37624 0.52789 0.0
C1940 C 0.61834 0.26261 0.77685 0.0
C1941 C 0.60584 0.23904 0.76298 0.0
C1942 C 0.61658 0.29003 0.76548 0.0
C1943 C 0.60193 0.29525 0.73995 0.0
H1944 H 0.63028 0.25985 0.79643 0.0
H1945 H 0.62761 0.30721 0.77635 0.0
S1946 S 0.56457 0.24156 0.69546 0.0
N1947 N 0.57747 0.22306 0.7225 0.0
N1948 N 0.57417 0.27497 0.70116 0.0
C1949 C 0.58847 0.27224 0.7262 0.0
C1950 C 0.59052 0.24404 0.73764 0.0
C1951 C 0.52635 0.15086 0.50534 0.0
C1952 C 0.54602 0.12854 0.5009 0.0
C1953 C 0.49841 0.14929 0.49464 0.0
C1954 C 0.48925 0.12545 0.47892 0.0
H1955 H 0.53237 0.16951 0.51759 0.0
H1956 H 0.48423 0.16723 0.49793 0.0
S1957 S 0.53205 0.06117 0.4615 0.0
N1958 N 0.55401 0.08173 0.47977 0.0
N1959 N 0.50171 0.07892 0.45974 0.0
C1960 C 0.50859 0.10297 0.47446 0.0
C1961 C 0.5369 0.10449 0.48536 0.0
C1962 C 0.35549 0.23806 0.745 0.0
C1963 C 0.3696 0.24286 0.77092 0.0
C1964 C 0.35896 0.21233 0.7302 0.0
C1965 C 0.37664 0.19053 0.74085 0.0
H1966 H 0.34126 0.25407 0.73638 0.0
H1967 H 0.34746 0.20934 0.71038 0.0
S1968 S 0.41707 0.19178 0.80848 0.0
N1969 N 0.40099 0.22308 0.80723 0.0
N1970 N 0.40814 0.17512 0.77874 0.0
C1971 C 0.39135 0.1952 0.76636 0.0
C1972 C 0.38762 0.22128 0.78161 0.0
C1973 C 0.46719 0.34403 0.51434 0.0
C1974 C 0.444 0.35412 0.49829 0.0
C1975 C 0.4952 0.34654 0.50427 0.0
C1976 C 0.50108 0.35879 0.47753 0.0
H1977 H 0.46384 0.33561 0.53559 0.0
H1978 H 0.51238 0.33929 0.51787 0.0
S1979 S 0.44723 0.38547 0.42597 0.0
N1980 N 0.42827 0.375 0.45374 0.0
N1981 N 0.48086 0.37899 0.43418 0.0
C1982 C 0.47784 0.36752 0.46059 0.0
C1983 C 0.44932 0.36541 0.47115 0.0
C1984 C 0.73573 0.58815 0.73957 0.0
C1985 C 0.73037 0.61268 0.75606 0.0
C1986 C 0.74813 0.59017 0.71239 0.0
C1987 C 0.75599 0.61675 0.70086 0.0
H1988 H 0.72902 0.56738 0.74699 0.0
H1989 H 0.75103 0.5708 0.70011 0.0
S1990 S 0.75228 0.6865 0.73849 0.0
N1991 N 0.73737 0.66373 0.76074 0.0
N1992 N 0.76182 0.66752 0.7104 0.0
C1993 C 0.75282 0.64113 0.71822 0.0
C1994 C 0.73985 0.63907 0.74565 0.0
C1995 C 0.88279 0.01061 0.50393 0.0
C1996 C 0.85802 0.01275 0.48728 0.0
C1997 C 0.88212 -0.00134 0.53112 0.0
C1998 C 0.85656 0.98833 0.54305 0.0
H1999 H 0.90285 0.01907 0.49617 0.0
H2000 H 0.90196 -0.00221 0.54291 0.0
S2001 S 0.78559 0.98862 0.5079 0.0
N2002 N 0.80715 0.00331 0.48425 0.0
N2003 N 0.80574 0.98055 0.53561 0.0
C2004 C 0.83159 0.98982 0.52639 0.0
C2005 C 0.83237 0.00196 0.49842 0.0
C2006 C 0.25545 0.86095 0.70221 0.0
C2007 C 0.23735 0.88352 0.6946 0.0
C2008 C 0.26748 0.85946 0.72935 0.0
C2009 C 0.26184 0.88038 0.75016 0.0
H2010 H 0.2604 0.84417 0.68707 0.0
H2011 H 0.28169 0.84183 0.73394 0.0
S2012 S 0.21497 0.94344 0.74144 0.0
N2013 N 0.21356 0.92698 0.7103 0.0
N2014 N 0.23652 0.92419 0.76154 0.0
C2015 C 0.24342 0.90291 0.7431 0.0
C2016 C 0.23124 0.90456 0.71522 0.0
C2017 C 0.1071 0.49013 0.53253 0.0
C2018 C 0.13253 0.50202 0.54317 0.0
C2019 C 0.10595 0.47767 0.5055 0.0
C2020 C 0.13006 0.47671 0.48773 0.0
H2021 H 0.08781 0.4902 0.54526 0.0
H2022 H 0.08607 0.46803 0.49869 0.0
S2023 S 0.20189 0.50496 0.50502 0.0
N2024 N 0.18251 0.51231 0.5335 0.0
N2025 N 0.1802 0.48878 0.48246 0.0
C2026 C 0.15556 0.48893 0.49771 0.0
C2027 C 0.15686 0.50146 0.52552 0.0
C2028 C 0.74621 0.40793 0.77992 0.0
C2029 C 0.75421 0.38183 0.79239 0.0
C2030 C 0.73314 0.4088 0.75303 0.0
C2031 C 0.72726 0.38356 0.73789 0.0
H2032 H 0.74944 0.42782 0.79124 0.0
H2033 H 0.7261 0.42922 0.74494 0.0
S2034 S 0.74862 0.3103 0.7583 0.0
N2035 N 0.7588 0.33042 0.78532 0.0
N2036 N 0.73402 0.33233 0.73516 0.0
C2037 C 0.73716 0.35764 0.74902 0.0
C2038 C 0.75051 0.35667 0.77624 0.0
C2039 C 0.62655 0.02894 0.4772 0.0
C2040 C 0.63293 0.01302 0.50194 0.0
C2041 C 0.62848 0.01689 0.45001 0.0
C2042 C 0.63748 0.98869 0.44643 0.0
H2043 H 0.61931 0.05082 0.47873 0.0
H2044 H 0.62227 0.0295 0.4317 0.0
S2045 S 0.65614 0.93736 0.50341 0.0
N2046 N 0.64828 0.9671 0.52065 0.0
N2047 N 0.65233 0.94469 0.46919 0.0
C2048 C 0.64446 0.97255 0.47063 0.0
C2049 C 0.64207 0.98465 0.49849 0.0
C2050 C 0.26469 0.11883 0.7887 0.0
C2051 C 0.24051 0.1022 0.79444 0.0
C2052 C 0.27601 0.12048 0.76119 0.0
C2053 C 0.26334 0.10596 0.73808 0.0
H2054 H 0.27463 0.13116 0.80555 0.0
H2055 H 0.29467 0.1337 0.75798 0.0
S2056 S 0.19921 0.05977 0.74194 0.0
N2057 N 0.20404 0.07089 0.77502 0.0
N2058 N 0.22519 0.07416 0.72301 0.0
C2059 C 0.23917 0.08907 0.74356 0.0
C2060 C 0.22786 0.08706 0.77182 0.0
C2061 C 0.35072 0.50312 0.49138 0.0
C2062 C 0.36097 0.4751 0.49433 0.0
C2063 C 0.34641 0.51508 0.46436 0.0
C2064 C 0.35248 0.49951 0.43946 0.0
H2065 H 0.3465 0.51614 0.51001 0.0
H2066 H 0.33978 0.53717 0.46297 0.0
S2067 S 0.37726 0.42487 0.43491 0.0
N2068 N 0.37505 0.43145 0.46944 0.0
N2069 N 0.36751 0.45461 0.41892 0.0
C2070 C 0.36172 0.47132 0.44191 0.0
C2071 C 0.3658 0.45892 0.4693 0.0
C2072 C 0.74123 0.73349 0.58687 0.0
C2073 C 0.75104 0.71903 0.61121 0.0
C2074 C 0.71234 0.74017 0.58334 0.0
C2075 C 0.69218 0.73357 0.60456 0.0
H2076 H 0.75629 0.74092 0.571 0.0
H2077 H 0.70631 0.75285 0.56502 0.0
S2078 S 0.70641 0.69299 0.67086 0.0
N2079 N 0.73799 0.69578 0.65546 0.0
N2080 N 0.68362 0.70904 0.64938 0.0
C2081 C 0.70138 0.71732 0.62806 0.0
C2082 C 0.73085 0.70995 0.63131 0.0
C2083 C 0.70257 0.25594 0.85582 0.0
C2084 C 0.6937 0.24009 0.87964 0.0
C2085 C 0.73012 0.26724 0.85419 0.0
C2086 C 0.75016 0.26282 0.87608 0.0
H2087 H 0.68808 0.25971 0.83823 0.0
H2088 H 0.7357 0.27985 0.83566 0.0
S2089 S 0.73804 0.22234 0.94284 0.0
N2090 N 0.70744 0.22016 0.92557 0.0
N2091 N 0.75934 0.24141 0.92232 0.0
C2092 C 0.74182 0.2467 0.89988 0.0
C2093 C 0.71354 0.23546 0.90176 0.0
C2094 C 0.51899 0.01372 0.38418 0.0
C2095 C 0.51296 0.99198 0.36433 0.0
C2096 C 0.50738 0.04093 0.38139 0.0
C2097 C 0.48924 0.04769 0.3586 0.0
H2098 H 0.53318 0.00982 0.40199 0.0
H2099 H 0.51252 0.0568 0.39739 0.0
S2100 S 0.46576 -0.00149 0.30118 0.0
N2101 N 0.4872 0.979 0.32117 0.0
N2102 N 0.46493 0.03041 0.31615 0.0
C2103 C 0.48276 0.02626 0.33859 0.0
C2104 C 0.49456 -0.0017 0.34151 0.0
C2105 C 0.272 0.2137 0.86346 0.0
C2106 C 0.24713 0.22633 0.87495 0.0
C2107 C 0.29865 0.2268 0.86582 0.0
C2108 C 0.30166 0.25278 0.88021 0.0
H2109 H 0.27098 0.19347 0.85234 0.0
H2110 H 0.31702 0.21658 0.85619 0.0
S2111 S 0.24378 0.29579 0.91274 0.0
N2112 N 0.22746 0.26714 0.90034 0.0
N2113 N 0.27786 0.2916 0.90503 0.0
C2114 C 0.27722 0.26581 0.89177 0.0
C2115 C 0.24988 0.25267 0.88902 0.0
C2116 C 0.99039 0.95558 0.88224 0.0
C2117 C 0.00096 0.94406 0.85659 0.0
C2118 C 0.97886 0.98299 0.88339 0.0
C2119 C 0.97745 0.00029 0.859 0.0
H2120 H 0.99083 0.94327 0.90173 0.0
H2121 H 0.9702 0.9904 0.90351 0.0
S2122 S 0.00359 0.98113 0.78673 0.0
N2123 N 0.01041 0.95269 0.80628 0.0
N2124 N 0.98859 0.00445 0.8085 0.0
C2125 C 0.98874 0.98956 0.83331 0.0
C2126 C 0.00035 0.96135 0.83206 0.0
C2127 C 0.78962 0.26545 0.11777 0.0
C2128 C 0.79368 0.23808 0.10645 0.0
C2129 C 0.76256 0.27796 0.11834 0.0
C2130 C 0.73824 0.26334 0.10827 0.0
H2131 H 0.80747 0.27713 0.12667 0.0
H2132 H 0.76072 0.29916 0.12732 0.0
S2133 S 0.73772 0.19043 0.07726 0.0
N2134 N 0.77154 0.19641 0.08504 0.0
N2135 N 0.72035 0.21965 0.08659 0.0
C2136 C 0.7421 0.23587 0.09673 0.0
C2137 C 0.7699 0.22333 0.09567 0.0
C2138 C 0.50536 0.95298 0.1081 0.0
C2139 C 0.48898 0.9456 0.1321 0.0
C2140 C 0.51775 0.97985 0.10566 0.0
C2141 C 0.5143 0.00061 0.12703 0.0
H2142 H 0.50865 0.93788 0.09089 0.0
H2143 H 0.53064 0.98424 0.08698 0.0
S2144 S 0.47358 0.99225 0.19429 0.0
N2145 N 0.4698 0.96135 0.17776 0.0
N2146 N 0.49357 0.0121 0.17317 0.0
C2147 C 0.49786 0.99377 0.15112 0.0
C2148 C 0.48526 0.96615 0.15373 0.0
C2149 C 0.46 0.52069 0.12837 0.0
C2150 C 0.476 0.49521 0.13067 0.0
C2151 C 0.473 0.5475 0.12988 0.0
C2152 C 0.50236 0.54988 0.13441 0.0
H2153 H 0.43719 0.52008 0.12483 0.0
H2154 H 0.46008 0.56645 0.12716 0.0
S2155 S 0.55436 0.49076 0.14097 0.0
N2156 N 0.52326 0.47466 0.13707 0.0
N2157 N 0.54749 0.52528 0.14043 0.0
C2158 C 0.5187 0.52492 0.13708 0.0
C2159 C 0.50557 0.49752 0.13513 0.0
C2160 C 0.09983 0.99165 0.272 0.0
C2161 C 0.11292 0.01671 0.26229 0.0
C2162 C 0.10013 0.96687 0.25525 0.0
C2163 C 0.11358 0.96658 0.22848 0.0
H2164 H 0.08966 0.99114 0.29273 0.0
H2165 H 0.09035 0.94766 0.26351 0.0
S2166 S 0.14942 0.02712 0.19295 0.0
N2167 N 0.13832 0.04024 0.22373 0.0
N2168 N 0.13949 0.99332 0.19263 0.0
C2169 C 0.12636 0.99156 0.2184 0.0
C2170 C 0.12588 0.01678 0.23528 0.0
C2171 C 0.26127 0.60324 0.98865 0.0
C2172 C 0.27563 0.62844 0.98113 0.0
C2173 C 0.23449 0.60392 0.00173 0.0
C2174 C 0.21984 0.62971 0.00624 0.0
H2175 H 0.27058 0.58262 0.9842 0.0
H2176 H 0.2251 0.58384 0.00806 0.0
S2177 S 0.24793 0.702 0.9907 0.0
N2178 N 0.27415 0.68027 0.98184 0.0
N2179 N 0.2216 0.68128 0.00135 0.0
C2180 C 0.2337 0.65515 -0.00152 0.0
C2181 C 0.26196 0.65455 0.98693 0.0
C2182 C 0.85241 0.50564 0.23574 0.0
C2183 C 0.87776 0.52029 0.22925 0.0
C2184 C 0.85275 0.47907 0.24924 0.0
C2185 C 0.87845 0.46467 0.25496 0.0
H2186 H 0.83188 0.51475 0.23053 0.0
H2187 H 0.8325 0.46989 0.25524 0.0
S2188 S 0.95111 0.49286 0.24107 0.0
N2189 N 0.92957 0.51897 0.23164 0.0
N2190 N 0.93013 0.46651 0.25109 0.0
C2191 C 0.90404 0.4785 0.24753 0.0
C2192 C 0.90371 0.5067 0.23588 0.0
C2193 C 0.77124 0.87105 0.98277 0.0
C2194 C 0.7713 0.86149 0.01119 0.0
C2195 C 0.74584 0.87271 0.96721 0.0
C2196 C 0.71989 0.86476 0.97966 0.0
H2197 H 0.79093 0.87775 0.97272 0.0
H2198 H 0.7464 0.88059 0.94551 0.0
S2199 S 0.70856 0.83888 0.0533 0.0
N2200 N 0.74332 0.84435 0.05118 0.0
N2201 N 0.69542 0.84718 0.0217 0.0
C2202 C 0.71966 0.85486 0.00786 0.0
C2203 C 0.74549 0.85326 0.02373 0.0
C2204 C 0.25756 0.10372 0.97022 0.0
C2205 C 0.2288 0.11206 0.9693 0.0
C2206 C 0.27246 0.10311 -0.00388 0.0
C2207 C 0.25893 0.11096 0.02163 0.0
H2208 H 0.26865 0.09805 0.95074 0.0
H2209 H 0.29475 0.09701 -0.00384 0.0
S2210 S 0.18377 0.1336 0.03043 0.0
N2211 N 0.18722 0.12772 -0.00417 0.0
N2212 N 0.21523 0.1266 0.04465 0.0
C2213 C 0.23011 0.11898 0.02097 0.0
C2214 C 0.21499 0.11954 0.99468 0.0
C2215 C 0.36496 0.52944 0.24202 0.0
C2216 C 0.35808 0.51781 0.26862 0.0
C2217 C 0.36482 0.5123 0.21756 0.0
C2218 C 0.35785 0.48319 0.21924 0.0
H2219 H 0.37094 0.55167 0.24025 0.0
H2220 H 0.37061 0.52169 0.19727 0.0
S2221 S 0.3393 0.44278 0.28425 0.0
N2222 N 0.34468 0.47572 0.29556 0.0
N2223 N 0.34435 0.44346 0.24938 0.0
C2224 C 0.35071 0.47146 0.24567 0.0
C2225 C 0.35088 0.48885 0.27051 0.0
C2226 C 0.7713 0.36823 0.99295 0.0
C2227 C 0.75951 0.37826 0.96741 0.0
C2228 C 0.75537 0.36874 0.0182 0.0
C2229 C 0.72723 0.37915 0.01846 0.0
H2230 H 0.79284 0.35988 0.99333 0.0
H2231 H 0.76502 0.36085 0.03763 0.0
S2232 S 0.68651 0.40627 0.95667 0.0
N2233 N 0.71812 0.39801 0.94346 0.0
N2234 N 0.68803 0.39879 0.99106 0.0
C2235 C 0.71525 0.38908 0.99302 0.0
C2236 C 0.73147 0.38865 0.96739 0.0
C2237 C 0.62992 0.02641 0.24573 0.0
C2238 C 0.6291 0.01125 0.21994 0.0
C2239 C 0.62908 0.01194 0.27184 0.0
C2240 C 0.62758 0.98204 0.27268 0.0
H2241 H 0.63076 0.04949 0.24566 0.0
H2242 H 0.6294 0.02414 0.29148 0.0
S2243 S 0.62484 0.93294 0.21093 0.0
N2244 N 0.62663 0.96505 0.19663 0.0
N2245 N 0.62526 0.93784 0.24584 0.0
C2246 C 0.62698 0.96672 0.24706 0.0
C2247 C 0.62769 0.9814 0.22056 0.0
C2248 C 0.27021 0.89108 0.49465 0.0
C2249 C 0.25853 0.88011 0.46938 0.0
C2250 C 0.25425 0.89133 0.51991 0.0
C2251 C 0.22636 0.88044 0.52049 0.0
H2252 H 0.29196 0.89883 0.49502 0.0
H2253 H 0.264 0.89935 0.53927 0.0
S2254 S 0.18577 0.8508 0.45969 0.0
N2255 N 0.21702 0.85957 0.44603 0.0
N2256 N 0.18738 0.85932 0.49386 0.0
C2257 C 0.21428 0.86997 0.4953 0.0
C2258 C 0.23033 0.87001 0.46958 0.0
C2259 C 0.12187 0.46637 0.74151 0.0
C2260 C 0.12918 0.47904 0.76759 0.0
C2261 C 0.12132 0.48252 0.71644 0.0
C2262 C 0.12796 0.51175 0.71687 0.0
H2263 H 0.11643 0.44394 0.74057 0.0
H2264 H 0.11564 0.47215 0.69657 0.0
S2265 S 0.1467 0.55497 0.78024 0.0
N2266 N 0.14215 0.52239 0.79279 0.0
N2267 N 0.14097 0.55288 0.74553 0.0
C2268 C 0.13503 0.52466 0.74288 0.0
C2269 C 0.13566 0.50822 0.76835 0.0
C2270 C 0.75665 0.60517 0.47516 0.0
C2271 C 0.72714 0.61049 0.47509 0.0
C2272 C 0.77239 0.60628 0.5006 0.0
C2273 C 0.75906 0.61296 0.5266 0.0
H2274 H 0.76769 0.60096 0.4553 0.0
H2275 H 0.79519 0.60265 0.49986 0.0
S2276 S 0.68222 0.62766 0.53768 0.0
N2277 N 0.68514 0.62197 0.50301 0.0
N2278 N 0.71464 0.62392 0.55092 0.0
C2279 C 0.72949 0.61771 0.52681 0.0
C2280 C 0.71352 0.61652 0.50098 0.0
C2281 C 0.86575 0.0253 0.74527 0.0
C2282 C 0.86071 0.01085 0.77089 0.0
C2283 C 0.86516 0.01064 0.71925 0.0
C2284 C 0.85949 0.98122 0.71827 0.0
H2285 H 0.87083 0.04783 0.74544 0.0
H2286 H 0.86975 0.02221 0.69981 0.0
S2287 S 0.84441 0.93417 0.77968 0.0
N2288 N 0.84922 0.96604 0.79398 0.0
N2289 N 0.84841 0.93831 0.74492 0.0
C2290 C 0.8538 0.96674 0.74372 0.0
C2291 C 0.85435 0.98165 0.77016 0.0
C2292 C 0.99146 0.22022 0.11545 0.0
C2293 C 0.96581 0.2339 0.10871 0.0
C2294 C 0.0172 0.23524 0.11495 0.0
C2295 C 0.0179 0.26431 0.10774 0.0
H2296 H 0.9915 0.19805 0.12191 0.0
H2297 H 0.03664 0.22422 0.12083 0.0
S2298 S 0.95631 0.30933 0.08776 0.0
N2299 N 0.9424 0.27754 0.09377 0.0
N2300 N 0.99097 0.30605 0.09328 0.0
C2301 C 0.99245 0.278 0.10026 0.0
C2302 C 0.96627 0.26267 0.10064 0.0
C2303 C 0.98623 0.76103 0.35646 0.0
C2304 C 0.97098 0.76511 0.38195 0.0
C2305 C 0.01305 0.74823 0.35625 0.0
C2306 C 0.02726 0.74128 0.38168 0.0
H2307 H 0.97727 0.76732 0.33619 0.0
H2308 H 0.02232 0.74343 0.33573 0.0
S2309 S -0.00186 0.75042 0.45479 0.0
N2310 N 0.97183 0.76005 0.43356 0.0
N2311 N 0.02504 0.74251 0.43353 0.0
C2312 C 0.01311 0.74703 0.40757 0.0
C2313 C 0.9845 0.75765 0.40765 0.0
C2314 C 0.98006 0.76932 0.87248 0.0
C2315 C 0.00885 0.76949 0.86407 0.0
C2316 C 0.96446 0.74386 0.87313 0.0
C2317 C 0.97725 0.71798 0.86532 0.0
H2318 H 0.96963 0.78899 0.87868 0.0
H2319 H 0.9424 0.74434 0.88001 0.0
S2320 S 0.05222 0.70691 0.8432 0.0
N2321 N 0.04971 0.74163 0.84872 0.0
N2322 N 0.02026 0.69366 0.84987 0.0
C2323 C 0.00597 0.71785 0.85699 0.0
C2324 C 0.02184 0.74371 0.85636 0.0
C2325 C 0.51061 0.21777 0.36936 0.0
C2326 C 0.48097 0.21932 0.36514 0.0
C2327 C 0.52739 0.24248 0.36934 0.0
C2328 C 0.51486 0.26927 0.36514 0.0
H2329 H 0.52078 0.19733 0.37289 0.0
H2330 H 0.55013 0.2407 0.37299 0.0
S2331 S 0.43828 0.28466 0.35388 0.0
N2332 N 0.43982 0.24959 0.35699 0.0
N2333 N 0.47141 0.2962 0.35706 0.0
C2334 C 0.48533 0.27108 0.36084 0.0
C2335 C 0.4683 0.24598 0.36079 0.0
C2336 C 0.49558 0.71574 0.61115 0.0
C2337 C 0.46933 0.72947 0.60732 0.0
C2338 C 0.52108 0.73117 0.60971 0.0
C2339 C 0.52091 0.76065 0.60434 0.0
H2340 H 0.49632 0.69313 0.61579 0.0
H2341 H 0.54106 0.72013 0.61328 0.0
S2342 S 0.45752 0.80618 0.59321 0.0
N2343 N 0.4444 0.77387 0.59814 0.0
N2344 N 0.49256 0.80295 0.59537 0.0
C2345 C 0.49482 0.77451 0.60024 0.0
C2346 C 0.46889 0.75883 0.60177 0.0
C2347 C 0.00803 0.27278 0.61682 0.0
C2348 C 0.98004 0.27389 0.62755 0.0
C2349 C 0.02367 0.24733 0.61728 0.0
C2350 C 0.01178 0.22236 0.62859 0.0
H2351 H 0.01789 0.29174 0.6081 0.0
H2352 H 0.04512 0.24711 0.60867 0.0
S2353 S 0.93885 0.2137 0.65758 0.0
N2354 N 0.9407 0.2477 0.6486 0.0
N2355 N 0.97025 0.1998 0.64964 0.0
C2356 C 0.9838 0.22312 0.63916 0.0
C2357 C 0.96785 0.24896 0.63859 0.0
C2358 C 0.63987 0.48343 0.74123 0.0
C2359 C 0.61414 0.46958 0.73434 0.0
C2360 C 0.64024 0.51006 0.75476 0.0
C2361 C 0.615 0.52542 0.76003 0.0
H2362 H 0.66016 0.47381 0.73613 0.0
H2363 H 0.66069 0.51848 0.76117 0.0
S2364 S 0.54164 0.49984 0.74455 0.0
N2365 N 0.56239 0.47279 0.73591 0.0
N2366 N 0.56339 0.52552 0.75473 0.0
C2367 C 0.58909 0.5125 0.75196 0.0
C2368 C 0.5886 0.48415 0.74054 0.0
C2369 C 0.72018 0.12953 0.48137 0.0
C2370 C 0.72 0.13272 0.51118 0.0
C2371 C 0.74586 0.12994 0.46604 0.0
C2372 C 0.77197 0.13348 0.48019 0.0
H2373 H 0.70037 0.12619 0.46995 0.0
H2374 H 0.74539 0.12669 0.44316 0.0
S2375 S 0.78283 0.14233 0.55788 0.0
N2376 N 0.74789 0.13951 0.55421 0.0
N2377 N 0.79628 0.14016 0.52538 0.0
C2378 C 0.772 0.13706 0.50989 0.0
C2379 C 0.74591 0.13671 0.52545 0.0
C2380 C 0.37461 -0.00294 0.77539 0.0
C2381 C 0.38022 0.9702 0.76352 0.0
C2382 C 0.37451 0.02143 0.7582 0.0
C2383 C 0.37996 0.01945 0.72878 0.0
H2384 H 0.36964 -0.0009 0.79786 0.0
H2385 H 0.36977 0.04191 0.76783 0.0
S2386 S 0.39499 0.95376 0.6877 0.0
N2387 N 0.39091 0.94275 0.7209 0.0
N2388 N 0.39077 0.98874 0.68851 0.0
C2389 C 0.3858 0.99275 0.71677 0.0
C2390 C 0.3859 0.968 0.73423 0.0
C2391 C 0.2718 0.36622 0.48405 0.0
C2392 C 0.27162 0.36125 0.51362 0.0
C2393 C 0.24647 0.36578 0.46827 0.0
C2394 C 0.22038 0.36022 0.48169 0.0
H2395 H 0.29163 0.37088 0.47315 0.0
H2396 H 0.2472 0.37028 0.44563 0.0
S2397 S 0.20843 0.34613 0.55838 0.0
N2398 N 0.24325 0.35085 0.55565 0.0
N2399 N 0.19552 0.34964 0.5258 0.0
C2400 C 0.21992 0.35485 0.51108 0.0
C2401 C 0.24565 0.35542 0.52716 0.0
C2402 C 0.4957 0.22259 0.88884 0.0
C2403 C 0.52237 0.23397 0.88163 0.0
C2404 C 0.47158 0.24015 0.8901 0.0
C2405 C 0.47363 0.26947 0.88429 0.0
H2406 H 0.49342 0.19998 0.8929 0.0
H2407 H 0.45104 0.23066 0.89478 0.0
S2408 S 0.53899 0.3095 0.86587 0.0
N2409 N 0.54984 0.27623 0.86982 0.0
N2410 N 0.50427 0.30923 0.87197 0.0
C2411 C 0.50027 0.28114 0.87771 0.0
C2412 C 0.52477 0.26333 0.87645 0.0
C2413 C 0.48335 0.72174 0.13288 0.0
C2414 C 0.51332 0.72252 0.13368 0.0
C2415 C 0.46733 0.74698 0.13262 0.0
C2416 C 0.48094 0.7736 0.133 0.0
H2417 H 0.47231 0.70147 0.13182 0.0
H2418 H 0.4443 0.74572 0.13142 0.0
S2419 S 0.5587 0.78699 0.13487 0.0
N2420 N 0.55588 0.75186 0.13487 0.0
N2421 N 0.52574 0.79944 0.13429 0.0
C2422 C 0.51081 0.77463 0.13414 0.0
C2423 C 0.52707 0.74899 0.13451 0.0
C2424 C 0.15019 0.17554 0.38342 0.0
C2425 C 0.12402 0.1679 0.37065 0.0
C2426 C 0.15272 0.20045 0.39994 0.0
C2427 C 0.12935 0.21876 0.40374 0.0
H2428 H 0.16908 0.1627 0.37995 0.0
H2429 H 0.17323 0.20583 0.40912 0.0
S2430 S 0.05584 0.2082 0.37718 0.0
N2431 N 0.07373 0.18042 0.36503 0.0
N2432 N 0.07913 0.22724 0.3954 0.0
C2433 C 0.10302 0.21113 0.39204 0.0
C2434 C 0.10017 0.18567 0.37573 0.0
C2435 C 0.44639 0.58782 0.87548 0.0
C2436 C 0.42287 0.60528 0.86862 0.0
C2437 C 0.47142 0.58839 0.8592 0.0
C2438 C 0.47373 0.60611 0.83525 0.0
H2439 H 0.44637 0.57513 0.89475 0.0
H2440 H 0.48943 0.57562 0.86597 0.0
S2441 S 0.41696 0.65227 0.80538 0.0
N2442 N 0.4025 0.63822 0.83424 0.0
N2443 N 0.44946 0.63884 0.80332 0.0
C2444 C 0.44964 0.62171 0.82665 0.0
C2445 C 0.42424 0.62143 0.84343 0.0
C2446 C 0.8386 0.30017 0.36729 0.0
C2447 C 0.85744 0.32307 0.37243 0.0
C2448 C 0.83995 0.27506 0.38342 0.0
C2449 C 0.85988 0.27206 0.40554 0.0
H2450 H 0.82415 0.30066 0.34928 0.0
H2451 H 0.82581 0.25763 0.37801 0.0
S2452 S 0.91075 0.32724 0.43065 0.0
N2453 N 0.89429 0.34221 0.40339 0.0
N2454 N 0.89653 0.29522 0.434 0.0
C2455 C 0.87707 0.29563 0.41253 0.0
C2456 C 0.87593 0.32108 0.39591 0.0
C2457 C 0.52145 0.89811 0.8632 0.0
C2458 C 0.51909 0.88044 0.83916 0.0
C2459 C 0.54649 0.89864 0.87937 0.0
C2460 C 0.56998 0.88123 0.87229 0.0
H2461 H 0.50366 0.91125 0.86989 0.0
H2462 H 0.54672 0.91156 0.89855 0.0
S2463 S 0.57582 0.83405 0.80915 0.0
N2464 N 0.54332 0.84751 0.80713 0.0
N2465 N 0.59025 0.84798 0.83813 0.0
C2466 C 0.56848 0.86473 0.84737 0.0
C2467 C 0.54309 0.86455 0.8306 0.0
C2468 C 0.11573 0.81579 0.09618 0.0
C2469 C 0.13531 0.81885 0.11869 0.0
C2470 C 0.11566 0.79128 0.07903 0.0
C2471 C 0.13463 0.76871 0.0843 0.0
H2472 H 0.0996 0.83192 0.09256 0.0
H2473 H 0.09973 0.78938 0.06241 0.0
S2474 S 0.19153 0.76669 0.1389 0.0
N2475 N 0.17563 0.79772 0.14388 0.0
N2476 N 0.17486 0.75156 0.11182 0.0
C2477 C 0.15515 0.77191 0.10573 0.0
C2478 C 0.15569 0.79706 0.12285 0.0
C2479 C 0.03907 0.62092 0.15032 0.0
C2480 C 0.01483 0.60556 0.14166 0.0
C2481 C 0.06325 0.62273 0.13276 0.0
C2482 C 0.06424 0.60857 0.1063 0.0
H2483 H 0.03887 0.63266 0.17024 0.0
H2484 H 0.0809 0.636 0.13952 0.0
S2485 S 0.00698 0.56288 0.07567 0.0
N2486 N 0.99387 0.57411 0.10636 0.0
N2487 N 0.03914 0.57698 0.07333 0.0
C2488 C 0.04059 0.59166 0.09832 0.0
C2489 C 0.0159 0.5903 0.11601 0.0
C2490 C 0.87573 0.698 0.08154 0.0
C2491 C 0.85907 0.72213 0.08788 0.0
C2492 C 0.8745 0.67349 0.09854 0.0
C2493 C 0.85617 0.67197 0.12226 0.0
H2494 H 0.89093 0.69857 0.06414 0.0
H2495 H 0.88904 0.65614 0.0939 0.0
S2496 S 0.80458 0.72786 0.14486 0.0
N2497 N 0.82095 0.74173 0.11698 0.0
N2498 N 0.8187 0.69593 0.14929 0.0
C2499 C 0.83769 0.69519 0.1274 0.0
C2500 C 0.83918 0.72024 0.11016 0.0
C2501 C 0.92436 0.86442 0.14168 0.0
C2502 C 0.92208 0.88171 0.1174 0.0
C2503 C 0.94962 0.86377 0.15765 0.0
C2504 C 0.97368 0.87961 0.14925 0.0
H2505 H 0.90684 0.85067 0.1478 0.0
H2506 H 0.95074 0.84983 0.17601 0.0
S2507 S 0.97839 0.92888 0.0878 0.0
N2508 N 0.94577 0.91577 0.0862 0.0
N2509 N 0.99314 0.91437 0.11625 0.0
C2510 C 0.97138 0.89768 0.1256 0.0
C2511 C 0.94558 0.89875 0.10964 0.0
C2512 C 0.40242 0.14852 0.20123 0.0
C2513 C 0.39749 0.13067 0.22484 0.0
C2514 C 0.38557 0.14639 0.17646 0.0
C2515 C 0.36399 0.12568 0.17433 0.0
H2516 H 0.41926 0.16431 0.20202 0.0
H2517 H 0.38954 0.16084 0.15892 0.0
S2518 S 0.34286 0.0739 0.23057 0.0
N2519 N 0.3699 0.09158 0.24441 0.0
N2520 N 0.33806 0.08773 0.19866 0.0
C2521 C 0.35903 0.10777 0.19798 0.0
C2522 C 0.37587 0.11018 0.22303 0.0
C2523 C 0.40036 0.37625 0.04986 0.0
C2524 C 0.38111 0.37151 0.07244 0.0
C2525 C 0.39893 0.36015 0.02467 0.0
C2526 C 0.37846 0.33853 0.02136 0.0
H2527 H 0.41534 0.39381 0.05078 0.0
H2528 H 0.41354 0.36508 0.0075 0.0
S2529 S 0.32589 0.31512 0.07566 0.0
N2530 N 0.34287 0.34196 0.09091 0.0
N2531 N 0.34056 0.31123 0.04387 0.0
C2532 C 0.3606 0.33214 0.0446 0.0
C2533 C 0.3618 0.34878 0.07006 0.0
C2534 C 0.60464 0.38688 0.2166 0.0
C2535 C 0.58972 0.36188 0.22312 0.0
C2536 C 0.62006 0.3893 0.19122 0.0
C2537 C 0.62173 0.36652 0.17157 0.0
H2538 H 0.60443 0.40474 0.23129 0.0
H2539 H 0.63183 0.40885 0.18774 0.0
S2540 S 0.58525 0.29667 0.17866 0.0
N2541 N 0.57609 0.31435 0.20777 0.0
N2542 N 0.60609 0.31831 0.16027 0.0
C2543 C 0.6063 0.34151 0.17766 0.0
C2544 C 0.59004 0.33934 0.20338 0.0
C2545 C 0.63918 0.11136 0.04311 0.0
C2546 C 0.61874 0.11201 0.06511 0.0
C2547 C 0.63695 0.12919 0.01943 0.0
C2548 C 0.6145 0.14875 0.01702 0.0
H2549 H 0.65666 0.09625 0.04367 0.0
H2550 H 0.6531 0.1278 0.00295 0.0
S2551 S 0.55591 0.15987 0.06888 0.0
N2552 N 0.5753 0.13405 0.08299 0.0
N2553 N 0.57181 0.1686 0.03867 0.0
C2554 C 0.59423 0.15026 0.03903 0.0
C2555 C 0.59611 0.13155 0.06299 0.0
C2556 C 0.39195 0.88225 0.31782 0.0
C2557 C 0.37282 0.85975 0.32307 0.0
C2558 C 0.40827 0.88308 0.2928 0.0
C2559 C 0.40564 0.86176 0.27188 0.0
H2560 H 0.39337 0.90002 0.33255 0.0
H2561 H 0.42208 0.90124 0.28921 0.0
S2562 S 0.36145 0.79651 0.27644 0.0
N2563 N 0.35426 0.81419 0.30607 0.0
N2564 N 0.38514 0.81599 0.25919 0.0
C2565 C 0.388 0.83832 0.27746 0.0
C2566 C 0.37161 0.83721 0.30309 0.0
C2567 C 0.09072 0.36759 0.93412 0.0
C2568 C 0.11634 0.37057 0.91852 0.0
C2569 C 0.0899 0.35236 0.95987 0.0
C2570 C 0.11457 0.33943 0.97071 0.0
H2571 H 0.07143 0.3782 0.92717 0.0
H2572 H 0.06999 0.35091 0.9715 0.0
S2573 S 0.18634 0.33907 0.93809 0.0
N2574 N 0.16663 0.35775 0.91577 0.0
N2575 N 0.1647 0.32922 0.96401 0.0
C2576 C 0.13989 0.34119 0.95506 0.0
C2577 C 0.14086 0.35667 0.92897 0.0
C2578 C 0.61068 0.6491 0.2755 0.0
C2579 C 0.58623 0.63195 0.27329 0.0
C2580 C 0.62644 0.6503 0.30089 0.0
C2581 C 0.61849 0.63417 0.32495 0.0
H2582 H 0.61805 0.6613 0.25737 0.0
H2583 H 0.64603 0.66254 0.30099 0.0
S2584 S 0.55398 0.58916 0.3315 0.0
N2585 N 0.55291 0.60115 0.29843 0.0
N2586 N 0.58307 0.60289 0.34586 0.0
C2587 C 0.59314 0.61838 0.32359 0.0
C2588 C 0.57682 0.61749 0.29787 0.0
C2589 C 0.8584 0.12863 0.97069 0.0
C2590 C 0.88064 0.14798 0.97543 0.0
C2591 C 0.85657 0.11337 0.94523 0.0
C2592 C 0.87711 0.1165 0.92353 0.0
H2593 H 0.84195 0.12555 0.98662 0.0
H2594 H 0.83919 0.09832 0.94288 0.0
S2595 S 0.93983 0.1644 0.92565 0.0
N2596 N 0.92355 0.17001 0.95644 0.0
N2597 N 0.92073 0.1401 0.90864 0.0
C2598 C 0.89972 0.13558 0.92803 0.0
C2599 C 0.90123 0.15174 0.95391 0.0
C2600 C 0.19737 0.40594 0.14125 0.0
C2601 C 0.22426 0.39359 0.13538 0.0
C2602 C 0.17225 0.3896 0.14085 0.0
C2603 C 0.17343 0.36038 0.13488 0.0
H2604 H 0.19561 0.42868 0.14496 0.0
H2605 H 0.15188 0.39999 0.14416 0.0
S2606 S 0.2377 0.31729 0.11893 0.0
N2607 N 0.24976 0.35002 0.12322 0.0
N2608 N 0.20303 0.31926 0.12453 0.0
C2609 C 0.20008 0.3475 0.13047 0.0
C2610 C 0.22545 0.36409 0.13024 0.0
C2611 C 0.19215 0.62943 0.38246 0.0
C2612 C 0.1699 0.62494 0.3628 0.0
C2613 C 0.21775 0.61455 0.38045 0.0
C2614 C 0.22201 0.59433 0.3589 0.0
H2615 H 0.19005 0.64521 0.39926 0.0
H2616 H 0.23406 0.6185 0.39632 0.0
S2617 S 0.17087 0.57472 0.30187 0.0
N2618 N 0.15406 0.59952 0.32054 0.0
N2619 N 0.20218 0.57023 0.31744 0.0
C2620 C 0.20001 0.58937 0.3391 0.0
C2621 C 0.17398 0.60513 0.34077 0.0
C2622 C 0.87449 0.54588 0.89849 0.0
C2623 C 0.86818 0.56992 0.88166 0.0
C2624 C 0.85746 0.52143 0.89744 0.0
C2625 C 0.83338 0.52022 0.87974 0.0
H2626 H 0.89372 0.54521 0.91127 0.0
H2627 H 0.86359 0.50314 0.91011 0.0
S2628 S 0.80517 0.57899 0.83502 0.0
N2629 N 0.83466 0.59211 0.84915 0.0
N2630 N 0.8021 0.54627 0.84762 0.0
C2631 C 0.82558 0.54486 0.86453 0.0
C2632 C 0.84319 0.56965 0.86527 0.0
C2633 C 0.81563 0.89034 0.34253 0.0
C2634 C 0.81765 0.86666 0.36065 0.0
C2635 C 0.79012 0.90612 0.34108 0.0
C2636 C 0.76591 0.89805 0.35701 0.0
H2637 H 0.83388 0.897 0.33006 0.0
H2638 H 0.78937 0.92489 0.32768 0.0
S2639 S 0.7605 0.83664 0.40641 0.0
N2640 N 0.79323 0.83508 0.39366 0.0
N2641 N 0.74593 0.86484 0.39135 0.0
C2642 C 0.7677 0.87396 0.37454 0.0
C2643 C 0.79344 0.85819 0.37617 0.0
C2644 C 0.63265 0.46727 0.39983 0.0
C2645 C 0.65427 0.47167 0.37964 0.0
C2646 C 0.61717 0.44174 0.40034 0.0
C2647 C 0.62248 0.41984 0.38036 0.0
H2648 H 0.6273 0.48384 0.41504 0.0
H2649 H 0.59974 0.43995 0.41539 0.0
S2650 S 0.67891 0.41986 0.32505 0.0
N2651 N 0.68204 0.4512 0.34087 0.0
N2652 N 0.65242 0.40342 0.34141 0.0
C2653 C 0.64504 0.42345 0.36104 0.0
C2654 C 0.66111 0.44929 0.36082 0.0
C2655 C 0.31887 0.59795 0.61544 0.0
C2656 C 0.32002 0.62258 0.63253 0.0
C2657 C 0.29439 0.5808 0.61482 0.0
C2658 C 0.26998 0.5881 0.63067 0.0
H2659 H 0.33656 0.59258 0.60157 0.0
H2660 H 0.29409 0.56247 0.60073 0.0
S2661 S 0.2627 0.649 0.6806 0.0
N2662 N 0.29505 0.65236 0.66714 0.0
N2663 N 0.24931 0.61987 0.66603 0.0
C2664 C 0.27134 0.61172 0.64901 0.0
C2665 C 0.29632 0.62902 0.64993 0.0
C2666 C 0.85709 0.43378 0.64153 0.0
C2667 C 0.86901 0.42309 0.61598 0.0
C2668 C 0.84021 0.45845 0.64185 0.0
C2669 C 0.83451 0.47348 0.61671 0.0
H2670 H 0.86188 0.42383 0.66178 0.0
H2671 H 0.83234 0.46638 0.66209 0.0
S2672 S 0.85685 0.45328 0.54369 0.0
N2673 N 0.87111 0.42854 0.56427 0.0
N2674 N 0.83944 0.47505 0.56529 0.0
C2675 C 0.84471 0.46247 0.59083 0.0
C2676 C 0.86183 0.43718 0.59035 0.0
C2677 C 0.13325 0.02472 0.63512 0.0
C2678 C 0.15151 0.01984 0.61203 0.0
C2679 C 0.11769 0.04995 0.63724 0.0
C2680 C 0.11932 0.07119 0.61605 0.0
H2681 H 0.13109 0.00898 0.65186 0.0
H2682 H 0.10334 0.05219 0.65522 0.0
S2683 S 0.16476 0.06859 0.55139 0.0
N2684 N 0.17151 0.03825 0.56797 0.0
N2685 N 0.14106 0.0856 0.57124 0.0
C2686 C 0.13773 0.06662 0.59282 0.0
C2687 C 0.1542 0.041 0.59104 0.0
C2688 C 0.60384 0.69262 0.87599 0.0
C2689 C 0.6274 0.67389 0.87455 0.0
C2690 C 0.60495 0.718 0.89157 0.0
C2691 C 0.62937 0.72555 0.90695 0.0
H2692 H 0.58464 0.6884 0.86387 0.0
H2693 H 0.5865 0.73194 0.89148 0.0
S2694 S 0.69639 0.68397 0.91182 0.0
N2695 N 0.67589 0.66478 0.89047 0.0
N2696 N 0.67736 0.7122 0.92106 0.0
C2697 C 0.65279 0.70682 0.90672 0.0
C2698 C 0.65198 0.68112 0.89015 0.0
C2699 C 0.94201 0.09056 0.37394 0.0
C2700 C 0.91916 0.10941 0.36884 0.0
C2701 C 0.96641 0.09064 0.35662 0.0
C2702 C 0.96881 0.10939 0.33341 0.0
H2703 H 0.94192 0.07687 0.39251 0.0
H2704 H 0.9837 0.07629 0.36184 0.0
S2705 S 0.91307 0.15965 0.30827 0.0
N2706 N 0.89917 0.14495 0.33706 0.0
N2707 N 0.9448 0.14489 0.30423 0.0
C2708 C 0.94518 0.12669 0.32674 0.0
C2709 C 0.92047 0.12682 0.34456 0.0
C2710 C 0.37028 0.81516 0.89301 0.0
C2711 C 0.35623 0.81737 0.86667 0.0
C2712 C 0.37005 0.78949 0.90831 0.0
C2713 C 0.35662 0.76504 0.89724 0.0
H2714 H 0.38217 0.83311 0.90141 0.0
H2715 H 0.38148 0.78842 0.92835 0.0
S2716 S 0.31643 0.75964 0.82952 0.0
N2717 N 0.3279 0.79288 0.83052 0.0
N2718 N 0.32775 0.74484 0.85934 0.0
C2719 C 0.34185 0.76713 0.8714 0.0
C2720 C 0.34161 0.79327 0.85608 0.0
C2721 C 0.06024 0.39864 0.36263 0.0
C2722 C 0.06878 0.37206 0.37377 0.0
C2723 C 0.03511 0.40132 0.3465 0.0
C2724 C 0.01745 0.37764 0.34157 0.0
H2725 H 0.07252 0.41767 0.3672 0.0
H2726 H 0.02894 0.42216 0.33871 0.0
S2727 S 0.0306 0.30311 0.36362 0.0
N2728 N 0.05779 0.32122 0.37665 0.0
N2729 N 0.01081 0.32674 0.34676 0.0
C2730 C 0.02615 0.35091 0.35138 0.0
C2731 C 0.05179 0.34798 0.36734 0.0
C2732 C 0.60444 0.29836 0.62529 0.0
C2733 C 0.62609 0.3191 0.62363 0.0
C2734 C 0.6055 0.27349 0.60899 0.0
C2735 C 0.62799 0.26856 0.58997 0.0
H2736 H 0.58679 0.30098 0.64001 0.0
H2737 H 0.58836 0.25813 0.61105 0.0
S2738 S 0.69002 0.31586 0.57737 0.0
N2739 N 0.67107 0.33276 0.60189 0.0
N2740 N 0.67239 0.28623 0.56992 0.0
C2741 C 0.64969 0.28913 0.58768 0.0
C2742 C 0.64899 0.31431 0.60496 0.0
C2743 C 0.56785 0.12975 0.64298 0.0
C2744 C 0.57011 0.11136 0.61941 0.0
C2745 C 0.54333 0.1298 0.66018 0.0
C2746 C 0.51991 0.11215 0.65382 0.0
H2747 H 0.58476 0.14479 0.64763 0.0
H2748 H 0.54221 0.14465 0.67788 0.0
S2749 S 0.51543 0.05938 0.59507 0.0
N2750 N 0.54706 0.07429 0.59116 0.0
N2751 N 0.50117 0.07453 0.62351 0.0
C2752 C 0.52226 0.09298 0.63093 0.0
C2753 C 0.54732 0.09257 0.61371 0.0
C2754 C 0.38808 0.19129 0.62257 0.0
C2755 C 0.36572 0.17113 0.62231 0.0
C2756 C 0.38623 0.21673 0.60737 0.0
C2757 C 0.36227 0.2229 0.59076 0.0
H2758 H 0.4069 0.18808 0.63556 0.0
H2759 H 0.40384 0.23165 0.60851 0.0
S2760 S 0.29846 0.17736 0.58114 0.0
N2761 N 0.31893 0.15915 0.60327 0.0
N2762 N 0.31613 0.20688 0.5736 0.0
C2763 C 0.34012 0.2028 0.58929 0.0
C2764 C 0.34167 0.17696 0.60535 0.0
C2765 C 0.47222 0.39963 0.62626 0.0
C2766 C 0.47312 0.38523 0.65242 0.0
C2767 C 0.44778 0.3988 0.60917 0.0
C2768 C 0.42348 0.38318 0.61744 0.0
H2769 H 0.49078 0.41105 0.61862 0.0
H2770 H 0.44859 0.40911 0.58853 0.0
S2771 S 0.414 0.34469 0.68566 0.0
N2772 N 0.4468 0.35744 0.68731 0.0
N2773 N 0.40103 0.35507 0.65461 0.0
C2774 C 0.42362 0.3699 0.64422 0.0
C2775 C 0.44837 0.37124 0.66193 0.0
C2776 C 0.87095 0.64817 0.69522 0.0
C2777 C 0.87461 0.62825 0.67293 0.0
C2778 C 0.88752 0.64694 0.72009 0.0
C2779 C 0.90858 0.62593 0.72357 0.0
H2780 H 0.8539 0.66374 0.69437 0.0
H2781 H 0.88326 0.66209 0.73703 0.0
S2782 S 0.92997 0.57185 0.66979 0.0
N2783 N 0.90322 0.58906 0.6547 0.0
N2784 N 0.93463 0.58699 0.70128 0.0
C2785 C 0.9141 0.60743 0.70056 0.0
C2786 C 0.89701 0.60847 0.67532 0.0
C2787 C 0.86565 0.84944 0.56696 0.0
C2788 C 0.88392 0.87305 0.56957 0.0
C2789 C 0.8653 0.83292 0.54198 0.0
C2790 C 0.88252 0.84007 0.5185 0.0
H2791 H 0.85073 0.84441 0.58387 0.0
H2792 H 0.85045 0.81529 0.54049 0.0
S2793 S 0.93518 0.89875 0.51487 0.0
N2794 N 0.92083 0.90174 0.54689 0.0
N2795 N 0.91972 0.87083 0.49998 0.0
C2796 C 0.90171 0.86279 0.52121 0.0
C2797 C 0.90254 0.87925 0.54678 0.0
C2798 C 0.11893 0.8387 0.68791 0.0
C2799 C 0.11741 0.86148 0.66834 0.0
C2800 C 0.10191 0.83826 0.71253 0.0
C2801 C 0.08258 0.86037 0.71826 0.0
H2802 H 0.13453 0.82189 0.68515 0.0
H2803 H 0.10422 0.82074 0.72736 0.0
S2804 S 0.06796 0.92312 0.67264 0.0
N2805 N 0.09315 0.90543 0.65548 0.0
N2806 N 0.06111 0.9044 0.70162 0.0
C2807 C 0.07954 0.88229 0.69815 0.0
C2808 C 0.09698 0.8829 0.67322 0.0
C2809 C 0.13797 0.6427 0.52593 0.0
C2810 C 0.11226 0.65535 0.51763 0.0
C2811 C 0.13971 0.62657 0.55084 0.0
C2812 C 0.1156 0.62195 0.56828 0.0
H2813 H 0.15685 0.64493 0.51278 0.0
H2814 H 0.1599 0.6164 0.55546 0.0
S2815 S 0.04359 0.65272 0.55654 0.0
N2816 N 0.06266 0.66437 0.52931 0.0
N2817 N 0.06546 0.63318 0.57604 0.0
C2818 C 0.08992 0.63559 0.56071 0.0
C2819 C 0.08837 0.65251 0.53541 0.0
C2820 C 0.88358 0.38397 0.77214 0.0
C2821 C 0.90315 0.36182 0.76811 0.0
C2822 C 0.86706 0.38548 0.79677 0.0
C2823 C 0.86902 0.36462 0.8183 0.0
H2824 H 0.88121 0.40051 0.75622 0.0
H2825 H 0.85188 0.40282 0.79838 0.0
S2826 S 0.9173 0.30203 0.81765 0.0
N2827 N 0.92438 0.31875 0.78746 0.0
N2828 N 0.89214 0.32086 0.83371 0.0
C2829 C 0.88852 0.34216 0.81449 0.0
C2830 C 0.90596 0.34101 0.78945 0.0
C2831 C 0.59292 0.87176 0.44172 0.0
C2832 C 0.6116 0.869 0.4183 0.0
C2833 C 0.59461 0.85326 0.46519 0.0
C2834 C 0.61487 0.83118 0.46601 0.0
H2835 H 0.57799 0.88937 0.44277 0.0
H2836 H 0.58023 0.85659 0.48294 0.0
S2837 S 0.66647 0.8128 0.40882 0.0
N2838 N 0.64925 0.84088 0.39646 0.0
N2839 N 0.6524 0.80616 0.44039 0.0
C2840 C 0.63241 0.82709 0.442 0.0
C2841 C 0.63081 0.84599 0.41823 0.0
C2842 C 0.12553 0.1516 0.79876 0.0
C2843 C 0.12149 0.1319 0.82108 0.0
C2844 C 0.10808 0.1513 0.77447 0.0
C2845 C 0.08574 0.13155 0.77176 0.0
H2846 H 0.14345 0.16617 0.79911 0.0
H2847 H 0.11253 0.16623 0.75746 0.0
S2848 S 0.06371 0.07814 0.82569 0.0
N2849 N 0.09166 0.09407 0.84002 0.0
N2850 N 0.05871 0.09369 0.79454 0.0
C2851 C 0.08014 0.11319 0.79476 0.0
C2852 C 0.09807 0.1133 0.81936 0.0
C2853 C 0.39983 0.61155 0.44399 0.0
C2854 C 0.38343 0.61873 0.41989 0.0
C2855 C 0.39899 0.62827 0.46877 0.0
C2856 C 0.38194 0.65286 0.47021 0.0
H2857 H 0.41188 0.59184 0.44445 0.0
H2858 H 0.41123 0.62148 0.48711 0.0
S2859 S 0.33882 0.68329 0.41129 0.0
N2860 N 0.3523 0.65362 0.39786 0.0
N2861 N 0.35113 0.68549 0.44421 0.0
C2862 C 0.36738 0.66153 0.44545 0.0
C2863 C 0.36795 0.6443 0.42037 0.0
C2864 C 0.72237 0.87444 0.60287 0.0
C2865 C 0.7258 0.8925 0.62641 0.0
C2866 C 0.6986 0.85671 0.60055 0.0
C2867 C 0.6775 0.85593 0.62196 0.0
H2868 H 0.73806 0.87424 0.5859 0.0
H2869 H 0.69727 0.84286 0.58208 0.0
S2870 S 0.67681 0.89958 0.68801 0.0
N2871 N 0.70625 0.90942 0.67132 0.0
N2872 N 0.66174 0.87508 0.6676 0.0
C2873 C 0.68072 0.87398 0.64574 0.0
C2874 C 0.70479 0.89259 0.64776 0.0
C2875 C 0.68838 0.11768 0.88825 0.0
C2876 C 0.67014 0.12142 0.86459 0.0
C2877 C 0.71379 0.10231 0.886 0.0
C2878 C 0.72174 0.08948 0.86024 0.0
H2879 H 0.68386 0.12787 0.9085 0.0
H2880 H 0.72743 0.10059 0.90457 0.0
S2881 S 0.68109 0.09029 0.79256 0.0
N2882 N 0.66155 0.10954 0.81475 0.0
N2883 N 0.70911 0.0796 0.81103 0.0
C2884 C 0.70331 0.09161 0.83677 0.0
C2885 C 0.67756 0.10783 0.83882 0.0
C2886 C 0.36102 0.05605 0.35055 0.0
C2887 C 0.36951 0.06977 0.37603 0.0
C2888 C 0.34515 0.03078 0.35095 0.0
C2889 C 0.33687 0.01832 0.37675 0.0
H2890 H 0.36774 0.06407 0.32998 0.0
H2891 H 0.33974 0.02061 0.3309 0.0
S2892 S 0.35015 0.04657 0.44928 0.0
N2893 N 0.36605 0.0696 0.42793 0.0
N2894 N 0.33584 0.02213 0.42829 0.0
C2895 C 0.34369 0.03224 0.40232 0.0
C2896 C 0.36003 0.05801 0.40205 0.0
C2897 C 0.30093 0.36635 0.83828 0.0
C2898 C 0.32387 0.37254 0.85666 0.0
C2899 C 0.27617 0.38312 0.8383 0.0
C2900 C 0.27354 0.40677 0.85657 0.0
H2901 H 0.30131 0.34738 0.82506 0.0
H2902 H 0.25888 0.37717 0.82425 0.0
S2903 S 0.3294 0.4344 0.90548 0.0
N2904 N 0.3437 0.40554 0.89121 0.0
N2905 N 0.2974 0.43738 0.8911 0.0
C2906 C 0.29724 0.41442 0.87339 0.0
C2907 C 0.32231 0.39717 0.87354 0.0
C2908 C 0.1494 0.95195 0.89806 0.0
C2909 C 0.14952 0.97221 0.87601 0.0
C2910 C 0.1332 0.92681 0.89576 0.0
C2911 C 0.11736 0.92079 0.87095 0.0
H2912 H 0.16127 0.95594 0.91748 0.0
H2913 H 0.1326 0.91234 0.91372 0.0
S2914 S 0.11286 0.96672 0.80634 0.0
N2915 N 0.13402 0.98427 0.82827 0.0
N2916 N 0.10401 0.9373 0.82337 0.0
C2917 C 0.1185 0.94062 0.84829 0.0
C2918 C 0.13445 0.96627 0.85097 0.0
C2919 C 0.77382 0.10684 0.15001 0.0
C2920 C 0.77316 0.08264 0.13233 0.0
C2921 C 0.79786 0.12459 0.15088 0.0
C2922 C 0.82199 0.11896 0.13384 0.0
H2923 H 0.7554 0.11248 0.16277 0.0
H2924 H 0.79669 0.14388 0.16358 0.0
S2925 S 0.83215 0.05636 0.08652 0.0
N2926 N 0.7997 0.05234 0.0996 0.0
N2927 N 0.84467 0.08602 0.10085 0.0
C2928 C 0.82222 0.09387 0.11744 0.0
C2929 C 0.79788 0.0756 0.11683 0.0
C2930 C 0.35337 0.96656 0.09321 0.0
C2931 C 0.33258 0.96989 0.11455 0.0
C2932 C 0.37064 0.94209 0.09214 0.0
C2933 C 0.36799 0.92027 0.11263 0.0
H2934 H 0.35665 0.98316 0.07754 0.0
H2935 H 0.38734 0.94115 0.0762 0.0
S2936 S 0.31518 0.91788 0.17146 0.0
N2937 N 0.30892 0.94853 0.15537 0.0
N2938 N 0.34155 0.90286 0.15358 0.0
C2939 C 0.34632 0.92282 0.13318 0.0
C2940 C 0.32857 0.94753 0.13407 0.0
C2941 C 0.65975 0.54399 0.13046 0.0
C2942 C 0.65539 0.52213 0.11036 0.0
C2943 C 0.64265 0.56852 0.13061 0.0
C2944 C 0.62092 0.57239 0.1103 0.0
H2945 H 0.67562 0.54152 0.14704 0.0
H2946 H 0.64573 0.58401 0.14749 0.0
S2947 S 0.60371 0.52285 0.05066 0.0
N2948 N 0.63003 0.50706 0.06786 0.0
N2949 N 0.59774 0.55299 0.0679 0.0
C2950 C 0.61772 0.55144 0.08884 0.0
C2951 C 0.63495 0.52632 0.08896 0.0
loop_
_geom_bond_atom_site_label_1
_geom_bond_atom_site_label_2
_geom_bond_distance
_geom_bond_site_symmetry_2
_ccdc_geom_bond_type
Co0 O3 1.970 . S
Co0 N17 1.989 . S
Co0 O25 1.967 . S
Co0 O32 1.920 . S
Co1 O4 1.966 . S
Co1 N10 2.022 . S
Co1 N18 1.993 . S
Co1 O26 1.941 . S
C2 O3 1.258 . S
C2 O4 1.263 . S
O3 Co0 1.970 . S
O3 C2 1.258 . S
O4 Co1 1.966 . S
O4 C2 1.263 . S
C5 O6 1.235 . S
C5 O32 1.289 . S
O6 C5 1.235 . S
C7 C9 1.400 . S
C7 N10 1.351 . S
C7 C12 1.501 . S
C8 C9 1.387 . S
C8 N11 1.341 . S
C9 C7 1.400 . S
C9 C8 1.387 . S
N10 Co1 2.022 . S
N10 C7 1.351 . S
N10 N11 1.365 . S
N11 C8 1.341 . S
N11 N10 1.365 . S
N11 H31 0.862 . S
C12 C7 1.501 . S
C12 H13 0.961 . S
C12 H14 0.961 . S
C12 H15 0.960 . S
H13 C12 0.961 . S
H14 C12 0.961 . S
H15 C12 0.960 . S
C16 N17 1.342 . S
C16 C20 1.401 . S
C16 C21 1.499 . S
N17 Co0 1.989 . S
N17 C16 1.342 . S
N17 N18 1.388 . S
N18 Co1 1.993 . S
N18 N17 1.388 . S
N18 C19 1.346 . S
C19 N18 1.346 . S
C19 C20 1.396 . S
C19 C29 1.510 . S
C20 C16 1.401 . S
C20 C19 1.396 . S
C21 C16 1.499 . S
C21 H22 0.959 . S
C21 H23 0.960 . S
C21 H24 0.961 . S
H22 C21 0.959 . S
H23 C21 0.960 . S
H24 C21 0.961 . S
O25 Co0 1.967 . S
O25 C33 1.258 . S
O26 Co1 1.941 . S
O26 C33 1.266 . S
H27 C29 0.959 . S
H28 C29 0.961 . S
C29 C19 1.510 . S
C29 H27 0.959 . S
C29 H28 0.961 . S
C29 H30 0.960 . S
H30 C29 0.960 . S
H31 N11 0.862 . S
O32 Co0 1.920 . S
O32 C5 1.289 . S
C33 O25 1.258 . S
C33 O26 1.266 . S
Co34 O37 1.970 . S
Co34 N51 1.989 . S
Co34 O59 1.967 . S
Co34 O66 1.920 . S
Co35 O38 1.966 . S
Co35 N44 2.022 . S
Co35 N52 1.993 . S
Co35 O60 1.941 . S
C36 O37 1.258 . S
C36 O38 1.263 . S
O37 Co34 1.970 . S
O37 C36 1.258 . S
O38 Co35 1.966 . S
O38 C36 1.263 . S
C39 O40 1.235 . S
C39 O66 1.289 . S
O40 C39 1.235 . S
C41 C43 1.400 . S
C41 N44 1.351 . S
C41 C46 1.501 . S
C42 C43 1.387 . S
C42 N45 1.341 . S
C43 C41 1.400 . S
C43 C42 1.387 . S
N44 Co35 2.022 . S
N44 C41 1.351 . S
N44 N45 1.365 . S
N45 C42 1.341 . S
N45 N44 1.365 . S
N45 H65 0.862 . S
C46 C41 1.501 . S
C46 H47 0.961 . S
C46 H48 0.961 . S
C46 H49 0.960 . S
H47 C46 0.961 . S
H48 C46 0.961 . S
H49 C46 0.960 . S
C50 N51 1.342 . S
C50 C54 1.401 . S
C50 C55 1.499 . S
N51 Co34 1.989 . S
N51 C50 1.342 . S
N51 N52 1.388 . S
N52 Co35 1.993 . S
N52 N51 1.388 . S
N52 C53 1.346 . S
C53 N52 1.346 . S
C53 C54 1.396 . S
C53 C63 1.510 . S
C54 C50 1.401 . S
C54 C53 1.396 . S
C55 C50 1.499 . S
C55 H56 0.959 . S
C55 H57 0.960 . S
C55 H58 0.961 1_556 S
H56 C55 0.959 . S
H57 C55 0.960 . S
H58 C55 0.961 1_554 S
O59 Co34 1.967 . S
O59 C67 1.258 . S
O60 Co35 1.941 . S
O60 C67 1.266 . S
H61 C63 0.959 . S
H62 C63 0.961 . S
C63 C53 1.510 . S
C63 H61 0.959 . S
C63 H62 0.961 . S
C63 H64 0.960 . S
H64 C63 0.960 . S
H65 N45 0.862 . S
O66 Co34 1.920 . S
O66 C39 1.289 . S
C67 O59 1.258 . S
C67 O60 1.266 . S
Co68 O71 1.970 . S
Co68 N85 1.989 . S
Co68 O93 1.967 . S
Co68 O100 1.920 . S
Co69 O72 1.966 . S
Co69 N78 2.022 . S
Co69 N86 1.993 . S
Co69 O94 1.941 . S
C70 O71 1.258 . S
C70 O72 1.263 . S
O71 Co68 1.970 . S
O71 C70 1.258 . S
O72 Co69 1.966 . S
O72 C70 1.263 . S
C73 O74 1.235 . S
C73 O100 1.289 . S
O74 C73 1.235 . S
C75 C77 1.400 . S
C75 N78 1.351 . S
C75 C80 1.501 . S
C76 C77 1.387 . S
C76 N79 1.341 . S
C77 C75 1.400 . S
C77 C76 1.387 . S
N78 Co69 2.022 . S
N78 C75 1.351 . S
N78 N79 1.365 . S
N79 C76 1.341 . S
N79 N78 1.365 . S
N79 H99 0.862 . S
C80 C75 1.501 . S
C80 H81 0.961 . S
C80 H82 0.961 . S
C80 H83 0.960 . S
H81 C80 0.961 . S
H82 C80 0.961 . S
H83 C80 0.960 . S
C84 N85 1.342 . S
C84 C88 1.401 . S
C84 C89 1.499 . S
N85 Co68 1.989 . S
N85 C84 1.342 . S
N85 N86 1.388 . S
N86 Co69 1.993 . S
N86 N85 1.388 . S
N86 C87 1.346 . S
C87 N86 1.346 . S
C87 C88 1.396 . S
C87 C97 1.510 . S
C88 C84 1.401 . S
C88 C87 1.396 . S
C89 C84 1.499 . S
C89 H90 0.959 . S
C89 H91 0.960 . S
C89 H92 0.961 . S
H90 C89 0.959 . S
H91 C89 0.960 . S
H92 C89 0.961 . S
O93 Co68 1.967 . S
O93 C101 1.258 . S
O94 Co69 1.941 . S
O94 C101 1.266 . S
H95 C97 0.959 . S
H96 C97 0.961 . S
C97 C87 1.510 . S
C97 H95 0.959 . S
C97 H96 0.961 . S
C97 H98 0.960 . S
H98 C97 0.960 . S
H99 N79 0.862 . S
O100 Co68 1.920 . S
O100 C73 1.289 . S
C101 O93 1.258 . S
C101 O94 1.266 . S
Co102 O105 1.970 . S
Co102 N119 1.989 . S
Co102 O127 1.967 . S
Co102 O134 1.920 . S
Co103 O106 1.966 . S
Co103 N112 2.022 . S
Co103 N120 1.993 . S
Co103 O128 1.941 . S
C104 O105 1.258 . S
C104 O106 1.263 . S
O105 Co102 1.970 . S
O105 C104 1.258 . S
O106 Co103 1.966 . S
O106 C104 1.263 . S
C107 O108 1.235 . S
C107 O134 1.289 . S
O108 C107 1.235 . S
C109 C111 1.400 . S
C109 N112 1.351 . S
C109 C114 1.501 . S
C110 C111 1.387 . S
C110 N113 1.341 . S
C111 C109 1.400 . S
C111 C110 1.387 . S
N112 Co103 2.022 . S
N112 C109 1.351 . S
N112 N113 1.365 . S
N113 C110 1.341 . S
N113 N112 1.365 . S
N113 H133 0.862 . S
C114 C109 1.501 . S
C114 H115 0.961 . S
C114 H116 0.961 . S
C114 H117 0.960 . S
H115 C114 0.961 . S
H116 C114 0.961 . S
H117 C114 0.960 . S
C118 N119 1.342 . S
C118 C122 1.401 . S
C118 C123 1.499 . S
N119 Co102 1.989 . S
N119 C118 1.342 . S
N119 N120 1.388 . S
N120 Co103 1.993 . S
N120 N119 1.388 . S
N120 C121 1.346 . S
C121 N120 1.346 . S
C121 C122 1.396 . S
C121 C131 1.510 . S
C122 C118 1.401 . S
C122 C121 1.396 . S
C123 C118 1.499 . S
C123 H124 0.959 . S
C123 H125 0.960 . S
C123 H126 0.961 1_556 S
H124 C123 0.959 . S
H125 C123 0.960 . S
H126 C123 0.961 1_554 S
O127 Co102 1.967 . S
O127 C135 1.258 . S
O128 Co103 1.941 . S
O128 C135 1.266 . S
H129 C131 0.959 . S
H130 C131 0.961 . S
C131 C121 1.510 . S
C131 H129 0.959 . S
C131 H130 0.961 . S
C131 H132 0.960 . S
H132 C131 0.960 . S
H133 N113 0.862 . S
O134 Co102 1.920 . S
O134 C107 1.289 . S
C135 O127 1.258 . S
C135 O128 1.266 . S
Co136 O139 1.970 . S
Co136 N153 1.989 . S
Co136 O161 1.967 . S
Co136 O168 1.920 . S
Co137 O140 1.966 . S
Co137 N146 2.022 . S
Co137 N154 1.993 . S
Co137 O162 1.941 . S
C138 O139 1.258 . S
C138 O140 1.263 . S
O139 Co136 1.970 . S
O139 C138 1.258 . S
O140 Co137 1.966 . S
O140 C138 1.263 . S
C141 O142 1.235 . S
C141 O168 1.289 . S
O142 C141 1.235 . S
C143 C145 1.400 . S
C143 N146 1.351 . S
C143 C148 1.501 . S
C144 C145 1.387 . S
C144 N147 1.341 . S
C145 C143 1.400 . S
C145 C144 1.387 . S
N146 Co137 2.022 . S
N146 C143 1.351 . S
N146 N147 1.365 . S
N147 C144 1.341 . S
N147 N146 1.365 . S
N147 H167 0.862 . S
C148 C143 1.501 . S
C148 H149 0.961 . S
C148 H150 0.961 . S
C148 H151 0.960 . S
H149 C148 0.961 . S
H150 C148 0.961 . S
H151 C148 0.960 . S
C152 N153 1.342 . S
C152 C156 1.401 . S
C152 C157 1.499 . S
N153 Co136 1.989 . S
N153 C152 1.342 . S
N153 N154 1.388 . S
N154 Co137 1.993 . S
N154 N153 1.388 . S
N154 C155 1.346 . S
C155 N154 1.346 . S
C155 C156 1.396 . S
C155 C165 1.510 . S
C156 C152 1.401 . S
C156 C155 1.396 . S
C157 C152 1.499 . S
C157 H158 0.959 . S
C157 H159 0.960 . S
C157 H160 0.961 . S
H158 C157 0.959 . S
H159 C157 0.960 . S
H160 C157 0.961 . S
O161 Co136 1.967 . S
O161 C169 1.258 . S
O162 Co137 1.941 . S
O162 C169 1.266 . S
H163 C165 0.959 . S
H164 C165 0.961 . S
C165 C155 1.510 . S
C165 H163 0.959 . S
C165 H164 0.961 . S
C165 H166 0.960 . S
H166 C165 0.960 . S
H167 N147 0.862 . S
O168 Co136 1.920 . S
O168 C141 1.289 . S
C169 O161 1.258 . S
C169 O162 1.266 . S
Co170 O173 1.970 . S
Co170 N187 1.989 . S
Co170 O195 1.967 . S
Co170 O202 1.920 . S
Co171 O174 1.966 . S
Co171 N180 2.022 . S
Co171 N188 1.993 . S
Co171 O196 1.941 . S
C172 O173 1.258 . S
C172 O174 1.263 . S
O173 Co170 1.970 . S
O173 C172 1.258 . S
O174 Co171 1.966 . S
O174 C172 1.263 . S
C175 O176 1.235 . S
C175 O202 1.289 . S
O176 C175 1.235 . S
C177 C179 1.400 . S
C177 N180 1.351 . S
C177 C182 1.501 . S
C178 C179 1.387 . S
C178 N181 1.341 . S
C179 C177 1.400 . S
C179 C178 1.387 . S
N180 Co171 2.022 . S
N180 C177 1.351 . S
N180 N181 1.365 . S
N181 C178 1.341 . S
N181 N180 1.365 . S
N181 H201 0.862 . S
C182 C177 1.501 . S
C182 H183 0.961 . S
C182 H184 0.961 . S
C182 H185 0.960 . S
H183 C182 0.961 . S
H184 C182 0.961 . S
H185 C182 0.960 . S
C186 N187 1.342 . S
C186 C190 1.401 . S
C186 C191 1.499 . S
N187 Co170 1.989 . S
N187 C186 1.342 . S
N187 N188 1.388 . S
N188 Co171 1.993 . S
N188 N187 1.388 . S
N188 C189 1.346 . S
C189 N188 1.346 . S
C189 C190 1.396 . S
C189 C199 1.510 . S
C190 C186 1.401 . S
C190 C189 1.396 . S
C191 C186 1.499 . S
C191 H192 0.959 . S
C191 H193 0.960 . S
C191 H194 0.961 1_554 S
H192 C191 0.959 . S
H193 C191 0.960 . S
H194 C191 0.961 1_556 S
O195 Co170 1.967 . S
O195 C203 1.258 . S
O196 Co171 1.941 . S
O196 C203 1.266 . S
H197 C199 0.959 . S
H198 C199 0.961 . S
C199 C189 1.510 . S
C199 H197 0.959 . S
C199 H198 0.961 . S
C199 H200 0.960 . S
H200 C199 0.960 . S
H201 N181 0.862 . S
O202 Co170 1.920 . S
O202 C175 1.289 . S
C203 O195 1.258 . S
C203 O196 1.266 . S
Co204 O207 1.970 . S
Co204 N221 1.989 . S
Co204 O229 1.967 . S
Co204 O236 1.920 . S
Co205 O208 1.966 . S
Co205 N214 2.022 . S
Co205 N222 1.993 . S
Co205 O230 1.941 . S
C206 O207 1.258 . S
C206 O208 1.263 . S
O207 Co204 1.970 . S
O207 C206 1.258 . S
O208 Co205 1.966 . S
O208 C206 1.263 . S
C209 O210 1.235 . S
C209 O236 1.289 . S
O210 C209 1.235 . S
C211 C213 1.400 . S
C211 N214 1.351 . S
C211 C216 1.501 . S
C212 C213 1.387 . S
C212 N215 1.341 . S
C213 C211 1.400 . S
C213 C212 1.387 . S
N214 Co205 2.022 . S
N214 C211 1.351 . S
N214 N215 1.365 . S
N215 C212 1.341 . S
N215 N214 1.365 . S
N215 H235 0.862 . S
C216 C211 1.501 . S
C216 H217 0.961 . S
C216 H218 0.961 . S
C216 H219 0.960 . S
H217 C216 0.961 . S
H218 C216 0.961 . S
H219 C216 0.960 . S
C220 N221 1.342 . S
C220 C224 1.401 . S
C220 C225 1.499 . S
N221 Co204 1.989 . S
N221 C220 1.342 . S
N221 N222 1.388 . S
N222 Co205 1.993 . S
N222 N221 1.388 . S
N222 C223 1.346 . S
C223 N222 1.346 . S
C223 C224 1.396 . S
C223 C233 1.510 . S
C224 C220 1.401 . S
C224 C223 1.396 . S
C225 C220 1.499 . S
C225 H226 0.959 . S
C225 H227 0.960 . S
C225 H228 0.961 . S
H226 C225 0.959 . S
H227 C225 0.960 . S
H228 C225 0.961 . S
O229 Co204 1.967 . S
O229 C237 1.258 . S
O230 Co205 1.941 . S
O230 C237 1.266 . S
H231 C233 0.959 . S
H232 C233 0.961 . S
C233 C223 1.510 . S
C233 H231 0.959 . S
C233 H232 0.961 . S
C233 H234 0.960 . S
H234 C233 0.960 . S
H235 N215 0.862 . S
O236 Co204 1.920 . S
O236 C209 1.289 . S
C237 O229 1.258 . S
C237 O230 1.266 . S
Co238 O241 1.970 . S
Co238 N255 1.989 . S
Co238 O263 1.967 . S
Co238 O270 1.920 . S
Co239 O242 1.966 . S
Co239 N248 2.022 . S
Co239 N256 1.993 . S
Co239 O264 1.941 . S
C240 O241 1.258 . S
C240 O242 1.263 . S
O241 Co238 1.970 . S
O241 C240 1.258 . S
O242 Co239 1.966 . S
O242 C240 1.263 . S
C243 O244 1.235 . S
C243 O270 1.289 . S
O244 C243 1.235 . S
C245 C247 1.400 . S
C245 N248 1.351 . S
C245 C250 1.501 . S
C246 C247 1.387 . S
C246 N249 1.341 . S
C247 C245 1.400 . S
C247 C246 1.387 . S
N248 Co239 2.022 . S
N248 C245 1.351 . S
N248 N249 1.365 . S
N249 C246 1.341 . S
N249 N248 1.365 . S
N249 H269 0.862 . S
C250 C245 1.501 . S
C250 H251 0.961 . S
C250 H252 0.961 . S
C250 H253 0.960 . S
H251 C250 0.961 . S
H252 C250 0.961 . S
H253 C250 0.960 . S
C254 N255 1.342 . S
C254 C258 1.401 . S
C254 C259 1.499 . S
N255 Co238 1.989 . S
N255 C254 1.342 . S
N255 N256 1.388 . S
N256 Co239 1.993 . S
N256 N255 1.388 . S
N256 C257 1.346 . S
C257 N256 1.346 . S
C257 C258 1.396 . S
C257 C267 1.510 . S
C258 C254 1.401 . S
C258 C257 1.396 . S
C259 C254 1.499 . S
C259 H260 0.959 . S
C259 H261 0.960 . S
C259 H262 0.961 1_554 S
H260 C259 0.959 . S
H261 C259 0.960 . S
H262 C259 0.961 1_556 S
O263 Co238 1.967 . S
O263 C271 1.258 . S
O264 Co239 1.941 . S
O264 C271 1.266 . S
H265 C267 0.959 . S
H266 C267 0.961 . S
C267 C257 1.510 . S
C267 H265 0.959 . S
C267 H266 0.961 . S
C267 H268 0.960 . S
H268 C267 0.960 . S
H269 N249 0.862 . S
O270 Co238 1.920 . S
O270 C243 1.289 . S
C271 O263 1.258 . S
C271 O264 1.266 . S
Co272 O275 1.970 . S
Co272 N289 1.989 . S
Co272 O297 1.967 . S
Co272 O304 1.920 . S
Co273 O276 1.966 . S
Co273 N282 2.022 . S
Co273 N290 1.993 . S
Co273 O298 1.941 . S
C274 O275 1.258 . S
C274 O276 1.263 . S
O275 Co272 1.970 . S
O275 C274 1.258 . S
O276 Co273 1.966 . S
O276 C274 1.263 . S
C277 O278 1.235 . S
C277 O304 1.289 . S
O278 C277 1.235 . S
C279 C281 1.400 . S
C279 N282 1.351 . S
C279 C284 1.501 . S
C280 C281 1.387 . S
C280 N283 1.341 . S
C281 C279 1.400 . S
C281 C280 1.387 . S
N282 Co273 2.022 . S
N282 C279 1.351 . S
N282 N283 1.365 . S
N283 C280 1.341 . S
N283 N282 1.365 . S
N283 H303 0.862 . S
C284 C279 1.501 . S
C284 H285 0.961 . S
C284 H286 0.961 . S
C284 H287 0.960 . S
H285 C284 0.961 . S
H286 C284 0.961 . S
H287 C284 0.960 . S
C288 N289 1.342 . S
C288 C292 1.401 . S
C288 C293 1.499 . S
N289 Co272 1.989 . S
N289 C288 1.342 . S
N289 N290 1.388 . S
N290 Co273 1.993 . S
N290 N289 1.388 . S
N290 C291 1.346 . S
C291 N290 1.346 . S
C291 C292 1.396 . S
C291 C301 1.510 . S
C292 C288 1.401 . S
C292 C291 1.396 . S
C293 C288 1.499 . S
C293 H294 0.959 . S
C293 H295 0.960 . S
C293 H296 0.961 . S
H294 C293 0.959 . S
H295 C293 0.960 . S
H296 C293 0.961 . S
O297 Co272 1.967 . S
O297 C305 1.258 . S
O298 Co273 1.941 . S
O298 C305 1.266 . S
H299 C301 0.959 . S
H300 C301 0.961 . S
C301 C291 1.510 . S
C301 H299 0.959 . S
C301 H300 0.961 . S
C301 H302 0.960 . S
H302 C301 0.960 . S
H303 N283 0.862 . S
O304 Co272 1.920 . S
O304 C277 1.289 . S
C305 O297 1.258 . S
C305 O298 1.266 . S
Co306 O309 1.970 . S
Co306 N323 1.989 . S
Co306 O331 1.967 . S
Co306 O338 1.920 . S
Co307 O310 1.966 . S
Co307 N316 2.022 . S
Co307 N324 1.993 . S
Co307 O332 1.941 . S
C308 O309 1.258 . S
C308 O310 1.263 . S
O309 Co306 1.970 . S
O309 C308 1.258 . S
O310 Co307 1.966 . S
O310 C308 1.263 . S
C311 O312 1.235 . S
C311 O338 1.289 . S
O312 C311 1.235 . S
C313 C315 1.400 . S
C313 N316 1.351 . S
C313 C318 1.501 . S
C314 C315 1.387 . S
C314 N317 1.341 . S
C315 C313 1.400 . S
C315 C314 1.387 . S
N316 Co307 2.022 . S
N316 C313 1.351 . S
N316 N317 1.365 . S
N317 C314 1.341 . S
N317 N316 1.365 . S
N317 H337 0.862 . S
C318 C313 1.501 . S
C318 H319 0.961 . S
C318 H320 0.961 . S
C318 H321 0.960 . S
H319 C318 0.961 . S
H320 C318 0.961 . S
H321 C318 0.960 . S
C322 N323 1.342 . S
C322 C326 1.401 . S
C322 C327 1.499 . S
N323 Co306 1.989 . S
N323 C322 1.342 . S
N323 N324 1.388 . S
N324 Co307 1.993 . S
N324 N323 1.388 . S
N324 C325 1.346 . S
C325 N324 1.346 . S
C325 C326 1.396 . S
C325 C335 1.510 . S
C326 C322 1.401 . S
C326 C325 1.396 . S
C327 C322 1.499 . S
C327 H328 0.959 . S
C327 H329 0.960 . S
C327 H330 0.961 . S
H328 C327 0.959 . S
H329 C327 0.960 . S
H330 C327 0.961 . S
O331 Co306 1.967 . S
O331 C339 1.258 . S
O332 Co307 1.941 . S
O332 C339 1.266 . S
H333 C335 0.959 . S
H334 C335 0.961 . S
C335 C325 1.510 . S
C335 H333 0.959 . S
C335 H334 0.961 . S
C335 H336 0.960 . S
H336 C335 0.960 . S
H337 N317 0.862 . S
O338 Co306 1.920 . S
O338 C311 1.289 . S
C339 O331 1.258 . S
C339 O332 1.266 . S
Co340 O343 1.970 . S
Co340 N357 1.989 . S
Co340 O365 1.967 . S
Co340 O372 1.920 . S
Co341 O344 1.966 . S
Co341 N350 2.022 . S
Co341 N358 1.993 . S
Co341 O366 1.941 . S
C342 O343 1.258 . S
C342 O344 1.263 . S
O343 Co340 1.970 . S
O343 C342 1.258 . S
O344 Co341 1.966 . S
O344 C342 1.263 . S
C345 O346 1.235 . S
C345 O372 1.289 . S
O346 C345 1.235 . S
C347 C349 1.400 . S
C347 N350 1.351 . S
C347 C352 1.501 . S
C348 C349 1.387 . S
C348 N351 1.341 . S
C349 C347 1.400 . S
C349 C348 1.387 . S
N350 Co341 2.022 . S
N350 C347 1.351 . S
N350 N351 1.365 . S
N351 C348 1.341 . S
N351 N350 1.365 . S
N351 H371 0.862 . S
C352 C347 1.501 . S
C352 H353 0.961 . S
C352 H354 0.961 . S
C352 H355 0.960 . S
H353 C352 0.961 . S
H354 C352 0.961 . S
H355 C352 0.960 . S
C356 N357 1.342 . S
C356 C360 1.401 . S
C356 C361 1.499 . S
N357 Co340 1.989 . S
N357 C356 1.342 . S
N357 N358 1.388 . S
N358 Co341 1.993 . S
N358 N357 1.388 . S
N358 C359 1.346 . S
C359 N358 1.346 . S
C359 C360 1.396 . S
C359 C369 1.510 . S
C360 C356 1.401 . S
C360 C359 1.396 . S
C361 C356 1.499 . S
C361 H362 0.959 . S
C361 H363 0.960 . S
C361 H364 0.961 . S
H362 C361 0.959 . S
H363 C361 0.960 . S
H364 C361 0.961 . S
O365 Co340 1.967 . S
O365 C373 1.258 . S
O366 Co341 1.941 . S
O366 C373 1.266 . S
H367 C369 0.959 . S
H368 C369 0.961 . S
C369 C359 1.510 . S
C369 H367 0.959 . S
C369 H368 0.961 . S
C369 H370 0.960 . S
H370 C369 0.960 . S
H371 N351 0.862 . S
O372 Co340 1.920 . S
O372 C345 1.289 . S
C373 O365 1.258 . S
C373 O366 1.266 . S
Co374 O377 1.970 . S
Co374 N391 1.989 . S
Co374 O399 1.967 . S
Co374 O406 1.920 . S
Co375 O378 1.966 . S
Co375 N384 2.022 . S
Co375 N392 1.993 . S
Co375 O400 1.941 . S
C376 O377 1.258 . S
C376 O378 1.263 . S
O377 Co374 1.970 . S
O377 C376 1.258 . S
O378 Co375 1.966 . S
O378 C376 1.263 . S
C379 O380 1.235 . S
C379 O406 1.289 . S
O380 C379 1.235 . S
C381 C383 1.400 . S
C381 N384 1.351 . S
C381 C386 1.501 . S
C382 C383 1.387 . S
C382 N385 1.341 . S
C383 C381 1.400 . S
C383 C382 1.387 . S
N384 Co375 2.022 . S
N384 C381 1.351 . S
N384 N385 1.365 . S
N385 C382 1.341 . S
N385 N384 1.365 . S
N385 H405 0.862 . S
C386 C381 1.501 . S
C386 H387 0.961 . S
C386 H388 0.961 . S
C386 H389 0.960 . S
H387 C386 0.961 . S
H388 C386 0.961 . S
H389 C386 0.960 . S
C390 N391 1.342 . S
C390 C394 1.401 . S
C390 C395 1.499 . S
N391 Co374 1.989 . S
N391 C390 1.342 . S
N391 N392 1.388 . S
N392 Co375 1.993 . S
N392 N391 1.388 . S
N392 C393 1.346 . S
C393 N392 1.346 . S
C393 C394 1.396 . S
C393 C403 1.510 . S
C394 C390 1.401 . S
C394 C393 1.396 . S
C395 C390 1.499 . S
C395 H396 0.959 . S
C395 H397 0.960 . S
C395 H398 0.961 1_545 S
H396 C395 0.959 . S
H397 C395 0.960 . S
H398 C395 0.961 1_565 S
O399 Co374 1.967 . S
O399 C407 1.258 . S
O400 Co375 1.941 . S
O400 C407 1.266 . S
H401 C403 0.959 . S
H402 C403 0.961 . S
C403 C393 1.510 . S
C403 H401 0.959 . S
C403 H402 0.961 . S
C403 H404 0.960 . S
H404 C403 0.960 . S
H405 N385 0.862 . S
O406 Co374 1.920 . S
O406 C379 1.289 . S
C407 O399 1.258 . S
C407 O400 1.266 . S
Co408 O411 1.970 . S
Co408 N425 1.989 . S
Co408 O433 1.967 . S
Co408 O440 1.920 . S
Co409 O412 1.966 . S
Co409 N418 2.022 . S
Co409 N426 1.993 . S
Co409 O434 1.941 . S
C410 O411 1.258 . S
C410 O412 1.263 . S
O411 Co408 1.970 . S
O411 C410 1.258 . S
O412 Co409 1.966 . S
O412 C410 1.263 . S
C413 O414 1.235 . S
C413 O440 1.289 . S
O414 C413 1.235 . S
C415 C417 1.400 . S
C415 N418 1.351 . S
C415 C420 1.501 . S
C416 C417 1.387 . S
C416 N419 1.341 . S
C417 C415 1.400 . S
C417 C416 1.387 . S
N418 Co409 2.022 . S
N418 C415 1.351 . S
N418 N419 1.365 . S
N419 C416 1.341 . S
N419 N418 1.365 . S
N419 H439 0.862 . S
C420 C415 1.501 . S
C420 H421 0.961 . S
C420 H422 0.961 . S
C420 H423 0.960 . S
H421 C420 0.961 . S
H422 C420 0.961 . S
H423 C420 0.960 . S
C424 N425 1.342 . S
C424 C428 1.401 . S
C424 C429 1.499 . S
N425 Co408 1.989 . S
N425 C424 1.342 . S
N425 N426 1.388 . S
N426 Co409 1.993 . S
N426 N425 1.388 . S
N426 C427 1.346 . S
C427 N426 1.346 . S
C427 C428 1.396 . S
C427 C437 1.510 . S
C428 C424 1.401 . S
C428 C427 1.396 . S
C429 C424 1.499 . S
C429 H430 0.959 . S
C429 H431 0.960 . S
C429 H432 0.961 . S
H430 C429 0.959 . S
H431 C429 0.960 . S
H432 C429 0.961 . S
O433 Co408 1.967 . S
O433 C441 1.258 . S
O434 Co409 1.941 . S
O434 C441 1.266 . S
H435 C437 0.959 . S
H436 C437 0.961 . S
C437 C427 1.510 . S
C437 H435 0.959 . S
C437 H436 0.961 . S
C437 H438 0.960 . S
H438 C437 0.960 . S
H439 N419 0.862 . S
O440 Co408 1.920 . S
O440 C413 1.289 . S
C441 O433 1.258 . S
C441 O434 1.266 . S
Co442 O445 1.970 . S
Co442 N459 1.989 . S
Co442 O467 1.967 . S
Co442 O474 1.920 . S
Co443 O446 1.966 . S
Co443 N452 2.022 . S
Co443 N460 1.993 . S
Co443 O468 1.941 . S
C444 O445 1.258 . S
C444 O446 1.263 . S
O445 Co442 1.970 . S
O445 C444 1.258 . S
O446 Co443 1.966 . S
O446 C444 1.263 . S
C447 O448 1.235 . S
C447 O474 1.289 . S
O448 C447 1.235 . S
C449 C451 1.400 . S
C449 N452 1.351 . S
C449 C454 1.501 . S
C450 C451 1.387 . S
C450 N453 1.341 . S
C451 C449 1.400 . S
C451 C450 1.387 . S
N452 Co443 2.022 . S
N452 C449 1.351 . S
N452 N453 1.365 . S
N453 C450 1.341 . S
N453 N452 1.365 . S
N453 H473 0.862 . S
C454 C449 1.501 . S
C454 H455 0.961 . S
C454 H456 0.961 . S
C454 H457 0.960 . S
H455 C454 0.961 . S
H456 C454 0.961 . S
H457 C454 0.960 . S
C458 N459 1.342 . S
C458 C462 1.401 . S
C458 C463 1.499 . S
N459 Co442 1.989 . S
N459 C458 1.342 . S
N459 N460 1.388 . S
N460 Co443 1.993 . S
N460 N459 1.388 . S
N460 C461 1.346 . S
C461 N460 1.346 . S
C461 C462 1.396 . S
C461 C471 1.510 . S
C462 C458 1.401 . S
C462 C461 1.396 . S
C463 C458 1.499 . S
C463 H464 0.959 . S
C463 H465 0.960 . S
C463 H466 0.961 . S
H464 C463 0.959 . S
H465 C463 0.960 . S
H466 C463 0.961 . S
O467 Co442 1.967 . S
O467 C475 1.258 . S
O468 Co443 1.941 . S
O468 C475 1.266 . S
H469 C471 0.959 . S
H470 C471 0.961 . S
C471 C461 1.510 . S
C471 H469 0.959 . S
C471 H470 0.961 . S
C471 H472 0.960 . S
H472 C471 0.960 . S
H473 N453 0.862 . S
O474 Co442 1.920 . S
O474 C447 1.289 . S
C475 O467 1.258 . S
C475 O468 1.266 . S
Co476 O479 1.970 . S
Co476 N493 1.989 . S
Co476 O501 1.967 . S
Co476 O508 1.920 . S
Co477 O480 1.966 . S
Co477 N486 2.022 . S
Co477 N494 1.993 . S
Co477 O502 1.941 . S
C478 O479 1.258 . S
C478 O480 1.263 . S
O479 Co476 1.970 . S
O479 C478 1.258 . S
O480 Co477 1.966 . S
O480 C478 1.263 . S
C481 O482 1.235 . S
C481 O508 1.289 . S
O482 C481 1.235 . S
C483 C485 1.400 . S
C483 N486 1.351 . S
C483 C488 1.501 . S
C484 C485 1.387 . S
C484 N487 1.341 . S
C485 C483 1.400 . S
C485 C484 1.387 . S
N486 Co477 2.022 . S
N486 C483 1.351 . S
N486 N487 1.365 . S
N487 C484 1.341 . S
N487 N486 1.365 . S
N487 H507 0.862 . S
C488 C483 1.501 . S
C488 H489 0.961 . S
C488 H490 0.961 . S
C488 H491 0.960 . S
H489 C488 0.961 . S
H490 C488 0.961 . S
H491 C488 0.960 . S
C492 N493 1.342 . S
C492 C496 1.401 . S
C492 C497 1.499 . S
N493 Co476 1.989 . S
N493 C492 1.342 . S
N493 N494 1.388 . S
N494 Co477 1.993 . S
N494 N493 1.388 . S
N494 C495 1.346 . S
C495 N494 1.346 . S
C495 C496 1.396 . S
C495 C505 1.510 . S
C496 C492 1.401 . S
C496 C495 1.396 . S
C497 C492 1.499 . S
C497 H498 0.959 . S
C497 H499 0.960 . S
C497 H500 0.961 . S
H498 C497 0.959 . S
H499 C497 0.960 . S
H500 C497 0.961 . S
O501 Co476 1.967 . S
O501 C509 1.258 . S
O502 Co477 1.941 . S
O502 C509 1.266 . S
H503 C505 0.959 . S
H504 C505 0.961 . S
C505 C495 1.510 . S
C505 H503 0.959 . S
C505 H504 0.961 . S
C505 H506 0.960 . S
H506 C505 0.960 . S
H507 N487 0.862 . S
O508 Co476 1.920 . S
O508 C481 1.289 . S
C509 O501 1.258 . S
C509 O502 1.266 . S
Co510 O513 1.970 . S
Co510 N527 1.989 . S
Co510 O535 1.967 . S
Co510 O542 1.920 . S
Co511 O514 1.966 . S
Co511 N520 2.022 . S
Co511 N528 1.993 . S
Co511 O536 1.941 . S
C512 O513 1.258 . S
C512 O514 1.263 . S
O513 Co510 1.970 . S
O513 C512 1.258 . S
O514 Co511 1.966 . S
O514 C512 1.263 . S
C515 O516 1.235 . S
C515 O542 1.289 . S
O516 C515 1.235 . S
C517 C519 1.400 . S
C517 N520 1.351 . S
C517 C522 1.501 . S
C518 C519 1.387 . S
C518 N521 1.341 . S
C519 C517 1.400 . S
C519 C518 1.387 . S
N520 Co511 2.022 . S
N520 C517 1.351 . S
N520 N521 1.365 . S
N521 C518 1.341 . S
N521 N520 1.365 . S
N521 H541 0.862 . S
C522 C517 1.501 . S
C522 H523 0.961 . S
C522 H524 0.961 . S
C522 H525 0.960 . S
H523 C522 0.961 . S
H524 C522 0.961 . S
H525 C522 0.960 . S
C526 N527 1.342 . S
C526 C530 1.401 . S
C526 C531 1.499 . S
N527 Co510 1.989 . S
N527 C526 1.342 . S
N527 N528 1.388 . S
N528 Co511 1.993 . S
N528 N527 1.388 . S
N528 C529 1.346 . S
C529 N528 1.346 . S
C529 C530 1.396 . S
C529 C539 1.510 . S
C530 C526 1.401 . S
C530 C529 1.396 . S
C531 C526 1.499 . S
C531 H532 0.959 . S
C531 H533 0.960 . S
C531 H534 0.961 1_545 S
H532 C531 0.959 . S
H533 C531 0.960 . S
H534 C531 0.961 1_565 S
O535 Co510 1.967 . S
O535 C543 1.258 . S
O536 Co511 1.941 . S
O536 C543 1.266 . S
H537 C539 0.959 . S
H538 C539 0.961 . S
C539 C529 1.510 . S
C539 H537 0.959 . S
C539 H538 0.961 . S
C539 H540 0.960 . S
H540 C539 0.960 . S
H541 N521 0.862 . S
O542 Co510 1.920 . S
O542 C515 1.289 . S
C543 O535 1.258 . S
C543 O536 1.266 . S
Co544 O547 1.970 . S
Co544 N561 1.989 . S
Co544 O569 1.967 . S
Co544 O576 1.920 . S
Co545 O548 1.966 . S
Co545 N554 2.022 . S
Co545 N562 1.993 . S
Co545 O570 1.941 . S
C546 O547 1.258 . S
C546 O548 1.263 . S
O547 Co544 1.970 . S
O547 C546 1.258 . S
O548 Co545 1.966 . S
O548 C546 1.263 . S
C549 O550 1.235 . S
C549 O576 1.289 . S
O550 C549 1.235 . S
C551 C553 1.400 . S
C551 N554 1.351 . S
C551 C556 1.501 . S
C552 C553 1.387 . S
C552 N555 1.341 . S
C553 C551 1.400 . S
C553 C552 1.387 . S
N554 Co545 2.022 . S
N554 C551 1.351 . S
N554 N555 1.365 . S
N555 C552 1.341 . S
N555 N554 1.365 . S
N555 H575 0.862 . S
C556 C551 1.501 . S
C556 H557 0.961 . S
C556 H558 0.961 . S
C556 H559 0.960 . S
H557 C556 0.961 . S
H558 C556 0.961 . S
H559 C556 0.960 . S
C560 N561 1.342 . S
C560 C564 1.401 . S
C560 C565 1.499 . S
N561 Co544 1.989 . S
N561 C560 1.342 . S
N561 N562 1.388 . S
N562 Co545 1.993 . S
N562 N561 1.388 . S
N562 C563 1.346 . S
C563 N562 1.346 . S
C563 C564 1.396 . S
C563 C573 1.510 . S
C564 C560 1.401 . S
C564 C563 1.396 . S
C565 C560 1.499 . S
C565 H566 0.959 . S
C565 H567 0.960 . S
C565 H568 0.961 . S
H566 C565 0.959 . S
H567 C565 0.960 . S
H568 C565 0.961 . S
O569 Co544 1.967 . S
O569 C577 1.258 . S
O570 Co545 1.941 . S
O570 C577 1.266 . S
H571 C573 0.959 . S
H572 C573 0.961 . S
C573 C563 1.510 . S
C573 H571 0.959 . S
C573 H572 0.961 . S
C573 H574 0.960 . S
H574 C573 0.960 . S
H575 N555 0.862 . S
O576 Co544 1.920 . S
O576 C549 1.289 . S
C577 O569 1.258 . S
C577 O570 1.266 . S
Co578 O581 1.970 . S
Co578 N595 1.989 . S
Co578 O603 1.967 . S
Co578 O610 1.920 . S
Co579 O582 1.966 . S
Co579 N588 2.022 . S
Co579 N596 1.993 . S
Co579 O604 1.941 . S
C580 O581 1.258 . S
C580 O582 1.263 . S
O581 Co578 1.970 . S
O581 C580 1.258 . S
O582 Co579 1.966 . S
O582 C580 1.263 . S
C583 O584 1.235 . S
C583 O610 1.289 . S
O584 C583 1.235 . S
C585 C587 1.400 . S
C585 N588 1.351 . S
C585 C590 1.501 . S
C586 C587 1.387 . S
C586 N589 1.341 . S
C587 C585 1.400 . S
C587 C586 1.387 . S
N588 Co579 2.022 . S
N588 C585 1.351 . S
N588 N589 1.365 . S
N589 C586 1.341 . S
N589 N588 1.365 . S
N589 H609 0.862 . S
C590 C585 1.501 . S
C590 H591 0.961 . S
C590 H592 0.961 . S
C590 H593 0.960 . S
H591 C590 0.961 . S
H592 C590 0.961 . S
H593 C590 0.960 . S
C594 N595 1.342 . S
C594 C598 1.401 . S
C594 C599 1.499 . S
N595 Co578 1.989 . S
N595 C594 1.342 . S
N595 N596 1.388 . S
N596 Co579 1.993 . S
N596 N595 1.388 . S
N596 C597 1.346 . S
C597 N596 1.346 . S
C597 C598 1.396 . S
C597 C607 1.510 . S
C598 C594 1.401 . S
C598 C597 1.396 . S
C599 C594 1.499 . S
C599 H600 0.959 . S
C599 H601 0.960 . S
C599 H602 0.961 . S
H600 C599 0.959 . S
H601 C599 0.960 . S
H602 C599 0.961 . S
O603 Co578 1.967 . S
O603 C611 1.258 . S
O604 Co579 1.941 . S
O604 C611 1.266 . S
H605 C607 0.959 . S
H606 C607 0.961 . S
C607 C597 1.510 . S
C607 H605 0.959 . S
C607 H606 0.961 . S
C607 H608 0.960 . S
H608 C607 0.960 . S
H609 N589 0.862 . S
O610 Co578 1.920 . S
O610 C583 1.289 . S
C611 O603 1.258 . S
C611 O604 1.266 . S
Co612 O615 1.970 . S
Co612 N629 1.989 . S
Co612 O637 1.967 . S
Co612 O644 1.920 . S
Co613 O616 1.966 . S
Co613 N622 2.022 . S
Co613 N630 1.993 . S
Co613 O638 1.941 . S
C614 O615 1.258 . S
C614 O616 1.263 . S
O615 Co612 1.970 . S
O615 C614 1.258 . S
O616 Co613 1.966 . S
O616 C614 1.263 . S
C617 O618 1.235 . S
C617 O644 1.289 . S
O618 C617 1.235 . S
C619 C621 1.400 . S
C619 N622 1.351 . S
C619 C624 1.501 . S
C620 C621 1.387 . S
C620 N623 1.341 . S
C621 C619 1.400 . S
C621 C620 1.387 . S
N622 Co613 2.022 . S
N622 C619 1.351 . S
N622 N623 1.365 . S
N623 C620 1.341 . S
N623 N622 1.365 . S
N623 H643 0.862 . S
C624 C619 1.501 . S
C624 H625 0.961 . S
C624 H626 0.961 . S
C624 H627 0.960 . S
H625 C624 0.961 . S
H626 C624 0.961 . S
H627 C624 0.960 . S
C628 N629 1.342 . S
C628 C632 1.401 . S
C628 C633 1.499 . S
N629 Co612 1.989 . S
N629 C628 1.342 . S
N629 N630 1.388 . S
N630 Co613 1.993 . S
N630 N629 1.388 . S
N630 C631 1.346 . S
C631 N630 1.346 . S
C631 C632 1.396 . S
C631 C641 1.510 . S
C632 C628 1.401 . S
C632 C631 1.396 . S
C633 C628 1.499 . S
C633 H634 0.959 . S
C633 H635 0.960 . S
C633 H636 0.961 1_655 S
H634 C633 0.959 . S
H635 C633 0.960 . S
H636 C633 0.961 1_455 S
O637 Co612 1.967 . S
O637 C645 1.258 . S
O638 Co613 1.941 . S
O638 C645 1.266 . S
H639 C641 0.959 . S
H640 C641 0.961 . S
C641 C631 1.510 . S
C641 H639 0.959 . S
C641 H640 0.961 . S
C641 H642 0.960 . S
H642 C641 0.960 . S
H643 N623 0.862 . S
O644 Co612 1.920 . S
O644 C617 1.289 . S
C645 O637 1.258 . S
C645 O638 1.266 . S
Co646 O649 1.970 . S
Co646 N663 1.989 . S
Co646 O671 1.967 . S
Co646 O678 1.920 . S
Co647 O650 1.966 . S
Co647 N656 2.022 . S
Co647 N664 1.993 . S
Co647 O672 1.941 . S
C648 O649 1.258 . S
C648 O650 1.263 . S
O649 Co646 1.970 . S
O649 C648 1.258 . S
O650 Co647 1.966 . S
O650 C648 1.263 . S
C651 O652 1.235 . S
C651 O678 1.289 . S
O652 C651 1.235 . S
C653 C655 1.400 . S
C653 N656 1.351 . S
C653 C658 1.501 . S
C654 C655 1.387 . S
C654 N657 1.341 . S
C655 C653 1.400 . S
C655 C654 1.387 . S
N656 Co647 2.022 . S
N656 C653 1.351 . S
N656 N657 1.365 . S
N657 C654 1.341 . S
N657 N656 1.365 . S
N657 H677 0.862 . S
C658 C653 1.501 . S
C658 H659 0.961 . S
C658 H660 0.961 . S
C658 H661 0.960 . S
H659 C658 0.961 . S
H660 C658 0.961 . S
H661 C658 0.960 . S
C662 N663 1.342 . S
C662 C666 1.401 . S
C662 C667 1.499 . S
N663 Co646 1.989 . S
N663 C662 1.342 . S
N663 N664 1.388 . S
N664 Co647 1.993 . S
N664 N663 1.388 . S
N664 C665 1.346 . S
C665 N664 1.346 . S
C665 C666 1.396 . S
C665 C675 1.510 . S
C666 C662 1.401 . S
C666 C665 1.396 . S
C667 C662 1.499 . S
C667 H668 0.959 . S
C667 H669 0.960 . S
C667 H670 0.961 . S
H668 C667 0.959 . S
H669 C667 0.960 . S
H670 C667 0.961 . S
O671 Co646 1.967 . S
O671 C679 1.258 . S
O672 Co647 1.941 . S
O672 C679 1.266 . S
H673 C675 0.959 . S
H674 C675 0.961 . S
C675 C665 1.510 . S
C675 H673 0.959 . S
C675 H674 0.961 . S
C675 H676 0.960 . S
H676 C675 0.960 . S
H677 N657 0.862 . S
O678 Co646 1.920 . S
O678 C651 1.289 . S
C679 O671 1.258 . S
C679 O672 1.266 . S
Co680 O683 1.970 . S
Co680 N697 1.989 . S
Co680 O705 1.967 . S
Co680 O712 1.920 . S
Co681 O684 1.966 . S
Co681 N690 2.022 . S
Co681 N698 1.993 . S
Co681 O706 1.941 . S
C682 O683 1.258 . S
C682 O684 1.263 . S
O683 Co680 1.970 . S
O683 C682 1.258 . S
O684 Co681 1.966 . S
O684 C682 1.263 . S
C685 O686 1.235 . S
C685 O712 1.289 . S
O686 C685 1.235 . S
C687 C689 1.400 . S
C687 N690 1.351 . S
C687 C692 1.501 . S
C688 C689 1.387 . S
C688 N691 1.341 . S
C689 C687 1.400 . S
C689 C688 1.387 . S
N690 Co681 2.022 . S
N690 C687 1.351 . S
N690 N691 1.365 . S
N691 C688 1.341 . S
N691 N690 1.365 . S
N691 H711 0.862 . S
C692 C687 1.501 . S
C692 H693 0.961 . S
C692 H694 0.961 . S
C692 H695 0.960 . S
H693 C692 0.961 . S
H694 C692 0.961 . S
H695 C692 0.960 . S
C696 N697 1.342 . S
C696 C700 1.401 . S
C696 C701 1.499 . S
N697 Co680 1.989 . S
N697 C696 1.342 . S
N697 N698 1.388 . S
N698 Co681 1.993 . S
N698 N697 1.388 . S
N698 C699 1.346 . S
C699 N698 1.346 . S
C699 C700 1.396 . S
C699 C709 1.510 . S
C700 C696 1.401 . S
C700 C699 1.396 . S
C701 C696 1.499 . S
C701 H702 0.959 . S
C701 H703 0.960 . S
C701 H704 0.961 . S
H702 C701 0.959 . S
H703 C701 0.960 . S
H704 C701 0.961 . S
O705 Co680 1.967 . S
O705 C713 1.258 . S
O706 Co681 1.941 . S
O706 C713 1.266 . S
H707 C709 0.959 . S
H708 C709 0.961 . S
C709 C699 1.510 . S
C709 H707 0.959 . S
C709 H708 0.961 . S
C709 H710 0.960 . S
H710 C709 0.960 . S
H711 N691 0.862 . S
O712 Co680 1.920 . S
O712 C685 1.289 . S
C713 O705 1.258 . S
C713 O706 1.266 . S
Co714 O717 1.970 . S
Co714 N731 1.989 . S
Co714 O739 1.967 . S
Co714 O746 1.920 . S
Co715 O718 1.966 . S
Co715 N724 2.022 . S
Co715 N732 1.993 . S
Co715 O740 1.941 . S
C716 O717 1.258 . S
C716 O718 1.263 . S
O717 Co714 1.970 . S
O717 C716 1.258 . S
O718 Co715 1.966 . S
O718 C716 1.263 . S
C719 O720 1.235 . S
C719 O746 1.289 . S
O720 C719 1.235 . S
C721 C723 1.400 . S
C721 N724 1.351 . S
C721 C726 1.501 . S
C722 C723 1.387 . S
C722 N725 1.341 . S
C723 C721 1.400 . S
C723 C722 1.387 . S
N724 Co715 2.022 . S
N724 C721 1.351 . S
N724 N725 1.365 . S
N725 C722 1.341 . S
N725 N724 1.365 . S
N725 H745 0.862 . S
C726 C721 1.501 . S
C726 H727 0.961 . S
C726 H728 0.961 . S
C726 H729 0.960 . S
H727 C726 0.961 . S
H728 C726 0.961 . S
H729 C726 0.960 . S
C730 N731 1.342 . S
C730 C734 1.401 . S
C730 C735 1.499 . S
N731 Co714 1.989 . S
N731 C730 1.342 . S
N731 N732 1.388 . S
N732 Co715 1.993 . S
N732 N731 1.388 . S
N732 C733 1.346 . S
C733 N732 1.346 . S
C733 C734 1.396 . S
C733 C743 1.510 . S
C734 C730 1.401 . S
C734 C733 1.396 . S
C735 C730 1.499 . S
C735 H736 0.959 . S
C735 H737 0.960 . S
C735 H738 0.961 . S
H736 C735 0.959 . S
H737 C735 0.960 . S
H738 C735 0.961 . S
O739 Co714 1.967 . S
O739 C747 1.258 . S
O740 Co715 1.941 . S
O740 C747 1.266 . S
H741 C743 0.959 . S
H742 C743 0.961 . S
C743 C733 1.510 . S
C743 H741 0.959 . S
C743 H742 0.961 . S
C743 H744 0.960 . S
H744 C743 0.960 . S
H745 N725 0.862 . S
O746 Co714 1.920 . S
O746 C719 1.289 . S
C747 O739 1.258 . S
C747 O740 1.266 . S
Co748 O751 1.970 . S
Co748 N765 1.989 . S
Co748 O773 1.967 . S
Co748 O780 1.920 . S
Co749 O752 1.966 . S
Co749 N758 2.022 . S
Co749 N766 1.993 . S
Co749 O774 1.941 . S
C750 O751 1.258 . S
C750 O752 1.263 . S
O751 Co748 1.970 . S
O751 C750 1.258 . S
O752 Co749 1.966 . S
O752 C750 1.263 . S
C753 O754 1.235 . S
C753 O780 1.289 . S
O754 C753 1.235 . S
C755 C757 1.400 . S
C755 N758 1.351 . S
C755 C760 1.501 . S
C756 C757 1.387 . S
C756 N759 1.341 . S
C757 C755 1.400 . S
C757 C756 1.387 . S
N758 Co749 2.022 . S
N758 C755 1.351 . S
N758 N759 1.365 . S
N759 C756 1.341 . S
N759 N758 1.365 . S
N759 H779 0.862 . S
C760 C755 1.501 . S
C760 H761 0.961 . S
C760 H762 0.961 . S
C760 H763 0.960 . S
H761 C760 0.961 . S
H762 C760 0.961 . S
H763 C760 0.960 . S
C764 N765 1.342 . S
C764 C768 1.401 . S
C764 C769 1.499 . S
N765 Co748 1.989 . S
N765 C764 1.342 . S
N765 N766 1.388 . S
N766 Co749 1.993 . S
N766 N765 1.388 . S
N766 C767 1.346 . S
C767 N766 1.346 . S
C767 C768 1.396 . S
C767 C777 1.510 . S
C768 C764 1.401 . S
C768 C767 1.396 . S
C769 C764 1.499 . S
C769 H770 0.959 . S
C769 H771 0.960 . S
C769 H772 0.961 1_655 S
H770 C769 0.959 . S
H771 C769 0.960 . S
H772 C769 0.961 1_455 S
O773 Co748 1.967 . S
O773 C781 1.258 . S
O774 Co749 1.941 . S
O774 C781 1.266 . S
H775 C777 0.959 . S
H776 C777 0.961 . S
C777 C767 1.510 . S
C777 H775 0.959 . S
C777 H776 0.961 . S
C777 H778 0.960 . S
H778 C777 0.960 . S
H779 N759 0.862 . S
O780 Co748 1.920 . S
O780 C753 1.289 . S
C781 O773 1.258 . S
C781 O774 1.266 . S
Co782 O785 1.970 . S
Co782 N799 1.989 . S
Co782 O807 1.967 . S
Co782 O814 1.920 . S
Co783 O786 1.966 . S
Co783 N792 2.022 . S
Co783 N800 1.993 . S
Co783 O808 1.941 . S
C784 O785 1.258 . S
C784 O786 1.263 . S
O785 Co782 1.970 . S
O785 C784 1.258 . S
O786 Co783 1.966 . S
O786 C784 1.263 . S
C787 O788 1.235 . S
C787 O814 1.289 . S
O788 C787 1.235 . S
C789 C791 1.400 . S
C789 N792 1.351 . S
C789 C794 1.501 . S
C790 C791 1.387 . S
C790 N793 1.341 . S
C791 C789 1.400 . S
C791 C790 1.387 . S
N792 Co783 2.022 . S
N792 C789 1.351 . S
N792 N793 1.365 . S
N793 C790 1.341 . S
N793 N792 1.365 . S
N793 H813 0.862 . S
C794 C789 1.501 . S
C794 H795 0.961 . S
C794 H796 0.961 . S
C794 H797 0.960 . S
H795 C794 0.961 . S
H796 C794 0.961 . S
H797 C794 0.960 . S
C798 N799 1.342 . S
C798 C802 1.401 . S
C798 C803 1.499 . S
N799 Co782 1.989 . S
N799 C798 1.342 . S
N799 N800 1.388 . S
N800 Co783 1.993 . S
N800 N799 1.388 . S
N800 C801 1.346 . S
C801 N800 1.346 . S
C801 C802 1.396 . S
C801 C811 1.510 . S
C802 C798 1.401 . S
C802 C801 1.396 . S
C803 C798 1.499 . S
C803 H804 0.959 . S
C803 H805 0.960 . S
C803 H806 0.961 1_455 S
H804 C803 0.959 . S
H805 C803 0.960 . S
H806 C803 0.961 1_655 S
O807 Co782 1.967 . S
O807 C815 1.258 . S
O808 Co783 1.941 . S
O808 C815 1.266 . S
H809 C811 0.959 . S
H810 C811 0.961 . S
C811 C801 1.510 . S
C811 H809 0.959 . S
C811 H810 0.961 . S
C811 H812 0.960 . S
H812 C811 0.960 . S
H813 N793 0.862 . S
O814 Co782 1.920 . S
O814 C787 1.289 . S
C815 O807 1.258 . S
C815 O808 1.266 . S
Co816 O819 1.970 . S
Co816 N833 1.989 . S
Co816 O841 1.967 . S
Co816 O848 1.920 . S
Co817 O820 1.966 . S
Co817 N826 2.022 . S
Co817 N834 1.993 . S
Co817 O842 1.941 . S
C818 O819 1.258 . S
C818 O820 1.263 . S
O819 Co816 1.970 . S
O819 C818 1.258 . S
O820 Co817 1.966 . S
O820 C818 1.263 . S
C821 O822 1.235 . S
C821 O848 1.289 . S
O822 C821 1.235 . S
C823 C825 1.400 . S
C823 N826 1.351 . S
C823 C828 1.501 . S
C824 C825 1.387 . S
C824 N827 1.341 . S
C825 C823 1.400 . S
C825 C824 1.387 . S
N826 Co817 2.022 . S
N826 C823 1.351 . S
N826 N827 1.365 . S
N827 C824 1.341 . S
N827 N826 1.365 . S
N827 H847 0.862 . S
C828 C823 1.501 . S
C828 H829 0.961 . S
C828 H830 0.961 . S
C828 H831 0.960 . S
H829 C828 0.961 . S
H830 C828 0.961 . S
H831 C828 0.960 . S
C832 N833 1.342 . S
C832 C836 1.401 . S
C832 C837 1.499 . S
N833 Co816 1.989 . S
N833 C832 1.342 . S
N833 N834 1.388 . S
N834 Co817 1.993 . S
N834 N833 1.388 . S
N834 C835 1.346 . S
C835 N834 1.346 . S
C835 C836 1.396 . S
C835 C845 1.510 . S
C836 C832 1.401 . S
C836 C835 1.396 . S
C837 C832 1.499 . S
C837 H838 0.959 . S
C837 H839 0.960 . S
C837 H840 0.961 . S
H838 C837 0.959 . S
H839 C837 0.960 . S
H840 C837 0.961 . S
O841 Co816 1.967 . S
O841 C849 1.258 . S
O842 Co817 1.941 . S
O842 C849 1.266 . S
H843 C845 0.959 . S
H844 C845 0.961 . S
C845 C835 1.510 . S
C845 H843 0.959 . S
C845 H844 0.961 . S
C845 H846 0.960 . S
H846 C845 0.960 . S
H847 N827 0.862 . S
O848 Co816 1.920 . S
O848 C821 1.289 . S
C849 O841 1.258 . S
C849 O842 1.266 . S
Co850 O853 1.970 . S
Co850 N867 1.989 . S
Co850 O875 1.967 . S
Co850 O882 1.920 . S
Co851 O854 1.966 . S
Co851 N860 2.022 . S
Co851 N868 1.993 . S
Co851 O876 1.941 . S
C852 O853 1.258 . S
C852 O854 1.263 . S
O853 Co850 1.970 . S
O853 C852 1.258 . S
O854 Co851 1.966 . S
O854 C852 1.263 . S
C855 O856 1.235 . S
C855 O882 1.289 . S
O856 C855 1.235 . S
C857 C859 1.400 . S
C857 N860 1.351 . S
C857 C862 1.501 . S
C858 C859 1.387 . S
C858 N861 1.341 . S
C859 C857 1.400 . S
C859 C858 1.387 . S
N860 Co851 2.022 . S
N860 C857 1.351 . S
N860 N861 1.365 . S
N861 C858 1.341 . S
N861 N860 1.365 . S
N861 H881 0.862 . S
C862 C857 1.501 . S
C862 H863 0.961 . S
C862 H864 0.961 . S
C862 H865 0.960 . S
H863 C862 0.961 . S
H864 C862 0.961 . S
H865 C862 0.960 . S
C866 N867 1.342 . S
C866 C870 1.401 . S
C866 C871 1.499 . S
N867 Co850 1.989 . S
N867 C866 1.342 . S
N867 N868 1.388 . S
N868 Co851 1.993 . S
N868 N867 1.388 . S
N868 C869 1.346 . S
C869 N868 1.346 . S
C869 C870 1.396 . S
C869 C879 1.510 . S
C870 C866 1.401 . S
C870 C869 1.396 . S
C871 C866 1.499 . S
C871 H872 0.959 . S
C871 H873 0.960 . S
C871 H874 0.961 . S
H872 C871 0.959 . S
H873 C871 0.960 . S
H874 C871 0.961 . S
O875 Co850 1.967 . S
O875 C883 1.258 . S
O876 Co851 1.941 . S
O876 C883 1.266 . S
H877 C879 0.959 . S
H878 C879 0.961 . S
C879 C869 1.510 . S
C879 H877 0.959 . S
C879 H878 0.961 . S
C879 H880 0.960 . S
H880 C879 0.960 . S
H881 N861 0.862 . S
O882 Co850 1.920 . S
O882 C855 1.289 . S
C883 O875 1.258 . S
C883 O876 1.266 . S
Co884 O887 1.970 . S
Co884 N901 1.989 . S
Co884 O909 1.967 . S
Co884 O916 1.920 . S
Co885 O888 1.966 . S
Co885 N894 2.022 . S
Co885 N902 1.993 . S
Co885 O910 1.941 . S
C886 O887 1.258 . S
C886 O888 1.263 . S
O887 Co884 1.970 . S
O887 C886 1.258 . S
O888 Co885 1.966 . S
O888 C886 1.263 . S
C889 O890 1.235 . S
C889 O916 1.289 . S
O890 C889 1.235 . S
C891 C893 1.400 . S
C891 N894 1.351 . S
C891 C896 1.501 . S
C892 C893 1.387 . S
C892 N895 1.341 . S
C893 C891 1.400 . S
C893 C892 1.387 . S
N894 Co885 2.022 . S
N894 C891 1.351 . S
N894 N895 1.365 . S
N895 C892 1.341 . S
N895 N894 1.365 . S
N895 H915 0.862 . S
C896 C891 1.501 . S
C896 H897 0.961 . S
C896 H898 0.961 . S
C896 H899 0.960 . S
H897 C896 0.961 . S
H898 C896 0.961 . S
H899 C896 0.960 . S
C900 N901 1.342 . S
C900 C904 1.401 . S
C900 C905 1.499 . S
N901 Co884 1.989 . S
N901 C900 1.342 . S
N901 N902 1.388 . S
N902 Co885 1.993 . S
N902 N901 1.388 . S
N902 C903 1.346 . S
C903 N902 1.346 . S
C903 C904 1.396 . S
C903 C913 1.510 . S
C904 C900 1.401 . S
C904 C903 1.396 . S
C905 C900 1.499 . S
C905 H906 0.959 . S
C905 H907 0.960 . S
C905 H908 0.961 . S
H906 C905 0.959 . S
H907 C905 0.960 . S
H908 C905 0.961 . S
O909 Co884 1.967 . S
O909 C917 1.258 . S
O910 Co885 1.941 . S
O910 C917 1.266 . S
H911 C913 0.959 . S
H912 C913 0.961 . S
C913 C903 1.510 . S
C913 H911 0.959 . S
C913 H912 0.961 . S
C913 H914 0.960 . S
H914 C913 0.960 . S
H915 N895 0.862 . S
O916 Co884 1.920 . S
O916 C889 1.289 . S
C917 O909 1.258 . S
C917 O910 1.266 . S
Co918 O921 1.970 . S
Co918 N935 1.989 . S
Co918 O943 1.967 . S
Co918 O950 1.920 . S
Co919 O922 1.966 . S
Co919 N928 2.022 . S
Co919 N936 1.993 . S
Co919 O944 1.941 . S
C920 O921 1.258 . S
C920 O922 1.263 . S
O921 Co918 1.970 . S
O921 C920 1.258 . S
O922 Co919 1.966 . S
O922 C920 1.263 . S
C923 O924 1.235 . S
C923 O950 1.289 . S
O924 C923 1.235 . S
C925 C927 1.400 . S
C925 N928 1.351 . S
C925 C930 1.501 . S
C926 C927 1.387 . S
C926 N929 1.341 . S
C927 C925 1.400 . S
C927 C926 1.387 . S
N928 Co919 2.022 . S
N928 C925 1.351 . S
N928 N929 1.365 . S
N929 C926 1.341 . S
N929 N928 1.365 . S
N929 H949 0.862 . S
C930 C925 1.501 . S
C930 H931 0.961 . S
C930 H932 0.961 . S
C930 H933 0.960 . S
H931 C930 0.961 . S
H932 C930 0.961 . S
H933 C930 0.960 . S
C934 N935 1.342 . S
C934 C938 1.401 . S
C934 C939 1.499 . S
N935 Co918 1.989 . S
N935 C934 1.342 . S
N935 N936 1.388 . S
N936 Co919 1.993 . S
N936 N935 1.388 . S
N936 C937 1.346 . S
C937 N936 1.346 . S
C937 C938 1.396 . S
C937 C947 1.510 . S
C938 C934 1.401 . S
C938 C937 1.396 . S
C939 C934 1.499 . S
C939 H940 0.959 . S
C939 H941 0.960 . S
C939 H942 0.961 . S
H940 C939 0.959 . S
H941 C939 0.960 . S
H942 C939 0.961 . S
O943 Co918 1.967 . S
O943 C951 1.258 . S
O944 Co919 1.941 . S
O944 C951 1.266 . S
H945 C947 0.959 . S
H946 C947 0.961 . S
C947 C937 1.510 . S
C947 H945 0.959 . S
C947 H946 0.961 . S
C947 H948 0.960 . S
H948 C947 0.960 . S
H949 N929 0.862 . S
O950 Co918 1.920 . S
O950 C923 1.289 . S
C951 O943 1.258 . S
C951 O944 1.266 . S
Co952 O955 1.970 . S
Co952 N969 1.989 . S
Co952 O977 1.967 . S
Co952 O984 1.920 . S
Co953 O956 1.966 . S
Co953 N962 2.022 . S
Co953 N970 1.993 . S
Co953 O978 1.941 . S
C954 O955 1.258 . S
C954 O956 1.263 . S
O955 Co952 1.970 . S
O955 C954 1.258 . S
O956 Co953 1.966 . S
O956 C954 1.263 . S
C957 O958 1.235 . S
C957 O984 1.289 . S
O958 C957 1.235 . S
C959 C961 1.400 . S
C959 N962 1.351 . S
C959 C964 1.501 . S
C960 C961 1.387 . S
C960 N963 1.341 . S
C961 C959 1.400 . S
C961 C960 1.387 . S
N962 Co953 2.022 . S
N962 C959 1.351 . S
N962 N963 1.365 . S
N963 C960 1.341 . S
N963 N962 1.365 . S
N963 H983 0.862 . S
C964 C959 1.501 . S
C964 H965 0.961 . S
C964 H966 0.961 . S
C964 H967 0.960 . S
H965 C964 0.961 . S
H966 C964 0.961 . S
H967 C964 0.960 . S
C968 N969 1.342 . S
C968 C972 1.401 . S
C968 C973 1.499 . S
N969 Co952 1.989 . S
N969 C968 1.342 . S
N969 N970 1.388 . S
N970 Co953 1.993 . S
N970 N969 1.388 . S
N970 C971 1.346 . S
C971 N970 1.346 . S
C971 C972 1.396 . S
C971 C981 1.510 . S
C972 C968 1.401 . S
C972 C971 1.396 . S
C973 C968 1.499 . S
C973 H974 0.959 . S
C973 H975 0.960 . S
C973 H976 0.961 . S
H974 C973 0.959 . S
H975 C973 0.960 . S
H976 C973 0.961 . S
O977 Co952 1.967 . S
O977 C985 1.258 . S
O978 Co953 1.941 . S
O978 C985 1.266 . S
H979 C981 0.959 . S
H980 C981 0.961 . S
C981 C971 1.510 . S
C981 H979 0.959 . S
C981 H980 0.961 . S
C981 H982 0.960 . S
H982 C981 0.960 . S
H983 N963 0.862 . S
O984 Co952 1.920 . S
O984 C957 1.289 . S
C985 O977 1.258 . S
C985 O978 1.266 . S
Co986 O989 1.970 . S
Co986 N1003 1.989 . S
Co986 O1011 1.967 . S
Co986 O1018 1.920 . S
Co987 O990 1.966 . S
Co987 N996 2.022 . S
Co987 N1004 1.993 . S
Co987 O1012 1.941 . S
C988 O989 1.258 . S
C988 O990 1.263 . S
O989 Co986 1.970 . S
O989 C988 1.258 . S
O990 Co987 1.966 . S
O990 C988 1.263 . S
C991 O992 1.235 . S
C991 O1018 1.289 . S
O992 C991 1.235 . S
C993 C995 1.400 . S
C993 N996 1.351 . S
C993 C998 1.501 . S
C994 C995 1.387 . S
C994 N997 1.341 . S
C995 C993 1.400 . S
C995 C994 1.387 . S
N996 Co987 2.022 . S
N996 C993 1.351 . S
N996 N997 1.365 . S
N997 C994 1.341 . S
N997 N996 1.365 . S
N997 H1017 0.862 . S
C998 C993 1.501 . S
C998 H999 0.961 . S
C998 H1000 0.961 . S
C998 H1001 0.960 . S
H999 C998 0.961 . S
H1000 C998 0.961 . S
H1001 C998 0.960 . S
C1002 N1003 1.342 . S
C1002 C1006 1.401 . S
C1002 C1007 1.499 . S
N1003 Co986 1.989 . S
N1003 C1002 1.342 . S
N1003 N1004 1.388 . S
N1004 Co987 1.993 . S
N1004 N1003 1.388 . S
N1004 C1005 1.346 . S
C1005 N1004 1.346 . S
C1005 C1006 1.396 . S
C1005 C1015 1.510 . S
C1006 C1002 1.401 . S
C1006 C1005 1.396 . S
C1007 C1002 1.499 . S
C1007 H1008 0.959 . S
C1007 H1009 0.960 . S
C1007 H1010 0.961 . S
H1008 C1007 0.959 . S
H1009 C1007 0.960 . S
H1010 C1007 0.961 . S
O1011 Co986 1.967 . S
O1011 C1019 1.258 . S
O1012 Co987 1.941 . S
O1012 C1019 1.266 . S
H1013 C1015 0.959 . S
H1014 C1015 0.961 . S
C1015 C1005 1.510 . S
C1015 H1013 0.959 . S
C1015 H1014 0.961 . S
C1015 H1016 0.960 . S
H1016 C1015 0.960 . S
H1017 N997 0.862 . S
O1018 Co986 1.920 . S
O1018 C991 1.289 . S
C1019 O1011 1.258 . S
C1019 O1012 1.266 . S
Co1020 O1023 1.970 . S
Co1020 N1037 1.989 . S
Co1020 O1045 1.967 . S
Co1020 O1052 1.920 . S
Co1021 O1024 1.966 . S
Co1021 N1030 2.022 . S
Co1021 N1038 1.993 . S
Co1021 O1046 1.941 . S
C1022 O1023 1.258 . S
C1022 O1024 1.263 . S
O1023 Co1020 1.970 . S
O1023 C1022 1.258 . S
O1024 Co1021 1.966 . S
O1024 C1022 1.263 . S
C1025 O1026 1.235 . S
C1025 O1052 1.289 . S
O1026 C1025 1.235 . S
C1027 C1029 1.400 . S
C1027 N1030 1.351 . S
C1027 C1032 1.501 . S
C1028 C1029 1.387 . S
C1028 N1031 1.341 . S
C1029 C1027 1.400 . S
C1029 C1028 1.387 . S
N1030 Co1021 2.022 . S
N1030 C1027 1.351 . S
N1030 N1031 1.365 . S
N1031 C1028 1.341 . S
N1031 N1030 1.365 . S
N1031 H1051 0.862 . S
C1032 C1027 1.501 . S
C1032 H1033 0.961 . S
C1032 H1034 0.961 . S
C1032 H1035 0.960 . S
H1033 C1032 0.961 . S
H1034 C1032 0.961 . S
H1035 C1032 0.960 . S
C1036 N1037 1.342 . S
C1036 C1040 1.401 . S
C1036 C1041 1.499 . S
N1037 Co1020 1.989 . S
N1037 C1036 1.342 . S
N1037 N1038 1.388 . S
N1038 Co1021 1.993 . S
N1038 N1037 1.388 . S
N1038 C1039 1.346 . S
C1039 N1038 1.346 . S
C1039 C1040 1.396 . S
C1039 C1049 1.510 . S
C1040 C1036 1.401 . S
C1040 C1039 1.396 . S
C1041 C1036 1.499 . S
C1041 H1042 0.959 . S
C1041 H1043 0.960 . S
C1041 H1044 0.961 . S
H1042 C1041 0.959 . S
H1043 C1041 0.960 . S
H1044 C1041 0.961 . S
O1045 Co1020 1.967 . S
O1045 C1053 1.258 . S
O1046 Co1021 1.941 . S
O1046 C1053 1.266 . S
H1047 C1049 0.959 . S
H1048 C1049 0.961 . S
C1049 C1039 1.510 . S
C1049 H1047 0.959 . S
C1049 H1048 0.961 . S
C1049 H1050 0.960 . S
H1050 C1049 0.960 . S
H1051 N1031 0.862 . S
O1052 Co1020 1.920 . S
O1052 C1025 1.289 . S
C1053 O1045 1.258 . S
C1053 O1046 1.266 . S
Co1054 O1057 1.970 . S
Co1054 N1071 1.989 . S
Co1054 O1079 1.967 . S
Co1054 O1086 1.920 . S
Co1055 O1058 1.966 . S
Co1055 N1064 2.022 . S
Co1055 N1072 1.993 . S
Co1055 O1080 1.941 . S
C1056 O1057 1.258 . S
C1056 O1058 1.263 . S
O1057 Co1054 1.970 . S
O1057 C1056 1.258 . S
O1058 Co1055 1.966 . S
O1058 C1056 1.263 . S
C1059 O1060 1.235 . S
C1059 O1086 1.289 . S
O1060 C1059 1.235 . S
C1061 C1063 1.400 . S
C1061 N1064 1.351 . S
C1061 C1066 1.501 . S
C1062 C1063 1.387 . S
C1062 N1065 1.341 . S
C1063 C1061 1.400 . S
C1063 C1062 1.387 . S
N1064 Co1055 2.022 . S
N1064 C1061 1.351 . S
N1064 N1065 1.365 . S
N1065 C1062 1.341 . S
N1065 N1064 1.365 . S
N1065 H1085 0.862 . S
C1066 C1061 1.501 . S
C1066 H1067 0.961 . S
C1066 H1068 0.961 . S
C1066 H1069 0.960 . S
H1067 C1066 0.961 . S
H1068 C1066 0.961 . S
H1069 C1066 0.960 . S
C1070 N1071 1.342 . S
C1070 C1074 1.401 . S
C1070 C1075 1.499 . S
N1071 Co1054 1.989 . S
N1071 C1070 1.342 . S
N1071 N1072 1.388 . S
N1072 Co1055 1.993 . S
N1072 N1071 1.388 . S
N1072 C1073 1.346 . S
C1073 N1072 1.346 . S
C1073 C1074 1.396 . S
C1073 C1083 1.510 . S
C1074 C1070 1.401 . S
C1074 C1073 1.396 . S
C1075 C1070 1.499 . S
C1075 H1076 0.959 . S
C1075 H1077 0.960 . S
C1075 H1078 0.961 . S
H1076 C1075 0.959 . S
H1077 C1075 0.960 . S
H1078 C1075 0.961 . S
O1079 Co1054 1.967 . S
O1079 C1087 1.258 . S
O1080 Co1055 1.941 . S
O1080 C1087 1.266 . S
H1081 C1083 0.959 . S
H1082 C1083 0.961 . S
C1083 C1073 1.510 . S
C1083 H1081 0.959 . S
C1083 H1082 0.961 . S
C1083 H1084 0.960 . S
H1084 C1083 0.960 . S
H1085 N1065 0.862 . S
O1086 Co1054 1.920 . S
O1086 C1059 1.289 . S
C1087 O1079 1.258 . S
C1087 O1080 1.266 . S
Co1088 O1091 1.970 . S
Co1088 N1105 1.989 . S
Co1088 O1113 1.967 . S
Co1088 O1120 1.920 . S
Co1089 O1092 1.966 . S
Co1089 N1098 2.022 . S
Co1089 N1106 1.993 . S
Co1089 O1114 1.941 . S
C1090 O1091 1.258 . S
C1090 O1092 1.263 . S
O1091 Co1088 1.970 . S
O1091 C1090 1.258 . S
O1092 Co1089 1.966 . S
O1092 C1090 1.263 . S
C1093 O1094 1.235 . S
C1093 O1120 1.289 . S
O1094 C1093 1.235 . S
C1095 C1097 1.400 . S
C1095 N1098 1.351 . S
C1095 C1100 1.501 . S
C1096 C1097 1.387 . S
C1096 N1099 1.341 . S
C1097 C1095 1.400 . S
C1097 C1096 1.387 . S
N1098 Co1089 2.022 . S
N1098 C1095 1.351 . S
N1098 N1099 1.365 . S
N1099 C1096 1.341 . S
N1099 N1098 1.365 . S
N1099 H1119 0.862 . S
C1100 C1095 1.501 . S
C1100 H1101 0.961 . S
C1100 H1102 0.961 . S
C1100 H1103 0.960 . S
H1101 C1100 0.961 . S
H1102 C1100 0.961 . S
H1103 C1100 0.960 . S
C1104 N1105 1.342 . S
C1104 C1108 1.401 . S
C1104 C1109 1.499 . S
N1105 Co1088 1.989 . S
N1105 C1104 1.342 . S
N1105 N1106 1.388 . S
N1106 Co1089 1.993 . S
N1106 N1105 1.388 . S
N1106 C1107 1.346 . S
C1107 N1106 1.346 . S
C1107 C1108 1.396 . S
C1107 C1117 1.510 . S
C1108 C1104 1.401 . S
C1108 C1107 1.396 . S
C1109 C1104 1.499 . S
C1109 H1110 0.959 . S
C1109 H1111 0.960 . S
C1109 H1112 0.961 . S
H1110 C1109 0.959 . S
H1111 C1109 0.960 . S
H1112 C1109 0.961 . S
O1113 Co1088 1.967 . S
O1113 C1121 1.258 . S
O1114 Co1089 1.941 . S
O1114 C1121 1.266 . S
H1115 C1117 0.959 . S
H1116 C1117 0.961 . S
C1117 C1107 1.510 . S
C1117 H1115 0.959 . S
C1117 H1116 0.961 . S
C1117 H1118 0.960 . S
H1118 C1117 0.960 . S
H1119 N1099 0.862 . S
O1120 Co1088 1.920 . S
O1120 C1093 1.289 . S
C1121 O1113 1.258 . S
C1121 O1114 1.266 . S
Co1122 O1125 1.970 . S
Co1122 N1139 1.989 . S
Co1122 O1147 1.967 . S
Co1122 O1154 1.920 . S
Co1123 O1126 1.966 . S
Co1123 N1132 2.022 . S
Co1123 N1140 1.993 . S
Co1123 O1148 1.941 . S
C1124 O1125 1.258 . S
C1124 O1126 1.263 . S
O1125 Co1122 1.970 . S
O1125 C1124 1.258 . S
O1126 Co1123 1.966 . S
O1126 C1124 1.263 . S
C1127 O1128 1.235 . S
C1127 O1154 1.289 . S
O1128 C1127 1.235 . S
C1129 C1131 1.400 . S
C1129 N1132 1.351 . S
C1129 C1134 1.501 . S
C1130 C1131 1.387 . S
C1130 N1133 1.341 . S
C1131 C1129 1.400 . S
C1131 C1130 1.387 . S
N1132 Co1123 2.022 . S
N1132 C1129 1.351 . S
N1132 N1133 1.365 . S
N1133 C1130 1.341 . S
N1133 N1132 1.365 . S
N1133 H1153 0.862 . S
C1134 C1129 1.501 . S
C1134 H1135 0.961 . S
C1134 H1136 0.961 . S
C1134 H1137 0.960 . S
H1135 C1134 0.961 . S
H1136 C1134 0.961 . S
H1137 C1134 0.960 . S
C1138 N1139 1.342 . S
C1138 C1142 1.401 . S
C1138 C1143 1.499 . S
N1139 Co1122 1.989 . S
N1139 C1138 1.342 . S
N1139 N1140 1.388 . S
N1140 Co1123 1.993 . S
N1140 N1139 1.388 . S
N1140 C1141 1.346 . S
C1141 N1140 1.346 . S
C1141 C1142 1.396 . S
C1141 C1151 1.510 . S
C1142 C1138 1.401 . S
C1142 C1141 1.396 . S
C1143 C1138 1.499 . S
C1143 H1144 0.959 . S
C1143 H1145 0.960 . S
C1143 H1146 0.961 1_565 S
H1144 C1143 0.959 . S
H1145 C1143 0.960 . S
H1146 C1143 0.961 1_545 S
O1147 Co1122 1.967 . S
O1147 C1155 1.258 . S
O1148 Co1123 1.941 . S
O1148 C1155 1.266 . S
H1149 C1151 0.959 . S
H1150 C1151 0.961 . S
C1151 C1141 1.510 . S
C1151 H1149 0.959 . S
C1151 H1150 0.961 . S
C1151 H1152 0.960 . S
H1152 C1151 0.960 . S
H1153 N1133 0.862 . S
O1154 Co1122 1.920 . S
O1154 C1127 1.289 . S
C1155 O1147 1.258 . S
C1155 O1148 1.266 . S
Co1156 O1159 1.970 . S
Co1156 N1173 1.989 . S
Co1156 O1181 1.967 . S
Co1156 O1188 1.920 . S
Co1157 O1160 1.966 . S
Co1157 N1166 2.022 . S
Co1157 N1174 1.993 . S
Co1157 O1182 1.941 . S
C1158 O1159 1.258 . S
C1158 O1160 1.263 . S
O1159 Co1156 1.970 . S
O1159 C1158 1.258 . S
O1160 Co1157 1.966 . S
O1160 C1158 1.263 . S
C1161 O1162 1.235 . S
C1161 O1188 1.289 . S
O1162 C1161 1.235 . S
C1163 C1165 1.400 . S
C1163 N1166 1.351 . S
C1163 C1168 1.501 . S
C1164 C1165 1.387 . S
C1164 N1167 1.341 . S
C1165 C1163 1.400 . S
C1165 C1164 1.387 . S
N1166 Co1157 2.022 . S
N1166 C1163 1.351 . S
N1166 N1167 1.365 . S
N1167 C1164 1.341 . S
N1167 N1166 1.365 . S
N1167 H1187 0.862 . S
C1168 C1163 1.501 . S
C1168 H1169 0.961 . S
C1168 H1170 0.961 . S
C1168 H1171 0.960 . S
H1169 C1168 0.961 . S
H1170 C1168 0.961 . S
H1171 C1168 0.960 . S
C1172 N1173 1.342 . S
C1172 C1176 1.401 . S
C1172 C1177 1.499 . S
N1173 Co1156 1.989 . S
N1173 C1172 1.342 . S
N1173 N1174 1.388 . S
N1174 Co1157 1.993 . S
N1174 N1173 1.388 . S
N1174 C1175 1.346 . S
C1175 N1174 1.346 . S
C1175 C1176 1.396 . S
C1175 C1185 1.510 . S
C1176 C1172 1.401 . S
C1176 C1175 1.396 . S
C1177 C1172 1.499 . S
C1177 H1178 0.959 . S
C1177 H1179 0.960 . S
C1177 H1180 0.961 . S
H1178 C1177 0.959 . S
H1179 C1177 0.960 . S
H1180 C1177 0.961 . S
O1181 Co1156 1.967 . S
O1181 C1189 1.258 . S
O1182 Co1157 1.941 . S
O1182 C1189 1.266 . S
H1183 C1185 0.959 . S
H1184 C1185 0.961 . S
C1185 C1175 1.510 . S
C1185 H1183 0.959 . S
C1185 H1184 0.961 . S
C1185 H1186 0.960 . S
H1186 C1185 0.960 . S
H1187 N1167 0.862 . S
O1188 Co1156 1.920 . S
O1188 C1161 1.289 . S
C1189 O1181 1.258 . S
C1189 O1182 1.266 . S
Co1190 O1193 1.970 . S
Co1190 N1207 1.989 . S
Co1190 O1215 1.967 . S
Co1190 O1222 1.920 . S
Co1191 O1194 1.966 . S
Co1191 N1200 2.022 . S
Co1191 N1208 1.993 . S
Co1191 O1216 1.941 . S
C1192 O1193 1.258 . S
C1192 O1194 1.263 . S
O1193 Co1190 1.970 . S
O1193 C1192 1.258 . S
O1194 Co1191 1.966 . S
O1194 C1192 1.263 . S
C1195 O1196 1.235 . S
C1195 O1222 1.289 . S
O1196 C1195 1.235 . S
C1197 C1199 1.400 . S
C1197 N1200 1.351 . S
C1197 C1202 1.501 . S
C1198 C1199 1.387 . S
C1198 N1201 1.341 . S
C1199 C1197 1.400 . S
C1199 C1198 1.387 . S
N1200 Co1191 2.022 . S
N1200 C1197 1.351 . S
N1200 N1201 1.365 . S
N1201 C1198 1.341 . S
N1201 N1200 1.365 . S
N1201 H1221 0.862 . S
C1202 C1197 1.501 . S
C1202 H1203 0.961 . S
C1202 H1204 0.961 . S
C1202 H1205 0.960 . S
H1203 C1202 0.961 . S
H1204 C1202 0.961 . S
H1205 C1202 0.960 . S
C1206 N1207 1.342 . S
C1206 C1210 1.401 . S
C1206 C1211 1.499 . S
N1207 Co1190 1.989 . S
N1207 C1206 1.342 . S
N1207 N1208 1.388 . S
N1208 Co1191 1.993 . S
N1208 N1207 1.388 . S
N1208 C1209 1.346 . S
C1209 N1208 1.346 . S
C1209 C1210 1.396 . S
C1209 C1219 1.510 . S
C1210 C1206 1.401 . S
C1210 C1209 1.396 . S
C1211 C1206 1.499 . S
C1211 H1212 0.959 . S
C1211 H1213 0.960 . S
C1211 H1214 0.961 . S
H1212 C1211 0.959 . S
H1213 C1211 0.960 . S
H1214 C1211 0.961 . S
O1215 Co1190 1.967 . S
O1215 C1223 1.258 . S
O1216 Co1191 1.941 . S
O1216 C1223 1.266 . S
H1217 C1219 0.959 . S
H1218 C1219 0.961 . S
C1219 C1209 1.510 . S
C1219 H1217 0.959 . S
C1219 H1218 0.961 . S
C1219 H1220 0.960 . S
H1220 C1219 0.960 . S
H1221 N1201 0.862 . S
O1222 Co1190 1.920 . S
O1222 C1195 1.289 . S
C1223 O1215 1.258 . S
C1223 O1216 1.266 . S
Co1224 O1227 1.970 . S
Co1224 N1241 1.989 . S
Co1224 O1249 1.967 . S
Co1224 O1256 1.920 . S
Co1225 O1228 1.966 . S
Co1225 N1234 2.022 . S
Co1225 N1242 1.993 . S
Co1225 O1250 1.941 . S
C1226 O1227 1.258 . S
C1226 O1228 1.263 . S
O1227 Co1224 1.970 . S
O1227 C1226 1.258 . S
O1228 Co1225 1.966 . S
O1228 C1226 1.263 . S
C1229 O1230 1.235 . S
C1229 O1256 1.289 . S
O1230 C1229 1.235 . S
C1231 C1233 1.400 . S
C1231 N1234 1.351 . S
C1231 C1236 1.501 . S
C1232 C1233 1.387 . S
C1232 N1235 1.341 . S
C1233 C1231 1.400 . S
C1233 C1232 1.387 . S
N1234 Co1225 2.022 . S
N1234 C1231 1.351 . S
N1234 N1235 1.365 . S
N1235 C1232 1.341 . S
N1235 N1234 1.365 . S
N1235 H1255 0.862 . S
C1236 C1231 1.501 . S
C1236 H1237 0.961 . S
C1236 H1238 0.961 . S
C1236 H1239 0.960 . S
H1237 C1236 0.961 . S
H1238 C1236 0.961 . S
H1239 C1236 0.960 . S
C1240 N1241 1.342 . S
C1240 C1244 1.401 . S
C1240 C1245 1.499 . S
N1241 Co1224 1.989 . S
N1241 C1240 1.342 . S
N1241 N1242 1.388 . S
N1242 Co1225 1.993 . S
N1242 N1241 1.388 . S
N1242 C1243 1.346 . S
C1243 N1242 1.346 . S
C1243 C1244 1.396 . S
C1243 C1253 1.510 . S
C1244 C1240 1.401 . S
C1244 C1243 1.396 . S
C1245 C1240 1.499 . S
C1245 H1246 0.959 . S
C1245 H1247 0.960 . S
C1245 H1248 0.961 . S
H1246 C1245 0.959 . S
H1247 C1245 0.960 . S
H1248 C1245 0.961 . S
O1249 Co1224 1.967 . S
O1249 C1257 1.258 . S
O1250 Co1225 1.941 . S
O1250 C1257 1.266 . S
H1251 C1253 0.959 . S
H1252 C1253 0.961 . S
C1253 C1243 1.510 . S
C1253 H1251 0.959 . S
C1253 H1252 0.961 . S
C1253 H1254 0.960 . S
H1254 C1253 0.960 . S
H1255 N1235 0.862 . S
O1256 Co1224 1.920 . S
O1256 C1229 1.289 . S
C1257 O1249 1.258 . S
C1257 O1250 1.266 . S
Co1258 O1261 1.970 . S
Co1258 N1275 1.989 . S
Co1258 O1283 1.967 . S
Co1258 O1290 1.920 . S
Co1259 O1262 1.966 . S
Co1259 N1268 2.022 . S
Co1259 N1276 1.993 . S
Co1259 O1284 1.941 . S
C1260 O1261 1.258 . S
C1260 O1262 1.263 . S
O1261 Co1258 1.970 . S
O1261 C1260 1.258 . S
O1262 Co1259 1.966 . S
O1262 C1260 1.263 . S
C1263 O1264 1.235 . S
C1263 O1290 1.289 . S
O1264 C1263 1.235 . S
C1265 C1267 1.400 . S
C1265 N1268 1.351 . S
C1265 C1270 1.501 . S
C1266 C1267 1.387 . S
C1266 N1269 1.341 . S
C1267 C1265 1.400 . S
C1267 C1266 1.387 . S
N1268 Co1259 2.022 . S
N1268 C1265 1.351 . S
N1268 N1269 1.365 . S
N1269 C1266 1.341 . S
N1269 N1268 1.365 . S
N1269 H1289 0.862 . S
C1270 C1265 1.501 . S
C1270 H1271 0.961 . S
C1270 H1272 0.961 . S
C1270 H1273 0.960 . S
H1271 C1270 0.961 . S
H1272 C1270 0.961 . S
H1273 C1270 0.960 . S
C1274 N1275 1.342 . S
C1274 C1278 1.401 . S
C1274 C1279 1.499 . S
N1275 Co1258 1.989 . S
N1275 C1274 1.342 . S
N1275 N1276 1.388 . S
N1276 Co1259 1.993 . S
N1276 N1275 1.388 . S
N1276 C1277 1.346 . S
C1277 N1276 1.346 . S
C1277 C1278 1.396 . S
C1277 C1287 1.510 . S
C1278 C1274 1.401 . S
C1278 C1277 1.396 . S
C1279 C1274 1.499 . S
C1279 H1280 0.959 . S
C1279 H1281 0.960 . S
C1279 H1282 0.961 1_565 S
H1280 C1279 0.959 . S
H1281 C1279 0.960 . S
H1282 C1279 0.961 1_545 S
O1283 Co1258 1.967 . S
O1283 C1291 1.258 . S
O1284 Co1259 1.941 . S
O1284 C1291 1.266 . S
H1285 C1287 0.959 . S
H1286 C1287 0.961 . S
C1287 C1277 1.510 . S
C1287 H1285 0.959 . S
C1287 H1286 0.961 . S
C1287 H1288 0.960 . S
H1288 C1287 0.960 . S
H1289 N1269 0.862 . S
O1290 Co1258 1.920 . S
O1290 C1263 1.289 . S
C1291 O1283 1.258 . S
C1291 O1284 1.266 . S
Co1292 O1295 1.970 . S
Co1292 N1309 1.989 . S
Co1292 O1317 1.967 . S
Co1292 O1324 1.920 . S
Co1293 O1296 1.966 . S
Co1293 N1302 2.022 . S
Co1293 N1310 1.993 . S
Co1293 O1318 1.941 . S
C1294 O1295 1.258 . S
C1294 O1296 1.263 . S
O1295 Co1292 1.970 . S
O1295 C1294 1.258 . S
O1296 Co1293 1.966 . S
O1296 C1294 1.263 . S
C1297 O1298 1.235 . S
C1297 O1324 1.289 . S
O1298 C1297 1.235 . S
C1299 C1301 1.400 . S
C1299 N1302 1.351 . S
C1299 C1304 1.501 . S
C1300 C1301 1.387 . S
C1300 N1303 1.341 . S
C1301 C1299 1.400 . S
C1301 C1300 1.387 . S
N1302 Co1293 2.022 . S
N1302 C1299 1.351 . S
N1302 N1303 1.365 . S
N1303 C1300 1.341 . S
N1303 N1302 1.365 . S
N1303 H1323 0.862 . S
C1304 C1299 1.501 . S
C1304 H1305 0.961 . S
C1304 H1306 0.961 . S
C1304 H1307 0.960 . S
H1305 C1304 0.961 . S
H1306 C1304 0.961 . S
H1307 C1304 0.960 . S
C1308 N1309 1.342 . S
C1308 C1312 1.401 . S
C1308 C1313 1.499 . S
N1309 Co1292 1.989 . S
N1309 C1308 1.342 . S
N1309 N1310 1.388 . S
N1310 Co1293 1.993 . S
N1310 N1309 1.388 . S
N1310 C1311 1.346 . S
C1311 N1310 1.346 . S
C1311 C1312 1.396 . S
C1311 C1321 1.510 . S
C1312 C1308 1.401 . S
C1312 C1311 1.396 . S
C1313 C1308 1.499 . S
C1313 H1314 0.959 . S
C1313 H1315 0.960 . S
C1313 H1316 0.961 . S
H1314 C1313 0.959 . S
H1315 C1313 0.960 . S
H1316 C1313 0.961 . S
O1317 Co1292 1.967 . S
O1317 C1325 1.258 . S
O1318 Co1293 1.941 . S
O1318 C1325 1.266 . S
H1319 C1321 0.959 . S
H1320 C1321 0.961 . S
C1321 C1311 1.510 . S
C1321 H1319 0.959 . S
C1321 H1320 0.961 . S
C1321 H1322 0.960 . S
H1322 C1321 0.960 . S
H1323 N1303 0.862 . S
O1324 Co1292 1.920 . S
O1324 C1297 1.289 . S
C1325 O1317 1.258 . S
C1325 O1318 1.266 . S
Co1326 O1329 1.970 . S
Co1326 N1343 1.989 . S
Co1326 O1351 1.967 . S
Co1326 O1358 1.920 . S
Co1327 O1330 1.966 . S
Co1327 N1336 2.022 . S
Co1327 N1344 1.993 . S
Co1327 O1352 1.941 . S
C1328 O1329 1.258 . S
C1328 O1330 1.263 . S
O1329 Co1326 1.970 . S
O1329 C1328 1.258 . S
O1330 Co1327 1.966 . S
O1330 C1328 1.263 . S
C1331 O1332 1.235 . S
C1331 O1358 1.289 . S
O1332 C1331 1.235 . S
C1333 C1335 1.400 . S
C1333 N1336 1.351 . S
C1333 C1338 1.501 . S
C1334 C1335 1.387 . S
C1334 N1337 1.341 . S
C1335 C1333 1.400 . S
C1335 C1334 1.387 . S
N1336 Co1327 2.022 . S
N1336 C1333 1.351 . S
N1336 N1337 1.365 . S
N1337 C1334 1.341 . S
N1337 N1336 1.365 . S
N1337 H1357 0.862 . S
C1338 C1333 1.501 . S
C1338 H1339 0.961 . S
C1338 H1340 0.961 . S
C1338 H1341 0.960 . S
H1339 C1338 0.961 . S
H1340 C1338 0.961 . S
H1341 C1338 0.960 . S
C1342 N1343 1.342 . S
C1342 C1346 1.401 . S
C1342 C1347 1.499 . S
N1343 Co1326 1.989 . S
N1343 C1342 1.342 . S
N1343 N1344 1.388 . S
N1344 Co1327 1.993 . S
N1344 N1343 1.388 . S
N1344 C1345 1.346 . S
C1345 N1344 1.346 . S
C1345 C1346 1.396 . S
C1345 C1355 1.510 . S
C1346 C1342 1.401 . S
C1346 C1345 1.396 . S
C1347 C1342 1.499 . S
C1347 H1348 0.959 . S
C1347 H1349 0.960 . S
C1347 H1350 0.961 . S
H1348 C1347 0.959 . S
H1349 C1347 0.960 . S
H1350 C1347 0.961 . S
O1351 Co1326 1.967 . S
O1351 C1359 1.258 . S
O1352 Co1327 1.941 . S
O1352 C1359 1.266 . S
H1353 C1355 0.959 . S
H1354 C1355 0.961 . S
C1355 C1345 1.510 . S
C1355 H1353 0.959 . S
C1355 H1354 0.961 . S
C1355 H1356 0.960 . S
H1356 C1355 0.960 . S
H1357 N1337 0.862 . S
O1358 Co1326 1.920 . S
O1358 C1331 1.289 . S
C1359 O1351 1.258 . S
C1359 O1352 1.266 . S
Co1360 O1363 1.970 . S
Co1360 N1377 1.989 . S
Co1360 O1385 1.967 . S
Co1360 O1392 1.920 . S
Co1361 O1364 1.966 . S
Co1361 N1370 2.022 . S
Co1361 N1378 1.993 . S
Co1361 O1386 1.941 . S
C1362 O1363 1.258 . S
C1362 O1364 1.263 . S
O1363 Co1360 1.970 . S
O1363 C1362 1.258 . S
O1364 Co1361 1.966 . S
O1364 C1362 1.263 . S
C1365 O1366 1.235 . S
C1365 O1392 1.289 . S
O1366 C1365 1.235 . S
C1367 C1369 1.400 . S
C1367 N1370 1.351 . S
C1367 C1372 1.501 . S
C1368 C1369 1.387 . S
C1368 N1371 1.341 . S
C1369 C1367 1.400 . S
C1369 C1368 1.387 . S
N1370 Co1361 2.022 . S
N1370 C1367 1.351 . S
N1370 N1371 1.365 . S
N1371 C1368 1.341 . S
N1371 N1370 1.365 . S
N1371 H1391 0.862 . S
C1372 C1367 1.501 . S
C1372 H1373 0.961 . S
C1372 H1374 0.961 . S
C1372 H1375 0.960 . S
H1373 C1372 0.961 . S
H1374 C1372 0.961 . S
H1375 C1372 0.960 . S
C1376 N1377 1.342 . S
C1376 C1380 1.401 . S
C1376 C1381 1.499 . S
N1377 Co1360 1.989 . S
N1377 C1376 1.342 . S
N1377 N1378 1.388 . S
N1378 Co1361 1.993 . S
N1378 N1377 1.388 . S
N1378 C1379 1.346 . S
C1379 N1378 1.346 . S
C1379 C1380 1.396 . S
C1379 C1389 1.510 . S
C1380 C1376 1.401 . S
C1380 C1379 1.396 . S
C1381 C1376 1.499 . S
C1381 H1382 0.959 . S
C1381 H1383 0.960 . S
C1381 H1384 0.961 . S
H1382 C1381 0.959 . S
H1383 C1381 0.960 . S
H1384 C1381 0.961 . S
O1385 Co1360 1.967 . S
O1385 C1393 1.258 . S
O1386 Co1361 1.941 . S
O1386 C1393 1.266 . S
H1387 C1389 0.959 . S
H1388 C1389 0.961 . S
C1389 C1379 1.510 . S
C1389 H1387 0.959 . S
C1389 H1388 0.961 . S
C1389 H1390 0.960 . S
H1390 C1389 0.960 . S
H1391 N1371 0.862 . S
O1392 Co1360 1.920 . S
O1392 C1365 1.289 . S
C1393 O1385 1.258 . S
C1393 O1386 1.266 . S
Co1394 O1397 1.970 . S
Co1394 N1411 1.989 . S
Co1394 O1419 1.967 . S
Co1394 O1426 1.920 . S
Co1395 O1398 1.966 . S
Co1395 N1404 2.022 . S
Co1395 N1412 1.993 . S
Co1395 O1420 1.941 . S
C1396 O1397 1.258 . S
C1396 O1398 1.263 . S
O1397 Co1394 1.970 . S
O1397 C1396 1.258 . S
O1398 Co1395 1.966 . S
O1398 C1396 1.263 . S
C1399 O1400 1.235 . S
C1399 O1426 1.289 . S
O1400 C1399 1.235 . S
C1401 C1403 1.400 . S
C1401 N1404 1.351 . S
C1401 C1406 1.501 . S
C1402 C1403 1.387 . S
C1402 N1405 1.341 . S
C1403 C1401 1.400 . S
C1403 C1402 1.387 . S
N1404 Co1395 2.022 . S
N1404 C1401 1.351 . S
N1404 N1405 1.365 . S
N1405 C1402 1.341 . S
N1405 N1404 1.365 . S
N1405 H1425 0.862 . S
C1406 C1401 1.501 . S
C1406 H1407 0.961 . S
C1406 H1408 0.961 . S
C1406 H1409 0.960 . S
H1407 C1406 0.961 . S
H1408 C1406 0.961 . S
H1409 C1406 0.960 . S
C1410 N1411 1.342 . S
C1410 C1414 1.401 . S
C1410 C1415 1.499 . S
N1411 Co1394 1.989 . S
N1411 C1410 1.342 . S
N1411 N1412 1.388 . S
N1412 Co1395 1.993 . S
N1412 N1411 1.388 . S
N1412 C1413 1.346 . S
C1413 N1412 1.346 . S
C1413 C1414 1.396 . S
C1413 C1423 1.510 . S
C1414 C1410 1.401 . S
C1414 C1413 1.396 . S
C1415 C1410 1.499 . S
C1415 H1416 0.959 . S
C1415 H1417 0.960 . S
C1415 H1418 0.961 . S
H1416 C1415 0.959 . S
H1417 C1415 0.960 . S
H1418 C1415 0.961 . S
O1419 Co1394 1.967 . S
O1419 C1427 1.258 . S
O1420 Co1395 1.941 . S
O1420 C1427 1.266 . S
H1421 C1423 0.959 . S
H1422 C1423 0.961 . S
C1423 C1413 1.510 . S
C1423 H1421 0.959 . S
C1423 H1422 0.961 . S
C1423 H1424 0.960 . S
H1424 C1423 0.960 . S
H1425 N1405 0.862 . S
O1426 Co1394 1.920 . S
O1426 C1399 1.289 . S
C1427 O1419 1.258 . S
C1427 O1420 1.266 . S
Co1428 O1431 1.970 . S
Co1428 N1445 1.989 . S
Co1428 O1453 1.967 . S
Co1428 O1460 1.920 . S
Co1429 O1432 1.966 . S
Co1429 N1438 2.022 . S
Co1429 N1446 1.993 . S
Co1429 O1454 1.941 . S
C1430 O1431 1.258 . S
C1430 O1432 1.263 . S
O1431 Co1428 1.970 . S
O1431 C1430 1.258 . S
O1432 Co1429 1.966 . S
O1432 C1430 1.263 . S
C1433 O1434 1.235 . S
C1433 O1460 1.289 . S
O1434 C1433 1.235 . S
C1435 C1437 1.400 . S
C1435 N1438 1.351 . S
C1435 C1440 1.501 . S
C1436 C1437 1.387 . S
C1436 N1439 1.341 . S
C1437 C1435 1.400 . S
C1437 C1436 1.387 . S
N1438 Co1429 2.022 . S
N1438 C1435 1.351 . S
N1438 N1439 1.365 . S
N1439 C1436 1.341 . S
N1439 N1438 1.365 . S
N1439 H1459 0.862 . S
C1440 C1435 1.501 . S
C1440 H1441 0.961 . S
C1440 H1442 0.961 . S
C1440 H1443 0.960 . S
H1441 C1440 0.961 . S
H1442 C1440 0.961 . S
H1443 C1440 0.960 . S
C1444 N1445 1.342 . S
C1444 C1448 1.401 . S
C1444 C1449 1.499 . S
N1445 Co1428 1.989 . S
N1445 C1444 1.342 . S
N1445 N1446 1.388 . S
N1446 Co1429 1.993 . S
N1446 N1445 1.388 . S
N1446 C1447 1.346 . S
C1447 N1446 1.346 . S
C1447 C1448 1.396 . S
C1447 C1457 1.510 . S
C1448 C1444 1.401 . S
C1448 C1447 1.396 . S
C1449 C1444 1.499 . S
C1449 H1450 0.959 . S
C1449 H1451 0.960 . S
C1449 H1452 0.961 . S
H1450 C1449 0.959 . S
H1451 C1449 0.960 . S
H1452 C1449 0.961 . S
O1453 Co1428 1.967 . S
O1453 C1461 1.258 . S
O1454 Co1429 1.941 . S
O1454 C1461 1.266 . S
H1455 C1457 0.959 . S
H1456 C1457 0.961 . S
C1457 C1447 1.510 . S
C1457 H1455 0.959 . S
C1457 H1456 0.961 . S
C1457 H1458 0.960 . S
H1458 C1457 0.960 . S
H1459 N1439 0.862 . S
O1460 Co1428 1.920 . S
O1460 C1433 1.289 . S
C1461 O1453 1.258 . S
C1461 O1454 1.266 . S
Co1462 O1465 1.970 . S
Co1462 N1479 1.989 . S
Co1462 O1487 1.967 . S
Co1462 O1494 1.920 . S
Co1463 O1466 1.966 . S
Co1463 N1472 2.022 . S
Co1463 N1480 1.993 . S
Co1463 O1488 1.941 . S
C1464 O1465 1.258 . S
C1464 O1466 1.263 . S
O1465 Co1462 1.970 . S
O1465 C1464 1.258 . S
O1466 Co1463 1.966 . S
O1466 C1464 1.263 . S
C1467 O1468 1.235 . S
C1467 O1494 1.289 . S
O1468 C1467 1.235 . S
C1469 C1471 1.400 . S
C1469 N1472 1.351 . S
C1469 C1474 1.501 . S
C1470 C1471 1.387 . S
C1470 N1473 1.341 . S
C1471 C1469 1.400 . S
C1471 C1470 1.387 . S
N1472 Co1463 2.022 . S
N1472 C1469 1.351 . S
N1472 N1473 1.365 . S
N1473 C1470 1.341 . S
N1473 N1472 1.365 . S
N1473 H1493 0.862 . S
C1474 C1469 1.501 . S
C1474 H1475 0.961 . S
C1474 H1476 0.961 . S
C1474 H1477 0.960 . S
H1475 C1474 0.961 . S
H1476 C1474 0.961 . S
H1477 C1474 0.960 . S
C1478 N1479 1.342 . S
C1478 C1482 1.401 . S
C1478 C1483 1.499 . S
N1479 Co1462 1.989 . S
N1479 C1478 1.342 . S
N1479 N1480 1.388 . S
N1480 Co1463 1.993 . S
N1480 N1479 1.388 . S
N1480 C1481 1.346 . S
C1481 N1480 1.346 . S
C1481 C1482 1.396 . S
C1481 C1491 1.510 . S
C1482 C1478 1.401 . S
C1482 C1481 1.396 . S
C1483 C1478 1.499 . S
C1483 H1484 0.959 . S
C1483 H1485 0.960 . S
C1483 H1486 0.961 . S
H1484 C1483 0.959 . S
H1485 C1483 0.960 . S
H1486 C1483 0.961 . S
O1487 Co1462 1.967 . S
O1487 C1495 1.258 . S
O1488 Co1463 1.941 . S
O1488 C1495 1.266 . S
H1489 C1491 0.959 . S
H1490 C1491 0.961 . S
C1491 C1481 1.510 . S
C1491 H1489 0.959 . S
C1491 H1490 0.961 . S
C1491 H1492 0.960 . S
H1492 C1491 0.960 . S
H1493 N1473 0.862 . S
O1494 Co1462 1.920 . S
O1494 C1467 1.289 . S
C1495 O1487 1.258 . S
C1495 O1488 1.266 . S
Co1496 O1499 1.970 . S
Co1496 N1513 1.989 . S
Co1496 O1521 1.967 . S
Co1496 O1528 1.920 . S
Co1497 O1500 1.966 . S
Co1497 N1506 2.022 . S
Co1497 N1514 1.993 . S
Co1497 O1522 1.941 . S
C1498 O1499 1.258 . S
C1498 O1500 1.263 . S
O1499 Co1496 1.970 . S
O1499 C1498 1.258 . S
O1500 Co1497 1.966 . S
O1500 C1498 1.263 . S
C1501 O1502 1.235 . S
C1501 O1528 1.289 . S
O1502 C1501 1.235 . S
C1503 C1505 1.400 . S
C1503 N1506 1.351 . S
C1503 C1508 1.501 . S
C1504 C1505 1.387 . S
C1504 N1507 1.341 . S
C1505 C1503 1.400 . S
C1505 C1504 1.387 . S
N1506 Co1497 2.022 . S
N1506 C1503 1.351 . S
N1506 N1507 1.365 . S
N1507 C1504 1.341 . S
N1507 N1506 1.365 . S
N1507 H1527 0.862 . S
C1508 C1503 1.501 . S
C1508 H1509 0.961 . S
C1508 H1510 0.961 . S
C1508 H1511 0.960 . S
H1509 C1508 0.961 . S
H1510 C1508 0.961 . S
H1511 C1508 0.960 . S
C1512 N1513 1.342 . S
C1512 C1516 1.401 . S
C1512 C1517 1.499 . S
N1513 Co1496 1.989 . S
N1513 C1512 1.342 . S
N1513 N1514 1.388 . S
N1514 Co1497 1.993 . S
N1514 N1513 1.388 . S
N1514 C1515 1.346 . S
C1515 N1514 1.346 . S
C1515 C1516 1.396 . S
C1515 C1525 1.510 . S
C1516 C1512 1.401 . S
C1516 C1515 1.396 . S
C1517 C1512 1.499 . S
C1517 H1518 0.959 . S
C1517 H1519 0.960 . S
C1517 H1520 0.961 1_455 S
H1518 C1517 0.959 . S
H1519 C1517 0.960 . S
H1520 C1517 0.961 1_655 S
O1521 Co1496 1.967 . S
O1521 C1529 1.258 . S
O1522 Co1497 1.941 . S
O1522 C1529 1.266 . S
H1523 C1525 0.959 . S
H1524 C1525 0.961 . S
C1525 C1515 1.510 . S
C1525 H1523 0.959 . S
C1525 H1524 0.961 . S
C1525 H1526 0.960 . S
H1526 C1525 0.960 . S
H1527 N1507 0.862 . S
O1528 Co1496 1.920 . S
O1528 C1501 1.289 . S
C1529 O1521 1.258 . S
C1529 O1522 1.266 . S
Co1530 O1533 1.970 . S
Co1530 N1547 1.989 . S
Co1530 O1555 1.967 . S
Co1530 O1562 1.920 . S
Co1531 O1534 1.966 . S
Co1531 N1540 2.022 . S
Co1531 N1548 1.993 . S
Co1531 O1556 1.941 . S
C1532 O1533 1.258 . S
C1532 O1534 1.263 . S
O1533 Co1530 1.970 . S
O1533 C1532 1.258 . S
O1534 Co1531 1.966 . S
O1534 C1532 1.263 . S
C1535 O1536 1.235 . S
C1535 O1562 1.289 . S
O1536 C1535 1.235 . S
C1537 C1539 1.400 . S
C1537 N1540 1.351 . S
C1537 C1542 1.501 . S
C1538 C1539 1.387 . S
C1538 N1541 1.341 . S
C1539 C1537 1.400 . S
C1539 C1538 1.387 . S
N1540 Co1531 2.022 . S
N1540 C1537 1.351 . S
N1540 N1541 1.365 . S
N1541 C1538 1.341 . S
N1541 N1540 1.365 . S
N1541 H1561 0.862 . S
C1542 C1537 1.501 . S
C1542 H1543 0.961 . S
C1542 H1544 0.961 . S
C1542 H1545 0.960 . S
H1543 C1542 0.961 . S
H1544 C1542 0.961 . S
H1545 C1542 0.960 . S
C1546 N1547 1.342 . S
C1546 C1550 1.401 . S
C1546 C1551 1.499 . S
N1547 Co1530 1.989 . S
N1547 C1546 1.342 . S
N1547 N1548 1.388 . S
N1548 Co1531 1.993 . S
N1548 N1547 1.388 . S
N1548 C1549 1.346 . S
C1549 N1548 1.346 . S
C1549 C1550 1.396 . S
C1549 C1559 1.510 . S
C1550 C1546 1.401 . S
C1550 C1549 1.396 . S
C1551 C1546 1.499 . S
C1551 H1552 0.959 . S
C1551 H1553 0.960 . S
C1551 H1554 0.961 . S
H1552 C1551 0.959 . S
H1553 C1551 0.960 . S
H1554 C1551 0.961 . S
O1555 Co1530 1.967 . S
O1555 C1563 1.258 . S
O1556 Co1531 1.941 . S
O1556 C1563 1.266 . S
H1557 C1559 0.959 . S
H1558 C1559 0.961 . S
C1559 C1549 1.510 . S
C1559 H1557 0.959 . S
C1559 H1558 0.961 . S
C1559 H1560 0.960 . S
H1560 C1559 0.960 . S
H1561 N1541 0.862 . S
O1562 Co1530 1.920 . S
O1562 C1535 1.289 . S
C1563 O1555 1.258 . S
C1563 O1556 1.266 . S
Co1564 O1567 1.970 . S
Co1564 N1581 1.989 . S
Co1564 O1589 1.967 . S
Co1564 O1596 1.920 . S
Co1565 O1568 1.966 . S
Co1565 N1574 2.022 . S
Co1565 N1582 1.993 . S
Co1565 O1590 1.941 . S
C1566 O1567 1.258 . S
C1566 O1568 1.263 . S
O1567 Co1564 1.970 . S
O1567 C1566 1.258 . S
O1568 Co1565 1.966 . S
O1568 C1566 1.263 . S
C1569 O1570 1.235 . S
C1569 O1596 1.289 . S
O1570 C1569 1.235 . S
C1571 C1573 1.400 . S
C1571 N1574 1.351 . S
C1571 C1576 1.501 . S
C1572 C1573 1.387 . S
C1572 N1575 1.341 . S
C1573 C1571 1.400 . S
C1573 C1572 1.387 . S
N1574 Co1565 2.022 . S
N1574 C1571 1.351 . S
N1574 N1575 1.365 . S
N1575 C1572 1.341 . S
N1575 N1574 1.365 . S
N1575 H1595 0.862 . S
C1576 C1571 1.501 . S
C1576 H1577 0.961 . S
C1576 H1578 0.961 . S
C1576 H1579 0.960 . S
H1577 C1576 0.961 . S
H1578 C1576 0.961 . S
H1579 C1576 0.960 . S
C1580 N1581 1.342 . S
C1580 C1584 1.401 . S
C1580 C1585 1.499 . S
N1581 Co1564 1.989 . S
N1581 C1580 1.342 . S
N1581 N1582 1.388 . S
N1582 Co1565 1.993 . S
N1582 N1581 1.388 . S
N1582 C1583 1.346 . S
C1583 N1582 1.346 . S
C1583 C1584 1.396 . S
C1583 C1593 1.510 . S
C1584 C1580 1.401 . S
C1584 C1583 1.396 . S
C1585 C1580 1.499 . S
C1585 H1586 0.959 . S
C1585 H1587 0.960 . S
C1585 H1588 0.961 . S
H1586 C1585 0.959 . S
H1587 C1585 0.960 . S
H1588 C1585 0.961 . S
O1589 Co1564 1.967 . S
O1589 C1597 1.258 . S
O1590 Co1565 1.941 . S
O1590 C1597 1.266 . S
H1591 C1593 0.959 . S
H1592 C1593 0.961 . S
C1593 C1583 1.510 . S
C1593 H1591 0.959 . S
C1593 H1592 0.961 . S
C1593 H1594 0.960 . S
H1594 C1593 0.960 . S
H1595 N1575 0.862 . S
O1596 Co1564 1.920 . S
O1596 C1569 1.289 . S
C1597 O1589 1.258 . S
C1597 O1590 1.266 . S
Co1598 O1601 1.970 . S
Co1598 N1615 1.989 . S
Co1598 O1623 1.967 . S
Co1598 O1630 1.920 . S
Co1599 O1602 1.966 . S
Co1599 N1608 2.022 . S
Co1599 N1616 1.993 . S
Co1599 O1624 1.941 . S
C1600 O1601 1.258 . S
C1600 O1602 1.263 . S
O1601 Co1598 1.970 . S
O1601 C1600 1.258 . S
O1602 Co1599 1.966 . S
O1602 C1600 1.263 . S
C1603 O1604 1.235 . S
C1603 O1630 1.289 . S
O1604 C1603 1.235 . S
C1605 C1607 1.400 . S
C1605 N1608 1.351 . S
C1605 C1610 1.501 . S
C1606 C1607 1.387 . S
C1606 N1609 1.341 . S
C1607 C1605 1.400 . S
C1607 C1606 1.387 . S
N1608 Co1599 2.022 . S
N1608 C1605 1.351 . S
N1608 N1609 1.365 . S
N1609 C1606 1.341 . S
N1609 N1608 1.365 . S
N1609 H1629 0.862 . S
C1610 C1605 1.501 . S
C1610 H1611 0.961 . S
C1610 H1612 0.961 . S
C1610 H1613 0.960 . S
H1611 C1610 0.961 . S
H1612 C1610 0.961 . S
H1613 C1610 0.960 . S
C1614 N1615 1.342 . S
C1614 C1618 1.401 . S
C1614 C1619 1.499 . S
N1615 Co1598 1.989 . S
N1615 C1614 1.342 . S
N1615 N1616 1.388 . S
N1616 Co1599 1.993 . S
N1616 N1615 1.388 . S
N1616 C1617 1.346 . S
C1617 N1616 1.346 . S
C1617 C1618 1.396 . S
C1617 C1627 1.510 . S
C1618 C1614 1.401 . S
C1618 C1617 1.396 . S
C1619 C1614 1.499 . S
C1619 H1620 0.959 . S
C1619 H1621 0.960 . S
C1619 H1622 0.961 . S
H1620 C1619 0.959 . S
H1621 C1619 0.960 . S
H1622 C1619 0.961 . S
O1623 Co1598 1.967 . S
O1623 C1631 1.258 . S
O1624 Co1599 1.941 . S
O1624 C1631 1.266 . S
H1625 C1627 0.959 . S
H1626 C1627 0.961 . S
C1627 C1617 1.510 . S
C1627 H1625 0.959 . S
C1627 H1626 0.961 . S
C1627 H1628 0.960 . S
H1628 C1627 0.960 . S
H1629 N1609 0.862 . S
O1630 Co1598 1.920 . S
O1630 C1603 1.289 . S
C1631 O1623 1.258 . S
C1631 O1624 1.266 . S
C1632 C1633 1.369 . S
C1632 C1634 1.419 . S
C1632 H1636 0.930 . S
C1633 C1632 1.369 . S
C1633 C1642 1.429 . S
C1634 C1632 1.419 . S
C1634 C1635 1.363 . S
C1634 H1637 0.929 . S
C1635 C1634 1.363 . S
C1635 C1641 1.428 . S
H1636 C1632 0.930 . S
H1637 C1634 0.929 . S
S1638 N1639 1.613 . S
S1638 N1640 1.610 . S
N1639 S1638 1.613 . S
N1639 C1642 1.350 . S
N1640 S1638 1.610 . S
N1640 C1641 1.351 . S
C1641 C1635 1.428 . S
C1641 N1640 1.351 . S
C1641 C1642 1.434 . S
C1642 C1633 1.429 . S
C1642 N1639 1.350 . S
C1642 C1641 1.434 . S
C1643 C1644 1.369 . S
C1643 C1645 1.419 . S
C1643 H1647 0.930 . S
C1644 C1643 1.369 . S
C1644 C1653 1.429 1_554 S
C1645 C1643 1.419 . S
C1645 C1646 1.363 . S
C1645 H1648 0.929 . S
C1646 C1645 1.363 . S
C1646 C1652 1.428 1_554 S
H1647 C1643 0.930 . S
H1648 C1645 0.929 . S
S1649 N1650 1.613 . S
S1649 N1651 1.610 . S
N1650 S1649 1.613 . S
N1650 C1653 1.350 . S
N1651 S1649 1.610 . S
N1651 C1652 1.351 . S
C1652 C1646 1.428 1_556 S
C1652 N1651 1.351 . S
C1652 C1653 1.434 . S
C1653 C1644 1.429 1_556 S
C1653 N1650 1.350 . S
C1653 C1652 1.434 . S
C1654 C1655 1.369 . S
C1654 C1656 1.419 . S
C1654 H1658 0.930 . S
C1655 C1654 1.369 . S
C1655 C1664 1.429 . S
C1656 C1654 1.419 . S
C1656 C1657 1.363 . S
C1656 H1659 0.929 . S
C1657 C1656 1.363 . S
C1657 C1663 1.428 . S
H1658 C1654 0.930 . S
H1659 C1656 0.929 . S
S1660 N1661 1.613 . S
S1660 N1662 1.610 . S
N1661 S1660 1.613 . S
N1661 C1664 1.350 . S
N1662 S1660 1.610 . S
N1662 C1663 1.351 . S
C1663 C1657 1.428 . S
C1663 N1662 1.351 . S
C1663 C1664 1.434 . S
C1664 C1655 1.429 . S
C1664 N1661 1.350 . S
C1664 C1663 1.434 . S
C1665 C1666 1.369 1_556 S
C1665 C1667 1.419 . S
C1665 H1669 0.930 . S
C1666 C1665 1.369 1_554 S
C1666 C1675 1.429 . S
C1667 C1665 1.419 . S
C1667 C1668 1.363 1_556 S
C1667 H1670 0.929 . S
C1668 C1667 1.363 1_554 S
C1668 C1674 1.428 . S
H1669 C1665 0.930 . S
H1670 C1667 0.929 . S
S1671 N1672 1.613 . S
S1671 N1673 1.610 . S
N1672 S1671 1.613 . S
N1672 C1675 1.350 . S
N1673 S1671 1.610 . S
N1673 C1674 1.351 . S
C1674 C1668 1.428 . S
C1674 N1673 1.351 . S
C1674 C1675 1.434 . S
C1675 C1666 1.429 . S
C1675 N1672 1.350 . S
C1675 C1674 1.434 . S
C1676 C1677 1.369 . S
C1676 C1678 1.419 . S
C1676 H1680 0.930 . S
C1677 C1676 1.369 . S
C1677 C1686 1.429 . S
C1678 C1676 1.419 . S
C1678 C1679 1.363 . S
C1678 H1681 0.929 . S
C1679 C1678 1.363 . S
C1679 C1685 1.428 . S
H1680 C1676 0.930 . S
H1681 C1678 0.929 . S
S1682 N1683 1.613 . S
S1682 N1684 1.610 . S
N1683 S1682 1.613 . S
N1683 C1686 1.350 . S
N1684 S1682 1.610 . S
N1684 C1685 1.351 . S
C1685 C1679 1.428 . S
C1685 N1684 1.351 . S
C1685 C1686 1.434 . S
C1686 C1677 1.429 . S
C1686 N1683 1.350 . S
C1686 C1685 1.434 . S
C1687 C1688 1.369 1_454 S
C1687 C1689 1.419 . S
C1687 H1691 0.930 1_455 S
C1688 C1687 1.369 1_656 S
C1688 C1697 1.429 1_655 S
C1689 C1687 1.419 . S
C1689 C1690 1.363 1_554 S
C1689 H1692 0.929 . S
C1690 C1689 1.363 1_556 S
C1690 C1696 1.428 . S
H1691 C1687 0.930 1_655 S
H1692 C1689 0.929 . S
S1693 N1694 1.613 . S
S1693 N1695 1.610 . S
N1694 S1693 1.613 . S
N1694 C1697 1.350 . S
N1695 S1693 1.610 . S
N1695 C1696 1.351 . S
C1696 C1690 1.428 . S
C1696 N1695 1.351 . S
C1696 C1697 1.434 . S
C1697 C1688 1.429 1_455 S
C1697 N1694 1.350 . S
C1697 C1696 1.434 . S
C1698 C1699 1.369 . S
C1698 C1700 1.419 . S
C1698 H1702 0.930 . S
C1699 C1698 1.369 . S
C1699 C1708 1.429 . S
C1700 C1698 1.419 . S
C1700 C1701 1.363 . S
C1700 H1703 0.929 . S
C1701 C1700 1.363 . S
C1701 C1707 1.428 . S
H1702 C1698 0.930 . S
H1703 C1700 0.929 . S
S1704 N1705 1.613 . S
S1704 N1706 1.610 . S
N1705 S1704 1.613 . S
N1705 C1708 1.350 . S
N1706 S1704 1.610 . S
N1706 C1707 1.351 . S
C1707 C1701 1.428 . S
C1707 N1706 1.351 . S
C1707 C1708 1.434 . S
C1708 C1699 1.429 . S
C1708 N1705 1.350 . S
C1708 C1707 1.434 . S
C1709 C1710 1.369 1_655 S
C1709 C1711 1.426 . S
C1709 H1713 0.913 1_655 S
C1710 C1709 1.369 1_455 S
C1710 C1719 1.429 1_455 S
C1711 C1709 1.426 . S
C1711 C1712 1.364 . S
C1711 H1714 0.922 1_556 S
C1712 C1711 1.364 . S
C1712 C1718 1.428 . S
H1713 C1709 0.913 1_455 S
H1714 C1711 0.922 1_554 S
S1715 N1716 1.613 . S
S1715 N1717 1.610 . S
N1716 S1715 1.613 . S
N1716 C1719 1.350 . S
N1717 S1715 1.610 . S
N1717 C1718 1.351 . S
C1718 C1712 1.428 . S
C1718 N1717 1.351 . S
C1718 C1719 1.434 . S
C1719 C1710 1.429 1_655 S
C1719 N1716 1.350 . S
C1719 C1718 1.434 . S
C1720 C1721 1.369 . S
C1720 C1722 1.419 . S
C1720 H1724 0.930 . S
C1721 C1720 1.369 . S
C1721 C1730 1.429 . S
C1722 C1720 1.419 . S
C1722 C1723 1.363 . S
C1722 H1725 0.929 . S
C1723 C1722 1.363 . S
C1723 C1729 1.428 . S
H1724 C1720 0.930 . S
H1725 C1722 0.929 . S
S1726 N1727 1.613 . S
S1726 N1728 1.610 . S
N1727 S1726 1.613 . S
N1727 C1730 1.350 . S
N1728 S1726 1.610 . S
N1728 C1729 1.351 . S
C1729 C1723 1.428 . S
C1729 N1728 1.351 . S
C1729 C1730 1.434 . S
C1730 C1721 1.429 . S
C1730 N1727 1.350 . S
C1730 C1729 1.434 . S
C1731 C1732 1.369 1_554 S
C1731 C1733 1.419 . S
C1731 H1735 0.930 1_554 S
C1732 C1731 1.369 1_556 S
C1732 C1741 1.429 1_556 S
C1733 C1731 1.419 . S
C1733 C1734 1.363 . S
C1733 H1736 0.929 . S
C1734 C1733 1.363 . S
C1734 C1740 1.428 . S
H1735 C1731 0.930 1_556 S
H1736 C1733 0.929 . S
S1737 N1738 1.613 . S
S1737 N1739 1.610 . S
N1738 S1737 1.613 . S
N1738 C1741 1.350 . S
N1739 S1737 1.610 . S
N1739 C1740 1.351 . S
C1740 C1734 1.428 . S
C1740 N1739 1.351 . S
C1740 C1741 1.434 . S
C1741 C1732 1.429 1_554 S
C1741 N1738 1.350 . S
C1741 C1740 1.434 . S
C1742 C1743 1.369 . S
C1742 C1744 1.419 . S
C1742 H1746 0.930 . S
C1743 C1742 1.369 . S
C1743 C1752 1.429 . S
C1744 C1742 1.419 . S
C1744 C1745 1.363 . S
C1744 H1747 0.929 . S
C1745 C1744 1.363 . S
C1745 C1751 1.428 . S
H1746 C1742 0.930 . S
H1747 C1744 0.929 . S
S1748 N1749 1.613 . S
S1748 N1750 1.610 . S
N1749 S1748 1.613 . S
N1749 C1752 1.350 . S
N1750 S1748 1.610 . S
N1750 C1751 1.351 . S
C1751 C1745 1.428 . S
C1751 N1750 1.351 . S
C1751 C1752 1.434 . S
C1752 C1743 1.429 . S
C1752 N1749 1.350 . S
C1752 C1751 1.434 . S
C1753 C1754 1.369 1_544 S
C1753 C1755 1.419 . S
C1753 H1757 0.930 1_554 S
C1754 C1753 1.369 1_566 S
C1754 C1763 1.429 1_556 S
C1755 C1753 1.419 . S
C1755 C1756 1.363 1_545 S
C1755 H1758 0.929 . S
C1756 C1755 1.363 1_565 S
C1756 C1762 1.428 . S
H1757 C1753 0.930 1_556 S
H1758 C1755 0.929 . S
S1759 N1760 1.613 . S
S1759 N1761 1.610 . S
N1760 S1759 1.613 . S
N1760 C1763 1.350 . S
N1761 S1759 1.610 . S
N1761 C1762 1.351 . S
C1762 C1756 1.428 . S
C1762 N1761 1.351 . S
C1762 C1763 1.434 . S
C1763 C1754 1.429 1_554 S
C1763 N1760 1.350 . S
C1763 C1762 1.434 . S
C1764 C1765 1.369 . S
C1764 C1766 1.419 . S
C1764 H1768 0.930 . S
C1765 C1764 1.369 . S
C1765 C1774 1.429 . S
C1766 C1764 1.419 . S
C1766 C1767 1.363 . S
C1766 H1769 0.929 . S
C1767 C1766 1.363 . S
C1767 C1773 1.428 . S
H1768 C1764 0.930 . S
H1769 C1766 0.929 . S
S1770 N1771 1.613 . S
S1770 N1772 1.610 . S
N1771 S1770 1.613 . S
N1771 C1774 1.350 . S
N1772 S1770 1.610 . S
N1772 C1773 1.351 . S
C1773 C1767 1.428 . S
C1773 N1772 1.351 . S
C1773 C1774 1.434 . S
C1774 C1765 1.429 . S
C1774 N1771 1.350 . S
C1774 C1773 1.434 . S
C1775 C1776 1.369 . S
C1775 C1777 1.419 . S
C1775 H1779 0.930 . S
C1776 C1775 1.369 . S
C1776 C1785 1.429 . S
C1777 C1775 1.419 . S
C1777 C1778 1.363 1_556 S
C1777 H1780 0.932 . S
C1778 C1777 1.363 1_554 S
C1778 C1784 1.428 1_554 S
H1779 C1775 0.930 . S
H1780 C1777 0.932 . S
S1781 N1782 1.613 . S
S1781 N1783 1.610 . S
N1782 S1781 1.613 . S
N1782 C1785 1.350 . S
N1783 S1781 1.610 . S
N1783 C1784 1.351 . S
C1784 C1778 1.428 1_556 S
C1784 N1783 1.351 . S
C1784 C1785 1.434 . S
C1785 C1776 1.429 . S
C1785 N1782 1.350 . S
C1785 C1784 1.434 . S
C1786 C1787 1.369 . S
C1786 C1788 1.419 . S
C1786 H1790 0.930 . S
C1787 C1786 1.369 . S
C1787 C1796 1.429 . S
C1788 C1786 1.419 . S
C1788 C1789 1.363 . S
C1788 H1791 0.929 . S
C1789 C1788 1.363 . S
C1789 C1795 1.428 . S
H1790 C1786 0.930 . S
H1791 C1788 0.929 . S
S1792 N1793 1.613 . S
S1792 N1794 1.610 . S
N1793 S1792 1.613 . S
N1793 C1796 1.350 . S
N1794 S1792 1.610 . S
N1794 C1795 1.351 . S
C1795 C1789 1.428 . S
C1795 N1794 1.351 . S
C1795 C1796 1.434 . S
C1796 C1787 1.429 . S
C1796 N1793 1.350 . S
C1796 C1795 1.434 . S
C1797 C1798 1.369 1_556 S
C1797 C1799 1.419 . S
C1797 H1801 0.930 . S
C1798 C1797 1.369 1_554 S
C1798 C1807 1.429 1_564 S
C1799 C1797 1.419 . S
C1799 C1800 1.363 . S
C1799 H1802 0.929 . S
C1800 C1799 1.363 . S
C1800 C1806 1.428 1_565 S
H1801 C1797 0.930 . S
H1802 C1799 0.929 . S
S1803 N1804 1.613 1_556 S
S1803 N1805 1.610 . S
N1804 S1803 1.613 1_554 S
N1804 C1807 1.350 1_554 S
N1805 S1803 1.610 . S
N1805 C1806 1.351 . S
C1806 C1800 1.428 1_545 S
C1806 N1805 1.351 . S
C1806 C1807 1.434 . S
C1807 C1798 1.429 1_546 S
C1807 N1804 1.350 1_556 S
C1807 C1806 1.434 . S
C1808 C1809 1.369 . S
C1808 C1810 1.419 . S
C1808 H1812 0.930 . S
C1809 C1808 1.369 . S
C1809 C1818 1.429 . S
C1810 C1808 1.419 . S
C1810 C1811 1.363 . S
C1810 H1813 0.929 . S
C1811 C1810 1.363 . S
C1811 C1817 1.428 . S
H1812 C1808 0.930 . S
H1813 C1810 0.929 . S
S1814 N1815 1.613 . S
S1814 N1816 1.610 . S
N1815 S1814 1.613 . S
N1815 C1818 1.350 . S
N1816 S1814 1.610 . S
N1816 C1817 1.351 . S
C1817 C1811 1.428 . S
C1817 N1816 1.351 . S
C1817 C1818 1.434 . S
C1818 C1809 1.429 . S
C1818 N1815 1.350 . S
C1818 C1817 1.434 . S
C1819 C1820 1.369 . S
C1819 C1821 1.419 . S
C1819 H1823 0.930 . S
C1820 C1819 1.369 . S
C1820 C1829 1.429 . S
C1821 C1819 1.419 . S
C1821 C1822 1.363 . S
C1821 H1824 0.929 . S
C1822 C1821 1.363 . S
C1822 C1828 1.428 . S
H1823 C1819 0.930 . S
H1824 C1821 0.929 . S
S1825 N1826 1.613 . S
S1825 N1827 1.610 . S
N1826 S1825 1.613 . S
N1826 C1829 1.350 . S
N1827 S1825 1.610 . S
N1827 C1828 1.351 . S
C1828 C1822 1.428 . S
C1828 N1827 1.351 . S
C1828 C1829 1.434 . S
C1829 C1820 1.429 . S
C1829 N1826 1.350 . S
C1829 C1828 1.434 . S
C1830 C1831 1.369 . S
C1830 C1832 1.419 . S
C1830 H1834 0.930 . S
C1831 C1830 1.369 . S
C1831 C1840 1.429 1_455 S
C1832 C1830 1.419 . S
C1832 C1833 1.363 . S
C1832 H1835 0.929 . S
C1833 C1832 1.363 . S
C1833 C1839 1.428 1_455 S
H1834 C1830 0.930 . S
H1835 C1832 0.929 . S
S1836 N1837 1.613 . S
S1836 N1838 1.610 . S
N1837 S1836 1.613 . S
N1837 C1840 1.350 . S
N1838 S1836 1.610 . S
N1838 C1839 1.351 . S
C1839 C1833 1.428 1_655 S
C1839 N1838 1.351 . S
C1839 C1840 1.434 . S
C1840 C1831 1.429 1_655 S
C1840 N1837 1.350 . S
C1840 C1839 1.434 . S
C1841 C1842 1.369 . S
C1841 C1843 1.419 . S
C1841 H1845 0.930 . S
C1842 C1841 1.369 . S
C1842 C1851 1.429 . S
C1843 C1841 1.419 . S
C1843 C1844 1.363 . S
C1843 H1846 0.929 . S
C1844 C1843 1.363 . S
C1844 C1850 1.428 . S
H1845 C1841 0.930 . S
H1846 C1843 0.929 . S
S1847 N1848 1.613 . S
S1847 N1849 1.610 . S
N1848 S1847 1.613 . S
N1848 C1851 1.350 . S
N1849 S1847 1.610 . S
N1849 C1850 1.351 . S
C1850 C1844 1.428 . S
C1850 N1849 1.351 . S
C1850 C1851 1.434 . S
C1851 C1842 1.429 . S
C1851 N1848 1.350 . S
C1851 C1850 1.434 . S
C1852 C1853 1.369 . S
C1852 C1854 1.419 . S
C1852 H1856 0.930 . S
C1853 C1852 1.369 . S
C1853 C1862 1.429 . S
C1854 C1852 1.419 . S
C1854 C1855 1.363 . S
C1854 H1857 0.929 . S
C1855 C1854 1.363 . S
C1855 C1861 1.428 . S
H1856 C1852 0.930 . S
H1857 C1854 0.929 . S
S1858 N1859 1.613 . S
S1858 N1860 1.610 . S
N1859 S1858 1.613 . S
N1859 C1862 1.350 . S
N1860 S1858 1.610 . S
N1860 C1861 1.351 . S
C1861 C1855 1.428 . S
C1861 N1860 1.351 . S
C1861 C1862 1.434 . S
C1862 C1853 1.429 . S
C1862 N1859 1.350 . S
C1862 C1861 1.434 . S
C1863 C1864 1.369 . S
C1863 C1865 1.419 . S
C1863 H1867 0.930 . S
C1864 C1863 1.369 . S
C1864 C1873 1.429 . S
C1865 C1863 1.419 . S
C1865 C1866 1.363 . S
C1865 H1868 0.929 . S
C1866 C1865 1.363 . S
C1866 C1872 1.428 . S
H1867 C1863 0.930 . S
H1868 C1865 0.929 . S
S1869 N1870 1.613 . S
S1869 N1871 1.610 . S
N1870 S1869 1.613 . S
N1870 C1873 1.350 . S
N1871 S1869 1.610 . S
N1871 C1872 1.351 . S
C1872 C1866 1.428 . S
C1872 N1871 1.351 . S
C1872 C1873 1.434 . S
C1873 C1864 1.429 . S
C1873 N1870 1.350 . S
C1873 C1872 1.434 . S
C1874 C1875 1.369 . S
C1874 C1876 1.419 . S
C1874 H1878 0.930 . S
C1875 C1874 1.369 . S
C1875 C1884 1.429 1_455 S
C1876 C1874 1.419 . S
C1876 C1877 1.363 . S
C1876 H1879 0.929 . S
C1877 C1876 1.363 . S
C1877 C1883 1.428 1_455 S
H1878 C1874 0.930 . S
H1879 C1876 0.929 . S
S1880 N1881 1.613 . S
S1880 N1882 1.610 . S
N1881 S1880 1.613 . S
N1881 C1884 1.350 . S
N1882 S1880 1.610 . S
N1882 C1883 1.351 . S
C1883 C1877 1.428 1_655 S
C1883 N1882 1.351 . S
C1883 C1884 1.434 . S
C1884 C1875 1.429 1_655 S
C1884 N1881 1.350 . S
C1884 C1883 1.434 . S
C1885 C1886 1.369 . S
C1885 C1887 1.419 . S
C1885 H1889 0.930 . S
C1886 C1885 1.369 . S
C1886 C1895 1.429 1_655 S
C1887 C1885 1.419 . S
C1887 C1888 1.363 1_545 S
C1887 H1890 0.929 . S
C1888 C1887 1.363 1_565 S
C1888 C1894 1.429 1_665 S
H1889 C1885 0.930 . S
H1890 C1887 0.929 . S
S1891 N1892 1.613 . S
S1891 N1893 1.610 1_545 S
N1892 S1891 1.613 . S
N1892 C1895 1.350 . S
N1893 S1891 1.610 1_565 S
N1893 C1894 1.350 1_565 S
C1894 C1888 1.429 1_445 S
C1894 N1893 1.350 1_545 S
C1894 C1895 1.433 . S
C1895 C1886 1.429 1_455 S
C1895 N1892 1.350 . S
C1895 C1894 1.433 . S
C1896 C1897 1.369 . S
C1896 C1898 1.419 . S
C1896 H1900 0.930 . S
C1897 C1896 1.369 . S
C1897 C1906 1.429 . S
C1898 C1896 1.419 . S
C1898 C1899 1.363 . S
C1898 H1901 0.929 . S
C1899 C1898 1.363 . S
C1899 C1905 1.428 . S
H1900 C1896 0.930 . S
H1901 C1898 0.929 . S
S1902 N1903 1.613 . S
S1902 N1904 1.610 . S
N1903 S1902 1.613 . S
N1903 C1906 1.350 . S
N1904 S1902 1.610 . S
N1904 C1905 1.351 . S
C1905 C1899 1.428 . S
C1905 N1904 1.351 . S
C1905 C1906 1.434 . S
C1906 C1897 1.429 . S
C1906 N1903 1.350 . S
C1906 C1905 1.434 . S
C1907 C1908 1.369 . S
C1907 C1909 1.419 . S
C1907 H1911 0.930 . S
C1908 C1907 1.369 . S
C1908 C1917 1.429 . S
C1909 C1907 1.419 . S
C1909 C1910 1.363 1_655 S
C1909 H1912 0.929 1_655 S
C1910 C1909 1.363 1_455 S
C1910 C1916 1.428 1_455 S
H1911 C1907 0.930 . S
H1912 C1909 0.929 1_455 S
S1913 N1914 1.613 . S
S1913 N1915 1.610 . S
N1914 S1913 1.613 . S
N1914 C1917 1.350 . S
N1915 S1913 1.610 . S
N1915 C1916 1.351 . S
C1916 C1910 1.428 1_655 S
C1916 N1915 1.351 . S
C1916 C1917 1.434 . S
C1917 C1908 1.429 . S
C1917 N1914 1.350 . S
C1917 C1916 1.434 . S
C1918 C1919 1.369 . S
C1918 C1920 1.419 . S
C1918 H1922 0.930 . S
C1919 C1918 1.369 . S
C1919 C1928 1.429 . S
C1920 C1918 1.419 . S
C1920 C1921 1.363 . S
C1920 H1923 0.929 . S
C1921 C1920 1.363 . S
C1921 C1927 1.428 . S
H1922 C1918 0.930 . S
H1923 C1920 0.929 . S
S1924 N1925 1.613 . S
S1924 N1926 1.610 . S
N1925 S1924 1.613 . S
N1925 C1928 1.350 . S
N1926 S1924 1.610 . S
N1926 C1927 1.351 . S
C1927 C1921 1.428 . S
C1927 N1926 1.351 . S
C1927 C1928 1.434 . S
C1928 C1919 1.429 . S
C1928 N1925 1.350 . S
C1928 C1927 1.434 . S
C1929 C1930 1.369 1_455 S
C1929 C1931 1.419 . S
C1929 H1933 0.930 1_455 S
C1930 C1929 1.369 1_655 S
C1930 C1939 1.429 1_655 S
C1931 C1929 1.419 . S
C1931 C1932 1.363 . S
C1931 H1934 0.929 . S
C1932 C1931 1.363 . S
C1932 C1938 1.428 . S
H1933 C1929 0.930 1_655 S
H1934 C1931 0.929 . S
S1935 N1936 1.613 . S
S1935 N1937 1.610 . S
N1936 S1935 1.613 . S
N1936 C1939 1.350 . S
N1937 S1935 1.610 . S
N1937 C1938 1.351 . S
C1938 C1932 1.428 . S
C1938 N1937 1.351 . S
C1938 C1939 1.434 . S
C1939 C1930 1.429 1_455 S
C1939 N1936 1.350 . S
C1939 C1938 1.434 . S
C1940 C1941 1.369 . S
C1940 C1942 1.419 . S
C1940 H1944 0.930 . S
C1941 C1940 1.369 . S
C1941 C1950 1.429 . S
C1942 C1940 1.419 . S
C1942 C1943 1.363 . S
C1942 H1945 0.929 . S
C1943 C1942 1.363 . S
C1943 C1949 1.428 . S
H1944 C1940 0.930 . S
H1945 C1942 0.929 . S
S1946 N1947 1.613 . S
S1946 N1948 1.610 . S
N1947 S1946 1.613 . S
N1947 C1950 1.350 . S
N1948 S1946 1.610 . S
N1948 C1949 1.351 . S
C1949 C1943 1.428 . S
C1949 N1948 1.351 . S
C1949 C1950 1.434 . S
C1950 C1941 1.429 . S
C1950 N1947 1.350 . S
C1950 C1949 1.434 . S
C1951 C1952 1.369 . S
C1951 C1953 1.419 . S
C1951 H1955 0.930 . S
C1952 C1951 1.369 . S
C1952 C1961 1.429 . S
C1953 C1951 1.419 . S
C1953 C1954 1.363 . S
C1953 H1956 0.929 . S
C1954 C1953 1.363 . S
C1954 C1960 1.428 . S
H1955 C1951 0.930 . S
H1956 C1953 0.929 . S
S1957 N1958 1.613 . S
S1957 N1959 1.610 . S
N1958 S1957 1.613 . S
N1958 C1961 1.350 . S
N1959 S1957 1.610 . S
N1959 C1960 1.351 . S
C1960 C1954 1.428 . S
C1960 N1959 1.351 . S
C1960 C1961 1.434 . S
C1961 C1952 1.429 . S
C1961 N1958 1.350 . S
C1961 C1960 1.434 . S
C1962 C1963 1.369 . S
C1962 C1964 1.419 . S
C1962 H1966 0.930 . S
C1963 C1962 1.369 . S
C1963 C1972 1.429 . S
C1964 C1962 1.419 . S
C1964 C1965 1.363 . S
C1964 H1967 0.929 . S
C1965 C1964 1.363 . S
C1965 C1971 1.428 . S
H1966 C1962 0.930 . S
H1967 C1964 0.929 . S
S1968 N1969 1.613 . S
S1968 N1970 1.610 . S
N1969 S1968 1.613 . S
N1969 C1972 1.350 . S
N1970 S1968 1.610 . S
N1970 C1971 1.351 . S
C1971 C1965 1.428 . S
C1971 N1970 1.351 . S
C1971 C1972 1.434 . S
C1972 C1963 1.429 . S
C1972 N1969 1.350 . S
C1972 C1971 1.434 . S
C1973 C1974 1.369 . S
C1973 C1975 1.419 . S
C1973 H1977 0.930 . S
C1974 C1973 1.369 . S
C1974 C1983 1.429 . S
C1975 C1973 1.419 . S
C1975 C1976 1.363 . S
C1975 H1978 0.929 . S
C1976 C1975 1.363 . S
C1976 C1982 1.428 . S
H1977 C1973 0.930 . S
H1978 C1975 0.929 . S
S1979 N1980 1.613 . S
S1979 N1981 1.610 . S
N1980 S1979 1.613 . S
N1980 C1983 1.350 . S
N1981 S1979 1.610 . S
N1981 C1982 1.351 . S
C1982 C1976 1.428 . S
C1982 N1981 1.351 . S
C1982 C1983 1.434 . S
C1983 C1974 1.429 . S
C1983 N1980 1.350 . S
C1983 C1982 1.434 . S
C1984 C1985 1.369 . S
C1984 C1986 1.419 . S
C1984 H1988 0.930 . S
C1985 C1984 1.369 . S
C1985 C1994 1.429 . S
C1986 C1984 1.419 . S
C1986 C1987 1.363 . S
C1986 H1989 0.929 . S
C1987 C1986 1.363 . S
C1987 C1993 1.428 . S
H1988 C1984 0.930 . S
H1989 C1986 0.929 . S
S1990 N1991 1.613 . S
S1990 N1992 1.610 . S
N1991 S1990 1.613 . S
N1991 C1994 1.350 . S
N1992 S1990 1.610 . S
N1992 C1993 1.351 . S
C1993 C1987 1.428 . S
C1993 N1992 1.351 . S
C1993 C1994 1.434 . S
C1994 C1985 1.429 . S
C1994 N1991 1.350 . S
C1994 C1993 1.434 . S
C1995 C1996 1.369 1_565 S
C1995 C1997 1.419 . S
C1995 H1999 0.930 . S
C1996 C1995 1.369 1_545 S
C1996 C2005 1.429 . S
C1997 C1995 1.419 . S
C1997 C1998 1.363 1_565 S
C1997 H2000 0.929 . S
C1998 C1997 1.363 1_545 S
C1998 C2004 1.428 . S
H1999 C1995 0.930 . S
H2000 C1997 0.929 . S
S2001 N2002 1.613 . S
S2001 N2003 1.610 . S
N2002 S2001 1.613 . S
N2002 C2005 1.350 . S
N2003 S2001 1.610 . S
N2003 C2004 1.351 . S
C2004 C1998 1.428 . S
C2004 N2003 1.351 . S
C2004 C2005 1.434 . S
C2005 C1996 1.429 . S
C2005 N2002 1.350 . S
C2005 C2004 1.434 . S
C2006 C2007 1.369 . S
C2006 C2008 1.419 . S
C2006 H2010 0.930 . S
C2007 C2006 1.369 . S
C2007 C2016 1.429 . S
C2008 C2006 1.419 . S
C2008 C2009 1.363 . S
C2008 H2011 0.929 . S
C2009 C2008 1.363 . S
C2009 C2015 1.428 . S
H2010 C2006 0.930 . S
H2011 C2008 0.929 . S
S2012 N2013 1.613 . S
S2012 N2014 1.610 . S
N2013 S2012 1.613 . S
N2013 C2016 1.350 . S
N2014 S2012 1.610 . S
N2014 C2015 1.351 . S
C2015 C2009 1.428 . S
C2015 N2014 1.351 . S
C2015 C2016 1.434 . S
C2016 C2007 1.429 . S
C2016 N2013 1.350 . S
C2016 C2015 1.434 . S
C2017 C2018 1.369 . S
C2017 C2019 1.419 . S
C2017 H2021 0.930 . S
C2018 C2017 1.369 . S
C2018 C2027 1.429 . S
C2019 C2017 1.419 . S
C2019 C2020 1.363 . S
C2019 H2022 0.929 . S
C2020 C2019 1.363 . S
C2020 C2026 1.428 . S
H2021 C2017 0.930 . S
H2022 C2019 0.929 . S
S2023 N2024 1.613 . S
S2023 N2025 1.610 . S
N2024 S2023 1.613 . S
N2024 C2027 1.350 . S
N2025 S2023 1.610 . S
N2025 C2026 1.351 . S
C2026 C2020 1.428 . S
C2026 N2025 1.351 . S
C2026 C2027 1.434 . S
C2027 C2018 1.429 . S
C2027 N2024 1.350 . S
C2027 C2026 1.434 . S
C2028 C2029 1.369 . S
C2028 C2030 1.419 . S
C2028 H2032 0.930 . S
C2029 C2028 1.369 . S
C2029 C2038 1.429 . S
C2030 C2028 1.419 . S
C2030 C2031 1.363 . S
C2030 H2033 0.929 . S
C2031 C2030 1.363 . S
C2031 C2037 1.428 . S
H2032 C2028 0.930 . S
H2033 C2030 0.929 . S
S2034 N2035 1.613 . S
S2034 N2036 1.610 . S
N2035 S2034 1.613 . S
N2035 C2038 1.350 . S
N2036 S2034 1.610 . S
N2036 C2037 1.351 . S
C2037 C2031 1.428 . S
C2037 N2036 1.351 . S
C2037 C2038 1.434 . S
C2038 C2029 1.429 . S
C2038 N2035 1.350 . S
C2038 C2037 1.434 . S
C2039 C2040 1.369 . S
C2039 C2041 1.419 . S
C2039 H2043 0.930 . S
C2040 C2039 1.369 . S
C2040 C2049 1.429 1_545 S
C2041 C2039 1.419 . S
C2041 C2042 1.363 . S
C2041 H2044 0.929 . S
C2042 C2041 1.363 . S
C2042 C2048 1.428 1_545 S
H2043 C2039 0.930 . S
H2044 C2041 0.929 . S
S2045 N2046 1.613 . S
S2045 N2047 1.610 . S
N2046 S2045 1.613 . S
N2046 C2049 1.350 . S
N2047 S2045 1.610 . S
N2047 C2048 1.351 . S
C2048 C2042 1.428 1_565 S
C2048 N2047 1.351 . S
C2048 C2049 1.434 . S
C2049 C2040 1.429 1_565 S
C2049 N2046 1.350 . S
C2049 C2048 1.434 . S
C2050 C2051 1.369 . S
C2050 C2052 1.419 . S
C2050 H2054 0.930 . S
C2051 C2050 1.369 . S
C2051 C2060 1.429 . S
C2052 C2050 1.419 . S
C2052 C2053 1.363 . S
C2052 H2055 0.929 . S
C2053 C2052 1.363 . S
C2053 C2059 1.428 . S
H2054 C2050 0.930 . S
H2055 C2052 0.929 . S
S2056 N2057 1.613 . S
S2056 N2058 1.610 . S
N2057 S2056 1.613 . S
N2057 C2060 1.350 . S
N2058 S2056 1.610 . S
N2058 C2059 1.351 . S
C2059 C2053 1.428 . S
C2059 N2058 1.351 . S
C2059 C2060 1.434 . S
C2060 C2051 1.429 . S
C2060 N2057 1.350 . S
C2060 C2059 1.434 . S
C2061 C2062 1.369 . S
C2061 C2063 1.419 . S
C2061 H2065 0.930 . S
C2062 C2061 1.369 . S
C2062 C2071 1.429 . S
C2063 C2061 1.419 . S
C2063 C2064 1.363 . S
C2063 H2066 0.929 . S
C2064 C2063 1.363 . S
C2064 C2070 1.428 . S
H2065 C2061 0.930 . S
H2066 C2063 0.929 . S
S2067 N2068 1.613 . S
S2067 N2069 1.610 . S
N2068 S2067 1.613 . S
N2068 C2071 1.350 . S
N2069 S2067 1.610 . S
N2069 C2070 1.351 . S
C2070 C2064 1.428 . S
C2070 N2069 1.351 . S
C2070 C2071 1.434 . S
C2071 C2062 1.429 . S
C2071 N2068 1.350 . S
C2071 C2070 1.434 . S
C2072 C2073 1.369 . S
C2072 C2074 1.419 . S
C2072 H2076 0.930 . S
C2073 C2072 1.369 . S
C2073 C2082 1.429 . S
C2074 C2072 1.419 . S
C2074 C2075 1.363 . S
C2074 H2077 0.929 . S
C2075 C2074 1.363 . S
C2075 C2081 1.428 . S
H2076 C2072 0.930 . S
H2077 C2074 0.929 . S
S2078 N2079 1.613 . S
S2078 N2080 1.610 . S
N2079 S2078 1.613 . S
N2079 C2082 1.350 . S
N2080 S2078 1.610 . S
N2080 C2081 1.351 . S
C2081 C2075 1.428 . S
C2081 N2080 1.351 . S
C2081 C2082 1.434 . S
C2082 C2073 1.429 . S
C2082 N2079 1.350 . S
C2082 C2081 1.434 . S
C2083 C2084 1.369 . S
C2083 C2085 1.419 . S
C2083 H2087 0.930 . S
C2084 C2083 1.369 . S
C2084 C2093 1.429 . S
C2085 C2083 1.419 . S
C2085 C2086 1.363 . S
C2085 H2088 0.929 . S
C2086 C2085 1.363 . S
C2086 C2092 1.428 . S
H2087 C2083 0.930 . S
H2088 C2085 0.929 . S
S2089 N2090 1.613 . S
S2089 N2091 1.610 . S
N2090 S2089 1.613 . S
N2090 C2093 1.350 . S
N2091 S2089 1.610 . S
N2091 C2092 1.351 . S
C2092 C2086 1.428 . S
C2092 N2091 1.351 . S
C2092 C2093 1.434 . S
C2093 C2084 1.429 . S
C2093 N2090 1.350 . S
C2093 C2092 1.434 . S
C2094 C2095 1.369 1_545 S
C2094 C2096 1.419 . S
C2094 H2098 0.930 . S
C2095 C2094 1.369 1_565 S
C2095 C2104 1.429 1_565 S
C2096 C2094 1.419 . S
C2096 C2097 1.363 . S
C2096 H2099 0.929 . S
C2097 C2096 1.363 . S
C2097 C2103 1.428 . S
H2098 C2094 0.930 . S
H2099 C2096 0.929 . S
S2100 N2101 1.613 1_545 S
S2100 N2102 1.610 . S
N2101 S2100 1.613 1_565 S
N2101 C2104 1.350 1_565 S
N2102 S2100 1.610 . S
N2102 C2103 1.351 . S
C2103 C2097 1.428 . S
C2103 N2102 1.351 . S
C2103 C2104 1.434 . S
C2104 C2095 1.429 1_545 S
C2104 N2101 1.350 1_545 S
C2104 C2103 1.434 . S
C2105 C2106 1.369 . S
C2105 C2107 1.419 . S
C2105 H2109 0.930 . S
C2106 C2105 1.369 . S
C2106 C2115 1.429 . S
C2107 C2105 1.419 . S
C2107 C2108 1.363 . S
C2107 H2110 0.929 . S
C2108 C2107 1.363 . S
C2108 C2114 1.428 . S
H2109 C2105 0.930 . S
H2110 C2107 0.929 . S
S2111 N2112 1.613 . S
S2111 N2113 1.610 . S
N2112 S2111 1.613 . S
N2112 C2115 1.350 . S
N2113 S2111 1.610 . S
N2113 C2114 1.351 . S
C2114 C2108 1.428 . S
C2114 N2113 1.351 . S
C2114 C2115 1.434 . S
C2115 C2106 1.429 . S
C2115 N2112 1.350 . S
C2115 C2114 1.434 . S
C2116 C2117 1.369 1_455 S
C2116 C2118 1.419 . S
C2116 H2120 0.930 . S
C2117 C2116 1.369 1_655 S
C2117 C2126 1.429 . S
C2118 C2116 1.419 . S
C2118 C2119 1.363 1_465 S
C2118 H2121 0.929 . S
C2119 C2118 1.363 1_645 S
C2119 C2125 1.428 1_545 S
H2120 C2116 0.930 . S
H2121 C2118 0.929 . S
S2122 N2123 1.613 . S
S2122 N2124 1.610 . S
N2123 S2122 1.613 . S
N2123 C2126 1.350 . S
N2124 S2122 1.610 . S
N2124 C2125 1.351 . S
C2125 C2119 1.428 1_565 S
C2125 N2124 1.351 . S
C2125 C2126 1.434 . S
C2126 C2117 1.429 . S
C2126 N2123 1.350 . S
C2126 C2125 1.434 . S
C2127 C2128 1.369 . S
C2127 C2129 1.419 . S
C2127 H2131 0.930 . S
C2128 C2127 1.369 . S
C2128 C2137 1.429 . S
C2129 C2127 1.419 . S
C2129 C2130 1.363 . S
C2129 H2132 0.929 . S
C2130 C2129 1.363 . S
C2130 C2136 1.428 . S
H2131 C2127 0.930 . S
H2132 C2129 0.929 . S
S2133 N2134 1.613 . S
S2133 N2135 1.610 . S
N2134 S2133 1.613 . S
N2134 C2137 1.350 . S
N2135 S2133 1.610 . S
N2135 C2136 1.351 . S
C2136 C2130 1.428 . S
C2136 N2135 1.351 . S
C2136 C2137 1.434 . S
C2137 C2128 1.429 . S
C2137 N2134 1.350 . S
C2137 C2136 1.434 . S
C2138 C2139 1.369 . S
C2138 C2140 1.419 . S
C2138 H2142 0.930 . S
C2139 C2138 1.369 . S
C2139 C2148 1.429 . S
C2140 C2138 1.419 . S
C2140 C2141 1.363 1_565 S
C2140 H2143 0.929 . S
C2141 C2140 1.363 1_545 S
C2141 C2147 1.428 1_545 S
H2142 C2138 0.930 . S
H2143 C2140 0.929 . S
S2144 N2145 1.613 . S
S2144 N2146 1.610 1_565 S
N2145 S2144 1.613 . S
N2145 C2148 1.350 . S
N2146 S2144 1.610 1_545 S
N2146 C2147 1.351 1_545 S
C2147 C2141 1.428 1_565 S
C2147 N2146 1.351 1_565 S
C2147 C2148 1.434 . S
C2148 C2139 1.429 . S
C2148 N2145 1.350 . S
C2148 C2147 1.434 . S
C2149 C2150 1.369 . S
C2149 C2151 1.419 . S
C2149 H2153 0.930 . S
C2150 C2149 1.369 . S
C2150 C2159 1.429 . S
C2151 C2149 1.419 . S
C2151 C2152 1.363 . S
C2151 H2154 0.929 . S
C2152 C2151 1.363 . S
C2152 C2158 1.428 . S
H2153 C2149 0.930 . S
H2154 C2151 0.929 . S
S2155 N2156 1.613 . S
S2155 N2157 1.610 . S
N2156 S2155 1.613 . S
N2156 C2159 1.350 . S
N2157 S2155 1.610 . S
N2157 C2158 1.351 . S
C2158 C2152 1.428 . S
C2158 N2157 1.351 . S
C2158 C2159 1.434 . S
C2159 C2150 1.429 . S
C2159 N2156 1.350 . S
C2159 C2158 1.434 . S
C2160 C2161 1.347 1_565 S
C2160 C2162 1.438 . S
C2160 H2164 0.933 . S
C2161 C2160 1.347 1_545 S
C2161 C2170 1.429 . S
C2162 C2160 1.438 . S
C2162 C2163 1.363 . S
C2162 H2165 0.929 . S
C2163 C2162 1.363 . S
C2163 C2169 1.428 1_565 S
H2164 C2160 0.933 . S
H2165 C2162 0.929 . S
S2166 N2167 1.613 . S
S2166 N2168 1.610 . S
N2167 S2166 1.613 . S
N2167 C2170 1.350 . S
N2168 S2166 1.610 . S
N2168 C2169 1.351 . S
C2169 C2163 1.428 1_545 S
C2169 N2168 1.351 . S
C2169 C2170 1.434 . S
C2170 C2161 1.429 . S
C2170 N2167 1.350 . S
C2170 C2169 1.434 . S
C2171 C2172 1.369 . S
C2171 C2173 1.419 1_556 S
C2171 H2175 0.930 . S
C2172 C2171 1.369 . S
C2172 C2181 1.429 . S
C2173 C2171 1.419 1_554 S
C2173 C2174 1.363 . S
C2173 H2176 0.929 . S
C2174 C2173 1.363 . S
C2174 C2180 1.428 . S
H2175 C2171 0.930 . S
H2176 C2173 0.929 . S
S2177 N2178 1.613 1_554 S
S2177 N2179 1.610 . S
N2178 S2177 1.613 1_556 S
N2178 C2181 1.350 . S
N2179 S2177 1.610 . S
N2179 C2180 1.351 . S
C2180 C2174 1.428 . S
C2180 N2179 1.351 . S
C2180 C2181 1.434 1_554 S
C2181 C2172 1.429 . S
C2181 N2178 1.350 . S
C2181 C2180 1.434 1_556 S
C2182 C2183 1.369 . S
C2182 C2184 1.419 . S
C2182 H2186 0.930 . S
C2183 C2182 1.369 . S
C2183 C2192 1.429 . S
C2184 C2182 1.419 . S
C2184 C2185 1.363 . S
C2184 H2187 0.929 . S
C2185 C2184 1.363 . S
C2185 C2191 1.428 . S
H2186 C2182 0.930 . S
H2187 C2184 0.929 . S
S2188 N2189 1.613 . S
S2188 N2190 1.610 . S
N2189 S2188 1.613 . S
N2189 C2192 1.350 . S
N2190 S2188 1.610 . S
N2190 C2191 1.351 . S
C2191 C2185 1.428 . S
C2191 N2190 1.351 . S
C2191 C2192 1.434 . S
C2192 C2183 1.429 . S
C2192 N2189 1.350 . S
C2192 C2191 1.434 . S
C2193 C2194 1.369 . S
C2193 C2195 1.419 1_554 S
C2193 H2197 0.930 . S
C2194 C2193 1.369 . S
C2194 C2203 1.429 . S
C2195 C2193 1.419 1_556 S
C2195 C2196 1.363 . S
C2195 H2198 0.929 . S
C2196 C2195 1.363 . S
C2196 C2202 1.428 . S
H2197 C2193 0.930 . S
H2198 C2195 0.929 . S
S2199 N2200 1.613 . S
S2199 N2201 1.610 1_554 S
N2200 S2199 1.613 . S
N2200 C2203 1.350 . S
N2201 S2199 1.610 1_556 S
N2201 C2202 1.351 . S
C2202 C2196 1.428 . S
C2202 N2201 1.351 . S
C2202 C2203 1.434 1_556 S
C2203 C2194 1.429 . S
C2203 N2200 1.350 . S
C2203 C2202 1.434 1_554 S
C2204 C2205 1.369 . S
C2204 C2206 1.419 . S
C2204 H2208 0.930 . S
C2205 C2204 1.369 . S
C2205 C2214 1.429 1_556 S
C2206 C2204 1.419 . S
C2206 C2207 1.363 1_556 S
C2206 H2209 0.929 . S
C2207 C2206 1.363 1_554 S
C2207 C2213 1.428 . S
H2208 C2204 0.930 . S
H2209 C2206 0.929 . S
S2210 N2211 1.613 . S
S2210 N2212 1.610 . S
N2211 S2210 1.613 . S
N2211 C2214 1.350 . S
N2212 S2210 1.610 . S
N2212 C2213 1.351 . S
C2213 C2207 1.428 . S
C2213 N2212 1.351 . S
C2213 C2214 1.434 . S
C2214 C2205 1.429 1_554 S
C2214 N2211 1.350 . S
C2214 C2213 1.434 . S
C2215 C2216 1.369 . S
C2215 C2217 1.419 . S
C2215 H2219 0.930 . S
C2216 C2215 1.369 . S
C2216 C2225 1.429 . S
C2217 C2215 1.419 . S
C2217 C2218 1.363 . S
C2217 H2220 0.929 . S
C2218 C2217 1.363 . S
C2218 C2224 1.428 . S
H2219 C2215 0.930 . S
H2220 C2217 0.929 . S
S2221 N2222 1.613 . S
S2221 N2223 1.610 . S
N2222 S2221 1.613 . S
N2222 C2225 1.350 . S
N2223 S2221 1.610 . S
N2223 C2224 1.351 . S
C2224 C2218 1.428 . S
C2224 N2223 1.351 . S
C2224 C2225 1.434 . S
C2225 C2216 1.429 . S
C2225 N2222 1.350 . S
C2225 C2224 1.434 . S
C2226 C2227 1.369 1_554 S
C2226 C2228 1.419 . S
C2226 H2230 0.930 . S
C2227 C2226 1.369 1_556 S
C2227 C2236 1.429 . S
C2228 C2226 1.419 . S
C2228 C2229 1.363 . S
C2228 H2231 0.929 . S
C2229 C2228 1.363 . S
C2229 C2235 1.428 1_554 S
H2230 C2226 0.930 . S
H2231 C2228 0.929 . S
S2232 N2233 1.613 . S
S2232 N2234 1.610 . S
N2233 S2232 1.613 . S
N2233 C2236 1.350 . S
N2234 S2232 1.610 . S
N2234 C2235 1.351 . S
C2235 C2229 1.428 1_556 S
C2235 N2234 1.351 . S
C2235 C2236 1.434 . S
C2236 C2227 1.429 . S
C2236 N2233 1.350 . S
C2236 C2235 1.434 . S
C2237 C2238 1.369 . S
C2237 C2239 1.419 . S
C2237 H2241 0.930 . S
C2238 C2237 1.369 . S
C2238 C2247 1.429 1_545 S
C2239 C2237 1.419 . S
C2239 C2240 1.363 1_545 S
C2239 H2242 0.929 . S
C2240 C2239 1.363 1_565 S
C2240 C2246 1.428 . S
H2241 C2237 0.930 . S
H2242 C2239 0.929 . S
S2243 N2244 1.613 . S
S2243 N2245 1.610 . S
N2244 S2243 1.613 . S
N2244 C2247 1.350 . S
N2245 S2243 1.610 . S
N2245 C2246 1.351 . S
C2246 C2240 1.428 . S
C2246 N2245 1.351 . S
C2246 C2247 1.434 . S
C2247 C2238 1.429 1_565 S
C2247 N2244 1.350 . S
C2247 C2246 1.434 . S
C2248 C2249 1.369 . S
C2248 C2250 1.419 . S
C2248 H2252 0.930 . S
C2249 C2248 1.369 . S
C2249 C2258 1.429 . S
C2250 C2248 1.419 . S
C2250 C2251 1.363 . S
C2250 H2253 0.929 . S
C2251 C2250 1.363 . S
C2251 C2257 1.428 . S
H2252 C2248 0.930 . S
H2253 C2250 0.929 . S
S2254 N2255 1.613 . S
S2254 N2256 1.610 . S
N2255 S2254 1.613 . S
N2255 C2258 1.350 . S
N2256 S2254 1.610 . S
N2256 C2257 1.351 . S
C2257 C2251 1.428 . S
C2257 N2256 1.351 . S
C2257 C2258 1.434 . S
C2258 C2249 1.429 . S
C2258 N2255 1.350 . S
C2258 C2257 1.434 . S
C2259 C2260 1.369 . S
C2259 C2261 1.419 . S
C2259 H2263 0.930 . S
C2260 C2259 1.369 . S
C2260 C2269 1.429 . S
C2261 C2259 1.419 . S
C2261 C2262 1.363 . S
C2261 H2264 0.929 . S
C2262 C2261 1.363 . S
C2262 C2268 1.428 . S
H2263 C2259 0.930 . S
H2264 C2261 0.929 . S
S2265 N2266 1.613 . S
S2265 N2267 1.610 . S
N2266 S2265 1.613 . S
N2266 C2269 1.350 . S
N2267 S2265 1.610 . S
N2267 C2268 1.351 . S
C2268 C2262 1.428 . S
C2268 N2267 1.351 . S
C2268 C2269 1.434 . S
C2269 C2260 1.429 . S
C2269 N2266 1.350 . S
C2269 C2268 1.434 . S
C2270 C2271 1.369 . S
C2270 C2272 1.419 . S
C2270 H2274 0.930 . S
C2271 C2270 1.369 . S
C2271 C2280 1.429 . S
C2272 C2270 1.419 . S
C2272 C2273 1.363 . S
C2272 H2275 0.929 . S
C2273 C2272 1.363 . S
C2273 C2279 1.428 . S
H2274 C2270 0.930 . S
H2275 C2272 0.929 . S
S2276 N2277 1.613 . S
S2276 N2278 1.610 . S
N2277 S2276 1.613 . S
N2277 C2280 1.350 . S
N2278 S2276 1.610 . S
N2278 C2279 1.351 . S
C2279 C2273 1.428 . S
C2279 N2278 1.351 . S
C2279 C2280 1.434 . S
C2280 C2271 1.429 . S
C2280 N2277 1.350 . S
C2280 C2279 1.434 . S
C2281 C2282 1.369 . S
C2281 C2283 1.419 . S
C2281 H2285 0.930 . S
C2282 C2281 1.369 . S
C2282 C2291 1.429 1_545 S
C2283 C2281 1.419 . S
C2283 C2284 1.363 1_545 S
C2283 H2286 0.929 . S
C2284 C2283 1.363 1_565 S
C2284 C2290 1.428 . S
H2285 C2281 0.930 . S
H2286 C2283 0.929 . S
S2287 N2288 1.613 . S
S2287 N2289 1.610 . S
N2288 S2287 1.613 . S
N2288 C2291 1.350 . S
N2289 S2287 1.610 . S
N2289 C2290 1.351 . S
C2290 C2284 1.428 . S
C2290 N2289 1.351 . S
C2290 C2291 1.434 . S
C2291 C2282 1.429 1_565 S
C2291 N2288 1.350 . S
C2291 C2290 1.434 . S
C2292 C2293 1.369 1_455 S
C2292 C2294 1.419 . S
C2292 H2296 0.930 . S
C2293 C2292 1.369 1_655 S
C2293 C2302 1.429 . S
C2294 C2292 1.419 . S
C2294 C2295 1.363 . S
C2294 H2297 0.929 . S
C2295 C2294 1.363 . S
C2295 C2301 1.428 1_455 S
H2296 C2292 0.930 . S
H2297 C2294 0.929 . S
S2298 N2299 1.613 . S
S2298 N2300 1.610 . S
N2299 S2298 1.613 . S
N2299 C2302 1.350 . S
N2300 S2298 1.610 . S
N2300 C2301 1.351 . S
C2301 C2295 1.428 1_655 S
C2301 N2300 1.351 . S
C2301 C2302 1.434 . S
C2302 C2293 1.429 . S
C2302 N2299 1.350 . S
C2302 C2301 1.434 . S
C2303 C2304 1.369 . S
C2303 C2305 1.419 1_655 S
C2303 H2307 0.930 . S
C2304 C2303 1.369 . S
C2304 C2313 1.429 . S
C2305 C2303 1.419 1_455 S
C2305 C2306 1.363 . S
C2305 H2308 0.929 . S
C2306 C2305 1.363 . S
C2306 C2312 1.428 . S
H2307 C2303 0.930 . S
H2308 C2305 0.929 . S
S2309 N2310 1.613 1_455 S
S2309 N2311 1.610 . S
N2310 S2309 1.613 1_655 S
N2310 C2313 1.350 . S
N2311 S2309 1.610 . S
N2311 C2312 1.351 . S
C2312 C2306 1.428 . S
C2312 N2311 1.351 . S
C2312 C2313 1.434 1_455 S
C2313 C2304 1.429 . S
C2313 N2310 1.350 . S
C2313 C2312 1.434 1_655 S
C2314 C2315 1.369 . S
C2314 C2316 1.419 1_455 S
C2314 H2318 0.931 . S
C2315 C2314 1.369 . S
C2315 C2324 1.429 . S
C2316 C2314 1.419 1_655 S
C2316 C2317 1.363 . S
C2316 H2319 0.929 . S
C2317 C2316 1.363 . S
C2317 C2323 1.446 . S
H2318 C2314 0.931 . S
H2319 C2316 0.929 . S
S2320 N2321 1.613 . S
S2320 N2322 1.610 . S
N2321 S2320 1.613 . S
N2321 C2324 1.350 . S
N2322 S2320 1.610 . S
N2322 C2323 1.350 1_455 S
C2323 C2317 1.446 . S
C2323 N2322 1.350 1_655 S
C2323 C2324 1.416 1_655 S
C2324 C2315 1.429 . S
C2324 N2321 1.350 . S
C2324 C2323 1.416 1_455 S
C2325 C2326 1.369 . S
C2325 C2327 1.419 . S
C2325 H2329 0.930 . S
C2326 C2325 1.369 . S
C2326 C2335 1.429 . S
C2327 C2325 1.419 . S
C2327 C2328 1.363 . S
C2327 H2330 0.929 . S
C2328 C2327 1.363 . S
C2328 C2334 1.428 . S
H2329 C2325 0.930 . S
H2330 C2327 0.929 . S
S2331 N2332 1.613 . S
S2331 N2333 1.610 . S
N2332 S2331 1.613 . S
N2332 C2335 1.350 . S
N2333 S2331 1.610 . S
N2333 C2334 1.351 . S
C2334 C2328 1.428 . S
C2334 N2333 1.351 . S
C2334 C2335 1.434 . S
C2335 C2326 1.429 . S
C2335 N2332 1.350 . S
C2335 C2334 1.434 . S
C2336 C2337 1.369 . S
C2336 C2338 1.419 . S
C2336 H2340 0.930 . S
C2337 C2336 1.369 . S
C2337 C2346 1.429 . S
C2338 C2336 1.419 . S
C2338 C2339 1.363 . S
C2338 H2341 0.929 . S
C2339 C2338 1.363 . S
C2339 C2345 1.428 . S
H2340 C2336 0.930 . S
H2341 C2338 0.929 . S
S2342 N2343 1.613 . S
S2342 N2344 1.610 . S
N2343 S2342 1.613 . S
N2343 C2346 1.350 . S
N2344 S2342 1.610 . S
N2344 C2345 1.351 . S
C2345 C2339 1.428 . S
C2345 N2344 1.351 . S
C2345 C2346 1.434 . S
C2346 C2337 1.429 . S
C2346 N2343 1.350 . S
C2346 C2345 1.434 . S
C2347 C2348 1.369 . S
C2347 C2349 1.419 1_655 S
C2347 H2351 0.930 . S
C2348 C2347 1.369 . S
C2348 C2357 1.429 . S
C2349 C2347 1.419 1_455 S
C2349 C2350 1.363 . S
C2349 H2352 0.929 . S
C2350 C2349 1.363 . S
C2350 C2356 1.452 . S
H2351 C2347 0.930 . S
H2352 C2349 0.929 . S
S2353 N2354 1.613 . S
S2353 N2355 1.610 . S
N2354 S2353 1.613 . S
N2354 C2357 1.350 . S
N2355 S2353 1.610 . S
N2355 C2356 1.349 1_655 S
C2356 C2350 1.452 . S
C2356 N2355 1.349 1_455 S
C2356 C2357 1.411 1_455 S
C2357 C2348 1.429 . S
C2357 N2354 1.350 . S
C2357 C2356 1.411 1_655 S
C2358 C2359 1.369 . S
C2358 C2360 1.419 . S
C2358 H2362 0.930 . S
C2359 C2358 1.369 . S
C2359 C2368 1.429 . S
C2360 C2358 1.419 . S
C2360 C2361 1.363 . S
C2360 H2363 0.929 . S
C2361 C2360 1.363 . S
C2361 C2367 1.428 . S
H2362 C2358 0.930 . S
H2363 C2360 0.929 . S
S2364 N2365 1.613 . S
S2364 N2366 1.610 . S
N2365 S2364 1.613 . S
N2365 C2368 1.350 . S
N2366 S2364 1.610 . S
N2366 C2367 1.351 . S
C2367 C2361 1.428 . S
C2367 N2366 1.351 . S
C2367 C2368 1.434 . S
C2368 C2359 1.429 . S
C2368 N2365 1.350 . S
C2368 C2367 1.434 . S
C2369 C2370 1.369 . S
C2369 C2371 1.419 . S
C2369 H2373 0.930 . S
C2370 C2369 1.369 . S
C2370 C2379 1.429 . S
C2371 C2369 1.419 . S
C2371 C2372 1.363 . S
C2371 H2374 0.929 . S
C2372 C2371 1.363 . S
C2372 C2378 1.428 . S
H2373 C2369 0.930 . S
H2374 C2371 0.929 . S
S2375 N2376 1.613 . S
S2375 N2377 1.610 . S
N2376 S2375 1.613 . S
N2376 C2379 1.350 . S
N2377 S2375 1.610 . S
N2377 C2378 1.351 . S
C2378 C2372 1.428 . S
C2378 N2377 1.351 . S
C2378 C2379 1.434 . S
C2379 C2370 1.429 . S
C2379 N2376 1.350 . S
C2379 C2378 1.434 . S
C2380 C2381 1.369 1_545 S
C2380 C2382 1.419 . S
C2380 H2384 0.930 . S
C2381 C2380 1.369 1_565 S
C2381 C2390 1.429 . S
C2382 C2380 1.419 . S
C2382 C2383 1.363 . S
C2382 H2385 0.929 . S
C2383 C2382 1.363 . S
C2383 C2389 1.428 1_545 S
H2384 C2380 0.930 . S
H2385 C2382 0.929 . S
S2386 N2387 1.613 . S
S2386 N2388 1.610 . S
N2387 S2386 1.613 . S
N2387 C2390 1.350 . S
N2388 S2386 1.610 . S
N2388 C2389 1.351 . S
C2389 C2383 1.428 1_565 S
C2389 N2388 1.351 . S
C2389 C2390 1.434 . S
C2390 C2381 1.429 . S
C2390 N2387 1.350 . S
C2390 C2389 1.434 . S
C2391 C2392 1.369 . S
C2391 C2393 1.419 . S
C2391 H2395 0.930 . S
C2392 C2391 1.369 . S
C2392 C2401 1.429 . S
C2393 C2391 1.419 . S
C2393 C2394 1.363 . S
C2393 H2396 0.929 . S
C2394 C2393 1.363 . S
C2394 C2400 1.428 . S
H2395 C2391 0.930 . S
H2396 C2393 0.929 . S
S2397 N2398 1.613 . S
S2397 N2399 1.610 . S
N2398 S2397 1.613 . S
N2398 C2401 1.350 . S
N2399 S2397 1.610 . S
N2399 C2400 1.351 . S
C2400 C2394 1.428 . S
C2400 N2399 1.351 . S
C2400 C2401 1.434 . S
C2401 C2392 1.429 . S
C2401 N2398 1.350 . S
C2401 C2400 1.434 . S
C2402 C2403 1.369 . S
C2402 C2404 1.419 . S
C2402 H2406 0.930 . S
C2403 C2402 1.369 . S
C2403 C2412 1.429 . S
C2404 C2402 1.419 . S
C2404 C2405 1.363 . S
C2404 H2407 0.929 . S
C2405 C2404 1.363 . S
C2405 C2411 1.428 . S
H2406 C2402 0.930 . S
H2407 C2404 0.929 . S
S2408 N2409 1.613 . S
S2408 N2410 1.610 . S
N2409 S2408 1.613 . S
N2409 C2412 1.350 . S
N2410 S2408 1.610 . S
N2410 C2411 1.351 . S
C2411 C2405 1.428 . S
C2411 N2410 1.351 . S
C2411 C2412 1.434 . S
C2412 C2403 1.429 . S
C2412 N2409 1.350 . S
C2412 C2411 1.434 . S
C2413 C2414 1.369 . S
C2413 C2415 1.419 . S
C2413 H2417 0.930 . S
C2414 C2413 1.369 . S
C2414 C2423 1.429 . S
C2415 C2413 1.419 . S
C2415 C2416 1.363 . S
C2415 H2418 0.929 . S
C2416 C2415 1.363 . S
C2416 C2422 1.428 . S
H2417 C2413 0.930 . S
H2418 C2415 0.929 . S
S2419 N2420 1.613 . S
S2419 N2421 1.610 . S
N2420 S2419 1.613 . S
N2420 C2423 1.350 . S
N2421 S2419 1.610 . S
N2421 C2422 1.351 . S
C2422 C2416 1.428 . S
C2422 N2421 1.351 . S
C2422 C2423 1.434 . S
C2423 C2414 1.429 . S
C2423 N2420 1.350 . S
C2423 C2422 1.434 . S
C2424 C2425 1.369 . S
C2424 C2426 1.419 . S
C2424 H2428 0.930 . S
C2425 C2424 1.369 . S
C2425 C2434 1.429 . S
C2426 C2424 1.419 . S
C2426 C2427 1.363 . S
C2426 H2429 0.929 . S
C2427 C2426 1.363 . S
C2427 C2433 1.428 . S
H2428 C2424 0.930 . S
H2429 C2426 0.929 . S
S2430 N2431 1.613 . S
S2430 N2432 1.610 . S
N2431 S2430 1.613 . S
N2431 C2434 1.350 . S
N2432 S2430 1.610 . S
N2432 C2433 1.351 . S
C2433 C2427 1.428 . S
C2433 N2432 1.351 . S
C2433 C2434 1.434 . S
C2434 C2425 1.429 . S
C2434 N2431 1.350 . S
C2434 C2433 1.434 . S
C2435 C2436 1.369 . S
C2435 C2437 1.419 . S
C2435 H2439 0.930 . S
C2436 C2435 1.369 . S
C2436 C2445 1.429 . S
C2437 C2435 1.419 . S
C2437 C2438 1.363 . S
C2437 H2440 0.929 . S
C2438 C2437 1.363 . S
C2438 C2444 1.428 . S
H2439 C2435 0.930 . S
H2440 C2437 0.929 . S
S2441 N2442 1.613 . S
S2441 N2443 1.610 . S
N2442 S2441 1.613 . S
N2442 C2445 1.350 . S
N2443 S2441 1.610 . S
N2443 C2444 1.351 . S
C2444 C2438 1.428 . S
C2444 N2443 1.351 . S
C2444 C2445 1.434 . S
C2445 C2436 1.429 . S
C2445 N2442 1.350 . S
C2445 C2444 1.434 . S
C2446 C2447 1.369 . S
C2446 C2448 1.419 . S
C2446 H2450 0.930 . S
C2447 C2446 1.369 . S
C2447 C2456 1.429 . S
C2448 C2446 1.419 . S
C2448 C2449 1.363 . S
C2448 H2451 0.929 . S
C2449 C2448 1.363 . S
C2449 C2455 1.428 . S
H2450 C2446 0.930 . S
H2451 C2448 0.929 . S
S2452 N2453 1.613 . S
S2452 N2454 1.610 . S
N2453 S2452 1.613 . S
N2453 C2456 1.350 . S
N2454 S2452 1.610 . S
N2454 C2455 1.351 . S
C2455 C2449 1.428 . S
C2455 N2454 1.351 . S
C2455 C2456 1.434 . S
C2456 C2447 1.429 . S
C2456 N2453 1.350 . S
C2456 C2455 1.434 . S
C2457 C2458 1.369 . S
C2457 C2459 1.419 . S
C2457 H2461 0.930 . S
C2458 C2457 1.369 . S
C2458 C2467 1.429 . S
C2459 C2457 1.419 . S
C2459 C2460 1.363 . S
C2459 H2462 0.929 . S
C2460 C2459 1.363 . S
C2460 C2466 1.428 . S
H2461 C2457 0.930 . S
H2462 C2459 0.929 . S
S2463 N2464 1.613 . S
S2463 N2465 1.610 . S
N2464 S2463 1.613 . S
N2464 C2467 1.350 . S
N2465 S2463 1.610 . S
N2465 C2466 1.351 . S
C2466 C2460 1.428 . S
C2466 N2465 1.351 . S
C2466 C2467 1.434 . S
C2467 C2458 1.429 . S
C2467 N2464 1.350 . S
C2467 C2466 1.434 . S
C2468 C2469 1.369 . S
C2468 C2470 1.419 . S
C2468 H2472 0.930 . S
C2469 C2468 1.369 . S
C2469 C2478 1.429 . S
C2470 C2468 1.419 . S
C2470 C2471 1.363 . S
C2470 H2473 0.929 . S
C2471 C2470 1.363 . S
C2471 C2477 1.428 . S
H2472 C2468 0.930 . S
H2473 C2470 0.929 . S
S2474 N2475 1.613 . S
S2474 N2476 1.610 . S
N2475 S2474 1.613 . S
N2475 C2478 1.350 . S
N2476 S2474 1.610 . S
N2476 C2477 1.351 . S
C2477 C2471 1.428 . S
C2477 N2476 1.351 . S
C2477 C2478 1.434 . S
C2478 C2469 1.429 . S
C2478 N2475 1.350 . S
C2478 C2477 1.434 . S
C2479 C2480 1.381 . S
C2479 C2481 1.419 . S
C2479 H2483 0.930 . S
C2480 C2479 1.381 . S
C2480 C2489 1.434 . S
C2481 C2479 1.419 . S
C2481 C2482 1.363 . S
C2481 H2484 0.929 . S
C2482 C2481 1.363 . S
C2482 C2488 1.428 . S
H2483 C2479 0.930 . S
H2484 C2481 0.929 . S
S2485 N2486 1.613 1_455 S
S2485 N2487 1.610 . S
N2486 S2485 1.613 1_655 S
N2486 C2489 1.350 1_655 S
N2487 S2485 1.610 . S
N2487 C2488 1.351 . S
C2488 C2482 1.428 . S
C2488 N2487 1.351 . S
C2488 C2489 1.434 . S
C2489 C2480 1.434 . S
C2489 N2486 1.350 1_455 S
C2489 C2488 1.434 . S
C2490 C2491 1.369 . S
C2490 C2492 1.419 . S
C2490 H2494 0.930 . S
C2491 C2490 1.369 . S
C2491 C2500 1.429 . S
C2492 C2490 1.419 . S
C2492 C2493 1.363 . S
C2492 H2495 0.929 . S
C2493 C2492 1.363 . S
C2493 C2499 1.428 . S
H2494 C2490 0.930 . S
H2495 C2492 0.929 . S
S2496 N2497 1.613 . S
S2496 N2498 1.610 . S
N2497 S2496 1.613 . S
N2497 C2500 1.350 . S
N2498 S2496 1.610 . S
N2498 C2499 1.351 . S
C2499 C2493 1.428 . S
C2499 N2498 1.351 . S
C2499 C2500 1.434 . S
C2500 C2491 1.429 . S
C2500 N2497 1.350 . S
C2500 C2499 1.434 . S
C2501 C2502 1.369 . S
C2501 C2503 1.419 . S
C2501 H2505 0.930 . S
C2502 C2501 1.369 . S
C2502 C2511 1.429 . S
C2503 C2501 1.419 . S
C2503 C2504 1.376 . S
C2503 H2506 0.929 . S
C2504 C2503 1.376 . S
C2504 C2510 1.435 . S
H2505 C2501 0.930 . S
H2506 C2503 0.929 . S
S2507 N2508 1.613 . S
S2507 N2509 1.610 1_655 S
N2508 S2507 1.613 . S
N2508 C2511 1.350 . S
N2509 S2507 1.610 1_455 S
N2509 C2510 1.351 1_455 S
C2510 C2504 1.435 . S
C2510 N2509 1.351 1_655 S
C2510 C2511 1.434 . S
C2511 C2502 1.429 . S
C2511 N2508 1.350 . S
C2511 C2510 1.434 . S
C2512 C2513 1.369 . S
C2512 C2514 1.419 . S
C2512 H2516 0.930 . S
C2513 C2512 1.369 . S
C2513 C2522 1.429 . S
C2514 C2512 1.419 . S
C2514 C2515 1.363 . S
C2514 H2517 0.929 . S
C2515 C2514 1.363 . S
C2515 C2521 1.428 . S
H2516 C2512 0.930 . S
H2517 C2514 0.929 . S
S2518 N2519 1.613 . S
S2518 N2520 1.610 . S
N2519 S2518 1.613 . S
N2519 C2522 1.350 . S
N2520 S2518 1.610 . S
N2520 C2521 1.351 . S
C2521 C2515 1.428 . S
C2521 N2520 1.351 . S
C2521 C2522 1.434 . S
C2522 C2513 1.429 . S
C2522 N2519 1.350 . S
C2522 C2521 1.434 . S
C2523 C2524 1.369 . S
C2523 C2525 1.419 . S
C2523 H2527 0.930 . S
C2524 C2523 1.369 . S
C2524 C2533 1.429 . S
C2525 C2523 1.419 . S
C2525 C2526 1.372 . S
C2525 H2528 0.929 1_554 S
C2526 C2525 1.372 . S
C2526 C2532 1.444 . S
H2527 C2523 0.930 . S
H2528 C2525 0.929 1_556 S
S2529 N2530 1.613 . S
S2529 N2531 1.610 . S
N2530 S2529 1.613 . S
N2530 C2533 1.350 . S
N2531 S2529 1.610 . S
N2531 C2532 1.351 . S
C2532 C2526 1.444 . S
C2532 N2531 1.351 . S
C2532 C2533 1.434 . S
C2533 C2524 1.429 . S
C2533 N2530 1.350 . S
C2533 C2532 1.434 . S
C2534 C2535 1.369 . S
C2534 C2536 1.419 . S
C2534 H2538 0.930 . S
C2535 C2534 1.369 . S
C2535 C2544 1.429 . S
C2536 C2534 1.419 . S
C2536 C2537 1.363 . S
C2536 H2539 0.929 . S
C2537 C2536 1.363 . S
C2537 C2543 1.428 . S
H2538 C2534 0.930 . S
H2539 C2536 0.929 . S
S2540 N2541 1.613 . S
S2540 N2542 1.610 . S
N2541 S2540 1.613 . S
N2541 C2544 1.350 . S
N2542 S2540 1.610 . S
N2542 C2543 1.351 . S
C2543 C2537 1.428 . S
C2543 N2542 1.351 . S
C2543 C2544 1.434 . S
C2544 C2535 1.429 . S
C2544 N2541 1.350 . S
C2544 C2543 1.434 . S
C2545 C2546 1.369 . S
C2545 C2547 1.419 . S
C2545 H2549 0.930 . S
C2546 C2545 1.369 . S
C2546 C2555 1.429 . S
C2547 C2545 1.419 . S
C2547 C2548 1.372 . S
C2547 H2550 0.905 1_554 S
C2548 C2547 1.372 . S
C2548 C2554 1.444 . S
H2549 C2545 0.930 . S
H2550 C2547 0.905 1_556 S
S2551 N2552 1.613 . S
S2551 N2553 1.610 . S
N2552 S2551 1.613 . S
N2552 C2555 1.350 . S
N2553 S2551 1.610 . S
N2553 C2554 1.351 . S
C2554 C2548 1.444 . S
C2554 N2553 1.351 . S
C2554 C2555 1.434 . S
C2555 C2546 1.429 . S
C2555 N2552 1.350 . S
C2555 C2554 1.434 . S
C2556 C2557 1.369 . S
C2556 C2558 1.419 . S
C2556 H2560 0.930 . S
C2557 C2556 1.369 . S
C2557 C2566 1.429 . S
C2558 C2556 1.419 . S
C2558 C2559 1.363 . S
C2558 H2561 0.929 . S
C2559 C2558 1.363 . S
C2559 C2565 1.428 . S
H2560 C2556 0.930 . S
H2561 C2558 0.929 . S
S2562 N2563 1.613 . S
S2562 N2564 1.610 . S
N2563 S2562 1.613 . S
N2563 C2566 1.350 . S
N2564 S2562 1.610 . S
N2564 C2565 1.351 . S
C2565 C2559 1.428 . S
C2565 N2564 1.351 . S
C2565 C2566 1.434 . S
C2566 C2557 1.429 . S
C2566 N2563 1.350 . S
C2566 C2565 1.434 . S
C2567 C2568 1.369 . S
C2567 C2569 1.419 . S
C2567 H2571 0.930 . S
C2568 C2567 1.369 . S
C2568 C2577 1.429 . S
C2569 C2567 1.419 . S
C2569 C2570 1.373 . S
C2569 H2572 0.929 . S
C2570 C2569 1.373 . S
C2570 C2576 1.443 . S
H2571 C2567 0.930 . S
H2572 C2569 0.929 . S
S2573 N2574 1.613 . S
S2573 N2575 1.610 . S
N2574 S2573 1.613 . S
N2574 C2577 1.350 . S
N2575 S2573 1.610 . S
N2575 C2576 1.351 . S
C2576 C2570 1.443 . S
C2576 N2575 1.351 . S
C2576 C2577 1.434 . S
C2577 C2568 1.429 . S
C2577 N2574 1.350 . S
C2577 C2576 1.434 . S
C2578 C2579 1.369 . S
C2578 C2580 1.419 . S
C2578 H2582 0.930 . S
C2579 C2578 1.369 . S
C2579 C2588 1.429 . S
C2580 C2578 1.419 . S
C2580 C2581 1.363 . S
C2580 H2583 0.929 . S
C2581 C2580 1.363 . S
C2581 C2587 1.428 . S
H2582 C2578 0.930 . S
H2583 C2580 0.929 . S
S2584 N2585 1.613 . S
S2584 N2586 1.610 . S
N2585 S2584 1.613 . S
N2585 C2588 1.350 . S
N2586 S2584 1.610 . S
N2586 C2587 1.351 . S
C2587 C2581 1.428 . S
C2587 N2586 1.351 . S
C2587 C2588 1.434 . S
C2588 C2579 1.429 . S
C2588 N2585 1.350 . S
C2588 C2587 1.434 . S
C2589 C2590 1.379 . S
C2589 C2591 1.419 . S
C2589 H2593 0.955 . S
C2590 C2589 1.379 . S
C2590 C2599 1.444 . S
C2591 C2589 1.419 . S
C2591 C2592 1.363 . S
C2591 H2594 0.929 . S
C2592 C2591 1.363 . S
C2592 C2598 1.428 . S
H2593 C2589 0.955 . S
H2594 C2591 0.929 . S
S2595 N2596 1.613 . S
S2595 N2597 1.610 . S
N2596 S2595 1.613 . S
N2596 C2599 1.350 . S
N2597 S2595 1.610 . S
N2597 C2598 1.351 . S
C2598 C2592 1.428 . S
C2598 N2597 1.351 . S
C2598 C2599 1.434 . S
C2599 C2590 1.444 . S
C2599 N2596 1.350 . S
C2599 C2598 1.434 . S
C2600 C2601 1.369 . S
C2600 C2602 1.419 . S
C2600 H2604 0.930 . S
C2601 C2600 1.369 . S
C2601 C2610 1.429 . S
C2602 C2600 1.419 . S
C2602 C2603 1.363 . S
C2602 H2605 0.929 . S
C2603 C2602 1.363 . S
C2603 C2609 1.428 . S
H2604 C2600 0.930 . S
H2605 C2602 0.929 . S
S2606 N2607 1.613 . S
S2606 N2608 1.610 . S
N2607 S2606 1.613 . S
N2607 C2610 1.350 . S
N2608 S2606 1.610 . S
N2608 C2609 1.351 . S
C2609 C2603 1.428 . S
C2609 N2608 1.351 . S
C2609 C2610 1.434 . S
C2610 C2601 1.429 . S
C2610 N2607 1.350 . S
C2610 C2609 1.434 . S
C2611 C2612 1.369 . S
C2611 C2613 1.419 . S
C2611 H2615 0.930 . S
C2612 C2611 1.369 . S
C2612 C2621 1.429 . S
C2613 C2611 1.419 . S
C2613 C2614 1.363 . S
C2613 H2616 0.929 . S
C2614 C2613 1.363 . S
C2614 C2620 1.428 . S
H2615 C2611 0.930 . S
H2616 C2613 0.929 . S
S2617 N2618 1.613 . S
S2617 N2619 1.610 . S
N2618 S2617 1.613 . S
N2618 C2621 1.350 . S
N2619 S2617 1.610 . S
N2619 C2620 1.351 . S
C2620 C2614 1.428 . S
C2620 N2619 1.351 . S
C2620 C2621 1.434 . S
C2621 C2612 1.429 . S
C2621 N2618 1.350 . S
C2621 C2620 1.434 . S
C2622 C2623 1.369 . S
C2622 C2624 1.419 . S
C2622 H2626 0.930 . S
C2623 C2622 1.369 . S
C2623 C2632 1.429 . S
C2624 C2622 1.419 . S
C2624 C2625 1.363 . S
C2624 H2627 0.929 . S
C2625 C2624 1.363 . S
C2625 C2631 1.428 . S
H2626 C2622 0.930 . S
H2627 C2624 0.929 . S
S2628 N2629 1.613 . S
S2628 N2630 1.610 . S
N2629 S2628 1.613 . S
N2629 C2632 1.350 . S
N2630 S2628 1.610 . S
N2630 C2631 1.351 . S
C2631 C2625 1.428 . S
C2631 N2630 1.351 . S
C2631 C2632 1.434 . S
C2632 C2623 1.429 . S
C2632 N2629 1.350 . S
C2632 C2631 1.434 . S
C2633 C2634 1.369 . S
C2633 C2635 1.419 . S
C2633 H2637 0.930 . S
C2634 C2633 1.369 . S
C2634 C2643 1.429 . S
C2635 C2633 1.419 . S
C2635 C2636 1.363 . S
C2635 H2638 0.929 . S
C2636 C2635 1.363 . S
C2636 C2642 1.428 . S
H2637 C2633 0.930 . S
H2638 C2635 0.929 . S
S2639 N2640 1.613 . S
S2639 N2641 1.610 . S
N2640 S2639 1.613 . S
N2640 C2643 1.350 . S
N2641 S2639 1.610 . S
N2641 C2642 1.351 . S
C2642 C2636 1.428 . S
C2642 N2641 1.351 . S
C2642 C2643 1.434 . S
C2643 C2634 1.429 . S
C2643 N2640 1.350 . S
C2643 C2642 1.434 . S
C2644 C2645 1.369 . S
C2644 C2646 1.419 . S
C2644 H2648 0.930 . S
C2645 C2644 1.369 . S
C2645 C2654 1.429 . S
C2646 C2644 1.419 . S
C2646 C2647 1.363 . S
C2646 H2649 0.929 . S
C2647 C2646 1.363 . S
C2647 C2653 1.428 . S
H2648 C2644 0.930 . S
H2649 C2646 0.929 . S
S2650 N2651 1.613 . S
S2650 N2652 1.610 . S
N2651 S2650 1.613 . S
N2651 C2654 1.350 . S
N2652 S2650 1.610 . S
N2652 C2653 1.351 . S
C2653 C2647 1.428 . S
C2653 N2652 1.351 . S
C2653 C2654 1.434 . S
C2654 C2645 1.429 . S
C2654 N2651 1.350 . S
C2654 C2653 1.434 . S
C2655 C2656 1.369 . S
C2655 C2657 1.419 . S
C2655 H2659 0.930 . S
C2656 C2655 1.369 . S
C2656 C2665 1.429 . S
C2657 C2655 1.419 . S
C2657 C2658 1.363 . S
C2657 H2660 0.929 . S
C2658 C2657 1.363 . S
C2658 C2664 1.428 . S
H2659 C2655 0.930 . S
H2660 C2657 0.929 . S
S2661 N2662 1.613 . S
S2661 N2663 1.610 . S
N2662 S2661 1.613 . S
N2662 C2665 1.350 . S
N2663 S2661 1.610 . S
N2663 C2664 1.351 . S
C2664 C2658 1.428 . S
C2664 N2663 1.351 . S
C2664 C2665 1.434 . S
C2665 C2656 1.429 . S
C2665 N2662 1.350 . S
C2665 C2664 1.434 . S
C2666 C2667 1.369 . S
C2666 C2668 1.419 . S
C2666 H2670 0.930 . S
C2667 C2666 1.369 . S
C2667 C2676 1.429 . S
C2668 C2666 1.419 . S
C2668 C2669 1.363 . S
C2668 H2671 0.929 . S
C2669 C2668 1.363 . S
C2669 C2675 1.428 . S
H2670 C2666 0.930 . S
H2671 C2668 0.929 . S
S2672 N2673 1.613 . S
S2672 N2674 1.610 . S
N2673 S2672 1.613 . S
N2673 C2676 1.350 . S
N2674 S2672 1.610 . S
N2674 C2675 1.351 . S
C2675 C2669 1.428 . S
C2675 N2674 1.351 . S
C2675 C2676 1.434 . S
C2676 C2667 1.429 . S
C2676 N2673 1.350 . S
C2676 C2675 1.434 . S
C2677 C2678 1.379 . S
C2677 C2679 1.419 . S
C2677 H2681 0.922 1_545 S
C2678 C2677 1.379 . S
C2678 C2687 1.445 . S
C2679 C2677 1.419 . S
C2679 C2680 1.363 . S
C2679 H2682 0.929 . S
C2680 C2679 1.363 . S
C2680 C2686 1.428 . S
H2681 C2677 0.922 1_565 S
H2682 C2679 0.929 . S
S2683 N2684 1.613 . S
S2683 N2685 1.610 . S
N2684 S2683 1.613 . S
N2684 C2687 1.350 . S
N2685 S2683 1.610 . S
N2685 C2686 1.351 . S
C2686 C2680 1.428 . S
C2686 N2685 1.351 . S
C2686 C2687 1.434 . S
C2687 C2678 1.445 . S
C2687 N2684 1.350 . S
C2687 C2686 1.434 . S
C2688 C2689 1.369 . S
C2688 C2690 1.419 . S
C2688 H2692 0.930 . S
C2689 C2688 1.369 . S
C2689 C2698 1.429 . S
C2690 C2688 1.419 . S
C2690 C2691 1.363 . S
C2690 H2693 0.929 . S
C2691 C2690 1.363 . S
C2691 C2697 1.428 . S
H2692 C2688 0.930 . S
H2693 C2690 0.929 . S
S2694 N2695 1.613 . S
S2694 N2696 1.610 . S
N2695 S2694 1.613 . S
N2695 C2698 1.350 . S
N2696 S2694 1.610 . S
N2696 C2697 1.351 . S
C2697 C2691 1.428 . S
C2697 N2696 1.351 . S
C2697 C2698 1.434 . S
C2698 C2689 1.429 . S
C2698 N2695 1.350 . S
C2698 C2697 1.434 . S
C2699 C2700 1.369 . S
C2699 C2701 1.419 . S
C2699 H2703 0.930 . S
C2700 C2699 1.369 . S
C2700 C2709 1.429 . S
C2701 C2699 1.419 . S
C2701 C2702 1.372 . S
C2701 H2704 0.929 1_655 S
C2702 C2701 1.372 . S
C2702 C2708 1.445 . S
H2703 C2699 0.930 . S
H2704 C2701 0.929 1_455 S
S2705 N2706 1.613 . S
S2705 N2707 1.610 . S
N2706 S2705 1.613 . S
N2706 C2709 1.350 . S
N2707 S2705 1.610 . S
N2707 C2708 1.351 . S
C2708 C2702 1.445 . S
C2708 N2707 1.351 . S
C2708 C2709 1.434 . S
C2709 C2700 1.429 . S
C2709 N2706 1.350 . S
C2709 C2708 1.434 . S
C2710 C2711 1.369 . S
C2710 C2712 1.419 . S
C2710 H2714 0.930 . S
C2711 C2710 1.369 . S
C2711 C2720 1.429 . S
C2712 C2710 1.419 . S
C2712 C2713 1.363 . S
C2712 H2715 0.929 . S
C2713 C2712 1.363 . S
C2713 C2719 1.428 . S
H2714 C2710 0.930 . S
H2715 C2712 0.929 . S
S2716 N2717 1.613 . S
S2716 N2718 1.610 . S
N2717 S2716 1.613 . S
N2717 C2720 1.350 . S
N2718 S2716 1.610 . S
N2718 C2719 1.351 . S
C2719 C2713 1.428 . S
C2719 N2718 1.351 . S
C2719 C2720 1.434 . S
C2720 C2711 1.429 . S
C2720 N2717 1.350 . S
C2720 C2719 1.434 . S
C2721 C2722 1.369 . S
C2721 C2723 1.419 . S
C2721 H2725 0.930 . S
C2722 C2721 1.369 . S
C2722 C2731 1.429 . S
C2723 C2721 1.419 . S
C2723 C2724 1.374 . S
C2723 H2726 0.929 . S
C2724 C2723 1.374 . S
C2724 C2730 1.441 . S
H2725 C2721 0.930 . S
H2726 C2723 0.929 . S
S2727 N2728 1.613 . S
S2727 N2729 1.610 . S
N2728 S2727 1.613 . S
N2728 C2731 1.350 . S
N2729 S2727 1.610 . S
N2729 C2730 1.351 . S
C2730 C2724 1.441 . S
C2730 N2729 1.351 . S
C2730 C2731 1.434 . S
C2731 C2722 1.429 . S
C2731 N2728 1.350 . S
C2731 C2730 1.434 . S
C2732 C2733 1.369 . S
C2732 C2734 1.419 . S
C2732 H2736 0.930 . S
C2733 C2732 1.369 . S
C2733 C2742 1.429 . S
C2734 C2732 1.419 . S
C2734 C2735 1.363 . S
C2734 H2737 0.929 . S
C2735 C2734 1.363 . S
C2735 C2741 1.428 . S
H2736 C2732 0.930 . S
H2737 C2734 0.929 . S
S2738 N2739 1.613 . S
S2738 N2740 1.610 . S
N2739 S2738 1.613 . S
N2739 C2742 1.350 . S
N2740 S2738 1.610 . S
N2740 C2741 1.351 . S
C2741 C2735 1.428 . S
C2741 N2740 1.351 . S
C2741 C2742 1.434 . S
C2742 C2733 1.429 . S
C2742 N2739 1.350 . S
C2742 C2741 1.434 . S
C2743 C2744 1.369 . S
C2743 C2745 1.419 . S
C2743 H2747 0.930 . S
C2744 C2743 1.369 . S
C2744 C2753 1.429 . S
C2745 C2743 1.419 . S
C2745 C2746 1.363 . S
C2745 H2748 0.929 . S
C2746 C2745 1.363 . S
C2746 C2752 1.428 . S
H2747 C2743 0.930 . S
H2748 C2745 0.929 . S
S2749 N2750 1.613 . S
S2749 N2751 1.610 . S
N2750 S2749 1.613 . S
N2750 C2753 1.350 . S
N2751 S2749 1.610 . S
N2751 C2752 1.351 . S
C2752 C2746 1.428 . S
C2752 N2751 1.351 . S
C2752 C2753 1.434 . S
C2753 C2744 1.429 . S
C2753 N2750 1.350 . S
C2753 C2752 1.434 . S
C2754 C2755 1.369 . S
C2754 C2756 1.419 . S
C2754 H2758 0.930 . S
C2755 C2754 1.369 . S
C2755 C2764 1.429 . S
C2756 C2754 1.419 . S
C2756 C2757 1.363 . S
C2756 H2759 0.929 . S
C2757 C2756 1.363 . S
C2757 C2763 1.428 . S
H2758 C2754 0.930 . S
H2759 C2756 0.929 . S
S2760 N2761 1.613 . S
S2760 N2762 1.610 . S
N2761 S2760 1.613 . S
N2761 C2764 1.350 . S
N2762 S2760 1.610 . S
N2762 C2763 1.351 . S
C2763 C2757 1.428 . S
C2763 N2762 1.351 . S
C2763 C2764 1.434 . S
C2764 C2755 1.429 . S
C2764 N2761 1.350 . S
C2764 C2763 1.434 . S
C2765 C2766 1.369 . S
C2765 C2767 1.419 . S
C2765 H2769 0.930 . S
C2766 C2765 1.369 . S
C2766 C2775 1.429 . S
C2767 C2765 1.419 . S
C2767 C2768 1.363 . S
C2767 H2770 0.929 . S
C2768 C2767 1.363 . S
C2768 C2774 1.428 . S
H2769 C2765 0.930 . S
H2770 C2767 0.929 . S
S2771 N2772 1.613 . S
S2771 N2773 1.610 . S
N2772 S2771 1.613 . S
N2772 C2775 1.350 . S
N2773 S2771 1.610 . S
N2773 C2774 1.351 . S
C2774 C2768 1.428 . S
C2774 N2773 1.351 . S
C2774 C2775 1.434 . S
C2775 C2766 1.429 . S
C2775 N2772 1.350 . S
C2775 C2774 1.434 . S
C2776 C2777 1.369 . S
C2776 C2778 1.419 . S
C2776 H2780 0.930 . S
C2777 C2776 1.369 . S
C2777 C2786 1.429 . S
C2778 C2776 1.419 . S
C2778 C2779 1.363 . S
C2778 H2781 0.929 . S
C2779 C2778 1.363 . S
C2779 C2785 1.428 . S
H2780 C2776 0.930 . S
H2781 C2778 0.929 . S
S2782 N2783 1.613 . S
S2782 N2784 1.610 . S
N2783 S2782 1.613 . S
N2783 C2786 1.350 . S
N2784 S2782 1.610 . S
N2784 C2785 1.351 . S
C2785 C2779 1.428 . S
C2785 N2784 1.351 . S
C2785 C2786 1.434 . S
C2786 C2777 1.429 . S
C2786 N2783 1.350 . S
C2786 C2785 1.434 . S
C2787 C2788 1.369 . S
C2787 C2789 1.419 . S
C2787 H2791 0.930 . S
C2788 C2787 1.369 . S
C2788 C2797 1.429 . S
C2789 C2787 1.419 . S
C2789 C2790 1.363 . S
C2789 H2792 0.929 . S
C2790 C2789 1.363 . S
C2790 C2796 1.428 . S
H2791 C2787 0.930 . S
H2792 C2789 0.929 . S
S2793 N2794 1.613 . S
S2793 N2795 1.610 . S
N2794 S2793 1.613 . S
N2794 C2797 1.350 . S
N2795 S2793 1.610 . S
N2795 C2796 1.351 . S
C2796 C2790 1.428 . S
C2796 N2795 1.351 . S
C2796 C2797 1.434 . S
C2797 C2788 1.429 . S
C2797 N2794 1.350 . S
C2797 C2796 1.434 . S
C2798 C2799 1.369 . S
C2798 C2800 1.419 . S
C2798 H2802 0.930 . S
C2799 C2798 1.369 . S
C2799 C2808 1.429 . S
C2800 C2798 1.419 . S
C2800 C2801 1.363 . S
C2800 H2803 0.929 . S
C2801 C2800 1.363 . S
C2801 C2807 1.428 . S
H2802 C2798 0.930 . S
H2803 C2800 0.929 . S
S2804 N2805 1.613 . S
S2804 N2806 1.610 . S
N2805 S2804 1.613 . S
N2805 C2808 1.350 . S
N2806 S2804 1.610 . S
N2806 C2807 1.351 . S
C2807 C2801 1.428 . S
C2807 N2806 1.351 . S
C2807 C2808 1.434 . S
C2808 C2799 1.429 . S
C2808 N2805 1.350 . S
C2808 C2807 1.434 . S
C2809 C2810 1.369 . S
C2809 C2811 1.419 . S
C2809 H2813 0.930 . S
C2810 C2809 1.369 . S
C2810 C2819 1.429 . S
C2811 C2809 1.419 . S
C2811 C2812 1.363 . S
C2811 H2814 0.929 . S
C2812 C2811 1.363 . S
C2812 C2818 1.428 . S
H2813 C2809 0.930 . S
H2814 C2811 0.929 . S
S2815 N2816 1.613 . S
S2815 N2817 1.610 . S
N2816 S2815 1.613 . S
N2816 C2819 1.350 . S
N2817 S2815 1.610 . S
N2817 C2818 1.351 . S
C2818 C2812 1.428 . S
C2818 N2817 1.351 . S
C2818 C2819 1.434 . S
C2819 C2810 1.429 . S
C2819 N2816 1.350 . S
C2819 C2818 1.434 . S
C2820 C2821 1.369 . S
C2820 C2822 1.419 . S
C2820 H2824 0.930 . S
C2821 C2820 1.369 . S
C2821 C2830 1.429 . S
C2822 C2820 1.419 . S
C2822 C2823 1.363 . S
C2822 H2825 0.929 . S
C2823 C2822 1.363 . S
C2823 C2829 1.428 . S
H2824 C2820 0.930 . S
H2825 C2822 0.929 . S
S2826 N2827 1.613 . S
S2826 N2828 1.610 . S
N2827 S2826 1.613 . S
N2827 C2830 1.350 . S
N2828 S2826 1.610 . S
N2828 C2829 1.351 . S
C2829 C2823 1.428 . S
C2829 N2828 1.351 . S
C2829 C2830 1.434 . S
C2830 C2821 1.429 . S
C2830 N2827 1.350 . S
C2830 C2829 1.434 . S
C2831 C2832 1.369 . S
C2831 C2833 1.419 . S
C2831 H2835 0.930 . S
C2832 C2831 1.369 . S
C2832 C2841 1.429 . S
C2833 C2831 1.419 . S
C2833 C2834 1.363 . S
C2833 H2836 0.929 . S
C2834 C2833 1.363 . S
C2834 C2840 1.428 . S
H2835 C2831 0.930 . S
H2836 C2833 0.929 . S
S2837 N2838 1.613 . S
S2837 N2839 1.610 . S
N2838 S2837 1.613 . S
N2838 C2841 1.350 . S
N2839 S2837 1.610 . S
N2839 C2840 1.351 . S
C2840 C2834 1.428 . S
C2840 N2839 1.351 . S
C2840 C2841 1.434 . S
C2841 C2832 1.429 . S
C2841 N2838 1.350 . S
C2841 C2840 1.434 . S
C2842 C2843 1.369 . S
C2842 C2844 1.419 . S
C2842 H2846 0.930 . S
C2843 C2842 1.369 . S
C2843 C2852 1.429 . S
C2844 C2842 1.419 . S
C2844 C2845 1.363 . S
C2844 H2847 0.929 . S
C2845 C2844 1.363 . S
C2845 C2851 1.428 . S
H2846 C2842 0.930 . S
H2847 C2844 0.929 . S
S2848 N2849 1.613 . S
S2848 N2850 1.610 . S
N2849 S2848 1.613 . S
N2849 C2852 1.350 . S
N2850 S2848 1.610 . S
N2850 C2851 1.351 . S
C2851 C2845 1.428 . S
C2851 N2850 1.351 . S
C2851 C2852 1.434 . S
C2852 C2843 1.429 . S
C2852 N2849 1.350 . S
C2852 C2851 1.434 . S
C2853 C2854 1.369 . S
C2853 C2855 1.419 . S
C2853 H2857 0.930 . S
C2854 C2853 1.369 . S
C2854 C2863 1.429 . S
C2855 C2853 1.419 . S
C2855 C2856 1.363 . S
C2855 H2858 0.929 . S
C2856 C2855 1.363 . S
C2856 C2862 1.428 . S
H2857 C2853 0.930 . S
H2858 C2855 0.929 . S
S2859 N2860 1.613 . S
S2859 N2861 1.610 . S
N2860 S2859 1.613 . S
N2860 C2863 1.350 . S
N2861 S2859 1.610 . S
N2861 C2862 1.351 . S
C2862 C2856 1.428 . S
C2862 N2861 1.351 . S
C2862 C2863 1.434 . S
C2863 C2854 1.429 . S
C2863 N2860 1.350 . S
C2863 C2862 1.434 . S
C2864 C2865 1.369 . S
C2864 C2866 1.419 . S
C2864 H2868 0.930 . S
C2865 C2864 1.369 . S
C2865 C2874 1.429 . S
C2866 C2864 1.419 . S
C2866 C2867 1.363 . S
C2866 H2869 0.929 . S
C2867 C2866 1.363 . S
C2867 C2873 1.428 . S
H2868 C2864 0.930 . S
H2869 C2866 0.929 . S
S2870 N2871 1.613 . S
S2870 N2872 1.610 . S
N2871 S2870 1.613 . S
N2871 C2874 1.350 . S
N2872 S2870 1.610 . S
N2872 C2873 1.351 . S
C2873 C2867 1.428 . S
C2873 N2872 1.351 . S
C2873 C2874 1.434 . S
C2874 C2865 1.429 . S
C2874 N2871 1.350 . S
C2874 C2873 1.434 . S
C2875 C2876 1.369 . S
C2875 C2877 1.419 . S
C2875 H2879 0.930 . S
C2876 C2875 1.369 . S
C2876 C2885 1.429 . S
C2877 C2875 1.419 . S
C2877 C2878 1.363 . S
C2877 H2880 0.929 . S
C2878 C2877 1.363 . S
C2878 C2884 1.428 . S
H2879 C2875 0.930 . S
H2880 C2877 0.929 . S
S2881 N2882 1.613 . S
S2881 N2883 1.610 . S
N2882 S2881 1.613 . S
N2882 C2885 1.350 . S
N2883 S2881 1.610 . S
N2883 C2884 1.351 . S
C2884 C2878 1.428 . S
C2884 N2883 1.351 . S
C2884 C2885 1.434 . S
C2885 C2876 1.429 . S
C2885 N2882 1.350 . S
C2885 C2884 1.434 . S
C2886 C2887 1.369 . S
C2886 C2888 1.419 . S
C2886 H2890 0.930 . S
C2887 C2886 1.369 . S
C2887 C2896 1.429 . S
C2888 C2886 1.419 . S
C2888 C2889 1.374 . S
C2888 H2891 0.929 . S
C2889 C2888 1.374 . S
C2889 C2895 1.438 . S
H2890 C2886 0.930 . S
H2891 C2888 0.929 . S
S2892 N2893 1.613 . S
S2892 N2894 1.610 . S
N2893 S2892 1.613 . S
N2893 C2896 1.350 . S
N2894 S2892 1.610 . S
N2894 C2895 1.351 . S
C2895 C2889 1.438 . S
C2895 N2894 1.351 . S
C2895 C2896 1.434 . S
C2896 C2887 1.429 . S
C2896 N2893 1.350 . S
C2896 C2895 1.434 . S
C2897 C2898 1.369 . S
C2897 C2899 1.419 . S
C2897 H2901 0.930 . S
C2898 C2897 1.369 . S
C2898 C2907 1.429 . S
C2899 C2897 1.419 . S
C2899 C2900 1.363 . S
C2899 H2902 0.929 . S
C2900 C2899 1.363 . S
C2900 C2906 1.428 . S
H2901 C2897 0.930 . S
H2902 C2899 0.929 . S
S2903 N2904 1.613 . S
S2903 N2905 1.610 . S
N2904 S2903 1.613 . S
N2904 C2907 1.350 . S
N2905 S2903 1.610 . S
N2905 C2906 1.351 . S
C2906 C2900 1.428 . S
C2906 N2905 1.351 . S
C2906 C2907 1.434 . S
C2907 C2898 1.429 . S
C2907 N2904 1.350 . S
C2907 C2906 1.434 . S
C2908 C2909 1.379 . S
C2908 C2910 1.419 . S
C2908 H2912 0.930 . S
C2909 C2908 1.379 . S
C2909 C2918 1.439 . S
C2910 C2908 1.419 . S
C2910 C2911 1.363 . S
C2910 H2913 0.929 . S
C2911 C2910 1.363 . S
C2911 C2917 1.428 . S
H2912 C2908 0.930 . S
H2913 C2910 0.929 . S
S2914 N2915 1.613 . S
S2914 N2916 1.610 . S
N2915 S2914 1.613 . S
N2915 C2918 1.350 . S
N2916 S2914 1.610 . S
N2916 C2917 1.351 . S
C2917 C2911 1.428 . S
C2917 N2916 1.351 . S
C2917 C2918 1.434 . S
C2918 C2909 1.439 . S
C2918 N2915 1.350 . S
C2918 C2917 1.434 . S
C2919 C2920 1.369 . S
C2919 C2921 1.419 . S
C2919 H2923 0.930 . S
C2920 C2919 1.369 . S
C2920 C2929 1.429 . S
C2921 C2919 1.419 . S
C2921 C2922 1.363 . S
C2921 H2924 0.929 . S
C2922 C2921 1.363 . S
C2922 C2928 1.428 . S
H2923 C2919 0.930 . S
H2924 C2921 0.929 . S
S2925 N2926 1.613 . S
S2925 N2927 1.610 . S
N2926 S2925 1.613 . S
N2926 C2929 1.350 . S
N2927 S2925 1.610 . S
N2927 C2928 1.351 . S
C2928 C2922 1.428 . S
C2928 N2927 1.351 . S
C2928 C2929 1.434 . S
C2929 C2920 1.429 . S
C2929 N2926 1.350 . S
C2929 C2928 1.434 . S
C2930 C2931 1.378 . S
C2930 C2932 1.419 . S
C2930 H2934 0.927 . S
C2931 C2930 1.378 . S
C2931 C2940 1.443 . S
C2932 C2930 1.419 . S
C2932 C2933 1.363 . S
C2932 H2935 0.929 . S
C2933 C2932 1.363 . S
C2933 C2939 1.428 . S
H2934 C2930 0.927 . S
H2935 C2932 0.929 . S
S2936 N2937 1.613 . S
S2936 N2938 1.610 . S
N2937 S2936 1.613 . S
N2937 C2940 1.350 . S
N2938 S2936 1.610 . S
N2938 C2939 1.351 . S
C2939 C2933 1.428 . S
C2939 N2938 1.351 . S
C2939 C2940 1.434 . S
C2940 C2931 1.443 . S
C2940 N2937 1.350 . S
C2940 C2939 1.434 . S
C2941 C2942 1.369 . S
C2941 C2943 1.419 . S
C2941 H2945 0.930 . S
C2942 C2941 1.369 . S
C2942 C2951 1.429 . S
C2943 C2941 1.419 . S
C2943 C2944 1.363 . S
C2943 H2946 0.929 . S
C2944 C2943 1.363 . S
C2944 C2950 1.428 . S
H2945 C2941 0.930 . S
H2946 C2943 0.929 . S
S2947 N2948 1.613 . S
S2947 N2949 1.610 . S
N2948 S2947 1.613 . S
N2948 C2951 1.350 . S
N2949 S2947 1.610 . S
N2949 C2950 1.351 . S
C2950 C2944 1.428 . S
C2950 N2949 1.351 . S
C2950 C2951 1.434 . S
C2951 C2942 1.429 . S
C2951 N2948 1.350 . S
C2951 C2950 1.434 . S
C1633 C549 1.503 . S
C1635 C33 1.511 . S
C1644 C1603 1.504 . S
C1646 C67 1.511 1_554 S
C1655 C101 1.511 . S
C1657 C1535 1.501 . S
C1666 C135 1.519 1_554 S
C1668 C1569 1.496 . S
C1677 C169 1.521 . S
C1679 C583 1.494 . S
C1688 C617 1.494 . S
C1690 C203 1.518 1_556 S
C1699 C651 1.492 . S
C1701 C237 1.519 . S
C1710 C1501 1.501 . S
C1712 C271 1.513 1_556 S
C1721 C305 1.509 . S
C1723 C5 1.503 . S
C1732 C39 1.493 . S
C1734 C339 1.518 . S
C1743 C373 1.515 . S
C1745 C73 1.497 . S
C1754 C107 1.497 . S
C1756 C407 1.516 1_565 S
C1765 C441 1.513 . S
C1767 C141 1.499 . S
C1776 C475 1.515 . S
C1778 C175 1.498 . S
C1787 C209 1.505 . S
C1789 C509 1.511 . S
C1798 C243 1.504 . S
C1800 C543 1.512 1_565 S
C1809 C277 1.505 . S
C1811 C577 1.511 . S
C1820 C413 1.500 . S
C1822 C611 1.513 . S
C1831 C447 1.498 . S
C1833 C645 1.516 1_455 S
C1842 C481 1.495 . S
C1844 C679 1.517 . S
C1853 C1331 1.492 . S
C1855 C713 1.520 . S
C1864 C747 1.513 . S
C1866 C1161 1.502 . S
C1875 C1195 1.498 . S
C1877 C781 1.516 1_455 S
C1886 C815 1.513 1_655 S
C1888 C1127 1.501 . S
C1897 C849 1.509 . S
C1899 C1365 1.503 . S
C1908 C883 1.520 . S
C1910 C787 1.494 . S
C1919 C719 1.505 . S
C1921 C917 1.511 . S
C1930 C753 1.497 . S
C1932 C951 1.516 . S
C1941 C1399 1.504 . S
C1943 C985 1.512 . S
C1952 C1019 1.513 . S
C1954 C1433 1.500 . S
C1963 C1467 1.494 . S
C1965 C1053 1.519 . S
C1974 C1087 1.521 . S
C1976 C685 1.494 . S
C1985 C821 1.502 . S
C1987 C1121 1.511 . S
C1996 C855 1.493 . S
C1998 C1155 1.520 1_545 S
C2007 C1189 1.516 . S
C2009 C889 1.500 . S
C2018 C1223 1.517 . S
C2020 C923 1.498 . S
C2029 C1257 1.509 . S
C2031 C957 1.503 . S
C2040 C991 1.504 . S
C2042 C1291 1.511 1_545 S
C2051 C1325 1.514 . S
C2053 C1025 1.501 . S
C2062 C1059 1.492 . S
C2064 C1359 1.520 . S
C2073 C1093 1.493 . S
C2075 C1393 1.518 . S
C2084 C1427 1.517 . S
C2086 C1229 1.499 . S
C2095 C1263 1.500 . S
C2097 C1461 1.515 . S
C2106 C1297 1.505 . S
C2108 C1495 1.511 . S
C2117 C1529 1.518 1_655 S
C2119 C515 1.497 . S
C2128 C1563 1.512 . S
C2130 C345 1.502 . S
C2139 C1597 1.513 . S
C2141 C379 1.501 . S
C2150 C311 1.505 . S
C2152 C1631 1.511 . S
C2161 C20 1.451 . S
C2163 C156 1.459 . S
C2172 C54 1.454 . S
C2174 C190 1.459 . S
C2183 C224 1.460 . S
C2185 C88 1.455 . S
C2194 C258 1.458 . S
C2196 C122 1.456 . S
C2205 C1312 1.459 . S
C2207 C292 1.453 . S
C2216 C1346 1.451 . S
C2218 C326 1.461 . S
C2227 C1244 1.456 . S
C2229 C360 1.459 . S
C2238 C394 1.452 . S
C2240 C1278 1.459 . S
C2249 C428 1.451 . S
C2251 C1176 1.459 . S
C2260 C462 1.451 . S
C2262 C1210 1.461 . S
C2271 C496 1.461 . S
C2273 C1108 1.452 . S
C2282 C530 1.451 . S
C2284 C1142 1.461 . S
C2293 C1550 1.456 . S
C2295 C564 1.459 . S
C2304 C666 1.461 . S
C2306 C598 1.455 . S
C2315 C1516 1.459 . S
C2317 C632 1.456 . S
C2326 C1448 1.461 . S
C2328 C700 1.454 . S
C2337 C734 1.455 . S
C2339 C1380 1.460 . S
C2348 C768 1.459 . S
C2350 C802 1.456 . S
C2359 C972 1.460 . S
C2361 C836 1.456 . S
C2370 C1006 1.462 . S
C2372 C870 1.453 . S
C2381 C904 1.453 . S
C2383 C1040 1.460 . S
C2392 C1074 1.460 . S
C2394 C938 1.455 . S
C2403 C1414 1.451 . S
C2405 C1482 1.461 . S
C2414 C1618 1.461 . S
C2416 C1584 1.454 . S
C2425 C2 1.528 . S
C2427 C927 1.458 . S
C2436 C36 1.536 . S
C2438 C825 1.453 . S
C2447 C70 1.531 . S
C2449 C859 1.454 . S
C2458 C893 1.452 . S
C2460 C104 1.534 . S
C2469 C138 1.533 . S
C2471 C179 1.460 . S
C2480 C213 1.452 1_455 S
C2482 C172 1.528 . S
C2491 C247 1.465 . S
C2493 C206 1.527 . S
C2502 C240 1.526 . S
C2504 C145 1.448 1_655 S
C2513 C1437 1.459 . S
C2515 C274 1.528 . S
C2524 C308 1.535 . S
C2526 C1471 1.434 1_554 S
C2535 C689 1.457 . S
C2537 C342 1.534 . S
C2546 C376 1.536 . S
C2548 C1403 1.436 1_554 S
C2557 C410 1.532 . S
C2559 C1573 1.462 . S
C2568 C444 1.533 . S
C2570 C553 1.435 1_556 S
C2579 C1607 1.453 . S
C2581 C478 1.535 . S
C2590 C1539 1.432 1_556 S
C2592 C512 1.535 . S
C2601 C315 1.460 . S
C2603 C546 1.527 . S
C2612 C580 1.536 . S
C2614 C1335 1.453 . S
C2623 C614 1.536 . S
C2625 C1233 1.454 . S
C2634 C648 1.526 . S
C2636 C1267 1.464 . S
C2645 C485 1.453 . S
C2647 C682 1.532 . S
C2656 C716 1.526 . S
C2658 C1199 1.464 . S
C2667 C750 1.532 . S
C2669 C1097 1.461 . S
C2678 C1165 1.432 1_545 S
C2680 C784 1.535 . S
C2689 C818 1.536 . S
C2691 C111 1.454 . S
C2700 C852 1.536 . S
C2702 C9 1.434 1_655 S
C2711 C886 1.529 . S
C2713 C43 1.464 . S
C2722 C920 1.531 . S
C2724 C77 1.437 1_455 S
C2733 C954 1.536 . S
C2735 C995 1.453 . S
C2744 C988 1.526 . S
C2746 C1029 1.463 . S
C2755 C1022 1.536 . S
C2757 C1063 1.454 . S
C2766 C961 1.451 . S
C2768 C1056 1.534 . S
C2777 C1090 1.532 . S
C2779 C621 1.454 . S
C2788 C1124 1.526 . S
C2790 C655 1.464 . S
C2799 C1158 1.530 . S
C2801 C1505 1.456 . S
C2810 C587 1.454 . S
C2812 C1192 1.535 . S
C2821 C757 1.455 . S
C2823 C1226 1.535 . S
C2832 C1260 1.535 . S
C2834 C1369 1.453 . S
C2843 C1294 1.531 . S
C2845 C791 1.455 . S
C2854 C1328 1.536 . S
C2856 C723 1.454 . S
C2865 C1131 1.456 . S
C2867 C1362 1.535 . S
C2876 C1396 1.536 . S
C2878 C519 1.455 . S
C2887 C1430 1.532 . S
C2889 C417 1.444 1_545 S
C2898 C1464 1.535 . S
C2900 C451 1.453 . S
C2909 C1301 1.445 1_565 S
C2911 C1498 1.528 . S
C2920 C383 1.452 . S
C2922 C1532 1.535 . S
C2931 C281 1.437 1_565 S
C2933 C1566 1.531 . S
C2942 C349 1.461 . S
C2944 C1600 1.532 . S
