# Generated by pormake.
# Topology fnw, (5)-cn, num edge types: 1
# Building blocks:
#     Node 0, Type 0, BuildingBlock: BEQFEK_clean_sbu_0, # of connection points: 5
#     Node 1, Type 0, BuildingBlock: BEQFEK_clean_sbu_0, # of connection points: 5
#     Node 2, Type 0, BuildingBlock: BEQFEK_clean_sbu_0, # of connection points: 5
#     Node 3, Type 0, BuildingBlock: BEQFEK_clean_sbu_0, # of connection points: 5
#     Node 4, Type 0, BuildingBlock: BEQFEK_clean_sbu_0, # of connection points: 5
#     Node 5, Type 0, BuildingBlock: BEQFEK_clean_sbu_0, # of connection points: 5
#     Node 6, Type 0, BuildingBlock: BEQFEK_clean_sbu_0, # of connection points: 5
#     Node 7, Type 0, BuildingBlock: BEQFEK_clean_sbu_0, # of connection points: 5
#     Node 8, Type 0, BuildingBlock: BEQFEK_clean_sbu_0, # of connection points: 5
#     Node 9, Type 0, BuildingBlock: BEQFEK_clean_sbu_0, # of connection points: 5
#     Node 10, Type 0, BuildingBlock: BEQFEK_clean_sbu_0, # of connection points: 5
#     Node 11, Type 0, BuildingBlock: BEQFEK_clean_sbu_0, # of connection points: 5
#     Edge 12, Type (0, 0), BuildingBlock: ZUJKAS_clean_linker_0, # of connection points: 2
#     Edge 13, Type (0, 0), BuildingBlock: ZUJKAS_clean_linker_0, # of connection points: 2
#     Edge 14, Type (0, 0), BuildingBlock: ZUJKAS_clean_linker_0, # of connection points: 2
#     Edge 15, Type (0, 0), BuildingBlock: ZUJKAS_clean_linker_0, # of connection points: 2
#     Edge 16, Type (0, 0), BuildingBlock: ZUJKAS_clean_linker_0, # of connection points: 2
#     Edge 17, Type (0, 0), BuildingBlock: ZUJKAS_clean_linker_0, # of connection points: 2
#     Edge 18, Type (0, 0), BuildingBlock: ZUJKAS_clean_linker_0, # of connection points: 2
#     Edge 19, Type (0, 0), BuildingBlock: ZUJKAS_clean_linker_0, # of connection points: 2
#     Edge 20, Type (0, 0), BuildingBlock: ZUJKAS_clean_linker_0, # of connection points: 2
#     Edge 21, Type (0, 0), BuildingBlock: ZUJKAS_clean_linker_0, # of connection points: 2
#     Edge 22, Type (0, 0), BuildingBlock: ZUJKAS_clean_linker_0, # of connection points: 2
#     Edge 23, Type (0, 0), BuildingBlock: ZUJKAS_clean_linker_0, # of connection points: 2
#     Edge 24, Type (0, 0), BuildingBlock: ZUJKAS_clean_linker_0, # of connection points: 2
#     Edge 25, Type (0, 0), BuildingBlock: ZUJKAS_clean_linker_0, # of connection points: 2
#     Edge 26, Type (0, 0), BuildingBlock: ZUJKAS_clean_linker_0, # of connection points: 2
#     Edge 27, Type (0, 0), BuildingBlock: ZUJKAS_clean_linker_0, # of connection points: 2
#     Edge 28, Type (0, 0), BuildingBlock: ZUJKAS_clean_linker_0, # of connection points: 2
#     Edge 29, Type (0, 0), BuildingBlock: ZUJKAS_clean_linker_0, # of connection points: 2
#     Edge 30, Type (0, 0), BuildingBlock: ZUJKAS_clean_linker_0, # of connection points: 2
#     Edge 31, Type (0, 0), BuildingBlock: ZUJKAS_clean_linker_0, # of connection points: 2
#     Edge 32, Type (0, 0), BuildingBlock: ZUJKAS_clean_linker_0, # of connection points: 2
#     Edge 33, Type (0, 0), BuildingBlock: ZUJKAS_clean_linker_0, # of connection points: 2
#     Edge 34, Type (0, 0), BuildingBlock: ZUJKAS_clean_linker_0, # of connection points: 2
#     Edge 35, Type (0, 0), BuildingBlock: ZUJKAS_clean_linker_0, # of connection points: 2
#     Edge 36, Type (0, 0), BuildingBlock: ZUJKAS_clean_linker_0, # of connection points: 2
#     Edge 37, Type (0, 0), BuildingBlock: ZUJKAS_clean_linker_0, # of connection points: 2
#     Edge 38, Type (0, 0), BuildingBlock: ZUJKAS_clean_linker_0, # of connection points: 2
#     Edge 39, Type (0, 0), BuildingBlock: ZUJKAS_clean_linker_0, # of connection points: 2
#     Edge 40, Type (0, 0), BuildingBlock: ZUJKAS_clean_linker_0, # of connection points: 2
#     Edge 41, Type (0, 0), BuildingBlock: ZUJKAS_clean_linker_0, # of connection points: 2
# Relax obj value: 0.202
# Max RMSD: 0.125
# Mean RMSD: 0.125
data_MOF--net-fnw--node1-BEQFEK_clean_sbu_0--edge1-ZUJKAS_clean_linker_0
_symmetry_space_group_name_H-M    P1
_symmetry_Int_Tables_number       1
_symmetry_cell_setting            triclinic
loop_
_symmetry_equiv_pos_as_xyz
'x, y, z'
_cell_length_a     69.028301
_cell_length_b     69.034725
_cell_length_c     39.534291
_cell_angle_alpha  90.002442
_cell_angle_beta   89.997491
_cell_angle_gamma 119.99573
loop_
_atom_site_label
_atom_site_type_symbol
_atom_site_fract_x
_atom_site_fract_y
_atom_site_fract_z
_atom_type_partial_charge
Co0 Co 0.24645 0.48226 0.2338 0.0
Co1 Co 0.27212 0.45541 0.23683 0.0
C2 C 0.242 0.45016 0.17874 0.0
O3 O 0.23718 0.46397 0.19226 0.0
O4 O 0.25547 0.44508 0.19295 0.0
C5 C 0.22019 0.50198 0.21335 0.0
O6 O 0.21995 0.493 0.18396 0.0
C7 C 0.2814 0.41791 0.24085 0.0
C8 C 0.31373 0.43442 0.26797 0.0
C9 C 0.29788 0.41417 0.25422 0.0
N10 N 0.28727 0.43936 0.24674 0.0
N11 N 0.30669 0.44913 0.26271 0.0
C12 C 0.2598 0.40126 0.22476 0.0
H13 H 0.24691 0.40613 0.22903 0.0
H14 H 0.25394 0.38424 0.23498 0.0
H15 H 0.26236 0.40103 0.19709 0.0
C16 C 0.23198 0.4624 0.30158 0.0
N17 N 0.24233 0.4642 0.27197 0.0
N18 N 0.25304 0.45293 0.27363 0.0
C19 C 0.24998 0.44371 0.30468 0.0
C20 C 0.23656 0.44947 0.32351 0.0
C21 C 0.21882 0.47377 0.30902 0.0
H22 H 0.2073 0.47106 0.28769 0.0
H23 H 0.20897 0.46735 0.33267 0.0
H24 H 0.23046 0.49203 0.31142 0.0
O25 O 0.27822 0.5059 0.23031 0.0
O26 O 0.2963 0.48695 0.2323 0.0
H27 H 0.28053 0.44429 0.31577 0.0
H28 H 0.25815 0.42689 0.34402 0.0
C29 C 0.2623 0.43245 0.31742 0.0
H30 H 0.25826 0.41779 0.30126 0.0
H31 H 0.315 0.46581 0.27046 0.0
O32 O 0.22973 0.49864 0.23836 0.0
C33 C 0.29638 0.50538 0.23013 0.0
Co34 Co 0.76436 0.24451 0.73237 0.0
Co35 Co 0.81677 0.26962 0.7374 0.0
C36 C 0.79265 0.2407 0.67779 0.0
O37 O 0.77383 0.2358 0.69071 0.0
O38 O 0.811 0.25378 0.69284 0.0
C39 C 0.71796 0.21517 0.71362 0.0
O40 O 0.72613 0.21106 0.6863 0.0
C41 C 0.86359 0.27897 0.74144 0.0
C42 C 0.87853 0.30932 0.77337 0.0
C43 C 0.88342 0.29458 0.7569 0.0
N44 N 0.84775 0.28424 0.74876 0.0
N45 N 0.85687 0.30249 0.7676 0.0
C46 C 0.85927 0.25864 0.72193 0.0
H47 H 0.84163 0.24518 0.72532 0.0
H48 H 0.87074 0.25263 0.73008 0.0
H49 H 0.86205 0.26291 0.69464 0.0
C50 C 0.76836 0.22849 0.7996 0.0
N51 N 0.77751 0.2395 0.77063 0.0
N52 N 0.79945 0.24976 0.77303 0.0
C53 C 0.80495 0.24553 0.80383 0.0
C54 C 0.7854 0.232 0.82176 0.0
C55 C 0.74373 0.21579 0.80633 0.0
H56 H 0.73505 0.20425 0.78496 0.0
H57 H 0.73978 0.206 0.83011 0.0
H58 H 0.73741 0.22771 0.80801 0.0
O59 O 0.77285 0.27635 0.7298 0.0
O60 O 0.8098 0.29419 0.7335 0.0
H61 H 0.83485 0.27486 0.81928 0.0
H62 H 0.82924 0.25027 0.84265 0.0
C63 C 0.82834 0.25662 0.81732 0.0
H64 H 0.83915 0.25383 0.79961 0.0
H65 H 0.84818 0.31012 0.77694 0.0
O66 O 0.73128 0.22807 0.73619 0.0
C67 C 0.79157 0.29444 0.73067 0.0
Co68 Co 0.51723 0.76673 0.23189 0.0
Co69 Co 0.54609 0.81903 0.23435 0.0
C70 C 0.54987 0.79386 0.17627 0.0
O71 O 0.53549 0.77558 0.19011 0.0
O72 O 0.55603 0.8127 0.19034 0.0
C73 C 0.48844 0.72327 0.20998 0.0
O74 O 0.48831 0.73479 0.18361 0.0
C75 C 0.58295 0.86644 0.23714 0.0
C76 C 0.56889 0.87956 0.27509 0.0
C77 C 0.5876 0.88547 0.25542 0.0
N78 N 0.56245 0.84995 0.24603 0.0
N79 N 0.55408 0.85804 0.26837 0.0
C80 C 0.59823 0.86342 0.21369 0.0
H81 H 0.59558 0.84625 0.2162 0.0
H82 H 0.616 0.87591 0.21888 0.0
H83 H 0.59424 0.86561 0.18727 0.0
C84 C 0.53624 0.77149 0.30031 0.0
N85 N 0.53517 0.78005 0.27023 0.0
N86 N 0.54833 0.80189 0.27065 0.0
C87 C 0.55883 0.80786 0.30083 0.0
C88 C 0.55132 0.78887 0.32085 0.0
C89 C 0.52095 0.74764 0.31024 0.0
H90 H 0.50413 0.74158 0.29914 0.0
H91 H 0.52766 0.73719 0.30007 0.0
H92 H 0.51929 0.74558 0.33809 0.0
O93 O 0.49423 0.77549 0.22883 0.0
O94 O 0.51456 0.81247 0.22982 0.0
H95 H 0.56723 0.84038 0.31859 0.0
H96 H 0.58652 0.83141 0.33157 0.0
C97 C 0.57586 0.83128 0.31044 0.0
H98 H 0.58667 0.84003 0.28844 0.0
H99 H 0.53843 0.84863 0.27972 0.0
O100 O 0.50088 0.7337 0.23498 0.0
C101 C 0.49566 0.79457 0.22819 0.0
Co102 Co 0.75207 0.51663 0.73098 0.0
Co103 Co 0.72858 0.54543 0.7347 0.0
C104 C 0.75734 0.54902 0.67578 0.0
O105 O 0.76143 0.53465 0.68915 0.0
O106 O 0.7447 0.55505 0.69036 0.0
C107 C 0.76594 0.48704 0.70951 0.0
O108 O 0.75444 0.48705 0.68302 0.0
C109 C 0.71994 0.58346 0.73817 0.0
C110 C 0.68927 0.56824 0.76942 0.0
C111 C 0.7043 0.58785 0.75319 0.0
N112 N 0.71437 0.56226 0.74553 0.0
N113 N 0.69594 0.55327 0.76398 0.0
C114 C 0.74054 0.59933 0.71908 0.0
H115 H 0.75371 0.59475 0.72248 0.0
H116 H 0.74683 0.6168 0.72759 0.0
H117 H 0.73647 0.59818 0.69173 0.0
C118 C 0.76788 0.5365 0.79849 0.0
N119 N 0.75745 0.53506 0.76908 0.0
N120 N 0.74799 0.54752 0.77071 0.0
C121 C 0.75225 0.55742 0.80137 0.0
C122 C 0.7649 0.55066 0.82008 0.0
C123 C 0.77931 0.52345 0.80626 0.0
H124 H 0.76663 0.5054 0.80764 0.0
H125 H 0.79108 0.52571 0.78552 0.0
H126 H 0.78865 0.52883 0.83049 0.0
O127 O 0.72001 0.49377 0.72837 0.0
O128 O 0.70349 0.51418 0.73086 0.0
H129 H 0.72348 0.55929 0.81607 0.0
H130 H 0.74828 0.57804 0.83919 0.0
C131 C 0.74181 0.57053 0.81403 0.0
H132 H 0.74508 0.58402 0.7958 0.0
H133 H 0.68807 0.53693 0.77325 0.0
O134 O 0.76815 0.49968 0.73434 0.0
C135 C 0.70239 0.49527 0.72867 0.0
Co136 Co 0.23437 0.74995 0.23511 0.0
Co137 Co 0.18196 0.72709 0.23714 0.0
C138 C 0.2077 0.75674 0.17995 0.0
O139 O 0.22586 0.76023 0.19373 0.0
O140 O 0.18879 0.74404 0.19378 0.0
C141 C 0.28025 0.77516 0.21405 0.0
O142 O 0.27133 0.77493 0.1846 0.0
C143 C 0.13494 0.71756 0.23883 0.0
C144 C 0.12017 0.68864 0.27369 0.0
C145 C 0.11514 0.70249 0.25494 0.0
N146 N 0.1509 0.71282 0.24793 0.0
N147 N 0.14188 0.69543 0.26854 0.0
C148 C 0.13913 0.73702 0.21713 0.0
H149 H 0.15653 0.75093 0.22076 0.0
H150 H 0.12716 0.74283 0.22313 0.0
H151 H 0.13708 0.73185 0.19019 0.0
C152 C 0.22928 0.76285 0.30438 0.0
N153 N 0.22087 0.75407 0.27382 0.0
N154 N 0.19905 0.74564 0.27408 0.0
C155 C 0.19296 0.74944 0.30468 0.0
C156 C 0.21183 0.7602 0.32511 0.0
C157 C 0.253 0.7708 0.31446 0.0
H158 H 0.25858 0.75961 0.30349 0.0
H159 H 0.26386 0.78784 0.30411 0.0
H160 H 0.25504 0.77123 0.34231 0.0
O161 O 0.22507 0.71806 0.23067 0.0
O162 O 0.1881 0.70195 0.23161 0.0
H163 H 0.16026 0.72477 0.32095 0.0
H164 H 0.16921 0.75252 0.33652 0.0
C165 C 0.16949 0.74279 0.31437 0.0
H166 H 0.16094 0.74568 0.29288 0.0
H167 H 0.15069 0.68839 0.27952 0.0
O168 O 0.26751 0.76615 0.2394 0.0
C169 C 0.20581 0.70062 0.22963 0.0
Co170 Co 0.48765 0.23391 0.73387 0.0
Co171 Co 0.45682 0.18167 0.73499 0.0
C172 C 0.45439 0.2088 0.6781 0.0
O173 O 0.46947 0.22671 0.69199 0.0
O174 O 0.44747 0.18972 0.69186 0.0
C175 C 0.50389 0.28136 0.72307 0.0
O176 O 0.48771 0.27485 0.70077 0.0
C177 C 0.41815 0.13515 0.73662 0.0
C178 C 0.43229 0.11929 0.76929 0.0
C179 C 0.41315 0.11501 0.75188 0.0
N180 N 0.43924 0.15056 0.74497 0.0
N181 N 0.44759 0.14088 0.76427 0.0
C182 C 0.40286 0.14022 0.71654 0.0
H183 H 0.40755 0.15799 0.71993 0.0
H184 H 0.38519 0.12916 0.72422 0.0
H185 H 0.40456 0.13742 0.68932 0.0
C186 C 0.46867 0.22904 0.80236 0.0
N187 N 0.46938 0.22052 0.77205 0.0
N188 N 0.45594 0.19871 0.77236 0.0
C189 C 0.44597 0.1927 0.80291 0.0
C190 C 0.45382 0.21165 0.82304 0.0
C191 C 0.48406 0.25288 0.81224 0.0
H192 H 0.5015 0.25764 0.80559 0.0
H193 H 0.47962 0.26383 0.7976 0.0
H194 H 0.48318 0.25572 0.83965 0.0
O195 O 0.50939 0.22346 0.72922 0.0
O196 O 0.4876 0.18663 0.72946 0.0
H197 H 0.43874 0.1601 0.81834 0.0
H198 H 0.42023 0.16878 0.83615 0.0
C199 C 0.42961 0.16919 0.8131 0.0
H200 H 0.41756 0.16059 0.79229 0.0
H201 H 0.46369 0.14916 0.77445 0.0
O202 O 0.506 0.26678 0.73974 0.0
C203 C 0.50692 0.20395 0.72774 0.0
Co204 Co 0.5142 0.74766 0.76815 0.0
Co205 Co 0.54513 0.72641 0.76612 0.0
C206 C 0.54665 0.75397 0.82476 0.0
O207 O 0.53168 0.75698 0.81088 0.0
O208 O 0.55402 0.74238 0.81035 0.0
C209 C 0.50045 0.78074 0.7796 0.0
O210 O 0.51791 0.79068 0.79967 0.0
C211 C 0.58317 0.71748 0.76381 0.0
C212 C 0.57015 0.69072 0.72517 0.0
C213 C 0.58854 0.70368 0.74535 0.0
N214 N 0.56256 0.71298 0.7545 0.0
N215 N 0.55484 0.69679 0.73176 0.0
C216 C 0.59781 0.73562 0.78793 0.0
H217 H 0.59449 0.74975 0.78603 0.0
H218 H 0.61575 0.74161 0.78288 0.0
H219 H 0.59383 0.72896 0.81411 0.0
C220 C 0.53381 0.76307 0.70029 0.0
N221 N 0.53299 0.75355 0.73039 0.0
N222 N 0.54694 0.7458 0.73021 0.0
C223 C 0.55772 0.7509 0.70025 0.0
C224 C 0.54955 0.76169 0.68003 0.0
C225 C 0.51763 0.77047 0.69 0.0
H226 H 0.50072 0.7585 0.69976 0.0
H227 H 0.52291 0.78707 0.70139 0.0
H228 H 0.51672 0.77166 0.66215 0.0
O229 O 0.49218 0.71552 0.76982 0.0
O230 O 0.51403 0.70052 0.76961 0.0
H231 H 0.56767 0.72792 0.68251 0.0
H232 H 0.58614 0.75648 0.67008 0.0
C233 C 0.57556 0.74556 0.69095 0.0
H234 H 0.5863 0.74792 0.71316 0.0
H235 H 0.53926 0.69026 0.72007 0.0
O236 O 0.49661 0.76309 0.76395 0.0
C237 C 0.49465 0.69846 0.77043 0.0
Co238 Co 0.76397 0.51575 0.26849 0.0
Co239 Co 0.81621 0.54553 0.26396 0.0
C240 C 0.79118 0.54821 0.32377 0.0
O241 O 0.77273 0.53346 0.31076 0.0
O242 O 0.80979 0.55489 0.30855 0.0
C243 C 0.71682 0.50037 0.2818 0.0
O244 O 0.72386 0.51684 0.3037 0.0
C245 C 0.86338 0.58308 0.26103 0.0
C246 C 0.8768 0.56943 0.22289 0.0
C247 C 0.8825 0.58799 0.24279 0.0
N248 N 0.84702 0.56257 0.25184 0.0
N249 N 0.8553 0.55447 0.2294 0.0
C250 C 0.86029 0.59793 0.28527 0.0
H251 H 0.84313 0.59533 0.28288 0.0
H252 H 0.87283 0.61577 0.28078 0.0
H253 H 0.86234 0.59343 0.31145 0.0
C254 C 0.76695 0.53595 0.20171 0.0
N255 N 0.77642 0.53446 0.23058 0.0
N256 N 0.79828 0.54735 0.22852 0.0
C257 C 0.80335 0.55771 0.19815 0.0
C258 C 0.78367 0.55065 0.18004 0.0
C259 C 0.7424 0.52265 0.19458 0.0
H260 H 0.73309 0.52514 0.2154 0.0
H261 H 0.73806 0.52766 0.17034 0.0
H262 H 0.73712 0.50461 0.19371 0.0
O263 O 0.77385 0.49347 0.27006 0.0
O264 O 0.81072 0.51447 0.26792 0.0
H265 H 0.83372 0.56114 0.17859 0.0
H266 H 0.82719 0.58142 0.16222 0.0
C267 C 0.82668 0.57198 0.18516 0.0
H268 H 0.83724 0.58399 0.20496 0.0
H269 H 0.84608 0.5388 0.21801 0.0
O270 O 0.73099 0.49785 0.26468 0.0
C271 C 0.79313 0.49537 0.26983 0.0
Co272 Co 0.25428 0.76643 0.77421 0.0
Co273 Co 0.27449 0.81837 0.76985 0.0
C274 C 0.24653 0.79264 0.82874 0.0
O275 O 0.24376 0.77452 0.81568 0.0
O276 O 0.25822 0.81144 0.81393 0.0
C277 C 0.22035 0.71865 0.77745 0.0
O278 O 0.20582 0.72467 0.78664 0.0
C279 C 0.2825 0.86503 0.76591 0.0
C280 C 0.30864 0.8784 0.7263 0.0
C281 C 0.2958 0.88393 0.74658 0.0
N282 N 0.28716 0.84896 0.75699 0.0
N283 N 0.30298 0.85722 0.73364 0.0
C284 C 0.26472 0.86172 0.79063 0.0
H285 H 0.27176 0.86461 0.81658 0.0
H286 H 0.25059 0.84426 0.78923 0.0
H287 H 0.25863 0.8736 0.78575 0.0
C288 C 0.23875 0.76901 0.70537 0.0
N289 N 0.24832 0.77831 0.73519 0.0
N290 N 0.25555 0.79992 0.73418 0.0
C291 C 0.25002 0.80489 0.70399 0.0
C292 C 0.2395 0.78557 0.68448 0.0
C293 C 0.23161 0.74536 0.69594 0.0
H294 H 0.24324 0.74043 0.70712 0.0
H295 H 0.21464 0.73415 0.70626 0.0
H296 H 0.23124 0.74312 0.66813 0.0
O297 O 0.28653 0.77757 0.77768 0.0
O298 O 0.30103 0.81427 0.77457 0.0
H299 H 0.27177 0.83773 0.68476 0.0
H300 H 0.24284 0.8265 0.67351 0.0
C301 C 0.25435 0.82763 0.69401 0.0
H302 H 0.25202 0.83613 0.71609 0.0
H303 H 0.30955 0.84815 0.72211 0.0
O304 O 0.24043 0.73354 0.77123 0.0
C305 C 0.30339 0.7972 0.77738 0.0
Co306 Co 0.4853 0.25182 0.2716 0.0
Co307 Co 0.45424 0.27293 0.26713 0.0
C308 C 0.45178 0.2451 0.32637 0.0
O309 O 0.46683 0.24192 0.31319 0.0
O310 O 0.44487 0.25695 0.31153 0.0
C311 C 0.50776 0.22816 0.29314 0.0
O312 O 0.49859 0.22739 0.32259 0.0
C313 C 0.41608 0.28161 0.26418 0.0
C314 C 0.42872 0.30781 0.22469 0.0
C315 C 0.41053 0.29515 0.24538 0.0
N316 N 0.43659 0.28597 0.2546 0.0
N317 N 0.44409 0.30182 0.23131 0.0
C318 C 0.40176 0.26398 0.28919 0.0
H319 H 0.40669 0.2709 0.31511 0.0
H320 H 0.40447 0.24947 0.28695 0.0
H321 H 0.3838 0.25844 0.28537 0.0
C322 C 0.46683 0.23607 0.20335 0.0
N323 N 0.46723 0.24591 0.23296 0.0
N324 N 0.45338 0.25378 0.23148 0.0
C325 C 0.44329 0.24866 0.20095 0.0
C326 C 0.45164 0.23752 0.18195 0.0
C327 C 0.48283 0.22813 0.19469 0.0
H328 H 0.49999 0.24097 0.20233 0.0
H329 H 0.47825 0.21267 0.20921 0.0
H330 H 0.48277 0.22468 0.1673 0.0
O331 O 0.50691 0.28407 0.27456 0.0
O332 O 0.48507 0.29901 0.27149 0.0
H333 H 0.43464 0.27208 0.18091 0.0
H334 H 0.41596 0.24358 0.16855 0.0
C335 C 0.42613 0.25449 0.18973 0.0
H336 H 0.41489 0.25257 0.21106 0.0
H337 H 0.4596 0.30824 0.21942 0.0
O338 O 0.50356 0.23701 0.26809 0.0
C339 C 0.5044 0.3011 0.27413 0.0
Co340 Co 0.23365 0.48566 0.77123 0.0
Co341 Co 0.18157 0.45453 0.76778 0.0
C342 C 0.20749 0.45332 0.82736 0.0
O343 O 0.22565 0.46831 0.81391 0.0
O344 O 0.18869 0.44602 0.81245 0.0
C345 C 0.28146 0.50022 0.77769 0.0
O346 O 0.27549 0.48089 0.79211 0.0
C347 C 0.13468 0.41625 0.76623 0.0
C348 C 0.12101 0.4281 0.72576 0.0
C349 C 0.11556 0.41033 0.74732 0.0
N350 N 0.15081 0.43656 0.75584 0.0
N351 N 0.14237 0.4436 0.732 0.0
C352 C 0.13803 0.40247 0.79222 0.0
H353 H 0.15514 0.40491 0.79 0.0
H354 H 0.12541 0.38448 0.78946 0.0
H355 H 0.13638 0.40816 0.81776 0.0
C356 C 0.23071 0.46524 0.70436 0.0
N357 N 0.22143 0.46657 0.7336 0.0
N358 N 0.19965 0.45294 0.73241 0.0
C359 C 0.19449 0.44214 0.70245 0.0
C360 C 0.21391 0.44973 0.68356 0.0
C361 C 0.2547 0.48059 0.69522 0.0
H362 H 0.25938 0.49808 0.70131 0.0
H363 H 0.2654 0.47622 0.71066 0.0
H364 H 0.25796 0.47944 0.66804 0.0
O365 O 0.22282 0.50714 0.77225 0.0
O366 O 0.18603 0.48532 0.77068 0.0
H367 H 0.16262 0.43395 0.68214 0.0
H368 H 0.17189 0.41471 0.67053 0.0
C369 C 0.17138 0.42521 0.6914 0.0
H370 H 0.16192 0.41427 0.71291 0.0
H371 H 0.15142 0.45887 0.71944 0.0
O372 O 0.26653 0.50445 0.76738 0.0
C373 C 0.20331 0.50469 0.77197 0.0
Co374 Co 0.75547 0.23717 0.27046 0.0
Co375 Co 0.73007 0.1847 0.26759 0.0
C376 C 0.75985 0.20955 0.32585 0.0
O377 O 0.76453 0.22819 0.31246 0.0
O378 O 0.74666 0.19101 0.31136 0.0
C379 C 0.78209 0.28351 0.28984 0.0
O380 O 0.78308 0.27533 0.31936 0.0
C381 C 0.72005 0.13761 0.26426 0.0
C382 C 0.68872 0.12258 0.23457 0.0
C383 C 0.70377 0.11765 0.24993 0.0
N384 N 0.71483 0.15355 0.25737 0.0
N385 N 0.69601 0.14437 0.23986 0.0
C386 C 0.74093 0.14198 0.28218 0.0
H387 H 0.75428 0.15961 0.27834 0.0
H388 H 0.74668 0.13049 0.27305 0.0
H389 H 0.73745 0.13922 0.30969 0.0
C390 C 0.77034 0.23177 0.20297 0.0
N391 N 0.7598 0.22326 0.23248 0.0
N392 N 0.7494 0.20128 0.23107 0.0
C393 C 0.75312 0.19511 0.20044 0.0
C394 C 0.76645 0.21426 0.18156 0.0
C395 C 0.78288 0.25623 0.19498 0.0
H396 H 0.79482 0.2654 0.21572 0.0
H397 H 0.7922 0.25965 0.1708 0.0
H398 H 0.77091 0.2625 0.19337 0.0
O399 O 0.72374 0.22908 0.27351 0.0
O400 O 0.70583 0.19206 0.27227 0.0
H401 H 0.72345 0.16485 0.18717 0.0
H402 H 0.74743 0.17003 0.16246 0.0
C403 C 0.74174 0.17146 0.18806 0.0
H404 H 0.74506 0.16107 0.20589 0.0
H405 H 0.68829 0.1531 0.23108 0.0
O406 O 0.77207 0.27019 0.26548 0.0
C407 C 0.70564 0.21037 0.27405 0.0
H408 H 0.38961 0.29995 0.30072 0.0
H409 H 0.36113 0.31124 0.30057 0.0
H410 H 0.3575 0.30615 0.19167 0.0
H411 H 0.3866 0.29583 0.1918 0.0
H412 H 0.36615 0.34557 0.21061 0.0
H413 H 0.29517 0.28437 0.28808 0.0
H414 H 0.32114 0.29526 0.31043 0.0
H415 H 0.31662 0.27892 0.27266 0.0
C416 C 0.38215 0.30054 0.27692 0.0
C417 C 0.39018 0.29701 0.24628 0.0
C418 C 0.36579 0.30689 0.27682 0.0
C419 C 0.35694 0.30934 0.2461 0.0
C420 C 0.36401 0.30434 0.21567 0.0
H421 H 0.28712 0.3836 0.20292 0.0
H422 H 0.29676 0.35394 0.19975 0.0
C423 C 0.38061 0.29845 0.21575 0.0
C424 C 0.34319 0.32038 0.24517 0.0
H425 H 0.29818 0.32063 0.28079 0.0
C426 C 0.351 0.33978 0.2254 0.0
C427 C 0.32349 0.31296 0.26461 0.0
C428 C 0.3135 0.2916 0.28485 0.0
C429 C 0.34027 0.35245 0.22557 0.0
C430 C 0.32111 0.3455 0.24595 0.0
C431 C 0.31286 0.32582 0.2651 0.0
C432 C 0.31104 0.35989 0.24998 0.0
C433 C 0.35013 0.37379 0.20517 0.0
C434 C 0.31518 0.37241 0.27969 0.0
C435 C 0.30972 0.3893 0.28155 0.0
C436 C 0.29978 0.39377 0.25388 0.0
C437 C 0.29437 0.38028 0.22487 0.0
C438 C 0.29999 0.36343 0.22294 0.0
H439 H 0.36666 0.37826 0.19416 0.0
H440 H 0.33861 0.37176 0.18415 0.0
H441 H 0.35213 0.38789 0.2212 0.0
H442 H 0.3238 0.36998 0.30073 0.0
H443 H 0.31405 0.39944 0.30422 0.0
H444 H 0.90479 0.28862 0.70286 0.0
H445 H 0.94427 0.2989 0.69991 0.0
H446 H 0.9523 0.31704 0.80546 0.0
H447 H 0.91293 0.30671 0.80859 0.0
H448 H 0.9769 0.344 0.71551 0.0
H449 H 0.98872 0.28435 0.79464 0.0
H450 H 0.96198 0.27761 0.77662 0.0
H451 H 0.9721 0.29476 0.81384 0.0
C452 C 0.91475 0.29397 0.72571 0.0
C453 C 0.90579 0.29671 0.75604 0.0
C454 C 0.93732 0.29993 0.72396 0.0
C455 C 0.95111 0.30842 0.75259 0.0
C456 C 0.94186 0.31006 0.78328 0.0
H457 H 0.08942 0.39117 0.80297 0.0
H458 H 0.04945 0.36293 0.80283 0.0
C459 C 0.91942 0.30434 0.78495 0.0
C460 C 0.97569 0.31903 0.74933 0.0
H461 H 0.02164 0.31912 0.78159 0.0
C462 C 0.9867 0.33835 0.72942 0.0
C463 C 0.98835 0.31179 0.76804 0.0
C464 C 0.97722 0.29088 0.78931 0.0
C465 C 0.01009 0.35122 0.72873 0.0
C466 C 0.02287 0.34411 0.74762 0.0
C467 C 0.01184 0.32447 0.767 0.0
C468 C 0.04763 0.35766 0.74865 0.0
C469 C 0.02078 0.37292 0.70915 0.0
C470 C 0.06004 0.36315 0.71856 0.0
C471 C 0.08264 0.37949 0.71857 0.0
C472 C 0.09336 0.39004 0.74881 0.0
C473 C 0.0815 0.38309 0.7794 0.0
C474 C 0.0587 0.36703 0.7793 0.0
H475 H 0.00869 0.37871 0.70374 0.0
H476 H 0.03516 0.38634 0.72321 0.0
H477 H 0.02698 0.37043 0.68457 0.0
H478 H 0.05196 0.35569 0.69478 0.0
H479 H 0.09154 0.38452 0.69471 0.0
H480 H 0.68886 0.08722 0.19928 0.0
H481 H 0.67814 0.04774 0.20288 0.0
H482 H 0.70153 0.05737 0.30597 0.0
H483 H 0.71211 0.09693 0.30268 0.0
H484 H 0.70202 0.02291 0.22567 0.0
H485 H 0.63135 0.01296 0.30635 0.0
H486 H 0.64723 0.03729 0.28013 0.0
H487 H 0.6592 0.03394 0.31841 0.0
C488 C 0.69218 0.08103 0.22248 0.0
C489 C 0.70136 0.09514 0.25067 0.0
C490 C 0.68618 0.05854 0.22441 0.0
C491 C 0.689 0.0497 0.25469 0.0
C492 C 0.69931 0.06398 0.28234 0.0
H493 H 0.60975 0.90989 0.31019 0.0
H494 H 0.63904 0.94922 0.31157 0.0
C495 C 0.70548 0.08659 0.28035 0.0
C496 C 0.67832 0.02518 0.25841 0.0
H497 H 0.63165 0.98051 0.29089 0.0
C498 C 0.6868 0.01356 0.24029 0.0
C499 C 0.65844 0.01313 0.27737 0.0
C500 C 0.64833 0.02484 0.29658 0.0
C501 C 0.67574 0.99004 0.24045 0.0
C502 C 0.65538 0.97796 0.25846 0.0
C503 C 0.64729 0.98972 0.2772 0.0
C504 C 0.64132 0.9532 0.25712 0.0
C505 C 0.68599 0.97845 0.22141 0.0
C506 C 0.63334 0.94208 0.22604 0.0
C507 C 0.61687 0.91943 0.22526 0.0
C508 C 0.60785 0.90776 0.25555 0.0
C509 C 0.61649 0.9186 0.28651 0.0
C510 C 0.63321 0.94104 0.2873 0.0
H511 H 0.70443 0.98929 0.21941 0.0
H512 H 0.6822 0.9625 0.2338 0.0
H513 H 0.67912 0.97471 0.19534 0.0
H514 H 0.63882 0.95118 0.20243 0.0
H515 H 0.61015 0.91149 0.2011 0.0
H516 H 0.69076 0.6046 0.80395 0.0
H517 H 0.68035 0.63356 0.79995 0.0
H518 H 0.70201 0.64546 0.69595 0.0
H519 H 0.7122 0.61623 0.69962 0.0
H520 H 0.70343 0.68145 0.77635 0.0
H521 H 0.63234 0.62031 0.69679 0.0
H522 H 0.64865 0.61213 0.7225 0.0
H523 H 0.66006 0.62725 0.68387 0.0
C524 C 0.69378 0.61375 0.78044 0.0
C525 C 0.70232 0.60819 0.75211 0.0
C526 C 0.68795 0.63036 0.77828 0.0
C527 C 0.69033 0.64153 0.74765 0.0
C528 C 0.7001 0.637 0.71984 0.0
H529 H 0.61143 0.70217 0.691 0.0
H530 H 0.64091 0.69241 0.69012 0.0
C531 C 0.70607 0.62041 0.72204 0.0
C532 C 0.67966 0.65539 0.74381 0.0
H533 H 0.633 0.65339 0.71126 0.0
C534 C 0.68819 0.67556 0.76176 0.0
C535 C 0.65973 0.6475 0.72494 0.0
C536 C 0.64947 0.62556 0.70604 0.0
C537 C 0.67715 0.68804 0.76148 0.0
C538 C 0.65681 0.67976 0.74346 0.0
C539 C 0.64865 0.65983 0.72492 0.0
C540 C 0.6428 0.69052 0.74459 0.0
C541 C 0.6874 0.70992 0.78041 0.0
C542 C 0.63458 0.69351 0.77554 0.0
C543 C 0.61797 0.69951 0.77605 0.0
C544 C 0.60908 0.70215 0.74561 0.0
C545 C 0.61805 0.70021 0.7148 0.0
C546 C 0.63488 0.69465 0.71429 0.0
H547 H 0.70583 0.71745 0.78267 0.0
H548 H 0.68376 0.72211 0.76778 0.0
H549 H 0.68038 0.70688 0.80638 0.0
H550 H 0.63994 0.68985 0.79924 0.0
H551 H 0.611 0.70053 0.80009 0.0
H552 H 0.09372 0.70599 0.19888 0.0
H553 H 0.05424 0.69557 0.1947 0.0
H554 H 0.04615 0.68182 0.30175 0.0
H555 H 0.08553 0.69232 0.3061 0.0
H556 H 0.02142 0.6512 0.21396 0.0
H557 H 0.01012 0.71435 0.28448 0.0
H558 H 0.03679 0.72018 0.26733 0.0
H559 H 0.02658 0.70459 0.30594 0.0
C560 C 0.08374 0.70157 0.2217 0.0
C561 C 0.0927 0.70014 0.25288 0.0
C562 C 0.06118 0.69553 0.21926 0.0
C563 C 0.04738 0.68824 0.24801 0.0
C564 C 0.05661 0.68786 0.27941 0.0
H565 H 0.90834 0.60884 0.29807 0.0
H566 H 0.94849 0.63652 0.29772 0.0
C567 C 0.07905 0.69367 0.2818 0.0
C568 C 0.02281 0.67763 0.24453 0.0
H569 H 0.97704 0.67938 0.27325 0.0
C570 C 0.0117 0.65754 0.22639 0.0
C571 C 0.01026 0.68579 0.26134 0.0
C572 C 0.02151 0.70752 0.28068 0.0
C573 C 0.9883 0.64488 0.22559 0.0
C574 C 0.97563 0.65294 0.2425 0.0
C575 C 0.98676 0.6733 0.26015 0.0
C576 C 0.95084 0.63976 0.24318 0.0
C577 C 0.97746 0.62243 0.20805 0.0
C578 C 0.9387 0.63333 0.21282 0.0
C579 C 0.916 0.61732 0.21299 0.0
C580 C 0.90492 0.60803 0.24359 0.0
C581 C 0.91654 0.61594 0.27421 0.0
C582 C 0.93944 0.63168 0.27399 0.0
H583 H 0.98938 0.61621 0.20443 0.0
H584 H 0.96288 0.60972 0.22263 0.0
H585 H 0.97154 0.62405 0.18268 0.0
H586 H 0.94704 0.6398 0.18884 0.0
H587 H 0.90728 0.61154 0.18909 0.0
H588 H 0.29961 0.91025 0.8007 0.0
H589 H 0.31026 0.94983 0.79877 0.0
H590 H 0.30606 0.9467 0.68979 0.0
H591 H 0.2963 0.90747 0.69171 0.0
H592 H 0.34546 0.97798 0.70936 0.0
H593 H 0.28273 0.98817 0.78206 0.0
H594 H 0.29343 0.97345 0.80586 0.0
H595 H 0.27768 0.96118 0.76778 0.0
C596 C 0.30024 0.91788 0.77648 0.0
C597 C 0.29715 0.90592 0.74636 0.0
C598 C 0.30622 0.94047 0.77535 0.0
C599 C 0.30877 0.95126 0.74411 0.0
C600 C 0.30417 0.93877 0.71417 0.0
H601 H 0.38535 0.09485 0.69753 0.0
H602 H 0.3556 0.05564 0.69353 0.0
C603 C 0.2986 0.91638 0.71528 0.0
C604 C 0.31962 0.97601 0.74224 0.0
H605 H 0.3189 0.02149 0.77484 0.0
C606 C 0.33933 0.98745 0.7231 0.0
C607 C 0.31175 0.9884 0.76032 0.0
C608 C 0.2901 0.97714 0.77988 0.0
C609 C 0.35191 0.01084 0.7227 0.0
C610 C 0.34448 0.02322 0.74171 0.0
C611 C 0.32446 0.01191 0.76015 0.0
C612 C 0.35873 0.04773 0.7455 0.0
C613 C 0.37368 0.02212 0.70332 0.0
C614 C 0.36957 0.05641 0.77639 0.0
C615 C 0.38642 0.07874 0.77876 0.0
C616 C 0.3926 0.09285 0.75037 0.0
C617 C 0.38071 0.08452 0.71998 0.0
C618 C 0.36385 0.06208 0.71759 0.0
H619 H 0.37868 0.01001 0.69428 0.0
H620 H 0.37188 0.0308 0.68095 0.0
H621 H 0.38734 0.03485 0.71934 0.0
H622 H 0.3659 0.04559 0.79816 0.0
H623 H 0.39527 0.08475 0.80252 0.0
H624 H 0.17241 0.42639 0.86936 0.0
H625 H 0.17459 0.41863 0.92941 0.0
H626 H 0.24658 0.45528 0.92398 0.0
H627 H 0.24471 0.46314 0.86432 0.0
H628 H 0.20301 0.40041 0.96737 0.0
H629 H 0.2236 0.48793 0.99341 0.0
H630 H 0.20944 0.47326 0.9553 0.0
H631 H 0.23894 0.48403 0.95987 0.0
C632 C 0.18871 0.43245 0.88077 0.0
C633 C 0.20838 0.44567 0.8621 0.0
C634 C 0.1899 0.42793 0.91503 0.0
C635 C 0.21074 0.43652 0.93102 0.0
C636 C 0.23035 0.44858 0.91203 0.0
H637 H 0.25751 0.43165 0.13208 0.0
H638 H 0.24711 0.42455 0.0722 0.0
C639 C 0.2292 0.45311 0.87792 0.0
C640 C 0.21225 0.43516 0.96817 0.0
H641 H 0.22636 0.46752 0.03906 0.0
C642 C 0.20796 0.41498 0.9832 0.0
C643 C 0.21855 0.45418 0.98859 0.0
C644 C 0.22278 0.47609 0.97367 0.0
C645 C 0.21029 0.41351 0.01835 0.0
C646 C 0.21722 0.43276 0.03864 0.0
C647 C 0.22106 0.45277 0.02349 0.0
C648 C 0.22088 0.43297 0.07566 0.0
C649 C 0.20517 0.39141 0.03351 0.0
C650 C 0.20939 0.43971 0.09758 0.0
C651 C 0.21544 0.44401 0.13158 0.0
C652 C 0.23317 0.44167 0.14444 0.0
C653 C 0.24375 0.43354 0.12298 0.0
C654 C 0.23775 0.42937 0.08876 0.0
H655 H 0.19463 0.37722 0.01638 0.0
H656 H 0.22107 0.39147 0.03794 0.0
H657 H 0.19647 0.38862 0.05818 0.0
H658 H 0.19633 0.44259 0.08802 0.0
H659 H 0.20679 0.45004 0.14747 0.0
H660 H 0.74776 0.17397 0.36879 0.0
H661 H 0.75742 0.17573 0.42887 0.0
H662 H 0.80061 0.24708 0.42105 0.0
H663 H 0.7912 0.24562 0.36128 0.0
H664 H 0.80541 0.20121 0.46752 0.0
H665 H 0.74413 0.2302 0.48859 0.0
H666 H 0.74301 0.21416 0.4518 0.0
H667 H 0.76404 0.24312 0.45481 0.0
C668 C 0.7597 0.18997 0.37964 0.0
C669 C 0.76842 0.20971 0.36031 0.0
C670 C 0.76524 0.19091 0.41393 0.0
C671 C 0.77961 0.21154 0.42925 0.0
C672 C 0.78947 0.23102 0.40957 0.0
H673 H 0.82784 0.25576 0.63321 0.0
H674 H 0.82582 0.24615 0.57309 0.0
C675 C 0.78395 0.23012 0.37543 0.0
C676 C 0.7821 0.21331 0.46643 0.0
H677 H 0.7648 0.22998 0.53568 0.0
C678 C 0.79651 0.2074 0.48258 0.0
C679 C 0.77035 0.22128 0.4858 0.0
C680 C 0.75438 0.22747 0.46958 0.0
C681 C 0.79966 0.20957 0.51786 0.0
C682 C 0.78818 0.21794 0.53713 0.0
C683 C 0.7736 0.22357 0.52085 0.0
C684 C 0.79069 0.22102 0.5743 0.0
C685 C 0.81499 0.20268 0.53434 0.0
C686 C 0.77174 0.20985 0.59497 0.0
C687 C 0.77279 0.21541 0.62909 0.0
C688 C 0.79283 0.23236 0.6433 0.0
C689 C 0.81217 0.24261 0.62305 0.0
C690 C 0.81107 0.23707 0.58872 0.0
H691 H 0.81858 0.19203 0.51736 0.0
H692 H 0.83108 0.21787 0.54067 0.0
H693 H 0.80757 0.19343 0.5582 0.0
H694 H 0.75585 0.19743 0.58434 0.0
H695 H 0.75763 0.20698 0.644 0.0
H696 H 0.54683 0.7574 0.14461 0.0
H697 H 0.55384 0.75382 0.08517 0.0
H698 H 0.57695 0.82389 0.06978 0.0
H699 H 0.57034 0.82775 0.12968 0.0
H700 H 0.53081 0.76133 0.03585 0.0
H701 H 0.62216 0.8148 0.0147 0.0
H702 H 0.61016 0.80569 0.0563 0.0
H703 H 0.60932 0.82853 0.03595 0.0
C704 C 0.55387 0.77221 0.12882 0.0
C705 C 0.55783 0.79284 0.14184 0.0
C706 C 0.5579 0.77012 0.09482 0.0
C707 C 0.56597 0.78857 0.07302 0.0
C708 C 0.57108 0.8095 0.08624 0.0
H709 H 0.53679 0.78173 0.86067 0.0
H710 H 0.54425 0.79175 0.92028 0.0
C711 C 0.56719 0.81166 0.12047 0.0
C712 C 0.56615 0.78509 0.036 0.0
H713 H 0.59917 0.80116 0.96537 0.0
C714 C 0.54581 0.76994 0.02053 0.0
C715 C 0.58574 0.79628 0.01605 0.0
C716 C 0.60815 0.8121 0.03156 0.0
C717 C 0.54443 0.7659 0.98566 0.0
C718 C 0.56384 0.77753 0.96555 0.0
C719 C 0.58431 0.79241 0.98092 0.0
C720 C 0.56269 0.77446 0.92842 0.0
C721 C 0.52216 0.74915 0.97053 0.0
C722 C 0.57135 0.76209 0.91299 0.0
C723 C 0.56711 0.75626 0.87873 0.0
C724 C 0.55411 0.76271 0.85948 0.0
C725 C 0.54665 0.77624 0.87472 0.0
C726 C 0.55092 0.78206 0.90882 0.0
H727 H 0.51003 0.73835 0.99015 0.0
H728 H 0.51494 0.75821 0.95715 0.0
H729 H 0.52426 0.73833 0.95183 0.0
H730 H 0.58048 0.75608 0.9278 0.0
H731 H 0.57319 0.74591 0.86777 0.0
H732 H 0.82672 0.5731 0.36624 0.0
H733 H 0.82489 0.58052 0.42656 0.0
H734 H 0.75308 0.54849 0.42018 0.0
H735 H 0.75461 0.54097 0.36028 0.0
H736 H 0.79896 0.60097 0.46595 0.0
H737 H 0.77184 0.51124 0.48738 0.0
H738 H 0.78678 0.5261 0.44983 0.0
H739 H 0.75765 0.51724 0.45438 0.0
C740 C 0.81058 0.56806 0.3775 0.0
C741 C 0.79079 0.55614 0.35851 0.0
C742 C 0.80958 0.57236 0.41191 0.0
C743 C 0.78883 0.56489 0.42771 0.0
C744 C 0.76923 0.5543 0.40838 0.0
H745 H 0.74378 0.56997 0.63027 0.0
H746 H 0.7542 0.57737 0.57042 0.0
C747 C 0.77017 0.54996 0.37414 0.0
C748 C 0.78723 0.56564 0.46493 0.0
H749 H 0.77052 0.53167 0.53417 0.0
C750 C 0.79289 0.58591 0.48103 0.0
C751 C 0.77946 0.54596 0.48437 0.0
C752 C 0.7737 0.52388 0.4683 0.0
C753 C 0.79054 0.58687 0.51628 0.0
C754 C 0.78217 0.56701 0.53558 0.0
C755 C 0.77692 0.54688 0.51936 0.0
C756 C 0.77853 0.56633 0.57265 0.0
C757 C 0.79719 0.60907 0.5326 0.0
C758 C 0.78891 0.55794 0.59385 0.0
C759 C 0.78281 0.55346 0.62781 0.0
C760 C 0.76617 0.55727 0.64138 0.0
C761 C 0.75669 0.56691 0.62062 0.0
C762 C 0.76273 0.57126 0.58644 0.0
H763 H 0.8085 0.6233 0.51607 0.0
H764 H 0.78195 0.61021 0.5374 0.0
H765 H 0.80563 0.61073 0.55722 0.0
H766 H 0.80113 0.554 0.58376 0.0
H767 H 0.7906 0.54622 0.64312 0.0
H768 H 0.25561 0.82762 0.8715 0.0
H769 H 0.24558 0.82512 0.93154 0.0
H770 H 0.20743 0.75327 0.92395 0.0
H771 H 0.21733 0.75547 0.86429 0.0
H772 H 0.20089 0.80047 0.96996 0.0
H773 H 0.26078 0.77013 0.99272 0.0
H774 H 0.26111 0.78458 0.95447 0.0
H775 H 0.2403 0.75571 0.96022 0.0
C776 C 0.24471 0.81131 0.88243 0.0
C777 C 0.23758 0.79172 0.86319 0.0
C778 C 0.23897 0.80993 0.9167 0.0
C779 C 0.226 0.789 0.93214 0.0
C780 C 0.21762 0.76956 0.91249 0.0
H781 H 0.17366 0.7446 0.134 0.0
H782 H 0.17744 0.7553 0.07423 0.0
C783 C 0.22336 0.77089 0.87838 0.0
C784 C 0.2232 0.78715 0.96934 0.0
H785 H 0.23875 0.76912 0.03902 0.0
C786 C 0.2092 0.79373 0.9852 0.0
C787 C 0.23429 0.77858 0.98906 0.0
C788 C 0.25012 0.77198 0.97342 0.0
C789 C 0.20565 0.79146 0.02041 0.0
C790 C 0.21629 0.78228 0.03995 0.0
C791 C 0.23057 0.77612 0.02401 0.0
C792 C 0.21301 0.77869 0.07701 0.0
C793 C 0.19078 0.79907 0.03646 0.0
C794 C 0.23166 0.78851 0.09852 0.0
C795 C 0.22961 0.78229 0.13248 0.0
C796 C 0.20884 0.76604 0.14571 0.0
C797 C 0.18988 0.7572 0.12464 0.0
C798 C 0.19199 0.76338 0.09048 0.0
H799 H 0.18847 0.81069 0.01974 0.0
H800 H 0.17409 0.78429 0.04138 0.0
H801 H 0.19779 0.80751 0.06101 0.0
H802 H 0.24804 0.80036 0.08865 0.0
H803 H 0.24452 0.78962 0.14804 0.0
H804 H 0.42974 0.17469 0.63338 0.0
H805 H 0.42262 0.17838 0.57361 0.0
H806 H 0.45398 0.24986 0.58548 0.0
H807 H 0.46136 0.24646 0.64489 0.0
H808 H 0.40146 0.20085 0.53643 0.0
H809 H 0.49303 0.23872 0.51578 0.0
H810 H 0.47935 0.22346 0.55373 0.0
H811 H 0.48512 0.25168 0.54817 0.0
C812 C 0.43474 0.19116 0.62346 0.0
C813 C 0.44647 0.21032 0.64382 0.0
C814 C 0.43061 0.19322 0.58932 0.0
C815 C 0.43808 0.21442 0.5751 0.0
C816 C 0.44834 0.23337 0.59592 0.0
H817 H 0.42867 0.25672 0.37094 0.0
H818 H 0.422 0.24704 0.43117 0.0
C819 C 0.45255 0.23137 0.6299 0.0
C820 C 0.4374 0.21707 0.538 0.0
H821 H 0.47148 0.23811 0.46914 0.0
C822 C 0.41672 0.20897 0.52162 0.0
C823 C 0.45735 0.22745 0.51879 0.0
C824 C 0.47999 0.23568 0.53485 0.0
C825 C 0.41554 0.2113 0.4864 0.0
C826 C 0.43556 0.22205 0.46736 0.0
C827 C 0.45616 0.22994 0.48382 0.0
C828 C 0.43587 0.22503 0.43018 0.0
C829 C 0.39299 0.20197 0.46969 0.0
C830 C 0.44551 0.21558 0.40958 0.0
C831 C 0.44946 0.22116 0.37539 0.0
C832 C 0.44395 0.23642 0.361 0.0
C833 C 0.43308 0.24489 0.38121 0.0
C834 C 0.42917 0.23931 0.41561 0.0
H835 H 0.37922 0.19027 0.48658 0.0
H836 H 0.39008 0.21593 0.46306 0.0
H837 H 0.39238 0.19308 0.44595 0.0
H838 H 0.4508 0.20453 0.42032 0.0
H839 H 0.45765 0.21413 0.36055 0.0
H840 H 0.76544 0.51783 0.13302 0.0
H841 H 0.7632 0.52188 0.07183 0.0
H842 H 0.79527 0.5935 0.08329 0.0
H843 H 0.79727 0.58943 0.14486 0.0
H844 H 0.74239 0.54385 0.03627 0.0
H845 H 0.83385 0.5826 0.01196 0.0
H846 H 0.82099 0.56739 0.05036 0.0
H847 H 0.82519 0.59498 0.04435 0.0
C848 C 0.7718 0.5344 0.12246 0.0
C849 C 0.78157 0.55334 0.14341 0.0
C850 C 0.77059 0.5367 0.0876 0.0
C851 C 0.7793 0.55799 0.07311 0.0
C852 C 0.78876 0.57696 0.09403 0.0
H853 H 0.78808 0.58927 0.85632 0.0
H854 H 0.79187 0.59299 0.91824 0.0
C855 C 0.78987 0.57463 0.12903 0.0
C856 C 0.77833 0.56005 0.03601 0.0
H857 H 0.81056 0.57584 0.9647 0.0
C858 C 0.75729 0.55099 0.02059 0.0
C859 C 0.79783 0.5695 0.01578 0.0
C860 C 0.8208 0.57909 0.03126 0.0
C861 C 0.75516 0.55077 0.98531 0.0
C862 C 0.7746 0.55939 0.96497 0.0
C863 C 0.79571 0.56916 0.98042 0.0
C864 C 0.77317 0.55734 0.92767 0.0
C865 C 0.73212 0.54126 0.97013 0.0
C866 C 0.76195 0.5361 0.9126 0.0
C867 C 0.75973 0.534 0.87752 0.0
C868 C 0.76888 0.5531 0.85692 0.0
C869 C 0.78078 0.57435 0.87186 0.0
C870 C 0.78296 0.57646 0.90706 0.0
H871 H 0.7201 0.54161 0.98848 0.0
H872 H 0.73247 0.55065 0.94711 0.0
H873 H 0.72582 0.52357 0.9629 0.0
H874 H 0.75469 0.52113 0.92803 0.0
H875 H 0.75042 0.51745 0.86652 0.0
H876 H 0.26587 0.81282 0.63405 0.0
H877 H 0.25811 0.80934 0.57334 0.0
H878 H 0.19415 0.75041 0.59127 0.0
H879 H 0.20153 0.75426 0.65247 0.0
H880 H 0.22594 0.74791 0.54098 0.0
H881 H 0.20982 0.81823 0.51908 0.0
H882 H 0.23357 0.82401 0.54499 0.0
H883 H 0.20588 0.8049 0.55986 0.0
C884 C 0.24991 0.79946 0.62518 0.0
C885 C 0.23419 0.78392 0.64794 0.0
C886 C 0.24555 0.79745 0.5905 0.0
C887 C 0.22548 0.77978 0.57798 0.0
C888 C 0.20967 0.76425 0.60059 0.0
H889 H 0.18488 0.73051 0.37284 0.0
H890 H 0.18682 0.73548 0.43413 0.0
C891 C 0.21393 0.7664 0.6354 0.0
C892 C 0.2218 0.77678 0.54108 0.0
H893 H 0.21359 0.80026 0.47054 0.0
C894 C 0.22303 0.75919 0.52552 0.0
C895 C 0.21834 0.79176 0.52117 0.0
C896 C 0.21666 0.81075 0.53699 0.0
C897 C 0.22136 0.75643 0.49029 0.0
C898 C 0.21769 0.77131 0.47025 0.0
C899 C 0.21634 0.78885 0.48593 0.0
C900 C 0.21541 0.769 0.43296 0.0
C901 C 0.22433 0.73808 0.47485 0.0
C902 C 0.23016 0.78659 0.41182 0.0
C903 C 0.22871 0.78398 0.37665 0.0
C904 C 0.2125 0.76373 0.36213 0.0
C905 C 0.19739 0.7464 0.38331 0.0
C906 C 0.19869 0.74909 0.41837 0.0
H907 H 0.23335 0.73262 0.4922 0.0
H908 H 0.20764 0.72335 0.46968 0.0
H909 H 0.2337 0.74357 0.45064 0.0
H910 H 0.2431 0.80217 0.42256 0.0
H911 H 0.24042 0.79764 0.3608 0.0
H912 H 0.46031 0.18768 0.87155 0.0
H913 H 0.45663 0.18969 0.9329 0.0
H914 H 0.43757 0.23989 0.91894 0.0
H915 H 0.4409 0.23762 0.85732 0.0
H916 H 0.48091 0.2284 0.97277 0.0
H917 H 0.38918 0.19408 0.9837 0.0
H918 H 0.40201 0.19006 0.94655 0.0
H919 H 0.40311 0.2163 0.95348 0.0
C920 C 0.45497 0.19886 0.88161 0.0
C921 C 0.45071 0.2124 0.8599 0.0
C922 C 0.45298 0.20007 0.91657 0.0
C923 C 0.44656 0.21472 0.93039 0.0
C924 C 0.44216 0.22819 0.90872 0.0
H925 H 0.45615 0.26626 0.13163 0.0
H926 H 0.45346 0.25942 0.07052 0.0
C927 C 0.44421 0.22702 0.87367 0.0
C928 C 0.44571 0.21675 0.96757 0.0
H929 H 0.41082 0.21011 0.0334 0.0
C930 C 0.46556 0.22428 0.98604 0.0
C931 C 0.42563 0.21127 0.98477 0.0
C932 C 0.4037 0.20229 0.96623 0.0
C933 C 0.46595 0.22689 0.02126 0.0
C934 C 0.44599 0.22177 0.03831 0.0
C935 C 0.42607 0.21401 0.02003 0.0
C936 C 0.44587 0.22513 0.07514 0.0
C937 C 0.48769 0.23536 0.04017 0.0
C938 C 0.44225 0.20797 0.09772 0.0
C939 C 0.44367 0.21179 0.13263 0.0
C940 C 0.44872 0.23282 0.14525 0.0
C941 C 0.45192 0.24981 0.12252 0.0
C942 C 0.45048 0.24598 0.0877 0.0
H943 H 0.50168 0.23804 0.02327 0.0
H944 H 0.49212 0.25141 0.05282 0.0
H945 H 0.48573 0.22323 0.0602 0.0
H946 H 0.43874 0.19179 0.0883 0.0
H947 H 0.44109 0.19846 0.14975 0.0
H948 H 0.21809 0.41097 0.3607 0.0
H949 H 0.21382 0.40745 0.42245 0.0
H950 H 0.24128 0.47881 0.4306 0.0
H951 H 0.24656 0.48243 0.36931 0.0
H952 H 0.25995 0.46399 0.47557 0.0
H953 H 0.1675 0.41065 0.48071 0.0
H954 H 0.18114 0.39897 0.45639 0.0
H955 H 0.18218 0.42426 0.44238 0.0
C956 C 0.22316 0.42583 0.37582 0.0
C957 C 0.23255 0.44694 0.3604 0.0
C958 C 0.22054 0.42381 0.41098 0.0
C959 C 0.22694 0.44283 0.43111 0.0
C960 C 0.23615 0.46389 0.41557 0.0
H961 H 0.19172 0.45694 0.63323 0.0
H962 H 0.19519 0.45338 0.57231 0.0
C963 C 0.23898 0.46593 0.38056 0.0
C964 C 0.22476 0.44114 0.46847 0.0
H965 H 0.18688 0.41826 0.53272 0.0
C966 C 0.24398 0.45394 0.48811 0.0
C967 C 0.20388 0.42813 0.48472 0.0
C968 C 0.18245 0.41488 0.46502 0.0
C969 C 0.24287 0.45447 0.5235 0.0
C970 C 0.22203 0.4413 0.53979 0.0
C971 C 0.20287 0.42817 0.52019 0.0
C972 C 0.21941 0.4423 0.57687 0.0
C973 C 0.26386 0.46986 0.54295 0.0
C974 C 0.23162 0.43693 0.59973 0.0
C975 C 0.22976 0.43916 0.6346 0.0
C976 C 0.21539 0.44639 0.64699 0.0
C977 C 0.20275 0.45114 0.62419 0.0
C978 C 0.20475 0.44913 0.58945 0.0
H979 H 0.27696 0.48272 0.52633 0.0
H980 H 0.26025 0.4785 0.56361 0.0
H981 H 0.27075 0.45991 0.55441 0.0
H982 H 0.24266 0.43117 0.59062 0.0
H983 H 0.23953 0.43528 0.65188 0.0
H984 H 0.80198 0.20975 0.85785 0.0
H985 H 0.79939 0.20332 0.91936 0.0
H986 H 0.76179 0.23758 0.92904 0.0
H987 H 0.76444 0.24405 0.86795 0.0
H988 H 0.81469 0.23607 0.97127 0.0
H989 H 0.72318 0.17854 0.97959 0.0
H990 H 0.73838 0.18445 0.94022 0.0
H991 H 0.73052 0.20381 0.95686 0.0
C992 C 0.7931 0.21577 0.87326 0.0
C993 C 0.78327 0.22723 0.85839 0.0
C994 C 0.79161 0.21209 0.90822 0.0
C995 C 0.78009 0.21967 0.92861 0.0
C996 C 0.77031 0.23115 0.91366 0.0
H997 H 0.75339 0.23386 0.13448 0.0
H998 H 0.75823 0.23435 0.07306 0.0
C999 C 0.77184 0.23485 0.87884 0.0
C1000 C 0.77892 0.21648 0.96571 0.0
H1001 H 0.74198 0.19558 0.03136 0.0
C1002 C 0.79885 0.22694 0.98447 0.0
C1003 C 0.75821 0.20451 0.98274 0.0
C1004 C 0.73636 0.192 0.96382 0.0
C1005 C 0.79852 0.22669 0.02 0.0
C1006 C 0.77773 0.21544 0.037 0.0
C1007 C 0.75788 0.20432 0.01819 0.0
C1008 C 0.77603 0.21595 0.07425 0.0
C1009 C 0.82028 0.23924 0.0391 0.0
C1010 C 0.78453 0.20552 0.0952 0.0
C1011 C 0.78187 0.20535 0.13031 0.0
C1012 C 0.77061 0.21552 0.14479 0.0
C1013 C 0.76234 0.22612 0.12383 0.0
C1014 C 0.76498 0.2263 0.08883 0.0
H1015 H 0.8344 0.25041 0.0223 0.0
H1016 H 0.81886 0.24944 0.05963 0.0
H1017 H 0.82429 0.22708 0.05091 0.0
H1018 H 0.79283 0.19718 0.08436 0.0
H1019 H 0.78833 0.19705 0.14612 0.0
H1020 H 0.55768 0.79942 0.6457 0.0
H1021 H 0.56047 0.80507 0.58412 0.0
H1022 H 0.55305 0.7397 0.57044 0.0
H1023 H 0.54903 0.73355 0.63143 0.0
H1024 H 0.58944 0.80525 0.5365 0.0
H1025 H 0.50351 0.73568 0.5115 0.0
H1026 H 0.51328 0.74621 0.55351 0.0
H1027 H 0.52027 0.72688 0.53419 0.0
C1028 C 0.55659 0.78629 0.62942 0.0
C1029 C 0.55309 0.76605 0.64324 0.0
C1030 C 0.55829 0.78955 0.59436 0.0
C1031 C 0.55654 0.77262 0.57268 0.0
C1032 C 0.55394 0.75278 0.58662 0.0
H1033 H 0.56081 0.75986 0.35399 0.0
H1034 H 0.56396 0.7566 0.41543 0.0
C1035 C 0.552 0.74943 0.62153 0.0
C1036 C 0.55699 0.77546 0.53546 0.0
H1037 H 0.52691 0.75185 0.46353 0.0
C1038 C 0.57575 0.79363 0.52055 0.0
C1039 C 0.53903 0.76033 0.51471 0.0
C1040 C 0.51779 0.74132 0.52929 0.0
C1041 C 0.57714 0.79684 0.48535 0.0
C1042 C 0.55935 0.78151 0.46473 0.0
C1043 C 0.54063 0.76339 0.47954 0.0
C1044 C 0.55928 0.78452 0.42776 0.0
C1045 C 0.59761 0.81647 0.47029 0.0
C1046 C 0.55555 0.80122 0.41463 0.0
C1047 C 0.55342 0.80289 0.3798 0.0
C1048 C 0.55514 0.78795 0.35752 0.0
C1049 C 0.55934 0.77151 0.37069 0.0
C1050 C 0.56124 0.7697 0.40563 0.0
H1051 H 0.6114 0.82473 0.48899 0.0
H1052 H 0.60367 0.81101 0.44825 0.0
H1053 H 0.59321 0.82898 0.46112 0.0
H1054 H 0.55362 0.81255 0.43143 0.0
H1055 H 0.5497 0.8154 0.37042 0.0
H1056 H 0.22457 0.52877 0.2672 0.0
H1057 H 0.21626 0.55921 0.26865 0.0
H1058 H 0.18949 0.54258 0.16748 0.0
H1059 H 0.19828 0.5124 0.16547 0.0
H1060 H 0.21978 0.58586 0.17284 0.0
H1061 H 0.15997 0.56257 0.27889 0.0
H1062 H 0.18486 0.56235 0.29121 0.0
H1063 H 0.1667 0.54293 0.25967 0.0
C1064 C 0.21653 0.53129 0.24547 0.0
C1065 C 0.2122 0.51823 0.21613 0.0
C1066 C 0.21163 0.54863 0.24644 0.0
C1067 C 0.20201 0.55303 0.21832 0.0
C1068 C 0.19686 0.53944 0.18951 0.0
H1069 H 0.16781 0.6596 0.22333 0.0
H1070 H 0.1653 0.62304 0.21831 0.0
C1071 C 0.20188 0.52218 0.18842 0.0
C1072 C 0.19951 0.57317 0.21771 0.0
H1073 H 0.17902 0.60137 0.26237 0.0
C1074 C 0.2106 0.58909 0.19217 0.0
C1075 C 0.18731 0.5773 0.24265 0.0
C1076 C 0.17384 0.56026 0.26943 0.0
C1077 C 0.21058 0.60939 0.19167 0.0
C1078 C 0.19961 0.61413 0.21786 0.0
C1079 C 0.1877 0.59784 0.24258 0.0
C1080 C 0.20105 0.63622 0.22068 0.0
C1081 C 0.22237 0.62557 0.16309 0.0
C1082 C 0.22195 0.65569 0.22414 0.0
C1083 C 0.22347 0.67657 0.22682 0.0
C1084 C 0.20407 0.67841 0.22649 0.0
C1085 C 0.18309 0.65881 0.22353 0.0
C1086 C 0.18161 0.6379 0.22071 0.0
H1087 H 0.22367 0.61687 0.14031 0.0
H1088 H 0.21355 0.63473 0.15604 0.0
H1089 H 0.2396 0.63796 0.17117 0.0
H1090 H 0.23713 0.65473 0.22502 0.0
H1091 H 0.23989 0.69125 0.22939 0.0
H1092 H 0.6963 0.22347 0.76449 0.0
H1093 H 0.65748 0.21481 0.76532 0.0
H1094 H 0.64578 0.18041 0.66989 0.0
H1095 H 0.68487 0.18944 0.66846 0.0
H1096 H 0.63239 0.21093 0.66871 0.0
H1097 H 0.59849 0.15885 0.78341 0.0
H1098 H 0.62383 0.18446 0.79224 0.0
H1099 H 0.62443 0.16427 0.76405 0.0
C1100 C 0.68541 0.21372 0.74392 0.0
C1101 C 0.69374 0.20726 0.71629 0.0
C1102 C 0.66313 0.20862 0.74458 0.0
C1103 C 0.64863 0.19671 0.71788 0.0
C1104 C 0.65666 0.18953 0.69085 0.0
H1105 H 0.50855 0.16506 0.72537 0.0
H1106 H 0.54179 0.16116 0.72026 0.0
C1107 C 0.679 0.19469 0.69009 0.0
C1108 C 0.62589 0.1939 0.71664 0.0
H1109 H 0.57852 0.17703 0.76337 0.0
C1110 C 0.62047 0.20319 0.68916 0.0
C1111 C 0.61021 0.18356 0.74308 0.0
C1112 C 0.61444 0.17201 0.77217 0.0
C1113 C 0.60027 0.20341 0.68824 0.0
C1114 C 0.58531 0.19449 0.71583 0.0
C1115 C 0.59018 0.18416 0.74247 0.0
C1116 C 0.56512 0.19674 0.71826 0.0
C1117 C 0.59525 0.21339 0.65786 0.0
C1118 C 0.56727 0.21805 0.71923 0.0
C1119 C 0.54838 0.22036 0.7221 0.0
C1120 C 0.52691 0.20139 0.7243 0.0
C1121 C 0.52482 0.18003 0.72358 0.0
C1122 C 0.54378 0.17775 0.72071 0.0
H1123 H 0.6046 0.21311 0.63517 0.0
H1124 H 0.57709 0.2043 0.65193 0.0
H1125 H 0.60042 0.2311 0.66329 0.0
H1126 H 0.58364 0.23293 0.71813 0.0
H1127 H 0.55065 0.23706 0.72278 0.0
H1128 H 0.48206 0.6947 0.26246 0.0
H1129 H 0.45309 0.65528 0.2672 0.0
H1130 H 0.42949 0.65773 0.16715 0.0
H1131 H 0.45852 0.69685 0.16193 0.0
H1132 H 0.40843 0.63961 0.26586 0.0
H1133 H 0.4306 0.59972 0.1633 0.0
H1134 H 0.44991 0.62737 0.17902 0.0
H1135 H 0.4289 0.62338 0.14843 0.0
C1136 C 0.47096 0.68672 0.24123 0.0
C1137 C 0.47258 0.69892 0.21183 0.0
C1138 C 0.45441 0.66421 0.24399 0.0
C1139 C 0.43931 0.65348 0.21736 0.0
C1140 C 0.44127 0.66549 0.1877 0.0
H1141 H 0.30315 0.5477 0.22237 0.0
H1142 H 0.33875 0.58278 0.22096 0.0
C1143 C 0.4578 0.68794 0.18488 0.0
C1144 C 0.42023 0.63045 0.22158 0.0
H1145 H 0.39257 0.5793 0.18337 0.0
C1146 C 0.40513 0.62633 0.2481 0.0
C1147 C 0.41607 0.61305 0.19867 0.0
C1148 C 0.43237 0.61601 0.17097 0.0
C1149 C 0.38548 0.60558 0.25144 0.0
C1150 C 0.3806 0.58867 0.2272 0.0
C1151 C 0.39619 0.59241 0.20161 0.0
C1152 C 0.35909 0.56727 0.22742 0.0
C1153 C 0.37008 0.602 0.28083 0.0
C1154 C 0.35875 0.54686 0.23038 0.0
C1155 C 0.33839 0.5267 0.23091 0.0
C1156 C 0.31801 0.52663 0.22832 0.0
C1157 C 0.31849 0.54713 0.22468 0.0
C1158 C 0.33883 0.56723 0.22408 0.0
H1159 H 0.37915 0.61359 0.30205 0.0
H1160 H 0.35665 0.60527 0.27244 0.0
H1161 H 0.36217 0.58454 0.29032 0.0
H1162 H 0.37422 0.54654 0.23273 0.0
H1163 H 0.33865 0.51123 0.23369 0.0
H1164 H 0.75635 0.30129 0.71988 0.0
H1165 H 0.75687 0.33685 0.71757 0.0
H1166 H 0.82799 0.37226 0.73575 0.0
H1167 H 0.82776 0.33669 0.73757 0.0
H1168 H 0.76973 0.3689 0.76754 0.0
H1169 H 0.82204 0.40397 0.6523 0.0
H1170 H 0.80957 0.37487 0.66388 0.0
H1171 H 0.83422 0.39561 0.68531 0.0
C1172 C 0.77216 0.31661 0.72323 0.0
C1173 C 0.79203 0.31611 0.72878 0.0
C1174 C 0.77241 0.33693 0.72194 0.0
C1175 C 0.79249 0.35719 0.72612 0.0
C1176 C 0.81237 0.35683 0.73182 0.0
H1177 H 0.78817 0.4807 0.76202 0.0
H1178 H 0.79781 0.45116 0.7674 0.0
C1179 C 0.81217 0.33647 0.733 0.0
C1180 C 0.79229 0.37855 0.72522 0.0
H1181 H 0.81077 0.42691 0.68033 0.0
C1182 C 0.77881 0.38167 0.74863 0.0
C1183 C 0.80407 0.39508 0.70036 0.0
C1184 C 0.81816 0.39224 0.67382 0.0
C1185 C 0.7764 0.40066 0.74747 0.0
C1186 C 0.78815 0.4172 0.7226 0.0
C1187 C 0.80197 0.41429 0.69956 0.0
C1188 C 0.78474 0.43661 0.7183 0.0
C1189 C 0.76053 0.40238 0.77196 0.0
C1190 C 0.7751 0.43879 0.68837 0.0
C1191 C 0.76974 0.4557 0.6851 0.0
C1192 C 0.77394 0.4708 0.71174 0.0
C1193 C 0.78456 0.46923 0.74114 0.0
C1194 C 0.78998 0.4523 0.74434 0.0
H1195 H 0.74933 0.38616 0.78455 0.0
H1196 H 0.77032 0.4148 0.79186 0.0
H1197 H 0.75005 0.40809 0.75884 0.0
H1198 H 0.771 0.42691 0.66792 0.0
H1199 H 0.7617 0.4565 0.66204 0.0
H1200 H 0.30305 0.77139 0.2679 0.0
H1201 H 0.34205 0.78042 0.26926 0.0
H1202 H 0.35146 0.80651 0.16773 0.0
H1203 H 0.31229 0.797 0.16582 0.0
H1204 H 0.36534 0.77698 0.1735 0.0
H1205 H 0.40107 0.83753 0.27881 0.0
H1206 H 0.37632 0.81237 0.29138 0.0
H1207 H 0.3745 0.83012 0.25966 0.0
C1208 C 0.31351 0.77941 0.24606 0.0
C1209 C 0.30452 0.78336 0.21667 0.0
C1210 C 0.33588 0.78472 0.24698 0.0
C1211 C 0.34978 0.7944 0.21874 0.0
C1212 C 0.34106 0.79912 0.18985 0.0
H1213 H 0.49159 0.83201 0.22214 0.0
H1214 H 0.45698 0.83358 0.21779 0.0
C1215 C 0.31866 0.79367 0.18881 0.0
C1216 C 0.37263 0.79742 0.21811 0.0
H1217 H 0.42163 0.81931 0.26229 0.0
C1218 C 0.37775 0.7865 0.19267 0.0
C1219 C 0.38894 0.81007 0.24284 0.0
C1220 C 0.38503 0.82338 0.26949 0.0
C1221 C 0.39836 0.78713 0.19204 0.0
C1222 C 0.41409 0.79856 0.21803 0.0
C1223 C 0.4094 0.81029 0.24266 0.0
C1224 C 0.43509 0.79774 0.22074 0.0
C1225 C 0.40304 0.77549 0.16355 0.0
C1226 C 0.43422 0.77711 0.22436 0.0
C1227 C 0.45388 0.77612 0.22664 0.0
C1228 C 0.47488 0.79581 0.22576 0.0
C1229 C 0.47571 0.81653 0.22276 0.0
C1230 C 0.45597 0.81747 0.22032 0.0
H1231 H 0.39282 0.7738 0.14084 0.0
H1232 H 0.42098 0.78466 0.15632 0.0
H1233 H 0.39866 0.75842 0.17181 0.0
H1234 H 0.41828 0.76171 0.22559 0.0
H1235 H 0.45257 0.75989 0.22927 0.0
H1236 H 0.69344 0.45247 0.71735 0.0
H1237 H 0.65691 0.41838 0.71586 0.0
H1238 H 0.62458 0.45696 0.73495 0.0
H1239 H 0.66109 0.49126 0.73663 0.0
H1240 H 0.6096 0.41816 0.77668 0.0
H1241 H 0.60908 0.39892 0.64034 0.0
H1242 H 0.63405 0.40418 0.66224 0.0
H1243 H 0.62758 0.42625 0.6579 0.0
C1244 C 0.67859 0.45378 0.72109 0.0
C1245 C 0.68021 0.47464 0.72699 0.0
C1246 C 0.65772 0.43427 0.72005 0.0
C1247 C 0.63807 0.43522 0.72486 0.0
C1248 C 0.63957 0.45593 0.73097 0.0
H1249 H 0.50743 0.31687 0.68689 0.0
H1250 H 0.53799 0.35575 0.68885 0.0
C1251 C 0.66045 0.4755 0.73184 0.0
C1252 C 0.61605 0.41441 0.72449 0.0
H1253 H 0.58205 0.36959 0.67509 0.0
C1254 C 0.60341 0.40763 0.7544 0.0
C1255 C 0.60789 0.40092 0.69524 0.0
C1256 C 0.62023 0.40799 0.66199 0.0
C1257 C 0.58326 0.38716 0.75622 0.0
C1258 C 0.57575 0.37306 0.72749 0.0
C1259 C 0.5879 0.38034 0.69718 0.0
C1260 C 0.5561 0.35016 0.72874 0.0
C1261 C 0.57027 0.38077 0.78894 0.0
C1262 C 0.55608 0.33418 0.75068 0.0
C1263 C 0.53867 0.31201 0.74967 0.0
C1264 C 0.52101 0.30531 0.72645 0.0
C1265 C 0.52076 0.32147 0.70508 0.0
C1266 C 0.53822 0.34369 0.70613 0.0
H1267 H 0.57422 0.39576 0.80438 0.0
H1268 H 0.55197 0.37121 0.78422 0.0
H1269 H 0.57488 0.3701 0.80398 0.0
H1270 H 0.56993 0.33868 0.76782 0.0
H1271 H 0.53943 0.3 0.76645 0.0
H1272 H 0.34398 0.83605 0.77284 0.0
H1273 H 0.38129 0.83996 0.77476 0.0
H1274 H 0.35142 0.76873 0.78849 0.0
H1275 H 0.31426 0.76463 0.78695 0.0
H1276 H 0.3876 0.79495 0.8329 0.0
H1277 H 0.40843 0.81989 0.69795 0.0
H1278 H 0.39991 0.83602 0.72319 0.0
H1279 H 0.3802 0.80729 0.71396 0.0
C1280 C 0.34536 0.82123 0.77638 0.0
C1281 C 0.3261 0.80001 0.77959 0.0
C1282 C 0.36668 0.8235 0.77731 0.0
C1283 C 0.36906 0.8046 0.7814 0.0
C1284 C 0.34992 0.78351 0.78525 0.0
H1285 H 0.46373 0.76474 0.73883 0.0
H1286 H 0.43436 0.77458 0.73987 0.0
C1287 C 0.32867 0.78121 0.78427 0.0
C1288 C 0.39136 0.80641 0.78143 0.0
H1289 H 0.43471 0.81539 0.72973 0.0
C1290 C 0.3981 0.79972 0.81053 0.0
C1291 C 0.40485 0.81249 0.75208 0.0
C1292 C 0.39803 0.81921 0.71986 0.0
C1293 C 0.41764 0.79823 0.81076 0.0
C1294 C 0.43092 0.80388 0.78119 0.0
C1295 C 0.42455 0.81125 0.75241 0.0
C1296 C 0.45007 0.79992 0.77857 0.0
C1297 C 0.42328 0.7895 0.84204 0.0
C1298 C 0.46897 0.81137 0.79935 0.0
C1299 C 0.48583 0.80572 0.79891 0.0
C1300 C 0.48404 0.78856 0.77763 0.0
C1301 C 0.46556 0.7779 0.75574 0.0
C1302 C 0.44878 0.78356 0.7562 0.0
H1303 H 0.40923 0.78219 0.86044 0.0
H1304 H 0.42767 0.77655 0.83527 0.0
H1305 H 0.43799 0.80345 0.85472 0.0
H1306 H 0.47043 0.8243 0.81642 0.0
H1307 H 0.49991 0.81435 0.81593 0.0
H1308 H 0.50647 0.34175 0.26861 0.0
H1309 H 0.53993 0.37895 0.27078 0.0
H1310 H 0.58093 0.34883 0.28618 0.0
H1311 H 0.54775 0.3117 0.28433 0.0
H1312 H 0.59022 0.38504 0.33071 0.0
H1313 H 0.58826 0.40609 0.19526 0.0
H1314 H 0.56308 0.39731 0.2193 0.0
H1315 H 0.57255 0.37783 0.2111 0.0
C1316 C 0.5226 0.34303 0.27254 0.0
C1317 C 0.52442 0.32371 0.27618 0.0
C1318 C 0.54169 0.3643 0.2736 0.0
C1319 C 0.56288 0.36658 0.27829 0.0
C1320 C 0.5647 0.34739 0.28246 0.0
H1321 H 0.69741 0.46431 0.23962 0.0
H1322 H 0.65858 0.43413 0.23937 0.0
C1323 C 0.5457 0.32617 0.28132 0.0
C1324 C 0.58334 0.38887 0.27884 0.0
H1325 H 0.61801 0.43279 0.22831 0.0
C1326 C 0.59622 0.39565 0.30849 0.0
C1327 C 0.59109 0.40251 0.24967 0.0
C1328 C 0.57818 0.39561 0.21688 0.0
C1329 C 0.61702 0.41545 0.30952 0.0
C1330 C 0.62494 0.42897 0.2802 0.0
C1331 C 0.61177 0.42247 0.2508 0.0
C1332 C 0.64784 0.44858 0.27854 0.0
C1333 C 0.6308 0.42114 0.34144 0.0
C1334 C 0.65455 0.46705 0.30001 0.0
C1335 C 0.67687 0.48436 0.30039 0.0
C1336 C 0.69276 0.48348 0.27915 0.0
C1337 C 0.68567 0.46545 0.25652 0.0
C1338 C 0.66344 0.4482 0.25624 0.0
H1339 H 0.62419 0.40683 0.35935 0.0
H1340 H 0.64846 0.42633 0.33548 0.0
H1341 H 0.63059 0.4353 0.35436 0.0
H1342 H 0.64265 0.46786 0.31696 0.0
H1343 H 0.68175 0.49809 0.3179 0.0
H1344 H 0.16466 0.50675 0.77713 0.0
H1345 H 0.16105 0.54037 0.77594 0.0
H1346 H 0.23257 0.58154 0.76591 0.0
H1347 H 0.23644 0.54832 0.76723 0.0
H1348 H 0.18497 0.58086 0.82142 0.0
H1349 H 0.20385 0.59847 0.68471 0.0
H1350 H 0.19392 0.57107 0.70287 0.0
H1351 H 0.22273 0.59238 0.70748 0.0
C1352 C 0.17962 0.52296 0.77472 0.0
C1353 C 0.20084 0.52482 0.77218 0.0
C1354 C 0.17751 0.54211 0.77406 0.0
C1355 C 0.19652 0.56332 0.77043 0.0
C1356 C 0.21768 0.56525 0.7683 0.0
H1357 H 0.24723 0.7016 0.76155 0.0
H1358 H 0.23744 0.66253 0.75925 0.0
C1359 C 0.21984 0.54622 0.7692 0.0
C1360 C 0.19465 0.58372 0.76914 0.0
H1361 H 0.20666 0.62837 0.71858 0.0
C1362 C 0.18928 0.59112 0.79885 0.0
C1363 C 0.20022 0.59692 0.73957 0.0
C1364 C 0.20533 0.58927 0.70671 0.0
C1365 C 0.1908 0.61219 0.80034 0.0
C1366 C 0.19746 0.62589 0.77113 0.0
C1367 C 0.20163 0.61787 0.74096 0.0
C1368 C 0.20263 0.64946 0.77216 0.0
C1369 C 0.18659 0.62015 0.83362 0.0
C1370 C 0.18621 0.65513 0.77986 0.0
C1371 C 0.19181 0.67763 0.78141 0.0
C1372 C 0.21387 0.69475 0.77503 0.0
C1373 C 0.23009 0.68889 0.7667 0.0
C1374 C 0.22452 0.66653 0.7653 0.0
H1375 H 0.18554 0.60924 0.85503 0.0
H1376 H 0.20006 0.63751 0.83906 0.0
H1377 H 0.17052 0.62012 0.83221 0.0
H1378 H 0.16911 0.64219 0.78463 0.0
H1379 H 0.1789 0.68158 0.78768 0.0
H1380 H 0.52008 0.20761 0.3408 0.0
H1381 H 0.55136 0.20046 0.33793 0.0
H1382 H 0.56608 0.22695 0.2365 0.0
H1383 H 0.53453 0.23363 0.23877 0.0
H1384 H 0.57063 0.18988 0.2436 0.0
H1385 H 0.61561 0.25118 0.34616 0.0
H1386 H 0.5884 0.22891 0.35795 0.0
H1387 H 0.59099 0.24863 0.32604 0.0
C1388 C 0.52982 0.21169 0.31774 0.0
C1389 C 0.52498 0.22146 0.29017 0.0
C1390 C 0.54777 0.20771 0.31623 0.0
C1391 C 0.56136 0.21367 0.28731 0.0
C1392 C 0.55589 0.22237 0.25915 0.0
H1393 H 0.69851 0.24589 0.27129 0.0
H1394 H 0.66287 0.24522 0.27426 0.0
C1395 C 0.53786 0.2262 0.26053 0.0
C1396 C 0.58186 0.21182 0.28677 0.0
H1397 H 0.63256 0.23124 0.32511 0.0
C1398 C 0.58416 0.19884 0.26147 0.0
C1399 C 0.59962 0.22384 0.30981 0.0
C1400 C 0.59871 0.2391 0.33633 0.0
C1401 C 0.60378 0.19758 0.25853 0.0
C1402 C 0.62136 0.20927 0.28197 0.0
C1403 C 0.61899 0.22215 0.30735 0.0
C1404 C 0.64282 0.20928 0.2798 0.0
C1405 C 0.60579 0.18436 0.22971 0.0
C1406 C 0.64342 0.18931 0.28223 0.0
C1407 C 0.66381 0.1896 0.28031 0.0
C1408 C 0.684 0.20994 0.27634 0.0
C1409 C 0.68331 0.22993 0.27437 0.0
C1410 C 0.66294 0.22959 0.27607 0.0
H1411 H 0.59349 0.18128 0.20932 0.0
H1412 H 0.62286 0.19317 0.21866 0.0
H1413 H 0.60252 0.16788 0.23929 0.0
H1414 H 0.62815 0.1735 0.28589 0.0
H1415 H 0.66373 0.17391 0.28214 0.0
H1416 H 0.49262 0.65802 0.77942 0.0
H1417 H 0.45909 0.62073 0.77928 0.0
H1418 H 0.4179 0.65048 0.76259 0.0
H1419 H 0.45106 0.68768 0.76294 0.0
H1420 H 0.41689 0.60631 0.82373 0.0
H1421 H 0.40357 0.60166 0.68467 0.0
H1422 H 0.43062 0.61919 0.70388 0.0
H1423 H 0.4099 0.62765 0.70447 0.0
C1424 C 0.47642 0.65663 0.77577 0.0
C1425 C 0.47454 0.67585 0.77115 0.0
C1426 C 0.45733 0.63533 0.77573 0.0
C1427 C 0.43615 0.63295 0.77062 0.0
C1428 C 0.43418 0.65204 0.76627 0.0
H1429 H 0.29837 0.54257 0.7535 0.0
H1430 H 0.33727 0.57229 0.75166 0.0
C1431 C 0.45316 0.67329 0.7666 0.0
C1432 C 0.41583 0.61062 0.77004 0.0
H1433 H 0.37323 0.57528 0.71822 0.0
C1434 C 0.40745 0.59922 0.80067 0.0
C1435 C 0.40371 0.60158 0.73984 0.0
C1436 C 0.41241 0.613 0.70622 0.0
C1437 C 0.38646 0.57959 0.8022 0.0
C1438 C 0.37388 0.57099 0.77211 0.0
C1439 C 0.38287 0.58189 0.74125 0.0
C1440 C 0.35044 0.55222 0.77246 0.0
C1441 C 0.37741 0.56901 0.83623 0.0
C1442 C 0.34489 0.53087 0.78432 0.0
C1443 C 0.32248 0.51375 0.7857 0.0
C1444 C 0.30533 0.51769 0.7749 0.0
C1445 C 0.3111 0.53893 0.76214 0.0
C1446 C 0.33338 0.55597 0.76099 0.0
H1447 H 0.38719 0.5802 0.85744 0.0
H1448 H 0.35966 0.56462 0.83903 0.0
H1449 H 0.37819 0.5534 0.83841 0.0
H1450 H 0.35784 0.52748 0.79263 0.0
H1451 H 0.3186 0.49754 0.79542 0.0
H1452 H 0.80412 0.31681 0.33645 0.0
H1453 H 0.81149 0.35531 0.33338 0.0
H1454 H 0.7835 0.34297 0.23288 0.0
H1455 H 0.77659 0.30468 0.23534 0.0
H1456 H 0.82054 0.38508 0.23943 0.0
H1457 H 0.75979 0.36741 0.34353 0.0
H1458 H 0.78259 0.36304 0.35427 0.0
H1459 H 0.76259 0.34566 0.32284 0.0
C1460 C 0.79982 0.32237 0.3135 0.0
C1461 C 0.78946 0.30757 0.28634 0.0
C1462 C 0.80394 0.34435 0.31187 0.0
C1463 C 0.79753 0.35181 0.28323 0.0
C1464 C 0.78842 0.33749 0.25532 0.0
H1465 H 0.75937 0.45187 0.26691 0.0
H1466 H 0.76237 0.41819 0.27001 0.0
C1467 C 0.78445 0.31559 0.25681 0.0
C1468 C 0.79893 0.37394 0.28297 0.0
H1469 H 0.77816 0.40399 0.32152 0.0
C1470 C 0.8114 0.38932 0.25747 0.0
C1471 C 0.78669 0.37924 0.30626 0.0
C1472 C 0.77199 0.36293 0.3331 0.0
C1473 C 0.8118 0.4098 0.25442 0.0
C1474 C 0.79973 0.41516 0.27793 0.0
C1475 C 0.78751 0.39989 0.30367 0.0
C1476 C 0.7984 0.43589 0.27529 0.0
C1477 C 0.82445 0.42511 0.22537 0.0
C1478 C 0.81768 0.45707 0.27739 0.0
C1479 C 0.81605 0.47644 0.27539 0.0
C1480 C 0.79506 0.47495 0.27167 0.0
C1481 C 0.7758 0.45367 0.26983 0.0
C1482 C 0.77747 0.43437 0.27161 0.0
H1483 H 0.82819 0.41624 0.20521 0.0
H1484 H 0.81485 0.43247 0.21408 0.0
H1485 H 0.84059 0.439 0.2348 0.0
H1486 H 0.83395 0.45863 0.28097 0.0
H1487 H 0.8312 0.49256 0.27711 0.0
loop_
_geom_bond_atom_site_label_1
_geom_bond_atom_site_label_2
_geom_bond_distance
_geom_bond_site_symmetry_2
_ccdc_geom_bond_type
Co0 O3 1.970 . S
Co0 N17 1.989 . S
Co0 O25 1.967 . S
Co0 O32 1.920 . S
Co1 O4 1.966 . S
Co1 N10 2.022 . S
Co1 N18 1.993 . S
Co1 O26 1.941 . S
C2 O3 1.258 . S
C2 O4 1.263 . S
O3 Co0 1.970 . S
O3 C2 1.258 . S
O4 Co1 1.966 . S
O4 C2 1.263 . S
C5 O6 1.235 . S
C5 O32 1.289 . S
O6 C5 1.235 . S
C7 C9 1.400 . S
C7 N10 1.351 . S
C7 C12 1.501 . S
C8 C9 1.387 . S
C8 N11 1.341 . S
C9 C7 1.400 . S
C9 C8 1.387 . S
N10 Co1 2.022 . S
N10 C7 1.351 . S
N10 N11 1.365 . S
N11 C8 1.341 . S
N11 N10 1.365 . S
N11 H31 0.862 . S
C12 C7 1.501 . S
C12 H13 0.961 . S
C12 H14 0.961 . S
C12 H15 0.960 . S
H13 C12 0.961 . S
H14 C12 0.961 . S
H15 C12 0.960 . S
C16 N17 1.342 . S
C16 C20 1.401 . S
C16 C21 1.499 . S
N17 Co0 1.989 . S
N17 C16 1.342 . S
N17 N18 1.388 . S
N18 Co1 1.993 . S
N18 N17 1.388 . S
N18 C19 1.346 . S
C19 N18 1.346 . S
C19 C20 1.396 . S
C19 C29 1.510 . S
C20 C16 1.401 . S
C20 C19 1.396 . S
C21 C16 1.499 . S
C21 H22 0.959 . S
C21 H23 0.960 . S
C21 H24 0.961 . S
H22 C21 0.959 . S
H23 C21 0.960 . S
H24 C21 0.961 . S
O25 Co0 1.967 . S
O25 C33 1.258 . S
O26 Co1 1.941 . S
O26 C33 1.266 . S
H27 C29 0.959 . S
H28 C29 0.961 . S
C29 C19 1.510 . S
C29 H27 0.959 . S
C29 H28 0.961 . S
C29 H30 0.960 . S
H30 C29 0.960 . S
H31 N11 0.862 . S
O32 Co0 1.920 . S
O32 C5 1.289 . S
C33 O25 1.258 . S
C33 O26 1.266 . S
Co34 O37 1.970 . S
Co34 N51 1.989 . S
Co34 O59 1.967 . S
Co34 O66 1.920 . S
Co35 O38 1.966 . S
Co35 N44 2.022 . S
Co35 N52 1.993 . S
Co35 O60 1.941 . S
C36 O37 1.258 . S
C36 O38 1.263 . S
O37 Co34 1.970 . S
O37 C36 1.258 . S
O38 Co35 1.966 . S
O38 C36 1.263 . S
C39 O40 1.235 . S
C39 O66 1.289 . S
O40 C39 1.235 . S
C41 C43 1.400 . S
C41 N44 1.351 . S
C41 C46 1.501 . S
C42 C43 1.387 . S
C42 N45 1.341 . S
C43 C41 1.400 . S
C43 C42 1.387 . S
N44 Co35 2.022 . S
N44 C41 1.351 . S
N44 N45 1.365 . S
N45 C42 1.341 . S
N45 N44 1.365 . S
N45 H65 0.862 . S
C46 C41 1.501 . S
C46 H47 0.961 . S
C46 H48 0.961 . S
C46 H49 0.960 . S
H47 C46 0.961 . S
H48 C46 0.961 . S
H49 C46 0.960 . S
C50 N51 1.342 . S
C50 C54 1.401 . S
C50 C55 1.499 . S
N51 Co34 1.989 . S
N51 C50 1.342 . S
N51 N52 1.388 . S
N52 Co35 1.993 . S
N52 N51 1.388 . S
N52 C53 1.346 . S
C53 N52 1.346 . S
C53 C54 1.396 . S
C53 C63 1.510 . S
C54 C50 1.401 . S
C54 C53 1.396 . S
C55 C50 1.499 . S
C55 H56 0.959 . S
C55 H57 0.960 . S
C55 H58 0.961 . S
H56 C55 0.959 . S
H57 C55 0.960 . S
H58 C55 0.961 . S
O59 Co34 1.967 . S
O59 C67 1.258 . S
O60 Co35 1.941 . S
O60 C67 1.266 . S
H61 C63 0.959 . S
H62 C63 0.961 . S
C63 C53 1.510 . S
C63 H61 0.959 . S
C63 H62 0.961 . S
C63 H64 0.960 . S
H64 C63 0.960 . S
H65 N45 0.862 . S
O66 Co34 1.920 . S
O66 C39 1.289 . S
C67 O59 1.258 . S
C67 O60 1.266 . S
Co68 O71 1.970 . S
Co68 N85 1.989 . S
Co68 O93 1.967 . S
Co68 O100 1.920 . S
Co69 O72 1.966 . S
Co69 N78 2.022 . S
Co69 N86 1.993 . S
Co69 O94 1.941 . S
C70 O71 1.258 . S
C70 O72 1.263 . S
O71 Co68 1.970 . S
O71 C70 1.258 . S
O72 Co69 1.966 . S
O72 C70 1.263 . S
C73 O74 1.235 . S
C73 O100 1.289 . S
O74 C73 1.235 . S
C75 C77 1.400 . S
C75 N78 1.351 . S
C75 C80 1.501 . S
C76 C77 1.387 . S
C76 N79 1.341 . S
C77 C75 1.400 . S
C77 C76 1.387 . S
N78 Co69 2.022 . S
N78 C75 1.351 . S
N78 N79 1.365 . S
N79 C76 1.341 . S
N79 N78 1.365 . S
N79 H99 0.862 . S
C80 C75 1.501 . S
C80 H81 0.961 . S
C80 H82 0.961 . S
C80 H83 0.960 . S
H81 C80 0.961 . S
H82 C80 0.961 . S
H83 C80 0.960 . S
C84 N85 1.342 . S
C84 C88 1.401 . S
C84 C89 1.499 . S
N85 Co68 1.989 . S
N85 C84 1.342 . S
N85 N86 1.388 . S
N86 Co69 1.993 . S
N86 N85 1.388 . S
N86 C87 1.346 . S
C87 N86 1.346 . S
C87 C88 1.396 . S
C87 C97 1.510 . S
C88 C84 1.401 . S
C88 C87 1.396 . S
C89 C84 1.499 . S
C89 H90 0.959 . S
C89 H91 0.960 . S
C89 H92 0.961 . S
H90 C89 0.959 . S
H91 C89 0.960 . S
H92 C89 0.961 . S
O93 Co68 1.967 . S
O93 C101 1.258 . S
O94 Co69 1.941 . S
O94 C101 1.266 . S
H95 C97 0.959 . S
H96 C97 0.961 . S
C97 C87 1.510 . S
C97 H95 0.959 . S
C97 H96 0.961 . S
C97 H98 0.960 . S
H98 C97 0.960 . S
H99 N79 0.862 . S
O100 Co68 1.920 . S
O100 C73 1.289 . S
C101 O93 1.258 . S
C101 O94 1.266 . S
Co102 O105 1.970 . S
Co102 N119 1.989 . S
Co102 O127 1.967 . S
Co102 O134 1.920 . S
Co103 O106 1.966 . S
Co103 N112 2.022 . S
Co103 N120 1.993 . S
Co103 O128 1.941 . S
C104 O105 1.258 . S
C104 O106 1.263 . S
O105 Co102 1.970 . S
O105 C104 1.258 . S
O106 Co103 1.966 . S
O106 C104 1.263 . S
C107 O108 1.235 . S
C107 O134 1.289 . S
O108 C107 1.235 . S
C109 C111 1.400 . S
C109 N112 1.351 . S
C109 C114 1.501 . S
C110 C111 1.387 . S
C110 N113 1.341 . S
C111 C109 1.400 . S
C111 C110 1.387 . S
N112 Co103 2.022 . S
N112 C109 1.351 . S
N112 N113 1.365 . S
N113 C110 1.341 . S
N113 N112 1.365 . S
N113 H133 0.862 . S
C114 C109 1.501 . S
C114 H115 0.961 . S
C114 H116 0.961 . S
C114 H117 0.960 . S
H115 C114 0.961 . S
H116 C114 0.961 . S
H117 C114 0.960 . S
C118 N119 1.342 . S
C118 C122 1.401 . S
C118 C123 1.499 . S
N119 Co102 1.989 . S
N119 C118 1.342 . S
N119 N120 1.388 . S
N120 Co103 1.993 . S
N120 N119 1.388 . S
N120 C121 1.346 . S
C121 N120 1.346 . S
C121 C122 1.396 . S
C121 C131 1.510 . S
C122 C118 1.401 . S
C122 C121 1.396 . S
C123 C118 1.499 . S
C123 H124 0.959 . S
C123 H125 0.960 . S
C123 H126 0.961 . S
H124 C123 0.959 . S
H125 C123 0.960 . S
H126 C123 0.961 . S
O127 Co102 1.967 . S
O127 C135 1.258 . S
O128 Co103 1.941 . S
O128 C135 1.266 . S
H129 C131 0.959 . S
H130 C131 0.961 . S
C131 C121 1.510 . S
C131 H129 0.959 . S
C131 H130 0.961 . S
C131 H132 0.960 . S
H132 C131 0.960 . S
H133 N113 0.862 . S
O134 Co102 1.920 . S
O134 C107 1.289 . S
C135 O127 1.258 . S
C135 O128 1.266 . S
Co136 O139 1.970 . S
Co136 N153 1.989 . S
Co136 O161 1.967 . S
Co136 O168 1.920 . S
Co137 O140 1.966 . S
Co137 N146 2.022 . S
Co137 N154 1.993 . S
Co137 O162 1.941 . S
C138 O139 1.258 . S
C138 O140 1.263 . S
O139 Co136 1.970 . S
O139 C138 1.258 . S
O140 Co137 1.966 . S
O140 C138 1.263 . S
C141 O142 1.235 . S
C141 O168 1.289 . S
O142 C141 1.235 . S
C143 C145 1.400 . S
C143 N146 1.351 . S
C143 C148 1.501 . S
C144 C145 1.387 . S
C144 N147 1.341 . S
C145 C143 1.400 . S
C145 C144 1.387 . S
N146 Co137 2.022 . S
N146 C143 1.351 . S
N146 N147 1.365 . S
N147 C144 1.341 . S
N147 N146 1.365 . S
N147 H167 0.862 . S
C148 C143 1.501 . S
C148 H149 0.961 . S
C148 H150 0.961 . S
C148 H151 0.960 . S
H149 C148 0.961 . S
H150 C148 0.961 . S
H151 C148 0.960 . S
C152 N153 1.342 . S
C152 C156 1.401 . S
C152 C157 1.499 . S
N153 Co136 1.989 . S
N153 C152 1.342 . S
N153 N154 1.388 . S
N154 Co137 1.993 . S
N154 N153 1.388 . S
N154 C155 1.346 . S
C155 N154 1.346 . S
C155 C156 1.396 . S
C155 C165 1.510 . S
C156 C152 1.401 . S
C156 C155 1.396 . S
C157 C152 1.499 . S
C157 H158 0.959 . S
C157 H159 0.960 . S
C157 H160 0.961 . S
H158 C157 0.959 . S
H159 C157 0.960 . S
H160 C157 0.961 . S
O161 Co136 1.967 . S
O161 C169 1.258 . S
O162 Co137 1.941 . S
O162 C169 1.266 . S
H163 C165 0.959 . S
H164 C165 0.961 . S
C165 C155 1.510 . S
C165 H163 0.959 . S
C165 H164 0.961 . S
C165 H166 0.960 . S
H166 C165 0.960 . S
H167 N147 0.862 . S
O168 Co136 1.920 . S
O168 C141 1.289 . S
C169 O161 1.258 . S
C169 O162 1.266 . S
Co170 O173 1.970 . S
Co170 N187 1.989 . S
Co170 O195 1.967 . S
Co170 O202 1.920 . S
Co171 O174 1.966 . S
Co171 N180 2.022 . S
Co171 N188 1.993 . S
Co171 O196 1.941 . S
C172 O173 1.258 . S
C172 O174 1.263 . S
O173 Co170 1.970 . S
O173 C172 1.258 . S
O174 Co171 1.966 . S
O174 C172 1.263 . S
C175 O176 1.235 . S
C175 O202 1.289 . S
O176 C175 1.235 . S
C177 C179 1.400 . S
C177 N180 1.351 . S
C177 C182 1.501 . S
C178 C179 1.387 . S
C178 N181 1.341 . S
C179 C177 1.400 . S
C179 C178 1.387 . S
N180 Co171 2.022 . S
N180 C177 1.351 . S
N180 N181 1.365 . S
N181 C178 1.341 . S
N181 N180 1.365 . S
N181 H201 0.862 . S
C182 C177 1.501 . S
C182 H183 0.961 . S
C182 H184 0.961 . S
C182 H185 0.960 . S
H183 C182 0.961 . S
H184 C182 0.961 . S
H185 C182 0.960 . S
C186 N187 1.342 . S
C186 C190 1.401 . S
C186 C191 1.499 . S
N187 Co170 1.989 . S
N187 C186 1.342 . S
N187 N188 1.388 . S
N188 Co171 1.993 . S
N188 N187 1.388 . S
N188 C189 1.346 . S
C189 N188 1.346 . S
C189 C190 1.396 . S
C189 C199 1.510 . S
C190 C186 1.401 . S
C190 C189 1.396 . S
C191 C186 1.499 . S
C191 H192 0.959 . S
C191 H193 0.960 . S
C191 H194 0.961 . S
H192 C191 0.959 . S
H193 C191 0.960 . S
H194 C191 0.961 . S
O195 Co170 1.967 . S
O195 C203 1.258 . S
O196 Co171 1.941 . S
O196 C203 1.266 . S
H197 C199 0.959 . S
H198 C199 0.961 . S
C199 C189 1.510 . S
C199 H197 0.959 . S
C199 H198 0.961 . S
C199 H200 0.960 . S
H200 C199 0.960 . S
H201 N181 0.862 . S
O202 Co170 1.920 . S
O202 C175 1.289 . S
C203 O195 1.258 . S
C203 O196 1.266 . S
Co204 O207 1.970 . S
Co204 N221 1.989 . S
Co204 O229 1.967 . S
Co204 O236 1.920 . S
Co205 O208 1.966 . S
Co205 N214 2.022 . S
Co205 N222 1.993 . S
Co205 O230 1.941 . S
C206 O207 1.258 . S
C206 O208 1.263 . S
O207 Co204 1.970 . S
O207 C206 1.258 . S
O208 Co205 1.966 . S
O208 C206 1.263 . S
C209 O210 1.235 . S
C209 O236 1.289 . S
O210 C209 1.235 . S
C211 C213 1.400 . S
C211 N214 1.351 . S
C211 C216 1.501 . S
C212 C213 1.387 . S
C212 N215 1.341 . S
C213 C211 1.400 . S
C213 C212 1.387 . S
N214 Co205 2.022 . S
N214 C211 1.351 . S
N214 N215 1.365 . S
N215 C212 1.341 . S
N215 N214 1.365 . S
N215 H235 0.862 . S
C216 C211 1.501 . S
C216 H217 0.961 . S
C216 H218 0.961 . S
C216 H219 0.960 . S
H217 C216 0.961 . S
H218 C216 0.961 . S
H219 C216 0.960 . S
C220 N221 1.342 . S
C220 C224 1.401 . S
C220 C225 1.499 . S
N221 Co204 1.989 . S
N221 C220 1.342 . S
N221 N222 1.388 . S
N222 Co205 1.993 . S
N222 N221 1.388 . S
N222 C223 1.346 . S
C223 N222 1.346 . S
C223 C224 1.396 . S
C223 C233 1.510 . S
C224 C220 1.401 . S
C224 C223 1.396 . S
C225 C220 1.499 . S
C225 H226 0.959 . S
C225 H227 0.960 . S
C225 H228 0.961 . S
H226 C225 0.959 . S
H227 C225 0.960 . S
H228 C225 0.961 . S
O229 Co204 1.967 . S
O229 C237 1.258 . S
O230 Co205 1.941 . S
O230 C237 1.266 . S
H231 C233 0.959 . S
H232 C233 0.961 . S
C233 C223 1.510 . S
C233 H231 0.959 . S
C233 H232 0.961 . S
C233 H234 0.960 . S
H234 C233 0.960 . S
H235 N215 0.862 . S
O236 Co204 1.920 . S
O236 C209 1.289 . S
C237 O229 1.258 . S
C237 O230 1.266 . S
Co238 O241 1.970 . S
Co238 N255 1.989 . S
Co238 O263 1.967 . S
Co238 O270 1.920 . S
Co239 O242 1.966 . S
Co239 N248 2.022 . S
Co239 N256 1.993 . S
Co239 O264 1.941 . S
C240 O241 1.258 . S
C240 O242 1.263 . S
O241 Co238 1.970 . S
O241 C240 1.258 . S
O242 Co239 1.966 . S
O242 C240 1.263 . S
C243 O244 1.235 . S
C243 O270 1.289 . S
O244 C243 1.235 . S
C245 C247 1.400 . S
C245 N248 1.351 . S
C245 C250 1.501 . S
C246 C247 1.387 . S
C246 N249 1.341 . S
C247 C245 1.400 . S
C247 C246 1.387 . S
N248 Co239 2.022 . S
N248 C245 1.351 . S
N248 N249 1.365 . S
N249 C246 1.341 . S
N249 N248 1.365 . S
N249 H269 0.862 . S
C250 C245 1.501 . S
C250 H251 0.961 . S
C250 H252 0.961 . S
C250 H253 0.960 . S
H251 C250 0.961 . S
H252 C250 0.961 . S
H253 C250 0.960 . S
C254 N255 1.342 . S
C254 C258 1.401 . S
C254 C259 1.499 . S
N255 Co238 1.989 . S
N255 C254 1.342 . S
N255 N256 1.388 . S
N256 Co239 1.993 . S
N256 N255 1.388 . S
N256 C257 1.346 . S
C257 N256 1.346 . S
C257 C258 1.396 . S
C257 C267 1.510 . S
C258 C254 1.401 . S
C258 C257 1.396 . S
C259 C254 1.499 . S
C259 H260 0.959 . S
C259 H261 0.960 . S
C259 H262 0.961 . S
H260 C259 0.959 . S
H261 C259 0.960 . S
H262 C259 0.961 . S
O263 Co238 1.967 . S
O263 C271 1.258 . S
O264 Co239 1.941 . S
O264 C271 1.266 . S
H265 C267 0.959 . S
H266 C267 0.961 . S
C267 C257 1.510 . S
C267 H265 0.959 . S
C267 H266 0.961 . S
C267 H268 0.960 . S
H268 C267 0.960 . S
H269 N249 0.862 . S
O270 Co238 1.920 . S
O270 C243 1.289 . S
C271 O263 1.258 . S
C271 O264 1.266 . S
Co272 O275 1.970 . S
Co272 N289 1.989 . S
Co272 O297 1.967 . S
Co272 O304 1.920 . S
Co273 O276 1.966 . S
Co273 N282 2.022 . S
Co273 N290 1.993 . S
Co273 O298 1.941 . S
C274 O275 1.258 . S
C274 O276 1.263 . S
O275 Co272 1.970 . S
O275 C274 1.258 . S
O276 Co273 1.966 . S
O276 C274 1.263 . S
C277 O278 1.235 . S
C277 O304 1.289 . S
O278 C277 1.235 . S
C279 C281 1.400 . S
C279 N282 1.351 . S
C279 C284 1.501 . S
C280 C281 1.387 . S
C280 N283 1.341 . S
C281 C279 1.400 . S
C281 C280 1.387 . S
N282 Co273 2.022 . S
N282 C279 1.351 . S
N282 N283 1.365 . S
N283 C280 1.341 . S
N283 N282 1.365 . S
N283 H303 0.862 . S
C284 C279 1.501 . S
C284 H285 0.961 . S
C284 H286 0.961 . S
C284 H287 0.960 . S
H285 C284 0.961 . S
H286 C284 0.961 . S
H287 C284 0.960 . S
C288 N289 1.342 . S
C288 C292 1.401 . S
C288 C293 1.499 . S
N289 Co272 1.989 . S
N289 C288 1.342 . S
N289 N290 1.388 . S
N290 Co273 1.993 . S
N290 N289 1.388 . S
N290 C291 1.346 . S
C291 N290 1.346 . S
C291 C292 1.396 . S
C291 C301 1.510 . S
C292 C288 1.401 . S
C292 C291 1.396 . S
C293 C288 1.499 . S
C293 H294 0.959 . S
C293 H295 0.960 . S
C293 H296 0.961 . S
H294 C293 0.959 . S
H295 C293 0.960 . S
H296 C293 0.961 . S
O297 Co272 1.967 . S
O297 C305 1.258 . S
O298 Co273 1.941 . S
O298 C305 1.266 . S
H299 C301 0.959 . S
H300 C301 0.961 . S
C301 C291 1.510 . S
C301 H299 0.959 . S
C301 H300 0.961 . S
C301 H302 0.960 . S
H302 C301 0.960 . S
H303 N283 0.862 . S
O304 Co272 1.920 . S
O304 C277 1.289 . S
C305 O297 1.258 . S
C305 O298 1.266 . S
Co306 O309 1.970 . S
Co306 N323 1.989 . S
Co306 O331 1.967 . S
Co306 O338 1.920 . S
Co307 O310 1.966 . S
Co307 N316 2.022 . S
Co307 N324 1.993 . S
Co307 O332 1.941 . S
C308 O309 1.258 . S
C308 O310 1.263 . S
O309 Co306 1.970 . S
O309 C308 1.258 . S
O310 Co307 1.966 . S
O310 C308 1.263 . S
C311 O312 1.235 . S
C311 O338 1.289 . S
O312 C311 1.235 . S
C313 C315 1.400 . S
C313 N316 1.351 . S
C313 C318 1.501 . S
C314 C315 1.387 . S
C314 N317 1.341 . S
C315 C313 1.400 . S
C315 C314 1.387 . S
N316 Co307 2.022 . S
N316 C313 1.351 . S
N316 N317 1.365 . S
N317 C314 1.341 . S
N317 N316 1.365 . S
N317 H337 0.862 . S
C318 C313 1.501 . S
C318 H319 0.961 . S
C318 H320 0.961 . S
C318 H321 0.960 . S
H319 C318 0.961 . S
H320 C318 0.961 . S
H321 C318 0.960 . S
C322 N323 1.342 . S
C322 C326 1.401 . S
C322 C327 1.499 . S
N323 Co306 1.989 . S
N323 C322 1.342 . S
N323 N324 1.388 . S
N324 Co307 1.993 . S
N324 N323 1.388 . S
N324 C325 1.346 . S
C325 N324 1.346 . S
C325 C326 1.396 . S
C325 C335 1.510 . S
C326 C322 1.401 . S
C326 C325 1.396 . S
C327 C322 1.499 . S
C327 H328 0.959 . S
C327 H329 0.960 . S
C327 H330 0.961 . S
H328 C327 0.959 . S
H329 C327 0.960 . S
H330 C327 0.961 . S
O331 Co306 1.967 . S
O331 C339 1.258 . S
O332 Co307 1.941 . S
O332 C339 1.266 . S
H333 C335 0.959 . S
H334 C335 0.961 . S
C335 C325 1.510 . S
C335 H333 0.959 . S
C335 H334 0.961 . S
C335 H336 0.960 . S
H336 C335 0.960 . S
H337 N317 0.862 . S
O338 Co306 1.920 . S
O338 C311 1.289 . S
C339 O331 1.258 . S
C339 O332 1.266 . S
Co340 O343 1.970 . S
Co340 N357 1.989 . S
Co340 O365 1.967 . S
Co340 O372 1.920 . S
Co341 O344 1.966 . S
Co341 N350 2.022 . S
Co341 N358 1.993 . S
Co341 O366 1.941 . S
C342 O343 1.258 . S
C342 O344 1.263 . S
O343 Co340 1.970 . S
O343 C342 1.258 . S
O344 Co341 1.966 . S
O344 C342 1.263 . S
C345 O346 1.235 . S
C345 O372 1.289 . S
O346 C345 1.235 . S
C347 C349 1.400 . S
C347 N350 1.351 . S
C347 C352 1.501 . S
C348 C349 1.387 . S
C348 N351 1.341 . S
C349 C347 1.400 . S
C349 C348 1.387 . S
N350 Co341 2.022 . S
N350 C347 1.351 . S
N350 N351 1.365 . S
N351 C348 1.341 . S
N351 N350 1.365 . S
N351 H371 0.862 . S
C352 C347 1.501 . S
C352 H353 0.961 . S
C352 H354 0.961 . S
C352 H355 0.960 . S
H353 C352 0.961 . S
H354 C352 0.961 . S
H355 C352 0.960 . S
C356 N357 1.342 . S
C356 C360 1.401 . S
C356 C361 1.499 . S
N357 Co340 1.989 . S
N357 C356 1.342 . S
N357 N358 1.388 . S
N358 Co341 1.993 . S
N358 N357 1.388 . S
N358 C359 1.346 . S
C359 N358 1.346 . S
C359 C360 1.396 . S
C359 C369 1.510 . S
C360 C356 1.401 . S
C360 C359 1.396 . S
C361 C356 1.499 . S
C361 H362 0.959 . S
C361 H363 0.960 . S
C361 H364 0.961 . S
H362 C361 0.959 . S
H363 C361 0.960 . S
H364 C361 0.961 . S
O365 Co340 1.967 . S
O365 C373 1.258 . S
O366 Co341 1.941 . S
O366 C373 1.266 . S
H367 C369 0.959 . S
H368 C369 0.961 . S
C369 C359 1.510 . S
C369 H367 0.959 . S
C369 H368 0.961 . S
C369 H370 0.960 . S
H370 C369 0.960 . S
H371 N351 0.862 . S
O372 Co340 1.920 . S
O372 C345 1.289 . S
C373 O365 1.258 . S
C373 O366 1.266 . S
Co374 O377 1.970 . S
Co374 N391 1.989 . S
Co374 O399 1.967 . S
Co374 O406 1.920 . S
Co375 O378 1.966 . S
Co375 N384 2.022 . S
Co375 N392 1.993 . S
Co375 O400 1.941 . S
C376 O377 1.258 . S
C376 O378 1.263 . S
O377 Co374 1.970 . S
O377 C376 1.258 . S
O378 Co375 1.966 . S
O378 C376 1.263 . S
C379 O380 1.235 . S
C379 O406 1.289 . S
O380 C379 1.235 . S
C381 C383 1.400 . S
C381 N384 1.351 . S
C381 C386 1.501 . S
C382 C383 1.387 . S
C382 N385 1.341 . S
C383 C381 1.400 . S
C383 C382 1.387 . S
N384 Co375 2.022 . S
N384 C381 1.351 . S
N384 N385 1.365 . S
N385 C382 1.341 . S
N385 N384 1.365 . S
N385 H405 0.862 . S
C386 C381 1.501 . S
C386 H387 0.961 . S
C386 H388 0.961 . S
C386 H389 0.960 . S
H387 C386 0.961 . S
H388 C386 0.961 . S
H389 C386 0.960 . S
C390 N391 1.342 . S
C390 C394 1.401 . S
C390 C395 1.499 . S
N391 Co374 1.989 . S
N391 C390 1.342 . S
N391 N392 1.388 . S
N392 Co375 1.993 . S
N392 N391 1.388 . S
N392 C393 1.346 . S
C393 N392 1.346 . S
C393 C394 1.396 . S
C393 C403 1.510 . S
C394 C390 1.401 . S
C394 C393 1.396 . S
C395 C390 1.499 . S
C395 H396 0.959 . S
C395 H397 0.960 . S
C395 H398 0.961 . S
H396 C395 0.959 . S
H397 C395 0.960 . S
H398 C395 0.961 . S
O399 Co374 1.967 . S
O399 C407 1.258 . S
O400 Co375 1.941 . S
O400 C407 1.266 . S
H401 C403 0.959 . S
H402 C403 0.961 . S
C403 C393 1.510 . S
C403 H401 0.959 . S
C403 H402 0.961 . S
C403 H404 0.960 . S
H404 C403 0.960 . S
H405 N385 0.862 . S
O406 Co374 1.920 . S
O406 C379 1.289 . S
C407 O399 1.258 . S
C407 O400 1.266 . S
H408 C416 0.929 . S
H409 C418 0.930 . S
H410 C420 0.930 . S
H411 C423 0.929 . S
H412 C426 0.930 . S
H413 C428 0.960 . S
H414 C428 0.960 . S
H415 C428 0.960 . S
C416 H408 0.929 . S
C416 C417 1.377 . S
C416 C418 1.384 . S
C417 C416 1.377 . S
C417 C423 1.390 . S
C418 H409 0.930 . S
C418 C416 1.384 . S
C418 C419 1.372 . S
C419 C418 1.372 . S
C419 C420 1.400 . S
C419 C424 1.490 . S
C420 H410 0.930 . S
C420 C419 1.400 . S
C420 C423 1.386 . S
H421 C437 0.930 . S
H422 C438 0.931 . S
C423 H411 0.929 . S
C423 C417 1.390 . S
C423 C420 1.386 . S
C424 C419 1.490 . S
C424 C426 1.395 . S
C424 C427 1.403 . S
H425 C431 0.930 . S
C426 H412 0.930 . S
C426 C424 1.395 . S
C426 C429 1.403 . S
C427 C424 1.403 . S
C427 C428 1.524 . S
C427 C431 1.400 . S
C428 H413 0.960 . S
C428 H414 0.960 . S
C428 H415 0.960 . S
C428 C427 1.524 . S
C429 C426 1.403 . S
C429 C430 1.392 . S
C429 C433 1.495 . S
C430 C429 1.392 . S
C430 C431 1.385 . S
C430 C432 1.478 . S
C431 H425 0.930 . S
C431 C427 1.400 . S
C431 C430 1.385 . S
C432 C430 1.478 . S
C432 C434 1.381 . S
C432 C438 1.383 . S
C433 C429 1.495 . S
C433 H439 0.959 . S
C433 H440 0.961 . S
C433 H441 0.960 . S
C434 C432 1.381 . S
C434 C435 1.394 . S
C434 H442 0.930 . S
C435 C434 1.394 . S
C435 C436 1.383 . S
C435 H443 0.929 . S
C436 C435 1.383 . S
C436 C437 1.377 . S
C437 H421 0.930 . S
C437 C436 1.377 . S
C437 C438 1.379 . S
C438 H422 0.931 . S
C438 C432 1.383 . S
C438 C437 1.379 . S
H439 C433 0.959 . S
H440 C433 0.961 . S
H441 C433 0.960 . S
H442 C434 0.930 . S
H443 C435 0.929 . S
H444 C452 0.929 . S
H445 C454 0.930 . S
H446 C456 0.930 . S
H447 C459 0.929 . S
H448 C462 0.930 . S
H449 C464 0.960 . S
H450 C464 0.960 . S
H451 C464 0.960 . S
C452 H444 0.929 . S
C452 C453 1.377 . S
C452 C454 1.384 . S
C453 C452 1.377 . S
C453 C459 1.390 . S
C454 H445 0.930 . S
C454 C452 1.384 . S
C454 C455 1.372 . S
C455 C454 1.372 . S
C455 C456 1.400 . S
C455 C460 1.490 . S
C456 H446 0.930 . S
C456 C455 1.400 . S
C456 C459 1.386 . S
H457 C473 0.930 . S
H458 C474 0.931 . S
C459 H447 0.929 . S
C459 C453 1.390 . S
C459 C456 1.386 . S
C460 C455 1.490 . S
C460 C462 1.395 . S
C460 C463 1.403 . S
H461 C467 0.930 . S
C462 H448 0.930 . S
C462 C460 1.395 . S
C462 C465 1.403 1_655 S
C463 C460 1.403 . S
C463 C464 1.524 . S
C463 C467 1.400 1_655 S
C464 H449 0.960 . S
C464 H450 0.960 . S
C464 H451 0.960 . S
C464 C463 1.524 . S
C465 C462 1.403 1_455 S
C465 C466 1.392 . S
C465 C469 1.495 . S
C466 C465 1.392 . S
C466 C467 1.385 . S
C466 C468 1.478 . S
C467 H461 0.930 . S
C467 C463 1.400 1_455 S
C467 C466 1.385 . S
C468 C466 1.478 . S
C468 C470 1.381 . S
C468 C474 1.383 . S
C469 C465 1.495 . S
C469 H475 0.959 . S
C469 H476 0.961 . S
C469 H477 0.960 . S
C470 C468 1.381 . S
C470 C471 1.394 . S
C470 H478 0.930 . S
C471 C470 1.394 . S
C471 C472 1.383 . S
C471 H479 0.929 . S
C472 C471 1.383 . S
C472 C473 1.377 . S
C473 H457 0.930 . S
C473 C472 1.377 . S
C473 C474 1.379 . S
C474 H458 0.931 . S
C474 C468 1.383 . S
C474 C473 1.379 . S
H475 C469 0.959 . S
H476 C469 0.961 . S
H477 C469 0.960 . S
H478 C470 0.930 . S
H479 C471 0.929 . S
H480 C488 0.929 . S
H481 C490 0.930 . S
H482 C492 0.930 . S
H483 C495 0.929 . S
H484 C498 0.930 . S
H485 C500 0.960 . S
H486 C500 0.960 . S
H487 C500 0.960 . S
C488 H480 0.929 . S
C488 C489 1.377 . S
C488 C490 1.384 . S
C489 C488 1.377 . S
C489 C495 1.390 . S
C490 H481 0.930 . S
C490 C488 1.384 . S
C490 C491 1.372 . S
C491 C490 1.372 . S
C491 C492 1.400 . S
C491 C496 1.490 . S
C492 H482 0.930 . S
C492 C491 1.400 . S
C492 C495 1.386 . S
H493 C509 0.930 . S
H494 C510 0.931 . S
C495 H483 0.929 . S
C495 C489 1.390 . S
C495 C492 1.386 . S
C496 C491 1.490 . S
C496 C498 1.395 . S
C496 C499 1.403 . S
H497 C503 0.930 . S
C498 H484 0.930 . S
C498 C496 1.395 . S
C498 C501 1.403 1_545 S
C499 C496 1.403 . S
C499 C500 1.524 . S
C499 C503 1.400 1_545 S
C500 H485 0.960 . S
C500 H486 0.960 . S
C500 H487 0.960 . S
C500 C499 1.524 . S
C501 C498 1.403 1_565 S
C501 C502 1.392 . S
C501 C505 1.495 . S
C502 C501 1.392 . S
C502 C503 1.385 . S
C502 C504 1.478 . S
C503 H497 0.930 . S
C503 C499 1.400 1_565 S
C503 C502 1.385 . S
C504 C502 1.478 . S
C504 C506 1.381 . S
C504 C510 1.383 . S
C505 C501 1.495 . S
C505 H511 0.959 . S
C505 H512 0.961 . S
C505 H513 0.960 . S
C506 C504 1.381 . S
C506 C507 1.394 . S
C506 H514 0.930 . S
C507 C506 1.394 . S
C507 C508 1.383 . S
C507 H515 0.929 . S
C508 C507 1.383 . S
C508 C509 1.377 . S
C509 H493 0.930 . S
C509 C508 1.377 . S
C509 C510 1.379 . S
C510 H494 0.931 . S
C510 C504 1.383 . S
C510 C509 1.379 . S
H511 C505 0.959 . S
H512 C505 0.961 . S
H513 C505 0.960 . S
H514 C506 0.930 . S
H515 C507 0.929 . S
H516 C524 0.929 . S
H517 C526 0.930 . S
H518 C528 0.930 . S
H519 C531 0.929 . S
H520 C534 0.930 . S
H521 C536 0.960 . S
H522 C536 0.960 . S
H523 C536 0.960 . S
C524 H516 0.929 . S
C524 C525 1.377 . S
C524 C526 1.384 . S
C525 C524 1.377 . S
C525 C531 1.390 . S
C526 H517 0.930 . S
C526 C524 1.384 . S
C526 C527 1.372 . S
C527 C526 1.372 . S
C527 C528 1.400 . S
C527 C532 1.490 . S
C528 H518 0.930 . S
C528 C527 1.400 . S
C528 C531 1.386 . S
H529 C545 0.930 . S
H530 C546 0.931 . S
C531 H519 0.929 . S
C531 C525 1.390 . S
C531 C528 1.386 . S
C532 C527 1.490 . S
C532 C534 1.395 . S
C532 C535 1.403 . S
H533 C539 0.930 . S
C534 H520 0.930 . S
C534 C532 1.395 . S
C534 C537 1.403 . S
C535 C532 1.403 . S
C535 C536 1.524 . S
C535 C539 1.400 . S
C536 H521 0.960 . S
C536 H522 0.960 . S
C536 H523 0.960 . S
C536 C535 1.524 . S
C537 C534 1.403 . S
C537 C538 1.392 . S
C537 C541 1.495 . S
C538 C537 1.392 . S
C538 C539 1.385 . S
C538 C540 1.478 . S
C539 H533 0.930 . S
C539 C535 1.400 . S
C539 C538 1.385 . S
C540 C538 1.478 . S
C540 C542 1.381 . S
C540 C546 1.383 . S
C541 C537 1.495 . S
C541 H547 0.959 . S
C541 H548 0.961 . S
C541 H549 0.960 . S
C542 C540 1.381 . S
C542 C543 1.394 . S
C542 H550 0.930 . S
C543 C542 1.394 . S
C543 C544 1.383 . S
C543 H551 0.929 . S
C544 C543 1.383 . S
C544 C545 1.377 . S
C545 H529 0.930 . S
C545 C544 1.377 . S
C545 C546 1.379 . S
C546 H530 0.931 . S
C546 C540 1.383 . S
C546 C545 1.379 . S
H547 C541 0.959 . S
H548 C541 0.961 . S
H549 C541 0.960 . S
H550 C542 0.930 . S
H551 C543 0.929 . S
H552 C560 0.929 . S
H553 C562 0.930 . S
H554 C564 0.930 . S
H555 C567 0.929 . S
H556 C570 0.930 . S
H557 C572 0.960 . S
H558 C572 0.960 . S
H559 C572 0.960 . S
C560 H552 0.929 . S
C560 C561 1.377 . S
C560 C562 1.384 . S
C561 C560 1.377 . S
C561 C567 1.390 . S
C562 H553 0.930 . S
C562 C560 1.384 . S
C562 C563 1.372 . S
C563 C562 1.372 . S
C563 C564 1.400 . S
C563 C568 1.490 . S
C564 H554 0.930 . S
C564 C563 1.400 . S
C564 C567 1.386 . S
H565 C581 0.930 . S
H566 C582 0.931 . S
C567 H555 0.929 . S
C567 C561 1.390 . S
C567 C564 1.386 . S
C568 C563 1.490 . S
C568 C570 1.395 . S
C568 C571 1.403 . S
H569 C575 0.930 . S
C570 H556 0.930 . S
C570 C568 1.395 . S
C570 C573 1.403 1_455 S
C571 C568 1.403 . S
C571 C572 1.524 . S
C571 C575 1.400 1_455 S
C572 H557 0.960 . S
C572 H558 0.960 . S
C572 H559 0.960 . S
C572 C571 1.524 . S
C573 C570 1.403 1_655 S
C573 C574 1.392 . S
C573 C577 1.495 . S
C574 C573 1.392 . S
C574 C575 1.385 . S
C574 C576 1.478 . S
C575 H569 0.930 . S
C575 C571 1.400 1_655 S
C575 C574 1.385 . S
C576 C574 1.478 . S
C576 C578 1.381 . S
C576 C582 1.383 . S
C577 C573 1.495 . S
C577 H583 0.959 . S
C577 H584 0.961 . S
C577 H585 0.960 . S
C578 C576 1.381 . S
C578 C579 1.394 . S
C578 H586 0.930 . S
C579 C578 1.394 . S
C579 C580 1.383 . S
C579 H587 0.929 . S
C580 C579 1.383 . S
C580 C581 1.377 . S
C581 H565 0.930 . S
C581 C580 1.377 . S
C581 C582 1.379 . S
C582 H566 0.931 . S
C582 C576 1.383 . S
C582 C581 1.379 . S
H583 C577 0.959 . S
H584 C577 0.961 . S
H585 C577 0.960 . S
H586 C578 0.930 . S
H587 C579 0.929 . S
H588 C596 0.929 . S
H589 C598 0.930 . S
H590 C600 0.930 . S
H591 C603 0.929 . S
H592 C606 0.930 . S
H593 C608 0.960 . S
H594 C608 0.960 . S
H595 C608 0.960 . S
C596 H588 0.929 . S
C596 C597 1.377 . S
C596 C598 1.384 . S
C597 C596 1.377 . S
C597 C603 1.390 . S
C598 H589 0.930 . S
C598 C596 1.384 . S
C598 C599 1.372 . S
C599 C598 1.372 . S
C599 C600 1.400 . S
C599 C604 1.490 . S
C600 H590 0.930 . S
C600 C599 1.400 . S
C600 C603 1.386 . S
H601 C617 0.930 . S
H602 C618 0.931 . S
C603 H591 0.929 . S
C603 C597 1.390 . S
C603 C600 1.386 . S
C604 C599 1.490 . S
C604 C606 1.395 . S
C604 C607 1.403 . S
H605 C611 0.930 . S
C606 H592 0.930 . S
C606 C604 1.395 . S
C606 C609 1.403 1_565 S
C607 C604 1.403 . S
C607 C608 1.524 . S
C607 C611 1.400 1_565 S
C608 H593 0.960 . S
C608 H594 0.960 . S
C608 H595 0.960 . S
C608 C607 1.524 . S
C609 C606 1.403 1_545 S
C609 C610 1.392 . S
C609 C613 1.495 . S
C610 C609 1.392 . S
C610 C611 1.385 . S
C610 C612 1.478 . S
C611 H605 0.930 . S
C611 C607 1.400 1_545 S
C611 C610 1.385 . S
C612 C610 1.478 . S
C612 C614 1.381 . S
C612 C618 1.383 . S
C613 C609 1.495 . S
C613 H619 0.959 . S
C613 H620 0.961 . S
C613 H621 0.960 . S
C614 C612 1.381 . S
C614 C615 1.394 . S
C614 H622 0.930 . S
C615 C614 1.394 . S
C615 C616 1.383 . S
C615 H623 0.929 . S
C616 C615 1.383 . S
C616 C617 1.377 . S
C617 H601 0.930 . S
C617 C616 1.377 . S
C617 C618 1.379 . S
C618 H602 0.931 . S
C618 C612 1.383 . S
C618 C617 1.379 . S
H619 C613 0.959 . S
H620 C613 0.961 . S
H621 C613 0.960 . S
H622 C614 0.930 . S
H623 C615 0.929 . S
H624 C632 0.929 . S
H625 C634 0.930 . S
H626 C636 0.930 . S
H627 C639 0.929 . S
H628 C642 0.930 . S
H629 C644 0.960 . S
H630 C644 0.960 . S
H631 C644 0.960 . S
C632 H624 0.929 . S
C632 C633 1.377 . S
C632 C634 1.384 . S
C633 C632 1.377 . S
C633 C639 1.390 . S
C634 H625 0.930 . S
C634 C632 1.384 . S
C634 C635 1.372 . S
C635 C634 1.372 . S
C635 C636 1.400 . S
C635 C640 1.490 . S
C636 H626 0.930 . S
C636 C635 1.400 . S
C636 C639 1.386 . S
H637 C653 0.930 . S
H638 C654 0.931 . S
C639 H627 0.929 . S
C639 C633 1.390 . S
C639 C636 1.386 . S
C640 C635 1.490 . S
C640 C642 1.395 . S
C640 C643 1.403 . S
H641 C647 0.930 . S
C642 H628 0.930 . S
C642 C640 1.395 . S
C642 C645 1.403 1_556 S
C643 C640 1.403 . S
C643 C644 1.524 . S
C643 C647 1.400 1_556 S
C644 H629 0.960 . S
C644 H630 0.960 . S
C644 H631 0.960 . S
C644 C643 1.524 . S
C645 C642 1.403 1_554 S
C645 C646 1.392 . S
C645 C649 1.495 . S
C646 C645 1.392 . S
C646 C647 1.385 . S
C646 C648 1.478 . S
C647 H641 0.930 . S
C647 C643 1.400 1_554 S
C647 C646 1.385 . S
C648 C646 1.478 . S
C648 C650 1.381 . S
C648 C654 1.383 . S
C649 C645 1.495 . S
C649 H655 0.959 . S
C649 H656 0.961 . S
C649 H657 0.960 . S
C650 C648 1.381 . S
C650 C651 1.394 . S
C650 H658 0.930 . S
C651 C650 1.394 . S
C651 C652 1.383 . S
C651 H659 0.929 . S
C652 C651 1.383 . S
C652 C653 1.377 . S
C653 H637 0.930 . S
C653 C652 1.377 . S
C653 C654 1.379 . S
C654 H638 0.931 . S
C654 C648 1.383 . S
C654 C653 1.379 . S
H655 C649 0.959 . S
H656 C649 0.961 . S
H657 C649 0.960 . S
H658 C650 0.930 . S
H659 C651 0.929 . S
H660 C668 0.929 . S
H661 C670 0.930 . S
H662 C672 0.930 . S
H663 C675 0.929 . S
H664 C678 0.930 . S
H665 C680 0.960 . S
H666 C680 0.960 . S
H667 C680 0.960 . S
C668 H660 0.929 . S
C668 C669 1.377 . S
C668 C670 1.384 . S
C669 C668 1.377 . S
C669 C675 1.390 . S
C670 H661 0.930 . S
C670 C668 1.384 . S
C670 C671 1.372 . S
C671 C670 1.372 . S
C671 C672 1.400 . S
C671 C676 1.490 . S
C672 H662 0.930 . S
C672 C671 1.400 . S
C672 C675 1.386 . S
H673 C689 0.930 . S
H674 C690 0.931 . S
C675 H663 0.929 . S
C675 C669 1.390 . S
C675 C672 1.386 . S
C676 C671 1.490 . S
C676 C678 1.395 . S
C676 C679 1.403 . S
H677 C683 0.930 . S
C678 H664 0.930 . S
C678 C676 1.395 . S
C678 C681 1.403 . S
C679 C676 1.403 . S
C679 C680 1.524 . S
C679 C683 1.400 . S
C680 H665 0.960 . S
C680 H666 0.960 . S
C680 H667 0.960 . S
C680 C679 1.524 . S
C681 C678 1.403 . S
C681 C682 1.392 . S
C681 C685 1.495 . S
C682 C681 1.392 . S
C682 C683 1.385 . S
C682 C684 1.478 . S
C683 H677 0.930 . S
C683 C679 1.400 . S
C683 C682 1.385 . S
C684 C682 1.478 . S
C684 C686 1.381 . S
C684 C690 1.383 . S
C685 C681 1.495 . S
C685 H691 0.959 . S
C685 H692 0.961 . S
C685 H693 0.960 . S
C686 C684 1.381 . S
C686 C687 1.394 . S
C686 H694 0.930 . S
C687 C686 1.394 . S
C687 C688 1.383 . S
C687 H695 0.929 . S
C688 C687 1.383 . S
C688 C689 1.377 . S
C689 H673 0.930 . S
C689 C688 1.377 . S
C689 C690 1.379 . S
C690 H674 0.931 . S
C690 C684 1.383 . S
C690 C689 1.379 . S
H691 C685 0.959 . S
H692 C685 0.961 . S
H693 C685 0.960 . S
H694 C686 0.930 . S
H695 C687 0.929 . S
H696 C704 0.929 . S
H697 C706 0.930 . S
H698 C708 0.930 . S
H699 C711 0.929 . S
H700 C714 0.930 . S
H701 C716 0.960 . S
H702 C716 0.960 . S
H703 C716 0.960 . S
C704 H696 0.929 . S
C704 C705 1.377 . S
C704 C706 1.384 . S
C705 C704 1.377 . S
C705 C711 1.390 . S
C706 H697 0.930 . S
C706 C704 1.384 . S
C706 C707 1.372 . S
C707 C706 1.372 . S
C707 C708 1.400 . S
C707 C712 1.490 . S
C708 H698 0.930 . S
C708 C707 1.400 . S
C708 C711 1.386 . S
H709 C725 0.930 . S
H710 C726 0.931 . S
C711 H699 0.929 . S
C711 C705 1.390 . S
C711 C708 1.386 . S
C712 C707 1.490 . S
C712 C714 1.395 . S
C712 C715 1.403 . S
H713 C719 0.930 . S
C714 H700 0.930 . S
C714 C712 1.395 . S
C714 C717 1.403 1_554 S
C715 C712 1.403 . S
C715 C716 1.524 . S
C715 C719 1.400 1_554 S
C716 H701 0.960 . S
C716 H702 0.960 . S
C716 H703 0.960 . S
C716 C715 1.524 . S
C717 C714 1.403 1_556 S
C717 C718 1.392 . S
C717 C721 1.495 . S
C718 C717 1.392 . S
C718 C719 1.385 . S
C718 C720 1.478 . S
C719 H713 0.930 . S
C719 C715 1.400 1_556 S
C719 C718 1.385 . S
C720 C718 1.478 . S
C720 C722 1.381 . S
C720 C726 1.383 . S
C721 C717 1.495 . S
C721 H727 0.959 . S
C721 H728 0.961 . S
C721 H729 0.960 . S
C722 C720 1.381 . S
C722 C723 1.394 . S
C722 H730 0.930 . S
C723 C722 1.394 . S
C723 C724 1.383 . S
C723 H731 0.929 . S
C724 C723 1.383 . S
C724 C725 1.377 . S
C725 H709 0.930 . S
C725 C724 1.377 . S
C725 C726 1.379 . S
C726 H710 0.931 . S
C726 C720 1.383 . S
C726 C725 1.379 . S
H727 C721 0.959 . S
H728 C721 0.961 . S
H729 C721 0.960 . S
H730 C722 0.930 . S
H731 C723 0.929 . S
H732 C740 0.929 . S
H733 C742 0.930 . S
H734 C744 0.930 . S
H735 C747 0.929 . S
H736 C750 0.930 . S
H737 C752 0.960 . S
H738 C752 0.960 . S
H739 C752 0.960 . S
C740 H732 0.929 . S
C740 C741 1.377 . S
C740 C742 1.384 . S
C741 C740 1.377 . S
C741 C747 1.390 . S
C742 H733 0.930 . S
C742 C740 1.384 . S
C742 C743 1.372 . S
C743 C742 1.372 . S
C743 C744 1.400 . S
C743 C748 1.490 . S
C744 H734 0.930 . S
C744 C743 1.400 . S
C744 C747 1.386 . S
H745 C761 0.930 . S
H746 C762 0.931 . S
C747 H735 0.929 . S
C747 C741 1.390 . S
C747 C744 1.386 . S
C748 C743 1.490 . S
C748 C750 1.395 . S
C748 C751 1.403 . S
H749 C755 0.930 . S
C750 H736 0.930 . S
C750 C748 1.395 . S
C750 C753 1.403 . S
C751 C748 1.403 . S
C751 C752 1.524 . S
C751 C755 1.400 . S
C752 H737 0.960 . S
C752 H738 0.960 . S
C752 H739 0.960 . S
C752 C751 1.524 . S
C753 C750 1.403 . S
C753 C754 1.392 . S
C753 C757 1.495 . S
C754 C753 1.392 . S
C754 C755 1.385 . S
C754 C756 1.478 . S
C755 H749 0.930 . S
C755 C751 1.400 . S
C755 C754 1.385 . S
C756 C754 1.478 . S
C756 C758 1.381 . S
C756 C762 1.383 . S
C757 C753 1.495 . S
C757 H763 0.959 . S
C757 H764 0.961 . S
C757 H765 0.960 . S
C758 C756 1.381 . S
C758 C759 1.394 . S
C758 H766 0.930 . S
C759 C758 1.394 . S
C759 C760 1.383 . S
C759 H767 0.929 . S
C760 C759 1.383 . S
C760 C761 1.377 . S
C761 H745 0.930 . S
C761 C760 1.377 . S
C761 C762 1.379 . S
C762 H746 0.931 . S
C762 C756 1.383 . S
C762 C761 1.379 . S
H763 C757 0.959 . S
H764 C757 0.961 . S
H765 C757 0.960 . S
H766 C758 0.930 . S
H767 C759 0.929 . S
H768 C776 0.929 . S
H769 C778 0.930 . S
H770 C780 0.930 . S
H771 C783 0.929 . S
H772 C786 0.930 . S
H773 C788 0.960 . S
H774 C788 0.960 . S
H775 C788 0.960 . S
C776 H768 0.929 . S
C776 C777 1.377 . S
C776 C778 1.384 . S
C777 C776 1.377 . S
C777 C783 1.390 . S
C778 H769 0.930 . S
C778 C776 1.384 . S
C778 C779 1.372 . S
C779 C778 1.372 . S
C779 C780 1.400 . S
C779 C784 1.490 . S
C780 H770 0.930 . S
C780 C779 1.400 . S
C780 C783 1.386 . S
H781 C797 0.930 . S
H782 C798 0.931 . S
C783 H771 0.929 . S
C783 C777 1.390 . S
C783 C780 1.386 . S
C784 C779 1.490 . S
C784 C786 1.395 . S
C784 C787 1.403 . S
H785 C791 0.930 . S
C786 H772 0.930 . S
C786 C784 1.395 . S
C786 C789 1.403 1_556 S
C787 C784 1.403 . S
C787 C788 1.524 . S
C787 C791 1.400 1_556 S
C788 H773 0.960 . S
C788 H774 0.960 . S
C788 H775 0.960 . S
C788 C787 1.524 . S
C789 C786 1.403 1_554 S
C789 C790 1.392 . S
C789 C793 1.495 . S
C790 C789 1.392 . S
C790 C791 1.385 . S
C790 C792 1.478 . S
C791 H785 0.930 . S
C791 C787 1.400 1_554 S
C791 C790 1.385 . S
C792 C790 1.478 . S
C792 C794 1.381 . S
C792 C798 1.383 . S
C793 C789 1.495 . S
C793 H799 0.959 . S
C793 H800 0.961 . S
C793 H801 0.960 . S
C794 C792 1.381 . S
C794 C795 1.394 . S
C794 H802 0.930 . S
C795 C794 1.394 . S
C795 C796 1.383 . S
C795 H803 0.929 . S
C796 C795 1.383 . S
C796 C797 1.377 . S
C797 H781 0.930 . S
C797 C796 1.377 . S
C797 C798 1.379 . S
C798 H782 0.931 . S
C798 C792 1.383 . S
C798 C797 1.379 . S
H799 C793 0.959 . S
H800 C793 0.961 . S
H801 C793 0.960 . S
H802 C794 0.930 . S
H803 C795 0.929 . S
H804 C812 0.929 . S
H805 C814 0.930 . S
H806 C816 0.930 . S
H807 C819 0.929 . S
H808 C822 0.930 . S
H809 C824 0.960 . S
H810 C824 0.960 . S
H811 C824 0.960 . S
C812 H804 0.929 . S
C812 C813 1.377 . S
C812 C814 1.384 . S
C813 C812 1.377 . S
C813 C819 1.390 . S
C814 H805 0.930 . S
C814 C812 1.384 . S
C814 C815 1.372 . S
C815 C814 1.372 . S
C815 C816 1.400 . S
C815 C820 1.490 . S
C816 H806 0.930 . S
C816 C815 1.400 . S
C816 C819 1.386 . S
H817 C833 0.930 . S
H818 C834 0.931 . S
C819 H807 0.929 . S
C819 C813 1.390 . S
C819 C816 1.386 . S
C820 C815 1.490 . S
C820 C822 1.395 . S
C820 C823 1.403 . S
H821 C827 0.930 . S
C822 H808 0.930 . S
C822 C820 1.395 . S
C822 C825 1.403 . S
C823 C820 1.403 . S
C823 C824 1.524 . S
C823 C827 1.400 . S
C824 H809 0.960 . S
C824 H810 0.960 . S
C824 H811 0.960 . S
C824 C823 1.524 . S
C825 C822 1.403 . S
C825 C826 1.392 . S
C825 C829 1.495 . S
C826 C825 1.392 . S
C826 C827 1.385 . S
C826 C828 1.478 . S
C827 H821 0.930 . S
C827 C823 1.400 . S
C827 C826 1.385 . S
C828 C826 1.478 . S
C828 C830 1.381 . S
C828 C834 1.383 . S
C829 C825 1.495 . S
C829 H835 0.959 . S
C829 H836 0.961 . S
C829 H837 0.960 . S
C830 C828 1.381 . S
C830 C831 1.394 . S
C830 H838 0.930 . S
C831 C830 1.394 . S
C831 C832 1.383 . S
C831 H839 0.929 . S
C832 C831 1.383 . S
C832 C833 1.377 . S
C833 H817 0.930 . S
C833 C832 1.377 . S
C833 C834 1.379 . S
C834 H818 0.931 . S
C834 C828 1.383 . S
C834 C833 1.379 . S
H835 C829 0.959 . S
H836 C829 0.961 . S
H837 C829 0.960 . S
H838 C830 0.930 . S
H839 C831 0.929 . S
H840 C848 0.929 . S
H841 C850 0.930 . S
H842 C852 0.930 . S
H843 C855 0.929 . S
H844 C858 0.930 . S
H845 C860 0.960 . S
H846 C860 0.960 . S
H847 C860 0.960 . S
C848 H840 0.929 . S
C848 C849 1.377 . S
C848 C850 1.384 . S
C849 C848 1.377 . S
C849 C855 1.390 . S
C850 H841 0.930 . S
C850 C848 1.384 . S
C850 C851 1.372 . S
C851 C850 1.372 . S
C851 C852 1.400 . S
C851 C856 1.490 . S
C852 H842 0.930 . S
C852 C851 1.400 . S
C852 C855 1.386 . S
H853 C869 0.930 . S
H854 C870 0.931 . S
C855 H843 0.929 . S
C855 C849 1.390 . S
C855 C852 1.386 . S
C856 C851 1.490 . S
C856 C858 1.395 . S
C856 C859 1.403 . S
H857 C863 0.930 . S
C858 H844 0.930 . S
C858 C856 1.395 . S
C858 C861 1.403 1_554 S
C859 C856 1.403 . S
C859 C860 1.524 . S
C859 C863 1.400 1_554 S
C860 H845 0.960 . S
C860 H846 0.960 . S
C860 H847 0.960 . S
C860 C859 1.524 . S
C861 C858 1.403 1_556 S
C861 C862 1.392 . S
C861 C865 1.495 . S
C862 C861 1.392 . S
C862 C863 1.385 . S
C862 C864 1.478 . S
C863 H857 0.930 . S
C863 C859 1.400 1_556 S
C863 C862 1.385 . S
C864 C862 1.478 . S
C864 C866 1.381 . S
C864 C870 1.383 . S
C865 C861 1.495 . S
C865 H871 0.959 . S
C865 H872 0.961 . S
C865 H873 0.960 . S
C866 C864 1.381 . S
C866 C867 1.394 . S
C866 H874 0.930 . S
C867 C866 1.394 . S
C867 C868 1.383 . S
C867 H875 0.929 . S
C868 C867 1.383 . S
C868 C869 1.377 . S
C869 H853 0.930 . S
C869 C868 1.377 . S
C869 C870 1.379 . S
C870 H854 0.931 . S
C870 C864 1.383 . S
C870 C869 1.379 . S
H871 C865 0.959 . S
H872 C865 0.961 . S
H873 C865 0.960 . S
H874 C866 0.930 . S
H875 C867 0.929 . S
H876 C884 0.929 . S
H877 C886 0.930 . S
H878 C888 0.930 . S
H879 C891 0.929 . S
H880 C894 0.930 . S
H881 C896 0.960 . S
H882 C896 0.960 . S
H883 C896 0.960 . S
C884 H876 0.929 . S
C884 C885 1.377 . S
C884 C886 1.384 . S
C885 C884 1.377 . S
C885 C891 1.390 . S
C886 H877 0.930 . S
C886 C884 1.384 . S
C886 C887 1.372 . S
C887 C886 1.372 . S
C887 C888 1.400 . S
C887 C892 1.490 . S
C888 H878 0.930 . S
C888 C887 1.400 . S
C888 C891 1.386 . S
H889 C905 0.930 . S
H890 C906 0.931 . S
C891 H879 0.929 . S
C891 C885 1.390 . S
C891 C888 1.386 . S
C892 C887 1.490 . S
C892 C894 1.395 . S
C892 C895 1.403 . S
H893 C899 0.930 . S
C894 H880 0.930 . S
C894 C892 1.395 . S
C894 C897 1.403 . S
C895 C892 1.403 . S
C895 C896 1.524 . S
C895 C899 1.400 . S
C896 H881 0.960 . S
C896 H882 0.960 . S
C896 H883 0.960 . S
C896 C895 1.524 . S
C897 C894 1.403 . S
C897 C898 1.392 . S
C897 C901 1.495 . S
C898 C897 1.392 . S
C898 C899 1.385 . S
C898 C900 1.478 . S
C899 H893 0.930 . S
C899 C895 1.400 . S
C899 C898 1.385 . S
C900 C898 1.478 . S
C900 C902 1.381 . S
C900 C906 1.383 . S
C901 C897 1.495 . S
C901 H907 0.959 . S
C901 H908 0.961 . S
C901 H909 0.960 . S
C902 C900 1.381 . S
C902 C903 1.394 . S
C902 H910 0.930 . S
C903 C902 1.394 . S
C903 C904 1.383 . S
C903 H911 0.929 . S
C904 C903 1.383 . S
C904 C905 1.377 . S
C905 H889 0.930 . S
C905 C904 1.377 . S
C905 C906 1.379 . S
C906 H890 0.931 . S
C906 C900 1.383 . S
C906 C905 1.379 . S
H907 C901 0.959 . S
H908 C901 0.961 . S
H909 C901 0.960 . S
H910 C902 0.930 . S
H911 C903 0.929 . S
H912 C920 0.929 . S
H913 C922 0.930 . S
H914 C924 0.930 . S
H915 C927 0.929 . S
H916 C930 0.930 . S
H917 C932 0.960 . S
H918 C932 0.960 . S
H919 C932 0.960 . S
C920 H912 0.929 . S
C920 C921 1.377 . S
C920 C922 1.384 . S
C921 C920 1.377 . S
C921 C927 1.390 . S
C922 H913 0.930 . S
C922 C920 1.384 . S
C922 C923 1.372 . S
C923 C922 1.372 . S
C923 C924 1.400 . S
C923 C928 1.490 . S
C924 H914 0.930 . S
C924 C923 1.400 . S
C924 C927 1.386 . S
H925 C941 0.930 . S
H926 C942 0.931 . S
C927 H915 0.929 . S
C927 C921 1.390 . S
C927 C924 1.386 . S
C928 C923 1.490 . S
C928 C930 1.395 . S
C928 C931 1.403 . S
H929 C935 0.930 . S
C930 H916 0.930 . S
C930 C928 1.395 . S
C930 C933 1.403 1_556 S
C931 C928 1.403 . S
C931 C932 1.524 . S
C931 C935 1.400 1_556 S
C932 H917 0.960 . S
C932 H918 0.960 . S
C932 H919 0.960 . S
C932 C931 1.524 . S
C933 C930 1.403 1_554 S
C933 C934 1.392 . S
C933 C937 1.495 . S
C934 C933 1.392 . S
C934 C935 1.385 . S
C934 C936 1.478 . S
C935 H929 0.930 . S
C935 C931 1.400 1_554 S
C935 C934 1.385 . S
C936 C934 1.478 . S
C936 C938 1.381 . S
C936 C942 1.383 . S
C937 C933 1.495 . S
C937 H943 0.959 . S
C937 H944 0.961 . S
C937 H945 0.960 . S
C938 C936 1.381 . S
C938 C939 1.394 . S
C938 H946 0.930 . S
C939 C938 1.394 . S
C939 C940 1.383 . S
C939 H947 0.929 . S
C940 C939 1.383 . S
C940 C941 1.377 . S
C941 H925 0.930 . S
C941 C940 1.377 . S
C941 C942 1.379 . S
C942 H926 0.931 . S
C942 C936 1.383 . S
C942 C941 1.379 . S
H943 C937 0.959 . S
H944 C937 0.961 . S
H945 C937 0.960 . S
H946 C938 0.930 . S
H947 C939 0.929 . S
H948 C956 0.929 . S
H949 C958 0.930 . S
H950 C960 0.930 . S
H951 C963 0.929 . S
H952 C966 0.930 . S
H953 C968 0.960 . S
H954 C968 0.960 . S
H955 C968 0.960 . S
C956 H948 0.929 . S
C956 C957 1.377 . S
C956 C958 1.384 . S
C957 C956 1.377 . S
C957 C963 1.390 . S
C958 H949 0.930 . S
C958 C956 1.384 . S
C958 C959 1.372 . S
C959 C958 1.372 . S
C959 C960 1.400 . S
C959 C964 1.490 . S
C960 H950 0.930 . S
C960 C959 1.400 . S
C960 C963 1.386 . S
H961 C977 0.930 . S
H962 C978 0.931 . S
C963 H951 0.929 . S
C963 C957 1.390 . S
C963 C960 1.386 . S
C964 C959 1.490 . S
C964 C966 1.395 . S
C964 C967 1.403 . S
H965 C971 0.930 . S
C966 H952 0.930 . S
C966 C964 1.395 . S
C966 C969 1.403 . S
C967 C964 1.403 . S
C967 C968 1.524 . S
C967 C971 1.400 . S
C968 H953 0.960 . S
C968 H954 0.960 . S
C968 H955 0.960 . S
C968 C967 1.524 . S
C969 C966 1.403 . S
C969 C970 1.392 . S
C969 C973 1.495 . S
C970 C969 1.392 . S
C970 C971 1.385 . S
C970 C972 1.478 . S
C971 H965 0.930 . S
C971 C967 1.400 . S
C971 C970 1.385 . S
C972 C970 1.478 . S
C972 C974 1.381 . S
C972 C978 1.383 . S
C973 C969 1.495 . S
C973 H979 0.959 . S
C973 H980 0.961 . S
C973 H981 0.960 . S
C974 C972 1.381 . S
C974 C975 1.394 . S
C974 H982 0.930 . S
C975 C974 1.394 . S
C975 C976 1.383 . S
C975 H983 0.929 . S
C976 C975 1.383 . S
C976 C977 1.377 . S
C977 H961 0.930 . S
C977 C976 1.377 . S
C977 C978 1.379 . S
C978 H962 0.931 . S
C978 C972 1.383 . S
C978 C977 1.379 . S
H979 C973 0.959 . S
H980 C973 0.961 . S
H981 C973 0.960 . S
H982 C974 0.930 . S
H983 C975 0.929 . S
H984 C992 0.929 . S
H985 C994 0.930 . S
H986 C996 0.930 . S
H987 C999 0.929 . S
H988 C1002 0.930 . S
H989 C1004 0.960 . S
H990 C1004 0.960 . S
H991 C1004 0.960 . S
C992 H984 0.929 . S
C992 C993 1.377 . S
C992 C994 1.384 . S
C993 C992 1.377 . S
C993 C999 1.390 . S
C994 H985 0.930 . S
C994 C992 1.384 . S
C994 C995 1.372 . S
C995 C994 1.372 . S
C995 C996 1.400 . S
C995 C1000 1.490 . S
C996 H986 0.930 . S
C996 C995 1.400 . S
C996 C999 1.386 . S
H997 C1013 0.930 . S
H998 C1014 0.931 . S
C999 H987 0.929 . S
C999 C993 1.390 . S
C999 C996 1.386 . S
C1000 C995 1.490 . S
C1000 C1002 1.395 . S
C1000 C1003 1.403 . S
H1001 C1007 0.930 . S
C1002 H988 0.930 . S
C1002 C1000 1.395 . S
C1002 C1005 1.403 1_556 S
C1003 C1000 1.403 . S
C1003 C1004 1.524 . S
C1003 C1007 1.400 1_556 S
C1004 H989 0.960 . S
C1004 H990 0.960 . S
C1004 H991 0.960 . S
C1004 C1003 1.524 . S
C1005 C1002 1.403 1_554 S
C1005 C1006 1.392 . S
C1005 C1009 1.495 . S
C1006 C1005 1.392 . S
C1006 C1007 1.385 . S
C1006 C1008 1.478 . S
C1007 H1001 0.930 . S
C1007 C1003 1.400 1_554 S
C1007 C1006 1.385 . S
C1008 C1006 1.478 . S
C1008 C1010 1.381 . S
C1008 C1014 1.383 . S
C1009 C1005 1.495 . S
C1009 H1015 0.959 . S
C1009 H1016 0.961 . S
C1009 H1017 0.960 . S
C1010 C1008 1.381 . S
C1010 C1011 1.394 . S
C1010 H1018 0.930 . S
C1011 C1010 1.394 . S
C1011 C1012 1.383 . S
C1011 H1019 0.929 . S
C1012 C1011 1.383 . S
C1012 C1013 1.377 . S
C1013 H997 0.930 . S
C1013 C1012 1.377 . S
C1013 C1014 1.379 . S
C1014 H998 0.931 . S
C1014 C1008 1.383 . S
C1014 C1013 1.379 . S
H1015 C1009 0.959 . S
H1016 C1009 0.961 . S
H1017 C1009 0.960 . S
H1018 C1010 0.930 . S
H1019 C1011 0.929 . S
H1020 C1028 0.929 . S
H1021 C1030 0.930 . S
H1022 C1032 0.930 . S
H1023 C1035 0.929 . S
H1024 C1038 0.930 . S
H1025 C1040 0.960 . S
H1026 C1040 0.960 . S
H1027 C1040 0.960 . S
C1028 H1020 0.929 . S
C1028 C1029 1.377 . S
C1028 C1030 1.384 . S
C1029 C1028 1.377 . S
C1029 C1035 1.390 . S
C1030 H1021 0.930 . S
C1030 C1028 1.384 . S
C1030 C1031 1.372 . S
C1031 C1030 1.372 . S
C1031 C1032 1.400 . S
C1031 C1036 1.490 . S
C1032 H1022 0.930 . S
C1032 C1031 1.400 . S
C1032 C1035 1.386 . S
H1033 C1049 0.930 . S
H1034 C1050 0.931 . S
C1035 H1023 0.929 . S
C1035 C1029 1.390 . S
C1035 C1032 1.386 . S
C1036 C1031 1.490 . S
C1036 C1038 1.395 . S
C1036 C1039 1.403 . S
H1037 C1043 0.930 . S
C1038 H1024 0.930 . S
C1038 C1036 1.395 . S
C1038 C1041 1.403 . S
C1039 C1036 1.403 . S
C1039 C1040 1.524 . S
C1039 C1043 1.400 . S
C1040 H1025 0.960 . S
C1040 H1026 0.960 . S
C1040 H1027 0.960 . S
C1040 C1039 1.524 . S
C1041 C1038 1.403 . S
C1041 C1042 1.392 . S
C1041 C1045 1.495 . S
C1042 C1041 1.392 . S
C1042 C1043 1.385 . S
C1042 C1044 1.478 . S
C1043 H1037 0.930 . S
C1043 C1039 1.400 . S
C1043 C1042 1.385 . S
C1044 C1042 1.478 . S
C1044 C1046 1.381 . S
C1044 C1050 1.383 . S
C1045 C1041 1.495 . S
C1045 H1051 0.959 . S
C1045 H1052 0.961 . S
C1045 H1053 0.960 . S
C1046 C1044 1.381 . S
C1046 C1047 1.394 . S
C1046 H1054 0.930 . S
C1047 C1046 1.394 . S
C1047 C1048 1.383 . S
C1047 H1055 0.929 . S
C1048 C1047 1.383 . S
C1048 C1049 1.377 . S
C1049 H1033 0.930 . S
C1049 C1048 1.377 . S
C1049 C1050 1.379 . S
C1050 H1034 0.931 . S
C1050 C1044 1.383 . S
C1050 C1049 1.379 . S
H1051 C1045 0.959 . S
H1052 C1045 0.961 . S
H1053 C1045 0.960 . S
H1054 C1046 0.930 . S
H1055 C1047 0.929 . S
H1056 C1064 0.929 . S
H1057 C1066 0.930 . S
H1058 C1068 0.930 . S
H1059 C1071 0.929 . S
H1060 C1074 0.930 . S
H1061 C1076 0.960 . S
H1062 C1076 0.960 . S
H1063 C1076 0.960 . S
C1064 H1056 0.929 . S
C1064 C1065 1.377 . S
C1064 C1066 1.384 . S
C1065 C1064 1.377 . S
C1065 C1071 1.390 . S
C1066 H1057 0.930 . S
C1066 C1064 1.384 . S
C1066 C1067 1.372 . S
C1067 C1066 1.372 . S
C1067 C1068 1.400 . S
C1067 C1072 1.490 . S
C1068 H1058 0.930 . S
C1068 C1067 1.400 . S
C1068 C1071 1.386 . S
H1069 C1085 0.930 . S
H1070 C1086 0.931 . S
C1071 H1059 0.929 . S
C1071 C1065 1.390 . S
C1071 C1068 1.386 . S
C1072 C1067 1.490 . S
C1072 C1074 1.395 . S
C1072 C1075 1.403 . S
H1073 C1079 0.930 . S
C1074 H1060 0.930 . S
C1074 C1072 1.395 . S
C1074 C1077 1.403 . S
C1075 C1072 1.403 . S
C1075 C1076 1.524 . S
C1075 C1079 1.400 . S
C1076 H1061 0.960 . S
C1076 H1062 0.960 . S
C1076 H1063 0.960 . S
C1076 C1075 1.524 . S
C1077 C1074 1.403 . S
C1077 C1078 1.392 . S
C1077 C1081 1.495 . S
C1078 C1077 1.392 . S
C1078 C1079 1.385 . S
C1078 C1080 1.478 . S
C1079 H1073 0.930 . S
C1079 C1075 1.400 . S
C1079 C1078 1.385 . S
C1080 C1078 1.478 . S
C1080 C1082 1.381 . S
C1080 C1086 1.383 . S
C1081 C1077 1.495 . S
C1081 H1087 0.959 . S
C1081 H1088 0.961 . S
C1081 H1089 0.960 . S
C1082 C1080 1.381 . S
C1082 C1083 1.394 . S
C1082 H1090 0.930 . S
C1083 C1082 1.394 . S
C1083 C1084 1.383 . S
C1083 H1091 0.929 . S
C1084 C1083 1.383 . S
C1084 C1085 1.377 . S
C1085 H1069 0.930 . S
C1085 C1084 1.377 . S
C1085 C1086 1.379 . S
C1086 H1070 0.931 . S
C1086 C1080 1.383 . S
C1086 C1085 1.379 . S
H1087 C1081 0.959 . S
H1088 C1081 0.961 . S
H1089 C1081 0.960 . S
H1090 C1082 0.930 . S
H1091 C1083 0.929 . S
H1092 C1100 0.929 . S
H1093 C1102 0.930 . S
H1094 C1104 0.930 . S
H1095 C1107 0.929 . S
H1096 C1110 0.930 . S
H1097 C1112 0.960 . S
H1098 C1112 0.960 . S
H1099 C1112 0.960 . S
C1100 H1092 0.929 . S
C1100 C1101 1.377 . S
C1100 C1102 1.384 . S
C1101 C1100 1.377 . S
C1101 C1107 1.390 . S
C1102 H1093 0.930 . S
C1102 C1100 1.384 . S
C1102 C1103 1.372 . S
C1103 C1102 1.372 . S
C1103 C1104 1.400 . S
C1103 C1108 1.490 . S
C1104 H1094 0.930 . S
C1104 C1103 1.400 . S
C1104 C1107 1.386 . S
H1105 C1121 0.930 . S
H1106 C1122 0.931 . S
C1107 H1095 0.929 . S
C1107 C1101 1.390 . S
C1107 C1104 1.386 . S
C1108 C1103 1.490 . S
C1108 C1110 1.395 . S
C1108 C1111 1.403 . S
H1109 C1115 0.930 . S
C1110 H1096 0.930 . S
C1110 C1108 1.395 . S
C1110 C1113 1.403 . S
C1111 C1108 1.403 . S
C1111 C1112 1.524 . S
C1111 C1115 1.400 . S
C1112 H1097 0.960 . S
C1112 H1098 0.960 . S
C1112 H1099 0.960 . S
C1112 C1111 1.524 . S
C1113 C1110 1.403 . S
C1113 C1114 1.392 . S
C1113 C1117 1.495 . S
C1114 C1113 1.392 . S
C1114 C1115 1.385 . S
C1114 C1116 1.478 . S
C1115 H1109 0.930 . S
C1115 C1111 1.400 . S
C1115 C1114 1.385 . S
C1116 C1114 1.478 . S
C1116 C1118 1.381 . S
C1116 C1122 1.383 . S
C1117 C1113 1.495 . S
C1117 H1123 0.959 . S
C1117 H1124 0.961 . S
C1117 H1125 0.960 . S
C1118 C1116 1.381 . S
C1118 C1119 1.394 . S
C1118 H1126 0.930 . S
C1119 C1118 1.394 . S
C1119 C1120 1.383 . S
C1119 H1127 0.929 . S
C1120 C1119 1.383 . S
C1120 C1121 1.377 . S
C1121 H1105 0.930 . S
C1121 C1120 1.377 . S
C1121 C1122 1.379 . S
C1122 H1106 0.931 . S
C1122 C1116 1.383 . S
C1122 C1121 1.379 . S
H1123 C1117 0.959 . S
H1124 C1117 0.961 . S
H1125 C1117 0.960 . S
H1126 C1118 0.930 . S
H1127 C1119 0.929 . S
H1128 C1136 0.929 . S
H1129 C1138 0.930 . S
H1130 C1140 0.930 . S
H1131 C1143 0.929 . S
H1132 C1146 0.930 . S
H1133 C1148 0.960 . S
H1134 C1148 0.960 . S
H1135 C1148 0.960 . S
C1136 H1128 0.929 . S
C1136 C1137 1.377 . S
C1136 C1138 1.384 . S
C1137 C1136 1.377 . S
C1137 C1143 1.390 . S
C1138 H1129 0.930 . S
C1138 C1136 1.384 . S
C1138 C1139 1.372 . S
C1139 C1138 1.372 . S
C1139 C1140 1.400 . S
C1139 C1144 1.490 . S
C1140 H1130 0.930 . S
C1140 C1139 1.400 . S
C1140 C1143 1.386 . S
H1141 C1157 0.930 . S
H1142 C1158 0.931 . S
C1143 H1131 0.929 . S
C1143 C1137 1.390 . S
C1143 C1140 1.386 . S
C1144 C1139 1.490 . S
C1144 C1146 1.395 . S
C1144 C1147 1.403 . S
H1145 C1151 0.930 . S
C1146 H1132 0.930 . S
C1146 C1144 1.395 . S
C1146 C1149 1.403 . S
C1147 C1144 1.403 . S
C1147 C1148 1.524 . S
C1147 C1151 1.400 . S
C1148 H1133 0.960 . S
C1148 H1134 0.960 . S
C1148 H1135 0.960 . S
C1148 C1147 1.524 . S
C1149 C1146 1.403 . S
C1149 C1150 1.392 . S
C1149 C1153 1.495 . S
C1150 C1149 1.392 . S
C1150 C1151 1.385 . S
C1150 C1152 1.478 . S
C1151 H1145 0.930 . S
C1151 C1147 1.400 . S
C1151 C1150 1.385 . S
C1152 C1150 1.478 . S
C1152 C1154 1.381 . S
C1152 C1158 1.383 . S
C1153 C1149 1.495 . S
C1153 H1159 0.959 . S
C1153 H1160 0.961 . S
C1153 H1161 0.960 . S
C1154 C1152 1.381 . S
C1154 C1155 1.394 . S
C1154 H1162 0.930 . S
C1155 C1154 1.394 . S
C1155 C1156 1.383 . S
C1155 H1163 0.929 . S
C1156 C1155 1.383 . S
C1156 C1157 1.377 . S
C1157 H1141 0.930 . S
C1157 C1156 1.377 . S
C1157 C1158 1.379 . S
C1158 H1142 0.931 . S
C1158 C1152 1.383 . S
C1158 C1157 1.379 . S
H1159 C1153 0.959 . S
H1160 C1153 0.961 . S
H1161 C1153 0.960 . S
H1162 C1154 0.930 . S
H1163 C1155 0.929 . S
H1164 C1172 0.929 . S
H1165 C1174 0.930 . S
H1166 C1176 0.930 . S
H1167 C1179 0.929 . S
H1168 C1182 0.930 . S
H1169 C1184 0.960 . S
H1170 C1184 0.960 . S
H1171 C1184 0.960 . S
C1172 H1164 0.929 . S
C1172 C1173 1.377 . S
C1172 C1174 1.384 . S
C1173 C1172 1.377 . S
C1173 C1179 1.390 . S
C1174 H1165 0.930 . S
C1174 C1172 1.384 . S
C1174 C1175 1.372 . S
C1175 C1174 1.372 . S
C1175 C1176 1.400 . S
C1175 C1180 1.490 . S
C1176 H1166 0.930 . S
C1176 C1175 1.400 . S
C1176 C1179 1.386 . S
H1177 C1193 0.930 . S
H1178 C1194 0.931 . S
C1179 H1167 0.929 . S
C1179 C1173 1.390 . S
C1179 C1176 1.386 . S
C1180 C1175 1.490 . S
C1180 C1182 1.395 . S
C1180 C1183 1.403 . S
H1181 C1187 0.930 . S
C1182 H1168 0.930 . S
C1182 C1180 1.395 . S
C1182 C1185 1.403 . S
C1183 C1180 1.403 . S
C1183 C1184 1.524 . S
C1183 C1187 1.400 . S
C1184 H1169 0.960 . S
C1184 H1170 0.960 . S
C1184 H1171 0.960 . S
C1184 C1183 1.524 . S
C1185 C1182 1.403 . S
C1185 C1186 1.392 . S
C1185 C1189 1.495 . S
C1186 C1185 1.392 . S
C1186 C1187 1.385 . S
C1186 C1188 1.478 . S
C1187 H1181 0.930 . S
C1187 C1183 1.400 . S
C1187 C1186 1.385 . S
C1188 C1186 1.478 . S
C1188 C1190 1.381 . S
C1188 C1194 1.383 . S
C1189 C1185 1.495 . S
C1189 H1195 0.959 . S
C1189 H1196 0.961 . S
C1189 H1197 0.960 . S
C1190 C1188 1.381 . S
C1190 C1191 1.394 . S
C1190 H1198 0.930 . S
C1191 C1190 1.394 . S
C1191 C1192 1.383 . S
C1191 H1199 0.929 . S
C1192 C1191 1.383 . S
C1192 C1193 1.377 . S
C1193 H1177 0.930 . S
C1193 C1192 1.377 . S
C1193 C1194 1.379 . S
C1194 H1178 0.931 . S
C1194 C1188 1.383 . S
C1194 C1193 1.379 . S
H1195 C1189 0.959 . S
H1196 C1189 0.961 . S
H1197 C1189 0.960 . S
H1198 C1190 0.930 . S
H1199 C1191 0.929 . S
H1200 C1208 0.929 . S
H1201 C1210 0.930 . S
H1202 C1212 0.930 . S
H1203 C1215 0.929 . S
H1204 C1218 0.930 . S
H1205 C1220 0.960 . S
H1206 C1220 0.960 . S
H1207 C1220 0.960 . S
C1208 H1200 0.929 . S
C1208 C1209 1.377 . S
C1208 C1210 1.384 . S
C1209 C1208 1.377 . S
C1209 C1215 1.390 . S
C1210 H1201 0.930 . S
C1210 C1208 1.384 . S
C1210 C1211 1.372 . S
C1211 C1210 1.372 . S
C1211 C1212 1.400 . S
C1211 C1216 1.490 . S
C1212 H1202 0.930 . S
C1212 C1211 1.400 . S
C1212 C1215 1.386 . S
H1213 C1229 0.930 . S
H1214 C1230 0.931 . S
C1215 H1203 0.929 . S
C1215 C1209 1.390 . S
C1215 C1212 1.386 . S
C1216 C1211 1.490 . S
C1216 C1218 1.395 . S
C1216 C1219 1.403 . S
H1217 C1223 0.930 . S
C1218 H1204 0.930 . S
C1218 C1216 1.395 . S
C1218 C1221 1.403 . S
C1219 C1216 1.403 . S
C1219 C1220 1.524 . S
C1219 C1223 1.400 . S
C1220 H1205 0.960 . S
C1220 H1206 0.960 . S
C1220 H1207 0.960 . S
C1220 C1219 1.524 . S
C1221 C1218 1.403 . S
C1221 C1222 1.392 . S
C1221 C1225 1.495 . S
C1222 C1221 1.392 . S
C1222 C1223 1.385 . S
C1222 C1224 1.478 . S
C1223 H1217 0.930 . S
C1223 C1219 1.400 . S
C1223 C1222 1.385 . S
C1224 C1222 1.478 . S
C1224 C1226 1.381 . S
C1224 C1230 1.383 . S
C1225 C1221 1.495 . S
C1225 H1231 0.959 . S
C1225 H1232 0.961 . S
C1225 H1233 0.960 . S
C1226 C1224 1.381 . S
C1226 C1227 1.394 . S
C1226 H1234 0.930 . S
C1227 C1226 1.394 . S
C1227 C1228 1.383 . S
C1227 H1235 0.929 . S
C1228 C1227 1.383 . S
C1228 C1229 1.377 . S
C1229 H1213 0.930 . S
C1229 C1228 1.377 . S
C1229 C1230 1.379 . S
C1230 H1214 0.931 . S
C1230 C1224 1.383 . S
C1230 C1229 1.379 . S
H1231 C1225 0.959 . S
H1232 C1225 0.961 . S
H1233 C1225 0.960 . S
H1234 C1226 0.930 . S
H1235 C1227 0.929 . S
H1236 C1244 0.929 . S
H1237 C1246 0.930 . S
H1238 C1248 0.930 . S
H1239 C1251 0.929 . S
H1240 C1254 0.930 . S
H1241 C1256 0.960 . S
H1242 C1256 0.960 . S
H1243 C1256 0.960 . S
C1244 H1236 0.929 . S
C1244 C1245 1.377 . S
C1244 C1246 1.384 . S
C1245 C1244 1.377 . S
C1245 C1251 1.390 . S
C1246 H1237 0.930 . S
C1246 C1244 1.384 . S
C1246 C1247 1.372 . S
C1247 C1246 1.372 . S
C1247 C1248 1.400 . S
C1247 C1252 1.490 . S
C1248 H1238 0.930 . S
C1248 C1247 1.400 . S
C1248 C1251 1.386 . S
H1249 C1265 0.930 . S
H1250 C1266 0.931 . S
C1251 H1239 0.929 . S
C1251 C1245 1.390 . S
C1251 C1248 1.386 . S
C1252 C1247 1.490 . S
C1252 C1254 1.395 . S
C1252 C1255 1.403 . S
H1253 C1259 0.930 . S
C1254 H1240 0.930 . S
C1254 C1252 1.395 . S
C1254 C1257 1.403 . S
C1255 C1252 1.403 . S
C1255 C1256 1.524 . S
C1255 C1259 1.400 . S
C1256 H1241 0.960 . S
C1256 H1242 0.960 . S
C1256 H1243 0.960 . S
C1256 C1255 1.524 . S
C1257 C1254 1.403 . S
C1257 C1258 1.392 . S
C1257 C1261 1.495 . S
C1258 C1257 1.392 . S
C1258 C1259 1.385 . S
C1258 C1260 1.478 . S
C1259 H1253 0.930 . S
C1259 C1255 1.400 . S
C1259 C1258 1.385 . S
C1260 C1258 1.478 . S
C1260 C1262 1.381 . S
C1260 C1266 1.383 . S
C1261 C1257 1.495 . S
C1261 H1267 0.959 . S
C1261 H1268 0.961 . S
C1261 H1269 0.960 . S
C1262 C1260 1.381 . S
C1262 C1263 1.394 . S
C1262 H1270 0.930 . S
C1263 C1262 1.394 . S
C1263 C1264 1.383 . S
C1263 H1271 0.929 . S
C1264 C1263 1.383 . S
C1264 C1265 1.377 . S
C1265 H1249 0.930 . S
C1265 C1264 1.377 . S
C1265 C1266 1.379 . S
C1266 H1250 0.931 . S
C1266 C1260 1.383 . S
C1266 C1265 1.379 . S
H1267 C1261 0.959 . S
H1268 C1261 0.961 . S
H1269 C1261 0.960 . S
H1270 C1262 0.930 . S
H1271 C1263 0.929 . S
H1272 C1280 0.929 . S
H1273 C1282 0.930 . S
H1274 C1284 0.930 . S
H1275 C1287 0.929 . S
H1276 C1290 0.930 . S
H1277 C1292 0.960 . S
H1278 C1292 0.960 . S
H1279 C1292 0.960 . S
C1280 H1272 0.929 . S
C1280 C1281 1.377 . S
C1280 C1282 1.384 . S
C1281 C1280 1.377 . S
C1281 C1287 1.390 . S
C1282 H1273 0.930 . S
C1282 C1280 1.384 . S
C1282 C1283 1.372 . S
C1283 C1282 1.372 . S
C1283 C1284 1.400 . S
C1283 C1288 1.490 . S
C1284 H1274 0.930 . S
C1284 C1283 1.400 . S
C1284 C1287 1.386 . S
H1285 C1301 0.930 . S
H1286 C1302 0.931 . S
C1287 H1275 0.929 . S
C1287 C1281 1.390 . S
C1287 C1284 1.386 . S
C1288 C1283 1.490 . S
C1288 C1290 1.395 . S
C1288 C1291 1.403 . S
H1289 C1295 0.930 . S
C1290 H1276 0.930 . S
C1290 C1288 1.395 . S
C1290 C1293 1.403 . S
C1291 C1288 1.403 . S
C1291 C1292 1.524 . S
C1291 C1295 1.400 . S
C1292 H1277 0.960 . S
C1292 H1278 0.960 . S
C1292 H1279 0.960 . S
C1292 C1291 1.524 . S
C1293 C1290 1.403 . S
C1293 C1294 1.392 . S
C1293 C1297 1.495 . S
C1294 C1293 1.392 . S
C1294 C1295 1.385 . S
C1294 C1296 1.478 . S
C1295 H1289 0.930 . S
C1295 C1291 1.400 . S
C1295 C1294 1.385 . S
C1296 C1294 1.478 . S
C1296 C1298 1.381 . S
C1296 C1302 1.383 . S
C1297 C1293 1.495 . S
C1297 H1303 0.959 . S
C1297 H1304 0.961 . S
C1297 H1305 0.960 . S
C1298 C1296 1.381 . S
C1298 C1299 1.394 . S
C1298 H1306 0.930 . S
C1299 C1298 1.394 . S
C1299 C1300 1.383 . S
C1299 H1307 0.929 . S
C1300 C1299 1.383 . S
C1300 C1301 1.377 . S
C1301 H1285 0.930 . S
C1301 C1300 1.377 . S
C1301 C1302 1.379 . S
C1302 H1286 0.931 . S
C1302 C1296 1.383 . S
C1302 C1301 1.379 . S
H1303 C1297 0.959 . S
H1304 C1297 0.961 . S
H1305 C1297 0.960 . S
H1306 C1298 0.930 . S
H1307 C1299 0.929 . S
H1308 C1316 0.929 . S
H1309 C1318 0.930 . S
H1310 C1320 0.930 . S
H1311 C1323 0.929 . S
H1312 C1326 0.930 . S
H1313 C1328 0.960 . S
H1314 C1328 0.960 . S
H1315 C1328 0.960 . S
C1316 H1308 0.929 . S
C1316 C1317 1.377 . S
C1316 C1318 1.384 . S
C1317 C1316 1.377 . S
C1317 C1323 1.390 . S
C1318 H1309 0.930 . S
C1318 C1316 1.384 . S
C1318 C1319 1.372 . S
C1319 C1318 1.372 . S
C1319 C1320 1.400 . S
C1319 C1324 1.490 . S
C1320 H1310 0.930 . S
C1320 C1319 1.400 . S
C1320 C1323 1.386 . S
H1321 C1337 0.930 . S
H1322 C1338 0.931 . S
C1323 H1311 0.929 . S
C1323 C1317 1.390 . S
C1323 C1320 1.386 . S
C1324 C1319 1.490 . S
C1324 C1326 1.395 . S
C1324 C1327 1.403 . S
H1325 C1331 0.930 . S
C1326 H1312 0.930 . S
C1326 C1324 1.395 . S
C1326 C1329 1.403 . S
C1327 C1324 1.403 . S
C1327 C1328 1.524 . S
C1327 C1331 1.400 . S
C1328 H1313 0.960 . S
C1328 H1314 0.960 . S
C1328 H1315 0.960 . S
C1328 C1327 1.524 . S
C1329 C1326 1.403 . S
C1329 C1330 1.392 . S
C1329 C1333 1.495 . S
C1330 C1329 1.392 . S
C1330 C1331 1.385 . S
C1330 C1332 1.478 . S
C1331 H1325 0.930 . S
C1331 C1327 1.400 . S
C1331 C1330 1.385 . S
C1332 C1330 1.478 . S
C1332 C1334 1.381 . S
C1332 C1338 1.383 . S
C1333 C1329 1.495 . S
C1333 H1339 0.959 . S
C1333 H1340 0.961 . S
C1333 H1341 0.960 . S
C1334 C1332 1.381 . S
C1334 C1335 1.394 . S
C1334 H1342 0.930 . S
C1335 C1334 1.394 . S
C1335 C1336 1.383 . S
C1335 H1343 0.929 . S
C1336 C1335 1.383 . S
C1336 C1337 1.377 . S
C1337 H1321 0.930 . S
C1337 C1336 1.377 . S
C1337 C1338 1.379 . S
C1338 H1322 0.931 . S
C1338 C1332 1.383 . S
C1338 C1337 1.379 . S
H1339 C1333 0.959 . S
H1340 C1333 0.961 . S
H1341 C1333 0.960 . S
H1342 C1334 0.930 . S
H1343 C1335 0.929 . S
H1344 C1352 0.929 . S
H1345 C1354 0.930 . S
H1346 C1356 0.930 . S
H1347 C1359 0.929 . S
H1348 C1362 0.930 . S
H1349 C1364 0.960 . S
H1350 C1364 0.960 . S
H1351 C1364 0.960 . S
C1352 H1344 0.929 . S
C1352 C1353 1.377 . S
C1352 C1354 1.384 . S
C1353 C1352 1.377 . S
C1353 C1359 1.390 . S
C1354 H1345 0.930 . S
C1354 C1352 1.384 . S
C1354 C1355 1.372 . S
C1355 C1354 1.372 . S
C1355 C1356 1.400 . S
C1355 C1360 1.490 . S
C1356 H1346 0.930 . S
C1356 C1355 1.400 . S
C1356 C1359 1.386 . S
H1357 C1373 0.930 . S
H1358 C1374 0.931 . S
C1359 H1347 0.929 . S
C1359 C1353 1.390 . S
C1359 C1356 1.386 . S
C1360 C1355 1.490 . S
C1360 C1362 1.395 . S
C1360 C1363 1.403 . S
H1361 C1367 0.930 . S
C1362 H1348 0.930 . S
C1362 C1360 1.395 . S
C1362 C1365 1.403 . S
C1363 C1360 1.403 . S
C1363 C1364 1.524 . S
C1363 C1367 1.400 . S
C1364 H1349 0.960 . S
C1364 H1350 0.960 . S
C1364 H1351 0.960 . S
C1364 C1363 1.524 . S
C1365 C1362 1.403 . S
C1365 C1366 1.392 . S
C1365 C1369 1.495 . S
C1366 C1365 1.392 . S
C1366 C1367 1.385 . S
C1366 C1368 1.478 . S
C1367 H1361 0.930 . S
C1367 C1363 1.400 . S
C1367 C1366 1.385 . S
C1368 C1366 1.478 . S
C1368 C1370 1.381 . S
C1368 C1374 1.383 . S
C1369 C1365 1.495 . S
C1369 H1375 0.959 . S
C1369 H1376 0.961 . S
C1369 H1377 0.960 . S
C1370 C1368 1.381 . S
C1370 C1371 1.394 . S
C1370 H1378 0.930 . S
C1371 C1370 1.394 . S
C1371 C1372 1.383 . S
C1371 H1379 0.929 . S
C1372 C1371 1.383 . S
C1372 C1373 1.377 . S
C1373 H1357 0.930 . S
C1373 C1372 1.377 . S
C1373 C1374 1.379 . S
C1374 H1358 0.931 . S
C1374 C1368 1.383 . S
C1374 C1373 1.379 . S
H1375 C1369 0.959 . S
H1376 C1369 0.961 . S
H1377 C1369 0.960 . S
H1378 C1370 0.930 . S
H1379 C1371 0.929 . S
H1380 C1388 0.929 . S
H1381 C1390 0.930 . S
H1382 C1392 0.930 . S
H1383 C1395 0.929 . S
H1384 C1398 0.930 . S
H1385 C1400 0.960 . S
H1386 C1400 0.960 . S
H1387 C1400 0.960 . S
C1388 H1380 0.929 . S
C1388 C1389 1.377 . S
C1388 C1390 1.384 . S
C1389 C1388 1.377 . S
C1389 C1395 1.390 . S
C1390 H1381 0.930 . S
C1390 C1388 1.384 . S
C1390 C1391 1.372 . S
C1391 C1390 1.372 . S
C1391 C1392 1.400 . S
C1391 C1396 1.490 . S
C1392 H1382 0.930 . S
C1392 C1391 1.400 . S
C1392 C1395 1.386 . S
H1393 C1409 0.930 . S
H1394 C1410 0.931 . S
C1395 H1383 0.929 . S
C1395 C1389 1.390 . S
C1395 C1392 1.386 . S
C1396 C1391 1.490 . S
C1396 C1398 1.395 . S
C1396 C1399 1.403 . S
H1397 C1403 0.930 . S
C1398 H1384 0.930 . S
C1398 C1396 1.395 . S
C1398 C1401 1.403 . S
C1399 C1396 1.403 . S
C1399 C1400 1.524 . S
C1399 C1403 1.400 . S
C1400 H1385 0.960 . S
C1400 H1386 0.960 . S
C1400 H1387 0.960 . S
C1400 C1399 1.524 . S
C1401 C1398 1.403 . S
C1401 C1402 1.392 . S
C1401 C1405 1.495 . S
C1402 C1401 1.392 . S
C1402 C1403 1.385 . S
C1402 C1404 1.478 . S
C1403 H1397 0.930 . S
C1403 C1399 1.400 . S
C1403 C1402 1.385 . S
C1404 C1402 1.478 . S
C1404 C1406 1.381 . S
C1404 C1410 1.383 . S
C1405 C1401 1.495 . S
C1405 H1411 0.959 . S
C1405 H1412 0.961 . S
C1405 H1413 0.960 . S
C1406 C1404 1.381 . S
C1406 C1407 1.394 . S
C1406 H1414 0.930 . S
C1407 C1406 1.394 . S
C1407 C1408 1.383 . S
C1407 H1415 0.929 . S
C1408 C1407 1.383 . S
C1408 C1409 1.377 . S
C1409 H1393 0.930 . S
C1409 C1408 1.377 . S
C1409 C1410 1.379 . S
C1410 H1394 0.931 . S
C1410 C1404 1.383 . S
C1410 C1409 1.379 . S
H1411 C1405 0.959 . S
H1412 C1405 0.961 . S
H1413 C1405 0.960 . S
H1414 C1406 0.930 . S
H1415 C1407 0.929 . S
H1416 C1424 0.929 . S
H1417 C1426 0.930 . S
H1418 C1428 0.930 . S
H1419 C1431 0.929 . S
H1420 C1434 0.930 . S
H1421 C1436 0.960 . S
H1422 C1436 0.960 . S
H1423 C1436 0.960 . S
C1424 H1416 0.929 . S
C1424 C1425 1.377 . S
C1424 C1426 1.384 . S
C1425 C1424 1.377 . S
C1425 C1431 1.390 . S
C1426 H1417 0.930 . S
C1426 C1424 1.384 . S
C1426 C1427 1.372 . S
C1427 C1426 1.372 . S
C1427 C1428 1.400 . S
C1427 C1432 1.490 . S
C1428 H1418 0.930 . S
C1428 C1427 1.400 . S
C1428 C1431 1.386 . S
H1429 C1445 0.930 . S
H1430 C1446 0.931 . S
C1431 H1419 0.929 . S
C1431 C1425 1.390 . S
C1431 C1428 1.386 . S
C1432 C1427 1.490 . S
C1432 C1434 1.395 . S
C1432 C1435 1.403 . S
H1433 C1439 0.930 . S
C1434 H1420 0.930 . S
C1434 C1432 1.395 . S
C1434 C1437 1.403 . S
C1435 C1432 1.403 . S
C1435 C1436 1.524 . S
C1435 C1439 1.400 . S
C1436 H1421 0.960 . S
C1436 H1422 0.960 . S
C1436 H1423 0.960 . S
C1436 C1435 1.524 . S
C1437 C1434 1.403 . S
C1437 C1438 1.392 . S
C1437 C1441 1.495 . S
C1438 C1437 1.392 . S
C1438 C1439 1.385 . S
C1438 C1440 1.478 . S
C1439 H1433 0.930 . S
C1439 C1435 1.400 . S
C1439 C1438 1.385 . S
C1440 C1438 1.478 . S
C1440 C1442 1.381 . S
C1440 C1446 1.383 . S
C1441 C1437 1.495 . S
C1441 H1447 0.959 . S
C1441 H1448 0.961 . S
C1441 H1449 0.960 . S
C1442 C1440 1.381 . S
C1442 C1443 1.394 . S
C1442 H1450 0.930 . S
C1443 C1442 1.394 . S
C1443 C1444 1.383 . S
C1443 H1451 0.929 . S
C1444 C1443 1.383 . S
C1444 C1445 1.377 . S
C1445 H1429 0.930 . S
C1445 C1444 1.377 . S
C1445 C1446 1.379 . S
C1446 H1430 0.931 . S
C1446 C1440 1.383 . S
C1446 C1445 1.379 . S
H1447 C1441 0.959 . S
H1448 C1441 0.961 . S
H1449 C1441 0.960 . S
H1450 C1442 0.930 . S
H1451 C1443 0.929 . S
H1452 C1460 0.929 . S
H1453 C1462 0.930 . S
H1454 C1464 0.930 . S
H1455 C1467 0.929 . S
H1456 C1470 0.930 . S
H1457 C1472 0.960 . S
H1458 C1472 0.960 . S
H1459 C1472 0.960 . S
C1460 H1452 0.929 . S
C1460 C1461 1.377 . S
C1460 C1462 1.384 . S
C1461 C1460 1.377 . S
C1461 C1467 1.390 . S
C1462 H1453 0.930 . S
C1462 C1460 1.384 . S
C1462 C1463 1.372 . S
C1463 C1462 1.372 . S
C1463 C1464 1.400 . S
C1463 C1468 1.490 . S
C1464 H1454 0.930 . S
C1464 C1463 1.400 . S
C1464 C1467 1.386 . S
H1465 C1481 0.930 . S
H1466 C1482 0.931 . S
C1467 H1455 0.929 . S
C1467 C1461 1.390 . S
C1467 C1464 1.386 . S
C1468 C1463 1.490 . S
C1468 C1470 1.395 . S
C1468 C1471 1.403 . S
H1469 C1475 0.930 . S
C1470 H1456 0.930 . S
C1470 C1468 1.395 . S
C1470 C1473 1.403 . S
C1471 C1468 1.403 . S
C1471 C1472 1.524 . S
C1471 C1475 1.400 . S
C1472 H1457 0.960 . S
C1472 H1458 0.960 . S
C1472 H1459 0.960 . S
C1472 C1471 1.524 . S
C1473 C1470 1.403 . S
C1473 C1474 1.392 . S
C1473 C1477 1.495 . S
C1474 C1473 1.392 . S
C1474 C1475 1.385 . S
C1474 C1476 1.478 . S
C1475 H1469 0.930 . S
C1475 C1471 1.400 . S
C1475 C1474 1.385 . S
C1476 C1474 1.478 . S
C1476 C1478 1.381 . S
C1476 C1482 1.383 . S
C1477 C1473 1.495 . S
C1477 H1483 0.959 . S
C1477 H1484 0.961 . S
C1477 H1485 0.960 . S
C1478 C1476 1.381 . S
C1478 C1479 1.394 . S
C1478 H1486 0.930 . S
C1479 C1478 1.394 . S
C1479 C1480 1.383 . S
C1479 H1487 0.929 . S
C1480 C1479 1.383 . S
C1480 C1481 1.377 . S
C1481 H1465 0.930 . S
C1481 C1480 1.377 . S
C1481 C1482 1.379 . S
C1482 H1466 0.931 . S
C1482 C1476 1.383 . S
C1482 C1481 1.379 . S
H1483 C1477 0.959 . S
H1484 C1477 0.961 . S
H1485 C1477 0.960 . S
H1486 C1478 0.930 . S
H1487 C1479 0.929 . S
C417 C315 1.672 . S
C436 C9 1.638 . S
C453 C43 1.676 . S
C472 C349 1.635 . S
C489 C383 1.662 . S
C508 C77 1.694 . S
C525 C111 1.664 . S
C544 C213 1.695 . S
C561 C145 1.675 . S
C580 C247 1.633 . S
C597 C281 1.672 . S
C616 C179 1.638 . S
C633 C342 1.322 . S
C652 C2 1.334 . S
C669 C376 1.321 . S
C688 C36 1.333 . S
C705 C70 1.325 . S
C724 C206 1.311 . S
C741 C240 1.323 . S
C760 C104 1.334 . S
C777 C274 1.319 . S
C796 C138 1.328 . S
C813 C172 1.319 . S
C832 C308 1.322 . S
C849 C258 1.475 . S
C868 C122 1.472 . S
C885 C292 1.478 . S
C904 C156 1.461 . S
C921 C190 1.478 . S
C940 C326 1.461 . S
C957 C20 1.480 . S
C976 C360 1.471 . S
C993 C54 1.479 . S
C1012 C394 1.481 . S
C1029 C224 1.475 . S
C1048 C88 1.481 . S
C1065 C5 1.339 . S
C1084 C169 1.348 . S
C1101 C39 1.336 . S
C1120 C203 1.353 . S
C1137 C73 1.341 . S
C1156 C33 1.340 . S
C1173 C67 1.348 . S
C1192 C107 1.319 . S
C1209 C141 1.340 . S
C1228 C101 1.346 . S
C1245 C135 1.348 . S
C1264 C175 1.333 . S
C1281 C305 1.346 . S
C1300 C209 1.328 . S
C1317 C339 1.345 . S
C1336 C243 1.337 . S
C1353 C373 1.345 . S
C1372 C277 1.348 . S
C1389 C311 1.336 . S
C1408 C407 1.338 . S
C1425 C237 1.345 . S
C1444 C345 1.345 . S
C1461 C379 1.335 . S
C1480 C271 1.341 . S
