# Generated by pormake.
# Topology bcu-i, (5)-cn, num edge types: 1
# Building blocks:
#     Node 0, Type 0, BuildingBlock: XOMCOT_clean_sbu_1, # of connection points: 5
#     Node 1, Type 0, BuildingBlock: XOMCOT_clean_sbu_1, # of connection points: 5
#     Node 2, Type 0, BuildingBlock: XOMCOT_clean_sbu_1, # of connection points: 5
#     Node 3, Type 0, BuildingBlock: XOMCOT_clean_sbu_1, # of connection points: 5
#     Node 4, Type 0, BuildingBlock: XOMCOT_clean_sbu_1, # of connection points: 5
#     Node 5, Type 0, BuildingBlock: XOMCOT_clean_sbu_1, # of connection points: 5
#     Node 6, Type 0, BuildingBlock: XOMCOT_clean_sbu_1, # of connection points: 5
#     Node 7, Type 0, BuildingBlock: XOMCOT_clean_sbu_1, # of connection points: 5
#     Node 8, Type 0, BuildingBlock: XOMCOT_clean_sbu_1, # of connection points: 5
#     Node 9, Type 0, BuildingBlock: XOMCOT_clean_sbu_1, # of connection points: 5
#     Node 10, Type 0, BuildingBlock: XOMCOT_clean_sbu_1, # of connection points: 5
#     Node 11, Type 0, BuildingBlock: XOMCOT_clean_sbu_1, # of connection points: 5
#     Node 12, Type 0, BuildingBlock: XOMCOT_clean_sbu_1, # of connection points: 5
#     Node 13, Type 0, BuildingBlock: XOMCOT_clean_sbu_1, # of connection points: 5
#     Node 14, Type 0, BuildingBlock: XOMCOT_clean_sbu_1, # of connection points: 5
#     Node 15, Type 0, BuildingBlock: XOMCOT_clean_sbu_1, # of connection points: 5
#     Edge 16, Type (0, 0), BuildingBlock: AJUNOK_clean_linker_0, # of connection points: 2
#     Edge 17, Type (0, 0), BuildingBlock: AJUNOK_clean_linker_0, # of connection points: 2
#     Edge 18, Type (0, 0), BuildingBlock: AJUNOK_clean_linker_0, # of connection points: 2
#     Edge 19, Type (0, 0), BuildingBlock: AJUNOK_clean_linker_0, # of connection points: 2
#     Edge 20, Type (0, 0), BuildingBlock: AJUNOK_clean_linker_0, # of connection points: 2
#     Edge 21, Type (0, 0), BuildingBlock: AJUNOK_clean_linker_0, # of connection points: 2
#     Edge 22, Type (0, 0), BuildingBlock: AJUNOK_clean_linker_0, # of connection points: 2
#     Edge 23, Type (0, 0), BuildingBlock: AJUNOK_clean_linker_0, # of connection points: 2
#     Edge 24, Type (0, 0), BuildingBlock: AJUNOK_clean_linker_0, # of connection points: 2
#     Edge 25, Type (0, 0), BuildingBlock: AJUNOK_clean_linker_0, # of connection points: 2
#     Edge 26, Type (0, 0), BuildingBlock: AJUNOK_clean_linker_0, # of connection points: 2
#     Edge 27, Type (0, 0), BuildingBlock: AJUNOK_clean_linker_0, # of connection points: 2
#     Edge 28, Type (0, 0), BuildingBlock: AJUNOK_clean_linker_0, # of connection points: 2
#     Edge 29, Type (0, 0), BuildingBlock: AJUNOK_clean_linker_0, # of connection points: 2
#     Edge 30, Type (0, 0), BuildingBlock: AJUNOK_clean_linker_0, # of connection points: 2
#     Edge 31, Type (0, 0), BuildingBlock: AJUNOK_clean_linker_0, # of connection points: 2
#     Edge 32, Type (0, 0), BuildingBlock: AJUNOK_clean_linker_0, # of connection points: 2
#     Edge 33, Type (0, 0), BuildingBlock: AJUNOK_clean_linker_0, # of connection points: 2
#     Edge 34, Type (0, 0), BuildingBlock: AJUNOK_clean_linker_0, # of connection points: 2
#     Edge 35, Type (0, 0), BuildingBlock: AJUNOK_clean_linker_0, # of connection points: 2
#     Edge 36, Type (0, 0), BuildingBlock: AJUNOK_clean_linker_0, # of connection points: 2
#     Edge 37, Type (0, 0), BuildingBlock: AJUNOK_clean_linker_0, # of connection points: 2
#     Edge 38, Type (0, 0), BuildingBlock: AJUNOK_clean_linker_0, # of connection points: 2
#     Edge 39, Type (0, 0), BuildingBlock: AJUNOK_clean_linker_0, # of connection points: 2
#     Edge 40, Type (0, 0), BuildingBlock: AJUNOK_clean_linker_0, # of connection points: 2
#     Edge 41, Type (0, 0), BuildingBlock: AJUNOK_clean_linker_0, # of connection points: 2
#     Edge 42, Type (0, 0), BuildingBlock: AJUNOK_clean_linker_0, # of connection points: 2
#     Edge 43, Type (0, 0), BuildingBlock: AJUNOK_clean_linker_0, # of connection points: 2
#     Edge 44, Type (0, 0), BuildingBlock: AJUNOK_clean_linker_0, # of connection points: 2
#     Edge 45, Type (0, 0), BuildingBlock: AJUNOK_clean_linker_0, # of connection points: 2
#     Edge 46, Type (0, 0), BuildingBlock: AJUNOK_clean_linker_0, # of connection points: 2
#     Edge 47, Type (0, 0), BuildingBlock: AJUNOK_clean_linker_0, # of connection points: 2
#     Edge 48, Type (0, 0), BuildingBlock: AJUNOK_clean_linker_0, # of connection points: 2
#     Edge 49, Type (0, 0), BuildingBlock: AJUNOK_clean_linker_0, # of connection points: 2
#     Edge 50, Type (0, 0), BuildingBlock: AJUNOK_clean_linker_0, # of connection points: 2
#     Edge 51, Type (0, 0), BuildingBlock: AJUNOK_clean_linker_0, # of connection points: 2
#     Edge 52, Type (0, 0), BuildingBlock: AJUNOK_clean_linker_0, # of connection points: 2
#     Edge 53, Type (0, 0), BuildingBlock: AJUNOK_clean_linker_0, # of connection points: 2
#     Edge 54, Type (0, 0), BuildingBlock: AJUNOK_clean_linker_0, # of connection points: 2
#     Edge 55, Type (0, 0), BuildingBlock: AJUNOK_clean_linker_0, # of connection points: 2
# Relax obj value: 0.561
# Max RMSD: 0.213
# Mean RMSD: 0.213
data_MOF--net-bcu-i--node1-XOMCOT_clean_sbu_1--edge1-AJUNOK_clean_linker_0
_symmetry_space_group_name_H-M    P1
_symmetry_Int_Tables_number       1
_symmetry_cell_setting            triclinic
loop_
_symmetry_equiv_pos_as_xyz
'x, y, z'
_cell_length_a     40.023019
_cell_length_b     40.076119
_cell_length_c     32.147016
_cell_angle_alpha  89.828072
_cell_angle_beta   90.092161
_cell_angle_gamma 89.969238
loop_
_atom_site_label
_atom_site_type_symbol
_atom_site_fract_x
_atom_site_fract_y
_atom_site_fract_z
_atom_type_partial_charge
C0 C 0.14062 0.09318 0.29068 0.0
C1 C 0.1099 0.10771 0.2842 0.0
N2 N 0.09568 0.11274 0.32158 0.0
N3 N 0.1456 0.08941 0.33192 0.0
C4 C 0.1175 0.10105 0.34987 0.0
H5 H 0.15876 0.08701 0.26701 0.0
Co6 Co 0.18484 0.07549 0.35694 0.0
C7 C 0.18477 0.11036 0.43804 0.0
O8 O 0.21665 0.11737 0.4336 0.0
N9 N 0.22451 0.0605 0.38234 0.0
C10 C 0.27575 0.04357 0.40015 0.0
C11 C 0.25685 0.05945 0.37005 0.0
C12 C 0.22451 0.04463 0.41938 0.0
N13 N 0.2552 0.03486 0.43131 0.0
O14 O 0.16473 0.03385 0.36869 0.0
H15 H 0.26644 0.06873 0.34092 0.0
H16 H 0.20205 0.03961 0.43706 0.0
O17 O 0.16961 0.09358 0.41006 0.0
C18 C 0.16733 0.01627 0.33599 0.0
O19 O 0.18409 0.02829 0.30419 0.0
N20 N 0.20406 0.11567 0.34079 0.0
C21 C 0.22594 0.17092 0.29643 0.0
C22 C 0.20526 0.17507 0.33104 0.0
C23 C 0.19374 0.14689 0.35225 0.0
C24 C 0.22314 0.11146 0.30624 0.0
C25 C 0.23485 0.13873 0.28399 0.0
H26 H 0.17506 0.15033 0.37596 0.0
H27 H 0.22778 0.08663 0.29458 0.0
H28 H 0.11358 0.10268 0.38308 0.0
H29 H 0.09925 0.11488 0.25452 0.0
H30 H 0.30232 0.03857 0.39911 0.0
H31 H 0.19706 0.19966 0.34048 0.0
H32 H 0.25036 0.13465 0.25688 0.0
C33 C 0.90692 0.14373 0.29452 0.0
C34 C 0.89563 0.11235 0.28433 0.0
N35 N 0.8829 0.09829 0.31894 0.0
N36 N 0.90109 0.14919 0.33521 0.0
C37 C 0.88677 0.12091 0.34931 0.0
H38 H 0.91792 0.16175 0.27352 0.0
Co39 Co 0.9093 0.18852 0.36285 0.0
C40 C 0.86844 0.18406 0.4393 0.0
O41 O 0.85959 0.2154 0.43406 0.0
N42 N 0.91884 0.2286 0.3909 0.0
C43 C 0.93459 0.27994 0.40921 0.0
C44 C 0.92077 0.26075 0.37801 0.0
C45 C 0.93179 0.22906 0.42965 0.0
N46 N 0.94092 0.25979 0.44172 0.0
O47 O 0.95147 0.17156 0.3789 0.0
H48 H 0.91456 0.26977 0.34734 0.0
H49 H 0.93635 0.20678 0.44795 0.0
O50 O 0.8884 0.17048 0.41336 0.0
C51 C 0.97248 0.18185 0.35211 0.0
O52 O 0.9621 0.20306 0.32363 0.0
N53 N 0.86912 0.20479 0.3421 0.0
C54 C 0.81611 0.22376 0.29143 0.0
C55 C 0.81077 0.20218 0.32508 0.0
C56 C 0.83791 0.19218 0.34949 0.0
C57 C 0.87467 0.22475 0.30854 0.0
C58 C 0.84848 0.23516 0.28335 0.0
H59 H 0.83389 0.17305 0.37258 0.0
H60 H 0.89993 0.23133 0.30006 0.0
H61 H 0.87793 0.11721 0.38074 0.0
H62 H 0.89633 0.10095 0.25386 0.0
H63 H 0.94072 0.30621 0.40759 0.0
H64 H 0.7861 0.19237 0.33158 0.0
H65 H 0.85362 0.25189 0.25761 0.0
C66 C 0.84977 0.90545 0.28623 0.0
C67 C 0.8814 0.89374 0.27816 0.0
N68 N 0.89398 0.88104 0.31374 0.0
N69 N 0.84254 0.89986 0.32656 0.0
C70 C 0.8699 0.88489 0.34248 0.0
H71 H 0.83295 0.91702 0.26413 0.0
Co72 Co 0.80299 0.91101 0.3521 0.0
C73 C 0.80328 0.87376 0.43169 0.0
O74 O 0.77155 0.86665 0.42585 0.0
N75 N 0.76275 0.92355 0.37786 0.0
C76 C 0.71088 0.93759 0.39639 0.0
C77 C 0.73029 0.92308 0.36589 0.0
C78 C 0.76231 0.93888 0.4151 0.0
N79 N 0.73133 0.94715 0.42729 0.0
O80 O 0.82155 0.9529 0.36578 0.0
H81 H 0.72092 0.91349 0.33682 0.0
H82 H 0.7846 0.94431 0.43299 0.0
O83 O 0.81882 0.89151 0.40484 0.0
C84 C 0.81362 0.97323 0.33692 0.0
O85 O 0.79301 0.96284 0.30786 0.0
N86 N 0.78531 0.87094 0.33381 0.0
C87 C 0.7615 0.81671 0.2896 0.0
C88 C 0.78256 0.81175 0.32383 0.0
C89 C 0.79519 0.83945 0.34484 0.0
C90 C 0.76636 0.87596 0.29922 0.0
C91 C 0.75362 0.84921 0.27707 0.0
H92 H 0.81373 0.83538 0.36868 0.0
H93 H 0.76168 0.90108 0.28832 0.0
H94 H 0.87188 0.87592 0.37412 0.0
H95 H 0.89415 0.89438 0.24849 0.0
H96 H 0.68403 0.94081 0.39593 0.0
H97 H 0.78971 0.78684 0.33352 0.0
H98 H 0.73752 0.85391 0.25056 0.0
C99 C 0.10235 0.83713 0.28201 0.0
C100 C 0.11301 0.86921 0.27468 0.0
N101 N 0.11169 0.88616 0.31082 0.0
N102 N 0.09499 0.83384 0.32267 0.0
C103 C 0.10061 0.86413 0.33934 0.0
H104 H 0.10075 0.81729 0.25938 0.0
Co105 Co 0.08066 0.7957 0.34915 0.0
C106 C 0.11595 0.79549 0.42973 0.0
O107 O 0.12051 0.7632 0.4256 0.0
N108 N 0.06483 0.75703 0.37608 0.0
C109 C 0.04762 0.70671 0.39696 0.0
C110 C 0.06433 0.72416 0.36633 0.0
C111 C 0.04788 0.75874 0.41221 0.0
N112 N 0.03755 0.72873 0.42576 0.0
O113 O 0.03986 0.81717 0.36078 0.0
H114 H 0.07489 0.71311 0.3388 0.0
H115 H 0.04292 0.78189 0.42836 0.0
O116 O 0.09996 0.81165 0.40171 0.0
C117 C 0.01955 0.81214 0.33104 0.0
O118 O 0.02907 0.79273 0.30036 0.0
N119 N 0.12021 0.77505 0.33343 0.0
C120 C 0.17493 0.74869 0.29223 0.0
C121 C 0.17962 0.77109 0.325 0.0
C122 C 0.15174 0.78478 0.34458 0.0
C123 C 0.11548 0.75461 0.30026 0.0
C124 C 0.14246 0.74064 0.27966 0.0
H125 H 0.1557 0.80436 0.36698 0.0
H126 H 0.09049 0.75023 0.28869 0.0
H127 H 0.09668 0.86999 0.3718 0.0
H128 H 0.12217 0.87883 0.24536 0.0
H129 H 0.0434 0.68005 0.39808 0.0
H130 H 0.20447 0.77874 0.33434 0.0
H131 H 0.13797 0.72386 0.25388 0.0
C132 C 0.1393 0.90152 0.70276 0.0
C133 C 0.1075 0.89036 0.71104 0.0
N134 N 0.09558 0.87554 0.67651 0.0
N135 N 0.14728 0.89353 0.66335 0.0
C136 C 0.12025 0.87758 0.6482 0.0
H137 H 0.15557 0.91471 0.72396 0.0
Co138 Co 0.18691 0.90442 0.63787 0.0
C139 C 0.18757 0.86811 0.55856 0.0
O140 O 0.21957 0.86256 0.56461 0.0
N141 N 0.22739 0.91693 0.6121 0.0
C142 C 0.27913 0.93285 0.59511 0.0
C143 C 0.26009 0.91448 0.62277 0.0
C144 C 0.22748 0.93648 0.5779 0.0
N145 N 0.25823 0.94669 0.56734 0.0
O146 O 0.16847 0.94662 0.62428 0.0
H147 H 0.26975 0.90173 0.64983 0.0
H148 H 0.20506 0.94445 0.5618 0.0
O149 O 0.1712 0.88528 0.58512 0.0
C150 C 0.17887 0.96768 0.65085 0.0
O151 O 0.20012 0.95746 0.67938 0.0
N152 N 0.20431 0.8641 0.65622 0.0
C153 C 0.2253 0.80958 0.70276 0.0
C154 C 0.2046 0.80498 0.6681 0.0
C155 C 0.19366 0.83282 0.64566 0.0
C156 C 0.22311 0.86887 0.69094 0.0
C157 C 0.23442 0.84197 0.71425 0.0
H158 H 0.17542 0.82911 0.62139 0.0
H159 H 0.22858 0.89395 0.70122 0.0
H160 H 0.11887 0.86694 0.6174 0.0
H161 H 0.09407 0.89316 0.74002 0.0
H162 H 0.30578 0.93728 0.59672 0.0
H163 H 0.19621 0.78031 0.65928 0.0
H164 H 0.25013 0.8465 0.74112 0.0
C165 C 0.09586 0.1386 0.70872 0.0
C166 C 0.11072 0.10804 0.71476 0.0
N167 N 0.11477 0.09374 0.67729 0.0
N168 N 0.09094 0.14342 0.66763 0.0
C169 C 0.10224 0.11537 0.64933 0.0
H170 H 0.09013 0.15672 0.73254 0.0
Co171 Co 0.07591 0.18252 0.64348 0.0
C172 C 0.10849 0.184 0.56095 0.0
O173 O 0.1138 0.2162 0.56443 0.0
N174 N 0.05991 0.22272 0.61898 0.0
C175 C 0.05117 0.2748 0.59605 0.0
C176 C 0.07075 0.25477 0.6211 0.0
C177 C 0.03369 0.22431 0.59252 0.0
N178 N 0.02764 0.25546 0.57881 0.0
O179 O 0.03472 0.16126 0.63221 0.0
H180 H 0.09233 0.26337 0.6381 0.0
H181 H 0.01997 0.20283 0.58161 0.0
O182 O 0.09343 0.1683 0.58996 0.0
C183 C 0.01652 0.16239 0.66453 0.0
O184 O 0.02797 0.17787 0.6976 0.0
N185 N 0.11574 0.20225 0.65924 0.0
C186 C 0.17079 0.22523 0.70298 0.0
C187 C 0.17516 0.20489 0.66808 0.0
C188 C 0.14709 0.19297 0.64699 0.0
C189 C 0.11125 0.22098 0.69399 0.0
C190 C 0.13841 0.23323 0.71594 0.0
H191 H 0.15071 0.17497 0.62254 0.0
H192 H 0.08621 0.22595 0.705 0.0
H193 H 0.10285 0.11132 0.61609 0.0
H194 H 0.11863 0.09745 0.7442 0.0
H195 H 0.05428 0.30125 0.59034 0.0
H196 H 0.1999 0.19748 0.65808 0.0
H197 H 0.1341 0.24883 0.74288 0.0
C198 C 0.83423 0.10139 0.71011 0.0
C199 C 0.86586 0.1134 0.71679 0.0
N200 N 0.88377 0.10938 0.68163 0.0
N201 N 0.83203 0.09023 0.67074 0.0
C202 C 0.8627 0.09475 0.65443 0.0
H203 H 0.81395 0.10146 0.73227 0.0
Co204 Co 0.79424 0.07415 0.64448 0.0
C205 C 0.79503 0.1062 0.56166 0.0
O206 O 0.76253 0.11046 0.56384 0.0
N207 N 0.7558 0.0571 0.61768 0.0
C208 C 0.70505 0.04384 0.59367 0.0
C209 C 0.72254 0.06264 0.62218 0.0
C210 C 0.75755 0.03478 0.58643 0.0
N211 N 0.72733 0.02628 0.57162 0.0
O212 O 0.81678 0.03327 0.63496 0.0
H213 H 0.71114 0.07948 0.64404 0.0
H214 H 0.78074 0.02559 0.57355 0.0
O215 O 0.81052 0.09194 0.59159 0.0
C216 C 0.81773 0.01553 0.66777 0.0
O217 O 0.80388 0.02709 0.70186 0.0
N218 N 0.77268 0.11359 0.65815 0.0
C219 C 0.74645 0.16833 0.69915 0.0
C220 C 0.7678 0.17293 0.66519 0.0
C221 C 0.78141 0.14503 0.64559 0.0
C222 C 0.75274 0.10899 0.69191 0.0
C223 C 0.73891 0.13598 0.71249 0.0
H224 H 0.80035 0.14895 0.62227 0.0
H225 H 0.74845 0.08402 0.70363 0.0
H226 H 0.86934 0.08704 0.62335 0.0
H227 H 0.87466 0.12505 0.74509 0.0
H228 H 0.67821 0.04301 0.58956 0.0
H229 H 0.77487 0.19774 0.65507 0.0
H230 H 0.72273 0.1316 0.73895 0.0
C231 C 0.88287 0.83392 0.70941 0.0
C232 C 0.87104 0.86544 0.71736 0.0
N233 N 0.87271 0.88344 0.68191 0.0
N234 N 0.89162 0.83202 0.66905 0.0
C235 C 0.88587 0.8627 0.65335 0.0
H236 H 0.88427 0.81348 0.73137 0.0
Co237 Co 0.90631 0.79461 0.64132 0.0
C238 C 0.87411 0.79805 0.55874 0.0
O239 O 0.86889 0.7657 0.56032 0.0
N240 N 0.9222 0.75651 0.6131 0.0
C241 C 0.93545 0.7061 0.58853 0.0
C242 C 0.91661 0.72329 0.61728 0.0
C243 C 0.94446 0.75858 0.58174 0.0
N244 N 0.953 0.72857 0.56658 0.0
O245 O 0.94752 0.81616 0.63219 0.0
H246 H 0.90004 0.71173 0.63942 0.0
H247 H 0.95398 0.78188 0.56947 0.0
O248 O 0.88875 0.81258 0.58901 0.0
C249 C 0.96761 0.81083 0.66211 0.0
O250 O 0.95774 0.79154 0.69287 0.0
N251 N 0.86635 0.77393 0.65474 0.0
C252 C 0.81126 0.74949 0.69698 0.0
C253 C 0.80689 0.77116 0.6632 0.0
C254 C 0.83502 0.78386 0.64295 0.0
C255 C 0.87073 0.75339 0.68805 0.0
C256 C 0.84354 0.74045 0.70923 0.0
H257 H 0.83145 0.80313 0.61988 0.0
H258 H 0.89571 0.74811 0.69916 0.0
H259 H 0.89155 0.86967 0.62165 0.0
H260 H 0.86107 0.87411 0.74668 0.0
H261 H 0.9366 0.67931 0.58455 0.0
H262 H 0.78217 0.77927 0.65385 0.0
H263 H 0.84774 0.72394 0.73549 0.0
C264 C 0.64123 0.58842 0.7905 0.0
C265 C 0.61037 0.60122 0.78039 0.0
N266 N 0.59515 0.61036 0.81592 0.0
N267 N 0.64526 0.5897 0.83208 0.0
C268 C 0.61662 0.60281 0.84677 0.0
H269 H 0.65974 0.57906 0.769 0.0
Co270 Co 0.68302 0.57644 0.8603 0.0
C271 C 0.68271 0.61411 0.93885 0.0
O272 O 0.71483 0.61924 0.93338 0.0
N273 N 0.72141 0.56167 0.88887 0.0
C274 C 0.77149 0.54546 0.912 0.0
C275 C 0.75442 0.56066 0.87972 0.0
C276 C 0.7192 0.54647 0.92622 0.0
N277 N 0.74909 0.53721 0.94132 0.0
O278 O 0.66159 0.53575 0.87293 0.0
H279 H 0.76574 0.56977 0.85148 0.0
H280 H 0.69578 0.54198 0.94212 0.0
O281 O 0.66644 0.59709 0.91194 0.0
C282 C 0.66989 0.51524 0.84463 0.0
O283 O 0.69245 0.52462 0.81731 0.0
N284 N 0.70358 0.61542 0.84271 0.0
C285 C 0.72684 0.66788 0.79447 0.0
C286 C 0.70565 0.67412 0.82811 0.0
C287 C 0.69339 0.64727 0.85124 0.0
C288 C 0.72363 0.60918 0.80951 0.0
C289 C 0.73606 0.63506 0.78542 0.0
H290 H 0.67427 0.65212 0.87404 0.0
H291 H 0.7285 0.58373 0.80031 0.0
H292 H 0.61171 0.60756 0.87929 0.0
H293 H 0.59991 0.60354 0.74945 0.0
H294 H 0.7981 0.54084 0.91383 0.0
H295 H 0.6976 0.69928 0.83522 0.0
H296 H 0.75233 0.6294 0.75946 0.0
C297 C 0.39299 0.64225 0.78622 0.0
C298 C 0.37934 0.61184 0.77611 0.0
N299 N 0.36905 0.59712 0.81155 0.0
N300 N 0.3912 0.64644 0.82773 0.0
C301 C 0.37674 0.61841 0.84233 0.0
H302 H 0.4032 0.66038 0.76474 0.0
Co303 Co 0.4047 0.684 0.85584 0.0
C304 C 0.37294 0.67964 0.93855 0.0
O305 O 0.36708 0.71189 0.93695 0.0
N306 N 0.41943 0.72243 0.88414 0.0
C307 C 0.43172 0.77311 0.90851 0.0
C308 C 0.4133 0.75551 0.87961 0.0
C309 C 0.44157 0.7208 0.91572 0.0
N310 N 0.44955 0.75098 0.93078 0.0
O311 O 0.44684 0.66375 0.86437 0.0
H312 H 0.39671 0.7666 0.85699 0.0
H313 H 0.45145 0.69768 0.92814 0.0
O314 O 0.38794 0.66545 0.90832 0.0
C315 C 0.4665 0.67278 0.83539 0.0
O316 O 0.45543 0.69435 0.80777 0.0
N317 N 0.36415 0.70341 0.84235 0.0
C318 C 0.30883 0.72583 0.79857 0.0
C319 C 0.30466 0.70526 0.83342 0.0
C320 C 0.33293 0.69345 0.8544 0.0
C321 C 0.36831 0.72312 0.80826 0.0
C322 C 0.34101 0.73509 0.78631 0.0
H323 H 0.32957 0.67488 0.87837 0.0
H324 H 0.39324 0.72861 0.79726 0.0
H325 H 0.371 0.61384 0.8747 0.0
H326 H 0.37726 0.60135 0.74523 0.0
H327 H 0.43243 0.79992 0.91235 0.0
H328 H 0.28 0.69733 0.8431 0.0
H329 H 0.34505 0.75108 0.75954 0.0
C330 C 0.33398 0.38909 0.78213 0.0
C331 C 0.36634 0.37949 0.77412 0.0
N332 N 0.38417 0.38236 0.80957 0.0
N333 N 0.3314 0.39739 0.82257 0.0
C334 C 0.36244 0.39356 0.83824 0.0
H335 H 0.31336 0.38866 0.76036 0.0
Co336 Co 0.29295 0.40833 0.85136 0.0
C337 C 0.31691 0.40212 0.93772 0.0
O338 O 0.30819 0.43294 0.94612 0.0
N339 N 0.25363 0.41952 0.88122 0.0
C340 C 0.20824 0.4164 0.92119 0.0
C341 C 0.22847 0.3994 0.89392 0.0
C342 C 0.24752 0.44869 0.9008 0.0
N343 N 0.22053 0.44741 0.92581 0.0
O344 O 0.31158 0.45078 0.86139 0.0
H345 H 0.22607 0.37321 0.88663 0.0
H346 H 0.26468 0.46942 0.90072 0.0
O347 O 0.31205 0.39017 0.90157 0.0
C348 C 0.30487 0.46956 0.8305 0.0
O349 O 0.28602 0.4575 0.80062 0.0
N350 N 0.27531 0.36762 0.83696 0.0
C351 C 0.25329 0.31162 0.79528 0.0
C352 C 0.27514 0.30824 0.82909 0.0
C353 C 0.28638 0.33691 0.84941 0.0
C354 C 0.25324 0.37105 0.80508 0.0
C355 C 0.24174 0.34331 0.78388 0.0
H356 H 0.30492 0.33443 0.87367 0.0
H357 H 0.2456 0.39573 0.79518 0.0
H358 H 0.36894 0.39824 0.87035 0.0
H359 H 0.37545 0.3694 0.74509 0.0
H360 H 0.18768 0.40588 0.93867 0.0
H361 H 0.28423 0.28393 0.83862 0.0
H362 H 0.22429 0.34661 0.75839 0.0
C363 C 0.59198 0.34238 0.7829 0.0
C364 C 0.60356 0.37408 0.77485 0.0
N365 N 0.60234 0.39166 0.8105 0.0
N366 N 0.58417 0.34005 0.82358 0.0
C367 C 0.59007 0.37059 0.83925 0.0
H368 H 0.59083 0.32194 0.76107 0.0
Co369 Co 0.57182 0.30254 0.8535 0.0
C370 C 0.58384 0.3256 0.93905 0.0
O371 O 0.55318 0.31763 0.94966 0.0
N372 N 0.55953 0.26442 0.88436 0.0
C373 C 0.56188 0.22015 0.92628 0.0
C374 C 0.57999 0.24098 0.90087 0.0
C375 C 0.52914 0.25701 0.90007 0.0
N376 N 0.52987 0.2304 0.92593 0.0
O377 O 0.53097 0.32421 0.86666 0.0
H378 H 0.60679 0.24018 0.89701 0.0
H379 H 0.50741 0.27265 0.89588 0.0
O380 O 0.59392 0.32023 0.90214 0.0
C381 C 0.51283 0.32258 0.83414 0.0
O382 O 0.52352 0.30507 0.80231 0.0
N383 N 0.61038 0.28186 0.83614 0.0
C384 C 0.66269 0.25474 0.79167 0.0
C385 C 0.66914 0.2773 0.82385 0.0
C386 C 0.64234 0.29108 0.84561 0.0
C387 C 0.6039 0.25919 0.80584 0.0
C388 C 0.62976 0.24517 0.78324 0.0
H389 H 0.64728 0.30996 0.86863 0.0
H390 H 0.57829 0.25299 0.7983 0.0
H391 H 0.5873 0.37676 0.87175 0.0
H392 H 0.61345 0.38308 0.74558 0.0
H393 H 0.57191 0.20036 0.94561 0.0
H394 H 0.69445 0.28492 0.8311 0.0
H395 H 0.62409 0.22724 0.75907 0.0
C396 C 0.6398 0.37586 0.21939 0.0
C397 C 0.60933 0.3609 0.22595 0.0
N398 N 0.59241 0.3612 0.18971 0.0
N399 N 0.642 0.38522 0.17915 0.0
C400 C 0.61239 0.37672 0.16222 0.0
H401 H 0.6594 0.37894 0.24223 0.0
Co402 Co 0.67918 0.40291 0.15282 0.0
C403 C 0.67373 0.38015 0.06406 0.0
O404 O 0.70607 0.38137 0.05748 0.0
N405 N 0.71707 0.42146 0.1265 0.0
C406 C 0.76773 0.43343 0.10152 0.0
C407 C 0.74984 0.41291 0.12773 0.0
C408 C 0.71601 0.44741 0.09962 0.0
N409 N 0.7463 0.45528 0.08437 0.0
O410 O 0.65611 0.44382 0.14652 0.0
H411 H 0.76042 0.39245 0.14519 0.0
H412 H 0.69312 0.45922 0.08933 0.0
O413 O 0.66179 0.3877 0.09959 0.0
C414 C 0.65495 0.46029 0.18017 0.0
O415 O 0.6695 0.44807 0.21358 0.0
N416 N 0.70129 0.36327 0.16297 0.0
C417 C 0.72893 0.30695 0.19936 0.0
C418 C 0.71004 0.30412 0.16281 0.0
C419 C 0.69583 0.3328 0.14525 0.0
C420 C 0.71952 0.36619 0.19848 0.0
C421 C 0.73387 0.33843 0.21697 0.0
H422 H 0.67933 0.33008 0.11894 0.0
H423 H 0.72217 0.39038 0.21298 0.0
H424 H 0.60581 0.38085 0.13001 0.0
H425 H 0.60054 0.35022 0.25489 0.0
H426 H 0.79421 0.43201 0.09491 0.0
H427 H 0.7054 0.27998 0.1489 0.0
H428 H 0.74851 0.34153 0.24508 0.0
C429 C 0.59767 0.64428 0.21929 0.0
C430 C 0.60702 0.61221 0.22884 0.0
N431 N 0.60499 0.59379 0.19391 0.0
N432 N 0.5904 0.64615 0.17841 0.0
C433 C 0.59494 0.61501 0.16377 0.0
H434 H 0.59645 0.66499 0.2407 0.0
Co435 Co 0.57589 0.68383 0.15071 0.0
C436 C 0.61123 0.68324 0.07047 0.0
O437 O 0.61585 0.71553 0.07451 0.0
N438 N 0.55986 0.72213 0.12305 0.0
C439 C 0.54224 0.77237 0.10221 0.0
C440 C 0.55887 0.75496 0.13299 0.0
C441 C 0.5432 0.72039 0.08663 0.0
N442 N 0.53265 0.75039 0.07312 0.0
O443 O 0.53512 0.66199 0.13897 0.0
H444 H 0.56894 0.76605 0.16078 0.0
H445 H 0.53856 0.69726 0.07028 0.0
O446 O 0.59526 0.66712 0.09849 0.0
C447 C 0.51655 0.66151 0.17095 0.0
O448 O 0.52662 0.67663 0.20493 0.0
N449 N 0.61553 0.70473 0.16609 0.0
C450 C 0.67101 0.73109 0.20589 0.0
C451 C 0.67506 0.70782 0.174 0.0
C452 C 0.64684 0.69416 0.15518 0.0
C453 C 0.61139 0.72594 0.19862 0.0
C454 C 0.63878 0.73997 0.21847 0.0
H455 H 0.65036 0.67387 0.13368 0.0
H456 H 0.5866 0.73075 0.2105 0.0
H457 H 0.59064 0.60794 0.13174 0.0
H458 H 0.61554 0.60346 0.2589 0.0
H459 H 0.53772 0.79899 0.10122 0.0
H460 H 0.6997 0.69942 0.16483 0.0
H461 H 0.63478 0.75731 0.24377 0.0
C462 C 0.34318 0.57782 0.21168 0.0
C463 C 0.37494 0.58859 0.22071 0.0
N464 N 0.39133 0.59333 0.18457 0.0
N465 N 0.33948 0.57634 0.1701 0.0
C466 C 0.36925 0.58565 0.15438 0.0
H467 H 0.32366 0.57239 0.23391 0.0
Co468 Co 0.30042 0.5652 0.1434 0.0
C469 C 0.30194 0.60279 0.0642 0.0
O470 O 0.27022 0.61008 0.06974 0.0
N471 N 0.26037 0.55253 0.11679 0.0
C472 C 0.20883 0.53487 0.10186 0.0
C473 C 0.22879 0.54965 0.1315 0.0
C474 C 0.25888 0.53879 0.07852 0.0
N475 N 0.22789 0.52866 0.06851 0.0
O476 O 0.31915 0.5232 0.13057 0.0
H477 H 0.22063 0.55609 0.16237 0.0
H478 H 0.2805 0.53491 0.0589 0.0
O479 O 0.31721 0.58468 0.09104 0.0
C480 C 0.31059 0.50323 0.15952 0.0
O481 O 0.2896 0.51392 0.18791 0.0
N482 N 0.28253 0.60563 0.16095 0.0
C483 C 0.26035 0.6606 0.20522 0.0
C484 C 0.28193 0.66489 0.17149 0.0
C485 C 0.29374 0.63682 0.15052 0.0
C486 C 0.26285 0.60126 0.19498 0.0
C487 C 0.25088 0.62839 0.21707 0.0
H488 H 0.31304 0.6403 0.12757 0.0
H489 H 0.25784 0.57639 0.20639 0.0
H490 H 0.37463 0.5872 0.12147 0.0
H491 H 0.38456 0.59399 0.25143 0.0
H492 H 0.18273 0.52827 0.10496 0.0
H493 H 0.2904 0.68953 0.16243 0.0
H494 H 0.23456 0.62419 0.24343 0.0
C495 C 0.3888 0.32888 0.21492 0.0
C496 C 0.37819 0.3602 0.22651 0.0
N497 N 0.37992 0.38036 0.19294 0.0
N498 N 0.39661 0.32945 0.17415 0.0
C499 C 0.39232 0.3614 0.16225 0.0
H500 H 0.38815 0.3066 0.23397 0.0
Co501 Co 0.40293 0.29346 0.13903 0.0
C502 C 0.39337 0.3242 0.057 0.0
O503 O 0.42252 0.31272 0.04497 0.0
N504 N 0.4091 0.25688 0.10279 0.0
C505 C 0.39899 0.21914 0.05355 0.0
C506 C 0.38502 0.23846 0.08421 0.0
C507 C 0.4375 0.24765 0.08326 0.0
N508 N 0.43196 0.22546 0.05259 0.0
O509 O 0.44601 0.31032 0.12704 0.0
H510 H 0.35853 0.24067 0.09005 0.0
H511 H 0.46141 0.25955 0.08803 0.0
O512 O 0.38287 0.31812 0.0936 0.0
C513 C 0.46557 0.29983 0.15548 0.0
O514 O 0.45378 0.27856 0.18297 0.0
N515 N 0.36199 0.27707 0.15519 0.0
C516 C 0.30719 0.25432 0.19876 0.0
C517 C 0.30353 0.28052 0.17028 0.0
C518 C 0.33166 0.29198 0.1489 0.0
C519 C 0.36552 0.25089 0.18177 0.0
C520 C 0.33832 0.23901 0.20389 0.0
H521 H 0.32932 0.31363 0.12905 0.0
H522 H 0.38999 0.24021 0.18705 0.0
H523 H 0.3955 0.37014 0.13069 0.0
H524 H 0.36775 0.36697 0.25636 0.0
H525 H 0.38558 0.20349 0.03182 0.0
H526 H 0.2796 0.29269 0.16589 0.0
H527 H 0.34167 0.21848 0.22553 0.0
C528 C 0.15166 0.95999 0.36281 0.0
C529 C 0.14984 0.98437 0.33151 0.0
C530 C 0.1384 0.92805 0.35624 0.0
C531 C 0.12263 0.91978 0.31839 0.0
H532 H 0.16464 0.96517 0.39168 0.0
H533 H 0.14163 0.9094 0.38034 0.0
S534 S 0.10657 0.9772 0.22992 0.0
N535 N 0.12822 -0.00034 0.26342 0.0
N536 N 0.10229 0.94007 0.25165 0.0
C537 C 0.11896 0.94475 0.28801 0.0
C538 C 0.13282 0.97699 0.29446 0.0
C539 C 0.04279 0.11877 0.35977 0.0
C540 C 0.06575 0.13098 0.33044 0.0
C541 C 0.01314 0.1361 0.36821 0.0
C542 C 0.0058 0.16638 0.34785 0.0
H543 H 0.04746 0.09523 0.37538 0.0
H544 H -0.00455 0.12514 0.38975 0.0
S545 S 0.06095 0.21128 0.27354 0.0
N546 N 0.08129 0.17654 0.28463 0.0
N547 N 0.02594 0.20953 0.30052 0.0
C548 C 0.02964 0.17967 0.3202 0.0
C549 C 0.05953 0.16184 0.31141 0.0
C550 C 0.85395 0.01635 0.3623 0.0
C551 C 0.83004 0.00614 0.33284 0.0
C552 C 0.87128 0.04647 0.35745 0.0
C553 C 0.86561 0.06713 0.32275 0.0
H554 H 0.85957 0.0009 0.38912 0.0
H555 H 0.88955 0.05353 0.38069 0.0
S556 S 0.80402 0.05349 0.23847 0.0
N557 N 0.80039 0.02039 0.26878 0.0
N558 N 0.83328 0.07674 0.26002 0.0
C559 C 0.84147 0.05765 0.29353 0.0
C560 C 0.82356 0.02723 0.29853 0.0
C561 C 0.93754 0.84354 0.28749 0.0
C562 C 0.9254 0.86426 0.31912 0.0
C563 C 0.9677 0.82641 0.29215 0.0
C564 C 0.98705 0.82952 0.32855 0.0
H565 H 0.92337 0.8402 0.25909 0.0
H566 H 0.97594 0.8108 0.26669 0.0
S567 S 0.96634 0.88134 0.42049 0.0
N568 N 0.93499 0.88752 0.38791 0.0
N569 N -0.00822 0.85503 0.39696 0.0
C570 C 0.97514 0.85016 0.36059 0.0
C571 C 0.94427 0.86758 0.35582 0.0
C572 C 0.11814 0.03979 0.64122 0.0
C573 C 0.13219 0.06342 0.66826 0.0
C574 C 0.13412 0.00921 0.63402 0.0
C575 C 0.16476 0.00162 0.65342 0.0
H576 H 0.09415 0.04459 0.62677 0.0
H577 H 0.1218 -0.00899 0.61445 0.0
S578 S 0.21448 0.05832 0.72053 0.0
N579 N 0.18001 0.07936 0.71005 0.0
N580 N 0.21049 0.02224 0.69637 0.0
C581 C 0.18 0.02616 0.67828 0.0
C582 C 0.16357 0.057 0.68581 0.0
C583 C 0.93957 0.12214 0.70934 0.0
C584 C 0.91782 0.11987 0.67508 0.0
C585 C 0.97166 0.13525 0.70517 0.0
C586 C 0.98364 0.14607 0.6664 0.0
H587 H 0.93164 0.11408 0.73992 0.0
H588 H 0.98715 0.13711 0.73275 0.0
S589 S 0.93799 0.14389 0.5661 0.0
N590 N 0.91114 0.12906 0.60043 0.0
N591 N 0.97238 0.15218 0.59252 0.0
C592 C 0.963 0.1426 0.63136 0.0
C593 C 0.92986 0.12983 0.63569 0.0
C594 C 0.8621 0.93956 0.70962 0.0
C595 C 0.86127 0.91721 0.67603 0.0
C596 C 0.84866 0.9716 0.70613 0.0
C597 C 0.83432 0.98277 0.6687 0.0
H598 H 0.87292 0.93211 0.7391 0.0
H599 H 0.8493 0.98768 0.73316 0.0
S600 S 0.82587 0.93448 0.57112 0.0
N601 N 0.84442 0.90861 0.6039 0.0
N602 N 0.82054 0.96961 0.597 0.0
C603 C 0.83427 0.96129 0.63431 0.0
C604 C 0.84742 0.9283 0.63804 0.0
C605 C 0.01901 0.8258 0.7014 0.0
C606 C 0.00063 0.82717 0.66407 0.0
C607 C 0.04987 0.84176 0.70516 0.0
C608 C 0.06371 0.8595 0.67168 0.0
H609 H 0.00943 0.81253 0.72825 0.0
H610 H 0.0632 0.83988 0.7344 0.0
S611 S 0.02588 0.87077 0.56707 0.0
N612 N -0.00131 0.84758 0.59269 0.0
N613 N 0.05672 0.87797 0.60002 0.0
C614 C 0.0458 0.861 0.63402 0.0
C615 C 0.01423 0.84477 0.63017 0.0
C616 C 0.66571 0.46015 0.81003 0.0
C617 C 0.65252 0.48315 0.83867 0.0
C618 C 0.64878 0.43075 0.80033 0.0
C619 C 0.61803 0.42312 0.81891 0.0
H620 H 0.68933 0.46487 0.79471 0.0
H621 H 0.6602 0.41354 0.77869 0.0
S622 S 0.57222 0.47502 0.89527 0.0
N623 N 0.6066 0.49636 0.88537 0.0
N624 N 0.57462 0.44088 0.86677 0.0
C625 C 0.60452 0.4457 0.84776 0.0
C626 C 0.62183 0.47575 0.85777 0.0
C627 C 0.51061 0.63228 0.8579 0.0
C628 C 0.50015 0.65796 0.8309 0.0
C629 C 0.54173 0.61683 0.85284 0.0
C630 C 0.5633 0.62633 0.82046 0.0
H631 H 0.49455 0.62376 0.88285 0.0
H632 H 0.54882 0.59695 0.87397 0.0
S633 S 0.54937 0.69396 0.74361 0.0
N634 N 0.51503 0.69343 0.77196 0.0
N635 N 0.57339 0.66419 0.76286 0.0
C636 C 0.55358 0.65233 0.79384 0.0
C637 C 0.52205 0.66823 0.79901 0.0
C638 C 0.34453 0.51363 0.85454 0.0
C639 C 0.31967 0.50317 0.82649 0.0
C640 C 0.3605 0.54444 0.84953 0.0
C641 C 0.35229 0.56572 0.81621 0.0
H642 H 0.35218 0.49771 0.88014 0.0
H643 H 0.37985 0.55145 0.8714 0.0
S644 S 0.28655 0.55195 0.73692 0.0
N645 N 0.28591 0.5179 0.76592 0.0
N646 N 0.31609 0.57576 0.75689 0.0
C647 C 0.32689 0.55611 0.78872 0.0
C648 C 0.31049 0.52486 0.79381 0.0
C649 C 0.4262 0.35565 0.85529 0.0
C650 C 0.41775 0.37091 0.81708 0.0
C651 C 0.45777 0.34132 0.86171 0.0
C652 C 0.48167 0.34157 0.82991 0.0
H653 H 0.40791 0.35348 0.87981 0.0
H654 H 0.46289 0.32864 0.89085 0.0
S655 S 0.47419 0.3829 0.72697 0.0
N656 N 0.43756 0.38899 0.74926 0.0
N657 N 0.49654 0.36126 0.76081 0.0
C658 C 0.47426 0.35818 0.79248 0.0
C659 C 0.44235 0.37304 0.78614 0.0
C660 C 0.62979 0.5484 0.15244 0.0
C661 C 0.61409 0.55932 0.18915 0.0
C662 C 0.64167 0.51565 0.14884 0.0
C663 C 0.63863 0.49304 0.18205 0.0
H664 H 0.63407 0.56561 0.12698 0.0
H665 H 0.65457 0.50845 0.12067 0.0
S666 S 0.59446 0.5074 0.28163 0.0
N667 N 0.59202 0.54344 0.2568 0.0
N668 N 0.61558 0.4823 0.25065 0.0
C669 C 0.62151 0.50306 0.21796 0.0
C670 C 0.60894 0.53614 0.22137 0.0
C671 C 0.46122 0.64564 0.14172 0.0
C672 C 0.48607 0.64141 0.17207 0.0
C673 C 0.43052 0.6291 0.14536 0.0
C674 C 0.42403 0.60754 0.17915 0.0
H675 H 0.46501 0.66285 0.1161 0.0
H676 H 0.41134 0.63423 0.12245 0.0
S677 S 0.4839 0.58391 0.2624 0.0
N678 N 0.50408 0.61185 0.23418 0.0
N679 N 0.44689 0.5797 0.24024 0.0
C680 C 0.44969 0.60166 0.20815 0.0
C681 C 0.48062 0.61887 0.20478 0.0
C682 C 0.36016 0.46578 0.15166 0.0
C683 C 0.32729 0.4708 0.16568 0.0
C684 C 0.37761 0.43648 0.16173 0.0
C685 C 0.36283 0.41143 0.18627 0.0
H686 H 0.37276 0.48489 0.13367 0.0
H687 H 0.40287 0.43333 0.15039 0.0
S688 S 0.27587 0.4107 0.22585 0.0
N689 N 0.2797 0.44716 0.20234 0.0
N690 N 0.31243 0.3921 0.22075 0.0
C691 C 0.32966 0.41574 0.19932 0.0
C692 C 0.3119 0.44544 0.18909 0.0
C693 C 0.50743 0.34526 0.14441 0.0
C694 C 0.49935 0.31382 0.16114 0.0
C695 C 0.53796 0.36062 0.15384 0.0
C696 C 0.56126 0.34512 0.18039 0.0
H697 H 0.48969 0.35855 0.125 0.0
H698 H 0.54312 0.38511 0.14107 0.0
S699 S 0.55414 0.26085 0.22727 0.0
N700 N 0.51852 0.26638 0.20224 0.0
N701 N 0.57583 0.29533 0.21961 0.0
C702 C 0.55408 0.31317 0.19585 0.0
C703 C 0.52314 0.29748 0.18624 0.0
C704 C 0.17585 0.15911 0.48455 0.0
C705 C 0.16513 0.12776 0.47029 0.0
C706 C 0.1568 0.17745 0.5129 0.0
C707 C 0.12655 0.16491 0.52872 0.0
H708 H 0.19888 0.16996 0.47314 0.0
H709 H 0.16627 0.2014 0.52307 0.0
S710 S 0.08764 0.08379 0.50181 0.0
N711 N 0.12232 0.08484 0.47405 0.0
N712 N 0.08676 0.11908 0.5282 0.0
C713 C 0.11563 0.13344 0.51504 0.0
C714 C 0.13483 0.11495 0.48558 0.0
C715 C 0.82034 0.17476 0.48707 0.0
C716 C 0.85101 0.16352 0.47097 0.0
C717 C 0.80218 0.15558 0.51555 0.0
C718 C 0.81419 0.12463 0.52976 0.0
H719 H 0.80988 0.19843 0.47719 0.0
H720 H 0.77878 0.16547 0.52712 0.0
S721 S 0.89289 0.08349 0.49732 0.0
N722 N 0.89239 0.11897 0.471 0.0
N723 N 0.85848 0.08331 0.52565 0.0
C724 C 0.8449 0.11306 0.51431 0.0
C725 C 0.86321 0.13237 0.4846 0.0
C726 C 0.82795 0.80581 0.5077 0.0
C727 C 0.85738 0.81807 0.52602 0.0
C728 C 0.81046 0.82441 0.47794 0.0
C729 C 0.82199 0.85581 0.4646 0.0
H730 H 0.81792 0.78179 0.51688 0.0
H731 H 0.78795 0.81374 0.46478 0.0
S732 S 0.898 0.89912 0.50243 0.0
N733 N 0.89733 0.86371 0.52889 0.0
N734 N 0.86481 0.89841 0.47181 0.0
C735 C 0.85157 0.86834 0.4823 0.0
C736 C 0.86912 0.84959 0.51335 0.0
C737 C 0.12134 0.84365 0.47906 0.0
C738 C 0.1341 0.8137 0.46274 0.0
C739 C 0.13865 0.86119 0.5102 0.0
C740 C 0.16973 0.84982 0.52522 0.0
H741 H 0.09764 0.85337 0.46808 0.0
H742 H 0.12776 0.88391 0.52232 0.0
S743 S 0.21425 0.77308 0.49166 0.0
N744 N 0.17977 0.77367 0.4635 0.0
N745 N 0.21243 0.80662 0.52118 0.0
C746 C 0.18284 0.82006 0.5087 0.0
C747 C 0.16499 0.802 0.47769 0.0
C748 C 0.63265 0.62118 0.98528 0.0
C749 C 0.6651 0.63105 0.97351 0.0
C750 C 0.61539 0.6377 0.01728 0.0
C751 C 0.6297 0.66512 0.03783 0.0
H752 H 0.62049 0.60054 0.96971 0.0
H753 H 0.59046 0.62943 0.02538 0.0
S754 S 0.71441 0.69997 0.02054 0.0
N755 N 0.71121 0.66934 0.98659 0.0
N756 N 0.67857 0.70044 0.04579 0.0
C757 C 0.66218 0.67495 0.0268 0.0
C758 C 0.67994 0.65789 0.9949 0.0
C759 C 0.32758 0.67194 0.99059 0.0
C760 C 0.35638 0.65933 0.97113 0.0
C761 C 0.31006 0.65313 0.02002 0.0
C762 C 0.3209 0.62111 0.03193 0.0
H763 H 0.31801 0.69641 0.98252 0.0
H764 H 0.28804 0.66408 0.034 0.0
S765 S 0.39502 0.57658 0.99089 0.0
N766 N 0.39497 0.61262 0.96578 0.0
N767 N 0.36238 0.57753 0.02229 0.0
C768 C 0.34987 0.60822 0.01323 0.0
C769 C 0.36746 0.62722 0.98248 0.0
C770 C 0.35709 0.35684 0.95598 0.0
C771 C 0.3348 0.38183 0.96906 0.0
C772 C 0.37602 0.33852 0.98468 0.0
C773 C 0.3725 0.34366 0.02768 0.0
H774 H 0.36039 0.35174 0.92322 0.0
H775 H 0.39332 0.31996 0.97304 0.0
S776 S 0.31477 0.40379 0.0782 0.0
N777 N 0.30894 0.40968 0.02786 0.0
N778 N 0.34317 0.37404 0.08207 0.0
C779 C 0.34914 0.36756 0.0413 0.0
C780 C 0.33062 0.38696 0.01194 0.0
C781 C 0.60061 0.3361 0.01281 0.0
C782 C 0.60694 0.34032 0.97011 0.0
C783 C 0.62233 0.34909 0.0429 0.0
C784 C 0.65113 0.36705 0.03152 0.0
H785 H 0.57899 0.32213 0.02319 0.0
H786 H 0.61686 0.3443 0.0753 0.0
S787 S 0.67792 0.3874 0.92404 0.0
N788 N 0.64353 0.3652 0.91805 0.0
N789 N 0.68414 0.38969 0.97474 0.0
C790 C 0.65761 0.37186 0.98901 0.0
C791 C 0.63555 0.35855 0.95829 0.0
C792 C 0.23547 0.2003 0.22935 0.0
C793 C 0.23898 0.1996 0.27292 0.0
C794 C 0.25531 0.22137 0.20501 0.0
C795 C 0.27915 0.24209 0.22371 0.0
H796 H 0.21912 0.18269 0.21392 0.0
H797 H 0.25413 0.21924 0.17144 0.0
S798 S 0.2943 0.2532 0.33644 0.0
N799 N 0.26497 0.22428 0.33384 0.0
N800 N 0.30241 0.26396 0.28785 0.0
C801 C 0.28053 0.24402 0.26724 0.0
C802 C 0.26028 0.22271 0.29202 0.0
C803 C 0.7401 0.27343 0.26288 0.0
C804 C 0.74436 0.27784 0.21978 0.0
C805 C 0.76167 0.25294 0.28569 0.0
C806 C 0.78813 0.23635 0.26599 0.0
H807 H 0.72158 0.28792 0.2795 0.0
H808 H 0.75937 0.25242 0.31927 0.0
S809 S 0.80544 0.23422 0.15279 0.0
N810 N 0.77362 0.2602 0.15746 0.0
N811 N 0.81394 0.22095 0.20034 0.0
C812 C 0.79025 0.23757 0.22236 0.0
C813 C 0.76832 0.2585 0.19915 0.0
C814 C 0.7242 0.76755 0.29081 0.0
C815 C 0.74561 0.78854 0.26822 0.0
C816 C 0.70156 0.74685 0.27019 0.0
C817 C 0.69994 0.74645 0.2265 0.0
H818 H 0.72309 0.76909 0.32443 0.0
H819 H 0.68387 0.73256 0.28848 0.0
S820 S 0.75469 0.79272 0.15367 0.0
N821 N 0.76708 0.80457 0.20038 0.0
N822 N 0.72423 0.76563 0.16144 0.0
C823 C 0.72338 0.76494 0.20369 0.0
C824 C 0.74633 0.78609 0.22468 0.0
C825 C 0.20454 0.73336 0.22721 0.0
C826 C 0.20333 0.733 0.27093 0.0
C827 C 0.22583 0.71183 0.20573 0.0
C828 C 0.24624 0.68927 0.22748 0.0
H829 H 0.18737 0.74881 0.20955 0.0
H830 H 0.22429 0.71093 0.17209 0.0
S831 S 0.25631 0.68261 0.34177 0.0
N832 N 0.22726 0.71144 0.33513 0.0
N833 N 0.26758 0.67096 0.29458 0.0
C834 C 0.2476 0.69096 0.27106 0.0
C835 C 0.22603 0.71294 0.29292 0.0
C836 C 0.25801 0.76095 0.79429 0.0
C837 C 0.2802 0.73886 0.7749 0.0
C838 C 0.23755 0.78189 0.77047 0.0
C839 C 0.23874 0.78118 0.72671 0.0
H840 H 0.25862 0.76416 0.82774 0.0
H841 H 0.22255 0.80045 0.78627 0.0
S842 S 0.28818 0.72305 0.66189 0.0
N843 N 0.2986 0.71363 0.71025 0.0
N844 N 0.26037 0.75338 0.66526 0.0
C845 C 0.25814 0.75663 0.70724 0.0
C846 C 0.27892 0.73534 0.73148 0.0
C847 C 0.22062 0.25923 0.79235 0.0
C848 C 0.24102 0.28258 0.77209 0.0
C849 C 0.19999 0.23799 0.76937 0.0
C850 C 0.19935 0.23957 0.72562 0.0
H851 H 0.21837 0.25944 0.82593 0.0
H852 H 0.18261 0.22205 0.7859 0.0
S853 S 0.25304 0.2922 0.65847 0.0
N854 N 0.26339 0.30267 0.70644 0.0
N855 N 0.22422 0.26294 0.66306 0.0
C856 C 0.22235 0.26023 0.70514 0.0
C857 C 0.24332 0.2818 0.72852 0.0
C858 C 0.71358 0.21971 0.78764 0.0
C859 C 0.68988 0.23982 0.76742 0.0
C860 C 0.73407 0.19832 0.7648 0.0
C861 C 0.73152 0.1967 0.7212 0.0
H862 H 0.71448 0.21862 0.82131 0.0
H863 H 0.75054 0.18143 0.78144 0.0
S864 S 0.6771 0.24846 0.65373 0.0
N865 N 0.66786 0.26019 0.70157 0.0
N866 N 0.70644 0.21969 0.65849 0.0
C867 C 0.71014 0.21895 0.70051 0.0
C868 C 0.6892 0.24061 0.72375 0.0
C869 C 0.76133 0.71885 0.78799 0.0
C870 C 0.74054 0.69515 0.76911 0.0
C871 C 0.78229 0.73892 0.76385 0.0
C872 C 0.78277 0.73591 0.72027 0.0
H873 H 0.76348 0.71991 0.82157 0.0
H874 H 0.79991 0.75518 0.77944 0.0
S875 S 0.72839 0.6819 0.65608 0.0
N876 N 0.71792 0.67311 0.70458 0.0
N877 N 0.75765 0.71087 0.65904 0.0
C878 C 0.75961 0.71482 0.70094 0.0
C879 C 0.73837 0.69432 0.7255 0.0
C880 C 0.28117 0.98656 0.46641 0.0
C881 C 0.26281 0.01646 0.46846 0.0
C882 C 0.28215 0.96456 0.50053 0.0
C883 C 0.26499 0.97219 0.53734 0.0
H884 H 0.29263 0.97906 0.43742 0.0
H885 H 0.29422 0.94053 0.49718 0.0
S886 S 0.21821 0.04964 0.56042 0.0
N887 N 0.2309 0.05436 0.51187 0.0
N888 N 0.23271 0.013 0.57571 0.0
C889 C 0.24906 0.0032 0.54079 0.0
C890 C 0.24798 0.0254 0.50635 0.0
C891 C -0.0084 0.28071 0.47625 0.0
C892 C 0.95938 0.26692 0.47882 0.0
C893 C 0.01336 0.27943 0.51052 0.0
C894 C 0.00333 0.26428 0.54796 0.0
H895 H 0.00081 0.29006 0.44679 0.0
H896 H 0.03886 0.28792 0.5068 0.0
S897 S 0.91941 0.23093 0.57243 0.0
N898 N 0.91696 0.24233 0.52309 0.0
N899 N 0.95786 0.23989 0.58749 0.0
C900 C 0.97027 0.25322 0.55182 0.0
C901 C 0.94825 0.25457 0.51718 0.0
C902 C 0.73962 0.95333 0.50219 0.0
C903 C 0.72343 0.9636 0.46553 0.0
C904 C 0.73866 0.97296 0.53793 0.0
C905 C 0.72151 0.00348 0.5382 0.0
H906 H 0.75455 0.93077 0.50246 0.0
H907 H 0.75272 0.9651 0.56503 0.0
S908 S 0.67303 0.0403 0.45131 0.0
N909 N 0.68791 0.00502 0.43232 0.0
N910 N 0.68613 0.04214 0.50003 0.0
C911 C 0.70327 0.01297 0.50278 0.0
C912 C 0.70423 -0.00709 0.46621 0.0
C913 C 0.00656 0.74135 0.53377 0.0
C914 C 0.9767 0.723 0.53399 0.0
C915 C 0.02746 0.74127 0.49911 0.0
C916 C 0.01917 0.72298 0.46335 0.0
H917 H 0.01307 0.7569 0.56006 0.0
H918 H 0.04965 0.75674 0.49954 0.0
S919 S 0.94462 0.6694 0.44929 0.0
N920 N 0.94061 0.68464 0.49673 0.0
N921 N 0.98003 0.68466 0.43094 0.0
C922 C 0.99037 0.70296 0.46401 0.0
C923 C 0.96905 0.70296 0.49956 0.0
C924 C 0.7724 0.49015 0.98129 0.0
C925 C 0.75441 0.52023 0.98004 0.0
C926 C 0.77156 0.46972 0.01681 0.0
C927 C 0.7527 0.47897 0.05184 0.0
H928 H 0.78524 0.48138 0.95378 0.0
H929 H 0.78382 0.44565 0.0159 0.0
S930 S 0.70666 0.55829 0.06637 0.0
N931 N 0.72124 0.56043 0.0184 0.0
N932 N 0.71971 0.52213 0.08516 0.0
C933 C 0.73697 0.51025 0.05199 0.0
C934 C 0.73783 0.5309 0.01604 0.0
C935 C 0.50315 0.73894 0.96414 0.0
C936 C 0.473 0.75686 0.96365 0.0
C937 C 0.52359 0.7387 -0.00069 0.0
C938 C 0.51455 0.75631 0.03528 0.0
H939 H 0.51018 0.72385 0.93765 0.0
H940 H 0.54598 0.72351 -0.00092 0.0
S941 S 0.4391 0.80874 0.0488 0.0
N942 N 0.4359 0.79417 0.00093 0.0
N943 N 0.47449 0.79367 0.06762 0.0
C944 C 0.48551 0.776 0.03438 0.0
C945 C 0.46463 0.77628 0.99834 0.0
C946 C 0.20827 0.47739 0.03494 0.0
C947 C 0.21899 0.5106 0.03187 0.0
C948 C 0.20613 0.45728 -0.00054 0.0
C949 C 0.21435 0.46996 0.9598 0.0
H950 H 0.20385 0.46635 0.06523 0.0
H951 H 0.20041 0.4311 0.00365 0.0
S952 S 0.23757 0.5575 0.93545 0.0
N953 N 0.23406 0.55657 0.98663 0.0
N954 N 0.22842 0.51946 0.91938 0.0
C955 C 0.22201 0.50414 0.95627 0.0
C956 C 0.22484 0.52428 0.99248 0.0
C957 C 0.51314 0.21488 0.99718 0.0
C958 C 0.50436 0.22177 0.95561 0.0
C959 C 0.48886 0.21361 0.02842 0.0
C960 C 0.45495 0.21897 0.01926 0.0
H961 H 0.53911 0.21279 0.00622 0.0
H962 H 0.49678 0.21025 0.06039 0.0
S963 S 0.41863 0.234 0.91454 0.0
N964 N 0.45915 0.23029 0.90622 0.0
N965 N 0.41354 0.229 0.96513 0.0
C966 C 0.44557 0.22354 0.97742 0.0
C967 C 0.47031 0.2247 0.94557 0.0
loop_
_geom_bond_atom_site_label_1
_geom_bond_atom_site_label_2
_geom_bond_distance
_geom_bond_site_symmetry_2
_ccdc_geom_bond_type
C0 C1 1.351 . S
C0 N3 1.368 . S
C0 H5 0.931 . S
C1 C0 1.351 . S
C1 N2 1.373 . S
C1 H29 0.930 . S
N2 C1 1.373 . S
N2 C4 1.340 . S
N3 C0 1.368 . S
N3 C4 1.321 . S
N3 Co6 2.135 . S
C4 N2 1.340 . S
C4 N3 1.321 . S
C4 H28 0.930 . S
H5 C0 0.931 . S
Co6 N3 2.135 . S
Co6 N9 2.121 . S
Co6 O14 2.055 . S
Co6 O17 2.039 . S
Co6 N20 2.140 . S
C7 O8 1.227 . S
C7 O17 1.265 . S
O8 C7 1.227 . S
N9 Co6 2.121 . S
N9 C11 1.375 . S
N9 C12 1.313 . S
C10 C11 1.338 . S
C10 N13 1.377 . S
C10 H30 0.930 . S
C11 N9 1.375 . S
C11 C10 1.338 . S
C11 H15 0.931 . S
C12 N9 1.313 . S
C12 N13 1.344 . S
C12 H16 0.930 . S
N13 C10 1.377 . S
N13 C12 1.344 . S
O14 Co6 2.055 . S
O14 C18 1.253 . S
H15 C11 0.931 . S
H16 C12 0.930 . S
O17 Co6 2.039 . S
O17 C7 1.265 . S
C18 O14 1.253 . S
C18 O19 1.227 . S
O19 C18 1.227 . S
N20 Co6 2.140 . S
N20 C23 1.346 . S
N20 C24 1.345 . S
C21 C22 1.387 . S
C21 C25 1.391 . S
C22 C21 1.387 . S
C22 C23 1.369 . S
C22 H31 0.929 . S
C23 N20 1.346 . S
C23 C22 1.369 . S
C23 H26 0.928 . S
C24 N20 1.345 . S
C24 C25 1.371 . S
C24 H27 0.931 . S
C25 C21 1.391 . S
C25 C24 1.371 . S
C25 H32 0.930 . S
H26 C23 0.928 . S
H27 C24 0.931 . S
H28 C4 0.930 . S
H29 C1 0.930 . S
H30 C10 0.930 . S
H31 C22 0.929 . S
H32 C25 0.930 . S
C33 C34 1.351 . S
C33 N36 1.368 . S
C33 H38 0.931 . S
C34 C33 1.351 . S
C34 N35 1.373 . S
C34 H62 0.930 . S
N35 C34 1.373 . S
N35 C37 1.340 . S
N36 C33 1.368 . S
N36 C37 1.321 . S
N36 Co39 2.135 . S
C37 N35 1.340 . S
C37 N36 1.321 . S
C37 H61 0.930 . S
H38 C33 0.931 . S
Co39 N36 2.135 . S
Co39 N42 2.121 . S
Co39 O47 2.055 . S
Co39 O50 2.039 . S
Co39 N53 2.140 . S
C40 O41 1.227 . S
C40 O50 1.265 . S
O41 C40 1.227 . S
N42 Co39 2.121 . S
N42 C44 1.375 . S
N42 C45 1.313 . S
C43 C44 1.338 . S
C43 N46 1.377 . S
C43 H63 0.930 . S
C44 N42 1.375 . S
C44 C43 1.338 . S
C44 H48 0.931 . S
C45 N42 1.313 . S
C45 N46 1.344 . S
C45 H49 0.930 . S
N46 C43 1.377 . S
N46 C45 1.344 . S
O47 Co39 2.055 . S
O47 C51 1.253 . S
H48 C44 0.931 . S
H49 C45 0.930 . S
O50 Co39 2.039 . S
O50 C40 1.265 . S
C51 O47 1.253 . S
C51 O52 1.227 . S
O52 C51 1.227 . S
N53 Co39 2.140 . S
N53 C56 1.346 . S
N53 C57 1.345 . S
C54 C55 1.387 . S
C54 C58 1.391 . S
C55 C54 1.387 . S
C55 C56 1.369 . S
C55 H64 0.929 . S
C56 N53 1.346 . S
C56 C55 1.369 . S
C56 H59 0.928 . S
C57 N53 1.345 . S
C57 C58 1.371 . S
C57 H60 0.931 . S
C58 C54 1.391 . S
C58 C57 1.371 . S
C58 H65 0.930 . S
H59 C56 0.928 . S
H60 C57 0.931 . S
H61 C37 0.930 . S
H62 C34 0.930 . S
H63 C43 0.930 . S
H64 C55 0.929 . S
H65 C58 0.930 . S
C66 C67 1.351 . S
C66 N69 1.368 . S
C66 H71 0.931 . S
C67 C66 1.351 . S
C67 N68 1.373 . S
C67 H95 0.930 . S
N68 C67 1.373 . S
N68 C70 1.340 . S
N69 C66 1.368 . S
N69 C70 1.321 . S
N69 Co72 2.135 . S
C70 N68 1.340 . S
C70 N69 1.321 . S
C70 H94 0.930 . S
H71 C66 0.931 . S
Co72 N69 2.135 . S
Co72 N75 2.121 . S
Co72 O80 2.055 . S
Co72 O83 2.039 . S
Co72 N86 2.140 . S
C73 O74 1.227 . S
C73 O83 1.265 . S
O74 C73 1.227 . S
N75 Co72 2.121 . S
N75 C77 1.375 . S
N75 C78 1.313 . S
C76 C77 1.338 . S
C76 N79 1.377 . S
C76 H96 0.930 . S
C77 N75 1.375 . S
C77 C76 1.338 . S
C77 H81 0.931 . S
C78 N75 1.313 . S
C78 N79 1.344 . S
C78 H82 0.930 . S
N79 C76 1.377 . S
N79 C78 1.344 . S
O80 Co72 2.055 . S
O80 C84 1.253 . S
H81 C77 0.931 . S
H82 C78 0.930 . S
O83 Co72 2.039 . S
O83 C73 1.265 . S
C84 O80 1.253 . S
C84 O85 1.227 . S
O85 C84 1.227 . S
N86 Co72 2.140 . S
N86 C89 1.346 . S
N86 C90 1.345 . S
C87 C88 1.387 . S
C87 C91 1.391 . S
C88 C87 1.387 . S
C88 C89 1.369 . S
C88 H97 0.929 . S
C89 N86 1.346 . S
C89 C88 1.369 . S
C89 H92 0.928 . S
C90 N86 1.345 . S
C90 C91 1.371 . S
C90 H93 0.931 . S
C91 C87 1.391 . S
C91 C90 1.371 . S
C91 H98 0.930 . S
H92 C89 0.928 . S
H93 C90 0.931 . S
H94 C70 0.930 . S
H95 C67 0.930 . S
H96 C76 0.930 . S
H97 C88 0.929 . S
H98 C91 0.930 . S
C99 C100 1.351 . S
C99 N102 1.368 . S
C99 H104 0.931 . S
C100 C99 1.351 . S
C100 N101 1.373 . S
C100 H128 0.930 . S
N101 C100 1.373 . S
N101 C103 1.340 . S
N102 C99 1.368 . S
N102 C103 1.321 . S
N102 Co105 2.135 . S
C103 N101 1.340 . S
C103 N102 1.321 . S
C103 H127 0.930 . S
H104 C99 0.931 . S
Co105 N102 2.135 . S
Co105 N108 2.121 . S
Co105 O113 2.055 . S
Co105 O116 2.039 . S
Co105 N119 2.140 . S
C106 O107 1.227 . S
C106 O116 1.265 . S
O107 C106 1.227 . S
N108 Co105 2.121 . S
N108 C110 1.375 . S
N108 C111 1.313 . S
C109 C110 1.338 . S
C109 N112 1.377 . S
C109 H129 0.930 . S
C110 N108 1.375 . S
C110 C109 1.338 . S
C110 H114 0.931 . S
C111 N108 1.313 . S
C111 N112 1.344 . S
C111 H115 0.930 . S
N112 C109 1.377 . S
N112 C111 1.344 . S
O113 Co105 2.055 . S
O113 C117 1.253 . S
H114 C110 0.931 . S
H115 C111 0.930 . S
O116 Co105 2.039 . S
O116 C106 1.265 . S
C117 O113 1.253 . S
C117 O118 1.227 . S
O118 C117 1.227 . S
N119 Co105 2.140 . S
N119 C122 1.346 . S
N119 C123 1.345 . S
C120 C121 1.387 . S
C120 C124 1.391 . S
C121 C120 1.387 . S
C121 C122 1.369 . S
C121 H130 0.929 . S
C122 N119 1.346 . S
C122 C121 1.369 . S
C122 H125 0.928 . S
C123 N119 1.345 . S
C123 C124 1.371 . S
C123 H126 0.931 . S
C124 C120 1.391 . S
C124 C123 1.371 . S
C124 H131 0.930 . S
H125 C122 0.928 . S
H126 C123 0.931 . S
H127 C103 0.930 . S
H128 C100 0.930 . S
H129 C109 0.930 . S
H130 C121 0.929 . S
H131 C124 0.930 . S
C132 C133 1.351 . S
C132 N135 1.368 . S
C132 H137 0.931 . S
C133 C132 1.351 . S
C133 N134 1.373 . S
C133 H161 0.930 . S
N134 C133 1.373 . S
N134 C136 1.340 . S
N135 C132 1.368 . S
N135 C136 1.321 . S
N135 Co138 2.135 . S
C136 N134 1.340 . S
C136 N135 1.321 . S
C136 H160 0.930 . S
H137 C132 0.931 . S
Co138 N135 2.135 . S
Co138 N141 2.121 . S
Co138 O146 2.055 . S
Co138 O149 2.039 . S
Co138 N152 2.140 . S
C139 O140 1.227 . S
C139 O149 1.265 . S
O140 C139 1.227 . S
N141 Co138 2.121 . S
N141 C143 1.375 . S
N141 C144 1.313 . S
C142 C143 1.338 . S
C142 N145 1.377 . S
C142 H162 0.930 . S
C143 N141 1.375 . S
C143 C142 1.338 . S
C143 H147 0.931 . S
C144 N141 1.313 . S
C144 N145 1.344 . S
C144 H148 0.930 . S
N145 C142 1.377 . S
N145 C144 1.344 . S
O146 Co138 2.055 . S
O146 C150 1.253 . S
H147 C143 0.931 . S
H148 C144 0.930 . S
O149 Co138 2.039 . S
O149 C139 1.265 . S
C150 O146 1.253 . S
C150 O151 1.227 . S
O151 C150 1.227 . S
N152 Co138 2.140 . S
N152 C155 1.346 . S
N152 C156 1.345 . S
C153 C154 1.387 . S
C153 C157 1.391 . S
C154 C153 1.387 . S
C154 C155 1.369 . S
C154 H163 0.929 . S
C155 N152 1.346 . S
C155 C154 1.369 . S
C155 H158 0.928 . S
C156 N152 1.345 . S
C156 C157 1.371 . S
C156 H159 0.931 . S
C157 C153 1.391 . S
C157 C156 1.371 . S
C157 H164 0.930 . S
H158 C155 0.928 . S
H159 C156 0.931 . S
H160 C136 0.930 . S
H161 C133 0.930 . S
H162 C142 0.930 . S
H163 C154 0.929 . S
H164 C157 0.930 . S
C165 C166 1.351 . S
C165 N168 1.368 . S
C165 H170 0.931 . S
C166 C165 1.351 . S
C166 N167 1.373 . S
C166 H194 0.930 . S
N167 C166 1.373 . S
N167 C169 1.340 . S
N168 C165 1.368 . S
N168 C169 1.321 . S
N168 Co171 2.135 . S
C169 N167 1.340 . S
C169 N168 1.321 . S
C169 H193 0.930 . S
H170 C165 0.931 . S
Co171 N168 2.135 . S
Co171 N174 2.121 . S
Co171 O179 2.055 . S
Co171 O182 2.039 . S
Co171 N185 2.140 . S
C172 O173 1.227 . S
C172 O182 1.265 . S
O173 C172 1.227 . S
N174 Co171 2.121 . S
N174 C176 1.375 . S
N174 C177 1.313 . S
C175 C176 1.338 . S
C175 N178 1.377 . S
C175 H195 0.930 . S
C176 N174 1.375 . S
C176 C175 1.338 . S
C176 H180 0.931 . S
C177 N174 1.313 . S
C177 N178 1.344 . S
C177 H181 0.930 . S
N178 C175 1.377 . S
N178 C177 1.344 . S
O179 Co171 2.055 . S
O179 C183 1.253 . S
H180 C176 0.931 . S
H181 C177 0.930 . S
O182 Co171 2.039 . S
O182 C172 1.265 . S
C183 O179 1.253 . S
C183 O184 1.227 . S
O184 C183 1.227 . S
N185 Co171 2.140 . S
N185 C188 1.346 . S
N185 C189 1.345 . S
C186 C187 1.387 . S
C186 C190 1.391 . S
C187 C186 1.387 . S
C187 C188 1.369 . S
C187 H196 0.929 . S
C188 N185 1.346 . S
C188 C187 1.369 . S
C188 H191 0.928 . S
C189 N185 1.345 . S
C189 C190 1.371 . S
C189 H192 0.931 . S
C190 C186 1.391 . S
C190 C189 1.371 . S
C190 H197 0.930 . S
H191 C188 0.928 . S
H192 C189 0.931 . S
H193 C169 0.930 . S
H194 C166 0.930 . S
H195 C175 0.930 . S
H196 C187 0.929 . S
H197 C190 0.930 . S
C198 C199 1.351 . S
C198 N201 1.368 . S
C198 H203 0.931 . S
C199 C198 1.351 . S
C199 N200 1.373 . S
C199 H227 0.930 . S
N200 C199 1.373 . S
N200 C202 1.340 . S
N201 C198 1.368 . S
N201 C202 1.321 . S
N201 Co204 2.135 . S
C202 N200 1.340 . S
C202 N201 1.321 . S
C202 H226 0.930 . S
H203 C198 0.931 . S
Co204 N201 2.135 . S
Co204 N207 2.121 . S
Co204 O212 2.055 . S
Co204 O215 2.039 . S
Co204 N218 2.140 . S
C205 O206 1.227 . S
C205 O215 1.265 . S
O206 C205 1.227 . S
N207 Co204 2.121 . S
N207 C209 1.375 . S
N207 C210 1.313 . S
C208 C209 1.338 . S
C208 N211 1.377 . S
C208 H228 0.930 . S
C209 N207 1.375 . S
C209 C208 1.338 . S
C209 H213 0.931 . S
C210 N207 1.313 . S
C210 N211 1.344 . S
C210 H214 0.930 . S
N211 C208 1.377 . S
N211 C210 1.344 . S
O212 Co204 2.055 . S
O212 C216 1.253 . S
H213 C209 0.931 . S
H214 C210 0.930 . S
O215 Co204 2.039 . S
O215 C205 1.265 . S
C216 O212 1.253 . S
C216 O217 1.227 . S
O217 C216 1.227 . S
N218 Co204 2.140 . S
N218 C221 1.346 . S
N218 C222 1.345 . S
C219 C220 1.387 . S
C219 C223 1.391 . S
C220 C219 1.387 . S
C220 C221 1.369 . S
C220 H229 0.929 . S
C221 N218 1.346 . S
C221 C220 1.369 . S
C221 H224 0.928 . S
C222 N218 1.345 . S
C222 C223 1.371 . S
C222 H225 0.931 . S
C223 C219 1.391 . S
C223 C222 1.371 . S
C223 H230 0.930 . S
H224 C221 0.928 . S
H225 C222 0.931 . S
H226 C202 0.930 . S
H227 C199 0.930 . S
H228 C208 0.930 . S
H229 C220 0.929 . S
H230 C223 0.930 . S
C231 C232 1.351 . S
C231 N234 1.368 . S
C231 H236 0.931 . S
C232 C231 1.351 . S
C232 N233 1.373 . S
C232 H260 0.930 . S
N233 C232 1.373 . S
N233 C235 1.340 . S
N234 C231 1.368 . S
N234 C235 1.321 . S
N234 Co237 2.135 . S
C235 N233 1.340 . S
C235 N234 1.321 . S
C235 H259 0.930 . S
H236 C231 0.931 . S
Co237 N234 2.135 . S
Co237 N240 2.121 . S
Co237 O245 2.055 . S
Co237 O248 2.039 . S
Co237 N251 2.140 . S
C238 O239 1.227 . S
C238 O248 1.265 . S
O239 C238 1.227 . S
N240 Co237 2.121 . S
N240 C242 1.375 . S
N240 C243 1.313 . S
C241 C242 1.338 . S
C241 N244 1.377 . S
C241 H261 0.930 . S
C242 N240 1.375 . S
C242 C241 1.338 . S
C242 H246 0.931 . S
C243 N240 1.313 . S
C243 N244 1.344 . S
C243 H247 0.930 . S
N244 C241 1.377 . S
N244 C243 1.344 . S
O245 Co237 2.055 . S
O245 C249 1.253 . S
H246 C242 0.931 . S
H247 C243 0.930 . S
O248 Co237 2.039 . S
O248 C238 1.265 . S
C249 O245 1.253 . S
C249 O250 1.227 . S
O250 C249 1.227 . S
N251 Co237 2.140 . S
N251 C254 1.346 . S
N251 C255 1.345 . S
C252 C253 1.387 . S
C252 C256 1.391 . S
C253 C252 1.387 . S
C253 C254 1.369 . S
C253 H262 0.929 . S
C254 N251 1.346 . S
C254 C253 1.369 . S
C254 H257 0.928 . S
C255 N251 1.345 . S
C255 C256 1.371 . S
C255 H258 0.931 . S
C256 C252 1.391 . S
C256 C255 1.371 . S
C256 H263 0.930 . S
H257 C254 0.928 . S
H258 C255 0.931 . S
H259 C235 0.930 . S
H260 C232 0.930 . S
H261 C241 0.930 . S
H262 C253 0.929 . S
H263 C256 0.930 . S
C264 C265 1.351 . S
C264 N267 1.368 . S
C264 H269 0.931 . S
C265 C264 1.351 . S
C265 N266 1.373 . S
C265 H293 0.930 . S
N266 C265 1.373 . S
N266 C268 1.340 . S
N267 C264 1.368 . S
N267 C268 1.321 . S
N267 Co270 2.135 . S
C268 N266 1.340 . S
C268 N267 1.321 . S
C268 H292 0.930 . S
H269 C264 0.931 . S
Co270 N267 2.135 . S
Co270 N273 2.121 . S
Co270 O278 2.055 . S
Co270 O281 2.039 . S
Co270 N284 2.140 . S
C271 O272 1.227 . S
C271 O281 1.265 . S
O272 C271 1.227 . S
N273 Co270 2.121 . S
N273 C275 1.375 . S
N273 C276 1.313 . S
C274 C275 1.338 . S
C274 N277 1.377 . S
C274 H294 0.930 . S
C275 N273 1.375 . S
C275 C274 1.338 . S
C275 H279 0.931 . S
C276 N273 1.313 . S
C276 N277 1.344 . S
C276 H280 0.930 . S
N277 C274 1.377 . S
N277 C276 1.344 . S
O278 Co270 2.055 . S
O278 C282 1.253 . S
H279 C275 0.931 . S
H280 C276 0.930 . S
O281 Co270 2.039 . S
O281 C271 1.265 . S
C282 O278 1.253 . S
C282 O283 1.227 . S
O283 C282 1.227 . S
N284 Co270 2.140 . S
N284 C287 1.346 . S
N284 C288 1.345 . S
C285 C286 1.387 . S
C285 C289 1.391 . S
C286 C285 1.387 . S
C286 C287 1.369 . S
C286 H295 0.929 . S
C287 N284 1.346 . S
C287 C286 1.369 . S
C287 H290 0.928 . S
C288 N284 1.345 . S
C288 C289 1.371 . S
C288 H291 0.931 . S
C289 C285 1.391 . S
C289 C288 1.371 . S
C289 H296 0.930 . S
H290 C287 0.928 . S
H291 C288 0.931 . S
H292 C268 0.930 . S
H293 C265 0.930 . S
H294 C274 0.930 . S
H295 C286 0.929 . S
H296 C289 0.930 . S
C297 C298 1.351 . S
C297 N300 1.368 . S
C297 H302 0.931 . S
C298 C297 1.351 . S
C298 N299 1.373 . S
C298 H326 0.930 . S
N299 C298 1.373 . S
N299 C301 1.340 . S
N300 C297 1.368 . S
N300 C301 1.321 . S
N300 Co303 2.135 . S
C301 N299 1.340 . S
C301 N300 1.321 . S
C301 H325 0.930 . S
H302 C297 0.931 . S
Co303 N300 2.135 . S
Co303 N306 2.121 . S
Co303 O311 2.055 . S
Co303 O314 2.039 . S
Co303 N317 2.140 . S
C304 O305 1.227 . S
C304 O314 1.265 . S
O305 C304 1.227 . S
N306 Co303 2.121 . S
N306 C308 1.375 . S
N306 C309 1.313 . S
C307 C308 1.338 . S
C307 N310 1.377 . S
C307 H327 0.930 . S
C308 N306 1.375 . S
C308 C307 1.338 . S
C308 H312 0.931 . S
C309 N306 1.313 . S
C309 N310 1.344 . S
C309 H313 0.930 . S
N310 C307 1.377 . S
N310 C309 1.344 . S
O311 Co303 2.055 . S
O311 C315 1.253 . S
H312 C308 0.931 . S
H313 C309 0.930 . S
O314 Co303 2.039 . S
O314 C304 1.265 . S
C315 O311 1.253 . S
C315 O316 1.227 . S
O316 C315 1.227 . S
N317 Co303 2.140 . S
N317 C320 1.346 . S
N317 C321 1.345 . S
C318 C319 1.387 . S
C318 C322 1.391 . S
C319 C318 1.387 . S
C319 C320 1.369 . S
C319 H328 0.929 . S
C320 N317 1.346 . S
C320 C319 1.369 . S
C320 H323 0.928 . S
C321 N317 1.345 . S
C321 C322 1.371 . S
C321 H324 0.931 . S
C322 C318 1.391 . S
C322 C321 1.371 . S
C322 H329 0.930 . S
H323 C320 0.928 . S
H324 C321 0.931 . S
H325 C301 0.930 . S
H326 C298 0.930 . S
H327 C307 0.930 . S
H328 C319 0.929 . S
H329 C322 0.930 . S
C330 C331 1.351 . S
C330 N333 1.368 . S
C330 H335 0.931 . S
C331 C330 1.351 . S
C331 N332 1.373 . S
C331 H359 0.930 . S
N332 C331 1.373 . S
N332 C334 1.340 . S
N333 C330 1.368 . S
N333 C334 1.321 . S
N333 Co336 2.135 . S
C334 N332 1.340 . S
C334 N333 1.321 . S
C334 H358 0.930 . S
H335 C330 0.931 . S
Co336 N333 2.135 . S
Co336 N339 2.121 . S
Co336 O344 2.055 . S
Co336 O347 2.039 . S
Co336 N350 2.140 . S
C337 O338 1.227 . S
C337 O347 1.265 . S
O338 C337 1.227 . S
N339 Co336 2.121 . S
N339 C341 1.375 . S
N339 C342 1.313 . S
C340 C341 1.338 . S
C340 N343 1.377 . S
C340 H360 0.930 . S
C341 N339 1.375 . S
C341 C340 1.338 . S
C341 H345 0.931 . S
C342 N339 1.313 . S
C342 N343 1.344 . S
C342 H346 0.930 . S
N343 C340 1.377 . S
N343 C342 1.344 . S
O344 Co336 2.055 . S
O344 C348 1.253 . S
H345 C341 0.931 . S
H346 C342 0.930 . S
O347 Co336 2.039 . S
O347 C337 1.265 . S
C348 O344 1.253 . S
C348 O349 1.227 . S
O349 C348 1.227 . S
N350 Co336 2.140 . S
N350 C353 1.346 . S
N350 C354 1.345 . S
C351 C352 1.387 . S
C351 C355 1.391 . S
C352 C351 1.387 . S
C352 C353 1.369 . S
C352 H361 0.929 . S
C353 N350 1.346 . S
C353 C352 1.369 . S
C353 H356 0.928 . S
C354 N350 1.345 . S
C354 C355 1.371 . S
C354 H357 0.931 . S
C355 C351 1.391 . S
C355 C354 1.371 . S
C355 H362 0.930 . S
H356 C353 0.928 . S
H357 C354 0.931 . S
H358 C334 0.930 . S
H359 C331 0.930 . S
H360 C340 0.930 . S
H361 C352 0.929 . S
H362 C355 0.930 . S
C363 C364 1.351 . S
C363 N366 1.368 . S
C363 H368 0.931 . S
C364 C363 1.351 . S
C364 N365 1.373 . S
C364 H392 0.930 . S
N365 C364 1.373 . S
N365 C367 1.340 . S
N366 C363 1.368 . S
N366 C367 1.321 . S
N366 Co369 2.135 . S
C367 N365 1.340 . S
C367 N366 1.321 . S
C367 H391 0.930 . S
H368 C363 0.931 . S
Co369 N366 2.135 . S
Co369 N372 2.121 . S
Co369 O377 2.055 . S
Co369 O380 2.039 . S
Co369 N383 2.140 . S
C370 O371 1.227 . S
C370 O380 1.265 . S
O371 C370 1.227 . S
N372 Co369 2.121 . S
N372 C374 1.375 . S
N372 C375 1.313 . S
C373 C374 1.338 . S
C373 N376 1.377 . S
C373 H393 0.930 . S
C374 N372 1.375 . S
C374 C373 1.338 . S
C374 H378 0.931 . S
C375 N372 1.313 . S
C375 N376 1.344 . S
C375 H379 0.930 . S
N376 C373 1.377 . S
N376 C375 1.344 . S
O377 Co369 2.055 . S
O377 C381 1.253 . S
H378 C374 0.931 . S
H379 C375 0.930 . S
O380 Co369 2.039 . S
O380 C370 1.265 . S
C381 O377 1.253 . S
C381 O382 1.227 . S
O382 C381 1.227 . S
N383 Co369 2.140 . S
N383 C386 1.346 . S
N383 C387 1.345 . S
C384 C385 1.387 . S
C384 C388 1.391 . S
C385 C384 1.387 . S
C385 C386 1.369 . S
C385 H394 0.929 . S
C386 N383 1.346 . S
C386 C385 1.369 . S
C386 H389 0.928 . S
C387 N383 1.345 . S
C387 C388 1.371 . S
C387 H390 0.931 . S
C388 C384 1.391 . S
C388 C387 1.371 . S
C388 H395 0.930 . S
H389 C386 0.928 . S
H390 C387 0.931 . S
H391 C367 0.930 . S
H392 C364 0.930 . S
H393 C373 0.930 . S
H394 C385 0.929 . S
H395 C388 0.930 . S
C396 C397 1.351 . S
C396 N399 1.368 . S
C396 H401 0.931 . S
C397 C396 1.351 . S
C397 N398 1.373 . S
C397 H425 0.930 . S
N398 C397 1.373 . S
N398 C400 1.340 . S
N399 C396 1.368 . S
N399 C400 1.321 . S
N399 Co402 2.135 . S
C400 N398 1.340 . S
C400 N399 1.321 . S
C400 H424 0.930 . S
H401 C396 0.931 . S
Co402 N399 2.135 . S
Co402 N405 2.121 . S
Co402 O410 2.055 . S
Co402 O413 2.039 . S
Co402 N416 2.140 . S
C403 O404 1.227 . S
C403 O413 1.265 . S
O404 C403 1.227 . S
N405 Co402 2.121 . S
N405 C407 1.375 . S
N405 C408 1.313 . S
C406 C407 1.338 . S
C406 N409 1.377 . S
C406 H426 0.930 . S
C407 N405 1.375 . S
C407 C406 1.338 . S
C407 H411 0.931 . S
C408 N405 1.313 . S
C408 N409 1.344 . S
C408 H412 0.930 . S
N409 C406 1.377 . S
N409 C408 1.344 . S
O410 Co402 2.055 . S
O410 C414 1.253 . S
H411 C407 0.931 . S
H412 C408 0.930 . S
O413 Co402 2.039 . S
O413 C403 1.265 . S
C414 O410 1.253 . S
C414 O415 1.227 . S
O415 C414 1.227 . S
N416 Co402 2.140 . S
N416 C419 1.346 . S
N416 C420 1.345 . S
C417 C418 1.387 . S
C417 C421 1.391 . S
C418 C417 1.387 . S
C418 C419 1.369 . S
C418 H427 0.929 . S
C419 N416 1.346 . S
C419 C418 1.369 . S
C419 H422 0.928 . S
C420 N416 1.345 . S
C420 C421 1.371 . S
C420 H423 0.931 . S
C421 C417 1.391 . S
C421 C420 1.371 . S
C421 H428 0.930 . S
H422 C419 0.928 . S
H423 C420 0.931 . S
H424 C400 0.930 . S
H425 C397 0.930 . S
H426 C406 0.930 . S
H427 C418 0.929 . S
H428 C421 0.930 . S
C429 C430 1.351 . S
C429 N432 1.368 . S
C429 H434 0.931 . S
C430 C429 1.351 . S
C430 N431 1.373 . S
C430 H458 0.930 . S
N431 C430 1.373 . S
N431 C433 1.340 . S
N432 C429 1.368 . S
N432 C433 1.321 . S
N432 Co435 2.135 . S
C433 N431 1.340 . S
C433 N432 1.321 . S
C433 H457 0.930 . S
H434 C429 0.931 . S
Co435 N432 2.135 . S
Co435 N438 2.121 . S
Co435 O443 2.055 . S
Co435 O446 2.039 . S
Co435 N449 2.140 . S
C436 O437 1.227 . S
C436 O446 1.265 . S
O437 C436 1.227 . S
N438 Co435 2.121 . S
N438 C440 1.375 . S
N438 C441 1.313 . S
C439 C440 1.338 . S
C439 N442 1.377 . S
C439 H459 0.930 . S
C440 N438 1.375 . S
C440 C439 1.338 . S
C440 H444 0.931 . S
C441 N438 1.313 . S
C441 N442 1.344 . S
C441 H445 0.930 . S
N442 C439 1.377 . S
N442 C441 1.344 . S
O443 Co435 2.055 . S
O443 C447 1.253 . S
H444 C440 0.931 . S
H445 C441 0.930 . S
O446 Co435 2.039 . S
O446 C436 1.265 . S
C447 O443 1.253 . S
C447 O448 1.227 . S
O448 C447 1.227 . S
N449 Co435 2.140 . S
N449 C452 1.346 . S
N449 C453 1.345 . S
C450 C451 1.387 . S
C450 C454 1.391 . S
C451 C450 1.387 . S
C451 C452 1.369 . S
C451 H460 0.929 . S
C452 N449 1.346 . S
C452 C451 1.369 . S
C452 H455 0.928 . S
C453 N449 1.345 . S
C453 C454 1.371 . S
C453 H456 0.931 . S
C454 C450 1.391 . S
C454 C453 1.371 . S
C454 H461 0.930 . S
H455 C452 0.928 . S
H456 C453 0.931 . S
H457 C433 0.930 . S
H458 C430 0.930 . S
H459 C439 0.930 . S
H460 C451 0.929 . S
H461 C454 0.930 . S
C462 C463 1.351 . S
C462 N465 1.368 . S
C462 H467 0.931 . S
C463 C462 1.351 . S
C463 N464 1.373 . S
C463 H491 0.930 . S
N464 C463 1.373 . S
N464 C466 1.340 . S
N465 C462 1.368 . S
N465 C466 1.321 . S
N465 Co468 2.135 . S
C466 N464 1.340 . S
C466 N465 1.321 . S
C466 H490 0.930 . S
H467 C462 0.931 . S
Co468 N465 2.135 . S
Co468 N471 2.121 . S
Co468 O476 2.055 . S
Co468 O479 2.039 . S
Co468 N482 2.140 . S
C469 O470 1.227 . S
C469 O479 1.265 . S
O470 C469 1.227 . S
N471 Co468 2.121 . S
N471 C473 1.375 . S
N471 C474 1.313 . S
C472 C473 1.338 . S
C472 N475 1.377 . S
C472 H492 0.930 . S
C473 N471 1.375 . S
C473 C472 1.338 . S
C473 H477 0.931 . S
C474 N471 1.313 . S
C474 N475 1.344 . S
C474 H478 0.930 . S
N475 C472 1.377 . S
N475 C474 1.344 . S
O476 Co468 2.055 . S
O476 C480 1.253 . S
H477 C473 0.931 . S
H478 C474 0.930 . S
O479 Co468 2.039 . S
O479 C469 1.265 . S
C480 O476 1.253 . S
C480 O481 1.227 . S
O481 C480 1.227 . S
N482 Co468 2.140 . S
N482 C485 1.346 . S
N482 C486 1.345 . S
C483 C484 1.387 . S
C483 C487 1.391 . S
C484 C483 1.387 . S
C484 C485 1.369 . S
C484 H493 0.929 . S
C485 N482 1.346 . S
C485 C484 1.369 . S
C485 H488 0.928 . S
C486 N482 1.345 . S
C486 C487 1.371 . S
C486 H489 0.931 . S
C487 C483 1.391 . S
C487 C486 1.371 . S
C487 H494 0.930 . S
H488 C485 0.928 . S
H489 C486 0.931 . S
H490 C466 0.930 . S
H491 C463 0.930 . S
H492 C472 0.930 . S
H493 C484 0.929 . S
H494 C487 0.930 . S
C495 C496 1.351 . S
C495 N498 1.368 . S
C495 H500 0.931 . S
C496 C495 1.351 . S
C496 N497 1.373 . S
C496 H524 0.930 . S
N497 C496 1.373 . S
N497 C499 1.340 . S
N498 C495 1.368 . S
N498 C499 1.321 . S
N498 Co501 2.135 . S
C499 N497 1.340 . S
C499 N498 1.321 . S
C499 H523 0.930 . S
H500 C495 0.931 . S
Co501 N498 2.135 . S
Co501 N504 2.121 . S
Co501 O509 2.055 . S
Co501 O512 2.039 . S
Co501 N515 2.140 . S
C502 O503 1.227 . S
C502 O512 1.265 . S
O503 C502 1.227 . S
N504 Co501 2.121 . S
N504 C506 1.375 . S
N504 C507 1.313 . S
C505 C506 1.338 . S
C505 N508 1.377 . S
C505 H525 0.930 . S
C506 N504 1.375 . S
C506 C505 1.338 . S
C506 H510 0.931 . S
C507 N504 1.313 . S
C507 N508 1.344 . S
C507 H511 0.930 . S
N508 C505 1.377 . S
N508 C507 1.344 . S
O509 Co501 2.055 . S
O509 C513 1.253 . S
H510 C506 0.931 . S
H511 C507 0.930 . S
O512 Co501 2.039 . S
O512 C502 1.265 . S
C513 O509 1.253 . S
C513 O514 1.227 . S
O514 C513 1.227 . S
N515 Co501 2.140 . S
N515 C518 1.346 . S
N515 C519 1.345 . S
C516 C517 1.387 . S
C516 C520 1.391 . S
C517 C516 1.387 . S
C517 C518 1.369 . S
C517 H526 0.929 . S
C518 N515 1.346 . S
C518 C517 1.369 . S
C518 H521 0.928 . S
C519 N515 1.345 . S
C519 C520 1.371 . S
C519 H522 0.931 . S
C520 C516 1.391 . S
C520 C519 1.371 . S
C520 H527 0.930 . S
H521 C518 0.928 . S
H522 C519 0.931 . S
H523 C499 0.930 . S
H524 C496 0.930 . S
H525 C505 0.930 . S
H526 C517 0.929 . S
H527 C520 0.930 . S
C528 C529 1.369 . S
C528 C530 1.419 . S
C528 H532 0.930 . S
C529 C528 1.369 . S
C529 C538 1.429 . S
C530 C528 1.419 . S
C530 C531 1.363 . S
C530 H533 0.929 . S
C531 C530 1.363 . S
C531 C537 1.428 . S
H532 C528 0.930 . S
H533 C530 0.929 . S
S534 N535 1.613 . S
S534 N536 1.610 . S
N535 S534 1.613 . S
N535 C538 1.350 . S
N536 S534 1.610 . S
N536 C537 1.351 . S
C537 C531 1.428 . S
C537 N536 1.351 . S
C537 C538 1.434 . S
C538 C529 1.429 . S
C538 N535 1.350 . S
C538 C537 1.434 . S
C539 C540 1.369 . S
C539 C541 1.419 . S
C539 H543 0.930 . S
C540 C539 1.369 . S
C540 C549 1.429 . S
C541 C539 1.419 . S
C541 C542 1.363 . S
C541 H544 0.929 . S
C542 C541 1.363 . S
C542 C548 1.428 . S
H543 C539 0.930 . S
H544 C541 0.929 . S
S545 N546 1.613 . S
S545 N547 1.610 . S
N546 S545 1.613 . S
N546 C549 1.350 . S
N547 S545 1.610 . S
N547 C548 1.351 . S
C548 C542 1.428 . S
C548 N547 1.351 . S
C548 C549 1.434 . S
C549 C540 1.429 . S
C549 N546 1.350 . S
C549 C548 1.434 . S
C550 C551 1.369 . S
C550 C552 1.419 . S
C550 H554 0.930 . S
C551 C550 1.369 . S
C551 C560 1.429 . S
C552 C550 1.419 . S
C552 C553 1.363 . S
C552 H555 0.929 . S
C553 C552 1.363 . S
C553 C559 1.428 . S
H554 C550 0.930 . S
H555 C552 0.929 . S
S556 N557 1.613 . S
S556 N558 1.610 . S
N557 S556 1.613 . S
N557 C560 1.350 . S
N558 S556 1.610 . S
N558 C559 1.351 . S
C559 C553 1.428 . S
C559 N558 1.351 . S
C559 C560 1.434 . S
C560 C551 1.429 . S
C560 N557 1.350 . S
C560 C559 1.434 . S
C561 C562 1.369 . S
C561 C563 1.419 . S
C561 H565 0.930 . S
C562 C561 1.369 . S
C562 C571 1.429 . S
C563 C561 1.419 . S
C563 C564 1.363 . S
C563 H566 0.929 . S
C564 C563 1.363 . S
C564 C570 1.428 . S
H565 C561 0.930 . S
H566 C563 0.929 . S
S567 N568 1.613 . S
S567 N569 1.610 . S
N568 S567 1.613 . S
N568 C571 1.350 . S
N569 S567 1.610 . S
N569 C570 1.351 . S
C570 C564 1.428 . S
C570 N569 1.351 . S
C570 C571 1.434 . S
C571 C562 1.429 . S
C571 N568 1.350 . S
C571 C570 1.434 . S
C572 C573 1.369 . S
C572 C574 1.419 . S
C572 H576 0.930 . S
C573 C572 1.369 . S
C573 C582 1.429 . S
C574 C572 1.419 . S
C574 C575 1.363 . S
C574 H577 0.929 . S
C575 C574 1.363 . S
C575 C581 1.428 . S
H576 C572 0.930 . S
H577 C574 0.929 . S
S578 N579 1.613 . S
S578 N580 1.610 . S
N579 S578 1.613 . S
N579 C582 1.350 . S
N580 S578 1.610 . S
N580 C581 1.351 . S
C581 C575 1.428 . S
C581 N580 1.351 . S
C581 C582 1.434 . S
C582 C573 1.429 . S
C582 N579 1.350 . S
C582 C581 1.434 . S
C583 C584 1.369 . S
C583 C585 1.419 . S
C583 H587 0.930 . S
C584 C583 1.369 . S
C584 C593 1.429 . S
C585 C583 1.419 . S
C585 C586 1.363 . S
C585 H588 0.929 . S
C586 C585 1.363 . S
C586 C592 1.428 . S
H587 C583 0.930 . S
H588 C585 0.929 . S
S589 N590 1.613 . S
S589 N591 1.610 . S
N590 S589 1.613 . S
N590 C593 1.350 . S
N591 S589 1.610 . S
N591 C592 1.351 . S
C592 C586 1.428 . S
C592 N591 1.351 . S
C592 C593 1.434 . S
C593 C584 1.429 . S
C593 N590 1.350 . S
C593 C592 1.434 . S
C594 C595 1.369 . S
C594 C596 1.419 . S
C594 H598 0.930 . S
C595 C594 1.369 . S
C595 C604 1.429 . S
C596 C594 1.419 . S
C596 C597 1.363 . S
C596 H599 0.929 . S
C597 C596 1.363 . S
C597 C603 1.428 . S
H598 C594 0.930 . S
H599 C596 0.929 . S
S600 N601 1.613 . S
S600 N602 1.610 . S
N601 S600 1.613 . S
N601 C604 1.350 . S
N602 S600 1.610 . S
N602 C603 1.351 . S
C603 C597 1.428 . S
C603 N602 1.351 . S
C603 C604 1.434 . S
C604 C595 1.429 . S
C604 N601 1.350 . S
C604 C603 1.434 . S
C605 C606 1.369 . S
C605 C607 1.419 . S
C605 H609 0.930 . S
C606 C605 1.369 . S
C606 C615 1.429 . S
C607 C605 1.419 . S
C607 C608 1.363 . S
C607 H610 0.929 . S
C608 C607 1.363 . S
C608 C614 1.428 . S
H609 C605 0.930 . S
H610 C607 0.929 . S
S611 N612 1.613 . S
S611 N613 1.610 . S
N612 S611 1.613 . S
N612 C615 1.350 . S
N613 S611 1.610 . S
N613 C614 1.351 . S
C614 C608 1.428 . S
C614 N613 1.351 . S
C614 C615 1.434 . S
C615 C606 1.429 . S
C615 N612 1.350 . S
C615 C614 1.434 . S
C616 C617 1.369 . S
C616 C618 1.419 . S
C616 H620 0.930 . S
C617 C616 1.369 . S
C617 C626 1.429 . S
C618 C616 1.419 . S
C618 C619 1.363 . S
C618 H621 0.929 . S
C619 C618 1.363 . S
C619 C625 1.428 . S
H620 C616 0.930 . S
H621 C618 0.929 . S
S622 N623 1.613 . S
S622 N624 1.610 . S
N623 S622 1.613 . S
N623 C626 1.350 . S
N624 S622 1.610 . S
N624 C625 1.351 . S
C625 C619 1.428 . S
C625 N624 1.351 . S
C625 C626 1.434 . S
C626 C617 1.429 . S
C626 N623 1.350 . S
C626 C625 1.434 . S
C627 C628 1.369 . S
C627 C629 1.419 . S
C627 H631 0.930 . S
C628 C627 1.369 . S
C628 C637 1.429 . S
C629 C627 1.419 . S
C629 C630 1.363 . S
C629 H632 0.929 . S
C630 C629 1.363 . S
C630 C636 1.428 . S
H631 C627 0.930 . S
H632 C629 0.929 . S
S633 N634 1.613 . S
S633 N635 1.610 . S
N634 S633 1.613 . S
N634 C637 1.350 . S
N635 S633 1.610 . S
N635 C636 1.351 . S
C636 C630 1.428 . S
C636 N635 1.351 . S
C636 C637 1.434 . S
C637 C628 1.429 . S
C637 N634 1.350 . S
C637 C636 1.434 . S
C638 C639 1.369 . S
C638 C640 1.419 . S
C638 H642 0.930 . S
C639 C638 1.369 . S
C639 C648 1.429 . S
C640 C638 1.419 . S
C640 C641 1.363 . S
C640 H643 0.929 . S
C641 C640 1.363 . S
C641 C647 1.428 . S
H642 C638 0.930 . S
H643 C640 0.929 . S
S644 N645 1.613 . S
S644 N646 1.610 . S
N645 S644 1.613 . S
N645 C648 1.350 . S
N646 S644 1.610 . S
N646 C647 1.351 . S
C647 C641 1.428 . S
C647 N646 1.351 . S
C647 C648 1.434 . S
C648 C639 1.429 . S
C648 N645 1.350 . S
C648 C647 1.434 . S
C649 C650 1.369 . S
C649 C651 1.419 . S
C649 H653 0.930 . S
C650 C649 1.369 . S
C650 C659 1.429 . S
C651 C649 1.419 . S
C651 C652 1.363 . S
C651 H654 0.929 . S
C652 C651 1.363 . S
C652 C658 1.428 . S
H653 C649 0.930 . S
H654 C651 0.929 . S
S655 N656 1.613 . S
S655 N657 1.610 . S
N656 S655 1.613 . S
N656 C659 1.350 . S
N657 S655 1.610 . S
N657 C658 1.351 . S
C658 C652 1.428 . S
C658 N657 1.351 . S
C658 C659 1.434 . S
C659 C650 1.429 . S
C659 N656 1.350 . S
C659 C658 1.434 . S
C660 C661 1.369 . S
C660 C662 1.419 . S
C660 H664 0.930 . S
C661 C660 1.369 . S
C661 C670 1.429 . S
C662 C660 1.419 . S
C662 C663 1.363 . S
C662 H665 0.929 . S
C663 C662 1.363 . S
C663 C669 1.428 . S
H664 C660 0.930 . S
H665 C662 0.929 . S
S666 N667 1.613 . S
S666 N668 1.610 . S
N667 S666 1.613 . S
N667 C670 1.350 . S
N668 S666 1.610 . S
N668 C669 1.351 . S
C669 C663 1.428 . S
C669 N668 1.351 . S
C669 C670 1.434 . S
C670 C661 1.429 . S
C670 N667 1.350 . S
C670 C669 1.434 . S
C671 C672 1.369 . S
C671 C673 1.419 . S
C671 H675 0.930 . S
C672 C671 1.369 . S
C672 C681 1.429 . S
C673 C671 1.419 . S
C673 C674 1.363 . S
C673 H676 0.929 . S
C674 C673 1.363 . S
C674 C680 1.428 . S
H675 C671 0.930 . S
H676 C673 0.929 . S
S677 N678 1.613 . S
S677 N679 1.610 . S
N678 S677 1.613 . S
N678 C681 1.350 . S
N679 S677 1.610 . S
N679 C680 1.351 . S
C680 C674 1.428 . S
C680 N679 1.351 . S
C680 C681 1.434 . S
C681 C672 1.429 . S
C681 N678 1.350 . S
C681 C680 1.434 . S
C682 C683 1.369 . S
C682 C684 1.419 . S
C682 H686 0.930 . S
C683 C682 1.369 . S
C683 C692 1.429 . S
C684 C682 1.419 . S
C684 C685 1.363 . S
C684 H687 0.929 . S
C685 C684 1.363 . S
C685 C691 1.428 . S
H686 C682 0.930 . S
H687 C684 0.929 . S
S688 N689 1.613 . S
S688 N690 1.610 . S
N689 S688 1.613 . S
N689 C692 1.350 . S
N690 S688 1.610 . S
N690 C691 1.351 . S
C691 C685 1.428 . S
C691 N690 1.351 . S
C691 C692 1.434 . S
C692 C683 1.429 . S
C692 N689 1.350 . S
C692 C691 1.434 . S
C693 C694 1.369 . S
C693 C695 1.419 . S
C693 H697 0.930 . S
C694 C693 1.369 . S
C694 C703 1.429 . S
C695 C693 1.419 . S
C695 C696 1.363 . S
C695 H698 0.929 . S
C696 C695 1.363 . S
C696 C702 1.428 . S
H697 C693 0.930 . S
H698 C695 0.929 . S
S699 N700 1.613 . S
S699 N701 1.610 . S
N700 S699 1.613 . S
N700 C703 1.350 . S
N701 S699 1.610 . S
N701 C702 1.351 . S
C702 C696 1.428 . S
C702 N701 1.351 . S
C702 C703 1.434 . S
C703 C694 1.429 . S
C703 N700 1.350 . S
C703 C702 1.434 . S
C704 C705 1.369 . S
C704 C706 1.419 . S
C704 H708 0.930 . S
C705 C704 1.369 . S
C705 C714 1.429 . S
C706 C704 1.419 . S
C706 C707 1.363 . S
C706 H709 0.929 . S
C707 C706 1.363 . S
C707 C713 1.428 . S
H708 C704 0.930 . S
H709 C706 0.929 . S
S710 N711 1.613 . S
S710 N712 1.610 . S
N711 S710 1.613 . S
N711 C714 1.350 . S
N712 S710 1.610 . S
N712 C713 1.351 . S
C713 C707 1.428 . S
C713 N712 1.351 . S
C713 C714 1.434 . S
C714 C705 1.429 . S
C714 N711 1.350 . S
C714 C713 1.434 . S
C715 C716 1.369 . S
C715 C717 1.419 . S
C715 H719 0.930 . S
C716 C715 1.369 . S
C716 C725 1.429 . S
C717 C715 1.419 . S
C717 C718 1.363 . S
C717 H720 0.929 . S
C718 C717 1.363 . S
C718 C724 1.428 . S
H719 C715 0.930 . S
H720 C717 0.929 . S
S721 N722 1.613 . S
S721 N723 1.610 . S
N722 S721 1.613 . S
N722 C725 1.350 . S
N723 S721 1.610 . S
N723 C724 1.351 . S
C724 C718 1.428 . S
C724 N723 1.351 . S
C724 C725 1.434 . S
C725 C716 1.429 . S
C725 N722 1.350 . S
C725 C724 1.434 . S
C726 C727 1.369 . S
C726 C728 1.419 . S
C726 H730 0.930 . S
C727 C726 1.369 . S
C727 C736 1.429 . S
C728 C726 1.419 . S
C728 C729 1.363 . S
C728 H731 0.929 . S
C729 C728 1.363 . S
C729 C735 1.428 . S
H730 C726 0.930 . S
H731 C728 0.929 . S
S732 N733 1.613 . S
S732 N734 1.610 . S
N733 S732 1.613 . S
N733 C736 1.350 . S
N734 S732 1.610 . S
N734 C735 1.351 . S
C735 C729 1.428 . S
C735 N734 1.351 . S
C735 C736 1.434 . S
C736 C727 1.429 . S
C736 N733 1.350 . S
C736 C735 1.434 . S
C737 C738 1.369 . S
C737 C739 1.419 . S
C737 H741 0.930 . S
C738 C737 1.369 . S
C738 C747 1.429 . S
C739 C737 1.419 . S
C739 C740 1.363 . S
C739 H742 0.929 . S
C740 C739 1.363 . S
C740 C746 1.428 . S
H741 C737 0.930 . S
H742 C739 0.929 . S
S743 N744 1.613 . S
S743 N745 1.610 . S
N744 S743 1.613 . S
N744 C747 1.350 . S
N745 S743 1.610 . S
N745 C746 1.351 . S
C746 C740 1.428 . S
C746 N745 1.351 . S
C746 C747 1.434 . S
C747 C738 1.429 . S
C747 N744 1.350 . S
C747 C746 1.434 . S
C748 C749 1.369 . S
C748 C750 1.419 . S
C748 H752 0.930 . S
C749 C748 1.369 . S
C749 C758 1.429 1_556 S
C750 C748 1.419 . S
C750 C751 1.363 1_556 S
C750 H753 0.929 . S
C751 C750 1.363 1_554 S
C751 C757 1.428 . S
H752 C748 0.930 . S
H753 C750 0.929 . S
S754 N755 1.613 . S
S754 N756 1.610 . S
N755 S754 1.613 . S
N755 C758 1.350 . S
N756 S754 1.610 . S
N756 C757 1.351 . S
C757 C751 1.428 . S
C757 N756 1.351 . S
C757 C758 1.434 . S
C758 C749 1.429 1_554 S
C758 N755 1.350 . S
C758 C757 1.434 . S
C759 C760 1.369 . S
C759 C761 1.419 1_556 S
C759 H763 0.930 . S
C760 C759 1.369 . S
C760 C769 1.429 . S
C761 C759 1.419 1_554 S
C761 C762 1.363 . S
C761 H764 0.929 . S
C762 C761 1.363 . S
C762 C768 1.428 . S
H763 C759 0.930 . S
H764 C761 0.929 . S
S765 N766 1.613 . S
S765 N767 1.610 1_556 S
N766 S765 1.613 . S
N766 C769 1.350 . S
N767 S765 1.610 1_554 S
N767 C768 1.351 . S
C768 C762 1.428 . S
C768 N767 1.351 . S
C768 C769 1.434 1_554 S
C769 C760 1.429 . S
C769 N766 1.350 . S
C769 C768 1.434 1_556 S
C770 C771 1.369 . S
C770 C772 1.419 . S
C770 H774 0.930 . S
C771 C770 1.369 . S
C771 C780 1.429 1_556 S
C772 C770 1.419 . S
C772 C773 1.363 1_556 S
C772 H775 0.929 . S
C773 C772 1.363 1_554 S
C773 C779 1.428 . S
H774 C770 0.930 . S
H775 C772 0.929 . S
S776 N777 1.613 . S
S776 N778 1.610 . S
N777 S776 1.613 . S
N777 C780 1.350 . S
N778 S776 1.610 . S
N778 C779 1.351 . S
C779 C773 1.428 . S
C779 N778 1.351 . S
C779 C780 1.434 . S
C780 C771 1.429 1_554 S
C780 N777 1.350 . S
C780 C779 1.434 . S
C781 C782 1.357 1_554 S
C781 C783 1.429 . S
C781 H785 0.931 . S
C782 C781 1.357 1_556 S
C782 C791 1.429 . S
C783 C781 1.429 . S
C783 C784 1.363 . S
C783 H786 0.929 . S
C784 C783 1.363 . S
C784 C790 1.428 1_554 S
H785 C781 0.931 . S
H786 C783 0.929 . S
S787 N788 1.613 . S
S787 N789 1.610 . S
N788 S787 1.613 . S
N788 C791 1.350 . S
N789 S787 1.610 . S
N789 C790 1.351 . S
C790 C784 1.428 1_556 S
C790 N789 1.351 . S
C790 C791 1.434 . S
C791 C782 1.429 . S
C791 N788 1.350 . S
C791 C790 1.434 . S
C792 C793 1.369 . S
C792 C794 1.419 . S
C792 H796 0.930 . S
C793 C792 1.369 . S
C793 C802 1.429 . S
C794 C792 1.419 . S
C794 C795 1.363 . S
C794 H797 0.929 . S
C795 C794 1.363 . S
C795 C801 1.428 . S
H796 C792 0.930 . S
H797 C794 0.929 . S
S798 N799 1.613 . S
S798 N800 1.610 . S
N799 S798 1.613 . S
N799 C802 1.350 . S
N800 S798 1.610 . S
N800 C801 1.351 . S
C801 C795 1.428 . S
C801 N800 1.351 . S
C801 C802 1.434 . S
C802 C793 1.429 . S
C802 N799 1.350 . S
C802 C801 1.434 . S
C803 C804 1.369 . S
C803 C805 1.419 . S
C803 H807 0.930 . S
C804 C803 1.369 . S
C804 C813 1.429 . S
C805 C803 1.419 . S
C805 C806 1.363 . S
C805 H808 0.929 . S
C806 C805 1.363 . S
C806 C812 1.428 . S
H807 C803 0.930 . S
H808 C805 0.929 . S
S809 N810 1.613 . S
S809 N811 1.610 . S
N810 S809 1.613 . S
N810 C813 1.350 . S
N811 S809 1.610 . S
N811 C812 1.351 . S
C812 C806 1.428 . S
C812 N811 1.351 . S
C812 C813 1.434 . S
C813 C804 1.429 . S
C813 N810 1.350 . S
C813 C812 1.434 . S
C814 C815 1.369 . S
C814 C816 1.419 . S
C814 H818 0.930 . S
C815 C814 1.369 . S
C815 C824 1.429 . S
C816 C814 1.419 . S
C816 C817 1.363 . S
C816 H819 0.929 . S
C817 C816 1.363 . S
C817 C823 1.428 . S
H818 C814 0.930 . S
H819 C816 0.929 . S
S820 N821 1.613 . S
S820 N822 1.610 . S
N821 S820 1.613 . S
N821 C824 1.350 . S
N822 S820 1.610 . S
N822 C823 1.351 . S
C823 C817 1.428 . S
C823 N822 1.351 . S
C823 C824 1.434 . S
C824 C815 1.429 . S
C824 N821 1.350 . S
C824 C823 1.434 . S
C825 C826 1.369 . S
C825 C827 1.419 . S
C825 H829 0.930 . S
C826 C825 1.369 . S
C826 C835 1.429 . S
C827 C825 1.419 . S
C827 C828 1.363 . S
C827 H830 0.929 . S
C828 C827 1.363 . S
C828 C834 1.428 . S
H829 C825 0.930 . S
H830 C827 0.929 . S
S831 N832 1.613 . S
S831 N833 1.610 . S
N832 S831 1.613 . S
N832 C835 1.350 . S
N833 S831 1.610 . S
N833 C834 1.351 . S
C834 C828 1.428 . S
C834 N833 1.351 . S
C834 C835 1.434 . S
C835 C826 1.429 . S
C835 N832 1.350 . S
C835 C834 1.434 . S
C836 C837 1.369 . S
C836 C838 1.419 . S
C836 H840 0.930 . S
C837 C836 1.369 . S
C837 C846 1.429 . S
C838 C836 1.419 . S
C838 C839 1.363 . S
C838 H841 0.929 . S
C839 C838 1.363 . S
C839 C845 1.428 . S
H840 C836 0.930 . S
H841 C838 0.929 . S
S842 N843 1.613 . S
S842 N844 1.610 . S
N843 S842 1.613 . S
N843 C846 1.350 . S
N844 S842 1.610 . S
N844 C845 1.351 . S
C845 C839 1.428 . S
C845 N844 1.351 . S
C845 C846 1.434 . S
C846 C837 1.429 . S
C846 N843 1.350 . S
C846 C845 1.434 . S
C847 C848 1.369 . S
C847 C849 1.419 . S
C847 H851 0.930 . S
C848 C847 1.369 . S
C848 C857 1.429 . S
C849 C847 1.419 . S
C849 C850 1.363 . S
C849 H852 0.929 . S
C850 C849 1.363 . S
C850 C856 1.428 . S
H851 C847 0.930 . S
H852 C849 0.929 . S
S853 N854 1.613 . S
S853 N855 1.610 . S
N854 S853 1.613 . S
N854 C857 1.350 . S
N855 S853 1.610 . S
N855 C856 1.351 . S
C856 C850 1.428 . S
C856 N855 1.351 . S
C856 C857 1.434 . S
C857 C848 1.429 . S
C857 N854 1.350 . S
C857 C856 1.434 . S
C858 C859 1.369 . S
C858 C860 1.419 . S
C858 H862 0.930 . S
C859 C858 1.369 . S
C859 C868 1.429 . S
C860 C858 1.419 . S
C860 C861 1.363 . S
C860 H863 0.929 . S
C861 C860 1.363 . S
C861 C867 1.428 . S
H862 C858 0.930 . S
H863 C860 0.929 . S
S864 N865 1.613 . S
S864 N866 1.610 . S
N865 S864 1.613 . S
N865 C868 1.350 . S
N866 S864 1.610 . S
N866 C867 1.351 . S
C867 C861 1.428 . S
C867 N866 1.351 . S
C867 C868 1.434 . S
C868 C859 1.429 . S
C868 N865 1.350 . S
C868 C867 1.434 . S
C869 C870 1.369 . S
C869 C871 1.419 . S
C869 H873 0.930 . S
C870 C869 1.369 . S
C870 C879 1.429 . S
C871 C869 1.419 . S
C871 C872 1.363 . S
C871 H874 0.929 . S
C872 C871 1.363 . S
C872 C878 1.428 . S
H873 C869 0.930 . S
H874 C871 0.929 . S
S875 N876 1.613 . S
S875 N877 1.610 . S
N876 S875 1.613 . S
N876 C879 1.350 . S
N877 S875 1.610 . S
N877 C878 1.351 . S
C878 C872 1.428 . S
C878 N877 1.351 . S
C878 C879 1.434 . S
C879 C870 1.429 . S
C879 N876 1.350 . S
C879 C878 1.434 . S
C880 C881 1.369 1_565 S
C880 C882 1.419 . S
C880 H884 0.930 . S
C881 C880 1.369 1_545 S
C881 C890 1.429 . S
C882 C880 1.419 . S
C882 C883 1.363 . S
C882 H885 0.929 . S
C883 C882 1.363 . S
C883 C889 1.428 1_565 S
H884 C880 0.930 . S
H885 C882 0.929 . S
S886 N887 1.613 . S
S886 N888 1.610 . S
N887 S886 1.613 . S
N887 C890 1.350 . S
N888 S886 1.610 . S
N888 C889 1.351 . S
C889 C883 1.428 1_545 S
C889 N888 1.351 . S
C889 C890 1.434 . S
C890 C881 1.429 . S
C890 N887 1.350 . S
C890 C889 1.434 . S
C891 C892 1.369 1_455 S
C891 C893 1.419 . S
C891 H895 0.930 . S
C892 C891 1.369 1_655 S
C892 C901 1.429 . S
C893 C891 1.419 . S
C893 C894 1.363 . S
C893 H896 0.929 . S
C894 C893 1.363 . S
C894 C900 1.428 1_455 S
H895 C891 0.930 . S
H896 C893 0.929 . S
S897 N898 1.613 . S
S897 N899 1.610 . S
N898 S897 1.613 . S
N898 C901 1.350 . S
N899 S897 1.610 . S
N899 C900 1.351 . S
C900 C894 1.428 1_655 S
C900 N899 1.351 . S
C900 C901 1.434 . S
C901 C892 1.429 . S
C901 N898 1.350 . S
C901 C900 1.434 . S
C902 C903 1.369 . S
C902 C904 1.419 . S
C902 H906 0.930 . S
C903 C902 1.369 . S
C903 C912 1.429 1_565 S
C904 C902 1.419 . S
C904 C905 1.363 1_565 S
C904 H907 0.929 . S
C905 C904 1.363 1_545 S
C905 C911 1.428 . S
H906 C902 0.930 . S
H907 C904 0.929 . S
S908 N909 1.613 . S
S908 N910 1.610 . S
N909 S908 1.613 . S
N909 C912 1.350 . S
N910 S908 1.610 . S
N910 C911 1.351 . S
C911 C905 1.428 . S
C911 N910 1.351 . S
C911 C912 1.434 . S
C912 C903 1.429 1_545 S
C912 N909 1.350 . S
C912 C911 1.434 . S
C913 C914 1.369 1_455 S
C913 C915 1.419 . S
C913 H917 0.930 . S
C914 C913 1.369 1_655 S
C914 C923 1.429 . S
C915 C913 1.419 . S
C915 C916 1.363 . S
C915 H918 0.929 . S
C916 C915 1.363 . S
C916 C922 1.428 1_455 S
H917 C913 0.930 . S
H918 C915 0.929 . S
S919 N920 1.613 . S
S919 N921 1.610 . S
N920 S919 1.613 . S
N920 C923 1.350 . S
N921 S919 1.610 . S
N921 C922 1.351 . S
C922 C916 1.428 1_655 S
C922 N921 1.351 . S
C922 C923 1.434 . S
C923 C914 1.429 . S
C923 N920 1.350 . S
C923 C922 1.434 . S
C924 C925 1.369 . S
C924 C926 1.419 1_556 S
C924 H928 0.930 . S
C925 C924 1.369 . S
C925 C934 1.429 . S
C926 C924 1.419 1_554 S
C926 C927 1.363 . S
C926 H929 0.929 . S
C927 C926 1.363 . S
C927 C933 1.428 . S
H928 C924 0.930 . S
H929 C926 0.929 . S
S930 N931 1.613 1_554 S
S930 N932 1.610 . S
N931 S930 1.613 1_556 S
N931 C934 1.350 . S
N932 S930 1.610 . S
N932 C933 1.351 . S
C933 C927 1.428 . S
C933 N932 1.351 . S
C933 C934 1.434 1_554 S
C934 C925 1.429 . S
C934 N931 1.350 . S
C934 C933 1.434 1_556 S
C935 C936 1.369 . S
C935 C937 1.419 1_556 S
C935 H939 0.930 . S
C936 C935 1.369 . S
C936 C945 1.429 . S
C937 C935 1.419 1_554 S
C937 C938 1.363 . S
C937 H940 0.929 . S
C938 C937 1.363 . S
C938 C944 1.428 . S
H939 C935 0.930 . S
H940 C937 0.929 . S
S941 N942 1.613 1_554 S
S941 N943 1.610 . S
N942 S941 1.613 1_556 S
N942 C945 1.350 . S
N943 S941 1.610 . S
N943 C944 1.351 . S
C944 C938 1.428 . S
C944 N943 1.351 . S
C944 C945 1.434 1_554 S
C945 C936 1.429 . S
C945 N942 1.350 . S
C945 C944 1.434 1_556 S
C946 C947 1.369 . S
C946 C948 1.419 1_554 S
C946 H950 0.930 . S
C947 C946 1.369 . S
C947 C956 1.429 . S
C948 C946 1.419 1_556 S
C948 C949 1.363 . S
C948 H951 0.929 . S
C949 C948 1.363 . S
C949 C955 1.428 . S
H950 C946 0.930 . S
H951 C948 0.929 . S
S952 N953 1.613 1_556 S
S952 N954 1.610 . S
N953 S952 1.613 1_554 S
N953 C956 1.350 . S
N954 S952 1.610 . S
N954 C955 1.351 . S
C955 C949 1.428 . S
C955 N954 1.351 . S
C955 C956 1.434 1_556 S
C956 C947 1.429 . S
C956 N953 1.350 . S
C956 C955 1.434 1_554 S
C957 C958 1.369 . S
C957 C959 1.419 1_556 S
C957 H961 0.930 . S
C958 C957 1.369 . S
C958 C967 1.429 . S
C959 C957 1.419 1_554 S
C959 C960 1.363 . S
C959 H962 0.929 . S
C960 C959 1.363 . S
C960 C966 1.428 . S
H961 C957 0.930 . S
H962 C959 0.929 . S
S963 N964 1.613 . S
S963 N965 1.610 1_556 S
N964 S963 1.613 . S
N964 C967 1.350 . S
N965 S963 1.610 1_554 S
N965 C966 1.351 . S
C966 C960 1.428 . S
C966 N965 1.351 . S
C966 C967 1.434 1_554 S
C967 C958 1.429 . S
C967 N964 1.350 . S
C967 C966 1.434 1_556 S
C529 C18 1.898 1_565 S
C531 N101 1.722 . S
C540 N2 1.728 . S
C542 C51 1.896 1_455 S
C551 C84 1.897 1_545 S
C553 N35 1.725 . S
C562 N68 1.717 . S
C564 C117 1.898 1_655 S
C573 N167 1.726 . S
C575 C150 1.896 1_545 S
C584 N200 1.718 . S
C586 C183 1.898 1_655 S
C595 N233 1.719 . S
C597 C216 1.897 1_565 S
C606 C249 1.898 1_455 S
C608 N134 1.718 . S
C617 C282 1.897 . S
C619 N365 1.719 . S
C628 C315 1.896 . S
C630 N266 1.726 . S
C639 C348 1.896 . S
C641 N299 1.727 . S
C650 N332 1.720 . S
C652 C381 1.898 . S
C661 N431 1.725 . S
C663 C414 1.897 . S
C672 C447 1.898 . S
C674 N464 1.722 . S
C683 C480 1.897 . S
C685 N497 1.723 . S
C694 C513 1.897 . S
C696 N398 1.726 . S
C705 C7 1.207 . S
C707 C172 1.207 . S
C716 C40 1.206 . S
C718 C205 1.209 . S
C727 C238 1.206 . S
C729 C73 1.207 . S
C738 C106 1.210 . S
C740 C139 1.209 . S
C749 C271 1.210 . S
C751 C436 1.207 . S
C760 C304 1.206 . S
C762 C469 1.208 . S
C771 C337 1.209 . S
C773 C502 1.206 . S
C782 C370 1.206 . S
C784 C403 1.209 . S
C793 C21 0.721 . S
C795 C516 0.723 . S
C804 C417 0.725 . S
C806 C54 0.728 . S
C815 C87 0.728 . S
C817 C450 0.724 . S
C826 C120 0.723 . S
C828 C483 0.727 . S
C837 C318 0.729 . S
C839 C153 0.726 . S
C848 C351 0.725 . S
C850 C186 0.722 . S
C859 C384 0.725 . S
C861 C219 0.722 . S
C870 C285 0.723 . S
C872 C252 0.722 . S
C881 N13 1.062 . S
C883 N145 1.077 . S
C892 N46 1.062 . S
C894 N178 1.077 . S
C903 N79 1.082 . S
C905 N211 1.070 . S
C914 N244 1.077 . S
C916 N112 1.077 . S
C925 N277 1.061 . S
C927 N409 1.075 . S
C936 N310 1.077 . S
C938 N442 1.077 . S
C947 N475 1.063 . S
C949 N343 1.078 . S
C958 N376 1.073 . S
C960 N508 1.063 . S
