# Generated by pormake.
# Topology uoe, (4)-cn, num edge types: 1
# Building blocks:
#     Node 0, Type 0, BuildingBlock: GALJAG_clean_sbu_0, # of connection points: 4
#     Node 1, Type 0, BuildingBlock: GALJAG_clean_sbu_0, # of connection points: 4
#     Node 2, Type 0, BuildingBlock: GALJAG_clean_sbu_0, # of connection points: 4
#     Node 3, Type 0, BuildingBlock: GALJAG_clean_sbu_0, # of connection points: 4
#     Node 4, Type 0, BuildingBlock: GALJAG_clean_sbu_0, # of connection points: 4
#     Node 5, Type 0, BuildingBlock: GALJAG_clean_sbu_0, # of connection points: 4
#     Node 6, Type 0, BuildingBlock: GALJAG_clean_sbu_0, # of connection points: 4
#     Node 7, Type 0, BuildingBlock: GALJAG_clean_sbu_0, # of connection points: 4
#     Node 8, Type 0, BuildingBlock: GALJAG_clean_sbu_0, # of connection points: 4
#     Node 9, Type 0, BuildingBlock: GALJAG_clean_sbu_0, # of connection points: 4
#     Node 10, Type 0, BuildingBlock: GALJAG_clean_sbu_0, # of connection points: 4
#     Node 11, Type 0, BuildingBlock: GALJAG_clean_sbu_0, # of connection points: 4
#     Node 12, Type 0, BuildingBlock: GALJAG_clean_sbu_0, # of connection points: 4
#     Node 13, Type 0, BuildingBlock: GALJAG_clean_sbu_0, # of connection points: 4
#     Node 14, Type 0, BuildingBlock: GALJAG_clean_sbu_0, # of connection points: 4
#     Node 15, Type 0, BuildingBlock: GALJAG_clean_sbu_0, # of connection points: 4
#     Node 16, Type 0, BuildingBlock: GALJAG_clean_sbu_0, # of connection points: 4
#     Node 17, Type 0, BuildingBlock: GALJAG_clean_sbu_0, # of connection points: 4
#     Node 18, Type 0, BuildingBlock: GALJAG_clean_sbu_0, # of connection points: 4
#     Node 19, Type 0, BuildingBlock: GALJAG_clean_sbu_0, # of connection points: 4
#     Node 20, Type 0, BuildingBlock: GALJAG_clean_sbu_0, # of connection points: 4
#     Node 21, Type 0, BuildingBlock: GALJAG_clean_sbu_0, # of connection points: 4
#     Node 22, Type 0, BuildingBlock: GALJAG_clean_sbu_0, # of connection points: 4
#     Node 23, Type 0, BuildingBlock: GALJAG_clean_sbu_0, # of connection points: 4
#     Node 24, Type 0, BuildingBlock: GALJAG_clean_sbu_0, # of connection points: 4
#     Node 25, Type 0, BuildingBlock: GALJAG_clean_sbu_0, # of connection points: 4
#     Node 26, Type 0, BuildingBlock: GALJAG_clean_sbu_0, # of connection points: 4
#     Node 27, Type 0, BuildingBlock: GALJAG_clean_sbu_0, # of connection points: 4
#     Node 28, Type 0, BuildingBlock: GALJAG_clean_sbu_0, # of connection points: 4
#     Node 29, Type 0, BuildingBlock: GALJAG_clean_sbu_0, # of connection points: 4
#     Node 30, Type 0, BuildingBlock: GALJAG_clean_sbu_0, # of connection points: 4
#     Node 31, Type 0, BuildingBlock: GALJAG_clean_sbu_0, # of connection points: 4
#     Edge 32, Type (0, 0), BuildingBlock: UVAHIK_clean_linker_0, # of connection points: 2
#     Edge 33, Type (0, 0), BuildingBlock: UVAHIK_clean_linker_0, # of connection points: 2
#     Edge 34, Type (0, 0), BuildingBlock: UVAHIK_clean_linker_0, # of connection points: 2
#     Edge 35, Type (0, 0), BuildingBlock: UVAHIK_clean_linker_0, # of connection points: 2
#     Edge 36, Type (0, 0), BuildingBlock: UVAHIK_clean_linker_0, # of connection points: 2
#     Edge 37, Type (0, 0), BuildingBlock: UVAHIK_clean_linker_0, # of connection points: 2
#     Edge 38, Type (0, 0), BuildingBlock: UVAHIK_clean_linker_0, # of connection points: 2
#     Edge 39, Type (0, 0), BuildingBlock: UVAHIK_clean_linker_0, # of connection points: 2
#     Edge 40, Type (0, 0), BuildingBlock: UVAHIK_clean_linker_0, # of connection points: 2
#     Edge 41, Type (0, 0), BuildingBlock: UVAHIK_clean_linker_0, # of connection points: 2
#     Edge 42, Type (0, 0), BuildingBlock: UVAHIK_clean_linker_0, # of connection points: 2
#     Edge 43, Type (0, 0), BuildingBlock: UVAHIK_clean_linker_0, # of connection points: 2
#     Edge 44, Type (0, 0), BuildingBlock: UVAHIK_clean_linker_0, # of connection points: 2
#     Edge 45, Type (0, 0), BuildingBlock: UVAHIK_clean_linker_0, # of connection points: 2
#     Edge 46, Type (0, 0), BuildingBlock: UVAHIK_clean_linker_0, # of connection points: 2
#     Edge 47, Type (0, 0), BuildingBlock: UVAHIK_clean_linker_0, # of connection points: 2
#     Edge 48, Type (0, 0), BuildingBlock: UVAHIK_clean_linker_0, # of connection points: 2
#     Edge 49, Type (0, 0), BuildingBlock: UVAHIK_clean_linker_0, # of connection points: 2
#     Edge 50, Type (0, 0), BuildingBlock: UVAHIK_clean_linker_0, # of connection points: 2
#     Edge 51, Type (0, 0), BuildingBlock: UVAHIK_clean_linker_0, # of connection points: 2
#     Edge 52, Type (0, 0), BuildingBlock: UVAHIK_clean_linker_0, # of connection points: 2
#     Edge 53, Type (0, 0), BuildingBlock: UVAHIK_clean_linker_0, # of connection points: 2
#     Edge 54, Type (0, 0), BuildingBlock: UVAHIK_clean_linker_0, # of connection points: 2
#     Edge 55, Type (0, 0), BuildingBlock: UVAHIK_clean_linker_0, # of connection points: 2
#     Edge 56, Type (0, 0), BuildingBlock: UVAHIK_clean_linker_0, # of connection points: 2
#     Edge 57, Type (0, 0), BuildingBlock: UVAHIK_clean_linker_0, # of connection points: 2
#     Edge 58, Type (0, 0), BuildingBlock: UVAHIK_clean_linker_0, # of connection points: 2
#     Edge 59, Type (0, 0), BuildingBlock: UVAHIK_clean_linker_0, # of connection points: 2
#     Edge 60, Type (0, 0), BuildingBlock: UVAHIK_clean_linker_0, # of connection points: 2
#     Edge 61, Type (0, 0), BuildingBlock: UVAHIK_clean_linker_0, # of connection points: 2
#     Edge 62, Type (0, 0), BuildingBlock: UVAHIK_clean_linker_0, # of connection points: 2
#     Edge 63, Type (0, 0), BuildingBlock: UVAHIK_clean_linker_0, # of connection points: 2
#     Edge 64, Type (0, 0), BuildingBlock: UVAHIK_clean_linker_0, # of connection points: 2
#     Edge 65, Type (0, 0), BuildingBlock: UVAHIK_clean_linker_0, # of connection points: 2
#     Edge 66, Type (0, 0), BuildingBlock: UVAHIK_clean_linker_0, # of connection points: 2
#     Edge 67, Type (0, 0), BuildingBlock: UVAHIK_clean_linker_0, # of connection points: 2
#     Edge 68, Type (0, 0), BuildingBlock: UVAHIK_clean_linker_0, # of connection points: 2
#     Edge 69, Type (0, 0), BuildingBlock: UVAHIK_clean_linker_0, # of connection points: 2
#     Edge 70, Type (0, 0), BuildingBlock: UVAHIK_clean_linker_0, # of connection points: 2
#     Edge 71, Type (0, 0), BuildingBlock: UVAHIK_clean_linker_0, # of connection points: 2
#     Edge 72, Type (0, 0), BuildingBlock: UVAHIK_clean_linker_0, # of connection points: 2
#     Edge 73, Type (0, 0), BuildingBlock: UVAHIK_clean_linker_0, # of connection points: 2
#     Edge 74, Type (0, 0), BuildingBlock: UVAHIK_clean_linker_0, # of connection points: 2
#     Edge 75, Type (0, 0), BuildingBlock: UVAHIK_clean_linker_0, # of connection points: 2
#     Edge 76, Type (0, 0), BuildingBlock: UVAHIK_clean_linker_0, # of connection points: 2
#     Edge 77, Type (0, 0), BuildingBlock: UVAHIK_clean_linker_0, # of connection points: 2
#     Edge 78, Type (0, 0), BuildingBlock: UVAHIK_clean_linker_0, # of connection points: 2
#     Edge 79, Type (0, 0), BuildingBlock: UVAHIK_clean_linker_0, # of connection points: 2
#     Edge 80, Type (0, 0), BuildingBlock: UVAHIK_clean_linker_0, # of connection points: 2
#     Edge 81, Type (0, 0), BuildingBlock: UVAHIK_clean_linker_0, # of connection points: 2
#     Edge 82, Type (0, 0), BuildingBlock: UVAHIK_clean_linker_0, # of connection points: 2
#     Edge 83, Type (0, 0), BuildingBlock: UVAHIK_clean_linker_0, # of connection points: 2
#     Edge 84, Type (0, 0), BuildingBlock: UVAHIK_clean_linker_0, # of connection points: 2
#     Edge 85, Type (0, 0), BuildingBlock: UVAHIK_clean_linker_0, # of connection points: 2
#     Edge 86, Type (0, 0), BuildingBlock: UVAHIK_clean_linker_0, # of connection points: 2
#     Edge 87, Type (0, 0), BuildingBlock: UVAHIK_clean_linker_0, # of connection points: 2
#     Edge 88, Type (0, 0), BuildingBlock: UVAHIK_clean_linker_0, # of connection points: 2
#     Edge 89, Type (0, 0), BuildingBlock: UVAHIK_clean_linker_0, # of connection points: 2
#     Edge 90, Type (0, 0), BuildingBlock: UVAHIK_clean_linker_0, # of connection points: 2
#     Edge 91, Type (0, 0), BuildingBlock: UVAHIK_clean_linker_0, # of connection points: 2
#     Edge 92, Type (0, 0), BuildingBlock: UVAHIK_clean_linker_0, # of connection points: 2
#     Edge 93, Type (0, 0), BuildingBlock: UVAHIK_clean_linker_0, # of connection points: 2
#     Edge 94, Type (0, 0), BuildingBlock: UVAHIK_clean_linker_0, # of connection points: 2
#     Edge 95, Type (0, 0), BuildingBlock: UVAHIK_clean_linker_0, # of connection points: 2
# Relax obj value: 0.106
# Max RMSD: 0.167
# Mean RMSD: 0.167
data_MOF--net-uoe--node1-GALJAG_clean_sbu_0--edge1-UVAHIK_clean_linker_0
_symmetry_space_group_name_H-M    P1
_symmetry_Int_Tables_number       1
_symmetry_cell_setting            triclinic
loop_
_symmetry_equiv_pos_as_xyz
'x, y, z'
_cell_length_a     94.858868
_cell_length_b     94.842175
_cell_length_c     35.945306
_cell_angle_alpha  90.012464
_cell_angle_beta   90.002961
_cell_angle_gamma 90.009832
loop_
_atom_site_label
_atom_site_type_symbol
_atom_site_fract_x
_atom_site_fract_y
_atom_site_fract_z
_atom_type_partial_charge
In0 In 0.10063 0.47219 0.0687 0.0
O1 O 0.09617 0.45421 0.10904 0.0
O2 O 0.11046 0.45031 0.06464 0.0
C3 C 0.07297 0.479 0.06524 0.0
C4 C 0.11534 0.48465 0.12397 0.0
C5 C 0.10961 0.4791 -0.00036 0.0
O6 O 0.0773 0.46652 0.06107 0.0
O7 O 0.08256 0.48793 0.07098 0.0
O8 O 0.11155 0.48693 0.0275 0.0
O9 O 0.10338 0.46767 0.00668 0.0
C10 C 0.10449 0.44564 0.09353 0.0
O11 O 0.12089 0.47591 0.10194 0.0
O12 O 0.1026 0.48743 0.11724 0.0
In13 In 0.77814 0.85304 0.31137 0.0
O14 O 0.77355 0.87285 0.34599 0.0
O15 O 0.76452 0.8535 0.36344 0.0
C16 C 0.77076 0.86154 0.24232 0.0
C17 C 0.80513 0.85798 0.33106 0.0
C18 C 0.77061 0.82563 0.30796 0.0
O19 O 0.76329 0.86403 0.27057 0.0
O20 O 0.78204 0.85499 0.24895 0.0
O21 O 0.78333 0.82951 0.30594 0.0
O22 O 0.76185 0.83554 0.31145 0.0
C23 C 0.76616 0.86646 0.36974 0.0
O24 O 0.7981 0.84786 0.34436 0.0
O25 O 0.79872 0.86518 0.30689 0.0
In26 In 0.40057 0.52471 0.56516 0.0
O27 O 0.3798 0.5211 0.59636 0.0
O28 O 0.39772 0.50936 0.61319 0.0
C29 C 0.39235 0.51939 0.49446 0.0
C30 C 0.39771 0.55101 0.59257 0.0
C31 C 0.42792 0.51685 0.56279 0.0
O32 O 0.39056 0.51071 0.52059 0.0
O33 O 0.39805 0.53082 0.50405 0.0
O34 O 0.42412 0.52953 0.5591 0.0
O35 O 0.41795 0.50822 0.56732 0.0
C36 C 0.38494 0.51228 0.61881 0.0
O37 O 0.40653 0.54231 0.60542 0.0
O38 O 0.39072 0.54659 0.56503 0.0
In39 In 0.72378 0.15001 0.81882 0.0
O40 O 0.72742 0.12938 0.85063 0.0
O41 O 0.73884 0.14754 0.86754 0.0
C42 C 0.73001 0.14038 0.74985 0.0
C43 C 0.69721 0.14665 0.84394 0.0
C44 C 0.73075 0.17767 0.81454 0.0
O45 O 0.73858 0.13962 0.77656 0.0
O46 O 0.71827 0.14576 0.75804 0.0
O47 O 0.71816 0.17346 0.81296 0.0
O48 O 0.73972 0.16799 0.81813 0.0
C49 C 0.73604 0.13473 0.87334 0.0
O50 O 0.70657 0.15303 0.86239 0.0
O51 O 0.70112 0.1424 0.81228 0.0
In52 In 0.10067 0.52717 0.54941 0.0
O53 O 0.09509 0.54622 0.51329 0.0
O54 O 0.11259 0.54796 0.54994 0.0
C55 C 0.07316 0.52007 0.55396 0.0
C56 C 0.1146 0.51438 0.49316 0.0
C57 C 0.1092 0.52096 0.61929 0.0
O58 O 0.07732 0.53267 0.55717 0.0
O59 O 0.08284 0.5112 0.54864 0.0
O60 O 0.11064 0.51251 0.59251 0.0
O61 O 0.10366 0.5326 0.61075 0.0
C62 C 0.10517 0.5537 0.52505 0.0
O63 O 0.12078 0.52205 0.5167 0.0
O64 O 0.10159 0.51283 0.49874 0.0
In65 In 0.72287 0.85073 0.79268 0.0
O66 O 0.70533 0.84671 0.7505 0.0
O67 O 0.70096 0.8605 0.79569 0.0
C68 C 0.7301 0.82317 0.79653 0.0
C69 C 0.73598 0.86566 0.73889 0.0
C70 C 0.72864 0.85958 0.86253 0.0
O71 O 0.71746 0.82723 0.79901 0.0
O72 O 0.73892 0.83295 0.79228 0.0
O73 O 0.73706 0.86133 0.8358 0.0
O74 O 0.71725 0.85357 0.85396 0.0
C75 C 0.69662 0.85491 0.76594 0.0
O76 O 0.72735 0.87125 0.76116 0.0
O77 O 0.73832 0.85277 0.74466 0.0
In78 In 0.39989 0.47335 0.04158 0.0
O79 O 0.40407 0.45531 0.00111 0.0
O80 O 0.38993 0.45152 0.04589 0.0
C81 C 0.42749 0.48048 0.04315 0.0
C82 C 0.38468 0.4858 0.98723 0.0
C83 C 0.39166 0.48017 0.11138 0.0
O84 O 0.42336 0.46796 0.0481 0.0
O85 O 0.41775 0.48925 0.0376 0.0
O86 O 0.38946 0.48806 0.08378 0.0
O87 O 0.39777 0.46874 0.10371 0.0
C88 C 0.39573 0.44681 0.0168 0.0
O89 O 0.37926 0.47724 0.00997 0.0
O90 O 0.39753 0.48842 0.99284 0.0
In91 In 0.77657 0.14734 0.29939 0.0
O92 O 0.77233 0.1272 0.26593 0.0
O93 O 0.76117 0.14576 0.2511 0.0
C94 C 0.77022 0.13828 0.36874 0.0
C95 C 0.80327 0.14295 0.27631 0.0
C96 C 0.76962 0.17499 0.30252 0.0
O97 O 0.76265 0.13545 0.34088 0.0
O98 O 0.78109 0.14541 0.3615 0.0
O99 O 0.78225 0.17086 0.30129 0.0
O100 O 0.76062 0.16523 0.30231 0.0
C101 C 0.76368 0.13299 0.24408 0.0
O102 O 0.79875 0.13851 0.3072 0.0
O103 O 0.79447 0.15 0.25769 0.0
In104 In 0.89885 0.52541 0.04822 0.0
O105 O 0.87842 0.52066 0.01672 0.0
O106 O 0.89686 0.50941 0.00139 0.0
C107 C 0.88995 0.52043 0.11847 0.0
C108 C 0.89522 0.55119 0.01806 0.0
C109 C 0.92642 0.51851 0.05353 0.0
O110 O 0.88871 0.51151 0.09269 0.0
O111 O 0.89546 0.53194 0.10873 0.0
O112 O 0.92212 0.53104 0.05699 0.0
O113 O 0.91684 0.50958 0.04757 0.0
C114 C 0.884 0.51177 0.99518 0.0
O115 O 0.90421 0.54252 0.00588 0.0
O116 O 0.8885 0.54705 0.04633 0.0
In117 In 0.21809 0.15089 0.80273 0.0
O118 O 0.22202 0.13147 0.7661 0.0
O119 O 0.23467 0.14961 0.75723 0.0
C120 C 0.22391 0.14136 0.872 0.0
C121 C 0.19169 0.14702 0.77677 0.0
C122 C 0.22547 0.17839 0.80693 0.0
O123 O 0.2311 0.13799 0.8439 0.0
O124 O 0.21355 0.14926 0.86509 0.0
O125 O 0.21276 0.17446 0.80613 0.0
O126 O 0.23432 0.16849 0.80599 0.0
C127 C 0.23164 0.13724 0.74728 0.0
O128 O 0.20032 0.15543 0.76188 0.0
O129 O 0.19618 0.14098 0.80575 0.0
In130 In 0.60054 0.46571 0.55608 0.0
O131 O 0.61891 0.47003 0.51613 0.0
O132 O 0.60036 0.48235 0.51069 0.0
C133 C 0.61169 0.4716 0.62356 0.0
C134 C 0.60393 0.43929 0.52987 0.0
C135 C 0.5732 0.47302 0.56464 0.0
O136 O 0.61466 0.47857 0.59477 0.0
O137 O 0.60337 0.46143 0.61819 0.0
O138 O 0.57711 0.46031 0.56345 0.0
O139 O 0.58304 0.48188 0.56203 0.0
C140 C 0.6125 0.47958 0.49854 0.0
O141 O 0.59533 0.44793 0.51582 0.0
O142 O 0.61046 0.44381 0.55807 0.0
In143 In 0.27494 0.84931 0.29254 0.0
O144 O 0.27064 0.87024 0.2627 0.0
O145 O 0.25976 0.85203 0.24409 0.0
C146 C 0.27 0.85687 0.36388 0.0
C147 C 0.30128 0.85309 0.26597 0.0
C148 C 0.2667 0.82204 0.29359 0.0
O149 O 0.26149 0.85953 0.33787 0.0
O150 O 0.28109 0.8506 0.35388 0.0
O151 O 0.27953 0.82558 0.29433 0.0
O152 O 0.25816 0.83221 0.29267 0.0
C153 C 0.26217 0.86497 0.23953 0.0
O154 O 0.29284 0.8442 0.25227 0.0
O155 O 0.29663 0.85962 0.29403 0.0
In156 In 0.89945 0.47181 0.56715 0.0
O157 O 0.90425 0.45178 0.60025 0.0
O158 O 0.88752 0.45118 0.56094 0.0
C159 C 0.92702 0.4788 0.56385 0.0
C160 C 0.88574 0.48332 0.62566 0.0
C161 C 0.89083 0.47986 0.49873 0.0
O162 O 0.92282 0.46623 0.56025 0.0
O163 O 0.91735 0.4877 0.56896 0.0
O164 O 0.88883 0.48731 0.5273 0.0
O165 O 0.897 0.46832 0.50474 0.0
C166 C 0.89439 0.44473 0.58571 0.0
O167 O 0.8795 0.47609 0.6013 0.0
O168 O 0.89872 0.48507 0.61989 0.0
In169 In 0.28056 0.15088 0.31431 0.0
O170 O 0.30318 0.15562 0.33159 0.0
O171 O 0.2984 0.1348 0.31344 0.0
C172 C 0.27233 0.17807 0.30917 0.0
C173 C 0.27162 0.14074 0.3803 0.0
C174 C 0.27197 0.14161 0.24711 0.0
O175 O 0.28473 0.17417 0.30159 0.0
O176 O 0.26416 0.16827 0.31899 0.0
O177 O 0.2641 0.14132 0.27542 0.0
O178 O 0.28422 0.14631 0.25288 0.0
C179 C 0.3075 0.14318 0.32648 0.0
O180 O 0.2688 0.1345 0.35014 0.0
O181 O 0.2784 0.15206 0.37667 0.0
In182 In 0.6005 0.53076 0.05991 0.0
O183 O 0.59671 0.55418 0.07095 0.0
O184 O 0.61782 0.54721 0.06294 0.0
C185 C 0.57321 0.52308 0.05245 0.0
C186 C 0.60867 0.52191 0.12783 0.0
C187 C 0.61074 0.52173 0.99408 0.0
O188 O 0.57737 0.53551 0.04631 0.0
O189 O 0.58279 0.51463 0.0621 0.0
O190 O 0.61054 0.51401 0.02268 0.0
O191 O 0.60596 0.534 -0.00116 0.0
C192 C 0.60965 0.55734 0.07025 0.0
O193 O 0.61521 0.51832 0.0987 0.0
O194 O 0.59801 0.52954 0.12234 0.0
In195 In 0.2256 0.84979 0.81862 0.0
O196 O 0.20789 0.8442 0.85893 0.0
O197 O 0.20375 0.85975 0.81779 0.0
C198 C 0.23293 0.82227 0.81715 0.0
C199 C 0.23775 0.86572 0.87197 0.0
C200 C 0.23219 0.85785 0.7485 0.0
O201 O 0.22062 0.8264 0.80932 0.0
O202 O 0.24141 0.83199 0.82555 0.0
O203 O 0.24049 0.85938 0.77555 0.0
O204 O 0.22044 0.85252 0.75687 0.0
C205 C 0.19928 0.85302 0.84571 0.0
O206 O 0.22893 0.8707 0.84927 0.0
O207 O 0.24083 0.85295 0.86671 0.0
In208 In 0.60276 0.97545 0.56012 0.0
O209 O 0.61149 0.95319 0.55307 0.0
O210 O 0.60077 0.958 0.60344 0.0
C211 C 0.57506 0.98232 0.55795 0.0
C212 C 0.61738 0.98926 0.61338 0.0
C213 C 0.61138 0.98057 0.48976 0.0
O214 O 0.57922 0.96982 0.5627 0.0
O215 O 0.58481 0.9912 0.55394 0.0
O216 O 0.61415 0.98878 0.51641 0.0
O217 O 0.60449 0.96972 0.49869 0.0
C218 C 0.60754 0.949 0.58474 0.0
O219 O 0.62309 0.98034 0.59215 0.0
O220 O 0.60455 0.99157 0.60671 0.0
In221 In 0.27659 0.3514 0.81446 0.0
O222 O 0.29893 0.3599 0.80675 0.0
O223 O 0.29435 0.3488 0.85664 0.0
C224 C 0.26928 0.32387 0.80907 0.0
C225 C 0.26347 0.36511 0.87048 0.0
C226 C 0.27049 0.36148 0.74599 0.0
O227 O 0.28193 0.32779 0.81236 0.0
O228 O 0.26046 0.33379 0.80827 0.0
O229 O 0.26306 0.36423 0.77417 0.0
O230 O 0.28111 0.35388 0.75246 0.0
C231 C 0.30328 0.35566 0.83798 0.0
O232 O 0.27204 0.3712 0.84896 0.0
O233 O 0.26117 0.35235 0.86282 0.0
In234 In 0.90127 0.02735 0.07282 0.0
O235 O 0.90562 0.04522 0.11368 0.0
O236 O 0.89177 0.04936 0.06849 0.0
C237 C 0.92891 0.02035 0.07059 0.0
C238 C 0.88575 0.01527 0.12708 0.0
C239 C 0.89254 0.02001 0.00381 0.0
O240 O 0.92462 0.03263 0.06325 0.0
O241 O 0.91931 0.01174 0.07898 0.0
O242 O 0.89102 0.0121 0.03168 0.0
O243 O 0.89824 0.03171 0.01079 0.0
C244 C 0.8975 0.05389 0.09786 0.0
O245 O 0.88058 0.02404 0.10449 0.0
O246 O 0.89851 0.01226 0.12139 0.0
In247 In 0.2156 0.64964 0.29695 0.0
O248 O 0.22218 0.63219 0.33782 0.0
O249 O 0.23027 0.65276 0.34622 0.0
C250 C 0.22278 0.6388 0.23017 0.0
C251 C 0.189 0.64333 0.31785 0.0
C252 C 0.22182 0.6771 0.28613 0.0
O253 O 0.22973 0.63638 0.25939 0.0
O254 O 0.21206 0.64648 0.23474 0.0
O255 O 0.20929 0.6729 0.29077 0.0
O256 O 0.23096 0.66746 0.28633 0.0
C257 C 0.22972 0.64021 0.35744 0.0
O258 O 0.19541 0.65409 0.32977 0.0
O259 O 0.19582 0.63614 0.29444 0.0
In260 In 0.60105 0.02917 0.04082 0.0
O261 O 0.6213 0.02612 0.00691 0.0
O262 O 0.603 0.01492 0.99019 0.0
C263 C 0.6103 0.0216 0.10917 0.0
C264 C 0.60457 0.05616 0.01909 0.0
C265 C 0.57359 0.02158 0.04425 0.0
O266 O 0.61215 0.01402 0.08078 0.0
O267 O 0.60402 0.03306 0.10301 0.0
O268 O 0.57759 0.03412 0.04949 0.0
O269 O 0.58339 0.013 0.03745 0.0
C270 C 0.61572 0.01784 0.98373 0.0
O271 O 0.59614 0.04785 0.003 0.0
O272 O 0.61077 0.05101 0.04704 0.0
In273 In 0.22206 0.35123 0.29918 0.0
O274 O 0.1996 0.35935 0.30588 0.0
O275 O 0.20449 0.34777 0.25686 0.0
C276 C 0.22912 0.32362 0.30439 0.0
C277 C 0.23418 0.36574 0.24301 0.0
C278 C 0.22866 0.36138 0.36736 0.0
O279 O 0.21652 0.32779 0.30652 0.0
O280 O 0.23801 0.33333 0.29994 0.0
O281 O 0.23697 0.36223 0.34009 0.0
O282 O 0.21701 0.35564 0.36013 0.0
C283 C 0.19539 0.35466 0.27494 0.0
O284 O 0.22555 0.37139 0.26518 0.0
O285 O 0.23707 0.35306 0.25018 0.0
In286 In 0.89776 0.97306 0.55168 0.0
O287 O 0.90279 0.95337 0.51736 0.0
O288 O 0.8852 0.95268 0.55396 0.0
C289 C 0.92519 0.98054 0.5544 0.0
C290 C 0.88409 0.98618 0.4954 0.0
C291 C 0.89012 0.97868 0.62252 0.0
O292 O 0.92134 0.9678 0.55215 0.0
O293 O 0.91523 0.98933 0.5556 0.0
O294 O 0.88748 0.98696 0.59596 0.0
O295 O 0.8964 0.9675 0.61328 0.0
C296 C 0.89247 0.94638 0.5297 0.0
O297 O 0.87775 0.97866 0.51895 0.0
O298 O 0.89713 0.9874 0.50095 0.0
In299 In 0.28422 0.64969 0.79701 0.0
O300 O 0.3078 0.65281 0.7865 0.0
O301 O 0.30013 0.63193 0.7946 0.0
C302 C 0.27644 0.67687 0.80561 0.0
C303 C 0.27545 0.64252 0.72826 0.0
C304 C 0.27502 0.63925 0.8623 0.0
O305 O 0.28899 0.67283 0.81076 0.0
O306 O 0.26798 0.66724 0.79644 0.0
O307 O 0.26754 0.63905 0.83324 0.0
O308 O 0.28712 0.64456 0.85826 0.0
C309 C 0.31055 0.63977 0.78755 0.0
O310 O 0.27181 0.63557 0.75668 0.0
O311 O 0.28316 0.65305 0.73488 0.0
In312 In 0.40153 0.03062 0.56135 0.0
O313 O 0.39336 0.05338 0.56079 0.0
O314 O 0.40384 0.04567 0.51265 0.0
C315 C 0.42918 0.02413 0.56836 0.0
C316 C 0.38864 0.01458 0.50963 0.0
C317 C 0.39076 0.02689 0.63033 0.0
O318 O 0.42498 0.03655 0.56249 0.0
O319 O 0.41947 0.01514 0.57122 0.0
O320 O 0.38739 0.01928 0.603 0.0
O321 O 0.39929 0.03668 0.62273 0.0
C322 C 0.39731 0.05572 0.52779 0.0
O323 O 0.3824 0.02455 0.52605 0.0
O324 O 0.4011 0.01239 0.52045 0.0
In325 In 0.7178 0.65323 0.29983 0.0
O326 O 0.70014 0.65864 0.25925 0.0
O327 O 0.69606 0.64302 0.30027 0.0
C328 C 0.72553 0.68058 0.30521 0.0
C329 C 0.73135 0.63962 0.24441 0.0
C330 C 0.7235 0.6433 0.36873 0.0
O331 O 0.71278 0.67676 0.30688 0.0
O332 O 0.73421 0.67064 0.30118 0.0
O333 O 0.73085 0.64026 0.34066 0.0
O334 O 0.71306 0.65111 0.36201 0.0
C335 C 0.6916 0.6497 0.27225 0.0
O336 O 0.72168 0.63386 0.26308 0.0
O337 O 0.7344 0.65198 0.2544 0.0
In338 In 0.10152 0.96896 0.04595 0.0
O339 O 0.11596 0.98091 0.00545 0.0
O340 O 0.09902 0.96883 0.98344 0.0
C341 C 0.11118 0.97946 0.11085 0.0
C342 C 0.11152 0.9425 0.03957 0.0
C343 C 0.07422 0.97671 0.05191 0.0
O344 O 0.11192 0.98625 0.0807 0.0
O345 O 0.10581 0.96733 0.10807 0.0
O346 O 0.07835 0.96439 0.05958 0.0
O347 O 0.08382 0.98498 0.04133 0.0
C348 C 0.10952 0.97658 0.97686 0.0
O349 O 0.09852 0.94527 0.03724 0.0
O350 O 0.11929 0.95297 0.04665 0.0
In351 In 0.77618 0.35201 0.79473 0.0
O352 O 0.77038 0.37153 0.76021 0.0
O353 O 0.76274 0.35164 0.74232 0.0
C354 C 0.76908 0.3607 0.86383 0.0
C355 C 0.80293 0.3576 0.77407 0.0
C356 C 0.76982 0.32435 0.80038 0.0
O357 O 0.76085 0.36186 0.83646 0.0
O358 O 0.7809 0.35536 0.85626 0.0
O359 O 0.78236 0.3288 0.80193 0.0
O360 O 0.76063 0.33383 0.7962 0.0
C361 C 0.76352 0.36469 0.73621 0.0
O362 O 0.79624 0.34705 0.76189 0.0
O363 O 0.79626 0.36499 0.79736 0.0
In364 In 0.40129 0.96903 0.06903 0.0
O365 O 0.40414 0.94534 0.07853 0.0
O366 O 0.38342 0.9532 0.06911 0.0
C367 C 0.4286 0.97668 0.06255 0.0
C368 C 0.39322 0.9768 0.1379 0.0
C369 C 0.39153 0.97899 0.00371 0.0
O370 O 0.42447 0.96427 0.05574 0.0
O371 O 0.419 0.98505 0.07249 0.0
O372 O 0.39157 0.98636 0.03297 0.0
O373 O 0.39623 0.96663 0.00758 0.0
C374 C 0.3911 0.94269 0.07645 0.0
O375 O 0.3867 0.98095 0.10925 0.0
O376 O 0.40386 0.96924 0.13145 0.0
In377 In 0.78136 0.65027 0.80992 0.0
O378 O 0.76841 0.63551 0.84736 0.0
O379 O 0.78077 0.65159 0.87258 0.0
C380 C 0.77228 0.64164 0.74266 0.0
C381 C 0.80752 0.63975 0.81828 0.0
C382 C 0.77385 0.67772 0.80648 0.0
O383 O 0.76469 0.64081 0.77143 0.0
O384 O 0.78445 0.64662 0.74796 0.0
O385 O 0.78635 0.67368 0.80061 0.0
O386 O 0.7653 0.66795 0.81396 0.0
C387 C 0.77262 0.64125 0.87709 0.0
O388 O 0.80498 0.65281 0.82067 0.0
O389 O 0.79699 0.63221 0.81019 0.0
In390 In 0.09789 0.03189 0.55195 0.0
O391 O 0.10651 0.05433 0.54844 0.0
O392 O 0.0954 0.04845 0.59739 0.0
C393 C 0.07028 0.02507 0.54533 0.0
C394 C 0.11083 0.01677 0.60565 0.0
C395 C 0.10837 0.02756 0.48297 0.0
O396 O 0.07432 0.03751 0.55179 0.0
O397 O 0.08011 0.01627 0.54169 0.0
O398 O 0.11123 0.01962 0.51007 0.0
O399 O 0.10046 0.03782 0.49078 0.0
C400 C 0.10227 0.05785 0.58042 0.0
O401 O 0.11709 0.02639 0.58791 0.0
O402 O 0.09833 0.01452 0.59537 0.0
In403 In 0.72031 0.34849 0.31156 0.0
O404 O 0.69765 0.35627 0.30557 0.0
O405 O 0.70309 0.34494 0.35458 0.0
C406 C 0.72787 0.321 0.30761 0.0
C407 C 0.7327 0.36353 0.36626 0.0
C408 C 0.72642 0.35831 0.2428 0.0
O409 O 0.71517 0.32492 0.30737 0.0
O410 O 0.73668 0.33091 0.30965 0.0
O411 O 0.73409 0.36074 0.27069 0.0
O412 O 0.71553 0.35115 0.24966 0.0
C413 C 0.69374 0.35159 0.33681 0.0
O414 O 0.72356 0.36879 0.34487 0.0
O415 O 0.73592 0.35092 0.35916 0.0
C416 C 0.95191 0.52476 0.06159 0.0
C417 C 0.94145 0.51452 0.05568 0.0
C418 C 0.96613 0.52091 0.06299 0.0
C419 C 0.99061 0.49263 0.03415 0.0
H420 H 0.01546 0.50927 0.1077 0.0
C421 C 0.04747 0.47265 0.05821 0.0
C422 C 0.05791 0.48292 0.06394 0.0
C423 C 0.03322 0.47644 0.05735 0.0
C424 C 0.00869 0.50464 0.08673 0.0
H425 H 0.93765 0.49221 0.04695 0.0
H426 H 0.96241 0.48549 0.04974 0.0
H427 H 0.99069 0.51613 0.10599 0.0
H428 H 0.06166 0.50521 0.07305 0.0
H429 H 0.03686 0.51185 0.07116 0.0
H430 H 0.00861 0.48116 0.01485 0.0
C431 C 0.95967 0.49651 0.05278 0.0
C432 C 0.9945 0.50857 0.08575 0.0
C433 C 0.94548 0.50036 0.05141 0.0
C434 C 0.05385 0.49705 0.0687 0.0
C435 C 0.03962 0.50084 0.06785 0.0
C436 C 0.0048 0.4887 0.03512 0.0
C437 C 0.97018 0.50674 0.05845 0.0
C438 C 0.98529 0.50262 0.05945 0.0
C439 C 0.02914 0.49058 0.06223 0.0
C440 C 0.01401 0.49466 0.0614 0.0
H441 H 0.94912 0.53577 0.06489 0.0
H442 H 0.97398 0.52907 0.06701 0.0
H443 H 0.98385 0.488 0.01316 0.0
H444 H 0.05029 0.46167 0.05457 0.0
H445 H 0.02539 0.46826 0.05338 0.0
C446 C 0.77616 0.79981 0.30411 0.0
C447 C 0.76618 0.81069 0.3071 0.0
C448 C 0.77184 0.7857 0.30406 0.0
C449 C 0.74209 0.76276 0.33175 0.0
H450 H 0.7592 0.73601 0.26385 0.0
C451 C 0.72015 0.70641 0.31007 0.0
C452 C 0.73005 0.69547 0.30683 0.0
C453 C 0.72456 0.72049 0.31055 0.0
C454 C 0.75442 0.74331 0.28328 0.0
H455 H 0.74388 0.81536 0.31201 0.0
H456 H 0.73635 0.79082 0.31154 0.0
H457 H 0.76705 0.76049 0.26373 0.0
H458 H 0.75234 0.69068 0.30197 0.0
H459 H 0.76002 0.71517 0.30319 0.0
H460 H 0.72945 0.74559 0.35128 0.0
C461 C 0.74752 0.79313 0.30978 0.0
C462 C 0.75893 0.75734 0.28321 0.0
C463 C 0.75183 0.8072 0.3098 0.0
C464 C 0.74444 0.69888 0.30438 0.0
C465 C 0.74884 0.71292 0.30483 0.0
C466 C 0.73758 0.74874 0.33182 0.0
C467 C 0.75746 0.7822 0.30706 0.0
C468 C 0.75281 0.76724 0.30741 0.0
C469 C 0.73896 0.7239 0.30772 0.0
C470 C 0.74369 0.73884 0.30758 0.0
H471 H 0.7873 0.80219 0.30208 0.0
H472 H 0.77978 0.77752 0.30228 0.0
H473 H 0.73731 0.77007 0.35116 0.0
H474 H 0.70899 0.70409 0.31191 0.0
H475 H 0.71666 0.72871 0.31244 0.0
C476 C 0.44632 0.49805 0.56595 0.0
C477 C 0.44283 0.5124 0.56271 0.0
C478 C 0.4604 0.49378 0.56671 0.0
C479 C 0.49636 0.50551 0.54203 0.0
H480 H 0.50782 0.47586 0.60992 0.0
C481 C 0.55471 0.49172 0.5664 0.0
C482 C 0.55827 0.47734 0.56716 0.0
C483 C 0.54062 0.49593 0.56683 0.0
C484 C 0.50475 0.48406 0.59057 0.0
H485 H 0.45133 0.53352 0.55772 0.0
H486 H 0.47597 0.52609 0.55948 0.0
H487 H 0.48325 0.48347 0.60854 0.0
H488 H 0.54989 0.4561 0.56961 0.0
H489 H 0.52518 0.46348 0.57032 0.0
H490 H 0.51786 0.50614 0.52418 0.0
C491 C 0.46782 0.51812 0.56091 0.0
C492 C 0.49068 0.48841 0.58973 0.0
C493 C 0.45371 0.52239 0.56008 0.0
C494 C 0.54745 0.46726 0.56906 0.0
C495 C 0.53332 0.47148 0.56961 0.0
C496 C 0.51043 0.50119 0.54294 0.0
C497 C 0.47133 0.50376 0.56434 0.0
C498 C 0.48631 0.49919 0.56542 0.0
C499 C 0.52976 0.48587 0.56811 0.0
C500 C 0.51478 0.49041 0.56723 0.0
H501 H 0.43816 0.4901 0.56792 0.0
H502 H 0.46273 0.48263 0.56878 0.0
H503 H 0.49331 0.51367 0.52253 0.0
H504 H 0.56282 0.49975 0.56505 0.0
H505 H 0.53822 0.5071 0.56623 0.0
C506 C 0.74901 0.19666 0.81529 0.0
C507 C 0.73476 0.19271 0.81275 0.0
C508 C 0.75288 0.21086 0.81397 0.0
C509 C 0.7403 0.24581 0.78348 0.0
H510 H 0.7691 0.25975 0.85068 0.0
C511 C 0.75188 0.3051 0.80013 0.0
C512 C 0.76606 0.30926 0.80258 0.0
C513 C 0.7482 0.29085 0.80146 0.0
C514 C 0.76116 0.25599 0.83144 0.0
H515 H 0.7134 0.2005 0.80681 0.0
H516 H 0.72016 0.22535 0.80475 0.0
H517 H 0.7623 0.23496 0.85282 0.0
H518 H 0.78753 0.30178 0.80852 0.0
H519 H 0.78112 0.27682 0.81061 0.0
H520 H 0.73914 0.26683 0.76211 0.0
C521 C 0.72835 0.21745 0.80737 0.0
C522 C 0.75725 0.24178 0.83267 0.0
C523 C 0.72447 0.20323 0.80874 0.0
C524 C 0.77651 0.29888 0.80664 0.0
C525 C 0.77283 0.2846 0.80801 0.0
C526 C 0.7442 0.26001 0.78224 0.0
C527 C 0.7426 0.22143 0.81004 0.0
C528 C 0.74676 0.23653 0.80874 0.0
C529 C 0.75863 0.28043 0.80527 0.0
C530 C 0.75465 0.26527 0.80627 0.0
H531 H 0.75719 0.18878 0.8183 0.0
H532 H 0.76396 0.21355 0.81559 0.0
H533 H 0.73235 0.24206 0.76424 0.0
H534 H 0.74357 0.31285 0.7971 0.0
H535 H 0.73716 0.28801 0.79985 0.0
C536 C 0.05429 0.50173 0.55146 0.0
C537 C 0.05815 0.51594 0.5557 0.0
C538 C 0.04013 0.49773 0.55251 0.0
C539 C 0.0051 0.50942 0.58473 0.0
H540 H 0.99148 0.48165 0.5141 0.0
C541 C 0.94594 0.49707 0.56712 0.0
C542 C 0.94205 0.48288 0.56263 0.0
C543 C 0.96012 0.50103 0.56636 0.0
C544 C 0.99515 0.48929 0.53429 0.0
H545 H 0.05023 0.53711 0.56447 0.0
H546 H 0.02542 0.53014 0.56606 0.0
H547 H 0.01615 0.48884 0.5126 0.0
H548 H 0.94994 0.4617 0.55378 0.0
H549 H 0.97476 0.4686 0.55271 0.0
H550 H 0.98409 0.50987 0.60642 0.0
C551 C 0.03337 0.52206 0.5623 0.0
C552 C 0.00929 0.49342 0.53343 0.0
C553 C 0.04756 0.52608 0.56121 0.0
C554 C 0.95263 0.47272 0.55723 0.0
C555 C 0.96683 0.47669 0.55644 0.0
C556 C 0.99096 0.50528 0.5856 0.0
C557 C 0.0295 0.50784 0.55783 0.0
C558 C 0.01443 0.50353 0.55864 0.0
C559 C 0.97074 0.4909 0.56108 0.0
C560 C 0.98581 0.49518 0.56038 0.0
H561 H 0.06222 0.49366 0.54728 0.0
H562 H 0.03753 0.48666 0.54953 0.0
H563 H 0.00877 0.51706 0.60491 0.0
H564 H 0.93803 0.50515 0.57122 0.0
H565 H 0.96274 0.51209 0.56948 0.0
C566 C 0.75525 0.69628 0.81055 0.0
C567 C 0.76945 0.69266 0.80501 0.0
C568 C 0.75097 0.71036 0.80949 0.0
C569 C 0.7643 0.74662 0.81978 0.0
H570 H 0.72964 0.75679 0.76918 0.0
C571 C 0.74862 0.8045 0.79384 0.0
C572 C 0.73436 0.80819 0.79807 0.0
C573 C 0.75279 0.79039 0.79495 0.0
C574 C 0.73925 0.75411 0.78384 0.0
H575 H 0.79033 0.70093 0.79394 0.0
H576 H 0.78285 0.7256 0.79195 0.0
H577 H 0.73726 0.73224 0.77008 0.0
H578 H 0.7133 0.80002 0.80692 0.0
H579 H 0.72061 0.77531 0.80933 0.0
H580 H 0.76627 0.76847 0.83369 0.0
C581 C 0.77504 0.71753 0.79743 0.0
C582 C 0.74363 0.74004 0.78429 0.0
C583 C 0.77932 0.70341 0.79835 0.0
C584 C 0.72435 0.79748 0.8035 0.0
C585 C 0.72854 0.78333 0.80466 0.0
C586 C 0.7599 0.76069 0.8194 0.0
C587 C 0.76081 0.72116 0.80298 0.0
C588 C 0.75622 0.73614 0.80223 0.0
C589 C 0.74282 0.77962 0.80039 0.0
C590 C 0.74734 0.76461 0.80136 0.0
H591 H 0.7474 0.68823 0.81582 0.0
H592 H 0.73997 0.71281 0.81435 0.0
H593 H 0.77392 0.74393 0.83436 0.0
H594 H 0.75658 0.81252 0.78945 0.0
H595 H 0.76383 0.78791 0.79098 0.0
C596 C 0.55448 0.50461 0.05587 0.0
C597 C 0.5583 0.51871 0.04941 0.0
C598 C 0.54037 0.50045 0.05401 0.0
C599 C 0.50427 0.51442 0.06103 0.0
H600 H 0.49388 0.47897 0.01471 0.0
C601 C 0.44629 0.49874 0.0369 0.0
C602 C 0.4425 0.48465 0.04351 0.0
C603 C 0.46044 0.50282 0.0371 0.0
C604 C 0.49663 0.48882 0.02813 0.0
H605 H 0.55039 0.53949 0.03555 0.0
H606 H 0.5257 0.53221 0.03213 0.0
H607 H 0.51852 0.48634 0.01524 0.0
H608 H 0.45053 0.46375 0.05553 0.0
H609 H 0.47529 0.4709 0.05632 0.0
H610 H 0.48242 0.51688 0.07414 0.0
C611 C 0.53361 0.5244 0.03899 0.0
C612 C 0.51074 0.49306 0.02838 0.0
C613 C 0.54775 0.52856 0.04074 0.0
C614 C 0.45315 0.47469 0.05028 0.0
C615 C 0.46732 0.47877 0.05052 0.0
C616 C 0.49017 0.51018 0.06084 0.0
C617 C 0.52976 0.5103 0.04575 0.0
C618 C 0.51473 0.5059 0.04485 0.0
C619 C 0.47113 0.4929 0.04398 0.0
C620 C 0.48617 0.49733 0.04438 0.0
H621 H 0.56238 0.49678 0.06267 0.0
H622 H 0.53775 0.48955 0.05981 0.0
H623 H 0.50702 0.52426 0.0745 0.0
H624 H 0.43833 0.50666 0.03142 0.0
H625 H 0.463 0.51374 0.0314 0.0
C626 C 0.74651 0.30239 0.30625 0.0
C627 C 0.73216 0.30604 0.30628 0.0
C628 C 0.75064 0.28825 0.30567 0.0
C629 C 0.73784 0.25249 0.32736 0.0
H630 H 0.76905 0.24056 0.26516 0.0
C631 C 0.75127 0.19386 0.30424 0.0
C632 C 0.76557 0.19003 0.30361 0.0
C633 C 0.74733 0.20805 0.30484 0.0
C634 C 0.76043 0.24375 0.28303 0.0
H635 H 0.71086 0.29777 0.30546 0.0
H636 H 0.71806 0.27304 0.30419 0.0
H637 H 0.7618 0.26524 0.26515 0.0
H638 H 0.78698 0.19803 0.30328 0.0
H639 H 0.7801 0.22286 0.30471 0.0
H640 H 0.73647 0.23103 0.34531 0.0
C641 C 0.72613 0.28111 0.30503 0.0
C642 C 0.75626 0.25789 0.28299 0.0
C643 C 0.722 0.29527 0.30553 0.0
C644 C 0.77587 0.20067 0.30368 0.0
C645 C 0.77192 0.21488 0.30428 0.0
C646 C 0.74201 0.23836 0.32744 0.0
C647 C 0.7405 0.27745 0.30517 0.0
C648 C 0.7449 0.26241 0.30511 0.0
C649 C 0.7576 0.21873 0.30484 0.0
C650 C 0.75334 0.23382 0.30522 0.0
H651 H 0.75459 0.31046 0.30692 0.0
H652 H 0.76178 0.28578 0.30624 0.0
H653 H 0.72921 0.25568 0.34519 0.0
H654 H 0.74309 0.1859 0.30406 0.0
H655 H 0.73621 0.21064 0.30471 0.0
C656 C 0.25063 0.30537 0.80421 0.0
C657 C 0.26497 0.30891 0.80729 0.0
C658 C 0.24639 0.29127 0.80368 0.0
C659 C 0.25923 0.25514 0.7862 0.0
H660 H 0.22643 0.24429 0.84394 0.0
C661 C 0.24416 0.19692 0.80964 0.0
C662 C 0.2298 0.19336 0.80788 0.0
C663 C 0.2484 0.21102 0.80954 0.0
C664 C 0.23551 0.24717 0.8273 0.0
H665 H 0.28613 0.30047 0.81183 0.0
H666 H 0.27872 0.27578 0.81111 0.0
H667 H 0.23403 0.26884 0.84339 0.0
H668 H 0.2086 0.20177 0.80471 0.0
H669 H 0.21599 0.22645 0.80414 0.0
H670 H 0.26069 0.23348 0.77005 0.0
C671 C 0.27076 0.28393 0.80878 0.0
C672 C 0.23987 0.26124 0.82701 0.0
C673 C 0.27501 0.29806 0.80937 0.0
C674 C 0.21974 0.2042 0.80625 0.0
C675 C 0.22398 0.21833 0.80609 0.0
C676 C 0.25485 0.24107 0.78645 0.0
C677 C 0.25639 0.28038 0.80619 0.0
C678 C 0.25179 0.2654 0.80646 0.0
C679 C 0.23837 0.2219 0.80758 0.0
C680 C 0.24294 0.23691 0.80705 0.0
H681 H 0.24265 0.3135 0.8024 0.0
H682 H 0.23527 0.2889 0.80106 0.0
H683 H 0.26833 0.25803 0.76966 0.0
H684 H 0.25217 0.18879 0.81105 0.0
H685 H 0.25955 0.21339 0.81133 0.0
C686 C 0.24747 0.80404 0.29339 0.0
C687 C 0.26194 0.80721 0.29281 0.0
C688 C 0.24286 0.79007 0.29165 0.0
C689 C 0.25396 0.75465 0.26171 0.0
H690 H 0.22357 0.74194 0.32562 0.0
C691 C 0.24001 0.69591 0.27917 0.0
C692 C 0.22576 0.69213 0.28288 0.0
C693 C 0.24402 0.71006 0.27847 0.0
C694 C 0.23192 0.74536 0.30716 0.0
H695 H 0.28294 0.79825 0.29019 0.0
H696 H 0.27487 0.77378 0.28729 0.0
H697 H 0.23154 0.76634 0.32913 0.0
H698 H 0.20448 0.70021 0.28792 0.0
H699 H 0.21146 0.72503 0.28617 0.0
H700 H 0.25435 0.73369 0.23971 0.0
C701 C 0.26709 0.78213 0.28876 0.0
C702 C 0.23652 0.75934 0.30926 0.0
C703 C 0.27172 0.79612 0.29066 0.0
C704 C 0.21554 0.70281 0.2851 0.0
C705 C 0.21956 0.71702 0.28436 0.0
C706 C 0.24934 0.74068 0.25952 0.0
C707 C 0.2526 0.77895 0.28914 0.0
C708 C 0.24765 0.76412 0.28671 0.0
C709 C 0.23387 0.7208 0.28137 0.0
C710 C 0.23832 0.73584 0.28239 0.0
H711 H 0.23968 0.81236 0.29495 0.0
H712 H 0.23163 0.78799 0.2916 0.0
H713 H 0.26239 0.75807 0.2435 0.0
H714 H 0.24814 0.68792 0.27752 0.0
H715 H 0.25514 0.71257 0.27667 0.0
C716 C 0.27742 0.20374 0.29982 0.0
C717 C 0.26774 0.19294 0.30762 0.0
C718 C 0.27309 0.21784 0.29959 0.0
C719 C 0.24162 0.24043 0.29071 0.0
H720 H 0.26502 0.26844 0.33929 0.0
C721 C 0.22315 0.29802 0.31201 0.0
C722 C 0.23324 0.30862 0.30611 0.0
C723 C 0.22717 0.28383 0.31293 0.0
C724 C 0.25843 0.26078 0.32524 0.0
H725 H 0.2459 0.18839 0.32092 0.0
H726 H 0.23835 0.21296 0.3205 0.0
H727 H 0.27251 0.24386 0.33837 0.0
H728 H 0.25545 0.3127 0.29652 0.0
H729 H 0.26242 0.28802 0.29753 0.0
H730 H 0.2276 0.25736 0.27727 0.0
C731 C 0.24926 0.21055 0.31433 0.0
C732 C 0.26273 0.2467 0.32472 0.0
C733 C 0.25361 0.19648 0.31475 0.0
C734 C 0.24742 0.30477 0.30129 0.0
C735 C 0.25144 0.29062 0.3021 0.0
C736 C 0.23734 0.25453 0.29109 0.0
C737 C 0.25897 0.2214 0.30696 0.0
C738 C 0.25439 0.23637 0.30738 0.0
C739 C 0.24137 0.27996 0.3079 0.0
C740 C 0.24572 0.26489 0.30828 0.0
H741 H 0.28838 0.20132 0.29418 0.0
H742 H 0.28078 0.22595 0.29338 0.0
H743 H 0.23504 0.23273 0.27676 0.0
H744 H 0.21214 0.30069 0.31591 0.0
H745 H 0.21918 0.2759 0.31791 0.0
C746 C 0.28166 0.70237 0.81812 0.0
C747 C 0.27195 0.69173 0.80903 0.0
C748 C 0.27734 0.71646 0.82013 0.0
C749 C 0.24941 0.74044 0.78685 0.0
H750 H 0.26285 0.76504 0.86536 0.0
C751 C 0.22736 0.79666 0.8082 0.0
C752 C 0.23715 0.80728 0.81677 0.0
C753 C 0.23146 0.7825 0.80798 0.0
C754 C 0.25912 0.75834 0.84303 0.0
H755 H 0.25007 0.68745 0.79553 0.0
H756 H 0.24254 0.71195 0.79934 0.0
H757 H 0.27043 0.74046 0.86381 0.0
H758 H 0.25891 0.81143 0.83176 0.0
H759 H 0.2661 0.78678 0.83091 0.0
H760 H 0.23815 0.75831 0.76593 0.0
C761 C 0.25352 0.70947 0.80439 0.0
C762 C 0.26346 0.74426 0.84215 0.0
C763 C 0.25783 0.69542 0.80243 0.0
C764 C 0.25111 0.80347 0.82514 0.0
C765 C 0.25521 0.78933 0.8249 0.0
C766 C 0.24507 0.75451 0.7877 0.0
C767 C 0.26324 0.72017 0.81301 0.0
C768 C 0.25866 0.73515 0.81404 0.0
C769 C 0.24544 0.77867 0.81632 0.0
C770 C 0.24989 0.76364 0.81577 0.0
H771 H 0.29262 0.69983 0.82329 0.0
H772 H 0.28511 0.72447 0.82651 0.0
H773 H 0.24569 0.73375 0.76447 0.0
H774 H 0.21652 0.79929 0.80177 0.0
H775 H 0.22364 0.77453 0.80168 0.0
C776 C 0.45482 0.0303 0.56399 0.0
C777 C 0.44424 0.02019 0.57001 0.0
C778 C 0.46902 0.02633 0.56359 0.0
C779 C 0.4934 0.99791 0.59283 0.0
H780 H 0.51754 0.01329 0.51582 0.0
C781 C 0.54944 0.97639 0.56482 0.0
C782 C 0.56003 0.98642 0.5582 0.0
C783 C 0.53527 0.98047 0.56623 0.0
C784 C 0.51098 0.009 0.53773 0.0
H785 H 0.44022 0.99806 0.5809 0.0
H786 H 0.46494 0.99113 0.57999 0.0
H787 H 0.493 0.02076 0.51958 0.0
H788 H 0.56413 0.00856 0.54762 0.0
H789 H 0.53948 0.01568 0.55029 0.0
H790 H 0.51139 0.98613 0.61092 0.0
C791 C 0.46232 0.00214 0.57594 0.0
C792 C 0.49692 0.01331 0.53993 0.0
C793 C 0.44814 0.0061 0.57627 0.0
C794 C 0.55619 0.00057 0.55266 0.0
C795 C 0.54206 0.00464 0.55401 0.0
C796 C 0.50747 0.9936 0.59063 0.0
C797 C 0.47292 0.01218 0.56929 0.0
C798 C 0.48796 0.00781 0.56749 0.0
C799 C 0.53143 0.99466 0.56096 0.0
C800 C 0.51642 0.9991 0.56304 0.0
H801 H 0.45212 0.04124 0.55914 0.0
H802 H 0.47695 0.03435 0.55888 0.0
H803 H 0.48683 0.99362 0.6147 0.0
H804 H 0.55209 0.9654 0.56914 0.0
H805 H 0.52732 0.97249 0.5712 0.0
C806 C 0.95439 0.02597 0.05935 0.0
C807 C 0.94393 0.01622 0.06948 0.0
C808 C 0.96856 0.02191 0.05811 0.0
C809 C 0.99327 0.99476 0.09305 0.0
H810 H 0.01664 0.00693 0.01061 0.0
C811 C 0.04881 0.97172 0.06601 0.0
C812 C 0.05934 0.98122 0.05479 0.0
C813 C 0.03474 0.97609 0.06835 0.0
C814 C 0.0103 0.00357 0.03405 0.0
H815 H 0.94007 0.9946 0.0863 0.0
H816 H 0.96472 0.9875 0.08386 0.0
H817 H 0.99214 0.01459 0.01397 0.0
H818 H 0.06346 0.00274 0.03752 0.0
H819 H 0.039 0.01038 0.04196 0.0
H820 H 0.01142 0.98372 0.11311 0.0
C821 C 0.96205 0.99832 0.07731 0.0
C822 C 0.99626 0.00797 0.03598 0.0
C823 C 0.9479 0.00237 0.07847 0.0
C824 C 0.05556 0.99516 0.04611 0.0
C825 C 0.04153 0.99952 0.04844 0.0
C826 C 0.00731 0.99036 0.09114 0.0
C827 C 0.97255 0.00802 0.06708 0.0
C828 C 0.98757 0.00359 0.06545 0.0
C829 C 0.03094 0.99003 0.05949 0.0
C830 C 0.01599 0.9947 0.06158 0.0
H831 H 0.95163 0.03673 0.05236 0.0
H832 H 0.97642 0.02968 0.05051 0.0
H833 H 0.98691 0.99137 0.11642 0.0
H834 H 0.05141 0.96091 0.0728 0.0
H835 H 0.02682 0.96848 0.07656 0.0
C836 C 0.54796 0.02691 0.05405 0.0
C837 C 0.55865 0.01717 0.04569 0.0
C838 C 0.53386 0.0226 0.05536 0.0
C839 C 0.50981 0.99443 0.02309 0.0
H840 H 0.48572 0.00784 0.10269 0.0
C841 C 0.45411 0.97156 0.04981 0.0
C842 C 0.44348 0.98118 0.05956 0.0
C843 C 0.46818 0.97594 0.04762 0.0
C844 C 0.49225 0.00412 0.08002 0.0
H845 H 0.56298 0.99531 0.03214 0.0
H846 H 0.53844 0.9878 0.03468 0.0
H847 H 0.51015 0.01571 0.09958 0.0
H848 H 0.43921 0.00296 0.07421 0.0
H849 H 0.46365 0.01061 0.06994 0.0
H850 H 0.49191 0.98286 0.0035 0.0
C851 C 0.5409 0.99878 0.03981 0.0
C852 C 0.50626 0.00864 0.07825 0.0
C853 C 0.55497 0.00307 0.03859 0.0
C854 C 0.44717 0.99527 0.0668 0.0
C855 C 0.4612 0.99964 0.06458 0.0
C856 C 0.49579 0.98993 0.02484 0.0
C857 C 0.53017 0.00849 0.04823 0.0
C858 C 0.51521 0.00384 0.04979 0.0
C859 C 0.47189 0.99003 0.05513 0.0
C860 C 0.48684 0.99472 0.05333 0.0
H861 H 0.55048 0.03785 0.05955 0.0
H862 H 0.52582 0.03037 0.06154 0.0
H863 H 0.51638 0.99069 0.00051 0.0
H864 H 0.45158 0.96063 0.04415 0.0
H865 H 0.47618 0.96823 0.04063 0.0
C866 C 0.04453 0.03085 0.54923 0.0
C867 C 0.05529 0.02089 0.54383 0.0
C868 C 0.03039 0.02664 0.54956 0.0
C869 C 0.00667 0.9974 0.52153 0.0
H870 H 0.98175 0.01333 0.596 0.0
C871 C 0.95099 0.97504 0.54997 0.0
C872 C 0.94012 0.98495 0.55449 0.0
C873 C 0.96507 0.97941 0.54877 0.0
C874 C 0.98855 0.00888 0.57482 0.0
H875 H 0.0597 0.99875 0.53414 0.0
H876 H 0.03513 0.9914 0.53513 0.0
H877 H 0.00617 0.02125 0.59256 0.0
H878 H 0.93547 0.00718 0.56164 0.0
H879 H 0.95999 0.01479 0.55947 0.0
H880 H 0.98904 0.98497 0.50398 0.0
C881 C 0.03754 0.00248 0.53861 0.0
C882 C 0.00253 0.01344 0.57277 0.0
C883 C 0.05164 0.00669 0.53824 0.0
C884 C 0.94362 0.99928 0.55821 0.0
C885 C 0.95767 0.00364 0.55715 0.0
C886 C 0.99269 0.99281 0.52365 0.0
C887 C 0.02674 0.01238 0.54451 0.0
C888 C 0.01177 0.00776 0.54612 0.0
C889 C 0.96856 0.99377 0.55223 0.0
C890 C 0.98347 0.9985 0.55032 0.0
H891 H 0.04703 0.04187 0.55355 0.0
H892 H 0.02232 0.03456 0.55368 0.0
H893 H 0.01344 0.99295 0.50031 0.0
H894 H 0.9486 0.96392 0.54706 0.0
H895 H 0.97323 0.97153 0.54537 0.0
C896 C 0.11703 0.49748 0.95387 0.0
C897 C 0.11334 0.48343 0.96145 0.0
C898 C 0.11912 0.50195 0.91724 0.0
C899 C 0.12646 0.48999 0.82195 0.0
H900 H 0.10394 0.52223 0.79254 0.0
C901 C 0.11495 0.50312 0.66812 0.0
C902 C 0.11284 0.51725 0.65797 0.0
C903 C 0.11705 0.49947 0.70538 0.0
C904 C 0.11057 0.51341 0.80025 0.0
H905 H 0.10958 0.46288 0.93697 0.0
H906 H 0.11344 0.47065 0.87292 0.0
H907 H 0.10441 0.515 0.85737 0.0
H908 H 0.11201 0.53873 0.67835 0.0
H909 H 0.11625 0.53248 0.74312 0.0
H910 H 0.13271 0.48841 0.76491 0.0
C911 C 0.11466 0.47821 0.89531 0.0
C912 C 0.11077 0.50924 0.83748 0.0
C913 C 0.11238 0.47378 0.9319 0.0
C914 C 0.11347 0.52773 0.68548 0.0
C915 C 0.1158 0.52412 0.72265 0.0
C916 C 0.12642 0.49428 0.78472 0.0
C917 C 0.11776 0.49239 0.88758 0.0
C918 C 0.11856 0.49738 0.8486 0.0
C919 C 0.1173 0.50991 0.73324 0.0
C920 C 0.1183 0.50593 0.77327 0.0
H921 H 0.11785 0.50515 0.97611 0.0
H922 H 0.1216 0.51292 0.91202 0.0
H923 H 0.13264 0.48088 0.82991 0.0
H924 H 0.11445 0.49482 0.64746 0.0
H925 H 0.11796 0.48841 0.71239 0.0
C926 C 0.72165 0.86383 0.92858 0.0
C927 C 0.73218 0.86343 0.90118 0.0
C928 C 0.72515 0.86638 0.96573 0.0
C929 C 0.75469 0.87795 0.02776 0.0
H930 H 0.73448 0.85567 0.10082 0.0
C931 C 0.77574 0.86407 0.17438 0.0
C932 C 0.76623 0.86513 0.2042 0.0
C933 C 0.77116 0.86628 0.1379 0.0
C934 C 0.74009 0.86211 0.0808 0.0
H935 H 0.75456 0.86567 0.89084 0.0
H936 H 0.76079 0.86953 0.95572 0.0
H937 H 0.7272 0.85493 0.03602 0.0
H938 H 0.74459 0.86968 0.21947 0.0
H939 H 0.73653 0.87325 0.1555 0.0
H940 H 0.76804 0.88447 0.07278 0.0
C941 C 0.74977 0.8683 0.94865 0.0
C942 C 0.73589 0.86175 0.0436 0.0
C943 C 0.74622 0.86598 0.91141 0.0
C944 C 0.75215 0.86881 0.197 0.0
C945 C 0.74752 0.8708 0.16046 0.0
C946 C 0.75903 0.87812 0.06494 0.0
C947 C 0.7393 0.86833 0.97642 0.0
C948 C 0.74321 0.86956 0.01646 0.0
C949 C 0.75695 0.86937 0.13056 0.0
C950 C 0.75182 0.87011 0.09172 0.0
H951 H 0.71071 0.86203 0.92136 0.0
H952 H 0.71675 0.86666 0.98611 0.0
H953 H 0.76043 0.88431 0.00786 0.0
H954 H 0.78666 0.86128 0.17917 0.0
H955 H 0.77862 0.86501 0.11531 0.0
C956 C 0.38493 0.49847 0.15816 0.0
C957 C 0.38828 0.48439 0.14989 0.0
C958 C 0.38306 0.50276 0.19504 0.0
C959 C 0.37539 0.49036 0.2896 0.0
H960 H 0.39859 0.52183 0.32106 0.0
C961 C 0.38651 0.50209 0.44434 0.0
C962 C 0.38892 0.51608 0.45537 0.0
C963 C 0.38455 0.49877 0.40681 0.0
C964 C 0.39178 0.51322 0.31277 0.0
H965 H 0.39172 0.46363 0.17343 0.0
H966 H 0.3882 0.4711 0.23788 0.0
H967 H 0.39812 0.51507 0.25582 0.0
H968 H 0.39048 0.53768 0.43619 0.0
H969 H 0.38649 0.53202 0.37089 0.0
H970 H 0.36891 0.48854 0.34639 0.0
C971 C 0.38709 0.47881 0.21585 0.0
C972 C 0.39158 0.50932 0.27532 0.0
C973 C 0.38917 0.47456 0.17902 0.0
C974 C 0.38877 0.52677 0.42839 0.0
C975 C 0.38659 0.5235 0.39092 0.0
C976 C 0.37542 0.49439 0.32703 0.0
C977 C 0.38429 0.493 0.22424 0.0
C978 C 0.38354 0.49774 0.26347 0.0
C979 C 0.38475 0.50941 0.3795 0.0
C980 C 0.38379 0.50575 0.33924 0.0
H981 H 0.38419 0.50628 0.13626 0.0
H982 H 0.38082 0.51375 0.20078 0.0
H983 H 0.369 0.48146 0.28106 0.0
H984 H 0.38664 0.49362 0.46456 0.0
H985 H 0.38338 0.48779 0.39919 0.0
C986 C 0.74785 0.13471 0.70091 0.0
C987 C 0.73369 0.13626 0.71146 0.0
C988 C 0.7514 0.13228 0.66371 0.0
C989 C 0.73658 0.13678 0.56889 0.0
H990 H 0.77027 0.11643 0.53971 0.0
C991 C 0.75242 0.12996 0.41515 0.0
C992 C 0.76619 0.1345 0.40714 0.0
C993 C 0.74817 0.12786 0.45198 0.0
C994 C 0.76082 0.12212 0.54753 0.0
H995 H 0.71209 0.13571 0.69196 0.0
H996 H 0.71819 0.13086 0.62738 0.0
H997 H 0.76305 0.11663 0.60495 0.0
H998 H 0.7865 0.13975 0.4311 0.0
H999 H 0.77912 0.13586 0.49543 0.0
H1000 H 0.73435 0.14219 0.51138 0.0
C1001 C 0.72664 0.13203 0.64741 0.0
C1002 C 0.7567 0.12231 0.58491 0.0
C1003 C 0.72311 0.1347 0.68449 0.0
C1004 C 0.77581 0.13628 0.43648 0.0
C1005 C 0.77162 0.13399 0.47326 0.0
C1006 C 0.74058 0.13641 0.53153 0.0
C1007 C 0.74084 0.13113 0.63632 0.0
C1008 C 0.74465 0.12985 0.59619 0.0
C1009 C 0.75768 0.13005 0.48141 0.0
C1010 C 0.75284 0.12927 0.52055 0.0
H1011 H 0.75623 0.13594 0.72115 0.0
H1012 H 0.76245 0.13185 0.65631 0.0
H1013 H 0.72741 0.14295 0.57641 0.0
H1014 H 0.74478 0.12851 0.39307 0.0
H1015 H 0.73739 0.12474 0.45752 0.0
C1016 C 0.88584 0.52811 0.18411 0.0
C1017 C 0.88617 0.51731 0.15742 0.0
C1018 C 0.88345 0.52498 0.22156 0.0
C1019 C 0.87211 0.49607 0.28578 0.0
H1020 H 0.89537 0.51636 0.35654 0.0
C1021 C 0.88739 0.47506 0.43103 0.0
C1022 C 0.88699 0.48457 0.46096 0.0
C1023 C 0.88479 0.47971 0.39482 0.0
C1024 C 0.88865 0.51074 0.33719 0.0
H1025 H 0.8839 0.49482 0.1487 0.0
H1026 H 0.88024 0.48925 0.21403 0.0
H1027 H 0.89546 0.52337 0.29147 0.0
H1028 H 0.88321 0.50631 0.47672 0.0
H1029 H 0.87893 0.5145 0.41314 0.0
H1030 H 0.86592 0.48299 0.33163 0.0
C1031 C 0.88145 0.5002 0.20618 0.0
C1032 C 0.88864 0.51478 0.29984 0.0
C1033 C 0.88365 0.50337 0.16868 0.0
C1034 C 0.88359 0.49875 0.45415 0.0
C1035 C 0.88119 0.50345 0.41783 0.0
C1036 C 0.87228 0.49191 0.32309 0.0
C1037 C 0.88153 0.51094 0.23323 0.0
C1038 C 0.88052 0.50738 0.27351 0.0
C1039 C 0.88193 0.49399 0.3878 0.0
C1040 C 0.88068 0.49911 0.34903 0.0
H1041 H 0.88763 0.53898 0.17612 0.0
H1042 H 0.88328 0.53356 0.24142 0.0
H1043 H 0.8655 0.49029 0.2665 0.0
H1044 H 0.88995 0.46406 0.43552 0.0
H1045 H 0.88554 0.47223 0.37212 0.0
C1046 C 0.21909 0.14035 0.94042 0.0
C1047 C 0.22803 0.13743 0.91023 0.0
C1048 C 0.22364 0.13798 0.9769 0.0
C1049 C 0.25577 0.13817 0.03118 0.0
H1050 H 0.23339 0.12065 0.10868 0.0
C1051 C 0.27669 0.13531 0.18083 0.0
C1052 C 0.26699 0.13774 0.20958 0.0
C1053 C 0.27202 0.1329 0.14452 0.0
C1054 C 0.23973 0.12571 0.08749 0.0
H1055 H 0.24854 0.12928 0.8944 0.0
H1056 H 0.25655 0.12538 0.95818 0.0
H1057 H 0.22473 0.12082 0.04464 0.0
H1058 H 0.2448 0.13923 0.22324 0.0
H1059 H 0.23661 0.13564 0.15973 0.0
H1060 H 0.27042 0.14375 0.07367 0.0
C1061 C 0.24603 0.12946 0.95357 0.0
C1062 C 0.23478 0.12573 0.0508 0.0
C1063 C 0.24142 0.13164 0.91712 0.0
C1064 C 0.25251 0.13732 0.20159 0.0
C1065 C 0.24783 0.13517 0.16514 0.0
C1066 C 0.26061 0.13836 0.06783 0.0
C1067 C 0.23728 0.13283 0.98381 0.0
C1068 C 0.24274 0.13201 0.02236 0.0
C1069 C 0.25753 0.13317 0.13596 0.0
C1070 C 0.25264 0.1322 0.09659 0.0
H1071 H 0.20871 0.1448 0.93591 0.0
H1072 H 0.21672 0.14075 -0.00027 0.0
H1073 H 0.26202 0.14329 0.00987 0.0
H1074 H 0.28792 0.13543 0.18631 0.0
H1075 H 0.27981 0.13103 0.12308 0.0
C1076 C 0.61838 0.52616 0.9287 0.0
C1077 C 0.6153 0.51658 0.95729 0.0
C1078 C 0.62142 0.52134 0.89286 0.0
C1079 C 0.62897 0.48876 0.83727 0.0
H1080 H 0.61225 0.5108 0.75787 0.0
C1081 C 0.61367 0.4672 0.69196 0.0
C1082 C 0.61642 0.47584 0.66106 0.0
C1083 C 0.61656 0.47199 0.72795 0.0
C1084 C 0.61717 0.50463 0.77966 0.0
H1085 H 0.61338 0.49445 0.97129 0.0
H1086 H 0.61806 0.48601 0.9085 0.0
H1087 H 0.61153 0.51964 0.8212 0.0
H1088 H 0.62492 0.49598 0.64337 0.0
H1089 H 0.62975 0.50442 0.70634 0.0
H1090 H 0.63385 0.47338 0.79537 0.0
C1091 C 0.61855 0.49724 0.91372 0.0
C1092 C 0.61683 0.50972 0.81606 0.0
C1093 C 0.61577 0.50207 0.94974 0.0
C1094 C 0.62267 0.4891 0.66668 0.0
C1095 C 0.62539 0.49395 0.70267 0.0
C1096 C 0.62912 0.48357 0.80082 0.0
C1097 C 0.62115 0.50683 0.88461 0.0
C1098 C 0.62259 0.5018 0.84549 0.0
C1099 C 0.62208 0.48556 0.73366 0.0
C1100 C 0.62311 0.49142 0.77176 0.0
H1101 H 0.61825 0.53741 0.9339 0.0
H1102 H 0.62374 0.52905 0.8715 0.0
H1103 H 0.63375 0.48247 0.85902 0.0
H1104 H 0.60888 0.45691 0.68843 0.0
H1105 H 0.61382 0.46535 0.75138 0.0
C1106 C 0.2262 0.86077 0.68114 0.0
C1107 C 0.23627 0.86107 0.70978 0.0
C1108 C 0.2303 0.86265 0.64411 0.0
C1109 C 0.26015 0.85657 0.58326 0.0
H1110 H 0.24043 0.88062 0.5133 0.0
C1111 C 0.27753 0.85938 0.43017 0.0
C1112 C 0.26686 0.86005 0.40322 0.0
C1113 C 0.27438 0.86142 0.46776 0.0
C1114 C 0.24596 0.87372 0.53234 0.0
H1115 H 0.25845 0.86394 0.72234 0.0
H1116 H 0.26563 0.86698 0.65751 0.0
H1117 H 0.23356 0.88066 0.5788 0.0
H1118 H 0.24456 0.8636 0.3942 0.0
H1119 H 0.23891 0.86661 0.45978 0.0
H1120 H 0.27212 0.84908 0.53706 0.0
C1121 C 0.25458 0.86533 0.66377 0.0
C1122 C 0.24206 0.87382 0.56987 0.0
C1123 C 0.25046 0.86365 0.70083 0.0
C1124 C 0.25302 0.8631 0.41441 0.0
C1125 C 0.24981 0.86491 0.45206 0.0
C1126 C 0.26392 0.8563 0.54572 0.0
C1127 C 0.24456 0.86467 0.63504 0.0
C1128 C 0.24908 0.8652 0.59562 0.0
C1129 C 0.26042 0.86393 0.47933 0.0
C1130 C 0.25683 0.86482 0.51966 0.0
H1131 H 0.21519 0.85881 0.68727 0.0
H1132 H 0.22239 0.86199 0.62244 0.0
H1133 H 0.26561 0.84966 0.60246 0.0
H1134 H 0.28833 0.85717 0.42225 0.0
H1135 H 0.2829 0.86091 0.48777 0.0
C1136 C 0.61405 0.02664 0.1767 0.0
C1137 C 0.61425 0.01701 0.147 0.0
C1138 C 0.61657 0.02207 0.21305 0.0
C1139 C 0.61173 0.9914 0.27123 0.0
H1140 H 0.63591 0.01079 0.34158 0.0
C1141 C 0.61447 0.97325 0.42353 0.0
C1142 C 0.61504 0.98382 0.45079 0.0
C1143 C 0.61674 0.97654 0.38612 0.0
C1144 C 0.62899 0.00533 0.32244 0.0
H1145 H 0.61763 0.99515 0.13179 0.0
H1146 H 0.62174 0.9871 0.19557 0.0
H1147 H 0.63554 0.01823 0.27653 0.0
H1148 H 0.61873 0.00605 0.4606 0.0
H1149 H 0.62209 0.01195 0.3953 0.0
H1150 H 0.60454 0.979 0.31691 0.0
C1151 C 0.61971 0.99819 0.1906 0.0
C1152 C 0.62887 0.00956 0.28515 0.0
C1153 C 0.61741 0.0028 0.15417 0.0
C1154 C 0.6183 0.99768 0.44013 0.0
C1155 C 0.62031 0.00103 0.40263 0.0
C1156 C 0.61168 0.98732 0.30854 0.0
C1157 C 0.61913 0.00775 0.22041 0.0
C1158 C 0.62015 0.00269 0.25929 0.0
C1159 C 0.61935 0.99053 0.37501 0.0
C1160 C 0.62021 0.99431 0.33478 0.0
H1161 H 0.61167 0.03766 0.17195 0.0
H1162 H 0.61596 0.02963 0.23559 0.0
H1163 H 0.60476 0.98606 0.25194 0.0
H1164 H 0.61212 0.96244 0.43106 0.0
H1165 H 0.61626 0.9681 0.36587 0.0
C1166 C 0.22216 0.36758 0.43263 0.0
C1167 C 0.23258 0.36577 0.40536 0.0
C1168 C 0.2259 0.37038 0.46949 0.0
C1169 C 0.25649 0.3795 0.53109 0.0
H1170 H 0.23404 0.35997 0.60507 0.0
C1171 C 0.27592 0.364 0.67825 0.0
C1172 C 0.2665 0.36586 0.708 0.0
C1173 C 0.27167 0.36679 0.64176 0.0
C1174 C 0.24029 0.36566 0.58481 0.0
H1175 H 0.25507 0.36583 0.39486 0.0
H1176 H 0.26167 0.37007 0.45936 0.0
H1177 H 0.22673 0.35955 0.54035 0.0
H1178 H 0.24542 0.37258 0.72313 0.0
H1179 H 0.2379 0.37721 0.6592 0.0
H1180 H 0.27046 0.38487 0.57589 0.0
C1181 C 0.25058 0.36977 0.45236 0.0
C1182 C 0.23608 0.36549 0.54761 0.0
C1183 C 0.24681 0.36724 0.41534 0.0
C1184 C 0.2529 0.37104 0.70073 0.0
C1185 C 0.24858 0.37364 0.6642 0.0
C1186 C 0.26081 0.37947 0.56831 0.0
C1187 C 0.24017 0.37111 0.4801 0.0
C1188 C 0.24418 0.37229 0.52011 0.0
C1189 C 0.25785 0.37131 0.63433 0.0
C1190 C 0.25281 0.37244 0.59544 0.0
H1191 H 0.2111 0.36665 0.42557 0.0
H1192 H 0.21757 0.37172 0.48977 0.0
H1193 H 0.26287 0.38507 0.51092 0.0
H1194 H 0.28648 0.36005 0.68307 0.0
H1195 H 0.27898 0.36481 0.61922 0.0
C1196 C 0.88902 0.02529 0.93629 0.0
C1197 C 0.88884 0.01555 0.96571 0.0
C1198 C 0.88663 0.02083 0.89976 0.0
C1199 C 0.89155 0.99027 0.84086 0.0
H1200 H 0.86723 0.00973 0.77105 0.0
C1201 C 0.88752 0.97167 0.68912 0.0
C1202 C 0.88695 0.98216 0.66163 0.0
C1203 C 0.88564 0.97514 0.72656 0.0
C1204 C 0.87419 0.00426 0.79005 0.0
H1205 H 0.88567 0.99358 0.98021 0.0
H1206 H 0.88176 0.98576 0.91621 0.0
H1207 H 0.86785 0.0172 0.83608 0.0
H1208 H 0.88367 0.00443 0.65148 0.0
H1209 H 0.88094 0.01063 0.71681 0.0
H1210 H 0.89847 0.97777 0.79504 0.0
C1211 C 0.88369 0.99684 0.9215 0.0
C1212 C 0.87447 0.00851 0.82731 0.0
C1213 C 0.88587 0.00133 0.95807 0.0
C1214 C 0.8841 0.99612 0.67212 0.0
C1215 C 0.88245 0.99965 0.70963 0.0
C1216 C 0.89144 0.98615 0.80358 0.0
C1217 C 0.88423 0.00652 0.89197 0.0
C1218 C 0.88321 0.00159 0.85298 0.0
C1219 C 0.8834 0.98923 0.73743 0.0
C1220 C 0.88283 0.99315 0.77757 0.0
H1221 H 0.89126 0.03633 0.94141 0.0
H1222 H 0.88721 0.02849 0.87745 0.0
H1223 H 0.89855 0.98489 0.86 0.0
H1224 H 0.88957 0.96079 0.68174 0.0
H1225 H 0.8861 0.96678 0.747 0.0
C1226 C 0.25525 0.63366 0.90581 0.0
C1227 C 0.26978 0.63452 0.89883 0.0
C1228 C 0.25032 0.63081 0.94167 0.0
C1229 C 0.26226 0.63337 0.03956 0.0
H1230 H 0.2263 0.61547 0.05977 0.0
C1231 C 0.24099 0.62826 0.1884 0.0
C1232 C 0.22747 0.63404 0.19309 0.0
C1233 C 0.24614 0.62538 0.15279 0.0
C1234 C 0.23638 0.62045 0.05445 0.0
H1235 H 0.29056 0.63216 0.92301 0.0
H1236 H 0.28202 0.62655 0.98515 0.0
H1237 H 0.23571 0.61541 0.99644 0.0
H1238 H 0.20844 0.6406 0.16453 0.0
H1239 H 0.21741 0.63543 0.10226 0.0
H1240 H 0.2629 0.6384 0.09752 0.0
C1241 C 0.27437 0.62862 0.96346 0.0
C1242 C 0.24175 0.62049 0.01819 0.0
C1243 C 0.27929 0.63173 0.92779 0.0
C1244 C 0.21892 0.63619 0.1617 0.0
C1245 C 0.22402 0.63316 0.1261 0.0
C1246 C 0.25699 0.63314 0.07577 0.0
C1247 C 0.25982 0.62854 0.97117 0.0
C1248 C 0.25465 0.62718 0.01015 0.0
C1249 C 0.23781 0.62808 0.12128 0.0
C1250 C 0.2439 0.6269 0.08348 0.0
H1251 H 0.2477 0.63581 0.88394 0.0
H1252 H 0.23905 0.63102 0.94649 0.0
H1253 H 0.27205 0.6389 0.03452 0.0
H1254 H 0.2478 0.62646 0.21211 0.0
H1255 H 0.25677 0.62136 0.14981 0.0
C1256 C 0.38343 0.97525 0.93852 0.0
C1257 C 0.3872 0.98455 0.96716 0.0
C1258 C 0.38066 0.98031 0.9028 0.0
C1259 C 0.37537 0.01335 0.8472 0.0
H1260 H 0.38976 0.98976 0.76767 0.0
C1261 C 0.39011 0.03246 0.69845 0.0
C1262 C 0.38627 0.02362 0.66872 0.0
C1263 C 0.38748 0.02836 0.73519 0.0
C1264 C 0.38551 0.99639 0.78952 0.0
H1265 H 0.39065 0.00646 0.98144 0.0
H1266 H 0.38648 0.01531 0.91871 0.0
H1267 H 0.39046 0.98123 0.83121 0.0
H1268 H 0.37602 0.00395 0.654 0.0
H1269 H 0.37163 0.99674 0.71814 0.0
H1270 H 0.37119 0.02881 0.80495 0.0
C1271 C 0.38523 0.00413 0.92383 0.0
C1272 C 0.38584 0.99148 0.82606 0.0
C1273 C 0.3877 0.99907 0.95981 0.0
C1274 C 0.37915 0.01096 0.67633 0.0
C1275 C 0.37667 0.0068 0.713 0.0
C1276 C 0.37526 0.01835 0.81055 0.0
C1277 C 0.38195 0.99478 0.89464 0.0
C1278 C 0.38082 0.99989 0.8555 0.0
C1279 C 0.38112 0.01529 0.74278 0.0
C1280 C 0.38037 0.00991 0.78141 0.0
H1281 H 0.38279 0.96401 0.94361 0.0
H1282 H 0.37775 0.97281 0.88144 0.0
H1283 H 0.37123 0.02005 0.86897 0.0
H1284 H 0.39558 0.04229 0.69339 0.0
H1285 H 0.39108 0.03506 0.75767 0.0
C1286 C 0.71859 0.64182 0.43705 0.0
C1287 C 0.72756 0.63909 0.40679 0.0
C1288 C 0.72312 0.63922 0.47344 0.0
C1289 C 0.75525 0.63928 0.52742 0.0
H1290 H 0.73318 0.62118 0.60462 0.0
C1291 C 0.7767 0.63567 0.67613 0.0
C1292 C 0.76712 0.63793 0.70523 0.0
C1293 C 0.77188 0.6334 0.63992 0.0
C1294 C 0.73942 0.6264 0.5835 0.0
H1295 H 0.74805 0.63098 0.39067 0.0
H1296 H 0.75602 0.62667 0.45427 0.0
H1297 H 0.72436 0.62165 0.54071 0.0
H1298 H 0.74499 0.63923 0.71972 0.0
H1299 H 0.73653 0.63591 0.65631 0.0
H1300 H 0.76996 0.64474 0.56983 0.0
C1301 C 0.7455 0.63079 0.4498 0.0
C1302 C 0.73439 0.62658 0.54691 0.0
C1303 C 0.74092 0.63322 0.41346 0.0
C1304 C 0.75261 0.63746 0.69774 0.0
C1305 C 0.74777 0.63546 0.66137 0.0
C1306 C 0.76017 0.6393 0.56397 0.0
C1307 C 0.73675 0.63402 0.48014 0.0
C1308 C 0.74225 0.63306 0.51859 0.0
C1309 C 0.75736 0.63365 0.63184 0.0
C1310 C 0.75232 0.63291 0.5926 0.0
H1311 H 0.70823 0.64632 0.43269 0.0
H1312 H 0.71621 0.64187 0.49638 0.0
H1313 H 0.76141 0.64456 0.5062 0.0
H1314 H 0.78795 0.63581 0.68126 0.0
H1315 H 0.77959 0.63165 0.61819 0.0
C1316 C 0.11785 0.01098 0.43515 0.0
C1317 C 0.11296 0.02447 0.44458 0.0
C1318 C 0.12064 0.00753 0.39808 0.0
C1319 C 0.11111 0.01903 0.30279 0.0
H1320 H 0.13801 0.99016 0.27455 0.0
C1321 C 0.11708 0.00016 0.15106 0.0
C1322 C 0.11529 0.98554 0.14706 0.0
C1323 C 0.11939 0.00604 0.18622 0.0
C1324 C 0.1305 0.99828 0.28208 0.0
H1325 H 0.10796 0.04522 0.42314 0.0
H1326 H 0.1134 0.03944 0.35863 0.0
H1327 H 0.13767 0.99889 0.33847 0.0
H1328 H 0.11523 0.96553 0.1762 0.0
H1329 H 0.11952 0.97579 0.23751 0.0
H1330 H 0.10399 0.01838 0.2463 0.0
C1331 C 0.11461 0.03131 0.37955 0.0
C1332 C 0.13023 0.00323 0.31873 0.0
C1333 C 0.11159 0.03468 0.41656 0.0
C1334 C 0.11653 0.97684 0.17851 0.0
C1335 C 0.11906 0.9827 0.21354 0.0
C1336 C 0.11154 0.01423 0.26609 0.0
C1337 C 0.11881 0.01758 0.36964 0.0
C1338 C 0.1203 0.01344 0.3298 0.0
C1339 C 0.1202 0.99737 0.21784 0.0
C1340 C 0.12103 0.0036 0.25557 0.0
H1341 H 0.11894 0.00288 0.4562 0.0
H1342 H 0.12365 0.99679 0.39167 0.0
H1343 H 0.10313 0.02669 0.31021 0.0
H1344 H 0.11617 0.00711 0.12727 0.0
H1345 H 0.1203 0.01739 0.18882 0.0
C1346 C 0.74409 0.36748 0.19734 0.0
C1347 C 0.73041 0.36256 0.20474 0.0
C1348 C 0.7484 0.37002 0.16079 0.0
C1349 C 0.73615 0.37635 0.06529 0.0
H1350 H 0.77005 0.35627 0.03669 0.0
C1351 C 0.75067 0.36564 0.9118 0.0
C1352 C 0.76495 0.36439 0.90216 0.0
C1353 C 0.74672 0.36764 0.9489 0.0
C1354 C 0.76074 0.36224 0.04417 0.0
H1355 H 0.71028 0.35713 0.18003 0.0
H1356 H 0.71777 0.36179 0.1161 0.0
H1357 H 0.76263 0.35626 0.10134 0.0
H1358 H 0.78634 0.36506 0.92316 0.0
H1359 H 0.77954 0.36917 0.98758 0.0
H1360 H 0.73428 0.38243 0.00819 0.0
C1361 C 0.72515 0.36361 0.13858 0.0
C1362 C 0.75647 0.36217 0.08129 0.0
C1363 C 0.7209 0.36087 0.1751 0.0
C1364 C 0.77524 0.36584 0.92993 0.0
C1365 C 0.77131 0.36808 0.9669 0.0
C1366 C 0.74054 0.37661 0.02814 0.0
C1367 C 0.73904 0.36789 0.13103 0.0
C1368 C 0.74404 0.36905 0.09214 0.0
C1369 C 0.75699 0.36865 0.97707 0.0
C1370 C 0.7528 0.36939 0.01698 0.0
H1371 H 0.75164 0.36888 0.21965 0.0
H1372 H 0.75913 0.37342 0.1557 0.0
H1373 H 0.72657 0.38183 0.07305 0.0
H1374 H 0.74251 0.3645 0.89091 0.0
H1375 H 0.73559 0.36783 0.95557 0.0
C1376 C 0.13381 0.51552 0.44562 0.0
C1377 C 0.12151 0.50907 0.4592 0.0
C1378 C 0.13882 0.51228 0.41001 0.0
C1379 C 0.13547 0.48714 0.33163 0.0
H1380 H 0.13663 0.52045 0.26908 0.0
C1381 C 0.11652 0.50085 0.1784 0.0
C1382 C 0.12243 0.48974 0.15791 0.0
C1383 C 0.12156 0.50406 0.21387 0.0
C1384 C 0.13657 0.51106 0.28624 0.0
H1385 H 0.1054 0.49348 0.44764 0.0
H1386 H 0.11426 0.48763 0.38592 0.0
H1387 H 0.13624 0.52305 0.33669 0.0
H1388 H 0.13882 0.4738 0.15732 0.0
H1389 H 0.14751 0.47927 0.21984 0.0
H1390 H 0.13493 0.47518 0.28119 0.0
C1391 C 0.12002 0.49522 0.40254 0.0
C1392 C 0.13645 0.51253 0.32492 0.0
C1393 C 0.11489 0.49862 0.43779 0.0
C1394 C 0.13407 0.48245 0.17254 0.0
C1395 C 0.13901 0.48552 0.20832 0.0
C1396 C 0.13573 0.48566 0.29297 0.0
C1397 C 0.13175 0.50234 0.3878 0.0
C1398 C 0.13529 0.5006 0.34791 0.0
C1399 C 0.13252 0.49609 0.22973 0.0
C1400 C 0.13567 0.49763 0.26991 0.0
H1401 H 0.13908 0.52366 0.46156 0.0
H1402 H 0.14791 0.51788 0.39932 0.0
H1403 H 0.13467 0.47778 0.34877 0.0
H1404 H 0.10755 0.50666 0.16773 0.0
H1405 H 0.11625 0.51216 0.22981 0.0
C1406 C 0.75246 0.86694 0.68511 0.0
C1407 C 0.74137 0.87292 0.70554 0.0
C1408 C 0.75587 0.87212 0.64992 0.0
C1409 C 0.76327 0.88731 0.57808 0.0
H1410 H 0.73009 0.88604 0.51509 0.0
C1411 C 0.76772 0.88525 0.41839 0.0
C1412 C 0.76114 0.87308 0.40438 0.0
C1413 C 0.7646 0.89007 0.45426 0.0
C1414 C 0.73943 0.88667 0.53236 0.0
H1415 H 0.72572 0.88957 0.70639 0.0
H1416 H 0.73154 0.8985 0.64434 0.0
H1417 H 0.72737 0.88615 0.58262 0.0
H1418 H 0.74549 0.85699 0.41556 0.0
H1419 H 0.73986 0.86551 0.47774 0.0
H1420 H 0.77534 0.88697 0.52776 0.0
C1421 C 0.73762 0.88984 0.6557 0.0
C1422 C 0.73788 0.88684 0.571 0.0
C1423 C 0.73434 0.88477 0.69121 0.0
C1424 C 0.75073 0.86638 0.42574 0.0
C1425 C 0.74745 0.87132 0.46124 0.0
C1426 C 0.76481 0.88728 0.53942 0.0
C1427 C 0.74814 0.88328 0.63429 0.0
C1428 C 0.7498 0.88656 0.59422 0.0
C1429 C 0.75465 0.88294 0.47631 0.0
C1430 C 0.75291 0.88636 0.51626 0.0
H1431 H 0.75807 0.85781 0.69555 0.0
H1432 H 0.76394 0.86675 0.63396 0.0
H1433 H 0.77262 0.88719 0.59537 0.0
H1434 H 0.77582 0.89058 0.40248 0.0
H1435 H 0.77027 0.89907 0.46524 0.0
C1436 C 0.36566 0.51478 0.66578 0.0
C1437 C 0.37741 0.50736 0.65227 0.0
C1438 C 0.36038 0.51197 0.70137 0.0
C1439 C 0.36241 0.48706 0.78103 0.0
H1440 H 0.36323 0.52096 0.84138 0.0
C1441 C 0.38325 0.50164 0.93215 0.0
C1442 C 0.37731 0.49082 0.95363 0.0
C1443 C 0.37794 0.50467 0.89686 0.0
C1444 C 0.36275 0.51142 0.82487 0.0
H1445 H 0.39212 0.49045 0.66385 0.0
H1446 H 0.38285 0.48543 0.72557 0.0
H1447 H 0.36335 0.52291 0.7737 0.0
H1448 H 0.36059 0.47526 0.95618 0.0
H1449 H 0.35138 0.48046 0.89402 0.0
H1450 H 0.36276 0.47556 0.8322 0.0
C1451 C 0.3777 0.49342 0.70892 0.0
C1452 C 0.3627 0.51252 0.78611 0.0
C1453 C 0.38307 0.49635 0.67364 0.0
C1454 C 0.36536 0.48368 0.94019 0.0
C1455 C 0.36014 0.48659 0.90459 0.0
C1456 C 0.36237 0.48596 0.81979 0.0
C1457 C 0.36664 0.50155 0.72372 0.0
C1458 C 0.36316 0.50034 0.76383 0.0
C1459 C 0.36666 0.49683 0.88215 0.0
C1460 C 0.36317 0.49812 0.84207 0.0
H1461 H 0.3611 0.52335 0.64988 0.0
H1462 H 0.35179 0.51832 0.71201 0.0
H1463 H 0.36262 0.47751 0.76452 0.0
H1464 H 0.39245 0.50733 0.94187 0.0
H1465 H 0.3833 0.51252 0.88014 0.0
C1466 C 0.76533 0.11422 0.19534 0.0
C1467 C 0.75845 0.12612 0.20991 0.0
C1468 C 0.76223 0.10947 0.1594 0.0
C1469 C 0.76256 0.11244 0.07475 0.0
H1470 H 0.72545 0.11413 0.02977 0.0
C1471 C 0.7519 0.13313 0.92839 0.0
C1472 C 0.74087 0.1274 0.90721 0.0
C1473 C 0.75481 0.12793 0.96387 0.0
C1474 C 0.73587 0.1133 0.04187 0.0
H1475 H 0.7422 0.1417 0.19968 0.0
H1476 H 0.73667 0.13335 0.13732 0.0
H1477 H 0.72769 0.11379 0.09742 0.0
H1478 H 0.72476 0.1112 0.9055 0.0
H1479 H 0.72974 0.1022 0.96801 0.0
H1480 H 0.77077 0.11273 0.01922 0.0
C1481 C 0.74447 0.12767 0.15344 0.0
C1482 C 0.73715 0.11323 0.08061 0.0
C1483 C 0.74769 0.13252 0.1891 0.0
C1484 C 0.73335 0.11579 0.92123 0.0
C1485 C 0.73614 0.11069 0.95703 0.0
C1486 C 0.76129 0.11263 0.03602 0.0
C1487 C 0.75205 0.11642 0.13769 0.0
C1488 C 0.75052 0.11333 0.09742 0.0
C1489 C 0.74663 0.11699 0.97909 0.0
C1490 C 0.74795 0.1136 0.01923 0.0
H1491 H 0.7737 0.1091 0.21078 0.0
H1492 H 0.76816 0.10071 0.14803 0.0
H1493 H 0.77302 0.1126 0.08686 0.0
H1494 H 0.75786 0.14208 0.91824 0.0
H1495 H 0.76286 0.13311 0.9803 0.0
C1496 C 0.86667 0.48128 0.67337 0.0
C1497 C 0.8789 0.48802 0.66032 0.0
C1498 C 0.86159 0.4841 0.70916 0.0
C1499 C 0.86376 0.48332 0.79449 0.0
H1500 H 0.86418 0.52052 0.83927 0.0
C1501 C 0.88296 0.49518 0.94155 0.0
C1502 C 0.87683 0.50623 0.96185 0.0
C1503 C 0.87796 0.49178 0.90617 0.0
C1504 C 0.86368 0.51006 0.82719 0.0
H1505 H 0.89488 0.5036 0.67319 0.0
H1506 H 0.88589 0.50872 0.73525 0.0
H1507 H 0.86488 0.51819 0.77167 0.0
H1508 H 0.86005 0.52175 0.96235 0.0
H1509 H 0.85143 0.51593 0.90001 0.0
H1510 H 0.86346 0.47517 0.85011 0.0
C1511 C 0.88024 0.50124 0.71804 0.0
C1512 C 0.8642 0.50875 0.78852 0.0
C1513 C 0.88544 0.49825 0.68261 0.0
C1514 C 0.86497 0.51317 0.94727 0.0
C1515 C 0.86008 0.5099 0.91158 0.0
C1516 C 0.86339 0.48463 0.83321 0.0
C1517 C 0.86852 0.49389 0.73209 0.0
C1518 C 0.86477 0.49536 0.77189 0.0
C1519 C 0.86684 0.49949 0.89023 0.0
C1520 C 0.86388 0.49801 0.84993 0.0
H1521 H 0.86146 0.4733 0.65674 0.0
H1522 H 0.85253 0.47832 0.71936 0.0
H1523 H 0.86427 0.47286 0.78241 0.0
H1524 H 0.89209 0.48964 0.9522 0.0
H1525 H 0.88347 0.48379 0.89027 0.0
C1526 C 0.24985 0.13677 0.69751 0.0
C1527 C 0.23778 0.13081 0.71363 0.0
C1528 C 0.25448 0.13229 0.66265 0.0
C1529 C 0.24007 0.11925 0.57609 0.0
H1530 H 0.27943 0.11937 0.54701 0.0
C1531 C 0.25848 0.12394 0.42202 0.0
C1532 C 0.26804 0.13513 0.4174 0.0
C1533 C 0.25522 0.11899 0.45778 0.0
C1534 C 0.26839 0.11916 0.55471 0.0
H1535 H 0.22145 0.11501 0.70693 0.0
H1536 H 0.22949 0.10727 0.64541 0.0
H1537 H 0.27321 0.118 0.61279 0.0
H1538 H 0.28192 0.14966 0.44626 0.0
H1539 H 0.27632 0.14106 0.50803 0.0
H1540 H 0.23531 0.12122 0.51803 0.0
C1541 C 0.23537 0.11538 0.65989 0.0
C1542 C 0.26484 0.11838 0.59232 0.0
C1543 C 0.23082 0.11976 0.69512 0.0
C1544 C 0.27446 0.14106 0.4489 0.0
C1545 C 0.27137 0.13603 0.48432 0.0
C1546 C 0.24364 0.12003 0.53838 0.0
C1547 C 0.24706 0.12185 0.64296 0.0
C1548 C 0.25067 0.11909 0.60348 0.0
C1549 C 0.26169 0.12499 0.48924 0.0
C1550 C 0.25785 0.12066 0.52753 0.0
H1551 H 0.25541 0.14529 0.71119 0.0
H1552 H 0.26342 0.13762 0.6502 0.0
H1553 H 0.22906 0.11988 0.58384 0.0
H1554 H 0.25341 0.11916 0.39814 0.0
H1555 H 0.24767 0.1105 0.46087 0.0
C1556 C 0.60657 0.52423 0.1965 0.0
C1557 C 0.61327 0.51806 0.16572 0.0
C1558 C 0.61081 0.52093 0.23254 0.0
C1559 C 0.62686 0.4932 0.2878 0.0
H1560 H 0.62724 0.52241 0.3634 0.0
C1561 C 0.62901 0.47964 0.44417 0.0
C1562 C 0.61796 0.486 0.46409 0.0
C1563 C 0.63258 0.48449 0.40861 0.0
C1564 C 0.62726 0.51414 0.34259 0.0
H1565 H 0.62972 0.50361 0.14845 0.0
H1566 H 0.63705 0.49761 0.21205 0.0
H1567 H 0.62568 0.52894 0.29787 0.0
H1568 H 0.60259 0.5029 0.46363 0.0
H1569 H 0.60883 0.5114 0.40201 0.0
H1570 H 0.62776 0.47838 0.33265 0.0
C1571 C 0.62854 0.50507 0.20801 0.0
C1572 C 0.62636 0.51787 0.30513 0.0
C1573 C 0.62436 0.50849 0.17172 0.0
C1574 C 0.61113 0.49778 0.44887 0.0
C1575 C 0.61478 0.50271 0.41364 0.0
C1576 C 0.62776 0.48946 0.32536 0.0
C1577 C 0.62182 0.51131 0.23876 0.0
C1578 C 0.62559 0.50743 0.27746 0.0
C1579 C 0.62528 0.49589 0.39268 0.0
C1580 C 0.62741 0.49989 0.35318 0.0
H1581 H 0.59801 0.53165 0.1928 0.0
H1582 H 0.60524 0.5257 0.25563 0.0
H1583 H 0.62623 0.48493 0.26709 0.0
H1584 H 0.63443 0.47051 0.45527 0.0
H1585 H 0.64077 0.4791 0.39317 0.0
C1586 C 0.23485 0.8851 0.9185 0.0
C1587 C 0.24247 0.87341 0.90539 0.0
C1588 C 0.23741 0.89046 0.95413 0.0
C1589 C 0.26178 0.88868 0.03502 0.0
H1590 H 0.22746 0.88722 0.09357 0.0
C1591 C 0.24647 0.86675 0.18424 0.0
C1592 C 0.25713 0.87264 0.20642 0.0
C1593 C 0.24355 0.87232 0.14917 0.0
C1594 C 0.23712 0.88789 0.07757 0.0
H1595 H 0.2595 0.85893 0.91772 0.0
H1596 H 0.26408 0.86833 0.97953 0.0
H1597 H 0.22602 0.88731 0.02582 0.0
H1598 H 0.27245 0.88953 0.21054 0.0
H1599 H 0.26744 0.8992 0.14878 0.0
H1600 H 0.27291 0.88826 0.08675 0.0
C1601 C 0.25612 0.87338 0.96253 0.0
C1602 C 0.2363 0.88806 0.03877 0.0
C1603 C 0.25345 0.86792 0.92719 0.0
C1604 C 0.26416 0.8848 0.19399 0.0
C1605 C 0.26135 0.89028 0.15862 0.0
C1606 C 0.2626 0.88859 0.07382 0.0
C1607 C 0.24777 0.88434 0.97694 0.0
C1608 C 0.24864 0.88781 0.01712 0.0
C1609 C 0.25133 0.88381 0.13541 0.0
C1610 C 0.25029 0.88754 0.09544 0.0
H1611 H 0.22631 0.88952 0.90225 0.0
H1612 H 0.23088 0.89898 0.96447 0.0
H1613 H 0.27145 0.88862 0.019 0.0
H1614 H 0.24087 0.85739 0.19319 0.0
H1615 H 0.23587 0.867 0.13185 0.0
C1616 C 0.61796 0.00584 0.66712 0.0
C1617 C 0.62437 0.99493 0.64687 0.0
C1618 C 0.62283 0.00937 0.70255 0.0
C1619 C 0.63803 0.99167 0.7818 0.0
H1620 H 0.63588 0.0289 0.82607 0.0
C1621 C 0.63435 0.02093 0.93514 0.0
C1622 C 0.6228 0.01333 0.94918 0.0
C1623 C 0.63937 0.01826 0.89919 0.0
C1624 C 0.63683 0.01845 0.81415 0.0
H1625 H 0.64151 0.97982 0.64658 0.0
H1626 H 0.64995 0.9859 0.70891 0.0
H1627 H 0.63645 0.02648 0.75843 0.0
H1628 H 0.60807 0.9964 0.93793 0.0
H1629 H 0.61693 0.9916 0.87562 0.0
H1630 H 0.63763 0.98362 0.83746 0.0
C1631 C 0.64115 0.9917 0.69732 0.0
C1632 C 0.63705 0.01707 0.77544 0.0
C1633 C 0.63637 0.98828 0.66161 0.0
C1634 C 0.61698 0.00242 0.92776 0.0
C1635 C 0.62212 0.99962 0.89215 0.0
C1636 C 0.6377 0.99305 0.82048 0.0
C1637 C 0.63413 0.00196 0.71861 0.0
C1638 C 0.63712 0.00365 0.75888 0.0
C1639 C 0.63306 0.0078 0.87703 0.0
C1640 C 0.63657 0.00643 0.83699 0.0
H1641 H 0.60871 0.01117 0.65638 0.0
H1642 H 0.6171 0.01723 0.71834 0.0
H1643 H 0.638 0.98118 0.7699 0.0
H1644 H 0.639 0.02944 0.95106 0.0
H1645 H 0.64786 0.02468 0.88825 0.0
C1646 C 0.23127 0.38377 0.19284 0.0
C1647 C 0.23896 0.37256 0.20837 0.0
C1648 C 0.23408 0.38831 0.15654 0.0
C1649 C 0.23431 0.3844 0.07196 0.0
H1650 H 0.27169 0.38579 0.02845 0.0
C1651 C 0.24747 0.36491 0.92547 0.0
C1652 C 0.25804 0.37169 0.90482 0.0
C1653 C 0.244 0.36964 0.96108 0.0
C1654 C 0.26116 0.38573 0.04014 0.0
H1655 H 0.25624 0.35802 0.19941 0.0
H1656 H 0.26129 0.36606 0.13646 0.0
H1657 H 0.26904 0.3862 0.096 0.0
H1658 H 0.27271 0.38922 0.90422 0.0
H1659 H 0.26673 0.39741 0.96686 0.0
H1660 H 0.22648 0.38319 0.01613 0.0
C1661 C 0.25308 0.37133 0.1521 0.0
C1662 C 0.25966 0.38586 0.0788 0.0
C1663 C 0.25014 0.36667 0.18809 0.0
C1664 C 0.2645 0.3838 0.91954 0.0
C1665 C 0.26115 0.38845 0.95541 0.0
C1666 C 0.23582 0.38416 0.03329 0.0
C1667 C 0.24477 0.38186 0.13548 0.0
C1668 C 0.24625 0.38472 0.0951 0.0
C1669 C 0.25113 0.38117 0.97691 0.0
C1670 C 0.24928 0.38434 0.01703 0.0
H1671 H 0.22254 0.38846 0.20785 0.0
H1672 H 0.22757 0.39649 0.14444 0.0
H1673 H 0.22384 0.38341 0.08371 0.0
H1674 H 0.2423 0.35556 0.91478 0.0
H1675 H 0.23634 0.36372 0.97706 0.0
C1676 C 0.88419 0.00194 0.44006 0.0
C1677 C 0.87731 0.99165 0.46145 0.0
C1678 C 0.87918 0.00544 0.40478 0.0
C1679 C 0.8625 0.98839 0.32714 0.0
H1680 H 0.86524 0.02558 0.28293 0.0
C1681 C 0.86667 0.01805 0.1745 0.0
C1682 C 0.87822 0.01041 0.16059 0.0
C1683 C 0.86139 0.01519 0.21004 0.0
C1684 C 0.8641 0.01515 0.29483 0.0
H1685 H 0.85939 0.9775 0.46375 0.0
H1686 H 0.85076 0.98345 0.40142 0.0
H1687 H 0.86513 0.02314 0.35053 0.0
H1688 H 0.89254 0.9931 0.17139 0.0
H1689 H 0.88322 0.98796 0.23303 0.0
H1690 H 0.86235 0.98035 0.27142 0.0
C1691 C 0.85997 0.98885 0.41217 0.0
C1692 C 0.86415 0.01376 0.33352 0.0
C1693 C 0.86487 0.9855 0.44782 0.0
C1694 C 0.88366 0.99917 0.1815 0.0
C1695 C 0.87825 0.99618 0.21672 0.0
C1696 C 0.86259 0.98978 0.28844 0.0
C1697 C 0.8673 0.99859 0.38996 0.0
C1698 C 0.8639 0.00034 0.35 0.0
C1699 C 0.86741 0.00448 0.2319 0.0
C1700 C 0.86394 0.00314 0.27195 0.0
H1701 H 0.89379 0.00686 0.44996 0.0
H1702 H 0.88515 0.01288 0.38817 0.0
H1703 H 0.86238 0.9779 0.33906 0.0
H1704 H 0.8623 0.02681 0.15895 0.0
H1705 H 0.85298 0.0217 0.22104 0.0
C1706 C 0.2767 0.64653 0.66 0.0
C1707 C 0.27148 0.63859 0.68994 0.0
C1708 C 0.27327 0.64294 0.62354 0.0
C1709 C 0.24649 0.62528 0.5675 0.0
H1710 H 0.27449 0.63021 0.4899 0.0
C1711 C 0.23221 0.62347 0.41094 0.0
C1712 C 0.23659 0.63571 0.39223 0.0
C1713 C 0.23761 0.62028 0.4462 0.0
C1714 C 0.26658 0.6287 0.51128 0.0
H1715 H 0.2586 0.62063 0.70528 0.0
H1716 H 0.25249 0.61435 0.64103 0.0
H1717 H 0.28166 0.6311 0.55502 0.0
H1718 H 0.25051 0.65381 0.3946 0.0
H1719 H 0.26005 0.64818 0.45564 0.0
H1720 H 0.23134 0.62337 0.52357 0.0
C1721 C 0.25924 0.62337 0.64599 0.0
C1722 C 0.27066 0.62925 0.54852 0.0
C1723 C 0.26273 0.62695 0.68268 0.0
C1724 C 0.24693 0.64432 0.40845 0.0
C1725 C 0.25246 0.64104 0.4433 0.0
C1726 C 0.2424 0.62468 0.53014 0.0
C1727 C 0.26454 0.63132 0.61605 0.0
C1728 C 0.26058 0.6281 0.57702 0.0
C1729 C 0.24765 0.62915 0.46288 0.0
C1730 C 0.25234 0.62691 0.50174 0.0
H1731 H 0.28344 0.65558 0.66466 0.0
H1732 H 0.27728 0.64947 0.60119 0.0
H1733 H 0.23847 0.62442 0.58882 0.0
H1734 H 0.22421 0.61668 0.39903 0.0
H1735 H 0.23377 0.61103 0.4607 0.0
C1736 C 0.37697 0.98866 0.18343 0.0
C1737 C 0.38855 0.97983 0.17624 0.0
C1738 C 0.37259 0.99113 0.2201 0.0
C1739 C 0.37562 0.97672 0.31562 0.0
H1740 H 0.3715 0.01553 0.34754 0.0
C1741 C 0.38996 0.99598 0.46089 0.0
C1742 C 0.38278 0.00746 0.47659 0.0
C1743 C 0.38622 0.99094 0.4258 0.0
C1744 C 0.37225 0.0046 0.33905 0.0
H1745 H 0.40454 0.9666 0.20161 0.0
H1746 H 0.39701 0.97096 0.26509 0.0
H1747 H 0.37344 0.01018 0.28141 0.0
H1748 H 0.36542 0.02207 0.46918 0.0
H1749 H 0.35888 0.01325 0.40756 0.0
H1750 H 0.37509 0.97119 0.37334 0.0
C1751 C 0.39117 0.97585 0.24263 0.0
C1752 C 0.37339 0.00155 0.30112 0.0
C1753 C 0.39559 0.97347 0.20622 0.0
C1754 C 0.37115 0.0132 0.45769 0.0
C1755 C 0.36746 0.00822 0.42236 0.0
C1756 C 0.37447 0.97976 0.35349 0.0
C1757 C 0.37964 0.98469 0.25003 0.0
C1758 C 0.37565 0.98763 0.28916 0.0
C1759 C 0.37527 0.99734 0.40556 0.0
C1760 C 0.37333 0.99379 0.36568 0.0
H1761 H 0.37132 0.99365 0.1608 0.0
H1762 H 0.36366 0.998 0.22503 0.0
H1763 H 0.37706 0.96585 0.30712 0.0
H1764 H 0.39895 0.99134 0.47488 0.0
H1765 H 0.39254 0.98264 0.41356 0.0
C1766 C 0.7306 0.62216 0.19226 0.0
C1767 C 0.73756 0.63317 0.21091 0.0
C1768 C 0.73523 0.61776 0.15716 0.0
C1769 C 0.7649 0.62045 0.09028 0.0
H1770 H 0.73561 0.62379 0.01547 0.0
C1771 C 0.77574 0.64181 0.94569 0.0
C1772 C 0.76886 0.63612 0.91455 0.0
C1773 C 0.77245 0.63715 0.98136 0.0
C1774 C 0.74389 0.62246 0.03595 0.0
H1775 H 0.75531 0.64753 0.20895 0.0
H1776 H 0.76348 0.63978 0.14816 0.0
H1777 H 0.72918 0.62261 0.08112 0.0
H1778 H 0.75322 0.62098 0.8962 0.0
H1779 H 0.74724 0.61293 0.95922 0.0
H1780 H 0.77964 0.62103 0.04525 0.0
C1781 C 0.75446 0.63453 0.16039 0.0
C1782 C 0.7402 0.62177 0.07357 0.0
C1783 C 0.74974 0.63904 0.19512 0.0
C1784 C 0.75865 0.62556 0.91978 0.0
C1785 C 0.75524 0.62097 0.95574 0.0
C1786 C 0.76857 0.62111 0.05274 0.0
C1787 C 0.74703 0.62415 0.14054 0.0
C1788 C 0.75072 0.62139 0.10114 0.0
C1789 C 0.76214 0.62673 0.98686 0.0
C1790 C 0.75813 0.62278 0.02533 0.0
H1791 H 0.72115 0.61748 0.20384 0.0
H1792 H 0.72935 0.60969 0.14251 0.0
H1793 H 0.7732 0.61991 0.11093 0.0
H1794 H 0.78368 0.64994 0.94258 0.0
H1795 H 0.77775 0.64202 0.00478 0.0
C1796 C 0.12512 0.98922 0.93121 0.0
C1797 C 0.11399 0.97983 0.93847 0.0
C1798 C 0.12915 0.99213 0.89449 0.0
C1799 C 0.12598 0.9784 0.79817 0.0
H1800 H 0.12827 0.01764 0.76865 0.0
C1801 C 0.10993 0.99829 0.65471 0.0
C1802 C 0.11681 0.00994 0.63896 0.0
C1803 C 0.11392 0.99325 0.68959 0.0
C1804 C 0.12802 0.00661 0.77647 0.0
H1805 H 0.09851 0.96598 0.91318 0.0
H1806 H 0.10544 0.97108 0.8496 0.0
H1807 H 0.12707 0.0116 0.83452 0.0
H1808 H 0.13379 0.02499 0.64624 0.0
H1809 H 0.14074 0.01621 0.70764 0.0
H1810 H 0.12624 0.97345 0.74007 0.0
C1811 C 0.11119 0.97609 0.87203 0.0
C1812 C 0.12731 0.00316 0.81424 0.0
C1813 C 0.10712 0.97328 0.90851 0.0
C1814 C 0.12832 0.01597 0.65776 0.0
C1815 C 0.13224 0.01101 0.69295 0.0
C1816 C 0.12668 0.98185 0.76047 0.0
C1817 C 0.12221 0.98556 0.86454 0.0
C1818 C 0.12572 0.98905 0.82538 0.0
C1819 C 0.12482 0.99984 0.70963 0.0
C1820 C 0.12716 0.99602 0.74918 0.0
H1821 H 0.13063 0.99438 0.95383 0.0
H1822 H 0.13769 0.99946 0.88953 0.0
H1823 H 0.12507 0.96741 0.80599 0.0
H1824 H 0.10103 0.99343 0.6408 0.0
H1825 H 0.10788 0.98473 0.70179 0.0
C1826 C 0.74814 0.36372 0.68019 0.0
C1827 C 0.75813 0.37102 0.70158 0.0
C1828 C 0.74455 0.36848 0.64472 0.0
C1829 C 0.76084 0.38544 0.5665 0.0
H1830 H 0.7234 0.38252 0.52384 0.0
C1831 C 0.73018 0.38214 0.41507 0.0
C1832 C 0.73776 0.37075 0.40006 0.0
C1833 C 0.73327 0.38712 0.45078 0.0
C1834 C 0.73389 0.3837 0.53532 0.0
H1835 H 0.77177 0.38934 0.70354 0.0
H1836 H 0.76571 0.39752 0.6408 0.0
H1837 H 0.72628 0.38238 0.59134 0.0
H1838 H 0.7552 0.35641 0.40913 0.0
H1839 H 0.76074 0.36522 0.47111 0.0
H1840 H 0.76851 0.38588 0.51042 0.0
C1841 C 0.76058 0.38819 0.65175 0.0
C1842 C 0.73553 0.38351 0.57393 0.0
C1843 C 0.76399 0.38356 0.68761 0.0
C1844 C 0.74917 0.36518 0.42009 0.0
C1845 C 0.75238 0.37028 0.4555 0.0
C1846 C 0.7592 0.38548 0.52785 0.0
C1847 C 0.75105 0.38051 0.62971 0.0
C1848 C 0.74905 0.38387 0.58982 0.0
C1849 C 0.74414 0.38095 0.47175 0.0
C1850 C 0.74575 0.3841 0.51191 0.0
H1851 H 0.74346 0.35403 0.69034 0.0
H1852 H 0.7373 0.36225 0.62821 0.0
H1853 H 0.77139 0.38565 0.578 0.0
H1854 H 0.72131 0.38662 0.40022 0.0
H1855 H 0.72681 0.39541 0.4626 0.0
C1856 C 0.11793 0.42296 0.0927 0.0
C1857 C 0.10842 0.43204 0.11066 0.0
C1858 C 0.12353 0.41133 0.11147 0.0
C1859 C 0.1333 0.40179 0.20541 0.0
H1860 H 0.14239 0.36543 0.16234 0.0
C1861 C 0.17122 0.36484 0.28137 0.0
C1862 C 0.18162 0.35865 0.25896 0.0
C1863 C 0.1592 0.37081 0.2653 0.0
C1864 C 0.13999 0.37555 0.17475 0.0
H1865 H 0.09658 0.43556 0.16144 0.0
H1866 H 0.10645 0.4153 0.19428 0.0
H1867 H 0.12668 0.38152 0.1291 0.0
H1868 H 0.1873 0.35311 0.20242 0.0
H1869 H 0.16669 0.36394 0.17422 0.0
H1870 H 0.14718 0.3964 0.2498 0.0
C1871 C 0.10962 0.41722 0.16578 0.0
C1872 C 0.13094 0.38472 0.15576 0.0
C1873 C 0.10393 0.42878 0.14691 0.0
C1874 C 0.17942 0.35779 0.22041 0.0
C1875 C 0.16752 0.36395 0.20425 0.0
C1876 C 0.14246 0.39273 0.22415 0.0
C1877 C 0.1198 0.40864 0.14863 0.0
C1878 C 0.12773 0.39804 0.1706 0.0
C1879 C 0.15747 0.37095 0.22639 0.0
C1880 C 0.14618 0.3796 0.20874 0.0
H1881 H 0.12156 0.4252 0.06474 0.0
H1882 H 0.13143 0.40496 0.09763 0.0
H1883 H 0.13121 0.41207 0.2173 0.0
H1884 H 0.17259 0.36552 0.31124 0.0
H1885 H 0.15151 0.37576 0.28334 0.0
C1886 C 0.8753 0.92656 0.52469 0.0
C1887 C 0.88814 0.93266 0.51387 0.0
C1888 C 0.86998 0.91484 0.5059 0.0
C1889 C 0.87193 0.8982 0.41357 0.0
H1890 H 0.84555 0.8723 0.45945 0.0
C1891 C 0.82542 0.8546 0.37484 0.0
C1892 C 0.81897 0.86231 0.34615 0.0
C1893 C 0.83725 0.86001 0.39326 0.0
C1894 C 0.8531 0.87919 0.44604 0.0
H1895 H 0.90598 0.93071 0.47656 0.0
H1896 H 0.89687 0.90995 0.44423 0.0
H1897 H 0.86052 0.88689 0.4984 0.0
H1898 H 0.8203 0.88128 0.31274 0.0
H1899 H 0.84054 0.89087 0.34523 0.0
H1900 H 0.86455 0.89045 0.3612 0.0
C1901 C 0.89072 0.91444 0.46667 0.0
C1902 C 0.86156 0.88775 0.46848 0.0
C1903 C 0.896 0.92628 0.48535 0.0
C1904 C 0.82504 0.87509 0.33475 0.0
C1905 C 0.83676 0.88055 0.35331 0.0
C1906 C 0.8636 0.88952 0.39112 0.0
C1907 C 0.87744 0.90883 0.47598 0.0
C1908 C 0.87065 0.89779 0.45254 0.0
C1909 C 0.84277 0.87329 0.38355 0.0
C1910 C 0.85365 0.88033 0.40704 0.0
H1911 H 0.86898 0.93125 0.54654 0.0
H1912 H 0.85964 0.911 0.51362 0.0
H1913 H 0.87877 0.9058 0.40016 0.0
H1914 H 0.82102 0.84466 0.38406 0.0
H1915 H 0.84176 0.854 0.41592 0.0
C1916 C 0.38338 0.57297 0.59832 0.0
C1917 C 0.39445 0.56447 0.61134 0.0
C1918 C 0.37857 0.58435 0.61948 0.0
C1919 C 0.37601 0.5945 0.71726 0.0
H1920 H 0.35766 0.62741 0.67548 0.0
C1921 C 0.33462 0.64233 0.75963 0.0
C1922 C 0.3244 0.63389 0.77707 0.0
C1923 C 0.3467 0.63619 0.74416 0.0
C1924 C 0.36297 0.61846 0.68785 0.0
H1925 H 0.40987 0.56183 0.65531 0.0
H1926 H 0.40157 0.58182 0.69212 0.0
H1927 H 0.37311 0.61314 0.63651 0.0
H1928 H 0.31919 0.6126 0.79419 0.0
H1929 H 0.34011 0.60192 0.76732 0.0
H1930 H 0.3656 0.59961 0.76832 0.0
C1931 C 0.39645 0.57954 0.66587 0.0
C1932 C 0.3717 0.61018 0.66537 0.0
C1933 C 0.40125 0.56814 0.64469 0.0
C1934 C 0.32688 0.61937 0.78084 0.0
C1935 C 0.33894 0.61326 0.76563 0.0
C1936 C 0.36731 0.60278 0.73973 0.0
C1937 C 0.38474 0.58748 0.6541 0.0
C1938 C 0.37789 0.59781 0.67944 0.0
C1939 C 0.3488 0.62153 0.74618 0.0
C1940 C 0.36026 0.61454 0.7249 0.0
H1941 H 0.37794 0.57042 0.5727 0.0
H1942 H 0.36945 0.59012 0.6097 0.0
H1943 H 0.38053 0.58502 0.72903 0.0
H1944 H 0.33298 0.65356 0.75636 0.0
H1945 H 0.35417 0.64284 0.72966 0.0
C1946 C 0.6727 0.13732 0.83723 0.0
C1947 C 0.6834 0.14281 0.85995 0.0
C1948 C 0.66052 0.13158 0.85303 0.0
C1949 C 0.64138 0.12639 0.9435 0.0
H1950 H 0.63108 0.09081 0.89788 0.0
C1951 C 0.61818 0.07871 0.02188 0.0
C1952 C 0.60846 0.07001 0.00333 0.0
C1953 C 0.62391 0.09048 0.00405 0.0
C1954 C 0.63358 0.10085 0.91063 0.0
H1955 H 0.68948 0.14732 0.91684 0.0
H1956 H 0.66857 0.13687 0.94452 0.0
H1957 H 0.64753 0.10628 0.86644 0.0
H1958 H 0.59636 0.06737 0.95262 0.0
H1959 H 0.60645 0.0879 0.9214 0.0
H1960 H 0.628 0.12034 0.98891 0.0
C1961 C 0.6693 0.13725 0.91448 0.0
C1962 C 0.64303 0.10979 0.89251 0.0
C1963 C 0.68137 0.14319 0.89862 0.0
C1964 C 0.60387 0.07384 0.96758 0.0
C1965 C 0.60968 0.08555 0.94963 0.0
C1966 C 0.63204 0.11733 0.96186 0.0
C1967 C 0.6589 0.13097 0.89195 0.0
C1968 C 0.64732 0.12255 0.90904 0.0
C1969 C 0.62011 0.09371 0.96723 0.0
C1970 C 0.62827 0.10434 0.94592 0.0
H1971 H 0.67394 0.13703 0.80728 0.0
H1972 H 0.65258 0.12719 0.83473 0.0
H1973 H 0.64422 0.13623 0.95678 0.0
H1974 H 0.62189 0.07603 0.04949 0.0
H1975 H 0.63199 0.0965 0.01824 0.0
C1976 C 0.17012 0.62517 0.32353 0.0
C1977 C 0.17548 0.63843 0.33362 0.0
C1978 C 0.15874 0.61933 0.3427 0.0
C1979 C 0.1423 0.62106 0.43525 0.0
H1980 H 0.11783 0.59279 0.39171 0.0
C1981 C 0.10109 0.57302 0.47872 0.0
C1982 C 0.1091 0.5673 0.50791 0.0
C1983 C 0.10601 0.58474 0.45892 0.0
C1984 C 0.12433 0.60085 0.40444 0.0
H1985 H 0.17248 0.65644 0.36987 0.0
H1986 H 0.15231 0.64641 0.40282 0.0
H1987 H 0.13143 0.60821 0.35143 0.0
H1988 H 0.12816 0.56977 0.54053 0.0
H1989 H 0.1369 0.58985 0.5057 0.0
H1990 H 0.13516 0.61373 0.48825 0.0
C1991 C 0.15714 0.64035 0.3807 0.0
C1992 C 0.13231 0.60957 0.38125 0.0
C1993 C 0.16863 0.64615 0.36165 0.0
C1994 C 0.12173 0.57395 0.5182 0.0
C1995 C 0.1267 0.58556 0.4983 0.0
C1996 C 0.13419 0.61245 0.45842 0.0
C1997 C 0.15234 0.62667 0.37226 0.0
C1998 C 0.14183 0.6194 0.39637 0.0
C1999 C 0.11909 0.5909 0.46777 0.0
C2000 C 0.12554 0.60184 0.44336 0.0
H2001 H 0.17517 0.61895 0.30205 0.0
H2002 H 0.15551 0.60872 0.33562 0.0
H2003 H 0.14952 0.62845 0.44804 0.0
H2004 H 0.09126 0.56816 0.47031 0.0
H2005 H 0.09975 0.58871 0.43602 0.0
C2006 C 0.61104 0.93285 0.63883 0.0
C2007 C 0.61197 0.9353 0.60039 0.0
C2008 C 0.61722 0.92089 0.65459 0.0
C2009 C 0.64596 0.89578 0.63476 0.0
H2010 H 0.63346 0.87878 0.72716 0.0
C2011 C 0.68057 0.85552 0.7108 0.0
C2012 C 0.68331 0.85925 0.74793 0.0
C2013 C 0.66939 0.86174 0.69149 0.0
C2014 C 0.63704 0.88339 0.70125 0.0
H2015 H 0.61916 0.92668 0.5479 0.0
H2016 H 0.62952 0.90553 0.57514 0.0
H2017 H 0.618 0.89523 0.69439 0.0
H2018 H 0.67591 0.87159 0.79479 0.0
H2019 H 0.65635 0.88238 0.76117 0.0
H2020 H 0.66507 0.88415 0.64193 0.0
C2021 C 0.62443 0.91306 0.59338 0.0
C2022 C 0.62822 0.89286 0.68254 0.0
C2023 C 0.61841 0.92512 0.57769 0.0
C2024 C 0.67407 0.86854 0.76616 0.0
C2025 C 0.66283 0.87467 0.74694 0.0
C2026 C 0.65469 0.88622 0.65324 0.0
C2027 C 0.62434 0.91101 0.63218 0.0
C2028 C 0.63273 0.89946 0.64952 0.0
C2029 C 0.66067 0.8717 0.70905 0.0
C2030 C 0.65047 0.88018 0.68712 0.0
H2031 H 0.60618 0.94055 0.65704 0.0
H2032 H 0.61705 0.91982 0.68457 0.0
H2033 H 0.64996 0.9008 0.60986 0.0
H2034 H 0.68749 0.84837 0.69603 0.0
H2035 H 0.66787 0.85914 0.66242 0.0
C2036 C 0.31943 0.3592 0.89201 0.0
C2037 C 0.31702 0.36003 0.85353 0.0
C2038 C 0.33131 0.36554 0.90779 0.0
C2039 C 0.35616 0.39449 0.88735 0.0
H2040 H 0.37264 0.38302 0.98132 0.0
C2041 C 0.39564 0.43009 0.96305 0.0
C2042 C 0.39153 0.43329 -0.00035 0.0
C2043 C 0.38964 0.41866 0.94428 0.0
C2044 C 0.36818 0.3863 0.95497 0.0
H2045 H 0.32567 0.36711 0.801 0.0
H2046 H 0.34673 0.37766 0.82824 0.0
H2047 H 0.35665 0.36704 0.94863 0.0
H2048 H 0.37871 0.42645 0.04621 0.0
H2049 H 0.36832 0.40642 0.01351 0.0
H2050 H 0.36752 0.4138 0.89395 0.0
C2051 C 0.3392 0.37259 0.84651 0.0
C2052 C 0.35896 0.37719 0.93629 0.0
C2053 C 0.3272 0.36644 0.83081 0.0
C2054 C 0.38206 0.42426 0.01798 0.0
C2055 C 0.37616 0.41275 -0.00069 0.0
C2056 C 0.36548 0.40349 0.90577 0.0
C2057 C 0.34116 0.37268 0.88536 0.0
C2058 C 0.35254 0.38133 0.90269 0.0
C2059 C 0.37953 0.41013 0.96186 0.0
C2060 C 0.37132 0.39964 0.94019 0.0
H2061 H 0.31173 0.35437 0.91025 0.0
H2062 H 0.3323 0.36549 0.93779 0.0
H2063 H 0.35126 0.39823 0.86201 0.0
H2064 H 0.40294 0.43684 0.94822 0.0
H2065 H 0.39254 0.41679 0.91554 0.0
C2066 C 0.82717 0.13223 0.28407 0.0
C2067 C 0.8171 0.13871 0.26116 0.0
C2068 C 0.83936 0.12633 0.26869 0.0
C2069 C 0.8599 0.12272 0.17988 0.0
H2070 H 0.86855 0.08587 0.22058 0.0
C2071 C 0.88401 0.07654 0.09691 0.0
C2072 C 0.89332 0.06737 0.11529 0.0
C2073 C 0.87797 0.08791 0.11584 0.0
C2074 C 0.86649 0.09625 0.20926 0.0
H2075 H 0.81217 0.14474 0.20449 0.0
H2076 H 0.83306 0.13404 0.17746 0.0
H2077 H 0.85183 0.10095 0.25243 0.0
H2078 H 0.90437 0.06346 0.16709 0.0
H2079 H 0.89373 0.08327 0.20022 0.0
H2080 H 0.87403 0.11745 0.13536 0.0
C2081 C 0.83184 0.13375 0.20739 0.0
C2082 C 0.8569 0.10497 0.22762 0.0
C2083 C 0.81978 0.13984 0.22286 0.0
C2084 C 0.89719 0.07032 0.15221 0.0
C2085 C 0.89106 0.08161 0.17124 0.0
C2086 C 0.86939 0.11389 0.16125 0.0
C2087 C 0.84161 0.12657 0.22997 0.0
C2088 C 0.85323 0.11821 0.21282 0.0
C2089 C 0.88104 0.09024 0.1536 0.0
C2090 C 0.87257 0.10047 0.17543 0.0
H2091 H 0.82544 0.13134 0.31377 0.0
H2092 H 0.8468 0.12121 0.2871 0.0
H2093 H 0.85756 0.13294 0.168 0.0
H2094 H 0.88085 0.07454 0.06843 0.0
H2095 H 0.87022 0.09432 0.10158 0.0
C2096 C 0.88043 0.57279 0.01083 0.0
C2097 C 0.89149 0.56425 0.99794 0.0
C2098 C 0.87525 0.58377 0.98889 0.0
C2099 C 0.86801 0.60914 0.94154 0.0
H2100 H 0.86119 0.59781 0.83945 0.0
C2101 C 0.83163 0.64165 0.84635 0.0
C2102 C 0.82119 0.63348 0.82889 0.0
C2103 C 0.84348 0.6352 0.86213 0.0
C2104 C 0.86308 0.60118 0.86781 0.0
H2105 H 0.90644 0.5611 0.95308 0.0
H2106 H 0.89749 0.58042 0.91487 0.0
H2107 H 0.87607 0.58328 0.8791 0.0
H2108 H 0.81539 0.6123 0.81214 0.0
H2109 H 0.8359 0.60107 0.83964 0.0
H2110 H 0.85427 0.62655 0.93091 0.0
C2111 C 0.89267 0.57847 0.94169 0.0
C2112 C 0.87175 0.59293 0.89046 0.0
C2113 C 0.89785 0.56746 0.96367 0.0
C2114 C 0.82325 0.61888 0.82545 0.0
C2115 C 0.83508 0.61245 0.84106 0.0
C2116 C 0.85931 0.61737 0.91889 0.0
C2117 C 0.88103 0.58648 0.95356 0.0
C2118 C 0.87395 0.59656 0.92796 0.0
C2119 C 0.84513 0.62047 0.86053 0.0
C2120 C 0.85637 0.61323 0.88213 0.0
H2121 H 0.87531 0.57057 0.03713 0.0
H2122 H 0.86618 0.5896 -0.00121 0.0
H2123 H 0.86966 0.61234 0.97013 0.0
H2124 H 0.83033 0.65294 0.84937 0.0
H2125 H 0.85113 0.64168 0.87655 0.0
C2126 C 0.10556 0.07263 0.6372 0.0
C2127 C 0.10656 0.07117 0.59842 0.0
C2128 C 0.11173 0.08415 0.65515 0.0
C2129 C 0.14052 0.1097 0.63992 0.0
H2130 H 0.12833 0.12393 0.73582 0.0
C2131 C 0.1752 0.14787 0.72263 0.0
C2132 C 0.17828 0.14304 0.75868 0.0
C2133 C 0.16393 0.14215 0.70265 0.0
C2134 C 0.13181 0.1201 0.70896 0.0
H2135 H 0.11381 0.08112 0.54768 0.0
H2136 H 0.12407 0.10155 0.57875 0.0
H2137 H 0.11273 0.10853 0.70006 0.0
H2138 H 0.17137 0.12923 0.80313 0.0
H2139 H 0.15162 0.1193 0.76828 0.0
H2140 H 0.15965 0.12109 0.64903 0.0
C2141 C 0.11898 0.09357 0.59555 0.0
C2142 C 0.12292 0.11122 0.68852 0.0
C2143 C 0.113 0.08192 0.57767 0.0
C2144 C 0.16927 0.13313 0.77535 0.0
C2145 C 0.15792 0.12749 0.75546 0.0
C2146 C 0.1493 0.11868 0.66011 0.0
C2147 C 0.11887 0.09459 0.63465 0.0
C2148 C 0.12731 0.10561 0.65413 0.0
C2149 C 0.15545 0.13159 0.71845 0.0
C2150 C 0.14519 0.12371 0.69521 0.0
H2151 H 0.1007 0.06447 0.65395 0.0
H2152 H 0.11153 0.08443 0.68525 0.0
H2153 H 0.14445 0.10542 0.61399 0.0
H2154 H 0.18193 0.15554 0.70908 0.0
H2155 H 0.16217 0.14562 0.67431 0.0
C2156 C 0.6694 0.36155 0.33186 0.0
C2157 C 0.68 0.35526 0.35344 0.0
C2158 C 0.65733 0.36708 0.34878 0.0
C2159 C 0.6385 0.37028 0.44041 0.0
H2160 H 0.6289 0.4072 0.40179 0.0
C2161 C 0.61734 0.4166 0.52797 0.0
C2162 C 0.60753 0.42581 0.51164 0.0
C2163 C 0.62265 0.40516 0.50786 0.0
C2164 C 0.63122 0.39679 0.41257 0.0
H2165 H 0.68599 0.34913 0.40933 0.0
H2166 H 0.66533 0.35921 0.43899 0.0
H2167 H 0.64478 0.39218 0.36693 0.0
H2168 H 0.59485 0.42972 0.46248 0.0
H2169 H 0.60426 0.4098 0.42728 0.0
H2170 H 0.62556 0.37549 0.48742 0.0
C2171 C 0.66603 0.35962 0.40895 0.0
C2172 C 0.64032 0.38811 0.39248 0.0
C2173 C 0.67796 0.3539 0.39195 0.0
C2174 C 0.60245 0.42283 0.47576 0.0
C2175 C 0.60786 0.41147 0.45554 0.0
C2176 C 0.62952 0.37907 0.46079 0.0
C2177 C 0.65575 0.36668 0.38773 0.0
C2178 C 0.64437 0.37486 0.40651 0.0
C2179 C 0.61834 0.4028 0.47098 0.0
C2180 C 0.62604 0.39254 0.4474 0.0
H2181 H 0.67064 0.36262 0.30203 0.0
H2182 H 0.64948 0.37211 0.3314 0.0
H2183 H 0.64113 0.36004 0.45176 0.0
H2184 H 0.62141 0.41862 0.55561 0.0
H2185 H 0.63079 0.39871 0.52038 0.0
C2186 C 0.37046 0.92658 0.08194 0.0
C2187 C 0.38497 0.92889 0.0865 0.0
C2188 C 0.36407 0.91461 0.09691 0.0
C2189 C 0.35308 0.88628 0.12204 0.0
H2190 H 0.36282 0.87981 0.22541 0.0
C2191 C 0.31856 0.85074 0.21369 0.0
C2192 C 0.31467 0.85699 0.24761 0.0
C2193 C 0.32985 0.85613 0.19309 0.0
C2194 C 0.36001 0.88142 0.19651 0.0
H2195 H 0.40435 0.92009 0.10846 0.0
H2196 H 0.39315 0.89906 0.13465 0.0
H2197 H 0.37728 0.89556 0.18779 0.0
H2198 H 0.32009 0.87318 0.28773 0.0
H2199 H 0.33961 0.88267 0.25177 0.0
H2200 H 0.33532 0.87289 0.13131 0.0
C2201 C 0.38671 0.9066 0.11974 0.0
C2202 C 0.3684 0.89033 0.1748 0.0
C2203 C 0.39313 0.91858 0.10453 0.0
C2204 C 0.32283 0.86814 0.26167 0.0
C2205 C 0.3341 0.87353 0.24109 0.0
C2206 C 0.34469 0.8774 0.14373 0.0
C2207 C 0.37204 0.90467 0.11691 0.0
C2208 C 0.36475 0.89323 0.13766 0.0
C2209 C 0.33747 0.86788 0.206 0.0
C2210 C 0.34779 0.87523 0.18157 0.0
H2211 H 0.36389 0.93433 0.06816 0.0
H2212 H 0.35273 0.91356 0.09455 0.0
H2213 H 0.3501 0.88814 0.09337 0.0
H2214 H 0.3125 0.84209 0.20223 0.0
H2215 H 0.33232 0.8514 0.16645 0.0
C2216 C 0.82363 0.35398 0.73171 0.0
C2217 C 0.81681 0.36194 0.75934 0.0
C2218 C 0.83576 0.35918 0.71427 0.0
C2219 C 0.85299 0.37781 0.66289 0.0
H2220 H 0.87819 0.40413 0.71171 0.0
C2221 C 0.87736 0.42471 0.58705 0.0
C2222 C 0.88991 0.43083 0.60002 0.0
C2223 C 0.87166 0.41294 0.60481 0.0
C2224 C 0.87151 0.39659 0.69752 0.0
H2225 H 0.81772 0.38121 0.79169 0.0
H2226 H 0.8385 0.39041 0.76091 0.0
H2227 H 0.86288 0.38926 0.74894 0.0
H2228 H 0.90693 0.42877 0.63986 0.0
H2229 H 0.89717 0.40792 0.67034 0.0
H2230 H 0.86165 0.38512 0.61147 0.0
C2231 C 0.83476 0.38005 0.75297 0.0
C2232 C 0.86254 0.38819 0.71895 0.0
C2233 C 0.82273 0.37482 0.7705 0.0
C2234 C 0.89718 0.42434 0.62944 0.0
C2235 C 0.89152 0.41246 0.64707 0.0
C2236 C 0.86209 0.38608 0.64147 0.0
C2237 C 0.84125 0.37247 0.72399 0.0
C2238 C 0.85274 0.37915 0.70187 0.0
C2239 C 0.87843 0.40691 0.63579 0.0
C2240 C 0.87102 0.39603 0.65843 0.0
H2241 H 0.81933 0.34397 0.72269 0.0
H2242 H 0.84061 0.35295 0.69251 0.0
H2243 H 0.84559 0.371 0.64864 0.0
H2244 H 0.87151 0.42947 0.56443 0.0
H2245 H 0.86149 0.40914 0.59552 0.0
C2246 C 0.38784 0.08036 0.52488 0.0
C2247 C 0.39297 0.06833 0.50666 0.0
C2248 C 0.38204 0.0915 0.50443 0.0
C2249 C 0.37605 0.10435 0.40633 0.0
H2250 H 0.34276 0.12101 0.45079 0.0
C2251 C 0.32664 0.12511 0.32889 0.0
C2252 C 0.32128 0.13822 0.34028 0.0
C2253 C 0.33831 0.11924 0.34687 0.0
C2254 C 0.35216 0.11661 0.43822 0.0
H2255 H 0.39648 0.05865 0.45283 0.0
H2256 H 0.38578 0.07754 0.41743 0.0
H2257 H 0.35771 0.10577 0.48799 0.0
H2258 H 0.32426 0.15577 0.37816 0.0
H2259 H 0.34441 0.14525 0.41036 0.0
H2260 H 0.3696 0.11444 0.3556 0.0
C2261 C 0.38662 0.0788 0.44727 0.0
C2262 C 0.36083 0.10791 0.4596 0.0
C2263 C 0.39269 0.06786 0.46765 0.0
C2264 C 0.32822 0.14568 0.36867 0.0
C2265 C 0.3397 0.13966 0.38719 0.0
C2266 C 0.36715 0.1128 0.38472 0.0
C2267 C 0.38092 0.09067 0.46536 0.0
C2268 C 0.37277 0.10141 0.44381 0.0
C2269 C 0.34461 0.12625 0.37699 0.0
C2270 C 0.35504 0.11882 0.4004 0.0
H2271 H 0.38804 0.08103 0.55496 0.0
H2272 H 0.37814 0.10059 0.51942 0.0
H2273 H 0.38531 0.09987 0.3933 0.0
H2274 H 0.32147 0.11914 0.30711 0.0
H2275 H 0.34187 0.10883 0.33873 0.0
C2276 C 0.62952 0.57418 0.07969 0.0
C2277 C 0.61502 0.57132 0.08154 0.0
C2278 C 0.63502 0.58642 0.09558 0.0
C2279 C 0.6441 0.61529 0.12184 0.0
H2280 H 0.63147 0.62155 0.22311 0.0
C2281 C 0.67502 0.65202 0.21847 0.0
C2282 C 0.67848 0.64575 0.2527 0.0
C2283 C 0.66428 0.64639 0.19635 0.0
C2284 C 0.63506 0.62001 0.1948 0.0
H2285 H 0.59477 0.57941 0.09961 0.0
H2286 H 0.6044 0.60091 0.1274 0.0
H2287 H 0.61868 0.60512 0.18332 0.0
H2288 H 0.67272 0.62937 0.29189 0.0
H2289 H 0.65414 0.61946 0.25331 0.0
H2290 H 0.66101 0.62943 0.13399 0.0
C2291 C 0.61152 0.59359 0.11393 0.0
C2292 C 0.62764 0.61071 0.17183 0.0
C2293 C 0.606 0.58133 0.09782 0.0
C2294 C 0.67032 0.63442 0.26561 0.0
C2295 C 0.65959 0.62878 0.24352 0.0
C2296 C 0.65153 0.62457 0.14479 0.0
C2297 C 0.62614 0.59609 0.11378 0.0
C2298 C 0.63237 0.60787 0.13551 0.0
C2299 C 0.65679 0.63438 0.20804 0.0
C2300 C 0.64737 0.62668 0.18194 0.0
H2301 H 0.63673 0.56666 0.0673 0.0
H2302 H 0.64634 0.58791 0.09533 0.0
H2303 H 0.6479 0.61348 0.09382 0.0
H2304 H 0.68109 0.66083 0.20787 0.0
H2305 H 0.66222 0.6511 0.16945 0.0
C2306 C 0.17759 0.86779 0.85129 0.0
C2307 C 0.18595 0.85669 0.86469 0.0
C2308 C 0.16646 0.87305 0.87262 0.0
C2309 C 0.14098 0.88075 0.91912 0.0
H2310 H 0.15212 0.88761 0.02134 0.0
C2311 C 0.10909 0.91822 0.0128 0.0
C2312 C 0.11748 0.92859 0.02981 0.0
C2313 C 0.11528 0.90613 0.9976 0.0
C2314 C 0.1488 0.8857 0.99296 0.0
H2315 H 0.1886 0.84169 0.90967 0.0
H2316 H 0.16904 0.85077 0.94678 0.0
H2317 H 0.16645 0.87231 0.98231 0.0
H2318 H 0.13877 0.93402 0.04646 0.0
H2319 H 0.14954 0.91305 0.02002 0.0
H2320 H 0.12384 0.8949 0.92913 0.0
C2321 C 0.17124 0.85558 0.92006 0.0
C2322 C 0.15692 0.87679 0.97065 0.0
C2323 C 0.18238 0.85031 0.8987 0.0
C2324 C 0.13202 0.92622 0.03347 0.0
C2325 C 0.13819 0.91414 0.01848 0.0
C2326 C 0.13286 0.88968 0.94144 0.0
C2327 C 0.16345 0.86731 0.90783 0.0
C2328 C 0.15338 0.87459 0.93309 0.0
C2329 C 0.12996 0.90415 -0.00063 0.0
C2330 C 0.13696 0.89264 0.97823 0.0
H2331 H 0.18008 0.87291 0.82517 0.0
H2332 H 0.1608 0.88218 0.86244 0.0
H2333 H 0.13785 0.87911 0.89047 0.0
H2334 H 0.09784 0.91977 0.00962 0.0
H2335 H 0.10864 0.89854 0.98344 0.0
loop_
_geom_bond_atom_site_label_1
_geom_bond_atom_site_label_2
_geom_bond_distance
_geom_bond_site_symmetry_2
_ccdc_geom_bond_type
In0 O1 2.294 . S
In0 O2 2.326 . S
In0 O6 2.266 . S
In0 O7 2.326 . S
In0 O8 2.266 . S
In0 O9 2.326 . S
In0 O11 2.294 . S
In0 O12 2.326 . S
O1 In0 2.294 . S
O1 C10 1.240 . S
O2 In0 2.326 . S
O2 C10 1.252 . S
C3 O6 1.252 . S
C3 O7 1.260 . S
C4 O11 1.240 . S
C4 O12 1.252 . S
C5 O8 1.252 . S
C5 O9 1.260 . S
O6 In0 2.266 . S
O6 C3 1.252 . S
O7 In0 2.326 . S
O7 C3 1.260 . S
O8 In0 2.266 . S
O8 C5 1.252 . S
O9 In0 2.326 . S
O9 C5 1.260 . S
C10 O1 1.240 . S
C10 O2 1.252 . S
O11 In0 2.294 . S
O11 C4 1.240 . S
O12 In0 2.326 . S
O12 C4 1.252 . S
In13 O14 2.294 . S
In13 O15 2.326 . S
In13 O19 2.266 . S
In13 O20 2.326 . S
In13 O21 2.266 . S
In13 O22 2.326 . S
In13 O24 2.294 . S
In13 O25 2.326 . S
O14 In13 2.294 . S
O14 C23 1.240 . S
O15 In13 2.326 . S
O15 C23 1.252 . S
C16 O19 1.252 . S
C16 O20 1.260 . S
C17 O24 1.240 . S
C17 O25 1.252 . S
C18 O21 1.252 . S
C18 O22 1.260 . S
O19 In13 2.266 . S
O19 C16 1.252 . S
O20 In13 2.326 . S
O20 C16 1.260 . S
O21 In13 2.266 . S
O21 C18 1.252 . S
O22 In13 2.326 . S
O22 C18 1.260 . S
C23 O14 1.240 . S
C23 O15 1.252 . S
O24 In13 2.294 . S
O24 C17 1.240 . S
O25 In13 2.326 . S
O25 C17 1.252 . S
In26 O27 2.294 . S
In26 O28 2.326 . S
In26 O32 2.266 . S
In26 O33 2.326 . S
In26 O34 2.266 . S
In26 O35 2.326 . S
In26 O37 2.294 . S
In26 O38 2.326 . S
O27 In26 2.294 . S
O27 C36 1.240 . S
O28 In26 2.326 . S
O28 C36 1.252 . S
C29 O32 1.252 . S
C29 O33 1.260 . S
C30 O37 1.240 . S
C30 O38 1.252 . S
C31 O34 1.252 . S
C31 O35 1.260 . S
O32 In26 2.266 . S
O32 C29 1.252 . S
O33 In26 2.326 . S
O33 C29 1.260 . S
O34 In26 2.266 . S
O34 C31 1.252 . S
O35 In26 2.326 . S
O35 C31 1.260 . S
C36 O27 1.240 . S
C36 O28 1.252 . S
O37 In26 2.294 . S
O37 C30 1.240 . S
O38 In26 2.326 . S
O38 C30 1.252 . S
In39 O40 2.294 . S
In39 O41 2.326 . S
In39 O45 2.266 . S
In39 O46 2.326 . S
In39 O47 2.266 . S
In39 O48 2.326 . S
In39 O50 2.294 . S
In39 O51 2.326 . S
O40 In39 2.294 . S
O40 C49 1.240 . S
O41 In39 2.326 . S
O41 C49 1.252 . S
C42 O45 1.252 . S
C42 O46 1.260 . S
C43 O50 1.240 . S
C43 O51 1.252 . S
C44 O47 1.252 . S
C44 O48 1.260 . S
O45 In39 2.266 . S
O45 C42 1.252 . S
O46 In39 2.326 . S
O46 C42 1.260 . S
O47 In39 2.266 . S
O47 C44 1.252 . S
O48 In39 2.326 . S
O48 C44 1.260 . S
C49 O40 1.240 . S
C49 O41 1.252 . S
O50 In39 2.294 . S
O50 C43 1.240 . S
O51 In39 2.326 . S
O51 C43 1.252 . S
In52 O53 2.294 . S
In52 O54 2.326 . S
In52 O58 2.266 . S
In52 O59 2.326 . S
In52 O60 2.266 . S
In52 O61 2.326 . S
In52 O63 2.294 . S
In52 O64 2.326 . S
O53 In52 2.294 . S
O53 C62 1.240 . S
O54 In52 2.326 . S
O54 C62 1.252 . S
C55 O58 1.252 . S
C55 O59 1.260 . S
C56 O63 1.240 . S
C56 O64 1.252 . S
C57 O60 1.252 . S
C57 O61 1.260 . S
O58 In52 2.266 . S
O58 C55 1.252 . S
O59 In52 2.326 . S
O59 C55 1.260 . S
O60 In52 2.266 . S
O60 C57 1.252 . S
O61 In52 2.326 . S
O61 C57 1.260 . S
C62 O53 1.240 . S
C62 O54 1.252 . S
O63 In52 2.294 . S
O63 C56 1.240 . S
O64 In52 2.326 . S
O64 C56 1.252 . S
In65 O66 2.294 . S
In65 O67 2.326 . S
In65 O71 2.266 . S
In65 O72 2.326 . S
In65 O73 2.266 . S
In65 O74 2.326 . S
In65 O76 2.294 . S
In65 O77 2.326 . S
O66 In65 2.294 . S
O66 C75 1.240 . S
O67 In65 2.326 . S
O67 C75 1.252 . S
C68 O71 1.252 . S
C68 O72 1.260 . S
C69 O76 1.240 . S
C69 O77 1.252 . S
C70 O73 1.252 . S
C70 O74 1.260 . S
O71 In65 2.266 . S
O71 C68 1.252 . S
O72 In65 2.326 . S
O72 C68 1.260 . S
O73 In65 2.266 . S
O73 C70 1.252 . S
O74 In65 2.326 . S
O74 C70 1.260 . S
C75 O66 1.240 . S
C75 O67 1.252 . S
O76 In65 2.294 . S
O76 C69 1.240 . S
O77 In65 2.326 . S
O77 C69 1.252 . S
In78 O79 2.294 . S
In78 O80 2.326 . S
In78 O84 2.266 . S
In78 O85 2.326 . S
In78 O86 2.266 . S
In78 O87 2.326 . S
In78 O89 2.294 1_554 S
In78 O90 2.326 1_554 S
O79 In78 2.294 . S
O79 C88 1.240 . S
O80 In78 2.326 . S
O80 C88 1.252 . S
C81 O84 1.252 . S
C81 O85 1.260 . S
C82 O89 1.240 . S
C82 O90 1.252 . S
C83 O86 1.252 . S
C83 O87 1.260 . S
O84 In78 2.266 . S
O84 C81 1.252 . S
O85 In78 2.326 . S
O85 C81 1.260 . S
O86 In78 2.266 . S
O86 C83 1.252 . S
O87 In78 2.326 . S
O87 C83 1.260 . S
C88 O79 1.240 . S
C88 O80 1.252 . S
O89 In78 2.294 1_556 S
O89 C82 1.240 . S
O90 In78 2.326 1_556 S
O90 C82 1.252 . S
In91 O92 2.294 . S
In91 O93 2.326 . S
In91 O97 2.266 . S
In91 O98 2.326 . S
In91 O99 2.266 . S
In91 O100 2.326 . S
In91 O102 2.294 . S
In91 O103 2.326 . S
O92 In91 2.294 . S
O92 C101 1.240 . S
O93 In91 2.326 . S
O93 C101 1.252 . S
C94 O97 1.252 . S
C94 O98 1.260 . S
C95 O102 1.240 . S
C95 O103 1.252 . S
C96 O99 1.252 . S
C96 O100 1.260 . S
O97 In91 2.266 . S
O97 C94 1.252 . S
O98 In91 2.326 . S
O98 C94 1.260 . S
O99 In91 2.266 . S
O99 C96 1.252 . S
O100 In91 2.326 . S
O100 C96 1.260 . S
C101 O92 1.240 . S
C101 O93 1.252 . S
O102 In91 2.294 . S
O102 C95 1.240 . S
O103 In91 2.326 . S
O103 C95 1.252 . S
In104 O105 2.294 1_554 S
In104 O106 2.326 1_554 S
In104 O110 2.266 . S
In104 O111 2.326 . S
In104 O112 2.266 . S
In104 O113 2.326 . S
In104 O115 2.294 . S
In104 O116 2.326 . S
O105 In104 2.294 1_556 S
O105 C114 1.240 . S
O106 In104 2.326 1_556 S
O106 C114 1.252 . S
C107 O110 1.252 . S
C107 O111 1.260 . S
C108 O115 1.240 . S
C108 O116 1.252 . S
C109 O112 1.252 . S
C109 O113 1.260 . S
O110 In104 2.266 . S
O110 C107 1.252 . S
O111 In104 2.326 . S
O111 C107 1.260 . S
O112 In104 2.266 . S
O112 C109 1.252 . S
O113 In104 2.326 . S
O113 C109 1.260 . S
C114 O105 1.240 . S
C114 O106 1.252 . S
O115 In104 2.294 . S
O115 C108 1.240 . S
O116 In104 2.326 . S
O116 C108 1.252 . S
In117 O118 2.294 . S
In117 O119 2.326 . S
In117 O123 2.266 . S
In117 O124 2.326 . S
In117 O125 2.266 . S
In117 O126 2.326 . S
In117 O128 2.294 . S
In117 O129 2.326 . S
O118 In117 2.294 . S
O118 C127 1.240 . S
O119 In117 2.326 . S
O119 C127 1.252 . S
C120 O123 1.252 . S
C120 O124 1.260 . S
C121 O128 1.240 . S
C121 O129 1.252 . S
C122 O125 1.252 . S
C122 O126 1.260 . S
O123 In117 2.266 . S
O123 C120 1.252 . S
O124 In117 2.326 . S
O124 C120 1.260 . S
O125 In117 2.266 . S
O125 C122 1.252 . S
O126 In117 2.326 . S
O126 C122 1.260 . S
C127 O118 1.240 . S
C127 O119 1.252 . S
O128 In117 2.294 . S
O128 C121 1.240 . S
O129 In117 2.326 . S
O129 C121 1.252 . S
In130 O131 2.294 . S
In130 O132 2.326 . S
In130 O136 2.266 . S
In130 O137 2.326 . S
In130 O138 2.266 . S
In130 O139 2.326 . S
In130 O141 2.294 . S
In130 O142 2.326 . S
O131 In130 2.294 . S
O131 C140 1.240 . S
O132 In130 2.326 . S
O132 C140 1.252 . S
C133 O136 1.252 . S
C133 O137 1.260 . S
C134 O141 1.240 . S
C134 O142 1.252 . S
C135 O138 1.252 . S
C135 O139 1.260 . S
O136 In130 2.266 . S
O136 C133 1.252 . S
O137 In130 2.326 . S
O137 C133 1.260 . S
O138 In130 2.266 . S
O138 C135 1.252 . S
O139 In130 2.326 . S
O139 C135 1.260 . S
C140 O131 1.240 . S
C140 O132 1.252 . S
O141 In130 2.294 . S
O141 C134 1.240 . S
O142 In130 2.326 . S
O142 C134 1.252 . S
In143 O144 2.294 . S
In143 O145 2.326 . S
In143 O149 2.266 . S
In143 O150 2.326 . S
In143 O151 2.266 . S
In143 O152 2.326 . S
In143 O154 2.294 . S
In143 O155 2.326 . S
O144 In143 2.294 . S
O144 C153 1.240 . S
O145 In143 2.326 . S
O145 C153 1.252 . S
C146 O149 1.252 . S
C146 O150 1.260 . S
C147 O154 1.240 . S
C147 O155 1.252 . S
C148 O151 1.252 . S
C148 O152 1.260 . S
O149 In143 2.266 . S
O149 C146 1.252 . S
O150 In143 2.326 . S
O150 C146 1.260 . S
O151 In143 2.266 . S
O151 C148 1.252 . S
O152 In143 2.326 . S
O152 C148 1.260 . S
C153 O144 1.240 . S
C153 O145 1.252 . S
O154 In143 2.294 . S
O154 C147 1.240 . S
O155 In143 2.326 . S
O155 C147 1.252 . S
In156 O157 2.294 . S
In156 O158 2.326 . S
In156 O162 2.266 . S
In156 O163 2.326 . S
In156 O164 2.266 . S
In156 O165 2.326 . S
In156 O167 2.294 . S
In156 O168 2.326 . S
O157 In156 2.294 . S
O157 C166 1.240 . S
O158 In156 2.326 . S
O158 C166 1.252 . S
C159 O162 1.252 . S
C159 O163 1.260 . S
C160 O167 1.240 . S
C160 O168 1.252 . S
C161 O164 1.252 . S
C161 O165 1.260 . S
O162 In156 2.266 . S
O162 C159 1.252 . S
O163 In156 2.326 . S
O163 C159 1.260 . S
O164 In156 2.266 . S
O164 C161 1.252 . S
O165 In156 2.326 . S
O165 C161 1.260 . S
C166 O157 1.240 . S
C166 O158 1.252 . S
O167 In156 2.294 . S
O167 C160 1.240 . S
O168 In156 2.326 . S
O168 C160 1.252 . S
In169 O170 2.294 . S
In169 O171 2.326 . S
In169 O175 2.266 . S
In169 O176 2.326 . S
In169 O177 2.266 . S
In169 O178 2.326 . S
In169 O180 2.294 . S
In169 O181 2.326 . S
O170 In169 2.294 . S
O170 C179 1.240 . S
O171 In169 2.326 . S
O171 C179 1.252 . S
C172 O175 1.252 . S
C172 O176 1.260 . S
C173 O180 1.240 . S
C173 O181 1.252 . S
C174 O177 1.252 . S
C174 O178 1.260 . S
O175 In169 2.266 . S
O175 C172 1.252 . S
O176 In169 2.326 . S
O176 C172 1.260 . S
O177 In169 2.266 . S
O177 C174 1.252 . S
O178 In169 2.326 . S
O178 C174 1.260 . S
C179 O170 1.240 . S
C179 O171 1.252 . S
O180 In169 2.294 . S
O180 C173 1.240 . S
O181 In169 2.326 . S
O181 C173 1.252 . S
In182 O183 2.294 . S
In182 O184 2.326 . S
In182 O188 2.266 . S
In182 O189 2.326 . S
In182 O190 2.266 . S
In182 O191 2.326 . S
In182 O193 2.294 . S
In182 O194 2.326 . S
O183 In182 2.294 . S
O183 C192 1.240 . S
O184 In182 2.326 . S
O184 C192 1.252 . S
C185 O188 1.252 . S
C185 O189 1.260 . S
C186 O193 1.240 . S
C186 O194 1.252 . S
C187 O190 1.252 . S
C187 O191 1.260 . S
O188 In182 2.266 . S
O188 C185 1.252 . S
O189 In182 2.326 . S
O189 C185 1.260 . S
O190 In182 2.266 . S
O190 C187 1.252 . S
O191 In182 2.326 . S
O191 C187 1.260 . S
C192 O183 1.240 . S
C192 O184 1.252 . S
O193 In182 2.294 . S
O193 C186 1.240 . S
O194 In182 2.326 . S
O194 C186 1.252 . S
In195 O196 2.294 . S
In195 O197 2.326 . S
In195 O201 2.266 . S
In195 O202 2.326 . S
In195 O203 2.266 . S
In195 O204 2.326 . S
In195 O206 2.294 . S
In195 O207 2.326 . S
O196 In195 2.294 . S
O196 C205 1.240 . S
O197 In195 2.326 . S
O197 C205 1.252 . S
C198 O201 1.252 . S
C198 O202 1.260 . S
C199 O206 1.240 . S
C199 O207 1.252 . S
C200 O203 1.252 . S
C200 O204 1.260 . S
O201 In195 2.266 . S
O201 C198 1.252 . S
O202 In195 2.326 . S
O202 C198 1.260 . S
O203 In195 2.266 . S
O203 C200 1.252 . S
O204 In195 2.326 . S
O204 C200 1.260 . S
C205 O196 1.240 . S
C205 O197 1.252 . S
O206 In195 2.294 . S
O206 C199 1.240 . S
O207 In195 2.326 . S
O207 C199 1.252 . S
In208 O209 2.294 . S
In208 O210 2.326 . S
In208 O214 2.266 . S
In208 O215 2.326 . S
In208 O216 2.275 . S
In208 O217 2.326 . S
In208 O219 2.249 1_565 S
In208 O220 2.326 . S
O209 In208 2.294 . S
O209 C218 1.240 . S
O210 In208 2.326 . S
O210 C218 1.252 . S
C211 O214 1.252 . S
C211 O215 1.260 . S
C212 O219 1.211 1_565 S
C212 O220 1.252 . S
C213 O216 1.260 . S
C213 O217 1.260 . S
O214 In208 2.266 . S
O214 C211 1.252 . S
O215 In208 2.326 . S
O215 C211 1.260 . S
O216 In208 2.275 . S
O216 C213 1.260 . S
O217 In208 2.326 . S
O217 C213 1.260 . S
C218 O209 1.240 . S
C218 O210 1.252 . S
O219 In208 2.249 1_545 S
O219 C212 1.211 1_545 S
O220 In208 2.326 . S
O220 C212 1.252 . S
In221 O222 2.294 . S
In221 O223 2.326 . S
In221 O227 2.266 . S
In221 O228 2.326 . S
In221 O229 2.266 . S
In221 O230 2.326 . S
In221 O232 2.294 . S
In221 O233 2.326 . S
O222 In221 2.294 . S
O222 C231 1.240 . S
O223 In221 2.326 . S
O223 C231 1.252 . S
C224 O227 1.252 . S
C224 O228 1.260 . S
C225 O232 1.240 . S
C225 O233 1.252 . S
C226 O229 1.252 . S
C226 O230 1.260 . S
O227 In221 2.266 . S
O227 C224 1.252 . S
O228 In221 2.326 . S
O228 C224 1.260 . S
O229 In221 2.266 . S
O229 C226 1.252 . S
O230 In221 2.326 . S
O230 C226 1.260 . S
C231 O222 1.240 . S
C231 O223 1.252 . S
O232 In221 2.294 . S
O232 C225 1.240 . S
O233 In221 2.326 . S
O233 C225 1.252 . S
In234 O235 2.294 . S
In234 O236 2.326 . S
In234 O240 2.266 . S
In234 O241 2.326 . S
In234 O242 2.277 . S
In234 O243 2.326 . S
In234 O245 2.251 1_545 S
In234 O246 2.326 . S
O235 In234 2.294 . S
O235 C244 1.240 . S
O236 In234 2.326 . S
O236 C244 1.252 . S
C237 O240 1.252 . S
C237 O241 1.260 . S
C238 O245 1.213 1_545 S
C238 O246 1.252 . S
C239 O242 1.262 . S
C239 O243 1.260 . S
O240 In234 2.266 . S
O240 C237 1.252 . S
O241 In234 2.326 . S
O241 C237 1.260 . S
O242 In234 2.277 . S
O242 C239 1.262 . S
O243 In234 2.326 . S
O243 C239 1.260 . S
C244 O235 1.240 . S
C244 O236 1.252 . S
O245 In234 2.251 1_565 S
O245 C238 1.213 1_565 S
O246 In234 2.326 . S
O246 C238 1.252 . S
In247 O248 2.294 . S
In247 O249 2.326 . S
In247 O253 2.266 . S
In247 O254 2.326 . S
In247 O255 2.266 . S
In247 O256 2.326 . S
In247 O258 2.294 . S
In247 O259 2.326 . S
O248 In247 2.294 . S
O248 C257 1.240 . S
O249 In247 2.326 . S
O249 C257 1.252 . S
C250 O253 1.252 . S
C250 O254 1.260 . S
C251 O258 1.240 . S
C251 O259 1.252 . S
C252 O255 1.252 . S
C252 O256 1.260 . S
O253 In247 2.266 . S
O253 C250 1.252 . S
O254 In247 2.326 . S
O254 C250 1.260 . S
O255 In247 2.266 . S
O255 C252 1.252 . S
O256 In247 2.326 . S
O256 C252 1.260 . S
C257 O248 1.240 . S
C257 O249 1.252 . S
O258 In247 2.294 . S
O258 C251 1.240 . S
O259 In247 2.326 . S
O259 C251 1.252 . S
In260 O261 2.251 1_544 S
In260 O262 2.326 1_554 S
In260 O266 2.276 . S
In260 O267 2.326 . S
In260 O268 2.266 . S
In260 O269 2.326 . S
In260 O271 2.294 . S
In260 O272 2.326 . S
O261 In260 2.251 1_566 S
O261 C270 1.213 1_565 S
O262 In260 2.326 1_556 S
O262 C270 1.252 . S
C263 O266 1.262 . S
C263 O267 1.260 . S
C264 O271 1.240 . S
C264 O272 1.252 . S
C265 O268 1.252 . S
C265 O269 1.260 . S
O266 In260 2.276 . S
O266 C263 1.262 . S
O267 In260 2.326 . S
O267 C263 1.260 . S
O268 In260 2.266 . S
O268 C265 1.252 . S
O269 In260 2.326 . S
O269 C265 1.260 . S
C270 O261 1.213 1_545 S
C270 O262 1.252 . S
O271 In260 2.294 . S
O271 C264 1.240 . S
O272 In260 2.326 . S
O272 C264 1.252 . S
In273 O274 2.294 . S
In273 O275 2.326 . S
In273 O279 2.266 . S
In273 O280 2.326 . S
In273 O281 2.266 . S
In273 O282 2.326 . S
In273 O284 2.294 . S
In273 O285 2.326 . S
O274 In273 2.294 . S
O274 C283 1.240 . S
O275 In273 2.326 . S
O275 C283 1.252 . S
C276 O279 1.252 . S
C276 O280 1.260 . S
C277 O284 1.240 . S
C277 O285 1.252 . S
C278 O281 1.252 . S
C278 O282 1.260 . S
O279 In273 2.266 . S
O279 C276 1.252 . S
O280 In273 2.326 . S
O280 C276 1.260 . S
O281 In273 2.266 . S
O281 C278 1.252 . S
O282 In273 2.326 . S
O282 C278 1.260 . S
C283 O274 1.240 . S
C283 O275 1.252 . S
O284 In273 2.294 . S
O284 C277 1.240 . S
O285 In273 2.326 . S
O285 C277 1.252 . S
In286 O287 2.294 . S
In286 O288 2.326 . S
In286 O292 2.266 . S
In286 O293 2.326 . S
In286 O294 2.276 . S
In286 O295 2.326 . S
In286 O297 2.250 1_565 S
In286 O298 2.326 . S
O287 In286 2.294 . S
O287 C296 1.240 . S
O288 In286 2.326 . S
O288 C296 1.252 . S
C289 O292 1.252 . S
C289 O293 1.260 . S
C290 O297 1.212 1_565 S
C290 O298 1.252 . S
C291 O294 1.261 . S
C291 O295 1.260 . S
O292 In286 2.266 . S
O292 C289 1.252 . S
O293 In286 2.326 . S
O293 C289 1.260 . S
O294 In286 2.276 . S
O294 C291 1.261 . S
O295 In286 2.326 . S
O295 C291 1.260 . S
C296 O287 1.240 . S
C296 O288 1.252 . S
O297 In286 2.250 1_545 S
O297 C290 1.212 1_545 S
O298 In286 2.326 . S
O298 C290 1.252 . S
In299 O300 2.294 . S
In299 O301 2.326 . S
In299 O305 2.266 . S
In299 O306 2.326 . S
In299 O307 2.266 . S
In299 O308 2.326 . S
In299 O310 2.294 . S
In299 O311 2.326 . S
O300 In299 2.294 . S
O300 C309 1.240 . S
O301 In299 2.326 . S
O301 C309 1.252 . S
C302 O305 1.252 . S
C302 O306 1.260 . S
C303 O310 1.240 . S
C303 O311 1.252 . S
C304 O307 1.252 . S
C304 O308 1.260 . S
O305 In299 2.266 . S
O305 C302 1.252 . S
O306 In299 2.326 . S
O306 C302 1.260 . S
O307 In299 2.266 . S
O307 C304 1.252 . S
O308 In299 2.326 . S
O308 C304 1.260 . S
C309 O300 1.240 . S
C309 O301 1.252 . S
O310 In299 2.294 . S
O310 C303 1.240 . S
O311 In299 2.326 . S
O311 C303 1.252 . S
In312 O313 2.294 . S
In312 O314 2.326 . S
In312 O318 2.266 . S
In312 O319 2.326 . S
In312 O320 2.276 . S
In312 O321 2.326 . S
In312 O323 2.250 1_545 S
In312 O324 2.326 . S
O313 In312 2.294 . S
O313 C322 1.240 . S
O314 In312 2.326 . S
O314 C322 1.252 . S
C315 O318 1.252 . S
C315 O319 1.260 . S
C316 O323 1.212 1_545 S
C316 O324 1.252 . S
C317 O320 1.261 . S
C317 O321 1.260 . S
O318 In312 2.266 . S
O318 C315 1.252 . S
O319 In312 2.326 . S
O319 C315 1.260 . S
O320 In312 2.276 . S
O320 C317 1.261 . S
O321 In312 2.326 . S
O321 C317 1.260 . S
C322 O313 1.240 . S
C322 O314 1.252 . S
O323 In312 2.250 1_565 S
O323 C316 1.212 1_565 S
O324 In312 2.326 . S
O324 C316 1.252 . S
In325 O326 2.294 . S
In325 O327 2.326 . S
In325 O331 2.266 . S
In325 O332 2.326 . S
In325 O333 2.266 . S
In325 O334 2.326 . S
In325 O336 2.294 . S
In325 O337 2.326 . S
O326 In325 2.294 . S
O326 C335 1.240 . S
O327 In325 2.326 . S
O327 C335 1.252 . S
C328 O331 1.252 . S
C328 O332 1.260 . S
C329 O336 1.240 . S
C329 O337 1.252 . S
C330 O333 1.252 . S
C330 O334 1.260 . S
O331 In325 2.266 . S
O331 C328 1.252 . S
O332 In325 2.326 . S
O332 C328 1.260 . S
O333 In325 2.266 . S
O333 C330 1.252 . S
O334 In325 2.326 . S
O334 C330 1.260 . S
C335 O326 1.240 . S
C335 O327 1.252 . S
O336 In325 2.294 . S
O336 C329 1.240 . S
O337 In325 2.326 . S
O337 C329 1.252 . S
In338 O339 2.251 1_564 S
In338 O340 2.326 1_554 S
In338 O344 2.276 . S
In338 O345 2.326 . S
In338 O346 2.266 . S
In338 O347 2.326 . S
In338 O349 2.294 . S
In338 O350 2.326 . S
O339 In338 2.251 1_546 S
O339 C348 1.213 1_545 S
O340 In338 2.326 1_556 S
O340 C348 1.252 . S
C341 O344 1.262 . S
C341 O345 1.260 . S
C342 O349 1.240 . S
C342 O350 1.252 . S
C343 O346 1.252 . S
C343 O347 1.260 . S
O344 In338 2.276 . S
O344 C341 1.262 . S
O345 In338 2.326 . S
O345 C341 1.260 . S
O346 In338 2.266 . S
O346 C343 1.252 . S
O347 In338 2.326 . S
O347 C343 1.260 . S
C348 O339 1.213 1_565 S
C348 O340 1.252 . S
O349 In338 2.294 . S
O349 C342 1.240 . S
O350 In338 2.326 . S
O350 C342 1.252 . S
In351 O352 2.294 . S
In351 O353 2.326 . S
In351 O357 2.266 . S
In351 O358 2.326 . S
In351 O359 2.266 . S
In351 O360 2.326 . S
In351 O362 2.294 . S
In351 O363 2.326 . S
O352 In351 2.294 . S
O352 C361 1.240 . S
O353 In351 2.326 . S
O353 C361 1.252 . S
C354 O357 1.252 . S
C354 O358 1.260 . S
C355 O362 1.240 . S
C355 O363 1.252 . S
C356 O359 1.252 . S
C356 O360 1.260 . S
O357 In351 2.266 . S
O357 C354 1.252 . S
O358 In351 2.326 . S
O358 C354 1.260 . S
O359 In351 2.266 . S
O359 C356 1.252 . S
O360 In351 2.326 . S
O360 C356 1.260 . S
C361 O352 1.240 . S
C361 O353 1.252 . S
O362 In351 2.294 . S
O362 C355 1.240 . S
O363 In351 2.326 . S
O363 C355 1.252 . S
In364 O365 2.294 . S
In364 O366 2.326 . S
In364 O370 2.266 . S
In364 O371 2.326 . S
In364 O372 2.277 . S
In364 O373 2.326 . S
In364 O375 2.251 1_565 S
In364 O376 2.326 . S
O365 In364 2.294 . S
O365 C374 1.240 . S
O366 In364 2.326 . S
O366 C374 1.252 . S
C367 O370 1.252 . S
C367 O371 1.260 . S
C368 O375 1.213 1_565 S
C368 O376 1.252 . S
C369 O372 1.262 . S
C369 O373 1.260 . S
O370 In364 2.266 . S
O370 C367 1.252 . S
O371 In364 2.326 . S
O371 C367 1.260 . S
O372 In364 2.277 . S
O372 C369 1.262 . S
O373 In364 2.326 . S
O373 C369 1.260 . S
C374 O365 1.240 . S
C374 O366 1.252 . S
O375 In364 2.251 1_545 S
O375 C368 1.213 1_545 S
O376 In364 2.326 . S
O376 C368 1.252 . S
In377 O378 2.294 . S
In377 O379 2.326 . S
In377 O383 2.266 . S
In377 O384 2.326 . S
In377 O385 2.266 . S
In377 O386 2.326 . S
In377 O388 2.294 . S
In377 O389 2.326 . S
O378 In377 2.294 . S
O378 C387 1.240 . S
O379 In377 2.326 . S
O379 C387 1.252 . S
C380 O383 1.252 . S
C380 O384 1.260 . S
C381 O388 1.240 . S
C381 O389 1.252 . S
C382 O385 1.252 . S
C382 O386 1.260 . S
O383 In377 2.266 . S
O383 C380 1.252 . S
O384 In377 2.326 . S
O384 C380 1.260 . S
O385 In377 2.266 . S
O385 C382 1.252 . S
O386 In377 2.326 . S
O386 C382 1.260 . S
C387 O378 1.240 . S
C387 O379 1.252 . S
O388 In377 2.294 . S
O388 C381 1.240 . S
O389 In377 2.326 . S
O389 C381 1.252 . S
In390 O391 2.294 . S
In390 O392 2.326 . S
In390 O396 2.266 . S
In390 O397 2.326 . S
In390 O398 2.275 . S
In390 O399 2.326 . S
In390 O401 2.249 1_545 S
In390 O402 2.326 . S
O391 In390 2.294 . S
O391 C400 1.240 . S
O392 In390 2.326 . S
O392 C400 1.252 . S
C393 O396 1.252 . S
C393 O397 1.260 . S
C394 O401 1.211 1_545 S
C394 O402 1.252 . S
C395 O398 1.260 . S
C395 O399 1.260 . S
O396 In390 2.266 . S
O396 C393 1.252 . S
O397 In390 2.326 . S
O397 C393 1.260 . S
O398 In390 2.275 . S
O398 C395 1.260 . S
O399 In390 2.326 . S
O399 C395 1.260 . S
C400 O391 1.240 . S
C400 O392 1.252 . S
O401 In390 2.249 1_565 S
O401 C394 1.211 1_565 S
O402 In390 2.326 . S
O402 C394 1.252 . S
In403 O404 2.294 . S
In403 O405 2.326 . S
In403 O409 2.266 . S
In403 O410 2.326 . S
In403 O411 2.266 . S
In403 O412 2.326 . S
In403 O414 2.294 . S
In403 O415 2.326 . S
O404 In403 2.294 . S
O404 C413 1.240 . S
O405 In403 2.326 . S
O405 C413 1.252 . S
C406 O409 1.252 . S
C406 O410 1.260 . S
C407 O414 1.240 . S
C407 O415 1.252 . S
C408 O411 1.252 . S
C408 O412 1.260 . S
O409 In403 2.266 . S
O409 C406 1.252 . S
O410 In403 2.326 . S
O410 C406 1.260 . S
O411 In403 2.266 . S
O411 C408 1.252 . S
O412 In403 2.326 . S
O412 C408 1.260 . S
C413 O404 1.240 . S
C413 O405 1.252 . S
O414 In403 2.294 . S
O414 C407 1.240 . S
O415 In403 2.326 . S
O415 C407 1.252 . S
C416 C417 1.349 . S
C416 C418 1.327 . S
C416 H441 0.950 . S
C417 C416 1.349 . S
C417 C433 1.349 . S
C418 C416 1.327 . S
C418 C437 1.429 . S
C418 H442 0.950 . S
C419 C436 1.574 1_655 S
C419 C438 1.368 . S
C419 H443 0.949 . S
H420 C424 0.949 . S
C421 C422 1.349 . S
C421 C423 1.327 . S
C421 H444 0.950 . S
C422 C421 1.349 . S
C422 C434 1.349 . S
C423 C421 1.327 . S
C423 C439 1.429 . S
C423 H445 0.950 . S
C424 H420 0.949 . S
C424 C432 1.574 1_455 S
C424 C440 1.368 . S
H425 C433 0.950 . S
H426 C431 0.950 . S
H427 C432 0.949 . S
H428 C434 0.950 . S
H429 C435 0.950 . S
H430 C436 0.949 . S
C431 H426 0.950 . S
C431 C433 1.327 . S
C431 C437 1.429 . S
C432 C424 1.574 1_655 S
C432 H427 0.949 . S
C432 C438 1.368 . S
C433 C417 1.349 . S
C433 H425 0.950 . S
C433 C431 1.327 . S
C434 C422 1.349 . S
C434 H428 0.950 . S
C434 C435 1.327 . S
C435 H429 0.950 . S
C435 C434 1.327 . S
C435 C439 1.429 . S
C436 C419 1.574 1_455 S
C436 H430 0.949 . S
C436 C440 1.368 . S
C437 C418 1.429 . S
C437 C431 1.429 . S
C437 C438 1.523 . S
C438 C419 1.368 . S
C438 C432 1.368 . S
C438 C437 1.523 . S
C439 C423 1.429 . S
C439 C435 1.429 . S
C439 C440 1.523 . S
C440 C424 1.368 . S
C440 C436 1.368 . S
C440 C439 1.523 . S
H441 C416 0.950 . S
H442 C418 0.950 . S
H443 C419 0.949 . S
H444 C421 0.950 . S
H445 C423 0.950 . S
C446 C447 1.349 . S
C446 C448 1.327 . S
C446 H471 0.950 . S
C447 C446 1.349 . S
C447 C463 1.349 . S
C448 C446 1.327 . S
C448 C467 1.429 . S
C448 H472 0.950 . S
C449 C466 1.574 . S
C449 C468 1.368 . S
C449 H473 0.949 . S
H450 C454 0.949 . S
C451 C452 1.349 . S
C451 C453 1.327 . S
C451 H474 0.950 . S
C452 C451 1.349 . S
C452 C464 1.349 . S
C453 C451 1.327 . S
C453 C469 1.429 . S
C453 H475 0.950 . S
C454 H450 0.949 . S
C454 C462 1.574 . S
C454 C470 1.368 . S
H455 C463 0.950 . S
H456 C461 0.950 . S
H457 C462 0.949 . S
H458 C464 0.950 . S
H459 C465 0.950 . S
H460 C466 0.949 . S
C461 H456 0.950 . S
C461 C463 1.327 . S
C461 C467 1.429 . S
C462 C454 1.574 . S
C462 H457 0.949 . S
C462 C468 1.368 . S
C463 C447 1.349 . S
C463 H455 0.950 . S
C463 C461 1.327 . S
C464 C452 1.349 . S
C464 H458 0.950 . S
C464 C465 1.327 . S
C465 H459 0.950 . S
C465 C464 1.327 . S
C465 C469 1.429 . S
C466 C449 1.574 . S
C466 H460 0.949 . S
C466 C470 1.368 . S
C467 C448 1.429 . S
C467 C461 1.429 . S
C467 C468 1.523 . S
C468 C449 1.368 . S
C468 C462 1.368 . S
C468 C467 1.523 . S
C469 C453 1.429 . S
C469 C465 1.429 . S
C469 C470 1.523 . S
C470 C454 1.368 . S
C470 C466 1.368 . S
C470 C469 1.523 . S
H471 C446 0.950 . S
H472 C448 0.950 . S
H473 C449 0.949 . S
H474 C451 0.950 . S
H475 C453 0.950 . S
C476 C477 1.349 . S
C476 C478 1.327 . S
C476 H501 0.950 . S
C477 C476 1.349 . S
C477 C493 1.349 . S
C478 C476 1.327 . S
C478 C497 1.429 . S
C478 H502 0.950 . S
C479 C496 1.574 . S
C479 C498 1.368 . S
C479 H503 0.949 . S
H480 C484 0.949 . S
C481 C482 1.349 . S
C481 C483 1.327 . S
C481 H504 0.950 . S
C482 C481 1.349 . S
C482 C494 1.349 . S
C483 C481 1.327 . S
C483 C499 1.429 . S
C483 H505 0.950 . S
C484 H480 0.949 . S
C484 C492 1.574 . S
C484 C500 1.368 . S
H485 C493 0.950 . S
H486 C491 0.950 . S
H487 C492 0.949 . S
H488 C494 0.950 . S
H489 C495 0.950 . S
H490 C496 0.949 . S
C491 H486 0.950 . S
C491 C493 1.327 . S
C491 C497 1.429 . S
C492 C484 1.574 . S
C492 H487 0.949 . S
C492 C498 1.368 . S
C493 C477 1.349 . S
C493 H485 0.950 . S
C493 C491 1.327 . S
C494 C482 1.349 . S
C494 H488 0.950 . S
C494 C495 1.327 . S
C495 H489 0.950 . S
C495 C494 1.327 . S
C495 C499 1.429 . S
C496 C479 1.574 . S
C496 H490 0.949 . S
C496 C500 1.368 . S
C497 C478 1.429 . S
C497 C491 1.429 . S
C497 C498 1.523 . S
C498 C479 1.368 . S
C498 C492 1.368 . S
C498 C497 1.523 . S
C499 C483 1.429 . S
C499 C495 1.429 . S
C499 C500 1.523 . S
C500 C484 1.368 . S
C500 C496 1.368 . S
C500 C499 1.523 . S
H501 C476 0.950 . S
H502 C478 0.950 . S
H503 C479 0.949 . S
H504 C481 0.950 . S
H505 C483 0.950 . S
C506 C507 1.349 . S
C506 C508 1.327 . S
C506 H531 0.950 . S
C507 C506 1.349 . S
C507 C523 1.349 . S
C508 C506 1.327 . S
C508 C527 1.429 . S
C508 H532 0.950 . S
C509 C526 1.574 . S
C509 C528 1.368 . S
C509 H533 0.949 . S
H510 C514 0.949 . S
C511 C512 1.349 . S
C511 C513 1.327 . S
C511 H534 0.950 . S
C512 C511 1.349 . S
C512 C524 1.349 . S
C513 C511 1.327 . S
C513 C529 1.429 . S
C513 H535 0.950 . S
C514 H510 0.949 . S
C514 C522 1.574 . S
C514 C530 1.368 . S
H515 C523 0.950 . S
H516 C521 0.950 . S
H517 C522 0.949 . S
H518 C524 0.950 . S
H519 C525 0.950 . S
H520 C526 0.949 . S
C521 H516 0.950 . S
C521 C523 1.327 . S
C521 C527 1.429 . S
C522 C514 1.574 . S
C522 H517 0.949 . S
C522 C528 1.368 . S
C523 C507 1.349 . S
C523 H515 0.950 . S
C523 C521 1.327 . S
C524 C512 1.349 . S
C524 H518 0.950 . S
C524 C525 1.327 . S
C525 H519 0.950 . S
C525 C524 1.327 . S
C525 C529 1.429 . S
C526 C509 1.574 . S
C526 H520 0.949 . S
C526 C530 1.368 . S
C527 C508 1.429 . S
C527 C521 1.429 . S
C527 C528 1.523 . S
C528 C509 1.368 . S
C528 C522 1.368 . S
C528 C527 1.523 . S
C529 C513 1.429 . S
C529 C525 1.429 . S
C529 C530 1.523 . S
C530 C514 1.368 . S
C530 C526 1.368 . S
C530 C529 1.523 . S
H531 C506 0.950 . S
H532 C508 0.950 . S
H533 C509 0.949 . S
H534 C511 0.950 . S
H535 C513 0.950 . S
C536 C537 1.349 . S
C536 C538 1.327 . S
C536 H561 0.950 . S
C537 C536 1.349 . S
C537 C553 1.349 . S
C538 C536 1.327 . S
C538 C557 1.429 . S
C538 H562 0.950 . S
C539 C556 1.574 1_455 S
C539 C558 1.368 . S
C539 H563 0.949 . S
H540 C544 0.949 . S
C541 C542 1.349 . S
C541 C543 1.327 . S
C541 H564 0.950 . S
C542 C541 1.349 . S
C542 C554 1.349 . S
C543 C541 1.327 . S
C543 C559 1.429 . S
C543 H565 0.950 . S
C544 H540 0.949 . S
C544 C552 1.574 1_655 S
C544 C560 1.368 . S
H545 C553 0.950 . S
H546 C551 0.950 . S
H547 C552 0.949 . S
H548 C554 0.950 . S
H549 C555 0.950 . S
H550 C556 0.949 . S
C551 H546 0.950 . S
C551 C553 1.327 . S
C551 C557 1.429 . S
C552 C544 1.574 1_455 S
C552 H547 0.949 . S
C552 C558 1.368 . S
C553 C537 1.349 . S
C553 H545 0.950 . S
C553 C551 1.327 . S
C554 C542 1.349 . S
C554 H548 0.950 . S
C554 C555 1.327 . S
C555 H549 0.950 . S
C555 C554 1.327 . S
C555 C559 1.429 . S
C556 C539 1.574 1_655 S
C556 H550 0.949 . S
C556 C560 1.368 . S
C557 C538 1.429 . S
C557 C551 1.429 . S
C557 C558 1.523 . S
C558 C539 1.368 . S
C558 C552 1.368 . S
C558 C557 1.523 . S
C559 C543 1.429 . S
C559 C555 1.429 . S
C559 C560 1.523 . S
C560 C544 1.368 . S
C560 C556 1.368 . S
C560 C559 1.523 . S
H561 C536 0.950 . S
H562 C538 0.950 . S
H563 C539 0.949 . S
H564 C541 0.950 . S
H565 C543 0.950 . S
C566 C567 1.349 . S
C566 C568 1.327 . S
C566 H591 0.950 . S
C567 C566 1.349 . S
C567 C583 1.349 . S
C568 C566 1.327 . S
C568 C587 1.429 . S
C568 H592 0.950 . S
C569 C586 1.574 . S
C569 C588 1.368 . S
C569 H593 0.949 . S
H570 C574 0.949 . S
C571 C572 1.349 . S
C571 C573 1.327 . S
C571 H594 0.950 . S
C572 C571 1.349 . S
C572 C584 1.349 . S
C573 C571 1.327 . S
C573 C589 1.429 . S
C573 H595 0.950 . S
C574 H570 0.949 . S
C574 C582 1.574 . S
C574 C590 1.368 . S
H575 C583 0.950 . S
H576 C581 0.950 . S
H577 C582 0.949 . S
H578 C584 0.950 . S
H579 C585 0.950 . S
H580 C586 0.949 . S
C581 H576 0.950 . S
C581 C583 1.327 . S
C581 C587 1.429 . S
C582 C574 1.574 . S
C582 H577 0.949 . S
C582 C588 1.368 . S
C583 C567 1.349 . S
C583 H575 0.950 . S
C583 C581 1.327 . S
C584 C572 1.349 . S
C584 H578 0.950 . S
C584 C585 1.327 . S
C585 H579 0.950 . S
C585 C584 1.327 . S
C585 C589 1.429 . S
C586 C569 1.574 . S
C586 H580 0.949 . S
C586 C590 1.368 . S
C587 C568 1.429 . S
C587 C581 1.429 . S
C587 C588 1.523 . S
C588 C569 1.368 . S
C588 C582 1.368 . S
C588 C587 1.523 . S
C589 C573 1.429 . S
C589 C585 1.429 . S
C589 C590 1.523 . S
C590 C574 1.368 . S
C590 C586 1.368 . S
C590 C589 1.523 . S
H591 C566 0.950 . S
H592 C568 0.950 . S
H593 C569 0.949 . S
H594 C571 0.950 . S
H595 C573 0.950 . S
C596 C597 1.349 . S
C596 C598 1.327 . S
C596 H621 0.950 . S
C597 C596 1.349 . S
C597 C613 1.349 . S
C598 C596 1.327 . S
C598 C617 1.429 . S
C598 H622 0.950 . S
C599 C616 1.574 . S
C599 C618 1.368 . S
C599 H623 0.949 . S
H600 C604 0.949 . S
C601 C602 1.349 . S
C601 C603 1.327 . S
C601 H624 0.950 . S
C602 C601 1.349 . S
C602 C614 1.349 . S
C603 C601 1.327 . S
C603 C619 1.429 . S
C603 H625 0.950 . S
C604 H600 0.949 . S
C604 C612 1.574 . S
C604 C620 1.368 . S
H605 C613 0.950 . S
H606 C611 0.950 . S
H607 C612 0.949 . S
H608 C614 0.950 . S
H609 C615 0.950 . S
H610 C616 0.949 . S
C611 H606 0.950 . S
C611 C613 1.327 . S
C611 C617 1.429 . S
C612 C604 1.574 . S
C612 H607 0.949 . S
C612 C618 1.368 . S
C613 C597 1.349 . S
C613 H605 0.950 . S
C613 C611 1.327 . S
C614 C602 1.349 . S
C614 H608 0.950 . S
C614 C615 1.327 . S
C615 H609 0.950 . S
C615 C614 1.327 . S
C615 C619 1.429 . S
C616 C599 1.574 . S
C616 H610 0.949 . S
C616 C620 1.368 . S
C617 C598 1.429 . S
C617 C611 1.429 . S
C617 C618 1.523 . S
C618 C599 1.368 . S
C618 C612 1.368 . S
C618 C617 1.523 . S
C619 C603 1.429 . S
C619 C615 1.429 . S
C619 C620 1.523 . S
C620 C604 1.368 . S
C620 C616 1.368 . S
C620 C619 1.523 . S
H621 C596 0.950 . S
H622 C598 0.950 . S
H623 C599 0.949 . S
H624 C601 0.950 . S
H625 C603 0.950 . S
C626 C627 1.349 . S
C626 C628 1.327 . S
C626 H651 0.950 . S
C627 C626 1.349 . S
C627 C643 1.349 . S
C628 C626 1.327 . S
C628 C647 1.429 . S
C628 H652 0.950 . S
C629 C646 1.574 . S
C629 C648 1.368 . S
C629 H653 0.949 . S
H630 C634 0.949 . S
C631 C632 1.349 . S
C631 C633 1.327 . S
C631 H654 0.950 . S
C632 C631 1.349 . S
C632 C644 1.349 . S
C633 C631 1.327 . S
C633 C649 1.429 . S
C633 H655 0.950 . S
C634 H630 0.949 . S
C634 C642 1.574 . S
C634 C650 1.368 . S
H635 C643 0.950 . S
H636 C641 0.950 . S
H637 C642 0.949 . S
H638 C644 0.950 . S
H639 C645 0.950 . S
H640 C646 0.949 . S
C641 H636 0.950 . S
C641 C643 1.327 . S
C641 C647 1.429 . S
C642 C634 1.574 . S
C642 H637 0.949 . S
C642 C648 1.368 . S
C643 C627 1.349 . S
C643 H635 0.950 . S
C643 C641 1.327 . S
C644 C632 1.349 . S
C644 H638 0.950 . S
C644 C645 1.327 . S
C645 H639 0.950 . S
C645 C644 1.327 . S
C645 C649 1.429 . S
C646 C629 1.574 . S
C646 H640 0.949 . S
C646 C650 1.368 . S
C647 C628 1.429 . S
C647 C641 1.429 . S
C647 C648 1.523 . S
C648 C629 1.368 . S
C648 C642 1.368 . S
C648 C647 1.523 . S
C649 C633 1.429 . S
C649 C645 1.429 . S
C649 C650 1.523 . S
C650 C634 1.368 . S
C650 C646 1.368 . S
C650 C649 1.523 . S
H651 C626 0.950 . S
H652 C628 0.950 . S
H653 C629 0.949 . S
H654 C631 0.950 . S
H655 C633 0.950 . S
C656 C657 1.349 . S
C656 C658 1.327 . S
C656 H681 0.950 . S
C657 C656 1.349 . S
C657 C673 1.349 . S
C658 C656 1.327 . S
C658 C677 1.429 . S
C658 H682 0.950 . S
C659 C676 1.574 . S
C659 C678 1.368 . S
C659 H683 0.949 . S
H660 C664 0.949 . S
C661 C662 1.349 . S
C661 C663 1.327 . S
C661 H684 0.950 . S
C662 C661 1.349 . S
C662 C674 1.349 . S
C663 C661 1.327 . S
C663 C679 1.429 . S
C663 H685 0.950 . S
C664 H660 0.949 . S
C664 C672 1.574 . S
C664 C680 1.368 . S
H665 C673 0.950 . S
H666 C671 0.950 . S
H667 C672 0.949 . S
H668 C674 0.950 . S
H669 C675 0.950 . S
H670 C676 0.949 . S
C671 H666 0.950 . S
C671 C673 1.327 . S
C671 C677 1.429 . S
C672 C664 1.574 . S
C672 H667 0.949 . S
C672 C678 1.368 . S
C673 C657 1.349 . S
C673 H665 0.950 . S
C673 C671 1.327 . S
C674 C662 1.349 . S
C674 H668 0.950 . S
C674 C675 1.327 . S
C675 H669 0.950 . S
C675 C674 1.327 . S
C675 C679 1.429 . S
C676 C659 1.574 . S
C676 H670 0.949 . S
C676 C680 1.368 . S
C677 C658 1.429 . S
C677 C671 1.429 . S
C677 C678 1.523 . S
C678 C659 1.368 . S
C678 C672 1.368 . S
C678 C677 1.523 . S
C679 C663 1.429 . S
C679 C675 1.429 . S
C679 C680 1.523 . S
C680 C664 1.368 . S
C680 C676 1.368 . S
C680 C679 1.523 . S
H681 C656 0.950 . S
H682 C658 0.950 . S
H683 C659 0.949 . S
H684 C661 0.950 . S
H685 C663 0.950 . S
C686 C687 1.349 . S
C686 C688 1.327 . S
C686 H711 0.950 . S
C687 C686 1.349 . S
C687 C703 1.349 . S
C688 C686 1.327 . S
C688 C707 1.429 . S
C688 H712 0.950 . S
C689 C706 1.574 . S
C689 C708 1.368 . S
C689 H713 0.949 . S
H690 C694 0.949 . S
C691 C692 1.349 . S
C691 C693 1.327 . S
C691 H714 0.950 . S
C692 C691 1.349 . S
C692 C704 1.349 . S
C693 C691 1.327 . S
C693 C709 1.429 . S
C693 H715 0.950 . S
C694 H690 0.949 . S
C694 C702 1.574 . S
C694 C710 1.368 . S
H695 C703 0.950 . S
H696 C701 0.950 . S
H697 C702 0.949 . S
H698 C704 0.950 . S
H699 C705 0.950 . S
H700 C706 0.949 . S
C701 H696 0.950 . S
C701 C703 1.327 . S
C701 C707 1.429 . S
C702 C694 1.574 . S
C702 H697 0.949 . S
C702 C708 1.368 . S
C703 C687 1.349 . S
C703 H695 0.950 . S
C703 C701 1.327 . S
C704 C692 1.349 . S
C704 H698 0.950 . S
C704 C705 1.327 . S
C705 H699 0.950 . S
C705 C704 1.327 . S
C705 C709 1.429 . S
C706 C689 1.574 . S
C706 H700 0.949 . S
C706 C710 1.368 . S
C707 C688 1.429 . S
C707 C701 1.429 . S
C707 C708 1.523 . S
C708 C689 1.368 . S
C708 C702 1.368 . S
C708 C707 1.523 . S
C709 C693 1.429 . S
C709 C705 1.429 . S
C709 C710 1.523 . S
C710 C694 1.368 . S
C710 C706 1.368 . S
C710 C709 1.523 . S
H711 C686 0.950 . S
H712 C688 0.950 . S
H713 C689 0.949 . S
H714 C691 0.950 . S
H715 C693 0.950 . S
C716 C717 1.349 . S
C716 C718 1.327 . S
C716 H741 0.950 . S
C717 C716 1.349 . S
C717 C733 1.349 . S
C718 C716 1.327 . S
C718 C737 1.429 . S
C718 H742 0.950 . S
C719 C736 1.574 . S
C719 C738 1.368 . S
C719 H743 0.949 . S
H720 C724 0.949 . S
C721 C722 1.349 . S
C721 C723 1.327 . S
C721 H744 0.950 . S
C722 C721 1.349 . S
C722 C734 1.349 . S
C723 C721 1.327 . S
C723 C739 1.429 . S
C723 H745 0.950 . S
C724 H720 0.949 . S
C724 C732 1.574 . S
C724 C740 1.368 . S
H725 C733 0.950 . S
H726 C731 0.950 . S
H727 C732 0.949 . S
H728 C734 0.950 . S
H729 C735 0.950 . S
H730 C736 0.949 . S
C731 H726 0.950 . S
C731 C733 1.327 . S
C731 C737 1.429 . S
C732 C724 1.574 . S
C732 H727 0.949 . S
C732 C738 1.368 . S
C733 C717 1.349 . S
C733 H725 0.950 . S
C733 C731 1.327 . S
C734 C722 1.349 . S
C734 H728 0.950 . S
C734 C735 1.327 . S
C735 H729 0.950 . S
C735 C734 1.327 . S
C735 C739 1.429 . S
C736 C719 1.574 . S
C736 H730 0.949 . S
C736 C740 1.368 . S
C737 C718 1.429 . S
C737 C731 1.429 . S
C737 C738 1.523 . S
C738 C719 1.368 . S
C738 C732 1.368 . S
C738 C737 1.523 . S
C739 C723 1.429 . S
C739 C735 1.429 . S
C739 C740 1.523 . S
C740 C724 1.368 . S
C740 C736 1.368 . S
C740 C739 1.523 . S
H741 C716 0.950 . S
H742 C718 0.950 . S
H743 C719 0.949 . S
H744 C721 0.950 . S
H745 C723 0.950 . S
C746 C747 1.349 . S
C746 C748 1.327 . S
C746 H771 0.950 . S
C747 C746 1.349 . S
C747 C763 1.349 . S
C748 C746 1.327 . S
C748 C767 1.429 . S
C748 H772 0.950 . S
C749 C766 1.574 . S
C749 C768 1.368 . S
C749 H773 0.949 . S
H750 C754 0.949 . S
C751 C752 1.349 . S
C751 C753 1.327 . S
C751 H774 0.950 . S
C752 C751 1.349 . S
C752 C764 1.349 . S
C753 C751 1.327 . S
C753 C769 1.429 . S
C753 H775 0.950 . S
C754 H750 0.949 . S
C754 C762 1.574 . S
C754 C770 1.368 . S
H755 C763 0.950 . S
H756 C761 0.950 . S
H757 C762 0.949 . S
H758 C764 0.950 . S
H759 C765 0.950 . S
H760 C766 0.949 . S
C761 H756 0.950 . S
C761 C763 1.327 . S
C761 C767 1.429 . S
C762 C754 1.574 . S
C762 H757 0.949 . S
C762 C768 1.368 . S
C763 C747 1.349 . S
C763 H755 0.950 . S
C763 C761 1.327 . S
C764 C752 1.349 . S
C764 H758 0.950 . S
C764 C765 1.327 . S
C765 H759 0.950 . S
C765 C764 1.327 . S
C765 C769 1.429 . S
C766 C749 1.574 . S
C766 H760 0.949 . S
C766 C770 1.368 . S
C767 C748 1.429 . S
C767 C761 1.429 . S
C767 C768 1.523 . S
C768 C749 1.368 . S
C768 C762 1.368 . S
C768 C767 1.523 . S
C769 C753 1.429 . S
C769 C765 1.429 . S
C769 C770 1.523 . S
C770 C754 1.368 . S
C770 C766 1.368 . S
C770 C769 1.523 . S
H771 C746 0.950 . S
H772 C748 0.950 . S
H773 C749 0.949 . S
H774 C751 0.950 . S
H775 C753 0.950 . S
C776 C777 1.349 . S
C776 C778 1.327 . S
C776 H801 0.950 . S
C777 C776 1.349 . S
C777 C793 1.349 . S
C778 C776 1.327 . S
C778 C797 1.429 . S
C778 H802 0.950 . S
C779 C796 1.574 . S
C779 C798 1.368 1_565 S
C779 H803 0.949 . S
H780 C784 0.949 . S
C781 C782 1.349 . S
C781 C783 1.327 . S
C781 H804 0.950 . S
C782 C781 1.349 . S
C782 C794 1.349 . S
C783 C781 1.327 . S
C783 C799 1.429 . S
C783 H805 0.950 . S
C784 H780 0.949 . S
C784 C792 1.574 . S
C784 C800 1.368 1_545 S
H785 C793 0.950 . S
H786 C791 0.950 1_565 S
H787 C792 0.949 . S
H788 C794 0.950 . S
H789 C795 0.950 1_545 S
H790 C796 0.949 . S
C791 H786 0.950 1_545 S
C791 C793 1.327 . S
C791 C797 1.429 . S
C792 C784 1.574 . S
C792 H787 0.949 . S
C792 C798 1.368 . S
C793 C777 1.349 . S
C793 H785 0.950 . S
C793 C791 1.327 . S
C794 C782 1.349 . S
C794 H788 0.950 . S
C794 C795 1.327 . S
C795 H789 0.950 1_565 S
C795 C794 1.327 . S
C795 C799 1.429 . S
C796 C779 1.574 . S
C796 H790 0.949 . S
C796 C800 1.368 . S
C797 C778 1.429 . S
C797 C791 1.429 . S
C797 C798 1.523 . S
C798 C779 1.368 1_545 S
C798 C792 1.368 . S
C798 C797 1.523 . S
C799 C783 1.429 . S
C799 C795 1.429 . S
C799 C800 1.523 . S
C800 C784 1.368 1_565 S
C800 C796 1.368 . S
C800 C799 1.523 . S
H801 C776 0.950 . S
H802 C778 0.950 . S
H803 C779 0.949 . S
H804 C781 0.950 . S
H805 C783 0.950 . S
C806 C807 1.349 . S
C806 C808 1.327 . S
C806 H831 0.950 . S
C807 C806 1.349 . S
C807 C823 1.349 . S
C808 C806 1.327 . S
C808 C827 1.429 . S
C808 H832 0.950 . S
C809 C826 1.574 1_655 S
C809 C828 1.368 1_565 S
C809 H833 0.949 . S
H810 C814 0.949 . S
C811 C812 1.349 . S
C811 C813 1.327 . S
C811 H834 0.950 . S
C812 C811 1.349 . S
C812 C824 1.349 . S
C813 C811 1.327 . S
C813 C829 1.429 . S
C813 H835 0.950 . S
C814 H810 0.949 . S
C814 C822 1.574 1_455 S
C814 C830 1.368 1_545 S
H815 C823 0.950 1_565 S
H816 C821 0.950 . S
H817 C822 0.949 . S
H818 C824 0.950 1_545 S
H819 C825 0.950 . S
H820 C826 0.949 . S
C821 H816 0.950 . S
C821 C823 1.327 1_565 S
C821 C827 1.429 1_565 S
C822 C814 1.574 1_655 S
C822 H817 0.949 . S
C822 C828 1.368 . S
C823 C807 1.349 . S
C823 H815 0.950 1_545 S
C823 C821 1.327 1_545 S
C824 C812 1.349 . S
C824 H818 0.950 1_565 S
C824 C825 1.327 1_565 S
C825 H819 0.950 . S
C825 C824 1.327 1_545 S
C825 C829 1.429 1_545 S
C826 C809 1.574 1_455 S
C826 H820 0.949 . S
C826 C830 1.368 . S
C827 C808 1.429 . S
C827 C821 1.429 1_545 S
C827 C828 1.523 . S
C828 C809 1.368 1_545 S
C828 C822 1.368 . S
C828 C827 1.523 . S
C829 C813 1.429 . S
C829 C825 1.429 1_565 S
C829 C830 1.523 . S
C830 C814 1.368 1_565 S
C830 C826 1.368 . S
C830 C829 1.523 . S
H831 C806 0.950 . S
H832 C808 0.950 . S
H833 C809 0.949 . S
H834 C811 0.950 . S
H835 C813 0.950 . S
C836 C837 1.349 . S
C836 C838 1.327 . S
C836 H861 0.950 . S
C837 C836 1.349 . S
C837 C853 1.349 . S
C838 C836 1.327 . S
C838 C857 1.429 . S
C838 H862 0.950 . S
C839 C856 1.574 . S
C839 C858 1.368 1_565 S
C839 H863 0.949 . S
H840 C844 0.949 . S
C841 C842 1.349 . S
C841 C843 1.327 . S
C841 H864 0.950 . S
C842 C841 1.349 . S
C842 C854 1.349 . S
C843 C841 1.327 . S
C843 C859 1.429 . S
C843 H865 0.950 . S
C844 H840 0.949 . S
C844 C852 1.574 . S
C844 C860 1.368 1_545 S
H845 C853 0.950 1_565 S
H846 C851 0.950 . S
H847 C852 0.949 . S
H848 C854 0.950 1_545 S
H849 C855 0.950 . S
H850 C856 0.949 . S
C851 H846 0.950 . S
C851 C853 1.327 1_565 S
C851 C857 1.429 1_565 S
C852 C844 1.574 . S
C852 H847 0.949 . S
C852 C858 1.368 . S
C853 C837 1.349 . S
C853 H845 0.950 1_545 S
C853 C851 1.327 1_545 S
C854 C842 1.349 . S
C854 H848 0.950 1_565 S
C854 C855 1.327 1_565 S
C855 H849 0.950 . S
C855 C854 1.327 1_545 S
C855 C859 1.429 1_545 S
C856 C839 1.574 . S
C856 H850 0.949 . S
C856 C860 1.368 . S
C857 C838 1.429 . S
C857 C851 1.429 1_545 S
C857 C858 1.523 . S
C858 C839 1.368 1_545 S
C858 C852 1.368 . S
C858 C857 1.523 . S
C859 C843 1.429 . S
C859 C855 1.429 1_565 S
C859 C860 1.523 . S
C860 C844 1.368 1_565 S
C860 C856 1.368 . S
C860 C859 1.523 . S
H861 C836 0.950 . S
H862 C838 0.950 . S
H863 C839 0.949 . S
H864 C841 0.950 . S
H865 C843 0.950 . S
C866 C867 1.349 . S
C866 C868 1.327 . S
C866 H891 0.950 . S
C867 C866 1.349 . S
C867 C883 1.349 . S
C868 C866 1.327 . S
C868 C887 1.429 . S
C868 H892 0.950 . S
C869 C886 1.574 1_455 S
C869 C888 1.368 1_565 S
C869 H893 0.949 . S
H870 C874 0.949 . S
C871 C872 1.349 . S
C871 C873 1.327 . S
C871 H894 0.950 . S
C872 C871 1.349 . S
C872 C884 1.349 . S
C873 C871 1.327 . S
C873 C889 1.429 . S
C873 H895 0.950 . S
C874 H870 0.949 . S
C874 C882 1.574 1_655 S
C874 C890 1.368 1_545 S
H875 C883 0.981 . S
H876 C881 0.950 1_565 S
H877 C882 0.949 . S
H878 C884 0.950 . S
H879 C885 0.950 1_545 S
H880 C886 0.949 . S
C881 H876 0.950 1_545 S
C881 C883 1.327 . S
C881 C887 1.429 . S
C882 C874 1.574 1_455 S
C882 H877 0.949 . S
C882 C888 1.368 . S
C883 C867 1.349 . S
C883 H875 0.981 . S
C883 C881 1.327 . S
C884 C872 1.349 . S
C884 H878 0.950 . S
C884 C885 1.327 . S
C885 H879 0.950 1_565 S
C885 C884 1.327 . S
C885 C889 1.429 . S
C886 C869 1.574 1_655 S
C886 H880 0.949 . S
C886 C890 1.368 . S
C887 C868 1.429 . S
C887 C881 1.429 . S
C887 C888 1.523 . S
C888 C869 1.368 1_545 S
C888 C882 1.368 . S
C888 C887 1.523 . S
C889 C873 1.429 . S
C889 C885 1.429 . S
C889 C890 1.523 . S
C890 C874 1.368 1_565 S
C890 C886 1.368 . S
C890 C889 1.523 . S
H891 C866 0.950 . S
H892 C868 0.950 . S
H893 C869 0.949 . S
H894 C871 0.950 . S
H895 C873 0.950 . S
C896 C897 1.349 . S
C896 C898 1.327 . S
C896 H921 0.950 . S
C897 C896 1.349 . S
C897 C913 1.349 . S
C898 C896 1.327 . S
C898 C917 1.429 . S
C898 H922 0.950 . S
C899 C916 1.574 . S
C899 C918 1.368 . S
C899 H923 0.949 . S
H900 C904 0.949 . S
C901 C902 1.349 . S
C901 C903 1.327 . S
C901 H924 0.950 . S
C902 C901 1.349 . S
C902 C914 1.349 . S
C903 C901 1.327 . S
C903 C919 1.429 . S
C903 H925 0.950 . S
C904 H900 0.949 . S
C904 C912 1.574 . S
C904 C920 1.368 . S
H905 C913 0.950 . S
H906 C911 0.950 . S
H907 C912 0.949 . S
H908 C914 0.950 . S
H909 C915 0.950 . S
H910 C916 0.949 . S
C911 H906 0.950 . S
C911 C913 1.327 . S
C911 C917 1.429 . S
C912 C904 1.574 . S
C912 H907 0.949 . S
C912 C918 1.368 . S
C913 C897 1.349 . S
C913 H905 0.950 . S
C913 C911 1.327 . S
C914 C902 1.349 . S
C914 H908 0.950 . S
C914 C915 1.327 . S
C915 H909 0.950 . S
C915 C914 1.327 . S
C915 C919 1.429 . S
C916 C899 1.574 . S
C916 H910 0.949 . S
C916 C920 1.368 . S
C917 C898 1.429 . S
C917 C911 1.429 . S
C917 C918 1.523 . S
C918 C899 1.368 . S
C918 C912 1.368 . S
C918 C917 1.523 . S
C919 C903 1.429 . S
C919 C915 1.429 . S
C919 C920 1.523 . S
C920 C904 1.368 . S
C920 C916 1.368 . S
C920 C919 1.523 . S
H921 C896 0.950 . S
H922 C898 0.950 . S
H923 C899 0.949 . S
H924 C901 0.950 . S
H925 C903 0.950 . S
C926 C927 1.349 . S
C926 C928 1.327 . S
C926 H951 0.950 . S
C927 C926 1.349 . S
C927 C943 1.349 . S
C928 C926 1.327 . S
C928 C947 1.429 . S
C928 H952 0.950 . S
C929 C946 1.574 . S
C929 C948 1.368 . S
C929 H953 0.949 . S
H930 C934 0.949 . S
C931 C932 1.349 . S
C931 C933 1.327 . S
C931 H954 0.950 . S
C932 C931 1.349 . S
C932 C944 1.349 . S
C933 C931 1.327 . S
C933 C949 1.429 . S
C933 H955 0.950 . S
C934 H930 0.949 . S
C934 C942 1.574 . S
C934 C950 1.368 . S
H935 C943 0.950 . S
H936 C941 0.950 . S
H937 C942 0.949 . S
H938 C944 0.950 . S
H939 C945 0.950 . S
H940 C946 0.949 . S
C941 H936 0.950 . S
C941 C943 1.327 . S
C941 C947 1.429 . S
C942 C934 1.574 . S
C942 H937 0.949 . S
C942 C948 1.368 . S
C943 C927 1.349 . S
C943 H935 0.950 . S
C943 C941 1.327 . S
C944 C932 1.349 . S
C944 H938 0.950 . S
C944 C945 1.327 . S
C945 H939 0.950 . S
C945 C944 1.327 . S
C945 C949 1.429 . S
C946 C929 1.574 . S
C946 H940 0.949 . S
C946 C950 1.368 . S
C947 C928 1.429 . S
C947 C941 1.429 . S
C947 C948 1.523 1_556 S
C948 C929 1.368 . S
C948 C942 1.368 . S
C948 C947 1.523 1_554 S
C949 C933 1.429 . S
C949 C945 1.429 . S
C949 C950 1.523 . S
C950 C934 1.368 . S
C950 C946 1.368 . S
C950 C949 1.523 . S
H951 C926 0.950 . S
H952 C928 0.950 . S
H953 C929 0.949 . S
H954 C931 0.950 . S
H955 C933 0.950 . S
C956 C957 1.349 . S
C956 C958 1.327 . S
C956 H981 0.950 . S
C957 C956 1.349 . S
C957 C973 1.349 . S
C958 C956 1.327 . S
C958 C977 1.429 . S
C958 H982 0.950 . S
C959 C976 1.574 . S
C959 C978 1.368 . S
C959 H983 0.949 . S
H960 C964 0.949 . S
C961 C962 1.349 . S
C961 C963 1.327 . S
C961 H984 0.950 . S
C962 C961 1.349 . S
C962 C974 1.349 . S
C963 C961 1.327 . S
C963 C979 1.429 . S
C963 H985 0.950 . S
C964 H960 0.949 . S
C964 C972 1.574 . S
C964 C980 1.368 . S
H965 C973 0.950 . S
H966 C971 0.950 . S
H967 C972 0.949 . S
H968 C974 0.950 . S
H969 C975 0.950 . S
H970 C976 0.949 . S
C971 H966 0.950 . S
C971 C973 1.327 . S
C971 C977 1.429 . S
C972 C964 1.574 . S
C972 H967 0.949 . S
C972 C978 1.368 . S
C973 C957 1.349 . S
C973 H965 0.950 . S
C973 C971 1.327 . S
C974 C962 1.349 . S
C974 H968 0.950 . S
C974 C975 1.327 . S
C975 H969 0.950 . S
C975 C974 1.327 . S
C975 C979 1.429 . S
C976 C959 1.574 . S
C976 H970 0.949 . S
C976 C980 1.368 . S
C977 C958 1.429 . S
C977 C971 1.429 . S
C977 C978 1.523 . S
C978 C959 1.368 . S
C978 C972 1.368 . S
C978 C977 1.523 . S
C979 C963 1.429 . S
C979 C975 1.429 . S
C979 C980 1.523 . S
C980 C964 1.368 . S
C980 C976 1.368 . S
C980 C979 1.523 . S
H981 C956 0.950 . S
H982 C958 0.950 . S
H983 C959 0.949 . S
H984 C961 0.950 . S
H985 C963 0.950 . S
C986 C987 1.349 . S
C986 C988 1.327 . S
C986 H1011 0.950 . S
C987 C986 1.349 . S
C987 C1003 1.349 . S
C988 C986 1.327 . S
C988 C1007 1.429 . S
C988 H1012 0.950 . S
C989 C1006 1.574 . S
C989 C1008 1.368 . S
C989 H1013 0.949 . S
H990 C994 0.949 . S
C991 C992 1.349 . S
C991 C993 1.327 . S
C991 H1014 0.950 . S
C992 C991 1.349 . S
C992 C1004 1.349 . S
C993 C991 1.327 . S
C993 C1009 1.429 . S
C993 H1015 0.950 . S
C994 H990 0.949 . S
C994 C1002 1.574 . S
C994 C1010 1.368 . S
H995 C1003 0.950 . S
H996 C1001 0.950 . S
H997 C1002 0.949 . S
H998 C1004 0.950 . S
H999 C1005 0.950 . S
H1000 C1006 0.949 . S
C1001 H996 0.950 . S
C1001 C1003 1.327 . S
C1001 C1007 1.429 . S
C1002 C994 1.574 . S
C1002 H997 0.949 . S
C1002 C1008 1.368 . S
C1003 C987 1.349 . S
C1003 H995 0.950 . S
C1003 C1001 1.327 . S
C1004 C992 1.349 . S
C1004 H998 0.950 . S
C1004 C1005 1.327 . S
C1005 H999 0.950 . S
C1005 C1004 1.327 . S
C1005 C1009 1.429 . S
C1006 C989 1.574 . S
C1006 H1000 0.949 . S
C1006 C1010 1.368 . S
C1007 C988 1.429 . S
C1007 C1001 1.429 . S
C1007 C1008 1.523 . S
C1008 C989 1.368 . S
C1008 C1002 1.368 . S
C1008 C1007 1.523 . S
C1009 C993 1.429 . S
C1009 C1005 1.429 . S
C1009 C1010 1.523 . S
C1010 C994 1.368 . S
C1010 C1006 1.368 . S
C1010 C1009 1.523 . S
H1011 C986 0.950 . S
H1012 C988 0.950 . S
H1013 C989 0.949 . S
H1014 C991 0.950 . S
H1015 C993 0.950 . S
C1016 C1017 1.349 . S
C1016 C1018 1.327 . S
C1016 H1041 0.950 . S
C1017 C1016 1.349 . S
C1017 C1033 1.349 . S
C1018 C1016 1.327 . S
C1018 C1037 1.429 . S
C1018 H1042 0.950 . S
C1019 C1036 1.574 . S
C1019 C1038 1.368 . S
C1019 H1043 0.949 . S
H1020 C1024 0.949 . S
C1021 C1022 1.349 . S
C1021 C1023 1.327 . S
C1021 H1044 0.950 . S
C1022 C1021 1.349 . S
C1022 C1034 1.349 . S
C1023 C1021 1.327 . S
C1023 C1039 1.429 . S
C1023 H1045 0.950 . S
C1024 H1020 0.949 . S
C1024 C1032 1.574 . S
C1024 C1040 1.368 . S
H1025 C1033 0.950 . S
H1026 C1031 0.950 . S
H1027 C1032 0.949 . S
H1028 C1034 0.950 . S
H1029 C1035 0.950 . S
H1030 C1036 0.949 . S
C1031 H1026 0.950 . S
C1031 C1033 1.327 . S
C1031 C1037 1.429 . S
C1032 C1024 1.574 . S
C1032 H1027 0.949 . S
C1032 C1038 1.368 . S
C1033 C1017 1.349 . S
C1033 H1025 0.950 . S
C1033 C1031 1.327 . S
C1034 C1022 1.349 . S
C1034 H1028 0.950 . S
C1034 C1035 1.327 . S
C1035 H1029 0.950 . S
C1035 C1034 1.327 . S
C1035 C1039 1.429 . S
C1036 C1019 1.574 . S
C1036 H1030 0.949 . S
C1036 C1040 1.368 . S
C1037 C1018 1.429 . S
C1037 C1031 1.429 . S
C1037 C1038 1.523 . S
C1038 C1019 1.368 . S
C1038 C1032 1.368 . S
C1038 C1037 1.523 . S
C1039 C1023 1.429 . S
C1039 C1035 1.429 . S
C1039 C1040 1.523 . S
C1040 C1024 1.368 . S
C1040 C1036 1.368 . S
C1040 C1039 1.523 . S
H1041 C1016 0.950 . S
H1042 C1018 0.950 . S
H1043 C1019 0.949 . S
H1044 C1021 0.950 . S
H1045 C1023 0.950 . S
C1046 C1047 1.349 . S
C1046 C1048 1.327 . S
C1046 H1071 0.950 . S
C1047 C1046 1.349 . S
C1047 C1063 1.349 . S
C1048 C1046 1.327 . S
C1048 C1067 1.429 . S
C1048 H1072 0.950 . S
C1049 C1066 1.574 . S
C1049 C1068 1.368 . S
C1049 H1073 0.949 . S
H1050 C1054 0.949 . S
C1051 C1052 1.349 . S
C1051 C1053 1.327 . S
C1051 H1074 0.950 . S
C1052 C1051 1.349 . S
C1052 C1064 1.349 . S
C1053 C1051 1.327 . S
C1053 C1069 1.429 . S
C1053 H1075 0.950 . S
C1054 H1050 0.949 . S
C1054 C1062 1.574 . S
C1054 C1070 1.368 . S
H1055 C1063 0.950 . S
H1056 C1061 0.950 . S
H1057 C1062 0.949 . S
H1058 C1064 0.950 . S
H1059 C1065 0.950 . S
H1060 C1066 0.949 . S
C1061 H1056 0.950 . S
C1061 C1063 1.327 . S
C1061 C1067 1.429 . S
C1062 C1054 1.574 . S
C1062 H1057 0.949 . S
C1062 C1068 1.368 . S
C1063 C1047 1.349 . S
C1063 H1055 0.950 . S
C1063 C1061 1.327 . S
C1064 C1052 1.349 . S
C1064 H1058 0.950 . S
C1064 C1065 1.327 . S
C1065 H1059 0.950 . S
C1065 C1064 1.327 . S
C1065 C1069 1.429 . S
C1066 C1049 1.574 . S
C1066 H1060 0.949 . S
C1066 C1070 1.368 . S
C1067 C1048 1.429 . S
C1067 C1061 1.429 . S
C1067 C1068 1.523 1_556 S
C1068 C1049 1.368 . S
C1068 C1062 1.368 . S
C1068 C1067 1.523 1_554 S
C1069 C1053 1.429 . S
C1069 C1065 1.429 . S
C1069 C1070 1.523 . S
C1070 C1054 1.368 . S
C1070 C1066 1.368 . S
C1070 C1069 1.523 . S
H1071 C1046 0.950 . S
H1072 C1048 0.950 . S
H1073 C1049 0.949 . S
H1074 C1051 0.950 . S
H1075 C1053 0.950 . S
C1076 C1077 1.349 . S
C1076 C1078 1.327 . S
C1076 H1101 0.950 . S
C1077 C1076 1.349 . S
C1077 C1093 1.349 . S
C1078 C1076 1.327 . S
C1078 C1097 1.429 . S
C1078 H1102 0.950 . S
C1079 C1096 1.574 . S
C1079 C1098 1.368 . S
C1079 H1103 0.949 . S
H1080 C1084 0.949 . S
C1081 C1082 1.349 . S
C1081 C1083 1.327 . S
C1081 H1104 0.950 . S
C1082 C1081 1.349 . S
C1082 C1094 1.349 . S
C1083 C1081 1.327 . S
C1083 C1099 1.429 . S
C1083 H1105 0.950 . S
C1084 H1080 0.949 . S
C1084 C1092 1.574 . S
C1084 C1100 1.368 . S
H1085 C1093 0.950 . S
H1086 C1091 0.950 . S
H1087 C1092 0.949 . S
H1088 C1094 0.950 . S
H1089 C1095 0.950 . S
H1090 C1096 0.949 . S
C1091 H1086 0.950 . S
C1091 C1093 1.327 . S
C1091 C1097 1.429 . S
C1092 C1084 1.574 . S
C1092 H1087 0.949 . S
C1092 C1098 1.368 . S
C1093 C1077 1.349 . S
C1093 H1085 0.950 . S
C1093 C1091 1.327 . S
C1094 C1082 1.349 . S
C1094 H1088 0.950 . S
C1094 C1095 1.327 . S
C1095 H1089 0.950 . S
C1095 C1094 1.327 . S
C1095 C1099 1.429 . S
C1096 C1079 1.574 . S
C1096 H1090 0.949 . S
C1096 C1100 1.368 . S
C1097 C1078 1.429 . S
C1097 C1091 1.429 . S
C1097 C1098 1.523 . S
C1098 C1079 1.368 . S
C1098 C1092 1.368 . S
C1098 C1097 1.523 . S
C1099 C1083 1.429 . S
C1099 C1095 1.429 . S
C1099 C1100 1.523 . S
C1100 C1084 1.368 . S
C1100 C1096 1.368 . S
C1100 C1099 1.523 . S
H1101 C1076 0.950 . S
H1102 C1078 0.950 . S
H1103 C1079 0.949 . S
H1104 C1081 0.950 . S
H1105 C1083 0.950 . S
C1106 C1107 1.349 . S
C1106 C1108 1.327 . S
C1106 H1131 0.950 . S
C1107 C1106 1.349 . S
C1107 C1123 1.349 . S
C1108 C1106 1.327 . S
C1108 C1127 1.429 . S
C1108 H1132 0.950 . S
C1109 C1126 1.574 . S
C1109 C1128 1.368 . S
C1109 H1133 0.949 . S
H1110 C1114 0.949 . S
C1111 C1112 1.349 . S
C1111 C1113 1.327 . S
C1111 H1134 0.950 . S
C1112 C1111 1.349 . S
C1112 C1124 1.349 . S
C1113 C1111 1.327 . S
C1113 C1129 1.429 . S
C1113 H1135 0.950 . S
C1114 H1110 0.949 . S
C1114 C1122 1.574 . S
C1114 C1130 1.368 . S
H1115 C1123 0.950 . S
H1116 C1121 0.950 . S
H1117 C1122 0.949 . S
H1118 C1124 0.950 . S
H1119 C1125 0.950 . S
H1120 C1126 0.949 . S
C1121 H1116 0.950 . S
C1121 C1123 1.327 . S
C1121 C1127 1.429 . S
C1122 C1114 1.574 . S
C1122 H1117 0.949 . S
C1122 C1128 1.368 . S
C1123 C1107 1.349 . S
C1123 H1115 0.950 . S
C1123 C1121 1.327 . S
C1124 C1112 1.349 . S
C1124 H1118 0.950 . S
C1124 C1125 1.327 . S
C1125 H1119 0.950 . S
C1125 C1124 1.327 . S
C1125 C1129 1.429 . S
C1126 C1109 1.574 . S
C1126 H1120 0.949 . S
C1126 C1130 1.368 . S
C1127 C1108 1.429 . S
C1127 C1121 1.429 . S
C1127 C1128 1.523 . S
C1128 C1109 1.368 . S
C1128 C1122 1.368 . S
C1128 C1127 1.523 . S
C1129 C1113 1.429 . S
C1129 C1125 1.429 . S
C1129 C1130 1.523 . S
C1130 C1114 1.368 . S
C1130 C1126 1.368 . S
C1130 C1129 1.523 . S
H1131 C1106 0.950 . S
H1132 C1108 0.950 . S
H1133 C1109 0.949 . S
H1134 C1111 0.950 . S
H1135 C1113 0.950 . S
C1136 C1137 1.349 . S
C1136 C1138 1.327 . S
C1136 H1161 0.950 . S
C1137 C1136 1.349 . S
C1137 C1153 1.349 1_545 S
C1138 C1136 1.327 . S
C1138 C1157 1.429 . S
C1138 H1162 0.950 . S
C1139 C1156 1.574 . S
C1139 C1158 1.368 1_565 S
C1139 H1163 0.949 . S
H1140 C1144 0.949 . S
C1141 C1142 1.349 . S
C1141 C1143 1.327 . S
C1141 H1164 0.950 . S
C1142 C1141 1.349 . S
C1142 C1154 1.349 1_565 S
C1143 C1141 1.327 . S
C1143 C1159 1.429 . S
C1143 H1165 0.950 . S
C1144 H1140 0.949 . S
C1144 C1152 1.574 . S
C1144 C1160 1.368 1_545 S
H1145 C1153 0.950 . S
H1146 C1151 0.950 . S
H1147 C1152 0.949 . S
H1148 C1154 0.950 . S
H1149 C1155 0.950 . S
H1150 C1156 0.949 . S
C1151 H1146 0.950 . S
C1151 C1153 1.327 . S
C1151 C1157 1.429 1_565 S
C1152 C1144 1.574 . S
C1152 H1147 0.949 . S
C1152 C1158 1.368 . S
C1153 C1137 1.349 1_565 S
C1153 H1145 0.950 . S
C1153 C1151 1.327 . S
C1154 C1142 1.349 1_545 S
C1154 H1148 0.950 . S
C1154 C1155 1.327 . S
C1155 H1149 0.950 . S
C1155 C1154 1.327 . S
C1155 C1159 1.429 1_545 S
C1156 C1139 1.574 . S
C1156 H1150 0.949 . S
C1156 C1160 1.368 . S
C1157 C1138 1.429 . S
C1157 C1151 1.429 1_545 S
C1157 C1158 1.523 . S
C1158 C1139 1.368 1_545 S
C1158 C1152 1.368 . S
C1158 C1157 1.523 . S
C1159 C1143 1.429 . S
C1159 C1155 1.429 1_565 S
C1159 C1160 1.523 . S
C1160 C1144 1.368 1_565 S
C1160 C1156 1.368 . S
C1160 C1159 1.523 . S
H1161 C1136 0.950 . S
H1162 C1138 0.950 . S
H1163 C1139 0.949 . S
H1164 C1141 0.950 . S
H1165 C1143 0.950 . S
C1166 C1167 1.349 . S
C1166 C1168 1.327 . S
C1166 H1191 0.950 . S
C1167 C1166 1.349 . S
C1167 C1183 1.349 . S
C1168 C1166 1.327 . S
C1168 C1187 1.429 . S
C1168 H1192 0.950 . S
C1169 C1186 1.574 . S
C1169 C1188 1.368 . S
C1169 H1193 0.949 . S
H1170 C1174 0.949 . S
C1171 C1172 1.349 . S
C1171 C1173 1.327 . S
C1171 H1194 0.950 . S
C1172 C1171 1.349 . S
C1172 C1184 1.349 . S
C1173 C1171 1.327 . S
C1173 C1189 1.429 . S
C1173 H1195 0.950 . S
C1174 H1170 0.949 . S
C1174 C1182 1.574 . S
C1174 C1190 1.368 . S
H1175 C1183 0.950 . S
H1176 C1181 0.950 . S
H1177 C1182 0.949 . S
H1178 C1184 0.950 . S
H1179 C1185 0.950 . S
H1180 C1186 0.949 . S
C1181 H1176 0.950 . S
C1181 C1183 1.327 . S
C1181 C1187 1.429 . S
C1182 C1174 1.574 . S
C1182 H1177 0.949 . S
C1182 C1188 1.368 . S
C1183 C1167 1.349 . S
C1183 H1175 0.950 . S
C1183 C1181 1.327 . S
C1184 C1172 1.349 . S
C1184 H1178 0.950 . S
C1184 C1185 1.327 . S
C1185 H1179 0.950 . S
C1185 C1184 1.327 . S
C1185 C1189 1.429 . S
C1186 C1169 1.574 . S
C1186 H1180 0.949 . S
C1186 C1190 1.368 . S
C1187 C1168 1.429 . S
C1187 C1181 1.429 . S
C1187 C1188 1.523 . S
C1188 C1169 1.368 . S
C1188 C1182 1.368 . S
C1188 C1187 1.523 . S
C1189 C1173 1.429 . S
C1189 C1185 1.429 . S
C1189 C1190 1.523 . S
C1190 C1174 1.368 . S
C1190 C1186 1.368 . S
C1190 C1189 1.523 . S
H1191 C1166 0.950 . S
H1192 C1168 0.950 . S
H1193 C1169 0.949 . S
H1194 C1171 0.950 . S
H1195 C1173 0.950 . S
C1196 C1197 1.349 . S
C1196 C1198 1.327 . S
C1196 H1221 0.950 . S
C1197 C1196 1.349 . S
C1197 C1213 1.349 1_545 S
C1198 C1196 1.327 . S
C1198 C1217 1.429 . S
C1198 H1222 0.950 . S
C1199 C1216 1.574 . S
C1199 C1218 1.368 1_565 S
C1199 H1223 0.949 . S
H1200 C1204 0.949 . S
C1201 C1202 1.349 . S
C1201 C1203 1.327 . S
C1201 H1224 0.950 . S
C1202 C1201 1.349 . S
C1202 C1214 1.349 1_565 S
C1203 C1201 1.327 . S
C1203 C1219 1.429 . S
C1203 H1225 0.950 . S
C1204 H1200 0.949 . S
C1204 C1212 1.574 . S
C1204 C1220 1.368 1_545 S
H1205 C1213 0.950 . S
H1206 C1211 0.950 . S
H1207 C1212 0.949 . S
H1208 C1214 0.950 . S
H1209 C1215 0.950 . S
H1210 C1216 0.949 . S
C1211 H1206 0.950 . S
C1211 C1213 1.327 . S
C1211 C1217 1.429 1_565 S
C1212 C1204 1.574 . S
C1212 H1207 0.949 . S
C1212 C1218 1.368 . S
C1213 C1197 1.349 1_565 S
C1213 H1205 0.950 . S
C1213 C1211 1.327 . S
C1214 C1202 1.349 1_545 S
C1214 H1208 0.950 . S
C1214 C1215 1.327 . S
C1215 H1209 0.950 . S
C1215 C1214 1.327 . S
C1215 C1219 1.429 1_545 S
C1216 C1199 1.574 . S
C1216 H1210 0.949 . S
C1216 C1220 1.368 . S
C1217 C1198 1.429 . S
C1217 C1211 1.429 1_545 S
C1217 C1218 1.523 . S
C1218 C1199 1.368 1_545 S
C1218 C1212 1.368 . S
C1218 C1217 1.523 . S
C1219 C1203 1.429 . S
C1219 C1215 1.429 1_565 S
C1219 C1220 1.523 . S
C1220 C1204 1.368 1_565 S
C1220 C1216 1.368 . S
C1220 C1219 1.523 . S
H1221 C1196 0.950 . S
H1222 C1198 0.950 . S
H1223 C1199 0.949 . S
H1224 C1201 0.950 . S
H1225 C1203 0.950 . S
C1226 C1227 1.349 . S
C1226 C1228 1.327 . S
C1226 H1251 0.950 . S
C1227 C1226 1.349 . S
C1227 C1243 1.349 . S
C1228 C1226 1.327 . S
C1228 C1247 1.429 . S
C1228 H1252 0.950 . S
C1229 C1246 1.574 . S
C1229 C1248 1.368 . S
C1229 H1253 0.949 . S
H1230 C1234 0.949 . S
C1231 C1232 1.349 . S
C1231 C1233 1.327 . S
C1231 H1254 0.950 . S
C1232 C1231 1.349 . S
C1232 C1244 1.349 . S
C1233 C1231 1.327 . S
C1233 C1249 1.429 . S
C1233 H1255 0.950 . S
C1234 H1230 0.949 . S
C1234 C1242 1.574 . S
C1234 C1250 1.368 . S
H1235 C1243 0.950 . S
H1236 C1241 0.950 . S
H1237 C1242 0.949 . S
H1238 C1244 0.950 . S
H1239 C1245 0.950 . S
H1240 C1246 0.949 . S
C1241 H1236 0.950 . S
C1241 C1243 1.327 . S
C1241 C1247 1.429 . S
C1242 C1234 1.574 . S
C1242 H1237 0.949 . S
C1242 C1248 1.368 . S
C1243 C1227 1.349 . S
C1243 H1235 0.950 . S
C1243 C1241 1.327 . S
C1244 C1232 1.349 . S
C1244 H1238 0.950 . S
C1244 C1245 1.327 . S
C1245 H1239 0.950 . S
C1245 C1244 1.327 . S
C1245 C1249 1.429 . S
C1246 C1229 1.574 . S
C1246 H1240 0.949 . S
C1246 C1250 1.368 . S
C1247 C1228 1.429 . S
C1247 C1241 1.429 . S
C1247 C1248 1.523 1_556 S
C1248 C1229 1.368 . S
C1248 C1242 1.368 . S
C1248 C1247 1.523 1_554 S
C1249 C1233 1.429 . S
C1249 C1245 1.429 . S
C1249 C1250 1.523 . S
C1250 C1234 1.368 . S
C1250 C1246 1.368 . S
C1250 C1249 1.523 . S
H1251 C1226 0.950 . S
H1252 C1228 0.950 . S
H1253 C1229 0.949 . S
H1254 C1231 0.950 . S
H1255 C1233 0.950 . S
C1256 C1257 1.349 . S
C1256 C1258 1.327 . S
C1256 H1281 0.950 . S
C1257 C1256 1.349 . S
C1257 C1273 1.349 1_565 S
C1258 C1256 1.327 . S
C1258 C1277 1.429 . S
C1258 H1282 0.950 . S
C1259 C1276 1.574 . S
C1259 C1278 1.368 1_545 S
C1259 H1283 0.949 . S
H1260 C1264 0.949 . S
C1261 C1262 1.349 . S
C1261 C1263 1.327 . S
C1261 H1284 0.950 . S
C1262 C1261 1.349 . S
C1262 C1274 1.349 1_545 S
C1263 C1261 1.327 . S
C1263 C1279 1.429 . S
C1263 H1285 0.950 . S
C1264 H1260 0.949 . S
C1264 C1272 1.574 . S
C1264 C1280 1.368 1_565 S
H1265 C1273 0.950 . S
H1266 C1271 0.950 . S
H1267 C1272 0.949 . S
H1268 C1274 0.950 . S
H1269 C1275 0.950 . S
H1270 C1276 0.949 . S
C1271 H1266 0.950 . S
C1271 C1273 1.327 . S
C1271 C1277 1.429 1_545 S
C1272 C1264 1.574 . S
C1272 H1267 0.949 . S
C1272 C1278 1.368 . S
C1273 C1257 1.349 1_545 S
C1273 H1265 0.950 . S
C1273 C1271 1.327 . S
C1274 C1262 1.349 1_565 S
C1274 H1268 0.950 . S
C1274 C1275 1.327 . S
C1275 H1269 0.950 . S
C1275 C1274 1.327 . S
C1275 C1279 1.429 1_565 S
C1276 C1259 1.574 . S
C1276 H1270 0.949 . S
C1276 C1280 1.368 . S
C1277 C1258 1.429 . S
C1277 C1271 1.429 1_565 S
C1277 C1278 1.523 . S
C1278 C1259 1.368 1_565 S
C1278 C1272 1.368 . S
C1278 C1277 1.523 . S
C1279 C1263 1.429 . S
C1279 C1275 1.429 1_545 S
C1279 C1280 1.523 . S
C1280 C1264 1.368 1_545 S
C1280 C1276 1.368 . S
C1280 C1279 1.523 . S
H1281 C1256 0.950 . S
H1282 C1258 0.950 . S
H1283 C1259 0.949 . S
H1284 C1261 0.950 . S
H1285 C1263 0.950 . S
C1286 C1287 1.349 . S
C1286 C1288 1.327 . S
C1286 H1311 0.950 . S
C1287 C1286 1.349 . S
C1287 C1303 1.349 . S
C1288 C1286 1.327 . S
C1288 C1307 1.429 . S
C1288 H1312 0.950 . S
C1289 C1306 1.574 . S
C1289 C1308 1.368 . S
C1289 H1313 0.949 . S
H1290 C1294 0.949 . S
C1291 C1292 1.349 . S
C1291 C1293 1.327 . S
C1291 H1314 0.950 . S
C1292 C1291 1.349 . S
C1292 C1304 1.349 . S
C1293 C1291 1.327 . S
C1293 C1309 1.429 . S
C1293 H1315 0.950 . S
C1294 H1290 0.949 . S
C1294 C1302 1.574 . S
C1294 C1310 1.368 . S
H1295 C1303 0.950 . S
H1296 C1301 0.950 . S
H1297 C1302 0.949 . S
H1298 C1304 0.950 . S
H1299 C1305 0.950 . S
H1300 C1306 0.949 . S
C1301 H1296 0.950 . S
C1301 C1303 1.327 . S
C1301 C1307 1.429 . S
C1302 C1294 1.574 . S
C1302 H1297 0.949 . S
C1302 C1308 1.368 . S
C1303 C1287 1.349 . S
C1303 H1295 0.950 . S
C1303 C1301 1.327 . S
C1304 C1292 1.349 . S
C1304 H1298 0.950 . S
C1304 C1305 1.327 . S
C1305 H1299 0.950 . S
C1305 C1304 1.327 . S
C1305 C1309 1.429 . S
C1306 C1289 1.574 . S
C1306 H1300 0.949 . S
C1306 C1310 1.368 . S
C1307 C1288 1.429 . S
C1307 C1301 1.429 . S
C1307 C1308 1.523 . S
C1308 C1289 1.368 . S
C1308 C1302 1.368 . S
C1308 C1307 1.523 . S
C1309 C1293 1.429 . S
C1309 C1305 1.429 . S
C1309 C1310 1.523 . S
C1310 C1294 1.368 . S
C1310 C1306 1.368 . S
C1310 C1309 1.523 . S
H1311 C1286 0.950 . S
H1312 C1288 0.950 . S
H1313 C1289 0.949 . S
H1314 C1291 0.950 . S
H1315 C1293 0.950 . S
C1316 C1317 1.349 1_565 S
C1316 C1318 1.327 . S
C1316 H1341 0.950 . S
C1317 C1316 1.349 1_545 S
C1317 C1333 1.349 . S
C1318 C1316 1.327 . S
C1318 C1337 1.429 1_565 S
C1318 H1342 0.950 . S
C1319 C1336 1.574 . S
C1319 C1338 1.368 . S
C1319 H1343 0.949 . S
H1320 C1324 0.949 . S
C1321 C1322 1.349 1_545 S
C1321 C1323 1.327 . S
C1321 H1344 0.950 . S
C1322 C1321 1.349 1_565 S
C1322 C1334 1.349 . S
C1323 C1321 1.327 . S
C1323 C1339 1.429 1_545 S
C1323 H1345 0.950 . S
C1324 H1320 0.949 . S
C1324 C1332 1.574 . S
C1324 C1340 1.368 . S
H1325 C1333 0.950 . S
H1326 C1331 0.950 . S
H1327 C1332 0.949 . S
H1328 C1334 0.950 . S
H1329 C1335 0.950 . S
H1330 C1336 0.949 . S
C1331 H1326 0.950 . S
C1331 C1333 1.327 . S
C1331 C1337 1.429 . S
C1332 C1324 1.574 . S
C1332 H1327 0.949 . S
C1332 C1338 1.368 1_565 S
C1333 C1317 1.349 . S
C1333 H1325 0.950 . S
C1333 C1331 1.327 . S
C1334 C1322 1.349 . S
C1334 H1328 0.950 . S
C1334 C1335 1.327 . S
C1335 H1329 0.950 . S
C1335 C1334 1.327 . S
C1335 C1339 1.429 . S
C1336 C1319 1.574 . S
C1336 H1330 0.949 . S
C1336 C1340 1.368 1_545 S
C1337 C1318 1.429 1_545 S
C1337 C1331 1.429 . S
C1337 C1338 1.523 . S
C1338 C1319 1.368 . S
C1338 C1332 1.368 1_545 S
C1338 C1337 1.523 . S
C1339 C1323 1.429 1_565 S
C1339 C1335 1.429 . S
C1339 C1340 1.523 . S
C1340 C1324 1.368 . S
C1340 C1336 1.368 1_565 S
C1340 C1339 1.523 . S
H1341 C1316 0.950 . S
H1342 C1318 0.950 . S
H1343 C1319 0.949 . S
H1344 C1321 0.950 . S
H1345 C1323 0.950 . S
C1346 C1347 1.349 . S
C1346 C1348 1.327 . S
C1346 H1371 0.950 . S
C1347 C1346 1.349 . S
C1347 C1363 1.349 . S
C1348 C1346 1.327 . S
C1348 C1367 1.429 . S
C1348 H1372 0.950 . S
C1349 C1366 1.574 . S
C1349 C1368 1.368 . S
C1349 H1373 0.949 . S
H1350 C1354 0.949 . S
C1351 C1352 1.349 . S
C1351 C1353 1.327 . S
C1351 H1374 0.950 . S
C1352 C1351 1.349 . S
C1352 C1364 1.349 . S
C1353 C1351 1.327 . S
C1353 C1369 1.429 . S
C1353 H1375 0.950 . S
C1354 H1350 0.949 . S
C1354 C1362 1.574 . S
C1354 C1370 1.368 . S
H1355 C1363 0.950 . S
H1356 C1361 0.950 . S
H1357 C1362 0.949 . S
H1358 C1364 0.950 . S
H1359 C1365 0.950 . S
H1360 C1366 0.949 . S
C1361 H1356 0.950 . S
C1361 C1363 1.327 . S
C1361 C1367 1.429 . S
C1362 C1354 1.574 . S
C1362 H1357 0.949 . S
C1362 C1368 1.368 . S
C1363 C1347 1.349 . S
C1363 H1355 0.950 . S
C1363 C1361 1.327 . S
C1364 C1352 1.349 . S
C1364 H1358 0.950 . S
C1364 C1365 1.327 . S
C1365 H1359 0.950 . S
C1365 C1364 1.327 . S
C1365 C1369 1.429 . S
C1366 C1349 1.574 . S
C1366 H1360 0.949 . S
C1366 C1370 1.368 . S
C1367 C1348 1.429 . S
C1367 C1361 1.429 . S
C1367 C1368 1.523 . S
C1368 C1349 1.368 . S
C1368 C1362 1.368 . S
C1368 C1367 1.523 . S
C1369 C1353 1.429 . S
C1369 C1365 1.429 . S
C1369 C1370 1.523 1_556 S
C1370 C1354 1.368 . S
C1370 C1366 1.368 . S
C1370 C1369 1.523 1_554 S
H1371 C1346 0.950 . S
H1372 C1348 0.950 . S
H1373 C1349 0.949 . S
H1374 C1351 0.950 . S
H1375 C1353 0.950 . S
C1376 C1377 1.349 . S
C1376 C1378 1.327 . S
C1376 H1401 0.950 . S
C1377 C1376 1.349 . S
C1377 C1393 1.349 . S
C1378 C1376 1.327 . S
C1378 C1397 1.429 . S
C1378 H1402 0.950 . S
C1379 C1396 1.574 . S
C1379 C1398 1.368 . S
C1379 H1403 0.949 . S
H1380 C1384 0.949 . S
C1381 C1382 1.349 . S
C1381 C1383 1.327 . S
C1381 H1404 0.950 . S
C1382 C1381 1.349 . S
C1382 C1394 1.349 . S
C1383 C1381 1.327 . S
C1383 C1399 1.429 . S
C1383 H1405 0.950 . S
C1384 H1380 0.949 . S
C1384 C1392 1.574 . S
C1384 C1400 1.368 . S
H1385 C1393 0.950 . S
H1386 C1391 0.950 . S
H1387 C1392 0.949 . S
H1388 C1394 0.950 . S
H1389 C1395 0.950 . S
H1390 C1396 0.949 . S
C1391 H1386 0.950 . S
C1391 C1393 1.327 . S
C1391 C1397 1.429 . S
C1392 C1384 1.574 . S
C1392 H1387 0.949 . S
C1392 C1398 1.368 . S
C1393 C1377 1.349 . S
C1393 H1385 0.950 . S
C1393 C1391 1.327 . S
C1394 C1382 1.349 . S
C1394 H1388 0.950 . S
C1394 C1395 1.327 . S
C1395 H1389 0.950 . S
C1395 C1394 1.327 . S
C1395 C1399 1.429 . S
C1396 C1379 1.574 . S
C1396 H1390 0.949 . S
C1396 C1400 1.368 . S
C1397 C1378 1.429 . S
C1397 C1391 1.429 . S
C1397 C1398 1.523 . S
C1398 C1379 1.368 . S
C1398 C1392 1.368 . S
C1398 C1397 1.523 . S
C1399 C1383 1.429 . S
C1399 C1395 1.429 . S
C1399 C1400 1.523 . S
C1400 C1384 1.368 . S
C1400 C1396 1.368 . S
C1400 C1399 1.523 . S
H1401 C1376 0.950 . S
H1402 C1378 0.950 . S
H1403 C1379 0.949 . S
H1404 C1381 0.950 . S
H1405 C1383 0.950 . S
C1406 C1407 1.349 . S
C1406 C1408 1.327 . S
C1406 H1431 0.950 . S
C1407 C1406 1.349 . S
C1407 C1423 1.349 . S
C1408 C1406 1.327 . S
C1408 C1427 1.429 . S
C1408 H1432 0.950 . S
C1409 C1426 1.574 . S
C1409 C1428 1.368 . S
C1409 H1433 0.949 . S
H1410 C1414 0.949 . S
C1411 C1412 1.349 . S
C1411 C1413 1.327 . S
C1411 H1434 0.950 . S
C1412 C1411 1.349 . S
C1412 C1424 1.349 . S
C1413 C1411 1.327 . S
C1413 C1429 1.429 . S
C1413 H1435 0.950 . S
C1414 H1410 0.949 . S
C1414 C1422 1.574 . S
C1414 C1430 1.368 . S
H1415 C1423 0.950 . S
H1416 C1421 0.950 . S
H1417 C1422 0.949 . S
H1418 C1424 0.950 . S
H1419 C1425 0.950 . S
H1420 C1426 0.949 . S
C1421 H1416 0.950 . S
C1421 C1423 1.327 . S
C1421 C1427 1.429 . S
C1422 C1414 1.574 . S
C1422 H1417 0.949 . S
C1422 C1428 1.368 . S
C1423 C1407 1.349 . S
C1423 H1415 0.950 . S
C1423 C1421 1.327 . S
C1424 C1412 1.349 . S
C1424 H1418 0.950 . S
C1424 C1425 1.327 . S
C1425 H1419 0.950 . S
C1425 C1424 1.327 . S
C1425 C1429 1.429 . S
C1426 C1409 1.574 . S
C1426 H1420 0.949 . S
C1426 C1430 1.368 . S
C1427 C1408 1.429 . S
C1427 C1421 1.429 . S
C1427 C1428 1.523 . S
C1428 C1409 1.368 . S
C1428 C1422 1.368 . S
C1428 C1427 1.523 . S
C1429 C1413 1.429 . S
C1429 C1425 1.429 . S
C1429 C1430 1.523 . S
C1430 C1414 1.368 . S
C1430 C1426 1.368 . S
C1430 C1429 1.523 . S
H1431 C1406 0.950 . S
H1432 C1408 0.950 . S
H1433 C1409 0.949 . S
H1434 C1411 0.950 . S
H1435 C1413 0.950 . S
C1436 C1437 1.349 . S
C1436 C1438 1.327 . S
C1436 H1461 0.950 . S
C1437 C1436 1.349 . S
C1437 C1453 1.349 . S
C1438 C1436 1.327 . S
C1438 C1457 1.429 . S
C1438 H1462 0.950 . S
C1439 C1456 1.574 . S
C1439 C1458 1.368 . S
C1439 H1463 0.949 . S
H1440 C1444 0.949 . S
C1441 C1442 1.349 . S
C1441 C1443 1.327 . S
C1441 H1464 0.950 . S
C1442 C1441 1.349 . S
C1442 C1454 1.349 . S
C1443 C1441 1.327 . S
C1443 C1459 1.429 . S
C1443 H1465 0.950 . S
C1444 H1440 0.949 . S
C1444 C1452 1.574 . S
C1444 C1460 1.368 . S
H1445 C1453 0.950 . S
H1446 C1451 0.950 . S
H1447 C1452 0.949 . S
H1448 C1454 0.950 . S
H1449 C1455 0.950 . S
H1450 C1456 0.949 . S
C1451 H1446 0.950 . S
C1451 C1453 1.327 . S
C1451 C1457 1.429 . S
C1452 C1444 1.574 . S
C1452 H1447 0.949 . S
C1452 C1458 1.368 . S
C1453 C1437 1.349 . S
C1453 H1445 0.950 . S
C1453 C1451 1.327 . S
C1454 C1442 1.349 . S
C1454 H1448 0.950 . S
C1454 C1455 1.327 . S
C1455 H1449 0.950 . S
C1455 C1454 1.327 . S
C1455 C1459 1.429 . S
C1456 C1439 1.574 . S
C1456 H1450 0.949 . S
C1456 C1460 1.368 . S
C1457 C1438 1.429 . S
C1457 C1451 1.429 . S
C1457 C1458 1.523 . S
C1458 C1439 1.368 . S
C1458 C1452 1.368 . S
C1458 C1457 1.523 . S
C1459 C1443 1.429 . S
C1459 C1455 1.429 . S
C1459 C1460 1.523 . S
C1460 C1444 1.368 . S
C1460 C1456 1.368 . S
C1460 C1459 1.523 . S
H1461 C1436 0.950 . S
H1462 C1438 0.950 . S
H1463 C1439 0.949 . S
H1464 C1441 0.950 . S
H1465 C1443 0.950 . S
C1466 C1467 1.349 . S
C1466 C1468 1.327 . S
C1466 H1491 0.950 . S
C1467 C1466 1.349 . S
C1467 C1483 1.349 . S
C1468 C1466 1.327 . S
C1468 C1487 1.429 . S
C1468 H1492 0.950 . S
C1469 C1486 1.574 . S
C1469 C1488 1.368 . S
C1469 H1493 0.949 . S
H1470 C1474 0.949 . S
C1471 C1472 1.349 . S
C1471 C1473 1.327 . S
C1471 H1494 0.950 . S
C1472 C1471 1.349 . S
C1472 C1484 1.349 . S
C1473 C1471 1.327 . S
C1473 C1489 1.429 . S
C1473 H1495 0.950 . S
C1474 H1470 0.949 . S
C1474 C1482 1.574 . S
C1474 C1490 1.368 . S
H1475 C1483 0.950 . S
H1476 C1481 0.950 . S
H1477 C1482 0.949 . S
H1478 C1484 0.950 . S
H1479 C1485 0.950 . S
H1480 C1486 0.949 . S
C1481 H1476 0.950 . S
C1481 C1483 1.327 . S
C1481 C1487 1.429 . S
C1482 C1474 1.574 . S
C1482 H1477 0.949 . S
C1482 C1488 1.368 . S
C1483 C1467 1.349 . S
C1483 H1475 0.950 . S
C1483 C1481 1.327 . S
C1484 C1472 1.349 . S
C1484 H1478 0.950 . S
C1484 C1485 1.327 . S
C1485 H1479 0.950 . S
C1485 C1484 1.327 . S
C1485 C1489 1.429 . S
C1486 C1469 1.574 . S
C1486 H1480 0.949 . S
C1486 C1490 1.368 . S
C1487 C1468 1.429 . S
C1487 C1481 1.429 . S
C1487 C1488 1.523 . S
C1488 C1469 1.368 . S
C1488 C1482 1.368 . S
C1488 C1487 1.523 . S
C1489 C1473 1.429 . S
C1489 C1485 1.429 . S
C1489 C1490 1.523 1_556 S
C1490 C1474 1.368 . S
C1490 C1486 1.368 . S
C1490 C1489 1.523 1_554 S
H1491 C1466 0.950 . S
H1492 C1468 0.950 . S
H1493 C1469 0.949 . S
H1494 C1471 0.950 . S
H1495 C1473 0.950 . S
C1496 C1497 1.349 . S
C1496 C1498 1.327 . S
C1496 H1521 0.950 . S
C1497 C1496 1.349 . S
C1497 C1513 1.349 . S
C1498 C1496 1.327 . S
C1498 C1517 1.429 . S
C1498 H1522 0.950 . S
C1499 C1516 1.574 . S
C1499 C1518 1.368 . S
C1499 H1523 0.949 . S
H1500 C1504 0.949 . S
C1501 C1502 1.349 . S
C1501 C1503 1.327 . S
C1501 H1524 0.950 . S
C1502 C1501 1.349 . S
C1502 C1514 1.349 . S
C1503 C1501 1.327 . S
C1503 C1519 1.429 . S
C1503 H1525 0.950 . S
C1504 H1500 0.949 . S
C1504 C1512 1.574 . S
C1504 C1520 1.368 . S
H1505 C1513 0.950 . S
H1506 C1511 0.950 . S
H1507 C1512 0.949 . S
H1508 C1514 0.950 . S
H1509 C1515 0.950 . S
H1510 C1516 0.949 . S
C1511 H1506 0.950 . S
C1511 C1513 1.327 . S
C1511 C1517 1.429 . S
C1512 C1504 1.574 . S
C1512 H1507 0.949 . S
C1512 C1518 1.368 . S
C1513 C1497 1.349 . S
C1513 H1505 0.950 . S
C1513 C1511 1.327 . S
C1514 C1502 1.349 . S
C1514 H1508 0.950 . S
C1514 C1515 1.327 . S
C1515 H1509 0.950 . S
C1515 C1514 1.327 . S
C1515 C1519 1.429 . S
C1516 C1499 1.574 . S
C1516 H1510 0.949 . S
C1516 C1520 1.368 . S
C1517 C1498 1.429 . S
C1517 C1511 1.429 . S
C1517 C1518 1.523 . S
C1518 C1499 1.368 . S
C1518 C1512 1.368 . S
C1518 C1517 1.523 . S
C1519 C1503 1.429 . S
C1519 C1515 1.429 . S
C1519 C1520 1.523 . S
C1520 C1504 1.368 . S
C1520 C1516 1.368 . S
C1520 C1519 1.523 . S
H1521 C1496 0.950 . S
H1522 C1498 0.950 . S
H1523 C1499 0.949 . S
H1524 C1501 0.950 . S
H1525 C1503 0.950 . S
C1526 C1527 1.349 . S
C1526 C1528 1.327 . S
C1526 H1551 0.950 . S
C1527 C1526 1.349 . S
C1527 C1543 1.349 . S
C1528 C1526 1.327 . S
C1528 C1547 1.429 . S
C1528 H1552 0.950 . S
C1529 C1546 1.574 . S
C1529 C1548 1.368 . S
C1529 H1553 0.949 . S
H1530 C1534 0.949 . S
C1531 C1532 1.349 . S
C1531 C1533 1.327 . S
C1531 H1554 0.950 . S
C1532 C1531 1.349 . S
C1532 C1544 1.349 . S
C1533 C1531 1.327 . S
C1533 C1549 1.429 . S
C1533 H1555 0.950 . S
C1534 H1530 0.949 . S
C1534 C1542 1.574 . S
C1534 C1550 1.368 . S
H1535 C1543 0.950 . S
H1536 C1541 0.950 . S
H1537 C1542 0.949 . S
H1538 C1544 0.950 . S
H1539 C1545 0.950 . S
H1540 C1546 0.949 . S
C1541 H1536 0.950 . S
C1541 C1543 1.327 . S
C1541 C1547 1.429 . S
C1542 C1534 1.574 . S
C1542 H1537 0.949 . S
C1542 C1548 1.368 . S
C1543 C1527 1.349 . S
C1543 H1535 0.950 . S
C1543 C1541 1.327 . S
C1544 C1532 1.349 . S
C1544 H1538 0.950 . S
C1544 C1545 1.327 . S
C1545 H1539 0.950 . S
C1545 C1544 1.327 . S
C1545 C1549 1.429 . S
C1546 C1529 1.574 . S
C1546 H1540 0.949 . S
C1546 C1550 1.368 . S
C1547 C1528 1.429 . S
C1547 C1541 1.429 . S
C1547 C1548 1.523 . S
C1548 C1529 1.368 . S
C1548 C1542 1.368 . S
C1548 C1547 1.523 . S
C1549 C1533 1.429 . S
C1549 C1545 1.429 . S
C1549 C1550 1.523 . S
C1550 C1534 1.368 . S
C1550 C1546 1.368 . S
C1550 C1549 1.523 . S
H1551 C1526 0.950 . S
H1552 C1528 0.950 . S
H1553 C1529 0.949 . S
H1554 C1531 0.950 . S
H1555 C1533 0.950 . S
C1556 C1557 1.349 . S
C1556 C1558 1.327 . S
C1556 H1581 0.950 . S
C1557 C1556 1.349 . S
C1557 C1573 1.349 . S
C1558 C1556 1.327 . S
C1558 C1577 1.429 . S
C1558 H1582 0.950 . S
C1559 C1576 1.574 . S
C1559 C1578 1.368 . S
C1559 H1583 0.949 . S
H1560 C1564 0.949 . S
C1561 C1562 1.349 . S
C1561 C1563 1.327 . S
C1561 H1584 0.950 . S
C1562 C1561 1.349 . S
C1562 C1574 1.349 . S
C1563 C1561 1.327 . S
C1563 C1579 1.429 . S
C1563 H1585 0.950 . S
C1564 H1560 0.949 . S
C1564 C1572 1.574 . S
C1564 C1580 1.368 . S
H1565 C1573 0.950 . S
H1566 C1571 0.950 . S
H1567 C1572 0.949 . S
H1568 C1574 0.950 . S
H1569 C1575 0.950 . S
H1570 C1576 0.949 . S
C1571 H1566 0.950 . S
C1571 C1573 1.327 . S
C1571 C1577 1.429 . S
C1572 C1564 1.574 . S
C1572 H1567 0.949 . S
C1572 C1578 1.368 . S
C1573 C1557 1.349 . S
C1573 H1565 0.950 . S
C1573 C1571 1.327 . S
C1574 C1562 1.349 . S
C1574 H1568 0.950 . S
C1574 C1575 1.327 . S
C1575 H1569 0.950 . S
C1575 C1574 1.327 . S
C1575 C1579 1.429 . S
C1576 C1559 1.574 . S
C1576 H1570 0.949 . S
C1576 C1580 1.368 . S
C1577 C1558 1.429 . S
C1577 C1571 1.429 . S
C1577 C1578 1.523 . S
C1578 C1559 1.368 . S
C1578 C1572 1.368 . S
C1578 C1577 1.523 . S
C1579 C1563 1.429 . S
C1579 C1575 1.429 . S
C1579 C1580 1.523 . S
C1580 C1564 1.368 . S
C1580 C1576 1.368 . S
C1580 C1579 1.523 . S
H1581 C1556 0.950 . S
H1582 C1558 0.950 . S
H1583 C1559 0.949 . S
H1584 C1561 0.950 . S
H1585 C1563 0.950 . S
C1586 C1587 1.349 . S
C1586 C1588 1.327 . S
C1586 H1611 0.950 . S
C1587 C1586 1.349 . S
C1587 C1603 1.349 . S
C1588 C1586 1.327 . S
C1588 C1607 1.429 . S
C1588 H1612 0.950 . S
C1589 C1606 1.574 . S
C1589 C1608 1.368 . S
C1589 H1613 0.949 . S
H1590 C1594 0.949 . S
C1591 C1592 1.349 . S
C1591 C1593 1.327 . S
C1591 H1614 0.950 . S
C1592 C1591 1.349 . S
C1592 C1604 1.349 . S
C1593 C1591 1.327 . S
C1593 C1609 1.429 . S
C1593 H1615 0.950 . S
C1594 H1590 0.949 . S
C1594 C1602 1.574 . S
C1594 C1610 1.368 . S
H1595 C1603 0.950 . S
H1596 C1601 0.950 . S
H1597 C1602 0.949 . S
H1598 C1604 0.950 . S
H1599 C1605 0.950 . S
H1600 C1606 0.949 . S
C1601 H1596 0.950 . S
C1601 C1603 1.327 . S
C1601 C1607 1.429 . S
C1602 C1594 1.574 . S
C1602 H1597 0.949 . S
C1602 C1608 1.368 . S
C1603 C1587 1.349 . S
C1603 H1595 0.950 . S
C1603 C1601 1.327 . S
C1604 C1592 1.349 . S
C1604 H1598 0.950 . S
C1604 C1605 1.327 . S
C1605 H1599 0.950 . S
C1605 C1604 1.327 . S
C1605 C1609 1.429 . S
C1606 C1589 1.574 . S
C1606 H1600 0.949 . S
C1606 C1610 1.368 . S
C1607 C1588 1.429 . S
C1607 C1601 1.429 . S
C1607 C1608 1.523 1_556 S
C1608 C1589 1.368 . S
C1608 C1602 1.368 . S
C1608 C1607 1.523 1_554 S
C1609 C1593 1.429 . S
C1609 C1605 1.429 . S
C1609 C1610 1.523 . S
C1610 C1594 1.368 . S
C1610 C1606 1.368 . S
C1610 C1609 1.523 . S
H1611 C1586 0.950 . S
H1612 C1588 0.950 . S
H1613 C1589 0.949 . S
H1614 C1591 0.950 . S
H1615 C1593 0.950 . S
C1616 C1617 1.349 1_545 S
C1616 C1618 1.327 . S
C1616 H1641 0.950 . S
C1617 C1616 1.349 1_565 S
C1617 C1633 1.349 . S
C1618 C1616 1.327 . S
C1618 C1637 1.378 1_545 S
C1618 H1642 0.950 . S
C1619 C1636 1.574 . S
C1619 C1638 1.391 . S
C1619 H1643 0.949 . S
H1620 C1624 0.949 . S
C1621 C1622 1.349 1_565 S
C1621 C1623 1.327 . S
C1621 H1644 0.950 . S
C1622 C1621 1.349 1_545 S
C1622 C1634 1.349 . S
C1623 C1621 1.327 . S
C1623 C1639 1.376 1_565 S
C1623 H1645 0.950 . S
C1624 H1620 0.949 . S
C1624 C1632 1.574 . S
C1624 C1640 1.393 . S
H1625 C1633 0.950 . S
H1626 C1631 0.950 . S
H1627 C1632 0.949 . S
H1628 C1634 0.950 . S
H1629 C1635 0.950 . S
H1630 C1636 0.949 . S
C1631 H1626 0.950 . S
C1631 C1633 1.327 . S
C1631 C1637 1.484 . S
C1632 C1624 1.574 . S
C1632 H1627 0.949 . S
C1632 C1638 1.345 1_545 S
C1633 C1617 1.349 . S
C1633 H1625 0.950 . S
C1633 C1631 1.327 . S
C1634 C1622 1.349 . S
C1634 H1628 0.950 . S
C1634 C1635 1.327 . S
C1635 H1629 0.950 . S
C1635 C1634 1.327 . S
C1635 C1639 1.487 . S
C1636 C1619 1.574 . S
C1636 H1630 0.949 . S
C1636 C1640 1.343 1_565 S
C1637 C1618 1.378 1_565 S
C1637 C1631 1.484 . S
C1637 C1638 1.522 . S
C1638 C1619 1.391 . S
C1638 C1632 1.345 1_565 S
C1638 C1637 1.522 . S
C1639 C1623 1.376 1_545 S
C1639 C1635 1.487 . S
C1639 C1640 1.522 . S
C1640 C1624 1.393 . S
C1640 C1636 1.343 1_545 S
C1640 C1639 1.522 . S
H1641 C1616 0.950 . S
H1642 C1618 0.950 . S
H1643 C1619 0.949 . S
H1644 C1621 0.950 . S
H1645 C1623 0.950 . S
C1646 C1647 1.349 . S
C1646 C1648 1.327 . S
C1646 H1671 0.950 . S
C1647 C1646 1.349 . S
C1647 C1663 1.349 . S
C1648 C1646 1.327 . S
C1648 C1667 1.429 . S
C1648 H1672 0.950 . S
C1649 C1666 1.574 . S
C1649 C1668 1.368 . S
C1649 H1673 0.949 . S
H1650 C1654 0.949 . S
C1651 C1652 1.349 . S
C1651 C1653 1.327 . S
C1651 H1674 0.950 . S
C1652 C1651 1.349 . S
C1652 C1664 1.349 . S
C1653 C1651 1.327 . S
C1653 C1669 1.429 . S
C1653 H1675 0.950 . S
C1654 H1650 0.949 . S
C1654 C1662 1.574 . S
C1654 C1670 1.368 . S
H1655 C1663 0.950 . S
H1656 C1661 0.950 . S
H1657 C1662 0.949 . S
H1658 C1664 0.950 . S
H1659 C1665 0.950 . S
H1660 C1666 0.949 . S
C1661 H1656 0.950 . S
C1661 C1663 1.327 . S
C1661 C1667 1.429 . S
C1662 C1654 1.574 . S
C1662 H1657 0.949 . S
C1662 C1668 1.368 . S
C1663 C1647 1.349 . S
C1663 H1655 0.950 . S
C1663 C1661 1.327 . S
C1664 C1652 1.349 . S
C1664 H1658 0.950 . S
C1664 C1665 1.327 . S
C1665 H1659 0.950 . S
C1665 C1664 1.327 . S
C1665 C1669 1.429 . S
C1666 C1649 1.574 . S
C1666 H1660 0.949 . S
C1666 C1670 1.368 . S
C1667 C1648 1.429 . S
C1667 C1661 1.429 . S
C1667 C1668 1.523 . S
C1668 C1649 1.368 . S
C1668 C1662 1.368 . S
C1668 C1667 1.523 . S
C1669 C1653 1.429 . S
C1669 C1665 1.429 . S
C1669 C1670 1.523 1_556 S
C1670 C1654 1.368 . S
C1670 C1666 1.368 . S
C1670 C1669 1.523 1_554 S
H1671 C1646 0.950 . S
H1672 C1648 0.950 . S
H1673 C1649 0.949 . S
H1674 C1651 0.950 . S
H1675 C1653 0.950 . S
C1676 C1677 1.349 1_545 S
C1676 C1678 1.327 . S
C1676 H1701 0.950 . S
C1677 C1676 1.349 1_565 S
C1677 C1693 1.349 . S
C1678 C1676 1.327 . S
C1678 C1697 1.378 1_545 S
C1678 H1702 0.950 . S
C1679 C1696 1.574 . S
C1679 C1698 1.391 . S
C1679 H1703 0.949 . S
H1680 C1684 0.949 . S
C1681 C1682 1.349 1_565 S
C1681 C1683 1.327 . S
C1681 H1704 0.950 . S
C1682 C1681 1.349 1_545 S
C1682 C1694 1.349 . S
C1683 C1681 1.327 . S
C1683 C1699 1.378 1_565 S
C1683 H1705 0.950 . S
C1684 H1680 0.949 . S
C1684 C1692 1.574 . S
C1684 C1700 1.392 . S
H1685 C1693 0.950 . S
H1686 C1691 0.950 . S
H1687 C1692 0.949 . S
H1688 C1694 0.950 . S
H1689 C1695 0.950 . S
H1690 C1696 0.949 . S
C1691 H1686 0.950 . S
C1691 C1693 1.327 . S
C1691 C1697 1.484 . S
C1692 C1684 1.574 . S
C1692 H1687 0.949 . S
C1692 C1698 1.345 1_545 S
C1693 C1677 1.349 . S
C1693 H1685 0.950 . S
C1693 C1691 1.327 . S
C1694 C1682 1.349 . S
C1694 H1688 0.950 . S
C1694 C1695 1.327 . S
C1695 H1689 0.950 . S
C1695 C1694 1.327 . S
C1695 C1699 1.485 . S
C1696 C1679 1.574 . S
C1696 H1690 0.949 . S
C1696 C1700 1.344 1_565 S
C1697 C1678 1.378 1_565 S
C1697 C1691 1.484 . S
C1697 C1698 1.522 . S
C1698 C1679 1.391 . S
C1698 C1692 1.345 1_565 S
C1698 C1697 1.522 . S
C1699 C1683 1.378 1_545 S
C1699 C1695 1.485 . S
C1699 C1700 1.522 . S
C1700 C1684 1.392 . S
C1700 C1696 1.344 1_545 S
C1700 C1699 1.522 . S
H1701 C1676 0.950 . S
H1702 C1678 0.950 . S
H1703 C1679 0.949 . S
H1704 C1681 0.950 . S
H1705 C1683 0.950 . S
C1706 C1707 1.349 . S
C1706 C1708 1.327 . S
C1706 H1731 0.950 . S
C1707 C1706 1.349 . S
C1707 C1723 1.349 . S
C1708 C1706 1.327 . S
C1708 C1727 1.429 . S
C1708 H1732 0.950 . S
C1709 C1726 1.574 . S
C1709 C1728 1.368 . S
C1709 H1733 0.949 . S
H1710 C1714 0.949 . S
C1711 C1712 1.349 . S
C1711 C1713 1.327 . S
C1711 H1734 0.950 . S
C1712 C1711 1.349 . S
C1712 C1724 1.349 . S
C1713 C1711 1.327 . S
C1713 C1729 1.429 . S
C1713 H1735 0.950 . S
C1714 H1710 0.949 . S
C1714 C1722 1.574 . S
C1714 C1730 1.368 . S
H1715 C1723 0.950 . S
H1716 C1721 0.950 . S
H1717 C1722 0.949 . S
H1718 C1724 0.950 . S
H1719 C1725 0.950 . S
H1720 C1726 0.949 . S
C1721 H1716 0.950 . S
C1721 C1723 1.327 . S
C1721 C1727 1.429 . S
C1722 C1714 1.574 . S
C1722 H1717 0.949 . S
C1722 C1728 1.368 . S
C1723 C1707 1.349 . S
C1723 H1715 0.950 . S
C1723 C1721 1.327 . S
C1724 C1712 1.349 . S
C1724 H1718 0.950 . S
C1724 C1725 1.327 . S
C1725 H1719 0.950 . S
C1725 C1724 1.327 . S
C1725 C1729 1.429 . S
C1726 C1709 1.574 . S
C1726 H1720 0.949 . S
C1726 C1730 1.368 . S
C1727 C1708 1.429 . S
C1727 C1721 1.429 . S
C1727 C1728 1.523 . S
C1728 C1709 1.368 . S
C1728 C1722 1.368 . S
C1728 C1727 1.523 . S
C1729 C1713 1.429 . S
C1729 C1725 1.429 . S
C1729 C1730 1.523 . S
C1730 C1714 1.368 . S
C1730 C1726 1.368 . S
C1730 C1729 1.523 . S
H1731 C1706 0.950 . S
H1732 C1708 0.950 . S
H1733 C1709 0.949 . S
H1734 C1711 0.950 . S
H1735 C1713 0.950 . S
C1736 C1737 1.349 1_545 S
C1736 C1738 1.327 . S
C1736 H1761 0.950 . S
C1737 C1736 1.349 1_565 S
C1737 C1753 1.349 . S
C1738 C1736 1.327 . S
C1738 C1757 1.376 1_545 S
C1738 H1762 0.950 . S
C1739 C1756 1.574 . S
C1739 C1758 1.393 . S
C1739 H1763 0.949 . S
H1740 C1744 0.949 . S
C1741 C1742 1.349 1_565 S
C1741 C1743 1.327 . S
C1741 H1764 0.950 . S
C1742 C1741 1.349 1_545 S
C1742 C1754 1.349 . S
C1743 C1741 1.327 . S
C1743 C1759 1.377 1_565 S
C1743 H1765 0.950 . S
C1744 H1740 0.949 . S
C1744 C1752 1.574 . S
C1744 C1760 1.391 . S
H1745 C1753 0.950 . S
H1746 C1751 0.950 . S
H1747 C1752 0.949 . S
H1748 C1754 0.950 . S
H1749 C1755 0.950 . S
H1750 C1756 0.949 . S
C1751 H1746 0.950 . S
C1751 C1753 1.327 . S
C1751 C1757 1.486 . S
C1752 C1744 1.574 . S
C1752 H1747 0.949 . S
C1752 C1758 1.344 1_545 S
C1753 C1737 1.349 . S
C1753 H1745 0.950 . S
C1753 C1751 1.327 . S
C1754 C1742 1.349 . S
C1754 H1748 0.950 . S
C1754 C1755 1.327 . S
C1755 H1749 0.950 . S
C1755 C1754 1.327 . S
C1755 C1759 1.485 . S
C1756 C1739 1.574 . S
C1756 H1750 0.949 . S
C1756 C1760 1.345 1_565 S
C1757 C1738 1.376 1_565 S
C1757 C1751 1.486 . S
C1757 C1758 1.522 . S
C1758 C1739 1.393 . S
C1758 C1752 1.344 1_565 S
C1758 C1757 1.522 . S
C1759 C1743 1.377 1_545 S
C1759 C1755 1.485 . S
C1759 C1760 1.522 . S
C1760 C1744 1.391 . S
C1760 C1756 1.345 1_545 S
C1760 C1759 1.522 . S
H1761 C1736 0.950 . S
H1762 C1738 0.950 . S
H1763 C1739 0.949 . S
H1764 C1741 0.950 . S
H1765 C1743 0.950 . S
C1766 C1767 1.349 . S
C1766 C1768 1.327 . S
C1766 H1791 0.950 . S
C1767 C1766 1.349 . S
C1767 C1783 1.349 . S
C1768 C1766 1.327 . S
C1768 C1787 1.429 . S
C1768 H1792 0.950 . S
C1769 C1786 1.574 . S
C1769 C1788 1.368 . S
C1769 H1793 0.949 . S
H1770 C1774 0.949 . S
C1771 C1772 1.349 . S
C1771 C1773 1.327 . S
C1771 H1794 0.950 . S
C1772 C1771 1.349 . S
C1772 C1784 1.349 . S
C1773 C1771 1.327 . S
C1773 C1789 1.429 . S
C1773 H1795 0.950 . S
C1774 H1770 0.949 . S
C1774 C1782 1.574 . S
C1774 C1790 1.368 . S
H1775 C1783 0.950 . S
H1776 C1781 0.950 . S
H1777 C1782 0.949 . S
H1778 C1784 0.950 . S
H1779 C1785 0.950 . S
H1780 C1786 0.949 . S
C1781 H1776 0.950 . S
C1781 C1783 1.327 . S
C1781 C1787 1.429 . S
C1782 C1774 1.574 . S
C1782 H1777 0.949 . S
C1782 C1788 1.368 . S
C1783 C1767 1.349 . S
C1783 H1775 0.950 . S
C1783 C1781 1.327 . S
C1784 C1772 1.349 . S
C1784 H1778 0.950 . S
C1784 C1785 1.327 . S
C1785 H1779 0.950 . S
C1785 C1784 1.327 . S
C1785 C1789 1.429 . S
C1786 C1769 1.574 . S
C1786 H1780 0.949 . S
C1786 C1790 1.368 . S
C1787 C1768 1.429 . S
C1787 C1781 1.429 . S
C1787 C1788 1.523 . S
C1788 C1769 1.368 . S
C1788 C1782 1.368 . S
C1788 C1787 1.523 . S
C1789 C1773 1.429 . S
C1789 C1785 1.429 . S
C1789 C1790 1.523 1_556 S
C1790 C1774 1.368 . S
C1790 C1786 1.368 . S
C1790 C1789 1.523 1_554 S
H1791 C1766 0.950 . S
H1792 C1768 0.950 . S
H1793 C1769 0.949 . S
H1794 C1771 0.950 . S
H1795 C1773 0.950 . S
C1796 C1797 1.349 1_545 S
C1796 C1798 1.327 . S
C1796 H1821 0.950 . S
C1797 C1796 1.349 1_565 S
C1797 C1813 1.349 . S
C1798 C1796 1.327 . S
C1798 C1817 1.375 1_545 S
C1798 H1822 0.950 . S
C1799 C1816 1.574 . S
C1799 C1818 1.393 . S
C1799 H1823 0.949 . S
H1800 C1804 0.949 . S
C1801 C1802 1.349 1_565 S
C1801 C1803 1.327 . S
C1801 H1824 0.950 . S
C1802 C1801 1.349 1_545 S
C1802 C1814 1.349 . S
C1803 C1801 1.327 . S
C1803 C1819 1.377 1_565 S
C1803 H1825 0.950 . S
C1804 H1800 0.949 . S
C1804 C1812 1.574 . S
C1804 C1820 1.391 . S
H1805 C1813 0.950 . S
H1806 C1811 0.950 . S
H1807 C1812 0.949 . S
H1808 C1814 0.950 . S
H1809 C1815 0.950 . S
H1810 C1816 0.949 . S
C1811 H1806 0.950 . S
C1811 C1813 1.327 . S
C1811 C1817 1.487 . S
C1812 C1804 1.574 . S
C1812 H1807 0.949 . S
C1812 C1818 1.343 1_545 S
C1813 C1797 1.349 . S
C1813 H1805 0.950 . S
C1813 C1811 1.327 . S
C1814 C1802 1.349 . S
C1814 H1808 0.950 . S
C1814 C1815 1.327 . S
C1815 H1809 0.950 . S
C1815 C1814 1.327 . S
C1815 C1819 1.485 . S
C1816 C1799 1.574 . S
C1816 H1810 0.949 . S
C1816 C1820 1.345 1_565 S
C1817 C1798 1.375 1_565 S
C1817 C1811 1.487 . S
C1817 C1818 1.522 . S
C1818 C1799 1.393 . S
C1818 C1812 1.343 1_565 S
C1818 C1817 1.522 . S
C1819 C1803 1.377 1_545 S
C1819 C1815 1.485 . S
C1819 C1820 1.522 . S
C1820 C1804 1.391 . S
C1820 C1816 1.345 1_545 S
C1820 C1819 1.522 . S
H1821 C1796 0.950 . S
H1822 C1798 0.950 . S
H1823 C1799 0.949 . S
H1824 C1801 0.950 . S
H1825 C1803 0.950 . S
C1826 C1827 1.349 . S
C1826 C1828 1.327 . S
C1826 H1851 0.950 . S
C1827 C1826 1.349 . S
C1827 C1843 1.349 . S
C1828 C1826 1.327 . S
C1828 C1847 1.429 . S
C1828 H1852 0.950 . S
C1829 C1846 1.574 . S
C1829 C1848 1.368 . S
C1829 H1853 0.949 . S
H1830 C1834 0.949 . S
C1831 C1832 1.349 . S
C1831 C1833 1.327 . S
C1831 H1854 0.950 . S
C1832 C1831 1.349 . S
C1832 C1844 1.349 . S
C1833 C1831 1.327 . S
C1833 C1849 1.429 . S
C1833 H1855 0.950 . S
C1834 H1830 0.949 . S
C1834 C1842 1.574 . S
C1834 C1850 1.368 . S
H1835 C1843 0.950 . S
H1836 C1841 0.950 . S
H1837 C1842 0.949 . S
H1838 C1844 0.950 . S
H1839 C1845 0.950 . S
H1840 C1846 0.949 . S
C1841 H1836 0.950 . S
C1841 C1843 1.327 . S
C1841 C1847 1.429 . S
C1842 C1834 1.574 . S
C1842 H1837 0.949 . S
C1842 C1848 1.368 . S
C1843 C1827 1.349 . S
C1843 H1835 0.950 . S
C1843 C1841 1.327 . S
C1844 C1832 1.349 . S
C1844 H1838 0.950 . S
C1844 C1845 1.327 . S
C1845 H1839 0.950 . S
C1845 C1844 1.327 . S
C1845 C1849 1.429 . S
C1846 C1829 1.574 . S
C1846 H1840 0.949 . S
C1846 C1850 1.368 . S
C1847 C1828 1.429 . S
C1847 C1841 1.429 . S
C1847 C1848 1.523 . S
C1848 C1829 1.368 . S
C1848 C1842 1.368 . S
C1848 C1847 1.523 . S
C1849 C1833 1.429 . S
C1849 C1845 1.429 . S
C1849 C1850 1.523 . S
C1850 C1834 1.368 . S
C1850 C1846 1.368 . S
C1850 C1849 1.523 . S
H1851 C1826 0.950 . S
H1852 C1828 0.950 . S
H1853 C1829 0.949 . S
H1854 C1831 0.950 . S
H1855 C1833 0.950 . S
C1856 C1857 1.349 . S
C1856 C1858 1.327 . S
C1856 H1881 0.950 . S
C1857 C1856 1.349 . S
C1857 C1873 1.349 . S
C1858 C1856 1.327 . S
C1858 C1877 1.429 . S
C1858 H1882 0.950 . S
C1859 C1876 1.574 . S
C1859 C1878 1.368 . S
C1859 H1883 0.949 . S
H1860 C1864 0.949 . S
C1861 C1862 1.349 . S
C1861 C1863 1.327 . S
C1861 H1884 0.950 . S
C1862 C1861 1.349 . S
C1862 C1874 1.349 . S
C1863 C1861 1.327 . S
C1863 C1879 1.429 . S
C1863 H1885 0.950 . S
C1864 H1860 0.949 . S
C1864 C1872 1.574 . S
C1864 C1880 1.368 . S
H1865 C1873 0.950 . S
H1866 C1871 0.950 . S
H1867 C1872 0.949 . S
H1868 C1874 0.950 . S
H1869 C1875 0.950 . S
H1870 C1876 0.949 . S
C1871 H1866 0.950 . S
C1871 C1873 1.327 . S
C1871 C1877 1.429 . S
C1872 C1864 1.574 . S
C1872 H1867 0.949 . S
C1872 C1878 1.368 . S
C1873 C1857 1.349 . S
C1873 H1865 0.950 . S
C1873 C1871 1.327 . S
C1874 C1862 1.349 . S
C1874 H1868 0.950 . S
C1874 C1875 1.327 . S
C1875 H1869 0.950 . S
C1875 C1874 1.327 . S
C1875 C1879 1.429 . S
C1876 C1859 1.574 . S
C1876 H1870 0.949 . S
C1876 C1880 1.368 . S
C1877 C1858 1.429 . S
C1877 C1871 1.429 . S
C1877 C1878 1.523 . S
C1878 C1859 1.368 . S
C1878 C1872 1.368 . S
C1878 C1877 1.523 . S
C1879 C1863 1.429 . S
C1879 C1875 1.429 . S
C1879 C1880 1.523 . S
C1880 C1864 1.368 . S
C1880 C1876 1.368 . S
C1880 C1879 1.523 . S
H1881 C1856 0.950 . S
H1882 C1858 0.950 . S
H1883 C1859 0.949 . S
H1884 C1861 0.950 . S
H1885 C1863 0.950 . S
C1886 C1887 1.349 . S
C1886 C1888 1.327 . S
C1886 H1911 0.950 . S
C1887 C1886 1.349 . S
C1887 C1903 1.349 . S
C1888 C1886 1.327 . S
C1888 C1907 1.429 . S
C1888 H1912 0.950 . S
C1889 C1906 1.574 . S
C1889 C1908 1.368 . S
C1889 H1913 0.949 . S
H1890 C1894 0.949 . S
C1891 C1892 1.349 . S
C1891 C1893 1.327 . S
C1891 H1914 0.950 . S
C1892 C1891 1.349 . S
C1892 C1904 1.349 . S
C1893 C1891 1.327 . S
C1893 C1909 1.429 . S
C1893 H1915 0.950 . S
C1894 H1890 0.949 . S
C1894 C1902 1.574 . S
C1894 C1910 1.368 . S
H1895 C1903 0.950 . S
H1896 C1901 0.950 . S
H1897 C1902 0.949 . S
H1898 C1904 0.950 . S
H1899 C1905 0.950 . S
H1900 C1906 0.949 . S
C1901 H1896 0.950 . S
C1901 C1903 1.327 . S
C1901 C1907 1.429 . S
C1902 C1894 1.574 . S
C1902 H1897 0.949 . S
C1902 C1908 1.368 . S
C1903 C1887 1.349 . S
C1903 H1895 0.950 . S
C1903 C1901 1.327 . S
C1904 C1892 1.349 . S
C1904 H1898 0.950 . S
C1904 C1905 1.327 . S
C1905 H1899 0.950 . S
C1905 C1904 1.327 . S
C1905 C1909 1.429 . S
C1906 C1889 1.574 . S
C1906 H1900 0.949 . S
C1906 C1910 1.368 . S
C1907 C1888 1.429 . S
C1907 C1901 1.429 . S
C1907 C1908 1.523 . S
C1908 C1889 1.368 . S
C1908 C1902 1.368 . S
C1908 C1907 1.523 . S
C1909 C1893 1.429 . S
C1909 C1905 1.429 . S
C1909 C1910 1.523 . S
C1910 C1894 1.368 . S
C1910 C1906 1.368 . S
C1910 C1909 1.523 . S
H1911 C1886 0.950 . S
H1912 C1888 0.950 . S
H1913 C1889 0.949 . S
H1914 C1891 0.950 . S
H1915 C1893 0.950 . S
C1916 C1917 1.349 . S
C1916 C1918 1.327 . S
C1916 H1941 0.950 . S
C1917 C1916 1.349 . S
C1917 C1933 1.349 . S
C1918 C1916 1.327 . S
C1918 C1937 1.429 . S
C1918 H1942 0.950 . S
C1919 C1936 1.574 . S
C1919 C1938 1.368 . S
C1919 H1943 0.949 . S
H1920 C1924 0.949 . S
C1921 C1922 1.349 . S
C1921 C1923 1.327 . S
C1921 H1944 0.950 . S
C1922 C1921 1.349 . S
C1922 C1934 1.349 . S
C1923 C1921 1.327 . S
C1923 C1939 1.429 . S
C1923 H1945 0.950 . S
C1924 H1920 0.949 . S
C1924 C1932 1.574 . S
C1924 C1940 1.368 . S
H1925 C1933 0.950 . S
H1926 C1931 0.950 . S
H1927 C1932 0.949 . S
H1928 C1934 0.950 . S
H1929 C1935 0.950 . S
H1930 C1936 0.949 . S
C1931 H1926 0.950 . S
C1931 C1933 1.327 . S
C1931 C1937 1.429 . S
C1932 C1924 1.574 . S
C1932 H1927 0.949 . S
C1932 C1938 1.368 . S
C1933 C1917 1.349 . S
C1933 H1925 0.950 . S
C1933 C1931 1.327 . S
C1934 C1922 1.349 . S
C1934 H1928 0.950 . S
C1934 C1935 1.327 . S
C1935 H1929 0.950 . S
C1935 C1934 1.327 . S
C1935 C1939 1.429 . S
C1936 C1919 1.574 . S
C1936 H1930 0.949 . S
C1936 C1940 1.368 . S
C1937 C1918 1.429 . S
C1937 C1931 1.429 . S
C1937 C1938 1.523 . S
C1938 C1919 1.368 . S
C1938 C1932 1.368 . S
C1938 C1937 1.523 . S
C1939 C1923 1.429 . S
C1939 C1935 1.429 . S
C1939 C1940 1.523 . S
C1940 C1924 1.368 . S
C1940 C1936 1.368 . S
C1940 C1939 1.523 . S
H1941 C1916 0.950 . S
H1942 C1918 0.950 . S
H1943 C1919 0.949 . S
H1944 C1921 0.950 . S
H1945 C1923 0.950 . S
C1946 C1947 1.349 . S
C1946 C1948 1.327 . S
C1946 H1971 0.950 . S
C1947 C1946 1.349 . S
C1947 C1963 1.349 . S
C1948 C1946 1.327 . S
C1948 C1967 1.429 . S
C1948 H1972 0.950 . S
C1949 C1966 1.574 . S
C1949 C1968 1.368 . S
C1949 H1973 0.949 . S
H1950 C1954 0.949 . S
C1951 C1952 1.349 . S
C1951 C1953 1.327 . S
C1951 H1974 0.950 . S
C1952 C1951 1.349 . S
C1952 C1964 1.349 1_554 S
C1953 C1951 1.327 . S
C1953 C1969 1.429 1_554 S
C1953 H1975 0.950 . S
C1954 H1950 0.949 . S
C1954 C1962 1.574 . S
C1954 C1970 1.368 . S
H1955 C1963 0.950 . S
H1956 C1961 0.950 . S
H1957 C1962 0.949 . S
H1958 C1964 0.950 . S
H1959 C1965 0.950 . S
H1960 C1966 0.949 . S
C1961 H1956 0.950 . S
C1961 C1963 1.327 . S
C1961 C1967 1.429 . S
C1962 C1954 1.574 . S
C1962 H1957 0.949 . S
C1962 C1968 1.368 . S
C1963 C1947 1.349 . S
C1963 H1955 0.950 . S
C1963 C1961 1.327 . S
C1964 C1952 1.349 1_556 S
C1964 H1958 0.950 . S
C1964 C1965 1.327 . S
C1965 H1959 0.950 . S
C1965 C1964 1.327 . S
C1965 C1969 1.429 . S
C1966 C1949 1.574 . S
C1966 H1960 0.949 . S
C1966 C1970 1.368 . S
C1967 C1948 1.429 . S
C1967 C1961 1.429 . S
C1967 C1968 1.523 . S
C1968 C1949 1.368 . S
C1968 C1962 1.368 . S
C1968 C1967 1.523 . S
C1969 C1953 1.429 1_556 S
C1969 C1965 1.429 . S
C1969 C1970 1.523 . S
C1970 C1954 1.368 . S
C1970 C1966 1.368 . S
C1970 C1969 1.523 . S
H1971 C1946 0.950 . S
H1972 C1948 0.950 . S
H1973 C1949 0.949 . S
H1974 C1951 0.950 . S
H1975 C1953 0.950 . S
C1976 C1977 1.349 . S
C1976 C1978 1.327 . S
C1976 H2001 0.950 . S
C1977 C1976 1.349 . S
C1977 C1993 1.349 . S
C1978 C1976 1.327 . S
C1978 C1997 1.429 . S
C1978 H2002 0.950 . S
C1979 C1996 1.574 . S
C1979 C1998 1.368 . S
C1979 H2003 0.949 . S
H1980 C1984 0.949 . S
C1981 C1982 1.349 . S
C1981 C1983 1.327 . S
C1981 H2004 0.950 . S
C1982 C1981 1.349 . S
C1982 C1994 1.349 . S
C1983 C1981 1.327 . S
C1983 C1999 1.429 . S
C1983 H2005 0.950 . S
C1984 H1980 0.949 . S
C1984 C1992 1.574 . S
C1984 C2000 1.368 . S
H1985 C1993 0.950 . S
H1986 C1991 0.950 . S
H1987 C1992 0.949 . S
H1988 C1994 0.950 . S
H1989 C1995 0.950 . S
H1990 C1996 0.949 . S
C1991 H1986 0.950 . S
C1991 C1993 1.327 . S
C1991 C1997 1.429 . S
C1992 C1984 1.574 . S
C1992 H1987 0.949 . S
C1992 C1998 1.368 . S
C1993 C1977 1.349 . S
C1993 H1985 0.950 . S
C1993 C1991 1.327 . S
C1994 C1982 1.349 . S
C1994 H1988 0.950 . S
C1994 C1995 1.327 . S
C1995 H1989 0.950 . S
C1995 C1994 1.327 . S
C1995 C1999 1.429 . S
C1996 C1979 1.574 . S
C1996 H1990 0.949 . S
C1996 C2000 1.368 . S
C1997 C1978 1.429 . S
C1997 C1991 1.429 . S
C1997 C1998 1.523 . S
C1998 C1979 1.368 . S
C1998 C1992 1.368 . S
C1998 C1997 1.523 . S
C1999 C1983 1.429 . S
C1999 C1995 1.429 . S
C1999 C2000 1.523 . S
C2000 C1984 1.368 . S
C2000 C1996 1.368 . S
C2000 C1999 1.523 . S
H2001 C1976 0.950 . S
H2002 C1978 0.950 . S
H2003 C1979 0.949 . S
H2004 C1981 0.950 . S
H2005 C1983 0.950 . S
C2006 C2007 1.349 . S
C2006 C2008 1.327 . S
C2006 H2031 0.950 . S
C2007 C2006 1.349 . S
C2007 C2023 1.349 . S
C2008 C2006 1.327 . S
C2008 C2027 1.429 . S
C2008 H2032 0.950 . S
C2009 C2026 1.574 . S
C2009 C2028 1.368 . S
C2009 H2033 0.949 . S
H2010 C2014 0.949 . S
C2011 C2012 1.349 . S
C2011 C2013 1.327 . S
C2011 H2034 0.950 . S
C2012 C2011 1.349 . S
C2012 C2024 1.349 . S
C2013 C2011 1.327 . S
C2013 C2029 1.429 . S
C2013 H2035 0.950 . S
C2014 H2010 0.949 . S
C2014 C2022 1.574 . S
C2014 C2030 1.368 . S
H2015 C2023 0.950 . S
H2016 C2021 0.950 . S
H2017 C2022 0.949 . S
H2018 C2024 0.950 . S
H2019 C2025 0.950 . S
H2020 C2026 0.949 . S
C2021 H2016 0.950 . S
C2021 C2023 1.327 . S
C2021 C2027 1.429 . S
C2022 C2014 1.574 . S
C2022 H2017 0.949 . S
C2022 C2028 1.368 . S
C2023 C2007 1.349 . S
C2023 H2015 0.950 . S
C2023 C2021 1.327 . S
C2024 C2012 1.349 . S
C2024 H2018 0.950 . S
C2024 C2025 1.327 . S
C2025 H2019 0.950 . S
C2025 C2024 1.327 . S
C2025 C2029 1.429 . S
C2026 C2009 1.574 . S
C2026 H2020 0.949 . S
C2026 C2030 1.368 . S
C2027 C2008 1.429 . S
C2027 C2021 1.429 . S
C2027 C2028 1.523 . S
C2028 C2009 1.368 . S
C2028 C2022 1.368 . S
C2028 C2027 1.523 . S
C2029 C2013 1.429 . S
C2029 C2025 1.429 . S
C2029 C2030 1.523 . S
C2030 C2014 1.368 . S
C2030 C2026 1.368 . S
C2030 C2029 1.523 . S
H2031 C2006 0.950 . S
H2032 C2008 0.950 . S
H2033 C2009 0.949 . S
H2034 C2011 0.950 . S
H2035 C2013 0.950 . S
C2036 C2037 1.349 . S
C2036 C2038 1.327 . S
C2036 H2061 0.950 . S
C2037 C2036 1.349 . S
C2037 C2053 1.349 . S
C2038 C2036 1.327 . S
C2038 C2057 1.429 . S
C2038 H2062 0.950 . S
C2039 C2056 1.574 . S
C2039 C2058 1.368 . S
C2039 H2063 0.949 . S
H2040 C2044 0.949 . S
C2041 C2042 1.349 1_556 S
C2041 C2043 1.327 . S
C2041 H2064 0.950 . S
C2042 C2041 1.349 1_554 S
C2042 C2054 1.349 . S
C2043 C2041 1.327 . S
C2043 C2059 1.429 . S
C2043 H2065 0.950 . S
C2044 H2040 0.949 . S
C2044 C2052 1.574 . S
C2044 C2060 1.368 . S
H2045 C2053 0.950 . S
H2046 C2051 0.950 . S
H2047 C2052 0.949 . S
H2048 C2054 0.950 . S
H2049 C2055 0.950 . S
H2050 C2056 0.949 . S
C2051 H2046 0.950 . S
C2051 C2053 1.327 . S
C2051 C2057 1.429 . S
C2052 C2044 1.574 . S
C2052 H2047 0.949 . S
C2052 C2058 1.368 . S
C2053 C2037 1.349 . S
C2053 H2045 0.950 . S
C2053 C2051 1.327 . S
C2054 C2042 1.349 . S
C2054 H2048 0.950 . S
C2054 C2055 1.327 . S
C2055 H2049 0.950 . S
C2055 C2054 1.327 . S
C2055 C2059 1.429 1_554 S
C2056 C2039 1.574 . S
C2056 H2050 0.949 . S
C2056 C2060 1.368 . S
C2057 C2038 1.429 . S
C2057 C2051 1.429 . S
C2057 C2058 1.523 . S
C2058 C2039 1.368 . S
C2058 C2052 1.368 . S
C2058 C2057 1.523 . S
C2059 C2043 1.429 . S
C2059 C2055 1.429 1_556 S
C2059 C2060 1.523 . S
C2060 C2044 1.368 . S
C2060 C2056 1.368 . S
C2060 C2059 1.523 . S
H2061 C2036 0.950 . S
H2062 C2038 0.950 . S
H2063 C2039 0.949 . S
H2064 C2041 0.950 . S
H2065 C2043 0.950 . S
C2066 C2067 1.349 . S
C2066 C2068 1.327 . S
C2066 H2091 0.950 . S
C2067 C2066 1.349 . S
C2067 C2083 1.349 . S
C2068 C2066 1.327 . S
C2068 C2087 1.429 . S
C2068 H2092 0.950 . S
C2069 C2086 1.574 . S
C2069 C2088 1.368 . S
C2069 H2093 0.949 . S
H2070 C2074 0.949 . S
C2071 C2072 1.349 . S
C2071 C2073 1.327 . S
C2071 H2094 0.950 . S
C2072 C2071 1.349 . S
C2072 C2084 1.349 . S
C2073 C2071 1.327 . S
C2073 C2089 1.429 . S
C2073 H2095 0.950 . S
C2074 H2070 0.949 . S
C2074 C2082 1.574 . S
C2074 C2090 1.368 . S
H2075 C2083 0.950 . S
H2076 C2081 0.950 . S
H2077 C2082 0.949 . S
H2078 C2084 0.950 . S
H2079 C2085 0.950 . S
H2080 C2086 0.949 . S
C2081 H2076 0.950 . S
C2081 C2083 1.327 . S
C2081 C2087 1.429 . S
C2082 C2074 1.574 . S
C2082 H2077 0.949 . S
C2082 C2088 1.368 . S
C2083 C2067 1.349 . S
C2083 H2075 0.950 . S
C2083 C2081 1.327 . S
C2084 C2072 1.349 . S
C2084 H2078 0.950 . S
C2084 C2085 1.327 . S
C2085 H2079 0.950 . S
C2085 C2084 1.327 . S
C2085 C2089 1.429 . S
C2086 C2069 1.574 . S
C2086 H2080 0.949 . S
C2086 C2090 1.368 . S
C2087 C2068 1.429 . S
C2087 C2081 1.429 . S
C2087 C2088 1.523 . S
C2088 C2069 1.368 . S
C2088 C2082 1.368 . S
C2088 C2087 1.523 . S
C2089 C2073 1.429 . S
C2089 C2085 1.429 . S
C2089 C2090 1.523 . S
C2090 C2074 1.368 . S
C2090 C2086 1.368 . S
C2090 C2089 1.523 . S
H2091 C2066 0.950 . S
H2092 C2068 0.950 . S
H2093 C2069 0.949 . S
H2094 C2071 0.950 . S
H2095 C2073 0.950 . S
C2096 C2097 1.349 1_556 S
C2096 C2098 1.327 . S
C2096 H2121 0.950 . S
C2097 C2096 1.349 1_554 S
C2097 C2113 1.349 . S
C2098 C2096 1.327 . S
C2098 C2117 1.429 . S
C2098 H2122 0.950 . S
C2099 C2116 1.574 . S
C2099 C2118 1.368 . S
C2099 H2123 0.949 . S
H2100 C2104 0.949 . S
C2101 C2102 1.349 . S
C2101 C2103 1.327 . S
C2101 H2124 0.950 . S
C2102 C2101 1.349 . S
C2102 C2114 1.349 . S
C2103 C2101 1.327 . S
C2103 C2119 1.429 . S
C2103 H2125 0.950 . S
C2104 H2100 0.949 . S
C2104 C2112 1.574 . S
C2104 C2120 1.368 . S
H2105 C2113 0.950 . S
H2106 C2111 0.945 1_554 S
H2107 C2112 0.949 . S
H2108 C2114 0.950 . S
H2109 C2115 0.950 . S
H2110 C2116 0.949 . S
C2111 H2106 0.945 1_556 S
C2111 C2113 1.327 1_556 S
C2111 C2117 1.429 . S
C2112 C2104 1.574 . S
C2112 H2107 0.949 . S
C2112 C2118 1.368 . S
C2113 C2097 1.349 . S
C2113 H2105 0.950 . S
C2113 C2111 1.327 1_554 S
C2114 C2102 1.349 . S
C2114 H2108 0.950 . S
C2114 C2115 1.327 . S
C2115 H2109 0.950 . S
C2115 C2114 1.327 . S
C2115 C2119 1.429 . S
C2116 C2099 1.574 . S
C2116 H2110 0.949 . S
C2116 C2120 1.368 . S
C2117 C2098 1.429 . S
C2117 C2111 1.429 . S
C2117 C2118 1.523 . S
C2118 C2099 1.368 . S
C2118 C2112 1.368 . S
C2118 C2117 1.523 . S
C2119 C2103 1.429 . S
C2119 C2115 1.429 . S
C2119 C2120 1.523 . S
C2120 C2104 1.368 . S
C2120 C2116 1.368 . S
C2120 C2119 1.523 . S
H2121 C2096 0.950 . S
H2122 C2098 0.950 . S
H2123 C2099 0.949 . S
H2124 C2101 0.950 . S
H2125 C2103 0.950 . S
C2126 C2127 1.349 . S
C2126 C2128 1.327 . S
C2126 H2151 0.950 . S
C2127 C2126 1.349 . S
C2127 C2143 1.349 . S
C2128 C2126 1.327 . S
C2128 C2147 1.429 . S
C2128 H2152 0.950 . S
C2129 C2146 1.574 . S
C2129 C2148 1.368 . S
C2129 H2153 0.949 . S
H2130 C2134 0.949 . S
C2131 C2132 1.349 . S
C2131 C2133 1.327 . S
C2131 H2154 0.950 . S
C2132 C2131 1.349 . S
C2132 C2144 1.349 . S
C2133 C2131 1.327 . S
C2133 C2149 1.429 . S
C2133 H2155 0.950 . S
C2134 H2130 0.949 . S
C2134 C2142 1.574 . S
C2134 C2150 1.368 . S
H2135 C2143 0.950 . S
H2136 C2141 0.950 . S
H2137 C2142 0.949 . S
H2138 C2144 0.950 . S
H2139 C2145 0.950 . S
H2140 C2146 0.949 . S
C2141 H2136 0.950 . S
C2141 C2143 1.327 . S
C2141 C2147 1.429 . S
C2142 C2134 1.574 . S
C2142 H2137 0.949 . S
C2142 C2148 1.368 . S
C2143 C2127 1.349 . S
C2143 H2135 0.950 . S
C2143 C2141 1.327 . S
C2144 C2132 1.349 . S
C2144 H2138 0.950 . S
C2144 C2145 1.327 . S
C2145 H2139 0.950 . S
C2145 C2144 1.327 . S
C2145 C2149 1.429 . S
C2146 C2129 1.574 . S
C2146 H2140 0.949 . S
C2146 C2150 1.368 . S
C2147 C2128 1.429 . S
C2147 C2141 1.429 . S
C2147 C2148 1.523 . S
C2148 C2129 1.368 . S
C2148 C2142 1.368 . S
C2148 C2147 1.523 . S
C2149 C2133 1.429 . S
C2149 C2145 1.429 . S
C2149 C2150 1.523 . S
C2150 C2134 1.368 . S
C2150 C2146 1.368 . S
C2150 C2149 1.523 . S
H2151 C2126 0.950 . S
H2152 C2128 0.950 . S
H2153 C2129 0.949 . S
H2154 C2131 0.950 . S
H2155 C2133 0.950 . S
C2156 C2157 1.349 . S
C2156 C2158 1.327 . S
C2156 H2181 0.950 . S
C2157 C2156 1.349 . S
C2157 C2173 1.349 . S
C2158 C2156 1.327 . S
C2158 C2177 1.429 . S
C2158 H2182 0.950 . S
C2159 C2176 1.574 . S
C2159 C2178 1.368 . S
C2159 H2183 0.949 . S
H2160 C2164 0.949 . S
C2161 C2162 1.349 . S
C2161 C2163 1.327 . S
C2161 H2184 0.950 . S
C2162 C2161 1.349 . S
C2162 C2174 1.349 . S
C2163 C2161 1.327 . S
C2163 C2179 1.429 . S
C2163 H2185 0.950 . S
C2164 H2160 0.949 . S
C2164 C2172 1.574 . S
C2164 C2180 1.368 . S
H2165 C2173 0.950 . S
H2166 C2171 0.950 . S
H2167 C2172 0.949 . S
H2168 C2174 0.950 . S
H2169 C2175 0.950 . S
H2170 C2176 0.949 . S
C2171 H2166 0.950 . S
C2171 C2173 1.327 . S
C2171 C2177 1.429 . S
C2172 C2164 1.574 . S
C2172 H2167 0.949 . S
C2172 C2178 1.368 . S
C2173 C2157 1.349 . S
C2173 H2165 0.950 . S
C2173 C2171 1.327 . S
C2174 C2162 1.349 . S
C2174 H2168 0.950 . S
C2174 C2175 1.327 . S
C2175 H2169 0.950 . S
C2175 C2174 1.327 . S
C2175 C2179 1.429 . S
C2176 C2159 1.574 . S
C2176 H2170 0.949 . S
C2176 C2180 1.368 . S
C2177 C2158 1.429 . S
C2177 C2171 1.429 . S
C2177 C2178 1.523 . S
C2178 C2159 1.368 . S
C2178 C2172 1.368 . S
C2178 C2177 1.523 . S
C2179 C2163 1.429 . S
C2179 C2175 1.429 . S
C2179 C2180 1.523 . S
C2180 C2164 1.368 . S
C2180 C2176 1.368 . S
C2180 C2179 1.523 . S
H2181 C2156 0.950 . S
H2182 C2158 0.950 . S
H2183 C2159 0.949 . S
H2184 C2161 0.950 . S
H2185 C2163 0.950 . S
C2186 C2187 1.349 . S
C2186 C2188 1.327 . S
C2186 H2211 0.950 . S
C2187 C2186 1.349 . S
C2187 C2203 1.349 . S
C2188 C2186 1.327 . S
C2188 C2207 1.429 . S
C2188 H2212 0.950 . S
C2189 C2206 1.574 . S
C2189 C2208 1.368 . S
C2189 H2213 0.949 . S
H2190 C2194 0.949 . S
C2191 C2192 1.349 . S
C2191 C2193 1.327 . S
C2191 H2214 0.950 . S
C2192 C2191 1.349 . S
C2192 C2204 1.349 . S
C2193 C2191 1.327 . S
C2193 C2209 1.429 . S
C2193 H2215 0.950 . S
C2194 H2190 0.949 . S
C2194 C2202 1.574 . S
C2194 C2210 1.368 . S
H2195 C2203 0.950 . S
H2196 C2201 0.950 . S
H2197 C2202 0.949 . S
H2198 C2204 0.950 . S
H2199 C2205 0.950 . S
H2200 C2206 0.949 . S
C2201 H2196 0.950 . S
C2201 C2203 1.327 . S
C2201 C2207 1.429 . S
C2202 C2194 1.574 . S
C2202 H2197 0.949 . S
C2202 C2208 1.368 . S
C2203 C2187 1.349 . S
C2203 H2195 0.950 . S
C2203 C2201 1.327 . S
C2204 C2192 1.349 . S
C2204 H2198 0.950 . S
C2204 C2205 1.327 . S
C2205 H2199 0.950 . S
C2205 C2204 1.327 . S
C2205 C2209 1.429 . S
C2206 C2189 1.574 . S
C2206 H2200 0.949 . S
C2206 C2210 1.368 . S
C2207 C2188 1.429 . S
C2207 C2201 1.429 . S
C2207 C2208 1.523 . S
C2208 C2189 1.368 . S
C2208 C2202 1.368 . S
C2208 C2207 1.523 . S
C2209 C2193 1.429 . S
C2209 C2205 1.429 . S
C2209 C2210 1.523 . S
C2210 C2194 1.368 . S
C2210 C2206 1.368 . S
C2210 C2209 1.523 . S
H2211 C2186 0.950 . S
H2212 C2188 0.950 . S
H2213 C2189 0.949 . S
H2214 C2191 0.950 . S
H2215 C2193 0.950 . S
C2216 C2217 1.349 . S
C2216 C2218 1.327 . S
C2216 H2241 0.950 . S
C2217 C2216 1.349 . S
C2217 C2233 1.349 . S
C2218 C2216 1.327 . S
C2218 C2237 1.429 . S
C2218 H2242 0.950 . S
C2219 C2236 1.574 . S
C2219 C2238 1.368 . S
C2219 H2243 0.949 . S
H2220 C2224 0.949 . S
C2221 C2222 1.349 . S
C2221 C2223 1.327 . S
C2221 H2244 0.950 . S
C2222 C2221 1.349 . S
C2222 C2234 1.349 . S
C2223 C2221 1.327 . S
C2223 C2239 1.429 . S
C2223 H2245 0.950 . S
C2224 H2220 0.949 . S
C2224 C2232 1.574 . S
C2224 C2240 1.368 . S
H2225 C2233 0.950 . S
H2226 C2231 0.950 . S
H2227 C2232 0.949 . S
H2228 C2234 0.950 . S
H2229 C2235 0.950 . S
H2230 C2236 0.949 . S
C2231 H2226 0.950 . S
C2231 C2233 1.327 . S
C2231 C2237 1.429 . S
C2232 C2224 1.574 . S
C2232 H2227 0.949 . S
C2232 C2238 1.368 . S
C2233 C2217 1.349 . S
C2233 H2225 0.950 . S
C2233 C2231 1.327 . S
C2234 C2222 1.349 . S
C2234 H2228 0.950 . S
C2234 C2235 1.327 . S
C2235 H2229 0.950 . S
C2235 C2234 1.327 . S
C2235 C2239 1.429 . S
C2236 C2219 1.574 . S
C2236 H2230 0.949 . S
C2236 C2240 1.368 . S
C2237 C2218 1.429 . S
C2237 C2231 1.429 . S
C2237 C2238 1.523 . S
C2238 C2219 1.368 . S
C2238 C2232 1.368 . S
C2238 C2237 1.523 . S
C2239 C2223 1.429 . S
C2239 C2235 1.429 . S
C2239 C2240 1.523 . S
C2240 C2224 1.368 . S
C2240 C2236 1.368 . S
C2240 C2239 1.523 . S
H2241 C2216 0.950 . S
H2242 C2218 0.950 . S
H2243 C2219 0.949 . S
H2244 C2221 0.950 . S
H2245 C2223 0.950 . S
C2246 C2247 1.349 . S
C2246 C2248 1.327 . S
C2246 H2271 0.950 . S
C2247 C2246 1.349 . S
C2247 C2263 1.349 . S
C2248 C2246 1.327 . S
C2248 C2267 1.429 . S
C2248 H2272 0.950 . S
C2249 C2266 1.574 . S
C2249 C2268 1.368 . S
C2249 H2273 0.949 . S
H2250 C2254 0.949 . S
C2251 C2252 1.349 . S
C2251 C2253 1.327 . S
C2251 H2274 0.950 . S
C2252 C2251 1.349 . S
C2252 C2264 1.349 . S
C2253 C2251 1.327 . S
C2253 C2269 1.429 . S
C2253 H2275 0.950 . S
C2254 H2250 0.949 . S
C2254 C2262 1.574 . S
C2254 C2270 1.368 . S
H2255 C2263 0.950 . S
H2256 C2261 0.950 . S
H2257 C2262 0.949 . S
H2258 C2264 0.950 . S
H2259 C2265 0.950 . S
H2260 C2266 0.949 . S
C2261 H2256 0.950 . S
C2261 C2263 1.327 . S
C2261 C2267 1.429 . S
C2262 C2254 1.574 . S
C2262 H2257 0.949 . S
C2262 C2268 1.368 . S
C2263 C2247 1.349 . S
C2263 H2255 0.950 . S
C2263 C2261 1.327 . S
C2264 C2252 1.349 . S
C2264 H2258 0.950 . S
C2264 C2265 1.327 . S
C2265 H2259 0.950 . S
C2265 C2264 1.327 . S
C2265 C2269 1.429 . S
C2266 C2249 1.574 . S
C2266 H2260 0.949 . S
C2266 C2270 1.368 . S
C2267 C2248 1.429 . S
C2267 C2261 1.429 . S
C2267 C2268 1.523 . S
C2268 C2249 1.368 . S
C2268 C2262 1.368 . S
C2268 C2267 1.523 . S
C2269 C2253 1.429 . S
C2269 C2265 1.429 . S
C2269 C2270 1.523 . S
C2270 C2254 1.368 . S
C2270 C2266 1.368 . S
C2270 C2269 1.523 . S
H2271 C2246 0.950 . S
H2272 C2248 0.950 . S
H2273 C2249 0.949 . S
H2274 C2251 0.950 . S
H2275 C2253 0.950 . S
C2276 C2277 1.349 . S
C2276 C2278 1.327 . S
C2276 H2301 0.950 . S
C2277 C2276 1.349 . S
C2277 C2293 1.349 . S
C2278 C2276 1.327 . S
C2278 C2297 1.429 . S
C2278 H2302 0.950 . S
C2279 C2296 1.574 . S
C2279 C2298 1.368 . S
C2279 H2303 0.949 . S
H2280 C2284 0.949 . S
C2281 C2282 1.349 . S
C2281 C2283 1.327 . S
C2281 H2304 0.950 . S
C2282 C2281 1.349 . S
C2282 C2294 1.349 . S
C2283 C2281 1.327 . S
C2283 C2299 1.429 . S
C2283 H2305 0.950 . S
C2284 H2280 0.949 . S
C2284 C2292 1.574 . S
C2284 C2300 1.368 . S
H2285 C2293 0.950 . S
H2286 C2291 0.950 . S
H2287 C2292 0.949 . S
H2288 C2294 0.950 . S
H2289 C2295 0.950 . S
H2290 C2296 0.949 . S
C2291 H2286 0.950 . S
C2291 C2293 1.327 . S
C2291 C2297 1.429 . S
C2292 C2284 1.574 . S
C2292 H2287 0.949 . S
C2292 C2298 1.368 . S
C2293 C2277 1.349 . S
C2293 H2285 0.950 . S
C2293 C2291 1.327 . S
C2294 C2282 1.349 . S
C2294 H2288 0.950 . S
C2294 C2295 1.327 . S
C2295 H2289 0.950 . S
C2295 C2294 1.327 . S
C2295 C2299 1.429 . S
C2296 C2279 1.574 . S
C2296 H2290 0.949 . S
C2296 C2300 1.368 . S
C2297 C2278 1.429 . S
C2297 C2291 1.429 . S
C2297 C2298 1.523 . S
C2298 C2279 1.368 . S
C2298 C2292 1.368 . S
C2298 C2297 1.523 . S
C2299 C2283 1.429 . S
C2299 C2295 1.429 . S
C2299 C2300 1.523 . S
C2300 C2284 1.368 . S
C2300 C2296 1.368 . S
C2300 C2299 1.523 . S
H2301 C2276 0.950 . S
H2302 C2278 0.950 . S
H2303 C2279 0.949 . S
H2304 C2281 0.950 . S
H2305 C2283 0.950 . S
C2306 C2307 1.349 . S
C2306 C2308 1.327 . S
C2306 H2331 0.950 . S
C2307 C2306 1.349 . S
C2307 C2323 1.349 . S
C2308 C2306 1.327 . S
C2308 C2327 1.429 . S
C2308 H2332 0.950 . S
C2309 C2326 1.574 . S
C2309 C2328 1.368 . S
C2309 H2333 0.949 . S
H2310 C2314 0.949 . S
C2311 C2312 1.349 1_556 S
C2311 C2313 1.327 . S
C2311 H2334 0.950 . S
C2312 C2311 1.349 1_554 S
C2312 C2324 1.349 . S
C2313 C2311 1.327 . S
C2313 C2329 1.429 . S
C2313 H2335 0.950 . S
C2314 H2310 0.949 . S
C2314 C2322 1.574 . S
C2314 C2330 1.368 . S
H2315 C2323 0.950 . S
H2316 C2321 0.950 . S
H2317 C2322 0.949 . S
H2318 C2324 0.950 . S
H2319 C2325 0.950 . S
H2320 C2326 0.949 . S
C2321 H2316 0.950 . S
C2321 C2323 1.327 . S
C2321 C2327 1.429 . S
C2322 C2314 1.574 . S
C2322 H2317 0.949 . S
C2322 C2328 1.368 . S
C2323 C2307 1.349 . S
C2323 H2315 0.950 . S
C2323 C2321 1.327 . S
C2324 C2312 1.349 . S
C2324 H2318 0.950 . S
C2324 C2325 1.327 1_554 S
C2325 H2319 0.950 . S
C2325 C2324 1.327 1_556 S
C2325 C2329 1.429 . S
C2326 C2309 1.574 . S
C2326 H2320 0.949 . S
C2326 C2330 1.368 . S
C2327 C2308 1.429 . S
C2327 C2321 1.429 . S
C2327 C2328 1.523 . S
C2328 C2309 1.368 . S
C2328 C2322 1.368 . S
C2328 C2327 1.523 . S
C2329 C2313 1.429 . S
C2329 C2325 1.429 . S
C2329 C2330 1.523 . S
C2330 C2314 1.368 . S
C2330 C2326 1.368 . S
C2330 C2329 1.523 . S
H2331 C2306 0.950 . S
H2332 C2308 0.950 . S
H2333 C2309 0.949 . S
H2334 C2311 0.950 . S
H2335 C2313 0.950 . S
C417 C109 1.477 . S
C422 C3 1.477 . S
C447 C18 1.477 . S
C452 C328 1.477 . S
C477 C31 1.477 . S
C482 C135 1.477 . S
C507 C44 1.477 . S
C512 C356 1.477 . S
C537 C55 1.477 . S
C542 C159 1.477 . S
C567 C382 1.477 . S
C572 C68 1.477 . S
C597 C185 1.477 . S
C602 C81 1.477 . S
C627 C406 1.477 . S
C632 C96 1.477 . S
C657 C224 1.477 . S
C662 C122 1.477 . S
C687 C148 1.477 . S
C692 C252 1.477 . S
C717 C172 1.477 . S
C722 C276 1.477 . S
C747 C302 1.477 . S
C752 C198 1.477 . S
C777 C315 1.477 . S
C782 C211 1.477 . S
C807 C237 1.477 . S
C812 C343 1.477 . S
C837 C265 1.477 . S
C842 C367 1.477 . S
C867 C393 1.477 . S
C872 C289 1.477 . S
C897 C5 1.608 1_556 S
C902 C57 1.608 . S
C927 C70 1.608 . S
C932 C16 1.608 . S
C957 C83 1.608 . S
C962 C29 1.608 . S
C987 C42 1.608 . S
C992 C94 1.608 . S
C1017 C107 1.608 . S
C1022 C161 1.608 . S
C1047 C120 1.608 . S
C1052 C174 1.608 . S
C1077 C187 1.608 1_556 S
C1082 C133 1.608 . S
C1107 C200 1.608 . S
C1112 C146 1.608 . S
C1137 C263 1.608 . S
C1142 C213 1.608 . S
C1167 C278 1.608 . S
C1172 C226 1.608 . S
C1197 C239 1.608 1_556 S
C1202 C291 1.608 . S
C1227 C304 1.608 . S
C1232 C250 1.608 . S
C1257 C369 1.608 1_556 S
C1262 C317 1.608 . S
C1287 C330 1.608 . S
C1292 C380 1.608 . S
C1317 C395 1.608 . S
C1322 C341 1.608 . S
C1347 C408 1.608 . S
C1352 C354 1.608 . S
C1377 C56 0.380 . S
C1382 C4 0.380 . S
C1407 C69 0.380 . S
C1412 C23 0.380 . S
C1437 C36 0.380 . S
C1442 C82 0.380 . S
C1467 C101 0.380 . S
C1472 C49 0.380 . S
C1497 C160 0.380 . S
C1502 C114 0.380 . S
C1527 C127 0.380 . S
C1532 C173 0.380 . S
C1557 C186 0.380 . S
C1562 C140 0.380 . S
C1587 C199 0.380 . S
C1592 C153 0.380 . S
C1617 C212 0.380 . S
C1622 C270 0.380 . S
C1647 C277 0.380 . S
C1652 C225 0.380 . S
C1677 C290 0.380 . S
C1682 C238 0.380 . S
C1707 C303 0.380 . S
C1712 C257 0.380 . S
C1737 C368 0.380 . S
C1742 C316 0.380 . S
C1767 C329 0.380 . S
C1772 C387 0.380 . S
C1797 C348 0.380 . S
C1802 C394 0.380 . S
C1827 C361 0.380 . S
C1832 C407 0.380 . S
C1857 C10 1.477 . S
C1862 C283 1.477 . S
C1887 C296 1.477 . S
C1892 C17 1.477 . S
C1917 C30 1.477 . S
C1922 C309 1.477 . S
C1947 C43 1.477 . S
C1952 C264 1.477 . S
C1977 C251 1.477 . S
C1982 C62 1.477 . S
C2007 C218 1.477 . S
C2012 C75 1.477 . S
C2037 C231 1.477 . S
C2042 C88 1.477 . S
C2067 C95 1.477 . S
C2072 C244 1.477 . S
C2097 C108 1.477 . S
C2102 C381 1.477 . S
C2127 C400 1.477 . S
C2132 C121 1.477 . S
C2157 C413 1.477 . S
C2162 C134 1.477 . S
C2187 C374 1.477 . S
C2192 C147 1.477 . S
C2217 C355 1.477 . S
C2222 C166 1.477 . S
C2247 C322 1.477 . S
C2252 C179 1.477 . S
C2277 C192 1.477 . S
C2282 C335 1.477 . S
C2307 C205 1.477 . S
C2312 C342 1.477 . S
