# Generated by pormake.
# Topology uol, (4)-cn, num edge types: 1
# Building blocks:
#     Node 0, Type 0, BuildingBlock: KUFVIS_clean_sbu_0, # of connection points: 4
#     Node 1, Type 0, BuildingBlock: KUFVIS_clean_sbu_0, # of connection points: 4
#     Node 2, Type 0, BuildingBlock: KUFVIS_clean_sbu_0, # of connection points: 4
#     Node 3, Type 0, BuildingBlock: KUFVIS_clean_sbu_0, # of connection points: 4
#     Node 4, Type 0, BuildingBlock: KUFVIS_clean_sbu_0, # of connection points: 4
#     Node 5, Type 0, BuildingBlock: KUFVIS_clean_sbu_0, # of connection points: 4
#     Node 6, Type 0, BuildingBlock: KUFVIS_clean_sbu_0, # of connection points: 4
#     Node 7, Type 0, BuildingBlock: KUFVIS_clean_sbu_0, # of connection points: 4
#     Node 8, Type 0, BuildingBlock: KUFVIS_clean_sbu_0, # of connection points: 4
#     Node 9, Type 0, BuildingBlock: KUFVIS_clean_sbu_0, # of connection points: 4
#     Node 10, Type 0, BuildingBlock: KUFVIS_clean_sbu_0, # of connection points: 4
#     Node 11, Type 0, BuildingBlock: KUFVIS_clean_sbu_0, # of connection points: 4
#     Edge 12, Type (0, 0), BuildingBlock: TEMPAE_clean_linker_10, # of connection points: 2
#     Edge 13, Type (0, 0), BuildingBlock: TEMPAE_clean_linker_10, # of connection points: 2
#     Edge 14, Type (0, 0), BuildingBlock: TEMPAE_clean_linker_10, # of connection points: 2
#     Edge 15, Type (0, 0), BuildingBlock: TEMPAE_clean_linker_10, # of connection points: 2
#     Edge 16, Type (0, 0), BuildingBlock: TEMPAE_clean_linker_10, # of connection points: 2
#     Edge 17, Type (0, 0), BuildingBlock: TEMPAE_clean_linker_10, # of connection points: 2
#     Edge 18, Type (0, 0), BuildingBlock: TEMPAE_clean_linker_10, # of connection points: 2
#     Edge 19, Type (0, 0), BuildingBlock: TEMPAE_clean_linker_10, # of connection points: 2
#     Edge 20, Type (0, 0), BuildingBlock: TEMPAE_clean_linker_10, # of connection points: 2
#     Edge 21, Type (0, 0), BuildingBlock: TEMPAE_clean_linker_10, # of connection points: 2
#     Edge 22, Type (0, 0), BuildingBlock: TEMPAE_clean_linker_10, # of connection points: 2
#     Edge 23, Type (0, 0), BuildingBlock: TEMPAE_clean_linker_10, # of connection points: 2
#     Edge 24, Type (0, 0), BuildingBlock: TEMPAE_clean_linker_10, # of connection points: 2
#     Edge 25, Type (0, 0), BuildingBlock: TEMPAE_clean_linker_10, # of connection points: 2
#     Edge 26, Type (0, 0), BuildingBlock: TEMPAE_clean_linker_10, # of connection points: 2
#     Edge 27, Type (0, 0), BuildingBlock: TEMPAE_clean_linker_10, # of connection points: 2
#     Edge 28, Type (0, 0), BuildingBlock: TEMPAE_clean_linker_10, # of connection points: 2
#     Edge 29, Type (0, 0), BuildingBlock: TEMPAE_clean_linker_10, # of connection points: 2
#     Edge 30, Type (0, 0), BuildingBlock: TEMPAE_clean_linker_10, # of connection points: 2
#     Edge 31, Type (0, 0), BuildingBlock: TEMPAE_clean_linker_10, # of connection points: 2
#     Edge 32, Type (0, 0), BuildingBlock: TEMPAE_clean_linker_10, # of connection points: 2
#     Edge 33, Type (0, 0), BuildingBlock: TEMPAE_clean_linker_10, # of connection points: 2
#     Edge 34, Type (0, 0), BuildingBlock: TEMPAE_clean_linker_10, # of connection points: 2
#     Edge 35, Type (0, 0), BuildingBlock: TEMPAE_clean_linker_10, # of connection points: 2
# Relax obj value: 0.141
# Max RMSD: 0.196
# Mean RMSD: 0.196
data_MOF--net-uol--node1-KUFVIS_clean_sbu_0--edge1-TEMPAE_clean_linker_10
_symmetry_space_group_name_H-M    P1
_symmetry_Int_Tables_number       1
_symmetry_cell_setting            triclinic
loop_
_symmetry_equiv_pos_as_xyz
'x, y, z'
_cell_length_a     32.262266
_cell_length_b     32.253753
_cell_length_c     68.837796
_cell_angle_alpha  89.985394
_cell_angle_beta   90.013091
_cell_angle_gamma 120.01315
loop_
_atom_site_label
_atom_site_type_symbol
_atom_site_fract_x
_atom_site_fract_y
_atom_site_fract_z
_atom_type_partial_charge
Mn0 Mn 0.10066 0.31092 0.10354 0.0
Mn1 Mn 0.14924 0.38523 0.14176 0.0
C2 C 0.14034 0.29377 0.12737 0.0
C3 C 0.10961 0.29233 0.07174 0.0
C4 C 0.04323 0.31156 0.13883 0.0
O5 O 0.09946 0.37041 0.09484 0.0
O6 O 0.13587 0.41836 0.12041 0.0
C7 C 0.24073 0.45294 0.12264 0.0
N8 N 0.21673 0.42251 0.13754 0.0
C9 C 0.29047 0.43946 0.15297 0.0
C10 C 0.316 0.47128 0.13787 0.0
C11 C 0.29099 0.47782 0.12257 0.0
C12 C 0.24042 0.41503 0.15206 0.0
H13 H 0.22166 0.45812 0.11086 0.0
C14 C 0.11645 0.41041 0.1036 0.0
O15 O 0.06718 0.27688 0.07902 0.0
O16 O 0.14598 0.31892 0.08267 0.0
N17 N 0.16501 0.35934 0.16372 0.0
C18 C 0.1351 0.32815 0.17739 0.0
C19 C 0.1544 0.31833 0.19386 0.0
C20 C 0.20423 0.34136 0.19631 0.0
C21 C 0.23435 0.37392 0.18222 0.0
C22 C 0.21304 0.38219 0.16609 0.0
H23 H 0.09681 0.31059 0.17569 0.0
O24 O 0.11112 0.26057 0.11561 0.0
O25 O 0.14679 0.33636 0.12437 0.0
O26 O 0.04489 0.29431 0.12229 0.0
O27 O 0.07985 0.3461 0.14709 0.0
C28 C 0.28464 0.39922 0.18374 0.0
C29 C 0.31271 0.43136 0.16897 0.0
H30 H 0.35478 0.49086 0.13787 0.0
H31 H 0.31042 0.50216 0.11082 0.0
H32 H 0.13092 0.29326 0.20469 0.0
H33 H 0.21892 0.33406 0.20915 0.0
H34 H 0.30216 0.39424 0.19621 0.0
H35 H 0.35137 0.4501 0.17019 0.0
Mn36 Mn 0.78966 0.12289 0.27209 0.0
Mn37 Mn 0.77056 0.15201 0.31699 0.0
C38 C 0.85579 0.16744 0.29173 0.0
C39 C 0.80085 0.14052 0.23905 0.0
C40 C 0.7559 0.05393 0.30628 0.0
O41 O 0.72083 0.10766 0.27101 0.0
O42 O 0.71583 0.13814 0.2996 0.0
C43 C 0.77164 0.24256 0.30857 0.0
N44 N 0.78716 0.21744 0.31924 0.0
C45 C 0.82492 0.28114 0.34257 0.0
C46 C 0.80934 0.30782 0.33186 0.0
C47 C 0.78295 0.2886 0.31469 0.0
C48 C 0.8133 0.23592 0.33555 0.0
H49 H 0.75039 0.22729 0.29563 0.0
C50 C 0.69868 0.11942 0.28305 0.0
O51 O 0.78534 0.09722 0.24532 0.0
O52 O 0.80773 0.17282 0.25184 0.0
N53 N 0.81882 0.16672 0.33614 0.0
C54 C 0.83475 0.13817 0.34367 0.0
C55 C 0.86273 0.15252 0.36061 0.0
C56 C 0.87376 0.19587 0.36969 0.0
C57 C 0.85709 0.22476 0.36161 0.0
C58 C 0.82954 0.20867 0.34468 0.0
H59 H 0.82576 0.10451 0.33691 0.0
O60 O 0.85736 0.14449 0.27659 0.0
O61 O 0.81482 0.16586 0.29479 0.0
O62 O 0.77051 0.06278 0.28872 0.0
O63 O 0.75247 0.08419 0.31707 0.0
C64 C 0.86736 0.26927 0.3695 0.0
C65 C 0.85163 0.29763 0.35989 0.0
H66 H 0.81758 0.34313 0.33664 0.0
H67 H 0.7708 0.30895 0.30635 0.0
H68 H 0.87549 0.13005 0.36675 0.0
H69 H 0.89544 0.20685 0.38274 0.0
H70 H 0.88843 0.2826 0.38264 0.0
H71 H 0.86075 0.33227 0.36582 0.0
Mn72 Mn 0.70017 0.78731 0.43199 0.0
Mn73 Mn 0.63574 0.75825 0.47323 0.0
C74 C 0.71515 0.84662 0.45446 0.0
C75 C 0.70383 0.80605 0.39913 0.0
C76 C 0.71768 0.73906 0.46613 0.0
O77 O 0.64549 0.71933 0.42711 0.0
O78 O 0.59877 0.71088 0.45278 0.0
C79 C 0.55835 0.77509 0.45965 0.0
N80 N 0.59381 0.78402 0.47259 0.0
C81 C 0.57662 0.83693 0.49103 0.0
C82 C 0.53956 0.82792 0.47804 0.0
C83 C 0.53063 0.79713 0.46219 0.0
C84 C 0.60369 0.81473 0.48751 0.0
H85 H 0.55138 0.75143 0.44746 0.0
C86 C 0.60623 0.69682 0.43647 0.0
O87 O 0.72962 0.78896 0.40618 0.0
O88 O 0.67593 0.8116 0.41105 0.0
N89 N 0.66635 0.80091 0.49456 0.0
C90 C 0.7021 0.80431 0.50622 0.0
C91 C 0.71524 0.83345 0.52283 0.0
C92 C 0.69059 0.85765 0.52761 0.0
C93 C 0.65274 0.85218 0.51581 0.0
C94 C 0.64162 0.82311 0.49932 0.0
H95 H 0.72047 0.78492 0.50293 0.0
O96 O 0.74558 0.85428 0.4407 0.0
O97 O 0.67578 0.80559 0.45392 0.0
O98 O 0.7326 0.762 0.45016 0.0
O99 O 0.67982 0.73222 0.47498 0.0
C100 C 0.62482 0.87344 0.52003 0.0
C101 C 0.58736 0.86655 0.50747 0.0
H102 H 0.51775 0.84444 0.48008 0.0
H103 H 0.50228 0.79019 0.45202 0.0
H104 H 0.74402 0.83688 0.53202 0.0
H105 H 0.70062 0.87986 0.5405 0.0
H106 H 0.6318 0.89516 0.53293 0.0
H107 H 0.56665 0.88371 0.51074 0.0
Mn108 Mn 0.869 0.66568 0.613 0.0
Mn109 Mn 0.82098 0.59848 0.65312 0.0
C110 C 0.83298 0.68916 0.63589 0.0
C111 C 0.85906 0.68022 0.58079 0.0
C112 C 0.92729 0.66976 0.64887 0.0
O113 O 0.86694 0.6037 0.6061 0.0
O114 O 0.83271 0.56096 0.63306 0.0
C115 C 0.72847 0.52909 0.63511 0.0
N116 N 0.7533 0.5623 0.64909 0.0
C117 C 0.68061 0.55355 0.66265 0.0
C118 C 0.65426 0.51908 0.64847 0.0
C119 C 0.67833 0.50691 0.63461 0.0
C120 C 0.73055 0.57489 0.66228 0.0
H121 H 0.74675 0.51968 0.62438 0.0
C122 C 0.85035 0.56538 0.61602 0.0
O123 O 0.90166 0.69504 0.58777 0.0
O124 O 0.823 0.65608 0.59221 0.0
N125 N 0.80661 0.62857 0.67396 0.0
C126 C 0.83686 0.6591 0.68773 0.0
C127 C 0.81832 0.67344 0.70312 0.0
C128 C 0.76881 0.65553 0.70444 0.0
C129 C 0.73817 0.6226 0.69058 0.0
C130 C 0.7587 0.60942 0.67563 0.0
H131 H 0.87489 0.67278 0.68689 0.0
O132 O 0.86212 0.71951 0.62325 0.0
O133 O 0.82425 0.64532 0.63428 0.0
O134 O 0.92527 0.68352 0.63161 0.0
O135 O 0.89071 0.63739 0.65802 0.0
C136 C 0.68797 0.60132 0.69133 0.0
C137 C 0.65924 0.56724 0.67725 0.0
H138 H 0.61556 0.50166 0.64812 0.0
H139 H 0.65827 0.48043 0.62359 0.0
H140 H 0.84216 0.69828 0.71394 0.0
H141 H 0.75467 0.66667 0.71635 0.0
H142 H 0.67104 0.61059 0.70278 0.0
H143 H 0.62069 0.55122 0.67796 0.0
Mn144 Mn 0.20893 0.86896 0.7766 0.0
Mn145 Mn 0.24072 0.83748 0.81836 0.0
C146 C 0.1525 0.8285 0.80009 0.0
C147 C 0.1839 0.85034 0.74444 0.0
C148 C 0.25228 0.93529 0.81209 0.0
O149 O 0.27439 0.87935 0.77004 0.0
O150 O 0.29431 0.86355 0.79927 0.0
C151 C 0.24491 0.75622 0.80035 0.0
N152 N 0.22631 0.77301 0.81396 0.0
C153 C 0.17217 0.69314 0.82531 0.0
C154 C 0.19088 0.67506 0.81146 0.0
C155 C 0.22739 0.70676 0.79892 0.0
C156 C 0.1907 0.74273 0.82591 0.0
H157 H 0.27272 0.78029 0.79057 0.0
C158 C 0.30393 0.8772 0.7816 0.0
O159 O 0.20372 0.89428 0.75064 0.0
O160 O 0.1798 0.81812 0.7567 0.0
N161 N 0.19395 0.81107 0.83862 0.0
C162 C 0.1863 0.83478 0.8533 0.0
C163 C 0.15293 0.80867 0.8679 0.0
C164 C 0.12906 0.75844 0.86766 0.0
C165 C 0.14022 0.73488 0.85324 0.0
C166 C 0.17407 0.76294 0.83916 0.0
H167 H 0.20562 0.87327 0.85384 0.0
O168 O 0.14457 0.85141 0.78651 0.0
O169 O 0.19236 0.8276 0.79899 0.0
O170 O 0.23947 0.92916 0.79417 0.0
O171 O 0.2528 0.90308 0.8229 0.0
C172 C 0.12052 0.68484 0.85274 0.0
C173 C 0.13621 0.66394 0.83867 0.0
H174 H 0.17763 0.63695 0.81037 0.0
H175 H 0.24196 0.69309 0.78816 0.0
H176 H 0.14583 0.82723 0.87937 0.0
H177 H 0.10354 0.73843 0.879 0.0
H178 H 0.09389 0.66216 0.8633 0.0
H179 H 0.12111 0.62545 0.83852 0.0
Mn180 Mn 0.31576 0.21039 0.93689 0.0
Mn181 Mn 0.353 0.23973 0.98326 0.0
C182 C 0.28953 0.1493 0.95953 0.0
C183 C 0.32895 0.1925 0.90548 0.0
C184 C 0.27445 0.2526 0.96492 0.0
O185 O 0.37028 0.27906 0.935 0.0
O186 O 0.39924 0.29017 0.9654 0.0
C187 C 0.44296 0.23624 0.98279 0.0
N188 N 0.39949 0.22279 0.99082 0.0
C189 C 0.41621 0.18745 0.01831 0.0
C190 C 0.46131 0.20104 0.01039 0.0
C191 C 0.47455 0.22516 0.99246 0.0
C192 C 0.38607 0.19888 0.00787 0.0
H193 H 0.45352 0.25562 0.96921 0.0
C194 C 0.40171 0.30358 0.94774 0.0
O195 O 0.30085 0.20974 0.90876 0.0
O196 O 0.35107 0.18793 0.92035 0.0
N197 N 0.31301 0.19508 0.0026 0.0
C198 C 0.2665 0.18012 0.00707 0.0
C199 C 0.24635 0.15267 0.0239 0.0
C200 C 0.27452 0.14189 0.03616 0.0
C201 C 0.32237 0.15784 0.03128 0.0
C202 C 0.34019 0.18426 0.01415 0.0
H203 H 0.2451 0.18931 0.99793 0.0
O204 O 0.26827 0.14364 0.94296 0.0
O205 O 0.32815 0.19101 0.9623 0.0
O206 O 0.27139 0.23207 0.94876 0.0
O207 O 0.3053 0.25931 0.97793 0.0
C208 C 0.35291 0.14797 0.04256 0.0
C209 C 0.39974 0.16259 0.03603 0.0
H210 H 0.48589 0.19284 0.01787 0.0
H211 H 0.50924 0.23568 0.98625 0.0
H212 H 0.20933 0.14027 0.02753 0.0
H213 H 0.25889 0.12091 0.04918 0.0
H214 H 0.34029 0.12799 0.05599 0.0
H215 H 0.42243 0.15368 0.04456 0.0
Mn216 Mn 0.69961 0.91219 0.73132 0.0
Mn217 Mn 0.63541 0.88975 0.69009 0.0
C218 C 0.71048 0.87074 0.70654 0.0
C219 C 0.70222 0.88804 0.76294 0.0
C220 C 0.72288 0.98587 0.69925 0.0
O221 O 0.64755 0.9271 0.73866 0.0
O222 O 0.60258 0.90315 0.71148 0.0
C223 C 0.55149 0.79837 0.70246 0.0
N224 N 0.58818 0.82326 0.68979 0.0
C225 C 0.56718 0.75203 0.67138 0.0
C226 C 0.52896 0.72568 0.68414 0.0
C227 C 0.52117 0.74895 0.69978 0.0
C228 C 0.59643 0.8011 0.67488 0.0
H229 H 0.54554 0.81605 0.71457 0.0
C230 C 0.61059 0.91873 0.72894 0.0
O231 O 0.73008 0.93222 0.75759 0.0
O232 O 0.673 0.85867 0.75011 0.0
N233 N 0.66234 0.87573 0.66801 0.0
C234 C 0.699 0.90684 0.65638 0.0
C235 C 0.71067 0.88954 0.63976 0.0
C236 C 0.68405 0.84064 0.63509 0.0
C237 C 0.64539 0.80965 0.64688 0.0
C238 C 0.63522 0.82902 0.66317 0.0
H239 H 0.71931 0.94454 0.65977 0.0
O240 O 0.74194 0.88971 0.72029 0.0
O241 O 0.67253 0.87476 0.70823 0.0
O242 O 0.73478 0.9739 0.71513 0.0
O243 O 0.68515 0.95821 0.68952 0.0
C244 C 0.61605 0.76046 0.64293 0.0
C245 C 0.5773 0.73156 0.65529 0.0
H246 H 0.5054 0.68758 0.68209 0.0
H247 H 0.49188 0.72883 0.70974 0.0
H248 H 0.74015 0.91383 0.63059 0.0
H249 H 0.69333 0.82736 0.62233 0.0
H250 H 0.62282 0.74452 0.63038 0.0
H251 H 0.55521 0.69373 0.65217 0.0
Mn252 Mn 0.79297 0.67802 0.89736 0.0
Mn253 Mn 0.76586 0.60645 0.85809 0.0
C254 C 0.85124 0.69271 0.87456 0.0
C255 C 0.8175 0.69257 0.92963 0.0
C256 C 0.74301 0.687 0.86106 0.0
O257 O 0.72869 0.62101 0.90468 0.0
O258 O 0.716 0.57476 0.87843 0.0
C259 C 0.77922 0.53176 0.87727 0.0
N260 N 0.7903 0.56417 0.86268 0.0
C261 C 0.84586 0.54342 0.84872 0.0
C262 C 0.83474 0.50952 0.86349 0.0
C263 C 0.80145 0.50386 0.87789 0.0
C264 C 0.82317 0.57077 0.84905 0.0
H265 H 0.75377 0.52734 0.8884 0.0
C266 C 0.70399 0.58239 0.89518 0.0
O267 O 0.79403 0.71165 0.92205 0.0
O268 O 0.8251 0.66433 0.91875 0.0
N269 N 0.81033 0.63083 0.83696 0.0
C270 C 0.81468 0.66272 0.82298 0.0
C271 C 0.84537 0.67138 0.80714 0.0
C272 C 0.87052 0.64643 0.8056 0.0
C273 C 0.86434 0.61265 0.8198 0.0
C274 C 0.83317 0.60547 0.83524 0.0
H275 H 0.79515 0.68168 0.82395 0.0
O276 O 0.85681 0.72578 0.88672 0.0
O277 O 0.81259 0.65139 0.87658 0.0
O278 O 0.76009 0.70106 0.87813 0.0
O279 O 0.74215 0.65124 0.85251 0.0
C280 C 0.88683 0.58484 0.81896 0.0
C281 C 0.87818 0.55078 0.83357 0.0
H282 H 0.8515 0.48764 0.86392 0.0
H283 H 0.79283 0.47793 0.8894 0.0
H284 H 0.84949 0.69709 0.79612 0.0
H285 H 0.89388 0.65299 0.79328 0.0
H286 H 0.91064 0.58913 0.80708 0.0
H287 H 0.89599 0.5299 0.83283 0.0
Mn288 Mn 0.11032 0.78733 0.06301 0.0
Mn289 Mn 0.11214 0.75674 0.01624 0.0
C290 C 0.14265 0.84782 0.04005 0.0
C291 C 0.14509 0.8055 0.0938 0.0
C292 C 0.02346 0.74526 0.03665 0.0
O293 O 0.09588 0.71864 0.06468 0.0
O294 O 0.10896 0.70618 0.03375 0.0
C295 C 0.20472 0.75853 0.01469 0.0
N296 N 0.17438 0.77252 0.00743 0.0
C297 C 0.22349 0.8066 0.97908 0.0
C298 C 0.25529 0.79248 0.9862 0.0
C299 C 0.24607 0.76871 0.00417 0.0
C300 C 0.1833 0.79607 0.99034 0.0
H301 H 0.1971 0.73937 0.0283 0.0
C302 C 0.10034 0.69335 0.05156 0.0
O303 O 0.09947 0.78847 0.09143 0.0
O304 O 0.17 0.80985 0.07834 0.0
N305 N 0.11544 0.80128 0.99713 0.0
C306 C 0.08394 0.81676 0.99344 0.0
C307 C 0.08959 0.8437 0.97661 0.0
C308 C 0.12693 0.85355 0.96357 0.0
C309 C 0.15887 0.83714 0.96768 0.0
C310 C 0.15189 0.81117 0.98483 0.0
H311 H 0.05461 0.80833 0.00319 0.0
O312 O 0.12924 0.85401 0.05703 0.0
O313 O 0.13894 0.80593 0.03701 0.0
O314 O 0.04291 0.76572 0.0526 0.0
O315 O 0.04583 0.73839 0.02292 0.0
C316 C 0.1978 0.84612 0.9556 0.0
C317 C 0.23023 0.83107 0.96135 0.0
H318 H 0.28703 0.79996 0.97807 0.0
H319 H 0.27046 0.75775 0.00977 0.0
H320 H 0.06487 0.85635 0.97357 0.0
H321 H 0.13104 0.87416 0.95056 0.0
H322 H 0.20388 0.86575 0.94214 0.0
H323 H 0.2607 0.83928 0.9522 0.0
Mn324 Mn 0.31641 0.11329 0.22764 0.0
Mn325 Mn 0.39043 0.16069 0.18921 0.0
C326 C 0.29896 0.15151 0.2034 0.0
C327 C 0.29681 0.12304 0.25923 0.0
C328 C 0.31436 0.05595 0.19171 0.0
O329 O 0.37562 0.11256 0.23681 0.0
O330 O 0.42027 0.14114 0.20989 0.0
C331 C 0.46165 0.24712 0.21047 0.0
N332 N 0.43088 0.22707 0.19526 0.0
C333 C 0.44959 0.30465 0.1833 0.0
C334 C 0.48168 0.32606 0.19875 0.0
C335 C 0.48761 0.29714 0.21243 0.0
C336 C 0.4242 0.25457 0.18225 0.0
H337 H 0.46627 0.22519 0.2211 0.0
C338 C 0.41356 0.12449 0.22718 0.0
O339 O 0.28187 0.08042 0.25222 0.0
O340 O 0.3237 0.15905 0.24818 0.0
N341 N 0.36859 0.18273 0.16783 0.0
C342 C 0.3411 0.15696 0.15249 0.0
C343 C 0.33276 0.18052 0.13714 0.0
C344 C 0.35445 0.2306 0.1373 0.0
C345 C 0.38508 0.2567 0.15262 0.0
C346 C 0.39176 0.23114 0.16757 0.0
H347 H 0.3262 0.11883 0.15187 0.0
O348 O 0.26589 0.12255 0.21525 0.0
O349 O 0.34194 0.15911 0.20661 0.0
O350 O 0.30067 0.05719 0.20906 0.0
O351 O 0.34686 0.09252 0.18257 0.0
C352 C 0.41042 0.30713 0.15333 0.0
C353 C 0.44222 0.33107 0.16878 0.0
H354 H 0.50203 0.36466 0.20023 0.0
H355 H 0.51219 0.31337 0.22444 0.0
H356 H 0.3102 0.16016 0.12508 0.0
H357 H 0.34841 0.24869 0.12532 0.0
H358 H 0.40612 0.32789 0.14196 0.0
H359 H 0.46147 0.36984 0.16917 0.0
Mn360 Mn 0.21472 0.32965 0.3941 0.0
Mn361 Mn 0.25113 0.36585 0.34801 0.0
C362 C 0.15697 0.31022 0.37039 0.0
C363 C 0.19508 0.34329 0.4251 0.0
C364 C 0.25061 0.28047 0.36683 0.0
O365 O 0.28522 0.37872 0.39721 0.0
O366 O 0.30245 0.40662 0.36663 0.0
C367 C 0.26109 0.4622 0.34869 0.0
N368 N 0.24333 0.41834 0.34031 0.0
C369 C 0.21648 0.44292 0.3123 0.0
C370 C 0.23457 0.48848 0.32058 0.0
C371 C 0.2566 0.49802 0.33894 0.0
C372 C 0.22135 0.40852 0.32284 0.0
H373 H 0.2789 0.46982 0.36261 0.0
C374 C 0.31355 0.40795 0.38454 0.0
O375 O 0.20863 0.31213 0.42206 0.0
O376 O 0.19595 0.36879 0.41035 0.0
N377 N 0.20646 0.33092 0.32785 0.0
C378 C 0.18712 0.28399 0.32284 0.0
C379 C 0.16181 0.26773 0.3053 0.0
C380 C 0.15754 0.30008 0.29292 0.0
C381 C 0.17793 0.34827 0.29838 0.0
C382 C 0.20212 0.3622 0.31615 0.0
H383 H 0.1914 0.25933 0.33206 0.0
O384 O 0.14756 0.28801 0.38689 0.0
O385 O 0.20084 0.34596 0.36822 0.0
O386 O 0.23077 0.28041 0.38282 0.0
O387 O 0.26124 0.31178 0.3536 0.0
C388 C 0.17461 0.38292 0.28704 0.0
C389 C 0.19355 0.43013 0.29406 0.0
H390 H 0.23152 0.51632 0.31304 0.0
H391 H 0.2706 0.53307 0.34544 0.0
H392 H 0.14614 0.23047 0.3012 0.0
H393 H 0.13816 0.28743 0.27937 0.0
H394 H 0.15639 0.3733 0.27315 0.0
H395 H 0.18969 0.4561 0.28545 0.0
Mn396 Mn 0.87967 0.20735 0.55281 0.0
Mn397 Mn 0.82764 0.22791 0.51441 0.0
C398 C 0.84684 0.15128 0.52828 0.0
C399 C 0.87164 0.17854 0.58443 0.0
C400 C 0.93527 0.2707 0.51813 0.0
O401 O 0.87231 0.26295 0.562 0.0
O402 O 0.83623 0.2728 0.53594 0.0
C403 C 0.73381 0.19536 0.53324 0.0
N404 N 0.75999 0.19183 0.51847 0.0
C405 C 0.68918 0.12885 0.50335 0.0
C406 C 0.66144 0.132 0.51832 0.0
C407 C 0.6839 0.16527 0.53338 0.0
C408 C 0.73885 0.15929 0.50413 0.0
H409 H 0.75086 0.22087 0.54484 0.0
C410 C 0.8535 0.28407 0.55313 0.0
O411 O 0.9135 0.20962 0.57765 0.0
O412 O 0.83521 0.16517 0.57306 0.0
N413 N 0.81597 0.18741 0.49232 0.0
C414 C 0.84757 0.19021 0.47853 0.0
C415 C 0.83075 0.16013 0.46221 0.0
C416 C 0.78154 0.12805 0.46006 0.0
C417 C 0.74953 0.12656 0.47419 0.0
C418 C 0.7684 0.15745 0.49013 0.0
H419 H 0.88538 0.21477 0.48007 0.0
O420 O 0.87756 0.15064 0.54024 0.0
O421 O 0.83491 0.18367 0.53151 0.0
O422 O 0.93476 0.25255 0.53475 0.0
O423 O 0.89738 0.26413 0.50935 0.0
C424 C 0.69957 0.09635 0.47288 0.0
C425 C 0.66947 0.097 0.48758 0.0
H426 H 0.62289 0.10909 0.5184 0.0
H427 H 0.66276 0.16783 0.54503 0.0
H428 H 0.85567 0.1617 0.45131 0.0
H429 H 0.76871 0.1051 0.44739 0.0
H430 H 0.68388 0.07253 0.4606 0.0
H431 H 0.63114 0.07328 0.48649 0.0
C432 C 0.1206 0.62886 0.04616 0.0
C433 C 0.09793 0.64803 0.0574 0.0
C434 C 0.12227 0.58828 0.05238 0.0
C435 C 0.09989 0.56583 0.07005 0.0
C436 C 0.07516 0.58377 0.08103 0.0
C437 C 0.0749 0.62496 0.07467 0.0
C438 C 0.1497 0.5707 0.04046 0.0
C439 C 0.05009 0.56024 0.09977 0.0
C440 C 0.07662 0.44033 0.08086 0.0
C441 C 0.11337 0.44989 0.09411 0.0
C442 C 0.0718 0.47772 0.07279 0.0
C443 C 0.10516 0.5257 0.0778 0.0
C444 C 0.14318 0.53554 0.0907 0.0
C445 C 0.14649 0.49751 0.09886 0.0
C446 C 0.03034 0.46588 0.05936 0.0
C447 C 0.18008 0.58627 0.09607 0.0
H448 H 0.13864 0.64658 0.03283 0.0
H449 H 0.0569 0.63932 0.08332 0.0
H450 H 0.18094 0.57501 0.04889 0.0
H451 H 0.12688 0.53202 0.03722 0.0
H452 H 0.16281 0.59049 0.02654 0.0
H453 H 0.02897 0.57601 0.10566 0.0
H454 H 0.02576 0.52131 0.09749 0.0
H455 H 0.07688 0.56425 0.11082 0.0
H456 H 0.05076 0.40355 0.07725 0.0
H457 H 0.17522 0.50512 0.10896 0.0
H458 H 0.04362 0.4847 0.04529 0.0
H459 H 0.00715 0.47856 0.06583 0.0
H460 H 0.00824 0.42683 0.05653 0.0
H461 H 0.19659 0.60762 0.08276 0.0
H462 H 0.2089 0.58786 0.10543 0.0
H463 H 0.16263 0.60348 0.10392 0.0
C464 C 0.62553 0.08235 0.26209 0.0
C465 C 0.65213 0.11395 0.27709 0.0
C466 C 0.58352 0.07998 0.25513 0.0
C467 C 0.56834 0.11063 0.26312 0.0
C468 C 0.59413 0.14143 0.2787 0.0
C469 C 0.63549 0.14239 0.28563 0.0
C470 C 0.55641 0.04599 0.23875 0.0
C471 C 0.57948 0.17517 0.2874 0.0
C472 C 0.49971 0.14792 0.22956 0.0
C473 C 0.45271 0.12038 0.23648 0.0
C474 C 0.53758 0.14528 0.23824 0.0
C475 C 0.52818 0.11363 0.25401 0.0
C476 C 0.48079 0.08533 0.26098 0.0
C477 C 0.44361 0.08939 0.25224 0.0
C478 C 0.58776 0.17667 0.23059 0.0
C479 C 0.46938 0.05057 0.27754 0.0
H480 H 0.63791 0.05989 0.25557 0.0
H481 H 0.65591 0.16699 0.2972 0.0
H482 H 0.51773 0.02477 0.24229 0.0
H483 H 0.55992 0.06667 0.22537 0.0
H484 H 0.56983 0.02097 0.23563 0.0
H485 H 0.60134 0.19439 0.30031 0.0
H486 H 0.58356 0.20205 0.27636 0.0
H487 H 0.54124 0.15532 0.2917 0.0
H488 H 0.50712 0.17222 0.21748 0.0
H489 H 0.40732 0.0678 0.25758 0.0
H490 H 0.60243 0.15414 0.22527 0.0
H491 H 0.61152 0.19948 0.24245 0.0
H492 H 0.58912 0.20023 0.21853 0.0
H493 H 0.48095 0.02442 0.27381 0.0
H494 H 0.43057 0.03064 0.28105 0.0
H495 H 0.48946 0.06999 0.29073 0.0
C496 C 0.57454 0.62361 0.41547 0.0
C497 C 0.56621 0.65295 0.42799 0.0
C498 C 0.53618 0.58129 0.4079 0.0
C499 C 0.48862 0.56897 0.41258 0.0
C500 C 0.48014 0.59887 0.425 0.0
C501 C 0.51901 0.64011 0.43273 0.0
C502 C 0.54647 0.54962 0.39503 0.0
C503 C 0.42994 0.58764 0.42998 0.0
C504 C 0.3846 0.48927 0.37983 0.0
C505 C 0.36079 0.44722 0.39091 0.0
C506 C 0.4273 0.52863 0.38637 0.0
C507 C 0.44724 0.52551 0.40424 0.0
C508 C 0.42475 0.48233 0.41502 0.0
C509 C 0.38142 0.44382 0.40833 0.0
C510 C 0.44962 0.57439 0.37466 0.0
C511 C 0.44554 0.47739 0.43394 0.0
H512 H 0.61101 0.63325 0.41191 0.0
H513 H 0.51231 0.6628 0.4423 0.0
H514 H 0.52967 0.51297 0.40123 0.0
H515 H 0.53053 0.54657 0.38046 0.0
H516 H 0.58546 0.56347 0.39329 0.0
H517 H 0.42959 0.61523 0.43953 0.0
H518 H 0.40994 0.58501 0.41649 0.0
H519 H 0.41043 0.5525 0.43743 0.0
H520 H 0.36888 0.49225 0.36636 0.0
H521 H 0.36348 0.41122 0.41685 0.0
H522 H 0.48804 0.58715 0.37199 0.0
H523 H 0.44753 0.60275 0.38299 0.0
H524 H 0.4315 0.5699 0.36046 0.0
H525 H 0.4842 0.48975 0.4322 0.0
H526 H 0.42704 0.43988 0.43931 0.0
H527 H 0.44234 0.50032 0.44516 0.0
C528 C 0.8218 0.47746 0.61494 0.0
C529 C 0.85085 0.52357 0.60732 0.0
C530 C 0.82122 0.43746 0.60659 0.0
C531 C 0.85086 0.44378 0.5904 0.0
C532 C 0.88064 0.49024 0.58277 0.0
C533 C 0.88003 0.52952 0.59123 0.0
C534 C 0.78851 0.38837 0.61496 0.0
C535 C 0.91317 0.49848 0.56566 0.0
C536 C 0.88201 0.34733 0.5789 0.0
C537 C 0.85182 0.32397 0.56307 0.0
C538 C 0.88194 0.38626 0.58799 0.0
C539 C 0.85044 0.40176 0.58127 0.0
C540 C 0.81919 0.37773 0.56557 0.0
C541 C 0.8205 0.33937 0.55657 0.0
C542 C 0.91616 0.41133 0.60456 0.0
C543 C 0.78456 0.39274 0.5582 0.0
H544 H 0.79889 0.47244 0.62728 0.0
H545 H 0.90279 0.56501 0.58531 0.0
H546 H 0.76319 0.36478 0.60364 0.0
H547 H 0.80973 0.37175 0.61971 0.0
H548 H 0.76757 0.38953 0.62755 0.0
H549 H 0.93496 0.53697 0.56176 0.0
H550 H 0.93768 0.48461 0.56898 0.0
H551 H 0.89162 0.47855 0.55282 0.0
H552 H 0.90646 0.33581 0.58397 0.0
H553 H 0.79674 0.32127 0.54446 0.0
H554 H 0.89607 0.41088 0.61771 0.0
H555 H 0.94066 0.4494 0.60073 0.0
H556 H 0.93798 0.39451 0.60819 0.0
H557 H 0.76142 0.39214 0.57025 0.0
H558 H 0.76136 0.36915 0.54635 0.0
H559 H 0.80457 0.43002 0.55268 0.0
C560 C 0.55662 0.95248 0.73226 0.0
C561 C 0.57199 0.92145 0.73892 0.0
C562 C 0.51562 0.95068 0.74012 0.0
C563 C 0.48854 0.91554 0.75428 0.0
C564 C 0.50469 0.88475 0.76128 0.0
C565 C 0.54681 0.88866 0.7537 0.0
C566 C 0.50045 0.98523 0.73283 0.0
C567 C 0.47608 0.84583 0.7759 0.0
C568 C 0.39255 0.91918 0.78484 0.0
C569 C 0.35131 0.88939 0.77411 0.0
C570 C 0.43788 0.92979 0.77813 0.0
C571 C 0.44151 0.9084 0.76074 0.0
C572 C 0.39976 0.87826 0.74988 0.0
C573 C 0.35515 0.86985 0.75653 0.0
C574 C 0.48174 0.9635 0.78969 0.0
C575 C 0.40199 0.85359 0.73158 0.0
H576 H 0.5763 0.97763 0.72072 0.0
H577 H 0.55865 0.86424 0.75852 0.0
H578 H 0.46754 0.96574 0.72393 0.0
H579 H 0.49189 0.00167 0.74522 0.0
H580 H 0.5286 0.01418 0.72381 0.0
H581 H 0.49446 0.82596 0.78029 0.0
H582 H 0.46929 0.86127 0.78908 0.0
H583 H 0.44072 0.82003 0.7696 0.0
H584 H 0.38931 0.93451 0.79838 0.0
H585 H 0.323 0.84649 0.74839 0.0
H586 H 0.5084 0.99213 0.78012 0.0
H587 H 0.49887 0.94381 0.79569 0.0
H588 H 0.47311 0.98037 0.80192 0.0
H589 H 0.42542 0.88049 0.7207 0.0
H590 H 0.36612 0.83085 0.72498 0.0
H591 H 0.41785 0.83076 0.73488 0.0
C592 C 0.48775 0.36599 0.95188 0.0
C593 C 0.44466 0.34852 0.94158 0.0
C594 C 0.5299 0.40605 0.94527 0.0
C595 C 0.52869 0.42986 0.92819 0.0
C596 C 0.48486 0.41371 0.91822 0.0
C597 C 0.44346 0.37288 0.9249 0.0
C598 C 0.57612 0.42156 0.95609 0.0
C599 C 0.48197 0.43879 0.90017 0.0
C600 C 0.63422 0.55397 0.91792 0.0
C601 C 0.65944 0.54373 0.90393 0.0
C602 C 0.59127 0.51734 0.92585 0.0
C603 C 0.57387 0.46936 0.91996 0.0
C604 C 0.59965 0.4588 0.90609 0.0
C605 C 0.64178 0.49613 0.8981 0.0
C606 C 0.56422 0.53001 0.94033 0.0
C607 C 0.58285 0.40799 0.89973 0.0
H608 H 0.48903 0.34726 0.96474 0.0
H609 H 0.41017 0.35983 0.91698 0.0
H610 H 0.60132 0.41684 0.94663 0.0
H611 H 0.59349 0.46011 0.95984 0.0
H612 H 0.57056 0.40075 0.96965 0.0
H613 H 0.4445 0.42458 0.89521 0.0
H614 H 0.4983 0.47777 0.90291 0.0
H615 H 0.50252 0.43428 0.88826 0.0
H616 H 0.64755 0.59073 0.92238 0.0
H617 H 0.66127 0.48789 0.88741 0.0
H618 H 0.56036 0.51108 0.95425 0.0
H619 H 0.5276 0.51799 0.93482 0.0
H620 H 0.5823 0.5691 0.94323 0.0
H621 H 0.57896 0.38545 0.91255 0.0
H622 H 0.60791 0.40572 0.8893 0.0
H623 H 0.54715 0.39254 0.89277 0.0
C624 C 0.25623 0.15801 0.17469 0.0
C625 C 0.28831 0.18016 0.18999 0.0
C626 C 0.24029 0.18363 0.16349 0.0
C627 C 0.25321 0.23097 0.16894 0.0
C628 C 0.28659 0.25368 0.1842 0.0
C629 C 0.30439 0.22814 0.19434 0.0
C630 C 0.20869 0.15954 0.14614 0.0
C631 C 0.30095 0.30356 0.19075 0.0
C632 C 0.21935 0.30303 0.13521 0.0
C633 C 0.17117 0.28431 0.14005 0.0
C634 C 0.24748 0.28745 0.14482 0.0
C635 C 0.22724 0.25379 0.16018 0.0
C636 C 0.17942 0.23787 0.16603 0.0
C637 C 0.15128 0.25148 0.15525 0.0
C638 C 0.29741 0.30505 0.13734 0.0
C639 C 0.15752 0.2056 0.18343 0.0
H640 H 0.24376 0.12067 0.17148 0.0
H641 H 0.32863 0.24473 0.20647 0.0
H642 H 0.17094 0.14774 0.14983 0.0
H643 H 0.21918 0.18493 0.13376 0.0
H644 H 0.21073 0.12765 0.14143 0.0
H645 H 0.33067 0.31772 0.20148 0.0
H646 H 0.31218 0.32831 0.17819 0.0
H647 H 0.2696 0.30302 0.19758 0.0
H648 H 0.2343 0.32774 0.12311 0.0
H649 H 0.11375 0.23675 0.1588 0.0
H650 H 0.2952 0.28659 0.12344 0.0
H651 H 0.31978 0.29835 0.14756 0.0
H652 H 0.31538 0.34406 0.13425 0.0
H653 H 0.14835 0.16855 0.17968 0.0
H654 H 0.12433 0.20481 0.18835 0.0
H655 H 0.18334 0.21775 0.19569 0.0
C656 C 0.93785 0.18528 0.29971 0.0
C657 C 0.90122 0.19619 0.30256 0.0
C658 C 0.98292 0.21265 0.30817 0.0
C659 C 0.99056 0.24916 0.32145 0.0
C660 C 0.95457 0.26173 0.32396 0.0
C661 C 0.91142 0.23684 0.31343 0.0
C662 C 0.02157 0.20088 0.30336 0.0
C663 C 0.95989 0.29867 0.33873 0.0
C664 C 0.07594 0.25087 0.35926 0.0
C665 C 0.11632 0.29643 0.35691 0.0
C666 C 0.03364 0.23712 0.34907 0.0
C667 C 0.03264 0.26786 0.33463 0.0
C668 C 0.07344 0.31377 0.33187 0.0
C669 C 0.11363 0.32858 0.34402 0.0
C670 C 0.99076 0.18892 0.35381 0.0
C671 C 0.07622 0.34577 0.31532 0.0
H672 H 0.93173 0.15537 0.29056 0.0
H673 H 0.88579 0.24894 0.31378 0.0
H674 H 0.05764 0.23315 0.3042 0.0
H675 H 0.02003 0.17399 0.31381 0.0
H676 H 0.01654 0.18535 0.28856 0.0
H677 H 0.95673 0.28358 0.35349 0.0
H678 H 0.99545 0.33133 0.33818 0.0
H679 H 0.9323 0.30927 0.33681 0.0
H680 H 0.07666 0.2259 0.36962 0.0
H681 H 0.14261 0.3651 0.34349 0.0
H682 H 0.99571 0.16022 0.34731 0.0
H683 H 0.95667 0.18509 0.34846 0.0
H684 H 0.98776 0.18304 0.36977 0.0
H685 H 0.08125 0.33079 0.30161 0.0
H686 H 0.10633 0.38294 0.31717 0.0
H687 H 0.0428 0.34686 0.31337 0.0
C688 C 0.84177 0.10117 0.49999 0.0
C689 C 0.81943 0.10987 0.51557 0.0
C690 C 0.81769 0.05843 0.48936 0.0
C691 C 0.77231 0.02158 0.49579 0.0
C692 C 0.74978 0.03043 0.51164 0.0
C693 C 0.77318 0.07504 0.52102 0.0
C694 C 0.84146 0.05235 0.47156 0.0
C695 C 0.70329 0.99174 0.51999 0.0
C696 C 0.70148 0.91324 0.46307 0.0
C697 C 0.7231 0.88608 0.46737 0.0
C698 C 0.71615 0.95707 0.47249 0.0
C699 C 0.75159 0.97271 0.4872 0.0
C700 C 0.7709 0.94329 0.49247 0.0
C701 C 0.75819 0.90157 0.48179 0.0
C702 C 0.6965 0.98813 0.46555 0.0
C703 C 0.80591 0.95644 0.50905 0.0
H704 H 0.87803 0.12795 0.49609 0.0
H705 H 0.75672 0.08147 0.53353 0.0
H706 H 0.85569 0.02818 0.47488 0.0
H707 H 0.81513 0.0359 0.45957 0.0
H708 H 0.87161 0.08707 0.46644 0.0
H709 H 0.68607 0.00657 0.52952 0.0
H710 H 0.67775 0.9702 0.50841 0.0
H711 H 0.71081 0.96744 0.5288 0.0
H712 H 0.67536 0.90172 0.45143 0.0
H713 H 0.77578 0.88104 0.48469 0.0
H714 H 0.72513 0.01937 0.4577 0.0
H715 H 0.68519 0.00196 0.47796 0.0
H716 H 0.66555 0.96869 0.45559 0.0
H717 H 0.84116 0.98698 0.50481 0.0
H718 H 0.81111 0.92612 0.51332 0.0
H719 H 0.79313 0.96768 0.5219 0.0
C720 C 0.82633 0.73504 0.66324 0.0
C721 C 0.8046 0.70311 0.6479 0.0
C722 C 0.80208 0.75464 0.67302 0.0
C723 C 0.75748 0.74643 0.66576 0.0
C724 C 0.73563 0.71452 0.65001 0.0
C725 C 0.759 0.69211 0.6416 0.0
C726 C 0.82505 0.78543 0.69071 0.0
C727 C 0.69011 0.70743 0.64081 0.0
C728 C 0.68949 0.78876 0.69729 0.0
C729 C 0.71415 0.83772 0.69308 0.0
C730 C 0.7015 0.75759 0.68791 0.0
C731 C 0.73732 0.77578 0.67334 0.0
C732 C 0.759 0.82461 0.66788 0.0
C733 C 0.74906 0.85551 0.67858 0.0
C734 C 0.67932 0.70672 0.69507 0.0
C735 C 0.79438 0.84473 0.65133 0.0
H736 H 0.86239 0.74474 0.66758 0.0
H737 H 0.74329 0.6688 0.62914 0.0
H738 H 0.83944 0.82368 0.68702 0.0
H739 H 0.79813 0.77606 0.70241 0.0
H740 H 0.85498 0.78123 0.69638 0.0
H741 H 0.67347 0.67551 0.63119 0.0
H742 H 0.66361 0.70367 0.65192 0.0
H743 H 0.69867 0.73948 0.63194 0.0
H744 H 0.66356 0.77557 0.70902 0.0
H745 H 0.76904 0.89372 0.67581 0.0
H746 H 0.70481 0.70411 0.70512 0.0
H747 H 0.67202 0.68133 0.68298 0.0
H748 H 0.64542 0.6955 0.70307 0.0
H749 H 0.82925 0.84901 0.65592 0.0
H750 H 0.80047 0.88027 0.64657 0.0
H751 H 0.78142 0.81991 0.63874 0.0
C752 C 0.90559 0.73285 0.84683 0.0
C753 C 0.89154 0.70054 0.86225 0.0
C754 C 0.94737 0.74507 0.83635 0.0
C755 C 0.97855 0.72889 0.8429 0.0
C756 C 0.96431 0.69609 0.85861 0.0
C757 C 0.92025 0.68142 0.86779 0.0
C758 C 0.95848 0.77611 0.81849 0.0
C759 C 0.99607 0.67856 0.8669 0.0
C760 C 0.08292 0.75197 0.81024 0.0
C761 C 0.11412 0.8005 0.81389 0.0
C762 C 0.03916 0.72707 0.82014 0.0
C763 C 0.02764 0.75103 0.83457 0.0
C764 C 0.06139 0.79906 0.8394 0.0
C765 C 0.10294 0.82401 0.8282 0.0
C766 C 0.00391 0.67671 0.81395 0.0
C767 C 0.05312 0.8246 0.85603 0.0
H768 H 0.88357 0.7482 0.84285 0.0
H769 H 0.90972 0.6573 0.88013 0.0
H770 H 0.98652 0.81335 0.82186 0.0
H771 H 0.97218 0.76279 0.80666 0.0
H772 H 0.92643 0.77694 0.81312 0.0
H773 H 0.97479 0.63943 0.86969 0.0
H774 H 0.02665 0.6858 0.85741 0.0
H775 H 0.01037 0.69637 0.8811 0.0
H776 H 0.09121 0.73449 0.79865 0.0
H777 H 0.1269 0.86194 0.83067 0.0
H778 H 0.97478 0.67725 0.80562 0.0
H779 H 0.9877 0.65312 0.82672 0.0
H780 H 0.02068 0.66112 0.80458 0.0
H781 H 0.02765 0.83642 0.85156 0.0
H782 H 0.08692 0.85675 0.86067 0.0
H783 H 0.03746 0.80025 0.86867 0.0
C784 C 0.20207 0.89741 0.01395 0.0
C785 C 0.16578 0.88999 0.02701 0.0
C786 C 0.22431 0.93888 0.00232 0.0
C787 C 0.21428 0.97638 0.00568 0.0
C788 C 0.18082 0.97075 0.0202 0.0
C789 C 0.15561 0.92705 0.02997 0.0
C790 C 0.25612 0.94114 0.98578 0.0
C791 C 0.17077 0.0103 0.02559 0.0
C792 C 0.30178 0.09888 0.98448 0.0
C793 C 0.27166 0.1068 0.97234 0.0
C794 C 0.28358 0.05715 0.99592 0.0
C795 C 0.23558 0.01997 0.99323 0.0
C796 C 0.20638 0.02605 0.97953 0.0
C797 C 0.22407 0.06997 0.96998 0.0
C798 C 0.31484 0.05426 0.01157 0.0
C799 C 0.15612 0.98672 0.97486 0.0
H800 H 0.21334 0.87115 0.01295 0.0
H801 H 0.12873 0.92261 0.04053 0.0
H802 H 0.28985 0.97584 0.98507 0.0
H803 H 0.26517 0.91224 0.98671 0.0
H804 H 0.23728 0.93782 0.97189 0.0
H805 H 0.16413 0.00984 0.04145 0.0
H806 H 0.20058 0.04628 0.02167 0.0
H807 H 0.13784 0.00436 0.01807 0.0
H808 H 0.33944 0.12493 0.98492 0.0
H809 H 0.20062 0.07478 0.9601 0.0
H810 H 0.31391 0.01955 0.01159 0.0
H811 H 0.30083 0.057 0.02593 0.0
H812 H 0.35268 0.08318 0.01017 0.0
H813 H 0.15107 0.95062 0.97761 0.0
H814 H 0.14722 0.98862 0.95941 0.0
H815 H 0.13027 0.99133 0.9839 0.0
C816 C 0.15016 0.26186 0.05078 0.0
C817 C 0.11774 0.27844 0.0524 0.0
C818 C 0.16543 0.2554 0.03261 0.0
C819 C 0.14886 0.26718 0.01556 0.0
C820 C 0.11408 0.28166 0.01707 0.0
C821 C 0.09853 0.2868 0.03559 0.0
C822 C 0.20146 0.2385 0.03177 0.0
C823 C 0.09569 0.29472 0.99931 0.0
C824 C 0.2494 0.306 0.98005 0.0
C825 C 0.23649 0.26247 0.9709 0.0
C826 C 0.21772 0.31012 0.99276 0.0
C827 C 0.17274 0.26923 0.99679 0.0
C828 C 0.15737 0.22704 0.98568 0.0
C829 C 0.18952 0.22426 0.97269 0.0
C830 C 0.23511 0.35628 0.00384 0.0
C831 C 0.10968 0.18275 0.98936 0.0
H832 H 0.1647 0.2552 0.06386 0.0
H833 H 0.07371 0.30005 0.03694 0.0
H834 H 0.18942 0.20838 0.02138 0.0
H835 H 0.2364 0.26798 0.02655 0.0
H836 H 0.20707 0.22648 0.04616 0.0
H837 H 0.06179 0.29455 0.00237 0.0
H838 H 0.12277 0.33124 0.99449 0.0
H839 H 0.0897 0.26982 0.98713 0.0
H840 H 0.28581 0.33551 0.97865 0.0
H841 H 0.17973 0.19038 0.96575 0.0
H842 H 0.24681 0.35242 0.01856 0.0
H843 H 0.20598 0.36477 0.00559 0.0
H844 H 0.26589 0.3868 0.99647 0.0
H845 H 0.11285 0.16346 0.00212 0.0
H846 H 0.09809 0.15808 0.97671 0.0
H847 H 0.08164 0.19204 0.99265 0.0
C848 C 0.84453 0.13601 0.21025 0.0
C849 C 0.81848 0.15491 0.21906 0.0
C850 C 0.87388 0.15877 0.19414 0.0
C851 C 0.8757 0.20032 0.18633 0.0
C852 C 0.84478 0.21581 0.19375 0.0
C853 C 0.81732 0.19358 0.21037 0.0
C854 C 0.90685 0.1415 0.18695 0.0
C855 C 0.84373 0.25835 0.1852 0.0
C856 C 0.99861 0.29675 0.17005 0.0
C857 C 0.99791 0.28736 0.15011 0.0
C858 C 0.9588 0.26908 0.18184 0.0
C859 C 0.91611 0.2324 0.17338 0.0
C860 C 0.91373 0.22514 0.15303 0.0
C861 C 0.95498 0.25209 0.14166 0.0
C862 C 0.96338 0.2777 0.20353 0.0
C863 C 0.86827 0.18793 0.14333 0.0
H864 H 0.84565 0.10627 0.21706 0.0
H865 H 0.79679 0.20794 0.21711 0.0
H866 H 0.90587 0.13906 0.17088 0.0
H867 H 0.94419 0.16762 0.19122 0.0
H868 H 0.8974 0.10594 0.19305 0.0
H869 H 0.81084 0.25895 0.1895 0.0
H870 H 0.87516 0.29186 0.19044 0.0
H871 H 0.84568 0.25808 0.16911 0.0
H872 H 0.03111 0.3244 0.17676 0.0
H873 H 0.95375 0.24494 0.12623 0.0
H874 H 0.95612 0.24449 0.21123 0.0
H875 H 0.93662 0.28726 0.2086 0.0
H876 H -0.00046 0.30686 0.20781 0.0
H877 H 0.86413 0.15198 0.14549 0.0
H878 H 0.86877 0.1944 0.12746 0.0
H879 H 0.83649 0.18742 0.14978 0.0
C880 C 0.74216 0.00509 0.33608 0.0
C881 C 0.74603 0.00842 0.31574 0.0
C882 C 0.73579 0.96458 0.34599 0.0
C883 C 0.73163 0.92513 0.33537 0.0
C884 C 0.73476 0.92752 0.31481 0.0
C885 C 0.74238 0.96945 0.3052 0.0
C886 C 0.73354 0.96429 0.36796 0.0
C887 C 0.72918 0.88565 0.303 0.0
C888 C 0.7546 0.8499 0.37066 0.0
C889 C 0.7091 0.82373 0.37902 0.0
C890 C 0.76204 0.87938 0.35445 0.0
C891 C 0.7228 0.8817 0.34637 0.0
C892 C 0.67592 0.84992 0.35313 0.0
C893 C 0.66972 0.82192 0.36964 0.0
C894 C 0.81262 0.91259 0.34773 0.0
C895 C 0.63288 0.84988 0.34453 0.0
H896 H 0.74494 0.03474 0.34451 0.0
H897 H 0.74513 0.97155 0.2895 0.0
H898 H 0.69767 0.93607 0.37292 0.0
H899 H 0.76033 0.95604 0.37417 0.0
H900 H 0.74038 0.9991 0.37399 0.0
H901 H 0.73946 0.89551 0.28756 0.0
H902 H 0.75111 0.87115 0.30916 0.0
H903 H 0.69126 0.85651 0.30348 0.0
H904 H 0.78508 0.85118 0.3779 0.0
H905 H 0.63434 0.801 0.37596 0.0
H906 H 0.8256 0.94851 0.35423 0.0
H907 H 0.81427 0.91676 0.33171 0.0
H908 H 0.83718 0.89957 0.35226 0.0
H909 H 0.63045 0.88059 0.35047 0.0
H910 H 0.59915 0.81645 0.34813 0.0
H911 H 0.63613 0.85393 0.32851 0.0
C912 C 0.86825 0.68304 0.5446 0.0
C913 C 0.85072 0.69348 0.56138 0.0
C914 C 0.85367 0.6895 0.5261 0.0
C915 C 0.82193 0.70779 0.52459 0.0
C916 C 0.80663 0.72095 0.54161 0.0
C917 C 0.82062 0.71287 0.55978 0.0
C918 C 0.87001 0.67432 0.50832 0.0
C919 C 0.77382 0.7418 0.54071 0.0
C920 C 0.79656 0.76027 0.48021 0.0
C921 C 0.74878 0.72556 0.47669 0.0
C922 C 0.823 0.75336 0.49477 0.0
C923 C 0.80127 0.71026 0.50561 0.0
C924 C 0.75487 0.67304 0.50049 0.0
C925 C 0.72876 0.68153 0.48633 0.0
C926 C 0.87192 0.79427 0.49996 0.0
C927 C 0.73092 0.626 0.51128 0.0
H928 H 0.89119 0.66756 0.54598 0.0
H929 H 0.80733 0.72105 0.57286 0.0
H930 H 0.83946 0.64119 0.5023 0.0
H931 H 0.88215 0.70214 0.49685 0.0
H932 H 0.8995 0.66711 0.51167 0.0
H933 H 0.76911 0.75433 0.55514 0.0
H934 H 0.78813 0.7724 0.53044 0.0
H935 H 0.73808 0.71433 0.5353 0.0
H936 H 0.81178 0.79459 0.47289 0.0
H937 H 0.69178 0.65472 0.48353 0.0
H938 H 0.89693 0.78116 0.50348 0.0
H939 H 0.86892 0.8127 0.51304 0.0
H940 H 0.88744 0.8209 0.48801 0.0
H941 H 0.75648 0.61305 0.51387 0.0
H942 H 0.69947 0.59804 0.50323 0.0
H943 H 0.71848 0.63107 0.52565 0.0
C944 C 0.16177 0.79718 0.71567 0.0
C945 C 0.16135 0.83536 0.72518 0.0
C946 C 0.13077 0.77372 0.70008 0.0
C947 C 0.09742 0.78776 0.69439 0.0
C948 C 0.09947 0.82871 0.703 0.0
C949 C 0.132 0.8525 0.71818 0.0
C950 C 0.13101 0.7314 0.69085 0.0
C951 C 0.06414 0.84449 0.69757 0.0
C952 C 0.01462 0.73268 0.65084 0.0
C953 C 0.97314 0.69617 0.65975 0.0
C954 C 0.0561 0.7619 0.66175 0.0
C955 C 0.0557 0.75518 0.68209 0.0
C956 C 0.01455 0.71748 0.69103 0.0
C957 C 0.97423 0.68806 0.67973 0.0
C958 C 0.09982 0.80072 0.65161 0.0
C959 C 0.01237 0.70915 0.71271 0.0
H960 H 0.1847 0.78408 0.72107 0.0
H961 H 0.13138 0.88173 0.72569 0.0
H962 H 0.10046 0.69776 0.69652 0.0
H963 H 0.12674 0.73162 0.67487 0.0
H964 H 0.16457 0.73105 0.69409 0.0
H965 H 0.07428 0.8802 0.70369 0.0
H966 H 0.06117 0.84586 0.68157 0.0
H967 H 0.0282 0.81806 0.7032 0.0
H968 H 0.01445 0.73915 0.6354 0.0
H969 H 0.94282 0.65972 0.68681 0.0
H970 H 0.13225 0.79953 0.6561 0.0
H971 H 0.10528 0.83629 0.65584 0.0
H972 H 0.09649 0.79748 0.63555 0.0
H973 H 0.04097 0.70162 0.71719 0.0
H974 H 0.97735 0.67879 0.71744 0.0
H975 H 0.01859 0.74187 0.72053 0.0
C976 C 0.35817 0.15044 0.8839 0.0
C977 C 0.3298 0.17169 0.88642 0.0
C978 C 0.3506 0.11986 0.86815 0.0
C979 C 0.31377 0.11036 0.85465 0.0
C980 C 0.28887 0.13604 0.8559 0.0
C981 C 0.29715 0.16645 0.87183 0.0
C982 C 0.3785 0.09379 0.86721 0.0
C983 C 0.25006 0.12774 0.84158 0.0
C984 C 0.29753 0.02516 0.81313 0.0
C985 C 0.26479 0.98113 0.8215 0.0
C986 C 0.31286 0.06825 0.82338 0.0
C987 C 0.29468 0.06679 0.84228 0.0
C988 C 0.25969 0.02242 0.85022 0.0
C989 C 0.24522 0.98032 0.83971 0.0
C990 C 0.34987 0.11484 0.81436 0.0
C991 C 0.23865 0.01904 0.87018 0.0
H992 H 0.38406 0.15495 0.89494 0.0
H993 H 0.27551 0.18328 0.87353 0.0
H994 H 0.35531 0.05625 0.87209 0.0
H995 H 0.38978 0.09271 0.85209 0.0
H996 H 0.41077 0.11074 0.87664 0.0
H997 H 0.24158 0.15714 0.84197 0.0
H998 H 0.2606 0.12438 0.82658 0.0
H999 H 0.21703 0.09374 0.84521 0.0
H1000 H 0.31248 0.02573 0.79897 0.0
H1001 H 0.21865 0.94648 0.84586 0.0
H1002 H 0.38507 0.12678 0.82133 0.0
H1003 H 0.34065 0.14329 0.81677 0.0
H1004 H 0.35363 0.11115 0.79851 0.0
H1005 H 0.26728 0.03126 0.88132 0.0
H1006 H 0.21037 0.98196 0.87385 0.0
H1007 H 0.22298 0.04273 0.87111 0.0
C1008 C 0.75054 0.88121 0.7896 0.0
C1009 C 0.70576 0.8697 0.78208 0.0
C1010 C 0.7542 0.85455 0.80498 0.0
C1011 C 0.71198 0.81659 0.81328 0.0
C1012 C 0.6667 0.80826 0.80695 0.0
C1013 C 0.66413 0.83432 0.79114 0.0
C1014 C 0.80316 0.86405 0.81105 0.0
C1015 C 0.62088 0.76942 0.81586 0.0
C1016 C 0.71921 0.70819 0.82964 0.0
C1017 C 0.7284 0.71671 0.84961 0.0
C1018 C 0.71344 0.74026 0.81779 0.0
C1019 C 0.71505 0.78113 0.82616 0.0
C1020 C 0.72103 0.78837 0.84648 0.0
C1021 C 0.72827 0.75642 0.85795 0.0
C1022 C 0.70758 0.73129 0.79614 0.0
C1023 C 0.72115 0.83055 0.85602 0.0
H1024 H 0.78268 0.90828 0.78242 0.0
H1025 H 0.62946 0.82564 0.78533 0.0
H1026 H 0.80659 0.86585 0.82709 0.0
H1027 H 0.80815 0.8341 0.80607 0.0
H1028 H 0.83226 0.89792 0.80479 0.0
H1029 H 0.58978 0.77374 0.81205 0.0
H1030 H 0.61366 0.73399 0.81049 0.0
H1031 H 0.62398 0.76934 0.83191 0.0
H1032 H 0.71845 0.67738 0.823 0.0
H1033 H 0.73484 0.76319 0.87338 0.0
H1034 H 0.73695 0.76203 0.7883 0.0
H1035 H 0.67339 0.7281 0.7912 0.0
H1036 H 0.70787 0.6982 0.79191 0.0
H1037 H 0.75407 0.86407 0.85187 0.0
H1038 H 0.71985 0.82767 0.87212 0.0
H1039 H 0.69015 0.83366 0.85096 0.0
C1040 C 0.88659 0.71547 0.9511 0.0
C1041 C 0.83935 0.70538 0.94905 0.0
C1042 C 0.90829 0.72408 0.96935 0.0
C1043 C 0.88149 0.721 0.98616 0.0
C1044 C 0.83395 0.71204 0.98416 0.0
C1045 C 0.81349 0.70486 0.96548 0.0
C1046 C 0.95964 0.73517 0.97062 0.0
C1047 C 0.80399 0.70769 0.00168 0.0
C1048 C 0.94113 0.69002 0.02548 0.0
C1049 C 0.97525 0.73586 0.03174 0.0
C1050 C 0.90445 0.68355 0.01273 0.0
C1051 C 0.90344 0.7242 0.00554 0.0
C1052 C 0.93395 0.7697 0.01389 0.0
C1053 C 0.96934 0.77488 0.02715 0.0
C1054 C 0.87141 0.63412 0.0048 0.0
C1055 C 0.93435 0.81406 0.00669 0.0
H1056 H 0.90665 0.71635 0.9383 0.0
H1057 H 0.77675 0.69672 0.96381 0.0
H1058 H 0.98117 0.76827 0.97919 0.0
H1059 H 0.96123 0.70559 0.97815 0.0
H1060 H 0.97648 0.74011 0.95609 0.0
H1061 H 0.77195 0.7102 0.99768 0.0
H1062 H 0.79173 0.67247 0.0087 0.0
H1063 H 0.8252 0.73576 0.01257 0.0
H1064 H 0.9459 0.65989 0.02902 0.0
H1065 H 0.99617 0.81046 0.03185 0.0
H1066 H 0.88517 0.63011 0.99056 0.0
H1067 H 0.83491 0.62847 0.00248 0.0
H1068 H 0.86916 0.60586 0.01471 0.0
H1069 H 0.95614 0.82671 0.99323 0.0
H1070 H 0.95041 0.84337 0.01758 0.0
H1071 H 0.89771 0.8066 0.00314 0.0
C1072 C 0.14207 0.82716 0.12845 0.0
C1073 C 0.16879 0.826 0.1126 0.0
C1074 C 0.1648 0.85655 0.14456 0.0
C1075 C 0.2153 0.88555 0.14471 0.0
C1076 C 0.2425 0.88046 0.12973 0.0
C1077 C 0.21889 0.85064 0.11385 0.0
C1078 C 0.13447 0.86017 0.16042 0.0
C1079 C 0.29643 0.91039 0.12938 0.0
C1080 C 0.26647 0.01229 0.16304 0.0
C1081 C 0.28752 0.01118 0.18062 0.0
C1082 C 0.24236 0.97143 0.15147 0.0
C1083 C 0.2386 0.92789 0.15778 0.0
C1084 C 0.2582 0.92594 0.17597 0.0
C1085 C 0.28247 0.96784 0.18728 0.0
C1086 C 0.22149 0.9752 0.13232 0.0
C1087 C 0.25446 0.88007 0.18324 0.0
H1088 H 0.10331 0.80766 0.12772 0.0
H1089 H 0.23985 0.84941 0.10179 0.0
H1090 H 0.1508 0.86309 0.1749 0.0
H1091 H 0.132 0.89293 0.15815 0.0
H1092 H 0.0976 0.8288 0.16042 0.0
H1093 H 0.31247 0.89642 0.11881 0.0
H1094 H 0.30704 0.94763 0.12518 0.0
H1095 H 0.31162 0.91173 0.14397 0.0
H1096 H 0.26828 0.04517 0.1584 0.0
H1097 H 0.29834 0.96701 0.20105 0.0
H1098 H 0.18245 0.94944 0.13198 0.0
H1099 H 0.23801 0.96589 0.1202 0.0
H1100 H 0.22728 0.01172 0.12969 0.0
H1101 H 0.21703 0.85011 0.18213 0.0
H1102 H 0.26657 0.88312 0.19855 0.0
H1103 H 0.27683 0.87072 0.17405 0.0
C1104 C 0.27859 0.10404 0.29475 0.0
C1105 C 0.28245 0.13177 0.27844 0.0
C1106 C 0.27048 0.11702 0.31334 0.0
C1107 C 0.26535 0.15798 0.31539 0.0
C1108 C 0.26648 0.18418 0.29867 0.0
C1109 C 0.27558 0.17107 0.28051 0.0
C1110 C 0.26979 0.08839 0.33078 0.0
C1111 C 0.25975 0.22727 0.29997 0.0
C1112 C 0.21421 0.19681 0.3558 0.0
C1113 C 0.25541 0.23909 0.36136 0.0
C1114 C 0.21709 0.16551 0.34239 0.0
C1115 C 0.26234 0.17672 0.33479 0.0
C1116 C 0.30438 0.21539 0.34282 0.0
C1117 C 0.30037 0.24675 0.35577 0.0
C1118 C 0.17132 0.12477 0.33432 0.0
C1119 C 0.35343 0.22778 0.33563 0.0
H1120 H 0.28406 0.07369 0.29312 0.0
H1121 H 0.2779 0.19212 0.26783 0.0
H1122 H 0.3043 0.10844 0.33865 0.0
H1123 H 0.24094 0.08289 0.34103 0.0
H1124 H 0.26482 0.05295 0.32655 0.0
H1125 H 0.25822 0.24146 0.28544 0.0
H1126 H 0.22617 0.21779 0.30784 0.0
H1127 H 0.28978 0.25629 0.30823 0.0
H1128 H 0.17937 0.1913 0.35996 0.0
H1129 H 0.33218 0.27966 0.36004 0.0
H1130 H 0.17549 0.09354 0.3307 0.0
H1131 H 0.16184 0.13674 0.32076 0.0
H1132 H 0.1412 0.11331 0.34472 0.0
H1133 H 0.35569 0.19495 0.33326 0.0
H1134 H 0.38188 0.25144 0.34601 0.0
H1135 H 0.36044 0.24682 0.32153 0.0
C1136 C 0.16845 0.38338 0.4492 0.0
C1137 C 0.17086 0.34303 0.44334 0.0
C1138 C 0.13763 0.38024 0.46429 0.0
C1139 C 0.10693 0.3352 0.47297 0.0
C1140 C 0.11127 0.29503 0.46778 0.0
C1141 C 0.14392 0.29973 0.45331 0.0
C1142 C 0.136 0.42449 0.47012 0.0
C1143 C 0.07843 0.246 0.4762 0.0
C1144 C 0.0251 0.3091 0.51651 0.0
C1145 C 0.98134 0.29603 0.50735 0.0
C1146 C 0.06751 0.32601 0.50566 0.0
C1147 C 0.06565 0.32793 0.48515 0.0
C1148 C 0.02218 0.31737 0.47596 0.0
C1149 C 0.98101 0.30286 0.48722 0.0
C1150 C 0.11372 0.33963 0.5161 0.0
C1151 C 0.01813 0.31795 0.4541 0.0
H1152 H 0.18953 0.41702 0.44159 0.0
H1153 H 0.14542 0.26836 0.44871 0.0
H1154 H 0.10539 0.42458 0.46284 0.0
H1155 H 0.13088 0.42516 0.48604 0.0
H1156 H 0.16925 0.45767 0.46585 0.0
H1157 H 0.08799 0.21901 0.47134 0.0
H1158 H 0.07949 0.24738 0.49229 0.0
H1159 H 0.041 0.23377 0.47171 0.0
H1160 H 0.02608 0.30498 0.53211 0.0
H1161 H 0.94786 0.29419 0.47997 0.0
H1162 H 0.14403 0.37189 0.50942 0.0
H1163 H 0.12163 0.30999 0.51494 0.0
H1164 H 0.11165 0.34674 0.53175 0.0
H1165 H 0.04432 0.35366 0.44827 0.0
H1166 H 0.98176 0.30914 0.44926 0.0
H1167 H 0.02657 0.29155 0.44759 0.0
C1168 C 0.7409 0.05741 0.67957 0.0
C1169 C 0.75748 0.03073 0.68955 0.0
C1170 C 0.76906 0.09055 0.66527 0.0
C1171 C 0.81418 0.09588 0.66045 0.0
C1172 C 0.83292 0.07244 0.67182 0.0
C1173 C 0.80439 0.04034 0.68642 0.0
C1174 C 0.74819 0.11581 0.65389 0.0
C1175 C 0.88061 0.07677 0.66713 0.0
C1176 C 0.8328 0.10838 0.60612 0.0
C1177 C 0.86438 0.15752 0.60397 0.0
C1178 C 0.81891 0.08757 0.62454 0.0
C1179 C 0.83591 0.11699 0.64128 0.0
C1180 C 0.86956 0.16646 0.63923 0.0
C1181 C 0.88388 0.18617 0.62049 0.0
C1182 C 0.78402 0.0344 0.626 0.0
C1183 C 0.88804 0.19904 0.65667 0.0
H1184 H 0.70459 0.04993 0.68201 0.0
H1185 H 0.81701 0.01925 0.69398 0.0
H1186 H 0.77576 0.15363 0.65111 0.0
H1187 H 0.73531 0.09794 0.63961 0.0
H1188 H 0.71755 0.11501 0.6616 0.0
H1189 H 0.89461 0.06544 0.67956 0.0
H1190 H 0.87627 0.05345 0.65454 0.0
H1191 H 0.90743 0.11402 0.66308 0.0
H1192 H 0.81799 0.08628 0.59328 0.0
H1193 H 0.90799 0.22431 0.61875 0.0
H1194 H 0.749 0.02832 0.6314 0.0
H1195 H 0.79718 0.01752 0.63651 0.0
H1196 H 0.77814 0.016 0.61177 0.0
H1197 H 0.85945 0.20544 0.66223 0.0
H1198 H 0.91976 0.23418 0.65302 0.0
H1199 H 0.89771 0.18224 0.66856 0.0
loop_
_geom_bond_atom_site_label_1
_geom_bond_atom_site_label_2
_geom_bond_distance
_geom_bond_site_symmetry_2
_ccdc_geom_bond_type
Mn0 O5 2.095 . S
Mn0 O15 2.162 . S
Mn0 O16 2.297 . S
Mn0 O24 2.385 . S
Mn0 O25 2.209 . S
Mn0 O26 2.094 . S
Mn1 O6 2.121 . S
Mn1 N8 2.257 . S
Mn1 N17 2.282 . S
Mn1 O25 2.215 . S
Mn1 O27 2.117 . S
C2 O24 1.234 . S
C2 O25 1.283 . S
C3 O15 1.281 . S
C3 O16 1.236 . S
C4 O26 1.240 . S
C4 O27 1.264 . S
O5 Mn0 2.095 . S
O5 C14 1.250 . S
O6 Mn1 2.121 . S
O6 C14 1.258 . S
C7 N8 1.326 . S
C7 C11 1.460 . S
C7 H13 0.929 . S
N8 Mn1 2.257 . S
N8 C7 1.326 . S
N8 C12 1.362 . S
C9 C10 1.258 . S
C9 C12 1.431 . S
C9 C29 1.449 . S
C10 C9 1.258 . S
C10 C11 1.477 . S
C10 H30 0.931 . S
C11 C7 1.460 . S
C11 C10 1.477 . S
C11 H31 0.930 . S
C12 N8 1.362 . S
C12 C9 1.431 . S
C12 C22 1.476 . S
H13 C7 0.929 . S
C14 O5 1.250 . S
C14 O6 1.258 . S
O15 Mn0 2.162 . S
O15 C3 1.281 . S
O16 Mn0 2.297 . S
O16 C3 1.236 . S
N17 Mn1 2.282 . S
N17 C18 1.328 . S
N17 C22 1.318 . S
C18 N17 1.328 . S
C18 C19 1.457 . S
C18 H23 0.929 . S
C19 C18 1.457 . S
C19 C20 1.291 . S
C19 H32 0.931 . S
C20 C19 1.291 . S
C20 C21 1.373 . S
C20 H33 0.929 . S
C21 C20 1.373 . S
C21 C22 1.396 . S
C21 C28 1.403 . S
C22 C12 1.476 . S
C22 N17 1.318 . S
C22 C21 1.396 . S
H23 C18 0.929 . S
O24 Mn0 2.385 . S
O24 C2 1.234 . S
O25 Mn0 2.209 . S
O25 Mn1 2.215 . S
O25 C2 1.283 . S
O26 Mn0 2.094 . S
O26 C4 1.240 . S
O27 Mn1 2.117 . S
O27 C4 1.264 . S
C28 C21 1.403 . S
C28 C29 1.399 . S
C28 H34 0.929 . S
C29 C9 1.449 . S
C29 C28 1.399 . S
C29 H35 0.930 . S
H30 C10 0.931 . S
H31 C11 0.930 . S
H32 C19 0.931 . S
H33 C20 0.929 . S
H34 C28 0.929 . S
H35 C29 0.930 . S
Mn36 O41 2.095 . S
Mn36 O51 2.162 . S
Mn36 O52 2.297 . S
Mn36 O60 2.385 . S
Mn36 O61 2.209 . S
Mn36 O62 2.094 . S
Mn37 O42 2.121 . S
Mn37 N44 2.257 . S
Mn37 N53 2.282 . S
Mn37 O61 2.215 . S
Mn37 O63 2.117 . S
C38 O60 1.234 . S
C38 O61 1.283 . S
C39 O51 1.281 . S
C39 O52 1.236 . S
C40 O62 1.240 . S
C40 O63 1.264 . S
O41 Mn36 2.095 . S
O41 C50 1.250 . S
O42 Mn37 2.121 . S
O42 C50 1.258 . S
C43 N44 1.326 . S
C43 C47 1.460 . S
C43 H49 0.929 . S
N44 Mn37 2.257 . S
N44 C43 1.326 . S
N44 C48 1.362 . S
C45 C46 1.258 . S
C45 C48 1.431 . S
C45 C65 1.449 . S
C46 C45 1.258 . S
C46 C47 1.477 . S
C46 H66 0.931 . S
C47 C43 1.460 . S
C47 C46 1.477 . S
C47 H67 0.930 . S
C48 N44 1.362 . S
C48 C45 1.431 . S
C48 C58 1.476 . S
H49 C43 0.929 . S
C50 O41 1.250 . S
C50 O42 1.258 . S
O51 Mn36 2.162 . S
O51 C39 1.281 . S
O52 Mn36 2.297 . S
O52 C39 1.236 . S
N53 Mn37 2.282 . S
N53 C54 1.328 . S
N53 C58 1.318 . S
C54 N53 1.328 . S
C54 C55 1.457 . S
C54 H59 0.929 . S
C55 C54 1.457 . S
C55 C56 1.291 . S
C55 H68 0.931 . S
C56 C55 1.291 . S
C56 C57 1.373 . S
C56 H69 0.929 . S
C57 C56 1.373 . S
C57 C58 1.396 . S
C57 C64 1.403 . S
C58 C48 1.476 . S
C58 N53 1.318 . S
C58 C57 1.396 . S
H59 C54 0.929 . S
O60 Mn36 2.385 . S
O60 C38 1.234 . S
O61 Mn36 2.209 . S
O61 Mn37 2.215 . S
O61 C38 1.283 . S
O62 Mn36 2.094 . S
O62 C40 1.240 . S
O63 Mn37 2.117 . S
O63 C40 1.264 . S
C64 C57 1.403 . S
C64 C65 1.399 . S
C64 H70 0.929 . S
C65 C45 1.449 . S
C65 C64 1.399 . S
C65 H71 0.930 . S
H66 C46 0.931 . S
H67 C47 0.930 . S
H68 C55 0.931 . S
H69 C56 0.929 . S
H70 C64 0.929 . S
H71 C65 0.930 . S
Mn72 O77 2.095 . S
Mn72 O87 2.162 . S
Mn72 O88 2.297 . S
Mn72 O96 2.385 . S
Mn72 O97 2.209 . S
Mn72 O98 2.094 . S
Mn73 O78 2.121 . S
Mn73 N80 2.257 . S
Mn73 N89 2.282 . S
Mn73 O97 2.215 . S
Mn73 O99 2.117 . S
C74 O96 1.234 . S
C74 O97 1.283 . S
C75 O87 1.281 . S
C75 O88 1.236 . S
C76 O98 1.240 . S
C76 O99 1.264 . S
O77 Mn72 2.095 . S
O77 C86 1.250 . S
O78 Mn73 2.121 . S
O78 C86 1.258 . S
C79 N80 1.326 . S
C79 C83 1.460 . S
C79 H85 0.929 . S
N80 Mn73 2.257 . S
N80 C79 1.326 . S
N80 C84 1.362 . S
C81 C82 1.258 . S
C81 C84 1.431 . S
C81 C101 1.449 . S
C82 C81 1.258 . S
C82 C83 1.477 . S
C82 H102 0.931 . S
C83 C79 1.460 . S
C83 C82 1.477 . S
C83 H103 0.930 . S
C84 N80 1.362 . S
C84 C81 1.431 . S
C84 C94 1.476 . S
H85 C79 0.929 . S
C86 O77 1.250 . S
C86 O78 1.258 . S
O87 Mn72 2.162 . S
O87 C75 1.281 . S
O88 Mn72 2.297 . S
O88 C75 1.236 . S
N89 Mn73 2.282 . S
N89 C90 1.328 . S
N89 C94 1.318 . S
C90 N89 1.328 . S
C90 C91 1.457 . S
C90 H95 0.929 . S
C91 C90 1.457 . S
C91 C92 1.291 . S
C91 H104 0.931 . S
C92 C91 1.291 . S
C92 C93 1.373 . S
C92 H105 0.929 . S
C93 C92 1.373 . S
C93 C94 1.396 . S
C93 C100 1.403 . S
C94 C84 1.476 . S
C94 N89 1.318 . S
C94 C93 1.396 . S
H95 C90 0.929 . S
O96 Mn72 2.385 . S
O96 C74 1.234 . S
O97 Mn72 2.209 . S
O97 Mn73 2.215 . S
O97 C74 1.283 . S
O98 Mn72 2.094 . S
O98 C76 1.240 . S
O99 Mn73 2.117 . S
O99 C76 1.264 . S
C100 C93 1.403 . S
C100 C101 1.399 . S
C100 H106 0.929 . S
C101 C81 1.449 . S
C101 C100 1.399 . S
C101 H107 0.930 . S
H102 C82 0.931 . S
H103 C83 0.930 . S
H104 C91 0.931 . S
H105 C92 0.929 . S
H106 C100 0.929 . S
H107 C101 0.930 . S
Mn108 O113 2.095 . S
Mn108 O123 2.162 . S
Mn108 O124 2.297 . S
Mn108 O132 2.385 . S
Mn108 O133 2.209 . S
Mn108 O134 2.094 . S
Mn109 O114 2.121 . S
Mn109 N116 2.257 . S
Mn109 N125 2.282 . S
Mn109 O133 2.215 . S
Mn109 O135 2.117 . S
C110 O132 1.234 . S
C110 O133 1.283 . S
C111 O123 1.281 . S
C111 O124 1.236 . S
C112 O134 1.240 . S
C112 O135 1.264 . S
O113 Mn108 2.095 . S
O113 C122 1.250 . S
O114 Mn109 2.121 . S
O114 C122 1.258 . S
C115 N116 1.326 . S
C115 C119 1.460 . S
C115 H121 0.929 . S
N116 Mn109 2.257 . S
N116 C115 1.326 . S
N116 C120 1.362 . S
C117 C118 1.258 . S
C117 C120 1.431 . S
C117 C137 1.449 . S
C118 C117 1.258 . S
C118 C119 1.477 . S
C118 H138 0.931 . S
C119 C115 1.460 . S
C119 C118 1.477 . S
C119 H139 0.930 . S
C120 N116 1.362 . S
C120 C117 1.431 . S
C120 C130 1.476 . S
H121 C115 0.929 . S
C122 O113 1.250 . S
C122 O114 1.258 . S
O123 Mn108 2.162 . S
O123 C111 1.281 . S
O124 Mn108 2.297 . S
O124 C111 1.236 . S
N125 Mn109 2.282 . S
N125 C126 1.328 . S
N125 C130 1.318 . S
C126 N125 1.328 . S
C126 C127 1.457 . S
C126 H131 0.929 . S
C127 C126 1.457 . S
C127 C128 1.291 . S
C127 H140 0.931 . S
C128 C127 1.291 . S
C128 C129 1.373 . S
C128 H141 0.929 . S
C129 C128 1.373 . S
C129 C130 1.396 . S
C129 C136 1.403 . S
C130 C120 1.476 . S
C130 N125 1.318 . S
C130 C129 1.396 . S
H131 C126 0.929 . S
O132 Mn108 2.385 . S
O132 C110 1.234 . S
O133 Mn108 2.209 . S
O133 Mn109 2.215 . S
O133 C110 1.283 . S
O134 Mn108 2.094 . S
O134 C112 1.240 . S
O135 Mn109 2.117 . S
O135 C112 1.264 . S
C136 C129 1.403 . S
C136 C137 1.399 . S
C136 H142 0.929 . S
C137 C117 1.449 . S
C137 C136 1.399 . S
C137 H143 0.930 . S
H138 C118 0.931 . S
H139 C119 0.930 . S
H140 C127 0.931 . S
H141 C128 0.929 . S
H142 C136 0.929 . S
H143 C137 0.930 . S
Mn144 O149 2.095 . S
Mn144 O159 2.162 . S
Mn144 O160 2.297 . S
Mn144 O168 2.385 . S
Mn144 O169 2.209 . S
Mn144 O170 2.094 . S
Mn145 O150 2.121 . S
Mn145 N152 2.257 . S
Mn145 N161 2.282 . S
Mn145 O169 2.215 . S
Mn145 O171 2.117 . S
C146 O168 1.234 . S
C146 O169 1.283 . S
C147 O159 1.281 . S
C147 O160 1.236 . S
C148 O170 1.240 . S
C148 O171 1.264 . S
O149 Mn144 2.095 . S
O149 C158 1.250 . S
O150 Mn145 2.121 . S
O150 C158 1.258 . S
C151 N152 1.326 . S
C151 C155 1.460 . S
C151 H157 0.929 . S
N152 Mn145 2.257 . S
N152 C151 1.326 . S
N152 C156 1.362 . S
C153 C154 1.258 . S
C153 C156 1.431 . S
C153 C173 1.449 . S
C154 C153 1.258 . S
C154 C155 1.477 . S
C154 H174 0.931 . S
C155 C151 1.460 . S
C155 C154 1.477 . S
C155 H175 0.930 . S
C156 N152 1.362 . S
C156 C153 1.431 . S
C156 C166 1.476 . S
H157 C151 0.929 . S
C158 O149 1.250 . S
C158 O150 1.258 . S
O159 Mn144 2.162 . S
O159 C147 1.281 . S
O160 Mn144 2.297 . S
O160 C147 1.236 . S
N161 Mn145 2.282 . S
N161 C162 1.328 . S
N161 C166 1.318 . S
C162 N161 1.328 . S
C162 C163 1.457 . S
C162 H167 0.929 . S
C163 C162 1.457 . S
C163 C164 1.291 . S
C163 H176 0.931 . S
C164 C163 1.291 . S
C164 C165 1.373 . S
C164 H177 0.929 . S
C165 C164 1.373 . S
C165 C166 1.396 . S
C165 C172 1.403 . S
C166 C156 1.476 . S
C166 N161 1.318 . S
C166 C165 1.396 . S
H167 C162 0.929 . S
O168 Mn144 2.385 . S
O168 C146 1.234 . S
O169 Mn144 2.209 . S
O169 Mn145 2.215 . S
O169 C146 1.283 . S
O170 Mn144 2.094 . S
O170 C148 1.240 . S
O171 Mn145 2.117 . S
O171 C148 1.264 . S
C172 C165 1.403 . S
C172 C173 1.399 . S
C172 H178 0.929 . S
C173 C153 1.449 . S
C173 C172 1.399 . S
C173 H179 0.930 . S
H174 C154 0.931 . S
H175 C155 0.930 . S
H176 C163 0.931 . S
H177 C164 0.929 . S
H178 C172 0.929 . S
H179 C173 0.930 . S
Mn180 O185 2.095 . S
Mn180 O195 2.162 . S
Mn180 O196 2.297 . S
Mn180 O204 2.385 . S
Mn180 O205 2.209 . S
Mn180 O206 2.094 . S
Mn181 O186 2.121 . S
Mn181 N188 2.257 . S
Mn181 N197 2.282 1_556 S
Mn181 O205 2.215 . S
Mn181 O207 2.117 . S
C182 O204 1.234 . S
C182 O205 1.283 . S
C183 O195 1.281 . S
C183 O196 1.236 . S
C184 O206 1.240 . S
C184 O207 1.264 . S
O185 Mn180 2.095 . S
O185 C194 1.250 . S
O186 Mn181 2.121 . S
O186 C194 1.258 . S
C187 N188 1.326 . S
C187 C191 1.460 . S
C187 H193 0.929 . S
N188 Mn181 2.257 . S
N188 C187 1.326 . S
N188 C192 1.362 1_556 S
C189 C190 1.258 . S
C189 C192 1.431 . S
C189 C209 1.449 . S
C190 C189 1.258 . S
C190 C191 1.477 1_554 S
C190 H210 0.931 . S
C191 C187 1.460 . S
C191 C190 1.477 1_556 S
C191 H211 0.930 . S
C192 N188 1.362 1_554 S
C192 C189 1.431 . S
C192 C202 1.476 . S
H193 C187 0.929 . S
C194 O185 1.250 . S
C194 O186 1.258 . S
O195 Mn180 2.162 . S
O195 C183 1.281 . S
O196 Mn180 2.297 . S
O196 C183 1.236 . S
N197 Mn181 2.282 1_554 S
N197 C198 1.328 . S
N197 C202 1.318 . S
C198 N197 1.328 . S
C198 C199 1.457 . S
C198 H203 0.929 . S
C199 C198 1.457 . S
C199 C200 1.291 . S
C199 H212 0.931 . S
C200 C199 1.291 . S
C200 C201 1.373 . S
C200 H213 0.929 . S
C201 C200 1.373 . S
C201 C202 1.396 . S
C201 C208 1.403 . S
C202 C192 1.476 . S
C202 N197 1.318 . S
C202 C201 1.396 . S
H203 C198 0.929 . S
O204 Mn180 2.385 . S
O204 C182 1.234 . S
O205 Mn180 2.209 . S
O205 Mn181 2.215 . S
O205 C182 1.283 . S
O206 Mn180 2.094 . S
O206 C184 1.240 . S
O207 Mn181 2.117 . S
O207 C184 1.264 . S
C208 C201 1.403 . S
C208 C209 1.399 . S
C208 H214 0.929 . S
C209 C189 1.449 . S
C209 C208 1.399 . S
C209 H215 0.930 . S
H210 C190 0.931 . S
H211 C191 0.930 . S
H212 C199 0.931 . S
H213 C200 0.929 . S
H214 C208 0.929 . S
H215 C209 0.930 . S
Mn216 O221 2.095 . S
Mn216 O231 2.162 . S
Mn216 O232 2.297 . S
Mn216 O240 2.385 . S
Mn216 O241 2.209 . S
Mn216 O242 2.094 . S
Mn217 O222 2.121 . S
Mn217 N224 2.257 . S
Mn217 N233 2.282 . S
Mn217 O241 2.215 . S
Mn217 O243 2.117 . S
C218 O240 1.234 . S
C218 O241 1.283 . S
C219 O231 1.281 . S
C219 O232 1.236 . S
C220 O242 1.240 . S
C220 O243 1.264 . S
O221 Mn216 2.095 . S
O221 C230 1.250 . S
O222 Mn217 2.121 . S
O222 C230 1.258 . S
C223 N224 1.326 . S
C223 C227 1.460 . S
C223 H229 0.929 . S
N224 Mn217 2.257 . S
N224 C223 1.326 . S
N224 C228 1.362 . S
C225 C226 1.258 . S
C225 C228 1.431 . S
C225 C245 1.449 . S
C226 C225 1.258 . S
C226 C227 1.477 . S
C226 H246 0.931 . S
C227 C223 1.460 . S
C227 C226 1.477 . S
C227 H247 0.930 . S
C228 N224 1.362 . S
C228 C225 1.431 . S
C228 C238 1.476 . S
H229 C223 0.929 . S
C230 O221 1.250 . S
C230 O222 1.258 . S
O231 Mn216 2.162 . S
O231 C219 1.281 . S
O232 Mn216 2.297 . S
O232 C219 1.236 . S
N233 Mn217 2.282 . S
N233 C234 1.328 . S
N233 C238 1.318 . S
C234 N233 1.328 . S
C234 C235 1.457 . S
C234 H239 0.929 . S
C235 C234 1.457 . S
C235 C236 1.291 . S
C235 H248 0.931 . S
C236 C235 1.291 . S
C236 C237 1.373 . S
C236 H249 0.929 . S
C237 C236 1.373 . S
C237 C238 1.396 . S
C237 C244 1.403 . S
C238 C228 1.476 . S
C238 N233 1.318 . S
C238 C237 1.396 . S
H239 C234 0.929 . S
O240 Mn216 2.385 . S
O240 C218 1.234 . S
O241 Mn216 2.209 . S
O241 Mn217 2.215 . S
O241 C218 1.283 . S
O242 Mn216 2.094 . S
O242 C220 1.240 . S
O243 Mn217 2.117 . S
O243 C220 1.264 . S
C244 C237 1.403 . S
C244 C245 1.399 . S
C244 H250 0.929 . S
C245 C225 1.449 . S
C245 C244 1.399 . S
C245 H251 0.930 . S
H246 C226 0.931 . S
H247 C227 0.930 . S
H248 C235 0.931 . S
H249 C236 0.929 . S
H250 C244 0.929 . S
H251 C245 0.930 . S
Mn252 O257 2.095 . S
Mn252 O267 2.162 . S
Mn252 O268 2.297 . S
Mn252 O276 2.385 . S
Mn252 O277 2.209 . S
Mn252 O278 2.094 . S
Mn253 O258 2.121 . S
Mn253 N260 2.257 . S
Mn253 N269 2.282 . S
Mn253 O277 2.215 . S
Mn253 O279 2.117 . S
C254 O276 1.234 . S
C254 O277 1.283 . S
C255 O267 1.281 . S
C255 O268 1.236 . S
C256 O278 1.240 . S
C256 O279 1.264 . S
O257 Mn252 2.095 . S
O257 C266 1.250 . S
O258 Mn253 2.121 . S
O258 C266 1.258 . S
C259 N260 1.326 . S
C259 C263 1.460 . S
C259 H265 0.929 . S
N260 Mn253 2.257 . S
N260 C259 1.326 . S
N260 C264 1.362 . S
C261 C262 1.258 . S
C261 C264 1.431 . S
C261 C281 1.449 . S
C262 C261 1.258 . S
C262 C263 1.477 . S
C262 H282 0.931 . S
C263 C259 1.460 . S
C263 C262 1.477 . S
C263 H283 0.930 . S
C264 N260 1.362 . S
C264 C261 1.431 . S
C264 C274 1.476 . S
H265 C259 0.929 . S
C266 O257 1.250 . S
C266 O258 1.258 . S
O267 Mn252 2.162 . S
O267 C255 1.281 . S
O268 Mn252 2.297 . S
O268 C255 1.236 . S
N269 Mn253 2.282 . S
N269 C270 1.328 . S
N269 C274 1.318 . S
C270 N269 1.328 . S
C270 C271 1.457 . S
C270 H275 0.929 . S
C271 C270 1.457 . S
C271 C272 1.291 . S
C271 H284 0.931 . S
C272 C271 1.291 . S
C272 C273 1.373 . S
C272 H285 0.929 . S
C273 C272 1.373 . S
C273 C274 1.396 . S
C273 C280 1.403 . S
C274 C264 1.476 . S
C274 N269 1.318 . S
C274 C273 1.396 . S
H275 C270 0.929 . S
O276 Mn252 2.385 . S
O276 C254 1.234 . S
O277 Mn252 2.209 . S
O277 Mn253 2.215 . S
O277 C254 1.283 . S
O278 Mn252 2.094 . S
O278 C256 1.240 . S
O279 Mn253 2.117 . S
O279 C256 1.264 . S
C280 C273 1.403 . S
C280 C281 1.399 . S
C280 H286 0.929 . S
C281 C261 1.449 . S
C281 C280 1.399 . S
C281 H287 0.930 . S
H282 C262 0.931 . S
H283 C263 0.930 . S
H284 C271 0.931 . S
H285 C272 0.929 . S
H286 C280 0.929 . S
H287 C281 0.930 . S
Mn288 O293 2.095 . S
Mn288 O303 2.162 . S
Mn288 O304 2.297 . S
Mn288 O312 2.385 . S
Mn288 O313 2.209 . S
Mn288 O314 2.094 . S
Mn289 O294 2.121 . S
Mn289 N296 2.257 . S
Mn289 N305 2.282 1_554 S
Mn289 O313 2.215 . S
Mn289 O315 2.117 . S
C290 O312 1.234 . S
C290 O313 1.283 . S
C291 O303 1.281 . S
C291 O304 1.236 . S
C292 O314 1.240 . S
C292 O315 1.264 . S
O293 Mn288 2.095 . S
O293 C302 1.250 . S
O294 Mn289 2.121 . S
O294 C302 1.258 . S
C295 N296 1.326 . S
C295 C299 1.460 . S
C295 H301 0.929 . S
N296 Mn289 2.257 . S
N296 C295 1.326 . S
N296 C300 1.362 1_554 S
C297 C298 1.258 . S
C297 C300 1.431 . S
C297 C317 1.449 . S
C298 C297 1.258 . S
C298 C299 1.477 1_556 S
C298 H318 0.931 . S
C299 C295 1.460 . S
C299 C298 1.477 1_554 S
C299 H319 0.930 . S
C300 N296 1.362 1_556 S
C300 C297 1.431 . S
C300 C310 1.476 . S
H301 C295 0.929 . S
C302 O293 1.250 . S
C302 O294 1.258 . S
O303 Mn288 2.162 . S
O303 C291 1.281 . S
O304 Mn288 2.297 . S
O304 C291 1.236 . S
N305 Mn289 2.282 1_556 S
N305 C306 1.328 . S
N305 C310 1.318 . S
C306 N305 1.328 . S
C306 C307 1.457 . S
C306 H311 0.929 . S
C307 C306 1.457 . S
C307 C308 1.291 . S
C307 H320 0.931 . S
C308 C307 1.291 . S
C308 C309 1.373 . S
C308 H321 0.929 . S
C309 C308 1.373 . S
C309 C310 1.396 . S
C309 C316 1.403 . S
C310 C300 1.476 . S
C310 N305 1.318 . S
C310 C309 1.396 . S
H311 C306 0.929 . S
O312 Mn288 2.385 . S
O312 C290 1.234 . S
O313 Mn288 2.209 . S
O313 Mn289 2.215 . S
O313 C290 1.283 . S
O314 Mn288 2.094 . S
O314 C292 1.240 . S
O315 Mn289 2.117 . S
O315 C292 1.264 . S
C316 C309 1.403 . S
C316 C317 1.399 . S
C316 H322 0.929 . S
C317 C297 1.449 . S
C317 C316 1.399 . S
C317 H323 0.930 . S
H318 C298 0.931 . S
H319 C299 0.930 . S
H320 C307 0.931 . S
H321 C308 0.929 . S
H322 C316 0.929 . S
H323 C317 0.930 . S
Mn324 O329 2.095 . S
Mn324 O339 2.162 . S
Mn324 O340 2.297 . S
Mn324 O348 2.385 . S
Mn324 O349 2.209 . S
Mn324 O350 2.094 . S
Mn325 O330 2.121 . S
Mn325 N332 2.257 . S
Mn325 N341 2.282 . S
Mn325 O349 2.215 . S
Mn325 O351 2.117 . S
C326 O348 1.234 . S
C326 O349 1.283 . S
C327 O339 1.281 . S
C327 O340 1.236 . S
C328 O350 1.240 . S
C328 O351 1.264 . S
O329 Mn324 2.095 . S
O329 C338 1.250 . S
O330 Mn325 2.121 . S
O330 C338 1.258 . S
C331 N332 1.326 . S
C331 C335 1.460 . S
C331 H337 0.929 . S
N332 Mn325 2.257 . S
N332 C331 1.326 . S
N332 C336 1.362 . S
C333 C334 1.258 . S
C333 C336 1.431 . S
C333 C353 1.449 . S
C334 C333 1.258 . S
C334 C335 1.477 . S
C334 H354 0.931 . S
C335 C331 1.460 . S
C335 C334 1.477 . S
C335 H355 0.930 . S
C336 N332 1.362 . S
C336 C333 1.431 . S
C336 C346 1.476 . S
H337 C331 0.929 . S
C338 O329 1.250 . S
C338 O330 1.258 . S
O339 Mn324 2.162 . S
O339 C327 1.281 . S
O340 Mn324 2.297 . S
O340 C327 1.236 . S
N341 Mn325 2.282 . S
N341 C342 1.328 . S
N341 C346 1.318 . S
C342 N341 1.328 . S
C342 C343 1.457 . S
C342 H347 0.929 . S
C343 C342 1.457 . S
C343 C344 1.291 . S
C343 H356 0.931 . S
C344 C343 1.291 . S
C344 C345 1.373 . S
C344 H357 0.929 . S
C345 C344 1.373 . S
C345 C346 1.396 . S
C345 C352 1.403 . S
C346 C336 1.476 . S
C346 N341 1.318 . S
C346 C345 1.396 . S
H347 C342 0.929 . S
O348 Mn324 2.385 . S
O348 C326 1.234 . S
O349 Mn324 2.209 . S
O349 Mn325 2.215 . S
O349 C326 1.283 . S
O350 Mn324 2.094 . S
O350 C328 1.240 . S
O351 Mn325 2.117 . S
O351 C328 1.264 . S
C352 C345 1.403 . S
C352 C353 1.399 . S
C352 H358 0.929 . S
C353 C333 1.449 . S
C353 C352 1.399 . S
C353 H359 0.930 . S
H354 C334 0.931 . S
H355 C335 0.930 . S
H356 C343 0.931 . S
H357 C344 0.929 . S
H358 C352 0.929 . S
H359 C353 0.930 . S
Mn360 O365 2.095 . S
Mn360 O375 2.162 . S
Mn360 O376 2.297 . S
Mn360 O384 2.385 . S
Mn360 O385 2.209 . S
Mn360 O386 2.094 . S
Mn361 O366 2.121 . S
Mn361 N368 2.257 . S
Mn361 N377 2.282 . S
Mn361 O385 2.215 . S
Mn361 O387 2.117 . S
C362 O384 1.234 . S
C362 O385 1.283 . S
C363 O375 1.281 . S
C363 O376 1.236 . S
C364 O386 1.240 . S
C364 O387 1.264 . S
O365 Mn360 2.095 . S
O365 C374 1.250 . S
O366 Mn361 2.121 . S
O366 C374 1.258 . S
C367 N368 1.326 . S
C367 C371 1.460 . S
C367 H373 0.929 . S
N368 Mn361 2.257 . S
N368 C367 1.326 . S
N368 C372 1.362 . S
C369 C370 1.258 . S
C369 C372 1.431 . S
C369 C389 1.449 . S
C370 C369 1.258 . S
C370 C371 1.477 . S
C370 H390 0.931 . S
C371 C367 1.460 . S
C371 C370 1.477 . S
C371 H391 0.930 . S
C372 N368 1.362 . S
C372 C369 1.431 . S
C372 C382 1.476 . S
H373 C367 0.929 . S
C374 O365 1.250 . S
C374 O366 1.258 . S
O375 Mn360 2.162 . S
O375 C363 1.281 . S
O376 Mn360 2.297 . S
O376 C363 1.236 . S
N377 Mn361 2.282 . S
N377 C378 1.328 . S
N377 C382 1.318 . S
C378 N377 1.328 . S
C378 C379 1.457 . S
C378 H383 0.929 . S
C379 C378 1.457 . S
C379 C380 1.291 . S
C379 H392 0.931 . S
C380 C379 1.291 . S
C380 C381 1.373 . S
C380 H393 0.929 . S
C381 C380 1.373 . S
C381 C382 1.396 . S
C381 C388 1.403 . S
C382 C372 1.476 . S
C382 N377 1.318 . S
C382 C381 1.396 . S
H383 C378 0.929 . S
O384 Mn360 2.385 . S
O384 C362 1.234 . S
O385 Mn360 2.209 . S
O385 Mn361 2.215 . S
O385 C362 1.283 . S
O386 Mn360 2.094 . S
O386 C364 1.240 . S
O387 Mn361 2.117 . S
O387 C364 1.264 . S
C388 C381 1.403 . S
C388 C389 1.399 . S
C388 H394 0.929 . S
C389 C369 1.449 . S
C389 C388 1.399 . S
C389 H395 0.930 . S
H390 C370 0.931 . S
H391 C371 0.930 . S
H392 C379 0.931 . S
H393 C380 0.929 . S
H394 C388 0.929 . S
H395 C389 0.930 . S
Mn396 O401 2.095 . S
Mn396 O411 2.162 . S
Mn396 O412 2.297 . S
Mn396 O420 2.385 . S
Mn396 O421 2.209 . S
Mn396 O422 2.094 . S
Mn397 O402 2.121 . S
Mn397 N404 2.257 . S
Mn397 N413 2.282 . S
Mn397 O421 2.215 . S
Mn397 O423 2.117 . S
C398 O420 1.234 . S
C398 O421 1.283 . S
C399 O411 1.281 . S
C399 O412 1.236 . S
C400 O422 1.240 . S
C400 O423 1.264 . S
O401 Mn396 2.095 . S
O401 C410 1.250 . S
O402 Mn397 2.121 . S
O402 C410 1.258 . S
C403 N404 1.326 . S
C403 C407 1.460 . S
C403 H409 0.929 . S
N404 Mn397 2.257 . S
N404 C403 1.326 . S
N404 C408 1.362 . S
C405 C406 1.258 . S
C405 C408 1.431 . S
C405 C425 1.449 . S
C406 C405 1.258 . S
C406 C407 1.477 . S
C406 H426 0.931 . S
C407 C403 1.460 . S
C407 C406 1.477 . S
C407 H427 0.930 . S
C408 N404 1.362 . S
C408 C405 1.431 . S
C408 C418 1.476 . S
H409 C403 0.929 . S
C410 O401 1.250 . S
C410 O402 1.258 . S
O411 Mn396 2.162 . S
O411 C399 1.281 . S
O412 Mn396 2.297 . S
O412 C399 1.236 . S
N413 Mn397 2.282 . S
N413 C414 1.328 . S
N413 C418 1.318 . S
C414 N413 1.328 . S
C414 C415 1.457 . S
C414 H419 0.929 . S
C415 C414 1.457 . S
C415 C416 1.291 . S
C415 H428 0.931 . S
C416 C415 1.291 . S
C416 C417 1.373 . S
C416 H429 0.929 . S
C417 C416 1.373 . S
C417 C418 1.396 . S
C417 C424 1.403 . S
C418 C408 1.476 . S
C418 N413 1.318 . S
C418 C417 1.396 . S
H419 C414 0.929 . S
O420 Mn396 2.385 . S
O420 C398 1.234 . S
O421 Mn396 2.209 . S
O421 Mn397 2.215 . S
O421 C398 1.283 . S
O422 Mn396 2.094 . S
O422 C400 1.240 . S
O423 Mn397 2.117 . S
O423 C400 1.264 . S
C424 C417 1.403 . S
C424 C425 1.399 . S
C424 H430 0.929 . S
C425 C405 1.449 . S
C425 C424 1.399 . S
C425 H431 0.930 . S
H426 C406 0.931 . S
H427 C407 0.930 . S
H428 C415 0.931 . S
H429 C416 0.929 . S
H430 C424 0.929 . S
H431 C425 0.930 . S
C432 C433 1.391 . S
C432 C434 1.394 . S
C432 H448 0.931 . S
C433 C432 1.391 . S
C433 C437 1.376 . S
C434 C432 1.394 . S
C434 C435 1.369 . S
C434 C438 1.531 . S
C435 C434 1.369 . S
C435 C436 1.410 . S
C435 C443 1.503 . S
C436 C435 1.410 . S
C436 C437 1.392 . S
C436 C439 1.511 . S
C437 C433 1.376 . S
C437 C436 1.392 . S
C437 H449 0.929 . S
C438 C434 1.531 . S
C438 H450 0.960 . S
C438 H451 0.962 . S
C438 H452 0.960 . S
C439 C436 1.511 . S
C439 H453 0.961 . S
C439 H454 0.961 . S
C439 H455 0.961 . S
C440 C441 1.370 . S
C440 C442 1.363 . S
C440 H456 0.931 . S
C441 C440 1.370 . S
C441 C445 1.408 . S
C442 C440 1.363 . S
C442 C443 1.370 . S
C442 C446 1.524 . S
C443 C435 1.503 . S
C443 C442 1.370 . S
C443 C444 1.403 . S
C444 C443 1.403 . S
C444 C445 1.404 . S
C444 C447 1.539 . S
C445 C441 1.408 . S
C445 C444 1.404 . S
C445 H457 0.930 . S
C446 C442 1.524 . S
C446 H458 0.956 . S
C446 H459 0.961 . S
C446 H460 0.961 . S
C447 C444 1.539 . S
C447 H461 0.958 . S
C447 H462 0.961 . S
C447 H463 0.960 . S
H448 C432 0.931 . S
H449 C437 0.929 . S
H450 C438 0.960 . S
H451 C438 0.962 . S
H452 C438 0.960 . S
H453 C439 0.961 . S
H454 C439 0.961 . S
H455 C439 0.961 . S
H456 C440 0.931 . S
H457 C445 0.930 . S
H458 C446 0.956 . S
H459 C446 0.961 . S
H460 C446 0.961 . S
H461 C447 0.958 . S
H462 C447 0.961 . S
H463 C447 0.960 . S
C464 C465 1.391 . S
C464 C466 1.394 . S
C464 H480 0.931 . S
C465 C464 1.391 . S
C465 C469 1.376 . S
C466 C464 1.394 . S
C466 C467 1.369 . S
C466 C470 1.531 . S
C467 C466 1.369 . S
C467 C468 1.410 . S
C467 C475 1.503 . S
C468 C467 1.410 . S
C468 C469 1.392 . S
C468 C471 1.511 . S
C469 C465 1.376 . S
C469 C468 1.392 . S
C469 H481 0.929 . S
C470 C466 1.531 . S
C470 H482 0.960 . S
C470 H483 0.962 . S
C470 H484 0.960 . S
C471 C468 1.511 . S
C471 H485 0.961 . S
C471 H486 0.961 . S
C471 H487 0.961 . S
C472 C473 1.370 . S
C472 C474 1.363 . S
C472 H488 0.931 . S
C473 C472 1.370 . S
C473 C477 1.408 . S
C474 C472 1.363 . S
C474 C475 1.370 . S
C474 C478 1.524 . S
C475 C467 1.503 . S
C475 C474 1.370 . S
C475 C476 1.403 . S
C476 C475 1.403 . S
C476 C477 1.404 . S
C476 C479 1.539 . S
C477 C473 1.408 . S
C477 C476 1.404 . S
C477 H489 0.930 . S
C478 C474 1.524 . S
C478 H490 0.956 . S
C478 H491 0.961 . S
C478 H492 0.961 . S
C479 C476 1.539 . S
C479 H493 0.958 . S
C479 H494 0.961 . S
C479 H495 0.960 . S
H480 C464 0.931 . S
H481 C469 0.929 . S
H482 C470 0.960 . S
H483 C470 0.962 . S
H484 C470 0.960 . S
H485 C471 0.961 . S
H486 C471 0.961 . S
H487 C471 0.961 . S
H488 C472 0.931 . S
H489 C477 0.930 . S
H490 C478 0.956 . S
H491 C478 0.961 . S
H492 C478 0.961 . S
H493 C479 0.958 . S
H494 C479 0.961 . S
H495 C479 0.960 . S
C496 C497 1.391 . S
C496 C498 1.394 . S
C496 H512 0.931 . S
C497 C496 1.391 . S
C497 C501 1.376 . S
C498 C496 1.394 . S
C498 C499 1.369 . S
C498 C502 1.531 . S
C499 C498 1.369 . S
C499 C500 1.410 . S
C499 C507 1.503 . S
C500 C499 1.410 . S
C500 C501 1.392 . S
C500 C503 1.511 . S
C501 C497 1.376 . S
C501 C500 1.392 . S
C501 H513 0.929 . S
C502 C498 1.531 . S
C502 H514 0.960 . S
C502 H515 0.962 . S
C502 H516 0.960 . S
C503 C500 1.511 . S
C503 H517 0.961 . S
C503 H518 0.961 . S
C503 H519 0.961 . S
C504 C505 1.370 . S
C504 C506 1.363 . S
C504 H520 0.931 . S
C505 C504 1.370 . S
C505 C509 1.408 . S
C506 C504 1.363 . S
C506 C507 1.370 . S
C506 C510 1.524 . S
C507 C499 1.503 . S
C507 C506 1.370 . S
C507 C508 1.403 . S
C508 C507 1.403 . S
C508 C509 1.404 . S
C508 C511 1.539 . S
C509 C505 1.408 . S
C509 C508 1.404 . S
C509 H521 0.930 . S
C510 C506 1.524 . S
C510 H522 0.956 . S
C510 H523 0.961 . S
C510 H524 0.961 . S
C511 C508 1.539 . S
C511 H525 0.958 . S
C511 H526 0.961 . S
C511 H527 0.960 . S
H512 C496 0.931 . S
H513 C501 0.929 . S
H514 C502 0.960 . S
H515 C502 0.962 . S
H516 C502 0.960 . S
H517 C503 0.961 . S
H518 C503 0.961 . S
H519 C503 0.961 . S
H520 C504 0.931 . S
H521 C509 0.930 . S
H522 C510 0.956 . S
H523 C510 0.961 . S
H524 C510 0.961 . S
H525 C511 0.958 . S
H526 C511 0.961 . S
H527 C511 0.960 . S
C528 C529 1.391 . S
C528 C530 1.394 . S
C528 H544 0.931 . S
C529 C528 1.391 . S
C529 C533 1.376 . S
C530 C528 1.394 . S
C530 C531 1.369 . S
C530 C534 1.531 . S
C531 C530 1.369 . S
C531 C532 1.410 . S
C531 C539 1.503 . S
C532 C531 1.410 . S
C532 C533 1.392 . S
C532 C535 1.511 . S
C533 C529 1.376 . S
C533 C532 1.392 . S
C533 H545 0.929 . S
C534 C530 1.531 . S
C534 H546 0.960 . S
C534 H547 0.962 . S
C534 H548 0.960 . S
C535 C532 1.511 . S
C535 H549 0.961 . S
C535 H550 0.961 . S
C535 H551 0.961 . S
C536 C537 1.370 . S
C536 C538 1.363 . S
C536 H552 0.931 . S
C537 C536 1.370 . S
C537 C541 1.408 . S
C538 C536 1.363 . S
C538 C539 1.370 . S
C538 C542 1.524 . S
C539 C531 1.503 . S
C539 C538 1.370 . S
C539 C540 1.403 . S
C540 C539 1.403 . S
C540 C541 1.404 . S
C540 C543 1.539 . S
C541 C537 1.408 . S
C541 C540 1.404 . S
C541 H553 0.930 . S
C542 C538 1.524 . S
C542 H554 0.956 . S
C542 H555 0.961 . S
C542 H556 0.961 . S
C543 C540 1.539 . S
C543 H557 0.958 . S
C543 H558 0.961 . S
C543 H559 0.960 . S
H544 C528 0.931 . S
H545 C533 0.929 . S
H546 C534 0.960 . S
H547 C534 0.962 . S
H548 C534 0.960 . S
H549 C535 0.961 . S
H550 C535 0.961 . S
H551 C535 0.961 . S
H552 C536 0.931 . S
H553 C541 0.930 . S
H554 C542 0.956 . S
H555 C542 0.961 . S
H556 C542 0.961 . S
H557 C543 0.958 . S
H558 C543 0.961 . S
H559 C543 0.960 . S
C560 C561 1.391 . S
C560 C562 1.394 . S
C560 H576 0.931 . S
C561 C560 1.391 . S
C561 C565 1.376 . S
C562 C560 1.394 . S
C562 C563 1.369 . S
C562 C566 1.531 . S
C563 C562 1.369 . S
C563 C564 1.410 . S
C563 C571 1.503 . S
C564 C563 1.410 . S
C564 C565 1.392 . S
C564 C567 1.511 . S
C565 C561 1.376 . S
C565 C564 1.392 . S
C565 H577 0.929 . S
C566 C562 1.531 . S
C566 H578 0.960 . S
C566 H579 0.962 . S
C566 H580 0.960 . S
C567 C564 1.511 . S
C567 H581 0.961 . S
C567 H582 0.961 . S
C567 H583 0.961 . S
C568 C569 1.370 . S
C568 C570 1.363 . S
C568 H584 0.931 . S
C569 C568 1.370 . S
C569 C573 1.408 . S
C570 C568 1.363 . S
C570 C571 1.370 . S
C570 C574 1.524 . S
C571 C563 1.503 . S
C571 C570 1.370 . S
C571 C572 1.403 . S
C572 C571 1.403 . S
C572 C573 1.404 . S
C572 C575 1.539 . S
C573 C569 1.408 . S
C573 C572 1.404 . S
C573 H585 0.930 . S
C574 C570 1.524 . S
C574 H586 0.956 . S
C574 H587 0.961 . S
C574 H588 0.961 . S
C575 C572 1.539 . S
C575 H589 0.958 . S
C575 H590 0.961 . S
C575 H591 0.960 . S
H576 C560 0.931 . S
H577 C565 0.929 . S
H578 C566 0.960 . S
H579 C566 0.962 . S
H580 C566 0.960 . S
H581 C567 0.961 . S
H582 C567 0.961 . S
H583 C567 0.961 . S
H584 C568 0.931 . S
H585 C573 0.930 . S
H586 C574 0.956 . S
H587 C574 0.961 . S
H588 C574 0.961 . S
H589 C575 0.958 . S
H590 C575 0.961 . S
H591 C575 0.960 . S
C592 C593 1.391 . S
C592 C594 1.394 . S
C592 H608 0.931 . S
C593 C592 1.391 . S
C593 C597 1.376 . S
C594 C592 1.394 . S
C594 C595 1.369 . S
C594 C598 1.531 . S
C595 C594 1.369 . S
C595 C596 1.410 . S
C595 C603 1.503 . S
C596 C595 1.410 . S
C596 C597 1.392 . S
C596 C599 1.511 . S
C597 C593 1.376 . S
C597 C596 1.392 . S
C597 H609 0.929 . S
C598 C594 1.531 . S
C598 H610 0.960 . S
C598 H611 0.962 . S
C598 H612 0.960 . S
C599 C596 1.511 . S
C599 H613 0.961 . S
C599 H614 0.961 . S
C599 H615 0.961 . S
C600 C601 1.370 . S
C600 C602 1.363 . S
C600 H616 0.931 . S
C601 C600 1.370 . S
C601 C605 1.408 . S
C602 C600 1.363 . S
C602 C603 1.370 . S
C602 C606 1.524 . S
C603 C595 1.503 . S
C603 C602 1.370 . S
C603 C604 1.403 . S
C604 C603 1.403 . S
C604 C605 1.404 . S
C604 C607 1.539 . S
C605 C601 1.408 . S
C605 C604 1.404 . S
C605 H617 0.930 . S
C606 C602 1.524 . S
C606 H618 0.956 . S
C606 H619 0.961 . S
C606 H620 0.961 . S
C607 C604 1.539 . S
C607 H621 0.958 . S
C607 H622 0.961 . S
C607 H623 0.960 . S
H608 C592 0.931 . S
H609 C597 0.929 . S
H610 C598 0.960 . S
H611 C598 0.962 . S
H612 C598 0.960 . S
H613 C599 0.961 . S
H614 C599 0.961 . S
H615 C599 0.961 . S
H616 C600 0.931 . S
H617 C605 0.930 . S
H618 C606 0.956 . S
H619 C606 0.961 . S
H620 C606 0.961 . S
H621 C607 0.958 . S
H622 C607 0.961 . S
H623 C607 0.960 . S
C624 C625 1.391 . S
C624 C626 1.394 . S
C624 H640 0.931 . S
C625 C624 1.391 . S
C625 C629 1.376 . S
C626 C624 1.394 . S
C626 C627 1.369 . S
C626 C630 1.531 . S
C627 C626 1.369 . S
C627 C628 1.410 . S
C627 C635 1.503 . S
C628 C627 1.410 . S
C628 C629 1.392 . S
C628 C631 1.511 . S
C629 C625 1.376 . S
C629 C628 1.392 . S
C629 H641 0.929 . S
C630 C626 1.531 . S
C630 H642 0.960 . S
C630 H643 0.962 . S
C630 H644 0.960 . S
C631 C628 1.511 . S
C631 H645 0.961 . S
C631 H646 0.961 . S
C631 H647 0.961 . S
C632 C633 1.370 . S
C632 C634 1.363 . S
C632 H648 0.931 . S
C633 C632 1.370 . S
C633 C637 1.408 . S
C634 C632 1.363 . S
C634 C635 1.370 . S
C634 C638 1.524 . S
C635 C627 1.503 . S
C635 C634 1.370 . S
C635 C636 1.403 . S
C636 C635 1.403 . S
C636 C637 1.404 . S
C636 C639 1.539 . S
C637 C633 1.408 . S
C637 C636 1.404 . S
C637 H649 0.930 . S
C638 C634 1.524 . S
C638 H650 0.956 . S
C638 H651 0.961 . S
C638 H652 0.961 . S
C639 C636 1.539 . S
C639 H653 0.958 . S
C639 H654 0.961 . S
C639 H655 0.960 . S
H640 C624 0.931 . S
H641 C629 0.929 . S
H642 C630 0.960 . S
H643 C630 0.962 . S
H644 C630 0.960 . S
H645 C631 0.961 . S
H646 C631 0.961 . S
H647 C631 0.961 . S
H648 C632 0.931 . S
H649 C637 0.930 . S
H650 C638 0.956 . S
H651 C638 0.961 . S
H652 C638 0.961 . S
H653 C639 0.958 . S
H654 C639 0.961 . S
H655 C639 0.960 . S
C656 C657 1.391 . S
C656 C658 1.394 . S
C656 H672 0.931 . S
C657 C656 1.391 . S
C657 C661 1.376 . S
C658 C656 1.394 . S
C658 C659 1.369 . S
C658 C662 1.531 1_655 S
C659 C658 1.369 . S
C659 C660 1.410 . S
C659 C667 1.503 1_655 S
C660 C659 1.410 . S
C660 C661 1.392 . S
C660 C663 1.511 . S
C661 C657 1.376 . S
C661 C660 1.392 . S
C661 H673 0.929 . S
C662 C658 1.531 1_455 S
C662 H674 0.960 . S
C662 H675 0.962 . S
C662 H676 0.960 . S
C663 C660 1.511 . S
C663 H677 0.961 . S
C663 H678 0.961 . S
C663 H679 0.961 . S
C664 C665 1.370 . S
C664 C666 1.363 . S
C664 H680 0.931 . S
C665 C664 1.370 . S
C665 C669 1.408 . S
C666 C664 1.363 . S
C666 C667 1.370 . S
C666 C670 1.524 . S
C667 C659 1.503 1_455 S
C667 C666 1.370 . S
C667 C668 1.403 . S
C668 C667 1.403 . S
C668 C669 1.404 . S
C668 C671 1.539 . S
C669 C665 1.408 . S
C669 C668 1.404 . S
C669 H681 0.930 . S
C670 C666 1.524 . S
C670 H682 0.956 . S
C670 H683 0.961 1_455 S
C670 H684 0.961 . S
C671 C668 1.539 . S
C671 H685 0.958 . S
C671 H686 0.961 . S
C671 H687 0.960 1_455 S
H672 C656 0.931 . S
H673 C661 0.929 . S
H674 C662 0.960 . S
H675 C662 0.962 . S
H676 C662 0.960 . S
H677 C663 0.961 . S
H678 C663 0.961 . S
H679 C663 0.961 . S
H680 C664 0.931 . S
H681 C669 0.930 . S
H682 C670 0.956 . S
H683 C670 0.961 1_655 S
H684 C670 0.961 . S
H685 C671 0.958 . S
H686 C671 0.961 . S
H687 C671 0.960 1_655 S
C688 C689 1.391 . S
C688 C690 1.394 . S
C688 H704 0.931 . S
C689 C688 1.391 . S
C689 C693 1.376 . S
C690 C688 1.394 . S
C690 C691 1.369 . S
C690 C694 1.531 . S
C691 C690 1.369 . S
C691 C692 1.410 . S
C691 C699 1.503 1_545 S
C692 C691 1.410 . S
C692 C693 1.392 . S
C692 C695 1.511 1_545 S
C693 C689 1.376 . S
C693 C692 1.392 . S
C693 H705 0.929 . S
C694 C690 1.531 . S
C694 H706 0.960 . S
C694 H707 0.962 . S
C694 H708 0.960 . S
C695 C692 1.511 1_565 S
C695 H709 0.961 . S
C695 H710 0.961 . S
C695 H711 0.961 . S
C696 C697 1.370 . S
C696 C698 1.363 . S
C696 H712 0.931 . S
C697 C696 1.370 . S
C697 C701 1.408 . S
C698 C696 1.363 . S
C698 C699 1.370 . S
C698 C702 1.524 1_565 S
C699 C691 1.503 1_565 S
C699 C698 1.370 . S
C699 C700 1.403 . S
C700 C699 1.403 . S
C700 C701 1.404 . S
C700 C703 1.539 . S
C701 C697 1.408 . S
C701 C700 1.404 . S
C701 H713 0.930 . S
C702 C698 1.524 1_545 S
C702 H714 0.956 . S
C702 H715 0.961 . S
C702 H716 0.961 . S
C703 C700 1.539 . S
C703 H717 0.958 . S
C703 H718 0.961 . S
C703 H719 0.960 . S
H704 C688 0.931 . S
H705 C693 0.929 . S
H706 C694 0.960 . S
H707 C694 0.962 . S
H708 C694 0.960 . S
H709 C695 0.961 . S
H710 C695 0.961 . S
H711 C695 0.961 . S
H712 C696 0.931 . S
H713 C701 0.930 . S
H714 C702 0.956 . S
H715 C702 0.961 . S
H716 C702 0.961 . S
H717 C703 0.958 . S
H718 C703 0.961 . S
H719 C703 0.960 . S
C720 C721 1.391 . S
C720 C722 1.394 . S
C720 H736 0.931 . S
C721 C720 1.391 . S
C721 C725 1.376 . S
C722 C720 1.394 . S
C722 C723 1.369 . S
C722 C726 1.531 . S
C723 C722 1.369 . S
C723 C724 1.410 . S
C723 C731 1.503 . S
C724 C723 1.410 . S
C724 C725 1.392 . S
C724 C727 1.511 . S
C725 C721 1.376 . S
C725 C724 1.392 . S
C725 H737 0.929 . S
C726 C722 1.531 . S
C726 H738 0.960 . S
C726 H739 0.962 . S
C726 H740 0.960 . S
C727 C724 1.511 . S
C727 H741 0.961 . S
C727 H742 0.961 . S
C727 H743 0.961 . S
C728 C729 1.370 . S
C728 C730 1.363 . S
C728 H744 0.931 . S
C729 C728 1.370 . S
C729 C733 1.408 . S
C730 C728 1.363 . S
C730 C731 1.370 . S
C730 C734 1.524 . S
C731 C723 1.503 . S
C731 C730 1.370 . S
C731 C732 1.403 . S
C732 C731 1.403 . S
C732 C733 1.404 . S
C732 C735 1.539 . S
C733 C729 1.408 . S
C733 C732 1.404 . S
C733 H745 0.930 . S
C734 C730 1.524 . S
C734 H746 0.956 . S
C734 H747 0.961 . S
C734 H748 0.961 . S
C735 C732 1.539 . S
C735 H749 0.958 . S
C735 H750 0.961 . S
C735 H751 0.960 . S
H736 C720 0.931 . S
H737 C725 0.929 . S
H738 C726 0.960 . S
H739 C726 0.962 . S
H740 C726 0.960 . S
H741 C727 0.961 . S
H742 C727 0.961 . S
H743 C727 0.961 . S
H744 C728 0.931 . S
H745 C733 0.930 . S
H746 C734 0.956 . S
H747 C734 0.961 . S
H748 C734 0.961 . S
H749 C735 0.958 . S
H750 C735 0.961 . S
H751 C735 0.960 . S
C752 C753 1.391 . S
C752 C754 1.394 . S
C752 H768 0.931 . S
C753 C752 1.391 . S
C753 C757 1.376 . S
C754 C752 1.394 . S
C754 C755 1.369 . S
C754 C758 1.531 . S
C755 C754 1.369 . S
C755 C756 1.410 . S
C755 C763 1.503 1_655 S
C756 C755 1.410 . S
C756 C757 1.392 . S
C756 C759 1.511 1_655 S
C757 C753 1.376 . S
C757 C756 1.392 . S
C757 H769 0.929 . S
C758 C754 1.531 . S
C758 H770 0.960 . S
C758 H771 0.962 . S
C758 H772 0.960 . S
C759 C756 1.511 1_455 S
C759 H773 0.961 . S
C759 H774 0.961 . S
C759 H775 0.961 . S
C760 C761 1.370 . S
C760 C762 1.363 . S
C760 H776 0.931 . S
C761 C760 1.370 . S
C761 C765 1.408 . S
C762 C760 1.363 . S
C762 C763 1.370 . S
C762 C766 1.524 . S
C763 C755 1.503 1_455 S
C763 C762 1.370 . S
C763 C764 1.403 . S
C764 C763 1.403 . S
C764 C765 1.404 . S
C764 C767 1.539 . S
C765 C761 1.408 . S
C765 C764 1.404 . S
C765 H777 0.930 . S
C766 C762 1.524 . S
C766 H778 0.956 1_455 S
C766 H779 0.961 . S
C766 H780 0.961 . S
C767 C764 1.539 . S
C767 H781 0.958 . S
C767 H782 0.961 . S
C767 H783 0.960 . S
H768 C752 0.931 . S
H769 C757 0.929 . S
H770 C758 0.960 . S
H771 C758 0.962 . S
H772 C758 0.960 . S
H773 C759 0.961 . S
H774 C759 0.961 . S
H775 C759 0.961 . S
H776 C760 0.931 . S
H777 C765 0.930 . S
H778 C766 0.956 1_655 S
H779 C766 0.961 . S
H780 C766 0.961 . S
H781 C767 0.958 . S
H782 C767 0.961 . S
H783 C767 0.960 . S
C784 C785 1.391 . S
C784 C786 1.394 1_554 S
C784 H800 0.931 . S
C785 C784 1.391 . S
C785 C789 1.376 . S
C786 C784 1.394 1_556 S
C786 C787 1.369 1_556 S
C786 C790 1.531 . S
C787 C786 1.369 1_554 S
C787 C788 1.410 . S
C787 C795 1.503 1_564 S
C788 C787 1.410 . S
C788 C789 1.392 . S
C788 C791 1.511 1_565 S
C789 C785 1.376 . S
C789 C788 1.392 . S
C789 H801 0.929 . S
C790 C786 1.531 . S
C790 H802 0.960 . S
C790 H803 0.962 . S
C790 H804 0.960 . S
C791 C788 1.511 1_545 S
C791 H805 0.961 . S
C791 H806 0.961 . S
C791 H807 0.961 . S
C792 C793 1.370 . S
C792 C794 1.363 . S
C792 H808 0.931 . S
C793 C792 1.370 . S
C793 C797 1.408 . S
C794 C792 1.363 . S
C794 C795 1.370 . S
C794 C798 1.524 1_556 S
C795 C787 1.503 1_546 S
C795 C794 1.370 . S
C795 C796 1.403 . S
C796 C795 1.403 . S
C796 C797 1.404 . S
C796 C799 1.539 . S
C797 C793 1.408 . S
C797 C796 1.404 . S
C797 H809 0.930 . S
C798 C794 1.524 1_554 S
C798 H810 0.956 1_544 S
C798 H811 0.961 . S
C798 H812 0.961 . S
C799 C796 1.539 . S
C799 H813 0.958 1_545 S
C799 H814 0.961 . S
C799 H815 0.960 1_545 S
H800 C784 0.931 . S
H801 C789 0.929 . S
H802 C790 0.960 . S
H803 C790 0.962 . S
H804 C790 0.960 . S
H805 C791 0.961 . S
H806 C791 0.961 . S
H807 C791 0.961 . S
H808 C792 0.931 . S
H809 C797 0.930 . S
H810 C798 0.956 1_566 S
H811 C798 0.961 . S
H812 C798 0.961 . S
H813 C799 0.958 1_565 S
H814 C799 0.961 . S
H815 C799 0.960 1_565 S
C816 C817 1.391 . S
C816 C818 1.394 . S
C816 H832 0.931 . S
C817 C816 1.391 . S
C817 C821 1.376 . S
C818 C816 1.394 . S
C818 C819 1.369 . S
C818 C822 1.531 . S
C819 C818 1.369 . S
C819 C820 1.410 . S
C819 C827 1.503 . S
C820 C819 1.410 . S
C820 C821 1.392 . S
C820 C823 1.511 . S
C821 C817 1.376 . S
C821 C820 1.392 . S
C821 H833 0.929 . S
C822 C818 1.531 . S
C822 H834 0.960 . S
C822 H835 0.962 . S
C822 H836 0.960 . S
C823 C820 1.511 . S
C823 H837 0.961 . S
C823 H838 0.961 1_554 S
C823 H839 0.961 . S
C824 C825 1.370 . S
C824 C826 1.363 . S
C824 H840 0.931 . S
C825 C824 1.370 . S
C825 C829 1.408 . S
C826 C824 1.363 . S
C826 C827 1.370 1_556 S
C826 C830 1.524 . S
C827 C819 1.503 . S
C827 C826 1.370 1_554 S
C827 C828 1.403 . S
C828 C827 1.403 . S
C828 C829 1.404 1_554 S
C828 C831 1.539 . S
C829 C825 1.408 . S
C829 C828 1.404 1_556 S
C829 H841 0.930 . S
C830 C826 1.524 . S
C830 H842 0.956 1_556 S
C830 H843 0.965 . S
C830 H844 0.961 . S
C831 C828 1.539 . S
C831 H845 0.958 . S
C831 H846 0.961 . S
C831 H847 0.960 . S
H832 C816 0.931 . S
H833 C821 0.929 . S
H834 C822 0.960 . S
H835 C822 0.962 . S
H836 C822 0.960 . S
H837 C823 0.961 . S
H838 C823 0.961 1_556 S
H839 C823 0.961 . S
H840 C824 0.931 . S
H841 C829 0.930 . S
H842 C830 0.956 1_554 S
H843 C830 0.965 . S
H844 C830 0.961 . S
H845 C831 0.958 . S
H846 C831 0.961 . S
H847 C831 0.960 . S
C848 C849 1.391 . S
C848 C850 1.394 . S
C848 H864 0.931 . S
C849 C848 1.391 . S
C849 C853 1.376 . S
C850 C848 1.394 . S
C850 C851 1.369 . S
C850 C854 1.531 . S
C851 C850 1.369 . S
C851 C852 1.410 . S
C851 C859 1.503 . S
C852 C851 1.410 . S
C852 C853 1.392 . S
C852 C855 1.511 . S
C853 C849 1.376 . S
C853 C852 1.392 . S
C853 H865 0.929 . S
C854 C850 1.531 . S
C854 H866 0.960 . S
C854 H867 0.962 . S
C854 H868 0.960 . S
C855 C852 1.511 . S
C855 H869 0.961 . S
C855 H870 0.961 . S
C855 H871 0.961 . S
C856 C857 1.370 . S
C856 C858 1.363 . S
C856 H872 0.931 . S
C857 C856 1.370 . S
C857 C861 1.408 . S
C858 C856 1.363 . S
C858 C859 1.370 1_455 S
C858 C862 1.524 . S
C859 C851 1.503 . S
C859 C858 1.370 1_655 S
C859 C860 1.403 . S
C860 C859 1.403 . S
C860 C861 1.404 1_655 S
C860 C863 1.539 . S
C861 C857 1.408 . S
C861 C860 1.404 1_455 S
C861 H873 0.930 1_455 S
C862 C858 1.524 . S
C862 H874 0.956 . S
C862 H875 0.961 . S
C862 H876 0.961 . S
C863 C860 1.539 . S
C863 H877 0.958 . S
C863 H878 0.961 . S
C863 H879 0.960 . S
H864 C848 0.931 . S
H865 C853 0.929 . S
H866 C854 0.960 . S
H867 C854 0.962 . S
H868 C854 0.960 . S
H869 C855 0.961 . S
H870 C855 0.961 . S
H871 C855 0.961 . S
H872 C856 0.931 . S
H873 C861 0.930 1_655 S
H874 C862 0.956 . S
H875 C862 0.961 . S
H876 C862 0.961 . S
H877 C863 0.958 . S
H878 C863 0.961 . S
H879 C863 0.960 . S
C880 C881 1.391 . S
C880 C882 1.394 . S
C880 H896 0.931 . S
C881 C880 1.391 . S
C881 C885 1.376 . S
C882 C880 1.394 . S
C882 C883 1.369 1_545 S
C882 C886 1.531 . S
C883 C882 1.369 1_565 S
C883 C884 1.410 . S
C883 C891 1.503 . S
C884 C883 1.410 . S
C884 C885 1.392 1_565 S
C884 C887 1.511 . S
C885 C881 1.376 . S
C885 C884 1.392 1_545 S
C885 H897 0.929 1_545 S
C886 C882 1.531 . S
C886 H898 0.960 . S
C886 H899 0.962 . S
C886 H900 0.960 . S
C887 C884 1.511 . S
C887 H901 0.961 . S
C887 H902 0.961 . S
C887 H903 0.961 . S
C888 C889 1.370 . S
C888 C890 1.363 . S
C888 H904 0.931 . S
C889 C888 1.370 . S
C889 C893 1.408 . S
C890 C888 1.363 . S
C890 C891 1.370 . S
C890 C894 1.524 . S
C891 C883 1.503 . S
C891 C890 1.370 . S
C891 C892 1.403 . S
C892 C891 1.403 . S
C892 C893 1.404 . S
C892 C895 1.539 . S
C893 C889 1.408 . S
C893 C892 1.404 . S
C893 H905 0.930 . S
C894 C890 1.524 . S
C894 H906 0.956 . S
C894 H907 0.961 . S
C894 H908 0.961 . S
C895 C892 1.539 . S
C895 H909 0.958 . S
C895 H910 0.961 . S
C895 H911 0.960 . S
H896 C880 0.931 . S
H897 C885 0.929 1_565 S
H898 C886 0.960 . S
H899 C886 0.962 . S
H900 C886 0.960 . S
H901 C887 0.961 . S
H902 C887 0.961 . S
H903 C887 0.961 . S
H904 C888 0.931 . S
H905 C893 0.930 . S
H906 C894 0.956 . S
H907 C894 0.961 . S
H908 C894 0.961 . S
H909 C895 0.958 . S
H910 C895 0.961 . S
H911 C895 0.960 . S
C912 C913 1.391 . S
C912 C914 1.394 . S
C912 H928 0.931 . S
C913 C912 1.391 . S
C913 C917 1.376 . S
C914 C912 1.394 . S
C914 C915 1.369 . S
C914 C918 1.531 . S
C915 C914 1.369 . S
C915 C916 1.410 . S
C915 C923 1.503 . S
C916 C915 1.410 . S
C916 C917 1.392 . S
C916 C919 1.511 . S
C917 C913 1.376 . S
C917 C916 1.392 . S
C917 H929 0.929 . S
C918 C914 1.531 . S
C918 H930 0.960 . S
C918 H931 0.962 . S
C918 H932 0.960 . S
C919 C916 1.511 . S
C919 H933 0.961 . S
C919 H934 0.961 . S
C919 H935 0.961 . S
C920 C921 1.370 . S
C920 C922 1.363 . S
C920 H936 0.931 . S
C921 C920 1.370 . S
C921 C925 1.408 . S
C922 C920 1.363 . S
C922 C923 1.370 . S
C922 C926 1.524 . S
C923 C915 1.503 . S
C923 C922 1.370 . S
C923 C924 1.403 . S
C924 C923 1.403 . S
C924 C925 1.404 . S
C924 C927 1.539 . S
C925 C921 1.408 . S
C925 C924 1.404 . S
C925 H937 0.930 . S
C926 C922 1.524 . S
C926 H938 0.956 . S
C926 H939 0.961 . S
C926 H940 0.961 . S
C927 C924 1.539 . S
C927 H941 0.958 . S
C927 H942 0.961 . S
C927 H943 0.960 . S
H928 C912 0.931 . S
H929 C917 0.929 . S
H930 C918 0.960 . S
H931 C918 0.962 . S
H932 C918 0.960 . S
H933 C919 0.961 . S
H934 C919 0.961 . S
H935 C919 0.961 . S
H936 C920 0.931 . S
H937 C925 0.930 . S
H938 C926 0.956 . S
H939 C926 0.961 . S
H940 C926 0.961 . S
H941 C927 0.958 . S
H942 C927 0.961 . S
H943 C927 0.960 . S
C944 C945 1.391 . S
C944 C946 1.394 . S
C944 H960 0.931 . S
C945 C944 1.391 . S
C945 C949 1.376 . S
C946 C944 1.394 . S
C946 C947 1.369 . S
C946 C950 1.531 . S
C947 C946 1.369 . S
C947 C948 1.410 . S
C947 C955 1.503 . S
C948 C947 1.410 . S
C948 C949 1.392 . S
C948 C951 1.511 1_455 S
C949 C945 1.376 . S
C949 C948 1.392 . S
C949 H961 0.929 . S
C950 C946 1.531 . S
C950 H962 0.960 . S
C950 H963 0.962 . S
C950 H964 0.960 . S
C951 C948 1.511 1_655 S
C951 H965 0.961 1_655 S
C951 H966 0.961 . S
C951 H967 0.961 . S
C952 C953 1.370 . S
C952 C954 1.363 1_655 S
C952 H968 0.931 . S
C953 C952 1.370 . S
C953 C957 1.408 . S
C954 C952 1.363 1_455 S
C954 C955 1.370 . S
C954 C958 1.524 . S
C955 C947 1.503 . S
C955 C954 1.370 . S
C955 C956 1.403 1_455 S
C956 C955 1.403 1_655 S
C956 C957 1.404 . S
C956 C959 1.539 . S
C957 C953 1.408 . S
C957 C956 1.404 . S
C957 H969 0.930 . S
C958 C954 1.524 . S
C958 H970 0.956 . S
C958 H971 0.961 . S
C958 H972 0.961 . S
C959 C956 1.539 . S
C959 H973 0.958 . S
C959 H974 0.961 . S
C959 H975 0.960 . S
H960 C944 0.931 . S
H961 C949 0.929 . S
H962 C950 0.960 . S
H963 C950 0.962 . S
H964 C950 0.960 . S
H965 C951 0.961 1_455 S
H966 C951 0.961 . S
H967 C951 0.961 . S
H968 C952 0.931 . S
H969 C957 0.930 . S
H970 C958 0.956 . S
H971 C958 0.961 . S
H972 C958 0.961 . S
H973 C959 0.958 . S
H974 C959 0.961 . S
H975 C959 0.960 . S
C976 C977 1.391 . S
C976 C978 1.394 . S
C976 H992 0.931 . S
C977 C976 1.391 . S
C977 C981 1.376 . S
C978 C976 1.394 . S
C978 C979 1.369 . S
C978 C982 1.531 1_545 S
C979 C978 1.369 . S
C979 C980 1.410 . S
C979 C987 1.503 . S
C980 C979 1.410 . S
C980 C981 1.392 . S
C980 C983 1.511 . S
C981 C977 1.376 . S
C981 C980 1.392 . S
C981 H993 0.929 . S
C982 C978 1.531 1_565 S
C982 H994 0.960 . S
C982 H995 0.962 . S
C982 H996 0.960 . S
C983 C980 1.511 . S
C983 H997 0.961 . S
C983 H998 0.961 . S
C983 H999 0.961 . S
C984 C985 1.370 . S
C984 C986 1.363 1_565 S
C984 H1000 0.931 . S
C985 C984 1.370 . S
C985 C989 1.408 . S
C986 C984 1.363 1_545 S
C986 C987 1.370 . S
C986 C990 1.524 . S
C987 C979 1.503 . S
C987 C986 1.370 . S
C987 C988 1.403 1_545 S
C988 C987 1.403 1_565 S
C988 C989 1.404 . S
C988 C991 1.539 . S
C989 C985 1.408 . S
C989 C988 1.404 . S
C989 H1001 0.930 . S
C990 C986 1.524 . S
C990 H1002 0.956 . S
C990 H1003 0.961 . S
C990 H1004 0.961 . S
C991 C988 1.539 . S
C991 H1005 0.958 . S
C991 H1006 0.961 . S
C991 H1007 0.960 . S
H992 C976 0.931 . S
H993 C981 0.929 . S
H994 C982 0.960 . S
H995 C982 0.962 . S
H996 C982 0.960 . S
H997 C983 0.961 . S
H998 C983 0.961 . S
H999 C983 0.961 . S
H1000 C984 0.931 . S
H1001 C989 0.930 . S
H1002 C990 0.956 . S
H1003 C990 0.961 . S
H1004 C990 0.961 . S
H1005 C991 0.958 . S
H1006 C991 0.961 . S
H1007 C991 0.960 . S
C1008 C1009 1.391 . S
C1008 C1010 1.394 . S
C1008 H1024 0.931 . S
C1009 C1008 1.391 . S
C1009 C1013 1.376 . S
C1010 C1008 1.394 . S
C1010 C1011 1.369 . S
C1010 C1014 1.531 . S
C1011 C1010 1.369 . S
C1011 C1012 1.410 . S
C1011 C1019 1.503 . S
C1012 C1011 1.410 . S
C1012 C1013 1.392 . S
C1012 C1015 1.511 . S
C1013 C1009 1.376 . S
C1013 C1012 1.392 . S
C1013 H1025 0.929 . S
C1014 C1010 1.531 . S
C1014 H1026 0.960 . S
C1014 H1027 0.962 . S
C1014 H1028 0.960 . S
C1015 C1012 1.511 . S
C1015 H1029 0.961 . S
C1015 H1030 0.961 . S
C1015 H1031 0.961 . S
C1016 C1017 1.370 . S
C1016 C1018 1.363 . S
C1016 H1032 0.931 . S
C1017 C1016 1.370 . S
C1017 C1021 1.408 . S
C1018 C1016 1.363 . S
C1018 C1019 1.370 . S
C1018 C1022 1.524 . S
C1019 C1011 1.503 . S
C1019 C1018 1.370 . S
C1019 C1020 1.403 . S
C1020 C1019 1.403 . S
C1020 C1021 1.404 . S
C1020 C1023 1.539 . S
C1021 C1017 1.408 . S
C1021 C1020 1.404 . S
C1021 H1033 0.930 . S
C1022 C1018 1.524 . S
C1022 H1034 0.956 . S
C1022 H1035 0.961 . S
C1022 H1036 0.961 . S
C1023 C1020 1.539 . S
C1023 H1037 0.958 . S
C1023 H1038 0.961 . S
C1023 H1039 0.960 . S
H1024 C1008 0.931 . S
H1025 C1013 0.929 . S
H1026 C1014 0.960 . S
H1027 C1014 0.962 . S
H1028 C1014 0.960 . S
H1029 C1015 0.961 . S
H1030 C1015 0.961 . S
H1031 C1015 0.961 . S
H1032 C1016 0.931 . S
H1033 C1021 0.930 . S
H1034 C1022 0.956 . S
H1035 C1022 0.961 . S
H1036 C1022 0.961 . S
H1037 C1023 0.958 . S
H1038 C1023 0.961 . S
H1039 C1023 0.960 . S
C1040 C1041 1.391 . S
C1040 C1042 1.394 . S
C1040 H1056 0.931 . S
C1041 C1040 1.391 . S
C1041 C1045 1.376 . S
C1042 C1040 1.394 . S
C1042 C1043 1.369 . S
C1042 C1046 1.531 . S
C1043 C1042 1.369 . S
C1043 C1044 1.410 . S
C1043 C1051 1.503 . S
C1044 C1043 1.410 . S
C1044 C1045 1.392 . S
C1044 C1047 1.511 . S
C1045 C1041 1.376 . S
C1045 C1044 1.392 . S
C1045 H1057 0.929 . S
C1046 C1042 1.531 . S
C1046 H1058 0.960 1_655 S
C1046 H1059 0.962 . S
C1046 H1060 0.960 . S
C1047 C1044 1.511 . S
C1047 H1061 0.961 . S
C1047 H1062 0.961 . S
C1047 H1063 0.961 . S
C1048 C1049 1.370 . S
C1048 C1050 1.363 1_455 S
C1048 H1064 0.931 1_455 S
C1049 C1048 1.370 . S
C1049 C1053 1.408 . S
C1050 C1048 1.363 1_655 S
C1050 C1051 1.370 1_554 S
C1050 C1054 1.524 . S
C1051 C1043 1.503 . S
C1051 C1050 1.370 1_556 S
C1051 C1052 1.403 1_655 S
C1052 C1051 1.403 1_455 S
C1052 C1053 1.404 1_556 S
C1052 C1055 1.539 . S
C1053 C1049 1.408 . S
C1053 C1052 1.404 1_554 S
C1053 H1065 0.930 . S
C1054 C1050 1.524 . S
C1054 H1066 0.952 1_554 S
C1054 H1067 0.961 . S
C1054 H1068 0.961 . S
C1055 C1052 1.539 . S
C1055 H1069 0.958 . S
C1055 H1070 0.961 . S
C1055 H1071 0.960 . S
H1056 C1040 0.931 . S
H1057 C1045 0.929 . S
H1058 C1046 0.960 1_455 S
H1059 C1046 0.962 . S
H1060 C1046 0.960 . S
H1061 C1047 0.961 . S
H1062 C1047 0.961 . S
H1063 C1047 0.961 . S
H1064 C1048 0.931 1_655 S
H1065 C1053 0.930 . S
H1066 C1054 0.952 1_556 S
H1067 C1054 0.961 . S
H1068 C1054 0.961 . S
H1069 C1055 0.958 . S
H1070 C1055 0.961 . S
H1071 C1055 0.960 . S
C1072 C1073 1.391 . S
C1072 C1074 1.394 . S
C1072 H1088 0.931 . S
C1073 C1072 1.391 . S
C1073 C1077 1.376 . S
C1074 C1072 1.394 . S
C1074 C1075 1.369 . S
C1074 C1078 1.531 . S
C1075 C1074 1.369 . S
C1075 C1076 1.410 . S
C1075 C1083 1.503 . S
C1076 C1075 1.410 . S
C1076 C1077 1.392 . S
C1076 C1079 1.511 . S
C1077 C1073 1.376 . S
C1077 C1076 1.392 . S
C1077 H1089 0.929 . S
C1078 C1074 1.531 . S
C1078 H1090 0.960 . S
C1078 H1091 0.962 . S
C1078 H1092 0.960 . S
C1079 C1076 1.511 . S
C1079 H1093 0.961 . S
C1079 H1094 0.961 1_565 S
C1079 H1095 0.961 . S
C1080 C1081 1.370 . S
C1080 C1082 1.363 . S
C1080 H1096 0.931 . S
C1081 C1080 1.370 . S
C1081 C1085 1.408 . S
C1082 C1080 1.363 . S
C1082 C1083 1.370 1_545 S
C1082 C1086 1.524 . S
C1083 C1075 1.503 . S
C1083 C1082 1.370 1_565 S
C1083 C1084 1.403 . S
C1084 C1083 1.403 . S
C1084 C1085 1.404 1_565 S
C1084 C1087 1.539 . S
C1085 C1081 1.408 . S
C1085 C1084 1.404 1_545 S
C1085 H1097 0.935 . S
C1086 C1082 1.524 . S
C1086 H1098 0.956 . S
C1086 H1099 0.961 . S
C1086 H1100 0.961 . S
C1087 C1084 1.539 . S
C1087 H1101 0.958 . S
C1087 H1102 0.961 . S
C1087 H1103 0.960 . S
H1088 C1072 0.931 . S
H1089 C1077 0.929 . S
H1090 C1078 0.960 . S
H1091 C1078 0.962 . S
H1092 C1078 0.960 . S
H1093 C1079 0.961 . S
H1094 C1079 0.961 1_545 S
H1095 C1079 0.961 . S
H1096 C1080 0.931 . S
H1097 C1085 0.935 . S
H1098 C1086 0.956 . S
H1099 C1086 0.961 . S
H1100 C1086 0.961 . S
H1101 C1087 0.958 . S
H1102 C1087 0.961 . S
H1103 C1087 0.960 . S
C1104 C1105 1.391 . S
C1104 C1106 1.394 . S
C1104 H1120 0.931 . S
C1105 C1104 1.391 . S
C1105 C1109 1.376 . S
C1106 C1104 1.394 . S
C1106 C1107 1.369 . S
C1106 C1110 1.531 . S
C1107 C1106 1.369 . S
C1107 C1108 1.410 . S
C1107 C1115 1.503 . S
C1108 C1107 1.410 . S
C1108 C1109 1.392 . S
C1108 C1111 1.511 . S
C1109 C1105 1.376 . S
C1109 C1108 1.392 . S
C1109 H1121 0.929 . S
C1110 C1106 1.531 . S
C1110 H1122 0.960 . S
C1110 H1123 0.962 . S
C1110 H1124 0.960 . S
C1111 C1108 1.511 . S
C1111 H1125 0.961 . S
C1111 H1126 0.961 . S
C1111 H1127 0.961 . S
C1112 C1113 1.370 . S
C1112 C1114 1.363 . S
C1112 H1128 0.931 . S
C1113 C1112 1.370 . S
C1113 C1117 1.408 . S
C1114 C1112 1.363 . S
C1114 C1115 1.370 . S
C1114 C1118 1.524 . S
C1115 C1107 1.503 . S
C1115 C1114 1.370 . S
C1115 C1116 1.403 . S
C1116 C1115 1.403 . S
C1116 C1117 1.404 . S
C1116 C1119 1.539 . S
C1117 C1113 1.408 . S
C1117 C1116 1.404 . S
C1117 H1129 0.930 . S
C1118 C1114 1.524 . S
C1118 H1130 0.956 . S
C1118 H1131 0.961 . S
C1118 H1132 0.961 . S
C1119 C1116 1.539 . S
C1119 H1133 0.958 . S
C1119 H1134 0.961 . S
C1119 H1135 0.960 . S
H1120 C1104 0.931 . S
H1121 C1109 0.929 . S
H1122 C1110 0.960 . S
H1123 C1110 0.962 . S
H1124 C1110 0.960 . S
H1125 C1111 0.961 . S
H1126 C1111 0.961 . S
H1127 C1111 0.961 . S
H1128 C1112 0.931 . S
H1129 C1117 0.930 . S
H1130 C1118 0.956 . S
H1131 C1118 0.961 . S
H1132 C1118 0.961 . S
H1133 C1119 0.958 . S
H1134 C1119 0.961 . S
H1135 C1119 0.960 . S
C1136 C1137 1.391 . S
C1136 C1138 1.394 . S
C1136 H1152 0.931 . S
C1137 C1136 1.391 . S
C1137 C1141 1.376 . S
C1138 C1136 1.394 . S
C1138 C1139 1.369 . S
C1138 C1142 1.531 . S
C1139 C1138 1.369 . S
C1139 C1140 1.410 . S
C1139 C1147 1.503 . S
C1140 C1139 1.410 . S
C1140 C1141 1.392 . S
C1140 C1143 1.511 1_455 S
C1141 C1137 1.376 . S
C1141 C1140 1.392 . S
C1141 H1153 0.929 . S
C1142 C1138 1.531 . S
C1142 H1154 0.960 . S
C1142 H1155 0.962 . S
C1142 H1156 0.960 . S
C1143 C1140 1.511 1_655 S
C1143 H1157 0.961 . S
C1143 H1158 0.961 . S
C1143 H1159 0.961 . S
C1144 C1145 1.370 . S
C1144 C1146 1.363 1_655 S
C1144 H1160 0.931 . S
C1145 C1144 1.370 . S
C1145 C1149 1.408 . S
C1146 C1144 1.363 1_455 S
C1146 C1147 1.370 . S
C1146 C1150 1.524 . S
C1147 C1139 1.503 . S
C1147 C1146 1.370 . S
C1147 C1148 1.403 1_455 S
C1148 C1147 1.403 1_655 S
C1148 C1149 1.404 . S
C1148 C1151 1.539 . S
C1149 C1145 1.408 . S
C1149 C1148 1.404 . S
C1149 H1161 0.930 . S
C1150 C1146 1.524 . S
C1150 H1162 0.956 . S
C1150 H1163 0.961 . S
C1150 H1164 0.961 . S
C1151 C1148 1.539 . S
C1151 H1165 0.958 . S
C1151 H1166 0.961 . S
C1151 H1167 0.960 . S
H1152 C1136 0.931 . S
H1153 C1141 0.929 . S
H1154 C1142 0.960 . S
H1155 C1142 0.962 . S
H1156 C1142 0.960 . S
H1157 C1143 0.961 . S
H1158 C1143 0.961 . S
H1159 C1143 0.961 . S
H1160 C1144 0.931 . S
H1161 C1149 0.930 . S
H1162 C1150 0.956 . S
H1163 C1150 0.961 . S
H1164 C1150 0.961 . S
H1165 C1151 0.958 . S
H1166 C1151 0.961 . S
H1167 C1151 0.960 . S
C1168 C1169 1.391 . S
C1168 C1170 1.394 1_565 S
C1168 H1184 0.931 . S
C1169 C1168 1.391 . S
C1169 C1173 1.376 . S
C1170 C1168 1.394 1_545 S
C1170 C1171 1.369 . S
C1170 C1174 1.531 . S
C1171 C1170 1.369 . S
C1171 C1172 1.410 1_545 S
C1171 C1179 1.503 . S
C1172 C1171 1.410 1_565 S
C1172 C1173 1.392 . S
C1172 C1175 1.511 1_565 S
C1173 C1169 1.376 . S
C1173 C1172 1.392 . S
C1173 H1185 0.929 . S
C1174 C1170 1.531 . S
C1174 H1186 0.960 . S
C1174 H1187 0.962 . S
C1174 H1188 0.960 . S
C1175 C1172 1.511 1_545 S
C1175 H1189 0.961 1_545 S
C1175 H1190 0.961 . S
C1175 H1191 0.961 . S
C1176 C1177 1.370 . S
C1176 C1178 1.363 . S
C1176 H1192 0.931 . S
C1177 C1176 1.370 . S
C1177 C1181 1.408 . S
C1178 C1176 1.363 . S
C1178 C1179 1.370 . S
C1178 C1182 1.524 1_545 S
C1179 C1171 1.503 . S
C1179 C1178 1.370 . S
C1179 C1180 1.403 . S
C1180 C1179 1.403 . S
C1180 C1181 1.404 . S
C1180 C1183 1.539 . S
C1181 C1177 1.408 . S
C1181 C1180 1.404 . S
C1181 H1193 0.930 . S
C1182 C1178 1.524 1_565 S
C1182 H1194 0.956 . S
C1182 H1195 0.961 . S
C1182 H1196 0.961 . S
C1183 C1180 1.539 . S
C1183 H1197 0.958 . S
C1183 H1198 0.961 . S
C1183 H1199 0.960 . S
H1184 C1168 0.931 . S
H1185 C1173 0.929 . S
H1186 C1174 0.960 . S
H1187 C1174 0.962 . S
H1188 C1174 0.960 . S
H1189 C1175 0.961 1_565 S
H1190 C1175 0.961 . S
H1191 C1175 0.961 . S
H1192 C1176 0.931 . S
H1193 C1181 0.930 . S
H1194 C1182 0.956 . S
H1195 C1182 0.961 . S
H1196 C1182 0.961 . S
H1197 C1183 0.958 . S
H1198 C1183 0.961 . S
H1199 C1183 0.960 . S
C433 C302 1.142 . S
C441 C14 1.166 . S
C465 C50 1.138 . S
C473 C338 1.150 . S
C497 C86 1.123 . S
C505 C374 1.170 . S
C529 C122 1.152 . S
C537 C410 1.163 . S
C561 C230 1.130 . S
C569 C158 1.169 . S
C593 C194 1.186 . S
C601 C266 1.146 . S
C625 C326 0.811 . S
C633 C2 0.837 . S
C657 C38 0.904 . S
C665 C362 0.878 . S
C689 C398 0.812 . S
C697 C74 0.850 . S
C721 C110 0.860 . S
C729 C218 0.871 . S
C753 C254 0.806 . S
C761 C146 0.841 . S
C785 C290 0.813 . S
C793 C182 0.837 . S
C817 C3 1.443 . S
C825 C184 1.405 . S
C849 C39 1.450 . S
C857 C4 1.425 . S
C881 C40 1.406 . S
C889 C75 1.443 . S
C913 C111 1.439 . S
C921 C76 1.418 . S
C945 C147 1.431 . S
C953 C112 1.403 . S
C977 C183 1.444 . S
C985 C148 1.406 . S
C1009 C219 1.454 . S
C1017 C256 1.420 . S
C1041 C255 1.438 . S
C1049 C292 1.402 . S
C1073 C291 1.446 . S
C1081 C328 1.423 . S
C1105 C327 1.446 . S
C1113 C364 1.423 . S
C1137 C363 1.431 . S
C1145 C400 1.406 . S
C1169 C220 1.436 . S
C1177 C399 1.451 . S
