# Generated by pormake.
# Topology wio, (6)-cn, num edge types: 1
# Building blocks:
#     Node 0, Type 0, BuildingBlock: BETFAJ_clean_sbu_0, # of connection points: 6
#     Node 1, Type 0, BuildingBlock: BETFAJ_clean_sbu_0, # of connection points: 6
#     Node 2, Type 0, BuildingBlock: BETFAJ_clean_sbu_0, # of connection points: 6
#     Node 3, Type 0, BuildingBlock: BETFAJ_clean_sbu_0, # of connection points: 6
#     Node 4, Type 0, BuildingBlock: BETFAJ_clean_sbu_0, # of connection points: 6
#     Node 5, Type 0, BuildingBlock: BETFAJ_clean_sbu_0, # of connection points: 6
#     Node 6, Type 0, BuildingBlock: BETFAJ_clean_sbu_0, # of connection points: 6
#     Node 7, Type 0, BuildingBlock: BETFAJ_clean_sbu_0, # of connection points: 6
#     Node 8, Type 0, BuildingBlock: BETFAJ_clean_sbu_0, # of connection points: 6
#     Node 9, Type 0, BuildingBlock: BETFAJ_clean_sbu_0, # of connection points: 6
#     Node 10, Type 0, BuildingBlock: BETFAJ_clean_sbu_0, # of connection points: 6
#     Node 11, Type 0, BuildingBlock: BETFAJ_clean_sbu_0, # of connection points: 6
#     Node 12, Type 0, BuildingBlock: BETFAJ_clean_sbu_0, # of connection points: 6
#     Node 13, Type 0, BuildingBlock: BETFAJ_clean_sbu_0, # of connection points: 6
#     Node 14, Type 0, BuildingBlock: BETFAJ_clean_sbu_0, # of connection points: 6
#     Node 15, Type 0, BuildingBlock: BETFAJ_clean_sbu_0, # of connection points: 6
#     Node 16, Type 0, BuildingBlock: BETFAJ_clean_sbu_0, # of connection points: 6
#     Node 17, Type 0, BuildingBlock: BETFAJ_clean_sbu_0, # of connection points: 6
#     Node 18, Type 0, BuildingBlock: BETFAJ_clean_sbu_0, # of connection points: 6
#     Node 19, Type 0, BuildingBlock: BETFAJ_clean_sbu_0, # of connection points: 6
#     Node 20, Type 0, BuildingBlock: BETFAJ_clean_sbu_0, # of connection points: 6
#     Node 21, Type 0, BuildingBlock: BETFAJ_clean_sbu_0, # of connection points: 6
#     Node 22, Type 0, BuildingBlock: BETFAJ_clean_sbu_0, # of connection points: 6
#     Node 23, Type 0, BuildingBlock: BETFAJ_clean_sbu_0, # of connection points: 6
#     Node 24, Type 0, BuildingBlock: BETFAJ_clean_sbu_0, # of connection points: 6
#     Node 25, Type 0, BuildingBlock: BETFAJ_clean_sbu_0, # of connection points: 6
#     Node 26, Type 0, BuildingBlock: BETFAJ_clean_sbu_0, # of connection points: 6
#     Node 27, Type 0, BuildingBlock: BETFAJ_clean_sbu_0, # of connection points: 6
#     Node 28, Type 0, BuildingBlock: BETFAJ_clean_sbu_0, # of connection points: 6
#     Node 29, Type 0, BuildingBlock: BETFAJ_clean_sbu_0, # of connection points: 6
#     Node 30, Type 0, BuildingBlock: BETFAJ_clean_sbu_0, # of connection points: 6
#     Node 31, Type 0, BuildingBlock: BETFAJ_clean_sbu_0, # of connection points: 6
#     Edge 32, Type (0, 0), BuildingBlock: CIFDUS_clean_linker_0, # of connection points: 2
#     Edge 33, Type (0, 0), BuildingBlock: CIFDUS_clean_linker_0, # of connection points: 2
#     Edge 34, Type (0, 0), BuildingBlock: CIFDUS_clean_linker_0, # of connection points: 2
#     Edge 35, Type (0, 0), BuildingBlock: CIFDUS_clean_linker_0, # of connection points: 2
#     Edge 36, Type (0, 0), BuildingBlock: CIFDUS_clean_linker_0, # of connection points: 2
#     Edge 37, Type (0, 0), BuildingBlock: CIFDUS_clean_linker_0, # of connection points: 2
#     Edge 38, Type (0, 0), BuildingBlock: CIFDUS_clean_linker_0, # of connection points: 2
#     Edge 39, Type (0, 0), BuildingBlock: CIFDUS_clean_linker_0, # of connection points: 2
#     Edge 40, Type (0, 0), BuildingBlock: CIFDUS_clean_linker_0, # of connection points: 2
#     Edge 41, Type (0, 0), BuildingBlock: CIFDUS_clean_linker_0, # of connection points: 2
#     Edge 42, Type (0, 0), BuildingBlock: CIFDUS_clean_linker_0, # of connection points: 2
#     Edge 43, Type (0, 0), BuildingBlock: CIFDUS_clean_linker_0, # of connection points: 2
#     Edge 44, Type (0, 0), BuildingBlock: CIFDUS_clean_linker_0, # of connection points: 2
#     Edge 45, Type (0, 0), BuildingBlock: CIFDUS_clean_linker_0, # of connection points: 2
#     Edge 46, Type (0, 0), BuildingBlock: CIFDUS_clean_linker_0, # of connection points: 2
#     Edge 47, Type (0, 0), BuildingBlock: CIFDUS_clean_linker_0, # of connection points: 2
#     Edge 48, Type (0, 0), BuildingBlock: CIFDUS_clean_linker_0, # of connection points: 2
#     Edge 49, Type (0, 0), BuildingBlock: CIFDUS_clean_linker_0, # of connection points: 2
#     Edge 50, Type (0, 0), BuildingBlock: CIFDUS_clean_linker_0, # of connection points: 2
#     Edge 51, Type (0, 0), BuildingBlock: CIFDUS_clean_linker_0, # of connection points: 2
#     Edge 52, Type (0, 0), BuildingBlock: CIFDUS_clean_linker_0, # of connection points: 2
#     Edge 53, Type (0, 0), BuildingBlock: CIFDUS_clean_linker_0, # of connection points: 2
#     Edge 54, Type (0, 0), BuildingBlock: CIFDUS_clean_linker_0, # of connection points: 2
#     Edge 55, Type (0, 0), BuildingBlock: CIFDUS_clean_linker_0, # of connection points: 2
#     Edge 56, Type (0, 0), BuildingBlock: CIFDUS_clean_linker_0, # of connection points: 2
#     Edge 57, Type (0, 0), BuildingBlock: CIFDUS_clean_linker_0, # of connection points: 2
#     Edge 58, Type (0, 0), BuildingBlock: CIFDUS_clean_linker_0, # of connection points: 2
#     Edge 59, Type (0, 0), BuildingBlock: CIFDUS_clean_linker_0, # of connection points: 2
#     Edge 60, Type (0, 0), BuildingBlock: CIFDUS_clean_linker_0, # of connection points: 2
#     Edge 61, Type (0, 0), BuildingBlock: CIFDUS_clean_linker_0, # of connection points: 2
#     Edge 62, Type (0, 0), BuildingBlock: CIFDUS_clean_linker_0, # of connection points: 2
#     Edge 63, Type (0, 0), BuildingBlock: CIFDUS_clean_linker_0, # of connection points: 2
#     Edge 64, Type (0, 0), BuildingBlock: CIFDUS_clean_linker_0, # of connection points: 2
#     Edge 65, Type (0, 0), BuildingBlock: CIFDUS_clean_linker_0, # of connection points: 2
#     Edge 66, Type (0, 0), BuildingBlock: CIFDUS_clean_linker_0, # of connection points: 2
#     Edge 67, Type (0, 0), BuildingBlock: CIFDUS_clean_linker_0, # of connection points: 2
#     Edge 68, Type (0, 0), BuildingBlock: CIFDUS_clean_linker_0, # of connection points: 2
#     Edge 69, Type (0, 0), BuildingBlock: CIFDUS_clean_linker_0, # of connection points: 2
#     Edge 70, Type (0, 0), BuildingBlock: CIFDUS_clean_linker_0, # of connection points: 2
#     Edge 71, Type (0, 0), BuildingBlock: CIFDUS_clean_linker_0, # of connection points: 2
#     Edge 72, Type (0, 0), BuildingBlock: CIFDUS_clean_linker_0, # of connection points: 2
#     Edge 73, Type (0, 0), BuildingBlock: CIFDUS_clean_linker_0, # of connection points: 2
#     Edge 74, Type (0, 0), BuildingBlock: CIFDUS_clean_linker_0, # of connection points: 2
#     Edge 75, Type (0, 0), BuildingBlock: CIFDUS_clean_linker_0, # of connection points: 2
#     Edge 76, Type (0, 0), BuildingBlock: CIFDUS_clean_linker_0, # of connection points: 2
#     Edge 77, Type (0, 0), BuildingBlock: CIFDUS_clean_linker_0, # of connection points: 2
#     Edge 78, Type (0, 0), BuildingBlock: CIFDUS_clean_linker_0, # of connection points: 2
#     Edge 79, Type (0, 0), BuildingBlock: CIFDUS_clean_linker_0, # of connection points: 2
#     Edge 80, Type (0, 0), BuildingBlock: CIFDUS_clean_linker_0, # of connection points: 2
#     Edge 81, Type (0, 0), BuildingBlock: CIFDUS_clean_linker_0, # of connection points: 2
#     Edge 82, Type (0, 0), BuildingBlock: CIFDUS_clean_linker_0, # of connection points: 2
#     Edge 83, Type (0, 0), BuildingBlock: CIFDUS_clean_linker_0, # of connection points: 2
#     Edge 84, Type (0, 0), BuildingBlock: CIFDUS_clean_linker_0, # of connection points: 2
#     Edge 85, Type (0, 0), BuildingBlock: CIFDUS_clean_linker_0, # of connection points: 2
#     Edge 86, Type (0, 0), BuildingBlock: CIFDUS_clean_linker_0, # of connection points: 2
#     Edge 87, Type (0, 0), BuildingBlock: CIFDUS_clean_linker_0, # of connection points: 2
#     Edge 88, Type (0, 0), BuildingBlock: CIFDUS_clean_linker_0, # of connection points: 2
#     Edge 89, Type (0, 0), BuildingBlock: CIFDUS_clean_linker_0, # of connection points: 2
#     Edge 90, Type (0, 0), BuildingBlock: CIFDUS_clean_linker_0, # of connection points: 2
#     Edge 91, Type (0, 0), BuildingBlock: CIFDUS_clean_linker_0, # of connection points: 2
#     Edge 92, Type (0, 0), BuildingBlock: CIFDUS_clean_linker_0, # of connection points: 2
#     Edge 93, Type (0, 0), BuildingBlock: CIFDUS_clean_linker_0, # of connection points: 2
#     Edge 94, Type (0, 0), BuildingBlock: CIFDUS_clean_linker_0, # of connection points: 2
#     Edge 95, Type (0, 0), BuildingBlock: CIFDUS_clean_linker_0, # of connection points: 2
#     Edge 96, Type (0, 0), BuildingBlock: CIFDUS_clean_linker_0, # of connection points: 2
#     Edge 97, Type (0, 0), BuildingBlock: CIFDUS_clean_linker_0, # of connection points: 2
#     Edge 98, Type (0, 0), BuildingBlock: CIFDUS_clean_linker_0, # of connection points: 2
#     Edge 99, Type (0, 0), BuildingBlock: CIFDUS_clean_linker_0, # of connection points: 2
#     Edge 100, Type (0, 0), BuildingBlock: CIFDUS_clean_linker_0, # of connection points: 2
#     Edge 101, Type (0, 0), BuildingBlock: CIFDUS_clean_linker_0, # of connection points: 2
#     Edge 102, Type (0, 0), BuildingBlock: CIFDUS_clean_linker_0, # of connection points: 2
#     Edge 103, Type (0, 0), BuildingBlock: CIFDUS_clean_linker_0, # of connection points: 2
#     Edge 104, Type (0, 0), BuildingBlock: CIFDUS_clean_linker_0, # of connection points: 2
#     Edge 105, Type (0, 0), BuildingBlock: CIFDUS_clean_linker_0, # of connection points: 2
#     Edge 106, Type (0, 0), BuildingBlock: CIFDUS_clean_linker_0, # of connection points: 2
#     Edge 107, Type (0, 0), BuildingBlock: CIFDUS_clean_linker_0, # of connection points: 2
#     Edge 108, Type (0, 0), BuildingBlock: CIFDUS_clean_linker_0, # of connection points: 2
#     Edge 109, Type (0, 0), BuildingBlock: CIFDUS_clean_linker_0, # of connection points: 2
#     Edge 110, Type (0, 0), BuildingBlock: CIFDUS_clean_linker_0, # of connection points: 2
#     Edge 111, Type (0, 0), BuildingBlock: CIFDUS_clean_linker_0, # of connection points: 2
#     Edge 112, Type (0, 0), BuildingBlock: CIFDUS_clean_linker_0, # of connection points: 2
#     Edge 113, Type (0, 0), BuildingBlock: CIFDUS_clean_linker_0, # of connection points: 2
#     Edge 114, Type (0, 0), BuildingBlock: CIFDUS_clean_linker_0, # of connection points: 2
#     Edge 115, Type (0, 0), BuildingBlock: CIFDUS_clean_linker_0, # of connection points: 2
#     Edge 116, Type (0, 0), BuildingBlock: CIFDUS_clean_linker_0, # of connection points: 2
#     Edge 117, Type (0, 0), BuildingBlock: CIFDUS_clean_linker_0, # of connection points: 2
#     Edge 118, Type (0, 0), BuildingBlock: CIFDUS_clean_linker_0, # of connection points: 2
#     Edge 119, Type (0, 0), BuildingBlock: CIFDUS_clean_linker_0, # of connection points: 2
#     Edge 120, Type (0, 0), BuildingBlock: CIFDUS_clean_linker_0, # of connection points: 2
#     Edge 121, Type (0, 0), BuildingBlock: CIFDUS_clean_linker_0, # of connection points: 2
#     Edge 122, Type (0, 0), BuildingBlock: CIFDUS_clean_linker_0, # of connection points: 2
#     Edge 123, Type (0, 0), BuildingBlock: CIFDUS_clean_linker_0, # of connection points: 2
#     Edge 124, Type (0, 0), BuildingBlock: CIFDUS_clean_linker_0, # of connection points: 2
#     Edge 125, Type (0, 0), BuildingBlock: CIFDUS_clean_linker_0, # of connection points: 2
#     Edge 126, Type (0, 0), BuildingBlock: CIFDUS_clean_linker_0, # of connection points: 2
#     Edge 127, Type (0, 0), BuildingBlock: CIFDUS_clean_linker_0, # of connection points: 2
# Relax obj value: 0.208
# Max RMSD: 0.240
# Mean RMSD: 0.240
data_MOF--net-wio--node1-BETFAJ_clean_sbu_0--edge1-CIFDUS_clean_linker_0
_symmetry_space_group_name_H-M    P1
_symmetry_Int_Tables_number       1
_symmetry_cell_setting            triclinic
loop_
_symmetry_equiv_pos_as_xyz
'x, y, z'
_cell_length_a     55.798277
_cell_length_b     55.768665
_cell_length_c     49.021639
_cell_angle_alpha  90.010499
_cell_angle_beta   89.908706
_cell_angle_gamma 90.015904
loop_
_atom_site_label
_atom_site_type_symbol
_atom_site_fract_x
_atom_site_fract_y
_atom_site_fract_z
_atom_type_partial_charge
Sm0 Sm 0.15172 0.11385 0.2844 0.0
Sm1 Sm 0.09986 0.12536 0.29758 0.0
C2 C 0.19328 0.09732 0.26614 0.0
C3 C 0.21331 0.10211 0.2475 0.0
C4 C 0.21168 0.11912 0.22649 0.0
C5 C 0.23107 0.12267 0.20872 0.0
C6 C 0.25225 0.10919 0.21172 0.0
C7 C 0.25384 0.09261 0.23324 0.0
C8 C 0.23455 0.08912 0.25092 0.0
C9 C 0.14563 0.15692 0.31077 0.0
C10 C 0.11782 0.13679 0.2355 0.0
C11 C 0.05983 0.14202 0.32031 0.0
C12 C 0.04551 0.1401 0.34562 0.0
C13 C 0.05597 0.13409 0.37077 0.0
C14 C 0.04194 0.13307 0.39455 0.0
C15 C 0.0172 0.13813 0.39366 0.0
C16 C 1.00688 0.14388 0.36828 0.0
C17 C 0.02087 0.14486 0.3446 0.0
C18 C 0.10635 0.07985 0.27617 0.0
C19 C 0.13277 0.09713 0.34347 0.0
O20 O 0.17261 0.09159 0.2553 0.0
O21 O 0.19131 0.11135 0.28737 0.0
O22 O 0.13218 0.14912 0.29194 0.0
O23 O 0.16375 0.1428 0.31445 0.0
O24 O 0.13837 0.12678 0.2424 0.0
O25 O 0.10029 0.14007 0.25338 0.0
O26 O 0.08057 0.1528 0.32203 0.0
O27 O 0.06037 0.12326 0.30434 0.0
O28 O 0.11985 0.09019 0.29306 0.0
O29 O 0.08811 0.09349 0.27062 0.0
O30 O 0.11428 0.11156 0.33943 0.0
O31 O 0.14766 0.092 0.32341 0.0
H32 H 0.19538 0.12937 0.22366 0.0
H33 H 0.22925 0.13543 0.1922 0.0
H34 H 0.27 0.08221 0.23633 0.0
H35 H 0.23615 0.07606 0.26719 0.0
H36 H 0.07498 0.13037 0.37205 0.0
H37 H 0.05055 0.12871 0.4137 0.0
H38 H 0.98785 0.1474 0.36662 0.0
H39 H 0.01242 0.14944 0.32541 0.0
Sm40 Sm 0.15631 0.90766 0.53884 0.0
Sm41 Sm 0.14538 0.8547 0.54715 0.0
C42 C 0.17207 0.95029 0.52317 0.0
C43 C 0.16851 0.96879 0.50231 0.0
C44 C 0.18688 0.98537 0.49759 0.0
C45 C 0.18427 1.00302 0.47766 0.0
C46 C 0.16317 1.0044 0.4621 0.0
C47 C 0.14457 0.98795 0.46718 0.0
C48 C 0.14727 0.97016 0.4871 0.0
C49 C 0.11425 0.89917 0.56614 0.0
C50 C 0.13212 0.87717 0.48769 0.0
C51 C 0.12929 0.81356 0.56776 0.0
C52 C 0.13323 0.79692 0.59111 0.0
C53 C 0.12184 0.80051 0.61648 0.0
C54 C 0.12501 0.78416 0.63798 0.0
C55 C 0.13962 0.76381 0.63461 0.0
C56 C 0.15062 0.7601 0.60906 0.0
C57 C 0.14746 0.77637 0.58766 0.0
C58 C 0.1903 0.86378 0.52544 0.0
C59 C 0.17442 0.88496 0.59563 0.0
O60 O 0.18174 0.93012 0.51507 0.0
O61 O 0.15476 0.94731 0.54087 0.0
O62 O 0.12145 0.88727 0.54564 0.0
O63 O 0.12854 0.9169 0.5714 0.0
O64 O 0.14277 0.89695 0.49616 0.0
O65 O 0.12893 0.85844 0.50391 0.0
O66 O 0.11964 0.83443 0.57301 0.0
O67 O 0.14592 0.81478 0.54895 0.0
O68 O 0.17998 0.87537 0.54404 0.0
O69 O 0.1771 0.84564 0.51819 0.0
O70 O 0.16136 0.86581 0.58954 0.0
O71 O 0.17776 0.90224 0.5777 0.0
H72 H 0.20335 0.98459 0.50925 0.0
H73 H 0.1988 0.01558 0.47436 0.0
H74 H 0.12824 0.98845 0.45527 0.0
H75 H 0.13292 0.9574 0.49046 0.0
H76 H 0.11043 0.81595 0.61977 0.0
H77 H 0.11633 0.78766 0.65734 0.0
H78 H 0.16154 0.74437 0.6054 0.0
H79 H 0.15606 0.77272 0.56827 0.0
Sm80 Sm 0.36532 0.90676 0.79072 0.0
Sm81 Sm 0.41808 0.89458 0.80228 0.0
C82 C 0.32341 0.92311 0.77342 0.0
C83 C 0.30438 0.91869 0.75346 0.0
C84 C 0.28551 0.93512 0.75168 0.0
C85 C 0.26756 0.93207 0.73226 0.0
C86 C 0.26814 0.91249 0.71421 0.0
C87 C 0.28681 0.89564 0.71647 0.0
C88 C 0.30491 0.89878 0.73595 0.0
C89 C 0.37201 0.86342 0.81608 0.0
C90 C 0.39817 0.88389 0.7406 0.0
C91 C 0.45767 0.87638 0.82429 0.0
C92 C 0.47451 0.8807 0.847 0.0
C93 C 0.48913 0.86192 0.85623 0.0
C94 C 0.50591 0.86577 0.87702 0.0
C95 C 0.50848 0.88857 0.88896 0.0
C96 C 0.49329 0.90721 0.8801 0.0
C97 C 0.47644 0.90331 0.85937 0.0
C98 C 0.41099 0.94046 0.78219 0.0
C99 C 0.38604 0.9231 0.84947 0.0
O100 O 0.34398 0.93056 0.76382 0.0
O101 O 0.32561 0.90755 0.79318 0.0
O102 O 0.38518 0.87147 0.79705 0.0
O103 O 0.35394 0.87747 0.82048 0.0
O104 O 0.37851 0.89529 0.7482 0.0
O105 O 0.41558 0.87911 0.75822 0.0
O106 O 0.43607 0.86942 0.83094 0.0
O107 O 0.4578 0.89181 0.80418 0.0
O108 O 0.39771 0.9294 0.79863 0.0
O109 O 0.43053 0.92825 0.77817 0.0
O110 O 0.40456 0.90882 0.84451 0.0
O111 O 0.37032 0.92805 0.83017 0.0
H112 H 0.28482 0.95053 0.76515 0.0
H113 H 0.25328 0.94519 0.73117 0.0
H114 H 0.28781 0.88051 0.70265 0.0
H115 H 0.31945 0.88594 0.73709 0.0
H116 H 0.48784 0.8443 0.84701 0.0
H117 H 0.51742 0.85108 0.88309 0.0
H118 H 0.49453 0.92491 0.88909 0.0
H119 H 0.46513 0.91799 0.85279 0.0
Sm120 Sm 0.3688 0.11383 0.04118 0.0
Sm121 Sm 0.37342 0.16795 0.04475 0.0
C122 C 0.35749 0.06799 0.0354 0.0
C123 C 0.36141 0.05048 1.01328 0.0
C124 C 0.36229 0.05823 0.98605 0.0
C125 C 0.36438 0.04168 0.96485 0.0
C126 C 0.36582 0.017 0.9704 0.0
C127 C 0.36597 1.00927 0.99771 0.0
C128 C 0.36365 0.02592 1.01902 0.0
C129 C 0.41413 0.13007 0.05474 0.0
C130 C 0.38604 0.1421 0.98712 0.0
C131 C 0.38372 0.21211 0.06126 0.0
C132 C 0.38336 0.22588 0.08728 0.0
C133 C 0.40489 0.23226 0.10032 0.0
C134 C 0.40464 0.24588 0.12441 0.0
C135 C 0.38284 0.25352 0.13603 0.0
C136 C 0.36134 0.24705 0.12292 0.0
C137 C 0.36159 0.23343 0.09896 0.0
C138 C 0.33099 0.15246 1.02167 0.0
C139 C 0.34913 0.1389 0.09691 0.0
O140 O 0.34289 0.08562 1.02956 0.0
O141 O 0.37649 0.07511 0.04876 0.0
O142 O 0.39454 0.13798 0.06372 0.0
O143 O 0.41019 0.113 0.03731 0.0
O144 O 0.37252 0.12459 0.99653 0.0
O145 O 0.39236 0.16026 1.00306 0.0
O146 O 0.39996 0.1953 0.05862 0.0
O147 O 0.36302 0.20593 0.0509 0.0
O148 O 0.34148 0.14352 0.04196 0.0
O149 O 0.34317 0.1707 1.01255 0.0
O150 O 0.35497 0.15991 0.08618 0.0
O151 O 0.35351 0.11852 0.08413 0.0
H152 H 0.36082 0.07709 0.98109 0.0
H153 H 0.36455 0.04817 0.94402 0.0
H154 H 0.367 0.99034 1.0025 0.0
H155 H 0.36314 0.0196 0.03991 0.0
H156 H 0.42197 0.22681 0.0918 0.0
H157 H 0.42154 0.25032 0.13399 0.0
H158 H 0.3442 0.25296 0.13082 0.0
H159 H 0.34463 0.22906 0.08947 0.0
Sm160 Sm 0.15965 0.90077 0.27626 0.0
Sm161 Sm 0.10656 0.89179 0.26477 0.0
C162 C 0.20245 0.91336 0.29451 0.0
C163 C 0.22086 0.90427 0.31323 0.0
C164 C 0.21474 0.89122 0.33671 0.0
C165 C 0.23266 0.88308 0.35436 0.0
C166 C 0.25697 0.88777 0.34872 0.0
C167 C 0.26293 0.90026 0.32472 0.0
C168 C 0.24503 0.90846 0.3072 0.0
C169 C 0.15051 0.85767 0.25124 0.0
C170 C 0.12568 0.87933 0.32604 0.0
C171 C 0.06644 0.87541 0.2423 0.0
C172 C 0.05021 0.88042 0.21927 0.0
C173 C 0.03546 0.86205 0.20924 0.0
C174 C 0.01929 0.86653 0.18802 0.0
C175 C 0.0175 0.88955 0.17648 0.0
C176 C 0.0329 0.90774 0.18607 0.0
C177 C 0.04914 0.9032 0.20721 0.0
C178 C 0.11584 0.93712 0.28529 0.0
C179 C 0.14001 0.91892 0.21783 0.0
O180 O 0.18239 0.92105 0.30533 0.0
O181 O 0.19925 0.9009 0.27224 0.0
O182 O 0.13786 0.86668 0.27011 0.0
O183 O 0.16944 0.87051 0.24682 0.0
O184 O 0.14609 0.88944 0.31878 0.0
O185 O 0.10796 0.87591 0.30851 0.0
O186 O 0.08775 0.86742 0.23599 0.0
O187 O 0.06678 0.89092 0.26235 0.0
O188 O 0.12869 0.92564 0.26872 0.0
O189 O 0.096 0.92545 0.28963 0.0
O190 O 0.12015 0.90671 0.22301 0.0
O191 O 0.1566 0.92211 0.23664 0.0
H192 H 0.19615 0.88756 0.34157 0.0
H193 H 0.22744 0.87373 0.3728 0.0
H194 H 0.28147 0.90384 0.31955 0.0
H195 H 0.25007 0.91824 0.28896 0.0
H196 H 0.03615 0.84429 0.21817 0.0
H197 H 1.00757 0.85221 0.18134 0.0
H198 H 0.03219 0.92559 0.1774 0.0
H199 H 0.06062 0.91754 0.21438 0.0
Sm200 Sm 0.36998 0.90527 0.52338 0.0
Sm201 Sm 0.37824 0.85222 0.51759 0.0
C202 C 0.36036 0.9505 0.53611 0.0
C203 C 0.36136 0.967 0.55938 0.0
C204 C 0.36185 0.95845 0.58626 0.0
C205 C 0.36366 0.97455 0.60803 0.0
C206 C 0.36515 0.99941 0.60322 0.0
C207 C 0.36486 1.0078 0.57621 0.0
C208 C 0.36295 0.99171 0.55448 0.0
C209 C 0.4119 0.8938 0.49726 0.0
C210 C 0.38506 0.87401 0.57802 0.0
C211 C 0.39276 0.8096 0.49944 0.0
C212 C 0.38876 0.79216 0.47693 0.0
C213 C 0.39303 0.798 0.44937 0.0
C214 C 0.3897 0.7808 0.42872 0.0
C215 C 0.3819 0.75747 0.43519 0.0
C216 C 0.37799 0.7517 0.46281 0.0
C217 C 0.38142 0.76877 0.48334 0.0
C218 C 0.33297 0.86382 0.53646 0.0
C219 C 0.35367 0.88292 0.46618 0.0
O220 O 0.3443 0.93339 0.53688 0.0
O221 O 0.38106 0.94331 0.52678 0.0
O222 O 0.40427 0.88314 0.51849 0.0
O223 O 0.39781 0.91115 0.49035 0.0
O224 O 0.37417 0.89298 0.56789 0.0
O225 O 0.39228 0.85628 0.56202 0.0
O226 O 0.40358 0.82976 0.49362 0.0
O227 O 0.37558 0.81229 0.51736 0.0
O228 O 0.34425 0.87447 0.51781 0.0
O229 O 0.3452 0.84552 0.54516 0.0
O230 O 0.36395 0.86272 0.47433 0.0
O231 O 0.35124 0.90146 0.48257 0.0
H232 H 0.36096 0.93939 0.59039 0.0
H233 H 0.36411 0.96753 0.62862 0.0
H234 H 0.36572 0.02683 0.57189 0.0
H235 H 0.36277 0.99856 0.53379 0.0
H236 H 0.39886 0.81585 0.44371 0.0
H237 H 0.39272 0.7859 0.40768 0.0
H238 H 0.37234 0.73383 0.46862 0.0
H239 H 0.37835 0.76363 0.50438 0.0
Sm240 Sm 0.36816 0.11367 0.77812 0.0
Sm241 Sm 0.41871 0.12961 0.7638 0.0
C242 C 0.32771 0.09528 0.79737 0.0
C243 C 0.30907 0.09856 0.81819 0.0
C244 C 0.2949 0.07886 0.82544 0.0
C245 C 0.27676 0.08131 0.84483 0.0
C246 C 0.27245 0.10357 0.8574 0.0
C247 C 0.28657 0.12343 0.84989 0.0
C248 C 0.30484 0.12091 0.83045 0.0
C249 C 0.37117 0.15764 0.75256 0.0
C250 C 0.40074 0.1391 0.8258 0.0
C251 C 0.45666 0.14921 0.73968 0.0
C252 C 0.47447 0.14426 0.71778 0.0
C253 C 0.46893 0.14764 0.69001 0.0
C254 C 0.48622 0.14344 0.66973 0.0
C255 C 0.50939 0.13572 0.67676 0.0
C256 C 0.51496 0.13274 0.70455 0.0
C257 C 0.49778 0.13704 0.72476 0.0
C258 C 0.41653 0.08357 0.78495 0.0
C259 C 0.38713 0.09768 0.71901 0.0
O260 O 0.3489 0.08855 0.80579 0.0
O261 O 0.32855 0.11111 0.77775 0.0
O262 O 0.38496 0.15036 0.77121 0.0
O263 O 0.35435 0.14215 0.74808 0.0
O264 O 0.38322 0.12409 0.82004 0.0
O265 O 0.4153 0.14735 0.8066 0.0
O266 O 0.43454 0.15365 0.73239 0.0
O267 O 0.45799 0.13631 0.76194 0.0
O268 O 0.40185 0.09294 0.76868 0.0
O269 O 0.4341 0.09834 0.78948 0.0
O270 O 0.40462 0.11355 0.72244 0.0
O271 O 0.37286 0.09194 0.7394 0.0
H272 H 0.29784 0.06152 0.81602 0.0
H273 H 0.26601 0.06576 0.84992 0.0
H274 H 0.28381 0.14073 0.85943 0.0
H275 H 0.31566 0.13634 0.82505 0.0
H276 H 0.45123 0.15349 0.68388 0.0
H277 H 0.48131 0.14579 0.64853 0.0
H278 H 0.53275 0.12722 0.71074 0.0
H279 H 0.5028 0.13474 0.74593 0.0
Sm280 Sm 0.15028 0.11471 1.02516 0.0
Sm281 Sm 0.14521 0.16743 1.01262 0.0
C282 C 0.16083 0.07117 0.04326 0.0
C283 C 0.15268 0.05223 0.06192 0.0
C284 C 0.16118 0.02886 0.058 0.0
C285 C 0.1548 0.0106 0.07608 0.0
C286 C 0.13978 0.01538 0.09848 0.0
C287 C 0.13068 0.03875 0.10191 0.0
C288 C 0.13713 0.05708 0.08376 0.0
C289 C 0.10919 0.12555 0.99695 0.0
C290 C 0.13274 0.15106 0.07486 0.0
C291 C 0.13423 0.20978 0.99086 0.0
C292 C 0.13129 0.22279 0.96455 0.0
C293 C 0.10839 0.23048 0.95649 0.0
C294 C 0.10548 0.24547 0.93381 0.0
C295 C 0.12543 0.25334 0.9186 0.0
C296 C 0.14826 0.24478 0.92595 0.0
C297 C 0.15118 0.22975 0.94868 0.0
C298 C 0.18867 0.15537 0.03604 0.0
C299 C 0.17077 0.13225 0.96732 0.0
O300 O 0.1692 0.09086 0.05424 0.0
O301 O 0.14771 0.07507 1.02167 0.0
O302 O 0.11755 0.13801 1.01637 0.0
O303 O 0.12159 0.10618 0.99346 0.0
O304 O 0.139 0.12922 0.06736 0.0
O305 O 0.1324 0.16922 0.05749 0.0
O306 O 0.11818 0.19365 0.99739 0.0
O307 O 0.15586 0.20377 0.99845 0.0
O308 O 0.17767 0.14371 1.01802 0.0
O309 O 0.17673 0.17464 0.04222 0.0
O310 O 0.15686 0.15127 0.97063 0.0
O311 O 0.17445 0.11737 0.98778 0.0
H312 H 0.17307 0.02479 0.04113 0.0
H313 H 0.16183 0.99274 0.07267 0.0
H314 H 0.11923 0.04303 0.11909 0.0
H315 H 0.13033 0.07505 0.08702 0.0
H316 H 0.09272 0.22551 0.96829 0.0
H317 H 0.08758 0.25135 0.92855 0.0
H318 H 0.16406 0.25059 0.91493 0.0
H319 H 0.16912 0.22428 0.95431 0.0
Sm320 Sm 0.91981 0.89431 0.76448 0.0
Sm321 Sm 0.86834 0.9084 0.77494 0.0
C322 C 0.95903 0.87541 0.74229 0.0
C323 C 0.97578 0.88026 0.71961 0.0
C324 C 0.9899 0.86159 0.70909 0.0
C325 C 1.00663 0.86604 0.68834 0.0
C326 C 1.00963 0.88932 0.67781 0.0
C327 C 0.99488 0.90784 0.6879 0.0
C328 C 0.97808 0.90334 0.70853 0.0
C329 C 0.9153 0.9401 0.7857 0.0
C330 C 0.89046 0.92613 0.71765 0.0
C331 C 0.82652 0.9249 0.79259 0.0
C332 C 0.80821 0.92039 0.81355 0.0
C333 C 0.79177 0.93856 0.8197 0.0
C334 C 0.77433 0.93503 0.83972 0.0
C335 C 0.77296 0.9132 0.85401 0.0
C336 C 0.78925 0.8948 0.84751 0.0
C337 C 0.80685 0.89842 0.82748 0.0
C338 C 0.87376 0.86526 0.74829 0.0
C339 C 0.89917 0.8837 0.82548 0.0
O340 O 0.93732 0.86899 0.73553 0.0
O341 O 0.95942 0.89035 0.76286 0.0
O342 O 0.90169 0.93045 0.76844 0.0
O343 O 0.93292 0.92573 0.79145 0.0
O344 O 0.90811 0.91075 0.72243 0.0
O345 O 0.87442 0.93094 0.73667 0.0
O346 O 0.84714 0.93319 0.80106 0.0
O347 O 0.82863 0.90888 0.77328 0.0
O348 O 0.88627 0.87213 0.76838 0.0
O349 O 0.85713 0.88073 0.74281 0.0
O350 O 0.88033 0.89626 0.81771 0.0
O351 O 0.9164 0.87803 0.80797 0.0
H352 H 0.98828 0.84362 0.71727 0.0
H353 H 0.0178 0.85144 0.68123 0.0
H354 H 0.9965 0.9259 0.67999 0.0
H355 H 0.96713 0.91794 0.71612 0.0
H356 H 0.79252 0.95559 0.80907 0.0
H357 H 0.76189 0.94945 0.84409 0.0
H358 H 0.78877 0.87791 0.85839 0.0
H359 H 0.8195 0.8842 0.82302 0.0
Sm360 Sm 0.86932 0.17553 0.51705 0.0
Sm361 Sm 0.87185 0.12085 0.52576 0.0
C362 C 0.87419 0.21956 0.49721 0.0
C363 C 0.87378 0.23218 0.47053 0.0
C364 C 0.89219 0.24835 0.46374 0.0
C365 C 0.8906 0.26259 0.4402 0.0
C366 C 0.87042 0.26112 0.42313 0.0
C367 C 0.8526 0.24407 0.42925 0.0
C368 C 0.85429 0.2297 0.45257 0.0
C369 C 0.82949 0.15681 0.54325 0.0
C370 C 0.84836 0.14007 0.46866 0.0
C371 C 0.86528 0.0744 0.5348 0.0
C372 C 0.87179 0.05749 0.55666 0.0
C373 C 0.87943 0.0661 0.5821 0.0
C374 C 0.88295 0.05029 0.60384 0.0
C375 C 0.87901 0.02553 0.60054 0.0
C376 C 0.87248 0.01684 0.57465 0.0
C377 C 0.86879 0.03274 0.55291 0.0
C378 C 0.91373 0.1418 0.50645 0.0
C379 C 0.88638 0.15545 0.57652 0.0
O380 O 0.89252 0.20563 0.50247 0.0
O381 O 0.85386 0.21076 0.50605 0.0
O382 O 0.84105 0.14721 0.52401 0.0
O383 O 0.83918 0.1774 0.54913 0.0
O384 O 0.8523 0.16233 0.47688 0.0
O385 O 0.85446 0.12121 0.48343 0.0
O386 O 0.84984 0.09097 0.54176 0.0
O387 O 0.88279 0.08274 0.51976 0.0
O388 O 0.89262 0.14665 0.49957 0.0
O389 O 0.91345 0.12462 0.52436 0.0
O390 O 0.87682 0.13482 0.56921 0.0
O391 O 0.889 0.1733 0.55886 0.0
H392 H 0.9074 0.25059 0.47721 0.0
H393 H 0.90452 0.27566 0.43615 0.0
H394 H 0.83694 0.24236 0.41636 0.0
H395 H 0.83992 0.21722 0.45699 0.0
H396 H 0.88194 0.08514 0.58537 0.0
H397 H 0.88826 0.0575 0.62345 0.0
H398 H 0.86915 0.9979 0.57155 0.0
H399 H 0.86287 0.02578 0.53341 0.0
Sm400 Sm 0.60089 0.11993 0.26308 0.0
Sm401 Sm 0.65375 0.1162 0.27612 0.0
C402 C 0.55832 0.13023 0.24167 0.0
C403 C 0.54521 0.13362 0.21556 0.0
C404 C 0.53856 0.15679 0.20721 0.0
C405 C 0.52342 0.16012 0.18476 0.0
C406 C 0.5144 0.14035 0.17015 0.0
C407 C 0.52186 0.11721 0.17784 0.0
C408 C 0.53702 0.11387 0.2003 0.0
C409 C 0.61366 0.07682 0.28695 0.0
C410 C 0.63735 0.0968 0.21749 0.0
C411 C 0.69688 0.10605 0.29532 0.0
C412 C 0.71476 0.11483 0.31479 0.0
C413 C 0.70822 0.12883 0.33739 0.0
C414 C 0.72569 0.13645 0.35592 0.0
C415 C 0.7499 0.1302 0.35203 0.0
C416 C 0.75631 0.11664 0.32897 0.0
C417 C 0.73887 0.10901 0.31055 0.0
C418 C 0.64257 0.15669 0.24712 0.0
C419 C 0.61692 0.13468 0.32491 0.0
O420 O 0.57389 0.14657 0.24888 0.0
O421 O 0.56504 0.10855 0.24828 0.0
O422 O 0.62558 0.0881 0.26929 0.0
O423 O 0.59351 0.08779 0.29158 0.0
O424 O 0.61732 0.10906 0.22122 0.0
O425 O 0.65267 0.09345 0.23755 0.0
O426 O 0.67711 0.09701 0.30543 0.0
O427 O 0.69333 0.11932 0.27374 0.0
O428 O 0.62982 0.14833 0.26642 0.0
O429 O 0.66236 0.14479 0.24452 0.0
O430 O 0.63905 0.12945 0.31747 0.0
O431 O 0.59871 0.13322 0.30772 0.0
H432 H 0.54444 0.17237 0.21858 0.0
H433 H 0.51835 0.17821 0.17922 0.0
H434 H 0.51509 0.10154 0.16732 0.0
H435 H 0.5416 0.09574 0.20623 0.0
H436 H 0.68964 0.1336 0.34087 0.0
H437 H 0.72016 0.14669 0.37362 0.0
H438 H 0.77483 0.11185 0.32518 0.0
H439 H 0.74421 0.0984 0.29304 0.0
Sm440 Sm 0.64565 0.84872 1.01437 0.0
Sm441 Sm 0.6567 0.90038 1.02677 0.0
C442 C 0.62936 0.8089 0.9909 0.0
C443 C 0.63477 0.79177 0.96846 0.0
C444 C 0.63052 0.79758 0.94091 0.0
C445 C 0.63462 0.78064 0.92023 0.0
C446 C 0.64311 0.75756 0.9266 0.0
C447 C 0.64722 0.75182 0.95416 0.0
C448 C 0.64303 0.76865 0.97478 0.0
C449 C 0.69067 0.85485 0.03687 0.0
C450 C 0.67672 0.88113 0.96937 0.0
C451 C 0.6701 0.94244 0.04673 0.0
C452 C 0.66166 0.96113 0.06581 0.0
C453 C 0.67599 0.96729 0.0882 0.0
C454 C 0.66905 0.98566 0.10588 0.0
C455 C 0.64768 0.99847 0.10142 0.0
C456 C 0.63312 0.99203 0.0792 0.0
C457 C 0.64003 0.97354 0.06156 0.0
C458 C 0.61395 0.89368 0.99982 0.0
C459 C 0.63325 0.8671 0.07589 0.0
O460 O 0.62208 0.83044 0.98433 0.0
O461 O 0.64362 0.80889 1.01206 0.0
O462 O 0.68081 0.86852 1.01981 0.0
O463 O 0.67698 0.83647 0.04169 0.0
O464 O 0.66249 0.86233 0.97315 0.0
O465 O 0.68038 0.89662 0.98923 0.0
O466 O 0.67676 0.92196 0.05734 0.0
O467 O 0.65848 0.93996 1.02376 0.0
O468 O 0.62144 0.88075 1.01925 0.0
O469 O 0.62833 0.91149 0.99549 0.0
O470 O 0.64468 0.88682 0.06881 0.0
O471 O 0.62884 0.84994 0.05786 0.0
H472 H 0.62392 0.81515 0.93529 0.0
H473 H 0.63141 0.78571 0.89922 0.0
H474 H 0.65336 0.7341 0.95989 0.0
H475 H 0.64605 0.76346 0.99579 0.0
H476 H 0.69272 0.95799 0.09193 0.0
H477 H 0.68044 0.98976 0.12312 0.0
H478 H 0.61664 1.00161 0.07509 0.0
H479 H 0.62857 0.96919 0.04444 0.0
Sm480 Sm 0.91431 0.12932 0.79949 0.0
Sm481 Sm 0.86212 0.11613 0.78565 0.0
C482 C 0.95278 0.1487 0.8227 0.0
C483 C 0.96955 0.14411 0.84533 0.0
C484 C 0.98526 0.16229 0.85377 0.0
C485 C 1.00201 0.158 0.87448 0.0
C486 C 1.00341 0.13538 0.88707 0.0
C487 C 0.98709 0.11742 0.87903 0.0
C488 C 0.9703 0.12175 0.85839 0.0
C489 C 0.90882 0.08311 0.77987 0.0
C490 C 0.88113 0.10056 0.84533 0.0
C491 C 0.82065 0.09912 0.76787 0.0
C492 C 0.80257 0.10193 0.74647 0.0
C493 C 0.7989 0.12393 0.73323 0.0
C494 C 0.78123 0.126 0.71315 0.0
C495 C 0.76716 0.10604 0.70596 0.0
C496 C 0.77093 0.08411 0.71941 0.0
C497 C 0.78848 0.0821 0.73949 0.0
C498 C 0.86779 0.15986 0.8108 0.0
C499 C 0.89678 0.13735 0.73672 0.0
O500 O 0.93081 0.15427 0.82948 0.0
O501 O 0.95381 0.13406 0.80186 0.0
O502 O 0.89461 0.09411 0.79534 0.0
O503 O 0.92838 0.09553 0.77692 0.0
O504 O 0.89971 0.11494 0.84114 0.0
O505 O 0.86606 0.09544 0.82545 0.0
O506 O 0.84137 0.0903 0.76049 0.0
O507 O 0.82243 0.11642 0.78575 0.0
O508 O 0.88136 0.15171 0.79224 0.0
O509 O 0.84983 0.1456 0.8149 0.0
O510 O 0.87739 0.12514 0.74335 0.0
O511 O 0.91281 0.14404 0.75515 0.0
H512 H 0.98486 0.17971 0.844 0.0
H513 H 0.0144 0.17215 0.87995 0.0
H514 H 0.98744 0.0999 0.88854 0.0
H515 H 0.95812 0.10757 0.85237 0.0
H516 H 0.80972 0.13942 0.73836 0.0
H517 H 0.77888 0.14303 0.70288 0.0
H518 H 0.76021 0.0685 0.7145 0.0
H519 H 0.79103 0.06502 0.74963 0.0
Sm520 Sm 0.64154 0.16872 0.5473 0.0
Sm521 Sm 0.65141 0.11674 0.53301 0.0
C522 C 0.6254 0.20839 0.5715 0.0
C523 C 0.62934 0.22333 0.59604 0.0
C524 C 0.6115 0.23948 0.60443 0.0
C525 C 0.61535 0.25488 0.62664 0.0
C526 C 0.63722 0.2545 0.64089 0.0
C527 C 0.65474 0.23762 0.63296 0.0
C528 C 0.65084 0.22219 0.6108 0.0
C529 C 0.68717 0.16137 0.52641 0.0
C530 C 0.66937 0.13414 0.59216 0.0
C531 C 0.66475 0.07479 0.51257 0.0
C532 C 0.6564 0.05608 0.49361 0.0
C533 C 0.67317 0.04432 0.47709 0.0
C534 C 0.66603 0.02569 0.45987 0.0
C535 C 0.64191 0.01832 0.45891 0.0
C536 C 0.62502 0.03044 0.47521 0.0
C537 C 0.63219 0.04918 0.49239 0.0
C538 C 0.60824 0.12406 0.55884 0.0
C539 C 0.6305 0.15247 0.48477 0.0
O540 O 0.616 0.1872 0.5753 0.0
O541 O 0.64234 0.20829 0.55302 0.0
O542 O 0.67616 0.14767 0.54254 0.0
O543 O 0.67422 0.18024 0.52141 0.0
O544 O 0.65551 0.15316 0.58859 0.0
O545 O 0.67372 0.1193 0.57179 0.0
O546 O 0.67129 0.09532 0.50196 0.0
O547 O 0.65291 0.07715 0.53545 0.0
O548 O 0.6168 0.13741 0.54035 0.0
O549 O 0.62162 0.10538 0.56241 0.0
O550 O 0.6406 0.13187 0.49113 0.0
O551 O 0.62667 0.16944 0.50317 0.0
H552 H 0.59473 0.24059 0.59338 0.0
H553 H 0.60155 0.26772 0.63194 0.0
H554 H 0.67166 0.23657 0.64368 0.0
H555 H 0.66476 0.20967 0.6049 0.0
H556 H 0.69191 0.04944 0.47765 0.0
H557 H 0.67944 0.01717 0.44715 0.0
H558 H 0.60634 0.02519 0.47506 0.0
H559 H 0.61889 0.05807 0.50493 0.0
Sm560 Sm 0.6056 0.88682 0.29951 0.0
Sm561 Sm 0.65701 0.90125 0.29085 0.0
C562 C 0.56605 0.86695 0.31968 0.0
C563 C 0.54786 0.87068 0.3414 0.0
C564 C 0.55378 0.86994 0.36933 0.0
C565 C 0.53608 0.87349 0.38933 0.0
C566 C 0.51221 0.87799 0.38177 0.0
C567 C 0.50632 0.87815 0.35387 0.0
C568 C 0.52389 0.87447 0.33398 0.0
C569 C 0.61015 0.93358 0.28156 0.0
C570 C 0.63504 0.91491 0.34938 0.0
C571 C 0.69969 0.91782 0.27605 0.0
C572 C 0.71795 0.91605 0.25455 0.0
C573 C 0.73546 0.93395 0.25273 0.0
C574 C 0.75369 0.93233 0.2333 0.0
C575 C 0.75476 0.91272 0.21529 0.0
C576 C 0.73716 0.89471 0.2172 0.0
C577 C 0.71883 0.89639 0.23668 0.0
C578 C 0.65113 0.85679 0.31448 0.0
C579 C 0.6259 0.88171 0.23798 0.0
O580 O 0.58769 0.86085 0.32717 0.0
O581 O 0.56596 0.88196 0.29918 0.0
O582 O 0.62372 0.92339 0.29856 0.0
O583 O 0.5929 0.91924 0.2744 0.0
O584 O 0.61605 0.90203 0.34242 0.0
O585 O 0.65221 0.9198 0.33181 0.0
O586 O 0.67962 0.92865 0.26997 0.0
O587 O 0.69659 0.89882 0.2912 0.0
O588 O 0.63893 0.86466 0.29463 0.0
O589 O 0.66761 0.87199 0.32123 0.0
O590 O 0.64416 0.89447 0.24696 0.0
O591 O 0.60954 0.87309 0.25493 0.0
H592 H 0.57208 0.86687 0.37577 0.0
H593 H 0.54118 0.87341 0.41064 0.0
H594 H 0.48803 0.88126 0.34739 0.0
H595 H 0.51874 0.87475 0.31268 0.0
H596 H 0.73515 0.94913 0.26653 0.0
H597 H 0.76711 0.94635 0.23255 0.0
H598 H 0.73734 0.87955 0.20339 0.0
H599 H 0.70542 0.88237 0.23785 0.0
Sm600 Sm 0.87874 0.8557 0.04959 0.0
Sm601 Sm 0.86896 0.90866 0.04142 0.0
C602 C 0.89587 0.81494 0.07004 0.0
C603 C 0.89137 0.79839 0.09303 0.0
C604 C 0.90978 0.78323 0.1021 0.0
C605 C 0.90571 0.76686 0.12331 0.0
C606 C 0.88305 0.76526 0.13583 0.0
C607 C 0.86483 0.78102 0.12714 0.0
C608 C 0.86896 0.79745 0.10601 0.0
C609 C 0.83317 0.86479 1.03043 0.0
C610 C 0.85131 0.88687 0.09892 0.0
C611 C 0.85821 0.95346 1.02819 0.0
C612 C 0.85839 0.97018 1.00514 0.0
C613 C 0.8559 0.96215 0.97818 0.0
C614 C 0.85651 0.97858 0.95666 0.0
C615 C 0.85981 1.00321 0.96181 0.0
C616 C 0.86248 0.01106 0.98885 0.0
C617 C 0.86173 0.99466 1.01032 0.0
C618 C 0.91135 0.89862 0.06737 0.0
C619 C 0.88426 0.87604 0.98795 0.0
O620 O 0.90428 0.83609 0.07634 0.0
O621 O 0.87971 0.81582 0.05075 0.0
O622 O 0.84445 0.87723 0.04757 0.0
O623 O 0.84509 0.84536 1.02485 0.0
O624 O 0.86321 0.86712 0.09216 0.0
O625 O 0.84877 0.90466 0.08147 0.0
O626 O 0.84262 0.93593 1.02764 0.0
O627 O 0.87918 0.9469 0.03727 0.0
O628 O 0.90369 0.88742 0.04658 0.0
O629 O 0.89679 0.91558 0.07436 0.0
O630 O 0.87323 0.89524 0.9974 0.0
O631 O 0.89192 0.85891 1.00456 0.0
H632 H 0.92726 0.7838 0.09246 0.0
H633 H 0.92006 0.75491 0.12928 0.0
H634 H 0.84727 0.78051 0.13657 0.0
H635 H 0.85458 0.80922 0.09961 0.0
H636 H 0.85358 0.94325 0.9738 0.0
H637 H 0.85468 0.97201 0.93597 0.0
H638 H 0.8648 0.02992 0.99343 0.0
H639 H 0.86378 1.0011 1.03105 0.0
Sm640 Sm 0.65094 0.61454 0.78305 0.0
Sm641 Sm 0.60055 0.62913 0.7996 0.0
C642 C 0.69091 0.59842 0.7602 0.0
C643 C 0.71021 0.60678 0.74195 0.0
C644 C 0.71836 0.59163 0.72112 0.0
C645 C 0.73731 0.59865 0.70427 0.0
C646 C 0.74868 0.62096 0.70803 0.0
C647 C 0.74021 0.63629 0.7287 0.0
C648 C 0.72113 0.6293 0.74548 0.0
C649 C 0.64813 0.65884 0.80796 0.0
C650 C 0.61604 0.63942 0.73702 0.0
C651 C 0.56321 0.64847 0.82526 0.0
C652 C 0.54704 0.64361 0.84844 0.0
C653 C 0.5308 0.66131 0.85694 0.0
C654 C 0.51475 0.65682 0.87836 0.0
C655 C 0.51461 0.63447 0.89167 0.0
C656 C 0.53142 0.61699 0.8835 0.0
C657 C 0.54749 0.62153 0.86211 0.0
C658 C 0.60309 0.58313 0.7782 0.0
C659 C 0.63451 0.59856 0.84309 0.0
O660 O 0.66972 0.59527 0.74938 0.0
O661 O 0.69002 0.60792 0.78455 0.0
O662 O 0.6335 0.65083 0.79059 0.0
O663 O 0.66596 0.64425 0.81073 0.0
O664 O 0.63384 0.6245 0.74184 0.0
O665 O 0.60206 0.64728 0.75695 0.0
O666 O 0.58549 0.65339 0.83128 0.0
O667 O 0.56123 0.63446 0.80395 0.0
O668 O 0.6182 0.59272 0.79384 0.0
O669 O 0.58512 0.59761 0.77452 0.0
O670 O 0.61612 0.61336 0.84012 0.0
O671 O 0.64848 0.59293 0.82236 0.0
H672 H 0.71012 0.57425 0.71798 0.0
H673 H 0.74296 0.58661 0.68817 0.0
H674 H 0.7486 0.65352 0.73227 0.0
H675 H 0.71511 0.64138 0.76138 0.0
H676 H 0.53026 0.67851 0.8467 0.0
H677 H 0.50194 0.67058 0.88388 0.0
H678 H 0.53204 0.5997 0.89352 0.0
H679 H 0.56008 0.60772 0.85604 0.0
Sm680 Sm 0.65027 0.4051 0.03699 0.0
Sm681 Sm 0.64335 0.35267 0.04787 0.0
C682 C 0.6615 0.44862 1.01924 0.0
C683 C 0.65327 0.46748 1.00058 0.0
C684 C 0.66325 0.49042 1.00278 0.0
C685 C 0.65642 0.50859 0.98483 0.0
C686 C 0.63943 0.50414 0.96428 0.0
C687 C 0.62898 0.4812 0.96254 0.0
C688 C 0.63588 0.46297 0.98056 0.0
C689 C 0.60988 0.39548 0.06733 0.0
C690 C 0.62819 0.37134 0.98728 0.0
C691 C 0.6302 0.31064 0.06897 0.0
C692 C 0.63272 0.29564 0.09366 0.0
C693 C 0.65323 0.29684 0.11013 0.0
C694 C 0.65604 0.28099 0.13209 0.0
C695 C 0.63837 0.26367 0.13807 0.0
C696 C 0.61738 0.26331 0.12222 0.0
C697 C 0.61464 0.27911 0.10021 0.0
C698 C 0.68707 0.36331 1.02351 0.0
C699 C 0.67268 0.38553 0.09313 0.0
O700 O 0.66973 0.4289 1.00819 0.0
O701 O 0.64832 0.44473 0.04083 0.0
O702 O 0.61667 0.38321 0.04688 0.0
O703 O 0.62357 0.41395 0.07079 0.0
O704 O 0.63684 0.3923 0.99496 0.0
O705 O 0.62687 0.35308 1.00447 0.0
O706 O 0.61743 0.33016 0.07121 0.0
O707 O 0.64921 0.31358 0.05372 0.0
O708 O 0.67685 0.37502 0.04212 0.0
O709 O 0.67415 0.3447 1.01725 0.0
O710 O 0.65907 0.3663 0.08943 0.0
O711 O 0.67527 0.4014 0.07342 0.0
H712 H 0.67657 0.49423 1.01826 0.0
H713 H 0.66456 0.52613 0.98694 0.0
H714 H 0.61601 0.47716 0.94678 0.0
H715 H 0.62792 0.44533 0.97867 0.0
H716 H 0.66731 0.30965 0.10567 0.0
H717 H 0.67228 0.282 0.14411 0.0
H718 H 0.60353 0.25012 0.12605 0.0
H719 H 0.59863 0.27795 0.0878 0.0
Sm720 Sm 0.86558 0.40833 0.28618 0.0
Sm721 Sm 0.91635 0.39311 0.29842 0.0
C722 C 0.8248 0.42639 0.26751 0.0
C723 C 0.80713 0.42265 0.24574 0.0
C724 C 0.7926 0.44186 0.23781 0.0
C725 C 0.77529 0.43877 0.21759 0.0
C726 C 0.77218 0.41635 0.20489 0.0
C727 C 0.78671 0.39703 0.21302 0.0
C728 C 0.80414 0.40018 0.23325 0.0
C729 C 0.86908 0.36299 0.30815 0.0
C730 C 0.899 0.38812 0.2357 0.0
C731 C 0.95502 0.37333 0.32077 0.0
C732 C 0.97179 0.37821 0.34333 0.0
C733 C 0.98732 0.3601 0.35236 0.0
C734 C 1.00392 0.36468 0.37315 0.0
C735 C 1.00536 0.38752 0.38523 0.0
C736 C 0.98926 0.40544 0.37657 0.0
C737 C 0.97261 0.40081 0.35586 0.0
C738 C 0.91304 0.44031 0.28142 0.0
C739 C 0.88391 0.41994 0.34663 0.0
O740 O 0.84586 0.43447 0.26022 0.0
O741 O 0.82593 0.40987 0.28633 0.0
O742 O 0.88316 0.37146 0.29027 0.0
O743 O 0.85177 0.37779 0.31305 0.0
O744 O 0.88061 0.40128 0.24337 0.0
O745 O 0.91435 0.37931 0.25367 0.0
O746 O 0.93312 0.3677 0.32772 0.0
O747 O 0.95584 0.38795 0.29993 0.0
O748 O 0.89857 0.42981 0.29719 0.0
O749 O 0.93059 0.42604 0.27512 0.0
O750 O 0.90282 0.40648 0.34096 0.0
O751 O 0.86847 0.42619 0.32766 0.0
H752 H 0.79457 0.45927 0.24735 0.0
H753 H 0.76421 0.45393 0.212 0.0
H754 H 0.7849 0.37964 0.2034 0.0
H755 H 0.81526 0.38513 0.23912 0.0
H756 H 0.98686 0.3425 0.34302 0.0
H757 H 0.01616 0.35056 0.37912 0.0
H758 H 0.98965 0.42313 0.38568 0.0
H759 H 0.96057 0.41495 0.34941 0.0
Sm760 Sm 0.8667 0.61488 0.53564 0.0
Sm761 Sm 0.87552 0.66767 0.55037 0.0
C762 C 0.85338 0.57266 0.51602 0.0
C763 C 0.86253 0.55325 0.49865 0.0
C764 C 0.87858 0.55775 0.47718 0.0
C765 C 0.88652 0.5389 0.46062 0.0
C766 C 0.87857 0.5153 0.46535 0.0
C767 C 0.86305 0.5109 0.48743 0.0
C768 C 0.85509 0.52972 0.50387 0.0
C769 C 0.91104 0.62312 0.55822 0.0
C770 C 0.88374 0.652 0.48685 0.0
C771 C 0.89192 0.70743 0.57394 0.0
C772 C 0.88713 0.72432 0.59658 0.0
C773 C 0.90624 0.73727 0.60796 0.0
C774 C 0.90214 0.75437 0.62841 0.0
C775 C 0.87878 0.75897 0.63789 0.0
C776 C 0.85973 0.74539 0.62695 0.0
C777 C 0.86386 0.72823 0.60654 0.0
C778 C 0.82958 0.6585 0.53169 0.0
C779 C 0.85053 0.63155 0.59616 0.0
O780 O 0.8482 0.59305 0.50417 0.0
O781 O 0.86398 0.57534 0.53954 0.0
O782 O 0.90081 0.637 0.5414 0.0
O783 O 0.89902 0.60346 0.56099 0.0
O784 O 0.87328 0.63159 0.4934 0.0
O785 O 0.88935 0.66828 0.5055 0.0
O786 O 0.89914 0.6859 0.58055 0.0
O787 O 0.877 0.70743 0.55336 0.0
O788 O 0.84197 0.64508 0.54666 0.0
O789 O 0.84045 0.67895 0.52853 0.0
O790 O 0.86241 0.65178 0.59189 0.0
O791 O 0.84661 0.61612 0.57627 0.0
H792 H 0.8847 0.57582 0.473 0.0
H793 H 0.89827 0.54292 0.44362 0.0
H794 H 0.85687 0.4929 0.49185 0.0
H795 H 0.84292 0.52591 0.52057 0.0
H796 H 0.92435 0.73449 0.60062 0.0
H797 H 0.9172 0.76459 0.63608 0.0
H798 H 0.84154 0.74817 0.63403 0.0
H799 H 0.84886 0.71828 0.59828 0.0
Sm800 Sm 0.65399 0.40283 0.77647 0.0
Sm801 Sm 0.60152 0.39365 0.76267 0.0
C802 C 0.69588 0.4163 0.7966 0.0
C803 C 0.7141 0.40788 0.81602 0.0
C804 C 0.72412 0.42428 0.83437 0.0
C805 C 0.74208 0.41706 0.85235 0.0
C806 C 0.75054 0.39329 0.85218 0.0
C807 C 0.74017 0.37675 0.83403 0.0
C808 C 0.72206 0.38397 0.81613 0.0
C809 C 0.64581 0.35843 0.75372 0.0
C810 C 0.6175 0.3858 0.82598 0.0
C811 C 0.56178 0.37692 0.73962 0.0
C812 C 0.54534 0.38186 0.71676 0.0
C813 C 0.53092 0.36331 0.70658 0.0
C814 C 0.51439 0.36772 0.68572 0.0
C815 C 0.51189 0.39086 0.67465 0.0
C816 C 0.52691 0.40929 0.68443 0.0
C817 C 0.54351 0.40482 0.70525 0.0
C818 C 0.61024 0.4399 0.78071 0.0
C819 C 0.63722 0.41834 0.71605 0.0
O820 O 0.67539 0.42333 0.80685 0.0
O821 O 0.69355 0.40413 0.77397 0.0
O822 O 0.63223 0.36844 0.7711 0.0
O823 O 0.66519 0.37078 0.7503 0.0
O824 O 0.63786 0.39607 0.81899 0.0
O825 O 0.60101 0.38018 0.80762 0.0
O826 O 0.58325 0.36941 0.73322 0.0
O827 O 0.5618 0.39218 0.75991 0.0
O828 O 0.6237 0.42759 0.76559 0.0
O829 O 0.59016 0.42859 0.78473 0.0
O830 O 0.61696 0.40664 0.72082 0.0
O831 O 0.6529 0.42238 0.73561 0.0
H832 H 0.71812 0.44276 0.83471 0.0
H833 H 0.74925 0.43013 0.8665 0.0
H834 H 0.74634 0.35835 0.8333 0.0
H835 H 0.71449 0.37093 0.80221 0.0
H836 H 0.53215 0.34544 0.71515 0.0
H837 H 0.50299 0.35319 0.67893 0.0
H838 H 0.52569 0.42724 0.67612 0.0
H839 H 0.55467 0.41934 0.7126 0.0
Sm840 Sm 0.86688 0.40438 1.02411 0.0
Sm841 Sm 0.87523 0.3515 1.01436 0.0
C842 C 0.85288 0.44716 0.04152 0.0
C843 C 0.85503 0.46395 0.06457 0.0
C844 C 0.83511 0.47786 0.07179 0.0
C845 C 0.83674 0.49472 0.09276 0.0
C846 C 0.8584 0.49806 0.10689 0.0
C847 C 0.87837 0.48399 0.09971 0.0
C848 C 0.87667 0.46697 0.07877 0.0
C849 C 0.90909 0.39506 0.9975 0.0
C850 C 0.88825 0.37133 0.0748 0.0
C851 C 0.88921 0.30964 0.99371 0.0
C852 C 0.88413 0.29251 0.97126 0.0
C853 C 0.88753 0.29863 0.94363 0.0
C854 C 0.8836 0.28165 0.92296 0.0
C855 C 0.87608 0.25826 0.92946 0.0
C856 C 0.87289 0.25221 0.95711 0.0
C857 C 0.87692 0.26909 0.9777 0.0
C858 C 0.83007 0.36231 0.03456 0.0
C859 C 0.85072 0.38453 0.9653 0.0
O860 O 0.84042 0.42759 0.04558 0.0
O861 O 0.87198 0.44371 1.02653 0.0
O862 O 0.90109 0.38263 1.01729 0.0
O863 O 0.89565 0.41357 0.99294 0.0
O864 O 0.87786 0.39144 0.06696 0.0
O865 O 0.89173 0.35339 0.05759 0.0
O866 O 0.89902 0.33018 0.98734 0.0
O867 O 0.87331 0.31155 1.01324 0.0
O868 O 0.84138 0.37377 1.0166 0.0
O869 O 0.84226 0.34352 0.04181 0.0
O870 O 0.86101 0.36399 0.97202 0.0
O871 O 0.84836 0.40224 0.98287 0.0
H872 H 0.8183 0.47586 0.06098 0.0
H873 H 0.82112 0.50543 0.09763 0.0
H874 H 0.89519 0.48595 0.11048 0.0
H875 H 0.89226 0.45631 0.07361 0.0
H876 H 0.89325 0.31651 0.93794 0.0
H877 H 0.88607 0.28693 0.90188 0.0
H878 H 0.86746 0.23427 0.96291 0.0
H879 H 0.87453 0.26374 0.99878 0.0
Sm880 Sm 0.8648 0.61988 0.27672 0.0
Sm881 Sm 0.91792 0.62763 0.26455 0.0
C882 C 0.82174 0.60843 0.29544 0.0
C883 C 0.80292 0.61775 0.31356 0.0
C884 C 0.77905 0.61147 0.30846 0.0
C885 C 0.76084 0.6192 0.3259 0.0
C886 C 0.76617 0.63334 0.34887 0.0
C887 C 0.7901 0.64026 0.35345 0.0
C888 C 0.80835 0.63252 0.3359 0.0
C889 C 0.87438 0.6615 0.24877 0.0
C890 C 0.89938 0.64179 0.32581 0.0
C891 C 0.95849 0.64237 0.24124 0.0
C892 C 0.97419 0.63747 0.21755 0.0
C893 C 0.98881 0.65587 0.20728 0.0
C894 C 1.00468 0.6515 0.18564 0.0
C895 C 1.00633 0.62856 0.17384 0.0
C896 C 0.99111 0.61031 0.18373 0.0
C897 C 0.97516 0.61473 0.20532 0.0
C898 C 0.90797 0.58339 0.28776 0.0
C899 C 0.88442 0.59818 0.21974 0.0
O900 O 0.8417 0.60127 0.30688 0.0
O901 O 0.82517 0.62011 0.27266 0.0
O902 O 0.88693 0.6535 0.26831 0.0
O903 O 0.85551 0.64841 0.24507 0.0
O904 O 0.87854 0.63257 0.31858 0.0
O905 O 0.91735 0.6439 0.30821 0.0
O906 O 0.93755 0.65181 0.23606 0.0
O907 O 0.95763 0.62622 0.26058 0.0
O908 O 0.89537 0.59437 0.27059 0.0
O909 O 0.92802 0.59488 0.29128 0.0
O910 O 0.90368 0.61171 0.2235 0.0
O911 O 0.86846 0.59546 0.23943 0.0
H912 H 0.77453 0.60027 0.29114 0.0
H913 H 0.74256 0.61385 0.32159 0.0
H914 H 0.79483 0.65094 0.37109 0.0
H915 H 0.8267 0.6377 0.34004 0.0
H916 H 0.98827 0.67358 0.21635 0.0
H917 H 0.01624 0.6659 0.1788 0.0
H918 H 0.99163 0.59252 0.1749 0.0
H919 H 0.96384 0.60033 0.21268 0.0
Sm920 Sm 0.6547 0.614 0.52588 0.0
Sm921 Sm 0.64076 0.66574 0.51647 0.0
C922 C 0.67051 0.57248 0.5449 0.0
C923 C 0.66245 0.55357 0.56391 0.0
C924 C 0.67799 0.54569 0.58447 0.0
C925 C 0.67101 0.52744 0.60233 0.0
C926 C 0.64836 0.5165 0.59988 0.0
C927 C 0.63272 0.52461 0.57937 0.0
C928 C 0.63966 0.543 0.56162 0.0
C929 C 0.6112 0.6194 0.50037 0.0
C930 C 0.62807 0.64352 0.57614 0.0
C931 C 0.62296 0.70538 0.49406 0.0
C932 C 0.62851 0.72161 0.47104 0.0
C933 C 0.61028 0.73574 0.45964 0.0
C934 C 0.61534 0.75177 0.43834 0.0
C935 C 0.6388 0.75406 0.4281 0.0
C936 C 0.65689 0.73931 0.43911 0.0
C937 C 0.65178 0.72321 0.46029 0.0
C938 C 0.68642 0.66073 0.5377 0.0
C939 C 0.67079 0.63561 0.46851 0.0
O940 O 0.67647 0.59314 0.55564 0.0
O941 O 0.65868 0.57466 0.52202 0.0
O942 O 0.61855 0.6322 0.51998 0.0
O943 O 0.62607 0.60216 0.49526 0.0
O944 O 0.64101 0.62505 0.56814 0.0
O945 O 0.62315 0.66153 0.5594 0.0
O946 O 0.61582 0.68379 0.48762 0.0
O947 O 0.63781 0.70549 0.5147 0.0
O948 O 0.677 0.64744 0.51989 0.0
O949 O 0.67179 0.67796 0.54418 0.0
O950 O 0.65679 0.65413 0.47428 0.0
O951 O 0.67589 0.61919 0.48685 0.0
H952 H 0.69559 0.55366 0.58671 0.0
H953 H 0.68333 0.52208 0.61824 0.0
H954 H 0.61523 0.51651 0.57674 0.0
H955 H 0.62723 0.54879 0.546 0.0
H956 H 0.59216 0.73465 0.46751 0.0
H957 H 0.60105 0.76296 0.43054 0.0
H958 H 0.67509 0.74037 0.43148 0.0
H959 H 0.66607 0.71222 0.46849 0.0
Sm960 Sm 0.41906 0.3932 0.27045 0.0
Sm961 Sm 0.36494 0.39978 0.26955 0.0
C962 C 0.46331 0.38103 0.25552 0.0
C963 C 0.47864 0.38378 0.23087 0.0
C964 C 0.47904 0.40533 0.21602 0.0
C965 C 0.49467 0.40818 0.19383 0.0
C966 C 0.51014 0.3895 0.18574 0.0
C967 C 0.50894 0.36758 0.19988 0.0
C968 C 0.49341 0.3648 0.22227 0.0
C969 C 0.40391 0.43741 0.28906 0.0
C970 C 0.39213 0.41677 0.21561 0.0
C971 C 0.31927 0.40962 0.27967 0.0
C972 C 0.30247 0.40929 0.30287 0.0
C973 C 0.31041 0.41327 0.32964 0.0
C974 C 0.29421 0.41244 0.35143 0.0
C975 C 0.26975 0.40765 0.34685 0.0
C976 C 0.26195 0.40359 0.31997 0.0
C977 C 0.27818 0.4044 0.29821 0.0
C978 C 0.38025 0.35899 0.24405 0.0
C979 C 0.39147 0.38224 0.32716 0.0
O980 O 0.44497 0.36656 0.25347 0.0
O981 O 0.45826 0.40045 0.26935 0.0
O982 O 0.39553 0.42621 0.26889 0.0
O983 O 0.42148 0.42544 0.29997 0.0
O984 O 0.41169 0.40705 0.2262 0.0
O985 O 0.37195 0.41851 0.22936 0.0
O986 O 0.33628 0.42581 0.28011 0.0
O987 O 0.32671 0.38871 0.27112 0.0
O988 O 0.38869 0.36675 0.2664 0.0
O989 O 0.36229 0.37173 0.23577 0.0
O990 O 0.37304 0.3922 0.31467 0.0
O991 O 0.41184 0.37813 0.31401 0.0
H992 H 0.46759 0.42017 0.22183 0.0
H993 H 0.49488 0.4252 0.18318 0.0
H994 H 0.52067 0.3529 0.19433 0.0
H995 H 0.4933 0.34794 0.23325 0.0
H996 H 0.32913 0.41696 0.3337 0.0
H997 H 0.3009 0.41531 0.3719 0.0
H998 H 0.24323 0.40014 0.31569 0.0
H999 H 0.27174 0.40124 0.27768 0.0
Sm1000 Sm 0.37509 0.66704 1.01575 0.0
Sm1001 Sm 0.36805 0.61418 1.02983 0.0
C1002 C 0.39025 0.7073 0.99226 0.0
C1003 C 0.38499 0.72493 0.97032 0.0
C1004 C 0.3898 0.71994 0.94266 0.0
C1005 C 0.38609 0.73748 0.92255 0.0
C1006 C 0.37748 0.76035 0.92965 0.0
C1007 C 0.37291 0.76529 0.95734 0.0
C1008 C 0.37667 0.74786 0.97736 0.0
C1009 C 0.32982 0.65707 0.03614 0.0
C1010 C 0.34934 0.63112 0.97041 0.0
C1011 C 0.35623 0.57194 0.0504 0.0
C1012 C 0.36552 0.5543 0.06993 0.0
C1013 C 0.34941 0.53913 0.08338 0.0
C1014 C 0.35781 0.52157 0.10123 0.0
C1015 C 0.38254 0.51873 0.10585 0.0
C1016 C 0.39866 0.5343 0.09264 0.0
C1017 C 0.39021 0.55198 0.07483 0.0
C1018 C 0.41074 0.62383 1.00414 0.0
C1019 C 0.38759 0.65066 0.07821 0.0
O1020 O 0.39769 0.68593 0.98517 0.0
O1021 O 0.37603 0.70691 1.01352 0.0
O1022 O 0.34201 0.64382 1.02066 0.0
O1023 O 0.34063 0.67755 0.03917 0.0
O1024 O 0.36081 0.6516 0.97461 0.0
O1025 O 0.34674 0.61516 0.99008 0.0
O1026 O 0.34843 0.59223 0.0605 0.0
O1027 O 0.36845 0.57458 1.02782 0.0
O1028 O 0.40138 0.63688 1.02247 0.0
O1029 O 0.39862 0.60423 1.00093 0.0
O1030 O 0.37923 0.62932 0.0716 0.0
O1031 O 0.38971 0.6681 0.06001 0.0
H1032 H 0.39655 0.70254 0.93652 0.0
H1033 H 0.38967 0.73304 0.90142 0.0
H1034 H 0.36668 0.78283 0.96365 0.0
H1035 H 0.3733 0.75246 0.9985 0.0
H1036 H 0.3303 0.54079 0.07996 0.0
H1037 H 0.34485 0.51031 0.11157 0.0
H1038 H 0.4178 0.53257 0.0957 0.0
H1039 H 0.40293 0.56365 0.06468 0.0
Sm1040 Sm 0.10123 0.62393 0.76332 0.0
Sm1041 Sm 0.15381 0.61944 0.77547 0.0
C1042 C 0.05888 0.63499 0.7417 0.0
C1043 C 0.04512 0.63269 0.71607 0.0
C1044 C 0.02779 0.65002 0.70964 0.0
C1045 C 0.01323 0.64738 0.68657 0.0
C1046 C 0.01564 0.62725 0.66949 0.0
C1047 C 0.03372 0.61038 0.67545 0.0
C1048 C 0.04834 0.61309 0.69847 0.0
C1049 C 0.11407 0.57991 0.78495 0.0
C1050 C 0.13703 0.60069 0.71645 0.0
C1051 C 0.19694 0.60931 0.79493 0.0
C1052 C 0.21465 0.61702 0.81562 0.0
C1053 C 0.21732 0.6038 0.83979 0.0
C1054 C 0.23539 0.60951 0.85837 0.0
C1055 C 0.25137 0.62847 0.85311 0.0
C1056 C 0.24839 0.64207 0.82922 0.0
C1057 C 0.23028 0.63635 0.81061 0.0
C1058 C 0.14296 0.66097 0.74834 0.0
C1059 C 0.11742 0.63751 0.82508 0.0
O1060 O 0.07728 0.64945 0.74143 0.0
O1061 O 0.06291 0.6154 0.75558 0.0
O1062 O 0.12553 0.59156 0.76724 0.0
O1063 O 0.09469 0.59138 0.79174 0.0
O1064 O 0.11642 0.61161 0.7213 0.0
O1065 O 0.1533 0.5982 0.73571 0.0
O1066 O 0.17732 0.59882 0.80355 0.0
O1067 O 0.19328 0.62351 0.77413 0.0
O1068 O 0.1302 0.65225 0.76747 0.0
O1069 O 0.16244 0.64874 0.74492 0.0
O1070 O 0.13918 0.63087 0.81768 0.0
O1071 O 0.09942 0.63798 0.80759 0.0
H1072 H 0.02506 0.66532 0.72292 0.0
H1073 H 0.99938 0.66057 0.68278 0.0
H1074 H 0.03626 0.59481 0.66255 0.0
H1075 H 0.06179 0.59963 0.70283 0.0
H1076 H 0.2057 0.5887 0.84415 0.0
H1077 H 0.23694 0.59894 0.87681 0.0
H1078 H 0.26052 0.65665 0.82448 0.0
H1079 H 0.2289 0.64677 0.79204 0.0
Sm1080 Sm 0.14286 0.35334 0.50998 0.0
Sm1081 Sm 0.15293 0.40627 0.52227 0.0
C1082 C 0.12649 0.31329 0.48711 0.0
C1083 C 0.13172 0.29524 0.46557 0.0
C1084 C 0.12843 0.30028 0.43766 0.0
C1085 C 0.13218 0.28245 0.41786 0.0
C1086 C 0.13937 0.25923 0.42552 0.0
C1087 C 0.14247 0.25426 0.45345 0.0
C1088 C 0.13863 0.27197 0.47317 0.0
C1089 C 0.18786 0.36142 0.53174 0.0
C1090 C 0.17229 0.38645 0.46437 0.0
C1091 C 0.16611 0.44844 0.54207 0.0
C1092 C 0.15812 0.46678 0.56182 0.0
C1093 C 0.17324 0.47293 0.58353 0.0
C1094 C 0.16668 0.49088 0.60192 0.0
C1095 C 0.14489 0.50329 0.59888 0.0
C1096 C 0.12957 0.49689 0.57732 0.0
C1097 C 0.1361 0.4788 0.55895 0.0
C1098 C 0.11015 0.39795 0.49618 0.0
C1099 C 0.13032 0.37219 0.57144 0.0
O1100 O 0.11997 0.3348 0.47948 0.0
O1101 O 0.14024 0.3135 0.50873 0.0
O1102 O 0.177 0.3747 0.51516 0.0
O1103 O 0.17599 0.34157 0.53506 0.0
O1104 O 0.15831 0.36755 0.46858 0.0
O1105 O 0.17602 0.4023 0.48394 0.0
O1106 O 0.17355 0.42802 0.55213 0.0
O1107 O 0.15366 0.44594 0.51965 0.0
O1108 O 0.11851 0.38523 0.51532 0.0
O1109 O 0.12355 0.41655 0.49189 0.0
O1110 O 0.14113 0.3923 0.56434 0.0
O1111 O 0.12641 0.3548 0.55355 0.0
H1112 H 0.12284 0.31794 0.43106 0.0
H1113 H 0.12977 0.28693 0.39655 0.0
H1114 H 0.14759 0.23648 0.46016 0.0
H1115 H 0.14086 0.26737 0.49448 0.0
H1116 H 0.19028 0.46391 0.58619 0.0
H1117 H 0.17869 0.49496 0.61862 0.0
H1118 H 0.11274 0.50618 0.57429 0.0
H1119 H 0.12404 0.47445 0.54239 0.0
Sm1120 Sm 0.416 0.6245 0.30071 0.0
Sm1121 Sm 0.36379 0.61717 0.28794 0.0
C1122 C 0.45698 0.6383 0.32356 0.0
C1123 C 0.47248 0.63377 0.34743 0.0
C1124 C 0.47431 0.6109 0.3592 0.0
C1125 C 0.49065 0.6067 0.38036 0.0
C1126 C 0.5054 0.62528 0.39025 0.0
C1127 C 0.50275 0.64837 0.3791 0.0
C1128 C 0.48649 0.65253 0.35788 0.0
C1129 C 0.40623 0.58023 0.27739 0.0
C1130 C 0.38191 0.59543 0.34519 0.0
C1131 C 0.32085 0.60642 0.26836 0.0
C1132 C 0.30288 0.61455 0.24822 0.0
C1133 C 0.29876 0.60072 0.22478 0.0
C1134 C 0.28069 0.607 0.20647 0.0
C1135 C 0.26611 0.62714 0.2113 0.0
C1136 C 0.27052 0.64128 0.2345 0.0
C1137 C 0.28869 0.63502 0.25283 0.0
C1138 C 0.373 0.65853 0.31661 0.0
C1139 C 0.39938 0.63761 0.23908 0.0
O1140 O 0.43651 0.64896 0.32808 0.0
O1141 O 0.45548 0.62137 0.30519 0.0
O1142 O 0.39376 0.5909 0.29498 0.0
O1143 O 0.42539 0.59266 0.27212 0.0
O1144 O 0.40115 0.60909 0.34189 0.0
O1145 O 0.36642 0.59267 0.32512 0.0
O1146 O 0.34073 0.59712 0.25889 0.0
O1147 O 0.32417 0.61966 0.29004 0.0
O1148 O 0.38562 0.65099 0.2968 0.0
O1149 O 0.35446 0.64499 0.32034 0.0
O1150 O 0.37851 0.62821 0.24577 0.0
O1151 O 0.41668 0.64049 0.25719 0.0
H1152 H 0.46349 0.59619 0.35167 0.0
H1153 H 0.49197 0.58878 0.38873 0.0
H1154 H 0.51394 0.66303 0.38601 0.0
H1155 H 0.48531 0.67033 0.34911 0.0
H1156 H 0.30931 0.5848 0.22077 0.0
H1157 H 0.27809 0.59597 0.18853 0.0
H1158 H 0.25952 0.65681 0.23889 0.0
H1159 H 0.29128 0.64599 0.27081 0.0
Sm1160 Sm 0.14086 0.66683 0.04855 0.0
Sm1161 Sm 0.15241 0.61581 0.03354 0.0
C1162 C 0.12323 0.70542 0.07341 0.0
C1163 C 0.1283 0.72092 0.09708 0.0
C1164 C 0.15072 0.72052 0.10998 0.0
C1165 C 0.15564 0.73638 0.13142 0.0
C1166 C 0.13821 0.7529 0.14042 0.0
C1167 C 0.11548 0.75257 0.12805 0.0
C1168 C 0.11062 0.73676 0.10654 0.0
C1169 C 0.18674 0.66201 1.0278 0.0
C1170 C 0.16924 0.63228 0.09331 0.0
C1171 C 0.16707 0.57487 1.01174 0.0
C1172 C 0.15912 0.55705 0.99151 0.0
C1173 C 0.17609 0.54642 0.97426 0.0
C1174 C 0.1692 0.52874 0.95566 0.0
C1175 C 0.14515 0.52121 0.95408 0.0
C1176 C 0.1281 0.5322 0.97116 0.0
C1177 C 0.135 0.55001 0.98966 0.0
C1178 C 0.10862 0.6213 0.05889 0.0
C1179 C 0.1304 0.65125 0.98572 0.0
O1180 O 0.11615 0.68357 0.07873 0.0
O1181 O 0.13838 0.7064 0.05306 0.0
O1182 O 0.17647 0.64733 0.04357 0.0
O1183 O 0.17289 0.68032 1.02331 0.0
O1184 O 0.15621 0.65184 0.08947 0.0
O1185 O 0.17342 0.61711 0.07327 0.0
O1186 O 0.17366 0.59586 1.00242 0.0
O1187 O 0.15468 0.57621 0.03434 0.0
O1188 O 0.11697 0.6351 0.04072 0.0
O1189 O 0.12262 0.60307 0.06245 0.0
O1190 O 0.14125 0.63097 0.99176 0.0
O1191 O 0.12588 0.66771 1.00448 0.0
H1192 H 0.16453 0.70823 0.10317 0.0
H1193 H 0.17322 0.73593 0.14073 0.0
H1194 H 0.10175 0.76516 0.13426 0.0
H1195 H 0.09316 0.73725 0.0969 0.0
H1196 H 0.19476 0.55171 0.97528 0.0
H1197 H 0.18273 0.52108 0.94242 0.0
H1198 H 0.10948 0.52674 0.97063 0.0
H1199 H 0.12154 0.55805 1.00272 0.0
Sm1200 Sm 0.10099 0.39535 0.79397 0.0
Sm1201 Sm 0.15478 0.39599 0.78618 0.0
C1202 C 0.05705 0.38685 0.81267 0.0
C1203 C 0.04373 0.38719 0.8389 0.0
C1204 C 0.0268 0.36921 0.84463 0.0
C1205 C 0.01196 0.37086 0.86773 0.0
C1206 C 0.01363 0.39067 0.88537 0.0
C1207 C 0.03146 0.40798 0.88033 0.0
C1208 C 0.04641 0.40622 0.85745 0.0
C1209 C 0.11761 0.43736 0.77073 0.0
C1210 C 0.13387 0.4174 0.84371 0.0
C1211 C 0.2015 0.40331 0.78008 0.0
C1212 C 0.22109 0.3949 0.76237 0.0
C1213 C 0.24377 0.40549 0.76452 0.0
C1214 C 0.26208 0.3992 0.74636 0.0
C1215 C 0.25802 0.38219 0.72566 0.0
C1216 C 0.23541 0.37104 0.72414 0.0
C1217 C 0.21707 0.37741 0.74231 0.0
C1218 C 0.13596 0.35157 0.80021 0.0
C1219 C 0.12178 0.38465 0.73336 0.0
O1220 O 0.07295 0.36987 0.80903 0.0
O1221 O 0.06406 0.40757 0.80302 0.0
O1222 O 0.12748 0.42589 0.78985 0.0
O1223 O 0.09813 0.42644 0.76306 0.0
O1224 O 0.11199 0.41272 0.83487 0.0
O1225 O 0.15311 0.41256 0.829 0.0
O1226 O 0.18507 0.41634 0.76817 0.0
O1227 O 0.19255 0.38779 0.79732 0.0
O1228 O 0.13026 0.3716 0.80997 0.0
O1229 O 0.15211 0.35458 0.78141 0.0
O1230 O 0.14139 0.39533 0.74206 0.0
O1231 O 0.10458 0.37834 0.75063 0.0
H1232 H 0.02443 0.35433 0.83068 0.0
H1233 H 0.99831 0.35733 0.87094 0.0
H1234 H 0.03334 0.42335 0.89369 0.0
H1235 H 0.05949 0.42022 0.85379 0.0
H1236 H 0.24718 0.41902 0.77989 0.0
H1237 H 0.27934 0.40791 0.74829 0.0
H1238 H 0.2316 0.35809 0.70827 0.0
H1239 H 0.19959 0.36913 0.74028 0.0
Sm1240 Sm 0.37681 0.35062 0.55187 0.0
Sm1241 Sm 0.36221 0.40156 0.53981 0.0
C1242 C 0.39525 0.31138 0.57433 0.0
C1243 C 0.38976 0.29327 0.59569 0.0
C1244 C 0.39131 0.29874 0.6237 0.0
C1245 C 0.38677 0.2811 0.64346 0.0
C1246 C 0.38051 0.25764 0.63567 0.0
C1247 C 0.37915 0.25222 0.60768 0.0
C1248 C 0.3838 0.26976 0.58798 0.0
C1249 C 0.3307 0.35424 0.53187 0.0
C1250 C 0.34764 0.38248 0.59922 0.0
C1251 C 0.34621 0.44302 0.52067 0.0
C1252 C 0.35067 0.45949 0.49779 0.0
C1253 C 0.35587 0.45093 0.47151 0.0
C1254 C 0.35974 0.46704 0.45009 0.0
C1255 C 0.35867 0.49194 0.45465 0.0
C1256 C 0.35394 0.50038 0.48112 0.0
C1257 C 0.34992 0.48428 0.50247 0.0
C1258 C 0.40635 0.39704 0.5644 0.0
C1259 C 0.38598 0.36953 0.4903 0.0
O1260 O 0.4006 0.33315 0.58226 0.0
O1261 O 0.3821 0.31106 0.55224 0.0
O1262 O 0.34033 0.36843 0.5486 0.0
O1263 O 0.34522 0.33677 0.52606 0.0
O1264 O 0.36146 0.36367 0.59395 0.0
O1265 O 0.34245 0.39832 0.58022 0.0
O1266 O 0.33622 0.42236 0.51504 0.0
O1267 O 0.36329 0.44136 0.53872 0.0
O1268 O 0.39871 0.38387 0.5453 0.0
O1269 O 0.39114 0.41386 0.56993 0.0
O1270 O 0.37128 0.38704 0.49709 0.0
O1271 O 0.3943 0.35448 0.50891 0.0
H1272 H 0.39603 0.31662 0.63041 0.0
H1273 H 0.38782 0.28591 0.66483 0.0
H1274 H 0.37476 0.23425 0.60093 0.0
H1275 H 0.38284 0.26488 0.56662 0.0
H1276 H 0.35683 0.43185 0.4675 0.0
H1277 H 0.3636 0.46002 0.42995 0.0
H1278 H 0.35275 0.51944 0.48519 0.0
H1279 H 0.34603 0.49119 0.52266 0.0
H1280 H 0.27189 0.15009 0.19034 0.0
H1281 H 0.27738 0.07291 0.18824 0.0
H1282 H 0.30965 0.07555 0.15488 0.0
H1283 H 0.33464 0.09935 0.12449 0.0
H1284 H 0.32888 0.17656 0.1248 0.0
H1285 H 0.29869 0.17432 0.16094 0.0
C1286 C 0.28016 0.13389 0.18252 0.0
C1287 C 0.27223 0.11134 0.1918 0.0
C1288 C 0.29873 0.13551 0.16313 0.0
C1289 C 0.28331 0.0905 0.18171 0.0
C1290 C 0.30172 0.09197 0.16254 0.0
C1291 C 0.32705 0.11577 0.13262 0.0
C1292 C 0.33398 0.13807 0.12177 0.0
C1293 C 0.30941 0.11434 0.15294 0.0
C1294 C 0.32396 0.15912 0.13276 0.0
C1295 C 0.30653 0.15785 0.15331 0.0
H1296 H 0.1713 0.07191 0.35978 0.0
H1297 H 0.09976 0.09153 0.38479 0.0
H1298 H 0.10293 0.06476 0.42429 0.0
H1299 H 0.1255 0.03396 0.45021 0.0
H1300 H 0.19673 0.01459 0.42375 0.0
H1301 H 0.19413 0.04305 0.38619 0.0
C1302 C 0.15639 0.0705 0.37392 0.0
C1303 C 0.13526 0.08356 0.36923 0.0
C1304 C 0.15823 0.05495 0.39621 0.0
C1305 C 0.11626 0.0817 0.38796 0.0
C1306 C 0.11801 0.06627 0.41044 0.0
C1307 C 0.14039 0.03601 0.43616 0.0
C1308 C 0.16128 0.0222 0.43974 0.0
C1309 C 0.13878 0.05247 0.41449 0.0
C1310 C 0.18057 0.02518 0.4216 0.0
C1311 C 0.17907 0.04138 0.40006 0.0
H1312 H 0.24222 0.87317 0.69815 0.0
H1313 H 0.25384 0.94811 0.68049 0.0
H1314 H 0.22444 0.9464 0.64394 0.0
H1315 H 0.19661 0.92376 0.61617 0.0
H1316 H 0.18466 0.84857 0.63191 0.0
H1317 H 0.21268 0.85032 0.67042 0.0
C1318 C 0.23829 0.88905 0.68621 0.0
C1319 C 0.25012 0.91077 0.69208 0.0
C1320 C 0.22123 0.88796 0.66508 0.0
C1321 C 0.24477 0.93128 0.67662 0.0
C1322 C 0.22801 0.93031 0.65566 0.0
C1323 C 0.19996 0.9077 0.62805 0.0
C1324 C 0.18866 0.88603 0.62106 0.0
C1325 C 0.21624 0.90877 0.64967 0.0
C1326 C 0.19306 0.86552 0.63693 0.0
C1327 C 0.20922 0.86648 0.6588 0.0
H1328 H 0.35325 0.95679 0.86293 0.0
H1329 H 0.41548 0.9202 0.89447 0.0
H1330 H 0.41406 0.94517 0.93562 0.0
H1331 H 0.39612 0.97909 0.96154 0.0
H1332 H 0.33499 0.01601 0.92792 0.0
H1333 H 0.33508 0.98924 0.88862 0.0
C1334 C 0.36648 0.95405 0.87881 0.0
C1335 C 0.38448 0.93661 0.87551 0.0
C1336 C 0.36583 0.96871 0.90201 0.0
C1337 C 0.40141 0.93346 0.89643 0.0
C1338 C 0.40064 0.9478 0.91994 0.0
C1339 C 0.38274 0.98105 0.94568 0.0
C1340 C 0.36567 0.9996 0.9475 0.0
C1341 C 0.38309 0.96571 0.92281 0.0
C1342 C 0.34849 1.00208 0.92678 0.0
C1343 C 0.34847 0.98673 0.90436 0.0
H1344 H 0.32382 0.85011 0.44356 0.0
H1345 H 0.35563 0.91963 0.43064 0.0
H1346 H 0.32966 0.92637 0.39131 0.0
H1347 H 0.29497 0.91462 0.36433 0.0
H1348 H 0.26124 0.84606 0.37814 0.0
H1349 H 0.29059 0.83692 0.41371 0.0
C1350 C 0.32544 0.86638 0.43156 0.0
C1351 C 0.34165 0.8843 0.43962 0.0
C1352 C 0.30975 0.87053 0.40963 0.0
C1353 C 0.3433 0.9056 0.42454 0.0
C1354 C 0.32837 0.90951 0.40223 0.0
C1355 C 0.29433 0.89742 0.37463 0.0
C1356 C 0.2759 0.88108 0.3686 0.0
C1357 C 0.31107 0.89242 0.39512 0.0
C1358 C 0.27507 0.85909 0.38264 0.0
C1359 C 0.29192 0.8538 0.40287 0.0
H1360 H 0.39409 0.03875 0.60878 0.0
H1361 H 0.33845 0.99851 0.64955 0.0
H1362 H 0.3399 0.02606 0.68806 0.0
H1363 H 0.35698 0.06074 0.71028 0.0
H1364 H 0.41338 0.10132 0.67132 0.0
H1365 H 0.41125 0.07464 0.63152 0.0
C1366 C 0.38218 0.03617 0.62603 0.0
C1367 C 0.36626 0.01651 0.62637 0.0
C1368 C 0.38313 0.05213 0.64824 0.0
C1369 C 0.3511 0.01324 0.64896 0.0
C1370 C 0.3518 0.02908 0.6709 0.0
C1371 C 0.36881 0.06401 0.6931 0.0
C1372 C 0.38532 0.08309 0.69382 0.0
C1373 C 0.36778 0.04847 0.67077 0.0
C1374 C 0.40047 0.08681 0.67129 0.0
C1375 C 0.39929 0.07151 0.6486 0.0
H1376 H 0.20103 0.09585 0.95634 0.0
H1377 H 0.17545 0.16291 0.92347 0.0
H1378 H 0.20469 0.15999 0.8862 0.0
H1379 H 0.23882 0.1389 0.86416 0.0
H1380 H 0.26448 0.0727 0.89921 0.0
H1381 H 0.23395 0.07493 0.93461 0.0
C1382 C 0.20162 0.10983 0.94097 0.0
C1383 C 0.18605 0.1296 0.94276 0.0
C1384 C 0.21868 0.10827 0.92012 0.0
C1385 C 0.18713 0.14743 0.92253 0.0
C1386 C 0.20397 0.14584 0.90133 0.0
C1387 C 0.23774 0.12506 0.87965 0.0
C1388 C 0.25384 0.10559 0.87896 0.0
C1389 C 0.2201 0.12649 0.90016 0.0
C1390 C 0.25211 0.08767 0.89902 0.0
C1391 C 0.23471 0.08897 0.91934 0.0
H1392 H 0.10535 0.94321 0.19035 0.0
H1393 H 0.18064 0.92587 0.18898 0.0
H1394 H 0.18685 0.95318 0.15067 0.0
H1395 H 0.17169 0.98439 0.12036 0.0
H1396 H 0.09696 1.00397 0.12294 0.0
H1397 H 0.08971 0.97369 0.15824 0.0
C1398 C 0.12296 0.94508 0.18119 0.0
C1399 C 0.14251 0.93247 0.1922 0.0
C1400 C 0.12656 0.96153 0.15979 0.0
C1401 C 0.16537 0.93538 0.18068 0.0
C1402 C 0.16894 0.95106 0.1589 0.0
C1403 C 0.15372 0.98177 0.1283 0.0
C1404 C 0.13488 0.99636 0.11899 0.0
C1405 C 0.14979 0.9646 0.14871 0.0
C1406 C 0.1118 0.99309 0.12994 0.0
C1407 C 0.10764 0.97571 0.15001 0.0
H1408 H 0.74296 0.87523 0.86428 0.0
H1409 H 0.76357 0.94496 0.89445 0.0
H1410 H 0.73463 0.94156 0.93144 0.0
H1411 H 0.70431 0.91892 0.95568 0.0
H1412 H 0.68318 0.84878 0.92729 0.0
H1413 H 0.71126 0.85234 0.88888 0.0
C1414 C 0.74111 0.88958 0.87906 0.0
C1415 C 0.75533 0.91038 0.87653 0.0
C1416 C 0.72429 0.88753 0.90042 0.0
C1417 C 0.75265 0.92894 0.89569 0.0
C1418 C 0.73616 0.92698 0.91691 0.0
C1419 C 0.70567 0.90434 0.9411 0.0
C1420 C 0.69169 0.88355 0.94448 0.0
C1421 C 0.72194 0.9064 0.91947 0.0
C1422 C 0.69367 0.86502 0.92516 0.0
C1423 C 0.70983 0.867 0.90329 0.0
H1424 H 0.90044 0.98137 0.60499 0.0
H1425 H 0.85878 0.03319 0.6501 0.0
H1426 H 0.85847 1.00687 0.68973 0.0
H1427 H 0.86951 0.96934 0.71153 0.0
H1428 H 0.91247 0.91742 0.66829 0.0
H1429 H 0.91268 0.94349 0.62788 0.0
C1430 C 0.89128 0.9868 0.62351 0.0
C1431 C 0.87972 1.00927 0.62459 0.0
C1432 C 0.89128 0.97154 0.64645 0.0
C1433 C 0.86808 0.01618 0.64881 0.0
C1434 C 0.86775 1.00106 0.67144 0.0
C1435 C 0.87878 0.96353 0.69322 0.0
C1436 C 0.89066 0.94127 0.69279 0.0
C1437 C 0.8792 0.97872 0.67046 0.0
C1438 C 0.90305 0.93439 0.66907 0.0
C1439 C 0.90318 0.9493 0.646 0.0
H1440 H 0.78548 0.1021 0.37173 0.0
H1441 H 0.75547 0.17315 0.37848 0.0
H1442 H 0.78486 0.18325 0.41365 0.0
H1443 H 0.81774 0.17109 0.44402 0.0
H1444 H 0.84673 0.09952 0.43782 0.0
H1445 H 0.81947 0.09065 0.40028 0.0
C1446 C 0.78561 0.11994 0.38055 0.0
C1447 C 0.76832 0.13684 0.3725 0.0
C1448 C 0.80244 0.12555 0.40075 0.0
C1449 C 0.76843 0.15972 0.38454 0.0
C1450 C 0.7853 0.16555 0.40453 0.0
C1451 C 0.81839 0.1537 0.43412 0.0
C1452 C 0.83424 0.13598 0.44366 0.0
C1453 C 0.80223 0.14851 0.41299 0.0
C1454 C 0.83464 0.11343 0.43089 0.0
C1455 C 0.81902 0.10832 0.40948 0.0
H1456 H 0.67686 0.03242 0.12312 0.0
H1457 H 0.60298 1.00961 0.12126 0.0
H1458 H 0.59246 0.04081 0.15422 0.0
H1459 H 0.60512 0.07193 0.18715 0.0
H1460 H 0.67969 0.09176 0.19152 0.0
H1461 H 0.6891 0.06447 0.15402 0.0
C1462 C 0.65845 0.03418 0.12998 0.0
C1463 C 0.64082 0.01847 0.11996 0.0
C1464 C 0.65266 0.0517 0.14941 0.0
C1465 C 0.61693 0.02149 0.12853 0.0
C1466 C 0.61091 0.03926 0.14751 0.0
C1467 C 0.62328 0.07064 0.17936 0.0
C1468 C 0.64171 0.08384 0.19183 0.0
C1469 C 0.62872 0.05416 0.1585 0.0
C1470 C 0.66527 0.08175 0.18207 0.0
C1471 C 0.67066 0.06608 0.16077 0.0
H1472 H 0.73388 0.14119 0.69768 0.0
H1473 H 0.76021 0.07443 0.66463 0.0
H1474 H 0.73086 0.07646 0.62798 0.0
H1475 H 0.69896 0.09754 0.60455 0.0
H1476 H 0.67275 0.16503 0.63581 0.0
H1477 H 0.70065 0.16219 0.67424 0.0
C1478 C 0.73319 0.12718 0.68236 0.0
C1479 C 0.74915 0.10766 0.68388 0.0
C1480 C 0.71626 0.12849 0.6612 0.0
C1481 C 0.74793 0.08947 0.6641 0.0
C1482 C 0.73122 0.09065 0.64309 0.0
C1483 C 0.69914 0.11162 0.61982 0.0
C1484 C 0.68383 0.13151 0.61723 0.0
C1485 C 0.71541 0.11009 0.64141 0.0
C1486 C 0.6843 0.14947 0.63734 0.0
C1487 C 0.70035 0.14793 0.65922 0.0
H1488 H 0.66579 0.97659 0.4495 0.0
H1489 H 0.60145 0.0148 0.42736 0.0
H1490 H 0.59135 0.98344 0.39452 0.0
H1491 H 0.60335 0.94756 0.36818 0.0
H1492 H 0.66965 0.91195 0.38749 0.0
H1493 H 0.67643 0.93967 0.42541 0.0
C1494 C 0.64955 0.9781 0.43749 0.0
C1495 C 0.63459 0.99822 0.4407 0.0
C1496 C 0.64419 0.96034 0.41816 0.0
C1497 C 0.61329 0.99951 0.42544 0.0
C1498 C 0.60755 0.98162 0.40652 0.0
C1499 C 0.61883 0.9455 0.38134 0.0
C1500 C 0.6358 0.92761 0.37558 0.0
C1501 C 0.62314 0.96223 0.40226 0.0
C1502 C 0.65624 0.92544 0.392 0.0
C1503 C 0.6602 0.9414 0.41345 0.0
H1504 H 0.82943 0.92577 0.12009 0.0
H1505 H 0.84066 0.8503 0.13473 0.0
H1506 H 0.81203 0.85167 0.1727 0.0
H1507 H 0.78182 0.87404 0.1998 0.0
H1508 H 0.77029 0.94915 0.18299 0.0
H1509 H 0.80098 0.9481 0.14767 0.0
C1510 C 0.82583 0.90959 0.13167 0.0
C1511 C 0.83707 0.88793 0.12442 0.0
C1512 C 0.80908 0.91041 0.15293 0.0
C1513 C 0.83232 0.86724 0.1399 0.0
C1514 C 0.8158 0.86798 0.16147 0.0
C1515 C 0.78601 0.89013 0.18831 0.0
C1516 C 0.77376 0.91166 0.19405 0.0
C1517 C 0.80369 0.88938 0.1678 0.0
C1518 C 0.77961 0.93243 0.17924 0.0
C1519 C 0.7971 0.93184 0.15896 0.0
H1520 H 0.84766 0.06718 0.85724 0.0
H1521 H 0.91038 0.10184 0.89051 0.0
H1522 H 0.90886 0.0751 0.93014 0.0
H1523 H 0.89089 0.04031 0.95385 0.0
H1524 H 0.82908 1.00538 0.91891 0.0
H1525 H 0.82939 0.03367 0.88098 0.0
C1526 C 0.86098 0.06913 0.87319 0.0
C1527 C 0.87916 0.0865 0.87084 0.0
C1528 C 0.86033 0.05341 0.8954 0.0
C1529 C 0.89616 0.08866 0.89181 0.0
C1530 C 0.89537 0.07329 0.91439 0.0
C1531 C 0.87738 0.03907 0.93803 0.0
C1532 C 0.86005 0.02071 0.93908 0.0
C1533 C 0.87773 0.05536 0.91618 0.0
C1534 C 0.8428 0.01912 0.91833 0.0
C1535 C 0.84287 0.03538 0.89675 0.0
H1536 H 0.78517 0.59278 0.68995 0.0
H1537 H 0.75835 0.66528 0.68619 0.0
H1538 H 0.79034 0.67607 0.65439 0.0
H1539 H 0.82334 0.66373 0.62377 0.0
H1540 H 0.84724 0.59026 0.62458 0.0
H1541 H 0.81915 0.58102 0.66143 0.0
C1542 C 0.78624 0.61094 0.68214 0.0
C1543 C 0.76916 0.62808 0.69026 0.0
C1544 C 0.80426 0.61686 0.66332 0.0
C1545 C 0.77128 0.65171 0.68044 0.0
C1546 C 0.78951 0.65788 0.66211 0.0
C1547 C 0.82279 0.64591 0.63262 0.0
C1548 C 0.83742 0.62771 0.62183 0.0
C1549 C 0.80582 0.64048 0.65297 0.0
C1550 C 0.83621 0.60452 0.63284 0.0
C1551 C 0.82006 0.59921 0.65372 0.0
H1552 H 0.60097 0.57658 0.87482 0.0
H1553 H 0.67675 0.5903 0.86769 0.0
H1554 H 0.68479 0.56331 0.90582 0.0
H1555 H 0.67077 0.53327 0.93828 0.0
H1556 H 0.59536 0.51716 0.94427 0.0
H1557 H 0.58663 0.54727 0.90924 0.0
C1558 C 0.61913 0.574 0.88213 0.0
C1559 C 0.63827 0.5855 0.8688 0.0
C1560 C 0.6237 0.55769 0.90343 0.0
C1561 C 0.6618 0.58168 0.87786 0.0
C1562 C 0.6664 0.56617 0.89952 0.0
C1563 C 0.65237 0.53662 0.93228 0.0
C1564 C 0.63375 0.52304 0.94391 0.0
C1565 C 0.64757 0.55368 0.91202 0.0
C1566 C 0.61005 0.52724 0.93544 0.0
C1567 C 0.60504 0.54453 0.91553 0.0
H1568 H 0.70288 0.42197 0.1041 0.0
H1569 H 0.67835 0.35421 0.13629 0.0
H1570 H 0.70717 0.3576 0.17388 0.0
H1571 H 0.74008 0.37977 0.19693 0.0
H1572 H 0.76446 0.44683 0.16268 0.0
H1573 H 0.73494 0.44361 0.12638 0.0
C1574 C 0.70364 0.40789 0.11934 0.0
C1575 C 0.68841 0.38786 0.11734 0.0
C1576 C 0.72036 0.4098 0.14045 0.0
C1577 C 0.68976 0.36989 0.13738 0.0
C1578 C 0.70633 0.37177 0.15879 0.0
C1579 C 0.73897 0.39357 0.1814 0.0
C1580 C 0.75436 0.41361 0.18263 0.0
C1581 C 0.72189 0.39158 0.16039 0.0
C1582 C 0.75261 0.43144 0.16249 0.0
C1583 C 0.73579 0.42958 0.14165 0.0
H1584 H 0.84914 0.48102 0.44535 0.0
H1585 H 0.92236 0.5057 0.4421 0.0
H1586 H 0.93161 0.47544 0.40744 0.0
H1587 H 0.91766 0.44448 0.37491 0.0
H1588 H 0.84373 0.42216 0.37687 0.0
H1589 H 0.83613 0.44832 0.41592 0.0
C1590 C 0.86728 0.47945 0.43756 0.0
C1591 C 0.88501 0.49563 0.44625 0.0
C1592 C 0.87234 0.46229 0.41749 0.0
C1593 C 0.9083 0.49365 0.43548 0.0
C1594 C 0.91363 0.47628 0.41577 0.0
C1595 C 0.90013 0.4449 0.38451 0.0
C1596 C 0.88129 0.43136 0.37342 0.0
C1597 C 0.89565 0.46081 0.40621 0.0
C1598 C 0.85846 0.43238 0.38538 0.0
C1599 C 0.85409 0.44744 0.40751 0.0
H1600 H 0.79041 0.4186 0.86541 0.0
H1601 H 0.75457 0.35143 0.88123 0.0
H1602 H 0.78512 0.34098 0.91486 0.0
H1603 H 0.81961 0.35293 0.94326 0.0
H1604 H 0.85247 0.42196 0.93049 0.0
H1605 H 0.82564 0.42971 0.89208 0.0
C1606 C 0.78922 0.40169 0.87625 0.0
C1607 C 0.77006 0.38597 0.87101 0.0
C1608 C 0.80641 0.39612 0.89606 0.0
C1609 C 0.76918 0.36383 0.88474 0.0
C1610 C 0.78657 0.35789 0.9041 0.0
C1611 C 0.82123 0.36934 0.9315 0.0
C1612 C 0.83803 0.38679 0.93926 0.0
C1613 C 0.805 0.37411 0.91031 0.0
C1614 C 0.83971 0.40828 0.92455 0.0
C1615 C 0.8243 0.41275 0.90278 0.0
H1616 H 0.8483 0.56764 0.20752 0.0
H1617 H 0.91644 0.59314 0.17738 0.0
H1618 H 0.9145 0.56432 0.13975 0.0
H1619 H 0.89381 0.53093 0.11622 0.0
H1620 H 0.82615 0.50546 0.14768 0.0
H1621 H 0.82764 0.5352 0.18409 0.0
C1622 C 0.86272 0.56708 0.19268 0.0
C1623 C 0.88251 0.58256 0.19535 0.0
C1624 C 0.86164 0.55032 0.17141 0.0
C1625 C 0.90095 0.58152 0.17581 0.0
C1626 C 0.89991 0.56494 0.15436 0.0
C1627 C 0.8795 0.53183 0.13117 0.0
C1628 C 0.85988 0.51601 0.12922 0.0
C1629 C 0.88046 0.54905 0.15214 0.0
C1630 C 0.84131 0.51758 0.14854 0.0
C1631 C 0.84217 0.53454 0.16941 0.0
H1632 H 0.73173 0.60371 0.36808 0.0
H1633 H 0.75813 0.67613 0.37517 0.0
H1634 H 0.72841 0.68447 0.4108 0.0
H1635 H 0.69696 0.66988 0.44257 0.0
H1636 H 0.67297 0.59662 0.43653 0.0
H1637 H 0.69911 0.59007 0.39723 0.0
C1638 C 0.73069 0.62149 0.37698 0.0
C1639 C 0.7471 0.63927 0.36896 0.0
C1640 C 0.71385 0.62601 0.39757 0.0
C1641 C 0.74583 0.66206 0.38118 0.0
C1642 C 0.72878 0.66686 0.40145 0.0
C1643 C 0.6971 0.65274 0.43209 0.0
C1644 C 0.68301 0.63378 0.44206 0.0
C1645 C 0.71295 0.64883 0.41016 0.0
C1646 C 0.68363 0.61144 0.42894 0.0
C1647 C 0.69865 0.60766 0.40664 0.0
H1648 H 0.60531 0.44552 0.68809 0.0
H1649 H 0.67826 0.4202 0.68701 0.0
H1650 H 0.68762 0.447 0.649 0.0
H1651 H 0.67613 0.48017 0.6192 0.0
H1652 H 0.60425 0.50856 0.62318 0.0
H1653 H 0.59328 0.47788 0.65648 0.0
C1654 C 0.62304 0.44549 0.67896 0.0
C1655 C 0.64105 0.43082 0.68998 0.0
C1656 C 0.62855 0.46174 0.6579 0.0
C1657 C 0.66413 0.43128 0.6786 0.0
C1658 C 0.66951 0.44669 0.65704 0.0
C1659 C 0.65807 0.47976 0.62741 0.0
C1660 C 0.64116 0.49687 0.61883 0.0
C1661 C 0.65207 0.46251 0.6471 0.0
C1662 C 0.61765 0.49557 0.62922 0.0
C1663 C 0.61137 0.47809 0.64842 0.0
H1664 H 0.20651 0.41948 0.45283 0.0
H1665 H 0.17155 0.35697 0.41941 0.0
H1666 H 0.19831 0.35827 0.3798 0.0
H1667 H 0.23285 0.37624 0.35571 0.0
H1668 H 0.2676 0.43849 0.39 0.0
H1669 H 0.23988 0.4379 0.42847 0.0
C1670 C 0.20453 0.40619 0.43684 0.0
C1671 C 0.18699 0.38813 0.43917 0.0
C1672 C 0.22015 0.40683 0.41441 0.0
C1673 C 0.18485 0.37108 0.41818 0.0
C1674 C 0.20021 0.37177 0.39556 0.0
C1675 C 0.23419 0.38982 0.37146 0.0
C1676 C 0.25242 0.40731 0.36998 0.0
C1677 C 0.2181 0.38943 0.3936 0.0
C1678 C 0.25405 0.42459 0.39079 0.0
C1679 C 0.23809 0.42438 0.41273 0.0
H1680 H 0.42061 0.45394 0.20198 0.0
H1681 H 0.36461 0.40801 0.17162 0.0
H1682 H 0.35883 0.43449 0.13238 0.0
H1683 H 0.36604 0.47311 0.11033 0.0
H1684 H 0.41859 0.52167 0.14374 0.0
H1685 H 0.42968 0.49178 0.17791 0.0
C1686 C 0.40768 0.44949 0.18626 0.0
C1687 C 0.3932 0.42907 0.18925 0.0
C1688 C 0.40357 0.4655 0.16464 0.0
C1689 C 0.37608 0.42357 0.16933 0.0
C1690 C 0.37264 0.4388 0.14711 0.0
C1691 C 0.37993 0.47718 0.12507 0.0
C1692 C 0.3912 0.49974 0.1247 0.0
C1693 C 0.38564 0.46026 0.14517 0.0
C1694 C 0.40965 0.50444 0.14348 0.0
C1695 C 0.41591 0.48739 0.16315 0.0
H1696 H 0.28031 0.59613 0.87788 0.0
H1697 H 0.26765 0.67218 0.87096 0.0
H1698 H 0.29933 0.68005 0.90426 0.0
H1699 H 0.32826 0.66495 0.93834 0.0
H1700 H 0.33873 0.58867 0.94668 0.0
H1701 H 0.31038 0.58125 0.90979 0.0
C1702 C 0.28439 0.61444 0.88373 0.0
C1703 C 0.27141 0.63351 0.87222 0.0
C1704 C 0.3023 0.61878 0.90313 0.0
C1705 C 0.27739 0.65716 0.87949 0.0
C1706 C 0.29544 0.66167 0.89861 0.0
C1707 C 0.32469 0.64677 0.93162 0.0
C1708 C 0.33554 0.62737 0.94514 0.0
C1709 C 0.30777 0.64258 0.9109 0.0
C1710 C 0.33053 0.60387 0.93657 0.0
C1711 C 0.31426 0.5996 0.91558 0.0
H1712 H 0.10434 0.57494 0.68779 0.0
H1713 H 0.17859 0.59635 0.68861 0.0
H1714 H 0.18711 0.56942 0.65049 0.0
H1715 H 0.17428 0.53749 0.61973 0.0
H1716 H 0.10086 0.51319 0.62132 0.0
H1717 H 0.09106 0.54376 0.65532 0.0
C1718 C 0.12222 0.57406 0.67913 0.0
C1719 C 0.14082 0.58764 0.69073 0.0
C1720 C 0.12718 0.55782 0.6579 0.0
C1721 C 0.16404 0.58605 0.67984 0.0
C1722 C 0.16893 0.5706 0.65818 0.0
C1723 C 0.15614 0.53877 0.62758 0.0
C1724 C 0.13842 0.52286 0.61818 0.0
C1725 C 0.15079 0.55594 0.64757 0.0
C1726 C 0.11485 0.52526 0.62807 0.0
C1727 C 0.10926 0.54266 0.64764 0.0
H1728 H 0.19146 0.66584 0.1247 0.0
H1729 H 0.17712 0.59006 0.11841 0.0
H1730 H 0.20449 0.58203 0.15612 0.0
H1731 H 0.23502 0.59601 0.1879 0.0
H1732 H 0.25217 0.67134 0.1923 0.0
H1733 H 0.221 0.68017 0.15869 0.0
C1734 C 0.19398 0.64768 0.1321 0.0
C1735 C 0.18232 0.62854 0.11899 0.0
C1736 C 0.21046 0.6431 0.15318 0.0
C1737 C 0.18596 0.60503 0.1283 0.0
C1738 C 0.20166 0.60042 0.14973 0.0
C1739 C 0.23203 0.61437 0.18145 0.0
C1740 C 0.24615 0.63292 0.19233 0.0
C1741 C 0.21451 0.61922 0.16177 0.0
C1742 C 0.24154 0.6567 0.18429 0.0
C1743 C 0.22379 0.66175 0.16497 0.0
H1744 H 0.10433 0.45196 0.86311 0.0
H1745 H 0.17117 0.41587 0.87922 0.0
H1746 H 0.17974 0.44398 0.91623 0.0
H1747 H 0.16965 0.48042 0.94163 0.0
H1748 H 0.10452 0.5187 0.92277 0.0
H1749 H 0.09373 0.48801 0.88946 0.0
C1750 C 0.12051 0.44998 0.87514 0.0
C1751 C 0.13705 0.43182 0.86864 0.0
C1752 C 0.12575 0.46676 0.89567 0.0
C1753 C 0.15818 0.4297 0.88396 0.0
C1754 C 0.16313 0.44582 0.905 0.0
C1755 C 0.15315 0.48216 0.93015 0.0
C1756 C 0.13802 0.50197 0.93464 0.0
C1757 C 0.14732 0.46475 0.91058 0.0
C1758 C 0.11642 0.50357 0.91997 0.0
C1759 C 0.11029 0.48607 0.90079 0.0
H1760 H 0.32762 0.34754 0.63106 0.0
H1761 H 0.33974 0.42378 0.62623 0.0
H1762 H 0.31447 0.4302 0.66623 0.0
H1763 H 0.28604 0.41475 0.69976 0.0
H1764 H 0.27169 0.33886 0.70386 0.0
H1765 H 0.30041 0.33168 0.6669 0.0
C1766 C 0.3251 0.36545 0.63921 0.0
C1767 C 0.33557 0.38517 0.62586 0.0
C1768 C 0.3098 0.36911 0.66177 0.0
C1769 C 0.33183 0.40835 0.63623 0.0
C1770 C 0.31732 0.41204 0.65901 0.0
C1771 C 0.28951 0.39657 0.69297 0.0
C1772 C 0.27673 0.37739 0.70461 0.0
C1773 C 0.30576 0.39264 0.67154 0.0
C1774 C 0.28112 0.35399 0.69509 0.0
C1775 C 0.29762 0.34986 0.67402 0.0
H1776 H 0.38492 0.53331 0.45319 0.0
H1777 H 0.33818 0.48891 0.40452 0.0
H1778 H 0.34101 0.51735 0.3669 0.0
H1779 H 0.35603 0.55473 0.34813 0.0
H1780 H 0.40394 0.59918 0.39519 0.0
H1781 H 0.40109 0.57091 0.43346 0.0
C1782 C 0.3753 0.52996 0.43437 0.0
C1783 C 0.36134 0.50903 0.43165 0.0
C1784 C 0.37702 0.54644 0.41273 0.0
C1785 C 0.34925 0.50472 0.40702 0.0
C1786 C 0.35071 0.52106 0.38558 0.0
C1787 C 0.36571 0.55847 0.36683 0.0
C1788 C 0.37991 0.57924 0.36898 0.0
C1789 C 0.3644 0.542 0.38829 0.0
C1790 C 0.39275 0.58341 0.39313 0.0
C1791 C 0.39115 0.56723 0.41495 0.0
H1792 H 0.11312 0.24776 0.37975 0.0
H1793 H 0.17671 0.22792 0.42444 0.0
H1794 H 0.18419 0.19526 0.39262 0.0
H1795 H 0.17238 0.17151 0.35319 0.0
H1796 H 0.10936 0.19052 0.30729 0.0
H1797 H 0.10202 0.22439 0.33832 0.0
C1798 C 0.12873 0.23643 0.38233 0.0
C1799 C 0.14418 0.24022 0.40474 0.0
C1800 C 0.13299 0.21748 0.36381 0.0
C1801 C 0.16426 0.22522 0.40779 0.0
C1802 C 0.16864 0.20657 0.38949 0.0
C1803 C 0.15706 0.18311 0.3498 0.0
C1804 C 0.14131 0.17836 0.32808 0.0
C1805 C 0.15303 0.20239 0.36764 0.0
C1806 C 0.12163 0.19364 0.32401 0.0
C1807 C 0.11748 0.21302 0.34174 0.0
H1808 H 0.0984 0.92491 0.60887 0.0
H1809 H 0.08146 0.86232 0.56101 0.0
H1810 H 0.04744 0.85356 0.59134 0.0
H1811 H 0.023 0.8636 0.63231 0.0
H1812 H 0.04052 0.92698 0.67879 0.0
H1813 H 0.0736 0.93568 0.6479 0.0
C1814 C 0.08724 0.90937 0.60492 0.0
C1815 C 0.09265 0.8941 0.5829 0.0
C1816 C 0.06772 0.90466 0.62219 0.0
C1817 C 0.07786 0.87418 0.57801 0.0
C1818 C 0.05839 0.86922 0.59533 0.0
C1819 C 0.03408 0.8793 0.63564 0.0
C1820 C 0.02916 0.89466 0.65787 0.0
C1821 C 0.05325 0.88426 0.61766 0.0
C1822 C 0.0436 0.91504 0.66171 0.0
C1823 C 0.06266 0.91996 0.64413 0.0
H1824 H 0.34395 0.84692 0.85637 0.0
H1825 H 0.40957 0.83104 0.81352 0.0
H1826 H 0.4169 0.79705 0.84441 0.0
H1827 H 0.4051 0.77297 0.88519 0.0
H1828 H 0.33876 0.78973 0.92649 0.0
H1829 H 0.3313 0.82224 0.89456 0.0
C1830 C 0.35985 0.83599 0.85359 0.0
C1831 C 0.37635 0.84169 0.83286 0.0
C1832 C 0.36383 0.81666 0.87129 0.0
C1833 C 0.39672 0.82718 0.8295 0.0
C1834 C 0.40087 0.80775 0.84716 0.0
C1835 C 0.3889 0.78358 0.88698 0.0
C1836 C 0.37267 0.77904 0.90854 0.0
C1837 C 0.38464 0.80246 0.86836 0.0
C1838 C 0.35181 0.79307 0.91055 0.0
C1839 C 0.34744 0.81163 0.89219 0.0
H1840 H 0.4231 0.15989 0.0972 0.0
H1841 H 0.45577 0.10476 0.04792 0.0
H1842 H 0.49052 0.10406 0.07835 0.0
H1843 H 0.51011 0.11686 0.12114 0.0
H1844 H 0.4764 0.17122 0.1708 0.0
H1845 H 0.4439 0.17467 0.13792 0.0
C1846 C 0.43798 0.14795 0.09289 0.0
C1847 C 0.43675 0.13225 0.07044 0.0
C1848 C 0.45772 0.1474 0.11069 0.0
C1849 C 0.45623 0.11698 0.06509 0.0
C1850 C 0.47606 0.11649 0.08258 0.0
C1851 C 0.49568 0.1295 0.12474 0.0
C1852 C 0.49579 0.14369 0.14857 0.0
C1853 C 0.47674 0.13121 0.10583 0.0
C1854 C 0.47707 0.16025 0.15258 0.0
C1855 C 0.45831 0.16213 0.13385 0.0
H1856 H 0.17781 0.83824 0.21184 0.0
H1857 H 0.11075 0.82822 0.25411 0.0
H1858 H 0.10094 0.79456 0.22372 0.0
H1859 H 0.1112 0.76885 0.18385 0.0
H1860 H 0.179 0.77943 0.143 0.0
H1861 H 0.18889 0.81173 0.17443 0.0
C1862 C 0.16106 0.82864 0.21459 0.0
C1863 C 0.14483 0.83599 0.23492 0.0
C1864 C 0.15574 0.80931 0.1973 0.0
C1865 C 0.12338 0.82315 0.23834 0.0
C1866 C 0.11781 0.80389 0.22099 0.0
C1867 C 0.12814 0.77822 0.18189 0.0
C1868 C 0.14435 0.77161 0.16104 0.0
C1869 C 0.13377 0.79698 0.20014 0.0
C1870 C 0.16633 0.78382 0.159 0.0
C1871 C 0.17195 0.80245 0.17687 0.0
H1872 H 0.50166 0.85503 0.43025 0.0
H1873 H 0.48109 0.91504 0.37981 0.0
H1874 H 0.44916 0.92515 0.41158 0.0
H1875 H 0.42637 0.91668 0.45236 0.0
H1876 H 0.44509 0.85706 0.50406 0.0
H1877 H 0.47859 0.84708 0.47323 0.0
C1878 C 0.49025 0.87039 0.42641 0.0
C1879 C 0.4936 0.88411 0.40246 0.0
C1880 C 0.47162 0.87612 0.44489 0.0
C1881 C 0.47866 0.90394 0.39774 0.0
C1882 C 0.46045 0.90982 0.41598 0.0
C1883 C 0.43777 0.9015 0.45711 0.0
C1884 C 0.43314 0.88754 0.48043 0.0
C1885 C 0.45664 0.89593 0.43938 0.0
C1886 C 0.44821 0.86802 0.48618 0.0
C1887 C 0.46733 0.86235 0.46853 0.0
H1888 H 0.40466 0.24753 0.68309 0.0
H1889 H 0.34381 0.22544 0.63498 0.0
H1890 H 0.33531 0.19332 0.66728 0.0
H1891 H 0.34562 0.17069 0.70831 0.0
H1892 H 0.40633 0.19194 0.75692 0.0
H1893 H 0.41428 0.22532 0.72555 0.0
C1894 C 0.3894 0.23584 0.67985 0.0
C1895 C 0.37502 0.23884 0.65644 0.0
C1896 C 0.38461 0.21722 0.69858 0.0
C1897 C 0.35543 0.22335 0.65249 0.0
C1898 C 0.35046 0.20502 0.67105 0.0
C1899 C 0.36052 0.18271 0.71218 0.0
C1900 C 0.37542 0.1788 0.73487 0.0
C1901 C 0.36503 0.20165 0.694 0.0
C1902 C 0.39463 0.19454 0.73956 0.0
C1903 C 0.39919 0.2136 0.7216 0.0
H1904 H 0.0903 0.09798 0.95751 0.0
H1905 H 0.07987 0.16546 0.99873 0.0
H1906 H 0.04608 0.17465 0.96838 0.0
H1907 H 0.0199 0.16341 0.92934 0.0
H1908 H 0.03097 0.09525 0.88946 0.0
H1909 H 0.06384 0.08627 0.92039 0.0
C1910 C 0.08061 0.1147 0.96001 0.0
C1911 C 0.0878 0.13117 0.98016 0.0
C1912 C 0.06119 0.11965 0.94276 0.0
C1913 C 0.07491 0.15263 0.98317 0.0
C1914 C 0.05555 0.15783 0.96585 0.0
C1915 C 0.02954 0.14661 0.92744 0.0
C1916 C 0.02282 0.12999 0.90708 0.0
C1917 C 0.04862 0.14151 0.9454 0.0
C1918 C 0.0354 0.10821 0.90512 0.0
C1919 C 0.05436 0.10311 0.9227 0.0
H1920 H 0.84704 0.85007 0.70589 0.0
H1921 H 0.90899 0.83091 0.75356 0.0
H1922 H 0.91597 0.79607 0.72391 0.0
H1923 H 0.90473 0.77158 0.68352 0.0
H1924 H 0.8424 0.79156 0.63665 0.0
H1925 H 0.83513 0.82525 0.66714 0.0
C1926 C 0.86204 0.83823 0.70994 0.0
C1927 C 0.87761 0.84322 0.73179 0.0
C1928 C 0.8658 0.81827 0.69294 0.0
C1929 C 0.89684 0.82758 0.73678 0.0
C1930 C 0.90081 0.80766 0.71981 0.0
C1931 C 0.88958 0.78333 0.67996 0.0
C1932 C 0.8741 0.77886 0.65772 0.0
C1933 C 0.8855 0.80292 0.69765 0.0
C1934 C 0.85441 0.7942 0.65372 0.0
C1935 C 0.85032 0.81364 0.67107 0.0
H1936 H 0.98142 0.16882 0.40839 0.0
H1937 H 0.01878 0.10558 0.43581 0.0
H1938 H 0.99194 0.10268 0.47519 0.0
H1939 H 0.95542 0.11617 0.49979 0.0
H1940 H 0.91707 0.17792 0.46991 0.0
H1941 H 0.94664 0.18338 0.43389 0.0
C1942 C 0.9837 0.15433 0.42291 0.0
C1943 C 1.002 0.13731 0.41884 0.0
C1944 C 0.96795 0.15253 0.44525 0.0
C1945 C 1.00497 0.11904 0.43837 0.0
C1946 C 0.9895 0.11728 0.46087 0.0
C1947 C 0.95385 0.13109 0.48572 0.0
C1948 C 0.93411 0.14676 0.48775 0.0
C1949 C 0.97064 0.13369 0.4643 0.0
C1950 C 0.93217 0.16578 0.46908 0.0
C1951 C 0.949 0.1688 0.44826 0.0
H1952 H 0.60719 0.24549 0.17664 0.0
H1953 H 0.67954 0.23876 0.14617 0.0
H1954 H 0.68707 0.20606 0.17783 0.0
H1955 H 0.67298 0.17819 0.21242 0.0
H1956 H 0.60136 0.18434 0.24472 0.0
H1957 H 0.59357 0.21827 0.21398 0.0
C1958 C 0.62461 0.23688 0.17701 0.0
C1959 C 0.64281 0.24473 0.159 0.0
C1960 C 0.62889 0.21786 0.19543 0.0
C1961 C 0.66532 0.23345 0.15998 0.0
C1962 C 0.66961 0.21458 0.17797 0.0
C1963 C 0.65564 0.18697 0.21293 0.0
C1964 C 0.63763 0.17846 0.23059 0.0
C1965 C 0.6515 0.20651 0.19555 0.0
C1966 C 0.61541 0.19029 0.23109 0.0
C1967 C 0.61101 0.20973 0.21354 0.0
H1968 H 0.52291 0.86043 0.93209 0.0
H1969 H 0.53815 0.92729 0.89117 0.0
H1970 H 0.57116 0.93489 0.92242 0.0
H1971 H 0.59675 0.92214 0.96005 0.0
H1972 H 0.58223 0.85577 1.00199 0.0
H1973 H 0.54804 0.8483 0.97161 0.0
C1974 C 0.53348 0.87665 0.93003 0.0
C1975 C 0.52791 0.89329 0.90924 0.0
C1976 C 0.55265 0.88095 0.94816 0.0
C1977 C 0.54169 0.91433 0.90711 0.0
C1978 C 0.56073 0.91864 0.92489 0.0
C1979 C 0.58606 0.90607 0.9627 0.0
C1980 C 0.59218 0.88941 0.98311 0.0
C1981 C 0.56647 0.90203 0.94533 0.0
C1982 C 0.57801 0.86878 0.98632 0.0
C1983 C 0.55847 0.86453 0.96894 0.0
H1984 H 0.90229 0.24776 0.88326 0.0
H1985 H 0.83782 0.22826 0.92677 0.0
H1986 H 0.82954 0.19702 0.89344 0.0
H1987 H 0.84097 0.17426 0.85321 0.0
H1988 H 0.90496 0.19266 0.80851 0.0
H1989 H 0.91299 0.22544 0.84084 0.0
C1990 C 0.88632 0.23681 0.88525 0.0
C1991 C 0.87084 0.24023 0.90776 0.0
C1992 C 0.88162 0.21865 0.86586 0.0
C1993 C 0.85028 0.22578 0.91004 0.0
C1994 C 0.84545 0.20796 0.89089 0.0
C1995 C 0.85665 0.1855 0.85035 0.0
C1996 C 0.87248 0.18087 0.82861 0.0
C1997 C 0.86109 0.20407 0.86895 0.0
C1998 C 0.89261 0.19572 0.82521 0.0
C1999 C 0.89716 0.21445 0.8437 0.0
H2000 H 0.52088 0.16124 0.63045 0.0
H2001 H 0.53884 0.09699 0.67507 0.0
H2002 H 0.57016 0.0877 0.64212 0.0
H2003 H 0.5933 0.09811 0.60174 0.0
H2004 H 0.57642 0.16195 0.55609 0.0
H2005 H 0.54372 0.17105 0.58815 0.0
C2006 C 0.53153 0.14511 0.63278 0.0
C2007 C 0.52763 0.12997 0.65545 0.0
C2008 C 0.54972 0.13984 0.61363 0.0
C2009 C 0.54169 0.1092 0.65819 0.0
C2010 C 0.55956 0.10378 0.63925 0.0
C2011 C 0.58241 0.11399 0.59862 0.0
C2012 C 0.5874 0.12944 0.57666 0.0
C2013 C 0.56387 0.11906 0.61709 0.0
C2014 C 0.57305 0.14987 0.57296 0.0
C2015 C 0.55436 0.15504 0.59129 0.0
H2016 H 0.67662 0.8408 0.35726 0.0
H2017 H 0.61455 0.82368 0.30878 0.0
H2018 H 0.60513 0.79015 0.33956 0.0
H2019 H 0.61409 0.76658 0.38155 0.0
H2020 H 0.67699 0.78432 0.42861 0.0
H2021 H 0.68664 0.8165 0.39692 0.0
C2022 C 0.66107 0.82967 0.35324 0.0
C2023 C 0.64609 0.83499 0.33097 0.0
C2024 C 0.65595 0.81047 0.37083 0.0
C2025 C 0.6262 0.82018 0.32597 0.0
C2026 C 0.62084 0.80101 0.34358 0.0
C2027 C 0.6299 0.7775 0.38481 0.0
C2028 C 0.64481 0.77291 0.40752 0.0
C2029 C 0.63545 0.79616 0.36633 0.0
C2030 C 0.66537 0.78713 0.41123 0.0
C2031 C 0.67085 0.80568 0.39317 0.0
H2032 H 0.92933 0.92559 0.10764 0.0
H2033 H 0.94357 0.86105 0.062 0.0
H2034 H 0.97811 0.8525 0.0916 0.0
H2035 H 1.00328 0.86302 0.13189 0.0
H2036 H 0.98829 0.92844 0.17587 0.0
H2037 H 0.95521 0.93716 0.14517 0.0
C2038 C 0.94001 0.90965 0.10398 0.0
C2039 C 0.93361 0.89373 0.08294 0.0
C2040 C 0.95978 0.90509 0.12079 0.0
C2041 C 0.9479 0.8734 0.0783 0.0
C2042 C 0.96765 0.86856 0.09522 0.0
C2043 C 0.99278 0.87919 0.13467 0.0
C2044 C 0.99836 0.89508 0.15622 0.0
C2045 C 0.97358 0.88416 0.1168 0.0
C2046 C 0.9847 0.91607 0.15933 0.0
C2047 C 0.96563 0.92101 0.14187 0.0
H2048 H 0.67655 0.6733 0.8492 0.0
H2049 H 0.61121 0.69157 0.80729 0.0
H2050 H 0.60414 0.72438 0.83975 0.0
H2051 H 0.61588 0.7467 0.88152 0.0
H2052 H 0.68155 0.72768 0.92262 0.0
H2053 H 0.68908 0.69634 0.88907 0.0
C2054 C 0.66082 0.68455 0.847 0.0
C2055 C 0.64434 0.6799 0.82597 0.0
C2056 C 0.65687 0.70319 0.86575 0.0
C2057 C 0.6241 0.6947 0.8234 0.0
C2058 C 0.62006 0.71344 0.84198 0.0
C2059 C 0.63197 0.73588 0.88293 0.0
C2060 C 0.648 0.73946 0.90482 0.0
C2061 C 0.63622 0.71771 0.86345 0.0
C2062 C 0.66867 0.7251 0.90637 0.0
C2063 C 0.67307 0.70722 0.88708 0.0
H2064 H 0.59438 0.42329 0.1085 0.0
H2065 H 0.57843 0.35686 0.06742 0.0
H2066 H 0.54635 0.34869 0.10065 0.0
H2067 H 0.52322 0.36054 0.14234 0.0
H2068 H 0.5394 0.4281 0.18115 0.0
H2069 H 0.57077 0.43578 0.14774 0.0
C2070 C 0.58387 0.40701 0.10663 0.0
C2071 C 0.58912 0.39052 0.08568 0.0
C2072 C 0.56538 0.40269 0.12547 0.0
C2073 C 0.57507 0.36968 0.08355 0.0
C2074 C 0.55667 0.36507 0.10255 0.0
C2075 C 0.53363 0.37692 0.14342 0.0
C2076 C 0.52879 0.39378 0.16429 0.0
C2077 C 0.55176 0.38139 0.1238 0.0
C2078 C 0.5424 0.41498 0.16521 0.0
C2079 C 0.56049 0.41935 0.14616 0.0
H2080 H 0.83818 0.34442 0.34447 0.0
H2081 H 0.90775 0.33185 0.309 0.0
H2082 H 0.91469 0.29907 0.34162 0.0
H2083 H 0.9013 0.27527 0.38214 0.0
H2084 H 0.83055 0.28765 0.41492 0.0
H2085 H 0.82367 0.31904 0.38132 0.0
C2086 C 0.85484 0.33442 0.34365 0.0
C2087 C 0.8727 0.341 0.32478 0.0
C2088 C 0.85846 0.31553 0.36209 0.0
C2089 C 0.89395 0.32752 0.32373 0.0
C2090 C 0.89787 0.30875 0.34237 0.0
C2091 C 0.88437 0.2848 0.38175 0.0
C2092 C 0.86645 0.27909 0.40107 0.0
C2093 C 0.88038 0.30285 0.36201 0.0
C2094 C 0.84453 0.29147 0.40018 0.0
C2095 C 0.84061 0.30953 0.38103 0.0
H2096 H 0.93416 0.5918 0.59026 0.0
H2097 H 0.93776 0.6649 0.56205 0.0
H2098 H 0.97095 0.67279 0.59381 0.0
H2099 H 0.99752 0.65899 0.6316 0.0
H2100 H 0.99351 0.58515 0.65775 0.0
H2101 H 0.9622 0.57739 0.62443 0.0
C2102 C 0.94227 0.60948 0.59082 0.0
C2103 C 0.93308 0.62793 0.57429 0.0
C2104 C 0.96136 0.61369 0.60877 0.0
C2105 C 0.94413 0.65055 0.575 0.0
C2106 C 0.96315 0.655 0.59312 0.0
C2107 C 0.98984 0.64119 0.62988 0.0
C2108 C 0.99794 0.62267 0.64726 0.0
C2109 C 0.97164 0.63678 0.6105 0.0
C2110 C 0.98794 0.59966 0.64451 0.0
C2111 C 0.96987 0.59523 0.62556 0.0
H2112 H 0.67498 0.33772 0.71698 0.0
H2113 H 0.60482 0.33033 0.75291 0.0
H2114 H 0.59583 0.29724 0.72134 0.0
H2115 H 0.60779 0.27135 0.68206 0.0
H2116 H 0.67863 0.27949 0.64766 0.0
H2117 H 0.68754 0.31105 0.68035 0.0
C2118 C 0.65772 0.32882 0.71812 0.0
C2119 C 0.64043 0.33681 0.737 0.0
C2120 C 0.65285 0.30984 0.70014 0.0
C2121 C 0.61831 0.32482 0.7383 0.0
C2122 C 0.61321 0.30587 0.72026 0.0
C2123 C 0.62518 0.28002 0.68177 0.0
C2124 C 0.64254 0.27286 0.66233 0.0
C2125 C 0.63027 0.29841 0.70079 0.0
C2126 C 0.66504 0.28422 0.66252 0.0
C2127 C 0.67013 0.30246 0.68113 0.0
H2128 H 0.92956 0.4252 0.96181 0.0
H2129 H 0.93814 0.35465 0.99628 0.0
H2130 H 0.97131 0.34665 0.96441 0.0
H2131 H 0.9969 0.35965 0.92504 0.0
H2132 H 0.9884 0.43139 0.89348 0.0
H2133 H 0.95636 0.43904 0.92606 0.0
C2134 C 0.93873 0.40806 0.96257 0.0
C2135 C 0.93099 0.39033 0.98102 0.0
C2136 C 0.95788 0.40385 0.94462 0.0
C2137 C 0.9434 0.36843 0.98194 0.0
C2138 C 0.96241 0.36391 0.96373 0.0
C2139 C 0.98806 0.37696 0.92547 0.0
C2140 C 0.99511 0.39496 0.90681 0.0
C2141 C 0.9696 0.3814 0.94465 0.0
C2142 C 0.98358 0.41734 0.90773 0.0
C2143 C 0.96514 0.42171 0.92629 0.0
H2144 H 0.91096 0.75038 0.17902 0.0
H2145 H 0.84358 0.7368 0.13866 0.0
H2146 H 0.83499 0.70443 0.1705 0.0
H2147 H 0.84686 0.67905 0.20854 0.0
H2148 H 0.9135 0.69199 0.25039 0.0
H2149 H 0.92224 0.72539 0.21916 0.0
C2150 C 0.89442 0.74031 0.17722 0.0
C2151 C 0.8779 0.74617 0.15642 0.0
C2152 C 0.88952 0.72153 0.19576 0.0
C2153 C 0.85645 0.73303 0.15461 0.0
C2154 C 0.85158 0.71436 0.17273 0.0
C2155 C 0.8633 0.6892 0.21099 0.0
C2156 C 0.87967 0.68281 0.23157 0.0
C2157 C 0.868 0.70837 0.19323 0.0
C2158 C 0.90075 0.69634 0.23452 0.0
C2159 C 0.9057 0.71546 0.21668 0.0
H2160 H 0.5945 0.59159 0.45971 0.0
H2161 H 0.57825 0.65603 0.50465 0.0
H2162 H 0.5437 0.6635 0.47484 0.0
H2163 H 0.5189 0.65212 0.43479 0.0
H2164 H 0.53575 0.58711 0.39095 0.0
H2165 H 0.56899 0.57929 0.42181 0.0
C2166 C 0.58333 0.60723 0.46315 0.0
C2167 C 0.58912 0.62341 0.48416 0.0
C2168 C 0.56352 0.61125 0.44612 0.0
C2169 C 0.57433 0.64345 0.48844 0.0
C2170 C 0.55458 0.64769 0.4714 0.0
C2171 C 0.52985 0.63624 0.43204 0.0
C2172 C 0.52471 0.62021 0.41051 0.0
C2173 C 0.54914 0.63183 0.44994 0.0
C2174 C 0.53897 0.59958 0.40748 0.0
C2175 C 0.55814 0.59517 0.42502 0.0
H2176 H 0.4132 0.29014 0.15051 0.0
H2177 H 0.35104 0.25111 0.17858 0.0
H2178 H 0.34666 0.27873 0.21678 0.0
H2179 H 0.35787 0.31648 0.23956 0.0
H2180 H 0.41933 0.35592 0.21125 0.0
H2181 H 0.42715 0.32533 0.17657 0.0
C2182 C 0.39901 0.28731 0.16529 0.0
C2183 C 0.38223 0.26871 0.16121 0.0
C2184 C 0.3966 0.3033 0.18743 0.0
C2185 C 0.36386 0.26557 0.18064 0.0
C2186 C 0.36142 0.28129 0.20267 0.0
C2187 C 0.37347 0.31783 0.22639 0.0
C2188 C 0.38857 0.33789 0.2286 0.0
C2189 C 0.37731 0.30055 0.20591 0.0
C2190 C 0.40817 0.34005 0.2108 0.0
C2191 C 0.41233 0.32278 0.19059 0.0
H2192 H 0.49776 0.66302 0.93341 0.0
H2193 H 0.4891 0.59313 0.89676 0.0
H2194 H 0.45733 0.58369 0.92906 0.0
H2195 H 0.43084 0.59551 0.96618 0.0
H2196 H 0.43857 0.66488 1.00396 0.0
H2197 H 0.47173 0.67438 0.97267 0.0
C2198 C 0.4889 0.64574 0.93252 0.0
C2199 C 0.49597 0.62879 0.91262 0.0
C2200 C 0.47039 0.64038 0.95124 0.0
C2201 C 0.4844 0.60639 0.91201 0.0
C2202 C 0.46606 0.60101 0.93038 0.0
C2203 C 0.43983 0.61271 0.96775 0.0
C2204 C 0.43204 0.6296 0.98718 0.0
C2205 C 0.4588 0.6179 0.94989 0.0
C2206 C 0.44404 0.65168 0.98901 0.0
C2207 C 0.46301 0.65707 0.97112 0.0
H2208 H 0.10759 0.74655 0.6731 0.0
H2209 H 0.18178 0.74248 0.64814 0.0
H2210 H 0.18912 0.71152 0.68194 0.0
H2211 H 0.17439 0.68382 0.7162 0.0
H2212 H 0.10134 0.6882 0.74436 0.0
H2213 H 0.09368 0.72098 0.71194 0.0
C2214 C 0.12542 0.73911 0.67531 0.0
C2215 C 0.14396 0.74654 0.65746 0.0
C2216 C 0.12969 0.72124 0.6952 0.0
C2217 C 0.16697 0.7367 0.66085 0.0
C2218 C 0.17127 0.71906 0.68036 0.0
C2219 C 0.15675 0.69199 0.71549 0.0
C2220 C 0.13823 0.68303 0.73215 0.0
C2221 C 0.1527 0.71087 0.6972 0.0
C2222 C 0.11572 0.69427 0.73128 0.0
C2223 C 0.11141 0.71309 0.71278 0.0
H2224 H 0.02096 0.3602 0.42845 0.0
H2225 H 0.03326 0.42747 0.38716 0.0
H2226 H 0.06582 0.43672 0.41844 0.0
H2227 H 0.09181 0.42535 0.45621 0.0
H2228 H 0.08019 0.35864 0.49863 0.0
H2229 H 0.04648 0.34943 0.46817 0.0
C2230 C 0.03079 0.37686 0.42633 0.0
C2231 C 0.02455 0.39314 0.40544 0.0
C2232 C 0.04969 0.38212 0.44449 0.0
C2233 C 0.03736 0.41477 0.40319 0.0
C2234 C 0.05613 0.42002 0.42099 0.0
C2235 C 0.08186 0.40881 0.45894 0.0
C2236 C 0.08867 0.39257 0.47947 0.0
C2237 C 0.06254 0.40379 0.44155 0.0
C2238 C 0.07544 0.37134 0.48282 0.0
C2239 C 0.05617 0.3661 0.46541 0.0
H2240 H 0.40869 0.7461 0.38944 0.0
H2241 H 0.34328 0.72805 0.43195 0.0
H2242 H 0.3349 0.69671 0.3988 0.0
H2243 H 0.34631 0.67353 0.35889 0.0
H2244 H 0.41115 0.69041 0.31501 0.0
H2245 H 0.41954 0.72314 0.34733 0.0
C2246 C 0.3925 0.73542 0.39126 0.0
C2247 C 0.37678 0.73931 0.41349 0.0
C2248 C 0.38774 0.71717 0.37193 0.0
C2249 C 0.35594 0.72522 0.4155 0.0
C2250 C 0.35107 0.70733 0.39642 0.0
C2251 C 0.36229 0.68441 0.3562 0.0
C2252 C 0.37819 0.67938 0.33462 0.0
C2253 C 0.3669 0.70298 0.37478 0.0
C2254 C 0.3987 0.69376 0.33151 0.0
C2255 C 0.40344 0.71248 0.35003 0.0
H2256 H 0.09168 0.59294 0.09907 0.0
H2257 H 0.07737 0.65959 0.05766 0.0
H2258 H 0.04414 0.6677 0.08928 0.0
H2259 H 0.01996 0.65618 0.12986 0.0
H2260 H 0.03496 0.58909 0.17034 0.0
H2261 H 0.0668 0.58071 0.13769 0.0
C2262 C 0.08121 0.60921 0.09678 0.0
C2263 C 0.0872 0.62579 0.07621 0.0
C2264 C 0.06217 0.61363 0.1149 0.0
C2265 C 0.07331 0.64665 0.07348 0.0
C2266 C 0.0543 0.65127 0.09157 0.0
C2267 C 0.03021 0.63973 0.13152 0.0
C2268 C 0.02492 0.62328 0.15263 0.0
C2269 C 0.04873 0.63499 0.11259 0.0
C2270 C 0.03827 0.60193 0.15419 0.0
C2271 C 0.05666 0.59718 0.1356 0.0
H2272 H 0.10748 0.34431 0.84421 0.0
H2273 H 0.15963 0.3088 0.79333 0.0
H2274 H 0.16023 0.27461 0.82475 0.0
H2275 H 0.14809 0.25617 0.8687 0.0
H2276 H 0.09655 0.29281 0.91956 0.0
H2277 H 0.09342 0.32488 0.8861 0.0
C2278 C 0.11873 0.32893 0.83975 0.0
C2279 C 0.13359 0.3292 0.8165 0.0
C2280 C 0.11923 0.30953 0.85808 0.0
C2281 C 0.148 0.30909 0.81104 0.0
C2282 C 0.14846 0.28958 0.82912 0.0
C2283 C 0.13614 0.27114 0.87243 0.0
C2284 C 0.12259 0.27192 0.89678 0.0
C2285 C 0.13455 0.28984 0.85307 0.0
C2286 C 0.10697 0.29141 0.90098 0.0
C2287 C 0.10527 0.30993 0.88188 0.0
H2288 H 0.49812 0.36389 0.63041 0.0
H2289 H 0.48207 0.42949 0.6735 0.0
H2290 H 0.44903 0.43752 0.64241 0.0
H2291 H 0.42343 0.4252 0.60454 0.0
H2292 H 0.43873 0.35993 0.56072 0.0
H2293 H 0.4732 0.35239 0.59059 0.0
C2294 C 0.48738 0.37993 0.63297 0.0
C2295 C 0.49267 0.39607 0.65434 0.0
C2296 C 0.46819 0.38444 0.61499 0.0
C2297 C 0.47871 0.41692 0.6571 0.0
C2298 C 0.45966 0.42146 0.63942 0.0
C2299 C 0.43438 0.40937 0.60137 0.0
C2300 C 0.42839 0.39301 0.58062 0.0
C2301 C 0.4541 0.40525 0.6185 0.0
C2302 C 0.44288 0.37271 0.57667 0.0
C2303 C 0.46257 0.3684 0.59377 0.0
H2304 H 0.14031 0.04758 0.29162 0.0
H2305 H 0.06971 0.05254 0.25632 0.0
H2306 H 0.06579 1.00891 0.25777 0.0
H2307 H 0.08206 0.96922 0.26997 0.0
H2308 H 0.15358 0.96387 0.30227 0.0
H2309 H 0.15744 1.00771 0.30159 0.0
C2310 C 0.12416 0.03908 0.28404 0.0
C2311 C 0.10528 0.05333 0.27399 0.0
C2312 C 0.12205 0.01392 0.28486 0.0
C2313 C 0.08452 0.04203 0.26412 0.0
C2314 C 0.08219 0.01706 0.2651 0.0
C2315 C 0.09833 0.97774 0.2772 0.0
C2316 C 0.11731 0.96352 0.28684 0.0
C2317 C 0.1007 1.00284 0.27575 0.0
C2318 C 0.13863 0.9746 0.29526 0.0
C2319 C 0.14087 0.9996 0.29468 0.0
H2320 H 0.22294 0.86984 0.56547 0.0
H2321 H 0.21656 0.85737 0.47902 0.0
H2322 H 0.26044 0.85767 0.47449 0.0
H2323 H 0.30063 0.86098 0.49553 0.0
H2324 H 0.30666 0.86877 0.58269 0.0
H2325 H 0.26285 0.87087 0.58675 0.0
C2326 C 0.23119 0.8673 0.54562 0.0
C2327 C 0.21666 0.86388 0.52249 0.0
C2328 C 0.2563 0.86663 0.54343 0.0
C2329 C 0.22748 0.86011 0.49701 0.0
C2330 C 0.25251 0.8603 0.49446 0.0
C2331 C 0.29225 0.86321 0.51536 0.0
C2332 C 0.30666 0.865 0.53882 0.0
C2333 C 0.26709 0.86349 0.51755 0.0
C2334 C 0.29579 0.86746 0.56445 0.0
C2335 C 0.27082 0.86866 0.56673 0.0
H2336 H 0.44421 0.97387 0.79635 0.0
H2337 H 0.37358 0.96576 0.76237 0.0
H2338 H 0.36862 1.00931 0.76099 0.0
H2339 H 0.3842 0.04973 0.77005 0.0
H2340 H 0.45422 0.05821 0.80592 0.0
H2341 H 0.45948 0.01462 0.80651 0.0
C2342 C 0.42791 0.98175 0.78831 0.0
C2343 C 0.40937 0.96673 0.77905 0.0
C2344 C 0.42496 1.00685 0.78837 0.0
C2345 C 0.38808 0.97701 0.7694 0.0
C2346 C 0.38523 1.0019 0.76872 0.0
C2347 C 0.40056 0.04204 0.77814 0.0
C2348 C 0.41881 0.05721 0.78787 0.0
C2349 C 0.40347 0.01699 0.77836 0.0
C2350 C 0.43987 0.04694 0.79838 0.0
C2351 C 0.44295 0.02201 0.79856 0.0
H2352 H 0.22038 0.14684 0.99541 0.0
H2353 H 0.21584 0.16236 0.08142 0.0
H2354 H 0.25976 0.16156 0.08472 0.0
H2355 H 0.29931 0.15731 0.06277 0.0
H2356 H 0.30392 0.14608 0.97595 0.0
H2357 H 0.25996 0.14433 0.9731 0.0
C2358 C 0.22905 0.14986 1.01491 0.0
C2359 C 0.21503 0.15433 0.0383 0.0
C2360 C 0.2542 0.15026 1.01635 0.0
C2361 C 0.22637 0.15876 0.06328 0.0
C2362 C 0.2514 0.15833 0.06511 0.0
C2363 C 0.29062 0.1544 0.04326 0.0
C2364 C 0.30465 0.15158 1.01957 0.0
C2365 C 0.26548 0.15422 0.04175 0.0
C2366 C 0.29336 0.14823 0.99435 0.0
C2367 C 0.2683 0.14722 0.99278 0.0
H2368 H 0.94058 0.05027 0.79892 0.0
H2369 H 0.87398 0.05722 0.75541 0.0
H2370 H 0.86954 0.01356 0.75422 0.0
H2371 H 0.88432 0.97345 0.76622 0.0
H2372 H 0.95043 0.96616 0.81094 0.0
H2373 H 0.95516 1.00981 0.81155 0.0
C2374 C 0.9253 0.04211 0.78889 0.0
C2375 C 0.90772 0.0568 0.77695 0.0
C2376 C 0.92261 0.01698 0.78895 0.0
C2377 C 0.8877 0.04619 0.76462 0.0
C2378 C 0.88515 0.02126 0.76403 0.0
C2379 C 0.89971 0.9814 0.77624 0.0
C2380 C 0.91702 0.96654 0.78849 0.0
C2381 C 0.90237 1.00648 0.77635 0.0
C2382 C 0.93681 0.97717 0.80143 0.0
C2383 C 0.9396 1.00214 0.80164 0.0
H2384 H 0.7191 0.13284 0.55342 0.0
H2385 H 0.71497 0.19138 0.49606 0.0
H2386 H 0.75863 0.19529 0.49673 0.0
H2387 H 0.79792 0.18302 0.51478 0.0
H2388 H 0.80249 0.12453 0.57184 0.0
H2389 H 0.75865 0.1198 0.57056 0.0
C2390 C 0.72775 0.14631 0.54086 0.0
C2391 C 0.71374 0.16185 0.52469 0.0
C2392 C 0.75289 0.14869 0.5417 0.0
C2393 C 0.72529 0.17923 0.50865 0.0
C2394 C 0.75025 0.18154 0.50914 0.0
C2395 C 0.7892 0.16939 0.5271 0.0
C2396 C 0.80316 0.15443 0.54383 0.0
C2397 C 0.76418 0.16662 0.52586 0.0
C2398 C 0.79194 0.13644 0.5592 0.0
C2399 C 0.76695 0.13369 0.55831 0.0
H2400 H 0.58162 0.043 0.27203 0.0
H2401 H 0.65196 0.05211 0.30649 0.0
H2402 H 0.65741 1.00842 0.30783 0.0
H2403 H 0.64211 0.96752 0.29856 0.0
H2404 H 0.57293 0.9591 0.26054 0.0
H2405 H 0.5672 1.00247 0.26082 0.0
C2406 C 0.59798 0.03533 0.28018 0.0
C2407 C 0.61616 0.05058 0.28979 0.0
C2408 C 0.60131 0.01032 0.27985 0.0
C2409 C 0.63761 0.0406 0.29944 0.0
C2410 C 0.64075 0.01567 0.30004 0.0
C2411 C 0.62586 0.97523 0.29019 0.0
C2412 C 0.60794 0.96005 0.27964 0.0
C2413 C 0.62277 1.00033 0.29014 0.0
C2414 C 0.58703 0.97031 0.26875 0.0
C2415 C 0.58366 0.99515 0.26903 0.0
H2416 H 0.72301 0.88907 1.02273 0.0
H2417 H 0.71762 0.81796 0.05683 0.0
H2418 H 0.76127 0.81417 0.05616 0.0
H2419 H 0.80108 0.83072 0.04488 0.0
H2420 H 0.80668 0.90258 1.01337 0.0
H2421 H 0.76287 0.90637 1.01352 0.0
C2422 C 0.73142 0.87283 1.03023 0.0
C2423 C 0.71708 0.85378 0.03971 0.0
C2424 C 0.75654 0.87078 1.02979 0.0
C2425 C 0.72823 0.8329 0.04949 0.0
C2426 C 0.75319 0.83065 0.04893 0.0
C2427 C 0.7926 0.84706 0.03773 0.0
C2428 C 0.80687 0.86619 1.02854 0.0
C2429 C 0.76751 0.84934 0.0388 0.0
C2430 C 0.7959 0.88756 1.02014 0.0
C2431 C 0.77092 0.88975 1.02039 0.0
H2432 H 0.63797 0.54976 0.78566 0.0
H2433 H 0.56314 0.55718 0.76548 0.0
H2434 H 0.55836 0.51361 0.76625 0.0
H2435 H 0.57527 0.47323 0.7735 0.0
H2436 H 0.65067 0.46555 0.79008 0.0
H2437 H 0.65541 0.50926 0.79028 0.0
C2438 C 0.62067 0.54179 0.78122 0.0
C2439 C 0.60092 0.55671 0.77562 0.0
C2440 C 0.6181 0.51666 0.78146 0.0
C2441 C 0.57865 0.54614 0.76976 0.0
C2442 C 0.57586 0.5212 0.77038 0.0
C2443 C 0.59266 0.48119 0.77745 0.0
C2444 C 0.61253 0.46628 0.78237 0.0
C2445 C 0.59539 0.50629 0.77648 0.0
C2446 C 0.6351 0.47674 0.78665 0.0
C2447 C 0.63782 0.50169 0.78661 0.0
H2448 H 0.79758 0.35891 0.99372 0.0
H2449 H 0.80369 0.36808 0.08069 0.0
H2450 H 0.75989 0.37071 0.08468 0.0
H2451 H 0.71992 0.36976 0.06343 0.0
H2452 H 0.7134 0.35623 0.9772 0.0
H2453 H 0.75729 0.3559 0.97271 0.0
C2454 C 0.78922 0.3615 1.0135 0.0
C2455 C 0.80369 0.36349 0.03692 0.0
C2456 C 0.76403 0.36218 1.01567 0.0
C2457 C 0.79281 0.36652 0.06248 0.0
C2458 C 0.76783 0.36805 0.06472 0.0
C2459 C 0.72813 0.36689 0.04362 0.0
C2460 C 0.71351 0.36334 1.02054 0.0
C2461 C 0.75327 0.36585 0.04146 0.0
C2462 C 0.72433 0.35911 0.99515 0.0
C2463 C 0.74938 0.35891 0.99263 0.0
H2464 H 0.94173 0.54996 0.27641 0.0
H2465 H 0.86888 0.55821 0.30394 0.0
H2466 H 0.86372 0.51452 0.30446 0.0
H2467 H 0.87986 0.47387 0.29601 0.0
H2468 H 0.95176 0.46619 0.2647 0.0
H2469 H 0.95729 0.5096 0.26632 0.0
C2470 C 0.92489 0.54211 0.28297 0.0
C2471 C 0.90587 0.55713 0.29082 0.0
C2472 C 0.92179 0.51707 0.28209 0.0
C2473 C 0.88386 0.54688 0.29833 0.0
C2474 C 0.88088 0.52194 0.29843 0.0
C2475 C 0.89668 0.48174 0.28942 0.0
C2476 C 0.91539 0.46679 0.28033 0.0
C2477 C 0.89966 0.50684 0.29011 0.0
C2478 C 0.93704 0.47726 0.27173 0.0
C2479 C 0.94028 0.5021 0.27279 0.0
H2480 H 0.72065 0.62827 0.52344 0.0
H2481 H 0.71143 0.69911 0.5572 0.0
H2482 H 0.75476 0.70532 0.55652 0.0
H2483 H 0.79546 0.69095 0.54555 0.0
H2484 H 0.80511 0.61908 0.51534 0.0
H2485 H 0.76158 0.61299 0.51501 0.0
C2486 C 0.72818 0.64497 0.53086 0.0
C2487 C 0.7128 0.66323 0.54025 0.0
C2488 C 0.7532 0.64836 0.53064 0.0
C2489 C 0.72282 0.68474 0.54993 0.0
C2490 C 0.74762 0.68837 0.54938 0.0
C2491 C 0.78794 0.67409 0.53858 0.0
C2492 C 0.80331 0.65565 0.52984 0.0
C2493 C 0.76298 0.67044 0.5395 0.0
C2494 C 0.79351 0.63361 0.52172 0.0
C2495 C 0.76866 0.6301 0.52169 0.0
H2496 H 0.39746 0.54776 0.31712 0.0
H2497 H 0.41421 0.55364 0.23155 0.0
H2498 H 0.4133 0.50974 0.22722 0.0
H2499 H 0.40859 0.4697 0.24827 0.0
H2500 H 0.39629 0.46398 0.3348 0.0
H2501 H 0.39437 0.50787 0.33847 0.0
C2502 C 0.40072 0.5394 0.29749 0.0
C2503 C 0.40558 0.55383 0.27455 0.0
C2504 C 0.40098 0.51424 0.29546 0.0
C2505 C 0.41035 0.54284 0.24939 0.0
C2506 C 0.40981 0.51779 0.24696 0.0
C2507 C 0.40537 0.47814 0.26786 0.0
C2508 C 0.40231 0.46378 0.29124 0.0
C2509 C 0.40525 0.50332 0.26989 0.0
C2510 C 0.39859 0.47478 0.31661 0.0
C2511 C 0.39752 0.49981 0.31866 0.0
H2512 H 0.29638 0.69044 1.0234 0.0
H2513 H 0.30445 0.6175 0.05069 0.0
H2514 H 0.2608 0.61214 0.05011 0.0
H2515 H 0.2202 0.62837 0.04151 0.0
H2516 H 0.21284 0.70044 1.01064 0.0
H2517 H 0.2562 0.70585 1.01245 0.0
C2518 C 0.28851 0.6735 1.02956 0.0
C2519 C 0.30347 0.65455 0.03773 0.0
C2520 C 0.26352 0.6703 1.02811 0.0
C2521 C 0.29318 0.63243 0.04479 0.0
C2522 C 0.26826 0.62934 0.04428 0.0
C2523 C 0.22813 0.64517 0.03497 0.0
C2524 C 0.21324 0.664 1.02608 0.0
C2525 C 0.25323 0.64812 0.03584 0.0
C2526 C 0.22382 0.68563 1.01756 0.0
C2527 C 0.24865 0.68881 1.01873 0.0
H2528 H 0.11601 0.46909 0.81234 0.0
H2529 H 0.12247 0.46456 0.72491 0.0
H2530 H 0.12375 0.50849 0.72182 0.0
H2531 H 0.12154 0.54818 0.74402 0.0
H2532 H 0.11021 0.55266 0.83085 0.0
H2533 H 0.1124 0.50878 0.83439 0.0
C2534 C 0.11794 0.4778 0.79267 0.0
C2535 C 0.11952 0.46374 0.76886 0.0
C2536 C 0.11769 0.503 0.79105 0.0
C2537 C 0.12143 0.47509 0.74344 0.0
C2538 C 0.12212 0.50016 0.74172 0.0
C2539 C 0.11975 0.5395 0.76373 0.0
C2540 C 0.116 0.55353 0.78725 0.0
C2541 C 0.12007 0.5143 0.76537 0.0
C2542 C 0.11319 0.54215 0.81256 0.0
C2543 C 0.11444 0.51711 0.81454 0.0
H2544 H 0.22107 0.32693 0.52229 0.0
H2545 H 0.21313 0.40054 0.54726 0.0
H2546 H 0.25676 0.4051 0.5493 0.0
H2547 H 0.29726 0.38816 0.5433 0.0
H2548 H 0.30507 0.31545 0.51463 0.0
H2549 H 0.26154 0.31058 0.51424 0.0
C2550 C 0.22897 0.34382 0.52856 0.0
C2551 C 0.21404 0.36324 0.53526 0.0
C2552 C 0.25405 0.34655 0.52857 0.0
C2553 C 0.22437 0.38528 0.54247 0.0
C2554 C 0.24928 0.38792 0.54346 0.0
C2555 C 0.28939 0.37132 0.5368 0.0
C2556 C 0.30436 0.35218 0.52909 0.0
C2557 C 0.26431 0.36872 0.53636 0.0
C2558 C 0.29395 0.33049 0.52058 0.0
C2559 C 0.26905 0.32763 0.52052 0.0
H2560 H 0.09641 0.13672 0.10887 0.0
H2561 H 0.16409 0.17384 0.10751 0.0
H2562 H 0.16512 0.17399 0.15744 0.0
H2563 H 0.14866 0.15993 0.20148 0.0
H2564 H 0.07942 0.12582 0.20351 0.0
H2565 H 0.07682 0.12839 0.15363 0.0
C2566 C 0.111 0.14543 0.1196 0.0
C2567 C 0.13007 0.15548 0.10456 0.0
C2568 C 0.11125 0.14579 0.14847 0.0
C2569 C 0.14905 0.16638 0.11866 0.0
C2570 C 0.14973 0.16628 0.14722 0.0
C2571 C 0.13277 0.15356 0.19101 0.0
C2572 C 0.11426 0.14267 0.20617 0.0
C2573 C 0.13122 0.15555 0.16235 0.0
C2574 C 0.09379 0.13449 0.19235 0.0
C2575 C 0.0924 0.13579 0.16378 0.0
H2576 H 0.14291 0.84499 0.4472 0.0
H2577 H 0.10378 0.91003 0.46335 0.0
H2578 H 0.09529 0.9147 0.41472 0.0
H2579 H 0.10293 0.90293 0.36692 0.0
H2580 H 0.14532 0.8402 0.35014 0.0
H2581 H 0.14852 0.83183 0.39914 0.0
C2582 C 0.13198 0.85977 0.44006 0.0
C2583 C 0.12365 0.87695 0.45892 0.0
C2584 C 0.12797 0.86288 0.41174 0.0
C2585 C 0.11014 0.89644 0.44928 0.0
C2586 C 0.1054 0.8992 0.42143 0.0
C2587 C 0.11223 0.88706 0.37406 0.0
C2588 C 0.12336 0.87185 0.35497 0.0
C2589 C 0.11472 0.8829 0.40236 0.0
C2590 C 0.13615 0.85183 0.36446 0.0
C2591 C 0.13814 0.84717 0.39251 0.0
H2592 H 0.36245 0.88267 0.70325 0.0
H2593 H 0.43841 0.87035 0.71092 0.0
H2594 H 0.4413 0.86388 0.66138 0.0
H2595 H 0.42223 0.86493 0.61478 0.0
H2596 H 0.34633 0.87876 0.6094 0.0
H2597 H 0.34348 0.88124 0.65882 0.0
C2598 C 0.37972 0.87842 0.69429 0.0
C2599 C 0.40022 0.87723 0.71103 0.0
C2600 C 0.38125 0.875 0.66589 0.0
C2601 C 0.42229 0.8714 0.69872 0.0
C2602 C 0.42395 0.86779 0.67028 0.0
C2603 C 0.40506 0.868 0.62456 0.0
C2604 C 0.38445 0.87158 0.60831 0.0
C2605 C 0.40357 0.86994 0.65347 0.0
C2606 C 0.36242 0.87593 0.62134 0.0
C2607 C 0.36077 0.87743 0.64966 0.0
H2608 H 0.40416 0.10794 0.86685 0.0
H2609 H 0.40377 0.18368 0.8503 0.0
H2610 H 0.40128 0.19216 0.89961 0.0
H2611 H 0.39475 0.17721 0.94759 0.0
H2612 H 0.39609 0.10078 0.9617 0.0
H2613 H 0.40287 0.09348 0.91361 0.0
C2614 C 0.40402 0.12634 0.87408 0.0
C2615 C 0.40413 0.14514 0.85505 0.0
C2616 C 0.4025 0.13094 0.90219 0.0
C2617 C 0.40394 0.16889 0.86462 0.0
C2618 C 0.4023 0.1737 0.89282 0.0
C2619 C 0.39703 0.15905 0.94014 0.0
C2620 C 0.39442 0.13956 0.95834 0.0
C2621 C 0.40095 0.1548 0.91188 0.0
C2622 C 0.39746 0.11613 0.94823 0.0
C2623 C 0.40142 0.11186 0.92063 0.0
H2624 H 0.86294 0.88309 0.86234 0.0
H2625 H 0.93877 0.86956 0.85565 0.0
H2626 H 0.94105 0.86357 0.90529 0.0
H2627 H 0.9216 0.86568 0.95168 0.0
H2628 H 0.84581 0.88047 0.95614 0.0
H2629 H 0.84346 0.88226 0.90666 0.0
C2630 C 0.88003 0.87865 0.87156 0.0
C2631 C 0.90069 0.877 0.85507 0.0
C2632 C 0.88121 0.87549 0.90003 0.0
C2633 C 0.92253 0.87093 0.86767 0.0
C2634 C 0.92385 0.86762 0.89617 0.0
C2635 C 0.90456 0.86878 0.9417 0.0
C2636 C 0.88386 0.87291 0.95772 0.0
C2637 C 0.90335 0.87029 0.91274 0.0
C2638 C 0.86198 0.87726 0.94441 0.0
C2639 C 0.86061 0.87837 0.91604 0.0
H2640 H 0.89406 0.17722 0.70334 0.0
H2641 H 0.90926 0.10146 0.70372 0.0
H2642 H 0.90962 0.10084 0.65396 0.0
H2643 H 0.90145 0.12062 0.61059 0.0
H2644 H 0.88571 0.19621 0.6085 0.0
H2645 H 0.89014 0.19833 0.65835 0.0
C2646 C 0.89814 0.16081 0.69241 0.0
C2647 C 0.90194 0.13942 0.70715 0.0
C2648 C 0.89795 0.16052 0.66347 0.0
C2649 C 0.90662 0.11815 0.6928 0.0
C2650 C 0.90666 0.11776 0.66433 0.0
C2651 C 0.89928 0.13767 0.62096 0.0
C2652 C 0.89302 0.15818 0.60581 0.0
C2653 C 0.9017 0.13865 0.64949 0.0
C2654 C 0.8906 0.18016 0.6196 0.0
C2655 C 0.89297 0.18131 0.64817 0.0
H2656 H 0.59651 0.13271 0.45168 0.0
H2657 H 0.6568 0.18091 0.45177 0.0
H2658 H 0.65736 0.18087 0.40179 0.0
H2659 H 0.64345 0.16345 0.35815 0.0
H2660 H 0.58126 0.11766 0.35763 0.0
H2661 H 0.5784 0.1206 0.40743 0.0
C2662 C 0.60922 0.14381 0.44067 0.0
C2663 C 0.62641 0.15706 0.45535 0.0
C2664 C 0.60925 0.14387 0.41182 0.0
C2665 C 0.64311 0.17098 0.4409 0.0
C2666 C 0.64359 0.17074 0.41231 0.0
C2667 C 0.62896 0.15456 0.36892 0.0
C2668 C 0.61262 0.14028 0.3542 0.0
C2669 C 0.62716 0.15674 0.39755 0.0
C2670 C 0.59393 0.1289 0.36842 0.0
C2671 C 0.5924 0.13045 0.39695 0.0
H2672 H 0.62747 0.90301 0.11224 0.0
H2673 H 0.62432 0.82598 0.10626 0.0
H2674 H 0.6194 0.82319 0.15608 0.0
H2675 H 0.61992 0.84308 0.20232 0.0
H2676 H 0.62462 0.92022 0.20591 0.0
H2677 H 0.62488 0.92248 0.15637 0.0
C2678 C 0.62548 0.88552 0.12167 0.0
C2679 C 0.62648 0.86473 0.10536 0.0
C2680 C 0.62305 0.8841 0.15018 0.0
C2681 C 0.62356 0.84232 0.11816 0.0
C2682 C 0.62091 0.84074 0.14675 0.0
C2683 C 0.62051 0.86032 0.19214 0.0
C2684 C 0.62225 0.88151 0.20787 0.0
C2685 C 0.62115 0.86152 0.16315 0.0
C2686 C 0.62333 0.90369 0.19436 0.0
C2687 C 0.62353 0.90502 0.16597 0.0
H2688 H 0.60541 0.6101 0.69548 0.0
H2689 H 0.61941 0.68419 0.71383 0.0
H2690 H 0.62178 0.69339 0.66476 0.0
H2691 H 0.62484 0.67875 0.61634 0.0
H2692 H 0.61031 0.60413 0.59996 0.0
H2693 H 0.60272 0.5969 0.64805 0.0
C2694 C 0.60832 0.6284 0.68868 0.0
C2695 C 0.61206 0.64646 0.70817 0.0
C2696 C 0.60976 0.63342 0.66058 0.0
C2697 C 0.61611 0.67004 0.69917 0.0
C2698 C 0.61769 0.67523 0.67108 0.0
C2699 C 0.61933 0.66114 0.62327 0.0
C2700 C 0.61833 0.64197 0.60445 0.0
C2701 C 0.6152 0.6569 0.6515 0.0
C2702 C 0.61141 0.61917 0.61392 0.0
C2703 C 0.60712 0.61494 0.64152 0.0
H2704 H 0.6201 0.34697 0.86088 0.0
H2705 H 0.60525 0.42272 0.8579 0.0
H2706 H 0.60535 0.42471 0.90768 0.0
H2707 H 0.61377 0.406 0.95189 0.0
H2708 H 0.62844 0.33023 0.95614 0.0
H2709 H 0.62399 0.32704 0.90646 0.0
C2710 C 0.61615 0.36369 0.87124 0.0
C2711 C 0.61227 0.38464 0.8557 0.0
C2712 C 0.61653 0.36476 0.90018 0.0
C2713 C 0.60785 0.40632 0.86939 0.0
C2714 C 0.60811 0.4075 0.89789 0.0
C2715 C 0.61565 0.38867 0.94205 0.0
C2716 C 0.6216 0.36841 0.95787 0.0
C2717 C 0.61306 0.38701 0.91348 0.0
C2718 C 0.62376 0.34612 0.94463 0.0
C2719 C 0.62136 0.34433 0.91611 0.0
H2720 H 0.89819 0.40748 0.10985 0.0
H2721 H 0.8933 0.33044 0.10605 0.0
H2722 H 0.89896 0.32807 0.15569 0.0
H2723 H 0.90115 0.34866 0.2012 0.0
H2724 H 0.90557 0.42582 0.20315 0.0
H2725 H 0.90455 0.42735 0.15351 0.0
C2726 C 0.89862 0.39009 0.11977 0.0
C2727 C 0.89507 0.36919 0.10417 0.0
C2728 C 0.90181 0.38891 0.14821 0.0
C2729 C 0.896 0.34684 0.11747 0.0
C2730 C 0.89913 0.3455 0.14593 0.0
C2731 C 0.90258 0.36567 0.19063 0.0
C2732 C 0.90361 0.38713 0.20586 0.0
C2733 C 0.90154 0.36648 0.16169 0.0
C2734 C 0.90493 0.40909 0.1919 0.0
C2735 C 0.9042 0.41 0.16348 0.0
H2736 H 0.86489 0.65699 0.36086 0.0
H2737 H 0.94034 0.64094 0.35716 0.0
H2738 H 0.94318 0.64516 0.40694 0.0
H2739 H 0.92285 0.64905 0.45237 0.0
H2740 H 0.84738 0.66518 0.4547 0.0
H2741 H 0.8459 0.66549 0.4049 0.0
C2742 C 0.88207 0.65476 0.37085 0.0
C2743 C 0.90234 0.64847 0.35518 0.0
C2744 C 0.88351 0.65718 0.39944 0.0
C2745 C 0.92447 0.64589 0.36858 0.0
C2746 C 0.92604 0.64815 0.39714 0.0
C2747 C 0.90632 0.65338 0.44188 0.0
C2748 C 0.88528 0.6575 0.45723 0.0
C2749 C 0.90555 0.65324 0.41293 0.0
C2750 C 0.86384 0.6624 0.44336 0.0
C2751 C 0.86295 0.66237 0.41486 0.0
H2752 H 0.42505 0.37051 0.36786 0.0
H2753 H 0.3492 0.38069 0.35398 0.0
H2754 H 0.34126 0.37688 0.40208 0.0
H2755 H 0.35517 0.37328 0.44877 0.0
H2756 H 0.42977 0.36052 0.46537 0.0
H2757 H 0.43872 0.36228 0.41609 0.0
C2758 C 0.4068 0.37159 0.37535 0.0
C2759 C 0.38792 0.37654 0.35688 0.0
C2760 C 0.40201 0.36894 0.40376 0.0
C2761 C 0.36434 0.37759 0.36729 0.0
C2762 C 0.35962 0.37528 0.39503 0.0
C2763 C 0.3734 0.37059 0.44162 0.0
C2764 C 0.39177 0.3669 0.46073 0.0
C2765 C 0.37826 0.37142 0.41349 0.0
C2766 C 0.41524 0.36325 0.45108 0.0
C2767 C 0.42035 0.36443 0.42287 0.0
H2768 H 0.38512 0.67368 0.20454 0.0
H2769 H 0.42351 0.60674 0.20726 0.0
H2770 H 0.42479 0.60542 0.15739 0.0
H2771 H 0.41123 0.62115 0.113 0.0
H2772 H 0.37524 0.68937 0.10942 0.0
H2773 H 0.37707 0.69266 0.15932 0.0
C2774 C 0.39437 0.65923 0.19412 0.0
C2775 C 0.40446 0.64043 0.20953 0.0
C2776 C 0.39526 0.65874 0.16525 0.0
C2777 C 0.41601 0.62158 0.19583 0.0
C2778 C 0.41656 0.62072 0.1673 0.0
C2779 C 0.40428 0.63699 0.12313 0.0
C2780 C 0.39307 0.65498 0.10752 0.0
C2781 C 0.40573 0.63888 0.15178 0.0
C2782 C 0.38415 0.6754 0.12092 0.0
C2783 C 0.38503 0.67717 0.1495 0.0
H2784 H 0.14257 0.66667 0.85938 0.0
H2785 H 0.0831 0.61747 0.85713 0.0
H2786 H 0.08036 0.6185 0.90704 0.0
H2787 H 0.09784 0.63025 0.95174 0.0
H2788 H 0.15507 0.682 0.95375 0.0
H2789 H 0.15557 0.68351 0.90378 0.0
C2790 C 0.12867 0.65663 0.86984 0.0
C2791 C 0.11305 0.642 0.85458 0.0
C2792 C 0.12687 0.65775 0.89857 0.0
C2793 C 0.09515 0.62905 0.86838 0.0
C2794 C 0.0937 0.62951 0.89696 0.0
C2795 C 0.10987 0.64239 0.94117 0.0
C2796 C 0.12624 0.65622 0.95638 0.0
C2797 C 0.10981 0.64338 0.91234 0.0
C2798 C 0.14203 0.67156 0.94248 0.0
C2799 C 0.14247 0.67223 0.91389 0.0
H2800 H 0.117 0.34658 0.69725 0.0
H2801 H 0.1187 0.42372 0.70225 0.0
H2802 H 0.11931 0.42668 0.65267 0.0
H2803 H 0.12326 0.40775 0.60816 0.0
H2804 H 0.12262 0.33071 0.60123 0.0
H2805 H 0.11737 0.32725 0.65089 0.0
C2806 C 0.1169 0.36395 0.68735 0.0
C2807 C 0.11762 0.38497 0.70343 0.0
C2808 C 0.11773 0.36554 0.65844 0.0
C2809 C 0.11798 0.40736 0.69035 0.0
C2810 C 0.11846 0.40906 0.66196 0.0
C2811 C 0.12173 0.39013 0.61737 0.0
C2812 C 0.12356 0.36952 0.60085 0.0
C2813 C 0.11896 0.38832 0.64583 0.0
C2814 C 0.12123 0.3469 0.61332 0.0
C2815 C 0.11837 0.34493 0.64181 0.0
loop_
_geom_bond_atom_site_label_1
_geom_bond_atom_site_label_2
_geom_bond_distance
_geom_bond_site_symmetry_2
_ccdc_geom_bond_type
Sm0 C2 2.846 . S
Sm0 O20 2.543 . S
Sm0 O21 2.450 . S
Sm0 O22 2.681 . S
Sm0 O23 2.464 . S
Sm0 O24 2.396 . S
Sm0 O28 2.386 . S
Sm0 O31 2.408 . S
Sm1 C11 2.846 . S
Sm1 O22 2.386 . S
Sm1 O25 2.408 . S
Sm1 O26 2.543 . S
Sm1 O27 2.450 . S
Sm1 O28 2.681 . S
Sm1 O29 2.464 . S
Sm1 O30 2.396 . S
C2 Sm0 2.846 . S
C2 C3 1.506 . S
C2 O20 1.261 . S
C2 O21 1.242 . S
C3 C2 1.506 . S
C3 C4 1.358 . S
C3 C8 1.382 . S
C4 C3 1.358 . S
C4 C5 1.385 . S
C4 H32 0.930 . S
C5 C4 1.385 . S
C5 C6 1.395 . S
C5 H33 0.929 . S
C6 C5 1.395 . S
C6 C7 1.335 . S
C7 C6 1.335 . S
C7 C8 1.398 . S
C7 H34 0.930 . S
C8 C3 1.382 . S
C8 C7 1.398 . S
C8 H35 0.929 . S
C9 O22 1.271 . S
C9 O23 1.251 . S
C10 O24 1.252 . S
C10 O25 1.272 . S
C11 Sm1 2.846 . S
C11 C12 1.506 . S
C11 O26 1.261 . S
C11 O27 1.242 . S
C12 C11 1.506 . S
C12 C13 1.358 . S
C12 C17 1.382 . S
C13 C12 1.358 . S
C13 C14 1.385 . S
C13 H36 0.930 . S
C14 C13 1.385 . S
C14 C15 1.395 . S
C14 H37 0.929 . S
C15 C14 1.395 . S
C15 C16 1.335 . S
C16 C15 1.335 . S
C16 C17 1.398 . S
C16 H38 0.930 1_455 S
C17 C12 1.382 . S
C17 C16 1.398 . S
C17 H39 0.929 . S
C18 O28 1.271 . S
C18 O29 1.251 . S
C19 O30 1.252 . S
C19 O31 1.272 . S
O20 Sm0 2.543 . S
O20 C2 1.261 . S
O21 Sm0 2.450 . S
O21 C2 1.242 . S
O22 Sm0 2.681 . S
O22 Sm1 2.386 . S
O22 C9 1.271 . S
O23 Sm0 2.464 . S
O23 C9 1.251 . S
O24 Sm0 2.396 . S
O24 C10 1.252 . S
O25 Sm1 2.408 . S
O25 C10 1.272 . S
O26 Sm1 2.543 . S
O26 C11 1.261 . S
O27 Sm1 2.450 . S
O27 C11 1.242 . S
O28 Sm0 2.386 . S
O28 Sm1 2.681 . S
O28 C18 1.271 . S
O29 Sm1 2.464 . S
O29 C18 1.251 . S
O30 Sm1 2.396 . S
O30 C19 1.252 . S
O31 Sm0 2.408 . S
O31 C19 1.272 . S
H32 C4 0.930 . S
H33 C5 0.929 . S
H34 C7 0.930 . S
H35 C8 0.929 . S
H36 C13 0.930 . S
H37 C14 0.929 . S
H38 C16 0.930 1_655 S
H39 C17 0.929 . S
Sm40 C42 2.846 . S
Sm40 O60 2.543 . S
Sm40 O61 2.450 . S
Sm40 O62 2.681 . S
Sm40 O63 2.464 . S
Sm40 O64 2.396 . S
Sm40 O68 2.386 . S
Sm40 O71 2.408 . S
Sm41 C51 2.846 . S
Sm41 O62 2.386 . S
Sm41 O65 2.408 . S
Sm41 O66 2.543 . S
Sm41 O67 2.450 . S
Sm41 O68 2.681 . S
Sm41 O69 2.464 . S
Sm41 O70 2.396 . S
C42 Sm40 2.846 . S
C42 C43 1.506 . S
C42 O60 1.261 . S
C42 O61 1.242 . S
C43 C42 1.506 . S
C43 C44 1.358 . S
C43 C48 1.382 . S
C44 C43 1.358 . S
C44 C45 1.385 . S
C44 H72 0.930 . S
C45 C44 1.385 . S
C45 C46 1.425 . S
C45 H73 0.929 . S
C46 C45 1.425 . S
C46 C47 1.334 . S
C47 C46 1.334 . S
C47 C48 1.399 . S
C47 H74 0.929 1_565 S
C48 C43 1.382 . S
C48 C47 1.399 . S
C48 H75 0.929 . S
C49 O62 1.271 . S
C49 O63 1.251 . S
C50 O64 1.252 . S
C50 O65 1.272 . S
C51 Sm41 2.846 . S
C51 C52 1.506 . S
C51 O66 1.261 . S
C51 O67 1.242 . S
C52 C51 1.506 . S
C52 C53 1.358 . S
C52 C57 1.382 . S
C53 C52 1.358 . S
C53 C54 1.385 . S
C53 H76 0.930 . S
C54 C53 1.385 . S
C54 C55 1.395 . S
C54 H77 0.929 . S
C55 C54 1.395 . S
C55 C56 1.335 . S
C56 C55 1.335 . S
C56 C57 1.398 . S
C56 H78 0.930 . S
C57 C52 1.382 . S
C57 C56 1.398 . S
C57 H79 0.929 . S
C58 O68 1.271 . S
C58 O69 1.251 . S
C59 O70 1.252 . S
C59 O71 1.272 . S
O60 Sm40 2.543 . S
O60 C42 1.261 . S
O61 Sm40 2.450 . S
O61 C42 1.242 . S
O62 Sm40 2.681 . S
O62 Sm41 2.386 . S
O62 C49 1.271 . S
O63 Sm40 2.464 . S
O63 C49 1.251 . S
O64 Sm40 2.396 . S
O64 C50 1.252 . S
O65 Sm41 2.408 . S
O65 C50 1.272 . S
O66 Sm41 2.543 . S
O66 C51 1.261 . S
O67 Sm41 2.450 . S
O67 C51 1.242 . S
O68 Sm40 2.386 . S
O68 Sm41 2.681 . S
O68 C58 1.271 . S
O69 Sm41 2.464 . S
O69 C58 1.251 . S
O70 Sm41 2.396 . S
O70 C59 1.252 . S
O71 Sm40 2.408 . S
O71 C59 1.272 . S
H72 C44 0.930 . S
H73 C45 0.929 . S
H74 C47 0.929 1_545 S
H75 C48 0.929 . S
H76 C53 0.930 . S
H77 C54 0.929 . S
H78 C56 0.930 . S
H79 C57 0.929 . S
Sm80 C82 2.846 . S
Sm80 O100 2.543 . S
Sm80 O101 2.450 . S
Sm80 O102 2.681 . S
Sm80 O103 2.464 . S
Sm80 O104 2.396 . S
Sm80 O108 2.386 . S
Sm80 O111 2.408 . S
Sm81 C91 2.846 . S
Sm81 O102 2.386 . S
Sm81 O105 2.408 . S
Sm81 O106 2.543 . S
Sm81 O107 2.450 . S
Sm81 O108 2.681 . S
Sm81 O109 2.464 . S
Sm81 O110 2.396 . S
C82 Sm80 2.846 . S
C82 C83 1.506 . S
C82 O100 1.261 . S
C82 O101 1.242 . S
C83 C82 1.506 . S
C83 C84 1.358 . S
C83 C88 1.382 . S
C84 C83 1.358 . S
C84 C85 1.385 . S
C84 H112 0.930 . S
C85 C84 1.385 . S
C85 C86 1.395 . S
C85 H113 0.929 . S
C86 C85 1.395 . S
C86 C87 1.335 . S
C87 C86 1.335 . S
C87 C88 1.398 . S
C87 H114 0.930 . S
C88 C83 1.382 . S
C88 C87 1.398 . S
C88 H115 0.929 . S
C89 O102 1.271 . S
C89 O103 1.251 . S
C90 O104 1.252 . S
C90 O105 1.272 . S
C91 Sm81 2.846 . S
C91 C92 1.506 . S
C91 O106 1.261 . S
C91 O107 1.242 . S
C92 C91 1.506 . S
C92 C93 1.358 . S
C92 C97 1.382 . S
C93 C92 1.358 . S
C93 C94 1.385 . S
C93 H116 0.930 . S
C94 C93 1.385 . S
C94 C95 1.395 . S
C94 H117 0.929 . S
C95 C94 1.395 . S
C95 C96 1.335 . S
C96 C95 1.335 . S
C96 C97 1.398 . S
C96 H118 0.930 . S
C97 C92 1.382 . S
C97 C96 1.398 . S
C97 H119 0.929 . S
C98 O108 1.271 . S
C98 O109 1.251 . S
C99 O110 1.252 . S
C99 O111 1.272 . S
O100 Sm80 2.543 . S
O100 C82 1.261 . S
O101 Sm80 2.450 . S
O101 C82 1.242 . S
O102 Sm80 2.681 . S
O102 Sm81 2.386 . S
O102 C89 1.271 . S
O103 Sm80 2.464 . S
O103 C89 1.251 . S
O104 Sm80 2.396 . S
O104 C90 1.252 . S
O105 Sm81 2.408 . S
O105 C90 1.272 . S
O106 Sm81 2.543 . S
O106 C91 1.261 . S
O107 Sm81 2.450 . S
O107 C91 1.242 . S
O108 Sm80 2.386 . S
O108 Sm81 2.681 . S
O108 C98 1.271 . S
O109 Sm81 2.464 . S
O109 C98 1.251 . S
O110 Sm81 2.396 . S
O110 C99 1.252 . S
O111 Sm80 2.408 . S
O111 C99 1.272 . S
H112 C84 0.930 . S
H113 C85 0.929 . S
H114 C87 0.930 . S
H115 C88 0.929 . S
H116 C93 0.930 . S
H117 C94 0.929 . S
H118 C96 0.930 . S
H119 C97 0.929 . S
Sm120 C122 2.846 1_554 S
Sm120 O140 2.543 1_554 S
Sm120 O141 2.457 . S
Sm120 O142 2.681 . S
Sm120 O143 2.464 . S
Sm120 O144 2.396 1_554 S
Sm120 O148 2.386 . S
Sm120 O151 2.408 . S
Sm121 C131 2.846 . S
Sm121 O142 2.386 . S
Sm121 O145 2.408 1_554 S
Sm121 O146 2.543 . S
Sm121 O147 2.450 . S
Sm121 O148 2.681 . S
Sm121 O149 2.464 . S
Sm121 O150 2.396 . S
C122 Sm120 2.846 1_556 S
C122 C123 1.506 . S
C122 O140 1.261 . S
C122 O141 1.230 1_556 S
C123 C122 1.506 . S
C123 C124 1.358 . S
C123 C128 1.382 . S
C124 C123 1.358 . S
C124 C125 1.385 . S
C124 H152 0.930 . S
C125 C124 1.385 . S
C125 C126 1.425 . S
C125 H153 0.929 . S
C126 C125 1.425 . S
C126 C127 1.334 . S
C127 C126 1.334 . S
C127 C128 1.399 . S
C127 H154 0.929 1_545 S
C128 C123 1.382 . S
C128 C127 1.399 . S
C128 H155 0.929 . S
C129 O142 1.271 . S
C129 O143 1.251 . S
C130 O144 1.252 . S
C130 O145 1.272 . S
C131 Sm121 2.846 . S
C131 C132 1.506 . S
C131 O146 1.261 . S
C131 O147 1.242 . S
C132 C131 1.506 . S
C132 C133 1.358 . S
C132 C137 1.382 . S
C133 C132 1.358 . S
C133 C134 1.385 . S
C133 H156 0.930 . S
C134 C133 1.385 . S
C134 C135 1.395 . S
C134 H157 0.929 . S
C135 C134 1.395 . S
C135 C136 1.335 . S
C136 C135 1.335 . S
C136 C137 1.398 . S
C136 H158 0.930 . S
C137 C132 1.382 . S
C137 C136 1.398 . S
C137 H159 0.929 . S
C138 O148 1.271 . S
C138 O149 1.251 . S
C139 O150 1.252 . S
C139 O151 1.272 . S
O140 Sm120 2.543 1_556 S
O140 C122 1.261 . S
O141 Sm120 2.457 . S
O141 C122 1.230 1_554 S
O142 Sm120 2.681 . S
O142 Sm121 2.386 . S
O142 C129 1.271 . S
O143 Sm120 2.464 . S
O143 C129 1.251 . S
O144 Sm120 2.396 1_556 S
O144 C130 1.252 . S
O145 Sm121 2.408 1_556 S
O145 C130 1.272 . S
O146 Sm121 2.543 . S
O146 C131 1.261 . S
O147 Sm121 2.450 . S
O147 C131 1.242 . S
O148 Sm120 2.386 . S
O148 Sm121 2.681 . S
O148 C138 1.271 . S
O149 Sm121 2.464 . S
O149 C138 1.251 . S
O150 Sm121 2.396 . S
O150 C139 1.252 . S
O151 Sm120 2.408 . S
O151 C139 1.272 . S
H152 C124 0.930 . S
H153 C125 0.929 . S
H154 C127 0.929 1_565 S
H155 C128 0.929 . S
H156 C133 0.930 . S
H157 C134 0.929 . S
H158 C136 0.930 . S
H159 C137 0.929 . S
Sm160 C162 2.846 . S
Sm160 O180 2.543 . S
Sm160 O181 2.450 . S
Sm160 O182 2.681 . S
Sm160 O183 2.464 . S
Sm160 O184 2.396 . S
Sm160 O188 2.386 . S
Sm160 O191 2.408 . S
Sm161 C171 2.846 . S
Sm161 O182 2.386 . S
Sm161 O185 2.408 . S
Sm161 O186 2.543 . S
Sm161 O187 2.450 . S
Sm161 O188 2.681 . S
Sm161 O189 2.464 . S
Sm161 O190 2.396 . S
C162 Sm160 2.846 . S
C162 C163 1.506 . S
C162 O180 1.261 . S
C162 O181 1.242 . S
C163 C162 1.506 . S
C163 C164 1.358 . S
C163 C168 1.382 . S
C164 C163 1.358 . S
C164 C165 1.385 . S
C164 H192 0.930 . S
C165 C164 1.385 . S
C165 C166 1.395 . S
C165 H193 0.929 . S
C166 C165 1.395 . S
C166 C167 1.335 . S
C167 C166 1.335 . S
C167 C168 1.398 . S
C167 H194 0.930 . S
C168 C163 1.382 . S
C168 C167 1.398 . S
C168 H195 0.929 . S
C169 O182 1.271 . S
C169 O183 1.251 . S
C170 O184 1.252 . S
C170 O185 1.272 . S
C171 Sm161 2.846 . S
C171 C172 1.506 . S
C171 O186 1.261 . S
C171 O187 1.242 . S
C172 C171 1.506 . S
C172 C173 1.358 . S
C172 C177 1.382 . S
C173 C172 1.358 . S
C173 C174 1.385 . S
C173 H196 0.930 . S
C174 C173 1.385 . S
C174 C175 1.395 . S
C174 H197 0.929 . S
C175 C174 1.395 . S
C175 C176 1.335 . S
C176 C175 1.335 . S
C176 C177 1.398 . S
C176 H198 0.930 1_455 S
C177 C172 1.382 . S
C177 C176 1.398 . S
C177 H199 0.929 . S
C178 O188 1.271 . S
C178 O189 1.251 . S
C179 O190 1.252 . S
C179 O191 1.272 . S
O180 Sm160 2.543 . S
O180 C162 1.261 . S
O181 Sm160 2.450 . S
O181 C162 1.242 . S
O182 Sm160 2.681 . S
O182 Sm161 2.386 . S
O182 C169 1.271 . S
O183 Sm160 2.464 . S
O183 C169 1.251 . S
O184 Sm160 2.396 . S
O184 C170 1.252 . S
O185 Sm161 2.408 . S
O185 C170 1.272 . S
O186 Sm161 2.543 . S
O186 C171 1.261 . S
O187 Sm161 2.450 . S
O187 C171 1.242 . S
O188 Sm160 2.386 . S
O188 Sm161 2.681 . S
O188 C178 1.271 . S
O189 Sm161 2.464 . S
O189 C178 1.251 . S
O190 Sm161 2.396 . S
O190 C179 1.252 . S
O191 Sm160 2.408 . S
O191 C179 1.272 . S
H192 C164 0.930 . S
H193 C165 0.929 . S
H194 C167 0.930 . S
H195 C168 0.929 . S
H196 C173 0.930 . S
H197 C174 0.929 . S
H198 C176 0.930 1_655 S
H199 C177 0.929 . S
Sm200 C202 2.846 . S
Sm200 O220 2.543 . S
Sm200 O221 2.450 . S
Sm200 O222 2.681 . S
Sm200 O223 2.464 . S
Sm200 O224 2.396 . S
Sm200 O228 2.386 . S
Sm200 O231 2.408 . S
Sm201 C211 2.846 . S
Sm201 O222 2.386 . S
Sm201 O225 2.408 . S
Sm201 O226 2.543 . S
Sm201 O227 2.450 . S
Sm201 O228 2.681 . S
Sm201 O229 2.464 . S
Sm201 O230 2.396 . S
C202 Sm200 2.846 . S
C202 C203 1.506 . S
C202 O220 1.261 . S
C202 O221 1.242 . S
C203 C202 1.506 . S
C203 C204 1.358 . S
C203 C208 1.382 . S
C204 C203 1.358 . S
C204 C205 1.385 . S
C204 H232 0.930 . S
C205 C204 1.385 . S
C205 C206 1.425 . S
C205 H233 0.929 . S
C206 C205 1.425 . S
C206 C207 1.334 . S
C207 C206 1.334 . S
C207 C208 1.399 . S
C207 H234 0.929 1_565 S
C208 C203 1.382 . S
C208 C207 1.399 . S
C208 H235 0.929 . S
C209 O222 1.271 . S
C209 O223 1.251 . S
C210 O224 1.252 . S
C210 O225 1.272 . S
C211 Sm201 2.846 . S
C211 C212 1.506 . S
C211 O226 1.261 . S
C211 O227 1.242 . S
C212 C211 1.506 . S
C212 C213 1.358 . S
C212 C217 1.382 . S
C213 C212 1.358 . S
C213 C214 1.385 . S
C213 H236 0.930 . S
C214 C213 1.385 . S
C214 C215 1.395 . S
C214 H237 0.929 . S
C215 C214 1.395 . S
C215 C216 1.335 . S
C216 C215 1.335 . S
C216 C217 1.398 . S
C216 H238 0.930 . S
C217 C212 1.382 . S
C217 C216 1.398 . S
C217 H239 0.929 . S
C218 O228 1.271 . S
C218 O229 1.251 . S
C219 O230 1.252 . S
C219 O231 1.272 . S
O220 Sm200 2.543 . S
O220 C202 1.261 . S
O221 Sm200 2.450 . S
O221 C202 1.242 . S
O222 Sm200 2.681 . S
O222 Sm201 2.386 . S
O222 C209 1.271 . S
O223 Sm200 2.464 . S
O223 C209 1.251 . S
O224 Sm200 2.396 . S
O224 C210 1.252 . S
O225 Sm201 2.408 . S
O225 C210 1.272 . S
O226 Sm201 2.543 . S
O226 C211 1.261 . S
O227 Sm201 2.450 . S
O227 C211 1.242 . S
O228 Sm200 2.386 . S
O228 Sm201 2.681 . S
O228 C218 1.271 . S
O229 Sm201 2.464 . S
O229 C218 1.251 . S
O230 Sm201 2.396 . S
O230 C219 1.252 . S
O231 Sm200 2.408 . S
O231 C219 1.272 . S
H232 C204 0.930 . S
H233 C205 0.929 . S
H234 C207 0.929 1_545 S
H235 C208 0.929 . S
H236 C213 0.930 . S
H237 C214 0.929 . S
H238 C216 0.930 . S
H239 C217 0.929 . S
Sm240 C242 2.846 . S
Sm240 O260 2.543 . S
Sm240 O261 2.450 . S
Sm240 O262 2.681 . S
Sm240 O263 2.464 . S
Sm240 O264 2.396 . S
Sm240 O268 2.386 . S
Sm240 O271 2.408 . S
Sm241 C251 2.846 . S
Sm241 O262 2.386 . S
Sm241 O265 2.408 . S
Sm241 O266 2.543 . S
Sm241 O267 2.450 . S
Sm241 O268 2.681 . S
Sm241 O269 2.464 . S
Sm241 O270 2.396 . S
C242 Sm240 2.846 . S
C242 C243 1.506 . S
C242 O260 1.261 . S
C242 O261 1.242 . S
C243 C242 1.506 . S
C243 C244 1.358 . S
C243 C248 1.382 . S
C244 C243 1.358 . S
C244 C245 1.385 . S
C244 H272 0.930 . S
C245 C244 1.385 . S
C245 C246 1.395 . S
C245 H273 0.929 . S
C246 C245 1.395 . S
C246 C247 1.335 . S
C247 C246 1.335 . S
C247 C248 1.398 . S
C247 H274 0.930 . S
C248 C243 1.382 . S
C248 C247 1.398 . S
C248 H275 0.929 . S
C249 O262 1.271 . S
C249 O263 1.251 . S
C250 O264 1.252 . S
C250 O265 1.272 . S
C251 Sm241 2.846 . S
C251 C252 1.506 . S
C251 O266 1.261 . S
C251 O267 1.242 . S
C252 C251 1.506 . S
C252 C253 1.358 . S
C252 C257 1.382 . S
C253 C252 1.358 . S
C253 C254 1.385 . S
C253 H276 0.930 . S
C254 C253 1.385 . S
C254 C255 1.395 . S
C254 H277 0.929 . S
C255 C254 1.395 . S
C255 C256 1.335 . S
C256 C255 1.335 . S
C256 C257 1.398 . S
C256 H278 0.930 . S
C257 C252 1.382 . S
C257 C256 1.398 . S
C257 H279 0.929 . S
C258 O268 1.271 . S
C258 O269 1.251 . S
C259 O270 1.252 . S
C259 O271 1.272 . S
O260 Sm240 2.543 . S
O260 C242 1.261 . S
O261 Sm240 2.450 . S
O261 C242 1.242 . S
O262 Sm240 2.681 . S
O262 Sm241 2.386 . S
O262 C249 1.271 . S
O263 Sm240 2.464 . S
O263 C249 1.251 . S
O264 Sm240 2.396 . S
O264 C250 1.252 . S
O265 Sm241 2.408 . S
O265 C250 1.272 . S
O266 Sm241 2.543 . S
O266 C251 1.261 . S
O267 Sm241 2.450 . S
O267 C251 1.242 . S
O268 Sm240 2.386 . S
O268 Sm241 2.681 . S
O268 C258 1.271 . S
O269 Sm241 2.464 . S
O269 C258 1.251 . S
O270 Sm241 2.396 . S
O270 C259 1.252 . S
O271 Sm240 2.408 . S
O271 C259 1.272 . S
H272 C244 0.930 . S
H273 C245 0.929 . S
H274 C247 0.930 . S
H275 C248 0.929 . S
H276 C253 0.930 . S
H277 C254 0.929 . S
H278 C256 0.930 . S
H279 C257 0.929 . S
Sm280 C282 2.846 1_556 S
Sm280 O300 2.543 1_556 S
Sm280 O301 2.457 . S
Sm280 O302 2.681 . S
Sm280 O303 2.464 . S
Sm280 O304 2.396 1_556 S
Sm280 O308 2.386 . S
Sm280 O311 2.408 . S
Sm281 C291 2.846 . S
Sm281 O302 2.386 . S
Sm281 O305 2.408 1_556 S
Sm281 O306 2.543 . S
Sm281 O307 2.450 . S
Sm281 O308 2.681 . S
Sm281 O309 2.464 . S
Sm281 O310 2.396 . S
C282 Sm280 2.846 1_554 S
C282 C283 1.506 . S
C282 O300 1.261 . S
C282 O301 1.230 1_554 S
C283 C282 1.506 . S
C283 C284 1.358 . S
C283 C288 1.382 . S
C284 C283 1.358 . S
C284 C285 1.385 . S
C284 H312 0.930 . S
C285 C284 1.385 . S
C285 C286 1.425 . S
C285 H313 0.929 . S
C286 C285 1.425 . S
C286 C287 1.334 . S
C287 C286 1.334 . S
C287 C288 1.399 . S
C287 H314 0.929 1_545 S
C288 C283 1.382 . S
C288 C287 1.399 . S
C288 H315 0.929 . S
C289 O302 1.271 . S
C289 O303 1.251 . S
C290 O304 1.252 . S
C290 O305 1.272 . S
C291 Sm281 2.846 . S
C291 C292 1.506 . S
C291 O306 1.261 . S
C291 O307 1.242 . S
C292 C291 1.506 . S
C292 C293 1.358 . S
C292 C297 1.382 . S
C293 C292 1.358 . S
C293 C294 1.385 . S
C293 H316 0.930 . S
C294 C293 1.385 . S
C294 C295 1.395 . S
C294 H317 0.929 . S
C295 C294 1.395 . S
C295 C296 1.335 . S
C296 C295 1.335 . S
C296 C297 1.398 . S
C296 H318 0.930 . S
C297 C292 1.382 . S
C297 C296 1.398 . S
C297 H319 0.929 . S
C298 O308 1.271 . S
C298 O309 1.251 . S
C299 O310 1.252 . S
C299 O311 1.272 . S
O300 Sm280 2.543 1_554 S
O300 C282 1.261 . S
O301 Sm280 2.457 . S
O301 C282 1.230 1_556 S
O302 Sm280 2.681 . S
O302 Sm281 2.386 . S
O302 C289 1.271 . S
O303 Sm280 2.464 . S
O303 C289 1.251 . S
O304 Sm280 2.396 1_554 S
O304 C290 1.252 . S
O305 Sm281 2.408 1_554 S
O305 C290 1.272 . S
O306 Sm281 2.543 . S
O306 C291 1.261 . S
O307 Sm281 2.450 . S
O307 C291 1.242 . S
O308 Sm280 2.386 . S
O308 Sm281 2.681 . S
O308 C298 1.271 . S
O309 Sm281 2.464 . S
O309 C298 1.251 . S
O310 Sm281 2.396 . S
O310 C299 1.252 . S
O311 Sm280 2.408 . S
O311 C299 1.272 . S
H312 C284 0.930 . S
H313 C285 0.929 . S
H314 C287 0.929 1_565 S
H315 C288 0.929 . S
H316 C293 0.930 . S
H317 C294 0.929 . S
H318 C296 0.930 . S
H319 C297 0.929 . S
Sm320 C322 2.846 . S
Sm320 O340 2.543 . S
Sm320 O341 2.450 . S
Sm320 O342 2.681 . S
Sm320 O343 2.464 . S
Sm320 O344 2.396 . S
Sm320 O348 2.386 . S
Sm320 O351 2.408 . S
Sm321 C331 2.846 . S
Sm321 O342 2.386 . S
Sm321 O345 2.408 . S
Sm321 O346 2.543 . S
Sm321 O347 2.450 . S
Sm321 O348 2.681 . S
Sm321 O349 2.464 . S
Sm321 O350 2.396 . S
C322 Sm320 2.846 . S
C322 C323 1.506 . S
C322 O340 1.261 . S
C322 O341 1.242 . S
C323 C322 1.506 . S
C323 C324 1.358 . S
C323 C328 1.382 . S
C324 C323 1.358 . S
C324 C325 1.385 . S
C324 H352 0.930 . S
C325 C324 1.385 . S
C325 C326 1.395 . S
C325 H353 0.929 . S
C326 C325 1.395 . S
C326 C327 1.335 . S
C327 C326 1.335 . S
C327 C328 1.398 . S
C327 H354 0.930 1_655 S
C328 C323 1.382 . S
C328 C327 1.398 . S
C328 H355 0.929 . S
C329 O342 1.271 . S
C329 O343 1.251 . S
C330 O344 1.252 . S
C330 O345 1.272 . S
C331 Sm321 2.846 . S
C331 C332 1.506 . S
C331 O346 1.261 . S
C331 O347 1.242 . S
C332 C331 1.506 . S
C332 C333 1.358 . S
C332 C337 1.382 . S
C333 C332 1.358 . S
C333 C334 1.385 . S
C333 H356 0.930 . S
C334 C333 1.385 . S
C334 C335 1.395 . S
C334 H357 0.929 . S
C335 C334 1.395 . S
C335 C336 1.335 . S
C336 C335 1.335 . S
C336 C337 1.398 . S
C336 H358 0.930 . S
C337 C332 1.382 . S
C337 C336 1.398 . S
C337 H359 0.929 . S
C338 O348 1.271 . S
C338 O349 1.251 . S
C339 O350 1.252 . S
C339 O351 1.272 . S
O340 Sm320 2.543 . S
O340 C322 1.261 . S
O341 Sm320 2.450 . S
O341 C322 1.242 . S
O342 Sm320 2.681 . S
O342 Sm321 2.386 . S
O342 C329 1.271 . S
O343 Sm320 2.464 . S
O343 C329 1.251 . S
O344 Sm320 2.396 . S
O344 C330 1.252 . S
O345 Sm321 2.408 . S
O345 C330 1.272 . S
O346 Sm321 2.543 . S
O346 C331 1.261 . S
O347 Sm321 2.450 . S
O347 C331 1.242 . S
O348 Sm320 2.386 . S
O348 Sm321 2.681 . S
O348 C338 1.271 . S
O349 Sm321 2.464 . S
O349 C338 1.251 . S
O350 Sm321 2.396 . S
O350 C339 1.252 . S
O351 Sm320 2.408 . S
O351 C339 1.272 . S
H352 C324 0.930 . S
H353 C325 0.929 . S
H354 C327 0.930 1_455 S
H355 C328 0.929 . S
H356 C333 0.930 . S
H357 C334 0.929 . S
H358 C336 0.930 . S
H359 C337 0.929 . S
Sm360 C362 2.846 . S
Sm360 O380 2.543 . S
Sm360 O381 2.450 . S
Sm360 O382 2.681 . S
Sm360 O383 2.464 . S
Sm360 O384 2.396 . S
Sm360 O388 2.386 . S
Sm360 O391 2.408 . S
Sm361 C371 2.846 . S
Sm361 O382 2.386 . S
Sm361 O385 2.408 . S
Sm361 O386 2.543 . S
Sm361 O387 2.450 . S
Sm361 O388 2.681 . S
Sm361 O389 2.464 . S
Sm361 O390 2.396 . S
C362 Sm360 2.846 . S
C362 C363 1.506 . S
C362 O380 1.261 . S
C362 O381 1.242 . S
C363 C362 1.506 . S
C363 C364 1.358 . S
C363 C368 1.382 . S
C364 C363 1.358 . S
C364 C365 1.385 . S
C364 H392 0.930 . S
C365 C364 1.385 . S
C365 C366 1.395 . S
C365 H393 0.929 . S
C366 C365 1.395 . S
C366 C367 1.335 . S
C367 C366 1.335 . S
C367 C368 1.398 . S
C367 H394 0.930 . S
C368 C363 1.382 . S
C368 C367 1.398 . S
C368 H395 0.929 . S
C369 O382 1.271 . S
C369 O383 1.251 . S
C370 O384 1.252 . S
C370 O385 1.272 . S
C371 Sm361 2.846 . S
C371 C372 1.506 . S
C371 O386 1.261 . S
C371 O387 1.242 . S
C372 C371 1.506 . S
C372 C373 1.358 . S
C372 C377 1.382 . S
C373 C372 1.358 . S
C373 C374 1.385 . S
C373 H396 0.930 . S
C374 C373 1.385 . S
C374 C375 1.425 . S
C374 H397 0.929 . S
C375 C374 1.425 . S
C375 C376 1.334 . S
C376 C375 1.334 . S
C376 C377 1.399 . S
C376 H398 0.929 1_545 S
C377 C372 1.382 . S
C377 C376 1.399 . S
C377 H399 0.929 . S
C378 O388 1.271 . S
C378 O389 1.251 . S
C379 O390 1.252 . S
C379 O391 1.272 . S
O380 Sm360 2.543 . S
O380 C362 1.261 . S
O381 Sm360 2.450 . S
O381 C362 1.242 . S
O382 Sm360 2.681 . S
O382 Sm361 2.386 . S
O382 C369 1.271 . S
O383 Sm360 2.464 . S
O383 C369 1.251 . S
O384 Sm360 2.396 . S
O384 C370 1.252 . S
O385 Sm361 2.408 . S
O385 C370 1.272 . S
O386 Sm361 2.543 . S
O386 C371 1.261 . S
O387 Sm361 2.450 . S
O387 C371 1.242 . S
O388 Sm360 2.386 . S
O388 Sm361 2.681 . S
O388 C378 1.271 . S
O389 Sm361 2.464 . S
O389 C378 1.251 . S
O390 Sm361 2.396 . S
O390 C379 1.252 . S
O391 Sm360 2.408 . S
O391 C379 1.272 . S
H392 C364 0.930 . S
H393 C365 0.929 . S
H394 C367 0.930 . S
H395 C368 0.929 . S
H396 C373 0.930 . S
H397 C374 0.929 . S
H398 C376 0.929 1_565 S
H399 C377 0.929 . S
Sm400 C402 2.846 . S
Sm400 O420 2.543 . S
Sm400 O421 2.450 . S
Sm400 O422 2.681 . S
Sm400 O423 2.464 . S
Sm400 O424 2.396 . S
Sm400 O428 2.386 . S
Sm400 O431 2.408 . S
Sm401 C411 2.846 . S
Sm401 O422 2.386 . S
Sm401 O425 2.408 . S
Sm401 O426 2.543 . S
Sm401 O427 2.450 . S
Sm401 O428 2.681 . S
Sm401 O429 2.464 . S
Sm401 O430 2.396 . S
C402 Sm400 2.846 . S
C402 C403 1.506 . S
C402 O420 1.261 . S
C402 O421 1.242 . S
C403 C402 1.506 . S
C403 C404 1.358 . S
C403 C408 1.382 . S
C404 C403 1.358 . S
C404 C405 1.385 . S
C404 H432 0.930 . S
C405 C404 1.385 . S
C405 C406 1.395 . S
C405 H433 0.929 . S
C406 C405 1.395 . S
C406 C407 1.335 . S
C407 C406 1.335 . S
C407 C408 1.398 . S
C407 H434 0.930 . S
C408 C403 1.382 . S
C408 C407 1.398 . S
C408 H435 0.929 . S
C409 O422 1.271 . S
C409 O423 1.251 . S
C410 O424 1.252 . S
C410 O425 1.272 . S
C411 Sm401 2.846 . S
C411 C412 1.506 . S
C411 O426 1.261 . S
C411 O427 1.242 . S
C412 C411 1.506 . S
C412 C413 1.358 . S
C412 C417 1.382 . S
C413 C412 1.358 . S
C413 C414 1.385 . S
C413 H436 0.930 . S
C414 C413 1.385 . S
C414 C415 1.395 . S
C414 H437 0.929 . S
C415 C414 1.395 . S
C415 C416 1.335 . S
C416 C415 1.335 . S
C416 C417 1.398 . S
C416 H438 0.930 . S
C417 C412 1.382 . S
C417 C416 1.398 . S
C417 H439 0.929 . S
C418 O428 1.271 . S
C418 O429 1.251 . S
C419 O430 1.252 . S
C419 O431 1.272 . S
O420 Sm400 2.543 . S
O420 C402 1.261 . S
O421 Sm400 2.450 . S
O421 C402 1.242 . S
O422 Sm400 2.681 . S
O422 Sm401 2.386 . S
O422 C409 1.271 . S
O423 Sm400 2.464 . S
O423 C409 1.251 . S
O424 Sm400 2.396 . S
O424 C410 1.252 . S
O425 Sm401 2.408 . S
O425 C410 1.272 . S
O426 Sm401 2.543 . S
O426 C411 1.261 . S
O427 Sm401 2.450 . S
O427 C411 1.242 . S
O428 Sm400 2.386 . S
O428 Sm401 2.681 . S
O428 C418 1.271 . S
O429 Sm401 2.464 . S
O429 C418 1.251 . S
O430 Sm401 2.396 . S
O430 C419 1.252 . S
O431 Sm400 2.408 . S
O431 C419 1.272 . S
H432 C404 0.930 . S
H433 C405 0.929 . S
H434 C407 0.930 . S
H435 C408 0.929 . S
H436 C413 0.930 . S
H437 C414 0.929 . S
H438 C416 0.930 . S
H439 C417 0.929 . S
Sm440 C442 2.846 . S
Sm440 O460 2.543 . S
Sm440 O461 2.450 . S
Sm440 O462 2.681 . S
Sm440 O463 2.464 . S
Sm440 O464 2.396 . S
Sm440 O468 2.386 . S
Sm440 O471 2.408 1_556 S
Sm441 C451 2.846 1_556 S
Sm441 O462 2.386 . S
Sm441 O465 2.408 . S
Sm441 O466 2.543 1_556 S
Sm441 O467 2.457 . S
Sm441 O468 2.681 . S
Sm441 O469 2.464 . S
Sm441 O470 2.396 1_556 S
C442 Sm440 2.846 . S
C442 C443 1.506 . S
C442 O460 1.261 . S
C442 O461 1.242 . S
C443 C442 1.506 . S
C443 C444 1.358 . S
C443 C448 1.382 . S
C444 C443 1.358 . S
C444 C445 1.385 . S
C444 H472 0.930 . S
C445 C444 1.385 . S
C445 C446 1.395 . S
C445 H473 0.929 . S
C446 C445 1.395 . S
C446 C447 1.335 . S
C447 C446 1.335 . S
C447 C448 1.398 . S
C447 H474 0.930 . S
C448 C443 1.382 . S
C448 C447 1.398 . S
C448 H475 0.929 . S
C449 O462 1.271 . S
C449 O463 1.251 . S
C450 O464 1.252 . S
C450 O465 1.272 . S
C451 Sm441 2.846 1_554 S
C451 C452 1.506 . S
C451 O466 1.261 . S
C451 O467 1.229 1_554 S
C452 C451 1.506 . S
C452 C453 1.358 . S
C452 C457 1.382 . S
C453 C452 1.358 . S
C453 C454 1.385 . S
C453 H476 0.930 . S
C454 C453 1.385 . S
C454 C455 1.425 . S
C454 H477 0.929 . S
C455 C454 1.425 . S
C455 C456 1.334 . S
C456 C455 1.334 . S
C456 C457 1.399 . S
C456 H478 0.929 1_565 S
C457 C452 1.382 . S
C457 C456 1.399 . S
C457 H479 0.929 . S
C458 O468 1.271 . S
C458 O469 1.251 . S
C459 O470 1.252 . S
C459 O471 1.272 . S
O460 Sm440 2.543 . S
O460 C442 1.261 . S
O461 Sm440 2.450 . S
O461 C442 1.242 . S
O462 Sm440 2.681 . S
O462 Sm441 2.386 . S
O462 C449 1.271 . S
O463 Sm440 2.464 . S
O463 C449 1.251 . S
O464 Sm440 2.396 . S
O464 C450 1.252 . S
O465 Sm441 2.408 . S
O465 C450 1.272 . S
O466 Sm441 2.543 1_554 S
O466 C451 1.261 . S
O467 Sm441 2.457 . S
O467 C451 1.229 1_556 S
O468 Sm440 2.386 . S
O468 Sm441 2.681 . S
O468 C458 1.271 . S
O469 Sm441 2.464 . S
O469 C458 1.251 . S
O470 Sm441 2.396 1_554 S
O470 C459 1.252 . S
O471 Sm440 2.408 1_554 S
O471 C459 1.272 . S
H472 C444 0.930 . S
H473 C445 0.929 . S
H474 C447 0.930 . S
H475 C448 0.929 . S
H476 C453 0.930 . S
H477 C454 0.929 . S
H478 C456 0.929 1_545 S
H479 C457 0.929 . S
Sm480 C482 2.846 . S
Sm480 O500 2.543 . S
Sm480 O501 2.450 . S
Sm480 O502 2.681 . S
Sm480 O503 2.464 . S
Sm480 O504 2.396 . S
Sm480 O508 2.386 . S
Sm480 O511 2.408 . S
Sm481 C491 2.846 . S
Sm481 O502 2.386 . S
Sm481 O505 2.408 . S
Sm481 O506 2.543 . S
Sm481 O507 2.450 . S
Sm481 O508 2.681 . S
Sm481 O509 2.464 . S
Sm481 O510 2.396 . S
C482 Sm480 2.846 . S
C482 C483 1.506 . S
C482 O500 1.261 . S
C482 O501 1.242 . S
C483 C482 1.506 . S
C483 C484 1.358 . S
C483 C488 1.382 . S
C484 C483 1.358 . S
C484 C485 1.385 . S
C484 H512 0.930 . S
C485 C484 1.385 . S
C485 C486 1.395 . S
C485 H513 0.929 . S
C486 C485 1.395 . S
C486 C487 1.335 . S
C487 C486 1.335 . S
C487 C488 1.398 . S
C487 H514 0.930 1_655 S
C488 C483 1.382 . S
C488 C487 1.398 . S
C488 H515 0.929 . S
C489 O502 1.271 . S
C489 O503 1.251 . S
C490 O504 1.252 . S
C490 O505 1.272 . S
C491 Sm481 2.846 . S
C491 C492 1.506 . S
C491 O506 1.261 . S
C491 O507 1.242 . S
C492 C491 1.506 . S
C492 C493 1.358 . S
C492 C497 1.382 . S
C493 C492 1.358 . S
C493 C494 1.385 . S
C493 H516 0.930 . S
C494 C493 1.385 . S
C494 C495 1.395 . S
C494 H517 0.929 . S
C495 C494 1.395 . S
C495 C496 1.335 . S
C496 C495 1.335 . S
C496 C497 1.398 . S
C496 H518 0.930 . S
C497 C492 1.382 . S
C497 C496 1.398 . S
C497 H519 0.929 . S
C498 O508 1.271 . S
C498 O509 1.251 . S
C499 O510 1.252 . S
C499 O511 1.272 . S
O500 Sm480 2.543 . S
O500 C482 1.261 . S
O501 Sm480 2.450 . S
O501 C482 1.242 . S
O502 Sm480 2.681 . S
O502 Sm481 2.386 . S
O502 C489 1.271 . S
O503 Sm480 2.464 . S
O503 C489 1.251 . S
O504 Sm480 2.396 . S
O504 C490 1.252 . S
O505 Sm481 2.408 . S
O505 C490 1.272 . S
O506 Sm481 2.543 . S
O506 C491 1.261 . S
O507 Sm481 2.450 . S
O507 C491 1.242 . S
O508 Sm480 2.386 . S
O508 Sm481 2.681 . S
O508 C498 1.271 . S
O509 Sm481 2.464 . S
O509 C498 1.251 . S
O510 Sm481 2.396 . S
O510 C499 1.252 . S
O511 Sm480 2.408 . S
O511 C499 1.272 . S
H512 C484 0.930 . S
H513 C485 0.929 . S
H514 C487 0.930 1_455 S
H515 C488 0.929 . S
H516 C493 0.930 . S
H517 C494 0.929 . S
H518 C496 0.930 . S
H519 C497 0.929 . S
Sm520 C522 2.846 . S
Sm520 O540 2.543 . S
Sm520 O541 2.450 . S
Sm520 O542 2.681 . S
Sm520 O543 2.464 . S
Sm520 O544 2.396 . S
Sm520 O548 2.386 . S
Sm520 O551 2.408 . S
Sm521 C531 2.846 . S
Sm521 O542 2.386 . S
Sm521 O545 2.408 . S
Sm521 O546 2.543 . S
Sm521 O547 2.450 . S
Sm521 O548 2.681 . S
Sm521 O549 2.464 . S
Sm521 O550 2.396 . S
C522 Sm520 2.846 . S
C522 C523 1.506 . S
C522 O540 1.261 . S
C522 O541 1.242 . S
C523 C522 1.506 . S
C523 C524 1.358 . S
C523 C528 1.382 . S
C524 C523 1.358 . S
C524 C525 1.385 . S
C524 H552 0.930 . S
C525 C524 1.385 . S
C525 C526 1.395 . S
C525 H553 0.929 . S
C526 C525 1.395 . S
C526 C527 1.335 . S
C527 C526 1.335 . S
C527 C528 1.398 . S
C527 H554 0.930 . S
C528 C523 1.382 . S
C528 C527 1.398 . S
C528 H555 0.929 . S
C529 O542 1.271 . S
C529 O543 1.251 . S
C530 O544 1.252 . S
C530 O545 1.272 . S
C531 Sm521 2.846 . S
C531 C532 1.506 . S
C531 O546 1.261 . S
C531 O547 1.242 . S
C532 C531 1.506 . S
C532 C533 1.358 . S
C532 C537 1.382 . S
C533 C532 1.358 . S
C533 C534 1.385 . S
C533 H556 0.930 . S
C534 C533 1.385 . S
C534 C535 1.425 . S
C534 H557 0.929 . S
C535 C534 1.425 . S
C535 C536 1.334 . S
C536 C535 1.334 . S
C536 C537 1.399 . S
C536 H558 0.929 1_545 S
C537 C532 1.382 . S
C537 C536 1.399 . S
C537 H559 0.929 . S
C538 O548 1.271 . S
C538 O549 1.251 . S
C539 O550 1.252 . S
C539 O551 1.272 . S
O540 Sm520 2.543 . S
O540 C522 1.261 . S
O541 Sm520 2.450 . S
O541 C522 1.242 . S
O542 Sm520 2.681 . S
O542 Sm521 2.386 . S
O542 C529 1.271 . S
O543 Sm520 2.464 . S
O543 C529 1.251 . S
O544 Sm520 2.396 . S
O544 C530 1.252 . S
O545 Sm521 2.408 . S
O545 C530 1.272 . S
O546 Sm521 2.543 . S
O546 C531 1.261 . S
O547 Sm521 2.450 . S
O547 C531 1.242 . S
O548 Sm520 2.386 . S
O548 Sm521 2.681 . S
O548 C538 1.271 . S
O549 Sm521 2.464 . S
O549 C538 1.251 . S
O550 Sm521 2.396 . S
O550 C539 1.252 . S
O551 Sm520 2.408 . S
O551 C539 1.272 . S
H552 C524 0.930 . S
H553 C525 0.929 . S
H554 C527 0.930 . S
H555 C528 0.929 . S
H556 C533 0.930 . S
H557 C534 0.929 . S
H558 C536 0.929 1_565 S
H559 C537 0.929 . S
Sm560 C562 2.846 . S
Sm560 O580 2.543 . S
Sm560 O581 2.450 . S
Sm560 O582 2.681 . S
Sm560 O583 2.464 . S
Sm560 O584 2.396 . S
Sm560 O588 2.386 . S
Sm560 O591 2.408 . S
Sm561 C571 2.846 . S
Sm561 O582 2.386 . S
Sm561 O585 2.408 . S
Sm561 O586 2.543 . S
Sm561 O587 2.450 . S
Sm561 O588 2.681 . S
Sm561 O589 2.464 . S
Sm561 O590 2.396 . S
C562 Sm560 2.846 . S
C562 C563 1.506 . S
C562 O580 1.261 . S
C562 O581 1.242 . S
C563 C562 1.506 . S
C563 C564 1.358 . S
C563 C568 1.382 . S
C564 C563 1.358 . S
C564 C565 1.385 . S
C564 H592 0.930 . S
C565 C564 1.385 . S
C565 C566 1.395 . S
C565 H593 0.929 . S
C566 C565 1.395 . S
C566 C567 1.335 . S
C567 C566 1.335 . S
C567 C568 1.398 . S
C567 H594 0.930 . S
C568 C563 1.382 . S
C568 C567 1.398 . S
C568 H595 0.929 . S
C569 O582 1.271 . S
C569 O583 1.251 . S
C570 O584 1.252 . S
C570 O585 1.272 . S
C571 Sm561 2.846 . S
C571 C572 1.506 . S
C571 O586 1.261 . S
C571 O587 1.242 . S
C572 C571 1.506 . S
C572 C573 1.358 . S
C572 C577 1.382 . S
C573 C572 1.358 . S
C573 C574 1.385 . S
C573 H596 0.930 . S
C574 C573 1.385 . S
C574 C575 1.395 . S
C574 H597 0.929 . S
C575 C574 1.395 . S
C575 C576 1.335 . S
C576 C575 1.335 . S
C576 C577 1.398 . S
C576 H598 0.930 . S
C577 C572 1.382 . S
C577 C576 1.398 . S
C577 H599 0.929 . S
C578 O588 1.271 . S
C578 O589 1.251 . S
C579 O590 1.252 . S
C579 O591 1.272 . S
O580 Sm560 2.543 . S
O580 C562 1.261 . S
O581 Sm560 2.450 . S
O581 C562 1.242 . S
O582 Sm560 2.681 . S
O582 Sm561 2.386 . S
O582 C569 1.271 . S
O583 Sm560 2.464 . S
O583 C569 1.251 . S
O584 Sm560 2.396 . S
O584 C570 1.252 . S
O585 Sm561 2.408 . S
O585 C570 1.272 . S
O586 Sm561 2.543 . S
O586 C571 1.261 . S
O587 Sm561 2.450 . S
O587 C571 1.242 . S
O588 Sm560 2.386 . S
O588 Sm561 2.681 . S
O588 C578 1.271 . S
O589 Sm561 2.464 . S
O589 C578 1.251 . S
O590 Sm561 2.396 . S
O590 C579 1.252 . S
O591 Sm560 2.408 . S
O591 C579 1.272 . S
H592 C564 0.930 . S
H593 C565 0.929 . S
H594 C567 0.930 . S
H595 C568 0.929 . S
H596 C573 0.930 . S
H597 C574 0.929 . S
H598 C576 0.930 . S
H599 C577 0.929 . S
Sm600 C602 2.846 . S
Sm600 O620 2.543 . S
Sm600 O621 2.450 . S
Sm600 O622 2.681 . S
Sm600 O623 2.464 . S
Sm600 O624 2.396 . S
Sm600 O628 2.386 . S
Sm600 O631 2.408 1_554 S
Sm601 C611 2.846 1_554 S
Sm601 O622 2.386 . S
Sm601 O625 2.408 . S
Sm601 O626 2.543 1_554 S
Sm601 O627 2.457 . S
Sm601 O628 2.681 . S
Sm601 O629 2.464 . S
Sm601 O630 2.396 1_554 S
C602 Sm600 2.846 . S
C602 C603 1.506 . S
C602 O620 1.261 . S
C602 O621 1.242 . S
C603 C602 1.506 . S
C603 C604 1.358 . S
C603 C608 1.382 . S
C604 C603 1.358 . S
C604 C605 1.385 . S
C604 H632 0.930 . S
C605 C604 1.385 . S
C605 C606 1.395 . S
C605 H633 0.929 . S
C606 C605 1.395 . S
C606 C607 1.335 . S
C607 C606 1.335 . S
C607 C608 1.398 . S
C607 H634 0.930 . S
C608 C603 1.382 . S
C608 C607 1.398 . S
C608 H635 0.929 . S
C609 O622 1.271 . S
C609 O623 1.251 . S
C610 O624 1.252 . S
C610 O625 1.272 . S
C611 Sm601 2.846 1_556 S
C611 C612 1.506 . S
C611 O626 1.261 . S
C611 O627 1.229 1_556 S
C612 C611 1.506 . S
C612 C613 1.358 . S
C612 C617 1.382 . S
C613 C612 1.358 . S
C613 C614 1.385 . S
C613 H636 0.930 . S
C614 C613 1.385 . S
C614 C615 1.425 . S
C614 H637 0.929 . S
C615 C614 1.425 . S
C615 C616 1.334 . S
C616 C615 1.334 . S
C616 C617 1.399 . S
C616 H638 0.929 1_565 S
C617 C612 1.382 . S
C617 C616 1.399 . S
C617 H639 0.929 . S
C618 O628 1.271 . S
C618 O629 1.251 . S
C619 O630 1.252 . S
C619 O631 1.272 . S
O620 Sm600 2.543 . S
O620 C602 1.261 . S
O621 Sm600 2.450 . S
O621 C602 1.242 . S
O622 Sm600 2.681 . S
O622 Sm601 2.386 . S
O622 C609 1.271 . S
O623 Sm600 2.464 . S
O623 C609 1.251 . S
O624 Sm600 2.396 . S
O624 C610 1.252 . S
O625 Sm601 2.408 . S
O625 C610 1.272 . S
O626 Sm601 2.543 1_556 S
O626 C611 1.261 . S
O627 Sm601 2.457 . S
O627 C611 1.229 1_554 S
O628 Sm600 2.386 . S
O628 Sm601 2.681 . S
O628 C618 1.271 . S
O629 Sm601 2.464 . S
O629 C618 1.251 . S
O630 Sm601 2.396 1_556 S
O630 C619 1.252 . S
O631 Sm600 2.408 1_556 S
O631 C619 1.272 . S
H632 C604 0.930 . S
H633 C605 0.929 . S
H634 C607 0.930 . S
H635 C608 0.929 . S
H636 C613 0.930 . S
H637 C614 0.929 . S
H638 C616 0.929 1_545 S
H639 C617 0.929 . S
Sm640 C642 2.846 . S
Sm640 O660 2.543 . S
Sm640 O661 2.450 . S
Sm640 O662 2.681 . S
Sm640 O663 2.464 . S
Sm640 O664 2.396 . S
Sm640 O668 2.386 . S
Sm640 O671 2.408 . S
Sm641 C651 2.846 . S
Sm641 O662 2.386 . S
Sm641 O665 2.408 . S
Sm641 O666 2.543 . S
Sm641 O667 2.450 . S
Sm641 O668 2.681 . S
Sm641 O669 2.464 . S
Sm641 O670 2.396 . S
C642 Sm640 2.846 . S
C642 C643 1.506 . S
C642 O660 1.261 . S
C642 O661 1.242 . S
C643 C642 1.506 . S
C643 C644 1.358 . S
C643 C648 1.382 . S
C644 C643 1.358 . S
C644 C645 1.385 . S
C644 H672 0.930 . S
C645 C644 1.385 . S
C645 C646 1.395 . S
C645 H673 0.929 . S
C646 C645 1.395 . S
C646 C647 1.335 . S
C647 C646 1.335 . S
C647 C648 1.398 . S
C647 H674 0.930 . S
C648 C643 1.382 . S
C648 C647 1.398 . S
C648 H675 0.929 . S
C649 O662 1.271 . S
C649 O663 1.251 . S
C650 O664 1.252 . S
C650 O665 1.272 . S
C651 Sm641 2.846 . S
C651 C652 1.506 . S
C651 O666 1.261 . S
C651 O667 1.242 . S
C652 C651 1.506 . S
C652 C653 1.358 . S
C652 C657 1.382 . S
C653 C652 1.358 . S
C653 C654 1.385 . S
C653 H676 0.930 . S
C654 C653 1.385 . S
C654 C655 1.395 . S
C654 H677 0.929 . S
C655 C654 1.395 . S
C655 C656 1.335 . S
C656 C655 1.335 . S
C656 C657 1.398 . S
C656 H678 0.930 . S
C657 C652 1.382 . S
C657 C656 1.398 . S
C657 H679 0.929 . S
C658 O668 1.271 . S
C658 O669 1.251 . S
C659 O670 1.252 . S
C659 O671 1.272 . S
O660 Sm640 2.543 . S
O660 C642 1.261 . S
O661 Sm640 2.450 . S
O661 C642 1.242 . S
O662 Sm640 2.681 . S
O662 Sm641 2.386 . S
O662 C649 1.271 . S
O663 Sm640 2.464 . S
O663 C649 1.251 . S
O664 Sm640 2.396 . S
O664 C650 1.252 . S
O665 Sm641 2.408 . S
O665 C650 1.272 . S
O666 Sm641 2.543 . S
O666 C651 1.261 . S
O667 Sm641 2.450 . S
O667 C651 1.242 . S
O668 Sm640 2.386 . S
O668 Sm641 2.681 . S
O668 C658 1.271 . S
O669 Sm641 2.464 . S
O669 C658 1.251 . S
O670 Sm641 2.396 . S
O670 C659 1.252 . S
O671 Sm640 2.408 . S
O671 C659 1.272 . S
H672 C644 0.930 . S
H673 C645 0.929 . S
H674 C647 0.930 . S
H675 C648 0.929 . S
H676 C653 0.930 . S
H677 C654 0.929 . S
H678 C656 0.930 . S
H679 C657 0.929 . S
Sm680 C682 2.846 1_554 S
Sm680 O700 2.543 1_554 S
Sm680 O701 2.457 . S
Sm680 O702 2.681 . S
Sm680 O703 2.464 . S
Sm680 O704 2.396 1_554 S
Sm680 O708 2.386 . S
Sm680 O711 2.408 . S
Sm681 C691 2.846 . S
Sm681 O702 2.386 . S
Sm681 O705 2.408 1_554 S
Sm681 O706 2.543 . S
Sm681 O707 2.450 . S
Sm681 O708 2.681 . S
Sm681 O709 2.464 . S
Sm681 O710 2.396 . S
C682 Sm680 2.846 1_556 S
C682 C683 1.506 . S
C682 O700 1.261 . S
C682 O701 1.230 1_556 S
C683 C682 1.506 . S
C683 C684 1.358 . S
C683 C688 1.382 . S
C684 C683 1.358 . S
C684 C685 1.385 . S
C684 H712 0.930 . S
C685 C684 1.385 . S
C685 C686 1.395 . S
C685 H713 0.929 . S
C686 C685 1.395 . S
C686 C687 1.335 . S
C687 C686 1.335 . S
C687 C688 1.398 . S
C687 H714 0.930 . S
C688 C683 1.382 . S
C688 C687 1.398 . S
C688 H715 0.929 . S
C689 O702 1.271 . S
C689 O703 1.251 . S
C690 O704 1.252 . S
C690 O705 1.272 . S
C691 Sm681 2.846 . S
C691 C692 1.506 . S
C691 O706 1.261 . S
C691 O707 1.242 . S
C692 C691 1.506 . S
C692 C693 1.358 . S
C692 C697 1.382 . S
C693 C692 1.358 . S
C693 C694 1.385 . S
C693 H716 0.930 . S
C694 C693 1.385 . S
C694 C695 1.395 . S
C694 H717 0.929 . S
C695 C694 1.395 . S
C695 C696 1.335 . S
C696 C695 1.335 . S
C696 C697 1.398 . S
C696 H718 0.930 . S
C697 C692 1.382 . S
C697 C696 1.398 . S
C697 H719 0.929 . S
C698 O708 1.271 . S
C698 O709 1.251 . S
C699 O710 1.252 . S
C699 O711 1.272 . S
O700 Sm680 2.543 1_556 S
O700 C682 1.261 . S
O701 Sm680 2.457 . S
O701 C682 1.230 1_554 S
O702 Sm680 2.681 . S
O702 Sm681 2.386 . S
O702 C689 1.271 . S
O703 Sm680 2.464 . S
O703 C689 1.251 . S
O704 Sm680 2.396 1_556 S
O704 C690 1.252 . S
O705 Sm681 2.408 1_556 S
O705 C690 1.272 . S
O706 Sm681 2.543 . S
O706 C691 1.261 . S
O707 Sm681 2.450 . S
O707 C691 1.242 . S
O708 Sm680 2.386 . S
O708 Sm681 2.681 . S
O708 C698 1.271 . S
O709 Sm681 2.464 . S
O709 C698 1.251 . S
O710 Sm681 2.396 . S
O710 C699 1.252 . S
O711 Sm680 2.408 . S
O711 C699 1.272 . S
H712 C684 0.930 . S
H713 C685 0.929 . S
H714 C687 0.930 . S
H715 C688 0.929 . S
H716 C693 0.930 . S
H717 C694 0.929 . S
H718 C696 0.930 . S
H719 C697 0.929 . S
Sm720 C722 2.846 . S
Sm720 O740 2.543 . S
Sm720 O741 2.450 . S
Sm720 O742 2.681 . S
Sm720 O743 2.464 . S
Sm720 O744 2.396 . S
Sm720 O748 2.386 . S
Sm720 O751 2.408 . S
Sm721 C731 2.846 . S
Sm721 O742 2.386 . S
Sm721 O745 2.408 . S
Sm721 O746 2.543 . S
Sm721 O747 2.450 . S
Sm721 O748 2.681 . S
Sm721 O749 2.464 . S
Sm721 O750 2.396 . S
C722 Sm720 2.846 . S
C722 C723 1.506 . S
C722 O740 1.261 . S
C722 O741 1.242 . S
C723 C722 1.506 . S
C723 C724 1.358 . S
C723 C728 1.382 . S
C724 C723 1.358 . S
C724 C725 1.385 . S
C724 H752 0.930 . S
C725 C724 1.385 . S
C725 C726 1.395 . S
C725 H753 0.929 . S
C726 C725 1.395 . S
C726 C727 1.335 . S
C727 C726 1.335 . S
C727 C728 1.398 . S
C727 H754 0.930 . S
C728 C723 1.382 . S
C728 C727 1.398 . S
C728 H755 0.929 . S
C729 O742 1.271 . S
C729 O743 1.251 . S
C730 O744 1.252 . S
C730 O745 1.272 . S
C731 Sm721 2.846 . S
C731 C732 1.506 . S
C731 O746 1.261 . S
C731 O747 1.242 . S
C732 C731 1.506 . S
C732 C733 1.358 . S
C732 C737 1.382 . S
C733 C732 1.358 . S
C733 C734 1.385 . S
C733 H756 0.930 . S
C734 C733 1.385 . S
C734 C735 1.395 . S
C734 H757 0.929 . S
C735 C734 1.395 . S
C735 C736 1.335 . S
C736 C735 1.335 . S
C736 C737 1.398 . S
C736 H758 0.930 1_655 S
C737 C732 1.382 . S
C737 C736 1.398 . S
C737 H759 0.929 . S
C738 O748 1.271 . S
C738 O749 1.251 . S
C739 O750 1.252 . S
C739 O751 1.272 . S
O740 Sm720 2.543 . S
O740 C722 1.261 . S
O741 Sm720 2.450 . S
O741 C722 1.242 . S
O742 Sm720 2.681 . S
O742 Sm721 2.386 . S
O742 C729 1.271 . S
O743 Sm720 2.464 . S
O743 C729 1.251 . S
O744 Sm720 2.396 . S
O744 C730 1.252 . S
O745 Sm721 2.408 . S
O745 C730 1.272 . S
O746 Sm721 2.543 . S
O746 C731 1.261 . S
O747 Sm721 2.450 . S
O747 C731 1.242 . S
O748 Sm720 2.386 . S
O748 Sm721 2.681 . S
O748 C738 1.271 . S
O749 Sm721 2.464 . S
O749 C738 1.251 . S
O750 Sm721 2.396 . S
O750 C739 1.252 . S
O751 Sm720 2.408 . S
O751 C739 1.272 . S
H752 C724 0.930 . S
H753 C725 0.929 . S
H754 C727 0.930 . S
H755 C728 0.929 . S
H756 C733 0.930 . S
H757 C734 0.929 . S
H758 C736 0.930 1_455 S
H759 C737 0.929 . S
Sm760 C762 2.846 . S
Sm760 O780 2.543 . S
Sm760 O781 2.450 . S
Sm760 O782 2.681 . S
Sm760 O783 2.464 . S
Sm760 O784 2.396 . S
Sm760 O788 2.386 . S
Sm760 O791 2.408 . S
Sm761 C771 2.846 . S
Sm761 O782 2.386 . S
Sm761 O785 2.408 . S
Sm761 O786 2.543 . S
Sm761 O787 2.450 . S
Sm761 O788 2.681 . S
Sm761 O789 2.464 . S
Sm761 O790 2.396 . S
C762 Sm760 2.846 . S
C762 C763 1.506 . S
C762 O780 1.261 . S
C762 O781 1.242 . S
C763 C762 1.506 . S
C763 C764 1.358 . S
C763 C768 1.382 . S
C764 C763 1.358 . S
C764 C765 1.385 . S
C764 H792 0.930 . S
C765 C764 1.385 . S
C765 C766 1.395 . S
C765 H793 0.929 . S
C766 C765 1.395 . S
C766 C767 1.335 . S
C767 C766 1.335 . S
C767 C768 1.398 . S
C767 H794 0.930 . S
C768 C763 1.382 . S
C768 C767 1.398 . S
C768 H795 0.929 . S
C769 O782 1.271 . S
C769 O783 1.251 . S
C770 O784 1.252 . S
C770 O785 1.272 . S
C771 Sm761 2.846 . S
C771 C772 1.506 . S
C771 O786 1.261 . S
C771 O787 1.242 . S
C772 C771 1.506 . S
C772 C773 1.358 . S
C772 C777 1.382 . S
C773 C772 1.358 . S
C773 C774 1.385 . S
C773 H796 0.930 . S
C774 C773 1.385 . S
C774 C775 1.395 . S
C774 H797 0.929 . S
C775 C774 1.395 . S
C775 C776 1.335 . S
C776 C775 1.335 . S
C776 C777 1.398 . S
C776 H798 0.930 . S
C777 C772 1.382 . S
C777 C776 1.398 . S
C777 H799 0.929 . S
C778 O788 1.271 . S
C778 O789 1.251 . S
C779 O790 1.252 . S
C779 O791 1.272 . S
O780 Sm760 2.543 . S
O780 C762 1.261 . S
O781 Sm760 2.450 . S
O781 C762 1.242 . S
O782 Sm760 2.681 . S
O782 Sm761 2.386 . S
O782 C769 1.271 . S
O783 Sm760 2.464 . S
O783 C769 1.251 . S
O784 Sm760 2.396 . S
O784 C770 1.252 . S
O785 Sm761 2.408 . S
O785 C770 1.272 . S
O786 Sm761 2.543 . S
O786 C771 1.261 . S
O787 Sm761 2.450 . S
O787 C771 1.242 . S
O788 Sm760 2.386 . S
O788 Sm761 2.681 . S
O788 C778 1.271 . S
O789 Sm761 2.464 . S
O789 C778 1.251 . S
O790 Sm761 2.396 . S
O790 C779 1.252 . S
O791 Sm760 2.408 . S
O791 C779 1.272 . S
H792 C764 0.930 . S
H793 C765 0.929 . S
H794 C767 0.930 . S
H795 C768 0.929 . S
H796 C773 0.930 . S
H797 C774 0.929 . S
H798 C776 0.930 . S
H799 C777 0.929 . S
Sm800 C802 2.846 . S
Sm800 O820 2.543 . S
Sm800 O821 2.450 . S
Sm800 O822 2.681 . S
Sm800 O823 2.464 . S
Sm800 O824 2.396 . S
Sm800 O828 2.386 . S
Sm800 O831 2.408 . S
Sm801 C811 2.846 . S
Sm801 O822 2.386 . S
Sm801 O825 2.408 . S
Sm801 O826 2.543 . S
Sm801 O827 2.450 . S
Sm801 O828 2.681 . S
Sm801 O829 2.464 . S
Sm801 O830 2.396 . S
C802 Sm800 2.846 . S
C802 C803 1.506 . S
C802 O820 1.261 . S
C802 O821 1.242 . S
C803 C802 1.506 . S
C803 C804 1.358 . S
C803 C808 1.382 . S
C804 C803 1.358 . S
C804 C805 1.385 . S
C804 H832 0.930 . S
C805 C804 1.385 . S
C805 C806 1.395 . S
C805 H833 0.929 . S
C806 C805 1.395 . S
C806 C807 1.335 . S
C807 C806 1.335 . S
C807 C808 1.398 . S
C807 H834 0.930 . S
C808 C803 1.382 . S
C808 C807 1.398 . S
C808 H835 0.929 . S
C809 O822 1.271 . S
C809 O823 1.251 . S
C810 O824 1.252 . S
C810 O825 1.272 . S
C811 Sm801 2.846 . S
C811 C812 1.506 . S
C811 O826 1.261 . S
C811 O827 1.242 . S
C812 C811 1.506 . S
C812 C813 1.358 . S
C812 C817 1.382 . S
C813 C812 1.358 . S
C813 C814 1.385 . S
C813 H836 0.930 . S
C814 C813 1.385 . S
C814 C815 1.395 . S
C814 H837 0.929 . S
C815 C814 1.395 . S
C815 C816 1.335 . S
C816 C815 1.335 . S
C816 C817 1.398 . S
C816 H838 0.930 . S
C817 C812 1.382 . S
C817 C816 1.398 . S
C817 H839 0.929 . S
C818 O828 1.271 . S
C818 O829 1.251 . S
C819 O830 1.252 . S
C819 O831 1.272 . S
O820 Sm800 2.543 . S
O820 C802 1.261 . S
O821 Sm800 2.450 . S
O821 C802 1.242 . S
O822 Sm800 2.681 . S
O822 Sm801 2.386 . S
O822 C809 1.271 . S
O823 Sm800 2.464 . S
O823 C809 1.251 . S
O824 Sm800 2.396 . S
O824 C810 1.252 . S
O825 Sm801 2.408 . S
O825 C810 1.272 . S
O826 Sm801 2.543 . S
O826 C811 1.261 . S
O827 Sm801 2.450 . S
O827 C811 1.242 . S
O828 Sm800 2.386 . S
O828 Sm801 2.681 . S
O828 C818 1.271 . S
O829 Sm801 2.464 . S
O829 C818 1.251 . S
O830 Sm801 2.396 . S
O830 C819 1.252 . S
O831 Sm800 2.408 . S
O831 C819 1.272 . S
H832 C804 0.930 . S
H833 C805 0.929 . S
H834 C807 0.930 . S
H835 C808 0.929 . S
H836 C813 0.930 . S
H837 C814 0.929 . S
H838 C816 0.930 . S
H839 C817 0.929 . S
Sm840 C842 2.846 1_556 S
Sm840 O860 2.543 1_556 S
Sm840 O861 2.457 . S
Sm840 O862 2.681 . S
Sm840 O863 2.464 . S
Sm840 O864 2.396 1_556 S
Sm840 O868 2.386 . S
Sm840 O871 2.408 . S
Sm841 C851 2.846 . S
Sm841 O862 2.386 . S
Sm841 O865 2.408 1_556 S
Sm841 O866 2.543 . S
Sm841 O867 2.450 . S
Sm841 O868 2.681 . S
Sm841 O869 2.464 . S
Sm841 O870 2.396 . S
C842 Sm840 2.846 1_554 S
C842 C843 1.506 . S
C842 O860 1.261 . S
C842 O861 1.230 1_554 S
C843 C842 1.506 . S
C843 C844 1.358 . S
C843 C848 1.382 . S
C844 C843 1.358 . S
C844 C845 1.385 . S
C844 H872 0.930 . S
C845 C844 1.385 . S
C845 C846 1.395 . S
C845 H873 0.929 . S
C846 C845 1.395 . S
C846 C847 1.335 . S
C847 C846 1.335 . S
C847 C848 1.398 . S
C847 H874 0.930 . S
C848 C843 1.382 . S
C848 C847 1.398 . S
C848 H875 0.929 . S
C849 O862 1.271 . S
C849 O863 1.251 . S
C850 O864 1.252 . S
C850 O865 1.272 . S
C851 Sm841 2.846 . S
C851 C852 1.506 . S
C851 O866 1.261 . S
C851 O867 1.242 . S
C852 C851 1.506 . S
C852 C853 1.358 . S
C852 C857 1.382 . S
C853 C852 1.358 . S
C853 C854 1.385 . S
C853 H876 0.930 . S
C854 C853 1.385 . S
C854 C855 1.395 . S
C854 H877 0.929 . S
C855 C854 1.395 . S
C855 C856 1.335 . S
C856 C855 1.335 . S
C856 C857 1.398 . S
C856 H878 0.930 . S
C857 C852 1.382 . S
C857 C856 1.398 . S
C857 H879 0.929 . S
C858 O868 1.271 . S
C858 O869 1.251 . S
C859 O870 1.252 . S
C859 O871 1.272 . S
O860 Sm840 2.543 1_554 S
O860 C842 1.261 . S
O861 Sm840 2.457 . S
O861 C842 1.230 1_556 S
O862 Sm840 2.681 . S
O862 Sm841 2.386 . S
O862 C849 1.271 . S
O863 Sm840 2.464 . S
O863 C849 1.251 . S
O864 Sm840 2.396 1_554 S
O864 C850 1.252 . S
O865 Sm841 2.408 1_554 S
O865 C850 1.272 . S
O866 Sm841 2.543 . S
O866 C851 1.261 . S
O867 Sm841 2.450 . S
O867 C851 1.242 . S
O868 Sm840 2.386 . S
O868 Sm841 2.681 . S
O868 C858 1.271 . S
O869 Sm841 2.464 . S
O869 C858 1.251 . S
O870 Sm841 2.396 . S
O870 C859 1.252 . S
O871 Sm840 2.408 . S
O871 C859 1.272 . S
H872 C844 0.930 . S
H873 C845 0.929 . S
H874 C847 0.930 . S
H875 C848 0.929 . S
H876 C853 0.930 . S
H877 C854 0.929 . S
H878 C856 0.930 . S
H879 C857 0.929 . S
Sm880 C882 2.846 . S
Sm880 O900 2.543 . S
Sm880 O901 2.450 . S
Sm880 O902 2.681 . S
Sm880 O903 2.464 . S
Sm880 O904 2.396 . S
Sm880 O908 2.386 . S
Sm880 O911 2.408 . S
Sm881 C891 2.846 . S
Sm881 O902 2.386 . S
Sm881 O905 2.408 . S
Sm881 O906 2.543 . S
Sm881 O907 2.450 . S
Sm881 O908 2.681 . S
Sm881 O909 2.464 . S
Sm881 O910 2.396 . S
C882 Sm880 2.846 . S
C882 C883 1.506 . S
C882 O900 1.261 . S
C882 O901 1.242 . S
C883 C882 1.506 . S
C883 C884 1.358 . S
C883 C888 1.382 . S
C884 C883 1.358 . S
C884 C885 1.385 . S
C884 H912 0.930 . S
C885 C884 1.385 . S
C885 C886 1.395 . S
C885 H913 0.929 . S
C886 C885 1.395 . S
C886 C887 1.335 . S
C887 C886 1.335 . S
C887 C888 1.398 . S
C887 H914 0.930 . S
C888 C883 1.382 . S
C888 C887 1.398 . S
C888 H915 0.929 . S
C889 O902 1.271 . S
C889 O903 1.251 . S
C890 O904 1.252 . S
C890 O905 1.272 . S
C891 Sm881 2.846 . S
C891 C892 1.506 . S
C891 O906 1.261 . S
C891 O907 1.242 . S
C892 C891 1.506 . S
C892 C893 1.358 . S
C892 C897 1.382 . S
C893 C892 1.358 . S
C893 C894 1.385 . S
C893 H916 0.930 . S
C894 C893 1.385 . S
C894 C895 1.395 . S
C894 H917 0.929 . S
C895 C894 1.395 . S
C895 C896 1.335 . S
C896 C895 1.335 . S
C896 C897 1.398 . S
C896 H918 0.930 1_655 S
C897 C892 1.382 . S
C897 C896 1.398 . S
C897 H919 0.929 . S
C898 O908 1.271 . S
C898 O909 1.251 . S
C899 O910 1.252 . S
C899 O911 1.272 . S
O900 Sm880 2.543 . S
O900 C882 1.261 . S
O901 Sm880 2.450 . S
O901 C882 1.242 . S
O902 Sm880 2.681 . S
O902 Sm881 2.386 . S
O902 C889 1.271 . S
O903 Sm880 2.464 . S
O903 C889 1.251 . S
O904 Sm880 2.396 . S
O904 C890 1.252 . S
O905 Sm881 2.408 . S
O905 C890 1.272 . S
O906 Sm881 2.543 . S
O906 C891 1.261 . S
O907 Sm881 2.450 . S
O907 C891 1.242 . S
O908 Sm880 2.386 . S
O908 Sm881 2.681 . S
O908 C898 1.271 . S
O909 Sm881 2.464 . S
O909 C898 1.251 . S
O910 Sm881 2.396 . S
O910 C899 1.252 . S
O911 Sm880 2.408 . S
O911 C899 1.272 . S
H912 C884 0.930 . S
H913 C885 0.929 . S
H914 C887 0.930 . S
H915 C888 0.929 . S
H916 C893 0.930 . S
H917 C894 0.929 . S
H918 C896 0.930 1_455 S
H919 C897 0.929 . S
Sm920 C922 2.846 . S
Sm920 O940 2.543 . S
Sm920 O941 2.450 . S
Sm920 O942 2.681 . S
Sm920 O943 2.464 . S
Sm920 O944 2.396 . S
Sm920 O948 2.386 . S
Sm920 O951 2.408 . S
Sm921 C931 2.846 . S
Sm921 O942 2.386 . S
Sm921 O945 2.408 . S
Sm921 O946 2.543 . S
Sm921 O947 2.450 . S
Sm921 O948 2.681 . S
Sm921 O949 2.464 . S
Sm921 O950 2.396 . S
C922 Sm920 2.846 . S
C922 C923 1.506 . S
C922 O940 1.261 . S
C922 O941 1.242 . S
C923 C922 1.506 . S
C923 C924 1.358 . S
C923 C928 1.382 . S
C924 C923 1.358 . S
C924 C925 1.385 . S
C924 H952 0.930 . S
C925 C924 1.385 . S
C925 C926 1.395 . S
C925 H953 0.929 . S
C926 C925 1.395 . S
C926 C927 1.335 . S
C927 C926 1.335 . S
C927 C928 1.398 . S
C927 H954 0.930 . S
C928 C923 1.382 . S
C928 C927 1.398 . S
C928 H955 0.929 . S
C929 O942 1.271 . S
C929 O943 1.251 . S
C930 O944 1.252 . S
C930 O945 1.272 . S
C931 Sm921 2.846 . S
C931 C932 1.506 . S
C931 O946 1.261 . S
C931 O947 1.242 . S
C932 C931 1.506 . S
C932 C933 1.358 . S
C932 C937 1.382 . S
C933 C932 1.358 . S
C933 C934 1.385 . S
C933 H956 0.930 . S
C934 C933 1.385 . S
C934 C935 1.395 . S
C934 H957 0.929 . S
C935 C934 1.395 . S
C935 C936 1.335 . S
C936 C935 1.335 . S
C936 C937 1.398 . S
C936 H958 0.930 . S
C937 C932 1.382 . S
C937 C936 1.398 . S
C937 H959 0.929 . S
C938 O948 1.271 . S
C938 O949 1.251 . S
C939 O950 1.252 . S
C939 O951 1.272 . S
O940 Sm920 2.543 . S
O940 C922 1.261 . S
O941 Sm920 2.450 . S
O941 C922 1.242 . S
O942 Sm920 2.681 . S
O942 Sm921 2.386 . S
O942 C929 1.271 . S
O943 Sm920 2.464 . S
O943 C929 1.251 . S
O944 Sm920 2.396 . S
O944 C930 1.252 . S
O945 Sm921 2.408 . S
O945 C930 1.272 . S
O946 Sm921 2.543 . S
O946 C931 1.261 . S
O947 Sm921 2.450 . S
O947 C931 1.242 . S
O948 Sm920 2.386 . S
O948 Sm921 2.681 . S
O948 C938 1.271 . S
O949 Sm921 2.464 . S
O949 C938 1.251 . S
O950 Sm921 2.396 . S
O950 C939 1.252 . S
O951 Sm920 2.408 . S
O951 C939 1.272 . S
H952 C924 0.930 . S
H953 C925 0.929 . S
H954 C927 0.930 . S
H955 C928 0.929 . S
H956 C933 0.930 . S
H957 C934 0.929 . S
H958 C936 0.930 . S
H959 C937 0.929 . S
Sm960 C962 2.846 . S
Sm960 O980 2.543 . S
Sm960 O981 2.450 . S
Sm960 O982 2.681 . S
Sm960 O983 2.464 . S
Sm960 O984 2.396 . S
Sm960 O988 2.386 . S
Sm960 O991 2.408 . S
Sm961 C971 2.846 . S
Sm961 O982 2.386 . S
Sm961 O985 2.408 . S
Sm961 O986 2.543 . S
Sm961 O987 2.450 . S
Sm961 O988 2.681 . S
Sm961 O989 2.464 . S
Sm961 O990 2.396 . S
C962 Sm960 2.846 . S
C962 C963 1.506 . S
C962 O980 1.261 . S
C962 O981 1.242 . S
C963 C962 1.506 . S
C963 C964 1.358 . S
C963 C968 1.382 . S
C964 C963 1.358 . S
C964 C965 1.385 . S
C964 H992 0.930 . S
C965 C964 1.385 . S
C965 C966 1.395 . S
C965 H993 0.929 . S
C966 C965 1.395 . S
C966 C967 1.335 . S
C967 C966 1.335 . S
C967 C968 1.398 . S
C967 H994 0.930 . S
C968 C963 1.382 . S
C968 C967 1.398 . S
C968 H995 0.929 . S
C969 O982 1.271 . S
C969 O983 1.251 . S
C970 O984 1.252 . S
C970 O985 1.272 . S
C971 Sm961 2.846 . S
C971 C972 1.506 . S
C971 O986 1.261 . S
C971 O987 1.242 . S
C972 C971 1.506 . S
C972 C973 1.358 . S
C972 C977 1.382 . S
C973 C972 1.358 . S
C973 C974 1.385 . S
C973 H996 0.930 . S
C974 C973 1.385 . S
C974 C975 1.395 . S
C974 H997 0.929 . S
C975 C974 1.395 . S
C975 C976 1.335 . S
C976 C975 1.335 . S
C976 C977 1.398 . S
C976 H998 0.930 . S
C977 C972 1.382 . S
C977 C976 1.398 . S
C977 H999 0.929 . S
C978 O988 1.271 . S
C978 O989 1.251 . S
C979 O990 1.252 . S
C979 O991 1.272 . S
O980 Sm960 2.543 . S
O980 C962 1.261 . S
O981 Sm960 2.450 . S
O981 C962 1.242 . S
O982 Sm960 2.681 . S
O982 Sm961 2.386 . S
O982 C969 1.271 . S
O983 Sm960 2.464 . S
O983 C969 1.251 . S
O984 Sm960 2.396 . S
O984 C970 1.252 . S
O985 Sm961 2.408 . S
O985 C970 1.272 . S
O986 Sm961 2.543 . S
O986 C971 1.261 . S
O987 Sm961 2.450 . S
O987 C971 1.242 . S
O988 Sm960 2.386 . S
O988 Sm961 2.681 . S
O988 C978 1.271 . S
O989 Sm961 2.464 . S
O989 C978 1.251 . S
O990 Sm961 2.396 . S
O990 C979 1.252 . S
O991 Sm960 2.408 . S
O991 C979 1.272 . S
H992 C964 0.930 . S
H993 C965 0.929 . S
H994 C967 0.930 . S
H995 C968 0.929 . S
H996 C973 0.930 . S
H997 C974 0.929 . S
H998 C976 0.930 . S
H999 C977 0.929 . S
Sm1000 C1002 2.846 . S
Sm1000 O1020 2.543 . S
Sm1000 O1021 2.450 . S
Sm1000 O1022 2.681 . S
Sm1000 O1023 2.464 . S
Sm1000 O1024 2.396 . S
Sm1000 O1028 2.386 . S
Sm1000 O1031 2.408 1_556 S
Sm1001 C1011 2.846 1_556 S
Sm1001 O1022 2.386 . S
Sm1001 O1025 2.408 . S
Sm1001 O1026 2.543 1_556 S
Sm1001 O1027 2.457 . S
Sm1001 O1028 2.681 . S
Sm1001 O1029 2.464 . S
Sm1001 O1030 2.396 1_556 S
C1002 Sm1000 2.846 . S
C1002 C1003 1.506 . S
C1002 O1020 1.261 . S
C1002 O1021 1.242 . S
C1003 C1002 1.506 . S
C1003 C1004 1.358 . S
C1003 C1008 1.382 . S
C1004 C1003 1.358 . S
C1004 C1005 1.385 . S
C1004 H1032 0.930 . S
C1005 C1004 1.385 . S
C1005 C1006 1.395 . S
C1005 H1033 0.929 . S
C1006 C1005 1.395 . S
C1006 C1007 1.335 . S
C1007 C1006 1.335 . S
C1007 C1008 1.398 . S
C1007 H1034 0.930 . S
C1008 C1003 1.382 . S
C1008 C1007 1.398 . S
C1008 H1035 0.929 . S
C1009 O1022 1.271 . S
C1009 O1023 1.251 . S
C1010 O1024 1.252 . S
C1010 O1025 1.272 . S
C1011 Sm1001 2.846 1_554 S
C1011 C1012 1.506 . S
C1011 O1026 1.261 . S
C1011 O1027 1.229 1_554 S
C1012 C1011 1.506 . S
C1012 C1013 1.358 . S
C1012 C1017 1.382 . S
C1013 C1012 1.358 . S
C1013 C1014 1.385 . S
C1013 H1036 0.930 . S
C1014 C1013 1.385 . S
C1014 C1015 1.395 . S
C1014 H1037 0.929 . S
C1015 C1014 1.395 . S
C1015 C1016 1.335 . S
C1016 C1015 1.335 . S
C1016 C1017 1.398 . S
C1016 H1038 0.930 . S
C1017 C1012 1.382 . S
C1017 C1016 1.398 . S
C1017 H1039 0.929 . S
C1018 O1028 1.271 . S
C1018 O1029 1.251 . S
C1019 O1030 1.252 . S
C1019 O1031 1.272 . S
O1020 Sm1000 2.543 . S
O1020 C1002 1.261 . S
O1021 Sm1000 2.450 . S
O1021 C1002 1.242 . S
O1022 Sm1000 2.681 . S
O1022 Sm1001 2.386 . S
O1022 C1009 1.271 . S
O1023 Sm1000 2.464 . S
O1023 C1009 1.251 . S
O1024 Sm1000 2.396 . S
O1024 C1010 1.252 . S
O1025 Sm1001 2.408 . S
O1025 C1010 1.272 . S
O1026 Sm1001 2.543 1_554 S
O1026 C1011 1.261 . S
O1027 Sm1001 2.457 . S
O1027 C1011 1.229 1_556 S
O1028 Sm1000 2.386 . S
O1028 Sm1001 2.681 . S
O1028 C1018 1.271 . S
O1029 Sm1001 2.464 . S
O1029 C1018 1.251 . S
O1030 Sm1001 2.396 1_554 S
O1030 C1019 1.252 . S
O1031 Sm1000 2.408 1_554 S
O1031 C1019 1.272 . S
H1032 C1004 0.930 . S
H1033 C1005 0.929 . S
H1034 C1007 0.930 . S
H1035 C1008 0.929 . S
H1036 C1013 0.930 . S
H1037 C1014 0.929 . S
H1038 C1016 0.930 . S
H1039 C1017 0.929 . S
Sm1040 C1042 2.846 . S
Sm1040 O1060 2.543 . S
Sm1040 O1061 2.450 . S
Sm1040 O1062 2.681 . S
Sm1040 O1063 2.464 . S
Sm1040 O1064 2.396 . S
Sm1040 O1068 2.386 . S
Sm1040 O1071 2.408 . S
Sm1041 C1051 2.846 . S
Sm1041 O1062 2.386 . S
Sm1041 O1065 2.408 . S
Sm1041 O1066 2.543 . S
Sm1041 O1067 2.450 . S
Sm1041 O1068 2.681 . S
Sm1041 O1069 2.464 . S
Sm1041 O1070 2.396 . S
C1042 Sm1040 2.846 . S
C1042 C1043 1.506 . S
C1042 O1060 1.261 . S
C1042 O1061 1.242 . S
C1043 C1042 1.506 . S
C1043 C1044 1.358 . S
C1043 C1048 1.382 . S
C1044 C1043 1.358 . S
C1044 C1045 1.385 . S
C1044 H1072 0.930 . S
C1045 C1044 1.385 . S
C1045 C1046 1.395 . S
C1045 H1073 0.929 . S
C1046 C1045 1.395 . S
C1046 C1047 1.335 . S
C1047 C1046 1.335 . S
C1047 C1048 1.398 . S
C1047 H1074 0.930 1_455 S
C1048 C1043 1.382 . S
C1048 C1047 1.398 . S
C1048 H1075 0.929 . S
C1049 O1062 1.271 . S
C1049 O1063 1.251 . S
C1050 O1064 1.252 . S
C1050 O1065 1.272 . S
C1051 Sm1041 2.846 . S
C1051 C1052 1.506 . S
C1051 O1066 1.261 . S
C1051 O1067 1.242 . S
C1052 C1051 1.506 . S
C1052 C1053 1.358 . S
C1052 C1057 1.382 . S
C1053 C1052 1.358 . S
C1053 C1054 1.385 . S
C1053 H1076 0.930 . S
C1054 C1053 1.385 . S
C1054 C1055 1.395 . S
C1054 H1077 0.929 . S
C1055 C1054 1.395 . S
C1055 C1056 1.335 . S
C1056 C1055 1.335 . S
C1056 C1057 1.398 . S
C1056 H1078 0.930 . S
C1057 C1052 1.382 . S
C1057 C1056 1.398 . S
C1057 H1079 0.929 . S
C1058 O1068 1.271 . S
C1058 O1069 1.251 . S
C1059 O1070 1.252 . S
C1059 O1071 1.272 . S
O1060 Sm1040 2.543 . S
O1060 C1042 1.261 . S
O1061 Sm1040 2.450 . S
O1061 C1042 1.242 . S
O1062 Sm1040 2.681 . S
O1062 Sm1041 2.386 . S
O1062 C1049 1.271 . S
O1063 Sm1040 2.464 . S
O1063 C1049 1.251 . S
O1064 Sm1040 2.396 . S
O1064 C1050 1.252 . S
O1065 Sm1041 2.408 . S
O1065 C1050 1.272 . S
O1066 Sm1041 2.543 . S
O1066 C1051 1.261 . S
O1067 Sm1041 2.450 . S
O1067 C1051 1.242 . S
O1068 Sm1040 2.386 . S
O1068 Sm1041 2.681 . S
O1068 C1058 1.271 . S
O1069 Sm1041 2.464 . S
O1069 C1058 1.251 . S
O1070 Sm1041 2.396 . S
O1070 C1059 1.252 . S
O1071 Sm1040 2.408 . S
O1071 C1059 1.272 . S
H1072 C1044 0.930 . S
H1073 C1045 0.929 . S
H1074 C1047 0.930 1_655 S
H1075 C1048 0.929 . S
H1076 C1053 0.930 . S
H1077 C1054 0.929 . S
H1078 C1056 0.930 . S
H1079 C1057 0.929 . S
Sm1080 C1082 2.846 . S
Sm1080 O1100 2.543 . S
Sm1080 O1101 2.450 . S
Sm1080 O1102 2.681 . S
Sm1080 O1103 2.464 . S
Sm1080 O1104 2.396 . S
Sm1080 O1108 2.386 . S
Sm1080 O1111 2.408 . S
Sm1081 C1091 2.846 . S
Sm1081 O1102 2.386 . S
Sm1081 O1105 2.408 . S
Sm1081 O1106 2.543 . S
Sm1081 O1107 2.450 . S
Sm1081 O1108 2.681 . S
Sm1081 O1109 2.464 . S
Sm1081 O1110 2.396 . S
C1082 Sm1080 2.846 . S
C1082 C1083 1.506 . S
C1082 O1100 1.261 . S
C1082 O1101 1.242 . S
C1083 C1082 1.506 . S
C1083 C1084 1.358 . S
C1083 C1088 1.382 . S
C1084 C1083 1.358 . S
C1084 C1085 1.385 . S
C1084 H1112 0.930 . S
C1085 C1084 1.385 . S
C1085 C1086 1.395 . S
C1085 H1113 0.929 . S
C1086 C1085 1.395 . S
C1086 C1087 1.335 . S
C1087 C1086 1.335 . S
C1087 C1088 1.398 . S
C1087 H1114 0.930 . S
C1088 C1083 1.382 . S
C1088 C1087 1.398 . S
C1088 H1115 0.929 . S
C1089 O1102 1.271 . S
C1089 O1103 1.251 . S
C1090 O1104 1.252 . S
C1090 O1105 1.272 . S
C1091 Sm1081 2.846 . S
C1091 C1092 1.506 . S
C1091 O1106 1.261 . S
C1091 O1107 1.242 . S
C1092 C1091 1.506 . S
C1092 C1093 1.358 . S
C1092 C1097 1.382 . S
C1093 C1092 1.358 . S
C1093 C1094 1.385 . S
C1093 H1116 0.930 . S
C1094 C1093 1.385 . S
C1094 C1095 1.395 . S
C1094 H1117 0.929 . S
C1095 C1094 1.395 . S
C1095 C1096 1.335 . S
C1096 C1095 1.335 . S
C1096 C1097 1.398 . S
C1096 H1118 0.930 . S
C1097 C1092 1.382 . S
C1097 C1096 1.398 . S
C1097 H1119 0.929 . S
C1098 O1108 1.271 . S
C1098 O1109 1.251 . S
C1099 O1110 1.252 . S
C1099 O1111 1.272 . S
O1100 Sm1080 2.543 . S
O1100 C1082 1.261 . S
O1101 Sm1080 2.450 . S
O1101 C1082 1.242 . S
O1102 Sm1080 2.681 . S
O1102 Sm1081 2.386 . S
O1102 C1089 1.271 . S
O1103 Sm1080 2.464 . S
O1103 C1089 1.251 . S
O1104 Sm1080 2.396 . S
O1104 C1090 1.252 . S
O1105 Sm1081 2.408 . S
O1105 C1090 1.272 . S
O1106 Sm1081 2.543 . S
O1106 C1091 1.261 . S
O1107 Sm1081 2.450 . S
O1107 C1091 1.242 . S
O1108 Sm1080 2.386 . S
O1108 Sm1081 2.681 . S
O1108 C1098 1.271 . S
O1109 Sm1081 2.464 . S
O1109 C1098 1.251 . S
O1110 Sm1081 2.396 . S
O1110 C1099 1.252 . S
O1111 Sm1080 2.408 . S
O1111 C1099 1.272 . S
H1112 C1084 0.930 . S
H1113 C1085 0.929 . S
H1114 C1087 0.930 . S
H1115 C1088 0.929 . S
H1116 C1093 0.930 . S
H1117 C1094 0.929 . S
H1118 C1096 0.930 . S
H1119 C1097 0.929 . S
Sm1120 C1122 2.846 . S
Sm1120 O1140 2.543 . S
Sm1120 O1141 2.450 . S
Sm1120 O1142 2.681 . S
Sm1120 O1143 2.464 . S
Sm1120 O1144 2.396 . S
Sm1120 O1148 2.386 . S
Sm1120 O1151 2.408 . S
Sm1121 C1131 2.846 . S
Sm1121 O1142 2.386 . S
Sm1121 O1145 2.408 . S
Sm1121 O1146 2.543 . S
Sm1121 O1147 2.450 . S
Sm1121 O1148 2.681 . S
Sm1121 O1149 2.464 . S
Sm1121 O1150 2.396 . S
C1122 Sm1120 2.846 . S
C1122 C1123 1.506 . S
C1122 O1140 1.261 . S
C1122 O1141 1.242 . S
C1123 C1122 1.506 . S
C1123 C1124 1.358 . S
C1123 C1128 1.382 . S
C1124 C1123 1.358 . S
C1124 C1125 1.385 . S
C1124 H1152 0.930 . S
C1125 C1124 1.385 . S
C1125 C1126 1.395 . S
C1125 H1153 0.929 . S
C1126 C1125 1.395 . S
C1126 C1127 1.335 . S
C1127 C1126 1.335 . S
C1127 C1128 1.398 . S
C1127 H1154 0.930 . S
C1128 C1123 1.382 . S
C1128 C1127 1.398 . S
C1128 H1155 0.929 . S
C1129 O1142 1.271 . S
C1129 O1143 1.251 . S
C1130 O1144 1.252 . S
C1130 O1145 1.272 . S
C1131 Sm1121 2.846 . S
C1131 C1132 1.506 . S
C1131 O1146 1.261 . S
C1131 O1147 1.242 . S
C1132 C1131 1.506 . S
C1132 C1133 1.358 . S
C1132 C1137 1.382 . S
C1133 C1132 1.358 . S
C1133 C1134 1.385 . S
C1133 H1156 0.930 . S
C1134 C1133 1.385 . S
C1134 C1135 1.395 . S
C1134 H1157 0.929 . S
C1135 C1134 1.395 . S
C1135 C1136 1.335 . S
C1136 C1135 1.335 . S
C1136 C1137 1.398 . S
C1136 H1158 0.930 . S
C1137 C1132 1.382 . S
C1137 C1136 1.398 . S
C1137 H1159 0.929 . S
C1138 O1148 1.271 . S
C1138 O1149 1.251 . S
C1139 O1150 1.252 . S
C1139 O1151 1.272 . S
O1140 Sm1120 2.543 . S
O1140 C1122 1.261 . S
O1141 Sm1120 2.450 . S
O1141 C1122 1.242 . S
O1142 Sm1120 2.681 . S
O1142 Sm1121 2.386 . S
O1142 C1129 1.271 . S
O1143 Sm1120 2.464 . S
O1143 C1129 1.251 . S
O1144 Sm1120 2.396 . S
O1144 C1130 1.252 . S
O1145 Sm1121 2.408 . S
O1145 C1130 1.272 . S
O1146 Sm1121 2.543 . S
O1146 C1131 1.261 . S
O1147 Sm1121 2.450 . S
O1147 C1131 1.242 . S
O1148 Sm1120 2.386 . S
O1148 Sm1121 2.681 . S
O1148 C1138 1.271 . S
O1149 Sm1121 2.464 . S
O1149 C1138 1.251 . S
O1150 Sm1121 2.396 . S
O1150 C1139 1.252 . S
O1151 Sm1120 2.408 . S
O1151 C1139 1.272 . S
H1152 C1124 0.930 . S
H1153 C1125 0.929 . S
H1154 C1127 0.930 . S
H1155 C1128 0.929 . S
H1156 C1133 0.930 . S
H1157 C1134 0.929 . S
H1158 C1136 0.930 . S
H1159 C1137 0.929 . S
Sm1160 C1162 2.846 . S
Sm1160 O1180 2.543 . S
Sm1160 O1181 2.450 . S
Sm1160 O1182 2.681 . S
Sm1160 O1183 2.464 . S
Sm1160 O1184 2.396 . S
Sm1160 O1188 2.386 . S
Sm1160 O1191 2.408 1_554 S
Sm1161 C1171 2.846 1_554 S
Sm1161 O1182 2.386 . S
Sm1161 O1185 2.408 . S
Sm1161 O1186 2.543 1_554 S
Sm1161 O1187 2.457 . S
Sm1161 O1188 2.681 . S
Sm1161 O1189 2.464 . S
Sm1161 O1190 2.396 1_554 S
C1162 Sm1160 2.846 . S
C1162 C1163 1.506 . S
C1162 O1180 1.261 . S
C1162 O1181 1.242 . S
C1163 C1162 1.506 . S
C1163 C1164 1.358 . S
C1163 C1168 1.382 . S
C1164 C1163 1.358 . S
C1164 C1165 1.385 . S
C1164 H1192 0.930 . S
C1165 C1164 1.385 . S
C1165 C1166 1.395 . S
C1165 H1193 0.929 . S
C1166 C1165 1.395 . S
C1166 C1167 1.335 . S
C1167 C1166 1.335 . S
C1167 C1168 1.398 . S
C1167 H1194 0.930 . S
C1168 C1163 1.382 . S
C1168 C1167 1.398 . S
C1168 H1195 0.929 . S
C1169 O1182 1.271 . S
C1169 O1183 1.251 . S
C1170 O1184 1.252 . S
C1170 O1185 1.272 . S
C1171 Sm1161 2.846 1_556 S
C1171 C1172 1.506 . S
C1171 O1186 1.261 . S
C1171 O1187 1.229 1_556 S
C1172 C1171 1.506 . S
C1172 C1173 1.358 . S
C1172 C1177 1.382 . S
C1173 C1172 1.358 . S
C1173 C1174 1.385 . S
C1173 H1196 0.930 . S
C1174 C1173 1.385 . S
C1174 C1175 1.395 . S
C1174 H1197 0.929 . S
C1175 C1174 1.395 . S
C1175 C1176 1.335 . S
C1176 C1175 1.335 . S
C1176 C1177 1.398 . S
C1176 H1198 0.930 . S
C1177 C1172 1.382 . S
C1177 C1176 1.398 . S
C1177 H1199 0.929 . S
C1178 O1188 1.271 . S
C1178 O1189 1.251 . S
C1179 O1190 1.252 . S
C1179 O1191 1.272 . S
O1180 Sm1160 2.543 . S
O1180 C1162 1.261 . S
O1181 Sm1160 2.450 . S
O1181 C1162 1.242 . S
O1182 Sm1160 2.681 . S
O1182 Sm1161 2.386 . S
O1182 C1169 1.271 . S
O1183 Sm1160 2.464 . S
O1183 C1169 1.251 . S
O1184 Sm1160 2.396 . S
O1184 C1170 1.252 . S
O1185 Sm1161 2.408 . S
O1185 C1170 1.272 . S
O1186 Sm1161 2.543 1_556 S
O1186 C1171 1.261 . S
O1187 Sm1161 2.457 . S
O1187 C1171 1.229 1_554 S
O1188 Sm1160 2.386 . S
O1188 Sm1161 2.681 . S
O1188 C1178 1.271 . S
O1189 Sm1161 2.464 . S
O1189 C1178 1.251 . S
O1190 Sm1161 2.396 1_556 S
O1190 C1179 1.252 . S
O1191 Sm1160 2.408 1_556 S
O1191 C1179 1.272 . S
H1192 C1164 0.930 . S
H1193 C1165 0.929 . S
H1194 C1167 0.930 . S
H1195 C1168 0.929 . S
H1196 C1173 0.930 . S
H1197 C1174 0.929 . S
H1198 C1176 0.930 . S
H1199 C1177 0.929 . S
Sm1200 C1202 2.846 . S
Sm1200 O1220 2.543 . S
Sm1200 O1221 2.450 . S
Sm1200 O1222 2.681 . S
Sm1200 O1223 2.464 . S
Sm1200 O1224 2.396 . S
Sm1200 O1228 2.386 . S
Sm1200 O1231 2.408 . S
Sm1201 C1211 2.846 . S
Sm1201 O1222 2.386 . S
Sm1201 O1225 2.408 . S
Sm1201 O1226 2.543 . S
Sm1201 O1227 2.450 . S
Sm1201 O1228 2.681 . S
Sm1201 O1229 2.464 . S
Sm1201 O1230 2.396 . S
C1202 Sm1200 2.846 . S
C1202 C1203 1.506 . S
C1202 O1220 1.261 . S
C1202 O1221 1.242 . S
C1203 C1202 1.506 . S
C1203 C1204 1.358 . S
C1203 C1208 1.382 . S
C1204 C1203 1.358 . S
C1204 C1205 1.385 . S
C1204 H1232 0.930 . S
C1205 C1204 1.385 . S
C1205 C1206 1.395 . S
C1205 H1233 0.929 . S
C1206 C1205 1.395 . S
C1206 C1207 1.335 . S
C1207 C1206 1.335 . S
C1207 C1208 1.398 . S
C1207 H1234 0.930 1_455 S
C1208 C1203 1.382 . S
C1208 C1207 1.398 . S
C1208 H1235 0.929 . S
C1209 O1222 1.271 . S
C1209 O1223 1.251 . S
C1210 O1224 1.252 . S
C1210 O1225 1.272 . S
C1211 Sm1201 2.846 . S
C1211 C1212 1.506 . S
C1211 O1226 1.261 . S
C1211 O1227 1.242 . S
C1212 C1211 1.506 . S
C1212 C1213 1.358 . S
C1212 C1217 1.382 . S
C1213 C1212 1.358 . S
C1213 C1214 1.385 . S
C1213 H1236 0.930 . S
C1214 C1213 1.385 . S
C1214 C1215 1.395 . S
C1214 H1237 0.929 . S
C1215 C1214 1.395 . S
C1215 C1216 1.335 . S
C1216 C1215 1.335 . S
C1216 C1217 1.398 . S
C1216 H1238 0.930 . S
C1217 C1212 1.382 . S
C1217 C1216 1.398 . S
C1217 H1239 0.929 . S
C1218 O1228 1.271 . S
C1218 O1229 1.251 . S
C1219 O1230 1.252 . S
C1219 O1231 1.272 . S
O1220 Sm1200 2.543 . S
O1220 C1202 1.261 . S
O1221 Sm1200 2.450 . S
O1221 C1202 1.242 . S
O1222 Sm1200 2.681 . S
O1222 Sm1201 2.386 . S
O1222 C1209 1.271 . S
O1223 Sm1200 2.464 . S
O1223 C1209 1.251 . S
O1224 Sm1200 2.396 . S
O1224 C1210 1.252 . S
O1225 Sm1201 2.408 . S
O1225 C1210 1.272 . S
O1226 Sm1201 2.543 . S
O1226 C1211 1.261 . S
O1227 Sm1201 2.450 . S
O1227 C1211 1.242 . S
O1228 Sm1200 2.386 . S
O1228 Sm1201 2.681 . S
O1228 C1218 1.271 . S
O1229 Sm1201 2.464 . S
O1229 C1218 1.251 . S
O1230 Sm1201 2.396 . S
O1230 C1219 1.252 . S
O1231 Sm1200 2.408 . S
O1231 C1219 1.272 . S
H1232 C1204 0.930 . S
H1233 C1205 0.929 . S
H1234 C1207 0.930 1_655 S
H1235 C1208 0.929 . S
H1236 C1213 0.930 . S
H1237 C1214 0.929 . S
H1238 C1216 0.930 . S
H1239 C1217 0.929 . S
Sm1240 C1242 2.846 . S
Sm1240 O1260 2.543 . S
Sm1240 O1261 2.450 . S
Sm1240 O1262 2.681 . S
Sm1240 O1263 2.464 . S
Sm1240 O1264 2.396 . S
Sm1240 O1268 2.386 . S
Sm1240 O1271 2.408 . S
Sm1241 C1251 2.846 . S
Sm1241 O1262 2.386 . S
Sm1241 O1265 2.408 . S
Sm1241 O1266 2.543 . S
Sm1241 O1267 2.450 . S
Sm1241 O1268 2.681 . S
Sm1241 O1269 2.464 . S
Sm1241 O1270 2.396 . S
C1242 Sm1240 2.846 . S
C1242 C1243 1.506 . S
C1242 O1260 1.261 . S
C1242 O1261 1.242 . S
C1243 C1242 1.506 . S
C1243 C1244 1.358 . S
C1243 C1248 1.382 . S
C1244 C1243 1.358 . S
C1244 C1245 1.385 . S
C1244 H1272 0.930 . S
C1245 C1244 1.385 . S
C1245 C1246 1.395 . S
C1245 H1273 0.929 . S
C1246 C1245 1.395 . S
C1246 C1247 1.335 . S
C1247 C1246 1.335 . S
C1247 C1248 1.398 . S
C1247 H1274 0.930 . S
C1248 C1243 1.382 . S
C1248 C1247 1.398 . S
C1248 H1275 0.929 . S
C1249 O1262 1.271 . S
C1249 O1263 1.251 . S
C1250 O1264 1.252 . S
C1250 O1265 1.272 . S
C1251 Sm1241 2.846 . S
C1251 C1252 1.506 . S
C1251 O1266 1.261 . S
C1251 O1267 1.242 . S
C1252 C1251 1.506 . S
C1252 C1253 1.358 . S
C1252 C1257 1.382 . S
C1253 C1252 1.358 . S
C1253 C1254 1.385 . S
C1253 H1276 0.930 . S
C1254 C1253 1.385 . S
C1254 C1255 1.395 . S
C1254 H1277 0.929 . S
C1255 C1254 1.395 . S
C1255 C1256 1.335 . S
C1256 C1255 1.335 . S
C1256 C1257 1.398 . S
C1256 H1278 0.930 . S
C1257 C1252 1.382 . S
C1257 C1256 1.398 . S
C1257 H1279 0.929 . S
C1258 O1268 1.271 . S
C1258 O1269 1.251 . S
C1259 O1270 1.252 . S
C1259 O1271 1.272 . S
O1260 Sm1240 2.543 . S
O1260 C1242 1.261 . S
O1261 Sm1240 2.450 . S
O1261 C1242 1.242 . S
O1262 Sm1240 2.681 . S
O1262 Sm1241 2.386 . S
O1262 C1249 1.271 . S
O1263 Sm1240 2.464 . S
O1263 C1249 1.251 . S
O1264 Sm1240 2.396 . S
O1264 C1250 1.252 . S
O1265 Sm1241 2.408 . S
O1265 C1250 1.272 . S
O1266 Sm1241 2.543 . S
O1266 C1251 1.261 . S
O1267 Sm1241 2.450 . S
O1267 C1251 1.242 . S
O1268 Sm1240 2.386 . S
O1268 Sm1241 2.681 . S
O1268 C1258 1.271 . S
O1269 Sm1241 2.464 . S
O1269 C1258 1.251 . S
O1270 Sm1241 2.396 . S
O1270 C1259 1.252 . S
O1271 Sm1240 2.408 . S
O1271 C1259 1.272 . S
H1272 C1244 0.930 . S
H1273 C1245 0.929 . S
H1274 C1247 0.930 . S
H1275 C1248 0.929 . S
H1276 C1253 0.930 . S
H1277 C1254 0.929 . S
H1278 C1256 0.930 . S
H1279 C1257 0.929 . S
H1280 C1286 0.930 . S
H1281 C1289 0.930 . S
H1282 C1290 0.930 . S
H1283 C1291 0.930 . S
H1284 C1294 0.930 . S
H1285 C1295 0.930 . S
C1286 H1280 0.930 . S
C1286 C1287 1.355 . S
C1286 C1288 1.415 . S
C1287 C1286 1.355 . S
C1287 C1289 1.419 . S
C1288 C1286 1.415 . S
C1288 C1293 1.425 . S
C1288 C1295 1.409 . S
C1289 H1281 0.930 . S
C1289 C1287 1.419 . S
C1289 C1290 1.362 . S
C1290 H1282 0.930 . S
C1290 C1289 1.362 . S
C1290 C1293 1.409 . S
C1291 H1283 0.930 . S
C1291 C1292 1.355 . S
C1291 C1293 1.415 . S
C1292 C1291 1.355 . S
C1292 C1294 1.419 . S
C1293 C1288 1.425 . S
C1293 C1290 1.409 . S
C1293 C1291 1.415 . S
C1294 H1284 0.930 . S
C1294 C1292 1.419 . S
C1294 C1295 1.362 . S
C1295 H1285 0.930 . S
C1295 C1288 1.409 . S
C1295 C1294 1.362 . S
H1296 C1302 0.930 . S
H1297 C1305 0.930 . S
H1298 C1306 0.930 . S
H1299 C1307 0.930 . S
H1300 C1310 0.930 1_565 S
H1301 C1311 0.930 . S
C1302 H1296 0.930 . S
C1302 C1303 1.355 . S
C1302 C1304 1.415 . S
C1303 C1302 1.355 . S
C1303 C1305 1.419 . S
C1304 C1302 1.415 . S
C1304 C1309 1.425 . S
C1304 C1311 1.409 . S
C1305 H1297 0.930 . S
C1305 C1303 1.419 . S
C1305 C1306 1.362 . S
C1306 H1298 0.930 . S
C1306 C1305 1.362 . S
C1306 C1309 1.409 . S
C1307 H1299 0.930 . S
C1307 C1308 1.355 . S
C1307 C1309 1.415 . S
C1308 C1307 1.355 . S
C1308 C1310 1.419 . S
C1309 C1304 1.425 . S
C1309 C1306 1.409 . S
C1309 C1307 1.415 . S
C1310 H1300 0.930 1_545 S
C1310 C1308 1.419 . S
C1310 C1311 1.362 . S
C1311 H1301 0.930 . S
C1311 C1304 1.409 . S
C1311 C1310 1.362 . S
H1312 C1318 0.930 . S
H1313 C1321 0.930 . S
H1314 C1322 0.930 . S
H1315 C1323 0.930 . S
H1316 C1326 0.930 . S
H1317 C1327 0.930 . S
C1318 H1312 0.930 . S
C1318 C1319 1.355 . S
C1318 C1320 1.415 . S
C1319 C1318 1.355 . S
C1319 C1321 1.419 . S
C1320 C1318 1.415 . S
C1320 C1325 1.425 . S
C1320 C1327 1.409 . S
C1321 H1313 0.930 . S
C1321 C1319 1.419 . S
C1321 C1322 1.362 . S
C1322 H1314 0.930 . S
C1322 C1321 1.362 . S
C1322 C1325 1.409 . S
C1323 H1315 0.930 . S
C1323 C1324 1.355 . S
C1323 C1325 1.415 . S
C1324 C1323 1.355 . S
C1324 C1326 1.419 . S
C1325 C1320 1.425 . S
C1325 C1322 1.409 . S
C1325 C1323 1.415 . S
C1326 H1316 0.930 . S
C1326 C1324 1.419 . S
C1326 C1327 1.362 . S
C1327 H1317 0.930 . S
C1327 C1320 1.409 . S
C1327 C1326 1.362 . S
H1328 C1334 0.930 . S
H1329 C1337 0.930 . S
H1330 C1338 0.930 . S
H1331 C1339 0.930 . S
H1332 C1342 0.930 . S
H1333 C1343 0.930 . S
C1334 H1328 0.930 . S
C1334 C1335 1.355 . S
C1334 C1336 1.415 . S
C1335 C1334 1.355 . S
C1335 C1337 1.419 . S
C1336 C1334 1.415 . S
C1336 C1341 1.425 . S
C1336 C1343 1.409 . S
C1337 H1329 0.930 . S
C1337 C1335 1.419 . S
C1337 C1338 1.362 . S
C1338 H1330 0.930 . S
C1338 C1337 1.362 . S
C1338 C1341 1.409 . S
C1339 H1331 0.930 . S
C1339 C1340 1.355 . S
C1339 C1341 1.415 . S
C1340 C1339 1.355 . S
C1340 C1342 1.419 . S
C1341 C1336 1.425 . S
C1341 C1338 1.409 . S
C1341 C1339 1.415 . S
C1342 H1332 0.930 . S
C1342 C1340 1.419 . S
C1342 C1343 1.362 . S
C1343 H1333 0.930 . S
C1343 C1336 1.409 . S
C1343 C1342 1.362 . S
H1344 C1350 0.930 . S
H1345 C1353 0.930 . S
H1346 C1354 0.930 . S
H1347 C1355 0.930 . S
H1348 C1358 0.930 . S
H1349 C1359 0.930 . S
C1350 H1344 0.930 . S
C1350 C1351 1.355 . S
C1350 C1352 1.415 . S
C1351 C1350 1.355 . S
C1351 C1353 1.419 . S
C1352 C1350 1.415 . S
C1352 C1357 1.425 . S
C1352 C1359 1.409 . S
C1353 H1345 0.930 . S
C1353 C1351 1.419 . S
C1353 C1354 1.362 . S
C1354 H1346 0.930 . S
C1354 C1353 1.362 . S
C1354 C1357 1.409 . S
C1355 H1347 0.930 . S
C1355 C1356 1.355 . S
C1355 C1357 1.415 . S
C1356 C1355 1.355 . S
C1356 C1358 1.419 . S
C1357 C1352 1.425 . S
C1357 C1354 1.409 . S
C1357 C1355 1.415 . S
C1358 H1348 0.930 . S
C1358 C1356 1.419 . S
C1358 C1359 1.362 . S
C1359 H1349 0.930 . S
C1359 C1352 1.409 . S
C1359 C1358 1.362 . S
H1360 C1366 0.930 1_565 S
H1361 C1369 0.930 . S
H1362 C1370 0.930 . S
H1363 C1371 0.930 . S
H1364 C1374 0.930 . S
H1365 C1375 0.930 . S
C1366 H1360 0.930 1_545 S
C1366 C1367 1.355 . S
C1366 C1368 1.415 . S
C1367 C1366 1.355 . S
C1367 C1369 1.419 . S
C1368 C1366 1.415 . S
C1368 C1373 1.425 . S
C1368 C1375 1.409 . S
C1369 H1361 0.930 . S
C1369 C1367 1.419 . S
C1369 C1370 1.362 . S
C1370 H1362 0.930 . S
C1370 C1369 1.362 . S
C1370 C1373 1.409 . S
C1371 H1363 0.930 . S
C1371 C1372 1.355 . S
C1371 C1373 1.415 . S
C1372 C1371 1.355 . S
C1372 C1374 1.419 . S
C1373 C1368 1.425 . S
C1373 C1370 1.409 . S
C1373 C1371 1.415 . S
C1374 H1364 0.930 . S
C1374 C1372 1.419 . S
C1374 C1375 1.362 . S
C1375 H1365 0.930 . S
C1375 C1368 1.409 . S
C1375 C1374 1.362 . S
H1376 C1382 0.930 . S
H1377 C1385 0.930 . S
H1378 C1386 0.930 . S
H1379 C1387 0.930 . S
H1380 C1390 0.930 . S
H1381 C1391 0.930 . S
C1382 H1376 0.930 . S
C1382 C1383 1.355 . S
C1382 C1384 1.415 . S
C1383 C1382 1.355 . S
C1383 C1385 1.419 . S
C1384 C1382 1.415 . S
C1384 C1389 1.425 . S
C1384 C1391 1.409 . S
C1385 H1377 0.930 . S
C1385 C1383 1.419 . S
C1385 C1386 1.362 . S
C1386 H1378 0.930 . S
C1386 C1385 1.362 . S
C1386 C1389 1.409 . S
C1387 H1379 0.930 . S
C1387 C1388 1.355 . S
C1387 C1389 1.415 . S
C1388 C1387 1.355 . S
C1388 C1390 1.419 . S
C1389 C1384 1.425 . S
C1389 C1386 1.409 . S
C1389 C1387 1.415 . S
C1390 H1380 0.930 . S
C1390 C1388 1.419 . S
C1390 C1391 1.362 . S
C1391 H1381 0.930 . S
C1391 C1384 1.409 . S
C1391 C1390 1.362 . S
H1392 C1398 0.930 . S
H1393 C1401 0.930 . S
H1394 C1402 0.930 . S
H1395 C1403 0.930 1_545 S
H1396 C1406 0.930 . S
H1397 C1407 0.930 . S
C1398 H1392 0.930 . S
C1398 C1399 1.355 . S
C1398 C1400 1.415 . S
C1399 C1398 1.355 . S
C1399 C1401 1.419 . S
C1400 C1398 1.415 . S
C1400 C1405 1.425 . S
C1400 C1407 1.409 . S
C1401 H1393 0.930 . S
C1401 C1399 1.419 . S
C1401 C1402 1.362 . S
C1402 H1394 0.930 . S
C1402 C1401 1.362 . S
C1402 C1405 1.409 . S
C1403 H1395 0.930 1_565 S
C1403 C1404 1.355 . S
C1403 C1405 1.415 . S
C1404 C1403 1.355 . S
C1404 C1406 1.419 . S
C1405 C1400 1.425 . S
C1405 C1402 1.409 . S
C1405 C1403 1.415 . S
C1406 H1396 0.930 . S
C1406 C1404 1.419 . S
C1406 C1407 1.362 . S
C1407 H1397 0.930 . S
C1407 C1400 1.409 . S
C1407 C1406 1.362 . S
H1408 C1414 0.930 . S
H1409 C1417 0.930 . S
H1410 C1418 0.930 . S
H1411 C1419 0.930 . S
H1412 C1422 0.930 . S
H1413 C1423 0.930 . S
C1414 H1408 0.930 . S
C1414 C1415 1.355 . S
C1414 C1416 1.415 . S
C1415 C1414 1.355 . S
C1415 C1417 1.419 . S
C1416 C1414 1.415 . S
C1416 C1421 1.425 . S
C1416 C1423 1.409 . S
C1417 H1409 0.930 . S
C1417 C1415 1.419 . S
C1417 C1418 1.362 . S
C1418 H1410 0.930 . S
C1418 C1417 1.362 . S
C1418 C1421 1.409 . S
C1419 H1411 0.930 . S
C1419 C1420 1.355 . S
C1419 C1421 1.415 . S
C1420 C1419 1.355 . S
C1420 C1422 1.419 . S
C1421 C1416 1.425 . S
C1421 C1418 1.409 . S
C1421 C1419 1.415 . S
C1422 H1412 0.930 . S
C1422 C1420 1.419 . S
C1422 C1423 1.362 . S
C1423 H1413 0.930 . S
C1423 C1416 1.409 . S
C1423 C1422 1.362 . S
H1424 C1430 0.930 . S
H1425 C1433 0.930 1_545 S
H1426 C1434 0.930 . S
H1427 C1435 0.930 . S
H1428 C1438 0.930 . S
H1429 C1439 0.930 . S
C1430 H1424 0.930 . S
C1430 C1431 1.355 . S
C1430 C1432 1.415 . S
C1431 C1430 1.355 . S
C1431 C1433 1.419 . S
C1432 C1430 1.415 . S
C1432 C1437 1.425 . S
C1432 C1439 1.409 . S
C1433 H1425 0.930 1_565 S
C1433 C1431 1.419 . S
C1433 C1434 1.362 . S
C1434 H1426 0.930 . S
C1434 C1433 1.362 . S
C1434 C1437 1.409 . S
C1435 H1427 0.930 . S
C1435 C1436 1.355 . S
C1435 C1437 1.415 . S
C1436 C1435 1.355 . S
C1436 C1438 1.419 . S
C1437 C1432 1.425 . S
C1437 C1434 1.409 . S
C1437 C1435 1.415 . S
C1438 H1428 0.930 . S
C1438 C1436 1.419 . S
C1438 C1439 1.362 . S
C1439 H1429 0.930 . S
C1439 C1432 1.409 . S
C1439 C1438 1.362 . S
H1440 C1446 0.930 . S
H1441 C1449 0.930 . S
H1442 C1450 0.930 . S
H1443 C1451 0.930 . S
H1444 C1454 0.930 . S
H1445 C1455 0.930 . S
C1446 H1440 0.930 . S
C1446 C1447 1.355 . S
C1446 C1448 1.415 . S
C1447 C1446 1.355 . S
C1447 C1449 1.419 . S
C1448 C1446 1.415 . S
C1448 C1453 1.425 . S
C1448 C1455 1.409 . S
C1449 H1441 0.930 . S
C1449 C1447 1.419 . S
C1449 C1450 1.362 . S
C1450 H1442 0.930 . S
C1450 C1449 1.362 . S
C1450 C1453 1.409 . S
C1451 H1443 0.930 . S
C1451 C1452 1.355 . S
C1451 C1453 1.415 . S
C1452 C1451 1.355 . S
C1452 C1454 1.419 . S
C1453 C1448 1.425 . S
C1453 C1450 1.409 . S
C1453 C1451 1.415 . S
C1454 H1444 0.930 . S
C1454 C1452 1.419 . S
C1454 C1455 1.362 . S
C1455 H1445 0.930 . S
C1455 C1448 1.409 . S
C1455 C1454 1.362 . S
H1456 C1462 0.930 . S
H1457 C1465 0.930 . S
H1458 C1466 0.930 . S
H1459 C1467 0.930 . S
H1460 C1470 0.930 . S
H1461 C1471 0.930 . S
C1462 H1456 0.930 . S
C1462 C1463 1.355 . S
C1462 C1464 1.415 . S
C1463 C1462 1.355 . S
C1463 C1465 1.419 . S
C1464 C1462 1.415 . S
C1464 C1469 1.425 . S
C1464 C1471 1.409 . S
C1465 H1457 0.930 . S
C1465 C1463 1.419 . S
C1465 C1466 1.362 . S
C1466 H1458 0.930 . S
C1466 C1465 1.362 . S
C1466 C1469 1.409 . S
C1467 H1459 0.930 . S
C1467 C1468 1.355 . S
C1467 C1469 1.415 . S
C1468 C1467 1.355 . S
C1468 C1470 1.419 . S
C1469 C1464 1.425 . S
C1469 C1466 1.409 . S
C1469 C1467 1.415 . S
C1470 H1460 0.930 . S
C1470 C1468 1.419 . S
C1470 C1471 1.362 . S
C1471 H1461 0.930 . S
C1471 C1464 1.409 . S
C1471 C1470 1.362 . S
H1472 C1478 0.930 . S
H1473 C1481 0.930 . S
H1474 C1482 0.930 . S
H1475 C1483 0.930 . S
H1476 C1486 0.930 . S
H1477 C1487 0.930 . S
C1478 H1472 0.930 . S
C1478 C1479 1.355 . S
C1478 C1480 1.415 . S
C1479 C1478 1.355 . S
C1479 C1481 1.419 . S
C1480 C1478 1.415 . S
C1480 C1485 1.425 . S
C1480 C1487 1.409 . S
C1481 H1473 0.930 . S
C1481 C1479 1.419 . S
C1481 C1482 1.362 . S
C1482 H1474 0.930 . S
C1482 C1481 1.362 . S
C1482 C1485 1.409 . S
C1483 H1475 0.930 . S
C1483 C1484 1.355 . S
C1483 C1485 1.415 . S
C1484 C1483 1.355 . S
C1484 C1486 1.419 . S
C1485 C1480 1.425 . S
C1485 C1482 1.409 . S
C1485 C1483 1.415 . S
C1486 H1476 0.930 . S
C1486 C1484 1.419 . S
C1486 C1487 1.362 . S
C1487 H1477 0.930 . S
C1487 C1480 1.409 . S
C1487 C1486 1.362 . S
H1488 C1494 0.930 . S
H1489 C1497 0.930 . S
H1490 C1498 0.930 . S
H1491 C1499 0.930 . S
H1492 C1502 0.930 . S
H1493 C1503 0.930 . S
C1494 H1488 0.930 . S
C1494 C1495 1.355 . S
C1494 C1496 1.415 . S
C1495 C1494 1.355 . S
C1495 C1497 1.419 . S
C1496 C1494 1.415 . S
C1496 C1501 1.425 . S
C1496 C1503 1.409 . S
C1497 H1489 0.930 . S
C1497 C1495 1.419 . S
C1497 C1498 1.362 . S
C1498 H1490 0.930 . S
C1498 C1497 1.362 . S
C1498 C1501 1.409 . S
C1499 H1491 0.930 . S
C1499 C1500 1.355 . S
C1499 C1501 1.415 . S
C1500 C1499 1.355 . S
C1500 C1502 1.419 . S
C1501 C1496 1.425 . S
C1501 C1498 1.409 . S
C1501 C1499 1.415 . S
C1502 H1492 0.930 . S
C1502 C1500 1.419 . S
C1502 C1503 1.362 . S
C1503 H1493 0.930 . S
C1503 C1496 1.409 . S
C1503 C1502 1.362 . S
H1504 C1510 0.930 . S
H1505 C1513 0.930 . S
H1506 C1514 0.930 . S
H1507 C1515 0.930 . S
H1508 C1518 0.930 . S
H1509 C1519 0.930 . S
C1510 H1504 0.930 . S
C1510 C1511 1.355 . S
C1510 C1512 1.415 . S
C1511 C1510 1.355 . S
C1511 C1513 1.419 . S
C1512 C1510 1.415 . S
C1512 C1517 1.425 . S
C1512 C1519 1.409 . S
C1513 H1505 0.930 . S
C1513 C1511 1.419 . S
C1513 C1514 1.362 . S
C1514 H1506 0.930 . S
C1514 C1513 1.362 . S
C1514 C1517 1.409 . S
C1515 H1507 0.930 . S
C1515 C1516 1.355 . S
C1515 C1517 1.415 . S
C1516 C1515 1.355 . S
C1516 C1518 1.419 . S
C1517 C1512 1.425 . S
C1517 C1514 1.409 . S
C1517 C1515 1.415 . S
C1518 H1508 0.930 . S
C1518 C1516 1.419 . S
C1518 C1519 1.362 . S
C1519 H1509 0.930 . S
C1519 C1512 1.409 . S
C1519 C1518 1.362 . S
H1520 C1526 0.930 . S
H1521 C1529 0.930 . S
H1522 C1530 0.930 . S
H1523 C1531 0.930 1_565 S
H1524 C1534 0.930 . S
H1525 C1535 0.930 . S
C1526 H1520 0.930 . S
C1526 C1527 1.355 . S
C1526 C1528 1.415 . S
C1527 C1526 1.355 . S
C1527 C1529 1.419 . S
C1528 C1526 1.415 . S
C1528 C1533 1.425 . S
C1528 C1535 1.409 . S
C1529 H1521 0.930 . S
C1529 C1527 1.419 . S
C1529 C1530 1.362 . S
C1530 H1522 0.930 . S
C1530 C1529 1.362 . S
C1530 C1533 1.409 . S
C1531 H1523 0.930 1_545 S
C1531 C1532 1.355 . S
C1531 C1533 1.415 . S
C1532 C1531 1.355 . S
C1532 C1534 1.419 . S
C1533 C1528 1.425 . S
C1533 C1530 1.409 . S
C1533 C1531 1.415 . S
C1534 H1524 0.930 . S
C1534 C1532 1.419 . S
C1534 C1535 1.362 . S
C1535 H1525 0.930 . S
C1535 C1528 1.409 . S
C1535 C1534 1.362 . S
H1536 C1542 0.930 . S
H1537 C1545 0.930 . S
H1538 C1546 0.930 . S
H1539 C1547 0.930 . S
H1540 C1550 0.930 . S
H1541 C1551 0.930 . S
C1542 H1536 0.930 . S
C1542 C1543 1.355 . S
C1542 C1544 1.415 . S
C1543 C1542 1.355 . S
C1543 C1545 1.419 . S
C1544 C1542 1.415 . S
C1544 C1549 1.425 . S
C1544 C1551 1.409 . S
C1545 H1537 0.930 . S
C1545 C1543 1.419 . S
C1545 C1546 1.362 . S
C1546 H1538 0.930 . S
C1546 C1545 1.362 . S
C1546 C1549 1.409 . S
C1547 H1539 0.930 . S
C1547 C1548 1.355 . S
C1547 C1549 1.415 . S
C1548 C1547 1.355 . S
C1548 C1550 1.419 . S
C1549 C1544 1.425 . S
C1549 C1546 1.409 . S
C1549 C1547 1.415 . S
C1550 H1540 0.930 . S
C1550 C1548 1.419 . S
C1550 C1551 1.362 . S
C1551 H1541 0.930 . S
C1551 C1544 1.409 . S
C1551 C1550 1.362 . S
H1552 C1558 0.930 . S
H1553 C1561 0.930 . S
H1554 C1562 0.930 . S
H1555 C1563 0.930 . S
H1556 C1566 0.930 . S
H1557 C1567 0.930 . S
C1558 H1552 0.930 . S
C1558 C1559 1.355 . S
C1558 C1560 1.415 . S
C1559 C1558 1.355 . S
C1559 C1561 1.419 . S
C1560 C1558 1.415 . S
C1560 C1565 1.425 . S
C1560 C1567 1.409 . S
C1561 H1553 0.930 . S
C1561 C1559 1.419 . S
C1561 C1562 1.362 . S
C1562 H1554 0.930 . S
C1562 C1561 1.362 . S
C1562 C1565 1.409 . S
C1563 H1555 0.930 . S
C1563 C1564 1.355 . S
C1563 C1565 1.415 . S
C1564 C1563 1.355 . S
C1564 C1566 1.419 . S
C1565 C1560 1.425 . S
C1565 C1562 1.409 . S
C1565 C1563 1.415 . S
C1566 H1556 0.930 . S
C1566 C1564 1.419 . S
C1566 C1567 1.362 . S
C1567 H1557 0.930 . S
C1567 C1560 1.409 . S
C1567 C1566 1.362 . S
H1568 C1574 0.930 . S
H1569 C1577 0.930 . S
H1570 C1578 0.930 . S
H1571 C1579 0.930 . S
H1572 C1582 0.930 . S
H1573 C1583 0.930 . S
C1574 H1568 0.930 . S
C1574 C1575 1.355 . S
C1574 C1576 1.415 . S
C1575 C1574 1.355 . S
C1575 C1577 1.419 . S
C1576 C1574 1.415 . S
C1576 C1581 1.425 . S
C1576 C1583 1.409 . S
C1577 H1569 0.930 . S
C1577 C1575 1.419 . S
C1577 C1578 1.362 . S
C1578 H1570 0.930 . S
C1578 C1577 1.362 . S
C1578 C1581 1.409 . S
C1579 H1571 0.930 . S
C1579 C1580 1.355 . S
C1579 C1581 1.415 . S
C1580 C1579 1.355 . S
C1580 C1582 1.419 . S
C1581 C1576 1.425 . S
C1581 C1578 1.409 . S
C1581 C1579 1.415 . S
C1582 H1572 0.930 . S
C1582 C1580 1.419 . S
C1582 C1583 1.362 . S
C1583 H1573 0.930 . S
C1583 C1576 1.409 . S
C1583 C1582 1.362 . S
H1584 C1590 0.930 . S
H1585 C1593 0.930 . S
H1586 C1594 0.930 . S
H1587 C1595 0.930 . S
H1588 C1598 0.930 . S
H1589 C1599 0.930 . S
C1590 H1584 0.930 . S
C1590 C1591 1.355 . S
C1590 C1592 1.415 . S
C1591 C1590 1.355 . S
C1591 C1593 1.419 . S
C1592 C1590 1.415 . S
C1592 C1597 1.425 . S
C1592 C1599 1.409 . S
C1593 H1585 0.930 . S
C1593 C1591 1.419 . S
C1593 C1594 1.362 . S
C1594 H1586 0.930 . S
C1594 C1593 1.362 . S
C1594 C1597 1.409 . S
C1595 H1587 0.930 . S
C1595 C1596 1.355 . S
C1595 C1597 1.415 . S
C1596 C1595 1.355 . S
C1596 C1598 1.419 . S
C1597 C1592 1.425 . S
C1597 C1594 1.409 . S
C1597 C1595 1.415 . S
C1598 H1588 0.930 . S
C1598 C1596 1.419 . S
C1598 C1599 1.362 . S
C1599 H1589 0.930 . S
C1599 C1592 1.409 . S
C1599 C1598 1.362 . S
H1600 C1606 0.930 . S
H1601 C1609 0.930 . S
H1602 C1610 0.930 . S
H1603 C1611 0.930 . S
H1604 C1614 0.930 . S
H1605 C1615 0.930 . S
C1606 H1600 0.930 . S
C1606 C1607 1.355 . S
C1606 C1608 1.415 . S
C1607 C1606 1.355 . S
C1607 C1609 1.419 . S
C1608 C1606 1.415 . S
C1608 C1613 1.425 . S
C1608 C1615 1.409 . S
C1609 H1601 0.930 . S
C1609 C1607 1.419 . S
C1609 C1610 1.362 . S
C1610 H1602 0.930 . S
C1610 C1609 1.362 . S
C1610 C1613 1.409 . S
C1611 H1603 0.930 . S
C1611 C1612 1.355 . S
C1611 C1613 1.415 . S
C1612 C1611 1.355 . S
C1612 C1614 1.419 . S
C1613 C1608 1.425 . S
C1613 C1610 1.409 . S
C1613 C1611 1.415 . S
C1614 H1604 0.930 . S
C1614 C1612 1.419 . S
C1614 C1615 1.362 . S
C1615 H1605 0.930 . S
C1615 C1608 1.409 . S
C1615 C1614 1.362 . S
H1616 C1622 0.930 . S
H1617 C1625 0.930 . S
H1618 C1626 0.930 . S
H1619 C1627 0.930 . S
H1620 C1630 0.930 . S
H1621 C1631 0.930 . S
C1622 H1616 0.930 . S
C1622 C1623 1.355 . S
C1622 C1624 1.415 . S
C1623 C1622 1.355 . S
C1623 C1625 1.419 . S
C1624 C1622 1.415 . S
C1624 C1629 1.425 . S
C1624 C1631 1.409 . S
C1625 H1617 0.930 . S
C1625 C1623 1.419 . S
C1625 C1626 1.362 . S
C1626 H1618 0.930 . S
C1626 C1625 1.362 . S
C1626 C1629 1.409 . S
C1627 H1619 0.930 . S
C1627 C1628 1.355 . S
C1627 C1629 1.415 . S
C1628 C1627 1.355 . S
C1628 C1630 1.419 . S
C1629 C1624 1.425 . S
C1629 C1626 1.409 . S
C1629 C1627 1.415 . S
C1630 H1620 0.930 . S
C1630 C1628 1.419 . S
C1630 C1631 1.362 . S
C1631 H1621 0.930 . S
C1631 C1624 1.409 . S
C1631 C1630 1.362 . S
H1632 C1638 0.930 . S
H1633 C1641 0.930 . S
H1634 C1642 0.930 . S
H1635 C1643 0.930 . S
H1636 C1646 0.930 . S
H1637 C1647 0.930 . S
C1638 H1632 0.930 . S
C1638 C1639 1.355 . S
C1638 C1640 1.415 . S
C1639 C1638 1.355 . S
C1639 C1641 1.419 . S
C1640 C1638 1.415 . S
C1640 C1645 1.425 . S
C1640 C1647 1.409 . S
C1641 H1633 0.930 . S
C1641 C1639 1.419 . S
C1641 C1642 1.362 . S
C1642 H1634 0.930 . S
C1642 C1641 1.362 . S
C1642 C1645 1.409 . S
C1643 H1635 0.930 . S
C1643 C1644 1.355 . S
C1643 C1645 1.415 . S
C1644 C1643 1.355 . S
C1644 C1646 1.419 . S
C1645 C1640 1.425 . S
C1645 C1642 1.409 . S
C1645 C1643 1.415 . S
C1646 H1636 0.930 . S
C1646 C1644 1.419 . S
C1646 C1647 1.362 . S
C1647 H1637 0.930 . S
C1647 C1640 1.409 . S
C1647 C1646 1.362 . S
H1648 C1654 0.930 . S
H1649 C1657 0.930 . S
H1650 C1658 0.930 . S
H1651 C1659 0.930 . S
H1652 C1662 0.930 . S
H1653 C1663 0.930 . S
C1654 H1648 0.930 . S
C1654 C1655 1.355 . S
C1654 C1656 1.415 . S
C1655 C1654 1.355 . S
C1655 C1657 1.419 . S
C1656 C1654 1.415 . S
C1656 C1661 1.425 . S
C1656 C1663 1.409 . S
C1657 H1649 0.930 . S
C1657 C1655 1.419 . S
C1657 C1658 1.362 . S
C1658 H1650 0.930 . S
C1658 C1657 1.362 . S
C1658 C1661 1.409 . S
C1659 H1651 0.930 . S
C1659 C1660 1.355 . S
C1659 C1661 1.415 . S
C1660 C1659 1.355 . S
C1660 C1662 1.419 . S
C1661 C1656 1.425 . S
C1661 C1658 1.409 . S
C1661 C1659 1.415 . S
C1662 H1652 0.930 . S
C1662 C1660 1.419 . S
C1662 C1663 1.362 . S
C1663 H1653 0.930 . S
C1663 C1656 1.409 . S
C1663 C1662 1.362 . S
H1664 C1670 0.930 . S
H1665 C1673 0.930 . S
H1666 C1674 0.930 . S
H1667 C1675 0.930 . S
H1668 C1678 0.930 . S
H1669 C1679 0.930 . S
C1670 H1664 0.930 . S
C1670 C1671 1.355 . S
C1670 C1672 1.415 . S
C1671 C1670 1.355 . S
C1671 C1673 1.419 . S
C1672 C1670 1.415 . S
C1672 C1677 1.425 . S
C1672 C1679 1.409 . S
C1673 H1665 0.930 . S
C1673 C1671 1.419 . S
C1673 C1674 1.362 . S
C1674 H1666 0.930 . S
C1674 C1673 1.362 . S
C1674 C1677 1.409 . S
C1675 H1667 0.930 . S
C1675 C1676 1.355 . S
C1675 C1677 1.415 . S
C1676 C1675 1.355 . S
C1676 C1678 1.419 . S
C1677 C1672 1.425 . S
C1677 C1674 1.409 . S
C1677 C1675 1.415 . S
C1678 H1668 0.930 . S
C1678 C1676 1.419 . S
C1678 C1679 1.362 . S
C1679 H1669 0.930 . S
C1679 C1672 1.409 . S
C1679 C1678 1.362 . S
H1680 C1686 0.930 . S
H1681 C1689 0.930 . S
H1682 C1690 0.930 . S
H1683 C1691 0.930 . S
H1684 C1694 0.930 . S
H1685 C1695 0.930 . S
C1686 H1680 0.930 . S
C1686 C1687 1.355 . S
C1686 C1688 1.415 . S
C1687 C1686 1.355 . S
C1687 C1689 1.419 . S
C1688 C1686 1.415 . S
C1688 C1693 1.425 . S
C1688 C1695 1.409 . S
C1689 H1681 0.930 . S
C1689 C1687 1.419 . S
C1689 C1690 1.362 . S
C1690 H1682 0.930 . S
C1690 C1689 1.362 . S
C1690 C1693 1.409 . S
C1691 H1683 0.930 . S
C1691 C1692 1.355 . S
C1691 C1693 1.415 . S
C1692 C1691 1.355 . S
C1692 C1694 1.419 . S
C1693 C1688 1.425 . S
C1693 C1690 1.409 . S
C1693 C1691 1.415 . S
C1694 H1684 0.930 . S
C1694 C1692 1.419 . S
C1694 C1695 1.362 . S
C1695 H1685 0.930 . S
C1695 C1688 1.409 . S
C1695 C1694 1.362 . S
H1696 C1702 0.930 . S
H1697 C1705 0.930 . S
H1698 C1706 0.930 . S
H1699 C1707 0.930 . S
H1700 C1710 0.930 . S
H1701 C1711 0.930 . S
C1702 H1696 0.930 . S
C1702 C1703 1.355 . S
C1702 C1704 1.415 . S
C1703 C1702 1.355 . S
C1703 C1705 1.419 . S
C1704 C1702 1.415 . S
C1704 C1709 1.425 . S
C1704 C1711 1.409 . S
C1705 H1697 0.930 . S
C1705 C1703 1.419 . S
C1705 C1706 1.362 . S
C1706 H1698 0.930 . S
C1706 C1705 1.362 . S
C1706 C1709 1.409 . S
C1707 H1699 0.930 . S
C1707 C1708 1.355 . S
C1707 C1709 1.415 . S
C1708 C1707 1.355 . S
C1708 C1710 1.419 . S
C1709 C1704 1.425 . S
C1709 C1706 1.409 . S
C1709 C1707 1.415 . S
C1710 H1700 0.930 . S
C1710 C1708 1.419 . S
C1710 C1711 1.362 . S
C1711 H1701 0.930 . S
C1711 C1704 1.409 . S
C1711 C1710 1.362 . S
H1712 C1718 0.930 . S
H1713 C1721 0.930 . S
H1714 C1722 0.930 . S
H1715 C1723 0.930 . S
H1716 C1726 0.930 . S
H1717 C1727 0.930 . S
C1718 H1712 0.930 . S
C1718 C1719 1.355 . S
C1718 C1720 1.415 . S
C1719 C1718 1.355 . S
C1719 C1721 1.419 . S
C1720 C1718 1.415 . S
C1720 C1725 1.425 . S
C1720 C1727 1.409 . S
C1721 H1713 0.930 . S
C1721 C1719 1.419 . S
C1721 C1722 1.362 . S
C1722 H1714 0.930 . S
C1722 C1721 1.362 . S
C1722 C1725 1.409 . S
C1723 H1715 0.930 . S
C1723 C1724 1.355 . S
C1723 C1725 1.415 . S
C1724 C1723 1.355 . S
C1724 C1726 1.419 . S
C1725 C1720 1.425 . S
C1725 C1722 1.409 . S
C1725 C1723 1.415 . S
C1726 H1716 0.930 . S
C1726 C1724 1.419 . S
C1726 C1727 1.362 . S
C1727 H1717 0.930 . S
C1727 C1720 1.409 . S
C1727 C1726 1.362 . S
H1728 C1734 0.930 . S
H1729 C1737 0.930 . S
H1730 C1738 0.930 . S
H1731 C1739 0.930 . S
H1732 C1742 0.930 . S
H1733 C1743 0.930 . S
C1734 H1728 0.930 . S
C1734 C1735 1.355 . S
C1734 C1736 1.415 . S
C1735 C1734 1.355 . S
C1735 C1737 1.419 . S
C1736 C1734 1.415 . S
C1736 C1741 1.425 . S
C1736 C1743 1.409 . S
C1737 H1729 0.930 . S
C1737 C1735 1.419 . S
C1737 C1738 1.362 . S
C1738 H1730 0.930 . S
C1738 C1737 1.362 . S
C1738 C1741 1.409 . S
C1739 H1731 0.930 . S
C1739 C1740 1.355 . S
C1739 C1741 1.415 . S
C1740 C1739 1.355 . S
C1740 C1742 1.419 . S
C1741 C1736 1.425 . S
C1741 C1738 1.409 . S
C1741 C1739 1.415 . S
C1742 H1732 0.930 . S
C1742 C1740 1.419 . S
C1742 C1743 1.362 . S
C1743 H1733 0.930 . S
C1743 C1736 1.409 . S
C1743 C1742 1.362 . S
H1744 C1750 0.930 . S
H1745 C1753 0.930 . S
H1746 C1754 0.930 . S
H1747 C1755 0.930 . S
H1748 C1758 0.930 . S
H1749 C1759 0.930 . S
C1750 H1744 0.930 . S
C1750 C1751 1.355 . S
C1750 C1752 1.415 . S
C1751 C1750 1.355 . S
C1751 C1753 1.419 . S
C1752 C1750 1.415 . S
C1752 C1757 1.425 . S
C1752 C1759 1.409 . S
C1753 H1745 0.930 . S
C1753 C1751 1.419 . S
C1753 C1754 1.362 . S
C1754 H1746 0.930 . S
C1754 C1753 1.362 . S
C1754 C1757 1.409 . S
C1755 H1747 0.930 . S
C1755 C1756 1.355 . S
C1755 C1757 1.415 . S
C1756 C1755 1.355 . S
C1756 C1758 1.419 . S
C1757 C1752 1.425 . S
C1757 C1754 1.409 . S
C1757 C1755 1.415 . S
C1758 H1748 0.930 . S
C1758 C1756 1.419 . S
C1758 C1759 1.362 . S
C1759 H1749 0.930 . S
C1759 C1752 1.409 . S
C1759 C1758 1.362 . S
H1760 C1766 0.930 . S
H1761 C1769 0.930 . S
H1762 C1770 0.930 . S
H1763 C1771 0.930 . S
H1764 C1774 0.930 . S
H1765 C1775 0.930 . S
C1766 H1760 0.930 . S
C1766 C1767 1.355 . S
C1766 C1768 1.415 . S
C1767 C1766 1.355 . S
C1767 C1769 1.419 . S
C1768 C1766 1.415 . S
C1768 C1773 1.425 . S
C1768 C1775 1.409 . S
C1769 H1761 0.930 . S
C1769 C1767 1.419 . S
C1769 C1770 1.362 . S
C1770 H1762 0.930 . S
C1770 C1769 1.362 . S
C1770 C1773 1.409 . S
C1771 H1763 0.930 . S
C1771 C1772 1.355 . S
C1771 C1773 1.415 . S
C1772 C1771 1.355 . S
C1772 C1774 1.419 . S
C1773 C1768 1.425 . S
C1773 C1770 1.409 . S
C1773 C1771 1.415 . S
C1774 H1764 0.930 . S
C1774 C1772 1.419 . S
C1774 C1775 1.362 . S
C1775 H1765 0.930 . S
C1775 C1768 1.409 . S
C1775 C1774 1.362 . S
H1776 C1782 0.930 . S
H1777 C1785 0.930 . S
H1778 C1786 0.930 . S
H1779 C1787 0.930 . S
H1780 C1790 0.930 . S
H1781 C1791 0.930 . S
C1782 H1776 0.930 . S
C1782 C1783 1.355 . S
C1782 C1784 1.415 . S
C1783 C1782 1.355 . S
C1783 C1785 1.419 . S
C1784 C1782 1.415 . S
C1784 C1789 1.425 . S
C1784 C1791 1.409 . S
C1785 H1777 0.930 . S
C1785 C1783 1.419 . S
C1785 C1786 1.362 . S
C1786 H1778 0.930 . S
C1786 C1785 1.362 . S
C1786 C1789 1.409 . S
C1787 H1779 0.930 . S
C1787 C1788 1.355 . S
C1787 C1789 1.415 . S
C1788 C1787 1.355 . S
C1788 C1790 1.419 . S
C1789 C1784 1.425 . S
C1789 C1786 1.409 . S
C1789 C1787 1.415 . S
C1790 H1780 0.930 . S
C1790 C1788 1.419 . S
C1790 C1791 1.362 . S
C1791 H1781 0.930 . S
C1791 C1784 1.409 . S
C1791 C1790 1.362 . S
H1792 C1798 0.930 . S
H1793 C1801 0.930 . S
H1794 C1802 0.930 . S
H1795 C1803 0.930 . S
H1796 C1806 0.930 . S
H1797 C1807 0.930 . S
C1798 H1792 0.930 . S
C1798 C1799 1.355 . S
C1798 C1800 1.415 . S
C1799 C1798 1.355 . S
C1799 C1801 1.419 . S
C1800 C1798 1.415 . S
C1800 C1805 1.425 . S
C1800 C1807 1.409 . S
C1801 H1793 0.930 . S
C1801 C1799 1.419 . S
C1801 C1802 1.362 . S
C1802 H1794 0.930 . S
C1802 C1801 1.362 . S
C1802 C1805 1.409 . S
C1803 H1795 0.930 . S
C1803 C1804 1.355 . S
C1803 C1805 1.415 . S
C1804 C1803 1.355 . S
C1804 C1806 1.419 . S
C1805 C1800 1.425 . S
C1805 C1802 1.409 . S
C1805 C1803 1.415 . S
C1806 H1796 0.930 . S
C1806 C1804 1.419 . S
C1806 C1807 1.362 . S
C1807 H1797 0.930 . S
C1807 C1800 1.409 . S
C1807 C1806 1.362 . S
H1808 C1814 0.930 . S
H1809 C1817 0.930 . S
H1810 C1818 0.930 . S
H1811 C1819 0.930 . S
H1812 C1822 0.930 . S
H1813 C1823 0.930 . S
C1814 H1808 0.930 . S
C1814 C1815 1.355 . S
C1814 C1816 1.415 . S
C1815 C1814 1.355 . S
C1815 C1817 1.419 . S
C1816 C1814 1.415 . S
C1816 C1821 1.425 . S
C1816 C1823 1.409 . S
C1817 H1809 0.930 . S
C1817 C1815 1.419 . S
C1817 C1818 1.362 . S
C1818 H1810 0.930 . S
C1818 C1817 1.362 . S
C1818 C1821 1.409 . S
C1819 H1811 0.930 . S
C1819 C1820 1.355 . S
C1819 C1821 1.415 . S
C1820 C1819 1.355 . S
C1820 C1822 1.419 . S
C1821 C1816 1.425 . S
C1821 C1818 1.409 . S
C1821 C1819 1.415 . S
C1822 H1812 0.930 . S
C1822 C1820 1.419 . S
C1822 C1823 1.362 . S
C1823 H1813 0.930 . S
C1823 C1816 1.409 . S
C1823 C1822 1.362 . S
H1824 C1830 0.930 . S
H1825 C1833 0.930 . S
H1826 C1834 0.930 . S
H1827 C1835 0.930 . S
H1828 C1838 0.930 . S
H1829 C1839 0.930 . S
C1830 H1824 0.930 . S
C1830 C1831 1.355 . S
C1830 C1832 1.415 . S
C1831 C1830 1.355 . S
C1831 C1833 1.419 . S
C1832 C1830 1.415 . S
C1832 C1837 1.425 . S
C1832 C1839 1.409 . S
C1833 H1825 0.930 . S
C1833 C1831 1.419 . S
C1833 C1834 1.362 . S
C1834 H1826 0.930 . S
C1834 C1833 1.362 . S
C1834 C1837 1.409 . S
C1835 H1827 0.930 . S
C1835 C1836 1.355 . S
C1835 C1837 1.415 . S
C1836 C1835 1.355 . S
C1836 C1838 1.419 . S
C1837 C1832 1.425 . S
C1837 C1834 1.409 . S
C1837 C1835 1.415 . S
C1838 H1828 0.930 . S
C1838 C1836 1.419 . S
C1838 C1839 1.362 . S
C1839 H1829 0.930 . S
C1839 C1832 1.409 . S
C1839 C1838 1.362 . S
H1840 C1846 0.930 . S
H1841 C1849 0.930 . S
H1842 C1850 0.930 . S
H1843 C1851 0.930 . S
H1844 C1854 0.930 . S
H1845 C1855 0.930 . S
C1846 H1840 0.930 . S
C1846 C1847 1.355 . S
C1846 C1848 1.415 . S
C1847 C1846 1.355 . S
C1847 C1849 1.419 . S
C1848 C1846 1.415 . S
C1848 C1853 1.425 . S
C1848 C1855 1.409 . S
C1849 H1841 0.930 . S
C1849 C1847 1.419 . S
C1849 C1850 1.362 . S
C1850 H1842 0.930 . S
C1850 C1849 1.362 . S
C1850 C1853 1.409 . S
C1851 H1843 0.930 . S
C1851 C1852 1.355 . S
C1851 C1853 1.415 . S
C1852 C1851 1.355 . S
C1852 C1854 1.419 . S
C1853 C1848 1.425 . S
C1853 C1850 1.409 . S
C1853 C1851 1.415 . S
C1854 H1844 0.930 . S
C1854 C1852 1.419 . S
C1854 C1855 1.362 . S
C1855 H1845 0.930 . S
C1855 C1848 1.409 . S
C1855 C1854 1.362 . S
H1856 C1862 0.930 . S
H1857 C1865 0.930 . S
H1858 C1866 0.930 . S
H1859 C1867 0.930 . S
H1860 C1870 0.930 . S
H1861 C1871 0.930 . S
C1862 H1856 0.930 . S
C1862 C1863 1.355 . S
C1862 C1864 1.415 . S
C1863 C1862 1.355 . S
C1863 C1865 1.419 . S
C1864 C1862 1.415 . S
C1864 C1869 1.425 . S
C1864 C1871 1.409 . S
C1865 H1857 0.930 . S
C1865 C1863 1.419 . S
C1865 C1866 1.362 . S
C1866 H1858 0.930 . S
C1866 C1865 1.362 . S
C1866 C1869 1.409 . S
C1867 H1859 0.930 . S
C1867 C1868 1.355 . S
C1867 C1869 1.415 . S
C1868 C1867 1.355 . S
C1868 C1870 1.419 . S
C1869 C1864 1.425 . S
C1869 C1866 1.409 . S
C1869 C1867 1.415 . S
C1870 H1860 0.930 . S
C1870 C1868 1.419 . S
C1870 C1871 1.362 . S
C1871 H1861 0.930 . S
C1871 C1864 1.409 . S
C1871 C1870 1.362 . S
H1872 C1878 0.930 . S
H1873 C1881 0.930 . S
H1874 C1882 0.930 . S
H1875 C1883 0.930 . S
H1876 C1886 0.930 . S
H1877 C1887 0.930 . S
C1878 H1872 0.930 . S
C1878 C1879 1.355 . S
C1878 C1880 1.415 . S
C1879 C1878 1.355 . S
C1879 C1881 1.419 . S
C1880 C1878 1.415 . S
C1880 C1885 1.425 . S
C1880 C1887 1.409 . S
C1881 H1873 0.930 . S
C1881 C1879 1.419 . S
C1881 C1882 1.362 . S
C1882 H1874 0.930 . S
C1882 C1881 1.362 . S
C1882 C1885 1.409 . S
C1883 H1875 0.930 . S
C1883 C1884 1.355 . S
C1883 C1885 1.415 . S
C1884 C1883 1.355 . S
C1884 C1886 1.419 . S
C1885 C1880 1.425 . S
C1885 C1882 1.409 . S
C1885 C1883 1.415 . S
C1886 H1876 0.930 . S
C1886 C1884 1.419 . S
C1886 C1887 1.362 . S
C1887 H1877 0.930 . S
C1887 C1880 1.409 . S
C1887 C1886 1.362 . S
H1888 C1894 0.930 . S
H1889 C1897 0.930 . S
H1890 C1898 0.930 . S
H1891 C1899 0.930 . S
H1892 C1902 0.930 . S
H1893 C1903 0.930 . S
C1894 H1888 0.930 . S
C1894 C1895 1.355 . S
C1894 C1896 1.415 . S
C1895 C1894 1.355 . S
C1895 C1897 1.419 . S
C1896 C1894 1.415 . S
C1896 C1901 1.425 . S
C1896 C1903 1.409 . S
C1897 H1889 0.930 . S
C1897 C1895 1.419 . S
C1897 C1898 1.362 . S
C1898 H1890 0.930 . S
C1898 C1897 1.362 . S
C1898 C1901 1.409 . S
C1899 H1891 0.930 . S
C1899 C1900 1.355 . S
C1899 C1901 1.415 . S
C1900 C1899 1.355 . S
C1900 C1902 1.419 . S
C1901 C1896 1.425 . S
C1901 C1898 1.409 . S
C1901 C1899 1.415 . S
C1902 H1892 0.930 . S
C1902 C1900 1.419 . S
C1902 C1903 1.362 . S
C1903 H1893 0.930 . S
C1903 C1896 1.409 . S
C1903 C1902 1.362 . S
H1904 C1910 0.930 . S
H1905 C1913 0.930 . S
H1906 C1914 0.930 . S
H1907 C1915 0.930 . S
H1908 C1918 0.930 . S
H1909 C1919 0.930 . S
C1910 H1904 0.930 . S
C1910 C1911 1.355 . S
C1910 C1912 1.415 . S
C1911 C1910 1.355 . S
C1911 C1913 1.419 . S
C1912 C1910 1.415 . S
C1912 C1917 1.425 . S
C1912 C1919 1.409 . S
C1913 H1905 0.930 . S
C1913 C1911 1.419 . S
C1913 C1914 1.362 . S
C1914 H1906 0.930 . S
C1914 C1913 1.362 . S
C1914 C1917 1.409 . S
C1915 H1907 0.930 . S
C1915 C1916 1.355 . S
C1915 C1917 1.415 . S
C1916 C1915 1.355 . S
C1916 C1918 1.419 . S
C1917 C1912 1.425 . S
C1917 C1914 1.409 . S
C1917 C1915 1.415 . S
C1918 H1908 0.930 . S
C1918 C1916 1.419 . S
C1918 C1919 1.362 . S
C1919 H1909 0.930 . S
C1919 C1912 1.409 . S
C1919 C1918 1.362 . S
H1920 C1926 0.930 . S
H1921 C1929 0.930 . S
H1922 C1930 0.930 . S
H1923 C1931 0.930 . S
H1924 C1934 0.930 . S
H1925 C1935 0.930 . S
C1926 H1920 0.930 . S
C1926 C1927 1.355 . S
C1926 C1928 1.415 . S
C1927 C1926 1.355 . S
C1927 C1929 1.419 . S
C1928 C1926 1.415 . S
C1928 C1933 1.425 . S
C1928 C1935 1.409 . S
C1929 H1921 0.930 . S
C1929 C1927 1.419 . S
C1929 C1930 1.362 . S
C1930 H1922 0.930 . S
C1930 C1929 1.362 . S
C1930 C1933 1.409 . S
C1931 H1923 0.930 . S
C1931 C1932 1.355 . S
C1931 C1933 1.415 . S
C1932 C1931 1.355 . S
C1932 C1934 1.419 . S
C1933 C1928 1.425 . S
C1933 C1930 1.409 . S
C1933 C1931 1.415 . S
C1934 H1924 0.930 . S
C1934 C1932 1.419 . S
C1934 C1935 1.362 . S
C1935 H1925 0.930 . S
C1935 C1928 1.409 . S
C1935 C1934 1.362 . S
H1936 C1942 0.930 . S
H1937 C1945 0.930 1_455 S
H1938 C1946 0.930 . S
H1939 C1947 0.930 . S
H1940 C1950 0.930 . S
H1941 C1951 0.930 . S
C1942 H1936 0.930 . S
C1942 C1943 1.355 . S
C1942 C1944 1.415 . S
C1943 C1942 1.355 . S
C1943 C1945 1.419 . S
C1944 C1942 1.415 . S
C1944 C1949 1.425 . S
C1944 C1951 1.409 . S
C1945 H1937 0.930 1_655 S
C1945 C1943 1.419 . S
C1945 C1946 1.362 . S
C1946 H1938 0.930 . S
C1946 C1945 1.362 . S
C1946 C1949 1.409 . S
C1947 H1939 0.930 . S
C1947 C1948 1.355 . S
C1947 C1949 1.415 . S
C1948 C1947 1.355 . S
C1948 C1950 1.419 . S
C1949 C1944 1.425 . S
C1949 C1946 1.409 . S
C1949 C1947 1.415 . S
C1950 H1940 0.930 . S
C1950 C1948 1.419 . S
C1950 C1951 1.362 . S
C1951 H1941 0.930 . S
C1951 C1944 1.409 . S
C1951 C1950 1.362 . S
H1952 C1958 0.930 . S
H1953 C1961 0.930 . S
H1954 C1962 0.930 . S
H1955 C1963 0.930 . S
H1956 C1966 0.930 . S
H1957 C1967 0.930 . S
C1958 H1952 0.930 . S
C1958 C1959 1.355 . S
C1958 C1960 1.415 . S
C1959 C1958 1.355 . S
C1959 C1961 1.419 . S
C1960 C1958 1.415 . S
C1960 C1965 1.425 . S
C1960 C1967 1.409 . S
C1961 H1953 0.930 . S
C1961 C1959 1.419 . S
C1961 C1962 1.362 . S
C1962 H1954 0.930 . S
C1962 C1961 1.362 . S
C1962 C1965 1.409 . S
C1963 H1955 0.930 . S
C1963 C1964 1.355 . S
C1963 C1965 1.415 . S
C1964 C1963 1.355 . S
C1964 C1966 1.419 . S
C1965 C1960 1.425 . S
C1965 C1962 1.409 . S
C1965 C1963 1.415 . S
C1966 H1956 0.930 . S
C1966 C1964 1.419 . S
C1966 C1967 1.362 . S
C1967 H1957 0.930 . S
C1967 C1960 1.409 . S
C1967 C1966 1.362 . S
H1968 C1974 0.930 . S
H1969 C1977 0.930 . S
H1970 C1978 0.930 . S
H1971 C1979 0.930 . S
H1972 C1982 0.930 . S
H1973 C1983 0.930 . S
C1974 H1968 0.930 . S
C1974 C1975 1.355 . S
C1974 C1976 1.415 . S
C1975 C1974 1.355 . S
C1975 C1977 1.419 . S
C1976 C1974 1.415 . S
C1976 C1981 1.425 . S
C1976 C1983 1.409 . S
C1977 H1969 0.930 . S
C1977 C1975 1.419 . S
C1977 C1978 1.362 . S
C1978 H1970 0.930 . S
C1978 C1977 1.362 . S
C1978 C1981 1.409 . S
C1979 H1971 0.930 . S
C1979 C1980 1.355 . S
C1979 C1981 1.415 . S
C1980 C1979 1.355 . S
C1980 C1982 1.419 . S
C1981 C1976 1.425 . S
C1981 C1978 1.409 . S
C1981 C1979 1.415 . S
C1982 H1972 0.930 . S
C1982 C1980 1.419 . S
C1982 C1983 1.362 . S
C1983 H1973 0.930 . S
C1983 C1976 1.409 . S
C1983 C1982 1.362 . S
H1984 C1990 0.930 . S
H1985 C1993 0.930 . S
H1986 C1994 0.930 . S
H1987 C1995 0.930 . S
H1988 C1998 0.930 . S
H1989 C1999 0.930 . S
C1990 H1984 0.930 . S
C1990 C1991 1.355 . S
C1990 C1992 1.415 . S
C1991 C1990 1.355 . S
C1991 C1993 1.419 . S
C1992 C1990 1.415 . S
C1992 C1997 1.425 . S
C1992 C1999 1.409 . S
C1993 H1985 0.930 . S
C1993 C1991 1.419 . S
C1993 C1994 1.362 . S
C1994 H1986 0.930 . S
C1994 C1993 1.362 . S
C1994 C1997 1.409 . S
C1995 H1987 0.930 . S
C1995 C1996 1.355 . S
C1995 C1997 1.415 . S
C1996 C1995 1.355 . S
C1996 C1998 1.419 . S
C1997 C1992 1.425 . S
C1997 C1994 1.409 . S
C1997 C1995 1.415 . S
C1998 H1988 0.930 . S
C1998 C1996 1.419 . S
C1998 C1999 1.362 . S
C1999 H1989 0.930 . S
C1999 C1992 1.409 . S
C1999 C1998 1.362 . S
H2000 C2006 0.930 . S
H2001 C2009 0.930 . S
H2002 C2010 0.930 . S
H2003 C2011 0.930 . S
H2004 C2014 0.930 . S
H2005 C2015 0.930 . S
C2006 H2000 0.930 . S
C2006 C2007 1.355 . S
C2006 C2008 1.415 . S
C2007 C2006 1.355 . S
C2007 C2009 1.419 . S
C2008 C2006 1.415 . S
C2008 C2013 1.425 . S
C2008 C2015 1.409 . S
C2009 H2001 0.930 . S
C2009 C2007 1.419 . S
C2009 C2010 1.362 . S
C2010 H2002 0.930 . S
C2010 C2009 1.362 . S
C2010 C2013 1.409 . S
C2011 H2003 0.930 . S
C2011 C2012 1.355 . S
C2011 C2013 1.415 . S
C2012 C2011 1.355 . S
C2012 C2014 1.419 . S
C2013 C2008 1.425 . S
C2013 C2010 1.409 . S
C2013 C2011 1.415 . S
C2014 H2004 0.930 . S
C2014 C2012 1.419 . S
C2014 C2015 1.362 . S
C2015 H2005 0.930 . S
C2015 C2008 1.409 . S
C2015 C2014 1.362 . S
H2016 C2022 0.930 . S
H2017 C2025 0.930 . S
H2018 C2026 0.930 . S
H2019 C2027 0.930 . S
H2020 C2030 0.930 . S
H2021 C2031 0.930 . S
C2022 H2016 0.930 . S
C2022 C2023 1.355 . S
C2022 C2024 1.415 . S
C2023 C2022 1.355 . S
C2023 C2025 1.419 . S
C2024 C2022 1.415 . S
C2024 C2029 1.425 . S
C2024 C2031 1.409 . S
C2025 H2017 0.930 . S
C2025 C2023 1.419 . S
C2025 C2026 1.362 . S
C2026 H2018 0.930 . S
C2026 C2025 1.362 . S
C2026 C2029 1.409 . S
C2027 H2019 0.930 . S
C2027 C2028 1.355 . S
C2027 C2029 1.415 . S
C2028 C2027 1.355 . S
C2028 C2030 1.419 . S
C2029 C2024 1.425 . S
C2029 C2026 1.409 . S
C2029 C2027 1.415 . S
C2030 H2020 0.930 . S
C2030 C2028 1.419 . S
C2030 C2031 1.362 . S
C2031 H2021 0.930 . S
C2031 C2024 1.409 . S
C2031 C2030 1.362 . S
H2032 C2038 0.930 . S
H2033 C2041 0.930 . S
H2034 C2042 0.930 . S
H2035 C2043 0.930 . S
H2036 C2046 0.930 . S
H2037 C2047 0.930 . S
C2038 H2032 0.930 . S
C2038 C2039 1.355 . S
C2038 C2040 1.415 . S
C2039 C2038 1.355 . S
C2039 C2041 1.419 . S
C2040 C2038 1.415 . S
C2040 C2045 1.425 . S
C2040 C2047 1.409 . S
C2041 H2033 0.930 . S
C2041 C2039 1.419 . S
C2041 C2042 1.362 . S
C2042 H2034 0.930 . S
C2042 C2041 1.362 . S
C2042 C2045 1.409 . S
C2043 H2035 0.930 . S
C2043 C2044 1.355 . S
C2043 C2045 1.415 . S
C2044 C2043 1.355 . S
C2044 C2046 1.419 . S
C2045 C2040 1.425 . S
C2045 C2042 1.409 . S
C2045 C2043 1.415 . S
C2046 H2036 0.930 . S
C2046 C2044 1.419 . S
C2046 C2047 1.362 . S
C2047 H2037 0.930 . S
C2047 C2040 1.409 . S
C2047 C2046 1.362 . S
H2048 C2054 0.930 . S
H2049 C2057 0.930 . S
H2050 C2058 0.930 . S
H2051 C2059 0.930 . S
H2052 C2062 0.930 . S
H2053 C2063 0.930 . S
C2054 H2048 0.930 . S
C2054 C2055 1.355 . S
C2054 C2056 1.415 . S
C2055 C2054 1.355 . S
C2055 C2057 1.419 . S
C2056 C2054 1.415 . S
C2056 C2061 1.425 . S
C2056 C2063 1.409 . S
C2057 H2049 0.930 . S
C2057 C2055 1.419 . S
C2057 C2058 1.362 . S
C2058 H2050 0.930 . S
C2058 C2057 1.362 . S
C2058 C2061 1.409 . S
C2059 H2051 0.930 . S
C2059 C2060 1.355 . S
C2059 C2061 1.415 . S
C2060 C2059 1.355 . S
C2060 C2062 1.419 . S
C2061 C2056 1.425 . S
C2061 C2058 1.409 . S
C2061 C2059 1.415 . S
C2062 H2052 0.930 . S
C2062 C2060 1.419 . S
C2062 C2063 1.362 . S
C2063 H2053 0.930 . S
C2063 C2056 1.409 . S
C2063 C2062 1.362 . S
H2064 C2070 0.930 . S
H2065 C2073 0.930 . S
H2066 C2074 0.930 . S
H2067 C2075 0.930 . S
H2068 C2078 0.930 . S
H2069 C2079 0.930 . S
C2070 H2064 0.930 . S
C2070 C2071 1.355 . S
C2070 C2072 1.415 . S
C2071 C2070 1.355 . S
C2071 C2073 1.419 . S
C2072 C2070 1.415 . S
C2072 C2077 1.425 . S
C2072 C2079 1.409 . S
C2073 H2065 0.930 . S
C2073 C2071 1.419 . S
C2073 C2074 1.362 . S
C2074 H2066 0.930 . S
C2074 C2073 1.362 . S
C2074 C2077 1.409 . S
C2075 H2067 0.930 . S
C2075 C2076 1.355 . S
C2075 C2077 1.415 . S
C2076 C2075 1.355 . S
C2076 C2078 1.419 . S
C2077 C2072 1.425 . S
C2077 C2074 1.409 . S
C2077 C2075 1.415 . S
C2078 H2068 0.930 . S
C2078 C2076 1.419 . S
C2078 C2079 1.362 . S
C2079 H2069 0.930 . S
C2079 C2072 1.409 . S
C2079 C2078 1.362 . S
H2080 C2086 0.930 . S
H2081 C2089 0.930 . S
H2082 C2090 0.930 . S
H2083 C2091 0.930 . S
H2084 C2094 0.930 . S
H2085 C2095 0.930 . S
C2086 H2080 0.930 . S
C2086 C2087 1.355 . S
C2086 C2088 1.415 . S
C2087 C2086 1.355 . S
C2087 C2089 1.419 . S
C2088 C2086 1.415 . S
C2088 C2093 1.425 . S
C2088 C2095 1.409 . S
C2089 H2081 0.930 . S
C2089 C2087 1.419 . S
C2089 C2090 1.362 . S
C2090 H2082 0.930 . S
C2090 C2089 1.362 . S
C2090 C2093 1.409 . S
C2091 H2083 0.930 . S
C2091 C2092 1.355 . S
C2091 C2093 1.415 . S
C2092 C2091 1.355 . S
C2092 C2094 1.419 . S
C2093 C2088 1.425 . S
C2093 C2090 1.409 . S
C2093 C2091 1.415 . S
C2094 H2084 0.930 . S
C2094 C2092 1.419 . S
C2094 C2095 1.362 . S
C2095 H2085 0.930 . S
C2095 C2088 1.409 . S
C2095 C2094 1.362 . S
H2096 C2102 0.930 . S
H2097 C2105 0.930 . S
H2098 C2106 0.930 . S
H2099 C2107 0.930 . S
H2100 C2110 0.930 . S
H2101 C2111 0.930 . S
C2102 H2096 0.930 . S
C2102 C2103 1.355 . S
C2102 C2104 1.415 . S
C2103 C2102 1.355 . S
C2103 C2105 1.419 . S
C2104 C2102 1.415 . S
C2104 C2109 1.425 . S
C2104 C2111 1.409 . S
C2105 H2097 0.930 . S
C2105 C2103 1.419 . S
C2105 C2106 1.362 . S
C2106 H2098 0.930 . S
C2106 C2105 1.362 . S
C2106 C2109 1.409 . S
C2107 H2099 0.930 . S
C2107 C2108 1.355 . S
C2107 C2109 1.415 . S
C2108 C2107 1.355 . S
C2108 C2110 1.419 . S
C2109 C2104 1.425 . S
C2109 C2106 1.409 . S
C2109 C2107 1.415 . S
C2110 H2100 0.930 . S
C2110 C2108 1.419 . S
C2110 C2111 1.362 . S
C2111 H2101 0.930 . S
C2111 C2104 1.409 . S
C2111 C2110 1.362 . S
H2112 C2118 0.930 . S
H2113 C2121 0.930 . S
H2114 C2122 0.930 . S
H2115 C2123 0.930 . S
H2116 C2126 0.930 . S
H2117 C2127 0.930 . S
C2118 H2112 0.930 . S
C2118 C2119 1.355 . S
C2118 C2120 1.415 . S
C2119 C2118 1.355 . S
C2119 C2121 1.419 . S
C2120 C2118 1.415 . S
C2120 C2125 1.425 . S
C2120 C2127 1.409 . S
C2121 H2113 0.930 . S
C2121 C2119 1.419 . S
C2121 C2122 1.362 . S
C2122 H2114 0.930 . S
C2122 C2121 1.362 . S
C2122 C2125 1.409 . S
C2123 H2115 0.930 . S
C2123 C2124 1.355 . S
C2123 C2125 1.415 . S
C2124 C2123 1.355 . S
C2124 C2126 1.419 . S
C2125 C2120 1.425 . S
C2125 C2122 1.409 . S
C2125 C2123 1.415 . S
C2126 H2116 0.930 . S
C2126 C2124 1.419 . S
C2126 C2127 1.362 . S
C2127 H2117 0.930 . S
C2127 C2120 1.409 . S
C2127 C2126 1.362 . S
H2128 C2134 0.930 . S
H2129 C2137 0.930 . S
H2130 C2138 0.930 . S
H2131 C2139 0.930 . S
H2132 C2142 0.930 . S
H2133 C2143 0.930 . S
C2134 H2128 0.930 . S
C2134 C2135 1.355 . S
C2134 C2136 1.415 . S
C2135 C2134 1.355 . S
C2135 C2137 1.419 . S
C2136 C2134 1.415 . S
C2136 C2141 1.425 . S
C2136 C2143 1.409 . S
C2137 H2129 0.930 . S
C2137 C2135 1.419 . S
C2137 C2138 1.362 . S
C2138 H2130 0.930 . S
C2138 C2137 1.362 . S
C2138 C2141 1.409 . S
C2139 H2131 0.930 . S
C2139 C2140 1.355 . S
C2139 C2141 1.415 . S
C2140 C2139 1.355 . S
C2140 C2142 1.419 . S
C2141 C2136 1.425 . S
C2141 C2138 1.409 . S
C2141 C2139 1.415 . S
C2142 H2132 0.930 . S
C2142 C2140 1.419 . S
C2142 C2143 1.362 . S
C2143 H2133 0.930 . S
C2143 C2136 1.409 . S
C2143 C2142 1.362 . S
H2144 C2150 0.930 . S
H2145 C2153 0.930 . S
H2146 C2154 0.930 . S
H2147 C2155 0.930 . S
H2148 C2158 0.930 . S
H2149 C2159 0.930 . S
C2150 H2144 0.930 . S
C2150 C2151 1.355 . S
C2150 C2152 1.415 . S
C2151 C2150 1.355 . S
C2151 C2153 1.419 . S
C2152 C2150 1.415 . S
C2152 C2157 1.425 . S
C2152 C2159 1.409 . S
C2153 H2145 0.930 . S
C2153 C2151 1.419 . S
C2153 C2154 1.362 . S
C2154 H2146 0.930 . S
C2154 C2153 1.362 . S
C2154 C2157 1.409 . S
C2155 H2147 0.930 . S
C2155 C2156 1.355 . S
C2155 C2157 1.415 . S
C2156 C2155 1.355 . S
C2156 C2158 1.419 . S
C2157 C2152 1.425 . S
C2157 C2154 1.409 . S
C2157 C2155 1.415 . S
C2158 H2148 0.930 . S
C2158 C2156 1.419 . S
C2158 C2159 1.362 . S
C2159 H2149 0.930 . S
C2159 C2152 1.409 . S
C2159 C2158 1.362 . S
H2160 C2166 0.930 . S
H2161 C2169 0.930 . S
H2162 C2170 0.930 . S
H2163 C2171 0.930 . S
H2164 C2174 0.930 . S
H2165 C2175 0.930 . S
C2166 H2160 0.930 . S
C2166 C2167 1.355 . S
C2166 C2168 1.415 . S
C2167 C2166 1.355 . S
C2167 C2169 1.419 . S
C2168 C2166 1.415 . S
C2168 C2173 1.425 . S
C2168 C2175 1.409 . S
C2169 H2161 0.930 . S
C2169 C2167 1.419 . S
C2169 C2170 1.362 . S
C2170 H2162 0.930 . S
C2170 C2169 1.362 . S
C2170 C2173 1.409 . S
C2171 H2163 0.930 . S
C2171 C2172 1.355 . S
C2171 C2173 1.415 . S
C2172 C2171 1.355 . S
C2172 C2174 1.419 . S
C2173 C2168 1.425 . S
C2173 C2170 1.409 . S
C2173 C2171 1.415 . S
C2174 H2164 0.930 . S
C2174 C2172 1.419 . S
C2174 C2175 1.362 . S
C2175 H2165 0.930 . S
C2175 C2168 1.409 . S
C2175 C2174 1.362 . S
H2176 C2182 0.930 . S
H2177 C2185 0.930 . S
H2178 C2186 0.930 . S
H2179 C2187 0.930 . S
H2180 C2190 0.930 . S
H2181 C2191 0.930 . S
C2182 H2176 0.930 . S
C2182 C2183 1.355 . S
C2182 C2184 1.415 . S
C2183 C2182 1.355 . S
C2183 C2185 1.419 . S
C2184 C2182 1.415 . S
C2184 C2189 1.425 . S
C2184 C2191 1.409 . S
C2185 H2177 0.930 . S
C2185 C2183 1.419 . S
C2185 C2186 1.362 . S
C2186 H2178 0.930 . S
C2186 C2185 1.362 . S
C2186 C2189 1.409 . S
C2187 H2179 0.930 . S
C2187 C2188 1.355 . S
C2187 C2189 1.415 . S
C2188 C2187 1.355 . S
C2188 C2190 1.419 . S
C2189 C2184 1.425 . S
C2189 C2186 1.409 . S
C2189 C2187 1.415 . S
C2190 H2180 0.930 . S
C2190 C2188 1.419 . S
C2190 C2191 1.362 . S
C2191 H2181 0.930 . S
C2191 C2184 1.409 . S
C2191 C2190 1.362 . S
H2192 C2198 0.930 . S
H2193 C2201 0.930 . S
H2194 C2202 0.930 . S
H2195 C2203 0.930 . S
H2196 C2206 0.930 . S
H2197 C2207 0.930 . S
C2198 H2192 0.930 . S
C2198 C2199 1.355 . S
C2198 C2200 1.415 . S
C2199 C2198 1.355 . S
C2199 C2201 1.419 . S
C2200 C2198 1.415 . S
C2200 C2205 1.425 . S
C2200 C2207 1.409 . S
C2201 H2193 0.930 . S
C2201 C2199 1.419 . S
C2201 C2202 1.362 . S
C2202 H2194 0.930 . S
C2202 C2201 1.362 . S
C2202 C2205 1.409 . S
C2203 H2195 0.930 . S
C2203 C2204 1.355 . S
C2203 C2205 1.415 . S
C2204 C2203 1.355 . S
C2204 C2206 1.419 . S
C2205 C2200 1.425 . S
C2205 C2202 1.409 . S
C2205 C2203 1.415 . S
C2206 H2196 0.930 . S
C2206 C2204 1.419 . S
C2206 C2207 1.362 . S
C2207 H2197 0.930 . S
C2207 C2200 1.409 . S
C2207 C2206 1.362 . S
H2208 C2214 0.930 . S
H2209 C2217 0.930 . S
H2210 C2218 0.930 . S
H2211 C2219 0.930 . S
H2212 C2222 0.930 . S
H2213 C2223 0.930 . S
C2214 H2208 0.930 . S
C2214 C2215 1.355 . S
C2214 C2216 1.415 . S
C2215 C2214 1.355 . S
C2215 C2217 1.419 . S
C2216 C2214 1.415 . S
C2216 C2221 1.425 . S
C2216 C2223 1.409 . S
C2217 H2209 0.930 . S
C2217 C2215 1.419 . S
C2217 C2218 1.362 . S
C2218 H2210 0.930 . S
C2218 C2217 1.362 . S
C2218 C2221 1.409 . S
C2219 H2211 0.930 . S
C2219 C2220 1.355 . S
C2219 C2221 1.415 . S
C2220 C2219 1.355 . S
C2220 C2222 1.419 . S
C2221 C2216 1.425 . S
C2221 C2218 1.409 . S
C2221 C2219 1.415 . S
C2222 H2212 0.930 . S
C2222 C2220 1.419 . S
C2222 C2223 1.362 . S
C2223 H2213 0.930 . S
C2223 C2216 1.409 . S
C2223 C2222 1.362 . S
H2224 C2230 0.930 . S
H2225 C2233 0.930 . S
H2226 C2234 0.930 . S
H2227 C2235 0.930 . S
H2228 C2238 0.930 . S
H2229 C2239 0.930 . S
C2230 H2224 0.930 . S
C2230 C2231 1.355 . S
C2230 C2232 1.415 . S
C2231 C2230 1.355 . S
C2231 C2233 1.419 . S
C2232 C2230 1.415 . S
C2232 C2237 1.425 . S
C2232 C2239 1.409 . S
C2233 H2225 0.930 . S
C2233 C2231 1.419 . S
C2233 C2234 1.362 . S
C2234 H2226 0.930 . S
C2234 C2233 1.362 . S
C2234 C2237 1.409 . S
C2235 H2227 0.930 . S
C2235 C2236 1.355 . S
C2235 C2237 1.415 . S
C2236 C2235 1.355 . S
C2236 C2238 1.419 . S
C2237 C2232 1.425 . S
C2237 C2234 1.409 . S
C2237 C2235 1.415 . S
C2238 H2228 0.930 . S
C2238 C2236 1.419 . S
C2238 C2239 1.362 . S
C2239 H2229 0.930 . S
C2239 C2232 1.409 . S
C2239 C2238 1.362 . S
H2240 C2246 0.930 . S
H2241 C2249 0.930 . S
H2242 C2250 0.930 . S
H2243 C2251 0.930 . S
H2244 C2254 0.930 . S
H2245 C2255 0.930 . S
C2246 H2240 0.930 . S
C2246 C2247 1.355 . S
C2246 C2248 1.415 . S
C2247 C2246 1.355 . S
C2247 C2249 1.419 . S
C2248 C2246 1.415 . S
C2248 C2253 1.425 . S
C2248 C2255 1.409 . S
C2249 H2241 0.930 . S
C2249 C2247 1.419 . S
C2249 C2250 1.362 . S
C2250 H2242 0.930 . S
C2250 C2249 1.362 . S
C2250 C2253 1.409 . S
C2251 H2243 0.930 . S
C2251 C2252 1.355 . S
C2251 C2253 1.415 . S
C2252 C2251 1.355 . S
C2252 C2254 1.419 . S
C2253 C2248 1.425 . S
C2253 C2250 1.409 . S
C2253 C2251 1.415 . S
C2254 H2244 0.930 . S
C2254 C2252 1.419 . S
C2254 C2255 1.362 . S
C2255 H2245 0.930 . S
C2255 C2248 1.409 . S
C2255 C2254 1.362 . S
H2256 C2262 0.930 . S
H2257 C2265 0.930 . S
H2258 C2266 0.930 . S
H2259 C2267 0.930 . S
H2260 C2270 0.930 . S
H2261 C2271 0.930 . S
C2262 H2256 0.930 . S
C2262 C2263 1.355 . S
C2262 C2264 1.415 . S
C2263 C2262 1.355 . S
C2263 C2265 1.419 . S
C2264 C2262 1.415 . S
C2264 C2269 1.425 . S
C2264 C2271 1.409 . S
C2265 H2257 0.930 . S
C2265 C2263 1.419 . S
C2265 C2266 1.362 . S
C2266 H2258 0.930 . S
C2266 C2265 1.362 . S
C2266 C2269 1.409 . S
C2267 H2259 0.930 . S
C2267 C2268 1.355 . S
C2267 C2269 1.415 . S
C2268 C2267 1.355 . S
C2268 C2270 1.419 . S
C2269 C2264 1.425 . S
C2269 C2266 1.409 . S
C2269 C2267 1.415 . S
C2270 H2260 0.930 . S
C2270 C2268 1.419 . S
C2270 C2271 1.362 . S
C2271 H2261 0.930 . S
C2271 C2264 1.409 . S
C2271 C2270 1.362 . S
H2272 C2278 0.930 . S
H2273 C2281 0.930 . S
H2274 C2282 0.930 . S
H2275 C2283 0.930 . S
H2276 C2286 0.930 . S
H2277 C2287 0.930 . S
C2278 H2272 0.930 . S
C2278 C2279 1.355 . S
C2278 C2280 1.415 . S
C2279 C2278 1.355 . S
C2279 C2281 1.419 . S
C2280 C2278 1.415 . S
C2280 C2285 1.425 . S
C2280 C2287 1.409 . S
C2281 H2273 0.930 . S
C2281 C2279 1.419 . S
C2281 C2282 1.362 . S
C2282 H2274 0.930 . S
C2282 C2281 1.362 . S
C2282 C2285 1.409 . S
C2283 H2275 0.930 . S
C2283 C2284 1.355 . S
C2283 C2285 1.415 . S
C2284 C2283 1.355 . S
C2284 C2286 1.419 . S
C2285 C2280 1.425 . S
C2285 C2282 1.409 . S
C2285 C2283 1.415 . S
C2286 H2276 0.930 . S
C2286 C2284 1.419 . S
C2286 C2287 1.362 . S
C2287 H2277 0.930 . S
C2287 C2280 1.409 . S
C2287 C2286 1.362 . S
H2288 C2294 0.930 . S
H2289 C2297 0.930 . S
H2290 C2298 0.930 . S
H2291 C2299 0.930 . S
H2292 C2302 0.930 . S
H2293 C2303 0.930 . S
C2294 H2288 0.930 . S
C2294 C2295 1.355 . S
C2294 C2296 1.415 . S
C2295 C2294 1.355 . S
C2295 C2297 1.419 . S
C2296 C2294 1.415 . S
C2296 C2301 1.425 . S
C2296 C2303 1.409 . S
C2297 H2289 0.930 . S
C2297 C2295 1.419 . S
C2297 C2298 1.362 . S
C2298 H2290 0.930 . S
C2298 C2297 1.362 . S
C2298 C2301 1.409 . S
C2299 H2291 0.930 . S
C2299 C2300 1.355 . S
C2299 C2301 1.415 . S
C2300 C2299 1.355 . S
C2300 C2302 1.419 . S
C2301 C2296 1.425 . S
C2301 C2298 1.409 . S
C2301 C2299 1.415 . S
C2302 H2292 0.930 . S
C2302 C2300 1.419 . S
C2302 C2303 1.362 . S
C2303 H2293 0.930 . S
C2303 C2296 1.409 . S
C2303 C2302 1.362 . S
H2304 C2310 0.930 . S
H2305 C2313 0.930 . S
H2306 C2314 0.930 . S
H2307 C2315 0.930 . S
H2308 C2318 0.930 . S
H2309 C2319 0.930 . S
C2310 H2304 0.930 . S
C2310 C2311 1.355 . S
C2310 C2312 1.415 . S
C2311 C2310 1.355 . S
C2311 C2313 1.419 . S
C2312 C2310 1.415 . S
C2312 C2317 1.425 1_545 S
C2312 C2319 1.409 1_545 S
C2313 H2305 0.930 . S
C2313 C2311 1.419 . S
C2313 C2314 1.362 . S
C2314 H2306 0.930 . S
C2314 C2313 1.362 . S
C2314 C2317 1.409 1_545 S
C2315 H2307 0.930 . S
C2315 C2316 1.355 . S
C2315 C2317 1.415 . S
C2316 C2315 1.355 . S
C2316 C2318 1.419 . S
C2317 C2312 1.425 1_565 S
C2317 C2314 1.409 1_565 S
C2317 C2315 1.415 . S
C2318 H2308 0.930 . S
C2318 C2316 1.419 . S
C2318 C2319 1.362 . S
C2319 H2309 0.930 . S
C2319 C2312 1.409 1_565 S
C2319 C2318 1.362 . S
H2320 C2326 0.930 . S
H2321 C2329 0.930 . S
H2322 C2330 0.930 . S
H2323 C2331 0.930 . S
H2324 C2334 0.930 . S
H2325 C2335 0.930 . S
C2326 H2320 0.930 . S
C2326 C2327 1.355 . S
C2326 C2328 1.415 . S
C2327 C2326 1.355 . S
C2327 C2329 1.419 . S
C2328 C2326 1.415 . S
C2328 C2333 1.425 . S
C2328 C2335 1.409 . S
C2329 H2321 0.930 . S
C2329 C2327 1.419 . S
C2329 C2330 1.362 . S
C2330 H2322 0.930 . S
C2330 C2329 1.362 . S
C2330 C2333 1.409 . S
C2331 H2323 0.930 . S
C2331 C2332 1.355 . S
C2331 C2333 1.415 . S
C2332 C2331 1.355 . S
C2332 C2334 1.419 . S
C2333 C2328 1.425 . S
C2333 C2330 1.409 . S
C2333 C2331 1.415 . S
C2334 H2324 0.930 . S
C2334 C2332 1.419 . S
C2334 C2335 1.362 . S
C2335 H2325 0.930 . S
C2335 C2328 1.409 . S
C2335 C2334 1.362 . S
H2336 C2342 0.930 . S
H2337 C2345 0.930 . S
H2338 C2346 0.930 . S
H2339 C2347 0.930 . S
H2340 C2350 0.930 . S
H2341 C2351 0.930 . S
C2342 H2336 0.930 . S
C2342 C2343 1.355 . S
C2342 C2344 1.415 . S
C2343 C2342 1.355 . S
C2343 C2345 1.419 . S
C2344 C2342 1.415 . S
C2344 C2349 1.425 1_565 S
C2344 C2351 1.409 1_565 S
C2345 H2337 0.930 . S
C2345 C2343 1.419 . S
C2345 C2346 1.362 . S
C2346 H2338 0.930 . S
C2346 C2345 1.362 . S
C2346 C2349 1.409 1_565 S
C2347 H2339 0.930 . S
C2347 C2348 1.355 . S
C2347 C2349 1.415 . S
C2348 C2347 1.355 . S
C2348 C2350 1.419 . S
C2349 C2344 1.425 1_545 S
C2349 C2346 1.409 1_545 S
C2349 C2347 1.415 . S
C2350 H2340 0.930 . S
C2350 C2348 1.419 . S
C2350 C2351 1.362 . S
C2351 H2341 0.930 . S
C2351 C2344 1.409 1_545 S
C2351 C2350 1.362 . S
H2352 C2358 0.930 . S
H2353 C2361 0.930 . S
H2354 C2362 0.930 . S
H2355 C2363 0.930 . S
H2356 C2366 0.930 . S
H2357 C2367 0.930 . S
C2358 H2352 0.930 . S
C2358 C2359 1.355 . S
C2358 C2360 1.415 . S
C2359 C2358 1.355 . S
C2359 C2361 1.419 1_554 S
C2360 C2358 1.415 . S
C2360 C2365 1.425 1_554 S
C2360 C2367 1.409 . S
C2361 H2353 0.930 . S
C2361 C2359 1.419 1_556 S
C2361 C2362 1.362 . S
C2362 H2354 0.930 . S
C2362 C2361 1.362 . S
C2362 C2365 1.409 . S
C2363 H2355 0.930 . S
C2363 C2364 1.355 . S
C2363 C2365 1.415 . S
C2364 C2363 1.355 . S
C2364 C2366 1.419 1_556 S
C2365 C2360 1.425 1_556 S
C2365 C2362 1.409 . S
C2365 C2363 1.415 . S
C2366 H2356 0.930 . S
C2366 C2364 1.419 1_554 S
C2366 C2367 1.362 . S
C2367 H2357 0.930 . S
C2367 C2360 1.409 . S
C2367 C2366 1.362 . S
H2368 C2374 0.930 . S
H2369 C2377 0.930 . S
H2370 C2378 0.930 . S
H2371 C2379 0.930 . S
H2372 C2382 0.930 . S
H2373 C2383 0.930 . S
C2374 H2368 0.930 . S
C2374 C2375 1.355 . S
C2374 C2376 1.415 . S
C2375 C2374 1.355 . S
C2375 C2377 1.419 . S
C2376 C2374 1.415 . S
C2376 C2381 1.425 1_545 S
C2376 C2383 1.409 1_545 S
C2377 H2369 0.930 . S
C2377 C2375 1.419 . S
C2377 C2378 1.362 . S
C2378 H2370 0.930 . S
C2378 C2377 1.362 . S
C2378 C2381 1.409 1_545 S
C2379 H2371 0.930 . S
C2379 C2380 1.355 . S
C2379 C2381 1.415 . S
C2380 C2379 1.355 . S
C2380 C2382 1.419 . S
C2381 C2376 1.425 1_565 S
C2381 C2378 1.409 1_565 S
C2381 C2379 1.415 . S
C2382 H2372 0.930 . S
C2382 C2380 1.419 . S
C2382 C2383 1.362 . S
C2383 H2373 0.930 . S
C2383 C2376 1.409 1_565 S
C2383 C2382 1.362 . S
H2384 C2390 0.930 . S
H2385 C2393 0.930 . S
H2386 C2394 0.930 . S
H2387 C2395 0.930 . S
H2388 C2398 0.930 . S
H2389 C2399 0.930 . S
C2390 H2384 0.930 . S
C2390 C2391 1.355 . S
C2390 C2392 1.415 . S
C2391 C2390 1.355 . S
C2391 C2393 1.419 . S
C2392 C2390 1.415 . S
C2392 C2397 1.425 . S
C2392 C2399 1.409 . S
C2393 H2385 0.930 . S
C2393 C2391 1.419 . S
C2393 C2394 1.362 . S
C2394 H2386 0.930 . S
C2394 C2393 1.362 . S
C2394 C2397 1.409 . S
C2395 H2387 0.930 . S
C2395 C2396 1.355 . S
C2395 C2397 1.415 . S
C2396 C2395 1.355 . S
C2396 C2398 1.419 . S
C2397 C2392 1.425 . S
C2397 C2394 1.409 . S
C2397 C2395 1.415 . S
C2398 H2388 0.930 . S
C2398 C2396 1.419 . S
C2398 C2399 1.362 . S
C2399 H2389 0.930 . S
C2399 C2392 1.409 . S
C2399 C2398 1.362 . S
H2400 C2406 0.930 . S
H2401 C2409 0.930 . S
H2402 C2410 0.930 . S
H2403 C2411 0.930 . S
H2404 C2414 0.930 . S
H2405 C2415 0.930 . S
C2406 H2400 0.930 . S
C2406 C2407 1.355 . S
C2406 C2408 1.415 . S
C2407 C2406 1.355 . S
C2407 C2409 1.419 . S
C2408 C2406 1.415 . S
C2408 C2413 1.425 1_545 S
C2408 C2415 1.409 1_545 S
C2409 H2401 0.930 . S
C2409 C2407 1.419 . S
C2409 C2410 1.362 . S
C2410 H2402 0.930 . S
C2410 C2409 1.362 . S
C2410 C2413 1.409 1_545 S
C2411 H2403 0.930 . S
C2411 C2412 1.355 . S
C2411 C2413 1.415 . S
C2412 C2411 1.355 . S
C2412 C2414 1.419 . S
C2413 C2408 1.425 1_565 S
C2413 C2410 1.409 1_565 S
C2413 C2411 1.415 . S
C2414 H2404 0.930 . S
C2414 C2412 1.419 . S
C2414 C2415 1.362 . S
C2415 H2405 0.930 . S
C2415 C2408 1.409 1_565 S
C2415 C2414 1.362 . S
H2416 C2422 0.930 . S
H2417 C2425 0.930 . S
H2418 C2426 0.930 . S
H2419 C2427 0.930 . S
H2420 C2430 0.930 . S
H2421 C2431 0.930 . S
C2422 H2416 0.930 . S
C2422 C2423 1.355 1_556 S
C2422 C2424 1.415 . S
C2423 C2422 1.355 1_554 S
C2423 C2425 1.419 . S
C2424 C2422 1.415 . S
C2424 C2429 1.425 1_556 S
C2424 C2431 1.409 . S
C2425 H2417 0.930 . S
C2425 C2423 1.419 . S
C2425 C2426 1.362 . S
C2426 H2418 0.930 . S
C2426 C2425 1.362 . S
C2426 C2429 1.409 . S
C2427 H2419 0.930 . S
C2427 C2428 1.355 1_554 S
C2427 C2429 1.415 . S
C2428 C2427 1.355 1_556 S
C2428 C2430 1.419 . S
C2429 C2424 1.425 1_554 S
C2429 C2426 1.409 . S
C2429 C2427 1.415 . S
C2430 H2420 0.930 . S
C2430 C2428 1.419 . S
C2430 C2431 1.362 . S
C2431 H2421 0.930 . S
C2431 C2424 1.409 . S
C2431 C2430 1.362 . S
H2432 C2438 0.930 . S
H2433 C2441 0.930 . S
H2434 C2442 0.930 . S
H2435 C2443 0.930 . S
H2436 C2446 0.930 . S
H2437 C2447 0.930 . S
C2438 H2432 0.930 . S
C2438 C2439 1.355 . S
C2438 C2440 1.415 . S
C2439 C2438 1.355 . S
C2439 C2441 1.419 . S
C2440 C2438 1.415 . S
C2440 C2445 1.425 . S
C2440 C2447 1.409 . S
C2441 H2433 0.930 . S
C2441 C2439 1.419 . S
C2441 C2442 1.362 . S
C2442 H2434 0.930 . S
C2442 C2441 1.362 . S
C2442 C2445 1.409 . S
C2443 H2435 0.930 . S
C2443 C2444 1.355 . S
C2443 C2445 1.415 . S
C2444 C2443 1.355 . S
C2444 C2446 1.419 . S
C2445 C2440 1.425 . S
C2445 C2442 1.409 . S
C2445 C2443 1.415 . S
C2446 H2436 0.930 . S
C2446 C2444 1.419 . S
C2446 C2447 1.362 . S
C2447 H2437 0.930 . S
C2447 C2440 1.409 . S
C2447 C2446 1.362 . S
H2448 C2454 0.930 . S
H2449 C2457 0.930 . S
H2450 C2458 0.930 . S
H2451 C2459 0.930 . S
H2452 C2462 0.930 . S
H2453 C2463 0.930 . S
C2454 H2448 0.930 . S
C2454 C2455 1.355 1_556 S
C2454 C2456 1.415 . S
C2455 C2454 1.355 1_554 S
C2455 C2457 1.419 . S
C2456 C2454 1.415 . S
C2456 C2461 1.425 1_556 S
C2456 C2463 1.409 . S
C2457 H2449 0.930 . S
C2457 C2455 1.419 . S
C2457 C2458 1.362 . S
C2458 H2450 0.930 . S
C2458 C2457 1.362 . S
C2458 C2461 1.409 . S
C2459 H2451 0.930 . S
C2459 C2460 1.355 1_554 S
C2459 C2461 1.415 . S
C2460 C2459 1.355 1_556 S
C2460 C2462 1.419 . S
C2461 C2456 1.425 1_554 S
C2461 C2458 1.409 . S
C2461 C2459 1.415 . S
C2462 H2452 0.930 . S
C2462 C2460 1.419 . S
C2462 C2463 1.362 . S
C2463 H2453 0.930 . S
C2463 C2456 1.409 . S
C2463 C2462 1.362 . S
H2464 C2470 0.930 . S
H2465 C2473 0.930 . S
H2466 C2474 0.930 . S
H2467 C2475 0.930 . S
H2468 C2478 0.930 . S
H2469 C2479 0.930 . S
C2470 H2464 0.930 . S
C2470 C2471 1.355 . S
C2470 C2472 1.415 . S
C2471 C2470 1.355 . S
C2471 C2473 1.419 . S
C2472 C2470 1.415 . S
C2472 C2477 1.425 . S
C2472 C2479 1.409 . S
C2473 H2465 0.930 . S
C2473 C2471 1.419 . S
C2473 C2474 1.362 . S
C2474 H2466 0.930 . S
C2474 C2473 1.362 . S
C2474 C2477 1.409 . S
C2475 H2467 0.930 . S
C2475 C2476 1.355 . S
C2475 C2477 1.415 . S
C2476 C2475 1.355 . S
C2476 C2478 1.419 . S
C2477 C2472 1.425 . S
C2477 C2474 1.409 . S
C2477 C2475 1.415 . S
C2478 H2468 0.930 . S
C2478 C2476 1.419 . S
C2478 C2479 1.362 . S
C2479 H2469 0.930 . S
C2479 C2472 1.409 . S
C2479 C2478 1.362 . S
H2480 C2486 0.930 . S
H2481 C2489 0.930 . S
H2482 C2490 0.930 . S
H2483 C2491 0.930 . S
H2484 C2494 0.930 . S
H2485 C2495 0.930 . S
C2486 H2480 0.930 . S
C2486 C2487 1.355 . S
C2486 C2488 1.415 . S
C2487 C2486 1.355 . S
C2487 C2489 1.419 . S
C2488 C2486 1.415 . S
C2488 C2493 1.425 . S
C2488 C2495 1.409 . S
C2489 H2481 0.930 . S
C2489 C2487 1.419 . S
C2489 C2490 1.362 . S
C2490 H2482 0.930 . S
C2490 C2489 1.362 . S
C2490 C2493 1.409 . S
C2491 H2483 0.930 . S
C2491 C2492 1.355 . S
C2491 C2493 1.415 . S
C2492 C2491 1.355 . S
C2492 C2494 1.419 . S
C2493 C2488 1.425 . S
C2493 C2490 1.409 . S
C2493 C2491 1.415 . S
C2494 H2484 0.930 . S
C2494 C2492 1.419 . S
C2494 C2495 1.362 . S
C2495 H2485 0.930 . S
C2495 C2488 1.409 . S
C2495 C2494 1.362 . S
H2496 C2502 0.930 . S
H2497 C2505 0.930 . S
H2498 C2506 0.930 . S
H2499 C2507 0.930 . S
H2500 C2510 0.930 . S
H2501 C2511 0.930 . S
C2502 H2496 0.930 . S
C2502 C2503 1.355 . S
C2502 C2504 1.415 . S
C2503 C2502 1.355 . S
C2503 C2505 1.419 . S
C2504 C2502 1.415 . S
C2504 C2509 1.425 . S
C2504 C2511 1.409 . S
C2505 H2497 0.930 . S
C2505 C2503 1.419 . S
C2505 C2506 1.362 . S
C2506 H2498 0.930 . S
C2506 C2505 1.362 . S
C2506 C2509 1.409 . S
C2507 H2499 0.930 . S
C2507 C2508 1.355 . S
C2507 C2509 1.415 . S
C2508 C2507 1.355 . S
C2508 C2510 1.419 . S
C2509 C2504 1.425 . S
C2509 C2506 1.409 . S
C2509 C2507 1.415 . S
C2510 H2500 0.930 . S
C2510 C2508 1.419 . S
C2510 C2511 1.362 . S
C2511 H2501 0.930 . S
C2511 C2504 1.409 . S
C2511 C2510 1.362 . S
H2512 C2518 0.930 . S
H2513 C2521 0.930 . S
H2514 C2522 0.930 . S
H2515 C2523 0.930 . S
H2516 C2526 0.930 . S
H2517 C2527 0.930 . S
C2518 H2512 0.930 . S
C2518 C2519 1.359 . S
C2518 C2520 1.415 . S
C2519 C2518 1.359 . S
C2519 C2521 1.414 1_554 S
C2520 C2518 1.415 . S
C2520 C2525 1.425 1_554 S
C2520 C2527 1.409 . S
C2521 H2513 0.930 . S
C2521 C2519 1.414 1_556 S
C2521 C2522 1.362 . S
C2522 H2514 0.930 . S
C2522 C2521 1.362 . S
C2522 C2525 1.409 . S
C2523 H2515 0.930 . S
C2523 C2524 1.358 . S
C2523 C2525 1.415 . S
C2524 C2523 1.358 . S
C2524 C2526 1.414 1_556 S
C2525 C2520 1.425 1_556 S
C2525 C2522 1.409 . S
C2525 C2523 1.415 . S
C2526 H2516 0.930 . S
C2526 C2524 1.414 1_554 S
C2526 C2527 1.362 . S
C2527 H2517 0.930 . S
C2527 C2520 1.409 . S
C2527 C2526 1.362 . S
H2528 C2534 0.930 . S
H2529 C2537 0.930 . S
H2530 C2538 0.930 . S
H2531 C2539 0.930 . S
H2532 C2542 0.930 . S
H2533 C2543 0.930 . S
C2534 H2528 0.930 . S
C2534 C2535 1.355 . S
C2534 C2536 1.415 . S
C2535 C2534 1.355 . S
C2535 C2537 1.419 . S
C2536 C2534 1.415 . S
C2536 C2541 1.425 . S
C2536 C2543 1.409 . S
C2537 H2529 0.930 . S
C2537 C2535 1.419 . S
C2537 C2538 1.362 . S
C2538 H2530 0.930 . S
C2538 C2537 1.362 . S
C2538 C2541 1.409 . S
C2539 H2531 0.930 . S
C2539 C2540 1.355 . S
C2539 C2541 1.415 . S
C2540 C2539 1.355 . S
C2540 C2542 1.419 . S
C2541 C2536 1.425 . S
C2541 C2538 1.409 . S
C2541 C2539 1.415 . S
C2542 H2532 0.930 . S
C2542 C2540 1.419 . S
C2542 C2543 1.362 . S
C2543 H2533 0.930 . S
C2543 C2536 1.409 . S
C2543 C2542 1.362 . S
H2544 C2550 0.930 . S
H2545 C2553 0.930 . S
H2546 C2554 0.930 . S
H2547 C2555 0.930 . S
H2548 C2558 0.930 . S
H2549 C2559 0.930 . S
C2550 H2544 0.930 . S
C2550 C2551 1.355 . S
C2550 C2552 1.415 . S
C2551 C2550 1.355 . S
C2551 C2553 1.419 . S
C2552 C2550 1.415 . S
C2552 C2557 1.425 . S
C2552 C2559 1.409 . S
C2553 H2545 0.930 . S
C2553 C2551 1.419 . S
C2553 C2554 1.362 . S
C2554 H2546 0.930 . S
C2554 C2553 1.362 . S
C2554 C2557 1.409 . S
C2555 H2547 0.930 . S
C2555 C2556 1.355 . S
C2555 C2557 1.415 . S
C2556 C2555 1.355 . S
C2556 C2558 1.419 . S
C2557 C2552 1.425 . S
C2557 C2554 1.409 . S
C2557 C2555 1.415 . S
C2558 H2548 0.930 . S
C2558 C2556 1.419 . S
C2558 C2559 1.362 . S
C2559 H2549 0.930 . S
C2559 C2552 1.409 . S
C2559 C2558 1.362 . S
H2560 C2566 0.930 . S
H2561 C2569 0.930 . S
H2562 C2570 0.930 . S
H2563 C2571 0.930 . S
H2564 C2574 0.930 . S
H2565 C2575 0.930 . S
C2566 H2560 0.930 . S
C2566 C2567 1.355 . S
C2566 C2568 1.415 . S
C2567 C2566 1.355 . S
C2567 C2569 1.419 . S
C2568 C2566 1.415 . S
C2568 C2573 1.425 . S
C2568 C2575 1.409 . S
C2569 H2561 0.930 . S
C2569 C2567 1.419 . S
C2569 C2570 1.362 . S
C2570 H2562 0.930 . S
C2570 C2569 1.362 . S
C2570 C2573 1.409 . S
C2571 H2563 0.930 . S
C2571 C2572 1.355 . S
C2571 C2573 1.415 . S
C2572 C2571 1.355 . S
C2572 C2574 1.419 . S
C2573 C2568 1.425 . S
C2573 C2570 1.409 . S
C2573 C2571 1.415 . S
C2574 H2564 0.930 . S
C2574 C2572 1.419 . S
C2574 C2575 1.362 . S
C2575 H2565 0.930 . S
C2575 C2568 1.409 . S
C2575 C2574 1.362 . S
H2576 C2582 0.930 . S
H2577 C2585 0.930 . S
H2578 C2586 0.930 . S
H2579 C2587 0.930 . S
H2580 C2590 0.930 . S
H2581 C2591 0.930 . S
C2582 H2576 0.930 . S
C2582 C2583 1.355 . S
C2582 C2584 1.415 . S
C2583 C2582 1.355 . S
C2583 C2585 1.419 . S
C2584 C2582 1.415 . S
C2584 C2589 1.425 . S
C2584 C2591 1.409 . S
C2585 H2577 0.930 . S
C2585 C2583 1.419 . S
C2585 C2586 1.362 . S
C2586 H2578 0.930 . S
C2586 C2585 1.362 . S
C2586 C2589 1.409 . S
C2587 H2579 0.930 . S
C2587 C2588 1.355 . S
C2587 C2589 1.415 . S
C2588 C2587 1.355 . S
C2588 C2590 1.419 . S
C2589 C2584 1.425 . S
C2589 C2586 1.409 . S
C2589 C2587 1.415 . S
C2590 H2580 0.930 . S
C2590 C2588 1.419 . S
C2590 C2591 1.362 . S
C2591 H2581 0.930 . S
C2591 C2584 1.409 . S
C2591 C2590 1.362 . S
H2592 C2598 0.930 . S
H2593 C2601 0.930 . S
H2594 C2602 0.930 . S
H2595 C2603 0.930 . S
H2596 C2606 0.930 . S
H2597 C2607 0.930 . S
C2598 H2592 0.930 . S
C2598 C2599 1.355 . S
C2598 C2600 1.415 . S
C2599 C2598 1.355 . S
C2599 C2601 1.419 . S
C2600 C2598 1.415 . S
C2600 C2605 1.425 . S
C2600 C2607 1.409 . S
C2601 H2593 0.930 . S
C2601 C2599 1.419 . S
C2601 C2602 1.362 . S
C2602 H2594 0.930 . S
C2602 C2601 1.362 . S
C2602 C2605 1.409 . S
C2603 H2595 0.930 . S
C2603 C2604 1.355 . S
C2603 C2605 1.415 . S
C2604 C2603 1.355 . S
C2604 C2606 1.419 . S
C2605 C2600 1.425 . S
C2605 C2602 1.409 . S
C2605 C2603 1.415 . S
C2606 H2596 0.930 . S
C2606 C2604 1.419 . S
C2606 C2607 1.362 . S
C2607 H2597 0.930 . S
C2607 C2600 1.409 . S
C2607 C2606 1.362 . S
H2608 C2614 0.930 . S
H2609 C2617 0.930 . S
H2610 C2618 0.930 . S
H2611 C2619 0.930 . S
H2612 C2622 0.930 . S
H2613 C2623 0.930 . S
C2614 H2608 0.930 . S
C2614 C2615 1.355 . S
C2614 C2616 1.415 . S
C2615 C2614 1.355 . S
C2615 C2617 1.419 . S
C2616 C2614 1.415 . S
C2616 C2621 1.425 . S
C2616 C2623 1.409 . S
C2617 H2609 0.930 . S
C2617 C2615 1.419 . S
C2617 C2618 1.362 . S
C2618 H2610 0.930 . S
C2618 C2617 1.362 . S
C2618 C2621 1.409 . S
C2619 H2611 0.930 . S
C2619 C2620 1.355 . S
C2619 C2621 1.415 . S
C2620 C2619 1.355 . S
C2620 C2622 1.419 . S
C2621 C2616 1.425 . S
C2621 C2618 1.409 . S
C2621 C2619 1.415 . S
C2622 H2612 0.930 . S
C2622 C2620 1.419 . S
C2622 C2623 1.362 . S
C2623 H2613 0.930 . S
C2623 C2616 1.409 . S
C2623 C2622 1.362 . S
H2624 C2630 0.930 . S
H2625 C2633 0.930 . S
H2626 C2634 0.930 . S
H2627 C2635 0.930 . S
H2628 C2638 0.930 . S
H2629 C2639 0.930 . S
C2630 H2624 0.930 . S
C2630 C2631 1.355 . S
C2630 C2632 1.415 . S
C2631 C2630 1.355 . S
C2631 C2633 1.419 . S
C2632 C2630 1.415 . S
C2632 C2637 1.425 . S
C2632 C2639 1.409 . S
C2633 H2625 0.930 . S
C2633 C2631 1.419 . S
C2633 C2634 1.362 . S
C2634 H2626 0.930 . S
C2634 C2633 1.362 . S
C2634 C2637 1.409 . S
C2635 H2627 0.930 . S
C2635 C2636 1.355 . S
C2635 C2637 1.415 . S
C2636 C2635 1.355 . S
C2636 C2638 1.419 . S
C2637 C2632 1.425 . S
C2637 C2634 1.409 . S
C2637 C2635 1.415 . S
C2638 H2628 0.930 . S
C2638 C2636 1.419 . S
C2638 C2639 1.362 . S
C2639 H2629 0.930 . S
C2639 C2632 1.409 . S
C2639 C2638 1.362 . S
H2640 C2646 0.930 . S
H2641 C2649 0.930 . S
H2642 C2650 0.930 . S
H2643 C2651 0.930 . S
H2644 C2654 0.930 . S
H2645 C2655 0.930 . S
C2646 H2640 0.930 . S
C2646 C2647 1.355 . S
C2646 C2648 1.415 . S
C2647 C2646 1.355 . S
C2647 C2649 1.419 . S
C2648 C2646 1.415 . S
C2648 C2653 1.425 . S
C2648 C2655 1.409 . S
C2649 H2641 0.930 . S
C2649 C2647 1.419 . S
C2649 C2650 1.362 . S
C2650 H2642 0.930 . S
C2650 C2649 1.362 . S
C2650 C2653 1.409 . S
C2651 H2643 0.930 . S
C2651 C2652 1.355 . S
C2651 C2653 1.415 . S
C2652 C2651 1.355 . S
C2652 C2654 1.419 . S
C2653 C2648 1.425 . S
C2653 C2650 1.409 . S
C2653 C2651 1.415 . S
C2654 H2644 0.930 . S
C2654 C2652 1.419 . S
C2654 C2655 1.362 . S
C2655 H2645 0.930 . S
C2655 C2648 1.409 . S
C2655 C2654 1.362 . S
H2656 C2662 0.930 . S
H2657 C2665 0.930 . S
H2658 C2666 0.930 . S
H2659 C2667 0.930 . S
H2660 C2670 0.930 . S
H2661 C2671 0.930 . S
C2662 H2656 0.930 . S
C2662 C2663 1.355 . S
C2662 C2664 1.415 . S
C2663 C2662 1.355 . S
C2663 C2665 1.419 . S
C2664 C2662 1.415 . S
C2664 C2669 1.425 . S
C2664 C2671 1.409 . S
C2665 H2657 0.930 . S
C2665 C2663 1.419 . S
C2665 C2666 1.362 . S
C2666 H2658 0.930 . S
C2666 C2665 1.362 . S
C2666 C2669 1.409 . S
C2667 H2659 0.930 . S
C2667 C2668 1.355 . S
C2667 C2669 1.415 . S
C2668 C2667 1.355 . S
C2668 C2670 1.419 . S
C2669 C2664 1.425 . S
C2669 C2666 1.409 . S
C2669 C2667 1.415 . S
C2670 H2660 0.930 . S
C2670 C2668 1.419 . S
C2670 C2671 1.362 . S
C2671 H2661 0.930 . S
C2671 C2664 1.409 . S
C2671 C2670 1.362 . S
H2672 C2678 0.930 . S
H2673 C2681 0.930 . S
H2674 C2682 0.930 . S
H2675 C2683 0.930 . S
H2676 C2686 0.930 . S
H2677 C2687 0.930 . S
C2678 H2672 0.930 . S
C2678 C2679 1.355 . S
C2678 C2680 1.415 . S
C2679 C2678 1.355 . S
C2679 C2681 1.419 . S
C2680 C2678 1.415 . S
C2680 C2685 1.425 . S
C2680 C2687 1.409 . S
C2681 H2673 0.930 . S
C2681 C2679 1.419 . S
C2681 C2682 1.362 . S
C2682 H2674 0.930 . S
C2682 C2681 1.362 . S
C2682 C2685 1.409 . S
C2683 H2675 0.930 . S
C2683 C2684 1.355 . S
C2683 C2685 1.415 . S
C2684 C2683 1.355 . S
C2684 C2686 1.419 . S
C2685 C2680 1.425 . S
C2685 C2682 1.409 . S
C2685 C2683 1.415 . S
C2686 H2676 0.930 . S
C2686 C2684 1.419 . S
C2686 C2687 1.362 . S
C2687 H2677 0.930 . S
C2687 C2680 1.409 . S
C2687 C2686 1.362 . S
H2688 C2694 0.930 . S
H2689 C2697 0.930 . S
H2690 C2698 0.930 . S
H2691 C2699 0.930 . S
H2692 C2702 0.930 . S
H2693 C2703 0.930 . S
C2694 H2688 0.930 . S
C2694 C2695 1.355 . S
C2694 C2696 1.415 . S
C2695 C2694 1.355 . S
C2695 C2697 1.419 . S
C2696 C2694 1.415 . S
C2696 C2701 1.425 . S
C2696 C2703 1.409 . S
C2697 H2689 0.930 . S
C2697 C2695 1.419 . S
C2697 C2698 1.362 . S
C2698 H2690 0.930 . S
C2698 C2697 1.362 . S
C2698 C2701 1.409 . S
C2699 H2691 0.930 . S
C2699 C2700 1.355 . S
C2699 C2701 1.415 . S
C2700 C2699 1.355 . S
C2700 C2702 1.419 . S
C2701 C2696 1.425 . S
C2701 C2698 1.409 . S
C2701 C2699 1.415 . S
C2702 H2692 0.930 . S
C2702 C2700 1.419 . S
C2702 C2703 1.362 . S
C2703 H2693 0.930 . S
C2703 C2696 1.409 . S
C2703 C2702 1.362 . S
H2704 C2710 0.930 . S
H2705 C2713 0.930 . S
H2706 C2714 0.930 . S
H2707 C2715 0.930 . S
H2708 C2718 0.930 . S
H2709 C2719 0.930 . S
C2710 H2704 0.930 . S
C2710 C2711 1.355 . S
C2710 C2712 1.415 . S
C2711 C2710 1.355 . S
C2711 C2713 1.419 . S
C2712 C2710 1.415 . S
C2712 C2717 1.425 . S
C2712 C2719 1.409 . S
C2713 H2705 0.930 . S
C2713 C2711 1.419 . S
C2713 C2714 1.362 . S
C2714 H2706 0.930 . S
C2714 C2713 1.362 . S
C2714 C2717 1.409 . S
C2715 H2707 0.930 . S
C2715 C2716 1.355 . S
C2715 C2717 1.415 . S
C2716 C2715 1.355 . S
C2716 C2718 1.419 . S
C2717 C2712 1.425 . S
C2717 C2714 1.409 . S
C2717 C2715 1.415 . S
C2718 H2708 0.930 . S
C2718 C2716 1.419 . S
C2718 C2719 1.362 . S
C2719 H2709 0.930 . S
C2719 C2712 1.409 . S
C2719 C2718 1.362 . S
H2720 C2726 0.930 . S
H2721 C2729 0.930 . S
H2722 C2730 0.930 . S
H2723 C2731 0.930 . S
H2724 C2734 0.930 . S
H2725 C2735 0.930 . S
C2726 H2720 0.930 . S
C2726 C2727 1.355 . S
C2726 C2728 1.415 . S
C2727 C2726 1.355 . S
C2727 C2729 1.419 . S
C2728 C2726 1.415 . S
C2728 C2733 1.425 . S
C2728 C2735 1.409 . S
C2729 H2721 0.930 . S
C2729 C2727 1.419 . S
C2729 C2730 1.362 . S
C2730 H2722 0.930 . S
C2730 C2729 1.362 . S
C2730 C2733 1.409 . S
C2731 H2723 0.930 . S
C2731 C2732 1.355 . S
C2731 C2733 1.415 . S
C2732 C2731 1.355 . S
C2732 C2734 1.419 . S
C2733 C2728 1.425 . S
C2733 C2730 1.409 . S
C2733 C2731 1.415 . S
C2734 H2724 0.930 . S
C2734 C2732 1.419 . S
C2734 C2735 1.362 . S
C2735 H2725 0.930 . S
C2735 C2728 1.409 . S
C2735 C2734 1.362 . S
H2736 C2742 0.930 . S
H2737 C2745 0.930 . S
H2738 C2746 0.930 . S
H2739 C2747 0.930 . S
H2740 C2750 0.930 . S
H2741 C2751 0.930 . S
C2742 H2736 0.930 . S
C2742 C2743 1.355 . S
C2742 C2744 1.415 . S
C2743 C2742 1.355 . S
C2743 C2745 1.419 . S
C2744 C2742 1.415 . S
C2744 C2749 1.425 . S
C2744 C2751 1.409 . S
C2745 H2737 0.930 . S
C2745 C2743 1.419 . S
C2745 C2746 1.362 . S
C2746 H2738 0.930 . S
C2746 C2745 1.362 . S
C2746 C2749 1.409 . S
C2747 H2739 0.930 . S
C2747 C2748 1.355 . S
C2747 C2749 1.415 . S
C2748 C2747 1.355 . S
C2748 C2750 1.419 . S
C2749 C2744 1.425 . S
C2749 C2746 1.409 . S
C2749 C2747 1.415 . S
C2750 H2740 0.930 . S
C2750 C2748 1.419 . S
C2750 C2751 1.362 . S
C2751 H2741 0.930 . S
C2751 C2744 1.409 . S
C2751 C2750 1.362 . S
H2752 C2758 0.930 . S
H2753 C2761 0.930 . S
H2754 C2762 0.930 . S
H2755 C2763 0.930 . S
H2756 C2766 0.930 . S
H2757 C2767 0.930 . S
C2758 H2752 0.930 . S
C2758 C2759 1.355 . S
C2758 C2760 1.415 . S
C2759 C2758 1.355 . S
C2759 C2761 1.419 . S
C2760 C2758 1.415 . S
C2760 C2765 1.425 . S
C2760 C2767 1.409 . S
C2761 H2753 0.930 . S
C2761 C2759 1.419 . S
C2761 C2762 1.362 . S
C2762 H2754 0.930 . S
C2762 C2761 1.362 . S
C2762 C2765 1.409 . S
C2763 H2755 0.930 . S
C2763 C2764 1.355 . S
C2763 C2765 1.415 . S
C2764 C2763 1.355 . S
C2764 C2766 1.419 . S
C2765 C2760 1.425 . S
C2765 C2762 1.409 . S
C2765 C2763 1.415 . S
C2766 H2756 0.930 . S
C2766 C2764 1.419 . S
C2766 C2767 1.362 . S
C2767 H2757 0.930 . S
C2767 C2760 1.409 . S
C2767 C2766 1.362 . S
H2768 C2774 0.930 . S
H2769 C2777 0.930 . S
H2770 C2778 0.930 . S
H2771 C2779 0.930 . S
H2772 C2782 0.930 . S
H2773 C2783 0.930 . S
C2774 H2768 0.930 . S
C2774 C2775 1.355 . S
C2774 C2776 1.415 . S
C2775 C2774 1.355 . S
C2775 C2777 1.419 . S
C2776 C2774 1.415 . S
C2776 C2781 1.425 . S
C2776 C2783 1.409 . S
C2777 H2769 0.930 . S
C2777 C2775 1.419 . S
C2777 C2778 1.362 . S
C2778 H2770 0.930 . S
C2778 C2777 1.362 . S
C2778 C2781 1.409 . S
C2779 H2771 0.930 . S
C2779 C2780 1.355 . S
C2779 C2781 1.415 . S
C2780 C2779 1.355 . S
C2780 C2782 1.419 . S
C2781 C2776 1.425 . S
C2781 C2778 1.409 . S
C2781 C2779 1.415 . S
C2782 H2772 0.930 . S
C2782 C2780 1.419 . S
C2782 C2783 1.362 . S
C2783 H2773 0.930 . S
C2783 C2776 1.409 . S
C2783 C2782 1.362 . S
H2784 C2790 0.930 . S
H2785 C2793 0.930 . S
H2786 C2794 0.930 . S
H2787 C2795 0.930 . S
H2788 C2798 0.930 . S
H2789 C2799 0.930 . S
C2790 H2784 0.930 . S
C2790 C2791 1.355 . S
C2790 C2792 1.415 . S
C2791 C2790 1.355 . S
C2791 C2793 1.419 . S
C2792 C2790 1.415 . S
C2792 C2797 1.425 . S
C2792 C2799 1.409 . S
C2793 H2785 0.930 . S
C2793 C2791 1.419 . S
C2793 C2794 1.362 . S
C2794 H2786 0.930 . S
C2794 C2793 1.362 . S
C2794 C2797 1.409 . S
C2795 H2787 0.930 . S
C2795 C2796 1.355 . S
C2795 C2797 1.415 . S
C2796 C2795 1.355 . S
C2796 C2798 1.419 . S
C2797 C2792 1.425 . S
C2797 C2794 1.409 . S
C2797 C2795 1.415 . S
C2798 H2788 0.930 . S
C2798 C2796 1.419 . S
C2798 C2799 1.362 . S
C2799 H2789 0.930 . S
C2799 C2792 1.409 . S
C2799 C2798 1.362 . S
H2800 C2806 0.930 . S
H2801 C2809 0.930 . S
H2802 C2810 0.930 . S
H2803 C2811 0.930 . S
H2804 C2814 0.930 . S
H2805 C2815 0.930 . S
C2806 H2800 0.930 . S
C2806 C2807 1.355 . S
C2806 C2808 1.415 . S
C2807 C2806 1.355 . S
C2807 C2809 1.419 . S
C2808 C2806 1.415 . S
C2808 C2813 1.425 . S
C2808 C2815 1.409 . S
C2809 H2801 0.930 . S
C2809 C2807 1.419 . S
C2809 C2810 1.362 . S
C2810 H2802 0.930 . S
C2810 C2809 1.362 . S
C2810 C2813 1.409 . S
C2811 H2803 0.930 . S
C2811 C2812 1.355 . S
C2811 C2813 1.415 . S
C2812 C2811 1.355 . S
C2812 C2814 1.419 . S
C2813 C2808 1.425 . S
C2813 C2810 1.409 . S
C2813 C2811 1.415 . S
C2814 H2804 0.930 . S
C2814 C2812 1.419 . S
C2814 C2815 1.362 . S
C2815 H2805 0.930 . S
C2815 C2808 1.409 . S
C2815 C2814 1.362 . S
C1287 C6 1.070 . S
C1292 C139 0.978 . S
C1303 C19 1.067 . S
C1308 C46 1.030 1_545 S
C1319 C86 1.054 . S
C1324 C59 1.073 . S
C1335 C99 0.997 . S
C1340 C126 1.035 1_565 S
C1351 C219 1.075 . S
C1356 C166 1.054 . S
C1367 C206 1.036 1_545 S
C1372 C259 0.983 . S
C1383 C299 1.077 . S
C1388 C246 1.056 . S
C1399 C179 0.960 . S
C1404 C286 1.035 1_565 S
C1415 C335 1.055 . S
C1420 C450 1.078 . S
C1431 C375 1.032 1_565 S
C1436 C330 1.049 . S
C1447 C415 1.054 . S
C1452 C370 1.075 . S
C1463 C455 1.033 1_545 S
C1468 C410 0.989 . S
C1479 C495 1.070 . S
C1484 C530 0.960 . S
C1495 C535 1.030 1_565 S
C1500 C570 1.029 . S
C1511 C610 1.072 . S
C1516 C575 1.055 . S
C1527 C490 0.991 . S
C1532 C615 1.035 1_545 S
C1543 C646 1.064 . S
C1548 C779 0.990 . S
C1559 C659 0.966 . S
C1564 C686 1.067 . S
C1575 C699 1.077 . S
C1580 C726 1.056 . S
C1591 C766 1.056 . S
C1596 C739 1.047 . S
C1607 C806 1.069 . S
C1612 C859 0.962 . S
C1623 C899 1.066 . S
C1628 C846 1.057 . S
C1639 C886 1.070 . S
C1644 C939 0.964 . S
C1655 C819 0.992 . S
C1660 C926 1.063 . S
C1671 C1090 1.055 . S
C1676 C975 1.059 . S
C1687 C970 0.977 . S
C1692 C1015 1.066 . S
C1703 C1055 1.056 . S
C1708 C1010 1.056 . S
C1719 C1050 1.023 . S
C1724 C1095 1.060 . S
C1735 C1170 0.969 . S
C1740 C1135 1.067 . S
C1751 C1210 1.029 . S
C1756 C1175 1.059 . S
C1767 C1250 0.959 . S
C1772 C1215 1.070 . S
C1783 C1255 1.070 . S
C1788 C1130 0.974 . S
C1799 C1086 1.610 . S
C1804 C9 1.575 . S
C1815 C49 1.581 . S
C1820 C326 1.616 1_455 S
C1831 C89 1.551 . S
C1836 C1006 1.619 . S
C1847 C129 1.507 . S
C1852 C406 1.581 . S
C1863 C169 1.515 . S
C1868 C1166 1.600 . S
C1879 C566 1.613 . S
C1884 C209 1.579 . S
C1895 C1246 1.603 . S
C1900 C249 1.567 . S
C1911 C289 1.580 . S
C1916 C486 1.614 1_455 S
C1927 C338 1.526 . S
C1932 C775 1.583 . S
C1943 C15 1.588 1_655 S
C1948 C378 1.503 . S
C1959 C695 1.603 . S
C1964 C418 1.518 . S
C1975 C95 1.588 . S
C1980 C458 1.539 . S
C1991 C855 1.625 . S
C1996 C498 1.573 . S
C2007 C255 1.619 . S
C2012 C538 1.582 . S
C2023 C578 1.515 . S
C2028 C935 1.580 . S
C2039 C618 1.511 . S
C2044 C175 1.580 1_655 S
C2055 C649 1.576 . S
C2060 C446 1.625 . S
C2071 C689 1.509 . S
C2076 C966 1.595 . S
C2087 C729 1.538 . S
C2092 C366 1.587 . S
C2103 C769 1.540 . S
C2108 C1046 1.588 1_655 S
C2119 C809 1.579 . S
C2124 C526 1.613 . S
C2135 C849 1.581 . S
C2140 C1206 1.616 1_655 S
C2151 C606 1.595 . S
C2156 C889 1.555 . S
C2167 C929 1.529 . S
C2172 C1126 1.609 . S
C2183 C135 1.619 . S
C2188 C978 1.550 . S
C2199 C655 1.594 . S
C2204 C1018 1.553 . S
C2215 C55 1.624 . S
C2220 C1058 1.580 . S
C2231 C735 1.600 1_455 S
C2236 C1098 1.563 . S
C2247 C215 1.625 . S
C2252 C1138 1.574 . S
C2263 C1178 1.521 . S
C2268 C895 1.582 1_455 S
C2279 C1218 1.506 . S
C2284 C295 1.593 . S
C2295 C815 1.612 . S
C2300 C1258 1.577 . S
C2311 C18 0.943 . S
C2316 C178 0.989 . S
C2327 C58 0.988 . S
C2332 C218 0.952 . S
C2343 C98 0.982 . S
C2348 C258 0.965 . S
C2359 C298 0.864 1_554 S
C2364 C138 0.904 1_556 S
C2375 C489 0.902 . S
C2380 C329 0.864 . S
C2391 C529 0.951 . S
C2396 C369 0.988 . S
C2407 C409 0.953 . S
C2412 C569 0.872 . S
C2423 C449 0.943 1_554 S
C2428 C609 0.990 1_556 S
C2439 C658 0.953 . S
C2444 C818 0.987 . S
C2455 C858 0.981 1_554 S
C2460 C698 0.967 1_556 S
C2471 C898 0.917 . S
C2476 C738 0.862 . S
C2487 C938 0.873 . S
C2492 C778 0.885 . S
C2503 C1129 0.989 . S
C2508 C969 0.930 . S
C2519 C1009 0.908 1_554 S
C2524 C1169 0.862 1_556 S
C2535 C1209 0.864 . S
C2540 C1049 0.935 . S
C2551 C1089 0.989 . S
C2556 C1249 0.948 . S
C2567 C290 2.706 . S
C2572 C10 2.710 . S
C2583 C50 2.711 . S
C2588 C170 2.711 . S
C2599 C90 2.705 . S
C2604 C210 2.702 . S
C2615 C250 2.711 . S
C2620 C130 2.711 . S
C2631 C339 2.702 . S
C2636 C619 2.701 . S
C2647 C499 2.701 . S
C2652 C379 2.705 . S
C2663 C539 2.704 . S
C2668 C419 2.701 . S
C2679 C459 2.702 . S
C2684 C579 2.701 . S
C2695 C650 2.710 . S
C2700 C930 2.712 . S
C2711 C810 2.701 . S
C2716 C690 2.702 . S
C2727 C850 2.711 . S
C2732 C730 2.707 . S
C2743 C890 2.707 . S
C2748 C770 2.702 . S
C2759 C979 2.711 . S
C2764 C1259 2.712 . S
C2775 C1139 2.707 . S
C2780 C1019 2.711 . S
C2791 C1059 2.704 . S
C2796 C1179 2.701 . S
C2807 C1219 2.705 . S
C2812 C1099 2.710 . S
