# Generated by pormake.
# Topology upa, (4)-cn, num edge types: 1
# Building blocks:
#     Node 0, Type 0, BuildingBlock: GALJAG_clean_sbu_0, # of connection points: 4
#     Node 1, Type 0, BuildingBlock: GALJAG_clean_sbu_0, # of connection points: 4
#     Node 2, Type 0, BuildingBlock: GALJAG_clean_sbu_0, # of connection points: 4
#     Node 3, Type 0, BuildingBlock: GALJAG_clean_sbu_0, # of connection points: 4
#     Node 4, Type 0, BuildingBlock: GALJAG_clean_sbu_0, # of connection points: 4
#     Node 5, Type 0, BuildingBlock: GALJAG_clean_sbu_0, # of connection points: 4
#     Node 6, Type 0, BuildingBlock: GALJAG_clean_sbu_0, # of connection points: 4
#     Node 7, Type 0, BuildingBlock: GALJAG_clean_sbu_0, # of connection points: 4
#     Edge 8, Type (0, 0), BuildingBlock: TEMPAE_clean_linker_10, # of connection points: 2
#     Edge 9, Type (0, 0), BuildingBlock: TEMPAE_clean_linker_10, # of connection points: 2
#     Edge 10, Type (0, 0), BuildingBlock: TEMPAE_clean_linker_10, # of connection points: 2
#     Edge 11, Type (0, 0), BuildingBlock: TEMPAE_clean_linker_10, # of connection points: 2
#     Edge 12, Type (0, 0), BuildingBlock: TEMPAE_clean_linker_10, # of connection points: 2
#     Edge 13, Type (0, 0), BuildingBlock: TEMPAE_clean_linker_10, # of connection points: 2
#     Edge 14, Type (0, 0), BuildingBlock: TEMPAE_clean_linker_10, # of connection points: 2
#     Edge 15, Type (0, 0), BuildingBlock: TEMPAE_clean_linker_10, # of connection points: 2
#     Edge 16, Type (0, 0), BuildingBlock: TEMPAE_clean_linker_10, # of connection points: 2
#     Edge 17, Type (0, 0), BuildingBlock: TEMPAE_clean_linker_10, # of connection points: 2
#     Edge 18, Type (0, 0), BuildingBlock: TEMPAE_clean_linker_10, # of connection points: 2
#     Edge 19, Type (0, 0), BuildingBlock: TEMPAE_clean_linker_10, # of connection points: 2
#     Edge 20, Type (0, 0), BuildingBlock: TEMPAE_clean_linker_10, # of connection points: 2
#     Edge 21, Type (0, 0), BuildingBlock: TEMPAE_clean_linker_10, # of connection points: 2
#     Edge 22, Type (0, 0), BuildingBlock: TEMPAE_clean_linker_10, # of connection points: 2
#     Edge 23, Type (0, 0), BuildingBlock: TEMPAE_clean_linker_10, # of connection points: 2
# Relax obj value: 0.230
# Max RMSD: 0.125
# Mean RMSD: 0.125
data_MOF--net-upa--node1-GALJAG_clean_sbu_0--edge1-TEMPAE_clean_linker_10
_symmetry_space_group_name_H-M    P1
_symmetry_Int_Tables_number       1
_symmetry_cell_setting            triclinic
loop_
_symmetry_equiv_pos_as_xyz
'x, y, z'
_cell_length_a     27.041856
_cell_length_b     27.033771
_cell_length_c     43.081824
_cell_angle_alpha  90.002463
_cell_angle_beta   90.008271
_cell_angle_gamma 89.991938
loop_
_atom_site_label
_atom_site_type_symbol
_atom_site_fract_x
_atom_site_fract_y
_atom_site_fract_z
_atom_type_partial_charge
In0 In 0.20211 0.21429 0.32463 0.0
O1 O 0.21778 0.26182 0.36786 0.0
O2 O 0.22285 0.18368 0.37188 0.0
C3 C 0.13687 0.2706 0.29298 0.0
C4 C 0.29237 0.21302 0.29733 0.0
C5 C 0.13567 0.14027 0.32418 0.0
O6 O 0.1472 0.27834 0.32119 0.0
O7 O 0.16317 0.23791 0.28011 0.0
O8 O 0.17552 0.13748 0.30888 0.0
O9 O 0.13115 0.17873 0.34043 0.0
C10 C 0.22573 0.22503 0.38528 0.0
O11 O 0.27017 0.17418 0.30572 0.0
O12 O 0.26866 0.25255 0.30217 0.0
In13 In 0.296 0.69571 0.82668 0.0
O14 O 0.33423 0.76389 0.80647 0.0
O15 O 0.25584 0.76084 0.80384 0.0
C16 C 0.3736 0.63342 0.82908 0.0
C17 C 0.28245 0.72235 0.88657 0.0
C18 C 0.24267 0.62707 0.79563 0.0
O19 O 0.37268 0.6697 0.81054 0.0
O20 O 0.33674 0.63038 0.84685 0.0
O21 O 0.23485 0.63731 0.82382 0.0
O22 O 0.27412 0.65453 0.78256 0.0
C23 C 0.29477 0.78508 0.79819 0.0
O24 O 0.24668 0.71028 0.86923 0.0
O25 O 0.32409 0.72215 0.8734 0.0
In26 In 0.80825 0.80322 0.32774 0.0
O27 O 0.73802 0.84092 0.31019 0.0
O28 O 0.74359 0.76317 0.30416 0.0
C29 C 0.86543 0.88488 0.32684 0.0
C30 C 0.78254 0.78689 0.38746 0.0
C31 C 0.88022 0.74928 0.30002 0.0
O32 O 0.83532 0.87528 0.30525 0.0
O33 O 0.8647 0.85471 0.3491 0.0
O34 O 0.87191 0.74737 0.32882 0.0
O35 O 0.84955 0.77498 0.28496 0.0
C36 C 0.71785 0.80176 0.30054 0.0
O37 O 0.79424 0.75187 0.36939 0.0
O38 O 0.78276 0.82918 0.37508 0.0
In39 In 0.70817 0.30132 0.82734 0.0
O40 O 0.66824 0.23259 0.8094 0.0
O41 O 0.74617 0.23566 0.80353 0.0
C42 C 0.6305 0.36361 0.82936 0.0
C43 C 0.72373 0.27525 0.8871 0.0
C44 C 0.76204 0.37009 0.79675 0.0
O45 O 0.63259 0.32853 0.80998 0.0
O46 O 0.66615 0.3654 0.84814 0.0
O47 O 0.76909 0.35994 0.82502 0.0
O48 O 0.73118 0.34236 0.78333 0.0
C49 C 0.7068 0.21118 0.7998 0.0
O50 O 0.75903 0.28616 0.86909 0.0
O51 O 0.68154 0.27638 0.87464 0.0
In52 In 0.70351 0.2985 0.1789 0.0
O53 O 0.77223 0.33876 0.19656 0.0
O54 O 0.76931 0.26089 0.20282 0.0
C55 C 0.64119 0.37617 0.17692 0.0
C56 C 0.72945 0.28269 0.11916 0.0
C57 C 0.63491 0.24443 0.20949 0.0
O58 O 0.67613 0.37395 0.19639 0.0
O59 O 0.63952 0.34063 0.15806 0.0
O60 O 0.64511 0.23737 0.18123 0.0
O61 O 0.6625 0.27542 0.2229 0.0
C62 C 0.79373 0.30035 0.20631 0.0
O63 O 0.71896 0.24742 0.1373 0.0
O64 O 0.72796 0.32499 0.13147 0.0
In65 In 0.20434 0.1962 0.67756 0.0
O66 O 0.16657 0.266 0.69572 0.0
O67 O 0.24446 0.26083 0.70114 0.0
C68 C 0.12363 0.13772 0.67716 0.0
C69 C 0.22012 0.2225 0.61788 0.0
C70 C 0.25792 0.125 0.70628 0.0
O71 O 0.13077 0.16948 0.69821 0.0
O72 O 0.1558 0.1374 0.65604 0.0
O73 O 0.26186 0.13402 0.67764 0.0
O74 O 0.23033 0.15468 0.72079 0.0
C75 C 0.2058 0.28632 0.70515 0.0
O76 O 0.2552 0.20989 0.63565 0.0
O77 O 0.17806 0.22289 0.63053 0.0
In78 In 0.30897 0.71066 0.17913 0.0
O79 O 0.24107 0.67251 0.19974 0.0
O80 O 0.24367 0.751 0.20158 0.0
C81 C 0.37155 0.63328 0.17691 0.0
C82 C 0.28246 0.72358 0.11915 0.0
C83 C 0.37723 0.76435 0.21026 0.0
O84 O 0.33491 0.63387 0.19515 0.0
O85 O 0.37484 0.67036 0.15933 0.0
O86 O 0.36704 0.77213 0.18206 0.0
O87 O 0.34992 0.73272 0.22329 0.0
C88 C 0.21968 0.71207 0.20765 0.0
O89 O 0.29436 0.75955 0.13638 0.0
O90 O 0.28276 0.68205 0.13248 0.0
In91 In 0.79249 0.80234 0.68035 0.0
O92 O 0.8323 0.73435 0.69961 0.0
O93 O 0.75393 0.736 0.70289 0.0
C94 C 0.86736 0.86785 0.67943 0.0
C95 C 0.78067 0.77784 0.61993 0.0
C96 C 0.73735 0.86848 0.71212 0.0
O97 O 0.86938 0.82902 0.69579 0.0
O98 O 0.82913 0.87182 0.66292 0.0
O99 O 0.7291 0.85802 0.684 0.0
O100 O 0.77003 0.84202 0.72486 0.0
C101 C 0.79338 0.71226 0.70795 0.0
O102 O 0.74425 0.78736 0.63735 0.0
O103 O 0.82214 0.77952 0.63325 0.0
C104 C 0.1038 0.05627 0.30979 0.0
C105 C 0.09553 0.10346 0.32215 0.0
C106 C 0.0654 0.02128 0.30856 0.0
C107 C 0.01771 0.03428 0.31954 0.0
C108 C 0.00892 0.08248 0.33102 0.0
C109 C 0.04802 0.11633 0.3324 0.0
C110 C 0.07611 0.97006 0.29631 0.0
C111 C 0.95847 0.09802 0.34252 0.0
C112 C 0.90702 0.95426 0.29848 0.0
C113 C 0.90206 0.92531 0.3253 0.0
C114 C 0.94463 0.98994 0.29615 0.0
C115 C 0.97786 0.99659 0.32122 0.0
C116 C 0.97249 0.9679 0.34847 0.0
C117 C 0.93465 0.93267 0.35018 0.0
C118 C 0.94911 0.0202 0.26683 0.0
C119 C 0.00699 0.97413 0.37579 0.0
H120 H 0.14044 0.0464 0.30169 0.0
H121 H 0.04126 0.15311 0.3415 0.0
H122 H 0.0712 0.94252 0.31517 0.0
H123 H 0.04959 0.9604 0.27762 0.0
H124 H 0.11431 0.96667 0.28707 0.0
H125 H 0.957 0.13792 0.34862 0.0
H126 H 0.93004 0.09048 0.32457 0.0
H127 H 0.94849 0.07611 0.36337 0.0
H128 H 0.88206 0.94847 0.27913 0.0
H129 H 0.93104 0.91034 0.37096 0.0
H130 H 0.98587 0.01399 0.25608 0.0
H131 H 0.94645 0.06019 0.27238 0.0
H132 H 0.92005 0.01083 0.24958 0.0
H133 H 0.04571 0.96737 0.3684 0.0
H134 H 0.99804 0.94853 0.39516 0.0
H135 H 0.00503 0.01265 0.38458 0.0
C136 C 0.40729 0.55319 0.84778 0.0
C137 C 0.41249 0.59506 0.82884 0.0
C138 C 0.44208 0.51485 0.84703 0.0
C139 C 0.48332 0.51859 0.827 0.0
C140 C 0.48901 0.56086 0.80788 0.0
C141 C 0.45333 0.59864 0.80896 0.0
C142 C 0.43469 0.47035 0.86774 0.0
C143 C 0.53282 0.56618 0.78642 0.0
C144 C 0.59569 0.44276 0.84907 0.0
C145 C 0.59175 0.4021 0.82899 0.0
C146 C 0.56107 0.48125 0.84827 0.0
C147 C 0.52128 0.4789 0.82702 0.0
C148 C 0.51689 0.43786 0.80674 0.0
C149 C 0.55236 0.39991 0.8079 0.0
C150 C 0.56704 0.5244 0.87024 0.0
C151 C 0.47464 0.43402 0.78395 0.0
H152 H 0.37561 0.55004 0.86307 0.0
H153 H 0.45734 0.63085 0.79419 0.0
H154 H 0.43366 0.43612 0.85356 0.0
H155 H 0.46625 0.46684 0.88406 0.0
H156 H 0.39998 0.47267 0.88146 0.0
H157 H 0.53152 0.60106 0.7728 0.0
H158 H 0.56765 0.56553 0.80004 0.0
H159 H 0.53418 0.53451 0.77006 0.0
H160 H 0.62626 0.44484 0.8653 0.0
H161 H 0.54935 0.36866 0.79226 0.0
H162 H 0.53441 0.52692 0.88577 0.0
H163 H 0.569 0.5595 0.85696 0.0
H164 H 0.6008 0.52117 0.8848 0.0
H165 H 0.4389 0.43377 0.79659 0.0
H166 H 0.47694 0.40009 0.76947 0.0
H167 H 0.47439 0.46676 0.76842 0.0
C168 C 0.60456 0.45397 0.19866 0.0
C169 C 0.60274 0.41496 0.17727 0.0
C170 C 0.56664 0.48947 0.1998 0.0
C171 C 0.52601 0.48551 0.17918 0.0
C172 C 0.52403 0.44613 0.15761 0.0
C173 C 0.56248 0.41145 0.15686 0.0
C174 C 0.57007 0.53127 0.22295 0.0
C175 C 0.48133 0.44065 0.13525 0.0
C176 C 0.40597 0.5532 0.19679 0.0
C177 C 0.40996 0.59443 0.17724 0.0
C178 C 0.44371 0.51749 0.19791 0.0
C179 C 0.48636 0.52353 0.17918 0.0
C180 C 0.49053 0.56518 0.1595 0.0
C181 C 0.45222 0.6 0.1587 0.0
C182 C 0.43794 0.47325 0.219 0.0
C183 C 0.53544 0.57295 0.13922 0.0
H184 H 0.63551 0.45665 0.21457 0.0
H185 H 0.56069 0.38119 0.14039 0.0
H186 H 0.57061 0.56727 0.21058 0.0
H187 H 0.53704 0.53125 0.23821 0.0
H188 H 0.6037 0.52865 0.23767 0.0
H189 H 0.48482 0.40718 0.12045 0.0
H190 H 0.44598 0.43845 0.14824 0.0
H191 H 0.47916 0.47361 0.11996 0.0
H192 H 0.37346 0.54891 0.21125 0.0
H193 H 0.45569 0.63198 0.14367 0.0
H194 H 0.4693 0.47152 0.23557 0.0
H195 H 0.43879 0.43869 0.20511 0.0
H196 H 0.40283 0.47434 0.23237 0.0
H197 H 0.56938 0.57366 0.15369 0.0
H198 H 0.53343 0.60796 0.12577 0.0
H199 H 0.53926 0.54172 0.12268 0.0
C200 C 0.07959 0.06565 0.6543 0.0
C201 C 0.08353 0.10068 0.67817 0.0
C202 C 0.04443 0.0277 0.65565 0.0
C203 C 0.01227 0.02476 0.68148 0.0
C204 C 0.01556 0.06037 0.70551 0.0
C205 C 0.05129 0.09799 0.70359 0.0
C206 C 0.04188 0.99057 0.62948 0.0
C207 C 0.98156 0.05852 0.73328 0.0
C208 C 0.89368 0.95384 0.66759 0.0
C209 C 0.90472 0.9076 0.68064 0.0
C210 C 0.9278 0.99273 0.66861 0.0
C211 C 0.9744 0.98504 0.68269 0.0
C212 C 0.98566 0.93861 0.69624 0.0
C213 C 0.95044 0.9004 0.69522 0.0
C214 C 0.91421 0.04183 0.65419 0.0
C215 C 0.03519 0.92907 0.71128 0.0
H216 H 0.1045 0.06745 0.63462 0.0
H217 H 0.05441 0.12486 0.72216 0.0
H218 H 0.04757 0.95265 0.63867 0.0
H219 H 0.0047 0.99152 0.61861 0.0
H220 H 0.07001 0.99774 0.61124 0.0
H221 H 0.98884 0.08902 0.74995 0.0
H222 H 0.94246 0.06083 0.72559 0.0
H223 H 0.98604 0.02272 0.74556 0.0
H224 H 0.85807 0.95982 0.65664 0.0
H225 H 0.95893 0.86477 0.70547 0.0
H226 H 0.93926 0.04982 0.63442 0.0
H227 H 0.91898 0.07205 0.67135 0.0
H228 H 0.87546 0.04251 0.64562 0.0
H229 H 0.06501 0.93261 0.69372 0.0
H230 H 0.03742 0.89166 0.72186 0.0
H231 H 0.04244 0.95709 0.72953 0.0
C232 C 0.23869 0.27535 0.43365 0.0
C233 C 0.23379 0.22912 0.4192 0.0
C234 C 0.24196 0.27917 0.46617 0.0
C235 C 0.23947 0.2358 0.48458 0.0
C236 C 0.23617 0.18899 0.46998 0.0
C237 C 0.23371 0.18624 0.43752 0.0
C238 C 0.24631 0.32965 0.48086 0.0
C239 C 0.23287 0.14183 0.48868 0.0
C240 C 0.2733 0.23038 0.5703 0.0
C241 C 0.22644 0.23186 0.58422 0.0
C242 C 0.27851 0.23425 0.53789 0.0
C243 C 0.23582 0.23905 0.51904 0.0
C244 C 0.18867 0.24248 0.53314 0.0
C245 C 0.18461 0.23912 0.56552 0.0
C246 C 0.32947 0.23122 0.52374 0.0
C247 C 0.14213 0.24717 0.51396 0.0
H248 H 0.23904 0.30861 0.41959 0.0
H249 H 0.22996 0.15036 0.42653 0.0
H250 H 0.21151 0.33871 0.49326 0.0
H251 H 0.27654 0.32995 0.49828 0.0
H252 H 0.25352 0.35904 0.46341 0.0
H253 H 0.2331 0.10829 0.47379 0.0
H254 H 0.26421 0.13942 0.50522 0.0
H255 H 0.19828 0.1419 0.50255 0.0
H256 H 0.30579 0.22501 0.58465 0.0
H257 H 0.14826 0.24042 0.57609 0.0
H258 H 0.33484 0.2614 0.50661 0.0
H259 H 0.33352 0.19568 0.51112 0.0
H260 H 0.35909 0.23357 0.54155 0.0
H261 H 0.14519 0.27886 0.49772 0.0
H262 H 0.10866 0.25243 0.52854 0.0
H263 H 0.13707 0.21331 0.49974 0.0
C264 C 0.31983 0.73597 0.93876 0.0
C265 C 0.27731 0.73166 0.92031 0.0
C266 C 0.31656 0.73923 0.97117 0.0
C267 C 0.26951 0.73891 0.98559 0.0
C268 C 0.22629 0.73712 0.96701 0.0
C269 C 0.2307 0.73311 0.93455 0.0
C270 C 0.36363 0.74051 0.99005 0.0
C271 C 0.17548 0.73761 0.98149 0.0
C272 C 0.26965 0.68572 0.06702 0.0
C273 C 0.27327 0.72841 0.08538 0.0
C274 C 0.26652 0.68879 0.03459 0.0
C275 C 0.26625 0.73577 0.02008 0.0
C276 C 0.26733 0.77912 0.03856 0.0
C277 C 0.27126 0.77494 0.07104 0.0
C278 C 0.26602 0.64159 0.01581 0.0
C279 C 0.26619 0.82986 0.02398 0.0
H280 H 0.35601 0.73491 0.92793 0.0
H281 H 0.19769 0.73005 0.9204 0.0
H282 H 0.36315 0.77233 0.00629 0.0
H283 H 0.36644 0.70637 0.00425 0.0
H284 H 0.39716 0.74329 0.97526 0.0
H285 H 0.14581 0.74211 0.96388 0.0
H286 H 0.16916 0.70238 0.99409 0.0
H287 H 0.17252 0.76801 0.9987 0.0
H288 H 0.27116 0.64961 0.07792 0.0
H289 H 0.27378 0.80807 0.08512 0.0
H290 H 0.30025 0.6392 1.00168 0.0
H291 H 0.23428 0.64153 0.9995 0.0
H292 H 0.26364 0.60809 0.03067 0.0
H293 H 0.30137 0.83662 0.01143 0.0
H294 H 0.26118 0.85957 0.04152 0.0
H295 H 0.23584 0.8323 0.00671 0.0
C296 C 0.72981 0.76712 0.57157 0.0
C297 C 0.77621 0.76971 0.58603 0.0
C298 C 0.72586 0.76432 0.53904 0.0
C299 C 0.7693 0.7649 0.52064 0.0
C300 C 0.81619 0.76566 0.53526 0.0
C301 C 0.81904 0.76772 0.56772 0.0
C302 C 0.67524 0.76267 0.52433 0.0
C303 C 0.86345 0.76684 0.51657 0.0
C304 C 0.77283 0.73294 0.43457 0.0
C305 C 0.77341 0.78017 0.4211 0.0
C306 C 0.7689 0.72711 0.46695 0.0
C307 C 0.76623 0.76952 0.48621 0.0
C308 C 0.76504 0.81715 0.47257 0.0
C309 C 0.76832 0.82184 0.44023 0.0
C310 C 0.76944 0.67571 0.4806 0.0
C311 C 0.76274 0.8634 0.49221 0.0
H312 H 0.69658 0.76839 0.58561 0.0
H313 H 0.85505 0.76964 0.57872 0.0
H314 H 0.66777 0.79821 0.51234 0.0
H315 H 0.67355 0.73299 0.50657 0.0
H316 H 0.64559 0.7563 0.54172 0.0
H317 H 0.89691 0.76444 0.53146 0.0
H318 H 0.86418 0.73583 0.49973 0.0
H319 H 0.86525 0.80174 0.50304 0.0
H320 H 0.77651 0.70058 0.41989 0.0
H321 H 0.76867 0.85848 0.43001 0.0
H322 H 0.73905 0.67139 0.49768 0.0
H323 H 0.80473 0.66962 0.49317 0.0
H324 H 0.76566 0.64667 0.46251 0.0
H325 H 0.73088 0.8616 0.50838 0.0
H326 H 0.75932 0.89748 0.47797 0.0
H327 H 0.79675 0.8663 0.50652 0.0
C328 C 0.68816 0.26233 0.93981 0.0
C329 C 0.73005 0.26635 0.92079 0.0
C330 C 0.69252 0.25988 0.97219 0.0
C331 C 0.74003 0.26079 0.98599 0.0
C332 C 0.78263 0.26205 0.96685 0.0
C333 C 0.77714 0.26521 0.93442 0.0
C334 C 0.64608 0.25906 0.99168 0.0
C335 C 0.8339 0.26215 0.98067 0.0
C336 C 0.74155 0.31793 0.06628 0.0
C337 C 0.73838 0.27616 0.08548 0.0
C338 C 0.74419 0.31327 0.03393 0.0
C339 C 0.74436 0.26558 0.02034 0.0
C340 C 0.74388 0.22316 0.03966 0.0
C341 C 0.74049 0.22894 0.07206 0.0
C342 C 0.74413 0.35952 0.01423 0.0
C343 C 0.74494 0.17173 0.02606 0.0
H344 H 0.65162 0.26307 0.92946 0.0
H345 H 0.80966 0.26801 0.91982 0.0
H346 H 0.64734 0.22798 0.00846 0.0
H347 H 0.64343 0.2938 0.00531 0.0
H348 H 0.61211 0.25535 0.97736 0.0
H349 H 0.86295 0.25656 0.96278 0.0
H350 H 0.84076 0.29805 0.99238 0.0
H351 H 0.83737 0.23273 0.9985 0.0
H352 H 0.74004 0.35457 0.07647 0.0
H353 H 0.73834 0.19652 0.0868 0.0
H354 H 0.70951 0.36119 1.00043 0.0
H355 H 0.77542 0.3588 0.99761 0.0
H356 H 0.74686 0.39373 0.02841 0.0
H357 H 0.70934 0.16403 0.01422 0.0
H358 H 0.75092 0.14298 0.0441 0.0
H359 H 0.77462 0.16867 0.00838 0.0
C360 C 0.57898 0.2352 0.25537 0.0
C361 C 0.58836 0.22657 0.22381 0.0
C362 C 0.53156 0.22799 0.26793 0.0
C363 C 0.49239 0.21247 0.24838 0.0
C364 C 0.5023 0.20113 0.21689 0.0
C365 C 0.55025 0.20798 0.20504 0.0
C366 C 0.52283 0.23958 0.30177 0.0
C367 C 0.46161 0.18481 0.19519 0.0
C368 C 0.37144 0.16901 0.28472 0.0
C369 C 0.34287 0.21234 0.28389 0.0
C370 C 0.42013 0.16838 0.27325 0.0
C371 C 0.44052 0.21195 0.26025 0.0
C372 C 0.41149 0.25558 0.25888 0.0
C373 C 0.36319 0.25532 0.27091 0.0
C374 C 0.45002 0.12134 0.27547 0.0
C375 C 0.43157 0.30269 0.24485 0.0
H376 H 0.60825 0.24955 0.27001 0.0
H377 H 0.55709 0.20155 0.18058 0.0
H378 H 0.4997 0.27333 0.30379 0.0
H379 H 0.5024 0.20894 0.31313 0.0
H380 H 0.55794 0.24588 0.31456 0.0
H381 H 0.47611 0.17307 0.17221 0.0
H382 H 0.44045 0.15371 0.20546 0.0
H383 H 0.43532 0.21581 0.19159 0.0
H384 H 0.35604 0.13571 0.29486 0.0
H385 H 0.34126 0.28887 0.27012 0.0
H386 H 0.4835 0.12786 0.28979 0.0
H387 H 0.46277 0.1099 0.25208 0.0
H388 H 0.42861 0.09046 0.2859 0.0
H389 H 0.46437 0.3153 0.25814 0.0
H390 H 0.40378 0.33296 0.24466 0.0
H391 H 0.44385 0.2958 0.22065 0.0
C392 C 0.24999 0.85498 0.77236 0.0
C393 C 0.29417 0.835 0.78389 0.0
C394 C 0.24862 0.90277 0.75953 0.0
C395 C 0.2924 0.93156 0.75849 0.0
C396 C 0.33718 0.91147 0.76996 0.0
C397 C 0.33758 0.86336 0.78238 0.0
C398 C 0.20017 0.92258 0.74726 0.0
C399 C 0.38452 0.94106 0.7695 0.0
C400 C 0.2913 0.03906 0.70146 0.0
C401 C 0.27571 0.07826 0.72042 0.0
C402 C 0.29866 0.99142 0.71372 0.0
C403 C 0.29084 0.98292 0.74579 0.0
C404 C 0.27811 0.02308 0.76535 0.0
C405 C 0.27041 0.07018 0.75241 0.0
C406 C 0.31197 0.94964 0.69202 0.0
C407 C 0.27021 0.01582 0.79974 0.0
H408 H 0.21634 0.83325 0.77338 0.0
H409 H 0.37184 0.84821 0.79134 0.0
H410 H 0.1893 0.95609 0.76046 0.0
H411 H 0.20435 0.93367 0.7226 0.0
H412 H 0.16979 0.89503 0.74894 0.0
H413 H 0.41638 0.91989 0.77891 0.0
H414 H 0.39331 0.95262 0.74542 0.0
H415 H 0.37987 0.97527 0.78344 0.0
H416 H 0.29516 0.0449 0.67668 0.0
H417 H 0.25837 0.1003 0.7672 0.0
H418 H 0.28048 0.92345 0.6904 0.0
H419 H 0.34411 0.92868 0.70113 0.0
H420 H 0.32093 0.96302 0.66829 0.0
H421 H 0.23679 0.99283 0.80358 0.0
H422 H 0.26532 0.05148 0.81218 0.0
H423 H 0.30202 0.99581 0.81009 0.0
C424 C 0.64873 0.75794 0.27325 0.0
C425 C 0.66748 0.80111 0.2869 0.0
C426 C 0.60065 0.75659 0.26087 0.0
C427 C 0.57031 0.7993 0.26251 0.0
C428 C 0.58911 0.84304 0.2762 0.0
C429 C 0.63755 0.8435 0.28807 0.0
C430 C 0.58222 0.70933 0.24617 0.0
C431 C 0.55782 0.88913 0.27868 0.0
C432 C 0.46139 0.80222 0.2066 0.0
C433 C 0.42339 0.78243 0.22496 0.0
C434 C 0.50903 0.80968 0.21881 0.0
C435 C 0.51871 0.79765 0.25024 0.0
C436 C 0.47962 0.78073 0.26937 0.0
C437 C 0.43252 0.77302 0.25646 0.0
C438 C 0.54967 0.82757 0.19757 0.0
C439 C 0.48812 0.7683 0.30312 0.0
H440 H 0.67169 0.72512 0.27221 0.0
H441 H 0.65173 0.87696 0.2987 0.0
H442 H 0.54949 0.69546 0.25903 0.0
H443 H 0.5703 0.71652 0.22194 0.0
H444 H 0.61084 0.67985 0.24594 0.0
H445 H 0.57807 0.92029 0.28969 0.0
H446 H 0.54532 0.90091 0.2553 0.0
H447 H 0.52419 0.88123 0.29258 0.0
H448 H 0.45473 0.80925 0.18218 0.0
H449 H 0.40333 0.75773 0.27078 0.0
H450 H 0.57688 0.79739 0.19393 0.0
H451 H 0.56975 0.85901 0.20828 0.0
H452 H 0.5353 0.8394 0.17459 0.0
H453 H 0.51226 0.73523 0.30488 0.0
H454 H 0.45301 0.7605 0.31558 0.0
H455 H 0.50739 0.79918 0.315 0.0
C456 C 0.66306 0.13162 0.7882 0.0
C457 C 0.70599 0.16065 0.78638 0.0
C458 C 0.66229 0.08288 0.7768 0.0
C459 C 0.7053 0.06287 0.76289 0.0
C460 C 0.7485 0.09235 0.76051 0.0
C461 C 0.74841 0.14074 0.77247 0.0
C462 C 0.61571 0.05254 0.78008 0.0
C463 C 0.795 0.07265 0.7455 0.0
C464 C 0.72951 0.92454 0.75802 0.0
C465 C 0.71931 0.91477 0.7267 0.0
C466 C 0.72259 0.97204 0.77055 0.0
C467 C 0.7057 0.01089 0.75119 0.0
C468 C 0.69272 1.00056 0.72 0.0
C469 C 0.69935 0.95253 0.70819 0.0
C470 C 0.73596 0.98123 0.80408 0.0
C471 C 0.67487 0.0409 0.69851 0.0
H472 H 0.63018 0.1467 0.79905 0.0
H473 H 0.78165 0.16301 0.77092 0.0
H474 H 0.60319 0.03946 0.75698 0.0
H475 H 0.62333 0.01923 0.79436 0.0
H476 H 0.58518 0.07373 0.79108 0.0
H477 H 0.82494 0.10076 0.74459 0.0
H478 H 0.80869 0.04007 0.75859 0.0
H479 H 0.7869 0.06013 0.7215 0.0
H480 H 0.74496 0.89555 0.77245 0.0
H481 H 0.69174 0.94541 0.68389 0.0
H482 H 0.70579 1.0015 0.81603 0.0
H483 H 0.76957 0.00468 0.80527 0.0
H484 H 0.74331 0.94629 0.81686 0.0
H485 H 0.66191 0.02605 0.67589 0.0
H486 H 0.70547 0.06733 0.69409 0.0
H487 H 0.64427 0.062 0.70939 0.0
C488 C 0.05305 0.30899 0.29709 0.0
C489 C 0.09061 0.28888 0.2785 0.0
C490 C 0.00493 0.31557 0.28544 0.0
C491 C 0.9943 0.30236 0.25433 0.0
C492 C 0.03296 0.2854 0.23485 0.0
C493 C 0.08057 0.27858 0.24722 0.0
C494 C 0.96481 0.33354 0.30704 0.0
C495 C 0.02345 0.27176 0.2014 0.0
C496 C 0.86441 0.25917 0.23367 0.0
C497 C 0.84431 0.30142 0.21963 0.0
C498 C 0.91287 0.25931 0.24549 0.0
C499 C 0.94222 0.30256 0.24284 0.0
C500 C 0.92201 0.34542 0.22884 0.0
C501 C 0.87321 0.34442 0.21758 0.0
C502 C 0.93279 0.21298 0.26062 0.0
C503 C 0.95221 0.39205 0.2253 0.0
H504 H 0.06038 0.3167 0.32135 0.0
H505 H 0.1094 0.26301 0.23272 0.0
H506 H 0.94345 0.36394 0.29612 0.0
H507 H 0.93857 0.3029 0.31175 0.0
H508 H 0.97991 0.34685 0.32952 0.0
H509 H 0.05825 0.2644 0.1885 0.0
H510 H 1.00006 0.23808 0.20041 0.0
H511 H 0.00298 0.30181 0.18946 0.0
H512 H 0.84223 0.22588 0.2354 0.0
H513 H 0.85798 0.37716 0.20664 0.0
H514 H 0.94551 0.22133 0.28454 0.0
H515 H 0.96527 0.19922 0.24747 0.0
H516 H 0.90476 0.18299 0.26175 0.0
H517 H 0.96552 0.40475 0.24831 0.0
H518 H 0.93083 0.42247 0.21432 0.0
H519 H 0.98534 0.38441 0.21089 0.0
C520 C 0.16395 0.36642 0.718 0.0
C521 C 0.20644 0.33662 0.71891 0.0
C522 C 0.16441 0.41483 0.72993 0.0
C523 C 0.20825 0.43374 0.74343 0.0
C524 C 0.25105 0.40351 0.74482 0.0
C525 C 0.2497 0.35546 0.73238 0.0
C526 C 0.11822 0.446 0.72769 0.0
C527 C 0.29842 0.42205 0.75933 0.0
C528 C 0.234 0.57169 0.74946 0.0
C529 C 0.22481 0.58077 0.78099 0.0
C530 C 0.22643 0.52455 0.73656 0.0
C531 C 0.20988 0.48533 0.75574 0.0
C532 C 0.19813 0.49493 0.78721 0.0
C533 C 0.20542 0.54262 0.7994 0.0
C534 C 0.23854 0.51615 0.70276 0.0
C535 C 0.18068 0.45416 0.8085 0.0
H536 H 0.13042 0.35217 0.70751 0.0
H537 H 0.28261 0.33259 0.73323 0.0
H538 H 0.1067 0.45842 0.75114 0.0
H539 H 0.12584 0.47969 0.71378 0.0
H540 H 0.08699 0.42568 0.71682 0.0
H541 H 0.32797 0.39349 0.75941 0.0
H542 H 0.31206 0.45484 0.74643 0.0
H543 H 0.29147 0.43391 0.78359 0.0
H544 H 0.24899 0.60099 0.73509 0.0
H545 H 0.19858 0.54922 0.82385 0.0
H546 H 0.2076 0.49682 0.69098 0.0
H547 H 0.27165 0.49208 0.70085 0.0
H548 H 0.24612 0.55131 0.69029 0.0
H549 H 0.14917 0.434 0.79795 0.0
H550 H 0.16911 0.46843 0.83157 0.0
H551 H 0.21098 0.42702 0.81195 0.0
C552 C 0.14943 0.75724 0.2328 0.0
C553 C 0.16983 0.71276 0.22203 0.0
C554 C 0.10173 0.75867 0.24573 0.0
C555 C 0.07349 0.71461 0.24769 0.0
C556 C 0.09401 0.66953 0.237 0.0
C557 C 0.142 0.6691 0.22443 0.0
C558 C 0.08144 0.80748 0.25713 0.0
C559 C 0.06501 0.62186 0.23848 0.0
C560 C 0.96665 0.71733 0.30514 0.0
C561 C 0.92705 0.73144 0.28603 0.0
C562 C 0.01421 0.7099 0.29282 0.0
C563 C 0.02226 0.71617 0.26057 0.0
C564 C 0.98175 0.7274 0.24094 0.0
C565 C 0.9347 0.73516 0.25392 0.0
C566 C 0.05637 0.69816 0.31459 0.0
C567 C 0.98855 0.73366 0.20638 0.0
H568 H 0.17075 0.79108 0.23109 0.0
H569 H 0.15748 0.6346 0.21607 0.0
H570 H 0.04764 0.81724 0.24387 0.0
H571 H 0.07069 0.80439 0.28191 0.0
H572 H 0.10855 0.83811 0.25471 0.0
H573 H 0.08646 0.58981 0.22958 0.0
H574 H 0.05384 0.61409 0.26277 0.0
H575 H 0.03061 0.62543 0.22462 0.0
H576 H 0.96112 0.71466 0.33 0.0
H577 H 0.90428 0.74605 0.23902 0.0
H578 H 0.08219 0.73003 0.31547 0.0
H579 H 0.0776 0.66583 0.30602 0.0
H580 H 0.04336 0.69024 0.33853 0.0
H581 H 0.01109 0.76716 0.20178 0.0
H582 H 0.95272 0.73751 0.19399 0.0
H583 H 0.00882 0.70159 0.19657 0.0
C584 C 0.7976 0.45514 0.80122 0.0
C585 C 0.77972 0.41671 0.78242 0.0
C586 C 0.80429 0.50306 0.78928 0.0
C587 C 0.79357 0.51263 0.75765 0.0
C588 C 0.77874 0.47317 0.73811 0.0
C589 C 0.77163 0.42578 0.75078 0.0
C590 C 0.81982 0.54407 0.81098 0.0
C591 C 0.76785 0.48153 0.70414 0.0
C592 C 0.75073 0.64149 0.73424 0.0
C593 C 0.79391 0.66186 0.72157 0.0
C594 C 0.75038 0.59327 0.74644 0.0
C595 C 0.79413 0.5644 0.74559 0.0
C596 C 0.8379 0.58485 0.73292 0.0
C597 C 0.83735 0.63344 0.72125 0.0
C598 C 0.70304 0.57312 0.76011 0.0
C599 C 0.88511 0.55515 0.73126 0.0
H600 H 0.80357 0.44854 0.82576 0.0
H601 H 0.75782 0.39626 0.73612 0.0
H602 H 0.85106 0.5653 0.80094 0.0
H603 H 0.7886 0.57024 0.81415 0.0
H604 H 0.83104 0.52987 0.83413 0.0
H605 H 0.76196 0.44626 0.69143 0.0
H606 H 0.73407 0.50452 0.70175 0.0
H607 H 0.79865 0.50198 0.69298 0.0
H608 H 0.71708 0.66329 0.73463 0.0
H609 H 0.87082 0.64888 0.71137 0.0
H610 H 0.7094 0.5611 0.78441 0.0
H611 H 0.69089 0.54013 0.74682 0.0
H612 H 0.67265 0.60079 0.7599 0.0
H613 H 0.89606 0.54273 0.75482 0.0
H614 H 0.91613 0.57657 0.72101 0.0
H615 H 0.87908 0.52145 0.71705 0.0
loop_
_geom_bond_atom_site_label_1
_geom_bond_atom_site_label_2
_geom_bond_distance
_geom_bond_site_symmetry_2
_ccdc_geom_bond_type
In0 O1 2.294 . S
In0 O2 2.326 . S
In0 O6 2.266 . S
In0 O7 2.326 . S
In0 O8 2.266 . S
In0 O9 2.326 . S
In0 O11 2.294 . S
In0 O12 2.326 . S
O1 In0 2.294 . S
O1 C10 1.240 . S
O2 In0 2.326 . S
O2 C10 1.252 . S
C3 O6 1.252 . S
C3 O7 1.260 . S
C4 O11 1.240 . S
C4 O12 1.252 . S
C5 O8 1.252 . S
C5 O9 1.260 . S
O6 In0 2.266 . S
O6 C3 1.252 . S
O7 In0 2.326 . S
O7 C3 1.260 . S
O8 In0 2.266 . S
O8 C5 1.252 . S
O9 In0 2.326 . S
O9 C5 1.260 . S
C10 O1 1.240 . S
C10 O2 1.252 . S
O11 In0 2.294 . S
O11 C4 1.240 . S
O12 In0 2.326 . S
O12 C4 1.252 . S
In13 O14 2.294 . S
In13 O15 2.326 . S
In13 O19 2.266 . S
In13 O20 2.326 . S
In13 O21 2.266 . S
In13 O22 2.326 . S
In13 O24 2.294 . S
In13 O25 2.326 . S
O14 In13 2.294 . S
O14 C23 1.240 . S
O15 In13 2.326 . S
O15 C23 1.252 . S
C16 O19 1.252 . S
C16 O20 1.260 . S
C17 O24 1.240 . S
C17 O25 1.252 . S
C18 O21 1.252 . S
C18 O22 1.260 . S
O19 In13 2.266 . S
O19 C16 1.252 . S
O20 In13 2.326 . S
O20 C16 1.260 . S
O21 In13 2.266 . S
O21 C18 1.252 . S
O22 In13 2.326 . S
O22 C18 1.260 . S
C23 O14 1.240 . S
C23 O15 1.252 . S
O24 In13 2.294 . S
O24 C17 1.240 . S
O25 In13 2.326 . S
O25 C17 1.252 . S
In26 O27 2.294 . S
In26 O28 2.326 . S
In26 O32 2.266 . S
In26 O33 2.326 . S
In26 O34 2.266 . S
In26 O35 2.326 . S
In26 O37 2.294 . S
In26 O38 2.326 . S
O27 In26 2.294 . S
O27 C36 1.240 . S
O28 In26 2.326 . S
O28 C36 1.252 . S
C29 O32 1.252 . S
C29 O33 1.260 . S
C30 O37 1.240 . S
C30 O38 1.252 . S
C31 O34 1.252 . S
C31 O35 1.260 . S
O32 In26 2.266 . S
O32 C29 1.252 . S
O33 In26 2.326 . S
O33 C29 1.260 . S
O34 In26 2.266 . S
O34 C31 1.252 . S
O35 In26 2.326 . S
O35 C31 1.260 . S
C36 O27 1.240 . S
C36 O28 1.252 . S
O37 In26 2.294 . S
O37 C30 1.240 . S
O38 In26 2.326 . S
O38 C30 1.252 . S
In39 O40 2.294 . S
In39 O41 2.326 . S
In39 O45 2.266 . S
In39 O46 2.326 . S
In39 O47 2.266 . S
In39 O48 2.326 . S
In39 O50 2.294 . S
In39 O51 2.326 . S
O40 In39 2.294 . S
O40 C49 1.240 . S
O41 In39 2.326 . S
O41 C49 1.252 . S
C42 O45 1.252 . S
C42 O46 1.260 . S
C43 O50 1.240 . S
C43 O51 1.252 . S
C44 O47 1.252 . S
C44 O48 1.260 . S
O45 In39 2.266 . S
O45 C42 1.252 . S
O46 In39 2.326 . S
O46 C42 1.260 . S
O47 In39 2.266 . S
O47 C44 1.252 . S
O48 In39 2.326 . S
O48 C44 1.260 . S
C49 O40 1.240 . S
C49 O41 1.252 . S
O50 In39 2.294 . S
O50 C43 1.240 . S
O51 In39 2.326 . S
O51 C43 1.252 . S
In52 O53 2.294 . S
In52 O54 2.326 . S
In52 O58 2.266 . S
In52 O59 2.326 . S
In52 O60 2.266 . S
In52 O61 2.326 . S
In52 O63 2.294 . S
In52 O64 2.326 . S
O53 In52 2.294 . S
O53 C62 1.240 . S
O54 In52 2.326 . S
O54 C62 1.252 . S
C55 O58 1.252 . S
C55 O59 1.260 . S
C56 O63 1.240 . S
C56 O64 1.252 . S
C57 O60 1.252 . S
C57 O61 1.260 . S
O58 In52 2.266 . S
O58 C55 1.252 . S
O59 In52 2.326 . S
O59 C55 1.260 . S
O60 In52 2.266 . S
O60 C57 1.252 . S
O61 In52 2.326 . S
O61 C57 1.260 . S
C62 O53 1.240 . S
C62 O54 1.252 . S
O63 In52 2.294 . S
O63 C56 1.240 . S
O64 In52 2.326 . S
O64 C56 1.252 . S
In65 O66 2.294 . S
In65 O67 2.326 . S
In65 O71 2.266 . S
In65 O72 2.326 . S
In65 O73 2.266 . S
In65 O74 2.326 . S
In65 O76 2.294 . S
In65 O77 2.326 . S
O66 In65 2.294 . S
O66 C75 1.240 . S
O67 In65 2.326 . S
O67 C75 1.252 . S
C68 O71 1.252 . S
C68 O72 1.260 . S
C69 O76 1.240 . S
C69 O77 1.252 . S
C70 O73 1.252 . S
C70 O74 1.260 . S
O71 In65 2.266 . S
O71 C68 1.252 . S
O72 In65 2.326 . S
O72 C68 1.260 . S
O73 In65 2.266 . S
O73 C70 1.252 . S
O74 In65 2.326 . S
O74 C70 1.260 . S
C75 O66 1.240 . S
C75 O67 1.252 . S
O76 In65 2.294 . S
O76 C69 1.240 . S
O77 In65 2.326 . S
O77 C69 1.252 . S
In78 O79 2.294 . S
In78 O80 2.326 . S
In78 O84 2.266 . S
In78 O85 2.326 . S
In78 O86 2.266 . S
In78 O87 2.326 . S
In78 O89 2.294 . S
In78 O90 2.326 . S
O79 In78 2.294 . S
O79 C88 1.240 . S
O80 In78 2.326 . S
O80 C88 1.252 . S
C81 O84 1.252 . S
C81 O85 1.260 . S
C82 O89 1.240 . S
C82 O90 1.252 . S
C83 O86 1.252 . S
C83 O87 1.260 . S
O84 In78 2.266 . S
O84 C81 1.252 . S
O85 In78 2.326 . S
O85 C81 1.260 . S
O86 In78 2.266 . S
O86 C83 1.252 . S
O87 In78 2.326 . S
O87 C83 1.260 . S
C88 O79 1.240 . S
C88 O80 1.252 . S
O89 In78 2.294 . S
O89 C82 1.240 . S
O90 In78 2.326 . S
O90 C82 1.252 . S
In91 O92 2.294 . S
In91 O93 2.326 . S
In91 O97 2.266 . S
In91 O98 2.326 . S
In91 O99 2.266 . S
In91 O100 2.326 . S
In91 O102 2.294 . S
In91 O103 2.326 . S
O92 In91 2.294 . S
O92 C101 1.240 . S
O93 In91 2.326 . S
O93 C101 1.252 . S
C94 O97 1.252 . S
C94 O98 1.260 . S
C95 O102 1.240 . S
C95 O103 1.252 . S
C96 O99 1.252 . S
C96 O100 1.260 . S
O97 In91 2.266 . S
O97 C94 1.252 . S
O98 In91 2.326 . S
O98 C94 1.260 . S
O99 In91 2.266 . S
O99 C96 1.252 . S
O100 In91 2.326 . S
O100 C96 1.260 . S
C101 O92 1.240 . S
C101 O93 1.252 . S
O102 In91 2.294 . S
O102 C95 1.240 . S
O103 In91 2.326 . S
O103 C95 1.252 . S
C104 C105 1.391 . S
C104 C106 1.394 . S
C104 H120 0.931 . S
C105 C104 1.391 . S
C105 C109 1.376 . S
C106 C104 1.394 . S
C106 C107 1.369 . S
C106 C110 1.531 1_545 S
C107 C106 1.369 . S
C107 C108 1.410 1_455 S
C107 C115 1.503 1_445 S
C108 C107 1.410 1_655 S
C108 C109 1.392 1_655 S
C108 C111 1.511 . S
C109 C105 1.376 . S
C109 C108 1.392 1_455 S
C109 H121 0.929 . S
C110 C106 1.531 1_565 S
C110 H122 0.960 . S
C110 H123 0.962 . S
C110 H124 0.960 . S
C111 C108 1.511 . S
C111 H125 0.961 . S
C111 H126 0.961 . S
C111 H127 0.961 . S
C112 C113 1.370 . S
C112 C114 1.363 . S
C112 H128 0.931 . S
C113 C112 1.370 . S
C113 C117 1.408 . S
C114 C112 1.363 . S
C114 C115 1.370 . S
C114 C118 1.524 1_655 S
C115 C107 1.503 1_665 S
C115 C114 1.370 . S
C115 C116 1.403 . S
C116 C115 1.403 . S
C116 C117 1.404 . S
C116 C119 1.539 . S
C117 C113 1.408 . S
C117 C116 1.404 . S
C117 H129 0.930 . S
C118 C114 1.524 1_455 S
C118 H130 0.956 . S
C118 H131 0.961 . S
C118 H132 0.961 . S
C119 C116 1.539 . S
C119 H133 0.958 . S
C119 H134 0.961 . S
C119 H135 0.960 1_565 S
H120 C104 0.931 . S
H121 C109 0.929 . S
H122 C110 0.960 . S
H123 C110 0.962 . S
H124 C110 0.960 . S
H125 C111 0.961 . S
H126 C111 0.961 . S
H127 C111 0.961 . S
H128 C112 0.931 . S
H129 C117 0.930 . S
H130 C118 0.956 . S
H131 C118 0.961 . S
H132 C118 0.961 . S
H133 C119 0.958 . S
H134 C119 0.961 . S
H135 C119 0.960 1_545 S
C136 C137 1.391 . S
C136 C138 1.394 . S
C136 H152 0.931 . S
C137 C136 1.391 . S
C137 C141 1.376 . S
C138 C136 1.394 . S
C138 C139 1.369 . S
C138 C142 1.531 . S
C139 C138 1.369 . S
C139 C140 1.410 . S
C139 C147 1.503 . S
C140 C139 1.410 . S
C140 C141 1.392 . S
C140 C143 1.511 . S
C141 C137 1.376 . S
C141 C140 1.392 . S
C141 H153 0.929 . S
C142 C138 1.531 . S
C142 H154 0.960 . S
C142 H155 0.962 . S
C142 H156 0.960 . S
C143 C140 1.511 . S
C143 H157 0.961 . S
C143 H158 0.961 . S
C143 H159 0.961 . S
C144 C145 1.370 . S
C144 C146 1.363 . S
C144 H160 0.931 . S
C145 C144 1.370 . S
C145 C149 1.408 . S
C146 C144 1.363 . S
C146 C147 1.370 . S
C146 C150 1.524 . S
C147 C139 1.503 . S
C147 C146 1.370 . S
C147 C148 1.403 . S
C148 C147 1.403 . S
C148 C149 1.404 . S
C148 C151 1.539 . S
C149 C145 1.408 . S
C149 C148 1.404 . S
C149 H161 0.930 . S
C150 C146 1.524 . S
C150 H162 0.956 . S
C150 H163 0.961 . S
C150 H164 0.961 . S
C151 C148 1.539 . S
C151 H165 0.958 . S
C151 H166 0.961 . S
C151 H167 0.960 . S
H152 C136 0.931 . S
H153 C141 0.929 . S
H154 C142 0.960 . S
H155 C142 0.962 . S
H156 C142 0.960 . S
H157 C143 0.961 . S
H158 C143 0.961 . S
H159 C143 0.961 . S
H160 C144 0.931 . S
H161 C149 0.930 . S
H162 C150 0.956 . S
H163 C150 0.961 . S
H164 C150 0.961 . S
H165 C151 0.958 . S
H166 C151 0.961 . S
H167 C151 0.960 . S
C168 C169 1.391 . S
C168 C170 1.394 . S
C168 H184 0.931 . S
C169 C168 1.391 . S
C169 C173 1.376 . S
C170 C168 1.394 . S
C170 C171 1.369 . S
C170 C174 1.531 . S
C171 C170 1.369 . S
C171 C172 1.410 . S
C171 C179 1.503 . S
C172 C171 1.410 . S
C172 C173 1.392 . S
C172 C175 1.511 . S
C173 C169 1.376 . S
C173 C172 1.392 . S
C173 H185 0.929 . S
C174 C170 1.531 . S
C174 H186 0.960 . S
C174 H187 0.962 . S
C174 H188 0.960 . S
C175 C172 1.511 . S
C175 H189 0.961 . S
C175 H190 0.961 . S
C175 H191 0.961 . S
C176 C177 1.370 . S
C176 C178 1.363 . S
C176 H192 0.931 . S
C177 C176 1.370 . S
C177 C181 1.408 . S
C178 C176 1.363 . S
C178 C179 1.370 . S
C178 C182 1.524 . S
C179 C171 1.503 . S
C179 C178 1.370 . S
C179 C180 1.403 . S
C180 C179 1.403 . S
C180 C181 1.404 . S
C180 C183 1.539 . S
C181 C177 1.408 . S
C181 C180 1.404 . S
C181 H193 0.930 . S
C182 C178 1.524 . S
C182 H194 0.956 . S
C182 H195 0.961 . S
C182 H196 0.961 . S
C183 C180 1.539 . S
C183 H197 0.958 . S
C183 H198 0.961 . S
C183 H199 0.960 . S
H184 C168 0.931 . S
H185 C173 0.929 . S
H186 C174 0.960 . S
H187 C174 0.962 . S
H188 C174 0.960 . S
H189 C175 0.961 . S
H190 C175 0.961 . S
H191 C175 0.961 . S
H192 C176 0.931 . S
H193 C181 0.930 . S
H194 C182 0.956 . S
H195 C182 0.961 . S
H196 C182 0.961 . S
H197 C183 0.958 . S
H198 C183 0.961 . S
H199 C183 0.960 . S
C200 C201 1.391 . S
C200 C202 1.394 . S
C200 H216 0.931 . S
C201 C200 1.391 . S
C201 C205 1.376 . S
C202 C200 1.394 . S
C202 C203 1.369 . S
C202 C206 1.531 . S
C203 C202 1.369 . S
C203 C204 1.410 . S
C203 C211 1.503 1_445 S
C204 C203 1.410 . S
C204 C205 1.392 . S
C204 C207 1.511 1_545 S
C205 C201 1.376 . S
C205 C204 1.392 . S
C205 H217 0.929 . S
C206 C202 1.531 . S
C206 H218 0.952 1_445 S
C206 H219 0.962 1_455 S
C206 H220 0.960 . S
C207 C204 1.511 1_565 S
C207 H221 0.961 . S
C207 H222 0.961 . S
C207 H223 0.961 . S
C208 C209 1.370 . S
C208 C210 1.363 1_565 S
C208 H224 0.937 . S
C209 C208 1.370 . S
C209 C213 1.408 . S
C210 C208 1.363 1_545 S
C210 C211 1.370 1_545 S
C210 C214 1.524 . S
C211 C203 1.503 1_665 S
C211 C210 1.370 1_565 S
C211 C212 1.403 . S
C212 C211 1.403 . S
C212 C213 1.404 . S
C212 C215 1.539 1_655 S
C213 C209 1.408 . S
C213 C212 1.404 . S
C213 H225 0.930 . S
C214 C210 1.524 . S
C214 H226 0.956 . S
C214 H227 0.961 . S
C214 H228 0.961 . S
C215 C212 1.539 1_455 S
C215 H229 0.958 . S
C215 H230 0.961 . S
C215 H231 0.960 . S
H216 C200 0.931 . S
H217 C205 0.929 . S
H218 C206 0.952 1_665 S
H219 C206 0.962 1_655 S
H220 C206 0.960 . S
H221 C207 0.961 . S
H222 C207 0.961 . S
H223 C207 0.961 . S
H224 C208 0.937 . S
H225 C213 0.930 . S
H226 C214 0.956 . S
H227 C214 0.961 . S
H228 C214 0.961 . S
H229 C215 0.958 . S
H230 C215 0.961 . S
H231 C215 0.960 . S
C232 C233 1.391 . S
C232 C234 1.394 . S
C232 H248 0.931 . S
C233 C232 1.391 . S
C233 C237 1.376 . S
C234 C232 1.394 . S
C234 C235 1.369 . S
C234 C238 1.531 . S
C235 C234 1.369 . S
C235 C236 1.410 . S
C235 C243 1.503 . S
C236 C235 1.410 . S
C236 C237 1.392 . S
C236 C239 1.511 . S
C237 C233 1.376 . S
C237 C236 1.392 . S
C237 H249 0.929 . S
C238 C234 1.531 . S
C238 H250 0.960 . S
C238 H251 0.962 . S
C238 H252 0.960 . S
C239 C236 1.511 . S
C239 H253 0.961 . S
C239 H254 0.961 . S
C239 H255 0.961 . S
C240 C241 1.370 . S
C240 C242 1.363 . S
C240 H256 0.931 . S
C241 C240 1.370 . S
C241 C245 1.408 . S
C242 C240 1.363 . S
C242 C243 1.370 . S
C242 C246 1.524 . S
C243 C235 1.503 . S
C243 C242 1.370 . S
C243 C244 1.403 . S
C244 C243 1.403 . S
C244 C245 1.404 . S
C244 C247 1.539 . S
C245 C241 1.408 . S
C245 C244 1.404 . S
C245 H257 0.930 . S
C246 C242 1.524 . S
C246 H258 0.956 . S
C246 H259 0.961 . S
C246 H260 0.961 . S
C247 C244 1.539 . S
C247 H261 0.958 . S
C247 H262 0.961 . S
C247 H263 0.960 . S
H248 C232 0.931 . S
H249 C237 0.929 . S
H250 C238 0.960 . S
H251 C238 0.962 . S
H252 C238 0.960 . S
H253 C239 0.961 . S
H254 C239 0.961 . S
H255 C239 0.961 . S
H256 C240 0.931 . S
H257 C245 0.930 . S
H258 C246 0.956 . S
H259 C246 0.961 . S
H260 C246 0.961 . S
H261 C247 0.958 . S
H262 C247 0.961 . S
H263 C247 0.960 . S
C264 C265 1.391 . S
C264 C266 1.394 . S
C264 H280 0.931 . S
C265 C264 1.391 . S
C265 C269 1.376 . S
C266 C264 1.394 . S
C266 C267 1.369 . S
C266 C270 1.531 . S
C267 C266 1.369 . S
C267 C268 1.410 . S
C267 C275 1.503 1_556 S
C268 C267 1.410 . S
C268 C269 1.392 . S
C268 C271 1.511 . S
C269 C265 1.376 . S
C269 C268 1.392 . S
C269 H281 0.929 . S
C270 C266 1.531 . S
C270 H282 0.960 . S
C270 H283 0.962 . S
C270 H284 0.960 . S
C271 C268 1.511 . S
C271 H285 0.961 . S
C271 H286 0.961 1_556 S
C271 H287 0.961 1_556 S
C272 C273 1.370 . S
C272 C274 1.363 . S
C272 H288 0.931 . S
C273 C272 1.370 . S
C273 C277 1.408 . S
C274 C272 1.363 . S
C274 C275 1.370 . S
C274 C278 1.524 . S
C275 C267 1.503 1_554 S
C275 C274 1.370 . S
C275 C276 1.403 . S
C276 C275 1.403 . S
C276 C277 1.404 . S
C276 C279 1.539 . S
C277 C273 1.408 . S
C277 C276 1.404 . S
C277 H289 0.930 . S
C278 C274 1.524 . S
C278 H290 0.955 1_554 S
C278 H291 0.961 . S
C278 H292 0.961 . S
C279 C276 1.539 . S
C279 H293 0.958 . S
C279 H294 0.961 . S
C279 H295 0.947 1_554 S
H280 C264 0.931 . S
H281 C269 0.929 . S
H282 C270 0.960 . S
H283 C270 0.962 . S
H284 C270 0.960 . S
H285 C271 0.961 . S
H286 C271 0.961 1_554 S
H287 C271 0.961 1_554 S
H288 C272 0.931 . S
H289 C277 0.930 . S
H290 C278 0.955 1_556 S
H291 C278 0.961 . S
H292 C278 0.961 . S
H293 C279 0.958 . S
H294 C279 0.961 . S
H295 C279 0.947 1_556 S
C296 C297 1.391 . S
C296 C298 1.394 . S
C296 H312 0.931 . S
C297 C296 1.391 . S
C297 C301 1.376 . S
C298 C296 1.394 . S
C298 C299 1.369 . S
C298 C302 1.531 . S
C299 C298 1.369 . S
C299 C300 1.410 . S
C299 C307 1.503 . S
C300 C299 1.410 . S
C300 C301 1.392 . S
C300 C303 1.511 . S
C301 C297 1.376 . S
C301 C300 1.392 . S
C301 H313 0.929 . S
C302 C298 1.531 . S
C302 H314 0.960 . S
C302 H315 0.962 . S
C302 H316 0.960 . S
C303 C300 1.511 . S
C303 H317 0.961 . S
C303 H318 0.961 . S
C303 H319 0.961 . S
C304 C305 1.370 . S
C304 C306 1.363 . S
C304 H320 0.931 . S
C305 C304 1.370 . S
C305 C309 1.408 . S
C306 C304 1.363 . S
C306 C307 1.370 . S
C306 C310 1.524 . S
C307 C299 1.503 . S
C307 C306 1.370 . S
C307 C308 1.403 . S
C308 C307 1.403 . S
C308 C309 1.404 . S
C308 C311 1.539 . S
C309 C305 1.408 . S
C309 C308 1.404 . S
C309 H321 0.930 . S
C310 C306 1.524 . S
C310 H322 0.956 . S
C310 H323 0.961 . S
C310 H324 0.961 . S
C311 C308 1.539 . S
C311 H325 0.958 . S
C311 H326 0.961 . S
C311 H327 0.960 . S
H312 C296 0.931 . S
H313 C301 0.929 . S
H314 C302 0.960 . S
H315 C302 0.962 . S
H316 C302 0.960 . S
H317 C303 0.961 . S
H318 C303 0.961 . S
H319 C303 0.961 . S
H320 C304 0.931 . S
H321 C309 0.930 . S
H322 C310 0.956 . S
H323 C310 0.961 . S
H324 C310 0.961 . S
H325 C311 0.958 . S
H326 C311 0.961 . S
H327 C311 0.960 . S
C328 C329 1.391 . S
C328 C330 1.394 . S
C328 H344 0.931 . S
C329 C328 1.391 . S
C329 C333 1.376 . S
C330 C328 1.394 . S
C330 C331 1.369 . S
C330 C334 1.531 . S
C331 C330 1.369 . S
C331 C332 1.410 . S
C331 C339 1.503 1_556 S
C332 C331 1.410 . S
C332 C333 1.392 . S
C332 C335 1.511 . S
C333 C329 1.376 . S
C333 C332 1.392 . S
C333 H345 0.929 . S
C334 C330 1.531 . S
C334 H346 0.960 . S
C334 H347 0.962 . S
C334 H348 0.960 . S
C335 C332 1.511 . S
C335 H349 0.961 . S
C335 H350 0.961 1_556 S
C335 H351 0.961 . S
C336 C337 1.370 . S
C336 C338 1.363 . S
C336 H352 0.931 . S
C337 C336 1.370 . S
C337 C341 1.408 . S
C338 C336 1.363 . S
C338 C339 1.370 . S
C338 C342 1.524 . S
C339 C331 1.503 1_554 S
C339 C338 1.370 . S
C339 C340 1.403 . S
C340 C339 1.403 . S
C340 C341 1.404 . S
C340 C343 1.539 . S
C341 C337 1.408 . S
C341 C340 1.404 . S
C341 H353 0.930 . S
C342 C338 1.524 . S
C342 H354 0.956 . S
C342 H355 0.961 . S
C342 H356 0.961 . S
C343 C340 1.539 . S
C343 H357 0.958 . S
C343 H358 0.961 . S
C343 H359 0.960 1_554 S
H344 C328 0.931 . S
H345 C333 0.929 . S
H346 C334 0.960 . S
H347 C334 0.962 . S
H348 C334 0.960 . S
H349 C335 0.961 . S
H350 C335 0.961 1_554 S
H351 C335 0.961 . S
H352 C336 0.931 . S
H353 C341 0.930 . S
H354 C342 0.956 . S
H355 C342 0.961 . S
H356 C342 0.961 . S
H357 C343 0.958 . S
H358 C343 0.961 . S
H359 C343 0.960 1_556 S
C360 C361 1.391 . S
C360 C362 1.394 . S
C360 H376 0.931 . S
C361 C360 1.391 . S
C361 C365 1.376 . S
C362 C360 1.394 . S
C362 C363 1.369 . S
C362 C366 1.531 . S
C363 C362 1.369 . S
C363 C364 1.410 . S
C363 C371 1.503 . S
C364 C363 1.410 . S
C364 C365 1.392 . S
C364 C367 1.511 . S
C365 C361 1.376 . S
C365 C364 1.392 . S
C365 H377 0.929 . S
C366 C362 1.531 . S
C366 H378 0.960 . S
C366 H379 0.962 . S
C366 H380 0.960 . S
C367 C364 1.511 . S
C367 H381 0.961 . S
C367 H382 0.961 . S
C367 H383 0.961 . S
C368 C369 1.370 . S
C368 C370 1.363 . S
C368 H384 0.931 . S
C369 C368 1.370 . S
C369 C373 1.408 . S
C370 C368 1.363 . S
C370 C371 1.370 . S
C370 C374 1.524 . S
C371 C363 1.503 . S
C371 C370 1.370 . S
C371 C372 1.403 . S
C372 C371 1.403 . S
C372 C373 1.404 . S
C372 C375 1.539 . S
C373 C369 1.408 . S
C373 C372 1.404 . S
C373 H385 0.930 . S
C374 C370 1.524 . S
C374 H386 0.956 . S
C374 H387 0.961 . S
C374 H388 0.961 . S
C375 C372 1.539 . S
C375 H389 0.958 . S
C375 H390 0.961 . S
C375 H391 0.960 . S
H376 C360 0.931 . S
H377 C365 0.929 . S
H378 C366 0.960 . S
H379 C366 0.962 . S
H380 C366 0.960 . S
H381 C367 0.961 . S
H382 C367 0.961 . S
H383 C367 0.961 . S
H384 C368 0.931 . S
H385 C373 0.930 . S
H386 C374 0.956 . S
H387 C374 0.961 . S
H388 C374 0.961 . S
H389 C375 0.958 . S
H390 C375 0.961 . S
H391 C375 0.960 . S
C392 C393 1.391 . S
C392 C394 1.394 . S
C392 H408 0.931 . S
C393 C392 1.391 . S
C393 C397 1.376 . S
C394 C392 1.394 . S
C394 C395 1.369 . S
C394 C398 1.531 . S
C395 C394 1.369 . S
C395 C396 1.410 . S
C395 C403 1.503 . S
C396 C395 1.410 . S
C396 C397 1.392 . S
C396 C399 1.511 . S
C397 C393 1.376 . S
C397 C396 1.392 . S
C397 H409 0.929 . S
C398 C394 1.531 . S
C398 H410 0.960 . S
C398 H411 0.962 . S
C398 H412 0.960 . S
C399 C396 1.511 . S
C399 H413 0.961 . S
C399 H414 0.961 . S
C399 H415 0.961 . S
C400 C401 1.370 1_565 S
C400 C402 1.363 . S
C400 H416 0.931 . S
C401 C400 1.370 1_545 S
C401 C405 1.408 1_545 S
C402 C400 1.363 . S
C402 C403 1.370 . S
C402 C406 1.524 . S
C403 C395 1.503 . S
C403 C402 1.370 . S
C403 C404 1.403 . S
C404 C403 1.403 . S
C404 C405 1.404 . S
C404 C407 1.539 . S
C405 C401 1.408 1_565 S
C405 C404 1.404 . S
C405 H417 0.930 1_565 S
C406 C402 1.524 . S
C406 H418 0.956 . S
C406 H419 0.961 . S
C406 H420 0.961 . S
C407 C404 1.539 . S
C407 H421 0.958 . S
C407 H422 0.961 . S
C407 H423 0.960 . S
H408 C392 0.931 . S
H409 C397 0.929 . S
H410 C398 0.960 . S
H411 C398 0.962 . S
H412 C398 0.960 . S
H413 C399 0.961 . S
H414 C399 0.961 . S
H415 C399 0.961 . S
H416 C400 0.931 . S
H417 C405 0.930 1_545 S
H418 C406 0.956 . S
H419 C406 0.961 . S
H420 C406 0.961 . S
H421 C407 0.958 . S
H422 C407 0.961 . S
H423 C407 0.960 . S
C424 C425 1.391 . S
C424 C426 1.394 . S
C424 H440 0.931 . S
C425 C424 1.391 . S
C425 C429 1.376 . S
C426 C424 1.394 . S
C426 C427 1.369 . S
C426 C430 1.531 . S
C427 C426 1.369 . S
C427 C428 1.410 . S
C427 C435 1.503 . S
C428 C427 1.410 . S
C428 C429 1.392 . S
C428 C431 1.511 . S
C429 C425 1.376 . S
C429 C428 1.392 . S
C429 H441 0.929 . S
C430 C426 1.531 . S
C430 H442 0.960 . S
C430 H443 0.962 . S
C430 H444 0.960 . S
C431 C428 1.511 . S
C431 H445 0.961 . S
C431 H446 0.961 . S
C431 H447 0.961 . S
C432 C433 1.370 . S
C432 C434 1.363 . S
C432 H448 0.931 . S
C433 C432 1.370 . S
C433 C437 1.408 . S
C434 C432 1.363 . S
C434 C435 1.370 . S
C434 C438 1.524 . S
C435 C427 1.503 . S
C435 C434 1.370 . S
C435 C436 1.403 . S
C436 C435 1.403 . S
C436 C437 1.404 . S
C436 C439 1.539 . S
C437 C433 1.408 . S
C437 C436 1.404 . S
C437 H449 0.930 . S
C438 C434 1.524 . S
C438 H450 0.956 . S
C438 H451 0.961 . S
C438 H452 0.961 . S
C439 C436 1.539 . S
C439 H453 0.958 . S
C439 H454 0.961 . S
C439 H455 0.960 . S
H440 C424 0.931 . S
H441 C429 0.929 . S
H442 C430 0.960 . S
H443 C430 0.962 . S
H444 C430 0.960 . S
H445 C431 0.961 . S
H446 C431 0.961 . S
H447 C431 0.961 . S
H448 C432 0.931 . S
H449 C437 0.930 . S
H450 C438 0.956 . S
H451 C438 0.961 . S
H452 C438 0.961 . S
H453 C439 0.958 . S
H454 C439 0.961 . S
H455 C439 0.960 . S
C456 C457 1.391 . S
C456 C458 1.394 . S
C456 H472 0.931 . S
C457 C456 1.391 . S
C457 C461 1.376 . S
C458 C456 1.394 . S
C458 C459 1.369 . S
C458 C462 1.531 . S
C459 C458 1.369 . S
C459 C460 1.410 . S
C459 C467 1.503 . S
C460 C459 1.410 . S
C460 C461 1.392 . S
C460 C463 1.511 . S
C461 C457 1.376 . S
C461 C460 1.392 . S
C461 H473 0.929 . S
C462 C458 1.531 . S
C462 H474 0.960 . S
C462 H475 0.962 . S
C462 H476 0.960 . S
C463 C460 1.511 . S
C463 H477 0.961 . S
C463 H478 0.961 . S
C463 H479 0.961 . S
C464 C465 1.370 1_545 S
C464 C466 1.363 . S
C464 H480 0.931 1_545 S
C465 C464 1.370 1_565 S
C465 C469 1.408 1_565 S
C466 C464 1.363 . S
C466 C467 1.370 . S
C466 C470 1.524 . S
C467 C459 1.503 . S
C467 C466 1.370 . S
C467 C468 1.403 . S
C468 C467 1.403 . S
C468 C469 1.404 . S
C468 C471 1.539 . S
C469 C465 1.408 1_545 S
C469 C468 1.404 . S
C469 H481 0.930 . S
C470 C466 1.524 . S
C470 H482 0.956 . S
C470 H483 0.961 . S
C470 H484 0.961 . S
C471 C468 1.539 . S
C471 H485 0.958 . S
C471 H486 0.961 . S
C471 H487 0.960 . S
H472 C456 0.931 . S
H473 C461 0.929 . S
H474 C462 0.960 . S
H475 C462 0.962 . S
H476 C462 0.960 . S
H477 C463 0.961 . S
H478 C463 0.961 . S
H479 C463 0.961 . S
H480 C464 0.931 1_565 S
H481 C469 0.930 . S
H482 C470 0.956 . S
H483 C470 0.961 . S
H484 C470 0.961 . S
H485 C471 0.958 . S
H486 C471 0.961 . S
H487 C471 0.960 . S
C488 C489 1.391 1_655 S
C488 C490 1.394 . S
C488 H504 0.931 . S
C489 C488 1.391 1_455 S
C489 C493 1.376 . S
C490 C488 1.394 . S
C490 C491 1.369 . S
C490 C494 1.531 . S
C491 C490 1.369 . S
C491 C492 1.410 . S
C491 C499 1.503 . S
C492 C491 1.410 . S
C492 C493 1.392 1_655 S
C492 C495 1.511 . S
C493 C489 1.376 . S
C493 C492 1.392 1_455 S
C493 H505 0.929 . S
C494 C490 1.531 . S
C494 H506 0.960 . S
C494 H507 0.962 . S
C494 H508 0.960 . S
C495 C492 1.511 . S
C495 H509 0.961 . S
C495 H510 0.961 . S
C495 H511 0.961 . S
C496 C497 1.370 . S
C496 C498 1.363 . S
C496 H512 0.931 . S
C497 C496 1.370 . S
C497 C501 1.408 . S
C498 C496 1.363 . S
C498 C499 1.370 . S
C498 C502 1.524 . S
C499 C491 1.503 . S
C499 C498 1.370 . S
C499 C500 1.403 . S
C500 C499 1.403 . S
C500 C501 1.404 . S
C500 C503 1.539 . S
C501 C497 1.408 . S
C501 C500 1.404 . S
C501 H513 0.930 . S
C502 C498 1.524 . S
C502 H514 0.956 . S
C502 H515 0.961 . S
C502 H516 0.961 . S
C503 C500 1.539 . S
C503 H517 0.958 . S
C503 H518 0.961 . S
C503 H519 0.960 . S
H504 C488 0.931 . S
H505 C493 0.929 . S
H506 C494 0.960 . S
H507 C494 0.962 . S
H508 C494 0.960 . S
H509 C495 0.961 . S
H510 C495 0.961 . S
H511 C495 0.961 . S
H512 C496 0.931 . S
H513 C501 0.930 . S
H514 C502 0.956 . S
H515 C502 0.961 . S
H516 C502 0.961 . S
H517 C503 0.958 . S
H518 C503 0.961 . S
H519 C503 0.960 . S
C520 C521 1.391 . S
C520 C522 1.394 . S
C520 H536 0.931 . S
C521 C520 1.391 . S
C521 C525 1.376 . S
C522 C520 1.394 . S
C522 C523 1.369 . S
C522 C526 1.531 . S
C523 C522 1.369 . S
C523 C524 1.410 . S
C523 C531 1.503 . S
C524 C523 1.410 . S
C524 C525 1.392 . S
C524 C527 1.511 . S
C525 C521 1.376 . S
C525 C524 1.392 . S
C525 H537 0.929 . S
C526 C522 1.531 . S
C526 H538 0.960 . S
C526 H539 0.962 . S
C526 H540 0.960 . S
C527 C524 1.511 . S
C527 H541 0.961 . S
C527 H542 0.961 . S
C527 H543 0.961 . S
C528 C529 1.370 . S
C528 C530 1.363 . S
C528 H544 0.931 . S
C529 C528 1.370 . S
C529 C533 1.408 . S
C530 C528 1.363 . S
C530 C531 1.370 . S
C530 C534 1.524 . S
C531 C523 1.503 . S
C531 C530 1.370 . S
C531 C532 1.403 . S
C532 C531 1.403 . S
C532 C533 1.404 . S
C532 C535 1.539 . S
C533 C529 1.408 . S
C533 C532 1.404 . S
C533 H545 0.930 . S
C534 C530 1.524 . S
C534 H546 0.956 . S
C534 H547 0.961 . S
C534 H548 0.961 . S
C535 C532 1.539 . S
C535 H549 0.958 . S
C535 H550 0.961 . S
C535 H551 0.960 . S
H536 C520 0.931 . S
H537 C525 0.929 . S
H538 C526 0.960 . S
H539 C526 0.962 . S
H540 C526 0.960 . S
H541 C527 0.961 . S
H542 C527 0.961 . S
H543 C527 0.961 . S
H544 C528 0.931 . S
H545 C533 0.930 . S
H546 C534 0.956 . S
H547 C534 0.961 . S
H548 C534 0.961 . S
H549 C535 0.958 . S
H550 C535 0.961 . S
H551 C535 0.960 . S
C552 C553 1.391 . S
C552 C554 1.394 . S
C552 H568 0.931 . S
C553 C552 1.391 . S
C553 C557 1.376 . S
C554 C552 1.394 . S
C554 C555 1.369 . S
C554 C558 1.531 . S
C555 C554 1.369 . S
C555 C556 1.410 . S
C555 C563 1.503 . S
C556 C555 1.410 . S
C556 C557 1.392 . S
C556 C559 1.511 . S
C557 C553 1.376 . S
C557 C556 1.392 . S
C557 H569 0.929 . S
C558 C554 1.531 . S
C558 H570 0.960 . S
C558 H571 0.962 . S
C558 H572 0.960 . S
C559 C556 1.511 . S
C559 H573 0.961 . S
C559 H574 0.961 . S
C559 H575 0.961 . S
C560 C561 1.370 1_455 S
C560 C562 1.363 . S
C560 H576 0.931 . S
C561 C560 1.370 1_655 S
C561 C565 1.408 1_655 S
C562 C560 1.363 . S
C562 C563 1.370 . S
C562 C566 1.524 . S
C563 C555 1.503 . S
C563 C562 1.370 . S
C563 C564 1.403 . S
C564 C563 1.403 . S
C564 C565 1.404 . S
C564 C567 1.539 . S
C565 C561 1.408 1_455 S
C565 C564 1.404 . S
C565 H577 0.930 1_455 S
C566 C562 1.524 . S
C566 H578 0.956 . S
C566 H579 0.961 . S
C566 H580 0.961 . S
C567 C564 1.539 . S
C567 H581 0.958 . S
C567 H582 0.961 . S
C567 H583 0.960 . S
H568 C552 0.931 . S
H569 C557 0.929 . S
H570 C558 0.960 . S
H571 C558 0.962 . S
H572 C558 0.960 . S
H573 C559 0.961 . S
H574 C559 0.961 . S
H575 C559 0.961 . S
H576 C560 0.931 . S
H577 C565 0.930 1_655 S
H578 C566 0.956 . S
H579 C566 0.961 . S
H580 C566 0.961 . S
H581 C567 0.958 . S
H582 C567 0.961 . S
H583 C567 0.960 . S
C584 C585 1.391 . S
C584 C586 1.394 . S
C584 H600 0.931 . S
C585 C584 1.391 . S
C585 C589 1.376 . S
C586 C584 1.394 . S
C586 C587 1.369 . S
C586 C590 1.531 . S
C587 C586 1.369 . S
C587 C588 1.410 . S
C587 C595 1.503 . S
C588 C587 1.410 . S
C588 C589 1.392 . S
C588 C591 1.511 . S
C589 C585 1.376 . S
C589 C588 1.392 . S
C589 H601 0.929 . S
C590 C586 1.531 . S
C590 H602 0.960 . S
C590 H603 0.962 . S
C590 H604 0.960 . S
C591 C588 1.511 . S
C591 H605 0.961 . S
C591 H606 0.961 . S
C591 H607 0.961 . S
C592 C593 1.370 . S
C592 C594 1.363 . S
C592 H608 0.931 . S
C593 C592 1.370 . S
C593 C597 1.408 . S
C594 C592 1.363 . S
C594 C595 1.370 . S
C594 C598 1.524 . S
C595 C587 1.503 . S
C595 C594 1.370 . S
C595 C596 1.403 . S
C596 C595 1.403 . S
C596 C597 1.404 . S
C596 C599 1.539 . S
C597 C593 1.408 . S
C597 C596 1.404 . S
C597 H609 0.930 . S
C598 C594 1.524 . S
C598 H610 0.956 . S
C598 H611 0.961 . S
C598 H612 0.961 . S
C599 C596 1.539 . S
C599 H613 0.958 . S
C599 H614 0.961 . S
C599 H615 0.960 . S
H600 C584 0.931 . S
H601 C589 0.929 . S
H602 C590 0.960 . S
H603 C590 0.962 . S
H604 C590 0.960 . S
H605 C591 0.961 . S
H606 C591 0.961 . S
H607 C591 0.961 . S
H608 C592 0.931 . S
H609 C597 0.930 . S
H610 C598 0.956 . S
H611 C598 0.961 . S
H612 C598 0.961 . S
H613 C599 0.958 . S
H614 C599 0.961 . S
H615 C599 0.960 . S
C105 C5 0.821 . S
C113 C29 0.827 . S
C137 C16 0.825 . S
C145 C42 0.829 . S
C169 C55 0.827 . S
C177 C81 0.825 . S
C201 C68 0.821 . S
C209 C94 0.829 . S
C233 C10 1.499 . S
C241 C69 1.493 . S
C265 C17 1.506 . S
C273 C82 1.502 . S
C297 C95 1.478 . S
C305 C30 1.486 . S
C329 C43 1.504 . S
C337 C56 1.502 . S
C361 C57 1.677 . S
C369 C4 1.747 . S
C393 C23 1.716 . S
C401 C70 1.719 . S
C425 C36 1.731 . S
C433 C83 1.713 . S
C457 C49 1.752 . S
C465 C96 1.696 . S
C489 C3 1.731 . S
C497 C62 1.730 . S
C521 C75 1.743 . S
C529 C18 1.699 . S
C553 C88 1.713 . S
C561 C31 1.719 . S
C585 C44 1.701 . S
C593 C101 1.735 . S
