# Generated by pormake.
# Topology sml, (6)-cn, num edge types: 1
# Building blocks:
#     Node 0, Type 0, BuildingBlock: GEDQOX_clean_sbu_0, # of connection points: 6
#     Node 1, Type 0, BuildingBlock: GEDQOX_clean_sbu_0, # of connection points: 6
#     Node 2, Type 0, BuildingBlock: GEDQOX_clean_sbu_0, # of connection points: 6
#     Node 3, Type 0, BuildingBlock: GEDQOX_clean_sbu_0, # of connection points: 6
#     Node 4, Type 0, BuildingBlock: GEDQOX_clean_sbu_0, # of connection points: 6
#     Node 5, Type 0, BuildingBlock: GEDQOX_clean_sbu_0, # of connection points: 6
#     Edge 6, Type (0, 0), BuildingBlock: OJICUG_clean_linker_0, # of connection points: 2
#     Edge 7, Type (0, 0), BuildingBlock: OJICUG_clean_linker_0, # of connection points: 2
#     Edge 8, Type (0, 0), BuildingBlock: OJICUG_clean_linker_0, # of connection points: 2
#     Edge 9, Type (0, 0), BuildingBlock: OJICUG_clean_linker_0, # of connection points: 2
#     Edge 10, Type (0, 0), BuildingBlock: OJICUG_clean_linker_0, # of connection points: 2
#     Edge 11, Type (0, 0), BuildingBlock: OJICUG_clean_linker_0, # of connection points: 2
#     Edge 12, Type (0, 0), BuildingBlock: OJICUG_clean_linker_0, # of connection points: 2
#     Edge 13, Type (0, 0), BuildingBlock: OJICUG_clean_linker_0, # of connection points: 2
#     Edge 14, Type (0, 0), BuildingBlock: OJICUG_clean_linker_0, # of connection points: 2
#     Edge 15, Type (0, 0), BuildingBlock: OJICUG_clean_linker_0, # of connection points: 2
#     Edge 16, Type (0, 0), BuildingBlock: OJICUG_clean_linker_0, # of connection points: 2
#     Edge 17, Type (0, 0), BuildingBlock: OJICUG_clean_linker_0, # of connection points: 2
#     Edge 18, Type (0, 0), BuildingBlock: OJICUG_clean_linker_0, # of connection points: 2
#     Edge 19, Type (0, 0), BuildingBlock: OJICUG_clean_linker_0, # of connection points: 2
#     Edge 20, Type (0, 0), BuildingBlock: OJICUG_clean_linker_0, # of connection points: 2
#     Edge 21, Type (0, 0), BuildingBlock: OJICUG_clean_linker_0, # of connection points: 2
#     Edge 22, Type (0, 0), BuildingBlock: OJICUG_clean_linker_0, # of connection points: 2
#     Edge 23, Type (0, 0), BuildingBlock: OJICUG_clean_linker_0, # of connection points: 2
# Relax obj value: 0.252
# Max RMSD: 0.236
# Mean RMSD: 0.236
data_MOF--net-sml--node1-GEDQOX_clean_sbu_0--edge1-OJICUG_clean_linker_0
_symmetry_space_group_name_H-M    P1
_symmetry_Int_Tables_number       1
_symmetry_cell_setting            triclinic
loop_
_symmetry_equiv_pos_as_xyz
'x, y, z'
_cell_length_a     42.588708
_cell_length_b     42.593843
_cell_length_c     11.472243
_cell_angle_alpha  89.931565
_cell_angle_beta   89.96628
_cell_angle_gamma 119.74851
loop_
_atom_site_label
_atom_site_type_symbol
_atom_site_fract_x
_atom_site_fract_y
_atom_site_fract_z
_atom_type_partial_charge
Nd0 Nd 0.24505 0.41929 1.02536 0.0
Nd1 Nd 0.21198 0.47283 1.02229 0.0
C2 C 0.2795 0.38219 1.00854 0.0
C3 C 0.30374 0.37014 0.95784 0.0
C4 C 0.30194 0.36039 0.8399 0.0
C5 C 0.32092 0.34328 0.80002 0.0
C6 C 0.34154 0.33523 0.87778 0.0
C7 C 0.34456 0.34665 0.9942 0.0
C8 C 0.32596 0.36395 1.03355 0.0
C9 C 0.17197 0.38863 0.07043 0.0
C10 C 0.22944 0.44704 0.77604 0.0
C11 C 0.17064 0.50262 0.04063 0.0
C12 C 0.17476 0.53499 0.10201 0.0
C13 C 0.18955 0.54352 0.21467 0.0
C14 C 0.19715 0.57615 0.26711 0.0
C15 C 0.19057 0.60127 0.20775 0.0
C16 C 0.17431 0.59196 0.09695 0.0
C17 C 0.16652 0.55913 0.04463 0.0
C18 C 0.28698 0.51234 1.01864 0.0
C19 C 0.23436 0.45034 0.27108 0.0
O20 O 0.29292 0.41292 0.0651 0.0
O21 O 0.24816 0.37218 0.95923 0.0
O22 O 0.19272 0.37797 0.11782 0.0
O23 O 0.18935 0.41307 0.99601 0.0
O24 O 0.24936 0.43615 0.83311 0.0
O25 O 0.20822 0.45696 0.82994 0.0
O26 O 0.16654 0.47555 0.10614 0.0
O27 O 0.19267 0.50893 0.95269 0.0
O28 O 0.26655 0.52691 1.02122 0.0
O29 O 0.26714 0.47862 1.02282 0.0
O30 O 0.21364 0.46063 0.21629 0.0
O31 O 0.25358 0.4384 0.21521 0.0
H32 H 0.28485 0.36471 0.77973 0.0
H33 H 0.31795 0.33469 0.70994 0.0
H34 H 0.36053 0.34123 0.05595 0.0
H35 H 0.32765 0.37104 0.12493 0.0
H36 H 0.19631 0.5255 0.26106 0.0
H37 H 0.20916 0.58216 0.35316 0.0
H38 H 0.16924 0.61077 0.04816 0.0
H39 H 0.15526 0.55318 0.9575 0.0
Nd40 Nd 0.84181 0.23416 0.3594 0.0
Nd41 Nd 0.75573 0.2027 0.35506 0.0
C42 C 0.91312 0.26626 0.33868 0.0
C43 C 0.94726 0.2856 0.27037 0.0
C44 C 0.9676 0.32364 0.26768 0.0
C45 C 1.003 0.34139 0.22278 0.0
C46 C 1.01892 0.32143 0.18143 0.0
C47 C 0.99789 0.28352 0.17886 0.0
C48 C 0.9626 0.26587 0.22267 0.0
C49 C 0.79822 0.16164 0.40779 0.0
C50 C 0.79878 0.21814 0.10864 0.0
C51 C 0.68486 0.16221 0.37509 0.0
C52 C 0.657 0.16685 0.43732 0.0
C53 C 0.66388 0.18258 0.54865 0.0
C54 C 0.63912 0.19063 0.60153 0.0
C55 C 0.60709 0.18356 0.54387 0.0
C56 C 0.59959 0.16643 0.43441 0.0
C57 C 0.62434 0.1582 0.38169 0.0
C58 C 0.79178 0.27764 0.35149 0.0
C59 C 0.80059 0.22524 0.60409 0.0
O60 O 0.89633 0.28338 0.37401 0.0
O61 O 0.89122 0.23196 0.31662 0.0
O62 O 0.82879 0.18227 0.45922 0.0
O63 O 0.79214 0.17901 0.33024 0.0
O64 O 0.82973 0.23651 0.16543 0.0
O65 O 0.7674 0.19859 0.16252 0.0
O66 O 0.70772 0.15768 0.4398 0.0
O67 O 0.7005 0.18419 0.28705 0.0
O68 O 0.75687 0.25773 0.35357 0.0
O69 O 0.80532 0.25736 0.35596 0.0
O70 O 0.76968 0.20476 0.54927 0.0
O71 O 0.83172 0.24413 0.54824 0.0
H72 H 0.95682 0.33969 0.30503 0.0
H73 H 1.01858 0.37063 0.22645 0.0
H74 H 1.00922 0.26738 0.1464 0.0
H75 H 0.94799 0.23658 0.22428 0.0
H76 H 0.6889 0.18969 0.59356 0.0
H77 H 0.64557 0.20332 0.68655 0.0
H78 H 0.57544 0.16096 0.38686 0.0
H79 H 0.61856 0.14624 0.29555 0.0
Nd80 Nd 0.62185 0.83316 0.70136 0.0
Nd81 Nd 0.5673 0.74714 0.69869 0.0
C82 C 0.65973 0.90443 0.68505 0.0
C83 C 0.67135 0.94023 0.63174 0.0
C84 C 0.68201 0.94782 0.51427 0.0
C85 C 0.69873 0.98358 0.47262 0.0
C86 C 0.70547 1.01229 0.54815 0.0
C87 C 0.6931 1.00423 0.66386 0.0
C88 C 0.67619 0.96864 0.70495 0.0
C89 C 0.65108 0.78935 0.74692 0.0
C90 C 0.59366 0.79024 0.45213 0.0
C91 C 0.53652 0.67614 0.71605 0.0
C92 C 0.5038 0.64848 0.777 0.0
C93 C 0.49411 0.65576 0.88655 0.0
C94 C 0.46111 0.63121 0.93795 0.0
C95 C 0.4368 0.59897 0.88052 0.0
C96 C 0.44725 0.5911 0.77289 0.0
C97 C 0.48042 0.61567 0.72164 0.0
C98 C 0.52878 0.78388 0.69675 0.0
C99 C 0.59028 0.79173 0.9472 0.0
O100 O 0.62881 0.88749 0.74098 0.0
O101 O 0.6697 0.88284 0.6368 0.0
O102 O 0.6619 0.82045 0.79606 0.0
O103 O 0.62712 0.78321 0.67179 0.0
O104 O 0.60516 0.82106 0.50902 0.0
O105 O 0.58313 0.75906 0.50616 0.0
O106 O 0.56366 0.69849 0.7819 0.0
O107 O 0.5307 0.69234 0.62834 0.0
O108 O 0.51371 0.74896 0.69998 0.0
O109 O 0.56244 0.79708 0.6998 0.0
O110 O 0.57976 0.76075 0.89259 0.0
O111 O 0.60244 0.82282 0.89111 0.0
H112 H 0.67872 0.9264 0.45599 0.0
H113 H 0.70809 0.98897 0.38316 0.0
H114 H 0.69754 0.02568 0.72382 0.0
H115 H 0.66838 0.96354 0.79594 0.0
H116 H 0.51154 0.68094 0.93109 0.0
H117 H 0.45424 0.63794 1.02161 0.0
H118 H 0.42908 0.56679 0.72554 0.0
H119 H 0.48725 0.60961 0.63678 0.0
Nd120 Nd 0.80205 0.60983 1.03069 0.0
Nd121 Nd 0.83512 0.55636 1.02767 0.0
C122 C 0.76768 0.647 1.01419 0.0
C123 C 0.74364 0.65921 0.96327 0.0
C124 C 0.74578 0.66924 0.84542 0.0
C125 C 0.72711 0.68664 0.80546 0.0
C126 C 0.70647 0.69471 0.88309 0.0
C127 C 0.70307 0.68298 0.99936 0.0
C128 C 0.72135 0.66537 0.03878 0.0
C129 C 0.87508 0.64048 0.07542 0.0
C130 C 0.81776 0.58227 0.78136 0.0
C131 C 0.87641 0.52654 0.04614 0.0
C132 C 0.87195 0.49403 0.10759 0.0
C133 C 0.85614 0.48501 0.21894 0.0
C134 C 0.84812 0.45218 0.27107 0.0
C135 C 0.85529 0.42736 0.21261 0.0
C136 C 0.87254 0.43716 0.10319 0.0
C137 C 0.88074 0.47018 0.05121 0.0
C138 C 0.76013 0.51683 1.02389 0.0
C139 C 0.81266 0.57871 0.27648 0.0
O140 O 0.75407 0.61607 0.07001 0.0
O141 O 0.79916 0.65716 0.9654 0.0
O142 O 0.85428 0.65103 0.12311 0.0
O143 O 0.85776 0.61612 1.00101 0.0
O144 O 0.79784 0.59315 0.83844 0.0
O145 O 0.83897 0.57235 0.83525 0.0
O146 O 0.88045 0.55353 0.11168 0.0
O147 O 0.85455 0.52042 0.95795 0.0
O148 O 0.78056 0.50226 1.02651 0.0
O149 O 0.77997 0.55054 1.02827 0.0
O150 O 0.83339 0.56845 0.22166 0.0
O151 O 0.79342 0.59063 0.22061 0.0
H152 H 0.76294 0.66494 0.78546 0.0
H153 H 0.73035 0.69548 0.71551 0.0
H154 H 0.68708 0.68845 0.06092 0.0
H155 H 0.71941 0.65807 0.13009 0.0
H156 H 0.84891 0.5028 0.26443 0.0
H157 H 0.83534 0.44579 0.35607 0.0
H158 H 0.87809 0.41858 0.0551 0.0
H159 H 0.89276 0.4765 0.96503 0.0
Nd160 Nd 0.20531 0.7957 0.35912 0.0
Nd161 Nd 0.29088 0.82565 0.35451 0.0
C162 C 0.13408 0.76426 0.3383 0.0
C163 C 0.09991 0.7446 0.27082 0.0
C164 C 0.07978 0.70654 0.26909 0.0
C165 C 0.04434 0.68856 0.22488 0.0
C166 C 0.0282 0.7083 0.18333 0.0
C167 C 0.04903 0.74621 0.17973 0.0
C168 C 0.08435 0.7641 0.22286 0.0
C169 C 0.24943 0.8682 0.40689 0.0
C170 C 0.2482 0.81145 0.10838 0.0
C171 C 0.36201 0.86452 0.37424 0.0
C172 C 0.38908 0.85645 0.42501 0.0
C173 C 0.42233 0.88421 0.46673 0.0
C174 C 0.44707 0.87594 0.51998 0.0
C175 C 0.43869 0.83972 0.53312 0.0
C176 C 0.40555 0.8122 0.48922 0.0
C177 C 0.38107 0.82045 0.43639 0.0
C178 C 0.25387 0.75063 0.34896 0.0
C179 C 0.24608 0.80453 0.60377 0.0
O180 O 0.15048 0.74714 0.37725 0.0
O181 O 0.15632 0.79823 0.31251 0.0
O182 O 0.21833 0.84792 0.45616 0.0
O183 O 0.2556 0.85066 0.33033 0.0
O184 O 0.21725 0.79303 0.16536 0.0
O185 O 0.27955 0.83082 0.16228 0.0
O186 O 0.3397 0.86645 0.44878 0.0
O187 O 0.34566 0.84643 0.27989 0.0
O188 O 0.28876 0.7702 0.35051 0.0
O189 O 0.24072 0.77122 0.35427 0.0
O190 O 0.27695 0.82483 0.54834 0.0
O191 O 0.21497 0.78564 0.54827 0.0
H192 H 0.09074 0.69068 0.30662 0.0
H193 H 0.0289 0.65932 0.2293 0.0
H194 H 0.03752 0.76218 0.14708 0.0
H195 H 0.09883 0.79339 0.22379 0.0
H196 H 0.42897 0.9122 0.45926 0.0
H197 H 0.47232 0.89776 0.55292 0.0
H198 H 0.39849 0.78406 0.49511 0.0
H199 H 0.35572 0.79854 0.40491 0.0
Nd200 Nd 0.42737 0.19782 0.69409 0.0
Nd201 Nd 0.48189 0.28358 0.68889 0.0
C202 C 0.38812 0.12656 0.67392 0.0
C203 C 0.37322 0.09247 0.60553 0.0
C204 C 0.39029 0.07137 0.60495 0.0
C205 C 0.37243 0.03601 0.56019 0.0
C206 C 0.33696 0.02088 0.51686 0.0
C207 C 0.32077 0.04267 0.51206 0.0
C208 C 0.33862 0.07793 0.55574 0.0
C209 C 0.39866 0.24192 0.74192 0.0
C210 C 0.4543 0.24072 0.44283 0.0
C211 C 0.51237 0.35448 0.70889 0.0
C212 C 0.54474 0.38185 0.77163 0.0
C213 C 0.55378 0.37408 0.88153 0.0
C214 C 0.58645 0.39839 0.93479 0.0
C215 C 0.6111 0.43087 0.8789 0.0
C216 C 0.6013 0.43923 0.77089 0.0
C217 C 0.56844 0.41491 0.71779 0.0
C218 C 0.52065 0.2471 0.68537 0.0
C219 C 0.45962 0.23878 0.93839 0.0
O220 O 0.42194 0.14305 0.70868 0.0
O221 O 0.37583 0.14872 0.65225 0.0
O222 O 0.38875 0.21133 0.79379 0.0
O223 O 0.42198 0.24777 0.66429 0.0
O224 O 0.44166 0.20974 0.49996 0.0
O225 O 0.46622 0.27214 0.4964 0.0
O226 O 0.48494 0.33175 0.77333 0.0
O227 O 0.51866 0.33876 0.62088 0.0
O228 O 0.53554 0.28202 0.68727 0.0
O229 O 0.48693 0.2337 0.69009 0.0
O230 O 0.47008 0.26973 0.88322 0.0
O231 O 0.44733 0.20763 0.88284 0.0
H232 H 0.41673 0.08152 0.64394 0.0
H233 H 0.38555 0.01982 0.56559 0.0
H234 H 0.29363 0.03196 0.47805 0.0
H235 H 0.32442 0.09313 0.55563 0.0
H236 H 0.53609 0.3487 0.92495 0.0
H237 H 0.59283 0.39128 1.01868 0.0
H238 H 0.61974 0.46375 0.7247 0.0
H239 H 0.56211 0.42135 0.6327 0.0
C240 C 0.39138 0.29648 0.70539 0.0
C241 C 0.38525 0.26682 0.77538 0.0
H242 H 0.38201 0.34134 0.68204 0.0
C243 C 0.36527 0.26033 0.87875 0.0
H244 H 0.40671 0.30211 0.62521 0.0
C245 C 0.35162 0.28281 0.91169 0.0
C246 C 0.35722 0.31224 0.84157 0.0
H247 H 0.36009 0.23773 0.93463 0.0
H248 H 0.33602 0.2767 0.99145 0.0
C249 C 0.37716 0.3188 0.73764 0.0
C250 C 0.1116 0.38609 0.05027 0.0
C251 C 0.13284 0.37229 0.09708 0.0
H252 H 0.05879 0.38107 0.04101 0.0
C253 C 0.11639 0.34213 0.17143 0.0
H254 H 0.12354 0.40927 0.99249 0.0
C255 C 0.07957 0.32583 0.19765 0.0
C256 C 0.05815 0.33943 0.1513 0.0
H257 H 0.13197 0.33089 0.20933 0.0
H258 H 0.06791 0.30271 0.25576 0.0
C259 C 0.07461 0.37 0.07809 0.0
C260 C 0.77942 0.11067 0.54781 0.0
C261 C 0.77338 0.12364 0.44249 0.0
H262 H 0.76276 0.06567 0.66317 0.0
C263 C 0.74428 0.09987 0.37171 0.0
H264 H 0.80157 0.12831 0.60437 0.0
C265 C 0.7221 0.06356 0.40506 0.0
C266 C 0.72822 0.0507 0.51088 0.0
H267 H 0.73902 0.10919 0.29002 0.0
H268 H 0.70003 0.04564 0.34876 0.0
C269 C 0.75704 0.07478 0.58187 0.0
C270 C 0.68429 0.77063 0.88337 0.0
C271 C 0.66415 0.76421 0.78057 0.0
H272 H 0.71317 0.75372 0.99588 0.0
C273 C 0.6574 0.73429 0.71128 0.0
H274 H 0.68989 0.79341 0.93871 0.0
C275 C 0.67118 0.71161 0.74358 0.0
C276 C 0.69126 0.71807 0.84696 0.0
H277 H 0.64192 0.72872 0.63155 0.0
H278 H 0.6659 0.68888 0.68847 0.0
C279 C 0.69747 0.74775 0.91649 0.0
C280 C 0.96745 0.70353 0.201 0.0
C281 C 0.98895 0.6901 0.15417 0.0
H282 H 0.91496 0.69821 0.21369 0.0
C283 C 0.97254 0.65951 0.08137 0.0
H284 H 0.97908 0.72667 0.25883 0.0
C285 C 0.93552 0.64327 0.0543 0.0
C286 C 0.91421 0.65694 0.10148 0.0
H287 H 0.98844 0.64857 0.044 0.0
H288 H 0.9236 0.62008 0.9968 0.0
C289 C 0.9306 0.68709 0.17552 0.0
C290 C 0.28021 0.96103 0.53241 0.0
C291 C 0.31536 0.98171 0.48721 0.0
H292 H 0.23236 0.9093 0.54336 0.0
C293 C 0.3292 0.96455 0.41569 0.0
H294 H 0.26894 0.97322 0.58931 0.0
C295 C 0.3079 0.92763 0.38817 0.0
C296 C 0.2727 0.90718 0.43355 0.0
H297 H 0.35621 0.97978 0.37971 0.0
H298 H 0.31897 0.91511 0.33192 0.0
C299 C 0.25929 0.92429 0.50651 0.0
C300 C 0.25253 0.43696 0.58614 0.0
C301 C 0.23122 0.44835 0.64689 0.0
H302 H 0.27043 0.42876 0.42032 0.0
C303 C 0.21182 0.46126 0.58292 0.0
H304 H 0.26793 0.42694 0.63253 0.0
C305 C 0.21339 0.46242 0.46128 0.0
C306 C 0.23435 0.45066 0.40035 0.0
H307 H 0.19528 0.47042 0.62661 0.0
H308 H 0.19783 0.47232 0.41515 0.0
C309 C 0.25406 0.43808 0.46427 0.0
C310 C 0.76706 0.20203 0.91558 0.0
C311 C 0.79933 0.2202 0.97954 0.0
H312 H 0.74208 0.18966 0.74792 0.0
C313 C 0.83205 0.241 0.91896 0.0
H314 H 0.74134 0.18594 0.95914 0.0
C315 C 0.8325 0.24327 0.79724 0.0
C316 C 0.80023 0.2248 0.73332 0.0
H317 H 0.85744 0.25553 0.96535 0.0
H318 H 0.8582 0.2592 0.75339 0.0
C319 C 0.7675 0.2043 0.79408 0.0
C320 C 0.57918 0.75844 0.25932 0.0
C321 C 0.59236 0.7907 0.32299 0.0
H322 H 0.5679 0.73339 0.0918 0.0
C323 C 0.60401 0.82333 0.26194 0.0
H324 H 0.56981 0.73278 0.30323 0.0
C325 C 0.60286 0.82371 0.14007 0.0
C326 C 0.59001 0.79146 0.07647 0.0
H327 H 0.61423 0.84871 0.30809 0.0
H328 H 0.61238 0.84935 0.09588 0.0
C329 C 0.578 0.75881 0.13769 0.0
C330 C 0.79461 0.59226 0.59147 0.0
C331 C 0.81596 0.58092 0.65224 0.0
H332 H 0.77662 0.60034 0.42564 0.0
C333 C 0.83533 0.56797 0.58833 0.0
H334 H 0.77923 0.6023 0.63781 0.0
C335 C 0.8337 0.56672 0.46671 0.0
C336 C 0.8127 0.57843 0.40576 0.0
H337 H 0.85189 0.55884 0.63204 0.0
H338 H 0.84923 0.5568 0.42063 0.0
C339 C 0.79302 0.59105 0.46962 0.0
C340 C 0.21429 0.78661 0.79743 0.0
C341 C 0.2465 0.80513 0.73301 0.0
H342 H 0.18947 0.77422 0.96592 0.0
C343 C 0.27927 0.82564 0.79328 0.0
H344 H 0.18857 0.77065 0.75399 0.0
C345 C 0.27981 0.82783 0.91481 0.0
C346 C 0.24759 0.80957 0.97927 0.0
H347 H 0.30466 0.84032 0.7467 0.0
H348 H 0.30555 0.84391 0.95802 0.0
C349 C 0.21483 0.7888 0.91915 0.0
C350 C 0.47002 0.27242 0.24945 0.0
C351 C 0.45581 0.24013 0.31377 0.0
H352 H 0.48274 0.29739 0.08153 0.0
C353 C 0.44378 0.20735 0.25356 0.0
H354 H 0.47973 0.29819 0.29273 0.0
C355 C 0.44562 0.20687 0.13186 0.0
C356 C 0.45953 0.23915 0.0676 0.0
H357 H 0.43282 0.18194 0.30024 0.0
H358 H 0.43576 0.18112 0.08831 0.0
C359 C 0.47187 0.27194 0.12798 0.0
C360 C 0.2386 0.65649 0.30764 0.0
C361 C 0.20418 0.63833 0.25593 0.0
H362 H 0.28072 0.70585 0.37827 0.0
C363 C 0.18454 0.65681 0.24439 0.0
H364 H 0.25482 0.64349 0.31638 0.0
C365 C 0.19958 0.69297 0.2806 0.0
C366 C 0.23463 0.71124 0.32759 0.0
H367 H 0.15786 0.64353 0.20558 0.0
H368 H 0.18452 0.70701 0.26723 0.0
C369 C 0.25359 0.69241 0.34267 0.0
C370 C 0.54568 0.17757 0.58276 0.0
C371 C 0.58369 0.19737 0.59227 0.0
H372 H 0.49546 0.17747 0.60705 0.0
C373 C 0.5998 0.23206 0.64205 0.0
H374 H 0.53237 0.15068 0.54557 0.0
C375 C 0.5788 0.24713 0.67713 0.0
C376 C 0.54108 0.22798 0.66399 0.0
H377 H 0.62892 0.2484 0.64922 0.0
H378 H 0.59234 0.27444 0.71123 0.0
C379 C 0.5245 0.1927 0.61891 0.0
C380 C 0.34557 0.51643 0.95494 0.0
C381 C 0.32639 0.53301 0.99711 0.0
H382 H 0.39582 0.52428 0.88503 0.0
C383 C 0.34437 0.57079 1.00793 0.0
H384 H 0.33223 0.48733 0.94502 0.0
C385 C 0.38039 0.59181 0.97372 0.0
C386 C 0.3995 0.57565 0.92721 0.0
H387 H 0.33022 0.58433 0.03974 0.0
H388 H 0.39276 0.62094 0.97922 0.0
C389 C 0.38182 0.53761 0.9197 0.0
C390 C 0.79151 0.33563 0.34359 0.0
C391 C 0.8108 0.31706 0.33045 0.0
H392 H 0.79018 0.38448 0.31636 0.0
C393 C 0.84619 0.33566 0.28597 0.0
H394 H 0.76411 0.32192 0.37724 0.0
C395 C 0.86133 0.37191 0.25047 0.0
C396 C 0.84142 0.39015 0.2601 0.0
H397 H 0.86152 0.32184 0.27413 0.0
H398 H 0.88832 0.38545 0.21375 0.0
C399 C 0.80659 0.37165 0.30918 0.0
C400 C 0.50131 0.84864 0.56858 0.0
C401 C 0.46386 0.82985 0.59169 0.0
H402 H 0.55186 0.84902 0.5857 0.0
C403 C 0.44979 0.79925 0.66448 0.0
H404 H 0.51302 0.87231 0.51285 0.0
C405 C 0.47178 0.78588 0.70456 0.0
C406 C 0.50855 0.8031 0.6749 0.0
H407 H 0.42133 0.78471 0.68697 0.0
H408 H 0.45962 0.7611 0.75513 0.0
C409 C 0.52357 0.8354 0.61032 0.0
C410 C 0.70277 0.45846 1.01077 0.0
C411 C 0.72083 0.49628 1.001 0.0
H412 H 0.65452 0.40844 0.97948 0.0
C413 C 0.70188 0.51305 0.95823 0.0
H414 H 0.71674 0.44478 0.04299 0.0
C415 C 0.66584 0.49203 0.92128 0.0
C416 C 0.64811 0.45397 0.92761 0.0
H417 H 0.7153 0.54218 0.94909 0.0
H418 H 0.65204 0.50552 0.88613 0.0
C419 C 0.66693 0.4376 0.97483 0.0
loop_
_geom_bond_atom_site_label_1
_geom_bond_atom_site_label_2
_geom_bond_distance
_geom_bond_site_symmetry_2
_ccdc_geom_bond_type
Nd0 C2 2.836 1_554 S
Nd0 O20 2.500 1_554 S
Nd0 O21 2.492 1_554 S
Nd0 O22 2.487 . S
Nd0 O23 2.682 . S
Nd0 O24 2.410 1_554 S
Nd0 O29 2.414 1_554 S
Nd0 O31 2.424 . S
Nd1 C11 2.836 1_556 S
Nd1 O23 2.414 1_556 S
Nd1 O25 2.424 . S
Nd1 O26 2.500 1_556 S
Nd1 O27 2.492 1_556 S
Nd1 O28 2.487 . S
Nd1 O29 2.682 . S
Nd1 O30 2.410 1_556 S
C2 Nd0 2.836 1_556 S
C2 C3 1.498 . S
C2 O20 1.258 . S
C2 O21 1.239 . S
C3 C2 1.498 . S
C3 C4 1.366 . S
C3 C8 1.407 . S
C4 C3 1.366 . S
C4 C5 1.392 . S
C4 H32 0.930 . S
C5 C4 1.392 . S
C5 C6 1.398 . S
C5 H33 0.929 . S
C6 C5 1.398 . S
C6 C7 1.352 . S
C7 C6 1.352 . S
C7 C8 1.384 . S
C7 H34 0.930 . S
C8 C3 1.407 . S
C8 C7 1.384 . S
C8 H35 0.929 . S
C9 O22 1.241 . S
C9 O23 1.273 . S
C10 O24 1.251 . S
C10 O25 1.268 . S
C11 Nd1 2.836 1_554 S
C11 C12 1.498 . S
C11 O26 1.258 . S
C11 O27 1.239 . S
C12 C11 1.498 . S
C12 C13 1.366 . S
C12 C17 1.407 . S
C13 C12 1.366 . S
C13 C14 1.392 . S
C13 H36 0.930 . S
C14 C13 1.392 . S
C14 C15 1.398 . S
C14 H37 0.929 . S
C15 C14 1.398 . S
C15 C16 1.352 . S
C16 C15 1.352 . S
C16 C17 1.384 . S
C16 H38 0.930 . S
C17 C12 1.407 . S
C17 C16 1.384 . S
C17 H39 0.929 . S
C18 O28 1.241 . S
C18 O29 1.273 . S
C19 O30 1.251 . S
C19 O31 1.268 . S
O20 Nd0 2.500 1_556 S
O20 C2 1.258 . S
O21 Nd0 2.492 1_556 S
O21 C2 1.239 . S
O22 Nd0 2.487 . S
O22 C9 1.241 . S
O23 Nd0 2.682 . S
O23 Nd1 2.414 1_554 S
O23 C9 1.273 . S
O24 Nd0 2.410 1_556 S
O24 C10 1.251 . S
O25 Nd1 2.424 . S
O25 C10 1.268 . S
O26 Nd1 2.500 1_554 S
O26 C11 1.258 . S
O27 Nd1 2.492 1_554 S
O27 C11 1.239 . S
O28 Nd1 2.487 . S
O28 C18 1.241 . S
O29 Nd0 2.414 1_556 S
O29 Nd1 2.682 . S
O29 C18 1.273 . S
O30 Nd1 2.410 1_554 S
O30 C19 1.251 . S
O31 Nd0 2.424 . S
O31 C19 1.268 . S
H32 C4 0.930 . S
H33 C5 0.929 . S
H34 C7 0.930 . S
H35 C8 0.929 . S
H36 C13 0.930 . S
H37 C14 0.929 . S
H38 C16 0.930 . S
H39 C17 0.929 . S
Nd40 C42 2.836 . S
Nd40 O60 2.500 . S
Nd40 O61 2.492 . S
Nd40 O62 2.487 . S
Nd40 O63 2.682 . S
Nd40 O64 2.410 . S
Nd40 O69 2.414 . S
Nd40 O71 2.424 . S
Nd41 C51 2.836 . S
Nd41 O63 2.414 . S
Nd41 O65 2.424 . S
Nd41 O66 2.500 . S
Nd41 O67 2.492 . S
Nd41 O68 2.487 . S
Nd41 O69 2.682 . S
Nd41 O70 2.410 . S
C42 Nd40 2.836 . S
C42 C43 1.498 . S
C42 O60 1.258 . S
C42 O61 1.239 . S
C43 C42 1.498 . S
C43 C44 1.366 . S
C43 C48 1.407 . S
C44 C43 1.366 . S
C44 C45 1.392 . S
C44 H72 0.930 . S
C45 C44 1.392 . S
C45 C46 1.398 . S
C45 H73 0.929 1_554 S
C46 C45 1.398 . S
C46 C47 1.352 . S
C47 C46 1.352 . S
C47 C48 1.384 . S
C47 H74 0.930 . S
C48 C43 1.407 . S
C48 C47 1.384 . S
C48 H75 0.929 . S
C49 O62 1.241 . S
C49 O63 1.273 . S
C50 O64 1.251 . S
C50 O65 1.268 . S
C51 Nd41 2.836 . S
C51 C52 1.498 . S
C51 O66 1.258 . S
C51 O67 1.239 . S
C52 C51 1.498 . S
C52 C53 1.366 . S
C52 C57 1.407 . S
C53 C52 1.366 . S
C53 C54 1.392 . S
C53 H76 0.930 . S
C54 C53 1.392 . S
C54 C55 1.398 . S
C54 H77 0.929 . S
C55 C54 1.398 . S
C55 C56 1.352 . S
C56 C55 1.352 . S
C56 C57 1.384 . S
C56 H78 0.930 . S
C57 C52 1.407 . S
C57 C56 1.384 . S
C57 H79 0.929 . S
C58 O68 1.241 . S
C58 O69 1.273 . S
C59 O70 1.251 . S
C59 O71 1.268 . S
O60 Nd40 2.500 . S
O60 C42 1.258 . S
O61 Nd40 2.492 . S
O61 C42 1.239 . S
O62 Nd40 2.487 . S
O62 C49 1.241 . S
O63 Nd40 2.682 . S
O63 Nd41 2.414 . S
O63 C49 1.273 . S
O64 Nd40 2.410 . S
O64 C50 1.251 . S
O65 Nd41 2.424 . S
O65 C50 1.268 . S
O66 Nd41 2.500 . S
O66 C51 1.258 . S
O67 Nd41 2.492 . S
O67 C51 1.239 . S
O68 Nd41 2.487 . S
O68 C58 1.241 . S
O69 Nd40 2.414 . S
O69 Nd41 2.682 . S
O69 C58 1.273 . S
O70 Nd41 2.410 . S
O70 C59 1.251 . S
O71 Nd40 2.424 . S
O71 C59 1.268 . S
H72 C44 0.930 . S
H73 C45 0.929 1_556 S
H74 C47 0.930 . S
H75 C48 0.929 . S
H76 C53 0.930 . S
H77 C54 0.929 . S
H78 C56 0.930 . S
H79 C57 0.929 . S
Nd80 C82 2.836 . S
Nd80 O100 2.500 . S
Nd80 O101 2.492 . S
Nd80 O102 2.487 . S
Nd80 O103 2.682 . S
Nd80 O104 2.410 . S
Nd80 O109 2.414 . S
Nd80 O111 2.424 . S
Nd81 C91 2.836 . S
Nd81 O103 2.414 . S
Nd81 O105 2.424 . S
Nd81 O106 2.500 . S
Nd81 O107 2.492 . S
Nd81 O108 2.487 . S
Nd81 O109 2.682 . S
Nd81 O110 2.410 . S
C82 Nd80 2.836 . S
C82 C83 1.498 . S
C82 O100 1.258 . S
C82 O101 1.239 . S
C83 C82 1.498 . S
C83 C84 1.366 . S
C83 C88 1.407 . S
C84 C83 1.366 . S
C84 C85 1.392 . S
C84 H112 0.930 . S
C85 C84 1.392 . S
C85 C86 1.398 . S
C85 H113 0.929 . S
C86 C85 1.398 . S
C86 C87 1.352 . S
C87 C86 1.352 . S
C87 C88 1.384 . S
C87 H114 0.930 . S
C88 C83 1.407 . S
C88 C87 1.384 . S
C88 H115 0.929 . S
C89 O102 1.241 . S
C89 O103 1.273 . S
C90 O104 1.251 . S
C90 O105 1.268 . S
C91 Nd81 2.836 . S
C91 C92 1.498 . S
C91 O106 1.258 . S
C91 O107 1.239 . S
C92 C91 1.498 . S
C92 C93 1.366 . S
C92 C97 1.407 . S
C93 C92 1.366 . S
C93 C94 1.392 . S
C93 H116 0.930 . S
C94 C93 1.392 . S
C94 C95 1.398 . S
C94 H117 0.929 1_556 S
C95 C94 1.398 . S
C95 C96 1.352 . S
C96 C95 1.352 . S
C96 C97 1.384 . S
C96 H118 0.930 . S
C97 C92 1.407 . S
C97 C96 1.384 . S
C97 H119 0.929 . S
C98 O108 1.241 . S
C98 O109 1.273 . S
C99 O110 1.251 . S
C99 O111 1.268 . S
O100 Nd80 2.500 . S
O100 C82 1.258 . S
O101 Nd80 2.492 . S
O101 C82 1.239 . S
O102 Nd80 2.487 . S
O102 C89 1.241 . S
O103 Nd80 2.682 . S
O103 Nd81 2.414 . S
O103 C89 1.273 . S
O104 Nd80 2.410 . S
O104 C90 1.251 . S
O105 Nd81 2.424 . S
O105 C90 1.268 . S
O106 Nd81 2.500 . S
O106 C91 1.258 . S
O107 Nd81 2.492 . S
O107 C91 1.239 . S
O108 Nd81 2.487 . S
O108 C98 1.241 . S
O109 Nd80 2.414 . S
O109 Nd81 2.682 . S
O109 C98 1.273 . S
O110 Nd81 2.410 . S
O110 C99 1.251 . S
O111 Nd80 2.424 . S
O111 C99 1.268 . S
H112 C84 0.930 . S
H113 C85 0.929 . S
H114 C87 0.930 . S
H115 C88 0.929 . S
H116 C93 0.930 . S
H117 C94 0.929 1_554 S
H118 C96 0.930 . S
H119 C97 0.929 . S
Nd120 C122 2.836 1_554 S
Nd120 O140 2.500 1_554 S
Nd120 O141 2.492 1_554 S
Nd120 O142 2.487 . S
Nd120 O143 2.682 . S
Nd120 O144 2.410 1_554 S
Nd120 O149 2.414 1_554 S
Nd120 O151 2.424 . S
Nd121 C131 2.836 1_556 S
Nd121 O143 2.414 1_556 S
Nd121 O145 2.424 . S
Nd121 O146 2.500 1_556 S
Nd121 O147 2.492 1_556 S
Nd121 O148 2.487 . S
Nd121 O149 2.682 . S
Nd121 O150 2.410 1_556 S
C122 Nd120 2.836 1_556 S
C122 C123 1.498 . S
C122 O140 1.258 . S
C122 O141 1.239 . S
C123 C122 1.498 . S
C123 C124 1.366 . S
C123 C128 1.407 . S
C124 C123 1.366 . S
C124 C125 1.392 . S
C124 H152 0.930 . S
C125 C124 1.392 . S
C125 C126 1.398 . S
C125 H153 0.929 . S
C126 C125 1.398 . S
C126 C127 1.352 . S
C127 C126 1.352 . S
C127 C128 1.384 . S
C127 H154 0.930 . S
C128 C123 1.407 . S
C128 C127 1.384 . S
C128 H155 0.929 . S
C129 O142 1.241 . S
C129 O143 1.273 . S
C130 O144 1.251 . S
C130 O145 1.268 . S
C131 Nd121 2.836 1_554 S
C131 C132 1.498 . S
C131 O146 1.258 . S
C131 O147 1.239 . S
C132 C131 1.498 . S
C132 C133 1.366 . S
C132 C137 1.407 . S
C133 C132 1.366 . S
C133 C134 1.392 . S
C133 H156 0.930 . S
C134 C133 1.392 . S
C134 C135 1.398 . S
C134 H157 0.929 . S
C135 C134 1.398 . S
C135 C136 1.352 . S
C136 C135 1.352 . S
C136 C137 1.384 . S
C136 H158 0.930 . S
C137 C132 1.407 . S
C137 C136 1.384 . S
C137 H159 0.929 . S
C138 O148 1.241 . S
C138 O149 1.273 . S
C139 O150 1.251 . S
C139 O151 1.268 . S
O140 Nd120 2.500 1_556 S
O140 C122 1.258 . S
O141 Nd120 2.492 1_556 S
O141 C122 1.239 . S
O142 Nd120 2.487 . S
O142 C129 1.241 . S
O143 Nd120 2.682 . S
O143 Nd121 2.414 1_554 S
O143 C129 1.273 . S
O144 Nd120 2.410 1_556 S
O144 C130 1.251 . S
O145 Nd121 2.424 . S
O145 C130 1.268 . S
O146 Nd121 2.500 1_554 S
O146 C131 1.258 . S
O147 Nd121 2.492 1_554 S
O147 C131 1.239 . S
O148 Nd121 2.487 . S
O148 C138 1.241 . S
O149 Nd120 2.414 1_556 S
O149 Nd121 2.682 . S
O149 C138 1.273 . S
O150 Nd121 2.410 1_554 S
O150 C139 1.251 . S
O151 Nd120 2.424 . S
O151 C139 1.268 . S
H152 C124 0.930 . S
H153 C125 0.929 . S
H154 C127 0.930 . S
H155 C128 0.929 . S
H156 C133 0.930 . S
H157 C134 0.929 . S
H158 C136 0.930 . S
H159 C137 0.929 . S
Nd160 C162 2.836 . S
Nd160 O180 2.500 . S
Nd160 O181 2.492 . S
Nd160 O182 2.487 . S
Nd160 O183 2.682 . S
Nd160 O184 2.410 . S
Nd160 O189 2.414 . S
Nd160 O191 2.424 . S
Nd161 C171 2.836 . S
Nd161 O183 2.414 . S
Nd161 O185 2.424 . S
Nd161 O186 2.500 . S
Nd161 O187 2.492 . S
Nd161 O188 2.487 . S
Nd161 O189 2.682 . S
Nd161 O190 2.410 . S
C162 Nd160 2.836 . S
C162 C163 1.498 . S
C162 O180 1.258 . S
C162 O181 1.239 . S
C163 C162 1.498 . S
C163 C164 1.366 . S
C163 C168 1.407 . S
C164 C163 1.366 . S
C164 C165 1.392 . S
C164 H192 0.930 . S
C165 C164 1.392 . S
C165 C166 1.398 . S
C165 H193 0.929 1_554 S
C166 C165 1.398 . S
C166 C167 1.352 . S
C167 C166 1.352 . S
C167 C168 1.384 . S
C167 H194 0.930 . S
C168 C163 1.407 . S
C168 C167 1.384 . S
C168 H195 0.929 . S
C169 O182 1.241 . S
C169 O183 1.273 . S
C170 O184 1.251 . S
C170 O185 1.268 . S
C171 Nd161 2.836 . S
C171 C172 1.498 . S
C171 O186 1.258 . S
C171 O187 1.239 . S
C172 C171 1.498 . S
C172 C173 1.366 . S
C172 C177 1.407 . S
C173 C172 1.366 . S
C173 C174 1.392 . S
C173 H196 0.930 . S
C174 C173 1.392 . S
C174 C175 1.398 . S
C174 H197 0.929 . S
C175 C174 1.398 . S
C175 C176 1.352 . S
C176 C175 1.352 . S
C176 C177 1.384 . S
C176 H198 0.930 . S
C177 C172 1.407 . S
C177 C176 1.384 . S
C177 H199 0.929 . S
C178 O188 1.241 . S
C178 O189 1.273 . S
C179 O190 1.251 . S
C179 O191 1.268 . S
O180 Nd160 2.500 . S
O180 C162 1.258 . S
O181 Nd160 2.492 . S
O181 C162 1.239 . S
O182 Nd160 2.487 . S
O182 C169 1.241 . S
O183 Nd160 2.682 . S
O183 Nd161 2.414 . S
O183 C169 1.273 . S
O184 Nd160 2.410 . S
O184 C170 1.251 . S
O185 Nd161 2.424 . S
O185 C170 1.268 . S
O186 Nd161 2.500 . S
O186 C171 1.258 . S
O187 Nd161 2.492 . S
O187 C171 1.239 . S
O188 Nd161 2.487 . S
O188 C178 1.241 . S
O189 Nd160 2.414 . S
O189 Nd161 2.682 . S
O189 C178 1.273 . S
O190 Nd161 2.410 . S
O190 C179 1.251 . S
O191 Nd160 2.424 . S
O191 C179 1.268 . S
H192 C164 0.930 . S
H193 C165 0.929 1_556 S
H194 C167 0.930 . S
H195 C168 0.929 . S
H196 C173 0.930 . S
H197 C174 0.929 . S
H198 C176 0.930 . S
H199 C177 0.929 . S
Nd200 C202 2.836 . S
Nd200 O220 2.500 . S
Nd200 O221 2.492 . S
Nd200 O222 2.487 . S
Nd200 O223 2.682 . S
Nd200 O224 2.410 . S
Nd200 O229 2.414 . S
Nd200 O231 2.424 . S
Nd201 C211 2.836 . S
Nd201 O223 2.414 . S
Nd201 O225 2.424 . S
Nd201 O226 2.500 . S
Nd201 O227 2.492 . S
Nd201 O228 2.487 . S
Nd201 O229 2.682 . S
Nd201 O230 2.410 . S
C202 Nd200 2.836 . S
C202 C203 1.498 . S
C202 O220 1.258 . S
C202 O221 1.239 . S
C203 C202 1.498 . S
C203 C204 1.366 . S
C203 C208 1.407 . S
C204 C203 1.366 . S
C204 C205 1.392 . S
C204 H232 0.930 . S
C205 C204 1.392 . S
C205 C206 1.398 . S
C205 H233 0.929 . S
C206 C205 1.398 . S
C206 C207 1.352 . S
C207 C206 1.352 . S
C207 C208 1.384 . S
C207 H234 0.930 . S
C208 C203 1.407 . S
C208 C207 1.384 . S
C208 H235 0.929 . S
C209 O222 1.241 . S
C209 O223 1.273 . S
C210 O224 1.251 . S
C210 O225 1.268 . S
C211 Nd201 2.836 . S
C211 C212 1.498 . S
C211 O226 1.258 . S
C211 O227 1.239 . S
C212 C211 1.498 . S
C212 C213 1.366 . S
C212 C217 1.407 . S
C213 C212 1.366 . S
C213 C214 1.392 . S
C213 H236 0.930 . S
C214 C213 1.392 . S
C214 C215 1.398 . S
C214 H237 0.929 1_556 S
C215 C214 1.398 . S
C215 C216 1.352 . S
C216 C215 1.352 . S
C216 C217 1.384 . S
C216 H238 0.930 . S
C217 C212 1.407 . S
C217 C216 1.384 . S
C217 H239 0.929 . S
C218 O228 1.241 . S
C218 O229 1.273 . S
C219 O230 1.251 . S
C219 O231 1.268 . S
O220 Nd200 2.500 . S
O220 C202 1.258 . S
O221 Nd200 2.492 . S
O221 C202 1.239 . S
O222 Nd200 2.487 . S
O222 C209 1.241 . S
O223 Nd200 2.682 . S
O223 Nd201 2.414 . S
O223 C209 1.273 . S
O224 Nd200 2.410 . S
O224 C210 1.251 . S
O225 Nd201 2.424 . S
O225 C210 1.268 . S
O226 Nd201 2.500 . S
O226 C211 1.258 . S
O227 Nd201 2.492 . S
O227 C211 1.239 . S
O228 Nd201 2.487 . S
O228 C218 1.241 . S
O229 Nd200 2.414 . S
O229 Nd201 2.682 . S
O229 C218 1.273 . S
O230 Nd201 2.410 . S
O230 C219 1.251 . S
O231 Nd200 2.424 . S
O231 C219 1.268 . S
H232 C204 0.930 . S
H233 C205 0.929 . S
H234 C207 0.930 . S
H235 C208 0.929 . S
H236 C213 0.930 . S
H237 C214 0.929 1_554 S
H238 C216 0.930 . S
H239 C217 0.929 . S
C240 C241 1.387 . S
C240 H244 0.950 . S
C240 C249 1.390 . S
C241 C240 1.387 . S
C241 C243 1.387 . S
H242 C249 0.950 . S
C243 C241 1.387 . S
C243 C245 1.390 . S
C243 H247 0.950 . S
H244 C240 0.950 . S
C245 C243 1.390 . S
C245 C246 1.387 . S
C245 H248 0.950 . S
C246 C245 1.387 . S
C246 C249 1.387 . S
H247 C243 0.950 . S
H248 C245 0.950 . S
C249 C240 1.390 . S
C249 H242 0.950 . S
C249 C246 1.387 . S
C250 C251 1.387 1_556 S
C250 H254 0.950 . S
C250 C259 1.390 . S
C251 C250 1.387 1_554 S
C251 C253 1.387 . S
H252 C259 0.950 . S
C253 C251 1.387 . S
C253 C255 1.390 . S
C253 H257 0.950 . S
H254 C250 0.950 . S
C255 C253 1.390 . S
C255 C256 1.387 . S
C255 H258 0.950 . S
C256 C255 1.387 . S
C256 C259 1.387 1_554 S
H257 C253 0.950 . S
H258 C255 0.950 . S
C259 C250 1.390 . S
C259 H252 0.950 . S
C259 C256 1.387 1_556 S
C260 C261 1.387 . S
C260 H264 0.950 . S
C260 C269 1.390 . S
C261 C260 1.387 . S
C261 C263 1.387 . S
H262 C269 0.950 . S
C263 C261 1.387 . S
C263 C265 1.390 . S
C263 H267 0.950 . S
H264 C260 0.950 . S
C265 C263 1.390 . S
C265 C266 1.387 . S
C265 H268 0.950 . S
C266 C265 1.387 . S
C266 C269 1.387 . S
H267 C263 0.950 . S
H268 C265 0.950 . S
C269 C260 1.390 . S
C269 H262 0.950 . S
C269 C266 1.387 . S
C270 C271 1.387 . S
C270 H274 0.950 . S
C270 C279 1.390 . S
C271 C270 1.387 . S
C271 C273 1.387 . S
H272 C279 0.950 . S
C273 C271 1.387 . S
C273 C275 1.390 . S
C273 H277 0.950 . S
H274 C270 0.950 . S
C275 C273 1.390 . S
C275 C276 1.387 . S
C275 H278 0.950 . S
C276 C275 1.387 . S
C276 C279 1.387 . S
H277 C273 0.950 . S
H278 C275 0.950 . S
C279 C270 1.390 . S
C279 H272 0.950 . S
C279 C276 1.387 . S
C280 C281 1.387 . S
C280 H284 0.950 . S
C280 C289 1.390 . S
C281 C280 1.387 . S
C281 C283 1.387 1_554 S
H282 C289 0.950 . S
C283 C281 1.387 1_556 S
C283 C285 1.390 . S
C283 H287 0.950 . S
H284 C280 0.950 . S
C285 C283 1.390 . S
C285 C286 1.387 1_556 S
C285 H288 0.950 . S
C286 C285 1.387 1_554 S
C286 C289 1.387 . S
H287 C283 0.950 . S
H288 C285 0.950 . S
C289 C280 1.390 . S
C289 H282 0.950 . S
C289 C286 1.387 . S
C290 C291 1.387 . S
C290 H294 0.950 . S
C290 C299 1.390 . S
C291 C290 1.387 . S
C291 C293 1.387 . S
H292 C299 0.950 . S
C293 C291 1.387 . S
C293 C295 1.390 . S
C293 H297 0.950 . S
H294 C290 0.950 . S
C295 C293 1.390 . S
C295 C296 1.387 . S
C295 H298 0.950 . S
C296 C295 1.387 . S
C296 C299 1.387 . S
H297 C293 0.950 . S
H298 C295 0.950 . S
C299 C290 1.390 . S
C299 H292 0.950 . S
C299 C296 1.387 . S
C300 C301 1.387 . S
C300 H304 0.950 . S
C300 C309 1.390 . S
C301 C300 1.387 . S
C301 C303 1.387 . S
H302 C309 0.950 . S
C303 C301 1.387 . S
C303 C305 1.390 . S
C303 H307 0.950 . S
H304 C300 0.950 . S
C305 C303 1.390 . S
C305 C306 1.387 . S
C305 H308 0.950 . S
C306 C305 1.387 . S
C306 C309 1.387 . S
H307 C303 0.950 . S
H308 C305 0.950 . S
C309 C300 1.390 . S
C309 H302 0.950 . S
C309 C306 1.387 . S
C310 C311 1.387 . S
C310 H314 0.950 . S
C310 C319 1.390 . S
C311 C310 1.387 . S
C311 C313 1.387 . S
H312 C319 0.950 . S
C313 C311 1.387 . S
C313 C315 1.390 . S
C313 H317 0.950 . S
H314 C310 0.950 . S
C315 C313 1.390 . S
C315 C316 1.387 . S
C315 H318 0.950 . S
C316 C315 1.387 . S
C316 C319 1.387 . S
H317 C313 0.950 . S
H318 C315 0.950 . S
C319 C310 1.390 . S
C319 H312 0.950 . S
C319 C316 1.387 . S
C320 C321 1.387 . S
C320 H324 0.950 . S
C320 C329 1.390 . S
C321 C320 1.387 . S
C321 C323 1.387 . S
H322 C329 0.950 . S
C323 C321 1.387 . S
C323 C325 1.390 . S
C323 H327 0.950 . S
H324 C320 0.950 . S
C325 C323 1.390 . S
C325 C326 1.387 . S
C325 H328 0.950 . S
C326 C325 1.387 . S
C326 C329 1.387 . S
H327 C323 0.950 . S
H328 C325 0.950 . S
C329 C320 1.390 . S
C329 H322 0.950 . S
C329 C326 1.387 . S
C330 C331 1.387 . S
C330 H334 0.950 . S
C330 C339 1.390 . S
C331 C330 1.387 . S
C331 C333 1.387 . S
H332 C339 0.950 . S
C333 C331 1.387 . S
C333 C335 1.390 . S
C333 H337 0.950 . S
H334 C330 0.950 . S
C335 C333 1.390 . S
C335 C336 1.387 . S
C335 H338 0.950 . S
C336 C335 1.387 . S
C336 C339 1.387 . S
H337 C333 0.950 . S
H338 C335 0.950 . S
C339 C330 1.390 . S
C339 H332 0.950 . S
C339 C336 1.387 . S
C340 C341 1.387 . S
C340 H344 0.950 . S
C340 C349 1.390 . S
C341 C340 1.387 . S
C341 C343 1.387 . S
H342 C349 0.950 . S
C343 C341 1.387 . S
C343 C345 1.390 . S
C343 H347 0.950 . S
H344 C340 0.950 . S
C345 C343 1.390 . S
C345 C346 1.387 . S
C345 H348 0.950 . S
C346 C345 1.387 . S
C346 C349 1.387 . S
H347 C343 0.950 . S
H348 C345 0.950 . S
C349 C340 1.390 . S
C349 H342 0.950 . S
C349 C346 1.387 . S
C350 C351 1.387 . S
C350 H354 0.950 . S
C350 C359 1.390 . S
C351 C350 1.387 . S
C351 C353 1.387 . S
H352 C359 0.950 . S
C353 C351 1.387 . S
C353 C355 1.390 . S
C353 H357 0.950 . S
H354 C350 0.950 . S
C355 C353 1.390 . S
C355 C356 1.387 . S
C355 H358 0.950 . S
C356 C355 1.387 . S
C356 C359 1.387 . S
H357 C353 0.950 . S
H358 C355 0.950 . S
C359 C350 1.390 . S
C359 H352 0.950 . S
C359 C356 1.387 . S
C360 C361 1.387 . S
C360 H364 0.950 . S
C360 C369 1.390 . S
C361 C360 1.387 . S
C361 C363 1.387 . S
H362 C369 0.950 . S
C363 C361 1.387 . S
C363 C365 1.390 . S
C363 H367 0.950 . S
H364 C360 0.950 . S
C365 C363 1.390 . S
C365 C366 1.387 . S
C365 H368 0.950 . S
C366 C365 1.387 . S
C366 C369 1.387 . S
H367 C363 0.950 . S
H368 C365 0.950 . S
C369 C360 1.390 . S
C369 H362 0.950 . S
C369 C366 1.387 . S
C370 C371 1.387 . S
C370 H374 0.950 . S
C370 C379 1.390 . S
C371 C370 1.387 . S
C371 C373 1.387 . S
H372 C379 0.950 . S
C373 C371 1.387 . S
C373 C375 1.390 . S
C373 H377 0.950 . S
H374 C370 0.950 . S
C375 C373 1.390 . S
C375 C376 1.387 . S
C375 H378 0.950 . S
C376 C375 1.387 . S
C376 C379 1.387 . S
H377 C373 0.950 . S
H378 C375 0.950 . S
C379 C370 1.390 . S
C379 H372 0.950 . S
C379 C376 1.387 . S
C380 C381 1.387 . S
C380 H384 0.950 . S
C380 C389 1.390 . S
C381 C380 1.387 . S
C381 C383 1.387 1_556 S
H382 C389 0.950 . S
C383 C381 1.387 1_554 S
C383 C385 1.390 . S
C383 H387 0.950 . S
H384 C380 0.950 . S
C385 C383 1.390 . S
C385 C386 1.387 1_554 S
C385 H388 0.950 . S
C386 C385 1.387 1_556 S
C386 C389 1.387 . S
H387 C383 0.950 . S
H388 C385 0.950 . S
C389 C380 1.390 . S
C389 H382 0.950 . S
C389 C386 1.387 . S
C390 C391 1.387 . S
C390 H394 0.950 . S
C390 C399 1.390 . S
C391 C390 1.387 . S
C391 C393 1.387 . S
H392 C399 0.950 . S
C393 C391 1.387 . S
C393 C395 1.390 . S
C393 H397 0.950 . S
H394 C390 0.950 . S
C395 C393 1.390 . S
C395 C396 1.387 . S
C395 H398 0.950 . S
C396 C395 1.387 . S
C396 C399 1.387 . S
H397 C393 0.950 . S
H398 C395 0.950 . S
C399 C390 1.390 . S
C399 H392 0.950 . S
C399 C396 1.387 . S
C400 C401 1.387 . S
C400 H404 0.950 . S
C400 C409 1.390 . S
C401 C400 1.387 . S
C401 C403 1.387 . S
H402 C409 0.950 . S
C403 C401 1.387 . S
C403 C405 1.390 . S
C403 H407 0.950 . S
H404 C400 0.950 . S
C405 C403 1.390 . S
C405 C406 1.387 . S
C405 H408 0.950 . S
C406 C405 1.387 . S
C406 C409 1.387 . S
H407 C403 0.950 . S
H408 C405 0.950 . S
C409 C400 1.390 . S
C409 H402 0.950 . S
C409 C406 1.387 . S
C410 C411 1.387 1_554 S
C410 H414 0.950 . S
C410 C419 1.390 . S
C411 C410 1.387 1_556 S
C411 C413 1.387 . S
H412 C419 0.950 . S
C413 C411 1.387 . S
C413 C415 1.390 . S
C413 H417 0.950 . S
H414 C410 0.950 . S
C415 C413 1.390 . S
C415 C416 1.387 . S
C415 H418 0.950 . S
C416 C415 1.387 . S
C416 C419 1.387 1_556 S
H417 C413 0.950 . S
H418 C415 0.950 . S
C419 C410 1.390 . S
C419 H412 0.950 . S
C419 C416 1.387 1_554 S
C241 C209 1.824 . S
C246 C6 1.748 . S
C251 C9 1.826 . S
C256 C46 1.750 1_455 S
C261 C49 1.826 . S
C266 C86 1.749 1_545 S
C271 C89 1.824 . S
C276 C126 1.747 . S
C281 C166 1.747 1_655 S
C286 C129 1.824 . S
C291 C206 1.748 1_565 S
C296 C169 1.824 . S
C301 C10 2.091 . S
C306 C19 2.091 . S
C311 C50 2.092 1_556 S
C316 C59 2.092 . S
C321 C90 2.090 . S
C326 C99 2.090 1_554 S
C331 C130 2.092 . S
C336 C139 2.092 . S
C341 C179 2.090 . S
C346 C170 2.090 1_556 S
C351 C210 2.092 . S
C356 C219 2.092 1_554 S
C361 C15 1.696 . S
C366 C178 1.795 . S
C371 C55 1.693 . S
C376 C218 1.797 . S
C381 C18 1.798 . S
C386 C95 1.694 . S
C391 C58 1.796 . S
C396 C135 1.697 . S
C401 C175 1.693 . S
C406 C98 1.797 . S
C411 C138 1.795 . S
C416 C215 1.696 . S
