# Generated by pormake.
# Topology umm, (4)-cn, num edge types: 1
# Building blocks:
#     Node 0, Type 0, BuildingBlock: QUQFOY_clean_sbu_1, # of connection points: 4
#     Node 1, Type 0, BuildingBlock: QUQFOY_clean_sbu_1, # of connection points: 4
#     Node 2, Type 0, BuildingBlock: QUQFOY_clean_sbu_1, # of connection points: 4
#     Node 3, Type 0, BuildingBlock: QUQFOY_clean_sbu_1, # of connection points: 4
#     Node 4, Type 0, BuildingBlock: QUQFOY_clean_sbu_1, # of connection points: 4
#     Node 5, Type 0, BuildingBlock: QUQFOY_clean_sbu_1, # of connection points: 4
#     Node 6, Type 0, BuildingBlock: QUQFOY_clean_sbu_1, # of connection points: 4
#     Node 7, Type 0, BuildingBlock: QUQFOY_clean_sbu_1, # of connection points: 4
#     Node 8, Type 0, BuildingBlock: QUQFOY_clean_sbu_1, # of connection points: 4
#     Node 9, Type 0, BuildingBlock: QUQFOY_clean_sbu_1, # of connection points: 4
#     Node 10, Type 0, BuildingBlock: QUQFOY_clean_sbu_1, # of connection points: 4
#     Node 11, Type 0, BuildingBlock: QUQFOY_clean_sbu_1, # of connection points: 4
#     Edge 12, Type (0, 0), BuildingBlock: EZIPEK_clean_linker_0, # of connection points: 2
#     Edge 13, Type (0, 0), BuildingBlock: EZIPEK_clean_linker_0, # of connection points: 2
#     Edge 14, Type (0, 0), BuildingBlock: EZIPEK_clean_linker_0, # of connection points: 2
#     Edge 15, Type (0, 0), BuildingBlock: EZIPEK_clean_linker_0, # of connection points: 2
#     Edge 16, Type (0, 0), BuildingBlock: EZIPEK_clean_linker_0, # of connection points: 2
#     Edge 17, Type (0, 0), BuildingBlock: EZIPEK_clean_linker_0, # of connection points: 2
#     Edge 18, Type (0, 0), BuildingBlock: EZIPEK_clean_linker_0, # of connection points: 2
#     Edge 19, Type (0, 0), BuildingBlock: EZIPEK_clean_linker_0, # of connection points: 2
#     Edge 20, Type (0, 0), BuildingBlock: EZIPEK_clean_linker_0, # of connection points: 2
#     Edge 21, Type (0, 0), BuildingBlock: EZIPEK_clean_linker_0, # of connection points: 2
#     Edge 22, Type (0, 0), BuildingBlock: EZIPEK_clean_linker_0, # of connection points: 2
#     Edge 23, Type (0, 0), BuildingBlock: EZIPEK_clean_linker_0, # of connection points: 2
#     Edge 24, Type (0, 0), BuildingBlock: EZIPEK_clean_linker_0, # of connection points: 2
#     Edge 25, Type (0, 0), BuildingBlock: EZIPEK_clean_linker_0, # of connection points: 2
#     Edge 26, Type (0, 0), BuildingBlock: EZIPEK_clean_linker_0, # of connection points: 2
#     Edge 27, Type (0, 0), BuildingBlock: EZIPEK_clean_linker_0, # of connection points: 2
#     Edge 28, Type (0, 0), BuildingBlock: EZIPEK_clean_linker_0, # of connection points: 2
#     Edge 29, Type (0, 0), BuildingBlock: EZIPEK_clean_linker_0, # of connection points: 2
#     Edge 30, Type (0, 0), BuildingBlock: EZIPEK_clean_linker_0, # of connection points: 2
#     Edge 31, Type (0, 0), BuildingBlock: EZIPEK_clean_linker_0, # of connection points: 2
#     Edge 32, Type (0, 0), BuildingBlock: EZIPEK_clean_linker_0, # of connection points: 2
#     Edge 33, Type (0, 0), BuildingBlock: EZIPEK_clean_linker_0, # of connection points: 2
#     Edge 34, Type (0, 0), BuildingBlock: EZIPEK_clean_linker_0, # of connection points: 2
#     Edge 35, Type (0, 0), BuildingBlock: EZIPEK_clean_linker_0, # of connection points: 2
# Relax obj value: 0.041
# Max RMSD: 0.171
# Mean RMSD: 0.170
data_MOF--net-umm--node1-QUQFOY_clean_sbu_1--edge1-EZIPEK_clean_linker_0
_symmetry_space_group_name_H-M    P1
_symmetry_Int_Tables_number       1
_symmetry_cell_setting            triclinic
loop_
_symmetry_equiv_pos_as_xyz
'x, y, z'
_cell_length_a     42.103038
_cell_length_b     42.103897
_cell_length_c     21.195429
_cell_angle_alpha  89.81126
_cell_angle_beta   90.158914
_cell_angle_gamma 119.52352
loop_
_atom_site_label
_atom_site_type_symbol
_atom_site_fract_x
_atom_site_fract_y
_atom_site_fract_z
_atom_type_partial_charge
O0 O 0.4875 0.5686 0.11024 0.0
Cd1 Cd 0.45193 0.58941 0.11918 0.0
Cd2 Cd 0.41251 0.5281 0.05815 0.0
O3 O 0.44723 0.51061 0.09271 0.0
O4 O 0.47167 0.62488 0.19121 0.0
O5 O 0.41931 0.57282 0.19542 0.0
C6 C 0.44413 0.60149 0.22386 0.0
C7 C 0.35034 0.50733 0.05745 0.0
C8 C 0.47986 0.53547 0.10453 0.0
C9 C 0.43945 0.59591 0.9855 0.0
O10 O 0.43484 0.56382 0.98506 0.0
O11 O 0.44167 0.61151 0.03803 0.0
O12 O 0.36398 0.49238 0.02132 0.0
O13 O 0.37084 0.52877 0.10178 0.0
O14 O 0.93405 0.46414 0.4358 0.0
Cd15 Cd 0.8787 0.42836 0.44517 0.0
Cd16 Cd 0.90059 0.3873 0.39153 0.0
O17 O 0.95205 0.42305 0.42746 0.0
O18 O 0.86169 0.45021 0.51123 0.0
O19 O 0.86524 0.39983 0.52591 0.0
C20 C 0.86014 0.42534 0.54895 0.0
C21 C 0.85791 0.32572 0.39361 0.0
C22 C 0.95948 0.45613 0.43493 0.0
C23 C 0.86205 0.41472 0.31269 0.0
O24 O 0.88864 0.40866 0.31513 0.0
O25 O 0.84758 0.41757 0.36343 0.0
O26 O 0.88686 0.33751 0.35899 0.0
O27 O 0.85723 0.34763 0.43564 0.0
O28 O 0.497 0.93083 0.78499 0.0
Cd29 Cd 0.47593 0.87471 0.78726 0.0
Cd30 Cd 0.53995 0.89529 0.73522 0.0
O31 O 0.55519 0.94707 0.77234 0.0
O32 O 0.4394 0.85607 0.85735 0.0
O33 O 0.49171 0.85529 0.86003 0.0
C34 C 0.46242 0.8502 0.88845 0.0
C35 C 0.56453 0.85653 0.73032 0.0
C36 C 0.53038 0.95553 0.78288 0.0
C37 C 0.47396 0.8612 0.65348 0.0
O38 O 0.50762 0.88426 0.65831 0.0
O39 O 0.45438 0.84802 0.70252 0.0
O40 O 0.58036 0.88778 0.70182 0.0
O41 O 0.53851 0.85012 0.76951 0.0
O42 O 0.593 0.47501 0.09283 0.0
Cd43 Cd 0.62744 0.45351 0.10379 0.0
Cd44 Cd 0.66974 0.5159 0.05172 0.0
O45 O 0.6356 0.53317 0.09027 0.0
O46 O 0.60396 0.41492 0.17022 0.0
O47 O 0.65504 0.46728 0.18583 0.0
C48 C 0.62879 0.43729 0.20853 0.0
C49 C 0.73144 0.53372 0.05442 0.0
C50 C 0.60213 0.50862 0.09513 0.0
C51 C 0.64277 0.45177 0.97107 0.0
O52 O 0.64742 0.48384 0.97418 0.0
O53 O 0.64003 0.43438 0.02193 0.0
O54 O 0.71998 0.552 0.02141 0.0
O55 O 0.70896 0.50979 0.09412 0.0
O56 O 0.13021 0.57246 0.41168 0.0
Cd57 Cd 0.18577 0.6061 0.40989 0.0
Cd58 Cd 0.16414 0.65361 0.37585 0.0
O59 O 0.11303 0.61443 0.41191 0.0
O60 O 0.20511 0.58338 0.4712 0.0
O61 O 0.20603 0.63572 0.48874 0.0
C62 C 0.2106 0.60939 0.50962 0.0
C63 C 0.20583 0.71495 0.38526 0.0
C64 C 0.10534 0.58106 0.41678 0.0
C65 C 0.19682 0.62756 0.27651 0.0
O66 O 0.1761 0.64035 0.29052 0.0
O67 O 0.20891 0.61519 0.31981 0.0
O68 O 0.17554 0.70467 0.35509 0.0
O69 O 0.20816 0.69125 0.42116 0.0
O70 O 0.57947 0.12645 0.79127 0.0
Cd71 Cd 0.59754 0.18174 0.79893 0.0
Cd72 Cd 0.53516 0.1598 0.74245 0.0
O73 O 0.52085 0.10791 0.77792 0.0
O74 O 0.63463 0.19822 0.86776 0.0
O75 O 0.58187 0.19767 0.87657 0.0
C76 C 0.61162 0.2021 0.90242 0.0
C77 C 0.51045 0.19816 0.73575 0.0
C78 C 0.54664 0.10073 0.78775 0.0
C79 C 0.60237 0.19776 0.66633 0.0
O80 O 0.56937 0.17261 0.66825 0.0
O81 O 0.62005 0.21142 0.71703 0.0
O82 O 0.49495 0.16697 0.70718 0.0
O83 O 0.53583 0.2044 0.77654 0.0
O84 O 0.49473 0.58202 0.61063 0.0
Cd85 Cd 0.47655 0.61939 0.6003 0.0
Cd86 Cd 0.53848 0.65961 0.65976 0.0
O87 O 0.55304 0.62296 0.62091 0.0
O88 O 0.43679 0.5973 0.5357 0.0
O89 O 0.49056 0.64592 0.51697 0.0
C90 C 0.45953 0.62058 0.49583 0.0
C91 C 0.56352 0.72275 0.66314 0.0
C92 C 0.52803 0.58997 0.61218 0.0
C93 C 0.47216 0.63403 0.73369 0.0
O94 O 0.50445 0.6391 0.73519 0.0
O95 O 0.45655 0.63176 0.68101 0.0
O96 O 0.58009 0.70726 0.68968 0.0
O97 O 0.53645 0.70302 0.62585 0.0
O98 O 0.94384 0.47476 0.92883 0.0
Cd99 Cd 0.888 0.45438 0.92346 0.0
Cd100 Cd 0.90964 0.5172 0.97918 0.0
O101 O 0.96048 0.53321 0.93915 0.0
O102 O 0.86984 0.41706 0.8544 0.0
O103 O 0.8717 0.47053 0.84711 0.0
C104 C 0.86593 0.44053 0.82076 0.0
C105 C 0.86552 0.53515 0.97725 0.0
C106 C 0.9686 0.50816 0.92913 0.0
C107 C 0.87224 0.4519 0.05755 0.0
O108 O 0.8992 0.48401 0.05566 0.0
O109 O 0.85808 0.43497 1.00641 0.0
O110 O 0.89478 0.55298 1.01088 0.0
O111 O 0.86495 0.51212 0.93639 0.0
O112 O 0.48062 0.92276 0.26299 0.0
Cd113 Cd 0.44822 0.86685 0.26095 0.0
Cd114 Cd 0.40093 0.8857 0.30216 0.0
O115 O 0.43644 0.93685 0.26339 0.0
O116 O 0.4718 0.84944 0.19909 0.0
O117 O 0.41929 0.84834 0.18119 0.0
C118 C 0.44632 0.84506 0.16011 0.0
C119 C 0.33887 0.84491 0.30271 0.0
C120 C 0.47029 0.94641 0.25898 0.0
C121 C 0.43441 0.85615 0.39378 0.0
O122 O 0.42098 0.87679 0.38327 0.0
O123 O 0.44301 0.84237 0.34811 0.0
O124 O 0.35164 0.87581 0.33167 0.0
O125 O 0.36037 0.84046 0.26455 0.0
O126 O 0.58468 0.47184 0.59753 0.0
Cd127 Cd 0.60148 0.43344 0.5859 0.0
Cd128 Cd 0.54113 0.3953 0.65158 0.0
O129 O 0.52661 0.4328 0.61635 0.0
O130 O 0.63658 0.45144 0.51344 0.0
O131 O 0.58208 0.40174 0.50892 0.0
C132 C 0.61175 0.42504 0.4807 0.0
C133 C 0.51368 0.33209 0.65991 0.0
C134 C 0.55196 0.46521 0.60434 0.0
C135 C 0.60998 0.42004 0.71854 0.0
O136 O 0.578 0.41553 0.72308 0.0
O137 O 0.62418 0.42225 0.66459 0.0
O138 O 0.49958 0.34952 0.68763 0.0
O139 O 0.53916 0.34983 0.6188 0.0
O140 O 0.13977 0.56723 0.89601 0.0
Cd141 Cd 0.19571 0.59187 0.88669 0.0
Cd142 Cd 0.18102 0.53225 0.95351 0.0
O143 O 0.12751 0.51139 0.92195 0.0
O144 O 0.20643 0.62273 0.80926 0.0
O145 O 0.21572 0.57534 0.81578 0.0
C146 C 0.2147 0.60043 0.78188 0.0
C147 C 0.22007 0.5082 0.9662 0.0
C148 C 0.11676 0.53403 0.90728 0.0
C149 C 0.21314 0.60545 0.01837 0.0
O150 O 0.19322 0.57103 0.02065 0.0
O151 O 0.22344 0.6219 0.96562 0.0
O152 O 0.19064 0.49592 0.99936 0.0
O153 O 0.22453 0.53029 0.92015 0.0
O154 O 0.58209 0.11883 0.27129 0.0
Cd155 Cd 0.61385 0.1744 0.27458 0.0
Cd156 Cd 0.66288 0.1552 0.31405 0.0
O157 O 0.62508 0.10322 0.2789 0.0
O158 O 0.59341 0.19239 0.20705 0.0
O159 O 0.64822 0.19695 0.20246 0.0
C160 C 0.62224 0.19965 0.17482 0.0
C161 C 0.72535 0.1952 0.31099 0.0
C162 C 0.59164 0.09456 0.27047 0.0
C163 C 0.6308 0.18537 0.40857 0.0
O164 O 0.64666 0.16717 0.3964 0.0
O165 O 0.61798 0.19612 0.36396 0.0
O166 O 0.71267 0.16439 0.3405 0.0
O167 O 0.70348 0.19969 0.27368 0.0
C168 C 0.44641 0.57833 0.3322 0.0
C169 C 0.44406 0.60488 0.29388 0.0
C170 C 0.45161 0.6421 0.38816 0.0
C171 C 0.45252 0.61484 0.42663 0.0
N172 N 0.44678 0.55487 0.43628 0.0
N173 N 0.43874 0.65902 0.28513 0.0
C174 C 0.44831 0.5822 0.39896 0.0
C175 C 0.44517 0.63601 0.32185 0.0
N176 N 0.44958 0.55065 0.30468 0.0
N177 N 0.45706 0.67388 0.41506 0.0
H178 H 0.43349 0.65494 0.23683 0.0
H179 H 0.43566 0.68037 0.30282 0.0
H180 H 0.45937 0.67821 0.46368 0.0
H181 H 0.46105 0.69665 0.38937 0.0
H182 H 0.45686 0.5337 0.3291 0.0
H183 H 0.44784 0.54605 0.25628 0.0
H184 H 0.43782 0.52846 0.42018 0.0
H185 H 0.45274 0.55764 0.48429 0.0
C186 C 0.82984 0.4045 0.65537 0.0
C187 C 0.85971 0.42991 0.61828 0.0
C188 C 0.8937 0.46033 0.71421 0.0
C189 C 0.86286 0.43683 0.75117 0.0
N190 N 0.80027 0.38911 0.75823 0.0
N191 N 0.91843 0.48508 0.61159 0.0
C192 C 0.83052 0.4095 0.72212 0.0
C193 C 0.89096 0.45891 0.64747 0.0
N194 N 0.80106 0.37553 0.62677 0.0
N195 N 0.92652 0.4824 0.74286 0.0
H196 H 0.91966 0.48391 0.56266 0.0
H197 H 0.93915 0.50942 0.63011 0.0
H198 H 0.93018 0.48384 0.79162 0.0
H199 H 0.95104 0.49667 0.71845 0.0
H200 H 0.78022 0.35385 0.65126 0.0
H201 H 0.79897 0.37219 0.5779 0.0
H202 H 0.7747 0.37112 0.73975 0.0
H203 H 0.80019 0.39211 0.80707 0.0
C204 C 0.48331 0.87737 0.99509 0.0
C205 C 0.45963 0.84663 0.95816 0.0
C206 C 0.42673 0.81392 0.05395 0.0
C207 C 0.45178 0.84403 0.09104 0.0
N208 N 0.5069 0.90291 0.09764 0.0
N209 N 0.41161 0.78425 0.95112 0.0
C210 C 0.48116 0.87505 0.06184 0.0
C211 C 0.43205 0.81445 0.98725 0.0
N212 N 0.50617 0.9099 0.96627 0.0
N213 N 0.39779 0.78507 0.08255 0.0
H214 H 0.41497 0.78411 0.90237 0.0
H215 H 0.39322 0.75876 0.96943 0.0
H216 H 0.39437 0.78301 0.13141 0.0
H217 H 0.3763 0.76401 0.05814 0.0
H218 H 0.52026 0.93455 0.99031 0.0
H219 H 0.50873 0.91322 0.91749 0.0
H220 H 0.53175 0.92306 0.07964 0.0
H221 H 0.50475 0.90535 0.14605 0.0
C222 C 0.64722 0.42425 0.31501 0.0
C223 C 0.62362 0.4319 0.27796 0.0
C224 C 0.59275 0.43527 0.37399 0.0
C225 C 0.61477 0.42535 0.41077 0.0
N226 N 0.65994 0.40626 0.41718 0.0
N227 N 0.57152 0.44134 0.27073 0.0
C228 C 0.64126 0.41875 0.38149 0.0
C229 C 0.59549 0.43609 0.30706 0.0
N230 N 0.67554 0.4227 0.28664 0.0
N231 N 0.57083 0.44626 0.40326 0.0
H232 H 0.57425 0.4456 0.22213 0.0
H233 H 0.54755 0.43944 0.28814 0.0
H234 H 0.56799 0.44632 0.45209 0.0
H235 H 0.55767 0.45828 0.3798 0.0
H236 H 0.69617 0.42119 0.31125 0.0
H237 H 0.67959 0.425 0.23793 0.0
H238 H 0.67715 0.39753 0.39848 0.0
H239 H 0.65614 0.40208 0.46576 0.0
C240 C 0.18484 0.57648 0.61155 0.0
C241 C 0.21439 0.60535 0.57859 0.0
C242 C 0.24583 0.63041 0.67946 0.0
C243 C 0.21713 0.60041 0.71182 0.0
N244 N 0.16225 0.54148 0.70779 0.0
N245 N 0.27515 0.6569 0.57911 0.0
C246 C 0.18784 0.57221 0.67746 0.0
C247 C 0.24557 0.63153 0.61203 0.0
N248 N 0.15259 0.55475 0.58094 0.0
N249 N 0.27301 0.65803 0.71336 0.0
H250 H 0.27559 0.65826 0.52992 0.0
H251 H 0.30011 0.67473 0.59982 0.0
H252 H 0.27509 0.65696 0.7623 0.0
H253 H 0.29249 0.68265 0.69363 0.0
H254 H 0.12862 0.53651 0.60403 0.0
H255 H 0.14841 0.5572 0.53312 0.0
H256 H 0.14321 0.51814 0.6841 0.0
H257 H 0.16142 0.53793 0.7565 0.0
C258 C 0.62303 0.23294 0.07476 0.0
C259 C 0.62154 0.20208 0.10498 0.0
C260 C 0.61117 0.17106 1.00292 0.0
C261 C 0.61536 0.20289 0.97209 0.0
N262 N 0.62837 0.26524 0.97626 0.0
N263 N 0.61748 0.14279 0.09798 0.0
C264 C 0.62202 0.23417 1.00738 0.0
C265 C 0.61686 0.1716 0.069 0.0
N266 N 0.62506 0.26082 0.11059 0.0
N267 N 0.5995 0.13942 0.9695 0.0
H268 H 0.61774 0.13975 0.14671 0.0
H269 H 0.61981 0.12262 0.07359 0.0
H270 H 0.59471 0.13745 0.92104 0.0
H271 H 0.59133 0.11412 0.99026 0.0
H272 H 0.62248 0.28243 0.09245 0.0
H273 H 0.62749 0.26136 0.15964 0.0
H274 H 0.63683 0.29019 0.9983 0.0
H275 H 0.62738 0.26664 0.92719 0.0
C276 C 0.31448 0.53948 0.0334 0.0
C277 C 0.3153 0.50616 0.03973 0.0
C278 C 0.25326 0.47319 0.99392 0.0
C279 C 0.2521 0.50628 0.99189 0.0
N280 N 0.27756 0.5684 0.02805 0.0
N281 N 0.28269 0.4404 0.03651 0.0
C282 C 0.28142 0.53853 1.01726 0.0
C283 C 0.28383 0.47268 0.02287 0.0
N284 N 0.34566 0.57258 0.03827 0.0
N285 N 0.22563 0.44257 0.96699 0.0
H286 H 0.30403 0.43916 0.05934 0.0
H287 H 0.25949 0.41501 0.0307 0.0
H288 H 0.20288 0.44222 0.94653 0.0
H289 H 0.22642 0.41844 0.96098 0.0
H290 H 0.34688 0.5971 0.02564 0.0
H291 H 0.37134 0.57592 0.0472 0.0
H292 H 0.29644 0.59072 0.05411 0.0
H293 H 0.25396 0.56938 1.0172 0.0
C294 C 0.78999 0.2908 0.37167 0.0
C295 C 0.82383 0.29094 0.37696 0.0
C296 C 0.79385 0.22847 0.33297 0.0
C297 C 0.75976 0.22772 0.33317 0.0
N298 N 0.72458 0.25466 0.37305 0.0
N299 N 0.85583 0.25667 0.37399 0.0
C300 C 0.75762 0.25776 0.35867 0.0
C301 C 0.82517 0.2588 0.36073 0.0
N302 N 0.78842 0.32245 0.37471 0.0
N303 N 0.79655 0.20077 0.30487 0.0
H304 H 0.87851 0.27762 0.39651 0.0
H305 H 0.85739 0.2329 0.36863 0.0
H306 H 0.77419 0.17839 0.28438 0.0
H307 H 0.8213 0.20143 0.29734 0.0
H308 H 0.76492 0.32373 0.36372 0.0
H309 H 0.81103 0.34817 0.37983 0.0
H310 H 0.72201 0.2743 0.39893 0.0
H311 H 0.69984 0.23105 0.36564 0.0
C312 C 0.56575 0.81368 0.64809 0.0
C313 C 0.57177 0.82648 0.71149 0.0
C314 C 0.5768 0.77303 0.74388 0.0
C315 C 0.57223 0.76093 0.67971 0.0
N316 N 0.57442 0.77679 0.56991 0.0
N317 N 0.59275 0.82363 0.81571 0.0
C318 C 0.57067 0.78363 0.6316 0.0
C319 C 0.58062 0.80789 0.75796 0.0
N320 N 0.55285 0.82836 0.60412 0.0
N321 N 0.57481 0.75057 0.79227 0.0
H322 H 0.59573 0.84905 0.82719 0.0
H323 H 0.60337 0.8134 0.84952 0.0
H324 H 0.57009 0.72411 0.78643 0.0
H325 H 0.57405 0.75678 0.83956 0.0
H326 H 0.54401 0.81708 0.55948 0.0
H327 H 0.54757 0.84955 0.6137 0.0
H328 H 0.57676 0.79434 0.5332 0.0
H329 H 0.57946 0.75587 0.5564 0.0
C330 C 0.79959 0.56825 0.03143 0.0
C331 C 0.76642 0.53462 0.03737 0.0
C332 C 0.79863 0.50173 1.0065 0.0
C333 C 0.83107 0.53541 0.99433 0.0
N334 N 0.86042 0.6009 0.98583 0.0
N335 N 0.73339 0.46964 1.01528 0.0
C336 C 0.831 0.56877 1.00436 0.0
C337 C 0.76572 0.50154 0.02075 0.0
N338 N 0.80145 0.59955 0.05361 0.0
N339 N 0.79908 0.46949 1.00799 0.0
H340 H 0.70818 0.46705 0.02528 0.0
H341 H 0.73114 0.44633 0.994 0.0
H342 H 0.82186 0.46703 0.99845 0.0
H343 H 0.77766 0.44535 0.02593 0.0
H344 H 0.82567 0.62434 0.05653 0.0
H345 H 0.77929 0.59994 0.07468 0.0
H346 H 0.86076 0.62579 0.98604 0.0
H347 H 0.88329 0.60213 0.96444 0.0
C348 C 0.27212 0.74797 0.35357 0.0
C349 C 0.23972 0.7494 0.36688 0.0
C350 C 0.27099 0.81344 0.33016 0.0
C351 C 0.30421 0.81258 0.32451 0.0
N352 N 0.33763 0.78163 0.35432 0.0
N353 N 0.21057 0.7861 0.37743 0.0
C354 C 0.30517 0.7807 0.34334 0.0
C355 C 0.23975 0.78295 0.35784 0.0
N356 N 0.27143 0.7154 0.34631 0.0
N357 N 0.26891 0.84274 0.30751 0.0
H358 H 0.18795 0.7648 0.39949 0.0
H359 H 0.21035 0.81073 0.3774 0.0
H360 H 0.29102 0.86507 0.28638 0.0
H361 H 0.24456 0.84345 0.3047 0.0
H362 H 0.29416 0.71374 0.33147 0.0
H363 H 0.24761 0.69026 0.34637 0.0
H364 H 0.33912 0.75965 0.37391 0.0
H365 H 0.3628 0.80541 0.35176 0.0
C366 C 0.50844 0.23971 0.6509 0.0
C367 C 0.50371 0.22838 0.71525 0.0
C368 C 0.50184 0.28384 0.74454 0.0
C369 C 0.50443 0.29411 0.67945 0.0
N370 N 0.49794 0.27478 0.57106 0.0
N371 N 0.48586 0.2347 0.81999 0.0
C372 C 0.50362 0.26965 0.63283 0.0
C373 C 0.49694 0.24879 0.76086 0.0
N374 N 0.52025 0.22396 0.60738 0.0
N375 N 0.50691 0.30812 0.79143 0.0
H376 H 0.4819 0.20907 0.83308 0.0
H377 H 0.47691 0.24658 0.8535 0.0
H378 H 0.51315 0.33495 0.7838 0.0
H379 H 0.50906 0.30292 0.83889 0.0
H380 H 0.52795 0.23419 0.56177 0.0
H381 H 0.52615 0.20327 0.61807 0.0
H382 H 0.494 0.25596 0.53583 0.0
H383 H 0.49289 0.29559 0.55654 0.0
C384 C 0.52132 0.51968 0.04409 0.0
C385 C 0.51045 0.52734 0.10287 0.0
C386 C 0.56359 0.52875 0.15454 0.0
C387 C 0.57267 0.51823 0.09685 0.0
N388 N 0.55871 0.50002 0.98793 0.0
N389 N 0.51848 0.53567 0.21522 0.0
C390 C 0.55105 0.5126 0.04201 0.0
C391 C 0.53099 0.53112 0.15844 0.0
N392 N 0.50439 0.52095 0.98968 0.0
N393 N 0.58624 0.53651 0.20546 0.0
H394 H 0.49465 0.53722 0.21936 0.0
H395 H 0.52986 0.53512 0.25856 0.0
H396 H 0.60967 0.53398 0.20453 0.0
H397 H 0.5834 0.54777 0.24724 0.0
H398 H 0.51383 0.52005 0.94474 0.0
H399 H 0.48238 0.52579 0.98888 0.0
H400 H 0.54126 0.49063 0.94916 0.0
H401 H 0.58171 0.49699 0.98286 0.0
C402 C 1.01399 0.50902 0.48562 0.0
C403 C 0.99772 0.48667 0.43188 0.0
C404 C 0.05153 0.52673 0.36858 0.0
C405 C 0.06691 0.55062 0.42101 0.0
N406 N 0.06182 0.56667 0.52791 0.0
N407 N 0.9978 0.47762 0.31954 0.0
C408 C 0.04771 0.54247 0.47909 0.0
C409 C 1.01568 0.49637 0.37269 0.0
N410 N 0.9977 0.49747 0.5432 0.0
N411 N 0.07153 0.53272 0.31479 0.0
H412 H 0.97177 0.4548 0.3202 0.0
H413 H 1.00751 0.48627 0.27401 0.0
H414 H 0.09692 0.55573 0.30829 0.0
H415 H 0.0641 0.51383 0.27835 0.0
H416 H 1.00925 0.51058 0.58552 0.0
H417 H 0.97355 0.47278 0.54928 0.0
H418 H 0.04784 0.56433 0.56962 0.0
H419 H 0.08687 0.5907 0.52509 0.0
C420 C 0.54162 0.04705 0.72769 0.0
C421 C 0.54012 0.06256 0.78635 0.0
C422 C 0.5411 1.01173 0.84235 0.0
C423 C 0.53883 0.99442 0.78391 0.0
N424 N 0.53447 0.99401 0.67052 0.0
N425 N 0.5343 0.0581 0.89931 0.0
C426 C 0.53852 1.01174 0.72643 0.0
C427 C 0.53868 0.0444 0.84369 0.0
N428 N 0.54719 0.06664 0.67323 0.0
N429 N 0.54694 0.99754 0.89629 0.0
H430 H 0.53211 0.0817 0.90145 0.0
H431 H 0.52977 0.04463 0.94241 0.0
H432 H 0.55082 0.97493 0.89559 0.0
H433 H 0.5518 1.01013 0.94018 0.0
H434 H 0.55315 0.05911 0.63004 0.0
H435 H 0.54812 0.09186 0.67176 0.0
H436 H 0.52923 1.00274 0.6277 0.0
H437 H 0.53458 0.96935 0.66734 0.0
C438 C 0.52853 0.53845 0.55281 0.0
C439 C 0.53672 0.55966 0.60871 0.0
C440 C 0.55576 0.5194 0.66075 0.0
C441 C 0.54489 0.49658 0.60654 0.0
N442 N 0.51722 0.48166 0.50355 0.0
N443 N 0.55262 0.56723 0.71918 0.0
C444 C 0.53009 0.50529 0.55332 0.0
C445 C 0.5491 0.54945 0.66348 0.0
N446 N 0.52054 0.5508 0.49862 0.0
N447 N 0.57275 0.51248 0.70971 0.0
H448 H 0.54826 0.58946 0.72335 0.0
H449 H 0.55711 0.55833 0.76245 0.0
H450 H 0.57604 0.48951 0.71169 0.0
H451 H 0.58559 0.5306 0.74669 0.0
H452 H 0.51752 0.53866 0.45469 0.0
H453 H 0.52 0.5753 0.4965 0.0
H454 H 0.50277 0.48433 0.46593 0.0
H455 H 0.51868 0.45765 0.50206 0.0
C456 C 0.05993 0.52871 0.85834 0.0
C457 C 0.07765 0.52404 0.91182 0.0
C458 C 1.02378 0.50929 0.9767 0.0
C459 C 1.00725 0.51668 0.92435 0.0
N460 N 1.01147 0.53881 0.81818 0.0
N461 N 0.07952 0.51742 0.02489 0.0
C462 C 1.02594 0.52805 0.86595 0.0
C463 C 0.06034 0.51614 0.97181 0.0
N464 N 0.07525 0.53283 0.79998 0.0
N465 N 1.00446 0.49558 0.03128 0.0
H466 H 0.10639 0.52258 0.02402 0.0
H467 H 0.0699 0.51649 0.07047 0.0
H468 H 0.97858 0.49247 0.03852 0.0
H469 H 1.01318 0.48522 0.06801 0.0
H470 H 0.06225 0.53287 0.75816 0.0
H471 H 0.09982 0.53295 0.7929 0.0
H472 H 1.02517 0.5506 0.77635 0.0
H473 H 0.98683 0.53887 0.82264 0.0
C474 C 0.50625 1.00578 0.31591 0.0
C475 C 0.49907 0.98552 0.25925 0.0
C476 C 0.55599 0.03451 0.21306 0.0
C477 C 0.56186 0.05575 0.26821 0.0
N478 N 0.54024 0.06369 0.36929 0.0
N479 N 0.51368 0.98189 0.1509 0.0
C480 C 0.53622 0.04196 0.31867 0.0
C481 C 0.52311 1.00025 0.20697 0.0
N482 N 0.48552 0.98982 0.3684 0.0
N483 N 0.58185 0.04713 0.16663 0.0
H484 H 0.48933 0.95738 0.14495 0.0
H485 H 0.52809 0.99212 0.10908 0.0
H486 H 0.60566 0.07238 0.16917 0.0
H487 H 0.58112 0.03177 0.12774 0.0
H488 H 0.49244 1.00113 0.41335 0.0
H489 H 0.46259 0.96387 0.36838 0.0
H490 H 0.52005 0.05735 0.40304 0.0
H491 H 0.56301 0.08931 0.37583 0.0
C492 C 0.42344 0.59611 0.8122 0.0
C493 C 0.45353 0.63001 0.79463 0.0
C494 C 0.46761 0.64766 0.90549 0.0
C495 C 0.43939 0.61244 0.92334 0.0
N496 N 0.38178 0.56011 0.89514 0.0
N497 N 0.49342 0.69268 0.82159 0.0
C498 C 0.41422 0.58916 0.87696 0.0
C499 C 0.4718 0.65743 0.84058 0.0
N500 N 0.40543 0.56951 0.76815 0.0
N501 N 0.49213 0.67066 0.94887 0.0
H502 H 0.49649 0.70008 0.77396 0.0
H503 H 0.50471 0.71458 0.85286 0.0
H504 H 0.4902 0.66506 0.99696 0.0
H505 H 0.51572 0.69462 0.93646 0.0
H506 H 0.38655 0.54265 0.7798 0.0
H507 H 0.41066 0.5737 0.71997 0.0
H508 H 0.36097 0.54411 0.86362 0.0
H509 H 0.37435 0.55442 0.94234 0.0
C510 C 0.85176 0.4516 0.23014 0.0
C511 C 0.84933 0.41826 0.24935 0.0
C512 C 0.85212 0.40195 0.13945 0.0
C513 C 0.85686 0.43633 0.1203 0.0
N514 N 0.84837 0.48774 0.14433 0.0
N515 N 0.83378 0.35678 0.22277 0.0
C516 C 0.85212 0.45895 0.16473 0.0
C517 C 0.84453 0.39165 0.20379 0.0
N518 N 0.85676 0.47754 0.2737 0.0
N519 N 0.85799 0.38053 0.0981 0.0
H520 H 0.82867 0.34893 0.26997 0.0
H521 H 0.82654 0.33521 0.19158 0.0
H522 H 0.86422 0.38697 0.05068 0.0
H523 H 0.85936 0.35746 0.11189 0.0
H524 H 0.86405 0.50429 0.26177 0.0
H525 H 0.8555 0.47307 0.32216 0.0
H526 H 0.84094 0.50274 0.17377 0.0
H527 H 0.84935 0.49448 0.09688 0.0
C528 C 0.44324 0.82262 0.55748 0.0
C529 C 0.45774 0.85629 0.59019 0.0
C530 C 0.46427 0.88847 0.49172 0.0
C531 C 0.44566 0.85478 0.45932 0.0
N532 N 0.41298 0.7889 0.46258 0.0
N533 N 0.47141 0.91902 0.59083 0.0
C534 C 0.43384 0.82141 0.49241 0.0
C535 C 0.46466 0.88845 0.55795 0.0
N536 N 0.43966 0.79236 0.58773 0.0
N537 N 0.48297 0.92054 0.45912 0.0
H538 H 0.47045 0.91941 0.64003 0.0
H539 H 0.47377 0.94235 0.56912 0.0
H540 H 0.48572 0.9215 0.41012 0.0
H541 H 0.49935 0.94553 0.48117 0.0
H542 H 0.43296 0.76807 0.56455 0.0
H543 H 0.44559 0.79238 0.63556 0.0
H544 H 0.40051 0.76391 0.48611 0.0
H545 H 0.4062 0.78716 0.41491 0.0
C546 C 0.61221 0.39396 0.82187 0.0
C547 C 0.62961 0.42272 0.77782 0.0
C548 C 0.66805 0.46231 0.86199 0.0
C549 C 0.64333 0.43731 0.90728 0.0
N550 N 0.59195 0.37735 0.92944 0.0
N551 N 0.67631 0.48422 0.75426 0.0
C552 C 0.61607 0.40204 0.88739 0.0
C553 C 0.65895 0.45661 0.79702 0.0
N554 N 0.59148 0.35911 0.80046 0.0
N555 N 0.69994 0.49169 0.88131 0.0
H556 H 0.67117 0.48065 0.70594 0.0
H557 H 0.69455 0.51104 0.76708 0.0
H558 H 0.7074 0.49659 0.92862 0.0
H559 H 0.72043 0.50895 0.85034 0.0
H560 H 0.58096 0.33636 0.83002 0.0
H561 H 0.58834 0.35306 0.7523 0.0
H562 H 0.56894 0.35324 0.91564 0.0
H563 H 0.59343 0.38155 0.9779 0.0
C564 C 0.2452 0.63486 0.11907 0.0
C565 C 0.21561 0.62497 0.07724 0.0
C566 C 0.17484 0.61533 0.16475 0.0
C567 C 0.20422 0.62575 0.20823 0.0
N568 N 0.26942 0.65334 0.22489 0.0
N569 N 0.15677 0.61882 0.05767 0.0
C570 C 0.24018 0.63797 0.18494 0.0
C571 C 0.1822 0.62034 0.09958 0.0
N572 N 0.2777 0.64048 0.09563 0.0
N573 N 0.13946 0.59771 0.18501 0.0
H574 H 0.16179 0.62207 1.00919 0.0
H575 H 0.13276 0.61826 0.07152 0.0
H576 H 0.1323 0.59011 0.2317 0.0
H577 H 0.11714 0.58652 0.15448 0.0
H578 H 0.29938 0.6436 0.12372 0.0
H579 H 0.28223 0.6409 0.04713 0.0
H580 H 0.2964 0.66587 0.20962 0.0
H581 H 0.26695 0.656 0.27313 0.0
C582 C 0.6242 0.17252 0.58559 0.0
C583 C 0.62111 0.20264 0.60594 0.0
C584 C 0.63153 0.22614 0.49782 0.0
C585 C 0.62671 0.19203 0.47615 0.0
N586 N 0.60843 0.129 0.50234 0.0
N587 N 0.61924 0.25755 0.58218 0.0
C588 C 0.62066 0.16422 0.52084 0.0
C589 C 0.62426 0.22954 0.56234 0.0
N590 N 0.62845 0.15068 0.62867 0.0
N591 N 0.64423 0.2555 0.45819 0.0
H592 H 0.61537 0.26124 0.62966 0.0
H593 H 0.61706 0.27567 0.55124 0.0
H594 H 0.6517 0.2548 0.41163 0.0
H595 H 0.65094 0.28156 0.47354 0.0
H596 H 0.6335 0.1297 0.61571 0.0
H597 H 0.63074 0.15617 0.67699 0.0
H598 H 0.60069 0.10752 0.5342 0.0
H599 H 0.60126 0.12019 0.45609 0.0
loop_
_geom_bond_atom_site_label_1
_geom_bond_atom_site_label_2
_geom_bond_distance
_geom_bond_site_symmetry_2
_ccdc_geom_bond_type
O0 Cd1 2.223 . S
O0 C8 1.315 . S
Cd1 O0 2.223 . S
Cd1 O4 2.297 . S
Cd1 O5 2.439 . S
Cd1 O11 2.240 1_554 S
Cd2 O3 2.240 . S
Cd2 O10 2.223 1_554 S
Cd2 O12 2.297 1_554 S
Cd2 O13 2.439 . S
O3 Cd2 2.240 . S
O3 C8 1.279 . S
O4 Cd1 2.297 . S
O4 C6 1.247 . S
O5 Cd1 2.439 . S
O5 C6 1.208 . S
C6 O4 1.247 . S
C6 O5 1.208 . S
C7 O12 1.247 1_554 S
C7 O13 1.208 . S
C8 O0 1.315 . S
C8 O3 1.279 . S
C9 O10 1.315 . S
C9 O11 1.279 . S
O10 Cd2 2.223 1_556 S
O10 C9 1.315 . S
O11 Cd1 2.240 1_556 S
O11 C9 1.279 . S
O12 Cd2 2.297 1_556 S
O12 C7 1.247 1_556 S
O13 Cd2 2.439 . S
O13 C7 1.208 . S
O14 Cd15 2.223 . S
O14 C22 1.315 . S
Cd15 O14 2.223 . S
Cd15 O18 2.297 . S
Cd15 O19 2.439 . S
Cd15 O25 2.240 . S
Cd16 O17 2.240 . S
Cd16 O24 2.223 . S
Cd16 O26 2.297 . S
Cd16 O27 2.439 . S
O17 Cd16 2.240 . S
O17 C22 1.279 . S
O18 Cd15 2.297 . S
O18 C20 1.247 . S
O19 Cd15 2.439 . S
O19 C20 1.208 . S
C20 O18 1.247 . S
C20 O19 1.208 . S
C21 O26 1.247 . S
C21 O27 1.208 . S
C22 O14 1.315 . S
C22 O17 1.279 . S
C23 O24 1.315 . S
C23 O25 1.279 . S
O24 Cd16 2.223 . S
O24 C23 1.315 . S
O25 Cd15 2.240 . S
O25 C23 1.279 . S
O26 Cd16 2.297 . S
O26 C21 1.247 . S
O27 Cd16 2.439 . S
O27 C21 1.208 . S
O28 Cd29 2.223 . S
O28 C36 1.315 . S
Cd29 O28 2.223 . S
Cd29 O32 2.297 . S
Cd29 O33 2.439 . S
Cd29 O39 2.240 . S
Cd30 O31 2.240 . S
Cd30 O38 2.223 . S
Cd30 O40 2.297 . S
Cd30 O41 2.439 . S
O31 Cd30 2.240 . S
O31 C36 1.279 . S
O32 Cd29 2.297 . S
O32 C34 1.247 . S
O33 Cd29 2.439 . S
O33 C34 1.208 . S
C34 O32 1.247 . S
C34 O33 1.208 . S
C35 O40 1.247 . S
C35 O41 1.208 . S
C36 O28 1.315 . S
C36 O31 1.279 . S
C37 O38 1.315 . S
C37 O39 1.279 . S
O38 Cd30 2.223 . S
O38 C37 1.315 . S
O39 Cd29 2.240 . S
O39 C37 1.279 . S
O40 Cd30 2.297 . S
O40 C35 1.247 . S
O41 Cd30 2.439 . S
O41 C35 1.208 . S
O42 Cd43 2.223 . S
O42 C50 1.315 . S
Cd43 O42 2.223 . S
Cd43 O46 2.297 . S
Cd43 O47 2.439 . S
Cd43 O53 2.240 1_554 S
Cd44 O45 2.240 . S
Cd44 O52 2.223 1_554 S
Cd44 O54 2.297 1_554 S
Cd44 O55 2.439 . S
O45 Cd44 2.240 . S
O45 C50 1.279 . S
O46 Cd43 2.297 . S
O46 C48 1.247 . S
O47 Cd43 2.439 . S
O47 C48 1.208 . S
C48 O46 1.247 . S
C48 O47 1.208 . S
C49 O54 1.247 1_554 S
C49 O55 1.208 . S
C50 O42 1.315 . S
C50 O45 1.279 . S
C51 O52 1.315 . S
C51 O53 1.279 . S
O52 Cd44 2.223 1_556 S
O52 C51 1.315 . S
O53 Cd43 2.240 1_556 S
O53 C51 1.279 . S
O54 Cd44 2.297 1_556 S
O54 C49 1.247 1_556 S
O55 Cd44 2.439 . S
O55 C49 1.208 . S
O56 Cd57 2.223 . S
O56 C64 1.315 . S
Cd57 O56 2.223 . S
Cd57 O60 2.297 . S
Cd57 O61 2.439 . S
Cd57 O67 2.240 . S
Cd58 O59 2.240 . S
Cd58 O66 2.223 . S
Cd58 O68 2.297 . S
Cd58 O69 2.439 . S
O59 Cd58 2.240 . S
O59 C64 1.279 . S
O60 Cd57 2.297 . S
O60 C62 1.247 . S
O61 Cd57 2.439 . S
O61 C62 1.208 . S
C62 O60 1.247 . S
C62 O61 1.208 . S
C63 O68 1.247 . S
C63 O69 1.208 . S
C64 O56 1.315 . S
C64 O59 1.279 . S
C65 O66 1.315 . S
C65 O67 1.279 . S
O66 Cd58 2.223 . S
O66 C65 1.315 . S
O67 Cd57 2.240 . S
O67 C65 1.279 . S
O68 Cd58 2.297 . S
O68 C63 1.247 . S
O69 Cd58 2.439 . S
O69 C63 1.208 . S
O70 Cd71 2.223 . S
O70 C78 1.315 . S
Cd71 O70 2.223 . S
Cd71 O74 2.297 . S
Cd71 O75 2.439 . S
Cd71 O81 2.240 . S
Cd72 O73 2.240 . S
Cd72 O80 2.223 . S
Cd72 O82 2.297 . S
Cd72 O83 2.439 . S
O73 Cd72 2.240 . S
O73 C78 1.279 . S
O74 Cd71 2.297 . S
O74 C76 1.247 . S
O75 Cd71 2.439 . S
O75 C76 1.208 . S
C76 O74 1.247 . S
C76 O75 1.208 . S
C77 O82 1.247 . S
C77 O83 1.208 . S
C78 O70 1.315 . S
C78 O73 1.279 . S
C79 O80 1.315 . S
C79 O81 1.279 . S
O80 Cd72 2.223 . S
O80 C79 1.315 . S
O81 Cd71 2.240 . S
O81 C79 1.279 . S
O82 Cd72 2.297 . S
O82 C77 1.247 . S
O83 Cd72 2.439 . S
O83 C77 1.208 . S
O84 Cd85 2.223 . S
O84 C92 1.315 . S
Cd85 O84 2.223 . S
Cd85 O88 2.297 . S
Cd85 O89 2.439 . S
Cd85 O95 2.240 . S
Cd86 O87 2.240 . S
Cd86 O94 2.223 . S
Cd86 O96 2.297 . S
Cd86 O97 2.439 . S
O87 Cd86 2.240 . S
O87 C92 1.279 . S
O88 Cd85 2.297 . S
O88 C90 1.247 . S
O89 Cd85 2.439 . S
O89 C90 1.208 . S
C90 O88 1.247 . S
C90 O89 1.208 . S
C91 O96 1.247 . S
C91 O97 1.208 . S
C92 O84 1.315 . S
C92 O87 1.279 . S
C93 O94 1.315 . S
C93 O95 1.279 . S
O94 Cd86 2.223 . S
O94 C93 1.315 . S
O95 Cd85 2.240 . S
O95 C93 1.279 . S
O96 Cd86 2.297 . S
O96 C91 1.247 . S
O97 Cd86 2.439 . S
O97 C91 1.208 . S
O98 Cd99 2.223 . S
O98 C106 1.315 . S
Cd99 O98 2.223 . S
Cd99 O102 2.297 . S
Cd99 O103 2.439 . S
Cd99 O109 2.240 1_556 S
Cd100 O101 2.240 . S
Cd100 O108 2.223 1_556 S
Cd100 O110 2.297 1_556 S
Cd100 O111 2.439 . S
O101 Cd100 2.240 . S
O101 C106 1.279 . S
O102 Cd99 2.297 . S
O102 C104 1.247 . S
O103 Cd99 2.439 . S
O103 C104 1.208 . S
C104 O102 1.247 . S
C104 O103 1.208 . S
C105 O110 1.247 1_556 S
C105 O111 1.208 . S
C106 O98 1.315 . S
C106 O101 1.279 . S
C107 O108 1.315 . S
C107 O109 1.279 . S
O108 Cd100 2.223 1_554 S
O108 C107 1.315 . S
O109 Cd99 2.240 1_554 S
O109 C107 1.279 . S
O110 Cd100 2.297 1_554 S
O110 C105 1.247 1_554 S
O111 Cd100 2.439 . S
O111 C105 1.208 . S
O112 Cd113 2.223 . S
O112 C120 1.315 . S
Cd113 O112 2.223 . S
Cd113 O116 2.297 . S
Cd113 O117 2.439 . S
Cd113 O123 2.240 . S
Cd114 O115 2.240 . S
Cd114 O122 2.223 . S
Cd114 O124 2.297 . S
Cd114 O125 2.439 . S
O115 Cd114 2.240 . S
O115 C120 1.279 . S
O116 Cd113 2.297 . S
O116 C118 1.247 . S
O117 Cd113 2.439 . S
O117 C118 1.208 . S
C118 O116 1.247 . S
C118 O117 1.208 . S
C119 O124 1.247 . S
C119 O125 1.208 . S
C120 O112 1.315 . S
C120 O115 1.279 . S
C121 O122 1.315 . S
C121 O123 1.279 . S
O122 Cd114 2.223 . S
O122 C121 1.315 . S
O123 Cd113 2.240 . S
O123 C121 1.279 . S
O124 Cd114 2.297 . S
O124 C119 1.247 . S
O125 Cd114 2.439 . S
O125 C119 1.208 . S
O126 Cd127 2.223 . S
O126 C134 1.315 . S
Cd127 O126 2.223 . S
Cd127 O130 2.297 . S
Cd127 O131 2.439 . S
Cd127 O137 2.240 . S
Cd128 O129 2.240 . S
Cd128 O136 2.223 . S
Cd128 O138 2.297 . S
Cd128 O139 2.439 . S
O129 Cd128 2.240 . S
O129 C134 1.279 . S
O130 Cd127 2.297 . S
O130 C132 1.247 . S
O131 Cd127 2.439 . S
O131 C132 1.208 . S
C132 O130 1.247 . S
C132 O131 1.208 . S
C133 O138 1.247 . S
C133 O139 1.208 . S
C134 O126 1.315 . S
C134 O129 1.279 . S
C135 O136 1.315 . S
C135 O137 1.279 . S
O136 Cd128 2.223 . S
O136 C135 1.315 . S
O137 Cd127 2.240 . S
O137 C135 1.279 . S
O138 Cd128 2.297 . S
O138 C133 1.247 . S
O139 Cd128 2.439 . S
O139 C133 1.208 . S
O140 Cd141 2.223 . S
O140 C148 1.315 . S
Cd141 O140 2.223 . S
Cd141 O144 2.297 . S
Cd141 O145 2.439 . S
Cd141 O151 2.240 1_556 S
Cd142 O143 2.240 . S
Cd142 O150 2.223 1_556 S
Cd142 O152 2.297 1_556 S
Cd142 O153 2.439 . S
O143 Cd142 2.240 . S
O143 C148 1.279 . S
O144 Cd141 2.297 . S
O144 C146 1.247 . S
O145 Cd141 2.439 . S
O145 C146 1.208 . S
C146 O144 1.247 . S
C146 O145 1.208 . S
C147 O152 1.247 1_556 S
C147 O153 1.208 . S
C148 O140 1.315 . S
C148 O143 1.279 . S
C149 O150 1.315 . S
C149 O151 1.279 . S
O150 Cd142 2.223 1_554 S
O150 C149 1.315 . S
O151 Cd141 2.240 1_554 S
O151 C149 1.279 . S
O152 Cd142 2.297 1_554 S
O152 C147 1.247 1_554 S
O153 Cd142 2.439 . S
O153 C147 1.208 . S
O154 Cd155 2.223 . S
O154 C162 1.315 . S
Cd155 O154 2.223 . S
Cd155 O158 2.297 . S
Cd155 O159 2.439 . S
Cd155 O165 2.240 . S
Cd156 O157 2.240 . S
Cd156 O164 2.223 . S
Cd156 O166 2.297 . S
Cd156 O167 2.439 . S
O157 Cd156 2.240 . S
O157 C162 1.279 . S
O158 Cd155 2.297 . S
O158 C160 1.247 . S
O159 Cd155 2.439 . S
O159 C160 1.208 . S
C160 O158 1.247 . S
C160 O159 1.208 . S
C161 O166 1.247 . S
C161 O167 1.208 . S
C162 O154 1.315 . S
C162 O157 1.279 . S
C163 O164 1.315 . S
C163 O165 1.279 . S
O164 Cd156 2.223 . S
O164 C163 1.315 . S
O165 Cd155 2.240 . S
O165 C163 1.279 . S
O166 Cd156 2.297 . S
O166 C161 1.247 . S
O167 Cd156 2.439 . S
O167 C161 1.208 . S
C168 C169 1.363 . S
C168 C174 1.379 . S
C168 N176 1.356 . S
C169 C168 1.363 . S
C169 C175 1.363 . S
C170 C171 1.363 . S
C170 C175 1.379 . S
C170 N177 1.356 . S
C171 C170 1.363 . S
C171 C174 1.363 . S
N172 C174 1.356 . S
N172 H184 0.984 . S
N172 H185 0.985 . S
N173 C175 1.356 . S
N173 H178 0.984 . S
N173 H179 0.985 . S
C174 C168 1.379 . S
C174 C171 1.363 . S
C174 N172 1.356 . S
C175 C169 1.363 . S
C175 C170 1.379 . S
C175 N173 1.356 . S
N176 C168 1.356 . S
N176 H182 0.984 . S
N176 H183 0.984 . S
N177 C170 1.356 . S
N177 H180 0.984 . S
N177 H181 0.985 . S
H178 N173 0.984 . S
H179 N173 0.985 . S
H180 N177 0.984 . S
H181 N177 0.985 . S
H182 N176 0.984 . S
H183 N176 0.984 . S
H184 N172 0.984 . S
H185 N172 0.985 . S
C186 C187 1.363 . S
C186 C192 1.379 . S
C186 N194 1.356 . S
C187 C186 1.363 . S
C187 C193 1.363 . S
C188 C189 1.363 . S
C188 C193 1.379 . S
C188 N195 1.356 . S
C189 C188 1.363 . S
C189 C192 1.363 . S
N190 C192 1.356 . S
N190 H202 0.984 . S
N190 H203 0.985 . S
N191 C193 1.356 . S
N191 H196 0.984 . S
N191 H197 0.985 . S
C192 C186 1.379 . S
C192 C189 1.363 . S
C192 N190 1.356 . S
C193 C187 1.363 . S
C193 C188 1.379 . S
C193 N191 1.356 . S
N194 C186 1.356 . S
N194 H200 0.984 . S
N194 H201 0.984 . S
N195 C188 1.356 . S
N195 H198 0.984 . S
N195 H199 0.985 . S
H196 N191 0.984 . S
H197 N191 0.985 . S
H198 N195 0.984 . S
H199 N195 0.985 . S
H200 N194 0.984 . S
H201 N194 0.984 . S
H202 N190 0.984 . S
H203 N190 0.985 . S
C204 C205 1.363 . S
C204 C210 1.379 1_556 S
C204 N212 1.356 . S
C205 C204 1.363 . S
C205 C211 1.363 . S
C206 C207 1.363 . S
C206 C211 1.379 1_554 S
C206 N213 1.356 . S
C207 C206 1.363 . S
C207 C210 1.363 . S
N208 C210 1.356 . S
N208 H220 0.984 . S
N208 H221 0.985 . S
N209 C211 1.356 . S
N209 H214 0.984 . S
N209 H215 0.985 . S
C210 C204 1.379 1_554 S
C210 C207 1.363 . S
C210 N208 1.356 . S
C211 C205 1.363 . S
C211 C206 1.379 1_556 S
C211 N209 1.356 . S
N212 C204 1.356 . S
N212 H218 0.984 . S
N212 H219 0.984 . S
N213 C206 1.356 . S
N213 H216 0.984 . S
N213 H217 0.985 . S
H214 N209 0.984 . S
H215 N209 0.985 . S
H216 N213 0.984 . S
H217 N213 0.985 . S
H218 N212 0.984 . S
H219 N212 0.984 . S
H220 N208 0.984 . S
H221 N208 0.985 . S
C222 C223 1.363 . S
C222 C228 1.379 . S
C222 N230 1.356 . S
C223 C222 1.363 . S
C223 C229 1.363 . S
C224 C225 1.363 . S
C224 C229 1.379 . S
C224 N231 1.356 . S
C225 C224 1.363 . S
C225 C228 1.363 . S
N226 C228 1.356 . S
N226 H238 0.984 . S
N226 H239 0.985 . S
N227 C229 1.356 . S
N227 H232 0.984 . S
N227 H233 0.985 . S
C228 C222 1.379 . S
C228 C225 1.363 . S
C228 N226 1.356 . S
C229 C223 1.363 . S
C229 C224 1.379 . S
C229 N227 1.356 . S
N230 C222 1.356 . S
N230 H236 0.984 . S
N230 H237 0.984 . S
N231 C224 1.356 . S
N231 H234 0.984 . S
N231 H235 0.985 . S
H232 N227 0.984 . S
H233 N227 0.985 . S
H234 N231 0.984 . S
H235 N231 0.985 . S
H236 N230 0.984 . S
H237 N230 0.984 . S
H238 N226 0.984 . S
H239 N226 0.985 . S
C240 C241 1.363 . S
C240 C246 1.379 . S
C240 N248 1.356 . S
C241 C240 1.363 . S
C241 C247 1.363 . S
C242 C243 1.363 . S
C242 C247 1.379 . S
C242 N249 1.356 . S
C243 C242 1.363 . S
C243 C246 1.363 . S
N244 C246 1.356 . S
N244 H256 0.984 . S
N244 H257 0.985 . S
N245 C247 1.356 . S
N245 H250 0.984 . S
N245 H251 0.985 . S
C246 C240 1.379 . S
C246 C243 1.363 . S
C246 N244 1.356 . S
C247 C241 1.363 . S
C247 C242 1.379 . S
C247 N245 1.356 . S
N248 C240 1.356 . S
N248 H254 0.984 . S
N248 H255 0.984 . S
N249 C242 1.356 . S
N249 H252 0.984 . S
N249 H253 0.985 . S
H250 N245 0.984 . S
H251 N245 0.985 . S
H252 N249 0.984 . S
H253 N249 0.985 . S
H254 N248 0.984 . S
H255 N248 0.984 . S
H256 N244 0.984 . S
H257 N244 0.985 . S
C258 C259 1.363 . S
C258 C264 1.379 1_554 S
C258 N266 1.356 . S
C259 C258 1.363 . S
C259 C265 1.363 . S
C260 C261 1.363 . S
C260 C265 1.379 1_556 S
C260 N267 1.356 . S
C261 C260 1.363 . S
C261 C264 1.363 . S
N262 C264 1.356 . S
N262 H274 0.984 . S
N262 H275 0.985 . S
N263 C265 1.356 . S
N263 H268 0.984 . S
N263 H269 0.985 . S
C264 C258 1.379 1_556 S
C264 C261 1.363 . S
C264 N262 1.356 . S
C265 C259 1.363 . S
C265 C260 1.379 1_554 S
C265 N263 1.356 . S
N266 C258 1.356 . S
N266 H272 0.984 . S
N266 H273 0.984 . S
N267 C260 1.356 . S
N267 H270 0.984 . S
N267 H271 0.985 . S
H268 N263 0.984 . S
H269 N263 0.985 . S
H270 N267 0.984 . S
H271 N267 0.985 . S
H272 N266 0.984 . S
H273 N266 0.984 . S
H274 N262 0.984 . S
H275 N262 0.985 . S
C276 C277 1.363 . S
C276 C282 1.379 . S
C276 N284 1.356 . S
C277 C276 1.363 . S
C277 C283 1.363 1_554 S
C278 C279 1.363 . S
C278 C283 1.379 . S
C278 N285 1.356 . S
C279 C278 1.363 . S
C279 C282 1.363 1_556 S
N280 C282 1.356 . S
N280 H292 0.984 . S
N280 H293 0.985 . S
N281 C283 1.356 . S
N281 H286 0.984 . S
N281 H287 0.985 . S
C282 C276 1.379 . S
C282 C279 1.363 1_554 S
C282 N280 1.356 . S
C283 C277 1.363 1_556 S
C283 C278 1.379 . S
C283 N281 1.356 . S
N284 C276 1.356 . S
N284 H290 0.984 . S
N284 H291 0.984 . S
N285 C278 1.356 . S
N285 H288 0.984 . S
N285 H289 0.985 . S
H286 N281 0.984 . S
H287 N281 0.985 . S
H288 N285 0.984 . S
H289 N285 0.985 . S
H290 N284 0.984 . S
H291 N284 0.984 . S
H292 N280 0.984 . S
H293 N280 0.985 . S
C294 C295 1.363 . S
C294 C300 1.379 . S
C294 N302 1.356 . S
C295 C294 1.363 . S
C295 C301 1.363 . S
C296 C297 1.363 . S
C296 C301 1.379 . S
C296 N303 1.356 . S
C297 C296 1.363 . S
C297 C300 1.363 . S
N298 C300 1.356 . S
N298 H310 0.984 . S
N298 H311 0.985 . S
N299 C301 1.356 . S
N299 H304 0.984 . S
N299 H305 0.985 . S
C300 C294 1.379 . S
C300 C297 1.363 . S
C300 N298 1.356 . S
C301 C295 1.363 . S
C301 C296 1.379 . S
C301 N299 1.356 . S
N302 C294 1.356 . S
N302 H308 0.984 . S
N302 H309 0.984 . S
N303 C296 1.356 . S
N303 H306 0.984 . S
N303 H307 0.985 . S
H304 N299 0.984 . S
H305 N299 0.985 . S
H306 N303 0.984 . S
H307 N303 0.985 . S
H308 N302 0.984 . S
H309 N302 0.984 . S
H310 N298 0.984 . S
H311 N298 0.985 . S
C312 C313 1.363 . S
C312 C318 1.379 . S
C312 N320 1.356 . S
C313 C312 1.363 . S
C313 C319 1.363 . S
C314 C315 1.363 . S
C314 C319 1.379 . S
C314 N321 1.356 . S
C315 C314 1.363 . S
C315 C318 1.363 . S
N316 C318 1.356 . S
N316 H328 0.984 . S
N316 H329 0.985 . S
N317 C319 1.356 . S
N317 H322 0.984 . S
N317 H323 0.985 . S
C318 C312 1.379 . S
C318 C315 1.363 . S
C318 N316 1.356 . S
C319 C313 1.363 . S
C319 C314 1.379 . S
C319 N317 1.356 . S
N320 C312 1.356 . S
N320 H326 0.984 . S
N320 H327 0.984 . S
N321 C314 1.356 . S
N321 H324 0.984 . S
N321 H325 0.985 . S
H322 N317 0.984 . S
H323 N317 0.985 . S
H324 N321 0.984 . S
H325 N321 0.985 . S
H326 N320 0.984 . S
H327 N320 0.984 . S
H328 N316 0.984 . S
H329 N316 0.985 . S
C330 C331 1.363 1_556 S
C330 C336 1.379 . S
C330 N338 1.356 . S
C331 C330 1.363 1_554 S
C331 C337 1.363 . S
C332 C333 1.363 1_554 S
C332 C337 1.379 . S
C332 N339 1.356 . S
C333 C332 1.363 1_556 S
C333 C336 1.363 . S
N334 C336 1.356 . S
N334 H346 0.984 . S
N334 H347 0.985 . S
N335 C337 1.356 . S
N335 H340 0.984 . S
N335 H341 0.985 . S
C336 C330 1.379 . S
C336 C333 1.363 . S
C336 N334 1.356 . S
C337 C331 1.363 . S
C337 C332 1.379 . S
C337 N335 1.356 . S
N338 C330 1.356 . S
N338 H344 0.984 . S
N338 H345 0.984 . S
N339 C332 1.356 . S
N339 H342 0.984 . S
N339 H343 0.985 . S
H340 N335 0.984 . S
H341 N335 0.985 . S
H342 N339 0.984 . S
H343 N339 0.985 . S
H344 N338 0.984 . S
H345 N338 0.984 . S
H346 N334 0.984 . S
H347 N334 0.985 . S
C348 C349 1.363 . S
C348 C354 1.379 . S
C348 N356 1.356 . S
C349 C348 1.363 . S
C349 C355 1.363 . S
C350 C351 1.363 . S
C350 C355 1.379 . S
C350 N357 1.356 . S
C351 C350 1.363 . S
C351 C354 1.363 . S
N352 C354 1.356 . S
N352 H364 0.984 . S
N352 H365 0.985 . S
N353 C355 1.356 . S
N353 H358 0.984 . S
N353 H359 0.985 . S
C354 C348 1.379 . S
C354 C351 1.363 . S
C354 N352 1.356 . S
C355 C349 1.363 . S
C355 C350 1.379 . S
C355 N353 1.356 . S
N356 C348 1.356 . S
N356 H362 0.984 . S
N356 H363 0.984 . S
N357 C350 1.356 . S
N357 H360 0.984 . S
N357 H361 0.985 . S
H358 N353 0.984 . S
H359 N353 0.985 . S
H360 N357 0.984 . S
H361 N357 0.985 . S
H362 N356 0.984 . S
H363 N356 0.984 . S
H364 N352 0.984 . S
H365 N352 0.985 . S
C366 C367 1.363 . S
C366 C372 1.379 . S
C366 N374 1.356 . S
C367 C366 1.363 . S
C367 C373 1.363 . S
C368 C369 1.363 . S
C368 C373 1.379 . S
C368 N375 1.356 . S
C369 C368 1.363 . S
C369 C372 1.363 . S
N370 C372 1.356 . S
N370 H382 0.984 . S
N370 H383 0.985 . S
N371 C373 1.356 . S
N371 H376 0.984 . S
N371 H377 0.985 . S
C372 C366 1.379 . S
C372 C369 1.363 . S
C372 N370 1.356 . S
C373 C367 1.363 . S
C373 C368 1.379 . S
C373 N371 1.356 . S
N374 C366 1.356 . S
N374 H380 0.984 . S
N374 H381 0.984 . S
N375 C368 1.356 . S
N375 H378 0.984 . S
N375 H379 0.985 . S
H376 N371 0.984 . S
H377 N371 0.985 . S
H378 N375 0.984 . S
H379 N375 0.985 . S
H380 N374 0.984 . S
H381 N374 0.984 . S
H382 N370 0.984 . S
H383 N370 0.985 . S
C384 C385 1.363 . S
C384 C390 1.379 . S
C384 N392 1.356 1_554 S
C385 C384 1.363 . S
C385 C391 1.363 . S
C386 C387 1.363 . S
C386 C391 1.379 . S
C386 N393 1.356 . S
C387 C386 1.363 . S
C387 C390 1.363 . S
N388 C390 1.356 1_556 S
N388 H400 0.984 . S
N388 H401 0.985 . S
N389 C391 1.356 . S
N389 H394 0.984 . S
N389 H395 0.985 . S
C390 C384 1.379 . S
C390 C387 1.363 . S
C390 N388 1.356 1_554 S
C391 C385 1.363 . S
C391 C386 1.379 . S
C391 N389 1.356 . S
N392 C384 1.356 1_556 S
N392 H398 0.984 . S
N392 H399 0.984 . S
N393 C386 1.356 . S
N393 H396 0.984 . S
N393 H397 0.985 . S
H394 N389 0.984 . S
H395 N389 0.985 . S
H396 N393 0.984 . S
H397 N393 0.985 . S
H398 N392 0.984 . S
H399 N392 0.984 . S
H400 N388 0.984 . S
H401 N388 0.985 . S
C402 C403 1.363 . S
C402 C408 1.378 1_655 S
C402 N410 1.356 . S
C403 C402 1.363 . S
C403 C409 1.366 . S
C404 C405 1.363 . S
C404 C409 1.378 1_455 S
C404 N411 1.356 . S
C405 C404 1.363 . S
C405 C408 1.366 . S
N406 C408 1.355 . S
N406 H418 0.984 1_455 S
N406 H419 0.985 . S
N407 C409 1.355 . S
N407 H412 0.984 . S
N407 H413 0.985 1_655 S
C408 C402 1.378 1_455 S
C408 C405 1.366 . S
C408 N406 1.355 . S
C409 C403 1.366 . S
C409 C404 1.378 1_655 S
C409 N407 1.355 . S
N410 C402 1.356 . S
N410 H416 0.984 . S
N410 H417 0.984 . S
N411 C404 1.356 . S
N411 H414 0.984 . S
N411 H415 0.985 . S
H412 N407 0.984 . S
H413 N407 0.985 1_455 S
H414 N411 0.984 . S
H415 N411 0.985 . S
H416 N410 0.984 . S
H417 N410 0.984 . S
H418 N406 0.984 1_655 S
H419 N406 0.985 . S
C420 C421 1.367 . S
C420 C426 1.373 1_545 S
C420 N428 1.360 . S
C421 C420 1.367 . S
C421 C427 1.363 . S
C422 C423 1.367 . S
C422 C427 1.372 1_565 S
C422 N429 1.361 . S
C423 C422 1.367 . S
C423 C426 1.363 . S
N424 C426 1.356 . S
N424 H436 0.984 . S
N424 H437 0.985 . S
N425 C427 1.356 . S
N425 H430 0.984 . S
N425 H431 0.985 . S
C426 C420 1.373 1_565 S
C426 C423 1.363 . S
C426 N424 1.356 . S
C427 C421 1.363 . S
C427 C422 1.372 1_545 S
C427 N425 1.356 . S
N428 C420 1.360 . S
N428 H434 0.984 1_545 S
N428 H435 0.984 . S
N429 C422 1.361 . S
N429 H432 0.984 . S
N429 H433 0.985 1_565 S
H430 N425 0.984 . S
H431 N425 0.985 . S
H432 N429 0.984 . S
H433 N429 0.985 1_545 S
H434 N428 0.984 1_565 S
H435 N428 0.984 . S
H436 N424 0.984 . S
H437 N424 0.985 . S
C438 C439 1.363 . S
C438 C444 1.379 . S
C438 N446 1.356 . S
C439 C438 1.363 . S
C439 C445 1.363 . S
C440 C441 1.363 . S
C440 C445 1.379 . S
C440 N447 1.356 . S
C441 C440 1.363 . S
C441 C444 1.363 . S
N442 C444 1.356 . S
N442 H454 0.984 . S
N442 H455 0.985 . S
N443 C445 1.356 . S
N443 H448 0.984 . S
N443 H449 0.985 . S
C444 C438 1.379 . S
C444 C441 1.363 . S
C444 N442 1.356 . S
C445 C439 1.363 . S
C445 C440 1.379 . S
C445 N443 1.356 . S
N446 C438 1.356 . S
N446 H452 0.984 . S
N446 H453 0.984 . S
N447 C440 1.356 . S
N447 H450 0.984 . S
N447 H451 0.985 . S
H448 N443 0.984 . S
H449 N443 0.985 . S
H450 N447 0.984 . S
H451 N447 0.985 . S
H452 N446 0.984 . S
H453 N446 0.984 . S
H454 N442 0.984 . S
H455 N442 0.985 . S
C456 C457 1.363 . S
C456 C462 1.369 1_455 S
C456 N464 1.356 . S
C457 C456 1.363 . S
C457 C463 1.369 . S
C458 C459 1.363 . S
C458 C463 1.369 1_655 S
C458 N465 1.356 1_556 S
C459 C458 1.363 . S
C459 C462 1.369 . S
N460 C462 1.362 . S
N460 H472 0.984 1_655 S
N460 H473 0.985 . S
N461 C463 1.362 1_554 S
N461 H466 0.984 . S
N461 H467 0.985 1_455 S
C462 C456 1.369 1_655 S
C462 C459 1.369 . S
C462 N460 1.362 . S
C463 C457 1.369 . S
C463 C458 1.369 1_455 S
C463 N461 1.362 1_556 S
N464 C456 1.356 . S
N464 H470 0.984 . S
N464 H471 0.984 . S
N465 C458 1.356 1_554 S
N465 H468 0.984 . S
N465 H469 0.985 . S
H466 N461 0.984 . S
H467 N461 0.985 1_655 S
H468 N465 0.984 . S
H469 N465 0.985 . S
H470 N464 0.984 . S
H471 N464 0.984 . S
H472 N460 0.984 1_455 S
H473 N460 0.985 . S
C474 C475 1.369 . S
C474 C480 1.376 1_565 S
C474 N482 1.355 . S
C475 C474 1.369 . S
C475 C481 1.363 . S
C476 C477 1.369 . S
C476 C481 1.376 1_545 S
C476 N483 1.354 . S
C477 C476 1.369 . S
C477 C480 1.363 . S
N478 C480 1.356 . S
N478 H490 0.984 . S
N478 H491 0.985 . S
N479 C481 1.356 . S
N479 H484 0.984 . S
N479 H485 0.985 . S
C480 C474 1.376 1_545 S
C480 C477 1.363 . S
C480 N478 1.356 . S
C481 C475 1.363 . S
C481 C476 1.376 1_565 S
C481 N479 1.356 . S
N482 C474 1.355 . S
N482 H488 0.984 1_565 S
N482 H489 0.984 . S
N483 C476 1.354 . S
N483 H486 0.984 . S
N483 H487 0.985 1_545 S
H484 N479 0.984 . S
H485 N479 0.985 . S
H486 N483 0.984 . S
H487 N483 0.985 1_565 S
H488 N482 0.984 1_545 S
H489 N482 0.984 . S
H490 N478 0.984 . S
H491 N478 0.985 . S
C492 C493 1.363 . S
C492 C498 1.379 . S
C492 N500 1.356 . S
C493 C492 1.363 . S
C493 C499 1.363 . S
C494 C495 1.363 . S
C494 C499 1.379 . S
C494 N501 1.356 . S
C495 C494 1.363 . S
C495 C498 1.363 . S
N496 C498 1.356 . S
N496 H508 0.984 . S
N496 H509 0.985 . S
N497 C499 1.356 . S
N497 H502 0.984 . S
N497 H503 0.985 . S
C498 C492 1.379 . S
C498 C495 1.363 . S
C498 N496 1.356 . S
C499 C493 1.363 . S
C499 C494 1.379 . S
C499 N497 1.356 . S
N500 C492 1.356 . S
N500 H506 0.984 . S
N500 H507 0.984 . S
N501 C494 1.356 . S
N501 H504 0.984 . S
N501 H505 0.985 . S
H502 N497 0.984 . S
H503 N497 0.985 . S
H504 N501 0.984 . S
H505 N501 0.985 . S
H506 N500 0.984 . S
H507 N500 0.984 . S
H508 N496 0.984 . S
H509 N496 0.985 . S
C510 C511 1.363 . S
C510 C516 1.379 . S
C510 N518 1.356 . S
C511 C510 1.363 . S
C511 C517 1.363 . S
C512 C513 1.363 . S
C512 C517 1.379 . S
C512 N519 1.356 . S
C513 C512 1.363 . S
C513 C516 1.363 . S
N514 C516 1.356 . S
N514 H526 0.984 . S
N514 H527 0.985 . S
N515 C517 1.356 . S
N515 H520 0.984 . S
N515 H521 0.985 . S
C516 C510 1.379 . S
C516 C513 1.363 . S
C516 N514 1.356 . S
C517 C511 1.363 . S
C517 C512 1.379 . S
C517 N515 1.356 . S
N518 C510 1.356 . S
N518 H524 0.984 . S
N518 H525 0.984 . S
N519 C512 1.356 . S
N519 H522 0.984 . S
N519 H523 0.985 . S
H520 N515 0.984 . S
H521 N515 0.985 . S
H522 N519 0.984 . S
H523 N519 0.985 . S
H524 N518 0.984 . S
H525 N518 0.984 . S
H526 N514 0.984 . S
H527 N514 0.985 . S
C528 C529 1.363 . S
C528 C534 1.379 . S
C528 N536 1.356 . S
C529 C528 1.363 . S
C529 C535 1.363 . S
C530 C531 1.363 . S
C530 C535 1.379 . S
C530 N537 1.356 . S
C531 C530 1.363 . S
C531 C534 1.363 . S
N532 C534 1.356 . S
N532 H544 0.984 . S
N532 H545 0.985 . S
N533 C535 1.356 . S
N533 H538 0.984 . S
N533 H539 0.985 . S
C534 C528 1.379 . S
C534 C531 1.363 . S
C534 N532 1.356 . S
C535 C529 1.363 . S
C535 C530 1.379 . S
C535 N533 1.356 . S
N536 C528 1.356 . S
N536 H542 0.984 . S
N536 H543 0.984 . S
N537 C530 1.356 . S
N537 H540 0.984 . S
N537 H541 0.985 . S
H538 N533 0.984 . S
H539 N533 0.985 . S
H540 N537 0.984 . S
H541 N537 0.985 . S
H542 N536 0.984 . S
H543 N536 0.984 . S
H544 N532 0.984 . S
H545 N532 0.985 . S
C546 C547 1.363 . S
C546 C552 1.379 . S
C546 N554 1.356 . S
C547 C546 1.363 . S
C547 C553 1.363 . S
C548 C549 1.363 . S
C548 C553 1.379 . S
C548 N555 1.356 . S
C549 C548 1.363 . S
C549 C552 1.363 . S
N550 C552 1.356 . S
N550 H562 0.984 . S
N550 H563 0.985 . S
N551 C553 1.356 . S
N551 H556 0.984 . S
N551 H557 0.985 . S
C552 C546 1.379 . S
C552 C549 1.363 . S
C552 N550 1.356 . S
C553 C547 1.363 . S
C553 C548 1.379 . S
C553 N551 1.356 . S
N554 C546 1.356 . S
N554 H560 0.984 . S
N554 H561 0.984 . S
N555 C548 1.356 . S
N555 H558 0.984 . S
N555 H559 0.985 . S
H556 N551 0.984 . S
H557 N551 0.985 . S
H558 N555 0.984 . S
H559 N555 0.985 . S
H560 N554 0.984 . S
H561 N554 0.984 . S
H562 N550 0.984 . S
H563 N550 0.985 . S
C564 C565 1.363 . S
C564 C570 1.379 . S
C564 N572 1.356 . S
C565 C564 1.363 . S
C565 C571 1.363 . S
C566 C567 1.363 . S
C566 C571 1.379 . S
C566 N573 1.356 . S
C567 C566 1.363 . S
C567 C570 1.363 . S
N568 C570 1.356 . S
N568 H580 0.984 . S
N568 H581 0.985 . S
N569 C571 1.356 . S
N569 H574 0.984 . S
N569 H575 0.985 . S
C570 C564 1.379 . S
C570 C567 1.363 . S
C570 N568 1.356 . S
C571 C565 1.363 . S
C571 C566 1.379 . S
C571 N569 1.356 . S
N572 C564 1.356 . S
N572 H578 0.984 . S
N572 H579 0.984 . S
N573 C566 1.356 . S
N573 H576 0.984 . S
N573 H577 0.985 . S
H574 N569 0.984 . S
H575 N569 0.985 . S
H576 N573 0.984 . S
H577 N573 0.985 . S
H578 N572 0.984 . S
H579 N572 0.984 . S
H580 N568 0.984 . S
H581 N568 0.985 . S
C582 C583 1.363 . S
C582 C588 1.379 . S
C582 N590 1.356 . S
C583 C582 1.363 . S
C583 C589 1.363 . S
C584 C585 1.363 . S
C584 C589 1.379 . S
C584 N591 1.356 . S
C585 C584 1.363 . S
C585 C588 1.363 . S
N586 C588 1.356 . S
N586 H598 0.984 . S
N586 H599 0.985 . S
N587 C589 1.356 . S
N587 H592 0.984 . S
N587 H593 0.985 . S
C588 C582 1.379 . S
C588 C585 1.363 . S
C588 N586 1.356 . S
C589 C583 1.363 . S
C589 C584 1.379 . S
C589 N587 1.356 . S
N590 C582 1.356 . S
N590 H596 0.984 . S
N590 H597 0.984 . S
N591 C584 1.356 . S
N591 H594 0.984 . S
N591 H595 0.985 . S
H592 N587 0.984 . S
H593 N587 0.985 . S
H594 N591 0.984 . S
H595 N591 0.985 . S
H596 N590 0.984 . S
H597 N590 0.984 . S
H598 N586 0.984 . S
H599 N586 0.985 . S
C169 C6 1.468 . S
C171 C90 1.468 . S
C187 C20 1.468 . S
C189 C104 1.468 . S
C205 C34 1.468 . S
C207 C118 1.468 . S
C223 C48 1.468 . S
C225 C132 1.468 . S
C241 C62 1.468 . S
C243 C146 1.468 . S
C259 C160 1.468 . S
C261 C76 1.468 . S
C277 C7 1.465 . S
C279 C147 1.465 . S
C295 C21 1.466 . S
C297 C161 1.466 . S
C313 C35 1.466 . S
C315 C91 1.466 . S
C331 C49 1.466 . S
C333 C105 1.466 . S
C349 C63 1.466 . S
C351 C119 1.466 . S
C367 C77 1.466 . S
C369 C133 1.466 . S
C385 C8 1.336 . S
C387 C50 1.336 . S
C403 C22 1.339 . S
C405 C64 1.338 . S
C421 C78 1.338 . S
C423 C36 1.338 . S
C439 C92 1.338 . S
C441 C134 1.338 . S
C457 C148 1.336 . S
C459 C106 1.336 . S
C475 C120 1.336 . S
C477 C162 1.336 . S
C493 C93 1.334 . S
C495 C9 1.334 . S
C511 C23 1.334 . S
C513 C107 1.334 . S
C529 C37 1.334 . S
C531 C121 1.334 . S
C547 C135 1.334 . S
C549 C51 1.335 . S
C565 C149 1.334 . S
C567 C65 1.334 . S
C583 C79 1.334 . S
C585 C163 1.334 . S
