# Generated by pormake.
# Topology fni, (5)-cn, num edge types: 1
# Building blocks:
#     Node 0, Type 0, BuildingBlock: XOMCOT_clean_sbu_1, # of connection points: 5
#     Node 1, Type 0, BuildingBlock: XOMCOT_clean_sbu_1, # of connection points: 5
#     Node 2, Type 0, BuildingBlock: XOMCOT_clean_sbu_1, # of connection points: 5
#     Node 3, Type 0, BuildingBlock: XOMCOT_clean_sbu_1, # of connection points: 5
#     Node 4, Type 0, BuildingBlock: XOMCOT_clean_sbu_1, # of connection points: 5
#     Node 5, Type 0, BuildingBlock: XOMCOT_clean_sbu_1, # of connection points: 5
#     Node 6, Type 0, BuildingBlock: XOMCOT_clean_sbu_1, # of connection points: 5
#     Node 7, Type 0, BuildingBlock: XOMCOT_clean_sbu_1, # of connection points: 5
#     Edge 8, Type (0, 0), BuildingBlock: UVAHIK_clean_linker_0, # of connection points: 2
#     Edge 9, Type (0, 0), BuildingBlock: UVAHIK_clean_linker_0, # of connection points: 2
#     Edge 10, Type (0, 0), BuildingBlock: UVAHIK_clean_linker_0, # of connection points: 2
#     Edge 11, Type (0, 0), BuildingBlock: UVAHIK_clean_linker_0, # of connection points: 2
#     Edge 12, Type (0, 0), BuildingBlock: UVAHIK_clean_linker_0, # of connection points: 2
#     Edge 13, Type (0, 0), BuildingBlock: UVAHIK_clean_linker_0, # of connection points: 2
#     Edge 14, Type (0, 0), BuildingBlock: UVAHIK_clean_linker_0, # of connection points: 2
#     Edge 15, Type (0, 0), BuildingBlock: UVAHIK_clean_linker_0, # of connection points: 2
#     Edge 16, Type (0, 0), BuildingBlock: UVAHIK_clean_linker_0, # of connection points: 2
#     Edge 17, Type (0, 0), BuildingBlock: UVAHIK_clean_linker_0, # of connection points: 2
#     Edge 18, Type (0, 0), BuildingBlock: UVAHIK_clean_linker_0, # of connection points: 2
#     Edge 19, Type (0, 0), BuildingBlock: UVAHIK_clean_linker_0, # of connection points: 2
#     Edge 20, Type (0, 0), BuildingBlock: UVAHIK_clean_linker_0, # of connection points: 2
#     Edge 21, Type (0, 0), BuildingBlock: UVAHIK_clean_linker_0, # of connection points: 2
#     Edge 22, Type (0, 0), BuildingBlock: UVAHIK_clean_linker_0, # of connection points: 2
#     Edge 23, Type (0, 0), BuildingBlock: UVAHIK_clean_linker_0, # of connection points: 2
#     Edge 24, Type (0, 0), BuildingBlock: UVAHIK_clean_linker_0, # of connection points: 2
#     Edge 25, Type (0, 0), BuildingBlock: UVAHIK_clean_linker_0, # of connection points: 2
#     Edge 26, Type (0, 0), BuildingBlock: UVAHIK_clean_linker_0, # of connection points: 2
#     Edge 27, Type (0, 0), BuildingBlock: UVAHIK_clean_linker_0, # of connection points: 2
# Relax obj value: 0.162
# Max RMSD: 0.170
# Mean RMSD: 0.163
data_MOF--net-fni--node1-XOMCOT_clean_sbu_1--edge1-UVAHIK_clean_linker_0
_symmetry_space_group_name_H-M    P1
_symmetry_Int_Tables_number       1
_symmetry_cell_setting            triclinic
loop_
_symmetry_equiv_pos_as_xyz
'x, y, z'
_cell_length_a     68.787852
_cell_length_b     67.026494
_cell_length_c     21.982393
_cell_angle_alpha  93.756271
_cell_angle_beta   93.938166
_cell_angle_gamma 90.144969
loop_
_atom_site_label
_atom_site_type_symbol
_atom_site_fract_x
_atom_site_fract_y
_atom_site_fract_z
_atom_type_partial_charge
C0 C 0.41403 0.39707 0.08944 0.0
C1 C 0.41221 0.39991 0.15137 0.0
N2 N 0.42296 0.386 0.17952 0.0
N3 N 0.42568 0.3813 0.07856 0.0
C4 C 0.43111 0.37503 0.13433 0.0
H5 H 0.40713 0.4058 0.05444 0.0
Co6 Co 0.43181 0.37095 0.00184 0.0
C7 C 0.43347 0.32712 0.01046 0.0
O8 O 0.42487 0.32499 0.95512 0.0
N9 N 0.43867 0.36099 0.92343 0.0
C10 C 0.45708 0.34733 0.85246 0.0
C11 C 0.4548 0.35006 0.91397 0.0
C12 C 0.43176 0.36519 0.8665 0.0
N13 N 0.4426 0.35696 0.82241 0.0
O14 O 0.45822 0.37974 0.01993 0.0
H15 H 0.46465 0.34481 0.94986 0.0
H16 H 0.41978 0.37507 0.8572 0.0
O17 O 0.43734 0.3447 0.03486 0.0
C18 C 0.4604 0.3961 0.99461 0.0
O19 O 0.44537 0.4032 0.96289 0.0
N20 N 0.40523 0.36448 0.98421 0.0
C21 C 0.36448 0.36424 0.97076 0.0
C22 C 0.37446 0.35099 0.00842 0.0
C23 C 0.39481 0.35165 0.01562 0.0
C24 C 0.39569 0.37771 0.94857 0.0
C25 C 0.37543 0.37753 0.93992 0.0
H26 H 0.40188 0.34288 0.05 0.0
H27 H 0.40374 0.38953 0.93028 0.0
H28 H 0.44058 0.36244 0.14164 0.0
H29 H 0.4037 0.41139 0.17388 0.0
H30 H 0.46875 0.33916 0.83184 0.0
H31 H 0.3666 0.34112 0.03532 0.0
H32 H 0.3684 0.38832 0.9113 0.0
C33 C 0.62093 0.93505 0.29895 0.0
C34 C 0.62333 0.93608 0.23759 0.0
N35 N 0.60874 0.92567 0.20591 0.0
N36 N 0.60506 0.92382 0.30581 0.0
C37 C 0.59782 0.91847 0.24842 0.0
H38 H 0.63008 0.94214 0.33621 0.0
Co39 Co 0.59514 0.91821 0.37905 0.0
C40 C 0.58511 0.87547 0.36743 0.0
O41 O 0.59231 0.87436 0.42406 0.0
N42 N 0.58429 0.91312 0.4539 0.0
C43 C 0.56185 0.90528 0.51725 0.0
C44 C 0.56568 0.90694 0.45724 0.0
C45 C 0.59122 0.9156 0.51312 0.0
N46 N 0.57801 0.9107 0.55246 0.0
O47 O 0.57146 0.93091 0.35371 0.0
H48 H 0.55546 0.9037 0.41817 0.0
H49 H 0.60541 0.92145 0.52817 0.0
O50 O 0.58524 0.89223 0.34264 0.0
C51 C 0.57098 0.94916 0.3735 0.0
O52 O 0.58585 0.95651 0.40877 0.0
N53 N 0.61948 0.90715 0.40327 0.0
C54 C 0.65839 0.89657 0.4327 0.0
C55 C 0.64706 0.88617 0.38491 0.0
C56 C 0.62778 0.89169 0.37092 0.0
C57 C 0.63063 0.9184 0.44615 0.0
C58 C 0.64958 0.91282 0.46388 0.0
H59 H 0.62004 0.88428 0.33136 0.0
H60 H 0.62506 0.93233 0.46518 0.0
H61 H 0.5848 0.90945 0.23805 0.0
H62 H 0.63466 0.94426 0.21787 0.0
H63 H 0.54827 0.9003 0.53343 0.0
H64 H 0.65308 0.87441 0.35607 0.0
H65 H 0.65719 0.92174 0.50075 0.0
C66 C 0.05773 0.12175 0.45346 0.0
C67 C 0.05567 0.12344 0.3914 0.0
N68 N 0.07119 0.11484 0.36644 0.0
N69 N 0.07456 0.11231 0.46753 0.0
C70 C 0.08238 0.10813 0.41359 0.0
H71 H 0.04759 0.12699 0.48632 0.0
Co72 Co 0.0838 0.10647 0.54536 0.0
C73 C 0.12564 0.11644 0.55321 0.0
O74 O 0.12344 0.12494 0.6079 0.0
N75 N 0.09292 0.09977 0.62426 0.0
C76 C 0.10962 0.08336 0.69548 0.0
C77 C 0.10683 0.0859 0.63413 0.0
C78 C 0.08712 0.10497 0.68069 0.0
N79 N 0.09719 0.09538 0.72484 0.0
O80 O 0.08307 0.07846 0.52111 0.0
H81 H 0.1145 0.07801 0.59865 0.0
H82 H 0.07529 0.11495 0.68971 0.0
O83 O 0.11094 0.10826 0.52212 0.0
C84 C 0.06633 0.07029 0.51157 0.0
O85 O 0.05073 0.08146 0.51486 0.0
N86 N 0.08309 0.1342 0.5686 0.0
C87 C 0.07846 0.17488 0.60053 0.0
C88 C 0.09212 0.16847 0.55918 0.0
C89 C 0.09378 0.14815 0.54238 0.0
C90 C 0.06845 0.14035 0.60405 0.0
C91 C 0.06614 0.16057 0.6218 0.0
H92 H 0.10337 0.1438 0.50707 0.0
H93 H 0.05815 0.12954 0.61747 0.0
H94 H 0.09608 0.10045 0.40907 0.0
H95 H 0.04351 0.13013 0.36648 0.0
H96 H 0.12007 0.07345 0.71662 0.0
H97 H 0.10117 0.17913 0.53888 0.0
H98 H 0.05489 0.1649 0.65208 0.0
C99 C 0.85978 0.59051 0.73084 0.0
C100 C 0.85768 0.58866 0.66804 0.0
N101 N 0.87151 0.59994 0.64596 0.0
N102 N 0.87474 0.60306 0.74843 0.0
C103 C 0.8817 0.60841 0.69586 0.0
H104 H 0.851 0.58312 0.76169 0.0
Co105 Co 0.88405 0.61027 0.82808 0.0
C106 C 0.89304 0.65369 0.82866 0.0
O107 O 0.88582 0.6567 0.88232 0.0
N108 N 0.8941 0.61714 0.90931 0.0
C109 C 0.91543 0.62686 0.98673 0.0
C110 C 0.9121 0.62491 0.92422 0.0
C111 C 0.88707 0.614 0.96398 0.0
N112 N 0.89966 0.61991 0.01164 0.0
O113 O 0.9085 0.5985 0.81134 0.0
H114 H 0.92234 0.62869 0.8915 0.0
H115 H 0.87313 0.6073 0.96963 0.0
O116 O 0.89285 0.63609 0.80232 0.0
C117 C 0.90886 0.58057 0.82718 0.0
O118 O 0.89342 0.57358 0.85104 0.0
N119 N 0.85913 0.61988 0.84427 0.0
C120 C 0.82021 0.62665 0.86663 0.0
C121 C 0.83008 0.63949 0.83117 0.0
C122 C 0.84961 0.63572 0.81989 0.0
C123 C 0.84914 0.60651 0.87449 0.0
C124 C 0.82991 0.6099 0.88785 0.0
H125 H 0.85668 0.64507 0.78981 0.0
H126 H 0.85611 0.59282 0.88729 0.0
H127 H 0.89433 0.61795 0.69437 0.0
H128 H 0.84667 0.57979 0.64096 0.0
H129 H 0.92867 0.63236 0.01179 0.0
H130 H 0.82275 0.6522 0.81218 0.0
H131 H 0.82249 0.59917 0.91306 0.0
C132 C 0.35881 0.0907 0.21935 0.0
C133 C 0.35621 0.08968 0.15664 0.0
N134 N 0.36974 0.10146 0.13526 0.0
N135 N 0.37372 0.10328 0.23747 0.0
C136 C 0.38024 0.10941 0.18518 0.0
H137 H 0.35051 0.08253 0.24968 0.0
Co138 Co 0.38344 0.10947 0.31737 0.0
C139 C 0.39355 0.15276 0.32361 0.0
O140 O 0.38702 0.15504 0.37843 0.0
N141 N 0.39379 0.11523 0.3985 0.0
C142 C 0.41541 0.12363 0.47611 0.0
C143 C 0.41219 0.12178 0.41365 0.0
C144 C 0.38631 0.11278 0.45292 0.0
N145 N 0.39909 0.11794 0.50092 0.0
O146 O 0.40765 0.0976 0.29843 0.0
H147 H 0.42266 0.1251 0.38112 0.0
H148 H 0.37201 0.10676 0.45777 0.0
O149 O 0.3925 0.13559 0.29438 0.0
C150 C 0.4073 0.07923 0.30989 0.0
O151 O 0.39134 0.07206 0.33017 0.0
N152 N 0.35873 0.11907 0.33572 0.0
C153 C 0.31929 0.12436 0.35391 0.0
C154 C 0.32981 0.13907 0.32731 0.0
C155 C 0.34949 0.13588 0.31699 0.0
C156 C 0.34851 0.1046 0.36068 0.0
C157 C 0.32888 0.10698 0.37069 0.0
H158 H 0.35681 0.14647 0.29145 0.0
H159 H 0.35558 0.09071 0.37101 0.0
H160 H 0.39249 0.11947 0.18371 0.0
H161 H 0.34554 0.08058 0.12889 0.0
H162 H 0.42875 0.12888 0.50105 0.0
H163 H 0.32266 0.15242 0.31214 0.0
H164 H 0.32121 0.09518 0.39071 0.0
C165 C 0.91884 0.89762 0.59044 0.0
C166 C 0.91781 0.90068 0.65267 0.0
N167 N 0.92846 0.88649 0.68007 0.0
N168 N 0.92996 0.88152 0.57859 0.0
C169 C 0.9358 0.8752 0.63394 0.0
H170 H 0.91163 0.90631 0.55589 0.0
Co171 Co 0.93511 0.87068 0.50159 0.0
C172 C 0.93485 0.82709 0.51137 0.0
O173 O 0.92535 0.82548 0.45729 0.0
N174 N 0.94118 0.86012 0.42265 0.0
C175 C 0.95878 0.84527 0.35119 0.0
C176 C 0.95656 0.84806 0.41278 0.0
C177 C 0.93484 0.86504 0.36586 0.0
N178 N 0.94515 0.85608 0.32176 0.0
O179 O 0.9618 0.87893 0.51652 0.0
H180 H 0.96611 0.84225 0.44846 0.0
H181 H 0.92351 0.87562 0.35623 0.0
O182 O 0.94012 0.8444 0.53517 0.0
C183 C 0.96294 0.89545 0.49127 0.0
O184 O 0.94697 0.90254 0.46448 0.0
N185 N 0.90828 0.86483 0.48673 0.0
C186 C 0.86734 0.86499 0.47432 0.0
C187 C 0.87742 0.85341 0.51728 0.0
C188 C 0.89781 0.8536 0.52292 0.0
C189 C 0.89875 0.87689 0.44736 0.0
C190 C 0.87853 0.87641 0.43799 0.0
H191 H 0.90502 0.84588 0.55961 0.0
H192 H 0.90671 0.88811 0.42624 0.0
H193 H 0.94533 0.8626 0.64023 0.0
H194 H 0.90943 0.91215 0.67565 0.0
H195 H 0.97021 0.83685 0.33 0.0
H196 H 0.8698 0.8451 0.54893 0.0
H197 H 0.87193 0.8857 0.40403 0.0
C198 C 0.12031 0.43353 0.79001 0.0
C199 C 0.1233 0.43375 0.72893 0.0
N200 N 0.11011 0.42143 0.69738 0.0
N201 N 0.10541 0.42104 0.79712 0.0
C202 C 0.09941 0.41395 0.74006 0.0
H203 H 0.12811 0.44236 0.82683 0.0
Co204 Co 0.09497 0.41737 0.87069 0.0
C205 C 0.08189 0.37542 0.86698 0.0
O206 O 0.08787 0.37531 0.92501 0.0
N207 N 0.08384 0.41447 0.94621 0.0
C208 C 0.06106 0.41094 0.0122 0.0
C209 C 0.06454 0.41199 0.95174 0.0
C210 C 0.09171 0.41495 0.00447 0.0
N211 N 0.07821 0.41279 0.04548 0.0
O212 O 0.07197 0.43077 0.84237 0.0
H213 H 0.05357 0.41085 0.91398 0.0
H214 H 0.10703 0.41647 0.01717 0.0
O215 O 0.08387 0.39132 0.83862 0.0
C216 C 0.07268 0.44943 0.8575 0.0
O217 O 0.08833 0.45671 0.88903 0.0
N218 N 0.11871 0.40575 0.89749 0.0
C219 C 0.15751 0.39541 0.92603 0.0
C220 C 0.14528 0.38284 0.88657 0.0
C221 C 0.12607 0.38847 0.87191 0.0
C222 C 0.13061 0.41844 0.93408 0.0
C223 C 0.14983 0.41335 0.9503 0.0
H224 H 0.11771 0.37948 0.83693 0.0
H225 H 0.12523 0.43292 0.94957 0.0
H226 H 0.0872 0.4038 0.73011 0.0
H227 H 0.13387 0.44295 0.70934 0.0
H228 H 0.04693 0.40921 0.03006 0.0
H229 H 0.1508 0.36932 0.86436 0.0
H230 H 0.1587 0.42368 0.98043 0.0
C231 C 0.5592 0.6182 0.98551 0.0
C232 C 0.55643 0.61943 0.92336 0.0
N233 N 0.57235 0.61209 0.89734 0.0
N234 N 0.57683 0.61029 0.99873 0.0
C235 C 0.58444 0.60654 0.94425 0.0
H236 H 0.5491 0.62294 0.0191 0.0
Co237 Co 0.58713 0.60597 0.07647 0.0
C238 C 0.62928 0.61397 0.07724 0.0
O239 O 0.62819 0.62311 0.13166 0.0
N240 N 0.59718 0.60078 0.15608 0.0
C241 C 0.61381 0.58528 0.2296 0.0
C242 C 0.6107 0.58664 0.16768 0.0
C243 C 0.59186 0.60729 0.21208 0.0
N244 N 0.60188 0.59824 0.25741 0.0
O245 O 0.58504 0.57772 0.05778 0.0
H246 H 0.61767 0.57759 0.13301 0.0
H247 H 0.58063 0.6181 0.22024 0.0
O248 O 0.61387 0.60635 0.04869 0.0
C249 C 0.56946 0.57101 0.07733 0.0
O250 O 0.55777 0.5838 0.10405 0.0
N251 N 0.58734 0.63395 0.09434 0.0
C252 C 0.58201 0.67507 0.11638 0.0
C253 C 0.59608 0.6678 0.07747 0.0
C254 C 0.59815 0.64721 0.06573 0.0
C255 C 0.57265 0.6408 0.1285 0.0
C256 C 0.57001 0.66125 0.14133 0.0
H257 H 0.60791 0.64211 0.03174 0.0
H258 H 0.56249 0.63032 0.14439 0.0
H259 H 0.59847 0.59964 0.93916 0.0
H260 H 0.54378 0.62561 0.89953 0.0
H261 H 0.62353 0.575 0.25229 0.0
H262 H 0.60496 0.67794 0.0546 0.0
H263 H 0.55859 0.66613 0.17032 0.0
C264 C 0.57526 0.53531 0.03907 0.0
C265 C 0.56446 0.54942 0.07262 0.0
C266 C 0.56971 0.51506 0.034 0.0
C267 C 0.53827 0.47827 0.10287 0.0
H268 H 0.53351 0.45229 0.93981 0.0
C269 C 0.49244 0.40616 0.05111 0.0
C270 C 0.47884 0.40767 0.00098 0.0
C271 C 0.50825 0.41958 0.06045 0.0
C272 C 0.53486 0.45926 0.98578 0.0
H273 H 0.5397 0.55322 0.12832 0.0
H274 H 0.53003 0.51838 0.119 0.0
H275 H 0.55105 0.48401 0.95787 0.0
H276 H 0.47186 0.42336 0.91915 0.0
H277 H 0.49902 0.44654 0.93535 0.0
H278 H 0.5209 0.45431 0.12995 0.0
C279 C 0.5429 0.52271 0.0972 0.0
C280 C 0.5451 0.47736 0.99625 0.0
C281 C 0.54835 0.54281 0.10196 0.0
C282 C 0.482 0.42192 0.95855 0.0
C283 C 0.49776 0.43512 0.96752 0.0
C284 C 0.52797 0.46022 0.09237 0.0
C285 C 0.55339 0.50856 0.0629 0.0
C286 C 0.54621 0.4875 0.0544 0.0
C287 C 0.51081 0.43452 0.01939 0.0
C288 C 0.52543 0.45093 0.03315 0.0
H289 H 0.58779 0.53994 0.01609 0.0
H290 H 0.57813 0.50452 0.00734 0.0
H291 H 0.53921 0.48549 0.14854 0.0
H292 H 0.49035 0.39531 0.08453 0.0
H293 H 0.51814 0.41862 0.10065 0.0
C294 C 0.42391 0.04679 0.32487 0.0
C295 C 0.42444 0.06612 0.30387 0.0
C296 C 0.43999 0.03427 0.32162 0.0
C297 C 0.47208 0.00645 0.28676 0.0
H298 H 0.52346 0.02909 0.32915 0.0
C299 C 0.54056 0.95657 0.30905 0.0
C300 C 0.55435 0.96217 0.35731 0.0
C301 C 0.52525 0.96942 0.29334 0.0
C302 C 0.5092 0.02248 0.31757 0.0
H303 H 0.44221 0.08738 0.26185 0.0
H304 H 0.47038 0.06524 0.25493 0.0
H305 H 0.4956 0.05115 0.31866 0.0
H306 H 0.56273 0.98544 0.42753 0.0
H307 H 0.53585 0.00736 0.40186 0.0
H308 H 0.48545 0.97775 0.28942 0.0
C309 C 0.45754 0.05991 0.27491 0.0
C310 C 0.49323 0.03519 0.31057 0.0
C311 C 0.4414 0.07258 0.2786 0.0
C312 C 0.55244 0.98073 0.38977 0.0
C313 C 0.53708 0.99343 0.37459 0.0
C314 C 0.488 0.99374 0.29444 0.0
C315 C 0.45704 0.04061 0.29669 0.0
C316 C 0.47438 0.02732 0.29652 0.0
C317 C 0.52332 0.98803 0.32599 0.0
C318 C 0.50672 0.00157 0.31134 0.0
H319 H 0.41114 0.04134 0.345 0.0
H320 H 0.43915 0.01976 0.34025 0.0
H321 H 0.45785 0.99985 0.27455 0.0
H322 H 0.54176 0.94241 0.28291 0.0
H323 H 0.51506 0.96483 0.25525 0.0
C324 C 0.99636 0.90647 0.5361 0.0
C325 C 0.98133 0.90678 0.48955 0.0
C326 C 0.01222 0.9198 0.53708 0.0
C327 C 0.03571 0.95609 0.44119 0.0
H328 H 0.04592 0.98762 0.59431 0.0
C329 C 0.04852 0.04048 0.46282 0.0
C330 C 0.06401 0.04842 0.50183 0.0
C331 C 0.04445 0.02002 0.4591 0.0
C332 C 0.04358 0.97869 0.55152 0.0
H333 H 0.9717 0.9202 0.40566 0.0
H334 H 0.99884 0.94316 0.40741 0.0
H335 H 0.02777 0.95615 0.59268 0.0
H336 H 0.08762 0.04132 0.56703 0.0
H337 H 0.07995 0.00532 0.5623 0.0
H338 H 0.05005 0.97955 0.39943 0.0
C339 C 0.99874 0.93277 0.4431 0.0
C340 C 0.03323 0.96062 0.55054 0.0
C341 C 0.98298 0.91971 0.44245 0.0
C342 C 0.07573 0.03546 0.53606 0.0
C343 C 0.0713 0.01497 0.53364 0.0
C344 C 0.04575 0.97425 0.44208 0.0
C345 C 0.01338 0.93337 0.49103 0.0
C346 C 0.0284 0.94957 0.49486 0.0
C347 C 0.05549 0.00715 0.49553 0.0
C348 C 0.04912 0.98606 0.49685 0.0
H349 H 0.99539 0.89666 0.57304 0.0
H350 H 0.02331 0.91981 0.57451 0.0
H351 H 0.03269 0.9477 0.39773 0.0
H352 H 0.03925 0.0502 0.43616 0.0
H353 H 0.03206 0.01438 0.42984 0.0
C354 C 0.05617 0.4824 0.86937 0.0
C355 C 0.05618 0.46279 0.84255 0.0
C356 C 0.04059 0.49513 0.85717 0.0
C357 C 0.01027 0.52296 0.80609 0.0
H358 H 0.95805 0.50074 0.79751 0.0
C359 C 0.94145 0.57285 0.78557 0.0
C360 C 0.92606 0.5676 0.82037 0.0
C361 C 0.95735 0.56001 0.779 0.0
C362 C 0.97253 0.50724 0.80014 0.0
H363 H 0.04 0.44128 0.78067 0.0
H364 H 0.01286 0.46372 0.75801 0.0
H365 H 0.98584 0.47855 0.80391 0.0
H366 H 0.91547 0.545 0.87647 0.0
H367 H 0.94317 0.52315 0.86674 0.0
H368 H 0.99692 0.55175 0.80611 0.0
C369 C 0.02477 0.46913 0.78958 0.0
C370 C 0.98852 0.49444 0.80285 0.0
C371 C 0.04035 0.45627 0.80234 0.0
C372 C 0.92697 0.54943 0.84881 0.0
C373 C 0.94284 0.53676 0.84274 0.0
C374 C 0.99427 0.53579 0.80406 0.0
C375 C 0.02464 0.4887 0.81722 0.0
C376 C 0.00763 0.50214 0.80725 0.0
C377 C 0.95821 0.54176 0.80746 0.0
C378 C 0.97519 0.52812 0.80252 0.0
H379 H 0.06808 0.48788 0.90088 0.0
H380 H 0.04087 0.50988 0.88048 0.0
H381 H 0.02475 0.52943 0.80804 0.0
H382 H 0.9411 0.58673 0.76292 0.0
H383 H 0.96886 0.5643 0.75114 0.0
C384 C 0.44175 0.37471 0.2709 0.0
C385 C 0.42476 0.38301 0.24405 0.0
C386 C 0.44342 0.37173 0.33344 0.0
C387 C 0.42197 0.38738 0.47976 0.0
H388 H 0.44842 0.34036 0.53655 0.0
C389 C 0.42206 0.365 0.72999 0.0
C390 C 0.44013 0.35931 0.75736 0.0
C391 C 0.41983 0.36766 0.66728 0.0
C392 C 0.44111 0.35364 0.52141 0.0
H393 H 0.39605 0.39427 0.26168 0.0
H394 H 0.39879 0.38881 0.37034 0.0
H395 H 0.44519 0.34542 0.42751 0.0
H396 H 0.47007 0.35213 0.73921 0.0
H397 H 0.46602 0.35641 0.63024 0.0
H398 H 0.41771 0.39541 0.57386 0.0
C399 C 0.41106 0.38505 0.34353 0.0
C400 C 0.43931 0.35659 0.45889 0.0
C401 C 0.40946 0.38817 0.28113 0.0
C402 C 0.45584 0.35617 0.72007 0.0
C403 C 0.45355 0.35867 0.65738 0.0
C404 C 0.42364 0.38434 0.54224 0.0
C405 C 0.42807 0.37682 0.3706 0.0
C406 C 0.4298 0.37355 0.43721 0.0
C407 C 0.43556 0.36452 0.6303 0.0
C408 C 0.43332 0.36749 0.56378 0.0
H409 H 0.45389 0.37082 0.24376 0.0
H410 H 0.45689 0.3657 0.35276 0.0
H411 H 0.41483 0.40079 0.46498 0.0
H412 H 0.40954 0.36723 0.75675 0.0
H413 H 0.40571 0.37194 0.64757 0.0
C414 C 0.62102 0.92316 0.10278 0.0
C415 C 0.60533 0.9232 0.14043 0.0
C416 C 0.61777 0.92121 0.03924 0.0
C417 C 0.58059 0.90537 0.91469 0.0
H418 H 0.6127 0.93671 0.81777 0.0
C419 C 0.5646 0.91295 0.65462 0.0
C420 C 0.58068 0.91141 0.61835 0.0
C421 C 0.56729 0.91392 0.71841 0.0
C422 C 0.60373 0.92773 0.84419 0.0
H423 H 0.57389 0.92128 0.1409 0.0
H424 H 0.56813 0.91819 0.02995 0.0
H425 H 0.61789 0.93937 0.92869 0.0
H426 H 0.61221 0.909 0.62143 0.0
H427 H 0.61685 0.91108 0.7323 0.0
H428 H 0.56626 0.894 0.82974 0.0
C429 C 0.58301 0.91926 0.04949 0.0
C430 C 0.60673 0.9292 0.90781 0.0
C431 C 0.5863 0.92106 0.11312 0.0
C432 C 0.59949 0.91066 0.6476 0.0
C433 C 0.60218 0.91178 0.71128 0.0
C434 C 0.5775 0.90402 0.85098 0.0
C435 C 0.59871 0.91941 0.01171 0.0
C436 C 0.59528 0.91796 0.94392 0.0
C437 C 0.58612 0.91351 0.74739 0.0
C438 C 0.58911 0.91511 0.81506 0.0
H439 H 0.63586 0.92443 0.12248 0.0
H440 H 0.63024 0.92095 0.01171 0.0
H441 H 0.57168 0.89628 0.94094 0.0
H442 H 0.54993 0.91378 0.6339 0.0
H443 H 0.55465 0.91544 0.74509 0.0
C444 C 0.08689 0.11472 0.8168 0.0
C445 C 0.09491 0.09731 0.78969 0.0
C446 C 0.0848 0.11661 0.87966 0.0
C447 C 0.08271 0.08675 0.01489 0.0
H448 H 0.09304 0.13789 0.10448 0.0
C449 C 0.08515 0.09668 0.27838 0.0
C450 C 0.07486 0.11308 0.30267 0.0
C451 C 0.08821 0.09476 0.21609 0.0
C452 C 0.08998 0.12356 0.07994 0.0
H453 H 0.10684 0.06817 0.80786 0.0
H454 H 0.10375 0.07174 0.91742 0.0
H455 H 0.09715 0.13449 0.99497 0.0
H456 H 0.06014 0.14055 0.28115 0.0
H457 H 0.06542 0.13717 0.17237 0.0
H458 H 0.0757 0.07582 0.10016 0.0
C459 C 0.0988 0.08382 0.88994 0.0
C460 C 0.09227 0.12161 0.01721 0.0
C461 C 0.1008 0.08188 0.82708 0.0
C462 C 0.06793 0.12765 0.2636 0.0
C463 C 0.07113 0.12582 0.20149 0.0
C464 C 0.08054 0.08867 0.0777 0.0
C465 C 0.09076 0.1012 0.917 0.0
C466 C 0.08857 0.10321 0.98387 0.0
C467 C 0.0812 0.10929 0.17703 0.0
C468 C 0.08407 0.10712 0.11077 0.0
H469 H 0.08241 0.12701 0.78968 0.0
H470 H 0.07833 0.13011 0.89889 0.0
H471 H 0.07943 0.07245 0.99048 0.0
H472 H 0.09051 0.08515 0.30728 0.0
H473 H 0.09615 0.08194 0.19851 0.0
C474 C 0.88543 0.60302 0.09506 0.0
C475 C 0.89704 0.61834 0.0757 0.0
C476 C 0.88286 0.60149 0.15709 0.0
C477 C 0.90426 0.61763 0.31215 0.0
H478 H 0.85369 0.60172 0.36103 0.0
C479 C 0.88502 0.61903 0.56529 0.0
C480 C 0.87475 0.60233 0.58255 0.0
C481 C 0.88795 0.62138 0.50379 0.0
C482 C 0.86794 0.60602 0.34806 0.0
H483 H 0.91493 0.6442 0.10636 0.0
H484 H 0.91027 0.64173 0.21468 0.0
H485 H 0.8583 0.60529 0.25339 0.0
H486 H 0.85991 0.57485 0.54799 0.0
H487 H 0.86481 0.57913 0.44114 0.0
H488 H 0.91379 0.61851 0.4072 0.0
C489 C 0.90342 0.63064 0.18199 0.0
C490 C 0.87061 0.60803 0.28631 0.0
C491 C 0.90608 0.63209 0.11989 0.0
C492 C 0.86756 0.58807 0.53664 0.0
C493 C 0.87039 0.5905 0.47522 0.0
C494 C 0.90155 0.61573 0.37402 0.0
C495 C 0.89176 0.61532 0.2014 0.0
C496 C 0.88884 0.61371 0.26745 0.0
C497 C 0.88058 0.60719 0.45806 0.0
C498 C 0.88339 0.60976 0.39259 0.0
H499 H 0.87857 0.59196 0.06236 0.0
H500 H 0.87412 0.58925 0.17035 0.0
H501 H 0.91857 0.62176 0.29929 0.0
H502 H 0.89053 0.63049 0.59904 0.0
H503 H 0.89568 0.63453 0.49193 0.0
C504 C 0.35672 0.10339 0.02838 0.0
C505 C 0.3726 0.10442 0.07218 0.0
C506 C 0.35948 0.10573 0.96689 0.0
C507 C 0.39503 0.12426 0.86335 0.0
H508 H 0.36468 0.09078 0.74095 0.0
C509 C 0.41199 0.11647 0.60869 0.0
C510 C 0.39605 0.11713 0.56513 0.0
C511 C 0.40905 0.1156 0.67074 0.0
C512 C 0.37313 0.10037 0.77459 0.0
H513 H 0.40387 0.10866 0.08583 0.0
H514 H 0.40881 0.11238 0.97836 0.0
H515 H 0.35986 0.08794 0.84879 0.0
H516 H 0.36445 0.11782 0.5537 0.0
H517 H 0.35939 0.11588 0.66166 0.0
H518 H 0.40856 0.13635 0.78873 0.0
C519 C 0.39412 0.1102 0.99161 0.0
C520 C 0.37034 0.0988 0.83644 0.0
C521 C 0.39131 0.10803 0.05325 0.0
C522 C 0.37709 0.11694 0.58546 0.0
C523 C 0.37416 0.11589 0.64746 0.0
C524 C 0.39793 0.1257 0.80145 0.0
C525 C 0.37824 0.10897 0.94757 0.0
C526 C 0.38122 0.11075 0.88167 0.0
C527 C 0.39011 0.11519 0.69073 0.0
C528 C 0.38698 0.11379 0.75644 0.0
H529 H 0.34209 0.10096 0.04178 0.0
H530 H 0.34685 0.10513 0.93457 0.0
H531 H 0.40345 0.13393 0.89678 0.0
H532 H 0.42679 0.1163 0.59498 0.0
H533 H 0.42161 0.11482 0.70299 0.0
C534 C 0.93668 0.87725 0.23588 0.0
C535 C 0.94321 0.85895 0.2572 0.0
C536 C 0.93524 0.88017 0.17336 0.0
C537 C 0.93067 0.85315 0.0218 0.0
H538 H 0.94984 0.90269 0.9655 0.0
C539 C 0.93582 0.86464 0.76533 0.0
C540 C 0.93077 0.8835 0.74467 0.0
C541 C 0.93763 0.86164 0.82779 0.0
C542 C 0.94419 0.88887 0.98044 0.0
H543 H 0.95313 0.82929 0.2296 0.0
H544 H 0.95066 0.83437 0.12024 0.0
H545 H 0.9521 0.89745 0.07446 0.0
H546 H 0.92398 0.91405 0.77426 0.0
H547 H 0.92658 0.90868 0.88282 0.0
H548 H 0.92252 0.84463 0.92803 0.0
C549 C 0.94659 0.84644 0.15196 0.0
C550 C 0.94552 0.88587 0.04291 0.0
C551 C 0.94816 0.84358 0.21455 0.0
C552 C 0.92768 0.89928 0.78825 0.0
C553 C 0.92942 0.89626 0.85071 0.0
C554 C 0.92923 0.8562 0.95935 0.0
C555 C 0.9402 0.8648 0.1307 0.0
C556 C 0.93878 0.86797 0.06429 0.0
C557 C 0.93437 0.87738 0.87131 0.0
C558 C 0.93598 0.8741 0.93783 0.0
H559 H 0.933 0.88948 0.26754 0.0
H560 H 0.93012 0.89443 0.15837 0.0
H561 H 0.92512 0.83931 0.03695 0.0
H562 H 0.93809 0.85204 0.73337 0.0
H563 H 0.9417 0.84696 0.84195 0.0
C564 C 0.12234 0.4226 0.59443 0.0
C565 C 0.10727 0.41825 0.63176 0.0
C566 C 0.11926 0.42089 0.5309 0.0
C567 C 0.08841 0.39738 0.40339 0.0
H568 H 0.10431 0.44266 0.31695 0.0
C569 C 0.06759 0.40427 0.14621 0.0
C570 C 0.08149 0.41264 0.11106 0.0
C571 C 0.07069 0.40434 0.20973 0.0
C572 C 0.10004 0.42974 0.34014 0.0
H573 H 0.0772 0.40813 0.63068 0.0
H574 H 0.07203 0.4048 0.51973 0.0
H575 H 0.11016 0.44325 0.4275 0.0
H576 H 0.1096 0.42773 0.11615 0.0
H577 H 0.1153 0.4271 0.22592 0.0
H578 H 0.07856 0.38371 0.31598 0.0
C579 C 0.08622 0.40957 0.54004 0.0
C580 C 0.10335 0.43013 0.40353 0.0
C581 C 0.08923 0.41145 0.60372 0.0
C582 C 0.09863 0.42092 0.14118 0.0
C583 C 0.1018 0.42083 0.20455 0.0
C584 C 0.08526 0.3969 0.33978 0.0
C585 C 0.10111 0.41459 0.5031 0.0
C586 C 0.0976 0.41396 0.43578 0.0
C587 C 0.08782 0.41266 0.2397 0.0
C588 C 0.09106 0.41308 0.30737 0.0
H589 H 0.13655 0.42741 0.61414 0.0
H590 H 0.13111 0.42453 0.50343 0.0
H591 H 0.08397 0.38465 0.42716 0.0
H592 H 0.05432 0.39754 0.12481 0.0
H593 H 0.05951 0.39811 0.23537 0.0
C594 C 0.59487 0.6093 0.8139 0.0
C595 C 0.5758 0.6108 0.83316 0.0
C596 C 0.59817 0.60833 0.75175 0.0
C597 C 0.57624 0.62136 0.60286 0.0
H598 H 0.61124 0.5816 0.53649 0.0
C599 C 0.58117 0.60548 0.34347 0.0
C600 C 0.59948 0.60086 0.32195 0.0
C601 C 0.57872 0.60727 0.40614 0.0
C602 C 0.60165 0.59301 0.55437 0.0
H603 H 0.54525 0.61207 0.80138 0.0
H604 H 0.55109 0.61073 0.69334 0.0
H605 H 0.60631 0.58362 0.6455 0.0
H606 H 0.6297 0.59507 0.349 0.0
H607 H 0.62558 0.59858 0.45849 0.0
H608 H 0.5717 0.63094 0.51214 0.0
C609 C 0.56347 0.61048 0.72653 0.0
C610 C 0.5988 0.5941 0.61681 0.0
C611 C 0.56014 0.61128 0.78858 0.0
C612 C 0.61536 0.59837 0.36436 0.0
C613 C 0.61297 0.60033 0.42705 0.0
C614 C 0.57921 0.62038 0.54053 0.0
C615 C 0.58251 0.60902 0.70749 0.0
C616 C 0.58596 0.6082 0.64158 0.0
C617 C 0.59457 0.60465 0.44873 0.0
C618 C 0.59185 0.6061 0.51541 0.0
H619 H 0.60733 0.60921 0.84669 0.0
H620 H 0.61302 0.60741 0.73834 0.0
H621 H 0.56646 0.63256 0.62092 0.0
H622 H 0.5686 0.60717 0.31186 0.0
H623 H 0.56427 0.61026 0.4211 0.0
C624 C 0.18464 0.3708 0.94393 0.0
C625 C 0.1785 0.39062 0.93771 0.0
C626 C 0.20448 0.36636 0.95234 0.0
C627 C 0.25214 0.38942 0.00234 0.0
H628 H 0.27367 0.34641 0.90162 0.0
C629 C 0.33393 0.38452 0.97039 0.0
C630 C 0.34288 0.36568 0.96864 0.0
C631 C 0.31373 0.38614 0.97026 0.0
C632 C 0.26786 0.35826 0.93079 0.0
H633 H 0.18858 0.42125 0.93448 0.0
H634 H 0.22296 0.41355 0.95026 0.0
H635 H 0.23847 0.35171 0.89625 0.0
H636 H 0.33752 0.33372 0.96527 0.0
H637 H 0.30207 0.33657 0.96594 0.0
H638 H 0.2814 0.39612 0.03663 0.0
C639 C 0.21243 0.40147 0.94945 0.0
C640 C 0.2477 0.3613 0.92768 0.0
C641 C 0.19267 0.40588 0.94061 0.0
C642 C 0.33108 0.34846 0.96685 0.0
C643 C 0.31078 0.35009 0.96674 0.0
C644 C 0.27222 0.38634 0.00565 0.0
C645 C 0.21857 0.38167 0.95517 0.0
C646 C 0.23968 0.37717 0.96255 0.0
C647 C 0.30189 0.36898 0.96878 0.0
C648 C 0.28038 0.371 0.96898 0.0
H649 H 0.17412 0.3587 0.94255 0.0
H650 H 0.2088 0.35098 0.9571 0.0
H651 H 0.24634 0.40153 0.03061 0.0
H652 H 0.34256 0.39813 0.97293 0.0
H653 H 0.30737 0.40092 0.97092 0.0
C654 C 0.5758 0.83946 0.36172 0.0
C655 C 0.57931 0.85676 0.33133 0.0
C656 C 0.57257 0.82109 0.32903 0.0
C657 C 0.55863 0.7849 0.24878 0.0
H658 H 0.59589 0.77065 0.12892 0.0
C659 C 0.56096 0.70533 0.13261 0.0
C660 C 0.57962 0.69692 0.12976 0.0
C661 C 0.55879 0.72575 0.14774 0.0
C662 C 0.58537 0.7744 0.16225 0.0
H663 H 0.5815 0.86854 0.2425 0.0
H664 H 0.57586 0.83622 0.18497 0.0
H665 H 0.59493 0.80494 0.1734 0.0
H666 H 0.6106 0.70347 0.13984 0.0
H667 H 0.60683 0.73902 0.16665 0.0
H668 H 0.5497 0.75422 0.24001 0.0
C669 C 0.5757 0.83695 0.2343 0.0
C670 C 0.58465 0.79412 0.18714 0.0
C671 C 0.57878 0.85546 0.26715 0.0
C672 C 0.59603 0.7095 0.141 0.0
C673 C 0.59385 0.72991 0.1562 0.0
C674 C 0.55934 0.76522 0.22389 0.0
C675 C 0.57286 0.81951 0.26506 0.0
C676 C 0.57161 0.79946 0.23186 0.0
C677 C 0.57521 0.73825 0.16041 0.0
C678 C 0.57303 0.75962 0.18141 0.0
H679 H 0.57604 0.83998 0.41113 0.0
H680 H 0.57069 0.80795 0.35426 0.0
H681 H 0.54826 0.7886 0.28261 0.0
H682 H 0.54801 0.69613 0.12301 0.0
H683 H 0.54422 0.73174 0.14968 0.0
C684 C 0.28526 0.1109 0.34146 0.0
C685 C 0.29823 0.12647 0.36256 0.0
C686 C 0.26574 0.11169 0.35522 0.0
C687 C 0.23586 0.13133 0.47414 0.0
H688 H 0.19204 0.11684 0.35908 0.0
C689 C 0.15783 0.13332 0.55064 0.0
C690 C 0.14456 0.11847 0.52607 0.0
C691 C 0.17586 0.13546 0.5264 0.0
C692 C 0.20412 0.12067 0.39198 0.0
H693 H 0.30094 0.15534 0.41266 0.0
H694 H 0.26673 0.1566 0.43779 0.0
H695 H 0.22474 0.1191 0.32284 0.0
H696 H 0.13966 0.09436 0.45614 0.0
H697 H 0.17162 0.09749 0.41506 0.0
H698 H 0.21571 0.13207 0.54374 0.0
C699 C 0.2717 0.14384 0.4104 0.0
C700 C 0.22282 0.1221 0.37108 0.0
C701 C 0.29119 0.1432 0.39579 0.0
C702 C 0.14962 0.10592 0.47605 0.0
C703 C 0.16789 0.10784 0.45229 0.0
C704 C 0.21728 0.12962 0.49516 0.0
C705 C 0.25888 0.12793 0.39108 0.0
C706 C 0.23886 0.12747 0.412 0.0
C707 C 0.18132 0.12256 0.47754 0.0
C708 C 0.20111 0.12431 0.45443 0.0
H709 H 0.29034 0.0979 0.31541 0.0
H710 H 0.25623 0.09917 0.34006 0.0
H711 H 0.24801 0.13509 0.5069 0.0
H712 H 0.15424 0.14349 0.5885 0.0
H713 H 0.18549 0.14734 0.54603 0.0
C714 C 0.90225 0.68991 0.82881 0.0
C715 C 0.90043 0.67091 0.79772 0.0
C716 C 0.9086 0.70636 0.7993 0.0
C717 C 0.91075 0.7246 0.64603 0.0
H718 H 0.94651 0.7644 0.7265 0.0
C719 C 0.93598 0.79013 0.51623 0.0
C720 C 0.93648 0.80916 0.54706 0.0
C721 C 0.93429 0.77297 0.54818 0.0
C722 C 0.93638 0.75352 0.70357 0.0
H723 H 0.90419 0.65426 0.71139 0.0
H724 H 0.9152 0.68297 0.65987 0.0
H725 H 0.93818 0.73491 0.77949 0.0
H726 H 0.9364 0.82514 0.63594 0.0
H727 H 0.93302 0.79513 0.692 0.0
H728 H 0.90845 0.74325 0.57087 0.0
C729 C 0.9116 0.68516 0.70704 0.0
C730 C 0.93163 0.7366 0.73391 0.0
C731 C 0.90537 0.66868 0.73667 0.0
C732 C 0.93622 0.81065 0.61104 0.0
C733 C 0.93427 0.79342 0.64311 0.0
C734 C 0.91538 0.74151 0.61592 0.0
C735 C 0.91315 0.70422 0.73788 0.0
C736 C 0.91875 0.72195 0.70544 0.0
C737 C 0.93273 0.77439 0.61178 0.0
C738 C 0.92828 0.7562 0.64415 0.0
H739 H 0.89862 0.69217 0.87592 0.0
H740 H 0.90944 0.72086 0.82418 0.0
H741 H 0.90048 0.71382 0.62325 0.0
H742 H 0.93637 0.78852 0.46696 0.0
H743 H 0.93373 0.75858 0.52267 0.0
C744 C 0.8337 0.85142 0.49084 0.0
C745 C 0.84553 0.8666 0.47112 0.0
C746 C 0.81347 0.8537 0.49121 0.0
C747 C 0.77487 0.8932 0.475 0.0
H748 H 0.74023 0.84738 0.46511 0.0
C749 C 0.69258 0.90573 0.47675 0.0
C750 C 0.6795 0.89155 0.44638 0.0
C751 C 0.71234 0.90148 0.48668 0.0
C752 C 0.74955 0.86044 0.46669 0.0
H753 H 0.84445 0.89627 0.43577 0.0
H754 H 0.80986 0.89892 0.42899 0.0
H755 H 0.77491 0.84226 0.46311 0.0
H756 H 0.67777 0.86099 0.40581 0.0
H757 H 0.71214 0.85474 0.41576 0.0
H758 H 0.74976 0.91141 0.47189 0.0
C759 C 0.81609 0.88568 0.44791 0.0
C760 C 0.7697 0.85746 0.46696 0.0
C761 C 0.83627 0.88381 0.44997 0.0
C762 C 0.68708 0.8728 0.42731 0.0
C763 C 0.70705 0.86893 0.43463 0.0
C764 C 0.7548 0.89616 0.4721 0.0
C765 C 0.80431 0.87094 0.46989 0.0
C766 C 0.78273 0.87382 0.47089 0.0
C767 C 0.72011 0.88331 0.46382 0.0
C768 C 0.7417 0.87987 0.46816 0.0
H769 H 0.83995 0.83771 0.50639 0.0
H770 H 0.80515 0.84198 0.50921 0.0
H771 H 0.78414 0.90634 0.4803 0.0
H772 H 0.68797 0.92049 0.49202 0.0
H773 H 0.72146 0.9128 0.51177 0.0
C774 C 0.05901 0.20575 0.62557 0.0
C775 C 0.07716 0.19635 0.62106 0.0
C776 C 0.05801 0.22586 0.64672 0.0
C777 C 0.0857 0.26341 0.74487 0.0
H778 H 0.05171 0.30219 0.66911 0.0
C779 C 0.07306 0.33938 0.86675 0.0
C780 C 0.07636 0.35613 0.83353 0.0
C781 C 0.07097 0.32038 0.83723 0.0
C782 C 0.06128 0.2915 0.69054 0.0
H783 H 0.10844 0.20067 0.63477 0.0
H784 H 0.10668 0.23567 0.67174 0.0
H785 H 0.05297 0.26786 0.62292 0.0
H786 H 0.07874 0.36626 0.7426 0.0
H787 H 0.07497 0.3328 0.69069 0.0
H788 H 0.09405 0.2868 0.81238 0.0
C789 C 0.09324 0.22751 0.65893 0.0
C790 C 0.06191 0.27188 0.66442 0.0
C791 C 0.09425 0.20752 0.63735 0.0
C792 C 0.07624 0.35364 0.76947 0.0
C793 C 0.07407 0.33451 0.73976 0.0
C794 C 0.08492 0.28285 0.7712 0.0
C795 C 0.07512 0.23685 0.66439 0.0
C796 C 0.0742 0.25768 0.69132 0.0
C797 C 0.07206 0.31765 0.77373 0.0
C798 C 0.07268 0.2971 0.7445 0.0
H799 H 0.0456 0.19757 0.61272 0.0
H800 H 0.04384 0.23265 0.65079 0.0
H801 H 0.09517 0.25276 0.76694 0.0
H802 H 0.07279 0.34079 0.91606 0.0
H803 H 0.06904 0.3077 0.86442 0.0
C804 C 0.66516 0.61938 0.0841 0.0
C805 C 0.64796 0.61472 0.0478 0.0
C806 C 0.68269 0.62212 0.05745 0.0
C807 C 0.70842 0.61243 0.91662 0.0
H808 H 0.74249 0.65435 0.99373 0.0
C809 C 0.78483 0.63019 0.83349 0.0
C810 C 0.7997 0.62994 0.88052 0.0
C811 C 0.76523 0.63051 0.84734 0.0
C812 C 0.73312 0.64263 0.9716 0.0
H813 H 0.63573 0.60872 0.95485 0.0
H814 H 0.66655 0.61372 0.90779 0.0
H815 H 0.7101 0.65001 0.02931 0.0
H816 H 0.806 0.63057 0.97844 0.0
H817 H 0.77191 0.63166 0.00279 0.0
H818 H 0.73172 0.60505 0.85917 0.0
C819 C 0.66642 0.61511 0.95712 0.0
C820 C 0.71459 0.64004 0.99217 0.0
C821 C 0.64878 0.61223 0.98402 0.0
C822 C 0.79475 0.63084 0.94149 0.0
C823 C 0.77527 0.6315 0.95533 0.0
C824 C 0.72697 0.61514 0.89564 0.0
C825 C 0.68351 0.62047 0.99361 0.0
C826 C 0.70223 0.62452 0.96626 0.0
C827 C 0.76029 0.63098 0.90845 0.0
C828 C 0.73968 0.62993 0.92412 0.0
H829 H 0.66509 0.62115 0.13343 0.0
H830 H 0.69564 0.62562 0.08712 0.0
H831 H 0.6993 0.60031 0.89574 0.0
H832 H 0.78834 0.6293 0.78611 0.0
H833 H 0.75395 0.63016 0.81039 0.0
C834 C 0.43364 0.2901 0.01775 0.0
C835 C 0.4353 0.30936 0.04713 0.0
C836 C 0.43256 0.27326 0.05157 0.0
C837 C 0.41649 0.25869 0.1976 0.0
H838 H 0.44 0.20788 0.15161 0.0
C839 C 0.40413 0.18864 0.32947 0.0
C840 C 0.40103 0.17038 0.29488 0.0
C841 C 0.41057 0.20554 0.30244 0.0
C842 C 0.43318 0.22191 0.16472 0.0
H843 H 0.43792 0.32594 0.13539 0.0
H844 H 0.43603 0.29645 0.19466 0.0
H845 H 0.44809 0.2376 0.09969 0.0
H846 H 0.40251 0.15553 0.2047 0.0
H847 H 0.41334 0.18509 0.15714 0.0
H848 H 0.40114 0.24302 0.26128 0.0
C849 C 0.43545 0.29445 0.14527 0.0
C850 C 0.43789 0.23896 0.13512 0.0
C851 C 0.4367 0.31133 0.11134 0.0
C852 C 0.4048 0.16934 0.23272 0.0
C853 C 0.41113 0.18629 0.20554 0.0
C854 C 0.41171 0.24164 0.22697 0.0
C855 C 0.43297 0.27526 0.11567 0.0
C856 C 0.42943 0.25751 0.15077 0.0
C857 C 0.41396 0.20466 0.23996 0.0
C858 C 0.41983 0.22297 0.21052 0.0
H859 H 0.43258 0.28806 0.96833 0.0
H860 H 0.4305 0.25874 0.02728 0.0
H861 H 0.40946 0.27267 0.21006 0.0
H862 H 0.40156 0.18995 0.37763 0.0
H863 H 0.41292 0.2193 0.33067 0.0
loop_
_geom_bond_atom_site_label_1
_geom_bond_atom_site_label_2
_geom_bond_distance
_geom_bond_site_symmetry_2
_ccdc_geom_bond_type
C0 C1 1.351 . S
C0 N3 1.368 . S
C0 H5 0.931 . S
C1 C0 1.351 . S
C1 N2 1.373 . S
C1 H29 0.930 . S
N2 C1 1.373 . S
N2 C4 1.340 . S
N3 C0 1.368 . S
N3 C4 1.321 . S
N3 Co6 2.135 . S
C4 N2 1.340 . S
C4 N3 1.321 . S
C4 H28 0.930 . S
H5 C0 0.931 . S
Co6 N3 2.135 . S
Co6 N9 2.121 1_554 S
Co6 O14 2.055 . S
Co6 O17 2.039 . S
Co6 N20 2.140 . S
C7 O8 1.227 . S
C7 O17 1.265 . S
O8 C7 1.227 . S
N9 Co6 2.121 1_556 S
N9 C11 1.375 . S
N9 C12 1.313 . S
C10 C11 1.338 . S
C10 N13 1.377 . S
C10 H30 0.930 . S
C11 N9 1.375 . S
C11 C10 1.338 . S
C11 H15 0.931 . S
C12 N9 1.313 . S
C12 N13 1.344 . S
C12 H16 0.930 . S
N13 C10 1.377 . S
N13 C12 1.344 . S
O14 Co6 2.055 . S
O14 C18 1.253 . S
H15 C11 0.931 . S
H16 C12 0.930 . S
O17 Co6 2.039 . S
O17 C7 1.265 . S
C18 O14 1.253 . S
C18 O19 1.227 . S
O19 C18 1.227 . S
N20 Co6 2.140 . S
N20 C23 1.346 . S
N20 C24 1.345 . S
C21 C22 1.387 . S
C21 C25 1.391 . S
C22 C21 1.387 . S
C22 C23 1.369 . S
C22 H31 0.929 . S
C23 N20 1.346 . S
C23 C22 1.369 . S
C23 H26 0.928 . S
C24 N20 1.345 . S
C24 C25 1.371 . S
C24 H27 0.931 . S
C25 C21 1.391 . S
C25 C24 1.371 . S
C25 H32 0.930 1_554 S
H26 C23 0.928 . S
H27 C24 0.931 . S
H28 C4 0.930 . S
H29 C1 0.930 . S
H30 C10 0.930 . S
H31 C22 0.929 . S
H32 C25 0.930 1_556 S
C33 C34 1.351 . S
C33 N36 1.368 . S
C33 H38 0.931 . S
C34 C33 1.351 . S
C34 N35 1.373 . S
C34 H62 0.930 . S
N35 C34 1.373 . S
N35 C37 1.340 . S
N36 C33 1.368 . S
N36 C37 1.321 . S
N36 Co39 2.135 . S
C37 N35 1.340 . S
C37 N36 1.321 . S
C37 H61 0.930 . S
H38 C33 0.931 . S
Co39 N36 2.135 . S
Co39 N42 2.121 . S
Co39 O47 2.055 . S
Co39 O50 2.039 . S
Co39 N53 2.140 . S
C40 O41 1.227 . S
C40 O50 1.265 . S
O41 C40 1.227 . S
N42 Co39 2.121 . S
N42 C44 1.375 . S
N42 C45 1.313 . S
C43 C44 1.338 . S
C43 N46 1.377 . S
C43 H63 0.930 . S
C44 N42 1.375 . S
C44 C43 1.338 . S
C44 H48 0.931 . S
C45 N42 1.313 . S
C45 N46 1.344 . S
C45 H49 0.930 . S
N46 C43 1.377 . S
N46 C45 1.344 . S
O47 Co39 2.055 . S
O47 C51 1.253 . S
H48 C44 0.931 . S
H49 C45 0.930 . S
O50 Co39 2.039 . S
O50 C40 1.265 . S
C51 O47 1.253 . S
C51 O52 1.227 . S
O52 C51 1.227 . S
N53 Co39 2.140 . S
N53 C56 1.346 . S
N53 C57 1.345 . S
C54 C55 1.387 . S
C54 C58 1.391 . S
C55 C54 1.387 . S
C55 C56 1.369 . S
C55 H64 0.929 . S
C56 N53 1.346 . S
C56 C55 1.369 . S
C56 H59 0.928 . S
C57 N53 1.345 . S
C57 C58 1.371 . S
C57 H60 0.931 . S
C58 C54 1.391 . S
C58 C57 1.371 . S
C58 H65 0.930 . S
H59 C56 0.928 . S
H60 C57 0.931 . S
H61 C37 0.930 . S
H62 C34 0.930 . S
H63 C43 0.930 . S
H64 C55 0.929 . S
H65 C58 0.930 . S
C66 C67 1.351 . S
C66 N69 1.368 . S
C66 H71 0.931 . S
C67 C66 1.351 . S
C67 N68 1.373 . S
C67 H95 0.930 . S
N68 C67 1.373 . S
N68 C70 1.340 . S
N69 C66 1.368 . S
N69 C70 1.321 . S
N69 Co72 2.135 . S
C70 N68 1.340 . S
C70 N69 1.321 . S
C70 H94 0.930 . S
H71 C66 0.931 . S
Co72 N69 2.135 . S
Co72 N75 2.121 . S
Co72 O80 2.055 . S
Co72 O83 2.039 . S
Co72 N86 2.140 . S
C73 O74 1.227 . S
C73 O83 1.265 . S
O74 C73 1.227 . S
N75 Co72 2.121 . S
N75 C77 1.375 . S
N75 C78 1.313 . S
C76 C77 1.338 . S
C76 N79 1.377 . S
C76 H96 0.930 . S
C77 N75 1.375 . S
C77 C76 1.338 . S
C77 H81 0.931 . S
C78 N75 1.313 . S
C78 N79 1.344 . S
C78 H82 0.930 . S
N79 C76 1.377 . S
N79 C78 1.344 . S
O80 Co72 2.055 . S
O80 C84 1.253 . S
H81 C77 0.931 . S
H82 C78 0.930 . S
O83 Co72 2.039 . S
O83 C73 1.265 . S
C84 O80 1.253 . S
C84 O85 1.227 . S
O85 C84 1.227 . S
N86 Co72 2.140 . S
N86 C89 1.346 . S
N86 C90 1.345 . S
C87 C88 1.387 . S
C87 C91 1.391 . S
C88 C87 1.387 . S
C88 C89 1.369 . S
C88 H97 0.929 . S
C89 N86 1.346 . S
C89 C88 1.369 . S
C89 H92 0.928 . S
C90 N86 1.345 . S
C90 C91 1.371 . S
C90 H93 0.931 . S
C91 C87 1.391 . S
C91 C90 1.371 . S
C91 H98 0.930 . S
H92 C89 0.928 . S
H93 C90 0.931 . S
H94 C70 0.930 . S
H95 C67 0.930 . S
H96 C76 0.930 . S
H97 C88 0.929 . S
H98 C91 0.930 . S
C99 C100 1.351 . S
C99 N102 1.368 . S
C99 H104 0.931 . S
C100 C99 1.351 . S
C100 N101 1.373 . S
C100 H128 0.930 . S
N101 C100 1.373 . S
N101 C103 1.340 . S
N102 C99 1.368 . S
N102 C103 1.321 . S
N102 Co105 2.135 . S
C103 N101 1.340 . S
C103 N102 1.321 . S
C103 H127 0.930 . S
H104 C99 0.931 . S
Co105 N102 2.135 . S
Co105 N108 2.121 . S
Co105 O113 2.055 . S
Co105 O116 2.039 . S
Co105 N119 2.140 . S
C106 O107 1.227 . S
C106 O116 1.265 . S
O107 C106 1.227 . S
N108 Co105 2.121 . S
N108 C110 1.375 . S
N108 C111 1.313 . S
C109 C110 1.338 1_554 S
C109 N112 1.377 . S
C109 H129 0.930 . S
C110 N108 1.375 . S
C110 C109 1.338 1_556 S
C110 H114 0.931 . S
C111 N108 1.313 . S
C111 N112 1.344 1_556 S
C111 H115 0.930 . S
N112 C109 1.377 . S
N112 C111 1.344 1_554 S
O113 Co105 2.055 . S
O113 C117 1.253 . S
H114 C110 0.931 . S
H115 C111 0.930 . S
O116 Co105 2.039 . S
O116 C106 1.265 . S
C117 O113 1.253 . S
C117 O118 1.227 . S
O118 C117 1.227 . S
N119 Co105 2.140 . S
N119 C122 1.346 . S
N119 C123 1.345 . S
C120 C121 1.387 . S
C120 C124 1.391 . S
C121 C120 1.387 . S
C121 C122 1.369 . S
C121 H130 0.929 . S
C122 N119 1.346 . S
C122 C121 1.369 . S
C122 H125 0.928 . S
C123 N119 1.345 . S
C123 C124 1.371 . S
C123 H126 0.931 . S
C124 C120 1.391 . S
C124 C123 1.371 . S
C124 H131 0.930 . S
H125 C122 0.928 . S
H126 C123 0.931 . S
H127 C103 0.930 . S
H128 C100 0.930 . S
H129 C109 0.930 . S
H130 C121 0.929 . S
H131 C124 0.930 . S
C132 C133 1.351 . S
C132 N135 1.368 . S
C132 H137 0.931 . S
C133 C132 1.351 . S
C133 N134 1.373 . S
C133 H161 0.930 . S
N134 C133 1.373 . S
N134 C136 1.340 . S
N135 C132 1.368 . S
N135 C136 1.321 . S
N135 Co138 2.135 . S
C136 N134 1.340 . S
C136 N135 1.321 . S
C136 H160 0.930 . S
H137 C132 0.931 . S
Co138 N135 2.135 . S
Co138 N141 2.121 . S
Co138 O146 2.055 . S
Co138 O149 2.039 . S
Co138 N152 2.140 . S
C139 O140 1.227 . S
C139 O149 1.265 . S
O140 C139 1.227 . S
N141 Co138 2.121 . S
N141 C143 1.375 . S
N141 C144 1.313 . S
C142 C143 1.338 . S
C142 N145 1.377 . S
C142 H162 0.930 . S
C143 N141 1.375 . S
C143 C142 1.338 . S
C143 H147 0.931 . S
C144 N141 1.313 . S
C144 N145 1.344 . S
C144 H148 0.930 . S
N145 C142 1.377 . S
N145 C144 1.344 . S
O146 Co138 2.055 . S
O146 C150 1.253 . S
H147 C143 0.931 . S
H148 C144 0.930 . S
O149 Co138 2.039 . S
O149 C139 1.265 . S
C150 O146 1.253 . S
C150 O151 1.227 . S
O151 C150 1.227 . S
N152 Co138 2.140 . S
N152 C155 1.346 . S
N152 C156 1.345 . S
C153 C154 1.387 . S
C153 C157 1.391 . S
C154 C153 1.387 . S
C154 C155 1.369 . S
C154 H163 0.929 . S
C155 N152 1.346 . S
C155 C154 1.369 . S
C155 H158 0.928 . S
C156 N152 1.345 . S
C156 C157 1.371 . S
C156 H159 0.931 . S
C157 C153 1.391 . S
C157 C156 1.371 . S
C157 H164 0.930 . S
H158 C155 0.928 . S
H159 C156 0.931 . S
H160 C136 0.930 . S
H161 C133 0.930 . S
H162 C142 0.930 . S
H163 C154 0.929 . S
H164 C157 0.930 . S
C165 C166 1.351 . S
C165 N168 1.368 . S
C165 H170 0.931 . S
C166 C165 1.351 . S
C166 N167 1.373 . S
C166 H194 0.930 . S
N167 C166 1.373 . S
N167 C169 1.340 . S
N168 C165 1.368 . S
N168 C169 1.321 . S
N168 Co171 2.135 . S
C169 N167 1.340 . S
C169 N168 1.321 . S
C169 H193 0.930 . S
H170 C165 0.931 . S
Co171 N168 2.135 . S
Co171 N174 2.121 . S
Co171 O179 2.055 . S
Co171 O182 2.039 . S
Co171 N185 2.140 . S
C172 O173 1.227 . S
C172 O182 1.265 . S
O173 C172 1.227 . S
N174 Co171 2.121 . S
N174 C176 1.375 . S
N174 C177 1.313 . S
C175 C176 1.338 . S
C175 N178 1.377 . S
C175 H195 0.930 . S
C176 N174 1.375 . S
C176 C175 1.338 . S
C176 H180 0.931 . S
C177 N174 1.313 . S
C177 N178 1.344 . S
C177 H181 0.930 . S
N178 C175 1.377 . S
N178 C177 1.344 . S
O179 Co171 2.055 . S
O179 C183 1.253 . S
H180 C176 0.931 . S
H181 C177 0.930 . S
O182 Co171 2.039 . S
O182 C172 1.265 . S
C183 O179 1.253 . S
C183 O184 1.227 . S
O184 C183 1.227 . S
N185 Co171 2.140 . S
N185 C188 1.346 . S
N185 C189 1.345 . S
C186 C187 1.387 . S
C186 C190 1.391 . S
C187 C186 1.387 . S
C187 C188 1.369 . S
C187 H196 0.929 . S
C188 N185 1.346 . S
C188 C187 1.369 . S
C188 H191 0.928 . S
C189 N185 1.345 . S
C189 C190 1.371 . S
C189 H192 0.931 . S
C190 C186 1.391 . S
C190 C189 1.371 . S
C190 H197 0.930 . S
H191 C188 0.928 . S
H192 C189 0.931 . S
H193 C169 0.930 . S
H194 C166 0.930 . S
H195 C175 0.930 . S
H196 C187 0.929 . S
H197 C190 0.930 . S
C198 C199 1.351 . S
C198 N201 1.368 . S
C198 H203 0.931 . S
C199 C198 1.351 . S
C199 N200 1.373 . S
C199 H227 0.930 . S
N200 C199 1.373 . S
N200 C202 1.340 . S
N201 C198 1.368 . S
N201 C202 1.321 . S
N201 Co204 2.135 . S
C202 N200 1.340 . S
C202 N201 1.321 . S
C202 H226 0.930 . S
H203 C198 0.931 . S
Co204 N201 2.135 . S
Co204 N207 2.121 . S
Co204 O212 2.055 . S
Co204 O215 2.039 . S
Co204 N218 2.140 . S
C205 O206 1.227 . S
C205 O215 1.265 . S
O206 C205 1.227 . S
N207 Co204 2.121 . S
N207 C209 1.375 . S
N207 C210 1.313 . S
C208 C209 1.338 1_554 S
C208 N211 1.377 . S
C208 H228 0.930 . S
C209 N207 1.375 . S
C209 C208 1.338 1_556 S
C209 H213 0.931 . S
C210 N207 1.313 . S
C210 N211 1.344 1_556 S
C210 H214 0.930 . S
N211 C208 1.377 . S
N211 C210 1.344 1_554 S
O212 Co204 2.055 . S
O212 C216 1.253 . S
H213 C209 0.931 . S
H214 C210 0.930 . S
O215 Co204 2.039 . S
O215 C205 1.265 . S
C216 O212 1.253 . S
C216 O217 1.227 . S
O217 C216 1.227 . S
N218 Co204 2.140 . S
N218 C221 1.346 . S
N218 C222 1.345 . S
C219 C220 1.387 . S
C219 C223 1.391 . S
C220 C219 1.387 . S
C220 C221 1.369 . S
C220 H229 0.929 . S
C221 N218 1.346 . S
C221 C220 1.369 . S
C221 H224 0.928 . S
C222 N218 1.345 . S
C222 C223 1.371 . S
C222 H225 0.931 . S
C223 C219 1.391 . S
C223 C222 1.371 . S
C223 H230 0.930 . S
H224 C221 0.928 . S
H225 C222 0.931 . S
H226 C202 0.930 . S
H227 C199 0.930 . S
H228 C208 0.930 . S
H229 C220 0.929 . S
H230 C223 0.930 . S
C231 C232 1.351 . S
C231 N234 1.368 . S
C231 H236 0.931 . S
C232 C231 1.351 . S
C232 N233 1.373 . S
C232 H260 0.930 . S
N233 C232 1.373 . S
N233 C235 1.340 . S
N234 C231 1.368 . S
N234 C235 1.321 . S
N234 Co237 2.135 1_556 S
C235 N233 1.340 . S
C235 N234 1.321 . S
C235 H259 0.930 . S
H236 C231 0.931 . S
Co237 N234 2.135 1_554 S
Co237 N240 2.121 . S
Co237 O245 2.055 . S
Co237 O248 2.039 1_554 S
Co237 N251 2.140 . S
C238 O239 1.227 . S
C238 O248 1.265 . S
O239 C238 1.227 . S
N240 Co237 2.121 . S
N240 C242 1.375 . S
N240 C243 1.313 . S
C241 C242 1.338 . S
C241 N244 1.377 . S
C241 H261 0.930 . S
C242 N240 1.375 . S
C242 C241 1.338 . S
C242 H246 0.931 . S
C243 N240 1.313 . S
C243 N244 1.344 . S
C243 H247 0.930 . S
N244 C241 1.377 . S
N244 C243 1.344 . S
O245 Co237 2.055 . S
O245 C249 1.253 . S
H246 C242 0.931 . S
H247 C243 0.930 . S
O248 Co237 2.039 1_556 S
O248 C238 1.265 . S
C249 O245 1.253 . S
C249 O250 1.227 . S
O250 C249 1.227 . S
N251 Co237 2.140 . S
N251 C254 1.346 1_554 S
N251 C255 1.345 . S
C252 C253 1.387 1_554 S
C252 C256 1.391 . S
C253 C252 1.387 1_556 S
C253 C254 1.369 . S
C253 H262 0.929 . S
C254 N251 1.346 1_556 S
C254 C253 1.369 . S
C254 H257 0.928 . S
C255 N251 1.345 . S
C255 C256 1.371 . S
C255 H258 0.931 . S
C256 C252 1.391 . S
C256 C255 1.371 . S
C256 H263 0.930 . S
H257 C254 0.928 . S
H258 C255 0.931 . S
H259 C235 0.930 . S
H260 C232 0.930 . S
H261 C241 0.930 . S
H262 C253 0.929 . S
H263 C256 0.930 . S
C264 C265 1.349 1_556 S
C264 C266 1.327 . S
C264 H289 0.950 . S
C265 C264 1.349 1_554 S
C265 C281 1.349 . S
C266 C264 1.327 . S
C266 C285 1.429 1_556 S
C266 H290 0.950 . S
C267 C284 1.574 . S
C267 C286 1.368 . S
C267 H291 0.949 . S
H268 C272 0.949 . S
C269 C270 1.349 . S
C269 C271 1.327 . S
C269 H292 0.950 . S
C270 C269 1.349 . S
C270 C282 1.349 . S
C271 C269 1.327 . S
C271 C287 1.429 . S
C271 H293 0.950 . S
C272 H268 0.949 . S
C272 C280 1.574 . S
C272 C288 1.368 1_556 S
H273 C281 0.950 . S
H274 C279 0.950 . S
H275 C280 0.949 . S
H276 C282 0.950 1_556 S
H277 C283 0.950 1_556 S
H278 C284 0.949 . S
C279 H274 0.950 . S
C279 C281 1.327 . S
C279 C285 1.429 . S
C280 C272 1.574 . S
C280 H275 0.949 . S
C280 C286 1.368 1_556 S
C281 C265 1.349 . S
C281 H273 0.950 . S
C281 C279 1.327 . S
C282 C270 1.349 . S
C282 H276 0.950 1_554 S
C282 C283 1.327 . S
C283 H277 0.950 1_554 S
C283 C282 1.327 . S
C283 C287 1.429 . S
C284 C267 1.574 . S
C284 H278 0.949 . S
C284 C288 1.368 . S
C285 C266 1.429 1_554 S
C285 C279 1.429 . S
C285 C286 1.523 . S
C286 C267 1.368 . S
C286 C280 1.368 1_554 S
C286 C285 1.523 . S
C287 C271 1.429 . S
C287 C283 1.429 . S
C287 C288 1.523 . S
C288 C272 1.368 1_554 S
C288 C284 1.368 . S
C288 C287 1.523 . S
H289 C264 0.950 . S
H290 C266 0.950 . S
H291 C267 0.949 . S
H292 C269 0.950 . S
H293 C271 0.950 . S
C294 C295 1.349 . S
C294 C296 1.327 . S
C294 H319 0.950 . S
C295 C294 1.349 . S
C295 C311 1.349 . S
C296 C294 1.327 . S
C296 C315 1.429 . S
C296 H320 0.950 . S
C297 C314 1.574 . S
C297 C316 1.368 . S
C297 H321 0.949 . S
H298 C302 0.949 . S
C299 C300 1.349 . S
C299 C301 1.327 . S
C299 H322 0.950 . S
C300 C299 1.349 . S
C300 C312 1.349 . S
C301 C299 1.327 . S
C301 C317 1.429 . S
C301 H323 0.950 . S
C302 H298 0.949 . S
C302 C310 1.574 1_565 S
C302 C318 1.368 . S
H303 C311 0.950 . S
H304 C309 0.950 . S
H305 C310 0.949 . S
H306 C312 0.950 . S
H307 C313 0.950 . S
H308 C314 0.949 1_565 S
C309 H304 0.950 . S
C309 C311 1.327 . S
C309 C315 1.429 . S
C310 C302 1.574 1_545 S
C310 H305 0.949 . S
C310 C316 1.368 . S
C311 C295 1.349 . S
C311 H303 0.950 . S
C311 C309 1.327 . S
C312 C300 1.349 . S
C312 H306 0.950 . S
C312 C313 1.327 . S
C313 H307 0.950 . S
C313 C312 1.327 . S
C313 C317 1.429 . S
C314 C297 1.574 . S
C314 H308 0.949 1_545 S
C314 C318 1.368 1_545 S
C315 C296 1.429 . S
C315 C309 1.429 . S
C315 C316 1.523 . S
C316 C297 1.368 . S
C316 C310 1.368 . S
C316 C315 1.523 . S
C317 C301 1.429 . S
C317 C313 1.429 . S
C317 C318 1.523 . S
C318 C302 1.368 . S
C318 C314 1.368 1_565 S
C318 C317 1.523 . S
H319 C294 0.950 . S
H320 C296 0.950 . S
H321 C297 0.949 . S
H322 C299 0.950 . S
H323 C301 0.950 . S
C324 C325 1.349 . S
C324 C326 1.327 . S
C324 H349 0.950 . S
C325 C324 1.349 . S
C325 C341 1.349 . S
C326 C324 1.327 . S
C326 C345 1.429 . S
C326 H350 0.950 . S
C327 C344 1.574 1_665 S
C327 C346 1.368 . S
C327 H351 0.949 . S
H328 C332 0.944 1_545 S
C329 C330 1.349 . S
C329 C331 1.327 . S
C329 H352 0.950 . S
C330 C329 1.349 . S
C330 C342 1.349 . S
C331 C329 1.327 . S
C331 C347 1.429 . S
C331 H353 0.950 . S
C332 H328 0.944 1_565 S
C332 C340 1.617 . S
C332 C348 1.335 1_565 S
H333 C341 0.950 . S
H334 C339 0.950 . S
H335 C340 0.949 . S
H336 C342 0.950 . S
H337 C343 0.950 . S
H338 C344 0.949 1_655 S
C339 H334 0.950 . S
C339 C341 1.327 . S
C339 C345 1.429 . S
C340 C332 1.617 . S
C340 H335 0.949 . S
C340 C346 1.368 1_455 S
C341 C325 1.349 . S
C341 H333 0.950 . S
C341 C339 1.327 . S
C342 C330 1.349 . S
C342 H336 0.950 . S
C342 C343 1.327 . S
C343 H337 0.950 . S
C343 C342 1.327 . S
C343 C347 1.429 . S
C344 C327 1.574 1_445 S
C344 H338 0.949 1_455 S
C344 C348 1.368 . S
C345 C326 1.429 . S
C345 C339 1.429 . S
C345 C346 1.523 . S
C346 C327 1.368 . S
C346 C340 1.368 1_655 S
C346 C345 1.523 . S
C347 C331 1.429 . S
C347 C343 1.429 . S
C347 C348 1.523 . S
C348 C332 1.335 1_545 S
C348 C344 1.368 . S
C348 C347 1.523 . S
H349 C324 0.950 . S
H350 C326 0.950 . S
H351 C327 0.949 . S
H352 C329 0.950 . S
H353 C331 0.950 . S
C354 C355 1.349 . S
C354 C356 1.327 . S
C354 H379 0.950 . S
C355 C354 1.349 . S
C355 C371 1.349 . S
C356 C354 1.327 . S
C356 C375 1.429 . S
C356 H380 0.950 . S
C357 C374 1.574 . S
C357 C376 1.368 1_655 S
C357 H381 0.949 . S
H358 C362 0.949 . S
C359 C360 1.349 . S
C359 C361 1.327 . S
C359 H382 0.950 . S
C360 C359 1.349 . S
C360 C372 1.349 . S
C361 C359 1.327 . S
C361 C377 1.429 . S
C361 H383 0.950 . S
C362 H358 0.949 . S
C362 C370 1.574 1_655 S
C362 C378 1.368 . S
H363 C371 0.950 . S
H364 C369 0.950 . S
H365 C370 0.949 . S
H366 C372 0.950 . S
H367 C373 0.950 . S
H368 C374 0.949 . S
C369 H364 0.950 . S
C369 C371 1.327 . S
C369 C375 1.429 . S
C370 C362 1.574 1_455 S
C370 H365 0.949 . S
C370 C376 1.368 . S
C371 C355 1.349 . S
C371 H363 0.950 . S
C371 C369 1.327 . S
C372 C360 1.349 . S
C372 H366 0.950 . S
C372 C373 1.327 . S
C373 H367 0.950 . S
C373 C372 1.327 . S
C373 C377 1.429 . S
C374 C357 1.574 . S
C374 H368 0.949 . S
C374 C378 1.368 . S
C375 C356 1.429 . S
C375 C369 1.429 . S
C375 C376 1.523 . S
C376 C357 1.368 1_455 S
C376 C370 1.368 . S
C376 C375 1.523 . S
C377 C361 1.429 . S
C377 C373 1.429 . S
C377 C378 1.523 . S
C378 C362 1.368 . S
C378 C374 1.368 . S
C378 C377 1.523 . S
H379 C354 0.950 . S
H380 C356 0.950 . S
H381 C357 0.949 . S
H382 C359 0.950 . S
H383 C361 0.950 . S
C384 C385 1.349 . S
C384 C386 1.327 . S
C384 H409 0.950 . S
C385 C384 1.349 . S
C385 C401 1.349 . S
C386 C384 1.327 . S
C386 C405 1.429 . S
C386 H410 0.950 . S
C387 C404 1.574 . S
C387 C406 1.368 . S
C387 H411 0.949 . S
H388 C392 0.949 . S
C389 C390 1.349 . S
C389 C391 1.327 . S
C389 H412 0.950 . S
C390 C389 1.349 . S
C390 C402 1.349 . S
C391 C389 1.327 . S
C391 C407 1.429 . S
C391 H413 0.950 . S
C392 H388 0.949 . S
C392 C400 1.574 . S
C392 C408 1.368 . S
H393 C401 0.950 . S
H394 C399 0.950 . S
H395 C400 0.949 . S
H396 C402 0.950 . S
H397 C403 0.950 . S
H398 C404 0.949 . S
C399 H394 0.950 . S
C399 C401 1.327 . S
C399 C405 1.429 . S
C400 C392 1.574 . S
C400 H395 0.949 . S
C400 C406 1.368 . S
C401 C385 1.349 . S
C401 H393 0.950 . S
C401 C399 1.327 . S
C402 C390 1.349 . S
C402 H396 0.950 . S
C402 C403 1.327 . S
C403 H397 0.950 . S
C403 C402 1.327 . S
C403 C407 1.429 . S
C404 C387 1.574 . S
C404 H398 0.949 . S
C404 C408 1.368 . S
C405 C386 1.429 . S
C405 C399 1.429 . S
C405 C406 1.523 . S
C406 C387 1.368 . S
C406 C400 1.368 . S
C406 C405 1.523 . S
C407 C391 1.429 . S
C407 C403 1.429 . S
C407 C408 1.523 . S
C408 C392 1.368 . S
C408 C404 1.368 . S
C408 C407 1.523 . S
H409 C384 0.950 . S
H410 C386 0.950 . S
H411 C387 0.949 . S
H412 C389 0.950 . S
H413 C391 0.950 . S
C414 C415 1.349 . S
C414 C416 1.327 1_554 S
C414 H439 0.950 . S
C415 C414 1.349 . S
C415 C431 1.349 . S
C416 C414 1.327 1_556 S
C416 C435 1.429 . S
C416 H440 0.950 . S
C417 C434 1.574 . S
C417 C436 1.368 . S
C417 H441 0.949 . S
H418 C422 0.949 . S
C419 C420 1.349 . S
C419 C421 1.327 . S
C419 H442 0.950 . S
C420 C419 1.349 . S
C420 C432 1.349 . S
C421 C419 1.327 . S
C421 C437 1.429 . S
C421 H443 0.950 . S
C422 H418 0.949 . S
C422 C430 1.574 . S
C422 C438 1.368 . S
H423 C431 0.950 . S
H424 C429 0.950 . S
H425 C430 0.949 . S
H426 C432 0.950 . S
H427 C433 0.950 . S
H428 C434 0.949 . S
C429 H424 0.950 . S
C429 C431 1.327 1_556 S
C429 C435 1.429 . S
C430 C422 1.574 . S
C430 H425 0.949 . S
C430 C436 1.368 . S
C431 C415 1.349 . S
C431 H423 0.950 . S
C431 C429 1.327 1_554 S
C432 C420 1.349 . S
C432 H426 0.950 . S
C432 C433 1.327 . S
C433 H427 0.950 . S
C433 C432 1.327 . S
C433 C437 1.429 . S
C434 C417 1.574 . S
C434 H428 0.949 . S
C434 C438 1.368 . S
C435 C416 1.429 . S
C435 C429 1.429 . S
C435 C436 1.523 . S
C436 C417 1.368 . S
C436 C430 1.368 . S
C436 C435 1.523 . S
C437 C421 1.429 . S
C437 C433 1.429 . S
C437 C438 1.523 . S
C438 C422 1.368 . S
C438 C434 1.368 . S
C438 C437 1.523 . S
H439 C414 0.950 . S
H440 C416 0.950 . S
H441 C417 0.949 . S
H442 C419 0.950 . S
H443 C421 0.950 . S
C444 C445 1.349 . S
C444 C446 1.327 . S
C444 H469 0.950 . S
C445 C444 1.349 . S
C445 C461 1.349 . S
C446 C444 1.327 . S
C446 C465 1.429 . S
C446 H470 0.950 . S
C447 C464 1.574 1_556 S
C447 C466 1.368 . S
C447 H471 0.949 . S
H448 C452 0.949 . S
C449 C450 1.349 . S
C449 C451 1.327 . S
C449 H472 0.950 . S
C450 C449 1.349 . S
C450 C462 1.349 . S
C451 C449 1.327 . S
C451 C467 1.429 . S
C451 H473 0.950 . S
C452 H448 0.949 . S
C452 C460 1.574 1_554 S
C452 C468 1.368 . S
H453 C461 0.950 . S
H454 C459 0.950 . S
H455 C460 0.949 . S
H456 C462 0.950 . S
H457 C463 0.950 . S
H458 C464 0.949 . S
C459 H454 0.950 . S
C459 C461 1.327 . S
C459 C465 1.429 . S
C460 C452 1.574 1_556 S
C460 H455 0.949 . S
C460 C466 1.368 . S
C461 C445 1.349 . S
C461 H453 0.950 . S
C461 C459 1.327 . S
C462 C450 1.349 . S
C462 H456 0.950 . S
C462 C463 1.327 . S
C463 H457 0.950 . S
C463 C462 1.327 . S
C463 C467 1.429 . S
C464 C447 1.574 1_554 S
C464 H458 0.949 . S
C464 C468 1.368 . S
C465 C446 1.429 . S
C465 C459 1.429 . S
C465 C466 1.523 . S
C466 C447 1.368 . S
C466 C460 1.368 . S
C466 C465 1.523 . S
C467 C451 1.429 . S
C467 C463 1.429 . S
C467 C468 1.523 . S
C468 C452 1.368 . S
C468 C464 1.368 . S
C468 C467 1.523 . S
H469 C444 0.950 . S
H470 C446 0.950 . S
H471 C447 0.949 . S
H472 C449 0.950 . S
H473 C451 0.950 . S
C474 C475 1.349 . S
C474 C476 1.327 . S
C474 H499 0.950 . S
C475 C474 1.349 . S
C475 C491 1.349 . S
C476 C474 1.327 . S
C476 C495 1.429 . S
C476 H500 0.950 . S
C477 C494 1.574 . S
C477 C496 1.368 . S
C477 H501 0.949 . S
H478 C482 0.949 . S
C479 C480 1.349 . S
C479 C481 1.327 . S
C479 H502 0.950 . S
C480 C479 1.349 . S
C480 C492 1.349 . S
C481 C479 1.327 . S
C481 C497 1.429 . S
C481 H503 0.950 . S
C482 H478 0.949 . S
C482 C490 1.574 . S
C482 C498 1.368 . S
H483 C491 0.950 . S
H484 C489 0.950 . S
H485 C490 0.949 . S
H486 C492 0.950 . S
H487 C493 0.950 . S
H488 C494 0.949 . S
C489 H484 0.950 . S
C489 C491 1.327 . S
C489 C495 1.429 . S
C490 C482 1.574 . S
C490 H485 0.949 . S
C490 C496 1.368 . S
C491 C475 1.349 . S
C491 H483 0.950 . S
C491 C489 1.327 . S
C492 C480 1.349 . S
C492 H486 0.950 . S
C492 C493 1.327 . S
C493 H487 0.950 . S
C493 C492 1.327 . S
C493 C497 1.429 . S
C494 C477 1.574 . S
C494 H488 0.949 . S
C494 C498 1.368 . S
C495 C476 1.429 . S
C495 C489 1.429 . S
C495 C496 1.523 . S
C496 C477 1.368 . S
C496 C490 1.368 . S
C496 C495 1.523 . S
C497 C481 1.429 . S
C497 C493 1.429 . S
C497 C498 1.523 . S
C498 C482 1.368 . S
C498 C494 1.368 . S
C498 C497 1.523 . S
H499 C474 0.950 . S
H500 C476 0.950 . S
H501 C477 0.949 . S
H502 C479 0.950 . S
H503 C481 0.950 . S
C504 C505 1.349 . S
C504 C506 1.327 1_554 S
C504 H529 0.950 . S
C505 C504 1.349 . S
C505 C521 1.349 . S
C506 C504 1.327 1_556 S
C506 C525 1.429 . S
C506 H530 0.950 . S
C507 C524 1.574 . S
C507 C526 1.368 . S
C507 H531 0.949 . S
H508 C512 0.949 . S
C509 C510 1.349 . S
C509 C511 1.327 . S
C509 H532 0.950 . S
C510 C509 1.349 . S
C510 C522 1.349 . S
C511 C509 1.327 . S
C511 C527 1.429 . S
C511 H533 0.950 . S
C512 H508 0.949 . S
C512 C520 1.574 . S
C512 C528 1.368 . S
H513 C521 0.950 . S
H514 C519 0.950 1_556 S
H515 C520 0.949 . S
H516 C522 0.950 . S
H517 C523 0.950 . S
H518 C524 0.949 . S
C519 H514 0.950 1_554 S
C519 C521 1.327 . S
C519 C525 1.429 1_554 S
C520 C512 1.574 . S
C520 H515 0.949 . S
C520 C526 1.368 . S
C521 C505 1.349 . S
C521 H513 0.950 . S
C521 C519 1.327 . S
C522 C510 1.349 . S
C522 H516 0.950 . S
C522 C523 1.327 . S
C523 H517 0.950 . S
C523 C522 1.327 . S
C523 C527 1.429 . S
C524 C507 1.574 . S
C524 H518 0.949 . S
C524 C528 1.368 . S
C525 C506 1.429 . S
C525 C519 1.429 1_556 S
C525 C526 1.523 . S
C526 C507 1.368 . S
C526 C520 1.368 . S
C526 C525 1.523 . S
C527 C511 1.429 . S
C527 C523 1.429 . S
C527 C528 1.523 . S
C528 C512 1.368 . S
C528 C524 1.368 . S
C528 C527 1.523 . S
H529 C504 0.950 . S
H530 C506 0.950 . S
H531 C507 0.949 . S
H532 C509 0.950 . S
H533 C511 0.950 . S
C534 C535 1.349 . S
C534 C536 1.327 . S
C534 H559 0.950 . S
C535 C534 1.349 . S
C535 C551 1.349 . S
C536 C534 1.327 . S
C536 C555 1.429 . S
C536 H560 0.950 . S
C537 C554 1.574 . S
C537 C556 1.368 . S
C537 H561 0.949 . S
H538 C542 0.949 . S
C539 C540 1.349 . S
C539 C541 1.327 . S
C539 H562 0.950 . S
C540 C539 1.349 . S
C540 C552 1.349 . S
C541 C539 1.327 . S
C541 C557 1.429 . S
C541 H563 0.950 . S
C542 H538 0.949 . S
C542 C550 1.574 . S
C542 C558 1.368 . S
H543 C551 0.950 . S
H544 C549 0.950 . S
H545 C550 0.949 . S
H546 C552 0.950 . S
H547 C553 0.950 . S
H548 C554 0.949 . S
C549 H544 0.950 . S
C549 C551 1.327 . S
C549 C555 1.429 . S
C550 C542 1.574 . S
C550 H545 0.949 . S
C550 C556 1.368 . S
C551 C535 1.349 . S
C551 H543 0.950 . S
C551 C549 1.327 . S
C552 C540 1.349 . S
C552 H546 0.950 . S
C552 C553 1.327 . S
C553 H547 0.950 . S
C553 C552 1.327 . S
C553 C557 1.429 . S
C554 C537 1.574 . S
C554 H548 0.949 . S
C554 C558 1.368 . S
C555 C536 1.429 . S
C555 C549 1.429 . S
C555 C556 1.523 . S
C556 C537 1.368 . S
C556 C550 1.368 . S
C556 C555 1.523 . S
C557 C541 1.429 . S
C557 C553 1.429 . S
C557 C558 1.523 1_556 S
C558 C542 1.368 . S
C558 C554 1.368 . S
C558 C557 1.523 1_554 S
H559 C534 0.950 . S
H560 C536 0.950 . S
H561 C537 0.949 . S
H562 C539 0.950 . S
H563 C541 0.950 . S
C564 C565 1.349 . S
C564 C566 1.327 . S
C564 H589 0.950 . S
C565 C564 1.349 . S
C565 C581 1.349 . S
C566 C564 1.327 . S
C566 C585 1.429 . S
C566 H590 0.950 . S
C567 C584 1.574 . S
C567 C586 1.368 . S
C567 H591 0.949 . S
H568 C572 0.949 . S
C569 C570 1.349 . S
C569 C571 1.327 . S
C569 H592 0.950 . S
C570 C569 1.349 . S
C570 C582 1.349 . S
C571 C569 1.327 . S
C571 C587 1.429 . S
C571 H593 0.950 . S
C572 H568 0.949 . S
C572 C580 1.574 . S
C572 C588 1.368 . S
H573 C581 0.950 . S
H574 C579 0.950 . S
H575 C580 0.949 . S
H576 C582 0.950 . S
H577 C583 0.950 . S
H578 C584 0.949 . S
C579 H574 0.950 . S
C579 C581 1.327 . S
C579 C585 1.429 . S
C580 C572 1.574 . S
C580 H575 0.949 . S
C580 C586 1.368 . S
C581 C565 1.349 . S
C581 H573 0.950 . S
C581 C579 1.327 . S
C582 C570 1.349 . S
C582 H576 0.950 . S
C582 C583 1.327 . S
C583 H577 0.950 . S
C583 C582 1.327 . S
C583 C587 1.429 . S
C584 C567 1.574 . S
C584 H578 0.949 . S
C584 C588 1.368 . S
C585 C566 1.429 . S
C585 C579 1.429 . S
C585 C586 1.523 . S
C586 C567 1.368 . S
C586 C580 1.368 . S
C586 C585 1.523 . S
C587 C571 1.429 . S
C587 C583 1.429 . S
C587 C588 1.523 . S
C588 C572 1.368 . S
C588 C584 1.368 . S
C588 C587 1.523 . S
H589 C564 0.950 . S
H590 C566 0.950 . S
H591 C567 0.949 . S
H592 C569 0.950 . S
H593 C571 0.950 . S
C594 C595 1.349 . S
C594 C596 1.327 . S
C594 H619 0.950 . S
C595 C594 1.349 . S
C595 C611 1.349 . S
C596 C594 1.327 . S
C596 C615 1.429 . S
C596 H620 0.950 . S
C597 C614 1.574 . S
C597 C616 1.368 . S
C597 H621 0.949 . S
H598 C602 0.949 . S
C599 C600 1.349 . S
C599 C601 1.327 . S
C599 H622 0.950 . S
C600 C599 1.349 . S
C600 C612 1.349 . S
C601 C599 1.327 . S
C601 C617 1.429 . S
C601 H623 0.950 . S
C602 H598 0.949 . S
C602 C610 1.574 . S
C602 C618 1.368 . S
H603 C611 0.950 . S
H604 C609 0.950 . S
H605 C610 0.949 . S
H606 C612 0.950 . S
H607 C613 0.950 . S
H608 C614 0.949 . S
C609 H604 0.950 . S
C609 C611 1.327 . S
C609 C615 1.429 . S
C610 C602 1.574 . S
C610 H605 0.949 . S
C610 C616 1.368 . S
C611 C595 1.349 . S
C611 H603 0.950 . S
C611 C609 1.327 . S
C612 C600 1.349 . S
C612 H606 0.950 . S
C612 C613 1.327 . S
C613 H607 0.950 . S
C613 C612 1.327 . S
C613 C617 1.429 . S
C614 C597 1.574 . S
C614 H608 0.949 . S
C614 C618 1.368 . S
C615 C596 1.429 . S
C615 C609 1.429 . S
C615 C616 1.523 . S
C616 C597 1.368 . S
C616 C610 1.368 . S
C616 C615 1.523 . S
C617 C601 1.429 . S
C617 C613 1.429 . S
C617 C618 1.523 . S
C618 C602 1.368 . S
C618 C614 1.368 . S
C618 C617 1.523 . S
H619 C594 0.950 . S
H620 C596 0.950 . S
H621 C597 0.949 . S
H622 C599 0.950 . S
H623 C601 0.950 . S
C624 C625 1.349 . S
C624 C626 1.327 . S
C624 H649 0.950 . S
C625 C624 1.349 . S
C625 C641 1.349 . S
C626 C624 1.327 . S
C626 C645 1.429 . S
C626 H650 0.950 . S
C627 C644 1.574 1_556 S
C627 C646 1.368 . S
C627 H651 0.949 1_556 S
H628 C632 0.949 . S
C629 C630 1.349 . S
C629 C631 1.327 . S
C629 H652 0.950 . S
C630 C629 1.349 . S
C630 C642 1.349 1_554 S
C631 C629 1.327 . S
C631 C647 1.429 . S
C631 H653 0.950 . S
C632 H628 0.949 . S
C632 C640 1.574 . S
C632 C648 1.368 . S
H633 C641 0.950 . S
H634 C639 0.950 . S
H635 C640 0.949 . S
H636 C642 0.950 . S
H637 C643 0.950 . S
H638 C644 0.949 . S
C639 H634 0.950 . S
C639 C641 1.327 . S
C639 C645 1.429 . S
C640 C632 1.574 . S
C640 H635 0.949 . S
C640 C646 1.368 . S
C641 C625 1.349 . S
C641 H633 0.950 . S
C641 C639 1.327 . S
C642 C630 1.349 1_556 S
C642 H636 0.950 . S
C642 C643 1.327 . S
C643 H637 0.950 . S
C643 C642 1.327 . S
C643 C647 1.429 1_556 S
C644 C627 1.574 1_554 S
C644 H638 0.949 . S
C644 C648 1.368 1_554 S
C645 C626 1.429 . S
C645 C639 1.429 . S
C645 C646 1.523 . S
C646 C627 1.368 . S
C646 C640 1.368 . S
C646 C645 1.523 . S
C647 C631 1.429 . S
C647 C643 1.429 1_554 S
C647 C648 1.523 1_554 S
C648 C632 1.368 . S
C648 C644 1.368 1_556 S
C648 C647 1.523 1_556 S
H649 C624 0.950 . S
H650 C626 0.950 . S
H651 C627 0.949 1_554 S
H652 C629 0.950 . S
H653 C631 0.950 . S
C654 C655 1.349 . S
C654 C656 1.327 . S
C654 H679 0.950 . S
C655 C654 1.349 . S
C655 C671 1.349 . S
C656 C654 1.327 . S
C656 C675 1.429 . S
C656 H680 0.950 . S
C657 C674 1.574 . S
C657 C676 1.368 . S
C657 H681 0.949 . S
H658 C662 0.949 . S
C659 C660 1.349 . S
C659 C661 1.327 . S
C659 H682 0.950 . S
C660 C659 1.349 . S
C660 C672 1.349 . S
C661 C659 1.327 . S
C661 C677 1.429 . S
C661 H683 0.950 . S
C662 H658 0.949 . S
C662 C670 1.574 . S
C662 C678 1.368 . S
H663 C671 0.950 . S
H664 C669 0.950 . S
H665 C670 0.949 . S
H666 C672 0.950 . S
H667 C673 0.950 . S
H668 C674 0.949 . S
C669 H664 0.950 . S
C669 C671 1.327 . S
C669 C675 1.429 . S
C670 C662 1.574 . S
C670 H665 0.949 . S
C670 C676 1.368 . S
C671 C655 1.349 . S
C671 H663 0.950 . S
C671 C669 1.327 . S
C672 C660 1.349 . S
C672 H666 0.950 . S
C672 C673 1.327 . S
C673 H667 0.950 . S
C673 C672 1.327 . S
C673 C677 1.429 . S
C674 C657 1.574 . S
C674 H668 0.949 . S
C674 C678 1.368 . S
C675 C656 1.429 . S
C675 C669 1.429 . S
C675 C676 1.523 . S
C676 C657 1.368 . S
C676 C670 1.368 . S
C676 C675 1.523 . S
C677 C661 1.429 . S
C677 C673 1.429 . S
C677 C678 1.523 . S
C678 C662 1.368 . S
C678 C674 1.368 . S
C678 C677 1.523 . S
H679 C654 0.950 . S
H680 C656 0.950 . S
H681 C657 0.949 . S
H682 C659 0.950 . S
H683 C661 0.950 . S
C684 C685 1.349 . S
C684 C686 1.327 . S
C684 H709 0.950 . S
C685 C684 1.349 . S
C685 C701 1.349 . S
C686 C684 1.327 . S
C686 C705 1.429 . S
C686 H710 0.950 . S
C687 C704 1.574 . S
C687 C706 1.368 . S
C687 H711 0.949 . S
H688 C692 0.949 . S
C689 C690 1.349 . S
C689 C691 1.327 . S
C689 H712 0.950 . S
C690 C689 1.349 . S
C690 C702 1.349 . S
C691 C689 1.327 . S
C691 C707 1.429 . S
C691 H713 0.950 . S
C692 H688 0.949 . S
C692 C700 1.574 . S
C692 C708 1.368 . S
H693 C701 0.950 . S
H694 C699 0.950 . S
H695 C700 0.949 . S
H696 C702 0.950 . S
H697 C703 0.950 . S
H698 C704 0.949 . S
C699 H694 0.950 . S
C699 C701 1.327 . S
C699 C705 1.429 . S
C700 C692 1.574 . S
C700 H695 0.949 . S
C700 C706 1.368 . S
C701 C685 1.349 . S
C701 H693 0.950 . S
C701 C699 1.327 . S
C702 C690 1.349 . S
C702 H696 0.950 . S
C702 C703 1.327 . S
C703 H697 0.950 . S
C703 C702 1.327 . S
C703 C707 1.429 . S
C704 C687 1.574 . S
C704 H698 0.949 . S
C704 C708 1.368 . S
C705 C686 1.429 . S
C705 C699 1.429 . S
C705 C706 1.523 . S
C706 C687 1.368 . S
C706 C700 1.368 . S
C706 C705 1.523 . S
C707 C691 1.429 . S
C707 C703 1.429 . S
C707 C708 1.523 . S
C708 C692 1.368 . S
C708 C704 1.368 . S
C708 C707 1.523 . S
H709 C684 0.950 . S
H710 C686 0.950 . S
H711 C687 0.949 . S
H712 C689 0.950 . S
H713 C691 0.950 . S
C714 C715 1.349 . S
C714 C716 1.327 . S
C714 H739 0.950 . S
C715 C714 1.349 . S
C715 C731 1.349 . S
C716 C714 1.327 . S
C716 C735 1.429 . S
C716 H740 0.950 . S
C717 C734 1.574 . S
C717 C736 1.368 . S
C717 H741 0.949 . S
H718 C722 0.949 . S
C719 C720 1.349 . S
C719 C721 1.327 . S
C719 H742 0.950 . S
C720 C719 1.349 . S
C720 C732 1.349 . S
C721 C719 1.327 . S
C721 C737 1.429 . S
C721 H743 0.950 . S
C722 H718 0.949 . S
C722 C730 1.574 . S
C722 C738 1.368 . S
H723 C731 0.950 . S
H724 C729 0.950 . S
H725 C730 0.949 . S
H726 C732 0.950 . S
H727 C733 0.950 . S
H728 C734 0.949 . S
C729 H724 0.950 . S
C729 C731 1.327 . S
C729 C735 1.429 . S
C730 C722 1.574 . S
C730 H725 0.949 . S
C730 C736 1.368 . S
C731 C715 1.349 . S
C731 H723 0.950 . S
C731 C729 1.327 . S
C732 C720 1.349 . S
C732 H726 0.950 . S
C732 C733 1.327 . S
C733 H727 0.950 . S
C733 C732 1.327 . S
C733 C737 1.429 . S
C734 C717 1.574 . S
C734 H728 0.949 . S
C734 C738 1.368 . S
C735 C716 1.429 . S
C735 C729 1.429 . S
C735 C736 1.523 . S
C736 C717 1.368 . S
C736 C730 1.368 . S
C736 C735 1.523 . S
C737 C721 1.429 . S
C737 C733 1.429 . S
C737 C738 1.523 . S
C738 C722 1.368 . S
C738 C734 1.368 . S
C738 C737 1.523 . S
H739 C714 0.950 . S
H740 C716 0.950 . S
H741 C717 0.949 . S
H742 C719 0.950 . S
H743 C721 0.950 . S
C744 C745 1.349 . S
C744 C746 1.327 . S
C744 H769 0.950 . S
C745 C744 1.349 . S
C745 C761 1.349 . S
C746 C744 1.327 . S
C746 C765 1.429 . S
C746 H770 0.950 . S
C747 C764 1.574 . S
C747 C766 1.368 . S
C747 H771 0.949 . S
H748 C752 0.949 . S
C749 C750 1.349 . S
C749 C751 1.327 . S
C749 H772 0.950 . S
C750 C749 1.349 . S
C750 C762 1.349 . S
C751 C749 1.327 . S
C751 C767 1.429 . S
C751 H773 0.950 . S
C752 H748 0.949 . S
C752 C760 1.574 . S
C752 C768 1.368 . S
H753 C761 0.950 . S
H754 C759 0.950 . S
H755 C760 0.949 . S
H756 C762 0.950 . S
H757 C763 0.950 . S
H758 C764 0.949 . S
C759 H754 0.950 . S
C759 C761 1.327 . S
C759 C765 1.429 . S
C760 C752 1.574 . S
C760 H755 0.949 . S
C760 C766 1.368 . S
C761 C745 1.349 . S
C761 H753 0.950 . S
C761 C759 1.327 . S
C762 C750 1.349 . S
C762 H756 0.950 . S
C762 C763 1.327 . S
C763 H757 0.950 . S
C763 C762 1.327 . S
C763 C767 1.429 . S
C764 C747 1.574 . S
C764 H758 0.949 . S
C764 C768 1.368 . S
C765 C746 1.429 . S
C765 C759 1.429 . S
C765 C766 1.523 . S
C766 C747 1.368 . S
C766 C760 1.368 . S
C766 C765 1.523 . S
C767 C751 1.429 . S
C767 C763 1.429 . S
C767 C768 1.523 . S
C768 C752 1.368 . S
C768 C764 1.368 . S
C768 C767 1.523 . S
H769 C744 0.950 . S
H770 C746 0.950 . S
H771 C747 0.949 . S
H772 C749 0.950 . S
H773 C751 0.950 . S
C774 C775 1.349 . S
C774 C776 1.327 . S
C774 H799 0.950 . S
C775 C774 1.349 . S
C775 C791 1.349 . S
C776 C774 1.327 . S
C776 C795 1.429 . S
C776 H800 0.950 . S
C777 C794 1.574 . S
C777 C796 1.368 . S
C777 H801 0.949 . S
H778 C782 0.949 . S
C779 C780 1.349 . S
C779 C781 1.327 . S
C779 H802 0.950 . S
C780 C779 1.349 . S
C780 C792 1.349 . S
C781 C779 1.327 . S
C781 C797 1.429 . S
C781 H803 0.950 . S
C782 H778 0.949 . S
C782 C790 1.574 . S
C782 C798 1.368 . S
H783 C791 0.950 . S
H784 C789 0.950 . S
H785 C790 0.949 . S
H786 C792 0.950 . S
H787 C793 0.950 . S
H788 C794 0.949 . S
C789 H784 0.950 . S
C789 C791 1.327 . S
C789 C795 1.429 . S
C790 C782 1.574 . S
C790 H785 0.949 . S
C790 C796 1.368 . S
C791 C775 1.349 . S
C791 H783 0.950 . S
C791 C789 1.327 . S
C792 C780 1.349 . S
C792 H786 0.950 . S
C792 C793 1.327 . S
C793 H787 0.950 . S
C793 C792 1.327 . S
C793 C797 1.429 . S
C794 C777 1.574 . S
C794 H788 0.949 . S
C794 C798 1.368 . S
C795 C776 1.429 . S
C795 C789 1.429 . S
C795 C796 1.523 . S
C796 C777 1.368 . S
C796 C790 1.368 . S
C796 C795 1.523 . S
C797 C781 1.429 . S
C797 C793 1.429 . S
C797 C798 1.523 . S
C798 C782 1.368 . S
C798 C794 1.368 . S
C798 C797 1.523 . S
H799 C774 0.950 . S
H800 C776 0.950 . S
H801 C777 0.949 . S
H802 C779 0.950 . S
H803 C781 0.950 . S
C804 C805 1.349 . S
C804 C806 1.327 . S
C804 H829 0.950 1_556 S
C805 C804 1.349 . S
C805 C821 1.349 . S
C806 C804 1.327 . S
C806 C825 1.429 . S
C806 H830 0.950 1_556 S
C807 C824 1.574 . S
C807 C826 1.368 . S
C807 H831 0.949 . S
H808 C812 0.949 . S
C809 C810 1.349 . S
C809 C811 1.327 . S
C809 H832 0.950 . S
C810 C809 1.349 . S
C810 C822 1.349 . S
C811 C809 1.327 . S
C811 C827 1.429 . S
C811 H833 0.950 . S
C812 H808 0.949 . S
C812 C820 1.574 . S
C812 C828 1.368 . S
H813 C821 0.950 . S
H814 C819 0.950 . S
H815 C820 0.949 . S
H816 C822 0.950 . S
H817 C823 0.950 . S
H818 C824 0.949 . S
C819 H814 0.950 . S
C819 C821 1.327 . S
C819 C825 1.429 . S
C820 C812 1.574 . S
C820 H815 0.949 . S
C820 C826 1.368 . S
C821 C805 1.349 . S
C821 H813 0.950 . S
C821 C819 1.327 . S
C822 C810 1.349 . S
C822 H816 0.950 . S
C822 C823 1.327 . S
C823 H817 0.950 . S
C823 C822 1.327 . S
C823 C827 1.429 . S
C824 C807 1.574 . S
C824 H818 0.949 . S
C824 C828 1.368 . S
C825 C806 1.429 . S
C825 C819 1.429 . S
C825 C826 1.523 . S
C826 C807 1.368 . S
C826 C820 1.368 . S
C826 C825 1.523 . S
C827 C811 1.429 . S
C827 C823 1.429 . S
C827 C828 1.523 . S
C828 C812 1.368 . S
C828 C824 1.368 . S
C828 C827 1.523 . S
H829 C804 0.950 1_554 S
H830 C806 0.950 1_554 S
H831 C807 0.949 . S
H832 C809 0.950 . S
H833 C811 0.950 . S
C834 C835 1.349 . S
C834 C836 1.327 . S
C834 H859 0.950 . S
C835 C834 1.349 . S
C835 C851 1.349 . S
C836 C834 1.327 . S
C836 C855 1.429 . S
C836 H860 0.950 . S
C837 C854 1.574 . S
C837 C856 1.368 . S
C837 H861 0.949 . S
H838 C842 0.949 . S
C839 C840 1.349 . S
C839 C841 1.327 . S
C839 H862 0.950 . S
C840 C839 1.349 . S
C840 C852 1.349 . S
C841 C839 1.327 . S
C841 C857 1.429 . S
C841 H863 0.950 . S
C842 H838 0.949 . S
C842 C850 1.574 . S
C842 C858 1.368 . S
H843 C851 0.950 . S
H844 C849 0.950 . S
H845 C850 0.949 . S
H846 C852 0.950 . S
H847 C853 0.950 . S
H848 C854 0.949 . S
C849 H844 0.950 . S
C849 C851 1.327 . S
C849 C855 1.429 . S
C850 C842 1.574 . S
C850 H845 0.949 . S
C850 C856 1.368 . S
C851 C835 1.349 . S
C851 H843 0.950 . S
C851 C849 1.327 . S
C852 C840 1.349 . S
C852 H846 0.950 . S
C852 C853 1.327 . S
C853 H847 0.950 . S
C853 C852 1.327 . S
C853 C857 1.429 . S
C854 C837 1.574 . S
C854 H848 0.949 . S
C854 C858 1.368 . S
C855 C836 1.429 . S
C855 C849 1.429 . S
C855 C856 1.523 . S
C856 C837 1.368 . S
C856 C850 1.368 . S
C856 C855 1.523 . S
C857 C841 1.429 . S
C857 C853 1.429 . S
C857 C858 1.523 . S
C858 C842 1.368 . S
C858 C854 1.368 . S
C858 C857 1.523 . S
H859 C834 0.950 . S
H860 C836 0.950 . S
H861 C837 0.949 . S
H862 C839 0.950 . S
H863 C841 0.950 . S
C265 C249 1.086 . S
C270 C18 1.087 . S
C295 C150 1.095 . S
C300 C51 1.095 . S
C325 C183 1.087 . S
C330 C84 1.086 . S
C355 C216 1.095 . S
C360 C117 1.095 . S
C385 N2 1.201 . S
C390 N13 1.203 . S
C415 N35 1.190 . S
C420 N46 1.192 . S
C445 N79 1.204 . S
C450 N68 1.202 . S
C475 N112 1.223 . S
C480 N101 1.221 . S
C505 N134 1.221 . S
C510 N145 1.223 . S
C535 N178 1.203 . S
C540 N167 1.201 . S
C565 N200 1.190 . S
C570 N211 1.193 . S
C595 N233 1.202 . S
C600 N244 1.204 . S
C625 C219 1.322 . S
C630 C21 1.324 . S
C655 C40 1.286 . S
C660 C252 1.303 . S
C685 C153 1.620 . S
C690 C73 1.602 . S
C715 C106 1.544 . S
C720 C172 1.539 . S
C745 C186 1.324 . S
C750 C54 1.322 . S
C775 C87 1.303 . S
C780 C205 1.286 . S
C805 C238 1.602 . S
C810 C120 1.620 . S
C835 C7 1.539 . S
C840 C139 1.544 . S
