# Generated by pormake.
# Topology vck, (7)-cn, num edge types: 1
# Building blocks:
#     Node 0, Type 0, BuildingBlock: NUHQUE_clean_sbu_2, # of connection points: 7
#     Node 1, Type 0, BuildingBlock: NUHQUE_clean_sbu_2, # of connection points: 7
#     Node 2, Type 0, BuildingBlock: NUHQUE_clean_sbu_2, # of connection points: 7
#     Node 3, Type 0, BuildingBlock: NUHQUE_clean_sbu_2, # of connection points: 7
#     Node 4, Type 0, BuildingBlock: NUHQUE_clean_sbu_2, # of connection points: 7
#     Node 5, Type 0, BuildingBlock: NUHQUE_clean_sbu_2, # of connection points: 7
#     Node 6, Type 0, BuildingBlock: NUHQUE_clean_sbu_2, # of connection points: 7
#     Node 7, Type 0, BuildingBlock: NUHQUE_clean_sbu_2, # of connection points: 7
#     Node 8, Type 0, BuildingBlock: NUHQUE_clean_sbu_2, # of connection points: 7
#     Node 9, Type 0, BuildingBlock: NUHQUE_clean_sbu_2, # of connection points: 7
#     Node 10, Type 0, BuildingBlock: NUHQUE_clean_sbu_2, # of connection points: 7
#     Node 11, Type 0, BuildingBlock: NUHQUE_clean_sbu_2, # of connection points: 7
#     Node 12, Type 0, BuildingBlock: NUHQUE_clean_sbu_2, # of connection points: 7
#     Node 13, Type 0, BuildingBlock: NUHQUE_clean_sbu_2, # of connection points: 7
#     Node 14, Type 0, BuildingBlock: NUHQUE_clean_sbu_2, # of connection points: 7
#     Node 15, Type 0, BuildingBlock: NUHQUE_clean_sbu_2, # of connection points: 7
#     Edge 16, Type (0, 0), BuildingBlock: MIFKUJ_clean_linker_0, # of connection points: 2
#     Edge 17, Type (0, 0), BuildingBlock: MIFKUJ_clean_linker_0, # of connection points: 2
#     Edge 18, Type (0, 0), BuildingBlock: MIFKUJ_clean_linker_0, # of connection points: 2
#     Edge 19, Type (0, 0), BuildingBlock: MIFKUJ_clean_linker_0, # of connection points: 2
#     Edge 20, Type (0, 0), BuildingBlock: MIFKUJ_clean_linker_0, # of connection points: 2
#     Edge 21, Type (0, 0), BuildingBlock: MIFKUJ_clean_linker_0, # of connection points: 2
#     Edge 22, Type (0, 0), BuildingBlock: MIFKUJ_clean_linker_0, # of connection points: 2
#     Edge 23, Type (0, 0), BuildingBlock: MIFKUJ_clean_linker_0, # of connection points: 2
#     Edge 24, Type (0, 0), BuildingBlock: MIFKUJ_clean_linker_0, # of connection points: 2
#     Edge 25, Type (0, 0), BuildingBlock: MIFKUJ_clean_linker_0, # of connection points: 2
#     Edge 26, Type (0, 0), BuildingBlock: MIFKUJ_clean_linker_0, # of connection points: 2
#     Edge 27, Type (0, 0), BuildingBlock: MIFKUJ_clean_linker_0, # of connection points: 2
#     Edge 28, Type (0, 0), BuildingBlock: MIFKUJ_clean_linker_0, # of connection points: 2
#     Edge 29, Type (0, 0), BuildingBlock: MIFKUJ_clean_linker_0, # of connection points: 2
#     Edge 30, Type (0, 0), BuildingBlock: MIFKUJ_clean_linker_0, # of connection points: 2
#     Edge 31, Type (0, 0), BuildingBlock: MIFKUJ_clean_linker_0, # of connection points: 2
#     Edge 32, Type (0, 0), BuildingBlock: MIFKUJ_clean_linker_0, # of connection points: 2
#     Edge 33, Type (0, 0), BuildingBlock: MIFKUJ_clean_linker_0, # of connection points: 2
#     Edge 34, Type (0, 0), BuildingBlock: MIFKUJ_clean_linker_0, # of connection points: 2
#     Edge 35, Type (0, 0), BuildingBlock: MIFKUJ_clean_linker_0, # of connection points: 2
#     Edge 36, Type (0, 0), BuildingBlock: MIFKUJ_clean_linker_0, # of connection points: 2
#     Edge 37, Type (0, 0), BuildingBlock: MIFKUJ_clean_linker_0, # of connection points: 2
#     Edge 38, Type (0, 0), BuildingBlock: MIFKUJ_clean_linker_0, # of connection points: 2
#     Edge 39, Type (0, 0), BuildingBlock: MIFKUJ_clean_linker_0, # of connection points: 2
#     Edge 40, Type (0, 0), BuildingBlock: MIFKUJ_clean_linker_0, # of connection points: 2
#     Edge 41, Type (0, 0), BuildingBlock: MIFKUJ_clean_linker_0, # of connection points: 2
#     Edge 42, Type (0, 0), BuildingBlock: MIFKUJ_clean_linker_0, # of connection points: 2
#     Edge 43, Type (0, 0), BuildingBlock: MIFKUJ_clean_linker_0, # of connection points: 2
#     Edge 44, Type (0, 0), BuildingBlock: MIFKUJ_clean_linker_0, # of connection points: 2
#     Edge 45, Type (0, 0), BuildingBlock: MIFKUJ_clean_linker_0, # of connection points: 2
#     Edge 46, Type (0, 0), BuildingBlock: MIFKUJ_clean_linker_0, # of connection points: 2
#     Edge 47, Type (0, 0), BuildingBlock: MIFKUJ_clean_linker_0, # of connection points: 2
#     Edge 48, Type (0, 0), BuildingBlock: MIFKUJ_clean_linker_0, # of connection points: 2
#     Edge 49, Type (0, 0), BuildingBlock: MIFKUJ_clean_linker_0, # of connection points: 2
#     Edge 50, Type (0, 0), BuildingBlock: MIFKUJ_clean_linker_0, # of connection points: 2
#     Edge 51, Type (0, 0), BuildingBlock: MIFKUJ_clean_linker_0, # of connection points: 2
#     Edge 52, Type (0, 0), BuildingBlock: MIFKUJ_clean_linker_0, # of connection points: 2
#     Edge 53, Type (0, 0), BuildingBlock: MIFKUJ_clean_linker_0, # of connection points: 2
#     Edge 54, Type (0, 0), BuildingBlock: MIFKUJ_clean_linker_0, # of connection points: 2
#     Edge 55, Type (0, 0), BuildingBlock: MIFKUJ_clean_linker_0, # of connection points: 2
#     Edge 56, Type (0, 0), BuildingBlock: MIFKUJ_clean_linker_0, # of connection points: 2
#     Edge 57, Type (0, 0), BuildingBlock: MIFKUJ_clean_linker_0, # of connection points: 2
#     Edge 58, Type (0, 0), BuildingBlock: MIFKUJ_clean_linker_0, # of connection points: 2
#     Edge 59, Type (0, 0), BuildingBlock: MIFKUJ_clean_linker_0, # of connection points: 2
#     Edge 60, Type (0, 0), BuildingBlock: MIFKUJ_clean_linker_0, # of connection points: 2
#     Edge 61, Type (0, 0), BuildingBlock: MIFKUJ_clean_linker_0, # of connection points: 2
#     Edge 62, Type (0, 0), BuildingBlock: MIFKUJ_clean_linker_0, # of connection points: 2
#     Edge 63, Type (0, 0), BuildingBlock: MIFKUJ_clean_linker_0, # of connection points: 2
#     Edge 64, Type (0, 0), BuildingBlock: MIFKUJ_clean_linker_0, # of connection points: 2
#     Edge 65, Type (0, 0), BuildingBlock: MIFKUJ_clean_linker_0, # of connection points: 2
#     Edge 66, Type (0, 0), BuildingBlock: MIFKUJ_clean_linker_0, # of connection points: 2
#     Edge 67, Type (0, 0), BuildingBlock: MIFKUJ_clean_linker_0, # of connection points: 2
#     Edge 68, Type (0, 0), BuildingBlock: MIFKUJ_clean_linker_0, # of connection points: 2
#     Edge 69, Type (0, 0), BuildingBlock: MIFKUJ_clean_linker_0, # of connection points: 2
#     Edge 70, Type (0, 0), BuildingBlock: MIFKUJ_clean_linker_0, # of connection points: 2
#     Edge 71, Type (0, 0), BuildingBlock: MIFKUJ_clean_linker_0, # of connection points: 2
# Relax obj value: 0.174
# Max RMSD: 0.201
# Mean RMSD: 0.201
data_MOF--net-vck--node1-NUHQUE_clean_sbu_2--edge1-MIFKUJ_clean_linker_0
_symmetry_space_group_name_H-M    P1
_symmetry_Int_Tables_number       1
_symmetry_cell_setting            triclinic
loop_
_symmetry_equiv_pos_as_xyz
'x, y, z'
_cell_length_a     91.613573
_cell_length_b     62.798267
_cell_length_c     26.106481
_cell_angle_alpha  90.042787
_cell_angle_beta   90.01521
_cell_angle_gamma 90.03133
loop_
_atom_site_label
_atom_site_type_symbol
_atom_site_fract_x
_atom_site_fract_y
_atom_site_fract_z
_atom_type_partial_charge
O0 O 0.5494 0.14379 0.12082 0.0
Tb1 Tb 0.56626 0.12018 0.13517 0.0
Eu2 Eu 0.56594 0.12635 0.99831 0.0
C3 C 0.5528 0.16403 0.12599 0.0
O4 O 0.5664 0.16919 0.13591 0.0
C5 C 0.58923 0.14557 0.07855 0.0
O6 O 0.5793 0.09704 0.98076 0.0
C7 C 0.55843 0.14564 0.91424 0.0
C8 C 0.57348 0.08218 0.95154 0.0
O9 O 0.56018 0.08507 0.934 0.0
C10 C 0.54899 0.09074 0.06178 0.0
C11 C 0.55036 0.14655 0.865 0.0
C12 C 0.53929 0.16196 0.85936 0.0
C13 C 0.53279 0.1656 0.81152 0.0
C14 C 0.53731 0.15371 0.76912 0.0
C15 C 0.54867 0.13892 0.77332 0.0
C16 C 0.55511 0.13514 0.82137 0.0
O17 O 0.58772 0.12834 0.10646 0.0
O18 O 0.57961 0.15002 0.04276 0.0
O19 O 0.57175 0.13266 0.21107 0.0
O20 O 0.56355 0.10128 0.20555 0.0
C21 C 0.56817 0.11585 0.23705 0.0
O22 O 0.54717 0.10682 0.02987 0.0
O23 O 0.55923 0.09117 0.09715 0.0
O24 O 0.56995 0.13326 0.91788 0.0
O25 O 0.55111 0.14754 0.9574 0.0
H26 H 0.53616 0.17181 0.89167 0.0
H27 H 0.53275 0.15719 0.73167 0.0
H28 H 0.56427 0.12428 0.82402 0.0
O29 O 0.45017 0.85887 0.11757 0.0
Tb30 Tb 0.43226 0.88163 0.1205 0.0
Eu31 Eu 0.43504 0.87488 0.98316 0.0
C32 C 0.44732 0.83861 0.12606 0.0
O33 O 0.43368 0.83258 0.13119 0.0
C34 C 0.41247 0.85285 0.0591 0.0
O35 O 0.42063 0.90388 0.97453 0.0
C36 C 0.44112 0.85878 0.89386 0.0
C37 C 0.42622 0.92167 0.95639 0.0
O38 O 0.44012 0.92217 0.94414 0.0
C39 C 0.45238 0.90891 0.04992 0.0
C40 C 0.44723 0.85772 0.84119 0.0
C41 C 0.45754 0.84168 0.83019 0.0
C42 C 0.46168 0.83724 0.77943 0.0
C43 C 0.45588 0.84968 0.73988 0.0
C44 C 0.44526 0.86518 0.74947 0.0
C45 C 0.44105 0.86945 0.80029 0.0
O46 O 0.41218 0.87079 0.08486 0.0
O47 O 0.42325 0.84914 0.02713 0.0
O48 O 0.42778 0.86954 0.19745 0.0
O49 O 0.42957 0.90282 0.18721 0.0
C50 C 0.42737 0.88779 0.22063 0.0
O51 O 0.4541 0.89283 0.01791 0.0
O52 O 0.44149 0.9095 0.08292 0.0
O53 O 0.42947 0.87039 0.90287 0.0
O54 O 0.44966 0.85635 0.93397 0.0
H55 H 0.46156 0.83163 0.86085 0.0
H56 H 0.45909 0.84657 0.70057 0.0
H57 H 0.43245 0.8809 0.8075 0.0
O58 O 0.69673 0.39723 0.376 0.0
Tb59 Tb 0.68589 0.3665 0.37773 0.0
Eu60 Eu 0.68417 0.37541 0.2401 0.0
C61 C 0.69197 0.41138 0.40928 0.0
O62 O 0.68069 0.40633 0.43786 0.0
C63 C 0.66301 0.39518 0.32715 0.0
O64 O 0.67029 0.34564 0.23642 0.0
C65 C 0.68791 0.39285 0.15029 0.0
C66 C 0.67512 0.3293 0.20963 0.0
O67 O 0.68776 0.33105 0.18626 0.0
C68 C 0.70531 0.3433 0.29718 0.0
C69 C 0.69643 0.39403 0.10176 0.0
C70 C 0.70705 0.41016 0.09625 0.0
C71 C 0.71434 0.41318 0.04954 0.0
C72 C 0.71102 0.3999 0.00809 0.0
C73 C 0.70019 0.3842 0.01174 0.0
C74 C 0.69283 0.38133 0.05873 0.0
O75 O 0.66449 0.37779 0.35466 0.0
O76 O 0.67176 0.39921 0.28835 0.0
O77 O 0.69703 0.36205 0.45119 0.0
O78 O 0.6744 0.35538 0.44662 0.0
C79 C 0.68565 0.35596 0.47706 0.0
O80 O 0.70507 0.35965 0.26558 0.0
O81 O 0.69522 0.34073 0.33262 0.0
O82 O 0.67906 0.3767 0.15813 0.0
O83 O 0.69423 0.39966 0.19246 0.0
H84 H 0.70942 0.42079 0.12792 0.0
H85 H 0.71626 0.4028 0.97148 0.0
H86 H 0.6842 0.36958 0.06135 0.0
O87 O 0.30317 0.60635 0.3821 0.0
Tb88 Tb 0.31556 0.6357 0.38843 0.0
Eu89 Eu 0.31607 0.62768 0.25071 0.0
C90 C 0.30731 0.59073 0.41236 0.0
O91 O 0.31899 0.5936 0.44081 0.0
C92 C 0.33709 0.60591 0.3352 0.0
O93 O 0.33131 0.65579 0.24129 0.0
C94 C 0.31047 0.60977 0.16286 0.0
C95 C 0.32616 0.67369 0.22218 0.0
O96 O 0.31235 0.67461 0.20885 0.0
C97 C 0.29773 0.66266 0.31113 0.0
C98 C 0.30316 0.60833 0.11216 0.0
C99 C 0.29406 0.59064 0.10254 0.0
C100 C 0.28875 0.58654 0.05305 0.0
C101 C 0.292 0.60079 0.01353 0.0
C102 C 0.30098 0.61848 0.02201 0.0
C103 C 0.30675 0.62214 0.07127 0.0
O104 O 0.33644 0.62318 0.36358 0.0
O105 O 0.32766 0.60266 0.29796 0.0
O106 O 0.32746 0.64311 0.45933 0.0
O107 O 0.30438 0.64123 0.46145 0.0
C108 C 0.31604 0.64446 0.48876 0.0
O109 O 0.29662 0.64662 0.27871 0.0
O110 O 0.30814 0.66335 0.34587 0.0
O111 O 0.32116 0.62345 0.16972 0.0
O112 O 0.30281 0.60607 0.20452 0.0
H113 H 0.29183 0.57933 0.13291 0.0
H114 H 0.28796 0.59762 0.97517 0.0
H115 H 0.31422 0.6353 0.07725 0.0
O116 O 0.54536 0.6392 0.63043 0.0
Tb117 Tb 0.56299 0.616 0.63439 0.0
Eu118 Eu 0.56803 0.62351 0.4916 0.0
C119 C 0.54616 0.65764 0.60671 0.0
O120 O 0.557 0.66144 0.5753 0.0
C121 C 0.58726 0.64738 0.58567 0.0
O122 O 0.58112 0.59432 0.47093 0.0
C123 C 0.56183 0.64392 0.40732 0.0
C124 C 0.58881 0.58339 0.50436 0.0
O125 O 0.58937 0.58977 0.55223 0.0
C126 C 0.55031 0.58774 0.54912 0.0
C127 C 0.554 0.64597 0.35754 0.0
C128 C 0.54541 0.66431 0.3492 0.0
C129 C 0.53935 0.66856 0.30074 0.0
C130 C 0.54138 0.65371 0.26126 0.0
C131 C 0.55018 0.63568 0.26778 0.0
C132 C 0.5566 0.6319 0.31606 0.0
O133 O 0.5816 0.63702 0.62486 0.0
O134 O 0.5833 0.64477 0.5373 0.0
O135 O 0.5517 0.60907 0.70665 0.0
O136 O 0.57462 0.6058 0.70402 0.0
C137 C 0.56321 0.60445 0.7335 0.0
O138 O 0.54857 0.6044 0.51916 0.0
O139 O 0.55999 0.58807 0.58625 0.0
O140 O 0.5724 0.62989 0.4112 0.0
O141 O 0.55468 0.64693 0.4505 0.0
H142 H 0.54413 0.67585 0.37976 0.0
H143 H 0.53657 0.6567 0.224 0.0
H144 H 0.56375 0.6183 0.32089 0.0
O145 O 0.44754 0.35341 0.61199 0.0
Tb146 Tb 0.43204 0.37932 0.62219 0.0
Eu147 Eu 0.43275 0.37542 0.48232 0.0
C148 C 0.44297 0.33387 0.62113 0.0
O149 O 0.42901 0.3308 0.62997 0.0
C150 C 0.40946 0.35543 0.5602 0.0
O151 O 0.41916 0.40457 0.46428 0.0
C152 C 0.43931 0.35662 0.39639 0.0
C153 C 0.41423 0.4179 0.49912 0.0
O154 O 0.41669 0.41406 0.54774 0.0
C155 C 0.45275 0.4071 0.5511 0.0
C156 C 0.44686 0.35653 0.34611 0.0
C157 C 0.45726 0.34051 0.33642 0.0
C158 C 0.46338 0.338 0.28743 0.0
C159 C 0.45924 0.35195 0.24825 0.0
C160 C 0.44863 0.36762 0.25658 0.0
C161 C 0.44238 0.36988 0.3055 0.0
O162 O 0.41077 0.37215 0.58998 0.0
O163 O 0.41967 0.35118 0.52641 0.0
O164 O 0.42949 0.36603 0.69922 0.0
O165 O 0.43037 0.39945 0.69115 0.0
C166 C 0.42917 0.38393 0.72385 0.0
O167 O 0.45248 0.39295 0.51362 0.0
O168 O 0.44363 0.40655 0.5902 0.0
O169 O 0.42786 0.36893 0.40235 0.0
O170 O 0.4471 0.35441 0.43839 0.0
H171 H 0.46024 0.32949 0.36663 0.0
H172 H 0.4635 0.34962 0.20987 0.0
H173 H 0.43382 0.38152 0.31129 0.0
O174 O 0.69851 0.8989 0.85533 0.0
Tb175 Tb 0.68237 0.87446 0.87223 0.0
Eu176 Eu 0.68296 0.87865 0.73582 0.0
C177 C 0.69468 0.91894 0.86164 0.0
O178 O 0.68092 0.92326 0.87118 0.0
C179 C 0.65895 0.89844 0.81303 0.0
O180 O 0.6689 0.84951 0.72325 0.0
C181 C 0.69046 0.89736 0.65079 0.0
C182 C 0.67277 0.83528 0.68874 0.0
O183 O 0.68472 0.83846 0.66201 0.0
C184 C 0.70147 0.84499 0.80195 0.0
C185 C 0.69974 0.89853 0.60413 0.0
C186 C 0.71193 0.91227 0.60399 0.0
C187 C 0.7196 0.91637 0.55857 0.0
C188 C 0.71505 0.90681 0.51296 0.0
C189 C 0.7026 0.89386 0.51149 0.0
C190 C 0.69511 0.88935 0.55735 0.0
O191 O 0.66076 0.88241 0.84461 0.0
O192 O 0.66866 0.90246 0.77721 0.0
O193 O 0.68314 0.88921 0.94817 0.0
O194 O 0.68026 0.85589 0.94345 0.0
C195 C 0.68151 0.87194 0.97468 0.0
O196 O 0.70218 0.85984 0.7663 0.0
O197 O 0.69208 0.8459 0.84008 0.0
O198 O 0.67998 0.8831 0.65338 0.0
O199 O 0.69651 0.90154 0.69543 0.0
H200 H 0.71511 0.92059 0.63866 0.0
H201 H 0.72064 0.91071 0.47752 0.0
H202 H 0.68521 0.87992 0.55591 0.0
O203 O 0.30616 0.10592 0.86892 0.0
Tb204 Tb 0.31895 0.135 0.87511 0.0
Eu205 Eu 0.31671 0.12605 0.73984 0.0
C206 C 0.31093 0.08955 0.89562 0.0
O207 O 0.32344 0.09151 0.91987 0.0
C208 C 0.33896 0.10394 0.81935 0.0
O209 O 0.33052 0.15568 0.73236 0.0
C210 C 0.31123 0.11015 0.64945 0.0
C211 C 0.32485 0.17217 0.70843 0.0
O212 O 0.31147 0.17062 0.6907 0.0
C213 C 0.29844 0.16028 0.8017 0.0
C214 C 0.30395 0.11143 0.59852 0.0
C215 C 0.2935 0.09574 0.586 0.0
C216 C 0.28727 0.09467 0.53672 0.0
C217 C 0.29118 0.11026 0.50076 0.0
C218 C 0.30219 0.12515 0.51097 0.0
C219 C 0.30863 0.12573 0.55997 0.0
O220 O 0.33927 0.12141 0.84721 0.0
O221 O 0.32848 0.10072 0.78564 0.0
O222 O 0.30964 0.1316 0.95173 0.0
O223 O 0.32924 0.14918 0.94377 0.0
C224 C 0.3196 0.14213 0.97637 0.0
O225 O 0.29708 0.14358 0.77138 0.0
O226 O 0.30929 0.1618 0.83468 0.0
O227 O 0.32249 0.12248 0.65915 0.0
O228 O 0.30314 0.10632 0.69006 0.0
H229 H 0.29085 0.08365 0.61407 0.0
H230 H 0.28625 0.11017 0.46303 0.0
H231 H 0.31739 0.1369 0.56749 0.0
O232 O 0.03912 0.14475 0.63649 0.0
Tb233 Tb 0.05762 0.1232 0.64043 0.0
Eu234 Eu 0.06432 0.1286 0.49799 0.0
C235 C 0.03912 0.16252 0.60988 0.0
O236 O 0.04961 0.1661 0.5768 0.0
C237 C 0.08109 0.15611 0.59166 0.0
O238 O 0.07963 0.1006 0.48873 0.0
C239 C 0.05937 0.14671 0.40984 0.0
C240 C 0.07455 0.0821 0.47294 0.0
O241 O 0.0606 0.08016 0.4626 0.0
C242 C 0.0447 0.09526 0.55646 0.0
C243 C 0.05049 0.14852 0.36222 0.0
C244 C 0.04052 0.16553 0.35724 0.0
C245 C 0.03379 0.16983 0.31003 0.0
C246 C 0.03662 0.15658 0.26811 0.0
C247 C 0.04642 0.13952 0.27184 0.0
C248 C 0.05348 0.13566 0.31892 0.0
O249 O 0.07457 0.14697 0.63097 0.0
O250 O 0.07879 0.15132 0.54295 0.0
O251 O 0.04714 0.11598 0.71375 0.0
O252 O 0.07008 0.11273 0.70784 0.0
C253 C 0.05897 0.1112 0.73869 0.0
O254 O 0.04403 0.11093 0.52316 0.0
O255 O 0.05474 0.09538 0.59232 0.0
O256 O 0.06804 0.13023 0.41557 0.0
O257 O 0.05374 0.15352 0.45326 0.0
H258 H 0.03863 0.17622 0.38918 0.0
H259 H 0.03157 0.16019 0.23153 0.0
H260 H 0.06148 0.12301 0.32137 0.0
O261 O 0.94356 0.85867 0.64359 0.0
Tb262 Tb 0.93081 0.88772 0.64649 0.0
Eu263 Eu 0.9319 0.87734 0.50996 0.0
C264 C 0.9393 0.84326 0.67425 0.0
O265 O 0.9274 0.84614 0.70149 0.0
C266 C 0.91116 0.85531 0.59376 0.0
O267 O 0.91743 0.90629 0.50321 0.0
C268 C 0.93705 0.86057 0.42032 0.0
C269 C 0.92269 0.92282 0.47833 0.0
O270 O 0.93582 0.92138 0.45839 0.0
C271 C 0.94993 0.91293 0.56869 0.0
C272 C 0.94414 0.8603 0.36897 0.0
C273 C 0.95441 0.8441 0.35898 0.0
C274 C 0.96035 0.84133 0.30987 0.0
C275 C 0.9561 0.85517 0.27062 0.0
C276 C 0.94579 0.87131 0.27895 0.0
C277 C 0.93965 0.87372 0.32829 0.0
O278 O 0.91065 0.87337 0.61923 0.0
O279 O 0.92127 0.85199 0.5589 0.0
O280 O 0.94119 0.89232 0.7213 0.0
O281 O 0.91842 0.8974 0.715 0.0
C282 C 0.92946 0.89736 0.74649 0.0
O283 O 0.95128 0.89622 0.53839 0.0
O284 O 0.93925 0.9144 0.60239 0.0
O285 O 0.92598 0.87337 0.42924 0.0
O286 O 0.94517 0.857 0.46098 0.0
H287 H 0.95751 0.83321 0.38928 0.0
H288 H 0.96024 0.85258 0.2322 0.0
H289 H 0.93135 0.88573 0.33464 0.0
O290 O 0.19851 0.39629 0.87999 0.0
Tb291 Tb 0.18431 0.36867 0.88716 0.0
Eu292 Eu 0.18507 0.37882 0.75235 0.0
C293 C 0.19546 0.41232 0.91068 0.0
O294 O 0.18362 0.41101 0.93896 0.0
C295 C 0.16486 0.40216 0.83721 0.0
O296 O 0.1697 0.35105 0.74111 0.0
C297 C 0.19131 0.39631 0.66462 0.0
C298 C 0.1736 0.33591 0.70896 0.0
O299 O 0.18624 0.33762 0.68555 0.0
C300 C 0.20147 0.34105 0.80922 0.0
C301 C 0.19757 0.39717 0.61209 0.0
C302 C 0.20818 0.41289 0.60189 0.0
C303 C 0.21258 0.4173 0.55149 0.0
C304 C 0.2067 0.40533 0.51127 0.0
C305 C 0.19615 0.38964 0.52011 0.0
C306 C 0.19159 0.38542 0.57072 0.0
O307 O 0.16435 0.38453 0.8642 0.0
O308 O 0.17479 0.40473 0.80119 0.0
O309 O 0.19508 0.3675 0.96196 0.0
O310 O 0.17309 0.35733 0.95668 0.0
C311 C 0.18403 0.36031 0.98783 0.0
O312 O 0.20358 0.35771 0.77938 0.0
O313 O 0.19098 0.34087 0.84363 0.0
O314 O 0.17921 0.38563 0.67303 0.0
O315 O 0.20004 0.39728 0.70461 0.0
H316 H 0.21234 0.42267 0.6329 0.0
H317 H 0.2101 0.40865 0.47225 0.0
H318 H 0.18303 0.37385 0.57743 0.0
O319 O 0.79899 0.60575 0.8649 0.0
Tb320 Tb 0.81426 0.63203 0.87497 0.0
Eu321 Eu 0.81241 0.62685 0.73962 0.0
C322 C 0.80329 0.58638 0.87718 0.0
O323 O 0.81696 0.58338 0.89047 0.0
C324 C 0.83571 0.60525 0.81421 0.0
O325 O 0.82785 0.65493 0.73663 0.0
C326 C 0.80743 0.61148 0.64854 0.0
C327 C 0.8227 0.67351 0.72186 0.0
O328 O 0.8088 0.67498 0.70998 0.0
C329 C 0.79223 0.65784 0.8063 0.0
C330 C 0.79852 0.60996 0.60106 0.0
C331 C 0.78649 0.59592 0.59903 0.0
C332 C 0.77955 0.59134 0.55228 0.0
C333 C 0.78467 0.60099 0.5074 0.0
C334 C 0.79684 0.6145 0.50811 0.0
C335 C 0.80359 0.61929 0.55515 0.0
O336 O 0.83515 0.62232 0.84323 0.0
O337 O 0.82525 0.60152 0.78098 0.0
O338 O 0.81242 0.62009 0.95326 0.0
O339 O 0.82021 0.65145 0.94237 0.0
C340 C 0.81707 0.63702 0.97643 0.0
O341 O 0.79217 0.64275 0.77108 0.0
O342 O 0.8022 0.65871 0.8427 0.0
O343 O 0.81558 0.62839 0.65653 0.0
O344 O 0.80225 0.60308 0.69091 0.0
H345 H 0.78285 0.58782 0.63338 0.0
H346 H 0.7797 0.59691 0.47096 0.0
H347 H 0.81334 0.62907 0.55546 0.0
O348 O 0.04212 0.64719 0.13263 0.0
Tb349 Tb 0.06043 0.62527 0.13994 0.0
Eu350 Eu 0.06678 0.62986 0.99736 0.0
C351 C 0.04318 0.66591 0.11031 0.0
O352 O 0.0548 0.67036 0.083 0.0
C353 C 0.08535 0.65544 0.09014 0.0
O354 O 0.07823 0.59937 0.97542 0.0
C355 C 0.06008 0.65031 0.91387 0.0
C356 C 0.08735 0.58955 1.00625 0.0
O357 O 0.09022 0.59789 0.05132 0.0
C358 C 0.04895 0.59551 0.05748 0.0
C359 C 0.05133 0.65107 0.86587 0.0
C360 C 0.04076 0.66724 0.86041 0.0
C361 C 0.03381 0.6706 0.81324 0.0
C362 C 0.03696 0.65721 0.77194 0.0
C363 C 0.04739 0.64101 0.77607 0.0
C364 C 0.05473 0.6381 0.82302 0.0
O365 O 0.07798 0.64796 0.12962 0.0
O366 O 0.08314 0.64997 0.04177 0.0
O367 O 0.04928 0.61713 0.21159 0.0
O368 O 0.07237 0.61739 0.21051 0.0
C369 C 0.06094 0.61439 0.23917 0.0
O370 O 0.04717 0.61151 0.0257 0.0
O371 O 0.05888 0.59672 0.09354 0.0
O372 O 0.07081 0.63649 0.91689 0.0
O373 O 0.05342 0.65357 0.95793 0.0
H374 H 0.03856 0.67801 0.89196 0.0
H375 H 0.03166 0.66004 0.7354 0.0
H376 H 0.06319 0.6261 0.82571 0.0
O377 O 0.94636 0.36215 0.14257 0.0
Tb378 Tb 0.93314 0.39089 0.1407 0.0
Eu379 Eu 0.93307 0.38074 1.00156 0.0
C380 C 0.94405 0.34963 0.1822 0.0
O381 O 0.93358 0.35469 0.21437 0.0
C382 C 0.91327 0.35773 0.08886 0.0
O383 O 0.91802 0.40909 0.99328 0.0
C384 C 0.9382 0.36404 0.91183 0.0
C385 C 0.9232 0.42654 0.97196 0.0
O386 O 0.93691 0.42689 0.95731 0.0
C387 C 0.95121 0.41571 0.06049 0.0
C388 C 0.94528 0.36393 0.86052 0.0
C389 C 0.9544 0.34655 0.8484 0.0
C390 C 0.95993 0.34384 0.79869 0.0
C391 C 0.95688 0.35927 0.76161 0.0
C392 C 0.94767 0.37654 0.77202 0.0
C393 C 0.94167 0.37875 0.82158 0.0
O394 O 0.91314 0.37518 0.11687 0.0
O395 O 0.92246 0.35528 0.05041 0.0
O396 O 0.921 0.40068 0.20976 0.0
O397 O 0.94407 0.39951 0.21245 0.0
C398 C 0.93238 0.40342 0.23902 0.0
O399 O 0.95266 0.39897 0.03049 0.0
O400 O 0.94012 0.41723 0.09236 0.0
O401 O 0.92725 0.37698 0.92086 0.0
O402 O 0.94627 0.36022 0.95248 0.0
H403 H 0.9565 0.33442 0.87701 0.0
H404 H 0.96123 0.35732 0.72323 0.0
H405 H 0.93416 0.39167 0.82939 0.0
O406 O 0.19858 0.90104 0.36924 0.0
Tb407 Tb 0.18424 0.87406 0.3837 0.0
Eu408 Eu 0.18564 0.88118 0.24777 0.0
C409 C 0.19455 0.92 0.38559 0.0
O410 O 0.18161 0.92226 0.40652 0.0
C411 C 0.16279 0.90253 0.32677 0.0
O412 O 0.17136 0.85232 0.235 0.0
C413 C 0.19256 0.89945 0.1615 0.0
C414 C 0.17588 0.8376 0.20272 0.0
O415 O 0.18849 0.84031 0.17965 0.0
C416 C 0.20409 0.84666 0.31149 0.0
C417 C 0.20111 0.90049 0.11307 0.0
C418 C 0.21349 0.91383 0.11121 0.0
C419 C 0.2206 0.91798 0.06472 0.0
C420 C 0.21538 0.90848 0.01982 0.0
C421 C 0.20264 0.89607 0.01978 0.0
C422 C 0.19567 0.8917 0.06684 0.0
O423 O 0.16335 0.88562 0.35621 0.0
O424 O 0.17297 0.90599 0.29222 0.0
O425 O 0.19173 0.88267 0.46052 0.0
O426 O 0.17555 0.85883 0.45356 0.0
C427 C 0.18343 0.86969 0.48587 0.0
O428 O 0.20486 0.86219 0.27753 0.0
O429 O 0.19428 0.84639 0.34841 0.0
O430 O 0.18169 0.88591 0.16579 0.0
O431 O 0.19939 0.90302 0.20501 0.0
H432 H 0.21726 0.9218 0.1456 0.0
H433 H 0.22073 0.91206 0.98377 0.0
H434 H 0.1856 0.88265 0.06698 0.0
O435 O 0.80478 0.10409 0.36324 0.0
Tb436 Tb 0.81688 0.13361 0.37219 0.0
Eu437 Eu 0.81725 0.12617 0.23648 0.0
C438 C 0.80966 0.08739 0.38841 0.0
O439 O 0.82206 0.08902 0.41337 0.0
C440 C 0.8391 0.10498 0.31931 0.0
O441 O 0.83263 0.15424 0.22968 0.0
C442 C 0.81184 0.10819 0.14844 0.0
C443 C 0.82748 0.17187 0.20921 0.0
O444 O 0.81395 0.17199 0.19263 0.0
C445 C 0.79821 0.16021 0.29636 0.0
C446 C 0.80244 0.10578 0.10232 0.0
C447 C 0.79159 0.08982 0.1019 0.0
C448 C 0.78377 0.08531 0.05715 0.0
C449 C 0.7868 0.09663 0.01237 0.0
C450 C 0.79779 0.11221 0.01091 0.0
C451 C 0.80559 0.11678 0.05632 0.0
O452 O 0.8381 0.12203 0.34822 0.0
O453 O 0.82969 0.10157 0.28215 0.0
O454 O 0.80532 0.1343 0.44529 0.0
O455 O 0.8276 0.14333 0.44395 0.0
C456 C 0.81624 0.14056 0.47319 0.0
O457 O 0.79733 0.14404 0.26426 0.0
O458 O 0.80842 0.16113 0.33176 0.0
O459 O 0.82033 0.12497 0.1532 0.0
O460 O 0.80668 0.10131 0.1924 0.0
H461 H 0.78953 0.08034 0.13582 0.0
H462 H 0.78118 0.0921 0.97747 0.0
H463 H 0.81432 0.12841 0.05549 0.0
H464 H 0.5246 0.15974 0.15906 0.0
H465 H 0.50793 0.18871 0.18258 0.0
H466 H 0.5389 0.23465 0.12548 0.0
H467 H 0.55565 0.20582 0.10277 0.0
H468 H 0.53148 0.2437 0.22095 0.0
H469 H 0.50633 0.22515 0.06657 0.0
H470 H 0.49371 0.20137 1.00584 0.0
H471 H 0.46036 0.18909 0.11745 0.0
H472 H 0.47301 0.21228 0.17952 0.0
H473 H 0.48895 0.33822 0.2337 0.0
H474 H 0.50304 0.30741 0.20433 0.0
H475 H 0.473 0.26531 0.28119 0.0
H476 H 0.45882 0.29611 0.31069 0.0
H477 H 0.47916 0.25348 0.17826 0.0
H478 H 0.50469 0.27145 0.33261 0.0
H479 H 0.51744 0.29511 0.39332 0.0
H480 H 0.55001 0.30875 0.27972 0.0
H481 H 0.53734 0.28538 0.21803 0.0
C482 C 0.52766 0.176 0.15032 0.0
C483 C 0.54146 0.18063 0.12968 0.0
C484 C 0.51815 0.19254 0.16387 0.0
C485 C 0.52225 0.21389 0.15621 0.0
C486 C 0.53562 0.21834 0.13235 0.0
C487 C 0.54515 0.20188 0.1193 0.0
C488 C 0.51333 0.23166 0.17701 0.0
C489 C 0.52009 0.24597 0.21097 0.0
C490 C 0.49835 0.23427 0.16528 0.0
C491 C 0.49072 0.22029 0.12797 0.0
C492 C 0.49639 0.21721 0.07842 0.0
C493 C 0.48921 0.20386 0.04369 0.0
C494 C 0.47624 0.19375 0.05773 0.0
C495 C 0.47042 0.19693 0.10662 0.0
C496 C 0.47761 0.21014 0.14164 0.0
C497 C 0.48545 0.3224 0.24482 0.0
C498 C 0.47287 0.31956 0.27486 0.0
C499 C 0.49349 0.30484 0.228 0.0
C500 C 0.48905 0.2841 0.24063 0.0
C501 C 0.47658 0.28119 0.27103 0.0
C502 C 0.46861 0.29879 0.28834 0.0
C503 C 0.49741 0.26551 0.2215 0.0
C504 C 0.49055 0.25109 0.1881 0.0
C505 C 0.51233 0.26276 0.23354 0.0
C506 C 0.51997 0.27684 0.27052 0.0
C507 C 0.5145 0.27965 0.3204 0.0
C508 C 0.52172 0.29297 0.35504 0.0
C509 C 0.5345 0.30347 0.34035 0.0
C510 C 0.5401 0.30063 0.29102 0.0
C511 C 0.5329 0.28733 0.25622 0.0
H512 H 0.54009 0.31378 0.36722 0.0
H513 H 0.47068 0.18348 0.03072 0.0
H514 H 0.47316 0.84637 0.17495 0.0
H515 H 0.49015 0.81985 0.20913 0.0
H516 H 0.46478 0.76975 0.13878 0.0
H517 H 0.44736 0.79614 0.10753 0.0
H518 H 0.47033 0.75786 0.2276 0.0
H519 H 0.50046 0.78765 0.09537 0.0
H520 H 0.51311 0.81608 0.04767 0.0
H521 H 0.53753 0.83259 0.1824 0.0
H522 H 0.52489 0.8044 0.23109 0.0
H523 H 0.54197 0.69295 0.21471 0.0
H524 H 0.52761 0.72367 0.18984 0.0
H525 H 0.50607 0.72303 0.33685 0.0
H526 H 0.51979 0.69099 0.36071 0.0
H527 H 0.52426 0.76179 0.21587 0.0
H528 H 0.47137 0.7411 0.32495 0.0
H529 H 0.45854 0.70967 0.3596 0.0
H530 H 0.47934 0.66981 0.2476 0.0
H531 H 0.49214 0.70103 0.21196 0.0
C532 C 0.47141 0.82971 0.166 0.0
C533 C 0.45901 0.82328 0.13839 0.0
C534 C 0.48113 0.81452 0.18557 0.0
C535 C 0.47886 0.79266 0.17649 0.0
C536 C 0.46676 0.78642 0.14689 0.0
C537 C 0.45687 0.80152 0.12856 0.0
C538 C 0.48858 0.77614 0.19948 0.0
C539 C 0.48213 0.75879 0.22491 0.0
C540 C 0.50401 0.77713 0.19616 0.0
C541 C 0.51162 0.79407 0.16699 0.0
C542 C 0.50845 0.79745 0.11491 0.0
C543 C 0.51563 0.8135 0.08769 0.0
C544 C 0.52608 0.82618 0.11203 0.0
C545 C 0.52941 0.82278 0.16362 0.0
C546 C 0.52226 0.80676 0.19104 0.0
C547 C 0.53405 0.6991 0.2417 0.0
C548 C 0.53173 0.68902 0.28917 0.0
C549 C 0.52597 0.71697 0.22763 0.0
C550 C 0.5155 0.72556 0.26092 0.0
C551 C 0.51382 0.71643 0.30985 0.0
C552 C 0.52178 0.69822 0.32372 0.0
C553 C 0.50598 0.74329 0.2427 0.0
C554 C 0.51246 0.76097 0.21869 0.0
C555 C 0.49056 0.74219 0.24539 0.0
C556 C 0.48284 0.72334 0.26629 0.0
C557 C 0.47317 0.72562 0.30771 0.0
C558 C 0.46591 0.70786 0.3275 0.0
C559 C 0.46817 0.68775 0.30595 0.0
C560 C 0.47764 0.68538 0.2644 0.0
C561 C 0.48491 0.7031 0.24442 0.0
H562 H 0.46254 0.67401 0.32136 0.0
H563 H 0.53163 0.8386 0.09089 0.0
H564 H 0.71862 0.42402 0.37189 0.0
H565 H 0.73286 0.45518 0.39856 0.0
H566 H 0.69752 0.47512 0.4967 0.0
H567 H 0.68346 0.44391 0.47137 0.0
H568 H 0.73008 0.49651 0.39345 0.0
H569 H 0.71055 0.4974 0.60531 0.0
H570 H 0.70196 0.47215 0.67112 0.0
H571 H 0.72445 0.42113 0.59528 0.0
H572 H 0.73336 0.44611 0.52947 0.0
H573 H 0.7535 0.59297 0.50148 0.0
H574 H 0.73751 0.563 0.48019 0.0
H575 H 0.76477 0.5211 0.5696 0.0
H576 H 0.78062 0.55111 0.59165 0.0
H577 H 0.73741 0.50949 0.57927 0.0
H578 H 0.76901 0.52631 0.43995 0.0
H579 H 0.78053 0.54909 0.37454 0.0
H580 H 0.73878 0.5597 0.30428 0.0
H581 H 0.72696 0.53736 0.37 0.0
C582 C 0.71386 0.43515 0.3988 0.0
C583 C 0.69999 0.43137 0.4199 0.0
C584 C 0.722 0.45296 0.41403 0.0
C585 C 0.7164 0.46727 0.45053 0.0
C586 C 0.70225 0.46403 0.4696 0.0
C587 C 0.69419 0.4462 0.45479 0.0
C588 C 0.72543 0.4853 0.46964 0.0
C589 C 0.73165 0.49937 0.43407 0.0
C590 C 0.72778 0.48879 0.52268 0.0
C591 C 0.72252 0.47362 0.56221 0.0
C592 C 0.71371 0.48081 0.60279 0.0
C593 C 0.70879 0.46654 0.64009 0.0
C594 C 0.71267 0.44506 0.63739 0.0
C595 C 0.72145 0.43777 0.59731 0.0
C596 C 0.72642 0.45198 0.55996 0.0
C597 C 0.75589 0.57743 0.51739 0.0
C598 C 0.76834 0.57435 0.54801 0.0
C599 C 0.74681 0.5603 0.50498 0.0
C600 C 0.75013 0.53968 0.52225 0.0
C601 C 0.76201 0.53683 0.5556 0.0
C602 C 0.77103 0.55402 0.56841 0.0
C603 C 0.7418 0.52096 0.50311 0.0
C604 C 0.73575 0.50671 0.53866 0.0
C605 C 0.73999 0.51695 0.45001 0.0
C606 C 0.74707 0.53035 0.4103 0.0
C607 C 0.76226 0.53366 0.41084 0.0
C608 C 0.76885 0.54648 0.37369 0.0
C609 C 0.76038 0.55588 0.33536 0.0
C610 C 0.74532 0.55245 0.33407 0.0
C611 C 0.73867 0.53972 0.37129 0.0
H612 H 0.7655 0.56579 0.3066 0.0
H613 H 0.70887 0.43406 0.66637 0.0
H614 H 0.28085 0.58091 0.36856 0.0
H615 H 0.265 0.55066 0.38941 0.0
H616 H 0.29735 0.5272 0.49543 0.0
H617 H 0.31331 0.55687 0.47387 0.0
H618 H 0.28558 0.49504 0.44659 0.0
H619 H 0.2674 0.55655 0.53584 0.0
H620 H 0.25824 0.59334 0.54348 0.0
H621 H 0.22202 0.57797 0.44575 0.0
H622 H 0.23108 0.54114 0.43698 0.0
H623 H 0.23891 0.42765 0.59546 0.0
H624 H 0.2554 0.45683 0.57074 0.0
H625 H 0.22457 0.477 0.45566 0.0
H626 H 0.20812 0.4482 0.48041 0.0
H627 H 0.23556 0.51061 0.50906 0.0
H628 H 0.25389 0.44838 0.42236 0.0
H629 H 0.26336 0.41172 0.41631 0.0
H630 H 0.29966 0.42861 0.5122 0.0
H631 H 0.29027 0.4653 0.51951 0.0
C632 C 0.28465 0.56914 0.39578 0.0
C633 C 0.29827 0.57143 0.41992 0.0
C634 C 0.27555 0.55193 0.40793 0.0
C635 C 0.27986 0.53686 0.44481 0.0
C636 C 0.29373 0.53864 0.46708 0.0
C637 C 0.30284 0.5557 0.45477 0.0
C638 C 0.26979 0.51967 0.46186 0.0
C639 C 0.2747 0.49849 0.46076 0.0
C640 C 0.25552 0.52408 0.47982 0.0
C641 C 0.25 0.54616 0.48534 0.0
C642 C 0.25753 0.56106 0.51571 0.0
C643 C 0.25235 0.58191 0.52028 0.0
C644 C 0.23958 0.588 0.495 0.0
C645 C 0.23193 0.57324 0.46524 0.0
C646 C 0.23707 0.55237 0.46048 0.0
C647 C 0.23565 0.43846 0.56524 0.0
C648 C 0.22232 0.43554 0.53948 0.0
C649 C 0.24508 0.455 0.55092 0.0
C650 C 0.24128 0.46893 0.51091 0.0
C651 C 0.22776 0.46641 0.48643 0.0
C652 C 0.21842 0.44987 0.50042 0.0
C653 C 0.25136 0.48602 0.49378 0.0
C654 C 0.24645 0.50719 0.4949 0.0
C655 C 0.26565 0.4816 0.47622 0.0
C656 C 0.27128 0.45953 0.47198 0.0
C657 C 0.26381 0.44423 0.44258 0.0
C658 C 0.26918 0.42345 0.43885 0.0
C659 C 0.28208 0.41782 0.46399 0.0
C660 C 0.28965 0.43297 0.49284 0.0
C661 C 0.28432 0.45377 0.49678 0.0
H662 H 0.28622 0.40173 0.46102 0.0
H663 H 0.23559 0.60416 0.49857 0.0
H664 H 0.45711 0.80921 0.70124 0.0
H665 H 0.4718 0.77875 0.67659 0.0
H666 H 0.50067 0.79022 0.80425 0.0
H667 H 0.48628 0.82176 0.82794 0.0
H668 H 0.51606 0.7803 0.72122 0.0
H669 H 0.47563 0.74957 0.80757 0.0
H670 H 0.44974 0.74352 0.82877 0.0
H671 H 0.44177 0.72101 0.67596 0.0
H672 H 0.46758 0.72722 0.65359 0.0
H673 H 0.52642 0.65746 0.68499 0.0
H674 H 0.51264 0.68749 0.7187 0.0
H675 H 0.52945 0.72752 0.59801 0.0
H676 H 0.54378 0.69762 0.56513 0.0
H677 H 0.49198 0.71088 0.68785 0.0
H678 H 0.53297 0.7785 0.63872 0.0
H679 H 0.55951 0.78387 0.62913 0.0
H680 H 0.56772 0.73017 0.72662 0.0
H681 H 0.54123 0.72464 0.73736 0.0
C682 C 0.46671 0.80555 0.72383 0.0
C683 C 0.47062 0.81818 0.76627 0.0
C684 C 0.475 0.78787 0.71001 0.0
C685 C 0.48725 0.78198 0.73887 0.0
C686 C 0.49123 0.79444 0.78144 0.0
C687 C 0.48295 0.81235 0.79518 0.0
C688 C 0.49583 0.76288 0.72378 0.0
C689 C 0.51082 0.76509 0.71411 0.0
C690 C 0.48907 0.74288 0.7155 0.0
C691 C 0.47353 0.73901 0.72881 0.0
C692 C 0.46834 0.74347 0.77838 0.0
C693 C 0.45368 0.73999 0.79062 0.0
C694 C 0.44411 0.73192 0.75371 0.0
C695 C 0.44919 0.72727 0.7045 0.0
C696 C 0.46384 0.73074 0.69204 0.0
C697 C 0.52711 0.67258 0.66522 0.0
C698 C 0.53627 0.67514 0.62243 0.0
C699 C 0.51921 0.6898 0.68466 0.0
C700 C 0.52018 0.70994 0.6616 0.0
C701 C 0.52879 0.7123 0.61735 0.0
C702 C 0.53686 0.69512 0.59823 0.0
C703 C 0.5122 0.72835 0.68412 0.0
C704 C 0.49728 0.72603 0.69512 0.0
C705 C 0.51915 0.74802 0.69506 0.0
C706 C 0.5351 0.75109 0.68852 0.0
C707 C 0.54043 0.76788 0.65822 0.0
C708 C 0.55547 0.77095 0.6526 0.0
C709 C 0.56528 0.7574 0.67735 0.0
C710 C 0.56009 0.74065 0.70749 0.0
C711 C 0.54507 0.73752 0.7133 0.0
H712 H 0.57691 0.75992 0.67328 0.0
H713 H 0.43276 0.72925 0.76326 0.0
H714 H 0.47261 0.33637 0.63565 0.0
H715 H 0.4886 0.30828 0.66867 0.0
H716 H 0.45263 0.26393 0.66521 0.0
H717 H 0.43663 0.29185 0.63279 0.0
H718 H 0.46556 0.26335 0.75631 0.0
H719 H 0.48127 0.26019 0.58093 0.0
H720 H 0.4908 0.27424 0.49933 0.0
H721 H 0.53023 0.29393 0.57465 0.0
H722 H 0.52086 0.28025 0.6569 0.0
H723 H 0.50465 0.16438 0.77814 0.0
H724 H 0.48979 0.19468 0.74952 0.0
H725 H 0.52433 0.23783 0.79237 0.0
H726 H 0.53904 0.20758 0.82246 0.0
H727 H 0.51321 0.2404 0.68498 0.0
H728 H 0.49755 0.24377 0.85964 0.0
H729 H 0.48818 0.22971 0.94132 0.0
H730 H 0.4489 0.20911 0.86633 0.0
H731 H 0.45808 0.22306 0.78401 0.0
C732 C 0.4682 0.32052 0.64085 0.0
C733 C 0.45334 0.31637 0.63187 0.0
C734 C 0.47735 0.30447 0.65983 0.0
C735 C 0.4718 0.28399 0.66965 0.0
C736 C 0.45713 0.27963 0.65835 0.0
C737 C 0.44801 0.29561 0.63957 0.0
C738 C 0.48095 0.26743 0.69455 0.0
C739 C 0.47589 0.25818 0.74026 0.0
C740 C 0.49465 0.26109 0.67458 0.0
C741 C 0.50029 0.26941 0.6252 0.0
C742 C 0.49192 0.26769 0.58021 0.0
C743 C 0.4973 0.27555 0.53381 0.0
C744 C 0.51109 0.28503 0.53184 0.0
C745 C 0.51954 0.28662 0.57625 0.0
C746 C 0.5142 0.2788 0.62276 0.0
C747 C 0.50885 0.1804 0.78272 0.0
C748 C 0.52285 0.18378 0.80303 0.0
C749 C 0.50043 0.19764 0.7662 0.0
C750 C 0.50602 0.21843 0.76873 0.0
C751 C 0.51986 0.22188 0.79018 0.0
C752 C 0.52816 0.20468 0.80774 0.0
C753 C 0.49769 0.23631 0.74609 0.0
C754 C 0.5029 0.24573 0.70092 0.0
C755 C 0.48413 0.2428 0.76638 0.0
C756 C 0.47857 0.23424 0.81558 0.0
C757 C 0.48697 0.23605 0.86046 0.0
C758 C 0.48168 0.22815 0.90691 0.0
C759 C 0.46799 0.21839 0.909 0.0
C760 C 0.45952 0.21663 0.86464 0.0
C761 C 0.46475 0.22458 0.81809 0.0
H762 H 0.46391 0.21226 0.94502 0.0
H763 H 0.51525 0.29109 0.49588 0.0
H764 H 0.72385 0.9142 0.88288 0.0
H765 H 0.74035 0.94173 0.91592 0.0
H766 H 0.70671 0.98899 0.89551 0.0
H767 H 0.69027 0.96173 0.86218 0.0
H768 H 0.73342 0.00512 0.87328 0.0
H769 H 0.71085 0.96484 0.00941 0.0
H770 H 0.70459 0.93186 0.05577 0.0
H771 H 0.7501 0.91891 0.07961 0.0
H772 H 0.75663 0.9517 0.03275 0.0
H773 H 0.75469 0.08627 0.03696 0.0
H774 H 0.73964 0.05623 0.00856 0.0
H775 H 0.77561 0.01341 0.0362 0.0
H776 H 0.79045 0.04339 0.06659 0.0
H777 H 0.74934 0.99382 0.05303 0.0
H778 H 0.77117 0.03858 0.92495 0.0
H779 H 0.77571 0.07372 0.88624 0.0
H780 H 0.73048 0.07883 0.84538 0.0
H781 H 0.7254 0.04448 0.88742 0.0
C782 C 0.72011 0.93056 0.8841 0.0
C783 C 0.70571 0.93577 0.87041 0.0
C784 C 0.72952 0.94624 0.90338 0.0
C785 C 0.72465 0.96734 0.90913 0.0
C786 C 0.71067 0.97281 0.8917 0.0
C787 C 0.70128 0.95718 0.87271 0.0
C788 C 0.73353 0.9834 0.93701 0.0
C789 C 0.73685 1.00271 0.91262 0.0
C790 C 0.73814 0.98013 0.98823 0.0
C791 C 0.73423 0.96059 0.01708 0.0
C792 C 0.71952 0.95488 0.02424 0.0
C793 C 0.71592 0.93623 0.05063 0.0
C794 C 0.72694 0.92326 0.07046 0.0
C795 C 0.74158 0.92896 0.06413 0.0
C796 C 0.74524 0.94757 0.03769 0.0
C797 C 0.75913 0.07031 0.03884 0.0
C798 C 0.77366 0.06703 0.05387 0.0
C799 C 0.7506 0.05319 0.02232 0.0
C800 C 0.75665 0.03267 0.01894 0.0
C801 C 0.77075 0.02911 0.03821 0.0
C802 C 0.77921 0.0462 0.05566 0.0
C803 C 0.74904 0.01569 0.98955 0.0
C804 C 0.74603 0.99619 0.01355 0.0
C805 C 0.74462 0.01887 0.93798 0.0
C806 C 0.74786 0.03896 0.90991 0.0
C807 C 0.76214 0.04723 0.9081 0.0
C808 C 0.76482 0.06707 0.88573 0.0
C809 C 0.75343 0.0784 0.86294 0.0
C810 C 0.73931 0.07002 0.86298 0.0
C811 C 0.73649 0.05044 0.88651 0.0
H812 H 0.75556 0.09369 0.84534 0.0
H813 H 0.72413 0.90881 0.09082 0.0
H814 H 0.21962 0.95851 0.10228 0.0
H815 H 0.23516 0.9884 0.07666 0.0
H816 H 0.26241 0.94544 0.99018 0.0
H817 H 0.24681 0.91556 0.01526 0.0
H818 H 0.26333 1.00097 0.08034 0.0
H819 H 0.26915 0.96729 0.87387 0.0
H820 H 0.25584 0.9428 0.81645 0.0
H821 H 0.21581 0.95653 0.89531 0.0
H822 H 0.2288 0.98142 0.95244 0.0
H823 H 0.3186 0.05388 0.94786 0.0
H824 H 0.30267 0.0255 0.978 0.0
H825 H 0.26629 0.05395 0.89872 0.0
H826 H 0.28224 0.08282 0.86851 0.0
H827 H 0.26708 0.00897 0.8915 0.0
H828 H 0.26811 0.06302 0.01804 0.0
H829 H 0.2793 0.08946 0.07582 0.0
H830 H 0.30123 0.03945 0.15724 0.0
H831 H 0.29042 0.01271 0.09921 0.0
C832 C 0.22921 0.95535 0.07921 0.0
C833 C 0.23196 0.93475 0.0604 0.0
C834 C 0.23803 0.97246 0.06437 0.0
C835 C 0.24973 0.96922 0.03052 0.0
C836 C 0.25325 0.94837 0.01546 0.0
C837 C 0.24439 0.9313 0.02999 0.0
C838 C 0.25739 0.98767 1.00717 0.0
C839 C 0.26418 1.00269 0.03911 0.0
C840 C 0.25802 0.99039 0.95329 0.0
C841 C 0.25 0.97607 0.91775 0.0
C842 C 0.25749 0.96521 0.87869 0.0
C843 C 0.25 0.95124 0.84622 0.0
C844 C 0.235 0.94806 0.85234 0.0
C845 C 0.22743 0.95896 0.89069 0.0
C846 C 0.23486 0.97301 0.9231 0.0
C847 C 0.30725 0.05407 0.93624 0.0
C848 C 0.30164 0.07078 0.90627 0.0
C849 C 0.29816 0.03782 0.95366 0.0
C850 C 0.28327 0.03784 0.94136 0.0
C851 C 0.27776 0.05375 0.90886 0.0
C852 C 0.28688 0.07019 0.89158 0.0
C853 C 0.2735 0.02171 0.96467 0.0
C854 C 0.26624 0.00722 0.93273 0.0
C855 C 0.27208 0.01985 0.01853 0.0
C856 C 0.27855 0.03585 0.05391 0.0
C857 C 0.27542 0.05765 0.04796 0.0
C858 C 0.28169 0.0727 0.08081 0.0
C859 C 0.29099 0.06614 0.12014 0.0
C860 C 0.29403 0.04451 0.12672 0.0
C861 C 0.28784 0.0294 0.09386 0.0
H862 H 0.29581 0.07781 0.14557 0.0
H863 H 0.22924 0.93718 0.8273 0.0
H864 H 0.9555 0.32013 0.71281 0.0
H865 H 0.96877 0.28876 0.68432 0.0
H866 H 0.99504 0.29066 0.82141 0.0
H867 H 0.98198 0.32282 0.84966 0.0
H868 H 0.01169 0.28301 0.7372 0.0
H869 H 0.96832 0.25404 0.80984 0.0
H870 H 0.94184 0.25044 0.82446 0.0
H871 H 0.93547 0.23462 0.66598 0.0
H872 H 0.96189 0.23842 0.65023 0.0
H873 H 0.01828 0.16164 0.6846 0.0
H874 H 0.00462 0.19167 0.71908 0.0
H875 H 0.02325 0.23278 0.604 0.0
H876 H 0.03732 0.20284 0.56996 0.0
H877 H 0.98471 0.21779 0.68622 0.0
H878 H 0.02938 0.28215 0.65628 0.0
H879 H 0.05618 0.28428 0.64803 0.0
H880 H 0.06073 0.22663 0.73486 0.0
H881 H 0.034 0.22439 0.74453 0.0
C882 C 0.96418 0.31404 0.73683 0.0
C883 C 0.96778 0.32411 0.78333 0.0
C884 C 0.97168 0.29594 0.72066 0.0
C885 C 0.98282 0.28723 0.75088 0.0
C886 C 0.98646 0.29713 0.7975 0.0
C887 C 0.97893 0.31537 0.81379 0.0
C888 C 0.99062 0.26786 0.73307 0.0
C889 C 0.00581 0.26872 0.72623 0.0
C890 C 0.98298 0.24908 0.71946 0.0
C891 C 0.96708 0.24667 0.72879 0.0
C892 C 0.96126 0.24994 0.77802 0.0
C893 C 0.94626 0.24784 0.78653 0.0
C894 C 0.93698 0.24235 0.74616 0.0
C895 C 0.94267 0.23889 0.69721 0.0
C896 C 0.95766 0.24099 0.68849 0.0
C897 C 0.01937 0.17699 0.6661 0.0
C898 C 0.02902 0.17986 0.62478 0.0
C899 C 0.01152 0.19418 0.68595 0.0
C900 C 0.01313 0.21459 0.66487 0.0
C901 C 0.02209 0.21727 0.62166 0.0
C902 C 0.03003 0.20009 0.60195 0.0
C903 C 0.00574 0.23307 0.68922 0.0
C904 C 0.99062 0.23205 0.69727 0.0
C905 C 0.01351 0.25148 0.70498 0.0
C906 C 0.02965 0.253 0.70064 0.0
C907 C 0.0361 0.27 0.67388 0.0
C908 C 0.05128 0.27122 0.66894 0.0
C909 C 0.06015 0.25556 0.69074 0.0
C910 C 0.05385 0.23872 0.71785 0.0
C911 C 0.03868 0.23747 0.72308 0.0
H912 H 0.07189 0.25648 0.68669 0.0
H913 H 0.92537 0.24073 0.75282 0.0
H914 H 0.03766 0.70157 0.7427 0.0
H915 H 0.02112 0.73078 0.72131 0.0
H916 H 0.99175 0.7107 0.84107 0.0
H917 H 0.00849 0.68133 0.86296 0.0
H918 H 0.97821 0.718 0.74316 0.0
H919 H 0.01011 0.75366 0.8611 0.0
H920 H 0.03389 0.76469 0.89647 0.0
H921 H 0.04426 0.79652 0.75557 0.0
H922 H 0.02061 0.78541 0.71906 0.0
H923 H 0.93275 0.80937 0.73439 0.0
H924 H 0.94847 0.77963 0.75762 0.0
H925 H 0.98199 0.8037 0.65697 0.0
H926 H 0.96633 0.83397 0.63461 0.0
H927 H 0.9932 0.79392 0.74718 0.0
H928 H 0.96144 0.75938 0.62888 0.0
H929 H 0.93786 0.74849 0.59174 0.0
H930 H 0.92756 0.71381 0.72867 0.0
H931 H 0.9509 0.725 0.76733 0.0
C932 C 0.02774 0.70353 0.76478 0.0
C933 C 0.0243 0.68928 0.80444 0.0
C934 C 0.01832 0.7202 0.75258 0.0
C935 C 0.00523 0.72289 0.77963 0.0
C936 C 0.00182 0.70884 0.81977 0.0
C937 C 0.01138 0.69223 0.83247 0.0
C938 C 0.99507 0.74015 0.76464 0.0
C939 C 0.98133 0.73465 0.74484 0.0
C940 C -0.00058 0.76175 0.76526 0.0
C941 C 0.01363 0.76854 0.78719 0.0
C942 C 0.0175 0.76286 0.83749 0.0
C943 C 0.03096 0.76916 0.85778 0.0
C944 C 0.0406 0.78126 0.82825 0.0
C945 C 0.03679 0.78713 0.77839 0.0
C946 C 0.02335 0.78086 0.7579 0.0
C947 C 0.9434 0.80824 0.71682 0.0
C948 C 0.94832 0.82407 0.68292 0.0
C949 C 0.95237 0.79115 0.72996 0.0
C950 C 0.96639 0.78932 0.70886 0.0
C951 C 0.97121 0.8048 0.67381 0.0
C952 C 0.96223 0.82202 0.66083 0.0
C953 C 0.97625 0.77187 0.72546 0.0
C954 C 0.98998 0.7773 0.74553 0.0
C955 C 0.97191 0.75019 0.72466 0.0
C956 C 0.95789 0.74325 0.70128 0.0
C957 C 0.9541 0.74961 0.65134 0.0
C958 C 0.94076 0.74338 0.62999 0.0
C959 C 0.9312 0.73052 0.65789 0.0
C960 C 0.93498 0.72378 0.70711 0.0
C961 C 0.94825 0.73011 0.72882 0.0
H962 H 0.92087 0.72575 0.64134 0.0
H963 H 0.051 0.78612 0.84403 0.0
H964 H 0.2951 0.55793 0.97821 0.0
H965 H 0.2811 0.52653 0.95284 0.0
H966 H 0.25017 0.53901 0.07389 0.0
H967 H 0.2645 0.57022 0.10037 0.0
H968 H 0.25512 0.49744 0.06591 0.0
H969 H 0.24388 0.55388 0.9459 0.0
H970 H 0.25075 0.58175 0.88385 0.0
H971 H 0.27087 0.53468 0.78768 0.0
H972 H 0.26427 0.50656 0.84951 0.0
H973 H 0.19344 0.44301 0.98315 0.0
H974 H 0.21089 0.47087 1.0037 0.0
H975 H 0.23884 0.44963 0.88105 0.0
H976 H 0.22108 0.42156 0.85944 0.0
H977 H 0.23739 0.49345 0.88641 0.0
H978 H 0.24691 0.43653 1.00264 0.0
H979 H 0.24048 0.40865 0.06516 0.0
H980 H 0.22419 0.45621 0.16857 0.0
H981 H 0.23029 0.48437 0.10632 0.0
C982 C 0.28534 0.5539 0.99952 0.0
C983 C 0.28075 0.56663 0.04084 0.0
C984 C 0.27732 0.53599 0.98492 0.0
C985 C 0.26437 0.53066 0.01062 0.0
C986 C 0.26008 0.54287 0.05326 0.0
C987 C 0.26824 0.56068 0.06838 0.0
C988 C 0.25508 0.51276 0.99217 0.0
C989 C 0.25113 0.49669 0.02681 0.0
C990 C 0.25023 0.51138 0.94065 0.0
C991 C 0.25368 0.52815 0.90249 0.0
C992 C 0.24979 0.54949 0.91155 0.0
C993 C 0.25364 0.56533 0.87645 0.0
C994 C 0.26126 0.55999 0.83189 0.0
C995 C 0.26497 0.53879 0.82221 0.0
C996 C 0.26116 0.52289 0.85723 0.0
C997 C 0.20318 0.44437 0.95989 0.0
C998 C 0.20584 0.43007 0.91953 0.0
C999 C 0.21322 0.46024 0.97206 0.0
C1000 C 0.22628 0.46216 0.94451 0.0
C1001 C 0.22884 0.44837 0.90299 0.0
C1002 C 0.21872 0.43234 0.89073 0.0
C1003 C 0.23723 0.47836 0.96045 0.0
C1004 C 0.24148 0.4941 0.92538 0.0
C1005 C 0.2424 0.47942 0.01157 0.0
C1006 C 0.23898 0.46256 0.04962 0.0
C1007 C 0.24188 0.44104 0.0386 0.0
C1008 C 0.2383 0.42518 0.074 0.0
C1009 C 0.23191 0.43065 0.12077 0.0
C1010 C 0.22913 0.452 0.13231 0.0
C1011 C 0.23267 0.46792 0.09701 0.0
H1012 H 0.22912 0.41834 0.14809 0.0
H1013 H 0.26429 0.57229 0.80488 0.0
H1014 H 0.80873 0.54388 0.87686 0.0
H1015 H 0.79243 0.51535 0.90509 0.0
H1016 H 0.75794 0.56105 0.92837 0.0
H1017 H 0.77418 0.58974 0.89938 0.0
H1018 H 0.76411 0.53364 0.01488 0.0
H1019 H 0.75348 0.52909 0.83555 0.0
H1020 H 0.75931 0.52647 0.74357 0.0
H1021 H 0.78092 0.46677 0.76934 0.0
H1022 H 0.7754 0.46918 0.86166 0.0
H1023 H 0.70929 0.45521 0.0696 0.0
H1024 H 0.72393 0.48565 0.04127 0.0
H1025 H 0.7565 0.44266 0.9815 0.0
H1026 H 0.74168 0.41227 0.00856 0.0
H1027 H 0.75012 0.4704 0.91209 0.0
H1028 H 0.76193 0.47495 0.09074 0.0
H1029 H 0.75721 0.47752 0.18353 0.0
H1030 H 0.73469 0.53671 0.16095 0.0
H1031 H 0.73908 0.53435 0.06788 0.0
C1032 C 0.79758 0.5478 0.88701 0.0
C1033 C 0.7927 0.56901 0.8858 0.0
C1034 C 0.78829 0.53149 0.90319 0.0
C1035 C 0.774 0.53612 0.91894 0.0
C1036 C 0.76895 0.55719 0.9164 0.0
C1037 C 0.77818 0.57351 0.8994 0.0
C1038 C 0.76468 0.51899 0.94036 0.0
C1039 C 0.7608 0.51995 0.99231 0.0
C1040 C 0.76078 0.50092 0.91115 0.0
C1041 C 0.76414 0.49942 0.85564 0.0
C1042 C 0.75959 0.5155 0.8217 0.0
C1043 C 0.76282 0.51403 0.76948 0.0
C1044 C 0.77051 0.49649 0.75064 0.0
C1045 C 0.77497 0.48036 0.78399 0.0
C1046 C 0.77179 0.48176 0.83627 0.0
C1047 C 0.71976 0.45232 0.05159 0.0
C1048 C 0.72438 0.43141 0.04133 0.0
C1049 C 0.72811 0.46972 0.0353 0.0
C1050 C 0.74137 0.46652 0.00923 0.0
C1051 C 0.74629 0.44559 1.00119 0.0
C1052 C 0.73787 0.42823 0.0169 0.0
C1053 C 0.74963 0.48478 0.98715 0.0
C1054 C 0.75333 0.48407 0.93489 0.0
C1055 C 0.75347 0.50299 0.0163 0.0
C1056 C 0.75069 0.50434 0.07223 0.0
C1057 C 0.75584 0.48841 0.10548 0.0
C1058 C 0.75325 0.48985 0.15815 0.0
C1059 C 0.74562 0.50723 0.17811 0.0
C1060 C 0.74058 0.52323 0.14543 0.0
C1061 C 0.74312 0.52186 0.09272 0.0
H1062 H 0.74365 0.50834 0.21891 0.0
H1063 H 0.77299 0.49538 0.71019 0.0
H1064 H 0.01891 0.66296 0.17118 0.0
H1065 H 0.00434 0.69224 0.2056 0.0
H1066 H 0.02957 0.7371 0.1173 0.0
H1067 H 0.04427 0.70794 0.08292 0.0
H1068 H 0.0279 0.74862 0.21735 0.0
H1069 H 0.99443 0.72641 0.08607 0.0
H1070 H 0.97917 0.70088 0.03821 0.0
H1071 H 0.95459 0.68747 0.17444 0.0
H1072 H 0.96984 0.71273 0.22331 0.0
H1073 H 0.98524 0.84156 0.25214 0.0
H1074 H 0.99896 0.81089 0.22084 0.0
H1075 H 0.97113 0.76888 0.30774 0.0
H1076 H 0.95703 0.79957 0.33796 0.0
H1077 H 0.97396 0.75495 0.21171 0.0
H1078 H 0.00681 0.77763 0.34279 0.0
H1079 H 0.02207 0.80289 0.39147 0.0
H1080 H 0.04789 0.81493 0.25732 0.0
H1081 H 0.03265 0.78996 0.20761 0.0
C1082 C 0.0212 0.679 0.15828 0.0
C1083 C 0.03281 0.68308 0.12437 0.0
C1084 C 0.01284 0.69574 0.17803 0.0
C1085 C 0.01588 0.71688 0.16411 0.0
C1086 C 0.02708 0.72092 0.12875 0.0
C1087 C 0.03542 0.70419 0.10888 0.0
C1088 C 0.00797 0.73486 0.18866 0.0
C1089 C 0.01612 0.75017 0.21551 0.0
C1090 C 0.99257 0.73648 0.18778 0.0
C1091 C 0.98338 0.7213 0.15847 0.0
C1092 C 0.98585 0.71788 0.10593 0.0
C1093 C 0.97719 0.70349 0.07859 0.0
C1094 C 0.96595 0.69251 0.1033 0.0
C1095 C 0.96332 0.69596 0.15537 0.0
C1096 C 0.97196 0.71033 0.1829 0.0
C1097 C 0.98212 0.82581 0.26499 0.0
C1098 C 0.97003 0.82301 0.29749 0.0
C1099 C 0.99004 0.80828 0.24731 0.0
C1100 C 0.98614 0.78754 0.2621 0.0
C1101 C 0.97435 0.78472 0.29582 0.0
C1102 C 0.9664 0.80229 0.31353 0.0
C1103 C 0.9939 0.76885 0.24006 0.0
C1104 C 0.98574 0.75337 0.21374 0.0
C1105 C 0.0093 0.76702 0.24158 0.0
C1106 C 0.0185 0.78206 0.27136 0.0
C1107 C 0.01567 0.78579 0.32355 0.0
C1108 C 0.02433 0.80004 0.35135 0.0
C1109 C 0.03592 0.81055 0.32747 0.0
C1110 C 0.0389 0.8068 0.27575 0.0
C1111 C 0.03026 0.79258 0.24776 0.0
H1112 H 0.04262 0.82157 0.34906 0.0
H1113 H 0.95925 0.68138 0.08207 0.0
H1114 H 0.95844 0.32243 0.11679 0.0
H1115 H 0.97365 0.2916 0.14111 0.0
H1116 H 0.9671 0.30646 0.30068 0.0
H1117 H 0.95168 0.33662 0.27684 0.0
H1118 H 0.99833 0.29779 0.26164 0.0
H1119 H 0.94891 0.27062 0.27535 0.0
H1120 H 0.92415 0.2638 0.24204 0.0
H1121 H 0.94213 0.22665 0.11917 0.0
H1122 H 0.96704 0.23357 0.15137 0.0
H1123 H 0.00918 0.18221 0.36195 0.0
H1124 H 0.99359 0.21325 0.34339 0.0
H1125 H 0.02278 0.23186 0.22183 0.0
H1126 H 0.03818 0.2009 0.23971 0.0
H1127 H 0.9795 0.2239 0.24645 0.0
H1128 H 0.02519 0.28698 0.22965 0.0
H1129 H 0.04954 0.29443 0.26587 0.0
H1130 H 0.03825 0.26009 0.40241 0.0
H1131 H 0.01377 0.25271 0.36735 0.0
C1132 C 0.96033 0.31908 0.15694 0.0
C1133 C 0.95384 0.33175 0.19498 0.0
C1134 C 0.96895 0.30152 0.17077 0.0
C1135 C 0.97143 0.29682 0.22269 0.0
C1136 C 0.96529 0.30985 0.26049 0.0
C1137 C 0.95644 0.32697 0.24679 0.0
C1138 C 0.98026 0.27818 0.23813 0.0
C1139 C 0.99428 0.28162 0.25807 0.0
C1140 C 0.97478 0.25719 0.23454 0.0
C1141 C 0.95983 0.25284 0.21538 0.0
C1142 C 0.94759 0.26119 0.24093 0.0
C1143 C 0.93353 0.25726 0.22233 0.0
C1144 C 0.93157 0.24486 0.17841 0.0
C1145 C 0.94367 0.23629 0.15313 0.0
C1146 C 0.95776 0.2402 0.17155 0.0
C1147 C 0.01227 0.19306 0.3316 0.0
C1148 C 0.02483 0.18921 0.30219 0.0
C1149 C 0.00333 0.21063 0.32078 0.0
C1150 C 0.00704 0.2248 0.28119 0.0
C1151 C 0.01975 0.22115 0.25257 0.0
C1152 C 0.02851 0.20349 0.2628 0.0
C1153 C 0.99772 0.24346 0.2693 0.0
C1154 C 0.9836 0.24004 0.24992 0.0
C1155 C 0.00307 0.26453 0.27386 0.0
C1156 C 0.0177 0.26911 0.2956 0.0
C1157 C 0.02789 0.28109 0.26748 0.0
C1158 C 0.04171 0.28529 0.2878 0.0
C1159 C 0.04546 0.27768 0.33633 0.0
C1160 C 0.03536 0.2659 0.36473 0.0
C1161 C 0.02152 0.26167 0.34461 0.0
H1162 H 0.05617 0.28094 0.35198 0.0
H1163 H 0.92068 0.24184 0.16406 0.0
H1164 H 0.18911 0.9621 0.37287 0.0
H1165 H 0.20547 0.99184 0.39217 0.0
H1166 H 0.23937 0.94724 0.43355 0.0
H1167 H 0.22334 0.91765 0.41044 0.0
H1168 H 0.21554 0.00474 0.47352 0.0
H1169 H 0.27266 0.96801 0.43021 0.0
H1170 H 0.28406 0.94385 0.36731 0.0
H1171 H 0.25058 0.95876 0.25797 0.0
H1172 H 0.23908 0.9832 0.31995 0.0
H1173 H 0.26756 0.07133 0.59474 0.0
H1174 H 0.25276 0.04107 0.56721 0.0
H1175 H 0.26976 0.0474 0.41379 0.0
H1176 H 0.28573 0.07561 0.44206 0.0
H1177 H 0.26795 0.00944 0.42805 0.0
H1178 H 0.23363 0.06537 0.45696 0.0
H1179 H 0.22075 0.09359 0.50464 0.0
H1180 H 0.20625 0.0477 0.61537 0.0
H1181 H 0.21921 0.01923 0.56869 0.0
C1182 C 0.20022 0.95876 0.38466 0.0
C1183 C 0.20507 0.93767 0.38954 0.0
C1184 C 0.20953 0.97573 0.39622 0.0
C1185 C 0.22376 0.97196 0.41427 0.0
C1186 C 0.22864 0.95077 0.41844 0.0
C1187 C 0.21946 0.9338 0.40528 0.0
C1188 C 0.23313 0.9901 0.43139 0.0
C1189 C 0.22698 0.0058 0.46321 0.0
C1190 C 0.24803 0.99185 0.4176 0.0
C1191 C 0.25493 0.97727 0.37996 0.0
C1192 C 0.26776 0.96619 0.39269 0.0
C1193 C 0.27423 0.95243 0.35721 0.0
C1194 C 0.26802 0.94972 0.30874 0.0
C1195 C 0.25535 0.96081 0.29559 0.0
C1196 C 0.24884 0.97459 0.33091 0.0
C1197 C 0.26834 0.06611 0.55532 0.0
C1198 C 0.27775 0.07643 0.52064 0.0
C1199 C 0.25965 0.04894 0.53933 0.0
C1200 C 0.25981 0.0421 0.48794 0.0
C1201 C 0.26929 0.05226 0.45357 0.0
C1202 C 0.27827 0.06887 0.46978 0.0
C1203 C 0.25031 0.02432 0.4695 0.0
C1204 C 0.25647 0.00851 0.43796 0.0
C1205 C 0.23523 0.02313 0.48121 0.0
C1206 C 0.22753 0.04022 0.50965 0.0
C1207 C 0.22779 0.06133 0.49171 0.0
C1208 C 0.22046 0.07736 0.51852 0.0
C1209 C 0.21273 0.07245 0.56309 0.0
C1210 C 0.21228 0.05148 0.5809 0.0
C1211 C 0.21961 0.03539 0.55428 0.0
H1212 H 0.20705 0.08489 0.58377 0.0
H1213 H 0.27304 0.93906 0.28135 0.0
H1214 H 0.71589 0.95846 0.57683 0.0
H1215 H 0.73236 0.98737 0.55101 0.0
H1216 H 0.76472 0.94125 0.50571 0.0
H1217 H 0.74807 0.91226 0.52999 0.0
H1218 H 0.77409 0.98402 0.56334 0.0
H1219 H 0.74828 0.95334 0.41652 0.0
H1220 H 0.72558 0.94104 0.37519 0.0
H1221 H 0.7072 0.00362 0.39034 0.0
H1222 H 0.72969 0.01614 0.43297 0.0
H1223 H 0.81873 0.04702 0.40655 0.0
H1224 H 0.80402 0.0172 0.43752 0.0
H1225 H 0.76513 0.05552 0.42342 0.0
H1226 H 0.77986 0.08525 0.39128 0.0
H1227 H 0.75883 0.01654 0.39847 0.0
H1228 H 0.78287 0.0487 0.54086 0.0
H1229 H 0.80317 0.06253 0.59339 0.0
H1230 H 0.82293 1.00056 0.59513 0.0
H1231 H 0.80281 0.98639 0.54223 0.0
C1232 C 0.72671 0.95456 0.56299 0.0
C1233 C 0.73082 0.93323 0.55571 0.0
C1234 C 0.73605 0.97103 0.54804 0.0
C1235 C 0.74969 0.96637 0.52637 0.0
C1236 C 0.75425 0.9451 0.52262 0.0
C1237 C 0.74479 0.92861 0.53654 0.0
C1238 C 0.75839 0.98348 0.50221 0.0
C1239 C 0.77094 0.99097 0.52695 0.0
C1240 C 0.7539 0.99292 0.45566 0.0
C1241 C 0.7406 0.98561 0.42842 0.0
C1242 C 0.73935 0.96443 0.41144 0.0
C1243 C 0.72653 0.95742 0.38775 0.0
C1244 C 0.71494 0.97152 0.38025 0.0
C1245 C 0.71618 0.9927 0.39625 0.0
C1246 C 0.72896 0.99976 0.42019 0.0
C1247 C 0.80701 0.04893 0.40943 0.0
C1248 C 0.80044 0.06846 0.39712 0.0
C1249 C 0.79862 0.03195 0.42743 0.0
C1250 C 0.78349 0.03428 0.43429 0.0
C1251 C 0.77679 0.05337 0.41888 0.0
C1252 C 0.78519 0.07032 0.40026 0.0
C1253 C 0.77481 0.01712 0.45916 0.0
C1254 C 0.76215 0.00961 0.43468 0.0
C1255 C 0.77907 0.00794 0.50657 0.0
C1256 C 0.79139 0.01652 0.53726 0.0
C1257 C 0.79161 0.03806 0.55207 0.0
C1258 C 0.80305 0.04595 0.58208 0.0
C1259 C 0.81429 0.03241 0.59773 0.0
C1260 C 0.81418 0.011 0.58311 0.0
C1261 C 0.80276 0.00303 0.55317 0.0
H1262 H 0.8231 0.0385 0.62116 0.0
H1263 H 0.70502 0.96606 0.36195 0.0
H1264 H 0.54327 0.10089 0.72544 0.0
H1265 H 0.5491 0.0922 0.63562 0.0
H1266 H 0.57302 0.15111 0.62226 0.0
H1267 H 0.56739 0.15956 0.71165 0.0
H1268 H 0.5497 0.14606 0.55161 0.0
H1269 H 0.59136 0.10779 0.61594 0.0
H1270 H 0.60377 0.08089 0.6691 0.0
H1271 H 0.57954 0.03118 0.59462 0.0
H1272 H 0.56679 0.05784 0.54155 0.0
H1273 H 0.5779 0.14573 0.30393 0.0
H1274 H 0.57659 0.14506 0.39735 0.0
H1275 H 0.55739 0.08237 0.39182 0.0
H1276 H 0.55887 0.08287 0.29773 0.0
H1277 H 0.57716 0.08646 0.47233 0.0
H1278 H 0.53568 0.12371 0.40789 0.0
H1279 H 0.52251 0.15006 0.35538 0.0
H1280 H 0.54515 0.2009 0.43159 0.0
H1281 H 0.55864 0.17482 0.48403 0.0
C1282 C 0.55024 0.11148 0.70371 0.0
C1283 C 0.55508 0.13072 0.7253 0.0
C1284 C 0.5535 0.10661 0.65248 0.0
C1285 C 0.56145 0.12107 0.62228 0.0
C1286 C 0.56689 0.13974 0.64487 0.0
C1287 C 0.56378 0.14447 0.69594 0.0
C1288 C 0.56273 0.11817 0.56599 0.0
C1289 C 0.55585 0.13316 0.53431 0.0
C1290 C 0.57029 0.1009 0.5435 0.0
C1291 C 0.57798 0.08484 0.5752 0.0
C1292 C 0.58856 0.09115 0.61125 0.0
C1293 C 0.59568 0.07594 0.64129 0.0
C1294 C 0.59241 0.05434 0.63536 0.0
C1295 C 0.58204 0.04791 0.59924 0.0
C1296 C 0.57487 0.06307 0.56915 0.0
C1297 C 0.57353 0.13171 0.32257 0.0
C1298 C 0.56837 0.11443 0.29359 0.0
C1299 C 0.57276 0.13135 0.37599 0.0
C1300 C 0.5667 0.11379 0.40163 0.0
C1301 C 0.56209 0.09609 0.37287 0.0
C1302 C 0.56288 0.09643 0.31919 0.0
C1303 C 0.56443 0.11468 0.45805 0.0
C1304 C 0.57099 0.0993 0.48969 0.0
C1305 C 0.55644 0.13151 0.48079 0.0
C1306 C 0.54828 0.14729 0.44957 0.0
C1307 C 0.53794 0.1405 0.41318 0.0
C1308 C 0.5304 0.15539 0.38347 0.0
C1309 C 0.53302 0.17714 0.39005 0.0
C1310 C 0.54315 0.18404 0.42648 0.0
C1311 C 0.55074 0.16922 0.45624 0.0
H1312 H 0.52717 0.18864 0.36701 0.0
H1313 H 0.59793 0.04259 0.65866 0.0
H1314 H 0.42077 0.85719 0.29005 0.0
H1315 H 0.41985 0.86041 0.38317 0.0
H1316 H 0.42971 0.92742 0.37154 0.0
H1317 H 0.43071 0.9242 0.27766 0.0
H1318 H 0.44689 0.9069 0.44287 0.0
H1319 H 0.39559 0.9118 0.40684 0.0
H1320 H 0.3728 0.90032 0.36477 0.0
H1321 H 0.37553 0.8397 0.44011 0.0
H1322 H 0.39841 0.85075 0.4823 0.0
H1323 H 0.44547 0.90638 0.71368 0.0
H1324 H 0.43789 0.91795 0.62756 0.0
H1325 H 0.4214 0.8548 0.59675 0.0
H1326 H 0.42844 0.84368 0.68263 0.0
H1327 H 0.40529 0.88125 0.54773 0.0
H1328 H 0.45738 0.8713 0.56697 0.0
H1329 H 0.48165 0.87842 0.60422 0.0
H1330 H 0.47887 0.94373 0.5565 0.0
H1331 H 0.45448 0.93703 0.51956 0.0
C1332 C 0.42259 0.87267 0.30725 0.0
C1333 C 0.42578 0.89046 0.27665 0.0
C1334 C 0.422 0.87452 0.36053 0.0
C1335 C 0.42455 0.89421 0.38446 0.0
C1336 C 0.42763 0.91209 0.35392 0.0
C1337 C 0.42815 0.91026 0.30037 0.0
C1338 C 0.4247 0.89564 0.44142 0.0
C1339 C 0.43766 0.90185 0.46591 0.0
C1340 C 0.4128 0.88851 0.47146 0.0
C1341 C 0.39874 0.88211 0.44767 0.0
C1342 C 0.39134 0.89602 0.41441 0.0
C1343 C 0.3784 0.88958 0.39052 0.0
C1344 C 0.37272 0.86929 0.39976 0.0
C1345 C 0.37993 0.85543 0.43309 0.0
C1346 C 0.39286 0.8618 0.45712 0.0
C1347 C 0.43972 0.89532 0.68903 0.0
C1348 C 0.43753 0.87417 0.70456 0.0
C1349 C 0.43554 0.90181 0.63963 0.0
C1350 C 0.42937 0.88711 0.60496 0.0
C1351 C 0.42615 0.86649 0.62236 0.0
C1352 C 0.43018 0.86011 0.67154 0.0
C1353 C 0.42763 0.89205 0.54931 0.0
C1354 C 0.41439 0.88695 0.52492 0.0
C1355 C 0.43939 0.89971 0.51916 0.0
C1356 C 0.45405 0.90374 0.54116 0.0
C1357 C 0.46191 0.88721 0.56475 0.0
C1358 C 0.47569 0.89116 0.58577 0.0
C1359 C 0.48178 0.91154 0.58288 0.0
C1360 C 0.47412 0.92798 0.55884 0.0
C1361 C 0.46032 0.92412 0.53787 0.0
H1362 H 0.49244 0.91457 0.59915 0.0
H1363 H 0.36274 0.86431 0.38109 0.0
H1364 H 0.66177 0.35424 0.53972 0.0
H1365 H 0.66155 0.35345 0.63382 0.0
H1366 H 0.70857 0.3505 0.63517 0.0
H1367 H 0.70886 0.35167 0.54132 0.0
H1368 H 0.69459 0.32252 0.70761 0.0
H1369 H 0.69391 0.39586 0.65148 0.0
H1370 H 0.68394 0.4262 0.60288 0.0
H1371 H 0.6435 0.4211 0.68501 0.0
H1372 H 0.65309 0.39034 0.7332 0.0
H1373 H 0.71814 0.36351 0.9453 0.0
H1374 H 0.71262 0.35286 0.85758 0.0
H1375 H 0.66734 0.36901 0.88104 0.0
H1376 H 0.67298 0.38025 0.96903 0.0
H1377 H 0.67711 0.38743 0.79696 0.0
H1378 H 0.67856 0.3166 0.86034 0.0
H1379 H 0.68822 0.28582 0.90807 0.0
H1380 H 0.72656 0.28562 0.81354 0.0
H1381 H 0.71724 0.31661 0.76568 0.0
C1382 C 0.67204 0.35311 0.56013 0.0
C1383 C 0.68534 0.35303 0.53329 0.0
C1384 C 0.6719 0.35272 0.61383 0.0
C1385 C 0.68505 0.35198 0.64151 0.0
C1386 C 0.6983 0.35099 0.61461 0.0
C1387 C 0.69845 0.35172 0.56103 0.0
C1388 C 0.68513 0.35362 0.69837 0.0
C1389 C 0.69083 0.33672 0.72726 0.0
C1390 C 0.67985 0.37193 0.72399 0.0
C1391 C 0.67415 0.3906 0.69548 0.0
C1392 C 0.68284 0.40105 0.65883 0.0
C1393 C 0.67727 0.41835 0.6314 0.0
C1394 C 0.66309 0.42555 0.64081 0.0
C1395 C 0.65447 0.41548 0.67771 0.0
C1396 C 0.65996 0.39809 0.70504 0.0
C1397 C 0.70693 0.36424 0.9322 0.0
C1398 C 0.69599 0.37269 0.96408 0.0
C1399 C 0.70376 0.35809 0.88197 0.0
C1400 C 0.68953 0.36003 0.86241 0.0
C1401 C 0.6784 0.36734 0.89514 0.0
C1402 C 0.68158 0.37352 0.94563 0.0
C1403 C 0.68675 0.35638 0.8067 0.0
C1404 C 0.68061 0.37299 0.77774 0.0
C1405 C 0.69158 0.33775 0.78108 0.0
C1406 C 0.69723 0.31904 0.80961 0.0
C1407 C 0.6891 0.3101 0.84994 0.0
C1408 C 0.69451 0.29259 0.87699 0.0
C1409 C 0.70801 0.2838 0.8639 0.0
C1410 C 0.71611 0.29246 0.82364 0.0
C1411 C 0.71075 0.30998 0.79648 0.0
H1412 H 0.71218 0.27025 0.8849 0.0
H1413 H 0.6588 0.43896 0.61959 0.0
H1414 H 0.2933 0.655 0.55103 0.0
H1415 H 0.29312 0.65642 0.64499 0.0
H1416 H 0.33874 0.63968 0.64778 0.0
H1417 H 0.33909 0.63884 0.55367 0.0
H1418 H 0.31822 0.61351 0.71168 0.0
H1419 H 0.3326 0.68625 0.67861 0.0
H1420 H 0.3301 0.72157 0.63838 0.0
H1421 H 0.288 0.72935 0.7082 0.0
H1422 H 0.29017 0.69392 0.74826 0.0
H1423 H 0.32763 0.61988 0.9767 0.0
H1424 H 0.33248 0.63035 0.88775 0.0
H1425 H 0.28855 0.65433 0.87446 0.0
H1426 H 0.28364 0.64358 0.9631 0.0
H1427 H 0.30946 0.67831 0.81635 0.0
H1428 H 0.29231 0.60727 0.83995 0.0
H1429 H 0.29188 0.57165 0.87953 0.0
H1430 H 0.33541 0.55986 0.82553 0.0
H1431 H 0.33618 0.59563 0.78632 0.0
C1432 C 0.30333 0.65191 0.5717 0.0
C1433 C 0.31622 0.64689 0.54514 0.0
C1434 C 0.30322 0.65273 0.6253 0.0
C1435 C 0.31592 0.64818 0.6533 0.0
C1436 C 0.32883 0.64329 0.62685 0.0
C1437 C 0.32903 0.6429 0.57317 0.0
C1438 C 0.31548 0.64756 0.71018 0.0
C1439 C 0.31663 0.62773 0.73462 0.0
C1440 C 0.31279 0.666 0.73991 0.0
C1441 C 0.31149 0.68734 0.71603 0.0
C1442 C 0.32275 0.6954 0.685 0.0
C1443 C 0.32141 0.71547 0.66231 0.0
C1444 C 0.30888 0.72767 0.67062 0.0
C1445 C 0.29769 0.71986 0.70175 0.0
C1446 C 0.29898 0.6998 0.7245 0.0
C1447 C 0.31925 0.62827 0.95547 0.0
C1448 C 0.30532 0.63114 0.97671 0.0
C1449 C 0.32197 0.63406 0.90457 0.0
C1450 C 0.31081 0.64291 0.87434 0.0
C1451 C 0.29732 0.64761 0.8971 0.0
C1452 C 0.29454 0.64156 0.94775 0.0
C1453 C 0.31248 0.64433 0.8178 0.0
C1454 C 0.31136 0.66417 0.79343 0.0
C1455 C 0.31481 0.62583 0.78784 0.0
C1456 C 0.31438 0.60422 0.81078 0.0
C1457 C 0.30184 0.59716 0.83691 0.0
C1458 C 0.30152 0.57694 0.85921 0.0
C1459 C 0.31363 0.56353 0.8552 0.0
C1460 C 0.32605 0.5703 0.82871 0.0
C1461 C 0.32644 0.59054 0.80642 0.0
H1462 H 0.31336 0.54787 0.87249 0.0
H1463 H 0.30786 0.7432 0.65303 0.0
H1464 H 0.53077 0.61732 0.20227 0.0
H1465 H 0.5355 0.60528 0.11499 0.0
H1466 H 0.58174 0.61365 0.13914 0.0
H1467 H 0.57692 0.62625 0.22666 0.0
H1468 H 0.5738 0.63351 0.05527 0.0
H1469 H 0.56605 0.56336 0.11748 0.0
H1470 H 0.55364 0.53445 0.16418 0.0
H1471 H 0.51593 0.54147 0.06799 0.0
H1472 H 0.52802 0.57065 0.02114 0.0
H1473 H 0.58693 0.6017 0.79701 0.0
H1474 H 0.58699 0.60051 0.891 0.0
H1475 H 0.53992 0.59942 0.89131 0.0
H1476 H 0.53983 0.60057 0.7975 0.0
H1477 H 0.55124 0.57245 0.9642 0.0
H1478 H 0.558 0.64541 0.91065 0.0
H1479 H 0.57026 0.67455 0.86421 0.0
H1480 H 0.61007 0.66178 0.94541 0.0
H1481 H 0.59808 0.63235 0.99185 0.0
C1482 C 0.54198 0.61593 0.18953 0.0
C1483 C 0.55347 0.62265 0.22145 0.0
C1484 C 0.5447 0.60901 0.13948 0.0
C1485 C 0.55901 0.60845 0.12008 0.0
C1486 C 0.5706 0.61391 0.15302 0.0
C1487 C 0.56787 0.62085 0.20331 0.0
C1488 C 0.56157 0.60443 0.06423 0.0
C1489 C 0.56916 0.61985 0.0357 0.0
C1490 C 0.55525 0.5869 0.03802 0.0
C1491 C 0.54792 0.56931 0.06599 0.0
C1492 C 0.55507 0.55886 0.1065 0.0
C1493 C 0.5481 0.5424 0.13297 0.0
C1494 C 0.534 0.53615 0.11912 0.0
C1495 C 0.52685 0.54633 0.07869 0.0
C1496 C 0.53377 0.56281 0.0521 0.0
C1497 C 0.57661 0.60091 0.81714 0.0
C1498 C 0.56337 0.60131 0.78988 0.0
C1499 C 0.57665 0.60032 0.87088 0.0
C1500 C 0.56345 0.60011 0.89845 0.0
C1501 C 0.55024 0.59957 0.87108 0.0
C1502 C 0.5502 0.60028 0.81741 0.0
C1503 C 0.56331 0.60163 0.9556 0.0
C1504 C 0.5561 0.58585 0.98415 0.0
C1505 C 0.57 0.61879 0.98194 0.0
C1506 C 0.5772 0.63653 0.95425 0.0
C1507 C 0.5694 0.64871 0.91829 0.0
C1508 C 0.57629 0.6653 0.89202 0.0
C1509 C 0.59095 0.66997 0.90173 0.0
C1510 C 0.59873 0.65811 0.93785 0.0
C1511 C 0.59189 0.64148 0.96417 0.0
H1512 H 0.59627 0.68282 0.88136 0.0
H1513 H 0.52862 0.52341 0.13966 0.0
H1514 H 0.42194 0.36352 0.21268 0.0
H1515 H 0.4158 0.37262 0.1238 0.0
H1516 H 0.45691 0.40534 0.10815 0.0
H1517 H 0.46324 0.39578 0.1965 0.0
H1518 H 0.42053 0.41744 0.05222 0.0
H1519 H 0.46905 0.37414 0.054 0.0
H1520 H 0.48238 0.34589 0.10041 0.0
H1521 H 0.44442 0.3058 0.09471 0.0
H1522 H 0.43086 0.33397 0.04887 0.0
H1523 H 0.43469 0.41918 0.78255 0.0
H1524 H 0.43567 0.42117 0.8763 0.0
H1525 H 0.42298 0.35506 0.88576 0.0
H1526 H 0.4226 0.35288 0.79232 0.0
H1527 H 0.44397 0.36083 0.94791 0.0
H1528 H 0.3994 0.39838 0.91678 0.0
H1529 H 0.38338 0.42556 0.87836 0.0
H1530 H 0.40946 0.47514 0.94529 0.0
H1531 H 0.42576 0.44824 0.98358 0.0
C1532 C 0.42933 0.37353 0.19099 0.0
C1533 C 0.443 0.37914 0.21134 0.0
C1534 C 0.42584 0.37865 0.14025 0.0
C1535 C 0.43591 0.38965 0.10957 0.0
C1536 C 0.44897 0.39699 0.13141 0.0
C1537 C 0.45255 0.3916 0.18183 0.0
C1538 C 0.43418 0.38963 0.05318 0.0
C1539 C 0.42575 0.40529 0.02906 0.0
C1540 C 0.44062 0.37338 0.02351 0.0
C1541 C 0.44901 0.35603 0.048 0.0
C1542 C 0.46361 0.35923 0.06243 0.0
C1543 C 0.47118 0.34329 0.08878 0.0
C1544 C 0.46426 0.32405 0.10047 0.0
C1545 C 0.44977 0.3207 0.08563 0.0
C1546 C 0.44215 0.33663 0.05947 0.0
C1547 C 0.43199 0.40517 0.80478 0.0
C1548 C 0.42858 0.38589 0.78026 0.0
C1549 C 0.43248 0.40632 0.8584 0.0
C1550 C 0.42928 0.38831 0.88848 0.0
C1551 C 0.42556 0.36917 0.8637 0.0
C1552 C 0.42528 0.36795 0.81023 0.0
C1553 C 0.43043 0.38901 0.94552 0.0
C1554 C 0.43876 0.37324 0.97027 0.0
C1555 C 0.42367 0.40509 0.97557 0.0
C1556 C 0.41389 0.4213 0.95262 0.0
C1557 C 0.40179 0.41508 0.92297 0.0
C1558 C 0.39264 0.43044 0.90128 0.0
C1559 C 0.39542 0.45207 0.90926 0.0
C1560 C 0.40733 0.45838 0.93908 0.0
C1561 C 0.41652 0.44309 0.96082 0.0
H1562 H 0.38833 0.46393 0.89244 0.0
H1563 H 0.4701 0.31178 0.12109 0.0
H1564 H 0.69528 0.92064 0.43486 0.0
H1565 H 0.68854 0.91177 0.34707 0.0
H1566 H 0.6901 0.84486 0.38414 0.0
H1567 H 0.69697 0.85384 0.47303 0.0
H1568 H 0.70563 0.85498 0.2956 0.0
H1569 H 0.65772 0.86691 0.3597 0.0
H1570 H 0.63834 0.88578 0.40691 0.0
H1571 H 0.64305 0.9398 0.30757 0.0
H1572 H 0.66261 0.92139 0.26019 0.0
H1573 H 0.68138 0.83658 0.03627 0.0
H1574 H 0.68224 0.83566 0.13041 0.0
H1575 H 0.68263 0.90433 0.13427 0.0
H1576 H 0.68183 0.9053 0.0407 0.0
H1577 H 0.66345 0.88711 0.2049 0.0
H1578 H 0.71347 0.87827 0.15146 0.0
H1579 H 0.73362 0.861 0.10464 0.0
H1580 H 0.72534 0.80241 0.1843 0.0
H1581 H 0.705 0.8193 0.23113 0.0
C1582 C 0.69397 0.90403 0.42452 0.0
C1583 C 0.69663 0.8879 0.46063 0.0
C1584 C 0.69007 0.89897 0.37437 0.0
C1585 C 0.6887 0.87765 0.359 0.0
C1586 C 0.69104 0.86142 0.39525 0.0
C1587 C 0.69486 0.86653 0.44595 0.0
C1588 C 0.68567 0.87273 0.30425 0.0
C1589 C 0.6962 0.8615 0.27599 0.0
C1590 C 0.67354 0.88167 0.27838 0.0
C1591 C 0.66169 0.89278 0.30652 0.0
C1592 C 0.65469 0.88287 0.34811 0.0
C1593 C 0.64366 0.89347 0.37488 0.0
C1594 C 0.63947 0.91398 0.36029 0.0
C1595 C 0.6463 0.92391 0.31882 0.0
C1596 C 0.65734 0.91338 0.29193 0.0
C1597 C 0.68158 0.85144 0.05734 0.0
C1598 C 0.68154 0.87101 0.03128 0.0
C1599 C 0.68211 0.8509 0.11103 0.0
C1600 C 0.68252 0.86994 0.13939 0.0
C1601 C 0.68224 0.88946 0.11325 0.0
C1602 C 0.68184 0.88999 0.05977 0.0
C1603 C 0.68355 0.86975 0.19626 0.0
C1604 C 0.67268 0.88012 0.22476 0.0
C1605 C 0.69539 0.86013 0.22229 0.0
C1606 C 0.7076 0.84996 0.19426 0.0
C1607 C 0.71586 0.86165 0.15862 0.0
C1608 C 0.72733 0.85194 0.13216 0.0
C1609 C 0.73072 0.83059 0.14134 0.0
C1610 C 0.72268 0.81893 0.17713 0.0
C1611 C 0.71118 0.82856 0.20366 0.0
H1612 H 0.73961 0.8231 0.12084 0.0
H1613 H 0.63093 0.92217 0.38108 0.0
H1614 H 0.30961 0.11344 0.04488 0.0
H1615 H 0.30935 0.116 0.13798 0.0
H1616 H 0.32957 0.17801 0.12923 0.0
H1617 H 0.3309 0.17458 0.03535 0.0
H1618 H 0.33939 0.16009 0.20965 0.0
H1619 H 0.29051 0.16976 0.1493 0.0
H1620 H 0.26858 0.16074 0.09888 0.0
H1621 H 0.26463 0.10147 0.17966 0.0
H1622 H 0.28661 0.11006 0.23024 0.0
H1623 H 0.28834 0.15643 0.45772 0.0
H1624 H 0.29364 0.16708 0.36943 0.0
H1625 H 0.33301 0.1294 0.37267 0.0
H1626 H 0.32793 0.1195 0.4615 0.0
H1627 H 0.29271 0.14157 0.29482 0.0
H1628 H 0.35619 0.14223 0.27761 0.0
H1629 H 0.37744 0.15491 0.32708 0.0
H1630 H 0.35058 0.20144 0.40205 0.0
H1631 H 0.3292 0.18919 0.3528 0.0
C1632 C 0.31409 0.12758 0.06282 0.0
C1633 C 0.32012 0.14393 0.03292 0.0
C1634 C 0.31383 0.12913 0.11621 0.0
C1635 C 0.31895 0.14756 0.14113 0.0
C1636 C 0.32542 0.16369 0.11124 0.0
C1637 C 0.32613 0.16179 0.05759 0.0
C1638 C 0.31715 0.14998 0.19797 0.0
C1639 C 0.32916 0.15614 0.22823 0.0
C1640 C 0.30371 0.14547 0.22269 0.0
C1641 C 0.29023 0.14054 0.19343 0.0
C1642 C 0.28496 0.15481 0.15628 0.0
C1643 C 0.27253 0.14976 0.12766 0.0
C1644 C 0.26522 0.13054 0.13607 0.0
C1645 C 0.27028 0.11637 0.17329 0.0
C1646 C 0.28271 0.12134 0.20202 0.0
C1647 C 0.2985 0.15137 0.44033 0.0
C1648 C 0.30785 0.13745 0.46669 0.0
C1649 C 0.30144 0.15719 0.38957 0.0
C1650 C 0.3137 0.14899 0.36379 0.0
C1651 C 0.32361 0.13631 0.3915 0.0
C1652 C 0.32075 0.13071 0.44254 0.0
C1653 C 0.31503 0.15123 0.30683 0.0
C1654 C 0.30291 0.14584 0.27643 0.0
C1655 C 0.32823 0.15707 0.28218 0.0
C1656 C 0.34106 0.16465 0.31173 0.0
C1657 C 0.35483 0.15522 0.3045 0.0
C1658 C 0.36689 0.16231 0.3326 0.0
C1659 C 0.36534 0.17891 0.36784 0.0
C1660 C 0.35174 0.1885 0.37498 0.0
C1661 C 0.33964 0.18146 0.34705 0.0
H1662 H 0.37469 0.18438 0.38954 0.0
H1663 H 0.25563 0.12663 0.11374 0.0
H1664 H 0.07342 0.13077 0.2315 0.0
H1665 H 0.07869 0.11854 0.1441 0.0
H1666 H 0.03261 0.1102 0.11657 0.0
H1667 H 0.02737 0.12186 0.2039 0.0
H1668 H 0.04757 0.08045 0.06626 0.0
H1669 H 0.0502 0.15683 0.08672 0.0
H1670 H 0.05947 0.1902 0.12454 0.0
H1671 H 0.10282 0.17487 0.07408 0.0
H1672 H 0.09383 0.14122 0.03662 0.0
H1673 H 0.03627 0.10566 0.80452 0.0
H1674 H 0.03718 0.10339 0.89801 0.0
H1675 H 0.08418 0.10688 0.89321 0.0
H1676 H 0.0833 0.1091 0.79931 0.0
H1677 H 0.07243 0.13535 0.96112 0.0
H1678 H 0.06796 0.06097 0.92762 0.0
H1679 H 0.05751 0.02864 0.88845 0.0
H1680 H 0.01641 0.04117 0.96143 0.0
H1681 H 0.02654 0.07376 1.00047 0.0
C1682 C 0.06447 0.12562 0.20733 0.0
C1683 C 0.04997 0.12745 0.22436 0.0
C1684 C 0.06748 0.11884 0.1572 0.0
C1685 C 0.05602 0.11389 0.12325 0.0
C1686 C 0.04164 0.11403 0.14175 0.0
C1687 C 0.03865 0.12076 0.19168 0.0
C1688 C 0.05869 0.11065 0.06742 0.0
C1689 C 0.05299 0.09246 0.04327 0.0
C1690 C 0.06598 0.12613 0.0373 0.0
C1691 C 0.07138 0.1464 0.05946 0.0
C1692 C 0.06173 0.16051 0.08403 0.0
C1693 C 0.06693 0.17948 0.10536 0.0
C1694 C 0.08173 0.18462 0.10185 0.0
C1695 C 0.09136 0.17084 0.07687 0.0
C1696 C 0.08622 0.15181 0.0556 0.0
C1697 C 0.04681 0.1056 0.82333 0.0
C1698 C 0.05971 0.10751 0.79465 0.0
C1699 C 0.04732 0.10423 0.87679 0.0
C1700 C 0.06076 0.10481 0.90275 0.0
C1701 C 0.07369 0.10633 0.87406 0.0
C1702 C 0.07319 0.10751 0.82044 0.0
C1703 C 0.06112 0.10529 0.95982 0.0
C1704 C 0.0673 0.12307 0.98417 0.0
C1705 C 0.05413 0.08954 0.98995 0.0
C1706 C 0.048 0.0699 0.96671 0.0
C1707 C 0.05666 0.05692 0.93502 0.0
C1708 C 0.0508 0.03853 0.91289 0.0
C1709 C 0.0363 0.03287 0.92238 0.0
C1710 C 0.02764 0.04558 0.95411 0.0
C1711 C 0.03344 0.064 0.97631 0.0
H1712 H 0.03178 0.01863 0.9052 0.0
H1713 H 0.08574 0.19932 0.11837 0.0
H1714 H 0.91798 0.87691 0.24181 0.0
H1715 H 0.91144 0.88841 0.15482 0.0
H1716 H 0.95657 0.90366 0.12501 0.0
H1717 H 0.96295 0.89294 0.21193 0.0
H1718 H 0.94048 0.92987 0.07313 0.0
H1719 H 0.94112 0.85367 0.09705 0.0
H1720 H 0.9335 0.81972 0.13626 0.0
H1721 H 0.88938 0.83058 0.08722 0.0
H1722 H 0.89672 0.86478 0.04833 0.0
H1723 H 0.95223 0.90247 0.81227 0.0
H1724 H 0.95151 0.90467 0.90585 0.0
H1725 H 0.90454 0.90038 0.9022 0.0
H1726 H 0.90522 0.89844 0.8081 0.0
H1727 H 0.91758 0.87197 0.97166 0.0
H1728 H 0.91946 0.94646 0.9339 0.0
H1729 H 0.92895 0.97886 0.89232 0.0
H1730 H 0.97053 0.9695 0.96479 0.0
H1731 H 0.96135 0.93685 1.00625 0.0
C1732 C 0.92636 0.88353 0.21731 0.0
C1733 C 0.94099 0.88388 0.23356 0.0
C1734 C 0.92267 0.88982 0.16729 0.0
C1735 C 0.93357 0.89635 0.13255 0.0
C1736 C 0.94794 0.89856 0.15058 0.0
C1737 C 0.95159 0.89243 0.20043 0.0
C1738 C 0.93054 0.89882 0.07649 0.0
C1739 C 0.93548 0.91719 0.05103 0.0
C1740 C 0.92384 0.88244 0.04725 0.0
C1741 C 0.91942 0.86188 0.0704 0.0
C1742 C 0.92977 0.84888 0.09496 0.0
C1743 C 0.92551 0.82959 0.11709 0.0
C1744 C 0.91095 0.82303 0.11438 0.0
C1745 C 0.90064 0.83572 0.08941 0.0
C1746 C 0.90484 0.85505 0.06733 0.0
C1747 C 0.94173 0.90228 0.83134 0.0
C1748 C 0.92878 0.90037 0.80284 0.0
C1749 C 0.94133 0.90358 0.88487 0.0
C1750 C 0.92796 0.90284 0.91121 0.0
C1751 C 0.91498 0.90107 0.88277 0.0
C1752 C 0.91537 0.90005 0.82903 0.0
C1753 C 0.92774 0.90285 0.9684 0.0
C1754 C 0.92228 0.88487 0.99393 0.0
C1755 C 0.9342 0.9194 0.99752 0.0
C1756 C 0.93973 0.93911 0.97293 0.0
C1757 C 0.93066 0.95122 0.9407 0.0
C1758 C 0.93598 0.96965 0.91719 0.0
C1759 C 0.95035 0.97621 0.92584 0.0
C1760 C 0.95941 0.96439 0.95812 0.0
C1761 C 0.95414 0.94593 0.98169 0.0
H1762 H 0.95445 0.99048 0.90759 0.0
H1763 H 0.90767 0.80808 0.1315 0.0
H1764 H 0.20342 0.37662 0.05589 0.0
H1765 H 0.20258 0.37509 0.14911 0.0
H1766 H 0.16332 0.33717 0.14138 0.0
H1767 H 0.16374 0.33973 0.04745 0.0
H1768 H 0.15999 0.36339 0.21376 0.0
H1769 H 0.19857 0.31574 0.17565 0.0
H1770 H 0.22128 0.30322 0.13486 0.0
H1771 H 0.24535 0.35314 0.20917 0.0
H1772 H 0.22276 0.36612 0.24994 0.0
H1773 H 0.19917 0.34862 0.48567 0.0
H1774 H 0.19357 0.33577 0.39875 0.0
H1775 H 0.17391 0.39643 0.36313 0.0
H1776 H 0.17912 0.40884 0.44969 0.0
H1777 H 0.20475 0.34951 0.31523 0.0
H1778 H 0.15058 0.3947 0.26678 0.0
H1779 H 0.12714 0.403 0.30862 0.0
H1780 H 0.13267 0.34982 0.41002 0.0
H1781 H 0.15604 0.34099 0.36834 0.0
C1782 C 0.19466 0.36781 0.07402 0.0
C1783 C 0.18371 0.35814 0.04437 0.0
C1784 C 0.19424 0.36681 0.12751 0.0
C1785 C 0.18309 0.35556 0.15283 0.0
C1786 C 0.1721 0.34586 0.12308 0.0
C1787 C 0.17237 0.34724 0.06938 0.0
C1788 C 0.18271 0.3547 0.21018 0.0
C1789 C 0.16976 0.36019 0.23588 0.0
C1790 C 0.19528 0.34983 0.23968 0.0
C1791 C 0.20895 0.34195 0.21568 0.0
C1792 C 0.20869 0.3241 0.18312 0.0
C1793 C 0.22155 0.31692 0.16001 0.0
C1794 C 0.23474 0.32739 0.16938 0.0
C1795 C 0.23512 0.34504 0.20198 0.0
C1796 C 0.2223 0.35229 0.22518 0.0
C1797 C 0.19308 0.35877 0.45981 0.0
C1798 C 0.18937 0.37958 0.47449 0.0
C1799 C 0.19004 0.35155 0.40995 0.0
C1800 C 0.18323 0.36505 0.37403 0.0
C1801 C 0.17885 0.38545 0.38998 0.0
C1802 C 0.18183 0.39257 0.4396 0.0
C1803 C 0.18219 0.35906 0.31864 0.0
C1804 C 0.1949 0.35233 0.29323 0.0
C1805 C 0.16928 0.36216 0.28963 0.0
C1806 C 0.15513 0.36727 0.31457 0.0
C1807 C 0.14676 0.38469 0.29779 0.0
C1808 C 0.13349 0.38951 0.32154 0.0
C1809 C 0.12844 0.37698 0.36202 0.0
C1810 C 0.13663 0.35956 0.37877 0.0
C1811 C 0.1499 0.35466 0.35514 0.0
H1812 H 0.11816 0.38074 0.38037 0.0
H1813 H 0.24468 0.32181 0.15141 0.0
H1814 H 0.80312 0.65499 0.47407 0.0
H1815 H 0.81082 0.66525 0.387 0.0
H1816 H 0.8124 0.59895 0.34381 0.0
H1817 H 0.8049 0.5888 0.42998 0.0
H1818 H 0.83489 0.62024 0.30253 0.0
H1819 H 0.78248 0.62931 0.31897 0.0
H1820 H 0.76017 0.64464 0.35684 0.0
H1821 H 0.77479 0.70752 0.31746 0.0
H1822 H 0.79729 0.69254 0.27992 0.0
H1823 H 0.81585 0.60516 0.04581 0.0
H1824 H 0.81672 0.60779 0.13902 0.0
H1825 H 0.82149 0.67596 0.12811 0.0
H1826 H 0.82081 0.67335 0.03387 0.0
H1827 H 0.79956 0.66194 0.1992 0.0
H1828 H 0.84998 0.65003 0.16531 0.0
H1829 H 0.87115 0.63263 0.12473 0.0
H1830 H 0.85947 0.57322 0.19497 0.0
H1831 H 0.8381 0.59017 0.23541 0.0
C1832 C 0.80538 0.6427 0.44607 0.0
C1833 C 0.80328 0.62114 0.45844 0.0
C1834 C 0.8097 0.64853 0.39637 0.0
C1835 C 0.81205 0.63286 0.35865 0.0
C1836 C 0.81067 0.61133 0.37208 0.0
C1837 C 0.8063 0.60555 0.42128 0.0
C1838 C 0.81499 0.63845 0.30421 0.0
C1839 C 0.8272 0.62944 0.27999 0.0
C1840 C 0.80514 0.65084 0.27487 0.0
C1841 C 0.79164 0.65985 0.29732 0.0
C1842 C 0.78099 0.64642 0.31879 0.0
C1843 C 0.7683 0.65504 0.34012 0.0
C1844 C 0.76609 0.67705 0.33973 0.0
C1845 C 0.77654 0.69048 0.31786 0.0
C1846 C 0.78926 0.68194 0.29656 0.0
C1847 C 0.81719 0.62072 0.06317 0.0
C1848 C 0.81828 0.63906 0.03267 0.0
C1849 C 0.81773 0.62219 0.11646 0.0
C1850 C 0.81928 0.64204 0.14054 0.0
C1851 C 0.82035 0.66048 0.11024 0.0
C1852 C 0.82001 0.65897 0.05657 0.0
C1853 C 0.81923 0.64318 0.19741 0.0
C1854 C 0.80752 0.65334 0.222 0.0
C1855 C 0.82945 0.63164 0.22702 0.0
C1856 C 0.84239 0.62138 0.20323 0.0
C1857 C 0.85187 0.63322 0.17187 0.0
C1858 C 0.86392 0.62344 0.14892 0.0
C1859 C 0.86664 0.60183 0.15722 0.0
C1860 C 0.85734 0.58996 0.18859 0.0
C1861 C 0.84528 0.59966 0.21162 0.0
H1862 H 0.87597 0.59429 0.13939 0.0
H1863 H 0.75626 0.6837 0.35623 0.0
H1864 H 0.03791 0.60434 0.30039 0.0
H1865 H 0.03734 0.60304 0.39398 0.0
H1866 H 0.08342 0.61714 0.39893 0.0
H1867 H 0.0841 0.61771 0.30493 0.0
H1868 H 0.07675 0.59007 0.47402 0.0
H1869 H 0.05765 0.65651 0.41529 0.0
H1870 H 0.04184 0.68021 0.36442 0.0
H1871 H 0.00383 0.65312 0.43525 0.0
H1872 H 0.01942 0.62903 0.48603 0.0
H1873 H 0.07393 0.63778 0.72839 0.0
H1874 H 0.07807 0.62719 0.63891 0.0
H1875 H 0.03301 0.60791 0.62654 0.0
H1876 H 0.02889 0.61852 0.71548 0.0
H1877 H 0.04021 0.63743 0.55564 0.0
H1878 H 0.06053 0.5717 0.61797 0.0
H1879 H 0.07724 0.54959 0.66942 0.0
H1880 H 0.1141 0.5777 0.59362 0.0
H1881 H 0.09761 0.60021 0.54218 0.0
C1882 C 0.04796 0.60685 0.32142 0.0
C1883 C 0.06102 0.61128 0.29541 0.0
C1884 C 0.04762 0.60621 0.37497 0.0
C1885 C 0.06027 0.61047 0.40377 0.0
C1886 C 0.0735 0.61389 0.37773 0.0
C1887 C 0.07388 0.61426 0.324 0.0
C1888 C 0.05944 0.61261 0.46069 0.0
C1889 C 0.06886 0.60059 0.49188 0.0
C1890 C 0.04911 0.62625 0.48429 0.0
C1891 C 0.0397 0.64083 0.4541 0.0
C1892 C 0.04592 0.65551 0.41976 0.0
C1893 C 0.037 0.66902 0.39098 0.0
C1894 C 0.02184 0.66813 0.3965 0.0
C1895 C 0.01558 0.65377 0.43095 0.0
C1896 C 0.02445 0.64019 0.45978 0.0
C1897 C 0.0651 0.63047 0.70712 0.0
C1898 C 0.05109 0.62895 0.72882 0.0
C1899 C 0.06744 0.62453 0.65588 0.0
C1900 C 0.05581 0.6169 0.62575 0.0
C1901 C 0.04212 0.61386 0.64881 0.0
C1902 C 0.0398 0.61979 0.69974 0.0
C1903 C 0.05729 0.61455 0.56913 0.0
C1904 C 0.04805 0.62678 0.5379 0.0
C1905 C 0.06791 0.60136 0.54578 0.0
C1906 C 0.07783 0.5878 0.57658 0.0
C1907 C 0.0722 0.57331 0.61258 0.0
C1908 C 0.08163 0.56067 0.64168 0.0
C1909 C 0.09672 0.56228 0.63489 0.0
C1910 C 0.10241 0.57649 0.59888 0.0
C1911 C 0.09302 0.58918 0.56971 0.0
H1912 H 0.104 0.55249 0.65746 0.0
H1913 H 0.01495 0.67861 0.37417 0.0
H1914 H 0.95563 0.41175 0.30046 0.0
H1915 H 0.95621 0.41344 0.39392 0.0
H1916 H 0.90959 0.40409 0.39887 0.0
H1917 H 0.90893 0.40289 0.3047 0.0
H1918 H 0.91818 0.43158 0.47438 0.0
H1919 H 0.93203 0.36178 0.41955 0.0
H1920 H 0.94557 0.33492 0.36967 0.0
H1921 H 0.98603 0.35797 0.43161 0.0
H1922 H 0.97271 0.38496 0.48202 0.0
H1923 H 0.92069 0.38251 0.72929 0.0
H1924 H 0.91605 0.39406 0.64077 0.0
H1925 H 0.96139 0.41115 0.62461 0.0
H1926 H 0.96598 0.39987 0.71278 0.0
H1927 H 0.95199 0.37995 0.55552 0.0
H1928 H 0.9369 0.44891 0.6152 0.0
H1929 H 0.92235 0.47371 0.66762 0.0
H1930 H 0.88295 0.45014 0.59883 0.0
H1931 H 0.89727 0.42502 0.54627 0.0
C1932 C 0.94546 0.41036 0.32137 0.0
C1933 C 0.93225 0.40705 0.29523 0.0
C1934 C 0.94581 0.41125 0.37491 0.0
C1935 C 0.93299 0.40848 0.40376 0.0
C1936 C 0.91964 0.40621 0.37763 0.0
C1937 C 0.91928 0.40549 0.32381 0.0
C1938 C 0.9338 0.40655 0.4608 0.0
C1939 C 0.92545 0.42013 0.49213 0.0
C1940 C 0.94332 0.3917 0.48433 0.0
C1941 C 0.95139 0.37551 0.45415 0.0
C1942 C 0.94383 0.3612 0.42227 0.0
C1943 C 0.95146 0.34594 0.39395 0.0
C1944 C 0.96666 0.34483 0.39718 0.0
C1945 C 0.97426 0.35888 0.42904 0.0
C1946 C 0.96667 0.37412 0.45763 0.0
C1947 C 0.92947 0.38974 0.70764 0.0
C1948 C 0.94368 0.39038 0.72797 0.0
C1949 C 0.92685 0.39615 0.65687 0.0
C1950 C 0.93842 0.40325 0.62578 0.0
C1951 C 0.95232 0.40564 0.64769 0.0
C1952 C 0.9549 0.39938 0.69826 0.0
C1953 C 0.93665 0.40528 0.56917 0.0
C1954 C 0.94476 0.39149 0.53785 0.0
C1955 C 0.92678 0.41971 0.54605 0.0
C1956 C 0.91815 0.43492 0.57718 0.0
C1957 C 0.92513 0.44888 0.61154 0.0
C1958 C 0.91692 0.46302 0.64123 0.0
C1959 C 0.90173 0.46343 0.63676 0.0
C1960 C 0.89472 0.44977 0.60234 0.0
C1961 C 0.90287 0.43561 0.57252 0.0
H1962 H 0.8954 0.47437 0.65985 0.0
H1963 H 0.97256 0.33303 0.37517 0.0
H1964 H 0.19922 0.92168 0.93692 0.0
H1965 H 0.19179 0.91203 0.85101 0.0
H1966 H 0.18299 0.84781 0.90111 0.0
H1967 H 0.19132 0.8573 0.98806 0.0
H1968 H 0.19713 0.84655 0.81346 0.0
H1969 H 0.15469 0.88271 0.86628 0.0
H1970 H 0.13975 0.91077 0.90644 0.0
H1971 H 0.1562 0.95655 0.79884 0.0
H1972 H 0.17141 0.92886 0.75847 0.0
H1973 H 0.17088 0.83891 0.54676 0.0
H1974 H 0.17004 0.83821 0.64124 0.0
H1975 H 0.19312 0.89802 0.64623 0.0
H1976 H 0.19434 0.89851 0.55276 0.0
H1977 H 0.16621 0.89475 0.70917 0.0
H1978 H 0.21188 0.8575 0.66938 0.0
H1979 H 0.22588 0.82826 0.62986 0.0
H1980 H 0.20075 0.78245 0.7143 0.0
H1981 H 0.18645 0.81145 0.75379 0.0
C1982 C 0.19571 0.90545 0.92995 0.0
C1983 C 0.19608 0.89017 0.96934 0.0
C1984 C 0.19124 0.9 0.88067 0.0
C1985 C 0.18658 0.87924 0.8693 0.0
C1986 C 0.18649 0.86397 0.90885 0.0
C1987 C 0.19113 0.86943 0.95859 0.0
C1988 C 0.18271 0.87369 0.81527 0.0
C1989 C 0.19004 0.85678 0.79107 0.0
C1990 C 0.17345 0.88691 0.78555 0.0
C1991 C 0.16423 0.90367 0.80941 0.0
C1992 C 0.15519 0.89878 0.85133 0.0
C1993 C 0.14666 0.91463 0.87412 0.0
C1994 C 0.14703 0.93543 0.85522 0.0
C1995 C 0.15591 0.94042 0.81341 0.0
C1996 C 0.16446 0.92464 0.79048 0.0
C1997 C 0.17579 0.85184 0.5682 0.0
C1998 C 0.1827 0.86874 0.5425 0.0
C1999 C 0.17531 0.85142 0.62202 0.0
C2000 C 0.18149 0.8681 0.65068 0.0
C2001 C 0.18825 0.88503 0.62488 0.0
C2002 C 0.18898 0.88524 0.57145 0.0
C2003 C 0.18108 0.8683 0.70761 0.0
C2004 C 0.17294 0.88423 0.73212 0.0
C2005 C 0.18935 0.85396 0.7376 0.0
C2006 C 0.19797 0.8366 0.71396 0.0
C2007 C 0.20924 0.84118 0.6791 0.0
C2008 C 0.21725 0.82466 0.65681 0.0
C2009 C 0.21417 0.8035 0.66941 0.0
C2010 C 0.2031 0.79884 0.70447 0.0
C2011 C 0.19504 0.81531 0.72683 0.0
H2012 H 0.22039 0.79073 0.65213 0.0
H2013 H 0.14043 0.94767 0.87295 0.0
H2014 H 0.77934 0.12494 0.93434 0.0
H2015 H 0.78559 0.13209 0.84521 0.0
H2016 H 0.83135 0.12865 0.88231 0.0
H2017 H 0.82521 0.12026 0.97165 0.0
H2018 H 0.8205 0.16423 0.8082 0.0
H2019 H 0.82221 0.08912 0.83599 0.0
H2020 H 0.8143 0.05337 0.86317 0.0
H2021 H 0.77677 0.05769 0.76523 0.0
H2022 H 0.78419 0.09378 0.7387 0.0
H2023 H 0.83885 0.1496 0.53885 0.0
H2024 H 0.83834 0.1484 0.63303 0.0
H2025 H 0.79246 0.13302 0.62849 0.0
H2026 H 0.79295 0.13403 0.53508 0.0
H2027 H 0.80721 0.10596 0.6885 0.0
H2028 H 0.80467 0.18225 0.66563 0.0
H2029 H 0.81334 0.2171 0.63454 0.0
H2030 H 0.85307 0.20971 0.71997 0.0
H2031 H 0.84471 0.17465 0.75105 0.0
C2032 C 0.79077 0.12583 0.92385 0.0
C2033 C 0.80177 0.12161 0.9602 0.0
C2034 C 0.7943 0.13001 0.87285 0.0
C2035 C 0.80891 0.1306 0.8571 0.0
C2036 C 0.81999 0.12818 0.8938 0.0
C2037 C 0.81646 0.12356 0.94494 0.0
C2038 C 0.81232 0.13221 0.80167 0.0
C2039 C 0.81784 0.15139 0.782 0.0
C2040 C 0.80867 0.11551 0.76755 0.0
C2041 C 0.80367 0.09433 0.78587 0.0
C2042 C 0.81211 0.08266 0.82103 0.0
C2043 C 0.80776 0.06226 0.8361 0.0
C2044 C 0.79508 0.05322 0.81577 0.0
C2045 C 0.78664 0.06466 0.78074 0.0
C2046 C 0.79087 0.08514 0.7659 0.0
C2047 C 0.82864 0.14624 0.55814 0.0
C2048 C 0.81594 0.1419 0.52973 0.0
C2049 C 0.82835 0.14559 0.61188 0.0
C2050 C 0.81535 0.14065 0.6379 0.0
C2051 C 0.80262 0.13681 0.60935 0.0
C2052 C 0.80291 0.13746 0.55592 0.0
C2053 C 0.81495 0.13822 0.69461 0.0
C2054 C 0.80999 0.11879 0.71461 0.0
C2055 C 0.81913 0.15466 0.72879 0.0
C2056 C 0.82414 0.17572 0.71016 0.0
C2057 C 0.81531 0.18797 0.67741 0.0
C2058 C 0.82016 0.20778 0.65987 0.0
C2059 C 0.83377 0.21558 0.67513 0.0
C2060 C 0.84254 0.20362 0.7081 0.0
C2061 C 0.83775 0.18379 0.72571 0.0
H2062 H 0.83749 0.23093 0.66152 0.0
H2063 H 0.79175 0.03741 0.82738 0.0
H2064 H 0.54864 0.05592 0.12466 0.0
H2065 H 0.53288 0.02469 0.11954 0.0
H2066 H 0.51157 0.05106 0.98663 0.0
H2067 H 0.52748 0.08236 0.99105 0.0
H2068 H 0.50458 0.02013 0.12886 0.0
H2069 H 0.50121 0.01184 0.90785 0.0
H2070 H 0.51688 0.01796 0.83232 0.0
H2071 H 0.55513 0.00949 0.92526 0.0
H2072 H 0.53971 0.00347 1.00112 0.0
H2073 H 0.4467 0.94985 0.07827 0.0
H2074 H 0.46318 0.98036 0.0761 0.0
H2075 H 0.49727 0.9405 0.01427 0.0
H2076 H 0.48051 0.91005 0.01423 0.0
H2077 H 0.49906 0.97704 0.97063 0.0
H2078 H 0.49553 0.95513 0.14525 0.0
H2079 H 0.48311 0.94536 0.22569 0.0
H2080 H 0.46413 0.00776 0.23451 0.0
H2081 H 0.47629 0.01781 0.15373 0.0
C2082 C 0.54065 0.05512 0.09417 0.0
C2083 C 0.53935 0.07173 0.05827 0.0
C2084 C 0.53159 0.03723 0.09142 0.0
C2085 C 0.52107 0.0354 0.05258 0.0
C2086 C 0.51973 0.05195 0.01661 0.0
C2087 C 0.52879 0.06991 0.01936 0.0
C2088 C 0.51136 0.01635 0.05041 0.0
C2089 C 0.50335 0.01076 0.0942 0.0
C2090 C 0.51001 0.00371 1.00574 0.0
C2091 C 0.51931 0.00742 0.96017 0.0
C2092 C 0.51296 0.01131 0.91207 0.0
C2093 C 0.52181 0.01482 0.86924 0.0
C2094 C 0.53701 0.01427 0.87401 0.0
C2095 C 0.54338 0.01015 0.9216 0.0
C2096 C 0.53459 0.00676 0.96456 0.0
C2097 C 0.45771 0.94757 0.0642 0.0
C2098 C 0.46237 0.92746 0.04709 0.0
C2099 C 0.46716 0.96504 0.06309 0.0
C2100 C 0.48164 0.96272 0.04619 0.0
C2101 C 0.48619 0.94275 0.02771 0.0
C2102 C 0.47663 0.92532 0.02786 0.0
C2103 C 0.49206 0.98099 0.04892 0.0
C2104 C 0.50021 0.98646 1.00524 0.0
C2105 C 0.49395 0.99307 0.09438 0.0
C2106 C 0.48672 0.98715 0.14321 0.0
C2107 C 0.48864 0.96672 0.16419 0.0
C2108 C 0.48166 0.96114 0.20986 0.0
C2109 C 0.47281 0.97591 0.23513 0.0
C2110 C 0.47097 0.99632 0.21486 0.0
C2111 C 0.47792 1.00198 0.16916 0.0
H2112 H 0.46741 0.97155 0.27046 0.0
H2113 H 0.54384 0.01695 0.84082 0.0
H2114 H 0.72053 0.33252 0.21035 0.0
H2115 H 0.7379 0.30298 0.20002 0.0
H2116 H 0.73296 0.28715 0.35973 0.0
H2117 H 0.71541 0.31616 0.37007 0.0
H2118 H 0.76367 0.2886 0.31583 0.0
H2119 H 0.71364 0.26365 0.27798 0.0
H2120 H 0.69156 0.26513 0.22446 0.0
H2121 H 0.71655 0.2468 0.09256 0.0
H2122 H 0.73899 0.24644 0.14471 0.0
H2123 H 0.78989 0.18809 0.37023 0.0
H2124 H 0.77515 0.22008 0.36076 0.0
H2125 H 0.77019 0.20711 0.19924 0.0
H2126 H 0.78418 0.17411 0.2095 0.0
H2127 H 0.74662 0.22297 0.22829 0.0
H2128 H 0.79466 0.24618 0.24745 0.0
H2129 H 0.81959 0.24867 0.28245 0.0
H2130 H 0.80259 0.27328 0.42386 0.0
H2131 H 0.77751 0.27062 0.39003 0.0
C2132 C 0.72326 0.32285 0.24332 0.0
C2133 C 0.71655 0.32657 0.29098 0.0
C2134 C 0.73317 0.30601 0.23733 0.0
C2135 C 0.73669 0.29292 0.27913 0.0
C2136 C 0.73041 0.29712 0.32707 0.0
C2137 C 0.72032 0.31361 0.33282 0.0
C2138 C 0.74625 0.27405 0.2731 0.0
C2139 C 0.75996 0.27418 0.29696 0.0
C2140 C 0.74173 0.25572 0.24575 0.0
C2141 C 0.72807 0.25536 0.21518 0.0
C2142 C 0.71451 0.2603 0.23743 0.0
C2143 C 0.70192 0.261 0.20724 0.0
C2144 C 0.70265 0.25607 0.15512 0.0
C2145 C 0.716 0.25064 0.13294 0.0
C2146 C 0.72868 0.25033 0.16273 0.0
C2147 C 0.78558 0.19197 0.33273 0.0
C2148 C 0.78835 0.17873 0.29049 0.0
C2149 C 0.77725 0.21041 0.3272 0.0
C2150 C 0.77192 0.21653 0.2789 0.0
C2151 C 0.77426 0.20293 0.23686 0.0
C2152 C 0.78229 0.18407 0.24271 0.0
C2153 C 0.76392 0.23709 0.27297 0.0
C2154 C 0.75051 0.23736 0.24678 0.0
C2155 C 0.76909 0.25621 0.29565 0.0
C2156 C 0.78416 0.25806 0.31628 0.0
C2157 C 0.79621 0.25201 0.28614 0.0
C2158 C 0.81038 0.25346 0.30576 0.0
C2159 C 0.81266 0.2611 0.35538 0.0
C2160 C 0.80079 0.26736 0.38543 0.0
C2161 C 0.78659 0.26591 0.36602 0.0
H2162 H 0.82364 0.2622 0.37052 0.0
H2163 H 0.69289 0.25633 0.13189 0.0
H2164 H 0.29121 0.69184 0.3849 0.0
H2165 H 0.27486 0.72251 0.3784 0.0
H2166 H 0.26537 0.70627 0.22148 0.0
H2167 H 0.28141 0.67505 0.22802 0.0
H2168 H 0.27427 0.75334 0.2512 0.0
H2169 H 0.24018 0.69587 0.28465 0.0
H2170 H 0.23153 0.66439 0.33223 0.0
H2171 H 0.22973 0.70124 0.47071 0.0
H2172 H 0.2386 0.73286 0.42405 0.0
H2173 H 0.21753 0.83078 0.22581 0.0
H2174 H 0.23305 0.79914 0.21984 0.0
H2175 H 0.22967 0.79039 0.38345 0.0
H2176 H 0.21356 0.82122 0.38897 0.0
H2177 H 0.22691 0.75437 0.34326 0.0
H2178 H 0.26154 0.81071 0.31758 0.0
H2179 H 0.27196 0.84276 0.27709 0.0
H2180 H 0.27483 0.80978 0.13331 0.0
H2181 H 0.26425 0.7776 0.17282 0.0
C2182 C 0.28564 0.69474 0.34897 0.0
C2183 C 0.28762 0.68101 0.30695 0.0
C2184 C 0.27631 0.71227 0.34537 0.0
C2185 C 0.26897 0.71664 0.29946 0.0
C2186 C 0.27099 0.70315 0.25719 0.0
C2187 C 0.2801 0.68529 0.2611 0.0
C2188 C 0.25906 0.73524 0.29635 0.0
C2189 C 0.26377 0.75354 0.27047 0.0
C2190 C 0.24565 0.7356 0.32296 0.0
C2191 C 0.24019 0.71666 0.35096 0.0
C2192 C 0.23808 0.6972 0.32534 0.0
C2193 C 0.2331 0.67935 0.35212 0.0
C2194 C 0.23012 0.6808 0.40449 0.0
C2195 C 0.23206 0.70013 0.43016 0.0
C2196 C 0.23705 0.71803 0.40355 0.0
C2197 C 0.2202 0.82216 0.26048 0.0
C2198 C 0.21434 0.82849 0.30786 0.0
C2199 C 0.22913 0.8041 0.25711 0.0
C2200 C 0.23274 0.79238 0.30129 0.0
C2201 C 0.22704 0.79898 0.34869 0.0
C2202 C 0.21786 0.8167 0.35187 0.0
C2203 C 0.24209 0.77293 0.29846 0.0
C2204 C 0.23731 0.75434 0.32342 0.0
C2205 C 0.2556 0.7725 0.27187 0.0
C2206 C 0.26194 0.79183 0.24802 0.0
C2207 C 0.26428 0.81035 0.27723 0.0
C2208 C 0.27024 0.82853 0.25448 0.0
C2209 C 0.27401 0.82833 0.20262 0.0
C2210 C 0.27187 0.80993 0.17345 0.0
C2211 C 0.26591 0.79171 0.196 0.0
H2212 H 0.27862 0.84242 0.18508 0.0
H2213 H 0.22627 0.66695 0.42516 0.0
H2214 H 0.45466 0.44167 0.61469 0.0
H2215 H 0.47158 0.47151 0.60976 0.0
H2216 H 0.49234 0.44294 0.47833 0.0
H2217 H 0.47515 0.41312 0.48222 0.0
H2218 H 0.49952 0.47516 0.61992 0.0
H2219 H 0.50551 0.48194 0.39961 0.0
H2220 H 0.49113 0.47457 0.32164 0.0
H2221 H 0.45137 0.48177 0.407 0.0
H2222 H 0.46551 0.48947 0.48525 0.0
H2223 H 0.55704 0.54688 0.57507 0.0
H2224 H 0.54143 0.5154 0.56929 0.0
H2225 H 0.50704 0.55368 0.50392 0.0
H2226 H 0.52294 0.58505 0.50737 0.0
H2227 H 0.50648 0.51676 0.46029 0.0
H2228 H 0.50819 0.53984 0.63541 0.0
H2229 H 0.52013 0.55019 0.7164 0.0
H2230 H 0.53985 0.48834 0.72717 0.0
H2231 H 0.52818 0.47771 0.64585 0.0
C2232 C 0.46281 0.44163 0.58467 0.0
C2233 C 0.46347 0.42491 0.54876 0.0
C2234 C 0.47254 0.45876 0.582 0.0
C2235 C 0.48319 0.45967 0.54342 0.0
C2236 C 0.48407 0.44284 0.50797 0.0
C2237 C 0.47426 0.42572 0.5104 0.0
C2238 C 0.49333 0.47826 0.54067 0.0
C2239 C 0.50106 0.48418 0.5849 0.0
C2240 C 0.49519 0.49038 0.49536 0.0
C2241 C 0.48659 0.48603 0.44837 0.0
C2242 C 0.4937 0.48202 0.40167 0.0
C2243 C 0.48559 0.47777 0.35744 0.0
C2244 C 0.47035 0.47762 0.35941 0.0
C2245 C 0.46318 0.48181 0.40556 0.0
C2246 C 0.47124 0.48609 0.44987 0.0
C2247 C 0.54617 0.54856 0.55918 0.0
C2248 C 0.54113 0.5685 0.5423 0.0
C2249 C 0.53723 0.53055 0.55604 0.0
C2250 C 0.52287 0.53218 0.53741 0.0
C2251 C 0.51803 0.55196 0.51868 0.0
C2252 C 0.52711 0.56991 0.5208 0.0
C2253 C 0.51274 0.51356 0.53947 0.0
C2254 C 0.50501 0.50764 0.49517 0.0
C2255 C 0.51052 0.5018 0.58517 0.0
C2256 C 0.51741 0.50805 0.63437 0.0
C2257 C 0.51513 0.52848 0.65494 0.0
C2258 C 0.52185 0.5344 0.7009 0.0
C2259 C 0.53077 0.51994 0.72686 0.0
C2260 C 0.53295 0.49952 0.70699 0.0
C2261 C 0.52628 0.49354 0.661 0.0
H2262 H 0.53597 0.52456 0.76242 0.0
H2263 H 0.46409 0.47431 0.32514 0.0
H2264 H 0.78326 0.68445 0.88279 0.0
H2265 H 0.76682 0.71503 0.87611 0.0
H2266 H 0.76093 0.70245 0.71512 0.0
H2267 H 0.77709 0.6714 0.72168 0.0
H2268 H 0.76897 0.74709 0.74578 0.0
H2269 H 0.73397 0.69163 0.77947 0.0
H2270 H 0.72394 0.66093 0.82662 0.0
H2271 H 0.72107 0.69877 0.96329 0.0
H2272 H 0.7313 0.72963 0.91712 0.0
H2273 H 0.71426 0.8276 0.7166 0.0
H2274 H 0.72883 0.79496 0.71169 0.0
H2275 H 0.72549 0.78762 0.87568 0.0
H2276 H 0.71042 0.81955 0.88031 0.0
H2277 H 0.72141 0.75138 0.83594 0.0
H2278 H 0.75765 0.80562 0.80908 0.0
H2279 H 0.76902 0.83669 0.76733 0.0
H2280 H 0.77126 0.80235 0.62524 0.0
H2281 H 0.7597 0.77116 0.66599 0.0
C2282 C 0.77838 0.68805 0.84602 0.0
C2283 C 0.78148 0.67547 0.80277 0.0
C2284 C 0.76898 0.70553 0.8423 0.0
C2285 C 0.76268 0.711 0.79512 0.0
C2286 C 0.76569 0.69847 0.75186 0.0
C2287 C 0.77486 0.68069 0.75577 0.0
C2288 C 0.75322 0.73012 0.79119 0.0
C2289 C 0.75844 0.74799 0.7647 0.0
C2290 C 0.73971 0.73139 0.81713 0.0
C2291 C 0.73353 0.71288 0.84495 0.0
C2292 C 0.73133 0.69335 0.8197 0.0
C2293 C 0.72558 0.67593 0.84622 0.0
C2294 C 0.7219 0.67788 0.89795 0.0
C2295 C 0.72394 0.69728 0.92323 0.0
C2296 C 0.7297 0.71474 0.89689 0.0
C2297 C 0.71676 0.81909 0.75161 0.0
C2298 C 0.71123 0.82619 0.79886 0.0
C2299 C 0.72513 0.80044 0.74881 0.0
C2300 C 0.72846 0.78881 0.7934 0.0
C2301 C 0.72307 0.79613 0.84063 0.0
C2302 C 0.71449 0.81449 0.84329 0.0
C2303 C 0.73723 0.76877 0.79126 0.0
C2304 C 0.73188 0.75062 0.81662 0.0
C2305 C 0.75077 0.76739 0.76506 0.0
C2306 C 0.75765 0.78616 0.74043 0.0
C2307 C 0.76045 0.80476 0.76882 0.0
C2308 C 0.76695 0.82238 0.74535 0.0
C2309 C 0.77081 0.82152 0.69362 0.0
C2310 C 0.76822 0.80301 0.66527 0.0
C2311 C 0.7617 0.78536 0.68854 0.0
H2312 H 0.77585 0.83517 0.67553 0.0
H2313 H 0.71745 0.66438 0.91842 0.0
H2314 H 0.30225 0.20078 0.83684 0.0
H2315 H 0.28525 0.23052 0.83235 0.0
H2316 H 0.25423 0.19096 0.75218 0.0
H2317 H 0.2715 0.16111 0.75515 0.0
H2318 H 0.25372 0.22982 0.71309 0.0
H2319 H 0.25073 0.20096 0.88156 0.0
H2320 H 0.26001 0.18799 0.96454 0.0
H2321 H 0.27766 0.24987 0.99733 0.0
H2322 H 0.26866 0.26314 0.91419 0.0
H2323 H 0.19906 0.30353 0.86132 0.0
H2324 H 0.21447 0.27209 0.85477 0.0
H2325 H 0.24068 0.30328 0.73987 0.0
H2326 H 0.22507 0.33488 0.74554 0.0
H2327 H 0.24187 0.26656 0.87619 0.0
H2328 H 0.25463 0.2654 0.65792 0.0
H2329 H 0.24272 0.27579 0.57691 0.0
H2330 H 0.20058 0.26911 0.64709 0.0
H2331 H 0.21221 0.25832 0.72819 0.0
C2332 C 0.29183 0.19834 0.81817 0.0
C2333 C 0.28816 0.17844 0.797 0.0
C2334 C 0.28209 0.2154 0.81568 0.0
C2335 C 0.26831 0.21291 0.79289 0.0
C2336 C 0.26477 0.19327 0.77018 0.0
C2337 C 0.27463 0.17619 0.77208 0.0
C2338 C 0.25751 0.23066 0.79454 0.0
C2339 C 0.25113 0.23786 0.74873 0.0
C2340 C 0.25379 0.24086 0.84118 0.0
C2341 C 0.25912 0.23299 0.89144 0.0
C2342 C 0.25667 0.21177 0.90632 0.0
C2343 C 0.26187 0.20436 0.9534 0.0
C2344 C 0.26945 0.21808 0.98614 0.0
C2345 C 0.2718 0.23925 0.97191 0.0
C2346 C 0.26664 0.24673 0.92484 0.0
C2347 C 0.20806 0.30377 0.83442 0.0
C2348 C 0.21082 0.32183 0.80401 0.0
C2349 C 0.2169 0.28573 0.83084 0.0
C2350 C 0.22872 0.28521 0.79672 0.0
C2351 C 0.23151 0.30316 0.76604 0.0
C2352 C 0.22261 0.32127 0.76949 0.0
C2353 C 0.23831 0.26607 0.79463 0.0
C2354 C 0.24446 0.25858 0.84046 0.0
C2355 C 0.24142 0.25524 0.74828 0.0
C2356 C 0.23432 0.26128 0.6993 0.0
C2357 C 0.24282 0.26605 0.65598 0.0
C2358 C 0.23612 0.27201 0.61005 0.0
C2359 C 0.22091 0.27318 0.60691 0.0
C2360 C 0.21236 0.26827 0.64962 0.0
C2361 C 0.21901 0.26225 0.69558 0.0
H2362 H 0.21575 0.27784 0.57135 0.0
H2363 H 0.27347 0.21231 0.02256 0.0
H2364 H 0.95625 0.94359 0.63899 0.0
H2365 H 0.97206 0.97451 0.62878 0.0
H2366 H 0.9815 0.9555 0.47333 0.0
H2367 H 0.96625 0.92379 0.48446 0.0
H2368 H 0.0049 0.96979 0.51066 0.0
H2369 H 0.9574 0.99775 0.50391 0.0
H2370 H 0.93179 0.00367 0.52894 0.0
H2371 H 0.94585 0.03263 0.66962 0.0
H2372 H 0.97158 0.02658 0.64581 0.0
H2373 H 0.02783 0.0834 0.47416 0.0
H2374 H 0.01166 0.05226 0.46759 0.0
H2375 H 0.02257 0.03452 0.62232 0.0
H2376 H 0.03897 0.06516 0.62892 0.0
H2377 H 0.98803 0.04046 0.57175 0.0
H2378 H 0.03722 0.00457 0.56972 0.0
H2379 H 0.0614 0.99881 0.53048 0.0
H2380 H 0.04116 0.98743 0.38461 0.0
H2381 H 0.01687 0.99338 0.42297 0.0
C2382 C 0.96171 0.94596 0.60262 0.0
C2383 C 0.95991 0.93132 0.56242 0.0
C2384 C 0.97068 0.96378 0.59665 0.0
C2385 C 0.97773 0.96777 0.54979 0.0
C2386 C 0.97615 0.95292 0.5098 0.0
C2387 C 0.96741 0.93479 0.51617 0.0
C2388 C 0.98686 0.98726 0.54322 0.0
C2389 C 0.00107 0.98523 0.52353 0.0
C2390 C 0.9819 0.00768 0.55878 0.0
C2391 C 0.96644 0.01157 0.57321 0.0
C2392 C 0.95504 0.00527 0.54033 0.0
C2393 C 0.9405 0.00865 0.55429 0.0
C2394 C 0.9372 0.01849 0.60088 0.0
C2395 C 0.94843 0.02501 0.63354 0.0
C2396 C 0.963 0.02162 0.61981 0.0
C2397 C 0.0268 0.07284 0.50674 0.0
C2398 C 0.03472 0.07673 0.55204 0.0
C2399 C 0.01761 0.05506 0.50284 0.0
C2400 C 0.01604 0.04108 0.54436 0.0
C2401 C 0.02374 0.04507 0.58975 0.0
C2402 C 0.03311 0.06258 0.59341 0.0
C2403 C 0.00606 0.02257 0.54137 0.0
C2404 C 0.99168 0.02493 0.55882 0.0
C2405 C 0.01065 1.00269 0.52193 0.0
C2406 C 0.02528 0.99971 0.49902 0.0
C2407 C 0.03795 1.00116 0.52915 0.0
C2408 C 0.05167 0.99775 0.5071 0.0
C2409 C 0.05281 0.9928 0.45503 0.0
C2410 C 0.04026 0.9913 0.42489 0.0
C2411 C 0.02653 0.99468 0.44676 0.0
H2412 H 0.0634 0.98998 0.43801 0.0
H2413 H 0.92593 0.0211 0.61163 0.0
H2414 H 0.97726 0.41701 0.00867 0.0
H2415 H 0.99467 0.44659 1.0047 0.0
H2416 H 0.96564 0.48512 0.09596 0.0
H2417 H 0.94843 0.45558 0.10123 0.0
H2418 H 0.99434 0.48589 0.96868 0.0
H2419 H 0.98453 0.51631 0.17609 0.0
H2420 H 0.97728 0.50185 0.2602 0.0
H2421 H 0.99343 0.44024 0.21695 0.0
H2422 H 0.00096 0.45439 0.13292 0.0
H2423 H 0.02423 0.58979 0.99978 0.0
H2424 H 0.00847 0.55832 0.99684 0.0
H2425 H 0.03707 0.5261 0.10282 0.0
H2426 H 0.0526 0.55762 0.10698 0.0
H2427 H 0.01038 0.5199 0.13081 0.0
H2428 H 0.03627 0.51497 0.97425 0.0
H2429 H 0.04585 0.52645 0.89053 0.0
H2430 H 0.00217 0.53226 0.83261 0.0
H2431 H 0.9923 0.52109 0.91628 0.0
C2432 C 0.97458 0.43179 0.02785 0.0
C2433 C 0.96153 0.43382 0.05582 0.0
C2434 C 0.98452 0.44872 0.02537 0.0
C2435 C 0.98159 0.468 0.05071 0.0
C2436 C 0.96831 0.47028 0.07704 0.0
C2437 C 0.95846 0.45334 0.07993 0.0
C2438 C 0.99251 0.48556 0.05091 0.0
C2439 C 0.99784 0.49336 1.00408 0.0
C2440 C 0.99742 0.49495 0.09717 0.0
C2441 C 0.99318 0.48639 0.14803 0.0
C2442 C 0.98659 0.49971 0.18464 0.0
C2443 C 0.98243 0.49156 0.23228 0.0
C2444 C 0.98485 0.47012 0.24384 0.0
C2445 C 0.99151 0.45682 0.20788 0.0
C2446 C 0.99572 0.46489 0.16023 0.0
C2447 C 0.02719 0.57597 0.02229 0.0
C2448 C 0.03965 0.57625 0.05373 0.0
C2449 C 0.01819 0.55794 0.02044 0.0
C2450 C 0.02161 0.53973 0.04936 0.0
C2451 C 0.03414 0.53996 0.08034 0.0
C2452 C 0.04304 0.558 0.08257 0.0
C2453 C 0.01197 0.52063 0.04848 0.0
C2454 C 0.00688 0.51251 0.09529 0.0
C2455 C 0.00765 0.5106 1.00224 0.0
C2456 C 0.01354 0.51732 0.95175 0.0
C2457 C 0.02869 0.51882 0.94379 0.0
C2458 C 0.03418 0.52527 0.89631 0.0
C2459 C 0.02462 0.53012 0.85629 0.0
C2460 C 0.00956 0.5285 0.86366 0.0
C2461 C 0.00401 0.5221 0.91111 0.0
H2462 H 0.02889 0.5351 0.81955 0.0
H2463 H 0.98159 0.46384 0.2807 0.0
H2464 H 0.60117 0.07064 0.98081 0.0
H2465 H 0.61459 0.03845 0.95638 0.0
H2466 H 0.57786 0.0175 0.86608 0.0
H2467 H 0.56434 0.0494 0.89068 0.0
H2468 H 0.58887 0.98495 0.92042 0.0
H2469 H 0.60708 0.03854 0.80748 0.0
H2470 H 0.61784 0.07316 0.7838 0.0
H2471 H 0.65643 0.05828 0.87003 0.0
H2472 H 0.64582 0.02364 0.8947 0.0
H2473 H 0.64932 0.93021 0.75041 0.0
H2474 H 0.63336 0.95996 0.77241 0.0
H2475 H 0.62824 0.93474 0.92506 0.0
H2476 H 0.64385 0.90456 0.90273 0.0
H2477 H 0.63731 0.99036 0.83655 0.0
H2478 H 0.5963 0.95153 0.97775 0.0
H2479 H 0.58409 0.91699 0.99153 0.0
H2480 H 0.58856 0.90215 0.83172 0.0
H2481 H 0.60063 0.93671 0.81687 0.0
C2482 C 0.59594 0.05916 0.95585 0.0
C2483 C 0.58169 0.06264 0.93765 0.0
C2484 C 0.60363 0.04078 0.94181 0.0
C2485 C 0.59726 0.02558 0.90917 0.0
C2486 C 0.58299 0.02893 0.89145 0.0
C2487 C 0.57529 0.04726 0.90544 0.0
C2488 C 0.6055 0.00631 0.89285 0.0
C2489 C 0.59949 0.98611 0.90222 0.0
C2490 C 0.61918 0.00779 0.86801 0.0
C2491 C 0.6256 0.02861 0.85339 0.0
C2492 C 0.61781 0.04273 0.82175 0.0
C2493 C 0.62389 0.06234 0.80807 0.0
C2494 C 0.63779 0.06795 0.82554 0.0
C2495 C 0.64566 0.05393 0.85661 0.0
C2496 C 0.63962 0.0343 0.8704 0.0
C2497 C 0.6446 0.93079 0.78842 0.0
C2498 C 0.64784 0.91495 0.82473 0.0
C2499 C 0.63553 0.9479 0.80107 0.0
C2500 C 0.62953 0.94968 0.8504 0.0
C2501 C 0.6325 0.93362 0.88646 0.0
C2502 C 0.64145 0.91634 0.87363 0.0
C2503 C 0.62079 0.96884 0.86457 0.0
C2504 C 0.62672 0.9891 0.85491 0.0
C2505 C 0.60686 0.96738 0.88794 0.0
C2506 C 0.59951 0.94662 0.89635 0.0
C2507 C 0.59464 0.94092 0.94553 0.0
C2508 C 0.58774 0.92134 0.95353 0.0
C2509 C 0.58559 0.90735 0.91256 0.0
C2510 C 0.59029 0.91296 0.86346 0.0
C2511 C 0.59717 0.93253 0.85525 0.0
H2512 H 0.58026 0.89219 0.91884 0.0
H2513 H 0.64248 0.08314 0.81491 0.0
H2514 H 0.43514 0.96298 0.94972 0.0
H2515 H 0.42028 0.99436 0.93013 0.0
H2516 H 0.38183 0.9549 0.92225 0.0
H2517 H 0.3966 0.92343 0.94293 0.0
H2518 H 0.38722 0.98349 0.83449 0.0
H2519 H 0.38413 0.98432 0.01941 0.0
H2520 H 0.39454 0.98417 0.1065 0.0
H2521 H 0.41767 0.04211 0.07414 0.0
H2522 H 0.40755 0.04244 0.98653 0.0
H2523 H 0.33313 0.06173 0.80808 0.0
H2524 H 0.348 0.03159 0.83448 0.0
H2525 H 0.3814 0.07463 0.88848 0.0
H2526 H 0.36604 0.10507 0.86447 0.0
H2527 H 0.37946 0.04431 0.95282 0.0
H2528 H 0.38403 0.04491 0.77123 0.0
H2529 H 0.37589 0.04583 0.68122 0.0
H2530 H 0.35308 0.98672 0.70209 0.0
H2531 H 0.36093 0.98559 0.79245 0.0
C2532 C 0.4235 0.961 0.94418 0.0
C2533 C 0.41703 0.94073 0.94773 0.0
C2534 C 0.41503 0.97895 0.93313 0.0
C2535 C 0.39997 0.97694 0.92473 0.0
C2536 C 0.39344 0.95676 0.92862 0.0
C2537 C 0.40187 0.93884 0.94064 0.0
C2538 C 0.39115 0.99581 0.9101 0.0
C2539 C 0.38531 0.99668 0.86051 0.0
C2540 C 0.38924 0.01335 0.94341 0.0
C2541 C 0.3952 0.01329 0.99624 0.0
C2542 C 0.39153 0.99693 0.03071 0.0
C2543 C 0.39736 0.99683 0.0802 0.0
C2544 C 0.40679 0.01309 0.0958 0.0
C2545 C 0.41038 0.02951 0.06198 0.0
C2546 C 0.40458 0.02968 0.01242 0.0
C2547 C 0.34371 0.06483 0.82512 0.0
C2548 C 0.34852 0.08582 0.83347 0.0
C2549 C 0.35225 0.04752 0.84012 0.0
C2550 C 0.36606 0.05068 0.86237 0.0
C2551 C 0.37084 0.07168 0.87116 0.0
C2552 C 0.3621 0.08908 0.8572 0.0
C2553 C 0.3753 0.03205 0.87698 0.0
C2554 C 0.38131 0.0312 0.92653 0.0
C2555 C 0.37768 0.01469 0.84314 0.0
C2556 C 0.37296 0.01527 0.78876 0.0
C2557 C 0.37719 0.03218 0.75673 0.0
C2558 C 0.37264 0.03273 0.70563 0.0
C2559 C 0.36394 0.01637 0.68599 0.0
C2560 C 0.35981 0.99939 0.71738 0.0
C2561 C 0.36431 0.99878 0.76852 0.0
H2562 H 0.36043 0.01682 0.64642 0.0
H2563 H 0.4113 0.01297 0.13413 0.0
H2564 H 0.64957 0.31832 0.25837 0.0
H2565 H 0.63533 0.28551 0.2474 0.0
H2566 H 0.6667 0.26276 0.13726 0.0
H2567 H 0.68101 0.29522 0.14827 0.0
H2568 H 0.62194 0.27062 0.16503 0.0
H2569 H 0.66939 0.20906 0.14271 0.0
H2570 H 0.69311 0.2003 0.18217 0.0
H2571 H 0.68102 0.2346 0.31798 0.0
H2572 H 0.65721 0.2435 0.27945 0.0
H2573 H 0.59618 0.18222 0.02792 0.0
H2574 H 0.61068 0.21214 0.05905 0.0
H2575 H 0.61943 0.17815 0.19925 0.0
H2576 H 0.60514 0.14788 0.16782 0.0
H2577 H 0.64301 0.19791 0.17128 0.0
H2578 H 0.59384 0.21986 0.19691 0.0
H2579 H 0.56807 0.22741 0.17671 0.0
H2580 H 0.58132 0.27079 0.05842 0.0
H2581 H 0.60719 0.26364 0.07828 0.0
C2582 C 0.65349 0.30626 0.2321 0.0
C2583 C 0.66647 0.30939 0.20437 0.0
C2584 C 0.64535 0.28749 0.22592 0.0
C2585 C 0.65008 0.27146 0.19214 0.0
C2586 C 0.66303 0.27461 0.16452 0.0
C2587 C 0.67114 0.2933 0.17061 0.0
C2588 C 0.64106 0.2521 0.18267 0.0
C2589 C 0.62656 0.25473 0.16657 0.0
C2590 C 0.64691 0.23126 0.18587 0.0
C2591 C 0.66155 0.22705 0.20801 0.0
C2592 C 0.6718 0.21476 0.18096 0.0
C2593 C 0.68524 0.20971 0.20323 0.0
C2594 C 0.68852 0.21675 0.25269 0.0
C2595 C 0.67843 0.22908 0.27976 0.0
C2596 C 0.665 0.23425 0.25758 0.0
C2597 C 0.60129 0.18098 0.06522 0.0
C2598 C 0.59944 0.16262 0.09537 0.0
C2599 C 0.60948 0.19823 0.0832 0.0
C2600 C 0.61591 0.19767 0.13205 0.0
C2601 C 0.61453 0.17906 0.16155 0.0
C2602 C 0.60639 0.1617 0.14343 0.0
C2603 C 0.62407 0.21652 0.15198 0.0
C2604 C 0.6384 0.2138 0.16985 0.0
C2605 C 0.61794 0.23723 0.152 0.0
C2606 C 0.60243 0.24108 0.13879 0.0
C2607 C 0.59125 0.23087 0.1663 0.0
C2608 C 0.57662 0.23514 0.15503 0.0
C2609 C 0.57306 0.24949 0.11611 0.0
C2610 C 0.5841 0.25966 0.0885 0.0
C2611 C 0.59874 0.25557 0.09989 0.0
H2612 H 0.56174 0.25283 0.10743 0.0
H2613 H 0.69893 0.21283 0.26986 0.0
H2614 H 0.38738 0.85458 0.11644 0.0
H2615 H 0.3727 0.82464 0.14733 0.0
H2616 H 0.40187 0.78074 0.0718 0.0
H2617 H 0.41607 0.81052 0.03889 0.0
H2618 H 0.37633 0.76685 0.05948 0.0
H2619 H 0.4024 0.7918 0.20612 0.0
H2620 H 0.41098 0.81811 0.2695 0.0
H2621 H 0.36685 0.82892 0.31836 0.0
H2622 H 0.35797 0.8029 0.25464 0.0
H2623 H 0.35561 0.67439 0.20395 0.0
H2624 H 0.37055 0.70546 0.18069 0.0
H2625 H 0.3331 0.74629 0.19882 0.0
H2626 H 0.31803 0.71532 0.22048 0.0
H2627 H 0.36289 0.76119 0.24311 0.0
H2628 H 0.33782 0.73607 0.08929 0.0
H2629 H 0.33084 0.70809 0.02762 0.0
H2630 H 0.37604 0.69561 0.9962 0.0
H2631 H 0.38329 0.72331 0.05837 0.0
C2632 C 0.39057 0.83854 0.10607 0.0
C2633 C 0.40291 0.83497 0.07523 0.0
C2634 C 0.38225 0.82139 0.12416 0.0
C2635 C 0.38631 0.80029 0.1129 0.0
C2636 C 0.39847 0.79679 0.08119 0.0
C2637 C 0.4066 0.8139 0.06232 0.0
C2638 C 0.37795 0.78181 0.13373 0.0
C2639 C 0.3736 0.7656 0.0998 0.0
C2640 C 0.3742 0.78005 0.18635 0.0
C2641 C 0.3795 0.79554 0.22518 0.0
C2642 C 0.39451 0.79989 0.23012 0.0
C2643 C 0.39943 0.81475 0.26614 0.0
C2644 C 0.38946 0.82524 0.29783 0.0
C2645 C 0.37456 0.82082 0.29371 0.0
C2646 C 0.36957 0.806 0.25766 0.0
C2647 C 0.35063 0.69003 0.20362 0.0
C2648 C 0.33565 0.69244 0.21369 0.0
C2649 C 0.35915 0.70773 0.19035 0.0
C2650 C 0.3529 0.72814 0.1881 0.0
C2651 C 0.33812 0.73069 0.20055 0.0
C2652 C 0.32953 0.71298 0.21261 0.0
C2653 C 0.36144 0.74654 0.16879 0.0
C2654 C 0.36575 0.76262 0.20294 0.0
C2655 C 0.36544 0.74803 0.11666 0.0
C2656 C 0.36109 0.73157 0.07889 0.0
C2657 C 0.34627 0.72722 0.06959 0.0
C2658 C 0.34226 0.71144 0.03448 0.0
C2659 C 0.35299 0.70003 0.00813 0.0
C2660 C 0.36774 0.70443 0.01671 0.0
C2661 C 0.3718 0.72017 0.05186 0.0
H2662 H 0.34986 0.68782 0.98096 0.0
H2663 H 0.39329 0.83675 0.32566 0.0
H2664 H 0.6529 0.42906 0.27234 0.0
H2665 H 0.6393 0.45973 0.30406 0.0
H2666 H 0.63774 0.43156 0.45467 0.0
H2667 H 0.65068 0.40023 0.42234 0.0
H2668 H 0.61339 0.45155 0.43867 0.0
H2669 H 0.66381 0.47064 0.41813 0.0
H2670 H 0.68719 0.47494 0.3722 0.0
H2671 H 0.66677 0.51704 0.26463 0.0
H2672 H 0.6432 0.51275 0.30909 0.0
H2673 H 0.59997 0.5516 0.56473 0.0
H2674 H 0.61189 0.51864 0.53661 0.0
H2675 H 0.60683 0.53781 0.37905 0.0
H2676 H 0.5948 0.57061 0.40669 0.0
H2677 H 0.63501 0.5225 0.40332 0.0
H2678 H 0.58451 0.50257 0.42465 0.0
H2679 H 0.56162 0.49969 0.47389 0.0
H2680 H 0.58305 0.45998 0.58459 0.0
H2681 H 0.60616 0.46298 0.53652 0.0
C2682 C 0.64949 0.42924 0.31206 0.0
C2683 C 0.65307 0.41231 0.34494 0.0
C2684 C 0.6418 0.4469 0.33031 0.0
C2685 C 0.63788 0.44836 0.38225 0.0
C2686 C 0.64076 0.43097 0.41457 0.0
C2687 C 0.64818 0.41304 0.39601 0.0
C2688 C 0.63125 0.46829 0.40295 0.0
C2689 C 0.61825 0.46701 0.43147 0.0
C2690 C 0.63747 0.48861 0.39338 0.0
C2691 C 0.65169 0.49123 0.36674 0.0
C2692 C 0.66427 0.48071 0.38448 0.0
C2693 C 0.67756 0.48315 0.35877 0.0
C2694 C 0.67845 0.49621 0.31562 0.0
C2695 C 0.66606 0.5069 0.29805 0.0
C2696 C 0.65273 0.50448 0.32348 0.0
C2697 C 0.60144 0.54883 0.52411 0.0
C2698 C 0.59643 0.56372 0.48793 0.0
C2699 C 0.6082 0.52996 0.50812 0.0
C2700 C 0.61018 0.52575 0.45573 0.0
C2701 C 0.60541 0.54075 0.41965 0.0
C2702 C 0.59849 0.55946 0.43554 0.0
C2703 C 0.61715 0.50568 0.43823 0.0
C2704 C 0.63023 0.50698 0.41054 0.0
C2705 C 0.61109 0.48544 0.44902 0.0
C2706 C 0.59711 0.48318 0.47726 0.0
C2707 C 0.58438 0.49335 0.45969 0.0
C2708 C 0.57136 0.49169 0.48737 0.0
C2709 C 0.57089 0.47971 0.53241 0.0
C2710 C 0.58343 0.46929 0.54973 0.0
C2711 C 0.59649 0.47096 0.52228 0.0
H2712 H 0.56081 0.47847 0.55382 0.0
H2713 H 0.68875 0.49808 0.29583 0.0
H2714 H 0.35225 0.60116 0.42528 0.0
H2715 H 0.36601 0.56999 0.45366 0.0
H2716 H 0.35788 0.53936 0.30841 0.0
H2717 H 0.34376 0.57018 0.28043 0.0
H2718 H 0.35256 0.51259 0.38157 0.0
H2719 H 0.39227 0.55991 0.34395 0.0
H2720 H 0.40655 0.59314 0.34901 0.0
H2721 H 0.41185 0.58452 0.5111 0.0
H2722 H 0.39743 0.55136 0.50711 0.0
H2723 H 0.4037 0.42783 0.40401 0.0
H2724 H 0.3911 0.46036 0.37765 0.0
H2725 H 0.39453 0.48498 0.53141 0.0
H2726 H 0.40709 0.45241 0.55825 0.0
H2727 H 0.40229 0.51479 0.45657 0.0
H2728 H 0.3627 0.46701 0.49263 0.0
H2729 H 0.3486 0.43366 0.48622 0.0
H2730 H 0.34351 0.44313 0.32433 0.0
H2731 H 0.35775 0.47642 0.32966 0.0
C2732 C 0.35356 0.58792 0.39908 0.0
C2733 C 0.34688 0.58819 0.35054 0.0
C2734 C 0.36147 0.57008 0.41535 0.0
C2735 C 0.3631 0.55229 0.3831 0.0
C2736 C 0.35675 0.55281 0.33414 0.0
C2737 C 0.34872 0.57051 0.31809 0.0
C2738 C 0.3708 0.53275 0.40098 0.0
C2739 C 0.36353 0.5131 0.39722 0.0
C2740 C 0.38497 0.53334 0.4228 0.0
C2741 C 0.39364 0.55327 0.4253 0.0
C2742 C 0.39638 0.56519 0.38074 0.0
C2743 C 0.40452 0.584 0.3834 0.0
C2744 C 0.41007 0.59097 0.43036 0.0
C2745 C 0.40752 0.57912 0.47475 0.0
C2746 C 0.39938 0.56031 0.47231 0.0
C2747 C 0.40175 0.44012 0.43231 0.0
C2748 C 0.40635 0.43747 0.48332 0.0
C2749 C 0.39451 0.4587 0.41718 0.0
C2750 C 0.3918 0.47505 0.45264 0.0
C2751 C 0.3965 0.47255 0.50345 0.0
C2752 C 0.40361 0.45388 0.51876 0.0
C2753 C 0.38409 0.49477 0.43651 0.0
C2754 C 0.39134 0.51439 0.44078 0.0
C2755 C 0.36994 0.49416 0.41483 0.0
C2756 C 0.36143 0.4741 0.41147 0.0
C2757 C 0.35869 0.46188 0.45558 0.0
C2758 C 0.35065 0.44301 0.45216 0.0
C2759 C 0.3452 0.43625 0.40488 0.0
C2760 C 0.34776 0.44837 0.36092 0.0
C2761 C 0.3558 0.46725 0.36413 0.0
H2762 H 0.33896 0.42164 0.40232 0.0
H2763 H 0.41637 0.60553 0.43234 0.0
H2764 H 0.65336 0.81602 0.75384 0.0
H2765 H 0.6393 0.78327 0.73839 0.0
H2766 H 0.65775 0.77861 0.58693 0.0
H2767 H 0.6721 0.81088 0.6025 0.0
H2768 H 0.62503 0.77375 0.59767 0.0
H2769 H 0.6715 0.74803 0.66321 0.0
H2770 H 0.69125 0.74662 0.72734 0.0
H2771 H 0.66065 0.72624 0.84186 0.0
H2772 H 0.64067 0.72789 0.77855 0.0
H2773 H 0.60335 0.67158 0.51843 0.0
H2774 H 0.61845 0.7026 0.53811 0.0
H2775 H 0.60986 0.69416 0.69924 0.0
H2776 H 0.59504 0.66288 0.68019 0.0
H2777 H 0.6371 0.7063 0.68709 0.0
H2778 H 0.59104 0.72994 0.62788 0.0
H2779 H 0.5698 0.7329 0.57042 0.0
H2780 H 0.59715 0.75887 0.4524 0.0
H2781 H 0.61862 0.75581 0.50899 0.0
C2782 C 0.65438 0.80803 0.71723 0.0
C2783 C 0.66385 0.81598 0.67942 0.0
C2784 C 0.64638 0.78933 0.70852 0.0
C2785 C 0.64752 0.77855 0.66154 0.0
C2786 C 0.65672 0.78672 0.62341 0.0
C2787 C 0.66494 0.8051 0.63247 0.0
C2788 C 0.63926 0.75861 0.6521 0.0
C2789 C 0.62775 0.75891 0.61666 0.0
C2790 C 0.64252 0.73951 0.67836 0.0
C2791 C 0.65456 0.73832 0.71628 0.0
C2792 C 0.66895 0.74345 0.70218 0.0
C2793 C 0.6802 0.74257 0.73835 0.0
C2794 C 0.6772 0.7364 0.78868 0.0
C2795 C 0.66295 0.73105 0.80288 0.0
C2796 C 0.65167 0.73195 0.76687 0.0
C2797 C 0.6048 0.67612 0.55814 0.0
C2798 C 0.59784 0.66471 0.59759 0.0
C2799 C 0.61339 0.69396 0.56933 0.0
C2800 C 0.61508 0.70101 0.62013 0.0
C2801 C 0.60871 0.68912 0.65974 0.0
C2802 C 0.6002 0.67118 0.64865 0.0
C2803 C 0.62295 0.72123 0.63172 0.0
C2804 C 0.63434 0.72106 0.66784 0.0
C2805 C 0.61936 0.74061 0.60688 0.0
C2806 C 0.60648 0.74247 0.57259 0.0
C2807 C 0.59256 0.73614 0.58955 0.0
C2808 C 0.58047 0.73786 0.55715 0.0
C2809 C 0.58213 0.74603 0.50774 0.0
C2810 C 0.59588 0.75253 0.49068 0.0
C2811 C 0.60802 0.75082 0.52293 0.0
H2812 H 0.57276 0.74735 0.4827 0.0
H2813 H 0.68592 0.73572 0.81662 0.0
H2814 H 0.38977 0.35419 0.63997 0.0
H2815 H 0.37475 0.32386 0.66658 0.0
H2816 H 0.39092 0.2873 0.53868 0.0
H2817 H 0.40554 0.31754 0.51112 0.0
H2818 H 0.36356 0.27901 0.55019 0.0
H2819 H 0.40505 0.28162 0.66062 0.0
H2820 H 0.42226 0.29846 0.72101 0.0
H2821 H 0.38758 0.30756 0.82939 0.0
H2822 H 0.3701 0.29105 0.76933 0.0
H2823 H 0.35422 0.17883 0.72301 0.0
H2824 H 0.36835 0.21063 0.69999 0.0
H2825 H 0.32882 0.24181 0.65077 0.0
H2826 H 0.31476 0.21013 0.67262 0.0
H2827 H 0.36889 0.25167 0.72754 0.0
H2828 H 0.33508 0.27023 0.5441 0.0
H2829 H 0.32082 0.25084 0.4788 0.0
H2830 H 0.34544 0.19404 0.50879 0.0
H2831 H 0.35997 0.21316 0.57374 0.0
C2832 C 0.38995 0.33981 0.61708 0.0
C2833 C 0.39895 0.3383 0.57359 0.0
C2834 C 0.38144 0.3224 0.63257 0.0
C2835 C 0.38189 0.30311 0.60516 0.0
C2836 C 0.39039 0.30193 0.56058 0.0
C2837 C 0.3988 0.3193 0.54494 0.0
C2838 C 0.3739 0.28389 0.6234 0.0
C2839 C 0.36468 0.27314 0.58906 0.0
C2840 C 0.3757 0.27574 0.67362 0.0
C2841 C 0.38624 0.28527 0.71028 0.0
C2842 C 0.40108 0.28731 0.69723 0.0
C2843 C 0.41088 0.2968 0.73138 0.0
C2844 C 0.40601 0.30413 0.77893 0.0
C2845 C 0.39133 0.3019 0.79251 0.0
C2846 C 0.38147 0.29246 0.75844 0.0
C2847 C 0.34855 0.19253 0.70761 0.0
C2848 C 0.3334 0.19184 0.69901 0.0
C2849 C 0.35663 0.21071 0.6946 0.0
C2850 C 0.34969 0.2285 0.67282 0.0
C2851 C 0.33448 0.22815 0.66651 0.0
C2852 C 0.32644 0.21 0.67913 0.0
C2853 C 0.35832 0.24711 0.65459 0.0
C2854 C 0.3677 0.25768 0.68882 0.0
C2855 C 0.3571 0.25467 0.60363 0.0
C2856 C 0.3485 0.24309 0.5642 0.0
C2857 C 0.33748 0.25363 0.53664 0.0
C2858 C 0.32934 0.24268 0.49971 0.0
C2859 C 0.33218 0.2212 0.48982 0.0
C2860 C 0.3432 0.21065 0.51669 0.0
C2861 C 0.35138 0.22153 0.55359 0.0
H2862 H 0.32587 0.21275 0.46121 0.0
H2863 H 0.41361 0.31149 0.80531 0.0
H2864 H 0.13833 0.90109 0.38763 0.0
H2865 H 0.12316 0.93118 0.41538 0.0
H2866 H 0.14985 0.97407 0.3268 0.0
H2867 H 0.16487 0.94424 0.29835 0.0
H2868 H 0.145 0.98732 0.42987 0.0
H2869 H 0.11799 0.96198 0.28285 0.0
H2870 H 0.10483 0.93515 0.23157 0.0
H2871 H 0.07411 0.92629 0.35392 0.0
H2872 H 0.08723 0.95284 0.40628 0.0
H2873 H 0.10265 0.08232 0.43794 0.0
H2874 H 0.11776 0.05139 0.41655 0.0
H2875 H 0.0839 0.0096 0.47217 0.0
H2876 H 0.06835 0.04044 0.48961 0.0
H2877 H 0.09243 0.99464 0.38842 0.0
H2878 H 0.11806 0.01911 0.53623 0.0
H2879 H 0.13104 0.04445 0.59228 0.0
H2880 H 0.16395 0.0532 0.47712 0.0
H2881 H 0.15105 0.02815 0.42002 0.0
C2882 C 0.14086 0.9169 0.37363 0.0
C2883 C 0.15277 0.92021 0.34056 0.0
C2884 C 0.1322 0.93406 0.38955 0.0
C2885 C 0.1354 0.95485 0.37317 0.0
C2886 C 0.14721 0.95817 0.33995 0.0
C2887 C 0.15571 0.94103 0.32343 0.0
C2888 C 0.12663 0.97329 0.39112 0.0
C2889 C 0.13353 0.9891 0.42048 0.0
C2890 C 0.11158 0.97518 0.3802 0.0
C2891 C 0.10371 0.95919 0.34875 0.0
C2892 C 0.10852 0.95414 0.29905 0.0
C2893 C 0.10105 0.93902 0.26973 0.0
C2894 C 0.08867 0.92896 0.28955 0.0
C2895 C 0.08372 0.93405 0.33867 0.0
C2896 C 0.09117 0.94914 0.36817 0.0
C2897 C 0.09851 0.0665 0.44587 0.0
C2898 C 0.08434 0.06371 0.46518 0.0
C2899 C 0.10718 0.0488 0.43392 0.0
C2900 C 0.10202 0.028 0.44286 0.0
C2901 C 0.08804 0.02537 0.46407 0.0
C2902 C 0.07921 0.043 0.47439 0.0
C2903 C 0.11074 0.00895 0.4275 0.0
C2904 C 0.10386 0.99296 0.3984 0.0
C2905 C 0.12576 0.00671 0.43953 0.0
C2906 C 0.1335 0.02191 0.47363 0.0
C2907 C 0.128 0.02658 0.52266 0.0
C2908 C 0.13535 0.04087 0.55466 0.0
C2909 C 0.14828 0.05047 0.53821 0.0
C2910 C 0.15391 0.04578 0.48977 0.0
C2911 C 0.14659 0.03153 0.45758 0.0
H2912 H 0.15397 0.06152 0.56306 0.0
H2913 H 0.08289 0.91727 0.26678 0.0
H2914 H 0.89349 0.92937 0.49719 0.0
H2915 H 0.87909 0.96112 0.47563 0.0
H2916 H 0.91805 0.99243 0.42161 0.0
H2917 H 0.93241 0.96094 0.44246 0.0
H2918 H 0.87972 0.00446 0.50114 0.0
H2919 H 0.91019 0.016 0.30881 0.0
H2920 H 0.92353 0.99424 0.24549 0.0
H2921 H 0.89884 0.9391 0.28968 0.0
H2922 H 0.88522 0.96059 0.35266 0.0
H2923 H 0.85971 0.10482 0.39596 0.0
H2924 H 0.8739 0.07438 0.42681 0.0
H2925 H 0.85407 0.03443 0.31166 0.0
H2926 H 0.84023 0.06473 0.27981 0.0
H2927 H 0.88157 0.02533 0.31785 0.0
H2928 H 0.84267 0.03356 0.43902 0.0
H2929 H 0.82741 0.05389 0.49972 0.0
H2930 H 0.86487 0.06548 0.59455 0.0
H2931 H 0.88039 0.04552 0.53398 0.0
C2932 C 0.89899 0.94312 0.48124 0.0
C2933 C 0.91404 0.94249 0.47066 0.0
C2934 C 0.89076 0.96127 0.46915 0.0
C2935 C 0.89747 0.97901 0.44629 0.0
C2936 C 0.91261 0.9788 0.43844 0.0
C2937 C 0.9208 0.96073 0.45029 0.0
C2938 C 0.88861 0.9971 0.42686 0.0
C2939 C 0.88012 0.00907 0.46112 0.0
C2940 C 0.88888 0.00282 0.37442 0.0
C2941 C 0.89679 0.98988 0.33578 0.0
C2942 C 0.90756 0.99926 0.30481 0.0
C2943 C 0.91518 0.98697 0.26901 0.0
C2944 C 0.91207 0.96529 0.26368 0.0
C2945 C 0.90128 0.95587 0.29396 0.0
C2946 C 0.89362 0.9681 0.32974 0.0
C2947 C 0.8585 0.08961 0.37682 0.0
C2948 C 0.84881 0.08727 0.33537 0.0
C2949 C 0.86653 0.07216 0.3948 0.0
C2950 C 0.86489 0.05199 0.37211 0.0
C2951 C 0.85553 0.04979 0.32988 0.0
C2952 C 0.84761 0.06721 0.31167 0.0
C2953 C 0.87284 0.03307 0.39221 0.0
C2954 C 0.88117 0.02085 0.35796 0.0
C2955 C 0.87208 0.02684 0.44435 0.0
C2956 C 0.86271 0.03826 0.48168 0.0
C2957 C 0.84765 0.04055 0.47267 0.0
C2958 C 0.83897 0.05201 0.507 0.0
C2959 C 0.84518 0.06106 0.55078 0.0
C2960 C 0.86008 0.05852 0.56053 0.0
C2961 C 0.86883 0.04712 0.52623 0.0
H2962 H 0.83845 0.06998 0.57723 0.0
H2963 H 0.918 0.95579 0.23602 0.0
H2964 H 0.10467 0.17056 0.53653 0.0
H2965 H 0.12053 0.20098 0.55712 0.0
H2966 H 0.0952 0.21338 0.69305 0.0
H2967 H 0.07957 0.1829 0.67349 0.0
H2968 H 0.10091 0.25012 0.63082 0.0
H2969 H 0.12602 0.19137 0.70993 0.0
H2970 H 0.13767 0.15601 0.71187 0.0
H2971 H 0.1687 0.17628 0.59868 0.0
H2972 H 0.15708 0.2117 0.59549 0.0
H2973 H 0.14728 0.32575 0.75329 0.0
H2974 H 0.13154 0.29525 0.73371 0.0
H2975 H 0.16226 0.27414 0.61916 0.0
H2976 H 0.17815 0.30411 0.63949 0.0
H2977 H 0.15355 0.24146 0.67011 0.0
H2978 H 0.12926 0.29994 0.58991 0.0
H2979 H 0.11739 0.33505 0.58316 0.0
H2980 H 0.08472 0.31557 0.69137 0.0
H2981 H 0.09656 0.28046 0.69951 0.0
C2982 C 0.10254 0.17973 0.57088 0.0
C2983 C 0.09096 0.17418 0.60362 0.0
C2984 C 0.11161 0.19706 0.58263 0.0
C2985 C 0.10906 0.20937 0.62673 0.0
C2986 C 0.09738 0.20406 0.65894 0.0
C2987 C 0.08852 0.18654 0.64783 0.0
C2988 C 0.11855 0.22782 0.63947 0.0
C2989 C 0.1124 0.24827 0.63999 0.0
C2990 C 0.13358 0.22538 0.65019 0.0
C2991 C 0.14057 0.2041 0.65202 0.0
C2992 C 0.13524 0.18822 0.68506 0.0
C2993 C 0.14185 0.16818 0.68647 0.0
C2994 C 0.15389 0.16387 0.65529 0.0
C2995 C 0.15936 0.17963 0.62273 0.0
C2996 C 0.15276 0.19969 0.62112 0.0
C2997 C 0.15067 0.3146 0.72396 0.0
C2998 C 0.16395 0.31745 0.69785 0.0
C2999 C 0.14162 0.29721 0.71255 0.0
C3000 C 0.14557 0.28247 0.67435 0.0
C3001 C 0.15892 0.28523 0.64872 0.0
C3002 C 0.16799 0.30247 0.66033 0.0
C3003 C 0.13598 0.26402 0.66134 0.0
C3004 C 0.14209 0.24347 0.66084 0.0
C3005 C 0.12093 0.26643 0.65003 0.0
C3006 C 0.11392 0.28766 0.64583 0.0
C3007 C 0.11965 0.30322 0.61273 0.0
C3008 C 0.11291 0.32312 0.60858 0.0
C3009 C 0.10035 0.32757 0.63697 0.0
C3010 C 0.09448 0.31212 0.66953 0.0
C3011 C 0.10121 0.29223 0.67394 0.0
H3012 H 0.09513 0.34297 0.63363 0.0
H3013 H 0.15901 0.14835 0.65646 0.0
H3014 H 0.81439 0.71501 0.71542 0.0
H3015 H 0.82971 0.74607 0.69954 0.0
H3016 H 0.86793 0.70597 0.69716 0.0
H3017 H 0.85262 0.67477 0.71499 0.0
H3018 H 0.87423 0.74211 0.74335 0.0
H3019 H 0.85115 0.72399 0.5846 0.0
H3020 H 0.83055 0.71552 0.52723 0.0
H3021 H 0.81171 0.7769 0.55689 0.0
H3022 H 0.83211 0.78564 0.61496 0.0
H3023 H 0.91822 0.81322 0.59145 0.0
H3024 H 0.9035 0.78301 0.62048 0.0
H3025 H 0.86883 0.82589 0.66315 0.0
H3026 H 0.88375 0.85639 0.63558 0.0
H3027 H 0.86096 0.78883 0.59738 0.0
H3028 H 0.88504 0.80704 0.75395 0.0
H3029 H 0.90564 0.81475 0.81172 0.0
H3030 H 0.92316 0.75243 0.78437 0.0
H3031 H 0.90283 0.74447 0.72519 0.0
C3032 C 0.82607 0.71278 0.71181 0.0
C3033 C 0.83228 0.69238 0.71593 0.0
C3034 C 0.83483 0.73058 0.70247 0.0
C3035 C 0.84997 0.72837 0.69581 0.0
C3036 C 0.85628 0.7081 0.7018 0.0
C3037 C 0.84751 0.69027 0.71193 0.0
C3038 C 0.85907 0.74713 0.68142 0.0
C3039 C 0.87144 0.75213 0.71097 0.0
C3040 C 0.85532 0.76052 0.63971 0.0
C3041 C 0.84309 0.75539 0.60448 0.0
C3042 C 0.84257 0.73563 0.57913 0.0
C3043 C 0.83094 0.73079 0.54645 0.0
C3044 C 0.81982 0.74565 0.53851 0.0
C3045 C 0.82033 0.7654 0.56312 0.0
C3046 C 0.83193 0.77032 0.59587 0.0
C3047 C 0.90745 0.81624 0.60691 0.0
C3048 C 0.90206 0.83716 0.61081 0.0
C3049 C 0.8991 0.79897 0.6238 0.0
C3050 C 0.8851 0.80224 0.64399 0.0
C3051 C 0.87964 0.82308 0.64771 0.0
C3052 C 0.88814 0.84044 0.63198 0.0
C3053 C 0.87601 0.78375 0.65939 0.0
C3054 C 0.86371 0.77878 0.62976 0.0
C3055 C 0.87994 0.7703 0.7006 0.0
C3056 C 0.89248 0.77525 0.73461 0.0
C3057 C 0.8934 0.79508 0.75953 0.0
C3058 C 0.90499 0.79946 0.79271 0.0
C3059 C 0.91569 0.78406 0.80167 0.0
C3060 C 0.91487 0.76432 0.77721 0.0
C3061 C 0.90332 0.75987 0.74382 0.0
H3062 H 0.92465 0.78746 0.82745 0.0
H3063 H 0.81082 0.74186 0.51321 0.0
H3064 H 0.08275 0.5671 0.91764 0.0
H3065 H 0.09479 0.53431 0.8899 0.0
H3066 H 0.11968 0.53324 0.03012 0.0
H3067 H 0.1078 0.56613 0.05794 0.0
H3068 H 0.13695 0.52644 0.9504 0.0
H3069 H 0.09107 0.49901 0.0094 0.0
H3070 H 0.06434 0.49478 0.01443 0.0
H3071 H 0.06292 0.47737 0.85546 0.0
H3072 H 0.08962 0.48182 0.84921 0.0
H3073 H 0.14415 0.40388 0.91321 0.0
H3074 H 0.13046 0.43504 0.94259 0.0
H3075 H 0.15125 0.47347 0.82686 0.0
H3076 H 0.16507 0.44255 0.79758 0.0
H3077 H 0.11089 0.46085 0.89665 0.0
H3078 H 0.15755 0.51776 0.86226 0.0
H3079 H 0.18436 0.52071 0.87049 0.0
H3080 H 0.18344 0.47821 0.99926 0.0
H3081 H 0.1568 0.47423 0.99003 0.0
C3082 C 0.09076 0.55987 0.9427 0.0
C3083 C 0.09435 0.56932 0.98998 0.0
C3084 C 0.09757 0.54103 0.92687 0.0
C3085 C 0.10809 0.5312 0.95803 0.0
C3086 C 0.11161 0.54053 1.00538 0.0
C3087 C 0.10479 0.55933 0.02128 0.0
C3088 C 0.11588 0.51171 0.94053 0.0
C3089 C 0.13118 0.51216 0.93855 0.0
C3090 C 0.10846 0.49291 0.92544 0.0
C3091 C 0.09234 0.49091 0.92875 0.0
C3092 C 0.08504 0.49452 0.97535 0.0
C3093 C 0.0699 0.49202 0.97846 0.0
C3094 C 0.06196 0.48574 0.93532 0.0
C3095 C 0.0691 0.48218 0.88886 0.0
C3096 C 0.08424 0.48469 0.88551 0.0
C3097 C 0.14578 0.41893 0.8938 0.0
C3098 C 0.15576 0.42066 0.85303 0.0
C3099 C 0.13793 0.43675 0.9107 0.0
C3100 C 0.13996 0.4567 0.88748 0.0
C3101 C 0.14969 0.45837 0.8461 0.0
C3102 C 0.15751 0.44058 0.82911 0.0
C3103 C 0.13189 0.47575 0.90629 0.0
C3104 C 0.11657 0.47524 0.90824 0.0
C3105 C 0.13922 0.49444 0.92209 0.0
C3106 C 0.1553 0.49555 0.92514 0.0
C3107 C 0.16315 0.50882 0.89178 0.0
C3108 C 0.17832 0.51056 0.89641 0.0
C3109 C 0.18565 0.49942 0.93494 0.0
C3110 C 0.17784 0.48643 0.96867 0.0
C3111 C 0.16273 0.48428 0.96349 0.0
H3112 H 0.19737 0.501 0.93891 0.0
H3113 H 0.05027 0.48352 0.93792 0.0
H3114 H 0.83341 0.56333 0.78806 0.0
H3115 H 0.84861 0.53374 0.81683 0.0
H3116 H 0.87632 0.57748 0.89893 0.0
H3117 H 0.86087 0.60737 0.87142 0.0
H3118 H 0.88907 0.53962 0.8242 0.0
H3119 H 0.8582 0.55728 0.97317 0.0
H3120 H 0.83378 0.56495 0.00851 0.0
H3121 H 0.81835 0.50422 0.95561 0.0
H3122 H 0.84263 0.49636 0.9192 0.0
H3123 H 0.93177 0.46773 0.96222 0.0
H3124 H 0.91694 0.49838 0.93809 0.0
H3125 H 0.87871 0.45826 0.93172 0.0
H3126 H 0.89349 0.42764 0.95845 0.0
H3127 H 0.87061 0.49444 0.96614 0.0
H3128 H 0.89791 0.47405 0.82074 0.0
H3129 H 0.91939 0.46401 0.76926 0.0
H3130 H 0.93851 0.52542 0.79674 0.0
H3131 H 0.9172 0.53574 0.84896 0.0
C3132 C 0.84283 0.56679 0.8117 0.0
C3133 C 0.84593 0.58777 0.82746 0.0
C3134 C 0.85147 0.54981 0.82821 0.0
C3135 C 0.86353 0.55347 0.86002 0.0
C3136 C 0.86703 0.57441 0.87431 0.0
C3137 C 0.8582 0.59143 0.85862 0.0
C3138 C 0.87205 0.53521 0.87981 0.0
C3139 C 0.88525 0.52995 0.85591 0.0
C3140 C 0.86656 0.522 0.91914 0.0
C3141 C 0.8522 0.52629 0.94322 0.0
C3142 C 0.84958 0.54561 0.96891 0.0
C3143 C 0.83577 0.54998 0.98915 0.0
C3144 C 0.82452 0.53508 0.98429 0.0
C3145 C 0.82708 0.51573 0.95941 0.0
C3146 C 0.84087 0.5113 0.93902 0.0
C3147 C 0.92017 0.46547 0.95608 0.0
C3148 C 0.91381 0.44525 0.96175 0.0
C3149 C 0.9117 0.483 0.94193 0.0
C3150 C 0.89673 0.48063 0.93156 0.0
C3151 C 0.89023 0.46056 0.93915 0.0
C3152 C 0.89869 0.44304 0.95441 0.0
C3153 C 0.88806 0.49899 0.91164 0.0
C3154 C 0.87467 0.50417 0.93495 0.0
C3155 C 0.89313 0.51172 0.87034 0.0
C3156 C 0.90602 0.50559 0.83922 0.0
C3157 C 0.90675 0.48536 0.81616 0.0
C3158 C 0.91888 0.47963 0.78678 0.0
C3159 C 0.93033 0.49405 0.77984 0.0
C3160 C 0.92964 0.51425 0.80221 0.0
C3161 C 0.91753 0.52006 0.83167 0.0
H3162 H 0.9397 0.48959 0.75702 0.0
H3163 H 0.81382 0.53853 0.99976 0.0
H3164 H 0.18018 0.80849 0.12658 0.0
H3165 H 0.16557 0.77699 0.10687 0.0
H3166 H 0.13686 0.79151 0.23295 0.0
H3167 H 0.15142 0.82329 0.25286 0.0
H3168 H 0.14569 0.74821 0.22832 0.0
H3169 H 0.12566 0.80192 0.11624 0.0
H3170 H 0.1271 0.8299 0.05021 0.0
H3171 H 0.14507 0.78493 0.94352 0.0
H3172 H 0.14392 0.75674 0.00919 0.0
H3173 H 0.08679 0.68023 0.17575 0.0
H3174 H 0.103 0.70995 0.19306 0.0
H3175 H 0.12457 0.6998 0.0482 0.0
H3176 H 0.10783 0.67028 0.02948 0.0
H3177 H 0.12071 0.74016 0.06072 0.0
H3178 H 0.14057 0.68621 0.16812 0.0
H3179 H 0.14043 0.65759 0.23272 0.0
H3180 H 0.12479 0.70151 0.34622 0.0
H3181 H 0.12464 0.73035 0.28212 0.0
C3182 C 0.17076 0.80504 0.15021 0.0
C3183 C 0.16694 0.81846 0.19127 0.0
C3184 C 0.1624 0.78703 0.13874 0.0
C3185 C 0.15007 0.78197 0.1682 0.0
C3186 C 0.14632 0.79515 0.20968 0.0
C3187 C 0.15462 0.81334 0.22089 0.0
C3188 C 0.14114 0.7629 0.15566 0.0
C3189 C 0.14006 0.74653 0.19197 0.0
C3190 C 0.13428 0.76038 0.10744 0.0
C3191 C 0.13484 0.77727 0.06779 0.0
C3192 C 0.13003 0.79804 0.07882 0.0
C3193 C 0.13077 0.81393 0.04144 0.0
C3194 C 0.13621 0.80921 0.99274 0.0
C3195 C 0.14087 0.78857 0.98128 0.0
C3196 C 0.14017 0.77262 0.01855 0.0
C3197 C 0.09508 0.68406 0.14764 0.0
C3198 C 0.09607 0.67264 0.10133 0.0
C3199 C 0.10442 0.70111 0.15777 0.0
C3200 C 0.11528 0.70695 0.12253 0.0
C3201 C 0.11634 0.69558 0.0762 0.0
C3202 C 0.1068 0.67864 0.06559 0.0
C3203 C 0.12508 0.72538 0.13365 0.0
C3204 C 0.12637 0.74168 0.09706 0.0
C3205 C 0.13233 0.72768 0.18138 0.0
C3206 C 0.13249 0.71041 0.22017 0.0
C3207 C 0.137 0.68974 0.20677 0.0
C3208 C 0.13699 0.67348 0.24332 0.0
C3209 C 0.13257 0.67772 0.29351 0.0
C3210 C 0.1282 0.69825 0.30731 0.0
C3211 C 0.12818 0.71456 0.2709 0.0
H3212 H 0.13256 0.6651 0.32175 0.0
H3213 H 0.13679 0.82154 0.96386 0.0
H3214 H 0.85738 0.17565 0.2138 0.0
H3215 H 0.87196 0.20783 0.19844 0.0
H3216 H 0.83243 0.24427 0.17888 0.0
H3217 H 0.81792 0.21225 0.19273 0.0
H3218 H 0.85014 0.25331 0.10511 0.0
H3219 H 0.85472 0.24834 0.288 0.0
H3220 H 0.8607 0.23112 0.37023 0.0
H3221 H 0.90529 0.22387 0.32253 0.0
H3222 H 0.89952 0.24076 0.23969 0.0
H3223 H 0.89686 0.35279 0.17622 0.0
H3224 H 0.88225 0.32179 0.20125 0.0
H3225 H 0.89418 0.29005 0.06088 0.0
H3226 H 0.90866 0.32088 0.03539 0.0
H3227 H 0.88979 0.27991 0.21773 0.0
H3228 H 0.86499 0.26141 0.01893 0.0
H3229 H 0.85781 0.28042 0.94018 0.0
H3230 H 0.85108 0.33772 0.02687 0.0
H3231 H 0.85802 0.31898 0.10618 0.0
C3232 C 0.85183 0.19057 0.2066 0.0
C3233 C 0.83651 0.19135 0.20398 0.0
C3234 C 0.86016 0.20899 0.19801 0.0
C3235 C 0.85331 0.22857 0.18754 0.0
C3236 C 0.838 0.22939 0.18639 0.0
C3237 C 0.82971 0.21102 0.19437 0.0
C3238 C 0.86196 0.24807 0.1754 0.0
C3239 C 0.8588 0.25907 0.12988 0.0
C3240 C 0.87319 0.25584 0.20775 0.0
C3241 C 0.87666 0.24565 0.25748 0.0
C3242 C 0.86577 0.24292 0.29489 0.0
C3243 C 0.86913 0.23324 0.34164 0.0
C3244 C 0.88335 0.22636 0.35156 0.0
C3245 C 0.89427 0.22918 0.31479 0.0
C3246 C 0.89097 0.23882 0.26795 0.0
C3247 C 0.89628 0.33929 0.15045 0.0
C3248 C 0.90386 0.33944 0.10355 0.0
C3249 C 0.88801 0.32151 0.16504 0.0
C3250 C 0.88704 0.30364 0.13283 0.0
C3251 C 0.89463 0.30373 0.08613 0.0
C3252 C 0.90293 0.32141 0.07164 0.0
C3253 C 0.87796 0.28495 0.1475 0.0
C3254 C 0.8811 0.27408 0.19319 0.0
C3255 C 0.86653 0.27747 0.11579 0.0
C3256 C 0.86217 0.28883 0.06838 0.0
C3257 C 0.86192 0.27804 0.02119 0.0
C3258 C 0.8579 0.28878 0.97646 0.0
C3259 C 0.85404 0.31028 0.97849 0.0
C3260 C 0.85413 0.32108 0.0253 0.0
C3261 C 0.85813 0.31042 0.07015 0.0
H3262 H 0.85094 0.31856 0.94382 0.0
H3263 H 0.88593 0.21887 0.38778 0.0
loop_
_geom_bond_atom_site_label_1
_geom_bond_atom_site_label_2
_geom_bond_distance
_geom_bond_site_symmetry_2
_ccdc_geom_bond_type
O0 Tb1 2.292 . S
O0 C3 1.255 . S
Tb1 O0 2.292 . S
Tb1 O17 2.326 . S
Tb1 O19 2.500 . S
Tb1 O20 2.473 . S
Tb1 O23 2.324 . S
Eu2 O6 2.292 . S
Eu2 C7 2.852 . S
Eu2 O18 2.324 1_556 S
Eu2 O22 2.327 . S
Eu2 O24 2.500 . S
Eu2 O25 2.473 . S
C3 O0 1.255 . S
C3 O4 1.247 . S
O4 C3 1.247 . S
C5 O17 1.242 . S
C5 O18 1.258 . S
O6 Eu2 2.292 . S
O6 C8 1.255 . S
C7 Eu2 2.852 . S
C7 C11 1.503 . S
C7 O24 1.273 . S
C7 O25 1.257 . S
C8 O6 1.255 . S
C8 O9 1.247 1_556 S
O9 C8 1.247 1_554 S
C10 O22 1.238 1_554 S
C10 O23 1.258 . S
C11 C7 1.503 . S
C11 C12 1.379 . S
C11 C16 1.392 . S
C12 C11 1.379 . S
C12 C13 1.404 . S
C12 H26 0.929 . S
C13 C12 1.404 . S
C13 C14 1.389 . S
C14 C13 1.389 . S
C14 C15 1.399 . S
C14 H27 0.931 . S
C15 C14 1.399 . S
C15 C16 1.390 . S
C16 C11 1.392 . S
C16 C15 1.390 . S
C16 H28 0.929 . S
O17 Tb1 2.326 . S
O17 C5 1.242 . S
O18 Eu2 2.324 1_554 S
O18 C5 1.258 . S
O19 Tb1 2.500 . S
O19 C21 1.273 . S
O20 Tb1 2.473 . S
O20 C21 1.257 . S
C21 O19 1.273 . S
C21 O20 1.257 . S
O22 Eu2 2.327 . S
O22 C10 1.238 1_556 S
O23 Tb1 2.324 . S
O23 C10 1.258 . S
O24 Eu2 2.500 . S
O24 C7 1.273 . S
O25 Eu2 2.473 . S
O25 C7 1.257 . S
H26 C12 0.929 . S
H27 C14 0.931 . S
H28 C16 0.929 . S
O29 Tb30 2.292 . S
O29 C32 1.255 . S
Tb30 O29 2.292 . S
Tb30 O46 2.326 . S
Tb30 O48 2.500 . S
Tb30 O49 2.473 . S
Tb30 O52 2.324 . S
Eu31 O35 2.292 . S
Eu31 C36 2.852 . S
Eu31 O47 2.324 1_556 S
Eu31 O51 2.327 . S
Eu31 O53 2.500 . S
Eu31 O54 2.473 . S
C32 O29 1.255 . S
C32 O33 1.247 . S
O33 C32 1.247 . S
C34 O46 1.242 . S
C34 O47 1.258 . S
O35 Eu31 2.292 . S
O35 C37 1.255 . S
C36 Eu31 2.852 . S
C36 C40 1.503 . S
C36 O53 1.273 . S
C36 O54 1.257 . S
C37 O35 1.255 . S
C37 O38 1.247 1_556 S
O38 C37 1.247 1_554 S
C39 O51 1.238 1_554 S
C39 O52 1.258 . S
C40 C36 1.503 . S
C40 C41 1.379 . S
C40 C45 1.392 . S
C41 C40 1.379 . S
C41 C42 1.404 . S
C41 H55 0.929 . S
C42 C41 1.404 . S
C42 C43 1.389 . S
C43 C42 1.389 . S
C43 C44 1.399 . S
C43 H56 0.931 . S
C44 C43 1.399 . S
C44 C45 1.390 . S
C45 C40 1.392 . S
C45 C44 1.390 . S
C45 H57 0.929 . S
O46 Tb30 2.326 . S
O46 C34 1.242 . S
O47 Eu31 2.324 1_554 S
O47 C34 1.258 . S
O48 Tb30 2.500 . S
O48 C50 1.273 . S
O49 Tb30 2.473 . S
O49 C50 1.257 . S
C50 O48 1.273 . S
C50 O49 1.257 . S
O51 Eu31 2.327 . S
O51 C39 1.238 1_556 S
O52 Tb30 2.324 . S
O52 C39 1.258 . S
O53 Eu31 2.500 . S
O53 C36 1.273 . S
O54 Eu31 2.473 . S
O54 C36 1.257 . S
H55 C41 0.929 . S
H56 C43 0.931 . S
H57 C45 0.929 . S
O58 Tb59 2.292 . S
O58 C61 1.255 . S
Tb59 O58 2.292 . S
Tb59 O75 2.326 . S
Tb59 O77 2.500 . S
Tb59 O78 2.473 . S
Tb59 O81 2.324 . S
Eu60 O64 2.292 . S
Eu60 C65 2.852 . S
Eu60 O76 2.324 . S
Eu60 O80 2.326 . S
Eu60 O82 2.500 . S
Eu60 O83 2.473 . S
C61 O58 1.255 . S
C61 O62 1.247 . S
O62 C61 1.247 . S
C63 O75 1.242 . S
C63 O76 1.258 . S
O64 Eu60 2.292 . S
O64 C66 1.255 . S
C65 Eu60 2.852 . S
C65 C69 1.503 . S
C65 O82 1.273 . S
C65 O83 1.257 . S
C66 O64 1.255 . S
C66 O67 1.247 . S
O67 C66 1.247 . S
C68 O80 1.242 . S
C68 O81 1.258 . S
C69 C65 1.503 . S
C69 C70 1.379 . S
C69 C74 1.392 . S
C70 C69 1.379 . S
C70 C71 1.404 . S
C70 H84 0.929 . S
C71 C70 1.404 . S
C71 C72 1.389 . S
C72 C71 1.389 . S
C72 C73 1.399 . S
C72 H85 0.931 . S
C73 C72 1.399 . S
C73 C74 1.390 . S
C74 C69 1.392 . S
C74 C73 1.390 . S
C74 H86 0.929 . S
O75 Tb59 2.326 . S
O75 C63 1.242 . S
O76 Eu60 2.324 . S
O76 C63 1.258 . S
O77 Tb59 2.500 . S
O77 C79 1.273 . S
O78 Tb59 2.473 . S
O78 C79 1.257 . S
C79 O77 1.273 . S
C79 O78 1.257 . S
O80 Eu60 2.326 . S
O80 C68 1.242 . S
O81 Tb59 2.324 . S
O81 C68 1.258 . S
O82 Eu60 2.500 . S
O82 C65 1.273 . S
O83 Eu60 2.473 . S
O83 C65 1.257 . S
H84 C70 0.929 . S
H85 C72 0.931 . S
H86 C74 0.929 . S
O87 Tb88 2.292 . S
O87 C90 1.255 . S
Tb88 O87 2.292 . S
Tb88 O104 2.326 . S
Tb88 O106 2.500 . S
Tb88 O107 2.473 . S
Tb88 O110 2.324 . S
Eu89 O93 2.292 . S
Eu89 C94 2.852 . S
Eu89 O105 2.324 . S
Eu89 O109 2.326 . S
Eu89 O111 2.500 . S
Eu89 O112 2.473 . S
C90 O87 1.255 . S
C90 O91 1.247 . S
O91 C90 1.247 . S
C92 O104 1.242 . S
C92 O105 1.258 . S
O93 Eu89 2.292 . S
O93 C95 1.255 . S
C94 Eu89 2.852 . S
C94 C98 1.503 . S
C94 O111 1.273 . S
C94 O112 1.257 . S
C95 O93 1.255 . S
C95 O96 1.247 . S
O96 C95 1.247 . S
C97 O109 1.242 . S
C97 O110 1.258 . S
C98 C94 1.503 . S
C98 C99 1.379 . S
C98 C103 1.392 . S
C99 C98 1.379 . S
C99 C100 1.404 . S
C99 H113 0.929 . S
C100 C99 1.404 . S
C100 C101 1.389 . S
C101 C100 1.389 . S
C101 C102 1.399 . S
C101 H114 0.931 . S
C102 C101 1.399 . S
C102 C103 1.390 . S
C103 C98 1.392 . S
C103 C102 1.390 . S
C103 H115 0.929 . S
O104 Tb88 2.326 . S
O104 C92 1.242 . S
O105 Eu89 2.324 . S
O105 C92 1.258 . S
O106 Tb88 2.500 . S
O106 C108 1.273 . S
O107 Tb88 2.473 . S
O107 C108 1.257 . S
C108 O106 1.273 . S
C108 O107 1.257 . S
O109 Eu89 2.326 . S
O109 C97 1.242 . S
O110 Tb88 2.324 . S
O110 C97 1.258 . S
O111 Eu89 2.500 . S
O111 C94 1.273 . S
O112 Eu89 2.473 . S
O112 C94 1.257 . S
H113 C99 0.929 . S
H114 C101 0.931 . S
H115 C103 0.929 . S
O116 Tb117 2.292 . S
O116 C119 1.255 . S
Tb117 O116 2.292 . S
Tb117 O133 2.326 . S
Tb117 O135 2.500 . S
Tb117 O136 2.473 . S
Tb117 O139 2.324 . S
Eu118 O122 2.292 . S
Eu118 C123 2.852 . S
Eu118 O134 2.324 . S
Eu118 O138 2.326 . S
Eu118 O140 2.500 . S
Eu118 O141 2.473 . S
C119 O116 1.255 . S
C119 O120 1.247 . S
O120 C119 1.247 . S
C121 O133 1.242 . S
C121 O134 1.258 . S
O122 Eu118 2.292 . S
O122 C124 1.255 . S
C123 Eu118 2.852 . S
C123 C127 1.503 . S
C123 O140 1.273 . S
C123 O141 1.257 . S
C124 O122 1.255 . S
C124 O125 1.247 . S
O125 C124 1.247 . S
C126 O138 1.242 . S
C126 O139 1.258 . S
C127 C123 1.503 . S
C127 C128 1.379 . S
C127 C132 1.392 . S
C128 C127 1.379 . S
C128 C129 1.404 . S
C128 H142 0.929 . S
C129 C128 1.404 . S
C129 C130 1.389 . S
C130 C129 1.389 . S
C130 C131 1.399 . S
C130 H143 0.931 . S
C131 C130 1.399 . S
C131 C132 1.390 . S
C132 C127 1.392 . S
C132 C131 1.390 . S
C132 H144 0.929 . S
O133 Tb117 2.326 . S
O133 C121 1.242 . S
O134 Eu118 2.324 . S
O134 C121 1.258 . S
O135 Tb117 2.500 . S
O135 C137 1.273 . S
O136 Tb117 2.473 . S
O136 C137 1.257 . S
C137 O135 1.273 . S
C137 O136 1.257 . S
O138 Eu118 2.326 . S
O138 C126 1.242 . S
O139 Tb117 2.324 . S
O139 C126 1.258 . S
O140 Eu118 2.500 . S
O140 C123 1.273 . S
O141 Eu118 2.473 . S
O141 C123 1.257 . S
H142 C128 0.929 . S
H143 C130 0.931 . S
H144 C132 0.929 . S
O145 Tb146 2.292 . S
O145 C148 1.255 . S
Tb146 O145 2.292 . S
Tb146 O162 2.326 . S
Tb146 O164 2.500 . S
Tb146 O165 2.473 . S
Tb146 O168 2.324 . S
Eu147 O151 2.292 . S
Eu147 C152 2.852 . S
Eu147 O163 2.324 . S
Eu147 O167 2.326 . S
Eu147 O169 2.500 . S
Eu147 O170 2.473 . S
C148 O145 1.255 . S
C148 O149 1.247 . S
O149 C148 1.247 . S
C150 O162 1.242 . S
C150 O163 1.258 . S
O151 Eu147 2.292 . S
O151 C153 1.255 . S
C152 Eu147 2.852 . S
C152 C156 1.503 . S
C152 O169 1.273 . S
C152 O170 1.257 . S
C153 O151 1.255 . S
C153 O154 1.247 . S
O154 C153 1.247 . S
C155 O167 1.242 . S
C155 O168 1.258 . S
C156 C152 1.503 . S
C156 C157 1.379 . S
C156 C161 1.392 . S
C157 C156 1.379 . S
C157 C158 1.404 . S
C157 H171 0.929 . S
C158 C157 1.404 . S
C158 C159 1.389 . S
C159 C158 1.389 . S
C159 C160 1.399 . S
C159 H172 0.931 . S
C160 C159 1.399 . S
C160 C161 1.390 . S
C161 C156 1.392 . S
C161 C160 1.390 . S
C161 H173 0.929 . S
O162 Tb146 2.326 . S
O162 C150 1.242 . S
O163 Eu147 2.324 . S
O163 C150 1.258 . S
O164 Tb146 2.500 . S
O164 C166 1.273 . S
O165 Tb146 2.473 . S
O165 C166 1.257 . S
C166 O164 1.273 . S
C166 O165 1.257 . S
O167 Eu147 2.326 . S
O167 C155 1.242 . S
O168 Tb146 2.324 . S
O168 C155 1.258 . S
O169 Eu147 2.500 . S
O169 C152 1.273 . S
O170 Eu147 2.473 . S
O170 C152 1.257 . S
H171 C157 0.929 . S
H172 C159 0.931 . S
H173 C161 0.929 . S
O174 Tb175 2.292 . S
O174 C177 1.255 . S
Tb175 O174 2.292 . S
Tb175 O191 2.326 . S
Tb175 O193 2.500 . S
Tb175 O194 2.473 . S
Tb175 O197 2.324 . S
Eu176 O180 2.292 . S
Eu176 C181 2.852 . S
Eu176 O192 2.324 . S
Eu176 O196 2.326 . S
Eu176 O198 2.500 . S
Eu176 O199 2.473 . S
C177 O174 1.255 . S
C177 O178 1.247 . S
O178 C177 1.247 . S
C179 O191 1.242 . S
C179 O192 1.258 . S
O180 Eu176 2.292 . S
O180 C182 1.255 . S
C181 Eu176 2.852 . S
C181 C185 1.503 . S
C181 O198 1.273 . S
C181 O199 1.257 . S
C182 O180 1.255 . S
C182 O183 1.247 . S
O183 C182 1.247 . S
C184 O196 1.242 . S
C184 O197 1.258 . S
C185 C181 1.503 . S
C185 C186 1.379 . S
C185 C190 1.392 . S
C186 C185 1.379 . S
C186 C187 1.404 . S
C186 H200 0.929 . S
C187 C186 1.404 . S
C187 C188 1.389 . S
C188 C187 1.389 . S
C188 C189 1.399 . S
C188 H201 0.931 . S
C189 C188 1.399 . S
C189 C190 1.390 . S
C190 C185 1.392 . S
C190 C189 1.390 . S
C190 H202 0.929 . S
O191 Tb175 2.326 . S
O191 C179 1.242 . S
O192 Eu176 2.324 . S
O192 C179 1.258 . S
O193 Tb175 2.500 . S
O193 C195 1.273 . S
O194 Tb175 2.473 . S
O194 C195 1.257 . S
C195 O193 1.273 . S
C195 O194 1.257 . S
O196 Eu176 2.326 . S
O196 C184 1.242 . S
O197 Tb175 2.324 . S
O197 C184 1.258 . S
O198 Eu176 2.500 . S
O198 C181 1.273 . S
O199 Eu176 2.473 . S
O199 C181 1.257 . S
H200 C186 0.929 . S
H201 C188 0.931 . S
H202 C190 0.929 . S
O203 Tb204 2.292 . S
O203 C206 1.255 . S
Tb204 O203 2.292 . S
Tb204 O220 2.326 . S
Tb204 O222 2.500 . S
Tb204 O223 2.473 . S
Tb204 O226 2.324 . S
Eu205 O209 2.292 . S
Eu205 C210 2.852 . S
Eu205 O221 2.324 . S
Eu205 O225 2.326 . S
Eu205 O227 2.500 . S
Eu205 O228 2.473 . S
C206 O203 1.255 . S
C206 O207 1.247 . S
O207 C206 1.247 . S
C208 O220 1.242 . S
C208 O221 1.258 . S
O209 Eu205 2.292 . S
O209 C211 1.255 . S
C210 Eu205 2.852 . S
C210 C214 1.503 . S
C210 O227 1.273 . S
C210 O228 1.257 . S
C211 O209 1.255 . S
C211 O212 1.247 . S
O212 C211 1.247 . S
C213 O225 1.242 . S
C213 O226 1.258 . S
C214 C210 1.503 . S
C214 C215 1.379 . S
C214 C219 1.392 . S
C215 C214 1.379 . S
C215 C216 1.404 . S
C215 H229 0.929 . S
C216 C215 1.404 . S
C216 C217 1.389 . S
C217 C216 1.389 . S
C217 C218 1.399 . S
C217 H230 0.931 . S
C218 C217 1.399 . S
C218 C219 1.390 . S
C219 C214 1.392 . S
C219 C218 1.390 . S
C219 H231 0.929 . S
O220 Tb204 2.326 . S
O220 C208 1.242 . S
O221 Eu205 2.324 . S
O221 C208 1.258 . S
O222 Tb204 2.500 . S
O222 C224 1.273 . S
O223 Tb204 2.473 . S
O223 C224 1.257 . S
C224 O222 1.273 . S
C224 O223 1.257 . S
O225 Eu205 2.326 . S
O225 C213 1.242 . S
O226 Tb204 2.324 . S
O226 C213 1.258 . S
O227 Eu205 2.500 . S
O227 C210 1.273 . S
O228 Eu205 2.473 . S
O228 C210 1.257 . S
H229 C215 0.929 . S
H230 C217 0.931 . S
H231 C219 0.929 . S
O232 Tb233 2.292 . S
O232 C235 1.255 . S
Tb233 O232 2.292 . S
Tb233 O249 2.326 . S
Tb233 O251 2.500 . S
Tb233 O252 2.473 . S
Tb233 O255 2.324 . S
Eu234 O238 2.292 . S
Eu234 C239 2.852 . S
Eu234 O250 2.324 . S
Eu234 O254 2.326 . S
Eu234 O256 2.500 . S
Eu234 O257 2.473 . S
C235 O232 1.255 . S
C235 O236 1.247 . S
O236 C235 1.247 . S
C237 O249 1.242 . S
C237 O250 1.258 . S
O238 Eu234 2.292 . S
O238 C240 1.255 . S
C239 Eu234 2.852 . S
C239 C243 1.503 . S
C239 O256 1.273 . S
C239 O257 1.257 . S
C240 O238 1.255 . S
C240 O241 1.247 . S
O241 C240 1.247 . S
C242 O254 1.242 . S
C242 O255 1.258 . S
C243 C239 1.503 . S
C243 C244 1.379 . S
C243 C248 1.392 . S
C244 C243 1.379 . S
C244 C245 1.404 . S
C244 H258 0.929 . S
C245 C244 1.404 . S
C245 C246 1.389 . S
C246 C245 1.389 . S
C246 C247 1.399 . S
C246 H259 0.931 . S
C247 C246 1.399 . S
C247 C248 1.390 . S
C248 C243 1.392 . S
C248 C247 1.390 . S
C248 H260 0.929 . S
O249 Tb233 2.326 . S
O249 C237 1.242 . S
O250 Eu234 2.324 . S
O250 C237 1.258 . S
O251 Tb233 2.500 . S
O251 C253 1.273 . S
O252 Tb233 2.473 . S
O252 C253 1.257 . S
C253 O251 1.273 . S
C253 O252 1.257 . S
O254 Eu234 2.326 . S
O254 C242 1.242 . S
O255 Tb233 2.324 . S
O255 C242 1.258 . S
O256 Eu234 2.500 . S
O256 C239 1.273 . S
O257 Eu234 2.473 . S
O257 C239 1.257 . S
H258 C244 0.929 . S
H259 C246 0.931 . S
H260 C248 0.929 . S
O261 Tb262 2.292 . S
O261 C264 1.255 . S
Tb262 O261 2.292 . S
Tb262 O278 2.326 . S
Tb262 O280 2.500 . S
Tb262 O281 2.473 . S
Tb262 O284 2.324 . S
Eu263 O267 2.292 . S
Eu263 C268 2.852 . S
Eu263 O279 2.324 . S
Eu263 O283 2.326 . S
Eu263 O285 2.500 . S
Eu263 O286 2.473 . S
C264 O261 1.255 . S
C264 O265 1.247 . S
O265 C264 1.247 . S
C266 O278 1.242 . S
C266 O279 1.258 . S
O267 Eu263 2.292 . S
O267 C269 1.255 . S
C268 Eu263 2.852 . S
C268 C272 1.503 . S
C268 O285 1.273 . S
C268 O286 1.257 . S
C269 O267 1.255 . S
C269 O270 1.247 . S
O270 C269 1.247 . S
C271 O283 1.242 . S
C271 O284 1.258 . S
C272 C268 1.503 . S
C272 C273 1.379 . S
C272 C277 1.392 . S
C273 C272 1.379 . S
C273 C274 1.404 . S
C273 H287 0.929 . S
C274 C273 1.404 . S
C274 C275 1.389 . S
C275 C274 1.389 . S
C275 C276 1.399 . S
C275 H288 0.931 . S
C276 C275 1.399 . S
C276 C277 1.390 . S
C277 C272 1.392 . S
C277 C276 1.390 . S
C277 H289 0.929 . S
O278 Tb262 2.326 . S
O278 C266 1.242 . S
O279 Eu263 2.324 . S
O279 C266 1.258 . S
O280 Tb262 2.500 . S
O280 C282 1.273 . S
O281 Tb262 2.473 . S
O281 C282 1.257 . S
C282 O280 1.273 . S
C282 O281 1.257 . S
O283 Eu263 2.326 . S
O283 C271 1.242 . S
O284 Tb262 2.324 . S
O284 C271 1.258 . S
O285 Eu263 2.500 . S
O285 C268 1.273 . S
O286 Eu263 2.473 . S
O286 C268 1.257 . S
H287 C273 0.929 . S
H288 C275 0.931 . S
H289 C277 0.929 . S
O290 Tb291 2.292 . S
O290 C293 1.255 . S
Tb291 O290 2.292 . S
Tb291 O307 2.326 . S
Tb291 O309 2.500 . S
Tb291 O310 2.473 . S
Tb291 O313 2.324 . S
Eu292 O296 2.292 . S
Eu292 C297 2.852 . S
Eu292 O308 2.324 . S
Eu292 O312 2.326 . S
Eu292 O314 2.500 . S
Eu292 O315 2.473 . S
C293 O290 1.255 . S
C293 O294 1.247 . S
O294 C293 1.247 . S
C295 O307 1.242 . S
C295 O308 1.258 . S
O296 Eu292 2.292 . S
O296 C298 1.255 . S
C297 Eu292 2.852 . S
C297 C301 1.503 . S
C297 O314 1.273 . S
C297 O315 1.257 . S
C298 O296 1.255 . S
C298 O299 1.247 . S
O299 C298 1.247 . S
C300 O312 1.242 . S
C300 O313 1.258 . S
C301 C297 1.503 . S
C301 C302 1.379 . S
C301 C306 1.392 . S
C302 C301 1.379 . S
C302 C303 1.404 . S
C302 H316 0.929 . S
C303 C302 1.404 . S
C303 C304 1.389 . S
C304 C303 1.389 . S
C304 C305 1.399 . S
C304 H317 0.931 . S
C305 C304 1.399 . S
C305 C306 1.390 . S
C306 C301 1.392 . S
C306 C305 1.390 . S
C306 H318 0.929 . S
O307 Tb291 2.326 . S
O307 C295 1.242 . S
O308 Eu292 2.324 . S
O308 C295 1.258 . S
O309 Tb291 2.500 . S
O309 C311 1.273 . S
O310 Tb291 2.473 . S
O310 C311 1.257 . S
C311 O309 1.273 . S
C311 O310 1.257 . S
O312 Eu292 2.326 . S
O312 C300 1.242 . S
O313 Tb291 2.324 . S
O313 C300 1.258 . S
O314 Eu292 2.500 . S
O314 C297 1.273 . S
O315 Eu292 2.473 . S
O315 C297 1.257 . S
H316 C302 0.929 . S
H317 C304 0.931 . S
H318 C306 0.929 . S
O319 Tb320 2.292 . S
O319 C322 1.255 . S
Tb320 O319 2.292 . S
Tb320 O336 2.326 . S
Tb320 O338 2.500 . S
Tb320 O339 2.473 . S
Tb320 O342 2.324 . S
Eu321 O325 2.292 . S
Eu321 C326 2.852 . S
Eu321 O337 2.324 . S
Eu321 O341 2.326 . S
Eu321 O343 2.500 . S
Eu321 O344 2.473 . S
C322 O319 1.255 . S
C322 O323 1.247 . S
O323 C322 1.247 . S
C324 O336 1.242 . S
C324 O337 1.258 . S
O325 Eu321 2.292 . S
O325 C327 1.255 . S
C326 Eu321 2.852 . S
C326 C330 1.503 . S
C326 O343 1.273 . S
C326 O344 1.257 . S
C327 O325 1.255 . S
C327 O328 1.247 . S
O328 C327 1.247 . S
C329 O341 1.242 . S
C329 O342 1.258 . S
C330 C326 1.503 . S
C330 C331 1.379 . S
C330 C335 1.392 . S
C331 C330 1.379 . S
C331 C332 1.404 . S
C331 H345 0.929 . S
C332 C331 1.404 . S
C332 C333 1.389 . S
C333 C332 1.389 . S
C333 C334 1.399 . S
C333 H346 0.931 . S
C334 C333 1.399 . S
C334 C335 1.390 . S
C335 C330 1.392 . S
C335 C334 1.390 . S
C335 H347 0.929 . S
O336 Tb320 2.326 . S
O336 C324 1.242 . S
O337 Eu321 2.324 . S
O337 C324 1.258 . S
O338 Tb320 2.500 . S
O338 C340 1.273 . S
O339 Tb320 2.473 . S
O339 C340 1.257 . S
C340 O338 1.273 . S
C340 O339 1.257 . S
O341 Eu321 2.326 . S
O341 C329 1.242 . S
O342 Tb320 2.324 . S
O342 C329 1.258 . S
O343 Eu321 2.500 . S
O343 C326 1.273 . S
O344 Eu321 2.473 . S
O344 C326 1.257 . S
H345 C331 0.929 . S
H346 C333 0.931 . S
H347 C335 0.929 . S
O348 Tb349 2.292 . S
O348 C351 1.255 . S
Tb349 O348 2.292 . S
Tb349 O365 2.326 . S
Tb349 O367 2.500 . S
Tb349 O368 2.473 . S
Tb349 O371 2.324 . S
Eu350 O354 2.292 . S
Eu350 C355 2.852 . S
Eu350 O366 2.324 1_556 S
Eu350 O370 2.327 . S
Eu350 O372 2.500 . S
Eu350 O373 2.473 . S
C351 O348 1.255 . S
C351 O352 1.247 . S
O352 C351 1.247 . S
C353 O365 1.242 . S
C353 O366 1.258 . S
O354 Eu350 2.292 . S
O354 C356 1.255 . S
C355 Eu350 2.852 . S
C355 C359 1.503 . S
C355 O372 1.273 . S
C355 O373 1.257 . S
C356 O354 1.255 . S
C356 O357 1.247 1_556 S
O357 C356 1.247 1_554 S
C358 O370 1.238 1_554 S
C358 O371 1.258 . S
C359 C355 1.503 . S
C359 C360 1.379 . S
C359 C364 1.392 . S
C360 C359 1.379 . S
C360 C361 1.404 . S
C360 H374 0.929 . S
C361 C360 1.404 . S
C361 C362 1.389 . S
C362 C361 1.389 . S
C362 C363 1.399 . S
C362 H375 0.931 . S
C363 C362 1.399 . S
C363 C364 1.390 . S
C364 C359 1.392 . S
C364 C363 1.390 . S
C364 H376 0.929 . S
O365 Tb349 2.326 . S
O365 C353 1.242 . S
O366 Eu350 2.324 1_554 S
O366 C353 1.258 . S
O367 Tb349 2.500 . S
O367 C369 1.273 . S
O368 Tb349 2.473 . S
O368 C369 1.257 . S
C369 O367 1.273 . S
C369 O368 1.257 . S
O370 Eu350 2.327 . S
O370 C358 1.238 1_556 S
O371 Tb349 2.324 . S
O371 C358 1.258 . S
O372 Eu350 2.500 . S
O372 C355 1.273 . S
O373 Eu350 2.473 . S
O373 C355 1.257 . S
H374 C360 0.929 . S
H375 C362 0.931 . S
H376 C364 0.929 . S
O377 Tb378 2.292 . S
O377 C380 1.255 . S
Tb378 O377 2.292 . S
Tb378 O394 2.326 . S
Tb378 O396 2.500 . S
Tb378 O397 2.473 . S
Tb378 O400 2.324 . S
Eu379 O383 2.292 . S
Eu379 C384 2.852 . S
Eu379 O395 2.324 1_556 S
Eu379 O399 2.327 . S
Eu379 O401 2.500 . S
Eu379 O402 2.473 . S
C380 O377 1.255 . S
C380 O381 1.247 . S
O381 C380 1.247 . S
C382 O394 1.242 . S
C382 O395 1.258 . S
O383 Eu379 2.292 . S
O383 C385 1.255 . S
C384 Eu379 2.852 . S
C384 C388 1.503 . S
C384 O401 1.273 . S
C384 O402 1.257 . S
C385 O383 1.255 . S
C385 O386 1.247 1_556 S
O386 C385 1.247 1_554 S
C387 O399 1.238 1_554 S
C387 O400 1.258 . S
C388 C384 1.503 . S
C388 C389 1.379 . S
C388 C393 1.392 . S
C389 C388 1.379 . S
C389 C390 1.404 . S
C389 H403 0.929 . S
C390 C389 1.404 . S
C390 C391 1.389 . S
C391 C390 1.389 . S
C391 C392 1.399 . S
C391 H404 0.931 . S
C392 C391 1.399 . S
C392 C393 1.390 . S
C393 C388 1.392 . S
C393 C392 1.390 . S
C393 H405 0.929 . S
O394 Tb378 2.326 . S
O394 C382 1.242 . S
O395 Eu379 2.324 1_554 S
O395 C382 1.258 . S
O396 Tb378 2.500 . S
O396 C398 1.273 . S
O397 Tb378 2.473 . S
O397 C398 1.257 . S
C398 O396 1.273 . S
C398 O397 1.257 . S
O399 Eu379 2.327 . S
O399 C387 1.238 1_556 S
O400 Tb378 2.324 . S
O400 C387 1.258 . S
O401 Eu379 2.500 . S
O401 C384 1.273 . S
O402 Eu379 2.473 . S
O402 C384 1.257 . S
H403 C389 0.929 . S
H404 C391 0.931 . S
H405 C393 0.929 . S
O406 Tb407 2.292 . S
O406 C409 1.255 . S
Tb407 O406 2.292 . S
Tb407 O423 2.326 . S
Tb407 O425 2.500 . S
Tb407 O426 2.473 . S
Tb407 O429 2.324 . S
Eu408 O412 2.292 . S
Eu408 C413 2.852 . S
Eu408 O424 2.324 . S
Eu408 O428 2.326 . S
Eu408 O430 2.500 . S
Eu408 O431 2.473 . S
C409 O406 1.255 . S
C409 O410 1.247 . S
O410 C409 1.247 . S
C411 O423 1.242 . S
C411 O424 1.258 . S
O412 Eu408 2.292 . S
O412 C414 1.255 . S
C413 Eu408 2.852 . S
C413 C417 1.503 . S
C413 O430 1.273 . S
C413 O431 1.257 . S
C414 O412 1.255 . S
C414 O415 1.247 . S
O415 C414 1.247 . S
C416 O428 1.242 . S
C416 O429 1.258 . S
C417 C413 1.503 . S
C417 C418 1.379 . S
C417 C422 1.392 . S
C418 C417 1.379 . S
C418 C419 1.404 . S
C418 H432 0.929 . S
C419 C418 1.404 . S
C419 C420 1.389 . S
C420 C419 1.389 . S
C420 C421 1.399 . S
C420 H433 0.931 . S
C421 C420 1.399 . S
C421 C422 1.390 . S
C422 C417 1.392 . S
C422 C421 1.390 . S
C422 H434 0.929 . S
O423 Tb407 2.326 . S
O423 C411 1.242 . S
O424 Eu408 2.324 . S
O424 C411 1.258 . S
O425 Tb407 2.500 . S
O425 C427 1.273 . S
O426 Tb407 2.473 . S
O426 C427 1.257 . S
C427 O425 1.273 . S
C427 O426 1.257 . S
O428 Eu408 2.326 . S
O428 C416 1.242 . S
O429 Tb407 2.324 . S
O429 C416 1.258 . S
O430 Eu408 2.500 . S
O430 C413 1.273 . S
O431 Eu408 2.473 . S
O431 C413 1.257 . S
H432 C418 0.929 . S
H433 C420 0.931 . S
H434 C422 0.929 . S
O435 Tb436 2.292 . S
O435 C438 1.255 . S
Tb436 O435 2.292 . S
Tb436 O452 2.326 . S
Tb436 O454 2.500 . S
Tb436 O455 2.473 . S
Tb436 O458 2.324 . S
Eu437 O441 2.292 . S
Eu437 C442 2.852 . S
Eu437 O453 2.324 . S
Eu437 O457 2.326 . S
Eu437 O459 2.500 . S
Eu437 O460 2.473 . S
C438 O435 1.255 . S
C438 O439 1.247 . S
O439 C438 1.247 . S
C440 O452 1.242 . S
C440 O453 1.258 . S
O441 Eu437 2.292 . S
O441 C443 1.255 . S
C442 Eu437 2.852 . S
C442 C446 1.503 . S
C442 O459 1.273 . S
C442 O460 1.257 . S
C443 O441 1.255 . S
C443 O444 1.247 . S
O444 C443 1.247 . S
C445 O457 1.242 . S
C445 O458 1.258 . S
C446 C442 1.503 . S
C446 C447 1.379 . S
C446 C451 1.392 . S
C447 C446 1.379 . S
C447 C448 1.404 . S
C447 H461 0.929 . S
C448 C447 1.404 . S
C448 C449 1.389 . S
C449 C448 1.389 . S
C449 C450 1.399 . S
C449 H462 0.931 . S
C450 C449 1.399 . S
C450 C451 1.390 . S
C451 C446 1.392 . S
C451 C450 1.390 . S
C451 H463 0.929 . S
O452 Tb436 2.326 . S
O452 C440 1.242 . S
O453 Eu437 2.324 . S
O453 C440 1.258 . S
O454 Tb436 2.500 . S
O454 C456 1.273 . S
O455 Tb436 2.473 . S
O455 C456 1.257 . S
C456 O454 1.273 . S
C456 O455 1.257 . S
O457 Eu437 2.326 . S
O457 C445 1.242 . S
O458 Tb436 2.324 . S
O458 C445 1.258 . S
O459 Eu437 2.500 . S
O459 C442 1.273 . S
O460 Eu437 2.473 . S
O460 C442 1.257 . S
H461 C447 0.929 . S
H462 C449 0.931 . S
H463 C451 0.929 . S
H464 C482 0.951 . S
H465 C484 0.951 . S
H466 C486 0.950 . S
H467 C487 0.950 . S
H468 C489 0.950 . S
H469 C492 0.950 . S
H470 C493 0.950 . S
H471 C495 0.950 . S
H472 C496 0.950 . S
H473 C497 0.951 . S
H474 C499 0.951 . S
H475 C501 0.950 . S
H476 C502 0.950 . S
H477 C504 0.950 . S
H478 C507 0.950 . S
H479 C508 0.950 . S
H480 C510 0.950 . S
H481 C511 0.950 . S
C482 H464 0.951 . S
C482 C483 1.366 . S
C482 C484 1.388 . S
C483 C482 1.366 . S
C483 C487 1.385 . S
C484 H465 0.951 . S
C484 C482 1.388 . S
C484 C485 1.366 . S
C485 C484 1.366 . S
C485 C486 1.414 . S
C485 C488 1.499 . S
C486 H466 0.950 . S
C486 C485 1.414 . S
C486 C487 1.374 . S
C487 H467 0.950 . S
C487 C483 1.385 . S
C487 C486 1.374 . S
C488 C485 1.499 . S
C488 C489 1.373 . S
C488 C490 1.389 . S
C489 H468 0.950 . S
C489 C488 1.373 . S
C489 C505 1.377 . S
C490 C488 1.389 . S
C490 C491 1.524 . S
C490 C504 1.377 . S
C491 C490 1.524 . S
C491 C492 1.397 . S
C491 C496 1.363 . S
C492 H469 0.950 . S
C492 C491 1.397 . S
C492 C493 1.334 . S
C493 H470 0.950 . S
C493 C492 1.334 . S
C493 C494 1.287 . S
C494 C493 1.287 . S
C494 C495 1.524 . S
C494 H513 0.913 . S
C495 H471 0.950 . S
C495 C494 1.524 . S
C495 C496 1.415 . S
C496 H472 0.950 . S
C496 C491 1.363 . S
C496 C495 1.415 . S
C497 H473 0.951 . S
C497 C498 1.366 . S
C497 C499 1.388 . S
C498 C497 1.366 . S
C498 C502 1.385 . S
C499 H474 0.951 . S
C499 C497 1.388 . S
C499 C500 1.366 . S
C500 C499 1.366 . S
C500 C501 1.414 . S
C500 C503 1.499 . S
C501 H475 0.950 . S
C501 C500 1.414 . S
C501 C502 1.374 . S
C502 H476 0.950 . S
C502 C498 1.385 . S
C502 C501 1.374 . S
C503 C500 1.499 . S
C503 C504 1.373 . S
C503 C505 1.389 . S
C504 H477 0.950 . S
C504 C490 1.377 . S
C504 C503 1.373 . S
C505 C489 1.377 . S
C505 C503 1.389 . S
C505 C506 1.524 . S
C506 C505 1.524 . S
C506 C507 1.397 . S
C506 C511 1.363 . S
C507 H478 0.950 . S
C507 C506 1.397 . S
C507 C508 1.334 . S
C508 H479 0.950 . S
C508 C507 1.334 . S
C508 C509 1.287 . S
C509 C508 1.287 . S
C509 C510 1.524 . S
C509 H512 0.999 . S
C510 H480 0.950 . S
C510 C509 1.524 . S
C510 C511 1.415 . S
C511 H481 0.950 . S
C511 C506 1.363 . S
C511 C510 1.415 . S
H512 C509 0.999 . S
H513 C494 0.913 . S
H514 C532 0.951 . S
H515 C534 0.951 . S
H516 C536 0.950 . S
H517 C537 0.950 . S
H518 C539 0.950 . S
H519 C542 0.950 . S
H520 C543 0.950 . S
H521 C545 0.950 . S
H522 C546 0.950 . S
H523 C547 0.951 . S
H524 C549 0.951 . S
H525 C551 0.950 . S
H526 C552 0.950 . S
H527 C554 0.950 . S
H528 C557 0.950 . S
H529 C558 0.950 . S
H530 C560 0.950 . S
H531 C561 0.950 . S
C532 H514 0.951 . S
C532 C533 1.366 . S
C532 C534 1.388 . S
C533 C532 1.366 . S
C533 C537 1.385 . S
C534 H515 0.951 . S
C534 C532 1.388 . S
C534 C535 1.366 . S
C535 C534 1.366 . S
C535 C536 1.414 . S
C535 C538 1.499 . S
C536 H516 0.950 . S
C536 C535 1.414 . S
C536 C537 1.374 . S
C537 H517 0.950 . S
C537 C533 1.385 . S
C537 C536 1.374 . S
C538 C535 1.499 . S
C538 C539 1.373 . S
C538 C540 1.389 . S
C539 H518 0.950 . S
C539 C538 1.373 . S
C539 C555 1.377 . S
C540 C538 1.389 . S
C540 C541 1.524 . S
C540 C554 1.377 . S
C541 C540 1.524 . S
C541 C542 1.397 . S
C541 C546 1.363 . S
C542 H519 0.950 . S
C542 C541 1.397 . S
C542 C543 1.334 . S
C543 H520 0.950 . S
C543 C542 1.334 . S
C543 C544 1.287 . S
C544 C543 1.287 . S
C544 C545 1.524 . S
C544 H563 0.913 . S
C545 H521 0.950 . S
C545 C544 1.524 . S
C545 C546 1.415 . S
C546 H522 0.950 . S
C546 C541 1.363 . S
C546 C545 1.415 . S
C547 H523 0.951 . S
C547 C548 1.366 . S
C547 C549 1.388 . S
C548 C547 1.366 . S
C548 C552 1.385 . S
C549 H524 0.951 . S
C549 C547 1.388 . S
C549 C550 1.366 . S
C550 C549 1.366 . S
C550 C551 1.414 . S
C550 C553 1.499 . S
C551 H525 0.950 . S
C551 C550 1.414 . S
C551 C552 1.374 . S
C552 H526 0.950 . S
C552 C548 1.385 . S
C552 C551 1.374 . S
C553 C550 1.499 . S
C553 C554 1.373 . S
C553 C555 1.389 . S
C554 H527 0.950 . S
C554 C540 1.377 . S
C554 C553 1.373 . S
C555 C539 1.377 . S
C555 C553 1.389 . S
C555 C556 1.524 . S
C556 C555 1.524 . S
C556 C557 1.397 . S
C556 C561 1.363 . S
C557 H528 0.950 . S
C557 C556 1.397 . S
C557 C558 1.334 . S
C558 H529 0.950 . S
C558 C557 1.334 . S
C558 C559 1.287 . S
C559 C558 1.287 . S
C559 C560 1.524 . S
C559 H562 0.999 . S
C560 H530 0.950 . S
C560 C559 1.524 . S
C560 C561 1.415 . S
C561 H531 0.950 . S
C561 C556 1.363 . S
C561 C560 1.415 . S
H562 C559 0.999 . S
H563 C544 0.913 . S
H564 C582 0.951 . S
H565 C584 0.951 . S
H566 C586 0.950 . S
H567 C587 0.950 . S
H568 C589 0.950 . S
H569 C592 0.950 . S
H570 C593 0.950 . S
H571 C595 0.950 . S
H572 C596 0.950 . S
H573 C597 0.951 . S
H574 C599 0.951 . S
H575 C601 0.950 . S
H576 C602 0.950 . S
H577 C604 0.950 . S
H578 C607 0.950 . S
H579 C608 0.950 . S
H580 C610 0.950 . S
H581 C611 0.950 . S
C582 H564 0.951 . S
C582 C583 1.366 . S
C582 C584 1.388 . S
C583 C582 1.366 . S
C583 C587 1.385 . S
C584 H565 0.951 . S
C584 C582 1.388 . S
C584 C585 1.366 . S
C585 C584 1.366 . S
C585 C586 1.414 . S
C585 C588 1.499 . S
C586 H566 0.950 . S
C586 C585 1.414 . S
C586 C587 1.374 . S
C587 H567 0.950 . S
C587 C583 1.385 . S
C587 C586 1.374 . S
C588 C585 1.499 . S
C588 C589 1.373 . S
C588 C590 1.389 . S
C589 H568 0.950 . S
C589 C588 1.373 . S
C589 C605 1.377 . S
C590 C588 1.389 . S
C590 C591 1.524 . S
C590 C604 1.377 . S
C591 C590 1.524 . S
C591 C592 1.397 . S
C591 C596 1.363 . S
C592 H569 0.950 . S
C592 C591 1.397 . S
C592 C593 1.334 . S
C593 H570 0.950 . S
C593 C592 1.334 . S
C593 C594 1.287 . S
C594 C593 1.287 . S
C594 C595 1.524 . S
C594 H613 0.913 . S
C595 H571 0.950 . S
C595 C594 1.524 . S
C595 C596 1.415 . S
C596 H572 0.950 . S
C596 C591 1.363 . S
C596 C595 1.415 . S
C597 H573 0.951 . S
C597 C598 1.366 . S
C597 C599 1.388 . S
C598 C597 1.366 . S
C598 C602 1.385 . S
C599 H574 0.951 . S
C599 C597 1.388 . S
C599 C600 1.366 . S
C600 C599 1.366 . S
C600 C601 1.414 . S
C600 C603 1.499 . S
C601 H575 0.950 . S
C601 C600 1.414 . S
C601 C602 1.374 . S
C602 H576 0.950 . S
C602 C598 1.385 . S
C602 C601 1.374 . S
C603 C600 1.499 . S
C603 C604 1.373 . S
C603 C605 1.389 . S
C604 H577 0.950 . S
C604 C590 1.377 . S
C604 C603 1.373 . S
C605 C589 1.377 . S
C605 C603 1.389 . S
C605 C606 1.524 . S
C606 C605 1.524 . S
C606 C607 1.397 . S
C606 C611 1.363 . S
C607 H578 0.950 . S
C607 C606 1.397 . S
C607 C608 1.334 . S
C608 H579 0.950 . S
C608 C607 1.334 . S
C608 C609 1.287 . S
C609 C608 1.287 . S
C609 C610 1.524 . S
C609 H612 0.999 . S
C610 H580 0.950 . S
C610 C609 1.524 . S
C610 C611 1.415 . S
C611 H581 0.950 . S
C611 C606 1.363 . S
C611 C610 1.415 . S
H612 C609 0.999 . S
H613 C594 0.913 . S
H614 C632 0.951 . S
H615 C634 0.951 . S
H616 C636 0.950 . S
H617 C637 0.950 . S
H618 C639 0.950 . S
H619 C642 0.950 . S
H620 C643 0.950 . S
H621 C645 0.950 . S
H622 C646 0.950 . S
H623 C647 0.951 . S
H624 C649 0.951 . S
H625 C651 0.950 . S
H626 C652 0.950 . S
H627 C654 0.950 . S
H628 C657 0.950 . S
H629 C658 0.950 . S
H630 C660 0.950 . S
H631 C661 0.950 . S
C632 H614 0.951 . S
C632 C633 1.366 . S
C632 C634 1.388 . S
C633 C632 1.366 . S
C633 C637 1.385 . S
C634 H615 0.951 . S
C634 C632 1.388 . S
C634 C635 1.366 . S
C635 C634 1.366 . S
C635 C636 1.414 . S
C635 C638 1.499 . S
C636 H616 0.950 . S
C636 C635 1.414 . S
C636 C637 1.374 . S
C637 H617 0.950 . S
C637 C633 1.385 . S
C637 C636 1.374 . S
C638 C635 1.499 . S
C638 C639 1.373 . S
C638 C640 1.389 . S
C639 H618 0.950 . S
C639 C638 1.373 . S
C639 C655 1.377 . S
C640 C638 1.389 . S
C640 C641 1.524 . S
C640 C654 1.377 . S
C641 C640 1.524 . S
C641 C642 1.397 . S
C641 C646 1.363 . S
C642 H619 0.950 . S
C642 C641 1.397 . S
C642 C643 1.334 . S
C643 H620 0.950 . S
C643 C642 1.334 . S
C643 C644 1.287 . S
C644 C643 1.287 . S
C644 C645 1.524 . S
C644 H663 0.913 . S
C645 H621 0.950 . S
C645 C644 1.524 . S
C645 C646 1.415 . S
C646 H622 0.950 . S
C646 C641 1.363 . S
C646 C645 1.415 . S
C647 H623 0.951 . S
C647 C648 1.366 . S
C647 C649 1.388 . S
C648 C647 1.366 . S
C648 C652 1.385 . S
C649 H624 0.951 . S
C649 C647 1.388 . S
C649 C650 1.366 . S
C650 C649 1.366 . S
C650 C651 1.414 . S
C650 C653 1.499 . S
C651 H625 0.950 . S
C651 C650 1.414 . S
C651 C652 1.374 . S
C652 H626 0.950 . S
C652 C648 1.385 . S
C652 C651 1.374 . S
C653 C650 1.499 . S
C653 C654 1.373 . S
C653 C655 1.389 . S
C654 H627 0.950 . S
C654 C640 1.377 . S
C654 C653 1.373 . S
C655 C639 1.377 . S
C655 C653 1.389 . S
C655 C656 1.524 . S
C656 C655 1.524 . S
C656 C657 1.397 . S
C656 C661 1.363 . S
C657 H628 0.950 . S
C657 C656 1.397 . S
C657 C658 1.334 . S
C658 H629 0.950 . S
C658 C657 1.334 . S
C658 C659 1.287 . S
C659 C658 1.287 . S
C659 C660 1.524 . S
C659 H662 0.999 . S
C660 H630 0.950 . S
C660 C659 1.524 . S
C660 C661 1.415 . S
C661 H631 0.950 . S
C661 C656 1.363 . S
C661 C660 1.415 . S
H662 C659 0.999 . S
H663 C644 0.913 . S
H664 C682 0.951 . S
H665 C684 0.951 . S
H666 C686 0.950 . S
H667 C687 0.950 . S
H668 C689 0.950 . S
H669 C692 0.950 . S
H670 C693 0.950 . S
H671 C695 0.950 . S
H672 C696 0.950 . S
H673 C697 0.951 . S
H674 C699 0.951 . S
H675 C701 0.950 . S
H676 C702 0.950 . S
H677 C704 0.950 . S
H678 C707 0.950 . S
H679 C708 0.950 . S
H680 C710 0.950 . S
H681 C711 0.950 . S
C682 H664 0.951 . S
C682 C683 1.366 . S
C682 C684 1.388 . S
C683 C682 1.366 . S
C683 C687 1.385 . S
C684 H665 0.951 . S
C684 C682 1.388 . S
C684 C685 1.366 . S
C685 C684 1.366 . S
C685 C686 1.414 . S
C685 C688 1.499 . S
C686 H666 0.950 . S
C686 C685 1.414 . S
C686 C687 1.374 . S
C687 H667 0.950 . S
C687 C683 1.385 . S
C687 C686 1.374 . S
C688 C685 1.499 . S
C688 C689 1.373 . S
C688 C690 1.389 . S
C689 H668 0.950 . S
C689 C688 1.373 . S
C689 C705 1.377 . S
C690 C688 1.389 . S
C690 C691 1.524 . S
C690 C704 1.377 . S
C691 C690 1.524 . S
C691 C692 1.397 . S
C691 C696 1.363 . S
C692 H669 0.950 . S
C692 C691 1.397 . S
C692 C693 1.334 . S
C693 H670 0.950 . S
C693 C692 1.334 . S
C693 C694 1.287 . S
C694 C693 1.287 . S
C694 C695 1.524 . S
C694 H713 0.913 . S
C695 H671 0.950 . S
C695 C694 1.524 . S
C695 C696 1.415 . S
C696 H672 0.950 . S
C696 C691 1.363 . S
C696 C695 1.415 . S
C697 H673 0.951 . S
C697 C698 1.366 . S
C697 C699 1.388 . S
C698 C697 1.366 . S
C698 C702 1.385 . S
C699 H674 0.951 . S
C699 C697 1.388 . S
C699 C700 1.366 . S
C700 C699 1.366 . S
C700 C701 1.414 . S
C700 C703 1.499 . S
C701 H675 0.950 . S
C701 C700 1.414 . S
C701 C702 1.374 . S
C702 H676 0.950 . S
C702 C698 1.385 . S
C702 C701 1.374 . S
C703 C700 1.499 . S
C703 C704 1.373 . S
C703 C705 1.389 . S
C704 H677 0.950 . S
C704 C690 1.377 . S
C704 C703 1.373 . S
C705 C689 1.377 . S
C705 C703 1.389 . S
C705 C706 1.524 . S
C706 C705 1.524 . S
C706 C707 1.397 . S
C706 C711 1.363 . S
C707 H678 0.950 . S
C707 C706 1.397 . S
C707 C708 1.334 . S
C708 H679 0.950 . S
C708 C707 1.334 . S
C708 C709 1.287 . S
C709 C708 1.287 . S
C709 C710 1.524 . S
C709 H712 0.999 . S
C710 H680 0.950 . S
C710 C709 1.524 . S
C710 C711 1.415 . S
C711 H681 0.950 . S
C711 C706 1.363 . S
C711 C710 1.415 . S
H712 C709 0.999 . S
H713 C694 0.913 . S
H714 C732 0.951 . S
H715 C734 0.951 . S
H716 C736 0.950 . S
H717 C737 0.950 . S
H718 C739 0.950 . S
H719 C742 0.950 . S
H720 C743 0.950 . S
H721 C745 0.950 . S
H722 C746 0.950 . S
H723 C747 0.951 . S
H724 C749 0.951 . S
H725 C751 0.950 . S
H726 C752 0.950 . S
H727 C754 0.950 . S
H728 C757 0.950 . S
H729 C758 0.950 . S
H730 C760 0.950 . S
H731 C761 0.950 . S
C732 H714 0.951 . S
C732 C733 1.366 . S
C732 C734 1.388 . S
C733 C732 1.366 . S
C733 C737 1.385 . S
C734 H715 0.951 . S
C734 C732 1.388 . S
C734 C735 1.366 . S
C735 C734 1.366 . S
C735 C736 1.414 . S
C735 C738 1.499 . S
C736 H716 0.950 . S
C736 C735 1.414 . S
C736 C737 1.374 . S
C737 H717 0.950 . S
C737 C733 1.385 . S
C737 C736 1.374 . S
C738 C735 1.499 . S
C738 C739 1.373 . S
C738 C740 1.389 . S
C739 H718 0.950 . S
C739 C738 1.373 . S
C739 C755 1.377 . S
C740 C738 1.389 . S
C740 C741 1.524 . S
C740 C754 1.377 . S
C741 C740 1.524 . S
C741 C742 1.397 . S
C741 C746 1.363 . S
C742 H719 0.950 . S
C742 C741 1.397 . S
C742 C743 1.334 . S
C743 H720 0.950 . S
C743 C742 1.334 . S
C743 C744 1.287 . S
C744 C743 1.287 . S
C744 C745 1.524 . S
C744 H763 0.913 . S
C745 H721 0.950 . S
C745 C744 1.524 . S
C745 C746 1.415 . S
C746 H722 0.950 . S
C746 C741 1.363 . S
C746 C745 1.415 . S
C747 H723 0.951 . S
C747 C748 1.366 . S
C747 C749 1.388 . S
C748 C747 1.366 . S
C748 C752 1.385 . S
C749 H724 0.951 . S
C749 C747 1.388 . S
C749 C750 1.366 . S
C750 C749 1.366 . S
C750 C751 1.414 . S
C750 C753 1.499 . S
C751 H725 0.950 . S
C751 C750 1.414 . S
C751 C752 1.374 . S
C752 H726 0.950 . S
C752 C748 1.385 . S
C752 C751 1.374 . S
C753 C750 1.499 . S
C753 C754 1.373 . S
C753 C755 1.389 . S
C754 H727 0.950 . S
C754 C740 1.377 . S
C754 C753 1.373 . S
C755 C739 1.377 . S
C755 C753 1.389 . S
C755 C756 1.524 . S
C756 C755 1.524 . S
C756 C757 1.397 . S
C756 C761 1.363 . S
C757 H728 0.950 . S
C757 C756 1.397 . S
C757 C758 1.334 . S
C758 H729 0.950 . S
C758 C757 1.334 . S
C758 C759 1.287 . S
C759 C758 1.287 . S
C759 C760 1.524 . S
C759 H762 0.999 . S
C760 H730 0.950 . S
C760 C759 1.524 . S
C760 C761 1.415 . S
C761 H731 0.950 . S
C761 C756 1.363 . S
C761 C760 1.415 . S
H762 C759 0.999 . S
H763 C744 0.913 . S
H764 C782 0.951 . S
H765 C784 0.951 . S
H766 C786 0.950 . S
H767 C787 0.950 . S
H768 C789 0.950 . S
H769 C792 0.950 . S
H770 C793 0.950 . S
H771 C795 0.950 . S
H772 C796 0.950 . S
H773 C797 0.951 . S
H774 C799 0.951 . S
H775 C801 0.950 . S
H776 C802 0.950 . S
H777 C804 0.950 . S
H778 C807 0.950 . S
H779 C808 0.950 . S
H780 C810 0.950 1_554 S
H781 C811 0.950 . S
C782 H764 0.951 . S
C782 C783 1.366 . S
C782 C784 1.388 . S
C783 C782 1.366 . S
C783 C787 1.385 . S
C784 H765 0.951 . S
C784 C782 1.388 . S
C784 C785 1.366 . S
C785 C784 1.366 . S
C785 C786 1.414 . S
C785 C788 1.499 . S
C786 H766 0.950 . S
C786 C785 1.414 . S
C786 C787 1.374 . S
C787 H767 0.950 . S
C787 C783 1.385 . S
C787 C786 1.374 . S
C788 C785 1.499 . S
C788 C789 1.373 1_565 S
C788 C790 1.389 . S
C789 H768 0.950 . S
C789 C788 1.373 1_545 S
C789 C805 1.377 . S
C790 C788 1.389 . S
C790 C791 1.524 . S
C790 C804 1.377 1_566 S
C791 C790 1.524 . S
C791 C792 1.397 1_556 S
C791 C796 1.363 . S
C792 H769 0.950 . S
C792 C791 1.397 1_554 S
C792 C793 1.334 . S
C793 H770 0.950 . S
C793 C792 1.334 . S
C793 C794 1.287 1_554 S
C794 C793 1.287 1_556 S
C794 C795 1.524 . S
C794 H813 0.914 . S
C795 H771 0.950 . S
C795 C794 1.524 . S
C795 C796 1.415 . S
C796 H772 0.950 . S
C796 C791 1.363 . S
C796 C795 1.415 . S
C797 H773 0.951 . S
C797 C798 1.366 . S
C797 C799 1.388 . S
C798 C797 1.366 . S
C798 C802 1.385 . S
C799 H774 0.951 . S
C799 C797 1.388 . S
C799 C800 1.366 . S
C800 C799 1.366 . S
C800 C801 1.414 . S
C800 C803 1.499 . S
C801 H775 0.950 . S
C801 C800 1.414 . S
C801 C802 1.374 . S
C802 H776 0.950 . S
C802 C798 1.385 . S
C802 C801 1.374 . S
C803 C800 1.499 . S
C803 C804 1.373 . S
C803 C805 1.389 1_554 S
C804 H777 0.950 . S
C804 C790 1.377 1_544 S
C804 C803 1.373 . S
C805 C789 1.377 . S
C805 C803 1.389 1_556 S
C805 C806 1.524 . S
C806 C805 1.524 . S
C806 C807 1.397 . S
C806 C811 1.363 1_556 S
C807 H778 0.950 . S
C807 C806 1.397 . S
C807 C808 1.334 . S
C808 H779 0.950 . S
C808 C807 1.334 . S
C808 C809 1.287 . S
C809 C808 1.287 . S
C809 C810 1.524 . S
C809 H812 0.999 . S
C810 H780 0.950 1_556 S
C810 C809 1.524 . S
C810 C811 1.415 1_556 S
C811 H781 0.950 . S
C811 C806 1.363 1_554 S
C811 C810 1.415 1_554 S
H812 C809 0.999 . S
H813 C794 0.914 . S
H814 C832 0.951 . S
H815 C834 0.951 1_556 S
H816 C836 0.950 . S
H817 C837 0.950 . S
H818 C839 0.950 . S
H819 C842 0.950 . S
H820 C843 0.950 . S
H821 C845 0.950 . S
H822 C846 0.950 . S
H823 C847 0.951 . S
H824 C849 0.951 . S
H825 C851 0.950 . S
H826 C852 0.950 . S
H827 C854 0.950 . S
H828 C857 0.950 1_556 S
H829 C858 0.950 . S
H830 C860 0.950 . S
H831 C861 0.950 . S
C832 H814 0.951 . S
C832 C833 1.366 . S
C832 C834 1.388 . S
C833 C832 1.366 . S
C833 C837 1.385 . S
C834 H815 0.951 1_554 S
C834 C832 1.388 . S
C834 C835 1.366 . S
C835 C834 1.366 . S
C835 C836 1.414 . S
C835 C838 1.499 . S
C836 H816 0.950 . S
C836 C835 1.414 . S
C836 C837 1.374 . S
C837 H817 0.950 . S
C837 C833 1.385 . S
C837 C836 1.374 . S
C838 C835 1.499 . S
C838 C839 1.373 . S
C838 C840 1.389 1_554 S
C839 H818 0.950 . S
C839 C838 1.373 . S
C839 C855 1.377 1_565 S
C840 C838 1.389 1_556 S
C840 C841 1.524 . S
C840 C854 1.377 . S
C841 C840 1.524 . S
C841 C842 1.397 . S
C841 C846 1.363 . S
C842 H819 0.950 . S
C842 C841 1.397 . S
C842 C843 1.334 . S
C843 H820 0.950 . S
C843 C842 1.334 . S
C843 C844 1.287 . S
C844 C843 1.287 . S
C844 C845 1.524 . S
C844 H863 0.913 . S
C845 H821 0.950 . S
C845 C844 1.524 . S
C845 C846 1.415 . S
C846 H822 0.950 . S
C846 C841 1.363 . S
C846 C845 1.415 . S
C847 H823 0.951 . S
C847 C848 1.366 . S
C847 C849 1.388 . S
C848 C847 1.366 . S
C848 C852 1.385 . S
C849 H824 0.951 . S
C849 C847 1.388 . S
C849 C850 1.366 . S
C850 C849 1.366 . S
C850 C851 1.414 . S
C850 C853 1.499 . S
C851 H825 0.950 . S
C851 C850 1.414 . S
C851 C852 1.374 . S
C852 H826 0.950 . S
C852 C848 1.385 . S
C852 C851 1.374 . S
C853 C850 1.499 . S
C853 C854 1.373 1_545 S
C853 C855 1.389 1_556 S
C854 H827 0.950 . S
C854 C840 1.377 . S
C854 C853 1.373 1_565 S
C855 C839 1.377 1_545 S
C855 C853 1.389 1_554 S
C855 C856 1.524 . S
C856 C855 1.524 . S
C856 C857 1.397 . S
C856 C861 1.363 . S
C857 H828 0.950 1_554 S
C857 C856 1.397 . S
C857 C858 1.334 . S
C858 H829 0.950 . S
C858 C857 1.334 . S
C858 C859 1.287 . S
C859 C858 1.287 . S
C859 C860 1.524 . S
C859 H862 0.999 . S
C860 H830 0.950 . S
C860 C859 1.524 . S
C860 C861 1.415 . S
C861 H831 0.950 . S
C861 C856 1.363 . S
C861 C860 1.415 . S
H862 C859 0.999 . S
H863 C844 0.913 . S
H864 C882 0.951 . S
H865 C884 0.951 . S
H866 C886 0.950 . S
H867 C887 0.950 . S
H868 C889 0.950 . S
H869 C892 0.950 . S
H870 C893 0.950 . S
H871 C895 0.950 . S
H872 C896 0.950 . S
H873 C897 0.951 . S
H874 C899 0.951 . S
H875 C901 0.950 . S
H876 C902 0.950 . S
H877 C904 0.950 . S
H878 C907 0.950 . S
H879 C908 0.950 . S
H880 C910 0.950 . S
H881 C911 0.950 . S
C882 H864 0.951 . S
C882 C883 1.366 . S
C882 C884 1.388 . S
C883 C882 1.366 . S
C883 C887 1.385 . S
C884 H865 0.951 . S
C884 C882 1.388 . S
C884 C885 1.366 . S
C885 C884 1.366 . S
C885 C886 1.414 . S
C885 C888 1.499 . S
C886 H866 0.950 . S
C886 C885 1.414 . S
C886 C887 1.374 . S
C887 H867 0.950 . S
C887 C883 1.385 . S
C887 C886 1.374 . S
C888 C885 1.499 . S
C888 C889 1.373 1_655 S
C888 C890 1.389 . S
C889 H868 0.950 . S
C889 C888 1.373 1_455 S
C889 C905 1.377 . S
C890 C888 1.389 . S
C890 C891 1.524 . S
C890 C904 1.377 . S
C891 C890 1.524 . S
C891 C892 1.397 . S
C891 C896 1.363 . S
C892 H869 0.950 . S
C892 C891 1.397 . S
C892 C893 1.334 . S
C893 H870 0.950 . S
C893 C892 1.334 . S
C893 C894 1.287 . S
C894 C893 1.287 . S
C894 C895 1.524 . S
C894 H913 0.913 . S
C895 H871 0.950 . S
C895 C894 1.524 . S
C895 C896 1.415 . S
C896 H872 0.950 . S
C896 C891 1.363 . S
C896 C895 1.415 . S
C897 H873 0.951 . S
C897 C898 1.366 . S
C897 C899 1.388 . S
C898 C897 1.366 . S
C898 C902 1.385 . S
C899 H874 0.951 . S
C899 C897 1.388 . S
C899 C900 1.366 . S
C900 C899 1.366 . S
C900 C901 1.414 . S
C900 C903 1.499 . S
C901 H875 0.950 . S
C901 C900 1.414 . S
C901 C902 1.374 . S
C902 H876 0.950 . S
C902 C898 1.385 . S
C902 C901 1.374 . S
C903 C900 1.499 . S
C903 C904 1.373 1_455 S
C903 C905 1.389 . S
C904 H877 0.950 . S
C904 C890 1.377 . S
C904 C903 1.373 1_655 S
C905 C889 1.377 . S
C905 C903 1.389 . S
C905 C906 1.524 . S
C906 C905 1.524 . S
C906 C907 1.397 . S
C906 C911 1.363 . S
C907 H878 0.950 . S
C907 C906 1.397 . S
C907 C908 1.334 . S
C908 H879 0.950 . S
C908 C907 1.334 . S
C908 C909 1.287 . S
C909 C908 1.287 . S
C909 C910 1.524 . S
C909 H912 0.999 . S
C910 H880 0.950 . S
C910 C909 1.524 . S
C910 C911 1.415 . S
C911 H881 0.950 . S
C911 C906 1.363 . S
C911 C910 1.415 . S
H912 C909 0.999 . S
H913 C894 0.913 . S
H914 C932 0.951 . S
H915 C934 0.951 . S
H916 C936 0.950 1_655 S
H917 C937 0.950 . S
H918 C939 0.950 . S
H919 C942 0.950 . S
H920 C943 0.950 . S
H921 C945 0.950 . S
H922 C946 0.950 . S
H923 C947 0.951 . S
H924 C949 0.951 . S
H925 C951 0.950 1_455 S
H926 C952 0.950 . S
H927 C954 0.950 . S
H928 C957 0.950 . S
H929 C958 0.950 . S
H930 C960 0.950 . S
H931 C961 0.950 . S
C932 H914 0.951 . S
C932 C933 1.366 . S
C932 C934 1.388 . S
C933 C932 1.366 . S
C933 C937 1.385 . S
C934 H915 0.951 . S
C934 C932 1.388 . S
C934 C935 1.366 . S
C935 C934 1.366 . S
C935 C936 1.414 . S
C935 C938 1.499 . S
C936 H916 0.950 1_455 S
C936 C935 1.414 . S
C936 C937 1.374 . S
C937 H917 0.950 . S
C937 C933 1.385 . S
C937 C936 1.374 . S
C938 C935 1.499 . S
C938 C939 1.373 1_455 S
C938 C940 1.389 . S
C939 H918 0.950 . S
C939 C938 1.373 1_655 S
C939 C955 1.377 . S
C940 C938 1.389 . S
C940 C941 1.524 . S
C940 C954 1.377 . S
C941 C940 1.524 . S
C941 C942 1.397 . S
C941 C946 1.363 . S
C942 H919 0.950 . S
C942 C941 1.397 . S
C942 C943 1.334 . S
C943 H920 0.950 . S
C943 C942 1.334 . S
C943 C944 1.287 . S
C944 C943 1.287 . S
C944 C945 1.524 . S
C944 H963 0.913 . S
C945 H921 0.950 . S
C945 C944 1.524 . S
C945 C946 1.415 . S
C946 H922 0.950 . S
C946 C941 1.363 . S
C946 C945 1.415 . S
C947 H923 0.951 . S
C947 C948 1.366 . S
C947 C949 1.388 . S
C948 C947 1.366 . S
C948 C952 1.385 . S
C949 H924 0.951 . S
C949 C947 1.388 . S
C949 C950 1.366 . S
C950 C949 1.366 . S
C950 C951 1.414 . S
C950 C953 1.499 . S
C951 H925 0.950 1_655 S
C951 C950 1.414 . S
C951 C952 1.374 . S
C952 H926 0.950 . S
C952 C948 1.385 . S
C952 C951 1.374 . S
C953 C950 1.499 . S
C953 C954 1.373 1_655 S
C953 C955 1.389 . S
C954 H927 0.950 . S
C954 C940 1.377 . S
C954 C953 1.373 1_455 S
C955 C939 1.377 . S
C955 C953 1.389 . S
C955 C956 1.524 . S
C956 C955 1.524 . S
C956 C957 1.397 . S
C956 C961 1.363 . S
C957 H928 0.950 . S
C957 C956 1.397 . S
C957 C958 1.334 . S
C958 H929 0.950 . S
C958 C957 1.334 . S
C958 C959 1.287 . S
C959 C958 1.287 . S
C959 C960 1.524 . S
C959 H962 0.999 . S
C960 H930 0.950 . S
C960 C959 1.524 . S
C960 C961 1.415 . S
C961 H931 0.950 . S
C961 C956 1.363 . S
C961 C960 1.415 . S
H962 C959 0.999 . S
H963 C944 0.913 . S
H964 C982 0.951 . S
H965 C984 0.951 1_556 S
H966 C986 0.950 . S
H967 C987 0.950 . S
H968 C989 0.950 . S
H969 C992 0.950 . S
H970 C993 0.950 . S
H971 C995 0.950 . S
H972 C996 0.950 . S
H973 C997 0.951 . S
H974 C999 0.951 . S
H975 C1001 0.950 . S
H976 C1002 0.950 . S
H977 C1004 0.950 . S
H978 C1007 0.950 1_556 S
H979 C1008 0.950 . S
H980 C1010 0.950 . S
H981 C1011 0.950 . S
C982 H964 0.951 . S
C982 C983 1.366 . S
C982 C984 1.388 . S
C983 C982 1.366 . S
C983 C987 1.385 . S
C984 H965 0.951 1_554 S
C984 C982 1.388 . S
C984 C985 1.366 . S
C985 C984 1.366 . S
C985 C986 1.414 . S
C985 C988 1.499 . S
C986 H966 0.950 . S
C986 C985 1.414 . S
C986 C987 1.374 . S
C987 H967 0.950 . S
C987 C983 1.385 . S
C987 C986 1.374 . S
C988 C985 1.499 . S
C988 C989 1.373 . S
C988 C990 1.389 1_554 S
C989 H968 0.950 . S
C989 C988 1.373 . S
C989 C1005 1.377 . S
C990 C988 1.389 1_556 S
C990 C991 1.524 . S
C990 C1004 1.377 . S
C991 C990 1.524 . S
C991 C992 1.397 . S
C991 C996 1.363 . S
C992 H969 0.950 . S
C992 C991 1.397 . S
C992 C993 1.334 . S
C993 H970 0.950 . S
C993 C992 1.334 . S
C993 C994 1.287 . S
C994 C993 1.287 . S
C994 C995 1.524 . S
C994 H1013 0.913 . S
C995 H971 0.950 . S
C995 C994 1.524 . S
C995 C996 1.415 . S
C996 H972 0.950 . S
C996 C991 1.363 . S
C996 C995 1.415 . S
C997 H973 0.951 . S
C997 C998 1.366 . S
C997 C999 1.388 . S
C998 C997 1.366 . S
C998 C1002 1.385 . S
C999 H974 0.951 . S
C999 C997 1.388 . S
C999 C1000 1.366 . S
C1000 C999 1.366 . S
C1000 C1001 1.414 . S
C1000 C1003 1.499 . S
C1001 H975 0.950 . S
C1001 C1000 1.414 . S
C1001 C1002 1.374 . S
C1002 H976 0.950 . S
C1002 C998 1.385 . S
C1002 C1001 1.374 . S
C1003 C1000 1.499 . S
C1003 C1004 1.373 . S
C1003 C1005 1.389 1_556 S
C1004 H977 0.950 . S
C1004 C990 1.377 . S
C1004 C1003 1.373 . S
C1005 C989 1.377 . S
C1005 C1003 1.389 1_554 S
C1005 C1006 1.524 . S
C1006 C1005 1.524 . S
C1006 C1007 1.397 . S
C1006 C1011 1.363 . S
C1007 H978 0.950 1_554 S
C1007 C1006 1.397 . S
C1007 C1008 1.334 . S
C1008 H979 0.950 . S
C1008 C1007 1.334 . S
C1008 C1009 1.287 . S
C1009 C1008 1.287 . S
C1009 C1010 1.524 . S
C1009 H1012 0.999 . S
C1010 H980 0.950 . S
C1010 C1009 1.524 . S
C1010 C1011 1.415 . S
C1011 H981 0.950 . S
C1011 C1006 1.363 . S
C1011 C1010 1.415 . S
H1012 C1009 0.999 . S
H1013 C994 0.913 . S
H1014 C1032 0.951 . S
H1015 C1034 0.951 . S
H1016 C1036 0.950 . S
H1017 C1037 0.950 . S
H1018 C1039 0.950 . S
H1019 C1042 0.950 . S
H1020 C1043 0.950 . S
H1021 C1045 0.950 . S
H1022 C1046 0.950 . S
H1023 C1047 0.951 . S
H1024 C1049 0.951 . S
H1025 C1051 0.950 . S
H1026 C1052 0.950 . S
H1027 C1054 0.950 . S
H1028 C1057 0.950 . S
H1029 C1058 0.950 . S
H1030 C1060 0.950 . S
H1031 C1061 0.950 . S
C1032 H1014 0.951 . S
C1032 C1033 1.366 . S
C1032 C1034 1.388 . S
C1033 C1032 1.366 . S
C1033 C1037 1.385 . S
C1034 H1015 0.951 . S
C1034 C1032 1.388 . S
C1034 C1035 1.366 . S
C1035 C1034 1.366 . S
C1035 C1036 1.414 . S
C1035 C1038 1.499 . S
C1036 H1016 0.950 . S
C1036 C1035 1.414 . S
C1036 C1037 1.374 . S
C1037 H1017 0.950 . S
C1037 C1033 1.385 . S
C1037 C1036 1.374 . S
C1038 C1035 1.499 . S
C1038 C1039 1.373 1_556 S
C1038 C1040 1.389 . S
C1039 H1018 0.950 . S
C1039 C1038 1.373 1_554 S
C1039 C1055 1.377 . S
C1040 C1038 1.389 . S
C1040 C1041 1.524 . S
C1040 C1054 1.377 . S
C1041 C1040 1.524 . S
C1041 C1042 1.397 . S
C1041 C1046 1.363 . S
C1042 H1019 0.950 . S
C1042 C1041 1.397 . S
C1042 C1043 1.334 . S
C1043 H1020 0.950 . S
C1043 C1042 1.334 . S
C1043 C1044 1.287 . S
C1044 C1043 1.287 . S
C1044 C1045 1.524 . S
C1044 H1063 0.913 . S
C1045 H1021 0.950 . S
C1045 C1044 1.524 . S
C1045 C1046 1.415 . S
C1046 H1022 0.950 . S
C1046 C1041 1.363 . S
C1046 C1045 1.415 . S
C1047 H1023 0.951 . S
C1047 C1048 1.366 . S
C1047 C1049 1.388 . S
C1048 C1047 1.366 . S
C1048 C1052 1.385 . S
C1049 H1024 0.951 . S
C1049 C1047 1.388 . S
C1049 C1050 1.366 . S
C1050 C1049 1.366 . S
C1050 C1051 1.414 . S
C1050 C1053 1.499 . S
C1051 H1025 0.950 . S
C1051 C1050 1.414 . S
C1051 C1052 1.374 . S
C1052 H1026 0.950 . S
C1052 C1048 1.385 . S
C1052 C1051 1.374 . S
C1053 C1050 1.499 . S
C1053 C1054 1.373 1_554 S
C1053 C1055 1.389 . S
C1054 H1027 0.950 . S
C1054 C1040 1.377 . S
C1054 C1053 1.373 1_556 S
C1055 C1039 1.377 . S
C1055 C1053 1.389 . S
C1055 C1056 1.524 . S
C1056 C1055 1.524 . S
C1056 C1057 1.397 . S
C1056 C1061 1.363 . S
C1057 H1028 0.950 . S
C1057 C1056 1.397 . S
C1057 C1058 1.334 . S
C1058 H1029 0.950 . S
C1058 C1057 1.334 . S
C1058 C1059 1.287 . S
C1059 C1058 1.287 . S
C1059 C1060 1.524 . S
C1059 H1062 0.999 . S
C1060 H1030 0.950 . S
C1060 C1059 1.524 . S
C1060 C1061 1.415 . S
C1061 H1031 0.950 . S
C1061 C1056 1.363 . S
C1061 C1060 1.415 . S
H1062 C1059 0.999 . S
H1063 C1044 0.913 . S
H1064 C1082 0.951 . S
H1065 C1084 0.951 . S
H1066 C1086 0.950 . S
H1067 C1087 0.950 . S
H1068 C1089 0.950 . S
H1069 C1092 0.950 . S
H1070 C1093 0.950 . S
H1071 C1095 0.950 . S
H1072 C1096 0.950 . S
H1073 C1097 0.951 . S
H1074 C1099 0.951 . S
H1075 C1101 0.950 . S
H1076 C1102 0.950 . S
H1077 C1104 0.950 . S
H1078 C1107 0.950 . S
H1079 C1108 0.950 . S
H1080 C1110 0.950 . S
H1081 C1111 0.950 . S
C1082 H1064 0.951 . S
C1082 C1083 1.366 . S
C1082 C1084 1.388 . S
C1083 C1082 1.366 . S
C1083 C1087 1.385 . S
C1084 H1065 0.951 . S
C1084 C1082 1.388 . S
C1084 C1085 1.366 . S
C1085 C1084 1.366 . S
C1085 C1086 1.414 . S
C1085 C1088 1.499 . S
C1086 H1066 0.950 . S
C1086 C1085 1.414 . S
C1086 C1087 1.374 . S
C1087 H1067 0.950 . S
C1087 C1083 1.385 . S
C1087 C1086 1.374 . S
C1088 C1085 1.499 . S
C1088 C1089 1.373 . S
C1088 C1090 1.389 1_455 S
C1089 H1068 0.950 . S
C1089 C1088 1.373 . S
C1089 C1105 1.377 . S
C1090 C1088 1.389 1_655 S
C1090 C1091 1.524 . S
C1090 C1104 1.377 . S
C1091 C1090 1.524 . S
C1091 C1092 1.397 . S
C1091 C1096 1.363 . S
C1092 H1069 0.950 . S
C1092 C1091 1.397 . S
C1092 C1093 1.334 . S
C1093 H1070 0.950 . S
C1093 C1092 1.334 . S
C1093 C1094 1.287 . S
C1094 C1093 1.287 . S
C1094 C1095 1.524 . S
C1094 H1113 0.913 . S
C1095 H1071 0.950 . S
C1095 C1094 1.524 . S
C1095 C1096 1.415 . S
C1096 H1072 0.950 . S
C1096 C1091 1.363 . S
C1096 C1095 1.415 . S
C1097 H1073 0.951 . S
C1097 C1098 1.366 . S
C1097 C1099 1.388 . S
C1098 C1097 1.366 . S
C1098 C1102 1.385 . S
C1099 H1074 0.951 . S
C1099 C1097 1.388 . S
C1099 C1100 1.366 . S
C1100 C1099 1.366 . S
C1100 C1101 1.414 . S
C1100 C1103 1.499 . S
C1101 H1075 0.950 . S
C1101 C1100 1.414 . S
C1101 C1102 1.374 . S
C1102 H1076 0.950 . S
C1102 C1098 1.385 . S
C1102 C1101 1.374 . S
C1103 C1100 1.499 . S
C1103 C1104 1.373 . S
C1103 C1105 1.389 1_655 S
C1104 H1077 0.950 . S
C1104 C1090 1.377 . S
C1104 C1103 1.373 . S
C1105 C1089 1.377 . S
C1105 C1103 1.389 1_455 S
C1105 C1106 1.524 . S
C1106 C1105 1.524 . S
C1106 C1107 1.397 . S
C1106 C1111 1.363 . S
C1107 H1078 0.950 . S
C1107 C1106 1.397 . S
C1107 C1108 1.334 . S
C1108 H1079 0.950 . S
C1108 C1107 1.334 . S
C1108 C1109 1.287 . S
C1109 C1108 1.287 . S
C1109 C1110 1.524 . S
C1109 H1112 0.999 . S
C1110 H1080 0.950 . S
C1110 C1109 1.524 . S
C1110 C1111 1.415 . S
C1111 H1081 0.950 . S
C1111 C1106 1.363 . S
C1111 C1110 1.415 . S
H1112 C1109 0.999 . S
H1113 C1094 0.913 . S
H1114 C1132 0.951 . S
H1115 C1134 0.951 . S
H1116 C1136 0.950 . S
H1117 C1137 0.950 . S
H1118 C1139 0.950 . S
H1119 C1142 0.950 . S
H1120 C1143 0.950 . S
H1121 C1145 0.950 . S
H1122 C1146 0.950 . S
H1123 C1147 0.951 . S
H1124 C1149 0.951 . S
H1125 C1151 0.950 . S
H1126 C1152 0.950 . S
H1127 C1154 0.950 . S
H1128 C1157 0.950 . S
H1129 C1158 0.950 . S
H1130 C1160 0.950 . S
H1131 C1161 0.950 . S
C1132 H1114 0.951 . S
C1132 C1133 1.366 . S
C1132 C1134 1.388 . S
C1133 C1132 1.366 . S
C1133 C1137 1.385 . S
C1134 H1115 0.951 . S
C1134 C1132 1.388 . S
C1134 C1135 1.366 . S
C1135 C1134 1.366 . S
C1135 C1136 1.414 . S
C1135 C1138 1.499 . S
C1136 H1116 0.950 . S
C1136 C1135 1.414 . S
C1136 C1137 1.374 . S
C1137 H1117 0.950 . S
C1137 C1133 1.385 . S
C1137 C1136 1.374 . S
C1138 C1135 1.499 . S
C1138 C1139 1.373 1_655 S
C1138 C1140 1.389 . S
C1139 H1118 0.950 . S
C1139 C1138 1.373 1_455 S
C1139 C1155 1.377 . S
C1140 C1138 1.389 . S
C1140 C1141 1.524 . S
C1140 C1154 1.377 . S
C1141 C1140 1.524 . S
C1141 C1142 1.397 . S
C1141 C1146 1.363 . S
C1142 H1119 0.950 . S
C1142 C1141 1.397 . S
C1142 C1143 1.334 . S
C1143 H1120 0.950 . S
C1143 C1142 1.334 . S
C1143 C1144 1.287 . S
C1144 C1143 1.287 . S
C1144 C1145 1.524 . S
C1144 H1163 0.913 . S
C1145 H1121 0.950 . S
C1145 C1144 1.524 . S
C1145 C1146 1.415 . S
C1146 H1122 0.950 . S
C1146 C1141 1.363 . S
C1146 C1145 1.415 . S
C1147 H1123 0.951 . S
C1147 C1148 1.366 . S
C1147 C1149 1.388 . S
C1148 C1147 1.366 . S
C1148 C1152 1.385 . S
C1149 H1124 0.951 . S
C1149 C1147 1.388 . S
C1149 C1150 1.366 . S
C1150 C1149 1.366 . S
C1150 C1151 1.414 . S
C1150 C1153 1.499 . S
C1151 H1125 0.950 . S
C1151 C1150 1.414 . S
C1151 C1152 1.374 . S
C1152 H1126 0.950 . S
C1152 C1148 1.385 . S
C1152 C1151 1.374 . S
C1153 C1150 1.499 . S
C1153 C1154 1.373 1_455 S
C1153 C1155 1.389 . S
C1154 H1127 0.950 . S
C1154 C1140 1.377 . S
C1154 C1153 1.373 1_655 S
C1155 C1139 1.377 . S
C1155 C1153 1.389 . S
C1155 C1156 1.524 . S
C1156 C1155 1.524 . S
C1156 C1157 1.397 . S
C1156 C1161 1.363 . S
C1157 H1128 0.950 . S
C1157 C1156 1.397 . S
C1157 C1158 1.334 . S
C1158 H1129 0.950 . S
C1158 C1157 1.334 . S
C1158 C1159 1.287 . S
C1159 C1158 1.287 . S
C1159 C1160 1.524 . S
C1159 H1162 0.999 . S
C1160 H1130 0.950 . S
C1160 C1159 1.524 . S
C1160 C1161 1.415 . S
C1161 H1131 0.950 . S
C1161 C1156 1.363 . S
C1161 C1160 1.415 . S
H1162 C1159 0.999 . S
H1163 C1144 0.913 . S
H1164 C1182 0.951 . S
H1165 C1184 0.951 . S
H1166 C1186 0.950 . S
H1167 C1187 0.950 . S
H1168 C1189 0.950 1_565 S
H1169 C1192 0.950 . S
H1170 C1193 0.950 . S
H1171 C1195 0.949 . S
H1172 C1196 0.950 . S
H1173 C1197 0.951 . S
H1174 C1199 0.951 . S
H1175 C1201 0.950 . S
H1176 C1202 0.950 . S
H1177 C1204 0.950 . S
H1178 C1207 0.950 . S
H1179 C1208 0.950 . S
H1180 C1210 0.950 . S
H1181 C1211 0.950 . S
C1182 H1164 0.951 . S
C1182 C1183 1.366 . S
C1182 C1184 1.388 . S
C1183 C1182 1.366 . S
C1183 C1187 1.385 . S
C1184 H1165 0.951 . S
C1184 C1182 1.388 . S
C1184 C1185 1.366 . S
C1185 C1184 1.366 . S
C1185 C1186 1.414 . S
C1185 C1188 1.499 . S
C1186 H1166 0.950 . S
C1186 C1185 1.414 . S
C1186 C1187 1.374 . S
C1187 H1167 0.950 . S
C1187 C1183 1.385 . S
C1187 C1186 1.374 . S
C1188 C1185 1.499 . S
C1188 C1189 1.373 1_565 S
C1188 C1190 1.389 1_565 S
C1189 H1168 0.950 1_545 S
C1189 C1188 1.373 1_545 S
C1189 C1205 1.377 . S
C1190 C1188 1.389 1_545 S
C1190 C1191 1.524 1_545 S
C1190 C1204 1.377 . S
C1191 C1190 1.524 1_565 S
C1191 C1192 1.397 . S
C1191 C1196 1.363 1_565 S
C1192 H1169 0.950 . S
C1192 C1191 1.397 . S
C1192 C1193 1.334 . S
C1193 H1170 0.950 . S
C1193 C1192 1.334 . S
C1193 C1194 1.287 . S
C1194 C1193 1.287 . S
C1194 C1195 1.524 . S
C1194 H1213 0.913 . S
C1195 H1171 0.949 . S
C1195 C1194 1.524 . S
C1195 C1196 1.415 1_565 S
C1196 H1172 0.950 . S
C1196 C1191 1.363 1_545 S
C1196 C1195 1.415 1_545 S
C1197 H1173 0.951 . S
C1197 C1198 1.366 . S
C1197 C1199 1.388 . S
C1198 C1197 1.366 . S
C1198 C1202 1.385 . S
C1199 H1174 0.951 . S
C1199 C1197 1.388 . S
C1199 C1200 1.366 . S
C1200 C1199 1.366 . S
C1200 C1201 1.414 . S
C1200 C1203 1.499 . S
C1201 H1175 0.950 . S
C1201 C1200 1.414 . S
C1201 C1202 1.374 . S
C1202 H1176 0.950 . S
C1202 C1198 1.385 . S
C1202 C1201 1.374 . S
C1203 C1200 1.499 . S
C1203 C1204 1.373 . S
C1203 C1205 1.389 . S
C1204 H1177 0.950 . S
C1204 C1190 1.377 . S
C1204 C1203 1.373 . S
C1205 C1189 1.377 . S
C1205 C1203 1.389 . S
C1205 C1206 1.524 . S
C1206 C1205 1.524 . S
C1206 C1207 1.397 . S
C1206 C1211 1.363 . S
C1207 H1178 0.950 . S
C1207 C1206 1.397 . S
C1207 C1208 1.334 . S
C1208 H1179 0.950 . S
C1208 C1207 1.334 . S
C1208 C1209 1.287 . S
C1209 C1208 1.287 . S
C1209 C1210 1.524 . S
C1209 H1212 0.999 . S
C1210 H1180 0.950 . S
C1210 C1209 1.524 . S
C1210 C1211 1.415 . S
C1211 H1181 0.950 . S
C1211 C1206 1.363 . S
C1211 C1210 1.415 . S
H1212 C1209 0.999 . S
H1213 C1194 0.913 . S
H1214 C1232 0.951 . S
H1215 C1234 0.951 . S
H1216 C1236 0.950 . S
H1217 C1237 0.950 . S
H1218 C1239 0.950 . S
H1219 C1242 0.950 . S
H1220 C1243 0.950 . S
H1221 C1245 0.912 1_545 S
H1222 C1246 0.991 . S
H1223 C1247 0.951 . S
H1224 C1249 0.951 . S
H1225 C1251 0.950 . S
H1226 C1252 0.950 . S
H1227 C1254 0.950 . S
H1228 C1257 0.950 . S
H1229 C1258 0.950 . S
H1230 C1260 0.950 . S
H1231 C1261 0.950 . S
C1232 H1214 0.951 . S
C1232 C1233 1.366 . S
C1232 C1234 1.388 . S
C1233 C1232 1.366 . S
C1233 C1237 1.385 . S
C1234 H1215 0.951 . S
C1234 C1232 1.388 . S
C1234 C1235 1.366 . S
C1235 C1234 1.366 . S
C1235 C1236 1.414 . S
C1235 C1238 1.499 . S
C1236 H1216 0.950 . S
C1236 C1235 1.414 . S
C1236 C1237 1.374 . S
C1237 H1217 0.950 . S
C1237 C1233 1.385 . S
C1237 C1236 1.374 . S
C1238 C1235 1.499 . S
C1238 C1239 1.373 . S
C1238 C1240 1.389 . S
C1239 H1218 0.950 . S
C1239 C1238 1.373 . S
C1239 C1255 1.377 . S
C1240 C1238 1.389 . S
C1240 C1241 1.524 . S
C1240 C1254 1.377 1_565 S
C1241 C1240 1.524 . S
C1241 C1242 1.397 . S
C1241 C1246 1.327 1_565 S
C1242 H1219 0.950 . S
C1242 C1241 1.397 . S
C1242 C1243 1.334 . S
C1243 H1220 0.950 . S
C1243 C1242 1.334 . S
C1243 C1244 1.287 . S
C1244 C1243 1.287 . S
C1244 C1245 1.572 . S
C1244 H1263 0.913 . S
C1245 H1221 0.912 1_565 S
C1245 C1244 1.572 . S
C1245 C1246 1.410 1_565 S
C1246 H1222 0.991 . S
C1246 C1241 1.327 1_545 S
C1246 C1245 1.410 1_545 S
C1247 H1223 0.951 . S
C1247 C1248 1.366 . S
C1247 C1249 1.388 . S
C1248 C1247 1.366 . S
C1248 C1252 1.385 . S
C1249 H1224 0.951 . S
C1249 C1247 1.388 . S
C1249 C1250 1.366 . S
C1250 C1249 1.366 . S
C1250 C1251 1.414 . S
C1250 C1253 1.499 . S
C1251 H1225 0.950 . S
C1251 C1250 1.414 . S
C1251 C1252 1.374 . S
C1252 H1226 0.950 . S
C1252 C1248 1.385 . S
C1252 C1251 1.374 . S
C1253 C1250 1.499 . S
C1253 C1254 1.373 . S
C1253 C1255 1.389 1_545 S
C1254 H1227 0.950 . S
C1254 C1240 1.377 1_545 S
C1254 C1253 1.373 . S
C1255 C1239 1.377 . S
C1255 C1253 1.389 1_565 S
C1255 C1256 1.524 . S
C1256 C1255 1.524 . S
C1256 C1257 1.397 1_565 S
C1256 C1261 1.363 . S
C1257 H1228 0.950 . S
C1257 C1256 1.397 1_545 S
C1257 C1258 1.334 . S
C1258 H1229 0.950 . S
C1258 C1257 1.334 . S
C1258 C1259 1.293 . S
C1259 C1258 1.293 . S
C1259 C1260 1.517 1_545 S
C1259 H1262 1.000 . S
C1260 H1230 0.950 . S
C1260 C1259 1.517 1_565 S
C1260 C1261 1.415 . S
C1261 H1231 0.950 . S
C1261 C1256 1.363 . S
C1261 C1260 1.415 . S
H1262 C1259 1.000 . S
H1263 C1244 0.913 . S
H1264 C1282 0.951 . S
H1265 C1284 0.951 . S
H1266 C1286 0.950 . S
H1267 C1287 0.950 . S
H1268 C1289 0.950 . S
H1269 C1292 0.950 . S
H1270 C1293 0.950 . S
H1271 C1295 0.950 . S
H1272 C1296 0.950 . S
H1273 C1297 0.951 . S
H1274 C1299 0.951 . S
H1275 C1301 0.950 . S
H1276 C1302 0.950 . S
H1277 C1304 0.950 . S
H1278 C1307 0.950 . S
H1279 C1308 0.950 . S
H1280 C1310 0.950 . S
H1281 C1311 0.950 . S
C1282 H1264 0.951 . S
C1282 C1283 1.366 . S
C1282 C1284 1.388 . S
C1283 C1282 1.366 . S
C1283 C1287 1.385 . S
C1284 H1265 0.951 . S
C1284 C1282 1.388 . S
C1284 C1285 1.366 . S
C1285 C1284 1.366 . S
C1285 C1286 1.414 . S
C1285 C1288 1.499 . S
C1286 H1266 0.950 . S
C1286 C1285 1.414 . S
C1286 C1287 1.374 . S
C1287 H1267 0.950 . S
C1287 C1283 1.385 . S
C1287 C1286 1.374 . S
C1288 C1285 1.499 . S
C1288 C1289 1.373 . S
C1288 C1290 1.389 . S
C1289 H1268 0.950 . S
C1289 C1288 1.373 . S
C1289 C1305 1.377 . S
C1290 C1288 1.389 . S
C1290 C1291 1.524 . S
C1290 C1304 1.377 . S
C1291 C1290 1.524 . S
C1291 C1292 1.397 . S
C1291 C1296 1.363 . S
C1292 H1269 0.950 . S
C1292 C1291 1.397 . S
C1292 C1293 1.334 . S
C1293 H1270 0.950 . S
C1293 C1292 1.334 . S
C1293 C1294 1.287 . S
C1294 C1293 1.287 . S
C1294 C1295 1.524 . S
C1294 H1313 0.913 . S
C1295 H1271 0.950 . S
C1295 C1294 1.524 . S
C1295 C1296 1.415 . S
C1296 H1272 0.950 . S
C1296 C1291 1.363 . S
C1296 C1295 1.415 . S
C1297 H1273 0.951 . S
C1297 C1298 1.366 . S
C1297 C1299 1.388 . S
C1298 C1297 1.366 . S
C1298 C1302 1.385 . S
C1299 H1274 0.951 . S
C1299 C1297 1.388 . S
C1299 C1300 1.366 . S
C1300 C1299 1.366 . S
C1300 C1301 1.414 . S
C1300 C1303 1.499 . S
C1301 H1275 0.950 . S
C1301 C1300 1.414 . S
C1301 C1302 1.374 . S
C1302 H1276 0.950 . S
C1302 C1298 1.385 . S
C1302 C1301 1.374 . S
C1303 C1300 1.499 . S
C1303 C1304 1.373 . S
C1303 C1305 1.389 . S
C1304 H1277 0.950 . S
C1304 C1290 1.377 . S
C1304 C1303 1.373 . S
C1305 C1289 1.377 . S
C1305 C1303 1.389 . S
C1305 C1306 1.524 . S
C1306 C1305 1.524 . S
C1306 C1307 1.397 . S
C1306 C1311 1.363 . S
C1307 H1278 0.950 . S
C1307 C1306 1.397 . S
C1307 C1308 1.334 . S
C1308 H1279 0.950 . S
C1308 C1307 1.334 . S
C1308 C1309 1.287 . S
C1309 C1308 1.287 . S
C1309 C1310 1.524 . S
C1309 H1312 0.999 . S
C1310 H1280 0.950 . S
C1310 C1309 1.524 . S
C1310 C1311 1.415 . S
C1311 H1281 0.950 . S
C1311 C1306 1.363 . S
C1311 C1310 1.415 . S
H1312 C1309 0.999 . S
H1313 C1294 0.913 . S
H1314 C1332 0.951 . S
H1315 C1334 0.951 . S
H1316 C1336 0.950 . S
H1317 C1337 0.950 . S
H1318 C1339 0.950 . S
H1319 C1342 0.950 . S
H1320 C1343 0.950 . S
H1321 C1345 0.950 . S
H1322 C1346 0.950 . S
H1323 C1347 0.951 . S
H1324 C1349 0.951 . S
H1325 C1351 0.950 . S
H1326 C1352 0.950 . S
H1327 C1354 0.950 . S
H1328 C1357 0.950 . S
H1329 C1358 0.950 . S
H1330 C1360 0.950 . S
H1331 C1361 0.950 . S
C1332 H1314 0.951 . S
C1332 C1333 1.366 . S
C1332 C1334 1.388 . S
C1333 C1332 1.366 . S
C1333 C1337 1.385 . S
C1334 H1315 0.951 . S
C1334 C1332 1.388 . S
C1334 C1335 1.366 . S
C1335 C1334 1.366 . S
C1335 C1336 1.414 . S
C1335 C1338 1.499 . S
C1336 H1316 0.950 . S
C1336 C1335 1.414 . S
C1336 C1337 1.374 . S
C1337 H1317 0.950 . S
C1337 C1333 1.385 . S
C1337 C1336 1.374 . S
C1338 C1335 1.499 . S
C1338 C1339 1.373 . S
C1338 C1340 1.389 . S
C1339 H1318 0.950 . S
C1339 C1338 1.373 . S
C1339 C1355 1.377 . S
C1340 C1338 1.389 . S
C1340 C1341 1.524 . S
C1340 C1354 1.377 . S
C1341 C1340 1.524 . S
C1341 C1342 1.397 . S
C1341 C1346 1.363 . S
C1342 H1319 0.950 . S
C1342 C1341 1.397 . S
C1342 C1343 1.334 . S
C1343 H1320 0.950 . S
C1343 C1342 1.334 . S
C1343 C1344 1.287 . S
C1344 C1343 1.287 . S
C1344 C1345 1.524 . S
C1344 H1363 0.913 . S
C1345 H1321 0.950 . S
C1345 C1344 1.524 . S
C1345 C1346 1.415 . S
C1346 H1322 0.950 . S
C1346 C1341 1.363 . S
C1346 C1345 1.415 . S
C1347 H1323 0.951 . S
C1347 C1348 1.366 . S
C1347 C1349 1.388 . S
C1348 C1347 1.366 . S
C1348 C1352 1.385 . S
C1349 H1324 0.951 . S
C1349 C1347 1.388 . S
C1349 C1350 1.366 . S
C1350 C1349 1.366 . S
C1350 C1351 1.414 . S
C1350 C1353 1.499 . S
C1351 H1325 0.950 . S
C1351 C1350 1.414 . S
C1351 C1352 1.374 . S
C1352 H1326 0.950 . S
C1352 C1348 1.385 . S
C1352 C1351 1.374 . S
C1353 C1350 1.499 . S
C1353 C1354 1.373 . S
C1353 C1355 1.389 . S
C1354 H1327 0.950 . S
C1354 C1340 1.377 . S
C1354 C1353 1.373 . S
C1355 C1339 1.377 . S
C1355 C1353 1.389 . S
C1355 C1356 1.524 . S
C1356 C1355 1.524 . S
C1356 C1357 1.397 . S
C1356 C1361 1.363 . S
C1357 H1328 0.950 . S
C1357 C1356 1.397 . S
C1357 C1358 1.334 . S
C1358 H1329 0.950 . S
C1358 C1357 1.334 . S
C1358 C1359 1.287 . S
C1359 C1358 1.287 . S
C1359 C1360 1.524 . S
C1359 H1362 0.999 . S
C1360 H1330 0.950 . S
C1360 C1359 1.524 . S
C1360 C1361 1.415 . S
C1361 H1331 0.950 . S
C1361 C1356 1.363 . S
C1361 C1360 1.415 . S
H1362 C1359 0.999 . S
H1363 C1344 0.913 . S
H1364 C1382 0.951 . S
H1365 C1384 0.951 . S
H1366 C1386 0.950 . S
H1367 C1387 0.950 . S
H1368 C1389 0.950 . S
H1369 C1392 0.950 . S
H1370 C1393 0.950 . S
H1371 C1395 0.950 . S
H1372 C1396 0.950 . S
H1373 C1397 0.951 . S
H1374 C1399 0.951 . S
H1375 C1401 0.950 . S
H1376 C1402 0.950 . S
H1377 C1404 0.950 . S
H1378 C1407 0.950 . S
H1379 C1408 0.950 . S
H1380 C1410 0.950 . S
H1381 C1411 0.950 . S
C1382 H1364 0.951 . S
C1382 C1383 1.366 . S
C1382 C1384 1.388 . S
C1383 C1382 1.366 . S
C1383 C1387 1.385 . S
C1384 H1365 0.951 . S
C1384 C1382 1.388 . S
C1384 C1385 1.366 . S
C1385 C1384 1.366 . S
C1385 C1386 1.414 . S
C1385 C1388 1.499 . S
C1386 H1366 0.950 . S
C1386 C1385 1.414 . S
C1386 C1387 1.374 . S
C1387 H1367 0.950 . S
C1387 C1383 1.385 . S
C1387 C1386 1.374 . S
C1388 C1385 1.499 . S
C1388 C1389 1.373 . S
C1388 C1390 1.389 . S
C1389 H1368 0.950 . S
C1389 C1388 1.373 . S
C1389 C1405 1.377 . S
C1390 C1388 1.389 . S
C1390 C1391 1.524 . S
C1390 C1404 1.377 . S
C1391 C1390 1.524 . S
C1391 C1392 1.397 . S
C1391 C1396 1.363 . S
C1392 H1369 0.950 . S
C1392 C1391 1.397 . S
C1392 C1393 1.334 . S
C1393 H1370 0.950 . S
C1393 C1392 1.334 . S
C1393 C1394 1.287 . S
C1394 C1393 1.287 . S
C1394 C1395 1.524 . S
C1394 H1413 0.913 . S
C1395 H1371 0.950 . S
C1395 C1394 1.524 . S
C1395 C1396 1.415 . S
C1396 H1372 0.950 . S
C1396 C1391 1.363 . S
C1396 C1395 1.415 . S
C1397 H1373 0.951 . S
C1397 C1398 1.366 . S
C1397 C1399 1.388 . S
C1398 C1397 1.366 . S
C1398 C1402 1.385 . S
C1399 H1374 0.951 . S
C1399 C1397 1.388 . S
C1399 C1400 1.366 . S
C1400 C1399 1.366 . S
C1400 C1401 1.414 . S
C1400 C1403 1.499 . S
C1401 H1375 0.950 . S
C1401 C1400 1.414 . S
C1401 C1402 1.374 . S
C1402 H1376 0.950 . S
C1402 C1398 1.385 . S
C1402 C1401 1.374 . S
C1403 C1400 1.499 . S
C1403 C1404 1.373 . S
C1403 C1405 1.389 . S
C1404 H1377 0.950 . S
C1404 C1390 1.377 . S
C1404 C1403 1.373 . S
C1405 C1389 1.377 . S
C1405 C1403 1.389 . S
C1405 C1406 1.524 . S
C1406 C1405 1.524 . S
C1406 C1407 1.397 . S
C1406 C1411 1.363 . S
C1407 H1378 0.950 . S
C1407 C1406 1.397 . S
C1407 C1408 1.334 . S
C1408 H1379 0.950 . S
C1408 C1407 1.334 . S
C1408 C1409 1.287 . S
C1409 C1408 1.287 . S
C1409 C1410 1.524 . S
C1409 H1412 0.999 . S
C1410 H1380 0.950 . S
C1410 C1409 1.524 . S
C1410 C1411 1.415 . S
C1411 H1381 0.950 . S
C1411 C1406 1.363 . S
C1411 C1410 1.415 . S
H1412 C1409 0.999 . S
H1413 C1394 0.913 . S
H1414 C1432 0.951 . S
H1415 C1434 0.951 . S
H1416 C1436 0.950 . S
H1417 C1437 0.950 . S
H1418 C1439 0.950 . S
H1419 C1442 0.950 . S
H1420 C1443 0.950 . S
H1421 C1445 0.950 . S
H1422 C1446 0.950 . S
H1423 C1447 0.951 . S
H1424 C1449 0.951 . S
H1425 C1451 0.950 . S
H1426 C1452 0.950 . S
H1427 C1454 0.950 . S
H1428 C1457 0.950 . S
H1429 C1458 0.950 . S
H1430 C1460 0.950 . S
H1431 C1461 0.950 . S
C1432 H1414 0.951 . S
C1432 C1433 1.366 . S
C1432 C1434 1.388 . S
C1433 C1432 1.366 . S
C1433 C1437 1.385 . S
C1434 H1415 0.951 . S
C1434 C1432 1.388 . S
C1434 C1435 1.366 . S
C1435 C1434 1.366 . S
C1435 C1436 1.414 . S
C1435 C1438 1.499 . S
C1436 H1416 0.950 . S
C1436 C1435 1.414 . S
C1436 C1437 1.374 . S
C1437 H1417 0.950 . S
C1437 C1433 1.385 . S
C1437 C1436 1.374 . S
C1438 C1435 1.499 . S
C1438 C1439 1.373 . S
C1438 C1440 1.389 . S
C1439 H1418 0.950 . S
C1439 C1438 1.373 . S
C1439 C1455 1.377 . S
C1440 C1438 1.389 . S
C1440 C1441 1.524 . S
C1440 C1454 1.377 . S
C1441 C1440 1.524 . S
C1441 C1442 1.397 . S
C1441 C1446 1.363 . S
C1442 H1419 0.950 . S
C1442 C1441 1.397 . S
C1442 C1443 1.334 . S
C1443 H1420 0.950 . S
C1443 C1442 1.334 . S
C1443 C1444 1.287 . S
C1444 C1443 1.287 . S
C1444 C1445 1.524 . S
C1444 H1463 0.913 . S
C1445 H1421 0.950 . S
C1445 C1444 1.524 . S
C1445 C1446 1.415 . S
C1446 H1422 0.950 . S
C1446 C1441 1.363 . S
C1446 C1445 1.415 . S
C1447 H1423 0.951 . S
C1447 C1448 1.366 . S
C1447 C1449 1.388 . S
C1448 C1447 1.366 . S
C1448 C1452 1.385 . S
C1449 H1424 0.951 . S
C1449 C1447 1.388 . S
C1449 C1450 1.366 . S
C1450 C1449 1.366 . S
C1450 C1451 1.414 . S
C1450 C1453 1.499 . S
C1451 H1425 0.950 . S
C1451 C1450 1.414 . S
C1451 C1452 1.374 . S
C1452 H1426 0.950 . S
C1452 C1448 1.385 . S
C1452 C1451 1.374 . S
C1453 C1450 1.499 . S
C1453 C1454 1.373 . S
C1453 C1455 1.389 . S
C1454 H1427 0.950 . S
C1454 C1440 1.377 . S
C1454 C1453 1.373 . S
C1455 C1439 1.377 . S
C1455 C1453 1.389 . S
C1455 C1456 1.524 . S
C1456 C1455 1.524 . S
C1456 C1457 1.397 . S
C1456 C1461 1.363 . S
C1457 H1428 0.950 . S
C1457 C1456 1.397 . S
C1457 C1458 1.334 . S
C1458 H1429 0.950 . S
C1458 C1457 1.334 . S
C1458 C1459 1.287 . S
C1459 C1458 1.287 . S
C1459 C1460 1.524 . S
C1459 H1462 0.999 . S
C1460 H1430 0.950 . S
C1460 C1459 1.524 . S
C1460 C1461 1.415 . S
C1461 H1431 0.950 . S
C1461 C1456 1.363 . S
C1461 C1460 1.415 . S
H1462 C1459 0.999 . S
H1463 C1444 0.913 . S
H1464 C1482 0.951 . S
H1465 C1484 0.951 . S
H1466 C1486 0.950 . S
H1467 C1487 0.950 . S
H1468 C1489 0.950 . S
H1469 C1492 0.950 . S
H1470 C1493 0.950 . S
H1471 C1495 0.950 . S
H1472 C1496 0.950 1_556 S
H1473 C1497 0.951 . S
H1474 C1499 0.951 . S
H1475 C1501 0.950 . S
H1476 C1502 0.950 . S
H1477 C1504 0.950 . S
H1478 C1507 0.950 . S
H1479 C1508 0.950 . S
H1480 C1510 0.950 . S
H1481 C1511 0.950 . S
C1482 H1464 0.951 . S
C1482 C1483 1.366 . S
C1482 C1484 1.388 . S
C1483 C1482 1.366 . S
C1483 C1487 1.385 . S
C1484 H1465 0.951 . S
C1484 C1482 1.388 . S
C1484 C1485 1.366 . S
C1485 C1484 1.366 . S
C1485 C1486 1.414 . S
C1485 C1488 1.499 . S
C1486 H1466 0.950 . S
C1486 C1485 1.414 . S
C1486 C1487 1.374 . S
C1487 H1467 0.950 . S
C1487 C1483 1.385 . S
C1487 C1486 1.374 . S
C1488 C1485 1.499 . S
C1488 C1489 1.373 . S
C1488 C1490 1.389 . S
C1489 H1468 0.950 . S
C1489 C1488 1.373 . S
C1489 C1505 1.377 1_554 S
C1490 C1488 1.389 . S
C1490 C1491 1.524 . S
C1490 C1504 1.377 1_554 S
C1491 C1490 1.524 . S
C1491 C1492 1.397 . S
C1491 C1496 1.363 . S
C1492 H1469 0.950 . S
C1492 C1491 1.397 . S
C1492 C1493 1.334 . S
C1493 H1470 0.950 . S
C1493 C1492 1.334 . S
C1493 C1494 1.287 . S
C1494 C1493 1.287 . S
C1494 C1495 1.524 . S
C1494 H1513 0.913 . S
C1495 H1471 0.950 . S
C1495 C1494 1.524 . S
C1495 C1496 1.415 . S
C1496 H1472 0.950 1_554 S
C1496 C1491 1.363 . S
C1496 C1495 1.415 . S
C1497 H1473 0.951 . S
C1497 C1498 1.366 . S
C1497 C1499 1.388 . S
C1498 C1497 1.366 . S
C1498 C1502 1.385 . S
C1499 H1474 0.951 . S
C1499 C1497 1.388 . S
C1499 C1500 1.366 . S
C1500 C1499 1.366 . S
C1500 C1501 1.414 . S
C1500 C1503 1.499 . S
C1501 H1475 0.950 . S
C1501 C1500 1.414 . S
C1501 C1502 1.374 . S
C1502 H1476 0.950 . S
C1502 C1498 1.385 . S
C1502 C1501 1.374 . S
C1503 C1500 1.499 . S
C1503 C1504 1.373 . S
C1503 C1505 1.389 . S
C1504 H1477 0.950 . S
C1504 C1490 1.377 1_556 S
C1504 C1503 1.373 . S
C1505 C1489 1.377 1_556 S
C1505 C1503 1.389 . S
C1505 C1506 1.524 . S
C1506 C1505 1.524 . S
C1506 C1507 1.397 . S
C1506 C1511 1.363 . S
C1507 H1478 0.950 . S
C1507 C1506 1.397 . S
C1507 C1508 1.334 . S
C1508 H1479 0.950 . S
C1508 C1507 1.334 . S
C1508 C1509 1.287 . S
C1509 C1508 1.287 . S
C1509 C1510 1.524 . S
C1509 H1512 0.999 . S
C1510 H1480 0.950 . S
C1510 C1509 1.524 . S
C1510 C1511 1.415 . S
C1511 H1481 0.950 . S
C1511 C1506 1.363 . S
C1511 C1510 1.415 . S
H1512 C1509 0.999 . S
H1513 C1494 0.913 . S
H1514 C1532 0.951 . S
H1515 C1534 0.951 . S
H1516 C1536 0.950 . S
H1517 C1537 0.950 . S
H1518 C1539 0.950 . S
H1519 C1542 0.950 . S
H1520 C1543 0.950 . S
H1521 C1545 0.950 . S
H1522 C1546 0.950 1_556 S
H1523 C1547 0.951 . S
H1524 C1549 0.951 . S
H1525 C1551 0.950 . S
H1526 C1552 0.950 . S
H1527 C1554 0.950 . S
H1528 C1557 0.950 . S
H1529 C1558 0.950 . S
H1530 C1560 0.950 . S
H1531 C1561 0.950 . S
C1532 H1514 0.951 . S
C1532 C1533 1.366 . S
C1532 C1534 1.388 . S
C1533 C1532 1.366 . S
C1533 C1537 1.385 . S
C1534 H1515 0.951 . S
C1534 C1532 1.388 . S
C1534 C1535 1.366 . S
C1535 C1534 1.366 . S
C1535 C1536 1.414 . S
C1535 C1538 1.499 . S
C1536 H1516 0.950 . S
C1536 C1535 1.414 . S
C1536 C1537 1.374 . S
C1537 H1517 0.950 . S
C1537 C1533 1.385 . S
C1537 C1536 1.374 . S
C1538 C1535 1.499 . S
C1538 C1539 1.373 . S
C1538 C1540 1.389 . S
C1539 H1518 0.950 . S
C1539 C1538 1.373 . S
C1539 C1555 1.377 1_554 S
C1540 C1538 1.389 . S
C1540 C1541 1.524 . S
C1540 C1554 1.377 1_554 S
C1541 C1540 1.524 . S
C1541 C1542 1.397 . S
C1541 C1546 1.363 . S
C1542 H1519 0.950 . S
C1542 C1541 1.397 . S
C1542 C1543 1.334 . S
C1543 H1520 0.950 . S
C1543 C1542 1.334 . S
C1543 C1544 1.287 . S
C1544 C1543 1.287 . S
C1544 C1545 1.524 . S
C1544 H1563 0.913 . S
C1545 H1521 0.950 . S
C1545 C1544 1.524 . S
C1545 C1546 1.415 . S
C1546 H1522 0.950 1_554 S
C1546 C1541 1.363 . S
C1546 C1545 1.415 . S
C1547 H1523 0.951 . S
C1547 C1548 1.366 . S
C1547 C1549 1.388 . S
C1548 C1547 1.366 . S
C1548 C1552 1.385 . S
C1549 H1524 0.951 . S
C1549 C1547 1.388 . S
C1549 C1550 1.366 . S
C1550 C1549 1.366 . S
C1550 C1551 1.414 . S
C1550 C1553 1.499 . S
C1551 H1525 0.950 . S
C1551 C1550 1.414 . S
C1551 C1552 1.374 . S
C1552 H1526 0.950 . S
C1552 C1548 1.385 . S
C1552 C1551 1.374 . S
C1553 C1550 1.499 . S
C1553 C1554 1.373 . S
C1553 C1555 1.389 . S
C1554 H1527 0.950 . S
C1554 C1540 1.377 1_556 S
C1554 C1553 1.373 . S
C1555 C1539 1.377 1_556 S
C1555 C1553 1.389 . S
C1555 C1556 1.524 . S
C1556 C1555 1.524 . S
C1556 C1557 1.397 . S
C1556 C1561 1.363 . S
C1557 H1528 0.950 . S
C1557 C1556 1.397 . S
C1557 C1558 1.334 . S
C1558 H1529 0.950 . S
C1558 C1557 1.334 . S
C1558 C1559 1.287 . S
C1559 C1558 1.287 . S
C1559 C1560 1.524 . S
C1559 H1562 0.999 . S
C1560 H1530 0.950 . S
C1560 C1559 1.524 . S
C1560 C1561 1.415 . S
C1561 H1531 0.950 . S
C1561 C1556 1.363 . S
C1561 C1560 1.415 . S
H1562 C1559 0.999 . S
H1563 C1544 0.913 . S
H1564 C1582 0.951 . S
H1565 C1584 0.951 . S
H1566 C1586 0.950 . S
H1567 C1587 0.950 . S
H1568 C1589 0.950 . S
H1569 C1592 0.950 . S
H1570 C1593 0.950 . S
H1571 C1595 0.950 . S
H1572 C1596 0.950 . S
H1573 C1597 0.951 . S
H1574 C1599 0.951 . S
H1575 C1601 0.950 . S
H1576 C1602 0.950 . S
H1577 C1604 0.950 . S
H1578 C1607 0.950 . S
H1579 C1608 0.950 . S
H1580 C1610 0.950 . S
H1581 C1611 0.950 . S
C1582 H1564 0.951 . S
C1582 C1583 1.366 . S
C1582 C1584 1.388 . S
C1583 C1582 1.366 . S
C1583 C1587 1.385 . S
C1584 H1565 0.951 . S
C1584 C1582 1.388 . S
C1584 C1585 1.366 . S
C1585 C1584 1.366 . S
C1585 C1586 1.414 . S
C1585 C1588 1.499 . S
C1586 H1566 0.950 . S
C1586 C1585 1.414 . S
C1586 C1587 1.374 . S
C1587 H1567 0.950 . S
C1587 C1583 1.385 . S
C1587 C1586 1.374 . S
C1588 C1585 1.499 . S
C1588 C1589 1.373 . S
C1588 C1590 1.389 . S
C1589 H1568 0.950 . S
C1589 C1588 1.373 . S
C1589 C1605 1.377 . S
C1590 C1588 1.389 . S
C1590 C1591 1.524 . S
C1590 C1604 1.377 . S
C1591 C1590 1.524 . S
C1591 C1592 1.397 . S
C1591 C1596 1.363 . S
C1592 H1569 0.950 . S
C1592 C1591 1.397 . S
C1592 C1593 1.334 . S
C1593 H1570 0.950 . S
C1593 C1592 1.334 . S
C1593 C1594 1.287 . S
C1594 C1593 1.287 . S
C1594 C1595 1.524 . S
C1594 H1613 0.913 . S
C1595 H1571 0.950 . S
C1595 C1594 1.524 . S
C1595 C1596 1.415 . S
C1596 H1572 0.950 . S
C1596 C1591 1.363 . S
C1596 C1595 1.415 . S
C1597 H1573 0.951 . S
C1597 C1598 1.366 . S
C1597 C1599 1.388 . S
C1598 C1597 1.366 . S
C1598 C1602 1.385 . S
C1599 H1574 0.951 . S
C1599 C1597 1.388 . S
C1599 C1600 1.366 . S
C1600 C1599 1.366 . S
C1600 C1601 1.414 . S
C1600 C1603 1.499 . S
C1601 H1575 0.950 . S
C1601 C1600 1.414 . S
C1601 C1602 1.374 . S
C1602 H1576 0.950 . S
C1602 C1598 1.385 . S
C1602 C1601 1.374 . S
C1603 C1600 1.499 . S
C1603 C1604 1.373 . S
C1603 C1605 1.389 . S
C1604 H1577 0.950 . S
C1604 C1590 1.377 . S
C1604 C1603 1.373 . S
C1605 C1589 1.377 . S
C1605 C1603 1.389 . S
C1605 C1606 1.524 . S
C1606 C1605 1.524 . S
C1606 C1607 1.397 . S
C1606 C1611 1.363 . S
C1607 H1578 0.950 . S
C1607 C1606 1.397 . S
C1607 C1608 1.334 . S
C1608 H1579 0.950 . S
C1608 C1607 1.334 . S
C1608 C1609 1.287 . S
C1609 C1608 1.287 . S
C1609 C1610 1.524 . S
C1609 H1612 0.999 . S
C1610 H1580 0.950 . S
C1610 C1609 1.524 . S
C1610 C1611 1.415 . S
C1611 H1581 0.950 . S
C1611 C1606 1.363 . S
C1611 C1610 1.415 . S
H1612 C1609 0.999 . S
H1613 C1594 0.913 . S
H1614 C1632 0.951 . S
H1615 C1634 0.951 . S
H1616 C1636 0.950 . S
H1617 C1637 0.950 . S
H1618 C1639 0.950 . S
H1619 C1642 0.950 . S
H1620 C1643 0.950 . S
H1621 C1645 0.950 . S
H1622 C1646 0.950 . S
H1623 C1647 0.951 . S
H1624 C1649 0.951 . S
H1625 C1651 0.950 . S
H1626 C1652 0.950 . S
H1627 C1654 0.950 . S
H1628 C1657 0.950 . S
H1629 C1658 0.950 . S
H1630 C1660 0.950 . S
H1631 C1661 0.950 . S
C1632 H1614 0.951 . S
C1632 C1633 1.366 . S
C1632 C1634 1.388 . S
C1633 C1632 1.366 . S
C1633 C1637 1.385 . S
C1634 H1615 0.951 . S
C1634 C1632 1.388 . S
C1634 C1635 1.366 . S
C1635 C1634 1.366 . S
C1635 C1636 1.414 . S
C1635 C1638 1.499 . S
C1636 H1616 0.950 . S
C1636 C1635 1.414 . S
C1636 C1637 1.374 . S
C1637 H1617 0.950 . S
C1637 C1633 1.385 . S
C1637 C1636 1.374 . S
C1638 C1635 1.499 . S
C1638 C1639 1.373 . S
C1638 C1640 1.389 . S
C1639 H1618 0.950 . S
C1639 C1638 1.373 . S
C1639 C1655 1.377 . S
C1640 C1638 1.389 . S
C1640 C1641 1.524 . S
C1640 C1654 1.377 . S
C1641 C1640 1.524 . S
C1641 C1642 1.397 . S
C1641 C1646 1.363 . S
C1642 H1619 0.950 . S
C1642 C1641 1.397 . S
C1642 C1643 1.334 . S
C1643 H1620 0.950 . S
C1643 C1642 1.334 . S
C1643 C1644 1.287 . S
C1644 C1643 1.287 . S
C1644 C1645 1.524 . S
C1644 H1663 0.913 . S
C1645 H1621 0.950 . S
C1645 C1644 1.524 . S
C1645 C1646 1.415 . S
C1646 H1622 0.950 . S
C1646 C1641 1.363 . S
C1646 C1645 1.415 . S
C1647 H1623 0.951 . S
C1647 C1648 1.366 . S
C1647 C1649 1.388 . S
C1648 C1647 1.366 . S
C1648 C1652 1.385 . S
C1649 H1624 0.951 . S
C1649 C1647 1.388 . S
C1649 C1650 1.366 . S
C1650 C1649 1.366 . S
C1650 C1651 1.414 . S
C1650 C1653 1.499 . S
C1651 H1625 0.950 . S
C1651 C1650 1.414 . S
C1651 C1652 1.374 . S
C1652 H1626 0.950 . S
C1652 C1648 1.385 . S
C1652 C1651 1.374 . S
C1653 C1650 1.499 . S
C1653 C1654 1.373 . S
C1653 C1655 1.389 . S
C1654 H1627 0.950 . S
C1654 C1640 1.377 . S
C1654 C1653 1.373 . S
C1655 C1639 1.377 . S
C1655 C1653 1.389 . S
C1655 C1656 1.524 . S
C1656 C1655 1.524 . S
C1656 C1657 1.397 . S
C1656 C1661 1.363 . S
C1657 H1628 0.950 . S
C1657 C1656 1.397 . S
C1657 C1658 1.334 . S
C1658 H1629 0.950 . S
C1658 C1657 1.334 . S
C1658 C1659 1.287 . S
C1659 C1658 1.287 . S
C1659 C1660 1.524 . S
C1659 H1662 0.999 . S
C1660 H1630 0.950 . S
C1660 C1659 1.524 . S
C1660 C1661 1.415 . S
C1661 H1631 0.950 . S
C1661 C1656 1.363 . S
C1661 C1660 1.415 . S
H1662 C1659 0.999 . S
H1663 C1644 0.913 . S
H1664 C1682 0.951 . S
H1665 C1684 0.951 . S
H1666 C1686 0.950 . S
H1667 C1687 0.950 . S
H1668 C1689 0.950 . S
H1669 C1692 0.950 . S
H1670 C1693 0.950 . S
H1671 C1695 0.950 . S
H1672 C1696 0.950 . S
H1673 C1697 0.951 . S
H1674 C1699 0.951 . S
H1675 C1701 0.950 . S
H1676 C1702 0.950 . S
H1677 C1704 0.950 . S
H1678 C1707 0.950 . S
H1679 C1708 0.950 . S
H1680 C1710 0.950 1_655 S
H1681 C1711 0.950 . S
C1682 H1664 0.951 . S
C1682 C1683 1.366 . S
C1682 C1684 1.388 . S
C1683 C1682 1.366 . S
C1683 C1687 1.385 . S
C1684 H1665 0.951 . S
C1684 C1682 1.388 . S
C1684 C1685 1.366 . S
C1685 C1684 1.366 . S
C1685 C1686 1.414 . S
C1685 C1688 1.499 . S
C1686 H1666 0.950 . S
C1686 C1685 1.414 . S
C1686 C1687 1.374 . S
C1687 H1667 0.950 . S
C1687 C1683 1.385 . S
C1687 C1686 1.374 . S
C1688 C1685 1.499 . S
C1688 C1689 1.373 . S
C1688 C1690 1.389 . S
C1689 H1668 0.950 . S
C1689 C1688 1.373 . S
C1689 C1705 1.377 1_554 S
C1690 C1688 1.389 . S
C1690 C1691 1.524 . S
C1690 C1704 1.377 1_554 S
C1691 C1690 1.524 . S
C1691 C1692 1.397 . S
C1691 C1696 1.363 . S
C1692 H1669 0.950 . S
C1692 C1691 1.397 . S
C1692 C1693 1.334 . S
C1693 H1670 0.950 . S
C1693 C1692 1.334 . S
C1693 C1694 1.287 . S
C1694 C1693 1.287 . S
C1694 C1695 1.524 . S
C1694 H1713 0.913 . S
C1695 H1671 0.950 . S
C1695 C1694 1.524 . S
C1695 C1696 1.415 . S
C1696 H1672 0.950 . S
C1696 C1691 1.363 . S
C1696 C1695 1.415 . S
C1697 H1673 0.951 . S
C1697 C1698 1.366 . S
C1697 C1699 1.388 . S
C1698 C1697 1.366 . S
C1698 C1702 1.385 . S
C1699 H1674 0.951 . S
C1699 C1697 1.388 . S
C1699 C1700 1.366 . S
C1700 C1699 1.366 . S
C1700 C1701 1.414 . S
C1700 C1703 1.499 . S
C1701 H1675 0.950 . S
C1701 C1700 1.414 . S
C1701 C1702 1.374 . S
C1702 H1676 0.950 . S
C1702 C1698 1.385 . S
C1702 C1701 1.374 . S
C1703 C1700 1.499 . S
C1703 C1704 1.373 . S
C1703 C1705 1.389 . S
C1704 H1677 0.950 . S
C1704 C1690 1.377 1_556 S
C1704 C1703 1.373 . S
C1705 C1689 1.377 1_556 S
C1705 C1703 1.389 . S
C1705 C1706 1.524 . S
C1706 C1705 1.524 . S
C1706 C1707 1.397 . S
C1706 C1711 1.363 . S
C1707 H1678 0.950 . S
C1707 C1706 1.397 . S
C1707 C1708 1.334 . S
C1708 H1679 0.950 . S
C1708 C1707 1.334 . S
C1708 C1709 1.287 . S
C1709 C1708 1.287 . S
C1709 C1710 1.524 . S
C1709 H1712 0.999 . S
C1710 H1680 0.950 1_455 S
C1710 C1709 1.524 . S
C1710 C1711 1.415 . S
C1711 H1681 0.950 . S
C1711 C1706 1.363 . S
C1711 C1710 1.415 . S
H1712 C1709 0.999 . S
H1713 C1694 0.913 . S
H1714 C1732 0.951 . S
H1715 C1734 0.951 . S
H1716 C1736 0.950 . S
H1717 C1737 0.950 . S
H1718 C1739 0.950 . S
H1719 C1742 0.950 . S
H1720 C1743 0.950 . S
H1721 C1745 0.950 . S
H1722 C1746 0.950 . S
H1723 C1747 0.951 . S
H1724 C1749 0.951 . S
H1725 C1751 0.950 . S
H1726 C1752 0.950 . S
H1727 C1754 0.950 . S
H1728 C1757 0.950 . S
H1729 C1758 0.950 . S
H1730 C1760 0.995 . S
H1731 C1761 0.950 . S
C1732 H1714 0.951 . S
C1732 C1733 1.366 . S
C1732 C1734 1.388 . S
C1733 C1732 1.366 . S
C1733 C1737 1.385 . S
C1734 H1715 0.951 . S
C1734 C1732 1.388 . S
C1734 C1735 1.366 . S
C1735 C1734 1.366 . S
C1735 C1736 1.414 . S
C1735 C1738 1.499 . S
C1736 H1716 0.950 . S
C1736 C1735 1.414 . S
C1736 C1737 1.374 . S
C1737 H1717 0.950 . S
C1737 C1733 1.385 . S
C1737 C1736 1.374 . S
C1738 C1735 1.499 . S
C1738 C1739 1.373 . S
C1738 C1740 1.389 . S
C1739 H1718 0.950 . S
C1739 C1738 1.373 . S
C1739 C1755 1.377 1_554 S
C1740 C1738 1.389 . S
C1740 C1741 1.524 . S
C1740 C1754 1.377 1_554 S
C1741 C1740 1.524 . S
C1741 C1742 1.397 . S
C1741 C1746 1.363 . S
C1742 H1719 0.950 . S
C1742 C1741 1.397 . S
C1742 C1743 1.334 . S
C1743 H1720 0.950 . S
C1743 C1742 1.334 . S
C1743 C1744 1.287 . S
C1744 C1743 1.287 . S
C1744 C1745 1.524 . S
C1744 H1763 0.913 . S
C1745 H1721 0.950 . S
C1745 C1744 1.524 . S
C1745 C1746 1.415 . S
C1746 H1722 0.950 . S
C1746 C1741 1.363 . S
C1746 C1745 1.415 . S
C1747 H1723 0.951 . S
C1747 C1748 1.366 . S
C1747 C1749 1.388 . S
C1748 C1747 1.366 . S
C1748 C1752 1.385 . S
C1749 H1724 0.951 . S
C1749 C1747 1.388 . S
C1749 C1750 1.366 . S
C1750 C1749 1.366 . S
C1750 C1751 1.414 . S
C1750 C1753 1.499 . S
C1751 H1725 0.950 . S
C1751 C1750 1.414 . S
C1751 C1752 1.374 . S
C1752 H1726 0.950 . S
C1752 C1748 1.385 . S
C1752 C1751 1.374 . S
C1753 C1750 1.499 . S
C1753 C1754 1.373 . S
C1753 C1755 1.389 . S
C1754 H1727 0.950 . S
C1754 C1740 1.377 1_556 S
C1754 C1753 1.373 . S
C1755 C1739 1.377 1_556 S
C1755 C1753 1.389 . S
C1755 C1756 1.524 . S
C1756 C1755 1.524 . S
C1756 C1757 1.397 . S
C1756 C1761 1.363 . S
C1757 H1728 0.950 . S
C1757 C1756 1.397 . S
C1757 C1758 1.334 . S
C1758 H1729 0.950 . S
C1758 C1757 1.334 . S
C1758 C1759 1.287 . S
C1759 C1758 1.287 . S
C1759 C1760 1.505 1_655 S
C1759 H1762 0.999 1_655 S
C1760 H1730 0.995 . S
C1760 C1759 1.505 1_455 S
C1760 C1761 1.383 1_455 S
C1761 H1731 0.950 . S
C1761 C1756 1.363 . S
C1761 C1760 1.383 1_655 S
H1762 C1759 0.999 1_455 S
H1763 C1744 0.913 . S
H1764 C1782 0.951 . S
H1765 C1784 0.951 . S
H1766 C1786 0.950 . S
H1767 C1787 0.950 . S
H1768 C1789 0.950 . S
H1769 C1792 0.950 . S
H1770 C1793 0.950 . S
H1771 C1795 0.950 . S
H1772 C1796 0.950 . S
H1773 C1797 0.951 . S
H1774 C1799 0.951 . S
H1775 C1801 0.950 . S
H1776 C1802 0.950 . S
H1777 C1804 0.950 . S
H1778 C1807 0.950 . S
H1779 C1808 0.950 . S
H1780 C1810 0.950 . S
H1781 C1811 0.950 . S
C1782 H1764 0.951 . S
C1782 C1783 1.366 . S
C1782 C1784 1.388 . S
C1783 C1782 1.366 . S
C1783 C1787 1.385 . S
C1784 H1765 0.951 . S
C1784 C1782 1.388 . S
C1784 C1785 1.366 . S
C1785 C1784 1.366 . S
C1785 C1786 1.414 . S
C1785 C1788 1.499 . S
C1786 H1766 0.950 . S
C1786 C1785 1.414 . S
C1786 C1787 1.374 . S
C1787 H1767 0.950 . S
C1787 C1783 1.385 . S
C1787 C1786 1.374 . S
C1788 C1785 1.499 . S
C1788 C1789 1.373 . S
C1788 C1790 1.389 . S
C1789 H1768 0.950 . S
C1789 C1788 1.373 . S
C1789 C1805 1.377 . S
C1790 C1788 1.389 . S
C1790 C1791 1.524 . S
C1790 C1804 1.377 . S
C1791 C1790 1.524 . S
C1791 C1792 1.397 . S
C1791 C1796 1.363 . S
C1792 H1769 0.950 . S
C1792 C1791 1.397 . S
C1792 C1793 1.334 . S
C1793 H1770 0.950 . S
C1793 C1792 1.334 . S
C1793 C1794 1.287 . S
C1794 C1793 1.287 . S
C1794 C1795 1.524 . S
C1794 H1813 0.913 . S
C1795 H1771 0.950 . S
C1795 C1794 1.524 . S
C1795 C1796 1.415 . S
C1796 H1772 0.950 . S
C1796 C1791 1.363 . S
C1796 C1795 1.415 . S
C1797 H1773 0.951 . S
C1797 C1798 1.366 . S
C1797 C1799 1.388 . S
C1798 C1797 1.366 . S
C1798 C1802 1.385 . S
C1799 H1774 0.951 . S
C1799 C1797 1.388 . S
C1799 C1800 1.366 . S
C1800 C1799 1.366 . S
C1800 C1801 1.414 . S
C1800 C1803 1.499 . S
C1801 H1775 0.950 . S
C1801 C1800 1.414 . S
C1801 C1802 1.374 . S
C1802 H1776 0.950 . S
C1802 C1798 1.385 . S
C1802 C1801 1.374 . S
C1803 C1800 1.499 . S
C1803 C1804 1.373 . S
C1803 C1805 1.389 . S
C1804 H1777 0.950 . S
C1804 C1790 1.377 . S
C1804 C1803 1.373 . S
C1805 C1789 1.377 . S
C1805 C1803 1.389 . S
C1805 C1806 1.524 . S
C1806 C1805 1.524 . S
C1806 C1807 1.397 . S
C1806 C1811 1.363 . S
C1807 H1778 0.950 . S
C1807 C1806 1.397 . S
C1807 C1808 1.334 . S
C1808 H1779 0.950 . S
C1808 C1807 1.334 . S
C1808 C1809 1.287 . S
C1809 C1808 1.287 . S
C1809 C1810 1.524 . S
C1809 H1812 0.999 . S
C1810 H1780 0.950 . S
C1810 C1809 1.524 . S
C1810 C1811 1.415 . S
C1811 H1781 0.950 . S
C1811 C1806 1.363 . S
C1811 C1810 1.415 . S
H1812 C1809 0.999 . S
H1813 C1794 0.913 . S
H1814 C1832 0.951 . S
H1815 C1834 0.951 . S
H1816 C1836 0.950 . S
H1817 C1837 0.950 . S
H1818 C1839 0.950 . S
H1819 C1842 0.950 . S
H1820 C1843 0.950 . S
H1821 C1845 0.950 . S
H1822 C1846 0.950 . S
H1823 C1847 0.951 . S
H1824 C1849 0.951 . S
H1825 C1851 0.950 . S
H1826 C1852 0.950 . S
H1827 C1854 0.950 . S
H1828 C1857 0.950 . S
H1829 C1858 0.950 . S
H1830 C1860 0.950 . S
H1831 C1861 0.950 . S
C1832 H1814 0.951 . S
C1832 C1833 1.366 . S
C1832 C1834 1.388 . S
C1833 C1832 1.366 . S
C1833 C1837 1.385 . S
C1834 H1815 0.951 . S
C1834 C1832 1.388 . S
C1834 C1835 1.366 . S
C1835 C1834 1.366 . S
C1835 C1836 1.414 . S
C1835 C1838 1.499 . S
C1836 H1816 0.950 . S
C1836 C1835 1.414 . S
C1836 C1837 1.374 . S
C1837 H1817 0.950 . S
C1837 C1833 1.385 . S
C1837 C1836 1.374 . S
C1838 C1835 1.499 . S
C1838 C1839 1.373 . S
C1838 C1840 1.389 . S
C1839 H1818 0.950 . S
C1839 C1838 1.373 . S
C1839 C1855 1.377 . S
C1840 C1838 1.389 . S
C1840 C1841 1.524 . S
C1840 C1854 1.377 . S
C1841 C1840 1.524 . S
C1841 C1842 1.397 . S
C1841 C1846 1.363 . S
C1842 H1819 0.950 . S
C1842 C1841 1.397 . S
C1842 C1843 1.334 . S
C1843 H1820 0.950 . S
C1843 C1842 1.334 . S
C1843 C1844 1.287 . S
C1844 C1843 1.287 . S
C1844 C1845 1.524 . S
C1844 H1863 0.913 . S
C1845 H1821 0.950 . S
C1845 C1844 1.524 . S
C1845 C1846 1.415 . S
C1846 H1822 0.950 . S
C1846 C1841 1.363 . S
C1846 C1845 1.415 . S
C1847 H1823 0.951 . S
C1847 C1848 1.366 . S
C1847 C1849 1.388 . S
C1848 C1847 1.366 . S
C1848 C1852 1.385 . S
C1849 H1824 0.951 . S
C1849 C1847 1.388 . S
C1849 C1850 1.366 . S
C1850 C1849 1.366 . S
C1850 C1851 1.414 . S
C1850 C1853 1.499 . S
C1851 H1825 0.950 . S
C1851 C1850 1.414 . S
C1851 C1852 1.374 . S
C1852 H1826 0.950 . S
C1852 C1848 1.385 . S
C1852 C1851 1.374 . S
C1853 C1850 1.499 . S
C1853 C1854 1.373 . S
C1853 C1855 1.389 . S
C1854 H1827 0.950 . S
C1854 C1840 1.377 . S
C1854 C1853 1.373 . S
C1855 C1839 1.377 . S
C1855 C1853 1.389 . S
C1855 C1856 1.524 . S
C1856 C1855 1.524 . S
C1856 C1857 1.397 . S
C1856 C1861 1.363 . S
C1857 H1828 0.950 . S
C1857 C1856 1.397 . S
C1857 C1858 1.334 . S
C1858 H1829 0.950 . S
C1858 C1857 1.334 . S
C1858 C1859 1.287 . S
C1859 C1858 1.287 . S
C1859 C1860 1.524 . S
C1859 H1862 0.999 . S
C1860 H1830 0.950 . S
C1860 C1859 1.524 . S
C1860 C1861 1.415 . S
C1861 H1831 0.950 . S
C1861 C1856 1.363 . S
C1861 C1860 1.415 . S
H1862 C1859 0.999 . S
H1863 C1844 0.913 . S
H1864 C1882 0.951 . S
H1865 C1884 0.951 . S
H1866 C1886 0.950 . S
H1867 C1887 0.950 . S
H1868 C1889 0.950 . S
H1869 C1892 0.950 . S
H1870 C1893 0.950 . S
H1871 C1895 0.950 . S
H1872 C1896 0.950 . S
H1873 C1897 0.951 . S
H1874 C1899 0.951 . S
H1875 C1901 0.950 . S
H1876 C1902 0.950 . S
H1877 C1904 0.950 . S
H1878 C1907 0.950 . S
H1879 C1908 0.950 . S
H1880 C1910 0.950 . S
H1881 C1911 0.950 . S
C1882 H1864 0.951 . S
C1882 C1883 1.366 . S
C1882 C1884 1.388 . S
C1883 C1882 1.366 . S
C1883 C1887 1.385 . S
C1884 H1865 0.951 . S
C1884 C1882 1.388 . S
C1884 C1885 1.366 . S
C1885 C1884 1.366 . S
C1885 C1886 1.414 . S
C1885 C1888 1.499 . S
C1886 H1866 0.950 . S
C1886 C1885 1.414 . S
C1886 C1887 1.374 . S
C1887 H1867 0.950 . S
C1887 C1883 1.385 . S
C1887 C1886 1.374 . S
C1888 C1885 1.499 . S
C1888 C1889 1.373 . S
C1888 C1890 1.389 . S
C1889 H1868 0.950 . S
C1889 C1888 1.373 . S
C1889 C1905 1.377 . S
C1890 C1888 1.389 . S
C1890 C1891 1.524 . S
C1890 C1904 1.377 . S
C1891 C1890 1.524 . S
C1891 C1892 1.397 . S
C1891 C1896 1.363 . S
C1892 H1869 0.950 . S
C1892 C1891 1.397 . S
C1892 C1893 1.334 . S
C1893 H1870 0.950 . S
C1893 C1892 1.334 . S
C1893 C1894 1.287 1_455 S
C1894 C1893 1.287 1_655 S
C1894 C1895 1.524 . S
C1894 H1913 0.913 . S
C1895 H1871 0.950 . S
C1895 C1894 1.524 . S
C1895 C1896 1.415 1_655 S
C1896 H1872 0.950 . S
C1896 C1891 1.363 . S
C1896 C1895 1.415 1_455 S
C1897 H1873 0.951 . S
C1897 C1898 1.366 . S
C1897 C1899 1.388 . S
C1898 C1897 1.366 . S
C1898 C1902 1.385 . S
C1899 H1874 0.951 . S
C1899 C1897 1.388 . S
C1899 C1900 1.366 . S
C1900 C1899 1.366 . S
C1900 C1901 1.414 . S
C1900 C1903 1.499 . S
C1901 H1875 0.950 . S
C1901 C1900 1.414 . S
C1901 C1902 1.374 . S
C1902 H1876 0.950 . S
C1902 C1898 1.385 . S
C1902 C1901 1.374 . S
C1903 C1900 1.499 . S
C1903 C1904 1.373 . S
C1903 C1905 1.389 . S
C1904 H1877 0.950 . S
C1904 C1890 1.377 . S
C1904 C1903 1.373 . S
C1905 C1889 1.377 . S
C1905 C1903 1.389 . S
C1905 C1906 1.524 . S
C1906 C1905 1.524 . S
C1906 C1907 1.397 . S
C1906 C1911 1.363 . S
C1907 H1878 0.950 . S
C1907 C1906 1.397 . S
C1907 C1908 1.334 . S
C1908 H1879 0.950 . S
C1908 C1907 1.334 . S
C1908 C1909 1.287 . S
C1909 C1908 1.287 . S
C1909 C1910 1.524 . S
C1909 H1912 0.999 . S
C1910 H1880 0.950 . S
C1910 C1909 1.524 . S
C1910 C1911 1.415 . S
C1911 H1881 0.950 . S
C1911 C1906 1.363 . S
C1911 C1910 1.415 . S
H1912 C1909 0.999 . S
H1913 C1894 0.913 . S
H1914 C1932 0.951 . S
H1915 C1934 0.951 . S
H1916 C1936 0.950 . S
H1917 C1937 0.950 . S
H1918 C1939 0.950 . S
H1919 C1942 0.950 . S
H1920 C1943 0.950 . S
H1921 C1945 0.950 . S
H1922 C1946 0.950 . S
H1923 C1947 0.951 . S
H1924 C1949 0.951 . S
H1925 C1951 0.950 . S
H1926 C1952 0.950 . S
H1927 C1954 0.950 . S
H1928 C1957 0.950 . S
H1929 C1958 0.950 . S
H1930 C1960 0.950 . S
H1931 C1961 0.950 . S
C1932 H1914 0.951 . S
C1932 C1933 1.366 . S
C1932 C1934 1.388 . S
C1933 C1932 1.366 . S
C1933 C1937 1.385 . S
C1934 H1915 0.951 . S
C1934 C1932 1.388 . S
C1934 C1935 1.366 . S
C1935 C1934 1.366 . S
C1935 C1936 1.414 . S
C1935 C1938 1.499 . S
C1936 H1916 0.950 . S
C1936 C1935 1.414 . S
C1936 C1937 1.374 . S
C1937 H1917 0.950 . S
C1937 C1933 1.385 . S
C1937 C1936 1.374 . S
C1938 C1935 1.499 . S
C1938 C1939 1.373 . S
C1938 C1940 1.389 . S
C1939 H1918 0.950 . S
C1939 C1938 1.373 . S
C1939 C1955 1.377 . S
C1940 C1938 1.389 . S
C1940 C1941 1.524 . S
C1940 C1954 1.377 . S
C1941 C1940 1.524 . S
C1941 C1942 1.397 . S
C1941 C1946 1.363 . S
C1942 H1919 0.950 . S
C1942 C1941 1.397 . S
C1942 C1943 1.334 . S
C1943 H1920 0.950 . S
C1943 C1942 1.334 . S
C1943 C1944 1.216 1_655 S
C1944 C1943 1.216 1_455 S
C1944 C1945 1.542 . S
C1944 H1963 0.977 . S
C1945 H1921 0.950 . S
C1945 C1944 1.542 . S
C1945 C1946 1.415 1_455 S
C1946 H1922 0.950 . S
C1946 C1941 1.363 . S
C1946 C1945 1.415 1_655 S
C1947 H1923 0.951 . S
C1947 C1948 1.366 . S
C1947 C1949 1.388 . S
C1948 C1947 1.366 . S
C1948 C1952 1.385 . S
C1949 H1924 0.951 . S
C1949 C1947 1.388 . S
C1949 C1950 1.366 . S
C1950 C1949 1.366 . S
C1950 C1951 1.414 . S
C1950 C1953 1.499 . S
C1951 H1925 0.950 . S
C1951 C1950 1.414 . S
C1951 C1952 1.374 . S
C1952 H1926 0.950 . S
C1952 C1948 1.385 . S
C1952 C1951 1.374 . S
C1953 C1950 1.499 . S
C1953 C1954 1.373 . S
C1953 C1955 1.389 . S
C1954 H1927 0.950 . S
C1954 C1940 1.377 . S
C1954 C1953 1.373 . S
C1955 C1939 1.377 . S
C1955 C1953 1.389 . S
C1955 C1956 1.524 . S
C1956 C1955 1.524 . S
C1956 C1957 1.397 . S
C1956 C1961 1.363 . S
C1957 H1928 0.950 . S
C1957 C1956 1.397 . S
C1957 C1958 1.334 . S
C1958 H1929 0.950 . S
C1958 C1957 1.334 . S
C1958 C1959 1.287 . S
C1959 C1958 1.287 . S
C1959 C1960 1.524 . S
C1959 H1962 0.999 . S
C1960 H1930 0.950 . S
C1960 C1959 1.524 . S
C1960 C1961 1.415 . S
C1961 H1931 0.950 . S
C1961 C1956 1.363 . S
C1961 C1960 1.415 . S
H1962 C1959 0.999 . S
H1963 C1944 0.977 . S
H1964 C1982 0.951 . S
H1965 C1984 0.951 . S
H1966 C1986 0.950 . S
H1967 C1987 0.950 . S
H1968 C1989 0.950 . S
H1969 C1992 0.950 . S
H1970 C1993 0.950 . S
H1971 C1995 0.950 . S
H1972 C1996 0.950 . S
H1973 C1997 0.951 . S
H1974 C1999 0.951 . S
H1975 C2001 0.950 . S
H1976 C2002 0.950 . S
H1977 C2004 0.950 . S
H1978 C2007 0.950 . S
H1979 C2008 0.950 . S
H1980 C2010 0.950 . S
H1981 C2011 0.950 . S
C1982 H1964 0.951 . S
C1982 C1983 1.366 . S
C1982 C1984 1.388 . S
C1983 C1982 1.366 . S
C1983 C1987 1.385 . S
C1984 H1965 0.951 . S
C1984 C1982 1.388 . S
C1984 C1985 1.366 . S
C1985 C1984 1.366 . S
C1985 C1986 1.414 . S
C1985 C1988 1.499 . S
C1986 H1966 0.950 . S
C1986 C1985 1.414 . S
C1986 C1987 1.374 . S
C1987 H1967 0.950 . S
C1987 C1983 1.385 . S
C1987 C1986 1.374 . S
C1988 C1985 1.499 . S
C1988 C1989 1.373 . S
C1988 C1990 1.389 . S
C1989 H1968 0.950 . S
C1989 C1988 1.373 . S
C1989 C2005 1.377 . S
C1990 C1988 1.389 . S
C1990 C1991 1.524 . S
C1990 C2004 1.377 . S
C1991 C1990 1.524 . S
C1991 C1992 1.397 . S
C1991 C1996 1.363 . S
C1992 H1969 0.950 . S
C1992 C1991 1.397 . S
C1992 C1993 1.334 . S
C1993 H1970 0.950 . S
C1993 C1992 1.334 . S
C1993 C1994 1.287 . S
C1994 C1993 1.287 . S
C1994 C1995 1.524 . S
C1994 H2013 0.913 . S
C1995 H1971 0.950 . S
C1995 C1994 1.524 . S
C1995 C1996 1.415 . S
C1996 H1972 0.950 . S
C1996 C1991 1.363 . S
C1996 C1995 1.415 . S
C1997 H1973 0.951 . S
C1997 C1998 1.366 . S
C1997 C1999 1.388 . S
C1998 C1997 1.366 . S
C1998 C2002 1.385 . S
C1999 H1974 0.951 . S
C1999 C1997 1.388 . S
C1999 C2000 1.366 . S
C2000 C1999 1.366 . S
C2000 C2001 1.414 . S
C2000 C2003 1.499 . S
C2001 H1975 0.950 . S
C2001 C2000 1.414 . S
C2001 C2002 1.374 . S
C2002 H1976 0.950 . S
C2002 C1998 1.385 . S
C2002 C2001 1.374 . S
C2003 C2000 1.499 . S
C2003 C2004 1.373 . S
C2003 C2005 1.389 . S
C2004 H1977 0.950 . S
C2004 C1990 1.377 . S
C2004 C2003 1.373 . S
C2005 C1989 1.377 . S
C2005 C2003 1.389 . S
C2005 C2006 1.524 . S
C2006 C2005 1.524 . S
C2006 C2007 1.397 . S
C2006 C2011 1.363 . S
C2007 H1978 0.950 . S
C2007 C2006 1.397 . S
C2007 C2008 1.334 . S
C2008 H1979 0.950 . S
C2008 C2007 1.334 . S
C2008 C2009 1.287 . S
C2009 C2008 1.287 . S
C2009 C2010 1.524 . S
C2009 H2012 0.999 . S
C2010 H1980 0.950 . S
C2010 C2009 1.524 . S
C2010 C2011 1.415 . S
C2011 H1981 0.950 . S
C2011 C2006 1.363 . S
C2011 C2010 1.415 . S
H2012 C2009 0.999 . S
H2013 C1994 0.913 . S
H2014 C2032 0.951 . S
H2015 C2034 0.951 . S
H2016 C2036 0.950 . S
H2017 C2037 0.950 . S
H2018 C2039 0.950 . S
H2019 C2042 0.950 . S
H2020 C2043 0.950 . S
H2021 C2045 0.950 . S
H2022 C2046 0.950 . S
H2023 C2047 0.951 . S
H2024 C2049 0.951 . S
H2025 C2051 0.950 . S
H2026 C2052 0.950 . S
H2027 C2054 0.950 . S
H2028 C2057 0.950 . S
H2029 C2058 0.950 . S
H2030 C2060 0.950 . S
H2031 C2061 0.950 . S
C2032 H2014 0.951 . S
C2032 C2033 1.366 . S
C2032 C2034 1.388 . S
C2033 C2032 1.366 . S
C2033 C2037 1.385 . S
C2034 H2015 0.951 . S
C2034 C2032 1.388 . S
C2034 C2035 1.366 . S
C2035 C2034 1.366 . S
C2035 C2036 1.414 . S
C2035 C2038 1.499 . S
C2036 H2016 0.950 . S
C2036 C2035 1.414 . S
C2036 C2037 1.374 . S
C2037 H2017 0.950 . S
C2037 C2033 1.385 . S
C2037 C2036 1.374 . S
C2038 C2035 1.499 . S
C2038 C2039 1.373 . S
C2038 C2040 1.389 . S
C2039 H2018 0.950 . S
C2039 C2038 1.373 . S
C2039 C2055 1.377 . S
C2040 C2038 1.389 . S
C2040 C2041 1.524 . S
C2040 C2054 1.377 . S
C2041 C2040 1.524 . S
C2041 C2042 1.397 . S
C2041 C2046 1.363 . S
C2042 H2019 0.950 . S
C2042 C2041 1.397 . S
C2042 C2043 1.334 . S
C2043 H2020 0.950 . S
C2043 C2042 1.334 . S
C2043 C2044 1.287 . S
C2044 C2043 1.287 . S
C2044 C2045 1.524 . S
C2044 H2063 0.913 . S
C2045 H2021 0.950 . S
C2045 C2044 1.524 . S
C2045 C2046 1.415 . S
C2046 H2022 0.950 . S
C2046 C2041 1.363 . S
C2046 C2045 1.415 . S
C2047 H2023 0.951 . S
C2047 C2048 1.366 . S
C2047 C2049 1.388 . S
C2048 C2047 1.366 . S
C2048 C2052 1.385 . S
C2049 H2024 0.951 . S
C2049 C2047 1.388 . S
C2049 C2050 1.366 . S
C2050 C2049 1.366 . S
C2050 C2051 1.414 . S
C2050 C2053 1.499 . S
C2051 H2025 0.950 . S
C2051 C2050 1.414 . S
C2051 C2052 1.374 . S
C2052 H2026 0.950 . S
C2052 C2048 1.385 . S
C2052 C2051 1.374 . S
C2053 C2050 1.499 . S
C2053 C2054 1.373 . S
C2053 C2055 1.389 . S
C2054 H2027 0.950 . S
C2054 C2040 1.377 . S
C2054 C2053 1.373 . S
C2055 C2039 1.377 . S
C2055 C2053 1.389 . S
C2055 C2056 1.524 . S
C2056 C2055 1.524 . S
C2056 C2057 1.397 . S
C2056 C2061 1.363 . S
C2057 H2028 0.950 . S
C2057 C2056 1.397 . S
C2057 C2058 1.334 . S
C2058 H2029 0.950 . S
C2058 C2057 1.334 . S
C2058 C2059 1.287 . S
C2059 C2058 1.287 . S
C2059 C2060 1.524 . S
C2059 H2062 0.999 . S
C2060 H2030 0.950 . S
C2060 C2059 1.524 . S
C2060 C2061 1.415 . S
C2061 H2031 0.950 . S
C2061 C2056 1.363 . S
C2061 C2060 1.415 . S
H2062 C2059 0.999 . S
H2063 C2044 0.913 . S
H2064 C2082 0.951 . S
H2065 C2084 0.951 . S
H2066 C2086 0.950 . S
H2067 C2087 0.950 . S
H2068 C2089 0.950 . S
H2069 C2092 0.950 . S
H2070 C2093 0.950 . S
H2071 C2095 0.950 . S
H2072 C2096 0.950 . S
H2073 C2097 0.951 . S
H2074 C2099 0.951 . S
H2075 C2101 0.951 . S
H2076 C2102 0.953 . S
H2077 C2104 0.950 . S
H2078 C2107 0.950 . S
H2079 C2108 0.950 . S
H2080 C2110 0.950 . S
H2081 C2111 0.950 . S
C2082 H2064 0.951 . S
C2082 C2083 1.366 1_556 S
C2082 C2084 1.388 . S
C2083 C2082 1.366 1_554 S
C2083 C2087 1.385 . S
C2084 H2065 0.951 . S
C2084 C2082 1.388 . S
C2084 C2085 1.366 1_556 S
C2085 C2084 1.366 1_554 S
C2085 C2086 1.414 . S
C2085 C2088 1.499 . S
C2086 H2066 0.950 . S
C2086 C2085 1.414 . S
C2086 C2087 1.374 . S
C2087 H2067 0.950 . S
C2087 C2083 1.385 . S
C2087 C2086 1.374 . S
C2088 C2085 1.499 . S
C2088 C2089 1.373 . S
C2088 C2090 1.389 1_554 S
C2089 H2068 0.950 . S
C2089 C2088 1.373 . S
C2089 C2105 1.377 1_545 S
C2090 C2088 1.389 1_556 S
C2090 C2091 1.524 . S
C2090 C2104 1.377 1_545 S
C2091 C2090 1.524 . S
C2091 C2092 1.397 . S
C2091 C2096 1.363 1_545 S
C2092 H2069 0.950 . S
C2092 C2091 1.397 . S
C2092 C2093 1.334 . S
C2093 H2070 0.950 . S
C2093 C2092 1.334 . S
C2093 C2094 1.287 . S
C2094 C2093 1.287 . S
C2094 C2095 1.524 1_545 S
C2094 H2113 0.913 . S
C2095 H2071 0.950 . S
C2095 C2094 1.524 1_565 S
C2095 C2096 1.415 . S
C2096 H2072 0.950 . S
C2096 C2091 1.363 1_565 S
C2096 C2095 1.415 . S
C2097 H2073 0.951 . S
C2097 C2098 1.366 . S
C2097 C2099 1.388 . S
C2098 C2097 1.366 . S
C2098 C2102 1.383 1_554 S
C2099 H2074 0.951 . S
C2099 C2097 1.388 . S
C2099 C2100 1.366 . S
C2100 C2099 1.366 . S
C2100 C2101 1.413 1_554 S
C2100 C2103 1.499 . S
C2101 H2075 0.951 . S
C2101 C2100 1.413 1_556 S
C2101 C2102 1.374 . S
C2102 H2076 0.953 . S
C2102 C2098 1.383 1_556 S
C2102 C2101 1.374 . S
C2103 C2100 1.499 . S
C2103 C2104 1.373 1_554 S
C2103 C2105 1.389 . S
C2104 H2077 0.950 . S
C2104 C2090 1.377 1_565 S
C2104 C2103 1.373 1_556 S
C2105 C2089 1.377 1_565 S
C2105 C2103 1.389 . S
C2105 C2106 1.524 . S
C2106 C2105 1.524 . S
C2106 C2107 1.397 . S
C2106 C2111 1.363 1_565 S
C2107 H2078 0.950 . S
C2107 C2106 1.397 . S
C2107 C2108 1.334 . S
C2108 H2079 0.950 . S
C2108 C2107 1.334 . S
C2108 C2109 1.287 . S
C2109 C2108 1.287 . S
C2109 C2110 1.524 1_565 S
C2109 H2112 0.999 . S
C2110 H2080 0.950 . S
C2110 C2109 1.524 1_545 S
C2110 C2111 1.415 . S
C2111 H2081 0.950 . S
C2111 C2106 1.363 1_545 S
C2111 C2110 1.415 . S
H2112 C2109 0.999 . S
H2113 C2094 0.913 . S
H2114 C2132 0.951 . S
H2115 C2134 0.951 . S
H2116 C2136 0.950 . S
H2117 C2137 0.950 . S
H2118 C2139 0.950 . S
H2119 C2142 0.950 . S
H2120 C2143 0.950 . S
H2121 C2145 0.950 . S
H2122 C2146 0.950 . S
H2123 C2147 0.951 . S
H2124 C2149 0.951 . S
H2125 C2151 0.950 . S
H2126 C2152 0.950 . S
H2127 C2154 0.950 . S
H2128 C2157 0.950 . S
H2129 C2158 0.950 . S
H2130 C2160 0.950 . S
H2131 C2161 0.950 . S
C2132 H2114 0.951 . S
C2132 C2133 1.366 . S
C2132 C2134 1.388 . S
C2133 C2132 1.366 . S
C2133 C2137 1.385 . S
C2134 H2115 0.951 . S
C2134 C2132 1.388 . S
C2134 C2135 1.366 . S
C2135 C2134 1.366 . S
C2135 C2136 1.414 . S
C2135 C2138 1.499 . S
C2136 H2116 0.950 . S
C2136 C2135 1.414 . S
C2136 C2137 1.374 . S
C2137 H2117 0.950 . S
C2137 C2133 1.385 . S
C2137 C2136 1.374 . S
C2138 C2135 1.499 . S
C2138 C2139 1.373 . S
C2138 C2140 1.389 . S
C2139 H2118 0.950 . S
C2139 C2138 1.373 . S
C2139 C2155 1.377 . S
C2140 C2138 1.389 . S
C2140 C2141 1.524 . S
C2140 C2154 1.377 . S
C2141 C2140 1.524 . S
C2141 C2142 1.397 . S
C2141 C2146 1.363 . S
C2142 H2119 0.950 . S
C2142 C2141 1.397 . S
C2142 C2143 1.334 . S
C2143 H2120 0.950 . S
C2143 C2142 1.334 . S
C2143 C2144 1.287 . S
C2144 C2143 1.287 . S
C2144 C2145 1.524 . S
C2144 H2163 0.913 . S
C2145 H2121 0.950 . S
C2145 C2144 1.524 . S
C2145 C2146 1.415 . S
C2146 H2122 0.950 . S
C2146 C2141 1.363 . S
C2146 C2145 1.415 . S
C2147 H2123 0.951 . S
C2147 C2148 1.366 . S
C2147 C2149 1.388 . S
C2148 C2147 1.366 . S
C2148 C2152 1.385 . S
C2149 H2124 0.951 . S
C2149 C2147 1.388 . S
C2149 C2150 1.366 . S
C2150 C2149 1.366 . S
C2150 C2151 1.414 . S
C2150 C2153 1.499 . S
C2151 H2125 0.950 . S
C2151 C2150 1.414 . S
C2151 C2152 1.374 . S
C2152 H2126 0.950 . S
C2152 C2148 1.385 . S
C2152 C2151 1.374 . S
C2153 C2150 1.499 . S
C2153 C2154 1.373 . S
C2153 C2155 1.389 . S
C2154 H2127 0.950 . S
C2154 C2140 1.377 . S
C2154 C2153 1.373 . S
C2155 C2139 1.377 . S
C2155 C2153 1.389 . S
C2155 C2156 1.524 . S
C2156 C2155 1.524 . S
C2156 C2157 1.397 . S
C2156 C2161 1.363 . S
C2157 H2128 0.950 . S
C2157 C2156 1.397 . S
C2157 C2158 1.334 . S
C2158 H2129 0.950 . S
C2158 C2157 1.334 . S
C2158 C2159 1.287 . S
C2159 C2158 1.287 . S
C2159 C2160 1.524 . S
C2159 H2162 0.999 . S
C2160 H2130 0.950 . S
C2160 C2159 1.524 . S
C2160 C2161 1.415 . S
C2161 H2131 0.950 . S
C2161 C2156 1.363 . S
C2161 C2160 1.415 . S
H2162 C2159 0.999 . S
H2163 C2144 0.913 . S
H2164 C2182 0.951 . S
H2165 C2184 0.951 . S
H2166 C2186 0.950 . S
H2167 C2187 0.950 . S
H2168 C2189 0.950 . S
H2169 C2192 0.950 . S
H2170 C2193 0.950 . S
H2171 C2195 0.950 . S
H2172 C2196 0.950 . S
H2173 C2197 0.951 . S
H2174 C2199 0.951 . S
H2175 C2201 0.950 . S
H2176 C2202 0.950 . S
H2177 C2204 0.950 . S
H2178 C2207 0.950 . S
H2179 C2208 0.950 . S
H2180 C2210 0.950 . S
H2181 C2211 0.950 . S
C2182 H2164 0.951 . S
C2182 C2183 1.366 . S
C2182 C2184 1.388 . S
C2183 C2182 1.366 . S
C2183 C2187 1.385 . S
C2184 H2165 0.951 . S
C2184 C2182 1.388 . S
C2184 C2185 1.366 . S
C2185 C2184 1.366 . S
C2185 C2186 1.414 . S
C2185 C2188 1.499 . S
C2186 H2166 0.950 . S
C2186 C2185 1.414 . S
C2186 C2187 1.374 . S
C2187 H2167 0.950 . S
C2187 C2183 1.385 . S
C2187 C2186 1.374 . S
C2188 C2185 1.499 . S
C2188 C2189 1.373 . S
C2188 C2190 1.389 . S
C2189 H2168 0.950 . S
C2189 C2188 1.373 . S
C2189 C2205 1.377 . S
C2190 C2188 1.389 . S
C2190 C2191 1.524 . S
C2190 C2204 1.377 . S
C2191 C2190 1.524 . S
C2191 C2192 1.397 . S
C2191 C2196 1.363 . S
C2192 H2169 0.950 . S
C2192 C2191 1.397 . S
C2192 C2193 1.334 . S
C2193 H2170 0.950 . S
C2193 C2192 1.334 . S
C2193 C2194 1.287 . S
C2194 C2193 1.287 . S
C2194 C2195 1.524 . S
C2194 H2213 0.913 . S
C2195 H2171 0.950 . S
C2195 C2194 1.524 . S
C2195 C2196 1.415 . S
C2196 H2172 0.950 . S
C2196 C2191 1.363 . S
C2196 C2195 1.415 . S
C2197 H2173 0.951 . S
C2197 C2198 1.366 . S
C2197 C2199 1.388 . S
C2198 C2197 1.366 . S
C2198 C2202 1.385 . S
C2199 H2174 0.951 . S
C2199 C2197 1.388 . S
C2199 C2200 1.366 . S
C2200 C2199 1.366 . S
C2200 C2201 1.414 . S
C2200 C2203 1.499 . S
C2201 H2175 0.950 . S
C2201 C2200 1.414 . S
C2201 C2202 1.374 . S
C2202 H2176 0.950 . S
C2202 C2198 1.385 . S
C2202 C2201 1.374 . S
C2203 C2200 1.499 . S
C2203 C2204 1.373 . S
C2203 C2205 1.389 . S
C2204 H2177 0.950 . S
C2204 C2190 1.377 . S
C2204 C2203 1.373 . S
C2205 C2189 1.377 . S
C2205 C2203 1.389 . S
C2205 C2206 1.524 . S
C2206 C2205 1.524 . S
C2206 C2207 1.397 . S
C2206 C2211 1.363 . S
C2207 H2178 0.950 . S
C2207 C2206 1.397 . S
C2207 C2208 1.334 . S
C2208 H2179 0.950 . S
C2208 C2207 1.334 . S
C2208 C2209 1.287 . S
C2209 C2208 1.287 . S
C2209 C2210 1.524 . S
C2209 H2212 0.999 . S
C2210 H2180 0.950 . S
C2210 C2209 1.524 . S
C2210 C2211 1.415 . S
C2211 H2181 0.950 . S
C2211 C2206 1.363 . S
C2211 C2210 1.415 . S
H2212 C2209 0.999 . S
H2213 C2194 0.913 . S
H2214 C2232 0.951 . S
H2215 C2234 0.951 . S
H2216 C2236 0.950 . S
H2217 C2237 0.950 . S
H2218 C2239 0.950 . S
H2219 C2242 0.950 . S
H2220 C2243 0.950 . S
H2221 C2245 0.950 . S
H2222 C2246 0.950 . S
H2223 C2247 0.951 . S
H2224 C2249 0.951 . S
H2225 C2251 0.950 . S
H2226 C2252 0.950 . S
H2227 C2254 0.950 . S
H2228 C2257 0.950 . S
H2229 C2258 0.950 . S
H2230 C2260 0.950 . S
H2231 C2261 0.950 . S
C2232 H2214 0.951 . S
C2232 C2233 1.366 . S
C2232 C2234 1.388 . S
C2233 C2232 1.366 . S
C2233 C2237 1.385 . S
C2234 H2215 0.951 . S
C2234 C2232 1.388 . S
C2234 C2235 1.366 . S
C2235 C2234 1.366 . S
C2235 C2236 1.414 . S
C2235 C2238 1.499 . S
C2236 H2216 0.950 . S
C2236 C2235 1.414 . S
C2236 C2237 1.374 . S
C2237 H2217 0.950 . S
C2237 C2233 1.385 . S
C2237 C2236 1.374 . S
C2238 C2235 1.499 . S
C2238 C2239 1.373 . S
C2238 C2240 1.389 . S
C2239 H2218 0.950 . S
C2239 C2238 1.373 . S
C2239 C2255 1.377 . S
C2240 C2238 1.389 . S
C2240 C2241 1.524 . S
C2240 C2254 1.377 . S
C2241 C2240 1.524 . S
C2241 C2242 1.397 . S
C2241 C2246 1.363 . S
C2242 H2219 0.950 . S
C2242 C2241 1.397 . S
C2242 C2243 1.334 . S
C2243 H2220 0.950 . S
C2243 C2242 1.334 . S
C2243 C2244 1.287 . S
C2244 C2243 1.287 . S
C2244 C2245 1.524 . S
C2244 H2263 0.913 . S
C2245 H2221 0.950 . S
C2245 C2244 1.524 . S
C2245 C2246 1.415 . S
C2246 H2222 0.950 . S
C2246 C2241 1.363 . S
C2246 C2245 1.415 . S
C2247 H2223 0.951 . S
C2247 C2248 1.366 . S
C2247 C2249 1.388 . S
C2248 C2247 1.366 . S
C2248 C2252 1.385 . S
C2249 H2224 0.951 . S
C2249 C2247 1.388 . S
C2249 C2250 1.366 . S
C2250 C2249 1.366 . S
C2250 C2251 1.414 . S
C2250 C2253 1.499 . S
C2251 H2225 0.950 . S
C2251 C2250 1.414 . S
C2251 C2252 1.374 . S
C2252 H2226 0.950 . S
C2252 C2248 1.385 . S
C2252 C2251 1.374 . S
C2253 C2250 1.499 . S
C2253 C2254 1.373 . S
C2253 C2255 1.389 . S
C2254 H2227 0.950 . S
C2254 C2240 1.377 . S
C2254 C2253 1.373 . S
C2255 C2239 1.377 . S
C2255 C2253 1.389 . S
C2255 C2256 1.524 . S
C2256 C2255 1.524 . S
C2256 C2257 1.397 . S
C2256 C2261 1.363 . S
C2257 H2228 0.950 . S
C2257 C2256 1.397 . S
C2257 C2258 1.334 . S
C2258 H2229 0.950 . S
C2258 C2257 1.334 . S
C2258 C2259 1.287 . S
C2259 C2258 1.287 . S
C2259 C2260 1.524 . S
C2259 H2262 0.999 . S
C2260 H2230 0.950 . S
C2260 C2259 1.524 . S
C2260 C2261 1.415 . S
C2261 H2231 0.950 . S
C2261 C2256 1.363 . S
C2261 C2260 1.415 . S
H2262 C2259 0.999 . S
H2263 C2244 0.913 . S
H2264 C2282 0.951 . S
H2265 C2284 0.951 . S
H2266 C2286 0.950 . S
H2267 C2287 0.950 . S
H2268 C2289 0.950 . S
H2269 C2292 0.950 . S
H2270 C2293 0.950 . S
H2271 C2295 0.950 . S
H2272 C2296 0.950 . S
H2273 C2297 0.951 . S
H2274 C2299 0.951 . S
H2275 C2301 0.950 . S
H2276 C2302 0.950 . S
H2277 C2304 0.950 . S
H2278 C2307 0.950 . S
H2279 C2308 0.950 . S
H2280 C2310 0.950 . S
H2281 C2311 0.950 . S
C2282 H2264 0.951 . S
C2282 C2283 1.366 . S
C2282 C2284 1.388 . S
C2283 C2282 1.366 . S
C2283 C2287 1.385 . S
C2284 H2265 0.951 . S
C2284 C2282 1.388 . S
C2284 C2285 1.366 . S
C2285 C2284 1.366 . S
C2285 C2286 1.414 . S
C2285 C2288 1.499 . S
C2286 H2266 0.950 . S
C2286 C2285 1.414 . S
C2286 C2287 1.374 . S
C2287 H2267 0.950 . S
C2287 C2283 1.385 . S
C2287 C2286 1.374 . S
C2288 C2285 1.499 . S
C2288 C2289 1.373 . S
C2288 C2290 1.389 . S
C2289 H2268 0.950 . S
C2289 C2288 1.373 . S
C2289 C2305 1.377 . S
C2290 C2288 1.389 . S
C2290 C2291 1.524 . S
C2290 C2304 1.377 . S
C2291 C2290 1.524 . S
C2291 C2292 1.397 . S
C2291 C2296 1.363 . S
C2292 H2269 0.950 . S
C2292 C2291 1.397 . S
C2292 C2293 1.334 . S
C2293 H2270 0.950 . S
C2293 C2292 1.334 . S
C2293 C2294 1.287 . S
C2294 C2293 1.287 . S
C2294 C2295 1.524 . S
C2294 H2313 0.913 . S
C2295 H2271 0.950 . S
C2295 C2294 1.524 . S
C2295 C2296 1.415 . S
C2296 H2272 0.950 . S
C2296 C2291 1.363 . S
C2296 C2295 1.415 . S
C2297 H2273 0.951 . S
C2297 C2298 1.366 . S
C2297 C2299 1.388 . S
C2298 C2297 1.366 . S
C2298 C2302 1.385 . S
C2299 H2274 0.951 . S
C2299 C2297 1.388 . S
C2299 C2300 1.366 . S
C2300 C2299 1.366 . S
C2300 C2301 1.414 . S
C2300 C2303 1.499 . S
C2301 H2275 0.950 . S
C2301 C2300 1.414 . S
C2301 C2302 1.374 . S
C2302 H2276 0.950 . S
C2302 C2298 1.385 . S
C2302 C2301 1.374 . S
C2303 C2300 1.499 . S
C2303 C2304 1.373 . S
C2303 C2305 1.389 . S
C2304 H2277 0.950 . S
C2304 C2290 1.377 . S
C2304 C2303 1.373 . S
C2305 C2289 1.377 . S
C2305 C2303 1.389 . S
C2305 C2306 1.524 . S
C2306 C2305 1.524 . S
C2306 C2307 1.397 . S
C2306 C2311 1.363 . S
C2307 H2278 0.950 . S
C2307 C2306 1.397 . S
C2307 C2308 1.334 . S
C2308 H2279 0.950 . S
C2308 C2307 1.334 . S
C2308 C2309 1.287 . S
C2309 C2308 1.287 . S
C2309 C2310 1.524 . S
C2309 H2312 0.999 . S
C2310 H2280 0.950 . S
C2310 C2309 1.524 . S
C2310 C2311 1.415 . S
C2311 H2281 0.950 . S
C2311 C2306 1.363 . S
C2311 C2310 1.415 . S
H2312 C2309 0.999 . S
H2313 C2294 0.913 . S
H2314 C2332 0.951 . S
H2315 C2334 0.951 . S
H2316 C2336 0.950 . S
H2317 C2337 0.950 . S
H2318 C2339 0.950 . S
H2319 C2342 0.950 . S
H2320 C2343 0.950 . S
H2321 C2345 0.950 . S
H2322 C2346 0.950 . S
H2323 C2347 0.951 . S
H2324 C2349 0.951 . S
H2325 C2351 0.950 . S
H2326 C2352 0.950 . S
H2327 C2354 0.950 . S
H2328 C2357 0.950 . S
H2329 C2358 0.950 . S
H2330 C2360 0.950 . S
H2331 C2361 0.950 . S
C2332 H2314 0.951 . S
C2332 C2333 1.366 . S
C2332 C2334 1.388 . S
C2333 C2332 1.366 . S
C2333 C2337 1.385 . S
C2334 H2315 0.951 . S
C2334 C2332 1.388 . S
C2334 C2335 1.366 . S
C2335 C2334 1.366 . S
C2335 C2336 1.414 . S
C2335 C2338 1.499 . S
C2336 H2316 0.950 . S
C2336 C2335 1.414 . S
C2336 C2337 1.374 . S
C2337 H2317 0.950 . S
C2337 C2333 1.385 . S
C2337 C2336 1.374 . S
C2338 C2335 1.499 . S
C2338 C2339 1.373 . S
C2338 C2340 1.389 . S
C2339 H2318 0.950 . S
C2339 C2338 1.373 . S
C2339 C2355 1.377 . S
C2340 C2338 1.389 . S
C2340 C2341 1.524 . S
C2340 C2354 1.377 . S
C2341 C2340 1.524 . S
C2341 C2342 1.397 . S
C2341 C2346 1.363 . S
C2342 H2319 0.950 . S
C2342 C2341 1.397 . S
C2342 C2343 1.334 . S
C2343 H2320 0.950 . S
C2343 C2342 1.334 . S
C2343 C2344 1.287 . S
C2344 C2343 1.287 . S
C2344 C2345 1.524 . S
C2344 H2363 0.913 . S
C2345 H2321 0.950 . S
C2345 C2344 1.524 . S
C2345 C2346 1.415 . S
C2346 H2322 0.950 . S
C2346 C2341 1.363 . S
C2346 C2345 1.415 . S
C2347 H2323 0.951 . S
C2347 C2348 1.366 . S
C2347 C2349 1.388 . S
C2348 C2347 1.366 . S
C2348 C2352 1.385 . S
C2349 H2324 0.951 . S
C2349 C2347 1.388 . S
C2349 C2350 1.366 . S
C2350 C2349 1.366 . S
C2350 C2351 1.414 . S
C2350 C2353 1.499 . S
C2351 H2325 0.950 . S
C2351 C2350 1.414 . S
C2351 C2352 1.374 . S
C2352 H2326 0.950 . S
C2352 C2348 1.385 . S
C2352 C2351 1.374 . S
C2353 C2350 1.499 . S
C2353 C2354 1.373 . S
C2353 C2355 1.389 . S
C2354 H2327 0.950 . S
C2354 C2340 1.377 . S
C2354 C2353 1.373 . S
C2355 C2339 1.377 . S
C2355 C2353 1.389 . S
C2355 C2356 1.524 . S
C2356 C2355 1.524 . S
C2356 C2357 1.397 . S
C2356 C2361 1.363 . S
C2357 H2328 0.950 . S
C2357 C2356 1.397 . S
C2357 C2358 1.334 . S
C2358 H2329 0.950 . S
C2358 C2357 1.334 . S
C2358 C2359 1.287 . S
C2359 C2358 1.287 . S
C2359 C2360 1.524 . S
C2359 H2362 0.999 . S
C2360 H2330 0.950 . S
C2360 C2359 1.524 . S
C2360 C2361 1.415 . S
C2361 H2331 0.950 . S
C2361 C2356 1.363 . S
C2361 C2360 1.415 . S
H2362 C2359 0.999 . S
H2363 C2344 0.913 . S
H2364 C2382 0.951 . S
H2365 C2384 0.951 . S
H2366 C2386 0.950 . S
H2367 C2387 0.950 . S
H2368 C2389 0.950 . S
H2369 C2392 0.950 . S
H2370 C2393 0.950 . S
H2371 C2395 0.950 . S
H2372 C2396 0.950 . S
H2373 C2397 0.951 . S
H2374 C2399 0.951 . S
H2375 C2401 0.950 . S
H2376 C2402 0.950 . S
H2377 C2404 0.950 . S
H2378 C2407 0.950 . S
H2379 C2408 0.950 . S
H2380 C2410 0.950 . S
H2381 C2411 0.950 . S
C2382 H2364 0.951 . S
C2382 C2383 1.366 . S
C2382 C2384 1.388 . S
C2383 C2382 1.366 . S
C2383 C2387 1.385 . S
C2384 H2365 0.951 . S
C2384 C2382 1.388 . S
C2384 C2385 1.366 . S
C2385 C2384 1.366 . S
C2385 C2386 1.414 . S
C2385 C2388 1.499 . S
C2386 H2366 0.950 . S
C2386 C2385 1.414 . S
C2386 C2387 1.374 . S
C2387 H2367 0.950 . S
C2387 C2383 1.385 . S
C2387 C2386 1.374 . S
C2388 C2385 1.499 . S
C2388 C2389 1.373 1_655 S
C2388 C2390 1.424 . S
C2389 H2368 0.950 . S
C2389 C2388 1.373 1_455 S
C2389 C2405 1.341 1_565 S
C2390 C2388 1.424 . S
C2390 C2391 1.523 1_565 S
C2390 C2404 1.341 1_565 S
C2391 C2390 1.523 1_545 S
C2391 C2392 1.394 1_545 S
C2391 C2396 1.369 . S
C2392 H2369 0.950 . S
C2392 C2391 1.394 1_565 S
C2392 C2393 1.334 . S
C2393 H2370 0.950 . S
C2393 C2392 1.334 . S
C2393 C2394 1.287 1_565 S
C2394 C2393 1.287 1_545 S
C2394 C2395 1.524 . S
C2394 H2413 0.913 . S
C2395 H2371 0.950 . S
C2395 C2394 1.524 . S
C2395 C2396 1.415 . S
C2396 H2372 0.950 . S
C2396 C2391 1.369 . S
C2396 C2395 1.415 . S
C2397 H2373 0.951 . S
C2397 C2398 1.366 . S
C2397 C2399 1.388 . S
C2398 C2397 1.366 . S
C2398 C2402 1.385 . S
C2399 H2374 0.951 . S
C2399 C2397 1.388 . S
C2399 C2400 1.366 . S
C2400 C2399 1.366 . S
C2400 C2401 1.414 . S
C2400 C2403 1.499 . S
C2401 H2375 0.950 . S
C2401 C2400 1.414 . S
C2401 C2402 1.374 . S
C2402 H2376 0.950 . S
C2402 C2398 1.385 . S
C2402 C2401 1.374 . S
C2403 C2400 1.499 . S
C2403 C2404 1.373 1_455 S
C2403 C2405 1.424 . S
C2404 H2377 0.950 . S
C2404 C2390 1.341 1_545 S
C2404 C2403 1.373 1_655 S
C2405 C2389 1.341 1_545 S
C2405 C2403 1.424 . S
C2405 C2406 1.523 1_545 S
C2406 C2405 1.523 1_565 S
C2406 C2407 1.394 1_565 S
C2406 C2411 1.369 . S
C2407 H2378 0.950 . S
C2407 C2406 1.394 1_545 S
C2407 C2408 1.334 . S
C2408 H2379 0.950 . S
C2408 C2407 1.334 . S
C2408 C2409 1.287 1_545 S
C2409 C2408 1.287 1_565 S
C2409 C2410 1.524 . S
C2409 H2412 0.999 . S
C2410 H2380 0.950 . S
C2410 C2409 1.524 . S
C2410 C2411 1.415 . S
C2411 H2381 0.950 . S
C2411 C2406 1.369 . S
C2411 C2410 1.415 . S
H2412 C2409 0.999 . S
H2413 C2394 0.913 . S
H2414 C2432 0.951 . S
H2415 C2434 0.916 1_455 S
H2416 C2436 0.951 . S
H2417 C2437 0.953 . S
H2418 C2439 0.950 . S
H2419 C2442 0.950 . S
H2420 C2443 0.950 . S
H2421 C2445 0.950 . S
H2422 C2446 0.950 . S
H2423 C2447 0.951 . S
H2424 C2449 0.916 1_655 S
H2425 C2451 0.950 . S
H2426 C2452 0.950 . S
H2427 C2454 0.950 . S
H2428 C2457 0.950 . S
H2429 C2458 0.950 . S
H2430 C2460 0.950 . S
H2431 C2461 0.950 . S
C2432 H2414 0.951 . S
C2432 C2433 1.366 . S
C2432 C2434 1.388 . S
C2433 C2432 1.366 . S
C2433 C2437 1.383 1_554 S
C2434 H2415 0.916 1_655 S
C2434 C2432 1.388 . S
C2434 C2435 1.366 . S
C2435 C2434 1.366 . S
C2435 C2436 1.413 1_554 S
C2435 C2438 1.499 . S
C2436 H2416 0.951 . S
C2436 C2435 1.413 1_556 S
C2436 C2437 1.374 . S
C2437 H2417 0.953 . S
C2437 C2433 1.383 1_556 S
C2437 C2436 1.374 . S
C2438 C2435 1.499 . S
C2438 C2439 1.373 1_554 S
C2438 C2440 1.389 1_655 S
C2439 H2418 0.950 . S
C2439 C2438 1.373 1_556 S
C2439 C2455 1.377 . S
C2440 C2438 1.389 1_455 S
C2440 C2441 1.524 . S
C2440 C2454 1.377 . S
C2441 C2440 1.524 . S
C2441 C2442 1.397 1_455 S
C2441 C2446 1.363 . S
C2442 H2419 0.950 . S
C2442 C2441 1.397 1_655 S
C2442 C2443 1.334 . S
C2443 H2420 0.950 . S
C2443 C2442 1.334 . S
C2443 C2444 1.287 1_655 S
C2444 C2443 1.287 1_455 S
C2444 C2445 1.524 . S
C2444 H2463 0.913 . S
C2445 H2421 0.950 . S
C2445 C2444 1.524 . S
C2445 C2446 1.415 . S
C2446 H2422 0.950 . S
C2446 C2441 1.363 . S
C2446 C2445 1.415 . S
C2447 H2423 0.951 . S
C2447 C2448 1.366 1_556 S
C2447 C2449 1.388 . S
C2448 C2447 1.366 1_554 S
C2448 C2452 1.385 . S
C2449 H2424 0.916 1_455 S
C2449 C2447 1.388 . S
C2449 C2450 1.366 1_556 S
C2450 C2449 1.366 1_554 S
C2450 C2451 1.414 . S
C2450 C2453 1.499 . S
C2451 H2425 0.950 . S
C2451 C2450 1.414 . S
C2451 C2452 1.374 . S
C2452 H2426 0.950 . S
C2452 C2448 1.385 . S
C2452 C2451 1.374 . S
C2453 C2450 1.499 . S
C2453 C2454 1.373 . S
C2453 C2455 1.389 1_454 S
C2454 H2427 0.950 . S
C2454 C2440 1.377 . S
C2454 C2453 1.373 . S
C2455 C2439 1.377 . S
C2455 C2453 1.389 1_656 S
C2455 C2456 1.524 . S
C2456 C2455 1.524 . S
C2456 C2457 1.397 1_655 S
C2456 C2461 1.363 . S
C2457 H2428 0.950 . S
C2457 C2456 1.397 1_455 S
C2457 C2458 1.334 . S
C2458 H2429 0.950 . S
C2458 C2457 1.334 . S
C2458 C2459 1.287 1_455 S
C2459 C2458 1.287 1_655 S
C2459 C2460 1.524 . S
C2459 H2462 0.999 . S
C2460 H2430 0.950 . S
C2460 C2459 1.524 . S
C2460 C2461 1.415 . S
C2461 H2431 0.950 . S
C2461 C2456 1.363 . S
C2461 C2460 1.415 . S
H2462 C2459 0.999 . S
H2463 C2444 0.913 . S
H2464 C2482 0.951 . S
H2465 C2484 0.951 . S
H2466 C2486 0.950 . S
H2467 C2487 0.950 . S
H2468 C2489 0.950 . S
H2469 C2492 0.950 . S
H2470 C2493 0.950 . S
H2471 C2495 0.950 . S
H2472 C2496 0.950 . S
H2473 C2497 0.951 . S
H2474 C2499 0.951 . S
H2475 C2501 0.950 . S
H2476 C2502 0.950 . S
H2477 C2504 0.950 . S
H2478 C2507 0.950 . S
H2479 C2508 0.950 1_554 S
H2480 C2510 0.950 . S
H2481 C2511 0.950 . S
C2482 H2464 0.951 . S
C2482 C2483 1.366 . S
C2482 C2484 1.388 . S
C2483 C2482 1.366 . S
C2483 C2487 1.385 . S
C2484 H2465 0.951 . S
C2484 C2482 1.388 . S
C2484 C2485 1.366 . S
C2485 C2484 1.366 . S
C2485 C2486 1.414 . S
C2485 C2488 1.499 . S
C2486 H2466 0.950 . S
C2486 C2485 1.414 . S
C2486 C2487 1.374 . S
C2487 H2467 0.950 . S
C2487 C2483 1.385 . S
C2487 C2486 1.374 . S
C2488 C2485 1.499 . S
C2488 C2489 1.373 1_545 S
C2488 C2490 1.389 . S
C2489 H2468 0.950 . S
C2489 C2488 1.373 1_565 S
C2489 C2505 1.377 . S
C2490 C2488 1.389 . S
C2490 C2491 1.524 . S
C2490 C2504 1.377 1_545 S
C2491 C2490 1.524 . S
C2491 C2492 1.397 . S
C2491 C2496 1.363 . S
C2492 H2469 0.950 . S
C2492 C2491 1.397 . S
C2492 C2493 1.334 . S
C2493 H2470 0.950 . S
C2493 C2492 1.334 . S
C2493 C2494 1.287 . S
C2494 C2493 1.287 . S
C2494 C2495 1.524 . S
C2494 H2513 0.913 . S
C2495 H2471 0.950 . S
C2495 C2494 1.524 . S
C2495 C2496 1.415 . S
C2496 H2472 0.950 . S
C2496 C2491 1.363 . S
C2496 C2495 1.415 . S
C2497 H2473 0.951 . S
C2497 C2498 1.366 . S
C2497 C2499 1.388 . S
C2498 C2497 1.366 . S
C2498 C2502 1.385 . S
C2499 H2474 0.951 . S
C2499 C2497 1.388 . S
C2499 C2500 1.366 . S
C2500 C2499 1.366 . S
C2500 C2501 1.414 . S
C2500 C2503 1.499 . S
C2501 H2475 0.950 . S
C2501 C2500 1.414 . S
C2501 C2502 1.374 . S
C2502 H2476 0.950 . S
C2502 C2498 1.385 . S
C2502 C2501 1.374 . S
C2503 C2500 1.499 . S
C2503 C2504 1.373 . S
C2503 C2505 1.389 . S
C2504 H2477 0.950 . S
C2504 C2490 1.377 1_565 S
C2504 C2503 1.373 . S
C2505 C2489 1.377 . S
C2505 C2503 1.389 . S
C2505 C2506 1.524 . S
C2506 C2505 1.524 . S
C2506 C2507 1.397 . S
C2506 C2511 1.363 . S
C2507 H2478 0.950 . S
C2507 C2506 1.397 . S
C2507 C2508 1.334 . S
C2508 H2479 0.950 1_556 S
C2508 C2507 1.334 . S
C2508 C2509 1.287 . S
C2509 C2508 1.287 . S
C2509 C2510 1.524 . S
C2509 H2512 0.999 . S
C2510 H2480 0.950 . S
C2510 C2509 1.524 . S
C2510 C2511 1.415 . S
C2511 H2481 0.950 . S
C2511 C2506 1.363 . S
C2511 C2510 1.415 . S
H2512 C2509 0.999 . S
H2513 C2494 0.913 . S
H2514 C2532 0.951 . S
H2515 C2534 0.951 1_545 S
H2516 C2536 0.950 . S
H2517 C2537 0.950 . S
H2518 C2539 0.950 . S
H2519 C2542 0.950 1_565 S
H2520 C2543 0.950 1_565 S
H2521 C2545 0.950 . S
H2522 C2546 0.950 1_556 S
H2523 C2547 0.951 . S
H2524 C2549 0.951 . S
H2525 C2551 0.950 . S
H2526 C2552 0.950 . S
H2527 C2554 0.950 . S
H2528 C2557 0.950 . S
H2529 C2558 0.950 . S
H2530 C2560 0.950 . S
H2531 C2561 0.950 . S
C2532 H2514 0.951 . S
C2532 C2533 1.366 . S
C2532 C2534 1.388 . S
C2533 C2532 1.366 . S
C2533 C2537 1.385 . S
C2534 H2515 0.951 1_565 S
C2534 C2532 1.388 . S
C2534 C2535 1.366 . S
C2535 C2534 1.366 . S
C2535 C2536 1.414 . S
C2535 C2538 1.499 . S
C2536 H2516 0.950 . S
C2536 C2535 1.414 . S
C2536 C2537 1.374 . S
C2537 H2517 0.950 . S
C2537 C2533 1.385 . S
C2537 C2536 1.374 . S
C2538 C2535 1.499 . S
C2538 C2539 1.373 . S
C2538 C2540 1.389 1_565 S
C2539 H2518 0.950 . S
C2539 C2538 1.373 . S
C2539 C2555 1.377 1_565 S
C2540 C2538 1.389 1_545 S
C2540 C2541 1.524 1_556 S
C2540 C2554 1.377 . S
C2541 C2540 1.524 1_554 S
C2541 C2542 1.397 . S
C2541 C2546 1.363 . S
C2542 H2519 0.950 1_545 S
C2542 C2541 1.397 . S
C2542 C2543 1.334 . S
C2543 H2520 0.950 1_545 S
C2543 C2542 1.334 . S
C2543 C2544 1.287 . S
C2544 C2543 1.287 . S
C2544 C2545 1.524 . S
C2544 H2563 0.913 . S
C2545 H2521 0.950 . S
C2545 C2544 1.524 . S
C2545 C2546 1.415 . S
C2546 H2522 0.950 1_554 S
C2546 C2541 1.363 . S
C2546 C2545 1.415 . S
C2547 H2523 0.951 . S
C2547 C2548 1.366 . S
C2547 C2549 1.388 . S
C2548 C2547 1.366 . S
C2548 C2552 1.385 . S
C2549 H2524 0.951 . S
C2549 C2547 1.388 . S
C2549 C2550 1.366 . S
C2550 C2549 1.366 . S
C2550 C2551 1.414 . S
C2550 C2553 1.499 . S
C2551 H2525 0.950 . S
C2551 C2550 1.414 . S
C2551 C2552 1.374 . S
C2552 H2526 0.950 . S
C2552 C2548 1.385 . S
C2552 C2551 1.374 . S
C2553 C2550 1.499 . S
C2553 C2554 1.373 . S
C2553 C2555 1.389 . S
C2554 H2527 0.950 . S
C2554 C2540 1.377 . S
C2554 C2553 1.373 . S
C2555 C2539 1.377 1_545 S
C2555 C2553 1.389 . S
C2555 C2556 1.524 . S
C2556 C2555 1.524 . S
C2556 C2557 1.397 . S
C2556 C2561 1.363 1_545 S
C2557 H2528 0.950 . S
C2557 C2556 1.397 . S
C2557 C2558 1.334 . S
C2558 H2529 0.950 . S
C2558 C2557 1.334 . S
C2558 C2559 1.287 . S
C2559 C2558 1.287 . S
C2559 C2560 1.524 1_545 S
C2559 H2562 0.999 . S
C2560 H2530 0.950 . S
C2560 C2559 1.524 1_565 S
C2560 C2561 1.415 . S
C2561 H2531 0.950 . S
C2561 C2556 1.363 1_565 S
C2561 C2560 1.415 . S
H2562 C2559 0.999 . S
H2563 C2544 0.913 . S
H2564 C2582 0.951 . S
H2565 C2584 0.951 . S
H2566 C2586 0.950 . S
H2567 C2587 0.950 . S
H2568 C2589 0.950 . S
H2569 C2592 0.950 . S
H2570 C2593 0.950 . S
H2571 C2595 0.950 . S
H2572 C2596 0.950 . S
H2573 C2597 0.951 . S
H2574 C2599 0.951 . S
H2575 C2601 0.950 . S
H2576 C2602 0.950 . S
H2577 C2604 0.950 . S
H2578 C2607 0.950 . S
H2579 C2608 0.950 . S
H2580 C2610 0.950 . S
H2581 C2611 0.950 . S
C2582 H2564 0.951 . S
C2582 C2583 1.366 . S
C2582 C2584 1.388 . S
C2583 C2582 1.366 . S
C2583 C2587 1.385 . S
C2584 H2565 0.951 . S
C2584 C2582 1.388 . S
C2584 C2585 1.366 . S
C2585 C2584 1.366 . S
C2585 C2586 1.414 . S
C2585 C2588 1.499 . S
C2586 H2566 0.950 . S
C2586 C2585 1.414 . S
C2586 C2587 1.374 . S
C2587 H2567 0.950 . S
C2587 C2583 1.385 . S
C2587 C2586 1.374 . S
C2588 C2585 1.499 . S
C2588 C2589 1.373 . S
C2588 C2590 1.389 . S
C2589 H2568 0.950 . S
C2589 C2588 1.373 . S
C2589 C2605 1.377 . S
C2590 C2588 1.389 . S
C2590 C2591 1.524 . S
C2590 C2604 1.377 . S
C2591 C2590 1.524 . S
C2591 C2592 1.397 . S
C2591 C2596 1.363 . S
C2592 H2569 0.950 . S
C2592 C2591 1.397 . S
C2592 C2593 1.334 . S
C2593 H2570 0.950 . S
C2593 C2592 1.334 . S
C2593 C2594 1.287 . S
C2594 C2593 1.287 . S
C2594 C2595 1.524 . S
C2594 H2613 0.913 . S
C2595 H2571 0.950 . S
C2595 C2594 1.524 . S
C2595 C2596 1.415 . S
C2596 H2572 0.950 . S
C2596 C2591 1.363 . S
C2596 C2595 1.415 . S
C2597 H2573 0.951 . S
C2597 C2598 1.366 . S
C2597 C2599 1.388 . S
C2598 C2597 1.366 . S
C2598 C2602 1.385 . S
C2599 H2574 0.951 . S
C2599 C2597 1.388 . S
C2599 C2600 1.366 . S
C2600 C2599 1.366 . S
C2600 C2601 1.414 . S
C2600 C2603 1.499 . S
C2601 H2575 0.950 . S
C2601 C2600 1.414 . S
C2601 C2602 1.374 . S
C2602 H2576 0.950 . S
C2602 C2598 1.385 . S
C2602 C2601 1.374 . S
C2603 C2600 1.499 . S
C2603 C2604 1.373 . S
C2603 C2605 1.389 . S
C2604 H2577 0.950 . S
C2604 C2590 1.377 . S
C2604 C2603 1.373 . S
C2605 C2589 1.377 . S
C2605 C2603 1.389 . S
C2605 C2606 1.524 . S
C2606 C2605 1.524 . S
C2606 C2607 1.397 . S
C2606 C2611 1.363 . S
C2607 H2578 0.950 . S
C2607 C2606 1.397 . S
C2607 C2608 1.334 . S
C2608 H2579 0.950 . S
C2608 C2607 1.334 . S
C2608 C2609 1.287 1_554 S
C2609 C2608 1.287 1_556 S
C2609 C2610 1.524 . S
C2609 H2612 0.999 . S
C2610 H2580 0.950 . S
C2610 C2609 1.524 . S
C2610 C2611 1.415 1_556 S
C2611 H2581 0.950 . S
C2611 C2606 1.363 . S
C2611 C2610 1.415 1_554 S
H2612 C2609 0.999 . S
H2613 C2594 0.913 . S
H2614 C2632 0.951 . S
H2615 C2634 0.951 . S
H2616 C2636 0.950 . S
H2617 C2637 0.950 . S
H2618 C2639 0.950 . S
H2619 C2642 0.950 . S
H2620 C2643 0.950 . S
H2621 C2645 0.950 . S
H2622 C2646 0.950 . S
H2623 C2647 0.951 . S
H2624 C2649 0.951 . S
H2625 C2651 0.950 . S
H2626 C2652 0.950 . S
H2627 C2654 0.950 . S
H2628 C2657 0.950 . S
H2629 C2658 0.950 . S
H2630 C2660 0.950 . S
H2631 C2661 0.950 . S
C2632 H2614 0.951 . S
C2632 C2633 1.366 . S
C2632 C2634 1.388 . S
C2633 C2632 1.366 . S
C2633 C2637 1.385 . S
C2634 H2615 0.951 . S
C2634 C2632 1.388 . S
C2634 C2635 1.366 . S
C2635 C2634 1.366 . S
C2635 C2636 1.414 . S
C2635 C2638 1.499 . S
C2636 H2616 0.950 . S
C2636 C2635 1.414 . S
C2636 C2637 1.374 . S
C2637 H2617 0.950 . S
C2637 C2633 1.385 . S
C2637 C2636 1.374 . S
C2638 C2635 1.499 . S
C2638 C2639 1.373 . S
C2638 C2640 1.389 . S
C2639 H2618 0.950 . S
C2639 C2638 1.373 . S
C2639 C2655 1.377 . S
C2640 C2638 1.389 . S
C2640 C2641 1.524 . S
C2640 C2654 1.377 . S
C2641 C2640 1.524 . S
C2641 C2642 1.397 . S
C2641 C2646 1.363 . S
C2642 H2619 0.950 . S
C2642 C2641 1.397 . S
C2642 C2643 1.334 . S
C2643 H2620 0.950 . S
C2643 C2642 1.334 . S
C2643 C2644 1.287 . S
C2644 C2643 1.287 . S
C2644 C2645 1.524 . S
C2644 H2663 0.913 . S
C2645 H2621 0.950 . S
C2645 C2644 1.524 . S
C2645 C2646 1.415 . S
C2646 H2622 0.950 . S
C2646 C2641 1.363 . S
C2646 C2645 1.415 . S
C2647 H2623 0.951 . S
C2647 C2648 1.366 . S
C2647 C2649 1.388 . S
C2648 C2647 1.366 . S
C2648 C2652 1.385 . S
C2649 H2624 0.951 . S
C2649 C2647 1.388 . S
C2649 C2650 1.366 . S
C2650 C2649 1.366 . S
C2650 C2651 1.414 . S
C2650 C2653 1.499 . S
C2651 H2625 0.950 . S
C2651 C2650 1.414 . S
C2651 C2652 1.374 . S
C2652 H2626 0.950 . S
C2652 C2648 1.385 . S
C2652 C2651 1.374 . S
C2653 C2650 1.499 . S
C2653 C2654 1.373 . S
C2653 C2655 1.389 . S
C2654 H2627 0.950 . S
C2654 C2640 1.377 . S
C2654 C2653 1.373 . S
C2655 C2639 1.377 . S
C2655 C2653 1.389 . S
C2655 C2656 1.524 . S
C2656 C2655 1.524 . S
C2656 C2657 1.397 . S
C2656 C2661 1.363 . S
C2657 H2628 0.950 . S
C2657 C2656 1.397 . S
C2657 C2658 1.334 . S
C2658 H2629 0.950 . S
C2658 C2657 1.334 . S
C2658 C2659 1.287 . S
C2659 C2658 1.287 . S
C2659 C2660 1.524 . S
C2659 H2662 0.999 1_554 S
C2660 H2630 0.950 . S
C2660 C2659 1.524 . S
C2660 C2661 1.415 . S
C2661 H2631 0.950 . S
C2661 C2656 1.363 . S
C2661 C2660 1.415 . S
H2662 C2659 0.999 1_556 S
H2663 C2644 0.913 . S
H2664 C2682 0.951 . S
H2665 C2684 0.951 . S
H2666 C2686 0.950 . S
H2667 C2687 0.950 . S
H2668 C2689 0.950 . S
H2669 C2692 0.950 . S
H2670 C2693 0.950 . S
H2671 C2695 0.950 . S
H2672 C2696 0.950 . S
H2673 C2697 0.951 . S
H2674 C2699 0.951 . S
H2675 C2701 0.950 . S
H2676 C2702 0.950 . S
H2677 C2704 0.950 . S
H2678 C2707 0.950 . S
H2679 C2708 0.950 . S
H2680 C2710 0.950 . S
H2681 C2711 0.950 . S
C2682 H2664 0.951 . S
C2682 C2683 1.366 . S
C2682 C2684 1.388 . S
C2683 C2682 1.366 . S
C2683 C2687 1.385 . S
C2684 H2665 0.951 . S
C2684 C2682 1.388 . S
C2684 C2685 1.366 . S
C2685 C2684 1.366 . S
C2685 C2686 1.414 . S
C2685 C2688 1.499 . S
C2686 H2666 0.950 . S
C2686 C2685 1.414 . S
C2686 C2687 1.374 . S
C2687 H2667 0.950 . S
C2687 C2683 1.385 . S
C2687 C2686 1.374 . S
C2688 C2685 1.499 . S
C2688 C2689 1.373 . S
C2688 C2690 1.389 . S
C2689 H2668 0.950 . S
C2689 C2688 1.373 . S
C2689 C2705 1.377 . S
C2690 C2688 1.389 . S
C2690 C2691 1.524 . S
C2690 C2704 1.377 . S
C2691 C2690 1.524 . S
C2691 C2692 1.397 . S
C2691 C2696 1.363 . S
C2692 H2669 0.950 . S
C2692 C2691 1.397 . S
C2692 C2693 1.334 . S
C2693 H2670 0.950 . S
C2693 C2692 1.334 . S
C2693 C2694 1.287 . S
C2694 C2693 1.287 . S
C2694 C2695 1.524 . S
C2694 H2713 0.913 . S
C2695 H2671 0.950 . S
C2695 C2694 1.524 . S
C2695 C2696 1.415 . S
C2696 H2672 0.950 . S
C2696 C2691 1.363 . S
C2696 C2695 1.415 . S
C2697 H2673 0.951 . S
C2697 C2698 1.366 . S
C2697 C2699 1.388 . S
C2698 C2697 1.366 . S
C2698 C2702 1.385 . S
C2699 H2674 0.951 . S
C2699 C2697 1.388 . S
C2699 C2700 1.366 . S
C2700 C2699 1.366 . S
C2700 C2701 1.414 . S
C2700 C2703 1.499 . S
C2701 H2675 0.950 . S
C2701 C2700 1.414 . S
C2701 C2702 1.374 . S
C2702 H2676 0.950 . S
C2702 C2698 1.385 . S
C2702 C2701 1.374 . S
C2703 C2700 1.499 . S
C2703 C2704 1.373 . S
C2703 C2705 1.389 . S
C2704 H2677 0.950 . S
C2704 C2690 1.377 . S
C2704 C2703 1.373 . S
C2705 C2689 1.377 . S
C2705 C2703 1.389 . S
C2705 C2706 1.524 . S
C2706 C2705 1.524 . S
C2706 C2707 1.397 . S
C2706 C2711 1.363 . S
C2707 H2678 0.950 . S
C2707 C2706 1.397 . S
C2707 C2708 1.334 . S
C2708 H2679 0.950 . S
C2708 C2707 1.334 . S
C2708 C2709 1.287 . S
C2709 C2708 1.287 . S
C2709 C2710 1.524 . S
C2709 H2712 0.999 . S
C2710 H2680 0.950 . S
C2710 C2709 1.524 . S
C2710 C2711 1.415 . S
C2711 H2681 0.950 . S
C2711 C2706 1.363 . S
C2711 C2710 1.415 . S
H2712 C2709 0.999 . S
H2713 C2694 0.913 . S
H2714 C2732 0.951 . S
H2715 C2734 0.951 . S
H2716 C2736 0.950 . S
H2717 C2737 0.950 . S
H2718 C2739 0.950 . S
H2719 C2742 0.950 . S
H2720 C2743 0.950 . S
H2721 C2745 0.950 . S
H2722 C2746 0.950 . S
H2723 C2747 0.951 . S
H2724 C2749 0.951 . S
H2725 C2751 0.950 . S
H2726 C2752 0.950 . S
H2727 C2754 0.950 . S
H2728 C2757 0.950 . S
H2729 C2758 0.950 . S
H2730 C2760 0.950 . S
H2731 C2761 0.950 . S
C2732 H2714 0.951 . S
C2732 C2733 1.366 . S
C2732 C2734 1.388 . S
C2733 C2732 1.366 . S
C2733 C2737 1.385 . S
C2734 H2715 0.951 . S
C2734 C2732 1.388 . S
C2734 C2735 1.366 . S
C2735 C2734 1.366 . S
C2735 C2736 1.414 . S
C2735 C2738 1.499 . S
C2736 H2716 0.950 . S
C2736 C2735 1.414 . S
C2736 C2737 1.374 . S
C2737 H2717 0.950 . S
C2737 C2733 1.385 . S
C2737 C2736 1.374 . S
C2738 C2735 1.499 . S
C2738 C2739 1.373 . S
C2738 C2740 1.389 . S
C2739 H2718 0.950 . S
C2739 C2738 1.373 . S
C2739 C2755 1.377 . S
C2740 C2738 1.389 . S
C2740 C2741 1.524 . S
C2740 C2754 1.377 . S
C2741 C2740 1.524 . S
C2741 C2742 1.397 . S
C2741 C2746 1.363 . S
C2742 H2719 0.950 . S
C2742 C2741 1.397 . S
C2742 C2743 1.334 . S
C2743 H2720 0.950 . S
C2743 C2742 1.334 . S
C2743 C2744 1.287 . S
C2744 C2743 1.287 . S
C2744 C2745 1.524 . S
C2744 H2763 0.913 . S
C2745 H2721 0.950 . S
C2745 C2744 1.524 . S
C2745 C2746 1.415 . S
C2746 H2722 0.950 . S
C2746 C2741 1.363 . S
C2746 C2745 1.415 . S
C2747 H2723 0.951 . S
C2747 C2748 1.366 . S
C2747 C2749 1.388 . S
C2748 C2747 1.366 . S
C2748 C2752 1.385 . S
C2749 H2724 0.951 . S
C2749 C2747 1.388 . S
C2749 C2750 1.366 . S
C2750 C2749 1.366 . S
C2750 C2751 1.414 . S
C2750 C2753 1.499 . S
C2751 H2725 0.950 . S
C2751 C2750 1.414 . S
C2751 C2752 1.374 . S
C2752 H2726 0.950 . S
C2752 C2748 1.385 . S
C2752 C2751 1.374 . S
C2753 C2750 1.499 . S
C2753 C2754 1.373 . S
C2753 C2755 1.389 . S
C2754 H2727 0.950 . S
C2754 C2740 1.377 . S
C2754 C2753 1.373 . S
C2755 C2739 1.377 . S
C2755 C2753 1.389 . S
C2755 C2756 1.524 . S
C2756 C2755 1.524 . S
C2756 C2757 1.397 . S
C2756 C2761 1.363 . S
C2757 H2728 0.950 . S
C2757 C2756 1.397 . S
C2757 C2758 1.334 . S
C2758 H2729 0.950 . S
C2758 C2757 1.334 . S
C2758 C2759 1.287 . S
C2759 C2758 1.287 . S
C2759 C2760 1.524 . S
C2759 H2762 0.999 . S
C2760 H2730 0.950 . S
C2760 C2759 1.524 . S
C2760 C2761 1.415 . S
C2761 H2731 0.950 . S
C2761 C2756 1.363 . S
C2761 C2760 1.415 . S
H2762 C2759 0.999 . S
H2763 C2744 0.913 . S
H2764 C2782 0.951 . S
H2765 C2784 0.951 . S
H2766 C2786 0.950 . S
H2767 C2787 0.950 . S
H2768 C2789 0.950 . S
H2769 C2792 0.950 . S
H2770 C2793 0.950 . S
H2771 C2795 0.950 . S
H2772 C2796 0.950 . S
H2773 C2797 0.951 . S
H2774 C2799 0.951 . S
H2775 C2801 0.950 . S
H2776 C2802 0.950 . S
H2777 C2804 0.950 . S
H2778 C2807 0.950 . S
H2779 C2808 0.950 . S
H2780 C2810 0.950 . S
H2781 C2811 0.950 . S
C2782 H2764 0.951 . S
C2782 C2783 1.366 . S
C2782 C2784 1.388 . S
C2783 C2782 1.366 . S
C2783 C2787 1.385 . S
C2784 H2765 0.951 . S
C2784 C2782 1.388 . S
C2784 C2785 1.366 . S
C2785 C2784 1.366 . S
C2785 C2786 1.414 . S
C2785 C2788 1.499 . S
C2786 H2766 0.950 . S
C2786 C2785 1.414 . S
C2786 C2787 1.374 . S
C2787 H2767 0.950 . S
C2787 C2783 1.385 . S
C2787 C2786 1.374 . S
C2788 C2785 1.499 . S
C2788 C2789 1.373 . S
C2788 C2790 1.389 . S
C2789 H2768 0.950 . S
C2789 C2788 1.373 . S
C2789 C2805 1.377 . S
C2790 C2788 1.389 . S
C2790 C2791 1.524 . S
C2790 C2804 1.377 . S
C2791 C2790 1.524 . S
C2791 C2792 1.397 . S
C2791 C2796 1.363 . S
C2792 H2769 0.950 . S
C2792 C2791 1.397 . S
C2792 C2793 1.334 . S
C2793 H2770 0.950 . S
C2793 C2792 1.334 . S
C2793 C2794 1.287 . S
C2794 C2793 1.287 . S
C2794 C2795 1.524 . S
C2794 H2813 0.913 . S
C2795 H2771 0.950 . S
C2795 C2794 1.524 . S
C2795 C2796 1.415 . S
C2796 H2772 0.950 . S
C2796 C2791 1.363 . S
C2796 C2795 1.415 . S
C2797 H2773 0.951 . S
C2797 C2798 1.366 . S
C2797 C2799 1.388 . S
C2798 C2797 1.366 . S
C2798 C2802 1.385 . S
C2799 H2774 0.951 . S
C2799 C2797 1.388 . S
C2799 C2800 1.366 . S
C2800 C2799 1.366 . S
C2800 C2801 1.414 . S
C2800 C2803 1.499 . S
C2801 H2775 0.950 . S
C2801 C2800 1.414 . S
C2801 C2802 1.374 . S
C2802 H2776 0.950 . S
C2802 C2798 1.385 . S
C2802 C2801 1.374 . S
C2803 C2800 1.499 . S
C2803 C2804 1.373 . S
C2803 C2805 1.389 . S
C2804 H2777 0.950 . S
C2804 C2790 1.377 . S
C2804 C2803 1.373 . S
C2805 C2789 1.377 . S
C2805 C2803 1.389 . S
C2805 C2806 1.524 . S
C2806 C2805 1.524 . S
C2806 C2807 1.397 . S
C2806 C2811 1.363 . S
C2807 H2778 0.950 . S
C2807 C2806 1.397 . S
C2807 C2808 1.334 . S
C2808 H2779 0.950 . S
C2808 C2807 1.334 . S
C2808 C2809 1.287 . S
C2809 C2808 1.287 . S
C2809 C2810 1.524 . S
C2809 H2812 0.999 . S
C2810 H2780 0.950 . S
C2810 C2809 1.524 . S
C2810 C2811 1.415 . S
C2811 H2781 0.950 . S
C2811 C2806 1.363 . S
C2811 C2810 1.415 . S
H2812 C2809 0.999 . S
H2813 C2794 0.913 . S
H2814 C2832 0.951 . S
H2815 C2834 0.951 . S
H2816 C2836 0.950 . S
H2817 C2837 0.950 . S
H2818 C2839 0.950 . S
H2819 C2842 0.950 . S
H2820 C2843 0.950 . S
H2821 C2845 0.950 . S
H2822 C2846 0.950 . S
H2823 C2847 0.951 . S
H2824 C2849 0.951 . S
H2825 C2851 0.950 . S
H2826 C2852 0.950 . S
H2827 C2854 0.950 . S
H2828 C2857 0.950 . S
H2829 C2858 0.950 . S
H2830 C2860 0.950 . S
H2831 C2861 0.950 . S
C2832 H2814 0.951 . S
C2832 C2833 1.366 . S
C2832 C2834 1.388 . S
C2833 C2832 1.366 . S
C2833 C2837 1.385 . S
C2834 H2815 0.951 . S
C2834 C2832 1.388 . S
C2834 C2835 1.366 . S
C2835 C2834 1.366 . S
C2835 C2836 1.414 . S
C2835 C2838 1.499 . S
C2836 H2816 0.950 . S
C2836 C2835 1.414 . S
C2836 C2837 1.374 . S
C2837 H2817 0.950 . S
C2837 C2833 1.385 . S
C2837 C2836 1.374 . S
C2838 C2835 1.499 . S
C2838 C2839 1.373 . S
C2838 C2840 1.389 . S
C2839 H2818 0.950 . S
C2839 C2838 1.373 . S
C2839 C2855 1.377 . S
C2840 C2838 1.389 . S
C2840 C2841 1.524 . S
C2840 C2854 1.377 . S
C2841 C2840 1.524 . S
C2841 C2842 1.397 . S
C2841 C2846 1.363 . S
C2842 H2819 0.950 . S
C2842 C2841 1.397 . S
C2842 C2843 1.334 . S
C2843 H2820 0.950 . S
C2843 C2842 1.334 . S
C2843 C2844 1.287 . S
C2844 C2843 1.287 . S
C2844 C2845 1.524 . S
C2844 H2863 0.913 . S
C2845 H2821 0.950 . S
C2845 C2844 1.524 . S
C2845 C2846 1.415 . S
C2846 H2822 0.950 . S
C2846 C2841 1.363 . S
C2846 C2845 1.415 . S
C2847 H2823 0.951 . S
C2847 C2848 1.366 . S
C2847 C2849 1.388 . S
C2848 C2847 1.366 . S
C2848 C2852 1.385 . S
C2849 H2824 0.951 . S
C2849 C2847 1.388 . S
C2849 C2850 1.366 . S
C2850 C2849 1.366 . S
C2850 C2851 1.414 . S
C2850 C2853 1.499 . S
C2851 H2825 0.950 . S
C2851 C2850 1.414 . S
C2851 C2852 1.374 . S
C2852 H2826 0.950 . S
C2852 C2848 1.385 . S
C2852 C2851 1.374 . S
C2853 C2850 1.499 . S
C2853 C2854 1.373 . S
C2853 C2855 1.389 . S
C2854 H2827 0.950 . S
C2854 C2840 1.377 . S
C2854 C2853 1.373 . S
C2855 C2839 1.377 . S
C2855 C2853 1.389 . S
C2855 C2856 1.524 . S
C2856 C2855 1.524 . S
C2856 C2857 1.397 . S
C2856 C2861 1.363 . S
C2857 H2828 0.950 . S
C2857 C2856 1.397 . S
C2857 C2858 1.334 . S
C2858 H2829 0.950 . S
C2858 C2857 1.334 . S
C2858 C2859 1.287 . S
C2859 C2858 1.287 . S
C2859 C2860 1.524 . S
C2859 H2862 0.999 . S
C2860 H2830 0.950 . S
C2860 C2859 1.524 . S
C2860 C2861 1.415 . S
C2861 H2831 0.950 . S
C2861 C2856 1.363 . S
C2861 C2860 1.415 . S
H2862 C2859 0.999 . S
H2863 C2844 0.913 . S
H2864 C2882 0.951 . S
H2865 C2884 0.951 . S
H2866 C2886 0.950 . S
H2867 C2887 0.950 . S
H2868 C2889 0.950 . S
H2869 C2892 0.950 . S
H2870 C2893 0.950 . S
H2871 C2895 0.950 . S
H2872 C2896 0.950 . S
H2873 C2897 0.951 . S
H2874 C2899 0.951 . S
H2875 C2901 0.950 1_565 S
H2876 C2902 0.950 . S
H2877 C2904 0.950 . S
H2878 C2907 0.950 . S
H2879 C2908 0.950 . S
H2880 C2910 0.950 . S
H2881 C2911 0.950 . S
C2882 H2864 0.951 . S
C2882 C2883 1.366 . S
C2882 C2884 1.388 . S
C2883 C2882 1.366 . S
C2883 C2887 1.385 . S
C2884 H2865 0.951 . S
C2884 C2882 1.388 . S
C2884 C2885 1.366 . S
C2885 C2884 1.366 . S
C2885 C2886 1.414 . S
C2885 C2888 1.499 . S
C2886 H2866 0.950 . S
C2886 C2885 1.414 . S
C2886 C2887 1.374 . S
C2887 H2867 0.950 . S
C2887 C2883 1.385 . S
C2887 C2886 1.374 . S
C2888 C2885 1.499 . S
C2888 C2889 1.373 . S
C2888 C2890 1.389 . S
C2889 H2868 0.950 . S
C2889 C2888 1.373 . S
C2889 C2905 1.377 1_565 S
C2890 C2888 1.389 . S
C2890 C2891 1.524 . S
C2890 C2904 1.377 . S
C2891 C2890 1.524 . S
C2891 C2892 1.397 . S
C2891 C2896 1.363 . S
C2892 H2869 0.950 . S
C2892 C2891 1.397 . S
C2892 C2893 1.334 . S
C2893 H2870 0.950 . S
C2893 C2892 1.334 . S
C2893 C2894 1.287 . S
C2894 C2893 1.287 . S
C2894 C2895 1.524 . S
C2894 H2913 0.913 . S
C2895 H2871 0.950 . S
C2895 C2894 1.524 . S
C2895 C2896 1.415 . S
C2896 H2872 0.950 . S
C2896 C2891 1.363 . S
C2896 C2895 1.415 . S
C2897 H2873 0.951 . S
C2897 C2898 1.366 . S
C2897 C2899 1.388 . S
C2898 C2897 1.366 . S
C2898 C2902 1.385 . S
C2899 H2874 0.951 . S
C2899 C2897 1.388 . S
C2899 C2900 1.366 . S
C2900 C2899 1.366 . S
C2900 C2901 1.414 . S
C2900 C2903 1.499 . S
C2901 H2875 0.950 1_545 S
C2901 C2900 1.414 . S
C2901 C2902 1.374 . S
C2902 H2876 0.950 . S
C2902 C2898 1.385 . S
C2902 C2901 1.374 . S
C2903 C2900 1.499 . S
C2903 C2904 1.373 1_545 S
C2903 C2905 1.389 . S
C2904 H2877 0.950 . S
C2904 C2890 1.377 . S
C2904 C2903 1.373 1_565 S
C2905 C2889 1.377 1_545 S
C2905 C2903 1.389 . S
C2905 C2906 1.524 . S
C2906 C2905 1.524 . S
C2906 C2907 1.397 . S
C2906 C2911 1.363 . S
C2907 H2878 0.950 . S
C2907 C2906 1.397 . S
C2907 C2908 1.334 . S
C2908 H2879 0.950 . S
C2908 C2907 1.334 . S
C2908 C2909 1.287 . S
C2909 C2908 1.287 . S
C2909 C2910 1.524 . S
C2909 H2912 0.999 . S
C2910 H2880 0.950 . S
C2910 C2909 1.524 . S
C2910 C2911 1.415 . S
C2911 H2881 0.950 . S
C2911 C2906 1.363 . S
C2911 C2910 1.415 . S
H2912 C2909 0.999 . S
H2913 C2894 0.913 . S
H2914 C2932 0.951 . S
H2915 C2934 0.951 . S
H2916 C2936 0.950 1_545 S
H2917 C2937 0.950 . S
H2918 C2939 0.950 . S
H2919 C2942 0.950 . S
H2920 C2943 0.950 . S
H2921 C2945 0.950 . S
H2922 C2946 0.950 . S
H2923 C2947 0.951 . S
H2924 C2949 0.951 . S
H2925 C2951 0.950 . S
H2926 C2952 0.950 . S
H2927 C2954 0.950 . S
H2928 C2957 0.950 . S
H2929 C2958 0.950 . S
H2930 C2960 0.950 . S
H2931 C2961 0.950 . S
C2932 H2914 0.951 . S
C2932 C2933 1.366 . S
C2932 C2934 1.388 . S
C2933 C2932 1.366 . S
C2933 C2937 1.385 . S
C2934 H2915 0.951 . S
C2934 C2932 1.388 . S
C2934 C2935 1.366 . S
C2935 C2934 1.366 . S
C2935 C2936 1.414 . S
C2935 C2938 1.499 . S
C2936 H2916 0.950 1_565 S
C2936 C2935 1.414 . S
C2936 C2937 1.374 . S
C2937 H2917 0.950 . S
C2937 C2933 1.385 . S
C2937 C2936 1.374 . S
C2938 C2935 1.499 . S
C2938 C2939 1.373 1_565 S
C2938 C2940 1.389 . S
C2939 H2918 0.950 . S
C2939 C2938 1.373 1_545 S
C2939 C2955 1.377 . S
C2940 C2938 1.389 . S
C2940 C2941 1.524 . S
C2940 C2954 1.377 1_565 S
C2941 C2940 1.524 . S
C2941 C2942 1.397 . S
C2941 C2946 1.363 . S
C2942 H2919 0.950 . S
C2942 C2941 1.397 . S
C2942 C2943 1.334 . S
C2943 H2920 0.950 . S
C2943 C2942 1.334 . S
C2943 C2944 1.287 . S
C2944 C2943 1.287 . S
C2944 C2945 1.524 . S
C2944 H2963 0.913 . S
C2945 H2921 0.950 . S
C2945 C2944 1.524 . S
C2945 C2946 1.415 . S
C2946 H2922 0.950 . S
C2946 C2941 1.363 . S
C2946 C2945 1.415 . S
C2947 H2923 0.951 . S
C2947 C2948 1.366 . S
C2947 C2949 1.388 . S
C2948 C2947 1.366 . S
C2948 C2952 1.385 . S
C2949 H2924 0.951 . S
C2949 C2947 1.388 . S
C2949 C2950 1.366 . S
C2950 C2949 1.366 . S
C2950 C2951 1.414 . S
C2950 C2953 1.499 . S
C2951 H2925 0.950 . S
C2951 C2950 1.414 . S
C2951 C2952 1.374 . S
C2952 H2926 0.950 . S
C2952 C2948 1.385 . S
C2952 C2951 1.374 . S
C2953 C2950 1.499 . S
C2953 C2954 1.373 . S
C2953 C2955 1.389 . S
C2954 H2927 0.950 . S
C2954 C2940 1.377 1_545 S
C2954 C2953 1.373 . S
C2955 C2939 1.377 . S
C2955 C2953 1.389 . S
C2955 C2956 1.524 . S
C2956 C2955 1.524 . S
C2956 C2957 1.397 . S
C2956 C2961 1.363 . S
C2957 H2928 0.950 . S
C2957 C2956 1.397 . S
C2957 C2958 1.334 . S
C2958 H2929 0.950 . S
C2958 C2957 1.334 . S
C2958 C2959 1.287 . S
C2959 C2958 1.287 . S
C2959 C2960 1.524 . S
C2959 H2962 0.999 . S
C2960 H2930 0.950 . S
C2960 C2959 1.524 . S
C2960 C2961 1.415 . S
C2961 H2931 0.950 . S
C2961 C2956 1.363 . S
C2961 C2960 1.415 . S
H2962 C2959 0.999 . S
H2963 C2944 0.913 . S
H2964 C2982 0.951 . S
H2965 C2984 0.951 . S
H2966 C2986 0.950 . S
H2967 C2987 0.950 . S
H2968 C2989 0.950 . S
H2969 C2992 0.950 . S
H2970 C2993 0.950 . S
H2971 C2995 0.950 . S
H2972 C2996 0.950 . S
H2973 C2997 0.951 . S
H2974 C2999 0.951 . S
H2975 C3001 0.950 . S
H2976 C3002 0.950 . S
H2977 C3004 0.950 . S
H2978 C3007 0.950 . S
H2979 C3008 0.950 . S
H2980 C3010 0.950 . S
H2981 C3011 0.950 . S
C2982 H2964 0.951 . S
C2982 C2983 1.366 . S
C2982 C2984 1.388 . S
C2983 C2982 1.366 . S
C2983 C2987 1.385 . S
C2984 H2965 0.951 . S
C2984 C2982 1.388 . S
C2984 C2985 1.366 . S
C2985 C2984 1.366 . S
C2985 C2986 1.414 . S
C2985 C2988 1.499 . S
C2986 H2966 0.950 . S
C2986 C2985 1.414 . S
C2986 C2987 1.374 . S
C2987 H2967 0.950 . S
C2987 C2983 1.385 . S
C2987 C2986 1.374 . S
C2988 C2985 1.499 . S
C2988 C2989 1.373 . S
C2988 C2990 1.389 . S
C2989 H2968 0.950 . S
C2989 C2988 1.373 . S
C2989 C3005 1.377 . S
C2990 C2988 1.389 . S
C2990 C2991 1.524 . S
C2990 C3004 1.377 . S
C2991 C2990 1.524 . S
C2991 C2992 1.397 . S
C2991 C2996 1.363 . S
C2992 H2969 0.950 . S
C2992 C2991 1.397 . S
C2992 C2993 1.334 . S
C2993 H2970 0.950 . S
C2993 C2992 1.334 . S
C2993 C2994 1.287 . S
C2994 C2993 1.287 . S
C2994 C2995 1.524 . S
C2994 H3013 0.913 . S
C2995 H2971 0.950 . S
C2995 C2994 1.524 . S
C2995 C2996 1.415 . S
C2996 H2972 0.950 . S
C2996 C2991 1.363 . S
C2996 C2995 1.415 . S
C2997 H2973 0.951 . S
C2997 C2998 1.366 . S
C2997 C2999 1.388 . S
C2998 C2997 1.366 . S
C2998 C3002 1.385 . S
C2999 H2974 0.951 . S
C2999 C2997 1.388 . S
C2999 C3000 1.366 . S
C3000 C2999 1.366 . S
C3000 C3001 1.414 . S
C3000 C3003 1.499 . S
C3001 H2975 0.950 . S
C3001 C3000 1.414 . S
C3001 C3002 1.374 . S
C3002 H2976 0.950 . S
C3002 C2998 1.385 . S
C3002 C3001 1.374 . S
C3003 C3000 1.499 . S
C3003 C3004 1.373 . S
C3003 C3005 1.389 . S
C3004 H2977 0.950 . S
C3004 C2990 1.377 . S
C3004 C3003 1.373 . S
C3005 C2989 1.377 . S
C3005 C3003 1.389 . S
C3005 C3006 1.524 . S
C3006 C3005 1.524 . S
C3006 C3007 1.397 . S
C3006 C3011 1.363 . S
C3007 H2978 0.950 . S
C3007 C3006 1.397 . S
C3007 C3008 1.334 . S
C3008 H2979 0.950 . S
C3008 C3007 1.334 . S
C3008 C3009 1.287 . S
C3009 C3008 1.287 . S
C3009 C3010 1.524 . S
C3009 H3012 0.999 . S
C3010 H2980 0.950 . S
C3010 C3009 1.524 . S
C3010 C3011 1.415 . S
C3011 H2981 0.950 . S
C3011 C3006 1.363 . S
C3011 C3010 1.415 . S
H3012 C3009 0.999 . S
H3013 C2994 0.913 . S
H3014 C3032 0.951 . S
H3015 C3034 0.951 . S
H3016 C3036 0.950 . S
H3017 C3037 0.950 . S
H3018 C3039 0.950 . S
H3019 C3042 0.950 . S
H3020 C3043 0.950 . S
H3021 C3045 0.950 . S
H3022 C3046 0.950 . S
H3023 C3047 0.951 . S
H3024 C3049 0.951 . S
H3025 C3051 0.950 . S
H3026 C3052 0.950 . S
H3027 C3054 0.950 . S
H3028 C3057 0.950 . S
H3029 C3058 0.950 . S
H3030 C3060 0.950 . S
H3031 C3061 0.950 . S
C3032 H3014 0.951 . S
C3032 C3033 1.366 . S
C3032 C3034 1.388 . S
C3033 C3032 1.366 . S
C3033 C3037 1.385 . S
C3034 H3015 0.951 . S
C3034 C3032 1.388 . S
C3034 C3035 1.366 . S
C3035 C3034 1.366 . S
C3035 C3036 1.414 . S
C3035 C3038 1.499 . S
C3036 H3016 0.950 . S
C3036 C3035 1.414 . S
C3036 C3037 1.374 . S
C3037 H3017 0.950 . S
C3037 C3033 1.385 . S
C3037 C3036 1.374 . S
C3038 C3035 1.499 . S
C3038 C3039 1.373 . S
C3038 C3040 1.389 . S
C3039 H3018 0.950 . S
C3039 C3038 1.373 . S
C3039 C3055 1.377 . S
C3040 C3038 1.389 . S
C3040 C3041 1.524 . S
C3040 C3054 1.377 . S
C3041 C3040 1.524 . S
C3041 C3042 1.397 . S
C3041 C3046 1.363 . S
C3042 H3019 0.950 . S
C3042 C3041 1.397 . S
C3042 C3043 1.334 . S
C3043 H3020 0.950 . S
C3043 C3042 1.334 . S
C3043 C3044 1.287 . S
C3044 C3043 1.287 . S
C3044 C3045 1.524 . S
C3044 H3063 0.913 . S
C3045 H3021 0.950 . S
C3045 C3044 1.524 . S
C3045 C3046 1.415 . S
C3046 H3022 0.950 . S
C3046 C3041 1.363 . S
C3046 C3045 1.415 . S
C3047 H3023 0.951 . S
C3047 C3048 1.366 . S
C3047 C3049 1.388 . S
C3048 C3047 1.366 . S
C3048 C3052 1.385 . S
C3049 H3024 0.951 . S
C3049 C3047 1.388 . S
C3049 C3050 1.366 . S
C3050 C3049 1.366 . S
C3050 C3051 1.414 . S
C3050 C3053 1.499 . S
C3051 H3025 0.950 . S
C3051 C3050 1.414 . S
C3051 C3052 1.374 . S
C3052 H3026 0.950 . S
C3052 C3048 1.385 . S
C3052 C3051 1.374 . S
C3053 C3050 1.499 . S
C3053 C3054 1.373 . S
C3053 C3055 1.389 . S
C3054 H3027 0.950 . S
C3054 C3040 1.377 . S
C3054 C3053 1.373 . S
C3055 C3039 1.377 . S
C3055 C3053 1.389 . S
C3055 C3056 1.524 . S
C3056 C3055 1.524 . S
C3056 C3057 1.397 . S
C3056 C3061 1.363 . S
C3057 H3028 0.950 . S
C3057 C3056 1.397 . S
C3057 C3058 1.334 . S
C3058 H3029 0.950 . S
C3058 C3057 1.334 . S
C3058 C3059 1.287 . S
C3059 C3058 1.287 . S
C3059 C3060 1.524 . S
C3059 H3062 0.999 . S
C3060 H3030 0.950 . S
C3060 C3059 1.524 . S
C3060 C3061 1.415 . S
C3061 H3031 0.950 . S
C3061 C3056 1.363 . S
C3061 C3060 1.415 . S
H3062 C3059 0.999 . S
H3063 C3044 0.913 . S
H3064 C3082 0.951 . S
H3065 C3084 0.951 . S
H3066 C3086 0.950 1_554 S
H3067 C3087 0.950 1_554 S
H3068 C3089 0.950 . S
H3069 C3092 0.950 . S
H3070 C3093 0.950 . S
H3071 C3095 0.950 . S
H3072 C3096 0.950 . S
H3073 C3097 0.951 . S
H3074 C3099 0.951 . S
H3075 C3101 0.950 . S
H3076 C3102 0.950 . S
H3077 C3104 0.950 . S
H3078 C3107 0.950 . S
H3079 C3108 0.950 . S
H3080 C3110 0.950 . S
H3081 C3111 0.950 1_554 S
C3082 H3064 0.951 . S
C3082 C3083 1.366 . S
C3082 C3084 1.388 . S
C3083 C3082 1.366 . S
C3083 C3087 1.385 . S
C3084 H3065 0.951 . S
C3084 C3082 1.388 . S
C3084 C3085 1.366 . S
C3085 C3084 1.366 . S
C3085 C3086 1.414 . S
C3085 C3088 1.499 . S
C3086 H3066 0.950 1_556 S
C3086 C3085 1.414 . S
C3086 C3087 1.374 . S
C3087 H3067 0.950 1_556 S
C3087 C3083 1.385 . S
C3087 C3086 1.374 . S
C3088 C3085 1.499 . S
C3088 C3089 1.373 . S
C3088 C3090 1.389 . S
C3089 H3068 0.950 . S
C3089 C3088 1.373 . S
C3089 C3105 1.377 . S
C3090 C3088 1.389 . S
C3090 C3091 1.524 . S
C3090 C3104 1.377 . S
C3091 C3090 1.524 . S
C3091 C3092 1.397 . S
C3091 C3096 1.363 . S
C3092 H3069 0.950 . S
C3092 C3091 1.397 . S
C3092 C3093 1.334 . S
C3093 H3070 0.950 . S
C3093 C3092 1.334 . S
C3093 C3094 1.287 . S
C3094 C3093 1.287 . S
C3094 C3095 1.524 . S
C3094 H3113 0.913 . S
C3095 H3071 0.950 . S
C3095 C3094 1.524 . S
C3095 C3096 1.415 . S
C3096 H3072 0.950 . S
C3096 C3091 1.363 . S
C3096 C3095 1.415 . S
C3097 H3073 0.951 . S
C3097 C3098 1.366 . S
C3097 C3099 1.388 . S
C3098 C3097 1.366 . S
C3098 C3102 1.385 . S
C3099 H3074 0.951 . S
C3099 C3097 1.388 . S
C3099 C3100 1.366 . S
C3100 C3099 1.366 . S
C3100 C3101 1.414 . S
C3100 C3103 1.499 . S
C3101 H3075 0.950 . S
C3101 C3100 1.414 . S
C3101 C3102 1.374 . S
C3102 H3076 0.950 . S
C3102 C3098 1.385 . S
C3102 C3101 1.374 . S
C3103 C3100 1.499 . S
C3103 C3104 1.373 . S
C3103 C3105 1.389 . S
C3104 H3077 0.950 . S
C3104 C3090 1.377 . S
C3104 C3103 1.373 . S
C3105 C3089 1.377 . S
C3105 C3103 1.389 . S
C3105 C3106 1.524 . S
C3106 C3105 1.524 . S
C3106 C3107 1.397 . S
C3106 C3111 1.363 . S
C3107 H3078 0.950 . S
C3107 C3106 1.397 . S
C3107 C3108 1.334 . S
C3108 H3079 0.950 . S
C3108 C3107 1.334 . S
C3108 C3109 1.287 . S
C3109 C3108 1.287 . S
C3109 C3110 1.524 1_556 S
C3109 H3112 0.999 . S
C3110 H3080 0.950 . S
C3110 C3109 1.524 1_554 S
C3110 C3111 1.415 1_554 S
C3111 H3081 0.950 1_556 S
C3111 C3106 1.363 . S
C3111 C3110 1.415 1_556 S
H3112 C3109 0.999 . S
H3113 C3094 0.913 . S
H3114 C3132 0.951 . S
H3115 C3134 0.951 . S
H3116 C3136 0.950 . S
H3117 C3137 0.950 . S
H3118 C3139 0.950 . S
H3119 C3142 0.950 . S
H3120 C3143 0.950 . S
H3121 C3145 0.950 . S
H3122 C3146 0.950 . S
H3123 C3147 0.951 . S
H3124 C3149 0.951 . S
H3125 C3151 0.950 . S
H3126 C3152 0.950 . S
H3127 C3154 0.950 . S
H3128 C3157 0.950 . S
H3129 C3158 0.950 . S
H3130 C3160 0.950 . S
H3131 C3161 0.950 . S
C3132 H3114 0.951 . S
C3132 C3133 1.366 . S
C3132 C3134 1.388 . S
C3133 C3132 1.366 . S
C3133 C3137 1.385 . S
C3134 H3115 0.951 . S
C3134 C3132 1.388 . S
C3134 C3135 1.366 . S
C3135 C3134 1.366 . S
C3135 C3136 1.414 . S
C3135 C3138 1.499 . S
C3136 H3116 0.950 . S
C3136 C3135 1.414 . S
C3136 C3137 1.374 . S
C3137 H3117 0.950 . S
C3137 C3133 1.385 . S
C3137 C3136 1.374 . S
C3138 C3135 1.499 . S
C3138 C3139 1.373 . S
C3138 C3140 1.389 . S
C3139 H3118 0.950 . S
C3139 C3138 1.373 . S
C3139 C3155 1.377 . S
C3140 C3138 1.389 . S
C3140 C3141 1.524 . S
C3140 C3154 1.377 . S
C3141 C3140 1.524 . S
C3141 C3142 1.397 . S
C3141 C3146 1.363 . S
C3142 H3119 0.950 . S
C3142 C3141 1.397 . S
C3142 C3143 1.334 1_556 S
C3143 H3120 0.950 . S
C3143 C3142 1.334 1_554 S
C3143 C3144 1.287 . S
C3144 C3143 1.287 . S
C3144 C3145 1.524 . S
C3144 H3163 0.913 . S
C3145 H3121 0.950 . S
C3145 C3144 1.524 . S
C3145 C3146 1.415 1_554 S
C3146 H3122 0.950 . S
C3146 C3141 1.363 . S
C3146 C3145 1.415 1_556 S
C3147 H3123 0.951 . S
C3147 C3148 1.366 . S
C3147 C3149 1.388 . S
C3148 C3147 1.366 . S
C3148 C3152 1.385 . S
C3149 H3124 0.951 . S
C3149 C3147 1.388 . S
C3149 C3150 1.366 . S
C3150 C3149 1.366 . S
C3150 C3151 1.414 . S
C3150 C3153 1.499 . S
C3151 H3125 0.950 . S
C3151 C3150 1.414 . S
C3151 C3152 1.374 . S
C3152 H3126 0.950 . S
C3152 C3148 1.385 . S
C3152 C3151 1.374 . S
C3153 C3150 1.499 . S
C3153 C3154 1.373 . S
C3153 C3155 1.389 . S
C3154 H3127 0.950 . S
C3154 C3140 1.377 . S
C3154 C3153 1.373 . S
C3155 C3139 1.377 . S
C3155 C3153 1.389 . S
C3155 C3156 1.524 . S
C3156 C3155 1.524 . S
C3156 C3157 1.397 . S
C3156 C3161 1.363 . S
C3157 H3128 0.950 . S
C3157 C3156 1.397 . S
C3157 C3158 1.334 . S
C3158 H3129 0.950 . S
C3158 C3157 1.334 . S
C3158 C3159 1.287 . S
C3159 C3158 1.287 . S
C3159 C3160 1.524 . S
C3159 H3162 0.999 . S
C3160 H3130 0.950 . S
C3160 C3159 1.524 . S
C3160 C3161 1.415 . S
C3161 H3131 0.950 . S
C3161 C3156 1.363 . S
C3161 C3160 1.415 . S
H3162 C3159 0.999 . S
H3163 C3144 0.913 . S
H3164 C3182 0.951 . S
H3165 C3184 0.951 . S
H3166 C3186 0.950 . S
H3167 C3187 0.950 . S
H3168 C3189 0.950 . S
H3169 C3192 0.950 . S
H3170 C3193 0.950 . S
H3171 C3195 0.950 . S
H3172 C3196 0.950 . S
H3173 C3197 0.951 . S
H3174 C3199 0.951 . S
H3175 C3201 0.950 . S
H3176 C3202 0.950 . S
H3177 C3204 0.950 . S
H3178 C3207 0.950 . S
H3179 C3208 0.950 . S
H3180 C3210 0.950 . S
H3181 C3211 0.950 . S
C3182 H3164 0.951 . S
C3182 C3183 1.366 . S
C3182 C3184 1.388 . S
C3183 C3182 1.366 . S
C3183 C3187 1.385 . S
C3184 H3165 0.951 . S
C3184 C3182 1.388 . S
C3184 C3185 1.366 . S
C3185 C3184 1.366 . S
C3185 C3186 1.414 . S
C3185 C3188 1.499 . S
C3186 H3166 0.950 . S
C3186 C3185 1.414 . S
C3186 C3187 1.374 . S
C3187 H3167 0.950 . S
C3187 C3183 1.385 . S
C3187 C3186 1.374 . S
C3188 C3185 1.499 . S
C3188 C3189 1.373 . S
C3188 C3190 1.389 . S
C3189 H3168 0.950 . S
C3189 C3188 1.373 . S
C3189 C3205 1.377 . S
C3190 C3188 1.389 . S
C3190 C3191 1.524 . S
C3190 C3204 1.377 . S
C3191 C3190 1.524 . S
C3191 C3192 1.397 . S
C3191 C3196 1.363 . S
C3192 H3169 0.950 . S
C3192 C3191 1.397 . S
C3192 C3193 1.334 . S
C3193 H3170 0.950 . S
C3193 C3192 1.334 . S
C3193 C3194 1.287 . S
C3194 C3193 1.287 . S
C3194 C3195 1.524 1_554 S
C3194 H3213 0.913 . S
C3195 H3171 0.950 . S
C3195 C3194 1.524 1_556 S
C3195 C3196 1.415 1_556 S
C3196 H3172 0.950 . S
C3196 C3191 1.363 . S
C3196 C3195 1.415 1_554 S
C3197 H3173 0.951 . S
C3197 C3198 1.366 . S
C3197 C3199 1.388 . S
C3198 C3197 1.366 . S
C3198 C3202 1.385 . S
C3199 H3174 0.951 . S
C3199 C3197 1.388 . S
C3199 C3200 1.366 . S
C3200 C3199 1.366 . S
C3200 C3201 1.414 . S
C3200 C3203 1.499 . S
C3201 H3175 0.950 . S
C3201 C3200 1.414 . S
C3201 C3202 1.374 . S
C3202 H3176 0.950 . S
C3202 C3198 1.385 . S
C3202 C3201 1.374 . S
C3203 C3200 1.499 . S
C3203 C3204 1.373 . S
C3203 C3205 1.389 . S
C3204 H3177 0.950 . S
C3204 C3190 1.377 . S
C3204 C3203 1.373 . S
C3205 C3189 1.377 . S
C3205 C3203 1.389 . S
C3205 C3206 1.524 . S
C3206 C3205 1.524 . S
C3206 C3207 1.397 . S
C3206 C3211 1.363 . S
C3207 H3178 0.950 . S
C3207 C3206 1.397 . S
C3207 C3208 1.334 . S
C3208 H3179 0.950 . S
C3208 C3207 1.334 . S
C3208 C3209 1.287 . S
C3209 C3208 1.287 . S
C3209 C3210 1.524 . S
C3209 H3212 0.999 . S
C3210 H3180 0.950 . S
C3210 C3209 1.524 . S
C3210 C3211 1.415 . S
C3211 H3181 0.950 . S
C3211 C3206 1.363 . S
C3211 C3210 1.415 . S
H3212 C3209 0.999 . S
H3213 C3194 0.913 . S
H3214 C3232 0.951 . S
H3215 C3234 0.951 . S
H3216 C3236 0.950 . S
H3217 C3237 0.950 . S
H3218 C3239 0.950 . S
H3219 C3242 0.950 . S
H3220 C3243 0.950 . S
H3221 C3245 0.950 . S
H3222 C3246 0.950 . S
H3223 C3247 0.951 . S
H3224 C3249 0.951 . S
H3225 C3251 0.950 . S
H3226 C3252 0.950 . S
H3227 C3254 0.950 . S
H3228 C3257 0.950 . S
H3229 C3258 0.950 . S
H3230 C3260 0.950 . S
H3231 C3261 0.950 . S
C3232 H3214 0.951 . S
C3232 C3233 1.366 . S
C3232 C3234 1.388 . S
C3233 C3232 1.366 . S
C3233 C3237 1.385 . S
C3234 H3215 0.951 . S
C3234 C3232 1.388 . S
C3234 C3235 1.366 . S
C3235 C3234 1.366 . S
C3235 C3236 1.414 . S
C3235 C3238 1.499 . S
C3236 H3216 0.950 . S
C3236 C3235 1.414 . S
C3236 C3237 1.374 . S
C3237 H3217 0.950 . S
C3237 C3233 1.385 . S
C3237 C3236 1.374 . S
C3238 C3235 1.499 . S
C3238 C3239 1.373 . S
C3238 C3240 1.389 . S
C3239 H3218 0.950 . S
C3239 C3238 1.373 . S
C3239 C3255 1.377 . S
C3240 C3238 1.389 . S
C3240 C3241 1.524 . S
C3240 C3254 1.377 . S
C3241 C3240 1.524 . S
C3241 C3242 1.397 . S
C3241 C3246 1.363 . S
C3242 H3219 0.950 . S
C3242 C3241 1.397 . S
C3242 C3243 1.334 . S
C3243 H3220 0.950 . S
C3243 C3242 1.334 . S
C3243 C3244 1.287 . S
C3244 C3243 1.287 . S
C3244 C3245 1.524 . S
C3244 H3263 0.913 . S
C3245 H3221 0.950 . S
C3245 C3244 1.524 . S
C3245 C3246 1.415 . S
C3246 H3222 0.950 . S
C3246 C3241 1.363 . S
C3246 C3245 1.415 . S
C3247 H3223 0.951 . S
C3247 C3248 1.366 . S
C3247 C3249 1.388 . S
C3248 C3247 1.366 . S
C3248 C3252 1.385 . S
C3249 H3224 0.951 . S
C3249 C3247 1.388 . S
C3249 C3250 1.366 . S
C3250 C3249 1.366 . S
C3250 C3251 1.414 . S
C3250 C3253 1.499 . S
C3251 H3225 0.950 . S
C3251 C3250 1.414 . S
C3251 C3252 1.374 . S
C3252 H3226 0.950 . S
C3252 C3248 1.385 . S
C3252 C3251 1.374 . S
C3253 C3250 1.499 . S
C3253 C3254 1.373 . S
C3253 C3255 1.389 . S
C3254 H3227 0.950 . S
C3254 C3240 1.377 . S
C3254 C3253 1.373 . S
C3255 C3239 1.377 . S
C3255 C3253 1.389 . S
C3255 C3256 1.524 . S
C3256 C3255 1.524 . S
C3256 C3257 1.397 . S
C3256 C3261 1.363 . S
C3257 H3228 0.950 . S
C3257 C3256 1.397 . S
C3257 C3258 1.334 1_554 S
C3258 H3229 0.950 . S
C3258 C3257 1.334 1_556 S
C3258 C3259 1.287 . S
C3259 C3258 1.287 . S
C3259 C3260 1.524 1_556 S
C3259 H3262 0.999 . S
C3260 H3230 0.950 . S
C3260 C3259 1.524 1_554 S
C3260 C3261 1.415 . S
C3261 H3231 0.950 . S
C3261 C3256 1.363 . S
C3261 C3260 1.415 . S
H3262 C3259 0.999 . S
H3263 C3244 0.913 . S
C483 C3 0.599 . S
C498 C158 0.640 . S
C533 C32 0.598 . S
C548 C129 0.641 . S
C583 C61 0.598 . S
C598 C332 0.643 . S
C633 C90 0.599 . S
C648 C303 0.641 . S
C683 C42 0.642 . S
C698 C119 0.598 . S
C733 C148 0.598 . S
C748 C13 0.639 . S
C783 C177 0.599 . S
C798 C448 0.642 . S
C833 C419 0.642 . S
C848 C206 0.598 . S
C883 C390 0.642 . S
C898 C235 0.598 . S
C933 C361 0.640 . S
C948 C264 0.599 . S
C983 C100 0.642 . S
C998 C293 0.598 . S
C1033 C322 0.599 . S
C1048 C71 0.639 . S
C1083 C351 0.599 . S
C1098 C274 0.640 . S
C1133 C380 0.598 . S
C1148 C245 0.641 . S
C1183 C409 0.599 . S
C1198 C216 0.640 . S
C1233 C187 0.643 . S
C1248 C438 0.598 . S
C1283 C15 2.363 . S
C1298 C21 2.234 . S
C1333 C50 2.233 . S
C1348 C44 2.363 . S
C1383 C79 2.234 . S
C1398 C73 2.362 1_556 S
C1433 C108 2.233 . S
C1448 C102 2.363 1_556 S
C1483 C131 2.362 . S
C1498 C137 2.234 . S
C1533 C160 2.363 . S
C1548 C166 2.233 . S
C1583 C189 2.363 . S
C1598 C195 2.234 1_554 S
C1633 C224 2.234 1_554 S
C1648 C218 2.363 . S
C1683 C247 2.363 . S
C1698 C253 2.234 . S
C1733 C276 2.363 . S
C1748 C282 2.234 . S
C1783 C311 2.234 1_554 S
C1798 C305 2.363 . S
C1833 C334 2.363 . S
C1848 C340 2.233 1_554 S
C1883 C369 2.234 . S
C1898 C363 2.363 . S
C1933 C398 2.234 . S
C1948 C392 2.363 . S
C1983 C421 2.363 1_556 S
C1998 C427 2.234 . S
C2033 C450 2.363 1_556 S
C2048 C456 2.234 . S
C2083 C10 1.557 . S
C2098 C39 1.558 . S
C2133 C68 1.556 . S
C2148 C445 1.557 . S
C2183 C97 1.557 . S
C2198 C416 1.557 . S
C2233 C155 1.557 . S
C2248 C126 1.558 . S
C2283 C329 1.557 . S
C2298 C184 1.557 . S
C2333 C213 1.557 . S
C2348 C300 1.556 . S
C2383 C271 1.557 . S
C2398 C242 1.557 . S
C2433 C387 1.558 . S
C2448 C358 1.557 . S
C2483 C8 1.501 . S
C2498 C179 1.531 . S
C2533 C37 1.502 . S
C2548 C208 1.531 . S
C2583 C66 1.502 . S
C2598 C5 1.530 . S
C2633 C34 1.531 . S
C2648 C95 1.501 . S
C2683 C63 1.530 . S
C2698 C124 1.501 . S
C2733 C92 1.531 . S
C2748 C153 1.501 . S
C2783 C182 1.502 . S
C2798 C121 1.531 . S
C2833 C150 1.531 . S
C2848 C211 1.501 . S
C2883 C411 1.531 . S
C2898 C240 1.502 . S
C2933 C269 1.501 . S
C2948 C440 1.530 . S
C2983 C237 1.531 . S
C2998 C298 1.502 . S
C3033 C327 1.501 . S
C3048 C266 1.531 . S
C3083 C356 1.501 . S
C3098 C295 1.530 . S
C3133 C324 1.530 . S
C3148 C385 1.501 . S
C3183 C414 1.502 . S
C3198 C353 1.531 . S
C3233 C443 1.503 . S
C3248 C382 1.531 . S
