# Generated by pormake.
# Topology qdl, (4)-cn, num edge types: 1
# Building blocks:
#     Node 0, Type 0, BuildingBlock: NAWXER_clean_sbu_0, # of connection points: 4
#     Node 1, Type 0, BuildingBlock: NAWXER_clean_sbu_0, # of connection points: 4
#     Node 2, Type 0, BuildingBlock: NAWXER_clean_sbu_0, # of connection points: 4
#     Node 3, Type 0, BuildingBlock: NAWXER_clean_sbu_0, # of connection points: 4
#     Node 4, Type 0, BuildingBlock: NAWXER_clean_sbu_0, # of connection points: 4
#     Node 5, Type 0, BuildingBlock: NAWXER_clean_sbu_0, # of connection points: 4
#     Edge 6, Type (0, 0), BuildingBlock: FUNLAD_clean_linker_1, # of connection points: 2
#     Edge 7, Type (0, 0), BuildingBlock: FUNLAD_clean_linker_1, # of connection points: 2
#     Edge 8, Type (0, 0), BuildingBlock: FUNLAD_clean_linker_1, # of connection points: 2
#     Edge 9, Type (0, 0), BuildingBlock: FUNLAD_clean_linker_1, # of connection points: 2
#     Edge 10, Type (0, 0), BuildingBlock: FUNLAD_clean_linker_1, # of connection points: 2
#     Edge 11, Type (0, 0), BuildingBlock: FUNLAD_clean_linker_1, # of connection points: 2
#     Edge 12, Type (0, 0), BuildingBlock: FUNLAD_clean_linker_1, # of connection points: 2
#     Edge 13, Type (0, 0), BuildingBlock: FUNLAD_clean_linker_1, # of connection points: 2
#     Edge 14, Type (0, 0), BuildingBlock: FUNLAD_clean_linker_1, # of connection points: 2
#     Edge 15, Type (0, 0), BuildingBlock: FUNLAD_clean_linker_1, # of connection points: 2
#     Edge 16, Type (0, 0), BuildingBlock: FUNLAD_clean_linker_1, # of connection points: 2
#     Edge 17, Type (0, 0), BuildingBlock: FUNLAD_clean_linker_1, # of connection points: 2
# Relax obj value: 0.000
# Max RMSD: 0.022
# Mean RMSD: 0.019
data_MOF--net-qdl--node1-NAWXER_clean_sbu_0--edge1-FUNLAD_clean_linker_1
_symmetry_space_group_name_H-M    P1
_symmetry_Int_Tables_number       1
_symmetry_cell_setting            triclinic
loop_
_symmetry_equiv_pos_as_xyz
'x, y, z'
_cell_length_a     15.197454
_cell_length_b     15.253834
_cell_length_c     91.224727
_cell_angle_alpha  94.868719
_cell_angle_beta   94.49698
_cell_angle_gamma 119.98266
loop_
_atom_site_label
_atom_site_type_symbol
_atom_site_fract_x
_atom_site_fract_y
_atom_site_fract_z
_atom_type_partial_charge
C0 C 0.03814 0.94143 0.09444 0.0
C1 C 0.98986 0.23545 0.09463 0.0
O2 O 0.12324 0.02684 0.0964 0.0
Zn3 Zn 0.17347 0.18708 0.09791 0.0
O4 O 0.95392 0.94059 0.09266 0.0
Zn5 Zn 1.01276 0.0877 0.09445 0.0
O6 O 0.08361 0.12588 0.07448 0.0
O7 O 0.25025 0.22724 0.0815 0.0
O8 O 0.92135 0.14139 0.09313 0.0
O9 O 0.08496 0.26185 0.09646 0.0
O10 O 0.2486 0.23971 0.11761 0.0
O11 O 0.08225 0.13704 0.11743 0.0
C12 C 0.17467 0.17983 0.07121 0.0
C13 C 0.17276 0.19467 0.12463 0.0
C14 C 0.12791 0.91127 0.42079 0.0
C15 C 0.83389 0.9586 0.42169 0.0
O16 O 0.03337 0.84365 0.41782 0.0
Zn17 Zn 0.98057 0.93393 0.42135 0.0
O18 O 0.15485 1.00509 0.42475 0.0
Zn19 Zn 0.08009 0.09253 0.42829 0.0
O20 O 0.12302 0.14705 0.44911 0.0
O21 O 1.01942 0.97943 0.44507 0.0
O22 O 0.91935 0.04259 0.42556 0.0
O23 O 0.83339 0.87587 0.41826 0.0
O24 O 1.03068 0.02592 0.40367 0.0
O25 O 0.12948 0.18696 0.41405 0.0
C26 C 0.07416 0.06267 0.45411 0.0
C27 C 0.08685 0.12095 0.40246 0.0
C28 C 0.09797 0.13343 0.78811 0.0
C29 C 0.04767 0.12172 0.7345 0.0
O30 O 0.05872 0.18706 0.78431 0.0
Zn31 Zn 1.0137 0.22618 0.76394 0.0
O32 O 0.1209 0.08747 0.77823 0.0
Zn33 Zn 0.07509 0.1292 0.76136 0.0
O34 O 0.1862 0.28967 0.7637 0.0
O35 O 0.10347 0.37359 0.76592 0.0
O36 O 0.08786 0.08054 0.74189 0.0
O37 O 1.01619 0.17568 0.74128 0.0
O38 O 0.86898 0.17149 0.76444 0.0
O39 O 0.91095 0.05228 0.76177 0.0
C40 C 0.18702 0.37432 0.76525 0.0
C41 C 0.8428 0.07771 0.76309 0.0
C42 C 0.11888 0.11524 0.62226 0.0
C43 C 0.12587 0.12964 0.56932 0.0
O44 O 0.16455 0.19288 0.61569 0.0
Zn45 Zn 0.12251 0.12148 0.59576 0.0
O46 O 0.06834 0.02543 0.61469 0.0
Zn47 Zn 0.03754 0.96073 0.59153 0.0
O48 O 0.10489 0.88211 0.59156 0.0
O49 O 0.2127 0.04907 0.59483 0.0
O50 O 0.07838 0.03701 0.57207 0.0
O51 O 0.16331 0.2031 0.57993 0.0
O52 O 0.95737 0.05311 0.59278 0.0
O53 O 0.89069 0.88595 0.58742 0.0
C54 C 0.19598 0.95747 0.59331 0.0
C55 C 0.8789 0.96248 0.58951 0.0
C56 C 0.14534 0.18656 0.95686 0.0
C57 C 0.11156 0.15908 0.90296 0.0
O58 O 0.11147 0.22858 0.94849 0.0
Zn59 Zn 0.12827 0.17272 0.92991 0.0
O60 O 0.17689 0.1292 0.95115 0.0
Zn61 Zn 0.19005 0.07555 0.92923 0.0
O62 O 0.33623 0.13127 0.93004 0.0
O63 O 0.29254 0.24934 0.93059 0.0
O64 O 0.15014 0.10732 0.90786 0.0
O65 O 0.08613 0.20767 0.91199 0.0
O66 O 1.01756 1.01245 0.92867 0.0
O67 O 0.10125 0.92874 0.92796 0.0
C68 C 0.36174 0.22455 0.93052 0.0
C69 C 1.01737 0.92813 0.92808 0.0
C70 C 0.18863 0.17407 0.29174 0.0
C71 C 0.15524 0.15136 0.2379 0.0
O72 O 0.10873 0.14642 0.28264 0.0
Zn73 Zn 0.17214 0.16347 0.26481 0.0
O74 O 0.27482 0.20299 0.28697 0.0
Zn75 Zn 0.33173 0.2235 0.2658 0.0
O76 O 0.42446 0.37011 0.26755 0.0
O77 O 0.26203 0.32714 0.26621 0.0
O78 O 0.24862 0.18813 0.24376 0.0
O79 O 0.08509 0.12509 0.24613 0.0
O80 O 0.21997 0.05123 0.26399 0.0
O81 O 0.38851 0.13463 0.26485 0.0
C82 C 0.35701 0.39609 0.26717 0.0
C83 C 0.30422 0.05073 0.2641 0.0
H84 H 0.11621 0.85335 0.09619 0.0
C85 C 0.04111 0.84628 0.09472 0.0
H86 H 0.88086 0.74346 0.09189 0.0
H87 H 0.94278 0.37462 0.06777 0.0
H88 H 0.86257 0.39563 0.04539 0.0
H89 H 0.82774 0.5371 0.04519 0.0
H90 H 0.87366 0.65896 0.06739 0.0
C91 C 0.95691 0.75314 0.09372 0.0
C92 C 0.96639 0.6607 0.09443 0.0
C93 C 0.9359 0.58799 0.08152 0.0
C94 C 0.95454 0.50531 0.08171 0.0
C95 C 0.92814 0.43717 0.06841 0.0
C96 C 0.88252 0.44869 0.05543 0.0
C97 C 0.86302 0.52842 0.05532 0.0
C98 C 0.88964 0.59774 0.06815 0.0
H99 H 0.87886 0.2893 0.09289 0.0
C100 C 0.95995 0.31387 0.09412 0.0
H101 H 0.11153 0.43938 0.09664 0.0
H102 H 1.021 0.77783 0.1217 0.0
H103 H 0.10024 0.75632 0.14417 0.0
H104 H 0.134 0.61423 0.14445 0.0
H105 H 0.08907 0.49287 0.12224 0.0
C106 C 1.03022 0.41387 0.09499 0.0
C107 C 1.00178 0.49433 0.09492 0.0
C108 C 1.02878 0.56496 0.10798 0.0
C109 C 1.01031 0.64762 0.10778 0.0
C110 C 0.03589 0.71538 0.1211 0.0
C111 C 0.08057 0.7034 0.13413 0.0
C112 C 0.09962 0.62341 0.13428 0.0
C113 C 0.07382 0.55453 0.12142 0.0
H114 H 0.18094 0.80175 0.41613 0.0
C115 C 0.20625 0.88176 0.41954 0.0
H116 H 0.33331 0.03179 0.42528 0.0
H117 H 0.56921 0.77763 0.4391 0.0
H118 H 0.46535 0.7197 0.45898 0.0
H119 H 0.32561 0.75555 0.46161 0.0
H120 H 0.28837 0.84885 0.44434 0.0
C121 C 0.30714 0.95114 0.42237 0.0
C122 C 0.38663 0.92297 0.4204 0.0
C123 C 0.40706 0.86799 0.4306 0.0
C124 C 0.48873 0.84864 0.42923 0.0
C125 C 0.50828 0.79456 0.43965 0.0
C126 C 0.44933 0.76095 0.45112 0.0
C127 C 0.37056 0.78102 0.45259 0.0
C128 C 0.34962 0.83425 0.44253 0.0
H129 H 0.74459 0.03505 0.42405 0.0
C130 C 0.73797 0.96103 0.42126 0.0
H131 H 0.63522 0.80201 0.41531 0.0
H132 H 0.36433 0.02556 0.39853 0.0
H133 H 0.46673 0.08113 0.37846 0.0
H134 H 0.60678 0.04555 0.37593 0.0
H135 H 0.64564 0.95472 0.39351 0.0
C136 C 0.64428 0.87734 0.41766 0.0
C137 C 0.55095 0.88603 0.41787 0.0
C138 C 0.52787 0.93736 0.40732 0.0
C139 C 0.44625 0.95663 0.40867 0.0
C140 C 0.4257 1.00918 0.39807 0.0
C141 C 0.48365 0.04122 0.38646 0.0
C142 C 0.56255 1.02128 0.38504 0.0
C143 C 0.58452 0.96971 0.39528 0.0
H144 H 0.67813 1.02234 0.76384 0.0
C145 C 0.73457 0.99867 0.76332 0.0
H146 H 0.76152 0.8756 0.76338 0.0
H147 H 0.37643 0.59367 0.79341 0.0
H148 H 0.50988 0.66083 0.81465 0.0
H149 H 0.6844 0.80186 0.81318 0.0
H150 H 0.72691 0.87634 0.79044 0.0
C151 C 0.70507 0.89951 0.76327 0.0
C152 C 0.59735 0.8203 0.7644 0.0
C153 C 0.57406 0.77674 0.77771 0.0
C154 C 0.47355 0.69486 0.77853 0.0
C155 C 0.45204 0.65439 0.79208 0.0
C156 C 0.52777 0.69265 0.80438 0.0
C157 C 0.62608 0.77203 0.80355 0.0
C158 C 0.64944 0.81394 0.79042 0.0
H159 H 0.35476 0.46527 0.76621 0.0
C160 C 0.28596 0.47061 0.76607 0.0
H161 H 0.22673 0.56976 0.7654 0.0
H162 H 0.61573 0.88608 0.73717 0.0
H163 H 0.4813 0.82116 0.71614 0.0
H164 H 0.3066 0.6806 0.71767 0.0
H165 H 0.26535 0.60383 0.74025 0.0
C166 C 0.2946 0.56275 0.76618 0.0
C167 C 0.39669 0.65563 0.76596 0.0
C168 C 0.41885 0.70181 0.75284 0.0
C169 C 0.51946 0.78369 0.75201 0.0
C170 C 0.54036 0.82518 0.73853 0.0
C171 C 0.46395 0.7883 0.72634 0.0
C172 C 0.36559 0.70911 0.72719 0.0
C173 C 0.34294 0.66582 0.74024 0.0
H174 H 0.28502 0.88967 0.60161 0.0
C175 C 0.28314 0.94078 0.59416 0.0
H176 H 0.35536 0.04 0.57882 0.0
H177 H 0.81472 0.1904 0.59818 0.0
H178 H 0.81104 0.34722 0.59913 0.0
H179 H 0.64676 0.34396 0.59616 0.0
H180 H 0.48553 0.18388 0.59184 0.0
C181 C 0.3606 0.9906 0.58633 0.0
C182 C 0.4589 0.99059 0.58879 0.0
C183 C 0.55281 0.08561 0.59206 0.0
C184 C 0.64748 0.08767 0.59453 0.0
C185 C 0.74022 0.18369 0.5968 0.0
C186 C 0.73943 0.27475 0.5973 0.0
C187 C 0.64702 0.2729 0.59558 0.0
C188 C 0.55472 0.17992 0.59301 0.0
H189 H 0.72053 0.89366 0.57832 0.0
C190 C 0.77532 0.94765 0.58765 0.0
H191 H 0.80429 0.0514 0.60658 0.0
H192 H 0.29796 0.79518 0.57921 0.0
H193 H 0.29898 0.63809 0.58103 0.0
H194 H 0.45768 0.64262 0.59071 0.0
H195 H 0.61706 0.80411 0.59781 0.0
C196 C 0.74845 0.9991 0.5972 0.0
C197 C 0.64807 0.99493 0.59466 0.0
C198 C 0.55369 0.90012 0.59214 0.0
C199 C 0.46002 0.89777 0.58819 0.0
C200 C 0.36948 0.80169 0.58359 0.0
C201 C 0.36925 0.71081 0.58439 0.0
C202 C 0.45871 0.71335 0.58973 0.0
C203 C 0.55003 0.80665 0.59359 0.0
H204 H 0.52748 0.28075 0.93077 0.0
C205 C 0.47034 0.30377 0.93063 0.0
H206 H 0.44309 0.42661 0.93042 0.0
H207 H 0.89022 0.77912 0.95619 0.0
H208 H 0.80378 0.76711 0.97783 0.0
H209 H 0.62797 0.62456 0.97808 0.0
H210 H 0.53706 0.49334 0.95665 0.0
C211 C 0.49924 0.4024 0.93019 0.0
C212 C 0.60823 0.48336 0.93029 0.0
C213 C 0.66042 0.55953 0.94289 0.0
C214 C 0.76155 0.64226 0.9427 0.0
C215 C 0.81242 0.71605 0.95557 0.0
C216 C 0.76407 0.70962 0.96813 0.0
C217 C 0.66502 0.62939 0.96827 0.0
C218 C 0.61358 0.55479 0.95586 0.0
H219 H 0.85059 0.83838 0.92818 0.0
C220 C 0.91918 0.83276 0.92818 0.0
H221 H 0.97804 0.73312 0.92867 0.0
H222 H 0.5291 0.35263 0.90396 0.0
H223 H 0.61562 0.36484 0.88237 0.0
H224 H 0.79238 0.50628 0.88227 0.0
H225 H 0.88339 0.63704 0.90377 0.0
C226 C 0.91131 0.7416 0.92895 0.0
C227 C 0.80988 0.64962 0.92979 0.0
C228 C 0.75911 0.57172 0.91737 0.0
C229 C 0.65772 0.48907 0.91753 0.0
C230 C 0.60696 0.41553 0.90464 0.0
C231 C 0.65557 0.42193 0.89211 0.0
C232 C 0.75504 0.50164 0.89204 0.0
C233 C 0.80644 0.57611 0.90446 0.0
H234 H 0.46809 0.56116 0.26757 0.0
C235 C 0.38748 0.50483 0.26737 0.0
H236 H 0.23663 0.47812 0.2662 0.0
H237 H 0.48836 0.97556 0.28944 0.0
H238 H 0.55409 0.93788 0.31163 0.0
H239 H 0.5229 0.76432 0.31326 0.0
H240 H 0.42641 0.62753 0.29271 0.0
C241 C 0.31767 0.53469 0.26692 0.0
C242 C 0.34486 0.64213 0.26575 0.0
C243 C 0.40123 0.72128 0.27793 0.0
C244 C 0.41792 0.82125 0.27708 0.0
C245 C 0.47353 0.89845 0.28946 0.0
C246 C 0.51153 0.87783 0.30229 0.0
C247 C 0.49406 0.78012 0.3032 0.0
C248 C 0.43903 0.70234 0.29126 0.0
H249 H 0.22591 0.88321 0.26291 0.0
C250 C 0.30073 0.95188 0.26354 0.0
H251 H 0.46054 1.01116 0.26513 0.0
H252 H 0.23952 0.51007 0.24006 0.0
H253 H 0.17727 0.54896 0.21769 0.0
H254 H 0.20934 0.72287 0.21605 0.0
H255 H 0.3023 0.85852 0.23689 0.0
C256 C 0.38477 0.94326 0.26399 0.0
C257 C 0.37656 0.84151 0.26418 0.0
C258 C 0.32425 0.76354 0.25176 0.0
C259 C 0.30752 0.66368 0.25261 0.0
C260 C 0.25392 0.5871 0.24009 0.0
C261 C 0.21829 0.6085 0.22712 0.0
C262 C 0.23613 0.70635 0.22622 0.0
C263 C 0.28885 0.78333 0.23832 0.0
H264 H 0.04888 0.10557 0.21703 0.0
C265 C 0.12919 0.1412 0.22169 0.0
H266 H 0.28258 0.21639 0.21724 0.0
H267 H 0.04684 0.97119 0.15013 0.0
H268 H 1.00978 0.81761 0.16063 0.0
H269 H 0.05048 0.82431 0.18756 0.0
H270 H 0.12709 0.98451 0.20418 0.0
C271 C 0.2018 0.17685 0.21268 0.0
C272 C 0.17535 0.17164 0.19647 0.0
C273 C 0.13082 0.07729 0.1869 0.0
C274 C 0.1085 0.0737 0.17135 0.0
C275 C 0.0649 0.97853 0.16204 0.0
C276 C 0.04364 0.8897 0.16791 0.0
C277 C 0.06634 0.89344 0.18307 0.0
C278 C 0.10984 0.98593 0.1925 0.0
H279 H 0.2683 0.25157 0.14662 0.0
C280 C 0.18988 0.20627 0.14099 0.0
H281 H 0.034 0.11243 0.14347 0.0
H282 H 0.25961 0.36441 0.21177 0.0
H283 H 0.2931 0.51765 0.20138 0.0
H284 H 0.2491 0.51051 0.17453 0.0
H285 H 0.17334 0.35058 0.15786 0.0
C286 C 0.11238 0.16044 0.149 0.0
C287 C 0.13187 0.16464 0.16537 0.0
C288 C 0.17417 0.25858 0.175 0.0
C289 C 0.19719 0.26224 0.19054 0.0
C290 C 0.24053 0.35721 0.19988 0.0
C291 C 0.25972 0.44571 0.19408 0.0
C292 C 0.23524 0.44174 0.17895 0.0
C293 C 0.19254 0.34948 0.16949 0.0
H294 H 0.18122 0.23091 0.55209 0.0
C295 C 0.13727 0.15157 0.55391 0.0
H296 H 0.0526 0.99715 0.5439 0.0
H297 H 0.03496 0.23351 0.48686 0.0
H298 H 0.93724 0.28816 0.50084 0.0
H299 H 0.91413 0.25447 0.52665 0.0
H300 H 0.98916 0.16684 0.53866 0.0
C301 C 0.09432 0.07687 0.5422 0.0
C302 C 0.10853 0.09912 0.5267 0.0
C303 C 0.06309 0.14977 0.51981 0.0
C304 C 0.07458 0.16734 0.50482 0.0
C305 C 1.02843 0.21794 0.49819 0.0
C306 C 0.97197 0.24959 0.50609 0.0
C307 C 0.95911 0.23078 0.52062 0.0
C308 C 1.00341 0.18101 0.52743 0.0
H309 H 0.03568 0.9832 0.47374 0.0
C310 C 0.07853 0.05801 0.47021 0.0
H311 H 0.17218 0.21714 0.47728 0.0
H312 H 0.20785 1.0027 0.5367 0.0
H313 H 0.30585 0.94865 0.52268 0.0
H314 H 0.32628 0.97995 0.49673 0.0
H315 H 0.2485 0.06522 0.48463 0.0
C316 C 0.13165 0.14127 0.48053 0.0
C317 C 0.12892 0.13183 0.49663 0.0
C318 C 0.17617 0.0832 0.50361 0.0
C319 C 0.16533 0.0662 0.51862 0.0
C320 C 0.21306 1.01711 0.52529 0.0
C321 C 0.26988 0.98598 0.51739 0.0
C322 C 0.2813 1.00351 0.50278 0.0
C323 C 0.23559 0.0519 0.49593 0.0
H324 H 0.14855 0.0777 0.80672 0.0
C325 C 0.11377 0.12241 0.80385 0.0
H326 H 0.05074 0.21005 0.81191 0.0
H327 H 0.99675 0.9367 0.86662 0.0
H328 H 0.87349 0.79063 0.84865 0.0
H329 H 0.84996 0.80804 0.82222 0.0
H330 H 0.94894 0.97147 0.81358 0.0
C331 C 0.08347 0.16324 0.81456 0.0
C332 C 0.09823 0.15105 0.83041 0.0
C333 C 0.03836 0.05496 0.83528 0.0
C334 C 0.05106 0.04513 0.85055 0.0
C335 C 0.99032 0.94844 0.85514 0.0
C336 C 0.91909 0.86399 0.84496 0.0
C337 C 0.90581 0.87381 0.83007 0.0
C338 C 0.96389 0.96806 0.82524 0.0
H339 H 0.06675 0.21018 0.88327 0.0
C340 C 0.09981 0.16558 0.88696 0.0
H341 H 0.16302 0.07482 0.88042 0.0
H342 H 0.22606 0.34528 0.82468 0.0
H343 H 0.35196 0.49035 0.84257 0.0
H344 H 0.37621 0.47246 0.86897 0.0
H345 H 0.2742 0.30977 0.87768 0.0
C346 C 0.13187 0.12153 0.877 0.0
C347 C 0.12203 0.13163 0.86096 0.0
C348 C 0.18335 0.22719 0.85604 0.0
C349 C 0.1706 0.23709 0.84077 0.0
C350 C 0.23242 0.33348 0.83616 0.0
C351 C 0.30523 0.41735 0.8463 0.0
C352 C 0.31879 0.40731 0.86117 0.0
C353 C 0.25911 0.31352 0.86603 0.0
H354 H 0.2709 0.22355 0.05318 0.0
C355 C 0.19229 0.18726 0.05557 0.0
H356 H 0.03578 0.11438 0.04666 0.0
H357 H 0.29299 0.35412 0.9924 0.0
H358 H 0.3564 0.51182 1.00913 0.0
H359 H 0.31338 0.50887 0.03467 0.0
H360 H 0.20909 0.34822 0.04374 0.0
C361 C 0.11466 0.15217 0.04438 0.0
C362 C 0.13253 0.15574 0.02856 0.0
C363 C 0.189 0.2507 0.0232 0.0
C364 C 0.20856 0.25257 1.00818 0.0
C365 C 0.27144 0.34821 1.00345 0.0
C366 C 0.30904 0.43941 0.01298 0.0
C367 C 0.28522 0.43774 0.02738 0.0
C368 C 0.22588 0.3448 0.03248 0.0
H369 H 0.10453 0.2382 0.97723 0.0
C370 C 0.14275 0.19918 0.973 0.0
H371 H 0.21792 0.11866 0.97817 0.0
H372 H 1.02198 0.96067 0.03522 0.0
H373 H 0.95136 0.80329 0.01815 0.0
H374 H 0.97647 0.8067 0.99177 0.0
H375 H 0.07214 0.96736 0.98231 0.0
C376 C 0.18191 0.15996 0.98239 0.0
C377 C 0.16614 0.15965 0.99831 0.0
C378 C 0.10792 0.06483 1.0036 0.0
C379 C 0.09178 0.06289 0.01875 0.0
C380 C 0.03527 0.96693 0.02378 0.0
C381 C 0.99441 0.87582 0.0141 0.0
C382 C 1.00857 0.87773 0.99926 0.0
C383 C 0.06421 0.97075 0.99399 0.0
H384 H 0.24102 0.15991 0.31409 0.0
C385 C 0.18295 0.16836 0.30769 0.0
H386 H 0.05279 0.18337 0.30805 0.0
H387 H 0.89591 0.96867 0.36407 0.0
H388 H 0.74874 0.87208 0.34499 0.0
H389 H 0.76137 0.90344 0.31896 0.0
H390 H 0.92061 0.03253 0.31189 0.0
C391 C 0.11019 0.17412 0.31447 0.0
C392 C 0.10132 0.16 0.33042 0.0
C393 C 1.00792 0.08208 0.33429 0.0
C394 C 1.00152 0.0616 0.34922 0.0
C395 C 0.90621 0.9857 0.35284 0.0
C396 C 0.82078 0.92982 0.34201 0.0
C397 C 0.82785 0.94761 0.32736 0.0
C398 C 0.92003 1.02245 0.32347 0.0
H399 H 0.12747 0.23339 0.3867 0.0
C400 C 0.10083 0.15366 0.38764 0.0
H401 H 0.05564 1.00779 0.3765 0.0
H402 H 0.28161 0.33392 0.32797 0.0
H403 H 0.43209 0.42519 0.34668 0.0
H404 H 0.43055 0.37044 0.37139 0.0
H405 H 0.27747 0.22751 0.37773 0.0
C406 C 0.08271 0.08752 0.37548 0.0
C407 C 0.08939 0.11632 0.3602 0.0
C408 C 0.1826 0.1949 0.35635 0.0
C409 C 0.18666 0.22036 0.34167 0.0
C410 C 0.27688 0.30647 0.3386 0.0
C411 C 0.36345 0.36026 0.34928 0.0
C412 C 0.36235 0.32987 0.36322 0.0
C413 C 0.27333 0.24816 0.36677 0.0
H414 H 0.19007 0.19944 0.64479 0.0
C415 C 0.12675 0.12882 0.63859 0.0
H416 H 0.99443 0.98739 0.6396 0.0
H417 H 0.08838 0.92225 0.70433 0.0
H418 H 0.07421 0.77525 0.68951 0.0
H419 H 0.06089 0.76193 0.66221 0.0
H420 H 0.05984 0.89458 0.64955 0.0
C421 C 0.05766 0.05785 0.64586 0.0
C422 C 0.06889 0.06874 0.66244 0.0
C423 C 0.07244 0.99166 0.66972 0.0
C424 C 0.0835 1.00089 0.68551 0.0
C425 C 0.0826 0.92065 0.69241 0.0
C426 C 0.07425 0.83551 0.68403 0.0
C427 C 0.06655 0.82791 0.66866 0.0
C428 C 0.06567 0.90471 0.66153 0.0
H429 H 0.97842 0.11902 0.71224 0.0
C430 C 0.03745 0.1097 0.71817 0.0
H431 H 0.16299 0.08801 0.71654 0.0
H432 H 0.04314 0.22051 0.65237 0.0
H433 H 0.07452 0.37556 0.66713 0.0
H434 H 0.12553 0.40609 0.69427 0.0
H435 H 0.14038 0.27942 0.70681 0.0
C436 C 0.10323 0.09624 0.71061 0.0
C437 C 0.09471 0.0889 0.69407 0.0
C438 C 0.09619 0.16833 0.68679 0.0
C439 C 0.07711 0.15543 0.67101 0.0
C440 C 0.0657 0.22994 0.66419 0.0
C441 C 0.08231 0.3189 0.67256 0.0
C442 C 0.11027 0.33575 0.68784 0.0
C443 C 0.11731 0.2617 0.69493 0.0
loop_
_geom_bond_atom_site_label_1
_geom_bond_atom_site_label_2
_geom_bond_distance
_geom_bond_site_symmetry_2
_ccdc_geom_bond_type
C0 O2 1.247 1_565 S
C0 O4 1.258 . S
C1 O8 1.247 . S
C1 O9 1.258 . S
O2 C0 1.247 1_545 S
O2 Zn3 2.028 . S
Zn3 O2 2.028 . S
Zn3 O7 2.035 . S
Zn3 O9 2.035 . S
Zn3 O10 2.028 . S
O4 C0 1.258 . S
O4 Zn5 2.035 1_565 S
Zn5 O4 2.035 1_545 S
Zn5 O6 2.028 . S
Zn5 O8 2.028 . S
Zn5 O11 2.035 . S
O6 Zn5 2.028 . S
O6 C12 1.247 . S
O7 Zn3 2.035 . S
O7 C12 1.258 . S
O8 C1 1.247 . S
O8 Zn5 2.028 . S
O9 C1 1.258 . S
O9 Zn3 2.035 . S
O10 Zn3 2.028 . S
O10 C13 1.247 . S
O11 Zn5 2.035 . S
O11 C13 1.258 . S
C12 O6 1.247 . S
C12 O7 1.258 . S
C13 O10 1.247 . S
C13 O11 1.258 . S
C14 O16 1.247 1_545 S
C14 O18 1.258 . S
C15 O22 1.247 . S
C15 O23 1.258 1_545 S
O16 C14 1.247 1_565 S
O16 Zn17 2.028 . S
Zn17 O16 2.028 . S
Zn17 O21 2.035 . S
Zn17 O23 2.035 1_455 S
Zn17 O24 2.028 . S
O18 C14 1.258 . S
O18 Zn19 2.035 . S
Zn19 O18 2.035 . S
Zn19 O20 2.028 . S
Zn19 O22 2.028 1_455 S
Zn19 O25 2.035 . S
O20 Zn19 2.028 . S
O20 C26 1.247 . S
O21 Zn17 2.035 . S
O21 C26 1.258 1_565 S
O22 C15 1.247 . S
O22 Zn19 2.028 1_655 S
O23 C15 1.258 1_565 S
O23 Zn17 2.035 1_655 S
O24 Zn17 2.028 . S
O24 C27 1.247 1_565 S
O25 Zn19 2.035 . S
O25 C27 1.258 . S
C26 O20 1.247 . S
C26 O21 1.258 1_545 S
C27 O24 1.247 1_545 S
C27 O25 1.258 . S
C28 O30 1.247 1_455 S
C28 O32 1.258 . S
C29 O36 1.247 . S
C29 O37 1.258 1_455 S
O30 C28 1.247 1_655 S
O30 Zn31 2.028 . S
Zn31 O30 2.028 . S
Zn31 O35 2.035 1_655 S
Zn31 O37 2.035 . S
Zn31 O38 2.028 . S
O32 C28 1.258 . S
O32 Zn33 2.035 . S
Zn33 O32 2.035 . S
Zn33 O34 2.028 . S
Zn33 O36 2.028 . S
Zn33 O39 2.035 1_445 S
O34 Zn33 2.028 . S
O34 C40 1.247 . S
O35 Zn31 2.035 1_455 S
O35 C40 1.258 . S
O36 C29 1.247 . S
O36 Zn33 2.028 . S
O37 C29 1.258 1_655 S
O37 Zn31 2.035 . S
O38 Zn31 2.028 . S
O38 C41 1.247 1_545 S
O39 Zn33 2.035 1_665 S
O39 C41 1.258 . S
C40 O34 1.247 . S
C40 O35 1.258 . S
C41 O38 1.247 1_565 S
C41 O39 1.258 . S
C42 O44 1.247 . S
C42 O46 1.258 1_445 S
C43 O50 1.247 1_455 S
C43 O51 1.258 1_565 S
O44 C42 1.247 . S
O44 Zn45 2.028 . S
Zn45 O44 2.028 . S
Zn45 O49 2.035 . S
Zn45 O51 2.035 . S
Zn45 O52 2.028 1_455 S
O46 C42 1.258 1_665 S
O46 Zn47 2.035 . S
Zn47 O46 2.035 . S
Zn47 O48 2.028 1_655 S
Zn47 O50 2.028 . S
Zn47 O53 2.035 . S
O48 Zn47 2.028 1_455 S
O48 C54 1.247 1_565 S
O49 Zn45 2.035 . S
O49 C54 1.258 . S
O50 C43 1.247 1_655 S
O50 Zn47 2.028 . S
O51 C43 1.258 1_545 S
O51 Zn45 2.035 . S
O52 Zn45 2.028 1_655 S
O52 C55 1.247 . S
O53 Zn47 2.035 . S
O53 C55 1.258 1_565 S
C54 O48 1.247 1_545 S
C54 O49 1.258 . S
C55 O52 1.247 . S
C55 O53 1.258 1_545 S
C56 O58 1.247 . S
C56 O60 1.258 . S
C57 O64 1.247 . S
C57 O65 1.258 . S
O58 C56 1.247 . S
O58 Zn59 2.028 . S
Zn59 O58 2.028 . S
Zn59 O63 2.035 . S
Zn59 O65 2.035 . S
Zn59 O66 2.028 1_455 S
O60 C56 1.258 . S
O60 Zn61 2.035 . S
Zn61 O60 2.035 . S
Zn61 O62 2.028 . S
Zn61 O64 2.028 . S
Zn61 O67 2.035 1_445 S
O62 Zn61 2.028 . S
O62 C68 1.247 . S
O63 Zn59 2.035 . S
O63 C68 1.258 . S
O64 C57 1.247 . S
O64 Zn61 2.028 . S
O65 C57 1.258 . S
O65 Zn59 2.035 . S
O66 Zn59 2.028 1_655 S
O66 C69 1.247 1_545 S
O67 Zn61 2.035 1_665 S
O67 C69 1.258 . S
C68 O62 1.247 . S
C68 O63 1.258 . S
C69 O66 1.247 1_565 S
C69 O67 1.258 . S
C70 O72 1.247 . S
C70 O74 1.258 . S
C71 O78 1.247 . S
C71 O79 1.258 . S
O72 C70 1.247 . S
O72 Zn73 2.028 . S
Zn73 O72 2.028 . S
Zn73 O77 2.035 . S
Zn73 O79 2.035 . S
Zn73 O80 2.028 1_545 S
O74 C70 1.258 . S
O74 Zn75 2.035 . S
Zn75 O74 2.035 . S
Zn75 O76 2.028 . S
Zn75 O78 2.028 . S
Zn75 O81 2.035 . S
O76 Zn75 2.028 . S
O76 C82 1.247 . S
O77 Zn73 2.035 . S
O77 C82 1.258 . S
O78 C71 1.247 . S
O78 Zn75 2.028 . S
O79 C71 1.258 . S
O79 Zn73 2.035 . S
O80 Zn73 2.028 1_565 S
O80 C83 1.247 . S
O81 Zn75 2.035 . S
O81 C83 1.258 1_545 S
C82 O76 1.247 . S
C82 O77 1.258 . S
C83 O80 1.247 . S
C83 O81 1.258 1_565 S
H84 C85 0.951 . S
C85 H84 0.951 . S
C85 C91 1.265 . S
H86 C91 0.950 . S
H87 C95 0.949 . S
H88 C96 0.950 . S
H89 C97 0.951 . S
H90 C98 0.951 . S
C91 C85 1.265 . S
C91 H86 0.950 . S
C91 C92 1.478 . S
C92 C91 1.478 . S
C92 C93 1.397 . S
C92 C109 1.394 . S
C93 C92 1.397 . S
C93 C94 1.438 . S
C93 C98 1.429 . S
C94 C93 1.438 . S
C94 C95 1.428 . S
C94 C107 1.394 . S
C95 H87 0.949 . S
C95 C94 1.428 . S
C95 C96 1.345 . S
C96 H88 0.950 . S
C96 C95 1.345 . S
C96 C97 1.424 . S
C97 H89 0.951 . S
C97 C96 1.424 . S
C97 C98 1.347 . S
C98 H90 0.951 . S
C98 C93 1.429 . S
C98 C97 1.347 . S
H99 C100 0.951 . S
C100 H99 0.951 . S
C100 C106 1.265 . S
H101 C106 0.950 . S
H102 C110 0.949 . S
H103 C111 0.950 . S
H104 C112 0.951 . S
H105 C113 0.951 . S
C106 C100 1.265 . S
C106 H101 0.950 . S
C106 C107 1.478 . S
C107 C94 1.394 . S
C107 C106 1.478 . S
C107 C108 1.397 . S
C108 C107 1.397 . S
C108 C109 1.438 . S
C108 C113 1.429 . S
C109 C92 1.394 . S
C109 C108 1.438 . S
C109 C110 1.428 . S
C110 H102 0.949 . S
C110 C109 1.428 . S
C110 C111 1.345 . S
C111 H103 0.950 . S
C111 C110 1.345 . S
C111 C112 1.424 . S
C112 H104 0.951 . S
C112 C111 1.424 . S
C112 C113 1.347 . S
C113 H105 0.951 . S
C113 C108 1.429 . S
C113 C112 1.347 . S
H114 C115 0.951 . S
C115 H114 0.951 . S
C115 C121 1.265 . S
H116 C121 0.950 . S
H117 C125 0.949 . S
H118 C126 0.950 . S
H119 C127 0.951 . S
H120 C128 0.951 . S
C121 C115 1.265 . S
C121 H116 0.950 . S
C121 C122 1.478 . S
C122 C121 1.478 . S
C122 C123 1.397 1_545 S
C122 C139 1.394 . S
C123 C122 1.397 1_565 S
C123 C124 1.438 . S
C123 C128 1.429 . S
C124 C123 1.438 . S
C124 C125 1.428 . S
C124 C137 1.394 1_565 S
C125 H117 0.949 . S
C125 C124 1.428 . S
C125 C126 1.345 . S
C126 H118 0.950 . S
C126 C125 1.345 . S
C126 C127 1.424 . S
C127 H119 0.951 . S
C127 C126 1.424 . S
C127 C128 1.347 . S
C128 H120 0.951 . S
C128 C123 1.429 . S
C128 C127 1.347 . S
H129 C130 0.951 . S
C130 H129 0.951 . S
C130 C136 1.265 . S
H131 C136 0.950 . S
H132 C140 0.949 . S
H133 C141 0.950 . S
H134 C142 0.951 . S
H135 C143 0.951 . S
C136 C130 1.265 . S
C136 H131 0.950 . S
C136 C137 1.478 . S
C137 C124 1.394 1_545 S
C137 C136 1.478 . S
C137 C138 1.397 . S
C138 C137 1.397 . S
C138 C139 1.438 . S
C138 C143 1.429 . S
C139 C122 1.394 . S
C139 C138 1.438 . S
C139 C140 1.428 . S
C140 H132 0.949 . S
C140 C139 1.428 . S
C140 C141 1.345 . S
C141 H133 0.950 . S
C141 C140 1.345 . S
C141 C142 1.424 . S
C142 H134 0.951 . S
C142 C141 1.424 . S
C142 C143 1.347 . S
C143 H135 0.951 . S
C143 C138 1.429 . S
C143 C142 1.347 . S
H144 C145 0.951 . S
C145 H144 0.951 . S
C145 C151 1.265 . S
H146 C151 0.950 . S
H147 C155 0.949 . S
H148 C156 0.950 . S
H149 C157 0.951 . S
H150 C158 0.951 . S
C151 C145 1.265 . S
C151 H146 0.950 . S
C151 C152 1.478 . S
C152 C151 1.478 . S
C152 C153 1.397 . S
C152 C169 1.394 . S
C153 C152 1.397 . S
C153 C154 1.438 . S
C153 C158 1.429 . S
C154 C153 1.438 . S
C154 C155 1.428 . S
C154 C167 1.394 . S
C155 H147 0.949 . S
C155 C154 1.428 . S
C155 C156 1.345 . S
C156 H148 0.950 . S
C156 C155 1.345 . S
C156 C157 1.424 . S
C157 H149 0.951 . S
C157 C156 1.424 . S
C157 C158 1.347 . S
C158 H150 0.951 . S
C158 C153 1.429 . S
C158 C157 1.347 . S
H159 C160 0.951 . S
C160 H159 0.951 . S
C160 C166 1.265 . S
H161 C166 0.950 . S
H162 C170 0.949 . S
H163 C171 0.950 . S
H164 C172 0.951 . S
H165 C173 0.951 . S
C166 C160 1.265 . S
C166 H161 0.950 . S
C166 C167 1.478 . S
C167 C154 1.394 . S
C167 C166 1.478 . S
C167 C168 1.397 . S
C168 C167 1.397 . S
C168 C169 1.438 . S
C168 C173 1.429 . S
C169 C152 1.394 . S
C169 C168 1.438 . S
C169 C170 1.428 . S
C170 H162 0.949 . S
C170 C169 1.428 . S
C170 C171 1.345 . S
C171 H163 0.950 . S
C171 C170 1.345 . S
C171 C172 1.424 . S
C172 H164 0.951 . S
C172 C171 1.424 . S
C172 C173 1.347 . S
C173 H165 0.951 . S
C173 C168 1.429 . S
C173 C172 1.347 . S
H174 C175 0.951 . S
C175 H174 0.951 . S
C175 C181 1.265 . S
H176 C181 0.950 . S
H177 C185 0.949 . S
H178 C186 0.950 . S
H179 C187 0.951 . S
H180 C188 0.951 . S
C181 C175 1.265 . S
C181 H176 0.950 . S
C181 C182 1.478 . S
C182 C181 1.478 . S
C182 C183 1.397 . S
C182 C199 1.394 1_545 S
C183 C182 1.397 . S
C183 C184 1.438 . S
C183 C188 1.429 . S
C184 C183 1.438 . S
C184 C185 1.428 . S
C184 C197 1.394 . S
C185 H177 0.949 . S
C185 C184 1.428 . S
C185 C186 1.345 . S
C186 H178 0.950 . S
C186 C185 1.345 . S
C186 C187 1.424 . S
C187 H179 0.951 . S
C187 C186 1.424 . S
C187 C188 1.347 . S
C188 H180 0.951 . S
C188 C183 1.429 . S
C188 C187 1.347 . S
H189 C190 0.951 . S
C190 H189 0.951 . S
C190 C196 1.265 . S
H191 C196 0.950 1_565 S
H192 C200 0.949 . S
H193 C201 0.950 . S
H194 C202 0.951 . S
H195 C203 0.951 . S
C196 C190 1.265 . S
C196 H191 0.950 1_545 S
C196 C197 1.478 . S
C197 C184 1.394 . S
C197 C196 1.478 . S
C197 C198 1.397 1_545 S
C198 C197 1.397 1_565 S
C198 C199 1.438 . S
C198 C203 1.429 . S
C199 C182 1.394 1_565 S
C199 C198 1.438 . S
C199 C200 1.428 . S
C200 H192 0.949 . S
C200 C199 1.428 . S
C200 C201 1.345 . S
C201 H193 0.950 . S
C201 C200 1.345 . S
C201 C202 1.424 . S
C202 H194 0.951 . S
C202 C201 1.424 . S
C202 C203 1.347 . S
C203 H195 0.951 . S
C203 C198 1.429 . S
C203 C202 1.347 . S
H204 C205 0.951 . S
C205 H204 0.951 . S
C205 C211 1.265 . S
H206 C211 0.950 . S
H207 C215 0.949 . S
H208 C216 0.950 . S
H209 C217 0.951 . S
H210 C218 0.951 . S
C211 C205 1.265 . S
C211 H206 0.950 . S
C211 C212 1.478 . S
C212 C211 1.478 . S
C212 C213 1.397 . S
C212 C229 1.394 . S
C213 C212 1.397 . S
C213 C214 1.438 . S
C213 C218 1.429 . S
C214 C213 1.438 . S
C214 C215 1.428 . S
C214 C227 1.394 . S
C215 H207 0.949 . S
C215 C214 1.428 . S
C215 C216 1.345 . S
C216 H208 0.950 . S
C216 C215 1.345 . S
C216 C217 1.424 . S
C217 H209 0.951 . S
C217 C216 1.424 . S
C217 C218 1.347 . S
C218 H210 0.951 . S
C218 C213 1.429 . S
C218 C217 1.347 . S
H219 C220 0.951 . S
C220 H219 0.951 . S
C220 C226 1.265 . S
H221 C226 0.950 . S
H222 C230 0.949 . S
H223 C231 0.950 . S
H224 C232 0.951 . S
H225 C233 0.951 . S
C226 C220 1.265 . S
C226 H221 0.950 . S
C226 C227 1.478 . S
C227 C214 1.394 . S
C227 C226 1.478 . S
C227 C228 1.397 . S
C228 C227 1.397 . S
C228 C229 1.438 . S
C228 C233 1.429 . S
C229 C212 1.394 . S
C229 C228 1.438 . S
C229 C230 1.428 . S
C230 H222 0.949 . S
C230 C229 1.428 . S
C230 C231 1.345 . S
C231 H223 0.950 . S
C231 C230 1.345 . S
C231 C232 1.424 . S
C232 H224 0.951 . S
C232 C231 1.424 . S
C232 C233 1.347 . S
C233 H225 0.951 . S
C233 C228 1.429 . S
C233 C232 1.347 . S
H234 C235 0.951 . S
C235 H234 0.951 . S
C235 C241 1.265 . S
H236 C241 0.950 . S
H237 C245 0.949 . S
H238 C246 0.950 . S
H239 C247 0.951 . S
H240 C248 0.951 . S
C241 C235 1.265 . S
C241 H236 0.950 . S
C241 C242 1.478 . S
C242 C241 1.478 . S
C242 C243 1.397 . S
C242 C259 1.394 . S
C243 C242 1.397 . S
C243 C244 1.438 . S
C243 C248 1.429 . S
C244 C243 1.438 . S
C244 C245 1.428 . S
C244 C257 1.394 . S
C245 H237 0.949 . S
C245 C244 1.428 . S
C245 C246 1.345 . S
C246 H238 0.950 . S
C246 C245 1.345 . S
C246 C247 1.424 . S
C247 H239 0.951 . S
C247 C246 1.424 . S
C247 C248 1.347 . S
C248 H240 0.951 . S
C248 C243 1.429 . S
C248 C247 1.347 . S
H249 C250 0.951 . S
C250 H249 0.951 . S
C250 C256 1.265 . S
H251 C256 0.950 . S
H252 C260 0.949 . S
H253 C261 0.950 . S
H254 C262 0.951 . S
H255 C263 0.951 . S
C256 C250 1.265 . S
C256 H251 0.950 . S
C256 C257 1.478 . S
C257 C244 1.394 . S
C257 C256 1.478 . S
C257 C258 1.397 . S
C258 C257 1.397 . S
C258 C259 1.438 . S
C258 C263 1.429 . S
C259 C242 1.394 . S
C259 C258 1.438 . S
C259 C260 1.428 . S
C260 H252 0.949 . S
C260 C259 1.428 . S
C260 C261 1.345 . S
C261 H253 0.950 . S
C261 C260 1.345 . S
C261 C262 1.424 . S
C262 H254 0.951 . S
C262 C261 1.424 . S
C262 C263 1.347 . S
C263 H255 0.951 . S
C263 C258 1.429 . S
C263 C262 1.347 . S
H264 C265 0.951 . S
C265 H264 0.951 . S
C265 C271 1.265 . S
H266 C271 0.950 . S
H267 C275 0.949 . S
H268 C276 0.950 . S
H269 C277 0.951 . S
H270 C278 0.951 . S
C271 C265 1.265 . S
C271 H266 0.950 . S
C271 C272 1.478 . S
C272 C271 1.478 . S
C272 C273 1.397 . S
C272 C289 1.394 . S
C273 C272 1.397 . S
C273 C274 1.438 . S
C273 C278 1.429 1_545 S
C274 C273 1.438 . S
C274 C275 1.428 1_545 S
C274 C287 1.394 . S
C275 H267 0.949 . S
C275 C274 1.428 1_565 S
C275 C276 1.345 . S
C276 H268 0.950 . S
C276 C275 1.345 . S
C276 C277 1.424 . S
C277 H269 0.951 . S
C277 C276 1.424 . S
C277 C278 1.347 . S
C278 H270 0.951 . S
C278 C273 1.429 1_565 S
C278 C277 1.347 . S
H279 C280 0.951 . S
C280 H279 0.951 . S
C280 C286 1.265 . S
H281 C286 0.950 . S
H282 C290 0.949 . S
H283 C291 0.950 . S
H284 C292 0.951 . S
H285 C293 0.951 . S
C286 C280 1.265 . S
C286 H281 0.950 . S
C286 C287 1.478 . S
C287 C274 1.394 . S
C287 C286 1.478 . S
C287 C288 1.397 . S
C288 C287 1.397 . S
C288 C289 1.438 . S
C288 C293 1.429 . S
C289 C272 1.394 . S
C289 C288 1.438 . S
C289 C290 1.428 . S
C290 H282 0.949 . S
C290 C289 1.428 . S
C290 C291 1.345 . S
C291 H283 0.950 . S
C291 C290 1.345 . S
C291 C292 1.424 . S
C292 H284 0.951 . S
C292 C291 1.424 . S
C292 C293 1.347 . S
C293 H285 0.951 . S
C293 C288 1.429 . S
C293 C292 1.347 . S
H294 C295 0.951 . S
C295 H294 0.951 . S
C295 C301 1.265 1_465 S
H296 C301 0.950 . S
H297 C305 0.949 . S
H298 C306 0.950 . S
H299 C307 0.951 . S
H300 C308 0.951 . S
C301 C295 1.265 1_645 S
C301 H296 0.950 . S
C301 C302 1.478 1_655 S
C302 C301 1.478 1_455 S
C302 C303 1.397 . S
C302 C319 1.394 1_545 S
C303 C302 1.397 . S
C303 C304 1.438 . S
C303 C308 1.429 . S
C304 C303 1.438 . S
C304 C305 1.428 . S
C304 C317 1.384 1_545 S
C305 H297 0.949 . S
C305 C304 1.428 . S
C305 C306 1.345 . S
C306 H298 0.950 . S
C306 C305 1.345 . S
C306 C307 1.424 . S
C307 H299 0.951 . S
C307 C306 1.424 . S
C307 C308 1.347 . S
C308 H300 0.951 . S
C308 C303 1.429 . S
C308 C307 1.347 . S
H309 C310 0.951 1_655 S
C310 H309 0.951 1_455 S
C310 C316 1.265 1_545 S
H311 C316 0.950 . S
H312 C320 0.949 . S
H313 C321 0.950 . S
H314 C322 0.951 . S
H315 C323 0.951 . S
C316 C310 1.265 1_565 S
C316 H311 0.950 . S
C316 C317 1.479 . S
C317 C304 1.384 1_565 S
C317 C316 1.479 . S
C317 C318 1.406 . S
C318 C317 1.406 . S
C318 C319 1.438 . S
C318 C323 1.429 . S
C319 C302 1.394 1_565 S
C319 C318 1.438 . S
C319 C320 1.428 1_455 S
C320 H312 0.949 . S
C320 C319 1.428 1_655 S
C320 C321 1.345 . S
C321 H313 0.950 . S
C321 C320 1.345 . S
C321 C322 1.424 . S
C322 H314 0.951 . S
C322 C321 1.424 . S
C322 C323 1.347 1_655 S
C323 H315 0.951 . S
C323 C318 1.429 . S
C323 C322 1.347 1_455 S
H324 C325 0.951 . S
C325 H324 0.951 . S
C325 C331 1.265 1_455 S
H326 C331 0.950 . S
H327 C335 0.949 . S
H328 C336 0.950 . S
H329 C337 0.951 . S
H330 C338 0.951 . S
C331 C325 1.265 1_655 S
C331 H326 0.950 . S
C331 C332 1.478 1_655 S
C332 C331 1.478 1_455 S
C332 C333 1.397 1_455 S
C332 C349 1.394 . S
C333 C332 1.397 1_655 S
C333 C334 1.438 . S
C333 C338 1.429 1_545 S
C334 C333 1.438 . S
C334 C335 1.428 1_545 S
C334 C347 1.394 1_655 S
C335 H327 0.949 . S
C335 C334 1.428 1_565 S
C335 C336 1.345 . S
C336 H328 0.950 . S
C336 C335 1.345 . S
C336 C337 1.424 . S
C337 H329 0.951 . S
C337 C336 1.424 . S
C337 C338 1.347 . S
C338 H330 0.951 . S
C338 C333 1.429 1_565 S
C338 C337 1.347 . S
H339 C340 0.951 1_655 S
C340 H339 0.951 1_455 S
C340 C346 1.265 . S
H341 C346 0.950 . S
H342 C350 0.949 . S
H343 C351 0.950 . S
H344 C352 0.951 . S
H345 C353 0.951 . S
C346 C340 1.265 . S
C346 H341 0.950 . S
C346 C347 1.478 . S
C347 C334 1.394 1_455 S
C347 C346 1.478 . S
C347 C348 1.397 . S
C348 C347 1.397 . S
C348 C349 1.438 . S
C348 C353 1.429 . S
C349 C332 1.394 . S
C349 C348 1.438 . S
C349 C350 1.428 . S
C350 H342 0.949 . S
C350 C349 1.428 . S
C350 C351 1.345 . S
C351 H343 0.950 . S
C351 C350 1.345 . S
C351 C352 1.424 . S
C352 H344 0.951 . S
C352 C351 1.424 . S
C352 C353 1.347 . S
C353 H345 0.951 . S
C353 C348 1.429 . S
C353 C352 1.347 . S
H354 C355 0.951 . S
C355 H354 0.951 . S
C355 C361 1.265 . S
H356 C361 0.950 . S
H357 C365 0.949 . S
H358 C366 0.950 . S
H359 C367 0.951 . S
H360 C368 0.951 . S
C361 C355 1.265 . S
C361 H356 0.950 . S
C361 C362 1.478 . S
C362 C361 1.478 . S
C362 C363 1.397 . S
C362 C379 1.394 . S
C363 C362 1.397 . S
C363 C364 1.438 1_554 S
C363 C368 1.429 . S
C364 C363 1.438 1_556 S
C364 C365 1.428 . S
C364 C377 1.394 . S
C365 H357 0.949 . S
C365 C364 1.428 . S
C365 C366 1.345 . S
C366 H358 0.950 . S
C366 C365 1.345 . S
C366 C367 1.424 1_556 S
C367 H359 0.951 . S
C367 C366 1.424 1_554 S
C367 C368 1.347 . S
C368 H360 0.951 . S
C368 C363 1.429 . S
C368 C367 1.347 . S
H369 C370 0.951 . S
C370 H369 0.951 . S
C370 C376 1.265 . S
H371 C376 0.950 . S
H372 C380 0.949 . S
H373 C381 0.950 . S
H374 C382 0.951 . S
H375 C383 0.951 . S
C376 C370 1.265 . S
C376 H371 0.950 . S
C376 C377 1.478 . S
C377 C364 1.394 . S
C377 C376 1.478 . S
C377 C378 1.397 . S
C378 C377 1.397 . S
C378 C379 1.438 1_556 S
C378 C383 1.429 1_545 S
C379 C362 1.394 . S
C379 C378 1.438 1_554 S
C379 C380 1.428 1_545 S
C380 H372 0.949 . S
C380 C379 1.428 1_565 S
C380 C381 1.345 . S
C381 H373 0.950 . S
C381 C380 1.345 . S
C381 C382 1.424 1_554 S
C382 H374 0.951 . S
C382 C381 1.424 1_556 S
C382 C383 1.347 . S
C383 H375 0.951 . S
C383 C378 1.429 1_565 S
C383 C382 1.347 . S
H384 C385 0.951 . S
C385 H384 0.951 . S
C385 C391 1.265 . S
H386 C391 0.950 . S
H387 C395 0.949 . S
H388 C396 0.950 . S
H389 C397 0.951 . S
H390 C398 0.951 . S
C391 C385 1.265 . S
C391 H386 0.950 . S
C391 C392 1.478 . S
C392 C391 1.478 . S
C392 C393 1.397 1_545 S
C392 C409 1.394 . S
C393 C392 1.397 1_565 S
C393 C394 1.438 . S
C393 C398 1.429 1_455 S
C394 C393 1.438 . S
C394 C395 1.428 1_455 S
C394 C407 1.394 1_565 S
C395 H387 0.949 . S
C395 C394 1.428 1_655 S
C395 C396 1.345 . S
C396 H388 0.950 . S
C396 C395 1.345 . S
C396 C397 1.424 . S
C397 H389 0.951 . S
C397 C396 1.424 . S
C397 C398 1.347 . S
C398 H390 0.951 . S
C398 C393 1.429 1_655 S
C398 C397 1.347 . S
H399 C400 0.951 . S
C400 H399 0.951 . S
C400 C406 1.265 . S
H401 C406 0.950 . S
H402 C410 0.949 . S
H403 C411 0.950 . S
H404 C412 0.951 . S
H405 C413 0.951 . S
C406 C400 1.265 . S
C406 H401 0.950 . S
C406 C407 1.478 . S
C407 C394 1.394 1_545 S
C407 C406 1.478 . S
C407 C408 1.397 . S
C408 C407 1.397 . S
C408 C409 1.438 . S
C408 C413 1.429 . S
C409 C392 1.394 . S
C409 C408 1.438 . S
C409 C410 1.428 . S
C410 H402 0.949 . S
C410 C409 1.428 . S
C410 C411 1.345 . S
C411 H403 0.950 . S
C411 C410 1.345 . S
C411 C412 1.424 . S
C412 H404 0.951 . S
C412 C411 1.424 . S
C412 C413 1.347 . S
C413 H405 0.951 . S
C413 C408 1.429 . S
C413 C412 1.347 . S
H414 C415 0.951 . S
C415 H414 0.951 . S
C415 C421 1.265 1_455 S
H416 C421 0.950 . S
H417 C425 0.949 . S
H418 C426 0.950 . S
H419 C427 0.951 . S
H420 C428 0.951 . S
C421 C415 1.265 1_655 S
C421 H416 0.950 . S
C421 C422 1.478 . S
C422 C421 1.478 . S
C422 C423 1.397 1_545 S
C422 C439 1.394 1_655 S
C423 C422 1.397 1_565 S
C423 C424 1.438 . S
C423 C428 1.429 . S
C424 C423 1.438 . S
C424 C425 1.428 . S
C424 C437 1.394 1_665 S
C425 H417 0.949 . S
C425 C424 1.428 . S
C425 C426 1.345 . S
C426 H418 0.950 . S
C426 C425 1.345 . S
C426 C427 1.424 . S
C427 H419 0.951 . S
C427 C426 1.424 . S
C427 C428 1.347 . S
C428 H420 0.951 . S
C428 C423 1.429 . S
C428 C427 1.347 . S
H429 C430 0.951 . S
C430 H429 0.951 . S
C430 C436 1.265 1_655 S
H431 C436 0.950 . S
H432 C440 0.949 . S
H433 C441 0.950 . S
H434 C442 0.951 . S
H435 C443 0.951 . S
C436 C430 1.265 1_455 S
C436 H431 0.950 . S
C436 C437 1.478 . S
C437 C424 1.394 1_445 S
C437 C436 1.478 . S
C437 C438 1.397 . S
C438 C437 1.397 . S
C438 C439 1.438 . S
C438 C443 1.429 . S
C439 C422 1.394 1_455 S
C439 C438 1.438 . S
C439 C440 1.428 . S
C440 H432 0.949 . S
C440 C439 1.428 . S
C440 C441 1.345 . S
C441 H433 0.950 . S
C441 C440 1.345 . S
C441 C442 1.424 . S
C442 H434 0.951 . S
C442 C441 1.424 . S
C442 C443 1.347 . S
C443 H435 0.951 . S
C443 C438 1.429 . S
C443 C442 1.347 . S
C85 C0 1.489 . S
C100 C1 1.489 . S
C115 C14 1.495 . S
C130 C15 1.495 . S
C145 C41 1.487 . S
C160 C40 1.487 . S
C175 C54 1.480 . S
C190 C55 1.480 . S
C205 C68 1.486 . S
C220 C69 1.486 . S
C235 C82 1.491 . S
C250 C83 1.491 . S
C265 C71 1.495 . S
C280 C13 1.500 . S
C295 C43 1.502 . S
C310 C26 1.502 . S
C325 C28 1.487 . S
C340 C57 1.492 . S
C355 C12 1.497 . S
C370 C56 1.504 . S
C385 C70 1.502 . S
C400 C27 1.487 . S
C415 C42 1.489 . S
C430 C29 1.495 1_655 S
