# Generated by pormake.
# Topology nfb, (4)-cn, num edge types: 1
# Building blocks:
#     Node 0, Type 0, BuildingBlock: CEKHIL_clean_sbu_0, # of connection points: 4
#     Node 1, Type 0, BuildingBlock: CEKHIL_clean_sbu_0, # of connection points: 4
#     Node 2, Type 0, BuildingBlock: CEKHIL_clean_sbu_0, # of connection points: 4
#     Node 3, Type 0, BuildingBlock: CEKHIL_clean_sbu_0, # of connection points: 4
#     Node 4, Type 0, BuildingBlock: CEKHIL_clean_sbu_0, # of connection points: 4
#     Node 5, Type 0, BuildingBlock: CEKHIL_clean_sbu_0, # of connection points: 4
#     Node 6, Type 0, BuildingBlock: CEKHIL_clean_sbu_0, # of connection points: 4
#     Node 7, Type 0, BuildingBlock: CEKHIL_clean_sbu_0, # of connection points: 4
#     Node 8, Type 0, BuildingBlock: CEKHIL_clean_sbu_0, # of connection points: 4
#     Node 9, Type 0, BuildingBlock: CEKHIL_clean_sbu_0, # of connection points: 4
#     Node 10, Type 0, BuildingBlock: CEKHIL_clean_sbu_0, # of connection points: 4
#     Node 11, Type 0, BuildingBlock: CEKHIL_clean_sbu_0, # of connection points: 4
#     Node 12, Type 0, BuildingBlock: CEKHIL_clean_sbu_0, # of connection points: 4
#     Node 13, Type 0, BuildingBlock: CEKHIL_clean_sbu_0, # of connection points: 4
#     Node 14, Type 0, BuildingBlock: CEKHIL_clean_sbu_0, # of connection points: 4
#     Node 15, Type 0, BuildingBlock: CEKHIL_clean_sbu_0, # of connection points: 4
#     Node 16, Type 0, BuildingBlock: CEKHIL_clean_sbu_0, # of connection points: 4
#     Node 17, Type 0, BuildingBlock: CEKHIL_clean_sbu_0, # of connection points: 4
#     Node 18, Type 0, BuildingBlock: CEKHIL_clean_sbu_0, # of connection points: 4
#     Node 19, Type 0, BuildingBlock: CEKHIL_clean_sbu_0, # of connection points: 4
#     Node 20, Type 0, BuildingBlock: CEKHIL_clean_sbu_0, # of connection points: 4
#     Node 21, Type 0, BuildingBlock: CEKHIL_clean_sbu_0, # of connection points: 4
#     Node 22, Type 0, BuildingBlock: CEKHIL_clean_sbu_0, # of connection points: 4
#     Node 23, Type 0, BuildingBlock: CEKHIL_clean_sbu_0, # of connection points: 4
#     Node 24, Type 0, BuildingBlock: CEKHIL_clean_sbu_0, # of connection points: 4
#     Node 25, Type 0, BuildingBlock: CEKHIL_clean_sbu_0, # of connection points: 4
#     Node 26, Type 0, BuildingBlock: CEKHIL_clean_sbu_0, # of connection points: 4
#     Node 27, Type 0, BuildingBlock: CEKHIL_clean_sbu_0, # of connection points: 4
#     Node 28, Type 0, BuildingBlock: CEKHIL_clean_sbu_0, # of connection points: 4
#     Node 29, Type 0, BuildingBlock: CEKHIL_clean_sbu_0, # of connection points: 4
#     Node 30, Type 0, BuildingBlock: CEKHIL_clean_sbu_0, # of connection points: 4
#     Node 31, Type 0, BuildingBlock: CEKHIL_clean_sbu_0, # of connection points: 4
#     Node 32, Type 0, BuildingBlock: CEKHIL_clean_sbu_0, # of connection points: 4
#     Node 33, Type 0, BuildingBlock: CEKHIL_clean_sbu_0, # of connection points: 4
#     Node 34, Type 0, BuildingBlock: CEKHIL_clean_sbu_0, # of connection points: 4
#     Node 35, Type 0, BuildingBlock: CEKHIL_clean_sbu_0, # of connection points: 4
#     Node 36, Type 0, BuildingBlock: CEKHIL_clean_sbu_0, # of connection points: 4
#     Node 37, Type 0, BuildingBlock: CEKHIL_clean_sbu_0, # of connection points: 4
#     Node 38, Type 0, BuildingBlock: CEKHIL_clean_sbu_0, # of connection points: 4
#     Node 39, Type 0, BuildingBlock: CEKHIL_clean_sbu_0, # of connection points: 4
#     Node 40, Type 0, BuildingBlock: CEKHIL_clean_sbu_0, # of connection points: 4
#     Node 41, Type 0, BuildingBlock: CEKHIL_clean_sbu_0, # of connection points: 4
#     Node 42, Type 0, BuildingBlock: CEKHIL_clean_sbu_0, # of connection points: 4
#     Node 43, Type 0, BuildingBlock: CEKHIL_clean_sbu_0, # of connection points: 4
#     Node 44, Type 0, BuildingBlock: CEKHIL_clean_sbu_0, # of connection points: 4
#     Node 45, Type 0, BuildingBlock: CEKHIL_clean_sbu_0, # of connection points: 4
#     Node 46, Type 0, BuildingBlock: CEKHIL_clean_sbu_0, # of connection points: 4
#     Node 47, Type 0, BuildingBlock: CEKHIL_clean_sbu_0, # of connection points: 4
#     Edge 48, Type (0, 0), BuildingBlock: KIFKEQ_clean_linker_1, # of connection points: 2
#     Edge 49, Type (0, 0), BuildingBlock: KIFKEQ_clean_linker_1, # of connection points: 2
#     Edge 50, Type (0, 0), BuildingBlock: KIFKEQ_clean_linker_1, # of connection points: 2
#     Edge 51, Type (0, 0), BuildingBlock: KIFKEQ_clean_linker_1, # of connection points: 2
#     Edge 52, Type (0, 0), BuildingBlock: KIFKEQ_clean_linker_1, # of connection points: 2
#     Edge 53, Type (0, 0), BuildingBlock: KIFKEQ_clean_linker_1, # of connection points: 2
#     Edge 54, Type (0, 0), BuildingBlock: KIFKEQ_clean_linker_1, # of connection points: 2
#     Edge 55, Type (0, 0), BuildingBlock: KIFKEQ_clean_linker_1, # of connection points: 2
#     Edge 56, Type (0, 0), BuildingBlock: KIFKEQ_clean_linker_1, # of connection points: 2
#     Edge 57, Type (0, 0), BuildingBlock: KIFKEQ_clean_linker_1, # of connection points: 2
#     Edge 58, Type (0, 0), BuildingBlock: KIFKEQ_clean_linker_1, # of connection points: 2
#     Edge 59, Type (0, 0), BuildingBlock: KIFKEQ_clean_linker_1, # of connection points: 2
#     Edge 60, Type (0, 0), BuildingBlock: KIFKEQ_clean_linker_1, # of connection points: 2
#     Edge 61, Type (0, 0), BuildingBlock: KIFKEQ_clean_linker_1, # of connection points: 2
#     Edge 62, Type (0, 0), BuildingBlock: KIFKEQ_clean_linker_1, # of connection points: 2
#     Edge 63, Type (0, 0), BuildingBlock: KIFKEQ_clean_linker_1, # of connection points: 2
#     Edge 64, Type (0, 0), BuildingBlock: KIFKEQ_clean_linker_1, # of connection points: 2
#     Edge 65, Type (0, 0), BuildingBlock: KIFKEQ_clean_linker_1, # of connection points: 2
#     Edge 66, Type (0, 0), BuildingBlock: KIFKEQ_clean_linker_1, # of connection points: 2
#     Edge 67, Type (0, 0), BuildingBlock: KIFKEQ_clean_linker_1, # of connection points: 2
#     Edge 68, Type (0, 0), BuildingBlock: KIFKEQ_clean_linker_1, # of connection points: 2
#     Edge 69, Type (0, 0), BuildingBlock: KIFKEQ_clean_linker_1, # of connection points: 2
#     Edge 70, Type (0, 0), BuildingBlock: KIFKEQ_clean_linker_1, # of connection points: 2
#     Edge 71, Type (0, 0), BuildingBlock: KIFKEQ_clean_linker_1, # of connection points: 2
#     Edge 72, Type (0, 0), BuildingBlock: KIFKEQ_clean_linker_1, # of connection points: 2
#     Edge 73, Type (0, 0), BuildingBlock: KIFKEQ_clean_linker_1, # of connection points: 2
#     Edge 74, Type (0, 0), BuildingBlock: KIFKEQ_clean_linker_1, # of connection points: 2
#     Edge 75, Type (0, 0), BuildingBlock: KIFKEQ_clean_linker_1, # of connection points: 2
#     Edge 76, Type (0, 0), BuildingBlock: KIFKEQ_clean_linker_1, # of connection points: 2
#     Edge 77, Type (0, 0), BuildingBlock: KIFKEQ_clean_linker_1, # of connection points: 2
#     Edge 78, Type (0, 0), BuildingBlock: KIFKEQ_clean_linker_1, # of connection points: 2
#     Edge 79, Type (0, 0), BuildingBlock: KIFKEQ_clean_linker_1, # of connection points: 2
#     Edge 80, Type (0, 0), BuildingBlock: KIFKEQ_clean_linker_1, # of connection points: 2
#     Edge 81, Type (0, 0), BuildingBlock: KIFKEQ_clean_linker_1, # of connection points: 2
#     Edge 82, Type (0, 0), BuildingBlock: KIFKEQ_clean_linker_1, # of connection points: 2
#     Edge 83, Type (0, 0), BuildingBlock: KIFKEQ_clean_linker_1, # of connection points: 2
#     Edge 84, Type (0, 0), BuildingBlock: KIFKEQ_clean_linker_1, # of connection points: 2
#     Edge 85, Type (0, 0), BuildingBlock: KIFKEQ_clean_linker_1, # of connection points: 2
#     Edge 86, Type (0, 0), BuildingBlock: KIFKEQ_clean_linker_1, # of connection points: 2
#     Edge 87, Type (0, 0), BuildingBlock: KIFKEQ_clean_linker_1, # of connection points: 2
#     Edge 88, Type (0, 0), BuildingBlock: KIFKEQ_clean_linker_1, # of connection points: 2
#     Edge 89, Type (0, 0), BuildingBlock: KIFKEQ_clean_linker_1, # of connection points: 2
#     Edge 90, Type (0, 0), BuildingBlock: KIFKEQ_clean_linker_1, # of connection points: 2
#     Edge 91, Type (0, 0), BuildingBlock: KIFKEQ_clean_linker_1, # of connection points: 2
#     Edge 92, Type (0, 0), BuildingBlock: KIFKEQ_clean_linker_1, # of connection points: 2
#     Edge 93, Type (0, 0), BuildingBlock: KIFKEQ_clean_linker_1, # of connection points: 2
#     Edge 94, Type (0, 0), BuildingBlock: KIFKEQ_clean_linker_1, # of connection points: 2
#     Edge 95, Type (0, 0), BuildingBlock: KIFKEQ_clean_linker_1, # of connection points: 2
#     Edge 96, Type (0, 0), BuildingBlock: KIFKEQ_clean_linker_1, # of connection points: 2
#     Edge 97, Type (0, 0), BuildingBlock: KIFKEQ_clean_linker_1, # of connection points: 2
#     Edge 98, Type (0, 0), BuildingBlock: KIFKEQ_clean_linker_1, # of connection points: 2
#     Edge 99, Type (0, 0), BuildingBlock: KIFKEQ_clean_linker_1, # of connection points: 2
#     Edge 100, Type (0, 0), BuildingBlock: KIFKEQ_clean_linker_1, # of connection points: 2
#     Edge 101, Type (0, 0), BuildingBlock: KIFKEQ_clean_linker_1, # of connection points: 2
#     Edge 102, Type (0, 0), BuildingBlock: KIFKEQ_clean_linker_1, # of connection points: 2
#     Edge 103, Type (0, 0), BuildingBlock: KIFKEQ_clean_linker_1, # of connection points: 2
#     Edge 104, Type (0, 0), BuildingBlock: KIFKEQ_clean_linker_1, # of connection points: 2
#     Edge 105, Type (0, 0), BuildingBlock: KIFKEQ_clean_linker_1, # of connection points: 2
#     Edge 106, Type (0, 0), BuildingBlock: KIFKEQ_clean_linker_1, # of connection points: 2
#     Edge 107, Type (0, 0), BuildingBlock: KIFKEQ_clean_linker_1, # of connection points: 2
#     Edge 108, Type (0, 0), BuildingBlock: KIFKEQ_clean_linker_1, # of connection points: 2
#     Edge 109, Type (0, 0), BuildingBlock: KIFKEQ_clean_linker_1, # of connection points: 2
#     Edge 110, Type (0, 0), BuildingBlock: KIFKEQ_clean_linker_1, # of connection points: 2
#     Edge 111, Type (0, 0), BuildingBlock: KIFKEQ_clean_linker_1, # of connection points: 2
#     Edge 112, Type (0, 0), BuildingBlock: KIFKEQ_clean_linker_1, # of connection points: 2
#     Edge 113, Type (0, 0), BuildingBlock: KIFKEQ_clean_linker_1, # of connection points: 2
#     Edge 114, Type (0, 0), BuildingBlock: KIFKEQ_clean_linker_1, # of connection points: 2
#     Edge 115, Type (0, 0), BuildingBlock: KIFKEQ_clean_linker_1, # of connection points: 2
#     Edge 116, Type (0, 0), BuildingBlock: KIFKEQ_clean_linker_1, # of connection points: 2
#     Edge 117, Type (0, 0), BuildingBlock: KIFKEQ_clean_linker_1, # of connection points: 2
#     Edge 118, Type (0, 0), BuildingBlock: KIFKEQ_clean_linker_1, # of connection points: 2
#     Edge 119, Type (0, 0), BuildingBlock: KIFKEQ_clean_linker_1, # of connection points: 2
#     Edge 120, Type (0, 0), BuildingBlock: KIFKEQ_clean_linker_1, # of connection points: 2
#     Edge 121, Type (0, 0), BuildingBlock: KIFKEQ_clean_linker_1, # of connection points: 2
#     Edge 122, Type (0, 0), BuildingBlock: KIFKEQ_clean_linker_1, # of connection points: 2
#     Edge 123, Type (0, 0), BuildingBlock: KIFKEQ_clean_linker_1, # of connection points: 2
#     Edge 124, Type (0, 0), BuildingBlock: KIFKEQ_clean_linker_1, # of connection points: 2
#     Edge 125, Type (0, 0), BuildingBlock: KIFKEQ_clean_linker_1, # of connection points: 2
#     Edge 126, Type (0, 0), BuildingBlock: KIFKEQ_clean_linker_1, # of connection points: 2
#     Edge 127, Type (0, 0), BuildingBlock: KIFKEQ_clean_linker_1, # of connection points: 2
#     Edge 128, Type (0, 0), BuildingBlock: KIFKEQ_clean_linker_1, # of connection points: 2
#     Edge 129, Type (0, 0), BuildingBlock: KIFKEQ_clean_linker_1, # of connection points: 2
#     Edge 130, Type (0, 0), BuildingBlock: KIFKEQ_clean_linker_1, # of connection points: 2
#     Edge 131, Type (0, 0), BuildingBlock: KIFKEQ_clean_linker_1, # of connection points: 2
#     Edge 132, Type (0, 0), BuildingBlock: KIFKEQ_clean_linker_1, # of connection points: 2
#     Edge 133, Type (0, 0), BuildingBlock: KIFKEQ_clean_linker_1, # of connection points: 2
#     Edge 134, Type (0, 0), BuildingBlock: KIFKEQ_clean_linker_1, # of connection points: 2
#     Edge 135, Type (0, 0), BuildingBlock: KIFKEQ_clean_linker_1, # of connection points: 2
#     Edge 136, Type (0, 0), BuildingBlock: KIFKEQ_clean_linker_1, # of connection points: 2
#     Edge 137, Type (0, 0), BuildingBlock: KIFKEQ_clean_linker_1, # of connection points: 2
#     Edge 138, Type (0, 0), BuildingBlock: KIFKEQ_clean_linker_1, # of connection points: 2
#     Edge 139, Type (0, 0), BuildingBlock: KIFKEQ_clean_linker_1, # of connection points: 2
#     Edge 140, Type (0, 0), BuildingBlock: KIFKEQ_clean_linker_1, # of connection points: 2
#     Edge 141, Type (0, 0), BuildingBlock: KIFKEQ_clean_linker_1, # of connection points: 2
#     Edge 142, Type (0, 0), BuildingBlock: KIFKEQ_clean_linker_1, # of connection points: 2
#     Edge 143, Type (0, 0), BuildingBlock: KIFKEQ_clean_linker_1, # of connection points: 2
# Relax obj value: 0.256
# Max RMSD: 0.067
# Mean RMSD: 0.061
data_MOF--net-nfb--node1-CEKHIL_clean_sbu_0--edge1-KIFKEQ_clean_linker_1
_symmetry_space_group_name_H-M    P1
_symmetry_Int_Tables_number       1
_symmetry_cell_setting            triclinic
loop_
_symmetry_equiv_pos_as_xyz
'x, y, z'
_cell_length_a     60.472123
_cell_length_b     60.481074
_cell_length_c     60.463395
_cell_angle_alpha  90.057941
_cell_angle_beta   90.336279
_cell_angle_gamma 90.598976
loop_
_atom_site_label
_atom_site_type_symbol
_atom_site_fract_x
_atom_site_fract_y
_atom_site_fract_z
_atom_type_partial_charge
Co0 Co 0.13994 0.13646 0.40309 0.0
O1 O 0.16976 0.1429 0.413 0.0
O2 O 0.16212 0.11857 0.38715 0.0
C3 C 0.13137 0.17272 0.40037 0.0
O4 O 0.10954 0.12683 0.38902 0.0
Co5 Co 0.10124 0.15343 0.43246 0.0
O6 O 0.08311 0.14666 0.40618 0.0
C7 C 0.12412 0.11171 0.44378 0.0
C8 C 0.17722 0.12895 0.39884 0.0
C9 C 0.08915 0.13331 0.39117 0.0
O10 O 0.13675 0.11316 0.42678 0.0
O11 O 0.10995 0.12631 0.44913 0.0
O12 O 0.14095 0.16266 0.38411 0.0
O13 O 0.12844 0.16098 0.41788 0.0
Co14 Co 0.38483 0.61638 0.90043 0.0
O15 O 0.38145 0.58485 0.90494 0.0
O16 O 0.38715 0.59968 0.87233 0.0
C17 C 0.40912 0.62109 0.92855 0.0
O18 O 0.38911 0.64952 0.89128 0.0
Co19 Co 0.36992 0.64638 0.93997 0.0
O20 O 0.3852 0.66955 0.92271 0.0
C21 C 0.33644 0.62536 0.91081 0.0
C22 C 0.38428 0.58178 0.88407 0.0
C23 C 0.38993 0.6681 0.90225 0.0
O24 O 0.35161 0.61905 0.89732 0.0
O25 O 0.34066 0.63464 0.92942 0.0
O26 O 0.41615 0.61469 0.90939 0.0
O27 O 0.38801 0.62235 0.93039 0.0
Co28 Co 0.86318 0.87248 0.40292 0.0
O29 O 0.83338 0.86501 0.4119 0.0
O30 O 0.84084 0.89082 0.38757 0.0
C31 C 0.87323 0.8369 0.3979 0.0
O32 O 0.89353 0.88346 0.39017 0.0
Co33 Co 0.90148 0.85489 0.43295 0.0
O34 O 0.92021 0.86433 0.40809 0.0
C35 C 0.87732 0.89525 0.4457 0.0
C36 C 0.82584 0.87984 0.39865 0.0
C37 C 0.91409 0.87779 0.39314 0.0
O38 O 0.86552 0.89453 0.42795 0.0
O39 O 0.89151 0.88061 0.45105 0.0
O40 O 0.86318 0.84757 0.38224 0.0
O41 O 0.8752 0.84738 0.41638 0.0
Co42 Co 0.63136 0.3913 0.89816 0.0
O43 O 0.6315 0.42256 0.90445 0.0
O44 O 0.62731 0.40917 0.87093 0.0
C45 C 0.60815 0.38312 0.92612 0.0
O46 O 0.62964 0.35846 0.88731 0.0
Co47 Co 0.65013 0.36086 0.93547 0.0
O48 O 0.6359 0.33737 0.91764 0.0
C49 C 0.68087 0.38542 0.90667 0.0
C50 C 0.62812 0.42653 0.88379 0.0
C51 C 0.63037 0.33943 0.89741 0.0
O52 O 0.6646 0.39209 0.89464 0.0
O53 O 0.67843 0.37401 0.92432 0.0
O54 O 0.60028 0.3896 0.90723 0.0
O55 O 0.62938 0.38362 0.92787 0.0
Co56 Co 0.12121 0.88532 0.60656 0.0
O57 O 0.0899 0.88492 0.60033 0.0
O58 O 0.10337 0.88815 0.63393 0.0
C59 C 0.12862 0.9097 0.57921 0.0
O60 O 0.15411 0.88703 0.61732 0.0
Co61 Co 0.15147 0.86868 0.56823 0.0
O62 O 0.17492 0.88239 0.58662 0.0
C63 C 0.12655 0.83652 0.59525 0.0
C64 C 0.08595 0.88761 0.62105 0.0
C65 C 0.17303 0.88698 0.60708 0.0
O66 O 0.12104 0.85194 0.60885 0.0
O67 O 0.13694 0.84024 0.57723 0.0
O68 O 0.12229 0.9168 0.59838 0.0
O69 O 0.12851 0.88855 0.57698 0.0
Co70 Co 0.63486 0.63968 0.10556 0.0
O71 O 0.64223 0.66935 0.09612 0.0
O72 O 0.61638 0.66212 0.12037 0.0
C73 C 0.67065 0.63032 0.11064 0.0
O74 O 0.62409 0.6095 0.11898 0.0
Co75 Co 0.6525 0.60074 0.07678 0.0
O76 O 0.64412 0.58273 0.10253 0.0
C77 C 0.61196 0.62441 0.06321 0.0
C78 C 0.62754 0.67703 0.10933 0.0
C79 C 0.63032 0.58901 0.11698 0.0
O80 O 0.61278 0.63679 0.08051 0.0
O81 O 0.62655 0.61001 0.05845 0.0
O82 O 0.65996 0.64041 0.12615 0.0
O83 O 0.65992 0.62759 0.09234 0.0
Co84 Co 0.89247 0.12408 0.60823 0.0
O85 O 0.92387 0.12922 0.60426 0.0
O86 O 0.90903 0.12238 0.63658 0.0
C87 C 0.88993 0.09979 0.5799 0.0
O88 O 0.85947 0.11808 0.61699 0.0
Co89 Co 0.86143 0.13629 0.56832 0.0
O90 O 0.8395 0.11903 0.5852 0.0
C91 C 0.87846 0.17133 0.59848 0.0
C92 C 0.92691 0.12619 0.62513 0.0
C93 C 0.84105 0.11551 0.60591 0.0
O94 O 0.88771 0.15703 0.61127 0.0
O95 O 0.8687 0.16633 0.58027 0.0
O96 O 0.89618 0.09302 0.59926 0.0
O97 O 0.88715 0.12075 0.5781 0.0
Co98 Co 0.37071 0.37379 0.10771 0.0
O99 O 0.36358 0.34404 0.09806 0.0
O100 O 0.39175 0.35169 0.11969 0.0
C101 C 0.33528 0.38104 0.117 0.0
O102 O 0.38163 0.40416 0.12079 0.0
Co103 Co 0.34721 0.41238 0.08261 0.0
O104 O 0.35832 0.43022 0.10767 0.0
C105 C 0.38694 0.39124 0.06345 0.0
C106 C 0.37991 0.33658 0.10949 0.0
C107 C 0.37425 0.42435 0.12013 0.0
O108 O 0.38942 0.37875 0.08052 0.0
O109 O 0.37062 0.40434 0.06089 0.0
O110 O 0.34831 0.37125 0.13092 0.0
O111 O 0.34362 0.38477 0.09781 0.0
Co112 Co 0.39478 0.13077 0.1348 0.0
O113 O 0.40466 0.1607 0.14097 0.0
O114 O 0.38041 0.15277 0.1151 0.0
C115 C 0.38996 0.12325 0.17108 0.0
O116 O 0.3811 0.10013 0.12511 0.0
Co117 Co 0.42181 0.09183 0.15461 0.0
O118 O 0.39421 0.07509 0.14941 0.0
C119 C 0.43685 0.11429 0.11364 0.0
C120 C 0.3917 0.168 0.12574 0.0
C121 C 0.38114 0.08038 0.1338 0.0
O122 O 0.41995 0.12703 0.11349 0.0
O123 O 0.44075 0.10005 0.12879 0.0
O124 O 0.3743 0.13252 0.15972 0.0
O125 O 0.40797 0.1197 0.16046 0.0
Co126 Co 0.38663 0.90915 0.62599 0.0
O127 O 0.41781 0.91589 0.62422 0.0
O128 O 0.40454 0.88199 0.62311 0.0
C129 C 0.37665 0.93534 0.60143 0.0
O130 O 0.35392 0.89778 0.62665 0.0
Co131 Co 0.35732 0.94735 0.64443 0.0
O132 O 0.33302 0.92783 0.63398 0.0
C133 C 0.38441 0.92122 0.67507 0.0
C134 C 0.42184 0.8951 0.62237 0.0
C135 C 0.33492 0.90751 0.62883 0.0
O136 O 0.38887 0.90763 0.65932 0.0
O137 O 0.37374 0.93914 0.67203 0.0
O138 O 0.38332 0.91627 0.59441 0.0
O139 O 0.37838 0.93843 0.62244 0.0
Co140 Co 0.61583 0.88263 0.13479 0.0
O141 O 0.60595 0.85292 0.14148 0.0
O142 O 0.62874 0.8605 0.11446 0.0
C143 C 0.62317 0.89023 0.1707 0.0
O144 O 0.62941 0.91294 0.12444 0.0
Co145 Co 0.58981 0.92153 0.15568 0.0
O146 O 0.61606 0.93899 0.14751 0.0
C147 C 0.57238 0.89886 0.11572 0.0
C148 C 0.61796 0.84546 0.12568 0.0
C149 C 0.62898 0.93308 0.13215 0.0
O150 O 0.58952 0.88653 0.11468 0.0
O151 O 0.56908 0.91296 0.13113 0.0
O152 O 0.63779 0.88058 0.15849 0.0
O153 O 0.60444 0.89393 0.1612 0.0
Co154 Co 0.62661 0.09922 0.62842 0.0
O155 O 0.59499 0.09409 0.6291 0.0
O156 O 0.61 0.1271 0.62531 0.0
C157 C 0.63377 0.07174 0.60438 0.0
O158 O 0.65983 0.10904 0.627 0.0
Co159 Co 0.65539 0.06021 0.64651 0.0
O160 O 0.68002 0.07871 0.63539 0.0
C161 C 0.63091 0.08825 0.67746 0.0
C162 C 0.59203 0.11504 0.62678 0.0
C163 C 0.67859 0.09882 0.62935 0.0
O164 O 0.62672 0.10197 0.66173 0.0
O165 O 0.64027 0.06963 0.67429 0.0
O166 O 0.62737 0.09079 0.59699 0.0
O167 O 0.63329 0.06948 0.62553 0.0
Co168 Co 0.41295 0.88172 0.88085 0.0
O169 O 0.41973 0.91291 0.88263 0.0
O170 O 0.38583 0.8997 0.88379 0.0
C171 C 0.43943 0.87195 0.90532 0.0
O172 O 0.40152 0.849 0.88019 0.0
Co173 Co 0.45091 0.85224 0.86231 0.0
O174 O 0.4312 0.82791 0.87196 0.0
C175 C 0.42483 0.87954 0.83184 0.0
C176 C 0.39896 0.91699 0.88451 0.0
C177 C 0.41101 0.82993 0.87746 0.0
O178 O 0.41117 0.88381 0.84752 0.0
O179 O 0.4428 0.86895 0.83492 0.0
O180 O 0.42039 0.87861 0.9124 0.0
O181 O 0.44227 0.87349 0.8843 0.0
Co182 Co 0.62036 0.89127 0.37229 0.0
O183 O 0.65024 0.90124 0.36636 0.0
O184 O 0.64211 0.87833 0.3932 0.0
C185 C 0.61361 0.88378 0.33628 0.0
O186 O 0.58976 0.87795 0.38215 0.0
Co187 Co 0.58163 0.91664 0.35039 0.0
O188 O 0.56481 0.88944 0.35688 0.0
C189 C 0.60382 0.93482 0.39036 0.0
C190 C 0.65735 0.88933 0.38249 0.0
C191 C 0.57004 0.8774 0.37327 0.0
O192 O 0.61612 0.91769 0.39195 0.0
O193 O 0.58983 0.93783 0.3747 0.0
O194 O 0.62289 0.8692 0.34892 0.0
O195 O 0.60961 0.90255 0.34547 0.0
Co196 Co 0.60376 0.12586 0.88353 0.0
O197 O 0.59704 0.09466 0.88511 0.0
O198 O 0.63093 0.1079 0.88651 0.0
C199 C 0.57744 0.13542 0.90797 0.0
O200 O 0.6151 0.1586 0.88302 0.0
Co201 Co 0.56552 0.15541 0.86521 0.0
O202 O 0.5848 0.17948 0.87655 0.0
C203 C 0.59178 0.12881 0.83444 0.0
C204 C 0.61782 0.0906 0.88711 0.0
C205 C 0.60523 0.1776 0.88139 0.0
O206 O 0.60531 0.12398 0.85022 0.0
O207 O 0.57391 0.13953 0.83747 0.0
O208 O 0.59655 0.1288 0.91509 0.0
O209 O 0.57446 0.13398 0.88692 0.0
Co210 Co 0.38276 0.11499 0.37335 0.0
O211 O 0.35276 0.10596 0.36644 0.0
O212 O 0.36091 0.12949 0.39287 0.0
C213 C 0.39094 0.12039 0.33732 0.0
O214 O 0.41351 0.12783 0.38375 0.0
Co215 Co 0.42103 0.08699 0.35425 0.0
O216 O 0.4387 0.11383 0.36029 0.0
C217 C 0.39722 0.0718 0.3942 0.0
C218 C 0.34559 0.11877 0.38177 0.0
C219 C 0.43341 0.12719 0.37556 0.0
O220 O 0.38544 0.08937 0.39438 0.0
O221 O 0.41151 0.0675 0.3793 0.0
O222 O 0.38193 0.13601 0.34882 0.0
O223 O 0.39384 0.10201 0.34766 0.0
Co224 Co 0.13599 0.40084 0.15171 0.0
O225 O 0.14313 0.41064 0.18132 0.0
O226 O 0.11699 0.3863 0.17421 0.0
C227 C 0.17186 0.39552 0.14286 0.0
O228 O 0.12545 0.38727 0.12149 0.0
Co229 Co 0.15515 0.42933 0.11297 0.0
O230 O 0.14624 0.4036 0.09494 0.0
C231 C 0.11388 0.4427 0.13539 0.0
C232 C 0.1282 0.3975 0.18907 0.0
C233 C 0.13199 0.38927 0.10106 0.0
O234 O 0.11432 0.42577 0.14822 0.0
O235 O 0.12888 0.44734 0.12123 0.0
O236 O 0.16063 0.38015 0.15284 0.0
O237 O 0.16159 0.41385 0.13995 0.0
Co238 Co 0.12677 0.60678 0.88713 0.0
O239 O 0.13044 0.6028 0.9187 0.0
O240 O 0.1242 0.63507 0.90344 0.0
C241 C 0.10275 0.57809 0.88361 0.0
O242 O 0.12209 0.61557 0.85397 0.0
Co243 Co 0.14122 0.5674 0.85697 0.0
O244 O 0.12557 0.58418 0.83386 0.0
C245 C 0.17496 0.59663 0.8777 0.0
C246 C 0.12727 0.62364 0.9215 0.0
C247 C 0.12099 0.60462 0.8354 0.0
O248 O 0.15994 0.61021 0.88406 0.0
O249 O 0.17054 0.57802 0.86847 0.0
O250 O 0.09563 0.59737 0.88949 0.0
O251 O 0.12386 0.57663 0.88175 0.0
Co252 Co 0.90651 0.62974 0.38209 0.0
O253 O 0.91335 0.6292 0.41332 0.0
O254 O 0.87942 0.62752 0.40049 0.0
C255 C 0.93245 0.60466 0.3733 0.0
O256 O 0.89504 0.62919 0.34933 0.0
Co257 Co 0.94494 0.64633 0.35146 0.0
O258 O 0.92506 0.63544 0.32776 0.0
C259 C 0.91866 0.67865 0.37628 0.0
C260 C 0.8926 0.62734 0.41769 0.0
C261 C 0.90463 0.63069 0.33009 0.0
O262 O 0.90539 0.66316 0.38272 0.0
O263 O 0.93626 0.67503 0.36524 0.0
O264 O 0.91323 0.59805 0.38026 0.0
O265 O 0.93578 0.6257 0.37391 0.0
Co266 Co 0.88757 0.42015 0.87908 0.0
O267 O 0.88546 0.42672 0.91018 0.0
O268 O 0.89038 0.39314 0.89766 0.0
C269 C 0.91148 0.44809 0.87192 0.0
O270 O 0.89058 0.4093 0.8463 0.0
Co271 Co 0.87005 0.45765 0.84799 0.0
O272 O 0.88594 0.44019 0.82568 0.0
C273 C 0.83832 0.42828 0.87049 0.0
C274 C 0.88791 0.40611 0.91476 0.0
C275 C 0.89106 0.41988 0.82749 0.0
O276 O 0.85433 0.41634 0.87771 0.0
O277 O 0.84118 0.44617 0.85953 0.0
O278 O 0.91884 0.42941 0.87932 0.0
O279 O 0.89027 0.44973 0.8713 0.0
Co280 Co 0.11552 0.37415 0.39506 0.0
O281 O 0.10653 0.36664 0.36526 0.0
O282 O 0.12962 0.39378 0.37276 0.0
C283 C 0.12175 0.33842 0.40397 0.0
O284 O 0.12824 0.38519 0.42553 0.0
Co285 Co 0.08706 0.35473 0.43324 0.0
O286 O 0.1124 0.36367 0.45176 0.0
C287 C 0.07193 0.39428 0.40907 0.0
C288 C 0.11899 0.38225 0.35773 0.0
C289 C 0.12638 0.37835 0.4459 0.0
O290 O 0.08966 0.39463 0.39747 0.0
O291 O 0.06742 0.37933 0.42336 0.0
O292 O 0.13703 0.35031 0.39458 0.0
O293 O 0.10305 0.34813 0.40658 0.0
Co294 Co 0.8816 0.61407 0.11546 0.0
O295 O 0.87918 0.61159 0.08369 0.0
O296 O 0.88331 0.64338 0.10085 0.0
C297 C 0.90664 0.58689 0.11818 0.0
O298 O 0.8847 0.62093 0.14932 0.0
Co299 Co 0.86747 0.57177 0.14188 0.0
O300 O 0.8815 0.58793 0.16679 0.0
C301 C 0.83364 0.60005 0.12135 0.0
C302 C 0.88126 0.63271 0.08214 0.0
C303 C 0.88548 0.60867 0.16705 0.0
O304 O 0.84825 0.61524 0.1175 0.0
O305 O 0.83845 0.58089 0.12883 0.0
O306 O 0.9133 0.60688 0.11395 0.0
O307 O 0.88559 0.58396 0.11887 0.0
Co308 Co 0.89661 0.37161 0.6276 0.0
O309 O 0.90558 0.36539 0.65768 0.0
O310 O 0.88358 0.39264 0.64889 0.0
C311 C 0.8891 0.33558 0.6206 0.0
O312 O 0.88387 0.38162 0.59695 0.0
Co313 Co 0.92236 0.34944 0.58911 0.0
O314 O 0.89572 0.3568 0.57186 0.0
C315 C 0.94077 0.38942 0.61151 0.0
C316 C 0.89367 0.38156 0.66443 0.0
C317 C 0.88356 0.37296 0.5772 0.0
O318 O 0.92338 0.39131 0.62354 0.0
O319 O 0.94368 0.37346 0.59792 0.0
O320 O 0.87422 0.34801 0.62956 0.0
O321 O 0.90789 0.34504 0.617 0.0
Co322 Co 0.09924 0.62814 0.62125 0.0
O323 O 0.09407 0.62989 0.58968 0.0
O324 O 0.12705 0.62559 0.60438 0.0
C325 C 0.07159 0.60371 0.62763 0.0
O326 O 0.10925 0.6256 0.6543 0.0
Co327 Co 0.06044 0.64442 0.65126 0.0
O328 O 0.07887 0.63193 0.67514 0.0
C329 C 0.08863 0.67687 0.62807 0.0
C330 C 0.11497 0.62748 0.58653 0.0
C331 C 0.0991 0.62661 0.67324 0.0
O332 O 0.10212 0.66147 0.62252 0.0
O333 O 0.0702 0.67306 0.63772 0.0
O334 O 0.09063 0.59667 0.621 0.0
O335 O 0.06947 0.62485 0.628 0.0
Co336 Co 0.87251 0.884 0.61553 0.0
O337 O 0.84186 0.87874 0.60778 0.0
O338 O 0.85358 0.88259 0.64207 0.0
C339 C 0.87772 0.91064 0.58991 0.0
O340 O 0.90441 0.88945 0.62808 0.0
Co341 Co 0.90648 0.87432 0.57751 0.0
O342 O 0.92774 0.88739 0.59888 0.0
C343 C 0.88504 0.83764 0.60178 0.0
C344 C 0.837 0.87921 0.62849 0.0
C345 C 0.92403 0.89087 0.61932 0.0
O346 O 0.87744 0.85109 0.61632 0.0
O347 O 0.89475 0.84399 0.58408 0.0
O348 O 0.86921 0.91579 0.60885 0.0
O349 O 0.88071 0.88991 0.58672 0.0
Co350 Co 0.63771 0.39467 0.1206 0.0
O351 O 0.64402 0.42591 0.12052 0.0
O352 O 0.61476 0.41171 0.13659 0.0
C353 C 0.67228 0.38446 0.12968 0.0
O354 O 0.62867 0.36139 0.123 0.0
Co355 Co 0.6644 0.36985 0.08363 0.0
O356 O 0.65217 0.34396 0.09962 0.0
C357 C 0.62549 0.3957 0.07174 0.0
C358 C 0.62644 0.42936 0.13179 0.0
C359 C 0.63698 0.34361 0.11421 0.0
O360 O 0.62022 0.39743 0.09221 0.0
O361 O 0.64377 0.3877 0.06506 0.0
O362 O 0.65877 0.39046 0.14513 0.0
O363 O 0.66527 0.38769 0.10985 0.0
Co364 Co 0.14001 0.12546 0.61585 0.0
O365 O 0.17029 0.12883 0.6065 0.0
O366 O 0.16109 0.12364 0.64111 0.0
C367 C 0.13079 0.10137 0.58877 0.0
O368 O 0.10846 0.12159 0.62964 0.0
Co369 Co 0.10497 0.1416 0.58108 0.0
O370 O 0.08423 0.12638 0.60127 0.0
C371 C 0.12987 0.17407 0.60808 0.0
C372 C 0.17681 0.12693 0.62669 0.0
C373 C 0.08847 0.12134 0.6213 0.0
O374 O 0.13822 0.15839 0.61965 0.0
O375 O 0.11759 0.17078 0.59104 0.0
O376 O 0.1401 0.09418 0.60673 0.0
O377 O 0.12947 0.12252 0.58718 0.0
Co378 Co 0.36863 0.61781 0.1187 0.0
O379 O 0.36422 0.58624 0.11858 0.0
O380 O 0.39094 0.60242 0.13737 0.0
C381 C 0.33254 0.62522 0.12389 0.0
O382 O 0.37547 0.6517 0.12132 0.0
Co383 Co 0.34391 0.64051 0.07895 0.0
O384 O 0.35339 0.6674 0.09528 0.0
C385 C 0.3846 0.61581 0.07136 0.0
C386 C 0.38081 0.58404 0.1317 0.0
C387 C 0.36721 0.6689 0.11128 0.0
O388 O 0.38865 0.61546 0.09223 0.0
O389 O 0.36645 0.62261 0.06294 0.0
O390 O 0.3451 0.62092 0.1408 0.0
O391 O 0.34176 0.62259 0.105 0.0
Co392 Co 0.89534 0.1443 0.38816 0.0
O393 O 0.92658 0.15048 0.38716 0.0
O394 O 0.91167 0.12085 0.37211 0.0
C395 C 0.88506 0.17876 0.37881 0.0
O396 O 0.86192 0.13534 0.38703 0.0
Co397 Co 0.87237 0.1717 0.42566 0.0
O398 O 0.84567 0.15896 0.41114 0.0
C399 C 0.89912 0.13338 0.43711 0.0
C400 C 0.92955 0.13255 0.3762 0.0
C401 C 0.84456 0.14363 0.39661 0.0
O402 O 0.89928 0.12751 0.41669 0.0
O403 O 0.8917 0.15193 0.44381 0.0
O404 O 0.89029 0.16477 0.36345 0.0
O405 O 0.88893 0.17219 0.39867 0.0
Co406 Co 0.38901 0.36824 0.89234 0.0
O407 O 0.38604 0.3376 0.90055 0.0
O408 O 0.38876 0.3484 0.86609 0.0
C409 C 0.41503 0.37561 0.91831 0.0
O410 O 0.39207 0.40035 0.87977 0.0
Co411 Co 0.37585 0.40131 0.92984 0.0
O412 O 0.38866 0.42334 0.90923 0.0
C413 C 0.34178 0.37558 0.90599 0.0
C414 C 0.38634 0.33204 0.88002 0.0
C415 C 0.39251 0.41998 0.88879 0.0
O416 O 0.35591 0.37041 0.89113 0.0
O417 O 0.34694 0.38567 0.92395 0.0
O418 O 0.42093 0.36752 0.89938 0.0
O419 O 0.39408 0.37701 0.92121 0.0
Co420 Co 0.10764 0.86781 0.3883 0.0
O421 O 0.0761 0.86341 0.38889 0.0
O422 O 0.09166 0.89176 0.37242 0.0
C423 C 0.11466 0.83246 0.37899 0.0
O424 O 0.14142 0.87481 0.38559 0.0
Co425 Co 0.13119 0.83925 0.42479 0.0
O426 O 0.15769 0.85049 0.40911 0.0
C427 C 0.10813 0.87975 0.43713 0.0
C428 C 0.07347 0.88106 0.37746 0.0
C429 C 0.15881 0.86576 0.39457 0.0
O430 O 0.10651 0.88525 0.41669 0.0
O431 O 0.11494 0.86088 0.44369 0.0
O432 O 0.10978 0.84669 0.36373 0.0
O433 O 0.11274 0.83963 0.3989 0.0
Co434 Co 0.63077 0.63906 0.8943 0.0
O435 O 0.63518 0.66924 0.90375 0.0
O436 O 0.63259 0.65961 0.86884 0.0
C437 C 0.6036 0.63184 0.91879 0.0
O438 O 0.62615 0.60779 0.88018 0.0
Co439 Co 0.64069 0.60362 0.93114 0.0
O440 O 0.62841 0.58324 0.9085 0.0
C441 C 0.67725 0.62682 0.90859 0.0
C442 C 0.63529 0.67544 0.88338 0.0
C443 C 0.62502 0.58779 0.88819 0.0
O444 O 0.66379 0.63476 0.89414 0.0
O445 O 0.67092 0.61622 0.92579 0.0
O446 O 0.59874 0.64137 0.90019 0.0
O447 O 0.62433 0.62917 0.92245 0.0
Co448 Co 0.61149 0.87744 0.88193 0.0
O449 O 0.60305 0.847 0.87695 0.0
O450 O 0.63762 0.85804 0.8796 0.0
C451 C 0.5868 0.88252 0.90938 0.0
O452 O 0.6246 0.90915 0.88709 0.0
Co453 Co 0.57374 0.9116 0.8729 0.0
O454 O 0.59544 0.93248 0.8861 0.0
C455 C 0.59699 0.89072 0.83569 0.0
C456 C 0.62361 0.8417 0.87661 0.0
C457 C 0.61596 0.92873 0.88901 0.0
O458 O 0.6114 0.8826 0.84905 0.0
O459 O 0.57966 0.90079 0.84218 0.0
O460 O 0.60588 0.87389 0.91382 0.0
O461 O 0.5829 0.88577 0.88873 0.0
Co462 Co 0.62856 0.1294 0.3728 0.0
O463 O 0.59696 0.12669 0.3682 0.0
O464 O 0.61185 0.14482 0.39617 0.0
C465 C 0.63622 0.13825 0.33748 0.0
O466 O 0.66184 0.13482 0.38113 0.0
Co467 Co 0.65818 0.09636 0.34654 0.0
O468 O 0.68143 0.11821 0.35409 0.0
C469 C 0.63543 0.08173 0.38715 0.0
C470 C 0.59393 0.13814 0.38588 0.0
C471 C 0.68032 0.13086 0.37086 0.0
O472 O 0.62791 0.10122 0.3905 0.0
O473 O 0.64677 0.07625 0.37025 0.0
O474 O 0.63014 0.15349 0.35124 0.0
O475 O 0.63537 0.1183 0.34495 0.0
Co476 Co 0.40699 0.12972 0.87844 0.0
O477 O 0.41608 0.15992 0.87322 0.0
O478 O 0.38129 0.1496 0.87496 0.0
C479 C 0.43098 0.12476 0.90681 0.0
O480 O 0.39329 0.09831 0.8837 0.0
Co481 Co 0.44444 0.09488 0.87119 0.0
O482 O 0.42219 0.07465 0.8842 0.0
C483 C 0.42184 0.11484 0.83286 0.0
C484 C 0.39566 0.16564 0.8722 0.0
C485 C 0.40166 0.07868 0.8863 0.0
O486 O 0.40759 0.12383 0.84568 0.0
O487 O 0.43887 0.10458 0.83999 0.0
O488 O 0.41197 0.1338 0.91044 0.0
O489 O 0.43528 0.12108 0.88635 0.0
Co490 Co 0.37467 0.88089 0.37176 0.0
O491 O 0.40622 0.8847 0.36795 0.0
O492 O 0.39171 0.86441 0.39436 0.0
C493 C 0.3677 0.87394 0.33578 0.0
O494 O 0.34146 0.87421 0.37916 0.0
Co495 Co 0.34409 0.91423 0.3469 0.0
O496 O 0.3217 0.89098 0.35221 0.0
C497 C 0.36572 0.92718 0.38904 0.0
C498 C 0.40951 0.87215 0.38482 0.0
C499 C 0.32297 0.87787 0.3686 0.0
O500 O 0.3744 0.90799 0.39113 0.0
O501 O 0.35402 0.93309 0.3724 0.0
O502 O 0.37392 0.85809 0.3488 0.0
O503 O 0.36783 0.89343 0.34443 0.0
Co504 Co 0.62901 0.12857 0.14063 0.0
O505 O 0.62714 0.09736 0.14686 0.0
O506 O 0.64473 0.11072 0.11813 0.0
C507 C 0.63766 0.13795 0.17574 0.0
O508 O 0.63371 0.16147 0.131 0.0
Co509 Co 0.59539 0.15866 0.1656 0.0
O510 O 0.61721 0.1817 0.15765 0.0
C511 C 0.58171 0.13525 0.12471 0.0
C512 C 0.63884 0.09337 0.12962 0.0
C513 C 0.62962 0.18021 0.1408 0.0
O514 O 0.60096 0.12675 0.12256 0.0
O515 O 0.57606 0.14754 0.14092 0.0
O516 O 0.65304 0.13166 0.16231 0.0
O517 O 0.61776 0.13642 0.16813 0.0
Co518 Co 0.3797 0.10457 0.6258 0.0
O519 O 0.34942 0.09545 0.63052 0.0
O520 O 0.35985 0.13024 0.62963 0.0
C521 C 0.38467 0.08122 0.59707 0.0
O522 O 0.41127 0.11828 0.62131 0.0
Co523 Co 0.41473 0.06716 0.6323 0.0
O524 O 0.43452 0.08926 0.61836 0.0
C525 C 0.39494 0.08893 0.67112 0.0
C526 C 0.34375 0.11586 0.63195 0.0
C527 C 0.43072 0.10994 0.6176 0.0
O528 O 0.38542 0.10316 0.65856 0.0
O529 O 0.4056 0.07232 0.66371 0.0
O530 O 0.37577 0.10036 0.59368 0.0
O531 O 0.3883 0.07644 0.61747 0.0
Co532 Co 0.37888 0.8849 0.1375 0.0
O533 O 0.38244 0.91649 0.14154 0.0
O534 O 0.3634 0.9018 0.1141 0.0
C535 C 0.37044 0.87802 0.17307 0.0
O536 O 0.37266 0.85161 0.12974 0.0
Co537 Co 0.41133 0.85462 0.16399 0.0
O538 O 0.38846 0.83205 0.15741 0.0
C539 C 0.42576 0.87575 0.12232 0.0
C540 C 0.37066 0.91966 0.12405 0.0
C541 C 0.37604 0.83318 0.1404 0.0
O542 O 0.40672 0.88451 0.11941 0.0
O543 O 0.43107 0.86421 0.13922 0.0
O544 O 0.35513 0.8842 0.15934 0.0
O545 O 0.39027 0.87821 0.16538 0.0
Co546 Co 0.63527 0.8992 0.628 0.0
O547 O 0.66599 0.90681 0.63313 0.0
O548 O 0.65384 0.87255 0.63015 0.0
C549 C 0.63045 0.92409 0.60062 0.0
O550 O 0.60329 0.8868 0.62275 0.0
Co551 Co 0.60183 0.93764 0.63693 0.0
O552 O 0.58044 0.91632 0.62392 0.0
C553 C 0.62254 0.91391 0.67417 0.0
C554 C 0.67057 0.88606 0.63325 0.0
C555 C 0.58385 0.89577 0.62092 0.0
O556 O 0.63017 0.89922 0.6609 0.0
O557 O 0.61294 0.93151 0.66755 0.0
O558 O 0.63881 0.90495 0.5961 0.0
O559 O 0.62747 0.92797 0.62128 0.0
Co560 Co 0.88448 0.61812 0.87144 0.0
O561 O 0.88017 0.60815 0.84138 0.0
O562 O 0.88122 0.64321 0.85056 0.0
C563 C 0.9129 0.59505 0.87817 0.0
O564 O 0.88862 0.63272 0.90258 0.0
Co565 Co 0.87699 0.58167 0.90764 0.0
O566 O 0.89083 0.60436 0.92697 0.0
C567 C 0.83876 0.60273 0.88585 0.0
C568 C 0.879 0.62839 0.83494 0.0
C569 C 0.89194 0.62492 0.92242 0.0
O570 O 0.85162 0.61677 0.87625 0.0
O571 O 0.84583 0.58644 0.89732 0.0
O572 O 0.91662 0.61391 0.86861 0.0
O573 O 0.89241 0.59029 0.88135 0.0
Co574 Co 0.86422 0.39478 0.11694 0.0
O575 O 0.85745 0.39951 0.0862 0.0
O576 O 0.8874 0.3826 0.09713 0.0
C577 C 0.83 0.3824 0.12537 0.0
O578 O 0.87422 0.38767 0.14925 0.0
Co579 Co 0.83615 0.4236 0.14974 0.0
O580 O 0.84678 0.40111 0.17075 0.0
C581 C 0.87665 0.44228 0.12925 0.0
C582 C 0.87514 0.38933 0.08063 0.0
C583 C 0.86436 0.38998 0.16825 0.0
O584 O 0.88039 0.42416 0.11878 0.0
O585 O 0.85949 0.44545 0.14112 0.0
O586 O 0.84431 0.36887 0.11719 0.0
O587 O 0.8361 0.40283 0.12583 0.0
Co588 Co 0.1285 0.36886 0.64179 0.0
O589 O 0.12421 0.36436 0.61047 0.0
O590 O 0.14405 0.3918 0.62392 0.0
C591 C 0.13619 0.33285 0.64756 0.0
O592 O 0.13589 0.37668 0.67475 0.0
Co593 Co 0.09729 0.34249 0.67355 0.0
O594 O 0.12148 0.34851 0.69475 0.0
C595 C 0.08219 0.38429 0.65282 0.0
C596 C 0.13667 0.38123 0.60647 0.0
C597 C 0.13357 0.36577 0.6932 0.0
O598 O 0.10091 0.38729 0.64319 0.0
O599 O 0.07751 0.36724 0.66453 0.0
O600 O 0.15174 0.3465 0.6416 0.0
O601 O 0.11671 0.34114 0.6486 0.0
Co602 Co 0.12291 0.61291 0.13365 0.0
O603 O 0.12746 0.60401 0.164 0.0
O604 O 0.12297 0.63858 0.15406 0.0
C605 C 0.09733 0.58638 0.12659 0.0
O606 O 0.11824 0.62647 0.10211 0.0
Co607 Co 0.135 0.57729 0.09803 0.0
O608 O 0.11927 0.59771 0.07807 0.0
C609 C 0.17024 0.60335 0.12041 0.0
C610 C 0.12642 0.6244 0.16997 0.0
C611 C 0.11615 0.61808 0.0823 0.0
O612 O 0.1558 0.61551 0.1299 0.0
O613 O 0.16526 0.58646 0.10851 0.0
O614 O 0.09135 0.6048 0.1357 0.0
O615 O 0.11827 0.58416 0.12397 0.0
Co616 Co 0.89855 0.62976 0.63172 0.0
O617 O 0.90748 0.63344 0.66219 0.0
O618 O 0.87274 0.63088 0.65187 0.0
C619 C 0.92334 0.60305 0.6245 0.0
O620 O 0.88518 0.62589 0.59992 0.0
Co621 Co 0.93597 0.64174 0.59775 0.0
O622 O 0.91413 0.62962 0.57637 0.0
C623 C 0.91262 0.67694 0.62145 0.0
C624 C 0.88703 0.63348 0.66799 0.0
C625 C 0.89376 0.62559 0.58015 0.0
O626 O 0.89816 0.66283 0.62829 0.0
O627 O 0.93015 0.67143 0.61112 0.0
O628 O 0.90457 0.59781 0.63349 0.0
O629 O 0.92698 0.62391 0.62241 0.0
Co630 Co 0.14462 0.38747 0.90786 0.0
O631 O 0.14907 0.38741 0.93937 0.0
O632 O 0.12026 0.37169 0.9235 0.0
C633 C 0.17964 0.37782 0.90008 0.0
O634 O 0.13742 0.38537 0.87413 0.0
Co635 Co 0.17388 0.42407 0.88495 0.0
O636 O 0.16198 0.4091 0.85818 0.0
C637 C 0.13385 0.43648 0.90873 0.0
C638 C 0.13108 0.37623 0.94177 0.0
C639 C 0.14648 0.39463 0.85686 0.0
O640 O 0.12788 0.41607 0.90981 0.0
O641 O 0.15288 0.44292 0.902 0.0
O642 O 0.16512 0.36266 0.90489 0.0
O643 O 0.17302 0.39778 0.90266 0.0
Co644 Co 0.10795 0.62314 0.37279 0.0
O645 O 0.10024 0.62644 0.34194 0.0
O646 O 0.13442 0.62245 0.35366 0.0
C647 C 0.08109 0.598 0.3799 0.0
O648 O 0.12017 0.6197 0.40501 0.0
Co649 Co 0.07082 0.63811 0.40542 0.0
O650 O 0.09087 0.62491 0.42768 0.0
C651 C 0.09653 0.671 0.38042 0.0
C652 C 0.12089 0.62541 0.33702 0.0
C653 C 0.11107 0.62 0.42453 0.0
O654 O 0.1106 0.65611 0.37533 0.0
O655 O 0.07826 0.66677 0.39023 0.0
O656 O 0.09972 0.59155 0.37166 0.0
O657 O 0.07888 0.61906 0.38139 0.0
Co658 Co 0.88137 0.37482 0.38297 0.0
O659 O 0.88429 0.3705 0.41448 0.0
O660 O 0.86524 0.3976 0.39975 0.0
C661 C 0.87362 0.33915 0.37536 0.0
O662 O 0.87579 0.38273 0.34978 0.0
Co663 Co 0.91538 0.34966 0.35341 0.0
O664 O 0.89368 0.35659 0.33009 0.0
C665 C 0.92838 0.39152 0.37536 0.0
C666 C 0.8723 0.38768 0.4176 0.0
C667 C 0.88049 0.37279 0.33126 0.0
O668 O 0.90893 0.39376 0.38342 0.0
O669 O 0.93443 0.37484 0.36394 0.0
O670 O 0.85795 0.35226 0.38152 0.0
O671 O 0.89332 0.34744 0.37613 0.0
H672 H 0.09095 0.30951 0.42007 0.0
H673 H 0.15686 0.31276 0.39297 0.0
H674 H 0.09201 0.26924 0.41888 0.0
H675 H 0.15805 0.27245 0.39211 0.0
H676 H 0.1421 0.20262 0.36825 0.0
H677 H 0.13978 0.24285 0.37049 0.0
H678 H 0.11039 0.23729 0.43524 0.0
H679 H 0.11238 0.19713 0.43285 0.0
C680 C 0.10581 0.30161 0.41422 0.0
C681 C 0.12379 0.31427 0.40652 0.0
C682 C 0.10641 0.27854 0.41353 0.0
C683 C 0.12499 0.26768 0.40511 0.0
C684 C 0.14332 0.28037 0.39825 0.0
C685 C 0.14274 0.30344 0.39899 0.0
C686 C 0.13487 0.21 0.38281 0.0
C687 C 0.12749 0.19676 0.40039 0.0
C688 C 0.13376 0.23302 0.38421 0.0
C689 C 0.12518 0.24323 0.40318 0.0
C690 C 0.11702 0.22992 0.42039 0.0
C691 C 0.11819 0.20692 0.41901 0.0
H692 H 0.30027 0.63483 0.93579 0.0
H693 H 0.31899 0.60889 0.87196 0.0
H694 H 0.26159 0.6294 0.92643 0.0
H695 H 0.27997 0.60395 0.86239 0.0
H696 H 0.2108 0.57207 0.86639 0.0
H697 H 0.24953 0.58027 0.87312 0.0
H698 H 0.23207 0.64261 0.90292 0.0
H699 H 0.19293 0.63416 0.89668 0.0
C700 C 0.29618 0.62811 0.91967 0.0
C701 C 0.31285 0.62219 0.90466 0.0
C702 C 0.27391 0.62519 0.91423 0.0
C703 C 0.26765 0.61632 0.89364 0.0
C704 C 0.28425 0.61061 0.8785 0.0
C705 C 0.30662 0.61349 0.88396 0.0
C706 C 0.21509 0.5876 0.87432 0.0
C707 C 0.19864 0.60241 0.88112 0.0
C708 C 0.23741 0.59237 0.878 0.0
C709 C 0.24393 0.61209 0.88852 0.0
C710 C 0.22756 0.62713 0.89499 0.0
C711 C 0.20513 0.62234 0.89134 0.0
H712 H 0.87757 0.81389 0.35941 0.0
H713 H 0.88618 0.8083 0.43016 0.0
H714 H 0.88912 0.77552 0.35499 0.0
H715 H 0.89749 0.76983 0.42571 0.0
H716 H 0.88893 0.69472 0.40632 0.0
H717 H 0.87862 0.73336 0.41209 0.0
H718 H 0.92481 0.75376 0.36174 0.0
H719 H 0.93525 0.71544 0.35601 0.0
C720 C 0.88198 0.80447 0.37398 0.0
C721 C 0.88101 0.81405 0.39511 0.0
C722 C 0.88863 0.78257 0.37146 0.0
C723 C 0.89412 0.76975 0.39003 0.0
C724 C 0.89316 0.77932 0.41116 0.0
C725 C 0.88684 0.80134 0.41366 0.0
C726 C 0.89695 0.70747 0.39657 0.0
C727 C 0.9129 0.70198 0.38071 0.0
C728 C 0.89112 0.72955 0.39994 0.0
C729 C 0.90088 0.74647 0.38727 0.0
C730 C 0.91691 0.74101 0.37157 0.0
C731 C 0.92296 0.71905 0.36843 0.0
H732 H 0.82328 0.40405 0.90548 0.0
H733 H 0.80159 0.43637 0.84565 0.0
H734 H 0.78519 0.39378 0.91372 0.0
H735 H 0.76366 0.42503 0.85306 0.0
H736 H 0.69524 0.42182 0.88395 0.0
H737 H 0.73329 0.43196 0.87513 0.0
H738 H 0.75578 0.37083 0.90435 0.0
H739 H 0.71795 0.36153 0.91428 0.0
C740 C 0.81036 0.40865 0.89392 0.0
C741 C 0.81537 0.42108 0.87499 0.0
C742 C 0.78849 0.40266 0.89855 0.0
C743 C 0.77116 0.40853 0.88407 0.0
C744 C 0.77637 0.42061 0.86488 0.0
C745 C 0.79817 0.42699 0.86052 0.0
C746 C 0.70837 0.41059 0.8884 0.0
C747 C 0.70368 0.39099 0.89993 0.0
C748 C 0.73022 0.4163 0.88324 0.0
C749 C 0.7478 0.40229 0.88909 0.0
C750 C 0.74287 0.38236 0.90007 0.0
C751 C 0.72113 0.37691 0.90563 0.0
H752 H 0.12678 0.69322 0.60945 0.0
H753 H 0.06416 0.71363 0.63657 0.0
H754 H 0.13649 0.73184 0.60258 0.0
H755 H 0.0737 0.75199 0.62924 0.0
H756 H 0.10681 0.82006 0.63273 0.0
H757 H 0.09856 0.78143 0.64134 0.0
H758 H 0.12537 0.76167 0.57835 0.0
H759 H 0.13404 0.79996 0.56992 0.0
C760 C 0.11505 0.70588 0.61388 0.0
C761 C 0.09468 0.70025 0.62355 0.0
C762 C 0.12059 0.72801 0.60987 0.0
C763 C 0.10586 0.74499 0.61539 0.0
C764 C 0.08555 0.73936 0.6251 0.0
C765 C 0.08003 0.71729 0.62914 0.0
C766 C 0.11096 0.80748 0.62073 0.0
C767 C 0.1211 0.81319 0.60064 0.0
C768 C 0.10616 0.78534 0.62563 0.0
C769 C 0.11137 0.76847 0.61054 0.0
C770 C 0.12148 0.7742 0.59049 0.0
C771 C 0.1263 0.79625 0.5856 0.0
H772 H 0.70003 0.64451 0.14213 0.0
H773 H 0.69461 0.60405 0.08339 0.0
H774 H 0.73985 0.63779 0.14354 0.0
H775 H 0.73434 0.59721 0.08495 0.0
H776 H 0.80028 0.57042 0.11398 0.0
H777 H 0.76079 0.57759 0.11136 0.0
H778 H 0.77364 0.64755 0.11888 0.0
H779 H 0.81342 0.64043 0.12138 0.0
C780 C 0.70731 0.63402 0.12967 0.0
C781 C 0.69425 0.62476 0.11267 0.0
C782 C 0.73009 0.63037 0.13036 0.0
C783 C 0.74013 0.61713 0.11426 0.0
C784 C 0.72698 0.60745 0.09758 0.0
C785 C 0.70427 0.61136 0.0967 0.0
C786 C 0.79474 0.58737 0.11493 0.0
C787 C 0.80996 0.60487 0.11794 0.0
C788 C 0.77214 0.59144 0.11335 0.0
C789 C 0.76421 0.61308 0.11504 0.0
C790 C 0.77937 0.63068 0.11773 0.0
C791 C 0.8021 0.62663 0.11897 0.0
H792 H 0.90852 0.1936 0.62469 0.0
H793 H 0.84872 0.20238 0.58633 0.0
H794 H 0.9101 0.23354 0.63171 0.0
H795 H 0.85034 0.24197 0.59333 0.0
H796 H 0.8516 0.31054 0.62676 0.0
H797 H 0.84816 0.27019 0.62423 0.0
H798 H 0.91692 0.26618 0.60595 0.0
H799 H 0.92037 0.30623 0.60832 0.0
C800 C 0.89561 0.20398 0.61803 0.0
C801 C 0.87867 0.19493 0.60476 0.0
C802 C 0.89656 0.22679 0.62193 0.0
C803 C 0.88038 0.2408 0.61295 0.0
C804 C 0.86293 0.23156 0.60056 0.0
C805 C 0.86215 0.20891 0.59641 0.0
C806 C 0.8659 0.30101 0.62207 0.0
C807 C 0.8862 0.31152 0.61766 0.0
C808 C 0.86396 0.27797 0.6207 0.0
C809 C 0.88237 0.2651 0.61516 0.0
C810 C 0.90259 0.27567 0.61065 0.0
C811 C 0.90446 0.29862 0.61177 0.0
H812 H 0.30537 0.40097 0.09003 0.0
H813 H 0.31207 0.37022 0.15416 0.0
H814 H 0.26573 0.40437 0.09569 0.0
H815 H 0.27233 0.37399 0.16002 0.0
H816 H 0.19827 0.36005 0.15079 0.0
H817 H 0.23808 0.35757 0.14492 0.0
H818 H 0.23873 0.42374 0.11803 0.0
H819 H 0.19893 0.42605 0.12352 0.0
C820 C 0.2984 0.39521 0.10548 0.0
C821 C 0.31179 0.38526 0.12164 0.0
C822 C 0.27569 0.39721 0.10874 0.0
C823 C 0.26587 0.38929 0.12822 0.0
C824 C 0.27937 0.3799 0.14466 0.0
C825 C 0.30214 0.37794 0.14141 0.0
C826 C 0.2069 0.37397 0.14344 0.0
C827 C 0.19551 0.39324 0.13762 0.0
C828 C 0.22972 0.37264 0.14028 0.0
C829 C 0.24158 0.39054 0.13121 0.0
C830 C 0.23005 0.40962 0.12493 0.0
C831 C 0.20726 0.41095 0.1281 0.0
H832 H 0.35714 0.13599 0.19924 0.0
H833 H 0.42116 0.10498 0.19762 0.0
H834 H 0.35828 0.13556 0.23968 0.0
H835 H 0.42255 0.10506 0.23778 0.0
H836 H 0.37937 0.15445 0.31001 0.0
H837 H 0.37869 0.15421 0.26959 0.0
H838 H 0.40581 0.08838 0.26969 0.0
H839 H 0.407 0.08886 0.30989 0.0
C840 C 0.37132 0.12889 0.20751 0.0
C841 C 0.38905 0.12053 0.19529 0.0
C842 C 0.37211 0.12889 0.23064 0.0
C843 C 0.39062 0.12049 0.24193 0.0
C844 C 0.40799 0.1115 0.22963 0.0
C845 C 0.40719 0.11149 0.20658 0.0
C846 C 0.38551 0.1401 0.30135 0.0
C847 C 0.39324 0.12168 0.31309 0.0
C848 C 0.38485 0.13984 0.27823 0.0
C849 C 0.39195 0.12117 0.26644 0.0
C850 C 0.40035 0.10307 0.27824 0.0
C851 C 0.40103 0.10334 0.3013 0.0
H852 H 0.3788 0.94585 0.71259 0.0
H853 H 0.40539 0.88388 0.68957 0.0
H854 H 0.38898 0.93635 0.75032 0.0
H855 H 0.41513 0.87423 0.72748 0.0
H856 H 0.44975 0.8744 0.7946 0.0
H857 H 0.44053 0.88497 0.75693 0.0
H858 H 0.3781 0.91063 0.77926 0.0
H859 H 0.38747 0.90048 0.81715 0.0
C860 C 0.38679 0.93018 0.71553 0.0
C861 C 0.39124 0.91562 0.69797 0.0
C862 C 0.39249 0.92468 0.73723 0.0
C863 C 0.40277 0.9045 0.74193 0.0
C864 C 0.40743 0.89002 0.72438 0.0
C865 C 0.40175 0.89552 0.70265 0.0
C866 C 0.43405 0.88235 0.79156 0.0
C867 C 0.41933 0.88654 0.80898 0.0
C868 C 0.42873 0.88828 0.76989 0.0
C869 C 0.40855 0.89854 0.76506 0.0
C870 C 0.39389 0.90295 0.78247 0.0
C871 C 0.39923 0.89703 0.80419 0.0
H872 H 0.64268 0.85987 0.19701 0.0
H873 H 0.6067 0.921 0.19867 0.0
H874 H 0.63922 0.85639 0.23682 0.0
H875 H 0.60484 0.91885 0.23884 0.0
H876 H 0.58379 0.90037 0.30712 0.0
H877 H 0.58692 0.90167 0.267 0.0
H878 H 0.64894 0.86668 0.27144 0.0
H879 H 0.64448 0.86379 0.31119 0.0
C880 C 0.63472 0.87299 0.2061 0.0
C881 C 0.62503 0.89075 0.19492 0.0
C882 C 0.6327 0.87105 0.22901 0.0
C883 C 0.62149 0.88719 0.24134 0.0
C884 C 0.61292 0.90564 0.23004 0.0
C885 C 0.61432 0.90717 0.20704 0.0
C886 C 0.59775 0.89252 0.29929 0.0
C887 C 0.61375 0.88178 0.31208 0.0
C888 C 0.59983 0.89359 0.27632 0.0
C889 C 0.61844 0.88465 0.26571 0.0
C890 C 0.63418 0.87347 0.2787 0.0
C891 C 0.63167 0.87178 0.30158 0.0
H892 H 0.62909 0.10797 0.81992 0.0
H893 H 0.5672 0.1351 0.79687 0.0
H894 H 0.63863 0.0986 0.78198 0.0
H895 H 0.5766 0.1253 0.75912 0.0
H896 H 0.61142 0.12629 0.69215 0.0
H897 H 0.60227 0.13605 0.73012 0.0
H898 H 0.6274 0.07333 0.75267 0.0
H899 H 0.637 0.06373 0.71495 0.0
C900 C 0.61745 0.11182 0.80683 0.0
C901 C 0.59738 0.12233 0.81151 0.0
C902 C 0.62289 0.10636 0.78508 0.0
C903 C 0.60839 0.11126 0.76753 0.0
C904 C 0.58828 0.12162 0.77222 0.0
C905 C 0.58284 0.12709 0.79393 0.0
C906 C 0.61503 0.11459 0.70519 0.0
C907 C 0.625 0.09424 0.70044 0.0
C908 C 0.60967 0.12014 0.72695 0.0
C909 C 0.61414 0.10547 0.74442 0.0
C910 C 0.62404 0.08514 0.73965 0.0
C911 C 0.62941 0.07959 0.71795 0.0
H912 H 0.87408 0.81622 0.64048 0.0
H913 H 0.8951 0.80457 0.57319 0.0
H914 H 0.87955 0.77691 0.64883 0.0
H915 H 0.90063 0.76588 0.58171 0.0
H916 H 0.94023 0.71147 0.61196 0.0
H917 H 0.93083 0.75034 0.60967 0.0
H918 H 0.8653 0.73577 0.63383 0.0
H919 H 0.87455 0.69648 0.63616 0.0
C920 C 0.87949 0.8053 0.62742 0.0
C921 C 0.88456 0.81362 0.60628 0.0
C922 C 0.88261 0.78289 0.63224 0.0
C923 C 0.89095 0.76868 0.61601 0.0
C924 C 0.89462 0.7767 0.5946 0.0
C925 C 0.89139 0.79887 0.58975 0.0
C926 C 0.92389 0.71645 0.61708 0.0
C927 C 0.90799 0.70077 0.62377 0.0
C928 C 0.91854 0.73871 0.61576 0.0
C929 C 0.89726 0.74581 0.6212 0.0
C930 C 0.8818 0.73055 0.6295 0.0
C931 C 0.88712 0.70812 0.63075 0.0
H932 H 0.80814 0.34353 0.11669 0.0
H933 H 0.80244 0.40547 0.15172 0.0
H934 H 0.76901 0.33556 0.12382 0.0
H935 H 0.76382 0.39762 0.15881 0.0
H936 H 0.69449 0.38345 0.16912 0.0
H937 H 0.73356 0.37464 0.17459 0.0
H938 H 0.73824 0.35601 0.10578 0.0
H939 H 0.69951 0.36462 0.1004 0.0
C940 C 0.79871 0.35511 0.12642 0.0
C941 C 0.8081 0.37533 0.13323 0.0
C942 C 0.77639 0.35055 0.13052 0.0
C943 C 0.76336 0.36605 0.14171 0.0
C944 C 0.77344 0.38523 0.15033 0.0
C945 C 0.79556 0.38988 0.14601 0.0
C946 C 0.70379 0.37692 0.15536 0.0
C947 C 0.69423 0.37526 0.13421 0.0
C948 C 0.72607 0.37182 0.1585 0.0
C949 C 0.73896 0.36487 0.14056 0.0
C950 C 0.72872 0.36116 0.11997 0.0
C951 C 0.70658 0.36639 0.11681 0.0
H952 H 0.10499 0.20992 0.59814 0.0
H953 H 0.16296 0.1901 0.63507 0.0
H954 H 0.10938 0.24742 0.61223 0.0
H955 H 0.16743 0.22808 0.64895 0.0
H956 H 0.17263 0.30914 0.63562 0.0
H957 H 0.1735 0.26917 0.62868 0.0
H958 H 0.10725 0.26261 0.65413 0.0
H959 H 0.10634 0.3022 0.66126 0.0
C960 C 0.11879 0.2136 0.60909 0.0
C961 C 0.13358 0.19705 0.61556 0.0
C962 C 0.12118 0.23501 0.61727 0.0
C963 C 0.13857 0.2404 0.63183 0.0
C964 C 0.15385 0.22416 0.63781 0.0
C965 C 0.15124 0.20253 0.62991 0.0
C966 C 0.15856 0.29902 0.64038 0.0
C967 C 0.13926 0.30877 0.64858 0.0
C968 C 0.15908 0.27623 0.63641 0.0
C969 C 0.14029 0.26309 0.64055 0.0
C970 C 0.12181 0.27256 0.65057 0.0
C971 C 0.12133 0.29519 0.65465 0.0
H972 H 0.20387 0.59047 0.09392 0.0
H973 H 0.18982 0.63057 0.15134 0.0
H974 H 0.24257 0.60121 0.09635 0.0
H975 H 0.22902 0.6413 0.15372 0.0
H976 H 0.30654 0.62133 0.16056 0.0
H977 H 0.26605 0.62004 0.161 0.0
H978 H 0.26459 0.63716 0.0917 0.0
H979 H 0.30483 0.6383 0.09116 0.0
C980 C 0.20904 0.60155 0.1071 0.0
C981 C 0.19379 0.60966 0.12245 0.0
C982 C 0.23117 0.60788 0.10834 0.0
C983 C 0.23863 0.62231 0.12504 0.0
C984 C 0.22356 0.63024 0.14064 0.0
C985 C 0.20122 0.62412 0.13923 0.0
C986 C 0.29752 0.6254 0.1456 0.0
C987 C 0.30873 0.62943 0.12571 0.0
C988 C 0.2744 0.62473 0.14588 0.0
C989 C 0.26236 0.62808 0.12627 0.0
C990 C 0.27359 0.63413 0.10693 0.0
C991 C 0.29659 0.63479 0.10664 0.0
H992 H 0.8657 0.20698 0.4076 0.0
H993 H 0.88525 0.20047 0.33931 0.0
H994 H 0.8569 0.24565 0.40133 0.0
H995 H 0.87651 0.23941 0.33305 0.0
H996 H 0.90135 0.31193 0.35344 0.0
H997 H 0.89792 0.27203 0.34942 0.0
H998 H 0.83368 0.27367 0.38022 0.0
H999 H 0.83707 0.31388 0.38412 0.0
C1000 C 0.86769 0.21373 0.39114 0.0
C1001 C 0.8765 0.20091 0.37403 0.0
C1002 C 0.86243 0.2358 0.38749 0.0
C1003 C 0.86613 0.24549 0.36673 0.0
C1004 C 0.87362 0.23229 0.34923 0.0
C1005 C 0.87862 0.21008 0.35282 0.0
C1006 C 0.88627 0.30386 0.35888 0.0
C1007 C 0.86962 0.31587 0.3694 0.0
C1008 C 0.88421 0.28104 0.35639 0.0
C1009 C 0.86558 0.2698 0.36462 0.0
C1010 C 0.84825 0.28199 0.37383 0.0
C1011 C 0.85018 0.30494 0.37604 0.0
H1012 H 0.20187 0.34013 0.90958 0.0
H1013 H 0.20937 0.40434 0.87912 0.0
H1014 H 0.24189 0.33477 0.90734 0.0
H1015 H 0.24922 0.3987 0.87642 0.0
H1016 H 0.31044 0.36556 0.93642 0.0
H1017 H 0.27073 0.36104 0.93014 0.0
H1018 H 0.28022 0.37059 0.86009 0.0
H1019 H 0.32021 0.37455 0.86625 0.0
C1020 C 0.21199 0.35278 0.90182 0.0
C1021 C 0.2027 0.37277 0.89479 0.0
C1022 C 0.23479 0.3497 0.90056 0.0
C1023 C 0.24845 0.36636 0.89176 0.0
C1024 C 0.23893 0.38558 0.88311 0.0
C1025 C 0.21621 0.38885 0.8848 0.0
C1026 C 0.30409 0.36631 0.91965 0.0
C1027 C 0.31827 0.37057 0.90184 0.0
C1028 C 0.28146 0.36353 0.91604 0.0
C1029 C 0.2726 0.3654 0.89464 0.0
C1030 C 0.28681 0.36898 0.8767 0.0
C1031 C 0.30957 0.37124 0.88025 0.0
H1032 H 0.10207 0.80963 0.34222 0.0
H1033 H 0.13502 0.8025 0.40536 0.0
H1034 H 0.10089 0.76936 0.33807 0.0
H1035 H 0.13431 0.76232 0.4009 0.0
H1036 H 0.13761 0.68979 0.37787 0.0
H1037 H 0.14662 0.72907 0.37294 0.0
H1038 H 0.07714 0.74349 0.36644 0.0
H1039 H 0.06802 0.70443 0.37189 0.0
C1040 C 0.10969 0.79948 0.35483 0.0
C1041 C 0.11838 0.80902 0.37424 0.0
C1042 C 0.10896 0.77653 0.35247 0.0
C1043 C 0.11742 0.76295 0.36922 0.0
C1044 C 0.12781 0.77256 0.38773 0.0
C1045 C 0.12811 0.79547 0.39032 0.0
C1046 C 0.1243 0.70133 0.3751 0.0
C1047 C 0.10211 0.69419 0.37548 0.0
C1048 C 0.12948 0.7237 0.37227 0.0
C1049 C 0.11255 0.73908 0.36919 0.0
C1050 C 0.09045 0.7318 0.36853 0.0
C1051 C 0.08524 0.70956 0.37186 0.0
H1052 H 0.80628 0.57624 0.90277 0.0
H1053 H 0.81653 0.63796 0.86796 0.0
H1054 H 0.76741 0.58476 0.90685 0.0
H1055 H 0.77729 0.64643 0.87224 0.0
H1056 H 0.69845 0.63682 0.86971 0.0
H1057 H 0.73782 0.632 0.86182 0.0
H1058 H 0.74942 0.61439 0.93005 0.0
H1059 H 0.71047 0.61906 0.93799 0.0
C1060 C 0.80025 0.59154 0.8958 0.0
C1061 C 0.81464 0.60657 0.88535 0.0
C1062 C 0.77798 0.59645 0.89825 0.0
C1063 C 0.76953 0.61646 0.89027 0.0
C1064 C 0.78349 0.63095 0.87862 0.0
C1065 C 0.80591 0.62607 0.87622 0.0
C1066 C 0.7095 0.63233 0.88309 0.0
C1067 C 0.70128 0.62792 0.90438 0.0
C1068 C 0.73198 0.62956 0.87855 0.0
C1069 C 0.74644 0.62233 0.89523 0.0
C1070 C 0.73847 0.61943 0.91678 0.0
C1071 C 0.71616 0.6222 0.92132 0.0
H1072 H 0.63416 0.87606 0.81438 0.0
H1073 H 0.56963 0.90411 0.80245 0.0
H1074 H 0.64285 0.88028 0.77507 0.0
H1075 H 0.57841 0.9082 0.76357 0.0
H1076 H 0.61185 0.94253 0.70709 0.0
H1077 H 0.60698 0.93431 0.74601 0.0
H1078 H 0.6292 0.8676 0.73524 0.0
H1079 H 0.63417 0.87572 0.69586 0.0
C1080 C 0.62173 0.88281 0.8034 0.0
C1081 C 0.60134 0.89012 0.81165 0.0
C1082 C 0.62673 0.88517 0.78094 0.0
C1083 C 0.61145 0.89497 0.76652 0.0
C1084 C 0.59065 0.90104 0.77452 0.0
C1085 C 0.58562 0.89862 0.7968 0.0
C1086 C 0.61593 0.92613 0.71292 0.0
C1087 C 0.62301 0.90966 0.69824 0.0
C1088 C 0.61306 0.92144 0.73522 0.0
C1089 C 0.61726 0.90021 0.74343 0.0
C1090 C 0.62574 0.88407 0.7292 0.0
C1091 C 0.62856 0.88874 0.70671 0.0
H1092 H 0.67586 0.13267 0.19935 0.0
H1093 H 0.60955 0.15809 0.20404 0.0
H1094 H 0.68083 0.13787 0.23923 0.0
H1095 H 0.6145 0.16328 0.24366 0.0
H1096 H 0.63017 0.17653 0.31443 0.0
H1097 H 0.6355 0.18209 0.27469 0.0
H1098 H 0.66171 0.11616 0.26925 0.0
H1099 H 0.65638 0.11061 0.30869 0.0
C1100 C 0.66257 0.13985 0.2088 0.0
C1101 C 0.64221 0.14466 0.19873 0.0
C1102 C 0.6654 0.14279 0.23158 0.0
C1103 C 0.648 0.15084 0.24452 0.0
C1104 C 0.62827 0.15723 0.23409 0.0
C1105 C 0.62536 0.15407 0.21142 0.0
C1106 C 0.6375 0.16344 0.30478 0.0
C1107 C 0.64256 0.14303 0.31451 0.0
C1108 C 0.64052 0.16662 0.28209 0.0
C1109 C 0.64893 0.14952 0.26892 0.0
C1110 C 0.65542 0.12971 0.27902 0.0
C1111 C 0.65216 0.12645 0.30158 0.0
H1112 H 0.38067 0.12547 0.69374 0.0
H1113 H 0.41028 0.06133 0.70325 0.0
H1114 H 0.38641 0.13373 0.73295 0.0
H1115 H 0.41571 0.06957 0.74221 0.0
H1116 H 0.38422 0.1275 0.81078 0.0
H1117 H 0.37561 0.12182 0.77161 0.0
H1118 H 0.44106 0.09594 0.76143 0.0
H1119 H 0.44965 0.10132 0.80033 0.0
C1120 C 0.38807 0.11301 0.7042 0.0
C1121 C 0.39532 0.09286 0.69527 0.0
C1122 C 0.39133 0.11777 0.72664 0.0
C1123 C 0.40191 0.10247 0.74045 0.0
C1124 C 0.40802 0.08189 0.73178 0.0
C1125 C 0.40477 0.07713 0.70946 0.0
C1126 C 0.39687 0.12087 0.80012 0.0
C1127 C 0.41752 0.11455 0.80877 0.0
C1128 C 0.39191 0.11764 0.77771 0.0
C1129 C 0.40751 0.10801 0.76365 0.0
C1130 C 0.42852 0.10286 0.77205 0.0
C1131 C 0.43347 0.10608 0.79434 0.0
H1132 H 0.39829 0.85834 0.20226 0.0
H1133 H 0.33228 0.88437 0.19603 0.0
H1134 H 0.39271 0.85299 0.24171 0.0
H1135 H 0.3267 0.87901 0.23575 0.0
H1136 H 0.3488 0.90307 0.30738 0.0
H1137 H 0.345 0.8994 0.26745 0.0
H1138 H 0.37074 0.83314 0.27102 0.0
H1139 H 0.37457 0.83681 0.31118 0.0
C1140 C 0.38244 0.86255 0.20927 0.0
C1141 C 0.36581 0.87203 0.19618 0.0
C1142 C 0.37917 0.8593 0.23184 0.0
C1143 C 0.35929 0.86565 0.24177 0.0
C1144 C 0.34222 0.87409 0.22848 0.0
C1145 C 0.34541 0.87713 0.2058 0.0
C1146 C 0.35325 0.88756 0.29971 0.0
C1147 C 0.36226 0.87033 0.31229 0.0
C1148 C 0.35089 0.8854 0.27686 0.0
C1149 C 0.35769 0.86603 0.26616 0.0
C1150 C 0.36553 0.8483 0.27889 0.0
C1151 C 0.36767 0.85039 0.30183 0.0
H1152 H 0.095 0.10342 0.5623 0.0
H1153 H 0.15644 0.069 0.57144 0.0
H1154 H 0.09304 0.09091 0.52434 0.0
H1155 H 0.15481 0.05646 0.53287 0.0
H1156 H 0.16138 0.09999 0.46576 0.0
H1157 H 0.16138 0.08263 0.50207 0.0
H1158 H 0.0924 0.06504 0.49359 0.0
H1159 H 0.09233 0.08334 0.45766 0.0
C1160 C 0.10757 0.09229 0.55637 0.0
C1161 C 0.12595 0.08735 0.56954 0.0
C1162 C 0.10645 0.08493 0.53458 0.0
C1163 C 0.124 0.07292 0.52541 0.0
C1164 C 0.14116 0.06582 0.53943 0.0
C1165 C 0.14204 0.07289 0.5615 0.0
C1166 C 0.14659 0.09135 0.47119 0.0
C1167 C 0.12675 0.09334 0.45935 0.0
C1168 C 0.14655 0.0813 0.49201 0.0
C1169 C 0.12664 0.07312 0.50101 0.0
C1170 C 0.10783 0.0717 0.4873 0.0
C1171 C 0.10778 0.0821 0.46673 0.0
H1172 H 0.41273 0.6549 0.95746 0.0
H1173 H 0.43494 0.58861 0.94486 0.0
H1174 H 0.42122 0.65056 0.99653 0.0
H1175 H 0.4429 0.58387 0.98432 0.0
H1176 H 0.42267 0.63887 0.06549 0.0
H1177 H 0.44409 0.63941 0.0312 0.0
H1178 H 0.40681 0.58274 0.00759 0.0
H1179 H 0.38518 0.58274 0.04141 0.0
C1180 C 0.42063 0.63985 0.96294 0.0
C1181 C 0.42305 0.62203 0.94839 0.0
C1182 C 0.42559 0.63733 0.98532 0.0
C1183 C 0.43237 0.61671 0.99349 0.0
C1184 C 0.43766 0.5999 0.97841 0.0
C1185 C 0.43317 0.60263 0.95586 0.0
C1186 C 0.41995 0.62588 0.05339 0.0
C1187 C 0.40233 0.61082 0.05581 0.0
C1188 C 0.43218 0.62619 0.03382 0.0
C1189 C 0.42702 0.61123 0.01671 0.0
C1190 C 0.41135 0.59434 0.02056 0.0
C1191 C 0.39885 0.59436 0.03985 0.0
H1192 H 0.84087 0.9032 0.47009 0.0
H1193 H 0.90721 0.92656 0.45779 0.0
H1194 H 0.84109 0.92217 0.50559 0.0
H1195 H 0.9072 0.94674 0.49277 0.0
H1196 H 0.91338 0.91569 0.56411 0.0
H1197 H 0.91198 0.92632 0.52568 0.0
H1198 H 0.84513 0.94949 0.53429 0.0
H1199 H 0.84679 0.93848 0.57322 0.0
C1200 C 0.855 0.9135 0.47449 0.0
C1201 C 0.87415 0.9132 0.46161 0.0
C1202 C 0.85516 0.92453 0.49482 0.0
C1203 C 0.87449 0.93546 0.5024 0.0
C1204 C 0.89231 0.93797 0.48771 0.0
C1205 C 0.89231 0.92653 0.46765 0.0
C1206 C 0.89886 0.92417 0.55807 0.0
C1207 C 0.88012 0.92602 0.57137 0.0
C1208 C 0.89798 0.93038 0.53593 0.0
C1209 C 0.87814 0.93822 0.52662 0.0
C1210 C 0.86048 0.94309 0.54085 0.0
C1211 C 0.86149 0.93703 0.56319 0.0
H1212 H 0.57896 0.41344 0.94043 0.0
H1213 H 0.60884 0.35122 0.95728 0.0
H1214 H 0.5698 0.4194 0.97938 0.0
H1215 H 0.59891 0.35663 0.99588 0.0
H1216 H 0.589 0.3709 0.06419 0.0
H1217 H 0.57043 0.3673 0.02822 0.0
H1218 H 0.60657 0.42444 1.00468 0.0
H1219 H 0.62565 0.42741 0.04024 0.0
C1220 C 0.58226 0.40041 0.95226 0.0
C1221 C 0.5947 0.38195 0.94612 0.0
C1222 C 0.57705 0.40385 0.97449 0.0
C1223 C 0.58378 0.38855 0.99057 0.0
C1224 C 0.59334 0.36859 0.98379 0.0
C1225 C 0.59911 0.36548 0.96173 0.0
C1226 C 0.592 0.38336 0.05166 0.0
C1227 C 0.60865 0.39942 0.05474 0.0
C1228 C 0.5814 0.38129 0.03115 0.0
C1229 C 0.58713 0.39555 0.01375 0.0
C1230 C 0.60164 0.41341 0.01792 0.0
C1231 C 0.61263 0.41511 0.03821 0.0
H1232 H 0.15994 0.91255 0.5477 0.0
H1233 H 0.09508 0.93537 0.56532 0.0
H1234 H 0.15147 0.9186 0.50878 0.0
H1235 H 0.08618 0.94057 0.52619 0.0
H1236 H 0.12956 0.91914 0.44001 0.0
H1237 H 0.1342 0.94122 0.47383 0.0
H1238 H 0.08542 0.90018 0.50629 0.0
H1239 H 0.0816 0.87768 0.47296 0.0
C1240 C 0.1444 0.9202 0.54328 0.0
C1241 C 0.12811 0.9234 0.5593 0.0
C1242 C 0.1395 0.92367 0.521 0.0
C1243 C 0.11803 0.9297 0.51455 0.0
C1244 C 0.10284 0.93596 0.53081 0.0
C1245 C 0.10798 0.93307 0.55319 0.0
C1246 C 0.11915 0.91555 0.45411 0.0
C1247 C 0.10529 0.89677 0.45412 0.0
C1248 C 0.12179 0.92817 0.47337 0.0
C1249 C 0.1101 0.92245 0.49255 0.0
C1250 C 0.09436 0.90518 0.49161 0.0
C1251 C 0.09225 0.8922 0.47263 0.0
H1252 H 0.59955 0.59473 0.9428 0.0
H1253 H 0.57341 0.66034 0.93554 0.0
H1254 H 0.58674 0.5933 0.98047 0.0
H1255 H 0.56017 0.65912 0.97373 0.0
H1256 H 0.60258 0.66195 0.04084 0.0
H1257 H 0.58529 0.66297 1.00445 0.0
H1258 H 0.56419 0.59487 0.0121 0.0
H1259 H 0.58281 0.59369 0.04798 0.0
C1260 C 0.58995 0.60841 0.94901 0.0
C1261 C 0.58772 0.62772 0.93655 0.0
C1262 C 0.58245 0.60764 0.97071 0.0
C1263 C 0.5729 0.6264 0.98046 0.0
C1264 C 0.56785 0.64457 0.96685 0.0
C1265 C 0.57521 0.64521 0.94493 0.0
C1266 C 0.59336 0.64757 0.03511 0.0
C1267 C 0.59436 0.62762 0.04678 0.0
C1268 C 0.58329 0.64811 0.01424 0.0
C1269 C 0.57399 0.62871 1.00496 0.0
C1270 C 0.57182 0.60988 0.01846 0.0
C1271 C 0.58237 0.6092 0.03903 0.0
H1272 H 0.92652 0.13932 0.47218 0.0
H1273 H 0.88341 0.09138 0.44068 0.0
H1274 H 0.92774 0.11652 0.50537 0.0
H1275 H 0.88384 0.06883 0.47441 0.0
H1276 H 0.85793 0.09172 0.54963 0.0
H1277 H 0.86527 0.08751 0.51032 0.0
H1278 H 0.93434 0.0771 0.52482 0.0
H1279 H 0.92671 0.08051 0.56436 0.0
C1280 C 0.91802 0.12346 0.47214 0.0
C1281 C 0.90483 0.11706 0.45409 0.0
C1282 C 0.91882 0.1103 0.49103 0.0
C1283 C 0.90588 0.0909 0.49239 0.0
C1284 C 0.89412 0.08358 0.47363 0.0
C1285 C 0.89386 0.09648 0.45443 0.0
C1286 C 0.87434 0.08693 0.54449 0.0
C1287 C 0.89178 0.0865 0.55981 0.0
C1288 C 0.87859 0.08453 0.52197 0.0
C1289 C 0.90045 0.08235 0.5146 0.0
C1290 C 0.91737 0.07874 0.53016 0.0
C1291 C 0.91298 0.08059 0.55276 0.0
H1292 H 0.43645 0.41159 0.93523 0.0
H1293 H 0.4241 0.34215 0.94562 0.0
H1294 H 0.44363 0.41643 0.97471 0.0
H1295 H 0.4293 0.34696 0.98502 0.0
H1296 H 0.41797 0.35931 0.05448 0.0
H1297 H 0.44006 0.3562 0.02084 0.0
H1298 H 0.41408 0.41872 0.9982 0.0
H1299 H 0.3933 0.42211 0.03164 0.0
C1300 C 0.43639 0.39719 0.94587 0.0
C1301 C 0.4296 0.37657 0.93764 0.0
C1302 C 0.44009 0.39994 0.96856 0.0
C1303 C 0.43582 0.38235 0.98331 0.0
C1304 C 0.43252 0.36103 0.97444 0.0
C1305 C 0.42953 0.35819 0.95172 0.0
C1306 C 0.41753 0.37259 0.04249 0.0
C1307 C 0.40331 0.39057 0.04536 0.0
C1308 C 0.43015 0.37082 0.02318 0.0
C1309 C 0.42865 0.38696 0.00642 0.0
C1310 C 0.41603 0.40592 0.01054 0.0
C1311 C 0.40362 0.4077 0.02971 0.0
H1312 H 0.56309 0.16348 0.09554 0.0
H1313 H 0.5616 0.09587 0.11779 0.0
H1314 H 0.52782 0.15788 0.0764 0.0
H1315 H 0.52579 0.09041 0.10044 0.0
H1316 H 0.45872 0.08371 0.08938 0.0
H1317 H 0.49659 0.08819 0.07645 0.0
H1318 H 0.49376 0.15797 0.09224 0.0
H1319 H 0.45567 0.15352 0.10322 0.0
C1320 C 0.55537 0.14723 0.09575 0.0
C1321 C 0.56462 0.13014 0.10825 0.0
C1322 C 0.53509 0.14402 0.08499 0.0
C1323 C 0.52332 0.12397 0.08749 0.0
C1324 C 0.53407 0.10615 0.09795 0.0
C1325 C 0.55463 0.10922 0.10814 0.0
C1326 C 0.46597 0.10016 0.08886 0.0
C1327 C 0.45467 0.11821 0.09776 0.0
C1328 C 0.48776 0.10274 0.08174 0.0
C1329 C 0.49882 0.12317 0.08448 0.0
C1330 C 0.48617 0.14184 0.09006 0.0
C1331 C 0.46416 0.13936 0.09647 0.0
H1332 H 0.34508 0.96614 0.60638 0.0
H1333 H 0.39879 0.94693 0.56413 0.0
H1334 H 0.3454 1.00284 0.58998 0.0
H1335 H 0.39969 0.98415 0.54807 0.0
H1336 H 0.41792 0.05307 0.58882 0.0
H1337 H 0.41261 0.01548 0.57538 0.0
H1338 H 0.3454 0.03071 0.55688 0.0
H1339 H 0.35108 0.06872 0.5698 0.0
C1340 C 0.3563 0.96955 0.59288 0.0
C1341 C 0.37204 0.95396 0.58663 0.0
C1342 C 0.35641 0.99051 0.58333 0.0
C1343 C 0.37271 0.99639 0.56785 0.0
C1344 C 0.38692 0.97998 0.55989 0.0
C1345 C 0.38641 0.95874 0.56908 0.0
C1346 C 0.40251 0.04875 0.58057 0.0
C1347 C 0.38485 0.06355 0.58048 0.0
C1348 C 0.39943 0.02723 0.57279 0.0
C1349 C 0.37844 0.0201 0.56545 0.0
C1350 C 0.36172 0.03582 0.56251 0.0
C1351 C 0.36499 0.05757 0.56983 0.0
H1352 H 0.44649 0.84669 0.09553 0.0
H1353 H 0.44472 0.91534 0.11434 0.0
H1354 H 0.48231 0.8526 0.07803 0.0
H1355 H 0.48111 0.92115 0.09899 0.0
H1356 H 0.55361 0.85937 0.10616 0.0
H1357 H 0.51573 0.854 0.09451 0.0
H1358 H 0.51162 0.92356 0.07797 0.0
H1359 H 0.5492 0.92897 0.09187 0.0
C1360 C 0.45366 0.86318 0.09537 0.0
C1361 C 0.44329 0.88053 0.10645 0.0
C1362 C 0.47429 0.86658 0.08561 0.0
C1363 C 0.48534 0.8871 0.08788 0.0
C1364 C 0.47351 0.90504 0.09677 0.0
C1365 C 0.45257 0.90177 0.10581 0.0
C1366 C 0.54481 0.87331 0.09927 0.0
C1367 C 0.5539 0.89464 0.10047 0.0
C1368 C 0.52292 0.8703 0.09241 0.0
C1369 C 0.50996 0.8886 0.08621 0.0
C1370 C 0.5206 0.90928 0.08375 0.0
C1371 C 0.54223 0.9124 0.09141 0.0
H1372 H 0.66625 0.04183 0.60895 0.0
H1373 H 0.60989 0.05839 0.56844 0.0
H1374 H 0.66639 1.00483 0.59319 0.0
H1375 H 0.60946 0.02082 0.55306 0.0
H1376 H 0.59601 0.95135 0.59431 0.0
H1377 H 0.59922 0.98921 0.58112 0.0
H1378 H 0.66607 0.97677 0.5601 0.0
H1379 H 0.66248 0.93845 0.57279 0.0
C1380 C 0.65446 0.03776 0.59598 0.0
C1381 C 0.63794 0.0527 0.59002 0.0
C1382 C 0.65462 0.01663 0.58679 0.0
C1383 C 0.63783 0.00992 0.57198 0.0
C1384 C 0.62263 0.02564 0.56435 0.0
C1385 C 0.62286 0.04707 0.57315 0.0
C1386 C 0.61087 0.95635 0.58563 0.0
C1387 C 0.62905 0.94223 0.58467 0.0
C1388 C 0.61272 0.97801 0.57798 0.0
C1389 C 0.63303 0.98598 0.56989 0.0
C1390 C 0.65025 0.97098 0.56628 0.0
C1391 C 0.64818 0.94908 0.57348 0.0
H1392 H 0.45153 0.89562 0.9417 0.0
H1393 H 0.47046 0.84051 0.90091 0.0
H1394 H 0.48915 0.89776 0.95695 0.0
H1395 H 0.50761 0.84206 0.91658 0.0
H1396 H 0.55738 0.91521 0.91515 0.0
H1397 H 0.51973 0.90978 0.92821 0.0
H1398 H 0.53611 0.84389 0.94976 0.0
H1399 H 0.57418 0.84972 0.93728 0.0
C1400 C 0.4634 0.88321 0.93695 0.0
C1401 C 0.45836 0.86805 0.92002 0.0
C1402 C 0.48487 0.88444 0.94566 0.0
C1403 C 0.50128 0.87016 0.93787 0.0
C1404 C 0.49527 0.85314 0.92308 0.0
C1405 C 0.47405 0.85231 0.91398 0.0
C1406 C 0.55326 0.90011 0.92391 0.0
C1407 C 0.56846 0.88283 0.92511 0.0
C1408 C 0.53172 0.89698 0.93148 0.0
C1409 C 0.52496 0.87629 0.93973 0.0
C1410 C 0.54095 0.85999 0.94348 0.0
C1411 C 0.56272 0.86335 0.9364 0.0
H1412 H 0.57372 0.96024 0.41166 0.0
H1413 H 0.64365 0.95188 0.40175 0.0
H1414 H 0.58048 0.99743 0.42587 0.0
H1415 H 0.6505 0.98939 0.41364 0.0
H1416 H 0.66199 0.05828 0.4146 0.0
H1417 H 0.65312 0.02227 0.43057 0.0
H1418 H 0.58587 0.02838 0.40621 0.0
H1419 H 0.59456 0.06491 0.39251 0.0
C1420 C 0.5906 0.96628 0.41305 0.0
C1421 C 0.60815 0.95357 0.40521 0.0
C1422 C 0.59453 0.9877 0.4209 0.0
C1423 C 0.61591 0.99713 0.41986 0.0
C1424 C 0.63372 0.98316 0.41468 0.0
C1425 C 0.62985 0.96148 0.40767 0.0
C1426 C 0.64511 0.05212 0.4137 0.0
C1427 C 0.62895 0.06395 0.40219 0.0
C1428 C 0.64003 0.03137 0.42254 0.0
C1429 C 0.61901 0.02166 0.41888 0.0
C1430 C 0.60228 0.03489 0.40951 0.0
C1431 C 0.60721 0.05593 0.40142 0.0
H1432 H 0.46039 0.09211 0.9132 0.0
H1433 H 0.44258 0.1571 0.93592 0.0
H1434 H 0.49751 0.09738 0.92812 0.0
H1435 H 0.48014 0.16277 0.95033 0.0
H1436 H 0.54688 0.16739 0.90401 0.0
H1437 H 0.50957 0.16563 0.91875 0.0
H1438 H 0.52724 0.10875 0.95791 0.0
H1439 H 0.56503 0.11108 0.94359 0.0
C1440 C 0.46414 0.10706 0.92244 0.0
C1441 C 0.44887 0.12428 0.92326 0.0
C1442 C 0.48538 0.11009 0.93109 0.0
C1443 C 0.49177 0.13064 0.94009 0.0
C1444 C 0.47559 0.1468 0.94346 0.0
C1445 C 0.45411 0.14353 0.93526 0.0
C1446 C 0.54309 0.15529 0.91668 0.0
C1447 C 0.55859 0.13926 0.92257 0.0
C1448 C 0.52176 0.15433 0.92526 0.0
C1449 C 0.51547 0.1369 0.93932 0.0
C1450 C 0.53173 0.12237 0.94715 0.0
C1451 C 0.55331 0.12371 0.93898 0.0
H1452 H 0.40628 0.94329 0.3986 0.0
H1453 H 0.33749 0.95 0.41506 0.0
H1454 H 0.41413 0.97947 0.41374 0.0
H1455 H 0.34537 0.9856 0.43252 0.0
H1456 H 0.42588 0.04739 0.41875 0.0
H1457 H 0.41817 0.01062 0.4334 0.0
H1458 H 0.34903 0.01851 0.41613 0.0
H1459 H 0.3567 0.05566 0.40381 0.0
C1460 C 0.39306 0.95216 0.40662 0.0
C1461 C 0.37127 0.94434 0.40526 0.0
C1462 C 0.3975 0.97303 0.41554 0.0
C1463 C 0.38019 0.98624 0.42363 0.0
C1464 C 0.35896 0.97656 0.42543 0.0
C1465 C 0.35441 0.95604 0.41572 0.0
C1466 C 0.40891 0.04145 0.41918 0.0
C1467 C 0.39192 0.05395 0.40974 0.0
C1468 C 0.40447 0.02025 0.42726 0.0
C1469 C 0.38319 0.0108 0.42482 0.0
C1470 C 0.36574 0.02472 0.41822 0.0
C1471 C 0.37008 0.0462 0.41097 0.0
H1472 H 0.1039 0.46915 0.17004 0.0
H1473 H 0.08393 0.45205 0.10361 0.0
H1474 H 0.08459 0.50413 0.16687 0.0
H1475 H 0.06359 0.48657 0.1006 0.0
H1476 H 0.06734 0.57081 0.15627 0.0
H1477 H 0.05656 0.53181 0.15942 0.0
H1478 H 0.08529 0.51936 0.09531 0.0
H1479 H 0.09589 0.55787 0.09246 0.0
C1480 C 0.09425 0.47238 0.15525 0.0
C1481 C 0.09562 0.45832 0.13693 0.0
C1482 C 0.08304 0.4924 0.15339 0.0
C1483 C 0.07307 0.49846 0.13318 0.0
C1484 C 0.07156 0.48263 0.11618 0.0
C1485 C 0.08312 0.46285 0.11789 0.0
C1486 C 0.07016 0.55986 0.1424 0.0
C1487 C 0.08271 0.56705 0.12427 0.0
C1488 C 0.06417 0.53752 0.14427 0.0
C1489 C 0.07055 0.52231 0.12792 0.0
C1490 C 0.08005 0.53045 0.10829 0.0
C1491 C 0.08625 0.5526 0.1066 0.0
H1492 H 0.07973 0.56535 0.91961 0.0
H1493 H 0.09866 0.54468 0.85422 0.0
H1494 H 0.07535 0.52665 0.9306 0.0
H1495 H 0.09342 0.50615 0.86481 0.0
H1496 H 0.09337 0.43847 0.88948 0.0
H1497 H 0.07151 0.4721 0.88476 0.0
H1498 H 0.11539 0.50668 0.92985 0.0
H1499 H 0.13763 0.4735 0.93375 0.0
C1500 C 0.08138 0.55258 0.90716 0.0
C1501 C 0.08967 0.55778 0.88615 0.0
C1502 C 0.07896 0.53046 0.91348 0.0
C1503 C 0.0843 0.5135 0.89862 0.0
C1504 C 0.08905 0.51891 0.87655 0.0
C1505 C 0.09206 0.54096 0.87044 0.0
C1506 C 0.09768 0.45302 0.89912 0.0
C1507 C 0.11716 0.45362 0.91188 0.0
C1508 C 0.08518 0.47218 0.89642 0.0
C1509 C 0.09174 0.49188 0.90699 0.0
C1510 C 0.10977 0.49162 0.92178 0.0
C1511 C 0.1226 0.47271 0.92393 0.0
H1512 H 0.05183 0.59705 0.41341 0.0
H1513 H 0.06594 0.568 0.34995 0.0
H1514 H 0.01343 0.58491 0.41015 0.0
H1515 H 0.02712 0.5565 0.34622 0.0
H1516 H 0.96292 0.60668 0.34091 0.0
H1517 H 0.99976 0.59083 0.3426 0.0
H1518 H 0.98169 0.55484 0.40153 0.0
H1519 H 0.94435 0.57015 0.39925 0.0
C1520 C 0.0469 0.58706 0.39929 0.0
C1521 C 0.06163 0.58351 0.38188 0.0
C1522 C 0.02494 0.58002 0.39742 0.0
C1523 C 0.01731 0.56996 0.37782 0.0
C1524 C 0.03267 0.56415 0.36151 0.0
C1525 C 0.05484 0.57068 0.36367 0.0
C1526 C 0.96649 0.59447 0.35351 0.0
C1527 C 0.95102 0.58966 0.37 0.0
C1528 C 0.98752 0.58528 0.35444 0.0
C1529 C 0.99356 0.5717 0.37229 0.0
C1530 C 0.97734 0.56514 0.38755 0.0
C1531 C 0.95604 0.57388 0.38623 0.0
H1532 H 0.91928 0.56718 0.91238 0.0
H1533 H 0.94207 0.58268 0.84671 0.0
H1534 H 0.93334 0.52985 0.90874 0.0
H1535 H 0.95563 0.5449 0.8427 0.0
H1536 H 0.90717 0.47906 0.84008 0.0
H1537 H 0.92266 0.5163 0.84108 0.0
H1538 H 0.96197 0.4991 0.89826 0.0
H1539 H 0.9469 0.46131 0.89669 0.0
C1540 C 0.92842 0.56291 0.89765 0.0
C1541 C 0.92942 0.57755 0.87974 0.0
C1542 C 0.93657 0.54154 0.89555 0.0
C1543 C 0.94522 0.5344 0.87527 0.0
C1544 C 0.94899 0.55003 0.85847 0.0
C1545 C 0.94128 0.57164 0.86079 0.0
C1546 C 0.91991 0.48294 0.85218 0.0
C1547 C 0.92571 0.46755 0.86844 0.0
C1548 C 0.92896 0.50422 0.85267 0.0
C1549 C 0.94344 0.5106 0.86985 0.0
C1550 C 0.95094 0.49452 0.8848 0.0
C1551 C 0.9423 0.47297 0.88392 0.0
H1552 H 0.05662 0.40453 0.36845 0.0
H1553 H 0.04747 0.41862 0.43765 0.0
H1554 H 0.02009 0.4179 0.36035 0.0
H1555 H 0.01139 0.43435 0.42955 0.0
H1556 H 0.94353 0.40065 0.41626 0.0
H1557 H 0.97973 0.41548 0.42489 0.0
H1558 H 0.98776 0.43501 0.35638 0.0
H1559 H 0.9521 0.41782 0.34772 0.0
C1560 C 0.04712 0.41167 0.38177 0.0
C1561 C 0.05436 0.40992 0.4037 0.0
C1562 C 0.02601 0.41957 0.37718 0.0
C1563 C 0.01198 0.42628 0.39449 0.0
C1564 C 0.02108 0.42814 0.41593 0.0
C1565 C 0.04186 0.4194 0.42062 0.0
C1566 C 0.95283 0.40877 0.40327 0.0
C1567 C 0.94555 0.40765 0.38132 0.0
C1568 C 0.97372 0.41751 0.40815 0.0
C1569 C 0.98747 0.42565 0.39112 0.0
C1570 C 0.97829 0.42783 0.36975 0.0
C1571 C 0.95774 0.41827 0.36476 0.0
H1572 H 0.88315 0.47392 0.16018 0.0
H1573 H 0.90774 0.45141 0.09722 0.0
H1574 H 0.9051 0.50709 0.1574 0.0
H1575 H 0.9307 0.48497 0.09453 0.0
H1576 H 0.91352 0.56077 0.08329 0.0
H1577 H 0.91894 0.52132 0.08635 0.0
H1578 H 0.93682 0.52947 0.15528 0.0
H1579 H 0.92991 0.56908 0.15222 0.0
C1580 C 0.89363 0.47593 0.14583 0.0
C1581 C 0.89308 0.46048 0.12851 0.0
C1582 C 0.90671 0.49487 0.14443 0.0
C1583 C 0.91964 0.49898 0.12559 0.0
C1584 C 0.9207 0.48249 0.10913 0.0
C1585 C 0.90753 0.46332 0.11061 0.0
C1586 C 0.91982 0.55423 0.09875 0.0
C1587 C 0.921 0.56766 0.1176 0.0
C1588 C 0.92299 0.53151 0.10056 0.0
C1589 C 0.92734 0.52204 0.12135 0.0
C1590 C 0.93265 0.53619 0.13921 0.0
C1591 C 0.929 0.55892 0.13747 0.0
H1592 H 0.97543 0.39674 0.58394 0.0
H1593 H 0.94884 0.41714 0.6468 0.0
H1594 H 0.01142 0.4104 0.59473 0.0
H1595 H 0.98502 0.43205 0.65738 0.0
H1596 H 0.04728 0.39174 0.67958 0.0
H1597 H 0.01275 0.4082 0.66907 0.0
H1598 H 0.04182 0.43072 0.60774 0.0
H1599 H 0.07656 0.41314 0.61815 0.0
C1600 C 0.97711 0.40493 0.59982 0.0
C1601 C 0.95963 0.4048 0.615 0.0
C1602 C 0.99784 0.41315 0.60595 0.0
C1603 C 1.00147 0.42146 0.62742 0.0
C1604 C 0.98299 0.42491 0.64106 0.0
C1605 C 0.9622 0.41644 0.63497 0.0
C1606 C 0.0465 0.40066 0.66407 0.0
C1607 C 0.06424 0.40027 0.64922 0.0
C1608 C 0.02667 0.41052 0.65811 0.0
C1609 C 0.02412 0.42016 0.6371 0.0
C1610 C 0.043 0.42276 0.62374 0.0
C1611 C 0.06293 0.41275 0.6297 0.0
H1612 H 0.0421 0.60553 0.66085 0.0
H1613 H 0.05721 0.57046 0.60077 0.0
H1614 H 1.00451 0.59082 0.65974 0.0
H1615 H 0.01909 0.55623 0.59912 0.0
H1616 H 0.93714 0.5721 0.6538 0.0
H1617 H 0.97512 0.55856 0.65618 0.0
H1618 H 0.98874 0.58643 0.59191 0.0
H1619 H 0.95122 0.60046 0.58995 0.0
C1620 C 0.03757 0.59387 0.64794 0.0
C1621 C 0.05231 0.58921 0.63083 0.0
C1622 C 0.0161 0.5853 0.64735 0.0
C1623 C 0.00887 0.57249 0.62924 0.0
C1624 C 0.02432 0.56597 0.61329 0.0
C1625 C 0.04607 0.5741 0.61424 0.0
C1626 C 0.94794 0.57423 0.63971 0.0
C1627 C 0.94153 0.58748 0.6218 0.0
C1628 C 0.96965 0.56653 0.64109 0.0
C1629 C 0.98489 0.57166 0.62434 0.0
C1630 C 0.97734 0.58208 0.605 0.0
C1631 C 0.95588 0.59022 0.60388 0.0
H1632 H 0.95129 0.09202 0.37597 0.0
H1633 H 0.96054 0.16139 0.36234 0.0
H1634 H 0.99148 0.0866 0.37266 0.0
H1635 H 0.99999 0.1564 0.35958 0.0
H1636 H 0.07063 0.1488 0.35299 0.0
H1637 H 0.03176 0.14407 0.34265 0.0
H1638 H 0.0243 0.09431 0.39333 0.0
H1639 H 0.06337 0.09845 0.40269 0.0
C1640 C 0.96177 0.10595 0.37162 0.0
C1641 C 0.95261 0.12712 0.36931 0.0
C1642 C 0.98491 0.10297 0.37001 0.0
C1643 C 0.99941 0.12105 0.36589 0.0
C1644 C 0.98979 0.14186 0.36236 0.0
C1645 C 0.96694 0.1448 0.36408 0.0
C1646 C 0.061 0.13591 0.36096 0.0
C1647 C 0.07036 0.12363 0.37829 0.0
C1648 C 0.03844 0.13354 0.35546 0.0
C1649 C 0.02435 0.11922 0.36754 0.0
C1650 C 0.03429 0.10545 0.38346 0.0
C1651 C 0.05693 0.10765 0.38874 0.0
H1652 H 0.36119 0.43968 0.86336 0.0
H1653 H 0.42758 0.44861 0.88803 0.0
H1654 H 0.35888 0.47944 0.85615 0.0
H1655 H 0.42553 0.48832 0.88052 0.0
H1656 H 0.41666 0.56099 0.85987 0.0
H1657 H 0.42035 0.52087 0.85392 0.0
H1658 H 0.3567 0.51007 0.88414 0.0
H1659 H 0.35341 0.54976 0.89047 0.0
C1660 C 0.37578 0.44992 0.86604 0.0
C1661 C 0.39482 0.44072 0.87565 0.0
C1662 C 0.37431 0.47286 0.8623 0.0
C1663 C 0.39194 0.48731 0.86791 0.0
C1664 C 0.41168 0.47783 0.87576 0.0
C1665 C 0.41298 0.45494 0.87984 0.0
C1666 C 0.40318 0.55007 0.86455 0.0
C1667 C 0.38455 0.55865 0.8753 0.0
C1668 C 0.40539 0.52702 0.86139 0.0
C1669 C 0.3888 0.51205 0.86847 0.0
C1670 C 0.3697 0.52092 0.87814 0.0
C1671 C 0.36777 0.54377 0.88175 0.0
H1672 H 0.0514 0.92125 0.38005 0.0
H1673 H 0.04294 0.85308 0.36086 0.0
H1674 H 0.01111 0.92634 0.3773 0.0
H1675 H 1.00335 0.85768 0.35865 0.0
H1676 H 0.93214 0.86482 0.35391 0.0
H1677 H 0.97077 0.87055 0.3435 0.0
H1678 H 0.97905 0.9167 0.39757 0.0
H1679 H 0.94024 0.91159 0.40705 0.0
C1680 C 0.04106 0.90758 0.37452 0.0
C1681 C 0.05048 0.88682 0.37045 0.0
C1682 C 0.01785 0.91033 0.37326 0.0
C1683 C 1.00352 0.89241 0.36783 0.0
C1684 C 0.01338 0.87211 0.3625 0.0
C1685 C 0.03632 0.8694 0.36385 0.0
C1686 C 0.94189 0.87717 0.3627 0.0
C1687 C 0.93284 0.88816 0.38096 0.0
C1688 C 0.96433 0.88009 0.35713 0.0
C1689 C 0.97859 0.8937 0.37 0.0
C1690 C 0.96892 0.90618 0.38704 0.0
C1691 C 0.94644 0.90342 0.39242 0.0
H1692 H 0.64277 0.44968 0.84656 0.0
H1693 H 0.60448 0.45651 0.90604 0.0
H1694 H 0.63947 0.48984 0.8399 0.0
H1695 H 0.60105 0.49585 0.89953 0.0
H1696 H 0.587 0.56402 0.88367 0.0
H1697 H 0.58503 0.5243 0.87659 0.0
H1698 H 0.65374 0.52504 0.85778 0.0
H1699 H 0.65541 0.56497 0.86452 0.0
C1700 C 0.63321 0.4596 0.85788 0.0
C1701 C 0.6238 0.44982 0.87679 0.0
C1702 C 0.63146 0.48265 0.8542 0.0
C1703 C 0.61983 0.49629 0.86908 0.0
C1704 C 0.60977 0.4861 0.88741 0.0
C1705 C 0.61186 0.46341 0.89124 0.0
C1706 C 0.6013 0.55596 0.87674 0.0
C1707 C 0.62119 0.56789 0.87413 0.0
C1708 C 0.60035 0.53301 0.87312 0.0
C1709 C 0.61936 0.52117 0.86704 0.0
C1710 C 0.6387 0.53345 0.86232 0.0
C1711 C 0.63962 0.55649 0.86593 0.0
H1712 H 0.94734 0.86097 0.64347 0.0
H1713 H 0.94842 0.9287 0.62174 0.0
H1714 H 0.98746 0.86247 0.64934 0.0
H1715 H 0.98832 0.93051 0.62799 0.0
H1716 H 0.05528 0.91011 0.59828 0.0
H1717 H 0.01608 0.91357 0.60517 0.0
H1718 H 0.0233 0.87705 0.66605 0.0
H1719 H 0.06337 0.87367 0.65898 0.0
C1720 C 0.95593 0.87662 0.64128 0.0
C1721 C 0.94448 0.89489 0.63263 0.0
C1722 C 0.97907 0.87742 0.64439 0.0
C1723 C 0.99141 0.89648 0.63873 0.0
C1724 C 0.97957 0.91539 0.63217 0.0
C1725 C 0.95653 0.91454 0.62902 0.0
C1726 C 0.04869 0.90309 0.61339 0.0
C1727 C 0.06262 0.89166 0.62808 0.0
C1728 C 0.02607 0.90523 0.61745 0.0
C1729 C 0.01624 0.89576 0.63629 0.0
C1730 C 0.0302 0.88459 0.65136 0.0
C1731 C 0.0532 0.88278 0.64743 0.0
H1732 H 0.58633 0.45186 0.13178 0.0
H1733 H 0.65595 0.46002 0.14539 0.0
H1734 H 0.58166 0.4922 0.13486 0.0
H1735 H 0.65165 0.49961 0.14804 0.0
H1736 H 0.64497 0.57036 0.15535 0.0
H1737 H 0.63955 0.53159 0.16541 0.0
H1738 H 0.59029 0.52473 0.11379 0.0
H1739 H 0.59519 0.56372 0.1046 0.0
C1740 C 0.60048 0.46214 0.13609 0.0
C1741 C 0.62149 0.45262 0.13848 0.0
C1742 C 0.59792 0.48535 0.13757 0.0
C1743 C 0.61627 0.49956 0.14169 0.0
C1744 C 0.63694 0.48962 0.14527 0.0
C1745 C 0.63947 0.4667 0.14362 0.0
C1746 C 0.63203 0.56091 0.14709 0.0
C1747 C 0.62012 0.57041 0.12955 0.0
C1748 C 0.62926 0.5384 0.15245 0.0
C1749 C 0.61486 0.52451 0.14006 0.0
C1750 C 0.60145 0.5346 0.12389 0.0
C1751 C 0.60409 0.55718 0.11872 0.0
H1752 H 0.94811 0.0941 0.6496 0.0
H1753 H 0.95853 0.15758 0.61899 0.0
H1754 H 0.98827 0.091 0.65595 0.0
H1755 H 0.99825 0.15488 0.62574 0.0
H1756 H 0.06848 0.15163 0.64734 0.0
H1757 H 0.02868 0.15306 0.6543 0.0
H1758 H 0.0212 0.0865 0.62958 0.0
H1759 H 0.06096 0.08534 0.6223 0.0
C1760 C 0.95885 0.10776 0.645 0.0
C1761 C 0.95002 0.12628 0.63414 0.0
C1762 C 0.98192 0.10588 0.6484 0.0
C1763 C 0.99669 0.12272 0.64145 0.0
C1764 C 0.98756 0.1417 0.63165 0.0
C1765 C 0.96469 0.1433 0.62779 0.0
C1766 C 0.05857 0.13684 0.64459 0.0
C1767 C 0.06819 0.11811 0.63489 0.0
C1768 C 0.03559 0.13781 0.64815 0.0
C1769 C 0.02149 0.11998 0.64231 0.0
C1770 C 0.0314 0.1005 0.6345 0.0
C1771 C 0.05435 0.0997 0.63059 0.0
H1772 H 0.35237 0.5546 0.14911 0.0
H1773 H 0.42051 0.5613 0.12978 0.0
H1774 H 0.3563 0.51494 0.1521 0.0
H1775 H 0.4249 0.521 0.13321 0.0
H1776 H 0.40839 0.44936 0.10502 0.0
H1777 H 0.41429 0.48844 0.11343 0.0
H1778 H 0.36912 0.48272 0.16824 0.0
H1779 H 0.36262 0.44388 0.15897 0.0
C1780 C 0.36855 0.5476 0.14635 0.0
C1781 C 0.38619 0.56128 0.13956 0.0
C1782 C 0.37087 0.52464 0.14809 0.0
C1783 C 0.39096 0.51427 0.1429 0.0
C1784 C 0.40907 0.52813 0.13719 0.0
C1785 C 0.40673 0.55135 0.13557 0.0
C1786 C 0.40065 0.45618 0.11961 0.0
C1787 C 0.38542 0.44322 0.13163 0.0
C1788 C 0.40384 0.47882 0.12434 0.0
C1789 C 0.39184 0.48926 0.14128 0.0
C1790 C 0.3783 0.47566 0.15469 0.0
C1791 C 0.37494 0.45311 0.14976 0.0
H1792 H 0.34931 0.0546 0.15253 0.0
H1793 H 0.38941 0.06056 0.09424 0.0
H1794 H 0.34303 0.01542 0.14466 0.0
H1795 H 0.38332 0.02123 0.08626 0.0
H1796 H 0.40126 0.9485 0.10837 0.0
H1797 H 0.3983 0.9886 0.10511 0.0
H1798 H 0.32916 0.98411 0.122 0.0
H1799 H 0.33228 0.9437 0.12503 0.0
C1800 C 0.35575 0.04783 0.1373 0.0
C1801 C 0.36937 0.06101 0.12372 0.0
C1802 C 0.35237 0.02517 0.13288 0.0
C1803 C 0.3629 0.01483 0.11495 0.0
C1804 C 0.3751 0.02843 0.10037 0.0
C1805 C 0.37821 0.05119 0.10465 0.0
C1806 C 0.38521 0.95599 0.11051 0.0
C1807 C 0.36689 0.94279 0.11638 0.0
C1808 C 0.38349 0.97909 0.10871 0.0
C1809 C 0.36346 0.98988 0.11326 0.0
C1810 C 0.34487 0.97653 0.11839 0.0
C1811 C 0.34655 0.95329 0.11984 0.0
H1812 H 0.4531 0.91749 0.59986 0.0
H1813 H 0.44384 0.85735 0.63703 0.0
H1814 H 0.4923 0.91035 0.59695 0.0
H1815 H 0.48388 0.85003 0.63422 0.0
H1816 H 0.55973 0.87234 0.65094 0.0
H1817 H 0.51957 0.86678 0.64904 0.0
H1818 H 0.52009 0.88707 0.58066 0.0
H1819 H 0.56004 0.89301 0.58286 0.0
C1820 C 0.45942 0.90245 0.60715 0.0
C1821 C 0.44518 0.88799 0.61862 0.0
C1822 C 0.48204 0.89824 0.60534 0.0
C1823 C 0.49152 0.87949 0.61518 0.0
C1824 C 0.47725 0.86465 0.62639 0.0
C1825 C 0.45426 0.86872 0.62787 0.0
C1826 C 0.55143 0.87436 0.63516 0.0
C1827 C 0.56327 0.88263 0.61689 0.0
C1828 C 0.52826 0.87142 0.63412 0.0
C1829 C 0.51632 0.87689 0.61482 0.0
C1830 C 0.52854 0.88305 0.59595 0.0
C1831 C 0.5516 0.88603 0.59703 0.0
H1832 H 0.64913 0.06245 0.15977 0.0
H1833 H 0.64174 0.07084 0.08935 0.0
H1834 H 0.65307 0.02298 0.15498 0.0
H1835 H 0.64582 0.03056 0.0843 0.0
H1836 H 0.61656 0.95707 0.09633 0.0
H1837 H 0.62416 0.9966 0.09192 0.0
H1838 H 0.67456 0.99284 0.14257 0.0
H1839 H 0.66631 0.95354 0.14733 0.0
C1840 C 0.64885 0.05587 0.1431 0.0
C1841 C 0.6452 0.06996 0.12497 0.0
C1842 C 0.65127 0.03305 0.1403 0.0
C1843 C 0.64992 0.02323 0.11921 0.0
C1844 C 0.64694 0.0374 0.10083 0.0
C1845 C 0.64481 0.06054 0.10366 0.0
C1846 C 0.63018 0.96442 0.10558 0.0
C1847 C 0.64114 0.95191 0.12187 0.0
C1848 C 0.63437 0.98728 0.10326 0.0
C1849 C 0.64963 0.99829 0.11725 0.0
C1850 C 0.6623 0.9852 0.13181 0.0
C1851 C 0.65798 0.96244 0.13421 0.0
H1852 H 0.57129 0.14051 0.59501 0.0
H1853 H 0.56019 0.10743 0.65706 0.0
H1854 H 0.53123 0.14695 0.5914 0.0
H1855 H 0.5206 0.1142 0.65386 0.0
H1856 H 0.45052 0.13463 0.64988 0.0
H1857 H 0.49033 0.14219 0.6526 0.0
H1858 H 0.49832 0.12094 0.58505 0.0
H1859 H 0.45863 0.1131 0.58257 0.0
C1860 C 0.56041 0.13533 0.60824 0.0
C1861 C 0.56898 0.12373 0.62648 0.0
C1862 C 0.53741 0.13881 0.60609 0.0
C1863 C 0.5225 0.13118 0.62238 0.0
C1864 C 0.53141 0.12064 0.64113 0.0
C1865 C 0.55419 0.11673 0.64298 0.0
C1866 C 0.46056 0.13277 0.63522 0.0
C1867 C 0.45117 0.12378 0.61581 0.0
C1868 C 0.48353 0.13669 0.63691 0.0
C1869 C 0.49775 0.13195 0.61913 0.0
C1870 C 0.48802 0.12498 0.59904 0.0
C1871 C 0.46513 0.12071 0.59751 0.0
H1872 H 0.39742 0.05535 0.92432 0.0
H1873 H 0.37829 0.05486 0.85566 0.0
H1874 H 0.39088 0.01551 0.92634 0.0
H1875 H 0.37211 0.01479 0.8574 0.0
H1876 H 0.36166 0.93924 0.86899 0.0
H1877 H 0.35466 0.97935 0.87171 0.0
H1878 H 0.41423 0.98736 0.91071 0.0
H1879 H 0.42109 0.94807 0.90786 0.0
C1880 C 0.39062 0.04692 0.90995 0.0
C1881 C 0.38787 0.05851 0.88999 0.0
C1882 C 0.38731 0.02391 0.91094 0.0
C1883 C 0.38142 0.01164 0.8919 0.0
C1884 C 0.37653 0.02353 0.87246 0.0
C1885 C 0.37981 0.04665 0.87151 0.0
C1886 C 0.37292 0.94959 0.87852 0.0
C1887 C 0.3919 0.94036 0.88828 0.0
C1888 C 0.36903 0.97261 0.87994 0.0
C1889 C 0.38377 0.9868 0.89159 0.0
C1890 C 0.40221 0.97718 0.90195 0.0
C1891 C 0.40625 0.95451 0.90019 0.0
H1892 H 0.55126 0.88796 0.41269 0.0
H1893 H 0.54316 0.84529 0.35615 0.0
H1894 H 0.51194 0.8833 0.42129 0.0
H1895 H 0.50399 0.84037 0.36473 0.0
H1896 H 0.43222 0.83283 0.38606 0.0
H1897 H 0.47259 0.82852 0.38893 0.0
H1898 H 0.47974 0.89855 0.40117 0.0
H1899 H 0.43976 0.9027 0.39796 0.0
C1900 C 0.54141 0.87652 0.40285 0.0
C1901 C 0.55062 0.86657 0.38402 0.0
C1902 C 0.51867 0.8742 0.40749 0.0
C1903 C 0.50451 0.86167 0.39356 0.0
C1904 C 0.51422 0.85001 0.37599 0.0
C1905 C 0.53685 0.85261 0.37118 0.0
C1906 C 0.4424 0.8471 0.39016 0.0
C1907 C 0.43271 0.86804 0.39224 0.0
C1908 C 0.4656 0.84472 0.39154 0.0
C1909 C 0.47965 0.86317 0.39534 0.0
C1910 C 0.46966 0.88386 0.3986 0.0
C1911 C 0.44664 0.88627 0.3968 0.0
H1912 H 0.59558 0.05949 0.90998 0.0
H1913 H 0.65529 0.0684 0.87227 0.0
H1914 H 0.60253 0.02024 0.91299 0.0
H1915 H 0.66239 0.02832 0.87517 0.0
H1916 H 0.63935 0.95266 0.85882 0.0
H1917 H 0.64526 0.99277 0.8606 0.0
H1918 H 0.62577 0.99222 0.92913 0.0
H1919 H 0.61949 0.95233 0.92705 0.0
C1920 C 0.6105 0.05308 0.9026 0.0
C1921 C 0.62489 0.06724 0.89095 0.0
C1922 C 0.61458 0.03043 0.90446 0.0
C1923 C 0.63314 0.02084 0.89448 0.0
C1924 C 0.64793 0.03503 0.88311 0.0
C1925 C 0.64398 0.05804 0.88157 0.0
C1926 C 0.63759 0.96094 0.87461 0.0
C1927 C 0.62944 0.9491 0.89295 0.0
C1928 C 0.64072 0.98407 0.87558 0.0
C1929 C 0.63557 0.99601 0.89489 0.0
C1930 C 0.62955 0.98378 0.91382 0.0
C1931 C 0.62638 0.96074 0.91281 0.0
H1932 H 0.45909 0.15892 0.35663 0.0
H1933 H 0.45321 0.1192 0.41534 0.0
H1934 H 0.49822 0.1654 0.36464 0.0
H1935 H 0.4925 0.12555 0.42353 0.0
H1936 H 0.56534 0.10779 0.40242 0.0
H1937 H 0.52523 0.11067 0.40551 0.0
H1938 H 0.52943 0.17946 0.38687 0.0
H1939 H 0.56982 0.17638 0.38391 0.0
C1940 C 0.46587 0.15262 0.37197 0.0
C1941 C 0.45273 0.13903 0.38563 0.0
C1942 C 0.4885 0.15611 0.37649 0.0
C1943 C 0.49886 0.14576 0.39461 0.0
C1944 C 0.48529 0.13361 0.40926 0.0
C1945 C 0.46256 0.13035 0.40486 0.0
C1946 C 0.55777 0.12376 0.39986 0.0
C1947 C 0.57087 0.14199 0.3935 0.0
C1948 C 0.53467 0.12544 0.40157 0.0
C1949 C 0.5238 0.14532 0.39646 0.0
C1950 C 0.53706 0.16384 0.39089 0.0
C1951 C 0.56029 0.1622 0.38948 0.0
H1952 H 0.09042 0.37772 0.96331 0.0
H1953 H 0.15868 0.36007 0.97246 0.0
H1954 H 0.08452 0.37412 1.00345 0.0
H1955 H 0.15326 0.357 0.01189 0.0
H1956 H 0.14499 0.35038 0.08248 0.0
H1957 H 0.13971 0.34056 0.0436 0.0
H1958 H 0.09339 0.39398 0.03633 0.0
H1959 H 0.098 0.40284 0.07542 0.0
C1960 C 0.10395 0.37238 0.97375 0.0
C1961 C 0.12498 0.36901 0.9646 0.0
C1962 C 0.10072 0.37061 0.99687 0.0
C1963 C 0.1184 0.3653 0.01135 0.0
C1964 C 0.139 0.36071 1.00171 0.0
C1965 C 0.14219 0.36258 0.97888 0.0
C1966 C 0.13266 0.35911 0.0729 0.0
C1967 C 0.12152 0.37704 0.08231 0.0
C1968 C 0.13001 0.35389 0.05032 0.0
C1969 C 0.11656 0.36684 0.03629 0.0
C1970 C 0.10382 0.38344 0.04629 0.0
C1971 C 0.10628 0.38844 0.06893 0.0
H1972 H 0.09432 0.64761 0.94153 0.0
H1973 H 0.15766 0.61806 0.954 0.0
H1974 H 0.08974 0.6538 0.98153 0.0
H1975 H 0.15348 0.62465 0.99359 0.0
H1976 H 0.14712 0.64505 0.06382 0.0
H1977 H 0.15016 0.65278 0.02418 0.0
H1978 H 0.08417 0.62695 0.01389 0.0
H1979 H 0.08141 0.61891 0.05344 0.0
C1980 C 0.10763 0.64323 0.9527 0.0
C1981 C 0.12654 0.63268 0.9445 0.0
C1982 C 0.10492 0.64654 0.97567 0.0
C1983 C 0.12126 0.6398 0.99096 0.0
C1984 C 0.14066 0.63038 0.98248 0.0
C1985 C 0.1431 0.62662 0.9597 0.0
C1986 C 0.13279 0.64221 0.05332 0.0
C1987 C 0.11378 0.63191 0.06204 0.0
C1988 C 0.13469 0.64622 0.03044 0.0
C1989 C 0.11751 0.64029 0.01562 0.0
C1990 C 0.09769 0.63195 0.02467 0.0
C1991 C 0.09598 0.62757 0.04748 0.0
H1992 H 0.91523 0.60534 0.44904 0.0
H1993 H 0.85505 0.64194 0.44011 0.0
H1994 H 0.90827 0.60242 0.48835 0.0
H1995 H 0.84798 0.63918 0.48027 0.0
H1996 H 0.87065 0.65577 0.55612 0.0
H1997 H 0.86514 0.65411 0.51595 0.0
H1998 H 0.88474 0.58575 0.51635 0.0
H1999 H 0.89048 0.58766 0.55632 0.0
C2000 C 0.90024 0.61254 0.45546 0.0
C2001 C 0.88569 0.62382 0.44124 0.0
C2002 C 0.89614 0.61073 0.47815 0.0
C2003 C 0.87744 0.6204 0.48777 0.0
C2004 C 0.86255 0.63148 0.47355 0.0
C2005 C 0.86649 0.63293 0.45049 0.0
C2006 C 0.8725 0.64002 0.5478 0.0
C2007 C 0.88045 0.62167 0.55966 0.0
C2008 C 0.86961 0.63914 0.52462 0.0
C2009 C 0.87488 0.61991 0.51263 0.0
C2010 C 0.88083 0.60098 0.52483 0.0
C2011 C 0.88368 0.60189 0.54793 0.0
H2012 H 0.9081 0.37051 0.93654 0.0
H2013 H 0.86552 0.42627 0.94721 0.0
H2014 H 0.90744 0.36269 0.97681 0.0
H2015 H 0.86478 0.41851 0.98648 0.0
H2016 H 0.8442 0.38595 0.04866 0.0
H2017 H 0.84855 0.38612 0.00889 0.0
H2018 H 0.91942 0.38464 0.01668 0.0
H2019 H 0.91503 0.38443 0.05742 0.0
C2020 C 0.89844 0.3809 0.94732 0.0
C2021 C 0.88676 0.39897 0.9385 0.0
C2022 C 0.89828 0.3766 0.9704 0.0
C2023 C 0.88606 0.39 0.98497 0.0
C2024 C 0.87428 0.40775 0.9759 0.0
C2025 C 0.87472 0.4122 0.95323 0.0
C2026 C 0.86082 0.38537 0.04211 0.0
C2027 C 0.87927 0.3855 0.05646 0.0
C2028 C 0.86328 0.38543 0.01915 0.0
C2029 C 0.88431 0.38568 0.00943 0.0
C2030 C 0.90295 0.38439 0.0236 0.0
C2031 C 0.90045 0.38429 0.04694 0.0
H2032 H 0.14625 0.35106 0.5755 0.0
H2033 H 0.13996 0.42148 0.58382 0.0
H2034 H 0.15008 0.35568 0.53596 0.0
H2035 H 0.14391 0.42636 0.54346 0.0
H2036 H 0.11429 0.41397 0.47016 0.0
H2037 H 0.12197 0.41848 0.50966 0.0
H2038 H 0.17172 0.36801 0.5056 0.0
H2039 H 0.16342 0.3632 0.46631 0.0
C2040 C 0.14618 0.3677 0.56887 0.0
C2041 C 0.1429 0.38588 0.58297 0.0
C2042 C 0.14854 0.3704 0.54602 0.0
C2043 C 0.14747 0.39143 0.53616 0.0
C2044 C 0.14482 0.40987 0.55033 0.0
C2045 C 0.14276 0.40714 0.57352 0.0
C2046 C 0.12778 0.40478 0.47743 0.0
C2047 C 0.13858 0.38857 0.46482 0.0
C2048 C 0.13203 0.40716 0.50027 0.0
C2049 C 0.14714 0.39327 0.5112 0.0
C2050 C 0.1596 0.37872 0.49803 0.0
C2051 C 0.15524 0.37628 0.47527 0.0
H2052 H 0.92638 0.62746 0.95137 0.0
H2053 H 0.86062 0.65172 0.94008 0.0
H2054 H 0.9236 0.63673 0.99055 0.0
H2055 H 0.85763 0.66098 0.97942 0.0
H2056 H 0.84949 0.62955 0.05068 0.0
H2057 H 0.85339 0.63587 0.01107 0.0
H2058 H 0.91906 0.66244 0.02212 0.0
H2059 H 0.91485 0.65622 0.0621 0.0
C2060 C 0.91177 0.63596 0.95704 0.0
C2061 C 0.89395 0.63933 0.94236 0.0
C2062 C 0.91006 0.64109 0.97966 0.0
C2063 C 0.89026 0.64937 0.98844 0.0
C2064 C 0.87307 0.65442 0.97341 0.0
C2065 C 0.87493 0.64955 0.95069 0.0
C2066 C 0.86441 0.63762 0.04476 0.0
C2067 C 0.88164 0.64284 0.05966 0.0
C2068 C 0.86671 0.64121 0.02194 0.0
C2069 C 0.88658 0.64966 0.01313 0.0
C2070 C 0.90352 0.65586 0.02818 0.0
C2071 C 0.90102 0.6526 0.05117 0.0
H2072 H 0.90236 0.40478 0.44625 0.0
H2073 H 0.83398 0.38475 0.44165 0.0
H2074 H 0.89955 0.40688 0.48643 0.0
H2075 H 0.83095 0.38676 0.48213 0.0
H2076 H 0.89144 0.41355 0.55894 0.0
H2077 H 0.88472 0.42322 0.52013 0.0
H2078 H 0.84548 0.36372 0.512 0.0
H2079 H 0.85229 0.35425 0.55061 0.0
C2080 C 0.88643 0.40172 0.45383 0.0
C2081 C 0.86826 0.39515 0.44069 0.0
C2082 C 0.88479 0.40285 0.47697 0.0
C2083 C 0.86501 0.39696 0.4878 0.0
C2084 C 0.84649 0.39135 0.47451 0.0
C2085 C 0.8481 0.39049 0.45125 0.0
C2086 C 0.88039 0.4032 0.54918 0.0
C2087 C 0.872 0.38337 0.5581 0.0
C2088 C 0.87688 0.40848 0.52673 0.0
C2089 C 0.86476 0.39414 0.51262 0.0
C2090 C 0.85472 0.37535 0.52217 0.0
C2091 C 0.85845 0.36997 0.54449 0.0
H2092 H 0.13882 0.59496 0.56557 0.0
H2093 H 0.10861 0.65823 0.55474 0.0
H2094 H 0.14492 0.59128 0.52545 0.0
H2095 H 0.11513 0.65496 0.51507 0.0
H2096 H 0.13699 0.65071 0.44509 0.0
H2097 H 0.14389 0.6527 0.48501 0.0
H2098 H 0.1181 0.5864 0.49238 0.0
H2099 H 0.11089 0.58468 0.4525 0.0
C2100 C 0.13423 0.60843 0.55473 0.0
C2101 C 0.12356 0.62707 0.56341 0.0
C2102 C 0.1375 0.60623 0.5317 0.0
C2103 C 0.13061 0.62285 0.51686 0.0
C2104 C 0.12097 0.64194 0.52584 0.0
C2105 C 0.11724 0.64386 0.54866 0.0
C2106 C 0.13393 0.63612 0.45505 0.0
C2107 C 0.124 0.61728 0.44539 0.0
C2108 C 0.13749 0.6374 0.47806 0.0
C2109 C 0.13138 0.61979 0.49211 0.0
C2110 C 0.12324 0.60022 0.48219 0.0
C2111 C 0.11933 0.59911 0.45921 0.0
H2112 H 0.32238 0.13624 0.41737 0.0
H2113 H 0.31293 0.10542 0.35363 0.0
H2114 H 0.28216 0.13726 0.42215 0.0
H2115 H 0.27323 0.10729 0.35773 0.0
H2116 H 0.20098 0.09689 0.37619 0.0
H2117 H 0.24126 0.09381 0.37341 0.0
H2118 H 0.24921 0.15337 0.41235 0.0
H2119 H 0.20948 0.15568 0.41588 0.0
C2120 C 0.31177 0.12989 0.40429 0.0
C2121 C 0.32109 0.12071 0.38517 0.0
C2122 C 0.28856 0.13053 0.40692 0.0
C2123 C 0.27394 0.12226 0.39036 0.0
C2124 C 0.2835 0.11335 0.37119 0.0
C2125 C 0.30653 0.11248 0.36874 0.0
C2126 C 0.21138 0.10924 0.38418 0.0
C2127 C 0.20178 0.12647 0.39629 0.0
C2128 C 0.23462 0.10761 0.38252 0.0
C2129 C 0.24899 0.12335 0.39267 0.0
C2130 C 0.23916 0.14057 0.40466 0.0
C2131 C 0.2161 0.14201 0.40652 0.0
H2132 H 0.42255 0.69657 0.91392 0.0
H2133 H 0.36716 0.68974 0.86926 0.0
H2134 H 0.42351 0.73633 0.90753 0.0
H2135 H 0.36794 0.72991 0.8628 0.0
H2136 H 0.39354 0.80314 0.84557 0.0
H2137 H 0.38858 0.76296 0.84838 0.0
H2138 H 0.40035 0.76704 0.91873 0.0
H2139 H 0.4054 0.8071 0.91572 0.0
C2140 C 0.41108 0.7035 0.90203 0.0
C2141 C 0.39513 0.68981 0.89172 0.0
C2142 C 0.41127 0.72645 0.89874 0.0
C2143 C 0.3954 0.73662 0.88511 0.0
C2144 C 0.38037 0.72277 0.87349 0.0
C2145 C 0.38015 0.69964 0.87688 0.0
C2146 C 0.39394 0.79555 0.86179 0.0
C2147 C 0.39917 0.80849 0.88054 0.0
C2148 C 0.39141 0.77241 0.86337 0.0
C2149 C 0.39452 0.76151 0.8837 0.0
C2150 C 0.39827 0.77469 0.90268 0.0
C2151 C 0.40063 0.7978 0.9011 0.0
H2152 H 0.68178 0.85771 0.40509 0.0
H2153 H 0.68853 0.91937 0.36995 0.0
H2154 H 0.72211 0.85583 0.40865 0.0
H2155 H 0.72839 0.91815 0.37421 0.0
H2156 H 0.80142 0.90067 0.36569 0.0
H2157 H 0.76108 0.90268 0.36242 0.0
H2158 H 0.75445 0.86873 0.42493 0.0
H2159 H 0.79434 0.86598 0.42754 0.0
C2160 C 0.69181 0.87106 0.39847 0.0
C2161 C 0.68175 0.88864 0.38721 0.0
C2162 C 0.71508 0.87007 0.40051 0.0
C2163 C 0.729 0.88678 0.39157 0.0
C2164 C 0.71868 0.90461 0.38086 0.0
C2165 C 0.69558 0.90543 0.37862 0.0
C2166 C 0.79131 0.89377 0.37875 0.0
C2167 C 0.8013 0.88313 0.39682 0.0
C2168 C 0.76803 0.89495 0.37698 0.0
C2169 C 0.75402 0.88575 0.39337 0.0
C2170 C 0.76425 0.87557 0.41163 0.0
C2171 C 0.78736 0.87419 0.41324 0.0
H2172 H 0.60204 0.2048 0.91657 0.0
H2173 H 0.6315 0.20012 0.85213 0.0
H2174 H 0.60799 0.24477 0.91645 0.0
H2175 H 0.63746 0.24039 0.85179 0.0
H2176 H 0.65829 0.3144 0.87268 0.0
H2177 H 0.6559 0.27403 0.86867 0.0
H2178 H 0.59028 0.27484 0.89629 0.0
H2179 H 0.59289 0.31495 0.90034 0.0
C2180 C 0.61073 0.21223 0.90278 0.0
C2181 C 0.61692 0.19911 0.88469 0.0
C2182 C 0.61366 0.23527 0.90243 0.0
C2183 C 0.62273 0.24605 0.88386 0.0
C2184 C 0.63041 0.23277 0.86637 0.0
C2185 C 0.62734 0.2096 0.8667 0.0
C2186 C 0.64293 0.30604 0.87678 0.0
C2187 C 0.62549 0.31805 0.88618 0.0
C2188 C 0.64168 0.2828 0.87484 0.0
C2189 C 0.62311 0.27096 0.88265 0.0
C2190 C 0.60508 0.28322 0.89056 0.0
C2191 C 0.60631 0.30635 0.89237 0.0
H2192 H 0.31016 0.88548 0.65948 0.0
H2193 H 0.30998 0.90678 0.59158 0.0
H2194 H 0.26982 0.8805 0.658 0.0
H2195 H 0.26985 0.90184 0.58993 0.0
H2196 H 0.19987 0.92226 0.60101 0.0
H2197 H 0.23984 0.92328 0.60654 0.0
H2198 H 0.23619 0.86105 0.64124 0.0
H2199 H 0.19587 0.8602 0.63562 0.0
C2200 C 0.30164 0.88798 0.64389 0.0
C2201 C 0.31343 0.89583 0.62541 0.0
C2202 C 0.27843 0.88547 0.64313 0.0
C2203 C 0.26638 0.89123 0.624 0.0
C2204 C 0.27842 0.89766 0.60512 0.0
C2205 C 0.30155 0.89998 0.60585 0.0
C2206 C 0.20745 0.9093 0.61071 0.0
C2207 C 0.19451 0.89148 0.61841 0.0
C2208 C 0.2305 0.90958 0.61343 0.0
C2209 C 0.24147 0.89195 0.62385 0.0
C2210 C 0.2284 0.87489 0.63308 0.0
C2211 C 0.2052 0.87457 0.63021 0.0
H2212 H 0.65492 0.70906 0.0933 0.0
H2213 H 0.59456 0.70104 0.13021 0.0
H2214 H 0.65242 0.74883 0.09644 0.0
H2215 H 0.59135 0.74134 0.13257 0.0
H2216 H 0.60298 0.81307 0.15303 0.0
H2217 H 0.60455 0.77336 0.14891 0.0
H2218 H 0.63644 0.78164 0.08562 0.0
H2219 H 0.63569 0.82189 0.09042 0.0
C2220 C 0.64088 0.71579 0.10195 0.0
C2221 C 0.62494 0.70161 0.11154 0.0
C2222 C 0.63933 0.73886 0.10358 0.0
C2223 C 0.62163 0.74882 0.11468 0.0
C2224 C 0.6055 0.73459 0.12416 0.0
C2225 C 0.60721 0.71134 0.12273 0.0
C2226 C 0.61036 0.80654 0.13815 0.0
C2227 C 0.61924 0.82092 0.12206 0.0
C2228 C 0.61107 0.7835 0.13568 0.0
C2229 C 0.62049 0.77377 0.11686 0.0
C2230 C 0.6293 0.7882 0.10059 0.0
C2231 C 0.6288 0.81142 0.10322 0.0
H2232 H 0.81945 0.14031 0.637 0.0
H2233 H 0.81256 0.08205 0.59647 0.0
H2234 H 0.77925 0.14044 0.64276 0.0
H2235 H 0.77273 0.08186 0.60232 0.0
H2236 H 0.70227 0.09987 0.59137 0.0
H2237 H 0.74244 0.10372 0.58885 0.0
H2238 H 0.74556 0.12251 0.65769 0.0
H2239 H 0.70522 0.11889 0.65993 0.0
C2240 C 0.80951 0.1269 0.63024 0.0
C2241 C 0.81937 0.11087 0.61668 0.0
C2242 C 0.78635 0.12717 0.6332 0.0
C2243 C 0.77245 0.11153 0.62249 0.0
C2244 C 0.78263 0.0946 0.61032 0.0
C2245 C 0.80563 0.09435 0.6074 0.0
C2246 C 0.71142 0.1059 0.60565 0.0
C2247 C 0.70038 0.1098 0.62563 0.0
C2248 C 0.73459 0.10756 0.60442 0.0
C2249 C 0.74754 0.11293 0.62323 0.0
C2250 C 0.73633 0.11837 0.64283 0.0
C2251 C 0.7131 0.11663 0.64405 0.0
H2252 H 0.40825 0.20078 0.15204 0.0
H2253 H 0.37177 0.19126 0.09122 0.0
H2254 H 0.40637 0.24046 0.14767 0.0
H2255 H 0.37067 0.23145 0.08614 0.0
H2256 H 0.35243 0.30412 0.09402 0.0
H2257 H 0.35547 0.26441 0.09706 0.0
H2258 H 0.4182 0.27259 0.13085 0.0
H2259 H 0.41448 0.31286 0.12862 0.0
C2260 C 0.39995 0.20715 0.13749 0.0
C2261 C 0.39011 0.19254 0.122 0.0
C2262 C 0.39906 0.23018 0.13487 0.0
C2263 C 0.38848 0.23974 0.11647 0.0
C2264 C 0.37872 0.22508 0.10079 0.0
C2265 C 0.37941 0.20187 0.10358 0.0
C2266 C 0.36699 0.29757 0.1021 0.0
C2267 C 0.38321 0.31199 0.11111 0.0
C2268 C 0.36883 0.27451 0.10368 0.0
C2269 C 0.38711 0.26472 0.11416 0.0
C2270 C 0.40359 0.27917 0.12295 0.0
C2271 C 0.4016 0.30242 0.12156 0.0
H2272 H 0.15538 0.41458 0.22084 0.0
H2273 H 0.0954 0.37598 0.21347 0.0
H2274 H 0.15308 0.41164 0.26062 0.0
H2275 H 0.09241 0.37377 0.25384 0.0
H2276 H 0.10475 0.35403 0.32558 0.0
H2277 H 0.10613 0.35793 0.28581 0.0
H2278 H 0.13709 0.42222 0.29353 0.0
H2279 H 0.13651 0.41771 0.33384 0.0
C2280 C 0.14144 0.4056 0.22771 0.0
C2281 C 0.12557 0.39548 0.21369 0.0
C2282 C 0.14003 0.40408 0.2508 0.0
C2283 C 0.12252 0.39254 0.26097 0.0
C2284 C 0.10642 0.38254 0.24692 0.0
C2285 C 0.108 0.38388 0.22363 0.0
C2286 C 0.11192 0.36907 0.31891 0.0
C2287 C 0.12057 0.38555 0.33315 0.0
C2288 C 0.1125 0.37141 0.29584 0.0
C2289 C 0.12157 0.39046 0.28594 0.0
C2290 C 0.13022 0.40708 0.30023 0.0
C2291 C 0.12985 0.4046 0.32348 0.0
H2292 H 0.09751 0.58929 0.69791 0.0
H2293 H 0.12282 0.65605 0.69828 0.0
H2294 H 0.10272 0.58714 0.73792 0.0
H2295 H 0.12773 0.65426 0.73853 0.0
H2296 H 0.1468 0.63365 0.81192 0.0
H2297 H 0.14544 0.63885 0.77165 0.0
H2298 H 0.08384 0.60219 0.76902 0.0
H2299 H 0.0856 0.59676 0.80893 0.0
C2300 C 0.10514 0.60319 0.70645 0.0
C2301 C 0.11044 0.62256 0.69473 0.0
C2302 C 0.1076 0.60222 0.72955 0.0
C2303 C 0.11515 0.62074 0.74179 0.0
C2304 C 0.12189 0.63964 0.72985 0.0
C2305 C 0.11941 0.64057 0.70666 0.0
C2306 C 0.13248 0.62763 0.80282 0.0
C2307 C 0.11599 0.6153 0.81379 0.0
C2308 C 0.13185 0.63028 0.77962 0.0
C2309 C 0.11482 0.62045 0.76677 0.0
C2310 C 0.09758 0.60949 0.77808 0.0
C2311 C 0.09826 0.60684 0.80113 0.0
H2312 H 0.91596 0.59462 0.19646 0.0
H2313 H 0.8632 0.64143 0.18952 0.0
H2314 H 0.91626 0.60015 0.23633 0.0
H2315 H 0.86319 0.64693 0.22989 0.0
H2316 H 0.88741 0.66259 0.30366 0.0
H2317 H 0.88274 0.66006 0.26346 0.0
H2318 H 0.89341 0.5897 0.26696 0.0
H2319 H 0.89839 0.5925 0.30701 0.0
C2320 C 0.90483 0.60666 0.20344 0.0
C2321 C 0.88987 0.61788 0.18963 0.0
C2322 C 0.90464 0.60949 0.22646 0.0
C2323 C 0.88931 0.62353 0.23668 0.0
C2324 C 0.87521 0.6359 0.22277 0.0
C2325 C 0.87541 0.63302 0.19953 0.0
C2326 C 0.88762 0.64642 0.29594 0.0
C2327 C 0.89257 0.62763 0.30875 0.0
C2328 C 0.88526 0.645 0.27276 0.0
C2329 C 0.88817 0.62475 0.26164 0.0
C2330 C 0.89154 0.60571 0.27471 0.0
C2331 C 0.89383 0.60716 0.29785 0.0
H2332 H 0.91643 0.43677 0.79499 0.0
H2333 H 0.87547 0.38005 0.81006 0.0
H2334 H 0.91563 0.42707 0.75591 0.0
H2335 H 0.8751 0.3699 0.77053 0.0
H2336 H 0.89943 0.3522 0.69792 0.0
H2337 H 0.89995 0.35879 0.73776 0.0
H2338 H 0.88527 0.42749 0.7264 0.0
H2339 H 0.88435 0.42077 0.68625 0.0
C2340 C 0.9078 0.42176 0.79003 0.0
C2341 C 0.89616 0.40912 0.80584 0.0
C2342 C 0.90705 0.41641 0.7675 0.0
C2343 C 0.89485 0.39803 0.75988 0.0
C2344 C 0.88455 0.3843 0.77579 0.0
C2345 C 0.88505 0.38988 0.79852 0.0
C2346 C 0.89609 0.36873 0.70386 0.0
C2347 C 0.89191 0.386 0.68875 0.0
C2348 C 0.8963 0.37244 0.7268 0.0
C2349 C 0.89282 0.39367 0.73542 0.0
C2350 C 0.88824 0.41093 0.72035 0.0
C2351 C 0.88756 0.4071 0.69732 0.0
H2352 H 0.69813 0.89869 0.66648 0.0
H2353 H 0.69627 0.85965 0.60696 0.0
H2354 H 0.73794 0.89398 0.66926 0.0
H2355 H 0.73641 0.85615 0.60845 0.0
H2356 H 0.80911 0.84595 0.61645 0.0
H2357 H 0.76918 0.84378 0.62074 0.0
H2358 H 0.77113 0.90553 0.65699 0.0
H2359 H 0.81133 0.90644 0.65395 0.0
C2360 C 0.70632 0.88879 0.65409 0.0
C2361 C 0.69397 0.87923 0.63671 0.0
C2362 C 0.72937 0.88639 0.65541 0.0
C2363 C 0.7411 0.87496 0.63892 0.0
C2364 C 0.72844 0.8648 0.62183 0.0
C2365 C 0.70522 0.86673 0.62087 0.0
C2366 C 0.80098 0.85869 0.62593 0.0
C2367 C 0.81346 0.87616 0.63518 0.0
C2368 C 0.77787 0.85771 0.62807 0.0
C2369 C 0.76623 0.87464 0.63892 0.0
C2370 C 0.77901 0.89183 0.6488 0.0
C2371 C 0.80227 0.89245 0.64712 0.0
H2372 H 0.60956 0.20084 0.10665 0.0
H2373 H 0.66024 0.20978 0.15615 0.0
H2374 H 0.60748 0.24066 0.10175 0.0
H2375 H 0.65938 0.24973 0.15052 0.0
H2376 H 0.63991 0.32148 0.15397 0.0
H2377 H 0.63951 0.2812 0.15848 0.0
H2378 H 0.62045 0.27383 0.0898 0.0
H2379 H 0.61969 0.31367 0.08602 0.0
C2380 C 0.62125 0.21131 0.11552 0.0
C2381 C 0.63564 0.202 0.13119 0.0
C2382 C 0.61987 0.23437 0.113 0.0
C2383 C 0.633 0.24894 0.12596 0.0
C2384 C 0.64848 0.23941 0.14059 0.0
C2385 C 0.64956 0.21634 0.14335 0.0
C2386 C 0.63455 0.31118 0.14024 0.0
C2387 C 0.62925 0.32086 0.11981 0.0
C2388 C 0.63495 0.28796 0.14256 0.0
C2389 C 0.63041 0.27378 0.12438 0.0
C2390 C 0.62386 0.28373 0.10436 0.0
C2391 C 0.62323 0.30678 0.10218 0.0
H2392 H 0.20822 0.1464 0.60132 0.0
H2393 H 0.20073 0.11181 0.66322 0.0
H2394 H 0.24809 0.14666 0.60586 0.0
H2395 H 0.24121 0.1122 0.66797 0.0
H2396 H 0.31224 0.08881 0.64919 0.0
H2397 H 0.27259 0.09411 0.65131 0.0
H2398 H 0.28061 0.16013 0.62528 0.0
H2399 H 0.3208 0.15461 0.62297 0.0
C2400 C 0.21508 0.13903 0.61614 0.0
C2401 C 0.20108 0.1289 0.63182 0.0
C2402 C 0.23812 0.13938 0.61883 0.0
C2403 C 0.24819 0.12942 0.63725 0.0
C2404 C 0.23418 0.11987 0.65341 0.0
C2405 C 0.21091 0.11975 0.65081 0.0
C2406 C 0.30569 0.10463 0.64414 0.0
C2407 C 0.31988 0.12123 0.63574 0.0
C2408 C 0.28279 0.10773 0.64555 0.0
C2409 C 0.27307 0.12751 0.63841 0.0
C2410 C 0.28735 0.14453 0.63074 0.0
C2411 C 0.31047 0.14148 0.62955 0.0
H2412 H 0.34833 0.80302 0.15927 0.0
H2413 H 0.39181 0.81255 0.10397 0.0
H2414 H 0.34831 0.76314 0.15301 0.0
H2415 H 0.39311 0.77277 0.09829 0.0
H2416 H 0.37924 0.70047 0.08241 0.0
H2417 H 0.37856 0.74007 0.08736 0.0
H2418 H 0.36814 0.73092 0.15747 0.0
H2419 H 0.36748 0.69066 0.15191 0.0
C2420 C 0.35722 0.7966 0.14519 0.0
C2421 C 0.36933 0.81113 0.13156 0.0
C2422 C 0.35781 0.77355 0.14197 0.0
C2423 C 0.37102 0.76416 0.12532 0.0
C2424 C 0.38239 0.77892 0.1111 0.0
C2425 C 0.38145 0.80198 0.11412 0.0
C2426 C 0.37735 0.70687 0.09904 0.0
C2427 C 0.37365 0.69223 0.11679 0.0
C2428 C 0.37692 0.72983 0.10193 0.0
C2429 C 0.37302 0.73928 0.12282 0.0
C2430 C 0.37065 0.72457 0.14095 0.0
C2431 C 0.37083 0.70136 0.13795 0.0
H2432 H 0.70189 0.11478 0.4068 0.0
H2433 H 0.70946 0.15961 0.35212 0.0
H2434 H 0.74186 0.11423 0.41193 0.0
H2435 H 0.74948 0.16021 0.35774 0.0
H2436 H 0.82187 0.14172 0.35668 0.0
H2437 H 0.78152 0.14002 0.35213 0.0
H2438 H 0.77463 0.13001 0.42255 0.0
H2439 H 0.81449 0.13057 0.42658 0.0
C2440 C 0.71206 0.12556 0.39668 0.0
C2441 C 0.70234 0.13786 0.37957 0.0
C2442 C 0.73519 0.12503 0.39936 0.0
C2443 C 0.74941 0.13692 0.38506 0.0
C2444 C 0.73945 0.15031 0.36879 0.0
C2445 C 0.71634 0.15055 0.36595 0.0
C2446 C 0.81169 0.13816 0.37094 0.0
C2447 C 0.8215 0.13583 0.39191 0.0
C2448 C 0.78842 0.13778 0.36851 0.0
C2449 C 0.77434 0.13529 0.38704 0.0
C2450 C 0.78445 0.13175 0.40775 0.0
C2451 C 0.80752 0.13196 0.41009 0.0
H2452 H 0.36636 0.30042 0.90462 0.0
H2453 H 0.40018 0.30904 0.84257 0.0
H2454 H 0.36546 0.26071 0.89926 0.0
H2455 H 0.39911 0.2687 0.83695 0.0
H2456 H 0.42242 0.19721 0.85462 0.0
H2457 H 0.41717 0.23688 0.85283 0.0
H2458 H 0.35159 0.22871 0.87965 0.0
H2459 H 0.35708 0.18851 0.88168 0.0
C2460 C 0.37337 0.29384 0.88957 0.0
C2461 C 0.38353 0.30809 0.87411 0.0
C2462 C 0.37265 0.2709 0.8864 0.0
C2463 C 0.38225 0.26117 0.86771 0.0
C2464 C 0.39171 0.27547 0.85171 0.0
C2465 C 0.39221 0.29865 0.8548 0.0
C2466 C 0.4067 0.20374 0.85991 0.0
C2467 C 0.39023 0.18951 0.86849 0.0
C2468 C 0.40363 0.22665 0.85868 0.0
C2469 C 0.384 0.23632 0.86616 0.0
C2470 C 0.36708 0.22201 0.87394 0.0
C2471 C 0.37011 0.19889 0.87498 0.0
H2472 H 0.18093 0.86757 0.35443 0.0
H2473 H 0.18963 0.87793 0.42442 0.0
H2474 H 0.22123 0.86898 0.34968 0.0
H2475 H 0.22935 0.87801 0.42023 0.0
H2476 H 0.30189 0.89257 0.40513 0.0
H2477 H 0.26203 0.89322 0.41023 0.0
H2478 H 0.25351 0.84928 0.35429 0.0
H2479 H 0.29346 0.84996 0.34865 0.0
C2480 C 0.1914 0.87083 0.36868 0.0
C2481 C 0.18196 0.87307 0.38974 0.0
C2482 C 0.21464 0.87105 0.36614 0.0
C2483 C 0.22907 0.87322 0.38462 0.0
C2484 C 0.21931 0.87656 0.40543 0.0
C2485 C 0.19629 0.87659 0.40787 0.0
C2486 C 0.29155 0.88224 0.39458 0.0
C2487 C 0.30102 0.87057 0.37698 0.0
C2488 C 0.26846 0.88282 0.39726 0.0
C2489 C 0.25399 0.87153 0.38252 0.0
C2490 C 0.26371 0.85872 0.36572 0.0
C2491 C 0.28678 0.8585 0.36285 0.0
H2492 H 0.65335 0.70705 0.90988 0.0
H2493 H 0.62318 0.69872 0.84556 0.0
H2494 H 0.65388 0.74688 0.90507 0.0
H2495 H 0.62386 0.73909 0.84054 0.0
H2496 H 0.59815 0.80976 0.85756 0.0
H2497 H 0.60416 0.77019 0.8559 0.0
H2498 H 0.66835 0.77938 0.88638 0.0
H2499 H 0.66211 0.81949 0.8882 0.0
C2500 C 0.64709 0.71372 0.89447 0.0
C2501 C 0.63806 0.69953 0.87816 0.0
C2502 C 0.64758 0.73672 0.89165 0.0
C2503 C 0.63886 0.74649 0.87246 0.0
C2504 C 0.63055 0.73227 0.85568 0.0
C2505 C 0.63028 0.70907 0.85844 0.0
C2506 C 0.61374 0.80348 0.86368 0.0
C2507 C 0.62958 0.81795 0.87318 0.0
C2508 C 0.61726 0.78064 0.86254 0.0
C2509 C 0.63671 0.7713 0.87105 0.0
C2510 C 0.65302 0.78585 0.87983 0.0
C2511 C 0.64957 0.80891 0.88075 0.0
H2512 H 0.88955 0.66618 0.81071 0.0
H2513 H 0.86106 0.60082 0.80416 0.0
H2514 H 0.88798 0.67047 0.77025 0.0
H2515 H 0.85959 0.60494 0.76424 0.0
H2516 H 0.84931 0.62086 0.69138 0.0
H2517 H 0.84392 0.62281 0.73168 0.0
H2518 H 0.90758 0.65504 0.73893 0.0
H2519 H 0.91279 0.65317 0.69922 0.0
C2520 C 0.88261 0.65291 0.80074 0.0
C2521 C 0.87558 0.63312 0.81081 0.0
C2522 C 0.88184 0.65525 0.77749 0.0
C2523 C 0.87372 0.63799 0.76372 0.0
C2524 C 0.86572 0.61872 0.77404 0.0
C2525 C 0.86674 0.6163 0.79709 0.0
C2526 C 0.86192 0.62868 0.70158 0.0
C2527 C 0.88153 0.6367 0.69194 0.0
C2528 C 0.85895 0.62969 0.72475 0.0
C2529 C 0.87536 0.63906 0.73882 0.0
C2530 C 0.89443 0.64794 0.72889 0.0
C2531 C 0.89748 0.64668 0.70596 0.0
H2532 H 0.90442 0.4012 0.30688 0.0
H2533 H 0.84515 0.3613 0.30507 0.0
H2534 H 0.90467 0.40284 0.26685 0.0
H2535 H 0.84405 0.3642 0.2648 0.0
H2536 H 0.85563 0.35306 0.19271 0.0
H2537 H 0.85852 0.35107 0.23292 0.0
H2538 H 0.89388 0.41364 0.23319 0.0
H2539 H 0.89232 0.41434 0.19316 0.0
C2540 C 0.8906 0.39391 0.29787 0.0
C2541 C 0.87435 0.38177 0.30929 0.0
C2542 C 0.89085 0.39457 0.27466 0.0
C2543 C 0.8746 0.38332 0.26196 0.0
C2544 C 0.85735 0.37254 0.27359 0.0
C2545 C 0.85746 0.37147 0.29686 0.0
C2546 C 0.86519 0.36563 0.20138 0.0
C2547 C 0.87448 0.38341 0.18959 0.0
C2548 C 0.86619 0.36499 0.22464 0.0
C2549 C 0.8759 0.38252 0.23692 0.0
C2550 C 0.88641 0.39959 0.22486 0.0
C2551 C 0.88584 0.3999 0.20163 0.0
H2552 H 0.14247 0.35434 0.83506 0.0
H2553 H 0.13637 0.4246 0.82572 0.0
H2554 H 0.14087 0.34901 0.79479 0.0
H2555 H 0.13595 0.41973 0.786 0.0
H2556 H 0.11981 0.40317 0.7137 0.0
H2557 H 0.11947 0.4093 0.75353 0.0
H2558 H 0.16178 0.35282 0.76273 0.0
H2559 H 0.16096 0.34626 0.72291 0.0
C2560 C 0.14012 0.36856 0.82446 0.0
C2561 C 0.13921 0.38985 0.83369 0.0
C2562 C 0.13977 0.36565 0.80126 0.0
C2563 C 0.13869 0.38397 0.78669 0.0
C2564 C 0.13659 0.40508 0.79622 0.0
C2565 C 0.13677 0.40791 0.81921 0.0
C2566 C 0.12985 0.3927 0.72417 0.0
C2567 C 0.14098 0.37465 0.71498 0.0
C2568 C 0.12943 0.39597 0.74722 0.0
C2569 C 0.1403 0.38136 0.76184 0.0
C2570 C 0.15265 0.36415 0.75237 0.0
C2571 C 0.15277 0.36073 0.72937 0.0
H2572 H 0.1105 0.65981 0.31057 0.0
H2573 H 0.14467 0.59776 0.30998 0.0
H2574 H 0.11469 0.66303 0.27071 0.0
H2575 H 0.1477 0.59991 0.26977 0.0
H2576 H 0.15872 0.60995 0.19729 0.0
H2577 H 0.16111 0.61279 0.23735 0.0
H2578 H 0.1016 0.6519 0.2373 0.0
H2579 H 0.10039 0.65012 0.19693 0.0
C2580 C 0.11924 0.64694 0.30183 0.0
C2581 C 0.1276 0.62872 0.31353 0.0
C2582 C 0.12132 0.64856 0.27876 0.0
C2583 C 0.13127 0.63163 0.26635 0.0
C2584 C 0.14023 0.61363 0.27832 0.0
C2585 C 0.13857 0.61229 0.30156 0.0
C2586 C 0.14648 0.61966 0.20587 0.0
C2587 C 0.12953 0.63005 0.19385 0.0
C2588 C 0.14761 0.621 0.22905 0.0
C2589 C 0.13138 0.63226 0.24121 0.0
C2590 C 0.11474 0.64329 0.22896 0.0
C2591 C 0.11395 0.64235 0.20563 0.0
loop_
_geom_bond_atom_site_label_1
_geom_bond_atom_site_label_2
_geom_bond_distance
_geom_bond_site_symmetry_2
_ccdc_geom_bond_type
Co0 O1 2.216 . S
Co0 O2 2.091 . S
Co0 O4 2.004 . S
Co0 O10 2.021 . S
Co0 O12 2.137 . S
Co0 O13 2.244 . S
O1 Co0 2.216 . S
O1 C8 1.247 . S
O2 Co0 2.091 . S
O2 C8 1.261 . S
C3 O12 1.247 . S
C3 O13 1.272 . S
O4 Co0 2.004 . S
O4 C9 1.259 . S
Co5 O6 2.061 . S
Co5 O11 2.052 . S
Co5 O13 2.135 . S
O6 Co5 2.061 . S
O6 C9 1.235 . S
C7 O10 1.238 . S
C7 O11 1.241 . S
C8 O1 1.247 . S
C8 O2 1.261 . S
C9 O4 1.259 . S
C9 O6 1.235 . S
O10 Co0 2.021 . S
O10 C7 1.238 . S
O11 Co5 2.052 . S
O11 C7 1.241 . S
O12 Co0 2.137 . S
O12 C3 1.247 . S
O13 Co0 2.244 . S
O13 C3 1.272 . S
O13 Co5 2.135 . S
Co14 O15 2.216 . S
Co14 O16 2.091 . S
Co14 O18 2.004 . S
Co14 O24 2.021 . S
Co14 O26 2.137 . S
Co14 O27 2.244 . S
O15 Co14 2.216 . S
O15 C22 1.247 . S
O16 Co14 2.091 . S
O16 C22 1.261 . S
C17 O26 1.247 . S
C17 O27 1.272 . S
O18 Co14 2.004 . S
O18 C23 1.259 . S
Co19 O20 2.061 . S
Co19 O25 2.052 . S
Co19 O27 2.135 . S
O20 Co19 2.061 . S
O20 C23 1.235 . S
C21 O24 1.238 . S
C21 O25 1.241 . S
C22 O15 1.247 . S
C22 O16 1.261 . S
C23 O18 1.259 . S
C23 O20 1.235 . S
O24 Co14 2.021 . S
O24 C21 1.238 . S
O25 Co19 2.052 . S
O25 C21 1.241 . S
O26 Co14 2.137 . S
O26 C17 1.247 . S
O27 Co14 2.244 . S
O27 C17 1.272 . S
O27 Co19 2.135 . S
Co28 O29 2.216 . S
Co28 O30 2.091 . S
Co28 O32 2.004 . S
Co28 O38 2.021 . S
Co28 O40 2.137 . S
Co28 O41 2.244 . S
O29 Co28 2.216 . S
O29 C36 1.247 . S
O30 Co28 2.091 . S
O30 C36 1.261 . S
C31 O40 1.247 . S
C31 O41 1.272 . S
O32 Co28 2.004 . S
O32 C37 1.259 . S
Co33 O34 2.061 . S
Co33 O39 2.052 . S
Co33 O41 2.135 . S
O34 Co33 2.061 . S
O34 C37 1.235 . S
C35 O38 1.238 . S
C35 O39 1.241 . S
C36 O29 1.247 . S
C36 O30 1.261 . S
C37 O32 1.259 . S
C37 O34 1.235 . S
O38 Co28 2.021 . S
O38 C35 1.238 . S
O39 Co33 2.052 . S
O39 C35 1.241 . S
O40 Co28 2.137 . S
O40 C31 1.247 . S
O41 Co28 2.244 . S
O41 C31 1.272 . S
O41 Co33 2.135 . S
Co42 O43 2.216 . S
Co42 O44 2.091 . S
Co42 O46 2.004 . S
Co42 O52 2.021 . S
Co42 O54 2.137 . S
Co42 O55 2.244 . S
O43 Co42 2.216 . S
O43 C50 1.247 . S
O44 Co42 2.091 . S
O44 C50 1.261 . S
C45 O54 1.247 . S
C45 O55 1.272 . S
O46 Co42 2.004 . S
O46 C51 1.259 . S
Co47 O48 2.061 . S
Co47 O53 2.052 . S
Co47 O55 2.135 . S
O48 Co47 2.061 . S
O48 C51 1.235 . S
C49 O52 1.238 . S
C49 O53 1.241 . S
C50 O43 1.247 . S
C50 O44 1.261 . S
C51 O46 1.259 . S
C51 O48 1.235 . S
O52 Co42 2.021 . S
O52 C49 1.238 . S
O53 Co47 2.052 . S
O53 C49 1.241 . S
O54 Co42 2.137 . S
O54 C45 1.247 . S
O55 Co42 2.244 . S
O55 C45 1.272 . S
O55 Co47 2.135 . S
Co56 O57 2.216 . S
Co56 O58 2.091 . S
Co56 O60 2.004 . S
Co56 O66 2.021 . S
Co56 O68 2.137 . S
Co56 O69 2.244 . S
O57 Co56 2.216 . S
O57 C64 1.247 . S
O58 Co56 2.091 . S
O58 C64 1.261 . S
C59 O68 1.247 . S
C59 O69 1.272 . S
O60 Co56 2.004 . S
O60 C65 1.259 . S
Co61 O62 2.061 . S
Co61 O67 2.052 . S
Co61 O69 2.135 . S
O62 Co61 2.061 . S
O62 C65 1.235 . S
C63 O66 1.238 . S
C63 O67 1.241 . S
C64 O57 1.247 . S
C64 O58 1.261 . S
C65 O60 1.259 . S
C65 O62 1.235 . S
O66 Co56 2.021 . S
O66 C63 1.238 . S
O67 Co61 2.052 . S
O67 C63 1.241 . S
O68 Co56 2.137 . S
O68 C59 1.247 . S
O69 Co56 2.244 . S
O69 C59 1.272 . S
O69 Co61 2.135 . S
Co70 O71 2.216 . S
Co70 O72 2.091 . S
Co70 O74 2.004 . S
Co70 O80 2.021 . S
Co70 O82 2.137 . S
Co70 O83 2.244 . S
O71 Co70 2.216 . S
O71 C78 1.247 . S
O72 Co70 2.091 . S
O72 C78 1.261 . S
C73 O82 1.247 . S
C73 O83 1.272 . S
O74 Co70 2.004 . S
O74 C79 1.259 . S
Co75 O76 2.061 . S
Co75 O81 2.052 . S
Co75 O83 2.135 . S
O76 Co75 2.061 . S
O76 C79 1.235 . S
C77 O80 1.238 . S
C77 O81 1.241 . S
C78 O71 1.247 . S
C78 O72 1.261 . S
C79 O74 1.259 . S
C79 O76 1.235 . S
O80 Co70 2.021 . S
O80 C77 1.238 . S
O81 Co75 2.052 . S
O81 C77 1.241 . S
O82 Co70 2.137 . S
O82 C73 1.247 . S
O83 Co70 2.244 . S
O83 C73 1.272 . S
O83 Co75 2.135 . S
Co84 O85 2.216 . S
Co84 O86 2.091 . S
Co84 O88 2.004 . S
Co84 O94 2.021 . S
Co84 O96 2.137 . S
Co84 O97 2.244 . S
O85 Co84 2.216 . S
O85 C92 1.247 . S
O86 Co84 2.091 . S
O86 C92 1.261 . S
C87 O96 1.247 . S
C87 O97 1.272 . S
O88 Co84 2.004 . S
O88 C93 1.259 . S
Co89 O90 2.061 . S
Co89 O95 2.052 . S
Co89 O97 2.135 . S
O90 Co89 2.061 . S
O90 C93 1.235 . S
C91 O94 1.238 . S
C91 O95 1.241 . S
C92 O85 1.247 . S
C92 O86 1.261 . S
C93 O88 1.259 . S
C93 O90 1.235 . S
O94 Co84 2.021 . S
O94 C91 1.238 . S
O95 Co89 2.052 . S
O95 C91 1.241 . S
O96 Co84 2.137 . S
O96 C87 1.247 . S
O97 Co84 2.244 . S
O97 C87 1.272 . S
O97 Co89 2.135 . S
Co98 O99 2.216 . S
Co98 O100 2.091 . S
Co98 O102 2.004 . S
Co98 O108 2.021 . S
Co98 O110 2.137 . S
Co98 O111 2.244 . S
O99 Co98 2.216 . S
O99 C106 1.247 . S
O100 Co98 2.091 . S
O100 C106 1.261 . S
C101 O110 1.247 . S
C101 O111 1.272 . S
O102 Co98 2.004 . S
O102 C107 1.259 . S
Co103 O104 2.061 . S
Co103 O109 2.052 . S
Co103 O111 2.135 . S
O104 Co103 2.061 . S
O104 C107 1.235 . S
C105 O108 1.238 . S
C105 O109 1.241 . S
C106 O99 1.247 . S
C106 O100 1.261 . S
C107 O102 1.259 . S
C107 O104 1.235 . S
O108 Co98 2.021 . S
O108 C105 1.238 . S
O109 Co103 2.052 . S
O109 C105 1.241 . S
O110 Co98 2.137 . S
O110 C101 1.247 . S
O111 Co98 2.244 . S
O111 C101 1.272 . S
O111 Co103 2.135 . S
Co112 O113 2.216 . S
Co112 O114 2.091 . S
Co112 O116 2.004 . S
Co112 O122 2.021 . S
Co112 O124 2.137 . S
Co112 O125 2.244 . S
O113 Co112 2.216 . S
O113 C120 1.247 . S
O114 Co112 2.091 . S
O114 C120 1.261 . S
C115 O124 1.247 . S
C115 O125 1.272 . S
O116 Co112 2.004 . S
O116 C121 1.259 . S
Co117 O118 2.061 . S
Co117 O123 2.052 . S
Co117 O125 2.135 . S
O118 Co117 2.061 . S
O118 C121 1.235 . S
C119 O122 1.238 . S
C119 O123 1.241 . S
C120 O113 1.247 . S
C120 O114 1.261 . S
C121 O116 1.259 . S
C121 O118 1.235 . S
O122 Co112 2.021 . S
O122 C119 1.238 . S
O123 Co117 2.052 . S
O123 C119 1.241 . S
O124 Co112 2.137 . S
O124 C115 1.247 . S
O125 Co112 2.244 . S
O125 C115 1.272 . S
O125 Co117 2.135 . S
Co126 O127 2.216 . S
Co126 O128 2.091 . S
Co126 O130 2.004 . S
Co126 O136 2.021 . S
Co126 O138 2.137 . S
Co126 O139 2.244 . S
O127 Co126 2.216 . S
O127 C134 1.247 . S
O128 Co126 2.091 . S
O128 C134 1.261 . S
C129 O138 1.247 . S
C129 O139 1.272 . S
O130 Co126 2.004 . S
O130 C135 1.259 . S
Co131 O132 2.061 . S
Co131 O137 2.052 . S
Co131 O139 2.135 . S
O132 Co131 2.061 . S
O132 C135 1.235 . S
C133 O136 1.238 . S
C133 O137 1.241 . S
C134 O127 1.247 . S
C134 O128 1.261 . S
C135 O130 1.259 . S
C135 O132 1.235 . S
O136 Co126 2.021 . S
O136 C133 1.238 . S
O137 Co131 2.052 . S
O137 C133 1.241 . S
O138 Co126 2.137 . S
O138 C129 1.247 . S
O139 Co126 2.244 . S
O139 C129 1.272 . S
O139 Co131 2.135 . S
Co140 O141 2.216 . S
Co140 O142 2.091 . S
Co140 O144 2.004 . S
Co140 O150 2.021 . S
Co140 O152 2.137 . S
Co140 O153 2.244 . S
O141 Co140 2.216 . S
O141 C148 1.247 . S
O142 Co140 2.091 . S
O142 C148 1.261 . S
C143 O152 1.247 . S
C143 O153 1.272 . S
O144 Co140 2.004 . S
O144 C149 1.259 . S
Co145 O146 2.061 . S
Co145 O151 2.052 . S
Co145 O153 2.135 . S
O146 Co145 2.061 . S
O146 C149 1.235 . S
C147 O150 1.238 . S
C147 O151 1.241 . S
C148 O141 1.247 . S
C148 O142 1.261 . S
C149 O144 1.259 . S
C149 O146 1.235 . S
O150 Co140 2.021 . S
O150 C147 1.238 . S
O151 Co145 2.052 . S
O151 C147 1.241 . S
O152 Co140 2.137 . S
O152 C143 1.247 . S
O153 Co140 2.244 . S
O153 C143 1.272 . S
O153 Co145 2.135 . S
Co154 O155 2.216 . S
Co154 O156 2.091 . S
Co154 O158 2.004 . S
Co154 O164 2.021 . S
Co154 O166 2.137 . S
Co154 O167 2.244 . S
O155 Co154 2.216 . S
O155 C162 1.247 . S
O156 Co154 2.091 . S
O156 C162 1.261 . S
C157 O166 1.247 . S
C157 O167 1.272 . S
O158 Co154 2.004 . S
O158 C163 1.259 . S
Co159 O160 2.061 . S
Co159 O165 2.052 . S
Co159 O167 2.135 . S
O160 Co159 2.061 . S
O160 C163 1.235 . S
C161 O164 1.238 . S
C161 O165 1.241 . S
C162 O155 1.247 . S
C162 O156 1.261 . S
C163 O158 1.259 . S
C163 O160 1.235 . S
O164 Co154 2.021 . S
O164 C161 1.238 . S
O165 Co159 2.052 . S
O165 C161 1.241 . S
O166 Co154 2.137 . S
O166 C157 1.247 . S
O167 Co154 2.244 . S
O167 C157 1.272 . S
O167 Co159 2.135 . S
Co168 O169 2.216 . S
Co168 O170 2.091 . S
Co168 O172 2.004 . S
Co168 O178 2.021 . S
Co168 O180 2.137 . S
Co168 O181 2.244 . S
O169 Co168 2.216 . S
O169 C176 1.247 . S
O170 Co168 2.091 . S
O170 C176 1.261 . S
C171 O180 1.247 . S
C171 O181 1.272 . S
O172 Co168 2.004 . S
O172 C177 1.259 . S
Co173 O174 2.061 . S
Co173 O179 2.052 . S
Co173 O181 2.135 . S
O174 Co173 2.061 . S
O174 C177 1.235 . S
C175 O178 1.238 . S
C175 O179 1.241 . S
C176 O169 1.247 . S
C176 O170 1.261 . S
C177 O172 1.259 . S
C177 O174 1.235 . S
O178 Co168 2.021 . S
O178 C175 1.238 . S
O179 Co173 2.052 . S
O179 C175 1.241 . S
O180 Co168 2.137 . S
O180 C171 1.247 . S
O181 Co168 2.244 . S
O181 C171 1.272 . S
O181 Co173 2.135 . S
Co182 O183 2.216 . S
Co182 O184 2.091 . S
Co182 O186 2.004 . S
Co182 O192 2.021 . S
Co182 O194 2.137 . S
Co182 O195 2.244 . S
O183 Co182 2.216 . S
O183 C190 1.247 . S
O184 Co182 2.091 . S
O184 C190 1.261 . S
C185 O194 1.247 . S
C185 O195 1.272 . S
O186 Co182 2.004 . S
O186 C191 1.259 . S
Co187 O188 2.061 . S
Co187 O193 2.052 . S
Co187 O195 2.135 . S
O188 Co187 2.061 . S
O188 C191 1.235 . S
C189 O192 1.238 . S
C189 O193 1.241 . S
C190 O183 1.247 . S
C190 O184 1.261 . S
C191 O186 1.259 . S
C191 O188 1.235 . S
O192 Co182 2.021 . S
O192 C189 1.238 . S
O193 Co187 2.052 . S
O193 C189 1.241 . S
O194 Co182 2.137 . S
O194 C185 1.247 . S
O195 Co182 2.244 . S
O195 C185 1.272 . S
O195 Co187 2.135 . S
Co196 O197 2.216 . S
Co196 O198 2.091 . S
Co196 O200 2.004 . S
Co196 O206 2.021 . S
Co196 O208 2.137 . S
Co196 O209 2.244 . S
O197 Co196 2.216 . S
O197 C204 1.247 . S
O198 Co196 2.091 . S
O198 C204 1.261 . S
C199 O208 1.247 . S
C199 O209 1.272 . S
O200 Co196 2.004 . S
O200 C205 1.259 . S
Co201 O202 2.061 . S
Co201 O207 2.052 . S
Co201 O209 2.135 . S
O202 Co201 2.061 . S
O202 C205 1.235 . S
C203 O206 1.238 . S
C203 O207 1.241 . S
C204 O197 1.247 . S
C204 O198 1.261 . S
C205 O200 1.259 . S
C205 O202 1.235 . S
O206 Co196 2.021 . S
O206 C203 1.238 . S
O207 Co201 2.052 . S
O207 C203 1.241 . S
O208 Co196 2.137 . S
O208 C199 1.247 . S
O209 Co196 2.244 . S
O209 C199 1.272 . S
O209 Co201 2.135 . S
Co210 O211 2.216 . S
Co210 O212 2.091 . S
Co210 O214 2.004 . S
Co210 O220 2.021 . S
Co210 O222 2.137 . S
Co210 O223 2.244 . S
O211 Co210 2.216 . S
O211 C218 1.247 . S
O212 Co210 2.091 . S
O212 C218 1.261 . S
C213 O222 1.247 . S
C213 O223 1.272 . S
O214 Co210 2.004 . S
O214 C219 1.259 . S
Co215 O216 2.061 . S
Co215 O221 2.052 . S
Co215 O223 2.135 . S
O216 Co215 2.061 . S
O216 C219 1.235 . S
C217 O220 1.238 . S
C217 O221 1.241 . S
C218 O211 1.247 . S
C218 O212 1.261 . S
C219 O214 1.259 . S
C219 O216 1.235 . S
O220 Co210 2.021 . S
O220 C217 1.238 . S
O221 Co215 2.052 . S
O221 C217 1.241 . S
O222 Co210 2.137 . S
O222 C213 1.247 . S
O223 Co210 2.244 . S
O223 C213 1.272 . S
O223 Co215 2.135 . S
Co224 O225 2.216 . S
Co224 O226 2.091 . S
Co224 O228 2.004 . S
Co224 O234 2.021 . S
Co224 O236 2.137 . S
Co224 O237 2.244 . S
O225 Co224 2.216 . S
O225 C232 1.247 . S
O226 Co224 2.091 . S
O226 C232 1.261 . S
C227 O236 1.247 . S
C227 O237 1.272 . S
O228 Co224 2.004 . S
O228 C233 1.259 . S
Co229 O230 2.061 . S
Co229 O235 2.052 . S
Co229 O237 2.135 . S
O230 Co229 2.061 . S
O230 C233 1.235 . S
C231 O234 1.238 . S
C231 O235 1.241 . S
C232 O225 1.247 . S
C232 O226 1.261 . S
C233 O228 1.259 . S
C233 O230 1.235 . S
O234 Co224 2.021 . S
O234 C231 1.238 . S
O235 Co229 2.052 . S
O235 C231 1.241 . S
O236 Co224 2.137 . S
O236 C227 1.247 . S
O237 Co224 2.244 . S
O237 C227 1.272 . S
O237 Co229 2.135 . S
Co238 O239 2.216 . S
Co238 O240 2.091 . S
Co238 O242 2.004 . S
Co238 O248 2.021 . S
Co238 O250 2.137 . S
Co238 O251 2.244 . S
O239 Co238 2.216 . S
O239 C246 1.247 . S
O240 Co238 2.091 . S
O240 C246 1.261 . S
C241 O250 1.247 . S
C241 O251 1.272 . S
O242 Co238 2.004 . S
O242 C247 1.259 . S
Co243 O244 2.061 . S
Co243 O249 2.052 . S
Co243 O251 2.135 . S
O244 Co243 2.061 . S
O244 C247 1.235 . S
C245 O248 1.238 . S
C245 O249 1.241 . S
C246 O239 1.247 . S
C246 O240 1.261 . S
C247 O242 1.259 . S
C247 O244 1.235 . S
O248 Co238 2.021 . S
O248 C245 1.238 . S
O249 Co243 2.052 . S
O249 C245 1.241 . S
O250 Co238 2.137 . S
O250 C241 1.247 . S
O251 Co238 2.244 . S
O251 C241 1.272 . S
O251 Co243 2.135 . S
Co252 O253 2.216 . S
Co252 O254 2.091 . S
Co252 O256 2.004 . S
Co252 O262 2.021 . S
Co252 O264 2.137 . S
Co252 O265 2.244 . S
O253 Co252 2.216 . S
O253 C260 1.247 . S
O254 Co252 2.091 . S
O254 C260 1.261 . S
C255 O264 1.247 . S
C255 O265 1.272 . S
O256 Co252 2.004 . S
O256 C261 1.259 . S
Co257 O258 2.061 . S
Co257 O263 2.052 . S
Co257 O265 2.135 . S
O258 Co257 2.061 . S
O258 C261 1.235 . S
C259 O262 1.238 . S
C259 O263 1.241 . S
C260 O253 1.247 . S
C260 O254 1.261 . S
C261 O256 1.259 . S
C261 O258 1.235 . S
O262 Co252 2.021 . S
O262 C259 1.238 . S
O263 Co257 2.052 . S
O263 C259 1.241 . S
O264 Co252 2.137 . S
O264 C255 1.247 . S
O265 Co252 2.244 . S
O265 C255 1.272 . S
O265 Co257 2.135 . S
Co266 O267 2.216 . S
Co266 O268 2.091 . S
Co266 O270 2.004 . S
Co266 O276 2.021 . S
Co266 O278 2.137 . S
Co266 O279 2.244 . S
O267 Co266 2.216 . S
O267 C274 1.247 . S
O268 Co266 2.091 . S
O268 C274 1.261 . S
C269 O278 1.247 . S
C269 O279 1.272 . S
O270 Co266 2.004 . S
O270 C275 1.259 . S
Co271 O272 2.061 . S
Co271 O277 2.052 . S
Co271 O279 2.135 . S
O272 Co271 2.061 . S
O272 C275 1.235 . S
C273 O276 1.238 . S
C273 O277 1.241 . S
C274 O267 1.247 . S
C274 O268 1.261 . S
C275 O270 1.259 . S
C275 O272 1.235 . S
O276 Co266 2.021 . S
O276 C273 1.238 . S
O277 Co271 2.052 . S
O277 C273 1.241 . S
O278 Co266 2.137 . S
O278 C269 1.247 . S
O279 Co266 2.244 . S
O279 C269 1.272 . S
O279 Co271 2.135 . S
Co280 O281 2.216 . S
Co280 O282 2.091 . S
Co280 O284 2.004 . S
Co280 O290 2.021 . S
Co280 O292 2.137 . S
Co280 O293 2.244 . S
O281 Co280 2.216 . S
O281 C288 1.247 . S
O282 Co280 2.091 . S
O282 C288 1.261 . S
C283 O292 1.247 . S
C283 O293 1.272 . S
O284 Co280 2.004 . S
O284 C289 1.259 . S
Co285 O286 2.061 . S
Co285 O291 2.052 . S
Co285 O293 2.135 . S
O286 Co285 2.061 . S
O286 C289 1.235 . S
C287 O290 1.238 . S
C287 O291 1.241 . S
C288 O281 1.247 . S
C288 O282 1.261 . S
C289 O284 1.259 . S
C289 O286 1.235 . S
O290 Co280 2.021 . S
O290 C287 1.238 . S
O291 Co285 2.052 . S
O291 C287 1.241 . S
O292 Co280 2.137 . S
O292 C283 1.247 . S
O293 Co280 2.244 . S
O293 C283 1.272 . S
O293 Co285 2.135 . S
Co294 O295 2.216 . S
Co294 O296 2.091 . S
Co294 O298 2.004 . S
Co294 O304 2.021 . S
Co294 O306 2.137 . S
Co294 O307 2.244 . S
O295 Co294 2.216 . S
O295 C302 1.247 . S
O296 Co294 2.091 . S
O296 C302 1.261 . S
C297 O306 1.247 . S
C297 O307 1.272 . S
O298 Co294 2.004 . S
O298 C303 1.259 . S
Co299 O300 2.061 . S
Co299 O305 2.052 . S
Co299 O307 2.135 . S
O300 Co299 2.061 . S
O300 C303 1.235 . S
C301 O304 1.238 . S
C301 O305 1.241 . S
C302 O295 1.247 . S
C302 O296 1.261 . S
C303 O298 1.259 . S
C303 O300 1.235 . S
O304 Co294 2.021 . S
O304 C301 1.238 . S
O305 Co299 2.052 . S
O305 C301 1.241 . S
O306 Co294 2.137 . S
O306 C297 1.247 . S
O307 Co294 2.244 . S
O307 C297 1.272 . S
O307 Co299 2.135 . S
Co308 O309 2.216 . S
Co308 O310 2.091 . S
Co308 O312 2.004 . S
Co308 O318 2.021 . S
Co308 O320 2.137 . S
Co308 O321 2.244 . S
O309 Co308 2.216 . S
O309 C316 1.247 . S
O310 Co308 2.091 . S
O310 C316 1.261 . S
C311 O320 1.247 . S
C311 O321 1.272 . S
O312 Co308 2.004 . S
O312 C317 1.259 . S
Co313 O314 2.061 . S
Co313 O319 2.052 . S
Co313 O321 2.135 . S
O314 Co313 2.061 . S
O314 C317 1.235 . S
C315 O318 1.238 . S
C315 O319 1.241 . S
C316 O309 1.247 . S
C316 O310 1.261 . S
C317 O312 1.259 . S
C317 O314 1.235 . S
O318 Co308 2.021 . S
O318 C315 1.238 . S
O319 Co313 2.052 . S
O319 C315 1.241 . S
O320 Co308 2.137 . S
O320 C311 1.247 . S
O321 Co308 2.244 . S
O321 C311 1.272 . S
O321 Co313 2.135 . S
Co322 O323 2.216 . S
Co322 O324 2.091 . S
Co322 O326 2.004 . S
Co322 O332 2.021 . S
Co322 O334 2.137 . S
Co322 O335 2.244 . S
O323 Co322 2.216 . S
O323 C330 1.247 . S
O324 Co322 2.091 . S
O324 C330 1.261 . S
C325 O334 1.247 . S
C325 O335 1.272 . S
O326 Co322 2.004 . S
O326 C331 1.259 . S
Co327 O328 2.061 . S
Co327 O333 2.052 . S
Co327 O335 2.135 . S
O328 Co327 2.061 . S
O328 C331 1.235 . S
C329 O332 1.238 . S
C329 O333 1.241 . S
C330 O323 1.247 . S
C330 O324 1.261 . S
C331 O326 1.259 . S
C331 O328 1.235 . S
O332 Co322 2.021 . S
O332 C329 1.238 . S
O333 Co327 2.052 . S
O333 C329 1.241 . S
O334 Co322 2.137 . S
O334 C325 1.247 . S
O335 Co322 2.244 . S
O335 C325 1.272 . S
O335 Co327 2.135 . S
Co336 O337 2.216 . S
Co336 O338 2.091 . S
Co336 O340 2.004 . S
Co336 O346 2.021 . S
Co336 O348 2.137 . S
Co336 O349 2.244 . S
O337 Co336 2.216 . S
O337 C344 1.247 . S
O338 Co336 2.091 . S
O338 C344 1.261 . S
C339 O348 1.247 . S
C339 O349 1.272 . S
O340 Co336 2.004 . S
O340 C345 1.259 . S
Co341 O342 2.061 . S
Co341 O347 2.052 . S
Co341 O349 2.135 . S
O342 Co341 2.061 . S
O342 C345 1.235 . S
C343 O346 1.238 . S
C343 O347 1.241 . S
C344 O337 1.247 . S
C344 O338 1.261 . S
C345 O340 1.259 . S
C345 O342 1.235 . S
O346 Co336 2.021 . S
O346 C343 1.238 . S
O347 Co341 2.052 . S
O347 C343 1.241 . S
O348 Co336 2.137 . S
O348 C339 1.247 . S
O349 Co336 2.244 . S
O349 C339 1.272 . S
O349 Co341 2.135 . S
Co350 O351 2.216 . S
Co350 O352 2.091 . S
Co350 O354 2.004 . S
Co350 O360 2.021 . S
Co350 O362 2.137 . S
Co350 O363 2.244 . S
O351 Co350 2.216 . S
O351 C358 1.247 . S
O352 Co350 2.091 . S
O352 C358 1.261 . S
C353 O362 1.247 . S
C353 O363 1.272 . S
O354 Co350 2.004 . S
O354 C359 1.259 . S
Co355 O356 2.061 . S
Co355 O361 2.052 . S
Co355 O363 2.135 . S
O356 Co355 2.061 . S
O356 C359 1.235 . S
C357 O360 1.238 . S
C357 O361 1.241 . S
C358 O351 1.247 . S
C358 O352 1.261 . S
C359 O354 1.259 . S
C359 O356 1.235 . S
O360 Co350 2.021 . S
O360 C357 1.238 . S
O361 Co355 2.052 . S
O361 C357 1.241 . S
O362 Co350 2.137 . S
O362 C353 1.247 . S
O363 Co350 2.244 . S
O363 C353 1.272 . S
O363 Co355 2.135 . S
Co364 O365 2.216 . S
Co364 O366 2.091 . S
Co364 O368 2.004 . S
Co364 O374 2.021 . S
Co364 O376 2.137 . S
Co364 O377 2.244 . S
O365 Co364 2.216 . S
O365 C372 1.247 . S
O366 Co364 2.091 . S
O366 C372 1.261 . S
C367 O376 1.247 . S
C367 O377 1.272 . S
O368 Co364 2.004 . S
O368 C373 1.259 . S
Co369 O370 2.061 . S
Co369 O375 2.052 . S
Co369 O377 2.135 . S
O370 Co369 2.061 . S
O370 C373 1.235 . S
C371 O374 1.238 . S
C371 O375 1.241 . S
C372 O365 1.247 . S
C372 O366 1.261 . S
C373 O368 1.259 . S
C373 O370 1.235 . S
O374 Co364 2.021 . S
O374 C371 1.238 . S
O375 Co369 2.052 . S
O375 C371 1.241 . S
O376 Co364 2.137 . S
O376 C367 1.247 . S
O377 Co364 2.244 . S
O377 C367 1.272 . S
O377 Co369 2.135 . S
Co378 O379 2.216 . S
Co378 O380 2.091 . S
Co378 O382 2.004 . S
Co378 O388 2.021 . S
Co378 O390 2.137 . S
Co378 O391 2.244 . S
O379 Co378 2.216 . S
O379 C386 1.247 . S
O380 Co378 2.091 . S
O380 C386 1.261 . S
C381 O390 1.247 . S
C381 O391 1.272 . S
O382 Co378 2.004 . S
O382 C387 1.259 . S
Co383 O384 2.061 . S
Co383 O389 2.052 . S
Co383 O391 2.135 . S
O384 Co383 2.061 . S
O384 C387 1.235 . S
C385 O388 1.238 . S
C385 O389 1.241 . S
C386 O379 1.247 . S
C386 O380 1.261 . S
C387 O382 1.259 . S
C387 O384 1.235 . S
O388 Co378 2.021 . S
O388 C385 1.238 . S
O389 Co383 2.052 . S
O389 C385 1.241 . S
O390 Co378 2.137 . S
O390 C381 1.247 . S
O391 Co378 2.244 . S
O391 C381 1.272 . S
O391 Co383 2.135 . S
Co392 O393 2.216 . S
Co392 O394 2.091 . S
Co392 O396 2.004 . S
Co392 O402 2.021 . S
Co392 O404 2.137 . S
Co392 O405 2.244 . S
O393 Co392 2.216 . S
O393 C400 1.247 . S
O394 Co392 2.091 . S
O394 C400 1.261 . S
C395 O404 1.247 . S
C395 O405 1.272 . S
O396 Co392 2.004 . S
O396 C401 1.259 . S
Co397 O398 2.061 . S
Co397 O403 2.052 . S
Co397 O405 2.135 . S
O398 Co397 2.061 . S
O398 C401 1.235 . S
C399 O402 1.238 . S
C399 O403 1.241 . S
C400 O393 1.247 . S
C400 O394 1.261 . S
C401 O396 1.259 . S
C401 O398 1.235 . S
O402 Co392 2.021 . S
O402 C399 1.238 . S
O403 Co397 2.052 . S
O403 C399 1.241 . S
O404 Co392 2.137 . S
O404 C395 1.247 . S
O405 Co392 2.244 . S
O405 C395 1.272 . S
O405 Co397 2.135 . S
Co406 O407 2.216 . S
Co406 O408 2.091 . S
Co406 O410 2.004 . S
Co406 O416 2.021 . S
Co406 O418 2.137 . S
Co406 O419 2.244 . S
O407 Co406 2.216 . S
O407 C414 1.247 . S
O408 Co406 2.091 . S
O408 C414 1.261 . S
C409 O418 1.247 . S
C409 O419 1.272 . S
O410 Co406 2.004 . S
O410 C415 1.259 . S
Co411 O412 2.061 . S
Co411 O417 2.052 . S
Co411 O419 2.135 . S
O412 Co411 2.061 . S
O412 C415 1.235 . S
C413 O416 1.238 . S
C413 O417 1.241 . S
C414 O407 1.247 . S
C414 O408 1.261 . S
C415 O410 1.259 . S
C415 O412 1.235 . S
O416 Co406 2.021 . S
O416 C413 1.238 . S
O417 Co411 2.052 . S
O417 C413 1.241 . S
O418 Co406 2.137 . S
O418 C409 1.247 . S
O419 Co406 2.244 . S
O419 C409 1.272 . S
O419 Co411 2.135 . S
Co420 O421 2.216 . S
Co420 O422 2.091 . S
Co420 O424 2.004 . S
Co420 O430 2.021 . S
Co420 O432 2.137 . S
Co420 O433 2.244 . S
O421 Co420 2.216 . S
O421 C428 1.247 . S
O422 Co420 2.091 . S
O422 C428 1.261 . S
C423 O432 1.247 . S
C423 O433 1.272 . S
O424 Co420 2.004 . S
O424 C429 1.259 . S
Co425 O426 2.061 . S
Co425 O431 2.052 . S
Co425 O433 2.135 . S
O426 Co425 2.061 . S
O426 C429 1.235 . S
C427 O430 1.238 . S
C427 O431 1.241 . S
C428 O421 1.247 . S
C428 O422 1.261 . S
C429 O424 1.259 . S
C429 O426 1.235 . S
O430 Co420 2.021 . S
O430 C427 1.238 . S
O431 Co425 2.052 . S
O431 C427 1.241 . S
O432 Co420 2.137 . S
O432 C423 1.247 . S
O433 Co420 2.244 . S
O433 C423 1.272 . S
O433 Co425 2.135 . S
Co434 O435 2.216 . S
Co434 O436 2.091 . S
Co434 O438 2.004 . S
Co434 O444 2.021 . S
Co434 O446 2.137 . S
Co434 O447 2.244 . S
O435 Co434 2.216 . S
O435 C442 1.247 . S
O436 Co434 2.091 . S
O436 C442 1.261 . S
C437 O446 1.247 . S
C437 O447 1.272 . S
O438 Co434 2.004 . S
O438 C443 1.259 . S
Co439 O440 2.061 . S
Co439 O445 2.052 . S
Co439 O447 2.135 . S
O440 Co439 2.061 . S
O440 C443 1.235 . S
C441 O444 1.238 . S
C441 O445 1.241 . S
C442 O435 1.247 . S
C442 O436 1.261 . S
C443 O438 1.259 . S
C443 O440 1.235 . S
O444 Co434 2.021 . S
O444 C441 1.238 . S
O445 Co439 2.052 . S
O445 C441 1.241 . S
O446 Co434 2.137 . S
O446 C437 1.247 . S
O447 Co434 2.244 . S
O447 C437 1.272 . S
O447 Co439 2.135 . S
Co448 O449 2.216 . S
Co448 O450 2.091 . S
Co448 O452 2.004 . S
Co448 O458 2.021 . S
Co448 O460 2.137 . S
Co448 O461 2.244 . S
O449 Co448 2.216 . S
O449 C456 1.247 . S
O450 Co448 2.091 . S
O450 C456 1.261 . S
C451 O460 1.247 . S
C451 O461 1.272 . S
O452 Co448 2.004 . S
O452 C457 1.259 . S
Co453 O454 2.061 . S
Co453 O459 2.052 . S
Co453 O461 2.135 . S
O454 Co453 2.061 . S
O454 C457 1.235 . S
C455 O458 1.238 . S
C455 O459 1.241 . S
C456 O449 1.247 . S
C456 O450 1.261 . S
C457 O452 1.259 . S
C457 O454 1.235 . S
O458 Co448 2.021 . S
O458 C455 1.238 . S
O459 Co453 2.052 . S
O459 C455 1.241 . S
O460 Co448 2.137 . S
O460 C451 1.247 . S
O461 Co448 2.244 . S
O461 C451 1.272 . S
O461 Co453 2.135 . S
Co462 O463 2.216 . S
Co462 O464 2.091 . S
Co462 O466 2.004 . S
Co462 O472 2.021 . S
Co462 O474 2.137 . S
Co462 O475 2.244 . S
O463 Co462 2.216 . S
O463 C470 1.247 . S
O464 Co462 2.091 . S
O464 C470 1.261 . S
C465 O474 1.247 . S
C465 O475 1.272 . S
O466 Co462 2.004 . S
O466 C471 1.259 . S
Co467 O468 2.061 . S
Co467 O473 2.052 . S
Co467 O475 2.135 . S
O468 Co467 2.061 . S
O468 C471 1.235 . S
C469 O472 1.238 . S
C469 O473 1.241 . S
C470 O463 1.247 . S
C470 O464 1.261 . S
C471 O466 1.259 . S
C471 O468 1.235 . S
O472 Co462 2.021 . S
O472 C469 1.238 . S
O473 Co467 2.052 . S
O473 C469 1.241 . S
O474 Co462 2.137 . S
O474 C465 1.247 . S
O475 Co462 2.244 . S
O475 C465 1.272 . S
O475 Co467 2.135 . S
Co476 O477 2.216 . S
Co476 O478 2.091 . S
Co476 O480 2.004 . S
Co476 O486 2.021 . S
Co476 O488 2.137 . S
Co476 O489 2.244 . S
O477 Co476 2.216 . S
O477 C484 1.247 . S
O478 Co476 2.091 . S
O478 C484 1.261 . S
C479 O488 1.247 . S
C479 O489 1.272 . S
O480 Co476 2.004 . S
O480 C485 1.259 . S
Co481 O482 2.061 . S
Co481 O487 2.052 . S
Co481 O489 2.135 . S
O482 Co481 2.061 . S
O482 C485 1.235 . S
C483 O486 1.238 . S
C483 O487 1.241 . S
C484 O477 1.247 . S
C484 O478 1.261 . S
C485 O480 1.259 . S
C485 O482 1.235 . S
O486 Co476 2.021 . S
O486 C483 1.238 . S
O487 Co481 2.052 . S
O487 C483 1.241 . S
O488 Co476 2.137 . S
O488 C479 1.247 . S
O489 Co476 2.244 . S
O489 C479 1.272 . S
O489 Co481 2.135 . S
Co490 O491 2.216 . S
Co490 O492 2.091 . S
Co490 O494 2.004 . S
Co490 O500 2.021 . S
Co490 O502 2.137 . S
Co490 O503 2.244 . S
O491 Co490 2.216 . S
O491 C498 1.247 . S
O492 Co490 2.091 . S
O492 C498 1.261 . S
C493 O502 1.247 . S
C493 O503 1.272 . S
O494 Co490 2.004 . S
O494 C499 1.259 . S
Co495 O496 2.061 . S
Co495 O501 2.052 . S
Co495 O503 2.135 . S
O496 Co495 2.061 . S
O496 C499 1.235 . S
C497 O500 1.238 . S
C497 O501 1.241 . S
C498 O491 1.247 . S
C498 O492 1.261 . S
C499 O494 1.259 . S
C499 O496 1.235 . S
O500 Co490 2.021 . S
O500 C497 1.238 . S
O501 Co495 2.052 . S
O501 C497 1.241 . S
O502 Co490 2.137 . S
O502 C493 1.247 . S
O503 Co490 2.244 . S
O503 C493 1.272 . S
O503 Co495 2.135 . S
Co504 O505 2.216 . S
Co504 O506 2.091 . S
Co504 O508 2.004 . S
Co504 O514 2.021 . S
Co504 O516 2.137 . S
Co504 O517 2.244 . S
O505 Co504 2.216 . S
O505 C512 1.247 . S
O506 Co504 2.091 . S
O506 C512 1.261 . S
C507 O516 1.247 . S
C507 O517 1.272 . S
O508 Co504 2.004 . S
O508 C513 1.259 . S
Co509 O510 2.061 . S
Co509 O515 2.052 . S
Co509 O517 2.135 . S
O510 Co509 2.061 . S
O510 C513 1.235 . S
C511 O514 1.238 . S
C511 O515 1.241 . S
C512 O505 1.247 . S
C512 O506 1.261 . S
C513 O508 1.259 . S
C513 O510 1.235 . S
O514 Co504 2.021 . S
O514 C511 1.238 . S
O515 Co509 2.052 . S
O515 C511 1.241 . S
O516 Co504 2.137 . S
O516 C507 1.247 . S
O517 Co504 2.244 . S
O517 C507 1.272 . S
O517 Co509 2.135 . S
Co518 O519 2.216 . S
Co518 O520 2.091 . S
Co518 O522 2.004 . S
Co518 O528 2.021 . S
Co518 O530 2.137 . S
Co518 O531 2.244 . S
O519 Co518 2.216 . S
O519 C526 1.247 . S
O520 Co518 2.091 . S
O520 C526 1.261 . S
C521 O530 1.247 . S
C521 O531 1.272 . S
O522 Co518 2.004 . S
O522 C527 1.259 . S
Co523 O524 2.061 . S
Co523 O529 2.052 . S
Co523 O531 2.135 . S
O524 Co523 2.061 . S
O524 C527 1.235 . S
C525 O528 1.238 . S
C525 O529 1.241 . S
C526 O519 1.247 . S
C526 O520 1.261 . S
C527 O522 1.259 . S
C527 O524 1.235 . S
O528 Co518 2.021 . S
O528 C525 1.238 . S
O529 Co523 2.052 . S
O529 C525 1.241 . S
O530 Co518 2.137 . S
O530 C521 1.247 . S
O531 Co518 2.244 . S
O531 C521 1.272 . S
O531 Co523 2.135 . S
Co532 O533 2.216 . S
Co532 O534 2.091 . S
Co532 O536 2.004 . S
Co532 O542 2.021 . S
Co532 O544 2.137 . S
Co532 O545 2.244 . S
O533 Co532 2.216 . S
O533 C540 1.247 . S
O534 Co532 2.091 . S
O534 C540 1.261 . S
C535 O544 1.247 . S
C535 O545 1.272 . S
O536 Co532 2.004 . S
O536 C541 1.259 . S
Co537 O538 2.061 . S
Co537 O543 2.052 . S
Co537 O545 2.135 . S
O538 Co537 2.061 . S
O538 C541 1.235 . S
C539 O542 1.238 . S
C539 O543 1.241 . S
C540 O533 1.247 . S
C540 O534 1.261 . S
C541 O536 1.259 . S
C541 O538 1.235 . S
O542 Co532 2.021 . S
O542 C539 1.238 . S
O543 Co537 2.052 . S
O543 C539 1.241 . S
O544 Co532 2.137 . S
O544 C535 1.247 . S
O545 Co532 2.244 . S
O545 C535 1.272 . S
O545 Co537 2.135 . S
Co546 O547 2.216 . S
Co546 O548 2.091 . S
Co546 O550 2.004 . S
Co546 O556 2.021 . S
Co546 O558 2.137 . S
Co546 O559 2.244 . S
O547 Co546 2.216 . S
O547 C554 1.247 . S
O548 Co546 2.091 . S
O548 C554 1.261 . S
C549 O558 1.247 . S
C549 O559 1.272 . S
O550 Co546 2.004 . S
O550 C555 1.259 . S
Co551 O552 2.061 . S
Co551 O557 2.052 . S
Co551 O559 2.135 . S
O552 Co551 2.061 . S
O552 C555 1.235 . S
C553 O556 1.238 . S
C553 O557 1.241 . S
C554 O547 1.247 . S
C554 O548 1.261 . S
C555 O550 1.259 . S
C555 O552 1.235 . S
O556 Co546 2.021 . S
O556 C553 1.238 . S
O557 Co551 2.052 . S
O557 C553 1.241 . S
O558 Co546 2.137 . S
O558 C549 1.247 . S
O559 Co546 2.244 . S
O559 C549 1.272 . S
O559 Co551 2.135 . S
Co560 O561 2.216 . S
Co560 O562 2.091 . S
Co560 O564 2.004 . S
Co560 O570 2.021 . S
Co560 O572 2.137 . S
Co560 O573 2.244 . S
O561 Co560 2.216 . S
O561 C568 1.247 . S
O562 Co560 2.091 . S
O562 C568 1.261 . S
C563 O572 1.247 . S
C563 O573 1.272 . S
O564 Co560 2.004 . S
O564 C569 1.259 . S
Co565 O566 2.061 . S
Co565 O571 2.052 . S
Co565 O573 2.135 . S
O566 Co565 2.061 . S
O566 C569 1.235 . S
C567 O570 1.238 . S
C567 O571 1.241 . S
C568 O561 1.247 . S
C568 O562 1.261 . S
C569 O564 1.259 . S
C569 O566 1.235 . S
O570 Co560 2.021 . S
O570 C567 1.238 . S
O571 Co565 2.052 . S
O571 C567 1.241 . S
O572 Co560 2.137 . S
O572 C563 1.247 . S
O573 Co560 2.244 . S
O573 C563 1.272 . S
O573 Co565 2.135 . S
Co574 O575 2.216 . S
Co574 O576 2.091 . S
Co574 O578 2.004 . S
Co574 O584 2.021 . S
Co574 O586 2.137 . S
Co574 O587 2.244 . S
O575 Co574 2.216 . S
O575 C582 1.247 . S
O576 Co574 2.091 . S
O576 C582 1.261 . S
C577 O586 1.247 . S
C577 O587 1.272 . S
O578 Co574 2.004 . S
O578 C583 1.259 . S
Co579 O580 2.061 . S
Co579 O585 2.052 . S
Co579 O587 2.135 . S
O580 Co579 2.061 . S
O580 C583 1.235 . S
C581 O584 1.238 . S
C581 O585 1.241 . S
C582 O575 1.247 . S
C582 O576 1.261 . S
C583 O578 1.259 . S
C583 O580 1.235 . S
O584 Co574 2.021 . S
O584 C581 1.238 . S
O585 Co579 2.052 . S
O585 C581 1.241 . S
O586 Co574 2.137 . S
O586 C577 1.247 . S
O587 Co574 2.244 . S
O587 C577 1.272 . S
O587 Co579 2.135 . S
Co588 O589 2.216 . S
Co588 O590 2.091 . S
Co588 O592 2.004 . S
Co588 O598 2.021 . S
Co588 O600 2.137 . S
Co588 O601 2.244 . S
O589 Co588 2.216 . S
O589 C596 1.247 . S
O590 Co588 2.091 . S
O590 C596 1.261 . S
C591 O600 1.247 . S
C591 O601 1.272 . S
O592 Co588 2.004 . S
O592 C597 1.259 . S
Co593 O594 2.061 . S
Co593 O599 2.052 . S
Co593 O601 2.135 . S
O594 Co593 2.061 . S
O594 C597 1.235 . S
C595 O598 1.238 . S
C595 O599 1.241 . S
C596 O589 1.247 . S
C596 O590 1.261 . S
C597 O592 1.259 . S
C597 O594 1.235 . S
O598 Co588 2.021 . S
O598 C595 1.238 . S
O599 Co593 2.052 . S
O599 C595 1.241 . S
O600 Co588 2.137 . S
O600 C591 1.247 . S
O601 Co588 2.244 . S
O601 C591 1.272 . S
O601 Co593 2.135 . S
Co602 O603 2.216 . S
Co602 O604 2.091 . S
Co602 O606 2.004 . S
Co602 O612 2.021 . S
Co602 O614 2.137 . S
Co602 O615 2.244 . S
O603 Co602 2.216 . S
O603 C610 1.247 . S
O604 Co602 2.091 . S
O604 C610 1.261 . S
C605 O614 1.247 . S
C605 O615 1.272 . S
O606 Co602 2.004 . S
O606 C611 1.259 . S
Co607 O608 2.061 . S
Co607 O613 2.052 . S
Co607 O615 2.135 . S
O608 Co607 2.061 . S
O608 C611 1.235 . S
C609 O612 1.238 . S
C609 O613 1.241 . S
C610 O603 1.247 . S
C610 O604 1.261 . S
C611 O606 1.259 . S
C611 O608 1.235 . S
O612 Co602 2.021 . S
O612 C609 1.238 . S
O613 Co607 2.052 . S
O613 C609 1.241 . S
O614 Co602 2.137 . S
O614 C605 1.247 . S
O615 Co602 2.244 . S
O615 C605 1.272 . S
O615 Co607 2.135 . S
Co616 O617 2.216 . S
Co616 O618 2.091 . S
Co616 O620 2.004 . S
Co616 O626 2.021 . S
Co616 O628 2.137 . S
Co616 O629 2.244 . S
O617 Co616 2.216 . S
O617 C624 1.247 . S
O618 Co616 2.091 . S
O618 C624 1.261 . S
C619 O628 1.247 . S
C619 O629 1.272 . S
O620 Co616 2.004 . S
O620 C625 1.259 . S
Co621 O622 2.061 . S
Co621 O627 2.052 . S
Co621 O629 2.135 . S
O622 Co621 2.061 . S
O622 C625 1.235 . S
C623 O626 1.238 . S
C623 O627 1.241 . S
C624 O617 1.247 . S
C624 O618 1.261 . S
C625 O620 1.259 . S
C625 O622 1.235 . S
O626 Co616 2.021 . S
O626 C623 1.238 . S
O627 Co621 2.052 . S
O627 C623 1.241 . S
O628 Co616 2.137 . S
O628 C619 1.247 . S
O629 Co616 2.244 . S
O629 C619 1.272 . S
O629 Co621 2.135 . S
Co630 O631 2.216 . S
Co630 O632 2.091 . S
Co630 O634 2.004 . S
Co630 O640 2.021 . S
Co630 O642 2.137 . S
Co630 O643 2.244 . S
O631 Co630 2.216 . S
O631 C638 1.247 . S
O632 Co630 2.091 . S
O632 C638 1.261 . S
C633 O642 1.247 . S
C633 O643 1.272 . S
O634 Co630 2.004 . S
O634 C639 1.259 . S
Co635 O636 2.061 . S
Co635 O641 2.052 . S
Co635 O643 2.135 . S
O636 Co635 2.061 . S
O636 C639 1.235 . S
C637 O640 1.238 . S
C637 O641 1.241 . S
C638 O631 1.247 . S
C638 O632 1.261 . S
C639 O634 1.259 . S
C639 O636 1.235 . S
O640 Co630 2.021 . S
O640 C637 1.238 . S
O641 Co635 2.052 . S
O641 C637 1.241 . S
O642 Co630 2.137 . S
O642 C633 1.247 . S
O643 Co630 2.244 . S
O643 C633 1.272 . S
O643 Co635 2.135 . S
Co644 O645 2.216 . S
Co644 O646 2.091 . S
Co644 O648 2.004 . S
Co644 O654 2.021 . S
Co644 O656 2.137 . S
Co644 O657 2.244 . S
O645 Co644 2.216 . S
O645 C652 1.247 . S
O646 Co644 2.091 . S
O646 C652 1.261 . S
C647 O656 1.247 . S
C647 O657 1.272 . S
O648 Co644 2.004 . S
O648 C653 1.259 . S
Co649 O650 2.061 . S
Co649 O655 2.052 . S
Co649 O657 2.135 . S
O650 Co649 2.061 . S
O650 C653 1.235 . S
C651 O654 1.238 . S
C651 O655 1.241 . S
C652 O645 1.247 . S
C652 O646 1.261 . S
C653 O648 1.259 . S
C653 O650 1.235 . S
O654 Co644 2.021 . S
O654 C651 1.238 . S
O655 Co649 2.052 . S
O655 C651 1.241 . S
O656 Co644 2.137 . S
O656 C647 1.247 . S
O657 Co644 2.244 . S
O657 C647 1.272 . S
O657 Co649 2.135 . S
Co658 O659 2.216 . S
Co658 O660 2.091 . S
Co658 O662 2.004 . S
Co658 O668 2.021 . S
Co658 O670 2.137 . S
Co658 O671 2.244 . S
O659 Co658 2.216 . S
O659 C666 1.247 . S
O660 Co658 2.091 . S
O660 C666 1.261 . S
C661 O670 1.247 . S
C661 O671 1.272 . S
O662 Co658 2.004 . S
O662 C667 1.259 . S
Co663 O664 2.061 . S
Co663 O669 2.052 . S
Co663 O671 2.135 . S
O664 Co663 2.061 . S
O664 C667 1.235 . S
C665 O668 1.238 . S
C665 O669 1.241 . S
C666 O659 1.247 . S
C666 O660 1.261 . S
C667 O662 1.259 . S
C667 O664 1.235 . S
O668 Co658 2.021 . S
O668 C665 1.238 . S
O669 Co663 2.052 . S
O669 C665 1.241 . S
O670 Co658 2.137 . S
O670 C661 1.247 . S
O671 Co658 2.244 . S
O671 C661 1.272 . S
O671 Co663 2.135 . S
H672 C680 0.950 . S
H673 C685 0.950 . S
H674 C682 0.950 . S
H675 C684 0.950 . S
H676 C686 0.950 . S
H677 C688 0.950 . S
H678 C690 0.950 . S
H679 C691 0.950 . S
C680 H672 0.950 . S
C680 C681 1.386 . S
C680 C682 1.391 . S
C681 C680 1.386 . S
C681 C685 1.393 . S
C682 H674 0.950 . S
C682 C680 1.391 . S
C682 C683 1.400 . S
C683 C682 1.400 . S
C683 C684 1.398 . S
C683 C689 1.491 . S
C684 H675 0.950 . S
C684 C683 1.398 . S
C684 C685 1.391 . S
C685 H673 0.950 . S
C685 C681 1.393 . S
C685 C684 1.391 . S
C686 H676 0.950 . S
C686 C687 1.386 . S
C686 C688 1.391 . S
C687 C686 1.386 . S
C687 C691 1.393 . S
C688 H677 0.950 . S
C688 C686 1.391 . S
C688 C689 1.400 . S
C689 C683 1.491 . S
C689 C688 1.400 . S
C689 C690 1.398 . S
C690 H678 0.950 . S
C690 C689 1.398 . S
C690 C691 1.391 . S
C691 H679 0.950 . S
C691 C687 1.393 . S
C691 C690 1.391 . S
H692 C700 0.950 . S
H693 C705 0.950 . S
H694 C702 0.950 . S
H695 C704 0.950 . S
H696 C706 0.950 . S
H697 C708 0.950 . S
H698 C710 0.950 . S
H699 C711 0.950 . S
C700 H692 0.950 . S
C700 C701 1.386 . S
C700 C702 1.391 . S
C701 C700 1.386 . S
C701 C705 1.393 . S
C702 H694 0.950 . S
C702 C700 1.391 . S
C702 C703 1.400 . S
C703 C702 1.400 . S
C703 C704 1.398 . S
C703 C709 1.491 . S
C704 H695 0.950 . S
C704 C703 1.398 . S
C704 C705 1.391 . S
C705 H693 0.950 . S
C705 C701 1.393 . S
C705 C704 1.391 . S
C706 H696 0.950 . S
C706 C707 1.386 . S
C706 C708 1.391 . S
C707 C706 1.386 . S
C707 C711 1.393 . S
C708 H697 0.950 . S
C708 C706 1.391 . S
C708 C709 1.400 . S
C709 C703 1.491 . S
C709 C708 1.400 . S
C709 C710 1.398 . S
C710 H698 0.950 . S
C710 C709 1.398 . S
C710 C711 1.391 . S
C711 H699 0.950 . S
C711 C707 1.393 . S
C711 C710 1.391 . S
H712 C720 0.950 . S
H713 C725 0.950 . S
H714 C722 0.950 . S
H715 C724 0.950 . S
H716 C726 0.950 . S
H717 C728 0.950 . S
H718 C730 0.950 . S
H719 C731 0.950 . S
C720 H712 0.950 . S
C720 C721 1.386 . S
C720 C722 1.391 . S
C721 C720 1.386 . S
C721 C725 1.393 . S
C722 H714 0.950 . S
C722 C720 1.391 . S
C722 C723 1.400 . S
C723 C722 1.400 . S
C723 C724 1.398 . S
C723 C729 1.491 . S
C724 H715 0.950 . S
C724 C723 1.398 . S
C724 C725 1.391 . S
C725 H713 0.950 . S
C725 C721 1.393 . S
C725 C724 1.391 . S
C726 H716 0.950 . S
C726 C727 1.386 . S
C726 C728 1.391 . S
C727 C726 1.386 . S
C727 C731 1.393 . S
C728 H717 0.950 . S
C728 C726 1.391 . S
C728 C729 1.400 . S
C729 C723 1.491 . S
C729 C728 1.400 . S
C729 C730 1.398 . S
C730 H718 0.950 . S
C730 C729 1.398 . S
C730 C731 1.391 . S
C731 H719 0.950 . S
C731 C727 1.393 . S
C731 C730 1.391 . S
H732 C740 0.950 . S
H733 C745 0.950 . S
H734 C742 0.950 . S
H735 C744 0.950 . S
H736 C746 0.950 . S
H737 C748 0.950 . S
H738 C750 0.950 . S
H739 C751 0.950 . S
C740 H732 0.950 . S
C740 C741 1.386 . S
C740 C742 1.391 . S
C741 C740 1.386 . S
C741 C745 1.393 . S
C742 H734 0.950 . S
C742 C740 1.391 . S
C742 C743 1.400 . S
C743 C742 1.400 . S
C743 C744 1.398 . S
C743 C749 1.491 . S
C744 H735 0.950 . S
C744 C743 1.398 . S
C744 C745 1.391 . S
C745 H733 0.950 . S
C745 C741 1.393 . S
C745 C744 1.391 . S
C746 H736 0.950 . S
C746 C747 1.386 . S
C746 C748 1.391 . S
C747 C746 1.386 . S
C747 C751 1.393 . S
C748 H737 0.950 . S
C748 C746 1.391 . S
C748 C749 1.400 . S
C749 C743 1.491 . S
C749 C748 1.400 . S
C749 C750 1.398 . S
C750 H738 0.950 . S
C750 C749 1.398 . S
C750 C751 1.391 . S
C751 H739 0.950 . S
C751 C747 1.393 . S
C751 C750 1.391 . S
H752 C760 0.950 . S
H753 C765 0.950 . S
H754 C762 0.950 . S
H755 C764 0.950 . S
H756 C766 0.950 . S
H757 C768 0.950 . S
H758 C770 0.950 . S
H759 C771 0.950 . S
C760 H752 0.950 . S
C760 C761 1.386 . S
C760 C762 1.391 . S
C761 C760 1.386 . S
C761 C765 1.393 . S
C762 H754 0.950 . S
C762 C760 1.391 . S
C762 C763 1.400 . S
C763 C762 1.400 . S
C763 C764 1.398 . S
C763 C769 1.491 . S
C764 H755 0.950 . S
C764 C763 1.398 . S
C764 C765 1.391 . S
C765 H753 0.950 . S
C765 C761 1.393 . S
C765 C764 1.391 . S
C766 H756 0.950 . S
C766 C767 1.386 . S
C766 C768 1.391 . S
C767 C766 1.386 . S
C767 C771 1.393 . S
C768 H757 0.950 . S
C768 C766 1.391 . S
C768 C769 1.400 . S
C769 C763 1.491 . S
C769 C768 1.400 . S
C769 C770 1.398 . S
C770 H758 0.950 . S
C770 C769 1.398 . S
C770 C771 1.391 . S
C771 H759 0.950 . S
C771 C767 1.393 . S
C771 C770 1.391 . S
H772 C780 0.950 . S
H773 C785 0.950 . S
H774 C782 0.950 . S
H775 C784 0.950 . S
H776 C786 0.950 . S
H777 C788 0.950 . S
H778 C790 0.950 . S
H779 C791 0.950 . S
C780 H772 0.950 . S
C780 C781 1.386 . S
C780 C782 1.391 . S
C781 C780 1.386 . S
C781 C785 1.393 . S
C782 H774 0.950 . S
C782 C780 1.391 . S
C782 C783 1.400 . S
C783 C782 1.400 . S
C783 C784 1.398 . S
C783 C789 1.491 . S
C784 H775 0.950 . S
C784 C783 1.398 . S
C784 C785 1.391 . S
C785 H773 0.950 . S
C785 C781 1.393 . S
C785 C784 1.391 . S
C786 H776 0.950 . S
C786 C787 1.386 . S
C786 C788 1.391 . S
C787 C786 1.386 . S
C787 C791 1.393 . S
C788 H777 0.950 . S
C788 C786 1.391 . S
C788 C789 1.400 . S
C789 C783 1.491 . S
C789 C788 1.400 . S
C789 C790 1.398 . S
C790 H778 0.950 . S
C790 C789 1.398 . S
C790 C791 1.391 . S
C791 H779 0.950 . S
C791 C787 1.393 . S
C791 C790 1.391 . S
H792 C800 0.950 . S
H793 C805 0.950 . S
H794 C802 0.950 . S
H795 C804 0.950 . S
H796 C806 0.950 . S
H797 C808 0.950 . S
H798 C810 0.950 . S
H799 C811 0.950 . S
C800 H792 0.950 . S
C800 C801 1.386 . S
C800 C802 1.391 . S
C801 C800 1.386 . S
C801 C805 1.393 . S
C802 H794 0.950 . S
C802 C800 1.391 . S
C802 C803 1.400 . S
C803 C802 1.400 . S
C803 C804 1.398 . S
C803 C809 1.491 . S
C804 H795 0.950 . S
C804 C803 1.398 . S
C804 C805 1.391 . S
C805 H793 0.950 . S
C805 C801 1.393 . S
C805 C804 1.391 . S
C806 H796 0.950 . S
C806 C807 1.386 . S
C806 C808 1.391 . S
C807 C806 1.386 . S
C807 C811 1.393 . S
C808 H797 0.950 . S
C808 C806 1.391 . S
C808 C809 1.400 . S
C809 C803 1.491 . S
C809 C808 1.400 . S
C809 C810 1.398 . S
C810 H798 0.950 . S
C810 C809 1.398 . S
C810 C811 1.391 . S
C811 H799 0.950 . S
C811 C807 1.393 . S
C811 C810 1.391 . S
H812 C820 0.950 . S
H813 C825 0.950 . S
H814 C822 0.950 . S
H815 C824 0.950 . S
H816 C826 0.950 . S
H817 C828 0.950 . S
H818 C830 0.950 . S
H819 C831 0.950 . S
C820 H812 0.950 . S
C820 C821 1.386 . S
C820 C822 1.391 . S
C821 C820 1.386 . S
C821 C825 1.393 . S
C822 H814 0.950 . S
C822 C820 1.391 . S
C822 C823 1.400 . S
C823 C822 1.400 . S
C823 C824 1.398 . S
C823 C829 1.491 . S
C824 H815 0.950 . S
C824 C823 1.398 . S
C824 C825 1.391 . S
C825 H813 0.950 . S
C825 C821 1.393 . S
C825 C824 1.391 . S
C826 H816 0.950 . S
C826 C827 1.386 . S
C826 C828 1.391 . S
C827 C826 1.386 . S
C827 C831 1.393 . S
C828 H817 0.950 . S
C828 C826 1.391 . S
C828 C829 1.400 . S
C829 C823 1.491 . S
C829 C828 1.400 . S
C829 C830 1.398 . S
C830 H818 0.950 . S
C830 C829 1.398 . S
C830 C831 1.391 . S
C831 H819 0.950 . S
C831 C827 1.393 . S
C831 C830 1.391 . S
H832 C840 0.950 . S
H833 C845 0.950 . S
H834 C842 0.950 . S
H835 C844 0.950 . S
H836 C846 0.950 . S
H837 C848 0.950 . S
H838 C850 0.950 . S
H839 C851 0.950 . S
C840 H832 0.950 . S
C840 C841 1.386 . S
C840 C842 1.391 . S
C841 C840 1.386 . S
C841 C845 1.393 . S
C842 H834 0.950 . S
C842 C840 1.391 . S
C842 C843 1.400 . S
C843 C842 1.400 . S
C843 C844 1.398 . S
C843 C849 1.491 . S
C844 H835 0.950 . S
C844 C843 1.398 . S
C844 C845 1.391 . S
C845 H833 0.950 . S
C845 C841 1.393 . S
C845 C844 1.391 . S
C846 H836 0.950 . S
C846 C847 1.386 . S
C846 C848 1.391 . S
C847 C846 1.386 . S
C847 C851 1.393 . S
C848 H837 0.950 . S
C848 C846 1.391 . S
C848 C849 1.400 . S
C849 C843 1.491 . S
C849 C848 1.400 . S
C849 C850 1.398 . S
C850 H838 0.950 . S
C850 C849 1.398 . S
C850 C851 1.391 . S
C851 H839 0.950 . S
C851 C847 1.393 . S
C851 C850 1.391 . S
H852 C860 0.950 . S
H853 C865 0.950 . S
H854 C862 0.950 . S
H855 C864 0.950 . S
H856 C866 0.950 . S
H857 C868 0.950 . S
H858 C870 0.950 . S
H859 C871 0.950 . S
C860 H852 0.950 . S
C860 C861 1.386 . S
C860 C862 1.391 . S
C861 C860 1.386 . S
C861 C865 1.393 . S
C862 H854 0.950 . S
C862 C860 1.391 . S
C862 C863 1.400 . S
C863 C862 1.400 . S
C863 C864 1.398 . S
C863 C869 1.491 . S
C864 H855 0.950 . S
C864 C863 1.398 . S
C864 C865 1.391 . S
C865 H853 0.950 . S
C865 C861 1.393 . S
C865 C864 1.391 . S
C866 H856 0.950 . S
C866 C867 1.386 . S
C866 C868 1.391 . S
C867 C866 1.386 . S
C867 C871 1.393 . S
C868 H857 0.950 . S
C868 C866 1.391 . S
C868 C869 1.400 . S
C869 C863 1.491 . S
C869 C868 1.400 . S
C869 C870 1.398 . S
C870 H858 0.950 . S
C870 C869 1.398 . S
C870 C871 1.391 . S
C871 H859 0.950 . S
C871 C867 1.393 . S
C871 C870 1.391 . S
H872 C880 0.950 . S
H873 C885 0.950 . S
H874 C882 0.950 . S
H875 C884 0.950 . S
H876 C886 0.950 . S
H877 C888 0.950 . S
H878 C890 0.950 . S
H879 C891 0.950 . S
C880 H872 0.950 . S
C880 C881 1.386 . S
C880 C882 1.391 . S
C881 C880 1.386 . S
C881 C885 1.393 . S
C882 H874 0.950 . S
C882 C880 1.391 . S
C882 C883 1.400 . S
C883 C882 1.400 . S
C883 C884 1.398 . S
C883 C889 1.491 . S
C884 H875 0.950 . S
C884 C883 1.398 . S
C884 C885 1.391 . S
C885 H873 0.950 . S
C885 C881 1.393 . S
C885 C884 1.391 . S
C886 H876 0.950 . S
C886 C887 1.386 . S
C886 C888 1.391 . S
C887 C886 1.386 . S
C887 C891 1.393 . S
C888 H877 0.950 . S
C888 C886 1.391 . S
C888 C889 1.400 . S
C889 C883 1.491 . S
C889 C888 1.400 . S
C889 C890 1.398 . S
C890 H878 0.950 . S
C890 C889 1.398 . S
C890 C891 1.391 . S
C891 H879 0.950 . S
C891 C887 1.393 . S
C891 C890 1.391 . S
H892 C900 0.950 . S
H893 C905 0.950 . S
H894 C902 0.950 . S
H895 C904 0.950 . S
H896 C906 0.950 . S
H897 C908 0.950 . S
H898 C910 0.950 . S
H899 C911 0.950 . S
C900 H892 0.950 . S
C900 C901 1.386 . S
C900 C902 1.391 . S
C901 C900 1.386 . S
C901 C905 1.393 . S
C902 H894 0.950 . S
C902 C900 1.391 . S
C902 C903 1.400 . S
C903 C902 1.400 . S
C903 C904 1.398 . S
C903 C909 1.491 . S
C904 H895 0.950 . S
C904 C903 1.398 . S
C904 C905 1.391 . S
C905 H893 0.950 . S
C905 C901 1.393 . S
C905 C904 1.391 . S
C906 H896 0.950 . S
C906 C907 1.386 . S
C906 C908 1.391 . S
C907 C906 1.386 . S
C907 C911 1.393 . S
C908 H897 0.950 . S
C908 C906 1.391 . S
C908 C909 1.400 . S
C909 C903 1.491 . S
C909 C908 1.400 . S
C909 C910 1.398 . S
C910 H898 0.950 . S
C910 C909 1.398 . S
C910 C911 1.391 . S
C911 H899 0.950 . S
C911 C907 1.393 . S
C911 C910 1.391 . S
H912 C920 0.950 . S
H913 C925 0.950 . S
H914 C922 0.950 . S
H915 C924 0.950 . S
H916 C926 0.950 . S
H917 C928 0.950 . S
H918 C930 0.950 . S
H919 C931 0.950 . S
C920 H912 0.950 . S
C920 C921 1.386 . S
C920 C922 1.391 . S
C921 C920 1.386 . S
C921 C925 1.393 . S
C922 H914 0.950 . S
C922 C920 1.391 . S
C922 C923 1.400 . S
C923 C922 1.400 . S
C923 C924 1.398 . S
C923 C929 1.491 . S
C924 H915 0.950 . S
C924 C923 1.398 . S
C924 C925 1.391 . S
C925 H913 0.950 . S
C925 C921 1.393 . S
C925 C924 1.391 . S
C926 H916 0.950 . S
C926 C927 1.386 . S
C926 C928 1.391 . S
C927 C926 1.386 . S
C927 C931 1.393 . S
C928 H917 0.950 . S
C928 C926 1.391 . S
C928 C929 1.400 . S
C929 C923 1.491 . S
C929 C928 1.400 . S
C929 C930 1.398 . S
C930 H918 0.950 . S
C930 C929 1.398 . S
C930 C931 1.391 . S
C931 H919 0.950 . S
C931 C927 1.393 . S
C931 C930 1.391 . S
H932 C940 0.950 . S
H933 C945 0.950 . S
H934 C942 0.950 . S
H935 C944 0.950 . S
H936 C946 0.950 . S
H937 C948 0.950 . S
H938 C950 0.950 . S
H939 C951 0.950 . S
C940 H932 0.950 . S
C940 C941 1.386 . S
C940 C942 1.391 . S
C941 C940 1.386 . S
C941 C945 1.393 . S
C942 H934 0.950 . S
C942 C940 1.391 . S
C942 C943 1.400 . S
C943 C942 1.400 . S
C943 C944 1.398 . S
C943 C949 1.491 . S
C944 H935 0.950 . S
C944 C943 1.398 . S
C944 C945 1.391 . S
C945 H933 0.950 . S
C945 C941 1.393 . S
C945 C944 1.391 . S
C946 H936 0.950 . S
C946 C947 1.386 . S
C946 C948 1.391 . S
C947 C946 1.386 . S
C947 C951 1.393 . S
C948 H937 0.950 . S
C948 C946 1.391 . S
C948 C949 1.400 . S
C949 C943 1.491 . S
C949 C948 1.400 . S
C949 C950 1.398 . S
C950 H938 0.950 . S
C950 C949 1.398 . S
C950 C951 1.391 . S
C951 H939 0.950 . S
C951 C947 1.393 . S
C951 C950 1.391 . S
H952 C960 0.950 . S
H953 C965 0.950 . S
H954 C962 0.950 . S
H955 C964 0.950 . S
H956 C966 0.950 . S
H957 C968 0.950 . S
H958 C970 0.950 . S
H959 C971 0.950 . S
C960 H952 0.950 . S
C960 C961 1.386 . S
C960 C962 1.391 . S
C961 C960 1.386 . S
C961 C965 1.393 . S
C962 H954 0.950 . S
C962 C960 1.391 . S
C962 C963 1.400 . S
C963 C962 1.400 . S
C963 C964 1.398 . S
C963 C969 1.491 . S
C964 H955 0.950 . S
C964 C963 1.398 . S
C964 C965 1.391 . S
C965 H953 0.950 . S
C965 C961 1.393 . S
C965 C964 1.391 . S
C966 H956 0.950 . S
C966 C967 1.386 . S
C966 C968 1.391 . S
C967 C966 1.386 . S
C967 C971 1.393 . S
C968 H957 0.950 . S
C968 C966 1.391 . S
C968 C969 1.400 . S
C969 C963 1.491 . S
C969 C968 1.400 . S
C969 C970 1.398 . S
C970 H958 0.950 . S
C970 C969 1.398 . S
C970 C971 1.391 . S
C971 H959 0.950 . S
C971 C967 1.393 . S
C971 C970 1.391 . S
H972 C980 0.950 . S
H973 C985 0.950 . S
H974 C982 0.950 . S
H975 C984 0.950 . S
H976 C986 0.950 . S
H977 C988 0.950 . S
H978 C990 0.950 . S
H979 C991 0.950 . S
C980 H972 0.950 . S
C980 C981 1.386 . S
C980 C982 1.391 . S
C981 C980 1.386 . S
C981 C985 1.393 . S
C982 H974 0.950 . S
C982 C980 1.391 . S
C982 C983 1.400 . S
C983 C982 1.400 . S
C983 C984 1.398 . S
C983 C989 1.491 . S
C984 H975 0.950 . S
C984 C983 1.398 . S
C984 C985 1.391 . S
C985 H973 0.950 . S
C985 C981 1.393 . S
C985 C984 1.391 . S
C986 H976 0.950 . S
C986 C987 1.386 . S
C986 C988 1.391 . S
C987 C986 1.386 . S
C987 C991 1.393 . S
C988 H977 0.950 . S
C988 C986 1.391 . S
C988 C989 1.400 . S
C989 C983 1.491 . S
C989 C988 1.400 . S
C989 C990 1.398 . S
C990 H978 0.950 . S
C990 C989 1.398 . S
C990 C991 1.391 . S
C991 H979 0.950 . S
C991 C987 1.393 . S
C991 C990 1.391 . S
H992 C1000 0.950 . S
H993 C1005 0.950 . S
H994 C1002 0.950 . S
H995 C1004 0.950 . S
H996 C1006 0.950 . S
H997 C1008 0.950 . S
H998 C1010 0.950 . S
H999 C1011 0.950 . S
C1000 H992 0.950 . S
C1000 C1001 1.386 . S
C1000 C1002 1.391 . S
C1001 C1000 1.386 . S
C1001 C1005 1.393 . S
C1002 H994 0.950 . S
C1002 C1000 1.391 . S
C1002 C1003 1.400 . S
C1003 C1002 1.400 . S
C1003 C1004 1.398 . S
C1003 C1009 1.491 . S
C1004 H995 0.950 . S
C1004 C1003 1.398 . S
C1004 C1005 1.391 . S
C1005 H993 0.950 . S
C1005 C1001 1.393 . S
C1005 C1004 1.391 . S
C1006 H996 0.950 . S
C1006 C1007 1.386 . S
C1006 C1008 1.391 . S
C1007 C1006 1.386 . S
C1007 C1011 1.393 . S
C1008 H997 0.950 . S
C1008 C1006 1.391 . S
C1008 C1009 1.400 . S
C1009 C1003 1.491 . S
C1009 C1008 1.400 . S
C1009 C1010 1.398 . S
C1010 H998 0.950 . S
C1010 C1009 1.398 . S
C1010 C1011 1.391 . S
C1011 H999 0.950 . S
C1011 C1007 1.393 . S
C1011 C1010 1.391 . S
H1012 C1020 0.950 . S
H1013 C1025 0.950 . S
H1014 C1022 0.950 . S
H1015 C1024 0.950 . S
H1016 C1026 0.950 . S
H1017 C1028 0.950 . S
H1018 C1030 0.950 . S
H1019 C1031 0.950 . S
C1020 H1012 0.950 . S
C1020 C1021 1.386 . S
C1020 C1022 1.391 . S
C1021 C1020 1.386 . S
C1021 C1025 1.393 . S
C1022 H1014 0.950 . S
C1022 C1020 1.391 . S
C1022 C1023 1.400 . S
C1023 C1022 1.400 . S
C1023 C1024 1.398 . S
C1023 C1029 1.491 . S
C1024 H1015 0.950 . S
C1024 C1023 1.398 . S
C1024 C1025 1.391 . S
C1025 H1013 0.950 . S
C1025 C1021 1.393 . S
C1025 C1024 1.391 . S
C1026 H1016 0.950 . S
C1026 C1027 1.386 . S
C1026 C1028 1.391 . S
C1027 C1026 1.386 . S
C1027 C1031 1.393 . S
C1028 H1017 0.950 . S
C1028 C1026 1.391 . S
C1028 C1029 1.400 . S
C1029 C1023 1.491 . S
C1029 C1028 1.400 . S
C1029 C1030 1.398 . S
C1030 H1018 0.950 . S
C1030 C1029 1.398 . S
C1030 C1031 1.391 . S
C1031 H1019 0.950 . S
C1031 C1027 1.393 . S
C1031 C1030 1.391 . S
H1032 C1040 0.950 . S
H1033 C1045 0.950 . S
H1034 C1042 0.950 . S
H1035 C1044 0.950 . S
H1036 C1046 0.950 . S
H1037 C1048 0.950 . S
H1038 C1050 0.950 . S
H1039 C1051 0.950 . S
C1040 H1032 0.950 . S
C1040 C1041 1.386 . S
C1040 C1042 1.391 . S
C1041 C1040 1.386 . S
C1041 C1045 1.393 . S
C1042 H1034 0.950 . S
C1042 C1040 1.391 . S
C1042 C1043 1.400 . S
C1043 C1042 1.400 . S
C1043 C1044 1.398 . S
C1043 C1049 1.491 . S
C1044 H1035 0.950 . S
C1044 C1043 1.398 . S
C1044 C1045 1.391 . S
C1045 H1033 0.950 . S
C1045 C1041 1.393 . S
C1045 C1044 1.391 . S
C1046 H1036 0.950 . S
C1046 C1047 1.386 . S
C1046 C1048 1.391 . S
C1047 C1046 1.386 . S
C1047 C1051 1.393 . S
C1048 H1037 0.950 . S
C1048 C1046 1.391 . S
C1048 C1049 1.400 . S
C1049 C1043 1.491 . S
C1049 C1048 1.400 . S
C1049 C1050 1.398 . S
C1050 H1038 0.950 . S
C1050 C1049 1.398 . S
C1050 C1051 1.391 . S
C1051 H1039 0.950 . S
C1051 C1047 1.393 . S
C1051 C1050 1.391 . S
H1052 C1060 0.950 . S
H1053 C1065 0.950 . S
H1054 C1062 0.950 . S
H1055 C1064 0.950 . S
H1056 C1066 0.950 . S
H1057 C1068 0.950 . S
H1058 C1070 0.950 . S
H1059 C1071 0.950 . S
C1060 H1052 0.950 . S
C1060 C1061 1.386 . S
C1060 C1062 1.391 . S
C1061 C1060 1.386 . S
C1061 C1065 1.393 . S
C1062 H1054 0.950 . S
C1062 C1060 1.391 . S
C1062 C1063 1.400 . S
C1063 C1062 1.400 . S
C1063 C1064 1.398 . S
C1063 C1069 1.491 . S
C1064 H1055 0.950 . S
C1064 C1063 1.398 . S
C1064 C1065 1.391 . S
C1065 H1053 0.950 . S
C1065 C1061 1.393 . S
C1065 C1064 1.391 . S
C1066 H1056 0.950 . S
C1066 C1067 1.386 . S
C1066 C1068 1.391 . S
C1067 C1066 1.386 . S
C1067 C1071 1.393 . S
C1068 H1057 0.950 . S
C1068 C1066 1.391 . S
C1068 C1069 1.400 . S
C1069 C1063 1.491 . S
C1069 C1068 1.400 . S
C1069 C1070 1.398 . S
C1070 H1058 0.950 . S
C1070 C1069 1.398 . S
C1070 C1071 1.391 . S
C1071 H1059 0.950 . S
C1071 C1067 1.393 . S
C1071 C1070 1.391 . S
H1072 C1080 0.950 . S
H1073 C1085 0.950 . S
H1074 C1082 0.950 . S
H1075 C1084 0.950 . S
H1076 C1086 0.950 . S
H1077 C1088 0.950 . S
H1078 C1090 0.950 . S
H1079 C1091 0.950 . S
C1080 H1072 0.950 . S
C1080 C1081 1.386 . S
C1080 C1082 1.391 . S
C1081 C1080 1.386 . S
C1081 C1085 1.393 . S
C1082 H1074 0.950 . S
C1082 C1080 1.391 . S
C1082 C1083 1.400 . S
C1083 C1082 1.400 . S
C1083 C1084 1.398 . S
C1083 C1089 1.491 . S
C1084 H1075 0.950 . S
C1084 C1083 1.398 . S
C1084 C1085 1.391 . S
C1085 H1073 0.950 . S
C1085 C1081 1.393 . S
C1085 C1084 1.391 . S
C1086 H1076 0.950 . S
C1086 C1087 1.386 . S
C1086 C1088 1.391 . S
C1087 C1086 1.386 . S
C1087 C1091 1.393 . S
C1088 H1077 0.950 . S
C1088 C1086 1.391 . S
C1088 C1089 1.400 . S
C1089 C1083 1.491 . S
C1089 C1088 1.400 . S
C1089 C1090 1.398 . S
C1090 H1078 0.950 . S
C1090 C1089 1.398 . S
C1090 C1091 1.391 . S
C1091 H1079 0.950 . S
C1091 C1087 1.393 . S
C1091 C1090 1.391 . S
H1092 C1100 0.950 . S
H1093 C1105 0.950 . S
H1094 C1102 0.950 . S
H1095 C1104 0.950 . S
H1096 C1106 0.950 . S
H1097 C1108 0.950 . S
H1098 C1110 0.950 . S
H1099 C1111 0.950 . S
C1100 H1092 0.950 . S
C1100 C1101 1.386 . S
C1100 C1102 1.391 . S
C1101 C1100 1.386 . S
C1101 C1105 1.393 . S
C1102 H1094 0.950 . S
C1102 C1100 1.391 . S
C1102 C1103 1.400 . S
C1103 C1102 1.400 . S
C1103 C1104 1.398 . S
C1103 C1109 1.491 . S
C1104 H1095 0.950 . S
C1104 C1103 1.398 . S
C1104 C1105 1.391 . S
C1105 H1093 0.950 . S
C1105 C1101 1.393 . S
C1105 C1104 1.391 . S
C1106 H1096 0.950 . S
C1106 C1107 1.386 . S
C1106 C1108 1.391 . S
C1107 C1106 1.386 . S
C1107 C1111 1.393 . S
C1108 H1097 0.950 . S
C1108 C1106 1.391 . S
C1108 C1109 1.400 . S
C1109 C1103 1.491 . S
C1109 C1108 1.400 . S
C1109 C1110 1.398 . S
C1110 H1098 0.950 . S
C1110 C1109 1.398 . S
C1110 C1111 1.391 . S
C1111 H1099 0.950 . S
C1111 C1107 1.393 . S
C1111 C1110 1.391 . S
H1112 C1120 0.950 . S
H1113 C1125 0.950 . S
H1114 C1122 0.950 . S
H1115 C1124 0.950 . S
H1116 C1126 0.950 . S
H1117 C1128 0.950 . S
H1118 C1130 0.950 . S
H1119 C1131 0.950 . S
C1120 H1112 0.950 . S
C1120 C1121 1.386 . S
C1120 C1122 1.391 . S
C1121 C1120 1.386 . S
C1121 C1125 1.393 . S
C1122 H1114 0.950 . S
C1122 C1120 1.391 . S
C1122 C1123 1.400 . S
C1123 C1122 1.400 . S
C1123 C1124 1.398 . S
C1123 C1129 1.491 . S
C1124 H1115 0.950 . S
C1124 C1123 1.398 . S
C1124 C1125 1.391 . S
C1125 H1113 0.950 . S
C1125 C1121 1.393 . S
C1125 C1124 1.391 . S
C1126 H1116 0.950 . S
C1126 C1127 1.386 . S
C1126 C1128 1.391 . S
C1127 C1126 1.386 . S
C1127 C1131 1.393 . S
C1128 H1117 0.950 . S
C1128 C1126 1.391 . S
C1128 C1129 1.400 . S
C1129 C1123 1.491 . S
C1129 C1128 1.400 . S
C1129 C1130 1.398 . S
C1130 H1118 0.950 . S
C1130 C1129 1.398 . S
C1130 C1131 1.391 . S
C1131 H1119 0.950 . S
C1131 C1127 1.393 . S
C1131 C1130 1.391 . S
H1132 C1140 0.950 . S
H1133 C1145 0.950 . S
H1134 C1142 0.950 . S
H1135 C1144 0.950 . S
H1136 C1146 0.950 . S
H1137 C1148 0.950 . S
H1138 C1150 0.950 . S
H1139 C1151 0.950 . S
C1140 H1132 0.950 . S
C1140 C1141 1.386 . S
C1140 C1142 1.391 . S
C1141 C1140 1.386 . S
C1141 C1145 1.393 . S
C1142 H1134 0.950 . S
C1142 C1140 1.391 . S
C1142 C1143 1.400 . S
C1143 C1142 1.400 . S
C1143 C1144 1.398 . S
C1143 C1149 1.491 . S
C1144 H1135 0.950 . S
C1144 C1143 1.398 . S
C1144 C1145 1.391 . S
C1145 H1133 0.950 . S
C1145 C1141 1.393 . S
C1145 C1144 1.391 . S
C1146 H1136 0.950 . S
C1146 C1147 1.386 . S
C1146 C1148 1.391 . S
C1147 C1146 1.386 . S
C1147 C1151 1.393 . S
C1148 H1137 0.950 . S
C1148 C1146 1.391 . S
C1148 C1149 1.400 . S
C1149 C1143 1.491 . S
C1149 C1148 1.400 . S
C1149 C1150 1.398 . S
C1150 H1138 0.950 . S
C1150 C1149 1.398 . S
C1150 C1151 1.391 . S
C1151 H1139 0.950 . S
C1151 C1147 1.393 . S
C1151 C1150 1.391 . S
H1152 C1160 0.950 . S
H1153 C1165 0.950 . S
H1154 C1162 0.950 . S
H1155 C1164 0.950 . S
H1156 C1166 0.950 . S
H1157 C1168 0.950 . S
H1158 C1170 0.950 . S
H1159 C1171 0.950 . S
C1160 H1152 0.950 . S
C1160 C1161 1.386 . S
C1160 C1162 1.391 . S
C1161 C1160 1.386 . S
C1161 C1165 1.393 . S
C1162 H1154 0.950 . S
C1162 C1160 1.391 . S
C1162 C1163 1.400 . S
C1163 C1162 1.400 . S
C1163 C1164 1.398 . S
C1163 C1169 1.491 . S
C1164 H1155 0.950 . S
C1164 C1163 1.398 . S
C1164 C1165 1.391 . S
C1165 H1153 0.950 . S
C1165 C1161 1.393 . S
C1165 C1164 1.391 . S
C1166 H1156 0.950 . S
C1166 C1167 1.386 . S
C1166 C1168 1.391 . S
C1167 C1166 1.386 . S
C1167 C1171 1.393 . S
C1168 H1157 0.950 . S
C1168 C1166 1.391 . S
C1168 C1169 1.400 . S
C1169 C1163 1.491 . S
C1169 C1168 1.400 . S
C1169 C1170 1.398 . S
C1170 H1158 0.950 . S
C1170 C1169 1.398 . S
C1170 C1171 1.391 . S
C1171 H1159 0.950 . S
C1171 C1167 1.393 . S
C1171 C1170 1.391 . S
H1172 C1180 0.950 . S
H1173 C1185 0.950 . S
H1174 C1182 0.950 . S
H1175 C1184 0.950 . S
H1176 C1186 0.950 . S
H1177 C1188 0.950 . S
H1178 C1190 0.950 . S
H1179 C1191 0.950 . S
C1180 H1172 0.950 . S
C1180 C1181 1.386 . S
C1180 C1182 1.391 . S
C1181 C1180 1.386 . S
C1181 C1185 1.393 . S
C1182 H1174 0.950 . S
C1182 C1180 1.391 . S
C1182 C1183 1.400 . S
C1183 C1182 1.400 . S
C1183 C1184 1.398 . S
C1183 C1189 1.491 1_556 S
C1184 H1175 0.950 . S
C1184 C1183 1.398 . S
C1184 C1185 1.391 . S
C1185 H1173 0.950 . S
C1185 C1181 1.393 . S
C1185 C1184 1.391 . S
C1186 H1176 0.950 . S
C1186 C1187 1.386 . S
C1186 C1188 1.391 . S
C1187 C1186 1.386 . S
C1187 C1191 1.393 . S
C1188 H1177 0.950 . S
C1188 C1186 1.391 . S
C1188 C1189 1.400 . S
C1189 C1183 1.491 1_554 S
C1189 C1188 1.400 . S
C1189 C1190 1.398 . S
C1190 H1178 0.950 . S
C1190 C1189 1.398 . S
C1190 C1191 1.391 . S
C1191 H1179 0.950 . S
C1191 C1187 1.393 . S
C1191 C1190 1.391 . S
H1192 C1200 0.950 . S
H1193 C1205 0.950 . S
H1194 C1202 0.950 . S
H1195 C1204 0.950 . S
H1196 C1206 0.950 . S
H1197 C1208 0.950 . S
H1198 C1210 0.950 . S
H1199 C1211 0.950 . S
C1200 H1192 0.950 . S
C1200 C1201 1.386 . S
C1200 C1202 1.391 . S
C1201 C1200 1.386 . S
C1201 C1205 1.393 . S
C1202 H1194 0.950 . S
C1202 C1200 1.391 . S
C1202 C1203 1.400 . S
C1203 C1202 1.400 . S
C1203 C1204 1.398 . S
C1203 C1209 1.491 . S
C1204 H1195 0.950 . S
C1204 C1203 1.398 . S
C1204 C1205 1.391 . S
C1205 H1193 0.950 . S
C1205 C1201 1.393 . S
C1205 C1204 1.391 . S
C1206 H1196 0.950 . S
C1206 C1207 1.386 . S
C1206 C1208 1.391 . S
C1207 C1206 1.386 . S
C1207 C1211 1.393 . S
C1208 H1197 0.950 . S
C1208 C1206 1.391 . S
C1208 C1209 1.400 . S
C1209 C1203 1.491 . S
C1209 C1208 1.400 . S
C1209 C1210 1.398 . S
C1210 H1198 0.950 . S
C1210 C1209 1.398 . S
C1210 C1211 1.391 . S
C1211 H1199 0.950 . S
C1211 C1207 1.393 . S
C1211 C1210 1.391 . S
H1212 C1220 0.950 . S
H1213 C1225 0.950 . S
H1214 C1222 0.950 . S
H1215 C1224 0.950 . S
H1216 C1226 0.950 . S
H1217 C1228 0.950 . S
H1218 C1230 0.950 . S
H1219 C1231 0.950 . S
C1220 H1212 0.950 . S
C1220 C1221 1.386 . S
C1220 C1222 1.391 . S
C1221 C1220 1.386 . S
C1221 C1225 1.393 . S
C1222 H1214 0.950 . S
C1222 C1220 1.391 . S
C1222 C1223 1.400 . S
C1223 C1222 1.400 . S
C1223 C1224 1.398 . S
C1223 C1229 1.491 1_556 S
C1224 H1215 0.950 . S
C1224 C1223 1.398 . S
C1224 C1225 1.391 . S
C1225 H1213 0.950 . S
C1225 C1221 1.393 . S
C1225 C1224 1.391 . S
C1226 H1216 0.950 . S
C1226 C1227 1.386 . S
C1226 C1228 1.391 . S
C1227 C1226 1.386 . S
C1227 C1231 1.393 . S
C1228 H1217 0.950 . S
C1228 C1226 1.391 . S
C1228 C1229 1.400 . S
C1229 C1223 1.491 1_554 S
C1229 C1228 1.400 . S
C1229 C1230 1.398 . S
C1230 H1218 0.950 . S
C1230 C1229 1.398 . S
C1230 C1231 1.391 . S
C1231 H1219 0.950 . S
C1231 C1227 1.393 . S
C1231 C1230 1.391 . S
H1232 C1240 0.950 . S
H1233 C1245 0.950 . S
H1234 C1242 0.950 . S
H1235 C1244 0.950 . S
H1236 C1246 0.950 . S
H1237 C1248 0.950 . S
H1238 C1250 0.950 . S
H1239 C1251 0.950 . S
C1240 H1232 0.950 . S
C1240 C1241 1.386 . S
C1240 C1242 1.391 . S
C1241 C1240 1.386 . S
C1241 C1245 1.393 . S
C1242 H1234 0.950 . S
C1242 C1240 1.391 . S
C1242 C1243 1.400 . S
C1243 C1242 1.400 . S
C1243 C1244 1.398 . S
C1243 C1249 1.491 . S
C1244 H1235 0.950 . S
C1244 C1243 1.398 . S
C1244 C1245 1.391 . S
C1245 H1233 0.950 . S
C1245 C1241 1.393 . S
C1245 C1244 1.391 . S
C1246 H1236 0.950 . S
C1246 C1247 1.386 . S
C1246 C1248 1.391 . S
C1247 C1246 1.386 . S
C1247 C1251 1.393 . S
C1248 H1237 0.950 . S
C1248 C1246 1.391 . S
C1248 C1249 1.400 . S
C1249 C1243 1.491 . S
C1249 C1248 1.400 . S
C1249 C1250 1.398 . S
C1250 H1238 0.950 . S
C1250 C1249 1.398 . S
C1250 C1251 1.391 . S
C1251 H1239 0.950 . S
C1251 C1247 1.393 . S
C1251 C1250 1.391 . S
H1252 C1260 0.950 . S
H1253 C1265 0.950 . S
H1254 C1262 0.950 . S
H1255 C1264 0.950 . S
H1256 C1266 0.950 . S
H1257 C1268 0.950 . S
H1258 C1270 0.950 . S
H1259 C1271 0.950 . S
C1260 H1252 0.950 . S
C1260 C1261 1.386 . S
C1260 C1262 1.391 . S
C1261 C1260 1.386 . S
C1261 C1265 1.393 . S
C1262 H1254 0.950 . S
C1262 C1260 1.391 . S
C1262 C1263 1.400 . S
C1263 C1262 1.400 . S
C1263 C1264 1.398 . S
C1263 C1269 1.491 1_556 S
C1264 H1255 0.950 . S
C1264 C1263 1.398 . S
C1264 C1265 1.391 . S
C1265 H1253 0.950 . S
C1265 C1261 1.393 . S
C1265 C1264 1.391 . S
C1266 H1256 0.950 . S
C1266 C1267 1.386 . S
C1266 C1268 1.391 . S
C1267 C1266 1.386 . S
C1267 C1271 1.393 . S
C1268 H1257 0.950 . S
C1268 C1266 1.391 . S
C1268 C1269 1.400 . S
C1269 C1263 1.491 1_554 S
C1269 C1268 1.400 . S
C1269 C1270 1.398 . S
C1270 H1258 0.950 . S
C1270 C1269 1.398 . S
C1270 C1271 1.391 . S
C1271 H1259 0.950 . S
C1271 C1267 1.393 . S
C1271 C1270 1.391 . S
H1272 C1280 0.950 . S
H1273 C1285 0.950 . S
H1274 C1282 0.950 . S
H1275 C1284 0.950 . S
H1276 C1286 0.950 . S
H1277 C1288 0.950 . S
H1278 C1290 0.950 . S
H1279 C1291 0.950 . S
C1280 H1272 0.950 . S
C1280 C1281 1.386 . S
C1280 C1282 1.391 . S
C1281 C1280 1.386 . S
C1281 C1285 1.393 . S
C1282 H1274 0.950 . S
C1282 C1280 1.391 . S
C1282 C1283 1.400 . S
C1283 C1282 1.400 . S
C1283 C1284 1.398 . S
C1283 C1289 1.491 . S
C1284 H1275 0.950 . S
C1284 C1283 1.398 . S
C1284 C1285 1.391 . S
C1285 H1273 0.950 . S
C1285 C1281 1.393 . S
C1285 C1284 1.391 . S
C1286 H1276 0.950 . S
C1286 C1287 1.386 . S
C1286 C1288 1.391 . S
C1287 C1286 1.386 . S
C1287 C1291 1.393 . S
C1288 H1277 0.950 . S
C1288 C1286 1.391 . S
C1288 C1289 1.400 . S
C1289 C1283 1.491 . S
C1289 C1288 1.400 . S
C1289 C1290 1.398 . S
C1290 H1278 0.950 . S
C1290 C1289 1.398 . S
C1290 C1291 1.391 . S
C1291 H1279 0.950 . S
C1291 C1287 1.393 . S
C1291 C1290 1.391 . S
H1292 C1300 0.950 . S
H1293 C1305 0.950 . S
H1294 C1302 0.950 . S
H1295 C1304 0.950 . S
H1296 C1306 0.950 . S
H1297 C1308 0.950 . S
H1298 C1310 0.950 . S
H1299 C1311 0.950 . S
C1300 H1292 0.950 . S
C1300 C1301 1.386 . S
C1300 C1302 1.391 . S
C1301 C1300 1.386 . S
C1301 C1305 1.393 . S
C1302 H1294 0.950 . S
C1302 C1300 1.391 . S
C1302 C1303 1.400 . S
C1303 C1302 1.400 . S
C1303 C1304 1.398 . S
C1303 C1309 1.491 1_556 S
C1304 H1295 0.950 . S
C1304 C1303 1.398 . S
C1304 C1305 1.391 . S
C1305 H1293 0.950 . S
C1305 C1301 1.393 . S
C1305 C1304 1.391 . S
C1306 H1296 0.950 . S
C1306 C1307 1.386 . S
C1306 C1308 1.391 . S
C1307 C1306 1.386 . S
C1307 C1311 1.393 . S
C1308 H1297 0.950 . S
C1308 C1306 1.391 . S
C1308 C1309 1.400 . S
C1309 C1303 1.491 1_554 S
C1309 C1308 1.400 . S
C1309 C1310 1.398 . S
C1310 H1298 0.950 . S
C1310 C1309 1.398 . S
C1310 C1311 1.391 . S
C1311 H1299 0.950 . S
C1311 C1307 1.393 . S
C1311 C1310 1.391 . S
H1312 C1320 0.950 . S
H1313 C1325 0.950 . S
H1314 C1322 0.950 . S
H1315 C1324 0.950 . S
H1316 C1326 0.950 . S
H1317 C1328 0.950 . S
H1318 C1330 0.950 . S
H1319 C1331 0.950 . S
C1320 H1312 0.950 . S
C1320 C1321 1.386 . S
C1320 C1322 1.391 . S
C1321 C1320 1.386 . S
C1321 C1325 1.393 . S
C1322 H1314 0.950 . S
C1322 C1320 1.391 . S
C1322 C1323 1.400 . S
C1323 C1322 1.400 . S
C1323 C1324 1.398 . S
C1323 C1329 1.491 . S
C1324 H1315 0.950 . S
C1324 C1323 1.398 . S
C1324 C1325 1.391 . S
C1325 H1313 0.950 . S
C1325 C1321 1.393 . S
C1325 C1324 1.391 . S
C1326 H1316 0.950 . S
C1326 C1327 1.386 . S
C1326 C1328 1.391 . S
C1327 C1326 1.386 . S
C1327 C1331 1.393 . S
C1328 H1317 0.950 . S
C1328 C1326 1.391 . S
C1328 C1329 1.400 . S
C1329 C1323 1.491 . S
C1329 C1328 1.400 . S
C1329 C1330 1.398 . S
C1330 H1318 0.950 . S
C1330 C1329 1.398 . S
C1330 C1331 1.391 . S
C1331 H1319 0.950 . S
C1331 C1327 1.393 . S
C1331 C1330 1.391 . S
H1332 C1340 0.950 . S
H1333 C1345 0.950 . S
H1334 C1342 0.950 . S
H1335 C1344 0.950 . S
H1336 C1346 0.950 . S
H1337 C1348 0.950 . S
H1338 C1350 0.950 . S
H1339 C1351 0.950 . S
C1340 H1332 0.950 . S
C1340 C1341 1.386 . S
C1340 C1342 1.391 . S
C1341 C1340 1.386 . S
C1341 C1345 1.393 . S
C1342 H1334 0.950 . S
C1342 C1340 1.391 . S
C1342 C1343 1.400 . S
C1343 C1342 1.400 . S
C1343 C1344 1.398 . S
C1343 C1349 1.491 1_565 S
C1344 H1335 0.950 . S
C1344 C1343 1.398 . S
C1344 C1345 1.391 . S
C1345 H1333 0.950 . S
C1345 C1341 1.393 . S
C1345 C1344 1.391 . S
C1346 H1336 0.950 . S
C1346 C1347 1.386 . S
C1346 C1348 1.391 . S
C1347 C1346 1.386 . S
C1347 C1351 1.393 . S
C1348 H1337 0.950 . S
C1348 C1346 1.391 . S
C1348 C1349 1.400 . S
C1349 C1343 1.491 1_545 S
C1349 C1348 1.400 . S
C1349 C1350 1.398 . S
C1350 H1338 0.950 . S
C1350 C1349 1.398 . S
C1350 C1351 1.391 . S
C1351 H1339 0.950 . S
C1351 C1347 1.393 . S
C1351 C1350 1.391 . S
H1352 C1360 0.950 . S
H1353 C1365 0.950 . S
H1354 C1362 0.950 . S
H1355 C1364 0.950 . S
H1356 C1366 0.950 . S
H1357 C1368 0.950 . S
H1358 C1370 0.950 . S
H1359 C1371 0.950 . S
C1360 H1352 0.950 . S
C1360 C1361 1.386 . S
C1360 C1362 1.391 . S
C1361 C1360 1.386 . S
C1361 C1365 1.393 . S
C1362 H1354 0.950 . S
C1362 C1360 1.391 . S
C1362 C1363 1.400 . S
C1363 C1362 1.400 . S
C1363 C1364 1.398 . S
C1363 C1369 1.491 . S
C1364 H1355 0.950 . S
C1364 C1363 1.398 . S
C1364 C1365 1.391 . S
C1365 H1353 0.950 . S
C1365 C1361 1.393 . S
C1365 C1364 1.391 . S
C1366 H1356 0.950 . S
C1366 C1367 1.386 . S
C1366 C1368 1.391 . S
C1367 C1366 1.386 . S
C1367 C1371 1.393 . S
C1368 H1357 0.950 . S
C1368 C1366 1.391 . S
C1368 C1369 1.400 . S
C1369 C1363 1.491 . S
C1369 C1368 1.400 . S
C1369 C1370 1.398 . S
C1370 H1358 0.950 . S
C1370 C1369 1.398 . S
C1370 C1371 1.391 . S
C1371 H1359 0.950 . S
C1371 C1367 1.393 . S
C1371 C1370 1.391 . S
H1372 C1380 0.950 . S
H1373 C1385 0.950 . S
H1374 C1382 0.950 . S
H1375 C1384 0.950 . S
H1376 C1386 0.950 . S
H1377 C1388 0.950 . S
H1378 C1390 0.950 . S
H1379 C1391 0.950 . S
C1380 H1372 0.950 . S
C1380 C1381 1.386 . S
C1380 C1382 1.391 . S
C1381 C1380 1.386 . S
C1381 C1385 1.393 . S
C1382 H1374 0.950 . S
C1382 C1380 1.391 . S
C1382 C1383 1.400 . S
C1383 C1382 1.400 . S
C1383 C1384 1.398 . S
C1383 C1389 1.491 1_545 S
C1384 H1375 0.950 . S
C1384 C1383 1.398 . S
C1384 C1385 1.391 . S
C1385 H1373 0.950 . S
C1385 C1381 1.393 . S
C1385 C1384 1.391 . S
C1386 H1376 0.950 . S
C1386 C1387 1.386 . S
C1386 C1388 1.391 . S
C1387 C1386 1.386 . S
C1387 C1391 1.393 . S
C1388 H1377 0.950 . S
C1388 C1386 1.391 . S
C1388 C1389 1.400 . S
C1389 C1383 1.491 1_565 S
C1389 C1388 1.400 . S
C1389 C1390 1.398 . S
C1390 H1378 0.950 . S
C1390 C1389 1.398 . S
C1390 C1391 1.391 . S
C1391 H1379 0.950 . S
C1391 C1387 1.393 . S
C1391 C1390 1.391 . S
H1392 C1400 0.950 . S
H1393 C1405 0.950 . S
H1394 C1402 0.950 . S
H1395 C1404 0.950 . S
H1396 C1406 0.950 . S
H1397 C1408 0.950 . S
H1398 C1410 0.950 . S
H1399 C1411 0.950 . S
C1400 H1392 0.950 . S
C1400 C1401 1.386 . S
C1400 C1402 1.391 . S
C1401 C1400 1.386 . S
C1401 C1405 1.393 . S
C1402 H1394 0.950 . S
C1402 C1400 1.391 . S
C1402 C1403 1.400 . S
C1403 C1402 1.400 . S
C1403 C1404 1.398 . S
C1403 C1409 1.491 . S
C1404 H1395 0.950 . S
C1404 C1403 1.398 . S
C1404 C1405 1.391 . S
C1405 H1393 0.950 . S
C1405 C1401 1.393 . S
C1405 C1404 1.391 . S
C1406 H1396 0.950 . S
C1406 C1407 1.386 . S
C1406 C1408 1.391 . S
C1407 C1406 1.386 . S
C1407 C1411 1.393 . S
C1408 H1397 0.950 . S
C1408 C1406 1.391 . S
C1408 C1409 1.400 . S
C1409 C1403 1.491 . S
C1409 C1408 1.400 . S
C1409 C1410 1.398 . S
C1410 H1398 0.950 . S
C1410 C1409 1.398 . S
C1410 C1411 1.391 . S
C1411 H1399 0.950 . S
C1411 C1407 1.393 . S
C1411 C1410 1.391 . S
H1412 C1420 0.950 . S
H1413 C1425 0.950 . S
H1414 C1422 0.950 . S
H1415 C1424 0.950 . S
H1416 C1426 0.950 . S
H1417 C1428 0.950 . S
H1418 C1430 0.950 . S
H1419 C1431 0.950 . S
C1420 H1412 0.950 . S
C1420 C1421 1.386 . S
C1420 C1422 1.391 . S
C1421 C1420 1.386 . S
C1421 C1425 1.393 . S
C1422 H1414 0.950 . S
C1422 C1420 1.391 . S
C1422 C1423 1.400 . S
C1423 C1422 1.400 . S
C1423 C1424 1.398 . S
C1423 C1429 1.491 1_565 S
C1424 H1415 0.950 . S
C1424 C1423 1.398 . S
C1424 C1425 1.391 . S
C1425 H1413 0.950 . S
C1425 C1421 1.393 . S
C1425 C1424 1.391 . S
C1426 H1416 0.950 . S
C1426 C1427 1.386 . S
C1426 C1428 1.391 . S
C1427 C1426 1.386 . S
C1427 C1431 1.393 . S
C1428 H1417 0.950 . S
C1428 C1426 1.391 . S
C1428 C1429 1.400 . S
C1429 C1423 1.491 1_545 S
C1429 C1428 1.400 . S
C1429 C1430 1.398 . S
C1430 H1418 0.950 . S
C1430 C1429 1.398 . S
C1430 C1431 1.391 . S
C1431 H1419 0.950 . S
C1431 C1427 1.393 . S
C1431 C1430 1.391 . S
H1432 C1440 0.950 . S
H1433 C1445 0.950 . S
H1434 C1442 0.950 . S
H1435 C1444 0.950 . S
H1436 C1446 0.950 . S
H1437 C1448 0.950 . S
H1438 C1450 0.950 . S
H1439 C1451 0.950 . S
C1440 H1432 0.950 . S
C1440 C1441 1.386 . S
C1440 C1442 1.391 . S
C1441 C1440 1.386 . S
C1441 C1445 1.393 . S
C1442 H1434 0.950 . S
C1442 C1440 1.391 . S
C1442 C1443 1.400 . S
C1443 C1442 1.400 . S
C1443 C1444 1.398 . S
C1443 C1449 1.491 . S
C1444 H1435 0.950 . S
C1444 C1443 1.398 . S
C1444 C1445 1.391 . S
C1445 H1433 0.950 . S
C1445 C1441 1.393 . S
C1445 C1444 1.391 . S
C1446 H1436 0.950 . S
C1446 C1447 1.386 . S
C1446 C1448 1.391 . S
C1447 C1446 1.386 . S
C1447 C1451 1.393 . S
C1448 H1437 0.950 . S
C1448 C1446 1.391 . S
C1448 C1449 1.400 . S
C1449 C1443 1.491 . S
C1449 C1448 1.400 . S
C1449 C1450 1.398 . S
C1450 H1438 0.950 . S
C1450 C1449 1.398 . S
C1450 C1451 1.391 . S
C1451 H1439 0.950 . S
C1451 C1447 1.393 . S
C1451 C1450 1.391 . S
H1452 C1460 0.950 . S
H1453 C1465 0.950 . S
H1454 C1462 0.950 . S
H1455 C1464 0.950 . S
H1456 C1466 0.950 . S
H1457 C1468 0.950 . S
H1458 C1470 0.950 . S
H1459 C1471 0.950 . S
C1460 H1452 0.950 . S
C1460 C1461 1.386 . S
C1460 C1462 1.391 . S
C1461 C1460 1.386 . S
C1461 C1465 1.393 . S
C1462 H1454 0.950 . S
C1462 C1460 1.391 . S
C1462 C1463 1.400 . S
C1463 C1462 1.400 . S
C1463 C1464 1.398 . S
C1463 C1469 1.491 1_565 S
C1464 H1455 0.950 . S
C1464 C1463 1.398 . S
C1464 C1465 1.391 . S
C1465 H1453 0.950 . S
C1465 C1461 1.393 . S
C1465 C1464 1.391 . S
C1466 H1456 0.950 . S
C1466 C1467 1.386 . S
C1466 C1468 1.391 . S
C1467 C1466 1.386 . S
C1467 C1471 1.393 . S
C1468 H1457 0.950 . S
C1468 C1466 1.391 . S
C1468 C1469 1.400 . S
C1469 C1463 1.491 1_545 S
C1469 C1468 1.400 . S
C1469 C1470 1.398 . S
C1470 H1458 0.950 . S
C1470 C1469 1.398 . S
C1470 C1471 1.391 . S
C1471 H1459 0.950 . S
C1471 C1467 1.393 . S
C1471 C1470 1.391 . S
H1472 C1480 0.950 . S
H1473 C1485 0.950 . S
H1474 C1482 0.950 . S
H1475 C1484 0.950 . S
H1476 C1486 0.950 . S
H1477 C1488 0.950 . S
H1478 C1490 0.950 . S
H1479 C1491 0.950 . S
C1480 H1472 0.950 . S
C1480 C1481 1.386 . S
C1480 C1482 1.391 . S
C1481 C1480 1.386 . S
C1481 C1485 1.393 . S
C1482 H1474 0.950 . S
C1482 C1480 1.391 . S
C1482 C1483 1.400 . S
C1483 C1482 1.400 . S
C1483 C1484 1.398 . S
C1483 C1489 1.491 . S
C1484 H1475 0.950 . S
C1484 C1483 1.398 . S
C1484 C1485 1.391 . S
C1485 H1473 0.950 . S
C1485 C1481 1.393 . S
C1485 C1484 1.391 . S
C1486 H1476 0.950 . S
C1486 C1487 1.386 . S
C1486 C1488 1.391 . S
C1487 C1486 1.386 . S
C1487 C1491 1.393 . S
C1488 H1477 0.950 . S
C1488 C1486 1.391 . S
C1488 C1489 1.400 . S
C1489 C1483 1.491 . S
C1489 C1488 1.400 . S
C1489 C1490 1.398 . S
C1490 H1478 0.950 . S
C1490 C1489 1.398 . S
C1490 C1491 1.391 . S
C1491 H1479 0.950 . S
C1491 C1487 1.393 . S
C1491 C1490 1.391 . S
H1492 C1500 0.950 . S
H1493 C1505 0.950 . S
H1494 C1502 0.950 . S
H1495 C1504 0.950 . S
H1496 C1506 0.950 . S
H1497 C1508 0.950 . S
H1498 C1510 0.950 . S
H1499 C1511 0.950 . S
C1500 H1492 0.950 . S
C1500 C1501 1.386 . S
C1500 C1502 1.391 . S
C1501 C1500 1.386 . S
C1501 C1505 1.393 . S
C1502 H1494 0.950 . S
C1502 C1500 1.391 . S
C1502 C1503 1.400 . S
C1503 C1502 1.400 . S
C1503 C1504 1.398 . S
C1503 C1509 1.491 . S
C1504 H1495 0.950 . S
C1504 C1503 1.398 . S
C1504 C1505 1.391 . S
C1505 H1493 0.950 . S
C1505 C1501 1.393 . S
C1505 C1504 1.391 . S
C1506 H1496 0.950 . S
C1506 C1507 1.386 . S
C1506 C1508 1.391 . S
C1507 C1506 1.386 . S
C1507 C1511 1.393 . S
C1508 H1497 0.950 . S
C1508 C1506 1.391 . S
C1508 C1509 1.400 . S
C1509 C1503 1.491 . S
C1509 C1508 1.400 . S
C1509 C1510 1.398 . S
C1510 H1498 0.950 . S
C1510 C1509 1.398 . S
C1510 C1511 1.391 . S
C1511 H1499 0.950 . S
C1511 C1507 1.393 . S
C1511 C1510 1.391 . S
H1512 C1520 0.950 . S
H1513 C1525 0.950 . S
H1514 C1522 0.950 . S
H1515 C1524 0.950 . S
H1516 C1526 0.950 . S
H1517 C1528 0.950 . S
H1518 C1530 0.950 . S
H1519 C1531 0.950 . S
C1520 H1512 0.950 . S
C1520 C1521 1.386 . S
C1520 C1522 1.391 . S
C1521 C1520 1.386 . S
C1521 C1525 1.393 . S
C1522 H1514 0.950 . S
C1522 C1520 1.391 . S
C1522 C1523 1.400 . S
C1523 C1522 1.400 . S
C1523 C1524 1.398 . S
C1523 C1529 1.491 1_455 S
C1524 H1515 0.950 . S
C1524 C1523 1.398 . S
C1524 C1525 1.391 . S
C1525 H1513 0.950 . S
C1525 C1521 1.393 . S
C1525 C1524 1.391 . S
C1526 H1516 0.950 . S
C1526 C1527 1.386 . S
C1526 C1528 1.391 . S
C1527 C1526 1.386 . S
C1527 C1531 1.393 . S
C1528 H1517 0.950 . S
C1528 C1526 1.391 . S
C1528 C1529 1.400 . S
C1529 C1523 1.491 1_655 S
C1529 C1528 1.400 . S
C1529 C1530 1.398 . S
C1530 H1518 0.950 . S
C1530 C1529 1.398 . S
C1530 C1531 1.391 . S
C1531 H1519 0.950 . S
C1531 C1527 1.393 . S
C1531 C1530 1.391 . S
H1532 C1540 0.950 . S
H1533 C1545 0.950 . S
H1534 C1542 0.950 . S
H1535 C1544 0.950 . S
H1536 C1546 0.950 . S
H1537 C1548 0.950 . S
H1538 C1550 0.950 . S
H1539 C1551 0.950 . S
C1540 H1532 0.950 . S
C1540 C1541 1.386 . S
C1540 C1542 1.391 . S
C1541 C1540 1.386 . S
C1541 C1545 1.393 . S
C1542 H1534 0.950 . S
C1542 C1540 1.391 . S
C1542 C1543 1.400 . S
C1543 C1542 1.400 . S
C1543 C1544 1.398 . S
C1543 C1549 1.491 . S
C1544 H1535 0.950 . S
C1544 C1543 1.398 . S
C1544 C1545 1.391 . S
C1545 H1533 0.950 . S
C1545 C1541 1.393 . S
C1545 C1544 1.391 . S
C1546 H1536 0.950 . S
C1546 C1547 1.386 . S
C1546 C1548 1.391 . S
C1547 C1546 1.386 . S
C1547 C1551 1.393 . S
C1548 H1537 0.950 . S
C1548 C1546 1.391 . S
C1548 C1549 1.400 . S
C1549 C1543 1.491 . S
C1549 C1548 1.400 . S
C1549 C1550 1.398 . S
C1550 H1538 0.950 . S
C1550 C1549 1.398 . S
C1550 C1551 1.391 . S
C1551 H1539 0.950 . S
C1551 C1547 1.393 . S
C1551 C1550 1.391 . S
H1552 C1560 0.950 . S
H1553 C1565 0.950 . S
H1554 C1562 0.950 . S
H1555 C1564 0.950 . S
H1556 C1566 0.950 . S
H1557 C1568 0.950 . S
H1558 C1570 0.950 . S
H1559 C1571 0.950 . S
C1560 H1552 0.950 . S
C1560 C1561 1.386 . S
C1560 C1562 1.391 . S
C1561 C1560 1.386 . S
C1561 C1565 1.393 . S
C1562 H1554 0.950 . S
C1562 C1560 1.391 . S
C1562 C1563 1.400 . S
C1563 C1562 1.400 . S
C1563 C1564 1.398 . S
C1563 C1569 1.491 1_455 S
C1564 H1555 0.950 . S
C1564 C1563 1.398 . S
C1564 C1565 1.391 . S
C1565 H1553 0.950 . S
C1565 C1561 1.393 . S
C1565 C1564 1.391 . S
C1566 H1556 0.950 . S
C1566 C1567 1.386 . S
C1566 C1568 1.391 . S
C1567 C1566 1.386 . S
C1567 C1571 1.393 . S
C1568 H1557 0.950 . S
C1568 C1566 1.391 . S
C1568 C1569 1.400 . S
C1569 C1563 1.491 1_655 S
C1569 C1568 1.400 . S
C1569 C1570 1.398 . S
C1570 H1558 0.950 . S
C1570 C1569 1.398 . S
C1570 C1571 1.391 . S
C1571 H1559 0.950 . S
C1571 C1567 1.393 . S
C1571 C1570 1.391 . S
H1572 C1580 0.950 . S
H1573 C1585 0.950 . S
H1574 C1582 0.950 . S
H1575 C1584 0.950 . S
H1576 C1586 0.950 . S
H1577 C1588 0.950 . S
H1578 C1590 0.950 . S
H1579 C1591 0.950 . S
C1580 H1572 0.950 . S
C1580 C1581 1.386 . S
C1580 C1582 1.391 . S
C1581 C1580 1.386 . S
C1581 C1585 1.393 . S
C1582 H1574 0.950 . S
C1582 C1580 1.391 . S
C1582 C1583 1.400 . S
C1583 C1582 1.400 . S
C1583 C1584 1.398 . S
C1583 C1589 1.491 . S
C1584 H1575 0.950 . S
C1584 C1583 1.398 . S
C1584 C1585 1.391 . S
C1585 H1573 0.950 . S
C1585 C1581 1.393 . S
C1585 C1584 1.391 . S
C1586 H1576 0.950 . S
C1586 C1587 1.386 . S
C1586 C1588 1.391 . S
C1587 C1586 1.386 . S
C1587 C1591 1.393 . S
C1588 H1577 0.950 . S
C1588 C1586 1.391 . S
C1588 C1589 1.400 . S
C1589 C1583 1.491 . S
C1589 C1588 1.400 . S
C1589 C1590 1.398 . S
C1590 H1578 0.950 . S
C1590 C1589 1.398 . S
C1590 C1591 1.391 . S
C1591 H1579 0.950 . S
C1591 C1587 1.393 . S
C1591 C1590 1.391 . S
H1592 C1600 0.950 . S
H1593 C1605 0.950 . S
H1594 C1602 0.950 . S
H1595 C1604 0.950 . S
H1596 C1606 0.950 . S
H1597 C1608 0.950 . S
H1598 C1610 0.950 . S
H1599 C1611 0.950 . S
C1600 H1592 0.950 . S
C1600 C1601 1.386 . S
C1600 C1602 1.391 . S
C1601 C1600 1.386 . S
C1601 C1605 1.393 . S
C1602 H1594 0.950 . S
C1602 C1600 1.391 . S
C1602 C1603 1.400 . S
C1603 C1602 1.400 . S
C1603 C1604 1.398 . S
C1603 C1609 1.491 1_655 S
C1604 H1595 0.950 . S
C1604 C1603 1.398 . S
C1604 C1605 1.391 . S
C1605 H1593 0.950 . S
C1605 C1601 1.393 . S
C1605 C1604 1.391 . S
C1606 H1596 0.950 . S
C1606 C1607 1.386 . S
C1606 C1608 1.391 . S
C1607 C1606 1.386 . S
C1607 C1611 1.393 . S
C1608 H1597 0.950 . S
C1608 C1606 1.391 . S
C1608 C1609 1.400 . S
C1609 C1603 1.491 1_455 S
C1609 C1608 1.400 . S
C1609 C1610 1.398 . S
C1610 H1598 0.950 . S
C1610 C1609 1.398 . S
C1610 C1611 1.391 . S
C1611 H1599 0.950 . S
C1611 C1607 1.393 . S
C1611 C1610 1.391 . S
H1612 C1620 0.950 . S
H1613 C1625 0.950 . S
H1614 C1622 0.950 . S
H1615 C1624 0.950 . S
H1616 C1626 0.950 . S
H1617 C1628 0.950 . S
H1618 C1630 0.950 . S
H1619 C1631 0.950 . S
C1620 H1612 0.950 . S
C1620 C1621 1.386 . S
C1620 C1622 1.391 . S
C1621 C1620 1.386 . S
C1621 C1625 1.393 . S
C1622 H1614 0.950 . S
C1622 C1620 1.391 . S
C1622 C1623 1.400 . S
C1623 C1622 1.400 . S
C1623 C1624 1.398 . S
C1623 C1629 1.491 1_455 S
C1624 H1615 0.950 . S
C1624 C1623 1.398 . S
C1624 C1625 1.391 . S
C1625 H1613 0.950 . S
C1625 C1621 1.393 . S
C1625 C1624 1.391 . S
C1626 H1616 0.950 . S
C1626 C1627 1.386 . S
C1626 C1628 1.391 . S
C1627 C1626 1.386 . S
C1627 C1631 1.393 . S
C1628 H1617 0.950 . S
C1628 C1626 1.391 . S
C1628 C1629 1.400 . S
C1629 C1623 1.491 1_655 S
C1629 C1628 1.400 . S
C1629 C1630 1.398 . S
C1630 H1618 0.950 . S
C1630 C1629 1.398 . S
C1630 C1631 1.391 . S
C1631 H1619 0.950 . S
C1631 C1627 1.393 . S
C1631 C1630 1.391 . S
H1632 C1640 0.950 . S
H1633 C1645 0.950 . S
H1634 C1642 0.950 . S
H1635 C1644 0.950 . S
H1636 C1646 0.950 . S
H1637 C1648 0.950 . S
H1638 C1650 0.950 . S
H1639 C1651 0.950 . S
C1640 H1632 0.950 . S
C1640 C1641 1.386 . S
C1640 C1642 1.391 . S
C1641 C1640 1.386 . S
C1641 C1645 1.393 . S
C1642 H1634 0.950 . S
C1642 C1640 1.391 . S
C1642 C1643 1.400 . S
C1643 C1642 1.400 . S
C1643 C1644 1.398 . S
C1643 C1649 1.491 1_655 S
C1644 H1635 0.950 . S
C1644 C1643 1.398 . S
C1644 C1645 1.391 . S
C1645 H1633 0.950 . S
C1645 C1641 1.393 . S
C1645 C1644 1.391 . S
C1646 H1636 0.950 . S
C1646 C1647 1.386 . S
C1646 C1648 1.391 . S
C1647 C1646 1.386 . S
C1647 C1651 1.393 . S
C1648 H1637 0.950 . S
C1648 C1646 1.391 . S
C1648 C1649 1.400 . S
C1649 C1643 1.491 1_455 S
C1649 C1648 1.400 . S
C1649 C1650 1.398 . S
C1650 H1638 0.950 . S
C1650 C1649 1.398 . S
C1650 C1651 1.391 . S
C1651 H1639 0.950 . S
C1651 C1647 1.393 . S
C1651 C1650 1.391 . S
H1652 C1660 0.950 . S
H1653 C1665 0.950 . S
H1654 C1662 0.950 . S
H1655 C1664 0.950 . S
H1656 C1666 0.950 . S
H1657 C1668 0.950 . S
H1658 C1670 0.950 . S
H1659 C1671 0.950 . S
C1660 H1652 0.950 . S
C1660 C1661 1.386 . S
C1660 C1662 1.391 . S
C1661 C1660 1.386 . S
C1661 C1665 1.393 . S
C1662 H1654 0.950 . S
C1662 C1660 1.391 . S
C1662 C1663 1.400 . S
C1663 C1662 1.400 . S
C1663 C1664 1.398 . S
C1663 C1669 1.491 . S
C1664 H1655 0.950 . S
C1664 C1663 1.398 . S
C1664 C1665 1.391 . S
C1665 H1653 0.950 . S
C1665 C1661 1.393 . S
C1665 C1664 1.391 . S
C1666 H1656 0.950 . S
C1666 C1667 1.386 . S
C1666 C1668 1.391 . S
C1667 C1666 1.386 . S
C1667 C1671 1.393 . S
C1668 H1657 0.950 . S
C1668 C1666 1.391 . S
C1668 C1669 1.400 . S
C1669 C1663 1.491 . S
C1669 C1668 1.400 . S
C1669 C1670 1.398 . S
C1670 H1658 0.950 . S
C1670 C1669 1.398 . S
C1670 C1671 1.391 . S
C1671 H1659 0.950 . S
C1671 C1667 1.393 . S
C1671 C1670 1.391 . S
H1672 C1680 0.950 . S
H1673 C1685 0.950 . S
H1674 C1682 0.950 . S
H1675 C1684 0.950 . S
H1676 C1686 0.950 . S
H1677 C1688 0.950 . S
H1678 C1690 0.950 . S
H1679 C1691 0.950 . S
C1680 H1672 0.950 . S
C1680 C1681 1.386 . S
C1680 C1682 1.391 . S
C1681 C1680 1.386 . S
C1681 C1685 1.393 . S
C1682 H1674 0.950 . S
C1682 C1680 1.391 . S
C1682 C1683 1.400 . S
C1683 C1682 1.400 . S
C1683 C1684 1.398 . S
C1683 C1689 1.491 1_455 S
C1684 H1675 0.950 . S
C1684 C1683 1.398 . S
C1684 C1685 1.391 . S
C1685 H1673 0.950 . S
C1685 C1681 1.393 . S
C1685 C1684 1.391 . S
C1686 H1676 0.950 . S
C1686 C1687 1.386 . S
C1686 C1688 1.391 . S
C1687 C1686 1.386 . S
C1687 C1691 1.393 . S
C1688 H1677 0.950 . S
C1688 C1686 1.391 . S
C1688 C1689 1.400 . S
C1689 C1683 1.491 1_655 S
C1689 C1688 1.400 . S
C1689 C1690 1.398 . S
C1690 H1678 0.950 . S
C1690 C1689 1.398 . S
C1690 C1691 1.391 . S
C1691 H1679 0.950 . S
C1691 C1687 1.393 . S
C1691 C1690 1.391 . S
H1692 C1700 0.950 . S
H1693 C1705 0.950 . S
H1694 C1702 0.950 . S
H1695 C1704 0.950 . S
H1696 C1706 0.950 . S
H1697 C1708 0.950 . S
H1698 C1710 0.950 . S
H1699 C1711 0.950 . S
C1700 H1692 0.950 . S
C1700 C1701 1.386 . S
C1700 C1702 1.391 . S
C1701 C1700 1.386 . S
C1701 C1705 1.393 . S
C1702 H1694 0.950 . S
C1702 C1700 1.391 . S
C1702 C1703 1.400 . S
C1703 C1702 1.400 . S
C1703 C1704 1.398 . S
C1703 C1709 1.491 . S
C1704 H1695 0.950 . S
C1704 C1703 1.398 . S
C1704 C1705 1.391 . S
C1705 H1693 0.950 . S
C1705 C1701 1.393 . S
C1705 C1704 1.391 . S
C1706 H1696 0.950 . S
C1706 C1707 1.386 . S
C1706 C1708 1.391 . S
C1707 C1706 1.386 . S
C1707 C1711 1.393 . S
C1708 H1697 0.950 . S
C1708 C1706 1.391 . S
C1708 C1709 1.400 . S
C1709 C1703 1.491 . S
C1709 C1708 1.400 . S
C1709 C1710 1.398 . S
C1710 H1698 0.950 . S
C1710 C1709 1.398 . S
C1710 C1711 1.391 . S
C1711 H1699 0.950 . S
C1711 C1707 1.393 . S
C1711 C1710 1.391 . S
H1712 C1720 0.950 . S
H1713 C1725 0.950 . S
H1714 C1722 0.950 . S
H1715 C1724 0.950 . S
H1716 C1726 0.950 . S
H1717 C1728 0.950 . S
H1718 C1730 0.950 . S
H1719 C1731 0.950 . S
C1720 H1712 0.950 . S
C1720 C1721 1.386 . S
C1720 C1722 1.391 . S
C1721 C1720 1.386 . S
C1721 C1725 1.393 . S
C1722 H1714 0.950 . S
C1722 C1720 1.391 . S
C1722 C1723 1.400 . S
C1723 C1722 1.400 . S
C1723 C1724 1.398 . S
C1723 C1729 1.491 1_655 S
C1724 H1715 0.950 . S
C1724 C1723 1.398 . S
C1724 C1725 1.391 . S
C1725 H1713 0.950 . S
C1725 C1721 1.393 . S
C1725 C1724 1.391 . S
C1726 H1716 0.950 . S
C1726 C1727 1.386 . S
C1726 C1728 1.391 . S
C1727 C1726 1.386 . S
C1727 C1731 1.393 . S
C1728 H1717 0.950 . S
C1728 C1726 1.391 . S
C1728 C1729 1.400 . S
C1729 C1723 1.491 1_455 S
C1729 C1728 1.400 . S
C1729 C1730 1.398 . S
C1730 H1718 0.950 . S
C1730 C1729 1.398 . S
C1730 C1731 1.391 . S
C1731 H1719 0.950 . S
C1731 C1727 1.393 . S
C1731 C1730 1.391 . S
H1732 C1740 0.950 . S
H1733 C1745 0.950 . S
H1734 C1742 0.950 . S
H1735 C1744 0.950 . S
H1736 C1746 0.950 . S
H1737 C1748 0.950 . S
H1738 C1750 0.950 . S
H1739 C1751 0.950 . S
C1740 H1732 0.950 . S
C1740 C1741 1.386 . S
C1740 C1742 1.391 . S
C1741 C1740 1.386 . S
C1741 C1745 1.393 . S
C1742 H1734 0.950 . S
C1742 C1740 1.391 . S
C1742 C1743 1.400 . S
C1743 C1742 1.400 . S
C1743 C1744 1.398 . S
C1743 C1749 1.491 . S
C1744 H1735 0.950 . S
C1744 C1743 1.398 . S
C1744 C1745 1.391 . S
C1745 H1733 0.950 . S
C1745 C1741 1.393 . S
C1745 C1744 1.391 . S
C1746 H1736 0.950 . S
C1746 C1747 1.386 . S
C1746 C1748 1.391 . S
C1747 C1746 1.386 . S
C1747 C1751 1.393 . S
C1748 H1737 0.950 . S
C1748 C1746 1.391 . S
C1748 C1749 1.400 . S
C1749 C1743 1.491 . S
C1749 C1748 1.400 . S
C1749 C1750 1.398 . S
C1750 H1738 0.950 . S
C1750 C1749 1.398 . S
C1750 C1751 1.391 . S
C1751 H1739 0.950 . S
C1751 C1747 1.393 . S
C1751 C1750 1.391 . S
H1752 C1760 0.950 . S
H1753 C1765 0.950 . S
H1754 C1762 0.950 . S
H1755 C1764 0.950 . S
H1756 C1766 0.950 . S
H1757 C1768 0.950 . S
H1758 C1770 0.950 . S
H1759 C1771 0.950 . S
C1760 H1752 0.950 . S
C1760 C1761 1.386 . S
C1760 C1762 1.391 . S
C1761 C1760 1.386 . S
C1761 C1765 1.393 . S
C1762 H1754 0.950 . S
C1762 C1760 1.391 . S
C1762 C1763 1.400 . S
C1763 C1762 1.400 . S
C1763 C1764 1.398 . S
C1763 C1769 1.491 1_655 S
C1764 H1755 0.950 . S
C1764 C1763 1.398 . S
C1764 C1765 1.391 . S
C1765 H1753 0.950 . S
C1765 C1761 1.393 . S
C1765 C1764 1.391 . S
C1766 H1756 0.950 . S
C1766 C1767 1.386 . S
C1766 C1768 1.391 . S
C1767 C1766 1.386 . S
C1767 C1771 1.393 . S
C1768 H1757 0.950 . S
C1768 C1766 1.391 . S
C1768 C1769 1.400 . S
C1769 C1763 1.491 1_455 S
C1769 C1768 1.400 . S
C1769 C1770 1.398 . S
C1770 H1758 0.950 . S
C1770 C1769 1.398 . S
C1770 C1771 1.391 . S
C1771 H1759 0.950 . S
C1771 C1767 1.393 . S
C1771 C1770 1.391 . S
H1772 C1780 0.950 . S
H1773 C1785 0.950 . S
H1774 C1782 0.950 . S
H1775 C1784 0.950 . S
H1776 C1786 0.950 . S
H1777 C1788 0.950 . S
H1778 C1790 0.950 . S
H1779 C1791 0.950 . S
C1780 H1772 0.950 . S
C1780 C1781 1.386 . S
C1780 C1782 1.391 . S
C1781 C1780 1.386 . S
C1781 C1785 1.393 . S
C1782 H1774 0.950 . S
C1782 C1780 1.391 . S
C1782 C1783 1.400 . S
C1783 C1782 1.400 . S
C1783 C1784 1.398 . S
C1783 C1789 1.491 . S
C1784 H1775 0.950 . S
C1784 C1783 1.398 . S
C1784 C1785 1.391 . S
C1785 H1773 0.950 . S
C1785 C1781 1.393 . S
C1785 C1784 1.391 . S
C1786 H1776 0.950 . S
C1786 C1787 1.386 . S
C1786 C1788 1.391 . S
C1787 C1786 1.386 . S
C1787 C1791 1.393 . S
C1788 H1777 0.950 . S
C1788 C1786 1.391 . S
C1788 C1789 1.400 . S
C1789 C1783 1.491 . S
C1789 C1788 1.400 . S
C1789 C1790 1.398 . S
C1790 H1778 0.950 . S
C1790 C1789 1.398 . S
C1790 C1791 1.391 . S
C1791 H1779 0.950 . S
C1791 C1787 1.393 . S
C1791 C1790 1.391 . S
H1792 C1800 0.950 . S
H1793 C1805 0.950 . S
H1794 C1802 0.950 . S
H1795 C1804 0.950 . S
H1796 C1806 0.950 . S
H1797 C1808 0.950 . S
H1798 C1810 0.950 . S
H1799 C1811 0.950 . S
C1800 H1792 0.950 . S
C1800 C1801 1.386 . S
C1800 C1802 1.391 . S
C1801 C1800 1.386 . S
C1801 C1805 1.393 . S
C1802 H1794 0.950 . S
C1802 C1800 1.391 . S
C1802 C1803 1.400 . S
C1803 C1802 1.400 . S
C1803 C1804 1.398 . S
C1803 C1809 1.491 1_545 S
C1804 H1795 0.950 . S
C1804 C1803 1.398 . S
C1804 C1805 1.391 . S
C1805 H1793 0.950 . S
C1805 C1801 1.393 . S
C1805 C1804 1.391 . S
C1806 H1796 0.950 . S
C1806 C1807 1.386 . S
C1806 C1808 1.391 . S
C1807 C1806 1.386 . S
C1807 C1811 1.393 . S
C1808 H1797 0.950 . S
C1808 C1806 1.391 . S
C1808 C1809 1.400 . S
C1809 C1803 1.491 1_565 S
C1809 C1808 1.400 . S
C1809 C1810 1.398 . S
C1810 H1798 0.950 . S
C1810 C1809 1.398 . S
C1810 C1811 1.391 . S
C1811 H1799 0.950 . S
C1811 C1807 1.393 . S
C1811 C1810 1.391 . S
H1812 C1820 0.950 . S
H1813 C1825 0.950 . S
H1814 C1822 0.950 . S
H1815 C1824 0.950 . S
H1816 C1826 0.950 . S
H1817 C1828 0.950 . S
H1818 C1830 0.950 . S
H1819 C1831 0.950 . S
C1820 H1812 0.950 . S
C1820 C1821 1.386 . S
C1820 C1822 1.391 . S
C1821 C1820 1.386 . S
C1821 C1825 1.393 . S
C1822 H1814 0.950 . S
C1822 C1820 1.391 . S
C1822 C1823 1.400 . S
C1823 C1822 1.400 . S
C1823 C1824 1.398 . S
C1823 C1829 1.491 . S
C1824 H1815 0.950 . S
C1824 C1823 1.398 . S
C1824 C1825 1.391 . S
C1825 H1813 0.950 . S
C1825 C1821 1.393 . S
C1825 C1824 1.391 . S
C1826 H1816 0.950 . S
C1826 C1827 1.386 . S
C1826 C1828 1.391 . S
C1827 C1826 1.386 . S
C1827 C1831 1.393 . S
C1828 H1817 0.950 . S
C1828 C1826 1.391 . S
C1828 C1829 1.400 . S
C1829 C1823 1.491 . S
C1829 C1828 1.400 . S
C1829 C1830 1.398 . S
C1830 H1818 0.950 . S
C1830 C1829 1.398 . S
C1830 C1831 1.391 . S
C1831 H1819 0.950 . S
C1831 C1827 1.393 . S
C1831 C1830 1.391 . S
H1832 C1840 0.950 . S
H1833 C1845 0.950 . S
H1834 C1842 0.950 . S
H1835 C1844 0.950 . S
H1836 C1846 0.950 . S
H1837 C1848 0.950 . S
H1838 C1850 0.950 . S
H1839 C1851 0.950 . S
C1840 H1832 0.950 . S
C1840 C1841 1.386 . S
C1840 C1842 1.391 . S
C1841 C1840 1.386 . S
C1841 C1845 1.393 . S
C1842 H1834 0.950 . S
C1842 C1840 1.391 . S
C1842 C1843 1.400 . S
C1843 C1842 1.400 . S
C1843 C1844 1.398 . S
C1843 C1849 1.491 1_545 S
C1844 H1835 0.950 . S
C1844 C1843 1.398 . S
C1844 C1845 1.391 . S
C1845 H1833 0.950 . S
C1845 C1841 1.393 . S
C1845 C1844 1.391 . S
C1846 H1836 0.950 . S
C1846 C1847 1.386 . S
C1846 C1848 1.391 . S
C1847 C1846 1.386 . S
C1847 C1851 1.393 . S
C1848 H1837 0.950 . S
C1848 C1846 1.391 . S
C1848 C1849 1.400 . S
C1849 C1843 1.491 1_565 S
C1849 C1848 1.400 . S
C1849 C1850 1.398 . S
C1850 H1838 0.950 . S
C1850 C1849 1.398 . S
C1850 C1851 1.391 . S
C1851 H1839 0.950 . S
C1851 C1847 1.393 . S
C1851 C1850 1.391 . S
H1852 C1860 0.950 . S
H1853 C1865 0.950 . S
H1854 C1862 0.950 . S
H1855 C1864 0.950 . S
H1856 C1866 0.950 . S
H1857 C1868 0.950 . S
H1858 C1870 0.950 . S
H1859 C1871 0.950 . S
C1860 H1852 0.950 . S
C1860 C1861 1.386 . S
C1860 C1862 1.391 . S
C1861 C1860 1.386 . S
C1861 C1865 1.393 . S
C1862 H1854 0.950 . S
C1862 C1860 1.391 . S
C1862 C1863 1.400 . S
C1863 C1862 1.400 . S
C1863 C1864 1.398 . S
C1863 C1869 1.491 . S
C1864 H1855 0.950 . S
C1864 C1863 1.398 . S
C1864 C1865 1.391 . S
C1865 H1853 0.950 . S
C1865 C1861 1.393 . S
C1865 C1864 1.391 . S
C1866 H1856 0.950 . S
C1866 C1867 1.386 . S
C1866 C1868 1.391 . S
C1867 C1866 1.386 . S
C1867 C1871 1.393 . S
C1868 H1857 0.950 . S
C1868 C1866 1.391 . S
C1868 C1869 1.400 . S
C1869 C1863 1.491 . S
C1869 C1868 1.400 . S
C1869 C1870 1.398 . S
C1870 H1858 0.950 . S
C1870 C1869 1.398 . S
C1870 C1871 1.391 . S
C1871 H1859 0.950 . S
C1871 C1867 1.393 . S
C1871 C1870 1.391 . S
H1872 C1880 0.950 . S
H1873 C1885 0.950 . S
H1874 C1882 0.950 . S
H1875 C1884 0.950 . S
H1876 C1886 0.950 . S
H1877 C1888 0.950 . S
H1878 C1890 0.950 . S
H1879 C1891 0.950 . S
C1880 H1872 0.950 . S
C1880 C1881 1.386 . S
C1880 C1882 1.391 . S
C1881 C1880 1.386 . S
C1881 C1885 1.393 . S
C1882 H1874 0.950 . S
C1882 C1880 1.391 . S
C1882 C1883 1.400 . S
C1883 C1882 1.400 . S
C1883 C1884 1.398 . S
C1883 C1889 1.491 1_545 S
C1884 H1875 0.950 . S
C1884 C1883 1.398 . S
C1884 C1885 1.391 . S
C1885 H1873 0.950 . S
C1885 C1881 1.393 . S
C1885 C1884 1.391 . S
C1886 H1876 0.950 . S
C1886 C1887 1.386 . S
C1886 C1888 1.391 . S
C1887 C1886 1.386 . S
C1887 C1891 1.393 . S
C1888 H1877 0.950 . S
C1888 C1886 1.391 . S
C1888 C1889 1.400 . S
C1889 C1883 1.491 1_565 S
C1889 C1888 1.400 . S
C1889 C1890 1.398 . S
C1890 H1878 0.950 . S
C1890 C1889 1.398 . S
C1890 C1891 1.391 . S
C1891 H1879 0.950 . S
C1891 C1887 1.393 . S
C1891 C1890 1.391 . S
H1892 C1900 0.950 . S
H1893 C1905 0.950 . S
H1894 C1902 0.950 . S
H1895 C1904 0.950 . S
H1896 C1906 0.950 . S
H1897 C1908 0.950 . S
H1898 C1910 0.950 . S
H1899 C1911 0.950 . S
C1900 H1892 0.950 . S
C1900 C1901 1.386 . S
C1900 C1902 1.391 . S
C1901 C1900 1.386 . S
C1901 C1905 1.393 . S
C1902 H1894 0.950 . S
C1902 C1900 1.391 . S
C1902 C1903 1.400 . S
C1903 C1902 1.400 . S
C1903 C1904 1.398 . S
C1903 C1909 1.491 . S
C1904 H1895 0.950 . S
C1904 C1903 1.398 . S
C1904 C1905 1.391 . S
C1905 H1893 0.950 . S
C1905 C1901 1.393 . S
C1905 C1904 1.391 . S
C1906 H1896 0.950 . S
C1906 C1907 1.386 . S
C1906 C1908 1.391 . S
C1907 C1906 1.386 . S
C1907 C1911 1.393 . S
C1908 H1897 0.950 . S
C1908 C1906 1.391 . S
C1908 C1909 1.400 . S
C1909 C1903 1.491 . S
C1909 C1908 1.400 . S
C1909 C1910 1.398 . S
C1910 H1898 0.950 . S
C1910 C1909 1.398 . S
C1910 C1911 1.391 . S
C1911 H1899 0.950 . S
C1911 C1907 1.393 . S
C1911 C1910 1.391 . S
H1912 C1920 0.950 . S
H1913 C1925 0.950 . S
H1914 C1922 0.950 . S
H1915 C1924 0.950 . S
H1916 C1926 0.950 . S
H1917 C1928 0.950 . S
H1918 C1930 0.950 . S
H1919 C1931 0.950 . S
C1920 H1912 0.950 . S
C1920 C1921 1.386 . S
C1920 C1922 1.391 . S
C1921 C1920 1.386 . S
C1921 C1925 1.393 . S
C1922 H1914 0.950 . S
C1922 C1920 1.391 . S
C1922 C1923 1.400 . S
C1923 C1922 1.400 . S
C1923 C1924 1.398 . S
C1923 C1929 1.491 1_545 S
C1924 H1915 0.950 . S
C1924 C1923 1.398 . S
C1924 C1925 1.391 . S
C1925 H1913 0.950 . S
C1925 C1921 1.393 . S
C1925 C1924 1.391 . S
C1926 H1916 0.950 . S
C1926 C1927 1.386 . S
C1926 C1928 1.391 . S
C1927 C1926 1.386 . S
C1927 C1931 1.393 . S
C1928 H1917 0.950 . S
C1928 C1926 1.391 . S
C1928 C1929 1.400 . S
C1929 C1923 1.491 1_565 S
C1929 C1928 1.400 . S
C1929 C1930 1.398 . S
C1930 H1918 0.950 . S
C1930 C1929 1.398 . S
C1930 C1931 1.391 . S
C1931 H1919 0.950 . S
C1931 C1927 1.393 . S
C1931 C1930 1.391 . S
H1932 C1940 0.950 . S
H1933 C1945 0.950 . S
H1934 C1942 0.950 . S
H1935 C1944 0.950 . S
H1936 C1946 0.950 . S
H1937 C1948 0.950 . S
H1938 C1950 0.950 . S
H1939 C1951 0.950 . S
C1940 H1932 0.950 . S
C1940 C1941 1.386 . S
C1940 C1942 1.391 . S
C1941 C1940 1.386 . S
C1941 C1945 1.393 . S
C1942 H1934 0.950 . S
C1942 C1940 1.391 . S
C1942 C1943 1.400 . S
C1943 C1942 1.400 . S
C1943 C1944 1.398 . S
C1943 C1949 1.491 . S
C1944 H1935 0.950 . S
C1944 C1943 1.398 . S
C1944 C1945 1.391 . S
C1945 H1933 0.950 . S
C1945 C1941 1.393 . S
C1945 C1944 1.391 . S
C1946 H1936 0.950 . S
C1946 C1947 1.386 . S
C1946 C1948 1.391 . S
C1947 C1946 1.386 . S
C1947 C1951 1.393 . S
C1948 H1937 0.950 . S
C1948 C1946 1.391 . S
C1948 C1949 1.400 . S
C1949 C1943 1.491 . S
C1949 C1948 1.400 . S
C1949 C1950 1.398 . S
C1950 H1938 0.950 . S
C1950 C1949 1.398 . S
C1950 C1951 1.391 . S
C1951 H1939 0.950 . S
C1951 C1947 1.393 . S
C1951 C1950 1.391 . S
H1952 C1960 0.950 . S
H1953 C1965 0.950 . S
H1954 C1962 0.950 . S
H1955 C1964 0.950 . S
H1956 C1966 0.950 . S
H1957 C1968 0.950 . S
H1958 C1970 0.950 . S
H1959 C1971 0.950 . S
C1960 H1952 0.950 . S
C1960 C1961 1.386 . S
C1960 C1962 1.391 . S
C1961 C1960 1.386 . S
C1961 C1965 1.393 . S
C1962 H1954 0.950 . S
C1962 C1960 1.391 . S
C1962 C1963 1.400 . S
C1963 C1962 1.400 . S
C1963 C1964 1.398 . S
C1963 C1969 1.491 1_556 S
C1964 H1955 0.950 . S
C1964 C1963 1.398 . S
C1964 C1965 1.391 . S
C1965 H1953 0.950 . S
C1965 C1961 1.393 . S
C1965 C1964 1.391 . S
C1966 H1956 0.950 . S
C1966 C1967 1.386 . S
C1966 C1968 1.391 . S
C1967 C1966 1.386 . S
C1967 C1971 1.393 . S
C1968 H1957 0.950 . S
C1968 C1966 1.391 . S
C1968 C1969 1.400 . S
C1969 C1963 1.491 1_554 S
C1969 C1968 1.400 . S
C1969 C1970 1.398 . S
C1970 H1958 0.950 . S
C1970 C1969 1.398 . S
C1970 C1971 1.391 . S
C1971 H1959 0.950 . S
C1971 C1967 1.393 . S
C1971 C1970 1.391 . S
H1972 C1980 0.950 . S
H1973 C1985 0.950 . S
H1974 C1982 0.950 . S
H1975 C1984 0.950 . S
H1976 C1986 0.950 . S
H1977 C1988 0.950 . S
H1978 C1990 0.950 . S
H1979 C1991 0.950 . S
C1980 H1972 0.950 . S
C1980 C1981 1.386 . S
C1980 C1982 1.391 . S
C1981 C1980 1.386 . S
C1981 C1985 1.393 . S
C1982 H1974 0.950 . S
C1982 C1980 1.391 . S
C1982 C1983 1.400 . S
C1983 C1982 1.400 . S
C1983 C1984 1.398 . S
C1983 C1989 1.491 1_556 S
C1984 H1975 0.950 . S
C1984 C1983 1.398 . S
C1984 C1985 1.391 . S
C1985 H1973 0.950 . S
C1985 C1981 1.393 . S
C1985 C1984 1.391 . S
C1986 H1976 0.950 . S
C1986 C1987 1.386 . S
C1986 C1988 1.391 . S
C1987 C1986 1.386 . S
C1987 C1991 1.393 . S
C1988 H1977 0.950 . S
C1988 C1986 1.391 . S
C1988 C1989 1.400 . S
C1989 C1983 1.491 1_554 S
C1989 C1988 1.400 . S
C1989 C1990 1.398 . S
C1990 H1978 0.950 . S
C1990 C1989 1.398 . S
C1990 C1991 1.391 . S
C1991 H1979 0.950 . S
C1991 C1987 1.393 . S
C1991 C1990 1.391 . S
H1992 C2000 0.950 . S
H1993 C2005 0.950 . S
H1994 C2002 0.950 . S
H1995 C2004 0.950 . S
H1996 C2006 0.950 . S
H1997 C2008 0.950 . S
H1998 C2010 0.950 . S
H1999 C2011 0.950 . S
C2000 H1992 0.950 . S
C2000 C2001 1.386 . S
C2000 C2002 1.391 . S
C2001 C2000 1.386 . S
C2001 C2005 1.393 . S
C2002 H1994 0.950 . S
C2002 C2000 1.391 . S
C2002 C2003 1.400 . S
C2003 C2002 1.400 . S
C2003 C2004 1.398 . S
C2003 C2009 1.491 . S
C2004 H1995 0.950 . S
C2004 C2003 1.398 . S
C2004 C2005 1.391 . S
C2005 H1993 0.950 . S
C2005 C2001 1.393 . S
C2005 C2004 1.391 . S
C2006 H1996 0.950 . S
C2006 C2007 1.386 . S
C2006 C2008 1.391 . S
C2007 C2006 1.386 . S
C2007 C2011 1.393 . S
C2008 H1997 0.950 . S
C2008 C2006 1.391 . S
C2008 C2009 1.400 . S
C2009 C2003 1.491 . S
C2009 C2008 1.400 . S
C2009 C2010 1.398 . S
C2010 H1998 0.950 . S
C2010 C2009 1.398 . S
C2010 C2011 1.391 . S
C2011 H1999 0.950 . S
C2011 C2007 1.393 . S
C2011 C2010 1.391 . S
H2012 C2020 0.950 . S
H2013 C2025 0.950 . S
H2014 C2022 0.950 . S
H2015 C2024 0.950 . S
H2016 C2026 0.950 . S
H2017 C2028 0.950 . S
H2018 C2030 0.950 . S
H2019 C2031 0.950 . S
C2020 H2012 0.950 . S
C2020 C2021 1.386 . S
C2020 C2022 1.391 . S
C2021 C2020 1.386 . S
C2021 C2025 1.393 . S
C2022 H2014 0.950 . S
C2022 C2020 1.391 . S
C2022 C2023 1.400 . S
C2023 C2022 1.400 . S
C2023 C2024 1.398 . S
C2023 C2029 1.491 1_556 S
C2024 H2015 0.950 . S
C2024 C2023 1.398 . S
C2024 C2025 1.391 . S
C2025 H2013 0.950 . S
C2025 C2021 1.393 . S
C2025 C2024 1.391 . S
C2026 H2016 0.950 . S
C2026 C2027 1.386 . S
C2026 C2028 1.391 . S
C2027 C2026 1.386 . S
C2027 C2031 1.393 . S
C2028 H2017 0.950 . S
C2028 C2026 1.391 . S
C2028 C2029 1.400 . S
C2029 C2023 1.491 1_554 S
C2029 C2028 1.400 . S
C2029 C2030 1.398 . S
C2030 H2018 0.950 . S
C2030 C2029 1.398 . S
C2030 C2031 1.391 . S
C2031 H2019 0.950 . S
C2031 C2027 1.393 . S
C2031 C2030 1.391 . S
H2032 C2040 0.950 . S
H2033 C2045 0.950 . S
H2034 C2042 0.950 . S
H2035 C2044 0.950 . S
H2036 C2046 0.950 . S
H2037 C2048 0.950 . S
H2038 C2050 0.950 . S
H2039 C2051 0.950 . S
C2040 H2032 0.950 . S
C2040 C2041 1.386 . S
C2040 C2042 1.391 . S
C2041 C2040 1.386 . S
C2041 C2045 1.393 . S
C2042 H2034 0.950 . S
C2042 C2040 1.391 . S
C2042 C2043 1.400 . S
C2043 C2042 1.400 . S
C2043 C2044 1.398 . S
C2043 C2049 1.491 . S
C2044 H2035 0.950 . S
C2044 C2043 1.398 . S
C2044 C2045 1.391 . S
C2045 H2033 0.950 . S
C2045 C2041 1.393 . S
C2045 C2044 1.391 . S
C2046 H2036 0.950 . S
C2046 C2047 1.386 . S
C2046 C2048 1.391 . S
C2047 C2046 1.386 . S
C2047 C2051 1.393 . S
C2048 H2037 0.950 . S
C2048 C2046 1.391 . S
C2048 C2049 1.400 . S
C2049 C2043 1.491 . S
C2049 C2048 1.400 . S
C2049 C2050 1.398 . S
C2050 H2038 0.950 . S
C2050 C2049 1.398 . S
C2050 C2051 1.391 . S
C2051 H2039 0.950 . S
C2051 C2047 1.393 . S
C2051 C2050 1.391 . S
H2052 C2060 0.950 . S
H2053 C2065 0.950 . S
H2054 C2062 0.950 . S
H2055 C2064 0.950 . S
H2056 C2066 0.950 . S
H2057 C2068 0.950 . S
H2058 C2070 0.950 . S
H2059 C2071 0.950 . S
C2060 H2052 0.950 . S
C2060 C2061 1.386 . S
C2060 C2062 1.391 . S
C2061 C2060 1.386 . S
C2061 C2065 1.393 . S
C2062 H2054 0.950 . S
C2062 C2060 1.391 . S
C2062 C2063 1.400 . S
C2063 C2062 1.400 . S
C2063 C2064 1.398 . S
C2063 C2069 1.491 1_556 S
C2064 H2055 0.950 . S
C2064 C2063 1.398 . S
C2064 C2065 1.391 . S
C2065 H2053 0.950 . S
C2065 C2061 1.393 . S
C2065 C2064 1.391 . S
C2066 H2056 0.950 . S
C2066 C2067 1.386 . S
C2066 C2068 1.391 . S
C2067 C2066 1.386 . S
C2067 C2071 1.393 . S
C2068 H2057 0.950 . S
C2068 C2066 1.391 . S
C2068 C2069 1.400 . S
C2069 C2063 1.491 1_554 S
C2069 C2068 1.400 . S
C2069 C2070 1.398 . S
C2070 H2058 0.950 . S
C2070 C2069 1.398 . S
C2070 C2071 1.391 . S
C2071 H2059 0.950 . S
C2071 C2067 1.393 . S
C2071 C2070 1.391 . S
H2072 C2080 0.950 . S
H2073 C2085 0.950 . S
H2074 C2082 0.950 . S
H2075 C2084 0.950 . S
H2076 C2086 0.950 . S
H2077 C2088 0.950 . S
H2078 C2090 0.950 . S
H2079 C2091 0.950 . S
C2080 H2072 0.950 . S
C2080 C2081 1.386 . S
C2080 C2082 1.391 . S
C2081 C2080 1.386 . S
C2081 C2085 1.393 . S
C2082 H2074 0.950 . S
C2082 C2080 1.391 . S
C2082 C2083 1.400 . S
C2083 C2082 1.400 . S
C2083 C2084 1.398 . S
C2083 C2089 1.491 . S
C2084 H2075 0.950 . S
C2084 C2083 1.398 . S
C2084 C2085 1.391 . S
C2085 H2073 0.950 . S
C2085 C2081 1.393 . S
C2085 C2084 1.391 . S
C2086 H2076 0.950 . S
C2086 C2087 1.386 . S
C2086 C2088 1.391 . S
C2087 C2086 1.386 . S
C2087 C2091 1.393 . S
C2088 H2077 0.950 . S
C2088 C2086 1.391 . S
C2088 C2089 1.400 . S
C2089 C2083 1.491 . S
C2089 C2088 1.400 . S
C2089 C2090 1.398 . S
C2090 H2078 0.950 . S
C2090 C2089 1.398 . S
C2090 C2091 1.391 . S
C2091 H2079 0.950 . S
C2091 C2087 1.393 . S
C2091 C2090 1.391 . S
H2092 C2100 0.950 . S
H2093 C2105 0.950 . S
H2094 C2102 0.950 . S
H2095 C2104 0.950 . S
H2096 C2106 0.950 . S
H2097 C2108 0.950 . S
H2098 C2110 0.950 . S
H2099 C2111 0.950 . S
C2100 H2092 0.950 . S
C2100 C2101 1.386 . S
C2100 C2102 1.391 . S
C2101 C2100 1.386 . S
C2101 C2105 1.393 . S
C2102 H2094 0.950 . S
C2102 C2100 1.391 . S
C2102 C2103 1.400 . S
C2103 C2102 1.400 . S
C2103 C2104 1.398 . S
C2103 C2109 1.491 . S
C2104 H2095 0.950 . S
C2104 C2103 1.398 . S
C2104 C2105 1.391 . S
C2105 H2093 0.950 . S
C2105 C2101 1.393 . S
C2105 C2104 1.391 . S
C2106 H2096 0.950 . S
C2106 C2107 1.386 . S
C2106 C2108 1.391 . S
C2107 C2106 1.386 . S
C2107 C2111 1.393 . S
C2108 H2097 0.950 . S
C2108 C2106 1.391 . S
C2108 C2109 1.400 . S
C2109 C2103 1.491 . S
C2109 C2108 1.400 . S
C2109 C2110 1.398 . S
C2110 H2098 0.950 . S
C2110 C2109 1.398 . S
C2110 C2111 1.391 . S
C2111 H2099 0.950 . S
C2111 C2107 1.393 . S
C2111 C2110 1.391 . S
H2112 C2120 0.950 . S
H2113 C2125 0.950 . S
H2114 C2122 0.950 . S
H2115 C2124 0.950 . S
H2116 C2126 0.950 . S
H2117 C2128 0.950 . S
H2118 C2130 0.950 . S
H2119 C2131 0.950 . S
C2120 H2112 0.950 . S
C2120 C2121 1.386 . S
C2120 C2122 1.391 . S
C2121 C2120 1.386 . S
C2121 C2125 1.393 . S
C2122 H2114 0.950 . S
C2122 C2120 1.391 . S
C2122 C2123 1.400 . S
C2123 C2122 1.400 . S
C2123 C2124 1.398 . S
C2123 C2129 1.491 . S
C2124 H2115 0.950 . S
C2124 C2123 1.398 . S
C2124 C2125 1.391 . S
C2125 H2113 0.950 . S
C2125 C2121 1.393 . S
C2125 C2124 1.391 . S
C2126 H2116 0.950 . S
C2126 C2127 1.386 . S
C2126 C2128 1.391 . S
C2127 C2126 1.386 . S
C2127 C2131 1.393 . S
C2128 H2117 0.950 . S
C2128 C2126 1.391 . S
C2128 C2129 1.400 . S
C2129 C2123 1.491 . S
C2129 C2128 1.400 . S
C2129 C2130 1.398 . S
C2130 H2118 0.950 . S
C2130 C2129 1.398 . S
C2130 C2131 1.391 . S
C2131 H2119 0.950 . S
C2131 C2127 1.393 . S
C2131 C2130 1.391 . S
H2132 C2140 0.950 . S
H2133 C2145 0.950 . S
H2134 C2142 0.950 . S
H2135 C2144 0.950 . S
H2136 C2146 0.950 . S
H2137 C2148 0.950 . S
H2138 C2150 0.950 . S
H2139 C2151 0.950 . S
C2140 H2132 0.950 . S
C2140 C2141 1.386 . S
C2140 C2142 1.391 . S
C2141 C2140 1.386 . S
C2141 C2145 1.393 . S
C2142 H2134 0.950 . S
C2142 C2140 1.391 . S
C2142 C2143 1.400 . S
C2143 C2142 1.400 . S
C2143 C2144 1.398 . S
C2143 C2149 1.491 . S
C2144 H2135 0.950 . S
C2144 C2143 1.398 . S
C2144 C2145 1.391 . S
C2145 H2133 0.950 . S
C2145 C2141 1.393 . S
C2145 C2144 1.391 . S
C2146 H2136 0.950 . S
C2146 C2147 1.386 . S
C2146 C2148 1.391 . S
C2147 C2146 1.386 . S
C2147 C2151 1.393 . S
C2148 H2137 0.950 . S
C2148 C2146 1.391 . S
C2148 C2149 1.400 . S
C2149 C2143 1.491 . S
C2149 C2148 1.400 . S
C2149 C2150 1.398 . S
C2150 H2138 0.950 . S
C2150 C2149 1.398 . S
C2150 C2151 1.391 . S
C2151 H2139 0.950 . S
C2151 C2147 1.393 . S
C2151 C2150 1.391 . S
H2152 C2160 0.950 . S
H2153 C2165 0.950 . S
H2154 C2162 0.950 . S
H2155 C2164 0.950 . S
H2156 C2166 0.950 . S
H2157 C2168 0.950 . S
H2158 C2170 0.950 . S
H2159 C2171 0.950 . S
C2160 H2152 0.950 . S
C2160 C2161 1.386 . S
C2160 C2162 1.391 . S
C2161 C2160 1.386 . S
C2161 C2165 1.393 . S
C2162 H2154 0.950 . S
C2162 C2160 1.391 . S
C2162 C2163 1.400 . S
C2163 C2162 1.400 . S
C2163 C2164 1.398 . S
C2163 C2169 1.491 . S
C2164 H2155 0.950 . S
C2164 C2163 1.398 . S
C2164 C2165 1.391 . S
C2165 H2153 0.950 . S
C2165 C2161 1.393 . S
C2165 C2164 1.391 . S
C2166 H2156 0.950 . S
C2166 C2167 1.386 . S
C2166 C2168 1.391 . S
C2167 C2166 1.386 . S
C2167 C2171 1.393 . S
C2168 H2157 0.950 . S
C2168 C2166 1.391 . S
C2168 C2169 1.400 . S
C2169 C2163 1.491 . S
C2169 C2168 1.400 . S
C2169 C2170 1.398 . S
C2170 H2158 0.950 . S
C2170 C2169 1.398 . S
C2170 C2171 1.391 . S
C2171 H2159 0.950 . S
C2171 C2167 1.393 . S
C2171 C2170 1.391 . S
H2172 C2180 0.950 . S
H2173 C2185 0.950 . S
H2174 C2182 0.950 . S
H2175 C2184 0.950 . S
H2176 C2186 0.950 . S
H2177 C2188 0.950 . S
H2178 C2190 0.950 . S
H2179 C2191 0.950 . S
C2180 H2172 0.950 . S
C2180 C2181 1.386 . S
C2180 C2182 1.391 . S
C2181 C2180 1.386 . S
C2181 C2185 1.393 . S
C2182 H2174 0.950 . S
C2182 C2180 1.391 . S
C2182 C2183 1.400 . S
C2183 C2182 1.400 . S
C2183 C2184 1.398 . S
C2183 C2189 1.491 . S
C2184 H2175 0.950 . S
C2184 C2183 1.398 . S
C2184 C2185 1.391 . S
C2185 H2173 0.950 . S
C2185 C2181 1.393 . S
C2185 C2184 1.391 . S
C2186 H2176 0.950 . S
C2186 C2187 1.386 . S
C2186 C2188 1.391 . S
C2187 C2186 1.386 . S
C2187 C2191 1.393 . S
C2188 H2177 0.950 . S
C2188 C2186 1.391 . S
C2188 C2189 1.400 . S
C2189 C2183 1.491 . S
C2189 C2188 1.400 . S
C2189 C2190 1.398 . S
C2190 H2178 0.950 . S
C2190 C2189 1.398 . S
C2190 C2191 1.391 . S
C2191 H2179 0.950 . S
C2191 C2187 1.393 . S
C2191 C2190 1.391 . S
H2192 C2200 0.950 . S
H2193 C2205 0.950 . S
H2194 C2202 0.950 . S
H2195 C2204 0.950 . S
H2196 C2206 0.950 . S
H2197 C2208 0.950 . S
H2198 C2210 0.950 . S
H2199 C2211 0.950 . S
C2200 H2192 0.950 . S
C2200 C2201 1.386 . S
C2200 C2202 1.391 . S
C2201 C2200 1.386 . S
C2201 C2205 1.393 . S
C2202 H2194 0.950 . S
C2202 C2200 1.391 . S
C2202 C2203 1.400 . S
C2203 C2202 1.400 . S
C2203 C2204 1.398 . S
C2203 C2209 1.491 . S
C2204 H2195 0.950 . S
C2204 C2203 1.398 . S
C2204 C2205 1.391 . S
C2205 H2193 0.950 . S
C2205 C2201 1.393 . S
C2205 C2204 1.391 . S
C2206 H2196 0.950 . S
C2206 C2207 1.386 . S
C2206 C2208 1.391 . S
C2207 C2206 1.386 . S
C2207 C2211 1.393 . S
C2208 H2197 0.950 . S
C2208 C2206 1.391 . S
C2208 C2209 1.400 . S
C2209 C2203 1.491 . S
C2209 C2208 1.400 . S
C2209 C2210 1.398 . S
C2210 H2198 0.950 . S
C2210 C2209 1.398 . S
C2210 C2211 1.391 . S
C2211 H2199 0.950 . S
C2211 C2207 1.393 . S
C2211 C2210 1.391 . S
H2212 C2220 0.950 . S
H2213 C2225 0.950 . S
H2214 C2222 0.950 . S
H2215 C2224 0.950 . S
H2216 C2226 0.950 . S
H2217 C2228 0.950 . S
H2218 C2230 0.950 . S
H2219 C2231 0.950 . S
C2220 H2212 0.950 . S
C2220 C2221 1.386 . S
C2220 C2222 1.391 . S
C2221 C2220 1.386 . S
C2221 C2225 1.393 . S
C2222 H2214 0.950 . S
C2222 C2220 1.391 . S
C2222 C2223 1.400 . S
C2223 C2222 1.400 . S
C2223 C2224 1.398 . S
C2223 C2229 1.491 . S
C2224 H2215 0.950 . S
C2224 C2223 1.398 . S
C2224 C2225 1.391 . S
C2225 H2213 0.950 . S
C2225 C2221 1.393 . S
C2225 C2224 1.391 . S
C2226 H2216 0.950 . S
C2226 C2227 1.386 . S
C2226 C2228 1.391 . S
C2227 C2226 1.386 . S
C2227 C2231 1.393 . S
C2228 H2217 0.950 . S
C2228 C2226 1.391 . S
C2228 C2229 1.400 . S
C2229 C2223 1.491 . S
C2229 C2228 1.400 . S
C2229 C2230 1.398 . S
C2230 H2218 0.950 . S
C2230 C2229 1.398 . S
C2230 C2231 1.391 . S
C2231 H2219 0.950 . S
C2231 C2227 1.393 . S
C2231 C2230 1.391 . S
H2232 C2240 0.950 . S
H2233 C2245 0.950 . S
H2234 C2242 0.950 . S
H2235 C2244 0.950 . S
H2236 C2246 0.950 . S
H2237 C2248 0.950 . S
H2238 C2250 0.950 . S
H2239 C2251 0.950 . S
C2240 H2232 0.950 . S
C2240 C2241 1.386 . S
C2240 C2242 1.391 . S
C2241 C2240 1.386 . S
C2241 C2245 1.393 . S
C2242 H2234 0.950 . S
C2242 C2240 1.391 . S
C2242 C2243 1.400 . S
C2243 C2242 1.400 . S
C2243 C2244 1.398 . S
C2243 C2249 1.491 . S
C2244 H2235 0.950 . S
C2244 C2243 1.398 . S
C2244 C2245 1.391 . S
C2245 H2233 0.950 . S
C2245 C2241 1.393 . S
C2245 C2244 1.391 . S
C2246 H2236 0.950 . S
C2246 C2247 1.386 . S
C2246 C2248 1.391 . S
C2247 C2246 1.386 . S
C2247 C2251 1.393 . S
C2248 H2237 0.950 . S
C2248 C2246 1.391 . S
C2248 C2249 1.400 . S
C2249 C2243 1.491 . S
C2249 C2248 1.400 . S
C2249 C2250 1.398 . S
C2250 H2238 0.950 . S
C2250 C2249 1.398 . S
C2250 C2251 1.391 . S
C2251 H2239 0.950 . S
C2251 C2247 1.393 . S
C2251 C2250 1.391 . S
H2252 C2260 0.950 . S
H2253 C2265 0.950 . S
H2254 C2262 0.950 . S
H2255 C2264 0.950 . S
H2256 C2266 0.950 . S
H2257 C2268 0.950 . S
H2258 C2270 0.950 . S
H2259 C2271 0.950 . S
C2260 H2252 0.950 . S
C2260 C2261 1.386 . S
C2260 C2262 1.391 . S
C2261 C2260 1.386 . S
C2261 C2265 1.393 . S
C2262 H2254 0.950 . S
C2262 C2260 1.391 . S
C2262 C2263 1.400 . S
C2263 C2262 1.400 . S
C2263 C2264 1.398 . S
C2263 C2269 1.491 . S
C2264 H2255 0.950 . S
C2264 C2263 1.398 . S
C2264 C2265 1.391 . S
C2265 H2253 0.950 . S
C2265 C2261 1.393 . S
C2265 C2264 1.391 . S
C2266 H2256 0.950 . S
C2266 C2267 1.386 . S
C2266 C2268 1.391 . S
C2267 C2266 1.386 . S
C2267 C2271 1.393 . S
C2268 H2257 0.950 . S
C2268 C2266 1.391 . S
C2268 C2269 1.400 . S
C2269 C2263 1.491 . S
C2269 C2268 1.400 . S
C2269 C2270 1.398 . S
C2270 H2258 0.950 . S
C2270 C2269 1.398 . S
C2270 C2271 1.391 . S
C2271 H2259 0.950 . S
C2271 C2267 1.393 . S
C2271 C2270 1.391 . S
H2272 C2280 0.950 . S
H2273 C2285 0.950 . S
H2274 C2282 0.950 . S
H2275 C2284 0.950 . S
H2276 C2286 0.950 . S
H2277 C2288 0.950 . S
H2278 C2290 0.950 . S
H2279 C2291 0.950 . S
C2280 H2272 0.950 . S
C2280 C2281 1.386 . S
C2280 C2282 1.391 . S
C2281 C2280 1.386 . S
C2281 C2285 1.393 . S
C2282 H2274 0.950 . S
C2282 C2280 1.391 . S
C2282 C2283 1.400 . S
C2283 C2282 1.400 . S
C2283 C2284 1.398 . S
C2283 C2289 1.491 . S
C2284 H2275 0.950 . S
C2284 C2283 1.398 . S
C2284 C2285 1.391 . S
C2285 H2273 0.950 . S
C2285 C2281 1.393 . S
C2285 C2284 1.391 . S
C2286 H2276 0.950 . S
C2286 C2287 1.386 . S
C2286 C2288 1.391 . S
C2287 C2286 1.386 . S
C2287 C2291 1.393 . S
C2288 H2277 0.950 . S
C2288 C2286 1.391 . S
C2288 C2289 1.400 . S
C2289 C2283 1.491 . S
C2289 C2288 1.400 . S
C2289 C2290 1.398 . S
C2290 H2278 0.950 . S
C2290 C2289 1.398 . S
C2290 C2291 1.391 . S
C2291 H2279 0.950 . S
C2291 C2287 1.393 . S
C2291 C2290 1.391 . S
H2292 C2300 0.950 . S
H2293 C2305 0.950 . S
H2294 C2302 0.950 . S
H2295 C2304 0.950 . S
H2296 C2306 0.950 . S
H2297 C2308 0.950 . S
H2298 C2310 0.950 . S
H2299 C2311 0.950 . S
C2300 H2292 0.950 . S
C2300 C2301 1.386 . S
C2300 C2302 1.391 . S
C2301 C2300 1.386 . S
C2301 C2305 1.393 . S
C2302 H2294 0.950 . S
C2302 C2300 1.391 . S
C2302 C2303 1.400 . S
C2303 C2302 1.400 . S
C2303 C2304 1.398 . S
C2303 C2309 1.491 . S
C2304 H2295 0.950 . S
C2304 C2303 1.398 . S
C2304 C2305 1.391 . S
C2305 H2293 0.950 . S
C2305 C2301 1.393 . S
C2305 C2304 1.391 . S
C2306 H2296 0.950 . S
C2306 C2307 1.386 . S
C2306 C2308 1.391 . S
C2307 C2306 1.386 . S
C2307 C2311 1.393 . S
C2308 H2297 0.950 . S
C2308 C2306 1.391 . S
C2308 C2309 1.400 . S
C2309 C2303 1.491 . S
C2309 C2308 1.400 . S
C2309 C2310 1.398 . S
C2310 H2298 0.950 . S
C2310 C2309 1.398 . S
C2310 C2311 1.391 . S
C2311 H2299 0.950 . S
C2311 C2307 1.393 . S
C2311 C2310 1.391 . S
H2312 C2320 0.950 . S
H2313 C2325 0.950 . S
H2314 C2322 0.950 . S
H2315 C2324 0.950 . S
H2316 C2326 0.950 . S
H2317 C2328 0.950 . S
H2318 C2330 0.950 . S
H2319 C2331 0.950 . S
C2320 H2312 0.950 . S
C2320 C2321 1.386 . S
C2320 C2322 1.391 . S
C2321 C2320 1.386 . S
C2321 C2325 1.393 . S
C2322 H2314 0.950 . S
C2322 C2320 1.391 . S
C2322 C2323 1.400 . S
C2323 C2322 1.400 . S
C2323 C2324 1.398 . S
C2323 C2329 1.491 . S
C2324 H2315 0.950 . S
C2324 C2323 1.398 . S
C2324 C2325 1.391 . S
C2325 H2313 0.950 . S
C2325 C2321 1.393 . S
C2325 C2324 1.391 . S
C2326 H2316 0.950 . S
C2326 C2327 1.386 . S
C2326 C2328 1.391 . S
C2327 C2326 1.386 . S
C2327 C2331 1.393 . S
C2328 H2317 0.950 . S
C2328 C2326 1.391 . S
C2328 C2329 1.400 . S
C2329 C2323 1.491 . S
C2329 C2328 1.400 . S
C2329 C2330 1.398 . S
C2330 H2318 0.950 . S
C2330 C2329 1.398 . S
C2330 C2331 1.391 . S
C2331 H2319 0.950 . S
C2331 C2327 1.393 . S
C2331 C2330 1.391 . S
H2332 C2340 0.950 . S
H2333 C2345 0.950 . S
H2334 C2342 0.950 . S
H2335 C2344 0.950 . S
H2336 C2346 0.950 . S
H2337 C2348 0.950 . S
H2338 C2350 0.950 . S
H2339 C2351 0.950 . S
C2340 H2332 0.950 . S
C2340 C2341 1.386 . S
C2340 C2342 1.391 . S
C2341 C2340 1.386 . S
C2341 C2345 1.393 . S
C2342 H2334 0.950 . S
C2342 C2340 1.391 . S
C2342 C2343 1.400 . S
C2343 C2342 1.400 . S
C2343 C2344 1.398 . S
C2343 C2349 1.491 . S
C2344 H2335 0.950 . S
C2344 C2343 1.398 . S
C2344 C2345 1.391 . S
C2345 H2333 0.950 . S
C2345 C2341 1.393 . S
C2345 C2344 1.391 . S
C2346 H2336 0.950 . S
C2346 C2347 1.386 . S
C2346 C2348 1.391 . S
C2347 C2346 1.386 . S
C2347 C2351 1.393 . S
C2348 H2337 0.950 . S
C2348 C2346 1.391 . S
C2348 C2349 1.400 . S
C2349 C2343 1.491 . S
C2349 C2348 1.400 . S
C2349 C2350 1.398 . S
C2350 H2338 0.950 . S
C2350 C2349 1.398 . S
C2350 C2351 1.391 . S
C2351 H2339 0.950 . S
C2351 C2347 1.393 . S
C2351 C2350 1.391 . S
H2352 C2360 0.950 . S
H2353 C2365 0.950 . S
H2354 C2362 0.950 . S
H2355 C2364 0.950 . S
H2356 C2366 0.950 . S
H2357 C2368 0.950 . S
H2358 C2370 0.950 . S
H2359 C2371 0.950 . S
C2360 H2352 0.950 . S
C2360 C2361 1.386 . S
C2360 C2362 1.391 . S
C2361 C2360 1.386 . S
C2361 C2365 1.393 . S
C2362 H2354 0.950 . S
C2362 C2360 1.391 . S
C2362 C2363 1.400 . S
C2363 C2362 1.400 . S
C2363 C2364 1.398 . S
C2363 C2369 1.491 . S
C2364 H2355 0.950 . S
C2364 C2363 1.398 . S
C2364 C2365 1.391 . S
C2365 H2353 0.950 . S
C2365 C2361 1.393 . S
C2365 C2364 1.391 . S
C2366 H2356 0.950 . S
C2366 C2367 1.386 . S
C2366 C2368 1.391 . S
C2367 C2366 1.386 . S
C2367 C2371 1.393 . S
C2368 H2357 0.950 . S
C2368 C2366 1.391 . S
C2368 C2369 1.400 . S
C2369 C2363 1.491 . S
C2369 C2368 1.400 . S
C2369 C2370 1.398 . S
C2370 H2358 0.950 . S
C2370 C2369 1.398 . S
C2370 C2371 1.391 . S
C2371 H2359 0.950 . S
C2371 C2367 1.393 . S
C2371 C2370 1.391 . S
H2372 C2380 0.950 . S
H2373 C2385 0.950 . S
H2374 C2382 0.950 . S
H2375 C2384 0.950 . S
H2376 C2386 0.950 . S
H2377 C2388 0.950 . S
H2378 C2390 0.950 . S
H2379 C2391 0.950 . S
C2380 H2372 0.950 . S
C2380 C2381 1.386 . S
C2380 C2382 1.391 . S
C2381 C2380 1.386 . S
C2381 C2385 1.393 . S
C2382 H2374 0.950 . S
C2382 C2380 1.391 . S
C2382 C2383 1.400 . S
C2383 C2382 1.400 . S
C2383 C2384 1.398 . S
C2383 C2389 1.491 . S
C2384 H2375 0.950 . S
C2384 C2383 1.398 . S
C2384 C2385 1.391 . S
C2385 H2373 0.950 . S
C2385 C2381 1.393 . S
C2385 C2384 1.391 . S
C2386 H2376 0.950 . S
C2386 C2387 1.386 . S
C2386 C2388 1.391 . S
C2387 C2386 1.386 . S
C2387 C2391 1.393 . S
C2388 H2377 0.950 . S
C2388 C2386 1.391 . S
C2388 C2389 1.400 . S
C2389 C2383 1.491 . S
C2389 C2388 1.400 . S
C2389 C2390 1.398 . S
C2390 H2378 0.950 . S
C2390 C2389 1.398 . S
C2390 C2391 1.391 . S
C2391 H2379 0.950 . S
C2391 C2387 1.393 . S
C2391 C2390 1.391 . S
H2392 C2400 0.950 . S
H2393 C2405 0.950 . S
H2394 C2402 0.950 . S
H2395 C2404 0.950 . S
H2396 C2406 0.950 . S
H2397 C2408 0.950 . S
H2398 C2410 0.950 . S
H2399 C2411 0.950 . S
C2400 H2392 0.950 . S
C2400 C2401 1.386 . S
C2400 C2402 1.391 . S
C2401 C2400 1.386 . S
C2401 C2405 1.393 . S
C2402 H2394 0.950 . S
C2402 C2400 1.391 . S
C2402 C2403 1.400 . S
C2403 C2402 1.400 . S
C2403 C2404 1.398 . S
C2403 C2409 1.491 . S
C2404 H2395 0.950 . S
C2404 C2403 1.398 . S
C2404 C2405 1.391 . S
C2405 H2393 0.950 . S
C2405 C2401 1.393 . S
C2405 C2404 1.391 . S
C2406 H2396 0.950 . S
C2406 C2407 1.386 . S
C2406 C2408 1.391 . S
C2407 C2406 1.386 . S
C2407 C2411 1.393 . S
C2408 H2397 0.950 . S
C2408 C2406 1.391 . S
C2408 C2409 1.400 . S
C2409 C2403 1.491 . S
C2409 C2408 1.400 . S
C2409 C2410 1.398 . S
C2410 H2398 0.950 . S
C2410 C2409 1.398 . S
C2410 C2411 1.391 . S
C2411 H2399 0.950 . S
C2411 C2407 1.393 . S
C2411 C2410 1.391 . S
H2412 C2420 0.950 . S
H2413 C2425 0.950 . S
H2414 C2422 0.950 . S
H2415 C2424 0.950 . S
H2416 C2426 0.950 . S
H2417 C2428 0.950 . S
H2418 C2430 0.950 . S
H2419 C2431 0.950 . S
C2420 H2412 0.950 . S
C2420 C2421 1.386 . S
C2420 C2422 1.391 . S
C2421 C2420 1.386 . S
C2421 C2425 1.393 . S
C2422 H2414 0.950 . S
C2422 C2420 1.391 . S
C2422 C2423 1.400 . S
C2423 C2422 1.400 . S
C2423 C2424 1.398 . S
C2423 C2429 1.491 . S
C2424 H2415 0.950 . S
C2424 C2423 1.398 . S
C2424 C2425 1.391 . S
C2425 H2413 0.950 . S
C2425 C2421 1.393 . S
C2425 C2424 1.391 . S
C2426 H2416 0.950 . S
C2426 C2427 1.386 . S
C2426 C2428 1.391 . S
C2427 C2426 1.386 . S
C2427 C2431 1.393 . S
C2428 H2417 0.950 . S
C2428 C2426 1.391 . S
C2428 C2429 1.400 . S
C2429 C2423 1.491 . S
C2429 C2428 1.400 . S
C2429 C2430 1.398 . S
C2430 H2418 0.950 . S
C2430 C2429 1.398 . S
C2430 C2431 1.391 . S
C2431 H2419 0.950 . S
C2431 C2427 1.393 . S
C2431 C2430 1.391 . S
H2432 C2440 0.950 . S
H2433 C2445 0.950 . S
H2434 C2442 0.950 . S
H2435 C2444 0.950 . S
H2436 C2446 0.950 . S
H2437 C2448 0.950 . S
H2438 C2450 0.950 . S
H2439 C2451 0.950 . S
C2440 H2432 0.950 . S
C2440 C2441 1.386 . S
C2440 C2442 1.391 . S
C2441 C2440 1.386 . S
C2441 C2445 1.393 . S
C2442 H2434 0.950 . S
C2442 C2440 1.391 . S
C2442 C2443 1.400 . S
C2443 C2442 1.400 . S
C2443 C2444 1.398 . S
C2443 C2449 1.491 . S
C2444 H2435 0.950 . S
C2444 C2443 1.398 . S
C2444 C2445 1.391 . S
C2445 H2433 0.950 . S
C2445 C2441 1.393 . S
C2445 C2444 1.391 . S
C2446 H2436 0.950 . S
C2446 C2447 1.386 . S
C2446 C2448 1.391 . S
C2447 C2446 1.386 . S
C2447 C2451 1.393 . S
C2448 H2437 0.950 . S
C2448 C2446 1.391 . S
C2448 C2449 1.400 . S
C2449 C2443 1.491 . S
C2449 C2448 1.400 . S
C2449 C2450 1.398 . S
C2450 H2438 0.950 . S
C2450 C2449 1.398 . S
C2450 C2451 1.391 . S
C2451 H2439 0.950 . S
C2451 C2447 1.393 . S
C2451 C2450 1.391 . S
H2452 C2460 0.950 . S
H2453 C2465 0.950 . S
H2454 C2462 0.950 . S
H2455 C2464 0.950 . S
H2456 C2466 0.950 . S
H2457 C2468 0.950 . S
H2458 C2470 0.950 . S
H2459 C2471 0.950 . S
C2460 H2452 0.950 . S
C2460 C2461 1.386 . S
C2460 C2462 1.391 . S
C2461 C2460 1.386 . S
C2461 C2465 1.393 . S
C2462 H2454 0.950 . S
C2462 C2460 1.391 . S
C2462 C2463 1.400 . S
C2463 C2462 1.400 . S
C2463 C2464 1.398 . S
C2463 C2469 1.491 . S
C2464 H2455 0.950 . S
C2464 C2463 1.398 . S
C2464 C2465 1.391 . S
C2465 H2453 0.950 . S
C2465 C2461 1.393 . S
C2465 C2464 1.391 . S
C2466 H2456 0.950 . S
C2466 C2467 1.386 . S
C2466 C2468 1.391 . S
C2467 C2466 1.386 . S
C2467 C2471 1.393 . S
C2468 H2457 0.950 . S
C2468 C2466 1.391 . S
C2468 C2469 1.400 . S
C2469 C2463 1.491 . S
C2469 C2468 1.400 . S
C2469 C2470 1.398 . S
C2470 H2458 0.950 . S
C2470 C2469 1.398 . S
C2470 C2471 1.391 . S
C2471 H2459 0.950 . S
C2471 C2467 1.393 . S
C2471 C2470 1.391 . S
H2472 C2480 0.950 . S
H2473 C2485 0.950 . S
H2474 C2482 0.950 . S
H2475 C2484 0.950 . S
H2476 C2486 0.950 . S
H2477 C2488 0.950 . S
H2478 C2490 0.950 . S
H2479 C2491 0.950 . S
C2480 H2472 0.950 . S
C2480 C2481 1.386 . S
C2480 C2482 1.391 . S
C2481 C2480 1.386 . S
C2481 C2485 1.393 . S
C2482 H2474 0.950 . S
C2482 C2480 1.391 . S
C2482 C2483 1.400 . S
C2483 C2482 1.400 . S
C2483 C2484 1.398 . S
C2483 C2489 1.491 . S
C2484 H2475 0.950 . S
C2484 C2483 1.398 . S
C2484 C2485 1.391 . S
C2485 H2473 0.950 . S
C2485 C2481 1.393 . S
C2485 C2484 1.391 . S
C2486 H2476 0.950 . S
C2486 C2487 1.386 . S
C2486 C2488 1.391 . S
C2487 C2486 1.386 . S
C2487 C2491 1.393 . S
C2488 H2477 0.950 . S
C2488 C2486 1.391 . S
C2488 C2489 1.400 . S
C2489 C2483 1.491 . S
C2489 C2488 1.400 . S
C2489 C2490 1.398 . S
C2490 H2478 0.950 . S
C2490 C2489 1.398 . S
C2490 C2491 1.391 . S
C2491 H2479 0.950 . S
C2491 C2487 1.393 . S
C2491 C2490 1.391 . S
H2492 C2500 0.950 . S
H2493 C2505 0.950 . S
H2494 C2502 0.950 . S
H2495 C2504 0.950 . S
H2496 C2506 0.950 . S
H2497 C2508 0.950 . S
H2498 C2510 0.950 . S
H2499 C2511 0.950 . S
C2500 H2492 0.950 . S
C2500 C2501 1.386 . S
C2500 C2502 1.391 . S
C2501 C2500 1.386 . S
C2501 C2505 1.393 . S
C2502 H2494 0.950 . S
C2502 C2500 1.391 . S
C2502 C2503 1.400 . S
C2503 C2502 1.400 . S
C2503 C2504 1.398 . S
C2503 C2509 1.491 . S
C2504 H2495 0.950 . S
C2504 C2503 1.398 . S
C2504 C2505 1.391 . S
C2505 H2493 0.950 . S
C2505 C2501 1.393 . S
C2505 C2504 1.391 . S
C2506 H2496 0.950 . S
C2506 C2507 1.386 . S
C2506 C2508 1.391 . S
C2507 C2506 1.386 . S
C2507 C2511 1.393 . S
C2508 H2497 0.950 . S
C2508 C2506 1.391 . S
C2508 C2509 1.400 . S
C2509 C2503 1.491 . S
C2509 C2508 1.400 . S
C2509 C2510 1.398 . S
C2510 H2498 0.950 . S
C2510 C2509 1.398 . S
C2510 C2511 1.391 . S
C2511 H2499 0.950 . S
C2511 C2507 1.393 . S
C2511 C2510 1.391 . S
H2512 C2520 0.950 . S
H2513 C2525 0.950 . S
H2514 C2522 0.950 . S
H2515 C2524 0.950 . S
H2516 C2526 0.950 . S
H2517 C2528 0.950 . S
H2518 C2530 0.950 . S
H2519 C2531 0.950 . S
C2520 H2512 0.950 . S
C2520 C2521 1.386 . S
C2520 C2522 1.391 . S
C2521 C2520 1.386 . S
C2521 C2525 1.393 . S
C2522 H2514 0.950 . S
C2522 C2520 1.391 . S
C2522 C2523 1.400 . S
C2523 C2522 1.400 . S
C2523 C2524 1.398 . S
C2523 C2529 1.491 . S
C2524 H2515 0.950 . S
C2524 C2523 1.398 . S
C2524 C2525 1.391 . S
C2525 H2513 0.950 . S
C2525 C2521 1.393 . S
C2525 C2524 1.391 . S
C2526 H2516 0.950 . S
C2526 C2527 1.386 . S
C2526 C2528 1.391 . S
C2527 C2526 1.386 . S
C2527 C2531 1.393 . S
C2528 H2517 0.950 . S
C2528 C2526 1.391 . S
C2528 C2529 1.400 . S
C2529 C2523 1.491 . S
C2529 C2528 1.400 . S
C2529 C2530 1.398 . S
C2530 H2518 0.950 . S
C2530 C2529 1.398 . S
C2530 C2531 1.391 . S
C2531 H2519 0.950 . S
C2531 C2527 1.393 . S
C2531 C2530 1.391 . S
H2532 C2540 0.950 . S
H2533 C2545 0.950 . S
H2534 C2542 0.950 . S
H2535 C2544 0.950 . S
H2536 C2546 0.950 . S
H2537 C2548 0.950 . S
H2538 C2550 0.950 . S
H2539 C2551 0.950 . S
C2540 H2532 0.950 . S
C2540 C2541 1.386 . S
C2540 C2542 1.391 . S
C2541 C2540 1.386 . S
C2541 C2545 1.393 . S
C2542 H2534 0.950 . S
C2542 C2540 1.391 . S
C2542 C2543 1.400 . S
C2543 C2542 1.400 . S
C2543 C2544 1.398 . S
C2543 C2549 1.491 . S
C2544 H2535 0.950 . S
C2544 C2543 1.398 . S
C2544 C2545 1.391 . S
C2545 H2533 0.950 . S
C2545 C2541 1.393 . S
C2545 C2544 1.391 . S
C2546 H2536 0.950 . S
C2546 C2547 1.386 . S
C2546 C2548 1.391 . S
C2547 C2546 1.386 . S
C2547 C2551 1.393 . S
C2548 H2537 0.950 . S
C2548 C2546 1.391 . S
C2548 C2549 1.400 . S
C2549 C2543 1.491 . S
C2549 C2548 1.400 . S
C2549 C2550 1.398 . S
C2550 H2538 0.950 . S
C2550 C2549 1.398 . S
C2550 C2551 1.391 . S
C2551 H2539 0.950 . S
C2551 C2547 1.393 . S
C2551 C2550 1.391 . S
H2552 C2560 0.950 . S
H2553 C2565 0.950 . S
H2554 C2562 0.950 . S
H2555 C2564 0.950 . S
H2556 C2566 0.950 . S
H2557 C2568 0.950 . S
H2558 C2570 0.950 . S
H2559 C2571 0.950 . S
C2560 H2552 0.950 . S
C2560 C2561 1.386 . S
C2560 C2562 1.391 . S
C2561 C2560 1.386 . S
C2561 C2565 1.393 . S
C2562 H2554 0.950 . S
C2562 C2560 1.391 . S
C2562 C2563 1.400 . S
C2563 C2562 1.400 . S
C2563 C2564 1.398 . S
C2563 C2569 1.491 . S
C2564 H2555 0.950 . S
C2564 C2563 1.398 . S
C2564 C2565 1.391 . S
C2565 H2553 0.950 . S
C2565 C2561 1.393 . S
C2565 C2564 1.391 . S
C2566 H2556 0.950 . S
C2566 C2567 1.386 . S
C2566 C2568 1.391 . S
C2567 C2566 1.386 . S
C2567 C2571 1.393 . S
C2568 H2557 0.950 . S
C2568 C2566 1.391 . S
C2568 C2569 1.400 . S
C2569 C2563 1.491 . S
C2569 C2568 1.400 . S
C2569 C2570 1.398 . S
C2570 H2558 0.950 . S
C2570 C2569 1.398 . S
C2570 C2571 1.391 . S
C2571 H2559 0.950 . S
C2571 C2567 1.393 . S
C2571 C2570 1.391 . S
H2572 C2580 0.950 . S
H2573 C2585 0.950 . S
H2574 C2582 0.950 . S
H2575 C2584 0.950 . S
H2576 C2586 0.950 . S
H2577 C2588 0.950 . S
H2578 C2590 0.950 . S
H2579 C2591 0.950 . S
C2580 H2572 0.950 . S
C2580 C2581 1.386 . S
C2580 C2582 1.391 . S
C2581 C2580 1.386 . S
C2581 C2585 1.393 . S
C2582 H2574 0.950 . S
C2582 C2580 1.391 . S
C2582 C2583 1.400 . S
C2583 C2582 1.400 . S
C2583 C2584 1.398 . S
C2583 C2589 1.491 . S
C2584 H2575 0.950 . S
C2584 C2583 1.398 . S
C2584 C2585 1.391 . S
C2585 H2573 0.950 . S
C2585 C2581 1.393 . S
C2585 C2584 1.391 . S
C2586 H2576 0.950 . S
C2586 C2587 1.386 . S
C2586 C2588 1.391 . S
C2587 C2586 1.386 . S
C2587 C2591 1.393 . S
C2588 H2577 0.950 . S
C2588 C2586 1.391 . S
C2588 C2589 1.400 . S
C2589 C2583 1.491 . S
C2589 C2588 1.400 . S
C2589 C2590 1.398 . S
C2590 H2578 0.950 . S
C2590 C2589 1.398 . S
C2590 C2591 1.391 . S
C2591 H2579 0.950 . S
C2591 C2587 1.393 . S
C2591 C2590 1.391 . S
C681 C283 1.515 . S
C687 C3 1.510 . S
C701 C21 1.407 . S
C707 C245 1.403 . S
C721 C31 1.512 . S
C727 C259 1.435 . S
C741 C273 1.419 . S
C747 C49 1.427 . S
C761 C329 1.432 . S
C767 C63 1.437 . S
C781 C73 1.515 . S
C787 C301 1.448 . S
C801 C91 1.409 . S
C807 C311 1.497 . S
C821 C101 1.518 . S
C827 C227 1.514 . S
C841 C115 1.506 . S
C847 C213 1.513 . S
C861 C133 1.436 . S
C867 C175 1.430 . S
C881 C143 1.505 . S
C887 C185 1.499 . S
C901 C203 1.431 . S
C907 C161 1.439 . S
C921 C343 1.387 . S
C927 C623 1.419 . S
C941 C577 1.458 . S
C947 C353 1.449 . S
C961 C371 1.402 . S
C967 C591 1.472 . S
C981 C609 1.399 . S
C987 C381 1.449 . S
C1001 C395 1.447 . S
C1007 C661 1.457 . S
C1021 C633 1.466 . S
C1027 C413 1.401 . S
C1041 C423 1.444 . S
C1047 C651 1.368 . S
C1061 C567 1.422 . S
C1067 C441 1.391 . S
C1081 C455 1.395 . S
C1087 C553 1.380 . S
C1101 C507 1.460 . S
C1107 C465 1.455 . S
C1121 C525 1.374 . S
C1127 C483 1.380 . S
C1141 C535 1.478 . S
C1147 C493 1.479 . S
C1161 C367 1.132 . S
C1167 C7 1.095 . S
C1181 C17 1.132 . S
C1187 C385 1.085 . S
C1201 C35 1.073 . S
C1207 C339 1.143 . S
C1221 C45 1.161 . S
C1227 C357 1.112 . S
C1241 C59 1.130 . S
C1247 C427 1.088 . S
C1261 C437 1.138 . S
C1267 C77 1.104 . S
C1281 C399 1.077 . S
C1287 C87 1.140 . S
C1301 C409 1.132 . S
C1307 C105 1.110 . S
C1321 C511 1.117 . S
C1327 C119 1.078 . S
C1341 C129 1.126 . S
C1347 C521 1.140 . S
C1361 C539 1.101 . S
C1367 C147 1.105 . S
C1381 C157 1.128 . S
C1387 C549 1.143 . S
C1401 C171 1.141 . S
C1407 C451 1.135 . S
C1421 C189 1.111 . S
C1427 C469 1.086 . S
C1441 C479 1.132 . S
C1447 C199 1.142 . S
C1461 C497 1.087 . S
C1467 C217 1.083 . S
C1481 C231 1.086 . S
C1487 C605 1.132 . S
C1501 C241 1.141 . S
C1507 C637 1.078 . S
C1521 C647 1.127 . S
C1527 C255 1.139 . S
C1541 C563 1.129 . S
C1547 C269 1.141 . S
C1561 C287 1.073 . S
C1567 C665 1.113 . S
C1581 C581 1.124 . S
C1587 C297 1.143 . S
C1601 C315 1.115 . S
C1607 C595 1.105 . S
C1621 C325 1.125 . S
C1627 C619 1.137 . S
C1641 C400 1.713 . S
C1647 C9 1.637 . S
C1661 C415 1.639 . S
C1667 C22 1.720 . S
C1681 C428 1.717 . S
C1687 C37 1.642 . S
C1701 C50 1.712 . S
C1707 C443 1.639 . S
C1721 C345 1.639 . S
C1727 C64 1.717 . S
C1741 C358 1.711 . S
C1747 C79 1.656 . S
C1761 C92 1.708 . S
C1767 C373 1.654 . S
C1781 C386 1.700 . S
C1787 C107 1.663 . S
C1801 C121 1.666 . S
C1807 C540 1.704 . S
C1821 C134 1.710 . S
C1827 C555 1.657 . S
C1841 C512 1.701 . S
C1847 C149 1.664 . S
C1861 C162 1.709 . S
C1867 C527 1.657 . S
C1881 C485 1.658 . S
C1887 C176 1.710 . S
C1901 C191 1.648 . S
C1907 C498 1.713 . S
C1921 C204 1.712 . S
C1927 C457 1.649 . S
C1941 C219 1.665 . S
C1947 C470 1.700 . S
C1961 C638 1.711 . S
C1967 C233 1.639 . S
C1981 C246 1.718 . S
C1987 C611 1.649 . S
C2001 C260 1.704 . S
C2007 C625 1.643 . S
C2021 C274 1.698 . S
C2027 C582 1.700 . S
C2041 C596 1.703 . S
C2047 C289 1.656 . S
C2061 C569 1.663 . S
C2067 C302 1.721 . S
C2081 C666 1.731 . S
C2087 C317 1.669 . S
C2101 C330 1.712 . S
C2107 C653 1.660 . S
C2121 C218 1.504 . S
C2127 C8 1.504 . S
C2141 C23 1.391 . S
C2147 C177 1.388 . S
C2161 C190 1.482 . S
C2167 C36 1.487 . S
C2181 C205 1.408 . S
C2187 C51 1.410 . S
C2201 C135 1.377 . S
C2207 C65 1.382 . S
C2221 C78 1.481 . S
C2227 C148 1.479 . S
C2241 C93 1.377 . S
C2247 C163 1.375 . S
C2261 C120 1.478 . S
C2267 C106 1.477 . S
C2281 C232 1.505 . S
C2287 C288 1.503 . S
C2301 C331 1.415 . S
C2307 C247 1.418 . S
C2321 C303 1.409 . S
C2327 C261 1.406 . S
C2341 C275 1.427 . S
C2347 C316 1.513 . S
C2361 C554 1.453 . S
C2367 C344 1.447 . S
C2381 C513 1.328 . S
C2387 C359 1.330 . S
C2401 C372 1.462 . S
C2407 C526 1.459 . S
C2421 C541 1.372 . S
C2427 C387 1.373 . S
C2441 C471 1.348 . S
C2447 C401 1.352 . S
C2461 C414 1.463 . S
C2467 C484 1.464 . S
C2481 C429 1.366 . S
C2487 C499 1.369 . S
C2501 C442 1.438 . S
C2507 C456 1.437 . S
C2521 C568 1.458 . S
C2527 C624 1.460 . S
C2541 C667 1.330 . S
C2547 C583 1.334 . S
C2561 C639 1.368 . S
C2567 C597 1.366 . S
C2581 C652 1.459 . S
C2587 C610 1.452 . S
