# Generated by pormake.
# Topology mer, (4)-cn, num edge types: 1
# Building blocks:
#     Node 0, Type 0, BuildingBlock: CEKHIL_clean_sbu_0, # of connection points: 4
#     Node 1, Type 0, BuildingBlock: CEKHIL_clean_sbu_0, # of connection points: 4
#     Node 2, Type 0, BuildingBlock: CEKHIL_clean_sbu_0, # of connection points: 4
#     Node 3, Type 0, BuildingBlock: CEKHIL_clean_sbu_0, # of connection points: 4
#     Node 4, Type 0, BuildingBlock: CEKHIL_clean_sbu_0, # of connection points: 4
#     Node 5, Type 0, BuildingBlock: CEKHIL_clean_sbu_0, # of connection points: 4
#     Node 6, Type 0, BuildingBlock: CEKHIL_clean_sbu_0, # of connection points: 4
#     Node 7, Type 0, BuildingBlock: CEKHIL_clean_sbu_0, # of connection points: 4
#     Node 8, Type 0, BuildingBlock: CEKHIL_clean_sbu_0, # of connection points: 4
#     Node 9, Type 0, BuildingBlock: CEKHIL_clean_sbu_0, # of connection points: 4
#     Node 10, Type 0, BuildingBlock: CEKHIL_clean_sbu_0, # of connection points: 4
#     Node 11, Type 0, BuildingBlock: CEKHIL_clean_sbu_0, # of connection points: 4
#     Node 12, Type 0, BuildingBlock: CEKHIL_clean_sbu_0, # of connection points: 4
#     Node 13, Type 0, BuildingBlock: CEKHIL_clean_sbu_0, # of connection points: 4
#     Node 14, Type 0, BuildingBlock: CEKHIL_clean_sbu_0, # of connection points: 4
#     Node 15, Type 0, BuildingBlock: CEKHIL_clean_sbu_0, # of connection points: 4
#     Node 16, Type 0, BuildingBlock: CEKHIL_clean_sbu_0, # of connection points: 4
#     Node 17, Type 0, BuildingBlock: CEKHIL_clean_sbu_0, # of connection points: 4
#     Node 18, Type 0, BuildingBlock: CEKHIL_clean_sbu_0, # of connection points: 4
#     Node 19, Type 0, BuildingBlock: CEKHIL_clean_sbu_0, # of connection points: 4
#     Node 20, Type 0, BuildingBlock: CEKHIL_clean_sbu_0, # of connection points: 4
#     Node 21, Type 0, BuildingBlock: CEKHIL_clean_sbu_0, # of connection points: 4
#     Node 22, Type 0, BuildingBlock: CEKHIL_clean_sbu_0, # of connection points: 4
#     Node 23, Type 0, BuildingBlock: CEKHIL_clean_sbu_0, # of connection points: 4
#     Node 24, Type 0, BuildingBlock: CEKHIL_clean_sbu_0, # of connection points: 4
#     Node 25, Type 0, BuildingBlock: CEKHIL_clean_sbu_0, # of connection points: 4
#     Node 26, Type 0, BuildingBlock: CEKHIL_clean_sbu_0, # of connection points: 4
#     Node 27, Type 0, BuildingBlock: CEKHIL_clean_sbu_0, # of connection points: 4
#     Node 28, Type 0, BuildingBlock: CEKHIL_clean_sbu_0, # of connection points: 4
#     Node 29, Type 0, BuildingBlock: CEKHIL_clean_sbu_0, # of connection points: 4
#     Node 30, Type 0, BuildingBlock: CEKHIL_clean_sbu_0, # of connection points: 4
#     Node 31, Type 0, BuildingBlock: CEKHIL_clean_sbu_0, # of connection points: 4
#     Edge 32, Type (0, 0), BuildingBlock: MIFKUJ_clean_linker_0, # of connection points: 2
#     Edge 33, Type (0, 0), BuildingBlock: MIFKUJ_clean_linker_0, # of connection points: 2
#     Edge 34, Type (0, 0), BuildingBlock: MIFKUJ_clean_linker_0, # of connection points: 2
#     Edge 35, Type (0, 0), BuildingBlock: MIFKUJ_clean_linker_0, # of connection points: 2
#     Edge 36, Type (0, 0), BuildingBlock: MIFKUJ_clean_linker_0, # of connection points: 2
#     Edge 37, Type (0, 0), BuildingBlock: MIFKUJ_clean_linker_0, # of connection points: 2
#     Edge 38, Type (0, 0), BuildingBlock: MIFKUJ_clean_linker_0, # of connection points: 2
#     Edge 39, Type (0, 0), BuildingBlock: MIFKUJ_clean_linker_0, # of connection points: 2
#     Edge 40, Type (0, 0), BuildingBlock: MIFKUJ_clean_linker_0, # of connection points: 2
#     Edge 41, Type (0, 0), BuildingBlock: MIFKUJ_clean_linker_0, # of connection points: 2
#     Edge 42, Type (0, 0), BuildingBlock: MIFKUJ_clean_linker_0, # of connection points: 2
#     Edge 43, Type (0, 0), BuildingBlock: MIFKUJ_clean_linker_0, # of connection points: 2
#     Edge 44, Type (0, 0), BuildingBlock: MIFKUJ_clean_linker_0, # of connection points: 2
#     Edge 45, Type (0, 0), BuildingBlock: MIFKUJ_clean_linker_0, # of connection points: 2
#     Edge 46, Type (0, 0), BuildingBlock: MIFKUJ_clean_linker_0, # of connection points: 2
#     Edge 47, Type (0, 0), BuildingBlock: MIFKUJ_clean_linker_0, # of connection points: 2
#     Edge 48, Type (0, 0), BuildingBlock: MIFKUJ_clean_linker_0, # of connection points: 2
#     Edge 49, Type (0, 0), BuildingBlock: MIFKUJ_clean_linker_0, # of connection points: 2
#     Edge 50, Type (0, 0), BuildingBlock: MIFKUJ_clean_linker_0, # of connection points: 2
#     Edge 51, Type (0, 0), BuildingBlock: MIFKUJ_clean_linker_0, # of connection points: 2
#     Edge 52, Type (0, 0), BuildingBlock: MIFKUJ_clean_linker_0, # of connection points: 2
#     Edge 53, Type (0, 0), BuildingBlock: MIFKUJ_clean_linker_0, # of connection points: 2
#     Edge 54, Type (0, 0), BuildingBlock: MIFKUJ_clean_linker_0, # of connection points: 2
#     Edge 55, Type (0, 0), BuildingBlock: MIFKUJ_clean_linker_0, # of connection points: 2
#     Edge 56, Type (0, 0), BuildingBlock: MIFKUJ_clean_linker_0, # of connection points: 2
#     Edge 57, Type (0, 0), BuildingBlock: MIFKUJ_clean_linker_0, # of connection points: 2
#     Edge 58, Type (0, 0), BuildingBlock: MIFKUJ_clean_linker_0, # of connection points: 2
#     Edge 59, Type (0, 0), BuildingBlock: MIFKUJ_clean_linker_0, # of connection points: 2
#     Edge 60, Type (0, 0), BuildingBlock: MIFKUJ_clean_linker_0, # of connection points: 2
#     Edge 61, Type (0, 0), BuildingBlock: MIFKUJ_clean_linker_0, # of connection points: 2
#     Edge 62, Type (0, 0), BuildingBlock: MIFKUJ_clean_linker_0, # of connection points: 2
#     Edge 63, Type (0, 0), BuildingBlock: MIFKUJ_clean_linker_0, # of connection points: 2
#     Edge 64, Type (0, 0), BuildingBlock: MIFKUJ_clean_linker_0, # of connection points: 2
#     Edge 65, Type (0, 0), BuildingBlock: MIFKUJ_clean_linker_0, # of connection points: 2
#     Edge 66, Type (0, 0), BuildingBlock: MIFKUJ_clean_linker_0, # of connection points: 2
#     Edge 67, Type (0, 0), BuildingBlock: MIFKUJ_clean_linker_0, # of connection points: 2
#     Edge 68, Type (0, 0), BuildingBlock: MIFKUJ_clean_linker_0, # of connection points: 2
#     Edge 69, Type (0, 0), BuildingBlock: MIFKUJ_clean_linker_0, # of connection points: 2
#     Edge 70, Type (0, 0), BuildingBlock: MIFKUJ_clean_linker_0, # of connection points: 2
#     Edge 71, Type (0, 0), BuildingBlock: MIFKUJ_clean_linker_0, # of connection points: 2
#     Edge 72, Type (0, 0), BuildingBlock: MIFKUJ_clean_linker_0, # of connection points: 2
#     Edge 73, Type (0, 0), BuildingBlock: MIFKUJ_clean_linker_0, # of connection points: 2
#     Edge 74, Type (0, 0), BuildingBlock: MIFKUJ_clean_linker_0, # of connection points: 2
#     Edge 75, Type (0, 0), BuildingBlock: MIFKUJ_clean_linker_0, # of connection points: 2
#     Edge 76, Type (0, 0), BuildingBlock: MIFKUJ_clean_linker_0, # of connection points: 2
#     Edge 77, Type (0, 0), BuildingBlock: MIFKUJ_clean_linker_0, # of connection points: 2
#     Edge 78, Type (0, 0), BuildingBlock: MIFKUJ_clean_linker_0, # of connection points: 2
#     Edge 79, Type (0, 0), BuildingBlock: MIFKUJ_clean_linker_0, # of connection points: 2
#     Edge 80, Type (0, 0), BuildingBlock: MIFKUJ_clean_linker_0, # of connection points: 2
#     Edge 81, Type (0, 0), BuildingBlock: MIFKUJ_clean_linker_0, # of connection points: 2
#     Edge 82, Type (0, 0), BuildingBlock: MIFKUJ_clean_linker_0, # of connection points: 2
#     Edge 83, Type (0, 0), BuildingBlock: MIFKUJ_clean_linker_0, # of connection points: 2
#     Edge 84, Type (0, 0), BuildingBlock: MIFKUJ_clean_linker_0, # of connection points: 2
#     Edge 85, Type (0, 0), BuildingBlock: MIFKUJ_clean_linker_0, # of connection points: 2
#     Edge 86, Type (0, 0), BuildingBlock: MIFKUJ_clean_linker_0, # of connection points: 2
#     Edge 87, Type (0, 0), BuildingBlock: MIFKUJ_clean_linker_0, # of connection points: 2
#     Edge 88, Type (0, 0), BuildingBlock: MIFKUJ_clean_linker_0, # of connection points: 2
#     Edge 89, Type (0, 0), BuildingBlock: MIFKUJ_clean_linker_0, # of connection points: 2
#     Edge 90, Type (0, 0), BuildingBlock: MIFKUJ_clean_linker_0, # of connection points: 2
#     Edge 91, Type (0, 0), BuildingBlock: MIFKUJ_clean_linker_0, # of connection points: 2
#     Edge 92, Type (0, 0), BuildingBlock: MIFKUJ_clean_linker_0, # of connection points: 2
#     Edge 93, Type (0, 0), BuildingBlock: MIFKUJ_clean_linker_0, # of connection points: 2
#     Edge 94, Type (0, 0), BuildingBlock: MIFKUJ_clean_linker_0, # of connection points: 2
#     Edge 95, Type (0, 0), BuildingBlock: MIFKUJ_clean_linker_0, # of connection points: 2
# Relax obj value: 0.065
# Max RMSD: 0.118
# Mean RMSD: 0.118
data_MOF--net-mer--node1-CEKHIL_clean_sbu_0--edge1-MIFKUJ_clean_linker_0
_symmetry_space_group_name_H-M    P1
_symmetry_Int_Tables_number       1
_symmetry_cell_setting            triclinic
loop_
_symmetry_equiv_pos_as_xyz
'x, y, z'
_cell_length_a     80.569241
_cell_length_b     80.590302
_cell_length_c     69.442764
_cell_angle_alpha  89.962484
_cell_angle_beta   90.020539
_cell_angle_gamma 90.001574
loop_
_atom_site_label
_atom_site_type_symbol
_atom_site_fract_x
_atom_site_fract_y
_atom_site_fract_z
_atom_type_partial_charge
Co0 Co 0.11662 0.2901 0.35501 0.0
O1 O 0.09519 0.30043 0.35468 0.0
O2 O 0.09973 0.27386 0.36108 0.0
C3 C 0.12599 0.30123 0.32741 0.0
O4 O 0.13692 0.27506 0.35585 0.0
Co5 Co 0.1484 0.31187 0.35817 0.0
O6 O 0.15975 0.29074 0.35172 0.0
C7 C 0.12744 0.30672 0.39233 0.0
C8 C 0.08918 0.28597 0.35905 0.0
C9 C 0.15265 0.27664 0.35307 0.0
O10 O 0.1191 0.29567 0.38312 0.0
O11 O 0.13872 0.31562 0.38444 0.0
O12 O 0.1164 0.28826 0.32698 0.0
O13 O 0.12806 0.30793 0.34412 0.0
Co14 Co 0.71276 0.11355 0.35543 0.0
O15 O 0.70286 0.09193 0.35714 0.0
O16 O 0.72958 0.09733 0.36154 0.0
C17 C 0.70022 0.12152 0.32804 0.0
O18 O 0.72762 0.13391 0.35407 0.0
Co19 Co 0.69134 0.14551 0.35775 0.0
O20 O 0.71197 0.15652 0.34873 0.0
C21 C 0.69803 0.12628 0.393 0.0
C22 C 0.71765 0.08647 0.36106 0.0
C23 C 0.72606 0.1494 0.34996 0.0
O24 O 0.70839 0.11723 0.38362 0.0
O25 O 0.68907 0.13747 0.38501 0.0
O26 O 0.71331 0.11211 0.32739 0.0
O27 O 0.69429 0.12433 0.345 0.0
Co28 Co 0.88425 0.71076 0.35771 0.0
O29 O 0.90633 0.70189 0.35721 0.0
O30 O 0.90006 0.72809 0.36365 0.0
C31 C 0.87552 0.69908 0.33012 0.0
O32 O 0.86308 0.72452 0.35862 0.0
Co33 Co 0.85375 0.68728 0.36076 0.0
O34 O 0.84118 0.70768 0.35408 0.0
C35 C 0.87462 0.69326 0.39488 0.0
C36 C 0.9114 0.71674 0.36144 0.0
C37 C 0.8475 0.72213 0.35556 0.0
O38 O 0.88225 0.70493 0.38583 0.0
O39 O 0.86385 0.68382 0.38688 0.0
O40 O 0.88419 0.71268 0.32968 0.0
O41 O 0.87394 0.69225 0.34683 0.0
Co42 Co 0.28682 0.88399 0.35672 0.0
O43 O 0.29572 0.90603 0.35815 0.0
O44 O 0.26918 0.89958 0.36202 0.0
C45 C 0.30014 0.87617 0.32977 0.0
O46 O 0.27308 0.86282 0.3556 0.0
Co47 Co 0.31016 0.85341 0.36039 0.0
O48 O 0.29023 0.84108 0.35159 0.0
C49 C 0.30173 0.87286 0.39491 0.0
C50 C 0.28066 0.91093 0.3616 0.0
C51 C 0.2757 0.84733 0.35224 0.0
O52 O 0.29087 0.88097 0.38511 0.0
O53 O 0.31164 0.86228 0.38735 0.0
O54 O 0.28665 0.88497 0.32862 0.0
O55 O 0.30595 0.874 0.34692 0.0
Co56 Co 0.11415 0.71263 0.63815 0.0
O57 O 0.09252 0.7027 0.63611 0.0
O58 O 0.09797 0.72944 0.63201 0.0
C59 C 0.12195 0.70011 0.66564 0.0
O60 O 0.13447 0.72756 0.63976 0.0
Co61 Co 0.14622 0.69137 0.63605 0.0
O62 O 0.15708 0.71196 0.64538 0.0
C63 C 0.12699 0.69775 0.60073 0.0
C64 C 0.0871 0.71752 0.63229 0.0
C65 C 0.14992 0.72603 0.64409 0.0
O66 O 0.11805 0.7083 0.60997 0.0
O67 O 0.13809 0.68877 0.60886 0.0
O68 O 0.11241 0.71311 0.66617 0.0
O69 O 0.12497 0.6942 0.6487 0.0
Co70 Co 0.28832 0.11608 0.63647 0.0
O71 O 0.29919 0.09511 0.63301 0.0
O72 O 0.27198 0.09906 0.6315 0.0
C73 C 0.30237 0.12393 0.66285 0.0
O74 O 0.27263 0.1357 0.64001 0.0
Co75 Co 0.30808 0.14912 0.6334 0.0
O76 O 0.28778 0.15872 0.64508 0.0
C77 C 0.30019 0.13018 0.59829 0.0
C78 C 0.28448 0.08889 0.63049 0.0
C79 C 0.27393 0.15109 0.64481 0.0
O80 O 0.29058 0.12064 0.60811 0.0
O81 O 0.30917 0.14152 0.60592 0.0
O82 O 0.28985 0.11384 0.66439 0.0
O83 O 0.3069 0.12751 0.64551 0.0
Co84 Co 0.88365 0.28982 0.63849 0.0
O85 O 0.90511 0.30002 0.63707 0.0
O86 O 0.90023 0.27318 0.63294 0.0
C87 C 0.87535 0.30265 0.66548 0.0
O88 O 0.86337 0.27474 0.63975 0.0
Co89 Co 0.85134 0.31073 0.63563 0.0
O90 O 0.84123 0.29052 0.64701 0.0
C91 C 0.87095 0.30394 0.60065 0.0
C92 C 0.91089 0.2853 0.63353 0.0
C93 C 0.84822 0.27641 0.64534 0.0
O94 O 0.88034 0.29401 0.61022 0.0
O95 O 0.85926 0.31245 0.60829 0.0
O96 O 0.88476 0.28957 0.66655 0.0
O97 O 0.87259 0.30828 0.64837 0.0
Co98 Co 0.71315 0.88324 0.63703 0.0
O99 O 0.70402 0.90499 0.63358 0.0
O100 O 0.73075 0.89875 0.631 0.0
C101 C 0.69933 0.87694 0.66415 0.0
O102 O 0.72702 0.86227 0.64017 0.0
Co103 Co 0.69006 0.8523 0.63543 0.0
O104 O 0.70985 0.84085 0.64613 0.0
C105 C 0.69792 0.87074 0.59996 0.0
C106 C 0.71908 0.90988 0.63015 0.0
C107 C 0.72437 0.84711 0.64517 0.0
O108 O 0.70946 0.8786 0.60891 0.0
O109 O 0.6878 0.86084 0.60836 0.0
O110 O 0.71281 0.88578 0.66501 0.0
O111 O 0.69393 0.87374 0.64707 0.0
Co112 Co 0.88551 0.70998 0.6375 0.0
O113 O 0.9074 0.70093 0.63477 0.0
O114 O 0.90089 0.72745 0.63076 0.0
C115 C 0.87901 0.69723 0.66524 0.0
O116 O 0.86441 0.7238 0.63982 0.0
Co117 Co 0.85476 0.68667 0.63642 0.0
O118 O 0.84312 0.70663 0.64632 0.0
C119 C 0.87293 0.69397 0.60066 0.0
C120 C 0.91219 0.71591 0.63071 0.0
C121 C 0.84925 0.72116 0.64485 0.0
O122 O 0.88109 0.70538 0.60948 0.0
O123 O 0.86283 0.68415 0.60921 0.0
O124 O 0.88792 0.71067 0.66545 0.0
O125 O 0.87598 0.6911 0.64843 0.0
Co126 Co 0.28939 0.88455 0.63924 0.0
O127 O 0.30019 0.90566 0.63685 0.0
O128 O 0.27305 0.9016 0.63436 0.0
C129 C 0.30292 0.87601 0.66574 0.0
O130 O 0.27381 0.86478 0.6415 0.0
Co131 Co 0.30953 0.8518 0.63552 0.0
O132 O 0.28895 0.84165 0.64595 0.0
C133 C 0.30204 0.87156 0.60087 0.0
C134 C 0.28552 0.91186 0.63403 0.0
C135 C 0.27507 0.84924 0.64554 0.0
O136 O 0.2922 0.88074 0.61081 0.0
O137 O 0.31112 0.8602 0.60834 0.0
O138 O 0.29028 0.88595 0.66729 0.0
O139 O 0.30785 0.87301 0.64841 0.0
Co140 Co 0.11426 0.2882 0.63513 0.0
O141 O 0.09297 0.2986 0.63257 0.0
O142 O 0.09773 0.27172 0.62868 0.0
C143 C 0.12175 0.30068 0.66269 0.0
O144 O 0.13436 0.27299 0.63751 0.0
Co145 Co 0.14657 0.30925 0.63367 0.0
O146 O 0.15684 0.28862 0.64377 0.0
C147 C 0.12761 0.30323 0.59812 0.0
C148 C 0.08717 0.28393 0.6288 0.0
C149 C 0.14967 0.27456 0.64254 0.0
O150 O 0.11878 0.29236 0.60703 0.0
O151 O 0.13842 0.31232 0.60658 0.0
O152 O 0.11197 0.28785 0.6631 0.0
O153 O 0.12512 0.30646 0.6458 0.0
Co154 Co 0.71437 0.11299 0.63664 0.0
O155 O 0.70438 0.09158 0.63333 0.0
O156 O 0.73134 0.09678 0.63084 0.0
C157 C 0.70081 0.12006 0.66369 0.0
O158 O 0.72918 0.13332 0.63975 0.0
Co159 Co 0.69297 0.14509 0.63482 0.0
O160 O 0.71286 0.15508 0.64707 0.0
C161 C 0.7008 0.12695 0.59909 0.0
C162 C 0.71927 0.08607 0.63014 0.0
C163 C 0.72711 0.14829 0.64574 0.0
O164 O 0.71102 0.11768 0.60843 0.0
O165 O 0.69158 0.13784 0.60721 0.0
O166 O 0.71381 0.11052 0.66461 0.0
O167 O 0.69558 0.12347 0.64656 0.0
Co168 Co 0.88481 0.28865 0.35768 0.0
O169 O 0.90596 0.29959 0.35896 0.0
O170 O 0.90201 0.2726 0.36305 0.0
C171 C 0.87577 0.30113 0.33071 0.0
O172 O 0.8651 0.27283 0.35649 0.0
Co173 Co 0.85183 0.30853 0.36088 0.0
O174 O 0.842 0.28771 0.35087 0.0
C175 C 0.87175 0.30214 0.39571 0.0
C176 C 0.91227 0.28505 0.36233 0.0
C177 C 0.84962 0.27389 0.35201 0.0
O178 O 0.88146 0.29259 0.38605 0.0
O179 O 0.85986 0.31039 0.38811 0.0
O180 O 0.8858 0.28853 0.32958 0.0
O181 O 0.87297 0.30667 0.34784 0.0
Co182 Co 0.71115 0.88466 0.35689 0.0
O183 O 0.70193 0.90655 0.35809 0.0
O184 O 0.7285 0.90049 0.3625 0.0
C185 C 0.69819 0.87666 0.32981 0.0
O186 O 0.72521 0.86368 0.356 0.0
Co187 Co 0.68821 0.85375 0.36029 0.0
O188 O 0.70848 0.84158 0.3522 0.0
C189 C 0.69514 0.87414 0.39446 0.0
C190 C 0.71686 0.91168 0.36181 0.0
C191 C 0.7229 0.84811 0.35283 0.0
O192 O 0.70674 0.88163 0.3852 0.0
O193 O 0.68524 0.86372 0.38658 0.0
O194 O 0.71159 0.8856 0.32878 0.0
O195 O 0.6923 0.8744 0.34688 0.0
Co196 Co 0.11372 0.7104 0.3577 0.0
O197 O 0.0915 0.70197 0.35713 0.0
O198 O 0.09825 0.72795 0.36405 0.0
C199 C 0.122 0.69899 0.32988 0.0
O200 O 0.13515 0.72372 0.35878 0.0
Co201 Co 0.14376 0.68645 0.36005 0.0
O202 O 0.15647 0.70657 0.35262 0.0
C203 C 0.12398 0.69304 0.39491 0.0
C204 C 0.08671 0.71682 0.36172 0.0
C205 C 0.15053 0.72111 0.3548 0.0
O206 O 0.11571 0.70416 0.38569 0.0
O207 O 0.13495 0.68383 0.38693 0.0
O208 O 0.11384 0.7129 0.32977 0.0
O209 O 0.12349 0.69174 0.34637 0.0
Co210 Co 0.28704 0.1123 0.35531 0.0
O211 O 0.29598 0.09027 0.35668 0.0
O212 O 0.26962 0.0968 0.36181 0.0
C213 C 0.29934 0.11972 0.32758 0.0
O214 O 0.2732 0.13344 0.35455 0.0
Co215 Co 0.31033 0.14307 0.35688 0.0
O216 O 0.28996 0.15531 0.34945 0.0
C217 C 0.30311 0.12444 0.39244 0.0
C218 C 0.28107 0.08543 0.36098 0.0
C219 C 0.27553 0.14895 0.35103 0.0
O220 O 0.29225 0.11571 0.38339 0.0
O221 O 0.31244 0.13515 0.38416 0.0
O222 O 0.28575 0.11102 0.32726 0.0
O223 O 0.30577 0.12213 0.34436 0.0
Co224 Co 0.6152 0.78927 0.85645 0.0
O225 O 0.59321 0.79843 0.85807 0.0
O226 O 0.59948 0.77182 0.86184 0.0
C227 C 0.62307 0.80245 0.82944 0.0
O228 O 0.63615 0.77513 0.85512 0.0
Co229 Co 0.64633 0.81191 0.85978 0.0
O230 O 0.65842 0.79168 0.85165 0.0
C231 C 0.62672 0.8042 0.8944 0.0
C232 C 0.58823 0.78339 0.86151 0.0
C233 C 0.65177 0.77733 0.85209 0.0
O234 O 0.61834 0.79342 0.88481 0.0
O235 O 0.63761 0.8137 0.88674 0.0
O236 O 0.61404 0.78911 0.82838 0.0
O237 O 0.62549 0.80823 0.84655 0.0
Co238 Co 0.20928 0.61612 0.85832 0.0
O239 O 0.19897 0.59472 0.8602 0.0
O240 O 0.22595 0.59936 0.86324 0.0
C241 C 0.19577 0.62442 0.83169 0.0
O242 O 0.22446 0.63627 0.85641 0.0
Co243 Co 0.18851 0.64841 0.86186 0.0
O244 O 0.20888 0.65902 0.85142 0.0
C245 C 0.19515 0.62803 0.89629 0.0
C246 C 0.21375 0.58879 0.86309 0.0
C247 C 0.22292 0.65173 0.85203 0.0
O248 O 0.2059 0.61958 0.88675 0.0
O249 O 0.18588 0.63911 0.88856 0.0
O250 O 0.20878 0.61495 0.83025 0.0
O251 O 0.1906 0.62723 0.84896 0.0
Co252 Co 0.38628 0.2113 0.85571 0.0
O253 O 0.40794 0.20144 0.85653 0.0
O254 O 0.40258 0.22804 0.86187 0.0
C255 C 0.37789 0.19929 0.82822 0.0
O256 O 0.36581 0.22602 0.85541 0.0
Co257 Co 0.35452 0.18957 0.85823 0.0
O258 O 0.34324 0.21031 0.84992 0.0
C259 C 0.37446 0.19559 0.89309 0.0
C260 C 0.41346 0.21614 0.86074 0.0
C261 C 0.35028 0.22441 0.85155 0.0
O262 O 0.38316 0.2063 0.88381 0.0
O263 O 0.36326 0.18663 0.88513 0.0
O264 O 0.38716 0.21249 0.82767 0.0
O265 O 0.37544 0.193 0.84509 0.0
Co266 Co 0.7879 0.38568 0.85822 0.0
O267 O 0.79739 0.40749 0.85916 0.0
O268 O 0.77085 0.40174 0.86424 0.0
C269 C 0.80015 0.37751 0.83078 0.0
O270 O 0.77356 0.36484 0.85765 0.0
Co271 Co 0.81051 0.35446 0.86094 0.0
O272 O 0.79016 0.34293 0.85206 0.0
C273 C 0.80382 0.37422 0.89571 0.0
C274 C 0.78258 0.4128 0.86319 0.0
C275 C 0.77578 0.34943 0.85349 0.0
O276 O 0.79285 0.38261 0.88641 0.0
O277 O 0.81308 0.36327 0.88778 0.0
O278 O 0.78687 0.38666 0.83015 0.0
O279 O 0.80641 0.37518 0.84768 0.0
Co280 Co 0.61587 0.21004 0.13579 0.0
O281 O 0.59442 0.19977 0.13429 0.0
O282 O 0.59913 0.22671 0.13091 0.0
C283 C 0.62448 0.19678 0.16247 0.0
O284 O 0.63612 0.22517 0.13726 0.0
Co285 Co 0.64805 0.18905 0.13187 0.0
O286 O 0.65887 0.20947 0.14167 0.0
C287 C 0.62791 0.19633 0.09744 0.0
C288 C 0.58851 0.21455 0.13135 0.0
C289 C 0.65167 0.22355 0.14112 0.0
O290 O 0.61904 0.20651 0.10732 0.0
O291 O 0.63928 0.18726 0.10489 0.0
O292 O 0.61491 0.20971 0.16386 0.0
O293 O 0.62711 0.19144 0.14521 0.0
Co294 Co 0.78745 0.61514 0.1375 0.0
O295 O 0.79723 0.59346 0.13772 0.0
O296 O 0.77065 0.5987 0.13192 0.0
C297 C 0.79956 0.62427 0.16464 0.0
O298 O 0.77278 0.63572 0.13715 0.0
Co299 Co 0.80949 0.64659 0.13349 0.0
O300 O 0.78885 0.65825 0.14129 0.0
C301 C 0.80394 0.62509 0.09989 0.0
C302 C 0.78251 0.58786 0.13376 0.0
C303 C 0.77463 0.65135 0.14037 0.0
O304 O 0.79251 0.61735 0.1092 0.0
O305 O 0.81318 0.63618 0.10758 0.0
O306 O 0.78635 0.61504 0.16561 0.0
O307 O 0.80578 0.62623 0.14767 0.0
Co308 Co 0.38469 0.78995 0.13669 0.0
O309 O 0.40662 0.79917 0.13654 0.0
O310 O 0.40064 0.77284 0.13046 0.0
C311 C 0.37624 0.80173 0.1643 0.0
O312 O 0.36366 0.77592 0.13628 0.0
Co313 Co 0.35391 0.81307 0.13376 0.0
O314 O 0.34154 0.79257 0.14033 0.0
C315 C 0.37389 0.80641 0.09916 0.0
C316 C 0.41181 0.78442 0.13206 0.0
C317 C 0.34801 0.77818 0.13903 0.0
O318 O 0.38222 0.79549 0.10858 0.0
O319 O 0.36281 0.81563 0.10692 0.0
O320 O 0.38514 0.78827 0.16471 0.0
O321 O 0.37429 0.80841 0.14755 0.0
Co322 Co 0.21197 0.38577 0.13433 0.0
O323 O 0.2026 0.40764 0.13433 0.0
O324 O 0.22908 0.4019 0.12879 0.0
C325 C 0.19972 0.37688 0.16149 0.0
O326 O 0.22627 0.36491 0.13411 0.0
Co327 Co 0.18935 0.35465 0.13064 0.0
O328 O 0.20983 0.34262 0.13807 0.0
C329 C 0.19603 0.37525 0.09647 0.0
C330 C 0.21742 0.41299 0.13041 0.0
C331 C 0.22416 0.34928 0.13713 0.0
O332 O 0.20687 0.38359 0.10603 0.0
O333 O 0.18691 0.36398 0.10402 0.0
O334 O 0.2131 0.38586 0.16241 0.0
O335 O 0.19341 0.37506 0.14454 0.0
Co336 Co 0.38414 0.21014 0.13693 0.0
O337 O 0.40562 0.1999 0.13618 0.0
O338 O 0.40098 0.22679 0.13222 0.0
C339 C 0.375 0.19718 0.16354 0.0
O340 O 0.36378 0.22517 0.1376 0.0
Co341 Co 0.35236 0.18856 0.13216 0.0
O342 O 0.3409 0.20928 0.13991 0.0
C343 C 0.37344 0.19547 0.09855 0.0
C344 C 0.41158 0.21463 0.13312 0.0
C345 C 0.34801 0.22342 0.13995 0.0
O346 O 0.38154 0.20629 0.10842 0.0
O347 O 0.36232 0.18604 0.10587 0.0
O348 O 0.38455 0.21012 0.16506 0.0
O349 O 0.3728 0.19164 0.1463 0.0
Co350 Co 0.78851 0.38496 0.13805 0.0
O351 O 0.79805 0.40673 0.13818 0.0
O352 O 0.7717 0.40116 0.13155 0.0
C353 C 0.79994 0.37628 0.16574 0.0
O354 O 0.77413 0.36418 0.13755 0.0
Co355 Co 0.81102 0.35373 0.13544 0.0
O356 O 0.7904 0.34203 0.1432 0.0
C357 C 0.80533 0.37406 0.10086 0.0
C358 C 0.78341 0.41214 0.13355 0.0
C359 C 0.77611 0.34868 0.14142 0.0
O360 O 0.7943 0.38244 0.11005 0.0
O361 O 0.81426 0.36283 0.10879 0.0
O362 O 0.7866 0.38536 0.16605 0.0
O363 O 0.8067 0.37424 0.14906 0.0
Co364 Co 0.61397 0.78927 0.13709 0.0
O365 O 0.5922 0.79889 0.13636 0.0
O366 O 0.5978 0.77235 0.13108 0.0
C367 C 0.62235 0.80147 0.16449 0.0
O368 O 0.63462 0.77471 0.13744 0.0
Co369 Co 0.6455 0.81134 0.13428 0.0
O370 O 0.65708 0.79073 0.14223 0.0
C371 C 0.62557 0.80492 0.09952 0.0
C372 C 0.58681 0.78413 0.13224 0.0
C373 C 0.65021 0.77652 0.14095 0.0
O374 O 0.61686 0.79427 0.1089 0.0
O375 O 0.63684 0.81387 0.10734 0.0
O376 O 0.61319 0.78819 0.16515 0.0
O377 O 0.62469 0.80771 0.14758 0.0
Co378 Co 0.21216 0.61533 0.13836 0.0
O379 O 0.2039 0.59315 0.14095 0.0
O380 O 0.22972 0.59966 0.13286 0.0
C381 C 0.20092 0.62526 0.16564 0.0
O382 O 0.2253 0.6367 0.13523 0.0
Co383 Co 0.18779 0.64491 0.13382 0.0
O384 O 0.20805 0.65851 0.13789 0.0
C385 C 0.19332 0.62225 0.10122 0.0
C386 C 0.21871 0.58822 0.1363 0.0
C387 C 0.22261 0.6524 0.13661 0.0
O388 O 0.20549 0.61552 0.11035 0.0
O389 O 0.18377 0.63315 0.10878 0.0
O390 O 0.21486 0.61715 0.16624 0.0
O391 O 0.19362 0.62569 0.1491 0.0
Co392 Co 0.38645 0.78556 0.85645 0.0
O393 O 0.40824 0.7949 0.85919 0.0
O394 O 0.40218 0.76819 0.86235 0.0
C395 C 0.37957 0.799 0.82928 0.0
O396 O 0.36564 0.77131 0.85395 0.0
Co397 Co 0.35497 0.80781 0.85826 0.0
O398 O 0.34375 0.7878 0.8479 0.0
C399 C 0.37349 0.80022 0.89383 0.0
C400 C 0.4133 0.77989 0.8626 0.0
C401 C 0.35036 0.77347 0.84909 0.0
O402 O 0.38229 0.78951 0.88465 0.0
O403 O 0.36276 0.80959 0.88564 0.0
O404 O 0.3886 0.78565 0.82847 0.0
O405 O 0.37644 0.80454 0.84634 0.0
Co406 Co 0.21105 0.38418 0.85423 0.0
O407 O 0.20041 0.40547 0.85332 0.0
O408 O 0.22716 0.40143 0.85917 0.0
C409 C 0.19942 0.37383 0.82735 0.0
O410 O 0.22653 0.36423 0.85556 0.0
Co411 Co 0.19046 0.3518 0.85889 0.0
O412 O 0.21151 0.34108 0.85081 0.0
C413 C 0.19562 0.37374 0.89235 0.0
C414 C 0.21487 0.41177 0.85718 0.0
C415 C 0.22539 0.34856 0.85225 0.0
O416 O 0.2059 0.38254 0.88252 0.0
O417 O 0.18738 0.36163 0.8852 0.0
O418 O 0.21232 0.38347 0.82613 0.0
O419 O 0.19319 0.37211 0.84435 0.0
Co420 Co 0.61566 0.20997 0.854 0.0
O421 O 0.59385 0.20044 0.85465 0.0
O422 O 0.59954 0.22704 0.85947 0.0
C423 C 0.6243 0.19733 0.82696 0.0
O424 O 0.63636 0.22443 0.85373 0.0
Co425 Co 0.6471 0.18785 0.8576 0.0
O426 O 0.65867 0.20824 0.8488 0.0
C427 C 0.62685 0.19479 0.89201 0.0
C428 C 0.58851 0.21528 0.85847 0.0
C429 C 0.65188 0.22249 0.85001 0.0
O430 O 0.61829 0.20538 0.88233 0.0
O431 O 0.63812 0.18568 0.88446 0.0
O432 O 0.6152 0.21063 0.82587 0.0
O433 O 0.62641 0.19135 0.84403 0.0
Co434 Co 0.78825 0.61525 0.85707 0.0
O435 O 0.79749 0.59332 0.85717 0.0
O436 O 0.77096 0.5992 0.86214 0.0
C437 C 0.80094 0.62427 0.83022 0.0
O438 O 0.77414 0.63622 0.85719 0.0
Co439 Co 0.81125 0.64598 0.86171 0.0
O440 O 0.79088 0.65846 0.8547 0.0
C441 C 0.8047 0.62433 0.89493 0.0
C442 C 0.78259 0.58806 0.86085 0.0
C443 C 0.77647 0.65191 0.85491 0.0
O444 O 0.79294 0.61724 0.88549 0.0
O445 O 0.81451 0.63501 0.88739 0.0
O446 O 0.78755 0.61533 0.82893 0.0
O447 O 0.807 0.62588 0.84732 0.0
H448 H 0.24245 0.14106 0.35475 0.0
H449 H 0.21886 0.16025 0.35515 0.0
H450 H 0.25209 0.2013 0.34509 0.0
H451 H 0.27562 0.1824 0.34471 0.0
H452 H 0.2312 0.20666 0.37556 0.0
H453 H 0.22759 0.18697 0.30964 0.0
H454 H 0.22474 0.16547 0.2846 0.0
H455 H 0.17788 0.15062 0.30849 0.0
H456 H 0.18057 0.17191 0.33384 0.0
H457 H 0.186 0.2752 0.34646 0.0
H458 H 0.20381 0.25087 0.34659 0.0
H459 H 0.16149 0.21951 0.35753 0.0
H460 H 0.14332 0.24395 0.35733 0.0
H461 H 0.18359 0.20617 0.33021 0.0
H462 H 0.18556 0.22765 0.39392 0.0
H463 H 0.18813 0.24909 0.41905 0.0
H464 H 0.23769 0.26001 0.40019 0.0
H465 H 0.23534 0.2388 0.37474 0.0
C466 C 0.24472 0.15415 0.35246 0.0
C467 C 0.26098 0.16017 0.34982 0.0
C468 C 0.23122 0.16509 0.35265 0.0
C469 C 0.23376 0.18218 0.35019 0.0
C470 C 0.24988 0.18815 0.34712 0.0
C471 C 0.26333 0.17729 0.34687 0.0
C472 C 0.21985 0.19414 0.35155 0.0
C473 C 0.22084 0.20661 0.36558 0.0
C474 C 0.206 0.19364 0.33902 0.0
C475 C 0.20438 0.18088 0.32377 0.0
C476 C 0.21675 0.17902 0.30966 0.0
C477 C 0.21515 0.1669 0.29539 0.0
C478 C 0.20116 0.15665 0.29499 0.0
C479 C 0.18872 0.15854 0.30884 0.0
C480 C 0.19028 0.17064 0.32315 0.0
C481 C 0.18037 0.26317 0.34884 0.0
C482 C 0.16321 0.26159 0.35209 0.0
C483 C 0.19062 0.24925 0.34893 0.0
C484 C 0.184 0.23344 0.35237 0.0
C485 C 0.16682 0.23164 0.35495 0.0
C486 C 0.15649 0.24563 0.35487 0.0
C487 C 0.19533 0.21902 0.35375 0.0
C488 C 0.19382 0.20607 0.34036 0.0
C489 C 0.20869 0.21897 0.36696 0.0
C490 C 0.21023 0.23169 0.38233 0.0
C491 C 0.19697 0.2347 0.39503 0.0
C492 C 0.19839 0.2468 0.40935 0.0
C493 C 0.21305 0.25592 0.41119 0.0
C494 C 0.22634 0.25293 0.39874 0.0
C495 C 0.22497 0.24086 0.38438 0.0
H496 H 0.21413 0.26529 0.42229 0.0
H497 H 0.19994 0.14728 0.28393 0.0
H498 H 0.75838 0.14064 0.35725 0.0
H499 H 0.78307 0.15817 0.35443 0.0
H500 H 0.75274 0.19855 0.33382 0.0
H501 H 0.72806 0.1812 0.33646 0.0
H502 H 0.78186 0.19554 0.31342 0.0
H503 H 0.76391 0.19682 0.38019 0.0
H504 H 0.75695 0.18422 0.41155 0.0
H505 H 0.80603 0.16371 0.41548 0.0
H506 H 0.8132 0.17603 0.384 0.0
H507 H 0.8185 0.27128 0.33687 0.0
H508 H 0.80176 0.24638 0.33319 0.0
H509 H 0.84183 0.21664 0.35572 0.0
H510 H 0.85879 0.24169 0.35966 0.0
H511 H 0.81245 0.20976 0.37321 0.0
H512 H 0.83183 0.21327 0.30893 0.0
H513 H 0.83864 0.22659 0.27796 0.0
H514 H 0.78722 0.23836 0.26914 0.0
H515 H 0.78011 0.22534 0.3002 0.0
C516 C 0.75697 0.15321 0.35196 0.0
C517 C 0.7412 0.15956 0.34724 0.0
C518 C 0.77109 0.1632 0.35039 0.0
C519 C 0.76969 0.17968 0.34405 0.0
C520 C 0.75408 0.18585 0.33872 0.0
C521 C 0.73997 0.17593 0.34036 0.0
C522 C 0.78425 0.19088 0.34382 0.0
C523 C 0.78856 0.19869 0.32646 0.0
C524 C 0.79332 0.19454 0.36075 0.0
C525 C 0.78901 0.18714 0.37965 0.0
C526 C 0.77316 0.18949 0.38767 0.0
C527 C 0.76919 0.18243 0.40547 0.0
C528 C 0.78102 0.17312 0.41547 0.0
C529 C 0.79687 0.17089 0.4077 0.0
C530 C 0.80089 0.17791 0.38988 0.0
C531 C 0.82387 0.25946 0.34094 0.0
C532 C 0.83998 0.25851 0.34867 0.0
C533 C 0.8143 0.2452 0.33867 0.0
C534 C 0.82062 0.22964 0.34397 0.0
C535 C 0.83677 0.22854 0.35145 0.0
C536 C 0.84643 0.24285 0.35365 0.0
C537 C 0.80974 0.21485 0.3429 0.0
C538 C 0.80608 0.20635 0.36002 0.0
C539 C 0.80128 0.21057 0.32575 0.0
C540 C 0.80545 0.21838 0.30698 0.0
C541 C 0.82198 0.2188 0.30046 0.0
C542 C 0.82589 0.22628 0.28287 0.0
C543 C 0.81337 0.23334 0.2716 0.0
C544 C 0.79691 0.23289 0.27788 0.0
C545 C 0.79293 0.22543 0.29547 0.0
H546 H 0.81643 0.23913 0.25799 0.0
H547 H 0.77793 0.16767 0.42926 0.0
H548 H 0.85514 0.75504 0.3609 0.0
H549 H 0.83639 0.77885 0.35837 0.0
H550 H 0.79599 0.74601 0.34396 0.0
H551 H 0.81454 0.72223 0.34627 0.0
H552 H 0.79684 0.77307 0.32058 0.0
H553 H 0.79996 0.76146 0.38894 0.0
H554 H 0.81446 0.7576 0.41991 0.0
H555 H 0.83376 0.80718 0.41638 0.0
H556 H 0.81953 0.81124 0.38524 0.0
H557 H 0.72313 0.81548 0.34215 0.0
H558 H 0.74688 0.79689 0.3401 0.0
H559 H 0.7796 0.83697 0.35598 0.0
H560 H 0.75579 0.85575 0.3583 0.0
H561 H 0.78589 0.80943 0.37678 0.0
H562 H 0.7802 0.82223 0.31029 0.0
H563 H 0.76626 0.82608 0.27903 0.0
H564 H 0.75213 0.77471 0.2786 0.0
H565 H 0.76586 0.77058 0.30999 0.0
C566 C 0.84227 0.75288 0.35716 0.0
C567 C 0.83635 0.73669 0.35388 0.0
C568 C 0.83158 0.7665 0.35577 0.0
C569 C 0.81479 0.76417 0.3511 0.0
C570 C 0.80891 0.74808 0.34755 0.0
C571 C 0.81955 0.73448 0.34898 0.0
C572 C 0.80314 0.77837 0.35006 0.0
C573 C 0.79435 0.78097 0.33289 0.0
C574 C 0.80035 0.78901 0.36593 0.0
C575 C 0.80885 0.78658 0.38466 0.0
C576 C 0.80741 0.77148 0.39469 0.0
C577 C 0.81556 0.76927 0.41229 0.0
C578 C 0.82507 0.78212 0.42007 0.0
C579 C 0.82642 0.79723 0.41031 0.0
C580 C 0.81831 0.79949 0.39269 0.0
C581 C 0.73536 0.82043 0.34511 0.0
C582 C 0.73752 0.83712 0.35047 0.0
C583 C 0.74896 0.80978 0.34379 0.0
C584 C 0.76504 0.81558 0.3477 0.0
C585 C 0.7673 0.83227 0.35285 0.0
C586 C 0.75368 0.84298 0.35412 0.0
C587 C 0.77923 0.80387 0.34742 0.0
C588 C 0.78853 0.80172 0.36434 0.0
C589 C 0.78251 0.79366 0.3313 0.0
C590 C 0.77398 0.79613 0.31256 0.0
C591 C 0.77399 0.81179 0.30362 0.0
C592 C 0.76616 0.81401 0.28584 0.0
C593 C 0.7583 0.80065 0.27683 0.0
C594 C 0.75824 0.78504 0.28559 0.0
C595 C 0.76607 0.78275 0.30336 0.0
H596 H 0.75229 0.80237 0.26304 0.0
H597 H 0.83137 0.78038 0.4337 0.0
H598 H 0.18268 0.72094 0.34238 0.0
H599 H 0.20198 0.74416 0.34112 0.0
H600 H 0.16389 0.777 0.36235 0.0
H601 H 0.14428 0.75378 0.36341 0.0
H602 H 0.18232 0.79149 0.33367 0.0
H603 H 0.1927 0.76306 0.39284 0.0
H604 H 0.19811 0.73887 0.41366 0.0
H605 H 0.24353 0.72927 0.3833 0.0
H606 H 0.23826 0.75328 0.3621 0.0
H607 H 0.24283 0.85373 0.35969 0.0
H608 H 0.21978 0.83395 0.35902 0.0
H609 H 0.25302 0.79564 0.33919 0.0
H610 H 0.27609 0.81514 0.34007 0.0
H611 H 0.23532 0.78545 0.36942 0.0
H612 H 0.22403 0.81359 0.30933 0.0
H613 H 0.21834 0.83795 0.28885 0.0
H614 H 0.17451 0.8486 0.32177 0.0
H615 H 0.18007 0.82441 0.3426 0.0
C616 C 0.17833 0.73308 0.34676 0.0
C617 C 0.16196 0.73544 0.35323 0.0
C618 C 0.18941 0.74635 0.34604 0.0
C619 C 0.18444 0.76223 0.35195 0.0
C620 C 0.16797 0.76481 0.3578 0.0
C621 C 0.15681 0.75151 0.35845 0.0
C622 C 0.1967 0.77592 0.35259 0.0
C623 C 0.19381 0.79031 0.34171 0.0
C624 C 0.21173 0.77428 0.36296 0.0
C625 C 0.21501 0.7599 0.37578 0.0
C626 C 0.20378 0.75573 0.39051 0.0
C627 C 0.20683 0.74206 0.4024 0.0
C628 C 0.22114 0.73252 0.39978 0.0
C629 C 0.23244 0.73667 0.3853 0.0
C630 C 0.22944 0.75032 0.37336 0.0
C631 C 0.2452 0.84114 0.35497 0.0
C632 C 0.26135 0.83599 0.3501 0.0
C633 C 0.23199 0.82987 0.35454 0.0
C634 C 0.23469 0.81333 0.34905 0.0
C635 C 0.25068 0.80833 0.34359 0.0
C636 C 0.26386 0.81952 0.34409 0.0
C637 C 0.2212 0.80086 0.35005 0.0
C638 C 0.22381 0.7867 0.36141 0.0
C639 C 0.20593 0.80279 0.3402 0.0
C640 C 0.20257 0.8173 0.32765 0.0
C641 C 0.21326 0.82121 0.3123 0.0
C642 C 0.21004 0.83497 0.30061 0.0
C643 C 0.1961 0.84485 0.30404 0.0
C644 C 0.18532 0.84095 0.31914 0.0
C645 C 0.18849 0.82721 0.33088 0.0
H646 H 0.19363 0.85549 0.29498 0.0
H647 H 0.22348 0.72194 0.409 0.0
H648 H 0.1802 0.7284 0.66148 0.0
H649 H 0.19765 0.75299 0.66458 0.0
H650 H 0.16024 0.78247 0.63623 0.0
H651 H 0.14257 0.75786 0.6331 0.0
H652 H 0.19176 0.78655 0.62068 0.0
H653 H 0.16621 0.78882 0.68221 0.0
H654 H 0.15623 0.77815 0.7134 0.0
H655 H 0.20622 0.76638 0.72993 0.0
H656 H 0.2165 0.77674 0.6987 0.0
H657 H 0.24319 0.85741 0.6356 0.0
H658 H 0.21846 0.83987 0.63818 0.0
H659 H 0.24765 0.80155 0.66529 0.0
H660 H 0.27239 0.81891 0.66274 0.0
H661 H 0.2164 0.80575 0.68229 0.0
H662 H 0.24093 0.79906 0.61911 0.0
H663 H 0.25127 0.80901 0.58774 0.0
H664 H 0.20309 0.82866 0.57438 0.0
H665 H 0.19252 0.81903 0.60584 0.0
C666 C 0.1756 0.74012 0.65601 0.0
C667 C 0.16002 0.74116 0.64697 0.0
C668 C 0.18555 0.75418 0.65791 0.0
C669 C 0.18017 0.76955 0.65075 0.0
C670 C 0.16456 0.77071 0.6419 0.0
C671 C 0.15449 0.75666 0.64018 0.0
C672 C 0.19139 0.78407 0.65158 0.0
C673 C 0.19684 0.79105 0.63418 0.0
C674 C 0.19821 0.78969 0.66918 0.0
C675 C 0.19212 0.78346 0.68803 0.0
C676 C 0.17508 0.78383 0.69242 0.0
C677 C 0.16936 0.77786 0.71013 0.0
C678 C 0.18058 0.77157 0.72362 0.0
C679 C 0.19755 0.77126 0.71945 0.0
C680 C 0.20332 0.7772 0.70176 0.0
C681 C 0.2443 0.84535 0.64235 0.0
C682 C 0.25978 0.83947 0.64878 0.0
C683 C 0.23017 0.83534 0.64377 0.0
C684 C 0.2313 0.81939 0.65179 0.0
C685 C 0.24655 0.81384 0.65906 0.0
C686 C 0.26069 0.82373 0.65747 0.0
C687 C 0.21696 0.80794 0.6514 0.0
C688 C 0.211 0.80151 0.66885 0.0
C689 C 0.20969 0.80277 0.63385 0.0
C690 C 0.216 0.80853 0.61492 0.0
C691 C 0.23258 0.80564 0.60956 0.0
C692 C 0.23848 0.8112 0.59176 0.0
C693 C 0.22786 0.81951 0.5791 0.0
C694 C 0.21131 0.82225 0.58422 0.0
C695 C 0.20536 0.81675 0.60203 0.0
H696 H 0.23244 0.82377 0.56531 0.0
H697 H 0.17614 0.76695 0.73732 0.0
H698 H 0.24144 0.14195 0.63908 0.0
H699 H 0.21673 0.1593 0.64312 0.0
H700 H 0.24733 0.19933 0.66409 0.0
H701 H 0.27195 0.18212 0.66038 0.0
H702 H 0.2184 0.1976 0.68383 0.0
H703 H 0.23631 0.19739 0.61717 0.0
H704 H 0.24334 0.18409 0.58625 0.0
H705 H 0.19418 0.16374 0.58263 0.0
H706 H 0.18693 0.17676 0.61369 0.0
H707 H 0.18061 0.2729 0.65852 0.0
H708 H 0.19785 0.24843 0.66305 0.0
H709 H 0.15873 0.21749 0.64046 0.0
H710 H 0.14136 0.24207 0.63554 0.0
H711 H 0.18787 0.21071 0.62364 0.0
H712 H 0.16889 0.21568 0.68837 0.0
H713 H 0.1625 0.23011 0.71878 0.0
H714 H 0.21395 0.24265 0.72571 0.0
H715 H 0.22063 0.22843 0.69524 0.0
C716 C 0.24288 0.15436 0.64481 0.0
C717 C 0.25872 0.16073 0.64912 0.0
C718 C 0.22875 0.16427 0.64708 0.0
C719 C 0.23023 0.18068 0.65366 0.0
C720 C 0.2459 0.18672 0.65896 0.0
C721 C 0.25999 0.17687 0.65668 0.0
C722 C 0.21582 0.19212 0.65363 0.0
C723 C 0.2117 0.20048 0.67069 0.0
C724 C 0.20684 0.19559 0.63657 0.0
C725 C 0.21115 0.18786 0.61785 0.0
C726 C 0.22704 0.18997 0.60985 0.0
C727 C 0.23106 0.1825 0.59229 0.0
C728 C 0.21924 0.17302 0.58252 0.0
C729 C 0.20334 0.17105 0.59025 0.0
C730 C 0.19927 0.17847 0.60782 0.0
C731 C 0.17558 0.2609 0.65458 0.0
C732 C 0.15963 0.25948 0.64649 0.0
C733 C 0.18543 0.24688 0.65736 0.0
C734 C 0.17952 0.23109 0.65228 0.0
C735 C 0.1635 0.22955 0.64454 0.0
C736 C 0.15359 0.24361 0.64177 0.0
C737 C 0.19064 0.21648 0.65376 0.0
C738 C 0.19422 0.20755 0.63693 0.0
C739 C 0.19917 0.21259 0.67101 0.0
C740 C 0.19525 0.22101 0.68947 0.0
C741 C 0.17883 0.22157 0.69633 0.0
C742 C 0.17517 0.22969 0.7136 0.0
C743 C 0.18782 0.23725 0.72419 0.0
C744 C 0.20417 0.23673 0.71753 0.0
C745 C 0.20791 0.2286 0.70028 0.0
H746 H 0.18495 0.24358 0.73752 0.0
H747 H 0.22238 0.16724 0.56893 0.0
H748 H 0.72931 0.1728 0.67233 0.0
H749 H 0.75225 0.19218 0.6772 0.0
H750 H 0.78044 0.16705 0.63312 0.0
H751 H 0.75781 0.14702 0.62906 0.0
H752 H 0.80075 0.17811 0.66029 0.0
H753 H 0.75569 0.2022 0.62309 0.0
H754 H 0.72638 0.20991 0.6179 0.0
H755 H 0.72739 0.24019 0.66874 0.0
H756 H 0.75667 0.23256 0.67431 0.0
H757 H 0.85126 0.24568 0.62903 0.0
H758 H 0.83261 0.22198 0.6331 0.0
H759 H 0.80425 0.24961 0.67498 0.0
H760 H 0.82237 0.27354 0.6702 0.0
H761 H 0.7843 0.23687 0.65079 0.0
H762 H 0.83023 0.21492 0.6866 0.0
H763 H 0.85936 0.20687 0.69225 0.0
H764 H 0.85699 0.17263 0.64498 0.0
H765 H 0.82791 0.18063 0.63888 0.0
C766 C 0.74054 0.17126 0.66395 0.0
C767 C 0.74174 0.15859 0.65017 0.0
C768 C 0.75361 0.18236 0.66667 0.0
C769 C 0.76788 0.18138 0.65511 0.0
C770 C 0.76951 0.16812 0.64212 0.0
C771 C 0.75657 0.15672 0.63976 0.0
C772 C 0.78039 0.19491 0.6554 0.0
C773 C 0.79721 0.19096 0.65808 0.0
C774 C 0.77574 0.21171 0.65288 0.0
C775 C 0.75831 0.21673 0.64917 0.0
C776 C 0.74964 0.21049 0.63316 0.0
C777 C 0.73304 0.21484 0.63016 0.0
C778 C 0.72502 0.22551 0.643 0.0
C779 C 0.73362 0.23193 0.65881 0.0
C780 C 0.75022 0.22763 0.66187 0.0
C781 C 0.84116 0.24658 0.63927 0.0
C782 C 0.83816 0.26147 0.64919 0.0
C783 C 0.83055 0.233 0.64169 0.0
C784 C 0.81705 0.23391 0.65448 0.0
C785 C 0.8145 0.24859 0.66496 0.0
C786 C 0.82486 0.26226 0.66223 0.0
C787 C 0.80478 0.22018 0.65579 0.0
C788 C 0.78794 0.22408 0.65325 0.0
C789 C 0.80946 0.20338 0.65847 0.0
C790 C 0.82692 0.19847 0.66219 0.0
C791 C 0.83596 0.20575 0.67733 0.0
C792 C 0.85246 0.20119 0.68062 0.0
C793 C 0.86003 0.18927 0.66895 0.0
C794 C 0.85111 0.18186 0.654 0.0
C795 C 0.83461 0.18639 0.65063 0.0
H796 H 0.87281 0.18576 0.67152 0.0
H797 H 0.71216 0.22882 0.64068 0.0
H798 H 0.85377 0.75361 0.63404 0.0
H799 H 0.83401 0.77649 0.63729 0.0
H800 H 0.8 0.74401 0.66706 0.0
H801 H 0.81941 0.72105 0.66334 0.0
H802 H 0.78457 0.75973 0.63954 0.0
H803 H 0.82192 0.7759 0.69022 0.0
H804 H 0.84907 0.78303 0.70439 0.0
H805 H 0.85391 0.82385 0.66502 0.0
H806 H 0.82688 0.81684 0.65044 0.0
H807 H 0.72442 0.81792 0.66502 0.0
H808 H 0.74723 0.79825 0.66848 0.0
H809 H 0.77942 0.83125 0.63687 0.0
H810 H 0.75672 0.85131 0.63389 0.0
H811 H 0.79622 0.8159 0.66544 0.0
H812 H 0.75972 0.79926 0.61413 0.0
H813 H 0.73274 0.79223 0.59947 0.0
H814 H 0.72673 0.75208 0.63956 0.0
H815 H 0.75359 0.75903 0.65463 0.0
C816 C 0.84217 0.7514 0.64148 0.0
C817 C 0.83812 0.73548 0.64831 0.0
C818 C 0.8309 0.76452 0.64341 0.0
C819 C 0.81553 0.76201 0.65251 0.0
C820 C 0.81174 0.74624 0.65991 0.0
C821 C 0.82287 0.73312 0.65778 0.0
C822 C 0.80284 0.77537 0.65311 0.0
C823 C 0.78708 0.77191 0.64552 0.0
C824 C 0.80623 0.79146 0.66031 0.0
C825 C 0.82244 0.79575 0.66913 0.0
C826 C 0.82883 0.78633 0.68449 0.0
C827 C 0.84419 0.79036 0.69262 0.0
C828 C 0.85323 0.80386 0.68558 0.0
C829 C 0.8469 0.81339 0.67044 0.0
C830 C 0.83156 0.8094 0.66226 0.0
C831 C 0.7364 0.8211 0.65899 0.0
C832 C 0.73869 0.83607 0.64894 0.0
C833 C 0.74943 0.80982 0.66095 0.0
C834 C 0.76492 0.81311 0.65253 0.0
C835 C 0.76753 0.82843 0.64338 0.0
C836 C 0.75454 0.83985 0.64165 0.0
C837 C 0.77795 0.80009 0.65217 0.0
C838 C 0.79376 0.80365 0.65962 0.0
C839 C 0.77467 0.78405 0.64478 0.0
C840 C 0.75859 0.77976 0.63561 0.0
C841 C 0.7526 0.789 0.61989 0.0
C842 C 0.73733 0.78502 0.6115 0.0
C843 C 0.72801 0.77174 0.61861 0.0
C844 C 0.73396 0.76238 0.63409 0.0
C845 C 0.74921 0.76632 0.64255 0.0
H846 H 0.71619 0.76868 0.6121 0.0
H847 H 0.86512 0.80696 0.69188 0.0
H848 H 0.68558 0.77695 0.84973 0.0
H849 H 0.70376 0.75305 0.84679 0.0
H850 H 0.66128 0.72048 0.8457 0.0
H851 H 0.64282 0.74448 0.84911 0.0
H852 H 0.68466 0.70862 0.86912 0.0
H853 H 0.68372 0.72793 0.80447 0.0
H854 H 0.6852 0.74846 0.77818 0.0
H855 H 0.73571 0.7595 0.79318 0.0
H856 H 0.73447 0.73921 0.81974 0.0
H857 H 0.74358 0.6432 0.85144 0.0
H858 H 0.71976 0.66178 0.84754 0.0
H859 H 0.75251 0.70409 0.84949 0.0
H860 H 0.77629 0.68576 0.85302 0.0
H861 H 0.73033 0.70741 0.82125 0.0
H862 H 0.72919 0.69137 0.88893 0.0
H863 H 0.7275 0.67116 0.91557 0.0
H864 H 0.68054 0.65386 0.89429 0.0
H865 H 0.68206 0.67385 0.86739 0.0
C866 C 0.68001 0.76475 0.84874 0.0
C867 C 0.66269 0.76268 0.84961 0.0
C868 C 0.69046 0.75106 0.84695 0.0
C869 C 0.68389 0.73498 0.84567 0.0
C870 C 0.66661 0.7328 0.84655 0.0
C871 C 0.65609 0.74653 0.84848 0.0
C872 C 0.69526 0.72055 0.84422 0.0
C873 C 0.69442 0.70814 0.85838 0.0
C874 C 0.70808 0.71999 0.8303 0.0
C875 C 0.70896 0.73208 0.81417 0.0
C876 C 0.69511 0.7348 0.80223 0.0
C877 C 0.69592 0.74639 0.78727 0.0
C878 C 0.71053 0.75529 0.78402 0.0
C879 C 0.72439 0.75259 0.7957 0.0
C880 C 0.72366 0.74102 0.8107 0.0
C881 C 0.74571 0.65646 0.85104 0.0
C882 C 0.76188 0.66296 0.8526 0.0
C883 C 0.73207 0.66706 0.84884 0.0
C884 C 0.73435 0.68433 0.84835 0.0
C885 C 0.75046 0.69081 0.84976 0.0
C886 C 0.76406 0.68027 0.85186 0.0
C887 C 0.72009 0.6959 0.84659 0.0
C888 C 0.72037 0.70772 0.83175 0.0
C889 C 0.70675 0.69589 0.85984 0.0
C890 C 0.70583 0.68395 0.87604 0.0
C891 C 0.71857 0.68316 0.88986 0.0
C892 C 0.71763 0.67177 0.90502 0.0
C893 C 0.70395 0.6612 0.90658 0.0
C894 C 0.69115 0.66204 0.89303 0.0
C895 C 0.69203 0.67339 0.87784 0.0
H896 H 0.70325 0.65239 0.91832 0.0
H897 H 0.71112 0.76427 0.77244 0.0
H898 H 0.22491 0.68217 0.83478 0.0
H899 H 0.24953 0.69941 0.83048 0.0
H900 H 0.2798 0.66127 0.85632 0.0
H901 H 0.25518 0.64387 0.86069 0.0
H902 H 0.28527 0.69121 0.87258 0.0
H903 H 0.28346 0.66928 0.80955 0.0
H904 H 0.27221 0.66135 0.77786 0.0
H905 H 0.26224 0.71249 0.76495 0.0
H906 H 0.27307 0.72073 0.79676 0.0
H907 H 0.35712 0.74084 0.85731 0.0
H908 H 0.33831 0.71713 0.85429 0.0
H909 H 0.30065 0.74914 0.8304 0.0
H910 H 0.31933 0.77283 0.83319 0.0
H911 H 0.30207 0.71898 0.81185 0.0
H912 H 0.30015 0.73966 0.87745 0.0
H913 H 0.31255 0.74734 0.90868 0.0
H914 H 0.33044 0.69754 0.91601 0.0
H915 H 0.31833 0.68963 0.88467 0.0
C916 C 0.23681 0.67737 0.83944 0.0
C917 C 0.23805 0.66168 0.84823 0.0
C918 C 0.25091 0.6872 0.83682 0.0
C919 C 0.26652 0.68159 0.84299 0.0
C920 C 0.26787 0.66582 0.85143 0.0
C921 C 0.25379 0.65588 0.85388 0.0
C922 C 0.28112 0.69279 0.84197 0.0
C923 C 0.28917 0.697 0.85921 0.0
C924 C 0.28604 0.70053 0.82458 0.0
C925 C 0.27898 0.69561 0.80565 0.0
C926 C 0.27867 0.67883 0.80008 0.0
C927 C 0.27241 0.67428 0.78206 0.0
C928 C 0.26656 0.68641 0.76939 0.0
C929 C 0.26684 0.70311 0.77476 0.0
C930 C 0.27301 0.70773 0.7928 0.0
C931 C 0.34491 0.74281 0.85121 0.0
C932 C 0.33967 0.75878 0.84573 0.0
C933 C 0.33416 0.72925 0.84954 0.0
C934 C 0.31802 0.73143 0.84235 0.0
C935 C 0.31304 0.74719 0.83603 0.0
C936 C 0.32372 0.76074 0.83776 0.0
C937 C 0.30587 0.7176 0.84248 0.0
C938 C 0.29828 0.71295 0.82511 0.0
C939 C 0.30138 0.7094 0.85972 0.0
C940 C 0.30851 0.71411 0.87863 0.0
C941 C 0.30684 0.73038 0.88566 0.0
C942 C 0.31379 0.73477 0.90339 0.0
C943 C 0.32233 0.72295 0.91429 0.0
C944 C 0.32386 0.7067 0.90752 0.0
C945 C 0.31695 0.70225 0.88979 0.0
H946 H 0.32771 0.72637 0.92801 0.0
H947 H 0.2618 0.68287 0.75541 0.0
H948 H 0.3569 0.25547 0.86545 0.0
H949 H 0.3388 0.27988 0.8643 0.0
H950 H 0.30239 0.2519 0.8324 0.0
H951 H 0.32028 0.22742 0.83364 0.0
H952 H 0.30811 0.28473 0.81809 0.0
H953 H 0.29662 0.25564 0.87782 0.0
H954 H 0.3046 0.24308 0.90886 0.0
H955 H 0.32286 0.29016 0.92855 0.0
H956 H 0.3152 0.30296 0.89747 0.0
H957 H 0.22918 0.31897 0.83393 0.0
H958 H 0.25401 0.30168 0.83247 0.0
H959 H 0.28105 0.33796 0.86562 0.0
H960 H 0.25618 0.35555 0.86696 0.0
H961 H 0.28387 0.30483 0.87952 0.0
H962 H 0.29149 0.33491 0.8216 0.0
H963 H 0.2838 0.3475 0.79051 0.0
H964 H 0.27335 0.29925 0.7673 0.0
H965 H 0.28072 0.28636 0.79838 0.0
C966 C 0.34511 0.25456 0.85803 0.0
C967 C 0.33995 0.23949 0.84975 0.0
C968 C 0.3348 0.2685 0.85742 0.0
C969 C 0.31928 0.26762 0.84833 0.0
C970 C 0.31436 0.2528 0.83945 0.0
C971 C 0.32454 0.23881 0.84028 0.0
C972 C 0.30769 0.28183 0.8489 0.0
C973 C 0.30275 0.28912 0.83149 0.0
C974 C 0.30114 0.28782 0.86647 0.0
C975 C 0.30554 0.28021 0.88524 0.0
C976 C 0.30247 0.26328 0.88871 0.0
C977 C 0.30691 0.25612 0.90632 0.0
C978 C 0.31429 0.2658 0.92064 0.0
C979 C 0.31718 0.28267 0.91742 0.0
C980 C 0.31278 0.28989 0.89982 0.0
C981 C 0.24042 0.32334 0.84083 0.0
C982 C 0.24072 0.3386 0.85061 0.0
C983 C 0.25462 0.31349 0.83989 0.0
C984 C 0.26935 0.31861 0.84885 0.0
C985 C 0.26978 0.33386 0.85857 0.0
C986 C 0.2556 0.34389 0.85926 0.0
C987 C 0.28397 0.3075 0.84864 0.0
C988 C 0.28946 0.30072 0.86613 0.0
C989 C 0.29106 0.30202 0.83114 0.0
C990 C 0.28654 0.30967 0.8124 0.0
C991 C 0.2874 0.32698 0.80993 0.0
C992 C 0.28312 0.33418 0.79229 0.0
C993 C 0.27805 0.32419 0.77695 0.0
C994 C 0.27727 0.30697 0.77921 0.0
C995 C 0.28151 0.29971 0.79683 0.0
H996 H 0.27476 0.32978 0.7633 0.0
H997 H 0.31773 0.26023 0.93426 0.0
H998 H 0.68271 0.22419 0.83395 0.0
H999 H 0.70144 0.24793 0.83332 0.0
H1000 H 0.66433 0.27803 0.8613 0.0
H1001 H 0.64526 0.25435 0.86158 0.0
H1002 H 0.68116 0.29573 0.83417 0.0
H1003 H 0.69497 0.26105 0.88769 0.0
H1004 H 0.70158 0.23474 0.90415 0.0
H1005 H 0.74511 0.22908 0.8691 0.0
H1006 H 0.73863 0.25525 0.85224 0.0
H1007 H 0.74346 0.35513 0.86432 0.0
H1008 H 0.72018 0.3356 0.86261 0.0
H1009 H 0.7519 0.29961 0.83507 0.0
H1010 H 0.77516 0.31879 0.83701 0.0
H1011 H 0.73603 0.28631 0.86475 0.0
H1012 H 0.72118 0.32103 0.81039 0.0
H1013 H 0.7142 0.34751 0.79452 0.0
H1014 H 0.6725 0.35366 0.83234 0.0
H1015 H 0.67936 0.3273 0.8486 0.0
C1016 C 0.67845 0.23588 0.83985 0.0
C1017 C 0.66258 0.23731 0.84808 0.0
C1018 C 0.68918 0.24944 0.83949 0.0
C1019 C 0.6844 0.26464 0.84765 0.0
C1020 C 0.66829 0.26638 0.85503 0.0
C1021 C 0.65743 0.25283 0.85521 0.0
C1022 C 0.69664 0.27829 0.84937 0.0
C1023 C 0.69308 0.29378 0.84108 0.0
C1024 C 0.71219 0.2757 0.85834 0.0
C1025 C 0.71624 0.26005 0.86861 0.0
C1026 C 0.7059 0.25414 0.88342 0.0
C1027 C 0.70962 0.23926 0.89283 0.0
C1028 C 0.72374 0.23023 0.88765 0.0
C1029 C 0.73418 0.23609 0.87309 0.0
C1030 C 0.73049 0.25095 0.86362 0.0
C1031 C 0.74541 0.34312 0.85771 0.0
C1032 C 0.76121 0.33845 0.85099 0.0
C1033 C 0.73208 0.332 0.85669 0.0
C1034 C 0.73431 0.31614 0.84871 0.0
C1035 C 0.74992 0.31173 0.8414 0.0
C1036 C 0.76322 0.32273 0.84254 0.0
C1037 C 0.72084 0.30362 0.84896 0.0
C1038 C 0.72411 0.28833 0.85786 0.0
C1039 C 0.70504 0.30648 0.84067 0.0
C1040 C 0.70089 0.32229 0.83084 0.0
C1041 C 0.7106 0.32809 0.81543 0.0
C1042 C 0.70665 0.34307 0.80634 0.0
C1043 C 0.69294 0.35229 0.81246 0.0
C1044 C 0.68313 0.34652 0.82764 0.0
C1045 C 0.68703 0.33156 0.83678 0.0
H1046 H 0.68991 0.36388 0.80541 0.0
H1047 H 0.7266 0.21871 0.89494 0.0
H1048 H 0.6836 0.22497 0.1542 0.0
H1049 H 0.70126 0.24929 0.15729 0.0
H1050 H 0.66095 0.28062 0.13856 0.0
H1051 H 0.6431 0.25617 0.13515 0.0
H1052 H 0.68923 0.28741 0.11928 0.0
H1053 H 0.67391 0.28194 0.18516 0.0
H1054 H 0.66927 0.26809 0.21635 0.0
H1055 H 0.72102 0.25566 0.2197 0.0
H1056 H 0.72594 0.26926 0.18841 0.0
H1057 H 0.74347 0.35664 0.13462 0.0
H1058 H 0.71929 0.33838 0.13736 0.0
H1059 H 0.75105 0.29827 0.15567 0.0
H1060 H 0.77516 0.31636 0.15327 0.0
H1061 H 0.72323 0.29972 0.17711 0.0
H1062 H 0.73748 0.3012 0.10933 0.0
H1063 H 0.74265 0.31512 0.07826 0.0
H1064 H 0.6931 0.33475 0.07862 0.0
H1065 H 0.68772 0.32112 0.10984 0.0
C1066 C 0.67838 0.23701 0.15084 0.0
C1067 C 0.66193 0.23858 0.14431 0.0
C1068 C 0.68849 0.25095 0.15278 0.0
C1069 C 0.68238 0.2668 0.14835 0.0
C1070 C 0.66589 0.2685 0.14212 0.0
C1071 C 0.6557 0.25452 0.14023 0.0
C1072 C 0.69368 0.28132 0.14906 0.0
C1073 C 0.69638 0.29037 0.13207 0.0
C1074 C 0.70322 0.28498 0.16565 0.0
C1075 C 0.70027 0.27657 0.18437 0.0
C1076 C 0.68428 0.27613 0.19246 0.0
C1077 C 0.68161 0.26835 0.21019 0.0
C1078 C 0.69485 0.26101 0.22001 0.0
C1079 C 0.71078 0.26138 0.21209 0.0
C1080 C 0.71352 0.26915 0.19437 0.0
C1081 C 0.7453 0.34395 0.13932 0.0
C1082 C 0.7613 0.33794 0.14356 0.0
C1083 C 0.73147 0.33353 0.14082 0.0
C1084 C 0.7334 0.31693 0.14654 0.0
C1085 C 0.74928 0.31104 0.15122 0.0
C1086 C 0.76308 0.3214 0.14972 0.0
C1087 C 0.71907 0.30542 0.14722 0.0
C1088 C 0.71582 0.29696 0.16446 0.0
C1089 C 0.70908 0.30225 0.13086 0.0
C1090 C 0.71227 0.31032 0.11202 0.0
C1091 C 0.72773 0.30859 0.10285 0.0
C1092 C 0.73069 0.31641 0.0852 0.0
C1093 C 0.71823 0.32586 0.0765 0.0
C1094 C 0.70276 0.32746 0.0854 0.0
C1095 C 0.69974 0.31969 0.10306 0.0
H1096 H 0.72056 0.33192 0.06285 0.0
H1097 H 0.69279 0.25505 0.23377 0.0
H1098 H 0.77357 0.68403 0.15069 0.0
H1099 H 0.74928 0.70174 0.15387 0.0
H1100 H 0.71748 0.66061 0.13911 0.0
H1101 H 0.74187 0.64268 0.13567 0.0
H1102 H 0.70938 0.68805 0.11907 0.0
H1103 H 0.71763 0.67508 0.18506 0.0
H1104 H 0.73237 0.67139 0.21589 0.0
H1105 H 0.74542 0.72305 0.21619 0.0
H1106 H 0.7309 0.72703 0.18527 0.0
H1107 H 0.64132 0.74379 0.13659 0.0
H1108 H 0.65933 0.7194 0.13916 0.0
H1109 H 0.70092 0.75107 0.1525 0.0
H1110 H 0.68313 0.77539 0.15021 0.0
H1111 H 0.69995 0.7242 0.17582 0.0
H1112 H 0.69495 0.73562 0.10722 0.0
H1113 H 0.67932 0.73933 0.07697 0.0
H1114 H 0.65961 0.69003 0.08219 0.0
H1115 H 0.67497 0.68611 0.11263 0.0
C1116 C 0.76144 0.67866 0.14818 0.0
C1117 C 0.75971 0.66191 0.14286 0.0
C1118 C 0.74753 0.6888 0.15017 0.0
C1119 C 0.73155 0.68245 0.14699 0.0
C1120 C 0.72971 0.66573 0.14174 0.0
C1121 C 0.74366 0.65551 0.13979 0.0
C1122 C 0.71699 0.69367 0.1481 0.0
C1123 C 0.70707 0.69569 0.13165 0.0
C1124 C 0.71407 0.70375 0.16443 0.0
C1125 C 0.72323 0.70133 0.18278 0.0
C1126 C 0.72377 0.68563 0.19161 0.0
C1127 C 0.73204 0.6835 0.20914 0.0
C1128 C 0.7398 0.69699 0.21801 0.0
C1129 C 0.73937 0.71262 0.20933 0.0
C1130 C 0.73109 0.71483 0.19182 0.0
C1131 C 0.65429 0.74556 0.14016 0.0
C1132 C 0.66078 0.76159 0.14308 0.0
C1133 C 0.66456 0.73161 0.14157 0.0
C1134 C 0.68148 0.73345 0.14588 0.0
C1135 C 0.68789 0.74937 0.14919 0.0
C1136 C 0.67769 0.76328 0.14778 0.0
C1137 C 0.6928 0.71897 0.14658 0.0
C1138 C 0.70208 0.71633 0.1634 0.0
C1139 C 0.69509 0.70831 0.13062 0.0
C1140 C 0.68593 0.71065 0.1123 0.0
C1141 C 0.68717 0.72562 0.10199 0.0
C1142 C 0.67839 0.72775 0.0848 0.0
C1143 C 0.66844 0.71494 0.0777 0.0
C1144 C 0.66729 0.69995 0.08774 0.0
C1145 C 0.67604 0.69777 0.10495 0.0
H1146 H 0.66164 0.71662 0.06439 0.0
H1147 H 0.74615 0.69533 0.23161 0.0
H1148 H 0.25581 0.64465 0.1375 0.0
H1149 H 0.27931 0.6639 0.13745 0.0
H1150 H 0.24546 0.70532 0.13562 0.0
H1151 H 0.22195 0.6863 0.13555 0.0
H1152 H 0.27063 0.70866 0.10976 0.0
H1153 H 0.26422 0.69452 0.17705 0.0
H1154 H 0.26266 0.67536 0.20469 0.0
H1155 H 0.3119 0.65787 0.19251 0.0
H1156 H 0.31364 0.67678 0.16461 0.0
H1157 H 0.31417 0.77824 0.14114 0.0
H1158 H 0.2955 0.75453 0.14012 0.0
H1159 H 0.33735 0.72127 0.13762 0.0
H1160 H 0.35634 0.74505 0.13854 0.0
H1161 H 0.3113 0.71106 0.16341 0.0
H1162 H 0.31869 0.7273 0.09796 0.0
H1163 H 0.32023 0.74679 0.07065 0.0
H1164 H 0.26923 0.76029 0.07929 0.0
H1165 H 0.26745 0.74106 0.10687 0.0
C1166 C 0.25335 0.65786 0.13707 0.0
C1167 C 0.23696 0.66391 0.13654 0.0
C1168 C 0.26681 0.66883 0.13711 0.0
C1169 C 0.26411 0.68603 0.13664 0.0
C1170 C 0.2478 0.69209 0.13596 0.0
C1171 C 0.23437 0.68117 0.13599 0.0
C1172 C 0.27817 0.69786 0.13676 0.0
C1173 C 0.27946 0.70924 0.12154 0.0
C1174 C 0.29001 0.69825 0.15183 0.0
C1175 C 0.28898 0.68691 0.16861 0.0
C1176 C 0.27465 0.68648 0.18016 0.0
C1177 C 0.27375 0.67569 0.19589 0.0
C1178 C 0.28715 0.66536 0.20032 0.0
C1179 C 0.30151 0.66585 0.18904 0.0
C1180 C 0.30247 0.67661 0.17327 0.0
C1181 C 0.3195 0.76592 0.14047 0.0
C1182 C 0.3368 0.76359 0.13974 0.0
C1183 C 0.30877 0.75237 0.13985 0.0
C1184 C 0.31506 0.7362 0.13855 0.0
C1185 C 0.33229 0.7337 0.13854 0.0
C1186 C 0.3431 0.7473 0.13902 0.0
C1187 C 0.30343 0.72209 0.13667 0.0
C1188 C 0.30261 0.7103 0.1515 0.0
C1189 C 0.29201 0.72128 0.12123 0.0
C1190 C 0.29298 0.73283 0.10459 0.0
C1191 C 0.30784 0.73452 0.09415 0.0
C1192 C 0.30875 0.74551 0.07859 0.0
C1193 C 0.29485 0.75479 0.07326 0.0
C1194 C 0.27999 0.75309 0.08345 0.0
C1195 C 0.27902 0.74214 0.09903 0.0
H1196 H 0.29558 0.76329 0.06121 0.0
H1197 H 0.28643 0.65702 0.21251 0.0
H1198 H 0.25692 0.35835 0.14098 0.0
H1199 H 0.28093 0.33997 0.14488 0.0
H1200 H 0.24862 0.29735 0.14181 0.0
H1201 H 0.2247 0.31547 0.13838 0.0
H1202 H 0.27011 0.29387 0.17025 0.0
H1203 H 0.27288 0.3112 0.10291 0.0
H1204 H 0.27524 0.33203 0.077 0.0
H1205 H 0.32161 0.34883 0.10046 0.0
H1206 H 0.31941 0.32821 0.12664 0.0
H1207 H 0.3142 0.22463 0.14111 0.0
H1208 H 0.29653 0.24885 0.14416 0.0
H1209 H 0.33967 0.28042 0.14743 0.0
H1210 H 0.35768 0.25605 0.14393 0.0
H1211 H 0.3168 0.29337 0.1237 0.0
H1212 H 0.31583 0.27435 0.18876 0.0
H1213 H 0.31363 0.25417 0.2153 0.0
H1214 H 0.2646 0.24083 0.19665 0.0
H1215 H 0.26642 0.26115 0.17013 0.0
C1216 C 0.25495 0.34506 0.14112 0.0
C1217 C 0.23887 0.3384 0.13933 0.0
C1218 C 0.26869 0.33458 0.14331 0.0
C1219 C 0.26658 0.31727 0.1435 0.0
C1220 C 0.25055 0.31066 0.14178 0.0
C1221 C 0.23686 0.32107 0.13976 0.0
C1222 C 0.28089 0.3058 0.14546 0.0
C1223 C 0.28029 0.29374 0.16003 0.0
C1224 C 0.29455 0.30603 0.13264 0.0
C1225 C 0.29589 0.31831 0.11683 0.0
C1226 C 0.28352 0.31942 0.1026 0.0
C1227 C 0.28483 0.33117 0.08786 0.0
C1228 C 0.29854 0.34178 0.08712 0.0
C1229 C 0.31098 0.34063 0.10107 0.0
C1230 C 0.30972 0.32891 0.11586 0.0
C1231 C 0.32004 0.23667 0.1426 0.0
C1232 C 0.33742 0.23834 0.14234 0.0
C1233 C 0.30986 0.25054 0.14447 0.0
C1234 C 0.31675 0.26643 0.14643 0.0
C1235 C 0.33409 0.26825 0.14609 0.0
C1236 C 0.34435 0.25431 0.1441 0.0
C1237 C 0.3056 0.28103 0.14797 0.0
C1238 C 0.30681 0.2937 0.13416 0.0
C1239 C 0.2925 0.28144 0.16153 0.0
C1240 C 0.29131 0.2692 0.17742 0.0
C1241 C 0.30462 0.26705 0.19027 0.0
C1242 C 0.30343 0.2556 0.20532 0.0
C1243 C 0.28904 0.24611 0.20758 0.0
C1244 C 0.27575 0.24817 0.19488 0.0
C1245 C 0.27681 0.25973 0.1799 0.0
H1246 H 0.28818 0.2372 0.21921 0.0
H1247 H 0.29953 0.35088 0.0757 0.0
H1248 H 0.93603 0.30887 0.35979 0.0
H1249 H 0.96605 0.30527 0.36109 0.0
H1250 H 0.95971 0.25286 0.37123 0.0
H1251 H 0.92943 0.25634 0.36993 0.0
H1252 H 0.9855 0.26899 0.39439 0.0
H1253 H 0.96882 0.26241 0.3285 0.0
H1254 H 0.95378 0.27002 0.29885 0.0
H1255 H 0.9801 0.3163 0.29646 0.0
H1256 H 0.99512 0.30909 0.32627 0.0
H1257 H 0.07239 0.2576 0.36926 0.0
H1258 H 0.04217 0.25402 0.37166 0.0
H1259 H 0.03519 0.3054 0.3562 0.0
H1260 H 0.0651 0.30906 0.35374 0.0
H1261 H 0.01585 0.28474 0.33494 0.0
H1262 H 0.03054 0.29307 0.40157 0.0
H1263 H 0.0453 0.28676 0.4318 0.0
H1264 H 0.02281 0.23848 0.43344 0.0
H1265 H 0.00816 0.24437 0.40297 0.0
C1266 C 0.94097 0.29658 0.36245 0.0
C1267 C 0.93037 0.28286 0.36457 0.0
C1268 C 0.95812 0.29455 0.36319 0.0
C1269 C 0.96505 0.27878 0.36606 0.0
C1270 C 0.95455 0.26512 0.36898 0.0
C1271 C 0.9373 0.26713 0.36815 0.0
C1272 C 0.98325 0.27668 0.3648 0.0
C1273 C 0.99218 0.27208 0.38131 0.0
C1274 C 0.99187 0.28095 0.34778 0.0
C1275 C 0.98301 0.28524 0.32969 0.0
C1276 C 0.97132 0.27426 0.32173 0.0
C1277 C 0.96281 0.2785 0.30488 0.0
C1278 C 0.96596 0.29365 0.29579 0.0
C1279 C 0.97766 0.30457 0.30351 0.0
C1280 C 0.9862 0.30041 0.32037 0.0
C1281 C 0.06438 0.26812 0.36646 0.0
C1282 C 0.07111 0.28359 0.36124 0.0
C1283 C 0.04716 0.26607 0.36789 0.0
C1284 C 0.03648 0.27945 0.3641 0.0
C1285 C 0.04322 0.2949 0.3591 0.0
C1286 C 0.06034 0.29697 0.35774 0.0
C1287 C 0.01822 0.27751 0.36468 0.0
C1288 C 0.00923 0.28133 0.34796 0.0
C1289 C 0.00963 0.27263 0.38154 0.0
C1290 C 0.01843 0.26907 0.39985 0.0
C1291 C 0.02887 0.28104 0.40826 0.0
C1292 C 0.03719 0.27756 0.42547 0.0
C1293 C 0.03502 0.26222 0.43452 0.0
C1294 C 0.02451 0.25034 0.42639 0.0
C1295 C 0.0162 0.25374 0.40915 0.0
H1296 H 0.04146 0.25957 0.44785 0.0
H1297 H 0.95935 0.2969 0.28276 0.0
H1298 H 0.74726 0.07097 0.36859 0.0
H1299 H 0.75186 0.04123 0.37399 0.0
H1300 H 0.69938 0.03226 0.36727 0.0
H1301 H 0.69469 0.06178 0.36209 0.0
H1302 H 0.71213 0.01501 0.39741 0.0
H1303 H 0.72665 0.026 0.33025 0.0
H1304 H 0.7429 0.03969 0.30466 0.0
H1305 H 0.78796 0.02022 0.32878 0.0
H1306 H 0.77197 0.00658 0.35465 0.0
H1307 H 0.69438 0.93674 0.36242 0.0
H1308 H 0.69946 0.96613 0.36766 0.0
H1309 H 0.75182 0.9565 0.37434 0.0
H1310 H 0.74682 0.92678 0.36888 0.0
H1311 H 0.74568 0.98292 0.3505 0.0
H1312 H 0.72987 0.96669 0.41341 0.0
H1313 H 0.71319 0.9525 0.43821 0.0
H1314 H 0.67059 0.98148 0.42242 0.0
H1315 H 0.68692 0.99567 0.39732 0.0
C1316 C 0.73672 0.06264 0.36835 0.0
C1317 C 0.72063 0.06868 0.36481 0.0
C1318 C 0.73937 0.04568 0.37142 0.0
C1319 C 0.72597 0.03454 0.37093 0.0
C1320 C 0.70989 0.04064 0.36778 0.0
C1321 C 0.70724 0.05752 0.36471 0.0
C1322 C 0.72847 0.01642 0.37294 0.0
C1323 C 0.71947 0.00797 0.38719 0.0
C1324 C 0.73858 0.00731 0.36006 0.0
C1325 C 0.74815 0.01546 0.3445 0.0
C1326 C 0.74003 0.02476 0.33017 0.0
C1327 C 0.74919 0.03248 0.3156 0.0
C1328 C 0.76646 0.03087 0.31513 0.0
C1329 C 0.77459 0.02149 0.32919 0.0
C1330 C 0.76549 0.01376 0.3438 0.0
C1331 C 0.70699 0.9408 0.36507 0.0
C1332 C 0.72021 0.92944 0.36526 0.0
C1333 C 0.70986 0.95761 0.3682 0.0
C1334 C 0.72598 0.96345 0.37172 0.0
C1335 C 0.73927 0.95219 0.3718 0.0
C1336 C 0.7364 0.93526 0.36869 0.0
C1337 C 0.7287 0.98147 0.3744 0.0
C1338 C 0.7387 0.98993 0.3611 0.0
C1339 C 0.71951 0.99059 0.38817 0.0
C1340 C 0.70964 0.98222 0.40341 0.0
C1341 C 0.71692 0.96998 0.41514 0.0
C1342 C 0.70753 0.96194 0.42927 0.0
C1343 C 0.69084 0.96608 0.43188 0.0
C1344 C 0.68352 0.9783 0.4204 0.0
C1345 C 0.69285 0.98637 0.40624 0.0
H1346 H 0.68359 0.95983 0.44282 0.0
H1347 H 0.77353 0.03686 0.30385 0.0
H1348 H 0.06101 0.69533 0.35828 0.0
H1349 H 0.03148 0.70146 0.35916 0.0
H1350 H 0.04209 0.75302 0.37029 0.0
H1351 H 0.07204 0.74695 0.36947 0.0
H1352 H 0.01492 0.73869 0.39297 0.0
H1353 H 0.03136 0.74539 0.32752 0.0
H1354 H 0.04598 0.73797 0.29755 0.0
H1355 H 0.01797 0.69276 0.29385 0.0
H1356 H 0.00336 0.69977 0.32396 0.0
H1357 H 0.92639 0.74637 0.37065 0.0
H1358 H 0.95635 0.75216 0.37168 0.0
H1359 H 0.96651 0.70122 0.35675 0.0
H1360 H 0.93691 0.69537 0.35568 0.0
H1361 H 0.98349 0.72347 0.3341 0.0
H1362 H 0.97119 0.71443 0.40204 0.0
H1363 H 0.95707 0.7208 0.43266 0.0
H1364 H 0.97729 0.7701 0.43172 0.0
H1365 H 0.99136 0.76407 0.40093 0.0
C1366 C 0.05715 0.70798 0.36103 0.0
C1367 C 0.06887 0.72069 0.36362 0.0
C1368 C 0.04025 0.71146 0.36152 0.0
C1369 C 0.03465 0.72771 0.36453 0.0
C1370 C 0.04622 0.7404 0.36788 0.0
C1371 C 0.06327 0.73692 0.36735 0.0
C1372 C 0.01665 0.73114 0.3633 0.0
C1373 C 0.00802 0.73581 0.37998 0.0
C1374 C 0.00772 0.72728 0.34635 0.0
C1375 C 0.0163 0.7231 0.32805 0.0
C1376 C 0.02838 0.73382 0.32037 0.0
C1377 C 0.03666 0.72969 0.30335 0.0
C1378 C 0.03292 0.7149 0.29381 0.0
C1379 C 0.02085 0.70422 0.30125 0.0
C1380 C 0.01254 0.70828 0.31828 0.0
C1381 C 0.93505 0.73642 0.36769 0.0
C1382 C 0.9293 0.72043 0.36302 0.0
C1383 C 0.95212 0.73974 0.36831 0.0
C1384 C 0.9636 0.72712 0.36422 0.0
C1385 C 0.95784 0.71115 0.35982 0.0
C1386 C 0.9409 0.70782 0.35928 0.0
C1387 C 0.9817 0.73026 0.364 0.0
C1388 C 0.99036 0.72686 0.34695 0.0
C1389 C 0.99058 0.73528 0.3806 0.0
C1390 C 0.98213 0.73888 0.39907 0.0
C1391 C 0.97249 0.72668 0.40827 0.0
C1392 C 0.96453 0.73021 0.42567 0.0
C1393 C 0.96623 0.74587 0.43409 0.0
C1394 C 0.97594 0.758 0.42515 0.0
C1395 C 0.98392 0.75452 0.40773 0.0
H1396 H 0.96006 0.74858 0.44757 0.0
H1397 H 0.03935 0.71172 0.28064 0.0
H1398 H 0.30292 0.93571 0.3673 0.0
H1399 H 0.29735 0.96511 0.37206 0.0
H1400 H 0.24471 0.95587 0.36833 0.0
H1401 H 0.25022 0.92614 0.36356 0.0
H1402 H 0.25542 0.98226 0.3453 0.0
H1403 H 0.25964 0.96583 0.41067 0.0
H1404 H 0.27157 0.95142 0.43877 0.0
H1405 H 0.31627 0.98005 0.43343 0.0
H1406 H 0.30473 0.99446 0.4051 0.0
H1407 H 0.2507 0.07019 0.36352 0.0
H1408 H 0.24529 0.04045 0.36819 0.0
H1409 H 0.29796 0.03131 0.37166 0.0
H1410 H 0.30343 0.06078 0.36695 0.0
H1411 H 0.28013 0.01406 0.39936 0.0
H1412 H 0.27844 0.02506 0.33049 0.0
H1413 H 0.26774 0.03882 0.30128 0.0
H1414 H 0.21894 0.01992 0.31299 0.0
H1415 H 0.22934 0.00622 0.34244 0.0
C1416 C 0.29014 0.93987 0.36758 0.0
C1417 C 0.277 0.92862 0.36503 0.0
C1418 C 0.28698 0.95667 0.37043 0.0
C1419 C 0.27062 0.96262 0.37078 0.0
C1420 C 0.25742 0.95147 0.36822 0.0
C1421 C 0.26058 0.93453 0.36553 0.0
C1422 C 0.26768 0.98066 0.37282 0.0
C1423 C 0.26038 0.98921 0.35739 0.0
C1424 C 0.27435 0.98969 0.38848 0.0
C1425 C 0.28132 0.98119 0.40568 0.0
C1426 C 0.27206 0.96899 0.4154 0.0
C1427 C 0.27875 0.96082 0.43139 0.0
C1428 C 0.29468 0.9648 0.43787 0.0
C1429 C 0.30393 0.97699 0.4284 0.0
C1430 C 0.29731 0.98518 0.41239 0.0
C1431 C 0.26109 0.06183 0.36543 0.0
C1432 C 0.27749 0.06777 0.36473 0.0
C1433 C 0.25798 0.04488 0.36807 0.0
C1434 C 0.27124 0.03371 0.37022 0.0
C1435 C 0.28756 0.03974 0.37011 0.0
C1436 C 0.29067 0.05657 0.36729 0.0
C1437 C 0.26843 0.0156 0.37155 0.0
C1438 C 0.27468 0.00707 0.3876 0.0
C1439 C 0.26086 0.00659 0.35644 0.0
C1440 C 0.2546 0.01483 0.33879 0.0
C1441 C 0.2654 0.02398 0.32693 0.0
C1442 C 0.2594 0.03173 0.31032 0.0
C1443 C 0.24266 0.0303 0.30533 0.0
C1444 C 0.23189 0.02106 0.31691 0.0
C1445 C 0.23783 0.0133 0.33356 0.0
H1446 H 0.23804 0.0363 0.29245 0.0
H1447 H 0.29984 0.95846 0.45024 0.0
H1448 H 0.06338 0.6947 0.6237 0.0
H1449 H 0.03376 0.6995 0.61866 0.0
H1450 H 0.04094 0.75197 0.62763 0.0
H1451 H 0.07076 0.74727 0.63246 0.0
H1452 H 0.01507 0.73775 0.64984 0.0
H1453 H 0.03218 0.74071 0.58451 0.0
H1454 H 0.04694 0.73199 0.55512 0.0
H1455 H 0.01889 0.68671 0.55387 0.0
H1456 H 0.00415 0.69501 0.58345 0.0
H1457 H 0.92803 0.746 0.6312 0.0
H1458 H 0.95788 0.75107 0.62701 0.0
H1459 H 0.96566 0.69888 0.61658 0.0
H1460 H 0.93605 0.69374 0.62087 0.0
H1461 H 0.98414 0.71898 0.59199 0.0
H1462 H 0.97185 0.71317 0.65993 0.0
H1463 H 0.95765 0.72038 0.69024 0.0
H1464 H 0.97716 0.7699 0.687 0.0
H1465 H 0.99129 0.76302 0.65648 0.0
C1466 C 0.05869 0.70727 0.62447 0.0
C1467 C 0.06935 0.72061 0.62852 0.0
C1468 C 0.04179 0.71001 0.62148 0.0
C1469 C 0.03522 0.7261 0.62263 0.0
C1470 C 0.04583 0.73948 0.62659 0.0
C1471 C 0.06282 0.73677 0.62932 0.0
C1472 C 0.0171 0.7286 0.6208 0.0
C1473 C 0.00831 0.73409 0.63701 0.0
C1474 C 0.00835 0.72351 0.60417 0.0
C1475 C 0.01713 0.71845 0.5863 0.0
C1476 C 0.02925 0.72883 0.57807 0.0
C1477 C 0.0376 0.72397 0.56135 0.0
C1478 C 0.03388 0.70879 0.55265 0.0
C1479 C 0.02177 0.69846 0.56063 0.0
C1480 C 0.01339 0.70325 0.57736 0.0
C1481 C 0.93611 0.73567 0.62779 0.0
C1482 C 0.92978 0.71945 0.62656 0.0
C1483 C 0.95311 0.73858 0.62542 0.0
C1484 C 0.96394 0.72532 0.62159 0.0
C1485 C 0.9575 0.70927 0.61949 0.0
C1486 C 0.9406 0.70634 0.62208 0.0
C1487 C 0.98214 0.72775 0.62117 0.0
C1488 C 0.99094 0.72311 0.6046 0.0
C1489 C 0.99092 0.7335 0.63751 0.0
C1490 C 0.98241 0.73766 0.65579 0.0
C1491 C 0.97297 0.72565 0.66558 0.0
C1492 C 0.96496 0.72966 0.68281 0.0
C1493 C 0.96645 0.74561 0.6905 0.0
C1494 C 0.97598 0.75756 0.68099 0.0
C1495 C 0.98398 0.75362 0.66372 0.0
H1496 H 0.96026 0.74869 0.70386 0.0
H1497 H 0.04036 0.70506 0.53971 0.0
H1498 H 0.25669 0.92992 0.63536 0.0
H1499 H 0.25384 0.96013 0.63248 0.0
H1500 H 0.30651 0.9643 0.62216 0.0
H1501 H 0.30946 0.93436 0.62554 0.0
H1502 H 0.29733 0.98511 0.64895 0.0
H1503 H 0.27675 0.96982 0.58609 0.0
H1504 H 0.25826 0.95529 0.56336 0.0
H1505 H 0.21595 0.97951 0.5883 0.0
H1506 H 0.23418 0.99403 0.61135 0.0
H1507 H 0.30811 0.06664 0.62007 0.0
H1508 H 0.30543 0.03656 0.61802 0.0
H1509 H 0.25341 0.04027 0.63208 0.0
H1510 H 0.25592 0.07061 0.63367 0.0
H1511 H 0.25957 0.01574 0.60507 0.0
H1512 H 0.28053 0.03171 0.66711 0.0
H1513 H 0.29925 0.04644 0.68941 0.0
H1514 H 0.3411 0.02058 0.66568 0.0
H1515 H 0.32266 0.00586 0.64305 0.0
C1516 C 0.2676 0.9373 0.6323 0.0
C1517 C 0.28331 0.92983 0.63083 0.0
C1518 C 0.26596 0.95454 0.63057 0.0
C1519 C 0.27997 0.96447 0.62705 0.0
C1520 C 0.29554 0.9569 0.62499 0.0
C1521 C 0.29721 0.93978 0.62692 0.0
C1522 C 0.27881 0.98284 0.62671 0.0
C1523 C 0.28919 0.99177 0.63918 0.0
C1524 C 0.26777 0.99155 0.61447 0.0
C1525 C 0.25682 0.98287 0.60058 0.0
C1526 C 0.26349 0.97194 0.58683 0.0
C1527 C 0.25306 0.96373 0.57387 0.0
C1528 C 0.23594 0.96643 0.57443 0.0
C1529 C 0.22922 0.9774 0.58791 0.0
C1530 C 0.23959 0.98563 0.60091 0.0
C1531 C 0.29605 0.06109 0.62253 0.0
C1532 C 0.28227 0.07093 0.62732 0.0
C1533 C 0.29454 0.0439 0.62136 0.0
C1534 C 0.27931 0.03618 0.62532 0.0
C1535 C 0.26529 0.046 0.62908 0.0
C1536 C 0.26676 0.0633 0.63004 0.0
C1537 C 0.27848 0.01787 0.62686 0.0
C1538 C 0.26764 0.009 0.61483 0.0
C1539 C 0.28913 0.00912 0.63949 0.0
C1540 C 0.30022 0.01777 0.65331 0.0
C1541 C 0.29374 0.02923 0.66658 0.0
C1542 C 0.3043 0.03758 0.67929 0.0
C1543 C 0.32136 0.03447 0.67894 0.0
C1544 C 0.32789 0.02298 0.66593 0.0
C1545 C 0.31738 0.01462 0.65318 0.0
H1546 H 0.32952 0.04095 0.68878 0.0
H1547 H 0.22788 0.96006 0.56438 0.0
H1548 H 0.06331 0.30764 0.62669 0.0
H1549 H 0.03338 0.30368 0.62501 0.0
H1550 H 0.0402 0.25067 0.62226 0.0
H1551 H 0.07045 0.25452 0.62388 0.0
H1552 H 0.01381 0.26429 0.59723 0.0
H1553 H 0.03132 0.26392 0.66326 0.0
H1554 H 0.0468 0.2742 0.69147 0.0
H1555 H 0.02072 0.32059 0.68834 0.0
H1556 H 0.00527 0.31068 0.65991 0.0
H1557 H 0.9272 0.25605 0.62615 0.0
H1558 H 0.9573 0.25201 0.62302 0.0
H1559 H 0.96495 0.30452 0.6312 0.0
H1560 H 0.93516 0.30863 0.63441 0.0
H1561 H 0.98433 0.28579 0.6548 0.0
H1562 H 0.96867 0.28742 0.58753 0.0
H1563 H 0.95327 0.27789 0.5589 0.0
H1564 H 0.97555 0.22969 0.56403 0.0
H1565 H 0.99088 0.23886 0.59291 0.0
C1566 C 0.05852 0.29512 0.6255 0.0
C1567 C 0.06922 0.28137 0.62567 0.0
C1568 C 0.04141 0.2929 0.6245 0.0
C1569 C 0.03463 0.27689 0.62373 0.0
C1570 C 0.04525 0.26311 0.62286 0.0
C1571 C 0.06248 0.26534 0.62387 0.0
C1572 C 0.01648 0.27481 0.62557 0.0
C1573 C 0.00731 0.26866 0.60994 0.0
C1574 C 0.0081 0.28066 0.64211 0.0
C1575 C 0.01721 0.28659 0.65938 0.0
C1576 C 0.02896 0.27635 0.66851 0.0
C1577 C 0.03773 0.28211 0.68455 0.0
C1578 C 0.03477 0.29804 0.69168 0.0
C1579 C 0.02301 0.30824 0.68281 0.0
C1580 C 0.01423 0.30256 0.66674 0.0
C1581 C 0.93533 0.26672 0.62716 0.0
C1582 C 0.92884 0.28264 0.63065 0.0
C1583 C 0.95248 0.2644 0.62531 0.0
C1584 C 0.96331 0.27797 0.6269 0.0
C1585 C 0.95679 0.29387 0.63002 0.0
C1586 C 0.93975 0.2962 0.63183 0.0
C1587 C 0.98154 0.2758 0.62622 0.0
C1588 C 0.99075 0.28113 0.64218 0.0
C1589 C 0.98986 0.26922 0.60998 0.0
C1590 C 0.98075 0.26376 0.59254 0.0
C1591 C 0.97016 0.27474 0.58267 0.0
C1592 C 0.96147 0.26942 0.56637 0.0
C1593 C 0.96338 0.25318 0.55969 0.0
C1594 C 0.97404 0.24225 0.56926 0.0
C1595 C 0.98274 0.24751 0.58558 0.0
H1596 H 0.95664 0.24908 0.54708 0.0
H1597 H 0.04157 0.30248 0.7041 0.0
H1598 H 0.74779 0.06819 0.63572 0.0
H1599 H 0.75108 0.03802 0.63283 0.0
H1600 H 0.70061 0.03407 0.61243 0.0
H1601 H 0.6971 0.06394 0.61607 0.0
H1602 H 0.70527 0.01344 0.64022 0.0
H1603 H 0.73627 0.02796 0.58299 0.0
H1604 H 0.75846 0.04212 0.56486 0.0
H1605 H 0.79535 0.01773 0.5994 0.0
H1606 H 0.77336 0.00358 0.6179 0.0
H1607 H 0.69827 0.93163 0.61298 0.0
H1608 H 0.70195 0.96151 0.60941 0.0
H1609 H 0.75082 0.95787 0.63451 0.0
H1610 H 0.74741 0.92763 0.6374 0.0
H1611 H 0.74938 0.98203 0.60625 0.0
H1612 H 0.71831 0.96725 0.66286 0.0
H1613 H 0.69609 0.95291 0.68076 0.0
H1614 H 0.65924 0.9783 0.64715 0.0
H1615 H 0.68124 0.99262 0.62888 0.0
C1616 C 0.73751 0.06085 0.63038 0.0
C1617 C 0.72214 0.06832 0.6263 0.0
C1618 C 0.73942 0.04364 0.62864 0.0
C1619 C 0.7261 0.03375 0.62237 0.0
C1620 C 0.71102 0.0414 0.61744 0.0
C1621 C 0.70903 0.05848 0.61951 0.0
C1622 C 0.72714 0.01535 0.62247 0.0
C1623 C 0.71481 0.00663 0.63253 0.0
C1624 C 0.73996 0.00641 0.61314 0.0
C1625 C 0.75317 0.01485 0.60195 0.0
C1626 C 0.74911 0.02571 0.58681 0.0
C1627 C 0.76165 0.03372 0.57645 0.0
C1628 C 0.7783 0.03086 0.58101 0.0
C1629 C 0.78245 0.01995 0.5959 0.0
C1630 C 0.76995 0.01192 0.60631 0.0
C1631 C 0.7099 0.93716 0.61747 0.0
C1632 C 0.72246 0.92744 0.62577 0.0
C1633 C 0.712 0.95422 0.61542 0.0
C1634 C 0.72648 0.96196 0.62217 0.0
C1635 C 0.73951 0.95214 0.62933 0.0
C1636 C 0.73754 0.93492 0.63102 0.0
C1637 C 0.72717 0.98031 0.62337 0.0
C1638 C 0.73987 0.98895 0.61384 0.0
C1639 C 0.71469 0.9893 0.63319 0.0
C1640 C 0.70143 0.98092 0.64443 0.0
C1641 C 0.70547 0.96972 0.65924 0.0
C1642 C 0.69291 0.9616 0.66945 0.0
C1643 C 0.67626 0.96468 0.66508 0.0
C1644 C 0.67214 0.97592 0.65052 0.0
C1645 C 0.68464 0.98406 0.64025 0.0
H1646 H 0.66656 0.95836 0.67298 0.0
H1647 H 0.788 0.03707 0.57298 0.0
H1648 H 0.57247 0.75343 0.85862 0.0
H1649 H 0.54265 0.74797 0.86237 0.0
H1650 H 0.53446 0.79953 0.87599 0.0
H1651 H 0.56408 0.80513 0.87193 0.0
H1652 H 0.51698 0.77657 0.90037 0.0
H1653 H 0.52712 0.78877 0.83308 0.0
H1654 H 0.54063 0.78468 0.80159 0.0
H1655 H 0.52244 0.73462 0.79955 0.0
H1656 H 0.50903 0.73836 0.83122 0.0
H1657 H 0.43681 0.80185 0.87406 0.0
H1658 H 0.4665 0.79693 0.87807 0.0
H1659 H 0.45967 0.74546 0.86303 0.0
H1660 H 0.4297 0.75027 0.85926 0.0
H1661 H 0.48482 0.76217 0.84174 0.0
H1662 H 0.46983 0.75255 0.90674 0.0
H1663 H 0.45573 0.75781 0.93763 0.0
H1664 H 0.48248 0.80357 0.94392 0.0
H1665 H 0.49654 0.79873 0.91289 0.0
C1666 C 0.5643 0.76355 0.86256 0.0
C1667 C 0.57053 0.77973 0.86485 0.0
C1668 C 0.54733 0.76042 0.8647 0.0
C1669 C 0.53642 0.77337 0.86944 0.0
C1670 C 0.54272 0.78938 0.8724 0.0
C1671 C 0.5596 0.79257 0.86994 0.0
C1672 C 0.51829 0.7706 0.8702 0.0
C1673 C 0.50991 0.77341 0.88759 0.0
C1674 C 0.50919 0.76605 0.8536 0.0
C1675 C 0.5173 0.76375 0.83464 0.0
C1676 C 0.52617 0.77683 0.82602 0.0
C1677 C 0.53377 0.77459 0.80812 0.0
C1678 C 0.53245 0.75937 0.79861 0.0
C1679 C 0.52349 0.74638 0.80696 0.0
C1680 C 0.51589 0.74855 0.82489 0.0
C1681 C 0.44159 0.78944 0.87179 0.0
C1682 C 0.43099 0.77645 0.86628 0.0
C1683 C 0.45853 0.78663 0.87419 0.0
C1684 C 0.46523 0.77081 0.87095 0.0
C1685 C 0.45467 0.75772 0.86568 0.0
C1686 C 0.43761 0.76048 0.86357 0.0
C1687 C 0.48342 0.76851 0.87182 0.0
C1688 C 0.49186 0.76484 0.85469 0.0
C1689 C 0.49254 0.77233 0.88865 0.0
C1690 C 0.48417 0.77532 0.90739 0.0
C1691 C 0.47261 0.76381 0.91462 0.0
C1692 C 0.46464 0.7667 0.93218 0.0
C1693 C 0.46819 0.78103 0.94272 0.0
C1694 C 0.47974 0.79248 0.93573 0.0
C1695 C 0.48774 0.78965 0.91817 0.0
H1696 H 0.462 0.78325 0.95631 0.0
H1697 H 0.53833 0.75767 0.78474 0.0
H1698 H 0.24385 0.42923 0.86186 0.0
H1699 H 0.24699 0.45946 0.86422 0.0
H1700 H 0.19386 0.46516 0.86004 0.0
H1701 H 0.19068 0.43522 0.8573 0.0
H1702 H 0.20909 0.48563 0.83619 0.0
H1703 H 0.21507 0.46965 0.90295 0.0
H1704 H 0.22783 0.45455 0.93008 0.0
H1705 H 0.27462 0.47803 0.91845 0.0
H1706 H 0.26218 0.49309 0.89105 0.0
H1707 H 0.19006 0.56504 0.86667 0.0
H1708 H 0.19386 0.53506 0.86732 0.0
H1709 H 0.24696 0.54148 0.86511 0.0
H1710 H 0.24326 0.57176 0.86464 0.0
H1711 H 0.23613 0.51531 0.89037 0.0
H1712 H 0.22878 0.53303 0.82492 0.0
H1713 H 0.21511 0.54839 0.7986 0.0
H1714 H 0.16996 0.5214 0.80855 0.0
H1715 H 0.1833 0.50606 0.83513 0.0
C1716 C 0.23286 0.43697 0.86151 0.0
C1717 C 0.21703 0.42987 0.85929 0.0
C1718 C 0.23467 0.45421 0.86295 0.0
C1719 C 0.22065 0.46456 0.86237 0.0
C1720 C 0.20485 0.45743 0.86042 0.0
C1721 C 0.20306 0.44029 0.85888 0.0
C1722 C 0.2222 0.48289 0.86305 0.0
C1723 C 0.21492 0.49209 0.84812 0.0
C1724 C 0.23029 0.49133 0.87829 0.0
C1725 C 0.23775 0.48234 0.8948 0.0
C1726 C 0.22812 0.47148 0.90607 0.0
C1727 C 0.23528 0.46295 0.92151 0.0
C1728 C 0.25204 0.46529 0.92594 0.0
C1729 C 0.26165 0.4762 0.91497 0.0
C1730 C 0.25454 0.48475 0.89949 0.0
C1731 C 0.20257 0.56013 0.8665 0.0
C1732 C 0.21636 0.57075 0.86535 0.0
C1733 C 0.20471 0.54299 0.86689 0.0
C1734 C 0.22067 0.53608 0.86596 0.0
C1735 C 0.23455 0.54661 0.86578 0.0
C1736 C 0.23241 0.56386 0.86544 0.0
C1737 C 0.22252 0.5179 0.86385 0.0
C1738 C 0.2305 0.50878 0.87837 0.0
C1739 C 0.215 0.50944 0.84828 0.0
C1740 C 0.20702 0.51846 0.83209 0.0
C1741 C 0.21591 0.53044 0.82156 0.0
C1742 C 0.20822 0.53913 0.80659 0.0
C1743 C 0.19167 0.53589 0.80192 0.0
C1744 C 0.18278 0.5239 0.81218 0.0
C1745 C 0.19041 0.51519 0.82719 0.0
H1746 H 0.18573 0.54264 0.79034 0.0
H1747 H 0.25756 0.45867 0.9379 0.0
H1748 H 0.42915 0.2455 0.8691 0.0
H1749 H 0.45902 0.24986 0.87395 0.0
H1750 H 0.46771 0.19763 0.86474 0.0
H1751 H 0.4381 0.19317 0.86012 0.0
H1752 H 0.4855 0.20921 0.89493 0.0
H1753 H 0.47338 0.22618 0.82878 0.0
H1754 H 0.45932 0.24339 0.80433 0.0
H1755 H 0.47944 0.28745 0.83009 0.0
H1756 H 0.49347 0.27048 0.85483 0.0
H1757 H 0.5635 0.1927 0.85786 0.0
H1758 H 0.53408 0.19749 0.86348 0.0
H1759 H 0.54358 0.24959 0.87255 0.0
H1760 H 0.57328 0.2449 0.86671 0.0
H1761 H 0.51693 0.24426 0.84885 0.0
H1762 H 0.53417 0.22609 0.9106 0.0
H1763 H 0.54873 0.20844 0.93417 0.0
H1764 H 0.51927 0.16659 0.91697 0.0
H1765 H 0.50471 0.18392 0.89306 0.0
C1766 C 0.43746 0.23496 0.86819 0.0
C1767 C 0.43131 0.21901 0.86412 0.0
C1768 C 0.45449 0.23747 0.87095 0.0
C1769 C 0.46557 0.22407 0.86961 0.0
C1770 C 0.45937 0.20813 0.86592 0.0
C1771 C 0.44244 0.20562 0.86317 0.0
C1772 C 0.48374 0.22643 0.8713 0.0
C1773 C 0.4924 0.21689 0.88489 0.0
C1774 C 0.49267 0.23694 0.85867 0.0
C1775 C 0.48429 0.2471 0.84377 0.0
C1776 C 0.4747 0.23955 0.82931 0.0
C1777 C 0.46676 0.24925 0.81538 0.0
C1778 C 0.46844 0.26651 0.8157 0.0
C1779 C 0.47812 0.27409 0.82989 0.0
C1780 C 0.48607 0.26444 0.84386 0.0
C1781 C 0.55939 0.20519 0.86109 0.0
C1782 C 0.57071 0.21842 0.86188 0.0
C1783 C 0.54256 0.20789 0.86443 0.0
C1784 C 0.5367 0.22385 0.86875 0.0
C1785 C 0.54791 0.23717 0.86936 0.0
C1786 C 0.56483 0.23446 0.86603 0.0
C1787 C 0.51871 0.22642 0.87188 0.0
C1788 C 0.51007 0.23693 0.85927 0.0
C1789 C 0.50979 0.21679 0.88542 0.0
C1790 C 0.51837 0.20632 0.89997 0.0
C1791 C 0.53085 0.21311 0.91176 0.0
C1792 C 0.53911 0.20315 0.92519 0.0
C1793 C 0.53494 0.1864 0.92706 0.0
C1794 C 0.52248 0.17958 0.91552 0.0
C1795 C 0.5142 0.18947 0.90204 0.0
H1796 H 0.54135 0.17872 0.93746 0.0
H1797 H 0.46229 0.274 0.8049 0.0
H1798 H 0.75275 0.42839 0.86946 0.0
H1799 H 0.748 0.45828 0.87364 0.0
H1800 H 0.80059 0.46717 0.86804 0.0
H1801 H 0.80541 0.43756 0.86405 0.0
H1802 H 0.78736 0.48506 0.8972 0.0
H1803 H 0.77422 0.47258 0.83019 0.0
H1804 H 0.7586 0.45839 0.80445 0.0
H1805 H 0.71298 0.47844 0.82636 0.0
H1806 H 0.72834 0.49259 0.85238 0.0
H1807 H 0.80516 0.56305 0.86082 0.0
H1808 H 0.80024 0.53358 0.86583 0.0
H1809 H 0.74784 0.54289 0.8726 0.0
H1810 H 0.75269 0.57269 0.86745 0.0
H1811 H 0.7546 0.51613 0.84857 0.0
H1812 H 0.76938 0.53353 0.91157 0.0
H1813 H 0.78575 0.54827 0.9362 0.0
H1814 H 0.82867 0.51929 0.92169 0.0
H1815 H 0.81265 0.50455 0.89676 0.0
C1816 C 0.76328 0.43674 0.86923 0.0
C1817 C 0.77944 0.43065 0.86633 0.0
C1818 C 0.76055 0.45378 0.87158 0.0
C1819 C 0.77394 0.46493 0.87106 0.0
C1820 C 0.79008 0.45878 0.86856 0.0
C1821 C 0.7928 0.44184 0.86618 0.0
C1822 C 0.77142 0.48311 0.87241 0.0
C1823 C 0.78018 0.49188 0.8866 0.0
C1824 C 0.76158 0.49193 0.85898 0.0
C1825 C 0.75238 0.48345 0.84336 0.0
C1826 C 0.76084 0.47385 0.8296 0.0
C1827 C 0.75205 0.46584 0.81495 0.0
C1828 C 0.7348 0.46746 0.81381 0.0
C1829 C 0.72633 0.47715 0.82729 0.0
C1830 C 0.73507 0.48517 0.84199 0.0
C1831 C 0.79257 0.5589 0.8634 0.0
C1832 C 0.77931 0.5702 0.86379 0.0
C1833 C 0.7898 0.54204 0.86637 0.0
C1834 C 0.77372 0.5361 0.86989 0.0
C1835 C 0.76036 0.54728 0.87003 0.0
C1836 C 0.76315 0.56426 0.86711 0.0
C1837 C 0.77113 0.51809 0.87285 0.0
C1838 C 0.7614 0.50934 0.85952 0.0
C1839 C 0.78012 0.50926 0.88705 0.0
C1840 C 0.7898 0.51796 0.90222 0.0
C1841 C 0.78233 0.53035 0.91355 0.0
C1842 C 0.79155 0.53871 0.92758 0.0
C1843 C 0.80824 0.53473 0.9305 0.0
C1844 C 0.81574 0.52236 0.91942 0.0
C1845 C 0.80658 0.51397 0.90536 0.0
H1846 H 0.81536 0.54122 0.94136 0.0
H1847 H 0.72802 0.46126 0.80245 0.0
H1848 H 0.42847 0.24402 0.12858 0.0
H1849 H 0.4587 0.24784 0.12719 0.0
H1850 H 0.4655 0.19488 0.13183 0.0
H1851 H 0.43558 0.19101 0.13339 0.0
H1852 H 0.48459 0.21146 0.15715 0.0
H1853 H 0.47082 0.21508 0.08933 0.0
H1854 H 0.45657 0.22689 0.06103 0.0
H1855 H 0.47903 0.27427 0.07204 0.0
H1856 H 0.49324 0.26278 0.10058 0.0
H1857 H 0.56446 0.19099 0.12972 0.0
H1858 H 0.53452 0.19507 0.12892 0.0
H1859 H 0.5415 0.24812 0.1277 0.0
H1860 H 0.57175 0.24413 0.12833 0.0
H1861 H 0.51574 0.2367 0.10289 0.0
H1862 H 0.5319 0.23188 0.16888 0.0
H1863 H 0.54651 0.21947 0.19658 0.0
H1864 H 0.51945 0.17407 0.18884 0.0
H1865 H 0.50485 0.18611 0.1609 0.0
C1866 C 0.43644 0.23321 0.12918 0.0
C1867 C 0.42966 0.21722 0.1312 0.0
C1868 C 0.45368 0.23541 0.12833 0.0
C1869 C 0.46433 0.22163 0.12941 0.0
C1870 C 0.45751 0.20569 0.13108 0.0
C1871 C 0.44038 0.2035 0.13193 0.0
C1872 C 0.48262 0.22357 0.12958 0.0
C1873 C 0.49139 0.21693 0.14524 0.0
C1874 C 0.49145 0.23123 0.11436 0.0
C1875 C 0.48291 0.23813 0.09723 0.0
C1876 C 0.47259 0.22806 0.08582 0.0
C1877 C 0.46455 0.23468 0.06972 0.0
C1878 C 0.46685 0.25134 0.06478 0.0
C1879 C 0.47723 0.26138 0.07591 0.0
C1880 C 0.48529 0.25482 0.09204 0.0
C1881 C 0.55969 0.20354 0.12914 0.0
C1882 C 0.57046 0.21725 0.12931 0.0
C1883 C 0.54256 0.20585 0.1287 0.0
C1884 C 0.53582 0.22189 0.12856 0.0
C1885 C 0.5465 0.23564 0.12788 0.0
C1886 C 0.56373 0.23334 0.1283 0.0
C1887 C 0.51762 0.22402 0.13012 0.0
C1888 C 0.5089 0.2315 0.11491 0.0
C1889 C 0.50875 0.21711 0.14576 0.0
C1890 C 0.51735 0.20988 0.16272 0.0
C1891 C 0.52914 0.21922 0.17301 0.0
C1892 C 0.53741 0.21225 0.18876 0.0
C1893 C 0.53392 0.19599 0.19445 0.0
C1894 C 0.52213 0.18666 0.18442 0.0
C1895 C 0.51384 0.19356 0.16864 0.0
H1896 H 0.54035 0.19061 0.20664 0.0
H1897 H 0.46062 0.25645 0.0523 0.0
H1898 H 0.8009 0.56302 0.14889 0.0
H1899 H 0.79747 0.5333 0.14414 0.0
H1900 H 0.75471 0.54229 0.10814 0.0
H1901 H 0.75771 0.5723 0.11362 0.0
H1902 H 0.74964 0.51582 0.13053 0.0
H1903 H 0.79257 0.53298 0.08816 0.0
H1904 H 0.81815 0.54771 0.07897 0.0
H1905 H 0.84633 0.51777 0.1183 0.0
H1906 H 0.82085 0.50315 0.12818 0.0
H1907 H 0.75849 0.42732 0.11311 0.0
H1908 H 0.75504 0.45726 0.10753 0.0
H1909 H 0.79809 0.46689 0.14286 0.0
H1910 H 0.80191 0.43726 0.14773 0.0
H1911 H 0.79984 0.48427 0.11136 0.0
H1912 H 0.75533 0.47197 0.1581 0.0
H1913 H 0.72942 0.45791 0.16776 0.0
H1914 H 0.70432 0.47855 0.11872 0.0
H1915 H 0.73013 0.49261 0.1087 0.0
C1916 C 0.79073 0.55869 0.14 0.0
C1917 C 0.77967 0.56993 0.13144 0.0
C1918 C 0.78882 0.5417 0.13722 0.0
C1919 C 0.77612 0.53559 0.12532 0.0
C1920 C 0.76469 0.54675 0.11723 0.0
C1921 C 0.76641 0.56385 0.12034 0.0
C1922 C 0.77515 0.51753 0.12141 0.0
C1923 C 0.76052 0.50893 0.12598 0.0
C1924 C 0.78928 0.50853 0.11527 0.0
C1925 C 0.80475 0.51697 0.10893 0.0
C1926 C 0.80421 0.52955 0.0949 0.0
C1927 C 0.8187 0.5379 0.08957 0.0
C1928 C 0.83387 0.53365 0.09797 0.0
C1929 C 0.83458 0.52103 0.11175 0.0
C1930 C 0.82011 0.51271 0.11723 0.0
C1931 C 0.76713 0.43591 0.1197 0.0
C1932 C 0.78049 0.43003 0.1308 0.0
C1933 C 0.76514 0.45298 0.11655 0.0
C1934 C 0.77628 0.46435 0.12484 0.0
C1935 C 0.78942 0.45838 0.13617 0.0
C1936 C 0.79157 0.44143 0.139 0.0
C1937 C 0.77474 0.48252 0.12182 0.0
C1938 C 0.78887 0.49117 0.11561 0.0
C1939 C 0.76016 0.4915 0.12637 0.0
C1940 C 0.74467 0.48318 0.13256 0.0
C1941 C 0.7443 0.47343 0.14934 0.0
C1942 C 0.72963 0.46548 0.15489 0.0
C1943 C 0.71525 0.46729 0.14384 0.0
C1944 C 0.71547 0.47713 0.12725 0.0
C1945 C 0.73011 0.4851 0.12165 0.0
H1946 H 0.70391 0.46111 0.14814 0.0
H1947 H 0.84508 0.54014 0.09383 0.0
H1948 H 0.42692 0.7552 0.1216 0.0
H1949 H 0.4567 0.75056 0.11619 0.0
H1950 H 0.46646 0.80189 0.12976 0.0
H1951 H 0.43699 0.80662 0.1349 0.0
H1952 H 0.48338 0.79222 0.09826 0.0
H1953 H 0.47218 0.77042 0.16288 0.0
H1954 H 0.45845 0.75138 0.1857 0.0
H1955 H 0.47803 0.7095 0.15499 0.0
H1956 H 0.49172 0.72832 0.13185 0.0
H1957 H 0.56172 0.80648 0.13498 0.0
H1958 H 0.53225 0.80187 0.12956 0.0
H1959 H 0.54183 0.75047 0.11627 0.0
H1960 H 0.57158 0.75496 0.122 0.0
H1961 H 0.51536 0.75401 0.14027 0.0
H1962 H 0.53186 0.77654 0.08023 0.0
H1963 H 0.54617 0.79584 0.05825 0.0
H1964 H 0.5169 0.83627 0.07982 0.0
H1965 H 0.50259 0.81728 0.10216 0.0
C1966 C 0.43545 0.76546 0.12339 0.0
C1967 C 0.42964 0.78126 0.12873 0.0
C1968 C 0.45243 0.7628 0.12031 0.0
C1969 C 0.46379 0.77588 0.12262 0.0
C1970 C 0.45792 0.79164 0.12778 0.0
C1971 C 0.44105 0.79431 0.13081 0.0
C1972 C 0.48189 0.77342 0.12023 0.0
C1973 C 0.49039 0.78385 0.1074 0.0
C1974 C 0.49097 0.76201 0.1316 0.0
C1975 C 0.48278 0.75075 0.14552 0.0
C1976 C 0.47344 0.75715 0.16092 0.0
C1977 C 0.46569 0.7464 0.17392 0.0
C1978 C 0.46732 0.72924 0.17176 0.0
C1979 C 0.47674 0.72279 0.15662 0.0
C1980 C 0.4845 0.73349 0.14357 0.0
C1981 C 0.55762 0.79419 0.13085 0.0
C1982 C 0.56898 0.78109 0.12886 0.0
C1983 C 0.54076 0.79159 0.12764 0.0
C1984 C 0.53489 0.7759 0.12216 0.0
C1985 C 0.54614 0.7627 0.12035 0.0
C1986 C 0.5631 0.76529 0.12361 0.0
C1987 C 0.51686 0.77346 0.11903 0.0
C1988 C 0.50837 0.76206 0.13071 0.0
C1989 C 0.50777 0.78398 0.10658 0.0
C1990 C 0.51617 0.79546 0.09293 0.0
C1991 C 0.52852 0.78956 0.08036 0.0
C1992 C 0.53664 0.80045 0.06783 0.0
C1993 C 0.53245 0.81727 0.06764 0.0
C1994 C 0.52012 0.82323 0.07996 0.0
C1995 C 0.51198 0.8124 0.09254 0.0
H1996 H 0.53876 0.82568 0.05794 0.0
H1997 H 0.46131 0.72094 0.18184 0.0
H1998 H 0.24617 0.42823 0.11857 0.0
H1999 H 0.25101 0.45816 0.11492 0.0
H2000 H 0.2009 0.46785 0.13375 0.0
H2001 H 0.1959 0.43823 0.13693 0.0
H2002 H 0.20809 0.48645 0.10374 0.0
H2003 H 0.23572 0.47141 0.16402 0.0
H2004 H 0.25644 0.45618 0.18333 0.0
H2005 H 0.2957 0.47673 0.14895 0.0
H2006 H 0.27516 0.49193 0.12931 0.0
H2007 H 0.19886 0.56258 0.14666 0.0
H2008 H 0.20365 0.53309 0.14175 0.0
H2009 H 0.25155 0.54363 0.11687 0.0
H2010 H 0.24691 0.57349 0.12198 0.0
H2011 H 0.25101 0.51551 0.14235 0.0
H2012 H 0.2219 0.53603 0.08758 0.0
H2013 H 0.20014 0.55256 0.07169 0.0
H2014 H 0.16256 0.52168 0.09694 0.0
H2015 H 0.18407 0.50534 0.11362 0.0
C2016 C 0.23621 0.43679 0.12187 0.0
C2017 C 0.22067 0.4309 0.12806 0.0
C2018 C 0.239 0.45386 0.11982 0.0
C2019 C 0.22634 0.46525 0.12416 0.0
C2020 C 0.21082 0.45931 0.13021 0.0
C2021 C 0.208 0.44235 0.1321 0.0
C2022 C 0.22896 0.48344 0.12283 0.0
C2023 C 0.21751 0.49279 0.11215 0.0
C2024 C 0.24162 0.49172 0.13323 0.0
C2025 C 0.25392 0.48263 0.14507 0.0
C2026 C 0.24876 0.47258 0.1605 0.0
C2027 C 0.26047 0.46397 0.17152 0.0
C2028 C 0.27737 0.46544 0.16733 0.0
C2029 C 0.2826 0.47557 0.15215 0.0
C2030 C 0.27094 0.48418 0.14108 0.0
C2031 C 0.21048 0.55869 0.14025 0.0
C2032 C 0.22244 0.57036 0.1345 0.0
C2033 C 0.21319 0.54181 0.13745 0.0
C2034 C 0.22782 0.53624 0.12865 0.0
C2035 C 0.24015 0.54775 0.1236 0.0
C2036 C 0.23746 0.56475 0.12648 0.0
C2037 C 0.22958 0.51839 0.12413 0.0
C2038 C 0.2419 0.50914 0.13354 0.0
C2039 C 0.21761 0.51016 0.11268 0.0
C2040 C 0.20464 0.51947 0.10192 0.0
C2041 C 0.209 0.53279 0.08982 0.0
C2042 C 0.1967 0.54215 0.08068 0.0
C2043 C 0.17997 0.53814 0.08325 0.0
C2044 C 0.17552 0.52475 0.09494 0.0
C2045 C 0.18777 0.51545 0.10426 0.0
H2046 H 0.17045 0.54543 0.07623 0.0
H2047 H 0.28642 0.45877 0.17587 0.0
H2048 H 0.10825 0.28726 0.41582 0.0
H2049 H 0.10571 0.28893 0.45077 0.0
H2050 H 0.13715 0.33227 0.4512 0.0
H2051 H 0.14006 0.33053 0.4163 0.0
H2052 H 0.14774 0.31001 0.47621 0.0
H2053 H 0.0951 0.33478 0.46132 0.0
H2054 H 0.0677 0.33659 0.44564 0.0
H2055 H 0.05251 0.29156 0.47362 0.0
H2056 H 0.0799 0.28939 0.48935 0.0
H2057 H 0.14051 0.3274 0.57487 0.0
H2058 H 0.13784 0.32992 0.54003 0.0
H2059 H 0.10731 0.28596 0.53868 0.0
H2060 H 0.10959 0.28351 0.57367 0.0
H2061 H 0.09561 0.30934 0.51423 0.0
H2062 H 0.14828 0.28376 0.52767 0.0
H2063 H 0.17577 0.28131 0.54304 0.0
H2064 H 0.19094 0.32724 0.51706 0.0
H2065 H 0.16345 0.33007 0.50173 0.0
C2066 C 0.11447 0.29728 0.42329 0.0
C2067 C 0.12449 0.30867 0.41325 0.0
C2068 C 0.11292 0.29827 0.44329 0.0
C2069 C 0.12117 0.31078 0.45358 0.0
C2070 C 0.1307 0.3225 0.44353 0.0
C2071 C 0.13235 0.32147 0.42357 0.0
C2072 C 0.12102 0.31085 0.47491 0.0
C2073 C 0.13633 0.31019 0.48451 0.0
C2074 C 0.10613 0.31053 0.48572 0.0
C2075 C 0.0896 0.31186 0.4764 0.0
C2076 C 0.08596 0.32521 0.46404 0.0
C2077 C 0.07042 0.32632 0.45517 0.0
C2078 C 0.05838 0.3142 0.45862 0.0
C2079 C 0.06184 0.30096 0.47098 0.0
C2080 C 0.07737 0.2998 0.47991 0.0
C2081 C 0.13318 0.31827 0.56722 0.0
C2082 C 0.12544 0.30512 0.57707 0.0
C2083 C 0.13167 0.31974 0.54728 0.0
C2084 C 0.1226 0.30798 0.53675 0.0
C2085 C 0.1144 0.29516 0.54655 0.0
C2086 C 0.11579 0.29374 0.56654 0.0
C2087 C 0.12233 0.30865 0.51544 0.0
C2088 C 0.10699 0.30933 0.50587 0.0
C2089 C 0.13719 0.30892 0.50459 0.0
C2090 C 0.15376 0.3072 0.51371 0.0
C2091 C 0.15744 0.2934 0.52535 0.0
C2092 C 0.17303 0.29193 0.53404 0.0
C2093 C 0.18508 0.30413 0.53107 0.0
C2094 C 0.18159 0.31781 0.51937 0.0
C2095 C 0.16601 0.31934 0.51066 0.0
H2096 H 0.19714 0.30298 0.53781 0.0
H2097 H 0.04635 0.31508 0.45174 0.0
H2098 H 0.71498 0.10285 0.57664 0.0
H2099 H 0.71319 0.09991 0.54169 0.0
H2100 H 0.68238 0.14361 0.53867 0.0
H2101 H 0.68382 0.14651 0.57358 0.0
H2102 H 0.67073 0.11957 0.51551 0.0
H2103 H 0.72384 0.14531 0.52816 0.0
H2104 H 0.75148 0.1473 0.54324 0.0
H2105 H 0.76571 0.10117 0.5171 0.0
H2106 H 0.73805 0.09881 0.50205 0.0
H2107 H 0.68062 0.14517 0.4188 0.0
H2108 H 0.67978 0.14218 0.45372 0.0
H2109 H 0.71142 0.09911 0.45004 0.0
H2110 H 0.7126 0.10215 0.41507 0.0
H2111 H 0.72238 0.11988 0.47663 0.0
H2112 H 0.67004 0.09547 0.46137 0.0
H2113 H 0.6424 0.09356 0.44628 0.0
H2114 H 0.62658 0.13694 0.47709 0.0
H2115 H 0.6542 0.13925 0.49217 0.0
C2116 C 0.70782 0.11185 0.56856 0.0
C2117 C 0.69965 0.125 0.57793 0.0
C2118 C 0.70682 0.11014 0.54858 0.0
C2119 C 0.6978 0.12165 0.53758 0.0
C2120 C 0.68939 0.13459 0.5469 0.0
C2121 C 0.6903 0.13626 0.56687 0.0
C2122 C 0.69744 0.12053 0.5163 0.0
C2123 C 0.682 0.11977 0.50697 0.0
C2124 C 0.71217 0.12033 0.50523 0.0
C2125 C 0.72883 0.1218 0.51415 0.0
C2126 C 0.73282 0.13554 0.52574 0.0
C2127 C 0.7485 0.13674 0.53426 0.0
C2128 C 0.76033 0.12435 0.53117 0.0
C2129 C 0.75652 0.11075 0.5195 0.0
C2130 C 0.74086 0.10948 0.51096 0.0
C2131 C 0.6873 0.13497 0.42536 0.0
C2132 C 0.69674 0.12395 0.4141 0.0
C2133 C 0.68672 0.13322 0.44534 0.0
C2134 C 0.6954 0.12032 0.45447 0.0
C2135 C 0.70462 0.10915 0.44328 0.0
C2136 C 0.70527 0.11092 0.42329 0.0
C2137 C 0.69565 0.11914 0.47576 0.0
C2138 C 0.71108 0.11948 0.48512 0.0
C2139 C 0.6809 0.11896 0.48683 0.0
C2140 C 0.66425 0.11761 0.47779 0.0
C2141 C 0.66071 0.10468 0.46482 0.0
C2142 C 0.64504 0.10351 0.45628 0.0
C2143 C 0.63275 0.11514 0.46069 0.0
C2144 C 0.63611 0.12794 0.47368 0.0
C2145 C 0.65177 0.12918 0.48224 0.0
H2146 H 0.62062 0.11421 0.45407 0.0
H2147 H 0.77246 0.1253 0.53779 0.0
H2148 H 0.86523 0.66735 0.41786 0.0
H2149 H 0.86785 0.66522 0.45276 0.0
H2150 H 0.89324 0.71233 0.45424 0.0
H2151 H 0.89103 0.71442 0.41921 0.0
H2152 H 0.9065 0.69074 0.47997 0.0
H2153 H 0.85179 0.71015 0.46282 0.0
H2154 H 0.82492 0.70884 0.44585 0.0
H2155 H 0.81417 0.66218 0.47303 0.0
H2156 H 0.84109 0.66312 0.48997 0.0
H2157 H 0.8893 0.71502 0.5762 0.0
H2158 H 0.89205 0.71265 0.54133 0.0
H2159 H 0.86477 0.66658 0.54252 0.0
H2160 H 0.86159 0.66904 0.57735 0.0
H2161 H 0.85321 0.68613 0.5154 0.0
H2162 H 0.90728 0.66785 0.53469 0.0
H2163 H 0.934 0.66963 0.55189 0.0
H2164 H 0.94603 0.71428 0.52116 0.0
H2165 H 0.91927 0.71291 0.50397 0.0
C2166 C 0.87152 0.6772 0.42555 0.0
C2167 C 0.87769 0.69119 0.41576 0.0
C2168 C 0.873 0.67596 0.44551 0.0
C2169 C 0.88044 0.68878 0.45611 0.0
C2170 C 0.88739 0.70233 0.44632 0.0
C2171 C 0.88606 0.70353 0.4263 0.0
C2172 C 0.87995 0.68859 0.47743 0.0
C2173 C 0.89486 0.68987 0.48776 0.0
C2174 C 0.86477 0.68713 0.48754 0.0
C2175 C 0.84851 0.68663 0.47751 0.0
C2176 C 0.84374 0.69957 0.46508 0.0
C2177 C 0.8285 0.69889 0.45548 0.0
C2178 C 0.81786 0.68541 0.45833 0.0
C2179 C 0.82243 0.6726 0.47082 0.0
C2180 C 0.83767 0.67321 0.48044 0.0
C2181 C 0.88395 0.70433 0.56909 0.0
C2182 C 0.87515 0.69226 0.57959 0.0
C2183 C 0.88564 0.70294 0.54914 0.0
C2184 C 0.87878 0.68933 0.53934 0.0
C2185 C 0.87017 0.67718 0.5498 0.0
C2186 C 0.86835 0.67862 0.56972 0.0
C2187 C 0.87978 0.68826 0.51807 0.0
C2188 C 0.86491 0.68682 0.50769 0.0
C2189 C 0.895 0.6896 0.50799 0.0
C2190 C 0.91119 0.69035 0.51816 0.0
C2191 C 0.91557 0.67811 0.5317 0.0
C2192 C 0.93073 0.67904 0.54143 0.0
C2193 C 0.94169 0.69208 0.53766 0.0
C2194 C 0.93753 0.7042 0.52409 0.0
C2195 C 0.92237 0.70334 0.51433 0.0
H2196 H 0.95342 0.69278 0.54522 0.0
H2197 H 0.80607 0.68491 0.45088 0.0
H2198 H 0.28205 0.89139 0.57873 0.0
H2199 H 0.28241 0.89444 0.54373 0.0
H2200 H 0.32359 0.86041 0.54014 0.0
H2201 H 0.32341 0.85726 0.57512 0.0
H2202 H 0.32742 0.8881 0.51661 0.0
H2203 H 0.28602 0.84664 0.53097 0.0
H2204 H 0.26096 0.83583 0.54706 0.0
H2205 H 0.23168 0.87439 0.52119 0.0
H2206 H 0.25663 0.88558 0.50518 0.0
H2207 H 0.3239 0.85958 0.42051 0.0
H2208 H 0.32419 0.8627 0.45542 0.0
H2209 H 0.28165 0.89508 0.4522 0.0
H2210 H 0.28115 0.89198 0.41719 0.0
H2211 H 0.27779 0.87093 0.47925 0.0
H2212 H 0.31878 0.91114 0.46275 0.0
H2213 H 0.34383 0.92203 0.44676 0.0
H2214 H 0.37384 0.88618 0.47645 0.0
H2215 H 0.34893 0.87491 0.49243 0.0
C2216 C 0.29125 0.8846 0.57054 0.0
C2217 C 0.30263 0.87397 0.57975 0.0
C2218 C 0.29141 0.88636 0.55054 0.0
C2219 C 0.30294 0.87755 0.5394 0.0
C2220 C 0.3146 0.86731 0.54853 0.0
C2221 C 0.3144 0.86547 0.56852 0.0
C2222 C 0.30251 0.87852 0.51815 0.0
C2223 C 0.31664 0.88423 0.50839 0.0
C2224 C 0.28825 0.87386 0.50756 0.0
C2225 C 0.27322 0.86706 0.51705 0.0
C2226 C 0.27426 0.8529 0.52884 0.0
C2227 C 0.26007 0.84668 0.53793 0.0
C2228 C 0.24474 0.85445 0.53519 0.0
C2229 C 0.24357 0.86841 0.52332 0.0
C2230 C 0.25772 0.87469 0.51423 0.0
C2231 C 0.31465 0.86746 0.42715 0.0
C2232 C 0.30246 0.87547 0.416 0.0
C2233 C 0.3149 0.8693 0.44712 0.0
C2234 C 0.30301 0.87922 0.45636 0.0
C2235 C 0.29094 0.88738 0.44532 0.0
C2236 C 0.29071 0.88561 0.42531 0.0
C2237 C 0.30278 0.88035 0.47762 0.0
C2238 C 0.28852 0.87499 0.48742 0.0
C2239 C 0.31692 0.88534 0.48824 0.0
C2240 C 0.33195 0.89209 0.47867 0.0
C2241 C 0.3307 0.90548 0.46575 0.0
C2242 C 0.34488 0.91175 0.45671 0.0
C2243 C 0.36041 0.90478 0.46055 0.0
C2244 C 0.3618 0.89155 0.47348 0.0
C2245 C 0.34765 0.88524 0.48255 0.0
H2246 H 0.37138 0.90964 0.45354 0.0
H2247 H 0.23377 0.84963 0.54223 0.0
H2248 H 0.10034 0.7083 0.41709 0.0
H2249 H 0.09766 0.70742 0.45211 0.0
H2250 H 0.13903 0.67356 0.45543 0.0
H2251 H 0.14164 0.67409 0.42045 0.0
H2252 H 0.11523 0.66509 0.48072 0.0
H2253 H 0.14446 0.71497 0.46273 0.0
H2254 H 0.1482 0.74138 0.4453 0.0
H2255 H 0.10435 0.761 0.47205 0.0
H2256 H 0.10023 0.7346 0.48944 0.0
H2257 H 0.14471 0.67863 0.57543 0.0
H2258 H 0.14096 0.67641 0.54069 0.0
H2259 H 0.09974 0.71048 0.54349 0.0
H2260 H 0.10351 0.71299 0.57827 0.0
H2261 H 0.12078 0.7187 0.51524 0.0
H2262 H 0.09331 0.66911 0.53579 0.0
H2263 H 0.09035 0.64265 0.5533 0.0
H2264 H 0.13159 0.62235 0.52205 0.0
H2265 H 0.13496 0.64877 0.50454 0.0
C2266 C 0.10879 0.70054 0.42523 0.0
C2267 C 0.12134 0.69141 0.41594 0.0
C2268 C 0.10725 0.70008 0.44526 0.0
C2269 C 0.11833 0.69064 0.45638 0.0
C2270 C 0.13038 0.68096 0.44712 0.0
C2271 C 0.13188 0.68133 0.4271 0.0
C2272 C 0.11801 0.69154 0.47769 0.0
C2273 C 0.11655 0.67678 0.48829 0.0
C2274 C 0.1194 0.70685 0.48754 0.0
C2275 C 0.12194 0.72276 0.47722 0.0
C2276 C 0.13555 0.72488 0.46478 0.0
C2277 C 0.13775 0.73985 0.45493 0.0
C2278 C 0.12649 0.75285 0.45752 0.0
C2279 C 0.11304 0.75091 0.47003 0.0
C2280 C 0.11078 0.73596 0.4799 0.0
C2281 C 0.13478 0.6856 0.56873 0.0
C2282 C 0.12445 0.69603 0.57969 0.0
C2283 C 0.1326 0.68423 0.54885 0.0
C2284 C 0.11995 0.69313 0.53954 0.0
C2285 C 0.10956 0.70348 0.55041 0.0
C2286 C 0.11175 0.7049 0.5703 0.0
C2287 C 0.11812 0.69223 0.51833 0.0
C2288 C 0.11923 0.707 0.50772 0.0
C2289 C 0.1165 0.67692 0.50851 0.0
C2290 C 0.11446 0.66098 0.51896 0.0
C2291 C 0.10183 0.65905 0.53275 0.0
C2292 C 0.10006 0.64404 0.54266 0.0
C2293 C 0.11079 0.63084 0.53882 0.0
C2294 C 0.12329 0.63259 0.52502 0.0
C2295 C 0.12512 0.64757 0.51508 0.0
H2296 H 0.10941 0.61923 0.54651 0.0
H2297 H 0.12821 0.76443 0.44987 0.0
H2298 H 0.31869 0.14511 0.4178 0.0
H2299 H 0.31935 0.14302 0.45276 0.0
H2300 H 0.29152 0.09732 0.45003 0.0
H2301 H 0.29037 0.09957 0.41493 0.0
H2302 H 0.27874 0.11709 0.47605 0.0
H2303 H 0.33362 0.09807 0.462 0.0
H2304 H 0.36136 0.0989 0.44705 0.0
H2305 H 0.37202 0.14463 0.47625 0.0
H2306 H 0.34425 0.14419 0.49118 0.0
H2307 H 0.28776 0.10441 0.57701 0.0
H2308 H 0.28944 0.10062 0.54216 0.0
H2309 H 0.3159 0.14695 0.53694 0.0
H2310 H 0.3146 0.1507 0.57175 0.0
H2311 H 0.32988 0.12352 0.51515 0.0
H2312 H 0.27425 0.14388 0.52641 0.0
H2313 H 0.24645 0.14339 0.54128 0.0
H2314 H 0.23739 0.09519 0.51713 0.0
H2315 H 0.26523 0.09531 0.50232 0.0
C2316 C 0.31285 0.13451 0.42458 0.0
C2317 C 0.30445 0.12251 0.41356 0.0
C2318 C 0.31332 0.13328 0.4446 0.0
C2319 C 0.30569 0.11989 0.45401 0.0
C2320 C 0.29752 0.10775 0.44305 0.0
C2321 C 0.29688 0.10905 0.423 0.0
C2322 C 0.30541 0.11917 0.47533 0.0
C2323 C 0.28997 0.11815 0.4846 0.0
C2324 C 0.32002 0.1209 0.48648 0.0
C2325 C 0.33679 0.12114 0.47761 0.0
C2326 C 0.34183 0.10836 0.46514 0.0
C2327 C 0.35757 0.10875 0.45668 0.0
C2328 C 0.36843 0.12182 0.46067 0.0
C2329 C 0.36359 0.13451 0.47317 0.0
C2330 C 0.34786 0.13418 0.48165 0.0
C2331 C 0.2939 0.11382 0.56846 0.0
C2332 C 0.30097 0.12791 0.57717 0.0
C2333 C 0.29484 0.11163 0.54854 0.0
C2334 C 0.30265 0.12359 0.53696 0.0
C2335 C 0.30984 0.13756 0.54563 0.0
C2336 C 0.30902 0.13971 0.56553 0.0
C2337 C 0.30322 0.12172 0.51577 0.0
C2338 C 0.31871 0.12224 0.50656 0.0
C2339 C 0.28866 0.11955 0.50466 0.0
C2340 C 0.27188 0.11954 0.51343 0.0
C2341 C 0.26637 0.13313 0.52439 0.0
C2342 C 0.2506 0.13293 0.53279 0.0
C2343 C 0.24018 0.11925 0.5302 0.0
C2344 C 0.24549 0.10577 0.51915 0.0
C2345 C 0.26125 0.1059 0.51074 0.0
H2346 H 0.22798 0.11911 0.53672 0.0
H2347 H 0.38061 0.12211 0.4541 0.0
H2348 H 0.84886 0.31088 0.42265 0.0
H2349 H 0.85275 0.31316 0.4573 0.0
H2350 H 0.90428 0.29953 0.45097 0.0
H2351 H 0.90025 0.29651 0.41617 0.0
H2352 H 0.89202 0.28404 0.48017 0.0
H2353 H 0.89179 0.34059 0.46086 0.0
H2354 H 0.88182 0.36567 0.44412 0.0
H2355 H 0.83646 0.36403 0.47648 0.0
H2356 H 0.84604 0.3388 0.49323 0.0
H2357 H 0.8999 0.29932 0.58096 0.0
H2358 H 0.90432 0.30176 0.54621 0.0
H2359 H 0.85254 0.3139 0.53851 0.0
H2360 H 0.84828 0.31229 0.57325 0.0
H2361 H 0.87058 0.33263 0.51624 0.0
H2362 H 0.87012 0.27289 0.53105 0.0
H2363 H 0.88105 0.24829 0.54806 0.0
H2364 H 0.92942 0.25725 0.52424 0.0
H2365 H 0.91877 0.28194 0.5072 0.0
C2366 C 0.86105 0.30844 0.4286 0.0
C2367 C 0.87427 0.30359 0.41669 0.0
C2368 C 0.8633 0.30986 0.44842 0.0
C2369 C 0.87892 0.30692 0.45672 0.0
C2370 C 0.89215 0.30197 0.44487 0.0
C2371 C 0.88983 0.30024 0.42502 0.0
C2372 C 0.88111 0.3084 0.47785 0.0
C2373 C 0.88762 0.29482 0.48801 0.0
C2374 C 0.87538 0.32244 0.48815 0.0
C2375 C 0.86962 0.33774 0.47824 0.0
C2376 C 0.87965 0.34552 0.46434 0.0
C2377 C 0.87407 0.35978 0.45485 0.0
C2378 C 0.85851 0.36643 0.45922 0.0
C2379 C 0.84851 0.35887 0.47312 0.0
C2380 C 0.85403 0.3446 0.48264 0.0
C2381 C 0.88948 0.30253 0.57181 0.0
C2382 C 0.87371 0.30549 0.57974 0.0
C2383 C 0.89201 0.30388 0.55197 0.0
C2384 C 0.87869 0.30772 0.5397 0.0
C2385 C 0.86301 0.31093 0.54769 0.0
C2386 C 0.86056 0.30995 0.56753 0.0
C2387 C 0.88076 0.308 0.51849 0.0
C2388 C 0.87517 0.32198 0.50833 0.0
C2389 C 0.88746 0.2944 0.50819 0.0
C2390 C 0.89369 0.2793 0.51799 0.0
C2391 C 0.88308 0.2696 0.52948 0.0
C2392 C 0.88923 0.25566 0.53912 0.0
C2393 C 0.90593 0.25123 0.53726 0.0
C2394 C 0.9165 0.26069 0.52567 0.0
C2395 C 0.91041 0.27464 0.51599 0.0
H2396 H 0.91068 0.24046 0.54478 0.0
H2397 H 0.8542 0.37746 0.45184 0.0
H2398 H 0.72107 0.8831 0.57499 0.0
H2399 H 0.71845 0.88643 0.54018 0.0
H2400 H 0.66821 0.86794 0.54276 0.0
H2401 H 0.67095 0.86401 0.57747 0.0
H2402 H 0.68388 0.85358 0.51497 0.0
H2403 H 0.67773 0.91 0.53513 0.0
H2404 H 0.68545 0.93557 0.55246 0.0
H2405 H 0.73078 0.93852 0.52015 0.0
H2406 H 0.72347 0.91282 0.50283 0.0
H2407 H 0.66796 0.86885 0.41712 0.0
H2408 H 0.66606 0.87172 0.45206 0.0
H2409 H 0.71689 0.88852 0.45404 0.0
H2410 H 0.71868 0.8863 0.41901 0.0
H2411 H 0.69876 0.90498 0.47961 0.0
H2412 H 0.70597 0.84713 0.46216 0.0
H2413 H 0.69848 0.82129 0.44522 0.0
H2414 H 0.65085 0.82125 0.47297 0.0
H2415 H 0.65801 0.8472 0.4899 0.0
C2416 C 0.70944 0.87981 0.56816 0.0
C2417 C 0.69624 0.87322 0.57897 0.0
C2418 C 0.70791 0.88184 0.54827 0.0
C2419 C 0.69304 0.87767 0.53889 0.0
C2420 C 0.6798 0.87126 0.5497 0.0
C2421 C 0.68139 0.86899 0.56953 0.0
C2422 C 0.69161 0.87908 0.51767 0.0
C2423 C 0.68684 0.86493 0.50729 0.0
C2424 C 0.6958 0.89378 0.5076 0.0
C2425 C 0.7001 0.9094 0.51778 0.0
C2426 C 0.6894 0.91604 0.5318 0.0
C2427 C 0.69369 0.93057 0.54161 0.0
C2428 C 0.70861 0.93864 0.53743 0.0
C2429 C 0.71923 0.93225 0.52338 0.0
C2430 C 0.71501 0.91771 0.51354 0.0
C2431 C 0.67869 0.87328 0.42498 0.0
C2432 C 0.69356 0.8771 0.41536 0.0
C2433 C 0.67759 0.87491 0.44495 0.0
C2434 C 0.69146 0.87996 0.45569 0.0
C2435 C 0.70606 0.88453 0.44604 0.0
C2436 C 0.70708 0.88319 0.42602 0.0
C2437 C 0.69114 0.87946 0.47702 0.0
C2438 C 0.69562 0.89373 0.48738 0.0
C2439 C 0.68667 0.86488 0.48714 0.0
C2440 C 0.68247 0.84917 0.47715 0.0
C2441 C 0.69388 0.84165 0.46457 0.0
C2442 C 0.68969 0.82698 0.45498 0.0
C2443 C 0.67418 0.81965 0.45798 0.0
C2444 C 0.66285 0.82695 0.47064 0.0
C2445 C 0.66697 0.84162 0.48025 0.0
H2446 H 0.67096 0.80831 0.45053 0.0
H2447 H 0.71192 0.94987 0.54506 0.0
H2448 H 0.64608 0.81918 0.07298 0.0
H2449 H 0.6421 0.82083 0.03828 0.0
H2450 H 0.59457 0.79659 0.04384 0.0
H2451 H 0.59871 0.79442 0.07865 0.0
H2452 H 0.61147 0.7831 0.01591 0.0
H2453 H 0.59794 0.83882 0.03276 0.0
H2454 H 0.60172 0.86598 0.0485 0.0
H2455 H 0.64675 0.87375 0.01669 0.0
H2456 H 0.64337 0.84655 0.00094 0.0
H2457 H 0.59971 0.7936 0.91491 0.0
H2458 H 0.59528 0.79571 0.94968 0.0
H2459 H 0.64292 0.81961 0.95593 0.0
H2460 H 0.64717 0.81807 0.92123 0.0
H2461 H 0.62095 0.83438 0.97793 0.0
H2462 H 0.63638 0.77701 0.96514 0.0
H2463 H 0.63293 0.74967 0.94966 0.0
H2464 H 0.58421 0.7452 0.97419 0.0
H2465 H 0.58731 0.7726 0.98963 0.0
C2466 C 0.6347 0.81433 0.06688 0.0
C2467 C 0.62273 0.80664 0.07858 0.0
C2468 C 0.63239 0.81538 0.04702 0.0
C2469 C 0.61791 0.80909 0.03848 0.0
C2470 C 0.60582 0.80158 0.05014 0.0
C2471 C 0.60821 0.80033 0.07002 0.0
C2472 C 0.61597 0.80944 0.01725 0.0
C2473 C 0.61318 0.79439 0.00763 0.0
C2474 C 0.61843 0.82412 0.00642 0.0
C2475 C 0.62043 0.84058 0.01574 0.0
C2476 C 0.6087 0.84628 0.0292 0.0
C2477 C 0.61077 0.86169 0.03811 0.0
C2478 C 0.62448 0.87158 0.03361 0.0
C2479 C 0.63613 0.86609 0.02015 0.0
C2480 C 0.63413 0.85068 0.01121 0.0
C2481 C 0.60923 0.79932 0.92371 0.0
C2482 C 0.62384 0.80557 0.91535 0.0
C2483 C 0.60669 0.8005 0.94357 0.0
C2484 C 0.61888 0.80762 0.95544 0.0
C2485 C 0.63333 0.8141 0.94705 0.0
C2486 C 0.63577 0.81315 0.92721 0.0
C2487 C 0.61696 0.80797 0.97666 0.0
C2488 C 0.61896 0.82316 0.98626 0.0
C2489 C 0.61379 0.79343 0.98749 0.0
C2490 C 0.61201 0.77691 0.97835 0.0
C2491 C 0.6249 0.77023 0.96713 0.0
C2492 C 0.62301 0.75472 0.95838 0.0
C2493 C 0.60834 0.74573 0.9609 0.0
C2494 C 0.59555 0.75219 0.97222 0.0
C2495 C 0.59737 0.7677 0.98099 0.0
H2496 H 0.60689 0.73373 0.9541 0.0
H2497 H 0.62606 0.8835 0.04054 0.0
H2498 H 0.16925 0.63662 0.91961 0.0
H2499 H 0.16675 0.63223 0.95425 0.0
H2500 H 0.21473 0.60846 0.95508 0.0
H2501 H 0.2171 0.6123 0.92025 0.0
H2502 H 0.19379 0.59249 0.97813 0.0
H2503 H 0.20941 0.64979 0.9685 0.0
H2504 H 0.20652 0.67794 0.95495 0.0
H2505 H 0.15842 0.68261 0.981 0.0
H2506 H 0.16094 0.65439 0.99451 0.0
H2507 H 0.21448 0.6055 0.07714 0.0
H2508 H 0.21215 0.60267 0.04222 0.0
H2509 H 0.16433 0.62672 0.04373 0.0
H2510 H 0.16668 0.62991 0.07852 0.0
H2511 H 0.18385 0.64173 0.01935 0.0
H2512 H 0.16833 0.58518 0.03014 0.0
H2513 H 0.17028 0.55664 0.04272 0.0
H2514 H 0.2175 0.55046 0.01501 0.0
H2515 H 0.21583 0.57898 0.00222 0.0
C2516 C 0.17928 0.63043 0.92714 0.0
C2517 C 0.19347 0.62498 0.91721 0.0
C2518 C 0.17783 0.62795 0.94696 0.0
C2519 C 0.19069 0.62031 0.95732 0.0
C2520 C 0.20467 0.61444 0.94738 0.0
C2521 C 0.20603 0.6167 0.92748 0.0
C2522 C 0.18981 0.61892 0.97859 0.0
C2523 C 0.1918 0.60327 0.98719 0.0
C2524 C 0.18678 0.63292 0.99037 0.0
C2525 C 0.18531 0.64993 0.98236 0.0
C2526 C 0.19818 0.65678 0.97123 0.0
C2527 C 0.19661 0.67275 0.96357 0.0
C2528 C 0.18228 0.68204 0.96707 0.0
C2529 C 0.1695 0.67539 0.97828 0.0
C2530 C 0.171 0.65942 0.98596 0.0
C2531 C 0.20332 0.60992 0.0701 0.0
C2532 C 0.19089 0.61818 0.0806 0.0
C2533 C 0.20197 0.60819 0.05012 0.0
C2534 C 0.18806 0.6145 0.04034 0.0
C2535 C 0.17521 0.62185 0.05096 0.0
C2536 C 0.1766 0.62369 0.07087 0.0
C2537 C 0.1878 0.61528 0.019 0.0
C2538 C 0.1857 0.63088 0.01035 0.0
C2539 C 0.19072 0.60124 0.00725 0.0
C2540 C 0.19201 0.58427 0.01537 0.0
C2541 C 0.17921 0.57779 0.02689 0.0
C2542 C 0.18023 0.56159 0.03399 0.0
C2543 C 0.19402 0.55175 0.02971 0.0
C2544 C 0.20682 0.55809 0.01831 0.0
C2545 C 0.20582 0.57426 0.01108 0.0
H2546 H 0.19478 0.5392 0.03521 0.0
H2547 H 0.18108 0.6944 0.96112 0.0
H2548 H 0.36061 0.17286 0.07324 0.0
H2549 H 0.3645 0.17182 0.03847 0.0
H2550 H 0.39741 0.21395 0.04146 0.0
H2551 H 0.39353 0.21522 0.07636 0.0
H2552 H 0.37337 0.2178 0.0143 0.0
H2553 H 0.41286 0.17613 0.03174 0.0
H2554 H 0.42299 0.15089 0.04801 0.0
H2555 H 0.38694 0.1216 0.01771 0.0
H2556 H 0.37642 0.14671 0.00145 0.0
H2557 H 0.39491 0.21425 0.9159 0.0
H2558 H 0.39784 0.21292 0.95083 0.0
H2559 H 0.36317 0.1722 0.95293 0.0
H2560 H 0.36012 0.17335 0.91794 0.0
H2561 H 0.39041 0.16788 0.97745 0.0
H2562 H 0.34928 0.20913 0.96258 0.0
H2563 H 0.33833 0.23401 0.94626 0.0
H2564 H 0.37662 0.26369 0.97201 0.0
H2565 H 0.38795 0.2389 0.98827 0.0
C2566 C 0.36879 0.18186 0.06659 0.0
C2567 C 0.37667 0.1942 0.07762 0.0
C2568 C 0.37108 0.18116 0.0467 0.0
C2569 C 0.38133 0.19273 0.03744 0.0
C2570 C 0.38947 0.20489 0.04839 0.0
C2571 C 0.38724 0.20557 0.06832 0.0
C2572 C 0.38262 0.19277 0.01619 0.0
C2573 C 0.37743 0.20701 0.00625 0.0
C2574 C 0.38746 0.17849 0.00574 0.0
C2575 C 0.39376 0.16335 0.01549 0.0
C2576 C 0.40699 0.16433 0.02866 0.0
C2577 C 0.41282 0.15004 0.03786 0.0
C2578 C 0.40559 0.13466 0.03392 0.0
C2579 C 0.39252 0.13353 0.02075 0.0
C2580 C 0.38664 0.14779 0.01152 0.0
C2581 C 0.38798 0.20491 0.92372 0.0
C2582 C 0.37712 0.19402 0.91411 0.0
C2583 C 0.38969 0.20419 0.94369 0.0
C2584 C 0.38059 0.19258 0.95441 0.0
C2585 C 0.37027 0.18125 0.94486 0.0
C2586 C 0.36849 0.182 0.92487 0.0
C2587 C 0.38113 0.19289 0.97567 0.0
C2588 C 0.38657 0.17872 0.98556 0.0
C2589 C 0.37641 0.20718 0.98612 0.0
C2590 C 0.36957 0.22213 0.97647 0.0
C2591 C 0.35545 0.22093 0.96463 0.0
C2592 C 0.34916 0.23502 0.95541 0.0
C2593 C 0.3568 0.25041 0.95805 0.0
C2594 C 0.37073 0.25175 0.96996 0.0
C2595 C 0.37709 0.23769 0.97919 0.0
H2596 H 0.35191 0.26131 0.9509 0.0
H2597 H 0.41012 0.1236 0.04106 0.0
H2598 H 0.79147 0.39896 0.07938 0.0
H2599 H 0.79318 0.4028 0.04456 0.0
H2600 H 0.82515 0.36002 0.04022 0.0
H2601 H 0.82378 0.35623 0.07504 0.0
H2602 H 0.83521 0.38468 0.01638 0.0
H2603 H 0.78385 0.35657 0.03175 0.0
H2604 H 0.75698 0.35339 0.04839 0.0
H2605 H 0.73972 0.3989 0.02317 0.0
H2606 H 0.76658 0.40244 0.00657 0.0
H2607 H 0.82264 0.35658 0.92135 0.0
H2608 H 0.82458 0.3605 0.95604 0.0
H2609 H 0.79125 0.40229 0.95238 0.0
H2610 H 0.78896 0.39829 0.9176 0.0
H2611 H 0.78213 0.3817 0.98026 0.0
H2612 H 0.83282 0.40783 0.96156 0.0
H2613 H 0.85968 0.41035 0.94481 0.0
H2614 H 0.87837 0.36825 0.97592 0.0
H2615 H 0.85154 0.36532 0.99266 0.0
C2616 C 0.79897 0.39042 0.07106 0.0
C2617 C 0.80732 0.37715 0.07999 0.0
C2618 C 0.79993 0.39265 0.05116 0.0
C2619 C 0.80909 0.38154 0.03981 0.0
C2620 C 0.818 0.36872 0.04874 0.0
C2621 C 0.81713 0.36653 0.06865 0.0
C2622 C 0.80863 0.38263 0.01855 0.0
C2623 C 0.82363 0.38394 0.00843 0.0
C2624 C 0.79347 0.38206 0.00828 0.0
C2625 C 0.77727 0.37985 0.01809 0.0
C2626 C 0.77436 0.36595 0.02986 0.0
C2627 C 0.75913 0.36407 0.03927 0.0
C2628 C 0.74667 0.37596 0.03688 0.0
C2629 C 0.7494 0.38972 0.02503 0.0
C2630 C 0.76461 0.39166 0.01561 0.0
C2631 C 0.8158 0.3667 0.92784 0.0
C2632 C 0.80559 0.37708 0.91666 0.0
C2633 C 0.81702 0.36899 0.9477 0.0
C2634 C 0.80823 0.38182 0.95675 0.0
C2635 C 0.79818 0.39234 0.94564 0.0
C2636 C 0.79688 0.39002 0.92577 0.0
C2637 C 0.80875 0.38354 0.97797 0.0
C2638 C 0.79372 0.38272 0.98813 0.0
C2639 C 0.8239 0.3845 0.98824 0.0
C2640 C 0.84011 0.38629 0.97827 0.0
C2641 C 0.84261 0.39903 0.96473 0.0
C2642 C 0.85784 0.40055 0.95526 0.0
C2643 C 0.87071 0.38945 0.95927 0.0
C2644 C 0.86839 0.37683 0.97282 0.0
C2645 C 0.85318 0.37525 0.98233 0.0
H2646 H 0.88249 0.39064 0.95191 0.0
H2647 H 0.7349 0.37449 0.04418 0.0
H2648 H 0.60318 0.21098 0.07622 0.0
H2649 H 0.59882 0.20921 0.04143 0.0
H2650 H 0.64182 0.17763 0.0363 0.0
H2651 H 0.64612 0.17904 0.07096 0.0
H2652 H 0.6183 0.21927 0.01285 0.0
H2653 H 0.63734 0.15056 2e-05 0.0
H2654 H 0.63565 0.12362 0.01677 0.0
H2655 H 0.59333 0.14066 0.04868 0.0
H2656 H 0.5946 0.16762 0.03194 0.0
H2657 H 0.64523 0.17764 0.91849 0.0
H2658 H 0.64141 0.17685 0.9533 0.0
H2659 H 0.59781 0.2076 0.94797 0.0
H2660 H 0.6017 0.20876 0.91309 0.0
H2661 H 0.6172 0.16617 0.97672 0.0
H2662 H 0.59639 0.23375 0.98665 0.0
H2663 H 0.59849 0.26078 0.97008 0.0
H2664 H 0.64471 0.2459 0.94461 0.0
H2665 H 0.64298 0.21889 0.96121 0.0
C2666 C 0.61167 0.20358 0.06771 0.0
C2667 C 0.62501 0.19514 0.07642 0.0
C2668 C 0.60914 0.20259 0.04783 0.0
C2669 C 0.61985 0.19311 0.03631 0.0
C2670 C 0.63317 0.18472 0.04495 0.0
C2671 C 0.63567 0.18563 0.0648 0.0
C2672 C 0.61769 0.1926 0.01513 0.0
C2673 C 0.61769 0.20766 0.00497 0.0
C2674 C 0.61718 0.17745 0.00485 0.0
C2675 C 0.61616 0.16117 0.01481 0.0
C2676 C 0.62761 0.14853 0.01054 0.0
C2677 C 0.62674 0.13326 0.02005 0.0
C2678 C 0.61442 0.13044 0.03381 0.0
C2679 C 0.6029 0.14288 0.03806 0.0
C2680 C 0.60371 0.15817 0.02858 0.0
C2681 C 0.63476 0.18418 0.92466 0.0
C2682 C 0.62389 0.19343 0.91299 0.0
C2683 C 0.63256 0.18365 0.94458 0.0
C2684 C 0.61946 0.19233 0.95324 0.0
C2685 C 0.60818 0.20104 0.9416 0.0
C2686 C 0.61042 0.20168 0.92166 0.0
C2687 C 0.61816 0.19281 0.97451 0.0
C2688 C 0.61752 0.17776 0.98465 0.0
C2689 C 0.61811 0.20796 0.9848 0.0
C2690 C 0.61944 0.22425 0.97499 0.0
C2691 C 0.60702 0.23628 0.97755 0.0
C2692 C 0.60815 0.25159 0.96816 0.0
C2693 C 0.62169 0.25503 0.95624 0.0
C2694 C 0.63419 0.2432 0.95378 0.0
C2695 C 0.63314 0.22788 0.96316 0.0
H2696 H 0.62253 0.26688 0.94896 0.0
H2697 H 0.61378 0.11862 0.04117 0.0
H2698 H 0.78304 0.60792 0.07597 0.0
H2699 H 0.78572 0.60413 0.04123 0.0
H2700 H 0.83272 0.6298 0.04223 0.0
H2701 H 0.82993 0.63404 0.07684 0.0
H2702 H 0.81391 0.6423 0.01568 0.0
H2703 H 0.83028 0.58716 0.0324 0.0
H2704 H 0.82824 0.56004 0.04862 0.0
H2705 H 0.78162 0.55079 0.02061 0.0
H2706 H 0.78342 0.57789 0.00415 0.0
H2707 H 0.83133 0.6312 0.91791 0.0
H2708 H 0.83358 0.62735 0.95265 0.0
H2709 H 0.78477 0.60537 0.95382 0.0
H2710 H 0.78256 0.60878 0.91889 0.0
H2711 H 0.8059 0.59002 0.97913 0.0
H2712 H 0.78982 0.64637 0.96347 0.0
H2713 H 0.79301 0.67332 0.94703 0.0
H2714 H 0.84055 0.68013 0.97387 0.0
H2715 H 0.83773 0.65311 0.99027 0.0
C2716 C 0.79404 0.61261 0.06884 0.0
C2717 C 0.80618 0.62146 0.07916 0.0
C2718 C 0.79561 0.61031 0.04898 0.0
C2719 C 0.80948 0.61659 0.03912 0.0
C2720 C 0.82189 0.62489 0.04952 0.0
C2721 C 0.82025 0.62734 0.06931 0.0
C2722 C 0.81033 0.61585 0.0178 0.0
C2723 C 0.81248 0.6308 0.00774 0.0
C2724 C 0.80806 0.60093 0.00739 0.0
C2725 C 0.80691 0.58462 0.01719 0.0
C2726 C 0.81954 0.57939 0.0298 0.0
C2727 C 0.81844 0.56401 0.03901 0.0
C2728 C 0.80475 0.55373 0.03575 0.0
C2729 C 0.7922 0.55878 0.02315 0.0
C2730 C 0.79328 0.57412 0.01382 0.0
C2731 C 0.82111 0.62541 0.9255 0.0
C2732 C 0.80663 0.62057 0.91567 0.0
C2733 C 0.82243 0.6232 0.94536 0.0
C2734 C 0.8092 0.6164 0.95584 0.0
C2735 C 0.79509 0.61072 0.94598 0.0
C2736 C 0.79383 0.61275 0.92604 0.0
C2737 C 0.80954 0.61645 0.97716 0.0
C2738 C 0.80751 0.60145 0.98717 0.0
C2739 C 0.81203 0.63131 0.98761 0.0
C2740 C 0.81362 0.64766 0.97796 0.0
C2741 C 0.80099 0.65358 0.96578 0.0
C2742 C 0.80273 0.66887 0.95648 0.0
C2743 C 0.81699 0.67842 0.95937 0.0
C2744 C 0.82952 0.67272 0.97162 0.0
C2745 C 0.82785 0.65742 0.98094 0.0
H2746 H 0.81832 0.69025 0.95215 0.0
H2747 H 0.8039 0.54184 0.04295 0.0
H2748 H 0.39935 0.78864 0.91564 0.0
H2749 H 0.40314 0.79148 0.95042 0.0
H2750 H 0.35677 0.81807 0.95434 0.0
H2751 H 0.3531 0.81569 0.9196 0.0
H2752 H 0.37969 0.83243 0.97621 0.0
H2753 H 0.36015 0.77607 0.96587 0.0
H2754 H 0.36158 0.74808 0.95159 0.0
H2755 H 0.40972 0.74072 0.97676 0.0
H2756 H 0.40863 0.76875 0.99102 0.0
H2757 H 0.35441 0.82206 0.07251 0.0
H2758 H 0.35816 0.82272 0.03771 0.0
H2759 H 0.4038 0.79514 0.04345 0.0
H2760 H 0.39991 0.79401 0.07832 0.0
H2761 H 0.38545 0.78197 0.01661 0.0
H2762 H 0.40342 0.83701 0.03055 0.0
H2763 H 0.40202 0.86495 0.04489 0.0
H2764 H 0.35741 0.87513 0.01317 0.0
H2765 H 0.35841 0.84716 -0.00117 0.0
C2766 C 0.38995 0.79507 0.92391 0.0
C2767 C 0.37586 0.80184 0.91487 0.0
C2768 C 0.39214 0.79669 0.94379 0.0
C2769 C 0.38014 0.80482 0.955 0.0
C2770 C 0.3662 0.81177 0.94596 0.0
C2771 C 0.36409 0.81033 0.9261 0.0
C2772 C 0.38177 0.80579 0.97622 0.0
C2773 C 0.38084 0.82141 0.98509 0.0
C2774 C 0.38381 0.79144 0.98773 0.0
C2775 C 0.38438 0.77454 0.97934 0.0
C2776 C 0.37107 0.76851 0.96826 0.0
C2777 C 0.37182 0.75264 0.96019 0.0
C2778 C 0.38575 0.74264 0.96322 0.0
C2779 C 0.39895 0.74848 0.9744 0.0
C2780 C 0.39826 0.76434 0.98249 0.0
C2781 C 0.36536 0.81629 0.06642 0.0
C2782 C 0.37683 0.80793 0.0782 0.0
C2783 C 0.36753 0.81676 0.0465 0.0
C2784 C 0.38137 0.80915 0.03797 0.0
C2785 C 0.39304 0.8011 0.04972 0.0
C2786 C 0.39079 0.80047 0.06965 0.0
C2787 C 0.38299 0.80861 0.01671 0.0
C2788 C 0.38454 0.79306 0.0078 0.0
C2789 C 0.38154 0.82304 0.00519 0.0
C2790 C 0.38094 0.83992 0.01371 0.0
C2791 C 0.39325 0.84516 0.02673 0.0
C2792 C 0.39254 0.86101 0.03484 0.0
C2793 C 0.37962 0.8718 0.02997 0.0
C2794 C 0.36741 0.86676 0.01693 0.0
C2795 C 0.36806 0.85091 0.00879 0.0
H2796 H 0.37909 0.88407 0.03627 0.0
H2797 H 0.38631 0.73037 0.95695 0.0
H2798 H 0.20409 0.40223 0.91151 0.0
H2799 H 0.20153 0.40775 0.94602 0.0
H2800 H 0.18032 0.35911 0.95443 0.0
H2801 H 0.18231 0.35372 0.92 0.0
H2802 H 0.1646 0.38109 0.97591 0.0
H2803 H 0.22291 0.36811 0.9624 0.0
H2804 H 0.2496 0.37314 0.94596 0.0
H2805 H 0.25103 0.42264 0.96879 0.0
H2806 H 0.22428 0.41792 0.98523 0.0
H2807 H 0.1821 0.35507 0.06946 0.0
H2808 H 0.17986 0.35989 0.03498 0.0
H2809 H 0.20312 0.40779 0.0417 0.0
H2810 H 0.20596 0.40277 0.07633 0.0
H2811 H 0.21617 0.3926 0.0126 0.0
H2812 H 0.16055 0.40359 0.03135 0.0
H2813 H 0.13387 0.39875 0.0478 0.0
H2814 H 0.12672 0.35402 0.01529 0.0
H2815 H 0.15347 0.35845 -0.00118 0.0
C2816 C 0.19881 0.39274 0.92071 0.0
C2817 C 0.19354 0.37747 0.91304 0.0
C2818 C 0.19737 0.39592 0.94043 0.0
C2819 C 0.19096 0.38375 0.95285 0.0
C2820 C 0.18528 0.36869 0.94512 0.0
C2821 C 0.18649 0.36561 0.92543 0.0
C2822 C 0.19079 0.38615 0.974 0.0
C2823 C 0.17587 0.38355 0.98398 0.0
C2824 C 0.20536 0.39003 0.98446 0.0
C2825 C 0.22156 0.39272 0.97488 0.0
C2826 C 0.22891 0.38008 0.96385 0.0
C2827 C 0.24404 0.38287 0.95454 0.0
C2828 C 0.25199 0.39821 0.95629 0.0
C2829 C 0.24486 0.41077 0.96743 0.0
C2830 C 0.22973 0.40804 0.97676 0.0
C2831 C 0.18663 0.3667 0.06367 0.0
C2832 C 0.19419 0.37855 0.07564 0.0
C2833 C 0.18523 0.3695 0.04393 0.0
C2834 C 0.191 0.38436 0.03577 0.0
C2835 C 0.19849 0.39627 0.04769 0.0
C2836 C 0.20012 0.39337 0.06746 0.0
C2837 C 0.19008 0.38686 0.01463 0.0
C2838 C 0.20479 0.39046 0.00463 0.0
C2839 C 0.17528 0.38397 0.00415 0.0
C2840 C 0.15907 0.38133 0.0139 0.0
C2841 C 0.15333 0.39267 0.02777 0.0
C2842 C 0.13819 0.39 0.0371 0.0
C2843 C 0.12862 0.37608 0.03261 0.0
C2844 C 0.13415 0.3648 0.01875 0.0
C2845 C 0.14929 0.36741 0.00938 0.0
H2846 H 0.1169 0.37403 0.03986 0.0
H2847 H 0.26369 0.40036 0.94905 0.0
H2848 H 0.21039 0.37846 0.19883 0.0
H2849 H 0.19859 0.36408 0.22671 0.0
H2850 H 0.16189 0.34122 0.19003 0.0
H2851 H 0.17337 0.35579 0.16224 0.0
H2852 H 0.14784 0.35283 0.2215 0.0
H2853 H 0.19499 0.31937 0.20701 0.0
H2854 H 0.22444 0.31343 0.20032 0.0
H2855 H 0.23779 0.33107 0.25657 0.0
H2856 H 0.20843 0.3374 0.26348 0.0
H2857 H 0.11994 0.29311 0.28992 0.0
H2858 H 0.13345 0.3046 0.26123 0.0
H2859 H 0.16492 0.33475 0.29726 0.0
H2860 H 0.15135 0.32354 0.32596 0.0
H2861 H 0.18168 0.31826 0.26578 0.0
H2862 H 0.13384 0.3528 0.27882 0.0
H2863 H 0.10411 0.35787 0.28482 0.0
H2864 H 0.09194 0.33652 0.22996 0.0
H2865 H 0.12161 0.33109 0.22376 0.0
C2866 C 0.19982 0.37035 0.19673 0.0
C2867 C 0.1928 0.36823 0.17838 0.0
C2868 C 0.19315 0.36208 0.21264 0.0
C2869 C 0.17947 0.35144 0.21039 0.0
C2870 C 0.17244 0.34936 0.19207 0.0
C2871 C 0.17905 0.35767 0.17621 0.0
C2872 C 0.17216 0.34281 0.2272 0.0
C2873 C 0.15521 0.34507 0.231 0.0
C2874 C 0.18183 0.33287 0.23975 0.0
C2875 C 0.19951 0.32902 0.23569 0.0
C2876 C 0.20421 0.32212 0.2179 0.0
C2877 C 0.22089 0.31866 0.21407 0.0
C2878 C 0.23298 0.32191 0.228 0.0
C2879 C 0.22841 0.32859 0.24579 0.0
C2880 C 0.21175 0.3321 0.24967 0.0
C2881 C 0.1298 0.30212 0.29171 0.0
C2882 C 0.13454 0.30753 0.31013 0.0
C2883 C 0.13749 0.30865 0.27535 0.0
C2884 C 0.15011 0.32053 0.27721 0.0
C2885 C 0.15521 0.32556 0.29559 0.0
C2886 C 0.14739 0.31921 0.31194 0.0
C2887 C 0.15745 0.32837 0.25998 0.0
C2888 C 0.17437 0.32596 0.25616 0.0
C2889 C 0.14774 0.33803 0.24727 0.0
C2890 C 0.12992 0.34137 0.25093 0.0
C2891 C 0.12481 0.34905 0.26811 0.0
C2892 C 0.10797 0.35202 0.27153 0.0
C2893 C 0.09613 0.34748 0.2578 0.0
C2894 C 0.10112 0.34 0.2406 0.0
C2895 C 0.11794 0.33698 0.23712 0.0
H2896 H 0.0831 0.34979 0.26047 0.0
H2897 H 0.24589 0.31922 0.22502 0.0
H2898 H 0.61798 0.20252 0.20044 0.0
H2899 H 0.63164 0.18991 0.2283 0.0
H2900 H 0.66358 0.16205 0.19032 0.0
H2901 H 0.64954 0.1741 0.16248 0.0
H2902 H 0.65312 0.14287 0.21789 0.0
H2903 H 0.67678 0.19748 0.21513 0.0
H2904 H 0.67588 0.22803 0.21365 0.0
H2905 H 0.65104 0.22952 0.26832 0.0
H2906 H 0.6515 0.19895 0.26996 0.0
H2907 H 0.71029 0.11793 0.29068 0.0
H2908 H 0.69838 0.1312 0.26209 0.0
H2909 H 0.66249 0.15631 0.29779 0.0
H2910 H 0.67436 0.14321 0.32638 0.0
H2911 H 0.67612 0.17703 0.27098 0.0
H2912 H 0.6514 0.12252 0.27276 0.0
H2913 H 0.65173 0.09194 0.27393 0.0
H2914 H 0.67897 0.09049 0.22082 0.0
H2915 H 0.679 0.12109 0.21948 0.0
C2916 C 0.62792 0.19372 0.19806 0.0
C2917 C 0.63274 0.18933 0.17932 0.0
C2918 C 0.63578 0.18658 0.21398 0.0
C2919 C 0.64883 0.17523 0.2114 0.0
C2920 C 0.65357 0.17079 0.19266 0.0
C2921 C 0.64557 0.17773 0.17676 0.0
C2922 C 0.65737 0.16773 0.22821 0.0
C2923 C 0.65838 0.15037 0.22933 0.0
C2924 C 0.66397 0.17749 0.24334 0.0
C2925 C 0.66405 0.19591 0.24258 0.0
C2926 C 0.67105 0.20432 0.22679 0.0
C2927 C 0.67061 0.22164 0.22592 0.0
C2928 C 0.66336 0.23071 0.24086 0.0
C2929 C 0.65662 0.22247 0.25675 0.0
C2930 C 0.65697 0.20515 0.25766 0.0
C2931 C 0.69987 0.12629 0.29242 0.0
C2932 C 0.6932 0.12948 0.31073 0.0
C2933 C 0.69307 0.13383 0.27609 0.0
C2934 C 0.67948 0.14463 0.27784 0.0
C2935 C 0.67298 0.14802 0.29615 0.0
C2936 C 0.67974 0.14047 0.31245 0.0
C2937 C 0.6718 0.15223 0.2606 0.0
C2938 C 0.67095 0.16959 0.25943 0.0
C2939 C 0.66542 0.14249 0.24538 0.0
C2940 C 0.66535 0.12409 0.24613 0.0
C2941 C 0.65757 0.11568 0.26141 0.0
C2942 C 0.65768 0.09835 0.26209 0.0
C2943 C 0.66541 0.08928 0.24749 0.0
C2944 C 0.67301 0.09753 0.23214 0.0
C2945 C 0.67296 0.11487 0.23141 0.0
H2946 H 0.66547 0.07585 0.24804 0.0
H2947 H 0.66296 0.24411 0.24016 0.0
H2948 H 0.79435 0.61694 0.20252 0.0
H2949 H 0.80685 0.63049 0.23052 0.0
H2950 H 0.83263 0.66448 0.19287 0.0
H2951 H 0.82085 0.65045 0.16493 0.0
H2952 H 0.85272 0.65498 0.21905 0.0
H2953 H 0.79716 0.67484 0.21919 0.0
H2954 H 0.76675 0.67239 0.21849 0.0
H2955 H 0.76752 0.64725 0.27303 0.0
H2956 H 0.79809 0.64896 0.27369 0.0
H2957 H 0.87642 0.71118 0.29335 0.0
H2958 H 0.86264 0.69964 0.26489 0.0
H2959 H 0.84196 0.6604 0.29969 0.0
H2960 H 0.85555 0.67189 0.32816 0.0
H2961 H 0.81906 0.67387 0.27468 0.0
H2962 H 0.87566 0.65327 0.27232 0.0
H2963 H 0.90612 0.6564 0.27169 0.0
H2964 H 0.90259 0.6857 0.22018 0.0
H2965 H 0.87209 0.68292 0.22065 0.0
C2966 C 0.80266 0.62732 0.20027 0.0
C2967 C 0.80661 0.63268 0.18159 0.0
C2968 C 0.80974 0.63511 0.21626 0.0
C2969 C 0.82051 0.64868 0.21383 0.0
C2970 C 0.82439 0.65404 0.19513 0.0
C2971 C 0.81759 0.64605 0.17917 0.0
C2972 C 0.82801 0.65714 0.2307 0.0
C2973 C 0.8453 0.65932 0.23106 0.0
C2974 C 0.81837 0.66266 0.24652 0.0
C2975 C 0.79996 0.66189 0.2464 0.0
C2976 C 0.79087 0.66867 0.23098 0.0
C2977 C 0.77359 0.66742 0.23059 0.0
C2978 C 0.76517 0.65972 0.24574 0.0
C2979 C 0.77405 0.65321 0.2613 0.0
C2980 C 0.79137 0.65428 0.26166 0.0
C2981 C 0.86892 0.70011 0.29492 0.0
C2982 C 0.86713 0.69237 0.31293 0.0
C2983 C 0.86108 0.69353 0.27867 0.0
C2984 C 0.85141 0.6791 0.28019 0.0
C2985 C 0.84937 0.67155 0.29823 0.0
C2986 C 0.8572 0.6781 0.31446 0.0
C2987 C 0.84368 0.67157 0.26295 0.0
C2988 C 0.82639 0.66957 0.26256 0.0
C2989 C 0.85326 0.66647 0.24696 0.0
C2990 C 0.8716 0.66802 0.24663 0.0
C2991 C 0.88138 0.66048 0.26094 0.0
C2992 C 0.89865 0.66218 0.2606 0.0
C2993 C 0.90628 0.67128 0.24594 0.0
C2994 C 0.89666 0.67867 0.23155 0.0
C2995 C 0.87939 0.67703 0.23183 0.0
H2996 H 0.91965 0.67258 0.2457 0.0
H2997 H 0.75177 0.6588 0.24543 0.0
H2998 H 0.3808 0.79216 0.20166 0.0
H2999 H 0.36741 0.80375 0.23037 0.0
H3000 H 0.34012 0.83803 0.19467 0.0
H3001 H 0.35348 0.82665 0.166 0.0
H3002 H 0.36807 0.83697 0.24342 0.0
H3003 H 0.30093 0.84153 0.21459 0.0
H3004 H 0.28282 0.82715 0.19131 0.0
H3005 H 0.31043 0.78211 0.1994 0.0
H3006 H 0.32851 0.79613 0.22297 0.0
H3007 H 0.29237 0.88088 0.29187 0.0
H3008 H 0.30522 0.86756 0.26389 0.0
H3009 H 0.33704 0.83932 0.30168 0.0
H3010 H 0.3247 0.85297 0.32954 0.0
H3011 H 0.30693 0.83648 0.25209 0.0
H3012 H 0.3742 0.83279 0.28131 0.0
H3013 H 0.39271 0.84816 0.3033 0.0
H3014 H 0.36516 0.89288 0.29287 0.0
H3015 H 0.34663 0.87784 0.27065 0.0
C3016 C 0.37192 0.80215 0.19995 0.0
C3017 C 0.36816 0.80851 0.18162 0.0
C3018 C 0.36434 0.80876 0.21634 0.0
C3019 C 0.35272 0.82163 0.21457 0.0
C3020 C 0.34893 0.82798 0.19628 0.0
C3021 C 0.35662 0.82149 0.17994 0.0
C3022 C 0.34471 0.82871 0.23184 0.0
C3023 C 0.35473 0.83665 0.24552 0.0
C3024 C 0.32728 0.82864 0.23418 0.0
C3025 C 0.31618 0.81995 0.22041 0.0
C3026 C 0.30308 0.82853 0.21149 0.0
C3027 C 0.29282 0.82044 0.19823 0.0
C3028 C 0.29551 0.80374 0.19383 0.0
C3029 C 0.3084 0.79506 0.20276 0.0
C3030 C 0.31867 0.80308 0.21606 0.0
C3031 C 0.30215 0.87187 0.29417 0.0
C3032 C 0.30764 0.86806 0.31285 0.0
C3033 C 0.30943 0.86423 0.2782 0.0
C3034 C 0.32225 0.85261 0.28068 0.0
C3035 C 0.32743 0.84851 0.29939 0.0
C3036 C 0.32031 0.85628 0.31531 0.0
C3037 C 0.33028 0.84484 0.26373 0.0
C3038 C 0.32028 0.83677 0.25008 0.0
C3039 C 0.34774 0.84491 0.26131 0.0
C3040 C 0.35893 0.85413 0.27448 0.0
C3041 C 0.37214 0.84592 0.28366 0.0
C3042 C 0.38262 0.85457 0.29617 0.0
C3043 C 0.38008 0.87147 0.29953 0.0
C3044 C 0.36708 0.87978 0.29032 0.0
C3045 C 0.35657 0.87119 0.27779 0.0
H3046 H 0.3882 0.87814 0.30923 0.0
H3047 H 0.28758 0.79751 0.18353 0.0
H3048 H 0.20745 0.62565 0.79479 0.0
H3049 H 0.19465 0.63961 0.76717 0.0
H3050 H 0.15379 0.65511 0.80304 0.0
H3051 H 0.16654 0.64128 0.83071 0.0
H3052 H 0.1434 0.64264 0.76807 0.0
H3053 H 0.18108 0.68248 0.79225 0.0
H3054 H 0.20784 0.69301 0.80429 0.0
H3055 H 0.23023 0.68365 0.74927 0.0
H3056 H 0.20365 0.6727 0.73699 0.0
H3057 H 0.11259 0.7049 0.70296 0.0
H3058 H 0.12522 0.69276 0.73189 0.0
H3059 H 0.16173 0.66813 0.69667 0.0
H3060 H 0.14893 0.67979 0.66769 0.0
H3061 H 0.17378 0.68646 0.73221 0.0
H3062 H 0.1343 0.64509 0.70967 0.0
H3063 H 0.10653 0.63571 0.69944 0.0
H3064 H 0.08631 0.65051 0.754 0.0
H3065 H 0.11395 0.66022 0.76443 0.0
C3066 C 0.19572 0.632 0.79676 0.0
C3067 C 0.18799 0.63242 0.81487 0.0
C3068 C 0.18846 0.64 0.78102 0.0
C3069 C 0.17333 0.64845 0.78314 0.0
C3070 C 0.16546 0.64864 0.80114 0.0
C3071 C 0.17279 0.64079 0.81691 0.0
C3072 C 0.16579 0.6572 0.76659 0.0
C3073 C 0.14996 0.65235 0.76038 0.0
C3074 C 0.17439 0.66986 0.75658 0.0
C3075 C 0.1904 0.67657 0.76376 0.0
C3076 C 0.19174 0.6825 0.78276 0.0
C3077 C 0.20687 0.68856 0.78963 0.0
C3078 C 0.22074 0.68893 0.77759 0.0
C3079 C 0.21949 0.68329 0.75861 0.0
C3080 C 0.20438 0.67716 0.75168 0.0
C3081 C 0.12333 0.69692 0.70141 0.0
C3082 C 0.12974 0.69321 0.6831 0.0
C3083 C 0.13051 0.69004 0.7179 0.0
C3084 C 0.14438 0.67961 0.71631 0.0
C3085 C 0.15106 0.67621 0.69811 0.0
C3086 C 0.14368 0.68281 0.6816 0.0
C3087 C 0.15154 0.67168 0.73359 0.0
C3088 C 0.16727 0.67674 0.73995 0.0
C3089 C 0.14272 0.65944 0.74396 0.0
C3090 C 0.12614 0.65356 0.73773 0.0
C3091 C 0.1239 0.6465 0.7194 0.0
C3092 C 0.10819 0.64109 0.71359 0.0
C3093 C 0.09465 0.64257 0.72604 0.0
C3094 C 0.0968 0.64941 0.74436 0.0
C3095 C 0.11248 0.65486 0.75023 0.0
H3096 H 0.0825 0.63836 0.72151 0.0
H3097 H 0.23241 0.69365 0.78298 0.0
H3098 H 0.29862 0.11563 0.70069 0.0
H3099 H 0.31127 0.1292 0.72857 0.0
H3100 H 0.33537 0.16433 0.69086 0.0
H3101 H 0.32338 0.15038 0.66298 0.0
H3102 H 0.35617 0.15485 0.71681 0.0
H3103 H 0.29998 0.17416 0.71804 0.0
H3104 H 0.2695 0.17145 0.71813 0.0
H3105 H 0.27176 0.14437 0.77134 0.0
H3106 H 0.30229 0.14669 0.77142 0.0
H3107 H 0.37941 0.21101 0.7913 0.0
H3108 H 0.36602 0.19921 0.76274 0.0
H3109 H 0.34494 0.16024 0.79765 0.0
H3110 H 0.35805 0.17205 0.82622 0.0
H3111 H 0.32239 0.17291 0.77271 0.0
H3112 H 0.37917 0.15327 0.77016 0.0
H3113 H 0.40959 0.1567 0.76952 0.0
H3114 H 0.40577 0.18591 0.71797 0.0
H3115 H 0.3753 0.18283 0.71844 0.0
C3116 C 0.30663 0.12624 0.69839 0.0
C3117 C 0.30997 0.132 0.67971 0.0
C3118 C 0.31377 0.13405 0.71431 0.0
C3119 C 0.32405 0.14797 0.71182 0.0
C3120 C 0.32747 0.15364 0.69313 0.0
C3121 C 0.32056 0.14567 0.67721 0.0
C3122 C 0.33149 0.15651 0.72864 0.0
C3123 C 0.34873 0.15902 0.72889 0.0
C3124 C 0.32183 0.16174 0.74455 0.0
C3125 C 0.30344 0.16048 0.74464 0.0
C3126 C 0.29399 0.16753 0.7297 0.0
C3127 C 0.2767 0.16608 0.72973 0.0
C3128 C 0.2687 0.15772 0.74471 0.0
C3129 C 0.27797 0.15083 0.75973 0.0
C3130 C 0.29527 0.15222 0.75975 0.0
C3131 C 0.37191 0.19993 0.79286 0.0
C3132 C 0.36983 0.19239 0.81094 0.0
C3133 C 0.3643 0.1932 0.77656 0.0
C3134 C 0.35463 0.17876 0.77809 0.0
C3135 C 0.35235 0.17138 0.79618 0.0
C3136 C 0.35991 0.17812 0.81246 0.0
C3137 C 0.34702 0.17114 0.76085 0.0
C3138 C 0.32976 0.1688 0.76054 0.0
C3139 C 0.35663 0.16622 0.7448 0.0
C3140 C 0.37495 0.16796 0.74444 0.0
C3141 C 0.38481 0.16052 0.75876 0.0
C3142 C 0.40206 0.16239 0.75842 0.0
C3143 C 0.4096 0.17155 0.74374 0.0
C3144 C 0.39991 0.17883 0.72934 0.0
C3145 C 0.38265 0.17702 0.72963 0.0
H3146 H 0.42296 0.17298 0.7435 0.0
H3147 H 0.25531 0.1566 0.74471 0.0
H3148 H 0.87635 0.29159 0.7027 0.0
H3149 H 0.86234 0.30377 0.73063 0.0
H3150 H 0.84163 0.34198 0.69429 0.0
H3151 H 0.85568 0.33001 0.66644 0.0
H3152 H 0.85443 0.35479 0.72674 0.0
H3153 H 0.81734 0.31095 0.7097 0.0
H3154 H 0.8092 0.28228 0.70172 0.0
H3155 H 0.82567 0.26578 0.75733 0.0
H3156 H 0.83402 0.29437 0.76562 0.0
H3157 H 0.79348 0.38446 0.79311 0.0
H3158 H 0.80544 0.371 0.76463 0.0
H3159 H 0.83359 0.33821 0.80129 0.0
H3160 H 0.82206 0.35181 0.82974 0.0
H3161 H 0.81622 0.32259 0.76855 0.0
H3162 H 0.85385 0.36723 0.78457 0.0
H3163 H 0.86108 0.39628 0.79187 0.0
H3164 H 0.84235 0.41154 0.73673 0.0
H3165 H 0.83476 0.38258 0.72923 0.0
C3166 C 0.86881 0.30258 0.7007 0.0
C3167 C 0.8671 0.30987 0.68243 0.0
C3168 C 0.86076 0.30947 0.71661 0.0
C3169 C 0.85085 0.32369 0.71445 0.0
C3170 C 0.84922 0.33101 0.69624 0.0
C3171 C 0.85722 0.32413 0.68035 0.0
C3172 C 0.84245 0.33119 0.73125 0.0
C3173 C 0.8459 0.34781 0.73571 0.0
C3174 C 0.83151 0.32198 0.74308 0.0
C3175 C 0.82647 0.30478 0.7382 0.0
C3176 C 0.81935 0.30119 0.72017 0.0
C3177 C 0.81468 0.28496 0.7156 0.0
C3178 C 0.817 0.2722 0.72896 0.0
C3179 C 0.82392 0.27567 0.74697 0.0
C3180 C 0.82859 0.2919 0.75164 0.0
C3181 C 0.80218 0.37436 0.79507 0.0
C3182 C 0.80691 0.36922 0.8136 0.0
C3183 C 0.80896 0.36669 0.77884 0.0
C3184 C 0.82035 0.35365 0.78097 0.0
C3185 C 0.82476 0.34823 0.79944 0.0
C3186 C 0.81823 0.35607 0.81564 0.0
C3187 C 0.82824 0.34612 0.76394 0.0
C3188 C 0.82471 0.32952 0.75948 0.0
C3189 C 0.83898 0.35537 0.75198 0.0
C3190 C 0.84355 0.37278 0.75644 0.0
C3191 C 0.85112 0.37681 0.77408 0.0
C3192 C 0.85531 0.39325 0.77824 0.0
C3193 C 0.85212 0.40576 0.7648 0.0
C3194 C 0.84478 0.40184 0.74714 0.0
C3195 C 0.84053 0.38541 0.74293 0.0
H3196 H 0.85539 0.41848 0.76804 0.0
H3197 H 0.81339 0.25964 0.72538 0.0
H3198 H 0.71032 0.87806 0.7014 0.0
H3199 H 0.6975 0.86498 0.72958 0.0
H3200 H 0.65808 0.84604 0.6937 0.0
H3201 H 0.67072 0.85913 0.66559 0.0
H3202 H 0.64609 0.8591 0.72651 0.0
H3203 H 0.68817 0.82061 0.70822 0.0
H3204 H 0.71634 0.81124 0.69965 0.0
H3205 H 0.73417 0.82598 0.75534 0.0
H3206 H 0.70611 0.83561 0.76419 0.0
H3207 H 0.61546 0.79721 0.79166 0.0
H3208 H 0.62871 0.8099 0.76345 0.0
H3209 H 0.66228 0.83653 0.80064 0.0
H3210 H 0.64888 0.82428 0.82886 0.0
H3211 H 0.67721 0.81914 0.76724 0.0
H3212 H 0.63386 0.85787 0.78457 0.0
H3213 H 0.60507 0.86587 0.79221 0.0
H3214 H 0.58906 0.84883 0.73665 0.0
H3215 H 0.61775 0.84048 0.72879 0.0
C3216 C 0.69889 0.87115 0.69956 0.0
C3217 C 0.69152 0.86958 0.68133 0.0
C3218 C 0.69164 0.86363 0.71563 0.0
C3219 C 0.67693 0.85442 0.71366 0.0
C3220 C 0.66944 0.85308 0.69551 0.0
C3221 C 0.6767 0.86053 0.67947 0.0
C3222 C 0.66928 0.84621 0.73052 0.0
C3223 C 0.65284 0.85023 0.73527 0.0
C3224 C 0.67817 0.83476 0.74204 0.0
C3225 C 0.69507 0.82902 0.73679 0.0
C3226 C 0.69813 0.822 0.71858 0.0
C3227 C 0.71407 0.81662 0.71368 0.0
C3228 C 0.72705 0.81809 0.72691 0.0
C3229 C 0.7241 0.82489 0.74509 0.0
C3230 C 0.70818 0.8303 0.75007 0.0
C3231 C 0.62567 0.80576 0.79379 0.0
C3232 C 0.63112 0.80981 0.81242 0.0
C3233 C 0.6332 0.81297 0.77771 0.0
C3234 C 0.64643 0.82411 0.78007 0.0
C3235 C 0.6521 0.82792 0.79861 0.0
C3236 C 0.64438 0.82096 0.81469 0.0
C3237 C 0.65411 0.83212 0.76318 0.0
C3238 C 0.67053 0.82804 0.75843 0.0
C3239 C 0.64515 0.84334 0.75151 0.0
C3240 C 0.62791 0.84837 0.75619 0.0
C3241 C 0.62417 0.85567 0.77406 0.0
C3242 C 0.60788 0.8603 0.77841 0.0
C3243 C 0.59523 0.85781 0.76495 0.0
C3244 C 0.59887 0.85072 0.74708 0.0
C3245 C 0.61514 0.84604 0.74267 0.0
H3246 H 0.58263 0.86141 0.76834 0.0
H3247 H 0.73939 0.81392 0.72308 0.0
H3248 H 0.85559 0.67296 0.66752 0.0
H3249 H 0.84203 0.66232 0.69644 0.0
H3250 H 0.87142 0.69525 0.73155 0.0
H3251 H 0.88495 0.7062 0.70255 0.0
H3252 H 0.87004 0.66163 0.74474 0.0
H3253 H 0.83369 0.70558 0.72569 0.0
H3254 H 0.81669 0.7216 0.70275 0.0
H3255 H 0.78567 0.67907 0.69323 0.0
H3256 H 0.80263 0.66271 0.71594 0.0
H3257 H 0.82582 0.64709 0.83059 0.0
H3258 H 0.83853 0.66096 0.80309 0.0
H3259 H 0.80579 0.63458 0.76461 0.0
H3260 H 0.79263 0.62096 0.79224 0.0
H3261 H 0.80909 0.66634 0.75367 0.0
H3262 H 0.8461 0.62204 0.77142 0.0
H3263 H 0.86354 0.60566 0.79359 0.0
H3264 H 0.89365 0.64853 0.80488 0.0
H3265 H 0.87625 0.66522 0.78295 0.0
C3266 C 0.85918 0.67796 0.68137 0.0
C3267 C 0.87129 0.69045 0.68279 0.0
C3268 C 0.85139 0.6719 0.69785 0.0
C3269 C 0.85566 0.67812 0.71603 0.0
C3270 C 0.86796 0.69036 0.71758 0.0
C3271 C 0.87564 0.69659 0.70104 0.0
C3272 C 0.8473 0.67165 0.73339 0.0
C3273 C 0.85676 0.66288 0.74691 0.0
C3274 C 0.82993 0.67302 0.73585 0.0
C3275 C 0.81953 0.68287 0.7224 0.0
C3276 C 0.82332 0.6996 0.7186 0.0
C3277 C 0.81367 0.70875 0.70566 0.0
C3278 C 0.80013 0.70135 0.6965 0.0
C3279 C 0.79617 0.68479 0.70032 0.0
C3280 C 0.80578 0.67557 0.71326 0.0
C3281 C 0.82127 0.64427 0.81629 0.0
C3282 C 0.80832 0.63284 0.81353 0.0
C3283 C 0.82859 0.65217 0.80058 0.0
C3284 C 0.8233 0.64859 0.78178 0.0
C3285 C 0.81009 0.63748 0.779 0.0
C3286 C 0.80264 0.62967 0.79477 0.0
C3287 C 0.83182 0.65618 0.76505 0.0
C3288 C 0.82238 0.66515 0.7516 0.0
C3289 C 0.84923 0.65496 0.76261 0.0
C3290 C 0.85978 0.64491 0.77569 0.0
C3291 C 0.85637 0.628 0.77873 0.0
C3292 C 0.86626 0.61865 0.79124 0.0
C3293 C 0.87967 0.62606 0.80068 0.0
C3294 C 0.88325 0.64281 0.79758 0.0
C3295 C 0.87339 0.65222 0.7851 0.0
H3296 H 0.88731 0.6188 0.81036 0.0
H3297 H 0.7927 0.70845 0.68646 0.0
H3298 H 0.35676 0.82386 0.82811 0.0
H3299 H 0.34367 0.83599 0.79969 0.0
H3300 H 0.37228 0.80358 0.7631 0.0
H3301 H 0.3854 0.79121 0.79159 0.0
H3302 H 0.37169 0.83747 0.75127 0.0
H3303 H 0.33413 0.79412 0.76957 0.0
H3304 H 0.3169 0.77844 0.79259 0.0
H3305 H 0.28709 0.82172 0.8027 0.0
H3306 H 0.30435 0.83777 0.78001 0.0
H3307 H 0.32749 0.85286 0.6655 0.0
H3308 H 0.34017 0.83909 0.69311 0.0
H3309 H 0.30831 0.86659 0.73149 0.0
H3310 H 0.29527 0.88023 0.70379 0.0
H3311 H 0.31063 0.8344 0.74222 0.0
H3312 H 0.34838 0.87807 0.72542 0.0
H3313 H 0.36616 0.89458 0.70379 0.0
H3314 H 0.3958 0.85152 0.69185 0.0
H3315 H 0.37805 0.83469 0.71323 0.0
C3316 C 0.36029 0.8193 0.81403 0.0
C3317 C 0.37205 0.80654 0.81204 0.0
C3318 C 0.35277 0.82622 0.79784 0.0
C3319 C 0.35694 0.82056 0.77938 0.0
C3320 C 0.36891 0.80805 0.77728 0.0
C3321 C 0.37634 0.80099 0.79352 0.0
C3322 C 0.34871 0.82776 0.76233 0.0
C3323 C 0.35838 0.83659 0.74907 0.0
C3324 C 0.3313 0.82692 0.75989 0.0
C3325 C 0.32063 0.8172 0.7732 0.0
C3326 C 0.32397 0.80034 0.7768 0.0
C3327 C 0.3142 0.79137 0.78978 0.0
C3328 C 0.30094 0.79909 0.79913 0.0
C3329 C 0.29738 0.81577 0.79546 0.0
C3330 C 0.30715 0.8248 0.78252 0.0
C3331 C 0.32315 0.85598 0.67981 0.0
C3332 C 0.31046 0.8677 0.68251 0.0
C3333 C 0.33045 0.84812 0.69557 0.0
C3334 C 0.32533 0.85199 0.71435 0.0
C3335 C 0.31245 0.86347 0.7171 0.0
C3336 C 0.30507 0.87129 0.70129 0.0
C3337 C 0.33362 0.84417 0.73108 0.0
C3338 C 0.32395 0.83523 0.74432 0.0
C3339 C 0.35104 0.84499 0.73358 0.0
C3340 C 0.36179 0.85509 0.72078 0.0
C3341 C 0.35861 0.87209 0.71807 0.0
C3342 C 0.3687 0.88151 0.70587 0.0
C3343 C 0.38208 0.8741 0.69641 0.0
C3344 C 0.38542 0.85725 0.69917 0.0
C3345 C 0.37536 0.84776 0.71134 0.0
H3346 H 0.38987 0.88141 0.68697 0.0
H3347 H 0.2934 0.79213 0.8092 0.0
H3348 H 0.14851 0.32123 0.66465 0.0
H3349 H 0.16237 0.33151 0.69358 0.0
H3350 H 0.12696 0.30554 0.72908 0.0
H3351 H 0.11321 0.29478 0.7001 0.0
H3352 H 0.133 0.34074 0.73817 0.0
H3353 H 0.16103 0.28947 0.72741 0.0
H3354 H 0.17579 0.26882 0.70768 0.0
H3355 H 0.21585 0.30314 0.69903 0.0
H3356 H 0.20103 0.32427 0.71812 0.0
H3357 H 0.17273 0.35322 0.82698 0.0
H3358 H 0.16055 0.33903 0.79936 0.0
H3359 H 0.19841 0.35952 0.76244 0.0
H3360 H 0.21082 0.37377 0.79017 0.0
H3361 H 0.19116 0.32589 0.75448 0.0
H3362 H 0.16237 0.37761 0.76262 0.0
H3363 H 0.14709 0.39907 0.78066 0.0
H3364 H 0.10855 0.36397 0.79354 0.0
H3365 H 0.12373 0.34223 0.77579 0.0
C3366 C 0.14368 0.31766 0.67859 0.0
C3367 C 0.12981 0.30717 0.68016 0.0
C3368 C 0.15164 0.32351 0.69507 0.0
C3369 C 0.14571 0.31917 0.71336 0.0
C3370 C 0.1317 0.30894 0.71502 0.0
C3371 C 0.12391 0.30281 0.69851 0.0
C3372 C 0.15406 0.32563 0.7307 0.0
C3373 C 0.14561 0.33729 0.74196 0.0
C3374 C 0.17064 0.32137 0.73519 0.0
C3375 C 0.17981 0.30856 0.72404 0.0
C3376 C 0.1729 0.29271 0.72114 0.0
C3377 C 0.18129 0.28089 0.71009 0.0
C3378 C 0.19676 0.28464 0.70213 0.0
C3379 C 0.20386 0.30024 0.7052 0.0
C3380 C 0.19545 0.31217 0.71611 0.0
C3381 C 0.17855 0.35465 0.81302 0.0
C3382 C 0.19263 0.36474 0.81068 0.0
C3383 C 0.17157 0.34652 0.79727 0.0
C3384 C 0.1785 0.34837 0.77887 0.0
C3385 C 0.19291 0.35796 0.77656 0.0
C3386 C 0.1999 0.36615 0.79236 0.0
C3387 C 0.17007 0.34102 0.76198 0.0
C3388 C 0.17851 0.32924 0.75076 0.0
C3389 C 0.15346 0.3452 0.75742 0.0
C3390 C 0.14427 0.35825 0.76805 0.0
C3391 C 0.1507 0.37443 0.76944 0.0
C3392 C 0.14205 0.38665 0.77958 0.0
C3393 C 0.12688 0.38287 0.78829 0.0
C3394 C 0.12031 0.36687 0.78682 0.0
C3395 C 0.12893 0.3546 0.7767 0.0
H3396 H 0.12019 0.39235 0.79614 0.0
H3397 H 0.20324 0.27546 0.6936 0.0
H3398 H 0.67785 0.14481 0.66459 0.0
H3399 H 0.66634 0.1586 0.69287 0.0
H3400 H 0.69578 0.12724 0.72985 0.0
H3401 H 0.70764 0.11348 0.70149 0.0
H3402 H 0.66127 0.1296 0.73978 0.0
H3403 H 0.70799 0.16502 0.7273 0.0
H3404 H 0.72639 0.18217 0.70708 0.0
H3405 H 0.68551 0.21408 0.69284 0.0
H3406 H 0.66685 0.19712 0.71307 0.0
H3407 H 0.64594 0.17146 0.8267 0.0
H3408 H 0.65977 0.15909 0.79901 0.0
H3409 H 0.63552 0.19413 0.76136 0.0
H3410 H 0.62181 0.20687 0.78921 0.0
H3411 H 0.66798 0.18996 0.75175 0.0
H3412 H 0.62128 0.15481 0.76461 0.0
H3413 H 0.60279 0.1375 0.78455 0.0
H3414 H 0.64326 0.10456 0.79716 0.0
H3415 H 0.66205 0.1218 0.77748 0.0
C3416 C 0.68194 0.14086 0.67871 0.0
C3417 C 0.69367 0.12808 0.68085 0.0
C3418 C 0.67539 0.1488 0.69484 0.0
C3419 C 0.68034 0.144 0.71337 0.0
C3420 C 0.69189 0.13112 0.71561 0.0
C3421 C 0.69863 0.1233 0.69944 0.0
C3422 C 0.67299 0.15218 0.73035 0.0
C3423 C 0.66294 0.14273 0.74263 0.0
C3424 C 0.67484 0.16939 0.73361 0.0
C3425 C 0.686 0.17972 0.72155 0.0
C3426 C 0.7029 0.17564 0.71976 0.0
C3427 C 0.71339 0.18535 0.70834 0.0
C3428 C 0.70711 0.19915 0.69858 0.0
C3429 C 0.69035 0.20336 0.70038 0.0
C3430 C 0.67983 0.19375 0.71188 0.0
C3431 C 0.64355 0.17658 0.81255 0.0
C3432 C 0.6327 0.19007 0.81009 0.0
C3433 C 0.65144 0.16946 0.79673 0.0
C3434 C 0.64848 0.17554 0.77811 0.0
C3435 C 0.63792 0.18923 0.77562 0.0
C3436 C 0.63006 0.19644 0.79151 0.0
C3437 C 0.65625 0.16736 0.76129 0.0
C3438 C 0.66634 0.17681 0.74898 0.0
C3439 C 0.65439 0.15013 0.75795 0.0
C3440 C 0.6431 0.13968 0.76972 0.0
C3441 C 0.62626 0.14394 0.77175 0.0
C3442 C 0.61573 0.13413 0.78299 0.0
C3443 C 0.62186 0.11996 0.79216 0.0
C3444 C 0.63853 0.11555 0.79006 0.0
C3445 C 0.64913 0.12532 0.77885 0.0
H3446 H 0.61368 0.11239 0.80085 0.0
H3447 H 0.71524 0.20661 0.68967 0.0
H3448 H 0.82558 0.35439 0.16763 0.0
H3449 H 0.83663 0.34063 0.1962 0.0
H3450 H 0.80022 0.36544 0.23146 0.0
H3451 H 0.78903 0.37932 0.20283 0.0
H3452 H 0.83227 0.36729 0.24607 0.0
H3453 H 0.79519 0.32582 0.22193 0.0
H3454 H 0.78321 0.30766 0.19698 0.0
H3455 H 0.83021 0.28327 0.1901 0.0
H3456 H 0.84257 0.30151 0.21476 0.0
H3457 H 0.84992 0.32283 0.33063 0.0
H3458 H 0.83545 0.33432 0.30286 0.0
H3459 H 0.86744 0.30663 0.26479 0.0
H3460 H 0.88165 0.29453 0.2927 0.0
H3461 H 0.83632 0.30604 0.25196 0.0
H3462 H 0.87395 0.34831 0.27383 0.0
H3463 H 0.88679 0.36708 0.29759 0.0
H3464 H 0.83961 0.39026 0.30771 0.0
H3465 H 0.82644 0.37148 0.28417 0.0
C3466 C 0.81987 0.35689 0.18145 0.0
C3467 C 0.80643 0.36792 0.18303 0.0
C3468 C 0.82615 0.34896 0.19773 0.0
C3469 C 0.81912 0.35192 0.21586 0.0
C3470 C 0.80575 0.36298 0.21754 0.0
C3471 C 0.79938 0.37087 0.20121 0.0
C3472 C 0.82614 0.34382 0.23312 0.0
C3473 C 0.8329 0.3539 0.24755 0.0
C3474 C 0.82733 0.32636 0.23468 0.0
C3475 C 0.81985 0.31514 0.2201 0.0
C3476 C 0.80301 0.31667 0.21501 0.0
C3477 C 0.79614 0.30635 0.20092 0.0
C3478 C 0.80595 0.29434 0.19194 0.0
C3479 C 0.82263 0.29259 0.19707 0.0
C3480 C 0.82957 0.30291 0.21111 0.0
C3481 C 0.85386 0.31912 0.31636 0.0
C3482 C 0.867 0.30788 0.31381 0.0
C3483 C 0.8456 0.32575 0.30049 0.0
C3484 C 0.85056 0.32157 0.28175 0.0
C3485 C 0.86345 0.31005 0.27914 0.0
C3486 C 0.8716 0.30322 0.29507 0.0
C3487 C 0.84252 0.32953 0.26493 0.0
C3488 C 0.83559 0.31943 0.25056 0.0
C3489 C 0.84127 0.347 0.26332 0.0
C3490 C 0.84918 0.35839 0.27738 0.0
C3491 C 0.86629 0.35734 0.28122 0.0
C3492 C 0.87363 0.36799 0.29463 0.0
C3493 C 0.86401 0.37983 0.30419 0.0
C3494 C 0.84704 0.38107 0.30031 0.0
C3495 C 0.83963 0.37044 0.28692 0.0
H3496 H 0.86972 0.38806 0.31457 0.0
H3497 H 0.80062 0.28637 0.18103 0.0
H3498 H 0.61831 0.79201 0.20201 0.0
H3499 H 0.63163 0.80411 0.23047 0.0
H3500 H 0.65794 0.8387 0.19418 0.0
H3501 H 0.64472 0.82673 0.16576 0.0
H3502 H 0.67806 0.82432 0.22185 0.0
H3503 H 0.62483 0.85153 0.21788 0.0
H3504 H 0.59428 0.85262 0.21601 0.0
H3505 H 0.59065 0.82692 0.27003 0.0
H3506 H 0.62119 0.82547 0.27208 0.0
H3507 H 0.70529 0.88229 0.2919 0.0
H3508 H 0.69261 0.86893 0.26387 0.0
H3509 H 0.66208 0.83916 0.30152 0.0
H3510 H 0.67421 0.8529 0.32945 0.0
H3511 H 0.64415 0.85025 0.27331 0.0
H3512 H 0.69733 0.82385 0.27826 0.0
H3513 H 0.72784 0.82291 0.28046 0.0
H3514 H 0.73181 0.8462 0.22502 0.0
H3515 H 0.7013 0.84764 0.22267 0.0
C3516 C 0.62695 0.80217 0.20012 0.0
C3517 C 0.63044 0.80848 0.1817 0.0
C3518 C 0.63452 0.80908 0.21636 0.0
C3519 C 0.64567 0.82235 0.21438 0.0
C3520 C 0.64937 0.82846 0.19598 0.0
C3521 C 0.64176 0.82164 0.17978 0.0
C3522 C 0.65334 0.83011 0.23149 0.0
C3523 C 0.6707 0.83014 0.23305 0.0
C3524 C 0.64365 0.83733 0.24623 0.0
C3525 C 0.62529 0.83823 0.24503 0.0
C3526 C 0.61751 0.84598 0.22928 0.0
C3527 C 0.6002 0.84669 0.2282 0.0
C3528 C 0.59053 0.8398 0.24286 0.0
C3529 C 0.59815 0.83222 0.25866 0.0
C3530 C 0.61546 0.83146 0.2598 0.0
C3531 C 0.69588 0.87289 0.29416 0.0
C3532 C 0.69076 0.86859 0.31283 0.0
C3533 C 0.68871 0.8652 0.27816 0.0
C3534 C 0.67656 0.85286 0.28061 0.0
C3535 C 0.67143 0.84863 0.29928 0.0
C3536 C 0.67841 0.85647 0.31523 0.0
C3537 C 0.66896 0.8445 0.26377 0.0
C3538 C 0.65159 0.84436 0.26222 0.0
C3539 C 0.67865 0.83708 0.2491 0.0
C3540 C 0.69701 0.83599 0.25037 0.0
C3541 C 0.7047 0.82888 0.26659 0.0
C3542 C 0.72201 0.82825 0.26786 0.0
C3543 C 0.73176 0.83452 0.2529 0.0
C3544 C 0.72424 0.84138 0.23661 0.0
C3545 C 0.70694 0.84211 0.23531 0.0
H3546 H 0.74515 0.83405 0.25388 0.0
H3547 H 0.57713 0.84036 0.24201 0.0
H3548 H 0.13992 0.71635 0.30354 0.0
H3549 H 0.15523 0.70514 0.27598 0.0
H3550 H 0.13724 0.65601 0.28972 0.0
H3551 H 0.12319 0.66709 0.31812 0.0
H3552 H 0.1664 0.65266 0.28017 0.0
H3553 H 0.1214 0.68295 0.25082 0.0
H3554 H 0.10396 0.70743 0.24403 0.0
H3555 H 0.14646 0.7336 0.22235 0.0
H3556 H 0.16418 0.70933 0.22921 0.0
H3557 H 0.16961 0.63707 0.16972 0.0
H3558 H 0.15753 0.65065 0.19776 0.0
H3559 H 0.2046 0.64737 0.22728 0.0
H3560 H 0.21655 0.63306 0.19942 0.0
H3561 H 0.16235 0.67793 0.21523 0.0
H3562 H 0.19851 0.64357 0.27533 0.0
H3563 H 0.21196 0.61648 0.28102 0.0
H3564 H 0.17992 0.5938 0.2392 0.0
H3565 H 0.16616 0.62069 0.23345 0.0
C3566 C 0.13925 0.70318 0.30051 0.0
C3567 C 0.13034 0.69254 0.3127 0.0
C3568 C 0.14791 0.69678 0.28474 0.0
C3569 C 0.14719 0.67972 0.28046 0.0
C3570 C 0.1381 0.66917 0.29268 0.0
C3571 C 0.12998 0.67549 0.30882 0.0
C3572 C 0.15598 0.6727 0.26347 0.0
C3573 C 0.16547 0.65822 0.26599 0.0
C3574 C 0.15477 0.67981 0.24485 0.0
C3575 C 0.14413 0.6944 0.24071 0.0
C3576 C 0.12703 0.69397 0.24472 0.0
C3577 C 0.1171 0.7078 0.24084 0.0
C3578 C 0.1241 0.72208 0.23282 0.0
C3579 C 0.14105 0.72254 0.2286 0.0
C3580 C 0.15105 0.70875 0.23246 0.0
C3581 C 0.17738 0.63922 0.1822 0.0
C3582 C 0.19396 0.63389 0.18249 0.0
C3583 C 0.17049 0.64706 0.1982 0.0
C3584 C 0.18008 0.6499 0.21474 0.0
C3585 C 0.19684 0.64501 0.21485 0.0
C3586 C 0.20367 0.63689 0.19892 0.0
C3587 C 0.17233 0.65769 0.2319 0.0
C3588 C 0.16325 0.67241 0.22944 0.0
C3589 C 0.1733 0.65041 0.25041 0.0
C3590 C 0.18147 0.63418 0.25379 0.0
C3591 C 0.19433 0.63279 0.26738 0.0
C3592 C 0.202 0.61747 0.27061 0.0
C3593 C 0.19684 0.60344 0.26042 0.0
C3594 C 0.18396 0.60469 0.24702 0.0
C3595 C 0.17624 0.61996 0.24375 0.0
H3596 H 0.2028 0.5916 0.26294 0.0
H3597 H 0.11639 0.73277 0.22983 0.0
H3598 H 0.28672 0.11948 0.29097 0.0
H3599 H 0.29832 0.13321 0.26249 0.0
H3600 H 0.33917 0.15145 0.29666 0.0
H3601 H 0.32758 0.13802 0.32512 0.0
H3602 H 0.32667 0.17538 0.27376 0.0
H3603 H 0.34372 0.11802 0.26682 0.0
H3604 H 0.33895 0.08786 0.26435 0.0
H3605 H 0.30842 0.09546 0.21442 0.0
H3606 H 0.31283 0.12569 0.21675 0.0
H3607 H 0.38338 0.19999 0.20142 0.0
H3608 H 0.36958 0.18703 0.22896 0.0
H3609 H 0.33319 0.16548 0.19076 0.0
H3610 H 0.34749 0.17762 0.1632 0.0
H3611 H 0.34174 0.14356 0.21521 0.0
H3612 H 0.32593 0.20055 0.22029 0.0
H3613 H 0.33066 0.23068 0.22209 0.0
H3614 H 0.35733 0.22449 0.27514 0.0
H3615 H 0.35325 0.1942 0.27334 0.0
C3616 C 0.29819 0.12639 0.29237 0.0
C3617 C 0.30628 0.12764 0.31023 0.0
C3618 C 0.3048 0.1342 0.2761 0.0
C3619 C 0.31967 0.14324 0.27746 0.0
C3620 C 0.32767 0.14456 0.29532 0.0
C3621 C 0.32106 0.13682 0.31155 0.0
C3622 C 0.32702 0.15131 0.26033 0.0
C3623 C 0.33012 0.16844 0.26099 0.0
C3624 C 0.33105 0.14229 0.24352 0.0
C3625 C 0.32847 0.12412 0.24208 0.0
C3626 C 0.33589 0.11326 0.2554 0.0
C3627 C 0.33327 0.09615 0.25401 0.0
C3628 C 0.32335 0.08975 0.23927 0.0
C3629 C 0.31607 0.10044 0.22585 0.0
C3630 C 0.31864 0.11755 0.22719 0.0
C3631 C 0.37242 0.19251 0.19896 0.0
C3632 C 0.36647 0.18982 0.18022 0.0
C3633 C 0.36447 0.18518 0.21469 0.0
C3634 C 0.35015 0.17549 0.21199 0.0
C3635 C 0.3442 0.17288 0.19323 0.0
C3636 C 0.35236 0.17988 0.17749 0.0
C3637 C 0.34157 0.1677 0.22861 0.0
C3638 C 0.33822 0.15061 0.22787 0.0
C3639 C 0.33717 0.17681 0.24529 0.0
C3640 C 0.3394 0.19506 0.24658 0.0
C3641 C 0.3329 0.20559 0.23228 0.0
C3642 C 0.33546 0.22271 0.23331 0.0
C3643 C 0.34425 0.22952 0.24874 0.0
C3644 C 0.35052 0.2192 0.26319 0.0
C3645 C 0.34812 0.20204 0.26215 0.0
H3646 H 0.3462 0.24279 0.24951 0.0
H3647 H 0.32134 0.0765 0.23822 0.0
loop_
_geom_bond_atom_site_label_1
_geom_bond_atom_site_label_2
_geom_bond_distance
_geom_bond_site_symmetry_2
_ccdc_geom_bond_type
Co0 O1 2.216 . S
Co0 O2 2.091 . S
Co0 O4 2.004 . S
Co0 O10 2.021 . S
Co0 O12 2.137 . S
Co0 O13 2.244 . S
O1 Co0 2.216 . S
O1 C8 1.247 . S
O2 Co0 2.091 . S
O2 C8 1.261 . S
C3 O12 1.247 . S
C3 O13 1.272 . S
O4 Co0 2.004 . S
O4 C9 1.259 . S
Co5 O6 2.061 . S
Co5 O11 2.052 . S
Co5 O13 2.135 . S
O6 Co5 2.061 . S
O6 C9 1.235 . S
C7 O10 1.238 . S
C7 O11 1.241 . S
C8 O1 1.247 . S
C8 O2 1.261 . S
C9 O4 1.259 . S
C9 O6 1.235 . S
O10 Co0 2.021 . S
O10 C7 1.238 . S
O11 Co5 2.052 . S
O11 C7 1.241 . S
O12 Co0 2.137 . S
O12 C3 1.247 . S
O13 Co0 2.244 . S
O13 C3 1.272 . S
O13 Co5 2.135 . S
Co14 O15 2.216 . S
Co14 O16 2.091 . S
Co14 O18 2.004 . S
Co14 O24 2.021 . S
Co14 O26 2.137 . S
Co14 O27 2.244 . S
O15 Co14 2.216 . S
O15 C22 1.247 . S
O16 Co14 2.091 . S
O16 C22 1.261 . S
C17 O26 1.247 . S
C17 O27 1.272 . S
O18 Co14 2.004 . S
O18 C23 1.259 . S
Co19 O20 2.061 . S
Co19 O25 2.052 . S
Co19 O27 2.135 . S
O20 Co19 2.061 . S
O20 C23 1.235 . S
C21 O24 1.238 . S
C21 O25 1.241 . S
C22 O15 1.247 . S
C22 O16 1.261 . S
C23 O18 1.259 . S
C23 O20 1.235 . S
O24 Co14 2.021 . S
O24 C21 1.238 . S
O25 Co19 2.052 . S
O25 C21 1.241 . S
O26 Co14 2.137 . S
O26 C17 1.247 . S
O27 Co14 2.244 . S
O27 C17 1.272 . S
O27 Co19 2.135 . S
Co28 O29 2.216 . S
Co28 O30 2.091 . S
Co28 O32 2.004 . S
Co28 O38 2.021 . S
Co28 O40 2.137 . S
Co28 O41 2.244 . S
O29 Co28 2.216 . S
O29 C36 1.247 . S
O30 Co28 2.091 . S
O30 C36 1.261 . S
C31 O40 1.247 . S
C31 O41 1.272 . S
O32 Co28 2.004 . S
O32 C37 1.259 . S
Co33 O34 2.061 . S
Co33 O39 2.052 . S
Co33 O41 2.135 . S
O34 Co33 2.061 . S
O34 C37 1.235 . S
C35 O38 1.238 . S
C35 O39 1.241 . S
C36 O29 1.247 . S
C36 O30 1.261 . S
C37 O32 1.259 . S
C37 O34 1.235 . S
O38 Co28 2.021 . S
O38 C35 1.238 . S
O39 Co33 2.052 . S
O39 C35 1.241 . S
O40 Co28 2.137 . S
O40 C31 1.247 . S
O41 Co28 2.244 . S
O41 C31 1.272 . S
O41 Co33 2.135 . S
Co42 O43 2.216 . S
Co42 O44 2.091 . S
Co42 O46 2.004 . S
Co42 O52 2.021 . S
Co42 O54 2.137 . S
Co42 O55 2.244 . S
O43 Co42 2.216 . S
O43 C50 1.247 . S
O44 Co42 2.091 . S
O44 C50 1.261 . S
C45 O54 1.247 . S
C45 O55 1.272 . S
O46 Co42 2.004 . S
O46 C51 1.259 . S
Co47 O48 2.061 . S
Co47 O53 2.052 . S
Co47 O55 2.135 . S
O48 Co47 2.061 . S
O48 C51 1.235 . S
C49 O52 1.238 . S
C49 O53 1.241 . S
C50 O43 1.247 . S
C50 O44 1.261 . S
C51 O46 1.259 . S
C51 O48 1.235 . S
O52 Co42 2.021 . S
O52 C49 1.238 . S
O53 Co47 2.052 . S
O53 C49 1.241 . S
O54 Co42 2.137 . S
O54 C45 1.247 . S
O55 Co42 2.244 . S
O55 C45 1.272 . S
O55 Co47 2.135 . S
Co56 O57 2.216 . S
Co56 O58 2.091 . S
Co56 O60 2.004 . S
Co56 O66 2.021 . S
Co56 O68 2.137 . S
Co56 O69 2.244 . S
O57 Co56 2.216 . S
O57 C64 1.247 . S
O58 Co56 2.091 . S
O58 C64 1.261 . S
C59 O68 1.247 . S
C59 O69 1.272 . S
O60 Co56 2.004 . S
O60 C65 1.259 . S
Co61 O62 2.061 . S
Co61 O67 2.052 . S
Co61 O69 2.135 . S
O62 Co61 2.061 . S
O62 C65 1.235 . S
C63 O66 1.238 . S
C63 O67 1.241 . S
C64 O57 1.247 . S
C64 O58 1.261 . S
C65 O60 1.259 . S
C65 O62 1.235 . S
O66 Co56 2.021 . S
O66 C63 1.238 . S
O67 Co61 2.052 . S
O67 C63 1.241 . S
O68 Co56 2.137 . S
O68 C59 1.247 . S
O69 Co56 2.244 . S
O69 C59 1.272 . S
O69 Co61 2.135 . S
Co70 O71 2.216 . S
Co70 O72 2.091 . S
Co70 O74 2.004 . S
Co70 O80 2.021 . S
Co70 O82 2.137 . S
Co70 O83 2.244 . S
O71 Co70 2.216 . S
O71 C78 1.247 . S
O72 Co70 2.091 . S
O72 C78 1.261 . S
C73 O82 1.247 . S
C73 O83 1.272 . S
O74 Co70 2.004 . S
O74 C79 1.259 . S
Co75 O76 2.061 . S
Co75 O81 2.052 . S
Co75 O83 2.135 . S
O76 Co75 2.061 . S
O76 C79 1.235 . S
C77 O80 1.238 . S
C77 O81 1.241 . S
C78 O71 1.247 . S
C78 O72 1.261 . S
C79 O74 1.259 . S
C79 O76 1.235 . S
O80 Co70 2.021 . S
O80 C77 1.238 . S
O81 Co75 2.052 . S
O81 C77 1.241 . S
O82 Co70 2.137 . S
O82 C73 1.247 . S
O83 Co70 2.244 . S
O83 C73 1.272 . S
O83 Co75 2.135 . S
Co84 O85 2.216 . S
Co84 O86 2.091 . S
Co84 O88 2.004 . S
Co84 O94 2.021 . S
Co84 O96 2.137 . S
Co84 O97 2.244 . S
O85 Co84 2.216 . S
O85 C92 1.247 . S
O86 Co84 2.091 . S
O86 C92 1.261 . S
C87 O96 1.247 . S
C87 O97 1.272 . S
O88 Co84 2.004 . S
O88 C93 1.259 . S
Co89 O90 2.061 . S
Co89 O95 2.052 . S
Co89 O97 2.135 . S
O90 Co89 2.061 . S
O90 C93 1.235 . S
C91 O94 1.238 . S
C91 O95 1.241 . S
C92 O85 1.247 . S
C92 O86 1.261 . S
C93 O88 1.259 . S
C93 O90 1.235 . S
O94 Co84 2.021 . S
O94 C91 1.238 . S
O95 Co89 2.052 . S
O95 C91 1.241 . S
O96 Co84 2.137 . S
O96 C87 1.247 . S
O97 Co84 2.244 . S
O97 C87 1.272 . S
O97 Co89 2.135 . S
Co98 O99 2.216 . S
Co98 O100 2.091 . S
Co98 O102 2.004 . S
Co98 O108 2.021 . S
Co98 O110 2.137 . S
Co98 O111 2.244 . S
O99 Co98 2.216 . S
O99 C106 1.247 . S
O100 Co98 2.091 . S
O100 C106 1.261 . S
C101 O110 1.247 . S
C101 O111 1.272 . S
O102 Co98 2.004 . S
O102 C107 1.259 . S
Co103 O104 2.061 . S
Co103 O109 2.052 . S
Co103 O111 2.135 . S
O104 Co103 2.061 . S
O104 C107 1.235 . S
C105 O108 1.238 . S
C105 O109 1.241 . S
C106 O99 1.247 . S
C106 O100 1.261 . S
C107 O102 1.259 . S
C107 O104 1.235 . S
O108 Co98 2.021 . S
O108 C105 1.238 . S
O109 Co103 2.052 . S
O109 C105 1.241 . S
O110 Co98 2.137 . S
O110 C101 1.247 . S
O111 Co98 2.244 . S
O111 C101 1.272 . S
O111 Co103 2.135 . S
Co112 O113 2.216 . S
Co112 O114 2.091 . S
Co112 O116 2.004 . S
Co112 O122 2.021 . S
Co112 O124 2.137 . S
Co112 O125 2.244 . S
O113 Co112 2.216 . S
O113 C120 1.247 . S
O114 Co112 2.091 . S
O114 C120 1.261 . S
C115 O124 1.247 . S
C115 O125 1.272 . S
O116 Co112 2.004 . S
O116 C121 1.259 . S
Co117 O118 2.061 . S
Co117 O123 2.052 . S
Co117 O125 2.135 . S
O118 Co117 2.061 . S
O118 C121 1.235 . S
C119 O122 1.238 . S
C119 O123 1.241 . S
C120 O113 1.247 . S
C120 O114 1.261 . S
C121 O116 1.259 . S
C121 O118 1.235 . S
O122 Co112 2.021 . S
O122 C119 1.238 . S
O123 Co117 2.052 . S
O123 C119 1.241 . S
O124 Co112 2.137 . S
O124 C115 1.247 . S
O125 Co112 2.244 . S
O125 C115 1.272 . S
O125 Co117 2.135 . S
Co126 O127 2.216 . S
Co126 O128 2.091 . S
Co126 O130 2.004 . S
Co126 O136 2.021 . S
Co126 O138 2.137 . S
Co126 O139 2.244 . S
O127 Co126 2.216 . S
O127 C134 1.247 . S
O128 Co126 2.091 . S
O128 C134 1.261 . S
C129 O138 1.247 . S
C129 O139 1.272 . S
O130 Co126 2.004 . S
O130 C135 1.259 . S
Co131 O132 2.061 . S
Co131 O137 2.052 . S
Co131 O139 2.135 . S
O132 Co131 2.061 . S
O132 C135 1.235 . S
C133 O136 1.238 . S
C133 O137 1.241 . S
C134 O127 1.247 . S
C134 O128 1.261 . S
C135 O130 1.259 . S
C135 O132 1.235 . S
O136 Co126 2.021 . S
O136 C133 1.238 . S
O137 Co131 2.052 . S
O137 C133 1.241 . S
O138 Co126 2.137 . S
O138 C129 1.247 . S
O139 Co126 2.244 . S
O139 C129 1.272 . S
O139 Co131 2.135 . S
Co140 O141 2.216 . S
Co140 O142 2.091 . S
Co140 O144 2.004 . S
Co140 O150 2.021 . S
Co140 O152 2.137 . S
Co140 O153 2.244 . S
O141 Co140 2.216 . S
O141 C148 1.247 . S
O142 Co140 2.091 . S
O142 C148 1.261 . S
C143 O152 1.247 . S
C143 O153 1.272 . S
O144 Co140 2.004 . S
O144 C149 1.259 . S
Co145 O146 2.061 . S
Co145 O151 2.052 . S
Co145 O153 2.135 . S
O146 Co145 2.061 . S
O146 C149 1.235 . S
C147 O150 1.238 . S
C147 O151 1.241 . S
C148 O141 1.247 . S
C148 O142 1.261 . S
C149 O144 1.259 . S
C149 O146 1.235 . S
O150 Co140 2.021 . S
O150 C147 1.238 . S
O151 Co145 2.052 . S
O151 C147 1.241 . S
O152 Co140 2.137 . S
O152 C143 1.247 . S
O153 Co140 2.244 . S
O153 C143 1.272 . S
O153 Co145 2.135 . S
Co154 O155 2.216 . S
Co154 O156 2.091 . S
Co154 O158 2.004 . S
Co154 O164 2.021 . S
Co154 O166 2.137 . S
Co154 O167 2.244 . S
O155 Co154 2.216 . S
O155 C162 1.247 . S
O156 Co154 2.091 . S
O156 C162 1.261 . S
C157 O166 1.247 . S
C157 O167 1.272 . S
O158 Co154 2.004 . S
O158 C163 1.259 . S
Co159 O160 2.061 . S
Co159 O165 2.052 . S
Co159 O167 2.135 . S
O160 Co159 2.061 . S
O160 C163 1.235 . S
C161 O164 1.238 . S
C161 O165 1.241 . S
C162 O155 1.247 . S
C162 O156 1.261 . S
C163 O158 1.259 . S
C163 O160 1.235 . S
O164 Co154 2.021 . S
O164 C161 1.238 . S
O165 Co159 2.052 . S
O165 C161 1.241 . S
O166 Co154 2.137 . S
O166 C157 1.247 . S
O167 Co154 2.244 . S
O167 C157 1.272 . S
O167 Co159 2.135 . S
Co168 O169 2.216 . S
Co168 O170 2.091 . S
Co168 O172 2.004 . S
Co168 O178 2.021 . S
Co168 O180 2.137 . S
Co168 O181 2.244 . S
O169 Co168 2.216 . S
O169 C176 1.247 . S
O170 Co168 2.091 . S
O170 C176 1.261 . S
C171 O180 1.247 . S
C171 O181 1.272 . S
O172 Co168 2.004 . S
O172 C177 1.259 . S
Co173 O174 2.061 . S
Co173 O179 2.052 . S
Co173 O181 2.135 . S
O174 Co173 2.061 . S
O174 C177 1.235 . S
C175 O178 1.238 . S
C175 O179 1.241 . S
C176 O169 1.247 . S
C176 O170 1.261 . S
C177 O172 1.259 . S
C177 O174 1.235 . S
O178 Co168 2.021 . S
O178 C175 1.238 . S
O179 Co173 2.052 . S
O179 C175 1.241 . S
O180 Co168 2.137 . S
O180 C171 1.247 . S
O181 Co168 2.244 . S
O181 C171 1.272 . S
O181 Co173 2.135 . S
Co182 O183 2.216 . S
Co182 O184 2.091 . S
Co182 O186 2.004 . S
Co182 O192 2.021 . S
Co182 O194 2.137 . S
Co182 O195 2.244 . S
O183 Co182 2.216 . S
O183 C190 1.247 . S
O184 Co182 2.091 . S
O184 C190 1.261 . S
C185 O194 1.247 . S
C185 O195 1.272 . S
O186 Co182 2.004 . S
O186 C191 1.259 . S
Co187 O188 2.061 . S
Co187 O193 2.052 . S
Co187 O195 2.135 . S
O188 Co187 2.061 . S
O188 C191 1.235 . S
C189 O192 1.238 . S
C189 O193 1.241 . S
C190 O183 1.247 . S
C190 O184 1.261 . S
C191 O186 1.259 . S
C191 O188 1.235 . S
O192 Co182 2.021 . S
O192 C189 1.238 . S
O193 Co187 2.052 . S
O193 C189 1.241 . S
O194 Co182 2.137 . S
O194 C185 1.247 . S
O195 Co182 2.244 . S
O195 C185 1.272 . S
O195 Co187 2.135 . S
Co196 O197 2.216 . S
Co196 O198 2.091 . S
Co196 O200 2.004 . S
Co196 O206 2.021 . S
Co196 O208 2.137 . S
Co196 O209 2.244 . S
O197 Co196 2.216 . S
O197 C204 1.247 . S
O198 Co196 2.091 . S
O198 C204 1.261 . S
C199 O208 1.247 . S
C199 O209 1.272 . S
O200 Co196 2.004 . S
O200 C205 1.259 . S
Co201 O202 2.061 . S
Co201 O207 2.052 . S
Co201 O209 2.135 . S
O202 Co201 2.061 . S
O202 C205 1.235 . S
C203 O206 1.238 . S
C203 O207 1.241 . S
C204 O197 1.247 . S
C204 O198 1.261 . S
C205 O200 1.259 . S
C205 O202 1.235 . S
O206 Co196 2.021 . S
O206 C203 1.238 . S
O207 Co201 2.052 . S
O207 C203 1.241 . S
O208 Co196 2.137 . S
O208 C199 1.247 . S
O209 Co196 2.244 . S
O209 C199 1.272 . S
O209 Co201 2.135 . S
Co210 O211 2.216 . S
Co210 O212 2.091 . S
Co210 O214 2.004 . S
Co210 O220 2.021 . S
Co210 O222 2.137 . S
Co210 O223 2.244 . S
O211 Co210 2.216 . S
O211 C218 1.247 . S
O212 Co210 2.091 . S
O212 C218 1.261 . S
C213 O222 1.247 . S
C213 O223 1.272 . S
O214 Co210 2.004 . S
O214 C219 1.259 . S
Co215 O216 2.061 . S
Co215 O221 2.052 . S
Co215 O223 2.135 . S
O216 Co215 2.061 . S
O216 C219 1.235 . S
C217 O220 1.238 . S
C217 O221 1.241 . S
C218 O211 1.247 . S
C218 O212 1.261 . S
C219 O214 1.259 . S
C219 O216 1.235 . S
O220 Co210 2.021 . S
O220 C217 1.238 . S
O221 Co215 2.052 . S
O221 C217 1.241 . S
O222 Co210 2.137 . S
O222 C213 1.247 . S
O223 Co210 2.244 . S
O223 C213 1.272 . S
O223 Co215 2.135 . S
Co224 O225 2.216 . S
Co224 O226 2.091 . S
Co224 O228 2.004 . S
Co224 O234 2.021 . S
Co224 O236 2.137 . S
Co224 O237 2.244 . S
O225 Co224 2.216 . S
O225 C232 1.247 . S
O226 Co224 2.091 . S
O226 C232 1.261 . S
C227 O236 1.247 . S
C227 O237 1.272 . S
O228 Co224 2.004 . S
O228 C233 1.259 . S
Co229 O230 2.061 . S
Co229 O235 2.052 . S
Co229 O237 2.135 . S
O230 Co229 2.061 . S
O230 C233 1.235 . S
C231 O234 1.238 . S
C231 O235 1.241 . S
C232 O225 1.247 . S
C232 O226 1.261 . S
C233 O228 1.259 . S
C233 O230 1.235 . S
O234 Co224 2.021 . S
O234 C231 1.238 . S
O235 Co229 2.052 . S
O235 C231 1.241 . S
O236 Co224 2.137 . S
O236 C227 1.247 . S
O237 Co224 2.244 . S
O237 C227 1.272 . S
O237 Co229 2.135 . S
Co238 O239 2.216 . S
Co238 O240 2.091 . S
Co238 O242 2.004 . S
Co238 O248 2.021 . S
Co238 O250 2.137 . S
Co238 O251 2.244 . S
O239 Co238 2.216 . S
O239 C246 1.247 . S
O240 Co238 2.091 . S
O240 C246 1.261 . S
C241 O250 1.247 . S
C241 O251 1.272 . S
O242 Co238 2.004 . S
O242 C247 1.259 . S
Co243 O244 2.061 . S
Co243 O249 2.052 . S
Co243 O251 2.135 . S
O244 Co243 2.061 . S
O244 C247 1.235 . S
C245 O248 1.238 . S
C245 O249 1.241 . S
C246 O239 1.247 . S
C246 O240 1.261 . S
C247 O242 1.259 . S
C247 O244 1.235 . S
O248 Co238 2.021 . S
O248 C245 1.238 . S
O249 Co243 2.052 . S
O249 C245 1.241 . S
O250 Co238 2.137 . S
O250 C241 1.247 . S
O251 Co238 2.244 . S
O251 C241 1.272 . S
O251 Co243 2.135 . S
Co252 O253 2.216 . S
Co252 O254 2.091 . S
Co252 O256 2.004 . S
Co252 O262 2.021 . S
Co252 O264 2.137 . S
Co252 O265 2.244 . S
O253 Co252 2.216 . S
O253 C260 1.247 . S
O254 Co252 2.091 . S
O254 C260 1.261 . S
C255 O264 1.247 . S
C255 O265 1.272 . S
O256 Co252 2.004 . S
O256 C261 1.259 . S
Co257 O258 2.061 . S
Co257 O263 2.052 . S
Co257 O265 2.135 . S
O258 Co257 2.061 . S
O258 C261 1.235 . S
C259 O262 1.238 . S
C259 O263 1.241 . S
C260 O253 1.247 . S
C260 O254 1.261 . S
C261 O256 1.259 . S
C261 O258 1.235 . S
O262 Co252 2.021 . S
O262 C259 1.238 . S
O263 Co257 2.052 . S
O263 C259 1.241 . S
O264 Co252 2.137 . S
O264 C255 1.247 . S
O265 Co252 2.244 . S
O265 C255 1.272 . S
O265 Co257 2.135 . S
Co266 O267 2.216 . S
Co266 O268 2.091 . S
Co266 O270 2.004 . S
Co266 O276 2.021 . S
Co266 O278 2.137 . S
Co266 O279 2.244 . S
O267 Co266 2.216 . S
O267 C274 1.247 . S
O268 Co266 2.091 . S
O268 C274 1.261 . S
C269 O278 1.247 . S
C269 O279 1.272 . S
O270 Co266 2.004 . S
O270 C275 1.259 . S
Co271 O272 2.061 . S
Co271 O277 2.052 . S
Co271 O279 2.135 . S
O272 Co271 2.061 . S
O272 C275 1.235 . S
C273 O276 1.238 . S
C273 O277 1.241 . S
C274 O267 1.247 . S
C274 O268 1.261 . S
C275 O270 1.259 . S
C275 O272 1.235 . S
O276 Co266 2.021 . S
O276 C273 1.238 . S
O277 Co271 2.052 . S
O277 C273 1.241 . S
O278 Co266 2.137 . S
O278 C269 1.247 . S
O279 Co266 2.244 . S
O279 C269 1.272 . S
O279 Co271 2.135 . S
Co280 O281 2.216 . S
Co280 O282 2.091 . S
Co280 O284 2.004 . S
Co280 O290 2.021 . S
Co280 O292 2.137 . S
Co280 O293 2.244 . S
O281 Co280 2.216 . S
O281 C288 1.247 . S
O282 Co280 2.091 . S
O282 C288 1.261 . S
C283 O292 1.247 . S
C283 O293 1.272 . S
O284 Co280 2.004 . S
O284 C289 1.259 . S
Co285 O286 2.061 . S
Co285 O291 2.052 . S
Co285 O293 2.135 . S
O286 Co285 2.061 . S
O286 C289 1.235 . S
C287 O290 1.238 . S
C287 O291 1.241 . S
C288 O281 1.247 . S
C288 O282 1.261 . S
C289 O284 1.259 . S
C289 O286 1.235 . S
O290 Co280 2.021 . S
O290 C287 1.238 . S
O291 Co285 2.052 . S
O291 C287 1.241 . S
O292 Co280 2.137 . S
O292 C283 1.247 . S
O293 Co280 2.244 . S
O293 C283 1.272 . S
O293 Co285 2.135 . S
Co294 O295 2.216 . S
Co294 O296 2.091 . S
Co294 O298 2.004 . S
Co294 O304 2.021 . S
Co294 O306 2.137 . S
Co294 O307 2.244 . S
O295 Co294 2.216 . S
O295 C302 1.247 . S
O296 Co294 2.091 . S
O296 C302 1.261 . S
C297 O306 1.247 . S
C297 O307 1.272 . S
O298 Co294 2.004 . S
O298 C303 1.259 . S
Co299 O300 2.061 . S
Co299 O305 2.052 . S
Co299 O307 2.135 . S
O300 Co299 2.061 . S
O300 C303 1.235 . S
C301 O304 1.238 . S
C301 O305 1.241 . S
C302 O295 1.247 . S
C302 O296 1.261 . S
C303 O298 1.259 . S
C303 O300 1.235 . S
O304 Co294 2.021 . S
O304 C301 1.238 . S
O305 Co299 2.052 . S
O305 C301 1.241 . S
O306 Co294 2.137 . S
O306 C297 1.247 . S
O307 Co294 2.244 . S
O307 C297 1.272 . S
O307 Co299 2.135 . S
Co308 O309 2.216 . S
Co308 O310 2.091 . S
Co308 O312 2.004 . S
Co308 O318 2.021 . S
Co308 O320 2.137 . S
Co308 O321 2.244 . S
O309 Co308 2.216 . S
O309 C316 1.247 . S
O310 Co308 2.091 . S
O310 C316 1.261 . S
C311 O320 1.247 . S
C311 O321 1.272 . S
O312 Co308 2.004 . S
O312 C317 1.259 . S
Co313 O314 2.061 . S
Co313 O319 2.052 . S
Co313 O321 2.135 . S
O314 Co313 2.061 . S
O314 C317 1.235 . S
C315 O318 1.238 . S
C315 O319 1.241 . S
C316 O309 1.247 . S
C316 O310 1.261 . S
C317 O312 1.259 . S
C317 O314 1.235 . S
O318 Co308 2.021 . S
O318 C315 1.238 . S
O319 Co313 2.052 . S
O319 C315 1.241 . S
O320 Co308 2.137 . S
O320 C311 1.247 . S
O321 Co308 2.244 . S
O321 C311 1.272 . S
O321 Co313 2.135 . S
Co322 O323 2.216 . S
Co322 O324 2.091 . S
Co322 O326 2.004 . S
Co322 O332 2.021 . S
Co322 O334 2.137 . S
Co322 O335 2.244 . S
O323 Co322 2.216 . S
O323 C330 1.247 . S
O324 Co322 2.091 . S
O324 C330 1.261 . S
C325 O334 1.247 . S
C325 O335 1.272 . S
O326 Co322 2.004 . S
O326 C331 1.259 . S
Co327 O328 2.061 . S
Co327 O333 2.052 . S
Co327 O335 2.135 . S
O328 Co327 2.061 . S
O328 C331 1.235 . S
C329 O332 1.238 . S
C329 O333 1.241 . S
C330 O323 1.247 . S
C330 O324 1.261 . S
C331 O326 1.259 . S
C331 O328 1.235 . S
O332 Co322 2.021 . S
O332 C329 1.238 . S
O333 Co327 2.052 . S
O333 C329 1.241 . S
O334 Co322 2.137 . S
O334 C325 1.247 . S
O335 Co322 2.244 . S
O335 C325 1.272 . S
O335 Co327 2.135 . S
Co336 O337 2.216 . S
Co336 O338 2.091 . S
Co336 O340 2.004 . S
Co336 O346 2.021 . S
Co336 O348 2.137 . S
Co336 O349 2.244 . S
O337 Co336 2.216 . S
O337 C344 1.247 . S
O338 Co336 2.091 . S
O338 C344 1.261 . S
C339 O348 1.247 . S
C339 O349 1.272 . S
O340 Co336 2.004 . S
O340 C345 1.259 . S
Co341 O342 2.061 . S
Co341 O347 2.052 . S
Co341 O349 2.135 . S
O342 Co341 2.061 . S
O342 C345 1.235 . S
C343 O346 1.238 . S
C343 O347 1.241 . S
C344 O337 1.247 . S
C344 O338 1.261 . S
C345 O340 1.259 . S
C345 O342 1.235 . S
O346 Co336 2.021 . S
O346 C343 1.238 . S
O347 Co341 2.052 . S
O347 C343 1.241 . S
O348 Co336 2.137 . S
O348 C339 1.247 . S
O349 Co336 2.244 . S
O349 C339 1.272 . S
O349 Co341 2.135 . S
Co350 O351 2.216 . S
Co350 O352 2.091 . S
Co350 O354 2.004 . S
Co350 O360 2.021 . S
Co350 O362 2.137 . S
Co350 O363 2.244 . S
O351 Co350 2.216 . S
O351 C358 1.247 . S
O352 Co350 2.091 . S
O352 C358 1.261 . S
C353 O362 1.247 . S
C353 O363 1.272 . S
O354 Co350 2.004 . S
O354 C359 1.259 . S
Co355 O356 2.061 . S
Co355 O361 2.052 . S
Co355 O363 2.135 . S
O356 Co355 2.061 . S
O356 C359 1.235 . S
C357 O360 1.238 . S
C357 O361 1.241 . S
C358 O351 1.247 . S
C358 O352 1.261 . S
C359 O354 1.259 . S
C359 O356 1.235 . S
O360 Co350 2.021 . S
O360 C357 1.238 . S
O361 Co355 2.052 . S
O361 C357 1.241 . S
O362 Co350 2.137 . S
O362 C353 1.247 . S
O363 Co350 2.244 . S
O363 C353 1.272 . S
O363 Co355 2.135 . S
Co364 O365 2.216 . S
Co364 O366 2.091 . S
Co364 O368 2.004 . S
Co364 O374 2.021 . S
Co364 O376 2.137 . S
Co364 O377 2.244 . S
O365 Co364 2.216 . S
O365 C372 1.247 . S
O366 Co364 2.091 . S
O366 C372 1.261 . S
C367 O376 1.247 . S
C367 O377 1.272 . S
O368 Co364 2.004 . S
O368 C373 1.259 . S
Co369 O370 2.061 . S
Co369 O375 2.052 . S
Co369 O377 2.135 . S
O370 Co369 2.061 . S
O370 C373 1.235 . S
C371 O374 1.238 . S
C371 O375 1.241 . S
C372 O365 1.247 . S
C372 O366 1.261 . S
C373 O368 1.259 . S
C373 O370 1.235 . S
O374 Co364 2.021 . S
O374 C371 1.238 . S
O375 Co369 2.052 . S
O375 C371 1.241 . S
O376 Co364 2.137 . S
O376 C367 1.247 . S
O377 Co364 2.244 . S
O377 C367 1.272 . S
O377 Co369 2.135 . S
Co378 O379 2.216 . S
Co378 O380 2.091 . S
Co378 O382 2.004 . S
Co378 O388 2.021 . S
Co378 O390 2.137 . S
Co378 O391 2.244 . S
O379 Co378 2.216 . S
O379 C386 1.247 . S
O380 Co378 2.091 . S
O380 C386 1.261 . S
C381 O390 1.247 . S
C381 O391 1.272 . S
O382 Co378 2.004 . S
O382 C387 1.259 . S
Co383 O384 2.061 . S
Co383 O389 2.052 . S
Co383 O391 2.135 . S
O384 Co383 2.061 . S
O384 C387 1.235 . S
C385 O388 1.238 . S
C385 O389 1.241 . S
C386 O379 1.247 . S
C386 O380 1.261 . S
C387 O382 1.259 . S
C387 O384 1.235 . S
O388 Co378 2.021 . S
O388 C385 1.238 . S
O389 Co383 2.052 . S
O389 C385 1.241 . S
O390 Co378 2.137 . S
O390 C381 1.247 . S
O391 Co378 2.244 . S
O391 C381 1.272 . S
O391 Co383 2.135 . S
Co392 O393 2.216 . S
Co392 O394 2.091 . S
Co392 O396 2.004 . S
Co392 O402 2.021 . S
Co392 O404 2.137 . S
Co392 O405 2.244 . S
O393 Co392 2.216 . S
O393 C400 1.247 . S
O394 Co392 2.091 . S
O394 C400 1.261 . S
C395 O404 1.247 . S
C395 O405 1.272 . S
O396 Co392 2.004 . S
O396 C401 1.259 . S
Co397 O398 2.061 . S
Co397 O403 2.052 . S
Co397 O405 2.135 . S
O398 Co397 2.061 . S
O398 C401 1.235 . S
C399 O402 1.238 . S
C399 O403 1.241 . S
C400 O393 1.247 . S
C400 O394 1.261 . S
C401 O396 1.259 . S
C401 O398 1.235 . S
O402 Co392 2.021 . S
O402 C399 1.238 . S
O403 Co397 2.052 . S
O403 C399 1.241 . S
O404 Co392 2.137 . S
O404 C395 1.247 . S
O405 Co392 2.244 . S
O405 C395 1.272 . S
O405 Co397 2.135 . S
Co406 O407 2.216 . S
Co406 O408 2.091 . S
Co406 O410 2.004 . S
Co406 O416 2.021 . S
Co406 O418 2.137 . S
Co406 O419 2.244 . S
O407 Co406 2.216 . S
O407 C414 1.247 . S
O408 Co406 2.091 . S
O408 C414 1.261 . S
C409 O418 1.247 . S
C409 O419 1.272 . S
O410 Co406 2.004 . S
O410 C415 1.259 . S
Co411 O412 2.061 . S
Co411 O417 2.052 . S
Co411 O419 2.135 . S
O412 Co411 2.061 . S
O412 C415 1.235 . S
C413 O416 1.238 . S
C413 O417 1.241 . S
C414 O407 1.247 . S
C414 O408 1.261 . S
C415 O410 1.259 . S
C415 O412 1.235 . S
O416 Co406 2.021 . S
O416 C413 1.238 . S
O417 Co411 2.052 . S
O417 C413 1.241 . S
O418 Co406 2.137 . S
O418 C409 1.247 . S
O419 Co406 2.244 . S
O419 C409 1.272 . S
O419 Co411 2.135 . S
Co420 O421 2.216 . S
Co420 O422 2.091 . S
Co420 O424 2.004 . S
Co420 O430 2.021 . S
Co420 O432 2.137 . S
Co420 O433 2.244 . S
O421 Co420 2.216 . S
O421 C428 1.247 . S
O422 Co420 2.091 . S
O422 C428 1.261 . S
C423 O432 1.247 . S
C423 O433 1.272 . S
O424 Co420 2.004 . S
O424 C429 1.259 . S
Co425 O426 2.061 . S
Co425 O431 2.052 . S
Co425 O433 2.135 . S
O426 Co425 2.061 . S
O426 C429 1.235 . S
C427 O430 1.238 . S
C427 O431 1.241 . S
C428 O421 1.247 . S
C428 O422 1.261 . S
C429 O424 1.259 . S
C429 O426 1.235 . S
O430 Co420 2.021 . S
O430 C427 1.238 . S
O431 Co425 2.052 . S
O431 C427 1.241 . S
O432 Co420 2.137 . S
O432 C423 1.247 . S
O433 Co420 2.244 . S
O433 C423 1.272 . S
O433 Co425 2.135 . S
Co434 O435 2.216 . S
Co434 O436 2.091 . S
Co434 O438 2.004 . S
Co434 O444 2.021 . S
Co434 O446 2.137 . S
Co434 O447 2.244 . S
O435 Co434 2.216 . S
O435 C442 1.247 . S
O436 Co434 2.091 . S
O436 C442 1.261 . S
C437 O446 1.247 . S
C437 O447 1.272 . S
O438 Co434 2.004 . S
O438 C443 1.259 . S
Co439 O440 2.061 . S
Co439 O445 2.052 . S
Co439 O447 2.135 . S
O440 Co439 2.061 . S
O440 C443 1.235 . S
C441 O444 1.238 . S
C441 O445 1.241 . S
C442 O435 1.247 . S
C442 O436 1.261 . S
C443 O438 1.259 . S
C443 O440 1.235 . S
O444 Co434 2.021 . S
O444 C441 1.238 . S
O445 Co439 2.052 . S
O445 C441 1.241 . S
O446 Co434 2.137 . S
O446 C437 1.247 . S
O447 Co434 2.244 . S
O447 C437 1.272 . S
O447 Co439 2.135 . S
H448 C466 0.951 . S
H449 C468 0.951 . S
H450 C470 0.950 . S
H451 C471 0.950 . S
H452 C473 0.950 . S
H453 C476 0.950 . S
H454 C477 0.950 . S
H455 C479 0.950 . S
H456 C480 0.950 . S
H457 C481 0.951 . S
H458 C483 0.951 . S
H459 C485 0.950 . S
H460 C486 0.950 . S
H461 C488 0.950 . S
H462 C491 0.950 . S
H463 C492 0.950 . S
H464 C494 0.950 . S
H465 C495 0.950 . S
C466 H448 0.951 . S
C466 C467 1.366 . S
C466 C468 1.388 . S
C467 C466 1.366 . S
C467 C471 1.385 . S
C468 H449 0.951 . S
C468 C466 1.388 . S
C468 C469 1.366 . S
C469 C468 1.366 . S
C469 C470 1.414 . S
C469 C472 1.499 . S
C470 H450 0.950 . S
C470 C469 1.414 . S
C470 C471 1.374 . S
C471 H451 0.950 . S
C471 C467 1.385 . S
C471 C470 1.374 . S
C472 C469 1.499 . S
C472 C473 1.373 . S
C472 C474 1.389 . S
C473 H452 0.950 . S
C473 C472 1.373 . S
C473 C489 1.377 . S
C474 C472 1.389 . S
C474 C475 1.524 . S
C474 C488 1.377 . S
C475 C474 1.524 . S
C475 C476 1.397 . S
C475 C480 1.363 . S
C476 H453 0.950 . S
C476 C475 1.397 . S
C476 C477 1.334 . S
C477 H454 0.950 . S
C477 C476 1.334 . S
C477 C478 1.287 . S
C478 C477 1.287 . S
C478 C479 1.524 . S
C478 H497 0.913 . S
C479 H455 0.950 . S
C479 C478 1.524 . S
C479 C480 1.415 . S
C480 H456 0.950 . S
C480 C475 1.363 . S
C480 C479 1.415 . S
C481 H457 0.951 . S
C481 C482 1.366 . S
C481 C483 1.388 . S
C482 C481 1.366 . S
C482 C486 1.385 . S
C483 H458 0.951 . S
C483 C481 1.388 . S
C483 C484 1.366 . S
C484 C483 1.366 . S
C484 C485 1.414 . S
C484 C487 1.499 . S
C485 H459 0.950 . S
C485 C484 1.414 . S
C485 C486 1.374 . S
C486 H460 0.950 . S
C486 C482 1.385 . S
C486 C485 1.374 . S
C487 C484 1.499 . S
C487 C488 1.373 . S
C487 C489 1.389 . S
C488 H461 0.950 . S
C488 C474 1.377 . S
C488 C487 1.373 . S
C489 C473 1.377 . S
C489 C487 1.389 . S
C489 C490 1.524 . S
C490 C489 1.524 . S
C490 C491 1.397 . S
C490 C495 1.363 . S
C491 H462 0.950 . S
C491 C490 1.397 . S
C491 C492 1.334 . S
C492 H463 0.950 . S
C492 C491 1.334 . S
C492 C493 1.287 . S
C493 C492 1.287 . S
C493 C494 1.524 . S
C493 H496 0.999 . S
C494 H464 0.950 . S
C494 C493 1.524 . S
C494 C495 1.415 . S
C495 H465 0.950 . S
C495 C490 1.363 . S
C495 C494 1.415 . S
H496 C493 0.999 . S
H497 C478 0.913 . S
H498 C516 0.951 . S
H499 C518 0.951 . S
H500 C520 0.950 . S
H501 C521 0.950 . S
H502 C523 0.950 . S
H503 C526 0.950 . S
H504 C527 0.950 . S
H505 C529 0.950 . S
H506 C530 0.950 . S
H507 C531 0.951 . S
H508 C533 0.951 . S
H509 C535 0.950 . S
H510 C536 0.950 . S
H511 C538 0.950 . S
H512 C541 0.950 . S
H513 C542 0.950 . S
H514 C544 0.950 . S
H515 C545 0.950 . S
C516 H498 0.951 . S
C516 C517 1.366 . S
C516 C518 1.388 . S
C517 C516 1.366 . S
C517 C521 1.385 . S
C518 H499 0.951 . S
C518 C516 1.388 . S
C518 C519 1.366 . S
C519 C518 1.366 . S
C519 C520 1.414 . S
C519 C522 1.499 . S
C520 H500 0.950 . S
C520 C519 1.414 . S
C520 C521 1.374 . S
C521 H501 0.950 . S
C521 C517 1.385 . S
C521 C520 1.374 . S
C522 C519 1.499 . S
C522 C523 1.373 . S
C522 C524 1.389 . S
C523 H502 0.950 . S
C523 C522 1.373 . S
C523 C539 1.377 . S
C524 C522 1.389 . S
C524 C525 1.524 . S
C524 C538 1.377 . S
C525 C524 1.524 . S
C525 C526 1.397 . S
C525 C530 1.363 . S
C526 H503 0.950 . S
C526 C525 1.397 . S
C526 C527 1.334 . S
C527 H504 0.950 . S
C527 C526 1.334 . S
C527 C528 1.287 . S
C528 C527 1.287 . S
C528 C529 1.524 . S
C528 H547 0.913 . S
C529 H505 0.950 . S
C529 C528 1.524 . S
C529 C530 1.415 . S
C530 H506 0.950 . S
C530 C525 1.363 . S
C530 C529 1.415 . S
C531 H507 0.951 . S
C531 C532 1.366 . S
C531 C533 1.388 . S
C532 C531 1.366 . S
C532 C536 1.385 . S
C533 H508 0.951 . S
C533 C531 1.388 . S
C533 C534 1.366 . S
C534 C533 1.366 . S
C534 C535 1.414 . S
C534 C537 1.499 . S
C535 H509 0.950 . S
C535 C534 1.414 . S
C535 C536 1.374 . S
C536 H510 0.950 . S
C536 C532 1.385 . S
C536 C535 1.374 . S
C537 C534 1.499 . S
C537 C538 1.373 . S
C537 C539 1.389 . S
C538 H511 0.950 . S
C538 C524 1.377 . S
C538 C537 1.373 . S
C539 C523 1.377 . S
C539 C537 1.389 . S
C539 C540 1.524 . S
C540 C539 1.524 . S
C540 C541 1.397 . S
C540 C545 1.363 . S
C541 H512 0.950 . S
C541 C540 1.397 . S
C541 C542 1.334 . S
C542 H513 0.950 . S
C542 C541 1.334 . S
C542 C543 1.287 . S
C543 C542 1.287 . S
C543 C544 1.524 . S
C543 H546 0.999 . S
C544 H514 0.950 . S
C544 C543 1.524 . S
C544 C545 1.415 . S
C545 H515 0.950 . S
C545 C540 1.363 . S
C545 C544 1.415 . S
H546 C543 0.999 . S
H547 C528 0.913 . S
H548 C566 0.951 . S
H549 C568 0.951 . S
H550 C570 0.950 . S
H551 C571 0.950 . S
H552 C573 0.950 . S
H553 C576 0.950 . S
H554 C577 0.950 . S
H555 C579 0.950 . S
H556 C580 0.950 . S
H557 C581 0.951 . S
H558 C583 0.951 . S
H559 C585 0.950 . S
H560 C586 0.950 . S
H561 C588 0.950 . S
H562 C591 0.950 . S
H563 C592 0.950 . S
H564 C594 0.950 . S
H565 C595 0.950 . S
C566 H548 0.951 . S
C566 C567 1.366 . S
C566 C568 1.388 . S
C567 C566 1.366 . S
C567 C571 1.385 . S
C568 H549 0.951 . S
C568 C566 1.388 . S
C568 C569 1.366 . S
C569 C568 1.366 . S
C569 C570 1.414 . S
C569 C572 1.499 . S
C570 H550 0.950 . S
C570 C569 1.414 . S
C570 C571 1.374 . S
C571 H551 0.950 . S
C571 C567 1.385 . S
C571 C570 1.374 . S
C572 C569 1.499 . S
C572 C573 1.373 . S
C572 C574 1.389 . S
C573 H552 0.950 . S
C573 C572 1.373 . S
C573 C589 1.377 . S
C574 C572 1.389 . S
C574 C575 1.524 . S
C574 C588 1.377 . S
C575 C574 1.524 . S
C575 C576 1.397 . S
C575 C580 1.363 . S
C576 H553 0.950 . S
C576 C575 1.397 . S
C576 C577 1.334 . S
C577 H554 0.950 . S
C577 C576 1.334 . S
C577 C578 1.287 . S
C578 C577 1.287 . S
C578 C579 1.524 . S
C578 H597 0.913 . S
C579 H555 0.950 . S
C579 C578 1.524 . S
C579 C580 1.415 . S
C580 H556 0.950 . S
C580 C575 1.363 . S
C580 C579 1.415 . S
C581 H557 0.951 . S
C581 C582 1.366 . S
C581 C583 1.388 . S
C582 C581 1.366 . S
C582 C586 1.385 . S
C583 H558 0.951 . S
C583 C581 1.388 . S
C583 C584 1.366 . S
C584 C583 1.366 . S
C584 C585 1.414 . S
C584 C587 1.499 . S
C585 H559 0.950 . S
C585 C584 1.414 . S
C585 C586 1.374 . S
C586 H560 0.950 . S
C586 C582 1.385 . S
C586 C585 1.374 . S
C587 C584 1.499 . S
C587 C588 1.373 . S
C587 C589 1.389 . S
C588 H561 0.950 . S
C588 C574 1.377 . S
C588 C587 1.373 . S
C589 C573 1.377 . S
C589 C587 1.389 . S
C589 C590 1.524 . S
C590 C589 1.524 . S
C590 C591 1.397 . S
C590 C595 1.363 . S
C591 H562 0.950 . S
C591 C590 1.397 . S
C591 C592 1.334 . S
C592 H563 0.950 . S
C592 C591 1.334 . S
C592 C593 1.287 . S
C593 C592 1.287 . S
C593 C594 1.524 . S
C593 H596 0.999 . S
C594 H564 0.950 . S
C594 C593 1.524 . S
C594 C595 1.415 . S
C595 H565 0.950 . S
C595 C590 1.363 . S
C595 C594 1.415 . S
H596 C593 0.999 . S
H597 C578 0.913 . S
H598 C616 0.951 . S
H599 C618 0.951 . S
H600 C620 0.950 . S
H601 C621 0.950 . S
H602 C623 0.950 . S
H603 C626 0.950 . S
H604 C627 0.950 . S
H605 C629 0.950 . S
H606 C630 0.950 . S
H607 C631 0.951 . S
H608 C633 0.951 . S
H609 C635 0.950 . S
H610 C636 0.950 . S
H611 C638 0.950 . S
H612 C641 0.950 . S
H613 C642 0.950 . S
H614 C644 0.950 . S
H615 C645 0.950 . S
C616 H598 0.951 . S
C616 C617 1.366 . S
C616 C618 1.388 . S
C617 C616 1.366 . S
C617 C621 1.385 . S
C618 H599 0.951 . S
C618 C616 1.388 . S
C618 C619 1.366 . S
C619 C618 1.366 . S
C619 C620 1.414 . S
C619 C622 1.499 . S
C620 H600 0.950 . S
C620 C619 1.414 . S
C620 C621 1.374 . S
C621 H601 0.950 . S
C621 C617 1.385 . S
C621 C620 1.374 . S
C622 C619 1.499 . S
C622 C623 1.373 . S
C622 C624 1.389 . S
C623 H602 0.950 . S
C623 C622 1.373 . S
C623 C639 1.377 . S
C624 C622 1.389 . S
C624 C625 1.524 . S
C624 C638 1.377 . S
C625 C624 1.524 . S
C625 C626 1.397 . S
C625 C630 1.363 . S
C626 H603 0.950 . S
C626 C625 1.397 . S
C626 C627 1.334 . S
C627 H604 0.950 . S
C627 C626 1.334 . S
C627 C628 1.287 . S
C628 C627 1.287 . S
C628 C629 1.524 . S
C628 H647 0.913 . S
C629 H605 0.950 . S
C629 C628 1.524 . S
C629 C630 1.415 . S
C630 H606 0.950 . S
C630 C625 1.363 . S
C630 C629 1.415 . S
C631 H607 0.951 . S
C631 C632 1.366 . S
C631 C633 1.388 . S
C632 C631 1.366 . S
C632 C636 1.385 . S
C633 H608 0.951 . S
C633 C631 1.388 . S
C633 C634 1.366 . S
C634 C633 1.366 . S
C634 C635 1.414 . S
C634 C637 1.499 . S
C635 H609 0.950 . S
C635 C634 1.414 . S
C635 C636 1.374 . S
C636 H610 0.950 . S
C636 C632 1.385 . S
C636 C635 1.374 . S
C637 C634 1.499 . S
C637 C638 1.373 . S
C637 C639 1.389 . S
C638 H611 0.950 . S
C638 C624 1.377 . S
C638 C637 1.373 . S
C639 C623 1.377 . S
C639 C637 1.389 . S
C639 C640 1.524 . S
C640 C639 1.524 . S
C640 C641 1.397 . S
C640 C645 1.363 . S
C641 H612 0.950 . S
C641 C640 1.397 . S
C641 C642 1.334 . S
C642 H613 0.950 . S
C642 C641 1.334 . S
C642 C643 1.287 . S
C643 C642 1.287 . S
C643 C644 1.524 . S
C643 H646 0.999 . S
C644 H614 0.950 . S
C644 C643 1.524 . S
C644 C645 1.415 . S
C645 H615 0.950 . S
C645 C640 1.363 . S
C645 C644 1.415 . S
H646 C643 0.999 . S
H647 C628 0.913 . S
H648 C666 0.951 . S
H649 C668 0.951 . S
H650 C670 0.950 . S
H651 C671 0.950 . S
H652 C673 0.950 . S
H653 C676 0.950 . S
H654 C677 0.950 . S
H655 C679 0.950 . S
H656 C680 0.950 . S
H657 C681 0.951 . S
H658 C683 0.951 . S
H659 C685 0.950 . S
H660 C686 0.950 . S
H661 C688 0.950 . S
H662 C691 0.950 . S
H663 C692 0.950 . S
H664 C694 0.950 . S
H665 C695 0.950 . S
C666 H648 0.951 . S
C666 C667 1.366 . S
C666 C668 1.388 . S
C667 C666 1.366 . S
C667 C671 1.385 . S
C668 H649 0.951 . S
C668 C666 1.388 . S
C668 C669 1.366 . S
C669 C668 1.366 . S
C669 C670 1.414 . S
C669 C672 1.499 . S
C670 H650 0.950 . S
C670 C669 1.414 . S
C670 C671 1.374 . S
C671 H651 0.950 . S
C671 C667 1.385 . S
C671 C670 1.374 . S
C672 C669 1.499 . S
C672 C673 1.373 . S
C672 C674 1.389 . S
C673 H652 0.950 . S
C673 C672 1.373 . S
C673 C689 1.377 . S
C674 C672 1.389 . S
C674 C675 1.524 . S
C674 C688 1.377 . S
C675 C674 1.524 . S
C675 C676 1.397 . S
C675 C680 1.363 . S
C676 H653 0.950 . S
C676 C675 1.397 . S
C676 C677 1.334 . S
C677 H654 0.950 . S
C677 C676 1.334 . S
C677 C678 1.287 . S
C678 C677 1.287 . S
C678 C679 1.524 . S
C678 H697 0.913 . S
C679 H655 0.950 . S
C679 C678 1.524 . S
C679 C680 1.415 . S
C680 H656 0.950 . S
C680 C675 1.363 . S
C680 C679 1.415 . S
C681 H657 0.951 . S
C681 C682 1.366 . S
C681 C683 1.388 . S
C682 C681 1.366 . S
C682 C686 1.385 . S
C683 H658 0.951 . S
C683 C681 1.388 . S
C683 C684 1.366 . S
C684 C683 1.366 . S
C684 C685 1.414 . S
C684 C687 1.499 . S
C685 H659 0.950 . S
C685 C684 1.414 . S
C685 C686 1.374 . S
C686 H660 0.950 . S
C686 C682 1.385 . S
C686 C685 1.374 . S
C687 C684 1.499 . S
C687 C688 1.373 . S
C687 C689 1.389 . S
C688 H661 0.950 . S
C688 C674 1.377 . S
C688 C687 1.373 . S
C689 C673 1.377 . S
C689 C687 1.389 . S
C689 C690 1.524 . S
C690 C689 1.524 . S
C690 C691 1.397 . S
C690 C695 1.363 . S
C691 H662 0.950 . S
C691 C690 1.397 . S
C691 C692 1.334 . S
C692 H663 0.950 . S
C692 C691 1.334 . S
C692 C693 1.287 . S
C693 C692 1.287 . S
C693 C694 1.524 . S
C693 H696 0.999 . S
C694 H664 0.950 . S
C694 C693 1.524 . S
C694 C695 1.415 . S
C695 H665 0.950 . S
C695 C690 1.363 . S
C695 C694 1.415 . S
H696 C693 0.999 . S
H697 C678 0.913 . S
H698 C716 0.951 . S
H699 C718 0.951 . S
H700 C720 0.950 . S
H701 C721 0.950 . S
H702 C723 0.950 . S
H703 C726 0.950 . S
H704 C727 0.950 . S
H705 C729 0.950 . S
H706 C730 0.950 . S
H707 C731 0.951 . S
H708 C733 0.951 . S
H709 C735 0.950 . S
H710 C736 0.950 . S
H711 C738 0.950 . S
H712 C741 0.950 . S
H713 C742 0.950 . S
H714 C744 0.950 . S
H715 C745 0.950 . S
C716 H698 0.951 . S
C716 C717 1.366 . S
C716 C718 1.388 . S
C717 C716 1.366 . S
C717 C721 1.385 . S
C718 H699 0.951 . S
C718 C716 1.388 . S
C718 C719 1.366 . S
C719 C718 1.366 . S
C719 C720 1.414 . S
C719 C722 1.499 . S
C720 H700 0.950 . S
C720 C719 1.414 . S
C720 C721 1.374 . S
C721 H701 0.950 . S
C721 C717 1.385 . S
C721 C720 1.374 . S
C722 C719 1.499 . S
C722 C723 1.373 . S
C722 C724 1.389 . S
C723 H702 0.950 . S
C723 C722 1.373 . S
C723 C739 1.377 . S
C724 C722 1.389 . S
C724 C725 1.524 . S
C724 C738 1.377 . S
C725 C724 1.524 . S
C725 C726 1.397 . S
C725 C730 1.363 . S
C726 H703 0.950 . S
C726 C725 1.397 . S
C726 C727 1.334 . S
C727 H704 0.950 . S
C727 C726 1.334 . S
C727 C728 1.287 . S
C728 C727 1.287 . S
C728 C729 1.524 . S
C728 H747 0.913 . S
C729 H705 0.950 . S
C729 C728 1.524 . S
C729 C730 1.415 . S
C730 H706 0.950 . S
C730 C725 1.363 . S
C730 C729 1.415 . S
C731 H707 0.951 . S
C731 C732 1.366 . S
C731 C733 1.388 . S
C732 C731 1.366 . S
C732 C736 1.385 . S
C733 H708 0.951 . S
C733 C731 1.388 . S
C733 C734 1.366 . S
C734 C733 1.366 . S
C734 C735 1.414 . S
C734 C737 1.499 . S
C735 H709 0.950 . S
C735 C734 1.414 . S
C735 C736 1.374 . S
C736 H710 0.950 . S
C736 C732 1.385 . S
C736 C735 1.374 . S
C737 C734 1.499 . S
C737 C738 1.373 . S
C737 C739 1.389 . S
C738 H711 0.950 . S
C738 C724 1.377 . S
C738 C737 1.373 . S
C739 C723 1.377 . S
C739 C737 1.389 . S
C739 C740 1.524 . S
C740 C739 1.524 . S
C740 C741 1.397 . S
C740 C745 1.363 . S
C741 H712 0.950 . S
C741 C740 1.397 . S
C741 C742 1.334 . S
C742 H713 0.950 . S
C742 C741 1.334 . S
C742 C743 1.287 . S
C743 C742 1.287 . S
C743 C744 1.524 . S
C743 H746 0.999 . S
C744 H714 0.950 . S
C744 C743 1.524 . S
C744 C745 1.415 . S
C745 H715 0.950 . S
C745 C740 1.363 . S
C745 C744 1.415 . S
H746 C743 0.999 . S
H747 C728 0.913 . S
H748 C766 0.951 . S
H749 C768 0.951 . S
H750 C770 0.950 . S
H751 C771 0.950 . S
H752 C773 0.950 . S
H753 C776 0.950 . S
H754 C777 0.950 . S
H755 C779 0.950 . S
H756 C780 0.950 . S
H757 C781 0.951 . S
H758 C783 0.951 . S
H759 C785 0.950 . S
H760 C786 0.950 . S
H761 C788 0.950 . S
H762 C791 0.950 . S
H763 C792 0.950 . S
H764 C794 0.950 . S
H765 C795 0.950 . S
C766 H748 0.951 . S
C766 C767 1.366 . S
C766 C768 1.388 . S
C767 C766 1.366 . S
C767 C771 1.385 . S
C768 H749 0.951 . S
C768 C766 1.388 . S
C768 C769 1.366 . S
C769 C768 1.366 . S
C769 C770 1.414 . S
C769 C772 1.499 . S
C770 H750 0.950 . S
C770 C769 1.414 . S
C770 C771 1.374 . S
C771 H751 0.950 . S
C771 C767 1.385 . S
C771 C770 1.374 . S
C772 C769 1.499 . S
C772 C773 1.373 . S
C772 C774 1.389 . S
C773 H752 0.950 . S
C773 C772 1.373 . S
C773 C789 1.377 . S
C774 C772 1.389 . S
C774 C775 1.524 . S
C774 C788 1.377 . S
C775 C774 1.524 . S
C775 C776 1.397 . S
C775 C780 1.363 . S
C776 H753 0.950 . S
C776 C775 1.397 . S
C776 C777 1.334 . S
C777 H754 0.950 . S
C777 C776 1.334 . S
C777 C778 1.287 . S
C778 C777 1.287 . S
C778 C779 1.524 . S
C778 H797 0.913 . S
C779 H755 0.950 . S
C779 C778 1.524 . S
C779 C780 1.415 . S
C780 H756 0.950 . S
C780 C775 1.363 . S
C780 C779 1.415 . S
C781 H757 0.951 . S
C781 C782 1.366 . S
C781 C783 1.388 . S
C782 C781 1.366 . S
C782 C786 1.385 . S
C783 H758 0.951 . S
C783 C781 1.388 . S
C783 C784 1.366 . S
C784 C783 1.366 . S
C784 C785 1.414 . S
C784 C787 1.499 . S
C785 H759 0.950 . S
C785 C784 1.414 . S
C785 C786 1.374 . S
C786 H760 0.950 . S
C786 C782 1.385 . S
C786 C785 1.374 . S
C787 C784 1.499 . S
C787 C788 1.373 . S
C787 C789 1.389 . S
C788 H761 0.950 . S
C788 C774 1.377 . S
C788 C787 1.373 . S
C789 C773 1.377 . S
C789 C787 1.389 . S
C789 C790 1.524 . S
C790 C789 1.524 . S
C790 C791 1.397 . S
C790 C795 1.363 . S
C791 H762 0.950 . S
C791 C790 1.397 . S
C791 C792 1.334 . S
C792 H763 0.950 . S
C792 C791 1.334 . S
C792 C793 1.287 . S
C793 C792 1.287 . S
C793 C794 1.524 . S
C793 H796 0.999 . S
C794 H764 0.950 . S
C794 C793 1.524 . S
C794 C795 1.415 . S
C795 H765 0.950 . S
C795 C790 1.363 . S
C795 C794 1.415 . S
H796 C793 0.999 . S
H797 C778 0.913 . S
H798 C816 0.951 . S
H799 C818 0.951 . S
H800 C820 0.950 . S
H801 C821 0.950 . S
H802 C823 0.950 . S
H803 C826 0.950 . S
H804 C827 0.950 . S
H805 C829 0.950 . S
H806 C830 0.950 . S
H807 C831 0.951 . S
H808 C833 0.951 . S
H809 C835 0.950 . S
H810 C836 0.950 . S
H811 C838 0.950 . S
H812 C841 0.950 . S
H813 C842 0.950 . S
H814 C844 0.950 . S
H815 C845 0.950 . S
C816 H798 0.951 . S
C816 C817 1.366 . S
C816 C818 1.388 . S
C817 C816 1.366 . S
C817 C821 1.385 . S
C818 H799 0.951 . S
C818 C816 1.388 . S
C818 C819 1.366 . S
C819 C818 1.366 . S
C819 C820 1.414 . S
C819 C822 1.499 . S
C820 H800 0.950 . S
C820 C819 1.414 . S
C820 C821 1.374 . S
C821 H801 0.950 . S
C821 C817 1.385 . S
C821 C820 1.374 . S
C822 C819 1.499 . S
C822 C823 1.373 . S
C822 C824 1.389 . S
C823 H802 0.950 . S
C823 C822 1.373 . S
C823 C839 1.377 . S
C824 C822 1.389 . S
C824 C825 1.524 . S
C824 C838 1.377 . S
C825 C824 1.524 . S
C825 C826 1.397 . S
C825 C830 1.363 . S
C826 H803 0.950 . S
C826 C825 1.397 . S
C826 C827 1.334 . S
C827 H804 0.950 . S
C827 C826 1.334 . S
C827 C828 1.287 . S
C828 C827 1.287 . S
C828 C829 1.524 . S
C828 H847 0.913 . S
C829 H805 0.950 . S
C829 C828 1.524 . S
C829 C830 1.415 . S
C830 H806 0.950 . S
C830 C825 1.363 . S
C830 C829 1.415 . S
C831 H807 0.951 . S
C831 C832 1.366 . S
C831 C833 1.388 . S
C832 C831 1.366 . S
C832 C836 1.385 . S
C833 H808 0.951 . S
C833 C831 1.388 . S
C833 C834 1.366 . S
C834 C833 1.366 . S
C834 C835 1.414 . S
C834 C837 1.499 . S
C835 H809 0.950 . S
C835 C834 1.414 . S
C835 C836 1.374 . S
C836 H810 0.950 . S
C836 C832 1.385 . S
C836 C835 1.374 . S
C837 C834 1.499 . S
C837 C838 1.373 . S
C837 C839 1.389 . S
C838 H811 0.950 . S
C838 C824 1.377 . S
C838 C837 1.373 . S
C839 C823 1.377 . S
C839 C837 1.389 . S
C839 C840 1.524 . S
C840 C839 1.524 . S
C840 C841 1.397 . S
C840 C845 1.363 . S
C841 H812 0.950 . S
C841 C840 1.397 . S
C841 C842 1.334 . S
C842 H813 0.950 . S
C842 C841 1.334 . S
C842 C843 1.287 . S
C843 C842 1.287 . S
C843 C844 1.524 . S
C843 H846 0.999 . S
C844 H814 0.950 . S
C844 C843 1.524 . S
C844 C845 1.415 . S
C845 H815 0.950 . S
C845 C840 1.363 . S
C845 C844 1.415 . S
H846 C843 0.999 . S
H847 C828 0.913 . S
H848 C866 0.951 . S
H849 C868 0.951 . S
H850 C870 0.950 . S
H851 C871 0.950 . S
H852 C873 0.950 . S
H853 C876 0.950 . S
H854 C877 0.950 . S
H855 C879 0.950 . S
H856 C880 0.950 . S
H857 C881 0.951 . S
H858 C883 0.951 . S
H859 C885 0.950 . S
H860 C886 0.950 . S
H861 C888 0.950 . S
H862 C891 0.950 . S
H863 C892 0.950 . S
H864 C894 0.950 . S
H865 C895 0.950 . S
C866 H848 0.951 . S
C866 C867 1.366 . S
C866 C868 1.388 . S
C867 C866 1.366 . S
C867 C871 1.385 . S
C868 H849 0.951 . S
C868 C866 1.388 . S
C868 C869 1.366 . S
C869 C868 1.366 . S
C869 C870 1.414 . S
C869 C872 1.499 . S
C870 H850 0.950 . S
C870 C869 1.414 . S
C870 C871 1.374 . S
C871 H851 0.950 . S
C871 C867 1.385 . S
C871 C870 1.374 . S
C872 C869 1.499 . S
C872 C873 1.373 . S
C872 C874 1.389 . S
C873 H852 0.950 . S
C873 C872 1.373 . S
C873 C889 1.377 . S
C874 C872 1.389 . S
C874 C875 1.524 . S
C874 C888 1.377 . S
C875 C874 1.524 . S
C875 C876 1.397 . S
C875 C880 1.363 . S
C876 H853 0.950 . S
C876 C875 1.397 . S
C876 C877 1.334 . S
C877 H854 0.950 . S
C877 C876 1.334 . S
C877 C878 1.287 . S
C878 C877 1.287 . S
C878 C879 1.524 . S
C878 H897 0.913 . S
C879 H855 0.950 . S
C879 C878 1.524 . S
C879 C880 1.415 . S
C880 H856 0.950 . S
C880 C875 1.363 . S
C880 C879 1.415 . S
C881 H857 0.951 . S
C881 C882 1.366 . S
C881 C883 1.388 . S
C882 C881 1.366 . S
C882 C886 1.385 . S
C883 H858 0.951 . S
C883 C881 1.388 . S
C883 C884 1.366 . S
C884 C883 1.366 . S
C884 C885 1.414 . S
C884 C887 1.499 . S
C885 H859 0.950 . S
C885 C884 1.414 . S
C885 C886 1.374 . S
C886 H860 0.950 . S
C886 C882 1.385 . S
C886 C885 1.374 . S
C887 C884 1.499 . S
C887 C888 1.373 . S
C887 C889 1.389 . S
C888 H861 0.950 . S
C888 C874 1.377 . S
C888 C887 1.373 . S
C889 C873 1.377 . S
C889 C887 1.389 . S
C889 C890 1.524 . S
C890 C889 1.524 . S
C890 C891 1.397 . S
C890 C895 1.363 . S
C891 H862 0.950 . S
C891 C890 1.397 . S
C891 C892 1.334 . S
C892 H863 0.950 . S
C892 C891 1.334 . S
C892 C893 1.287 . S
C893 C892 1.287 . S
C893 C894 1.524 . S
C893 H896 0.999 . S
C894 H864 0.950 . S
C894 C893 1.524 . S
C894 C895 1.415 . S
C895 H865 0.950 . S
C895 C890 1.363 . S
C895 C894 1.415 . S
H896 C893 0.999 . S
H897 C878 0.913 . S
H898 C916 0.951 . S
H899 C918 0.951 . S
H900 C920 0.950 . S
H901 C921 0.950 . S
H902 C923 0.950 . S
H903 C926 0.950 . S
H904 C927 0.950 . S
H905 C929 0.950 . S
H906 C930 0.950 . S
H907 C931 0.951 . S
H908 C933 0.951 . S
H909 C935 0.950 . S
H910 C936 0.950 . S
H911 C938 0.950 . S
H912 C941 0.950 . S
H913 C942 0.950 . S
H914 C944 0.950 . S
H915 C945 0.950 . S
C916 H898 0.951 . S
C916 C917 1.366 . S
C916 C918 1.388 . S
C917 C916 1.366 . S
C917 C921 1.385 . S
C918 H899 0.951 . S
C918 C916 1.388 . S
C918 C919 1.366 . S
C919 C918 1.366 . S
C919 C920 1.414 . S
C919 C922 1.499 . S
C920 H900 0.950 . S
C920 C919 1.414 . S
C920 C921 1.374 . S
C921 H901 0.950 . S
C921 C917 1.385 . S
C921 C920 1.374 . S
C922 C919 1.499 . S
C922 C923 1.373 . S
C922 C924 1.389 . S
C923 H902 0.950 . S
C923 C922 1.373 . S
C923 C939 1.377 . S
C924 C922 1.389 . S
C924 C925 1.524 . S
C924 C938 1.377 . S
C925 C924 1.524 . S
C925 C926 1.397 . S
C925 C930 1.363 . S
C926 H903 0.950 . S
C926 C925 1.397 . S
C926 C927 1.334 . S
C927 H904 0.950 . S
C927 C926 1.334 . S
C927 C928 1.287 . S
C928 C927 1.287 . S
C928 C929 1.524 . S
C928 H947 0.913 . S
C929 H905 0.950 . S
C929 C928 1.524 . S
C929 C930 1.415 . S
C930 H906 0.950 . S
C930 C925 1.363 . S
C930 C929 1.415 . S
C931 H907 0.951 . S
C931 C932 1.366 . S
C931 C933 1.388 . S
C932 C931 1.366 . S
C932 C936 1.385 . S
C933 H908 0.951 . S
C933 C931 1.388 . S
C933 C934 1.366 . S
C934 C933 1.366 . S
C934 C935 1.414 . S
C934 C937 1.499 . S
C935 H909 0.950 . S
C935 C934 1.414 . S
C935 C936 1.374 . S
C936 H910 0.950 . S
C936 C932 1.385 . S
C936 C935 1.374 . S
C937 C934 1.499 . S
C937 C938 1.373 . S
C937 C939 1.389 . S
C938 H911 0.950 . S
C938 C924 1.377 . S
C938 C937 1.373 . S
C939 C923 1.377 . S
C939 C937 1.389 . S
C939 C940 1.524 . S
C940 C939 1.524 . S
C940 C941 1.397 . S
C940 C945 1.363 . S
C941 H912 0.950 . S
C941 C940 1.397 . S
C941 C942 1.334 . S
C942 H913 0.950 . S
C942 C941 1.334 . S
C942 C943 1.287 . S
C943 C942 1.287 . S
C943 C944 1.524 . S
C943 H946 0.999 . S
C944 H914 0.950 . S
C944 C943 1.524 . S
C944 C945 1.415 . S
C945 H915 0.950 . S
C945 C940 1.363 . S
C945 C944 1.415 . S
H946 C943 0.999 . S
H947 C928 0.913 . S
H948 C966 0.951 . S
H949 C968 0.951 . S
H950 C970 0.950 . S
H951 C971 0.950 . S
H952 C973 0.950 . S
H953 C976 0.950 . S
H954 C977 0.950 . S
H955 C979 0.950 . S
H956 C980 0.950 . S
H957 C981 0.951 . S
H958 C983 0.951 . S
H959 C985 0.950 . S
H960 C986 0.950 . S
H961 C988 0.950 . S
H962 C991 0.950 . S
H963 C992 0.950 . S
H964 C994 0.950 . S
H965 C995 0.950 . S
C966 H948 0.951 . S
C966 C967 1.366 . S
C966 C968 1.388 . S
C967 C966 1.366 . S
C967 C971 1.385 . S
C968 H949 0.951 . S
C968 C966 1.388 . S
C968 C969 1.366 . S
C969 C968 1.366 . S
C969 C970 1.414 . S
C969 C972 1.499 . S
C970 H950 0.950 . S
C970 C969 1.414 . S
C970 C971 1.374 . S
C971 H951 0.950 . S
C971 C967 1.385 . S
C971 C970 1.374 . S
C972 C969 1.499 . S
C972 C973 1.373 . S
C972 C974 1.389 . S
C973 H952 0.950 . S
C973 C972 1.373 . S
C973 C989 1.377 . S
C974 C972 1.389 . S
C974 C975 1.524 . S
C974 C988 1.377 . S
C975 C974 1.524 . S
C975 C976 1.397 . S
C975 C980 1.363 . S
C976 H953 0.950 . S
C976 C975 1.397 . S
C976 C977 1.334 . S
C977 H954 0.950 . S
C977 C976 1.334 . S
C977 C978 1.287 . S
C978 C977 1.287 . S
C978 C979 1.524 . S
C978 H997 0.913 . S
C979 H955 0.950 . S
C979 C978 1.524 . S
C979 C980 1.415 . S
C980 H956 0.950 . S
C980 C975 1.363 . S
C980 C979 1.415 . S
C981 H957 0.951 . S
C981 C982 1.366 . S
C981 C983 1.388 . S
C982 C981 1.366 . S
C982 C986 1.385 . S
C983 H958 0.951 . S
C983 C981 1.388 . S
C983 C984 1.366 . S
C984 C983 1.366 . S
C984 C985 1.414 . S
C984 C987 1.499 . S
C985 H959 0.950 . S
C985 C984 1.414 . S
C985 C986 1.374 . S
C986 H960 0.950 . S
C986 C982 1.385 . S
C986 C985 1.374 . S
C987 C984 1.499 . S
C987 C988 1.373 . S
C987 C989 1.389 . S
C988 H961 0.950 . S
C988 C974 1.377 . S
C988 C987 1.373 . S
C989 C973 1.377 . S
C989 C987 1.389 . S
C989 C990 1.524 . S
C990 C989 1.524 . S
C990 C991 1.397 . S
C990 C995 1.363 . S
C991 H962 0.950 . S
C991 C990 1.397 . S
C991 C992 1.334 . S
C992 H963 0.950 . S
C992 C991 1.334 . S
C992 C993 1.287 . S
C993 C992 1.287 . S
C993 C994 1.524 . S
C993 H996 0.999 . S
C994 H964 0.950 . S
C994 C993 1.524 . S
C994 C995 1.415 . S
C995 H965 0.950 . S
C995 C990 1.363 . S
C995 C994 1.415 . S
H996 C993 0.999 . S
H997 C978 0.913 . S
H998 C1016 0.951 . S
H999 C1018 0.951 . S
H1000 C1020 0.950 . S
H1001 C1021 0.950 . S
H1002 C1023 0.950 . S
H1003 C1026 0.950 . S
H1004 C1027 0.950 . S
H1005 C1029 0.950 . S
H1006 C1030 0.950 . S
H1007 C1031 0.951 . S
H1008 C1033 0.951 . S
H1009 C1035 0.950 . S
H1010 C1036 0.950 . S
H1011 C1038 0.950 . S
H1012 C1041 0.950 . S
H1013 C1042 0.950 . S
H1014 C1044 0.950 . S
H1015 C1045 0.950 . S
C1016 H998 0.951 . S
C1016 C1017 1.366 . S
C1016 C1018 1.388 . S
C1017 C1016 1.366 . S
C1017 C1021 1.385 . S
C1018 H999 0.951 . S
C1018 C1016 1.388 . S
C1018 C1019 1.366 . S
C1019 C1018 1.366 . S
C1019 C1020 1.414 . S
C1019 C1022 1.499 . S
C1020 H1000 0.950 . S
C1020 C1019 1.414 . S
C1020 C1021 1.374 . S
C1021 H1001 0.950 . S
C1021 C1017 1.385 . S
C1021 C1020 1.374 . S
C1022 C1019 1.499 . S
C1022 C1023 1.373 . S
C1022 C1024 1.389 . S
C1023 H1002 0.950 . S
C1023 C1022 1.373 . S
C1023 C1039 1.377 . S
C1024 C1022 1.389 . S
C1024 C1025 1.524 . S
C1024 C1038 1.377 . S
C1025 C1024 1.524 . S
C1025 C1026 1.397 . S
C1025 C1030 1.363 . S
C1026 H1003 0.950 . S
C1026 C1025 1.397 . S
C1026 C1027 1.334 . S
C1027 H1004 0.950 . S
C1027 C1026 1.334 . S
C1027 C1028 1.287 . S
C1028 C1027 1.287 . S
C1028 C1029 1.524 . S
C1028 H1047 0.913 . S
C1029 H1005 0.950 . S
C1029 C1028 1.524 . S
C1029 C1030 1.415 . S
C1030 H1006 0.950 . S
C1030 C1025 1.363 . S
C1030 C1029 1.415 . S
C1031 H1007 0.951 . S
C1031 C1032 1.366 . S
C1031 C1033 1.388 . S
C1032 C1031 1.366 . S
C1032 C1036 1.385 . S
C1033 H1008 0.951 . S
C1033 C1031 1.388 . S
C1033 C1034 1.366 . S
C1034 C1033 1.366 . S
C1034 C1035 1.414 . S
C1034 C1037 1.499 . S
C1035 H1009 0.950 . S
C1035 C1034 1.414 . S
C1035 C1036 1.374 . S
C1036 H1010 0.950 . S
C1036 C1032 1.385 . S
C1036 C1035 1.374 . S
C1037 C1034 1.499 . S
C1037 C1038 1.373 . S
C1037 C1039 1.389 . S
C1038 H1011 0.950 . S
C1038 C1024 1.377 . S
C1038 C1037 1.373 . S
C1039 C1023 1.377 . S
C1039 C1037 1.389 . S
C1039 C1040 1.524 . S
C1040 C1039 1.524 . S
C1040 C1041 1.397 . S
C1040 C1045 1.363 . S
C1041 H1012 0.950 . S
C1041 C1040 1.397 . S
C1041 C1042 1.334 . S
C1042 H1013 0.950 . S
C1042 C1041 1.334 . S
C1042 C1043 1.287 . S
C1043 C1042 1.287 . S
C1043 C1044 1.524 . S
C1043 H1046 0.999 . S
C1044 H1014 0.950 . S
C1044 C1043 1.524 . S
C1044 C1045 1.415 . S
C1045 H1015 0.950 . S
C1045 C1040 1.363 . S
C1045 C1044 1.415 . S
H1046 C1043 0.999 . S
H1047 C1028 0.913 . S
H1048 C1066 0.951 . S
H1049 C1068 0.951 . S
H1050 C1070 0.950 . S
H1051 C1071 0.950 . S
H1052 C1073 0.950 . S
H1053 C1076 0.950 . S
H1054 C1077 0.950 . S
H1055 C1079 0.950 . S
H1056 C1080 0.950 . S
H1057 C1081 0.951 . S
H1058 C1083 0.951 . S
H1059 C1085 0.950 . S
H1060 C1086 0.950 . S
H1061 C1088 0.950 . S
H1062 C1091 0.950 . S
H1063 C1092 0.950 . S
H1064 C1094 0.950 . S
H1065 C1095 0.950 . S
C1066 H1048 0.951 . S
C1066 C1067 1.366 . S
C1066 C1068 1.388 . S
C1067 C1066 1.366 . S
C1067 C1071 1.385 . S
C1068 H1049 0.951 . S
C1068 C1066 1.388 . S
C1068 C1069 1.366 . S
C1069 C1068 1.366 . S
C1069 C1070 1.414 . S
C1069 C1072 1.499 . S
C1070 H1050 0.950 . S
C1070 C1069 1.414 . S
C1070 C1071 1.374 . S
C1071 H1051 0.950 . S
C1071 C1067 1.385 . S
C1071 C1070 1.374 . S
C1072 C1069 1.499 . S
C1072 C1073 1.373 . S
C1072 C1074 1.389 . S
C1073 H1052 0.950 . S
C1073 C1072 1.373 . S
C1073 C1089 1.377 . S
C1074 C1072 1.389 . S
C1074 C1075 1.524 . S
C1074 C1088 1.377 . S
C1075 C1074 1.524 . S
C1075 C1076 1.397 . S
C1075 C1080 1.363 . S
C1076 H1053 0.950 . S
C1076 C1075 1.397 . S
C1076 C1077 1.334 . S
C1077 H1054 0.950 . S
C1077 C1076 1.334 . S
C1077 C1078 1.287 . S
C1078 C1077 1.287 . S
C1078 C1079 1.524 . S
C1078 H1097 0.913 . S
C1079 H1055 0.950 . S
C1079 C1078 1.524 . S
C1079 C1080 1.415 . S
C1080 H1056 0.950 . S
C1080 C1075 1.363 . S
C1080 C1079 1.415 . S
C1081 H1057 0.951 . S
C1081 C1082 1.366 . S
C1081 C1083 1.388 . S
C1082 C1081 1.366 . S
C1082 C1086 1.385 . S
C1083 H1058 0.951 . S
C1083 C1081 1.388 . S
C1083 C1084 1.366 . S
C1084 C1083 1.366 . S
C1084 C1085 1.414 . S
C1084 C1087 1.499 . S
C1085 H1059 0.950 . S
C1085 C1084 1.414 . S
C1085 C1086 1.374 . S
C1086 H1060 0.950 . S
C1086 C1082 1.385 . S
C1086 C1085 1.374 . S
C1087 C1084 1.499 . S
C1087 C1088 1.373 . S
C1087 C1089 1.389 . S
C1088 H1061 0.950 . S
C1088 C1074 1.377 . S
C1088 C1087 1.373 . S
C1089 C1073 1.377 . S
C1089 C1087 1.389 . S
C1089 C1090 1.524 . S
C1090 C1089 1.524 . S
C1090 C1091 1.397 . S
C1090 C1095 1.363 . S
C1091 H1062 0.950 . S
C1091 C1090 1.397 . S
C1091 C1092 1.334 . S
C1092 H1063 0.950 . S
C1092 C1091 1.334 . S
C1092 C1093 1.287 . S
C1093 C1092 1.287 . S
C1093 C1094 1.524 . S
C1093 H1096 0.999 . S
C1094 H1064 0.950 . S
C1094 C1093 1.524 . S
C1094 C1095 1.415 . S
C1095 H1065 0.950 . S
C1095 C1090 1.363 . S
C1095 C1094 1.415 . S
H1096 C1093 0.999 . S
H1097 C1078 0.913 . S
H1098 C1116 0.951 . S
H1099 C1118 0.951 . S
H1100 C1120 0.950 . S
H1101 C1121 0.950 . S
H1102 C1123 0.950 . S
H1103 C1126 0.950 . S
H1104 C1127 0.950 . S
H1105 C1129 0.950 . S
H1106 C1130 0.950 . S
H1107 C1131 0.951 . S
H1108 C1133 0.951 . S
H1109 C1135 0.950 . S
H1110 C1136 0.950 . S
H1111 C1138 0.950 . S
H1112 C1141 0.950 . S
H1113 C1142 0.950 . S
H1114 C1144 0.950 . S
H1115 C1145 0.950 . S
C1116 H1098 0.951 . S
C1116 C1117 1.366 . S
C1116 C1118 1.388 . S
C1117 C1116 1.366 . S
C1117 C1121 1.385 . S
C1118 H1099 0.951 . S
C1118 C1116 1.388 . S
C1118 C1119 1.366 . S
C1119 C1118 1.366 . S
C1119 C1120 1.414 . S
C1119 C1122 1.499 . S
C1120 H1100 0.950 . S
C1120 C1119 1.414 . S
C1120 C1121 1.374 . S
C1121 H1101 0.950 . S
C1121 C1117 1.385 . S
C1121 C1120 1.374 . S
C1122 C1119 1.499 . S
C1122 C1123 1.373 . S
C1122 C1124 1.389 . S
C1123 H1102 0.950 . S
C1123 C1122 1.373 . S
C1123 C1139 1.377 . S
C1124 C1122 1.389 . S
C1124 C1125 1.524 . S
C1124 C1138 1.377 . S
C1125 C1124 1.524 . S
C1125 C1126 1.397 . S
C1125 C1130 1.363 . S
C1126 H1103 0.950 . S
C1126 C1125 1.397 . S
C1126 C1127 1.334 . S
C1127 H1104 0.950 . S
C1127 C1126 1.334 . S
C1127 C1128 1.287 . S
C1128 C1127 1.287 . S
C1128 C1129 1.524 . S
C1128 H1147 0.913 . S
C1129 H1105 0.950 . S
C1129 C1128 1.524 . S
C1129 C1130 1.415 . S
C1130 H1106 0.950 . S
C1130 C1125 1.363 . S
C1130 C1129 1.415 . S
C1131 H1107 0.951 . S
C1131 C1132 1.366 . S
C1131 C1133 1.388 . S
C1132 C1131 1.366 . S
C1132 C1136 1.385 . S
C1133 H1108 0.951 . S
C1133 C1131 1.388 . S
C1133 C1134 1.366 . S
C1134 C1133 1.366 . S
C1134 C1135 1.414 . S
C1134 C1137 1.499 . S
C1135 H1109 0.950 . S
C1135 C1134 1.414 . S
C1135 C1136 1.374 . S
C1136 H1110 0.950 . S
C1136 C1132 1.385 . S
C1136 C1135 1.374 . S
C1137 C1134 1.499 . S
C1137 C1138 1.373 . S
C1137 C1139 1.389 . S
C1138 H1111 0.950 . S
C1138 C1124 1.377 . S
C1138 C1137 1.373 . S
C1139 C1123 1.377 . S
C1139 C1137 1.389 . S
C1139 C1140 1.524 . S
C1140 C1139 1.524 . S
C1140 C1141 1.397 . S
C1140 C1145 1.363 . S
C1141 H1112 0.950 . S
C1141 C1140 1.397 . S
C1141 C1142 1.334 . S
C1142 H1113 0.950 . S
C1142 C1141 1.334 . S
C1142 C1143 1.287 . S
C1143 C1142 1.287 . S
C1143 C1144 1.524 . S
C1143 H1146 0.999 . S
C1144 H1114 0.950 . S
C1144 C1143 1.524 . S
C1144 C1145 1.415 . S
C1145 H1115 0.950 . S
C1145 C1140 1.363 . S
C1145 C1144 1.415 . S
H1146 C1143 0.999 . S
H1147 C1128 0.913 . S
H1148 C1166 0.951 . S
H1149 C1168 0.951 . S
H1150 C1170 0.950 . S
H1151 C1171 0.950 . S
H1152 C1173 0.950 . S
H1153 C1176 0.950 . S
H1154 C1177 0.950 . S
H1155 C1179 0.950 . S
H1156 C1180 0.950 . S
H1157 C1181 0.951 . S
H1158 C1183 0.951 . S
H1159 C1185 0.950 . S
H1160 C1186 0.950 . S
H1161 C1188 0.950 . S
H1162 C1191 0.950 . S
H1163 C1192 0.950 . S
H1164 C1194 0.950 . S
H1165 C1195 0.950 . S
C1166 H1148 0.951 . S
C1166 C1167 1.366 . S
C1166 C1168 1.388 . S
C1167 C1166 1.366 . S
C1167 C1171 1.385 . S
C1168 H1149 0.951 . S
C1168 C1166 1.388 . S
C1168 C1169 1.366 . S
C1169 C1168 1.366 . S
C1169 C1170 1.414 . S
C1169 C1172 1.499 . S
C1170 H1150 0.950 . S
C1170 C1169 1.414 . S
C1170 C1171 1.374 . S
C1171 H1151 0.950 . S
C1171 C1167 1.385 . S
C1171 C1170 1.374 . S
C1172 C1169 1.499 . S
C1172 C1173 1.373 . S
C1172 C1174 1.389 . S
C1173 H1152 0.950 . S
C1173 C1172 1.373 . S
C1173 C1189 1.377 . S
C1174 C1172 1.389 . S
C1174 C1175 1.524 . S
C1174 C1188 1.377 . S
C1175 C1174 1.524 . S
C1175 C1176 1.397 . S
C1175 C1180 1.363 . S
C1176 H1153 0.950 . S
C1176 C1175 1.397 . S
C1176 C1177 1.334 . S
C1177 H1154 0.950 . S
C1177 C1176 1.334 . S
C1177 C1178 1.287 . S
C1178 C1177 1.287 . S
C1178 C1179 1.524 . S
C1178 H1197 0.913 . S
C1179 H1155 0.950 . S
C1179 C1178 1.524 . S
C1179 C1180 1.415 . S
C1180 H1156 0.950 . S
C1180 C1175 1.363 . S
C1180 C1179 1.415 . S
C1181 H1157 0.951 . S
C1181 C1182 1.366 . S
C1181 C1183 1.388 . S
C1182 C1181 1.366 . S
C1182 C1186 1.385 . S
C1183 H1158 0.951 . S
C1183 C1181 1.388 . S
C1183 C1184 1.366 . S
C1184 C1183 1.366 . S
C1184 C1185 1.414 . S
C1184 C1187 1.499 . S
C1185 H1159 0.950 . S
C1185 C1184 1.414 . S
C1185 C1186 1.374 . S
C1186 H1160 0.950 . S
C1186 C1182 1.385 . S
C1186 C1185 1.374 . S
C1187 C1184 1.499 . S
C1187 C1188 1.373 . S
C1187 C1189 1.389 . S
C1188 H1161 0.950 . S
C1188 C1174 1.377 . S
C1188 C1187 1.373 . S
C1189 C1173 1.377 . S
C1189 C1187 1.389 . S
C1189 C1190 1.524 . S
C1190 C1189 1.524 . S
C1190 C1191 1.397 . S
C1190 C1195 1.363 . S
C1191 H1162 0.950 . S
C1191 C1190 1.397 . S
C1191 C1192 1.334 . S
C1192 H1163 0.950 . S
C1192 C1191 1.334 . S
C1192 C1193 1.287 . S
C1193 C1192 1.287 . S
C1193 C1194 1.524 . S
C1193 H1196 0.999 . S
C1194 H1164 0.950 . S
C1194 C1193 1.524 . S
C1194 C1195 1.415 . S
C1195 H1165 0.950 . S
C1195 C1190 1.363 . S
C1195 C1194 1.415 . S
H1196 C1193 0.999 . S
H1197 C1178 0.913 . S
H1198 C1216 0.951 . S
H1199 C1218 0.951 . S
H1200 C1220 0.950 . S
H1201 C1221 0.950 . S
H1202 C1223 0.950 . S
H1203 C1226 0.950 . S
H1204 C1227 0.950 . S
H1205 C1229 0.950 . S
H1206 C1230 0.950 . S
H1207 C1231 0.951 . S
H1208 C1233 0.951 . S
H1209 C1235 0.950 . S
H1210 C1236 0.950 . S
H1211 C1238 0.950 . S
H1212 C1241 0.950 . S
H1213 C1242 0.950 . S
H1214 C1244 0.950 . S
H1215 C1245 0.950 . S
C1216 H1198 0.951 . S
C1216 C1217 1.366 . S
C1216 C1218 1.388 . S
C1217 C1216 1.366 . S
C1217 C1221 1.385 . S
C1218 H1199 0.951 . S
C1218 C1216 1.388 . S
C1218 C1219 1.366 . S
C1219 C1218 1.366 . S
C1219 C1220 1.414 . S
C1219 C1222 1.499 . S
C1220 H1200 0.950 . S
C1220 C1219 1.414 . S
C1220 C1221 1.374 . S
C1221 H1201 0.950 . S
C1221 C1217 1.385 . S
C1221 C1220 1.374 . S
C1222 C1219 1.499 . S
C1222 C1223 1.373 . S
C1222 C1224 1.389 . S
C1223 H1202 0.950 . S
C1223 C1222 1.373 . S
C1223 C1239 1.377 . S
C1224 C1222 1.389 . S
C1224 C1225 1.524 . S
C1224 C1238 1.377 . S
C1225 C1224 1.524 . S
C1225 C1226 1.397 . S
C1225 C1230 1.363 . S
C1226 H1203 0.950 . S
C1226 C1225 1.397 . S
C1226 C1227 1.334 . S
C1227 H1204 0.950 . S
C1227 C1226 1.334 . S
C1227 C1228 1.287 . S
C1228 C1227 1.287 . S
C1228 C1229 1.524 . S
C1228 H1247 0.913 . S
C1229 H1205 0.950 . S
C1229 C1228 1.524 . S
C1229 C1230 1.415 . S
C1230 H1206 0.950 . S
C1230 C1225 1.363 . S
C1230 C1229 1.415 . S
C1231 H1207 0.951 . S
C1231 C1232 1.366 . S
C1231 C1233 1.388 . S
C1232 C1231 1.366 . S
C1232 C1236 1.385 . S
C1233 H1208 0.951 . S
C1233 C1231 1.388 . S
C1233 C1234 1.366 . S
C1234 C1233 1.366 . S
C1234 C1235 1.414 . S
C1234 C1237 1.499 . S
C1235 H1209 0.950 . S
C1235 C1234 1.414 . S
C1235 C1236 1.374 . S
C1236 H1210 0.950 . S
C1236 C1232 1.385 . S
C1236 C1235 1.374 . S
C1237 C1234 1.499 . S
C1237 C1238 1.373 . S
C1237 C1239 1.389 . S
C1238 H1211 0.950 . S
C1238 C1224 1.377 . S
C1238 C1237 1.373 . S
C1239 C1223 1.377 . S
C1239 C1237 1.389 . S
C1239 C1240 1.524 . S
C1240 C1239 1.524 . S
C1240 C1241 1.397 . S
C1240 C1245 1.363 . S
C1241 H1212 0.950 . S
C1241 C1240 1.397 . S
C1241 C1242 1.334 . S
C1242 H1213 0.950 . S
C1242 C1241 1.334 . S
C1242 C1243 1.287 . S
C1243 C1242 1.287 . S
C1243 C1244 1.524 . S
C1243 H1246 0.999 . S
C1244 H1214 0.950 . S
C1244 C1243 1.524 . S
C1244 C1245 1.415 . S
C1245 H1215 0.950 . S
C1245 C1240 1.363 . S
C1245 C1244 1.415 . S
H1246 C1243 0.999 . S
H1247 C1228 0.913 . S
H1248 C1266 0.951 . S
H1249 C1268 0.951 . S
H1250 C1270 0.950 . S
H1251 C1271 0.950 . S
H1252 C1273 0.950 . S
H1253 C1276 0.950 . S
H1254 C1277 0.950 . S
H1255 C1279 0.950 . S
H1256 C1280 0.950 . S
H1257 C1281 0.951 . S
H1258 C1283 0.951 . S
H1259 C1285 0.950 . S
H1260 C1286 0.950 . S
H1261 C1288 0.950 . S
H1262 C1291 0.950 . S
H1263 C1292 0.950 . S
H1264 C1294 0.950 . S
H1265 C1295 0.950 . S
C1266 H1248 0.951 . S
C1266 C1267 1.366 . S
C1266 C1268 1.388 . S
C1267 C1266 1.366 . S
C1267 C1271 1.385 . S
C1268 H1249 0.951 . S
C1268 C1266 1.388 . S
C1268 C1269 1.366 . S
C1269 C1268 1.366 . S
C1269 C1270 1.414 . S
C1269 C1272 1.499 . S
C1270 H1250 0.950 . S
C1270 C1269 1.414 . S
C1270 C1271 1.374 . S
C1271 H1251 0.950 . S
C1271 C1267 1.385 . S
C1271 C1270 1.374 . S
C1272 C1269 1.499 . S
C1272 C1273 1.373 . S
C1272 C1274 1.389 . S
C1273 H1252 0.950 . S
C1273 C1272 1.373 . S
C1273 C1289 1.377 1_655 S
C1274 C1272 1.389 . S
C1274 C1275 1.524 . S
C1274 C1288 1.377 1_655 S
C1275 C1274 1.524 . S
C1275 C1276 1.397 . S
C1275 C1280 1.363 . S
C1276 H1253 0.950 . S
C1276 C1275 1.397 . S
C1276 C1277 1.334 . S
C1277 H1254 0.950 . S
C1277 C1276 1.334 . S
C1277 C1278 1.287 . S
C1278 C1277 1.287 . S
C1278 C1279 1.524 . S
C1278 H1297 0.913 . S
C1279 H1255 0.950 . S
C1279 C1278 1.524 . S
C1279 C1280 1.415 . S
C1280 H1256 0.950 . S
C1280 C1275 1.363 . S
C1280 C1279 1.415 . S
C1281 H1257 0.951 . S
C1281 C1282 1.366 . S
C1281 C1283 1.388 . S
C1282 C1281 1.366 . S
C1282 C1286 1.385 . S
C1283 H1258 0.951 . S
C1283 C1281 1.388 . S
C1283 C1284 1.366 . S
C1284 C1283 1.366 . S
C1284 C1285 1.414 . S
C1284 C1287 1.499 . S
C1285 H1259 0.950 . S
C1285 C1284 1.414 . S
C1285 C1286 1.374 . S
C1286 H1260 0.950 . S
C1286 C1282 1.385 . S
C1286 C1285 1.374 . S
C1287 C1284 1.499 . S
C1287 C1288 1.373 . S
C1287 C1289 1.389 . S
C1288 H1261 0.950 . S
C1288 C1274 1.377 1_455 S
C1288 C1287 1.373 . S
C1289 C1273 1.377 1_455 S
C1289 C1287 1.389 . S
C1289 C1290 1.524 . S
C1290 C1289 1.524 . S
C1290 C1291 1.397 . S
C1290 C1295 1.363 . S
C1291 H1262 0.950 . S
C1291 C1290 1.397 . S
C1291 C1292 1.334 . S
C1292 H1263 0.950 . S
C1292 C1291 1.334 . S
C1292 C1293 1.287 . S
C1293 C1292 1.287 . S
C1293 C1294 1.524 . S
C1293 H1296 0.999 . S
C1294 H1264 0.950 . S
C1294 C1293 1.524 . S
C1294 C1295 1.415 . S
C1295 H1265 0.950 . S
C1295 C1290 1.363 . S
C1295 C1294 1.415 . S
H1296 C1293 0.999 . S
H1297 C1278 0.913 . S
H1298 C1316 0.951 . S
H1299 C1318 0.951 . S
H1300 C1320 0.950 . S
H1301 C1321 0.950 . S
H1302 C1323 0.950 . S
H1303 C1326 0.950 . S
H1304 C1327 0.950 . S
H1305 C1329 0.950 . S
H1306 C1330 0.950 . S
H1307 C1331 0.951 . S
H1308 C1333 0.951 . S
H1309 C1335 0.950 . S
H1310 C1336 0.950 . S
H1311 C1338 0.950 . S
H1312 C1341 0.950 . S
H1313 C1342 0.950 . S
H1314 C1344 0.950 . S
H1315 C1345 0.950 . S
C1316 H1298 0.951 . S
C1316 C1317 1.366 . S
C1316 C1318 1.388 . S
C1317 C1316 1.366 . S
C1317 C1321 1.385 . S
C1318 H1299 0.951 . S
C1318 C1316 1.388 . S
C1318 C1319 1.366 . S
C1319 C1318 1.366 . S
C1319 C1320 1.414 . S
C1319 C1322 1.499 . S
C1320 H1300 0.950 . S
C1320 C1319 1.414 . S
C1320 C1321 1.374 . S
C1321 H1301 0.950 . S
C1321 C1317 1.385 . S
C1321 C1320 1.374 . S
C1322 C1319 1.499 . S
C1322 C1323 1.373 . S
C1322 C1324 1.389 . S
C1323 H1302 0.950 . S
C1323 C1322 1.373 . S
C1323 C1339 1.377 1_545 S
C1324 C1322 1.389 . S
C1324 C1325 1.524 . S
C1324 C1338 1.377 1_545 S
C1325 C1324 1.524 . S
C1325 C1326 1.397 . S
C1325 C1330 1.363 . S
C1326 H1303 0.950 . S
C1326 C1325 1.397 . S
C1326 C1327 1.334 . S
C1327 H1304 0.950 . S
C1327 C1326 1.334 . S
C1327 C1328 1.287 . S
C1328 C1327 1.287 . S
C1328 C1329 1.524 . S
C1328 H1347 0.913 . S
C1329 H1305 0.950 . S
C1329 C1328 1.524 . S
C1329 C1330 1.415 . S
C1330 H1306 0.950 . S
C1330 C1325 1.363 . S
C1330 C1329 1.415 . S
C1331 H1307 0.951 . S
C1331 C1332 1.366 . S
C1331 C1333 1.388 . S
C1332 C1331 1.366 . S
C1332 C1336 1.385 . S
C1333 H1308 0.951 . S
C1333 C1331 1.388 . S
C1333 C1334 1.366 . S
C1334 C1333 1.366 . S
C1334 C1335 1.414 . S
C1334 C1337 1.499 . S
C1335 H1309 0.950 . S
C1335 C1334 1.414 . S
C1335 C1336 1.374 . S
C1336 H1310 0.950 . S
C1336 C1332 1.385 . S
C1336 C1335 1.374 . S
C1337 C1334 1.499 . S
C1337 C1338 1.373 . S
C1337 C1339 1.389 . S
C1338 H1311 0.950 . S
C1338 C1324 1.377 1_565 S
C1338 C1337 1.373 . S
C1339 C1323 1.377 1_565 S
C1339 C1337 1.389 . S
C1339 C1340 1.524 . S
C1340 C1339 1.524 . S
C1340 C1341 1.397 . S
C1340 C1345 1.363 . S
C1341 H1312 0.950 . S
C1341 C1340 1.397 . S
C1341 C1342 1.334 . S
C1342 H1313 0.950 . S
C1342 C1341 1.334 . S
C1342 C1343 1.287 . S
C1343 C1342 1.287 . S
C1343 C1344 1.524 . S
C1343 H1346 0.999 . S
C1344 H1314 0.950 . S
C1344 C1343 1.524 . S
C1344 C1345 1.415 . S
C1345 H1315 0.950 . S
C1345 C1340 1.363 . S
C1345 C1344 1.415 . S
H1346 C1343 0.999 . S
H1347 C1328 0.913 . S
H1348 C1366 0.951 . S
H1349 C1368 0.951 . S
H1350 C1370 0.950 . S
H1351 C1371 0.950 . S
H1352 C1373 0.950 . S
H1353 C1376 0.950 . S
H1354 C1377 0.950 . S
H1355 C1379 0.950 . S
H1356 C1380 0.950 . S
H1357 C1381 0.951 . S
H1358 C1383 0.951 . S
H1359 C1385 0.950 . S
H1360 C1386 0.950 . S
H1361 C1388 0.950 . S
H1362 C1391 0.950 . S
H1363 C1392 0.950 . S
H1364 C1394 0.950 . S
H1365 C1395 0.950 . S
C1366 H1348 0.951 . S
C1366 C1367 1.366 . S
C1366 C1368 1.388 . S
C1367 C1366 1.366 . S
C1367 C1371 1.385 . S
C1368 H1349 0.951 . S
C1368 C1366 1.388 . S
C1368 C1369 1.366 . S
C1369 C1368 1.366 . S
C1369 C1370 1.414 . S
C1369 C1372 1.499 . S
C1370 H1350 0.950 . S
C1370 C1369 1.414 . S
C1370 C1371 1.374 . S
C1371 H1351 0.950 . S
C1371 C1367 1.385 . S
C1371 C1370 1.374 . S
C1372 C1369 1.499 . S
C1372 C1373 1.373 . S
C1372 C1374 1.389 . S
C1373 H1352 0.950 . S
C1373 C1372 1.373 . S
C1373 C1389 1.377 1_455 S
C1374 C1372 1.389 . S
C1374 C1375 1.524 . S
C1374 C1388 1.377 1_455 S
C1375 C1374 1.524 . S
C1375 C1376 1.397 . S
C1375 C1380 1.363 . S
C1376 H1353 0.950 . S
C1376 C1375 1.397 . S
C1376 C1377 1.334 . S
C1377 H1354 0.950 . S
C1377 C1376 1.334 . S
C1377 C1378 1.287 . S
C1378 C1377 1.287 . S
C1378 C1379 1.524 . S
C1378 H1397 0.913 . S
C1379 H1355 0.950 . S
C1379 C1378 1.524 . S
C1379 C1380 1.415 . S
C1380 H1356 0.950 . S
C1380 C1375 1.363 . S
C1380 C1379 1.415 . S
C1381 H1357 0.951 . S
C1381 C1382 1.366 . S
C1381 C1383 1.388 . S
C1382 C1381 1.366 . S
C1382 C1386 1.385 . S
C1383 H1358 0.951 . S
C1383 C1381 1.388 . S
C1383 C1384 1.366 . S
C1384 C1383 1.366 . S
C1384 C1385 1.414 . S
C1384 C1387 1.499 . S
C1385 H1359 0.950 . S
C1385 C1384 1.414 . S
C1385 C1386 1.374 . S
C1386 H1360 0.950 . S
C1386 C1382 1.385 . S
C1386 C1385 1.374 . S
C1387 C1384 1.499 . S
C1387 C1388 1.373 . S
C1387 C1389 1.389 . S
C1388 H1361 0.950 . S
C1388 C1374 1.377 1_655 S
C1388 C1387 1.373 . S
C1389 C1373 1.377 1_655 S
C1389 C1387 1.389 . S
C1389 C1390 1.524 . S
C1390 C1389 1.524 . S
C1390 C1391 1.397 . S
C1390 C1395 1.363 . S
C1391 H1362 0.950 . S
C1391 C1390 1.397 . S
C1391 C1392 1.334 . S
C1392 H1363 0.950 . S
C1392 C1391 1.334 . S
C1392 C1393 1.287 . S
C1393 C1392 1.287 . S
C1393 C1394 1.524 . S
C1393 H1396 0.999 . S
C1394 H1364 0.950 . S
C1394 C1393 1.524 . S
C1394 C1395 1.415 . S
C1395 H1365 0.950 . S
C1395 C1390 1.363 . S
C1395 C1394 1.415 . S
H1396 C1393 0.999 . S
H1397 C1378 0.913 . S
H1398 C1416 0.951 . S
H1399 C1418 0.951 . S
H1400 C1420 0.950 . S
H1401 C1421 0.950 . S
H1402 C1423 0.950 . S
H1403 C1426 0.950 . S
H1404 C1427 0.950 . S
H1405 C1429 0.950 . S
H1406 C1430 0.950 . S
H1407 C1431 0.951 . S
H1408 C1433 0.951 . S
H1409 C1435 0.950 . S
H1410 C1436 0.950 . S
H1411 C1438 0.950 . S
H1412 C1441 0.950 . S
H1413 C1442 0.950 . S
H1414 C1444 0.950 . S
H1415 C1445 0.950 . S
C1416 H1398 0.951 . S
C1416 C1417 1.366 . S
C1416 C1418 1.388 . S
C1417 C1416 1.366 . S
C1417 C1421 1.385 . S
C1418 H1399 0.951 . S
C1418 C1416 1.388 . S
C1418 C1419 1.366 . S
C1419 C1418 1.366 . S
C1419 C1420 1.414 . S
C1419 C1422 1.499 . S
C1420 H1400 0.950 . S
C1420 C1419 1.414 . S
C1420 C1421 1.374 . S
C1421 H1401 0.950 . S
C1421 C1417 1.385 . S
C1421 C1420 1.374 . S
C1422 C1419 1.499 . S
C1422 C1423 1.373 . S
C1422 C1424 1.389 . S
C1423 H1402 0.950 . S
C1423 C1422 1.373 . S
C1423 C1439 1.377 1_565 S
C1424 C1422 1.389 . S
C1424 C1425 1.524 . S
C1424 C1438 1.377 1_565 S
C1425 C1424 1.524 . S
C1425 C1426 1.397 . S
C1425 C1430 1.363 . S
C1426 H1403 0.950 . S
C1426 C1425 1.397 . S
C1426 C1427 1.334 . S
C1427 H1404 0.950 . S
C1427 C1426 1.334 . S
C1427 C1428 1.287 . S
C1428 C1427 1.287 . S
C1428 C1429 1.524 . S
C1428 H1447 0.913 . S
C1429 H1405 0.950 . S
C1429 C1428 1.524 . S
C1429 C1430 1.415 . S
C1430 H1406 0.950 . S
C1430 C1425 1.363 . S
C1430 C1429 1.415 . S
C1431 H1407 0.951 . S
C1431 C1432 1.366 . S
C1431 C1433 1.388 . S
C1432 C1431 1.366 . S
C1432 C1436 1.385 . S
C1433 H1408 0.951 . S
C1433 C1431 1.388 . S
C1433 C1434 1.366 . S
C1434 C1433 1.366 . S
C1434 C1435 1.414 . S
C1434 C1437 1.499 . S
C1435 H1409 0.950 . S
C1435 C1434 1.414 . S
C1435 C1436 1.374 . S
C1436 H1410 0.950 . S
C1436 C1432 1.385 . S
C1436 C1435 1.374 . S
C1437 C1434 1.499 . S
C1437 C1438 1.373 . S
C1437 C1439 1.389 . S
C1438 H1411 0.950 . S
C1438 C1424 1.377 1_545 S
C1438 C1437 1.373 . S
C1439 C1423 1.377 1_545 S
C1439 C1437 1.389 . S
C1439 C1440 1.524 . S
C1440 C1439 1.524 . S
C1440 C1441 1.397 . S
C1440 C1445 1.363 . S
C1441 H1412 0.950 . S
C1441 C1440 1.397 . S
C1441 C1442 1.334 . S
C1442 H1413 0.950 . S
C1442 C1441 1.334 . S
C1442 C1443 1.287 . S
C1443 C1442 1.287 . S
C1443 C1444 1.524 . S
C1443 H1446 0.999 . S
C1444 H1414 0.950 . S
C1444 C1443 1.524 . S
C1444 C1445 1.415 . S
C1445 H1415 0.950 . S
C1445 C1440 1.363 . S
C1445 C1444 1.415 . S
H1446 C1443 0.999 . S
H1447 C1428 0.913 . S
H1448 C1466 0.951 . S
H1449 C1468 0.951 . S
H1450 C1470 0.950 . S
H1451 C1471 0.950 . S
H1452 C1473 0.950 . S
H1453 C1476 0.950 . S
H1454 C1477 0.950 . S
H1455 C1479 0.950 . S
H1456 C1480 0.950 . S
H1457 C1481 0.951 . S
H1458 C1483 0.951 . S
H1459 C1485 0.950 . S
H1460 C1486 0.950 . S
H1461 C1488 0.950 . S
H1462 C1491 0.950 . S
H1463 C1492 0.950 . S
H1464 C1494 0.950 . S
H1465 C1495 0.950 . S
C1466 H1448 0.951 . S
C1466 C1467 1.366 . S
C1466 C1468 1.388 . S
C1467 C1466 1.366 . S
C1467 C1471 1.385 . S
C1468 H1449 0.951 . S
C1468 C1466 1.388 . S
C1468 C1469 1.366 . S
C1469 C1468 1.366 . S
C1469 C1470 1.414 . S
C1469 C1472 1.499 . S
C1470 H1450 0.950 . S
C1470 C1469 1.414 . S
C1470 C1471 1.374 . S
C1471 H1451 0.950 . S
C1471 C1467 1.385 . S
C1471 C1470 1.374 . S
C1472 C1469 1.499 . S
C1472 C1473 1.373 . S
C1472 C1474 1.389 . S
C1473 H1452 0.950 . S
C1473 C1472 1.373 . S
C1473 C1489 1.377 1_455 S
C1474 C1472 1.389 . S
C1474 C1475 1.524 . S
C1474 C1488 1.377 1_455 S
C1475 C1474 1.524 . S
C1475 C1476 1.397 . S
C1475 C1480 1.363 . S
C1476 H1453 0.950 . S
C1476 C1475 1.397 . S
C1476 C1477 1.334 . S
C1477 H1454 0.950 . S
C1477 C1476 1.334 . S
C1477 C1478 1.287 . S
C1478 C1477 1.287 . S
C1478 C1479 1.524 . S
C1478 H1497 0.913 . S
C1479 H1455 0.950 . S
C1479 C1478 1.524 . S
C1479 C1480 1.415 . S
C1480 H1456 0.950 . S
C1480 C1475 1.363 . S
C1480 C1479 1.415 . S
C1481 H1457 0.951 . S
C1481 C1482 1.366 . S
C1481 C1483 1.388 . S
C1482 C1481 1.366 . S
C1482 C1486 1.385 . S
C1483 H1458 0.951 . S
C1483 C1481 1.388 . S
C1483 C1484 1.366 . S
C1484 C1483 1.366 . S
C1484 C1485 1.414 . S
C1484 C1487 1.499 . S
C1485 H1459 0.950 . S
C1485 C1484 1.414 . S
C1485 C1486 1.374 . S
C1486 H1460 0.950 . S
C1486 C1482 1.385 . S
C1486 C1485 1.374 . S
C1487 C1484 1.499 . S
C1487 C1488 1.373 . S
C1487 C1489 1.389 . S
C1488 H1461 0.950 . S
C1488 C1474 1.377 1_655 S
C1488 C1487 1.373 . S
C1489 C1473 1.377 1_655 S
C1489 C1487 1.389 . S
C1489 C1490 1.524 . S
C1490 C1489 1.524 . S
C1490 C1491 1.397 . S
C1490 C1495 1.363 . S
C1491 H1462 0.950 . S
C1491 C1490 1.397 . S
C1491 C1492 1.334 . S
C1492 H1463 0.950 . S
C1492 C1491 1.334 . S
C1492 C1493 1.287 . S
C1493 C1492 1.287 . S
C1493 C1494 1.524 . S
C1493 H1496 0.999 . S
C1494 H1464 0.950 . S
C1494 C1493 1.524 . S
C1494 C1495 1.415 . S
C1495 H1465 0.950 . S
C1495 C1490 1.363 . S
C1495 C1494 1.415 . S
H1496 C1493 0.999 . S
H1497 C1478 0.913 . S
H1498 C1516 0.951 . S
H1499 C1518 0.951 . S
H1500 C1520 0.950 . S
H1501 C1521 0.950 . S
H1502 C1523 0.950 . S
H1503 C1526 0.950 . S
H1504 C1527 0.950 . S
H1505 C1529 0.950 . S
H1506 C1530 0.950 . S
H1507 C1531 0.951 . S
H1508 C1533 0.951 . S
H1509 C1535 0.950 . S
H1510 C1536 0.950 . S
H1511 C1538 0.950 . S
H1512 C1541 0.950 . S
H1513 C1542 0.950 . S
H1514 C1544 0.950 . S
H1515 C1545 0.950 . S
C1516 H1498 0.951 . S
C1516 C1517 1.366 . S
C1516 C1518 1.388 . S
C1517 C1516 1.366 . S
C1517 C1521 1.385 . S
C1518 H1499 0.951 . S
C1518 C1516 1.388 . S
C1518 C1519 1.366 . S
C1519 C1518 1.366 . S
C1519 C1520 1.414 . S
C1519 C1522 1.499 . S
C1520 H1500 0.950 . S
C1520 C1519 1.414 . S
C1520 C1521 1.374 . S
C1521 H1501 0.950 . S
C1521 C1517 1.385 . S
C1521 C1520 1.374 . S
C1522 C1519 1.499 . S
C1522 C1523 1.373 . S
C1522 C1524 1.389 . S
C1523 H1502 0.950 . S
C1523 C1522 1.373 . S
C1523 C1539 1.377 1_565 S
C1524 C1522 1.389 . S
C1524 C1525 1.524 . S
C1524 C1538 1.377 1_565 S
C1525 C1524 1.524 . S
C1525 C1526 1.397 . S
C1525 C1530 1.363 . S
C1526 H1503 0.950 . S
C1526 C1525 1.397 . S
C1526 C1527 1.334 . S
C1527 H1504 0.950 . S
C1527 C1526 1.334 . S
C1527 C1528 1.287 . S
C1528 C1527 1.287 . S
C1528 C1529 1.524 . S
C1528 H1547 0.913 . S
C1529 H1505 0.950 . S
C1529 C1528 1.524 . S
C1529 C1530 1.415 . S
C1530 H1506 0.950 . S
C1530 C1525 1.363 . S
C1530 C1529 1.415 . S
C1531 H1507 0.951 . S
C1531 C1532 1.366 . S
C1531 C1533 1.388 . S
C1532 C1531 1.366 . S
C1532 C1536 1.385 . S
C1533 H1508 0.951 . S
C1533 C1531 1.388 . S
C1533 C1534 1.366 . S
C1534 C1533 1.366 . S
C1534 C1535 1.414 . S
C1534 C1537 1.499 . S
C1535 H1509 0.950 . S
C1535 C1534 1.414 . S
C1535 C1536 1.374 . S
C1536 H1510 0.950 . S
C1536 C1532 1.385 . S
C1536 C1535 1.374 . S
C1537 C1534 1.499 . S
C1537 C1538 1.373 . S
C1537 C1539 1.389 . S
C1538 H1511 0.950 . S
C1538 C1524 1.377 1_545 S
C1538 C1537 1.373 . S
C1539 C1523 1.377 1_545 S
C1539 C1537 1.389 . S
C1539 C1540 1.524 . S
C1540 C1539 1.524 . S
C1540 C1541 1.397 . S
C1540 C1545 1.363 . S
C1541 H1512 0.950 . S
C1541 C1540 1.397 . S
C1541 C1542 1.334 . S
C1542 H1513 0.950 . S
C1542 C1541 1.334 . S
C1542 C1543 1.287 . S
C1543 C1542 1.287 . S
C1543 C1544 1.524 . S
C1543 H1546 0.999 . S
C1544 H1514 0.950 . S
C1544 C1543 1.524 . S
C1544 C1545 1.415 . S
C1545 H1515 0.950 . S
C1545 C1540 1.363 . S
C1545 C1544 1.415 . S
H1546 C1543 0.999 . S
H1547 C1528 0.913 . S
H1548 C1566 0.951 . S
H1549 C1568 0.951 . S
H1550 C1570 0.950 . S
H1551 C1571 0.950 . S
H1552 C1573 0.950 . S
H1553 C1576 0.950 . S
H1554 C1577 0.950 . S
H1555 C1579 0.950 . S
H1556 C1580 0.950 . S
H1557 C1581 0.951 . S
H1558 C1583 0.951 . S
H1559 C1585 0.950 . S
H1560 C1586 0.950 . S
H1561 C1588 0.950 . S
H1562 C1591 0.950 . S
H1563 C1592 0.950 . S
H1564 C1594 0.950 . S
H1565 C1595 0.950 . S
C1566 H1548 0.951 . S
C1566 C1567 1.366 . S
C1566 C1568 1.388 . S
C1567 C1566 1.366 . S
C1567 C1571 1.385 . S
C1568 H1549 0.951 . S
C1568 C1566 1.388 . S
C1568 C1569 1.366 . S
C1569 C1568 1.366 . S
C1569 C1570 1.414 . S
C1569 C1572 1.499 . S
C1570 H1550 0.950 . S
C1570 C1569 1.414 . S
C1570 C1571 1.374 . S
C1571 H1551 0.950 . S
C1571 C1567 1.385 . S
C1571 C1570 1.374 . S
C1572 C1569 1.499 . S
C1572 C1573 1.373 . S
C1572 C1574 1.389 . S
C1573 H1552 0.950 . S
C1573 C1572 1.373 . S
C1573 C1589 1.377 1_455 S
C1574 C1572 1.389 . S
C1574 C1575 1.524 . S
C1574 C1588 1.377 1_455 S
C1575 C1574 1.524 . S
C1575 C1576 1.397 . S
C1575 C1580 1.363 . S
C1576 H1553 0.950 . S
C1576 C1575 1.397 . S
C1576 C1577 1.334 . S
C1577 H1554 0.950 . S
C1577 C1576 1.334 . S
C1577 C1578 1.287 . S
C1578 C1577 1.287 . S
C1578 C1579 1.524 . S
C1578 H1597 0.913 . S
C1579 H1555 0.950 . S
C1579 C1578 1.524 . S
C1579 C1580 1.415 . S
C1580 H1556 0.950 . S
C1580 C1575 1.363 . S
C1580 C1579 1.415 . S
C1581 H1557 0.951 . S
C1581 C1582 1.366 . S
C1581 C1583 1.388 . S
C1582 C1581 1.366 . S
C1582 C1586 1.385 . S
C1583 H1558 0.951 . S
C1583 C1581 1.388 . S
C1583 C1584 1.366 . S
C1584 C1583 1.366 . S
C1584 C1585 1.414 . S
C1584 C1587 1.499 . S
C1585 H1559 0.950 . S
C1585 C1584 1.414 . S
C1585 C1586 1.374 . S
C1586 H1560 0.950 . S
C1586 C1582 1.385 . S
C1586 C1585 1.374 . S
C1587 C1584 1.499 . S
C1587 C1588 1.373 . S
C1587 C1589 1.389 . S
C1588 H1561 0.950 . S
C1588 C1574 1.377 1_655 S
C1588 C1587 1.373 . S
C1589 C1573 1.377 1_655 S
C1589 C1587 1.389 . S
C1589 C1590 1.524 . S
C1590 C1589 1.524 . S
C1590 C1591 1.397 . S
C1590 C1595 1.363 . S
C1591 H1562 0.950 . S
C1591 C1590 1.397 . S
C1591 C1592 1.334 . S
C1592 H1563 0.950 . S
C1592 C1591 1.334 . S
C1592 C1593 1.287 . S
C1593 C1592 1.287 . S
C1593 C1594 1.524 . S
C1593 H1596 0.999 . S
C1594 H1564 0.950 . S
C1594 C1593 1.524 . S
C1594 C1595 1.415 . S
C1595 H1565 0.950 . S
C1595 C1590 1.363 . S
C1595 C1594 1.415 . S
H1596 C1593 0.999 . S
H1597 C1578 0.913 . S
H1598 C1616 0.951 . S
H1599 C1618 0.951 . S
H1600 C1620 0.950 . S
H1601 C1621 0.950 . S
H1602 C1623 0.950 . S
H1603 C1626 0.950 . S
H1604 C1627 0.950 . S
H1605 C1629 0.950 . S
H1606 C1630 0.950 . S
H1607 C1631 0.951 . S
H1608 C1633 0.951 . S
H1609 C1635 0.950 . S
H1610 C1636 0.950 . S
H1611 C1638 0.950 . S
H1612 C1641 0.950 . S
H1613 C1642 0.950 . S
H1614 C1644 0.950 . S
H1615 C1645 0.950 . S
C1616 H1598 0.951 . S
C1616 C1617 1.366 . S
C1616 C1618 1.388 . S
C1617 C1616 1.366 . S
C1617 C1621 1.385 . S
C1618 H1599 0.951 . S
C1618 C1616 1.388 . S
C1618 C1619 1.366 . S
C1619 C1618 1.366 . S
C1619 C1620 1.414 . S
C1619 C1622 1.499 . S
C1620 H1600 0.950 . S
C1620 C1619 1.414 . S
C1620 C1621 1.374 . S
C1621 H1601 0.950 . S
C1621 C1617 1.385 . S
C1621 C1620 1.374 . S
C1622 C1619 1.499 . S
C1622 C1623 1.373 . S
C1622 C1624 1.389 . S
C1623 H1602 0.950 . S
C1623 C1622 1.373 . S
C1623 C1639 1.377 1_545 S
C1624 C1622 1.389 . S
C1624 C1625 1.524 . S
C1624 C1638 1.377 1_545 S
C1625 C1624 1.524 . S
C1625 C1626 1.397 . S
C1625 C1630 1.363 . S
C1626 H1603 0.950 . S
C1626 C1625 1.397 . S
C1626 C1627 1.334 . S
C1627 H1604 0.950 . S
C1627 C1626 1.334 . S
C1627 C1628 1.287 . S
C1628 C1627 1.287 . S
C1628 C1629 1.524 . S
C1628 H1647 0.913 . S
C1629 H1605 0.950 . S
C1629 C1628 1.524 . S
C1629 C1630 1.415 . S
C1630 H1606 0.950 . S
C1630 C1625 1.363 . S
C1630 C1629 1.415 . S
C1631 H1607 0.951 . S
C1631 C1632 1.366 . S
C1631 C1633 1.388 . S
C1632 C1631 1.366 . S
C1632 C1636 1.385 . S
C1633 H1608 0.951 . S
C1633 C1631 1.388 . S
C1633 C1634 1.366 . S
C1634 C1633 1.366 . S
C1634 C1635 1.414 . S
C1634 C1637 1.499 . S
C1635 H1609 0.950 . S
C1635 C1634 1.414 . S
C1635 C1636 1.374 . S
C1636 H1610 0.950 . S
C1636 C1632 1.385 . S
C1636 C1635 1.374 . S
C1637 C1634 1.499 . S
C1637 C1638 1.373 . S
C1637 C1639 1.389 . S
C1638 H1611 0.950 . S
C1638 C1624 1.377 1_565 S
C1638 C1637 1.373 . S
C1639 C1623 1.377 1_565 S
C1639 C1637 1.389 . S
C1639 C1640 1.524 . S
C1640 C1639 1.524 . S
C1640 C1641 1.397 . S
C1640 C1645 1.363 . S
C1641 H1612 0.950 . S
C1641 C1640 1.397 . S
C1641 C1642 1.334 . S
C1642 H1613 0.950 . S
C1642 C1641 1.334 . S
C1642 C1643 1.287 . S
C1643 C1642 1.287 . S
C1643 C1644 1.524 . S
C1643 H1646 0.999 . S
C1644 H1614 0.950 . S
C1644 C1643 1.524 . S
C1644 C1645 1.415 . S
C1645 H1615 0.950 . S
C1645 C1640 1.363 . S
C1645 C1644 1.415 . S
H1646 C1643 0.999 . S
H1647 C1628 0.913 . S
H1648 C1666 0.951 . S
H1649 C1668 0.951 . S
H1650 C1670 0.950 . S
H1651 C1671 0.950 . S
H1652 C1673 0.950 . S
H1653 C1676 0.950 . S
H1654 C1677 0.950 . S
H1655 C1679 0.950 . S
H1656 C1680 0.950 . S
H1657 C1681 0.951 . S
H1658 C1683 0.951 . S
H1659 C1685 0.950 . S
H1660 C1686 0.950 . S
H1661 C1688 0.950 . S
H1662 C1691 0.950 . S
H1663 C1692 0.950 . S
H1664 C1694 0.950 . S
H1665 C1695 0.950 . S
C1666 H1648 0.951 . S
C1666 C1667 1.366 . S
C1666 C1668 1.388 . S
C1667 C1666 1.366 . S
C1667 C1671 1.385 . S
C1668 H1649 0.951 . S
C1668 C1666 1.388 . S
C1668 C1669 1.366 . S
C1669 C1668 1.366 . S
C1669 C1670 1.414 . S
C1669 C1672 1.499 . S
C1670 H1650 0.950 . S
C1670 C1669 1.414 . S
C1670 C1671 1.374 . S
C1671 H1651 0.950 . S
C1671 C1667 1.385 . S
C1671 C1670 1.374 . S
C1672 C1669 1.499 . S
C1672 C1673 1.373 . S
C1672 C1674 1.389 . S
C1673 H1652 0.950 . S
C1673 C1672 1.373 . S
C1673 C1689 1.377 . S
C1674 C1672 1.389 . S
C1674 C1675 1.524 . S
C1674 C1688 1.377 . S
C1675 C1674 1.524 . S
C1675 C1676 1.397 . S
C1675 C1680 1.363 . S
C1676 H1653 0.950 . S
C1676 C1675 1.397 . S
C1676 C1677 1.334 . S
C1677 H1654 0.950 . S
C1677 C1676 1.334 . S
C1677 C1678 1.287 . S
C1678 C1677 1.287 . S
C1678 C1679 1.524 . S
C1678 H1697 0.913 . S
C1679 H1655 0.950 . S
C1679 C1678 1.524 . S
C1679 C1680 1.415 . S
C1680 H1656 0.950 . S
C1680 C1675 1.363 . S
C1680 C1679 1.415 . S
C1681 H1657 0.951 . S
C1681 C1682 1.366 . S
C1681 C1683 1.388 . S
C1682 C1681 1.366 . S
C1682 C1686 1.385 . S
C1683 H1658 0.951 . S
C1683 C1681 1.388 . S
C1683 C1684 1.366 . S
C1684 C1683 1.366 . S
C1684 C1685 1.414 . S
C1684 C1687 1.499 . S
C1685 H1659 0.950 . S
C1685 C1684 1.414 . S
C1685 C1686 1.374 . S
C1686 H1660 0.950 . S
C1686 C1682 1.385 . S
C1686 C1685 1.374 . S
C1687 C1684 1.499 . S
C1687 C1688 1.373 . S
C1687 C1689 1.389 . S
C1688 H1661 0.950 . S
C1688 C1674 1.377 . S
C1688 C1687 1.373 . S
C1689 C1673 1.377 . S
C1689 C1687 1.389 . S
C1689 C1690 1.524 . S
C1690 C1689 1.524 . S
C1690 C1691 1.397 . S
C1690 C1695 1.363 . S
C1691 H1662 0.950 . S
C1691 C1690 1.397 . S
C1691 C1692 1.334 . S
C1692 H1663 0.950 . S
C1692 C1691 1.334 . S
C1692 C1693 1.287 . S
C1693 C1692 1.287 . S
C1693 C1694 1.524 . S
C1693 H1696 0.999 . S
C1694 H1664 0.950 . S
C1694 C1693 1.524 . S
C1694 C1695 1.415 . S
C1695 H1665 0.950 . S
C1695 C1690 1.363 . S
C1695 C1694 1.415 . S
H1696 C1693 0.999 . S
H1697 C1678 0.913 . S
H1698 C1716 0.951 . S
H1699 C1718 0.951 . S
H1700 C1720 0.950 . S
H1701 C1721 0.950 . S
H1702 C1723 0.950 . S
H1703 C1726 0.950 . S
H1704 C1727 0.950 . S
H1705 C1729 0.950 . S
H1706 C1730 0.950 . S
H1707 C1731 0.951 . S
H1708 C1733 0.951 . S
H1709 C1735 0.950 . S
H1710 C1736 0.950 . S
H1711 C1738 0.950 . S
H1712 C1741 0.950 . S
H1713 C1742 0.950 . S
H1714 C1744 0.950 . S
H1715 C1745 0.950 . S
C1716 H1698 0.951 . S
C1716 C1717 1.366 . S
C1716 C1718 1.388 . S
C1717 C1716 1.366 . S
C1717 C1721 1.385 . S
C1718 H1699 0.951 . S
C1718 C1716 1.388 . S
C1718 C1719 1.366 . S
C1719 C1718 1.366 . S
C1719 C1720 1.414 . S
C1719 C1722 1.499 . S
C1720 H1700 0.950 . S
C1720 C1719 1.414 . S
C1720 C1721 1.374 . S
C1721 H1701 0.950 . S
C1721 C1717 1.385 . S
C1721 C1720 1.374 . S
C1722 C1719 1.499 . S
C1722 C1723 1.373 . S
C1722 C1724 1.389 . S
C1723 H1702 0.950 . S
C1723 C1722 1.373 . S
C1723 C1739 1.377 . S
C1724 C1722 1.389 . S
C1724 C1725 1.524 . S
C1724 C1738 1.377 . S
C1725 C1724 1.524 . S
C1725 C1726 1.397 . S
C1725 C1730 1.363 . S
C1726 H1703 0.950 . S
C1726 C1725 1.397 . S
C1726 C1727 1.334 . S
C1727 H1704 0.950 . S
C1727 C1726 1.334 . S
C1727 C1728 1.287 . S
C1728 C1727 1.287 . S
C1728 C1729 1.524 . S
C1728 H1747 0.913 . S
C1729 H1705 0.950 . S
C1729 C1728 1.524 . S
C1729 C1730 1.415 . S
C1730 H1706 0.950 . S
C1730 C1725 1.363 . S
C1730 C1729 1.415 . S
C1731 H1707 0.951 . S
C1731 C1732 1.366 . S
C1731 C1733 1.388 . S
C1732 C1731 1.366 . S
C1732 C1736 1.385 . S
C1733 H1708 0.951 . S
C1733 C1731 1.388 . S
C1733 C1734 1.366 . S
C1734 C1733 1.366 . S
C1734 C1735 1.414 . S
C1734 C1737 1.499 . S
C1735 H1709 0.950 . S
C1735 C1734 1.414 . S
C1735 C1736 1.374 . S
C1736 H1710 0.950 . S
C1736 C1732 1.385 . S
C1736 C1735 1.374 . S
C1737 C1734 1.499 . S
C1737 C1738 1.373 . S
C1737 C1739 1.389 . S
C1738 H1711 0.950 . S
C1738 C1724 1.377 . S
C1738 C1737 1.373 . S
C1739 C1723 1.377 . S
C1739 C1737 1.389 . S
C1739 C1740 1.524 . S
C1740 C1739 1.524 . S
C1740 C1741 1.397 . S
C1740 C1745 1.363 . S
C1741 H1712 0.950 . S
C1741 C1740 1.397 . S
C1741 C1742 1.334 . S
C1742 H1713 0.950 . S
C1742 C1741 1.334 . S
C1742 C1743 1.287 . S
C1743 C1742 1.287 . S
C1743 C1744 1.524 . S
C1743 H1746 0.999 . S
C1744 H1714 0.950 . S
C1744 C1743 1.524 . S
C1744 C1745 1.415 . S
C1745 H1715 0.950 . S
C1745 C1740 1.363 . S
C1745 C1744 1.415 . S
H1746 C1743 0.999 . S
H1747 C1728 0.913 . S
H1748 C1766 0.951 . S
H1749 C1768 0.951 . S
H1750 C1770 0.950 . S
H1751 C1771 0.950 . S
H1752 C1773 0.950 . S
H1753 C1776 0.950 . S
H1754 C1777 0.950 . S
H1755 C1779 0.950 . S
H1756 C1780 0.950 . S
H1757 C1781 0.951 . S
H1758 C1783 0.951 . S
H1759 C1785 0.950 . S
H1760 C1786 0.950 . S
H1761 C1788 0.950 . S
H1762 C1791 0.950 . S
H1763 C1792 0.950 . S
H1764 C1794 0.950 . S
H1765 C1795 0.950 . S
C1766 H1748 0.951 . S
C1766 C1767 1.366 . S
C1766 C1768 1.388 . S
C1767 C1766 1.366 . S
C1767 C1771 1.385 . S
C1768 H1749 0.951 . S
C1768 C1766 1.388 . S
C1768 C1769 1.366 . S
C1769 C1768 1.366 . S
C1769 C1770 1.414 . S
C1769 C1772 1.499 . S
C1770 H1750 0.950 . S
C1770 C1769 1.414 . S
C1770 C1771 1.374 . S
C1771 H1751 0.950 . S
C1771 C1767 1.385 . S
C1771 C1770 1.374 . S
C1772 C1769 1.499 . S
C1772 C1773 1.373 . S
C1772 C1774 1.389 . S
C1773 H1752 0.950 . S
C1773 C1772 1.373 . S
C1773 C1789 1.377 . S
C1774 C1772 1.389 . S
C1774 C1775 1.524 . S
C1774 C1788 1.377 . S
C1775 C1774 1.524 . S
C1775 C1776 1.397 . S
C1775 C1780 1.363 . S
C1776 H1753 0.950 . S
C1776 C1775 1.397 . S
C1776 C1777 1.334 . S
C1777 H1754 0.950 . S
C1777 C1776 1.334 . S
C1777 C1778 1.287 . S
C1778 C1777 1.287 . S
C1778 C1779 1.524 . S
C1778 H1797 0.913 . S
C1779 H1755 0.950 . S
C1779 C1778 1.524 . S
C1779 C1780 1.415 . S
C1780 H1756 0.950 . S
C1780 C1775 1.363 . S
C1780 C1779 1.415 . S
C1781 H1757 0.951 . S
C1781 C1782 1.366 . S
C1781 C1783 1.388 . S
C1782 C1781 1.366 . S
C1782 C1786 1.385 . S
C1783 H1758 0.951 . S
C1783 C1781 1.388 . S
C1783 C1784 1.366 . S
C1784 C1783 1.366 . S
C1784 C1785 1.414 . S
C1784 C1787 1.499 . S
C1785 H1759 0.950 . S
C1785 C1784 1.414 . S
C1785 C1786 1.374 . S
C1786 H1760 0.950 . S
C1786 C1782 1.385 . S
C1786 C1785 1.374 . S
C1787 C1784 1.499 . S
C1787 C1788 1.373 . S
C1787 C1789 1.389 . S
C1788 H1761 0.950 . S
C1788 C1774 1.377 . S
C1788 C1787 1.373 . S
C1789 C1773 1.377 . S
C1789 C1787 1.389 . S
C1789 C1790 1.524 . S
C1790 C1789 1.524 . S
C1790 C1791 1.397 . S
C1790 C1795 1.363 . S
C1791 H1762 0.950 . S
C1791 C1790 1.397 . S
C1791 C1792 1.334 . S
C1792 H1763 0.950 . S
C1792 C1791 1.334 . S
C1792 C1793 1.287 . S
C1793 C1792 1.287 . S
C1793 C1794 1.524 . S
C1793 H1796 0.999 . S
C1794 H1764 0.950 . S
C1794 C1793 1.524 . S
C1794 C1795 1.415 . S
C1795 H1765 0.950 . S
C1795 C1790 1.363 . S
C1795 C1794 1.415 . S
H1796 C1793 0.999 . S
H1797 C1778 0.913 . S
H1798 C1816 0.951 . S
H1799 C1818 0.951 . S
H1800 C1820 0.950 . S
H1801 C1821 0.950 . S
H1802 C1823 0.950 . S
H1803 C1826 0.950 . S
H1804 C1827 0.950 . S
H1805 C1829 0.950 . S
H1806 C1830 0.950 . S
H1807 C1831 0.951 . S
H1808 C1833 0.951 . S
H1809 C1835 0.950 . S
H1810 C1836 0.950 . S
H1811 C1838 0.950 . S
H1812 C1841 0.950 . S
H1813 C1842 0.950 . S
H1814 C1844 0.950 . S
H1815 C1845 0.950 . S
C1816 H1798 0.951 . S
C1816 C1817 1.366 . S
C1816 C1818 1.388 . S
C1817 C1816 1.366 . S
C1817 C1821 1.385 . S
C1818 H1799 0.951 . S
C1818 C1816 1.388 . S
C1818 C1819 1.366 . S
C1819 C1818 1.366 . S
C1819 C1820 1.414 . S
C1819 C1822 1.499 . S
C1820 H1800 0.950 . S
C1820 C1819 1.414 . S
C1820 C1821 1.374 . S
C1821 H1801 0.950 . S
C1821 C1817 1.385 . S
C1821 C1820 1.374 . S
C1822 C1819 1.499 . S
C1822 C1823 1.373 . S
C1822 C1824 1.389 . S
C1823 H1802 0.950 . S
C1823 C1822 1.373 . S
C1823 C1839 1.377 . S
C1824 C1822 1.389 . S
C1824 C1825 1.524 . S
C1824 C1838 1.377 . S
C1825 C1824 1.524 . S
C1825 C1826 1.397 . S
C1825 C1830 1.363 . S
C1826 H1803 0.950 . S
C1826 C1825 1.397 . S
C1826 C1827 1.334 . S
C1827 H1804 0.950 . S
C1827 C1826 1.334 . S
C1827 C1828 1.287 . S
C1828 C1827 1.287 . S
C1828 C1829 1.524 . S
C1828 H1847 0.913 . S
C1829 H1805 0.950 . S
C1829 C1828 1.524 . S
C1829 C1830 1.415 . S
C1830 H1806 0.950 . S
C1830 C1825 1.363 . S
C1830 C1829 1.415 . S
C1831 H1807 0.951 . S
C1831 C1832 1.366 . S
C1831 C1833 1.388 . S
C1832 C1831 1.366 . S
C1832 C1836 1.385 . S
C1833 H1808 0.951 . S
C1833 C1831 1.388 . S
C1833 C1834 1.366 . S
C1834 C1833 1.366 . S
C1834 C1835 1.414 . S
C1834 C1837 1.499 . S
C1835 H1809 0.950 . S
C1835 C1834 1.414 . S
C1835 C1836 1.374 . S
C1836 H1810 0.950 . S
C1836 C1832 1.385 . S
C1836 C1835 1.374 . S
C1837 C1834 1.499 . S
C1837 C1838 1.373 . S
C1837 C1839 1.389 . S
C1838 H1811 0.950 . S
C1838 C1824 1.377 . S
C1838 C1837 1.373 . S
C1839 C1823 1.377 . S
C1839 C1837 1.389 . S
C1839 C1840 1.524 . S
C1840 C1839 1.524 . S
C1840 C1841 1.397 . S
C1840 C1845 1.363 . S
C1841 H1812 0.950 . S
C1841 C1840 1.397 . S
C1841 C1842 1.334 . S
C1842 H1813 0.950 . S
C1842 C1841 1.334 . S
C1842 C1843 1.287 . S
C1843 C1842 1.287 . S
C1843 C1844 1.524 . S
C1843 H1846 0.999 . S
C1844 H1814 0.950 . S
C1844 C1843 1.524 . S
C1844 C1845 1.415 . S
C1845 H1815 0.950 . S
C1845 C1840 1.363 . S
C1845 C1844 1.415 . S
H1846 C1843 0.999 . S
H1847 C1828 0.913 . S
H1848 C1866 0.951 . S
H1849 C1868 0.951 . S
H1850 C1870 0.950 . S
H1851 C1871 0.950 . S
H1852 C1873 0.950 . S
H1853 C1876 0.950 . S
H1854 C1877 0.950 . S
H1855 C1879 0.950 . S
H1856 C1880 0.950 . S
H1857 C1881 0.951 . S
H1858 C1883 0.951 . S
H1859 C1885 0.950 . S
H1860 C1886 0.950 . S
H1861 C1888 0.950 . S
H1862 C1891 0.950 . S
H1863 C1892 0.950 . S
H1864 C1894 0.950 . S
H1865 C1895 0.950 . S
C1866 H1848 0.951 . S
C1866 C1867 1.366 . S
C1866 C1868 1.388 . S
C1867 C1866 1.366 . S
C1867 C1871 1.385 . S
C1868 H1849 0.951 . S
C1868 C1866 1.388 . S
C1868 C1869 1.366 . S
C1869 C1868 1.366 . S
C1869 C1870 1.414 . S
C1869 C1872 1.499 . S
C1870 H1850 0.950 . S
C1870 C1869 1.414 . S
C1870 C1871 1.374 . S
C1871 H1851 0.950 . S
C1871 C1867 1.385 . S
C1871 C1870 1.374 . S
C1872 C1869 1.499 . S
C1872 C1873 1.373 . S
C1872 C1874 1.389 . S
C1873 H1852 0.950 . S
C1873 C1872 1.373 . S
C1873 C1889 1.377 . S
C1874 C1872 1.389 . S
C1874 C1875 1.524 . S
C1874 C1888 1.377 . S
C1875 C1874 1.524 . S
C1875 C1876 1.397 . S
C1875 C1880 1.363 . S
C1876 H1853 0.950 . S
C1876 C1875 1.397 . S
C1876 C1877 1.334 . S
C1877 H1854 0.950 . S
C1877 C1876 1.334 . S
C1877 C1878 1.287 . S
C1878 C1877 1.287 . S
C1878 C1879 1.524 . S
C1878 H1897 0.913 . S
C1879 H1855 0.950 . S
C1879 C1878 1.524 . S
C1879 C1880 1.415 . S
C1880 H1856 0.950 . S
C1880 C1875 1.363 . S
C1880 C1879 1.415 . S
C1881 H1857 0.951 . S
C1881 C1882 1.366 . S
C1881 C1883 1.388 . S
C1882 C1881 1.366 . S
C1882 C1886 1.385 . S
C1883 H1858 0.951 . S
C1883 C1881 1.388 . S
C1883 C1884 1.366 . S
C1884 C1883 1.366 . S
C1884 C1885 1.414 . S
C1884 C1887 1.499 . S
C1885 H1859 0.950 . S
C1885 C1884 1.414 . S
C1885 C1886 1.374 . S
C1886 H1860 0.950 . S
C1886 C1882 1.385 . S
C1886 C1885 1.374 . S
C1887 C1884 1.499 . S
C1887 C1888 1.373 . S
C1887 C1889 1.389 . S
C1888 H1861 0.950 . S
C1888 C1874 1.377 . S
C1888 C1887 1.373 . S
C1889 C1873 1.377 . S
C1889 C1887 1.389 . S
C1889 C1890 1.524 . S
C1890 C1889 1.524 . S
C1890 C1891 1.397 . S
C1890 C1895 1.363 . S
C1891 H1862 0.950 . S
C1891 C1890 1.397 . S
C1891 C1892 1.334 . S
C1892 H1863 0.950 . S
C1892 C1891 1.334 . S
C1892 C1893 1.287 . S
C1893 C1892 1.287 . S
C1893 C1894 1.524 . S
C1893 H1896 0.999 . S
C1894 H1864 0.950 . S
C1894 C1893 1.524 . S
C1894 C1895 1.415 . S
C1895 H1865 0.950 . S
C1895 C1890 1.363 . S
C1895 C1894 1.415 . S
H1896 C1893 0.999 . S
H1897 C1878 0.913 . S
H1898 C1916 0.951 . S
H1899 C1918 0.951 . S
H1900 C1920 0.950 . S
H1901 C1921 0.950 . S
H1902 C1923 0.950 . S
H1903 C1926 0.950 . S
H1904 C1927 0.950 . S
H1905 C1929 0.950 . S
H1906 C1930 0.950 . S
H1907 C1931 0.951 . S
H1908 C1933 0.951 . S
H1909 C1935 0.950 . S
H1910 C1936 0.950 . S
H1911 C1938 0.950 . S
H1912 C1941 0.950 . S
H1913 C1942 0.950 . S
H1914 C1944 0.950 . S
H1915 C1945 0.950 . S
C1916 H1898 0.951 . S
C1916 C1917 1.366 . S
C1916 C1918 1.388 . S
C1917 C1916 1.366 . S
C1917 C1921 1.385 . S
C1918 H1899 0.951 . S
C1918 C1916 1.388 . S
C1918 C1919 1.366 . S
C1919 C1918 1.366 . S
C1919 C1920 1.414 . S
C1919 C1922 1.499 . S
C1920 H1900 0.950 . S
C1920 C1919 1.414 . S
C1920 C1921 1.374 . S
C1921 H1901 0.950 . S
C1921 C1917 1.385 . S
C1921 C1920 1.374 . S
C1922 C1919 1.499 . S
C1922 C1923 1.373 . S
C1922 C1924 1.389 . S
C1923 H1902 0.950 . S
C1923 C1922 1.373 . S
C1923 C1939 1.377 . S
C1924 C1922 1.389 . S
C1924 C1925 1.524 . S
C1924 C1938 1.377 . S
C1925 C1924 1.524 . S
C1925 C1926 1.397 . S
C1925 C1930 1.363 . S
C1926 H1903 0.950 . S
C1926 C1925 1.397 . S
C1926 C1927 1.334 . S
C1927 H1904 0.950 . S
C1927 C1926 1.334 . S
C1927 C1928 1.287 . S
C1928 C1927 1.287 . S
C1928 C1929 1.524 . S
C1928 H1947 0.913 . S
C1929 H1905 0.950 . S
C1929 C1928 1.524 . S
C1929 C1930 1.415 . S
C1930 H1906 0.950 . S
C1930 C1925 1.363 . S
C1930 C1929 1.415 . S
C1931 H1907 0.951 . S
C1931 C1932 1.366 . S
C1931 C1933 1.388 . S
C1932 C1931 1.366 . S
C1932 C1936 1.385 . S
C1933 H1908 0.951 . S
C1933 C1931 1.388 . S
C1933 C1934 1.366 . S
C1934 C1933 1.366 . S
C1934 C1935 1.414 . S
C1934 C1937 1.499 . S
C1935 H1909 0.950 . S
C1935 C1934 1.414 . S
C1935 C1936 1.374 . S
C1936 H1910 0.950 . S
C1936 C1932 1.385 . S
C1936 C1935 1.374 . S
C1937 C1934 1.499 . S
C1937 C1938 1.373 . S
C1937 C1939 1.389 . S
C1938 H1911 0.950 . S
C1938 C1924 1.377 . S
C1938 C1937 1.373 . S
C1939 C1923 1.377 . S
C1939 C1937 1.389 . S
C1939 C1940 1.524 . S
C1940 C1939 1.524 . S
C1940 C1941 1.397 . S
C1940 C1945 1.363 . S
C1941 H1912 0.950 . S
C1941 C1940 1.397 . S
C1941 C1942 1.334 . S
C1942 H1913 0.950 . S
C1942 C1941 1.334 . S
C1942 C1943 1.287 . S
C1943 C1942 1.287 . S
C1943 C1944 1.524 . S
C1943 H1946 0.999 . S
C1944 H1914 0.950 . S
C1944 C1943 1.524 . S
C1944 C1945 1.415 . S
C1945 H1915 0.950 . S
C1945 C1940 1.363 . S
C1945 C1944 1.415 . S
H1946 C1943 0.999 . S
H1947 C1928 0.913 . S
H1948 C1966 0.951 . S
H1949 C1968 0.951 . S
H1950 C1970 0.950 . S
H1951 C1971 0.950 . S
H1952 C1973 0.950 . S
H1953 C1976 0.950 . S
H1954 C1977 0.950 . S
H1955 C1979 0.950 . S
H1956 C1980 0.950 . S
H1957 C1981 0.951 . S
H1958 C1983 0.951 . S
H1959 C1985 0.950 . S
H1960 C1986 0.950 . S
H1961 C1988 0.950 . S
H1962 C1991 0.950 . S
H1963 C1992 0.950 . S
H1964 C1994 0.950 . S
H1965 C1995 0.950 . S
C1966 H1948 0.951 . S
C1966 C1967 1.366 . S
C1966 C1968 1.388 . S
C1967 C1966 1.366 . S
C1967 C1971 1.385 . S
C1968 H1949 0.951 . S
C1968 C1966 1.388 . S
C1968 C1969 1.366 . S
C1969 C1968 1.366 . S
C1969 C1970 1.414 . S
C1969 C1972 1.499 . S
C1970 H1950 0.950 . S
C1970 C1969 1.414 . S
C1970 C1971 1.374 . S
C1971 H1951 0.950 . S
C1971 C1967 1.385 . S
C1971 C1970 1.374 . S
C1972 C1969 1.499 . S
C1972 C1973 1.373 . S
C1972 C1974 1.389 . S
C1973 H1952 0.950 . S
C1973 C1972 1.373 . S
C1973 C1989 1.377 . S
C1974 C1972 1.389 . S
C1974 C1975 1.524 . S
C1974 C1988 1.377 . S
C1975 C1974 1.524 . S
C1975 C1976 1.397 . S
C1975 C1980 1.363 . S
C1976 H1953 0.950 . S
C1976 C1975 1.397 . S
C1976 C1977 1.334 . S
C1977 H1954 0.950 . S
C1977 C1976 1.334 . S
C1977 C1978 1.287 . S
C1978 C1977 1.287 . S
C1978 C1979 1.524 . S
C1978 H1997 0.913 . S
C1979 H1955 0.950 . S
C1979 C1978 1.524 . S
C1979 C1980 1.415 . S
C1980 H1956 0.950 . S
C1980 C1975 1.363 . S
C1980 C1979 1.415 . S
C1981 H1957 0.951 . S
C1981 C1982 1.366 . S
C1981 C1983 1.388 . S
C1982 C1981 1.366 . S
C1982 C1986 1.385 . S
C1983 H1958 0.951 . S
C1983 C1981 1.388 . S
C1983 C1984 1.366 . S
C1984 C1983 1.366 . S
C1984 C1985 1.414 . S
C1984 C1987 1.499 . S
C1985 H1959 0.950 . S
C1985 C1984 1.414 . S
C1985 C1986 1.374 . S
C1986 H1960 0.950 . S
C1986 C1982 1.385 . S
C1986 C1985 1.374 . S
C1987 C1984 1.499 . S
C1987 C1988 1.373 . S
C1987 C1989 1.389 . S
C1988 H1961 0.950 . S
C1988 C1974 1.377 . S
C1988 C1987 1.373 . S
C1989 C1973 1.377 . S
C1989 C1987 1.389 . S
C1989 C1990 1.524 . S
C1990 C1989 1.524 . S
C1990 C1991 1.397 . S
C1990 C1995 1.363 . S
C1991 H1962 0.950 . S
C1991 C1990 1.397 . S
C1991 C1992 1.334 . S
C1992 H1963 0.950 . S
C1992 C1991 1.334 . S
C1992 C1993 1.287 . S
C1993 C1992 1.287 . S
C1993 C1994 1.524 . S
C1993 H1996 0.999 . S
C1994 H1964 0.950 . S
C1994 C1993 1.524 . S
C1994 C1995 1.415 . S
C1995 H1965 0.950 . S
C1995 C1990 1.363 . S
C1995 C1994 1.415 . S
H1996 C1993 0.999 . S
H1997 C1978 0.913 . S
H1998 C2016 0.951 . S
H1999 C2018 0.951 . S
H2000 C2020 0.950 . S
H2001 C2021 0.950 . S
H2002 C2023 0.950 . S
H2003 C2026 0.950 . S
H2004 C2027 0.950 . S
H2005 C2029 0.950 . S
H2006 C2030 0.950 . S
H2007 C2031 0.951 . S
H2008 C2033 0.951 . S
H2009 C2035 0.950 . S
H2010 C2036 0.950 . S
H2011 C2038 0.950 . S
H2012 C2041 0.950 . S
H2013 C2042 0.950 . S
H2014 C2044 0.950 . S
H2015 C2045 0.950 . S
C2016 H1998 0.951 . S
C2016 C2017 1.366 . S
C2016 C2018 1.388 . S
C2017 C2016 1.366 . S
C2017 C2021 1.385 . S
C2018 H1999 0.951 . S
C2018 C2016 1.388 . S
C2018 C2019 1.366 . S
C2019 C2018 1.366 . S
C2019 C2020 1.414 . S
C2019 C2022 1.499 . S
C2020 H2000 0.950 . S
C2020 C2019 1.414 . S
C2020 C2021 1.374 . S
C2021 H2001 0.950 . S
C2021 C2017 1.385 . S
C2021 C2020 1.374 . S
C2022 C2019 1.499 . S
C2022 C2023 1.373 . S
C2022 C2024 1.389 . S
C2023 H2002 0.950 . S
C2023 C2022 1.373 . S
C2023 C2039 1.377 . S
C2024 C2022 1.389 . S
C2024 C2025 1.524 . S
C2024 C2038 1.377 . S
C2025 C2024 1.524 . S
C2025 C2026 1.397 . S
C2025 C2030 1.363 . S
C2026 H2003 0.950 . S
C2026 C2025 1.397 . S
C2026 C2027 1.334 . S
C2027 H2004 0.950 . S
C2027 C2026 1.334 . S
C2027 C2028 1.287 . S
C2028 C2027 1.287 . S
C2028 C2029 1.524 . S
C2028 H2047 0.913 . S
C2029 H2005 0.950 . S
C2029 C2028 1.524 . S
C2029 C2030 1.415 . S
C2030 H2006 0.950 . S
C2030 C2025 1.363 . S
C2030 C2029 1.415 . S
C2031 H2007 0.951 . S
C2031 C2032 1.366 . S
C2031 C2033 1.388 . S
C2032 C2031 1.366 . S
C2032 C2036 1.385 . S
C2033 H2008 0.951 . S
C2033 C2031 1.388 . S
C2033 C2034 1.366 . S
C2034 C2033 1.366 . S
C2034 C2035 1.414 . S
C2034 C2037 1.499 . S
C2035 H2009 0.950 . S
C2035 C2034 1.414 . S
C2035 C2036 1.374 . S
C2036 H2010 0.950 . S
C2036 C2032 1.385 . S
C2036 C2035 1.374 . S
C2037 C2034 1.499 . S
C2037 C2038 1.373 . S
C2037 C2039 1.389 . S
C2038 H2011 0.950 . S
C2038 C2024 1.377 . S
C2038 C2037 1.373 . S
C2039 C2023 1.377 . S
C2039 C2037 1.389 . S
C2039 C2040 1.524 . S
C2040 C2039 1.524 . S
C2040 C2041 1.397 . S
C2040 C2045 1.363 . S
C2041 H2012 0.950 . S
C2041 C2040 1.397 . S
C2041 C2042 1.334 . S
C2042 H2013 0.950 . S
C2042 C2041 1.334 . S
C2042 C2043 1.287 . S
C2043 C2042 1.287 . S
C2043 C2044 1.524 . S
C2043 H2046 0.999 . S
C2044 H2014 0.950 . S
C2044 C2043 1.524 . S
C2044 C2045 1.415 . S
C2045 H2015 0.950 . S
C2045 C2040 1.363 . S
C2045 C2044 1.415 . S
H2046 C2043 0.999 . S
H2047 C2028 0.913 . S
H2048 C2066 0.951 . S
H2049 C2068 0.951 . S
H2050 C2070 0.950 . S
H2051 C2071 0.950 . S
H2052 C2073 0.950 . S
H2053 C2076 0.950 . S
H2054 C2077 0.950 . S
H2055 C2079 0.950 . S
H2056 C2080 0.950 . S
H2057 C2081 0.951 . S
H2058 C2083 0.951 . S
H2059 C2085 0.950 . S
H2060 C2086 0.950 . S
H2061 C2088 0.950 . S
H2062 C2091 0.950 . S
H2063 C2092 0.950 . S
H2064 C2094 0.950 . S
H2065 C2095 0.950 . S
C2066 H2048 0.951 . S
C2066 C2067 1.366 . S
C2066 C2068 1.388 . S
C2067 C2066 1.366 . S
C2067 C2071 1.385 . S
C2068 H2049 0.951 . S
C2068 C2066 1.388 . S
C2068 C2069 1.366 . S
C2069 C2068 1.366 . S
C2069 C2070 1.414 . S
C2069 C2072 1.499 . S
C2070 H2050 0.950 . S
C2070 C2069 1.414 . S
C2070 C2071 1.374 . S
C2071 H2051 0.950 . S
C2071 C2067 1.385 . S
C2071 C2070 1.374 . S
C2072 C2069 1.499 . S
C2072 C2073 1.373 . S
C2072 C2074 1.389 . S
C2073 H2052 0.950 . S
C2073 C2072 1.373 . S
C2073 C2089 1.377 . S
C2074 C2072 1.389 . S
C2074 C2075 1.524 . S
C2074 C2088 1.377 . S
C2075 C2074 1.524 . S
C2075 C2076 1.397 . S
C2075 C2080 1.363 . S
C2076 H2053 0.950 . S
C2076 C2075 1.397 . S
C2076 C2077 1.334 . S
C2077 H2054 0.950 . S
C2077 C2076 1.334 . S
C2077 C2078 1.287 . S
C2078 C2077 1.287 . S
C2078 C2079 1.524 . S
C2078 H2097 0.913 . S
C2079 H2055 0.950 . S
C2079 C2078 1.524 . S
C2079 C2080 1.415 . S
C2080 H2056 0.950 . S
C2080 C2075 1.363 . S
C2080 C2079 1.415 . S
C2081 H2057 0.951 . S
C2081 C2082 1.366 . S
C2081 C2083 1.388 . S
C2082 C2081 1.366 . S
C2082 C2086 1.385 . S
C2083 H2058 0.951 . S
C2083 C2081 1.388 . S
C2083 C2084 1.366 . S
C2084 C2083 1.366 . S
C2084 C2085 1.414 . S
C2084 C2087 1.499 . S
C2085 H2059 0.950 . S
C2085 C2084 1.414 . S
C2085 C2086 1.374 . S
C2086 H2060 0.950 . S
C2086 C2082 1.385 . S
C2086 C2085 1.374 . S
C2087 C2084 1.499 . S
C2087 C2088 1.373 . S
C2087 C2089 1.389 . S
C2088 H2061 0.950 . S
C2088 C2074 1.377 . S
C2088 C2087 1.373 . S
C2089 C2073 1.377 . S
C2089 C2087 1.389 . S
C2089 C2090 1.524 . S
C2090 C2089 1.524 . S
C2090 C2091 1.397 . S
C2090 C2095 1.363 . S
C2091 H2062 0.950 . S
C2091 C2090 1.397 . S
C2091 C2092 1.334 . S
C2092 H2063 0.950 . S
C2092 C2091 1.334 . S
C2092 C2093 1.287 . S
C2093 C2092 1.287 . S
C2093 C2094 1.524 . S
C2093 H2096 0.999 . S
C2094 H2064 0.950 . S
C2094 C2093 1.524 . S
C2094 C2095 1.415 . S
C2095 H2065 0.950 . S
C2095 C2090 1.363 . S
C2095 C2094 1.415 . S
H2096 C2093 0.999 . S
H2097 C2078 0.913 . S
H2098 C2116 0.951 . S
H2099 C2118 0.951 . S
H2100 C2120 0.950 . S
H2101 C2121 0.950 . S
H2102 C2123 0.950 . S
H2103 C2126 0.950 . S
H2104 C2127 0.950 . S
H2105 C2129 0.950 . S
H2106 C2130 0.950 . S
H2107 C2131 0.951 . S
H2108 C2133 0.951 . S
H2109 C2135 0.950 . S
H2110 C2136 0.950 . S
H2111 C2138 0.950 . S
H2112 C2141 0.950 . S
H2113 C2142 0.950 . S
H2114 C2144 0.950 . S
H2115 C2145 0.950 . S
C2116 H2098 0.951 . S
C2116 C2117 1.366 . S
C2116 C2118 1.388 . S
C2117 C2116 1.366 . S
C2117 C2121 1.385 . S
C2118 H2099 0.951 . S
C2118 C2116 1.388 . S
C2118 C2119 1.366 . S
C2119 C2118 1.366 . S
C2119 C2120 1.414 . S
C2119 C2122 1.499 . S
C2120 H2100 0.950 . S
C2120 C2119 1.414 . S
C2120 C2121 1.374 . S
C2121 H2101 0.950 . S
C2121 C2117 1.385 . S
C2121 C2120 1.374 . S
C2122 C2119 1.499 . S
C2122 C2123 1.373 . S
C2122 C2124 1.389 . S
C2123 H2102 0.950 . S
C2123 C2122 1.373 . S
C2123 C2139 1.377 . S
C2124 C2122 1.389 . S
C2124 C2125 1.524 . S
C2124 C2138 1.377 . S
C2125 C2124 1.524 . S
C2125 C2126 1.397 . S
C2125 C2130 1.363 . S
C2126 H2103 0.950 . S
C2126 C2125 1.397 . S
C2126 C2127 1.334 . S
C2127 H2104 0.950 . S
C2127 C2126 1.334 . S
C2127 C2128 1.287 . S
C2128 C2127 1.287 . S
C2128 C2129 1.524 . S
C2128 H2147 0.913 . S
C2129 H2105 0.950 . S
C2129 C2128 1.524 . S
C2129 C2130 1.415 . S
C2130 H2106 0.950 . S
C2130 C2125 1.363 . S
C2130 C2129 1.415 . S
C2131 H2107 0.951 . S
C2131 C2132 1.366 . S
C2131 C2133 1.388 . S
C2132 C2131 1.366 . S
C2132 C2136 1.385 . S
C2133 H2108 0.951 . S
C2133 C2131 1.388 . S
C2133 C2134 1.366 . S
C2134 C2133 1.366 . S
C2134 C2135 1.414 . S
C2134 C2137 1.499 . S
C2135 H2109 0.950 . S
C2135 C2134 1.414 . S
C2135 C2136 1.374 . S
C2136 H2110 0.950 . S
C2136 C2132 1.385 . S
C2136 C2135 1.374 . S
C2137 C2134 1.499 . S
C2137 C2138 1.373 . S
C2137 C2139 1.389 . S
C2138 H2111 0.950 . S
C2138 C2124 1.377 . S
C2138 C2137 1.373 . S
C2139 C2123 1.377 . S
C2139 C2137 1.389 . S
C2139 C2140 1.524 . S
C2140 C2139 1.524 . S
C2140 C2141 1.397 . S
C2140 C2145 1.363 . S
C2141 H2112 0.950 . S
C2141 C2140 1.397 . S
C2141 C2142 1.334 . S
C2142 H2113 0.950 . S
C2142 C2141 1.334 . S
C2142 C2143 1.287 . S
C2143 C2142 1.287 . S
C2143 C2144 1.524 . S
C2143 H2146 0.999 . S
C2144 H2114 0.950 . S
C2144 C2143 1.524 . S
C2144 C2145 1.415 . S
C2145 H2115 0.950 . S
C2145 C2140 1.363 . S
C2145 C2144 1.415 . S
H2146 C2143 0.999 . S
H2147 C2128 0.913 . S
H2148 C2166 0.951 . S
H2149 C2168 0.951 . S
H2150 C2170 0.950 . S
H2151 C2171 0.950 . S
H2152 C2173 0.950 . S
H2153 C2176 0.950 . S
H2154 C2177 0.950 . S
H2155 C2179 0.950 . S
H2156 C2180 0.950 . S
H2157 C2181 0.951 . S
H2158 C2183 0.951 . S
H2159 C2185 0.950 . S
H2160 C2186 0.950 . S
H2161 C2188 0.950 . S
H2162 C2191 0.950 . S
H2163 C2192 0.950 . S
H2164 C2194 0.950 . S
H2165 C2195 0.950 . S
C2166 H2148 0.951 . S
C2166 C2167 1.366 . S
C2166 C2168 1.388 . S
C2167 C2166 1.366 . S
C2167 C2171 1.385 . S
C2168 H2149 0.951 . S
C2168 C2166 1.388 . S
C2168 C2169 1.366 . S
C2169 C2168 1.366 . S
C2169 C2170 1.414 . S
C2169 C2172 1.499 . S
C2170 H2150 0.950 . S
C2170 C2169 1.414 . S
C2170 C2171 1.374 . S
C2171 H2151 0.950 . S
C2171 C2167 1.385 . S
C2171 C2170 1.374 . S
C2172 C2169 1.499 . S
C2172 C2173 1.373 . S
C2172 C2174 1.389 . S
C2173 H2152 0.950 . S
C2173 C2172 1.373 . S
C2173 C2189 1.377 . S
C2174 C2172 1.389 . S
C2174 C2175 1.524 . S
C2174 C2188 1.377 . S
C2175 C2174 1.524 . S
C2175 C2176 1.397 . S
C2175 C2180 1.363 . S
C2176 H2153 0.950 . S
C2176 C2175 1.397 . S
C2176 C2177 1.334 . S
C2177 H2154 0.950 . S
C2177 C2176 1.334 . S
C2177 C2178 1.287 . S
C2178 C2177 1.287 . S
C2178 C2179 1.524 . S
C2178 H2197 0.913 . S
C2179 H2155 0.950 . S
C2179 C2178 1.524 . S
C2179 C2180 1.415 . S
C2180 H2156 0.950 . S
C2180 C2175 1.363 . S
C2180 C2179 1.415 . S
C2181 H2157 0.951 . S
C2181 C2182 1.366 . S
C2181 C2183 1.388 . S
C2182 C2181 1.366 . S
C2182 C2186 1.385 . S
C2183 H2158 0.951 . S
C2183 C2181 1.388 . S
C2183 C2184 1.366 . S
C2184 C2183 1.366 . S
C2184 C2185 1.414 . S
C2184 C2187 1.499 . S
C2185 H2159 0.950 . S
C2185 C2184 1.414 . S
C2185 C2186 1.374 . S
C2186 H2160 0.950 . S
C2186 C2182 1.385 . S
C2186 C2185 1.374 . S
C2187 C2184 1.499 . S
C2187 C2188 1.373 . S
C2187 C2189 1.389 . S
C2188 H2161 0.950 . S
C2188 C2174 1.377 . S
C2188 C2187 1.373 . S
C2189 C2173 1.377 . S
C2189 C2187 1.389 . S
C2189 C2190 1.524 . S
C2190 C2189 1.524 . S
C2190 C2191 1.397 . S
C2190 C2195 1.363 . S
C2191 H2162 0.950 . S
C2191 C2190 1.397 . S
C2191 C2192 1.334 . S
C2192 H2163 0.950 . S
C2192 C2191 1.334 . S
C2192 C2193 1.287 . S
C2193 C2192 1.287 . S
C2193 C2194 1.524 . S
C2193 H2196 0.999 . S
C2194 H2164 0.950 . S
C2194 C2193 1.524 . S
C2194 C2195 1.415 . S
C2195 H2165 0.950 . S
C2195 C2190 1.363 . S
C2195 C2194 1.415 . S
H2196 C2193 0.999 . S
H2197 C2178 0.913 . S
H2198 C2216 0.951 . S
H2199 C2218 0.951 . S
H2200 C2220 0.950 . S
H2201 C2221 0.950 . S
H2202 C2223 0.950 . S
H2203 C2226 0.950 . S
H2204 C2227 0.950 . S
H2205 C2229 0.950 . S
H2206 C2230 0.950 . S
H2207 C2231 0.951 . S
H2208 C2233 0.951 . S
H2209 C2235 0.950 . S
H2210 C2236 0.950 . S
H2211 C2238 0.950 . S
H2212 C2241 0.950 . S
H2213 C2242 0.950 . S
H2214 C2244 0.950 . S
H2215 C2245 0.950 . S
C2216 H2198 0.951 . S
C2216 C2217 1.366 . S
C2216 C2218 1.388 . S
C2217 C2216 1.366 . S
C2217 C2221 1.385 . S
C2218 H2199 0.951 . S
C2218 C2216 1.388 . S
C2218 C2219 1.366 . S
C2219 C2218 1.366 . S
C2219 C2220 1.414 . S
C2219 C2222 1.499 . S
C2220 H2200 0.950 . S
C2220 C2219 1.414 . S
C2220 C2221 1.374 . S
C2221 H2201 0.950 . S
C2221 C2217 1.385 . S
C2221 C2220 1.374 . S
C2222 C2219 1.499 . S
C2222 C2223 1.373 . S
C2222 C2224 1.389 . S
C2223 H2202 0.950 . S
C2223 C2222 1.373 . S
C2223 C2239 1.377 . S
C2224 C2222 1.389 . S
C2224 C2225 1.524 . S
C2224 C2238 1.377 . S
C2225 C2224 1.524 . S
C2225 C2226 1.397 . S
C2225 C2230 1.363 . S
C2226 H2203 0.950 . S
C2226 C2225 1.397 . S
C2226 C2227 1.334 . S
C2227 H2204 0.950 . S
C2227 C2226 1.334 . S
C2227 C2228 1.287 . S
C2228 C2227 1.287 . S
C2228 C2229 1.524 . S
C2228 H2247 0.913 . S
C2229 H2205 0.950 . S
C2229 C2228 1.524 . S
C2229 C2230 1.415 . S
C2230 H2206 0.950 . S
C2230 C2225 1.363 . S
C2230 C2229 1.415 . S
C2231 H2207 0.951 . S
C2231 C2232 1.366 . S
C2231 C2233 1.388 . S
C2232 C2231 1.366 . S
C2232 C2236 1.385 . S
C2233 H2208 0.951 . S
C2233 C2231 1.388 . S
C2233 C2234 1.366 . S
C2234 C2233 1.366 . S
C2234 C2235 1.414 . S
C2234 C2237 1.499 . S
C2235 H2209 0.950 . S
C2235 C2234 1.414 . S
C2235 C2236 1.374 . S
C2236 H2210 0.950 . S
C2236 C2232 1.385 . S
C2236 C2235 1.374 . S
C2237 C2234 1.499 . S
C2237 C2238 1.373 . S
C2237 C2239 1.389 . S
C2238 H2211 0.950 . S
C2238 C2224 1.377 . S
C2238 C2237 1.373 . S
C2239 C2223 1.377 . S
C2239 C2237 1.389 . S
C2239 C2240 1.524 . S
C2240 C2239 1.524 . S
C2240 C2241 1.397 . S
C2240 C2245 1.363 . S
C2241 H2212 0.950 . S
C2241 C2240 1.397 . S
C2241 C2242 1.334 . S
C2242 H2213 0.950 . S
C2242 C2241 1.334 . S
C2242 C2243 1.287 . S
C2243 C2242 1.287 . S
C2243 C2244 1.524 . S
C2243 H2246 0.999 . S
C2244 H2214 0.950 . S
C2244 C2243 1.524 . S
C2244 C2245 1.415 . S
C2245 H2215 0.950 . S
C2245 C2240 1.363 . S
C2245 C2244 1.415 . S
H2246 C2243 0.999 . S
H2247 C2228 0.913 . S
H2248 C2266 0.951 . S
H2249 C2268 0.951 . S
H2250 C2270 0.950 . S
H2251 C2271 0.950 . S
H2252 C2273 0.950 . S
H2253 C2276 0.950 . S
H2254 C2277 0.950 . S
H2255 C2279 0.950 . S
H2256 C2280 0.950 . S
H2257 C2281 0.951 . S
H2258 C2283 0.951 . S
H2259 C2285 0.950 . S
H2260 C2286 0.950 . S
H2261 C2288 0.950 . S
H2262 C2291 0.950 . S
H2263 C2292 0.950 . S
H2264 C2294 0.950 . S
H2265 C2295 0.950 . S
C2266 H2248 0.951 . S
C2266 C2267 1.366 . S
C2266 C2268 1.388 . S
C2267 C2266 1.366 . S
C2267 C2271 1.385 . S
C2268 H2249 0.951 . S
C2268 C2266 1.388 . S
C2268 C2269 1.366 . S
C2269 C2268 1.366 . S
C2269 C2270 1.414 . S
C2269 C2272 1.499 . S
C2270 H2250 0.950 . S
C2270 C2269 1.414 . S
C2270 C2271 1.374 . S
C2271 H2251 0.950 . S
C2271 C2267 1.385 . S
C2271 C2270 1.374 . S
C2272 C2269 1.499 . S
C2272 C2273 1.373 . S
C2272 C2274 1.389 . S
C2273 H2252 0.950 . S
C2273 C2272 1.373 . S
C2273 C2289 1.377 . S
C2274 C2272 1.389 . S
C2274 C2275 1.524 . S
C2274 C2288 1.377 . S
C2275 C2274 1.524 . S
C2275 C2276 1.397 . S
C2275 C2280 1.363 . S
C2276 H2253 0.950 . S
C2276 C2275 1.397 . S
C2276 C2277 1.334 . S
C2277 H2254 0.950 . S
C2277 C2276 1.334 . S
C2277 C2278 1.287 . S
C2278 C2277 1.287 . S
C2278 C2279 1.524 . S
C2278 H2297 0.913 . S
C2279 H2255 0.950 . S
C2279 C2278 1.524 . S
C2279 C2280 1.415 . S
C2280 H2256 0.950 . S
C2280 C2275 1.363 . S
C2280 C2279 1.415 . S
C2281 H2257 0.951 . S
C2281 C2282 1.366 . S
C2281 C2283 1.388 . S
C2282 C2281 1.366 . S
C2282 C2286 1.385 . S
C2283 H2258 0.951 . S
C2283 C2281 1.388 . S
C2283 C2284 1.366 . S
C2284 C2283 1.366 . S
C2284 C2285 1.414 . S
C2284 C2287 1.499 . S
C2285 H2259 0.950 . S
C2285 C2284 1.414 . S
C2285 C2286 1.374 . S
C2286 H2260 0.950 . S
C2286 C2282 1.385 . S
C2286 C2285 1.374 . S
C2287 C2284 1.499 . S
C2287 C2288 1.373 . S
C2287 C2289 1.389 . S
C2288 H2261 0.950 . S
C2288 C2274 1.377 . S
C2288 C2287 1.373 . S
C2289 C2273 1.377 . S
C2289 C2287 1.389 . S
C2289 C2290 1.524 . S
C2290 C2289 1.524 . S
C2290 C2291 1.397 . S
C2290 C2295 1.363 . S
C2291 H2262 0.950 . S
C2291 C2290 1.397 . S
C2291 C2292 1.334 . S
C2292 H2263 0.950 . S
C2292 C2291 1.334 . S
C2292 C2293 1.287 . S
C2293 C2292 1.287 . S
C2293 C2294 1.524 . S
C2293 H2296 0.999 . S
C2294 H2264 0.950 . S
C2294 C2293 1.524 . S
C2294 C2295 1.415 . S
C2295 H2265 0.950 . S
C2295 C2290 1.363 . S
C2295 C2294 1.415 . S
H2296 C2293 0.999 . S
H2297 C2278 0.913 . S
H2298 C2316 0.951 . S
H2299 C2318 0.951 . S
H2300 C2320 0.950 . S
H2301 C2321 0.950 . S
H2302 C2323 0.950 . S
H2303 C2326 0.950 . S
H2304 C2327 0.950 . S
H2305 C2329 0.950 . S
H2306 C2330 0.950 . S
H2307 C2331 0.951 . S
H2308 C2333 0.951 . S
H2309 C2335 0.950 . S
H2310 C2336 0.950 . S
H2311 C2338 0.950 . S
H2312 C2341 0.950 . S
H2313 C2342 0.950 . S
H2314 C2344 0.950 . S
H2315 C2345 0.950 . S
C2316 H2298 0.951 . S
C2316 C2317 1.366 . S
C2316 C2318 1.388 . S
C2317 C2316 1.366 . S
C2317 C2321 1.385 . S
C2318 H2299 0.951 . S
C2318 C2316 1.388 . S
C2318 C2319 1.366 . S
C2319 C2318 1.366 . S
C2319 C2320 1.414 . S
C2319 C2322 1.499 . S
C2320 H2300 0.950 . S
C2320 C2319 1.414 . S
C2320 C2321 1.374 . S
C2321 H2301 0.950 . S
C2321 C2317 1.385 . S
C2321 C2320 1.374 . S
C2322 C2319 1.499 . S
C2322 C2323 1.373 . S
C2322 C2324 1.389 . S
C2323 H2302 0.950 . S
C2323 C2322 1.373 . S
C2323 C2339 1.377 . S
C2324 C2322 1.389 . S
C2324 C2325 1.524 . S
C2324 C2338 1.377 . S
C2325 C2324 1.524 . S
C2325 C2326 1.397 . S
C2325 C2330 1.363 . S
C2326 H2303 0.950 . S
C2326 C2325 1.397 . S
C2326 C2327 1.334 . S
C2327 H2304 0.950 . S
C2327 C2326 1.334 . S
C2327 C2328 1.287 . S
C2328 C2327 1.287 . S
C2328 C2329 1.524 . S
C2328 H2347 0.913 . S
C2329 H2305 0.950 . S
C2329 C2328 1.524 . S
C2329 C2330 1.415 . S
C2330 H2306 0.950 . S
C2330 C2325 1.363 . S
C2330 C2329 1.415 . S
C2331 H2307 0.951 . S
C2331 C2332 1.366 . S
C2331 C2333 1.388 . S
C2332 C2331 1.366 . S
C2332 C2336 1.385 . S
C2333 H2308 0.951 . S
C2333 C2331 1.388 . S
C2333 C2334 1.366 . S
C2334 C2333 1.366 . S
C2334 C2335 1.414 . S
C2334 C2337 1.499 . S
C2335 H2309 0.950 . S
C2335 C2334 1.414 . S
C2335 C2336 1.374 . S
C2336 H2310 0.950 . S
C2336 C2332 1.385 . S
C2336 C2335 1.374 . S
C2337 C2334 1.499 . S
C2337 C2338 1.373 . S
C2337 C2339 1.389 . S
C2338 H2311 0.950 . S
C2338 C2324 1.377 . S
C2338 C2337 1.373 . S
C2339 C2323 1.377 . S
C2339 C2337 1.389 . S
C2339 C2340 1.524 . S
C2340 C2339 1.524 . S
C2340 C2341 1.397 . S
C2340 C2345 1.363 . S
C2341 H2312 0.950 . S
C2341 C2340 1.397 . S
C2341 C2342 1.334 . S
C2342 H2313 0.950 . S
C2342 C2341 1.334 . S
C2342 C2343 1.287 . S
C2343 C2342 1.287 . S
C2343 C2344 1.524 . S
C2343 H2346 0.999 . S
C2344 H2314 0.950 . S
C2344 C2343 1.524 . S
C2344 C2345 1.415 . S
C2345 H2315 0.950 . S
C2345 C2340 1.363 . S
C2345 C2344 1.415 . S
H2346 C2343 0.999 . S
H2347 C2328 0.913 . S
H2348 C2366 0.951 . S
H2349 C2368 0.951 . S
H2350 C2370 0.950 . S
H2351 C2371 0.950 . S
H2352 C2373 0.950 . S
H2353 C2376 0.950 . S
H2354 C2377 0.950 . S
H2355 C2379 0.950 . S
H2356 C2380 0.950 . S
H2357 C2381 0.951 . S
H2358 C2383 0.951 . S
H2359 C2385 0.950 . S
H2360 C2386 0.950 . S
H2361 C2388 0.950 . S
H2362 C2391 0.950 . S
H2363 C2392 0.950 . S
H2364 C2394 0.950 . S
H2365 C2395 0.950 . S
C2366 H2348 0.951 . S
C2366 C2367 1.366 . S
C2366 C2368 1.388 . S
C2367 C2366 1.366 . S
C2367 C2371 1.385 . S
C2368 H2349 0.951 . S
C2368 C2366 1.388 . S
C2368 C2369 1.366 . S
C2369 C2368 1.366 . S
C2369 C2370 1.414 . S
C2369 C2372 1.499 . S
C2370 H2350 0.950 . S
C2370 C2369 1.414 . S
C2370 C2371 1.374 . S
C2371 H2351 0.950 . S
C2371 C2367 1.385 . S
C2371 C2370 1.374 . S
C2372 C2369 1.499 . S
C2372 C2373 1.373 . S
C2372 C2374 1.389 . S
C2373 H2352 0.950 . S
C2373 C2372 1.373 . S
C2373 C2389 1.377 . S
C2374 C2372 1.389 . S
C2374 C2375 1.524 . S
C2374 C2388 1.377 . S
C2375 C2374 1.524 . S
C2375 C2376 1.397 . S
C2375 C2380 1.363 . S
C2376 H2353 0.950 . S
C2376 C2375 1.397 . S
C2376 C2377 1.334 . S
C2377 H2354 0.950 . S
C2377 C2376 1.334 . S
C2377 C2378 1.287 . S
C2378 C2377 1.287 . S
C2378 C2379 1.524 . S
C2378 H2397 0.913 . S
C2379 H2355 0.950 . S
C2379 C2378 1.524 . S
C2379 C2380 1.415 . S
C2380 H2356 0.950 . S
C2380 C2375 1.363 . S
C2380 C2379 1.415 . S
C2381 H2357 0.951 . S
C2381 C2382 1.366 . S
C2381 C2383 1.388 . S
C2382 C2381 1.366 . S
C2382 C2386 1.385 . S
C2383 H2358 0.951 . S
C2383 C2381 1.388 . S
C2383 C2384 1.366 . S
C2384 C2383 1.366 . S
C2384 C2385 1.414 . S
C2384 C2387 1.499 . S
C2385 H2359 0.950 . S
C2385 C2384 1.414 . S
C2385 C2386 1.374 . S
C2386 H2360 0.950 . S
C2386 C2382 1.385 . S
C2386 C2385 1.374 . S
C2387 C2384 1.499 . S
C2387 C2388 1.373 . S
C2387 C2389 1.389 . S
C2388 H2361 0.950 . S
C2388 C2374 1.377 . S
C2388 C2387 1.373 . S
C2389 C2373 1.377 . S
C2389 C2387 1.389 . S
C2389 C2390 1.524 . S
C2390 C2389 1.524 . S
C2390 C2391 1.397 . S
C2390 C2395 1.363 . S
C2391 H2362 0.950 . S
C2391 C2390 1.397 . S
C2391 C2392 1.334 . S
C2392 H2363 0.950 . S
C2392 C2391 1.334 . S
C2392 C2393 1.287 . S
C2393 C2392 1.287 . S
C2393 C2394 1.524 . S
C2393 H2396 0.999 . S
C2394 H2364 0.950 . S
C2394 C2393 1.524 . S
C2394 C2395 1.415 . S
C2395 H2365 0.950 . S
C2395 C2390 1.363 . S
C2395 C2394 1.415 . S
H2396 C2393 0.999 . S
H2397 C2378 0.913 . S
H2398 C2416 0.951 . S
H2399 C2418 0.951 . S
H2400 C2420 0.950 . S
H2401 C2421 0.950 . S
H2402 C2423 0.950 . S
H2403 C2426 0.950 . S
H2404 C2427 0.950 . S
H2405 C2429 0.950 . S
H2406 C2430 0.950 . S
H2407 C2431 0.951 . S
H2408 C2433 0.951 . S
H2409 C2435 0.950 . S
H2410 C2436 0.950 . S
H2411 C2438 0.950 . S
H2412 C2441 0.950 . S
H2413 C2442 0.950 . S
H2414 C2444 0.950 . S
H2415 C2445 0.950 . S
C2416 H2398 0.951 . S
C2416 C2417 1.366 . S
C2416 C2418 1.388 . S
C2417 C2416 1.366 . S
C2417 C2421 1.385 . S
C2418 H2399 0.951 . S
C2418 C2416 1.388 . S
C2418 C2419 1.366 . S
C2419 C2418 1.366 . S
C2419 C2420 1.414 . S
C2419 C2422 1.499 . S
C2420 H2400 0.950 . S
C2420 C2419 1.414 . S
C2420 C2421 1.374 . S
C2421 H2401 0.950 . S
C2421 C2417 1.385 . S
C2421 C2420 1.374 . S
C2422 C2419 1.499 . S
C2422 C2423 1.373 . S
C2422 C2424 1.389 . S
C2423 H2402 0.950 . S
C2423 C2422 1.373 . S
C2423 C2439 1.377 . S
C2424 C2422 1.389 . S
C2424 C2425 1.524 . S
C2424 C2438 1.377 . S
C2425 C2424 1.524 . S
C2425 C2426 1.397 . S
C2425 C2430 1.363 . S
C2426 H2403 0.950 . S
C2426 C2425 1.397 . S
C2426 C2427 1.334 . S
C2427 H2404 0.950 . S
C2427 C2426 1.334 . S
C2427 C2428 1.287 . S
C2428 C2427 1.287 . S
C2428 C2429 1.524 . S
C2428 H2447 0.913 . S
C2429 H2405 0.950 . S
C2429 C2428 1.524 . S
C2429 C2430 1.415 . S
C2430 H2406 0.950 . S
C2430 C2425 1.363 . S
C2430 C2429 1.415 . S
C2431 H2407 0.951 . S
C2431 C2432 1.366 . S
C2431 C2433 1.388 . S
C2432 C2431 1.366 . S
C2432 C2436 1.385 . S
C2433 H2408 0.951 . S
C2433 C2431 1.388 . S
C2433 C2434 1.366 . S
C2434 C2433 1.366 . S
C2434 C2435 1.414 . S
C2434 C2437 1.499 . S
C2435 H2409 0.950 . S
C2435 C2434 1.414 . S
C2435 C2436 1.374 . S
C2436 H2410 0.950 . S
C2436 C2432 1.385 . S
C2436 C2435 1.374 . S
C2437 C2434 1.499 . S
C2437 C2438 1.373 . S
C2437 C2439 1.389 . S
C2438 H2411 0.950 . S
C2438 C2424 1.377 . S
C2438 C2437 1.373 . S
C2439 C2423 1.377 . S
C2439 C2437 1.389 . S
C2439 C2440 1.524 . S
C2440 C2439 1.524 . S
C2440 C2441 1.397 . S
C2440 C2445 1.363 . S
C2441 H2412 0.950 . S
C2441 C2440 1.397 . S
C2441 C2442 1.334 . S
C2442 H2413 0.950 . S
C2442 C2441 1.334 . S
C2442 C2443 1.287 . S
C2443 C2442 1.287 . S
C2443 C2444 1.524 . S
C2443 H2446 0.999 . S
C2444 H2414 0.950 . S
C2444 C2443 1.524 . S
C2444 C2445 1.415 . S
C2445 H2415 0.950 . S
C2445 C2440 1.363 . S
C2445 C2444 1.415 . S
H2446 C2443 0.999 . S
H2447 C2428 0.913 . S
H2448 C2466 0.951 . S
H2449 C2468 0.951 . S
H2450 C2470 0.950 . S
H2451 C2471 0.950 . S
H2452 C2473 0.950 . S
H2453 C2476 0.950 . S
H2454 C2477 0.950 . S
H2455 C2479 0.950 . S
H2456 C2480 0.950 . S
H2457 C2481 0.951 . S
H2458 C2483 0.951 . S
H2459 C2485 0.950 . S
H2460 C2486 0.950 . S
H2461 C2488 0.950 . S
H2462 C2491 0.950 . S
H2463 C2492 0.950 . S
H2464 C2494 0.950 . S
H2465 C2495 0.950 . S
C2466 H2448 0.951 . S
C2466 C2467 1.366 . S
C2466 C2468 1.388 . S
C2467 C2466 1.366 . S
C2467 C2471 1.385 . S
C2468 H2449 0.951 . S
C2468 C2466 1.388 . S
C2468 C2469 1.366 . S
C2469 C2468 1.366 . S
C2469 C2470 1.414 . S
C2469 C2472 1.499 . S
C2470 H2450 0.950 . S
C2470 C2469 1.414 . S
C2470 C2471 1.374 . S
C2471 H2451 0.950 . S
C2471 C2467 1.385 . S
C2471 C2470 1.374 . S
C2472 C2469 1.499 . S
C2472 C2473 1.373 . S
C2472 C2474 1.389 . S
C2473 H2452 0.950 . S
C2473 C2472 1.373 . S
C2473 C2489 1.377 1_554 S
C2474 C2472 1.389 . S
C2474 C2475 1.524 . S
C2474 C2488 1.377 1_554 S
C2475 C2474 1.524 . S
C2475 C2476 1.397 . S
C2475 C2480 1.363 . S
C2476 H2453 0.950 . S
C2476 C2475 1.397 . S
C2476 C2477 1.334 . S
C2477 H2454 0.950 . S
C2477 C2476 1.334 . S
C2477 C2478 1.287 . S
C2478 C2477 1.287 . S
C2478 C2479 1.524 . S
C2478 H2497 0.913 . S
C2479 H2455 0.950 . S
C2479 C2478 1.524 . S
C2479 C2480 1.415 . S
C2480 H2456 0.950 . S
C2480 C2475 1.363 . S
C2480 C2479 1.415 . S
C2481 H2457 0.951 . S
C2481 C2482 1.366 . S
C2481 C2483 1.388 . S
C2482 C2481 1.366 . S
C2482 C2486 1.385 . S
C2483 H2458 0.951 . S
C2483 C2481 1.388 . S
C2483 C2484 1.366 . S
C2484 C2483 1.366 . S
C2484 C2485 1.414 . S
C2484 C2487 1.499 . S
C2485 H2459 0.950 . S
C2485 C2484 1.414 . S
C2485 C2486 1.374 . S
C2486 H2460 0.950 . S
C2486 C2482 1.385 . S
C2486 C2485 1.374 . S
C2487 C2484 1.499 . S
C2487 C2488 1.373 . S
C2487 C2489 1.389 . S
C2488 H2461 0.950 . S
C2488 C2474 1.377 1_556 S
C2488 C2487 1.373 . S
C2489 C2473 1.377 1_556 S
C2489 C2487 1.389 . S
C2489 C2490 1.524 . S
C2490 C2489 1.524 . S
C2490 C2491 1.397 . S
C2490 C2495 1.363 . S
C2491 H2462 0.950 . S
C2491 C2490 1.397 . S
C2491 C2492 1.334 . S
C2492 H2463 0.950 . S
C2492 C2491 1.334 . S
C2492 C2493 1.287 . S
C2493 C2492 1.287 . S
C2493 C2494 1.524 . S
C2493 H2496 0.999 . S
C2494 H2464 0.950 . S
C2494 C2493 1.524 . S
C2494 C2495 1.415 . S
C2495 H2465 0.950 . S
C2495 C2490 1.363 . S
C2495 C2494 1.415 . S
H2496 C2493 0.999 . S
H2497 C2478 0.913 . S
H2498 C2516 0.951 . S
H2499 C2518 0.951 . S
H2500 C2520 0.950 . S
H2501 C2521 0.950 . S
H2502 C2523 0.950 . S
H2503 C2526 0.950 . S
H2504 C2527 0.950 . S
H2505 C2529 0.950 . S
H2506 C2530 0.950 . S
H2507 C2531 0.951 . S
H2508 C2533 0.951 . S
H2509 C2535 0.950 . S
H2510 C2536 0.950 . S
H2511 C2538 0.950 . S
H2512 C2541 0.950 . S
H2513 C2542 0.950 . S
H2514 C2544 0.950 . S
H2515 C2545 0.950 . S
C2516 H2498 0.951 . S
C2516 C2517 1.366 . S
C2516 C2518 1.388 . S
C2517 C2516 1.366 . S
C2517 C2521 1.385 . S
C2518 H2499 0.951 . S
C2518 C2516 1.388 . S
C2518 C2519 1.366 . S
C2519 C2518 1.366 . S
C2519 C2520 1.414 . S
C2519 C2522 1.499 . S
C2520 H2500 0.950 . S
C2520 C2519 1.414 . S
C2520 C2521 1.374 . S
C2521 H2501 0.950 . S
C2521 C2517 1.385 . S
C2521 C2520 1.374 . S
C2522 C2519 1.499 . S
C2522 C2523 1.373 . S
C2522 C2524 1.389 . S
C2523 H2502 0.950 . S
C2523 C2522 1.373 . S
C2523 C2539 1.377 1_556 S
C2524 C2522 1.389 . S
C2524 C2525 1.524 . S
C2524 C2538 1.377 1_556 S
C2525 C2524 1.524 . S
C2525 C2526 1.397 . S
C2525 C2530 1.363 . S
C2526 H2503 0.950 . S
C2526 C2525 1.397 . S
C2526 C2527 1.334 . S
C2527 H2504 0.950 . S
C2527 C2526 1.334 . S
C2527 C2528 1.287 . S
C2528 C2527 1.287 . S
C2528 C2529 1.524 . S
C2528 H2547 0.913 . S
C2529 H2505 0.950 . S
C2529 C2528 1.524 . S
C2529 C2530 1.415 . S
C2530 H2506 0.950 . S
C2530 C2525 1.363 . S
C2530 C2529 1.415 . S
C2531 H2507 0.951 . S
C2531 C2532 1.366 . S
C2531 C2533 1.388 . S
C2532 C2531 1.366 . S
C2532 C2536 1.385 . S
C2533 H2508 0.951 . S
C2533 C2531 1.388 . S
C2533 C2534 1.366 . S
C2534 C2533 1.366 . S
C2534 C2535 1.414 . S
C2534 C2537 1.499 . S
C2535 H2509 0.950 . S
C2535 C2534 1.414 . S
C2535 C2536 1.374 . S
C2536 H2510 0.950 . S
C2536 C2532 1.385 . S
C2536 C2535 1.374 . S
C2537 C2534 1.499 . S
C2537 C2538 1.373 . S
C2537 C2539 1.389 . S
C2538 H2511 0.950 . S
C2538 C2524 1.377 1_554 S
C2538 C2537 1.373 . S
C2539 C2523 1.377 1_554 S
C2539 C2537 1.389 . S
C2539 C2540 1.524 . S
C2540 C2539 1.524 . S
C2540 C2541 1.397 . S
C2540 C2545 1.363 . S
C2541 H2512 0.950 . S
C2541 C2540 1.397 . S
C2541 C2542 1.334 . S
C2542 H2513 0.950 . S
C2542 C2541 1.334 . S
C2542 C2543 1.287 . S
C2543 C2542 1.287 . S
C2543 C2544 1.524 . S
C2543 H2546 0.999 . S
C2544 H2514 0.950 . S
C2544 C2543 1.524 . S
C2544 C2545 1.415 . S
C2545 H2515 0.950 . S
C2545 C2540 1.363 . S
C2545 C2544 1.415 . S
H2546 C2543 0.999 . S
H2547 C2528 0.913 . S
H2548 C2566 0.951 . S
H2549 C2568 0.951 . S
H2550 C2570 0.950 . S
H2551 C2571 0.950 . S
H2552 C2573 0.950 . S
H2553 C2576 0.950 . S
H2554 C2577 0.950 . S
H2555 C2579 0.950 . S
H2556 C2580 0.950 . S
H2557 C2581 0.951 . S
H2558 C2583 0.951 . S
H2559 C2585 0.950 . S
H2560 C2586 0.950 . S
H2561 C2588 0.950 . S
H2562 C2591 0.950 . S
H2563 C2592 0.950 . S
H2564 C2594 0.950 . S
H2565 C2595 0.950 . S
C2566 H2548 0.951 . S
C2566 C2567 1.366 . S
C2566 C2568 1.388 . S
C2567 C2566 1.366 . S
C2567 C2571 1.385 . S
C2568 H2549 0.951 . S
C2568 C2566 1.388 . S
C2568 C2569 1.366 . S
C2569 C2568 1.366 . S
C2569 C2570 1.414 . S
C2569 C2572 1.499 . S
C2570 H2550 0.950 . S
C2570 C2569 1.414 . S
C2570 C2571 1.374 . S
C2571 H2551 0.950 . S
C2571 C2567 1.385 . S
C2571 C2570 1.374 . S
C2572 C2569 1.499 . S
C2572 C2573 1.373 . S
C2572 C2574 1.389 . S
C2573 H2552 0.950 . S
C2573 C2572 1.373 . S
C2573 C2589 1.377 1_554 S
C2574 C2572 1.389 . S
C2574 C2575 1.524 . S
C2574 C2588 1.377 1_554 S
C2575 C2574 1.524 . S
C2575 C2576 1.397 . S
C2575 C2580 1.363 . S
C2576 H2553 0.950 . S
C2576 C2575 1.397 . S
C2576 C2577 1.334 . S
C2577 H2554 0.950 . S
C2577 C2576 1.334 . S
C2577 C2578 1.287 . S
C2578 C2577 1.287 . S
C2578 C2579 1.524 . S
C2578 H2597 0.913 . S
C2579 H2555 0.950 . S
C2579 C2578 1.524 . S
C2579 C2580 1.415 . S
C2580 H2556 0.950 . S
C2580 C2575 1.363 . S
C2580 C2579 1.415 . S
C2581 H2557 0.951 . S
C2581 C2582 1.366 . S
C2581 C2583 1.388 . S
C2582 C2581 1.366 . S
C2582 C2586 1.385 . S
C2583 H2558 0.951 . S
C2583 C2581 1.388 . S
C2583 C2584 1.366 . S
C2584 C2583 1.366 . S
C2584 C2585 1.414 . S
C2584 C2587 1.499 . S
C2585 H2559 0.950 . S
C2585 C2584 1.414 . S
C2585 C2586 1.374 . S
C2586 H2560 0.950 . S
C2586 C2582 1.385 . S
C2586 C2585 1.374 . S
C2587 C2584 1.499 . S
C2587 C2588 1.373 . S
C2587 C2589 1.389 . S
C2588 H2561 0.950 . S
C2588 C2574 1.377 1_556 S
C2588 C2587 1.373 . S
C2589 C2573 1.377 1_556 S
C2589 C2587 1.389 . S
C2589 C2590 1.524 . S
C2590 C2589 1.524 . S
C2590 C2591 1.397 . S
C2590 C2595 1.363 . S
C2591 H2562 0.950 . S
C2591 C2590 1.397 . S
C2591 C2592 1.334 . S
C2592 H2563 0.950 . S
C2592 C2591 1.334 . S
C2592 C2593 1.287 . S
C2593 C2592 1.287 . S
C2593 C2594 1.524 . S
C2593 H2596 0.999 . S
C2594 H2564 0.950 . S
C2594 C2593 1.524 . S
C2594 C2595 1.415 . S
C2595 H2565 0.950 . S
C2595 C2590 1.363 . S
C2595 C2594 1.415 . S
H2596 C2593 0.999 . S
H2597 C2578 0.913 . S
H2598 C2616 0.951 . S
H2599 C2618 0.951 . S
H2600 C2620 0.950 . S
H2601 C2621 0.950 . S
H2602 C2623 0.950 . S
H2603 C2626 0.950 . S
H2604 C2627 0.950 . S
H2605 C2629 0.950 . S
H2606 C2630 0.950 . S
H2607 C2631 0.951 . S
H2608 C2633 0.951 . S
H2609 C2635 0.950 . S
H2610 C2636 0.950 . S
H2611 C2638 0.950 . S
H2612 C2641 0.950 . S
H2613 C2642 0.950 . S
H2614 C2644 0.950 . S
H2615 C2645 0.950 . S
C2616 H2598 0.951 . S
C2616 C2617 1.366 . S
C2616 C2618 1.388 . S
C2617 C2616 1.366 . S
C2617 C2621 1.385 . S
C2618 H2599 0.951 . S
C2618 C2616 1.388 . S
C2618 C2619 1.366 . S
C2619 C2618 1.366 . S
C2619 C2620 1.414 . S
C2619 C2622 1.499 . S
C2620 H2600 0.950 . S
C2620 C2619 1.414 . S
C2620 C2621 1.374 . S
C2621 H2601 0.950 . S
C2621 C2617 1.385 . S
C2621 C2620 1.374 . S
C2622 C2619 1.499 . S
C2622 C2623 1.373 . S
C2622 C2624 1.389 . S
C2623 H2602 0.950 . S
C2623 C2622 1.373 . S
C2623 C2639 1.377 1_554 S
C2624 C2622 1.389 . S
C2624 C2625 1.524 . S
C2624 C2638 1.377 1_554 S
C2625 C2624 1.524 . S
C2625 C2626 1.397 . S
C2625 C2630 1.363 . S
C2626 H2603 0.950 . S
C2626 C2625 1.397 . S
C2626 C2627 1.334 . S
C2627 H2604 0.950 . S
C2627 C2626 1.334 . S
C2627 C2628 1.287 . S
C2628 C2627 1.287 . S
C2628 C2629 1.524 . S
C2628 H2647 0.913 . S
C2629 H2605 0.950 . S
C2629 C2628 1.524 . S
C2629 C2630 1.415 . S
C2630 H2606 0.950 . S
C2630 C2625 1.363 . S
C2630 C2629 1.415 . S
C2631 H2607 0.951 . S
C2631 C2632 1.366 . S
C2631 C2633 1.388 . S
C2632 C2631 1.366 . S
C2632 C2636 1.385 . S
C2633 H2608 0.951 . S
C2633 C2631 1.388 . S
C2633 C2634 1.366 . S
C2634 C2633 1.366 . S
C2634 C2635 1.414 . S
C2634 C2637 1.499 . S
C2635 H2609 0.950 . S
C2635 C2634 1.414 . S
C2635 C2636 1.374 . S
C2636 H2610 0.950 . S
C2636 C2632 1.385 . S
C2636 C2635 1.374 . S
C2637 C2634 1.499 . S
C2637 C2638 1.373 . S
C2637 C2639 1.389 . S
C2638 H2611 0.950 . S
C2638 C2624 1.377 1_556 S
C2638 C2637 1.373 . S
C2639 C2623 1.377 1_556 S
C2639 C2637 1.389 . S
C2639 C2640 1.524 . S
C2640 C2639 1.524 . S
C2640 C2641 1.397 . S
C2640 C2645 1.363 . S
C2641 H2612 0.950 . S
C2641 C2640 1.397 . S
C2641 C2642 1.334 . S
C2642 H2613 0.950 . S
C2642 C2641 1.334 . S
C2642 C2643 1.287 . S
C2643 C2642 1.287 . S
C2643 C2644 1.524 . S
C2643 H2646 0.999 . S
C2644 H2614 0.950 . S
C2644 C2643 1.524 . S
C2644 C2645 1.415 . S
C2645 H2615 0.950 . S
C2645 C2640 1.363 . S
C2645 C2644 1.415 . S
H2646 C2643 0.999 . S
H2647 C2628 0.913 . S
H2648 C2666 0.951 . S
H2649 C2668 0.951 . S
H2650 C2670 0.950 . S
H2651 C2671 0.950 . S
H2652 C2673 0.950 . S
H2653 C2676 0.950 . S
H2654 C2677 0.950 . S
H2655 C2679 0.950 . S
H2656 C2680 0.950 . S
H2657 C2681 0.951 . S
H2658 C2683 0.951 . S
H2659 C2685 0.950 . S
H2660 C2686 0.950 . S
H2661 C2688 0.950 . S
H2662 C2691 0.950 . S
H2663 C2692 0.950 . S
H2664 C2694 0.950 . S
H2665 C2695 0.950 . S
C2666 H2648 0.951 . S
C2666 C2667 1.366 . S
C2666 C2668 1.388 . S
C2667 C2666 1.366 . S
C2667 C2671 1.385 . S
C2668 H2649 0.951 . S
C2668 C2666 1.388 . S
C2668 C2669 1.366 . S
C2669 C2668 1.366 . S
C2669 C2670 1.414 . S
C2669 C2672 1.499 . S
C2670 H2650 0.950 . S
C2670 C2669 1.414 . S
C2670 C2671 1.374 . S
C2671 H2651 0.950 . S
C2671 C2667 1.385 . S
C2671 C2670 1.374 . S
C2672 C2669 1.499 . S
C2672 C2673 1.373 . S
C2672 C2674 1.389 . S
C2673 H2652 0.950 . S
C2673 C2672 1.373 . S
C2673 C2689 1.377 1_554 S
C2674 C2672 1.389 . S
C2674 C2675 1.524 . S
C2674 C2688 1.377 1_554 S
C2675 C2674 1.524 . S
C2675 C2676 1.397 . S
C2675 C2680 1.363 . S
C2676 H2653 0.950 . S
C2676 C2675 1.397 . S
C2676 C2677 1.334 . S
C2677 H2654 0.950 . S
C2677 C2676 1.334 . S
C2677 C2678 1.287 . S
C2678 C2677 1.287 . S
C2678 C2679 1.524 . S
C2678 H2697 0.913 . S
C2679 H2655 0.950 . S
C2679 C2678 1.524 . S
C2679 C2680 1.415 . S
C2680 H2656 0.950 . S
C2680 C2675 1.363 . S
C2680 C2679 1.415 . S
C2681 H2657 0.951 . S
C2681 C2682 1.366 . S
C2681 C2683 1.388 . S
C2682 C2681 1.366 . S
C2682 C2686 1.385 . S
C2683 H2658 0.951 . S
C2683 C2681 1.388 . S
C2683 C2684 1.366 . S
C2684 C2683 1.366 . S
C2684 C2685 1.414 . S
C2684 C2687 1.499 . S
C2685 H2659 0.950 . S
C2685 C2684 1.414 . S
C2685 C2686 1.374 . S
C2686 H2660 0.950 . S
C2686 C2682 1.385 . S
C2686 C2685 1.374 . S
C2687 C2684 1.499 . S
C2687 C2688 1.373 . S
C2687 C2689 1.389 . S
C2688 H2661 0.950 . S
C2688 C2674 1.377 1_556 S
C2688 C2687 1.373 . S
C2689 C2673 1.377 1_556 S
C2689 C2687 1.389 . S
C2689 C2690 1.524 . S
C2690 C2689 1.524 . S
C2690 C2691 1.397 . S
C2690 C2695 1.363 . S
C2691 H2662 0.950 . S
C2691 C2690 1.397 . S
C2691 C2692 1.334 . S
C2692 H2663 0.950 . S
C2692 C2691 1.334 . S
C2692 C2693 1.287 . S
C2693 C2692 1.287 . S
C2693 C2694 1.524 . S
C2693 H2696 0.999 . S
C2694 H2664 0.950 . S
C2694 C2693 1.524 . S
C2694 C2695 1.415 . S
C2695 H2665 0.950 . S
C2695 C2690 1.363 . S
C2695 C2694 1.415 . S
H2696 C2693 0.999 . S
H2697 C2678 0.913 . S
H2698 C2716 0.951 . S
H2699 C2718 0.951 . S
H2700 C2720 0.950 . S
H2701 C2721 0.950 . S
H2702 C2723 0.950 . S
H2703 C2726 0.950 . S
H2704 C2727 0.950 . S
H2705 C2729 0.950 . S
H2706 C2730 0.950 . S
H2707 C2731 0.951 . S
H2708 C2733 0.951 . S
H2709 C2735 0.950 . S
H2710 C2736 0.950 . S
H2711 C2738 0.950 . S
H2712 C2741 0.950 . S
H2713 C2742 0.950 . S
H2714 C2744 0.950 . S
H2715 C2745 0.950 . S
C2716 H2698 0.951 . S
C2716 C2717 1.366 . S
C2716 C2718 1.388 . S
C2717 C2716 1.366 . S
C2717 C2721 1.385 . S
C2718 H2699 0.951 . S
C2718 C2716 1.388 . S
C2718 C2719 1.366 . S
C2719 C2718 1.366 . S
C2719 C2720 1.414 . S
C2719 C2722 1.499 . S
C2720 H2700 0.950 . S
C2720 C2719 1.414 . S
C2720 C2721 1.374 . S
C2721 H2701 0.950 . S
C2721 C2717 1.385 . S
C2721 C2720 1.374 . S
C2722 C2719 1.499 . S
C2722 C2723 1.373 . S
C2722 C2724 1.389 . S
C2723 H2702 0.950 . S
C2723 C2722 1.373 . S
C2723 C2739 1.377 1_554 S
C2724 C2722 1.389 . S
C2724 C2725 1.524 . S
C2724 C2738 1.377 1_554 S
C2725 C2724 1.524 . S
C2725 C2726 1.397 . S
C2725 C2730 1.363 . S
C2726 H2703 0.950 . S
C2726 C2725 1.397 . S
C2726 C2727 1.334 . S
C2727 H2704 0.950 . S
C2727 C2726 1.334 . S
C2727 C2728 1.287 . S
C2728 C2727 1.287 . S
C2728 C2729 1.524 . S
C2728 H2747 0.913 . S
C2729 H2705 0.950 . S
C2729 C2728 1.524 . S
C2729 C2730 1.415 . S
C2730 H2706 0.950 . S
C2730 C2725 1.363 . S
C2730 C2729 1.415 . S
C2731 H2707 0.951 . S
C2731 C2732 1.366 . S
C2731 C2733 1.388 . S
C2732 C2731 1.366 . S
C2732 C2736 1.385 . S
C2733 H2708 0.951 . S
C2733 C2731 1.388 . S
C2733 C2734 1.366 . S
C2734 C2733 1.366 . S
C2734 C2735 1.414 . S
C2734 C2737 1.499 . S
C2735 H2709 0.950 . S
C2735 C2734 1.414 . S
C2735 C2736 1.374 . S
C2736 H2710 0.950 . S
C2736 C2732 1.385 . S
C2736 C2735 1.374 . S
C2737 C2734 1.499 . S
C2737 C2738 1.373 . S
C2737 C2739 1.389 . S
C2738 H2711 0.950 . S
C2738 C2724 1.377 1_556 S
C2738 C2737 1.373 . S
C2739 C2723 1.377 1_556 S
C2739 C2737 1.389 . S
C2739 C2740 1.524 . S
C2740 C2739 1.524 . S
C2740 C2741 1.397 . S
C2740 C2745 1.363 . S
C2741 H2712 0.950 . S
C2741 C2740 1.397 . S
C2741 C2742 1.334 . S
C2742 H2713 0.950 . S
C2742 C2741 1.334 . S
C2742 C2743 1.287 . S
C2743 C2742 1.287 . S
C2743 C2744 1.524 . S
C2743 H2746 0.999 . S
C2744 H2714 0.950 . S
C2744 C2743 1.524 . S
C2744 C2745 1.415 . S
C2745 H2715 0.950 . S
C2745 C2740 1.363 . S
C2745 C2744 1.415 . S
H2746 C2743 0.999 . S
H2747 C2728 0.913 . S
H2748 C2766 0.951 . S
H2749 C2768 0.951 . S
H2750 C2770 0.950 . S
H2751 C2771 0.950 . S
H2752 C2773 0.950 . S
H2753 C2776 0.950 . S
H2754 C2777 0.950 . S
H2755 C2779 0.950 . S
H2756 C2780 0.950 . S
H2757 C2781 0.951 . S
H2758 C2783 0.951 . S
H2759 C2785 0.950 . S
H2760 C2786 0.950 . S
H2761 C2788 0.950 . S
H2762 C2791 0.950 . S
H2763 C2792 0.950 . S
H2764 C2794 0.950 . S
H2765 C2795 0.950 . S
C2766 H2748 0.951 . S
C2766 C2767 1.366 . S
C2766 C2768 1.388 . S
C2767 C2766 1.366 . S
C2767 C2771 1.385 . S
C2768 H2749 0.951 . S
C2768 C2766 1.388 . S
C2768 C2769 1.366 . S
C2769 C2768 1.366 . S
C2769 C2770 1.414 . S
C2769 C2772 1.499 . S
C2770 H2750 0.950 . S
C2770 C2769 1.414 . S
C2770 C2771 1.374 . S
C2771 H2751 0.950 . S
C2771 C2767 1.385 . S
C2771 C2770 1.374 . S
C2772 C2769 1.499 . S
C2772 C2773 1.373 . S
C2772 C2774 1.389 . S
C2773 H2752 0.950 . S
C2773 C2772 1.373 . S
C2773 C2789 1.377 1_556 S
C2774 C2772 1.389 . S
C2774 C2775 1.524 . S
C2774 C2788 1.377 1_556 S
C2775 C2774 1.524 . S
C2775 C2776 1.397 . S
C2775 C2780 1.363 . S
C2776 H2753 0.950 . S
C2776 C2775 1.397 . S
C2776 C2777 1.334 . S
C2777 H2754 0.950 . S
C2777 C2776 1.334 . S
C2777 C2778 1.287 . S
C2778 C2777 1.287 . S
C2778 C2779 1.524 . S
C2778 H2797 0.913 . S
C2779 H2755 0.950 . S
C2779 C2778 1.524 . S
C2779 C2780 1.415 . S
C2780 H2756 0.950 . S
C2780 C2775 1.363 . S
C2780 C2779 1.415 . S
C2781 H2757 0.951 . S
C2781 C2782 1.366 . S
C2781 C2783 1.388 . S
C2782 C2781 1.366 . S
C2782 C2786 1.385 . S
C2783 H2758 0.951 . S
C2783 C2781 1.388 . S
C2783 C2784 1.366 . S
C2784 C2783 1.366 . S
C2784 C2785 1.414 . S
C2784 C2787 1.499 . S
C2785 H2759 0.950 . S
C2785 C2784 1.414 . S
C2785 C2786 1.374 . S
C2786 H2760 0.950 . S
C2786 C2782 1.385 . S
C2786 C2785 1.374 . S
C2787 C2784 1.499 . S
C2787 C2788 1.373 . S
C2787 C2789 1.389 . S
C2788 H2761 0.950 . S
C2788 C2774 1.377 1_554 S
C2788 C2787 1.373 . S
C2789 C2773 1.377 1_554 S
C2789 C2787 1.389 . S
C2789 C2790 1.524 . S
C2790 C2789 1.524 . S
C2790 C2791 1.397 . S
C2790 C2795 1.363 . S
C2791 H2762 0.950 . S
C2791 C2790 1.397 . S
C2791 C2792 1.334 . S
C2792 H2763 0.950 . S
C2792 C2791 1.334 . S
C2792 C2793 1.287 . S
C2793 C2792 1.287 . S
C2793 C2794 1.524 . S
C2793 H2796 0.999 . S
C2794 H2764 0.950 . S
C2794 C2793 1.524 . S
C2794 C2795 1.415 . S
C2795 H2765 0.950 . S
C2795 C2790 1.363 . S
C2795 C2794 1.415 . S
H2796 C2793 0.999 . S
H2797 C2778 0.913 . S
H2798 C2816 0.951 . S
H2799 C2818 0.951 . S
H2800 C2820 0.950 . S
H2801 C2821 0.950 . S
H2802 C2823 0.950 . S
H2803 C2826 0.950 . S
H2804 C2827 0.950 . S
H2805 C2829 0.950 . S
H2806 C2830 0.950 . S
H2807 C2831 0.951 . S
H2808 C2833 0.951 . S
H2809 C2835 0.950 . S
H2810 C2836 0.950 . S
H2811 C2838 0.950 . S
H2812 C2841 0.950 . S
H2813 C2842 0.950 . S
H2814 C2844 0.950 . S
H2815 C2845 0.950 . S
C2816 H2798 0.951 . S
C2816 C2817 1.366 . S
C2816 C2818 1.388 . S
C2817 C2816 1.366 . S
C2817 C2821 1.385 . S
C2818 H2799 0.951 . S
C2818 C2816 1.388 . S
C2818 C2819 1.366 . S
C2819 C2818 1.366 . S
C2819 C2820 1.414 . S
C2819 C2822 1.499 . S
C2820 H2800 0.950 . S
C2820 C2819 1.414 . S
C2820 C2821 1.374 . S
C2821 H2801 0.950 . S
C2821 C2817 1.385 . S
C2821 C2820 1.374 . S
C2822 C2819 1.499 . S
C2822 C2823 1.373 . S
C2822 C2824 1.389 . S
C2823 H2802 0.950 . S
C2823 C2822 1.373 . S
C2823 C2839 1.377 1_556 S
C2824 C2822 1.389 . S
C2824 C2825 1.524 . S
C2824 C2838 1.377 1_556 S
C2825 C2824 1.524 . S
C2825 C2826 1.397 . S
C2825 C2830 1.363 . S
C2826 H2803 0.950 . S
C2826 C2825 1.397 . S
C2826 C2827 1.334 . S
C2827 H2804 0.950 . S
C2827 C2826 1.334 . S
C2827 C2828 1.287 . S
C2828 C2827 1.287 . S
C2828 C2829 1.524 . S
C2828 H2847 0.913 . S
C2829 H2805 0.950 . S
C2829 C2828 1.524 . S
C2829 C2830 1.415 . S
C2830 H2806 0.950 . S
C2830 C2825 1.363 . S
C2830 C2829 1.415 . S
C2831 H2807 0.951 . S
C2831 C2832 1.366 . S
C2831 C2833 1.388 . S
C2832 C2831 1.366 . S
C2832 C2836 1.385 . S
C2833 H2808 0.951 . S
C2833 C2831 1.388 . S
C2833 C2834 1.366 . S
C2834 C2833 1.366 . S
C2834 C2835 1.414 . S
C2834 C2837 1.499 . S
C2835 H2809 0.950 . S
C2835 C2834 1.414 . S
C2835 C2836 1.374 . S
C2836 H2810 0.950 . S
C2836 C2832 1.385 . S
C2836 C2835 1.374 . S
C2837 C2834 1.499 . S
C2837 C2838 1.373 . S
C2837 C2839 1.389 . S
C2838 H2811 0.950 . S
C2838 C2824 1.377 1_554 S
C2838 C2837 1.373 . S
C2839 C2823 1.377 1_554 S
C2839 C2837 1.389 . S
C2839 C2840 1.524 . S
C2840 C2839 1.524 . S
C2840 C2841 1.397 . S
C2840 C2845 1.363 . S
C2841 H2812 0.950 . S
C2841 C2840 1.397 . S
C2841 C2842 1.334 . S
C2842 H2813 0.950 . S
C2842 C2841 1.334 . S
C2842 C2843 1.287 . S
C2843 C2842 1.287 . S
C2843 C2844 1.524 . S
C2843 H2846 0.999 . S
C2844 H2814 0.950 . S
C2844 C2843 1.524 . S
C2844 C2845 1.415 . S
C2845 H2815 0.950 . S
C2845 C2840 1.363 . S
C2845 C2844 1.415 . S
H2846 C2843 0.999 . S
H2847 C2828 0.913 . S
H2848 C2866 0.951 . S
H2849 C2868 0.951 . S
H2850 C2870 0.950 . S
H2851 C2871 0.950 . S
H2852 C2873 0.950 . S
H2853 C2876 0.950 . S
H2854 C2877 0.950 . S
H2855 C2879 0.950 . S
H2856 C2880 0.950 . S
H2857 C2881 0.951 . S
H2858 C2883 0.951 . S
H2859 C2885 0.950 . S
H2860 C2886 0.950 . S
H2861 C2888 0.950 . S
H2862 C2891 0.950 . S
H2863 C2892 0.950 . S
H2864 C2894 0.950 . S
H2865 C2895 0.950 . S
C2866 H2848 0.951 . S
C2866 C2867 1.366 . S
C2866 C2868 1.388 . S
C2867 C2866 1.366 . S
C2867 C2871 1.385 . S
C2868 H2849 0.951 . S
C2868 C2866 1.388 . S
C2868 C2869 1.366 . S
C2869 C2868 1.366 . S
C2869 C2870 1.414 . S
C2869 C2872 1.499 . S
C2870 H2850 0.950 . S
C2870 C2869 1.414 . S
C2870 C2871 1.374 . S
C2871 H2851 0.950 . S
C2871 C2867 1.385 . S
C2871 C2870 1.374 . S
C2872 C2869 1.499 . S
C2872 C2873 1.373 . S
C2872 C2874 1.389 . S
C2873 H2852 0.950 . S
C2873 C2872 1.373 . S
C2873 C2889 1.377 . S
C2874 C2872 1.389 . S
C2874 C2875 1.524 . S
C2874 C2888 1.377 . S
C2875 C2874 1.524 . S
C2875 C2876 1.397 . S
C2875 C2880 1.363 . S
C2876 H2853 0.950 . S
C2876 C2875 1.397 . S
C2876 C2877 1.334 . S
C2877 H2854 0.950 . S
C2877 C2876 1.334 . S
C2877 C2878 1.287 . S
C2878 C2877 1.287 . S
C2878 C2879 1.524 . S
C2878 H2897 0.913 . S
C2879 H2855 0.950 . S
C2879 C2878 1.524 . S
C2879 C2880 1.415 . S
C2880 H2856 0.950 . S
C2880 C2875 1.363 . S
C2880 C2879 1.415 . S
C2881 H2857 0.951 . S
C2881 C2882 1.366 . S
C2881 C2883 1.388 . S
C2882 C2881 1.366 . S
C2882 C2886 1.385 . S
C2883 H2858 0.951 . S
C2883 C2881 1.388 . S
C2883 C2884 1.366 . S
C2884 C2883 1.366 . S
C2884 C2885 1.414 . S
C2884 C2887 1.499 . S
C2885 H2859 0.950 . S
C2885 C2884 1.414 . S
C2885 C2886 1.374 . S
C2886 H2860 0.950 . S
C2886 C2882 1.385 . S
C2886 C2885 1.374 . S
C2887 C2884 1.499 . S
C2887 C2888 1.373 . S
C2887 C2889 1.389 . S
C2888 H2861 0.950 . S
C2888 C2874 1.377 . S
C2888 C2887 1.373 . S
C2889 C2873 1.377 . S
C2889 C2887 1.389 . S
C2889 C2890 1.524 . S
C2890 C2889 1.524 . S
C2890 C2891 1.397 . S
C2890 C2895 1.363 . S
C2891 H2862 0.950 . S
C2891 C2890 1.397 . S
C2891 C2892 1.334 . S
C2892 H2863 0.950 . S
C2892 C2891 1.334 . S
C2892 C2893 1.287 . S
C2893 C2892 1.287 . S
C2893 C2894 1.524 . S
C2893 H2896 0.999 . S
C2894 H2864 0.950 . S
C2894 C2893 1.524 . S
C2894 C2895 1.415 . S
C2895 H2865 0.950 . S
C2895 C2890 1.363 . S
C2895 C2894 1.415 . S
H2896 C2893 0.999 . S
H2897 C2878 0.913 . S
H2898 C2916 0.951 . S
H2899 C2918 0.951 . S
H2900 C2920 0.950 . S
H2901 C2921 0.950 . S
H2902 C2923 0.950 . S
H2903 C2926 0.950 . S
H2904 C2927 0.950 . S
H2905 C2929 0.950 . S
H2906 C2930 0.950 . S
H2907 C2931 0.951 . S
H2908 C2933 0.951 . S
H2909 C2935 0.950 . S
H2910 C2936 0.950 . S
H2911 C2938 0.950 . S
H2912 C2941 0.950 . S
H2913 C2942 0.950 . S
H2914 C2944 0.950 . S
H2915 C2945 0.950 . S
C2916 H2898 0.951 . S
C2916 C2917 1.366 . S
C2916 C2918 1.388 . S
C2917 C2916 1.366 . S
C2917 C2921 1.385 . S
C2918 H2899 0.951 . S
C2918 C2916 1.388 . S
C2918 C2919 1.366 . S
C2919 C2918 1.366 . S
C2919 C2920 1.414 . S
C2919 C2922 1.499 . S
C2920 H2900 0.950 . S
C2920 C2919 1.414 . S
C2920 C2921 1.374 . S
C2921 H2901 0.950 . S
C2921 C2917 1.385 . S
C2921 C2920 1.374 . S
C2922 C2919 1.499 . S
C2922 C2923 1.373 . S
C2922 C2924 1.389 . S
C2923 H2902 0.950 . S
C2923 C2922 1.373 . S
C2923 C2939 1.377 . S
C2924 C2922 1.389 . S
C2924 C2925 1.524 . S
C2924 C2938 1.377 . S
C2925 C2924 1.524 . S
C2925 C2926 1.397 . S
C2925 C2930 1.363 . S
C2926 H2903 0.950 . S
C2926 C2925 1.397 . S
C2926 C2927 1.334 . S
C2927 H2904 0.950 . S
C2927 C2926 1.334 . S
C2927 C2928 1.287 . S
C2928 C2927 1.287 . S
C2928 C2929 1.524 . S
C2928 H2947 0.913 . S
C2929 H2905 0.950 . S
C2929 C2928 1.524 . S
C2929 C2930 1.415 . S
C2930 H2906 0.950 . S
C2930 C2925 1.363 . S
C2930 C2929 1.415 . S
C2931 H2907 0.951 . S
C2931 C2932 1.366 . S
C2931 C2933 1.388 . S
C2932 C2931 1.366 . S
C2932 C2936 1.385 . S
C2933 H2908 0.951 . S
C2933 C2931 1.388 . S
C2933 C2934 1.366 . S
C2934 C2933 1.366 . S
C2934 C2935 1.414 . S
C2934 C2937 1.499 . S
C2935 H2909 0.950 . S
C2935 C2934 1.414 . S
C2935 C2936 1.374 . S
C2936 H2910 0.950 . S
C2936 C2932 1.385 . S
C2936 C2935 1.374 . S
C2937 C2934 1.499 . S
C2937 C2938 1.373 . S
C2937 C2939 1.389 . S
C2938 H2911 0.950 . S
C2938 C2924 1.377 . S
C2938 C2937 1.373 . S
C2939 C2923 1.377 . S
C2939 C2937 1.389 . S
C2939 C2940 1.524 . S
C2940 C2939 1.524 . S
C2940 C2941 1.397 . S
C2940 C2945 1.363 . S
C2941 H2912 0.950 . S
C2941 C2940 1.397 . S
C2941 C2942 1.334 . S
C2942 H2913 0.950 . S
C2942 C2941 1.334 . S
C2942 C2943 1.287 . S
C2943 C2942 1.287 . S
C2943 C2944 1.524 . S
C2943 H2946 0.999 . S
C2944 H2914 0.950 . S
C2944 C2943 1.524 . S
C2944 C2945 1.415 . S
C2945 H2915 0.950 . S
C2945 C2940 1.363 . S
C2945 C2944 1.415 . S
H2946 C2943 0.999 . S
H2947 C2928 0.913 . S
H2948 C2966 0.951 . S
H2949 C2968 0.951 . S
H2950 C2970 0.950 . S
H2951 C2971 0.950 . S
H2952 C2973 0.950 . S
H2953 C2976 0.950 . S
H2954 C2977 0.950 . S
H2955 C2979 0.950 . S
H2956 C2980 0.950 . S
H2957 C2981 0.951 . S
H2958 C2983 0.951 . S
H2959 C2985 0.950 . S
H2960 C2986 0.950 . S
H2961 C2988 0.950 . S
H2962 C2991 0.950 . S
H2963 C2992 0.950 . S
H2964 C2994 0.950 . S
H2965 C2995 0.950 . S
C2966 H2948 0.951 . S
C2966 C2967 1.366 . S
C2966 C2968 1.388 . S
C2967 C2966 1.366 . S
C2967 C2971 1.385 . S
C2968 H2949 0.951 . S
C2968 C2966 1.388 . S
C2968 C2969 1.366 . S
C2969 C2968 1.366 . S
C2969 C2970 1.414 . S
C2969 C2972 1.499 . S
C2970 H2950 0.950 . S
C2970 C2969 1.414 . S
C2970 C2971 1.374 . S
C2971 H2951 0.950 . S
C2971 C2967 1.385 . S
C2971 C2970 1.374 . S
C2972 C2969 1.499 . S
C2972 C2973 1.373 . S
C2972 C2974 1.389 . S
C2973 H2952 0.950 . S
C2973 C2972 1.373 . S
C2973 C2989 1.377 . S
C2974 C2972 1.389 . S
C2974 C2975 1.524 . S
C2974 C2988 1.377 . S
C2975 C2974 1.524 . S
C2975 C2976 1.397 . S
C2975 C2980 1.363 . S
C2976 H2953 0.950 . S
C2976 C2975 1.397 . S
C2976 C2977 1.334 . S
C2977 H2954 0.950 . S
C2977 C2976 1.334 . S
C2977 C2978 1.287 . S
C2978 C2977 1.287 . S
C2978 C2979 1.524 . S
C2978 H2997 0.913 . S
C2979 H2955 0.950 . S
C2979 C2978 1.524 . S
C2979 C2980 1.415 . S
C2980 H2956 0.950 . S
C2980 C2975 1.363 . S
C2980 C2979 1.415 . S
C2981 H2957 0.951 . S
C2981 C2982 1.366 . S
C2981 C2983 1.388 . S
C2982 C2981 1.366 . S
C2982 C2986 1.385 . S
C2983 H2958 0.951 . S
C2983 C2981 1.388 . S
C2983 C2984 1.366 . S
C2984 C2983 1.366 . S
C2984 C2985 1.414 . S
C2984 C2987 1.499 . S
C2985 H2959 0.950 . S
C2985 C2984 1.414 . S
C2985 C2986 1.374 . S
C2986 H2960 0.950 . S
C2986 C2982 1.385 . S
C2986 C2985 1.374 . S
C2987 C2984 1.499 . S
C2987 C2988 1.373 . S
C2987 C2989 1.389 . S
C2988 H2961 0.950 . S
C2988 C2974 1.377 . S
C2988 C2987 1.373 . S
C2989 C2973 1.377 . S
C2989 C2987 1.389 . S
C2989 C2990 1.524 . S
C2990 C2989 1.524 . S
C2990 C2991 1.397 . S
C2990 C2995 1.363 . S
C2991 H2962 0.950 . S
C2991 C2990 1.397 . S
C2991 C2992 1.334 . S
C2992 H2963 0.950 . S
C2992 C2991 1.334 . S
C2992 C2993 1.287 . S
C2993 C2992 1.287 . S
C2993 C2994 1.524 . S
C2993 H2996 0.999 . S
C2994 H2964 0.950 . S
C2994 C2993 1.524 . S
C2994 C2995 1.415 . S
C2995 H2965 0.950 . S
C2995 C2990 1.363 . S
C2995 C2994 1.415 . S
H2996 C2993 0.999 . S
H2997 C2978 0.913 . S
H2998 C3016 0.951 . S
H2999 C3018 0.951 . S
H3000 C3020 0.950 . S
H3001 C3021 0.950 . S
H3002 C3023 0.950 . S
H3003 C3026 0.950 . S
H3004 C3027 0.950 . S
H3005 C3029 0.950 . S
H3006 C3030 0.950 . S
H3007 C3031 0.951 . S
H3008 C3033 0.951 . S
H3009 C3035 0.950 . S
H3010 C3036 0.950 . S
H3011 C3038 0.950 . S
H3012 C3041 0.950 . S
H3013 C3042 0.950 . S
H3014 C3044 0.950 . S
H3015 C3045 0.950 . S
C3016 H2998 0.951 . S
C3016 C3017 1.366 . S
C3016 C3018 1.388 . S
C3017 C3016 1.366 . S
C3017 C3021 1.385 . S
C3018 H2999 0.951 . S
C3018 C3016 1.388 . S
C3018 C3019 1.366 . S
C3019 C3018 1.366 . S
C3019 C3020 1.414 . S
C3019 C3022 1.499 . S
C3020 H3000 0.950 . S
C3020 C3019 1.414 . S
C3020 C3021 1.374 . S
C3021 H3001 0.950 . S
C3021 C3017 1.385 . S
C3021 C3020 1.374 . S
C3022 C3019 1.499 . S
C3022 C3023 1.373 . S
C3022 C3024 1.389 . S
C3023 H3002 0.950 . S
C3023 C3022 1.373 . S
C3023 C3039 1.377 . S
C3024 C3022 1.389 . S
C3024 C3025 1.524 . S
C3024 C3038 1.377 . S
C3025 C3024 1.524 . S
C3025 C3026 1.397 . S
C3025 C3030 1.363 . S
C3026 H3003 0.950 . S
C3026 C3025 1.397 . S
C3026 C3027 1.334 . S
C3027 H3004 0.950 . S
C3027 C3026 1.334 . S
C3027 C3028 1.287 . S
C3028 C3027 1.287 . S
C3028 C3029 1.524 . S
C3028 H3047 0.913 . S
C3029 H3005 0.950 . S
C3029 C3028 1.524 . S
C3029 C3030 1.415 . S
C3030 H3006 0.950 . S
C3030 C3025 1.363 . S
C3030 C3029 1.415 . S
C3031 H3007 0.951 . S
C3031 C3032 1.366 . S
C3031 C3033 1.388 . S
C3032 C3031 1.366 . S
C3032 C3036 1.385 . S
C3033 H3008 0.951 . S
C3033 C3031 1.388 . S
C3033 C3034 1.366 . S
C3034 C3033 1.366 . S
C3034 C3035 1.414 . S
C3034 C3037 1.499 . S
C3035 H3009 0.950 . S
C3035 C3034 1.414 . S
C3035 C3036 1.374 . S
C3036 H3010 0.950 . S
C3036 C3032 1.385 . S
C3036 C3035 1.374 . S
C3037 C3034 1.499 . S
C3037 C3038 1.373 . S
C3037 C3039 1.389 . S
C3038 H3011 0.950 . S
C3038 C3024 1.377 . S
C3038 C3037 1.373 . S
C3039 C3023 1.377 . S
C3039 C3037 1.389 . S
C3039 C3040 1.524 . S
C3040 C3039 1.524 . S
C3040 C3041 1.397 . S
C3040 C3045 1.363 . S
C3041 H3012 0.950 . S
C3041 C3040 1.397 . S
C3041 C3042 1.334 . S
C3042 H3013 0.950 . S
C3042 C3041 1.334 . S
C3042 C3043 1.287 . S
C3043 C3042 1.287 . S
C3043 C3044 1.524 . S
C3043 H3046 0.999 . S
C3044 H3014 0.950 . S
C3044 C3043 1.524 . S
C3044 C3045 1.415 . S
C3045 H3015 0.950 . S
C3045 C3040 1.363 . S
C3045 C3044 1.415 . S
H3046 C3043 0.999 . S
H3047 C3028 0.913 . S
H3048 C3066 0.951 . S
H3049 C3068 0.951 . S
H3050 C3070 0.950 . S
H3051 C3071 0.950 . S
H3052 C3073 0.950 . S
H3053 C3076 0.950 . S
H3054 C3077 0.950 . S
H3055 C3079 0.950 . S
H3056 C3080 0.950 . S
H3057 C3081 0.951 . S
H3058 C3083 0.951 . S
H3059 C3085 0.950 . S
H3060 C3086 0.950 . S
H3061 C3088 0.950 . S
H3062 C3091 0.950 . S
H3063 C3092 0.950 . S
H3064 C3094 0.950 . S
H3065 C3095 0.950 . S
C3066 H3048 0.951 . S
C3066 C3067 1.366 . S
C3066 C3068 1.388 . S
C3067 C3066 1.366 . S
C3067 C3071 1.385 . S
C3068 H3049 0.951 . S
C3068 C3066 1.388 . S
C3068 C3069 1.366 . S
C3069 C3068 1.366 . S
C3069 C3070 1.414 . S
C3069 C3072 1.499 . S
C3070 H3050 0.950 . S
C3070 C3069 1.414 . S
C3070 C3071 1.374 . S
C3071 H3051 0.950 . S
C3071 C3067 1.385 . S
C3071 C3070 1.374 . S
C3072 C3069 1.499 . S
C3072 C3073 1.373 . S
C3072 C3074 1.389 . S
C3073 H3052 0.950 . S
C3073 C3072 1.373 . S
C3073 C3089 1.377 . S
C3074 C3072 1.389 . S
C3074 C3075 1.524 . S
C3074 C3088 1.377 . S
C3075 C3074 1.524 . S
C3075 C3076 1.397 . S
C3075 C3080 1.363 . S
C3076 H3053 0.950 . S
C3076 C3075 1.397 . S
C3076 C3077 1.334 . S
C3077 H3054 0.950 . S
C3077 C3076 1.334 . S
C3077 C3078 1.287 . S
C3078 C3077 1.287 . S
C3078 C3079 1.524 . S
C3078 H3097 0.913 . S
C3079 H3055 0.950 . S
C3079 C3078 1.524 . S
C3079 C3080 1.415 . S
C3080 H3056 0.950 . S
C3080 C3075 1.363 . S
C3080 C3079 1.415 . S
C3081 H3057 0.951 . S
C3081 C3082 1.366 . S
C3081 C3083 1.388 . S
C3082 C3081 1.366 . S
C3082 C3086 1.385 . S
C3083 H3058 0.951 . S
C3083 C3081 1.388 . S
C3083 C3084 1.366 . S
C3084 C3083 1.366 . S
C3084 C3085 1.414 . S
C3084 C3087 1.499 . S
C3085 H3059 0.950 . S
C3085 C3084 1.414 . S
C3085 C3086 1.374 . S
C3086 H3060 0.950 . S
C3086 C3082 1.385 . S
C3086 C3085 1.374 . S
C3087 C3084 1.499 . S
C3087 C3088 1.373 . S
C3087 C3089 1.389 . S
C3088 H3061 0.950 . S
C3088 C3074 1.377 . S
C3088 C3087 1.373 . S
C3089 C3073 1.377 . S
C3089 C3087 1.389 . S
C3089 C3090 1.524 . S
C3090 C3089 1.524 . S
C3090 C3091 1.397 . S
C3090 C3095 1.363 . S
C3091 H3062 0.950 . S
C3091 C3090 1.397 . S
C3091 C3092 1.334 . S
C3092 H3063 0.950 . S
C3092 C3091 1.334 . S
C3092 C3093 1.287 . S
C3093 C3092 1.287 . S
C3093 C3094 1.524 . S
C3093 H3096 0.999 . S
C3094 H3064 0.950 . S
C3094 C3093 1.524 . S
C3094 C3095 1.415 . S
C3095 H3065 0.950 . S
C3095 C3090 1.363 . S
C3095 C3094 1.415 . S
H3096 C3093 0.999 . S
H3097 C3078 0.913 . S
H3098 C3116 0.951 . S
H3099 C3118 0.951 . S
H3100 C3120 0.950 . S
H3101 C3121 0.950 . S
H3102 C3123 0.950 . S
H3103 C3126 0.950 . S
H3104 C3127 0.950 . S
H3105 C3129 0.950 . S
H3106 C3130 0.950 . S
H3107 C3131 0.951 . S
H3108 C3133 0.951 . S
H3109 C3135 0.950 . S
H3110 C3136 0.950 . S
H3111 C3138 0.950 . S
H3112 C3141 0.950 . S
H3113 C3142 0.950 . S
H3114 C3144 0.950 . S
H3115 C3145 0.950 . S
C3116 H3098 0.951 . S
C3116 C3117 1.366 . S
C3116 C3118 1.388 . S
C3117 C3116 1.366 . S
C3117 C3121 1.385 . S
C3118 H3099 0.951 . S
C3118 C3116 1.388 . S
C3118 C3119 1.366 . S
C3119 C3118 1.366 . S
C3119 C3120 1.414 . S
C3119 C3122 1.499 . S
C3120 H3100 0.950 . S
C3120 C3119 1.414 . S
C3120 C3121 1.374 . S
C3121 H3101 0.950 . S
C3121 C3117 1.385 . S
C3121 C3120 1.374 . S
C3122 C3119 1.499 . S
C3122 C3123 1.373 . S
C3122 C3124 1.389 . S
C3123 H3102 0.950 . S
C3123 C3122 1.373 . S
C3123 C3139 1.377 . S
C3124 C3122 1.389 . S
C3124 C3125 1.524 . S
C3124 C3138 1.377 . S
C3125 C3124 1.524 . S
C3125 C3126 1.397 . S
C3125 C3130 1.363 . S
C3126 H3103 0.950 . S
C3126 C3125 1.397 . S
C3126 C3127 1.334 . S
C3127 H3104 0.950 . S
C3127 C3126 1.334 . S
C3127 C3128 1.287 . S
C3128 C3127 1.287 . S
C3128 C3129 1.524 . S
C3128 H3147 0.913 . S
C3129 H3105 0.950 . S
C3129 C3128 1.524 . S
C3129 C3130 1.415 . S
C3130 H3106 0.950 . S
C3130 C3125 1.363 . S
C3130 C3129 1.415 . S
C3131 H3107 0.951 . S
C3131 C3132 1.366 . S
C3131 C3133 1.388 . S
C3132 C3131 1.366 . S
C3132 C3136 1.385 . S
C3133 H3108 0.951 . S
C3133 C3131 1.388 . S
C3133 C3134 1.366 . S
C3134 C3133 1.366 . S
C3134 C3135 1.414 . S
C3134 C3137 1.499 . S
C3135 H3109 0.950 . S
C3135 C3134 1.414 . S
C3135 C3136 1.374 . S
C3136 H3110 0.950 . S
C3136 C3132 1.385 . S
C3136 C3135 1.374 . S
C3137 C3134 1.499 . S
C3137 C3138 1.373 . S
C3137 C3139 1.389 . S
C3138 H3111 0.950 . S
C3138 C3124 1.377 . S
C3138 C3137 1.373 . S
C3139 C3123 1.377 . S
C3139 C3137 1.389 . S
C3139 C3140 1.524 . S
C3140 C3139 1.524 . S
C3140 C3141 1.397 . S
C3140 C3145 1.363 . S
C3141 H3112 0.950 . S
C3141 C3140 1.397 . S
C3141 C3142 1.334 . S
C3142 H3113 0.950 . S
C3142 C3141 1.334 . S
C3142 C3143 1.287 . S
C3143 C3142 1.287 . S
C3143 C3144 1.524 . S
C3143 H3146 0.999 . S
C3144 H3114 0.950 . S
C3144 C3143 1.524 . S
C3144 C3145 1.415 . S
C3145 H3115 0.950 . S
C3145 C3140 1.363 . S
C3145 C3144 1.415 . S
H3146 C3143 0.999 . S
H3147 C3128 0.913 . S
H3148 C3166 0.951 . S
H3149 C3168 0.951 . S
H3150 C3170 0.950 . S
H3151 C3171 0.950 . S
H3152 C3173 0.950 . S
H3153 C3176 0.950 . S
H3154 C3177 0.950 . S
H3155 C3179 0.950 . S
H3156 C3180 0.950 . S
H3157 C3181 0.951 . S
H3158 C3183 0.951 . S
H3159 C3185 0.950 . S
H3160 C3186 0.950 . S
H3161 C3188 0.950 . S
H3162 C3191 0.950 . S
H3163 C3192 0.950 . S
H3164 C3194 0.950 . S
H3165 C3195 0.950 . S
C3166 H3148 0.951 . S
C3166 C3167 1.366 . S
C3166 C3168 1.388 . S
C3167 C3166 1.366 . S
C3167 C3171 1.385 . S
C3168 H3149 0.951 . S
C3168 C3166 1.388 . S
C3168 C3169 1.366 . S
C3169 C3168 1.366 . S
C3169 C3170 1.414 . S
C3169 C3172 1.499 . S
C3170 H3150 0.950 . S
C3170 C3169 1.414 . S
C3170 C3171 1.374 . S
C3171 H3151 0.950 . S
C3171 C3167 1.385 . S
C3171 C3170 1.374 . S
C3172 C3169 1.499 . S
C3172 C3173 1.373 . S
C3172 C3174 1.389 . S
C3173 H3152 0.950 . S
C3173 C3172 1.373 . S
C3173 C3189 1.377 . S
C3174 C3172 1.389 . S
C3174 C3175 1.524 . S
C3174 C3188 1.377 . S
C3175 C3174 1.524 . S
C3175 C3176 1.397 . S
C3175 C3180 1.363 . S
C3176 H3153 0.950 . S
C3176 C3175 1.397 . S
C3176 C3177 1.334 . S
C3177 H3154 0.950 . S
C3177 C3176 1.334 . S
C3177 C3178 1.287 . S
C3178 C3177 1.287 . S
C3178 C3179 1.524 . S
C3178 H3197 0.913 . S
C3179 H3155 0.950 . S
C3179 C3178 1.524 . S
C3179 C3180 1.415 . S
C3180 H3156 0.950 . S
C3180 C3175 1.363 . S
C3180 C3179 1.415 . S
C3181 H3157 0.951 . S
C3181 C3182 1.366 . S
C3181 C3183 1.388 . S
C3182 C3181 1.366 . S
C3182 C3186 1.385 . S
C3183 H3158 0.951 . S
C3183 C3181 1.388 . S
C3183 C3184 1.366 . S
C3184 C3183 1.366 . S
C3184 C3185 1.414 . S
C3184 C3187 1.499 . S
C3185 H3159 0.950 . S
C3185 C3184 1.414 . S
C3185 C3186 1.374 . S
C3186 H3160 0.950 . S
C3186 C3182 1.385 . S
C3186 C3185 1.374 . S
C3187 C3184 1.499 . S
C3187 C3188 1.373 . S
C3187 C3189 1.389 . S
C3188 H3161 0.950 . S
C3188 C3174 1.377 . S
C3188 C3187 1.373 . S
C3189 C3173 1.377 . S
C3189 C3187 1.389 . S
C3189 C3190 1.524 . S
C3190 C3189 1.524 . S
C3190 C3191 1.397 . S
C3190 C3195 1.363 . S
C3191 H3162 0.950 . S
C3191 C3190 1.397 . S
C3191 C3192 1.334 . S
C3192 H3163 0.950 . S
C3192 C3191 1.334 . S
C3192 C3193 1.287 . S
C3193 C3192 1.287 . S
C3193 C3194 1.524 . S
C3193 H3196 0.999 . S
C3194 H3164 0.950 . S
C3194 C3193 1.524 . S
C3194 C3195 1.415 . S
C3195 H3165 0.950 . S
C3195 C3190 1.363 . S
C3195 C3194 1.415 . S
H3196 C3193 0.999 . S
H3197 C3178 0.913 . S
H3198 C3216 0.951 . S
H3199 C3218 0.951 . S
H3200 C3220 0.950 . S
H3201 C3221 0.950 . S
H3202 C3223 0.950 . S
H3203 C3226 0.950 . S
H3204 C3227 0.950 . S
H3205 C3229 0.950 . S
H3206 C3230 0.950 . S
H3207 C3231 0.951 . S
H3208 C3233 0.951 . S
H3209 C3235 0.950 . S
H3210 C3236 0.950 . S
H3211 C3238 0.950 . S
H3212 C3241 0.950 . S
H3213 C3242 0.950 . S
H3214 C3244 0.950 . S
H3215 C3245 0.950 . S
C3216 H3198 0.951 . S
C3216 C3217 1.366 . S
C3216 C3218 1.388 . S
C3217 C3216 1.366 . S
C3217 C3221 1.385 . S
C3218 H3199 0.951 . S
C3218 C3216 1.388 . S
C3218 C3219 1.366 . S
C3219 C3218 1.366 . S
C3219 C3220 1.414 . S
C3219 C3222 1.499 . S
C3220 H3200 0.950 . S
C3220 C3219 1.414 . S
C3220 C3221 1.374 . S
C3221 H3201 0.950 . S
C3221 C3217 1.385 . S
C3221 C3220 1.374 . S
C3222 C3219 1.499 . S
C3222 C3223 1.373 . S
C3222 C3224 1.389 . S
C3223 H3202 0.950 . S
C3223 C3222 1.373 . S
C3223 C3239 1.377 . S
C3224 C3222 1.389 . S
C3224 C3225 1.524 . S
C3224 C3238 1.377 . S
C3225 C3224 1.524 . S
C3225 C3226 1.397 . S
C3225 C3230 1.363 . S
C3226 H3203 0.950 . S
C3226 C3225 1.397 . S
C3226 C3227 1.334 . S
C3227 H3204 0.950 . S
C3227 C3226 1.334 . S
C3227 C3228 1.287 . S
C3228 C3227 1.287 . S
C3228 C3229 1.524 . S
C3228 H3247 0.913 . S
C3229 H3205 0.950 . S
C3229 C3228 1.524 . S
C3229 C3230 1.415 . S
C3230 H3206 0.950 . S
C3230 C3225 1.363 . S
C3230 C3229 1.415 . S
C3231 H3207 0.951 . S
C3231 C3232 1.366 . S
C3231 C3233 1.388 . S
C3232 C3231 1.366 . S
C3232 C3236 1.385 . S
C3233 H3208 0.951 . S
C3233 C3231 1.388 . S
C3233 C3234 1.366 . S
C3234 C3233 1.366 . S
C3234 C3235 1.414 . S
C3234 C3237 1.499 . S
C3235 H3209 0.950 . S
C3235 C3234 1.414 . S
C3235 C3236 1.374 . S
C3236 H3210 0.950 . S
C3236 C3232 1.385 . S
C3236 C3235 1.374 . S
C3237 C3234 1.499 . S
C3237 C3238 1.373 . S
C3237 C3239 1.389 . S
C3238 H3211 0.950 . S
C3238 C3224 1.377 . S
C3238 C3237 1.373 . S
C3239 C3223 1.377 . S
C3239 C3237 1.389 . S
C3239 C3240 1.524 . S
C3240 C3239 1.524 . S
C3240 C3241 1.397 . S
C3240 C3245 1.363 . S
C3241 H3212 0.950 . S
C3241 C3240 1.397 . S
C3241 C3242 1.334 . S
C3242 H3213 0.950 . S
C3242 C3241 1.334 . S
C3242 C3243 1.287 . S
C3243 C3242 1.287 . S
C3243 C3244 1.524 . S
C3243 H3246 0.999 . S
C3244 H3214 0.950 . S
C3244 C3243 1.524 . S
C3244 C3245 1.415 . S
C3245 H3215 0.950 . S
C3245 C3240 1.363 . S
C3245 C3244 1.415 . S
H3246 C3243 0.999 . S
H3247 C3228 0.913 . S
H3248 C3266 0.951 . S
H3249 C3268 0.951 . S
H3250 C3270 0.950 . S
H3251 C3271 0.950 . S
H3252 C3273 0.950 . S
H3253 C3276 0.950 . S
H3254 C3277 0.950 . S
H3255 C3279 0.950 . S
H3256 C3280 0.950 . S
H3257 C3281 0.951 . S
H3258 C3283 0.951 . S
H3259 C3285 0.950 . S
H3260 C3286 0.950 . S
H3261 C3288 0.950 . S
H3262 C3291 0.950 . S
H3263 C3292 0.950 . S
H3264 C3294 0.950 . S
H3265 C3295 0.950 . S
C3266 H3248 0.951 . S
C3266 C3267 1.366 . S
C3266 C3268 1.388 . S
C3267 C3266 1.366 . S
C3267 C3271 1.385 . S
C3268 H3249 0.951 . S
C3268 C3266 1.388 . S
C3268 C3269 1.366 . S
C3269 C3268 1.366 . S
C3269 C3270 1.414 . S
C3269 C3272 1.499 . S
C3270 H3250 0.950 . S
C3270 C3269 1.414 . S
C3270 C3271 1.374 . S
C3271 H3251 0.950 . S
C3271 C3267 1.385 . S
C3271 C3270 1.374 . S
C3272 C3269 1.499 . S
C3272 C3273 1.373 . S
C3272 C3274 1.389 . S
C3273 H3252 0.950 . S
C3273 C3272 1.373 . S
C3273 C3289 1.377 . S
C3274 C3272 1.389 . S
C3274 C3275 1.524 . S
C3274 C3288 1.377 . S
C3275 C3274 1.524 . S
C3275 C3276 1.397 . S
C3275 C3280 1.363 . S
C3276 H3253 0.950 . S
C3276 C3275 1.397 . S
C3276 C3277 1.334 . S
C3277 H3254 0.950 . S
C3277 C3276 1.334 . S
C3277 C3278 1.287 . S
C3278 C3277 1.287 . S
C3278 C3279 1.524 . S
C3278 H3297 0.913 . S
C3279 H3255 0.950 . S
C3279 C3278 1.524 . S
C3279 C3280 1.415 . S
C3280 H3256 0.950 . S
C3280 C3275 1.363 . S
C3280 C3279 1.415 . S
C3281 H3257 0.951 . S
C3281 C3282 1.366 . S
C3281 C3283 1.388 . S
C3282 C3281 1.366 . S
C3282 C3286 1.385 . S
C3283 H3258 0.951 . S
C3283 C3281 1.388 . S
C3283 C3284 1.366 . S
C3284 C3283 1.366 . S
C3284 C3285 1.414 . S
C3284 C3287 1.499 . S
C3285 H3259 0.950 . S
C3285 C3284 1.414 . S
C3285 C3286 1.374 . S
C3286 H3260 0.950 . S
C3286 C3282 1.385 . S
C3286 C3285 1.374 . S
C3287 C3284 1.499 . S
C3287 C3288 1.373 . S
C3287 C3289 1.389 . S
C3288 H3261 0.950 . S
C3288 C3274 1.377 . S
C3288 C3287 1.373 . S
C3289 C3273 1.377 . S
C3289 C3287 1.389 . S
C3289 C3290 1.524 . S
C3290 C3289 1.524 . S
C3290 C3291 1.397 . S
C3290 C3295 1.363 . S
C3291 H3262 0.950 . S
C3291 C3290 1.397 . S
C3291 C3292 1.334 . S
C3292 H3263 0.950 . S
C3292 C3291 1.334 . S
C3292 C3293 1.287 . S
C3293 C3292 1.287 . S
C3293 C3294 1.524 . S
C3293 H3296 0.999 . S
C3294 H3264 0.950 . S
C3294 C3293 1.524 . S
C3294 C3295 1.415 . S
C3295 H3265 0.950 . S
C3295 C3290 1.363 . S
C3295 C3294 1.415 . S
H3296 C3293 0.999 . S
H3297 C3278 0.913 . S
H3298 C3316 0.951 . S
H3299 C3318 0.951 . S
H3300 C3320 0.950 . S
H3301 C3321 0.950 . S
H3302 C3323 0.950 . S
H3303 C3326 0.950 . S
H3304 C3327 0.950 . S
H3305 C3329 0.950 . S
H3306 C3330 0.950 . S
H3307 C3331 0.951 . S
H3308 C3333 0.951 . S
H3309 C3335 0.950 . S
H3310 C3336 0.950 . S
H3311 C3338 0.950 . S
H3312 C3341 0.950 . S
H3313 C3342 0.950 . S
H3314 C3344 0.950 . S
H3315 C3345 0.950 . S
C3316 H3298 0.951 . S
C3316 C3317 1.366 . S
C3316 C3318 1.388 . S
C3317 C3316 1.366 . S
C3317 C3321 1.385 . S
C3318 H3299 0.951 . S
C3318 C3316 1.388 . S
C3318 C3319 1.366 . S
C3319 C3318 1.366 . S
C3319 C3320 1.414 . S
C3319 C3322 1.499 . S
C3320 H3300 0.950 . S
C3320 C3319 1.414 . S
C3320 C3321 1.374 . S
C3321 H3301 0.950 . S
C3321 C3317 1.385 . S
C3321 C3320 1.374 . S
C3322 C3319 1.499 . S
C3322 C3323 1.373 . S
C3322 C3324 1.389 . S
C3323 H3302 0.950 . S
C3323 C3322 1.373 . S
C3323 C3339 1.377 . S
C3324 C3322 1.389 . S
C3324 C3325 1.524 . S
C3324 C3338 1.377 . S
C3325 C3324 1.524 . S
C3325 C3326 1.397 . S
C3325 C3330 1.363 . S
C3326 H3303 0.950 . S
C3326 C3325 1.397 . S
C3326 C3327 1.334 . S
C3327 H3304 0.950 . S
C3327 C3326 1.334 . S
C3327 C3328 1.287 . S
C3328 C3327 1.287 . S
C3328 C3329 1.524 . S
C3328 H3347 0.913 . S
C3329 H3305 0.950 . S
C3329 C3328 1.524 . S
C3329 C3330 1.415 . S
C3330 H3306 0.950 . S
C3330 C3325 1.363 . S
C3330 C3329 1.415 . S
C3331 H3307 0.951 . S
C3331 C3332 1.366 . S
C3331 C3333 1.388 . S
C3332 C3331 1.366 . S
C3332 C3336 1.385 . S
C3333 H3308 0.951 . S
C3333 C3331 1.388 . S
C3333 C3334 1.366 . S
C3334 C3333 1.366 . S
C3334 C3335 1.414 . S
C3334 C3337 1.499 . S
C3335 H3309 0.950 . S
C3335 C3334 1.414 . S
C3335 C3336 1.374 . S
C3336 H3310 0.950 . S
C3336 C3332 1.385 . S
C3336 C3335 1.374 . S
C3337 C3334 1.499 . S
C3337 C3338 1.373 . S
C3337 C3339 1.389 . S
C3338 H3311 0.950 . S
C3338 C3324 1.377 . S
C3338 C3337 1.373 . S
C3339 C3323 1.377 . S
C3339 C3337 1.389 . S
C3339 C3340 1.524 . S
C3340 C3339 1.524 . S
C3340 C3341 1.397 . S
C3340 C3345 1.363 . S
C3341 H3312 0.950 . S
C3341 C3340 1.397 . S
C3341 C3342 1.334 . S
C3342 H3313 0.950 . S
C3342 C3341 1.334 . S
C3342 C3343 1.287 . S
C3343 C3342 1.287 . S
C3343 C3344 1.524 . S
C3343 H3346 0.999 . S
C3344 H3314 0.950 . S
C3344 C3343 1.524 . S
C3344 C3345 1.415 . S
C3345 H3315 0.950 . S
C3345 C3340 1.363 . S
C3345 C3344 1.415 . S
H3346 C3343 0.999 . S
H3347 C3328 0.913 . S
H3348 C3366 0.951 . S
H3349 C3368 0.951 . S
H3350 C3370 0.950 . S
H3351 C3371 0.950 . S
H3352 C3373 0.950 . S
H3353 C3376 0.950 . S
H3354 C3377 0.950 . S
H3355 C3379 0.950 . S
H3356 C3380 0.950 . S
H3357 C3381 0.951 . S
H3358 C3383 0.951 . S
H3359 C3385 0.950 . S
H3360 C3386 0.950 . S
H3361 C3388 0.950 . S
H3362 C3391 0.950 . S
H3363 C3392 0.950 . S
H3364 C3394 0.950 . S
H3365 C3395 0.950 . S
C3366 H3348 0.951 . S
C3366 C3367 1.366 . S
C3366 C3368 1.388 . S
C3367 C3366 1.366 . S
C3367 C3371 1.385 . S
C3368 H3349 0.951 . S
C3368 C3366 1.388 . S
C3368 C3369 1.366 . S
C3369 C3368 1.366 . S
C3369 C3370 1.414 . S
C3369 C3372 1.499 . S
C3370 H3350 0.950 . S
C3370 C3369 1.414 . S
C3370 C3371 1.374 . S
C3371 H3351 0.950 . S
C3371 C3367 1.385 . S
C3371 C3370 1.374 . S
C3372 C3369 1.499 . S
C3372 C3373 1.373 . S
C3372 C3374 1.389 . S
C3373 H3352 0.950 . S
C3373 C3372 1.373 . S
C3373 C3389 1.377 . S
C3374 C3372 1.389 . S
C3374 C3375 1.524 . S
C3374 C3388 1.377 . S
C3375 C3374 1.524 . S
C3375 C3376 1.397 . S
C3375 C3380 1.363 . S
C3376 H3353 0.950 . S
C3376 C3375 1.397 . S
C3376 C3377 1.334 . S
C3377 H3354 0.950 . S
C3377 C3376 1.334 . S
C3377 C3378 1.287 . S
C3378 C3377 1.287 . S
C3378 C3379 1.524 . S
C3378 H3397 0.913 . S
C3379 H3355 0.950 . S
C3379 C3378 1.524 . S
C3379 C3380 1.415 . S
C3380 H3356 0.950 . S
C3380 C3375 1.363 . S
C3380 C3379 1.415 . S
C3381 H3357 0.951 . S
C3381 C3382 1.366 . S
C3381 C3383 1.388 . S
C3382 C3381 1.366 . S
C3382 C3386 1.385 . S
C3383 H3358 0.951 . S
C3383 C3381 1.388 . S
C3383 C3384 1.366 . S
C3384 C3383 1.366 . S
C3384 C3385 1.414 . S
C3384 C3387 1.499 . S
C3385 H3359 0.950 . S
C3385 C3384 1.414 . S
C3385 C3386 1.374 . S
C3386 H3360 0.950 . S
C3386 C3382 1.385 . S
C3386 C3385 1.374 . S
C3387 C3384 1.499 . S
C3387 C3388 1.373 . S
C3387 C3389 1.389 . S
C3388 H3361 0.950 . S
C3388 C3374 1.377 . S
C3388 C3387 1.373 . S
C3389 C3373 1.377 . S
C3389 C3387 1.389 . S
C3389 C3390 1.524 . S
C3390 C3389 1.524 . S
C3390 C3391 1.397 . S
C3390 C3395 1.363 . S
C3391 H3362 0.950 . S
C3391 C3390 1.397 . S
C3391 C3392 1.334 . S
C3392 H3363 0.950 . S
C3392 C3391 1.334 . S
C3392 C3393 1.287 . S
C3393 C3392 1.287 . S
C3393 C3394 1.524 . S
C3393 H3396 0.999 . S
C3394 H3364 0.950 . S
C3394 C3393 1.524 . S
C3394 C3395 1.415 . S
C3395 H3365 0.950 . S
C3395 C3390 1.363 . S
C3395 C3394 1.415 . S
H3396 C3393 0.999 . S
H3397 C3378 0.913 . S
H3398 C3416 0.951 . S
H3399 C3418 0.951 . S
H3400 C3420 0.950 . S
H3401 C3421 0.950 . S
H3402 C3423 0.950 . S
H3403 C3426 0.950 . S
H3404 C3427 0.950 . S
H3405 C3429 0.950 . S
H3406 C3430 0.950 . S
H3407 C3431 0.951 . S
H3408 C3433 0.951 . S
H3409 C3435 0.950 . S
H3410 C3436 0.950 . S
H3411 C3438 0.950 . S
H3412 C3441 0.950 . S
H3413 C3442 0.950 . S
H3414 C3444 0.950 . S
H3415 C3445 0.950 . S
C3416 H3398 0.951 . S
C3416 C3417 1.366 . S
C3416 C3418 1.388 . S
C3417 C3416 1.366 . S
C3417 C3421 1.385 . S
C3418 H3399 0.951 . S
C3418 C3416 1.388 . S
C3418 C3419 1.366 . S
C3419 C3418 1.366 . S
C3419 C3420 1.414 . S
C3419 C3422 1.499 . S
C3420 H3400 0.950 . S
C3420 C3419 1.414 . S
C3420 C3421 1.374 . S
C3421 H3401 0.950 . S
C3421 C3417 1.385 . S
C3421 C3420 1.374 . S
C3422 C3419 1.499 . S
C3422 C3423 1.373 . S
C3422 C3424 1.389 . S
C3423 H3402 0.950 . S
C3423 C3422 1.373 . S
C3423 C3439 1.377 . S
C3424 C3422 1.389 . S
C3424 C3425 1.524 . S
C3424 C3438 1.377 . S
C3425 C3424 1.524 . S
C3425 C3426 1.397 . S
C3425 C3430 1.363 . S
C3426 H3403 0.950 . S
C3426 C3425 1.397 . S
C3426 C3427 1.334 . S
C3427 H3404 0.950 . S
C3427 C3426 1.334 . S
C3427 C3428 1.287 . S
C3428 C3427 1.287 . S
C3428 C3429 1.524 . S
C3428 H3447 0.913 . S
C3429 H3405 0.950 . S
C3429 C3428 1.524 . S
C3429 C3430 1.415 . S
C3430 H3406 0.950 . S
C3430 C3425 1.363 . S
C3430 C3429 1.415 . S
C3431 H3407 0.951 . S
C3431 C3432 1.366 . S
C3431 C3433 1.388 . S
C3432 C3431 1.366 . S
C3432 C3436 1.385 . S
C3433 H3408 0.951 . S
C3433 C3431 1.388 . S
C3433 C3434 1.366 . S
C3434 C3433 1.366 . S
C3434 C3435 1.414 . S
C3434 C3437 1.499 . S
C3435 H3409 0.950 . S
C3435 C3434 1.414 . S
C3435 C3436 1.374 . S
C3436 H3410 0.950 . S
C3436 C3432 1.385 . S
C3436 C3435 1.374 . S
C3437 C3434 1.499 . S
C3437 C3438 1.373 . S
C3437 C3439 1.389 . S
C3438 H3411 0.950 . S
C3438 C3424 1.377 . S
C3438 C3437 1.373 . S
C3439 C3423 1.377 . S
C3439 C3437 1.389 . S
C3439 C3440 1.524 . S
C3440 C3439 1.524 . S
C3440 C3441 1.397 . S
C3440 C3445 1.363 . S
C3441 H3412 0.950 . S
C3441 C3440 1.397 . S
C3441 C3442 1.334 . S
C3442 H3413 0.950 . S
C3442 C3441 1.334 . S
C3442 C3443 1.287 . S
C3443 C3442 1.287 . S
C3443 C3444 1.524 . S
C3443 H3446 0.999 . S
C3444 H3414 0.950 . S
C3444 C3443 1.524 . S
C3444 C3445 1.415 . S
C3445 H3415 0.950 . S
C3445 C3440 1.363 . S
C3445 C3444 1.415 . S
H3446 C3443 0.999 . S
H3447 C3428 0.913 . S
H3448 C3466 0.951 . S
H3449 C3468 0.951 . S
H3450 C3470 0.950 . S
H3451 C3471 0.950 . S
H3452 C3473 0.950 . S
H3453 C3476 0.950 . S
H3454 C3477 0.950 . S
H3455 C3479 0.950 . S
H3456 C3480 0.950 . S
H3457 C3481 0.951 . S
H3458 C3483 0.951 . S
H3459 C3485 0.950 . S
H3460 C3486 0.950 . S
H3461 C3488 0.950 . S
H3462 C3491 0.950 . S
H3463 C3492 0.950 . S
H3464 C3494 0.950 . S
H3465 C3495 0.950 . S
C3466 H3448 0.951 . S
C3466 C3467 1.366 . S
C3466 C3468 1.388 . S
C3467 C3466 1.366 . S
C3467 C3471 1.385 . S
C3468 H3449 0.951 . S
C3468 C3466 1.388 . S
C3468 C3469 1.366 . S
C3469 C3468 1.366 . S
C3469 C3470 1.414 . S
C3469 C3472 1.499 . S
C3470 H3450 0.950 . S
C3470 C3469 1.414 . S
C3470 C3471 1.374 . S
C3471 H3451 0.950 . S
C3471 C3467 1.385 . S
C3471 C3470 1.374 . S
C3472 C3469 1.499 . S
C3472 C3473 1.373 . S
C3472 C3474 1.389 . S
C3473 H3452 0.950 . S
C3473 C3472 1.373 . S
C3473 C3489 1.377 . S
C3474 C3472 1.389 . S
C3474 C3475 1.524 . S
C3474 C3488 1.377 . S
C3475 C3474 1.524 . S
C3475 C3476 1.397 . S
C3475 C3480 1.363 . S
C3476 H3453 0.950 . S
C3476 C3475 1.397 . S
C3476 C3477 1.334 . S
C3477 H3454 0.950 . S
C3477 C3476 1.334 . S
C3477 C3478 1.287 . S
C3478 C3477 1.287 . S
C3478 C3479 1.524 . S
C3478 H3497 0.913 . S
C3479 H3455 0.950 . S
C3479 C3478 1.524 . S
C3479 C3480 1.415 . S
C3480 H3456 0.950 . S
C3480 C3475 1.363 . S
C3480 C3479 1.415 . S
C3481 H3457 0.951 . S
C3481 C3482 1.366 . S
C3481 C3483 1.388 . S
C3482 C3481 1.366 . S
C3482 C3486 1.385 . S
C3483 H3458 0.951 . S
C3483 C3481 1.388 . S
C3483 C3484 1.366 . S
C3484 C3483 1.366 . S
C3484 C3485 1.414 . S
C3484 C3487 1.499 . S
C3485 H3459 0.950 . S
C3485 C3484 1.414 . S
C3485 C3486 1.374 . S
C3486 H3460 0.950 . S
C3486 C3482 1.385 . S
C3486 C3485 1.374 . S
C3487 C3484 1.499 . S
C3487 C3488 1.373 . S
C3487 C3489 1.389 . S
C3488 H3461 0.950 . S
C3488 C3474 1.377 . S
C3488 C3487 1.373 . S
C3489 C3473 1.377 . S
C3489 C3487 1.389 . S
C3489 C3490 1.524 . S
C3490 C3489 1.524 . S
C3490 C3491 1.397 . S
C3490 C3495 1.363 . S
C3491 H3462 0.950 . S
C3491 C3490 1.397 . S
C3491 C3492 1.334 . S
C3492 H3463 0.950 . S
C3492 C3491 1.334 . S
C3492 C3493 1.287 . S
C3493 C3492 1.287 . S
C3493 C3494 1.524 . S
C3493 H3496 0.999 . S
C3494 H3464 0.950 . S
C3494 C3493 1.524 . S
C3494 C3495 1.415 . S
C3495 H3465 0.950 . S
C3495 C3490 1.363 . S
C3495 C3494 1.415 . S
H3496 C3493 0.999 . S
H3497 C3478 0.913 . S
H3498 C3516 0.951 . S
H3499 C3518 0.951 . S
H3500 C3520 0.950 . S
H3501 C3521 0.950 . S
H3502 C3523 0.950 . S
H3503 C3526 0.950 . S
H3504 C3527 0.950 . S
H3505 C3529 0.950 . S
H3506 C3530 0.950 . S
H3507 C3531 0.951 . S
H3508 C3533 0.951 . S
H3509 C3535 0.950 . S
H3510 C3536 0.950 . S
H3511 C3538 0.950 . S
H3512 C3541 0.950 . S
H3513 C3542 0.950 . S
H3514 C3544 0.950 . S
H3515 C3545 0.950 . S
C3516 H3498 0.951 . S
C3516 C3517 1.366 . S
C3516 C3518 1.388 . S
C3517 C3516 1.366 . S
C3517 C3521 1.385 . S
C3518 H3499 0.951 . S
C3518 C3516 1.388 . S
C3518 C3519 1.366 . S
C3519 C3518 1.366 . S
C3519 C3520 1.414 . S
C3519 C3522 1.499 . S
C3520 H3500 0.950 . S
C3520 C3519 1.414 . S
C3520 C3521 1.374 . S
C3521 H3501 0.950 . S
C3521 C3517 1.385 . S
C3521 C3520 1.374 . S
C3522 C3519 1.499 . S
C3522 C3523 1.373 . S
C3522 C3524 1.389 . S
C3523 H3502 0.950 . S
C3523 C3522 1.373 . S
C3523 C3539 1.377 . S
C3524 C3522 1.389 . S
C3524 C3525 1.524 . S
C3524 C3538 1.377 . S
C3525 C3524 1.524 . S
C3525 C3526 1.397 . S
C3525 C3530 1.363 . S
C3526 H3503 0.950 . S
C3526 C3525 1.397 . S
C3526 C3527 1.334 . S
C3527 H3504 0.950 . S
C3527 C3526 1.334 . S
C3527 C3528 1.287 . S
C3528 C3527 1.287 . S
C3528 C3529 1.524 . S
C3528 H3547 0.913 . S
C3529 H3505 0.950 . S
C3529 C3528 1.524 . S
C3529 C3530 1.415 . S
C3530 H3506 0.950 . S
C3530 C3525 1.363 . S
C3530 C3529 1.415 . S
C3531 H3507 0.951 . S
C3531 C3532 1.366 . S
C3531 C3533 1.388 . S
C3532 C3531 1.366 . S
C3532 C3536 1.385 . S
C3533 H3508 0.951 . S
C3533 C3531 1.388 . S
C3533 C3534 1.366 . S
C3534 C3533 1.366 . S
C3534 C3535 1.414 . S
C3534 C3537 1.499 . S
C3535 H3509 0.950 . S
C3535 C3534 1.414 . S
C3535 C3536 1.374 . S
C3536 H3510 0.950 . S
C3536 C3532 1.385 . S
C3536 C3535 1.374 . S
C3537 C3534 1.499 . S
C3537 C3538 1.373 . S
C3537 C3539 1.389 . S
C3538 H3511 0.950 . S
C3538 C3524 1.377 . S
C3538 C3537 1.373 . S
C3539 C3523 1.377 . S
C3539 C3537 1.389 . S
C3539 C3540 1.524 . S
C3540 C3539 1.524 . S
C3540 C3541 1.397 . S
C3540 C3545 1.363 . S
C3541 H3512 0.950 . S
C3541 C3540 1.397 . S
C3541 C3542 1.334 . S
C3542 H3513 0.950 . S
C3542 C3541 1.334 . S
C3542 C3543 1.287 . S
C3543 C3542 1.287 . S
C3543 C3544 1.524 . S
C3543 H3546 0.999 . S
C3544 H3514 0.950 . S
C3544 C3543 1.524 . S
C3544 C3545 1.415 . S
C3545 H3515 0.950 . S
C3545 C3540 1.363 . S
C3545 C3544 1.415 . S
H3546 C3543 0.999 . S
H3547 C3528 0.913 . S
H3548 C3566 0.951 . S
H3549 C3568 0.951 . S
H3550 C3570 0.950 . S
H3551 C3571 0.950 . S
H3552 C3573 0.950 . S
H3553 C3576 0.950 . S
H3554 C3577 0.950 . S
H3555 C3579 0.950 . S
H3556 C3580 0.950 . S
H3557 C3581 0.951 . S
H3558 C3583 0.951 . S
H3559 C3585 0.950 . S
H3560 C3586 0.950 . S
H3561 C3588 0.950 . S
H3562 C3591 0.950 . S
H3563 C3592 0.950 . S
H3564 C3594 0.950 . S
H3565 C3595 0.950 . S
C3566 H3548 0.951 . S
C3566 C3567 1.366 . S
C3566 C3568 1.388 . S
C3567 C3566 1.366 . S
C3567 C3571 1.385 . S
C3568 H3549 0.951 . S
C3568 C3566 1.388 . S
C3568 C3569 1.366 . S
C3569 C3568 1.366 . S
C3569 C3570 1.414 . S
C3569 C3572 1.499 . S
C3570 H3550 0.950 . S
C3570 C3569 1.414 . S
C3570 C3571 1.374 . S
C3571 H3551 0.950 . S
C3571 C3567 1.385 . S
C3571 C3570 1.374 . S
C3572 C3569 1.499 . S
C3572 C3573 1.373 . S
C3572 C3574 1.389 . S
C3573 H3552 0.950 . S
C3573 C3572 1.373 . S
C3573 C3589 1.377 . S
C3574 C3572 1.389 . S
C3574 C3575 1.524 . S
C3574 C3588 1.377 . S
C3575 C3574 1.524 . S
C3575 C3576 1.397 . S
C3575 C3580 1.363 . S
C3576 H3553 0.950 . S
C3576 C3575 1.397 . S
C3576 C3577 1.334 . S
C3577 H3554 0.950 . S
C3577 C3576 1.334 . S
C3577 C3578 1.287 . S
C3578 C3577 1.287 . S
C3578 C3579 1.524 . S
C3578 H3597 0.913 . S
C3579 H3555 0.950 . S
C3579 C3578 1.524 . S
C3579 C3580 1.415 . S
C3580 H3556 0.950 . S
C3580 C3575 1.363 . S
C3580 C3579 1.415 . S
C3581 H3557 0.951 . S
C3581 C3582 1.366 . S
C3581 C3583 1.388 . S
C3582 C3581 1.366 . S
C3582 C3586 1.385 . S
C3583 H3558 0.951 . S
C3583 C3581 1.388 . S
C3583 C3584 1.366 . S
C3584 C3583 1.366 . S
C3584 C3585 1.414 . S
C3584 C3587 1.499 . S
C3585 H3559 0.950 . S
C3585 C3584 1.414 . S
C3585 C3586 1.374 . S
C3586 H3560 0.950 . S
C3586 C3582 1.385 . S
C3586 C3585 1.374 . S
C3587 C3584 1.499 . S
C3587 C3588 1.373 . S
C3587 C3589 1.389 . S
C3588 H3561 0.950 . S
C3588 C3574 1.377 . S
C3588 C3587 1.373 . S
C3589 C3573 1.377 . S
C3589 C3587 1.389 . S
C3589 C3590 1.524 . S
C3590 C3589 1.524 . S
C3590 C3591 1.397 . S
C3590 C3595 1.363 . S
C3591 H3562 0.950 . S
C3591 C3590 1.397 . S
C3591 C3592 1.334 . S
C3592 H3563 0.950 . S
C3592 C3591 1.334 . S
C3592 C3593 1.287 . S
C3593 C3592 1.287 . S
C3593 C3594 1.524 . S
C3593 H3596 0.999 . S
C3594 H3564 0.950 . S
C3594 C3593 1.524 . S
C3594 C3595 1.415 . S
C3595 H3565 0.950 . S
C3595 C3590 1.363 . S
C3595 C3594 1.415 . S
H3596 C3593 0.999 . S
H3597 C3578 0.913 . S
H3598 C3616 0.951 . S
H3599 C3618 0.951 . S
H3600 C3620 0.950 . S
H3601 C3621 0.950 . S
H3602 C3623 0.950 . S
H3603 C3626 0.950 . S
H3604 C3627 0.950 . S
H3605 C3629 0.950 . S
H3606 C3630 0.950 . S
H3607 C3631 0.951 . S
H3608 C3633 0.951 . S
H3609 C3635 0.950 . S
H3610 C3636 0.950 . S
H3611 C3638 0.950 . S
H3612 C3641 0.950 . S
H3613 C3642 0.950 . S
H3614 C3644 0.950 . S
H3615 C3645 0.950 . S
C3616 H3598 0.951 . S
C3616 C3617 1.366 . S
C3616 C3618 1.388 . S
C3617 C3616 1.366 . S
C3617 C3621 1.385 . S
C3618 H3599 0.951 . S
C3618 C3616 1.388 . S
C3618 C3619 1.366 . S
C3619 C3618 1.366 . S
C3619 C3620 1.414 . S
C3619 C3622 1.499 . S
C3620 H3600 0.950 . S
C3620 C3619 1.414 . S
C3620 C3621 1.374 . S
C3621 H3601 0.950 . S
C3621 C3617 1.385 . S
C3621 C3620 1.374 . S
C3622 C3619 1.499 . S
C3622 C3623 1.373 . S
C3622 C3624 1.389 . S
C3623 H3602 0.950 . S
C3623 C3622 1.373 . S
C3623 C3639 1.377 . S
C3624 C3622 1.389 . S
C3624 C3625 1.524 . S
C3624 C3638 1.377 . S
C3625 C3624 1.524 . S
C3625 C3626 1.397 . S
C3625 C3630 1.363 . S
C3626 H3603 0.950 . S
C3626 C3625 1.397 . S
C3626 C3627 1.334 . S
C3627 H3604 0.950 . S
C3627 C3626 1.334 . S
C3627 C3628 1.287 . S
C3628 C3627 1.287 . S
C3628 C3629 1.524 . S
C3628 H3647 0.913 . S
C3629 H3605 0.950 . S
C3629 C3628 1.524 . S
C3629 C3630 1.415 . S
C3630 H3606 0.950 . S
C3630 C3625 1.363 . S
C3630 C3629 1.415 . S
C3631 H3607 0.951 . S
C3631 C3632 1.366 . S
C3631 C3633 1.388 . S
C3632 C3631 1.366 . S
C3632 C3636 1.385 . S
C3633 H3608 0.951 . S
C3633 C3631 1.388 . S
C3633 C3634 1.366 . S
C3634 C3633 1.366 . S
C3634 C3635 1.414 . S
C3634 C3637 1.499 . S
C3635 H3609 0.950 . S
C3635 C3634 1.414 . S
C3635 C3636 1.374 . S
C3636 H3610 0.950 . S
C3636 C3632 1.385 . S
C3636 C3635 1.374 . S
C3637 C3634 1.499 . S
C3637 C3638 1.373 . S
C3637 C3639 1.389 . S
C3638 H3611 0.950 . S
C3638 C3624 1.377 . S
C3638 C3637 1.373 . S
C3639 C3623 1.377 . S
C3639 C3637 1.389 . S
C3639 C3640 1.524 . S
C3640 C3639 1.524 . S
C3640 C3641 1.397 . S
C3640 C3645 1.363 . S
C3641 H3612 0.950 . S
C3641 C3640 1.397 . S
C3641 C3642 1.334 . S
C3642 H3613 0.950 . S
C3642 C3641 1.334 . S
C3642 C3643 1.287 . S
C3643 C3642 1.287 . S
C3643 C3644 1.524 . S
C3643 H3646 0.999 . S
C3644 H3614 0.950 . S
C3644 C3643 1.524 . S
C3644 C3645 1.415 . S
C3645 H3615 0.950 . S
C3645 C3640 1.363 . S
C3645 C3644 1.415 . S
H3646 C3643 0.999 . S
H3647 C3628 0.913 . S
C467 C219 1.467 . S
C482 C9 1.467 . S
C517 C23 1.467 . S
C532 C177 1.467 . S
C567 C37 1.467 . S
C582 C191 1.467 . S
C617 C205 1.467 . S
C632 C51 1.467 . S
C667 C65 1.467 . S
C682 C135 1.467 . S
C717 C79 1.467 . S
C732 C149 1.467 . S
C767 C163 1.467 . S
C782 C93 1.467 . S
C817 C121 1.467 . S
C832 C107 1.468 . S
C867 C233 1.467 . S
C882 C443 1.467 . S
C917 C247 1.467 . S
C932 C401 1.467 . S
C967 C261 1.467 . S
C982 C415 1.467 . S
C1017 C429 1.467 . S
C1032 C275 1.467 . S
C1067 C289 1.467 . S
C1082 C359 1.467 . S
C1117 C303 1.467 . S
C1132 C373 1.467 . S
C1167 C387 1.467 . S
C1182 C317 1.467 . S
C1217 C331 1.467 . S
C1232 C345 1.468 . S
C1267 C176 1.402 . S
C1282 C8 1.402 . S
C1317 C22 1.402 . S
C1332 C190 1.402 . S
C1367 C204 1.402 . S
C1382 C36 1.402 . S
C1417 C50 1.402 . S
C1432 C218 1.402 . S
C1467 C64 1.402 . S
C1482 C120 1.402 . S
C1517 C134 1.402 . S
C1532 C78 1.402 . S
C1567 C148 1.402 . S
C1582 C92 1.402 . S
C1617 C162 1.402 . S
C1632 C106 1.402 . S
C1667 C232 1.402 . S
C1682 C400 1.402 . S
C1717 C414 1.402 . S
C1732 C246 1.402 . S
C1767 C260 1.402 . S
C1782 C428 1.402 . S
C1817 C274 1.402 . S
C1832 C442 1.402 . S
C1867 C344 1.402 . S
C1882 C288 1.402 . S
C1917 C302 1.402 . S
C1932 C358 1.402 . S
C1967 C316 1.402 . S
C1982 C372 1.402 . S
C2017 C330 1.402 . S
C2032 C386 1.402 . S
C2067 C7 1.220 . S
C2082 C147 1.221 . S
C2117 C161 1.221 . S
C2132 C21 1.220 . S
C2167 C35 1.221 . S
C2182 C119 1.220 . S
C2217 C133 1.221 . S
C2232 C49 1.220 . S
C2267 C203 1.221 . S
C2282 C63 1.220 . S
C2317 C217 1.221 . S
C2332 C77 1.221 . S
C2367 C175 1.221 . S
C2382 C91 1.220 . S
C2417 C105 1.221 . S
C2432 C189 1.221 . S
C2467 C371 1.221 . S
C2482 C231 1.221 . S
C2517 C245 1.221 . S
C2532 C385 1.220 . S
C2567 C343 1.220 . S
C2582 C259 1.221 . S
C2617 C357 1.221 . S
C2632 C273 1.220 . S
C2667 C287 1.221 . S
C2682 C427 1.221 . S
C2717 C301 1.220 . S
C2732 C441 1.221 . S
C2767 C399 1.221 . S
C2782 C315 1.220 . S
C2817 C413 1.221 . S
C2832 C329 1.221 . S
C2867 C325 1.088 . S
C2882 C3 1.087 . S
C2917 C283 1.088 . S
C2932 C17 1.088 . S
C2967 C297 1.088 . S
C2982 C31 1.088 . S
C3017 C311 1.088 . S
C3032 C45 1.087 . S
C3067 C241 1.088 . S
C3082 C59 1.087 . S
C3117 C73 1.088 . S
C3132 C255 1.088 . S
C3167 C87 1.088 . S
C3182 C269 1.087 . S
C3217 C101 1.088 . S
C3232 C227 1.087 . S
C3267 C115 1.088 . S
C3282 C437 1.087 . S
C3317 C395 1.088 . S
C3332 C129 1.088 . S
C3367 C143 1.088 . S
C3382 C409 1.088 . S
C3417 C157 1.088 . S
C3432 C423 1.088 . S
C3467 C353 1.088 . S
C3482 C171 1.087 . S
C3517 C367 1.087 . S
C3532 C185 1.088 . S
C3567 C199 1.088 . S
C3582 C381 1.088 . S
C3617 C213 1.088 . S
C3632 C339 1.088 . S
