# Generated by pormake.
# Topology srs, (3)-cn, num edge types: 1
# Building blocks:
#     Node 0, Type 0, BuildingBlock: WUSLED_clean_sbu_0, # of connection points: 3
#     Node 1, Type 0, BuildingBlock: WUSLED_clean_sbu_0, # of connection points: 3
#     Node 2, Type 0, BuildingBlock: WUSLED_clean_sbu_0, # of connection points: 3
#     Node 3, Type 0, BuildingBlock: WUSLED_clean_sbu_0, # of connection points: 3
#     Node 4, Type 0, BuildingBlock: WUSLED_clean_sbu_0, # of connection points: 3
#     Node 5, Type 0, BuildingBlock: WUSLED_clean_sbu_0, # of connection points: 3
#     Node 6, Type 0, BuildingBlock: WUSLED_clean_sbu_0, # of connection points: 3
#     Node 7, Type 0, BuildingBlock: WUSLED_clean_sbu_0, # of connection points: 3
#     Edge 8, Type (0, 0), BuildingBlock: FUNLAD_clean_linker_1, # of connection points: 2
#     Edge 9, Type (0, 0), BuildingBlock: FUNLAD_clean_linker_1, # of connection points: 2
#     Edge 10, Type (0, 0), BuildingBlock: FUNLAD_clean_linker_1, # of connection points: 2
#     Edge 11, Type (0, 0), BuildingBlock: FUNLAD_clean_linker_1, # of connection points: 2
#     Edge 12, Type (0, 0), BuildingBlock: FUNLAD_clean_linker_1, # of connection points: 2
#     Edge 13, Type (0, 0), BuildingBlock: FUNLAD_clean_linker_1, # of connection points: 2
#     Edge 14, Type (0, 0), BuildingBlock: FUNLAD_clean_linker_1, # of connection points: 2
#     Edge 15, Type (0, 0), BuildingBlock: FUNLAD_clean_linker_1, # of connection points: 2
#     Edge 16, Type (0, 0), BuildingBlock: FUNLAD_clean_linker_1, # of connection points: 2
#     Edge 17, Type (0, 0), BuildingBlock: FUNLAD_clean_linker_1, # of connection points: 2
#     Edge 18, Type (0, 0), BuildingBlock: FUNLAD_clean_linker_1, # of connection points: 2
#     Edge 19, Type (0, 0), BuildingBlock: FUNLAD_clean_linker_1, # of connection points: 2
# Relax obj value: 0.000
# Max RMSD: 0.008
# Mean RMSD: 0.008
data_MOF--net-srs--node1-WUSLED_clean_sbu_0--edge1-FUNLAD_clean_linker_1
_symmetry_space_group_name_H-M    P1
_symmetry_Int_Tables_number       1
_symmetry_cell_setting            triclinic
loop_
_symmetry_equiv_pos_as_xyz
'x, y, z'
_cell_length_a     65.321666
_cell_length_b     66.178503
_cell_length_c     65.509853
_cell_angle_alpha  90.430769
_cell_angle_beta   90.124836
_cell_angle_gamma 90.513399
loop_
_atom_site_label
_atom_site_type_symbol
_atom_site_fract_x
_atom_site_fract_y
_atom_site_fract_z
_atom_type_partial_charge
C0 C 0.13239 0.11694 0.20157 0.0
C1 C 0.15121 0.10747 0.2051 0.0
C2 C 0.13473 0.08401 0.22865 0.0
C3 C 0.1524 0.09113 0.21855 0.0
C4 C 0.11595 0.09341 0.22473 0.0
C5 C 0.1148 0.10974 0.21141 0.0
U6 U 0.1494 0.1491 0.15573 0.0
O7 O 0.13024 0.16343 0.13237 0.0
O8 O 0.14963 0.18216 0.15245 0.0
C9 C 0.13521 0.18181 0.13841 0.0
C10 C 0.13053 0.13427 0.18774 0.0
C11 C 0.1179 0.1954 0.14209 0.0
C12 C 0.08899 0.20625 0.16257 0.0
C13 C 0.10547 0.19323 0.15937 0.0
C14 C 0.09713 0.22362 0.13116 0.0
C15 C 0.08471 0.22172 0.14863 0.0
C16 C 0.11361 0.21061 0.128 0.0
C17 C 0.19564 0.135 0.12326 0.0
C18 C 0.20252 0.14959 0.09 0.0
C19 C 0.22832 0.12936 0.10659 0.0
C20 C 0.21516 0.1264 0.12315 0.0
C21 C 0.22216 0.14107 0.08982 0.0
C22 C 0.18943 0.14672 0.10663 0.0
C23 C 0.18188 0.13136 0.14065 0.0
O24 O 0.14502 0.14816 0.18899 0.0
O25 O 0.12521 0.12985 0.16887 0.0
O26 O 0.16304 0.12597 0.13588 0.0
O27 O 0.18282 0.14486 0.15545 0.0
H28 H 0.16494 0.11269 0.19745 0.0
H29 H 0.16709 0.08404 0.2207 0.0
H30 H 0.10207 0.08822 0.23214 0.0
H31 H 0.10012 0.11678 0.2088 0.0
H32 H 0.07962 0.20428 0.17605 0.0
H33 H 0.1085 0.18146 0.17035 0.0
H34 H 0.09409 0.23483 0.11966 0.0
H35 H 0.12293 0.21234 0.11446 0.0
H36 H 0.19733 0.15856 0.07725 0.0
H37 H 0.24305 0.12202 0.10682 0.0
H38 H 0.22016 0.11721 0.13581 0.0
H39 H 0.1744 0.15352 0.10645 0.0
C40 C 0.13956 0.93211 0.35788 0.0
C41 C 0.15649 0.94487 0.36139 0.0
C42 C 0.14764 0.96477 0.33151 0.0
C43 C 0.16053 0.96101 0.34825 0.0
C44 C 0.13085 0.95168 0.32792 0.0
C45 C 0.12685 0.93556 0.34105 0.0
U46 U 0.1515 0.90043 0.40483 0.0
O47 O 0.13083 0.88749 0.42783 0.0
O48 O 0.14979 0.86748 0.40904 0.0
C49 C 0.13508 0.86877 0.42262 0.0
C50 C 0.13498 0.91517 0.37159 0.0
C51 C 0.11732 0.85535 0.41912 0.0
C52 C 0.08504 0.84741 0.40223 0.0
C53 C 0.10195 0.8603 0.40508 0.0
C54 C 0.09879 0.82449 0.42733 0.0
C55 C 0.08333 0.82928 0.41318 0.0
C56 C 0.11563 0.8374 0.4302 0.0
C57 C 0.19792 0.91392 0.43811 0.0
C58 C 0.20399 0.89959 0.47162 0.0
C59 C 0.23042 0.91969 0.45538 0.0
C60 C 0.21759 0.92252 0.43855 0.0
C61 C 0.2238 0.90807 0.47209 0.0
C62 C 0.1912 0.90236 0.45471 0.0
C63 C 0.1846 0.91738 0.42035 0.0
O64 O 0.14831 0.90041 0.37138 0.0
O65 O 0.12915 0.92029 0.39009 0.0
O66 O 0.16597 0.9235 0.42453 0.0
O67 O 0.1851 0.90338 0.40603 0.0
H68 H 0.16654 0.94236 0.37429 0.0
H69 H 0.17366 0.97069 0.35129 0.0
H70 H 0.12091 0.95357 0.31487 0.0
H71 H 0.11382 0.92572 0.33802 0.0
H72 H 0.0733 0.85158 0.39137 0.0
H73 H 0.103 0.87415 0.3964 0.0
H74 H 0.0978 0.81105 0.43658 0.0
H75 H 0.12729 0.83344 0.44123 0.0
H76 H 0.19844 0.89072 0.48432 0.0
H77 H 0.24529 0.92702 0.45537 0.0
H78 H 0.22296 0.9316 0.42592 0.0
H79 H 0.17603 0.89559 0.45464 0.0
C80 C 0.39103 0.94499 0.68813 0.0
C81 C 0.40025 0.93755 0.70589 0.0
C82 C 0.39547 0.97 0.72301 0.0
C83 C 0.4023 0.94992 0.72322 0.0
C84 C 0.38635 0.97741 0.70508 0.0
C85 C 0.3842 0.96499 0.68782 0.0
U86 U 0.40514 0.89944 0.65483 0.0
O87 O 0.38541 0.87774 0.63832 0.0
O88 O 0.40706 0.89679 0.62134 0.0
C89 C 0.39183 0.8837 0.62031 0.0
C90 C 0.38812 0.93208 0.66992 0.0
C91 C 0.37588 0.88798 0.60502 0.0
C92 C 0.34162 0.89891 0.59576 0.0
C93 C 0.35664 0.89554 0.61063 0.0
C94 C 0.36506 0.88769 0.56951 0.0
C95 C 0.34563 0.89482 0.57501 0.0
C96 C 0.37998 0.8842 0.58436 0.0
C97 C 0.44892 0.86499 0.67056 0.0
C98 C 0.45915 0.83619 0.64987 0.0
C99 C 0.477 0.8438 0.6815 0.0
C100 C 0.46421 0.86036 0.68473 0.0
C101 C 0.47476 0.83162 0.66387 0.0
C102 C 0.44638 0.85278 0.65313 0.0
C103 C 0.43579 0.88259 0.67414 0.0
O104 O 0.40304 0.93262 0.65651 0.0
O105 O 0.38114 0.91371 0.67329 0.0
O106 O 0.41649 0.87846 0.67809 0.0
O107 O 0.43814 0.89749 0.66118 0.0
H108 H 0.40568 0.92214 0.70642 0.0
H109 H 0.40924 0.94378 0.73684 0.0
H110 H 0.38031 0.99256 0.70444 0.0
H111 H 0.37694 0.97095 0.67427 0.0
H112 H 0.32707 0.90498 0.60058 0.0
H113 H 0.35322 0.89883 0.62647 0.0
H114 H 0.36866 0.88459 0.55366 0.0
H115 H 0.39475 0.87845 0.57971 0.0
H116 H 0.45694 0.827 0.63627 0.0
H117 H 0.48832 0.84049 0.69303 0.0
H118 H 0.46624 0.86954 0.69837 0.0
H119 H 0.43457 0.85611 0.64204 0.0
C120 C 0.38954 0.10469 0.87408 0.0
C121 C 0.40034 0.11196 0.85712 0.0
C122 C 0.39432 0.08014 0.83899 0.0
C123 C 0.40258 0.09982 0.83969 0.0
C124 C 0.38361 0.07289 0.85614 0.0
C125 C 0.3813 0.08508 0.87351 0.0
U126 U 0.40325 0.1506 0.90725 0.0
O127 O 0.38341 0.17194 0.92355 0.0
O128 O 0.40522 0.15355 0.94073 0.0
C129 C 0.38992 0.1663 0.94162 0.0
C130 C 0.38645 0.11745 0.8923 0.0
C131 C 0.37408 0.16184 0.957 0.0
C132 C 0.33979 0.1507 0.96646 0.0
C133 C 0.35469 0.15419 0.9515 0.0
C134 C 0.36366 0.16199 0.99258 0.0
C135 C 0.34408 0.15477 0.98719 0.0
C136 C 0.37845 0.1656 0.97764 0.0
C137 C 0.4469 0.18595 0.89118 0.0
C138 C 0.45326 0.21906 0.90636 0.0
C139 C 0.47876 0.20388 0.88441 0.0
C140 C 0.46603 0.18697 0.88162 0.0
C141 C 0.47256 0.22009 0.89695 0.0
C142 C 0.44059 0.20207 0.90364 0.0
C143 C 0.43378 0.168 0.88793 0.0
O144 O 0.40139 0.11737 0.90576 0.0
O145 O 0.3793 0.13562 0.88884 0.0
O146 O 0.41444 0.17155 0.88381 0.0
O147 O 0.43629 0.15332 0.90106 0.0
H148 H 0.40684 0.12708 0.85729 0.0
H149 H 0.41076 0.10586 0.82668 0.0
H150 H 0.3765 0.05807 0.85607 0.0
H151 H 0.37282 0.07927 0.88644 0.0
H152 H 0.32511 0.14456 0.96173 0.0
H153 H 0.35104 0.15092 0.93567 0.0
H154 H 0.36747 0.16509 1.00841 0.0
H155 H 0.39334 0.17142 0.98221 0.0
H156 H 0.44803 0.23137 0.91596 0.0
H157 H 0.4932 0.20433 0.87637 0.0
H158 H 0.4711 0.17472 0.87186 0.0
H159 H 0.42585 0.20154 0.9112 0.0
C160 C 0.64 0.4332 0.8573 0.0
C161 C 0.65466 0.44811 0.86213 0.0
C162 C 0.64601 0.46654 0.83121 0.0
C163 C 0.65765 0.4646 0.84918 0.0
C164 C 0.63147 0.45135 0.82636 0.0
C165 C 0.62849 0.43491 0.83935 0.0
U166 U 0.65588 0.40045 0.90223 0.0
O167 O 0.63725 0.38484 0.92529 0.0
O168 O 0.65692 0.36731 0.90472 0.0
C169 C 0.64267 0.3668 0.91884 0.0
C170 C 0.63688 0.41559 0.87053 0.0
C171 C 0.62605 0.35192 0.91542 0.0
C172 C 0.59104 0.34313 0.90583 0.0
C173 C 0.6065 0.35769 0.90878 0.0
C174 C 0.6146 0.3169 0.91573 0.0
C175 C 0.59492 0.32254 0.90941 0.0
C176 C 0.62996 0.33143 0.91881 0.0
C177 C 0.7039 0.41497 0.93308 0.0
C178 C 0.71293 0.40322 0.96703 0.0
C179 C 0.73919 0.41667 0.94477 0.0
C180 C 0.72448 0.42001 0.92968 0.0
C181 C 0.73361 0.40843 0.96367 0.0
C182 C 0.69821 0.40643 0.95183 0.0
C183 C 0.68883 0.41852 0.91672 0.0
O184 O 0.65089 0.40154 0.86903 0.0
O185 O 0.63174 0.41966 0.88951 0.0
O186 O 0.67018 0.42316 0.92253 0.0
O187 O 0.68922 0.40557 0.90143 0.0
H188 H 0.66383 0.44694 0.87587 0.0
H189 H 0.66907 0.47591 0.85324 0.0
H190 H 0.62259 0.45178 0.81244 0.0
H191 H 0.61727 0.4234 0.83527 0.0
H192 H 0.57626 0.34805 0.9004 0.0
H193 H 0.60321 0.37341 0.90581 0.0
H194 H 0.6181 0.30116 0.91843 0.0
H195 H 0.64497 0.32665 0.92383 0.0
H196 H 0.70809 0.3963 0.98115 0.0
H197 H 0.755 0.42066 0.94168 0.0
H198 H 0.7292 0.42649 0.91528 0.0
H199 H 0.68243 0.40215 0.95469 0.0
C200 C 0.89004 0.44705 0.18873 0.0
C201 C 0.90562 0.44327 0.20292 0.0
C202 C 0.89722 0.47415 0.22153 0.0
C203 C 0.90919 0.45674 0.21915 0.0
C204 C 0.8818 0.47799 0.207 0.0
C205 C 0.87824 0.4645 0.19082 0.0
U206 U 0.9044 0.40148 0.15584 0.0
O207 O 0.885 0.37752 0.14239 0.0
O208 O 0.90283 0.39751 0.12247 0.0
C209 C 0.88871 0.3833 0.12358 0.0
C210 C 0.88609 0.43314 0.17154 0.0
C211 C 0.87058 0.38628 0.11059 0.0
C212 C 0.83669 0.40009 0.10497 0.0
C213 C 0.8538 0.39747 0.11755 0.0
C214 C 0.85305 0.38056 0.07828 0.0
C215 C 0.83619 0.39186 0.08513 0.0
C216 C 0.87009 0.37785 0.09091 0.0
C217 C 0.95342 0.37238 0.16865 0.0
C218 C 0.96221 0.33875 0.15641 0.0
C219 C 0.98831 0.36037 0.17157 0.0
C220 C 0.97382 0.37548 0.17462 0.0
C221 C 0.98269 0.34175 0.16266 0.0
C222 C 0.94771 0.35397 0.15937 0.0
C223 C 0.93851 0.38857 0.1723 0.0
O224 O 0.89922 0.43429 0.15642 0.0
O225 O 0.88142 0.41445 0.17651 0.0
O226 O 0.92023 0.38281 0.17845 0.0
O227 O 0.938 0.40284 0.15847 0.0
H228 H 0.915 0.42992 0.20144 0.0
H229 H 0.92128 0.45347 0.22996 0.0
H230 H 0.87265 0.49149 0.20774 0.0
H231 H 0.86631 0.46776 0.17983 0.0
H232 H 0.82388 0.40872 0.11069 0.0
H233 H 0.85392 0.40414 0.13271 0.0
H234 H 0.85303 0.37343 0.06337 0.0
H235 H 0.88286 0.36907 0.08534 0.0
H236 H 0.95735 0.32488 0.14894 0.0
H237 H 1.00397 0.36318 0.17637 0.0
H238 H 0.97854 0.38962 0.1817 0.0
H239 H 0.93207 0.35138 0.15441 0.0
C240 C 0.88237 0.60383 0.37597 0.0
C241 C 0.89865 0.60521 0.3621 0.0
C242 C 0.88527 0.57595 0.34327 0.0
C243 C 0.9001 0.59141 0.34584 0.0
C244 C 0.86903 0.57479 0.35726 0.0
C245 C 0.86761 0.58855 0.37346 0.0
U246 U 0.90052 0.64992 0.40708 0.0
O247 O 0.88249 0.6743 0.42098 0.0
O248 O 0.90073 0.65447 0.44041 0.0
C249 C 0.88689 0.66873 0.43969 0.0
C250 C 0.88035 0.61824 0.39301 0.0
C251 C 0.86919 0.66585 0.45324 0.0
C252 C 0.83636 0.65007 0.46078 0.0
C253 C 0.85318 0.65258 0.44782 0.0
C254 C 0.85144 0.67395 0.48478 0.0
C255 C 0.83535 0.66056 0.47949 0.0
C256 C 0.86821 0.67651 0.47176 0.0
C257 C 0.94916 0.6787 0.3913 0.0
C258 C 0.96084 0.70994 0.4075 0.0
C259 C 0.98197 0.69349 0.3821 0.0
C260 C 0.96719 0.67824 0.37981 0.0
C261 C 0.97897 0.7096 0.39583 0.0
C262 C 0.94606 0.6946 0.40521 0.0
C263 C 0.93392 0.6624 0.3886 0.0
O264 O 0.89449 0.61717 0.40725 0.0
O265 O 0.87602 0.63688 0.38788 0.0
O266 O 0.91544 0.66813 0.38333 0.0
O267 O 0.93388 0.64842 0.40275 0.0
H268 H 0.91012 0.61703 0.36378 0.0
H269 H 0.91265 0.59322 0.33527 0.0
H270 H 0.85733 0.56316 0.35567 0.0
H271 H 0.85492 0.58729 0.38401 0.0
H272 H 0.82415 0.63978 0.45624 0.0
H273 H 0.85367 0.64421 0.43355 0.0
H274 H 0.85102 0.6828 0.49872 0.0
H275 H 0.88039 0.68692 0.47611 0.0
H276 H 0.95809 0.72173 0.41864 0.0
H277 H 0.99579 0.69271 0.37302 0.0
H278 H 0.96988 0.66603 0.36905 0.0
H279 H 0.93227 0.69507 0.41436 0.0
C280 C 0.63321 0.62039 0.703 0.0
C281 C 0.64982 0.60711 0.70247 0.0
C282 C 0.63465 0.58732 0.72997 0.0
C283 C 0.65056 0.59067 0.71582 0.0
C284 C 0.61801 0.60065 0.7302 0.0
C285 C 0.61733 0.61704 0.7169 0.0
U286 U 0.65315 0.65157 0.65806 0.0
O287 O 0.63611 0.66719 0.63398 0.0
O288 O 0.65579 0.6846 0.65499 0.0
C289 C 0.64206 0.68521 0.64032 0.0
C290 C 0.63212 0.63778 0.68921 0.0
C291 C 0.62576 0.70019 0.64312 0.0
C292 C 0.59234 0.70991 0.65602 0.0
C293 C 0.6076 0.69537 0.65349 0.0
C294 C 0.61341 0.73429 0.63811 0.0
C295 C 0.59505 0.72956 0.64822 0.0
C296 C 0.62857 0.71973 0.63551 0.0
C297 C 0.70071 0.63476 0.62875 0.0
C298 C 0.71341 0.65235 0.5988 0.0
C299 C 0.73298 0.62507 0.61338 0.0
C300 C 0.71803 0.62247 0.6284 0.0
C301 C 0.73084 0.63993 0.59833 0.0
C302 C 0.69847 0.64975 0.6139 0.0
C303 C 0.68538 0.63196 0.64492 0.0
O304 O 0.64704 0.65113 0.69105 0.0
O305 O 0.62748 0.63352 0.67012 0.0
O306 O 0.66664 0.62793 0.63866 0.0
O307 O 0.68613 0.6453 0.65987 0.0
H308 H 0.66217 0.60942 0.69169 0.0
H309 H 0.66344 0.5806 0.7147 0.0
H310 H 0.60549 0.59843 0.74079 0.0
H311 H 0.60435 0.62711 0.71748 0.0
H312 H 0.57872 0.70579 0.66443 0.0
H313 H 0.60528 0.6804 0.65973 0.0
H314 H 0.61601 0.74931 0.63211 0.0
H315 H 0.64254 0.72376 0.62757 0.0
H316 H 0.71137 0.66434 0.58788 0.0
H317 H 0.74627 0.61539 0.61353 0.0
H318 H 0.72006 0.61088 0.63981 0.0
H319 H 0.68525 0.65954 0.61409 0.0
H320 H 0.16786 0.98843 0.31833 0.0
C321 C 0.15242 0.98214 0.31792 0.0
H322 H 0.12254 0.98614 0.30611 0.0
H323 H 0.13482 0.07761 0.28329 0.0
H324 H 0.11591 0.08114 0.31491 0.0
H325 H 0.1094 0.05165 0.33686 0.0
H326 H 0.12193 1.01848 0.3274 0.0
C327 C 0.13846 0.9909 0.30579 0.0
C328 C 0.14361 1.00881 0.29307 0.0
C329 C 0.13592 0.02803 0.29864 0.0
C330 C 0.13935 0.04496 0.2858 0.0
C331 C 0.1321 0.06411 0.29213 0.0
C332 C 0.12136 0.06639 0.31034 0.0
C333 C 0.11772 0.04979 0.32271 0.0
C334 C 0.12493 0.03082 0.31705 0.0
H335 H 0.12019 0.05982 0.24681 0.0
C336 C 0.13489 0.0667 0.24305 0.0
H337 H 0.16675 0.06597 0.24948 0.0
H338 H 0.16078 0.97417 0.27794 0.0
H339 H 0.18042 0.97087 0.24676 0.0
H340 H 0.18651 1.00028 0.2246 0.0
H341 H 0.17291 0.03319 0.23347 0.0
C342 C 0.15169 0.05966 0.25248 0.0
C343 C 0.15006 0.04255 0.26712 0.0
C344 C 0.15853 1.02353 0.26199 0.0
C345 C 0.1552 1.0066 0.2749 0.0
C346 C 0.16315 0.98762 0.26895 0.0
C347 C 0.17439 0.98548 0.25102 0.0
C348 C 0.1778 1.00204 0.23854 0.0
C349 C 0.16993 1.02085 0.24382 0.0
H350 H 0.2292 0.90182 0.50487 0.0
C351 C 0.2368 0.90518 0.49052 0.0
H352 H 0.26552 0.90891 0.47605 0.0
H353 H 0.31467 0.93651 0.55412 0.0
H354 H 0.3124 0.96811 0.53579 0.0
H355 H 0.29067 0.97085 0.50511 0.0
H356 H 0.27103 0.94205 0.49262 0.0
C357 C 0.2574 0.90593 0.49015 0.0
C358 C 0.26994 0.90414 0.50909 0.0
C359 C 0.28152 0.92107 0.51609 0.0
C360 C 0.29422 0.91945 0.53366 0.0
C361 C 0.30517 0.93676 0.54059 0.0
C362 C 0.3039 0.95504 0.53028 0.0
C363 C 0.29166 0.95659 0.51302 0.0
C364 C 0.28051 0.9399 0.50597 0.0
H365 H 0.33592 0.89962 0.54304 0.0
C366 C 0.33029 0.89819 0.55859 0.0
H367 H 0.30348 0.89573 0.5766 0.0
H368 H 0.2508 0.8683 0.4992 0.0
H369 H 0.25263 0.83696 0.51795 0.0
H370 H 0.27393 0.83446 0.54895 0.0
H371 H 0.29366 0.86329 0.56129 0.0
C372 C 0.30993 0.89858 0.56163 0.0
C373 C 0.29555 0.9008 0.5441 0.0
C374 C 0.2836 0.88401 0.53743 0.0
C375 C 0.27099 0.88558 0.51975 0.0
C376 C 0.2601 0.86821 0.51286 0.0
C377 C 0.26114 0.85005 0.52341 0.0
C378 C 0.27315 0.84863 0.54084 0.0
C379 C 0.28437 0.86532 0.54778 0.0
H380 H 0.3979 0.97447 0.75649 0.0
C381 C 0.39706 0.98239 0.74203 0.0
H382 H 0.39721 1.01116 0.7281 0.0
H383 H 0.35922 0.05671 0.80381 0.0
H384 H 0.33119 0.0577 0.77958 0.0
H385 H 0.33297 0.03901 0.74693 0.0
H386 H 0.36277 1.01914 0.73835 0.0
C387 C 0.39769 1.00274 0.74223 0.0
C388 C 0.39722 1.01452 0.76173 0.0
C389 C 0.37982 0.02637 0.76637 0.0
C390 C 0.37888 0.03733 0.78512 0.0
C391 C 0.36099 0.04846 0.78962 0.0
C392 C 0.34471 0.04907 0.77589 0.0
C393 C 0.34571 0.03854 0.75752 0.0
C394 C 0.36296 0.02723 0.75277 0.0
H395 H 0.39913 0.07621 0.80572 0.0
C396 C 0.39616 0.06809 0.8198 0.0
H397 H 0.39289 0.03897 0.83272 0.0
H398 H 0.4338 0.99517 0.75669 0.0
H399 H 0.46187 0.99424 0.78094 0.0
H400 H 0.45984 1.01256 0.8138 0.0
H401 H 0.42977 0.03207 0.82253 0.0
C402 C 0.3944 0.04781 0.81892 0.0
C403 C 0.39546 0.03665 0.79911 0.0
C404 C 0.41292 1.02493 0.79441 0.0
C405 C 0.41392 1.01405 0.77561 0.0
C406 C 0.43194 1.0032 0.77099 0.0
C407 C 0.44824 1.00267 0.78472 0.0
C408 C 0.44711 1.013 0.80321 0.0
C409 C 0.42974 1.02409 0.80805 0.0
H410 H 0.22801 0.14745 0.05717 0.0
C411 C 0.23541 0.14401 0.07161 0.0
H412 H 0.26392 0.14012 0.08642 0.0
H413 H 0.31299 0.11295 1.00858 0.0
H414 H 0.31047 0.0814 1.02702 0.0
H415 H 0.28881 0.07858 0.05768 0.0
H416 H 0.26948 0.10726 0.07004 0.0
C417 C 0.25599 0.14321 0.07223 0.0
C418 C 0.26871 0.14511 0.05344 0.0
C419 C 0.28011 0.12825 0.04652 0.0
C420 C 0.29278 0.12992 1.02895 0.0
C421 C 0.30353 0.11267 1.0221 0.0
C422 C 0.30211 0.09441 0.03247 0.0
C423 C 0.28991 0.09282 0.04972 0.0
C424 C 0.27894 0.10945 0.05669 0.0
H425 H 0.33466 0.14995 1.01923 0.0
C426 C 0.32888 0.1513 1.00372 0.0
H427 H 0.3019 0.15355 0.98588 0.0
H428 H 0.25014 0.18089 0.06331 0.0
H429 H 0.25228 0.2122 0.04449 0.0
H430 H 0.27345 0.21475 1.01347 0.0
H431 H 0.29276 0.18601 1.00119 0.0
C432 C 0.30847 0.15078 1.00081 0.0
C433 C 0.29424 0.14853 1.01844 0.0
C434 C 0.28254 0.16528 1.02509 0.0
C435 C 0.26998 0.16367 0.04276 0.0
C436 C 0.25936 0.181 0.04963 0.0
C437 C 0.26058 0.19915 0.03905 0.0
C438 C 0.27253 0.2006 1.02161 0.0
C439 C 0.2835 0.18395 1.0147 0.0
H440 H 1.01469 0.33133 0.16028 0.0
C441 C 0.99881 0.32623 0.15976 0.0
H442 H 0.97951 0.30039 0.1571 0.0
H443 H 0.04611 0.24894 0.10989 0.0
H444 H 1.02109 0.25436 0.0831 0.0
H445 H 0.99178 0.27698 0.08869 0.0
H446 H 0.98726 0.29428 0.12112 0.0
C447 C 0.99505 0.30631 0.1575 0.0
C448 C 1.01215 0.29177 0.15466 0.0
C449 C 1.01456 0.28175 0.13563 0.0
C450 C 0.03158 0.26887 0.13233 0.0
C451 C 0.03358 0.25905 0.11316 0.0
C452 C 1.01931 0.26199 0.09765 0.0
C453 C 1.0028 0.27471 0.10081 0.0
C454 C 1.00038 0.28454 0.11952 0.0
H455 H 0.05549 0.23007 0.16353 0.0
C456 C 0.06691 0.23513 0.1526 0.0
H457 H 0.07561 0.25924 0.13319 0.0
H458 H 1.01042 0.3061 0.19395 0.0
H459 H 0.03563 0.30105 0.22061 0.0
H460 H 0.0663 0.28048 0.21422 0.0
H461 H 0.07175 0.26455 0.18126 0.0
C462 C 0.06454 0.25338 0.14398 0.0
C463 C 0.04618 0.26599 0.14807 0.0
C464 C 0.04357 0.27569 0.16726 0.0
C465 C 1.02632 0.28827 0.17068 0.0
C466 C 1.02362 0.29704 0.19027 0.0
C467 C 0.03791 0.29415 0.20576 0.0
C468 C 0.05514 0.28252 0.20218 0.0
C469 C 0.05803 0.27337 0.1832 0.0
H470 H 0.4779 0.25256 0.90394 0.0
C471 C 0.48548 0.23852 0.89992 0.0
H472 H 0.51413 0.22467 0.8949 0.0
H473 H 0.56199 0.3026 0.86771 0.0
H474 H 0.55846 0.28477 0.8354 0.0
H475 H 0.53661 0.2543 0.83243 0.0
H476 H 0.51808 0.24151 0.86172 0.0
C477 C 0.50605 0.23849 0.89853 0.0
C478 C 0.51853 0.25739 0.90045 0.0
C479 C 0.52942 0.26458 0.88321 0.0
C480 C 0.54219 0.28204 0.88496 0.0
C481 C 0.55247 0.28915 0.86736 0.0
C482 C 0.55047 0.27913 0.84868 0.0
C483 C 0.53815 0.26199 0.847 0.0
C484 C 0.52766 0.25477 0.86398 0.0
H485 H 0.5846 0.29097 0.90427 0.0
C486 C 0.57922 0.30639 0.90617 0.0
H487 H 0.55271 0.32432 0.90964 0.0
H488 H 0.50081 0.24711 0.93691 0.0
H489 H 0.50385 0.26539 0.96896 0.0
H490 H 0.52521 0.29622 0.97166 0.0
H491 H 0.54381 0.30886 0.94233 0.0
C492 C 0.55889 0.30949 0.90634 0.0
C493 C 0.54427 0.29218 0.90401 0.0
C494 C 0.53296 0.28535 0.92111 0.0
C495 C 0.52029 0.26778 0.91943 0.0
C496 C 0.5101 0.2607 0.93708 0.0
C497 C 0.51184 0.27098 0.95565 0.0
C498 C 0.52389 0.28832 0.95719 0.0
C499 C 0.53445 0.29543 0.94021 0.0
H500 H 0.0512 0.82304 0.40389 0.0
C501 C 0.06493 0.81615 0.41004 0.0
H502 H 0.0781 0.7887 0.41973 0.0
H503 H 0.99687 0.74448 0.445 0.0
H504 H 1.01142 0.75247 0.47822 0.0
H505 H 0.04156 0.775 0.48145 0.0
H506 H 0.0574 0.78962 0.45148 0.0
C507 C 0.06462 0.79619 0.4139 0.0
C508 C 0.04559 0.78373 0.41174 0.0
C509 C 0.03634 0.77548 0.42943 0.0
C510 C 1.01881 0.76267 0.42759 0.0
C511 C 1.0101 0.75443 0.44552 0.0
C512 C 1.0183 0.75888 0.46469 0.0
C513 C 0.03528 0.77155 0.4665 0.0
C514 C 0.04426 0.77979 0.44915 0.0
H515 H 1.0104 0.72157 0.39162 0.0
C516 C 0.99544 0.72522 0.39783 0.0
H517 H 0.97835 0.74822 0.41257 0.0
H518 H 0.06014 0.79596 0.37453 0.0
H519 H 0.04463 0.78922 0.34151 0.0
H520 H 1.01294 0.76884 0.33858 0.0
H521 H 0.99677 0.75479 0.36867 0.0
C522 C 0.99293 0.74367 0.40623 0.0
C523 C 1.01051 0.75812 0.40807 0.0
C524 C 1.01931 0.76692 0.39042 0.0
C525 C 0.03711 0.77941 0.3922 0.0
C526 C 0.04621 0.78702 0.37419 0.0
C527 C 0.03753 0.78316 0.3551 0.0
C528 C 1.01973 0.77163 0.35344 0.0
C529 C 1.01067 0.76356 0.37083 0.0
H530 H 0.58479 0.76132 0.6493 0.0
C531 C 0.57957 0.74574 0.65086 0.0
H532 H 0.55353 0.72705 0.65574 0.0
H533 H 0.50409 0.79481 0.70271 0.0
H534 H 0.511 0.77123 0.73 0.0
H535 H 0.53363 0.74208 0.72437 0.0
H536 H 0.54942 0.73626 0.6914 0.0
C537 C 0.55953 0.74231 0.65429 0.0
C538 C 0.54506 0.7594 0.65722 0.0
C539 C 0.53595 0.76259 0.67659 0.0
C540 C 0.52309 0.77954 0.67991 0.0
C541 C 0.51416 0.78231 0.6994 0.0
C542 C 0.51796 0.76887 0.7152 0.0
C543 C 0.53068 0.75245 0.71202 0.0
C544 C 0.53963 0.74928 0.693 0.0
H545 H 0.48241 0.80236 0.64916 0.0
C546 C 0.48802 0.81384 0.65981 0.0
H547 H 0.51316 0.82282 0.67839 0.0
H548 H 0.55739 0.75601 0.61741 0.0
H549 H 0.55096 0.77985 0.59026 0.0
H550 H 0.53065 0.8105 0.59662 0.0
H551 H 0.51633 0.81729 0.63005 0.0
C552 C 0.50681 0.81161 0.66795 0.0
C553 C 0.51935 0.79332 0.66387 0.0
C554 C 0.52818 0.78995 0.64438 0.0
C555 C 0.54068 0.77274 0.64094 0.0
C556 C 0.54848 0.76924 0.62108 0.0
C557 C 0.54479 0.78274 0.60532 0.0
C558 C 0.5333 0.79995 0.60888 0.0
C559 C 0.52507 0.80361 0.62814 0.0
H560 H 0.61996 0.56672 0.75211 0.0
C561 C 0.63434 0.57 0.74439 0.0
H562 H 0.66536 0.56096 0.74179 0.0
H563 H 0.63321 0.52014 0.82901 0.0
H564 H 0.63328 0.55455 0.84195 0.0
H565 H 0.64102 0.58319 0.81925 0.0
H566 H 0.64844 0.57758 0.7834 0.0
C567 C 0.6506 0.55849 0.74892 0.0
C568 C 0.64855 0.54119 0.76327 0.0
C569 C 0.64496 0.54466 0.78436 0.0
C570 C 0.64123 0.52808 0.79761 0.0
C571 C 0.63673 0.53208 0.81838 0.0
C572 C 0.63664 0.55179 0.826 0.0
C573 C 0.64094 0.56792 0.81321 0.0
C574 C 0.64506 0.56449 0.79263 0.0
H575 H 0.66399 0.49287 0.82019 0.0
C576 C 0.64992 0.48426 0.81777 0.0
H577 H 0.62249 0.48267 0.80038 0.0
H578 H 0.65629 0.5292 0.72399 0.0
H579 H 0.65783 0.4947 0.71134 0.0
H580 H 0.6522 0.46593 0.73445 0.0
H581 H 0.64494 0.47148 0.77037 0.0
C582 C 0.63683 0.49055 0.80328 0.0
C583 C 0.64177 0.50801 0.78987 0.0
C584 C 0.64616 0.50453 0.76895 0.0
C585 C 0.64959 0.52112 0.75565 0.0
C586 C 0.6537 0.51717 0.73479 0.0
C587 C 0.65461 0.49743 0.72732 0.0
C588 C 0.65143 0.48123 0.74033 0.0
C589 C 0.64724 0.48464 0.76091 0.0
H590 H 0.80323 0.3978 0.07995 0.0
C591 C 0.81765 0.39479 0.07228 0.0
H592 H 0.8322 0.39203 0.04357 0.0
H593 H 0.75439 0.36568 0.99321 0.0
H594 H 0.77294 0.33412 0.9945 0.0
H595 H 0.80354 0.33079 1.01631 0.0
H596 H 0.81575 0.35896 0.037 0.0
C597 C 0.81802 0.39464 0.05173 0.0
C598 C 0.79903 0.39671 0.03926 0.0
C599 C 0.79218 0.38014 1.02711 0.0
C600 C 0.77463 0.3821 1.0144 0.0
C601 C 0.76788 0.36516 1.00279 0.0
C602 C 0.77831 0.34691 1.00349 0.0
C603 C 0.79553 0.34503 1.01577 0.0
C604 C 0.80241 0.36136 1.02753 0.0
H605 H 0.76567 0.40427 0.97365 0.0
C606 C 0.74995 0.4049 0.97907 0.0
H607 H 0.73141 0.4053 1.00559 0.0
H608 H 0.80866 0.43198 0.05956 0.0
H609 H 0.78964 0.46321 0.05873 0.0
H610 H 0.75859 0.46618 0.03751 0.0
H611 H 0.74649 0.43794 1.01682 0.0
C612 C 0.7466 0.40331 0.99926 0.0
C613 C 0.76405 0.4007 1.01368 0.0
C614 C 0.77055 0.4171 1.02621 0.0
C615 C 0.78823 0.41523 0.0388 0.0
C616 C 0.79499 0.43227 0.05025 0.0
C617 C 0.78429 0.45038 0.0498 0.0
C618 C 0.76683 0.45207 0.03782 0.0
C619 C 0.76003 0.43572 1.02605 0.0
H620 H 0.91629 0.48681 0.2467 0.0
C621 C 0.90158 0.4881 0.23901 0.0
H622 H 0.87313 0.50331 0.23932 0.0
H623 H 0.90335 0.52411 0.33319 0.0
H624 H 0.89871 0.48827 0.33946 0.0
H625 H 0.89097 0.46461 0.31114 0.0
H626 H 0.88813 0.47658 0.27637 0.0
C627 C 0.8881 0.50165 0.24624 0.0
C628 C 0.89331 0.51561 0.26346 0.0
C629 C 0.89443 0.50837 0.28376 0.0
C630 C 0.89814 0.52212 0.30021 0.0
C631 C 0.89989 0.51442 0.32024 0.0
C632 C 0.89738 0.49387 0.32403 0.0
C633 C 0.89308 0.48055 0.30808 0.0
C634 C 0.89157 0.48762 0.28816 0.0
H635 H 0.87183 0.55204 0.32352 0.0
C636 C 0.88559 0.56111 0.32605 0.0
H637 H 0.91584 0.56639 0.31534 0.0
H638 H 0.89331 0.53423 0.22632 0.0
H639 H 0.89787 0.5701 0.22013 0.0
H640 H 0.90345 0.59401 0.24871 0.0
H641 H 0.90457 0.58222 0.28367 0.0
C642 C 0.90168 0.55787 0.31367 0.0
C643 C 0.90005 0.54313 0.2964 0.0
C644 C 0.89957 0.55026 0.27606 0.0
C645 C 0.89616 0.53649 0.25959 0.0
C646 C 0.89566 0.54405 0.23942 0.0
C647 C 0.89829 0.56459 0.23564 0.0
C648 C 0.90145 0.57805 0.25173 0.0
C649 C 0.90206 0.57107 0.27173 0.0
H650 H 0.80308 0.65193 0.48556 0.0
C651 C 0.81706 0.65762 0.4927 0.0
H652 H 0.83083 0.66626 0.52078 0.0
H653 H 0.75016 0.69008 0.56666 0.0
H654 H 0.76525 0.72311 0.56065 0.0
H655 H 0.79541 0.72696 0.53837 0.0
H656 H 0.81074 0.6978 0.52205 0.0
C657 C 0.81713 0.66088 0.51301 0.0
C658 C 0.79826 0.65838 0.52556 0.0
C659 C 0.78933 0.6756 0.53483 0.0
C660 C 0.77177 0.67342 0.54748 0.0
C661 C 0.76338 0.69087 0.55677 0.0
C662 C 0.7719 0.70994 0.55346 0.0
C663 C 0.78889 0.7121 0.54094 0.0
C664 C 0.79757 0.69521 0.53169 0.0
H665 H 0.76219 0.63552 0.58648 0.0
C666 C 0.74749 0.64232 0.58301 0.0
H667 H 0.73106 0.65869 0.56069 0.0
H668 H 0.81231 0.62193 0.51141 0.0
H669 H 0.79621 0.58917 0.51606 0.0
H670 H 0.76435 0.58575 0.53592 0.0
H671 H 0.74862 0.61506 0.55159 0.0
C672 C 0.7454 0.65177 0.56501 0.0
C673 C 0.76311 0.65401 0.55083 0.0
C674 C 0.77163 0.63684 0.54102 0.0
C675 C 0.78948 0.63896 0.52875 0.0
C676 C 0.79833 0.62137 0.52019 0.0
C677 C 0.78931 0.60242 0.52284 0.0
C678 C 0.77141 0.60049 0.53409 0.0
C679 C 0.76261 0.61743 0.54311 0.0
loop_
_geom_bond_atom_site_label_1
_geom_bond_atom_site_label_2
_geom_bond_distance
_geom_bond_site_symmetry_2
_ccdc_geom_bond_type
C0 C1 1.264 . S
C0 C5 1.479 . S
C0 C10 1.465 . S
C1 C0 1.264 . S
C1 C3 1.339 . S
C1 H28 0.931 . S
C2 C3 1.395 . S
C2 C4 1.320 . S
C3 C1 1.339 . S
C3 C2 1.395 . S
C3 H29 0.929 . S
C4 C2 1.320 . S
C4 C5 1.405 . S
C4 H30 0.930 . S
C5 C0 1.479 . S
C5 C4 1.405 . S
C5 H31 0.931 . S
U6 O7 2.454 . S
U6 O8 2.458 . S
U6 C9 2.984 . S
U6 C10 2.847 . S
U6 C23 2.882 . S
U6 O24 2.441 . S
U6 O25 2.420 . S
U6 O26 2.455 . S
U6 O27 2.449 . S
O7 U6 2.454 . S
O7 C9 1.353 . S
O8 U6 2.458 . S
O8 C9 1.286 . S
C9 U6 2.984 . S
C9 O7 1.353 . S
C9 O8 1.286 . S
C9 C11 1.363 . S
C10 C0 1.465 . S
C10 U6 2.847 . S
C10 O24 1.249 . S
C10 O25 1.202 . S
C11 C9 1.363 . S
C11 C13 1.408 . S
C11 C16 1.342 . S
C12 C13 1.310 . S
C12 C15 1.461 . S
C12 H32 0.932 . S
C13 C11 1.408 . S
C13 C12 1.310 . S
C13 H33 0.930 . S
C14 C15 1.474 . S
C14 C16 1.285 . S
C14 H34 0.929 . S
C15 C12 1.461 . S
C15 C14 1.474 . S
C16 C11 1.342 . S
C16 C14 1.285 . S
C16 H35 0.930 . S
C17 C20 1.424 . S
C17 C22 1.245 . S
C17 C23 1.428 . S
C18 C21 1.260 . S
C18 C22 1.477 . S
C18 H36 0.932 . S
C19 C20 1.384 . S
C19 C21 1.479 . S
C19 H37 0.929 . S
C20 C17 1.424 . S
C20 C19 1.384 . S
C20 H38 0.928 . S
C21 C18 1.260 . S
C21 C19 1.479 . S
C22 C17 1.245 . S
C22 C18 1.477 . S
C22 H39 0.932 . S
C23 U6 2.882 . S
C23 C17 1.428 . S
C23 O26 1.301 . S
C23 O27 1.282 . S
O24 U6 2.441 . S
O24 C10 1.249 . S
O25 U6 2.420 . S
O25 C10 1.202 . S
O26 U6 2.455 . S
O26 C23 1.301 . S
O27 U6 2.449 . S
O27 C23 1.282 . S
H28 C1 0.931 . S
H29 C3 0.929 . S
H30 C4 0.930 . S
H31 C5 0.931 . S
H32 C12 0.932 . S
H33 C13 0.930 . S
H34 C14 0.929 . S
H35 C16 0.930 . S
H36 C18 0.932 . S
H37 C19 0.929 . S
H38 C20 0.928 . S
H39 C22 0.932 . S
C40 C41 1.264 . S
C40 C45 1.479 . S
C40 C50 1.465 . S
C41 C40 1.264 . S
C41 C43 1.339 . S
C41 H68 0.931 . S
C42 C43 1.395 . S
C42 C44 1.320 . S
C43 C41 1.339 . S
C43 C42 1.395 . S
C43 H69 0.929 . S
C44 C42 1.320 . S
C44 C45 1.405 . S
C44 H70 0.930 . S
C45 C40 1.479 . S
C45 C44 1.405 . S
C45 H71 0.931 . S
U46 O47 2.454 . S
U46 O48 2.458 . S
U46 C49 2.984 . S
U46 C50 2.847 . S
U46 C63 2.882 . S
U46 O64 2.441 . S
U46 O65 2.420 . S
U46 O66 2.455 . S
U46 O67 2.449 . S
O47 U46 2.454 . S
O47 C49 1.353 . S
O48 U46 2.458 . S
O48 C49 1.286 . S
C49 U46 2.984 . S
C49 O47 1.353 . S
C49 O48 1.286 . S
C49 C51 1.363 . S
C50 C40 1.465 . S
C50 U46 2.847 . S
C50 O64 1.249 . S
C50 O65 1.202 . S
C51 C49 1.363 . S
C51 C53 1.408 . S
C51 C56 1.342 . S
C52 C53 1.310 . S
C52 C55 1.461 . S
C52 H72 0.932 . S
C53 C51 1.408 . S
C53 C52 1.310 . S
C53 H73 0.930 . S
C54 C55 1.474 . S
C54 C56 1.285 . S
C54 H74 0.929 . S
C55 C52 1.461 . S
C55 C54 1.474 . S
C56 C51 1.342 . S
C56 C54 1.285 . S
C56 H75 0.930 . S
C57 C60 1.424 . S
C57 C62 1.245 . S
C57 C63 1.428 . S
C58 C61 1.260 . S
C58 C62 1.477 . S
C58 H76 0.932 . S
C59 C60 1.384 . S
C59 C61 1.479 . S
C59 H77 0.929 . S
C60 C57 1.424 . S
C60 C59 1.384 . S
C60 H78 0.928 . S
C61 C58 1.260 . S
C61 C59 1.479 . S
C62 C57 1.245 . S
C62 C58 1.477 . S
C62 H79 0.932 . S
C63 U46 2.882 . S
C63 C57 1.428 . S
C63 O66 1.301 . S
C63 O67 1.282 . S
O64 U46 2.441 . S
O64 C50 1.249 . S
O65 U46 2.420 . S
O65 C50 1.202 . S
O66 U46 2.455 . S
O66 C63 1.301 . S
O67 U46 2.449 . S
O67 C63 1.282 . S
H68 C41 0.931 . S
H69 C43 0.929 . S
H70 C44 0.930 . S
H71 C45 0.931 . S
H72 C52 0.932 . S
H73 C53 0.930 . S
H74 C54 0.929 . S
H75 C56 0.930 . S
H76 C58 0.932 . S
H77 C59 0.929 . S
H78 C60 0.928 . S
H79 C62 0.932 . S
C80 C81 1.264 . S
C80 C85 1.479 . S
C80 C90 1.465 . S
C81 C80 1.264 . S
C81 C83 1.339 . S
C81 H108 0.931 . S
C82 C83 1.395 . S
C82 C84 1.320 . S
C83 C81 1.339 . S
C83 C82 1.395 . S
C83 H109 0.929 . S
C84 C82 1.320 . S
C84 C85 1.405 . S
C84 H110 0.930 . S
C85 C80 1.479 . S
C85 C84 1.405 . S
C85 H111 0.931 . S
U86 O87 2.454 . S
U86 O88 2.458 . S
U86 C89 2.984 . S
U86 C90 2.847 . S
U86 C103 2.882 . S
U86 O104 2.441 . S
U86 O105 2.420 . S
U86 O106 2.455 . S
U86 O107 2.449 . S
O87 U86 2.454 . S
O87 C89 1.353 . S
O88 U86 2.458 . S
O88 C89 1.286 . S
C89 U86 2.984 . S
C89 O87 1.353 . S
C89 O88 1.286 . S
C89 C91 1.363 . S
C90 C80 1.465 . S
C90 U86 2.847 . S
C90 O104 1.249 . S
C90 O105 1.202 . S
C91 C89 1.363 . S
C91 C93 1.408 . S
C91 C96 1.342 . S
C92 C93 1.310 . S
C92 C95 1.461 . S
C92 H112 0.932 . S
C93 C91 1.408 . S
C93 C92 1.310 . S
C93 H113 0.930 . S
C94 C95 1.474 . S
C94 C96 1.285 . S
C94 H114 0.929 . S
C95 C92 1.461 . S
C95 C94 1.474 . S
C96 C91 1.342 . S
C96 C94 1.285 . S
C96 H115 0.930 . S
C97 C100 1.424 . S
C97 C102 1.245 . S
C97 C103 1.428 . S
C98 C101 1.260 . S
C98 C102 1.477 . S
C98 H116 0.932 . S
C99 C100 1.384 . S
C99 C101 1.479 . S
C99 H117 0.929 . S
C100 C97 1.424 . S
C100 C99 1.384 . S
C100 H118 0.928 . S
C101 C98 1.260 . S
C101 C99 1.479 . S
C102 C97 1.245 . S
C102 C98 1.477 . S
C102 H119 0.932 . S
C103 U86 2.882 . S
C103 C97 1.428 . S
C103 O106 1.301 . S
C103 O107 1.282 . S
O104 U86 2.441 . S
O104 C90 1.249 . S
O105 U86 2.420 . S
O105 C90 1.202 . S
O106 U86 2.455 . S
O106 C103 1.301 . S
O107 U86 2.449 . S
O107 C103 1.282 . S
H108 C81 0.931 . S
H109 C83 0.929 . S
H110 C84 0.930 . S
H111 C85 0.931 . S
H112 C92 0.932 . S
H113 C93 0.930 . S
H114 C94 0.929 . S
H115 C96 0.930 . S
H116 C98 0.932 . S
H117 C99 0.929 . S
H118 C100 0.928 . S
H119 C102 0.932 . S
C120 C121 1.264 . S
C120 C125 1.479 . S
C120 C130 1.465 . S
C121 C120 1.264 . S
C121 C123 1.339 . S
C121 H148 0.931 . S
C122 C123 1.395 . S
C122 C124 1.320 . S
C123 C121 1.339 . S
C123 C122 1.395 . S
C123 H149 0.929 . S
C124 C122 1.320 . S
C124 C125 1.405 . S
C124 H150 0.930 . S
C125 C120 1.479 . S
C125 C124 1.405 . S
C125 H151 0.931 . S
U126 O127 2.454 . S
U126 O128 2.458 . S
U126 C129 2.984 . S
U126 C130 2.847 . S
U126 C143 2.882 . S
U126 O144 2.441 . S
U126 O145 2.420 . S
U126 O146 2.455 . S
U126 O147 2.449 . S
O127 U126 2.454 . S
O127 C129 1.353 . S
O128 U126 2.458 . S
O128 C129 1.286 . S
C129 U126 2.984 . S
C129 O127 1.353 . S
C129 O128 1.286 . S
C129 C131 1.363 . S
C130 C120 1.465 . S
C130 U126 2.847 . S
C130 O144 1.249 . S
C130 O145 1.202 . S
C131 C129 1.363 . S
C131 C133 1.408 . S
C131 C136 1.342 . S
C132 C133 1.310 . S
C132 C135 1.461 . S
C132 H152 0.932 . S
C133 C131 1.408 . S
C133 C132 1.310 . S
C133 H153 0.930 . S
C134 C135 1.474 . S
C134 C136 1.285 . S
C134 H154 0.929 . S
C135 C132 1.461 . S
C135 C134 1.474 . S
C136 C131 1.342 . S
C136 C134 1.285 . S
C136 H155 0.930 . S
C137 C140 1.424 . S
C137 C142 1.245 . S
C137 C143 1.428 . S
C138 C141 1.260 . S
C138 C142 1.477 . S
C138 H156 0.932 . S
C139 C140 1.384 . S
C139 C141 1.479 . S
C139 H157 0.929 . S
C140 C137 1.424 . S
C140 C139 1.384 . S
C140 H158 0.928 . S
C141 C138 1.260 . S
C141 C139 1.479 . S
C142 C137 1.245 . S
C142 C138 1.477 . S
C142 H159 0.932 . S
C143 U126 2.882 . S
C143 C137 1.428 . S
C143 O146 1.301 . S
C143 O147 1.282 . S
O144 U126 2.441 . S
O144 C130 1.249 . S
O145 U126 2.420 . S
O145 C130 1.202 . S
O146 U126 2.455 . S
O146 C143 1.301 . S
O147 U126 2.449 . S
O147 C143 1.282 . S
H148 C121 0.931 . S
H149 C123 0.929 . S
H150 C124 0.930 . S
H151 C125 0.931 . S
H152 C132 0.932 . S
H153 C133 0.930 . S
H154 C134 0.929 . S
H155 C136 0.930 . S
H156 C138 0.932 . S
H157 C139 0.929 . S
H158 C140 0.928 . S
H159 C142 0.932 . S
C160 C161 1.264 . S
C160 C165 1.479 . S
C160 C170 1.465 . S
C161 C160 1.264 . S
C161 C163 1.339 . S
C161 H188 0.931 . S
C162 C163 1.395 . S
C162 C164 1.320 . S
C163 C161 1.339 . S
C163 C162 1.395 . S
C163 H189 0.929 . S
C164 C162 1.320 . S
C164 C165 1.405 . S
C164 H190 0.930 . S
C165 C160 1.479 . S
C165 C164 1.405 . S
C165 H191 0.931 . S
U166 O167 2.454 . S
U166 O168 2.458 . S
U166 C169 2.984 . S
U166 C170 2.847 . S
U166 C183 2.882 . S
U166 O184 2.441 . S
U166 O185 2.420 . S
U166 O186 2.455 . S
U166 O187 2.449 . S
O167 U166 2.454 . S
O167 C169 1.353 . S
O168 U166 2.458 . S
O168 C169 1.286 . S
C169 U166 2.984 . S
C169 O167 1.353 . S
C169 O168 1.286 . S
C169 C171 1.363 . S
C170 C160 1.465 . S
C170 U166 2.847 . S
C170 O184 1.249 . S
C170 O185 1.202 . S
C171 C169 1.363 . S
C171 C173 1.408 . S
C171 C176 1.342 . S
C172 C173 1.310 . S
C172 C175 1.461 . S
C172 H192 0.932 . S
C173 C171 1.408 . S
C173 C172 1.310 . S
C173 H193 0.930 . S
C174 C175 1.474 . S
C174 C176 1.285 . S
C174 H194 0.929 . S
C175 C172 1.461 . S
C175 C174 1.474 . S
C176 C171 1.342 . S
C176 C174 1.285 . S
C176 H195 0.930 . S
C177 C180 1.424 . S
C177 C182 1.245 . S
C177 C183 1.428 . S
C178 C181 1.260 . S
C178 C182 1.477 . S
C178 H196 0.932 . S
C179 C180 1.384 . S
C179 C181 1.479 . S
C179 H197 0.929 . S
C180 C177 1.424 . S
C180 C179 1.384 . S
C180 H198 0.928 . S
C181 C178 1.260 . S
C181 C179 1.479 . S
C182 C177 1.245 . S
C182 C178 1.477 . S
C182 H199 0.932 . S
C183 U166 2.882 . S
C183 C177 1.428 . S
C183 O186 1.301 . S
C183 O187 1.282 . S
O184 U166 2.441 . S
O184 C170 1.249 . S
O185 U166 2.420 . S
O185 C170 1.202 . S
O186 U166 2.455 . S
O186 C183 1.301 . S
O187 U166 2.449 . S
O187 C183 1.282 . S
H188 C161 0.931 . S
H189 C163 0.929 . S
H190 C164 0.930 . S
H191 C165 0.931 . S
H192 C172 0.932 . S
H193 C173 0.930 . S
H194 C174 0.929 . S
H195 C176 0.930 . S
H196 C178 0.932 . S
H197 C179 0.929 . S
H198 C180 0.928 . S
H199 C182 0.932 . S
C200 C201 1.264 . S
C200 C205 1.479 . S
C200 C210 1.465 . S
C201 C200 1.264 . S
C201 C203 1.339 . S
C201 H228 0.931 . S
C202 C203 1.395 . S
C202 C204 1.320 . S
C203 C201 1.339 . S
C203 C202 1.395 . S
C203 H229 0.929 . S
C204 C202 1.320 . S
C204 C205 1.405 . S
C204 H230 0.930 . S
C205 C200 1.479 . S
C205 C204 1.405 . S
C205 H231 0.931 . S
U206 O207 2.454 . S
U206 O208 2.458 . S
U206 C209 2.984 . S
U206 C210 2.847 . S
U206 C223 2.882 . S
U206 O224 2.441 . S
U206 O225 2.420 . S
U206 O226 2.455 . S
U206 O227 2.449 . S
O207 U206 2.454 . S
O207 C209 1.353 . S
O208 U206 2.458 . S
O208 C209 1.286 . S
C209 U206 2.984 . S
C209 O207 1.353 . S
C209 O208 1.286 . S
C209 C211 1.363 . S
C210 C200 1.465 . S
C210 U206 2.847 . S
C210 O224 1.249 . S
C210 O225 1.202 . S
C211 C209 1.363 . S
C211 C213 1.408 . S
C211 C216 1.342 . S
C212 C213 1.310 . S
C212 C215 1.461 . S
C212 H232 0.932 . S
C213 C211 1.408 . S
C213 C212 1.310 . S
C213 H233 0.930 . S
C214 C215 1.474 . S
C214 C216 1.285 . S
C214 H234 0.929 . S
C215 C212 1.461 . S
C215 C214 1.474 . S
C216 C211 1.342 . S
C216 C214 1.285 . S
C216 H235 0.930 . S
C217 C220 1.424 . S
C217 C222 1.245 . S
C217 C223 1.428 . S
C218 C221 1.260 . S
C218 C222 1.477 . S
C218 H236 0.932 . S
C219 C220 1.384 . S
C219 C221 1.479 . S
C219 H237 0.929 . S
C220 C217 1.424 . S
C220 C219 1.384 . S
C220 H238 0.928 . S
C221 C218 1.260 . S
C221 C219 1.479 . S
C222 C217 1.245 . S
C222 C218 1.477 . S
C222 H239 0.932 . S
C223 U206 2.882 . S
C223 C217 1.428 . S
C223 O226 1.301 . S
C223 O227 1.282 . S
O224 U206 2.441 . S
O224 C210 1.249 . S
O225 U206 2.420 . S
O225 C210 1.202 . S
O226 U206 2.455 . S
O226 C223 1.301 . S
O227 U206 2.449 . S
O227 C223 1.282 . S
H228 C201 0.931 . S
H229 C203 0.929 . S
H230 C204 0.930 . S
H231 C205 0.931 . S
H232 C212 0.932 . S
H233 C213 0.930 . S
H234 C214 0.929 . S
H235 C216 0.930 . S
H236 C218 0.932 . S
H237 C219 0.929 . S
H238 C220 0.928 . S
H239 C222 0.932 . S
C240 C241 1.264 . S
C240 C245 1.479 . S
C240 C250 1.465 . S
C241 C240 1.264 . S
C241 C243 1.339 . S
C241 H268 0.931 . S
C242 C243 1.395 . S
C242 C244 1.320 . S
C243 C241 1.339 . S
C243 C242 1.395 . S
C243 H269 0.929 . S
C244 C242 1.320 . S
C244 C245 1.405 . S
C244 H270 0.930 . S
C245 C240 1.479 . S
C245 C244 1.405 . S
C245 H271 0.931 . S
U246 O247 2.454 . S
U246 O248 2.458 . S
U246 C249 2.984 . S
U246 C250 2.847 . S
U246 C263 2.882 . S
U246 O264 2.441 . S
U246 O265 2.420 . S
U246 O266 2.455 . S
U246 O267 2.449 . S
O247 U246 2.454 . S
O247 C249 1.353 . S
O248 U246 2.458 . S
O248 C249 1.286 . S
C249 U246 2.984 . S
C249 O247 1.353 . S
C249 O248 1.286 . S
C249 C251 1.363 . S
C250 C240 1.465 . S
C250 U246 2.847 . S
C250 O264 1.249 . S
C250 O265 1.202 . S
C251 C249 1.363 . S
C251 C253 1.408 . S
C251 C256 1.342 . S
C252 C253 1.310 . S
C252 C255 1.461 . S
C252 H272 0.932 . S
C253 C251 1.408 . S
C253 C252 1.310 . S
C253 H273 0.930 . S
C254 C255 1.474 . S
C254 C256 1.285 . S
C254 H274 0.929 . S
C255 C252 1.461 . S
C255 C254 1.474 . S
C256 C251 1.342 . S
C256 C254 1.285 . S
C256 H275 0.930 . S
C257 C260 1.424 . S
C257 C262 1.245 . S
C257 C263 1.428 . S
C258 C261 1.260 . S
C258 C262 1.477 . S
C258 H276 0.932 . S
C259 C260 1.384 . S
C259 C261 1.479 . S
C259 H277 0.929 . S
C260 C257 1.424 . S
C260 C259 1.384 . S
C260 H278 0.928 . S
C261 C258 1.260 . S
C261 C259 1.479 . S
C262 C257 1.245 . S
C262 C258 1.477 . S
C262 H279 0.932 . S
C263 U246 2.882 . S
C263 C257 1.428 . S
C263 O266 1.301 . S
C263 O267 1.282 . S
O264 U246 2.441 . S
O264 C250 1.249 . S
O265 U246 2.420 . S
O265 C250 1.202 . S
O266 U246 2.455 . S
O266 C263 1.301 . S
O267 U246 2.449 . S
O267 C263 1.282 . S
H268 C241 0.931 . S
H269 C243 0.929 . S
H270 C244 0.930 . S
H271 C245 0.931 . S
H272 C252 0.932 . S
H273 C253 0.930 . S
H274 C254 0.929 . S
H275 C256 0.930 . S
H276 C258 0.932 . S
H277 C259 0.929 . S
H278 C260 0.928 . S
H279 C262 0.932 . S
C280 C281 1.264 . S
C280 C285 1.479 . S
C280 C290 1.465 . S
C281 C280 1.264 . S
C281 C283 1.339 . S
C281 H308 0.931 . S
C282 C283 1.395 . S
C282 C284 1.320 . S
C283 C281 1.339 . S
C283 C282 1.395 . S
C283 H309 0.929 . S
C284 C282 1.320 . S
C284 C285 1.405 . S
C284 H310 0.930 . S
C285 C280 1.479 . S
C285 C284 1.405 . S
C285 H311 0.931 . S
U286 O287 2.454 . S
U286 O288 2.458 . S
U286 C289 2.984 . S
U286 C290 2.847 . S
U286 C303 2.882 . S
U286 O304 2.441 . S
U286 O305 2.420 . S
U286 O306 2.455 . S
U286 O307 2.449 . S
O287 U286 2.454 . S
O287 C289 1.353 . S
O288 U286 2.458 . S
O288 C289 1.286 . S
C289 U286 2.984 . S
C289 O287 1.353 . S
C289 O288 1.286 . S
C289 C291 1.363 . S
C290 C280 1.465 . S
C290 U286 2.847 . S
C290 O304 1.249 . S
C290 O305 1.202 . S
C291 C289 1.363 . S
C291 C293 1.408 . S
C291 C296 1.342 . S
C292 C293 1.310 . S
C292 C295 1.461 . S
C292 H312 0.932 . S
C293 C291 1.408 . S
C293 C292 1.310 . S
C293 H313 0.930 . S
C294 C295 1.474 . S
C294 C296 1.285 . S
C294 H314 0.929 . S
C295 C292 1.461 . S
C295 C294 1.474 . S
C296 C291 1.342 . S
C296 C294 1.285 . S
C296 H315 0.930 . S
C297 C300 1.424 . S
C297 C302 1.245 . S
C297 C303 1.428 . S
C298 C301 1.260 . S
C298 C302 1.477 . S
C298 H316 0.932 . S
C299 C300 1.384 . S
C299 C301 1.479 . S
C299 H317 0.929 . S
C300 C297 1.424 . S
C300 C299 1.384 . S
C300 H318 0.928 . S
C301 C298 1.260 . S
C301 C299 1.479 . S
C302 C297 1.245 . S
C302 C298 1.477 . S
C302 H319 0.932 . S
C303 U286 2.882 . S
C303 C297 1.428 . S
C303 O306 1.301 . S
C303 O307 1.282 . S
O304 U286 2.441 . S
O304 C290 1.249 . S
O305 U286 2.420 . S
O305 C290 1.202 . S
O306 U286 2.455 . S
O306 C303 1.301 . S
O307 U286 2.449 . S
O307 C303 1.282 . S
H308 C281 0.931 . S
H309 C283 0.929 . S
H310 C284 0.930 . S
H311 C285 0.931 . S
H312 C292 0.932 . S
H313 C293 0.930 . S
H314 C294 0.929 . S
H315 C296 0.930 . S
H316 C298 0.932 . S
H317 C299 0.929 . S
H318 C300 0.928 . S
H319 C302 0.932 . S
H320 C321 0.951 . S
C321 H320 0.951 . S
C321 C327 1.265 . S
H322 C327 0.950 . S
H323 C331 0.949 . S
H324 C332 0.950 . S
H325 C333 0.951 . S
H326 C334 0.951 1_565 S
C327 C321 1.265 . S
C327 H322 0.950 . S
C327 C328 1.478 . S
C328 C327 1.478 . S
C328 C329 1.397 1_565 S
C328 C345 1.394 . S
C329 C328 1.397 1_545 S
C329 C330 1.438 . S
C329 C334 1.429 . S
C330 C329 1.438 . S
C330 C331 1.428 . S
C330 C343 1.394 . S
C331 H323 0.949 . S
C331 C330 1.428 . S
C331 C332 1.345 . S
C332 H324 0.950 . S
C332 C331 1.345 . S
C332 C333 1.424 . S
C333 H325 0.951 . S
C333 C332 1.424 . S
C333 C334 1.347 . S
C334 H326 0.951 1_545 S
C334 C329 1.429 . S
C334 C333 1.347 . S
H335 C336 0.951 . S
C336 H335 0.951 . S
C336 C342 1.265 . S
H337 C342 0.950 . S
H338 C346 0.949 . S
H339 C347 0.950 . S
H340 C348 0.951 . S
H341 C349 0.951 1_545 S
C342 C336 1.265 . S
C342 H337 0.950 . S
C342 C343 1.478 . S
C343 C330 1.394 . S
C343 C342 1.478 . S
C343 C344 1.397 1_545 S
C344 C343 1.397 1_565 S
C344 C345 1.438 . S
C344 C349 1.429 . S
C345 C328 1.394 . S
C345 C344 1.438 . S
C345 C346 1.428 . S
C346 H338 0.949 . S
C346 C345 1.428 . S
C346 C347 1.345 . S
C347 H339 0.950 . S
C347 C346 1.345 . S
C347 C348 1.424 . S
C348 H340 0.951 . S
C348 C347 1.424 . S
C348 C349 1.347 . S
C349 H341 0.951 1_565 S
C349 C344 1.429 . S
C349 C348 1.347 . S
H350 C351 0.951 . S
C351 H350 0.951 . S
C351 C357 1.265 . S
H352 C357 0.950 . S
H353 C361 0.949 . S
H354 C362 0.950 . S
H355 C363 0.951 . S
H356 C364 0.951 . S
C357 C351 1.265 . S
C357 H352 0.950 . S
C357 C358 1.478 . S
C358 C357 1.478 . S
C358 C359 1.397 . S
C358 C375 1.394 . S
C359 C358 1.397 . S
C359 C360 1.438 . S
C359 C364 1.429 . S
C360 C359 1.438 . S
C360 C361 1.428 . S
C360 C373 1.394 . S
C361 H353 0.949 . S
C361 C360 1.428 . S
C361 C362 1.345 . S
C362 H354 0.950 . S
C362 C361 1.345 . S
C362 C363 1.424 . S
C363 H355 0.951 . S
C363 C362 1.424 . S
C363 C364 1.347 . S
C364 H356 0.951 . S
C364 C359 1.429 . S
C364 C363 1.347 . S
H365 C366 0.951 . S
C366 H365 0.951 . S
C366 C372 1.265 . S
H367 C372 0.950 . S
H368 C376 0.949 . S
H369 C377 0.950 . S
H370 C378 0.951 . S
H371 C379 0.951 . S
C372 C366 1.265 . S
C372 H367 0.950 . S
C372 C373 1.478 . S
C373 C360 1.394 . S
C373 C372 1.478 . S
C373 C374 1.397 . S
C374 C373 1.397 . S
C374 C375 1.438 . S
C374 C379 1.429 . S
C375 C358 1.394 . S
C375 C374 1.438 . S
C375 C376 1.428 . S
C376 H368 0.949 . S
C376 C375 1.428 . S
C376 C377 1.345 . S
C377 H369 0.950 . S
C377 C376 1.345 . S
C377 C378 1.424 . S
C378 H370 0.951 . S
C378 C377 1.424 . S
C378 C379 1.347 . S
C379 H371 0.951 . S
C379 C374 1.429 . S
C379 C378 1.347 . S
H380 C381 0.951 . S
C381 H380 0.951 . S
C381 C387 1.265 . S
H382 C387 0.950 . S
H383 C391 0.949 . S
H384 C392 0.950 . S
H385 C393 0.951 . S
H386 C394 0.951 1_565 S
C387 C381 1.265 . S
C387 H382 0.950 . S
C387 C388 1.478 . S
C388 C387 1.478 . S
C388 C389 1.397 1_565 S
C388 C405 1.394 . S
C389 C388 1.397 1_545 S
C389 C390 1.438 . S
C389 C394 1.429 . S
C390 C389 1.438 . S
C390 C391 1.428 . S
C390 C403 1.394 . S
C391 H383 0.949 . S
C391 C390 1.428 . S
C391 C392 1.345 . S
C392 H384 0.950 . S
C392 C391 1.345 . S
C392 C393 1.424 . S
C393 H385 0.951 . S
C393 C392 1.424 . S
C393 C394 1.347 . S
C394 H386 0.951 1_545 S
C394 C389 1.429 . S
C394 C393 1.347 . S
H395 C396 0.951 . S
C396 H395 0.951 . S
C396 C402 1.265 . S
H397 C402 0.950 . S
H398 C406 0.949 . S
H399 C407 0.950 . S
H400 C408 0.951 . S
H401 C409 0.951 1_545 S
C402 C396 1.265 . S
C402 H397 0.950 . S
C402 C403 1.478 . S
C403 C390 1.394 . S
C403 C402 1.478 . S
C403 C404 1.397 1_545 S
C404 C403 1.397 1_565 S
C404 C405 1.438 . S
C404 C409 1.429 . S
C405 C388 1.394 . S
C405 C404 1.438 . S
C405 C406 1.428 . S
C406 H398 0.949 . S
C406 C405 1.428 . S
C406 C407 1.345 . S
C407 H399 0.950 . S
C407 C406 1.345 . S
C407 C408 1.424 . S
C408 H400 0.951 . S
C408 C407 1.424 . S
C408 C409 1.347 . S
C409 H401 0.951 1_565 S
C409 C404 1.429 . S
C409 C408 1.347 . S
H410 C411 0.951 . S
C411 H410 0.951 . S
C411 C417 1.265 . S
H412 C417 0.950 . S
H413 C421 0.982 . S
H414 C422 0.950 . S
H415 C423 0.951 . S
H416 C424 0.951 . S
C417 C411 1.265 . S
C417 H412 0.950 . S
C417 C418 1.478 . S
C418 C417 1.478 . S
C418 C419 1.397 . S
C418 C435 1.394 . S
C419 C418 1.397 . S
C419 C420 1.438 . S
C419 C424 1.429 . S
C420 C419 1.438 . S
C420 C421 1.423 1_554 S
C420 C433 1.394 1_554 S
C421 H413 0.982 . S
C421 C420 1.423 1_556 S
C421 C422 1.319 1_556 S
C422 H414 0.950 . S
C422 C421 1.319 1_554 S
C422 C423 1.424 . S
C423 H415 0.951 . S
C423 C422 1.424 . S
C423 C424 1.347 . S
C424 H416 0.951 . S
C424 C419 1.429 . S
C424 C423 1.347 . S
H425 C426 0.951 . S
C426 H425 0.951 . S
C426 C432 1.265 . S
H427 C432 0.950 . S
H428 C436 0.949 . S
H429 C437 0.949 1_554 S
H430 C438 0.951 . S
H431 C439 0.951 . S
C432 C426 1.265 . S
C432 H427 0.950 . S
C432 C433 1.478 . S
C433 C420 1.394 1_556 S
C433 C432 1.478 . S
C433 C434 1.397 . S
C434 C433 1.397 . S
C434 C435 1.438 1_556 S
C434 C439 1.429 . S
C435 C418 1.394 . S
C435 C434 1.438 1_554 S
C435 C436 1.428 . S
C436 H428 0.949 . S
C436 C435 1.428 . S
C436 C437 1.341 1_554 S
C437 H429 0.949 1_556 S
C437 C436 1.341 1_556 S
C437 C438 1.428 . S
C438 H430 0.951 . S
C438 C437 1.428 . S
C438 C439 1.347 . S
C439 H431 0.951 . S
C439 C434 1.429 . S
C439 C438 1.347 . S
H440 C441 0.951 . S
C441 H440 0.951 . S
C441 C447 1.265 . S
H442 C447 0.950 . S
H443 C451 0.949 . S
H444 C452 0.944 1_455 S
H445 C453 0.951 . S
H446 C454 0.951 . S
C447 C441 1.265 . S
C447 H442 0.950 . S
C447 C448 1.478 . S
C448 C447 1.478 . S
C448 C449 1.397 . S
C448 C465 1.394 . S
C449 C448 1.397 . S
C449 C450 1.438 1_655 S
C449 C454 1.429 . S
C450 C449 1.438 1_455 S
C450 C451 1.428 . S
C450 C463 1.394 . S
C451 H443 0.949 . S
C451 C450 1.428 . S
C451 C452 1.333 1_455 S
C452 H444 0.944 1_655 S
C452 C451 1.333 1_655 S
C452 C453 1.442 . S
C453 H445 0.951 . S
C453 C452 1.442 . S
C453 C454 1.347 . S
C454 H446 0.951 . S
C454 C449 1.429 . S
C454 C453 1.347 . S
H455 C456 0.951 . S
C456 H455 0.951 . S
C456 C462 1.265 . S
H457 C462 0.950 . S
H458 C466 0.949 . S
H459 C467 0.960 . S
H460 C468 0.951 . S
H461 C469 0.951 . S
C462 C456 1.265 . S
C462 H457 0.950 . S
C462 C463 1.478 . S
C463 C450 1.394 . S
C463 C462 1.478 . S
C463 C464 1.397 . S
C464 C463 1.397 . S
C464 C465 1.438 1_455 S
C464 C469 1.429 . S
C465 C448 1.394 . S
C465 C464 1.438 1_655 S
C465 C466 1.428 . S
C466 H458 0.949 . S
C466 C465 1.428 . S
C466 C467 1.365 . S
C467 H459 0.960 . S
C467 C466 1.365 . S
C467 C468 1.395 1_655 S
C468 H460 0.951 . S
C468 C467 1.395 1_455 S
C468 C469 1.347 . S
C469 H461 0.951 . S
C469 C464 1.429 . S
C469 C468 1.347 . S
H470 C471 0.951 . S
C471 H470 0.951 . S
C471 C477 1.265 . S
H472 C477 0.950 . S
H473 C481 0.949 . S
H474 C482 0.950 . S
H475 C483 0.951 . S
H476 C484 0.951 . S
C477 C471 1.265 . S
C477 H472 0.950 . S
C477 C478 1.478 . S
C478 C477 1.478 . S
C478 C479 1.397 . S
C478 C495 1.394 . S
C479 C478 1.397 . S
C479 C480 1.438 . S
C479 C484 1.429 . S
C480 C479 1.438 . S
C480 C481 1.428 . S
C480 C493 1.394 . S
C481 H473 0.949 . S
C481 C480 1.428 . S
C481 C482 1.345 . S
C482 H474 0.950 . S
C482 C481 1.345 . S
C482 C483 1.424 . S
C483 H475 0.951 . S
C483 C482 1.424 . S
C483 C484 1.347 . S
C484 H476 0.951 . S
C484 C479 1.429 . S
C484 C483 1.347 . S
H485 C486 0.951 . S
C486 H485 0.951 . S
C486 C492 1.265 . S
H487 C492 0.950 . S
H488 C496 0.949 . S
H489 C497 0.950 . S
H490 C498 0.951 . S
H491 C499 0.951 . S
C492 C486 1.265 . S
C492 H487 0.950 . S
C492 C493 1.478 . S
C493 C480 1.394 . S
C493 C492 1.478 . S
C493 C494 1.397 . S
C494 C493 1.397 . S
C494 C495 1.438 . S
C494 C499 1.429 . S
C495 C478 1.394 . S
C495 C494 1.438 . S
C495 C496 1.428 . S
C496 H488 0.949 . S
C496 C495 1.428 . S
C496 C497 1.345 . S
C497 H489 0.950 . S
C497 C496 1.345 . S
C497 C498 1.424 . S
C498 H490 0.951 . S
C498 C497 1.424 . S
C498 C499 1.347 . S
C499 H491 0.951 . S
C499 C494 1.429 . S
C499 C498 1.347 . S
H500 C501 0.951 . S
C501 H500 0.951 . S
C501 C507 1.265 . S
H502 C507 0.950 . S
H503 C511 0.949 . S
H504 C512 0.950 . S
H505 C513 0.951 . S
H506 C514 0.951 . S
C507 C501 1.265 . S
C507 H502 0.950 . S
C507 C508 1.478 . S
C508 C507 1.478 . S
C508 C509 1.397 . S
C508 C525 1.394 . S
C509 C508 1.397 . S
C509 C510 1.438 1_455 S
C509 C514 1.429 . S
C510 C509 1.438 1_655 S
C510 C511 1.428 . S
C510 C523 1.394 . S
C511 H503 0.949 . S
C511 C510 1.428 . S
C511 C512 1.345 . S
C512 H504 0.950 . S
C512 C511 1.345 . S
C512 C513 1.424 1_655 S
C513 H505 0.951 . S
C513 C512 1.424 1_455 S
C513 C514 1.347 . S
C514 H506 0.951 . S
C514 C509 1.429 . S
C514 C513 1.347 . S
H515 C516 0.951 . S
C516 H515 0.951 . S
C516 C522 1.265 . S
H517 C522 0.950 . S
H518 C526 0.949 . S
H519 C527 0.950 . S
H520 C528 0.951 . S
H521 C529 0.951 . S
C522 C516 1.265 . S
C522 H517 0.950 . S
C522 C523 1.478 . S
C523 C510 1.394 . S
C523 C522 1.478 . S
C523 C524 1.397 . S
C524 C523 1.397 . S
C524 C525 1.438 1_655 S
C524 C529 1.429 . S
C525 C508 1.394 . S
C525 C524 1.438 1_455 S
C525 C526 1.428 . S
C526 H518 0.949 . S
C526 C525 1.428 . S
C526 C527 1.345 . S
C527 H519 0.950 . S
C527 C526 1.345 . S
C527 C528 1.424 1_455 S
C528 H520 0.951 . S
C528 C527 1.424 1_655 S
C528 C529 1.347 . S
C529 H521 0.951 . S
C529 C524 1.429 . S
C529 C528 1.347 . S
H530 C531 0.951 . S
C531 H530 0.951 . S
C531 C537 1.265 . S
H532 C537 0.950 . S
H533 C541 0.949 . S
H534 C542 0.950 . S
H535 C543 0.951 . S
H536 C544 0.951 . S
C537 C531 1.265 . S
C537 H532 0.950 . S
C537 C538 1.478 . S
C538 C537 1.478 . S
C538 C539 1.397 . S
C538 C555 1.394 . S
C539 C538 1.397 . S
C539 C540 1.438 . S
C539 C544 1.429 . S
C540 C539 1.438 . S
C540 C541 1.428 . S
C540 C553 1.394 . S
C541 H533 0.949 . S
C541 C540 1.428 . S
C541 C542 1.345 . S
C542 H534 0.950 . S
C542 C541 1.345 . S
C542 C543 1.424 . S
C543 H535 0.951 . S
C543 C542 1.424 . S
C543 C544 1.347 . S
C544 H536 0.951 . S
C544 C539 1.429 . S
C544 C543 1.347 . S
H545 C546 0.951 . S
C546 H545 0.951 . S
C546 C552 1.265 . S
H547 C552 0.950 . S
H548 C556 0.949 . S
H549 C557 0.950 . S
H550 C558 0.951 . S
H551 C559 0.951 . S
C552 C546 1.265 . S
C552 H547 0.950 . S
C552 C553 1.478 . S
C553 C540 1.394 . S
C553 C552 1.478 . S
C553 C554 1.397 . S
C554 C553 1.397 . S
C554 C555 1.438 . S
C554 C559 1.429 . S
C555 C538 1.394 . S
C555 C554 1.438 . S
C555 C556 1.428 . S
C556 H548 0.949 . S
C556 C555 1.428 . S
C556 C557 1.345 . S
C557 H549 0.950 . S
C557 C556 1.345 . S
C557 C558 1.424 . S
C558 H550 0.951 . S
C558 C557 1.424 . S
C558 C559 1.347 . S
C559 H551 0.951 . S
C559 C554 1.429 . S
C559 C558 1.347 . S
H560 C561 0.951 . S
C561 H560 0.951 . S
C561 C567 1.265 . S
H562 C567 0.950 . S
H563 C571 0.949 . S
H564 C572 0.950 . S
H565 C573 0.951 . S
H566 C574 0.951 . S
C567 C561 1.265 . S
C567 H562 0.950 . S
C567 C568 1.478 . S
C568 C567 1.478 . S
C568 C569 1.397 . S
C568 C585 1.394 . S
C569 C568 1.397 . S
C569 C570 1.438 . S
C569 C574 1.429 . S
C570 C569 1.438 . S
C570 C571 1.428 . S
C570 C583 1.394 . S
C571 H563 0.949 . S
C571 C570 1.428 . S
C571 C572 1.345 . S
C572 H564 0.950 . S
C572 C571 1.345 . S
C572 C573 1.424 . S
C573 H565 0.951 . S
C573 C572 1.424 . S
C573 C574 1.347 . S
C574 H566 0.951 . S
C574 C569 1.429 . S
C574 C573 1.347 . S
H575 C576 0.951 . S
C576 H575 0.951 . S
C576 C582 1.265 . S
H577 C582 0.950 . S
H578 C586 0.949 . S
H579 C587 0.950 . S
H580 C588 0.951 . S
H581 C589 0.951 . S
C582 C576 1.265 . S
C582 H577 0.950 . S
C582 C583 1.478 . S
C583 C570 1.394 . S
C583 C582 1.478 . S
C583 C584 1.397 . S
C584 C583 1.397 . S
C584 C585 1.438 . S
C584 C589 1.429 . S
C585 C568 1.394 . S
C585 C584 1.438 . S
C585 C586 1.428 . S
C586 H578 0.949 . S
C586 C585 1.428 . S
C586 C587 1.345 . S
C587 H579 0.950 . S
C587 C586 1.345 . S
C587 C588 1.424 . S
C588 H580 0.951 . S
C588 C587 1.424 . S
C588 C589 1.347 . S
C589 H581 0.951 . S
C589 C584 1.429 . S
C589 C588 1.347 . S
H590 C591 0.951 . S
C591 H590 0.951 . S
C591 C597 1.265 . S
H592 C597 0.950 . S
H593 C601 0.949 . S
H594 C602 0.950 . S
H595 C603 0.951 . S
H596 C604 0.920 1_554 S
C597 C591 1.265 . S
C597 H592 0.950 . S
C597 C598 1.478 . S
C598 C597 1.478 . S
C598 C599 1.397 1_554 S
C598 C615 1.394 . S
C599 C598 1.397 1_556 S
C599 C600 1.438 . S
C599 C604 1.429 . S
C600 C599 1.438 . S
C600 C601 1.428 . S
C600 C613 1.394 . S
C601 H593 0.949 . S
C601 C600 1.428 . S
C601 C602 1.345 . S
C602 H594 0.950 . S
C602 C601 1.345 . S
C602 C603 1.424 . S
C603 H595 0.951 . S
C603 C602 1.424 . S
C603 C604 1.347 . S
C604 H596 0.920 1_556 S
C604 C599 1.429 . S
C604 C603 1.347 . S
H605 C606 0.951 . S
C606 H605 0.951 . S
C606 C612 1.265 . S
H607 C612 0.950 . S
H608 C616 0.949 . S
H609 C617 0.950 . S
H610 C618 0.951 . S
H611 C619 0.951 . S
C612 C606 1.265 . S
C612 H607 0.950 . S
C612 C613 1.478 . S
C613 C600 1.394 . S
C613 C612 1.478 . S
C613 C614 1.397 . S
C614 C613 1.397 . S
C614 C615 1.438 1_556 S
C614 C619 1.429 . S
C615 C598 1.394 . S
C615 C614 1.438 1_554 S
C615 C616 1.428 . S
C616 H608 0.949 . S
C616 C615 1.428 . S
C616 C617 1.345 . S
C617 H609 0.950 . S
C617 C616 1.345 . S
C617 C618 1.424 . S
C618 H610 0.951 . S
C618 C617 1.424 . S
C618 C619 1.347 1_554 S
C619 H611 0.951 . S
C619 C614 1.429 . S
C619 C618 1.347 1_556 S
H620 C621 0.951 . S
C621 H620 0.951 . S
C621 C627 1.265 . S
H622 C627 0.950 . S
H623 C631 0.949 . S
H624 C632 0.950 . S
H625 C633 0.951 . S
H626 C634 0.951 . S
C627 C621 1.265 . S
C627 H622 0.950 . S
C627 C628 1.478 . S
C628 C627 1.478 . S
C628 C629 1.397 . S
C628 C645 1.394 . S
C629 C628 1.397 . S
C629 C630 1.438 . S
C629 C634 1.429 . S
C630 C629 1.438 . S
C630 C631 1.428 . S
C630 C643 1.394 . S
C631 H623 0.949 . S
C631 C630 1.428 . S
C631 C632 1.345 . S
C632 H624 0.950 . S
C632 C631 1.345 . S
C632 C633 1.424 . S
C633 H625 0.951 . S
C633 C632 1.424 . S
C633 C634 1.347 . S
C634 H626 0.951 . S
C634 C629 1.429 . S
C634 C633 1.347 . S
H635 C636 0.951 . S
C636 H635 0.951 . S
C636 C642 1.265 . S
H637 C642 0.950 . S
H638 C646 0.949 . S
H639 C647 0.950 . S
H640 C648 0.951 . S
H641 C649 0.951 . S
C642 C636 1.265 . S
C642 H637 0.950 . S
C642 C643 1.478 . S
C643 C630 1.394 . S
C643 C642 1.478 . S
C643 C644 1.397 . S
C644 C643 1.397 . S
C644 C645 1.438 . S
C644 C649 1.429 . S
C645 C628 1.394 . S
C645 C644 1.438 . S
C645 C646 1.428 . S
C646 H638 0.949 . S
C646 C645 1.428 . S
C646 C647 1.345 . S
C647 H639 0.950 . S
C647 C646 1.345 . S
C647 C648 1.424 . S
C648 H640 0.951 . S
C648 C647 1.424 . S
C648 C649 1.347 . S
C649 H641 0.951 . S
C649 C644 1.429 . S
C649 C648 1.347 . S
H650 C651 0.951 . S
C651 H650 0.951 . S
C651 C657 1.265 . S
H652 C657 0.950 . S
H653 C661 0.949 . S
H654 C662 0.950 . S
H655 C663 0.951 . S
H656 C664 0.951 . S
C657 C651 1.265 . S
C657 H652 0.950 . S
C657 C658 1.478 . S
C658 C657 1.478 . S
C658 C659 1.397 . S
C658 C675 1.394 . S
C659 C658 1.397 . S
C659 C660 1.438 . S
C659 C664 1.429 . S
C660 C659 1.438 . S
C660 C661 1.428 . S
C660 C673 1.394 . S
C661 H653 0.949 . S
C661 C660 1.428 . S
C661 C662 1.345 . S
C662 H654 0.950 . S
C662 C661 1.345 . S
C662 C663 1.424 . S
C663 H655 0.951 . S
C663 C662 1.424 . S
C663 C664 1.347 . S
C664 H656 0.951 . S
C664 C659 1.429 . S
C664 C663 1.347 . S
H665 C666 0.951 . S
C666 H665 0.951 . S
C666 C672 1.265 . S
H667 C672 0.950 . S
H668 C676 0.949 . S
H669 C677 0.950 . S
H670 C678 0.951 . S
H671 C679 0.951 . S
C672 C666 1.265 . S
C672 H667 0.950 . S
C672 C673 1.478 . S
C673 C660 1.394 . S
C673 C672 1.478 . S
C673 C674 1.397 . S
C674 C673 1.397 . S
C674 C675 1.438 . S
C674 C679 1.429 . S
C675 C658 1.394 . S
C675 C674 1.438 . S
C675 C676 1.428 . S
C676 H668 0.949 . S
C676 C675 1.428 . S
C676 C677 1.345 . S
C677 H669 0.950 . S
C677 C676 1.345 . S
C677 C678 1.424 . S
C678 H670 0.951 . S
C678 C677 1.424 . S
C678 C679 1.347 . S
C679 H671 0.951 . S
C679 C674 1.429 . S
C679 C678 1.347 . S
C321 C42 1.497 . S
C336 C2 1.453 . S
C351 C61 1.460 . S
C366 C95 1.494 . S
C381 C82 1.464 . S
C396 C122 1.465 . S
C411 C21 1.459 . S
C426 C135 1.494 . S
C441 C221 1.494 . S
C456 C15 1.488 . S
C471 C141 1.461 . S
C486 C175 1.494 . S
C501 C55 1.489 . S
C516 C261 1.498 . S
C531 C295 1.494 . S
C546 C101 1.458 . S
C561 C282 1.451 . S
C576 C162 1.490 . S
C591 C215 1.488 . S
C606 C181 1.495 . S
C621 C202 1.502 . S
C636 C242 1.462 . S
C651 C255 1.489 . S
C666 C301 1.497 . S
