# Generated by pormake.
# Topology can, (4)-cn, num edge types: 1
# Building blocks:
#     Node 0, Type 0, BuildingBlock: QUQFOY_clean_sbu_3, # of connection points: 4
#     Node 1, Type 0, BuildingBlock: QUQFOY_clean_sbu_3, # of connection points: 4
#     Node 2, Type 0, BuildingBlock: QUQFOY_clean_sbu_3, # of connection points: 4
#     Node 3, Type 0, BuildingBlock: QUQFOY_clean_sbu_3, # of connection points: 4
#     Node 4, Type 0, BuildingBlock: QUQFOY_clean_sbu_3, # of connection points: 4
#     Node 5, Type 0, BuildingBlock: QUQFOY_clean_sbu_3, # of connection points: 4
#     Node 6, Type 0, BuildingBlock: QUQFOY_clean_sbu_3, # of connection points: 4
#     Node 7, Type 0, BuildingBlock: QUQFOY_clean_sbu_3, # of connection points: 4
#     Node 8, Type 0, BuildingBlock: QUQFOY_clean_sbu_3, # of connection points: 4
#     Node 9, Type 0, BuildingBlock: QUQFOY_clean_sbu_3, # of connection points: 4
#     Node 10, Type 0, BuildingBlock: QUQFOY_clean_sbu_3, # of connection points: 4
#     Node 11, Type 0, BuildingBlock: QUQFOY_clean_sbu_3, # of connection points: 4
#     Edge 12, Type (0, 0), BuildingBlock: KIFKEQ_clean_linker_1, # of connection points: 2
#     Edge 13, Type (0, 0), BuildingBlock: KIFKEQ_clean_linker_1, # of connection points: 2
#     Edge 14, Type (0, 0), BuildingBlock: KIFKEQ_clean_linker_1, # of connection points: 2
#     Edge 15, Type (0, 0), BuildingBlock: KIFKEQ_clean_linker_1, # of connection points: 2
#     Edge 16, Type (0, 0), BuildingBlock: KIFKEQ_clean_linker_1, # of connection points: 2
#     Edge 17, Type (0, 0), BuildingBlock: KIFKEQ_clean_linker_1, # of connection points: 2
#     Edge 18, Type (0, 0), BuildingBlock: KIFKEQ_clean_linker_1, # of connection points: 2
#     Edge 19, Type (0, 0), BuildingBlock: KIFKEQ_clean_linker_1, # of connection points: 2
#     Edge 20, Type (0, 0), BuildingBlock: KIFKEQ_clean_linker_1, # of connection points: 2
#     Edge 21, Type (0, 0), BuildingBlock: KIFKEQ_clean_linker_1, # of connection points: 2
#     Edge 22, Type (0, 0), BuildingBlock: KIFKEQ_clean_linker_1, # of connection points: 2
#     Edge 23, Type (0, 0), BuildingBlock: KIFKEQ_clean_linker_1, # of connection points: 2
#     Edge 24, Type (0, 0), BuildingBlock: KIFKEQ_clean_linker_1, # of connection points: 2
#     Edge 25, Type (0, 0), BuildingBlock: KIFKEQ_clean_linker_1, # of connection points: 2
#     Edge 26, Type (0, 0), BuildingBlock: KIFKEQ_clean_linker_1, # of connection points: 2
#     Edge 27, Type (0, 0), BuildingBlock: KIFKEQ_clean_linker_1, # of connection points: 2
#     Edge 28, Type (0, 0), BuildingBlock: KIFKEQ_clean_linker_1, # of connection points: 2
#     Edge 29, Type (0, 0), BuildingBlock: KIFKEQ_clean_linker_1, # of connection points: 2
#     Edge 30, Type (0, 0), BuildingBlock: KIFKEQ_clean_linker_1, # of connection points: 2
#     Edge 31, Type (0, 0), BuildingBlock: KIFKEQ_clean_linker_1, # of connection points: 2
#     Edge 32, Type (0, 0), BuildingBlock: KIFKEQ_clean_linker_1, # of connection points: 2
#     Edge 33, Type (0, 0), BuildingBlock: KIFKEQ_clean_linker_1, # of connection points: 2
#     Edge 34, Type (0, 0), BuildingBlock: KIFKEQ_clean_linker_1, # of connection points: 2
#     Edge 35, Type (0, 0), BuildingBlock: KIFKEQ_clean_linker_1, # of connection points: 2
# Relax obj value: 0.050
# Max RMSD: 0.036
# Mean RMSD: 0.036
data_MOF--net-can--node1-QUQFOY_clean_sbu_3--edge1-KIFKEQ_clean_linker_1
_symmetry_space_group_name_H-M    P1
_symmetry_Int_Tables_number       1
_symmetry_cell_setting            triclinic
loop_
_symmetry_equiv_pos_as_xyz
'x, y, z'
_cell_length_a     57.699395
_cell_length_b     57.878258
_cell_length_c     29.115273
_cell_angle_alpha  89.78645
_cell_angle_beta   90.002084
_cell_angle_gamma 120.02586
loop_
_atom_site_label
_atom_site_type_symbol
_atom_site_fract_x
_atom_site_fract_y
_atom_site_fract_z
_atom_type_partial_charge
C0 C 0.00356 0.34339 0.31852 0.0
O1 O 0.98328 0.33616 0.29291 0.0
Cd2 Cd 0.98648 0.35317 0.2167 0.0
O3 O 0.02711 0.35872 0.30324 0.0
Cd4 Cd 0.05061 0.38046 0.23137 0.0
C5 C 0.0246 0.42123 0.23597 0.0
O6 O 0.01958 0.34716 0.17847 0.0
O7 O 0.05008 0.38435 0.14869 0.0
O8 O 0.07973 0.36223 0.24018 0.0
C9 C 0.03052 0.36099 0.14277 0.0
O10 O 0.00214 0.40068 0.22686 0.0
C11 C 0.10143 0.38443 0.24022 0.0
O12 O 0.04572 0.41965 0.24064 0.0
O13 O 0.09963 0.40541 0.2378 0.0
C14 C 0.64922 0.00227 0.80791 0.0
O15 O 0.63466 0.98243 0.78249 0.0
Cd16 Cd 0.62347 0.98651 0.70466 0.0
O17 O 0.65902 0.02603 0.7928 0.0
Cd18 Cd 0.65986 0.04979 0.72209 0.0
C19 C 0.59252 0.02333 0.72358 0.0
O20 O 0.664 0.01974 0.66959 0.0
O21 O 0.65725 0.0499 0.63885 0.0
O22 O 0.70681 0.08028 0.73331 0.0
C23 C 0.66205 0.03096 0.63352 0.0
O24 O 0.59093 0.00151 0.71107 0.0
C25 C 0.70521 0.10135 0.73312 0.0
O26 O 0.61511 0.04378 0.73233 0.0
O27 O 0.68199 0.09854 0.72932 0.0
C28 C 0.62963 0.64827 0.33002 0.0
O29 O 0.63775 0.63581 0.30494 0.0
Cd30 Cd 0.63069 0.62944 0.22359 0.0
O31 O 0.61689 0.65891 0.3127 0.0
Cd32 Cd 0.60077 0.66474 0.23743 0.0
C33 C 0.56178 0.59758 0.22307 0.0
O34 O 0.64012 0.67196 0.1953 0.0
O35 O 0.60918 0.673 0.15533 0.0
O36 O 0.61208 0.70856 0.26434 0.0
C37 C 0.63199 0.6749 0.15652 0.0
O38 O 0.58327 0.59681 0.2175 0.0
C39 C 0.59028 0.70706 0.25191 0.0
O40 O 0.56238 0.61941 0.23197 0.0
O41 O 0.57265 0.68518 0.2344 0.0
C42 C 0.9788 0.64148 0.80333 0.0
O43 O -0.00079 0.64957 0.77761 0.0
Cd44 Cd -0.00364 0.63553 0.69954 0.0
O45 O 0.95532 0.62696 0.78731 0.0
Cd46 Cd 0.93278 0.60825 0.71345 0.0
C47 C 0.95824 0.567 0.71267 0.0
O48 O 0.96404 0.64351 0.66279 0.0
O49 O 0.93439 0.60697 0.6305 0.0
O50 O 0.90312 0.6259 0.72188 0.0
C51 C 0.9534 0.63082 0.62616 0.0
O52 O 0.98079 0.58777 0.70482 0.0
C53 C 0.88163 0.60352 0.72244 0.0
O54 O 0.93718 0.56856 0.71832 0.0
O55 O 0.88377 0.58273 0.72054 0.0
C56 C 0.335 0.98116 0.31666 0.0
O57 O 0.34825 0.00118 0.29051 0.0
Cd58 Cd 0.35577 -0.00204 0.21017 0.0
O59 O 0.32462 0.95752 0.30108 0.0
Cd60 Cd 0.32133 0.93494 0.22789 0.0
C61 C 0.38862 0.96249 0.21902 0.0
O62 O 0.31384 0.96486 0.17891 0.0
O63 O 0.31971 0.93513 0.14478 0.0
O64 O 0.27611 0.90231 0.2497 0.0
C65 C 0.31429 0.95375 0.14174 0.0
O66 O 0.38932 0.9841 0.20762 0.0
C67 C 0.27842 0.88207 0.24107 0.0
O68 O 0.36669 0.94201 0.2309 0.0
O69 O 0.30127 0.88644 0.22797 0.0
C70 C 0.34326 0.33259 0.80946 0.0
O71 O 0.33853 0.34731 0.7832 0.0
Cd72 Cd 0.35623 0.35938 0.70683 0.0
O73 O 0.35797 0.32327 0.79609 0.0
Cd74 Cd 0.3834 0.32325 0.72822 0.0
C75 C 0.42355 0.39031 0.73265 0.0
O76 O 0.35009 0.31916 0.67318 0.0
O77 O 0.38747 0.32557 0.64501 0.0
O78 O 0.36782 0.2772 0.74755 0.0
C79 C 0.36394 0.3212 0.63804 0.0
O80 O 0.40356 0.3918 0.71782 0.0
C81 C 0.39032 0.27856 0.7425 0.0
O82 O 0.42143 0.36779 0.74183 0.0
O83 O 0.41014 0.30123 0.73227 0.0
C84 C 0.63888 0.98006 0.14721 0.0
O85 O 0.6451 9e-05 0.17273 0.0
Cd86 Cd 0.63104 -0.00317 0.25123 0.0
O87 O 0.62444 0.9564 0.16249 0.0
Cd88 Cd 0.60186 0.93321 0.23381 0.0
C89 C 0.56285 0.96164 0.2346 0.0
O90 O 0.63737 0.96286 0.28543 0.0
O91 O 0.60051 0.93302 0.31696 0.0
O92 O 0.61552 0.9011 0.21597 0.0
C93 C 0.6244 0.95181 0.32179 0.0
O94 O 0.58365 0.98308 0.247 0.0
C95 C 0.59273 0.88062 0.22273 0.0
O96 O 0.56414 0.94086 0.22487 0.0
O97 O 0.57359 0.8846 0.23288 0.0
C98 C 0.64277 0.63834 0.67274 0.0
O99 O 0.62871 0.64368 0.69954 0.0
Cd100 Cd 0.62325 0.63292 0.78026 0.0
O101 O 0.65504 0.6267 0.6877 0.0
Cd102 Cd 0.66194 0.60846 0.75942 0.0
C103 C 0.59522 0.56494 0.77188 0.0
O104 O 0.66653 0.64427 0.80834 0.0
O105 O 0.66695 0.61126 0.84257 0.0
O106 O 0.70812 0.62604 0.73827 0.0
C107 C 0.66886 0.634 0.84531 0.0
O108 O 0.59289 0.58495 0.78291 0.0
C109 C 0.70771 0.60394 0.74045 0.0
O110 O 0.61778 0.56794 0.75964 0.0
O111 O 0.68544 0.58332 0.75001 0.0
C112 C 0.00834 0.65101 0.14319 0.0
O113 O 0.98819 0.63977 0.16974 0.0
Cd114 Cd 0.99137 0.62996 0.24869 0.0
O115 O 0.0319 0.65928 0.15843 0.0
Cd116 Cd 0.05526 0.66351 0.2317 0.0
C117 C 0.02682 0.59653 0.23857 0.0
O118 O 0.02544 0.67101 0.28037 0.0
O119 O 0.05526 0.66518 0.31482 0.0
O120 O 0.08683 0.70856 0.2083 0.0
C121 C 0.03639 0.67031 0.31768 0.0
O122 O 0.00489 0.59605 0.24684 0.0
C123 C 0.10764 0.70719 0.21722 0.0
O124 O 0.04826 0.61842 0.2304 0.0
O125 O 0.10413 0.68484 0.23123 0.0
C126 C 0.3461 0.00488 0.65815 0.0
O127 O 0.33944 0.98505 0.68467 0.0
Cd128 Cd 0.35085 0.98918 0.76481 0.0
O129 O 0.35945 0.02863 0.67324 0.0
Cd130 Cd 0.37916 0.05214 0.74557 0.0
C131 C 0.41928 0.02512 0.7537 0.0
O132 O 0.34203 0.02238 0.79522 0.0
O133 O 0.37767 0.05265 0.82874 0.0
O134 O 0.36597 0.08388 0.72147 0.0
C135 C 0.35367 0.03382 0.83217 0.0
O136 O 0.39847 0.00353 0.76579 0.0
C137 C 0.38831 0.10448 0.73016 0.0
O138 O 0.41767 0.04547 0.74179 0.0
O139 O 0.40695 0.10073 0.74458 0.0
C140 C 0.33075 0.34241 0.14656 0.0
O141 O 0.34613 0.33743 0.17054 0.0
Cd142 Cd 0.36103 0.35461 0.2459 0.0
O143 O 0.32141 0.35654 0.16264 0.0
Cd144 Cd 0.32245 0.3796 0.23445 0.0
C145 C 0.389 0.42201 0.22411 0.0
O146 O 0.3222 0.34707 0.28751 0.0
O147 O 0.32933 0.38437 0.31669 0.0
O148 O 0.27472 0.36144 0.23259 0.0
C149 C 0.32559 0.36106 0.32295 0.0
O150 O 0.39185 0.40207 0.23352 0.0
C151 C 0.27549 0.38372 0.231 0.0
O152 O 0.36585 0.41954 0.22107 0.0
O153 O 0.29845 0.40458 0.22932 0.0
C154 C 0.97347 0.33183 0.65541 0.0
O155 O -0.00596 0.34488 0.68032 0.0
Cd156 Cd -0.00823 0.36029 0.75531 0.0
O157 O 0.95015 0.3245 0.67096 0.0
Cd158 Cd 0.92776 0.32467 0.74309 0.0
C159 C 0.95464 0.39127 0.73393 0.0
O160 O 0.9588 0.32197 0.79557 0.0
O161 O 0.9297 0.33058 0.82571 0.0
O162 O 0.89839 0.27737 0.73818 0.0
C163 C 0.94857 0.32562 0.83138 0.0
O164 O 0.97695 0.39271 0.74283 0.0
C165 C 0.87673 0.27797 0.73738 0.0
O166 O 0.93315 0.3688 0.73098 0.0
O167 O 0.87858 0.30079 0.73753 0.0
H168 H 0.0536 0.38264 0.06053 0.0
H169 H 0.98171 0.31851 0.12163 0.0
H170 H 0.03318 0.36993 -0.01528 0.0
H171 H 0.96127 0.30587 0.04555 0.0
H172 H 0.92695 0.32625 0.91411 0.0
H173 H 0.94689 0.33076 -0.01018 0.0
H174 H 0.01514 0.33132 0.92766 0.0
H175 H -0.00478 0.32675 0.8518 0.0
C176 C 0.03355 0.36566 0.05766 0.0
C177 C 0.01913 0.35168 0.09687 0.0
C178 C 0.02197 0.35829 0.01431 0.0
C179 C -0.00432 0.33699 0.00953 0.0
C180 C 0.98153 0.32247 0.04855 0.0
C181 C -0.00675 0.32964 0.09191 0.0
C182 C 0.94608 0.32709 0.91667 0.0
C183 C 0.95966 0.32639 0.87717 0.0
C184 C 0.95737 0.32944 0.95995 0.0
C185 C 0.98251 0.3314 0.96434 0.0
C186 C -0.00423 0.32999 0.92498 0.0
C187 C 0.98436 0.32733 0.88172 0.0
H188 H 0.66843 -0.00032 0.34215 0.0
H189 H 0.60433 0.9283 0.40439 0.0
H190 H 0.6828 0.01952 0.41826 0.0
H191 H 0.6187 0.94811 0.48016 0.0
H192 H 0.66123 0.98467 0.61274 0.0
H193 H 0.65722 0.9654 0.53664 0.0
H194 H 0.65932 0.03441 0.47496 0.0
H195 H 0.66334 0.05372 0.55087 0.0
C196 C 0.65771 0.98809 0.3721 0.0
C197 C 0.63511 0.96259 0.36748 0.0
C198 C 0.66588 -0.00053 0.4155 0.0
C199 C 0.65178 0.98534 0.45487 0.0
C200 C 0.63005 0.95931 0.45034 0.0
C201 C 0.62172 0.94807 0.407 0.0
C202 C 0.6612 -0.00413 0.58288 0.0
C203 C 0.66228 0.02054 0.58764 0.0
C204 C 0.65887 0.98483 0.53945 0.0
C205 C 0.65791 -0.00158 0.50013 0.0
C206 C 0.66029 0.02366 0.50476 0.0
C207 C 0.66235 0.03458 0.54818 0.0
H208 H 0.64079 0.7069 0.08286 0.0
H209 H 0.65329 0.64407 0.13437 0.0
H210 H 0.65752 0.70366 0.00776 0.0
H211 H 0.66749 0.63869 0.05866 0.0
H212 H 0.69601 0.63328 0.92096 0.0
H213 H 0.69513 0.65016 -0.00288 0.0
H214 H 0.64148 0.67645 0.9463 0.0
H215 H 0.64461 0.66177 0.86992 0.0
C216 C 0.64732 0.69249 0.07788 0.0
C217 C 0.64575 0.67566 0.11386 0.0
C218 C 0.65659 0.69033 0.03477 0.0
C219 C 0.66332 0.67044 0.02633 0.0
C220 C 0.66293 0.65452 0.06345 0.0
C221 C 0.6546 0.6574 0.10697 0.0
C222 C 0.6845 0.64318 0.9263 0.0
C223 C 0.67025 0.64617 0.89002 0.0
C224 C 0.68376 0.65266 0.96998 0.0
C225 C 0.6679 0.66441 0.97856 0.0
C226 C 0.65438 0.66808 0.94141 0.0
C227 C 0.6559 0.65942 0.89749 0.0
H228 H 0.98879 0.66802 0.3352 0.0
H229 H 0.05919 0.67531 0.40141 0.0
H230 H 0.96822 0.66408 0.4104 0.0
H231 H 0.03864 0.67131 0.47624 0.0
H232 H 0.00034 0.67643 0.60686 0.0
H233 H 0.0208 0.69221 0.53128 0.0
H234 H 0.95192 0.6263 0.46766 0.0
H235 H 0.93145 0.61057 0.54289 0.0
C236 C 3e-05 0.66925 0.3658 0.0
C237 C 0.02542 0.6716 0.36258 0.0
C238 C 0.98825 0.66694 0.40871 0.0
C239 C 0.00181 0.66726 0.44897 0.0
C240 C 0.02784 0.67124 0.44575 0.0
C241 C 0.0395 0.6733 0.40292 0.0
C242 C 0.98942 0.66558 0.57665 0.0
C243 C 0.96448 0.64209 0.58067 0.0
C244 C 0.00114 0.67459 0.53352 0.0
C245 C 0.98795 0.66042 0.49379 0.0
C246 C 0.96239 0.63776 0.49771 0.0
C247 C 0.9508 0.62862 0.54079 0.0
H248 H 0.37209 0.0571 0.91524 0.0
H249 H 0.30778 0.98703 0.85126 0.0
H250 H 0.35575 0.03731 -0.00936 0.0
H251 H 0.29129 0.96725 0.92706 0.0
H252 H 0.31526 0.00057 0.12328 0.0
H253 H 0.31829 0.02044 0.04766 0.0
H254 H 0.31229 0.95052 0.98329 0.0
H255 H 0.30912 0.93066 0.05847 0.0
C256 C 0.35418 0.03766 0.91736 0.0
C257 C 0.34144 0.02341 0.87745 0.0
C258 C 0.34467 0.02644 0.96055 0.0
C259 C 0.32234 0.0007 0.96461 0.0
C260 C 0.30869 0.98705 0.92477 0.0
C261 C 0.31809 -0.00162 0.88149 0.0
C262 C 0.31408 0.98927 0.09291 0.0
C263 C 0.31236 0.96426 0.09665 0.0
C264 C 0.31586 0.00066 0.04974 0.0
C265 C 0.31566 0.98707 0.00972 0.0
C266 C 0.31223 0.96135 0.01352 0.0
C267 C 0.31068 0.95008 0.05659 0.0
H268 H 0.32484 0.38309 0.40482 0.0
H269 H 0.33017 0.31766 0.34496 0.0
H270 H 0.33047 0.36913 0.48113 0.0
H271 H 0.33587 0.30375 0.42156 0.0
H272 H 0.31987 0.32425 0.61417 0.0
H273 H 0.30688 0.33015 0.53708 0.0
H274 H 0.3738 0.32605 0.47998 0.0
H275 H 0.38687 0.32017 0.55693 0.0
C276 C 0.327 0.36561 0.40804 0.0
C277 C 0.32725 0.35155 0.36906 0.0
C278 C 0.33 0.35752 0.45168 0.0
C279 C 0.33357 0.33538 0.45703 0.0
C280 C 0.33326 0.32096 0.41816 0.0
C281 C 0.32994 0.32888 0.37449 0.0
C282 C 0.33159 0.32426 0.5851 0.0
C283 C 0.35452 0.32202 0.59146 0.0
C284 C 0.3242 0.32771 0.54112 0.0
C285 C 0.33943 0.32865 0.50283 0.0
C286 C 0.36162 0.32518 0.50899 0.0
C287 C 0.36919 0.32201 0.55299 0.0
H288 H 0.94209 0.61674 0.87152 0.0
H289 H 0.02365 0.67924 0.84731 0.0
H290 H 0.94944 0.62235 0.95378 0.0
H291 H 0.03073 0.68577 0.92985 0.0
H292 H 0.04392 0.66167 0.07358 0.0
H293 H 0.03644 0.66275 -0.00824 0.0
H294 H 0.9568 0.64892 0.01926 0.0
H295 H 0.96395 0.64663 0.10124 0.0
C296 C 0.96144 0.6321 0.88379 0.0
C297 C 0.98239 0.64735 0.85295 0.0
C298 C 0.96563 0.63545 0.93106 0.0
C299 C 0.99076 0.65439 0.94858 0.0
C300 C 0.0113 0.67058 0.91759 0.0
C301 C 0.00722 0.66696 0.87027 0.0
C302 C 0.02488 0.65905 0.06219 0.0
C303 C 0.00443 0.6538 0.09381 0.0
C304 C 0.02064 0.65989 0.0152 0.0
C305 C -0.00403 0.65586 -0.00123 0.0
C306 C 0.97586 0.6516 0.03062 0.0
C307 C 0.97998 0.6504 0.07762 0.0
H308 H 0.30035 0.94477 0.3787 0.0
H309 H 0.36453 0.02651 0.36647 0.0
H310 H 0.29882 0.95032 0.4613 0.0
H311 H 0.3638 0.03177 0.44914 0.0
H312 H 0.34704 0.04063 0.59575 0.0
H313 H 0.34024 0.03481 0.51313 0.0
H314 H 0.3252 0.95399 0.52612 0.0
H315 H 0.33089 0.95949 0.60884 0.0
C316 C 0.31411 0.96394 0.39367 0.0
C317 C 0.33268 0.98516 0.36613 0.0
C318 C 0.31333 0.96708 0.44105 0.0
C319 C 0.33133 0.99141 0.46202 0.0
C320 C 0.34937 0.01286 0.43419 0.0
C321 C 0.34992 0.00981 0.38674 0.0
C322 C 0.34198 0.02152 0.58096 0.0
C323 C 0.33968 0.00057 0.60873 0.0
C324 C 0.33823 0.01824 0.53357 0.0
C325 C 0.33244 -0.00597 0.51282 0.0
C326 C 0.32929 0.9728 0.5409 0.0
C327 C 0.3327 0.97598 0.58837 0.0
H328 H 0.32621 0.36111 0.85921 0.0
H329 H 0.33813 0.29322 0.86751 0.0
H330 H 0.31707 0.35768 0.94116 0.0
H331 H 0.32778 0.28896 0.94926 0.0
H332 H 0.35554 0.32161 0.09568 0.0
H333 H 0.35215 0.31393 0.01362 0.0
H334 H 0.29008 0.33492 0.00573 0.0
H335 H 0.2943 0.3437 0.08802 0.0
C336 C 0.32617 0.34501 0.87836 0.0
C337 C 0.33336 0.32774 0.85719 0.0
C338 C 0.32074 0.34289 0.92537 0.0
C339 C 0.32202 0.32323 0.952 0.0
C340 C 0.32726 0.30474 0.92999 0.0
C341 C 0.33309 0.3071 0.88313 0.0
C342 C 0.34086 0.32419 0.07663 0.0
C343 C 0.3255 0.33368 0.09822 0.0
C344 C 0.33874 0.31957 0.02948 0.0
C345 C 0.32098 0.32402 0.00288 0.0
C346 C 0.30435 0.33183 0.02504 0.0
C347 C 0.30668 0.33674 0.07222 0.0
H348 H 0.93727 0.31858 0.58628 0.0
H349 H 0.01705 0.33348 0.61514 0.0
H350 H 0.94465 0.31618 0.50487 0.0
H351 H 0.02407 0.32977 0.53359 0.0
H352 H 0.03993 0.36557 0.38749 0.0
H353 H 0.03207 0.35731 0.4692 0.0
H354 H 0.95103 0.29448 0.44214 0.0
H355 H 0.95861 0.30373 0.36008 0.0
C356 C 0.95618 0.3207 0.57529 0.0
C357 C 0.97674 0.32663 0.60698 0.0
C358 C 0.96037 0.31911 0.52853 0.0
C359 C 0.98508 0.32302 0.51249 0.0
C360 C 0.00503 0.32727 0.54463 0.0
C361 C 0.00098 0.32928 0.59137 0.0
C362 C 0.02053 0.34974 0.39889 0.0
C363 C -0.00024 0.33557 0.36742 0.0
C364 C 0.01606 0.34483 0.44587 0.0
C365 C 0.99081 0.32535 0.46243 0.0
C366 C 0.97053 0.31003 0.43065 0.0
C367 C 0.97489 0.31524 0.38363 0.0
H368 H 0.62093 0.9569 0.8588 0.0
H369 H 0.68667 0.03803 0.86685 0.0
H370 H 0.62346 0.95183 0.94117 0.0
H371 H 0.68999 0.03264 0.94917 0.0
H372 H 0.6569 0.02555 0.09632 0.0
H373 H 0.66406 0.03042 0.01383 0.0
H374 H 0.647 0.9488 0.00537 0.0
H375 H 0.63874 0.94363 0.08782 0.0
C376 C 0.63634 0.97345 0.87803 0.0
C377 C 0.65334 -0.00202 0.8565 0.0
C378 C 0.63793 0.9705 0.9253 0.0
C379 C 0.65679 0.99193 0.95195 0.0
C380 C 0.67485 0.01594 0.92984 0.0
C381 C 0.67303 0.01899 0.88264 0.0
C382 C 0.65504 0.00876 0.07695 0.0
C383 C 0.64688 0.9841 0.09842 0.0
C384 C 0.65933 0.01159 0.02961 0.0
C385 C 0.65588 0.98991 0.00282 0.0
C386 C 0.64926 0.96571 0.02482 0.0
C387 C 0.64464 0.96279 0.07209 0.0
H388 H 0.62328 0.68009 0.39192 0.0
H389 H 0.64646 0.61992 0.38134 0.0
H390 H 0.62938 0.68138 0.47486 0.0
H391 H 0.65159 0.62047 0.46421 0.0
H392 H 0.67858 0.64016 0.60973 0.0
H393 H 0.67813 0.64596 0.527 0.0
H394 H 0.60811 0.65441 0.54068 0.0
H395 H 0.60923 0.64964 0.62365 0.0
C396 C 0.62964 0.66711 0.40731 0.0
C397 C 0.63433 0.64985 0.38008 0.0
C398 C 0.63301 0.66776 0.45488 0.0
C399 C 0.64091 0.65099 0.47628 0.0
C400 C 0.64594 0.63401 0.44887 0.0
C401 C 0.64283 0.63355 0.40131 0.0
C402 C 0.66325 0.64353 0.59509 0.0
C403 C 0.64381 0.64425 0.62315 0.0
C404 C 0.66289 0.6467 0.54763 0.0
C405 C 0.64289 0.65032 0.52707 0.0
C406 C 0.62398 0.65194 0.55536 0.0
C407 C 0.62453 0.64908 0.60294 0.0
H408 H 0.98545 0.54686 0.22035 0.0
H409 H 0.06912 0.58926 0.25711 0.0
H410 H 0.98579 0.50508 0.22037 0.0
H411 H 0.06922 0.54722 0.26013 0.0
H412 H 0.06718 0.47044 0.21676 0.0
H413 H 0.06819 0.51303 0.21713 0.0
H414 H 0.98657 0.47332 0.26724 0.0
H415 H 0.98521 0.43072 0.26384 0.0
C416 C 0.00386 0.54715 0.22898 0.0
C417 C 0.02725 0.57127 0.2387 0.0
C418 C 0.00404 0.52314 0.22942 0.0
C419 C 0.02748 0.52256 0.2407 0.0
C420 C 0.0509 0.54681 0.25056 0.0
C421 C 0.05084 0.57093 0.2491 0.0
C422 C 0.04954 0.47095 0.228 0.0
C423 C 0.02606 0.44731 0.23992 0.0
C424 C 0.05012 0.49539 0.22847 0.0
C425 C 0.02738 0.49676 0.24185 0.0
C426 C 0.00423 0.47308 0.25543 0.0
C427 C 0.00348 0.44863 0.25391 0.0
H428 H 0.46744 0.06606 0.72321 0.0
H429 H 0.43031 0.98644 0.78077 0.0
H430 H 0.50978 0.0664 0.71675 0.0
H431 H 0.47265 0.98706 0.77516 0.0
H432 H 0.54144 0.984 0.70537 0.0
H433 H 0.50038 0.98553 0.71402 0.0
H434 H 0.54578 0.06675 0.76235 0.0
H435 H 0.58718 0.06547 0.75283 0.0
C436 C 0.46835 0.04874 0.73486 0.0
C437 C 0.44542 0.02614 0.75217 0.0
C438 C 0.49265 0.049 0.73136 0.0
C439 C 0.4945 0.02667 0.74511 0.0
C440 C 0.47174 0.00438 0.76347 0.0
C441 C 0.44749 0.00409 0.7669 0.0
C442 C 0.54276 0.00223 0.71782 0.0
C443 C 0.56764 0.0246 0.7285 0.0
C444 C 0.51916 0.00304 0.72306 0.0
C445 C 0.5198 0.02619 0.7392 0.0
C446 C 0.54466 0.04868 0.74951 0.0
C447 C 0.56836 0.04789 0.74424 0.0
H448 H 0.51239 0.5911 0.20376 0.0
H449 H 0.55278 0.54736 0.23676 0.0
H450 H 0.46993 0.54917 0.19848 0.0
H451 H 0.51053 0.50582 0.23422 0.0
H452 H 0.43719 0.4325 0.19072 0.0
H453 H 0.47811 0.47545 0.18548 0.0
H454 H 0.43651 0.51388 0.24141 0.0
H455 H 0.39512 0.47086 0.24372 0.0
C456 C 0.51212 0.57252 0.21023 0.0
C457 C 0.53588 0.57246 0.22038 0.0
C458 C 0.48778 0.54848 0.20745 0.0
C459 C 0.48669 0.52395 0.21559 0.0
C460 C 0.51055 0.52413 0.22639 0.0
C461 C 0.53484 0.54802 0.22825 0.0
C462 C 0.43679 0.4502 0.20144 0.0
C463 C 0.4131 0.44839 0.21794 0.0
C464 C 0.4603 0.47484 0.19883 0.0
C465 C 0.46088 0.49821 0.21386 0.0
C466 C 0.43687 0.49643 0.2291 0.0
C467 C 0.41314 0.47177 0.23068 0.0
H468 H -0.00177 0.55728 0.73539 0.0
H469 H 0.91491 0.51772 0.69653 0.0
H470 H -0.00366 0.51451 0.74016 0.0
H471 H 0.91325 0.47477 0.69851 0.0
H472 H 0.91284 0.39971 0.75035 0.0
H473 H 0.91304 0.4419 0.74554 0.0
H474 H -0.00529 0.48073 0.69584 0.0
H475 H -0.00515 0.43901 0.70347 0.0
C476 C 0.97956 0.53938 0.72732 0.0
C477 C 0.95674 0.54082 0.71549 0.0
C478 C 0.97849 0.5148 0.72966 0.0
C479 C 0.95471 0.49103 0.7192 0.0
C480 C 0.93182 0.49253 0.70742 0.0
C481 C 0.93277 0.51716 0.70602 0.0
C482 C 0.93075 0.41732 0.73828 0.0
C483 C 0.9539 0.41619 0.72769 0.0
C484 C 0.93087 0.44151 0.73527 0.0
C485 C 0.95399 0.46494 0.72071 0.0
C486 C 0.97678 0.46339 0.7085 0.0
C487 C 0.97683 0.4394 0.71248 0.0
H488 H 0.39587 0.92124 0.24677 0.0
H489 H 0.43828 0.00144 0.19149 0.0
H490 H 0.43775 0.92051 0.24973 0.0
H491 H 0.47987 0.00042 0.19355 0.0
H492 H 0.55268 0.00159 0.25599 0.0
H493 H 0.51034 0.00094 0.25127 0.0
H494 H 0.47198 0.92005 0.20069 0.0
H495 H 0.51439 0.92043 0.20632 0.0
C496 C 0.41405 0.93863 0.23494 0.0
C497 C 0.41373 0.96146 0.21917 0.0
C498 C 0.43802 0.93814 0.23641 0.0
C499 C 0.46214 0.96045 0.22211 0.0
C500 C 0.46171 0.98307 0.20557 0.0
C501 C 0.43781 0.98359 0.20417 0.0
C502 C 0.53527 0.98363 0.24383 0.0
C503 C 0.53697 0.96107 0.23147 0.0
C504 C 0.511 0.98333 0.24087 0.0
C505 C 0.48783 0.9605 0.22536 0.0
C506 C 0.48944 0.93786 0.21317 0.0
C507 C 0.51377 0.93814 0.21618 0.0
H508 H 0.59034 0.51801 0.74052 0.0
H509 H 0.54505 0.55123 0.8012 0.0
H510 H 0.5492 0.47499 0.73282 0.0
H511 H 0.50429 0.50832 0.79418 0.0
H512 H 0.43463 0.44137 0.71751 0.0
H513 H 0.47663 0.48244 0.72964 0.0
H514 H 0.51311 0.43717 0.7766 0.0
H515 H 0.47096 0.39571 0.76374 0.0
C516 C 0.57172 0.51608 0.75273 0.0
C517 C 0.57096 0.53815 0.77101 0.0
C518 C 0.54818 0.49141 0.74846 0.0
C519 C 0.52348 0.48839 0.76238 0.0
C520 C 0.52293 0.51018 0.78227 0.0
C521 C 0.54636 0.53476 0.78649 0.0
C522 C 0.45155 0.44006 0.73041 0.0
C523 C 0.44937 0.4152 0.73977 0.0
C524 C 0.47561 0.46366 0.73766 0.0
C525 C 0.49812 0.46305 0.75447 0.0
C526 C 0.49613 0.43824 0.76339 0.0
C527 C 0.47196 0.41453 0.7562 0.0
H528 H 0.15105 0.42721 0.25844 0.0
H529 H 0.11042 0.34381 0.22158 0.0
H530 H 0.19386 0.42804 0.25781 0.0
H531 H 0.15286 0.34488 0.21856 0.0
H532 H 0.22707 0.34513 0.2614 0.0
H533 H 0.18594 0.34664 0.26661 0.0
H534 H 0.22626 0.42641 0.20918 0.0
H535 H 0.26807 0.4253 0.20638 0.0
C536 C 0.15132 0.40913 0.25006 0.0
C537 C 0.12743 0.38539 0.24055 0.0
C538 C 0.17582 0.40963 0.24932 0.0
C539 C 0.17684 0.38647 0.23845 0.0
C540 C 0.15286 0.36291 0.22829 0.0
C541 C 0.12847 0.36232 0.22977 0.0
C542 C 0.22716 0.36299 0.24982 0.0
C543 C 0.25066 0.38501 0.23307 0.0
C544 C 0.20351 0.36383 0.25259 0.0
C545 C 0.20261 0.38651 0.23774 0.0
C546 C 0.22627 0.40871 0.22135 0.0
C547 C 0.25016 0.40803 0.21936 0.0
H548 H 0.82761 0.26993 0.71083 0.0
H549 H 0.86741 0.22977 0.76684 0.0
H550 H 0.78523 0.22751 0.71018 0.0
H551 H 0.82532 0.18806 0.76865 0.0
H552 H 0.75598 0.11278 0.71652 0.0
H553 H 0.79638 0.15599 0.71689 0.0
H554 H 0.75029 0.19316 0.75558 0.0
H555 H 0.70931 0.14958 0.75278 0.0
C556 C 0.8272 0.25208 0.72336 0.0
C557 C 0.85078 0.25298 0.73818 0.0
C558 C 0.80295 0.22785 0.72332 0.0
C559 C 0.8019 0.20426 0.73881 0.0
C560 C 0.82546 0.20559 0.75515 0.0
C561 C 0.84962 0.22957 0.75435 0.0
C562 C 0.75443 0.13014 0.72528 0.0
C563 C 0.72955 0.12781 0.735 0.0
C564 C 0.77766 0.15497 0.72575 0.0
C565 C 0.77671 0.17809 0.7369 0.0
C566 C 0.75173 0.1758 0.74647 0.0
C567 C 0.7283 0.15086 0.74522 0.0
H568 H 0.62448 0.75554 0.28858 0.0
H569 H 0.54876 0.71209 0.21787 0.0
H570 H 0.62266 0.79646 0.28077 0.0
H571 H 0.54715 0.75335 0.20967 0.0
H572 H 0.54781 0.8332 0.2443 0.0
H573 H 0.54471 0.7897 0.25422 0.0
H574 H 0.62721 0.824 0.21176 0.0
H575 H 0.63044 0.86725 0.20223 0.0
C576 C 0.60728 0.75466 0.27185 0.0
C577 C 0.58691 0.73068 0.2534 0.0
C578 C 0.60635 0.77813 0.2671 0.0
C579 C 0.58503 0.77812 0.24381 0.0
C580 C 0.56383 0.75388 0.2277 0.0
C581 C 0.56478 0.73031 0.23239 0.0
C582 C 0.56515 0.83132 0.23654 0.0
C583 C 0.58944 0.85366 0.22288 0.0
C584 C 0.56336 0.80646 0.24224 0.0
C585 C 0.58586 0.80367 0.23458 0.0
C586 C 0.60973 0.82575 0.21894 0.0
C587 C 0.6115 0.85047 0.21313 0.0
H588 H 0.83366 0.56267 0.7534 0.0
H589 H 0.87074 0.64117 0.69193 0.0
H590 H 0.79089 0.56185 0.75646 0.0
H591 H 0.82808 0.63982 0.69207 0.0
H592 H 0.75848 0.64507 0.74744 0.0
H593 H 0.79965 0.64371 0.74311 0.0
H594 H 0.7544 0.55903 0.71504 0.0
H595 H 0.71281 0.56028 0.72223 0.0
C596 C 0.83253 0.57959 0.74013 0.0
C597 C 0.85548 0.60214 0.72312 0.0
C598 C 0.80803 0.57908 0.74149 0.0
C599 C 0.80601 0.60091 0.72497 0.0
C600 C 0.82895 0.62299 0.70643 0.0
C601 C 0.85342 0.62373 0.70609 0.0
C602 C 0.7573 0.62618 0.74008 0.0
C603 C 0.73248 0.60281 0.73492 0.0
C604 C 0.78097 0.62539 0.7373 0.0
C605 C 0.78049 0.60129 0.72822 0.0
C606 C 0.75556 0.57787 0.72264 0.0
C607 C 0.73175 0.57859 0.72636 0.0
H608 H 0.22792 0.86764 0.26849 0.0
H609 H 0.27574 0.8353 0.21549 0.0
H610 H 0.18785 0.82414 0.261 0.0
H611 H 0.23532 0.7916 0.20754 0.0
H612 H 0.15535 0.71249 0.24552 0.0
H613 H 0.19812 0.75409 0.2531 0.0
H614 H 0.16283 0.79762 0.19303 0.0
H615 H 0.12025 0.7564 0.18592 0.0
C616 C 0.22991 0.85118 0.25563 0.0
C617 C 0.25493 0.85493 0.24219 0.0
C618 C 0.20693 0.82632 0.25101 0.0
C619 C 0.20845 0.80467 0.23286 0.0
C620 C 0.23361 0.808 0.22155 0.0
C621 C 0.2567 0.83298 0.2261 0.0
C622 C 0.15689 0.73092 0.23333 0.0
C623 C 0.1344 0.73126 0.21558 0.0
C624 C 0.18134 0.75467 0.23768 0.0
C625 C 0.18359 0.77908 0.22446 0.0
C626 C 0.16147 0.77915 0.20452 0.0
C627 C 0.13714 0.75551 0.20012 0.0
H628 H 0.35181 0.22877 0.76827 0.0
H629 H 0.43384 0.27354 0.7213 0.0
H630 H 0.35348 0.1877 0.76379 0.0
H631 H 0.43533 0.23213 0.71609 0.0
H632 H 0.43099 0.15173 0.75833 0.0
H633 H 0.43332 0.19503 0.76292 0.0
H634 H 0.35526 0.16105 0.70007 0.0
H635 H 0.35269 0.11787 0.69621 0.0
C636 C 0.37027 0.22986 0.75726 0.0
C637 C 0.39262 0.25434 0.74479 0.0
C638 C 0.37115 0.20631 0.75434 0.0
C639 C 0.39437 0.20668 0.73876 0.0
C640 C 0.41716 0.23127 0.72819 0.0
C641 C 0.41629 0.25494 0.73116 0.0
C642 C 0.4145 0.15365 0.74498 0.0
C643 C 0.39154 0.13138 0.72733 0.0
C644 C 0.41586 0.17841 0.74758 0.0
C645 C 0.39427 0.18126 0.73259 0.0
C646 C 0.37192 0.15927 0.71292 0.0
C647 C 0.37055 0.1346 0.71038 0.0
loop_
_geom_bond_atom_site_label_1
_geom_bond_atom_site_label_2
_geom_bond_distance
_geom_bond_site_symmetry_2
_ccdc_geom_bond_type
C0 O1 1.306 . S
C0 O3 1.160 . S
O1 C0 1.306 . S
O1 Cd2 2.228 1_455 S
Cd2 O1 2.228 1_655 S
Cd2 O6 2.273 1_655 S
Cd2 O10 2.277 1_655 S
O3 C0 1.160 . S
O3 Cd4 2.203 . S
Cd4 O3 2.203 . S
Cd4 O6 2.411 . S
Cd4 O7 2.333 . S
Cd4 O8 2.352 . S
Cd4 O12 2.277 . S
Cd4 O13 2.356 . S
C5 O10 1.209 . S
C5 O12 1.226 . S
O6 Cd2 2.273 1_455 S
O6 Cd4 2.411 . S
O6 C9 1.320 . S
O7 Cd4 2.333 . S
O7 C9 1.214 . S
O8 Cd4 2.352 . S
O8 C11 1.258 . S
C9 O6 1.320 . S
C9 O7 1.214 . S
O10 Cd2 2.277 1_455 S
O10 C5 1.209 . S
C11 O8 1.258 . S
C11 O13 1.282 . S
O12 Cd4 2.277 . S
O12 C5 1.226 . S
O13 Cd4 2.356 . S
O13 C11 1.282 . S
C14 O15 1.306 . S
C14 O17 1.160 . S
O15 C14 1.306 . S
O15 Cd16 2.228 1_545 S
Cd16 O15 2.228 1_565 S
Cd16 O20 2.273 1_565 S
Cd16 O24 2.277 1_565 S
O17 C14 1.160 . S
O17 Cd18 2.203 . S
Cd18 O17 2.203 . S
Cd18 O20 2.411 . S
Cd18 O21 2.333 . S
Cd18 O22 2.352 . S
Cd18 O26 2.277 . S
Cd18 O27 2.356 . S
C19 O24 1.209 . S
C19 O26 1.226 . S
O20 Cd16 2.273 1_545 S
O20 Cd18 2.411 . S
O20 C23 1.320 . S
O21 Cd18 2.333 . S
O21 C23 1.214 . S
O22 Cd18 2.352 . S
O22 C25 1.258 . S
C23 O20 1.320 . S
C23 O21 1.214 . S
O24 Cd16 2.277 1_545 S
O24 C19 1.209 . S
C25 O22 1.258 . S
C25 O27 1.282 . S
O26 Cd18 2.277 . S
O26 C19 1.226 . S
O27 Cd18 2.356 . S
O27 C25 1.282 . S
C28 O29 1.306 . S
C28 O31 1.160 . S
O29 C28 1.306 . S
O29 Cd30 2.228 . S
Cd30 O29 2.228 . S
Cd30 O34 2.273 . S
Cd30 O38 2.277 . S
O31 C28 1.160 . S
O31 Cd32 2.203 . S
Cd32 O31 2.203 . S
Cd32 O34 2.411 . S
Cd32 O35 2.333 . S
Cd32 O36 2.352 . S
Cd32 O40 2.277 . S
Cd32 O41 2.356 . S
C33 O38 1.209 . S
C33 O40 1.226 . S
O34 Cd30 2.273 . S
O34 Cd32 2.411 . S
O34 C37 1.320 . S
O35 Cd32 2.333 . S
O35 C37 1.214 . S
O36 Cd32 2.352 . S
O36 C39 1.258 . S
C37 O34 1.320 . S
C37 O35 1.214 . S
O38 Cd30 2.277 . S
O38 C33 1.209 . S
C39 O36 1.258 . S
C39 O41 1.282 . S
O40 Cd32 2.277 . S
O40 C33 1.226 . S
O41 Cd32 2.356 . S
O41 C39 1.282 . S
C42 O43 1.306 . S
C42 O45 1.160 . S
O43 C42 1.306 . S
O43 Cd44 2.228 1_655 S
Cd44 O43 2.228 1_455 S
Cd44 O48 2.273 1_455 S
Cd44 O52 2.277 1_455 S
O45 C42 1.160 . S
O45 Cd46 2.203 . S
Cd46 O45 2.203 . S
Cd46 O48 2.411 . S
Cd46 O49 2.333 . S
Cd46 O50 2.352 . S
Cd46 O54 2.277 . S
Cd46 O55 2.356 . S
C47 O52 1.209 . S
C47 O54 1.226 . S
O48 Cd44 2.273 1_655 S
O48 Cd46 2.411 . S
O48 C51 1.320 . S
O49 Cd46 2.333 . S
O49 C51 1.214 . S
O50 Cd46 2.352 . S
O50 C53 1.258 . S
C51 O48 1.320 . S
C51 O49 1.214 . S
O52 Cd44 2.277 1_655 S
O52 C47 1.209 . S
C53 O50 1.258 . S
C53 O55 1.282 . S
O54 Cd46 2.277 . S
O54 C47 1.226 . S
O55 Cd46 2.356 . S
O55 C53 1.282 . S
C56 O57 1.306 . S
C56 O59 1.160 . S
O57 C56 1.306 . S
O57 Cd58 2.228 1_565 S
Cd58 O57 2.228 1_545 S
Cd58 O62 2.273 1_545 S
Cd58 O66 2.277 1_545 S
O59 C56 1.160 . S
O59 Cd60 2.203 . S
Cd60 O59 2.203 . S
Cd60 O62 2.411 . S
Cd60 O63 2.333 . S
Cd60 O64 2.352 . S
Cd60 O68 2.277 . S
Cd60 O69 2.356 . S
C61 O66 1.209 . S
C61 O68 1.226 . S
O62 Cd58 2.273 1_565 S
O62 Cd60 2.411 . S
O62 C65 1.320 . S
O63 Cd60 2.333 . S
O63 C65 1.214 . S
O64 Cd60 2.352 . S
O64 C67 1.258 . S
C65 O62 1.320 . S
C65 O63 1.214 . S
O66 Cd58 2.277 1_565 S
O66 C61 1.209 . S
C67 O64 1.258 . S
C67 O69 1.282 . S
O68 Cd60 2.277 . S
O68 C61 1.226 . S
O69 Cd60 2.356 . S
O69 C67 1.282 . S
C70 O71 1.306 . S
C70 O73 1.160 . S
O71 C70 1.306 . S
O71 Cd72 2.228 . S
Cd72 O71 2.228 . S
Cd72 O76 2.273 . S
Cd72 O80 2.277 . S
O73 C70 1.160 . S
O73 Cd74 2.203 . S
Cd74 O73 2.203 . S
Cd74 O76 2.411 . S
Cd74 O77 2.333 . S
Cd74 O78 2.352 . S
Cd74 O82 2.277 . S
Cd74 O83 2.356 . S
C75 O80 1.209 . S
C75 O82 1.226 . S
O76 Cd72 2.273 . S
O76 Cd74 2.411 . S
O76 C79 1.320 . S
O77 Cd74 2.333 . S
O77 C79 1.214 . S
O78 Cd74 2.352 . S
O78 C81 1.258 . S
C79 O76 1.320 . S
C79 O77 1.214 . S
O80 Cd72 2.277 . S
O80 C75 1.209 . S
C81 O78 1.258 . S
C81 O83 1.282 . S
O82 Cd74 2.277 . S
O82 C75 1.226 . S
O83 Cd74 2.356 . S
O83 C81 1.282 . S
C84 O85 1.306 . S
C84 O87 1.160 . S
O85 C84 1.306 . S
O85 Cd86 2.228 1_565 S
Cd86 O85 2.228 1_545 S
Cd86 O90 2.273 1_545 S
Cd86 O94 2.277 1_545 S
O87 C84 1.160 . S
O87 Cd88 2.203 . S
Cd88 O87 2.203 . S
Cd88 O90 2.411 . S
Cd88 O91 2.333 . S
Cd88 O92 2.352 . S
Cd88 O96 2.277 . S
Cd88 O97 2.356 . S
C89 O94 1.209 . S
C89 O96 1.226 . S
O90 Cd86 2.273 1_565 S
O90 Cd88 2.411 . S
O90 C93 1.320 . S
O91 Cd88 2.333 . S
O91 C93 1.214 . S
O92 Cd88 2.352 . S
O92 C95 1.258 . S
C93 O90 1.320 . S
C93 O91 1.214 . S
O94 Cd86 2.277 1_565 S
O94 C89 1.209 . S
C95 O92 1.258 . S
C95 O97 1.282 . S
O96 Cd88 2.277 . S
O96 C89 1.226 . S
O97 Cd88 2.356 . S
O97 C95 1.282 . S
C98 O99 1.306 . S
C98 O101 1.160 . S
O99 C98 1.306 . S
O99 Cd100 2.228 . S
Cd100 O99 2.228 . S
Cd100 O104 2.273 . S
Cd100 O108 2.277 . S
O101 C98 1.160 . S
O101 Cd102 2.203 . S
Cd102 O101 2.203 . S
Cd102 O104 2.411 . S
Cd102 O105 2.333 . S
Cd102 O106 2.352 . S
Cd102 O110 2.277 . S
Cd102 O111 2.356 . S
C103 O108 1.209 . S
C103 O110 1.226 . S
O104 Cd100 2.273 . S
O104 Cd102 2.411 . S
O104 C107 1.320 . S
O105 Cd102 2.333 . S
O105 C107 1.214 . S
O106 Cd102 2.352 . S
O106 C109 1.258 . S
C107 O104 1.320 . S
C107 O105 1.214 . S
O108 Cd100 2.277 . S
O108 C103 1.209 . S
C109 O106 1.258 . S
C109 O111 1.282 . S
O110 Cd102 2.277 . S
O110 C103 1.226 . S
O111 Cd102 2.356 . S
O111 C109 1.282 . S
C112 O113 1.306 . S
C112 O115 1.160 . S
O113 C112 1.306 . S
O113 Cd114 2.228 1_455 S
Cd114 O113 2.228 1_655 S
Cd114 O118 2.273 1_655 S
Cd114 O122 2.277 1_655 S
O115 C112 1.160 . S
O115 Cd116 2.203 . S
Cd116 O115 2.203 . S
Cd116 O118 2.411 . S
Cd116 O119 2.333 . S
Cd116 O120 2.352 . S
Cd116 O124 2.277 . S
Cd116 O125 2.356 . S
C117 O122 1.209 . S
C117 O124 1.226 . S
O118 Cd114 2.273 1_455 S
O118 Cd116 2.411 . S
O118 C121 1.320 . S
O119 Cd116 2.333 . S
O119 C121 1.214 . S
O120 Cd116 2.352 . S
O120 C123 1.258 . S
C121 O118 1.320 . S
C121 O119 1.214 . S
O122 Cd114 2.277 1_455 S
O122 C117 1.209 . S
C123 O120 1.258 . S
C123 O125 1.282 . S
O124 Cd116 2.277 . S
O124 C117 1.226 . S
O125 Cd116 2.356 . S
O125 C123 1.282 . S
C126 O127 1.306 . S
C126 O129 1.160 . S
O127 C126 1.306 . S
O127 Cd128 2.228 1_545 S
Cd128 O127 2.228 1_565 S
Cd128 O132 2.273 1_565 S
Cd128 O136 2.277 1_565 S
O129 C126 1.160 . S
O129 Cd130 2.203 . S
Cd130 O129 2.203 . S
Cd130 O132 2.411 . S
Cd130 O133 2.333 . S
Cd130 O134 2.352 . S
Cd130 O138 2.277 . S
Cd130 O139 2.356 . S
C131 O136 1.209 . S
C131 O138 1.226 . S
O132 Cd128 2.273 1_545 S
O132 Cd130 2.411 . S
O132 C135 1.320 . S
O133 Cd130 2.333 . S
O133 C135 1.214 . S
O134 Cd130 2.352 . S
O134 C137 1.258 . S
C135 O132 1.320 . S
C135 O133 1.214 . S
O136 Cd128 2.277 1_545 S
O136 C131 1.209 . S
C137 O134 1.258 . S
C137 O139 1.282 . S
O138 Cd130 2.277 . S
O138 C131 1.226 . S
O139 Cd130 2.356 . S
O139 C137 1.282 . S
C140 O141 1.306 . S
C140 O143 1.160 . S
O141 C140 1.306 . S
O141 Cd142 2.228 . S
Cd142 O141 2.228 . S
Cd142 O146 2.273 . S
Cd142 O150 2.277 . S
O143 C140 1.160 . S
O143 Cd144 2.203 . S
Cd144 O143 2.203 . S
Cd144 O146 2.411 . S
Cd144 O147 2.333 . S
Cd144 O148 2.352 . S
Cd144 O152 2.277 . S
Cd144 O153 2.356 . S
C145 O150 1.209 . S
C145 O152 1.226 . S
O146 Cd142 2.273 . S
O146 Cd144 2.411 . S
O146 C149 1.320 . S
O147 Cd144 2.333 . S
O147 C149 1.214 . S
O148 Cd144 2.352 . S
O148 C151 1.258 . S
C149 O146 1.320 . S
C149 O147 1.214 . S
O150 Cd142 2.277 . S
O150 C145 1.209 . S
C151 O148 1.258 . S
C151 O153 1.282 . S
O152 Cd144 2.277 . S
O152 C145 1.226 . S
O153 Cd144 2.356 . S
O153 C151 1.282 . S
C154 O155 1.306 . S
C154 O157 1.160 . S
O155 C154 1.306 . S
O155 Cd156 2.228 1_655 S
Cd156 O155 2.228 1_455 S
Cd156 O160 2.273 1_455 S
Cd156 O164 2.277 1_455 S
O157 C154 1.160 . S
O157 Cd158 2.203 . S
Cd158 O157 2.203 . S
Cd158 O160 2.411 . S
Cd158 O161 2.333 . S
Cd158 O162 2.352 . S
Cd158 O166 2.277 . S
Cd158 O167 2.356 . S
C159 O164 1.209 . S
C159 O166 1.226 . S
O160 Cd156 2.273 1_655 S
O160 Cd158 2.411 . S
O160 C163 1.320 . S
O161 Cd158 2.333 . S
O161 C163 1.214 . S
O162 Cd158 2.352 . S
O162 C165 1.258 . S
C163 O160 1.320 . S
C163 O161 1.214 . S
O164 Cd156 2.277 1_655 S
O164 C159 1.209 . S
C165 O162 1.258 . S
C165 O167 1.282 . S
O166 Cd158 2.277 . S
O166 C159 1.226 . S
O167 Cd158 2.356 . S
O167 C165 1.282 . S
H168 C176 0.950 . S
H169 C181 0.950 . S
H170 C178 0.950 . S
H171 C180 0.950 . S
H172 C182 0.950 . S
H173 C184 0.950 . S
H174 C186 0.950 . S
H175 C187 0.950 . S
C176 H168 0.950 . S
C176 C177 1.386 . S
C176 C178 1.391 . S
C177 C176 1.386 . S
C177 C181 1.393 1_455 S
C178 H170 0.950 . S
C178 C176 1.391 . S
C178 C179 1.400 . S
C179 C178 1.400 . S
C179 C180 1.398 1_455 S
C179 C185 1.491 1_454 S
C180 H171 0.950 . S
C180 C179 1.398 1_655 S
C180 C181 1.391 . S
C181 H169 0.950 . S
C181 C177 1.393 1_655 S
C181 C180 1.391 . S
C182 H172 0.950 . S
C182 C183 1.386 . S
C182 C184 1.391 . S
C183 C182 1.386 . S
C183 C187 1.393 1_655 S
C184 H173 0.950 . S
C184 C182 1.391 . S
C184 C185 1.400 . S
C185 C179 1.491 1_656 S
C185 C184 1.400 . S
C185 C186 1.398 1_655 S
C186 H174 0.950 . S
C186 C185 1.398 1_455 S
C186 C187 1.391 . S
C187 H175 0.950 . S
C187 C183 1.393 1_455 S
C187 C186 1.391 . S
H188 C196 0.950 1_545 S
H189 C201 0.950 . S
H190 C198 0.950 . S
H191 C200 0.950 . S
H192 C202 0.950 1_565 S
H193 C204 0.950 . S
H194 C206 0.950 . S
H195 C207 0.950 . S
C196 H188 0.950 1_565 S
C196 C197 1.386 . S
C196 C198 1.391 1_565 S
C197 C196 1.386 . S
C197 C201 1.393 . S
C198 H190 0.950 . S
C198 C196 1.391 1_545 S
C198 C199 1.400 1_545 S
C199 C198 1.400 1_565 S
C199 C200 1.398 . S
C199 C205 1.491 1_565 S
C200 H191 0.950 . S
C200 C199 1.398 . S
C200 C201 1.391 . S
C201 H189 0.950 . S
C201 C197 1.393 . S
C201 C200 1.391 . S
C202 H192 0.950 1_545 S
C202 C203 1.386 . S
C202 C204 1.391 1_545 S
C203 C202 1.386 . S
C203 C207 1.393 . S
C204 H193 0.950 . S
C204 C202 1.391 1_565 S
C204 C205 1.400 1_565 S
C205 C199 1.491 1_545 S
C205 C204 1.400 1_545 S
C205 C206 1.398 . S
C206 H194 0.950 . S
C206 C205 1.398 . S
C206 C207 1.391 . S
C207 H195 0.950 . S
C207 C203 1.393 . S
C207 C206 1.391 . S
H208 C216 0.950 . S
H209 C221 0.950 . S
H210 C218 0.950 . S
H211 C220 0.950 . S
H212 C222 0.950 . S
H213 C224 0.950 . S
H214 C226 0.950 . S
H215 C227 0.950 . S
C216 H208 0.950 . S
C216 C217 1.386 . S
C216 C218 1.391 . S
C217 C216 1.386 . S
C217 C221 1.393 . S
C218 H210 0.950 . S
C218 C216 1.391 . S
C218 C219 1.400 . S
C219 C218 1.400 . S
C219 C220 1.398 . S
C219 C225 1.491 1_554 S
C220 H211 0.950 . S
C220 C219 1.398 . S
C220 C221 1.391 . S
C221 H209 0.950 . S
C221 C217 1.393 . S
C221 C220 1.391 . S
C222 H212 0.950 . S
C222 C223 1.386 . S
C222 C224 1.391 . S
C223 C222 1.386 . S
C223 C227 1.393 . S
C224 H213 0.950 . S
C224 C222 1.391 . S
C224 C225 1.400 . S
C225 C219 1.491 1_556 S
C225 C224 1.400 . S
C225 C226 1.398 . S
C226 H214 0.950 . S
C226 C225 1.398 . S
C226 C227 1.391 . S
C227 H215 0.950 . S
C227 C223 1.393 . S
C227 C226 1.391 . S
H228 C236 0.950 . S
H229 C241 0.950 . S
H230 C238 0.950 . S
H231 C240 0.950 . S
H232 C242 0.950 . S
H233 C244 0.950 . S
H234 C246 0.950 . S
H235 C247 0.950 . S
C236 H228 0.950 . S
C236 C237 1.386 1_655 S
C236 C238 1.391 . S
C237 C236 1.386 1_455 S
C237 C241 1.393 . S
C238 H230 0.950 . S
C238 C236 1.391 . S
C238 C239 1.400 1_655 S
C239 C238 1.400 1_455 S
C239 C240 1.398 . S
C239 C245 1.491 1_455 S
C240 H231 0.950 . S
C240 C239 1.398 . S
C240 C241 1.391 . S
C241 H229 0.950 . S
C241 C237 1.393 . S
C241 C240 1.391 . S
C242 H232 0.950 . S
C242 C243 1.386 1_455 S
C242 C244 1.391 . S
C243 C242 1.386 1_655 S
C243 C247 1.393 . S
C244 H233 0.950 . S
C244 C242 1.391 . S
C244 C245 1.400 1_455 S
C245 C239 1.491 1_655 S
C245 C244 1.400 1_655 S
C245 C246 1.398 . S
C246 H234 0.950 . S
C246 C245 1.398 . S
C246 C247 1.391 . S
C247 H235 0.950 . S
C247 C243 1.393 . S
C247 C246 1.391 . S
H248 C256 0.950 . S
H249 C261 0.950 . S
H250 C258 0.950 . S
H251 C260 0.951 . S
H252 C262 0.950 . S
H253 C264 0.950 . S
H254 C266 0.951 . S
H255 C267 0.950 . S
C256 H248 0.950 . S
C256 C257 1.386 . S
C256 C258 1.391 . S
C257 C256 1.386 . S
C257 C261 1.393 . S
C258 H250 0.950 . S
C258 C256 1.391 . S
C258 C259 1.400 . S
C259 C258 1.400 . S
C259 C260 1.406 1_545 S
C259 C265 1.491 1_546 S
C260 H251 0.951 . S
C260 C259 1.406 1_565 S
C260 C261 1.384 1_565 S
C261 H249 0.950 . S
C261 C257 1.393 . S
C261 C260 1.384 1_545 S
C262 H252 0.950 . S
C262 C263 1.386 . S
C262 C264 1.391 . S
C263 C262 1.386 . S
C263 C267 1.393 . S
C264 H253 0.950 . S
C264 C262 1.391 . S
C264 C265 1.400 . S
C265 C259 1.491 1_564 S
C265 C264 1.400 . S
C265 C266 1.406 1_565 S
C266 H254 0.951 . S
C266 C265 1.406 1_545 S
C266 C267 1.383 1_545 S
C267 H255 0.950 . S
C267 C263 1.393 . S
C267 C266 1.383 1_565 S
H268 C276 0.950 . S
H269 C281 0.950 . S
H270 C278 0.950 . S
H271 C280 0.950 . S
H272 C282 0.950 . S
H273 C284 0.950 . S
H274 C286 0.950 . S
H275 C287 0.950 . S
C276 H268 0.950 . S
C276 C277 1.386 . S
C276 C278 1.391 . S
C277 C276 1.386 . S
C277 C281 1.393 . S
C278 H270 0.950 . S
C278 C276 1.391 . S
C278 C279 1.400 . S
C279 C278 1.400 . S
C279 C280 1.398 . S
C279 C285 1.491 . S
C280 H271 0.950 . S
C280 C279 1.398 . S
C280 C281 1.391 . S
C281 H269 0.950 . S
C281 C277 1.393 . S
C281 C280 1.391 . S
C282 H272 0.950 . S
C282 C283 1.386 . S
C282 C284 1.391 . S
C283 C282 1.386 . S
C283 C287 1.393 . S
C284 H273 0.950 . S
C284 C282 1.391 . S
C284 C285 1.400 . S
C285 C279 1.491 . S
C285 C284 1.400 . S
C285 C286 1.398 . S
C286 H274 0.950 . S
C286 C285 1.398 . S
C286 C287 1.391 . S
C287 H275 0.950 . S
C287 C283 1.393 . S
C287 C286 1.391 . S
H288 C296 0.950 . S
H289 C301 0.950 . S
H290 C298 0.950 . S
H291 C300 0.950 . S
H292 C302 0.950 . S
H293 C304 0.950 . S
H294 C306 0.950 . S
H295 C307 0.950 . S
C296 H288 0.950 . S
C296 C297 1.386 . S
C296 C298 1.391 . S
C297 C296 1.386 . S
C297 C301 1.393 1_655 S
C298 H290 0.950 . S
C298 C296 1.391 . S
C298 C299 1.400 . S
C299 C298 1.400 . S
C299 C300 1.398 1_655 S
C299 C305 1.491 1_656 S
C300 H291 0.950 . S
C300 C299 1.398 1_455 S
C300 C301 1.391 . S
C301 H289 0.950 . S
C301 C297 1.393 1_455 S
C301 C300 1.391 . S
C302 H292 0.950 . S
C302 C303 1.386 . S
C302 C304 1.391 . S
C303 C302 1.386 . S
C303 C307 1.393 1_455 S
C304 H293 0.950 . S
C304 C302 1.391 . S
C304 C305 1.400 . S
C305 C299 1.491 1_454 S
C305 C304 1.400 . S
C305 C306 1.398 1_455 S
C306 H294 0.950 . S
C306 C305 1.398 1_655 S
C306 C307 1.391 . S
C307 H295 0.950 . S
C307 C303 1.393 1_655 S
C307 C306 1.391 . S
H308 C316 0.950 . S
H309 C321 0.950 . S
H310 C318 0.950 . S
H311 C320 0.964 . S
H312 C322 0.950 . S
H313 C324 0.950 . S
H314 C326 0.964 . S
H315 C327 0.950 . S
C316 H308 0.950 . S
C316 C317 1.386 . S
C316 C318 1.391 . S
C317 C316 1.386 . S
C317 C321 1.393 . S
C318 H310 0.950 . S
C318 C316 1.391 . S
C318 C319 1.400 . S
C319 C318 1.400 . S
C319 C320 1.389 1_565 S
C319 C325 1.491 1_565 S
C320 H311 0.964 . S
C320 C319 1.389 1_545 S
C320 C321 1.386 1_545 S
C321 H309 0.950 . S
C321 C317 1.393 . S
C321 C320 1.386 1_565 S
C322 H312 0.950 . S
C322 C323 1.386 . S
C322 C324 1.391 . S
C323 C322 1.386 . S
C323 C327 1.393 . S
C324 H313 0.950 . S
C324 C322 1.391 . S
C324 C325 1.400 . S
C325 C319 1.491 1_545 S
C325 C324 1.400 . S
C325 C326 1.389 1_545 S
C326 H314 0.964 . S
C326 C325 1.389 1_565 S
C326 C327 1.387 1_565 S
C327 H315 0.950 . S
C327 C323 1.393 . S
C327 C326 1.387 1_545 S
H328 C336 0.950 . S
H329 C341 0.950 . S
H330 C338 0.950 . S
H331 C340 0.950 . S
H332 C342 0.950 . S
H333 C344 0.950 . S
H334 C346 0.950 . S
H335 C347 0.950 . S
C336 H328 0.950 . S
C336 C337 1.386 . S
C336 C338 1.391 . S
C337 C336 1.386 . S
C337 C341 1.393 . S
C338 H330 0.950 . S
C338 C336 1.391 . S
C338 C339 1.400 . S
C339 C338 1.400 . S
C339 C340 1.398 . S
C339 C345 1.491 1_556 S
C340 H331 0.950 . S
C340 C339 1.398 . S
C340 C341 1.391 . S
C341 H329 0.950 . S
C341 C337 1.393 . S
C341 C340 1.391 . S
C342 H332 0.950 . S
C342 C343 1.386 . S
C342 C344 1.391 . S
C343 C342 1.386 . S
C343 C347 1.393 . S
C344 H333 0.950 . S
C344 C342 1.391 . S
C344 C345 1.400 . S
C345 C339 1.491 1_554 S
C345 C344 1.400 . S
C345 C346 1.398 . S
C346 H334 0.950 . S
C346 C345 1.398 . S
C346 C347 1.391 . S
C347 H335 0.950 . S
C347 C343 1.393 . S
C347 C346 1.391 . S
H348 C356 0.950 . S
H349 C361 0.950 . S
H350 C358 0.950 . S
H351 C360 0.950 . S
H352 C362 0.950 . S
H353 C364 0.950 . S
H354 C366 0.950 . S
H355 C367 0.950 . S
C356 H348 0.950 . S
C356 C357 1.386 . S
C356 C358 1.391 . S
C357 C356 1.386 . S
C357 C361 1.393 1_655 S
C358 H350 0.950 . S
C358 C356 1.391 . S
C358 C359 1.400 . S
C359 C358 1.400 . S
C359 C360 1.398 1_655 S
C359 C365 1.491 1_655 S
C360 H351 0.950 . S
C360 C359 1.398 1_455 S
C360 C361 1.391 . S
C361 H349 0.950 . S
C361 C357 1.393 1_455 S
C361 C360 1.391 . S
C362 H352 0.950 . S
C362 C363 1.386 . S
C362 C364 1.391 . S
C363 C362 1.386 . S
C363 C367 1.393 1_455 S
C364 H353 0.950 . S
C364 C362 1.391 . S
C364 C365 1.400 . S
C365 C359 1.491 1_455 S
C365 C364 1.400 . S
C365 C366 1.398 1_455 S
C366 H354 0.950 . S
C366 C365 1.398 1_655 S
C366 C367 1.391 . S
C367 H355 0.950 . S
C367 C363 1.393 1_655 S
C367 C366 1.391 . S
H368 C376 0.950 . S
H369 C381 0.950 . S
H370 C378 0.950 . S
H371 C380 0.950 . S
H372 C382 0.950 . S
H373 C384 0.950 . S
H374 C386 0.950 . S
H375 C387 0.950 . S
C376 H368 0.950 . S
C376 C377 1.386 1_565 S
C376 C378 1.391 . S
C377 C376 1.386 1_545 S
C377 C381 1.393 . S
C378 H370 0.950 . S
C378 C376 1.391 . S
C378 C379 1.400 1_565 S
C379 C378 1.400 1_545 S
C379 C380 1.398 . S
C379 C385 1.491 1_546 S
C380 H371 0.950 . S
C380 C379 1.398 . S
C380 C381 1.391 . S
C381 H369 0.950 . S
C381 C377 1.393 . S
C381 C380 1.391 . S
C382 H372 0.950 . S
C382 C383 1.386 1_545 S
C382 C384 1.391 . S
C383 C382 1.386 1_565 S
C383 C387 1.393 . S
C384 H373 0.950 . S
C384 C382 1.391 . S
C384 C385 1.400 1_545 S
C385 C379 1.491 1_564 S
C385 C384 1.400 1_565 S
C385 C386 1.398 . S
C386 H374 0.950 . S
C386 C385 1.398 . S
C386 C387 1.391 . S
C387 H375 0.950 . S
C387 C383 1.393 . S
C387 C386 1.391 . S
H388 C396 0.950 . S
H389 C401 0.950 . S
H390 C398 0.950 . S
H391 C400 0.950 . S
H392 C402 0.950 . S
H393 C404 0.950 . S
H394 C406 0.950 . S
H395 C407 0.950 . S
C396 H388 0.950 . S
C396 C397 1.386 . S
C396 C398 1.391 . S
C397 C396 1.386 . S
C397 C401 1.393 . S
C398 H390 0.950 . S
C398 C396 1.391 . S
C398 C399 1.400 . S
C399 C398 1.400 . S
C399 C400 1.398 . S
C399 C405 1.491 . S
C400 H391 0.950 . S
C400 C399 1.398 . S
C400 C401 1.391 . S
C401 H389 0.950 . S
C401 C397 1.393 . S
C401 C400 1.391 . S
C402 H392 0.950 . S
C402 C403 1.386 . S
C402 C404 1.391 . S
C403 C402 1.386 . S
C403 C407 1.393 . S
C404 H393 0.950 . S
C404 C402 1.391 . S
C404 C405 1.400 . S
C405 C399 1.491 . S
C405 C404 1.400 . S
C405 C406 1.398 . S
C406 H394 0.950 . S
C406 C405 1.398 . S
C406 C407 1.391 . S
C407 H395 0.950 . S
C407 C403 1.393 . S
C407 C406 1.391 . S
H408 C416 0.950 . S
H409 C421 0.950 . S
H410 C418 0.950 . S
H411 C420 0.950 . S
H412 C422 0.950 . S
H413 C424 0.950 . S
H414 C426 0.950 . S
H415 C427 0.950 . S
C416 H408 0.950 . S
C416 C417 1.386 . S
C416 C418 1.391 . S
C417 C416 1.386 . S
C417 C421 1.393 . S
C418 H410 0.950 . S
C418 C416 1.391 . S
C418 C419 1.400 . S
C419 C418 1.400 . S
C419 C420 1.398 . S
C419 C425 1.491 . S
C420 H411 0.950 . S
C420 C419 1.398 . S
C420 C421 1.391 . S
C421 H409 0.950 . S
C421 C417 1.393 . S
C421 C420 1.391 . S
C422 H412 0.950 . S
C422 C423 1.386 . S
C422 C424 1.391 . S
C423 C422 1.386 . S
C423 C427 1.393 . S
C424 H413 0.950 . S
C424 C422 1.391 . S
C424 C425 1.400 . S
C425 C419 1.491 . S
C425 C424 1.400 . S
C425 C426 1.398 . S
C426 H414 0.950 . S
C426 C425 1.398 . S
C426 C427 1.391 . S
C427 H415 0.950 . S
C427 C423 1.393 . S
C427 C426 1.391 . S
H428 C436 0.950 . S
H429 C441 0.950 . S
H430 C438 0.950 . S
H431 C440 0.950 . S
H432 C442 0.950 . S
H433 C444 0.950 . S
H434 C446 0.950 . S
H435 C447 0.950 . S
C436 H428 0.950 . S
C436 C437 1.386 . S
C436 C438 1.391 . S
C437 C436 1.386 . S
C437 C441 1.393 . S
C438 H430 0.950 . S
C438 C436 1.391 . S
C438 C439 1.400 . S
C439 C438 1.400 . S
C439 C440 1.398 . S
C439 C445 1.491 . S
C440 H431 0.950 . S
C440 C439 1.398 . S
C440 C441 1.391 . S
C441 H429 0.950 . S
C441 C437 1.393 . S
C441 C440 1.391 . S
C442 H432 0.950 . S
C442 C443 1.386 . S
C442 C444 1.391 . S
C443 C442 1.386 . S
C443 C447 1.393 . S
C444 H433 0.950 . S
C444 C442 1.391 . S
C444 C445 1.400 . S
C445 C439 1.491 . S
C445 C444 1.400 . S
C445 C446 1.398 . S
C446 H434 0.950 . S
C446 C445 1.398 . S
C446 C447 1.391 . S
C447 H435 0.950 . S
C447 C443 1.393 . S
C447 C446 1.391 . S
H448 C456 0.950 . S
H449 C461 0.950 . S
H450 C458 0.950 . S
H451 C460 0.950 . S
H452 C462 0.950 . S
H453 C464 0.950 . S
H454 C466 0.950 . S
H455 C467 0.950 . S
C456 H448 0.950 . S
C456 C457 1.386 . S
C456 C458 1.391 . S
C457 C456 1.386 . S
C457 C461 1.393 . S
C458 H450 0.950 . S
C458 C456 1.391 . S
C458 C459 1.400 . S
C459 C458 1.400 . S
C459 C460 1.398 . S
C459 C465 1.491 . S
C460 H451 0.950 . S
C460 C459 1.398 . S
C460 C461 1.391 . S
C461 H449 0.950 . S
C461 C457 1.393 . S
C461 C460 1.391 . S
C462 H452 0.950 . S
C462 C463 1.386 . S
C462 C464 1.391 . S
C463 C462 1.386 . S
C463 C467 1.393 . S
C464 H453 0.950 . S
C464 C462 1.391 . S
C464 C465 1.400 . S
C465 C459 1.491 . S
C465 C464 1.400 . S
C465 C466 1.398 . S
C466 H454 0.950 . S
C466 C465 1.398 . S
C466 C467 1.391 . S
C467 H455 0.950 . S
C467 C463 1.393 . S
C467 C466 1.391 . S
H468 C476 0.950 . S
H469 C481 0.950 . S
H470 C478 0.950 . S
H471 C480 0.950 . S
H472 C482 0.950 . S
H473 C484 0.950 . S
H474 C486 0.950 . S
H475 C487 0.950 . S
C476 H468 0.950 . S
C476 C477 1.386 . S
C476 C478 1.391 . S
C477 C476 1.386 . S
C477 C481 1.393 . S
C478 H470 0.950 . S
C478 C476 1.391 . S
C478 C479 1.400 . S
C479 C478 1.400 . S
C479 C480 1.398 . S
C479 C485 1.491 . S
C480 H471 0.950 . S
C480 C479 1.398 . S
C480 C481 1.391 . S
C481 H469 0.950 . S
C481 C477 1.393 . S
C481 C480 1.391 . S
C482 H472 0.950 . S
C482 C483 1.386 . S
C482 C484 1.391 . S
C483 C482 1.386 . S
C483 C487 1.393 . S
C484 H473 0.950 . S
C484 C482 1.391 . S
C484 C485 1.400 . S
C485 C479 1.491 . S
C485 C484 1.400 . S
C485 C486 1.398 . S
C486 H474 0.950 . S
C486 C485 1.398 . S
C486 C487 1.391 . S
C487 H475 0.950 . S
C487 C483 1.393 . S
C487 C486 1.391 . S
H488 C496 0.950 . S
H489 C501 0.950 . S
H490 C498 0.950 . S
H491 C500 0.950 . S
H492 C502 0.950 . S
H493 C504 0.950 . S
H494 C506 0.950 . S
H495 C507 0.950 . S
C496 H488 0.950 . S
C496 C497 1.386 . S
C496 C498 1.391 . S
C497 C496 1.386 . S
C497 C501 1.393 . S
C498 H490 0.950 . S
C498 C496 1.391 . S
C498 C499 1.400 . S
C499 C498 1.400 . S
C499 C500 1.398 . S
C499 C505 1.491 . S
C500 H491 0.950 . S
C500 C499 1.398 . S
C500 C501 1.391 . S
C501 H489 0.950 . S
C501 C497 1.393 . S
C501 C500 1.391 . S
C502 H492 0.950 . S
C502 C503 1.386 . S
C502 C504 1.391 . S
C503 C502 1.386 . S
C503 C507 1.393 . S
C504 H493 0.950 . S
C504 C502 1.391 . S
C504 C505 1.400 . S
C505 C499 1.491 . S
C505 C504 1.400 . S
C505 C506 1.398 . S
C506 H494 0.950 . S
C506 C505 1.398 . S
C506 C507 1.391 . S
C507 H495 0.950 . S
C507 C503 1.393 . S
C507 C506 1.391 . S
H508 C516 0.950 . S
H509 C521 0.950 . S
H510 C518 0.950 . S
H511 C520 0.950 . S
H512 C522 0.950 . S
H513 C524 0.950 . S
H514 C526 0.950 . S
H515 C527 0.950 . S
C516 H508 0.950 . S
C516 C517 1.386 . S
C516 C518 1.391 . S
C517 C516 1.386 . S
C517 C521 1.393 . S
C518 H510 0.950 . S
C518 C516 1.391 . S
C518 C519 1.400 . S
C519 C518 1.400 . S
C519 C520 1.398 . S
C519 C525 1.491 . S
C520 H511 0.950 . S
C520 C519 1.398 . S
C520 C521 1.391 . S
C521 H509 0.950 . S
C521 C517 1.393 . S
C521 C520 1.391 . S
C522 H512 0.950 . S
C522 C523 1.386 . S
C522 C524 1.391 . S
C523 C522 1.386 . S
C523 C527 1.393 . S
C524 H513 0.950 . S
C524 C522 1.391 . S
C524 C525 1.400 . S
C525 C519 1.491 . S
C525 C524 1.400 . S
C525 C526 1.398 . S
C526 H514 0.950 . S
C526 C525 1.398 . S
C526 C527 1.391 . S
C527 H515 0.950 . S
C527 C523 1.393 . S
C527 C526 1.391 . S
H528 C536 0.950 . S
H529 C541 0.950 . S
H530 C538 0.950 . S
H531 C540 0.950 . S
H532 C542 0.950 . S
H533 C544 0.950 . S
H534 C546 0.950 . S
H535 C547 0.950 . S
C536 H528 0.950 . S
C536 C537 1.386 . S
C536 C538 1.391 . S
C537 C536 1.386 . S
C537 C541 1.393 . S
C538 H530 0.950 . S
C538 C536 1.391 . S
C538 C539 1.400 . S
C539 C538 1.400 . S
C539 C540 1.398 . S
C539 C545 1.491 . S
C540 H531 0.950 . S
C540 C539 1.398 . S
C540 C541 1.391 . S
C541 H529 0.950 . S
C541 C537 1.393 . S
C541 C540 1.391 . S
C542 H532 0.950 . S
C542 C543 1.386 . S
C542 C544 1.391 . S
C543 C542 1.386 . S
C543 C547 1.393 . S
C544 H533 0.950 . S
C544 C542 1.391 . S
C544 C545 1.400 . S
C545 C539 1.491 . S
C545 C544 1.400 . S
C545 C546 1.398 . S
C546 H534 0.950 . S
C546 C545 1.398 . S
C546 C547 1.391 . S
C547 H535 0.950 . S
C547 C543 1.393 . S
C547 C546 1.391 . S
H548 C556 0.950 . S
H549 C561 0.950 . S
H550 C558 0.950 . S
H551 C560 0.950 . S
H552 C562 0.950 . S
H553 C564 0.950 . S
H554 C566 0.950 . S
H555 C567 0.950 . S
C556 H548 0.950 . S
C556 C557 1.386 . S
C556 C558 1.391 . S
C557 C556 1.386 . S
C557 C561 1.393 . S
C558 H550 0.950 . S
C558 C556 1.391 . S
C558 C559 1.400 . S
C559 C558 1.400 . S
C559 C560 1.398 . S
C559 C565 1.491 . S
C560 H551 0.950 . S
C560 C559 1.398 . S
C560 C561 1.391 . S
C561 H549 0.950 . S
C561 C557 1.393 . S
C561 C560 1.391 . S
C562 H552 0.950 . S
C562 C563 1.386 . S
C562 C564 1.391 . S
C563 C562 1.386 . S
C563 C567 1.393 . S
C564 H553 0.950 . S
C564 C562 1.391 . S
C564 C565 1.400 . S
C565 C559 1.491 . S
C565 C564 1.400 . S
C565 C566 1.398 . S
C566 H554 0.950 . S
C566 C565 1.398 . S
C566 C567 1.391 . S
C567 H555 0.950 . S
C567 C563 1.393 . S
C567 C566 1.391 . S
H568 C576 0.950 . S
H569 C581 0.950 . S
H570 C578 0.950 . S
H571 C580 0.950 . S
H572 C582 0.950 . S
H573 C584 0.950 . S
H574 C586 0.950 . S
H575 C587 0.950 . S
C576 H568 0.950 . S
C576 C577 1.386 . S
C576 C578 1.391 . S
C577 C576 1.386 . S
C577 C581 1.393 . S
C578 H570 0.950 . S
C578 C576 1.391 . S
C578 C579 1.400 . S
C579 C578 1.400 . S
C579 C580 1.398 . S
C579 C585 1.491 . S
C580 H571 0.950 . S
C580 C579 1.398 . S
C580 C581 1.391 . S
C581 H569 0.950 . S
C581 C577 1.393 . S
C581 C580 1.391 . S
C582 H572 0.950 . S
C582 C583 1.386 . S
C582 C584 1.391 . S
C583 C582 1.386 . S
C583 C587 1.393 . S
C584 H573 0.950 . S
C584 C582 1.391 . S
C584 C585 1.400 . S
C585 C579 1.491 . S
C585 C584 1.400 . S
C585 C586 1.398 . S
C586 H574 0.950 . S
C586 C585 1.398 . S
C586 C587 1.391 . S
C587 H575 0.950 . S
C587 C583 1.393 . S
C587 C586 1.391 . S
H588 C596 0.950 . S
H589 C601 0.950 . S
H590 C598 0.950 . S
H591 C600 0.950 . S
H592 C602 0.950 . S
H593 C604 0.950 . S
H594 C606 0.950 . S
H595 C607 0.950 . S
C596 H588 0.950 . S
C596 C597 1.386 . S
C596 C598 1.391 . S
C597 C596 1.386 . S
C597 C601 1.393 . S
C598 H590 0.950 . S
C598 C596 1.391 . S
C598 C599 1.400 . S
C599 C598 1.400 . S
C599 C600 1.398 . S
C599 C605 1.491 . S
C600 H591 0.950 . S
C600 C599 1.398 . S
C600 C601 1.391 . S
C601 H589 0.950 . S
C601 C597 1.393 . S
C601 C600 1.391 . S
C602 H592 0.950 . S
C602 C603 1.386 . S
C602 C604 1.391 . S
C603 C602 1.386 . S
C603 C607 1.393 . S
C604 H593 0.950 . S
C604 C602 1.391 . S
C604 C605 1.400 . S
C605 C599 1.491 . S
C605 C604 1.400 . S
C605 C606 1.398 . S
C606 H594 0.950 . S
C606 C605 1.398 . S
C606 C607 1.391 . S
C607 H595 0.950 . S
C607 C603 1.393 . S
C607 C606 1.391 . S
H608 C616 0.950 . S
H609 C621 0.950 . S
H610 C618 0.950 . S
H611 C620 0.950 . S
H612 C622 0.950 . S
H613 C624 0.950 . S
H614 C626 0.950 . S
H615 C627 0.950 . S
C616 H608 0.950 . S
C616 C617 1.386 . S
C616 C618 1.391 . S
C617 C616 1.386 . S
C617 C621 1.393 . S
C618 H610 0.950 . S
C618 C616 1.391 . S
C618 C619 1.400 . S
C619 C618 1.400 . S
C619 C620 1.398 . S
C619 C625 1.491 . S
C620 H611 0.950 . S
C620 C619 1.398 . S
C620 C621 1.391 . S
C621 H609 0.950 . S
C621 C617 1.393 . S
C621 C620 1.391 . S
C622 H612 0.950 . S
C622 C623 1.386 . S
C622 C624 1.391 . S
C623 C622 1.386 . S
C623 C627 1.393 . S
C624 H613 0.950 . S
C624 C622 1.391 . S
C624 C625 1.400 . S
C625 C619 1.491 . S
C625 C624 1.400 . S
C625 C626 1.398 . S
C626 H614 0.950 . S
C626 C625 1.398 . S
C626 C627 1.391 . S
C627 H615 0.950 . S
C627 C623 1.393 . S
C627 C626 1.391 . S
H628 C636 0.950 . S
H629 C641 0.950 . S
H630 C638 0.950 . S
H631 C640 0.950 . S
H632 C642 0.950 . S
H633 C644 0.950 . S
H634 C646 0.950 . S
H635 C647 0.950 . S
C636 H628 0.950 . S
C636 C637 1.386 . S
C636 C638 1.391 . S
C637 C636 1.386 . S
C637 C641 1.393 . S
C638 H630 0.950 . S
C638 C636 1.391 . S
C638 C639 1.400 . S
C639 C638 1.400 . S
C639 C640 1.398 . S
C639 C645 1.491 . S
C640 H631 0.950 . S
C640 C639 1.398 . S
C640 C641 1.391 . S
C641 H629 0.950 . S
C641 C637 1.393 . S
C641 C640 1.391 . S
C642 H632 0.950 . S
C642 C643 1.386 . S
C642 C644 1.391 . S
C643 C642 1.386 . S
C643 C647 1.393 . S
C644 H633 0.950 . S
C644 C642 1.391 . S
C644 C645 1.400 . S
C645 C639 1.491 . S
C645 C644 1.400 . S
C645 C646 1.398 . S
C646 H634 0.950 . S
C646 C645 1.398 . S
C646 C647 1.391 . S
C647 H635 0.950 . S
C647 C643 1.393 . S
C647 C646 1.391 . S
C177 C9 1.377 . S
C183 C163 1.372 . S
C197 C93 1.371 . S
C203 C23 1.377 . S
C217 C37 1.371 . S
C223 C107 1.364 . S
C237 C121 1.362 . S
C243 C51 1.369 . S
C257 C135 1.365 . S
C263 C65 1.360 . S
C277 C149 1.361 . S
C283 C79 1.362 . S
C297 C42 1.292 . S
C303 C112 1.304 . S
C317 C56 1.297 . S
C323 C126 1.300 . S
C337 C70 1.302 . S
C343 C140 1.294 . S
C357 C154 1.291 . S
C363 C0 1.306 . S
C377 C14 1.305 . S
C383 C84 1.292 . S
C397 C28 1.295 . S
C403 C98 1.301 . S
C417 C117 1.663 . S
C423 C5 1.664 . S
C437 C131 1.663 . S
C443 C19 1.663 . S
C457 C33 1.663 . S
C463 C145 1.663 . S
C477 C47 1.663 . S
C483 C159 1.663 . S
C497 C61 1.663 . S
C503 C89 1.663 . S
C517 C103 1.663 . S
C523 C75 1.663 . S
C537 C11 1.601 . S
C543 C151 1.602 . S
C557 C165 1.599 . S
C563 C25 1.604 . S
C577 C39 1.596 . S
C583 C95 1.604 . S
C597 C53 1.601 . S
C603 C109 1.601 . S
C617 C67 1.602 . S
C623 C123 1.599 . S
C637 C81 1.602 . S
C643 C137 1.598 . S
