# Generated by pormake.
# Topology ecf, (8)-cn, num edge types: 1
# Building blocks:
#     Node 0, Type 0, BuildingBlock: LIZSOE_clean_sbu_0, # of connection points: 8
#     Node 1, Type 0, BuildingBlock: LIZSOE_clean_sbu_0, # of connection points: 8
#     Node 2, Type 0, BuildingBlock: LIZSOE_clean_sbu_0, # of connection points: 8
#     Node 3, Type 0, BuildingBlock: LIZSOE_clean_sbu_0, # of connection points: 8
#     Node 4, Type 0, BuildingBlock: LIZSOE_clean_sbu_0, # of connection points: 8
#     Node 5, Type 0, BuildingBlock: LIZSOE_clean_sbu_0, # of connection points: 8
#     Edge 6, Type (0, 0), BuildingBlock: TEMPAE_clean_linker_10, # of connection points: 2
#     Edge 7, Type (0, 0), BuildingBlock: TEMPAE_clean_linker_10, # of connection points: 2
#     Edge 8, Type (0, 0), BuildingBlock: TEMPAE_clean_linker_10, # of connection points: 2
#     Edge 9, Type (0, 0), BuildingBlock: TEMPAE_clean_linker_10, # of connection points: 2
#     Edge 10, Type (0, 0), BuildingBlock: TEMPAE_clean_linker_10, # of connection points: 2
#     Edge 11, Type (0, 0), BuildingBlock: TEMPAE_clean_linker_10, # of connection points: 2
#     Edge 12, Type (0, 0), BuildingBlock: TEMPAE_clean_linker_10, # of connection points: 2
#     Edge 13, Type (0, 0), BuildingBlock: TEMPAE_clean_linker_10, # of connection points: 2
#     Edge 14, Type (0, 0), BuildingBlock: TEMPAE_clean_linker_10, # of connection points: 2
#     Edge 15, Type (0, 0), BuildingBlock: TEMPAE_clean_linker_10, # of connection points: 2
#     Edge 16, Type (0, 0), BuildingBlock: TEMPAE_clean_linker_10, # of connection points: 2
#     Edge 17, Type (0, 0), BuildingBlock: TEMPAE_clean_linker_10, # of connection points: 2
#     Edge 18, Type (0, 0), BuildingBlock: TEMPAE_clean_linker_10, # of connection points: 2
#     Edge 19, Type (0, 0), BuildingBlock: TEMPAE_clean_linker_10, # of connection points: 2
#     Edge 20, Type (0, 0), BuildingBlock: TEMPAE_clean_linker_10, # of connection points: 2
#     Edge 21, Type (0, 0), BuildingBlock: TEMPAE_clean_linker_10, # of connection points: 2
#     Edge 22, Type (0, 0), BuildingBlock: TEMPAE_clean_linker_10, # of connection points: 2
#     Edge 23, Type (0, 0), BuildingBlock: TEMPAE_clean_linker_10, # of connection points: 2
#     Edge 24, Type (0, 0), BuildingBlock: TEMPAE_clean_linker_10, # of connection points: 2
#     Edge 25, Type (0, 0), BuildingBlock: TEMPAE_clean_linker_10, # of connection points: 2
#     Edge 26, Type (0, 0), BuildingBlock: TEMPAE_clean_linker_10, # of connection points: 2
#     Edge 27, Type (0, 0), BuildingBlock: TEMPAE_clean_linker_10, # of connection points: 2
#     Edge 28, Type (0, 0), BuildingBlock: TEMPAE_clean_linker_10, # of connection points: 2
#     Edge 29, Type (0, 0), BuildingBlock: TEMPAE_clean_linker_10, # of connection points: 2
# Relax obj value: 0.280
# Max RMSD: 0.203
# Mean RMSD: 0.200
data_MOF--net-ecf--node1-LIZSOE_clean_sbu_0--edge1-TEMPAE_clean_linker_10
_symmetry_space_group_name_H-M    P1
_symmetry_Int_Tables_number       1
_symmetry_cell_setting            triclinic
loop_
_symmetry_equiv_pos_as_xyz
'x, y, z'
_cell_length_a     38.054988
_cell_length_b     38.045917
_cell_length_c     21.713478
_cell_angle_alpha  90.185089
_cell_angle_beta   90.191466
_cell_angle_gamma 119.92769
loop_
_atom_site_label
_atom_site_type_symbol
_atom_site_fract_x
_atom_site_fract_y
_atom_site_fract_z
_atom_type_partial_charge
Co0 Co 0.11127 0.25731 0.30881 0.0
N1 N 0.07168 0.20872 0.28159 0.0
C2 C 0.07808 0.17714 0.28688 0.0
N3 N 1.02023 0.1544 0.23788 0.0
C4 C 0.03577 0.19402 0.25218 0.0
C5 C 0.04681 0.14385 0.25965 0.0
Co6 Co 0.29287 0.40832 0.26984 0.0
N7 N 0.34201 0.45475 0.28396 0.0
N8 N 0.39832 0.51545 0.29432 0.0
C9 C 0.40723 0.48669 0.31027 0.0
C10 C 0.37281 0.4497 0.30373 0.0
C11 C 0.35858 0.49539 0.27788 0.0
Co12 Co 0.19902 0.33769 0.29694 0.0
C13 C 0.26238 0.37762 0.19379 0.0
H14 H 0.3703 0.42054 0.31232 0.0
O15 O 0.14671 0.30445 0.34222 0.0
O16 O 0.19874 0.38876 0.31593 0.0
O17 O 0.16432 0.33155 0.2189 0.0
O18 O 0.20468 0.29039 0.27774 0.0
O19 O 0.14296 0.25146 0.24769 0.0
O20 O 0.26226 0.43461 0.28755 0.0
O21 O 0.25064 0.36594 0.2502 0.0
O22 O 0.29204 0.39397 0.35343 0.0
O23 O 0.10056 0.28652 0.24996 0.0
O24 O 0.08175 0.26333 0.36613 0.0
O25 O 0.23025 0.34261 0.37453 0.0
O26 O 0.29045 0.41548 0.18711 0.0
C27 C 0.12497 0.31378 0.21283 0.0
C28 C 0.33659 0.51512 0.25077 0.0
H29 H 0.31557 0.49545 0.21412 0.0
H30 H 0.31883 0.51938 0.28749 0.0
H31 H 0.358 0.54518 0.23106 0.0
C32 C 0.22666 0.42529 0.30566 0.0
C33 C 0.1798 0.26236 0.24391 0.0
H34 H 0.10426 0.17866 0.30915 0.0
H35 H 0.98145 0.19833 0.24347 0.0
H36 H 0.02254 0.23113 0.19401 0.0
H37 H 0.02481 0.24303 0.2749 0.0
C38 C 1.01485 0.21799 0.24089 0.0
C39 C 0.11543 0.29636 0.37795 0.0
C40 C 0.26742 0.36634 0.38942 0.0
H41 H 0.04294 0.11366 0.25798 0.0
H42 H 0.43668 0.49216 0.3255 0.0
Co43 Co 0.85888 0.09646 0.772 0.0
N44 N 0.83385 0.04028 0.76674 0.0
C45 C 0.81572 0.01955 0.71461 0.0
N46 N 0.81155 0.97404 0.78069 0.0
C47 C 0.83083 1.01151 0.80643 0.0
C48 C 0.80197 0.97909 0.72313 0.0
Co49 Co 0.87384 0.27831 0.79072 0.0
N50 N 0.89906 0.3357 0.79737 0.0
N51 N 0.9069 0.39894 0.80227 0.0
C52 C 0.94366 0.40178 0.80526 0.0
C53 C 0.93884 0.3633 0.8018 0.0
C54 C 0.88028 0.35827 0.79755 0.0
Co55 Co 0.86323 0.18537 0.78555 0.0
C56 C 0.8204 0.2308 0.82638 0.0
H57 H 0.96289 0.35597 0.80242 0.0
O58 O 0.88499 0.1479 0.77902 0.0
O59 O 0.90425 0.21603 0.85292 0.0
O60 O 0.82242 0.14876 0.85167 0.0
O61 O 0.82178 0.15451 0.71778 0.0
O62 O 0.82071 0.09528 0.7189 0.0
O63 O 0.909 0.27715 0.85444 0.0
O64 O 0.84304 0.22447 0.78779 0.0
O65 O 0.91367 0.28295 0.72972 0.0
O66 O 0.82516 0.09165 0.83746 0.0
O67 O 0.89886 0.10353 0.82415 0.0
O68 O 0.90441 0.22003 0.72052 0.0
O69 O 0.8346 0.26776 0.8464 0.0
C70 C 0.81166 0.11164 0.86574 0.0
C71 C 0.83489 0.33911 0.79831 0.0
H72 H 0.82415 0.32953 0.84604 0.0
H73 H 0.82391 0.35975 0.78401 0.0
H74 H 0.82095 0.31178 0.76823 0.0
C75 C 0.91964 0.25222 0.87446 0.0
C76 C 0.80765 0.11783 0.69906 0.0
H77 H 0.81447 0.03319 0.67167 0.0
H78 H 0.88138 0.03044 0.86756 0.0
H79 H 0.83377 0.99239 0.89897 0.0
H80 H 0.84487 0.0443 0.89268 0.0
C81 C 0.84853 0.02012 0.87026 0.0
C82 C 0.90845 0.14106 0.81465 0.0
C83 C 0.92287 0.25776 0.70544 0.0
H84 H 0.78931 0.95567 0.68799 0.0
H85 H 0.97224 0.42989 0.80925 0.0
Co86 Co 0.77799 0.86114 0.29551 0.0
N87 N 0.82584 0.86985 0.26729 0.0
C88 C 0.85765 0.90781 0.26873 0.0
N89 N 0.8791 0.86956 0.22669 0.0
C90 C 0.83973 0.84678 0.2421 0.0
C91 C 0.89038 0.90788 0.2433 0.0
Co92 Co 0.62809 0.8924 0.25845 0.0
N93 N 0.58226 0.89545 0.27363 0.0
N94 N 0.5219 0.89101 0.28692 0.0
C95 C 0.55089 0.92914 0.30028 0.0
C96 C 0.58773 0.93175 0.29189 0.0
C97 C 0.54158 0.8711 0.27008 0.0
Co98 Co 0.69808 0.86835 0.28515 0.0
C99 C 0.65689 0.89207 0.18183 0.0
H100 H 0.61705 0.95865 0.29833 0.0
O101 O 0.731 0.84885 0.3301 0.0
O102 O 0.64732 0.81712 0.30358 0.0
O103 O 0.70374 0.83978 0.20673 0.0
O104 O 0.74527 0.92099 0.26789 0.0
O105 O 0.78219 0.89755 0.23243 0.0
O106 O 0.6018 0.8359 0.27878 0.0
O107 O 0.6705 0.89273 0.23757 0.0
O108 O 0.64464 0.90813 0.34078 0.0
O109 O 0.74806 0.82005 0.23842 0.0
O110 O 0.774 0.82722 0.3543 0.0
O111 O 0.69381 0.89456 0.36334 0.0
O112 O 0.61825 0.87996 0.17744 0.0
C113 C 0.72089 0.81758 0.20095 0.0
C114 C 0.52124 0.82879 0.24481 0.0
H115 H 0.5399 0.82659 0.20758 0.0
H116 H 0.51803 0.80765 0.28226 0.0
H117 H 0.49067 0.8197 0.22623 0.0
C118 C 0.61081 0.80923 0.29581 0.0
C119 C 0.77172 0.92393 0.23138 0.0
H120 H 0.85687 0.93345 0.28862 0.0
H121 H 0.83499 0.78772 0.24459 0.0
H122 H 0.80249 0.793 0.18987 0.0
H123 H 0.79043 0.78844 0.2707 0.0
C124 C 0.81551 0.80137 0.237 0.0
C125 C 0.7408 0.82725 0.36667 0.0
C126 C 0.67167 0.90997 0.37737 0.0
H127 H 0.92089 0.93353 0.24082 0.0
H128 H 0.54566 0.95335 0.31512 0.0
Co129 Co 0.94153 0.77465 0.75843 0.0
N130 N 0.99667 0.80771 0.7481 0.0
C131 C 1.01188 0.81436 0.69054 0.0
N132 N 0.0628 0.85405 0.75113 0.0
C133 C 0.02862 0.83252 0.78442 0.0
C134 C 0.05224 0.84269 0.69224 0.0
Co135 Co 0.76273 0.60596 0.78028 0.0
N136 N 0.70538 0.57347 0.78309 0.0
N137 N 0.64256 0.5177 0.77732 0.0
C138 C 0.63906 0.55131 0.77816 0.0
C139 C 0.67733 0.5852 0.78131 0.0
C140 C 0.68334 0.53215 0.78095 0.0
Co141 Co 0.8551 0.68906 0.77737 0.0
C142 C 0.80985 0.60074 0.82091 0.0
H143 H 0.68424 0.61644 0.7809 0.0
O144 O 0.89082 0.74799 0.76878 0.0
O145 O 0.82383 0.6992 0.84346 0.0
O146 O 0.89375 0.68825 0.84459 0.0
O147 O 0.8857 0.67782 0.71101 0.0
O148 O 0.94383 0.73663 0.70907 0.0
O149 O 0.7626 0.64288 0.84196 0.0
O150 O 0.81712 0.62939 0.781 0.0
O151 O 0.75814 0.63977 0.71718 0.0
O152 O 0.94916 0.74931 0.82748 0.0
O153 O 0.93428 0.80901 0.80722 0.0
O154 O 0.82009 0.69428 0.71106 0.0
O155 O 0.77243 0.57846 0.8384 0.0
C156 C 0.9305 0.71661 0.85829 0.0
C157 C 0.70279 0.50631 0.78751 0.0
H158 H 0.71314 0.50824 0.83584 0.0
H159 H 0.6822 0.47385 0.77782 0.0
H160 H 0.72977 0.51804 0.75731 0.0
C161 C 0.78724 0.67839 0.8629 0.0
C162 C 0.9219 0.70034 0.69164 0.0
H163 H 0.99409 0.80087 0.64929 0.0
H164 H 0.04026 0.87118 0.86326 0.0
H165 H 0.04328 0.82645 0.87741 0.0
H166 H 0.99441 0.82261 0.86868 0.0
C167 C 0.02602 0.83836 0.85227 0.0
C168 C 0.89716 0.77924 0.80168 0.0
C169 C 0.78278 0.67434 0.69393 0.0
H170 H 0.07182 0.85607 0.65289 0.0
H171 H 0.61072 0.55143 0.7752 0.0
Co172 Co 0.14487 0.74286 0.25825 0.0
N173 N 0.14072 0.69302 0.26981 0.0
C174 C 0.10375 0.66237 0.28505 0.0
N175 N 0.14354 0.63601 0.28197 0.0
C176 C 0.16451 0.67593 0.26744 0.0
C177 C 0.10535 0.62751 0.29267 0.0
Co178 Co 0.17356 0.92118 0.30592 0.0
N179 N 0.16044 0.95797 0.27932 0.0
N180 N 0.1542 1.00748 0.23615 0.0
C181 C 0.11724 0.97846 0.25432 0.0
C182 C 0.1213 0.94832 0.28126 0.0
C183 C 0.1802 0.99467 0.25259 0.0
Co184 Co 0.17024 0.83676 0.29182 0.0
C185 C 0.20889 0.9202 0.37787 0.0
H186 H 0.09739 0.92076 0.30114 0.0
O187 O 0.14573 0.78599 0.2408 0.0
O188 O 0.19822 0.87298 0.21524 0.0
O189 O 0.22141 0.83637 0.30679 0.0
O190 O 0.14559 0.80485 0.36862 0.0
O191 O 0.13008 0.74223 0.34124 0.0
O192 O 0.21552 0.93591 0.25012 0.0
O193 O 0.19047 0.88852 0.3401 0.0
O194 O 0.13969 0.88934 0.23977 0.0
O195 O 0.20155 0.77202 0.27894 0.0
O196 O 0.15627 0.74683 0.17642 0.0
O197 O 0.11677 0.83072 0.2788 0.0
O198 O 0.20518 0.95144 0.36611 0.0
C199 C 0.22862 0.80738 0.29724 0.0
C200 C 0.22548 0.01945 0.24736 0.0
H201 H 0.24062 1.0092 0.28058 0.0
H202 H 0.23437 0.01639 0.19992 0.0
H203 H 0.23611 0.05201 0.25594 0.0
C204 C 0.21969 0.91251 0.21186 0.0
C205 C 0.12966 0.76703 0.38019 0.0
H206 H 0.07719 0.66548 0.29061 0.0
H207 H 0.21703 0.67621 0.22902 0.0
H208 H 0.22754 0.71555 0.28475 0.0
H209 H 0.21074 0.71867 0.20815 0.0
C210 C 0.20749 0.69772 0.24588 0.0
C211 C 0.14671 0.77509 0.1838 0.0
C212 C 0.11295 0.85288 0.24092 0.0
H213 H 0.08049 0.59816 0.30578 0.0
H214 H 0.08955 0.97981 0.25034 0.0
Co215 Co 0.26528 0.17801 0.7723 0.0
N216 N 0.23404 0.20322 0.76846 0.0
C217 C 0.23443 0.22537 0.71966 0.0
N218 N 0.18883 0.22398 0.78277 0.0
C219 C 0.20556 0.2028 0.80627 0.0
C220 C 0.20696 0.23824 0.72844 0.0
Co221 Co 0.43281 0.16453 0.79887 0.0
N222 N 0.46548 0.13997 0.79636 0.0
N223 N 0.52203 0.1342 0.80133 0.0
C224 C 0.48984 0.09776 0.78672 0.0
C225 C 0.45544 0.10135 0.78374 0.0
C226 C 0.50608 0.1591 0.8077 0.0
Co227 Co 0.35003 0.1739 0.79032 0.0
C228 C 0.44019 0.21868 0.76588 0.0
H229 H 0.42505 0.07725 0.77331 0.0
O230 O 0.29074 0.15129 0.77823 0.0
O231 O 0.33881 0.12919 0.85177 0.0
O232 O 0.35046 0.21029 0.86181 0.0
O233 O 0.36279 0.219 0.72868 0.0
O234 O 0.3043 0.21907 0.72637 0.0
O235 O 0.39552 0.12425 0.85417 0.0
O236 O 0.40927 0.19486 0.80064 0.0
O237 O 0.40006 0.12975 0.72973 0.0
O238 O 0.29082 0.20737 0.84393 0.0
O239 O 0.23035 0.13578 0.81669 0.0
O240 O 0.34603 0.13729 0.71991 0.0
O241 O 0.4641 0.20531 0.74796 0.0
C242 C 0.32278 0.21925 0.87614 0.0
C243 C 0.52927 0.20214 0.83001 0.0
H244 H 0.50874 0.21011 0.85482 0.0
H245 H 0.55452 0.20683 0.86097 0.0
H246 H 0.54199 0.22264 0.78992 0.0
C247 C 0.35921 0.11271 0.87174 0.0
C248 C 0.34072 0.23366 0.71021 0.0
H249 H 0.25213 0.2302 0.67852 0.0
H250 H 0.16912 0.1478 0.85552 0.0
H251 H 0.17853 0.19295 0.89649 0.0
H252 H 0.21805 0.18019 0.8894 0.0
C253 C 0.19221 0.1798 0.86557 0.0
C254 C 0.25886 0.1267 0.81011 0.0
C255 C 0.3664 0.12051 0.70332 0.0
H256 H 0.19848 0.25395 0.69532 0.0
H257 H 0.49113 0.0704 0.778 0.0
C258 C 0.18946 0.45751 0.35226 0.0
C259 C 0.21636 0.45775 0.30822 0.0
C260 C 0.17847 0.48771 0.35219 0.0
C261 C 0.19438 0.51821 0.30645 0.0
C262 C 0.22159 0.51846 0.26209 0.0
C263 C 0.232 0.48807 0.26337 0.0
C264 C 0.14937 0.48662 0.40023 0.0
C265 C 0.23865 0.54998 0.21188 0.0
C266 C 0.13503 0.5692 0.25866 0.0
C267 C 0.15741 0.60731 0.28666 0.0
C268 C 0.14642 0.53967 0.26551 0.0
C269 C 0.18076 0.54845 0.30201 0.0
C270 C 0.20327 0.58685 0.33101 0.0
C271 C 0.19132 0.61596 0.32284 0.0
C272 C 0.12202 0.49931 0.23305 0.0
C273 C 0.23992 0.59711 0.37049 0.0
H274 H 0.17702 0.43373 0.38653 0.0
H275 H 0.25123 0.48715 0.22757 0.0
H276 H 0.16277 0.51617 0.42481 0.0
H277 H 0.12105 0.48167 0.37768 0.0
H278 H 0.14148 0.46219 0.4345 0.0
H279 H 0.26126 0.5472 0.18316 0.0
H280 H 0.2137 0.5468 0.18152 0.0
H281 H 0.25333 0.58091 0.23217 0.0
H282 H 0.10868 0.56274 0.23105 0.0
H283 H 0.20789 0.64521 0.34558 0.0
H284 H 0.11084 0.47426 0.26685 0.0
H285 H 0.14155 0.49473 0.19995 0.0
H286 H 0.0956 0.49707 0.20756 0.0
H287 H 0.23151 0.57444 0.40774 0.0
H288 H 0.25321 0.62779 0.39159 0.0
H289 H 0.2635 0.59577 0.34232 0.0
C290 C 0.57326 0.11561 0.83519 0.0
C291 C 0.56397 0.14335 0.80731 0.0
C292 C 0.61369 0.12366 0.84056 0.0
C293 C 0.64606 0.16039 0.81738 0.0
C294 C 0.63674 0.18815 0.78822 0.0
C295 C 0.59606 0.1792 0.78319 0.0
C296 C 0.62182 0.09297 0.87157 0.0
C297 C 0.6699 0.22759 0.76244 0.0
C298 C 0.7546 0.20904 0.8801 0.0
C299 C 0.77551 0.20295 0.83173 0.0
C300 C 0.71232 0.19346 0.87758 0.0
C301 C 0.68974 0.17086 0.82541 0.0
C302 C 0.71012 0.16176 0.7787 0.0
C303 C 0.75264 0.17806 0.78223 0.0
C304 C 0.69235 0.20384 0.92892 0.0
C305 C 0.6876 0.13723 0.72264 0.0
H306 H 0.54878 0.08768 0.85355 0.0
H307 H 0.58935 0.20014 0.75946 0.0
H308 H 0.63934 0.08428 0.84048 0.0
H309 H 0.64053 0.10653 0.91356 0.0
H310 H 0.59341 0.06514 0.88483 0.0
H311 H 0.65784 0.24583 0.74068 0.0
H312 H 0.69132 0.24594 0.79973 0.0
H313 H 0.68744 0.22145 0.72759 0.0
H314 H 0.7718 0.22839 0.91846 0.0
H315 H 0.76817 0.17389 0.74372 0.0
H316 H 0.66455 0.1763 0.9445 0.0
H317 H 0.68307 0.22547 0.91174 0.0
H318 H 0.7129 0.21783 0.96913 0.0
H319 H 0.65859 0.11023 0.73595 0.0
H320 H 0.70584 0.12705 0.69602 0.0
H321 H 0.6802 0.15601 0.69213 0.0
C322 C 0.46453 0.57252 0.26622 0.0
C323 C 0.42681 0.55818 0.29432 0.0
C324 C 0.49403 0.61368 0.26896 0.0
C325 C 0.48572 0.64097 0.30158 0.0
C326 C 0.44763 0.62656 0.33037 0.0
C327 C 0.41846 0.58519 0.32613 0.0
C328 C 0.53398 0.62795 0.23669 0.0
C329 C 0.43789 0.65475 0.36595 0.0
C330 C 0.57794 0.74141 0.3468 0.0
C331 C 0.57789 0.76683 0.30039 0.0
C332 C 0.54725 0.7005 0.34913 0.0
C333 C 0.51648 0.68481 0.30326 0.0
C334 C 0.51647 0.71052 0.25638 0.0
C335 C 0.54729 0.75115 0.25546 0.0
C336 C 0.54811 0.67396 0.39995 0.0
C337 C 0.48476 0.69482 0.20589 0.0
H338 H 0.47076 0.55131 0.2419 0.0
H339 H 0.38947 0.57367 0.34883 0.0
H340 H 0.53866 0.65114 0.20183 0.0
H341 H 0.55935 0.64249 0.27029 0.0
H342 H 0.53555 0.60276 0.21333 0.0
H343 H 0.40717 0.63858 0.38662 0.0
H344 H 0.46058 0.67 0.40328 0.0
H345 H 0.43971 0.67882 0.33518 0.0
H346 H 0.60194 0.75353 0.38116 0.0
H347 H 0.54831 0.77034 0.21802 0.0
H348 H 0.55263 0.64962 0.38005 0.0
H349 H 0.51862 0.65901 0.42431 0.0
H350 H 0.57269 0.69136 0.43401 0.0
H351 H 0.48739 0.67178 0.17794 0.0
H352 H 0.48783 0.71934 0.17484 0.0
H353 H 0.45392 0.67973 0.226 0.0
C354 C 0.91939 0.46387 0.84978 0.0
C355 C 0.89929 0.43287 0.80571 0.0
C356 C 0.91215 0.49683 0.85433 0.0
C357 C 0.88321 0.49859 0.81498 0.0
C358 C 0.86406 0.46822 0.76886 0.0
C359 C 0.87326 0.43665 0.76366 0.0
C360 C 0.9353 0.52969 0.90153 0.0
C361 C 0.83306 0.46849 0.72566 0.0
C362 C 0.82373 0.54932 0.86979 0.0
C363 C 0.83683 0.58263 0.82983 0.0
C364 C 0.83946 0.52277 0.86677 0.0
C365 C 0.87066 0.53021 0.8245 0.0
C366 C 0.88701 0.56604 0.78842 0.0
C367 C 0.86951 0.59134 0.79072 0.0
C368 C 0.82024 0.48489 0.90558 0.0
C369 C 0.92146 0.57668 0.74453 0.0
H370 H 0.94057 0.46206 0.88127 0.0
H371 H 0.85989 0.41474 0.72657 0.0
H372 H 0.94863 0.55998 0.87966 0.0
H373 H 0.91442 0.52856 0.93796 0.0
H374 H 0.96001 0.5266 0.92358 0.0
H375 H 0.81972 0.44197 0.69388 0.0
H376 H 0.80821 0.46836 0.75252 0.0
H377 H 0.84728 0.49659 0.69786 0.0
H378 H 0.79877 0.54205 0.90077 0.0
H379 H 0.8801 0.61649 0.75936 0.0
H380 H 0.84368 0.48245 0.93261 0.0
H381 H 0.80518 0.4578 0.8751 0.0
H382 H 0.79733 0.48418 0.93791 0.0
H383 H 0.94224 0.56629 0.76172 0.0
H384 H 0.9392 0.6099 0.73691 0.0
H385 H 0.90902 0.56185 0.69938 0.0
C386 C 0.28585 0.80108 0.25653 0.0
C387 C 0.27071 0.81614 0.30181 0.0
C388 C 0.32646 0.81092 0.25703 0.0
C389 C 0.3526 0.83687 0.3037 0.0
C390 C 0.33737 0.8518 0.35021 0.0
C391 C 0.29646 0.84146 0.34842 0.0
C392 C 0.34174 0.79497 0.20605 0.0
C393 C 0.36448 0.87949 0.40074 0.0
C394 C 0.45375 0.84124 0.32267 0.0
C395 C 0.47922 0.87637 0.2897 0.0
C396 C 0.41235 0.82821 0.3286 0.0
C397 C 0.39647 0.85092 0.30057 0.0
C398 C 0.42224 0.88644 0.26717 0.0
C399 C 0.46345 0.89886 0.26253 0.0
C400 C 0.38568 0.79034 0.36485 0.0
C401 C 0.40626 0.91113 0.23593 0.0
H402 H 0.26634 0.78301 0.21902 0.0
H403 H 0.28467 0.85336 0.38309 0.0
H404 H 0.36356 0.82055 0.17716 0.0
H405 H 0.35811 0.78024 0.22559 0.0
H406 H 0.31679 0.7727 0.176 0.0
H407 H 0.34726 0.88591 0.43592 0.0
H408 H 0.38076 0.86574 0.4238 0.0
H409 H 0.38774 0.90867 0.3807 0.0
H410 H 0.46647 0.82454 0.34467 0.0
H411 H 0.48353 0.9261 0.23729 0.0
H412 H 0.36132 0.76751 0.33472 0.0
H413 H 0.37074 0.79749 0.40276 0.0
H414 H 0.40298 0.77665 0.3848 0.0
H415 H 0.38271 0.8921 0.20149 0.0
H416 H 0.43053 0.93817 0.21224 0.0
H417 H 0.39173 0.92141 0.27023 0.0
C418 C 0.48841 0.28303 0.818 0.0
C419 C 0.45958 0.26364 0.77104 0.0
C420 C 0.51539 0.32517 0.81768 0.0
C421 C 0.51266 0.34938 0.77048 0.0
C422 C 0.48174 0.33025 0.72491 0.0
C423 C 0.45655 0.2875 0.72449 0.0
C424 C 0.54858 0.34331 0.86584 0.0
C425 C 0.47604 0.3546 0.67523 0.0
C426 C 0.57339 0.46341 0.80685 0.0
C427 C 0.60902 0.47607 0.7727 0.0
C428 C 0.5408 0.42302 0.80372 0.0
C429 C 0.54415 0.39388 0.76706 0.0
C430 C 0.57943 0.40691 0.73074 0.0
C431 C 0.61052 0.44794 0.7323 0.0
C432 C 0.50294 0.41143 0.84029 0.0
C433 C 0.58507 0.37725 0.69161 0.0
H434 H 0.49154 0.26467 0.85329 0.0
H435 H 0.43547 0.27279 0.68677 0.0
H436 H 0.57862 0.35729 0.84309 0.0
H437 H 0.54702 0.36766 0.89168 0.0
H438 H 0.54673 0.32038 0.89922 0.0
H439 H 0.44553 0.33746 0.65351 0.0
H440 H 0.4801 0.38357 0.69406 0.0
H441 H 0.499 0.36205 0.6388 0.0
H442 H 0.57121 0.48511 0.8367 0.0
H443 H 0.6364 0.45792 0.70225 0.0
H444 H 0.50075 0.39156 0.87907 0.0
H445 H 0.47562 0.39403 0.81088 0.0
H446 H 0.5026 0.43838 0.85938 0.0
H447 H 0.58212 0.3519 0.72048 0.0
H448 H 0.61511 0.39167 0.66873 0.0
H449 H 0.56114 0.36402 0.65565 0.0
C450 C 0.16519 0.21035 0.16408 0.0
C451 C 0.1914 0.23661 0.20958 0.0
C452 C 0.16751 0.17631 0.14618 0.0
C453 C 0.19625 0.16871 0.17539 0.0
C454 C 0.22737 0.19909 0.21227 0.0
C455 C 0.22453 0.23304 0.22922 0.0
C456 C 0.13561 0.14575 0.10322 0.0
C457 C 0.2594 0.19247 0.24227 0.0
C458 C 0.14855 0.06737 0.25175 0.0
C459 C 0.16389 0.04713 0.21752 0.0
C460 C 0.15855 0.10673 0.23736 0.0
C461 C 0.18476 0.12633 0.18713 0.0
C462 C 0.20002 0.10576 0.15142 0.0
C463 C 0.18903 0.06587 0.16701 0.0
C464 C 0.14113 0.12722 0.27658 0.0
C465 C 0.22714 0.12514 0.09667 0.0
H466 H 0.14054 0.21421 0.14687 0.0
H467 H 0.24554 0.2541 0.26311 0.0
H468 H 0.14779 0.12961 0.07576 0.0
H469 H 0.10972 0.12295 0.13066 0.0
H470 H 0.12403 0.16053 0.07143 0.0
H471 H 0.2852 0.2213 0.25989 0.0
H472 H 0.24587 0.17147 0.28169 0.0
H473 H 0.27102 0.17841 0.20929 0.0
H474 H 0.1293 0.05246 0.29094 0.0
H475 H 0.20007 0.04936 0.14012 0.0
H476 H 0.12205 0.135 0.24751 0.0
H477 H 0.16581 0.15572 0.29689 0.0
H478 H 0.12207 0.1077 0.31473 0.0
H479 H 0.24577 0.1108 0.08658 0.0
H480 H 0.24763 0.15816 0.10372 0.0
H481 H 0.20798 0.12095 0.05559 0.0
C482 C 0.97294 0.19962 0.78208 0.0
C483 C 0.95012 0.17289 0.8289 0.0
C484 C 1.01522 0.21792 0.78192 0.0
C485 C 0.03489 0.21007 0.83103 0.0
C486 C 1.01228 0.18847 0.88324 0.0
C487 C 0.96985 0.16925 0.88097 0.0
C488 C 0.03775 0.2421 0.72607 0.0
C489 C 0.03245 0.18153 0.93821 0.0
C490 C 0.11577 0.1833 0.79519 0.0
C491 C 0.15115 0.22086 0.79978 0.0
C492 C 0.07785 0.17984 0.80398 0.0
C493 C 0.07553 0.21468 0.82115 0.0
C494 C 0.11147 0.25304 0.82468 0.0
C495 C 0.14899 0.25561 0.81352 0.0
C496 C 0.04041 0.13928 0.79087 0.0
C497 C 0.11094 0.29192 0.83535 0.0
H498 H 0.9578 0.20202 0.74146 0.0
H499 H 0.9521 0.14882 0.9176 0.0
H500 H 0.04802 0.27456 0.73489 0.0
H501 H 0.06469 0.23926 0.71535 0.0
H502 H 1.01793 0.2326 0.68462 0.0
H503 H 1.01299 0.17308 0.97962 0.0
H504 H 0.03826 0.15629 0.92848 0.0
H505 H 0.06213 0.20884 0.94842 0.0
H506 H 0.11788 0.15697 0.78165 0.0
H507 H 0.17664 0.28482 0.81444 0.0
H508 H 1.01807 0.14324 0.76314 0.0
H509 H 0.02562 0.12442 0.83456 0.0
H510 H 0.04773 0.11835 0.76552 0.0
H511 H 0.11624 0.308 0.79081 0.0
H512 H 0.13622 0.31229 0.86655 0.0
H513 H 0.08184 0.28702 0.8543 0.0
C514 C 0.95783 0.09152 0.25356 0.0
C515 C 0.98012 0.12603 0.21817 0.0
C516 C 0.9194 0.06185 0.23533 0.0
C517 C 0.90235 0.06735 0.18056 0.0
C518 C 0.9248 0.1023 0.14408 0.0
C519 C 0.96387 0.13155 0.16357 0.0
C520 C 0.89764 0.02425 0.27451 0.0
C521 C 0.90843 0.10926 0.08482 0.0
C522 C 0.82318 0.96311 0.15227 0.0
C523 C 0.79586 0.96135 0.19686 0.0
C524 C 0.85554 1.00054 0.13456 0.0
C525 C 0.86082 0.0359 0.1644 0.0
C526 C 0.82893 0.03456 0.19937 0.0
C527 C 0.79616 0.99687 0.21486 0.0
C528 C 0.88773 1.00141 0.09331 0.0
C529 C 0.83263 0.07221 0.22889 0.0
H530 H 0.97086 0.08781 0.29582 0.0
H531 H 0.98188 0.15826 0.13599 0.0
H532 H 0.86952 0.0217 0.29375 0.0
H533 H 0.88924 0.99713 0.24567 0.0
H534 H 0.91654 0.02411 0.31353 0.0
H535 H 0.90272 0.13494 0.09128 0.0
H536 H 0.93137 0.11781 0.04792 0.0
H537 H 0.88002 0.0824 0.06884 0.0
H538 H 0.82154 0.93541 0.1357 0.0
H539 H 0.77378 0.99549 0.24701 0.0
H540 H 0.91187 1.00142 0.12218 0.0
H541 H 0.90176 0.02921 0.06477 0.0
H542 H 0.87504 0.97438 0.06255 0.0
H543 H 0.84792 0.07719 0.27432 0.0
H544 H 0.80228 0.06891 0.23662 0.0
H545 H 0.85099 0.09935 0.20007 0.0
C546 C 0.85267 0.94237 0.79591 0.0
C547 C 0.81486 0.93974 0.79874 0.0
C548 C 0.85634 0.90783 0.80189 0.0
C549 C 0.8214 0.86998 0.81532 0.0
C550 C 0.78284 0.86726 0.81782 0.0
C551 C 0.7801 0.90234 0.80887 0.0
C552 C 0.89752 0.91217 0.79002 0.0
C553 C 0.74394 0.82751 0.82483 0.0
C554 C 0.83694 0.78316 0.77195 0.0
C555 C 0.86437 0.78712 0.81806 0.0
C556 C 0.81834 0.80694 0.77317 0.0
C557 C 0.82625 0.83387 0.82337 0.0
C558 C 0.84838 0.83245 0.87503 0.0
C559 C 0.86812 0.80976 0.87109 0.0
C560 C 0.79394 0.8058 0.71752 0.0
C561 C 0.85569 0.85893 0.93101 0.0
H562 H 0.87909 0.9713 0.78513 0.0
H563 H 0.75073 0.90048 0.80819 0.0
H564 H 0.91503 0.91966 0.83365 0.0
H565 H 0.89523 0.88412 0.7705 0.0
H566 H 0.91539 0.93735 0.75753 0.0
H567 H 0.72273 0.83144 0.8552 0.0
H568 H 0.72889 0.8179 0.77911 0.0
H569 H 0.74868 0.80296 0.84287 0.0
H570 H 0.83437 0.76596 0.73074 0.0
H571 H 0.88918 0.81248 0.90711 0.0
H572 H 0.79659 0.83562 0.70789 0.0
H573 H 0.76156 0.78342 0.72578 0.0
H574 H 0.80333 0.7959 0.6756 0.0
H575 H 0.88204 0.88948 0.92308 0.0
H576 H 0.86295 0.84655 0.97215 0.0
H577 H 0.82911 0.86263 0.94072 0.0
C578 C 0.93891 0.86696 0.25564 0.0
C579 C 0.90674 0.8556 0.21487 0.0
C580 C 0.96805 0.85614 0.24456 0.0
C581 C 0.96445 0.83293 0.19128 0.0
C582 C 0.93056 0.81924 0.15151 0.0
C583 C 0.90201 0.83132 0.16358 0.0
C584 C 1.00367 0.87155 0.2885 0.0
C585 C 0.92477 0.79327 0.09555 0.0
C586 C 0.07123 0.86516 0.16609 0.0
C587 C 0.07465 0.83923 0.20816 0.0
C588 C 0.03312 0.85917 0.1501 0.0
C589 C 0.99844 0.82656 0.17697 0.0
C590 C 1.00158 0.79623 0.2096 0.0
C591 C 0.04008 0.80312 0.22549 0.0
C592 C 0.03044 0.89089 0.11215 0.0
C593 C 0.96471 0.7604 0.23673 0.0
H594 H 0.94148 0.88507 0.29586 0.0
H595 H 0.87657 0.82262 0.1327 0.0
H596 H 0.03152 0.89349 0.26406 0.0
H597 H 1.00018 0.88714 0.32941 0.0
H598 H 1.00785 0.8463 0.30488 0.0
H599 H 0.93385 0.81261 0.05388 0.0
H600 H 0.94274 0.77765 0.09797 0.0
H601 H 0.8923 0.76996 0.09003 0.0
H602 H 0.09814 0.89224 0.1505 0.0
H603 H 0.04278 0.78234 0.25656 0.0
H604 H 0.0293 0.91343 0.14345 0.0
H605 H 1.00256 0.87705 0.08331 0.0
H606 H 0.05727 0.90719 0.08187 0.0
H607 H 0.9543 0.77055 0.27724 0.0
H608 H 0.97132 0.73648 0.25216 0.0
H609 H 0.93954 0.74726 0.20259 0.0
C610 C 0.21957 0.06536 0.87272 0.0
C611 C 0.24938 0.0856 0.82795 0.0
C612 C 0.19643 0.023 0.87289 0.0
C613 C 0.20366 1.00077 0.82726 0.0
C614 C 0.23862 0.02078 0.79001 0.0
C615 C 0.26076 0.06324 0.79005 0.0
C616 C 0.1601 1.00298 0.91472 0.0
C617 C 0.24899 0.99849 0.74257 0.0
C618 C 0.1252 0.88867 0.81334 0.0
C619 C 0.09891 0.89008 0.76969 0.0
C620 C 0.1606 0.92431 0.83113 0.0
C621 C 0.16892 0.96185 0.80563 0.0
C622 C 0.14236 0.96297 0.76072 0.0
C623 C 0.10784 0.92695 0.74312 0.0
C624 C 0.18921 0.92181 0.87634 0.0
C625 C 0.14992 1.00222 0.73178 0.0
H626 H 0.21133 0.08269 0.90326 0.0
H627 H 0.28344 0.07839 0.75517 0.0
H628 H 0.13254 0.99692 0.88844 0.0
H629 H 0.15545 0.97356 0.93186 0.0
H630 H 0.16327 0.02259 0.95481 0.0
H631 H 0.28238 1.01148 0.74039 0.0
H632 H 0.23449 0.96555 0.75206 0.0
H633 H 0.23886 1.00284 0.69671 0.0
H634 H 0.11816 0.8597 0.83284 0.0
H635 H 0.08712 0.9275 0.70926 0.0
H636 H 0.19202 0.93987 0.91814 0.0
H637 H 0.21979 0.93503 0.85561 0.0
H638 H 0.17899 0.89005 0.89004 0.0
H639 H 0.1257 0.99761 0.69854 0.0
H640 H 0.17925 0.01658 0.70703 0.0
H641 H 0.15176 0.02375 0.76796 0.0
C642 C 0.28532 0.32791 0.17024 0.0
C643 C 0.26584 0.34896 0.14999 0.0
C644 C 0.2987 0.30849 0.12857 0.0
C645 C 0.29191 0.3091 0.06439 0.0
C646 C 0.27109 0.32929 0.04373 0.0
C647 C 0.25925 0.34972 0.08645 0.0
C648 C 0.32117 0.28815 0.15323 0.0
C649 C 0.26177 0.3298 0.97628 0.0
C650 C 0.35014 0.28205 0.94446 0.0
C651 C 0.32295 0.24061 0.93422 0.0
C652 C 0.34143 0.30459 0.98821 0.0
C653 C 0.30374 0.28587 1.02002 0.0
C654 C 0.27685 0.24404 1.00988 0.0
C655 C 0.28749 0.22186 0.96969 0.0
C656 C 0.37169 0.34884 0.9982 0.0
C657 C 0.2355 0.22312 0.03865 0.0
H658 H 0.29212 0.32844 0.21889 0.0
H659 H 0.24541 0.3669 0.07004 0.0
H660 H 0.30494 0.25556 0.14026 0.0
H661 H 0.35175 0.30204 0.13228 0.0
H662 H 0.32462 0.29071 0.20413 0.0
H663 H 0.24308 0.3443 0.96788 0.0
H664 H 0.29046 0.34661 0.95027 0.0
H665 H 0.2454 0.29842 0.95755 0.0
H666 H 0.37708 0.29728 0.9163 0.0
H667 H 0.26627 0.18989 0.96227 0.0
H668 H 0.37667 0.35586 0.0482 0.0
H669 H 0.35962 0.36757 0.97843 0.0
H670 H 0.40129 0.35774 0.97625 0.0
H671 H 0.2387 0.22846 0.08887 0.0
H672 H 0.21863 0.19002 1.02913 0.0
H673 H 0.21733 0.23639 1.0208 0.0
C674 C 0.95899 0.24591 0.6161 0.0
C675 C 0.95717 0.27266 0.65923 0.0
C676 C 0.99136 0.25884 0.57369 0.0
C677 C 0.02397 0.2996 0.57439 0.0
C678 C 0.02263 0.32667 0.61843 0.0
C679 C 0.98932 0.31313 0.65946 0.0
C680 C 0.99065 0.22856 0.52794 0.0
C681 C 0.05682 0.36993 0.62291 0.0
C682 C 0.11801 0.3107 0.48945 0.0
C683 C 0.11224 0.32072 0.42942 0.0
C684 C 0.09193 0.30729 0.53857 0.0
C685 C 0.05849 0.31351 0.52797 0.0
C686 C 0.05571 0.32853 0.4694 0.0
C687 C 0.08285 0.33259 0.4217 0.0
C688 C 0.09803 0.29299 0.60014 0.0
C689 C 1.0212 0.33592 0.45454 0.0
H690 H 0.93474 0.21458 0.61516 0.0
H691 H 0.98896 0.33416 0.69288 0.0
H692 H 0.99278 0.24002 0.48036 0.0
H693 H 1.01729 0.22458 0.53564 0.0
H694 H 0.96271 0.19846 0.53149 0.0
H695 H 0.05164 0.38734 0.65942 0.0
H696 H 0.08566 0.37038 0.63297 0.0
H697 H 0.06067 0.3855 0.57826 0.0
H698 H 0.13976 0.30054 0.4965 0.0
H699 H 0.07716 0.33949 0.37554 0.0
H700 H 0.07771 0.25971 0.6031 0.0
H701 H 0.09053 0.30752 0.63831 0.0
H702 H 0.12974 0.29956 0.60625 0.0
H703 H 0.99277 0.30633 0.44972 0.0
H704 H 0.02635 0.35299 0.41094 0.0
H705 H 1.01668 0.35296 0.49225 0.0
C706 C 0.71421 0.93001 0.1036 0.0
C707 C 0.6823 0.9271 0.13966 0.0
C708 C 0.73506 0.96256 0.06145 0.0
C709 C 0.72372 0.99291 0.05472 0.0
C710 C 0.69207 0.99024 0.09208 0.0
C711 C 0.67224 0.95794 0.13383 0.0
C712 C 0.76892 0.96424 1.02335 0.0
C713 C 0.67827 0.02108 0.08691 0.0
C714 C 0.79667 0.09533 0.97766 0.0
C715 C 0.78307 0.08852 0.9164 0.0
C716 C 0.77721 0.06508 1.02312 0.0
C717 C 0.74356 0.02658 1.00739 0.0
C718 C 0.72844 0.02055 0.94615 0.0
C719 C 0.74845 0.05122 0.90169 0.0
C720 C 0.79491 0.07318 0.08688 0.0
C721 C 0.69212 0.9809 0.92667 0.0
H722 H 0.7224 0.90661 0.10747 0.0
H723 H 0.64798 0.95646 0.16179 0.0
H724 H 0.7748 0.93912 0.03432 0.0
H725 H 0.76134 0.96256 0.97366 0.0
H726 H 0.79716 0.9936 1.03124 0.0
H727 H 0.65354 0.01514 0.1196 0.0
H728 H 0.70407 0.05199 0.0959 0.0
H729 H 0.66731 0.02081 0.03938 0.0
H730 H 0.82439 0.12311 0.98911 0.0
H731 H 0.73848 0.04503 0.85404 0.0
H732 H 0.80918 0.05432 0.09333 0.0
H733 H 0.77094 0.0641 0.12214 0.0
H734 H 0.81821 0.10551 0.0942 0.0
H735 H 0.69961 0.95626 0.92941 0.0
H736 H 0.68219 0.98196 0.87887 0.0
H737 H 0.66639 0.97295 0.95828 0.0
C738 C 0.72672 0.684 0.64611 0.0
C739 C 0.76754 0.6934 0.64737 0.0
C740 C 0.71278 0.70361 0.60517 0.0
C741 C 0.73982 0.73293 0.56265 0.0
C742 C 0.78097 0.74221 0.56346 0.0
C743 C 0.79428 0.72294 0.60588 0.0
C744 C 0.66913 0.69344 0.60822 0.0
C745 C 0.81124 0.77274 0.51928 0.0
C746 C 0.70644 0.75843 0.40941 0.0
C747 C 0.71722 0.79935 0.41778 0.0
C748 C 0.71111 0.73559 0.45694 0.0
C749 C 0.72546 0.75319 0.51604 0.0
C750 C 0.73051 0.79236 0.52714 0.0
C751 C 0.72676 0.81493 0.47811 0.0
C752 C 0.70514 0.69427 0.44142 0.0
C753 C 0.74379 0.81239 0.58932 0.0
H754 H 0.70568 0.6619 0.67836 0.0
H755 H 0.82589 0.73092 0.6062 0.0
H756 H 0.66773 0.7213 0.61864 0.0
H757 H 0.65406 0.68185 0.56296 0.0
H758 H 0.65184 0.67039 0.6439 0.0
H759 H 0.84165 0.77562 0.52371 0.0
H760 H 0.80034 0.76386 0.47117 0.0
H761 H 0.8143 0.80291 0.52784 0.0
H762 H 0.69997 0.74606 0.363 0.0
H763 H 0.73609 0.84661 0.48565 0.0
H764 H 0.68812 0.67222 0.47826 0.0
H765 H 0.73521 0.69635 0.43782 0.0
H766 H 0.6887 0.68241 0.39706 0.0
H767 H 0.72958 0.78996 0.62679 0.0
H768 H 0.73598 0.83669 0.5955 0.0
H769 H 0.77718 0.82643 0.59336 0.0
C770 C 0.96894 0.75137 0.95273 0.0
C771 C 0.95306 0.71659 0.91508 0.0
C772 C 1.00102 0.76144 0.99443 0.0
C773 C 1.01711 0.73528 1.00224 0.0
C774 C 0.99974 0.69871 0.96684 0.0
C775 C 0.96847 0.69013 0.92295 0.0
C776 C 1.01915 0.80136 1.0281 0.0
C777 C 1.01547 0.66957 0.97321 0.0
C778 C 0.12397 0.78212 0.07657 0.0
C779 C 0.115 0.77166 0.13887 0.0
C780 C 0.09276 0.77054 1.03167 0.0
C781 C 0.05128 0.74642 0.04856 0.0
C782 C 0.0423 0.73559 0.11138 0.0
C783 C 0.07395 0.74836 0.15531 0.0
C784 C 0.10427 0.78348 0.96577 0.0
C785 C 0.99901 0.70971 0.13211 0.0
H786 H 0.95778 0.77238 0.94663 0.0
H787 H 0.9576 0.66389 0.89291 0.0
H788 H 1.02116 0.79621 0.0777 0.0
H789 H 0.05046 0.82169 1.01164 0.0
H790 H 1.00136 0.81695 1.02152 0.0
H791 H 0.99653 0.64086 0.9474 0.0
H792 H 0.04692 0.68392 0.9555 0.0
H793 H 1.01651 0.66237 1.02243 0.0
H794 H 0.15547 0.79873 0.06271 0.0
H795 H 0.06655 0.73837 0.2026 0.0
H796 H 0.08889 0.79992 0.94907 0.0
H797 H 0.09396 0.75629 0.936 0.0
H798 H 0.13752 0.80339 0.96017 0.0
H799 H 0.98171 0.72546 0.12235 0.0
H800 H 0.99687 0.70268 0.18201 0.0
H801 H 0.98424 0.68076 0.10582 0.0
C802 C 0.31628 0.08243 0.61648 0.0
C803 C 0.34802 0.08681 0.65523 0.0
C804 C 0.2966 0.04967 0.57418 0.0
C805 C 0.30772 0.01915 0.57057 0.0
C806 C 0.33935 0.02303 0.61015 0.0
C807 C 0.35928 0.05676 0.65103 0.0
C808 C 0.26357 0.04773 0.53321 0.0
C809 C 0.35148 0.99088 0.61049 0.0
C810 C 0.22528 0.92207 0.48918 0.0
C811 C 0.23898 0.92783 0.42798 0.0
C812 C 0.24878 0.94922 0.53724 0.0
C813 C 0.28681 0.9842 0.52423 0.0
C814 C 0.30248 0.98779 0.46382 0.0
C815 C 0.2789 0.95938 0.41731 0.0
C816 C 0.23084 0.94208 0.60078 0.0
C817 C 0.34228 0.02422 0.4461 0.0
H818 H 0.30668 0.10484 0.6191 0.0
H819 H 0.383 0.05887 0.68111 0.0
H820 H 0.27047 0.04545 0.48421 0.0
H821 H 0.23434 0.0202 0.54401 0.0
H822 H 0.25978 0.07469 0.53886 0.0
H823 H 0.37627 0.99781 0.64398 0.0
H824 H 0.32487 0.96115 0.62237 0.0
H825 H 0.36154 0.98769 0.56397 0.0
H826 H 0.19429 0.8988 0.49848 0.0
H827 H 0.28965 0.96526 0.37019 0.0
H828 H 0.21462 0.95933 0.6062 0.0
H829 H 0.25477 0.95237 0.63676 0.0
H830 H 0.20862 0.90949 0.60815 0.0
H831 H 0.33858 0.05136 0.4445 0.0
H832 H 0.35284 0.0203 0.4003 0.0
H833 H 0.3661 0.03028 0.48082 0.0
C834 C 0.73115 0.68511 0.91384 0.0
C835 C 0.77245 0.6967 0.91033 0.0
C836 C 0.71691 0.70276 0.9574 0.0
C837 C 0.74438 0.73244 0.99948 0.0
C838 C 0.78604 0.74398 0.99632 0.0
C839 C 0.79953 0.7263 0.9518 0.0
C840 C 0.67238 0.68946 0.95858 0.0
C841 C 0.81642 0.7743 0.04121 0.0
C842 C 0.72169 0.80715 0.08658 0.0
C843 C 0.71468 0.79134 0.14625 0.0
C844 C 0.72947 0.78735 0.03765 0.0
C845 C 0.72983 0.75064 0.04822 0.0
C846 C 0.71975 0.73321 0.10763 0.0
C847 C 0.71254 0.75376 0.15563 0.0
C848 C 0.73851 0.8065 0.97504 0.0
C849 C 0.71919 0.69412 0.12179 0.0
H850 H 0.70988 0.66252 0.88185 0.0
H851 H 0.83137 0.73518 0.95022 0.0
H852 H 0.65986 0.67807 1.00501 0.0
H853 H 0.6682 0.71578 0.94908 0.0
H854 H 0.65466 0.6653 0.92409 0.0
H855 H 0.84808 0.78518 1.02641 0.0
H856 H 0.81193 0.80079 0.04689 0.0
H857 H 0.81213 0.75985 0.08696 0.0
H858 H 0.72407 0.83643 0.07905 0.0
H859 H 0.70768 0.74158 0.20189 0.0
H860 H 0.71125 0.78941 0.94556 0.0
H861 H 0.76386 0.80475 0.95314 0.0
H862 H 0.74611 0.83873 0.9768 0.0
H863 H 0.70194 0.67092 0.08592 0.0
H864 H 0.70555 0.68178 0.16741 0.0
H865 H 0.75066 0.69955 0.12183 0.0
C866 C 0.09634 0.77528 0.47457 0.0
C867 C 0.10306 0.74998 0.43507 0.0
C868 C 0.06491 0.75902 0.51805 0.0
C869 C 0.03938 0.71638 0.52227 0.0
C870 C 0.04755 0.69064 0.48532 0.0
C871 C 0.07931 0.70769 0.44243 0.0
C872 C 0.05789 0.78763 0.55762 0.0
C873 C 1.02147 0.6451 0.48881 0.0
C874 C 0.97625 0.68579 0.66754 0.0
C875 C 0.94136 0.68614 0.64749 0.0
C876 C 1.00714 0.69203 0.62627 0.0
C877 C 1.00321 0.6993 0.56344 0.0
C878 C 0.96621 0.69558 0.542 0.0
C879 C 0.93568 0.6891 0.58444 0.0
C880 C 0.04568 0.69527 0.65138 0.0
C881 C 0.96052 0.70267 0.47528 0.0
H882 H 0.11444 0.80791 0.46967 0.0
H883 H 0.08416 0.68766 0.41252 0.0
H884 H 0.02793 0.78436 0.54635 0.0
H885 H 0.05739 0.7799 0.60694 0.0
H886 H 0.08159 0.81983 0.55108 0.0
H887 H 0.03431 0.62928 0.46193 0.0
H888 H 1.01784 0.63491 0.53736 0.0
H889 H 0.99076 0.63573 0.47048 0.0
H890 H 0.98125 0.6848 0.71658 0.0
H891 H 0.90933 0.69064 0.56911 0.0
H892 H 0.06905 0.72776 0.65626 0.0
H893 H 0.05775 0.68101 0.61959 0.0
H894 H 0.04092 0.68082 0.6973 0.0
H895 H 0.97944 0.73546 0.46489 0.0
H896 H 0.92841 0.69308 0.46437 0.0
H897 H 0.97055 0.68603 0.44462 0.0
C898 C 0.30411 0.06981 0.94768 0.0
C899 C 0.34009 0.07867 0.91727 0.0
C900 C 0.2861 0.03815 0.99092 0.0
C901 C 0.30501 0.0152 1.00607 0.0
C902 C 0.34124 0.02381 0.97542 0.0
C903 C 0.35808 0.05504 0.93123 0.0
C904 C 0.24696 0.02961 1.0212 0.0
C905 C 0.36268 1.00052 0.99021 0.0
C906 C 0.27864 0.97426 0.16888 0.0
C907 C 0.24734 0.93404 0.15942 0.0
C908 C 0.2992 1.00001 0.11953 0.0
C909 C 0.28885 0.98539 0.05838 0.0
C910 C 0.26076 0.94342 0.04878 0.0
C911 C 0.23998 0.91828 0.09941 0.0
C912 C 0.33069 0.04358 0.13305 0.0
C913 C 0.25244 0.92442 0.98572 0.0
H914 H 0.29043 0.0883 0.93882 0.0
H915 H 0.38577 0.06123 0.9081 0.0
H916 H 0.22339 0.99756 1.01255 0.0
H917 H 0.25122 0.03381 0.07178 0.0
H918 H 0.23575 0.04972 1.00405 0.0
H919 H 0.39157 1.01204 0.96464 0.0
H920 H 0.36926 1.00236 0.04034 0.0
H921 H 0.34269 0.96805 0.97836 0.0
H922 H 0.28573 0.98646 0.21534 0.0
H923 H 0.21674 0.88699 0.09157 0.0
H924 H 0.31856 0.06372 0.12028 0.0
H925 H 0.35833 0.05272 0.10527 0.0
H926 H 0.3394 0.04865 0.18255 0.0
H927 H 0.26039 0.94691 0.94846 0.0
H928 H 0.22017 0.90038 0.98133 0.0
H929 H 0.27092 0.90953 0.9796 0.0
C930 C 0.35197 0.30122 0.68384 0.0
C931 C 0.35455 0.26714 0.66572 0.0
C932 C 0.34376 0.3238 0.64088 0.0
C933 C 0.33805 0.31208 0.57804 0.0
C934 C 0.34517 0.28049 0.55867 0.0
C935 C 0.35326 0.25831 0.60284 0.0
C936 C 0.33689 0.35731 0.66408 0.0
C937 C 0.34004 0.26729 0.4921 0.0
C938 C 0.26011 0.32379 0.48229 0.0
C939 C 0.28473 0.35691 0.44466 0.0
C940 C 0.27709 0.30977 0.52685 0.0
C941 C 0.31984 0.32912 0.53425 0.0
C942 C 0.34476 0.36378 0.49862 0.0
C943 C 0.32698 0.37736 0.45464 0.0
C944 C 0.24918 0.27373 0.56545 0.0
C945 C 0.39034 0.3856 0.50516 0.0
H946 H 0.35201 0.30756 0.7326 0.0
H947 H 0.35415 0.23139 0.58875 0.0
H948 H 0.34957 0.38332 0.63192 0.0
H949 H 0.30381 0.34571 0.66757 0.0
H950 H 0.35066 0.3683 0.71037 0.0
H951 H 0.35205 0.24647 0.48309 0.0
H952 H 0.30733 0.25134 0.47979 0.0
H953 H 0.35568 0.29397 0.46148 0.0
H954 H 0.22752 0.30784 0.47552 0.0
H955 H 0.34654 0.40309 0.42623 0.0
H956 H 0.25317 0.28315 0.61447 0.0
H957 H 0.25708 0.24944 0.5608 0.0
H958 H 0.21676 0.26108 0.55273 0.0
H959 H 0.39931 0.39353 0.55413 0.0
H960 H 0.40535 0.41376 0.47736 0.0
H961 H 0.40181 0.36529 0.49008 0.0
C962 C 0.06915 0.32223 0.1692 0.0
C963 C 0.10464 0.32035 0.15886 0.0
C964 C 0.04146 0.31588 0.12139 0.0
C965 C 0.04891 0.30696 0.06109 0.0
C966 C 0.08603 0.30758 0.04965 0.0
C967 C 0.11355 0.31448 0.09848 0.0
C968 C 1.00287 0.31606 0.13654 0.0
C969 C 0.09608 0.29947 0.9862 0.0
C970 C 0.95513 0.23868 0.96215 0.0
C971 C 0.95242 0.26638 0.92265 0.0
C972 C 0.98629 0.25154 1.00681 0.0
C973 C 1.01619 0.29317 1.01217 0.0
C974 C 1.01372 0.32128 0.9722 0.0
C975 C 0.98188 0.30767 0.92846 0.0
C976 C 0.98655 0.22047 0.0494 0.0
C977 C 0.04469 0.36584 0.97578 0.0
H978 H 0.06177 0.3263 0.21595 0.0
H979 H 0.1405 0.31234 0.09013 0.0
H980 H 0.99688 0.33395 0.10212 0.0
H981 H 0.97693 0.28457 0.13491 0.0
H982 H 1.00404 0.32881 0.18311 0.0
H983 H 0.10502 0.32666 0.95746 0.0
H984 H 0.12142 0.29288 0.98664 0.0
H985 H 0.06921 0.27369 0.96424 0.0
H986 H 0.93239 0.20683 0.95885 0.0
H987 H 0.98043 0.32944 0.89807 0.0
H988 H 0.97646 0.22382 0.09582 0.0
H989 H 1.01756 0.22494 0.05423 0.0
H990 H 0.96591 0.18917 1.0328 0.0
H991 H 0.04561 0.37751 1.02301 0.0
H992 H 0.03816 0.38406 0.94263 0.0
H993 H 0.07527 0.37037 0.966 0.0
C994 C 0.74004 0.06295 0.66939 0.0
C995 C 0.77542 0.09846 0.65213 0.0
C996 C 0.71756 0.03184 0.62655 0.0
C997 C 0.73057 0.03644 0.5646 0.0
C998 C 0.76382 0.07404 0.54568 0.0
C999 C 0.78602 0.10455 0.58982 0.0
C1000 C 0.68249 0.99253 0.64925 0.0
C1001 C 0.77832 0.08064 0.47991 0.0
C1002 C 0.7145 0.94411 0.47147 0.0
C1003 C 0.68228 0.9373 0.43227 0.0
C1004 C 0.72952 0.97535 0.51601 0.0
C1005 C 0.71232 1.00085 0.52129 0.0
C1006 C 0.67862 0.99294 0.48392 0.0
C1007 C 0.66385 0.96119 0.44041 0.0
C1008 C 0.76454 0.98173 0.55649 0.0
C1009 C 0.65923 0.01914 0.48796 0.0
H1010 H 0.73241 0.05769 0.71787 0.0
H1011 H 0.81398 0.13136 0.57657 0.0
H1012 H 0.65675 0.98035 0.6162 0.0
H1013 H 0.69233 0.96966 0.65366 0.0
H1014 H 0.67169 0.99627 0.69497 0.0
H1015 H 0.8008 0.11293 0.47081 0.0
H1016 H 0.79271 0.06205 0.47007 0.0
H1017 H 0.75241 0.07076 0.44756 0.0
H1018 H 0.72895 0.92591 0.46603 0.0
H1019 H 0.63886 0.95637 0.4108 0.0
H1020 H 0.75582 0.97992 0.60554 0.0
H1021 H 0.7909 1.01243 0.54888 0.0
H1022 H 0.77404 0.9589 0.54772 0.0
H1023 H 0.6509 0.02106 0.53626 0.0
H1024 H 0.63165 1.00749 0.45859 0.0
H1025 H 0.68128 0.05043 0.47321 0.0
loop_
_geom_bond_atom_site_label_1
_geom_bond_atom_site_label_2
_geom_bond_distance
_geom_bond_site_symmetry_2
_ccdc_geom_bond_type
Co0 N1 2.034 1_455 S
Co0 O15 2.262 . S
Co0 O19 1.958 . S
Co0 O23 1.950 . S
Co0 O24 2.057 . S
N1 Co0 2.034 1_655 S
N1 C2 1.366 . S
N1 C4 1.332 . S
C2 N1 1.366 . S
C2 C5 1.377 . S
C2 H34 0.931 1_655 S
N3 C4 1.346 . S
N3 C5 1.337 . S
C4 N1 1.332 . S
C4 N3 1.346 . S
C4 C38 1.361 . S
C5 C2 1.377 . S
C5 N3 1.337 . S
C5 H41 0.930 . S
Co6 N7 2.034 . S
Co6 O20 1.950 . S
Co6 O21 2.262 . S
Co6 O22 1.958 . S
Co6 O26 2.057 . S
N7 Co6 2.034 . S
N7 C10 1.366 . S
N7 C11 1.332 . S
N8 C9 1.337 . S
N8 C11 1.346 . S
C9 N8 1.337 . S
C9 C10 1.377 . S
C9 H42 0.930 . S
C10 N7 1.366 . S
C10 C9 1.377 . S
C10 H14 0.931 . S
C11 N7 1.332 . S
C11 N8 1.346 . S
C11 C28 1.361 . S
Co12 O15 2.097 . S
Co12 O16 2.065 . S
Co12 O17 2.065 . S
Co12 O18 2.042 . S
Co12 O21 2.097 . S
Co12 O25 2.042 . S
C13 O21 1.253 . S
C13 O26 1.263 . S
H14 C10 0.931 . S
O15 Co0 2.262 . S
O15 Co12 2.097 . S
O15 C39 1.253 . S
O16 Co12 2.065 . S
O16 C32 1.221 . S
O17 Co12 2.065 . S
O17 C27 1.221 . S
O18 Co12 2.042 . S
O18 C33 1.237 . S
O19 Co0 1.958 . S
O19 C33 1.278 . S
O20 Co6 1.950 . S
O20 C32 1.277 . S
O21 Co6 2.262 . S
O21 Co12 2.097 . S
O21 C13 1.253 . S
O22 Co6 1.958 . S
O22 C40 1.278 . S
O23 Co0 1.950 . S
O23 C27 1.277 . S
O24 Co0 2.057 . S
O24 C39 1.263 . S
O25 Co12 2.042 . S
O25 C40 1.237 . S
O26 Co6 2.057 . S
O26 C13 1.263 . S
C27 O17 1.221 . S
C27 O23 1.277 . S
C28 C11 1.361 . S
C28 H29 0.960 . S
C28 H30 0.961 . S
C28 H31 0.961 . S
H29 C28 0.960 . S
H30 C28 0.961 . S
H31 C28 0.961 . S
C32 O16 1.221 . S
C32 O20 1.277 . S
C33 O18 1.237 . S
C33 O19 1.278 . S
H34 C2 0.931 1_455 S
H35 C38 0.961 . S
H36 C38 0.961 . S
H37 C38 0.960 . S
C38 C4 1.361 . S
C38 H35 0.961 . S
C38 H36 0.961 . S
C38 H37 0.960 . S
C39 O15 1.253 . S
C39 O24 1.263 . S
C40 O22 1.278 . S
C40 O25 1.237 . S
H41 C5 0.930 . S
H42 C9 0.930 . S
Co43 N44 2.034 1_545 S
Co43 O58 2.262 . S
Co43 O62 1.958 . S
Co43 O66 1.950 . S
Co43 O67 2.057 . S
N44 Co43 2.034 1_565 S
N44 C45 1.366 . S
N44 C47 1.332 . S
C45 N44 1.366 . S
C45 C48 1.377 . S
C45 H77 0.931 . S
N46 C47 1.346 . S
N46 C48 1.337 . S
C47 N44 1.332 . S
C47 N46 1.346 . S
C47 C81 1.361 . S
C48 C45 1.377 . S
C48 N46 1.337 . S
C48 H84 0.930 . S
Co49 N50 2.034 . S
Co49 O63 1.950 . S
Co49 O64 2.262 . S
Co49 O65 1.958 . S
Co49 O69 2.057 . S
N50 Co49 2.034 . S
N50 C53 1.366 . S
N50 C54 1.332 . S
N51 C52 1.337 . S
N51 C54 1.346 . S
C52 N51 1.337 . S
C52 C53 1.377 . S
C52 H85 0.930 . S
C53 N50 1.366 . S
C53 C52 1.377 . S
C53 H57 0.931 . S
C54 N50 1.332 . S
C54 N51 1.346 . S
C54 C71 1.361 . S
Co55 O58 2.097 . S
Co55 O59 2.065 . S
Co55 O60 2.065 . S
Co55 O61 2.042 . S
Co55 O64 2.097 . S
Co55 O68 2.042 . S
C56 O64 1.253 . S
C56 O69 1.263 . S
H57 C53 0.931 . S
O58 Co43 2.262 . S
O58 Co55 2.097 . S
O58 C82 1.253 . S
O59 Co55 2.065 . S
O59 C75 1.221 . S
O60 Co55 2.065 . S
O60 C70 1.221 . S
O61 Co55 2.042 . S
O61 C76 1.237 . S
O62 Co43 1.958 . S
O62 C76 1.278 . S
O63 Co49 1.950 . S
O63 C75 1.277 . S
O64 Co49 2.262 . S
O64 Co55 2.097 . S
O64 C56 1.253 . S
O65 Co49 1.958 . S
O65 C83 1.278 . S
O66 Co43 1.950 . S
O66 C70 1.277 . S
O67 Co43 2.057 . S
O67 C82 1.263 . S
O68 Co55 2.042 . S
O68 C83 1.237 . S
O69 Co49 2.057 . S
O69 C56 1.263 . S
C70 O60 1.221 . S
C70 O66 1.277 . S
C71 C54 1.361 . S
C71 H72 0.960 . S
C71 H73 0.961 . S
C71 H74 0.961 . S
H72 C71 0.960 . S
H73 C71 0.961 . S
H74 C71 0.961 . S
C75 O59 1.221 . S
C75 O63 1.277 . S
C76 O61 1.237 . S
C76 O62 1.278 . S
H77 C45 0.931 . S
H78 C81 0.961 . S
H79 C81 0.961 . S
H80 C81 0.960 . S
C81 C47 1.361 . S
C81 H78 0.961 . S
C81 H79 0.961 . S
C81 H80 0.960 . S
C82 O58 1.253 . S
C82 O67 1.263 . S
C83 O65 1.278 . S
C83 O68 1.237 . S
H84 C48 0.930 . S
H85 C52 0.930 . S
Co86 N87 2.034 . S
Co86 O101 2.262 . S
Co86 O105 1.958 . S
Co86 O109 1.950 . S
Co86 O110 2.057 . S
N87 Co86 2.034 . S
N87 C88 1.366 . S
N87 C90 1.332 . S
C88 N87 1.366 . S
C88 C91 1.377 . S
C88 H120 0.931 . S
N89 C90 1.346 . S
N89 C91 1.337 . S
C90 N87 1.332 . S
C90 N89 1.346 . S
C90 C124 1.361 . S
C91 C88 1.377 . S
C91 N89 1.337 . S
C91 H127 0.930 . S
Co92 N93 2.034 . S
Co92 O106 1.950 . S
Co92 O107 2.262 . S
Co92 O108 1.958 . S
Co92 O112 2.057 . S
N93 Co92 2.034 . S
N93 C96 1.366 . S
N93 C97 1.332 . S
N94 C95 1.337 . S
N94 C97 1.346 . S
C95 N94 1.337 . S
C95 C96 1.377 . S
C95 H128 0.930 . S
C96 N93 1.366 . S
C96 C95 1.377 . S
C96 H100 0.931 . S
C97 N93 1.332 . S
C97 N94 1.346 . S
C97 C114 1.361 . S
Co98 O101 2.097 . S
Co98 O102 2.065 . S
Co98 O103 2.065 . S
Co98 O104 2.042 . S
Co98 O107 2.097 . S
Co98 O111 2.042 . S
C99 O107 1.253 . S
C99 O112 1.263 . S
H100 C96 0.931 . S
O101 Co86 2.262 . S
O101 Co98 2.097 . S
O101 C125 1.253 . S
O102 Co98 2.065 . S
O102 C118 1.221 . S
O103 Co98 2.065 . S
O103 C113 1.221 . S
O104 Co98 2.042 . S
O104 C119 1.237 . S
O105 Co86 1.958 . S
O105 C119 1.278 . S
O106 Co92 1.950 . S
O106 C118 1.277 . S
O107 Co92 2.262 . S
O107 Co98 2.097 . S
O107 C99 1.253 . S
O108 Co92 1.958 . S
O108 C126 1.278 . S
O109 Co86 1.950 . S
O109 C113 1.277 . S
O110 Co86 2.057 . S
O110 C125 1.263 . S
O111 Co98 2.042 . S
O111 C126 1.237 . S
O112 Co92 2.057 . S
O112 C99 1.263 . S
C113 O103 1.221 . S
C113 O109 1.277 . S
C114 C97 1.361 . S
C114 H115 0.960 . S
C114 H116 0.961 . S
C114 H117 0.961 . S
H115 C114 0.960 . S
H116 C114 0.961 . S
H117 C114 0.961 . S
C118 O102 1.221 . S
C118 O106 1.277 . S
C119 O104 1.237 . S
C119 O105 1.278 . S
H120 C88 0.931 . S
H121 C124 0.961 . S
H122 C124 0.961 . S
H123 C124 0.960 . S
C124 C90 1.361 . S
C124 H121 0.961 . S
C124 H122 0.961 . S
C124 H123 0.960 . S
C125 O101 1.253 . S
C125 O110 1.263 . S
C126 O108 1.278 . S
C126 O111 1.237 . S
H127 C91 0.930 . S
H128 C95 0.930 . S
Co129 N130 2.034 1_655 S
Co129 O144 2.262 . S
Co129 O148 1.958 . S
Co129 O152 1.950 . S
Co129 O153 2.057 . S
N130 Co129 2.034 1_455 S
N130 C131 1.366 . S
N130 C133 1.332 . S
C131 N130 1.366 . S
C131 C134 1.377 . S
C131 H163 0.931 . S
N132 C133 1.346 . S
N132 C134 1.337 . S
C133 N130 1.332 . S
C133 N132 1.346 . S
C133 C167 1.361 . S
C134 C131 1.377 . S
C134 N132 1.337 . S
C134 H170 0.930 . S
Co135 N136 2.034 . S
Co135 O149 1.950 . S
Co135 O150 2.262 . S
Co135 O151 1.958 . S
Co135 O155 2.057 . S
N136 Co135 2.034 . S
N136 C139 1.366 . S
N136 C140 1.332 . S
N137 C138 1.337 . S
N137 C140 1.346 . S
C138 N137 1.337 . S
C138 C139 1.377 . S
C138 H171 0.930 . S
C139 N136 1.366 . S
C139 C138 1.377 . S
C139 H143 0.931 . S
C140 N136 1.332 . S
C140 N137 1.346 . S
C140 C157 1.361 . S
Co141 O144 2.097 . S
Co141 O145 2.065 . S
Co141 O146 2.065 . S
Co141 O147 2.042 . S
Co141 O150 2.097 . S
Co141 O154 2.042 . S
C142 O150 1.253 . S
C142 O155 1.263 . S
H143 C139 0.931 . S
O144 Co129 2.262 . S
O144 Co141 2.097 . S
O144 C168 1.253 . S
O145 Co141 2.065 . S
O145 C161 1.221 . S
O146 Co141 2.065 . S
O146 C156 1.221 . S
O147 Co141 2.042 . S
O147 C162 1.237 . S
O148 Co129 1.958 . S
O148 C162 1.278 . S
O149 Co135 1.950 . S
O149 C161 1.277 . S
O150 Co135 2.262 . S
O150 Co141 2.097 . S
O150 C142 1.253 . S
O151 Co135 1.958 . S
O151 C169 1.278 . S
O152 Co129 1.950 . S
O152 C156 1.277 . S
O153 Co129 2.057 . S
O153 C168 1.263 . S
O154 Co141 2.042 . S
O154 C169 1.237 . S
O155 Co135 2.057 . S
O155 C142 1.263 . S
C156 O146 1.221 . S
C156 O152 1.277 . S
C157 C140 1.361 . S
C157 H158 0.960 . S
C157 H159 0.961 . S
C157 H160 0.961 . S
H158 C157 0.960 . S
H159 C157 0.961 . S
H160 C157 0.961 . S
C161 O145 1.221 . S
C161 O149 1.277 . S
C162 O147 1.237 . S
C162 O148 1.278 . S
H163 C131 0.931 . S
H164 C167 0.961 . S
H165 C167 0.961 . S
H166 C167 0.960 . S
C167 C133 1.361 . S
C167 H164 0.961 . S
C167 H165 0.961 . S
C167 H166 0.960 . S
C168 O144 1.253 . S
C168 O153 1.263 . S
C169 O151 1.278 . S
C169 O154 1.237 . S
H170 C134 0.930 . S
H171 C138 0.930 . S
Co172 N173 2.034 . S
Co172 O187 2.262 . S
Co172 O191 1.958 . S
Co172 O195 1.950 . S
Co172 O196 2.057 . S
N173 Co172 2.034 . S
N173 C174 1.366 . S
N173 C176 1.332 . S
C174 N173 1.366 . S
C174 C177 1.377 . S
C174 H206 0.931 . S
N175 C176 1.346 . S
N175 C177 1.337 . S
C176 N173 1.332 . S
C176 N175 1.346 . S
C176 C210 1.361 . S
C177 C174 1.377 . S
C177 N175 1.337 . S
C177 H213 0.930 . S
Co178 N179 2.034 1_565 S
Co178 O192 1.950 . S
Co178 O193 2.262 . S
Co178 O194 1.958 . S
Co178 O198 2.057 . S
N179 Co178 2.034 1_545 S
N179 C182 1.366 . S
N179 C183 1.332 . S
N180 C181 1.337 . S
N180 C183 1.346 . S
C181 N180 1.337 . S
C181 C182 1.377 . S
C181 H214 0.930 . S
C182 N179 1.366 . S
C182 C181 1.377 . S
C182 H186 0.931 1_545 S
C183 N179 1.332 . S
C183 N180 1.346 . S
C183 C200 1.361 . S
Co184 O187 2.097 . S
Co184 O188 2.065 . S
Co184 O189 2.065 . S
Co184 O190 2.042 . S
Co184 O193 2.097 . S
Co184 O197 2.042 . S
C185 O193 1.253 . S
C185 O198 1.263 . S
H186 C182 0.931 1_565 S
O187 Co172 2.262 . S
O187 Co184 2.097 . S
O187 C211 1.253 . S
O188 Co184 2.065 . S
O188 C204 1.221 . S
O189 Co184 2.065 . S
O189 C199 1.221 . S
O190 Co184 2.042 . S
O190 C205 1.237 . S
O191 Co172 1.958 . S
O191 C205 1.278 . S
O192 Co178 1.950 . S
O192 C204 1.277 . S
O193 Co178 2.262 . S
O193 Co184 2.097 . S
O193 C185 1.253 . S
O194 Co178 1.958 . S
O194 C212 1.278 . S
O195 Co172 1.950 . S
O195 C199 1.277 . S
O196 Co172 2.057 . S
O196 C211 1.263 . S
O197 Co184 2.042 . S
O197 C212 1.237 . S
O198 Co178 2.057 . S
O198 C185 1.263 . S
C199 O189 1.221 . S
C199 O195 1.277 . S
C200 C183 1.361 . S
C200 H201 0.960 . S
C200 H202 0.961 . S
C200 H203 0.961 . S
H201 C200 0.960 . S
H202 C200 0.961 . S
H203 C200 0.961 . S
C204 O188 1.221 . S
C204 O192 1.277 . S
C205 O190 1.237 . S
C205 O191 1.278 . S
H206 C174 0.931 . S
H207 C210 0.961 . S
H208 C210 0.961 . S
H209 C210 0.960 . S
C210 C176 1.361 . S
C210 H207 0.961 . S
C210 H208 0.961 . S
C210 H209 0.960 . S
C211 O187 1.253 . S
C211 O196 1.263 . S
C212 O194 1.278 . S
C212 O197 1.237 . S
H213 C177 0.930 . S
H214 C181 0.930 . S
Co215 N216 2.034 . S
Co215 O230 2.262 . S
Co215 O234 1.958 . S
Co215 O238 1.950 . S
Co215 O239 2.057 . S
N216 Co215 2.034 . S
N216 C217 1.366 . S
N216 C219 1.332 . S
C217 N216 1.366 . S
C217 C220 1.377 . S
C217 H249 0.931 . S
N218 C219 1.346 . S
N218 C220 1.337 . S
C219 N216 1.332 . S
C219 N218 1.346 . S
C219 C253 1.361 . S
C220 C217 1.377 . S
C220 N218 1.337 . S
C220 H256 0.930 . S
Co221 N222 2.034 . S
Co221 O235 1.950 . S
Co221 O236 2.262 . S
Co221 O237 1.958 . S
Co221 O241 2.057 . S
N222 Co221 2.034 . S
N222 C225 1.366 . S
N222 C226 1.332 . S
N223 C224 1.337 . S
N223 C226 1.346 . S
C224 N223 1.337 . S
C224 C225 1.377 . S
C224 H257 0.930 . S
C225 N222 1.366 . S
C225 C224 1.377 . S
C225 H229 0.931 . S
C226 N222 1.332 . S
C226 N223 1.346 . S
C226 C243 1.361 . S
Co227 O230 2.097 . S
Co227 O231 2.065 . S
Co227 O232 2.065 . S
Co227 O233 2.042 . S
Co227 O236 2.097 . S
Co227 O240 2.042 . S
C228 O236 1.253 . S
C228 O241 1.263 . S
H229 C225 0.931 . S
O230 Co215 2.262 . S
O230 Co227 2.097 . S
O230 C254 1.253 . S
O231 Co227 2.065 . S
O231 C247 1.221 . S
O232 Co227 2.065 . S
O232 C242 1.221 . S
O233 Co227 2.042 . S
O233 C248 1.237 . S
O234 Co215 1.958 . S
O234 C248 1.278 . S
O235 Co221 1.950 . S
O235 C247 1.277 . S
O236 Co221 2.262 . S
O236 Co227 2.097 . S
O236 C228 1.253 . S
O237 Co221 1.958 . S
O237 C255 1.278 . S
O238 Co215 1.950 . S
O238 C242 1.277 . S
O239 Co215 2.057 . S
O239 C254 1.263 . S
O240 Co227 2.042 . S
O240 C255 1.237 . S
O241 Co221 2.057 . S
O241 C228 1.263 . S
C242 O232 1.221 . S
C242 O238 1.277 . S
C243 C226 1.361 . S
C243 H244 0.960 . S
C243 H245 0.961 . S
C243 H246 0.961 . S
H244 C243 0.960 . S
H245 C243 0.961 . S
H246 C243 0.961 . S
C247 O231 1.221 . S
C247 O235 1.277 . S
C248 O233 1.237 . S
C248 O234 1.278 . S
H249 C217 0.931 . S
H250 C253 0.961 . S
H251 C253 0.961 . S
H252 C253 0.960 . S
C253 C219 1.361 . S
C253 H250 0.961 . S
C253 H251 0.961 . S
C253 H252 0.960 . S
C254 O230 1.253 . S
C254 O239 1.263 . S
C255 O237 1.278 . S
C255 O240 1.237 . S
H256 C220 0.930 . S
H257 C224 0.930 . S
C258 C259 1.391 . S
C258 C260 1.394 . S
C258 H274 0.931 . S
C259 C258 1.391 . S
C259 C263 1.376 . S
C260 C258 1.394 . S
C260 C261 1.369 . S
C260 C264 1.531 . S
C261 C260 1.369 . S
C261 C262 1.410 . S
C261 C269 1.503 . S
C262 C261 1.410 . S
C262 C263 1.392 . S
C262 C265 1.511 . S
C263 C259 1.376 . S
C263 C262 1.392 . S
C263 H275 0.929 . S
C264 C260 1.531 . S
C264 H276 0.960 . S
C264 H277 0.962 . S
C264 H278 0.960 . S
C265 C262 1.511 . S
C265 H279 0.961 . S
C265 H280 0.961 . S
C265 H281 0.961 . S
C266 C267 1.370 . S
C266 C268 1.363 . S
C266 H282 0.931 . S
C267 C266 1.370 . S
C267 C271 1.408 . S
C268 C266 1.363 . S
C268 C269 1.370 . S
C268 C272 1.524 . S
C269 C261 1.503 . S
C269 C268 1.370 . S
C269 C270 1.403 . S
C270 C269 1.403 . S
C270 C271 1.404 . S
C270 C273 1.539 . S
C271 C267 1.408 . S
C271 C270 1.404 . S
C271 H283 0.930 . S
C272 C268 1.524 . S
C272 H284 0.956 . S
C272 H285 0.961 . S
C272 H286 0.961 . S
C273 C270 1.539 . S
C273 H287 0.958 . S
C273 H288 0.961 . S
C273 H289 0.960 . S
H274 C258 0.931 . S
H275 C263 0.929 . S
H276 C264 0.960 . S
H277 C264 0.962 . S
H278 C264 0.960 . S
H279 C265 0.961 . S
H280 C265 0.961 . S
H281 C265 0.961 . S
H282 C266 0.931 . S
H283 C271 0.930 . S
H284 C272 0.956 . S
H285 C272 0.961 . S
H286 C272 0.961 . S
H287 C273 0.958 . S
H288 C273 0.961 . S
H289 C273 0.960 . S
C290 C291 1.391 . S
C290 C292 1.394 . S
C290 H306 0.931 . S
C291 C290 1.391 . S
C291 C295 1.376 . S
C292 C290 1.394 . S
C292 C293 1.369 . S
C292 C296 1.531 . S
C293 C292 1.369 . S
C293 C294 1.410 . S
C293 C301 1.503 . S
C294 C293 1.410 . S
C294 C295 1.392 . S
C294 C297 1.511 . S
C295 C291 1.376 . S
C295 C294 1.392 . S
C295 H307 0.929 . S
C296 C292 1.531 . S
C296 H308 0.960 . S
C296 H309 0.962 . S
C296 H310 0.960 . S
C297 C294 1.511 . S
C297 H311 0.961 . S
C297 H312 0.961 . S
C297 H313 0.961 . S
C298 C299 1.370 . S
C298 C300 1.363 . S
C298 H314 0.931 . S
C299 C298 1.370 . S
C299 C303 1.408 . S
C300 C298 1.363 . S
C300 C301 1.370 . S
C300 C304 1.524 . S
C301 C293 1.503 . S
C301 C300 1.370 . S
C301 C302 1.403 . S
C302 C301 1.403 . S
C302 C303 1.404 . S
C302 C305 1.539 . S
C303 C299 1.408 . S
C303 C302 1.404 . S
C303 H315 0.930 . S
C304 C300 1.524 . S
C304 H316 0.956 . S
C304 H317 0.961 . S
C304 H318 0.961 . S
C305 C302 1.539 . S
C305 H319 0.958 . S
C305 H320 0.961 . S
C305 H321 0.960 . S
H306 C290 0.931 . S
H307 C295 0.929 . S
H308 C296 0.960 . S
H309 C296 0.962 . S
H310 C296 0.960 . S
H311 C297 0.961 . S
H312 C297 0.961 . S
H313 C297 0.961 . S
H314 C298 0.931 . S
H315 C303 0.930 . S
H316 C304 0.956 . S
H317 C304 0.961 . S
H318 C304 0.961 . S
H319 C305 0.958 . S
H320 C305 0.961 . S
H321 C305 0.960 . S
C322 C323 1.391 . S
C322 C324 1.394 . S
C322 H338 0.931 . S
C323 C322 1.391 . S
C323 C327 1.376 . S
C324 C322 1.394 . S
C324 C325 1.369 . S
C324 C328 1.531 . S
C325 C324 1.369 . S
C325 C326 1.410 . S
C325 C333 1.503 . S
C326 C325 1.410 . S
C326 C327 1.392 . S
C326 C329 1.511 . S
C327 C323 1.376 . S
C327 C326 1.392 . S
C327 H339 0.929 . S
C328 C324 1.531 . S
C328 H340 0.960 . S
C328 H341 0.962 . S
C328 H342 0.960 . S
C329 C326 1.511 . S
C329 H343 0.961 . S
C329 H344 0.961 . S
C329 H345 0.961 . S
C330 C331 1.370 . S
C330 C332 1.363 . S
C330 H346 0.931 . S
C331 C330 1.370 . S
C331 C335 1.408 . S
C332 C330 1.363 . S
C332 C333 1.370 . S
C332 C336 1.524 . S
C333 C325 1.503 . S
C333 C332 1.370 . S
C333 C334 1.403 . S
C334 C333 1.403 . S
C334 C335 1.404 . S
C334 C337 1.539 . S
C335 C331 1.408 . S
C335 C334 1.404 . S
C335 H347 0.930 . S
C336 C332 1.524 . S
C336 H348 0.956 . S
C336 H349 0.961 . S
C336 H350 0.961 . S
C337 C334 1.539 . S
C337 H351 0.958 . S
C337 H352 0.961 . S
C337 H353 0.960 . S
H338 C322 0.931 . S
H339 C327 0.929 . S
H340 C328 0.960 . S
H341 C328 0.962 . S
H342 C328 0.960 . S
H343 C329 0.961 . S
H344 C329 0.961 . S
H345 C329 0.961 . S
H346 C330 0.931 . S
H347 C335 0.930 . S
H348 C336 0.956 . S
H349 C336 0.961 . S
H350 C336 0.961 . S
H351 C337 0.958 . S
H352 C337 0.961 . S
H353 C337 0.960 . S
C354 C355 1.391 . S
C354 C356 1.394 . S
C354 H370 0.931 . S
C355 C354 1.391 . S
C355 C359 1.376 . S
C356 C354 1.394 . S
C356 C357 1.369 . S
C356 C360 1.531 . S
C357 C356 1.369 . S
C357 C358 1.410 . S
C357 C365 1.503 . S
C358 C357 1.410 . S
C358 C359 1.392 . S
C358 C361 1.511 . S
C359 C355 1.376 . S
C359 C358 1.392 . S
C359 H371 0.929 . S
C360 C356 1.531 . S
C360 H372 0.960 . S
C360 H373 0.962 . S
C360 H374 0.960 . S
C361 C358 1.511 . S
C361 H375 0.961 . S
C361 H376 0.961 . S
C361 H377 0.961 . S
C362 C363 1.370 . S
C362 C364 1.363 . S
C362 H378 0.931 . S
C363 C362 1.370 . S
C363 C367 1.408 . S
C364 C362 1.363 . S
C364 C365 1.370 . S
C364 C368 1.524 . S
C365 C357 1.503 . S
C365 C364 1.370 . S
C365 C366 1.403 . S
C366 C365 1.403 . S
C366 C367 1.404 . S
C366 C369 1.539 . S
C367 C363 1.408 . S
C367 C366 1.404 . S
C367 H379 0.930 . S
C368 C364 1.524 . S
C368 H380 0.956 . S
C368 H381 0.961 . S
C368 H382 0.961 . S
C369 C366 1.539 . S
C369 H383 0.958 . S
C369 H384 0.961 . S
C369 H385 0.960 . S
H370 C354 0.931 . S
H371 C359 0.929 . S
H372 C360 0.960 . S
H373 C360 0.962 . S
H374 C360 0.960 . S
H375 C361 0.961 . S
H376 C361 0.961 . S
H377 C361 0.961 . S
H378 C362 0.931 . S
H379 C367 0.930 . S
H380 C368 0.956 . S
H381 C368 0.961 . S
H382 C368 0.961 . S
H383 C369 0.958 . S
H384 C369 0.961 . S
H385 C369 0.960 . S
C386 C387 1.391 . S
C386 C388 1.394 . S
C386 H402 0.931 . S
C387 C386 1.391 . S
C387 C391 1.376 . S
C388 C386 1.394 . S
C388 C389 1.369 . S
C388 C392 1.531 . S
C389 C388 1.369 . S
C389 C390 1.410 . S
C389 C397 1.503 . S
C390 C389 1.410 . S
C390 C391 1.392 . S
C390 C393 1.511 . S
C391 C387 1.376 . S
C391 C390 1.392 . S
C391 H403 0.929 . S
C392 C388 1.531 . S
C392 H404 0.960 . S
C392 H405 0.962 . S
C392 H406 0.960 . S
C393 C390 1.511 . S
C393 H407 0.961 . S
C393 H408 0.961 . S
C393 H409 0.961 . S
C394 C395 1.370 . S
C394 C396 1.363 . S
C394 H410 0.931 . S
C395 C394 1.370 . S
C395 C399 1.408 . S
C396 C394 1.363 . S
C396 C397 1.370 . S
C396 C400 1.524 . S
C397 C389 1.503 . S
C397 C396 1.370 . S
C397 C398 1.403 . S
C398 C397 1.403 . S
C398 C399 1.404 . S
C398 C401 1.539 . S
C399 C395 1.408 . S
C399 C398 1.404 . S
C399 H411 0.930 . S
C400 C396 1.524 . S
C400 H412 0.956 . S
C400 H413 0.961 . S
C400 H414 0.961 . S
C401 C398 1.539 . S
C401 H415 0.958 . S
C401 H416 0.961 . S
C401 H417 0.960 . S
H402 C386 0.931 . S
H403 C391 0.929 . S
H404 C392 0.960 . S
H405 C392 0.962 . S
H406 C392 0.960 . S
H407 C393 0.961 . S
H408 C393 0.961 . S
H409 C393 0.961 . S
H410 C394 0.931 . S
H411 C399 0.930 . S
H412 C400 0.956 . S
H413 C400 0.961 . S
H414 C400 0.961 . S
H415 C401 0.958 . S
H416 C401 0.961 . S
H417 C401 0.960 . S
C418 C419 1.391 . S
C418 C420 1.394 . S
C418 H434 0.931 . S
C419 C418 1.391 . S
C419 C423 1.376 . S
C420 C418 1.394 . S
C420 C421 1.369 . S
C420 C424 1.531 . S
C421 C420 1.369 . S
C421 C422 1.410 . S
C421 C429 1.503 . S
C422 C421 1.410 . S
C422 C423 1.392 . S
C422 C425 1.511 . S
C423 C419 1.376 . S
C423 C422 1.392 . S
C423 H435 0.929 . S
C424 C420 1.531 . S
C424 H436 0.960 . S
C424 H437 0.962 . S
C424 H438 0.960 . S
C425 C422 1.511 . S
C425 H439 0.961 . S
C425 H440 0.961 . S
C425 H441 0.961 . S
C426 C427 1.370 . S
C426 C428 1.363 . S
C426 H442 0.931 . S
C427 C426 1.370 . S
C427 C431 1.408 . S
C428 C426 1.363 . S
C428 C429 1.370 . S
C428 C432 1.524 . S
C429 C421 1.503 . S
C429 C428 1.370 . S
C429 C430 1.403 . S
C430 C429 1.403 . S
C430 C431 1.404 . S
C430 C433 1.539 . S
C431 C427 1.408 . S
C431 C430 1.404 . S
C431 H443 0.930 . S
C432 C428 1.524 . S
C432 H444 0.956 . S
C432 H445 0.961 . S
C432 H446 0.961 . S
C433 C430 1.539 . S
C433 H447 0.958 . S
C433 H448 0.961 . S
C433 H449 0.960 . S
H434 C418 0.931 . S
H435 C423 0.929 . S
H436 C424 0.960 . S
H437 C424 0.962 . S
H438 C424 0.960 . S
H439 C425 0.961 . S
H440 C425 0.961 . S
H441 C425 0.961 . S
H442 C426 0.931 . S
H443 C431 0.930 . S
H444 C432 0.956 . S
H445 C432 0.961 . S
H446 C432 0.961 . S
H447 C433 0.958 . S
H448 C433 0.961 . S
H449 C433 0.960 . S
C450 C451 1.391 . S
C450 C452 1.394 . S
C450 H466 0.931 . S
C451 C450 1.391 . S
C451 C455 1.376 . S
C452 C450 1.394 . S
C452 C453 1.369 . S
C452 C456 1.531 . S
C453 C452 1.369 . S
C453 C454 1.410 . S
C453 C461 1.503 . S
C454 C453 1.410 . S
C454 C455 1.392 . S
C454 C457 1.511 . S
C455 C451 1.376 . S
C455 C454 1.392 . S
C455 H467 0.929 . S
C456 C452 1.531 . S
C456 H468 0.960 . S
C456 H469 0.962 . S
C456 H470 0.960 . S
C457 C454 1.511 . S
C457 H471 0.961 . S
C457 H472 0.961 . S
C457 H473 0.961 . S
C458 C459 1.370 . S
C458 C460 1.363 . S
C458 H474 0.931 . S
C459 C458 1.370 . S
C459 C463 1.408 . S
C460 C458 1.363 . S
C460 C461 1.370 . S
C460 C464 1.524 . S
C461 C453 1.503 . S
C461 C460 1.370 . S
C461 C462 1.403 . S
C462 C461 1.403 . S
C462 C463 1.404 . S
C462 C465 1.539 . S
C463 C459 1.408 . S
C463 C462 1.404 . S
C463 H475 0.930 . S
C464 C460 1.524 . S
C464 H476 0.956 . S
C464 H477 0.961 . S
C464 H478 0.961 . S
C465 C462 1.539 . S
C465 H479 0.958 . S
C465 H480 0.961 . S
C465 H481 0.960 . S
H466 C450 0.931 . S
H467 C455 0.929 . S
H468 C456 0.960 . S
H469 C456 0.962 . S
H470 C456 0.960 . S
H471 C457 0.961 . S
H472 C457 0.961 . S
H473 C457 0.961 . S
H474 C458 0.931 . S
H475 C463 0.930 . S
H476 C464 0.956 . S
H477 C464 0.961 . S
H478 C464 0.961 . S
H479 C465 0.958 . S
H480 C465 0.961 . S
H481 C465 0.960 . S
C482 C483 1.391 . S
C482 C484 1.394 . S
C482 H498 0.931 . S
C483 C482 1.391 . S
C483 C487 1.376 . S
C484 C482 1.394 . S
C484 C485 1.369 . S
C484 C488 1.531 . S
C485 C484 1.369 . S
C485 C486 1.410 . S
C485 C493 1.503 1_655 S
C486 C485 1.410 . S
C486 C487 1.392 . S
C486 C489 1.511 . S
C487 C483 1.376 . S
C487 C486 1.392 . S
C487 H499 0.929 . S
C488 C484 1.531 . S
C488 H500 0.960 1_655 S
C488 H501 0.962 . S
C488 H502 0.960 . S
C489 C486 1.511 . S
C489 H503 0.961 . S
C489 H504 0.961 1_655 S
C489 H505 0.961 . S
C490 C491 1.370 . S
C490 C492 1.363 . S
C490 H506 0.931 . S
C491 C490 1.370 . S
C491 C495 1.408 . S
C492 C490 1.363 . S
C492 C493 1.370 . S
C492 C496 1.524 . S
C493 C485 1.503 1_455 S
C493 C492 1.370 . S
C493 C494 1.403 . S
C494 C493 1.403 . S
C494 C495 1.404 . S
C494 C497 1.539 . S
C495 C491 1.408 . S
C495 C494 1.404 . S
C495 H507 0.930 . S
C496 C492 1.524 . S
C496 H508 0.956 1_455 S
C496 H509 0.961 1_455 S
C496 H510 0.961 . S
C497 C494 1.539 . S
C497 H511 0.958 . S
C497 H512 0.961 . S
C497 H513 0.960 . S
H498 C482 0.931 . S
H499 C487 0.929 . S
H500 C488 0.960 1_455 S
H501 C488 0.962 . S
H502 C488 0.960 . S
H503 C489 0.961 . S
H504 C489 0.961 1_455 S
H505 C489 0.961 . S
H506 C490 0.931 . S
H507 C495 0.930 . S
H508 C496 0.956 1_655 S
H509 C496 0.961 1_655 S
H510 C496 0.961 . S
H511 C497 0.958 . S
H512 C497 0.961 . S
H513 C497 0.960 . S
C514 C515 1.391 . S
C514 C516 1.394 . S
C514 H530 0.931 . S
C515 C514 1.391 . S
C515 C519 1.376 . S
C516 C514 1.394 . S
C516 C517 1.369 . S
C516 C520 1.531 . S
C517 C516 1.369 . S
C517 C518 1.410 . S
C517 C525 1.503 1_545 S
C518 C517 1.410 . S
C518 C519 1.392 . S
C518 C521 1.511 . S
C519 C515 1.376 . S
C519 C518 1.392 . S
C519 H531 0.929 . S
C520 C516 1.531 . S
C520 H532 0.960 . S
C520 H533 0.962 . S
C520 H534 0.960 . S
C521 C518 1.511 . S
C521 H535 0.961 . S
C521 H536 0.961 . S
C521 H537 0.961 . S
C522 C523 1.370 . S
C522 C524 1.363 . S
C522 H538 0.931 . S
C523 C522 1.370 . S
C523 C527 1.408 . S
C524 C522 1.363 . S
C524 C525 1.370 . S
C524 C528 1.524 . S
C525 C517 1.503 1_565 S
C525 C524 1.370 . S
C525 C526 1.403 . S
C526 C525 1.403 . S
C526 C527 1.404 . S
C526 C529 1.539 . S
C527 C523 1.408 . S
C527 C526 1.404 . S
C527 H539 0.930 . S
C528 C524 1.524 . S
C528 H540 0.956 1_565 S
C528 H541 0.961 1_565 S
C528 H542 0.961 . S
C529 C526 1.539 . S
C529 H543 0.958 . S
C529 H544 0.961 . S
C529 H545 0.960 1_565 S
H530 C514 0.931 . S
H531 C519 0.929 . S
H532 C520 0.960 . S
H533 C520 0.962 . S
H534 C520 0.960 . S
H535 C521 0.961 . S
H536 C521 0.961 . S
H537 C521 0.961 . S
H538 C522 0.931 . S
H539 C527 0.930 . S
H540 C528 0.956 1_545 S
H541 C528 0.961 1_545 S
H542 C528 0.961 . S
H543 C529 0.958 . S
H544 C529 0.961 . S
H545 C529 0.960 1_545 S
C546 C547 1.391 . S
C546 C548 1.394 . S
C546 H562 0.931 . S
C547 C546 1.391 . S
C547 C551 1.376 . S
C548 C546 1.394 . S
C548 C549 1.369 . S
C548 C552 1.531 . S
C549 C548 1.369 . S
C549 C550 1.410 . S
C549 C557 1.503 . S
C550 C549 1.410 . S
C550 C551 1.392 . S
C550 C553 1.511 . S
C551 C547 1.376 . S
C551 C550 1.392 . S
C551 H563 0.929 . S
C552 C548 1.531 . S
C552 H564 0.960 . S
C552 H565 0.962 . S
C552 H566 0.960 . S
C553 C550 1.511 . S
C553 H567 0.961 . S
C553 H568 0.961 . S
C553 H569 0.961 . S
C554 C555 1.370 . S
C554 C556 1.363 . S
C554 H570 0.931 . S
C555 C554 1.370 . S
C555 C559 1.408 . S
C556 C554 1.363 . S
C556 C557 1.370 . S
C556 C560 1.524 . S
C557 C549 1.503 . S
C557 C556 1.370 . S
C557 C558 1.403 . S
C558 C557 1.403 . S
C558 C559 1.404 . S
C558 C561 1.539 . S
C559 C555 1.408 . S
C559 C558 1.404 . S
C559 H571 0.930 . S
C560 C556 1.524 . S
C560 H572 0.956 . S
C560 H573 0.961 . S
C560 H574 0.961 . S
C561 C558 1.539 . S
C561 H575 0.958 . S
C561 H576 0.961 . S
C561 H577 0.960 . S
H562 C546 0.931 . S
H563 C551 0.929 . S
H564 C552 0.960 . S
H565 C552 0.962 . S
H566 C552 0.960 . S
H567 C553 0.961 . S
H568 C553 0.961 . S
H569 C553 0.961 . S
H570 C554 0.931 . S
H571 C559 0.930 . S
H572 C560 0.956 . S
H573 C560 0.961 . S
H574 C560 0.961 . S
H575 C561 0.958 . S
H576 C561 0.961 . S
H577 C561 0.960 . S
C578 C579 1.391 . S
C578 C580 1.394 . S
C578 H594 0.931 . S
C579 C578 1.391 . S
C579 C583 1.376 . S
C580 C578 1.394 . S
C580 C581 1.369 . S
C580 C584 1.531 . S
C581 C580 1.369 . S
C581 C582 1.410 . S
C581 C589 1.503 1_655 S
C582 C581 1.410 . S
C582 C583 1.392 . S
C582 C585 1.511 . S
C583 C579 1.376 . S
C583 C582 1.392 . S
C583 H595 0.929 . S
C584 C580 1.531 . S
C584 H596 0.960 . S
C584 H597 0.962 . S
C584 H598 0.960 . S
C585 C582 1.511 . S
C585 H599 0.961 . S
C585 H600 0.961 . S
C585 H601 0.961 . S
C586 C587 1.370 . S
C586 C588 1.363 . S
C586 H602 0.931 . S
C587 C586 1.370 . S
C587 C591 1.408 . S
C588 C586 1.363 . S
C588 C589 1.370 . S
C588 C592 1.524 . S
C589 C581 1.503 1_455 S
C589 C588 1.370 . S
C589 C590 1.403 . S
C590 C589 1.403 . S
C590 C591 1.404 . S
C590 C593 1.539 . S
C591 C587 1.408 . S
C591 C590 1.404 . S
C591 H603 0.930 . S
C592 C588 1.524 . S
C592 H604 0.956 1_455 S
C592 H605 0.961 1_455 S
C592 H606 0.961 . S
C593 C590 1.539 . S
C593 H607 0.958 . S
C593 H608 0.961 . S
C593 H609 0.960 1_455 S
H594 C578 0.931 . S
H595 C583 0.929 . S
H596 C584 0.960 . S
H597 C584 0.962 . S
H598 C584 0.960 . S
H599 C585 0.961 . S
H600 C585 0.961 . S
H601 C585 0.961 . S
H602 C586 0.931 . S
H603 C591 0.930 . S
H604 C592 0.956 1_655 S
H605 C592 0.961 1_655 S
H606 C592 0.961 . S
H607 C593 0.958 . S
H608 C593 0.961 . S
H609 C593 0.960 1_655 S
C610 C611 1.391 . S
C610 C612 1.394 . S
C610 H626 0.931 . S
C611 C610 1.391 . S
C611 C615 1.376 . S
C612 C610 1.394 . S
C612 C613 1.369 . S
C612 C616 1.531 . S
C613 C612 1.369 . S
C613 C614 1.410 . S
C613 C621 1.503 1_545 S
C614 C613 1.410 . S
C614 C615 1.392 . S
C614 C617 1.511 . S
C615 C611 1.376 . S
C615 C614 1.392 . S
C615 H627 0.929 . S
C616 C612 1.531 . S
C616 H628 0.960 1_545 S
C616 H629 0.962 . S
C616 H630 0.960 . S
C617 C614 1.511 . S
C617 H631 0.961 . S
C617 H632 0.961 1_545 S
C617 H633 0.961 . S
C618 C619 1.370 . S
C618 C620 1.363 . S
C618 H634 0.931 . S
C619 C618 1.370 . S
C619 C623 1.408 . S
C620 C618 1.363 . S
C620 C621 1.370 . S
C620 C624 1.524 . S
C621 C613 1.503 1_565 S
C621 C620 1.370 . S
C621 C622 1.403 . S
C622 C621 1.403 . S
C622 C623 1.404 . S
C622 C625 1.539 . S
C623 C619 1.408 . S
C623 C622 1.404 . S
C623 H635 0.930 . S
C624 C620 1.524 . S
C624 H636 0.956 1_565 S
C624 H637 0.961 1_565 S
C624 H638 0.961 . S
C625 C622 1.539 . S
C625 H639 0.958 . S
C625 H640 0.961 . S
C625 H641 0.960 . S
H626 C610 0.931 . S
H627 C615 0.929 . S
H628 C616 0.960 1_565 S
H629 C616 0.962 . S
H630 C616 0.960 . S
H631 C617 0.961 . S
H632 C617 0.961 1_565 S
H633 C617 0.961 . S
H634 C618 0.931 . S
H635 C623 0.930 . S
H636 C624 0.956 1_545 S
H637 C624 0.961 1_545 S
H638 C624 0.961 . S
H639 C625 0.958 . S
H640 C625 0.961 . S
H641 C625 0.960 . S
C642 C643 1.391 . S
C642 C644 1.394 . S
C642 H658 0.931 . S
C643 C642 1.391 . S
C643 C647 1.376 . S
C644 C642 1.394 . S
C644 C645 1.369 . S
C644 C648 1.531 . S
C645 C644 1.369 . S
C645 C646 1.410 . S
C645 C653 1.503 1_554 S
C646 C645 1.410 . S
C646 C647 1.392 . S
C646 C649 1.511 1_554 S
C647 C643 1.376 . S
C647 C646 1.392 . S
C647 H659 0.929 . S
C648 C644 1.531 . S
C648 H660 0.960 . S
C648 H661 0.962 . S
C648 H662 0.960 . S
C649 C646 1.511 1_556 S
C649 H663 0.961 . S
C649 H664 0.961 . S
C649 H665 0.961 . S
C650 C651 1.370 . S
C650 C652 1.363 . S
C650 H666 0.931 . S
C651 C650 1.370 . S
C651 C655 1.408 . S
C652 C650 1.363 . S
C652 C653 1.370 . S
C652 C656 1.524 . S
C653 C645 1.503 1_556 S
C653 C652 1.370 . S
C653 C654 1.403 . S
C654 C653 1.403 . S
C654 C655 1.404 . S
C654 C657 1.539 1_556 S
C655 C651 1.408 . S
C655 C654 1.404 . S
C655 H667 0.930 . S
C656 C652 1.524 . S
C656 H668 0.956 . S
C656 H669 0.961 . S
C656 H670 0.961 . S
C657 C654 1.539 1_554 S
C657 H671 0.958 . S
C657 H672 0.961 1_554 S
C657 H673 0.960 . S
H658 C642 0.931 . S
H659 C647 0.929 . S
H660 C648 0.960 . S
H661 C648 0.962 . S
H662 C648 0.960 . S
H663 C649 0.961 . S
H664 C649 0.961 . S
H665 C649 0.961 . S
H666 C650 0.931 . S
H667 C655 0.930 . S
H668 C656 0.956 . S
H669 C656 0.961 . S
H670 C656 0.961 . S
H671 C657 0.958 . S
H672 C657 0.961 1_556 S
H673 C657 0.960 . S
C674 C675 1.391 . S
C674 C676 1.394 . S
C674 H690 0.931 . S
C675 C674 1.391 . S
C675 C679 1.376 . S
C676 C674 1.394 . S
C676 C677 1.369 . S
C676 C680 1.531 . S
C677 C676 1.369 . S
C677 C678 1.410 . S
C677 C685 1.503 . S
C678 C677 1.410 . S
C678 C679 1.392 . S
C678 C681 1.511 . S
C679 C675 1.376 . S
C679 C678 1.392 . S
C679 H691 0.929 . S
C680 C676 1.531 . S
C680 H692 0.960 . S
C680 H693 0.962 . S
C680 H694 0.960 . S
C681 C678 1.511 . S
C681 H695 0.961 . S
C681 H696 0.961 . S
C681 H697 0.961 . S
C682 C683 1.370 . S
C682 C684 1.380 . S
C682 H698 0.931 . S
C683 C682 1.370 . S
C683 C687 1.408 1_455 S
C684 C682 1.380 . S
C684 C685 1.346 1_455 S
C684 C688 1.532 . S
C685 C677 1.503 . S
C685 C684 1.346 1_655 S
C685 C686 1.403 . S
C686 C685 1.403 . S
C686 C687 1.404 . S
C686 C689 1.539 . S
C687 C683 1.408 1_655 S
C687 C686 1.404 . S
C687 H699 0.930 . S
C688 C684 1.532 . S
C688 H700 0.956 1_455 S
C688 H701 0.951 1_455 S
C688 H702 0.961 . S
C689 C686 1.539 . S
C689 H703 0.958 . S
C689 H704 0.961 . S
C689 H705 0.960 . S
H690 C674 0.931 . S
H691 C679 0.929 . S
H692 C680 0.960 . S
H693 C680 0.962 . S
H694 C680 0.960 . S
H695 C681 0.961 . S
H696 C681 0.961 . S
H697 C681 0.961 . S
H698 C682 0.931 . S
H699 C687 0.930 . S
H700 C688 0.956 1_655 S
H701 C688 0.951 1_655 S
H702 C688 0.961 . S
H703 C689 0.958 . S
H704 C689 0.961 . S
H705 C689 0.960 . S
C706 C707 1.391 . S
C706 C708 1.394 . S
C706 H722 0.931 . S
C707 C706 1.391 . S
C707 C711 1.376 . S
C708 C706 1.394 . S
C708 C709 1.369 . S
C708 C712 1.531 . S
C709 C708 1.369 . S
C709 C710 1.410 . S
C709 C717 1.503 1_554 S
C710 C709 1.410 . S
C710 C711 1.392 . S
C710 C713 1.511 1_554 S
C711 C707 1.376 . S
C711 C710 1.392 . S
C711 H723 0.929 . S
C712 C708 1.531 . S
C712 H724 0.960 . S
C712 H725 0.962 . S
C712 H726 0.960 . S
C713 C710 1.511 1_556 S
C713 H727 0.961 . S
C713 H728 0.961 . S
C713 H729 0.961 . S
C714 C715 1.370 . S
C714 C716 1.363 . S
C714 H730 0.931 . S
C715 C714 1.370 . S
C715 C719 1.408 1_545 S
C716 C714 1.363 . S
C716 C717 1.370 1_545 S
C716 C720 1.524 1_556 S
C717 C709 1.503 1_556 S
C717 C716 1.370 1_565 S
C717 C718 1.403 . S
C718 C717 1.403 . S
C718 C719 1.404 . S
C718 C721 1.539 . S
C719 C715 1.408 1_565 S
C719 C718 1.404 . S
C719 H731 0.930 . S
C720 C716 1.524 1_554 S
C720 H732 0.956 . S
C720 H733 0.961 1_545 S
C720 H734 0.961 . S
C721 C718 1.539 . S
C721 H735 0.958 . S
C721 H736 0.961 . S
C721 H737 0.960 . S
H722 C706 0.931 . S
H723 C711 0.929 . S
H724 C712 0.960 . S
H725 C712 0.962 . S
H726 C712 0.960 . S
H727 C713 0.961 . S
H728 C713 0.961 . S
H729 C713 0.961 . S
H730 C714 0.931 . S
H731 C719 0.930 . S
H732 C720 0.956 . S
H733 C720 0.961 1_565 S
H734 C720 0.961 . S
H735 C721 0.958 . S
H736 C721 0.961 . S
H737 C721 0.960 . S
C738 C739 1.391 . S
C738 C740 1.394 . S
C738 H754 0.931 . S
C739 C738 1.391 . S
C739 C743 1.376 . S
C740 C738 1.394 . S
C740 C741 1.369 . S
C740 C744 1.531 . S
C741 C740 1.369 . S
C741 C742 1.410 . S
C741 C749 1.503 . S
C742 C741 1.410 . S
C742 C743 1.392 . S
C742 C745 1.511 . S
C743 C739 1.376 . S
C743 C742 1.392 . S
C743 H755 0.929 . S
C744 C740 1.531 . S
C744 H756 0.960 . S
C744 H757 0.962 . S
C744 H758 0.960 . S
C745 C742 1.511 . S
C745 H759 0.961 . S
C745 H760 0.961 . S
C745 H761 0.961 . S
C746 C747 1.370 . S
C746 C748 1.363 . S
C746 H762 0.931 . S
C747 C746 1.370 . S
C747 C751 1.408 . S
C748 C746 1.363 . S
C748 C749 1.370 . S
C748 C752 1.524 . S
C749 C741 1.503 . S
C749 C748 1.370 . S
C749 C750 1.403 . S
C750 C749 1.403 . S
C750 C751 1.404 . S
C750 C753 1.539 . S
C751 C747 1.408 . S
C751 C750 1.404 . S
C751 H763 0.930 . S
C752 C748 1.524 . S
C752 H764 0.956 . S
C752 H765 0.961 . S
C752 H766 0.961 . S
C753 C750 1.539 . S
C753 H767 0.958 . S
C753 H768 0.961 . S
C753 H769 0.960 . S
H754 C738 0.931 . S
H755 C743 0.929 . S
H756 C744 0.960 . S
H757 C744 0.962 . S
H758 C744 0.960 . S
H759 C745 0.961 . S
H760 C745 0.961 . S
H761 C745 0.961 . S
H762 C746 0.931 . S
H763 C751 0.930 . S
H764 C752 0.956 . S
H765 C752 0.961 . S
H766 C752 0.961 . S
H767 C753 0.958 . S
H768 C753 0.961 . S
H769 C753 0.960 . S
C770 C771 1.391 . S
C770 C772 1.394 . S
C770 H786 0.931 . S
C771 C770 1.391 . S
C771 C775 1.376 . S
C772 C770 1.394 . S
C772 C773 1.369 1_655 S
C772 C776 1.533 1_656 S
C773 C772 1.369 1_455 S
C773 C774 1.410 . S
C773 C781 1.503 1_556 S
C774 C773 1.410 . S
C774 C775 1.392 1_455 S
C774 C777 1.511 . S
C775 C771 1.376 . S
C775 C774 1.392 1_655 S
C775 H787 0.929 . S
C776 C772 1.533 1_454 S
C776 H788 0.964 . S
C776 H789 0.963 . S
C776 H790 0.954 1_455 S
C777 C774 1.511 . S
C777 H791 0.961 . S
C777 H792 0.961 . S
C777 H793 0.961 . S
C778 C779 1.370 . S
C778 C780 1.363 . S
C778 H794 0.931 . S
C779 C778 1.370 . S
C779 C783 1.408 . S
C780 C778 1.363 . S
C780 C781 1.370 . S
C780 C784 1.524 1_554 S
C781 C773 1.503 1_554 S
C781 C780 1.370 . S
C781 C782 1.403 . S
C782 C781 1.403 . S
C782 C783 1.404 . S
C782 C785 1.539 . S
C783 C779 1.408 . S
C783 C782 1.404 . S
C783 H795 0.930 . S
C784 C780 1.524 1_556 S
C784 H796 0.956 . S
C784 H797 0.961 . S
C784 H798 0.961 . S
C785 C782 1.539 . S
C785 H799 0.958 1_455 S
C785 H800 0.961 . S
C785 H801 0.960 . S
H786 C770 0.931 . S
H787 C775 0.929 . S
H788 C776 0.964 . S
H789 C776 0.963 . S
H790 C776 0.954 1_655 S
H791 C777 0.961 . S
H792 C777 0.961 . S
H793 C777 0.961 . S
H794 C778 0.931 . S
H795 C783 0.930 . S
H796 C784 0.956 . S
H797 C784 0.961 . S
H798 C784 0.961 . S
H799 C785 0.958 1_655 S
H800 C785 0.961 . S
H801 C785 0.960 . S
C802 C803 1.391 . S
C802 C804 1.394 . S
C802 H818 0.931 . S
C803 C802 1.391 . S
C803 C807 1.376 . S
C804 C802 1.394 . S
C804 C805 1.369 . S
C804 C808 1.531 . S
C805 C804 1.369 . S
C805 C806 1.410 . S
C805 C813 1.503 . S
C806 C805 1.410 . S
C806 C807 1.392 . S
C806 C809 1.511 . S
C807 C803 1.376 . S
C807 C806 1.392 . S
C807 H819 0.929 . S
C808 C804 1.531 . S
C808 H820 0.960 . S
C808 H821 0.962 . S
C808 H822 0.960 . S
C809 C806 1.511 . S
C809 H823 0.961 . S
C809 H824 0.961 . S
C809 H825 0.961 . S
C810 C811 1.370 . S
C810 C812 1.363 . S
C810 H826 0.931 . S
C811 C810 1.370 . S
C811 C815 1.408 1_565 S
C812 C810 1.363 . S
C812 C813 1.370 1_565 S
C812 C816 1.524 . S
C813 C805 1.503 . S
C813 C812 1.370 1_545 S
C813 C814 1.403 . S
C814 C813 1.403 . S
C814 C815 1.404 . S
C814 C817 1.539 . S
C815 C811 1.408 1_545 S
C815 C814 1.404 . S
C815 H827 0.930 . S
C816 C812 1.524 . S
C816 H828 0.956 1_565 S
C816 H829 0.961 . S
C816 H830 0.961 . S
C817 C814 1.539 . S
C817 H831 0.958 . S
C817 H832 0.961 . S
C817 H833 0.960 . S
H818 C802 0.931 . S
H819 C807 0.929 . S
H820 C808 0.960 . S
H821 C808 0.962 . S
H822 C808 0.960 . S
H823 C809 0.961 . S
H824 C809 0.961 . S
H825 C809 0.961 . S
H826 C810 0.931 . S
H827 C815 0.930 . S
H828 C816 0.956 1_545 S
H829 C816 0.961 . S
H830 C816 0.961 . S
H831 C817 0.958 . S
H832 C817 0.961 . S
H833 C817 0.960 . S
C834 C835 1.391 . S
C834 C836 1.394 . S
C834 H850 0.931 . S
C835 C834 1.391 . S
C835 C839 1.376 . S
C836 C834 1.394 . S
C836 C837 1.369 . S
C836 C840 1.531 . S
C837 C836 1.369 . S
C837 C838 1.410 . S
C837 C845 1.503 1_556 S
C838 C837 1.410 . S
C838 C839 1.392 . S
C838 C841 1.511 1_556 S
C839 C835 1.376 . S
C839 C838 1.392 . S
C839 H851 0.929 . S
C840 C836 1.531 . S
C840 H852 0.960 1_556 S
C840 H853 0.962 . S
C840 H854 0.960 . S
C841 C838 1.511 1_554 S
C841 H855 0.961 1_554 S
C841 H856 0.961 . S
C841 H857 0.961 . S
C842 C843 1.370 . S
C842 C844 1.363 . S
C842 H858 0.931 . S
C843 C842 1.370 . S
C843 C847 1.408 . S
C844 C842 1.363 . S
C844 C845 1.370 . S
C844 C848 1.524 1_554 S
C845 C837 1.503 1_554 S
C845 C844 1.370 . S
C845 C846 1.403 . S
C846 C845 1.403 . S
C846 C847 1.404 . S
C846 C849 1.539 . S
C847 C843 1.408 . S
C847 C846 1.404 . S
C847 H859 0.930 . S
C848 C844 1.524 1_556 S
C848 H860 0.956 . S
C848 H861 0.961 . S
C848 H862 0.961 . S
C849 C846 1.539 . S
C849 H863 0.958 . S
C849 H864 0.961 . S
C849 H865 0.960 . S
H850 C834 0.931 . S
H851 C839 0.929 . S
H852 C840 0.960 1_554 S
H853 C840 0.962 . S
H854 C840 0.960 . S
H855 C841 0.961 1_556 S
H856 C841 0.961 . S
H857 C841 0.961 . S
H858 C842 0.931 . S
H859 C847 0.930 . S
H860 C848 0.956 . S
H861 C848 0.961 . S
H862 C848 0.961 . S
H863 C849 0.958 . S
H864 C849 0.961 . S
H865 C849 0.960 . S
C866 C867 1.391 . S
C866 C868 1.394 . S
C866 H882 0.931 . S
C867 C866 1.391 . S
C867 C871 1.376 . S
C868 C866 1.394 . S
C868 C869 1.369 . S
C868 C872 1.531 . S
C869 C868 1.369 . S
C869 C870 1.410 . S
C869 C877 1.503 . S
C870 C869 1.410 . S
C870 C871 1.392 . S
C870 C873 1.511 . S
C871 C867 1.376 . S
C871 C870 1.392 . S
C871 H883 0.929 . S
C872 C868 1.531 . S
C872 H884 0.960 . S
C872 H885 0.962 . S
C872 H886 0.960 . S
C873 C870 1.511 . S
C873 H887 0.961 . S
C873 H888 0.961 1_455 S
C873 H889 0.961 . S
C874 C875 1.370 . S
C874 C876 1.363 1_655 S
C874 H890 0.931 . S
C875 C874 1.370 . S
C875 C879 1.408 . S
C876 C874 1.363 1_455 S
C876 C877 1.370 . S
C876 C880 1.524 . S
C877 C869 1.503 . S
C877 C876 1.370 . S
C877 C878 1.403 . S
C878 C877 1.403 . S
C878 C879 1.404 1_455 S
C878 C881 1.539 . S
C879 C875 1.408 . S
C879 C878 1.404 1_655 S
C879 H891 0.930 . S
C880 C876 1.524 . S
C880 H892 0.956 . S
C880 H893 0.961 . S
C880 H894 0.961 1_455 S
C881 C878 1.539 . S
C881 H895 0.958 . S
C881 H896 0.961 . S
C881 H897 0.960 . S
H882 C866 0.931 . S
H883 C871 0.929 . S
H884 C872 0.960 . S
H885 C872 0.962 . S
H886 C872 0.960 . S
H887 C873 0.961 . S
H888 C873 0.961 1_655 S
H889 C873 0.961 . S
H890 C874 0.931 . S
H891 C879 0.930 . S
H892 C880 0.956 . S
H893 C880 0.961 . S
H894 C880 0.961 1_655 S
H895 C881 0.958 . S
H896 C881 0.961 . S
H897 C881 0.960 . S
C898 C899 1.391 . S
C898 C900 1.394 . S
C898 H914 0.931 . S
C899 C898 1.391 . S
C899 C903 1.376 . S
C900 C898 1.394 . S
C900 C901 1.369 . S
C900 C904 1.531 . S
C901 C900 1.369 . S
C901 C902 1.410 . S
C901 C909 1.503 1_556 S
C902 C901 1.410 . S
C902 C903 1.392 . S
C902 C905 1.511 1_556 S
C903 C899 1.376 . S
C903 C902 1.392 . S
C903 H915 0.929 . S
C904 C900 1.531 . S
C904 H916 0.960 . S
C904 H917 0.962 . S
C904 H918 0.960 . S
C905 C902 1.511 1_554 S
C905 H919 0.961 . S
C905 H920 0.961 . S
C905 H921 0.961 1_554 S
C906 C907 1.370 1_545 S
C906 C908 1.363 . S
C906 H922 0.931 . S
C907 C906 1.370 1_565 S
C907 C911 1.408 . S
C908 C906 1.363 . S
C908 C909 1.370 . S
C908 C912 1.524 . S
C909 C901 1.503 1_554 S
C909 C908 1.370 . S
C909 C910 1.403 1_545 S
C910 C909 1.403 1_565 S
C910 C911 1.404 . S
C910 C913 1.539 1_554 S
C911 C907 1.408 . S
C911 C910 1.404 . S
C911 H923 0.930 . S
C912 C908 1.524 . S
C912 H924 0.956 . S
C912 H925 0.961 . S
C912 H926 0.961 . S
C913 C910 1.539 1_556 S
C913 H927 0.958 . S
C913 H928 0.961 . S
C913 H929 0.960 . S
H914 C898 0.931 . S
H915 C903 0.929 . S
H916 C904 0.960 . S
H917 C904 0.962 . S
H918 C904 0.960 . S
H919 C905 0.961 . S
H920 C905 0.961 . S
H921 C905 0.961 1_556 S
H922 C906 0.931 . S
H923 C911 0.930 . S
H924 C912 0.956 . S
H925 C912 0.961 . S
H926 C912 0.961 . S
H927 C913 0.958 . S
H928 C913 0.961 . S
H929 C913 0.960 . S
C930 C931 1.391 . S
C930 C932 1.394 . S
C930 H946 0.931 . S
C931 C930 1.391 . S
C931 C935 1.376 . S
C932 C930 1.394 . S
C932 C933 1.369 . S
C932 C936 1.531 . S
C933 C932 1.369 . S
C933 C934 1.410 . S
C933 C941 1.503 . S
C934 C933 1.410 . S
C934 C935 1.392 . S
C934 C937 1.511 . S
C935 C931 1.376 . S
C935 C934 1.392 . S
C935 H947 0.929 . S
C936 C932 1.531 . S
C936 H948 0.960 . S
C936 H949 0.962 . S
C936 H950 0.960 . S
C937 C934 1.511 . S
C937 H951 0.961 . S
C937 H952 0.961 . S
C937 H953 0.961 . S
C938 C939 1.370 . S
C938 C940 1.363 . S
C938 H954 0.931 . S
C939 C938 1.370 . S
C939 C943 1.408 . S
C940 C938 1.363 . S
C940 C941 1.370 . S
C940 C944 1.524 . S
C941 C933 1.503 . S
C941 C940 1.370 . S
C941 C942 1.403 . S
C942 C941 1.403 . S
C942 C943 1.404 . S
C942 C945 1.539 . S
C943 C939 1.408 . S
C943 C942 1.404 . S
C943 H955 0.930 . S
C944 C940 1.524 . S
C944 H956 0.956 . S
C944 H957 0.961 . S
C944 H958 0.961 . S
C945 C942 1.539 . S
C945 H959 0.958 . S
C945 H960 0.961 . S
C945 H961 0.960 . S
H946 C930 0.931 . S
H947 C935 0.929 . S
H948 C936 0.960 . S
H949 C936 0.962 . S
H950 C936 0.960 . S
H951 C937 0.961 . S
H952 C937 0.961 . S
H953 C937 0.961 . S
H954 C938 0.931 . S
H955 C943 0.930 . S
H956 C944 0.956 . S
H957 C944 0.961 . S
H958 C944 0.961 . S
H959 C945 0.958 . S
H960 C945 0.961 . S
H961 C945 0.960 . S
C962 C963 1.391 . S
C962 C964 1.394 1_455 S
C962 H978 0.931 . S
C963 C962 1.391 . S
C963 C967 1.376 . S
C964 C962 1.394 1_655 S
C964 C965 1.369 . S
C964 C968 1.531 . S
C965 C964 1.369 . S
C965 C966 1.410 1_655 S
C965 C973 1.503 1_554 S
C966 C965 1.410 1_455 S
C966 C967 1.392 . S
C966 C969 1.511 1_454 S
C967 C963 1.376 . S
C967 C966 1.392 . S
C967 H979 0.929 . S
C968 C964 1.531 . S
C968 H980 0.960 . S
C968 H981 0.962 . S
C968 H982 0.960 . S
C969 C966 1.511 1_656 S
C969 H983 0.961 1_655 S
C969 H984 0.961 . S
C969 H985 0.961 1_655 S
C970 C971 1.370 . S
C970 C972 1.363 . S
C970 H986 0.931 . S
C971 C970 1.370 . S
C971 C975 1.408 . S
C972 C970 1.363 . S
C972 C973 1.370 . S
C972 C976 1.524 1_556 S
C973 C965 1.503 1_556 S
C973 C972 1.370 . S
C973 C974 1.403 . S
C974 C973 1.403 . S
C974 C975 1.404 . S
C974 C977 1.539 . S
C975 C971 1.408 . S
C975 C974 1.404 . S
C975 H987 0.930 . S
C976 C972 1.524 1_554 S
C976 H988 0.956 . S
C976 H989 0.961 . S
C976 H990 0.961 . S
C977 C974 1.539 . S
C977 H991 0.958 . S
C977 H992 0.961 . S
C977 H993 0.960 1_655 S
H978 C962 0.931 . S
H979 C967 0.929 . S
H980 C968 0.960 . S
H981 C968 0.962 . S
H982 C968 0.960 . S
H983 C969 0.961 1_455 S
H984 C969 0.961 . S
H985 C969 0.961 1_455 S
H986 C970 0.931 . S
H987 C975 0.930 . S
H988 C976 0.956 . S
H989 C976 0.961 . S
H990 C976 0.961 . S
H991 C977 0.958 . S
H992 C977 0.961 . S
H993 C977 0.960 1_455 S
C994 C995 1.391 . S
C994 C996 1.394 1_545 S
C994 H1010 0.931 . S
C995 C994 1.391 . S
C995 C999 1.376 . S
C996 C994 1.394 1_565 S
C996 C997 1.369 . S
C996 C1000 1.531 . S
C997 C996 1.369 . S
C997 C998 1.410 . S
C997 C1005 1.503 . S
C998 C997 1.410 . S
C998 C999 1.392 1_565 S
C998 C1001 1.511 . S
C999 C995 1.376 . S
C999 C998 1.392 1_545 S
C999 H1011 0.929 . S
C1000 C996 1.531 . S
C1000 H1012 0.960 . S
C1000 H1013 0.962 . S
C1000 H1014 0.960 . S
C1001 C998 1.511 . S
C1001 H1015 0.961 . S
C1001 H1016 0.961 . S
C1001 H1017 0.961 . S
C1002 C1003 1.370 . S
C1002 C1004 1.363 . S
C1002 H1018 0.931 . S
C1003 C1002 1.370 . S
C1003 C1007 1.408 . S
C1004 C1002 1.363 . S
C1004 C1005 1.370 . S
C1004 C1008 1.524 . S
C1005 C997 1.503 . S
C1005 C1004 1.370 . S
C1005 C1006 1.403 . S
C1006 C1005 1.403 . S
C1006 C1007 1.404 . S
C1006 C1009 1.539 . S
C1007 C1003 1.408 . S
C1007 C1006 1.404 . S
C1007 H1019 0.930 . S
C1008 C1004 1.524 . S
C1008 H1020 0.956 . S
C1008 H1021 0.961 . S
C1008 H1022 0.961 . S
C1009 C1006 1.539 . S
C1009 H1023 0.958 1_565 S
C1009 H1024 0.961 . S
C1009 H1025 0.960 1_565 S
H1010 C994 0.931 . S
H1011 C999 0.929 . S
H1012 C1000 0.960 . S
H1013 C1000 0.962 . S
H1014 C1000 0.960 . S
H1015 C1001 0.961 . S
H1016 C1001 0.961 . S
H1017 C1001 0.961 . S
H1018 C1002 0.931 . S
H1019 C1007 0.930 . S
H1020 C1008 0.956 . S
H1021 C1008 0.961 . S
H1022 C1008 0.961 . S
H1023 C1009 0.958 1_545 S
H1024 C1009 0.961 . S
H1025 C1009 0.960 1_545 S
C259 C32 1.384 . S
C267 N175 1.428 . S
C291 N223 1.380 . S
C299 C56 1.273 . S
C323 N8 1.460 . S
C331 C118 1.408 . S
C355 N51 1.396 . S
C363 C142 1.263 . S
C387 C199 1.448 . S
C395 N94 1.436 . S
C419 C228 1.254 . S
C427 N137 1.398 . S
C451 C33 1.022 . S
C459 N180 0.922 . S
C483 C82 1.008 . S
C491 N218 0.983 . S
C515 N3 0.984 . S
C523 C119 1.017 . S
C547 N46 1.005 . S
C555 C168 0.971 . S
C579 N89 0.980 . S
C587 C212 1.017 . S
C611 C254 0.992 . S
C619 N132 0.973 . S
C643 C13 1.755 . S
C651 C242 1.703 . S
C675 C83 1.830 . S
C683 C39 1.576 . S
C707 C99 1.770 . S
C715 C70 1.693 . S
C739 C169 1.812 . S
C747 C125 1.579 . S
C771 C156 1.737 . S
C779 C211 1.738 . S
C803 C255 1.832 . S
C811 C185 1.570 . S
C835 C161 1.846 . S
C843 C113 1.741 . S
C867 C205 1.715 . S
C875 C162 1.611 . S
C899 C247 1.809 . S
C907 C204 1.763 . S
C931 C248 1.631 . S
C939 C40 1.713 . S
C963 C27 1.775 . S
C971 C75 1.824 . S
C995 C76 1.646 . S
C1003 C126 1.704 . S
