# Generated by pormake.
# Topology bcs, (6)-cn, num edge types: 1
# Building blocks:
#     Node 0, Type 0, BuildingBlock: BETGAK_clean_sbu_0, # of connection points: 6
#     Node 1, Type 0, BuildingBlock: BETGAK_clean_sbu_0, # of connection points: 6
#     Node 2, Type 0, BuildingBlock: BETGAK_clean_sbu_0, # of connection points: 6
#     Node 3, Type 0, BuildingBlock: BETGAK_clean_sbu_0, # of connection points: 6
#     Node 4, Type 0, BuildingBlock: BETGAK_clean_sbu_0, # of connection points: 6
#     Node 5, Type 0, BuildingBlock: BETGAK_clean_sbu_0, # of connection points: 6
#     Node 6, Type 0, BuildingBlock: BETGAK_clean_sbu_0, # of connection points: 6
#     Node 7, Type 0, BuildingBlock: BETGAK_clean_sbu_0, # of connection points: 6
#     Node 8, Type 0, BuildingBlock: BETGAK_clean_sbu_0, # of connection points: 6
#     Node 9, Type 0, BuildingBlock: BETGAK_clean_sbu_0, # of connection points: 6
#     Node 10, Type 0, BuildingBlock: BETGAK_clean_sbu_0, # of connection points: 6
#     Node 11, Type 0, BuildingBlock: BETGAK_clean_sbu_0, # of connection points: 6
#     Node 12, Type 0, BuildingBlock: BETGAK_clean_sbu_0, # of connection points: 6
#     Node 13, Type 0, BuildingBlock: BETGAK_clean_sbu_0, # of connection points: 6
#     Node 14, Type 0, BuildingBlock: BETGAK_clean_sbu_0, # of connection points: 6
#     Node 15, Type 0, BuildingBlock: BETGAK_clean_sbu_0, # of connection points: 6
#     Edge 16, Type (0, 0), BuildingBlock: XIVTED_clean_linker_0, # of connection points: 2
#     Edge 17, Type (0, 0), BuildingBlock: XIVTED_clean_linker_0, # of connection points: 2
#     Edge 18, Type (0, 0), BuildingBlock: XIVTED_clean_linker_0, # of connection points: 2
#     Edge 19, Type (0, 0), BuildingBlock: XIVTED_clean_linker_0, # of connection points: 2
#     Edge 20, Type (0, 0), BuildingBlock: XIVTED_clean_linker_0, # of connection points: 2
#     Edge 21, Type (0, 0), BuildingBlock: XIVTED_clean_linker_0, # of connection points: 2
#     Edge 22, Type (0, 0), BuildingBlock: XIVTED_clean_linker_0, # of connection points: 2
#     Edge 23, Type (0, 0), BuildingBlock: XIVTED_clean_linker_0, # of connection points: 2
#     Edge 24, Type (0, 0), BuildingBlock: XIVTED_clean_linker_0, # of connection points: 2
#     Edge 25, Type (0, 0), BuildingBlock: XIVTED_clean_linker_0, # of connection points: 2
#     Edge 26, Type (0, 0), BuildingBlock: XIVTED_clean_linker_0, # of connection points: 2
#     Edge 27, Type (0, 0), BuildingBlock: XIVTED_clean_linker_0, # of connection points: 2
#     Edge 28, Type (0, 0), BuildingBlock: XIVTED_clean_linker_0, # of connection points: 2
#     Edge 29, Type (0, 0), BuildingBlock: XIVTED_clean_linker_0, # of connection points: 2
#     Edge 30, Type (0, 0), BuildingBlock: XIVTED_clean_linker_0, # of connection points: 2
#     Edge 31, Type (0, 0), BuildingBlock: XIVTED_clean_linker_0, # of connection points: 2
#     Edge 32, Type (0, 0), BuildingBlock: XIVTED_clean_linker_0, # of connection points: 2
#     Edge 33, Type (0, 0), BuildingBlock: XIVTED_clean_linker_0, # of connection points: 2
#     Edge 34, Type (0, 0), BuildingBlock: XIVTED_clean_linker_0, # of connection points: 2
#     Edge 35, Type (0, 0), BuildingBlock: XIVTED_clean_linker_0, # of connection points: 2
#     Edge 36, Type (0, 0), BuildingBlock: XIVTED_clean_linker_0, # of connection points: 2
#     Edge 37, Type (0, 0), BuildingBlock: XIVTED_clean_linker_0, # of connection points: 2
#     Edge 38, Type (0, 0), BuildingBlock: XIVTED_clean_linker_0, # of connection points: 2
#     Edge 39, Type (0, 0), BuildingBlock: XIVTED_clean_linker_0, # of connection points: 2
#     Edge 40, Type (0, 0), BuildingBlock: XIVTED_clean_linker_0, # of connection points: 2
#     Edge 41, Type (0, 0), BuildingBlock: XIVTED_clean_linker_0, # of connection points: 2
#     Edge 42, Type (0, 0), BuildingBlock: XIVTED_clean_linker_0, # of connection points: 2
#     Edge 43, Type (0, 0), BuildingBlock: XIVTED_clean_linker_0, # of connection points: 2
#     Edge 44, Type (0, 0), BuildingBlock: XIVTED_clean_linker_0, # of connection points: 2
#     Edge 45, Type (0, 0), BuildingBlock: XIVTED_clean_linker_0, # of connection points: 2
#     Edge 46, Type (0, 0), BuildingBlock: XIVTED_clean_linker_0, # of connection points: 2
#     Edge 47, Type (0, 0), BuildingBlock: XIVTED_clean_linker_0, # of connection points: 2
#     Edge 48, Type (0, 0), BuildingBlock: XIVTED_clean_linker_0, # of connection points: 2
#     Edge 49, Type (0, 0), BuildingBlock: XIVTED_clean_linker_0, # of connection points: 2
#     Edge 50, Type (0, 0), BuildingBlock: XIVTED_clean_linker_0, # of connection points: 2
#     Edge 51, Type (0, 0), BuildingBlock: XIVTED_clean_linker_0, # of connection points: 2
#     Edge 52, Type (0, 0), BuildingBlock: XIVTED_clean_linker_0, # of connection points: 2
#     Edge 53, Type (0, 0), BuildingBlock: XIVTED_clean_linker_0, # of connection points: 2
#     Edge 54, Type (0, 0), BuildingBlock: XIVTED_clean_linker_0, # of connection points: 2
#     Edge 55, Type (0, 0), BuildingBlock: XIVTED_clean_linker_0, # of connection points: 2
#     Edge 56, Type (0, 0), BuildingBlock: XIVTED_clean_linker_0, # of connection points: 2
#     Edge 57, Type (0, 0), BuildingBlock: XIVTED_clean_linker_0, # of connection points: 2
#     Edge 58, Type (0, 0), BuildingBlock: XIVTED_clean_linker_0, # of connection points: 2
#     Edge 59, Type (0, 0), BuildingBlock: XIVTED_clean_linker_0, # of connection points: 2
#     Edge 60, Type (0, 0), BuildingBlock: XIVTED_clean_linker_0, # of connection points: 2
#     Edge 61, Type (0, 0), BuildingBlock: XIVTED_clean_linker_0, # of connection points: 2
#     Edge 62, Type (0, 0), BuildingBlock: XIVTED_clean_linker_0, # of connection points: 2
#     Edge 63, Type (0, 0), BuildingBlock: XIVTED_clean_linker_0, # of connection points: 2
# Relax obj value: 0.177
# Max RMSD: 0.249
# Mean RMSD: 0.189
data_MOF--net-bcs--node1-BETGAK_clean_sbu_0--edge1-XIVTED_clean_linker_0
_symmetry_space_group_name_H-M    P1
_symmetry_Int_Tables_number       1
_symmetry_cell_setting            triclinic
loop_
_symmetry_equiv_pos_as_xyz
'x, y, z'
_cell_length_a     42.961754
_cell_length_b     44.896326
_cell_length_c     38.314749
_cell_angle_alpha  89.044223
_cell_angle_beta   95.33206
_cell_angle_gamma 120.448
loop_
_atom_site_label
_atom_site_type_symbol
_atom_site_fract_x
_atom_site_fract_y
_atom_site_fract_z
_atom_type_partial_charge
La0 La 0.07171 0.01619 0.04224 0.0
La1 La 1.0138 0.98113 0.98782 0.0
C2 C 0.119 0.03285 0.09331 0.0
C3 C 0.14744 0.02419 0.09965 0.0
C4 C 0.18333 0.0504 0.10917 0.0
C5 C 0.21141 0.04321 0.10992 0.0
C6 C 0.20367 0.0099 0.10062 0.0
C7 C 0.16763 0.98357 0.09206 0.0
C8 C 0.13973 0.99063 0.09159 0.0
C9 C 0.08225 0.05192 0.98459 0.0
C10 C 0.07083 0.95925 0.99251 0.0
C11 C 0.96569 0.96325 0.93751 0.0
C12 C 0.95037 0.98297 0.92129 0.0
C13 C 0.91296 0.96703 0.91191 0.0
C14 C 0.89754 0.98721 0.90255 0.0
C15 C 0.91967 0.02328 0.90244 0.0
C16 C 0.9572 0.03896 0.91114 0.0
C17 C 0.97245 0.01898 0.92053 0.0
C18 C 1.00401 0.94632 0.04602 0.0
C19 C 1.01592 0.03901 0.0357 0.0
O20 O 0.12286 0.05242 0.06658 0.0
O21 O 0.08566 0.00705 0.09349 0.0
O22 O 0.08953 0.06493 0.01616 0.0
O23 O 0.06969 0.01973 0.98601 0.0
O24 O 0.08393 0.97776 0.02233 0.0
O25 O 1.0446 0.95926 0.97216 0.0
O26 O 0.95853 0.95574 0.96995 0.0
O27 O 0.99994 0.97541 0.93357 0.0
O28 O 0.99694 0.93285 0.01474 0.0
O29 O 1.01591 0.97822 0.04379 0.0
O30 O 1.00722 0.02465 1.0037 0.0
O31 O 1.03733 0.03391 0.05852 0.0
H32 H 0.18968 0.07652 0.11504 0.0
H33 H 0.23908 0.06367 0.11707 0.0
H34 H 0.16096 0.9574 0.08582 0.0
H35 H 0.11228 0.96992 0.08409 0.0
H36 H 0.89563 0.93929 0.9133 0.0
H37 H 0.86846 0.97487 0.89626 0.0
H38 H 0.97461 0.06684 0.91233 0.0
H39 H 1.00127 0.03189 0.92881 0.0
La40 La 0.33958 0.72896 0.27473 0.0
La41 La 0.28007 0.74201 0.25032 0.0
C42 C 0.3905 0.7263 0.30886 0.0
C43 C 0.39333 0.7005 0.32955 0.0
C44 C 0.36379 0.67582 0.34654 0.0
C45 C 0.36558 0.64889 0.36299 0.0
C46 C 0.39663 0.64636 0.36193 0.0
C47 C 0.42625 0.67129 0.34523 0.0
C48 C 0.42459 0.69838 0.32912 0.0
C49 C 0.29237 0.68614 0.22423 0.0
C50 C 0.26638 0.69469 0.31163 0.0
C51 C 0.23322 0.75021 0.21505 0.0
C52 C 0.23792 0.77993 0.19478 0.0
C53 C 0.22678 0.80158 0.20795 0.0
C54 C 0.23773 0.83366 0.19371 0.0
C55 C 0.25961 0.84435 0.16581 0.0
C56 C 0.26897 0.82194 0.15116 0.0
C57 C 0.25826 0.78989 0.16561 0.0
C58 C 0.32653 0.78357 0.30183 0.0
C59 C 0.35253 0.77621 0.2128 0.0
O60 O 0.38109 0.71767 0.27552 0.0
O61 O 0.37287 0.73966 0.3217 0.0
O62 O 0.32638 0.69554 0.22734 0.0
O63 O 0.2861 0.69828 0.24989 0.0
O64 O 0.30167 0.70596 0.31557 0.0
O65 O 0.25085 0.69925 0.28247 0.0
O66 O 0.24072 0.75641 0.24898 0.0
O67 O 0.2471 0.73271 0.20324 0.0
O68 O 0.29225 0.77304 0.29899 0.0
O69 O 0.33369 0.77291 0.27552 0.0
O70 O 0.31748 0.76533 0.20983 0.0
O71 O 0.36848 0.7704 0.24077 0.0
H72 H 0.33918 0.67691 0.34644 0.0
H73 H 0.34255 0.62968 0.37579 0.0
H74 H 0.4506 0.6698 0.34466 0.0
H75 H 0.44728 0.71716 0.31562 0.0
H76 H 0.21101 0.79436 0.23032 0.0
H77 H 0.22936 0.85028 0.20473 0.0
H78 H 0.28551 0.82968 0.12936 0.0
H79 H 0.26719 0.77366 0.1548 0.0
La80 La 0.5249 0.99471 0.54412 0.0
La81 La 0.56685 0.01425 0.48342 0.0
C82 C 0.49462 0.99476 0.59653 0.0
C83 C 0.47613 0.01434 0.60016 0.0
C84 C 0.44088 1.00129 0.58356 0.0
C85 C 0.42778 0.02337 0.57527 0.0
C86 C 0.44916 0.05872 0.58441 0.0
C87 C 0.48276 0.07104 0.60444 0.0
C88 C 0.4962 0.04902 0.61218 0.0
C89 C 0.49828 0.94664 0.49367 0.0
C90 C 0.51381 0.04304 0.4883 0.0
C91 C 0.58999 0.0234 0.42438 0.0
C92 C 0.61847 0.01824 0.41357 0.0
C93 C 0.64678 0.02342 0.43889 0.0
C94 C 0.66223 1.00284 0.43765 0.0
C95 C 0.64947 0.97729 0.41105 0.0
C96 C 0.62537 0.9759 0.38291 0.0
C97 C 0.61002 0.99661 0.38406 0.0
C98 C 0.60454 0.04936 0.5413 0.0
C99 C 0.57777 0.96704 0.53929 0.0
O100 O 0.47926 0.97033 0.57196 0.0
O101 O 0.52987 0.01337 0.59542 0.0
O102 O 0.4986 0.94037 0.52674 0.0
O103 O 0.51169 0.97864 0.49003 0.0
O104 O 0.50277 0.02485 0.51685 0.0
O105 O 0.53963 0.0435 0.47185 0.0
O106 O 0.60014 0.04874 0.4473 0.0
O107 O 0.5621 0.99451 0.43317 0.0
O108 O 0.61724 0.03917 0.51781 0.0
O109 O 0.57218 0.04092 0.53133 0.0
O110 O 0.57745 0.97392 0.50537 0.0
O111 O 0.56345 0.97827 0.56096 0.0
H112 H 0.42455 0.97458 0.57418 0.0
H113 H 0.4018 0.01296 0.55983 0.0
H114 H 0.49922 0.0979 0.61321 0.0
H115 H 0.52331 0.05974 0.62539 0.0
H116 H 0.65361 0.03991 0.46201 0.0
H117 H 0.68089 0.0042 0.45949 0.0
H118 H 0.61574 0.95647 0.36191 0.0
H119 H 0.58801 0.99215 0.36453 0.0
La120 La 0.30482 0.22954 0.76254 0.0
La121 La 0.27178 0.27451 0.75761 0.0
C122 C 0.33145 0.19413 0.74727 0.0
C123 C 0.34462 0.19297 0.71399 0.0
C124 C 0.37578 0.19068 0.71364 0.0
C125 C 0.38921 0.19109 0.68187 0.0
C126 C 0.3715 0.19378 0.6502 0.0
C127 C 0.34098 0.19723 0.65078 0.0
C128 C 0.32781 0.19713 0.68255 0.0
C129 C 0.32752 0.27715 0.81252 0.0
C130 C 0.33399 0.29407 0.71239 0.0
C131 C 0.24788 0.31198 0.77351 0.0
C132 C 0.22921 0.3091 0.80422 0.0
C133 C 0.19689 0.30963 0.80017 0.0
C134 C 0.17624 0.30216 0.82833 0.0
C135 C 0.18772 0.29402 0.86085 0.0
C136 C 0.22015 0.29353 0.86483 0.0
C137 C 0.24069 0.3008 0.83661 0.0
C138 C 0.25092 0.2298 0.70577 0.0
C139 C 0.24087 0.20786 0.80638 0.0
O140 O 0.35042 0.22387 0.76456 0.0
O141 O 0.2964 0.18166 0.74607 0.0
O142 O 0.32426 0.24712 0.81765 0.0
O143 O 0.32066 0.27976 0.78066 0.0
O144 O 0.32809 0.26239 0.71749 0.0
O145 O 0.31801 0.30685 0.72962 0.0
O146 O 0.22992 0.28568 0.75106 0.0
O147 O 0.28213 0.32115 0.78002 0.0
O148 O 0.25412 0.25998 0.70223 0.0
O149 O 0.25636 0.22479 0.73752 0.0
O150 O 0.24486 0.23878 0.80001 0.0
O151 O 0.25948 0.19668 0.79122 0.0
H152 H 0.38943 0.18826 0.73782 0.0
H153 H 0.41243 0.18767 0.68197 0.0
H154 H 0.32688 0.19915 0.62666 0.0
H155 H 0.30437 0.20009 0.68246 0.0
H156 H 0.18744 0.31533 0.77514 0.0
H157 H 0.15178 0.3037 0.82491 0.0
H158 H 0.22956 0.28758 0.88973 0.0
H159 H 0.26522 0.29936 0.84004 0.0
La160 La 0.07211 0.99093 0.51787 0.0
La161 La 1.02166 0.02015 0.5027 0.0
C162 C 0.11338 0.96955 0.54226 0.0
C163 C 0.11781 0.94953 0.57129 0.0
C164 C 0.09886 0.9132 0.56857 0.0
C165 C 0.10758 0.89426 0.59253 0.0
C166 C 0.13552 0.91115 0.61969 0.0
C167 C 0.15313 0.94733 0.62367 0.0
C168 C 0.14444 0.96638 0.59956 0.0
C169 C 1.0195 0.96121 0.46712 0.0
C170 C 1.00579 0.96764 0.56508 0.0
C171 C 0.9706 0.02943 0.48062 0.0
C172 C 0.96554 0.05349 0.45725 0.0
C173 C 0.96419 0.08143 0.47134 0.0
C174 C 0.95682 0.10268 0.44933 0.0
C175 C 0.95036 0.09624 0.41281 0.0
C176 C 0.95245 0.06872 0.3987 0.0
C177 C 0.95993 0.04757 0.42064 0.0
C178 C 0.08449 0.06175 0.53703 0.0
C179 C 0.08876 0.04394 0.4582 0.0
O180 O 0.08553 0.9524 0.51897 0.0
O181 O 0.11949 1.00068 0.54936 0.0
O182 O 0.05142 0.96549 0.46505 0.0
O183 O 1.01852 0.97251 0.49609 0.0
O184 O 1.03533 0.96654 0.55945 0.0
O185 O 0.9952 0.9865 0.54594 0.0
O186 O 0.98955 0.04188 0.51122 0.0
O187 O 0.97814 0.00813 0.46545 0.0
O188 O 0.06715 0.07237 0.51576 0.0
O189 O 0.06536 0.0298 0.54053 0.0
O190 O 0.0543 0.03596 0.45732 0.0
O191 O 0.10353 0.03305 0.48343 0.0
H192 H 0.07827 0.8993 0.54707 0.0
H193 H 0.09313 0.86635 0.58915 0.0
H194 H 0.17491 0.96103 0.64429 0.0
H195 H 0.15968 0.99434 0.60216 0.0
H196 H 0.96825 0.08655 0.49941 0.0
H197 H 0.95586 0.12398 0.46099 0.0
H198 H 0.94707 0.0627 0.37075 0.0
H199 H 0.96046 0.0261 0.40884 0.0
La200 La 0.2263 0.73003 0.82936 0.0
La201 La 0.26225 0.73567 0.76647 0.0
C202 C 0.20277 0.74447 0.88042 0.0
C203 C 0.19001 0.7688 0.88699 0.0
C204 C 0.15271 0.75719 0.8838 0.0
C205 C 0.14029 0.7792 0.89253 0.0
C206 C 0.16489 0.81342 0.90463 0.0
C207 C 0.20228 0.82541 0.90658 0.0
C208 C 0.2147 0.80334 0.89801 0.0
C209 C 0.18933 0.67898 0.78127 0.0
C210 C 0.21958 0.77278 0.76434 0.0
C211 C 0.27805 0.72112 0.71098 0.0
C212 C 0.30224 0.70968 0.70272 0.0
C213 C 0.31892 0.72037 0.67177 0.0
C214 C 0.34355 0.71085 0.66409 0.0
C215 C 0.35128 0.69056 0.68741 0.0
C216 C 0.33473 0.68009 0.7186 0.0
C217 C 0.3102 0.68968 0.72628 0.0
C218 C 0.29974 0.78954 0.80988 0.0
C219 C 0.27565 0.69705 0.83305 0.0
O220 O 0.18237 0.71868 0.85798 0.0
O221 O 0.23728 0.75804 0.87661 0.0
O222 O 0.18994 0.67399 0.81477 0.0
O223 O 0.2078 0.71073 0.77692 0.0
O224 O 0.22062 0.77011 0.79892 0.0
O225 O 0.2288 0.75514 0.7453 0.0
O226 O 0.29425 0.75258 0.72464 0.0
O227 O 0.2506 0.69883 0.72751 0.0
O228 O 0.29884 0.79091 0.77601 0.0
O229 O 0.28189 0.75832 0.81832 0.0
O230 O 0.2798 0.70508 0.7996 0.0
O231 O 0.25636 0.70546 0.85144 0.0
H232 H 0.13298 0.73076 0.87538 0.0
H233 H 0.1113 0.76889 0.89097 0.0
H234 H 0.22205 0.85181 0.91504 0.0
H235 H 0.24366 0.81327 0.9006 0.0
H236 H 0.31312 0.73623 0.65381 0.0
H237 H 0.35669 0.71945 0.64014 0.0
H238 H 0.34038 0.66418 0.73666 0.0
H239 H 0.29741 0.68133 0.75037 0.0
La240 La 0.56659 0.98515 1.0003 0.0
La241 La 0.52588 0.02433 0.02207 0.0
C242 C 0.59468 0.95499 0.96979 0.0
C243 C 0.6129 0.93773 0.95272 0.0
C244 C 0.64751 0.94387 0.96619 0.0
C245 C 0.66497 0.92841 0.95067 0.0
C246 C 0.64882 0.90565 0.9207 0.0
C247 C 0.61395 0.89949 0.90732 0.0
C248 C 0.59653 0.91512 0.92286 0.0
C249 C 0.59602 0.02828 0.05593 0.0
C250 C 0.57935 0.05542 0.96511 0.0
C251 C 0.49726 0.05413 0.05233 0.0
C252 C 0.47893 0.07126 0.06942 0.0
C253 C 0.44415 0.0648 0.05617 0.0
C254 C 0.42671 0.0803 0.07167 0.0
C255 C 0.44305 0.10339 0.10138 0.0
C256 C 0.47807 0.10982 0.11456 0.0
C257 C 0.49547 0.09417 0.09903 0.0
C258 C 0.49711 0.98166 0.9661 0.0
C259 C 0.51316 0.95435 0.05737 0.0
O260 O 0.61099 0.9775 0.99609 0.0
O261 O 0.56185 0.94935 0.96044 0.0
O262 O 0.59825 1.00083 0.0516 0.0
O263 O 0.57966 0.03184 0.02863 0.0
O264 O 0.57971 0.02608 0.96276 0.0
O265 O 0.56372 0.06245 0.98939 0.0
O266 O 0.48072 0.03078 0.02675 0.0
O267 O 0.5305 0.06069 0.06111 0.0
O268 O 0.49525 0.00933 0.97027 0.0
O269 O 0.51278 0.97768 0.99367 0.0
O270 O 0.51371 0.98408 0.05998 0.0
O271 O 0.52849 0.94702 0.03301 0.0
H272 H 0.66149 0.96099 0.98901 0.0
H273 H 0.6917 0.93505 0.96226 0.0
H274 H 0.59942 0.88211 0.88486 0.0
H275 H 0.57001 0.90938 0.91135 0.0
H276 H 0.43005 0.04745 0.03354 0.0
H277 H 0.39986 0.07347 0.06026 0.0
H278 H 0.49273 0.12745 0.13682 0.0
H279 H 0.52214 0.10017 0.11036 0.0
La280 La 0.32133 0.25724 0.29389 0.0
La281 La 0.27203 0.25349 0.2292 0.0
C282 C 0.34529 0.23427 0.3441 0.0
C283 C 0.36426 0.21444 0.3533 0.0
C284 C 0.40216 0.22941 0.35432 0.0
C285 C 0.41925 0.21106 0.36724 0.0
C286 C 0.39896 0.17735 0.3798 0.0
C287 C 0.36098 0.16224 0.37769 0.0
C288 C 0.34403 0.18046 0.36482 0.0
C289 C 0.35294 0.30736 0.24899 0.0
C290 C 0.31903 0.21673 0.22212 0.0
C291 C 0.24808 0.27633 0.17889 0.0
C292 C 0.22547 0.29221 0.16787 0.0
C293 C 0.20355 0.28123 0.13581 0.0
C294 C 0.18661 0.2991 0.12149 0.0
C295 C 0.19113 0.32878 0.13867 0.0
C296 C 0.2121 0.33904 0.17155 0.0
C297 C 0.2291 0.3211 0.18588 0.0
C298 C 0.24045 0.20324 0.27399 0.0
C299 C 0.27409 0.29359 0.30154 0.0
O300 O 0.36341 0.26612 0.33352 0.0
O301 O 0.3129 0.21692 0.32724 0.0
O302 O 0.36254 0.31065 0.28267 0.0
O303 O 0.32888 0.27619 0.24203 0.0
O304 O 0.32823 0.22374 0.25652 0.0
O305 O 0.29842 0.22779 0.20473 0.0
O306 O 0.23228 0.24351 0.18654 0.0
O307 O 0.27809 0.29521 0.19921 0.0
O308 O 0.2306 0.20009 0.24038 0.0
O309 O 0.26447 0.23442 0.28083 0.0
O310 O 0.26391 0.28577 0.26729 0.0
O311 O 0.29582 0.28362 0.31856 0.0
H312 H 0.41875 0.25559 0.34598 0.0
H313 H 0.44852 0.22383 0.36849 0.0
H314 H 0.34413 0.13619 0.38625 0.0
H315 H 0.31484 0.16809 0.36471 0.0
H316 H 0.20044 0.25933 0.1211 0.0
H317 H 0.17017 0.28967 0.09662 0.0
H318 H 0.21662 0.36177 0.18571 0.0
H319 H 0.24607 0.33059 0.21049 0.0
La320 La 0.57153 0.48713 0.0162 0.0
La321 La 0.5241 0.52168 1.0069 0.0
C322 C 0.61128 0.46377 0.04069 0.0
C323 C 0.63445 0.44931 0.05476 0.0
C324 C 0.62763 0.41704 0.04227 0.0
C325 C 0.64863 0.40284 0.05594 0.0
C326 C 0.6773 0.42045 0.0826 0.0
C327 C 0.6841 0.4529 0.09497 0.0
C328 C 0.66299 0.46704 0.08133 0.0
C329 C 0.51799 0.46148 0.96637 0.0
C330 C 0.50419 0.46527 0.06361 0.0
C331 C 0.48442 0.5452 0.98273 0.0
C332 C 0.46229 0.56061 0.96842 0.0
C333 C 0.47889 0.59638 0.96341 0.0
C334 C 0.45856 0.61117 0.94957 0.0
C335 C 0.42081 0.59073 0.94061 0.0
C336 C 0.40416 0.55488 0.94589 0.0
C337 C 0.42467 0.54 0.95933 0.0
C338 C 0.57735 0.54649 0.05689 0.0
C339 C 0.59106 0.54314 0.95902 0.0
O340 O 0.58356 0.44703 0.01709 0.0
O341 O 0.61698 0.49424 0.05016 0.0
O342 O 0.54812 0.46166 0.96456 0.0
O343 O 0.51783 0.47269 0.996 0.0
O344 O 0.5356 0.46696 0.05956 0.0
O345 O 0.49188 0.482 0.04307 0.0
O346 O 0.51425 0.56306 1.00365 0.0
O347 O 0.47641 0.51341 0.97576 0.0
O348 O 0.54716 0.54614 0.05927 0.0
O349 O 0.57751 0.53581 0.02702 0.0
O350 O 0.56017 0.54219 0.9638 0.0
O351 O 0.60313 0.52581 0.97891 0.0
H352 H 0.60577 0.40248 0.02198 0.0
H353 H 0.6418 0.37764 0.04592 0.0
H354 H 0.70609 0.46776 0.11502 0.0
H355 H 0.66902 0.4919 0.09171 0.0
H356 H 0.50784 0.61301 0.96993 0.0
H357 H 0.47247 0.63884 0.9463 0.0
H358 H 0.37531 0.53814 0.93902 0.0
H359 H 0.41102 0.51236 0.96278 0.0
La360 La 0.82908 0.27386 0.25644 0.0
La361 La 0.86747 0.27681 0.19546 0.0
C362 C 0.81637 0.28163 0.31644 0.0
C363 C 0.79207 0.29153 0.32829 0.0
C364 C 0.75857 0.28064 0.30888 0.0
C365 C 0.73784 0.29461 0.31681 0.0
C366 C 0.75093 0.32005 0.34363 0.0
C367 C 0.78436 0.33081 0.36313 0.0
C368 C 0.80487 0.3164 0.35552 0.0
C369 C 0.78542 0.23331 0.20383 0.0
C370 C 0.82307 0.31521 0.19205 0.0
C371 C 0.8923 0.26196 0.14581 0.0
C372 C 0.90219 0.23554 0.13866 0.0
C373 C 0.93686 0.24114 0.15016 0.0
C374 C 0.9474 0.21789 0.14051 0.0
C375 C 0.92349 0.18832 0.1192 0.0
C376 C 0.88826 0.18198 0.10902 0.0
C377 C 0.87782 0.20539 0.11846 0.0
C378 C 0.90295 0.32853 0.24304 0.0
C379 C 0.8662 0.22972 0.25954 0.0
O380 O 0.80082 0.2514 0.29991 0.0
O381 O 0.84254 0.3063 0.30028 0.0
O382 O 0.77672 0.24937 0.22533 0.0
O383 O 0.81691 0.23874 0.21345 0.0
O384 O 0.82541 0.31421 0.22676 0.0
O385 O 0.83439 0.29862 0.17316 0.0
O386 O 0.91258 0.28545 0.17047 0.0
O387 O 0.85776 0.25115 0.14677 0.0
O388 O 0.9034 0.33321 0.20947 0.0
O389 O 0.88377 0.29692 0.24748 0.0
O390 O 0.87844 0.24178 0.22882 0.0
O391 O 0.84519 0.23801 0.27419 0.0
H392 H 0.74891 0.26217 0.28697 0.0
H393 H 0.7119 0.2859 0.30174 0.0
H394 H 0.79503 0.35098 0.38348 0.0
H395 H 0.83132 0.32568 0.36977 0.0
H396 H 0.95636 0.26403 0.16581 0.0
H397 H 0.97484 0.22392 0.14869 0.0
H398 H 0.86876 0.15908 0.09337 0.0
H399 H 0.85083 0.20016 0.10932 0.0
La400 La 0.06587 0.48263 0.50606 0.0
La401 La 1.02474 0.52477 0.51781 0.0
C402 C 0.09584 0.45347 0.47714 0.0
C403 C 0.11389 0.43608 0.46002 0.0
C404 C 0.14326 0.43431 0.47765 0.0
C405 C 0.16069 0.41904 0.46162 0.0
C406 C 0.14966 0.40428 0.42691 0.0
C407 C 0.11984 0.40597 0.40951 0.0
C408 C 0.10264 0.42152 0.42552 0.0
C409 C 0.08177 0.51748 0.567 0.0
C410 C 0.09574 0.56091 0.48108 0.0
C411 C 0.99498 0.5542 0.54654 0.0
C412 C 0.97717 0.57178 0.56368 0.0
C413 C 0.9464 0.57182 0.5471 0.0
C414 C 0.92932 0.58734 0.56334 0.0
C415 C 0.94214 0.60403 0.59715 0.0
C416 C 0.97338 0.60412 0.6134 0.0
C417 C 0.99021 0.58833 0.59723 0.0
C418 C 1.00945 0.49058 0.45665 0.0
C419 C 0.99491 0.44656 0.54284 0.0
O420 O 0.10446 0.46577 0.50962 0.0
O421 O 0.06977 0.45732 0.46121 0.0
O422 O 0.08448 0.49018 0.56268 0.0
O423 O 0.07362 0.52562 0.53738 0.0
O424 O 0.09533 0.53116 0.47948 0.0
O425 O 0.07279 0.56588 0.49743 0.0
O426 O 0.98463 0.53974 0.51491 0.0
O427 O 1.02257 0.55227 0.56168 0.0
O428 O 1.00691 0.51796 0.46115 0.0
O429 O 1.01707 0.48193 0.48626 0.0
O430 O 0.99576 0.47649 0.54497 0.0
O431 O 1.01748 0.44148 0.52594 0.0
H432 H 0.15322 0.44513 0.50412 0.0
H433 H 0.18332 0.41947 0.4769 0.0
H434 H 0.10906 0.39508 0.38327 0.0
H435 H 0.08025 0.42207 0.41064 0.0
H436 H 0.9351 0.55946 0.52137 0.0
H437 H 0.90553 0.58557 0.54905 0.0
H438 H 0.98561 0.61667 0.63881 0.0
H439 H 1.01376 0.5892 0.61125 0.0
La440 La 0.81629 0.73637 0.28037 0.0
La441 La 0.76928 0.76266 0.25381 0.0
C442 C 0.85615 0.71058 0.28461 0.0
C443 C 0.86608 0.69861 0.25504 0.0
C444 C 0.8819 0.6781 0.25985 0.0
C445 C 0.88501 0.6619 0.23073 0.0
C446 C 0.8728 0.66685 0.19702 0.0
C447 C 0.85836 0.6884 0.1923 0.0
C448 C 0.8543 0.70352 0.22119 0.0
C449 C 0.81944 0.78424 0.32191 0.0
C450 C 0.84158 0.79456 0.22284 0.0
C451 C 0.72797 0.78646 0.25012 0.0
C452 C 0.71549 0.79401 0.28074 0.0
C453 C 0.68529 0.79806 0.27802 0.0
C454 C 0.67462 0.80583 0.30817 0.0
C455 C 0.69399 0.80915 0.34105 0.0
C456 C 0.72325 0.80354 0.34363 0.0
C457 C 0.73413 0.79637 0.31363 0.0
C458 C 0.7675 0.71564 0.21192 0.0
C459 C 0.74392 0.7053 0.31161 0.0
O460 O 0.86889 0.74389 0.28656 0.0
O461 O 0.82143 0.69279 0.28783 0.0
O462 O 0.82239 0.75824 0.33269 0.0
O463 O 0.81701 0.78335 0.28912 0.0
O464 O 0.84241 0.76722 0.23509 0.0
O465 O 0.8168 0.80132 0.23112 0.0
O466 O 0.71624 0.75361 0.24469 0.0
O467 O 0.76297 0.80577 0.24863 0.0
O468 O 0.7644 0.7416 0.20131 0.0
O469 O 0.76886 0.71578 0.24469 0.0
O470 O 0.7439 0.73329 0.30019 0.0
O471 O 0.76805 0.69803 0.30239 0.0
H472 H 0.89009 0.67332 0.28594 0.0
H473 H 0.89587 0.64481 0.2345 0.0
H474 H 0.8479 0.69161 0.16652 0.0
H475 H 0.83957 0.7169 0.21693 0.0
H476 H 0.67069 0.7961 0.25273 0.0
H477 H 0.65241 0.81089 0.30551 0.0
H478 H 0.73859 0.80609 0.36863 0.0
H479 H 0.75779 0.79358 0.31606 0.0
La480 La 0.81097 0.27678 0.77663 0.0
La481 La 0.74709 0.28012 0.7459 0.0
C482 C 0.86141 0.28336 0.81977 0.0
C483 C 0.86106 0.25943 0.84561 0.0
C484 C 0.83236 0.22512 0.84286 0.0
C485 C 0.83426 0.20053 0.86379 0.0
C486 C 0.86491 0.2102 0.88765 0.0
C487 C 0.89149 0.24535 0.89314 0.0
C488 C 0.88969 0.26996 0.87187 0.0
C489 C 0.76835 0.22667 0.72985 0.0
C490 C 0.73704 0.23844 0.81202 0.0
C491 C 0.69516 0.27838 0.70869 0.0
C492 C 0.69216 0.30398 0.6873 0.0
C493 C 0.66489 0.31119 0.69281 0.0
C494 C 0.66474 0.33912 0.67693 0.0
C495 C 0.69175 0.35986 0.65518 0.0
C496 C 0.71846 0.35206 0.64883 0.0
C497 C 0.71884 0.32434 0.66503 0.0
C498 C 0.79285 0.33055 0.79198 0.0
C499 C 0.81936 0.31283 0.70748 0.0
O500 O 0.85706 0.27245 0.78716 0.0
O501 O 0.8406 0.29578 0.82552 0.0
O502 O 0.80293 0.23862 0.73607 0.0
O503 O 0.75868 0.23971 0.75207 0.0
O504 O 0.77272 0.25325 0.81654 0.0
O505 O 0.72037 0.24013 0.78217 0.0
O506 O 0.70205 0.28647 0.74223 0.0
O507 O 0.71496 0.26653 0.69779 0.0
O508 O 0.75801 0.3164 0.79048 0.0
O509 O 0.79981 0.31705 0.76812 0.0
O510 O 0.78367 0.29926 0.7037 0.0
O511 O 0.83667 0.31369 0.7379 0.0
H512 H 0.80973 0.21694 0.82287 0.0
H513 H 0.81353 0.17365 0.85871 0.0
H514 H 0.91511 0.25332 0.91177 0.0
H515 H 0.9115 0.29667 0.87459 0.0
H516 H 0.64444 0.29588 0.7103 0.0
H517 H 0.64356 0.34451 0.68162 0.0
H518 H 0.73946 0.36789 0.63206 0.0
H519 H 0.7405 0.31951 0.66088 0.0
La520 La 0.82105 0.75732 0.7921 0.0
La521 La 0.7706 0.75171 0.72813 0.0
C522 C 0.84643 0.73558 0.84229 0.0
C523 C 0.86517 0.71536 0.85074 0.0
C524 C 0.90265 0.72944 0.84887 0.0
C525 C 0.92004 0.71117 0.86114 0.0
C526 C 0.90053 0.67841 0.87591 0.0
C527 C 0.86287 0.66407 0.87667 0.0
C528 C 0.84559 0.68223 0.86442 0.0
C529 C 0.85132 0.80742 0.74713 0.0
C530 C 0.81773 0.71578 0.72026 0.0
C531 C 0.74438 0.77245 0.67771 0.0
C532 C 0.72645 0.79311 0.66823 0.0
C533 C 0.69061 0.78249 0.67478 0.0
C534 C 0.67401 0.80135 0.66208 0.0
C535 C 0.6927 0.83111 0.64225 0.0
C536 C 0.72887 0.84205 0.63682 0.0
C537 C 0.74534 0.82337 0.64948 0.0
C538 C 0.74148 0.70219 0.7741 0.0
C539 C 0.77396 0.7937 0.79941 0.0
O540 O 0.86448 0.76675 0.83006 0.0
O541 O 0.81304 0.71837 0.82751 0.0
O542 O 0.8607 0.81103 0.78087 0.0
O543 O 0.82793 0.77597 0.7401 0.0
O544 O 0.8281 0.72385 0.75445 0.0
O545 O 0.79585 0.72551 0.70326 0.0
O546 O 0.72621 0.7418 0.69102 0.0
O547 O 0.77783 0.78978 0.69211 0.0
O548 O 0.73205 0.69746 0.74037 0.0
O549 O 0.76411 0.73384 0.78009 0.0
O550 O 0.76377 0.78551 0.76526 0.0
O551 O 0.79575 0.78393 0.81667 0.0
H552 H 0.91879 0.75495 0.83877 0.0
H553 H 0.94906 0.72335 0.86014 0.0
H554 H 0.84653 0.63872 0.88701 0.0
H555 H 0.81676 0.67055 0.86652 0.0
H556 H 0.67516 0.75929 0.68906 0.0
H557 H 0.64612 0.79194 0.66684 0.0
H558 H 0.74464 0.86515 0.62252 0.0
H559 H 0.77294 0.83232 0.64389 0.0
La560 La 0.52943 0.4731 0.4805 0.0
La561 La 0.54672 0.52008 0.54513 0.0
C562 C 0.52383 0.44057 0.4263 0.0
C563 C 0.54903 0.43326 0.4123 0.0
C564 C 0.53569 0.40286 0.39226 0.0
C565 C 0.55937 0.39224 0.38421 0.0
C566 C 0.59617 0.41208 0.39647 0.0
C567 C 0.60957 0.44287 0.416 0.0
C568 C 0.58596 0.4535 0.4239 0.0
C569 C 0.48658 0.44616 0.53094 0.0
C570 C 0.59464 0.48781 0.53603 0.0
C571 C 0.54565 0.53944 0.60506 0.0
C572 C 0.54126 0.56729 0.61623 0.0
C573 C 0.5393 0.58937 0.59099 0.0
C574 C 0.52688 0.61109 0.59937 0.0
C575 C 0.51613 0.61047 0.63288 0.0
C576 C 0.52024 0.58983 0.65869 0.0
C577 C 0.53282 0.56816 0.65028 0.0
C578 C 0.58436 0.55761 0.49352 0.0
C579 C 0.49039 0.51432 0.48363 0.0
O580 O 0.51362 0.42585 0.4562 0.0
O581 O 0.53306 0.47324 0.42661 0.0
O582 O 0.47565 0.44042 0.49793 0.0
O583 O 0.52042 0.46583 0.53464 0.0
O584 O 0.58027 0.47796 0.50325 0.0
O585 O 0.58192 0.50022 0.55793 0.0
O586 O 0.57585 0.54909 0.59089 0.0
O587 O 0.51669 0.51525 0.58655 0.0
O588 O 0.58446 0.57052 0.52356 0.0
O589 O 0.5629 0.52564 0.49416 0.0
O590 O 0.5002 0.52048 0.51773 0.0
O591 O 0.50346 0.50094 0.46333 0.0
H592 H 0.50696 0.38676 0.38416 0.0
H593 H 0.54885 0.3681 0.36947 0.0
H594 H 0.63805 0.45837 0.42543 0.0
H595 H 0.5963 0.47681 0.43998 0.0
H596 H 0.54513 0.58817 0.56429 0.0
H597 H 0.52371 0.62686 0.57923 0.0
H598 H 0.51128 0.58858 0.68447 0.0
H599 H 0.53369 0.55058 0.66954 0.0
La600 La 1.0334 0.50005 0.03511 0.0
La601 La 0.07132 0.51478 0.97158 0.0
C602 C 1.00966 0.50479 0.09026 0.0
C603 C 0.98048 0.51183 0.09301 0.0
C604 C 0.94739 0.49252 0.07202 0.0
C605 C 0.92423 0.50549 0.06565 0.0
C606 C 0.93425 0.53795 0.07974 0.0
C607 C 0.96619 0.55628 0.10238 0.0
C608 C 0.98908 0.54312 0.10921 0.0
C609 C 0.99542 0.45464 0.98245 0.0
C610 C 1.02512 0.55013 0.97768 0.0
C611 C 0.09148 0.50435 0.91669 0.0
C612 C 0.0917 0.4725 0.91002 0.0
C613 C 0.12489 0.47437 0.9072 0.0
C614 C 0.12821 0.44546 0.91375 0.0
C615 C 0.09834 0.41439 0.92322 0.0
C616 C 0.06451 0.41183 0.92331 0.0
C617 C 0.06114 0.44057 0.91661 0.0
C618 C 0.10695 0.56193 0.02213 0.0
C619 C 0.07941 0.46607 0.03012 0.0
O620 O 1.0004 0.47499 0.07542 0.0
O621 O 1.03801 0.53056 0.07779 0.0
O622 O 0.99404 0.44695 0.01521 0.0
O623 O 1.01592 0.48671 0.98101 0.0
O624 O 1.0185 0.53651 1.00921 0.0
O625 O 1.04469 0.54413 0.95724 0.0
O626 O 0.1144 0.52351 0.94305 0.0
O627 O 0.05936 0.50056 0.91805 0.0
O628 O 0.10869 0.5684 0.98903 0.0
O629 O 0.08874 0.5297 0.02539 0.0
O630 O 0.0778 0.47222 0.99606 0.0
O631 O 0.06805 0.4798 0.05205 0.0
H632 H 0.94035 0.46849 0.05876 0.0
H633 H 0.89926 0.49086 0.04872 0.0
H634 H 0.97369 0.58101 0.11438 0.0
H635 H 1.01471 0.55853 0.12502 0.0
H636 H 0.14883 0.49881 0.90269 0.0
H637 H 0.15444 0.44777 0.91263 0.0
H638 H 1.04111 0.38825 0.93062 0.0
H639 H 1.03521 0.43832 0.9196 0.0
H640 H 0.20666 0.22394 0.85356 0.0
H641 H 0.09725 0.03152 0.92415 0.0
H642 H 0.21615 0.13914 0.81583 0.0
H643 H 0.11031 0.12111 0.97843 0.0
H644 H 0.13431 0.06923 0.87929 0.0
H645 H 0.16526 0.18539 0.89508 0.0
C646 C 0.19995 0.19725 0.85388 0.0
C647 C 0.21505 0.1849 0.83123 0.0
C648 C 0.12882 0.08058 0.90089 0.0
C649 C 0.16742 0.14045 0.87848 0.0
C650 C 0.10748 0.05904 0.92634 0.0
C651 C 0.10074 0.07326 0.95502 0.0
C652 C 0.14316 0.11651 0.90399 0.0
C653 C 0.1149 0.10913 0.95673 0.0
C654 C 0.17636 0.17523 0.87763 0.0
C655 C 0.20537 0.14994 0.8329 0.0
N656 N 0.13544 0.1295 0.93165 0.0
N657 N 0.18217 0.12899 0.85602 0.0
H658 H 0.21571 0.97562 0.05072 0.0
H659 H 0.29145 0.90598 0.202 0.0
H660 H 0.25538 0.02335 0.15438 0.0
H661 H 0.25417 0.85994 0.09749 0.0
H662 H 0.29783 0.9598 0.17971 0.0
H663 H 0.24921 0.94537 0.06116 0.0
C664 C 0.23254 0.98053 0.07527 0.0
C665 C 0.23227 1.00114 0.10214 0.0
C666 C 0.28918 0.93828 0.16141 0.0
C667 C 0.26984 0.96633 0.11458 0.0
C668 C 0.28537 0.90759 0.17418 0.0
C669 C 0.27137 0.87853 0.15157 0.0
C670 C 0.27816 0.93946 0.126 0.0
C671 C 0.26462 0.88183 0.11573 0.0
C672 C 0.25164 0.9633 0.08127 0.0
C673 C 0.2547 0.00726 0.13324 0.0
N674 N 0.26726 0.9116 0.10411 0.0
N675 N 0.27191 0.98911 0.13903 0.0
H676 H 0.49356 0.95595 0.42327 0.0
H677 H 0.31353 0.78843 0.3693 0.0
H678 H 0.45148 0.8774 0.50033 0.0
H679 H 0.39975 0.82426 0.30183 0.0
H680 H 0.35836 0.82469 0.41778 0.0
H681 H 0.45453 0.91243 0.37724 0.0
C682 C 0.47664 0.92946 0.43045 0.0
C683 C 0.47621 0.92016 0.46558 0.0
C684 C 0.36733 0.82429 0.39238 0.0
C685 C 0.43036 0.87077 0.41331 0.0
C686 C 0.34187 0.80396 0.36477 0.0
C687 C 0.35305 0.80393 0.33155 0.0
C688 C 0.40384 0.8454 0.38625 0.0
C689 C 0.3901 0.82396 0.32703 0.0
C690 C 0.4543 0.90472 0.40421 0.0
C691 C 0.45276 0.88557 0.4735 0.0
N692 N 0.41416 0.8445 0.35391 0.0
N693 N 0.43021 0.86213 0.44758 0.0
H694 H 0.32626 0.14773 0.59847 0.0
H695 H 0.48955 0.12577 0.56429 0.0
H696 H 0.4389 0.22283 0.62742 0.0
H697 H 0.37948 0.04597 0.57791 0.0
H698 H 0.469 0.16744 0.55668 0.0
H699 H 0.34453 0.11992 0.55759 0.0
C700 C 0.35481 0.15942 0.5949 0.0
C701 C 0.38133 0.18683 0.61697 0.0
C702 C 0.44931 0.14051 0.56012 0.0
C703 C 0.40217 0.15468 0.57138 0.0
C704 C 0.46104 0.11687 0.56519 0.0
C705 C 0.43643 0.08264 0.57324 0.0
C706 C 0.4128 0.12962 0.56286 0.0
C707 C 0.39958 0.07212 0.57225 0.0
C708 C 0.36521 0.14343 0.57168 0.0
C709 C 0.41785 0.201 0.61143 0.0
N710 N 0.389 0.09571 0.56783 0.0
N711 N 0.42738 0.18405 0.58982 0.0
H712 H 0.1462 0.85969 0.5986 0.0
H713 H 0.20249 0.81915 0.79083 0.0
H714 H 0.15384 0.91757 0.69105 0.0
H715 H 0.20844 0.77522 0.69388 0.0
H716 H 0.18235 0.85418 0.75624 0.0
H717 H 0.16643 0.8266 0.63474 0.0
C718 C 0.15184 0.86523 0.62663 0.0
C719 C 0.14791 0.89114 0.64192 0.0
C720 C 0.18816 0.8368 0.74277 0.0
C721 C 0.17174 0.85362 0.68362 0.0
C722 C 0.19948 0.8168 0.76247 0.0
C723 C 0.20697 0.79414 0.74534 0.0
C724 C 0.18422 0.83377 0.7059 0.0
C725 C 0.20294 0.79222 0.70845 0.0
C726 C 0.16371 0.8465 0.64728 0.0
C727 C 0.15656 0.8978 0.67827 0.0
N728 N 0.1918 0.81166 0.69011 0.0
N729 N 0.16796 0.87902 0.69799 0.0
H730 H 0.33787 0.85755 0.79524 0.0
H731 H 0.47603 0.91304 0.96884 0.0
H732 H 0.32691 0.78648 0.87684 0.0
H733 H 0.46045 0.986 0.90621 0.0
H734 H 0.42787 0.86575 0.93059 0.0
H735 H 0.38827 0.90451 0.83164 0.0
C736 C 0.34598 0.85191 0.82096 0.0
C737 C 0.32818 0.81815 0.83314 0.0
C738 C 0.43515 0.89213 0.92515 0.0
C739 C 0.38623 0.87161 0.87466 0.0
C740 C 0.46281 0.91911 0.94675 0.0
C741 C 0.47201 0.9534 0.94071 0.0
C742 C 0.41696 0.89959 0.89712 0.0
C743 C 0.45401 0.95987 0.91181 0.0
C744 C 0.37477 0.87869 0.84167 0.0
C745 C 0.33982 0.8122 0.86659 0.0
N746 N 0.42731 0.93322 0.89111 0.0
N747 N 0.36831 0.83866 0.88613 0.0
H748 H 0.38615 0.11379 0.07292 0.0
H749 H 0.37173 0.20221 0.24874 0.0
H750 H 0.45472 0.13269 0.16951 0.0
H751 H 0.30683 0.19148 0.15186 0.0
H752 H 0.40074 0.1759 0.21979 0.0
H753 H 0.3559 0.1397 0.10056 0.0
C754 C 0.39513 0.12301 0.0999 0.0
C755 C 0.42384 0.12027 0.11826 0.0
C756 C 0.3801 0.17906 0.20466 0.0
C757 C 0.38841 0.1515 0.15061 0.0
C758 C 0.36317 0.19419 0.22135 0.0
C759 C 0.3361 0.1993 0.20324 0.0
C760 C 0.37029 0.16821 0.16903 0.0
C761 C 0.32721 0.18826 0.16741 0.0
C762 C 0.37766 0.1383 0.1157 0.0
C763 C 0.43354 0.13401 0.15327 0.0
N764 N 0.34397 0.17332 0.15177 0.0
N765 N 0.41612 0.14867 0.16791 0.0
H766 H 0.16295 0.08627 0.46306 0.0
H767 H 0.1752 0.1422 0.26314 0.0
H768 H 0.06725 0.05389 0.39112 0.0
H769 H 0.25426 0.20854 0.34611 0.0
H770 H 0.13832 0.10323 0.3075 0.0
H771 H 0.20013 0.12456 0.41853 0.0
C772 C 0.14972 0.08696 0.43783 0.0
C773 C 0.11177 0.06667 0.43092 0.0
C774 C 0.16397 0.12615 0.31593 0.0
C775 C 0.15446 0.11035 0.37951 0.0
C776 C 0.18515 0.14837 0.2906 0.0
C777 C 0.21842 0.1785 0.30068 0.0
C778 C 0.17637 0.13354 0.35176 0.0
C779 C 0.22945 0.18525 0.33686 0.0
C780 C 0.171 0.10901 0.41248 0.0
C781 C 0.0963 0.06905 0.39774 0.0
N782 N 0.20877 0.16288 0.36095 0.0
N783 N 0.11764 0.09018 0.37327 0.0
H784 H 0.90527 0.15377 0.05511 0.0
H785 H 1.03635 0.07737 0.09653 0.0
H786 H 0.97033 0.1701 0.15371 0.0
H787 H 0.96547 0.05238 1.00049 0.0
H788 H 1.01369 0.11313 0.11643 0.0
H789 H 0.92713 0.11735 0.03406 0.0
C790 C 0.92385 0.14952 0.07255 0.0
C791 C 0.9358 0.16515 0.10641 0.0
C792 C 1.00295 0.09984 0.09103 0.0
C793 C 0.96171 0.12404 0.08187 0.0
C794 C 1.01589 0.07931 0.07955 0.0
C795 C 1.00254 0.06153 0.04682 0.0
C796 C 0.97635 0.10278 0.06974 0.0
C797 C 0.97638 0.06551 0.02594 0.0
C798 C 0.93659 0.12893 0.06029 0.0
C799 C 0.96064 0.15916 0.12729 0.0
N800 N 0.96402 0.08569 0.03783 0.0
N801 N 0.97277 0.1392 0.11465 0.0
H802 H 0.16572 0.5782 0.48719 0.0
H803 H 0.19724 0.67975 0.31329 0.0
H804 H 0.09112 0.60748 0.43815 0.0
H805 H 0.28345 0.67359 0.37457 0.0
H806 H 0.15941 0.65549 0.36062 0.0
H807 H 0.21152 0.61711 0.44976 0.0
C808 C 0.15946 0.59359 0.46895 0.0
C809 C 0.12489 0.58974 0.4651 0.0
C810 C 0.18665 0.65963 0.36395 0.0
C811 C 0.17632 0.63332 0.42211 0.0
C812 C 0.20824 0.67311 0.33673 0.0
C813 C 0.24347 0.67832 0.33996 0.0
C814 C 0.20016 0.65089 0.39454 0.0
C815 C 0.25632 0.66969 0.37106 0.0
C816 C 0.18548 0.61569 0.44767 0.0
C817 C 0.11769 0.61004 0.44162 0.0
N818 N 0.23441 0.65601 0.39725 0.0
N819 N 0.14315 0.63065 0.42033 0.0
H820 H 0.57361 0.94075 0.6049 0.0
H821 H 0.70083 0.86169 0.57806 0.0
H822 H 0.61923 0.94585 0.50776 0.0
H823 H 0.64324 0.84462 0.66964 0.0
H824 H 0.67326 0.89428 0.55309 0.0
H825 H 0.60044 0.90745 0.62957 0.0
C826 C 0.5893 0.93494 0.58864 0.0
C827 C 0.59406 0.94632 0.55401 0.0
C828 C 0.66656 0.88338 0.57861 0.0
C829 C 0.62523 0.90784 0.58256 0.0
C830 C 0.68256 0.86487 0.59315 0.0
C831 C 0.67477 0.85034 0.62637 0.0
C832 C 0.6424 0.88772 0.59723 0.0
C833 C 0.65006 0.85497 0.64395 0.0
C834 C 0.6046 0.91575 0.60285 0.0
C835 C 0.61466 0.93766 0.53446 0.0
N836 N 0.63498 0.8733 0.62929 0.0
N837 N 0.62953 0.91912 0.54902 0.0
H838 H 0.4492 0.42515 0.98468 0.0
H839 H 0.35952 0.34423 0.79511 0.0
H840 H 0.51248 0.4496 0.89631 0.0
H841 H 0.34211 0.27861 0.88363 0.0
H842 H 0.40128 0.39453 0.83321 0.0
H843 H 0.39548 0.38254 0.94737 0.0
C844 C 0.45149 0.42206 0.95722 0.0
C845 C 0.48506 0.44029 0.9433 0.0
C846 C 0.38764 0.36915 0.84427 0.0
C847 C 0.42434 0.39295 0.9011 0.0
C848 C 0.3639 0.34051 0.82275 0.0
C849 C 0.34799 0.30732 0.8364 0.0
C850 C 0.39469 0.36448 0.87963 0.0
C851 C 0.35438 0.30384 0.87226 0.0
C852 C 0.42104 0.39784 0.9362 0.0
C853 C 0.48697 0.43556 0.9078 0.0
N854 N 0.37761 0.33227 0.89284 0.0
N855 N 0.45682 0.41215 0.88772 0.0
H856 H 0.82425 0.79348 0.39226 0.0
H857 H 1.01539 0.94415 0.39771 0.0
H858 H 0.85843 0.84872 0.297 0.0
H859 H 0.95055 0.93672 0.48068 0.0
H860 H 0.95908 0.9086 0.35929 0.0
H861 H 0.86985 0.84563 0.42617 0.0
C862 C 0.84063 0.81694 0.37866 0.0
C863 C 0.83821 0.81693 0.34207 0.0
C864 C 0.95747 0.91558 0.38571 0.0
C865 C 0.89065 0.8756 0.38007 0.0
C866 C 0.98938 0.93535 0.40757 0.0
C867 C 0.9873 0.94273 0.44226 0.0
C868 C 0.92383 0.90275 0.39927 0.0
C869 C 0.95315 0.93121 0.45404 0.0
C870 C 0.86656 0.84656 0.39786 0.0
C871 C 0.85989 0.84778 0.32533 0.0
N872 N 0.92263 0.91115 0.43276 0.0
N873 N 0.88623 0.87579 0.34451 0.0
H874 H 0.52443 0.64917 0.69035 0.0
H875 H 0.35084 0.66234 0.62579 0.0
H876 H 0.46055 0.60752 0.59077 0.0
H877 H 0.40731 0.69432 0.7297 0.0
H878 H 0.39375 0.64564 0.61082 0.0
H879 H 0.48438 0.67014 0.70385 0.0
C880 C 0.50224 0.64497 0.67124 0.0
C881 C 0.49573 0.6271 0.63943 0.0
C882 C 0.39679 0.65631 0.6369 0.0
C883 C 0.45021 0.65043 0.65444 0.0
C884 C 0.37251 0.66591 0.64529 0.0
C885 C 0.37616 0.67981 0.67876 0.0
C886 C 0.42456 0.66069 0.66231 0.0
C887 C 0.4039 0.6835 0.70362 0.0
C888 C 0.47944 0.65676 0.67889 0.0
C889 C 0.46677 0.62194 0.61532 0.0
N890 N 0.42731 0.67393 0.69482 0.0
N891 N 0.44482 0.63351 0.62344 0.0
H892 H 0.56934 0.10799 0.94233 0.0
H893 H 0.75796 0.20716 0.8625 0.0
H894 H 0.63907 0.06518 0.93702 0.0
H895 H 0.66642 0.21582 0.81928 0.0
H896 H 0.71864 0.16273 0.90101 0.0
H897 H 0.60895 0.15556 0.90626 0.0
C898 C 0.59288 0.10863 0.93342 0.0
C899 C 0.60103 0.0828 0.94217 0.0
C900 C 0.70739 0.17464 0.88321 0.0
C901 C 0.64617 0.13671 0.90233 0.0
C902 C 0.72975 0.20006 0.86154 0.0
C903 C 0.7152 0.21491 0.83786 0.0
C904 C 0.67063 0.16468 0.88135 0.0
C905 C 0.67846 0.20473 0.83725 0.0
C906 C 0.61527 0.13556 0.913 0.0
C907 C 0.63172 0.0845 0.93031 0.0
N908 N 0.65723 0.18007 0.85883 0.0
N909 N 0.65348 0.1113 0.9111 0.0
H910 H 0.08606 0.45073 0.09887 0.0
H911 H 0.18158 0.34037 0.06821 0.0
H912 H 0.11004 0.43392 0.9967 0.0
H913 H 0.16345 0.36455 0.17025 0.0
H914 H 0.15436 0.37268 0.04136 0.0
H915 H 0.11314 0.41823 0.12463 0.0
C916 C 0.09689 0.4401 0.08161 0.0
C917 C 0.09544 0.44513 0.04521 0.0
C918 C 0.15636 0.37096 0.06963 0.0
C919 C 0.12693 0.40731 0.07518 0.0
C920 C 0.17171 0.35216 0.08513 0.0
C921 C 0.17483 0.34917 0.12185 0.0
C922 C 0.14382 0.38717 0.09076 0.0
C923 C 0.16214 0.36609 0.14199 0.0
C924 C 0.11249 0.42147 0.09655 0.0
C925 C 0.11021 0.43058 0.02469 0.0
N926 N 0.14723 0.38413 0.12625 0.0
N927 N 0.12524 0.41236 0.0399 0.0
H928 H 0.63351 0.53248 0.91699 0.0
H929 H 0.7314 0.71937 0.83859 0.0
H930 H 0.60015 0.60563 0.93808 0.0
H931 H 0.70235 0.63065 0.77239 0.0
H932 H 0.69469 0.68056 0.88299 0.0
H933 H 0.66984 0.57025 0.87137 0.0
C934 C 0.6339 0.5565 0.91214 0.0
C935 C 0.61349 0.56571 0.93133 0.0
C936 C 0.69643 0.66958 0.85879 0.0
C937 C 0.65582 0.60949 0.87975 0.0
C938 C 0.71752 0.6917 0.83344 0.0
C939 C 0.71997 0.67832 0.80153 0.0
C940 C 0.67837 0.63359 0.8529 0.0
C941 C 0.70116 0.64214 0.79647 0.0
C942 C 0.65451 0.57794 0.88601 0.0
C943 C 0.61512 0.59724 0.92379 0.0
N944 N 0.68152 0.62105 0.82198 0.0
N945 N 0.63618 0.61811 0.89903 0.0
H946 H 0.80553 0.35895 0.2222 0.0
H947 H 0.69644 0.37817 0.04945 0.0
H948 H 0.79661 0.31111 0.12221 0.0
H949 H 0.70962 0.42685 0.15029 0.0
H950 H 0.73217 0.35312 0.07469 0.0
H951 H 0.77095 0.38422 0.19531 0.0
C952 C 0.79655 0.35389 0.19446 0.0
C953 C 0.80438 0.33289 0.17456 0.0
C954 C 0.72735 0.3694 0.09123 0.0
C955 C 0.76389 0.36183 0.14328 0.0
C956 C 0.70658 0.38362 0.07689 0.0
C957 C 0.69967 0.405 0.09752 0.0
C958 C 0.74161 0.37648 0.12661 0.0
C959 C 0.71444 0.41123 0.13285 0.0
C960 C 0.77662 0.36836 0.17906 0.0
C961 C 0.79166 0.32736 0.13865 0.0
N962 N 0.7345 0.39713 0.14609 0.0
N963 N 0.77199 0.34158 0.12424 0.0
H964 H 0.99462 0.5069 0.3901 0.0
H965 H 0.91618 0.31544 0.31016 0.0
H966 H 0.99477 0.42401 0.44831 0.0
H967 H 0.93328 0.40018 0.24427 0.0
H968 H 0.94374 0.35537 0.36078 0.0
H969 H 0.97127 0.46924 0.33673 0.0
C970 C 0.98999 0.48087 0.39161 0.0
C971 C 0.99694 0.46871 0.42374 0.0
C972 C 0.9418 0.3655 0.33534 0.0
C973 C 0.96988 0.42531 0.36276 0.0
C974 C 0.92597 0.34263 0.30627 0.0
C975 C 0.92227 0.35439 0.27277 0.0
C976 C 0.95411 0.40079 0.33138 0.0
C977 C 0.93562 0.38998 0.26954 0.0
C978 C 0.9767 0.4594 0.36111 0.0
C979 C 0.99023 0.43469 0.42414 0.0
N980 N 0.95072 0.41191 0.29852 0.0
N981 N 0.97699 0.41426 0.39429 0.0
H982 H 0.61269 0.62627 0.48522 0.0
H983 H 0.72582 0.63914 0.32712 0.0
H984 H 0.60236 0.53573 0.43584 0.0
H985 H 0.7025 0.71879 0.35203 0.0
H986 H 0.68449 0.60191 0.36921 0.0
H987 H 0.64916 0.6615 0.4392 0.0
C988 C 0.61794 0.61377 0.46448 0.0
C989 C 0.60436 0.57801 0.46418 0.0
C990 C 0.68821 0.62742 0.36529 0.0
C991 C 0.64666 0.61834 0.41166 0.0
C992 C 0.71193 0.6488 0.34137 0.0
C993 C 0.71768 0.68222 0.33604 0.0
C994 C 0.67047 0.63966 0.38452 0.0
C995 C 0.6988 0.69322 0.35519 0.0
C996 C 0.63871 0.6339 0.43819 0.0
C997 C 0.61207 0.56316 0.4368 0.0
N998 N 0.67631 0.67212 0.3788 0.0
N999 N 0.63306 0.58347 0.41177 0.0
H1000 H 0.78476 0.32749 0.86281 0.0
H1001 H 0.99083 0.47206 0.91494 0.0
H1002 H 0.86297 0.37793 0.78769 0.0
H1003 H 0.9316 0.39232 0.98669 0.0
H1004 H 0.94062 0.44232 0.86972 0.0
H1005 H 0.83424 0.35596 0.91068 0.0
C1006 C 0.81214 0.34521 0.85649 0.0
C1007 C 0.81989 0.35097 0.82141 0.0
C1008 C 0.93863 0.43105 0.89522 0.0
C1009 C 0.87614 0.38296 0.87545 0.0
C1010 C 0.96751 0.44791 0.92103 0.0
C1011 C 0.96582 0.4344 0.95449 0.0
C1012 C 0.90719 0.40063 0.90289 0.0
C1013 C 0.93421 0.40344 0.96108 0.0
C1014 C 0.84035 0.36095 0.88368 0.0
C1015 C 0.85588 0.37323 0.81444 0.0
N1016 N 0.90591 0.38766 0.93554 0.0
N1017 N 0.88256 0.38849 0.84114 0.0
H1018 H 0.88256 0.77996 0.18344 0.0
H1019 H 0.98564 0.96785 0.10309 0.0
H1020 H 0.86022 0.86067 0.20656 0.0
H1021 H 0.97786 0.87779 0.05513 0.0
H1022 H 0.9473 0.93121 0.14768 0.0
H1023 H 0.92487 0.81774 0.14214 0.0
C1024 C 0.88675 0.8057 0.18001 0.0
C1025 C 0.86789 0.81722 0.19846 0.0
C1026 C 0.95425 0.91955 0.12754 0.0
C1027 C 0.91637 0.86058 0.15155 0.0
C1028 C 0.97633 0.94046 0.10231 0.0
C1029 C 0.9849 0.92573 0.07551 0.0
C1030 C 0.94116 0.88381 0.12619 0.0
C1031 C 0.97185 0.89009 0.07543 0.0
C1032 C 0.91076 0.82717 0.15636 0.0
C1033 C 0.87411 0.85071 0.19278 0.0
N1034 N 0.95062 0.87031 0.10038 0.0
N1035 N 0.89793 0.87128 0.16993 0.0
H1036 H 0.92893 0.21297 0.88553 0.0
H1037 H 0.863 0.01984 0.93263 0.0
H1038 H 0.81947 0.14621 0.91262 0.0
H1039 H 0.94252 0.07775 0.86023 0.0
H1040 H 0.84801 0.06582 0.93312 0.0
H1041 H 0.93888 0.16458 0.88886 0.0
C1042 C 0.90733 0.18837 0.89338 0.0
C1043 C 0.87334 0.18354 0.89901 0.0
C1044 C 0.86828 0.06799 0.91677 0.0
C1045 C 0.88409 0.12782 0.90113 0.0
C1046 C 0.87649 0.04176 0.91613 0.0
C1047 C 0.90415 0.04548 0.89655 0.0
C1048 C 0.88839 0.09784 0.89814 0.0
C1049 C 0.92133 0.07436 0.87597 0.0
C1050 C 0.9128 0.1606 0.89448 0.0
C1051 C 0.84601 0.15079 0.90804 0.0
N1052 N 0.91353 0.09981 0.87772 0.0
N1053 N 0.85187 0.12381 0.90853 0.0
H1054 H 0.69539 0.20014 0.71551 0.0
H1055 H 0.67432 0.06907 0.56336 0.0
H1056 H 0.78436 0.1917 0.68366 0.0
H1057 H 0.58716 0.08488 0.58605 0.0
H1058 H 0.7138 0.11134 0.60996 0.0
H1059 H 0.65446 0.15611 0.67055 0.0
C1060 C 0.7063 0.18899 0.69902 0.0
C1061 C 0.74335 0.19966 0.70318 0.0
C1062 C 0.68606 0.10562 0.60486 0.0
C1063 C 0.69658 0.14894 0.65197 0.0
C1064 C 0.66347 0.08142 0.57828 0.0
C1065 C 0.62748 0.07358 0.57081 0.0
C1066 C 0.67265 0.12222 0.62423 0.0
C1067 C 0.61476 0.09019 0.59105 0.0
C1068 C 0.6829 0.16383 0.6734 0.0
C1069 C 0.756 0.18425 0.68128 0.0
N1070 N 0.63738 0.11385 0.61681 0.0
N1071 N 0.73265 0.15964 0.65667 0.0
H1072 H 0.59859 0.90963 0.41066 0.0
H1073 H 0.74459 0.86107 0.38547 0.0
H1074 H 0.71421 0.98 0.42515 0.0
H1075 H 0.62907 0.79196 0.36436 0.0
H1076 H 0.73333 0.89718 0.4225 0.0
H1077 H 0.60879 0.86102 0.41473 0.0
C1078 C 0.62618 0.91467 0.4147 0.0
C1079 C 0.65581 0.94848 0.41598 0.0
C1080 C 0.7104 0.87354 0.41075 0.0
C1081 C 0.66765 0.89346 0.42108 0.0
C1082 C 0.7168 0.85275 0.38976 0.0
C1083 C 0.68754 0.82411 0.3712 0.0
C1084 C 0.67463 0.86589 0.41228 0.0
C1085 C 0.65222 0.81453 0.37752 0.0
C1086 C 0.63197 0.88704 0.41758 0.0
C1087 C 0.69087 0.95407 0.42295 0.0
N1088 N 0.64666 0.83597 0.39693 0.0
N1089 N 0.69593 0.92666 0.42445 0.0
H1090 H 0.84861 0.20657 0.32488 0.0
H1091 H 0.97059 0.11906 0.34708 0.0
H1092 H 0.91029 0.20482 0.24275 0.0
H1093 H 0.90493 0.11999 0.42539 0.0
H1094 H 0.94954 0.15044 0.30831 0.0
H1095 H 0.86969 0.17494 0.3615 0.0
C1096 C 0.86643 0.1993 0.31425 0.0
C1097 C 0.87765 0.20838 0.2804 0.0
C1098 C 0.93989 0.14385 0.33403 0.0
C1099 C 0.90212 0.17185 0.32293 0.0
C1100 C 0.95177 0.12585 0.35615 0.0
C1101 C 0.93956 0.1169 0.38961 0.0
C1102 C 0.91569 0.15299 0.34548 0.0
C1103 C 0.91557 0.12678 0.40011 0.0
C1104 C 0.87856 0.1812 0.33544 0.0
C1105 C 0.90094 0.19829 0.26858 0.0
N1106 N 0.90442 0.14423 0.37811 0.0
N1107 N 0.91249 0.18052 0.2899 0.0
H1108 H 0.7205 0.22319 0.17481 0.0
H1109 H 0.64764 0.03051 0.10488 0.0
H1110 H 0.78766 0.17704 0.18065 0.0
H1111 H 0.60292 0.09199 0.0624 0.0
H1112 H 0.69427 0.08088 0.14065 0.0
H1113 H 0.67274 0.17258 0.14006 0.0
C1114 C 0.7252 0.20243 0.16858 0.0
C1115 C 0.75799 0.20423 0.18049 0.0
C1116 C 0.67409 0.08324 0.12364 0.0
C1117 C 0.70334 0.14608 0.14153 0.0
C1118 C 0.64733 0.05448 0.10344 0.0
C1119 C 0.62135 0.05711 0.0807 0.0
C1120 C 0.67456 0.11471 0.12142 0.0
C1121 C 0.62227 0.08879 0.07978 0.0
C1122 C 0.69798 0.17361 0.14882 0.0
C1123 C 0.7628 0.17669 0.17178 0.0
N1124 N 0.64844 0.11638 0.09987 0.0
N1125 N 0.73559 0.14855 0.15308 0.0
H1126 H 0.72034 0.80711 0.77312 0.0
H1127 H 0.70582 0.8953 0.94908 0.0
H1128 H 0.78669 0.81959 0.86946 0.0
H1129 H 0.63726 0.87647 0.85249 0.0
H1130 H 0.73629 0.86972 0.92131 0.0
H1131 H 0.69099 0.83299 0.80222 0.0
C1132 C 0.72917 0.81545 0.8004 0.0
C1133 C 0.75677 0.811 0.81831 0.0
C1134 C 0.71449 0.87108 0.90619 0.0
C1135 C 0.72214 0.84153 0.85271 0.0
C1136 C 0.69688 0.88617 0.92207 0.0
C1137 C 0.66812 0.88886 0.90376 0.0
C1138 C 0.70383 0.85799 0.87124 0.0
C1139 C 0.65848 0.87521 0.8687 0.0
C1140 C 0.71204 0.83032 0.81719 0.0
C1141 C 0.76595 0.82237 0.85404 0.0
N1142 N 0.67603 0.86072 0.85399 0.0
N1143 N 0.74895 0.83702 0.86979 0.0
H1144 H 0.93154 0.93404 0.56402 0.0
H1145 H 0.91743 0.86739 0.75879 0.0
H1146 H 1.02684 0.9498 0.62826 0.0
H1147 H 0.83795 0.80352 0.67484 0.0
H1148 H 0.95515 0.90668 0.71504 0.0
H1149 H 0.89358 0.89522 0.60799 0.0
C1150 C 0.94453 0.92966 0.58753 0.0
C1151 C 0.98255 0.94532 0.59242 0.0
C1152 C 0.92918 0.88428 0.70632 0.0
C1153 C 0.93913 0.90134 0.64321 0.0
C1154 C 0.90751 0.86187 0.73128 0.0
C1155 C 0.87383 0.83233 0.72075 0.0
C1156 C 0.91679 0.87782 0.67047 0.0
C1157 C 0.86295 0.8264 0.68449 0.0
C1158 C 0.92281 0.90733 0.61249 0.0
C1159 C 0.99772 0.93829 0.62331 0.0
N1160 N 0.88402 0.84908 0.66079 0.0
N1161 N 0.97608 0.9172 0.64764 0.0
H1162 H 0.10547 0.81713 0.87715 0.0
H1163 H 0.13256 0.95937 0.01911 0.0
H1164 H 0.19352 0.8609 0.95993 0.0
H1165 H 1.04223 0.9108 0.9391 0.0
H1166 H 0.15616 0.92427 0.99766 0.0
H1167 H 0.08251 0.85211 0.89933 0.0
C1168 C 0.12001 0.83403 0.9 0.0
C1169 C 0.15154 0.83593 0.91665 0.0
C1170 C 0.13113 0.92131 0.98489 0.0
C1171 C 0.1256 0.8766 0.94192 0.0
C1172 C 0.11763 0.94123 0.99724 0.0
C1173 C 0.08546 0.93803 0.98093 0.0
C1174 C 0.11224 0.89807 0.95608 0.0
C1175 C 0.06729 0.91433 0.95241 0.0
C1176 C 0.10696 0.85418 0.91256 0.0
C1177 C 0.16947 0.85888 0.94583 0.0
N1178 N 0.08094 0.89531 0.94092 0.0
N1179 N 0.15624 0.87827 0.95752 0.0
H1180 H 0.9985 0.39825 0.5839 0.0
H1181 H 0.80127 0.33209 0.64384 0.0
H1182 H 0.92529 0.43041 0.53759 0.0
H1183 H 0.88677 0.32402 0.70401 0.0
H1184 H 0.84069 0.35667 0.59622 0.0
H1185 H 0.95086 0.35762 0.61933 0.0
C1186 C 0.97202 0.39594 0.58062 0.0
C1187 C 0.96549 0.41758 0.5585 0.0
C1188 C 0.85049 0.34916 0.61984 0.0
C1189 C 0.91164 0.37213 0.59845 0.0
C1190 C 0.82813 0.33532 0.64689 0.0
C1191 C 0.84109 0.32668 0.67791 0.0
C1192 C 0.88555 0.35377 0.62406 0.0
C1193 C 0.87595 0.33101 0.6807 0.0
C1194 C 0.94502 0.37309 0.60086 0.0
C1195 C 0.93113 0.41422 0.555 0.0
N1196 N 0.89704 0.34442 0.65415 0.0
N1197 N 0.90542 0.3921 0.57516 0.0
H1198 H 0.45648 0.04699 0.51029 0.0
H1199 H 0.45979 0.17713 0.36123 0.0
H1200 H 0.532 0.08496 0.43154 0.0
H1201 H 0.37963 0.13371 0.43566 0.0
H1202 H 0.4879 0.14536 0.3879 0.0
H1203 H 0.42923 0.07999 0.48469 0.0
C1204 C 0.46748 0.06235 0.4878 0.0
C1205 C 0.4968 0.06318 0.47342 0.0
C1206 C 0.46411 0.14273 0.39836 0.0
C1207 C 0.46539 0.10102 0.4434 0.0
C1208 C 0.44809 0.16112 0.38322 0.0
C1209 C 0.41696 0.15823 0.39588 0.0
C1210 C 0.44918 0.12125 0.42664 0.0
C1211 C 0.40308 0.13651 0.42435 0.0
C1212 C 0.45179 0.08113 0.47301 0.0
C1213 C 0.50954 0.08341 0.4438 0.0
N1214 N 0.4192 0.11903 0.43864 0.0
N1215 N 0.49385 0.1014 0.42989 0.0
H1216 H 0.57942 0.55784 0.12693 0.0
H1217 H 0.76709 0.70957 0.14167 0.0
H1218 H 0.64692 0.56949 0.04508 0.0
H1219 H 0.73006 0.64968 0.23382 0.0
H1220 H 0.72546 0.65793 0.10502 0.0
H1221 H 0.63429 0.59031 0.16765 0.0
C1222 C 0.60578 0.56684 0.1178 0.0
C1223 C 0.60901 0.56176 0.08275 0.0
C1224 C 0.72737 0.65586 0.13326 0.0
C1225 C 0.67112 0.59864 0.12845 0.0
C1226 C 0.75099 0.68524 0.15405 0.0
C1227 C 0.7513 0.68374 0.19053 0.0
C1228 C 0.70336 0.62545 0.1493 0.0
C1229 C 0.73014 0.65179 0.20562 0.0
C1230 C 0.63692 0.58491 0.14097 0.0
C1231 C 0.64355 0.57337 0.07197 0.0
N1232 N 0.70595 0.62395 0.18486 0.0
N1233 N 0.67349 0.59215 0.09458 0.0
H1234 H 0.22924 0.16165 0.71095 0.0
H1235 H 0.13518 0.12601 0.51941 0.0
H1236 H 0.24881 0.24061 0.63603 0.0
H1237 H 0.11616 0.04694 0.594 0.0
H1238 H 0.19105 0.16611 0.5551 0.0
H1239 H 0.20292 0.11817 0.66305 0.0
C1240 C 0.22845 0.1698 0.68427 0.0
C1241 C 0.23999 0.20436 0.67722 0.0
C1242 C 0.17506 0.13981 0.56339 0.0
C1243 C 0.20958 0.15509 0.62265 0.0
C1244 C 0.14313 0.11709 0.54316 0.0
C1245 C 0.12075 0.08378 0.55468 0.0
C1246 C 0.18387 0.12919 0.59565 0.0
C1247 C 0.13252 0.07281 0.58481 0.0
C1248 C 0.21357 0.14507 0.65694 0.0
C1249 C 0.23905 0.21391 0.64241 0.0
N1250 N 0.16297 0.09579 0.60481 0.0
N1251 N 0.22334 0.18924 0.61635 0.0
H1252 H 0.71707 0.34237 0.29629 0.0
H1253 H 0.64365 0.40611 0.44324 0.0
H1254 H 0.73735 0.33284 0.40741 0.0
H1255 H 0.60327 0.39172 0.33362 0.0
H1256 H 0.68437 0.38574 0.43021 0.0
H1257 H 0.68005 0.36677 0.30927 0.0
C1258 C 0.71357 0.34542 0.3234 0.0
C1259 C 0.72983 0.33563 0.35096 0.0
C1260 C 0.66655 0.38704 0.40907 0.0
C1261 C 0.6886 0.36367 0.36584 0.0
C1262 C 0.64366 0.39875 0.41644 0.0
C1263 C 0.62056 0.40034 0.38926 0.0
C1264 C 0.66593 0.3771 0.37443 0.0
C1265 C 0.62076 0.39039 0.35507 0.0
C1266 C 0.69271 0.3594 0.33078 0.0
C1267 C 0.72533 0.3405 0.38562 0.0
N1268 N 0.64328 0.37903 0.34853 0.0
N1269 N 0.70491 0.35426 0.39217 0.0
H1270 H 0.45451 0.9476 0.08475 0.0
H1271 H 0.42092 0.79184 0.20298 0.0
H1272 H 0.51883 0.89895 0.07959 0.0
H1273 H 0.33581 0.8119 0.16424 0.0
H1274 H 0.46066 0.83394 0.16285 0.0
H1275 H 0.41419 0.90124 0.12027 0.0
C1276 C 0.46031 0.92725 0.09144 0.0
C1277 C 0.49011 0.92704 0.07972 0.0
C1278 C 0.43309 0.82862 0.16289 0.0
C1279 C 0.44397 0.87399 0.11979 0.0
C1280 C 0.41053 0.80487 0.18576 0.0
C1281 C 0.37519 0.79868 0.18678 0.0
C1282 C 0.42013 0.84637 0.14155 0.0
C1283 C 0.36282 0.81591 0.16403 0.0
C1284 C 0.43707 0.90065 0.11131 0.0
C1285 C 0.49606 0.89982 0.08839 0.0
N1286 N 0.38551 0.83939 0.14247 0.0
N1287 N 0.47317 0.87424 0.10837 0.0
H1288 H 1.03682 0.586 0.91679 0.0
H1289 H 0.88536 0.6381 0.93435 0.0
H1290 H 0.97351 0.56002 1.00529 0.0
H1291 H 0.95874 0.67559 0.85352 0.0
H1292 H 0.91527 0.6074 0.95901 0.0
H1293 H 1.00711 0.61696 0.89231 0.0
C1294 C 1.01679 0.58688 0.93127 0.0
C1295 C 1.00799 0.57037 0.96344 0.0
C1296 C 0.9249 0.62236 0.9359 0.0
C1297 C 0.97331 0.60592 0.93501 0.0
C1298 C 0.90758 0.6398 0.9215 0.0
C1299 C 0.91918 0.65961 0.89145 0.0
C1300 C 0.95424 0.62442 0.92032 0.0
C1301 C 0.94882 0.66108 0.87679 0.0
C1302 C 0.99977 0.60465 0.91715 0.0
C1303 C 0.98154 0.57247 0.98062 0.0
N1304 N 0.96511 0.64373 0.89123 0.0
N1305 N 0.96515 0.58974 0.96618 0.0
H1306 H 0.42992 0.43089 0.0637 0.0
H1307 H 0.42157 0.36468 0.25907 0.0
H1308 H 0.52648 0.4476 0.12629 0.0
H1309 H 0.33635 0.30504 0.17746 0.0
H1310 H 0.45864 0.40297 0.21433 0.0
H1311 H 0.39309 0.39264 0.10852 0.0
C1312 C 0.44345 0.42678 0.08697 0.0
C1313 C 0.48149 0.44265 0.09115 0.0
C1314 C 0.43164 0.3817 0.20634 0.0
C1315 C 0.43931 0.39916 0.14297 0.0
C1316 C 0.41034 0.35991 0.23188 0.0
C1317 C 0.3753 0.33185 0.22229 0.0
C1318 C 0.41756 0.37613 0.17088 0.0
C1319 C 0.36266 0.32675 0.1864 0.0
C1320 C 0.42235 0.40476 0.11246 0.0
C1321 C 0.49732 0.43594 0.12183 0.0
N1322 N 0.38348 0.34881 0.16218 0.0
N1323 N 0.47627 0.41508 0.14664 0.0
H1324 H 0.44024 0.64244 0.8929 0.0
H1325 H 0.26317 0.65991 0.89399 0.0
H1326 H 0.35195 0.57598 0.95346 0.0
H1327 H 0.33562 0.69834 0.8125 0.0
H1328 H 0.29795 0.63407 0.9211 0.0
H1329 H 0.4053 0.66849 0.86858 0.0
C1330 C 0.4136 0.63337 0.90133 0.0
C1331 C 0.39925 0.60678 0.92543 0.0
C1332 C 0.30611 0.6481 0.89723 0.0
C1333 C 0.35862 0.6368 0.89723 0.0
C1334 C 0.2863 0.66294 0.88176 0.0
C1335 C 0.29605 0.68102 0.85054 0.0
C1336 C 0.33644 0.65198 0.88185 0.0
C1337 C 0.32654 0.68421 0.83615 0.0
C1338 C 0.39349 0.64818 0.88717 0.0
C1339 C 0.36415 0.59606 0.93474 0.0
N1340 N 0.34558 0.67008 0.85192 0.0
N1341 N 0.3452 0.61114 0.92081 0.0
H1342 H 0.09704 0.58429 0.57358 0.0
H1343 H 0.15834 0.60753 0.7813 0.0
H1344 H 0.09732 0.50267 0.63416 0.0
H1345 H 0.17693 0.69124 0.71325 0.0
H1346 H 0.13033 0.56695 0.72986 0.0
H1347 H 0.1206 0.62202 0.62635 0.0
C1348 C 0.1017 0.57415 0.59811 0.0
C1349 C 0.09486 0.5401 0.59944 0.0
C1350 C 0.14052 0.59423 0.7263 0.0
C1351 C 0.1224 0.58354 0.66037 0.0
C1352 C 0.15635 0.61734 0.75568 0.0
C1353 C 0.17019 0.6529 0.75165 0.0
C1354 C 0.1382 0.60675 0.69273 0.0
C1355 C 0.16686 0.66413 0.71773 0.0
C1356 C 0.11541 0.59583 0.62829 0.0
C1357 C 0.10208 0.52869 0.63195 0.0
N1358 N 0.15135 0.6413 0.68981 0.0
N1359 N 0.11538 0.55028 0.6611 0.0
H1360 H 0.34423 0.27316 0.65007 0.0
H1361 H 0.50416 0.45461 0.60203 0.0
H1362 H 0.37761 0.36385 0.7152 0.0
H1363 H 0.42021 0.3878 0.52234 0.0
H1364 H 0.46711 0.41746 0.64711 0.0
H1365 H 0.38201 0.31071 0.60532 0.0
C1366 C 0.35986 0.30089 0.65505 0.0
C1367 C 0.35801 0.31559 0.68619 0.0
C1368 C 0.45691 0.41116 0.6197 0.0
C1369 C 0.40114 0.35813 0.63588 0.0
C1370 C 0.47781 0.43241 0.59406 0.0
C1371 C 0.46476 0.42467 0.55855 0.0
C1372 C 0.42355 0.38135 0.60953 0.0
C1373 C 0.43098 0.39489 0.54952 0.0
C1374 C 0.38106 0.32218 0.62956 0.0
C1375 C 0.37834 0.35165 0.69139 0.0
N1376 N 0.41162 0.37404 0.57488 0.0
N1377 N 0.39939 0.37176 0.66657 0.0
H1378 H 0.2202 0.6619 0.2201 0.0
H1379 H 0.17978 0.59099 0.02117 0.0
H1380 H 0.30367 0.66965 0.15964 0.0
H1381 H 0.09867 0.58443 0.0841 0.0
H1382 H 0.22654 0.62298 0.06976 0.0
H1383 H 0.176 0.63551 0.16931 0.0
C1384 C 0.22919 0.65788 0.19606 0.0
C1385 C 0.26562 0.66804 0.19394 0.0
C1386 C 0.19853 0.6147 0.07287 0.0
C1387 C 0.21501 0.63755 0.13553 0.0
C1388 C 0.17198 0.59671 0.04515 0.0
C1389 C 0.13545 0.5848 0.04908 0.0
C1390 C 0.18827 0.62079 0.10453 0.0
C1391 C 0.12643 0.59248 0.08047 0.0
C1392 C 0.20392 0.64286 0.16699 0.0
C1393 C 0.27576 0.66208 0.16226 0.0
N1394 N 0.15266 0.60991 0.10708 0.0
N1395 N 0.25051 0.64718 0.13416 0.0
H1396 H 0.68551 0.41052 0.68573 0.0
H1397 H 0.62626 0.4577 0.50329 0.0
H1398 H 0.69638 0.37452 0.58638 0.0
H1399 H 0.62792 0.50331 0.60251 0.0
H1400 H 0.66406 0.43674 0.53229 0.0
H1401 H 0.67555 0.45362 0.65543 0.0
C1402 C 0.68629 0.41217 0.65754 0.0
C1403 C 0.69116 0.38892 0.63823 0.0
C1404 C 0.65669 0.45192 0.54753 0.0
C1405 C 0.67982 0.4376 0.60353 0.0
C1406 C 0.6351 0.46381 0.53096 0.0
C1407 C 0.62309 0.48124 0.55071 0.0
C1408 C 0.66573 0.45727 0.58398 0.0
C1409 C 0.63581 0.48913 0.58639 0.0
C1410 C 0.68088 0.43681 0.64028 0.0
C1411 C 0.6926 0.39212 0.60199 0.0
N1412 N 0.65586 0.47641 0.60207 0.0
N1413 N 0.6863 0.41571 0.58563 0.0
H1414 H 0.90192 0.69114 0.13577 0.0
H1415 H 0.86316 0.50652 0.08967 0.0
H1416 H 0.83758 0.59748 0.18974 0.0
H1417 H 0.95181 0.60142 0.05608 0.0
H1418 H 0.83175 0.53718 0.10135 0.0
H1419 H 0.89984 0.65639 0.08597 0.0
C1420 C 0.88718 0.66319 0.13679 0.0
C1421 C 0.87115 0.64678 0.16691 0.0
C1422 C 0.85739 0.55101 0.09002 0.0
C1423 C 0.86764 0.60739 0.11053 0.0
C1424 C 0.87518 0.5335 0.08325 0.0
C1425 C 0.91042 0.55207 0.0733 0.0
C1426 C 0.8757 0.5871 0.08753 0.0
C1427 C 0.925 0.58678 0.065 0.0
C1428 C 0.8855 0.64349 0.10839 0.0
C1429 C 0.85145 0.61077 0.16722 0.0
N1430 N 0.90796 0.60364 0.07336 0.0
N1431 N 0.85064 0.59215 0.1395 0.0
H1432 H 0.95063 0.62708 0.66774 0.0
H1433 H 0.80605 0.69366 0.64936 0.0
H1434 H 0.88904 0.62053 0.56939 0.0
H1435 H 0.86866 0.69813 0.74579 0.0
H1436 H 0.83521 0.66724 0.61939 0.0
H1437 H 0.9214 0.65351 0.69524 0.0
C1438 C 0.93131 0.63103 0.65131 0.0
C1439 C 0.92332 0.6208 0.6152 0.0
C1440 C 0.84255 0.67392 0.64714 0.0
C1441 C 0.88788 0.6516 0.64843 0.0
C1442 C 0.82571 0.68907 0.66445 0.0
C1443 C 0.83427 0.69829 0.70068 0.0
C1444 C 0.86866 0.66778 0.66577 0.0
C1445 C 0.8605 0.69155 0.71811 0.0
C1446 C 0.91413 0.64622 0.66761 0.0
C1447 C 0.89675 0.62699 0.59704 0.0
N1448 N 0.87645 0.677 0.70074 0.0
N1449 N 0.88032 0.64167 0.61362 0.0
H1450 H 0.46562 0.50457 0.41462 0.0
H1451 H 0.38358 0.6263 0.42856 0.0
H1452 H 0.45915 0.54674 0.51266 0.0
H1453 H 0.41463 0.60315 0.33325 0.0
H1454 H 0.39543 0.58415 0.45874 0.0
H1455 H 0.43138 0.52784 0.38405 0.0
C1456 C 0.45658 0.51836 0.42988 0.0
C1457 C 0.46575 0.52439 0.46624 0.0
C1458 C 0.39902 0.58791 0.43109 0.0
C1459 C 0.42648 0.55084 0.43121 0.0
C1460 C 0.39217 0.61171 0.41395 0.0
C1461 C 0.39867 0.61811 0.37877 0.0
C1462 C 0.41234 0.57072 0.41267 0.0
C1463 C 0.40994 0.59904 0.36067 0.0
C1464 C 0.43694 0.53153 0.4123 0.0
C1465 C 0.45295 0.54197 0.48457 0.0
N1466 N 0.41686 0.5763 0.37803 0.0
N1467 N 0.43421 0.55509 0.46667 0.0
H1468 H 0.21694 0.32632 0.92473 0.0
H1469 H 0.05179 0.34605 0.906 0.0
H1470 H 0.1148 0.25635 0.86614 0.0
H1471 H 0.15396 0.41548 0.96512 0.0
H1472 H 0.06437 0.29934 0.9147 0.0
H1473 H 0.18519 0.34161 0.96342 0.0
C1474 C 0.18757 0.31296 0.921 0.0
C1475 C 0.16841 0.2913 0.89141 0.0
C1476 C 0.0837 0.32456 0.92658 0.0
C1477 C 0.13233 0.30982 0.93429 0.0
C1478 C 0.07656 0.35129 0.92148 0.0
C1479 C 0.10267 0.38491 0.93351 0.0
C1480 C 0.11765 0.33188 0.94281 0.0
C1481 C 0.13398 0.39018 0.95387 0.0
C1482 C 0.1694 0.32187 0.94299 0.0
C1483 C 0.13051 0.27435 0.88797 0.0
N1484 N 0.14106 0.36408 0.95714 0.0
N1485 N 0.11367 0.28487 0.90849 0.0
H1486 H 0.22412 0.31182 0.27496 0.0
H1487 H 0.20125 0.38635 0.45601 0.0
H1488 H 0.2836 0.31452 0.37295 0.0
H1489 H 0.14374 0.38285 0.35597 0.0
H1490 H 0.2314 0.36122 0.42734 0.0
H1491 H 0.19504 0.33751 0.30491 0.0
C1492 C 0.23147 0.31793 0.3028 0.0
C1493 C 0.25709 0.31081 0.32091 0.0
C1494 C 0.21208 0.36588 0.41168 0.0
C1495 C 0.22269 0.341 0.35634 0.0
C1496 C 0.19455 0.38074 0.42815 0.0
C1497 C 0.16892 0.38768 0.40925 0.0
C1498 C 0.20445 0.35717 0.3755 0.0
C1499 C 0.16237 0.37837 0.37286 0.0
C1500 C 0.21452 0.33272 0.32007 0.0
C1501 C 0.26446 0.31944 0.35734 0.0
N1502 N 0.17968 0.3639 0.35765 0.0
N1503 N 0.24758 0.33392 0.37358 0.0
loop_
_geom_bond_atom_site_label_1
_geom_bond_atom_site_label_2
_geom_bond_distance
_geom_bond_site_symmetry_2
_ccdc_geom_bond_type
La0 C2 2.928 1_545 S
La0 O20 2.521 . S
La0 O21 2.628 1_545 S
La0 O22 2.554 1_554 S
La0 O23 2.757 1_554 S
La0 O24 2.470 1_544 S
La0 O29 2.482 1_445 S
La0 O31 2.503 . S
La1 C11 2.928 1_565 S
La1 O23 2.482 1_665 S
La1 O25 2.503 . S
La1 O26 2.521 . S
La1 O27 2.628 1_565 S
La1 O28 2.554 1_556 S
La1 O29 2.757 1_556 S
La1 O30 2.470 1_566 S
C2 La0 2.928 1_565 S
C2 C3 1.503 . S
C2 O20 1.261 1_565 S
C2 O21 1.243 . S
C3 C2 1.503 . S
C3 C4 1.394 . S
C3 C8 1.373 . S
C4 C3 1.394 . S
C4 C5 1.380 . S
C4 H32 0.930 1_565 S
C5 C4 1.380 . S
C5 C6 1.376 . S
C5 H33 0.929 1_565 S
C6 C5 1.376 . S
C6 C7 1.370 . S
C7 C6 1.370 . S
C7 C8 1.396 . S
C7 H34 0.929 . S
C8 C3 1.373 . S
C8 C7 1.396 . S
C8 H35 0.929 . S
C9 O22 1.240 . S
C9 O23 1.289 . S
C10 O24 1.258 . S
C10 O25 1.256 1_455 S
C11 La1 2.928 1_545 S
C11 C12 1.503 . S
C11 O26 1.261 1_545 S
C11 O27 1.243 . S
C12 C11 1.503 . S
C12 C13 1.394 . S
C12 C17 1.373 . S
C13 C12 1.394 . S
C13 C14 1.380 . S
C13 H36 0.930 1_545 S
C14 C13 1.380 . S
C14 C15 1.376 . S
C14 H37 0.929 1_545 S
C15 C14 1.376 . S
C15 C16 1.370 . S
C16 C15 1.370 . S
C16 C17 1.396 . S
C16 H38 0.929 . S
C17 C12 1.373 . S
C17 C16 1.396 . S
C17 H39 0.929 . S
C18 O28 1.240 . S
C18 O29 1.289 . S
C19 O30 1.258 . S
C19 O31 1.256 1_655 S
O20 La0 2.521 . S
O20 C2 1.261 1_545 S
O21 La0 2.628 1_565 S
O21 C2 1.243 . S
O22 La0 2.554 1_556 S
O22 C9 1.240 . S
O23 La0 2.757 1_556 S
O23 La1 2.482 1_445 S
O23 C9 1.289 . S
O24 La0 2.470 1_566 S
O24 C10 1.258 . S
O25 La1 2.503 . S
O25 C10 1.256 1_655 S
O26 La1 2.521 . S
O26 C11 1.261 1_565 S
O27 La1 2.628 1_545 S
O27 C11 1.243 . S
O28 La1 2.554 1_554 S
O28 C18 1.240 . S
O29 La0 2.482 1_665 S
O29 La1 2.757 1_554 S
O29 C18 1.289 . S
O30 La1 2.470 1_544 S
O30 C19 1.258 . S
O31 La0 2.503 . S
O31 C19 1.256 1_455 S
H32 C4 0.930 1_545 S
H33 C5 0.929 1_545 S
H34 C7 0.929 . S
H35 C8 0.929 . S
H36 C13 0.930 1_565 S
H37 C14 0.929 1_565 S
H38 C16 0.929 . S
H39 C17 0.929 . S
La40 C42 2.928 . S
La40 O60 2.521 . S
La40 O61 2.628 . S
La40 O62 2.554 . S
La40 O63 2.757 . S
La40 O64 2.470 . S
La40 O69 2.482 . S
La40 O71 2.503 . S
La41 C51 2.928 . S
La41 O63 2.482 . S
La41 O65 2.503 . S
La41 O66 2.521 . S
La41 O67 2.628 . S
La41 O68 2.554 . S
La41 O69 2.757 . S
La41 O70 2.470 . S
C42 La40 2.928 . S
C42 C43 1.503 . S
C42 O60 1.261 . S
C42 O61 1.243 . S
C43 C42 1.503 . S
C43 C44 1.394 . S
C43 C48 1.373 . S
C44 C43 1.394 . S
C44 C45 1.380 . S
C44 H72 0.930 . S
C45 C44 1.380 . S
C45 C46 1.376 . S
C45 H73 0.930 . S
C46 C45 1.376 . S
C46 C47 1.370 . S
C47 C46 1.370 . S
C47 C48 1.396 . S
C47 H74 0.929 . S
C48 C43 1.373 . S
C48 C47 1.396 . S
C48 H75 0.929 . S
C49 O62 1.240 . S
C49 O63 1.289 . S
C50 O64 1.258 . S
C50 O65 1.256 . S
C51 La41 2.928 . S
C51 C52 1.503 . S
C51 O66 1.261 . S
C51 O67 1.243 . S
C52 C51 1.503 . S
C52 C53 1.394 . S
C52 C57 1.373 . S
C53 C52 1.394 . S
C53 C54 1.380 . S
C53 H76 0.930 . S
C54 C53 1.380 . S
C54 C55 1.376 . S
C54 H77 0.930 . S
C55 C54 1.376 . S
C55 C56 1.370 . S
C56 C55 1.370 . S
C56 C57 1.396 . S
C56 H78 0.929 . S
C57 C52 1.373 . S
C57 C56 1.396 . S
C57 H79 0.929 . S
C58 O68 1.240 . S
C58 O69 1.289 . S
C59 O70 1.258 . S
C59 O71 1.256 . S
O60 La40 2.521 . S
O60 C42 1.261 . S
O61 La40 2.628 . S
O61 C42 1.243 . S
O62 La40 2.554 . S
O62 C49 1.240 . S
O63 La40 2.757 . S
O63 La41 2.482 . S
O63 C49 1.289 . S
O64 La40 2.470 . S
O64 C50 1.258 . S
O65 La41 2.503 . S
O65 C50 1.256 . S
O66 La41 2.521 . S
O66 C51 1.261 . S
O67 La41 2.628 . S
O67 C51 1.243 . S
O68 La41 2.554 . S
O68 C58 1.240 . S
O69 La40 2.482 . S
O69 La41 2.757 . S
O69 C58 1.289 . S
O70 La41 2.470 . S
O70 C59 1.258 . S
O71 La40 2.503 . S
O71 C59 1.256 . S
H72 C44 0.930 . S
H73 C45 0.930 . S
H74 C47 0.929 . S
H75 C48 0.929 . S
H76 C53 0.930 . S
H77 C54 0.930 . S
H78 C56 0.929 . S
H79 C57 0.929 . S
La80 C82 2.928 1_565 S
La80 O100 2.521 . S
La80 O101 2.628 1_565 S
La80 O102 2.554 . S
La80 O103 2.757 . S
La80 O104 2.470 1_565 S
La80 O109 2.482 1_565 S
La80 O111 2.503 . S
La81 C91 2.928 1_545 S
La81 O103 2.482 1_545 S
La81 O105 2.503 . S
La81 O106 2.521 . S
La81 O107 2.628 1_545 S
La81 O108 2.554 . S
La81 O109 2.757 . S
La81 O110 2.470 1_545 S
C82 La80 2.928 1_545 S
C82 C83 1.503 . S
C82 O100 1.261 1_545 S
C82 O101 1.243 . S
C83 C82 1.503 . S
C83 C84 1.389 1_545 S
C83 C88 1.373 . S
C84 C83 1.389 1_565 S
C84 C85 1.348 1_565 S
C84 H112 0.969 . S
C85 C84 1.348 1_545 S
C85 C86 1.376 . S
C85 H113 0.930 1_545 S
C86 C85 1.376 . S
C86 C87 1.370 . S
C87 C86 1.370 . S
C87 C88 1.396 . S
C87 H114 0.929 . S
C88 C83 1.373 . S
C88 C87 1.396 . S
C88 H115 0.929 . S
C89 O102 1.240 . S
C89 O103 1.289 . S
C90 O104 1.258 . S
C90 O105 1.256 . S
C91 La81 2.928 1_565 S
C91 C92 1.503 . S
C91 O106 1.261 1_565 S
C91 O107 1.243 . S
C92 C91 1.503 . S
C92 C93 1.394 1_565 S
C92 C97 1.373 . S
C93 C92 1.394 1_545 S
C93 C94 1.380 1_545 S
C93 H116 0.930 . S
C94 C93 1.380 1_565 S
C94 C95 1.376 . S
C94 H117 0.930 1_565 S
C95 C94 1.376 . S
C95 C96 1.370 . S
C96 C95 1.370 . S
C96 C97 1.396 . S
C96 H118 0.929 . S
C97 C92 1.373 . S
C97 C96 1.396 . S
C97 H119 0.929 . S
C98 O108 1.240 . S
C98 O109 1.289 . S
C99 O110 1.258 . S
C99 O111 1.256 . S
O100 La80 2.521 . S
O100 C82 1.261 1_565 S
O101 La80 2.628 1_545 S
O101 C82 1.243 . S
O102 La80 2.554 . S
O102 C89 1.240 . S
O103 La80 2.757 . S
O103 La81 2.482 1_565 S
O103 C89 1.289 . S
O104 La80 2.470 1_545 S
O104 C90 1.258 . S
O105 La81 2.503 . S
O105 C90 1.256 . S
O106 La81 2.521 . S
O106 C91 1.261 1_545 S
O107 La81 2.628 1_565 S
O107 C91 1.243 . S
O108 La81 2.554 . S
O108 C98 1.240 . S
O109 La80 2.482 1_545 S
O109 La81 2.757 . S
O109 C98 1.289 . S
O110 La81 2.470 1_565 S
O110 C99 1.258 . S
O111 La80 2.503 . S
O111 C99 1.256 . S
H112 C84 0.969 . S
H113 C85 0.930 1_565 S
H114 C87 0.929 . S
H115 C88 0.929 . S
H116 C93 0.930 . S
H117 C94 0.930 1_545 S
H118 C96 0.929 . S
H119 C97 0.929 . S
La120 C122 2.928 . S
La120 O140 2.521 . S
La120 O141 2.628 . S
La120 O142 2.554 . S
La120 O143 2.757 . S
La120 O144 2.470 . S
La120 O149 2.482 . S
La120 O151 2.503 . S
La121 C131 2.928 . S
La121 O143 2.482 . S
La121 O145 2.503 . S
La121 O146 2.521 . S
La121 O147 2.628 . S
La121 O148 2.554 . S
La121 O149 2.757 . S
La121 O150 2.470 . S
C122 La120 2.928 . S
C122 C123 1.503 . S
C122 O140 1.261 . S
C122 O141 1.243 . S
C123 C122 1.503 . S
C123 C124 1.394 . S
C123 C128 1.373 . S
C124 C123 1.394 . S
C124 C125 1.380 . S
C124 H152 0.930 . S
C125 C124 1.380 . S
C125 C126 1.376 . S
C125 H153 0.930 . S
C126 C125 1.376 . S
C126 C127 1.370 . S
C127 C126 1.370 . S
C127 C128 1.396 . S
C127 H154 0.929 . S
C128 C123 1.373 . S
C128 C127 1.396 . S
C128 H155 0.929 . S
C129 O142 1.240 . S
C129 O143 1.289 . S
C130 O144 1.258 . S
C130 O145 1.256 . S
C131 La121 2.928 . S
C131 C132 1.503 . S
C131 O146 1.261 . S
C131 O147 1.243 . S
C132 C131 1.503 . S
C132 C133 1.394 . S
C132 C137 1.373 . S
C133 C132 1.394 . S
C133 C134 1.380 . S
C133 H156 0.930 . S
C134 C133 1.380 . S
C134 C135 1.376 . S
C134 H157 0.930 . S
C135 C134 1.376 . S
C135 C136 1.370 . S
C136 C135 1.370 . S
C136 C137 1.396 . S
C136 H158 0.929 . S
C137 C132 1.373 . S
C137 C136 1.396 . S
C137 H159 0.929 . S
C138 O148 1.240 . S
C138 O149 1.289 . S
C139 O150 1.258 . S
C139 O151 1.256 . S
O140 La120 2.521 . S
O140 C122 1.261 . S
O141 La120 2.628 . S
O141 C122 1.243 . S
O142 La120 2.554 . S
O142 C129 1.240 . S
O143 La120 2.757 . S
O143 La121 2.482 . S
O143 C129 1.289 . S
O144 La120 2.470 . S
O144 C130 1.258 . S
O145 La121 2.503 . S
O145 C130 1.256 . S
O146 La121 2.521 . S
O146 C131 1.261 . S
O147 La121 2.628 . S
O147 C131 1.243 . S
O148 La121 2.554 . S
O148 C138 1.240 . S
O149 La120 2.482 . S
O149 La121 2.757 . S
O149 C138 1.289 . S
O150 La121 2.470 . S
O150 C139 1.258 . S
O151 La120 2.503 . S
O151 C139 1.256 . S
H152 C124 0.930 . S
H153 C125 0.930 . S
H154 C127 0.929 . S
H155 C128 0.929 . S
H156 C133 0.930 . S
H157 C134 0.930 . S
H158 C136 0.929 . S
H159 C137 0.929 . S
La160 C162 2.928 . S
La160 O180 2.521 . S
La160 O181 2.628 . S
La160 O182 2.554 1_455 S
La160 O183 2.757 1_455 S
La160 O184 2.470 1_455 S
La160 O189 2.482 1_565 S
La160 O191 2.503 1_565 S
La161 C171 2.928 . S
La161 O183 2.482 1_545 S
La161 O185 2.503 1_545 S
La161 O186 2.521 . S
La161 O187 2.628 . S
La161 O188 2.554 1_655 S
La161 O189 2.757 1_655 S
La161 O190 2.470 1_655 S
C162 La160 2.928 . S
C162 C163 1.503 . S
C162 O180 1.261 . S
C162 O181 1.243 . S
C163 C162 1.503 . S
C163 C164 1.394 . S
C163 C168 1.373 . S
C164 C163 1.394 . S
C164 C165 1.380 . S
C164 H192 0.930 . S
C165 C164 1.380 . S
C165 C166 1.376 . S
C165 H193 0.930 . S
C166 C165 1.376 . S
C166 C167 1.370 . S
C167 C166 1.370 . S
C167 C168 1.396 . S
C167 H194 0.929 . S
C168 C163 1.373 . S
C168 C167 1.396 . S
C168 H195 0.929 . S
C169 O182 1.240 . S
C169 O183 1.289 . S
C170 O184 1.258 . S
C170 O185 1.256 . S
C171 La161 2.928 . S
C171 C172 1.503 . S
C171 O186 1.261 . S
C171 O187 1.243 . S
C172 C171 1.503 . S
C172 C173 1.394 . S
C172 C177 1.373 . S
C173 C172 1.394 . S
C173 C174 1.380 . S
C173 H196 0.930 . S
C174 C173 1.380 . S
C174 C175 1.376 . S
C174 H197 0.930 . S
C175 C174 1.376 . S
C175 C176 1.370 . S
C176 C175 1.370 . S
C176 C177 1.396 . S
C176 H198 0.929 . S
C177 C172 1.373 . S
C177 C176 1.396 . S
C177 H199 0.929 . S
C178 O188 1.240 . S
C178 O189 1.289 . S
C179 O190 1.258 . S
C179 O191 1.256 . S
O180 La160 2.521 . S
O180 C162 1.261 . S
O181 La160 2.628 . S
O181 C162 1.243 . S
O182 La160 2.554 1_655 S
O182 C169 1.240 . S
O183 La160 2.757 1_655 S
O183 La161 2.482 1_565 S
O183 C169 1.289 . S
O184 La160 2.470 1_655 S
O184 C170 1.258 . S
O185 La161 2.503 1_565 S
O185 C170 1.256 . S
O186 La161 2.521 . S
O186 C171 1.261 . S
O187 La161 2.628 . S
O187 C171 1.243 . S
O188 La161 2.554 1_455 S
O188 C178 1.240 . S
O189 La160 2.482 1_545 S
O189 La161 2.757 1_455 S
O189 C178 1.289 . S
O190 La161 2.470 1_455 S
O190 C179 1.258 . S
O191 La160 2.503 1_545 S
O191 C179 1.256 . S
H192 C164 0.930 . S
H193 C165 0.930 . S
H194 C167 0.929 . S
H195 C168 0.929 . S
H196 C173 0.930 . S
H197 C174 0.930 . S
H198 C176 0.929 . S
H199 C177 0.929 . S
La200 C202 2.928 . S
La200 O220 2.521 . S
La200 O221 2.628 . S
La200 O222 2.554 . S
La200 O223 2.757 . S
La200 O224 2.470 . S
La200 O229 2.482 . S
La200 O231 2.503 . S
La201 C211 2.928 . S
La201 O223 2.482 . S
La201 O225 2.503 . S
La201 O226 2.521 . S
La201 O227 2.628 . S
La201 O228 2.554 . S
La201 O229 2.757 . S
La201 O230 2.470 . S
C202 La200 2.928 . S
C202 C203 1.503 . S
C202 O220 1.261 . S
C202 O221 1.243 . S
C203 C202 1.503 . S
C203 C204 1.394 . S
C203 C208 1.373 . S
C204 C203 1.394 . S
C204 C205 1.380 . S
C204 H232 0.930 . S
C205 C204 1.380 . S
C205 C206 1.376 . S
C205 H233 0.930 . S
C206 C205 1.376 . S
C206 C207 1.370 . S
C207 C206 1.370 . S
C207 C208 1.396 . S
C207 H234 0.929 . S
C208 C203 1.373 . S
C208 C207 1.396 . S
C208 H235 0.929 . S
C209 O222 1.240 . S
C209 O223 1.289 . S
C210 O224 1.258 . S
C210 O225 1.256 . S
C211 La201 2.928 . S
C211 C212 1.503 . S
C211 O226 1.261 . S
C211 O227 1.243 . S
C212 C211 1.503 . S
C212 C213 1.394 . S
C212 C217 1.373 . S
C213 C212 1.394 . S
C213 C214 1.380 . S
C213 H236 0.930 . S
C214 C213 1.380 . S
C214 C215 1.376 . S
C214 H237 0.930 . S
C215 C214 1.376 . S
C215 C216 1.370 . S
C216 C215 1.370 . S
C216 C217 1.396 . S
C216 H238 0.929 . S
C217 C212 1.373 . S
C217 C216 1.396 . S
C217 H239 0.929 . S
C218 O228 1.240 . S
C218 O229 1.289 . S
C219 O230 1.258 . S
C219 O231 1.256 . S
O220 La200 2.521 . S
O220 C202 1.261 . S
O221 La200 2.628 . S
O221 C202 1.243 . S
O222 La200 2.554 . S
O222 C209 1.240 . S
O223 La200 2.757 . S
O223 La201 2.482 . S
O223 C209 1.289 . S
O224 La200 2.470 . S
O224 C210 1.258 . S
O225 La201 2.503 . S
O225 C210 1.256 . S
O226 La201 2.521 . S
O226 C211 1.261 . S
O227 La201 2.628 . S
O227 C211 1.243 . S
O228 La201 2.554 . S
O228 C218 1.240 . S
O229 La200 2.482 . S
O229 La201 2.757 . S
O229 C218 1.289 . S
O230 La201 2.470 . S
O230 C219 1.258 . S
O231 La200 2.503 . S
O231 C219 1.256 . S
H232 C204 0.930 . S
H233 C205 0.930 . S
H234 C207 0.929 . S
H235 C208 0.929 . S
H236 C213 0.930 . S
H237 C214 0.930 . S
H238 C216 0.929 . S
H239 C217 0.929 . S
La240 C242 2.928 1_554 S
La240 O260 2.521 1_554 S
La240 O261 2.628 1_554 S
La240 O262 2.554 1_565 S
La240 O263 2.757 1_565 S
La240 O264 2.470 1_564 S
La240 O269 2.482 1_554 S
La240 O271 2.503 . S
La241 C251 2.928 1_556 S
La241 O263 2.482 1_556 S
La241 O265 2.503 . S
La241 O266 2.521 1_556 S
La241 O267 2.628 1_556 S
La241 O268 2.554 1_545 S
La241 O269 2.757 1_545 S
La241 O270 2.470 1_546 S
C242 La240 2.928 1_556 S
C242 C243 1.503 . S
C242 O260 1.261 . S
C242 O261 1.243 . S
C243 C242 1.503 . S
C243 C244 1.394 . S
C243 C248 1.373 . S
C244 C243 1.394 . S
C244 C245 1.380 . S
C244 H272 0.930 . S
C245 C244 1.380 . S
C245 C246 1.376 . S
C245 H273 0.930 . S
C246 C245 1.376 . S
C246 C247 1.370 . S
C247 C246 1.370 . S
C247 C248 1.396 . S
C247 H274 0.929 . S
C248 C243 1.373 . S
C248 C247 1.396 . S
C248 H275 0.929 . S
C249 O262 1.240 . S
C249 O263 1.289 . S
C250 O264 1.258 . S
C250 O265 1.256 . S
C251 La241 2.928 1_554 S
C251 C252 1.503 . S
C251 O266 1.261 . S
C251 O267 1.243 . S
C252 C251 1.503 . S
C252 C253 1.394 . S
C252 C257 1.373 . S
C253 C252 1.394 . S
C253 C254 1.380 . S
C253 H276 0.930 . S
C254 C253 1.380 . S
C254 C255 1.376 . S
C254 H277 0.930 . S
C255 C254 1.376 . S
C255 C256 1.370 . S
C256 C255 1.370 . S
C256 C257 1.396 . S
C256 H278 0.929 . S
C257 C252 1.373 . S
C257 C256 1.396 . S
C257 H279 0.929 . S
C258 O268 1.240 . S
C258 O269 1.289 . S
C259 O270 1.258 . S
C259 O271 1.256 . S
O260 La240 2.521 1_556 S
O260 C242 1.261 . S
O261 La240 2.628 1_556 S
O261 C242 1.243 . S
O262 La240 2.554 1_545 S
O262 C249 1.240 . S
O263 La240 2.757 1_545 S
O263 La241 2.482 1_554 S
O263 C249 1.289 . S
O264 La240 2.470 1_546 S
O264 C250 1.258 . S
O265 La241 2.503 . S
O265 C250 1.256 . S
O266 La241 2.521 1_554 S
O266 C251 1.261 . S
O267 La241 2.628 1_554 S
O267 C251 1.243 . S
O268 La241 2.554 1_565 S
O268 C258 1.240 . S
O269 La240 2.482 1_556 S
O269 La241 2.757 1_565 S
O269 C258 1.289 . S
O270 La241 2.470 1_564 S
O270 C259 1.258 . S
O271 La240 2.503 . S
O271 C259 1.256 . S
H272 C244 0.930 . S
H273 C245 0.930 . S
H274 C247 0.929 . S
H275 C248 0.929 . S
H276 C253 0.930 . S
H277 C254 0.930 . S
H278 C256 0.929 . S
H279 C257 0.929 . S
La280 C282 2.928 . S
La280 O300 2.521 . S
La280 O301 2.628 . S
La280 O302 2.554 . S
La280 O303 2.757 . S
La280 O304 2.470 . S
La280 O309 2.482 . S
La280 O311 2.503 . S
La281 C291 2.928 . S
La281 O303 2.482 . S
La281 O305 2.503 . S
La281 O306 2.521 . S
La281 O307 2.628 . S
La281 O308 2.554 . S
La281 O309 2.757 . S
La281 O310 2.470 . S
C282 La280 2.928 . S
C282 C283 1.503 . S
C282 O300 1.261 . S
C282 O301 1.243 . S
C283 C282 1.503 . S
C283 C284 1.394 . S
C283 C288 1.373 . S
C284 C283 1.394 . S
C284 C285 1.380 . S
C284 H312 0.930 . S
C285 C284 1.380 . S
C285 C286 1.376 . S
C285 H313 0.930 . S
C286 C285 1.376 . S
C286 C287 1.370 . S
C287 C286 1.370 . S
C287 C288 1.396 . S
C287 H314 0.929 . S
C288 C283 1.373 . S
C288 C287 1.396 . S
C288 H315 0.929 . S
C289 O302 1.240 . S
C289 O303 1.289 . S
C290 O304 1.258 . S
C290 O305 1.256 . S
C291 La281 2.928 . S
C291 C292 1.503 . S
C291 O306 1.261 . S
C291 O307 1.243 . S
C292 C291 1.503 . S
C292 C293 1.394 . S
C292 C297 1.373 . S
C293 C292 1.394 . S
C293 C294 1.380 . S
C293 H316 0.930 . S
C294 C293 1.380 . S
C294 C295 1.376 . S
C294 H317 0.930 . S
C295 C294 1.376 . S
C295 C296 1.370 . S
C296 C295 1.370 . S
C296 C297 1.396 . S
C296 H318 0.929 . S
C297 C292 1.373 . S
C297 C296 1.396 . S
C297 H319 0.929 . S
C298 O308 1.240 . S
C298 O309 1.289 . S
C299 O310 1.258 . S
C299 O311 1.256 . S
O300 La280 2.521 . S
O300 C282 1.261 . S
O301 La280 2.628 . S
O301 C282 1.243 . S
O302 La280 2.554 . S
O302 C289 1.240 . S
O303 La280 2.757 . S
O303 La281 2.482 . S
O303 C289 1.289 . S
O304 La280 2.470 . S
O304 C290 1.258 . S
O305 La281 2.503 . S
O305 C290 1.256 . S
O306 La281 2.521 . S
O306 C291 1.261 . S
O307 La281 2.628 . S
O307 C291 1.243 . S
O308 La281 2.554 . S
O308 C298 1.240 . S
O309 La280 2.482 . S
O309 La281 2.757 . S
O309 C298 1.289 . S
O310 La281 2.470 . S
O310 C299 1.258 . S
O311 La280 2.503 . S
O311 C299 1.256 . S
H312 C284 0.930 . S
H313 C285 0.930 . S
H314 C287 0.929 . S
H315 C288 0.929 . S
H316 C293 0.930 . S
H317 C294 0.930 . S
H318 C296 0.929 . S
H319 C297 0.929 . S
La320 C322 2.928 1_556 S
La320 O340 2.521 1_556 S
La320 O341 2.628 1_556 S
La320 O342 2.554 . S
La320 O343 2.757 . S
La320 O344 2.470 1_556 S
La320 O349 2.482 1_556 S
La320 O351 2.503 . S
La321 C331 2.928 1_554 S
La321 O343 2.482 1_554 S
La321 O345 2.503 . S
La321 O346 2.521 1_554 S
La321 O347 2.628 1_554 S
La321 O348 2.554 . S
La321 O349 2.757 . S
La321 O350 2.470 1_554 S
C322 La320 2.928 1_554 S
C322 C323 1.503 . S
C322 O340 1.261 . S
C322 O341 1.243 . S
C323 C322 1.503 . S
C323 C324 1.394 . S
C323 C328 1.373 . S
C324 C323 1.394 . S
C324 C325 1.380 . S
C324 H352 0.930 . S
C325 C324 1.380 . S
C325 C326 1.376 . S
C325 H353 0.930 . S
C326 C325 1.376 . S
C326 C327 1.370 . S
C327 C326 1.370 . S
C327 C328 1.396 . S
C327 H354 0.929 . S
C328 C323 1.373 . S
C328 C327 1.396 . S
C328 H355 0.929 . S
C329 O342 1.240 . S
C329 O343 1.289 . S
C330 O344 1.258 . S
C330 O345 1.256 . S
C331 La321 2.928 1_556 S
C331 C332 1.503 . S
C331 O346 1.261 . S
C331 O347 1.243 . S
C332 C331 1.503 . S
C332 C333 1.394 . S
C332 C337 1.373 . S
C333 C332 1.394 . S
C333 C334 1.380 . S
C333 H356 0.930 . S
C334 C333 1.380 . S
C334 C335 1.376 . S
C334 H357 0.930 . S
C335 C334 1.376 . S
C335 C336 1.370 . S
C336 C335 1.370 . S
C336 C337 1.396 . S
C336 H358 0.929 . S
C337 C332 1.373 . S
C337 C336 1.396 . S
C337 H359 0.929 . S
C338 O348 1.240 . S
C338 O349 1.289 . S
C339 O350 1.258 . S
C339 O351 1.256 . S
O340 La320 2.521 1_554 S
O340 C322 1.261 . S
O341 La320 2.628 1_554 S
O341 C322 1.243 . S
O342 La320 2.554 . S
O342 C329 1.240 . S
O343 La320 2.757 . S
O343 La321 2.482 1_556 S
O343 C329 1.289 . S
O344 La320 2.470 1_554 S
O344 C330 1.258 . S
O345 La321 2.503 . S
O345 C330 1.256 . S
O346 La321 2.521 1_556 S
O346 C331 1.261 . S
O347 La321 2.628 1_556 S
O347 C331 1.243 . S
O348 La321 2.554 . S
O348 C338 1.240 . S
O349 La320 2.482 1_554 S
O349 La321 2.757 . S
O349 C338 1.289 . S
O350 La321 2.470 1_556 S
O350 C339 1.258 . S
O351 La320 2.503 . S
O351 C339 1.256 . S
H352 C324 0.930 . S
H353 C325 0.930 . S
H354 C327 0.929 . S
H355 C328 0.929 . S
H356 C333 0.930 . S
H357 C334 0.930 . S
H358 C336 0.929 . S
H359 C337 0.929 . S
La360 C362 2.928 . S
La360 O380 2.521 . S
La360 O381 2.628 . S
La360 O382 2.554 . S
La360 O383 2.757 . S
La360 O384 2.470 . S
La360 O389 2.482 . S
La360 O391 2.503 . S
La361 C371 2.928 . S
La361 O383 2.482 . S
La361 O385 2.503 . S
La361 O386 2.521 . S
La361 O387 2.628 . S
La361 O388 2.554 . S
La361 O389 2.757 . S
La361 O390 2.470 . S
C362 La360 2.928 . S
C362 C363 1.503 . S
C362 O380 1.261 . S
C362 O381 1.243 . S
C363 C362 1.503 . S
C363 C364 1.394 . S
C363 C368 1.373 . S
C364 C363 1.394 . S
C364 C365 1.380 . S
C364 H392 0.930 . S
C365 C364 1.380 . S
C365 C366 1.376 . S
C365 H393 0.930 . S
C366 C365 1.376 . S
C366 C367 1.370 . S
C367 C366 1.370 . S
C367 C368 1.396 . S
C367 H394 0.929 . S
C368 C363 1.373 . S
C368 C367 1.396 . S
C368 H395 0.929 . S
C369 O382 1.240 . S
C369 O383 1.289 . S
C370 O384 1.258 . S
C370 O385 1.256 . S
C371 La361 2.928 . S
C371 C372 1.503 . S
C371 O386 1.261 . S
C371 O387 1.243 . S
C372 C371 1.503 . S
C372 C373 1.394 . S
C372 C377 1.373 . S
C373 C372 1.394 . S
C373 C374 1.380 . S
C373 H396 0.930 . S
C374 C373 1.380 . S
C374 C375 1.376 . S
C374 H397 0.930 . S
C375 C374 1.376 . S
C375 C376 1.370 . S
C376 C375 1.370 . S
C376 C377 1.396 . S
C376 H398 0.929 . S
C377 C372 1.373 . S
C377 C376 1.396 . S
C377 H399 0.929 . S
C378 O388 1.240 . S
C378 O389 1.289 . S
C379 O390 1.258 . S
C379 O391 1.256 . S
O380 La360 2.521 . S
O380 C362 1.261 . S
O381 La360 2.628 . S
O381 C362 1.243 . S
O382 La360 2.554 . S
O382 C369 1.240 . S
O383 La360 2.757 . S
O383 La361 2.482 . S
O383 C369 1.289 . S
O384 La360 2.470 . S
O384 C370 1.258 . S
O385 La361 2.503 . S
O385 C370 1.256 . S
O386 La361 2.521 . S
O386 C371 1.261 . S
O387 La361 2.628 . S
O387 C371 1.243 . S
O388 La361 2.554 . S
O388 C378 1.240 . S
O389 La360 2.482 . S
O389 La361 2.757 . S
O389 C378 1.289 . S
O390 La361 2.470 . S
O390 C379 1.258 . S
O391 La360 2.503 . S
O391 C379 1.256 . S
H392 C364 0.930 . S
H393 C365 0.930 . S
H394 C367 0.929 . S
H395 C368 0.929 . S
H396 C373 0.930 . S
H397 C374 0.930 . S
H398 C376 0.929 . S
H399 C377 0.929 . S
La400 C402 2.928 . S
La400 O420 2.521 . S
La400 O421 2.628 . S
La400 O422 2.554 . S
La400 O423 2.757 . S
La400 O424 2.470 . S
La400 O429 2.482 1_455 S
La400 O431 2.503 1_455 S
La401 C411 2.928 . S
La401 O423 2.482 1_655 S
La401 O425 2.503 1_655 S
La401 O426 2.521 . S
La401 O427 2.628 . S
La401 O428 2.554 . S
La401 O429 2.757 . S
La401 O430 2.470 . S
C402 La400 2.928 . S
C402 C403 1.503 . S
C402 O420 1.261 . S
C402 O421 1.243 . S
C403 C402 1.503 . S
C403 C404 1.394 . S
C403 C408 1.373 . S
C404 C403 1.394 . S
C404 C405 1.380 . S
C404 H432 0.930 . S
C405 C404 1.380 . S
C405 C406 1.376 . S
C405 H433 0.930 . S
C406 C405 1.376 . S
C406 C407 1.370 . S
C407 C406 1.370 . S
C407 C408 1.396 . S
C407 H434 0.929 . S
C408 C403 1.373 . S
C408 C407 1.396 . S
C408 H435 0.929 . S
C409 O422 1.240 . S
C409 O423 1.289 . S
C410 O424 1.258 . S
C410 O425 1.256 . S
C411 La401 2.928 . S
C411 C412 1.503 . S
C411 O426 1.261 . S
C411 O427 1.243 . S
C412 C411 1.503 . S
C412 C413 1.394 . S
C412 C417 1.373 . S
C413 C412 1.394 . S
C413 C414 1.380 . S
C413 H436 0.930 . S
C414 C413 1.380 . S
C414 C415 1.376 . S
C414 H437 0.930 . S
C415 C414 1.376 . S
C415 C416 1.370 . S
C416 C415 1.370 . S
C416 C417 1.396 . S
C416 H438 0.929 . S
C417 C412 1.373 . S
C417 C416 1.396 . S
C417 H439 0.929 . S
C418 O428 1.240 . S
C418 O429 1.289 . S
C419 O430 1.258 . S
C419 O431 1.256 . S
O420 La400 2.521 . S
O420 C402 1.261 . S
O421 La400 2.628 . S
O421 C402 1.243 . S
O422 La400 2.554 . S
O422 C409 1.240 . S
O423 La400 2.757 . S
O423 La401 2.482 1_455 S
O423 C409 1.289 . S
O424 La400 2.470 . S
O424 C410 1.258 . S
O425 La401 2.503 1_455 S
O425 C410 1.256 . S
O426 La401 2.521 . S
O426 C411 1.261 . S
O427 La401 2.628 . S
O427 C411 1.243 . S
O428 La401 2.554 . S
O428 C418 1.240 . S
O429 La400 2.482 1_655 S
O429 La401 2.757 . S
O429 C418 1.289 . S
O430 La401 2.470 . S
O430 C419 1.258 . S
O431 La400 2.503 1_655 S
O431 C419 1.256 . S
H432 C404 0.930 . S
H433 C405 0.930 . S
H434 C407 0.929 . S
H435 C408 0.929 . S
H436 C413 0.930 . S
H437 C414 0.930 . S
H438 C416 0.929 . S
H439 C417 0.929 . S
La440 C442 2.928 . S
La440 O460 2.521 . S
La440 O461 2.628 . S
La440 O462 2.554 . S
La440 O463 2.757 . S
La440 O464 2.470 . S
La440 O469 2.482 . S
La440 O471 2.503 . S
La441 C451 2.928 . S
La441 O463 2.482 . S
La441 O465 2.503 . S
La441 O466 2.521 . S
La441 O467 2.628 . S
La441 O468 2.554 . S
La441 O469 2.757 . S
La441 O470 2.470 . S
C442 La440 2.928 . S
C442 C443 1.503 . S
C442 O460 1.261 . S
C442 O461 1.243 . S
C443 C442 1.503 . S
C443 C444 1.394 . S
C443 C448 1.373 . S
C444 C443 1.394 . S
C444 C445 1.380 . S
C444 H472 0.930 . S
C445 C444 1.380 . S
C445 C446 1.376 . S
C445 H473 0.930 . S
C446 C445 1.376 . S
C446 C447 1.370 . S
C447 C446 1.370 . S
C447 C448 1.396 . S
C447 H474 0.929 . S
C448 C443 1.373 . S
C448 C447 1.396 . S
C448 H475 0.929 . S
C449 O462 1.240 . S
C449 O463 1.289 . S
C450 O464 1.258 . S
C450 O465 1.256 . S
C451 La441 2.928 . S
C451 C452 1.503 . S
C451 O466 1.261 . S
C451 O467 1.243 . S
C452 C451 1.503 . S
C452 C453 1.394 . S
C452 C457 1.373 . S
C453 C452 1.394 . S
C453 C454 1.380 . S
C453 H476 0.930 . S
C454 C453 1.380 . S
C454 C455 1.376 . S
C454 H477 0.930 . S
C455 C454 1.376 . S
C455 C456 1.370 . S
C456 C455 1.370 . S
C456 C457 1.396 . S
C456 H478 0.929 . S
C457 C452 1.373 . S
C457 C456 1.396 . S
C457 H479 0.929 . S
C458 O468 1.240 . S
C458 O469 1.289 . S
C459 O470 1.258 . S
C459 O471 1.256 . S
O460 La440 2.521 . S
O460 C442 1.261 . S
O461 La440 2.628 . S
O461 C442 1.243 . S
O462 La440 2.554 . S
O462 C449 1.240 . S
O463 La440 2.757 . S
O463 La441 2.482 . S
O463 C449 1.289 . S
O464 La440 2.470 . S
O464 C450 1.258 . S
O465 La441 2.503 . S
O465 C450 1.256 . S
O466 La441 2.521 . S
O466 C451 1.261 . S
O467 La441 2.628 . S
O467 C451 1.243 . S
O468 La441 2.554 . S
O468 C458 1.240 . S
O469 La440 2.482 . S
O469 La441 2.757 . S
O469 C458 1.289 . S
O470 La441 2.470 . S
O470 C459 1.258 . S
O471 La440 2.503 . S
O471 C459 1.256 . S
H472 C444 0.930 . S
H473 C445 0.930 . S
H474 C447 0.929 . S
H475 C448 0.929 . S
H476 C453 0.930 . S
H477 C454 0.930 . S
H478 C456 0.929 . S
H479 C457 0.929 . S
La480 C482 2.928 . S
La480 O500 2.521 . S
La480 O501 2.628 . S
La480 O502 2.554 . S
La480 O503 2.757 . S
La480 O504 2.470 . S
La480 O509 2.482 . S
La480 O511 2.503 . S
La481 C491 2.928 . S
La481 O503 2.482 . S
La481 O505 2.503 . S
La481 O506 2.521 . S
La481 O507 2.628 . S
La481 O508 2.554 . S
La481 O509 2.757 . S
La481 O510 2.470 . S
C482 La480 2.928 . S
C482 C483 1.503 . S
C482 O500 1.261 . S
C482 O501 1.243 . S
C483 C482 1.503 . S
C483 C484 1.394 . S
C483 C488 1.373 . S
C484 C483 1.394 . S
C484 C485 1.380 . S
C484 H512 0.930 . S
C485 C484 1.380 . S
C485 C486 1.376 . S
C485 H513 0.930 . S
C486 C485 1.376 . S
C486 C487 1.370 . S
C487 C486 1.370 . S
C487 C488 1.396 . S
C487 H514 0.929 . S
C488 C483 1.373 . S
C488 C487 1.396 . S
C488 H515 0.929 . S
C489 O502 1.240 . S
C489 O503 1.289 . S
C490 O504 1.258 . S
C490 O505 1.256 . S
C491 La481 2.928 . S
C491 C492 1.503 . S
C491 O506 1.261 . S
C491 O507 1.243 . S
C492 C491 1.503 . S
C492 C493 1.394 . S
C492 C497 1.373 . S
C493 C492 1.394 . S
C493 C494 1.380 . S
C493 H516 0.930 . S
C494 C493 1.380 . S
C494 C495 1.376 . S
C494 H517 0.930 . S
C495 C494 1.376 . S
C495 C496 1.370 . S
C496 C495 1.370 . S
C496 C497 1.396 . S
C496 H518 0.929 . S
C497 C492 1.373 . S
C497 C496 1.396 . S
C497 H519 0.929 . S
C498 O508 1.240 . S
C498 O509 1.289 . S
C499 O510 1.258 . S
C499 O511 1.256 . S
O500 La480 2.521 . S
O500 C482 1.261 . S
O501 La480 2.628 . S
O501 C482 1.243 . S
O502 La480 2.554 . S
O502 C489 1.240 . S
O503 La480 2.757 . S
O503 La481 2.482 . S
O503 C489 1.289 . S
O504 La480 2.470 . S
O504 C490 1.258 . S
O505 La481 2.503 . S
O505 C490 1.256 . S
O506 La481 2.521 . S
O506 C491 1.261 . S
O507 La481 2.628 . S
O507 C491 1.243 . S
O508 La481 2.554 . S
O508 C498 1.240 . S
O509 La480 2.482 . S
O509 La481 2.757 . S
O509 C498 1.289 . S
O510 La481 2.470 . S
O510 C499 1.258 . S
O511 La480 2.503 . S
O511 C499 1.256 . S
H512 C484 0.930 . S
H513 C485 0.930 . S
H514 C487 0.929 . S
H515 C488 0.929 . S
H516 C493 0.930 . S
H517 C494 0.930 . S
H518 C496 0.929 . S
H519 C497 0.929 . S
La520 C522 2.928 . S
La520 O540 2.521 . S
La520 O541 2.628 . S
La520 O542 2.554 . S
La520 O543 2.757 . S
La520 O544 2.470 . S
La520 O549 2.482 . S
La520 O551 2.503 . S
La521 C531 2.928 . S
La521 O543 2.482 . S
La521 O545 2.503 . S
La521 O546 2.521 . S
La521 O547 2.628 . S
La521 O548 2.554 . S
La521 O549 2.757 . S
La521 O550 2.470 . S
C522 La520 2.928 . S
C522 C523 1.503 . S
C522 O540 1.261 . S
C522 O541 1.243 . S
C523 C522 1.503 . S
C523 C524 1.394 . S
C523 C528 1.373 . S
C524 C523 1.394 . S
C524 C525 1.380 . S
C524 H552 0.930 . S
C525 C524 1.380 . S
C525 C526 1.376 . S
C525 H553 0.930 . S
C526 C525 1.376 . S
C526 C527 1.370 . S
C527 C526 1.370 . S
C527 C528 1.396 . S
C527 H554 0.929 . S
C528 C523 1.373 . S
C528 C527 1.396 . S
C528 H555 0.929 . S
C529 O542 1.240 . S
C529 O543 1.289 . S
C530 O544 1.258 . S
C530 O545 1.256 . S
C531 La521 2.928 . S
C531 C532 1.503 . S
C531 O546 1.261 . S
C531 O547 1.243 . S
C532 C531 1.503 . S
C532 C533 1.394 . S
C532 C537 1.373 . S
C533 C532 1.394 . S
C533 C534 1.380 . S
C533 H556 0.930 . S
C534 C533 1.380 . S
C534 C535 1.376 . S
C534 H557 0.930 . S
C535 C534 1.376 . S
C535 C536 1.370 . S
C536 C535 1.370 . S
C536 C537 1.396 . S
C536 H558 0.929 . S
C537 C532 1.373 . S
C537 C536 1.396 . S
C537 H559 0.929 . S
C538 O548 1.240 . S
C538 O549 1.289 . S
C539 O550 1.258 . S
C539 O551 1.256 . S
O540 La520 2.521 . S
O540 C522 1.261 . S
O541 La520 2.628 . S
O541 C522 1.243 . S
O542 La520 2.554 . S
O542 C529 1.240 . S
O543 La520 2.757 . S
O543 La521 2.482 . S
O543 C529 1.289 . S
O544 La520 2.470 . S
O544 C530 1.258 . S
O545 La521 2.503 . S
O545 C530 1.256 . S
O546 La521 2.521 . S
O546 C531 1.261 . S
O547 La521 2.628 . S
O547 C531 1.243 . S
O548 La521 2.554 . S
O548 C538 1.240 . S
O549 La520 2.482 . S
O549 La521 2.757 . S
O549 C538 1.289 . S
O550 La521 2.470 . S
O550 C539 1.258 . S
O551 La520 2.503 . S
O551 C539 1.256 . S
H552 C524 0.930 . S
H553 C525 0.930 . S
H554 C527 0.929 . S
H555 C528 0.929 . S
H556 C533 0.930 . S
H557 C534 0.930 . S
H558 C536 0.929 . S
H559 C537 0.929 . S
La560 C562 2.928 . S
La560 O580 2.521 . S
La560 O581 2.628 . S
La560 O582 2.554 . S
La560 O583 2.757 . S
La560 O584 2.470 . S
La560 O589 2.482 . S
La560 O591 2.503 . S
La561 C571 2.928 . S
La561 O583 2.482 . S
La561 O585 2.503 . S
La561 O586 2.521 . S
La561 O587 2.628 . S
La561 O588 2.554 . S
La561 O589 2.757 . S
La561 O590 2.470 . S
C562 La560 2.928 . S
C562 C563 1.503 . S
C562 O580 1.261 . S
C562 O581 1.243 . S
C563 C562 1.503 . S
C563 C564 1.394 . S
C563 C568 1.373 . S
C564 C563 1.394 . S
C564 C565 1.380 . S
C564 H592 0.930 . S
C565 C564 1.380 . S
C565 C566 1.376 . S
C565 H593 0.930 . S
C566 C565 1.376 . S
C566 C567 1.370 . S
C567 C566 1.370 . S
C567 C568 1.396 . S
C567 H594 0.929 . S
C568 C563 1.373 . S
C568 C567 1.396 . S
C568 H595 0.929 . S
C569 O582 1.240 . S
C569 O583 1.289 . S
C570 O584 1.258 . S
C570 O585 1.256 . S
C571 La561 2.928 . S
C571 C572 1.503 . S
C571 O586 1.261 . S
C571 O587 1.243 . S
C572 C571 1.503 . S
C572 C573 1.394 . S
C572 C577 1.373 . S
C573 C572 1.394 . S
C573 C574 1.380 . S
C573 H596 0.930 . S
C574 C573 1.380 . S
C574 C575 1.376 . S
C574 H597 0.930 . S
C575 C574 1.376 . S
C575 C576 1.370 . S
C576 C575 1.370 . S
C576 C577 1.396 . S
C576 H598 0.929 . S
C577 C572 1.373 . S
C577 C576 1.396 . S
C577 H599 0.929 . S
C578 O588 1.240 . S
C578 O589 1.289 . S
C579 O590 1.258 . S
C579 O591 1.256 . S
O580 La560 2.521 . S
O580 C562 1.261 . S
O581 La560 2.628 . S
O581 C562 1.243 . S
O582 La560 2.554 . S
O582 C569 1.240 . S
O583 La560 2.757 . S
O583 La561 2.482 . S
O583 C569 1.289 . S
O584 La560 2.470 . S
O584 C570 1.258 . S
O585 La561 2.503 . S
O585 C570 1.256 . S
O586 La561 2.521 . S
O586 C571 1.261 . S
O587 La561 2.628 . S
O587 C571 1.243 . S
O588 La561 2.554 . S
O588 C578 1.240 . S
O589 La560 2.482 . S
O589 La561 2.757 . S
O589 C578 1.289 . S
O590 La561 2.470 . S
O590 C579 1.258 . S
O591 La560 2.503 . S
O591 C579 1.256 . S
H592 C564 0.930 . S
H593 C565 0.930 . S
H594 C567 0.929 . S
H595 C568 0.929 . S
H596 C573 0.930 . S
H597 C574 0.930 . S
H598 C576 0.929 . S
H599 C577 0.929 . S
La600 C602 2.928 . S
La600 O620 2.521 . S
La600 O621 2.628 . S
La600 O622 2.554 1_554 S
La600 O623 2.757 1_554 S
La600 O624 2.470 1_554 S
La600 O629 2.482 1_655 S
La600 O631 2.503 . S
La601 C611 2.928 . S
La601 O623 2.482 1_455 S
La601 O625 2.503 . S
La601 O626 2.521 . S
La601 O627 2.628 . S
La601 O628 2.554 1_556 S
La601 O629 2.757 1_556 S
La601 O630 2.470 1_556 S
C602 La600 2.928 . S
C602 C603 1.503 . S
C602 O620 1.261 . S
C602 O621 1.243 . S
C603 C602 1.503 . S
C603 C604 1.394 . S
C603 C608 1.373 . S
C604 C603 1.394 . S
C604 C605 1.380 . S
C604 H632 0.930 . S
C605 C604 1.380 . S
C605 C606 1.376 . S
C605 H633 0.930 . S
C606 C605 1.376 . S
C606 C607 1.370 . S
C607 C606 1.370 . S
C607 C608 1.396 . S
C607 H634 0.929 . S
C608 C603 1.373 . S
C608 C607 1.396 . S
C608 H635 0.929 . S
C609 O622 1.240 . S
C609 O623 1.289 . S
C610 O624 1.258 . S
C610 O625 1.256 1_655 S
C611 La601 2.928 . S
C611 C612 1.503 . S
C611 O626 1.261 . S
C611 O627 1.243 . S
C612 C611 1.503 . S
C612 C613 1.394 . S
C612 C617 1.373 . S
C613 C612 1.394 . S
C613 C614 1.380 . S
C613 H636 0.930 . S
C614 C613 1.380 . S
C614 C615 1.376 . S
C614 H637 0.930 . S
C615 C614 1.376 . S
C615 C616 1.370 . S
C616 C615 1.370 . S
C616 C617 1.396 . S
C616 H638 0.929 . S
C617 C612 1.373 . S
C617 C616 1.396 . S
C617 H639 0.929 . S
C618 O628 1.240 . S
C618 O629 1.289 . S
C619 O630 1.258 . S
C619 O631 1.256 1_455 S
O620 La600 2.521 . S
O620 C602 1.261 . S
O621 La600 2.628 . S
O621 C602 1.243 . S
O622 La600 2.554 1_556 S
O622 C609 1.240 . S
O623 La600 2.757 1_556 S
O623 La601 2.482 1_655 S
O623 C609 1.289 . S
O624 La600 2.470 1_556 S
O624 C610 1.258 . S
O625 La601 2.503 . S
O625 C610 1.256 1_455 S
O626 La601 2.521 . S
O626 C611 1.261 . S
O627 La601 2.628 . S
O627 C611 1.243 . S
O628 La601 2.554 1_554 S
O628 C618 1.240 . S
O629 La600 2.482 1_455 S
O629 La601 2.757 1_554 S
O629 C618 1.289 . S
O630 La601 2.470 1_554 S
O630 C619 1.258 . S
O631 La600 2.503 . S
O631 C619 1.256 1_655 S
H632 C604 0.930 . S
H633 C605 0.930 . S
H634 C607 0.929 . S
H635 C608 0.929 . S
H636 C613 0.930 . S
H637 C614 0.930 . S
H638 C616 0.929 . S
H639 C617 0.929 . S
H640 C646 0.930 . S
H641 C650 0.930 . S
H642 C655 0.929 . S
H643 C653 0.929 . S
H644 C648 0.929 . S
H645 C654 0.929 . S
C646 H640 0.930 . S
C646 C647 1.367 . S
C646 C654 1.378 . S
C647 C646 1.367 . S
C647 C655 1.433 . S
C648 H644 0.929 . S
C648 C650 1.378 . S
C648 C652 1.350 . S
C649 C652 1.463 . S
C649 C654 1.350 . S
C649 N657 1.427 . S
C650 H641 0.930 . S
C650 C648 1.378 . S
C650 C651 1.367 . S
C651 C650 1.367 . S
C651 C653 1.433 . S
C652 C648 1.350 . S
C652 C649 1.463 . S
C652 N656 1.427 . S
C653 H643 0.929 . S
C653 C651 1.433 . S
C653 N656 1.384 . S
C654 H645 0.929 . S
C654 C646 1.378 . S
C654 C649 1.350 . S
C655 H642 0.929 . S
C655 C647 1.433 . S
C655 N657 1.384 . S
N656 C652 1.427 . S
N656 C653 1.384 . S
N657 C649 1.427 . S
N657 C655 1.384 . S
H658 C664 0.930 . S
H659 C668 0.930 . S
H660 C673 0.929 . S
H661 C671 0.929 . S
H662 C666 0.929 . S
H663 C672 0.929 . S
C664 H658 0.930 . S
C664 C665 1.367 . S
C664 C672 1.378 . S
C665 C664 1.367 . S
C665 C673 1.433 . S
C666 H662 0.929 . S
C666 C668 1.378 . S
C666 C670 1.350 . S
C667 C670 1.463 . S
C667 C672 1.350 . S
C667 N675 1.427 . S
C668 H659 0.930 . S
C668 C666 1.378 . S
C668 C669 1.367 . S
C669 C668 1.367 . S
C669 C671 1.433 . S
C670 C666 1.350 . S
C670 C667 1.463 . S
C670 N674 1.427 . S
C671 H661 0.929 . S
C671 C669 1.433 . S
C671 N674 1.384 . S
C672 H663 0.929 . S
C672 C664 1.378 . S
C672 C667 1.350 . S
C673 H660 0.929 . S
C673 C665 1.433 . S
C673 N675 1.384 . S
N674 C670 1.427 . S
N674 C671 1.384 . S
N675 C667 1.427 . S
N675 C673 1.384 . S
H676 C682 0.930 . S
H677 C686 0.930 . S
H678 C691 0.929 . S
H679 C689 0.929 . S
H680 C684 0.929 . S
H681 C690 0.929 . S
C682 H676 0.930 . S
C682 C683 1.367 . S
C682 C690 1.378 . S
C683 C682 1.367 . S
C683 C691 1.433 . S
C684 H680 0.929 . S
C684 C686 1.378 . S
C684 C688 1.350 . S
C685 C688 1.463 . S
C685 C690 1.350 . S
C685 N693 1.427 . S
C686 H677 0.930 . S
C686 C684 1.378 . S
C686 C687 1.367 . S
C687 C686 1.367 . S
C687 C689 1.433 . S
C688 C684 1.350 . S
C688 C685 1.463 . S
C688 N692 1.427 . S
C689 H679 0.929 . S
C689 C687 1.433 . S
C689 N692 1.384 . S
C690 H681 0.929 . S
C690 C682 1.378 . S
C690 C685 1.350 . S
C691 H678 0.929 . S
C691 C683 1.433 . S
C691 N693 1.384 . S
N692 C688 1.427 . S
N692 C689 1.384 . S
N693 C685 1.427 . S
N693 C691 1.384 . S
H694 C700 0.930 . S
H695 C704 0.930 . S
H696 C709 0.929 . S
H697 C707 0.929 . S
H698 C702 0.929 . S
H699 C708 0.929 . S
C700 H694 0.930 . S
C700 C701 1.367 . S
C700 C708 1.378 . S
C701 C700 1.367 . S
C701 C709 1.433 . S
C702 H698 0.929 . S
C702 C704 1.378 . S
C702 C706 1.350 . S
C703 C706 1.463 . S
C703 C708 1.350 . S
C703 N711 1.427 . S
C704 H695 0.930 . S
C704 C702 1.378 . S
C704 C705 1.367 . S
C705 C704 1.367 . S
C705 C707 1.433 . S
C706 C702 1.350 . S
C706 C703 1.463 . S
C706 N710 1.427 . S
C707 H697 0.929 . S
C707 C705 1.433 . S
C707 N710 1.384 . S
C708 H699 0.929 . S
C708 C700 1.378 . S
C708 C703 1.350 . S
C709 H696 0.929 . S
C709 C701 1.433 . S
C709 N711 1.384 . S
N710 C706 1.427 . S
N710 C707 1.384 . S
N711 C703 1.427 . S
N711 C709 1.384 . S
H712 C718 0.930 . S
H713 C722 0.930 . S
H714 C727 0.929 . S
H715 C725 0.929 . S
H716 C720 0.929 . S
H717 C726 0.929 . S
C718 H712 0.930 . S
C718 C719 1.367 . S
C718 C726 1.378 . S
C719 C718 1.367 . S
C719 C727 1.433 . S
C720 H716 0.929 . S
C720 C722 1.378 . S
C720 C724 1.350 . S
C721 C724 1.463 . S
C721 C726 1.350 . S
C721 N729 1.427 . S
C722 H713 0.930 . S
C722 C720 1.378 . S
C722 C723 1.367 . S
C723 C722 1.367 . S
C723 C725 1.433 . S
C724 C720 1.350 . S
C724 C721 1.463 . S
C724 N728 1.427 . S
C725 H715 0.929 . S
C725 C723 1.433 . S
C725 N728 1.384 . S
C726 H717 0.929 . S
C726 C718 1.378 . S
C726 C721 1.350 . S
C727 H714 0.929 . S
C727 C719 1.433 . S
C727 N729 1.384 . S
N728 C724 1.427 . S
N728 C725 1.384 . S
N729 C721 1.427 . S
N729 C727 1.384 . S
H730 C736 0.930 . S
H731 C740 0.930 . S
H732 C745 0.929 . S
H733 C743 0.929 . S
H734 C738 0.929 . S
H735 C744 0.929 . S
C736 H730 0.930 . S
C736 C737 1.367 . S
C736 C744 1.378 . S
C737 C736 1.367 . S
C737 C745 1.433 . S
C738 H734 0.929 . S
C738 C740 1.378 . S
C738 C742 1.350 . S
C739 C742 1.463 . S
C739 C744 1.350 . S
C739 N747 1.427 . S
C740 H731 0.930 . S
C740 C738 1.378 . S
C740 C741 1.367 . S
C741 C740 1.367 . S
C741 C743 1.433 . S
C742 C738 1.350 . S
C742 C739 1.463 . S
C742 N746 1.427 . S
C743 H733 0.929 . S
C743 C741 1.433 . S
C743 N746 1.384 . S
C744 H735 0.929 . S
C744 C736 1.378 . S
C744 C739 1.350 . S
C745 H732 0.929 . S
C745 C737 1.433 . S
C745 N747 1.384 . S
N746 C742 1.427 . S
N746 C743 1.384 . S
N747 C739 1.427 . S
N747 C745 1.384 . S
H748 C754 0.930 . S
H749 C758 0.930 . S
H750 C763 0.929 . S
H751 C761 0.929 . S
H752 C756 0.929 . S
H753 C762 0.929 . S
C754 H748 0.930 . S
C754 C755 1.367 . S
C754 C762 1.378 . S
C755 C754 1.367 . S
C755 C763 1.433 . S
C756 H752 0.929 . S
C756 C758 1.378 . S
C756 C760 1.350 . S
C757 C760 1.463 . S
C757 C762 1.350 . S
C757 N765 1.427 . S
C758 H749 0.930 . S
C758 C756 1.378 . S
C758 C759 1.367 . S
C759 C758 1.367 . S
C759 C761 1.433 . S
C760 C756 1.350 . S
C760 C757 1.463 . S
C760 N764 1.427 . S
C761 H751 0.929 . S
C761 C759 1.433 . S
C761 N764 1.384 . S
C762 H753 0.929 . S
C762 C754 1.378 . S
C762 C757 1.350 . S
C763 H750 0.929 . S
C763 C755 1.433 . S
C763 N765 1.384 . S
N764 C760 1.427 . S
N764 C761 1.384 . S
N765 C757 1.427 . S
N765 C763 1.384 . S
H766 C772 0.930 . S
H767 C776 0.930 . S
H768 C781 0.929 . S
H769 C779 0.929 . S
H770 C774 0.929 . S
H771 C780 0.929 . S
C772 H766 0.930 . S
C772 C773 1.367 . S
C772 C780 1.378 . S
C773 C772 1.367 . S
C773 C781 1.433 . S
C774 H770 0.929 . S
C774 C776 1.378 . S
C774 C778 1.350 . S
C775 C778 1.463 . S
C775 C780 1.350 . S
C775 N783 1.427 . S
C776 H767 0.930 . S
C776 C774 1.378 . S
C776 C777 1.367 . S
C777 C776 1.367 . S
C777 C779 1.433 . S
C778 C774 1.350 . S
C778 C775 1.463 . S
C778 N782 1.427 . S
C779 H769 0.929 . S
C779 C777 1.433 . S
C779 N782 1.384 . S
C780 H771 0.929 . S
C780 C772 1.378 . S
C780 C775 1.350 . S
C781 H768 0.929 . S
C781 C773 1.433 . S
C781 N783 1.384 . S
N782 C778 1.427 . S
N782 C779 1.384 . S
N783 C775 1.427 . S
N783 C781 1.384 . S
H784 C790 0.930 . S
H785 C794 0.930 1_455 S
H786 C799 0.929 . S
H787 C797 0.929 . S
H788 C792 0.929 . S
H789 C798 0.929 . S
C790 H784 0.930 . S
C790 C791 1.367 . S
C790 C798 1.378 . S
C791 C790 1.367 . S
C791 C799 1.433 . S
C792 H788 0.929 . S
C792 C794 1.378 . S
C792 C796 1.350 . S
C793 C796 1.463 . S
C793 C798 1.350 . S
C793 N801 1.427 . S
C794 H785 0.930 1_655 S
C794 C792 1.378 . S
C794 C795 1.367 . S
C795 C794 1.367 . S
C795 C797 1.433 . S
C796 C792 1.350 . S
C796 C793 1.463 . S
C796 N800 1.427 . S
C797 H787 0.929 . S
C797 C795 1.433 . S
C797 N800 1.384 . S
C798 H789 0.929 . S
C798 C790 1.378 . S
C798 C793 1.350 . S
C799 H786 0.929 . S
C799 C791 1.433 . S
C799 N801 1.384 . S
N800 C796 1.427 . S
N800 C797 1.384 . S
N801 C793 1.427 . S
N801 C799 1.384 . S
H802 C808 0.930 . S
H803 C812 0.930 . S
H804 C817 0.929 . S
H805 C815 0.929 . S
H806 C810 0.929 . S
H807 C816 0.929 . S
C808 H802 0.930 . S
C808 C809 1.367 . S
C808 C816 1.378 . S
C809 C808 1.367 . S
C809 C817 1.433 . S
C810 H806 0.929 . S
C810 C812 1.378 . S
C810 C814 1.350 . S
C811 C814 1.463 . S
C811 C816 1.350 . S
C811 N819 1.427 . S
C812 H803 0.930 . S
C812 C810 1.378 . S
C812 C813 1.367 . S
C813 C812 1.367 . S
C813 C815 1.433 . S
C814 C810 1.350 . S
C814 C811 1.463 . S
C814 N818 1.427 . S
C815 H805 0.929 . S
C815 C813 1.433 . S
C815 N818 1.384 . S
C816 H807 0.929 . S
C816 C808 1.378 . S
C816 C811 1.350 . S
C817 H804 0.929 . S
C817 C809 1.433 . S
C817 N819 1.384 . S
N818 C814 1.427 . S
N818 C815 1.384 . S
N819 C811 1.427 . S
N819 C817 1.384 . S
H820 C826 0.930 . S
H821 C830 0.930 . S
H822 C835 0.929 . S
H823 C833 0.929 . S
H824 C828 0.929 . S
H825 C834 0.929 . S
C826 H820 0.930 . S
C826 C827 1.367 . S
C826 C834 1.378 . S
C827 C826 1.367 . S
C827 C835 1.433 . S
C828 H824 0.929 . S
C828 C830 1.378 . S
C828 C832 1.350 . S
C829 C832 1.463 . S
C829 C834 1.350 . S
C829 N837 1.427 . S
C830 H821 0.930 . S
C830 C828 1.378 . S
C830 C831 1.367 . S
C831 C830 1.367 . S
C831 C833 1.433 . S
C832 C828 1.350 . S
C832 C829 1.463 . S
C832 N836 1.427 . S
C833 H823 0.929 . S
C833 C831 1.433 . S
C833 N836 1.384 . S
C834 H825 0.929 . S
C834 C826 1.378 . S
C834 C829 1.350 . S
C835 H822 0.929 . S
C835 C827 1.433 . S
C835 N837 1.384 . S
N836 C832 1.427 . S
N836 C833 1.384 . S
N837 C829 1.427 . S
N837 C835 1.384 . S
H838 C844 0.930 . S
H839 C848 0.930 . S
H840 C853 0.929 . S
H841 C851 0.929 . S
H842 C846 0.929 . S
H843 C852 0.929 . S
C844 H838 0.930 . S
C844 C845 1.367 . S
C844 C852 1.378 . S
C845 C844 1.367 . S
C845 C853 1.433 . S
C846 H842 0.929 . S
C846 C848 1.378 . S
C846 C850 1.350 . S
C847 C850 1.463 . S
C847 C852 1.350 . S
C847 N855 1.427 . S
C848 H839 0.930 . S
C848 C846 1.378 . S
C848 C849 1.367 . S
C849 C848 1.367 . S
C849 C851 1.433 . S
C850 C846 1.350 . S
C850 C847 1.463 . S
C850 N854 1.427 . S
C851 H841 0.929 . S
C851 C849 1.433 . S
C851 N854 1.384 . S
C852 H843 0.929 . S
C852 C844 1.378 . S
C852 C847 1.350 . S
C853 H840 0.929 . S
C853 C845 1.433 . S
C853 N855 1.384 . S
N854 C850 1.427 . S
N854 C851 1.384 . S
N855 C847 1.427 . S
N855 C853 1.384 . S
H856 C862 0.930 . S
H857 C866 0.930 . S
H858 C871 0.929 . S
H859 C869 0.929 . S
H860 C864 0.929 . S
H861 C870 0.929 . S
C862 H856 0.930 . S
C862 C863 1.367 . S
C862 C870 1.378 . S
C863 C862 1.367 . S
C863 C871 1.433 . S
C864 H860 0.929 . S
C864 C866 1.378 . S
C864 C868 1.350 . S
C865 C868 1.463 . S
C865 C870 1.350 . S
C865 N873 1.427 . S
C866 H857 0.930 . S
C866 C864 1.378 . S
C866 C867 1.367 . S
C867 C866 1.367 . S
C867 C869 1.433 . S
C868 C864 1.350 . S
C868 C865 1.463 . S
C868 N872 1.427 . S
C869 H859 0.929 . S
C869 C867 1.433 . S
C869 N872 1.384 . S
C870 H861 0.929 . S
C870 C862 1.378 . S
C870 C865 1.350 . S
C871 H858 0.929 . S
C871 C863 1.433 . S
C871 N873 1.384 . S
N872 C868 1.427 . S
N872 C869 1.384 . S
N873 C865 1.427 . S
N873 C871 1.384 . S
H874 C880 0.930 . S
H875 C884 0.930 . S
H876 C889 0.929 . S
H877 C887 0.929 . S
H878 C882 0.929 . S
H879 C888 0.929 . S
C880 H874 0.930 . S
C880 C881 1.367 . S
C880 C888 1.378 . S
C881 C880 1.367 . S
C881 C889 1.433 . S
C882 H878 0.929 . S
C882 C884 1.378 . S
C882 C886 1.350 . S
C883 C886 1.463 . S
C883 C888 1.350 . S
C883 N891 1.427 . S
C884 H875 0.930 . S
C884 C882 1.378 . S
C884 C885 1.367 . S
C885 C884 1.367 . S
C885 C887 1.433 . S
C886 C882 1.350 . S
C886 C883 1.463 . S
C886 N890 1.427 . S
C887 H877 0.929 . S
C887 C885 1.433 . S
C887 N890 1.384 . S
C888 H879 0.929 . S
C888 C880 1.378 . S
C888 C883 1.350 . S
C889 H876 0.929 . S
C889 C881 1.433 . S
C889 N891 1.384 . S
N890 C886 1.427 . S
N890 C887 1.384 . S
N891 C883 1.427 . S
N891 C889 1.384 . S
H892 C898 0.930 . S
H893 C902 0.930 . S
H894 C907 0.929 . S
H895 C905 0.929 . S
H896 C900 0.929 . S
H897 C906 0.929 . S
C898 H892 0.930 . S
C898 C899 1.367 . S
C898 C906 1.378 . S
C899 C898 1.367 . S
C899 C907 1.433 . S
C900 H896 0.929 . S
C900 C902 1.378 . S
C900 C904 1.350 . S
C901 C904 1.463 . S
C901 C906 1.350 . S
C901 N909 1.427 . S
C902 H893 0.930 . S
C902 C900 1.378 . S
C902 C903 1.367 . S
C903 C902 1.367 . S
C903 C905 1.433 . S
C904 C900 1.350 . S
C904 C901 1.463 . S
C904 N908 1.427 . S
C905 H895 0.929 . S
C905 C903 1.433 . S
C905 N908 1.384 . S
C906 H897 0.929 . S
C906 C898 1.378 . S
C906 C901 1.350 . S
C907 H894 0.929 . S
C907 C899 1.433 . S
C907 N909 1.384 . S
N908 C904 1.427 . S
N908 C905 1.384 . S
N909 C901 1.427 . S
N909 C907 1.384 . S
H910 C916 0.930 . S
H911 C920 0.930 . S
H912 C925 0.929 . S
H913 C923 0.929 . S
H914 C918 0.929 . S
H915 C924 0.929 . S
C916 H910 0.930 . S
C916 C917 1.367 . S
C916 C924 1.378 . S
C917 C916 1.367 . S
C917 C925 1.433 . S
C918 H914 0.929 . S
C918 C920 1.378 . S
C918 C922 1.350 . S
C919 C922 1.463 . S
C919 C924 1.350 . S
C919 N927 1.427 . S
C920 H911 0.930 . S
C920 C918 1.378 . S
C920 C921 1.367 . S
C921 C920 1.367 . S
C921 C923 1.433 . S
C922 C918 1.350 . S
C922 C919 1.463 . S
C922 N926 1.427 . S
C923 H913 0.929 . S
C923 C921 1.433 . S
C923 N926 1.384 . S
C924 H915 0.929 . S
C924 C916 1.378 . S
C924 C919 1.350 . S
C925 H912 0.929 . S
C925 C917 1.433 . S
C925 N927 1.384 . S
N926 C922 1.427 . S
N926 C923 1.384 . S
N927 C919 1.427 . S
N927 C925 1.384 . S
H928 C934 0.930 . S
H929 C938 0.930 . S
H930 C943 0.929 . S
H931 C941 0.929 . S
H932 C936 0.929 . S
H933 C942 0.929 . S
C934 H928 0.930 . S
C934 C935 1.367 . S
C934 C942 1.378 . S
C935 C934 1.367 . S
C935 C943 1.433 . S
C936 H932 0.929 . S
C936 C938 1.378 . S
C936 C940 1.350 . S
C937 C940 1.463 . S
C937 C942 1.350 . S
C937 N945 1.427 . S
C938 H929 0.930 . S
C938 C936 1.378 . S
C938 C939 1.367 . S
C939 C938 1.367 . S
C939 C941 1.433 . S
C940 C936 1.350 . S
C940 C937 1.463 . S
C940 N944 1.427 . S
C941 H931 0.929 . S
C941 C939 1.433 . S
C941 N944 1.384 . S
C942 H933 0.929 . S
C942 C934 1.378 . S
C942 C937 1.350 . S
C943 H930 0.929 . S
C943 C935 1.433 . S
C943 N945 1.384 . S
N944 C940 1.427 . S
N944 C941 1.384 . S
N945 C937 1.427 . S
N945 C943 1.384 . S
H946 C952 0.930 . S
H947 C956 0.930 . S
H948 C961 0.929 . S
H949 C959 0.929 . S
H950 C954 0.929 . S
H951 C960 0.929 . S
C952 H946 0.930 . S
C952 C953 1.367 . S
C952 C960 1.378 . S
C953 C952 1.367 . S
C953 C961 1.433 . S
C954 H950 0.929 . S
C954 C956 1.378 . S
C954 C958 1.350 . S
C955 C958 1.463 . S
C955 C960 1.350 . S
C955 N963 1.427 . S
C956 H947 0.930 . S
C956 C954 1.378 . S
C956 C957 1.367 . S
C957 C956 1.367 . S
C957 C959 1.433 . S
C958 C954 1.350 . S
C958 C955 1.463 . S
C958 N962 1.427 . S
C959 H949 0.929 . S
C959 C957 1.433 . S
C959 N962 1.384 . S
C960 H951 0.929 . S
C960 C952 1.378 . S
C960 C955 1.350 . S
C961 H948 0.929 . S
C961 C953 1.433 . S
C961 N963 1.384 . S
N962 C958 1.427 . S
N962 C959 1.384 . S
N963 C955 1.427 . S
N963 C961 1.384 . S
H964 C970 0.930 . S
H965 C974 0.930 . S
H966 C979 0.929 . S
H967 C977 0.929 . S
H968 C972 0.929 . S
H969 C978 0.929 . S
C970 H964 0.930 . S
C970 C971 1.367 . S
C970 C978 1.378 . S
C971 C970 1.367 . S
C971 C979 1.433 . S
C972 H968 0.929 . S
C972 C974 1.378 . S
C972 C976 1.350 . S
C973 C976 1.463 . S
C973 C978 1.350 . S
C973 N981 1.427 . S
C974 H965 0.930 . S
C974 C972 1.378 . S
C974 C975 1.367 . S
C975 C974 1.367 . S
C975 C977 1.433 . S
C976 C972 1.350 . S
C976 C973 1.463 . S
C976 N980 1.427 . S
C977 H967 0.929 . S
C977 C975 1.433 . S
C977 N980 1.384 . S
C978 H969 0.929 . S
C978 C970 1.378 . S
C978 C973 1.350 . S
C979 H966 0.929 . S
C979 C971 1.433 . S
C979 N981 1.384 . S
N980 C976 1.427 . S
N980 C977 1.384 . S
N981 C973 1.427 . S
N981 C979 1.384 . S
H982 C988 0.930 . S
H983 C992 0.930 . S
H984 C997 0.929 . S
H985 C995 0.929 . S
H986 C990 0.929 . S
H987 C996 0.929 . S
C988 H982 0.930 . S
C988 C989 1.367 . S
C988 C996 1.378 . S
C989 C988 1.367 . S
C989 C997 1.433 . S
C990 H986 0.929 . S
C990 C992 1.378 . S
C990 C994 1.350 . S
C991 C994 1.463 . S
C991 C996 1.350 . S
C991 N999 1.427 . S
C992 H983 0.930 . S
C992 C990 1.378 . S
C992 C993 1.367 . S
C993 C992 1.367 . S
C993 C995 1.433 . S
C994 C990 1.350 . S
C994 C991 1.463 . S
C994 N998 1.427 . S
C995 H985 0.929 . S
C995 C993 1.433 . S
C995 N998 1.384 . S
C996 H987 0.929 . S
C996 C988 1.378 . S
C996 C991 1.350 . S
C997 H984 0.929 . S
C997 C989 1.433 . S
C997 N999 1.384 . S
N998 C994 1.427 . S
N998 C995 1.384 . S
N999 C991 1.427 . S
N999 C997 1.384 . S
H1000 C1006 0.930 . S
H1001 C1010 0.930 . S
H1002 C1015 0.929 . S
H1003 C1013 0.929 . S
H1004 C1008 0.929 . S
H1005 C1014 0.929 . S
C1006 H1000 0.930 . S
C1006 C1007 1.367 . S
C1006 C1014 1.378 . S
C1007 C1006 1.367 . S
C1007 C1015 1.433 . S
C1008 H1004 0.929 . S
C1008 C1010 1.378 . S
C1008 C1012 1.350 . S
C1009 C1012 1.463 . S
C1009 C1014 1.350 . S
C1009 N1017 1.427 . S
C1010 H1001 0.930 . S
C1010 C1008 1.378 . S
C1010 C1011 1.367 . S
C1011 C1010 1.367 . S
C1011 C1013 1.433 . S
C1012 C1008 1.350 . S
C1012 C1009 1.463 . S
C1012 N1016 1.427 . S
C1013 H1003 0.929 . S
C1013 C1011 1.433 . S
C1013 N1016 1.384 . S
C1014 H1005 0.929 . S
C1014 C1006 1.378 . S
C1014 C1009 1.350 . S
C1015 H1002 0.929 . S
C1015 C1007 1.433 . S
C1015 N1017 1.384 . S
N1016 C1012 1.427 . S
N1016 C1013 1.384 . S
N1017 C1009 1.427 . S
N1017 C1015 1.384 . S
H1018 C1024 0.930 . S
H1019 C1028 0.930 . S
H1020 C1033 0.929 . S
H1021 C1031 0.929 . S
H1022 C1026 0.929 . S
H1023 C1032 0.929 . S
C1024 H1018 0.930 . S
C1024 C1025 1.367 . S
C1024 C1032 1.378 . S
C1025 C1024 1.367 . S
C1025 C1033 1.433 . S
C1026 H1022 0.929 . S
C1026 C1028 1.378 . S
C1026 C1030 1.350 . S
C1027 C1030 1.463 . S
C1027 C1032 1.350 . S
C1027 N1035 1.427 . S
C1028 H1019 0.930 . S
C1028 C1026 1.378 . S
C1028 C1029 1.367 . S
C1029 C1028 1.367 . S
C1029 C1031 1.433 . S
C1030 C1026 1.350 . S
C1030 C1027 1.463 . S
C1030 N1034 1.427 . S
C1031 H1021 0.929 . S
C1031 C1029 1.433 . S
C1031 N1034 1.384 . S
C1032 H1023 0.929 . S
C1032 C1024 1.378 . S
C1032 C1027 1.350 . S
C1033 H1020 0.929 . S
C1033 C1025 1.433 . S
C1033 N1035 1.384 . S
N1034 C1030 1.427 . S
N1034 C1031 1.384 . S
N1035 C1027 1.427 . S
N1035 C1033 1.384 . S
H1036 C1042 0.930 . S
H1037 C1046 0.930 . S
H1038 C1051 0.929 . S
H1039 C1049 0.929 . S
H1040 C1044 0.929 . S
H1041 C1050 0.929 . S
C1042 H1036 0.930 . S
C1042 C1043 1.367 . S
C1042 C1050 1.378 . S
C1043 C1042 1.367 . S
C1043 C1051 1.433 . S
C1044 H1040 0.929 . S
C1044 C1046 1.378 . S
C1044 C1048 1.350 . S
C1045 C1048 1.463 . S
C1045 C1050 1.350 . S
C1045 N1053 1.427 . S
C1046 H1037 0.930 . S
C1046 C1044 1.378 . S
C1046 C1047 1.367 . S
C1047 C1046 1.367 . S
C1047 C1049 1.433 . S
C1048 C1044 1.350 . S
C1048 C1045 1.463 . S
C1048 N1052 1.427 . S
C1049 H1039 0.929 . S
C1049 C1047 1.433 . S
C1049 N1052 1.384 . S
C1050 H1041 0.929 . S
C1050 C1042 1.378 . S
C1050 C1045 1.350 . S
C1051 H1038 0.929 . S
C1051 C1043 1.433 . S
C1051 N1053 1.384 . S
N1052 C1048 1.427 . S
N1052 C1049 1.384 . S
N1053 C1045 1.427 . S
N1053 C1051 1.384 . S
H1054 C1060 0.930 . S
H1055 C1064 0.930 . S
H1056 C1069 0.929 . S
H1057 C1067 0.929 . S
H1058 C1062 0.929 . S
H1059 C1068 0.929 . S
C1060 H1054 0.930 . S
C1060 C1061 1.367 . S
C1060 C1068 1.378 . S
C1061 C1060 1.367 . S
C1061 C1069 1.433 . S
C1062 H1058 0.929 . S
C1062 C1064 1.378 . S
C1062 C1066 1.350 . S
C1063 C1066 1.463 . S
C1063 C1068 1.350 . S
C1063 N1071 1.427 . S
C1064 H1055 0.930 . S
C1064 C1062 1.378 . S
C1064 C1065 1.367 . S
C1065 C1064 1.367 . S
C1065 C1067 1.433 . S
C1066 C1062 1.350 . S
C1066 C1063 1.463 . S
C1066 N1070 1.427 . S
C1067 H1057 0.929 . S
C1067 C1065 1.433 . S
C1067 N1070 1.384 . S
C1068 H1059 0.929 . S
C1068 C1060 1.378 . S
C1068 C1063 1.350 . S
C1069 H1056 0.929 . S
C1069 C1061 1.433 . S
C1069 N1071 1.384 . S
N1070 C1066 1.427 . S
N1070 C1067 1.384 . S
N1071 C1063 1.427 . S
N1071 C1069 1.384 . S
H1072 C1078 0.930 . S
H1073 C1082 0.930 . S
H1074 C1087 0.929 . S
H1075 C1085 0.929 . S
H1076 C1080 0.929 . S
H1077 C1086 0.929 . S
C1078 H1072 0.930 . S
C1078 C1079 1.367 . S
C1078 C1086 1.378 . S
C1079 C1078 1.367 . S
C1079 C1087 1.433 . S
C1080 H1076 0.929 . S
C1080 C1082 1.378 . S
C1080 C1084 1.350 . S
C1081 C1084 1.463 . S
C1081 C1086 1.350 . S
C1081 N1089 1.427 . S
C1082 H1073 0.930 . S
C1082 C1080 1.378 . S
C1082 C1083 1.367 . S
C1083 C1082 1.367 . S
C1083 C1085 1.433 . S
C1084 C1080 1.350 . S
C1084 C1081 1.463 . S
C1084 N1088 1.427 . S
C1085 H1075 0.929 . S
C1085 C1083 1.433 . S
C1085 N1088 1.384 . S
C1086 H1077 0.929 . S
C1086 C1078 1.378 . S
C1086 C1081 1.350 . S
C1087 H1074 0.929 . S
C1087 C1079 1.433 . S
C1087 N1089 1.384 . S
N1088 C1084 1.427 . S
N1088 C1085 1.384 . S
N1089 C1081 1.427 . S
N1089 C1087 1.384 . S
H1090 C1096 0.930 . S
H1091 C1100 0.930 . S
H1092 C1105 0.929 . S
H1093 C1103 0.929 . S
H1094 C1098 0.929 . S
H1095 C1104 0.929 . S
C1096 H1090 0.930 . S
C1096 C1097 1.367 . S
C1096 C1104 1.378 . S
C1097 C1096 1.367 . S
C1097 C1105 1.433 . S
C1098 H1094 0.929 . S
C1098 C1100 1.378 . S
C1098 C1102 1.350 . S
C1099 C1102 1.463 . S
C1099 C1104 1.350 . S
C1099 N1107 1.427 . S
C1100 H1091 0.930 . S
C1100 C1098 1.378 . S
C1100 C1101 1.367 . S
C1101 C1100 1.367 . S
C1101 C1103 1.433 . S
C1102 C1098 1.350 . S
C1102 C1099 1.463 . S
C1102 N1106 1.427 . S
C1103 H1093 0.929 . S
C1103 C1101 1.433 . S
C1103 N1106 1.384 . S
C1104 H1095 0.929 . S
C1104 C1096 1.378 . S
C1104 C1099 1.350 . S
C1105 H1092 0.929 . S
C1105 C1097 1.433 . S
C1105 N1107 1.384 . S
N1106 C1102 1.427 . S
N1106 C1103 1.384 . S
N1107 C1099 1.427 . S
N1107 C1105 1.384 . S
H1108 C1114 0.930 . S
H1109 C1118 0.930 . S
H1110 C1123 0.929 . S
H1111 C1121 0.929 . S
H1112 C1116 0.929 . S
H1113 C1122 0.929 . S
C1114 H1108 0.930 . S
C1114 C1115 1.367 . S
C1114 C1122 1.378 . S
C1115 C1114 1.367 . S
C1115 C1123 1.433 . S
C1116 H1112 0.929 . S
C1116 C1118 1.378 . S
C1116 C1120 1.350 . S
C1117 C1120 1.463 . S
C1117 C1122 1.350 . S
C1117 N1125 1.427 . S
C1118 H1109 0.930 . S
C1118 C1116 1.378 . S
C1118 C1119 1.367 . S
C1119 C1118 1.367 . S
C1119 C1121 1.433 . S
C1120 C1116 1.350 . S
C1120 C1117 1.463 . S
C1120 N1124 1.427 . S
C1121 H1111 0.929 . S
C1121 C1119 1.433 . S
C1121 N1124 1.384 . S
C1122 H1113 0.929 . S
C1122 C1114 1.378 . S
C1122 C1117 1.350 . S
C1123 H1110 0.929 . S
C1123 C1115 1.433 . S
C1123 N1125 1.384 . S
N1124 C1120 1.427 . S
N1124 C1121 1.384 . S
N1125 C1117 1.427 . S
N1125 C1123 1.384 . S
H1126 C1132 0.930 . S
H1127 C1136 0.930 . S
H1128 C1141 0.929 . S
H1129 C1139 0.929 . S
H1130 C1134 0.929 . S
H1131 C1140 0.929 . S
C1132 H1126 0.930 . S
C1132 C1133 1.367 . S
C1132 C1140 1.378 . S
C1133 C1132 1.367 . S
C1133 C1141 1.433 . S
C1134 H1130 0.929 . S
C1134 C1136 1.378 . S
C1134 C1138 1.350 . S
C1135 C1138 1.463 . S
C1135 C1140 1.350 . S
C1135 N1143 1.427 . S
C1136 H1127 0.930 . S
C1136 C1134 1.378 . S
C1136 C1137 1.367 . S
C1137 C1136 1.367 . S
C1137 C1139 1.433 . S
C1138 C1134 1.350 . S
C1138 C1135 1.463 . S
C1138 N1142 1.427 . S
C1139 H1129 0.929 . S
C1139 C1137 1.433 . S
C1139 N1142 1.384 . S
C1140 H1131 0.929 . S
C1140 C1132 1.378 . S
C1140 C1135 1.350 . S
C1141 H1128 0.929 . S
C1141 C1133 1.433 . S
C1141 N1143 1.384 . S
N1142 C1138 1.427 . S
N1142 C1139 1.384 . S
N1143 C1135 1.427 . S
N1143 C1141 1.384 . S
H1144 C1150 0.930 . S
H1145 C1154 0.930 . S
H1146 C1159 0.929 . S
H1147 C1157 0.929 . S
H1148 C1152 0.929 . S
H1149 C1158 0.929 . S
C1150 H1144 0.930 . S
C1150 C1151 1.367 . S
C1150 C1158 1.378 . S
C1151 C1150 1.367 . S
C1151 C1159 1.433 . S
C1152 H1148 0.929 . S
C1152 C1154 1.378 . S
C1152 C1156 1.350 . S
C1153 C1156 1.463 . S
C1153 C1158 1.350 . S
C1153 N1161 1.427 . S
C1154 H1145 0.930 . S
C1154 C1152 1.378 . S
C1154 C1155 1.367 . S
C1155 C1154 1.367 . S
C1155 C1157 1.433 . S
C1156 C1152 1.350 . S
C1156 C1153 1.463 . S
C1156 N1160 1.427 . S
C1157 H1147 0.929 . S
C1157 C1155 1.433 . S
C1157 N1160 1.384 . S
C1158 H1149 0.929 . S
C1158 C1150 1.378 . S
C1158 C1153 1.350 . S
C1159 H1146 0.929 . S
C1159 C1151 1.433 . S
C1159 N1161 1.384 . S
N1160 C1156 1.427 . S
N1160 C1157 1.384 . S
N1161 C1153 1.427 . S
N1161 C1159 1.384 . S
H1162 C1168 0.930 . S
H1163 C1172 0.930 . S
H1164 C1177 0.929 . S
H1165 C1175 0.929 1_655 S
H1166 C1170 0.929 . S
H1167 C1176 0.929 . S
C1168 H1162 0.930 . S
C1168 C1169 1.367 . S
C1168 C1176 1.378 . S
C1169 C1168 1.367 . S
C1169 C1177 1.433 . S
C1170 H1166 0.929 . S
C1170 C1172 1.378 . S
C1170 C1174 1.350 . S
C1171 C1174 1.463 . S
C1171 C1176 1.350 . S
C1171 N1179 1.427 . S
C1172 H1163 0.930 . S
C1172 C1170 1.378 . S
C1172 C1173 1.367 . S
C1173 C1172 1.367 . S
C1173 C1175 1.433 . S
C1174 C1170 1.350 . S
C1174 C1171 1.463 . S
C1174 N1178 1.427 . S
C1175 H1165 0.929 1_455 S
C1175 C1173 1.433 . S
C1175 N1178 1.384 . S
C1176 H1167 0.929 . S
C1176 C1168 1.378 . S
C1176 C1171 1.350 . S
C1177 H1164 0.929 . S
C1177 C1169 1.433 . S
C1177 N1179 1.384 . S
N1178 C1174 1.427 . S
N1178 C1175 1.384 . S
N1179 C1171 1.427 . S
N1179 C1177 1.384 . S
H1180 C1186 0.930 . S
H1181 C1190 0.930 . S
H1182 C1195 0.929 . S
H1183 C1193 0.929 . S
H1184 C1188 0.929 . S
H1185 C1194 0.929 . S
C1186 H1180 0.930 . S
C1186 C1187 1.367 . S
C1186 C1194 1.378 . S
C1187 C1186 1.367 . S
C1187 C1195 1.433 . S
C1188 H1184 0.929 . S
C1188 C1190 1.378 . S
C1188 C1192 1.350 . S
C1189 C1192 1.463 . S
C1189 C1194 1.350 . S
C1189 N1197 1.427 . S
C1190 H1181 0.930 . S
C1190 C1188 1.378 . S
C1190 C1191 1.367 . S
C1191 C1190 1.367 . S
C1191 C1193 1.433 . S
C1192 C1188 1.350 . S
C1192 C1189 1.463 . S
C1192 N1196 1.427 . S
C1193 H1183 0.929 . S
C1193 C1191 1.433 . S
C1193 N1196 1.384 . S
C1194 H1185 0.929 . S
C1194 C1186 1.378 . S
C1194 C1189 1.350 . S
C1195 H1182 0.929 . S
C1195 C1187 1.433 . S
C1195 N1197 1.384 . S
N1196 C1192 1.427 . S
N1196 C1193 1.384 . S
N1197 C1189 1.427 . S
N1197 C1195 1.384 . S
H1198 C1204 0.930 . S
H1199 C1208 0.930 . S
H1200 C1213 0.929 . S
H1201 C1211 0.929 . S
H1202 C1206 0.929 . S
H1203 C1212 0.929 . S
C1204 H1198 0.930 . S
C1204 C1205 1.367 . S
C1204 C1212 1.378 . S
C1205 C1204 1.367 . S
C1205 C1213 1.433 . S
C1206 H1202 0.929 . S
C1206 C1208 1.378 . S
C1206 C1210 1.350 . S
C1207 C1210 1.463 . S
C1207 C1212 1.350 . S
C1207 N1215 1.427 . S
C1208 H1199 0.930 . S
C1208 C1206 1.378 . S
C1208 C1209 1.367 . S
C1209 C1208 1.367 . S
C1209 C1211 1.433 . S
C1210 C1206 1.350 . S
C1210 C1207 1.463 . S
C1210 N1214 1.427 . S
C1211 H1201 0.929 . S
C1211 C1209 1.433 . S
C1211 N1214 1.384 . S
C1212 H1203 0.929 . S
C1212 C1204 1.378 . S
C1212 C1207 1.350 . S
C1213 H1200 0.929 . S
C1213 C1205 1.433 . S
C1213 N1215 1.384 . S
N1214 C1210 1.427 . S
N1214 C1211 1.384 . S
N1215 C1207 1.427 . S
N1215 C1213 1.384 . S
H1216 C1222 0.930 . S
H1217 C1226 0.930 . S
H1218 C1231 0.929 . S
H1219 C1229 0.929 . S
H1220 C1224 0.929 . S
H1221 C1230 0.929 . S
C1222 H1216 0.930 . S
C1222 C1223 1.367 . S
C1222 C1230 1.378 . S
C1223 C1222 1.367 . S
C1223 C1231 1.433 . S
C1224 H1220 0.929 . S
C1224 C1226 1.378 . S
C1224 C1228 1.350 . S
C1225 C1228 1.463 . S
C1225 C1230 1.350 . S
C1225 N1233 1.427 . S
C1226 H1217 0.930 . S
C1226 C1224 1.378 . S
C1226 C1227 1.367 . S
C1227 C1226 1.367 . S
C1227 C1229 1.433 . S
C1228 C1224 1.350 . S
C1228 C1225 1.463 . S
C1228 N1232 1.427 . S
C1229 H1219 0.929 . S
C1229 C1227 1.433 . S
C1229 N1232 1.384 . S
C1230 H1221 0.929 . S
C1230 C1222 1.378 . S
C1230 C1225 1.350 . S
C1231 H1218 0.929 . S
C1231 C1223 1.433 . S
C1231 N1233 1.384 . S
N1232 C1228 1.427 . S
N1232 C1229 1.384 . S
N1233 C1225 1.427 . S
N1233 C1231 1.384 . S
H1234 C1240 0.930 . S
H1235 C1244 0.930 . S
H1236 C1249 0.929 . S
H1237 C1247 0.929 . S
H1238 C1242 0.929 . S
H1239 C1248 0.929 . S
C1240 H1234 0.930 . S
C1240 C1241 1.367 . S
C1240 C1248 1.378 . S
C1241 C1240 1.367 . S
C1241 C1249 1.433 . S
C1242 H1238 0.929 . S
C1242 C1244 1.378 . S
C1242 C1246 1.350 . S
C1243 C1246 1.463 . S
C1243 C1248 1.350 . S
C1243 N1251 1.427 . S
C1244 H1235 0.930 . S
C1244 C1242 1.378 . S
C1244 C1245 1.367 . S
C1245 C1244 1.367 . S
C1245 C1247 1.433 . S
C1246 C1242 1.350 . S
C1246 C1243 1.463 . S
C1246 N1250 1.427 . S
C1247 H1237 0.929 . S
C1247 C1245 1.433 . S
C1247 N1250 1.384 . S
C1248 H1239 0.929 . S
C1248 C1240 1.378 . S
C1248 C1243 1.350 . S
C1249 H1236 0.929 . S
C1249 C1241 1.433 . S
C1249 N1251 1.384 . S
N1250 C1246 1.427 . S
N1250 C1247 1.384 . S
N1251 C1243 1.427 . S
N1251 C1249 1.384 . S
H1252 C1258 0.930 . S
H1253 C1262 0.930 . S
H1254 C1267 0.929 . S
H1255 C1265 0.929 . S
H1256 C1260 0.929 . S
H1257 C1266 0.929 . S
C1258 H1252 0.930 . S
C1258 C1259 1.367 . S
C1258 C1266 1.378 . S
C1259 C1258 1.367 . S
C1259 C1267 1.433 . S
C1260 H1256 0.929 . S
C1260 C1262 1.378 . S
C1260 C1264 1.350 . S
C1261 C1264 1.463 . S
C1261 C1266 1.350 . S
C1261 N1269 1.427 . S
C1262 H1253 0.930 . S
C1262 C1260 1.378 . S
C1262 C1263 1.367 . S
C1263 C1262 1.367 . S
C1263 C1265 1.433 . S
C1264 C1260 1.350 . S
C1264 C1261 1.463 . S
C1264 N1268 1.427 . S
C1265 H1255 0.929 . S
C1265 C1263 1.433 . S
C1265 N1268 1.384 . S
C1266 H1257 0.929 . S
C1266 C1258 1.378 . S
C1266 C1261 1.350 . S
C1267 H1254 0.929 . S
C1267 C1259 1.433 . S
C1267 N1269 1.384 . S
N1268 C1264 1.427 . S
N1268 C1265 1.384 . S
N1269 C1261 1.427 . S
N1269 C1267 1.384 . S
H1270 C1276 0.930 . S
H1271 C1280 0.930 . S
H1272 C1285 0.929 . S
H1273 C1283 0.929 . S
H1274 C1278 0.929 . S
H1275 C1284 0.929 . S
C1276 H1270 0.930 . S
C1276 C1277 1.367 . S
C1276 C1284 1.378 . S
C1277 C1276 1.367 . S
C1277 C1285 1.433 . S
C1278 H1274 0.929 . S
C1278 C1280 1.378 . S
C1278 C1282 1.350 . S
C1279 C1282 1.463 . S
C1279 C1284 1.350 . S
C1279 N1287 1.427 . S
C1280 H1271 0.930 . S
C1280 C1278 1.378 . S
C1280 C1281 1.367 . S
C1281 C1280 1.367 . S
C1281 C1283 1.433 . S
C1282 C1278 1.350 . S
C1282 C1279 1.463 . S
C1282 N1286 1.427 . S
C1283 H1273 0.929 . S
C1283 C1281 1.433 . S
C1283 N1286 1.384 . S
C1284 H1275 0.929 . S
C1284 C1276 1.378 . S
C1284 C1279 1.350 . S
C1285 H1272 0.929 . S
C1285 C1277 1.433 . S
C1285 N1287 1.384 . S
N1286 C1282 1.427 . S
N1286 C1283 1.384 . S
N1287 C1279 1.427 . S
N1287 C1285 1.384 . S
H1288 C1294 0.930 1_455 S
H1289 C1298 0.930 . S
H1290 C1303 0.929 . S
H1291 C1301 0.929 . S
H1292 C1296 0.929 . S
H1293 C1302 0.929 . S
C1294 H1288 0.930 1_655 S
C1294 C1295 1.367 . S
C1294 C1302 1.378 . S
C1295 C1294 1.367 . S
C1295 C1303 1.433 . S
C1296 H1292 0.929 . S
C1296 C1298 1.378 . S
C1296 C1300 1.350 . S
C1297 C1300 1.463 . S
C1297 C1302 1.350 . S
C1297 N1305 1.427 . S
C1298 H1289 0.930 . S
C1298 C1296 1.378 . S
C1298 C1299 1.367 . S
C1299 C1298 1.367 . S
C1299 C1301 1.433 . S
C1300 C1296 1.350 . S
C1300 C1297 1.463 . S
C1300 N1304 1.427 . S
C1301 H1291 0.929 . S
C1301 C1299 1.433 . S
C1301 N1304 1.384 . S
C1302 H1293 0.929 . S
C1302 C1294 1.378 . S
C1302 C1297 1.350 . S
C1303 H1290 0.929 . S
C1303 C1295 1.433 . S
C1303 N1305 1.384 . S
N1304 C1300 1.427 . S
N1304 C1301 1.384 . S
N1305 C1297 1.427 . S
N1305 C1303 1.384 . S
H1306 C1312 0.930 . S
H1307 C1316 0.930 . S
H1308 C1321 0.929 . S
H1309 C1319 0.929 . S
H1310 C1314 0.929 . S
H1311 C1320 0.929 . S
C1312 H1306 0.930 . S
C1312 C1313 1.367 . S
C1312 C1320 1.378 . S
C1313 C1312 1.367 . S
C1313 C1321 1.433 . S
C1314 H1310 0.929 . S
C1314 C1316 1.378 . S
C1314 C1318 1.350 . S
C1315 C1318 1.463 . S
C1315 C1320 1.350 . S
C1315 N1323 1.427 . S
C1316 H1307 0.930 . S
C1316 C1314 1.378 . S
C1316 C1317 1.367 . S
C1317 C1316 1.367 . S
C1317 C1319 1.433 . S
C1318 C1314 1.350 . S
C1318 C1315 1.463 . S
C1318 N1322 1.427 . S
C1319 H1309 0.929 . S
C1319 C1317 1.433 . S
C1319 N1322 1.384 . S
C1320 H1311 0.929 . S
C1320 C1312 1.378 . S
C1320 C1315 1.350 . S
C1321 H1308 0.929 . S
C1321 C1313 1.433 . S
C1321 N1323 1.384 . S
N1322 C1318 1.427 . S
N1322 C1319 1.384 . S
N1323 C1315 1.427 . S
N1323 C1321 1.384 . S
H1324 C1330 0.930 . S
H1325 C1334 0.930 . S
H1326 C1339 0.929 . S
H1327 C1337 0.929 . S
H1328 C1332 0.929 . S
H1329 C1338 0.929 . S
C1330 H1324 0.930 . S
C1330 C1331 1.367 . S
C1330 C1338 1.378 . S
C1331 C1330 1.367 . S
C1331 C1339 1.433 . S
C1332 H1328 0.929 . S
C1332 C1334 1.378 . S
C1332 C1336 1.350 . S
C1333 C1336 1.463 . S
C1333 C1338 1.350 . S
C1333 N1341 1.427 . S
C1334 H1325 0.930 . S
C1334 C1332 1.378 . S
C1334 C1335 1.367 . S
C1335 C1334 1.367 . S
C1335 C1337 1.433 . S
C1336 C1332 1.350 . S
C1336 C1333 1.463 . S
C1336 N1340 1.427 . S
C1337 H1327 0.929 . S
C1337 C1335 1.433 . S
C1337 N1340 1.384 . S
C1338 H1329 0.929 . S
C1338 C1330 1.378 . S
C1338 C1333 1.350 . S
C1339 H1326 0.929 . S
C1339 C1331 1.433 . S
C1339 N1341 1.384 . S
N1340 C1336 1.427 . S
N1340 C1337 1.384 . S
N1341 C1333 1.427 . S
N1341 C1339 1.384 . S
H1342 C1348 0.930 . S
H1343 C1352 0.930 . S
H1344 C1357 0.929 . S
H1345 C1355 0.929 . S
H1346 C1350 0.929 . S
H1347 C1356 0.929 . S
C1348 H1342 0.930 . S
C1348 C1349 1.367 . S
C1348 C1356 1.378 . S
C1349 C1348 1.367 . S
C1349 C1357 1.433 . S
C1350 H1346 0.929 . S
C1350 C1352 1.378 . S
C1350 C1354 1.350 . S
C1351 C1354 1.463 . S
C1351 C1356 1.350 . S
C1351 N1359 1.427 . S
C1352 H1343 0.930 . S
C1352 C1350 1.378 . S
C1352 C1353 1.367 . S
C1353 C1352 1.367 . S
C1353 C1355 1.433 . S
C1354 C1350 1.350 . S
C1354 C1351 1.463 . S
C1354 N1358 1.427 . S
C1355 H1345 0.929 . S
C1355 C1353 1.433 . S
C1355 N1358 1.384 . S
C1356 H1347 0.929 . S
C1356 C1348 1.378 . S
C1356 C1351 1.350 . S
C1357 H1344 0.929 . S
C1357 C1349 1.433 . S
C1357 N1359 1.384 . S
N1358 C1354 1.427 . S
N1358 C1355 1.384 . S
N1359 C1351 1.427 . S
N1359 C1357 1.384 . S
H1360 C1366 0.930 . S
H1361 C1370 0.930 . S
H1362 C1375 0.929 . S
H1363 C1373 0.929 . S
H1364 C1368 0.929 . S
H1365 C1374 0.929 . S
C1366 H1360 0.930 . S
C1366 C1367 1.367 . S
C1366 C1374 1.378 . S
C1367 C1366 1.367 . S
C1367 C1375 1.433 . S
C1368 H1364 0.929 . S
C1368 C1370 1.378 . S
C1368 C1372 1.350 . S
C1369 C1372 1.463 . S
C1369 C1374 1.350 . S
C1369 N1377 1.427 . S
C1370 H1361 0.930 . S
C1370 C1368 1.378 . S
C1370 C1371 1.367 . S
C1371 C1370 1.367 . S
C1371 C1373 1.433 . S
C1372 C1368 1.350 . S
C1372 C1369 1.463 . S
C1372 N1376 1.427 . S
C1373 H1363 0.929 . S
C1373 C1371 1.433 . S
C1373 N1376 1.384 . S
C1374 H1365 0.929 . S
C1374 C1366 1.378 . S
C1374 C1369 1.350 . S
C1375 H1362 0.929 . S
C1375 C1367 1.433 . S
C1375 N1377 1.384 . S
N1376 C1372 1.427 . S
N1376 C1373 1.384 . S
N1377 C1369 1.427 . S
N1377 C1375 1.384 . S
H1378 C1384 0.930 . S
H1379 C1388 0.930 . S
H1380 C1393 0.929 . S
H1381 C1391 0.929 . S
H1382 C1386 0.929 . S
H1383 C1392 0.929 . S
C1384 H1378 0.930 . S
C1384 C1385 1.367 . S
C1384 C1392 1.378 . S
C1385 C1384 1.367 . S
C1385 C1393 1.433 . S
C1386 H1382 0.929 . S
C1386 C1388 1.378 . S
C1386 C1390 1.350 . S
C1387 C1390 1.463 . S
C1387 C1392 1.350 . S
C1387 N1395 1.427 . S
C1388 H1379 0.930 . S
C1388 C1386 1.378 . S
C1388 C1389 1.367 . S
C1389 C1388 1.367 . S
C1389 C1391 1.433 . S
C1390 C1386 1.350 . S
C1390 C1387 1.463 . S
C1390 N1394 1.427 . S
C1391 H1381 0.929 . S
C1391 C1389 1.433 . S
C1391 N1394 1.384 . S
C1392 H1383 0.929 . S
C1392 C1384 1.378 . S
C1392 C1387 1.350 . S
C1393 H1380 0.929 . S
C1393 C1385 1.433 . S
C1393 N1395 1.384 . S
N1394 C1390 1.427 . S
N1394 C1391 1.384 . S
N1395 C1387 1.427 . S
N1395 C1393 1.384 . S
H1396 C1402 0.930 . S
H1397 C1406 0.930 . S
H1398 C1411 0.929 . S
H1399 C1409 0.929 . S
H1400 C1404 0.929 . S
H1401 C1410 0.929 . S
C1402 H1396 0.930 . S
C1402 C1403 1.367 . S
C1402 C1410 1.378 . S
C1403 C1402 1.367 . S
C1403 C1411 1.433 . S
C1404 H1400 0.929 . S
C1404 C1406 1.378 . S
C1404 C1408 1.350 . S
C1405 C1408 1.463 . S
C1405 C1410 1.350 . S
C1405 N1413 1.427 . S
C1406 H1397 0.930 . S
C1406 C1404 1.378 . S
C1406 C1407 1.367 . S
C1407 C1406 1.367 . S
C1407 C1409 1.433 . S
C1408 C1404 1.350 . S
C1408 C1405 1.463 . S
C1408 N1412 1.427 . S
C1409 H1399 0.929 . S
C1409 C1407 1.433 . S
C1409 N1412 1.384 . S
C1410 H1401 0.929 . S
C1410 C1402 1.378 . S
C1410 C1405 1.350 . S
C1411 H1398 0.929 . S
C1411 C1403 1.433 . S
C1411 N1413 1.384 . S
N1412 C1408 1.427 . S
N1412 C1409 1.384 . S
N1413 C1405 1.427 . S
N1413 C1411 1.384 . S
H1414 C1420 0.930 . S
H1415 C1424 0.930 . S
H1416 C1429 0.929 . S
H1417 C1427 0.929 . S
H1418 C1422 0.929 . S
H1419 C1428 0.929 . S
C1420 H1414 0.930 . S
C1420 C1421 1.367 . S
C1420 C1428 1.378 . S
C1421 C1420 1.367 . S
C1421 C1429 1.433 . S
C1422 H1418 0.929 . S
C1422 C1424 1.378 . S
C1422 C1426 1.350 . S
C1423 C1426 1.463 . S
C1423 C1428 1.350 . S
C1423 N1431 1.427 . S
C1424 H1415 0.930 . S
C1424 C1422 1.378 . S
C1424 C1425 1.367 . S
C1425 C1424 1.367 . S
C1425 C1427 1.433 . S
C1426 C1422 1.350 . S
C1426 C1423 1.463 . S
C1426 N1430 1.427 . S
C1427 H1417 0.929 . S
C1427 C1425 1.433 . S
C1427 N1430 1.384 . S
C1428 H1419 0.929 . S
C1428 C1420 1.378 . S
C1428 C1423 1.350 . S
C1429 H1416 0.929 . S
C1429 C1421 1.433 . S
C1429 N1431 1.384 . S
N1430 C1426 1.427 . S
N1430 C1427 1.384 . S
N1431 C1423 1.427 . S
N1431 C1429 1.384 . S
H1432 C1438 0.930 . S
H1433 C1442 0.930 . S
H1434 C1447 0.929 . S
H1435 C1445 0.929 . S
H1436 C1440 0.929 . S
H1437 C1446 0.929 . S
C1438 H1432 0.930 . S
C1438 C1439 1.367 . S
C1438 C1446 1.378 . S
C1439 C1438 1.367 . S
C1439 C1447 1.433 . S
C1440 H1436 0.929 . S
C1440 C1442 1.378 . S
C1440 C1444 1.350 . S
C1441 C1444 1.463 . S
C1441 C1446 1.350 . S
C1441 N1449 1.427 . S
C1442 H1433 0.930 . S
C1442 C1440 1.378 . S
C1442 C1443 1.367 . S
C1443 C1442 1.367 . S
C1443 C1445 1.433 . S
C1444 C1440 1.350 . S
C1444 C1441 1.463 . S
C1444 N1448 1.427 . S
C1445 H1435 0.929 . S
C1445 C1443 1.433 . S
C1445 N1448 1.384 . S
C1446 H1437 0.929 . S
C1446 C1438 1.378 . S
C1446 C1441 1.350 . S
C1447 H1434 0.929 . S
C1447 C1439 1.433 . S
C1447 N1449 1.384 . S
N1448 C1444 1.427 . S
N1448 C1445 1.384 . S
N1449 C1441 1.427 . S
N1449 C1447 1.384 . S
H1450 C1456 0.930 . S
H1451 C1460 0.930 . S
H1452 C1465 0.929 . S
H1453 C1463 0.929 . S
H1454 C1458 0.929 . S
H1455 C1464 0.929 . S
C1456 H1450 0.930 . S
C1456 C1457 1.367 . S
C1456 C1464 1.378 . S
C1457 C1456 1.367 . S
C1457 C1465 1.433 . S
C1458 H1454 0.929 . S
C1458 C1460 1.378 . S
C1458 C1462 1.350 . S
C1459 C1462 1.463 . S
C1459 C1464 1.350 . S
C1459 N1467 1.427 . S
C1460 H1451 0.930 . S
C1460 C1458 1.378 . S
C1460 C1461 1.367 . S
C1461 C1460 1.367 . S
C1461 C1463 1.433 . S
C1462 C1458 1.350 . S
C1462 C1459 1.463 . S
C1462 N1466 1.427 . S
C1463 H1453 0.929 . S
C1463 C1461 1.433 . S
C1463 N1466 1.384 . S
C1464 H1455 0.929 . S
C1464 C1456 1.378 . S
C1464 C1459 1.350 . S
C1465 H1452 0.929 . S
C1465 C1457 1.433 . S
C1465 N1467 1.384 . S
N1466 C1462 1.427 . S
N1466 C1463 1.384 . S
N1467 C1459 1.427 . S
N1467 C1465 1.384 . S
H1468 C1474 0.930 . S
H1469 C1478 0.930 . S
H1470 C1483 0.929 . S
H1471 C1481 0.929 . S
H1472 C1476 0.929 . S
H1473 C1482 0.929 . S
C1474 H1468 0.930 . S
C1474 C1475 1.367 . S
C1474 C1482 1.378 . S
C1475 C1474 1.367 . S
C1475 C1483 1.433 . S
C1476 H1472 0.929 . S
C1476 C1478 1.378 . S
C1476 C1480 1.350 . S
C1477 C1480 1.463 . S
C1477 C1482 1.350 . S
C1477 N1485 1.427 . S
C1478 H1469 0.930 . S
C1478 C1476 1.378 . S
C1478 C1479 1.367 . S
C1479 C1478 1.367 . S
C1479 C1481 1.433 . S
C1480 C1476 1.350 . S
C1480 C1477 1.463 . S
C1480 N1484 1.427 . S
C1481 H1471 0.929 . S
C1481 C1479 1.433 . S
C1481 N1484 1.384 . S
C1482 H1473 0.929 . S
C1482 C1474 1.378 . S
C1482 C1477 1.350 . S
C1483 H1470 0.929 . S
C1483 C1475 1.433 . S
C1483 N1485 1.384 . S
N1484 C1480 1.427 . S
N1484 C1481 1.384 . S
N1485 C1477 1.427 . S
N1485 C1483 1.384 . S
H1486 C1492 0.930 . S
H1487 C1496 0.930 . S
H1488 C1501 0.929 . S
H1489 C1499 0.929 . S
H1490 C1494 0.929 . S
H1491 C1500 0.929 . S
C1492 H1486 0.930 . S
C1492 C1493 1.367 . S
C1492 C1500 1.378 . S
C1493 C1492 1.367 . S
C1493 C1501 1.433 . S
C1494 H1490 0.929 . S
C1494 C1496 1.378 . S
C1494 C1498 1.350 . S
C1495 C1498 1.463 . S
C1495 C1500 1.350 . S
C1495 N1503 1.427 . S
C1496 H1487 0.930 . S
C1496 C1494 1.378 . S
C1496 C1497 1.367 . S
C1497 C1496 1.367 . S
C1497 C1499 1.433 . S
C1498 C1494 1.350 . S
C1498 C1495 1.463 . S
C1498 N1502 1.427 . S
C1499 H1489 0.929 . S
C1499 C1497 1.433 . S
C1499 N1502 1.384 . S
C1500 H1491 0.929 . S
C1500 C1492 1.378 . S
C1500 C1495 1.350 . S
C1501 H1488 0.929 . S
C1501 C1493 1.433 . S
C1501 N1503 1.384 . S
N1502 C1498 1.427 . S
N1502 C1499 1.384 . S
N1503 C1495 1.427 . S
N1503 C1501 1.384 . S
C647 C139 1.770 . S
C651 C9 1.783 . S
C665 C6 0.240 . S
C669 C55 0.188 . S
C683 C89 0.547 . S
C687 C58 0.575 . S
C701 C126 0.662 . S
C705 C86 0.660 . S
C719 C166 1.906 . S
C723 C210 1.852 . S
C737 C218 0.693 . S
C741 C258 0.694 . S
C755 C255 2.940 . S
C759 C290 2.903 . S
C773 C179 1.657 . S
C777 C298 1.659 . S
C791 C375 2.170 . S
C795 C19 2.162 . S
C809 C410 1.338 . S
C813 C50 1.293 . S
C827 C99 2.114 . S
C831 C535 2.097 . S
C845 C329 0.872 . S
C849 C129 0.888 . S
C863 C449 0.684 . S
C867 C169 0.705 . S
C881 C575 0.921 . S
C885 C215 0.928 . S
C899 C250 2.009 . S
C903 C490 2.049 . S
C917 C619 2.231 . S
C921 C295 2.251 . S
C935 C339 1.817 . S
C939 C538 1.832 . S
C953 C370 2.510 . S
C957 C326 2.547 . S
C971 C418 1.162 . S
C975 C378 1.180 . S
C989 C578 1.702 . S
C993 C459 1.685 . S
C1007 C498 1.254 . S
C1011 C609 1.241 . S
C1025 C450 1.771 . S
C1029 C18 1.781 . S
C1043 C486 0.192 . S
C1047 C15 0.283 . S
C1061 C489 0.597 . S
C1065 C98 0.523 . S
C1079 C95 0.658 . S
C1083 C455 0.662 . S
C1097 C379 1.844 . S
C1101 C175 1.908 . S
C1115 C369 0.665 . S
C1119 C249 0.667 . S
C1133 C539 2.903 . S
C1137 C246 2.945 . S
C1151 C170 1.655 . S
C1155 C529 1.657 . S
C1169 C206 2.173 . S
C1173 C10 2.168 . S
C1187 C419 1.341 . S
C1191 C499 1.310 . S
C1205 C90 2.112 . S
C1209 C286 2.100 . S
C1223 C338 0.867 . S
C1227 C458 0.887 . S
C1241 C138 0.700 . S
C1245 C178 0.680 . S
C1259 C366 0.934 . S
C1263 C566 0.923 . S
C1277 C259 2.015 . S
C1281 C59 2.046 . S
C1295 C610 2.238 . S
C1299 C526 2.251 . S
C1313 C330 1.815 . S
C1317 C289 1.825 . S
C1331 C335 2.551 . S
C1335 C219 2.513 . S
C1349 C409 1.171 . S
C1353 C209 1.178 . S
C1367 C130 1.694 . S
C1371 C569 1.709 . S
C1385 C49 1.258 . S
C1389 C618 1.230 . S
C1403 C495 1.187 . S
C1407 C570 1.172 . S
C1421 C446 0.667 . S
C1425 C606 0.654 . S
C1439 C415 3.018 . S
C1443 C530 2.982 . S
C1457 C579 1.169 . S
C1461 C46 1.190 . S
C1475 C135 0.622 . S
C1479 C615 0.613 . S
C1493 C299 2.986 . S
C1497 C406 3.018 . S
