# Generated by pormake.
# Topology umw, (4)-cn, num edge types: 1
# Building blocks:
#     Node 0, Type 0, BuildingBlock: ICAMEG_clean_sbu_1, # of connection points: 4
#     Node 1, Type 0, BuildingBlock: ICAMEG_clean_sbu_1, # of connection points: 4
#     Node 2, Type 0, BuildingBlock: ICAMEG_clean_sbu_1, # of connection points: 4
#     Node 3, Type 0, BuildingBlock: ICAMEG_clean_sbu_1, # of connection points: 4
#     Node 4, Type 0, BuildingBlock: ICAMEG_clean_sbu_1, # of connection points: 4
#     Node 5, Type 0, BuildingBlock: ICAMEG_clean_sbu_1, # of connection points: 4
#     Node 6, Type 0, BuildingBlock: ICAMEG_clean_sbu_1, # of connection points: 4
#     Node 7, Type 0, BuildingBlock: ICAMEG_clean_sbu_1, # of connection points: 4
#     Edge 8, Type (0, 0), BuildingBlock: OJICUG_clean_linker_0, # of connection points: 2
#     Edge 9, Type (0, 0), BuildingBlock: OJICUG_clean_linker_0, # of connection points: 2
#     Edge 10, Type (0, 0), BuildingBlock: OJICUG_clean_linker_0, # of connection points: 2
#     Edge 11, Type (0, 0), BuildingBlock: OJICUG_clean_linker_0, # of connection points: 2
#     Edge 12, Type (0, 0), BuildingBlock: OJICUG_clean_linker_0, # of connection points: 2
#     Edge 13, Type (0, 0), BuildingBlock: OJICUG_clean_linker_0, # of connection points: 2
#     Edge 14, Type (0, 0), BuildingBlock: OJICUG_clean_linker_0, # of connection points: 2
#     Edge 15, Type (0, 0), BuildingBlock: OJICUG_clean_linker_0, # of connection points: 2
#     Edge 16, Type (0, 0), BuildingBlock: OJICUG_clean_linker_0, # of connection points: 2
#     Edge 17, Type (0, 0), BuildingBlock: OJICUG_clean_linker_0, # of connection points: 2
#     Edge 18, Type (0, 0), BuildingBlock: OJICUG_clean_linker_0, # of connection points: 2
#     Edge 19, Type (0, 0), BuildingBlock: OJICUG_clean_linker_0, # of connection points: 2
#     Edge 20, Type (0, 0), BuildingBlock: OJICUG_clean_linker_0, # of connection points: 2
#     Edge 21, Type (0, 0), BuildingBlock: OJICUG_clean_linker_0, # of connection points: 2
#     Edge 22, Type (0, 0), BuildingBlock: OJICUG_clean_linker_0, # of connection points: 2
#     Edge 23, Type (0, 0), BuildingBlock: OJICUG_clean_linker_0, # of connection points: 2
# Relax obj value: 0.114
# Max RMSD: 0.126
# Mean RMSD: 0.126
data_MOF--net-umw--node1-ICAMEG_clean_sbu_1--edge1-OJICUG_clean_linker_0
_symmetry_space_group_name_H-M    P1
_symmetry_Int_Tables_number       1
_symmetry_cell_setting            triclinic
loop_
_symmetry_equiv_pos_as_xyz
'x, y, z'
_cell_length_a     31.692518
_cell_length_b     31.697775
_cell_length_c     22.025383
_cell_angle_alpha  89.884116
_cell_angle_beta   89.926138
_cell_angle_gamma 89.956159
loop_
_atom_site_label
_atom_site_type_symbol
_atom_site_fract_x
_atom_site_fract_y
_atom_site_fract_z
_atom_type_partial_charge
Co0 Co 0.48143 0.19769 0.29995 0.0
Co1 Co 0.38125 0.17787 0.35699 0.0
O2 O 0.42025 0.20779 0.30296 0.0
C3 C 0.45416 0.17214 0.17809 0.0
O4 O 0.42202 0.15361 0.20461 0.0
C5 C 0.36783 0.26875 0.39152 0.0
O6 O 0.40805 0.2766 0.38277 0.0
O7 O 0.42073 0.18333 0.42691 0.0
O8 O 0.48463 0.20006 0.38961 0.0
H9 H 0.3423 0.06958 0.51421 0.0
H10 H 0.44426 0.26575 0.22477 0.0
O11 O 0.47986 0.19403 0.20926 0.0
H12 H 0.54322 0.33709 0.36329 0.0
H13 H 0.62792 0.2185 0.21645 0.0
H14 H 0.54171 0.14553 0.37076 0.0
H15 H 0.53466 0.25977 0.36669 0.0
H16 H 0.55099 0.22998 0.22136 0.0
O17 O 0.353 0.23203 0.38159 0.0
H18 H 0.39041 0.1078 0.4453 0.0
H19 H 0.28902 0.18432 0.38356 0.0
H20 H 0.61856 0.13343 0.36781 0.0
H21 H 0.45207 0.34313 0.21948 0.0
H22 H 0.66221 0.17006 0.29023 0.0
H23 H 0.50177 0.37928 0.28921 0.0
O24 O 0.47436 0.13491 0.30444 0.0
H25 H 0.30035 0.23104 0.17644 0.0
H26 H 0.33179 0.1069 0.30387 0.0
H27 H 0.28429 0.09932 0.21593 0.0
H28 H 0.26821 0.16175 0.15161 0.0
H29 H 0.3481 0.23703 0.26443 0.0
H30 H 0.23991 0.14718 0.45217 0.0
H31 H 0.26646 0.08924 0.51795 0.0
O32 O 0.4076 0.12301 0.33448 0.0
C33 C 0.45976 0.19213 0.43355 0.0
C34 C 0.33033 0.09468 0.48563 0.0
C35 C 0.27287 0.13828 0.45088 0.0
N36 N 0.3425 0.14806 0.41016 0.0
C37 C 0.35739 0.11636 0.4464 0.0
C38 C 0.30086 0.15926 0.41222 0.0
C39 C 0.28779 0.10576 0.48776 0.0
C40 C 0.4662 0.28126 0.25489 0.0
N41 N 0.48911 0.2583 0.29577 0.0
C42 C 0.47038 0.32508 0.25185 0.0
C43 C 0.49824 0.34535 0.29104 0.0
C44 C 0.52148 0.32169 0.33265 0.0
C45 C 0.51643 0.27794 0.33446 0.0
C46 C 0.60925 0.20242 0.25054 0.0
C47 C 0.56052 0.16178 0.33709 0.0
C48 C 0.56567 0.20873 0.25347 0.0
N49 N 0.54194 0.18871 0.29662 0.0
C50 C 0.60401 0.15471 0.33554 0.0
C51 C 0.62847 0.17525 0.29196 0.0
C52 C 0.44381 0.11023 0.31723 0.0
C53 C 0.30707 0.20363 0.20416 0.0
C54 C 0.32516 0.13411 0.27584 0.0
C55 C 0.29812 0.12968 0.22625 0.0
C56 C 0.28909 0.16473 0.19021 0.0
N57 N 0.34266 0.17236 0.28922 0.0
C58 C 0.33397 0.20686 0.25412 0.0
Co59 Co 0.80931 0.49219 0.54836 0.0
Co60 Co 0.83234 0.38975 0.59315 0.0
O61 O 0.79938 0.4309 0.5464 0.0
C62 C 0.82846 0.47034 0.42187 0.0
O63 O 0.84456 0.43477 0.44178 0.0
C64 C 0.74385 0.37416 0.63874 0.0
O65 O 0.73469 0.41442 0.6338 0.0
O66 O 0.83172 0.42657 0.6667 0.0
O67 O 0.80958 0.49083 0.6375 0.0
H68 H 0.95041 0.34478 0.73093 0.0
H69 H 0.73907 0.45823 0.47476 0.0
O70 O 0.81024 0.49558 0.45814 0.0
H71 H 0.67181 0.55022 0.62714 0.0
H72 H 0.7854 0.64251 0.48224 0.0
H73 H 0.86355 0.54889 0.62151 0.0
H74 H 0.74919 0.54194 0.62431 0.0
H75 H 0.77425 0.56552 0.47978 0.0
O76 O 0.78004 0.36046 0.62292 0.0
H77 H 0.90785 0.39548 0.67194 0.0
H78 H 0.82748 0.29658 0.6129 0.0
H79 H 0.87534 0.62572 0.62591 0.0
H80 H 0.66156 0.46585 0.47563 0.0
H81 H 0.83611 0.67309 0.5559 0.0
H82 H 0.62746 0.51205 0.55234 0.0
O83 O 0.87236 0.4853 0.54733 0.0
H84 H 0.76728 0.31581 0.4149 0.0
H85 H 0.89943 0.34272 0.52618 0.0
H86 H 0.90102 0.29873 0.43396 0.0
H87 H 0.83457 0.28495 0.37772 0.0
H88 H 0.76725 0.36004 0.50699 0.0
H89 H 0.8689 0.24488 0.67175 0.0
H90 H 0.93097 0.26887 0.73112 0.0
O91 O 0.88542 0.41675 0.56529 0.0
C92 C 0.82154 0.4648 0.6778 0.0
C93 C 0.92348 0.33392 0.70514 0.0
C94 C 0.87771 0.27787 0.67199 0.0
N95 N 0.86534 0.349 0.63877 0.0
C96 C 0.89933 0.36247 0.67152 0.0
C97 C 0.8543 0.30731 0.63889 0.0
C98 C 0.91254 0.29134 0.70527 0.0
C99 C 0.72444 0.47864 0.50794 0.0
N100 N 0.74859 0.49976 0.54923 0.0
C101 C 0.68055 0.48272 0.50837 0.0
C102 C 0.66144 0.50861 0.55147 0.0
C103 C 0.6863 0.53002 0.59347 0.0
C104 C 0.73009 0.52513 0.59174 0.0
C105 C 0.80263 0.6222 0.51304 0.0
C106 C 0.84617 0.56931 0.59113 0.0
C107 C 0.79652 0.57858 0.51177 0.0
N108 N 0.81801 0.55276 0.55075 0.0
C109 C 0.85307 0.61278 0.59372 0.0
C110 C 0.83108 0.63934 0.5544 0.0
C111 C 0.89745 0.45396 0.55215 0.0
C112 C 0.79643 0.32153 0.43906 0.0
C113 C 0.87044 0.33705 0.50177 0.0
C114 C 0.8715 0.312 0.44969 0.0
C115 C 0.8342 0.30426 0.41819 0.0
N116 N 0.83326 0.35384 0.52197 0.0
C117 C 0.79657 0.3464 0.49133 0.0
Co118 Co 0.52415 0.81041 0.80052 0.0
Co119 Co 0.62659 0.83217 0.84625 0.0
O120 O 0.58531 0.7996 0.79948 0.0
C121 C 0.54691 0.82681 0.67366 0.0
O122 O 0.58236 0.8434 0.69294 0.0
C123 C 0.64092 0.74297 0.8903 0.0
O124 O 0.60083 0.73404 0.88279 0.0
O125 O 0.58937 0.83229 0.91956 0.0
O126 O 0.52476 0.81226 0.88941 0.0
H127 H 0.67231 0.95023 0.98303 0.0
H128 H 0.5578 0.73831 0.73016 0.0
O129 O 0.52145 0.80954 0.71058 0.0
H130 H 0.46362 0.67526 0.88387 0.0
H131 H 0.37399 0.78743 0.73376 0.0
H132 H 0.46763 0.86684 0.8708 0.0
H133 H 0.4729 0.75241 0.87807 0.0
H134 H 0.45083 0.7751 0.73262 0.0
O135 O 0.65505 0.77946 0.87673 0.0
H136 H 0.62138 0.90816 0.92408 0.0
H137 H 0.71953 0.82586 0.8671 0.0
H138 H 0.39093 0.87987 0.87383 0.0
H139 H 0.54918 0.66098 0.73401 0.0
H140 H 0.34355 0.84001 0.80494 0.0
H141 H 0.50189 0.62899 0.81141 0.0
O142 O 0.53199 0.87335 0.79715 0.0
H143 H 0.70079 0.76555 0.66904 0.0
H144 H 0.67484 0.89836 0.77918 0.0
H145 H 0.71946 0.89906 0.68734 0.0
H146 H 0.73277 0.83227 0.63169 0.0
H147 H 0.65597 0.76641 0.76072 0.0
H148 H 0.77142 0.86679 0.92592 0.0
H149 H 0.74793 0.92959 0.98422 0.0
O150 O 0.60032 0.88562 0.81766 0.0
C151 C 0.55073 0.82339 0.93002 0.0
C152 C 0.68295 0.923 0.95769 0.0
C153 C 0.73856 0.87613 0.9257 0.0
N154 N 0.66748 0.86474 0.89191 0.0
C155 C 0.65428 0.89912 0.92409 0.0
C156 C 0.709 0.85301 0.89261 0.0
C157 C 0.72536 0.91137 0.95838 0.0
C158 C 0.5369 0.72461 0.76363 0.0
N159 N 0.51576 0.74983 0.80367 0.0
C160 C 0.53226 0.68082 0.76574 0.0
C161 C 0.50576 0.66288 0.80923 0.0
C162 C 0.4843 0.68882 0.84993 0.0
C163 C 0.48977 0.73248 0.84653 0.0
C164 C 0.3943 0.80495 0.76406 0.0
C165 C 0.4472 0.84921 0.8409 0.0
C166 C 0.43785 0.79818 0.76353 0.0
N167 N 0.46368 0.82004 0.80188 0.0
C168 C 0.4038 0.8568 0.84272 0.0
C169 C 0.37724 0.83445 0.80403 0.0
C170 C 0.56354 0.89806 0.80277 0.0
C171 C 0.6953 0.79484 0.69296 0.0
C172 C 0.68031 0.86923 0.75502 0.0
C173 C 0.70571 0.86979 0.70316 0.0
C174 C 0.71319 0.83229 0.67199 0.0
N175 N 0.66293 0.83235 0.77534 0.0
C176 C 0.67008 0.79548 0.745 0.0
Co177 Co 0.2041 0.52388 0.04376 0.0
Co178 Co 0.18499 0.627 0.08769 0.0
O179 O 0.21611 0.58472 0.04064 0.0
C180 C 0.18394 0.54659 0.9177 0.0
O181 O 0.17 0.58302 0.93759 0.0
C182 C 0.27507 0.63876 0.12939 0.0
O183 O 0.28378 0.599 0.11841 0.0
O184 O 0.18388 0.58986 0.16103 0.0
O185 O 0.20602 0.52548 0.13282 0.0
H186 H 0.06873 0.67655 0.22558 0.0
H187 H 0.2738 0.55515 0.96617 0.0
O188 O 0.20105 0.52039 0.95375 0.0
H189 H 0.34117 0.46104 0.11604 0.0
H190 H 0.22104 0.37271 0.97804 0.0
H191 H 0.14959 0.4693 0.12025 0.0
H192 H 0.26413 0.47216 0.11715 0.0
H193 H 0.23492 0.44923 0.97423 0.0
O194 O 0.23853 0.65365 0.11801 0.0
H195 H 0.10901 0.62429 0.16626 0.0
H196 H 0.19426 0.71965 0.10841 0.0
H197 H 0.1351 0.39297 0.12602 0.0
H198 H 0.35095 0.54466 0.96308 0.0
H199 H 0.17095 0.3441 0.05454 0.0
H200 H 0.38511 0.49739 0.03851 0.0
O201 O 0.1413 0.53303 0.04589 0.0
H202 H 0.25357 0.69935 0.91013 0.0
H203 H 0.12008 0.67702 0.02083 0.0
H204 H 0.12058 0.72175 0.92906 0.0
H205 H 0.18772 0.73324 0.87313 0.0
H206 H 0.2515 0.65448 0.00176 0.0
H207 H 0.15514 0.77284 0.16761 0.0
H208 H 0.09177 0.75143 0.22654 0.0
O209 O 0.13076 0.6024 0.05977 0.0
C210 C 0.19401 0.55169 0.17272 0.0
C211 C 0.09622 0.68629 0.19995 0.0
C212 C 0.14475 0.74032 0.16748 0.0
N213 N 0.15379 0.66893 0.13358 0.0
C214 C 0.11909 0.65686 0.16613 0.0
C215 C 0.16683 0.71003 0.13416 0.0
C216 C 0.10919 0.72829 0.20052 0.0
C217 C 0.28844 0.53426 -0.0012 0.0
N218 N 0.26451 0.51414 0.04158 0.0
C219 C 0.33213 0.52856 -0.00302 0.0
C220 C 0.35128 0.50208 0.03937 0.0
C221 C 0.32665 0.48169 0.0829 0.0
C222 C 0.28306 0.48819 0.0834 0.0
C223 C 0.20528 0.39367 0.00951 0.0
C224 C 0.16551 0.44821 0.08922 0.0
C225 C 0.21295 0.43704 0.00748 0.0
N226 N 0.19331 0.46368 0.04727 0.0
C227 C 0.15708 0.40503 0.0926 0.0
C228 C 0.17718 0.37764 0.05245 0.0
C229 C 0.11728 0.56529 0.04936 0.0
C230 C 0.22414 0.69468 0.93419 0.0
C231 C 0.14937 0.68174 -0.00341 0.0
C232 C 0.14949 0.70719 0.94476 0.0
C233 C 0.18717 0.71364 0.91342 0.0
N234 N 0.18578 0.66334 0.01675 0.0
C235 C 0.22282 0.66945 -0.01377 0.0
Co236 Co 0.51202 0.85114 0.29699 0.0
Co237 Co 0.4077 0.8516 0.25303 0.0
O238 O 0.45414 0.82869 0.30171 0.0
C239 C 0.49361 0.85262 0.42743 0.0
O240 O 0.45632 0.86831 0.41456 0.0
C241 C 0.39712 0.76066 0.21684 0.0
O242 O 0.43678 0.75898 0.19964 0.0
O243 O 0.44158 0.84387 0.17782 0.0
O244 O 0.50718 0.85964 0.20846 0.0
H245 H 0.34529 0.94322 0.08985 0.0
H246 H 0.49582 0.76834 0.35514 0.0
O247 O 0.5193 0.8431 0.3855 0.0
H248 H 0.59459 0.73873 0.18732 0.0
H249 H 0.66667 0.85431 0.34934 0.0
H250 H 0.55261 0.92316 0.2336 0.0
H251 H 0.57074 0.8114 0.20755 0.0
H252 H 0.59413 0.82629 0.35299 0.0
O253 O 0.38263 0.79379 0.24223 0.0
H254 H 0.40245 0.91436 0.15354 0.0
H255 H 0.31465 0.83687 0.24747 0.0
H256 H 0.62476 0.95201 0.22829 0.0
H257 H 0.51918 0.69518 0.33687 0.0
H258 H 0.6824 0.91752 0.28645 0.0
H259 H 0.56885 0.68 0.25235 0.0
O260 O 0.49175 0.90982 0.31127 0.0
H261 H 0.34922 0.80471 0.45403 0.0
H262 H 0.3564 0.92164 0.30655 0.0
H263 H 0.31692 0.93128 0.40201 0.0
H264 H 0.31307 0.87247 0.47653 0.0
H265 H 0.38885 0.79672 0.35821 0.0
H266 H 0.25662 0.86447 0.18435 0.0
H267 H 0.27176 0.91821 0.10503 0.0
O268 O 0.42981 0.91038 0.26231 0.0
C269 C 0.48047 0.85128 0.16732 0.0
C270 C 0.33828 0.91987 0.12432 0.0
C271 C 0.28853 0.87563 0.1773 0.0
N272 N 0.36189 0.87403 0.20427 0.0
C273 C 0.3705 0.90347 0.1606 0.0
C274 C 0.32155 0.85997 0.21274 0.0
C275 C 0.29704 0.90579 0.13283 0.0
C276 C 0.51765 0.762 0.31854 0.0
N277 N 0.53198 0.79412 0.2826 0.0
C278 C 0.53068 0.72051 0.3083 0.0
C279 C 0.55851 0.71201 0.26083 0.0
C280 C 0.57295 0.74494 0.22431 0.0
C281 C 0.55924 0.78602 0.23589 0.0
C282 C 0.64184 0.86957 0.32371 0.0
C283 C 0.57756 0.90782 0.25878 0.0
C284 C 0.60068 0.8539 0.32569 0.0
N285 N 0.5692 0.87289 0.29321 0.0
C286 C 0.61834 0.92437 0.25571 0.0
C287 C 0.65065 0.90503 0.2884 0.0
C288 C 0.46002 0.92922 0.28917 0.0
C289 C 0.35063 0.83056 0.42191 0.0
C290 C 0.35522 0.89609 0.33893 0.0
C291 C 0.33261 0.90163 0.3928 0.0
C292 C 0.33041 0.8686 0.43455 0.0
N293 N 0.37506 0.85873 0.32692 0.0
C294 C 0.37289 0.82616 0.36751 0.0
Co295 Co 0.15865 0.5148 0.54064 0.0
Co296 Co 0.155 0.41109 0.4953 0.0
O297 O 0.17834 0.45594 0.54629 0.0
C298 C 0.15353 0.49621 0.67121 0.0
O299 O 0.13655 0.45966 0.6577 0.0
C300 C 0.24661 0.39581 0.46699 0.0
O301 O 0.25101 0.43548 0.45088 0.0
O302 O 0.16785 0.44474 0.42142 0.0
O303 O 0.15229 0.51052 0.45145 0.0
H304 H 0.06727 0.35458 0.32401 0.0
H305 H 0.23914 0.49467 0.6026 0.0
O306 O 0.16477 0.52157 0.62965 0.0
H307 H 0.2773 0.59251 0.43707 0.0
H308 H 0.16081 0.66933 0.59349 0.0
H309 H 0.09018 0.55867 0.47389 0.0
H310 H 0.20319 0.57194 0.45361 0.0
H311 H 0.18553 0.5956 0.59826 0.0
O312 O 0.21172 0.38283 0.4891 0.0
H313 H 0.09648 0.40979 0.39057 0.0
H314 H 0.16481 0.31742 0.48997 0.0
H315 H 0.06467 0.63206 0.4674 0.0
H316 H 0.31368 0.51474 0.58802 0.0
H317 H 0.10007 0.68799 0.5275 0.0
H318 H 0.33316 0.56392 0.50467 0.0
O319 O 0.09883 0.49707 0.552 0.0
H320 H 0.18964 0.34865 0.69888 0.0
H321 H 0.07965 0.36442 0.5424 0.0
H322 H 0.06358 0.32518 0.63634 0.0
H323 H 0.11886 0.317 0.71537 0.0
H324 H 0.20413 0.38817 0.60448 0.0
H325 H 0.13672 0.26126 0.42412 0.0
H326 H 0.08742 0.2797 0.34057 0.0
O327 O 0.09721 0.43656 0.49971 0.0
C328 C 0.1619 0.48384 0.41074 0.0
C329 C 0.08867 0.34614 0.36032 0.0
C330 C 0.12769 0.29377 0.41645 0.0
N331 N 0.13222 0.36683 0.44422 0.0
C332 C 0.10525 0.37725 0.39822 0.0
C333 C 0.14362 0.32572 0.45346 0.0
C334 C 0.10001 0.30413 0.36961 0.0
C335 C 0.24736 0.51631 0.56649 0.0
N336 N 0.21682 0.53219 0.52914 0.0
C337 C 0.28962 0.52747 0.55835 0.0
C338 C 0.30054 0.55503 0.51153 0.0
C339 C 0.26922 0.57107 0.47357 0.0
C340 C 0.2273 0.5592 0.48306 0.0
C341 C 0.14517 0.64526 0.567 0.0
C342 C 0.10591 0.58286 0.49993 0.0
C343 C 0.15897 0.60343 0.56962 0.0
N344 N 0.1395 0.57289 0.53605 0.0
C345 C 0.09125 0.62435 0.49618 0.0
C346 C 0.1111 0.65571 0.52996 0.0
C347 C 0.07879 0.46695 0.52689 0.0
C348 C 0.16531 0.35193 0.66475 0.0
C349 C 0.10374 0.36131 0.57672 0.0
C350 C 0.09453 0.33887 0.62973 0.0
C351 C 0.12557 0.33424 0.67401 0.0
N352 N 0.14276 0.37865 0.56802 0.0
C353 C 0.17339 0.37413 0.61113 0.0
Co354 Co 0.51072 0.16205 0.80429 0.0
Co355 Co 0.61171 0.15494 0.74552 0.0
O356 O 0.57081 0.17733 0.80406 0.0
C357 C 0.49486 0.1332 0.9289 0.0
O358 O 0.47958 0.09876 0.90421 0.0
C359 C 0.62483 0.24737 0.72225 0.0
O360 O 0.58399 0.25218 0.71488 0.0
O361 O 0.57398 0.16954 0.67634 0.0
O362 O 0.50866 0.16261 0.71438 0.0
H363 H 0.65622 0.06993 0.56414 0.0
H364 H 0.53993 0.2351 0.87663 0.0
O365 O 0.51135 0.16165 0.89541 0.0
H366 H 0.43788 0.29387 0.73025 0.0
H367 H 0.35932 0.1739 0.87351 0.0
H368 H 0.45835 0.10076 0.73654 0.0
H369 H 0.4533 0.21767 0.73182 0.0
H370 H 0.43491 0.19235 0.87302 0.0
O371 O 0.6398 0.21159 0.73787 0.0
H372 H 0.60582 0.09808 0.63931 0.0
H373 H 0.70458 0.16476 0.727 0.0
H374 H 0.38301 0.08136 0.73553 0.0
H375 H 0.52504 0.31148 0.87706 0.0
H376 H 0.33293 0.11803 0.8044 0.0
H377 H 0.47376 0.34134 0.80339 0.0
O378 O 0.52502 0.10048 0.80324 0.0
H379 H 0.68739 0.18429 0.94109 0.0
H380 H 0.6608 0.07842 0.78207 0.0
H381 H 0.70628 0.05997 0.86887 0.0
H382 H 0.71998 0.1132 0.94908 0.0
H383 H 0.64162 0.20117 0.85374 0.0
H384 H 0.75598 0.1377 0.65244 0.0
H385 H 0.7319 0.08978 0.5704 0.0
O386 O 0.58593 0.09754 0.75143 0.0
C387 C 0.53397 0.1687 0.67042 0.0
C388 C 0.66712 0.09072 0.59974 0.0
C389 C 0.72309 0.1288 0.64924 0.0
N390 N 0.65227 0.1329 0.68762 0.0
C391 C 0.63875 0.10668 0.64251 0.0
C392 C 0.69382 0.14415 0.69121 0.0
C393 C 0.70956 0.1019 0.60325 0.0
C394 C 0.51728 0.24779 0.8448 0.0
N395 N 0.49733 0.22185 0.80455 0.0
C396 C 0.50911 0.29109 0.8451 0.0
C397 C 0.48038 0.30784 0.80369 0.0
C398 C 0.46026 0.28123 0.76262 0.0
C399 C 0.46923 0.23809 0.76361 0.0
C400 C 0.38082 0.15772 0.84325 0.0
C401 C 0.43675 0.11689 0.76661 0.0
C402 C 0.42365 0.16806 0.84272 0.0
N403 N 0.45105 0.14768 0.80471 0.0
C404 C 0.39413 0.10577 0.76584 0.0
C405 C 0.36604 0.12636 0.80448 0.0
C406 C 0.55454 0.07982 0.77729 0.0
C407 C 0.68169 0.16084 0.90641 0.0
C408 C 0.66628 0.1016 0.81701 0.0
C409 C 0.69224 0.09105 0.86594 0.0
C410 C 0.69993 0.12093 0.9109 0.0
N411 N 0.64852 0.14081 0.81289 0.0
C412 C 0.65589 0.17025 0.85681 0.0
Co413 Co 0.85602 0.50425 0.04514 0.0
Co414 Co 0.8579 0.60781 -0.00192 0.0
O415 O 0.83531 0.56279 0.04989 0.0
C416 C 0.85944 0.52322 0.176 0.0
O417 O 0.8751 0.56046 0.16285 0.0
C418 C 0.76585 0.62072 0.97027 0.0
O419 O 0.76226 0.58063 0.95625 0.0
O420 O 0.84588 0.57349 0.92476 0.0
O421 O 0.86259 0.5082 0.95588 0.0
H422 H 0.94501 0.66491 0.8259 0.0
H423 H 0.77503 0.52329 0.10656 0.0
O424 O 0.8497 0.49756 0.13424 0.0
H425 H 0.73901 0.42398 0.94257 0.0
H426 H 0.85646 0.34989 0.10011 0.0
H427 H 0.92553 0.46136 0.97927 0.0
H428 H 0.81272 0.44591 0.95891 0.0
H429 H 0.83035 0.42315 0.10369 0.0
O430 O 0.8006 0.63491 -0.00889 0.0
H431 H 0.91677 0.60959 0.89358 0.0
H432 H 0.84615 0.70122 -0.0092 0.0
H433 H 0.95244 0.38844 0.97398 0.0
H434 H 0.70089 0.50188 0.09218 0.0
H435 H 0.91783 0.33211 0.03471 0.0
H436 H 0.68248 0.45195 0.00959 0.0
O437 O 0.91549 0.52313 0.05633 0.0
H438 H 0.82126 0.67099 0.20023 0.0
H439 H 0.93206 0.65643 0.0444 0.0
H440 H 0.94697 0.69675 0.13749 0.0
H441 H 0.89127 0.70434 0.21619 0.0
H442 H 0.80797 0.6304 0.10668 0.0
H443 H 0.87324 0.75747 0.92381 0.0
H444 H 0.92319 0.73947 0.84079 0.0
O445 O 0.91626 0.58349 0.0032 0.0
C446 C 0.85253 0.53445 0.91471 0.0
C447 C 0.92332 0.67317 0.86198 0.0
C448 C 0.883 0.72511 0.91688 0.0
N449 N 0.87995 0.65218 0.94621 0.0
C450 C 0.9073 0.642 0.90051 0.0
C451 C 0.86764 0.6931 0.95454 0.0
C452 C 0.91104 0.71499 0.87033 0.0
C453 C 0.76729 0.50133 0.07079 0.0
N454 N 0.7982 0.48579 0.03376 0.0
C455 C 0.72525 0.48941 0.06276 0.0
C456 C 0.71493 0.46143 0.01637 0.0
C457 C 0.74663 0.44574 0.97873 0.0
C458 C 0.78831 0.45838 -0.01189 0.0
C459 C 0.87176 0.37414 0.07335 0.0
C460 C 0.91015 0.43698 0.00558 0.0
C461 C 0.85718 0.41571 0.07529 0.0
N462 N 0.87622 0.44648 0.0414 0.0
C463 C 0.92559 0.39577 0.00251 0.0
C464 C 0.90619 0.36418 0.03664 0.0
C465 C 0.93512 0.55346 0.03077 0.0
C466 C 0.84577 0.66796 0.16625 0.0
C467 C 0.90782 0.65924 0.07861 0.0
C468 C 0.91636 0.68231 0.13113 0.0
C469 C 0.88508 0.6866 0.17522 0.0
N470 N 0.86923 0.64096 0.0702 0.0
C471 C 0.83837 0.64516 0.11312 0.0
C472 C 0.45309 0.17851 0.54501 0.0
C473 C 0.47829 0.18951 0.49499 0.0
H474 H 0.45084 0.16297 0.63909 0.0
C475 C 0.52205 0.19465 0.50344 0.0
H476 H 0.41936 0.17416 0.54021 0.0
C477 C 0.54029 0.18786 0.56028 0.0
C478 C 0.51515 0.17604 0.60996 0.0
H479 H 0.54249 0.20309 0.46589 0.0
H480 H 0.57408 0.19169 0.56512 0.0
C481 C 0.47129 0.17189 0.60178 0.0
C482 C 0.84752 0.45749 0.78431 0.0
C483 C 0.82746 0.48168 0.73949 0.0
H484 H 0.87216 0.45551 0.87419 0.0
C485 C 0.8164 0.5238 0.75242 0.0
H486 H 0.85687 0.42517 0.77566 0.0
C487 C 0.82552 0.54142 0.80876 0.0
C488 C 0.84571 0.51726 0.85345 0.0
H489 H 0.80103 0.54349 0.71883 0.0
H490 H 0.81628 0.57377 0.81744 0.0
C491 C 0.85661 0.47511 0.84064 0.0
C492 C 0.47337 0.82663 0.0604 0.0
C493 C 0.49731 0.84643 0.10548 0.0
H494 H 0.4718 0.80286 0.97015 0.0
C495 C 0.5393 0.8581 0.09274 0.0
H496 H 0.44116 0.81688 0.06901 0.0
C497 C 0.55719 0.8496 0.03635 0.0
C498 C 0.53338 0.82949 -0.0086 0.0
H499 H 0.55868 0.87348 0.12657 0.0
H500 H 0.58945 0.85925 0.02787 0.0
C501 C 0.49124 0.81818 0.00396 0.0
C502 C 0.15871 0.54274 0.33568 0.0
C503 C 0.16902 0.50053 0.34919 0.0
H504 H 0.15919 0.59231 0.2699 0.0
C505 C 0.18888 0.47581 0.30488 0.0
H506 H 0.14342 0.56275 0.36891 0.0
C507 C 0.19828 0.49298 0.24822 0.0
C508 C 0.18782 0.53517 0.23463 0.0
H509 H 0.19765 0.44339 0.31412 0.0
H510 H 0.21338 0.47289 0.21491 0.0
C511 C 0.16808 0.5599 0.27906 0.0
C512 C 0.34812 0.34527 0.40794 0.0
C513 C 0.33878 0.30207 0.41412 0.0
H514 H 0.32633 0.40903 0.4195 0.0
C515 C 0.3004 0.29043 0.44141 0.0
H516 H 0.37748 0.35526 0.38721 0.0
C517 C 0.27162 0.32096 0.46069 0.0
C518 C 0.27995 0.36419 0.45249 0.0
H519 H 0.29234 0.2575 0.44769 0.0
H520 H 0.24227 0.3104 0.48072 0.0
C521 C 0.31883 0.37605 0.42651 0.0
C522 C 0.72685 0.30412 0.68482 0.0
C523 C 0.71274 0.34354 0.66362 0.0
H524 H 0.71075 0.2438 0.72089 0.0
C525 C 0.66923 0.35235 0.66547 0.0
H526 H 0.76014 0.29635 0.68492 0.0
C527 C 0.64044 0.32166 0.68595 0.0
C528 C 0.6547 0.28181 0.7057 0.0
H529 H 0.65735 0.38246 0.6496 0.0
H530 H 0.60704 0.32888 0.68526 0.0
C531 C 0.69836 0.27388 0.70583 0.0
C532 C 0.73914 0.69484 0.95992 0.0
C533 C 0.73164 0.65124 0.95488 0.0
H534 H 0.71686 0.75743 0.9434 0.0
C535 C 0.69261 0.63785 0.93119 0.0
H536 H 0.76859 0.70657 0.97807 0.0
C537 C 0.66237 0.66745 0.9117 0.0
C538 C 0.67086 0.71097 0.91462 0.0
H539 H 0.68572 0.60455 0.92666 0.0
H540 H 0.63295 0.65624 0.89268 0.0
C541 C 0.7094 0.72418 0.93971 0.0
C542 C 0.29411 0.70374 0.18689 0.0
C543 C 0.30727 0.66742 0.15569 0.0
H544 H 0.31172 0.76044 0.23196 0.0
C545 C 0.3508 0.66012 0.1486 0.0
H546 H 0.26087 0.71012 0.19392 0.0
C547 C 0.38039 0.68966 0.16993 0.0
C548 C 0.36698 0.72665 0.19966 0.0
H549 H 0.36191 0.63236 0.12482 0.0
H550 H 0.41364 0.68395 0.16199 0.0
C551 C 0.32346 0.73266 0.20899 0.0
C552 C 0.41927 0.99664 0.28049 0.0
C553 C 0.45716 0.97585 0.2952 0.0
H554 H 0.38551 0.05488 0.27639 0.0
C555 C 0.49158 1.00015 0.31539 0.0
H556 H 0.39228 0.9794 0.26366 0.0
C557 C 0.48785 0.04411 0.3213 0.0
C558 C 0.44937 0.06433 0.30844 0.0
H559 H 0.52137 0.98528 0.32652 0.0
H560 H 0.51465 0.06213 0.33724 0.0
C561 C 0.4153 0.04012 0.28774 0.0
C562 C 0.96428 0.49663 0.56011 0.0
C563 C 0.94309 0.46001 0.54115 0.0
H564 H 0.0241 0.52752 0.57148 0.0
C565 C 0.96644 0.42724 0.51465 0.0
H566 H 0.94696 0.52235 0.5808 0.0
C567 C 0.01008 0.4303 0.50859 0.0
C568 C 0.0319 0.46592 0.53003 0.0
H569 H 0.95093 0.39891 0.49877 0.0
H570 H 0.02669 0.40414 0.48794 0.0
C571 C 0.00841 0.49943 0.55508 0.0
C572 C 0.59143 0.96636 0.76398 0.0
C573 C 0.55824 0.94377 0.79087 0.0
H574 H 0.61577 0.02606 0.73688 0.0
C575 C 0.52199 0.96583 0.80965 0.0
H576 H 0.61949 0.95019 0.74823 0.0
C577 C 0.52009 0.01003 0.80437 0.0
C578 C 0.55412 0.03279 0.77923 0.0
H579 H 0.49594 0.94914 0.83061 0.0
H580 H 0.49236 0.02635 0.82094 0.0
C581 C 0.58923 0.01008 0.75762 0.0
C582 C 1.00361 0.59102 0.01296 0.0
C583 C 0.98205 0.55481 0.03322 0.0
H584 H 0.06271 0.62254 0.00234 0.0
C585 C 1.00589 0.52067 0.05577 0.0
H586 H 0.98669 0.61771 -0.00573 0.0
C587 C 0.0501 0.5232 0.05909 0.0
C588 C 0.07117 0.56018 0.04095 0.0
H589 H 0.99043 0.49213 0.0712 0.0
H590 H 0.06763 0.4968 0.07757 0.0
C591 C 0.04741 0.59382 0.01739 0.0
C592 C 0.45543 0.1187 0.02491 0.0
C593 C 0.48582 0.14244 -0.00668 0.0
H594 H 0.42091 0.11009 0.10745 0.0
C595 C 0.50511 0.17672 0.02258 0.0
H596 H 0.43962 0.09239 0.00345 0.0
C597 C 0.49443 0.18682 0.08242 0.0
C598 C 0.46379 0.16322 0.11378 0.0
H599 H 0.52845 0.19576 -0.00075 0.0
H600 H 0.51012 0.21314 0.10407 0.0
C601 C 0.44432 0.12916 0.08433 0.0
C602 C 0.84461 0.54009 0.2846 0.0
C603 C 0.8524 0.51015 0.23925 0.0
H604 H 0.82986 0.55071 0.37809 0.0
C605 C 0.85192 0.46697 0.25414 0.0
H606 H 0.84456 0.5735 0.27411 0.0
C607 C 0.84404 0.4539 0.31355 0.0
C608 C 0.83559 0.48376 0.35876 0.0
H609 H 0.858 0.44322 0.2199 0.0
H610 H 0.84423 0.42048 0.32398 0.0
C611 C 0.83581 0.52697 0.34381 0.0
C612 C 0.49032 0.83231 0.59585 0.0
C613 C 0.53357 0.83246 0.61039 0.0
H614 H 0.44364 0.83948 0.52629 0.0
C615 C 0.56338 0.83966 0.56459 0.0
H616 H 0.46661 0.82729 0.63059 0.0
C617 C 0.55018 0.84608 0.50495 0.0
C618 C 0.50693 0.84631 0.49053 0.0
H619 H 0.59682 0.84005 0.57476 0.0
H620 H 0.57384 0.85136 0.47022 0.0
C621 C 0.47708 0.83963 0.53643 0.0
C622 C 0.17007 0.56425 0.80928 0.0
C623 C 0.17643 0.53383 0.85456 0.0
H624 H 0.15809 0.57593 0.71529 0.0
C625 C 0.17432 0.49075 0.8395 0.0
H626 H 0.17142 0.5976 0.8198 0.0
C627 C 0.16582 0.4783 0.78004 0.0
C628 C 0.16023 0.50874 0.7346 0.0
H629 H 0.17867 0.46661 0.87383 0.0
H630 H 0.16444 0.44496 0.76945 0.0
C631 C 0.16248 0.5518 0.74962 0.0
loop_
_geom_bond_atom_site_label_1
_geom_bond_atom_site_label_2
_geom_bond_distance
_geom_bond_site_symmetry_2
_ccdc_geom_bond_type
Co0 O2 2.143 . S
Co0 O8 2.074 . S
Co0 O11 2.093 . S
Co0 O24 2.097 . S
Co0 N41 2.151 . S
Co0 N49 2.214 . S
Co1 O2 2.160 . S
Co1 O7 2.058 . S
Co1 O17 2.057 . S
Co1 O32 2.037 . S
Co1 N36 2.145 . S
Co1 N57 2.257 . S
O2 Co0 2.143 . S
O2 Co1 2.160 . S
C3 O4 1.278 . S
C3 O11 1.224 . S
O4 C3 1.278 . S
C5 O6 1.245 . S
C5 O17 1.232 . S
O6 C5 1.245 . S
O7 Co1 2.058 . S
O7 C33 1.269 . S
O8 Co0 2.074 . S
O8 C33 1.257 . S
H9 C34 0.930 . S
H10 C40 0.930 . S
O11 Co0 2.093 . S
O11 C3 1.224 . S
H12 C44 0.929 . S
H13 C46 0.930 . S
H14 C47 0.930 . S
H15 C45 0.929 . S
H16 C48 0.928 . S
O17 Co1 2.057 . S
O17 C5 1.232 . S
H18 C37 0.929 . S
H19 C38 0.929 . S
H20 C50 0.931 . S
H21 C42 0.929 . S
H22 C51 0.930 . S
H23 C43 0.931 . S
O24 Co0 2.097 . S
O24 C52 1.214 . S
H25 C53 0.929 . S
H26 C54 0.929 . S
H27 C55 0.930 . S
H28 C56 0.929 . S
H29 C58 0.930 . S
H30 C35 0.930 . S
H31 C39 0.930 . S
O32 Co1 2.037 . S
O32 C52 1.234 . S
C33 O7 1.269 . S
C33 O8 1.257 . S
C34 H9 0.930 . S
C34 C37 1.388 . S
C34 C39 1.418 . S
C35 H30 0.930 . S
C35 C38 1.404 . S
C35 C39 1.353 . S
N36 Co1 2.145 . S
N36 C37 1.397 . S
N36 C38 1.334 . S
C37 H18 0.929 . S
C37 C34 1.388 . S
C37 N36 1.397 . S
C38 H19 0.929 . S
C38 C35 1.404 . S
C38 N36 1.334 . S
C39 H31 0.930 . S
C39 C34 1.418 . S
C39 C35 1.353 . S
C40 H10 0.930 . S
C40 N41 1.330 . S
C40 C42 1.446 . S
N41 Co0 2.151 . S
N41 C40 1.330 . S
N41 C45 1.418 . S
C42 H21 0.929 . S
C42 C40 1.446 . S
C42 C43 1.332 . S
C43 H23 0.931 . S
C43 C42 1.332 . S
C43 C44 1.267 . S
C44 H12 0.929 . S
C44 C43 1.267 . S
C44 C45 1.251 . S
C45 H15 0.929 . S
C45 N41 1.418 . S
C45 C44 1.251 . S
C46 H13 0.930 . S
C46 C48 1.406 . S
C46 C51 1.261 . S
C47 H14 0.930 . S
C47 N49 1.325 . S
C47 C50 1.357 . S
C48 H16 0.928 . S
C48 C46 1.406 . S
C48 N49 1.261 . S
N49 Co0 2.214 . S
N49 C47 1.325 . S
N49 C48 1.261 . S
C50 H20 0.931 . S
C50 C47 1.357 . S
C50 C51 1.312 . S
C51 H22 0.930 . S
C51 C46 1.261 . S
C51 C50 1.312 . S
C52 O24 1.214 . S
C52 O32 1.234 . S
C53 H25 0.929 . S
C53 C56 1.391 . S
C53 C58 1.391 . S
C54 H26 0.929 . S
C54 C55 1.390 . S
C54 N57 1.391 . S
C55 H27 0.930 . S
C55 C54 1.390 . S
C55 C56 1.392 . S
C56 H28 0.929 . S
C56 C53 1.391 . S
C56 C55 1.392 . S
N57 Co1 2.257 . S
N57 C54 1.391 . S
N57 C58 1.388 . S
C58 H29 0.930 . S
C58 C53 1.391 . S
C58 N57 1.388 . S
Co59 O61 2.143 . S
Co59 O67 2.074 . S
Co59 O70 2.093 . S
Co59 O83 2.097 . S
Co59 N100 2.151 . S
Co59 N108 2.214 . S
Co60 O61 2.160 . S
Co60 O66 2.058 . S
Co60 O76 2.057 . S
Co60 O91 2.037 . S
Co60 N95 2.145 . S
Co60 N116 2.257 . S
O61 Co59 2.143 . S
O61 Co60 2.160 . S
C62 O63 1.278 . S
C62 O70 1.224 . S
O63 C62 1.278 . S
C64 O65 1.245 . S
C64 O76 1.232 . S
O65 C64 1.245 . S
O66 Co60 2.058 . S
O66 C92 1.269 . S
O67 Co59 2.074 . S
O67 C92 1.257 . S
H68 C93 0.930 . S
H69 C99 0.930 . S
O70 Co59 2.093 . S
O70 C62 1.224 . S
H71 C103 0.929 . S
H72 C105 0.930 . S
H73 C106 0.930 . S
H74 C104 0.929 . S
H75 C107 0.928 . S
O76 Co60 2.057 . S
O76 C64 1.232 . S
H77 C96 0.929 . S
H78 C97 0.929 . S
H79 C109 0.931 . S
H80 C101 0.929 . S
H81 C110 0.930 . S
H82 C102 0.931 . S
O83 Co59 2.097 . S
O83 C111 1.214 . S
H84 C112 0.929 . S
H85 C113 0.929 . S
H86 C114 0.930 . S
H87 C115 0.929 . S
H88 C117 0.930 . S
H89 C94 0.930 . S
H90 C98 0.930 . S
O91 Co60 2.037 . S
O91 C111 1.234 . S
C92 O66 1.269 . S
C92 O67 1.257 . S
C93 H68 0.930 . S
C93 C96 1.388 . S
C93 C98 1.418 . S
C94 H89 0.930 . S
C94 C97 1.404 . S
C94 C98 1.353 . S
N95 Co60 2.145 . S
N95 C96 1.397 . S
N95 C97 1.334 . S
C96 H77 0.929 . S
C96 C93 1.388 . S
C96 N95 1.397 . S
C97 H78 0.929 . S
C97 C94 1.404 . S
C97 N95 1.334 . S
C98 H90 0.930 . S
C98 C93 1.418 . S
C98 C94 1.353 . S
C99 H69 0.930 . S
C99 N100 1.330 . S
C99 C101 1.446 . S
N100 Co59 2.151 . S
N100 C99 1.330 . S
N100 C104 1.418 . S
C101 H80 0.929 . S
C101 C99 1.446 . S
C101 C102 1.332 . S
C102 H82 0.931 . S
C102 C101 1.332 . S
C102 C103 1.267 . S
C103 H71 0.929 . S
C103 C102 1.267 . S
C103 C104 1.251 . S
C104 H74 0.929 . S
C104 N100 1.418 . S
C104 C103 1.251 . S
C105 H72 0.930 . S
C105 C107 1.406 . S
C105 C110 1.261 . S
C106 H73 0.930 . S
C106 N108 1.325 . S
C106 C109 1.357 . S
C107 H75 0.928 . S
C107 C105 1.406 . S
C107 N108 1.261 . S
N108 Co59 2.214 . S
N108 C106 1.325 . S
N108 C107 1.261 . S
C109 H79 0.931 . S
C109 C106 1.357 . S
C109 C110 1.312 . S
C110 H81 0.930 . S
C110 C105 1.261 . S
C110 C109 1.312 . S
C111 O83 1.214 . S
C111 O91 1.234 . S
C112 H84 0.929 . S
C112 C115 1.391 . S
C112 C117 1.391 . S
C113 H85 0.929 . S
C113 C114 1.390 . S
C113 N116 1.391 . S
C114 H86 0.930 . S
C114 C113 1.390 . S
C114 C115 1.392 . S
C115 H87 0.929 . S
C115 C112 1.391 . S
C115 C114 1.392 . S
N116 Co60 2.257 . S
N116 C113 1.391 . S
N116 C117 1.388 . S
C117 H88 0.930 . S
C117 C112 1.391 . S
C117 N116 1.388 . S
Co118 O120 2.143 . S
Co118 O126 2.074 . S
Co118 O129 2.093 . S
Co118 O142 2.097 . S
Co118 N159 2.151 . S
Co118 N167 2.214 . S
Co119 O120 2.160 . S
Co119 O125 2.058 . S
Co119 O135 2.057 . S
Co119 O150 2.037 . S
Co119 N154 2.145 . S
Co119 N175 2.257 . S
O120 Co118 2.143 . S
O120 Co119 2.160 . S
C121 O122 1.278 . S
C121 O129 1.224 . S
O122 C121 1.278 . S
C123 O124 1.245 . S
C123 O135 1.232 . S
O124 C123 1.245 . S
O125 Co119 2.058 . S
O125 C151 1.269 . S
O126 Co118 2.074 . S
O126 C151 1.257 . S
H127 C152 0.930 . S
H128 C158 0.930 . S
O129 Co118 2.093 . S
O129 C121 1.224 . S
H130 C162 0.929 . S
H131 C164 0.930 . S
H132 C165 0.930 . S
H133 C163 0.929 . S
H134 C166 0.928 . S
O135 Co119 2.057 . S
O135 C123 1.232 . S
H136 C155 0.929 . S
H137 C156 0.929 . S
H138 C168 0.931 . S
H139 C160 0.929 . S
H140 C169 0.930 . S
H141 C161 0.931 . S
O142 Co118 2.097 . S
O142 C170 1.214 . S
H143 C171 0.929 . S
H144 C172 0.929 . S
H145 C173 0.930 . S
H146 C174 0.929 . S
H147 C176 0.930 . S
H148 C153 0.928 1_554 S
H149 C157 0.930 . S
O150 Co119 2.037 . S
O150 C170 1.234 . S
C151 O125 1.269 . S
C151 O126 1.257 . S
C152 H127 0.930 . S
C152 C155 1.388 1_554 S
C152 C157 1.418 . S
C153 H148 0.928 1_556 S
C153 C156 1.408 . S
C153 C157 1.351 1_556 S
N154 Co119 2.145 . S
N154 C155 1.397 . S
N154 C156 1.334 . S
C155 H136 0.929 . S
C155 C152 1.388 1_556 S
C155 N154 1.397 . S
C156 H137 0.929 . S
C156 C153 1.408 . S
C156 N154 1.334 . S
C157 H149 0.930 . S
C157 C152 1.418 . S
C157 C153 1.351 1_554 S
C158 H128 0.930 . S
C158 N159 1.330 . S
C158 C160 1.446 . S
N159 Co118 2.151 . S
N159 C158 1.330 . S
N159 C163 1.418 . S
C160 H139 0.929 . S
C160 C158 1.446 . S
C160 C161 1.332 . S
C161 H141 0.931 . S
C161 C160 1.332 . S
C161 C162 1.267 . S
C162 H130 0.929 . S
C162 C161 1.267 . S
C162 C163 1.251 . S
C163 H133 0.929 . S
C163 N159 1.418 . S
C163 C162 1.251 . S
C164 H131 0.930 . S
C164 C166 1.406 . S
C164 C169 1.261 . S
C165 H132 0.930 . S
C165 N167 1.325 . S
C165 C168 1.357 . S
C166 H134 0.928 . S
C166 C164 1.406 . S
C166 N167 1.261 . S
N167 Co118 2.214 . S
N167 C165 1.325 . S
N167 C166 1.261 . S
C168 H138 0.931 . S
C168 C165 1.357 . S
C168 C169 1.312 . S
C169 H140 0.930 . S
C169 C164 1.261 . S
C169 C168 1.312 . S
C170 O142 1.214 . S
C170 O150 1.234 . S
C171 H143 0.929 . S
C171 C174 1.391 . S
C171 C176 1.391 . S
C172 H144 0.929 . S
C172 C173 1.390 . S
C172 N175 1.391 . S
C173 H145 0.930 . S
C173 C172 1.390 . S
C173 C174 1.392 . S
C174 H146 0.929 . S
C174 C171 1.391 . S
C174 C173 1.392 . S
N175 Co119 2.257 . S
N175 C172 1.391 . S
N175 C176 1.388 . S
C176 H147 0.930 . S
C176 C171 1.391 . S
C176 N175 1.388 . S
Co177 O179 2.143 . S
Co177 O185 2.074 . S
Co177 O188 2.093 1_554 S
Co177 O201 2.097 . S
Co177 N218 2.151 . S
Co177 N226 2.214 . S
Co178 O179 2.160 . S
Co178 O184 2.058 . S
Co178 O194 2.057 . S
Co178 O209 2.037 . S
Co178 N213 2.145 . S
Co178 N234 2.257 . S
O179 Co177 2.143 . S
O179 Co178 2.160 . S
C180 O181 1.278 . S
C180 O188 1.224 . S
O181 C180 1.278 . S
C182 O183 1.245 . S
C182 O194 1.232 . S
O183 C182 1.245 . S
O184 Co178 2.058 . S
O184 C210 1.269 . S
O185 Co177 2.074 . S
O185 C210 1.257 . S
H186 C211 0.930 . S
H187 C217 0.930 1_556 S
O188 Co177 2.093 1_556 S
O188 C180 1.224 . S
H189 C221 0.929 . S
H190 C223 0.930 . S
H191 C224 0.930 . S
H192 C222 0.929 . S
H193 C225 0.928 1_556 S
O194 Co178 2.057 . S
O194 C182 1.232 . S
H195 C214 0.929 . S
H196 C215 0.929 . S
H197 C227 0.931 . S
H198 C219 0.929 . S
H199 C228 0.930 . S
H200 C220 0.931 . S
O201 Co177 2.097 . S
O201 C229 1.214 . S
H202 C230 0.929 . S
H203 C231 0.929 . S
H204 C232 0.930 . S
H205 C233 0.929 . S
H206 C235 0.930 . S
H207 C212 0.930 . S
H208 C216 0.930 . S
O209 Co178 2.037 . S
O209 C229 1.234 . S
C210 O184 1.269 . S
C210 O185 1.257 . S
C211 H186 0.930 . S
C211 C214 1.388 . S
C211 C216 1.418 . S
C212 H207 0.930 . S
C212 C215 1.404 . S
C212 C216 1.353 . S
N213 Co178 2.145 . S
N213 C214 1.397 . S
N213 C215 1.334 . S
C214 H195 0.929 . S
C214 C211 1.388 . S
C214 N213 1.397 . S
C215 H196 0.929 . S
C215 C212 1.404 . S
C215 N213 1.334 . S
C216 H208 0.930 . S
C216 C211 1.418 . S
C216 C212 1.353 . S
C217 H187 0.930 1_554 S
C217 N218 1.330 . S
C217 C219 1.446 . S
N218 Co177 2.151 . S
N218 C217 1.330 . S
N218 C222 1.418 . S
C219 H198 0.929 . S
C219 C217 1.446 . S
C219 C220 1.332 . S
C220 H200 0.931 . S
C220 C219 1.332 . S
C220 C221 1.267 . S
C221 H189 0.929 . S
C221 C220 1.267 . S
C221 C222 1.251 . S
C222 H192 0.929 . S
C222 N218 1.418 . S
C222 C221 1.251 . S
C223 H190 0.930 . S
C223 C225 1.406 . S
C223 C228 1.261 . S
C224 H191 0.930 . S
C224 N226 1.325 . S
C224 C227 1.357 . S
C225 H193 0.928 1_554 S
C225 C223 1.406 . S
C225 N226 1.261 . S
N226 Co177 2.214 . S
N226 C224 1.325 . S
N226 C225 1.261 . S
C227 H197 0.931 . S
C227 C224 1.357 . S
C227 C228 1.312 . S
C228 H199 0.930 . S
C228 C223 1.261 . S
C228 C227 1.312 . S
C229 O201 1.214 . S
C229 O209 1.234 . S
C230 H202 0.929 . S
C230 C233 1.391 . S
C230 C235 1.391 1_556 S
C231 H203 0.929 . S
C231 C232 1.390 1_554 S
C231 N234 1.391 . S
C232 H204 0.930 . S
C232 C231 1.390 1_556 S
C232 C233 1.392 . S
C233 H205 0.929 . S
C233 C230 1.391 . S
C233 C232 1.392 . S
N234 Co178 2.257 . S
N234 C231 1.391 . S
N234 C235 1.388 . S
C235 H206 0.930 . S
C235 C230 1.391 1_554 S
C235 N234 1.388 . S
Co236 O238 2.143 . S
Co236 O244 2.074 . S
Co236 O247 2.093 . S
Co236 O260 2.097 . S
Co236 N277 2.151 . S
Co236 N285 2.214 . S
Co237 O238 2.160 . S
Co237 O243 2.058 . S
Co237 O253 2.057 . S
Co237 O268 2.037 . S
Co237 N272 2.145 . S
Co237 N293 2.257 . S
O238 Co236 2.143 . S
O238 Co237 2.160 . S
C239 O240 1.278 . S
C239 O247 1.224 . S
O240 C239 1.278 . S
C241 O242 1.245 . S
C241 O253 1.232 . S
O242 C241 1.245 . S
O243 Co237 2.058 . S
O243 C269 1.269 . S
O244 Co236 2.074 . S
O244 C269 1.257 . S
H245 C270 0.930 . S
H246 C276 0.930 . S
O247 Co236 2.093 . S
O247 C239 1.224 . S
H248 C280 0.929 . S
H249 C282 0.930 . S
H250 C283 0.930 . S
H251 C281 0.929 . S
H252 C284 0.928 . S
O253 Co237 2.057 . S
O253 C241 1.232 . S
H254 C273 0.929 . S
H255 C274 0.929 . S
H256 C286 0.931 . S
H257 C278 0.929 . S
H258 C287 0.930 . S
H259 C279 0.931 . S
O260 Co236 2.097 . S
O260 C288 1.214 . S
H261 C289 0.929 . S
H262 C290 0.929 . S
H263 C291 0.930 . S
H264 C292 0.929 . S
H265 C294 0.930 . S
H266 C271 0.930 . S
H267 C275 0.930 . S
O268 Co237 2.037 . S
O268 C288 1.234 . S
C269 O243 1.269 . S
C269 O244 1.257 . S
C270 H245 0.930 . S
C270 C273 1.388 . S
C270 C275 1.418 . S
C271 H266 0.930 . S
C271 C274 1.404 . S
C271 C275 1.353 . S
N272 Co237 2.145 . S
N272 C273 1.397 . S
N272 C274 1.334 . S
C273 H254 0.929 . S
C273 C270 1.388 . S
C273 N272 1.397 . S
C274 H255 0.929 . S
C274 C271 1.404 . S
C274 N272 1.334 . S
C275 H267 0.930 . S
C275 C270 1.418 . S
C275 C271 1.353 . S
C276 H246 0.930 . S
C276 N277 1.330 . S
C276 C278 1.446 . S
N277 Co236 2.151 . S
N277 C276 1.330 . S
N277 C281 1.418 . S
C278 H257 0.929 . S
C278 C276 1.446 . S
C278 C279 1.332 . S
C279 H259 0.931 . S
C279 C278 1.332 . S
C279 C280 1.267 . S
C280 H248 0.929 . S
C280 C279 1.267 . S
C280 C281 1.251 . S
C281 H251 0.929 . S
C281 N277 1.418 . S
C281 C280 1.251 . S
C282 H249 0.930 . S
C282 C284 1.406 . S
C282 C287 1.261 . S
C283 H250 0.930 . S
C283 N285 1.325 . S
C283 C286 1.357 . S
C284 H252 0.928 . S
C284 C282 1.406 . S
C284 N285 1.261 . S
N285 Co236 2.214 . S
N285 C283 1.325 . S
N285 C284 1.261 . S
C286 H256 0.931 . S
C286 C283 1.357 . S
C286 C287 1.312 . S
C287 H258 0.930 . S
C287 C282 1.261 . S
C287 C286 1.312 . S
C288 O260 1.214 . S
C288 O268 1.234 . S
C289 H261 0.929 . S
C289 C292 1.391 . S
C289 C294 1.391 . S
C290 H262 0.929 . S
C290 C291 1.390 . S
C290 N293 1.391 . S
C291 H263 0.930 . S
C291 C290 1.390 . S
C291 C292 1.392 . S
C292 H264 0.929 . S
C292 C289 1.391 . S
C292 C291 1.392 . S
N293 Co237 2.257 . S
N293 C290 1.391 . S
N293 C294 1.388 . S
C294 H265 0.930 . S
C294 C289 1.391 . S
C294 N293 1.388 . S
Co295 O297 2.143 . S
Co295 O303 2.074 . S
Co295 O306 2.093 . S
Co295 O319 2.097 . S
Co295 N336 2.151 . S
Co295 N344 2.214 . S
Co296 O297 2.160 . S
Co296 O302 2.058 . S
Co296 O312 2.057 . S
Co296 O327 2.037 . S
Co296 N331 2.145 . S
Co296 N352 2.257 . S
O297 Co295 2.143 . S
O297 Co296 2.160 . S
C298 O299 1.278 . S
C298 O306 1.224 . S
O299 C298 1.278 . S
C300 O301 1.245 . S
C300 O312 1.232 . S
O301 C300 1.245 . S
O302 Co296 2.058 . S
O302 C328 1.269 . S
O303 Co295 2.074 . S
O303 C328 1.257 . S
H304 C329 0.930 . S
H305 C335 0.930 . S
O306 Co295 2.093 . S
O306 C298 1.224 . S
H307 C339 0.929 . S
H308 C341 0.930 . S
H309 C342 0.930 . S
H310 C340 0.929 . S
H311 C343 0.928 . S
O312 Co296 2.057 . S
O312 C300 1.232 . S
H313 C332 0.929 . S
H314 C333 0.929 . S
H315 C345 0.931 . S
H316 C337 0.929 . S
H317 C346 0.930 . S
H318 C338 0.931 . S
O319 Co295 2.097 . S
O319 C347 1.214 . S
H320 C348 0.929 . S
H321 C349 0.929 . S
H322 C350 0.930 . S
H323 C351 0.929 . S
H324 C353 0.930 . S
H325 C330 0.930 . S
H326 C334 0.930 . S
O327 Co296 2.037 . S
O327 C347 1.234 . S
C328 O302 1.269 . S
C328 O303 1.257 . S
C329 H304 0.930 . S
C329 C332 1.388 . S
C329 C334 1.418 . S
C330 H325 0.930 . S
C330 C333 1.404 . S
C330 C334 1.353 . S
N331 Co296 2.145 . S
N331 C332 1.397 . S
N331 C333 1.334 . S
C332 H313 0.929 . S
C332 C329 1.388 . S
C332 N331 1.397 . S
C333 H314 0.929 . S
C333 C330 1.404 . S
C333 N331 1.334 . S
C334 H326 0.930 . S
C334 C329 1.418 . S
C334 C330 1.353 . S
C335 H305 0.930 . S
C335 N336 1.330 . S
C335 C337 1.446 . S
N336 Co295 2.151 . S
N336 C335 1.330 . S
N336 C340 1.418 . S
C337 H316 0.929 . S
C337 C335 1.446 . S
C337 C338 1.332 . S
C338 H318 0.931 . S
C338 C337 1.332 . S
C338 C339 1.267 . S
C339 H307 0.929 . S
C339 C338 1.267 . S
C339 C340 1.251 . S
C340 H310 0.929 . S
C340 N336 1.418 . S
C340 C339 1.251 . S
C341 H308 0.930 . S
C341 C343 1.406 . S
C341 C346 1.261 . S
C342 H309 0.930 . S
C342 N344 1.325 . S
C342 C345 1.357 . S
C343 H311 0.928 . S
C343 C341 1.406 . S
C343 N344 1.261 . S
N344 Co295 2.214 . S
N344 C342 1.325 . S
N344 C343 1.261 . S
C345 H315 0.931 . S
C345 C342 1.357 . S
C345 C346 1.312 . S
C346 H317 0.930 . S
C346 C341 1.261 . S
C346 C345 1.312 . S
C347 O319 1.214 . S
C347 O327 1.234 . S
C348 H320 0.929 . S
C348 C351 1.391 . S
C348 C353 1.391 . S
C349 H321 0.929 . S
C349 C350 1.390 . S
C349 N352 1.391 . S
C350 H322 0.930 . S
C350 C349 1.390 . S
C350 C351 1.392 . S
C351 H323 0.929 . S
C351 C348 1.391 . S
C351 C350 1.392 . S
N352 Co296 2.257 . S
N352 C349 1.391 . S
N352 C353 1.388 . S
C353 H324 0.930 . S
C353 C348 1.391 . S
C353 N352 1.388 . S
Co354 O356 2.143 . S
Co354 O362 2.074 . S
Co354 O365 2.093 . S
Co354 O378 2.097 . S
Co354 N395 2.151 . S
Co354 N403 2.214 . S
Co355 O356 2.160 . S
Co355 O361 2.058 . S
Co355 O371 2.057 . S
Co355 O386 2.037 . S
Co355 N390 2.145 . S
Co355 N411 2.257 . S
O356 Co354 2.143 . S
O356 Co355 2.160 . S
C357 O358 1.278 . S
C357 O365 1.224 . S
O358 C357 1.278 . S
C359 O360 1.245 . S
C359 O371 1.232 . S
O360 C359 1.245 . S
O361 Co355 2.058 . S
O361 C387 1.269 . S
O362 Co354 2.074 . S
O362 C387 1.257 . S
H363 C388 0.930 . S
H364 C394 0.930 . S
O365 Co354 2.093 . S
O365 C357 1.224 . S
H366 C398 0.929 . S
H367 C400 0.930 . S
H368 C401 0.930 . S
H369 C399 0.929 . S
H370 C402 0.928 . S
O371 Co355 2.057 . S
O371 C359 1.232 . S
H372 C391 0.929 . S
H373 C392 0.929 . S
H374 C404 0.931 . S
H375 C396 0.929 . S
H376 C405 0.930 . S
H377 C397 0.931 . S
O378 Co354 2.097 . S
O378 C406 1.214 . S
H379 C407 0.929 . S
H380 C408 0.929 . S
H381 C409 0.930 . S
H382 C410 0.929 . S
H383 C412 0.930 . S
H384 C389 0.930 . S
H385 C393 0.930 . S
O386 Co355 2.037 . S
O386 C406 1.234 . S
C387 O361 1.269 . S
C387 O362 1.257 . S
C388 H363 0.930 . S
C388 C391 1.388 . S
C388 C393 1.418 . S
C389 H384 0.930 . S
C389 C392 1.404 . S
C389 C393 1.353 . S
N390 Co355 2.145 . S
N390 C391 1.397 . S
N390 C392 1.334 . S
C391 H372 0.929 . S
C391 C388 1.388 . S
C391 N390 1.397 . S
C392 H373 0.929 . S
C392 C389 1.404 . S
C392 N390 1.334 . S
C393 H385 0.930 . S
C393 C388 1.418 . S
C393 C389 1.353 . S
C394 H364 0.930 . S
C394 N395 1.330 . S
C394 C396 1.446 . S
N395 Co354 2.151 . S
N395 C394 1.330 . S
N395 C399 1.418 . S
C396 H375 0.929 . S
C396 C394 1.446 . S
C396 C397 1.332 . S
C397 H377 0.931 . S
C397 C396 1.332 . S
C397 C398 1.267 . S
C398 H366 0.929 . S
C398 C397 1.267 . S
C398 C399 1.251 . S
C399 H369 0.929 . S
C399 N395 1.418 . S
C399 C398 1.251 . S
C400 H367 0.930 . S
C400 C402 1.406 . S
C400 C405 1.261 . S
C401 H368 0.930 . S
C401 N403 1.325 . S
C401 C404 1.357 . S
C402 H370 0.928 . S
C402 C400 1.406 . S
C402 N403 1.261 . S
N403 Co354 2.214 . S
N403 C401 1.325 . S
N403 C402 1.261 . S
C404 H374 0.931 . S
C404 C401 1.357 . S
C404 C405 1.312 . S
C405 H376 0.930 . S
C405 C400 1.261 . S
C405 C404 1.312 . S
C406 O378 1.214 . S
C406 O386 1.234 . S
C407 H379 0.929 . S
C407 C410 1.391 . S
C407 C412 1.391 . S
C408 H380 0.929 . S
C408 C409 1.390 . S
C408 N411 1.391 . S
C409 H381 0.930 . S
C409 C408 1.390 . S
C409 C410 1.392 . S
C410 H382 0.929 . S
C410 C407 1.391 . S
C410 C409 1.392 . S
N411 Co355 2.257 . S
N411 C408 1.391 . S
N411 C412 1.388 . S
C412 H383 0.930 . S
C412 C407 1.391 . S
C412 N411 1.388 . S
Co413 O415 2.143 . S
Co413 O421 2.074 1_554 S
Co413 O424 2.093 . S
Co413 O437 2.097 . S
Co413 N454 2.151 . S
Co413 N462 2.214 . S
Co414 O415 2.160 1_556 S
Co414 O420 2.058 . S
Co414 O430 2.057 . S
Co414 O445 2.037 1_556 S
Co414 N449 2.145 . S
Co414 N470 2.257 1_556 S
O415 Co413 2.143 . S
O415 Co414 2.160 1_554 S
C416 O417 1.278 . S
C416 O424 1.224 . S
O417 C416 1.278 . S
C418 O419 1.245 . S
C418 O430 1.232 1_554 S
O419 C418 1.245 . S
O420 Co414 2.058 . S
O420 C446 1.269 . S
O421 Co413 2.074 1_556 S
O421 C446 1.257 . S
H422 C447 0.930 . S
H423 C453 0.930 . S
O424 Co413 2.093 . S
O424 C416 1.224 . S
H425 C457 0.929 1_556 S
H426 C459 0.930 . S
H427 C460 0.930 . S
H428 C458 0.929 1_556 S
H429 C461 0.928 . S
O430 Co414 2.057 . S
O430 C418 1.232 1_556 S
H431 C450 0.929 . S
H432 C451 0.929 . S
H433 C463 0.931 1_556 S
H434 C455 0.929 . S
H435 C464 0.930 . S
H436 C456 0.931 . S
O437 Co413 2.097 . S
O437 C465 1.214 . S
H438 C466 0.929 . S
H439 C467 0.929 . S
H440 C468 0.930 . S
H441 C469 0.929 . S
H442 C471 0.930 . S
H443 C448 0.930 . S
H444 C452 0.930 . S
O445 Co414 2.037 1_554 S
O445 C465 1.234 . S
C446 O420 1.269 . S
C446 O421 1.257 . S
C447 H422 0.930 . S
C447 C450 1.388 . S
C447 C452 1.418 . S
C448 H443 0.930 . S
C448 C451 1.404 . S
C448 C452 1.353 . S
N449 Co414 2.145 . S
N449 C450 1.397 . S
N449 C451 1.334 . S
C450 H431 0.929 . S
C450 C447 1.388 . S
C450 N449 1.397 . S
C451 H432 0.929 . S
C451 C448 1.404 . S
C451 N449 1.334 . S
C452 H444 0.930 . S
C452 C447 1.418 . S
C452 C448 1.353 . S
C453 H423 0.930 . S
C453 N454 1.330 . S
C453 C455 1.446 . S
N454 Co413 2.151 . S
N454 C453 1.330 . S
N454 C458 1.418 . S
C455 H434 0.929 . S
C455 C453 1.446 . S
C455 C456 1.332 . S
C456 H436 0.931 . S
C456 C455 1.332 . S
C456 C457 1.267 . S
C457 H425 0.929 1_554 S
C457 C456 1.267 . S
C457 C458 1.251 . S
C458 H428 0.929 1_554 S
C458 N454 1.418 . S
C458 C457 1.251 . S
C459 H426 0.930 . S
C459 C461 1.406 . S
C459 C464 1.261 . S
C460 H427 0.930 . S
C460 N462 1.325 . S
C460 C463 1.357 . S
C461 H429 0.928 . S
C461 C459 1.406 . S
C461 N462 1.261 . S
N462 Co413 2.214 . S
N462 C460 1.325 . S
N462 C461 1.261 . S
C463 H433 0.931 1_554 S
C463 C460 1.357 . S
C463 C464 1.312 . S
C464 H435 0.930 . S
C464 C459 1.261 . S
C464 C463 1.312 . S
C465 O437 1.214 . S
C465 O445 1.234 . S
C466 H438 0.929 . S
C466 C469 1.391 . S
C466 C471 1.391 . S
C467 H439 0.929 . S
C467 C468 1.390 . S
C467 N470 1.391 . S
C468 H440 0.930 . S
C468 C467 1.390 . S
C468 C469 1.392 . S
C469 H441 0.929 . S
C469 C466 1.391 . S
C469 C468 1.392 . S
N470 Co414 2.257 1_554 S
N470 C467 1.391 . S
N470 C471 1.388 . S
C471 H442 0.930 . S
C471 C466 1.391 . S
C471 N470 1.388 . S
C472 C473 1.387 . S
C472 H476 0.950 . S
C472 C481 1.390 . S
C473 C472 1.387 . S
C473 C475 1.387 . S
H474 C481 0.950 . S
C475 C473 1.387 . S
C475 C477 1.390 . S
C475 H479 0.950 . S
H476 C472 0.950 . S
C477 C475 1.390 . S
C477 C478 1.387 . S
C477 H480 0.950 . S
C478 C477 1.387 . S
C478 C481 1.387 . S
H479 C475 0.950 . S
H480 C477 0.950 . S
C481 C472 1.390 . S
C481 H474 0.950 . S
C481 C478 1.387 . S
C482 C483 1.387 . S
C482 H486 0.950 . S
C482 C491 1.390 . S
C483 C482 1.387 . S
C483 C485 1.387 . S
H484 C491 0.950 . S
C485 C483 1.387 . S
C485 C487 1.390 . S
C485 H489 0.950 . S
H486 C482 0.950 . S
C487 C485 1.390 . S
C487 C488 1.387 . S
C487 H490 0.950 . S
C488 C487 1.387 . S
C488 C491 1.387 . S
H489 C485 0.950 . S
H490 C487 0.950 . S
C491 C482 1.390 . S
C491 H484 0.950 . S
C491 C488 1.387 . S
C492 C493 1.387 . S
C492 H496 0.950 . S
C492 C501 1.390 . S
C493 C492 1.387 . S
C493 C495 1.387 . S
H494 C501 0.950 . S
C495 C493 1.387 . S
C495 C497 1.390 . S
C495 H499 0.950 . S
H496 C492 0.950 . S
C497 C495 1.390 . S
C497 C498 1.387 1_554 S
C497 H500 0.950 . S
C498 C497 1.387 1_556 S
C498 C501 1.387 1_556 S
H499 C495 0.950 . S
H500 C497 0.950 . S
C501 C492 1.390 . S
C501 H494 0.950 . S
C501 C498 1.387 1_554 S
C502 C503 1.387 . S
C502 H506 0.950 . S
C502 C511 1.390 . S
C503 C502 1.387 . S
C503 C505 1.387 . S
H504 C511 0.950 . S
C505 C503 1.387 . S
C505 C507 1.390 . S
C505 H509 0.950 . S
H506 C502 0.950 . S
C507 C505 1.390 . S
C507 C508 1.387 . S
C507 H510 0.950 . S
C508 C507 1.387 . S
C508 C511 1.387 . S
H509 C505 0.950 . S
H510 C507 0.950 . S
C511 C502 1.390 . S
C511 H504 0.950 . S
C511 C508 1.387 . S
C512 C513 1.387 . S
C512 H516 0.950 . S
C512 C521 1.390 . S
C513 C512 1.387 . S
C513 C515 1.387 . S
H514 C521 0.950 . S
C515 C513 1.387 . S
C515 C517 1.390 . S
C515 H519 0.950 . S
H516 C512 0.950 . S
C517 C515 1.390 . S
C517 C518 1.387 . S
C517 H520 0.950 . S
C518 C517 1.387 . S
C518 C521 1.387 . S
H519 C515 0.950 . S
H520 C517 0.950 . S
C521 C512 1.390 . S
C521 H514 0.950 . S
C521 C518 1.387 . S
C522 C523 1.387 . S
C522 H526 0.950 . S
C522 C531 1.390 . S
C523 C522 1.387 . S
C523 C525 1.387 . S
H524 C531 0.950 . S
C525 C523 1.387 . S
C525 C527 1.390 . S
C525 H529 0.950 . S
H526 C522 0.950 . S
C527 C525 1.390 . S
C527 C528 1.387 . S
C527 H530 0.950 . S
C528 C527 1.387 . S
C528 C531 1.387 . S
H529 C525 0.950 . S
H530 C527 0.950 . S
C531 C522 1.390 . S
C531 H524 0.950 . S
C531 C528 1.387 . S
C532 C533 1.385 1_554 S
C532 H536 0.957 . S
C532 C541 1.386 1_554 S
C533 C532 1.385 1_556 S
C533 C535 1.387 . S
H534 C541 0.950 . S
C535 C533 1.387 . S
C535 C537 1.390 . S
C535 H539 0.950 . S
H536 C532 0.957 . S
C537 C535 1.390 . S
C537 C538 1.387 . S
C537 H540 0.950 . S
C538 C537 1.387 . S
C538 C541 1.387 . S
H539 C535 0.950 . S
H540 C537 0.950 . S
C541 C532 1.386 1_556 S
C541 H534 0.950 . S
C541 C538 1.387 . S
C542 C543 1.387 . S
C542 H546 0.950 . S
C542 C551 1.390 . S
C543 C542 1.387 . S
C543 C545 1.387 . S
H544 C551 0.950 . S
C545 C543 1.387 . S
C545 C547 1.390 . S
C545 H549 0.950 . S
H546 C542 0.950 . S
C547 C545 1.390 . S
C547 C548 1.387 . S
C547 H550 0.950 . S
C548 C547 1.387 . S
C548 C551 1.387 . S
H549 C545 0.950 . S
H550 C547 0.950 . S
C551 C542 1.390 . S
C551 H544 0.950 . S
C551 C548 1.387 . S
C552 C553 1.387 . S
C552 H556 0.950 . S
C552 C561 1.390 1_565 S
C553 C552 1.387 . S
C553 C555 1.387 . S
H554 C561 0.950 . S
C555 C553 1.387 . S
C555 C557 1.390 1_565 S
C555 H559 0.950 . S
H556 C552 0.950 . S
C557 C555 1.390 1_545 S
C557 C558 1.387 . S
C557 H560 0.950 . S
C558 C557 1.387 . S
C558 C561 1.387 . S
H559 C555 0.950 . S
H560 C557 0.950 . S
C561 C552 1.390 1_545 S
C561 H554 0.950 . S
C561 C558 1.387 . S
C562 C563 1.387 . S
C562 H566 0.950 . S
C562 C571 1.390 1_655 S
C563 C562 1.387 . S
C563 C565 1.387 . S
H564 C571 0.950 . S
C565 C563 1.387 . S
C565 C567 1.390 1_655 S
C565 H569 0.950 . S
H566 C562 0.950 . S
C567 C565 1.390 1_455 S
C567 C568 1.387 . S
C567 H570 0.950 . S
C568 C567 1.387 . S
C568 C571 1.387 . S
H569 C565 0.950 . S
H570 C567 0.950 . S
C571 C562 1.390 1_455 S
C571 H564 0.950 . S
C571 C568 1.387 . S
C572 C573 1.387 . S
C572 H576 0.950 . S
C572 C581 1.390 1_565 S
C573 C572 1.387 . S
C573 C575 1.387 . S
H574 C581 0.950 . S
C575 C573 1.387 . S
C575 C577 1.390 1_565 S
C575 H579 0.950 . S
H576 C572 0.950 . S
C577 C575 1.390 1_545 S
C577 C578 1.387 . S
C577 H580 0.950 . S
C578 C577 1.387 . S
C578 C581 1.387 . S
H579 C575 0.950 . S
H580 C577 0.950 . S
C581 C572 1.390 1_545 S
C581 H574 0.950 . S
C581 C578 1.387 . S
C582 C583 1.387 . S
C582 H586 0.950 . S
C582 C591 1.390 1_655 S
C583 C582 1.387 . S
C583 C585 1.387 . S
H584 C591 0.950 . S
C585 C583 1.387 . S
C585 C587 1.390 1_655 S
C585 H589 0.950 . S
H586 C582 0.950 . S
C587 C585 1.390 1_455 S
C587 C588 1.387 . S
C587 H590 0.950 . S
C588 C587 1.387 . S
C588 C591 1.387 . S
H589 C585 0.950 . S
H590 C587 0.950 . S
C591 C582 1.390 1_455 S
C591 H584 0.950 . S
C591 C588 1.387 . S
C592 C593 1.387 . S
C592 H596 0.950 . S
C592 C601 1.390 . S
C593 C592 1.387 . S
C593 C595 1.387 . S
H594 C601 0.950 . S
C595 C593 1.387 . S
C595 C597 1.390 . S
C595 H599 0.950 . S
H596 C592 0.950 . S
C597 C595 1.390 . S
C597 C598 1.387 . S
C597 H600 0.950 . S
C598 C597 1.387 . S
C598 C601 1.387 . S
H599 C595 0.950 . S
H600 C597 0.950 . S
C601 C592 1.390 . S
C601 H594 0.950 . S
C601 C598 1.387 . S
C602 C603 1.387 . S
C602 H606 0.950 . S
C602 C611 1.390 . S
C603 C602 1.387 . S
C603 C605 1.387 . S
H604 C611 0.950 . S
C605 C603 1.387 . S
C605 C607 1.390 . S
C605 H609 0.950 . S
H606 C602 0.950 . S
C607 C605 1.390 . S
C607 C608 1.387 . S
C607 H610 0.950 . S
C608 C607 1.387 . S
C608 C611 1.387 . S
H609 C605 0.950 . S
H610 C607 0.950 . S
C611 C602 1.390 . S
C611 H604 0.950 . S
C611 C608 1.387 . S
C612 C613 1.387 . S
C612 H616 0.950 . S
C612 C621 1.390 . S
C613 C612 1.387 . S
C613 C615 1.387 . S
H614 C621 0.950 . S
C615 C613 1.387 . S
C615 C617 1.390 . S
C615 H619 0.950 . S
H616 C612 0.950 . S
C617 C615 1.390 . S
C617 C618 1.387 . S
C617 H620 0.950 . S
C618 C617 1.387 . S
C618 C621 1.387 . S
H619 C615 0.950 . S
H620 C617 0.950 . S
C621 C612 1.390 . S
C621 H614 0.950 . S
C621 C618 1.387 . S
C622 C623 1.387 . S
C622 H626 0.950 . S
C622 C631 1.390 . S
C623 C622 1.387 . S
C623 C625 1.387 . S
H624 C631 0.950 . S
C625 C623 1.387 . S
C625 C627 1.390 . S
C625 H629 0.950 . S
H626 C622 0.950 . S
C627 C625 1.390 . S
C627 C628 1.387 . S
C627 H630 0.950 . S
C628 C627 1.387 . S
C628 C631 1.387 . S
H629 C625 0.950 . S
H630 C627 0.950 . S
C631 C622 1.390 . S
C631 H624 0.950 . S
C631 C628 1.387 . S
C473 C33 1.075 . S
C478 C387 1.075 . S
C483 C92 1.075 . S
C488 C446 1.075 . S
C493 C269 1.075 . S
C498 C151 1.075 . S
C503 C328 1.073 . S
C508 C210 1.073 . S
C513 C5 1.621 . S
C518 C300 1.621 . S
C523 C64 1.622 . S
C528 C359 1.622 . S
C533 C418 1.622 1_556 S
C538 C123 1.622 . S
C543 C182 1.622 . S
C548 C241 1.622 . S
C553 C288 1.601 . S
C558 C52 1.601 . S
C563 C111 1.599 . S
C568 C347 1.599 . S
C573 C170 1.601 . S
C578 C406 1.601 . S
C583 C465 1.601 . S
C588 C229 1.601 . S
C593 C357 1.371 1_554 S
C598 C3 1.371 . S
C603 C416 1.372 . S
C608 C62 1.372 . S
C613 C121 1.372 . S
C618 C239 1.372 . S
C623 C180 1.371 . S
C628 C298 1.371 . S
