# Generated by pormake.
# Topology mok, (4)-cn, num edge types: 1
# Building blocks:
#     Node 0, Type 0, BuildingBlock: AZAVOO_clean_sbu_0, # of connection points: 4
#     Node 1, Type 0, BuildingBlock: AZAVOO_clean_sbu_0, # of connection points: 4
#     Node 2, Type 0, BuildingBlock: AZAVOO_clean_sbu_0, # of connection points: 4
#     Node 3, Type 0, BuildingBlock: AZAVOO_clean_sbu_0, # of connection points: 4
#     Node 4, Type 0, BuildingBlock: AZAVOO_clean_sbu_0, # of connection points: 4
#     Node 5, Type 0, BuildingBlock: AZAVOO_clean_sbu_0, # of connection points: 4
#     Node 6, Type 0, BuildingBlock: AZAVOO_clean_sbu_0, # of connection points: 4
#     Node 7, Type 0, BuildingBlock: AZAVOO_clean_sbu_0, # of connection points: 4
#     Edge 8, Type (0, 0), BuildingBlock: CIFDUS_clean_linker_0, # of connection points: 2
#     Edge 9, Type (0, 0), BuildingBlock: CIFDUS_clean_linker_0, # of connection points: 2
#     Edge 10, Type (0, 0), BuildingBlock: CIFDUS_clean_linker_0, # of connection points: 2
#     Edge 11, Type (0, 0), BuildingBlock: CIFDUS_clean_linker_0, # of connection points: 2
#     Edge 12, Type (0, 0), BuildingBlock: CIFDUS_clean_linker_0, # of connection points: 2
#     Edge 13, Type (0, 0), BuildingBlock: CIFDUS_clean_linker_0, # of connection points: 2
#     Edge 14, Type (0, 0), BuildingBlock: CIFDUS_clean_linker_0, # of connection points: 2
#     Edge 15, Type (0, 0), BuildingBlock: CIFDUS_clean_linker_0, # of connection points: 2
#     Edge 16, Type (0, 0), BuildingBlock: CIFDUS_clean_linker_0, # of connection points: 2
#     Edge 17, Type (0, 0), BuildingBlock: CIFDUS_clean_linker_0, # of connection points: 2
#     Edge 18, Type (0, 0), BuildingBlock: CIFDUS_clean_linker_0, # of connection points: 2
#     Edge 19, Type (0, 0), BuildingBlock: CIFDUS_clean_linker_0, # of connection points: 2
#     Edge 20, Type (0, 0), BuildingBlock: CIFDUS_clean_linker_0, # of connection points: 2
#     Edge 21, Type (0, 0), BuildingBlock: CIFDUS_clean_linker_0, # of connection points: 2
#     Edge 22, Type (0, 0), BuildingBlock: CIFDUS_clean_linker_0, # of connection points: 2
#     Edge 23, Type (0, 0), BuildingBlock: CIFDUS_clean_linker_0, # of connection points: 2
# Relax obj value: 0.032
# Max RMSD: 0.042
# Mean RMSD: 0.042
data_MOF--net-mok--node1-AZAVOO_clean_sbu_0--edge1-CIFDUS_clean_linker_0
_symmetry_space_group_name_H-M    P1
_symmetry_Int_Tables_number       1
_symmetry_cell_setting            triclinic
loop_
_symmetry_equiv_pos_as_xyz
'x, y, z'
_cell_length_a     37.202984
_cell_length_b     19.043566
_cell_length_c     23.858798
_cell_angle_alpha  89.332674
_cell_angle_beta   89.51877
_cell_angle_gamma 89.784914
loop_
_atom_site_label
_atom_site_type_symbol
_atom_site_fract_x
_atom_site_fract_y
_atom_site_fract_z
_atom_type_partial_charge
Mg0 Mg 0.57423 0.34105 0.01387 0.0
O1 O 0.62872 0.28213 0.02368 0.0
O2 O 0.62437 0.22988 0.10781 0.0
Mg3 Mg 0.5718 0.25693 0.15273 0.0
C4 C 0.64177 0.24287 0.06248 0.0
C5 C 0.60866 0.40201 0.9043 0.0
O6 O 0.63278 0.4217 0.94076 0.0
O7 O 0.54391 0.23776 -0.00157 0.0
O8 O 0.53897 0.19932 0.08725 0.0
O9 O 0.59666 0.43697 0.05483 0.0
O10 O 0.56929 0.35138 0.10059 0.0
C11 C 0.53158 0.19474 0.03528 0.0
C12 C 0.58602 0.41018 0.10217 0.0
O13 O 0.58304 0.36257 0.92064 0.0
Mg14 Mg 0.42183 0.66669 0.02469 0.0
O15 O 0.36102 0.69232 0.03927 0.0
O16 O 0.35861 0.74707 0.12178 0.0
Mg17 Mg 0.41456 0.76441 0.15621 0.0
C18 C 0.34328 0.72117 0.07912 0.0
C19 C 0.42165 0.57354 0.91809 0.0
O20 O 0.43494 0.52956 0.95542 0.0
O21 O 0.43399 0.78031 -0.0024 0.0
O22 O 0.42956 0.83356 0.08044 0.0
O23 O 0.41677 0.56783 0.0774 0.0
O24 O 0.43167 0.67067 0.11098 0.0
C25 C 0.43564 0.83526 0.02767 0.0
C26 C 0.42461 0.60561 0.12034 0.0
O27 O 0.412 0.63452 0.93374 0.0
Mg28 Mg 0.58741 0.64521 0.49535 0.0
O29 O 0.64904 0.65873 0.48067 0.0
O30 O 0.65485 0.69808 0.39204 0.0
Mg31 Mg 0.60011 0.7184 0.35357 0.0
C32 C 0.66836 0.6777 0.43849 0.0
C33 C 0.56843 0.58337 0.60763 0.0
O34 O 0.54083 0.57173 0.57503 0.0
O35 O 0.58097 0.76385 0.50902 0.0
O36 O 0.58883 0.80109 0.42049 0.0
O37 O 0.58883 0.5382 0.45796 0.0
O38 O 0.57985 0.63559 0.40898 0.0
C39 C 0.58272 0.81312 0.47227 0.0
C40 C 0.58456 0.56859 0.40974 0.0
O41 O 0.59451 0.61942 0.58811 0.0
Mg42 Mg 0.4468 0.32482 0.50133 0.0
O43 O 0.38968 0.27865 0.49359 0.0
O44 O 0.38948 0.22009 0.41284 0.0
Mg45 Mg 0.44389 0.22979 0.36812 0.0
C46 C 0.37367 0.24099 0.45744 0.0
C47 C 0.43529 0.4136 0.60981 0.0
O48 O 0.43658 0.4638 0.57163 0.0
O49 O 0.46972 0.21553 0.52358 0.0
O50 O 0.47142 0.16781 0.43825 0.0
O51 O 0.42996 0.4224 0.45353 0.0
O52 O 0.45147 0.32729 0.41364 0.0
C53 C 0.47831 0.16579 0.49054 0.0
C54 C 0.43766 0.38889 0.40812 0.0
O55 O 0.43784 0.34999 0.59434 0.0
Mg56 Mg 0.05372 0.84506 0.00823 0.0
O57 O 0.1129 0.80705 0.01572 0.0
O58 O 0.11668 0.75965 0.10159 0.0
Mg59 Mg 0.06373 0.77067 0.1499 0.0
C60 C 0.13087 0.77591 0.05427 0.0
C61 C 0.07427 0.91702 0.89618 0.0
O62 O 0.08905 0.95872 0.93281 0.0
O63 O 0.03325 0.73212 -0.00067 0.0
O64 O 0.03437 0.69932 0.08974 0.0
O65 O 0.06715 0.95036 0.0438 0.0
O66 O 0.0504 0.85922 0.09499 0.0
C67 C 0.02583 0.68863 0.03889 0.0
C68 C 0.06089 0.92336 0.09284 0.0
O69 O 0.059 0.86116 0.91362 0.0
Mg70 Mg 0.93685 0.14341 0.00012 0.0
O71 O 0.87501 0.1645 -0.00022 0.0
O72 O 0.86249 0.20701 0.08503 0.0
Mg73 Mg 0.91364 0.22121 0.13501 0.0
C74 C 0.85268 0.18705 0.03664 0.0
C75 C 0.95628 0.06046 0.90061 0.0
O76 O 0.97086 0.02854 0.94394 0.0
O77 O 0.94797 0.25955 0.98438 0.0
O78 O 0.93416 0.30071 0.06924 0.0
O79 O 0.92876 0.03794 0.03915 0.0
O80 O 0.93671 0.13491 0.0872 0.0
C81 C 0.94512 0.31009 0.01879 0.0
C82 C 0.93071 0.06837 0.0871 0.0
O83 O 0.93877 0.11714 0.90808 0.0
Mg84 Mg 0.0816 0.16965 0.48013 0.0
O85 O 0.14334 0.17275 0.46424 0.0
O86 O 0.15078 0.20624 0.37461 0.0
Mg87 Mg 0.09686 0.2334 0.33622 0.0
C88 C 0.16344 0.18619 0.42169 0.0
C89 C 0.07164 0.09736 0.59263 0.0
O90 O 0.05031 0.06348 0.55876 0.0
O91 O 0.08042 0.28895 0.48987 0.0
O92 O 0.08948 0.32076 0.40031 0.0
O93 O 0.07859 0.06166 0.44494 0.0
O94 O 0.07196 0.15863 0.3946 0.0
C95 C 0.08419 0.33605 0.45172 0.0
C96 C 0.07401 0.09122 0.39643 0.0
O97 O 0.08962 0.14908 0.57329 0.0
Mg98 Mg 0.95128 0.84831 0.48568 0.0
O99 O 0.89409 0.80055 0.48661 0.0
O100 O 0.89046 0.74298 0.4057 0.0
Mg101 Mg 0.94178 0.75634 0.35338 0.0
C102 C 0.87678 0.76219 0.45242 0.0
C103 C 0.96105 0.93931 0.58323 0.0
O104 O 0.9729 0.97434 0.53909 0.0
O105 O 0.97574 0.74076 0.50476 0.0
O106 O 0.97388 0.6942 0.41903 0.0
O107 O 0.93078 0.94526 0.44404 0.0
O108 O 0.95145 0.85303 0.39871 0.0
C109 C 0.9833 0.69199 0.47038 0.0
C110 C 0.93704 0.91455 0.39691 0.0
O111 O 0.94882 0.87766 0.57687 0.0
H112 H 0.79993 0.13754 0.10261 0.0
H113 H 0.81864 0.24459 0.94523 0.0
H114 H 0.75379 0.26767 0.93631 0.0
H115 H 0.69252 0.26756 0.97933 0.0
H116 H 0.67584 0.15624 0.13636 0.0
H117 H 0.73887 0.12414 0.13885 0.0
C118 C 0.78967 0.16485 0.06586 0.0
C119 C 0.8138 0.1898 0.02484 0.0
C120 C 0.75269 0.17772 0.06122 0.0
C121 C 0.80038 0.22463 0.97717 0.0
C122 C 0.76339 0.23825 0.97238 0.0
C123 C 0.70257 0.23543 0.01364 0.0
C124 C 0.67928 0.21568 0.0581 0.0
C125 C 0.73933 0.21663 0.015 0.0
C126 C 0.69291 0.17335 0.10189 0.0
C127 C 0.72912 0.15477 0.10349 0.0
H128 H 0.17791 0.73003 0.13261 0.0
H129 H 0.17223 0.79093 0.95811 0.0
H130 H 0.23739 0.77397 0.94846 0.0
H131 H 0.29692 0.74767 -0.00818 0.0
H132 H 0.30052 0.69461 0.16799 0.0
H133 H 0.23533 0.70206 0.17449 0.0
C134 C 0.19066 0.73916 0.09216 0.0
C135 C 0.16998 0.76181 0.0462 0.0
C136 C 0.228 0.73078 0.08725 0.0
C137 C 0.18738 0.77357 -0.00567 0.0
C138 C 0.22469 0.76392 0.98877 0.0
C139 C 0.28324 0.73703 0.03129 0.0
C140 C 0.30349 0.72076 0.07941 0.0
C141 C 0.24543 0.74333 0.03521 0.0
C142 C 0.28555 0.70774 0.1305 0.0
C143 C 0.24825 0.71194 0.1343 0.0
H144 H 0.83376 0.67955 0.39036 0.0
H145 H 0.83405 0.80089 0.54206 0.0
H146 H 0.76978 0.77799 0.55546 0.0
H147 H 0.71201 0.73269 0.51849 0.0
H148 H 0.71296 0.61888 0.36333 0.0
H149 H 0.77821 0.62886 0.35726 0.0
C150 C 0.82001 0.70068 0.42675 0.0
C151 C 0.83882 0.7426 0.46476 0.0
C152 C 0.78308 0.68859 0.43351 0.0
C153 C 0.82033 0.76876 0.51186 0.0
C154 C 0.7835 0.75579 0.51951 0.0
C155 C 0.72676 0.70891 0.48416 0.0
C156 C 0.70791 0.67495 0.44143 0.0
C157 C 0.76438 0.71703 0.4799 0.0
C158 C 0.72704 0.64526 0.39659 0.0
C159 C 0.76429 0.65116 0.393 0.0
H160 H 0.2065 0.22337 0.50877 0.0
H161 H 0.2087 0.13621 0.34272 0.0
H162 H 0.27419 0.13917 0.34172 0.0
H163 H 0.33017 0.17607 0.38373 0.0
H164 H 0.32932 0.27109 0.54715 0.0
H165 H 0.26414 0.25512 0.55364 0.0
C166 C 0.22147 0.20389 0.47296 0.0
C167 C 0.2029 0.17967 0.42585 0.0
C168 C 0.25932 0.20789 0.47189 0.0
C169 C 0.22247 0.1554 0.37932 0.0
C170 C 0.2599 0.15718 0.37866 0.0
C171 C 0.31596 0.19273 0.42118 0.0
C172 C 0.33477 0.22521 0.46469 0.0
C173 C 0.27853 0.18491 0.42407 0.0
C174 C 0.31561 0.24625 0.5128 0.0
C175 C 0.27827 0.23722 0.51654 0.0
H176 H 0.56759 0.36422 0.20681 0.0
H177 H 0.61715 0.53803 0.11831 0.0
H178 H 0.622 0.60197 0.20615 0.0
H179 H 0.6099 0.61 0.30728 0.0
H180 H 0.56175 0.43499 0.39572 0.0
H181 H 0.55917 0.36908 0.30848 0.0
C182 C 0.57997 0.41556 0.20662 0.0
C183 C 0.592 0.44617 0.15592 0.0
C184 C 0.58277 0.45183 0.2572 0.0
C185 C 0.60769 0.51316 0.15671 0.0
C186 C 0.61039 0.54985 0.2069 0.0
C187 C 0.59865 0.55772 0.30741 0.0
C188 C 0.58546 0.52783 0.35758 0.0
C189 C 0.59754 0.52007 0.25723 0.0
C190 C 0.57203 0.45905 0.35748 0.0
C191 C 0.57044 0.4215 0.30764 0.0
H192 H 0.41251 0.47012 0.15394 0.0
H193 H 0.43949 0.67456 0.21716 0.0
H194 H 0.44303 0.62676 0.31182 0.0
H195 H 0.44138 0.52575 0.37686 0.0
H196 H 0.4175 0.32035 0.31344 0.0
H197 H 0.41005 0.36922 0.21934 0.0
C198 C 0.41888 0.50431 0.18847 0.0
C199 C 0.42521 0.57612 0.1782 0.0
C200 C 0.42177 0.47609 0.24305 0.0
C201 C 0.43383 0.6194 0.22355 0.0
C202 C 0.43612 0.59201 0.27793 0.0
C203 C 0.4342 0.49193 0.34247 0.0
C204 C 0.43042 0.41943 0.35204 0.0
C205 C 0.43043 0.52035 0.28816 0.0
C206 C 0.42138 0.37605 0.30708 0.0
C207 C 0.41687 0.40409 0.25319 0.0
H208 H 0.43341 0.44444 0.87344 0.0
H209 H 0.40797 0.65876 0.82759 0.0
H210 H 0.40988 0.62805 0.72849 0.0
H211 H 0.42007 0.54108 0.65474 0.0
H212 H 0.44414 0.32617 0.70054 0.0
H213 H 0.44146 0.35649 0.79972 0.0
C214 C 0.42811 0.48444 0.84183 0.0
C215 C 0.42062 0.55389 0.85808 0.0
C216 C 0.42911 0.46636 0.78485 0.0
C217 C 0.41369 0.60488 0.81642 0.0
C218 C 0.4149 0.5874 0.75966 0.0
C219 C 0.42464 0.50075 0.68637 0.0
C220 C 0.43235 0.43142 0.67008 0.0
C221 C 0.42279 0.51843 0.74338 0.0
C222 C 0.43804 0.37987 0.71177 0.0
C223 C 0.43657 0.3972 0.76856 0.0
H224 H 0.55219 0.40945 0.833 0.0
H225 H 0.66316 0.47049 0.84948 0.0
H226 H 0.66035 0.53397 0.75993 0.0
H227 H 0.62602 0.57366 0.67754 0.0
H228 H 0.51463 0.51403 0.66284 0.0
H229 H 0.51786 0.44955 0.75145 0.0
C230 C 0.57591 0.43592 0.81674 0.0
C231 C 0.60793 0.43478 0.84772 0.0
C232 C 0.57389 0.47346 0.76586 0.0
C233 C 0.63823 0.47032 0.82637 0.0
C234 C 0.63659 0.5069 0.77528 0.0
C235 C 0.60241 0.54696 0.69392 0.0
C236 C 0.57017 0.5488 0.6635 0.0
C237 C 0.60448 0.50935 0.74489 0.0
C238 C 0.53984 0.51353 0.68525 0.0
C239 C 0.54166 0.47634 0.7359 0.0
H240 H 0.06762 0.87434 0.19985 0.0
H241 H 0.06314 0.06561 0.10147 0.0
H242 H 0.06611 0.13464 0.18702 0.0
H243 H 0.06821 0.13991 0.28925 0.0
H244 H 0.076 0.94852 0.38723 0.0
H245 H 0.07282 0.8796 0.30173 0.0
C246 C 0.06745 0.93095 0.19686 0.0
C247 C 0.06516 0.96466 0.14429 0.0
C248 C 0.06953 0.97009 0.24604 0.0
C249 C 0.06517 0.03837 0.14143 0.0
C250 C 0.06667 0.07781 0.19031 0.0
C251 C 0.06985 0.08326 0.2921 0.0
C252 C 0.0728 0.04956 0.34464 0.0
C253 C 0.06872 0.04415 0.24281 0.0
C254 C 0.07397 0.97585 0.34733 0.0
C255 C 0.07215 0.93643 0.29847 0.0
H256 H 0.94443 0.86148 0.2922 0.0
H257 H 0.91228 0.04796 0.38112 0.0
H258 H 0.90535 0.11129 0.29242 0.0
H259 H 0.91244 0.11568 0.19043 0.0
H260 H 0.94359 0.92898 0.10135 0.0
H261 H 0.94641 0.86313 0.18965 0.0
C262 C 0.93538 0.91556 0.29227 0.0
C263 C 0.92904 0.94996 0.34319 0.0
C264 C 0.93141 0.95164 0.24121 0.0
C265 C 0.91739 0.02024 0.34244 0.0
C266 C 0.9135 0.05661 0.29178 0.0
C267 C 0.91959 0.0606 0.19025 0.0
C268 C 0.92811 0.02745 0.13963 0.0
C269 C 0.9211 0.02316 0.24102 0.0
C270 C 0.9368 0.9556 0.13994 0.0
C271 C 0.93861 0.918 0.19036 0.0
H272 H 0.95985 0.87442 0.68481 0.0
H273 H 0.96365 0.07882 0.60512 0.0
H274 H 0.96232 0.13501 0.69653 0.0
H275 H 0.95831 0.12596 0.79932 0.0
H276 H 0.95981 0.92147 0.87886 0.0
H277 H 0.96078 0.86529 0.78738 0.0
C278 C 0.96022 0.93123 0.68757 0.0
C279 C 0.96125 0.97247 0.63855 0.0
C280 C 0.96025 0.96313 0.74017 0.0
C281 C 0.96262 0.04599 0.64247 0.0
C282 C 0.96183 0.07819 0.69465 0.0
C283 C 0.9588 0.06916 0.79637 0.0
C284 C 0.9584 0.02776 0.8453 0.0
C285 C 0.96032 0.03728 0.74376 0.0
C286 C 0.95988 0.95427 0.84144 0.0
C287 C 0.96032 0.92213 0.78928 0.0
H288 H 0.10079 0.03632 0.8486 0.0
H289 H 0.04293 0.84709 0.80979 0.0
H290 H 0.03685 0.88679 0.71262 0.0
H291 H 0.04657 0.97643 0.63947 0.0
H292 H 0.10531 0.16471 0.67794 0.0
H293 H 0.1119 0.12446 0.77495 0.0
C294 C 0.08695 0.00351 0.81891 0.0
C295 C 0.07238 0.93876 0.83652 0.0
C296 C 0.08329 0.02688 0.76327 0.0
C297 C 0.05453 0.89704 0.79738 0.0
C298 C 0.05088 0.91986 0.74185 0.0
C299 C 0.06078 0.0088 0.66905 0.0
C300 C 0.07537 0.07361 0.65152 0.0
C301 C 0.06485 0.98497 0.7245 0.0
C302 C 0.09386 0.11462 0.69034 0.0
C303 C 0.09765 0.09163 0.7458 0.0
H304 H 0.4144 0.9656 0.05442 0.0
H305 H 0.48933 0.85338 0.94967 0.0
H306 H 0.52394 0.9613 0.93388 0.0
H307 H 0.53882 0.08196 0.9657 0.0
H308 H 0.46422 0.18947 0.07437 0.0
H309 H 0.42329 0.08997 0.07217 0.0
C310 C 0.43771 0.96535 0.02676 0.0
C311 C 0.44961 0.90178 0.00385 0.0
C312 C 0.45782 0.02681 0.01924 0.0
C313 C 0.47963 0.90192 0.96769 0.0
C314 C 0.49965 0.96346 0.95921 0.0
C315 C 0.51303 0.08411 0.98717 0.0
C316 C 0.50442 0.14239 0.02038 0.0
C317 C 0.48995 0.02547 0.98702 0.0
C318 C 0.47124 0.14478 0.04871 0.0
C319 C 0.44794 0.08785 0.04769 0.0
H320 H 0.53164 0.86158 0.54548 0.0
H321 H 0.61524 0.92899 0.43081 0.0
H322 H 0.59312 0.04938 0.43469 0.0
H323 H 0.54403 0.13001 0.45655 0.0
H324 H 0.4582 0.06474 0.56712 0.0
H325 H 0.48716 0.94935 0.57986 0.0
C326 C 0.54562 0.9032 0.52293 0.0
C327 C 0.57479 0.88653 0.48744 0.0
C328 C 0.53196 0.97236 0.52395 0.0
C329 C 0.59254 0.94063 0.45797 0.0
C330 C 0.57983 0.00939 0.45996 0.0
C331 C 0.53232 0.09107 0.48478 0.0
C332 C 0.49921 0.1051 0.51082 0.0
C333 C 0.54864 0.02508 0.49064 0.0
C334 C 0.48393 0.05478 0.5471 0.0
C335 C 0.50033 0.98877 0.55388 0.0
H336 H 0.03466 0.58213 0.96341 0.0
H337 H 0.96455 0.66089 0.09329 0.0
H338 H 0.92945 0.55335 0.0919 0.0
H339 H 0.92382 0.43208 0.06385 0.0
H340 H 0.99502 0.34706 0.93812 0.0
H341 H 0.02406 0.46186 0.92673 0.0
C342 C 0.0112 0.57591 -0.00972 0.0
C343 C 1.00223 0.62856 0.02877 0.0
C344 C 0.9916 0.51267 -0.0096 0.0
C345 C 0.97198 0.62039 0.06377 0.0
C346 C 0.95196 0.55901 0.06306 0.0
C347 C 0.94535 0.43885 0.0333 0.0
C348 C 0.95769 0.38107 0.00264 0.0
C349 C 0.96234 0.50395 0.02814 0.0
C350 C 0.98513 0.39086 0.96243 0.0
C351 C 1.00191 0.45634 0.95623 0.0
H352 H 0.03934 0.39162 0.5309 0.0
H353 H 0.11478 0.44777 0.39962 0.0
H354 H 0.09314 0.56855 0.40044 0.0
H355 H 0.04558 0.65127 0.42551 0.0
H356 H 0.96858 0.59737 0.55445 0.0
H357 H 0.99808 0.48276 0.56819 0.0
C358 C 0.05179 0.43093 0.50389 0.0
C359 C 0.07815 0.41074 0.46455 0.0
C360 C 0.03845 0.50018 0.50345 0.0
C361 C 0.09408 0.46201 0.42966 0.0
C362 C 0.08163 0.53098 0.42991 0.0
C363 C 0.03593 0.61493 0.45759 0.0
C364 C 1.00497 0.63154 0.48853 0.0
C365 C 0.05266 0.54959 0.46452 0.0
C366 C 0.99252 0.58503 0.53029 0.0
C367 C 0.00923 0.51956 0.5378 0.0
loop_
_geom_bond_atom_site_label_1
_geom_bond_atom_site_label_2
_geom_bond_distance
_geom_bond_site_symmetry_2
_ccdc_geom_bond_type
Mg0 O1 2.028 . S
Mg0 O7 1.986 . S
Mg0 O9 2.114 . S
Mg0 O10 2.251 . S
Mg0 O13 2.010 1_554 S
O1 Mg0 2.028 . S
O1 C4 1.250 . S
O2 Mg3 2.028 . S
O2 C4 1.248 . S
Mg3 O2 2.028 . S
Mg3 O8 2.032 . S
Mg3 O10 2.079 . S
C4 O1 1.250 . S
C4 O2 1.248 . S
C5 O6 1.264 . S
C5 O13 1.249 . S
O6 C5 1.264 . S
O7 Mg0 1.986 . S
O7 C11 1.246 . S
O8 Mg3 2.032 . S
O8 C11 1.259 . S
O9 Mg0 2.114 . S
O9 C12 1.252 . S
O10 Mg0 2.251 . S
O10 Mg3 2.079 . S
O10 C12 1.273 . S
C11 O7 1.246 . S
C11 O8 1.259 . S
C12 O9 1.252 . S
C12 O10 1.273 . S
O13 Mg0 2.010 1_556 S
O13 C5 1.249 . S
Mg14 O15 2.028 . S
Mg14 O21 1.986 . S
Mg14 O23 2.114 . S
Mg14 O24 2.251 . S
Mg14 O27 2.010 1_554 S
O15 Mg14 2.028 . S
O15 C18 1.250 . S
O16 Mg17 2.028 . S
O16 C18 1.248 . S
Mg17 O16 2.028 . S
Mg17 O22 2.032 . S
Mg17 O24 2.079 . S
C18 O15 1.250 . S
C18 O16 1.248 . S
C19 O20 1.264 . S
C19 O27 1.249 . S
O20 C19 1.264 . S
O21 Mg14 1.986 . S
O21 C25 1.246 . S
O22 Mg17 2.032 . S
O22 C25 1.259 . S
O23 Mg14 2.114 . S
O23 C26 1.252 . S
O24 Mg14 2.251 . S
O24 Mg17 2.079 . S
O24 C26 1.273 . S
C25 O21 1.246 . S
C25 O22 1.259 . S
C26 O23 1.252 . S
C26 O24 1.273 . S
O27 Mg14 2.010 1_556 S
O27 C19 1.249 . S
Mg28 O29 2.028 . S
Mg28 O35 1.986 . S
Mg28 O37 2.114 . S
Mg28 O38 2.251 . S
Mg28 O41 2.010 . S
O29 Mg28 2.028 . S
O29 C32 1.250 . S
O30 Mg31 2.028 . S
O30 C32 1.248 . S
Mg31 O30 2.028 . S
Mg31 O36 2.032 . S
Mg31 O38 2.079 . S
C32 O29 1.250 . S
C32 O30 1.248 . S
C33 O34 1.264 . S
C33 O41 1.249 . S
O34 C33 1.264 . S
O35 Mg28 1.986 . S
O35 C39 1.246 . S
O36 Mg31 2.032 . S
O36 C39 1.259 . S
O37 Mg28 2.114 . S
O37 C40 1.252 . S
O38 Mg28 2.251 . S
O38 Mg31 2.079 . S
O38 C40 1.273 . S
C39 O35 1.246 . S
C39 O36 1.259 . S
C40 O37 1.252 . S
C40 O38 1.273 . S
O41 Mg28 2.010 . S
O41 C33 1.249 . S
Mg42 O43 2.028 . S
Mg42 O49 1.986 . S
Mg42 O51 2.114 . S
Mg42 O52 2.251 . S
Mg42 O55 2.010 . S
O43 Mg42 2.028 . S
O43 C46 1.250 . S
O44 Mg45 2.028 . S
O44 C46 1.248 . S
Mg45 O44 2.028 . S
Mg45 O50 2.032 . S
Mg45 O52 2.079 . S
C46 O43 1.250 . S
C46 O44 1.248 . S
C47 O48 1.264 . S
C47 O55 1.249 . S
O48 C47 1.264 . S
O49 Mg42 1.986 . S
O49 C53 1.246 . S
O50 Mg45 2.032 . S
O50 C53 1.259 . S
O51 Mg42 2.114 . S
O51 C54 1.252 . S
O52 Mg42 2.251 . S
O52 Mg45 2.079 . S
O52 C54 1.273 . S
C53 O49 1.246 . S
C53 O50 1.259 . S
C54 O51 1.252 . S
C54 O52 1.273 . S
O55 Mg42 2.010 . S
O55 C47 1.249 . S
Mg56 O57 2.028 . S
Mg56 O63 1.986 . S
Mg56 O65 2.114 . S
Mg56 O66 2.251 . S
Mg56 O69 2.010 1_554 S
O57 Mg56 2.028 . S
O57 C60 1.250 . S
O58 Mg59 2.028 . S
O58 C60 1.248 . S
Mg59 O58 2.028 . S
Mg59 O64 2.032 . S
Mg59 O66 2.079 . S
C60 O57 1.250 . S
C60 O58 1.248 . S
C61 O62 1.264 . S
C61 O69 1.249 . S
O62 C61 1.264 . S
O63 Mg56 1.986 . S
O63 C67 1.246 . S
O64 Mg59 2.032 . S
O64 C67 1.259 . S
O65 Mg56 2.114 . S
O65 C68 1.252 . S
O66 Mg56 2.251 . S
O66 Mg59 2.079 . S
O66 C68 1.273 . S
C67 O63 1.246 . S
C67 O64 1.259 . S
C68 O65 1.252 . S
C68 O66 1.273 . S
O69 Mg56 2.010 1_556 S
O69 C61 1.249 . S
Mg70 O71 2.028 . S
Mg70 O77 1.986 . S
Mg70 O79 2.114 . S
Mg70 O80 2.251 . S
Mg70 O83 2.010 1_554 S
O71 Mg70 2.028 . S
O71 C74 1.250 . S
O72 Mg73 2.028 . S
O72 C74 1.248 . S
Mg73 O72 2.028 . S
Mg73 O78 2.032 . S
Mg73 O80 2.079 . S
C74 O71 1.250 . S
C74 O72 1.248 . S
C75 O76 1.264 . S
C75 O83 1.249 . S
O76 C75 1.264 . S
O77 Mg70 1.986 . S
O77 C81 1.246 . S
O78 Mg73 2.032 . S
O78 C81 1.259 . S
O79 Mg70 2.114 . S
O79 C82 1.252 . S
O80 Mg70 2.251 . S
O80 Mg73 2.079 . S
O80 C82 1.273 . S
C81 O77 1.246 . S
C81 O78 1.259 . S
C82 O79 1.252 . S
C82 O80 1.273 . S
O83 Mg70 2.010 1_556 S
O83 C75 1.249 . S
Mg84 O85 2.028 . S
Mg84 O91 1.986 . S
Mg84 O93 2.114 . S
Mg84 O94 2.251 . S
Mg84 O97 2.010 . S
O85 Mg84 2.028 . S
O85 C88 1.250 . S
O86 Mg87 2.028 . S
O86 C88 1.248 . S
Mg87 O86 2.028 . S
Mg87 O92 2.032 . S
Mg87 O94 2.079 . S
C88 O85 1.250 . S
C88 O86 1.248 . S
C89 O90 1.264 . S
C89 O97 1.249 . S
O90 C89 1.264 . S
O91 Mg84 1.986 . S
O91 C95 1.246 . S
O92 Mg87 2.032 . S
O92 C95 1.259 . S
O93 Mg84 2.114 . S
O93 C96 1.252 . S
O94 Mg84 2.251 . S
O94 Mg87 2.079 . S
O94 C96 1.273 . S
C95 O91 1.246 . S
C95 O92 1.259 . S
C96 O93 1.252 . S
C96 O94 1.273 . S
O97 Mg84 2.010 . S
O97 C89 1.249 . S
Mg98 O99 2.028 . S
Mg98 O105 1.986 . S
Mg98 O107 2.114 . S
Mg98 O108 2.251 . S
Mg98 O111 2.010 . S
O99 Mg98 2.028 . S
O99 C102 1.250 . S
O100 Mg101 2.028 . S
O100 C102 1.248 . S
Mg101 O100 2.028 . S
Mg101 O106 2.032 . S
Mg101 O108 2.079 . S
C102 O99 1.250 . S
C102 O100 1.248 . S
C103 O104 1.264 . S
C103 O111 1.249 . S
O104 C103 1.264 . S
O105 Mg98 1.986 . S
O105 C109 1.246 . S
O106 Mg101 2.032 . S
O106 C109 1.259 . S
O107 Mg98 2.114 . S
O107 C110 1.252 . S
O108 Mg98 2.251 . S
O108 Mg101 2.079 . S
O108 C110 1.273 . S
C109 O105 1.246 . S
C109 O106 1.259 . S
C110 O107 1.252 . S
C110 O108 1.273 . S
O111 Mg98 2.010 . S
O111 C103 1.249 . S
H112 C118 0.930 . S
H113 C121 0.930 . S
H114 C122 0.930 . S
H115 C123 0.930 . S
H116 C126 0.930 . S
H117 C127 0.930 . S
C118 H112 0.930 . S
C118 C119 1.355 . S
C118 C120 1.415 . S
C119 C118 1.355 . S
C119 C121 1.419 . S
C120 C118 1.415 . S
C120 C125 1.425 . S
C120 C127 1.409 . S
C121 H113 0.930 . S
C121 C119 1.419 . S
C121 C122 1.362 . S
C122 H114 0.930 . S
C122 C121 1.362 . S
C122 C125 1.409 . S
C123 H115 0.930 . S
C123 C124 1.355 . S
C123 C125 1.415 . S
C124 C123 1.355 . S
C124 C126 1.419 . S
C125 C120 1.425 . S
C125 C122 1.409 . S
C125 C123 1.415 . S
C126 H116 0.930 . S
C126 C124 1.419 . S
C126 C127 1.362 . S
C127 H117 0.930 . S
C127 C120 1.409 . S
C127 C126 1.362 . S
H128 C134 0.930 . S
H129 C137 0.930 . S
H130 C138 0.930 . S
H131 C139 0.930 . S
H132 C142 0.930 . S
H133 C143 0.930 . S
C134 H128 0.930 . S
C134 C135 1.355 . S
C134 C136 1.415 . S
C135 C134 1.355 . S
C135 C137 1.419 1_554 S
C136 C134 1.415 . S
C136 C141 1.432 . S
C136 C143 1.409 . S
C137 H129 0.930 . S
C137 C135 1.419 1_556 S
C137 C138 1.362 . S
C138 H130 0.930 . S
C138 C137 1.362 . S
C138 C141 1.404 1_556 S
C139 H131 0.930 . S
C139 C140 1.355 1_556 S
C139 C141 1.413 1_556 S
C140 C139 1.355 1_554 S
C140 C142 1.419 . S
C141 C136 1.432 . S
C141 C138 1.404 1_554 S
C141 C139 1.413 1_554 S
C142 H132 0.930 . S
C142 C140 1.419 . S
C142 C143 1.362 . S
C143 H133 0.930 . S
C143 C136 1.409 . S
C143 C142 1.362 . S
H144 C150 0.930 . S
H145 C153 0.930 . S
H146 C154 0.930 . S
H147 C155 0.930 . S
H148 C158 0.930 . S
H149 C159 0.930 . S
C150 H144 0.930 . S
C150 C151 1.355 . S
C150 C152 1.415 . S
C151 C150 1.355 . S
C151 C153 1.419 . S
C152 C150 1.415 . S
C152 C157 1.425 . S
C152 C159 1.409 . S
C153 H145 0.930 . S
C153 C151 1.419 . S
C153 C154 1.362 . S
C154 H146 0.930 . S
C154 C153 1.362 . S
C154 C157 1.409 . S
C155 H147 0.930 . S
C155 C156 1.355 . S
C155 C157 1.415 . S
C156 C155 1.355 . S
C156 C158 1.419 . S
C157 C152 1.425 . S
C157 C154 1.409 . S
C157 C155 1.415 . S
C158 H148 0.930 . S
C158 C156 1.419 . S
C158 C159 1.362 . S
C159 H149 0.930 . S
C159 C152 1.409 . S
C159 C158 1.362 . S
H160 C166 0.930 . S
H161 C169 0.930 . S
H162 C170 0.930 . S
H163 C171 0.930 . S
H164 C174 0.930 . S
H165 C175 0.930 . S
C166 H160 0.930 . S
C166 C167 1.355 . S
C166 C168 1.415 . S
C167 C166 1.355 . S
C167 C169 1.419 . S
C168 C166 1.415 . S
C168 C173 1.425 . S
C168 C175 1.409 . S
C169 H161 0.930 . S
C169 C167 1.419 . S
C169 C170 1.362 . S
C170 H162 0.930 . S
C170 C169 1.362 . S
C170 C173 1.409 . S
C171 H163 0.930 . S
C171 C172 1.355 . S
C171 C173 1.415 . S
C172 C171 1.355 . S
C172 C174 1.419 . S
C173 C168 1.425 . S
C173 C170 1.409 . S
C173 C171 1.415 . S
C174 H164 0.930 . S
C174 C172 1.419 . S
C174 C175 1.362 . S
C175 H165 0.930 . S
C175 C168 1.409 . S
C175 C174 1.362 . S
H176 C182 0.930 . S
H177 C185 0.930 . S
H178 C186 0.930 . S
H179 C187 0.930 . S
H180 C190 0.930 . S
H181 C191 0.930 . S
C182 H176 0.930 . S
C182 C183 1.355 . S
C182 C184 1.415 . S
C183 C182 1.355 . S
C183 C185 1.419 . S
C184 C182 1.415 . S
C184 C189 1.425 . S
C184 C191 1.409 . S
C185 H177 0.930 . S
C185 C183 1.419 . S
C185 C186 1.362 . S
C186 H178 0.930 . S
C186 C185 1.362 . S
C186 C189 1.409 . S
C187 H179 0.930 . S
C187 C188 1.355 . S
C187 C189 1.415 . S
C188 C187 1.355 . S
C188 C190 1.419 . S
C189 C184 1.425 . S
C189 C186 1.409 . S
C189 C187 1.415 . S
C190 H180 0.930 . S
C190 C188 1.419 . S
C190 C191 1.362 . S
C191 H181 0.930 . S
C191 C184 1.409 . S
C191 C190 1.362 . S
H192 C198 0.930 . S
H193 C201 0.930 . S
H194 C202 0.930 . S
H195 C203 0.930 . S
H196 C206 0.930 . S
H197 C207 0.930 . S
C198 H192 0.930 . S
C198 C199 1.355 . S
C198 C200 1.415 . S
C199 C198 1.355 . S
C199 C201 1.419 . S
C200 C198 1.415 . S
C200 C205 1.425 . S
C200 C207 1.409 . S
C201 H193 0.930 . S
C201 C199 1.419 . S
C201 C202 1.362 . S
C202 H194 0.930 . S
C202 C201 1.362 . S
C202 C205 1.409 . S
C203 H195 0.930 . S
C203 C204 1.355 . S
C203 C205 1.415 . S
C204 C203 1.355 . S
C204 C206 1.419 . S
C205 C200 1.425 . S
C205 C202 1.409 . S
C205 C203 1.415 . S
C206 H196 0.930 . S
C206 C204 1.419 . S
C206 C207 1.362 . S
C207 H197 0.930 . S
C207 C200 1.409 . S
C207 C206 1.362 . S
H208 C214 0.930 . S
H209 C217 0.930 . S
H210 C218 0.930 . S
H211 C219 0.930 . S
H212 C222 0.930 . S
H213 C223 0.930 . S
C214 H208 0.930 . S
C214 C215 1.355 . S
C214 C216 1.415 . S
C215 C214 1.355 . S
C215 C217 1.419 . S
C216 C214 1.415 . S
C216 C221 1.425 . S
C216 C223 1.409 . S
C217 H209 0.930 . S
C217 C215 1.419 . S
C217 C218 1.362 . S
C218 H210 0.930 . S
C218 C217 1.362 . S
C218 C221 1.409 . S
C219 H211 0.930 . S
C219 C220 1.355 . S
C219 C221 1.415 . S
C220 C219 1.355 . S
C220 C222 1.419 . S
C221 C216 1.425 . S
C221 C218 1.409 . S
C221 C219 1.415 . S
C222 H212 0.930 . S
C222 C220 1.419 . S
C222 C223 1.362 . S
C223 H213 0.930 . S
C223 C216 1.409 . S
C223 C222 1.362 . S
H224 C230 0.930 . S
H225 C233 0.930 . S
H226 C234 0.930 . S
H227 C235 0.930 . S
H228 C238 0.930 . S
H229 C239 0.930 . S
C230 H224 0.930 . S
C230 C231 1.355 . S
C230 C232 1.415 . S
C231 C230 1.355 . S
C231 C233 1.419 . S
C232 C230 1.415 . S
C232 C237 1.425 . S
C232 C239 1.409 . S
C233 H225 0.930 . S
C233 C231 1.419 . S
C233 C234 1.362 . S
C234 H226 0.930 . S
C234 C233 1.362 . S
C234 C237 1.409 . S
C235 H227 0.930 . S
C235 C236 1.355 . S
C235 C237 1.415 . S
C236 C235 1.355 . S
C236 C238 1.419 . S
C237 C232 1.425 . S
C237 C234 1.409 . S
C237 C235 1.415 . S
C238 H228 0.930 . S
C238 C236 1.419 . S
C238 C239 1.362 . S
C239 H229 0.930 . S
C239 C232 1.409 . S
C239 C238 1.362 . S
H240 C246 0.930 . S
H241 C249 0.930 . S
H242 C250 0.930 . S
H243 C251 0.930 . S
H244 C254 0.930 . S
H245 C255 0.930 . S
C246 H240 0.930 . S
C246 C247 1.355 . S
C246 C248 1.415 . S
C247 C246 1.355 . S
C247 C249 1.419 1_565 S
C248 C246 1.415 . S
C248 C253 1.425 1_565 S
C248 C255 1.409 . S
C249 H241 0.930 . S
C249 C247 1.419 1_545 S
C249 C250 1.362 . S
C250 H242 0.930 . S
C250 C249 1.362 . S
C250 C253 1.409 . S
C251 H243 0.930 . S
C251 C252 1.355 . S
C251 C253 1.415 . S
C252 C251 1.355 . S
C252 C254 1.419 1_545 S
C253 C248 1.425 1_545 S
C253 C250 1.409 . S
C253 C251 1.415 . S
C254 H244 0.930 . S
C254 C252 1.419 1_565 S
C254 C255 1.362 . S
C255 H245 0.930 . S
C255 C248 1.409 . S
C255 C254 1.362 . S
H256 C262 0.930 . S
H257 C265 0.930 . S
H258 C266 0.930 . S
H259 C267 0.930 . S
H260 C270 0.930 . S
H261 C271 0.930 . S
C262 H256 0.930 . S
C262 C263 1.355 . S
C262 C264 1.415 . S
C263 C262 1.355 . S
C263 C265 1.419 1_565 S
C264 C262 1.415 . S
C264 C269 1.425 1_565 S
C264 C271 1.409 . S
C265 H257 0.930 . S
C265 C263 1.419 1_545 S
C265 C266 1.362 . S
C266 H258 0.930 . S
C266 C265 1.362 . S
C266 C269 1.409 . S
C267 H259 0.930 . S
C267 C268 1.355 . S
C267 C269 1.415 . S
C268 C267 1.355 . S
C268 C270 1.419 1_545 S
C269 C264 1.425 1_545 S
C269 C266 1.409 . S
C269 C267 1.415 . S
C270 H260 0.930 . S
C270 C268 1.419 1_565 S
C270 C271 1.362 . S
C271 H261 0.930 . S
C271 C264 1.409 . S
C271 C270 1.362 . S
H272 C278 0.930 . S
H273 C281 0.930 . S
H274 C282 0.930 . S
H275 C283 0.930 . S
H276 C286 0.930 . S
H277 C287 0.930 . S
C278 H272 0.930 . S
C278 C279 1.355 . S
C278 C280 1.415 . S
C279 C278 1.355 . S
C279 C281 1.419 1_565 S
C280 C278 1.415 . S
C280 C285 1.425 1_565 S
C280 C287 1.409 . S
C281 H273 0.930 . S
C281 C279 1.419 1_545 S
C281 C282 1.362 . S
C282 H274 0.930 . S
C282 C281 1.362 . S
C282 C285 1.409 . S
C283 H275 0.930 . S
C283 C284 1.355 . S
C283 C285 1.415 . S
C284 C283 1.355 . S
C284 C286 1.419 1_545 S
C285 C280 1.425 1_545 S
C285 C282 1.409 . S
C285 C283 1.415 . S
C286 H276 0.930 . S
C286 C284 1.419 1_565 S
C286 C287 1.362 . S
C287 H277 0.930 . S
C287 C280 1.409 . S
C287 C286 1.362 . S
H288 C294 0.930 1_545 S
H289 C297 0.930 . S
H290 C298 0.930 . S
H291 C299 0.930 1_565 S
H292 C302 0.930 . S
H293 C303 0.930 . S
C294 H288 0.930 1_565 S
C294 C295 1.355 . S
C294 C296 1.415 1_565 S
C295 C294 1.355 . S
C295 C297 1.419 . S
C296 C294 1.415 1_545 S
C296 C301 1.425 1_545 S
C296 C303 1.409 . S
C297 H289 0.930 . S
C297 C295 1.419 . S
C297 C298 1.362 . S
C298 H290 0.930 . S
C298 C297 1.362 . S
C298 C301 1.409 . S
C299 H291 0.930 1_545 S
C299 C300 1.355 . S
C299 C301 1.415 1_545 S
C300 C299 1.355 . S
C300 C302 1.419 . S
C301 C296 1.425 1_565 S
C301 C298 1.409 . S
C301 C299 1.415 1_565 S
C302 H292 0.930 . S
C302 C300 1.419 . S
C302 C303 1.362 . S
C303 H293 0.930 . S
C303 C296 1.409 . S
C303 C302 1.362 . S
H304 C310 0.930 1_556 S
H305 C313 0.930 . S
H306 C314 0.930 . S
H307 C315 0.930 . S
H308 C318 0.936 . S
H309 C319 0.930 . S
C310 H304 0.930 1_554 S
C310 C311 1.355 . S
C310 C312 1.415 1_565 S
C311 C310 1.355 . S
C311 C313 1.419 . S
C312 C310 1.415 1_545 S
C312 C317 1.425 1_545 S
C312 C319 1.409 1_554 S
C313 H305 0.930 . S
C313 C311 1.419 . S
C313 C314 1.362 . S
C314 H306 0.930 . S
C314 C313 1.362 . S
C314 C317 1.409 . S
C315 H307 0.930 . S
C315 C316 1.355 . S
C315 C317 1.415 1_545 S
C316 C315 1.355 . S
C316 C318 1.412 1_554 S
C317 C312 1.425 1_565 S
C317 C314 1.409 . S
C317 C315 1.415 1_565 S
C318 H308 0.936 . S
C318 C316 1.412 1_556 S
C318 C319 1.364 . S
C319 H309 0.930 . S
C319 C312 1.409 1_556 S
C319 C318 1.364 . S
H320 C326 0.930 . S
H321 C329 0.930 . S
H322 C330 0.930 1_545 S
H323 C331 0.930 . S
H324 C334 0.930 . S
H325 C335 0.930 1_565 S
C326 H320 0.930 . S
C326 C327 1.355 . S
C326 C328 1.415 . S
C327 C326 1.355 . S
C327 C329 1.419 . S
C328 C326 1.415 . S
C328 C333 1.425 1_565 S
C328 C335 1.409 1_565 S
C329 H321 0.930 . S
C329 C327 1.419 . S
C329 C330 1.362 . S
C330 H322 0.930 1_565 S
C330 C329 1.362 . S
C330 C333 1.409 1_565 S
C331 H323 0.930 . S
C331 C332 1.355 . S
C331 C333 1.415 . S
C332 C331 1.355 . S
C332 C334 1.419 . S
C333 C328 1.425 1_545 S
C333 C330 1.409 1_545 S
C333 C331 1.415 . S
C334 H324 0.930 . S
C334 C332 1.419 . S
C334 C335 1.362 . S
C335 H325 0.930 1_545 S
C335 C328 1.409 1_545 S
C335 C334 1.362 . S
H336 C342 0.930 . S
H337 C345 0.930 1_655 S
H338 C346 0.930 . S
H339 C347 0.930 . S
H340 C350 0.930 1_455 S
H341 C351 0.930 . S
C342 H336 0.930 . S
C342 C343 1.355 1_556 S
C342 C344 1.415 1_556 S
C343 C342 1.355 1_554 S
C343 C345 1.419 . S
C344 C342 1.415 1_554 S
C344 C349 1.425 1_455 S
C344 C351 1.409 1_554 S
C345 H337 0.930 1_455 S
C345 C343 1.419 . S
C345 C346 1.362 1_455 S
C346 H338 0.930 . S
C346 C345 1.362 1_655 S
C346 C349 1.409 . S
C347 H339 0.930 . S
C347 C348 1.355 . S
C347 C349 1.415 . S
C348 C347 1.355 . S
C348 C350 1.419 1_554 S
C349 C344 1.425 1_655 S
C349 C346 1.409 . S
C349 C347 1.415 . S
C350 H340 0.930 1_655 S
C350 C348 1.419 1_556 S
C350 C351 1.362 1_655 S
C351 H341 0.930 . S
C351 C344 1.409 1_556 S
C351 C350 1.362 1_455 S
H352 C358 0.930 . S
H353 C361 0.930 . S
H354 C362 0.930 . S
H355 C363 0.930 . S
H356 C366 0.930 . S
H357 C367 0.930 . S
C358 H352 0.930 . S
C358 C359 1.355 1_655 S
C358 C360 1.415 . S
C359 C358 1.355 1_455 S
C359 C361 1.419 . S
C360 C358 1.415 . S
C360 C365 1.425 1_655 S
C360 C367 1.409 . S
C361 H353 0.930 . S
C361 C359 1.419 . S
C361 C362 1.362 . S
C362 H354 0.930 . S
C362 C361 1.362 . S
C362 C365 1.409 . S
C363 H355 0.930 . S
C363 C364 1.355 1_455 S
C363 C365 1.415 . S
C364 C363 1.355 1_655 S
C364 C366 1.419 . S
C365 C360 1.425 1_455 S
C365 C362 1.409 . S
C365 C363 1.415 . S
C366 H356 0.930 . S
C366 C364 1.419 . S
C366 C367 1.362 . S
C367 H357 0.930 . S
C367 C360 1.409 . S
C367 C366 1.362 . S
C119 C74 1.475 . S
C124 C4 1.466 . S
C135 C60 1.497 . S
C140 C18 1.471 . S
C151 C102 1.484 . S
C156 C32 1.486 . S
C167 C88 1.458 . S
C172 C46 1.504 . S
C183 C12 1.408 . S
C188 C40 1.414 . S
C199 C26 1.411 . S
C204 C54 1.411 . S
C215 C19 1.207 . S
C220 C47 1.325 . S
C231 C5 1.322 . S
C236 C33 1.191 . S
C247 C68 1.416 . S
C252 C96 1.406 . S
C263 C110 1.409 . S
C268 C82 1.413 . S
C279 C103 1.238 . S
C284 C75 1.252 . S
C295 C61 1.204 . S
C300 C89 1.326 . S
C311 C25 1.512 . S
C316 C11 1.517 . S
C327 C39 1.470 . S
C332 C53 1.505 . S
C343 C67 1.501 . S
C348 C81 1.521 . S
C359 C95 1.468 . S
C364 C109 1.482 . S
