# Generated by pormake.
# Topology crs, (6)-cn, num edge types: 1
# Building blocks:
#     Node 0, Type 0, BuildingBlock: KUMJIN_clean_sbu_0, # of connection points: 6
#     Node 1, Type 0, BuildingBlock: KUMJIN_clean_sbu_0, # of connection points: 6
#     Node 2, Type 0, BuildingBlock: KUMJIN_clean_sbu_0, # of connection points: 6
#     Node 3, Type 0, BuildingBlock: KUMJIN_clean_sbu_0, # of connection points: 6
#     Node 4, Type 0, BuildingBlock: KUMJIN_clean_sbu_0, # of connection points: 6
#     Node 5, Type 0, BuildingBlock: KUMJIN_clean_sbu_0, # of connection points: 6
#     Node 6, Type 0, BuildingBlock: KUMJIN_clean_sbu_0, # of connection points: 6
#     Node 7, Type 0, BuildingBlock: KUMJIN_clean_sbu_0, # of connection points: 6
#     Node 8, Type 0, BuildingBlock: KUMJIN_clean_sbu_0, # of connection points: 6
#     Node 9, Type 0, BuildingBlock: KUMJIN_clean_sbu_0, # of connection points: 6
#     Node 10, Type 0, BuildingBlock: KUMJIN_clean_sbu_0, # of connection points: 6
#     Node 11, Type 0, BuildingBlock: KUMJIN_clean_sbu_0, # of connection points: 6
#     Node 12, Type 0, BuildingBlock: KUMJIN_clean_sbu_0, # of connection points: 6
#     Node 13, Type 0, BuildingBlock: KUMJIN_clean_sbu_0, # of connection points: 6
#     Node 14, Type 0, BuildingBlock: KUMJIN_clean_sbu_0, # of connection points: 6
#     Node 15, Type 0, BuildingBlock: KUMJIN_clean_sbu_0, # of connection points: 6
#     Edge 16, Type (0, 0), BuildingBlock: CIFDUS_clean_linker_0, # of connection points: 2
#     Edge 17, Type (0, 0), BuildingBlock: CIFDUS_clean_linker_0, # of connection points: 2
#     Edge 18, Type (0, 0), BuildingBlock: CIFDUS_clean_linker_0, # of connection points: 2
#     Edge 19, Type (0, 0), BuildingBlock: CIFDUS_clean_linker_0, # of connection points: 2
#     Edge 20, Type (0, 0), BuildingBlock: CIFDUS_clean_linker_0, # of connection points: 2
#     Edge 21, Type (0, 0), BuildingBlock: CIFDUS_clean_linker_0, # of connection points: 2
#     Edge 22, Type (0, 0), BuildingBlock: CIFDUS_clean_linker_0, # of connection points: 2
#     Edge 23, Type (0, 0), BuildingBlock: CIFDUS_clean_linker_0, # of connection points: 2
#     Edge 24, Type (0, 0), BuildingBlock: CIFDUS_clean_linker_0, # of connection points: 2
#     Edge 25, Type (0, 0), BuildingBlock: CIFDUS_clean_linker_0, # of connection points: 2
#     Edge 26, Type (0, 0), BuildingBlock: CIFDUS_clean_linker_0, # of connection points: 2
#     Edge 27, Type (0, 0), BuildingBlock: CIFDUS_clean_linker_0, # of connection points: 2
#     Edge 28, Type (0, 0), BuildingBlock: CIFDUS_clean_linker_0, # of connection points: 2
#     Edge 29, Type (0, 0), BuildingBlock: CIFDUS_clean_linker_0, # of connection points: 2
#     Edge 30, Type (0, 0), BuildingBlock: CIFDUS_clean_linker_0, # of connection points: 2
#     Edge 31, Type (0, 0), BuildingBlock: CIFDUS_clean_linker_0, # of connection points: 2
#     Edge 32, Type (0, 0), BuildingBlock: CIFDUS_clean_linker_0, # of connection points: 2
#     Edge 33, Type (0, 0), BuildingBlock: CIFDUS_clean_linker_0, # of connection points: 2
#     Edge 34, Type (0, 0), BuildingBlock: CIFDUS_clean_linker_0, # of connection points: 2
#     Edge 35, Type (0, 0), BuildingBlock: CIFDUS_clean_linker_0, # of connection points: 2
#     Edge 36, Type (0, 0), BuildingBlock: CIFDUS_clean_linker_0, # of connection points: 2
#     Edge 37, Type (0, 0), BuildingBlock: CIFDUS_clean_linker_0, # of connection points: 2
#     Edge 38, Type (0, 0), BuildingBlock: CIFDUS_clean_linker_0, # of connection points: 2
#     Edge 39, Type (0, 0), BuildingBlock: CIFDUS_clean_linker_0, # of connection points: 2
#     Edge 40, Type (0, 0), BuildingBlock: CIFDUS_clean_linker_0, # of connection points: 2
#     Edge 41, Type (0, 0), BuildingBlock: CIFDUS_clean_linker_0, # of connection points: 2
#     Edge 42, Type (0, 0), BuildingBlock: CIFDUS_clean_linker_0, # of connection points: 2
#     Edge 43, Type (0, 0), BuildingBlock: CIFDUS_clean_linker_0, # of connection points: 2
#     Edge 44, Type (0, 0), BuildingBlock: CIFDUS_clean_linker_0, # of connection points: 2
#     Edge 45, Type (0, 0), BuildingBlock: CIFDUS_clean_linker_0, # of connection points: 2
#     Edge 46, Type (0, 0), BuildingBlock: CIFDUS_clean_linker_0, # of connection points: 2
#     Edge 47, Type (0, 0), BuildingBlock: CIFDUS_clean_linker_0, # of connection points: 2
#     Edge 48, Type (0, 0), BuildingBlock: CIFDUS_clean_linker_0, # of connection points: 2
#     Edge 49, Type (0, 0), BuildingBlock: CIFDUS_clean_linker_0, # of connection points: 2
#     Edge 50, Type (0, 0), BuildingBlock: CIFDUS_clean_linker_0, # of connection points: 2
#     Edge 51, Type (0, 0), BuildingBlock: CIFDUS_clean_linker_0, # of connection points: 2
#     Edge 52, Type (0, 0), BuildingBlock: CIFDUS_clean_linker_0, # of connection points: 2
#     Edge 53, Type (0, 0), BuildingBlock: CIFDUS_clean_linker_0, # of connection points: 2
#     Edge 54, Type (0, 0), BuildingBlock: CIFDUS_clean_linker_0, # of connection points: 2
#     Edge 55, Type (0, 0), BuildingBlock: CIFDUS_clean_linker_0, # of connection points: 2
#     Edge 56, Type (0, 0), BuildingBlock: CIFDUS_clean_linker_0, # of connection points: 2
#     Edge 57, Type (0, 0), BuildingBlock: CIFDUS_clean_linker_0, # of connection points: 2
#     Edge 58, Type (0, 0), BuildingBlock: CIFDUS_clean_linker_0, # of connection points: 2
#     Edge 59, Type (0, 0), BuildingBlock: CIFDUS_clean_linker_0, # of connection points: 2
#     Edge 60, Type (0, 0), BuildingBlock: CIFDUS_clean_linker_0, # of connection points: 2
#     Edge 61, Type (0, 0), BuildingBlock: CIFDUS_clean_linker_0, # of connection points: 2
#     Edge 62, Type (0, 0), BuildingBlock: CIFDUS_clean_linker_0, # of connection points: 2
#     Edge 63, Type (0, 0), BuildingBlock: CIFDUS_clean_linker_0, # of connection points: 2
# Relax obj value: 0.134
# Max RMSD: 0.237
# Mean RMSD: 0.183
data_MOF--net-crs--node1-KUMJIN_clean_sbu_0--edge1-CIFDUS_clean_linker_0
_symmetry_space_group_name_H-M    P1
_symmetry_Int_Tables_number       1
_symmetry_cell_setting            triclinic
loop_
_symmetry_equiv_pos_as_xyz
'x, y, z'
_cell_length_a     49.938939
_cell_length_b     49.962573
_cell_length_c     38.765511
_cell_angle_alpha  73.537707
_cell_angle_beta   71.967592
_cell_angle_gamma 66.481187
loop_
_atom_site_label
_atom_site_type_symbol
_atom_site_fract_x
_atom_site_fract_y
_atom_site_fract_z
_atom_type_partial_charge
Eu0 Eu 0.97731 0.99518 0.06627 0.0
C1 C 0.03373 1.00581 0.90015 0.0
C2 C 0.07827 0.96171 0.9005 0.0
C3 C 0.05742 0.98237 0.84593 0.0
C4 C 0.05539 0.98444 0.91839 0.0
C5 C 0.03497 1.00523 0.86342 0.0
C6 C 0.07894 0.96063 0.86445 0.0
C7 C 0.99332 0.05144 0.86235 0.0
N8 N 0.01228 0.02784 0.91753 0.0
C9 C 0.99305 0.05124 0.89854 0.0
C10 C 0.01418 0.02818 0.84482 0.0
Eu11 Eu 0.01597 0.02726 0.97752 0.0
N12 N 0.05467 0.98623 0.95307 0.0
C13 C 0.07665 0.96644 0.97081 0.0
C14 C 0.10024 0.94096 0.91906 0.0
C15 C 0.09945 0.94341 0.95431 0.0
H16 H 0.97712 0.06967 0.91172 0.0
H17 H 0.11651 0.9276 0.96877 0.0
H18 H 0.09637 0.94334 0.85037 0.0
H19 H 0.97765 0.06971 0.84789 0.0
H20 H 0.07654 0.96774 0.99809 0.0
H21 H 0.87008 0.08642 0.0711 0.0
H22 H 0.11812 0.92321 0.90624 0.0
H23 H 0.01372 0.95617 0.13397 0.0
H24 H 0.91605 0.05093 0.0415 0.0
H25 H 0.00925 0.95677 0.19891 0.0
H26 H 0.05864 0.98159 0.81781 0.0
H27 H 0.86345 0.09155 0.13502 0.0
H28 H 0.88295 0.07471 0.19241 0.0
H29 H 0.01455 0.02854 0.81659 0.0
H30 H 0.92108 0.04009 0.22675 0.0
N31 N 0.93585 0.03545 0.08814 0.0
C32 C 0.91374 0.05261 0.06941 0.0
C33 C 0.88389 0.07585 0.12213 0.0
C34 C 0.90638 0.05805 0.14139 0.0
C35 C 0.88748 0.07292 0.08612 0.0
C36 C 0.93247 0.03764 0.12356 0.0
H37 H 0.9681 0.9963 0.22945 0.0
N38 N 0.9778 0.99702 0.12634 0.0
C39 C 0.99389 0.97442 0.18343 0.0
C40 C 0.9541 0.01806 0.14305 0.0
C41 C 0.99663 0.97443 0.1465 0.0
C42 C 0.97063 0.99676 0.20052 0.0
C43 C 0.94997 0.0185 0.18067 0.0
O44 O 0.97843 0.95145 0.09929 0.0
O45 O 0.00178 0.9878 1.00871 0.0
O46 O 0.97437 0.02647 0.96634 0.0
O47 O 0.95062 1.00545 0.02339 0.0
O48 O 0.01467 0.95342 0.051 0.0
O49 O 0.93641 0.98429 0.08682 0.0
O50 O 0.01713 0.06918 0.94198 0.0
O51 O 0.99161 0.03392 0.035 0.0
O52 O 0.01826 0.99661 0.07759 0.0
O53 O 0.04523 0.01258 0.01948 0.0
O54 O 0.98107 0.07041 0.99513 0.0
O55 O 0.05751 0.0376 0.95955 0.0
C56 C 0.01759 0.96072 1.0156 0.0
C57 C 0.93884 0.93375 0.10676 0.0
C58 C 0.9103 0.91232 0.08883 0.0
C59 C 0.92279 0.9345 0.08215 0.0
C60 C 0.91407 0.88953 0.11994 0.0
C61 C 0.94259 0.91065 0.13742 0.0
C62 C 0.93022 0.88868 0.14397 0.0
C63 C 0.95254 0.01689 0.98782 0.0
C64 C 0.94971 0.95775 0.10377 0.0
C65 C 0.92459 0.03953 0.19791 0.0
C66 C 0.90286 0.05921 0.17835 0.0
C67 C 0.9764 0.06119 0.03039 0.0
C68 C 0.05267 0.08923 0.94151 0.0
C69 C 0.07133 0.08723 0.96362 0.0
C70 C 0.0774 0.11245 0.96324 0.0
C71 C 0.06585 0.13918 0.93961 0.0
C72 C 0.04166 0.11611 0.91777 0.0
C73 C 0.04831 0.14089 0.91678 0.0
C74 C 0.0421 1.00251 0.05563 0.0
C75 C 0.04514 0.06375 0.94083 0.0
H76 H 0.91949 0.95235 0.05861 0.0
H77 H 0.90493 0.87202 0.12529 0.0
H78 H 0.95466 0.90994 0.15677 0.0
H79 H 0.93309 0.87101 0.16778 0.0
H80 H 0.08117 0.0664 0.98069 0.0
H81 H 0.07096 0.15865 0.9383 0.0
H82 H 0.02801 0.1179 0.89971 0.0
H83 H 0.03991 0.16143 0.89822 0.0
Eu84 Eu 0.00958 0.27444 0.2975 0.0
C85 C 0.9199 0.24085 0.2675 0.0
C86 C 0.92305 0.19627 0.3146 0.0
C87 C 0.87634 0.22511 0.29525 0.0
C88 C 0.93678 0.21619 0.28912 0.0
C89 C 0.88964 0.24503 0.27008 0.0
C90 C 0.89292 0.20095 0.31755 0.0
C91 C 0.88792 0.28721 0.22049 0.0
N92 N 0.93295 0.26024 0.24336 0.0
C93 C 0.91783 0.28222 0.21864 0.0
C94 C 0.87363 0.26876 0.24663 0.0
Eu95 Eu 0.98475 0.24758 0.2399 0.0
N96 N 0.96624 0.21165 0.28564 0.0
C97 C 0.98259 0.18786 0.30755 0.0
C98 C 0.93987 0.17209 0.3367 0.0
C99 C 0.96969 0.16798 0.33324 0.0
H100 H 0.92885 0.29601 0.19704 0.0
H101 H 0.98283 0.1495 0.35056 0.0
H102 H 0.8824 0.18572 0.33686 0.0
H103 H 0.87606 0.30501 0.20132 0.0
H104 H 0.00534 0.184 0.3069 0.0
H105 H 0.02174 0.3679 0.1868 0.0
H106 H 0.92998 0.15655 0.35666 0.0
H107 H 0.05772 0.22868 0.35129 0.0
H108 H 0.99487 0.33633 0.23176 0.0
H109 H 0.11089 0.21542 0.352 0.0
H110 H 0.85327 0.22811 0.29733 0.0
H111 H 0.07596 0.35496 0.18097 0.0
H112 H 0.12234 0.32086 0.20191 0.0
H113 H 0.85047 0.27251 0.24779 0.0
H114 H 0.14739 0.27799 0.24511 0.0
N115 N 0.03334 0.30524 0.25135 0.0
C116 C 0.01845 0.33015 0.22961 0.0
C117 C 0.06422 0.34087 0.20083 0.0
C118 C 0.0793 0.31544 0.22337 0.0
C119 C 0.03364 0.34825 0.20403 0.0
C120 C 0.06311 0.29777 0.24884 0.0
H121 H 0.14315 0.23919 0.30135 0.0
N122 N 0.0606 0.25815 0.29946 0.0
C123 C 0.10184 0.23138 0.32937 0.0
C124 C 0.07728 0.27316 0.27283 0.0
C125 C 0.07185 0.23885 0.32881 0.0
C126 C 0.12 0.24476 0.30063 0.0
C127 C 0.1076 0.26651 0.27253 0.0
O128 O 0.00803 0.27642 0.35412 0.0
O129 O 0.97004 0.26184 0.29685 0.0
O130 O 0.95544 0.29763 0.23828 0.0
O131 O 0.96666 0.31001 0.2843 0.0
O132 O 0.98772 0.2445 0.34319 0.0
O133 O 0.99634 0.31697 0.31503 0.0
O134 O 0.97991 0.25522 0.18398 0.0
O135 O 0.01961 0.26585 0.23998 0.0
O136 O 0.04169 0.22721 0.29355 0.0
O137 O 0.02748 0.21006 0.25411 0.0
O138 O 0.02155 0.25895 0.19049 0.0
O139 O 0.99114 0.20954 0.21514 0.0
C140 C 0.96543 0.24742 0.3303 0.0
C141 C 0.01702 0.31748 0.36252 0.0
C142 C 0.01903 0.34728 0.40183 0.0
C143 C 0.00232 0.33615 0.38933 0.0
C144 C 0.05006 0.33943 0.38781 0.0
C145 C 0.04799 0.31076 0.34888 0.0
C146 C 0.06438 0.32133 0.36152 0.0
C147 C 0.94996 0.31609 0.26059 0.0
C148 C 0.00048 0.30524 0.34839 0.0
C149 C 0.12403 0.28315 0.24592 0.0
C150 C 0.10986 0.30756 0.22149 0.0
C151 C 0.03556 0.26691 0.20638 0.0
C152 C 0.98522 0.21794 0.15071 0.0
C153 C 0.98925 0.18831 0.14923 0.0
C154 C 0.98789 0.18166 0.11652 0.0
C155 C 0.98298 0.20455 0.08585 0.0
C156 C 0.98024 0.24004 0.11914 0.0
C157 C 0.97922 0.23336 0.08718 0.0
C158 C 0.04579 0.20691 0.27481 0.0
C159 C 0.98532 0.22731 0.1842 0.0
H160 H 0.97835 0.34198 0.40017 0.0
H161 H 0.06327 0.34753 0.39718 0.0
H162 H 0.05979 0.29745 0.32824 0.0
H163 H 0.08833 0.31557 0.35069 0.0
H164 H 0.9929 0.17088 0.17317 0.0
H165 H 0.98188 0.20008 0.06063 0.0
H166 H 0.97697 0.26284 0.11899 0.0
H167 H 0.97531 0.25074 0.06327 0.0
Eu168 Eu 0.73711 0.24848 0.48733 0.0
C169 C 0.71911 0.27498 0.62969 0.0
C170 C 0.6803 0.32388 0.62656 0.0
C171 C 0.68785 0.29341 0.68604 0.0
C172 C 0.70416 0.30164 0.6087 0.0
C173 C 0.71058 0.27079 0.66868 0.0
C174 C 0.67259 0.31974 0.66515 0.0
C175 C 0.75125 0.22421 0.67178 0.0
N176 N 0.74316 0.25424 0.61253 0.0
C177 C 0.76007 0.22985 0.63344 0.0
C178 C 0.72634 0.24471 0.68953 0.0
Eu179 Eu 0.75951 0.27107 0.54806 0.0
N180 N 0.71344 0.30646 0.57121 0.0
C181 C 0.69907 0.3324 0.55034 0.0
C182 C 0.66555 0.35031 0.6052 0.0
C183 C 0.67483 0.35446 0.56693 0.0
H184 H 0.78138 0.21505 0.62094 0.0
H185 H 0.6636 0.37488 0.55015 0.0
H186 H 0.65544 0.33719 0.67911 0.0
H187 H 0.76457 0.20474 0.68771 0.0
H188 H 0.70593 0.33652 0.52087 0.0
H189 H 0.84361 0.15303 0.48491 0.0
H190 H 0.64712 0.36774 0.61801 0.0
H191 H 0.71455 0.30058 0.41352 0.0
H192 H 0.80162 0.19248 0.51195 0.0
H193 H 0.72672 0.30633 0.34638 0.0
H194 H 0.68277 0.29099 0.71574 0.0
H195 H 0.85267 0.1514 0.4191 0.0
H196 H 0.83802 0.17465 0.35859 0.0
H197 H 0.72024 0.2408 0.71944 0.0
H198 H 0.80756 0.2172 0.3207 0.0
N199 N 0.78366 0.21226 0.46374 0.0
C200 C 0.80352 0.19154 0.48407 0.0
C201 C 0.83347 0.16867 0.43121 0.0
C202 C 0.81473 0.19117 0.40967 0.0
C203 C 0.82831 0.16939 0.46835 0.0
C204 C 0.79023 0.21346 0.42664 0.0
H205 H 0.76791 0.26713 0.31547 0.0
N206 N 0.75084 0.25968 0.42163 0.0
C207 C 0.74023 0.28706 0.36246 0.0
C208 C 0.77344 0.23781 0.40506 0.0
C209 C 0.73386 0.28387 0.40079 0.0
C210 C 0.76335 0.26485 0.34517 0.0
C211 C 0.7801 0.23977 0.36641 0.0
O212 O 0.69431 0.26883 0.47063 0.0
O213 O 0.71636 0.27231 0.53741 0.0
O214 O 0.76612 0.22058 0.56787 0.0
O215 O 0.74576 0.20623 0.5327 0.0
O216 O 0.70351 0.23731 0.54 0.0
O217 O 0.72178 0.22273 0.46564 0.0
O218 O 0.79241 0.26297 0.57907 0.0
O219 O 0.77648 0.25581 0.49364 0.0
O220 O 0.73444 0.29798 0.46329 0.0
O221 O 0.75848 0.30884 0.49726 0.0
O222 O 0.80825 0.2583 0.51319 0.0
O223 O 0.76611 0.30854 0.55853 0.0
C224 C 0.69884 0.25754 0.55783 0.0
C225 C 0.67006 0.23824 0.46488 0.0
C226 C 0.63827 0.20764 0.48992 0.0
C227 C 0.66401 0.21322 0.48907 0.0
C228 C 0.61934 0.22677 0.46608 0.0
C229 C 0.65078 0.25693 0.44146 0.0
C230 C 0.62561 0.25117 0.44202 0.0
C231 C 0.75681 0.20096 0.56212 0.0
C232 C 0.6972 0.24478 0.4605 0.0
C233 C 0.80293 0.21652 0.35009 0.0
C234 C 0.82022 0.19229 0.37166 0.0
C235 C 0.80438 0.25359 0.48435 0.0
C236 C 0.80989 0.30066 0.57875 0.0
C237 C 0.82301 0.3183 0.54843 0.0
C238 C 0.84534 0.32697 0.55217 0.0
C239 C 0.85416 0.31812 0.58597 0.0
C240 C 0.81899 0.29211 0.61223 0.0
C241 C 0.84103 0.30082 0.61579 0.0
C242 C 0.74699 0.3154 0.46796 0.0
C243 C 0.78601 0.29115 0.57789 0.0
H244 H 0.67917 0.1982 0.50661 0.0
H245 H 0.59997 0.22235 0.46538 0.0
H246 H 0.65557 0.27579 0.42211 0.0
H247 H 0.61114 0.26542 0.42339 0.0
H248 H 0.81587 0.32528 0.5226 0.0
H249 H 0.87109 0.325 0.58936 0.0
H250 H 0.80879 0.2788 0.63584 0.0
H251 H 0.84779 0.29433 0.64177 0.0
Eu252 Eu 0.73316 1.00102 0.74287 0.0
C253 C 0.77071 0.09111 0.75734 0.0
C254 C 0.81964 0.08202 0.71528 0.0
C255 C 0.78895 0.13221 0.72434 0.0
C256 C 0.79712 0.0712 0.74038 0.0
C257 C 0.76676 0.12177 0.74964 0.0
C258 C 0.81531 0.11242 0.70735 0.0
C259 C 0.72113 0.12971 0.79658 0.0
N260 N 0.74959 0.08068 0.78258 0.0
C261 C 0.72627 0.09928 0.80403 0.0
C262 C 0.74116 0.14112 0.76873 0.0
Eu263 Eu 0.76131 0.02821 0.79544 0.0
N264 N 0.80087 0.04162 0.74796 0.0
C265 C 0.82619 0.02255 0.72938 0.0
C266 C 0.84583 0.06213 0.69803 0.0
C267 C 0.8489 0.03239 0.70478 0.0
H268 H 0.71137 0.09101 0.82747 0.0
H269 H 0.86878 0.01691 0.69072 0.0
H270 H 0.83233 0.12089 0.68804 0.0
H271 H 0.70202 0.14424 0.81291 0.0
H272 H 0.82981 0.99962 0.73211 0.0
H273 H 0.63505 0.99081 0.85149 0.0
H274 H 0.86348 0.06964 0.67871 0.0
H275 H 0.78348 0.95161 0.68941 0.0
H276 H 0.67015 0.01556 0.81153 0.0
H277 H 0.79521 0.8998 0.68397 0.0
H278 H 0.78626 0.15553 0.71841 0.0
H279 H 0.64495 0.93842 0.85071 0.0
H280 H 0.67795 0.89238 0.82527 0.0
H281 H 0.73737 0.1647 0.76338 0.0
H282 H 0.72184 0.86745 0.78079 0.0
N283 N 0.7 0.97812 0.78688 0.0
C284 C 0.67501 0.9929 0.81025 0.0
C285 C 0.66052 0.9493 0.83269 0.0
C286 C 0.68621 0.93411 0.80896 0.0
C287 C 0.65484 0.97886 0.83319 0.0
C288 C 0.70574 0.94933 0.78577 0.0
H289 H 0.76532 0.87006 0.72802 0.0
N290 N 0.74829 0.95067 0.73725 0.0
C291 C 0.77718 0.90936 0.70583 0.0
C292 C 0.73061 0.9352 0.76058 0.0
C293 C 0.77055 0.9386 0.7091 0.0
C294 C 0.76027 0.89267 0.73077 0.0
C295 C 0.73638 0.90563 0.75814 0.0
O296 O 0.73554 1.00718 0.68447 0.0
O297 O 0.74511 0.04014 0.74304 0.0
O298 O 0.71057 0.05319 0.80449 0.0
O299 O 0.69568 0.04338 0.75959 0.0
O300 O 0.7644 0.02211 0.69638 0.0
O301 O 0.69262 0.01204 0.72322 0.0
O302 O 0.74686 0.03938 0.85027 0.0
O303 O 0.74002 0.99494 0.79937 0.0
O304 O 0.77928 0.96726 0.74895 0.0
O305 O 0.7988 0.98415 0.78289 0.0
O306 O 0.75928 0.98785 0.84155 0.0
O307 O 0.79308 0.03221 0.81942 0.0
C308 C 0.76014 0.0447 0.71005 0.0
C309 C 0.70052 0.99473 0.66865 0.0
C310 C 0.66553 0.98973 0.64129 0.0
C311 C 0.67156 1.00425 0.66258 0.0
C312 C 0.68793 0.96452 0.62831 0.0
C313 C 0.72316 0.97088 0.65292 0.0
C314 C 0.71663 0.95527 0.63397 0.0
C315 C 0.6907 0.05887 0.78497 0.0
C316 C 0.70732 0.01112 0.689 0.0
C317 C 0.7176 0.8902 0.78215 0.0
C318 C 0.69257 0.90441 0.80743 0.0
C319 C 0.74508 0.97683 0.82986 0.0
C320 C 0.78475 0.02368 0.88409 0.0
C321 C 0.8116 0.02571 0.88531 0.0
C322 C 0.82247 0.01415 0.91757 0.0
C323 C 0.80618 1.00021 0.94888 0.0
C324 C 0.76863 1.0098 0.9155 0.0
C325 C 0.77945 0.99804 0.94774 0.0
C326 C 0.80061 0.96414 0.76484 0.0
C327 C 0.7736 0.03789 0.85026 0.0
H328 H 0.65432 0.02365 0.67274 0.0
H329 H 0.68347 0.95268 0.61242 0.0
H330 H 0.74612 0.96471 0.65414 0.0
H331 H 0.7341 0.93661 0.62256 0.0
H332 H 0.82398 0.03653 0.86105 0.0
H333 H 0.81372 0.99157 0.9745 0.0
H334 H 0.74765 1.00827 0.91529 0.0
H335 H 0.7669 0.98757 0.97206 0.0
Eu336 Eu 0.50582 0.7788 0.29385 0.0
C337 C 0.42524 0.73118 0.26619 0.0
C338 C 0.42993 0.68885 0.31661 0.0
C339 C 0.38502 0.71055 0.29248 0.0
C340 C 0.44229 0.70932 0.29006 0.0
C341 C 0.39649 0.73171 0.26716 0.0
C342 C 0.4015 0.68945 0.3174 0.0
C343 C 0.39324 0.77236 0.21548 0.0
N344 N 0.43686 0.75128 0.24133 0.0
C345 C 0.42183 0.77081 0.21524 0.0
C346 C 0.38038 0.75286 0.24178 0.0
Eu347 Eu 0.48721 0.74367 0.23865 0.0
N348 N 0.47054 0.70817 0.28785 0.0
C349 C 0.4863 0.68823 0.3133 0.0
C350 C 0.44646 0.6681 0.3417 0.0
C351 C 0.47459 0.66805 0.34028 0.0
H352 H 0.43187 0.78549 0.19387 0.0
H353 H 0.4873 0.65251 0.36019 0.0
H354 H 0.39243 0.6732 0.33687 0.0
H355 H 0.38139 0.78833 0.19501 0.0
H356 H 0.50744 0.68797 0.31462 0.0
H357 H 0.52345 0.86581 0.1746 0.0
H358 H 0.43752 0.6523 0.36261 0.0
H359 H 0.55032 0.73646 0.35343 0.0
H360 H 0.49499 0.83628 0.21985 0.0
H361 H 0.60101 0.72727 0.36046 0.0
H362 H 0.36366 0.70998 0.29243 0.0
H363 H 0.5761 0.85514 0.17485 0.0
H364 H 0.61962 0.82543 0.20366 0.0
H365 H 0.35831 0.75388 0.24173 0.0
H366 H 0.64107 0.78756 0.25333 0.0
N367 N 0.53057 0.80885 0.24727 0.0
C368 C 0.5176 0.83133 0.22135 0.0
C369 C 0.56353 0.8421 0.19537 0.0
C370 C 0.57666 0.81938 0.22215 0.0
C371 C 0.53381 0.84825 0.19521 0.0
C372 C 0.55946 0.80288 0.24829 0.0
H373 H 0.63409 0.75158 0.31211 0.0
N374 N 0.55489 0.76551 0.30165 0.0
C375 C 0.59321 0.74215 0.33647 0.0
C376 C 0.57183 0.78083 0.27609 0.0
C377 C 0.56452 0.74755 0.33256 0.0
C378 C 0.61181 0.75587 0.30908 0.0
C379 C 0.60111 0.77577 0.27875 0.0
O380 O 0.49251 0.78318 0.35149 0.0
O381 O 0.46853 0.76435 0.29071 0.0
O382 O 0.45584 0.79319 0.23335 0.0
O383 O 0.46607 0.81449 0.27221 0.0
O384 O 0.47906 0.75251 0.34111 0.0
O385 O 0.49946 0.82047 0.31027 0.0
O386 O 0.48799 0.74728 0.18101 0.0
O387 O 0.51963 0.76562 0.23785 0.0
O388 O 0.54126 0.73231 0.29253 0.0
O389 O 0.5295 0.70939 0.25706 0.0
O390 O 0.52467 0.75324 0.19019 0.0
O391 O 0.49455 0.70422 0.21681 0.0
C392 C 0.45965 0.75327 0.32471 0.0
C393 C 0.5095 0.8142 0.37005 0.0
C394 C 0.52036 0.84624 0.39824 0.0
C395 C 0.50743 0.84295 0.37241 0.0
C396 C 0.53582 0.82082 0.42054 0.0
C397 C 0.52417 0.78955 0.39429 0.0
C398 C 0.53768 0.7928 0.41857 0.0
C399 C 0.45034 0.81592 0.24935 0.0
C400 C 0.4942 0.80955 0.34553 0.0
C401 C 0.61844 0.79147 0.25193 0.0
C402 C 0.60626 0.81309 0.22371 0.0
C403 C 0.53696 0.76396 0.20503 0.0
C404 C 0.4746 0.71264 0.1634 0.0
C405 C 0.48249 0.68391 0.15531 0.0
C406 C 0.46598 0.6789 0.13494 0.0
C407 C 0.44013 0.70239 0.12641 0.0
C408 C 0.45152 0.73602 0.1487 0.0
C409 C 0.4336 0.7307 0.13218 0.0
C410 C 0.54713 0.70982 0.27638 0.0
C411 C 0.49184 0.71931 0.18364 0.0
H412 H 0.4953 0.86245 0.35518 0.0
H413 H 0.54604 0.82276 0.44024 0.0
H414 H 0.52475 0.7675 0.39536 0.0
H415 H 0.54909 0.77347 0.43662 0.0
H416 H 0.50195 0.66619 0.16343 0.0
H417 H 0.42523 0.69939 0.11382 0.0
H418 H 0.44726 0.75877 0.14937 0.0
H419 H 0.4149 0.74887 0.1229 0.0
Eu420 Eu 0.23805 0.74924 0.48575 0.0
C421 C 0.21621 0.7857 0.63067 0.0
C422 C 0.17613 0.8331 0.62252 0.0
C423 C 0.18539 0.80926 0.68359 0.0
C424 C 0.20062 0.80986 0.60747 0.0
C425 C 0.20812 0.78501 0.66917 0.0
C426 C 0.16949 0.83328 0.6603 0.0
C427 C 0.24729 0.73749 0.67662 0.0
N428 N 0.23938 0.7632 0.6158 0.0
C429 C 0.25545 0.73965 0.63837 0.0
C430 C 0.22363 0.76035 0.69211 0.0
Eu431 Eu 0.2561 0.77472 0.55038 0.0
N432 N 0.20869 0.81032 0.57049 0.0
C433 C 0.19027 0.83069 0.54828 0.0
C434 C 0.15876 0.8554 0.59923 0.0
C435 C 0.16533 0.85366 0.56215 0.0
H436 H 0.27536 0.72266 0.62704 0.0
H437 H 0.15114 0.86992 0.54422 0.0
H438 H 0.15161 0.85164 0.67194 0.0
H439 H 0.25997 0.71862 0.69403 0.0
H440 H 0.19386 0.82894 0.52013 0.0
H441 H 0.34201 0.65271 0.48787 0.0
H442 H 0.13959 0.8734 0.60989 0.0
H443 H 0.21654 0.80334 0.41142 0.0
H444 H 0.29833 0.69132 0.51505 0.0
H445 H 0.23218 0.81058 0.34424 0.0
H446 H 0.17967 0.80952 0.71287 0.0
H447 H 0.35518 0.65417 0.42063 0.0
H448 H 0.34316 0.67919 0.35899 0.0
H449 H 0.21786 0.759 0.72175 0.0
H450 H 0.31456 0.72285 0.32026 0.0
N451 N 0.2855 0.71472 0.46408 0.0
C452 C 0.30306 0.69234 0.48585 0.0
C453 C 0.33584 0.67147 0.43246 0.0
C454 C 0.31878 0.6952 0.41008 0.0
C455 C 0.32837 0.67046 0.47041 0.0
C456 C 0.29398 0.71744 0.42667 0.0
H457 H 0.27579 0.7727 0.31414 0.0
N458 N 0.25406 0.76376 0.42074 0.0
C459 C 0.24549 0.79154 0.36079 0.0
C460 C 0.27803 0.74248 0.40458 0.0
C461 C 0.23723 0.78761 0.39918 0.0
C462 C 0.27001 0.77007 0.34396 0.0
C463 C 0.2862 0.74498 0.36576 0.0
O464 O 0.20327 0.75976 0.45718 0.0
O465 O 0.21935 0.76497 0.54068 0.0
O466 O 0.2572 0.72615 0.57534 0.0
O467 O 0.24482 0.70865 0.5347 0.0
O468 O 0.1894 0.75968 0.52116 0.0
O469 O 0.23072 0.71333 0.47229 0.0
O470 O 0.29201 0.76195 0.57777 0.0
O471 O 0.27509 0.75822 0.49562 0.0
O472 O 0.23563 0.79907 0.46215 0.0
O473 O 0.24868 0.81551 0.50315 0.0
O474 O 0.30439 0.76546 0.51379 0.0
O475 O 0.26537 0.80895 0.56464 0.0
C476 C 0.19199 0.76548 0.55002 0.0
C477 C 0.18223 0.7242 0.46139 0.0
C478 C 0.15168 0.69258 0.48828 0.0
C479 C 0.17713 0.69907 0.48618 0.0
C480 C 0.13185 0.71118 0.46517 0.0
C481 C 0.16225 0.74218 0.43847 0.0
C482 C 0.13717 0.73573 0.44049 0.0
C483 C 0.25146 0.70511 0.56702 0.0
C484 C 0.20867 0.73202 0.45666 0.0
C485 C 0.30941 0.72186 0.34973 0.0
C486 C 0.32562 0.69706 0.37178 0.0
C487 C 0.30219 0.75856 0.48551 0.0
C488 C 0.31617 0.79606 0.56806 0.0
C489 C 0.31743 0.82437 0.54976 0.0
C490 C 0.34412 0.83018 0.5425 0.0
C491 C 0.36938 0.80729 0.55381 0.0
C492 C 0.34159 0.77383 0.57921 0.0
C493 C 0.36807 0.7794 0.57184 0.0
C494 C 0.24183 0.81974 0.47093 0.0
C495 C 0.28839 0.78936 0.57787 0.0
H496 H 0.19288 0.6845 0.50317 0.0
H497 H 0.11271 0.70606 0.46514 0.0
H498 H 0.16627 0.76116 0.41859 0.0
H499 H 0.1221 0.74948 0.42239 0.0
H500 H 0.29773 0.84193 0.54195 0.0
H501 H 0.38999 0.81118 0.55025 0.0
H502 H 0.34092 0.75211 0.59415 0.0
H503 H 0.38744 0.76228 0.58094 0.0
Eu504 Eu 0.23671 0.49973 0.7402 0.0
C505 C 0.27168 0.59014 0.77014 0.0
C506 C 0.31409 0.58946 0.71818 0.0
C507 C 0.28506 0.63476 0.7427 0.0
C508 C 0.29556 0.57458 0.74512 0.0
C509 C 0.26689 0.62013 0.76973 0.0
C510 C 0.30849 0.61952 0.71691 0.0
C511 C 0.22769 0.61892 0.82462 0.0
N512 N 0.25367 0.576 0.79558 0.0
C513 C 0.23285 0.58951 0.82369 0.0
C514 C 0.24437 0.63451 0.79709 0.0
Eu515 Eu 0.26445 0.5257 0.79341 0.0
N516 N 0.30061 0.54531 0.74673 0.0
C517 C 0.32387 0.53038 0.72125 0.0
C518 C 0.33776 0.5739 0.6929 0.0
C519 C 0.3426 0.5443 0.69445 0.0
H520 H 0.21942 0.57795 0.84514 0.0
H521 H 0.36052 0.53221 0.67444 0.0
H522 H 0.32241 0.63113 0.69626 0.0
H523 H 0.21066 0.6296 0.84643 0.0
H524 H 0.32776 0.50819 0.71905 0.0
H525 H 0.12951 0.49921 0.83462 0.0
H526 H 0.35227 0.58463 0.67182 0.0
H527 H 0.28871 0.44556 0.69349 0.0
H528 H 0.16866 0.52009 0.79956 0.0
H529 H 0.29947 0.39318 0.69243 0.0
H530 H 0.28141 0.65782 0.74177 0.0
H531 H 0.13757 0.44673 0.83684 0.0
H532 H 0.17078 0.39834 0.81755 0.0
H533 H 0.24019 0.6574 0.79772 0.0
H534 H 0.21746 0.36923 0.78048 0.0
N535 N 0.19949 0.48021 0.78063 0.0
C536 C 0.17293 0.49731 0.79952 0.0
C537 C 0.15506 0.45586 0.821 0.0
C538 C 0.18211 0.4384 0.8016 0.0
C539 C 0.1504 0.48547 0.81977 0.0
C540 C 0.20418 0.45137 0.78106 0.0
H541 H 0.26538 0.36703 0.73414 0.0
N542 N 0.25065 0.44836 0.73854 0.0
C543 C 0.28028 0.40445 0.71197 0.0
C544 C 0.2306 0.43491 0.76001 0.0
C545 C 0.27434 0.434 0.71316 0.0
C546 C 0.26098 0.38981 0.73551 0.0
C547 C 0.23541 0.40518 0.75919 0.0
O548 O 0.24153 0.50324 0.68143 0.0
O549 O 0.24917 0.53899 0.73954 0.0
O550 O 0.21506 0.55571 0.79706 0.0
O551 O 0.19977 0.54383 0.75419 0.0
O552 O 0.26997 0.51792 0.69481 0.0
O553 O 0.19737 0.51217 0.71692 0.0
O554 O 0.24915 0.52469 0.85255 0.0
O555 O 0.23806 0.4952 0.79956 0.0
O556 O 0.28418 0.466 0.74617 0.0
O557 O 0.30445 0.48722 0.77335 0.0
O558 O 0.27344 0.47812 0.82536 0.0
O559 O 0.29453 0.52578 0.8248 0.0
C560 C 0.2649 0.54168 0.70649 0.0
C561 C 0.20563 0.49461 0.66191 0.0
C562 C 0.17546 0.49567 0.62228 0.0
C563 C 0.18077 0.50944 0.64537 0.0
C564 C 0.19426 0.46686 0.61696 0.0
C565 C 0.22448 0.4661 0.65516 0.0
C566 C 0.21857 0.45214 0.63345 0.0
C567 C 0.19506 0.56087 0.77785 0.0
C568 C 0.21317 0.50974 0.68349 0.0
C569 C 0.21401 0.39202 0.78073 0.0
C570 C 0.1874 0.40861 0.80175 0.0
C571 C 0.25219 0.47205 0.82074 0.0
C572 C 0.27933 0.5234 0.89208 0.0
C573 C 0.30391 0.52914 0.89535 0.0
C574 C 0.30778 0.52754 0.93058 0.0
C575 C 0.28741 0.51929 0.96214 0.0
C576 C 0.25927 0.51553 0.92422 0.0
C577 C 0.26343 0.51335 0.95891 0.0
C578 C 0.30683 0.46588 0.7575 0.0
C579 C 0.27455 0.52447 0.85581 0.0
H580 H 0.16616 0.53165 0.64969 0.0
H581 H 0.19007 0.45574 0.59991 0.0
H582 H 0.24436 0.45479 0.66556 0.0
H583 H 0.23322 0.43005 0.62886 0.0
H584 H 0.31953 0.53531 0.87082 0.0
H585 H 0.29013 0.51728 0.98953 0.0
H586 H 0.24045 0.51066 0.92261 0.0
H587 H 0.24797 0.50701 0.98347 0.0
Eu588 Eu 0.97397 0.499 0.56143 0.0
C589 C 0.03607 0.50816 0.39556 0.0
C590 C 0.07891 0.46261 0.39877 0.0
C591 C 0.06214 0.48485 0.34142 0.0
C592 C 0.05591 0.48589 0.41562 0.0
C593 C 0.03917 0.50786 0.35815 0.0
C594 C 0.0819 0.46226 0.36168 0.0
C595 C 0.99749 0.55394 0.35556 0.0
N596 N 0.01386 0.53012 0.41243 0.0
C597 C 0.99536 0.55346 0.39248 0.0
C598 C 0.01939 0.53097 0.33834 0.0
Eu599 Eu 0.01541 0.52995 0.4733 0.0
N600 N 0.05272 0.48681 0.45147 0.0
C601 C 0.07197 0.46505 0.47177 0.0
C602 C 0.09842 0.44033 0.41961 0.0
C603 C 0.09484 0.44152 0.45628 0.0
H604 H 0.97905 0.57208 0.40499 0.0
H605 H 0.10977 0.42431 0.47268 0.0
H606 H 0.09954 0.44465 0.34834 0.0
H607 H 0.98254 0.57231 0.34024 0.0
H608 H 0.0696 0.46508 0.5003 0.0
H609 H 0.87409 0.59952 0.56706 0.0
H610 H 0.11631 0.42213 0.40764 0.0
H611 H 0.01082 0.45638 0.62842 0.0
H612 H 0.91584 0.56074 0.53755 0.0
H613 H 0.00807 0.45545 0.6933 0.0
H614 H 0.06488 0.48437 0.31272 0.0
H615 H 0.86934 0.60224 0.63142 0.0
H616 H 0.8893 0.58163 0.68866 0.0
H617 H 0.02117 0.53154 0.30958 0.0
H618 H 0.92612 0.54323 0.72244 0.0
N619 N 0.93509 0.54049 0.58472 0.0
C620 C 0.91429 0.56102 0.56571 0.0
C621 C 0.88789 0.5849 0.61861 0.0
C622 C 0.9093 0.56406 0.63795 0.0
C623 C 0.89044 0.58338 0.58233 0.0
C624 C 0.93301 0.54177 0.62011 0.0
H625 H 0.97026 0.49633 0.72445 0.0
N626 N 0.97591 0.49833 0.62203 0.0
C627 C 0.99289 0.47392 0.67837 0.0
C628 C 0.95402 0.52023 0.63916 0.0
C629 C 0.99437 0.47461 0.64159 0.0
C630 C 0.97158 0.49705 0.69579 0.0
C631 C 0.95148 0.52029 0.67648 0.0
O632 O 0.97407 0.45654 0.5958 0.0
O633 O 0.99679 0.49353 0.50346 0.0
O634 O 0.97052 0.53716 0.46304 0.0
O635 O 0.9455 0.51484 0.51842 0.0
O636 O 0.00686 0.45597 0.54283 0.0
O637 O 0.93326 0.48725 0.57834 0.0
O638 O 0.01868 0.57107 0.43697 0.0
O639 O 0.99152 0.53564 0.531 0.0
O640 O 0.0164 0.49849 0.57248 0.0
O641 O 0.04513 0.51285 0.51497 0.0
O642 O 0.98439 0.57343 0.49369 0.0
O643 O 0.05784 0.53831 0.45646 0.0
C644 C 0.00935 0.46574 0.5078 0.0
C645 C 0.94186 0.43485 0.59155 0.0
C646 C 0.92522 0.40981 0.56106 0.0
C647 C 0.92826 0.43579 0.56417 0.0
C648 C 0.93555 0.38323 0.58573 0.0
C649 C 0.95162 0.40814 0.6161 0.0
C650 C 0.94853 0.38249 0.61311 0.0
C651 C 0.94753 0.52887 0.48348 0.0
C652 C 0.94657 0.46083 0.59586 0.0
C653 C 0.92834 0.54283 0.69386 0.0
C654 C 0.90732 0.56465 0.67465 0.0
C655 C 0.97921 0.56335 0.52882 0.0
C656 C 0.05597 0.58878 0.43622 0.0
C657 C 0.0673 0.58943 0.46486 0.0
C658 C 0.07356 0.61454 0.46413 0.0
C659 C 0.07012 0.63814 0.43387 0.0
C660 C 0.05281 0.61246 0.40607 0.0
C661 C 0.06009 0.63692 0.40481 0.0
C662 C 0.04106 0.50361 0.5513 0.0
C663 C 0.04684 0.56426 0.43645 0.0
H664 H 0.91988 0.45642 0.54575 0.0
H665 H 0.93255 0.36317 0.58474 0.0
H666 H 0.96171 0.40713 0.63771 0.0
H667 H 0.9559 0.36207 0.63235 0.0
H668 H 0.07102 0.57088 0.48753 0.0
H669 H 0.0753 0.65751 0.43277 0.0
H670 H 0.04455 0.61206 0.38351 0.0
H671 H 0.05762 0.6551 0.38148 0.0
Eu672 Eu 0.23826 0.24935 0.98887 0.0
C673 C 0.21655 0.28415 0.13114 0.0
C674 C 0.17961 0.3338 0.12326 0.0
C675 C 0.18533 0.30689 0.1847 0.0
C676 C 0.20297 0.30991 0.10793 0.0
C677 C 0.20727 0.28245 0.16989 0.0
C678 C 0.17156 0.33245 0.16148 0.0
C679 C 0.24493 0.23402 0.17737 0.0
N680 N 0.23952 0.26149 0.11619 0.0
C681 C 0.25449 0.23716 0.13909 0.0
C682 C 0.22121 0.25675 0.19288 0.0
Eu683 Eu 0.25793 0.27376 0.05092 0.0
N684 N 0.21259 0.31192 0.07065 0.0
C685 C 0.19788 0.33606 0.04773 0.0
C686 C 0.16521 0.35877 0.09975 0.0
C687 C 0.17405 0.35965 0.06187 0.0
H688 H 0.27471 0.22026 0.12815 0.0
H689 H 0.16267 0.37864 0.04342 0.0
H690 H 0.15449 0.35108 0.17345 0.0
H691 H 0.25671 0.21455 0.19489 0.0
H692 H 0.20369 0.33746 0.01851 0.0
H693 H 0.34273 0.15208 0.99335 0.0
H694 H 0.14705 0.37735 0.11061 0.0
H695 H 0.21755 0.30071 0.91364 0.0
H696 H 0.29848 0.19001 0.0193 0.0
H697 H 0.23529 0.30887 0.84659 0.0
H698 H 0.17899 0.30639 0.21418 0.0
H699 H 0.35882 0.15457 0.92601 0.0
H700 H 0.35132 0.1815 0.86372 0.0
H701 H 0.21447 0.25465 0.22265 0.0
H702 H 0.32347 0.22504 0.82384 0.0
N703 N 0.28573 0.21316 0.96806 0.0
C704 C 0.30322 0.19098 0.99023 0.0
C705 C 0.33845 0.17117 0.93743 0.0
C706 C 0.32198 0.1949 0.91454 0.0
C707 C 0.32934 0.16957 0.9754 0.0
C708 C 0.29562 0.21615 0.93066 0.0
H709 H 0.28159 0.27286 0.81729 0.0
N710 N 0.2553 0.26176 0.9238 0.0
C711 C 0.24834 0.2899 0.8635 0.0
C712 C 0.28023 0.24109 0.90811 0.0
C713 C 0.2387 0.28533 0.90184 0.0
C714 C 0.27438 0.26949 0.84711 0.0
C715 C 0.2904 0.24456 0.86928 0.0
O716 O 0.19723 0.26729 0.96832 0.0
O717 O 0.21614 0.27466 0.03761 0.0
O718 O 0.25824 0.22512 0.07558 0.0
O719 O 0.2453 0.2077 0.0356 0.0
O720 O 0.20168 0.24097 0.0395 0.0
O721 O 0.2273 0.22166 0.96493 0.0
O722 O 0.29128 0.26193 0.08213 0.0
O723 O 0.27679 0.25611 0.99746 0.0
O724 O 0.23528 0.29923 0.96494 0.0
O725 O 0.25772 0.3113 0.99979 0.0
O726 O 0.30702 0.26049 0.01722 0.0
O727 O 0.26927 0.30858 0.06102 0.0
C728 C 0.19753 0.26101 0.05737 0.0
C729 C 0.17752 0.23425 0.95896 0.0
C730 C 0.14663 0.20296 0.98347 0.0
C731 C 0.16995 0.211 0.98561 0.0
C732 C 0.1315 0.2179 0.95461 0.0
C733 C 0.16208 0.24889 0.93051 0.0
C734 C 0.13921 0.24069 0.92834 0.0
C735 C 0.25222 0.20408 0.06766 0.0
C736 C 0.20277 0.24268 0.95755 0.0
C737 C 0.31587 0.22285 0.85353 0.0
C738 C 0.33159 0.19811 0.8761 0.0
C739 C 0.30444 0.25462 0.98846 0.0
C740 C 0.32002 0.29267 0.06711 0.0
C741 C 0.32455 0.31906 0.04562 0.0
C742 C 0.35308 0.3216 0.03648 0.0
C743 C 0.37693 0.29752 0.04896 0.0
C744 C 0.34411 0.26922 0.0799 0.0
C745 C 0.37239 0.2716 0.07059 0.0
C746 C 0.24731 0.31711 0.96978 0.0
C747 C 0.29042 0.28914 0.07762 0.0
H748 H 0.18219 0.19915 1.00724 0.0
H749 H 0.11394 0.21149 0.9521 0.0
H750 H 0.16814 0.26639 0.90947 0.0
H751 H 0.12766 0.25178 0.906 0.0
H752 H 0.306 0.33769 0.03661 0.0
H753 H 0.39888 0.29922 0.04345 0.0
H754 H 0.3411 0.24897 0.09731 0.0
H755 H 0.39071 0.25351 0.08077 0.0
Eu756 Eu 0.23816 0.99472 0.23932 0.0
C757 C 0.26298 0.09426 0.26069 0.0
C758 C 0.3089 0.09056 0.21347 0.0
C759 C 0.27646 0.13846 0.22955 0.0
C760 C 0.28916 0.0769 0.2401 0.0
C761 C 0.25685 0.12515 0.25597 0.0
C762 C 0.30232 0.12126 0.20828 0.0
C763 C 0.21332 0.1277 0.30587 0.0
N764 N 0.24373 0.08121 0.28559 0.0
C765 C 0.22023 0.09718 0.30964 0.0
C766 C 0.23139 0.14186 0.27845 0.0
Eu767 Eu 0.25833 0.02883 0.29217 0.0
N768 N 0.29507 0.04706 0.24528 0.0
C769 C 0.32028 0.03027 0.22377 0.0
C770 C 0.33466 0.07313 0.19229 0.0
C771 C 0.34027 0.04292 0.1974 0.0
H772 H 0.20623 0.08651 0.33159 0.0
H773 H 0.3599 0.02928 0.18062 0.0
H774 H 0.31722 0.13192 0.18791 0.0
H775 H 0.19408 0.14024 0.32423 0.0
H776 H 0.32528 1.00726 0.22497 0.0
H777 H 0.14429 0.98528 0.35795 0.0
H778 H 0.35017 0.08285 0.17158 0.0
H779 H 0.28867 0.94225 0.19123 0.0
H780 H 0.17658 1.01029 0.31238 0.0
H781 H 0.30145 0.88926 0.19126 0.0
H782 H 0.27193 0.16208 0.22555 0.0
H783 H 0.15425 0.93228 0.36094 0.0
H784 H 0.18616 0.88555 0.33688 0.0
H785 H 0.22598 0.16555 0.27556 0.0
H786 H 0.22917 0.85931 0.29258 0.0
N787 N 0.2044 0.97299 0.28612 0.0
C788 C 0.18088 0.98777 0.31122 0.0
C789 C 0.16833 0.94344 0.33979 0.0
C790 C 0.19254 0.92812 0.31469 0.0
C791 C 0.16258 0.97335 0.3381 0.0
C792 C 0.21043 0.94361 0.28778 0.0
H793 H 0.27215 0.86041 0.23859 0.0
N794 N 0.25285 0.94343 0.23882 0.0
C795 C 0.2829 0.89993 0.2119 0.0
C796 C 0.23522 0.92852 0.26345 0.0
C797 C 0.27555 0.92997 0.21205 0.0
C798 C 0.26631 0.88375 0.23861 0.0
C799 C 0.24195 0.89802 0.26455 0.0
O800 O 0.24865 0.99241 0.18184 0.0
O801 O 0.24476 0.03784 0.23811 0.0
O802 O 0.20889 0.05605 0.28984 0.0
O803 O 0.19618 0.03468 0.25373 0.0
O804 O 0.2675 0.01737 0.19311 0.0
O805 O 0.20195 1.00083 0.21289 0.0
O806 O 0.24647 0.03742 0.3479 0.0
O807 O 0.25136 0.9871 0.29212 0.0
O808 O 0.28647 0.96536 0.24422 0.0
O809 O 0.29952 0.98714 0.27975 0.0
O810 O 0.23757 0.9988 0.3422 0.0
O811 O 0.29259 0.02853 0.3165 0.0
C812 C 0.26053 0.04137 0.20524 0.0
C813 C 0.2142 0.9968 0.14722 0.0
C814 C 0.17885 1.00702 0.10985 0.0
C815 C 0.18446 1.00634 0.14353 0.0
C816 C 0.20288 0.99775 0.08035 0.0
C817 C 0.23794 0.98727 0.11739 0.0
C818 C 0.23225 0.98775 0.08424 0.0
C819 C 0.18951 0.05528 0.27336 0.0
C820 C 0.22127 0.9967 0.18147 0.0
C821 C 0.22415 0.88274 0.29119 0.0
C822 C 0.19959 0.89771 0.31629 0.0
C823 C 0.24073 0.97816 0.32589 0.0
C824 C 0.28439 0.01941 0.38186 0.0
C825 C 0.30548 0.02758 0.38956 0.0
C826 C 0.31592 0.01394 0.42212 0.0
C827 C 0.30491 0.99227 0.44723 0.0
C828 C 0.27323 0.99796 0.40745 0.0
C829 C 0.28348 0.98453 0.44001 0.0
C830 C 0.30596 0.9661 0.2606 0.0
C831 C 0.27372 0.03447 0.34765 0.0
H832 H 0.1659 0.01343 0.16635 0.0
H833 H 0.19885 0.99775 0.05444 0.0
H834 H 0.26105 0.97939 0.11958 0.0
H835 H 0.25066 0.9803 0.06151 0.0
H836 H 0.31401 0.04431 0.37008 0.0
H837 H 0.31281 0.98149 0.47248 0.0
H838 H 0.25662 0.99162 0.40242 0.0
H839 H 0.27485 0.96801 0.45967 0.0
Eu840 Eu 0.50782 0.27447 0.7962 0.0
C841 C 0.42429 0.24199 0.74503 0.0
C842 C 0.41585 0.20283 0.79657 0.0
C843 C 0.37898 0.22985 0.75903 0.0
C844 C 0.43392 0.21984 0.77437 0.0
C845 C 0.39677 0.24694 0.73707 0.0
C846 C 0.38866 0.20772 0.78838 0.0
C847 C 0.40764 0.2832 0.68358 0.0
N848 N 0.44216 0.25787 0.72344 0.0
C849 C 0.43484 0.27736 0.69218 0.0
C850 C 0.38838 0.26812 0.70631 0.0
Eu851 Eu 0.48936 0.24275 0.7376 0.0
N852 N 0.46106 0.21443 0.78081 0.0
C853 C 0.47085 0.19306 0.80959 0.0
C854 C 0.42581 0.18098 0.82607 0.0
C855 C 0.45335 0.17624 0.83272 0.0
H856 H 0.44993 0.28881 0.67435 0.0
H857 H 0.46115 0.15961 0.85569 0.0
H858 H 0.37526 0.19399 0.80403 0.0
H859 H 0.40166 0.29911 0.65924 0.0
H860 H 0.49162 0.18937 0.81582 0.0
H861 H 0.50446 0.37367 0.68501 0.0
H862 H 0.41239 0.16771 0.84389 0.0
H863 H 0.56659 0.22728 0.83531 0.0
H864 H 0.48488 0.33677 0.72705 0.0
H865 H 0.61904 0.22025 0.82821 0.0
H866 H 0.35797 0.23312 0.75303 0.0
H867 H 0.55593 0.37061 0.67991 0.0
H868 H 0.60364 0.34453 0.7 0.0
H869 H 0.36744 0.27246 0.69935 0.0
H870 H 0.63422 0.30324 0.73877 0.0
N871 N 0.52409 0.31148 0.7491 0.0
C872 C 0.50706 0.33436 0.72698 0.0
C873 C 0.54735 0.35387 0.69918 0.0
C874 C 0.56517 0.33022 0.72066 0.0
C875 C 0.51831 0.35572 0.70208 0.0
C876 C 0.55312 0.30874 0.74537 0.0
H877 H 0.64156 0.25563 0.7829 0.0
N878 N 0.55974 0.26376 0.7898 0.0
C879 C 0.60607 0.23808 0.81011 0.0
C880 C 0.57126 0.28437 0.76591 0.0
C881 C 0.57629 0.24178 0.81319 0.0
C882 C 0.6186 0.25816 0.78468 0.0
C883 C 0.60104 0.28199 0.76294 0.0
O884 O 0.51348 0.26676 0.8518 0.0
O885 O 0.47501 0.25437 0.79441 0.0
O886 O 0.45387 0.28932 0.74022 0.0
O887 O 0.46489 0.30952 0.77962 0.0
O888 O 0.46879 0.26584 0.84324 0.0
O889 O 0.5009 0.31252 0.82104 0.0
O890 O 0.50732 0.23733 0.68024 0.0
O891 O 0.52719 0.25506 0.74308 0.0
O892 O 0.53415 0.22423 0.80592 0.0
O893 O 0.52658 0.2052 0.76264 0.0
O894 O 0.51563 0.27082 0.69307 0.0
O895 O 0.49639 0.20128 0.72008 0.0
C896 C 0.45712 0.25555 0.82689 0.0
C897 C 0.50756 0.30442 0.88474 0.0
C898 C 0.50755 0.34061 0.91677 0.0
C899 C 0.50566 0.33364 0.88468 0.0
C900 C 0.51065 0.31851 0.94852 0.0
C901 C 0.51061 0.28307 0.9173 0.0
C902 C 0.51204 0.29011 0.94878 0.0
C903 C 0.44773 0.31073 0.75846 0.0
C904 C 0.50751 0.29476 0.85161 0.0
C905 C 0.61221 0.304 0.73957 0.0
C906 C 0.59456 0.32778 0.71811 0.0
C907 C 0.53572 0.26793 0.70985 0.0
C908 C 0.49231 0.20716 0.65737 0.0
C909 C 0.49606 0.17857 0.65228 0.0
C910 C 0.48479 0.17585 0.6243 0.0
C911 C 0.47028 0.20187 0.60174 0.0
C912 C 0.4783 0.23229 0.63321 0.0
C913 C 0.46713 0.22966 0.60615 0.0
C914 C 0.54006 0.20237 0.78865 0.0
C915 C 0.50498 0.21137 0.68511 0.0
H916 H 0.50339 0.35048 0.85995 0.0
H917 H 0.51193 0.32333 0.97341 0.0
H918 H 0.51205 0.26061 0.91855 0.0
H919 H 0.51443 0.27335 0.97353 0.0
H920 H 0.50762 0.15879 0.6697 0.0
H921 H 0.46186 0.20072 0.57976 0.0
H922 H 0.47651 0.25429 0.63439 0.0
H923 H 0.45638 0.24934 0.58798 0.0
Eu924 Eu 0.01054 0.77417 0.79882 0.0
C925 C 0.91792 0.7492 0.7612 0.0
C926 C 0.91639 0.70623 0.80968 0.0
C927 C 0.87212 0.7371 0.78567 0.0
C928 C 0.93233 0.72452 0.78497 0.0
C929 C 0.88779 0.75525 0.761 0.0
C930 C 0.8864 0.71274 0.80992 0.0
C931 C 0.89134 0.79502 0.70919 0.0
N932 N 0.93345 0.76655 0.73728 0.0
C933 C 0.92114 0.78808 0.71006 0.0
C934 C 0.87444 0.77881 0.73512 0.0
Eu935 Eu 0.98453 0.75124 0.73892 0.0
N936 N 0.96167 0.71828 0.78409 0.0
C937 C 0.97576 0.69441 0.80794 0.0
C938 C 0.93097 0.68174 0.83359 0.0
C939 C 0.96074 0.67592 0.83279 0.0
H940 H 0.93428 0.8003 0.68917 0.0
H941 H 0.97215 0.65727 0.85159 0.0
H942 H 0.87434 0.69865 0.82851 0.0
H943 H 0.88154 0.81265 0.68824 0.0
H944 H -0.00178 0.68962 0.80944 0.0
H945 H 0.0285 0.86601 0.68668 0.0
H946 H 0.91937 0.66734 0.85297 0.0
H947 H 0.0597 0.72109 0.84884 0.0
H948 H -5e-05 0.83569 0.72881 0.0
H949 H 0.11302 0.70535 0.84966 0.0
H950 H 0.8491 0.74148 0.78566 0.0
H951 H 0.08171 0.85293 0.68622 0.0
H952 H 0.12549 0.81978 0.71232 0.0
H953 H 0.85139 0.78403 0.73418 0.0
H954 H 0.1493 0.7754 0.75425 0.0
N955 N 0.03586 0.80503 0.75423 0.0
C956 C 0.02271 0.82955 0.73036 0.0
C957 C 0.06906 0.83941 0.70546 0.0
C958 C 0.08249 0.81442 0.72976 0.0
C959 C 0.03906 0.84691 0.70569 0.0
C960 C 0.0653 0.79722 0.75411 0.0
H961 H 0.14489 0.7327 0.80489 0.0
N962 N 0.06186 0.75551 0.80163 0.0
C963 C 0.10376 0.72381 0.8291 0.0
C964 C 0.0786 0.77188 0.77809 0.0
C965 C 0.07369 0.73252 0.8281 0.0
C966 C 0.12163 0.73935 0.80386 0.0
C967 C 0.10907 0.76393 0.77845 0.0
O968 O 0.00945 0.7743 0.85592 0.0
O969 O 0.97011 0.76616 0.79434 0.0
O970 O 0.95478 0.80036 0.74023 0.0
O971 O 0.97129 0.81415 0.78035 0.0
O972 O 0.98004 0.75119 0.84524 0.0
O973 O 0.00093 0.81564 0.81733 0.0
O974 O 0.98496 0.75603 0.6813 0.0
O975 O 0.02491 0.75976 0.74291 0.0
O976 O 0.03916 0.72443 0.79737 0.0
O977 O 0.02501 0.71134 0.75428 0.0
O978 O 0.01445 0.7746 0.69238 0.0
O979 O 0.991 0.71209 0.71658 0.0
C980 C 0.96027 0.75458 0.82769 0.0
C981 C 0.02233 0.81257 0.86662 0.0
C982 C 0.02838 0.84723 0.89622 0.0
C983 C 0.01061 0.83978 0.88024 0.0
C984 C 0.05801 0.82803 0.89631 0.0
C985 C 0.05143 0.79373 0.86966 0.0
C986 C 0.06922 0.80155 0.88352 0.0
C987 C 0.95311 0.82019 0.75828 0.0
C988 C 0.00444 0.80282 0.85075 0.0
C989 C 0.12596 0.78113 0.75422 0.0
C990 C 0.1126 0.80631 0.7302 0.0
C991 C 0.03445 0.77135 0.70937 0.0
C992 C 0.9915 0.71664 0.65088 0.0
C993 C 0.98557 0.69049 0.65313 0.0
C994 C 0.98859 0.68106 0.62036 0.0
C995 C 0.99728 0.698 0.58605 0.0
C996 C 2e-05 0.73288 0.61587 0.0
C997 C 0.0029 0.72361 0.58387 0.0
C998 C 0.04256 0.70518 0.77722 0.0
C999 C 0.98856 0.72821 0.6839 0.0
H1000 H 0.98781 0.85434 0.87957 0.0
H1001 H 0.07249 0.83319 0.90733 0.0
H1002 H 0.06056 0.77248 0.862 0.0
H1003 H 0.09176 0.78662 0.88503 0.0
H1004 H 0.97869 0.67778 0.67981 0.0
H1005 H -0.00053 0.6915 0.56063 0.0
H1006 H 0.00462 0.75292 0.61308 0.0
H1007 H 0.00945 0.73643 0.55715 0.0
Eu1008 Eu 0.73273 0.49999 0.23717 0.0
C1009 C 0.76859 0.58796 0.26903 0.0
C1010 C 0.81297 0.58466 0.2194 0.0
C1011 C 0.78345 0.6316 0.23988 0.0
C1012 C 0.79322 0.57102 0.24603 0.0
C1013 C 0.76391 0.61829 0.26645 0.0
C1014 C 0.80784 0.61486 0.2164 0.0
C1015 C 0.72129 0.62044 0.31762 0.0
N1016 N 0.74906 0.57516 0.29365 0.0
C1017 C 0.72658 0.59056 0.31908 0.0
C1018 C 0.73972 0.63452 0.29079 0.0
Eu1019 Eu 0.75994 0.52412 0.2948 0.0
N1020 N 0.79749 0.54177 0.24876 0.0
C1021 C 0.82128 0.52553 0.2251 0.0
C1022 C 0.83723 0.56776 0.19595 0.0
C1023 C 0.84135 0.53813 0.19885 0.0
H1024 H 0.71222 0.58003 0.34054 0.0
H1025 H 0.85987 0.52494 0.1804 0.0
H1026 H 0.8227 0.62551 0.19594 0.0
H1027 H 0.70295 0.63257 0.33724 0.0
H1028 H 0.82513 0.50305 0.22451 0.0
H1029 H 0.62655 0.49493 0.33146 0.0
H1030 H 0.85274 0.57747 0.17523 0.0
H1031 H 0.78322 0.45082 0.18391 0.0
H1032 H 0.66686 0.51516 0.3027 0.0
H1033 H 0.79376 0.40029 0.17516 0.0
H1034 H 0.77993 0.65487 0.23733 0.0
H1035 H 0.63292 0.44517 0.32388 0.0
H1036 H 0.66513 0.3995 0.29752 0.0
H1037 H 0.73545 0.65777 0.28956 0.0
H1038 H 0.71136 0.37301 0.25723 0.0
N1039 N 0.69562 0.4791 0.2749 0.0
C1040 C 0.66976 0.49443 0.29679 0.0
C1041 C 0.65061 0.45443 0.31004 0.0
C1042 C 0.6773 0.4384 0.28848 0.0
C1043 C 0.64684 0.48258 0.31417 0.0
C1044 C 0.69966 0.45152 0.27071 0.0
H1045 H 0.75945 0.37288 0.21208 0.0
N1046 N 0.74614 0.45033 0.2293 0.0
C1047 C 0.7749 0.40991 0.19626 0.0
C1048 C 0.72582 0.43653 0.24795 0.0
C1049 C 0.76929 0.43823 0.20191 0.0
C1050 C 0.75544 0.39459 0.21703 0.0
C1051 C 0.73009 0.40817 0.24244 0.0
O1052 O 0.73833 0.50786 0.17777 0.0
O1053 O 0.74419 0.53796 0.242 0.0
O1054 O 0.70938 0.55296 0.29932 0.0
O1055 O 0.69497 0.54094 0.2555 0.0
O1056 O 0.7625 0.5239 0.19242 0.0
O1057 O 0.69394 0.51368 0.21286 0.0
O1058 O 0.74563 0.52721 0.35325 0.0
O1059 O 0.73541 0.49332 0.29667 0.0
O1060 O 0.77946 0.46667 0.24099 0.0
O1061 O 0.79846 0.48259 0.27655 0.0
O1062 O 0.76396 0.47897 0.33163 0.0
O1063 O 0.79244 0.52187 0.32356 0.0
C1064 C 0.7581 0.54484 0.20907 0.0
C1065 C 0.70488 0.49662 0.15711 0.0
C1066 C 0.67073 0.48945 0.1304 0.0
C1067 C 0.67571 0.50384 0.15283 0.0
C1068 C 0.69469 0.467 0.11362 0.0
C1069 C 0.72879 0.47506 0.13856 0.0
C1070 C 0.72355 0.45989 0.1177 0.0
C1071 C 0.68947 0.55726 0.28014 0.0
C1072 C 0.71038 0.51258 0.17942 0.0
C1073 C 0.70835 0.39476 0.26108 0.0
C1074 C 0.68198 0.40989 0.28391 0.0
C1075 C 0.74641 0.47118 0.32141 0.0
C1076 C 0.77953 0.5249 0.38891 0.0
C1077 C 0.80913 0.51976 0.39051 0.0
C1078 C 0.81535 0.51889 0.42391 0.0
C1079 C 0.79201 0.52335 0.45542 0.0
C1080 C 0.75651 0.52956 0.4208 0.0
C1081 C 0.76277 0.5288 0.45378 0.0
C1082 C 0.80086 0.46362 0.25663 0.0
C1083 C 0.77245 0.52461 0.35471 0.0
H1084 H 0.65724 0.52119 0.16578 0.0
H1085 H 0.6911 0.4554 0.09662 0.0
H1086 H 0.75167 0.4701 0.13956 0.0
H1087 H 0.742 0.44303 0.104 0.0
H1088 H 0.82722 0.51611 0.36623 0.0
H1089 H 0.79644 0.52279 0.48132 0.0
H1090 H 0.73362 0.53365 0.42037 0.0
H1091 H 0.74489 0.53235 0.47821 0.0
Eu1092 Eu 0.73566 0.74958 0.98549 0.0
C1093 C 0.72127 0.78418 0.12725 0.0
C1094 C 0.68105 0.83153 0.12205 0.0
C1095 C 0.69062 0.80497 0.1823 0.0
C1096 C 0.70538 0.80893 0.10531 0.0
C1097 C 0.71369 0.7818 0.16606 0.0
C1098 C 0.67453 0.82989 0.16029 0.0
C1099 C 0.75333 0.73434 0.17034 0.0
N1100 N 0.74401 0.76233 0.11089 0.0
C1101 C 0.76057 0.73797 0.13191 0.0
C1102 C 0.72979 0.75636 0.18754 0.0
Eu1103 Eu 0.75791 0.77162 0.04524 0.0
N1104 N 0.71251 0.81022 0.0681 0.0
C1105 C 0.69303 0.83153 0.04756 0.0
C1106 C 0.66325 0.85475 0.10012 0.0
C1107 C 0.66878 0.85425 0.0629 0.0
H1108 H 0.77997 0.72132 0.11923 0.0
H1109 H 0.65396 0.87105 0.04605 0.0
H1110 H 0.65662 0.84757 0.1732 0.0
H1111 H 0.76636 0.71481 0.18662 0.0
H1112 H 0.69445 0.83061 0.01986 0.0
H1113 H 0.83908 0.65201 0.97879 0.0
H1114 H 0.64429 0.87231 0.112 0.0
H1115 H 0.71125 0.80515 0.91308 0.0
H1116 H 0.79776 0.69066 1.0086 0.0
H1117 H 0.72531 0.81508 0.84583 0.0
H1118 H 0.68494 0.80377 0.21191 0.0
H1119 H 0.84915 0.65526 0.91151 0.0
H1120 H 0.83486 0.68229 0.85168 0.0
H1121 H 0.72448 0.75372 0.21734 0.0
H1122 H 0.80617 0.72769 0.81546 0.0
N1123 N 0.78274 0.71596 0.95946 0.0
C1124 C 0.80089 0.69241 0.97954 0.0
C1125 C 0.83071 0.67252 0.92461 0.0
C1126 C 0.81306 0.69717 0.90387 0.0
C1127 C 0.82501 0.67052 0.96253 0.0
C1128 C 0.78942 0.71931 0.92208 0.0
H1129 H 0.76779 0.77822 0.81271 0.0
N1130 N 0.7493 0.76545 0.91974 0.0
C1131 C 0.73905 0.79541 0.86114 0.0
C1132 C 0.7727 0.74484 0.90173 0.0
C1133 C 0.73183 0.79004 0.89964 0.0
C1134 C 0.76293 0.77452 0.84259 0.0
C1135 C 0.77953 0.74857 0.86276 0.0
O1136 O 0.70588 0.75316 0.95294 0.0
O1137 O 0.72088 0.75731 0.04439 0.0
O1138 O 0.75996 0.72207 0.07015 0.0
O1139 O 0.74342 0.70764 0.03116 0.0
O1140 O 0.68803 0.77624 1.01578 0.0
O1141 O 0.72219 0.71168 0.98879 0.0
O1142 O 0.80261 0.7479 0.05652 0.0
O1143 O 0.77851 0.74955 0.99435 0.0
O1144 O 0.73021 0.79979 0.96342 0.0
O1145 O 0.74874 0.81452 1.00013 0.0
O1146 O 0.79015 0.78499 0.9921 0.0
O1147 O 0.77645 0.79139 0.07111 0.0
C1148 C 0.69264 0.77109 0.04849 0.0
C1149 C 0.67462 0.72426 0.97448 0.0
C1150 C 0.64143 0.69506 0.99825 0.0
C1151 C 0.66968 0.69734 0.99281 0.0
C1152 C 0.6185 0.71957 0.98463 0.0
C1153 C 0.65127 0.74834 0.96085 0.0
C1154 C 0.62347 0.74594 0.96598 0.0
C1155 C 0.75295 0.70184 0.06183 0.0
C1156 C 0.70461 0.72669 0.96597 0.0
C1157 C 0.80181 0.72579 0.84506 0.0
C1158 C 0.8182 0.7 0.86563 0.0
C1159 C 0.79524 0.76496 0.97365 0.0
C1160 C 0.829 0.77987 0.0511 0.0
C1161 C 0.82604 0.80987 0.04605 0.0
C1162 C 0.85142 0.81862 0.03445 0.0
C1163 C 0.87988 0.79693 0.02573 0.0
C1164 C 0.85759 0.75873 0.04248 0.0
C1165 C 0.88281 0.76735 0.02936 0.0
C1166 C 0.73858 0.81979 0.96989 0.0
C1167 C 0.8026 0.77036 0.06747 0.0
H1168 H 0.68772 0.67821 1.00215 0.0
H1169 H 0.59691 0.71797 0.98729 0.0
H1170 H 0.65454 0.76901 0.94549 0.0
H1171 H 0.60586 0.76441 0.95487 0.0
H1172 H 0.804 0.82631 0.05242 0.0
H1173 H 0.90014 0.80234 0.01784 0.0
H1174 H 0.86051 0.73547 0.04639 0.0
H1175 H 0.90484 0.75087 0.0232 0.0
Eu1176 Eu 0.47923 0.99637 0.5574 0.0
C1177 C 0.53179 0.01742 0.38591 0.0
C1178 C 0.57928 0.97682 0.37768 0.0
C1179 C 0.55531 1.0023 0.32602 0.0
C1180 C 0.55532 0.99547 0.40047 0.0
C1181 C 0.53186 0.02125 0.34834 0.0
C1182 C 0.57895 0.98018 0.34063 0.0
C1183 C 0.48709 0.06432 0.35629 0.0
N1184 N 0.50963 0.03596 0.40776 0.0
C1185 C 0.4882 0.06001 0.39309 0.0
C1186 C 0.50887 0.04472 0.33388 0.0
Eu1187 Eu 0.51608 0.0299 0.46777 0.0
N1188 N 0.55522 0.99264 0.43648 0.0
C1189 C 0.57871 0.97173 0.45104 0.0
C1190 C 0.60314 0.95547 0.39262 0.0
C1191 C 0.60283 0.95294 0.42943 0.0
H1192 H 0.47183 0.07577 0.41014 0.0
H1193 H 0.62111 0.93637 0.44131 0.0
H1194 H 0.5971 0.96599 0.32289 0.0
H1195 H 0.46973 0.08305 0.34507 0.0
H1196 H 0.57916 0.96861 0.47947 0.0
H1197 H 0.37022 0.08639 0.56852 0.0
H1198 H 0.62188 0.94082 0.37599 0.0
H1199 H 0.52034 0.95941 0.62144 0.0
H1200 H 0.41477 0.05141 0.5369 0.0
H1201 H 0.51919 0.96151 0.68481 0.0
H1202 H 0.55568 1.00495 0.29716 0.0
H1203 H 0.36699 0.09209 0.63102 0.0
H1204 H 0.39002 0.07669 0.68522 0.0
H1205 H 0.50824 0.04838 0.30518 0.0
H1206 H 0.43075 0.0436 0.71624 0.0
N1207 N 0.4374 0.03577 0.58124 0.0
C1208 C 0.4141 0.05281 0.5643 0.0
C1209 C 0.38685 0.07631 0.61733 0.0
C1210 C 0.41063 0.05896 0.63465 0.0
C1211 C 0.38853 0.07307 0.58214 0.0
C1212 C 0.43595 0.03843 0.61585 0.0
H1213 H 0.47879 1.0009 0.71633 0.0
N1214 N 0.48245 0.99878 0.61602 0.0
C1215 C 0.50235 0.97817 0.67061 0.0
C1216 C 0.45911 0.01968 0.6335 0.0
C1217 C 0.50301 0.97717 0.63472 0.0
C1218 C 0.47954 1.00046 0.68825 0.0
C1219 C 0.45721 0.02113 0.67012 0.0
O1220 O 0.48254 0.95259 0.59178 0.0
O1221 O 0.5029 0.99042 0.49932 0.0
O1222 O 0.4758 0.02567 0.45739 0.0
O1223 O 0.44988 1.0091 0.51607 0.0
O1224 O 0.51637 0.95486 0.53821 0.0
O1225 O 0.43939 0.98366 0.58066 0.0
O1226 O 0.51847 0.07306 0.43703 0.0
O1227 O 0.49226 0.0354 0.52549 0.0
O1228 O 0.51809 1.00422 0.5664 0.0
O1229 O 0.54741 1.00833 0.50689 0.0
O1230 O 0.48167 0.0728 0.48709 0.0
O1231 O 0.55814 0.03838 0.45378 0.0
C1232 C 0.51881 0.96331 0.50285 0.0
C1233 C 0.44396 0.93257 0.60255 0.0
C1234 C 0.42022 0.90649 0.58404 0.0
C1235 C 0.42874 0.93126 0.57831 0.0
C1236 C 0.42567 0.8838 0.61479 0.0
C1237 C 0.44921 0.9097 0.6332 0.0
C1238 C 0.43991 0.88555 0.6394 0.0
C1239 C 0.4523 0.01933 0.48004 0.0
C1240 C 0.45382 0.95769 0.5979 0.0
C1241 C 0.43251 0.04221 0.68818 0.0
C1242 C 0.40928 0.06102 0.67053 0.0
C1243 C 0.47714 0.06257 0.52211 0.0
C1244 C 0.55697 0.08867 0.43915 0.0
C1245 C 0.57241 0.08535 0.46593 0.0
C1246 C 0.58369 0.10752 0.46413 0.0
C1247 C 0.57944 0.13264 0.4358 0.0
C1248 C 0.55305 0.11396 0.41116 0.0
C1249 C 0.5642 0.13582 0.40955 0.0
C1250 C 0.54352 1.00493 0.5429 0.0
C1251 C 0.54672 0.06557 0.43691 0.0
H1252 H 0.42426 0.94886 0.55468 0.0
H1253 H 0.41923 0.86454 0.61942 0.0
H1254 H 0.46046 0.91059 0.65247 0.0
H1255 H 0.44405 0.86799 0.66308 0.0
H1256 H 0.57593 0.06581 0.48744 0.0
H1257 H 0.58831 0.14975 0.43381 0.0
H1258 H 0.54175 0.11656 0.39 0.0
H1259 H 0.56133 0.15511 0.38764 0.0
Eu1260 Eu 0.47903 0.49785 0.05282 0.0
C1261 C 0.54038 0.4965 0.88893 0.0
C1262 C 0.58725 0.45501 0.88657 0.0
C1263 C 0.56136 0.47036 0.83696 0.0
C1264 C 0.56426 0.47748 0.90508 0.0
C1265 C 0.53952 0.49374 0.85395 0.0
C1266 C 0.58508 0.45097 0.85331 0.0
C1267 C 0.49856 0.54033 0.85148 0.0
N1268 N 0.51981 0.51956 0.90517 0.0
C1269 C 0.50043 0.54237 0.88573 0.0
C1270 C 0.51779 0.5156 0.83582 0.0
Eu1271 Eu 0.52467 0.52168 0.96346 0.0
N1272 N 0.56671 0.4827 0.93651 0.0
C1273 C 0.59326 0.46804 0.94789 0.0
C1274 C 0.61276 0.43824 0.9007 0.0
C1275 C 0.61603 0.44524 0.93099 0.0
H1276 H 0.48547 0.56189 0.89729 0.0
H1277 H 0.63649 0.43352 0.9409 0.0
H1278 H 0.60247 0.43376 0.83906 0.0
H1279 H 0.48245 0.55798 0.83703 0.0
H1280 H 0.59817 0.47376 0.96933 0.0
H1281 H 0.39126 0.60694 0.0547 0.0
H1282 H 0.6308 0.42094 0.88722 0.0
H1283 H 0.51606 0.45286 0.1189 0.0
H1284 H 0.42729 0.56381 0.02743 0.0
H1285 H 0.51628 0.45192 0.18286 0.0
H1286 H 0.56084 0.46787 0.81033 0.0
H1287 H 0.38929 0.60986 0.11808 0.0
H1288 H 0.40869 0.58663 0.1758 0.0
H1289 H 0.51661 0.51428 0.80893 0.0
H1290 H 0.44292 0.54492 0.21024 0.0
N1291 N 0.44588 0.54193 0.07485 0.0
C1292 C 0.42668 0.56441 0.05522 0.0
C1293 C 0.40527 0.59073 0.10624 0.0
C1294 C 0.42487 0.56763 0.12631 0.0
C1295 C 0.40625 0.58913 0.07052 0.0
C1296 C 0.44533 0.54322 0.10962 0.0
H1297 H 0.48313 0.49492 0.21303 0.0
N1298 N 0.48444 0.49676 0.11208 0.0
C1299 C 0.50199 0.47132 0.16789 0.0
C1300 C 0.46511 0.52 0.12876 0.0
C1301 C 0.50189 0.47201 0.13165 0.0
C1302 C 0.48325 0.49562 0.18479 0.0
C1303 C 0.46425 0.52019 0.16546 0.0
O1304 O 0.47187 0.45909 0.0911 0.0
O1305 O 0.50436 0.48797 0.99663 0.0
O1306 O 0.48024 0.52424 0.95503 0.0
O1307 O 0.4488 0.51519 1.01245 0.0
O1308 O 0.511 0.45243 0.03839 0.0
O1309 O 0.43496 0.49262 0.06827 0.0
O1310 O 0.51177 0.56848 0.9378 0.0
O1311 O 0.48994 0.53702 1.01435 0.0
O1312 O 0.52177 0.49658 0.06318 0.0
O1313 O 0.55319 0.49334 1.00497 0.0
O1314 O 0.52808 0.54872 0.99883 0.0
O1315 O 0.55896 0.54061 0.92973 0.0
C1316 C 0.51768 0.46051 1.00306 0.0
C1317 C 0.4343 0.44275 0.08984 0.0
C1318 C 0.40564 0.42247 0.07052 0.0
C1319 C 0.41535 0.44596 0.06744 0.0
C1320 C 0.41492 0.39597 0.09564 0.0
C1321 C 0.44312 0.41613 0.11505 0.0
C1322 C 0.43357 0.39285 0.11776 0.0
C1323 C 0.45416 0.52272 0.97608 0.0
C1324 C 0.44405 0.46693 0.08963 0.0
C1325 C 0.44392 0.54444 0.18209 0.0
C1326 C 0.42436 0.56814 0.16252 0.0
C1327 C 0.50291 0.55122 0.0221 0.0
C1328 C 0.54656 0.59147 0.93156 0.0
C1329 C 0.56797 0.58566 0.95196 0.0
C1330 C 0.57239 0.60937 0.95931 0.0
C1331 C 0.55591 0.63869 0.94551 0.0
C1332 C 0.53056 0.62092 0.91787 0.0
C1333 C 0.53527 0.64438 0.92478 0.0
C1334 C 0.5483 0.49323 0.04053 0.0
C1335 C 0.53958 0.56757 0.92497 0.0
H1336 H 0.40803 0.46642 0.04817 0.0
H1337 H 0.40746 0.37772 0.09829 0.0
H1338 H 0.45727 0.41341 0.13298 0.0
H1339 H 0.44044 0.37246 0.13726 0.0
H1340 H 0.58079 0.56307 0.9624 0.0
H1341 H 0.55947 0.65728 0.95022 0.0
H1342 H 0.51423 0.62577 0.90195 0.0
H1343 H 0.52292 0.66704 0.91401 0.0
H1344 H 0.02049 0.0673 0.05182 0.0
H1345 H 0.9256 0.1035 0.05903 0.0
H1346 H 0.92014 0.13858 0.09557 0.0
H1347 H 0.94306 0.16407 0.1176 0.0
H1348 H 0.03895 0.13435 0.10072 0.0
H1349 H 0.04377 0.0923 0.07551 0.0
C1350 C -0.0014 0.08223 0.06249 0.0
C1351 C 0.97312 0.08115 0.05496 0.0
C1352 C 0.99607 0.10411 0.0811 0.0
C1353 C 0.94517 0.10221 0.06662 0.0
C1354 C 0.94218 0.12281 0.0869 0.0
C1355 C 0.96491 0.14764 0.10982 0.0
C1356 C 0.99051 0.15176 0.11242 0.0
C1357 C 0.96751 0.12445 0.09363 0.0
C1358 C 0.01882 0.13106 0.10054 0.0
C1359 C 0.02157 0.10726 0.08553 0.0
H1360 H 0.8651 0.22752 0.47817 0.0
H1361 H 0.80247 0.27608 0.40839 0.0
H1362 H 0.84452 0.27836 0.35469 0.0
H1363 H 0.90106 0.27034 0.32747 0.0
H1364 H 0.96119 0.21893 0.40071 0.0
H1365 H 0.91921 0.21559 0.45135 0.0
C1366 C 0.86031 0.23806 0.45113 0.0
C1367 C 0.82968 0.25058 0.44836 0.0
C1368 C 0.88495 0.23972 0.42012 0.0
C1369 C 0.82511 0.26487 0.41238 0.0
C1370 C 0.84958 0.26672 0.38133 0.0
C1371 C 0.9053 0.2576 0.35408 0.0
C1372 C 0.93586 0.24465 0.35863 0.0
C1373 C 0.87998 0.25464 0.38463 0.0
C1374 C 0.9391 0.22925 0.39474 0.0
C1375 C 0.91466 0.22715 0.42444 0.0
H1376 H 0.80157 0.07053 0.66114 0.0
H1377 H 0.70679 0.08757 0.69852 0.0
H1378 H 0.69709 0.13547 0.65601 0.0
H1379 H 0.71548 0.17364 0.60715 0.0
H1380 H 0.80992 0.15979 0.57713 0.0
H1381 H 0.81964 0.11103 0.618 0.0
C1382 C 0.77874 0.08515 0.66119 0.0
C1383 C 0.75497 0.07542 0.68503 0.0
C1384 C 0.77323 0.11369 0.63733 0.0
C1385 C 0.72565 0.09444 0.68219 0.0
C1386 C 0.72007 0.12198 0.65737 0.0
C1387 C 0.73823 0.15997 0.60942 0.0
C1388 C 0.762 0.17064 0.58788 0.0
C1389 C 0.74363 0.13205 0.63466 0.0
C1390 C 0.79114 0.15244 0.59243 0.0
C1391 C 0.79673 0.12434 0.61605 0.0
H1392 H 0.92013 0.05477 0.93716 0.0
H1393 H 0.94544 0.96492 0.99752 0.0
H1394 H 0.91039 0.95461 0.9757 0.0
H1395 H 0.86755 0.97294 0.94798 0.0
H1396 H 0.83952 0.06338 0.88975 0.0
H1397 H 0.88101 0.07135 0.90121 0.0
C1398 C 0.9179 0.03299 0.94524 0.0
C1399 C 0.93392 0.01105 0.97028 0.0
C1400 C 0.89715 0.02732 0.93328 0.0
C1401 C 0.93194 0.98253 0.97975 0.0
C1402 C 0.91218 0.97651 0.96714 0.0
C1403 C 0.87056 0.99438 0.93775 0.0
C1404 C 0.85003 0.01774 0.91919 0.0
C1405 C 0.89368 0.9991 0.94543 0.0
C1406 C 0.85487 0.04507 0.90465 0.0
C1407 C 0.87845 0.04975 0.91139 0.0
H1408 H 0.0721 0.04058 0.03797 0.0
H1409 H 0.06185 0.96206 0.11438 0.0
H1410 H 0.09966 0.96 0.14378 0.0
H1411 H 0.14007 0.9773 0.14226 0.0
H1412 H 0.15069 0.05525 0.06431 0.0
H1413 H 0.10746 0.06157 0.04184 0.0
C1414 C 0.07828 0.02301 0.06088 0.0
C1415 C 0.06484 1.00116 0.0734 0.0
C1416 C 0.09978 0.02217 0.07764 0.0
C1417 C 0.07216 0.979 0.10406 0.0
C1418 C 0.09373 0.97784 0.12088 0.0
C1419 C 0.13221 0.99616 0.12117 0.0
C1420 C 0.14831 0.01576 0.10479 0.0
C1421 C 0.10819 0.99894 0.10732 0.0
C1422 C 0.13839 0.04001 0.07724 0.0
C1423 C 0.11403 0.04339 0.06407 0.0
H1424 H 0.01354 0.40733 0.52504 0.0
H1425 H 0.99536 0.48481 0.44003 0.0
H1426 H 0.99305 0.45604 0.40051 0.0
H1427 H 7e-05 0.4073 0.38846 0.0
H1428 H 0.01209 0.33108 0.47614 0.0
H1429 H 0.01063 0.36114 0.51732 0.0
C1430 C 0.00932 0.4179 0.49774 0.0
C1431 C 0.00734 0.44785 0.4842 0.0
C1432 C 0.0057 0.40152 0.47624 0.0
C1433 C -0.00013 0.46139 0.44977 0.0
C1434 C 0.99759 0.44503 0.42757 0.0
C1435 C 0.00111 0.39763 0.41706 0.0
C1436 C 0.0059 0.36709 0.42939 0.0
C1437 C 0.001 0.41491 0.44025 0.0
C1438 C 0.00789 0.35464 0.46625 0.0
C1439 C 0.00767 0.37171 0.48954 0.0
H1440 H 0.67544 0.22219 0.62081 0.0
H1441 H 0.65157 0.31209 0.56128 0.0
H1442 H 0.60155 0.32375 0.60255 0.0
H1443 H 0.56146 0.30749 0.65334 0.0
H1444 H 0.58581 0.21747 0.7124 0.0
H1445 H 0.63698 0.20707 0.6744 0.0
C1446 C 0.65969 0.24465 0.61716 0.0
C1447 C 0.66901 0.26644 0.58781 0.0
C1448 C 0.63 0.25118 0.64124 0.0
C1449 C 0.64683 0.29496 0.58395 0.0
C1450 C 0.61751 0.30152 0.60751 0.0
C1451 C 0.57802 0.28569 0.6587 0.0
C1452 C 0.56887 0.26357 0.68773 0.0
C1453 C 0.60837 0.27978 0.63609 0.0
C1454 C 0.59148 0.23547 0.69229 0.0
C1455 C 0.62107 0.22938 0.66978 0.0
H1456 H 0.69988 0.95178 0.87071 0.0
H1457 H 0.79531 0.92902 0.83517 0.0
H1458 H 0.80229 0.88032 0.87401 0.0
H1459 H 0.78177 0.84388 0.92267 0.0
H1460 H 0.6863 0.86398 0.95507 0.0
H1461 H 0.67899 0.91241 0.91332 0.0
C1462 C 0.72215 0.93556 0.86906 0.0
C1463 C 0.74694 0.94425 0.84595 0.0
C1464 C 0.72611 0.90668 0.89258 0.0
C1465 C 0.77556 0.92308 0.84905 0.0
C1466 C 0.77966 0.89503 0.87253 0.0
C1467 C 0.75929 0.85873 0.92062 0.0
C1468 C 0.73461 0.84987 0.94325 0.0
C1469 C 0.75518 0.88654 0.89505 0.0
C1470 C 0.70584 0.8698 0.93899 0.0
C1471 C 0.70163 0.89774 0.91475 0.0
H1472 H 0.17579 0.22667 0.12249 0.0
H1473 H 0.14949 0.31504 0.05927 0.0
H1474 H 0.09903 0.32576 0.09971 0.0
H1475 H 0.05938 0.30808 0.15008 0.0
H1476 H 0.08754 0.22051 0.21398 0.0
H1477 H 0.13873 0.21179 0.17777 0.0
C1478 C 0.15961 0.2488 0.1182 0.0
C1479 C 0.16814 0.27026 0.08771 0.0
C1480 C 0.13 0.25498 0.14228 0.0
C1481 C 0.14522 0.29818 0.08269 0.0
C1482 C 0.11571 0.30419 0.10585 0.0
C1483 C 0.07686 0.28753 0.15749 0.0
C1484 C 0.06867 0.26573 0.18805 0.0
C1485 C 0.10737 0.28263 0.13554 0.0
C1486 C 0.09239 0.23873 0.19391 0.0
C1487 C 0.12206 0.23346 0.17203 0.0
H1488 H 0.78617 0.42157 0.35254 0.0
H1489 H 0.69455 0.45456 0.34502 0.0
H1490 H 0.68788 0.40844 0.38224 0.0
H1491 H 0.70695 0.35929 0.42469 0.0
H1492 H 0.79517 0.33366 0.4439 0.0
H1493 H 0.80367 0.37587 0.39745 0.0
C1494 C 0.76479 0.41858 0.35807 0.0
C1495 C 0.74172 0.44131 0.34128 0.0
C1496 C 0.76021 0.39305 0.38396 0.0
C1497 C 0.71392 0.43687 0.35199 0.0
C1498 C 0.70978 0.41054 0.37543 0.0
C1499 C 0.72812 0.36279 0.41863 0.0
C1500 C 0.75045 0.34251 0.43838 0.0
C1501 C 0.73264 0.38843 0.3923 0.0
C1502 C 0.77741 0.34836 0.42986 0.0
C1503 C 0.78241 0.37267 0.4029 0.0
H1504 H 0.54226 1.00963 0.61214 0.0
H1505 H 0.59863 1.00468 0.50236 0.0
H1506 H 0.63867 1.00736 0.52231 0.0
H1507 H 0.66025 1.00412 0.57179 0.0
H1508 H 0.60788 1.00219 0.68344 0.0
H1509 H 0.56334 1.01006 0.66192 0.0
C1510 C 0.56344 1.00864 0.59278 0.0
C1511 C 0.56765 1.006 0.5561 0.0
C1512 C 0.58698 1.00921 0.6047 0.0
C1513 C 0.59484 1.00609 0.53095 0.0
C1514 C 0.61779 1.0078 0.54221 0.0
C1515 C 0.63893 1.00577 0.59131 0.0
C1516 C 0.63724 1.00174 0.62903 0.0
C1517 C 0.61442 1.00838 0.57914 0.0
C1518 C 0.60954 1.00485 0.65422 0.0
C1519 C 0.58431 1.00899 0.64196 0.0
H1520 H 0.00236 0.96712 0.94884 0.0
H1521 H 0.0392 0.9016 0.03757 0.0
H1522 H 0.03949 0.86234 1.01234 0.0
H1523 H 0.03178 0.84544 0.96467 0.0
H1524 H 0.0023 0.90774 0.87008 0.0
H1525 H 0.9962 0.94918 0.89794 0.0
C1526 C 0.01117 0.94424 0.9621 0.0
C1527 C 0.02114 0.93763 0.99511 0.0
C1528 C 0.01218 0.92107 0.94661 0.0
C1529 C 0.03163 0.90767 1.01217 0.0
C1530 C 0.03164 0.88503 0.99786 0.0
C1531 C 0.02368 0.86812 0.95017 0.0
C1532 C 0.01748 0.87329 0.9153 0.0
C1533 C 0.02212 0.89138 0.96517 0.0
C1534 C 0.00684 0.90295 0.89716 0.0
C1535 C 0.00384 0.92663 0.9129 0.0
H1536 H 0.0615 0.1409 0.01964 0.0
H1537 H 0.13742 0.08336 0.95443 0.0
H1538 H 0.1712 0.10068 0.9694 0.0
H1539 H 0.17518 0.14487 0.98078 0.0
H1540 H 0.09796 0.20574 0.03994 0.0
H1541 H 0.06886 0.17397 0.04941 0.0
C1542 C 0.08559 0.13112 1.01039 0.0
C1543 C 0.09711 0.11164 0.98528 0.0
C1544 C 0.10455 0.14236 0.01754 0.0
C1545 C 0.12822 0.09874 0.97344 0.0
C1546 C 0.14746 0.10889 0.98171 0.0
C1547 C 0.1526 0.15004 0.99783 0.0
C1548 C 0.13829 0.17787 1.00867 0.0
C1549 C 0.1355 0.13265 1.00079 0.0
C1550 C 0.10919 0.18448 0.03103 0.0
C1551 C 0.09238 0.16659 0.03576 0.0
H1552 H 0.67581 0.61408 0.29123 0.0
H1553 H 0.63647 0.55786 0.27337 0.0
H1554 H 0.58933 0.59874 0.27241 0.0
H1555 H 0.55909 0.65158 0.2736 0.0
H1556 H 0.59974 0.70919 0.28489 0.0
H1557 H 0.64566 0.66729 0.29181 0.0
C1558 C 0.65675 0.6105 0.28824 0.0
C1559 C 0.65985 0.58223 0.28386 0.0
C1560 C 0.62957 0.63477 0.2862 0.0
C1561 C 0.63495 0.57881 0.27802 0.0
C1562 C 0.60781 0.60244 0.27704 0.0
C1563 C 0.57792 0.65497 0.27779 0.0
C1564 C 0.57526 0.68363 0.28014 0.0
C1565 C 0.60486 0.63067 0.28063 0.0
C1566 C 0.6003 0.68738 0.28493 0.0
C1567 C 0.62692 0.66334 0.2883 0.0
H1568 H 0.38845 0.84642 0.49203 0.0
H1569 H 0.3025 0.88289 0.56218 0.0
H1570 H 0.31861 0.9203 0.57067 0.0
H1571 H 0.36222 0.92759 0.57929 0.0
H1572 H 0.45051 0.87226 0.53279 0.0
H1573 H 0.43038 0.85707 0.49498 0.0
C1574 C 0.37301 0.86331 0.50818 0.0
C1575 C 0.34537 0.86063 0.52862 0.0
C1576 C 0.38416 0.88066 0.51858 0.0
C1577 C 0.32457 0.88359 0.5474 0.0
C1578 C 0.33407 0.90455 0.55306 0.0
C1579 C 0.37684 0.91315 0.5597 0.0
C1580 C 0.4079 0.90242 0.55684 0.0
C1581 C 0.3647 0.90095 0.54233 0.0
C1582 C 0.42681 0.88242 0.53317 0.0
C1583 C 0.41518 0.87326 0.51215 0.0
H1584 H 0.10027 0.69179 0.78305 0.0
H1585 H 0.04203 0.65166 0.77249 0.0
H1586 H 0.08296 0.60374 0.77202 0.0
H1587 H 0.13634 0.57269 0.77398 0.0
H1588 H 0.19427 0.61475 0.78091 0.0
H1589 H 0.15288 0.6615 0.78466 0.0
C1590 C 0.09615 0.67245 0.78194 0.0
C1591 C 0.06751 0.67549 0.77915 0.0
C1592 C 0.12007 0.64487 0.78118 0.0
C1593 C 0.06352 0.65018 0.77528 0.0
C1594 C 0.08707 0.62263 0.77492 0.0
C1595 C 0.13984 0.592 0.77665 0.0
C1596 C 0.16851 0.5894 0.77919 0.0
C1597 C 0.11561 0.61959 0.77774 0.0
C1598 C 0.1724 0.61519 0.78152 0.0
C1599 C 0.14866 0.64232 0.78286 0.0
H1600 H 0.82445 0.38651 0.53787 0.0
H1601 H 0.89871 0.31055 0.50371 0.0
H1602 H 0.93322 0.33749 0.49016 0.0
H1603 H 0.94265 0.37371 0.51197 0.0
H1604 H 0.8685 0.44604 0.55558 0.0
H1605 H 0.83362 0.43074 0.54001 0.0
C1606 C 0.84792 0.37671 0.52509 0.0
C1607 C 0.85934 0.34651 0.52272 0.0
C1608 C 0.86779 0.39157 0.52037 0.0
C1609 C 0.88961 0.33378 0.506 0.0
C1610 C 0.90942 0.34902 0.49901 0.0
C1611 C 0.91899 0.38689 0.51631 0.0
C1612 C 0.9079 0.41019 0.53605 0.0
C1613 C 0.89899 0.37665 0.50973 0.0
C1614 C 0.8774 0.42762 0.54106 0.0
C1615 C 0.85742 0.41862 0.53255 0.0
H1616 H 0.32143 0.91177 0.24365 0.0
H1617 H 0.35728 0.96403 0.27581 0.0
H1618 H 0.40545 0.92311 0.27364 0.0
H1619 H 0.4374 0.87168 0.26303 0.0
H1620 H 0.39924 0.82112 0.23165 0.0
H1621 H 0.35271 0.86209 0.23193 0.0
C1622 C 0.3398 0.91466 0.24942 0.0
C1623 C 0.33556 0.94136 0.2592 0.0
C1624 C 0.36741 0.89115 0.24791 0.0
C1625 C 0.35969 0.94386 0.26803 0.0
C1626 C 0.38736 0.92043 0.26669 0.0
C1627 C 0.41908 0.86974 0.25571 0.0
C1628 C 0.42272 0.84294 0.24609 0.0
C1629 C 0.39155 0.89385 0.25662 0.0
C1630 C 0.39822 0.84117 0.23747 0.0
C1631 C 0.37108 0.86476 0.23827 0.0
H1632 H 0.31917 0.40859 0.74789 0.0
H1633 H 0.3604 0.46333 0.76532 0.0
H1634 H 0.40668 0.42112 0.76765 0.0
H1635 H 0.43589 0.36795 0.76602 0.0
H1636 H 0.39577 0.31403 0.74452 0.0
H1637 H 0.34948 0.35635 0.74159 0.0
C1638 C 0.33839 0.4117 0.75101 0.0
C1639 C 0.33583 0.43974 0.75577 0.0
C1640 C 0.36552 0.38714 0.75178 0.0
C1641 C 0.3612 0.44237 0.76145 0.0
C1642 C 0.38792 0.41808 0.76282 0.0
C1643 C 0.41712 0.36542 0.76048 0.0
C1644 C 0.41976 0.33749 0.75532 0.0
C1645 C 0.39038 0.39023 0.75828 0.0
C1646 C 0.39493 0.33507 0.74806 0.0
C1647 C 0.36818 0.35937 0.74663 0.0
H1648 H 0.17712 0.73716 0.62644 0.0
H1649 H 0.1403 0.81157 0.54557 0.0
H1650 H 0.09056 0.82043 0.58607 0.0
H1651 H 0.05489 0.80511 0.6424 0.0
H1652 H 0.08992 0.73171 0.72512 0.0
H1653 H 0.14109 0.72491 0.68733 0.0
C1654 C 0.15858 0.75613 0.6181 0.0
C1655 C 0.16404 0.77446 0.5823 0.0
C1656 C 0.12866 0.76106 0.64217 0.0
C1657 C 0.13824 0.79764 0.57267 0.0
C1658 C 0.10917 0.80254 0.59597 0.0
C1659 C 0.07362 0.78778 0.65273 0.0
C1660 C 0.06733 0.76917 0.68772 0.0
C1661 C 0.10368 0.7841 0.6305 0.0
C1662 C 0.09292 0.74685 0.69922 0.0
C1663 C 0.12266 0.74284 0.67711 0.0
H1664 H 0.21082 0.95893 0.39628 0.0
H1665 H 0.27721 0.92364 0.30389 0.0
H1666 H 0.28207 0.87298 0.33764 0.0
H1667 H 0.26864 0.83711 0.39576 0.0
H1668 H 0.20532 0.87386 0.48933 0.0
H1669 H 0.19794 0.92387 0.45343 0.0
C1670 C 0.22626 0.94025 0.38321 0.0
C1671 C 0.24293 0.94609 0.34644 0.0
C1672 C 0.22952 0.91058 0.40354 0.0
C1673 C 0.26323 0.92081 0.33121 0.0
C1674 C 0.26621 0.8914 0.35093 0.0
C1675 C 0.25303 0.856 0.40834 0.0
C1676 C 0.23731 0.85075 0.44598 0.0
C1677 C 0.24958 0.88573 0.38739 0.0
C1678 C 0.21771 0.87624 0.46101 0.0
C1679 C 0.21351 0.9053 0.44025 0.0
H1680 H 0.02824 0.63123 0.59555 0.0
H1681 H 0.93448 0.67242 0.6406 0.0
H1682 H 0.92251 0.63767 0.61887 0.0
H1683 H 0.93856 0.60165 0.57661 0.0
H1684 H 0.0324 0.56234 0.5314 0.0
H1685 H 0.04464 0.58984 0.56308 0.0
C1686 C 0.00528 0.63192 0.60171 0.0
C1687 C 0.98231 0.6544 0.61965 0.0
C1688 C -0.00144 0.61255 0.58808 0.0
C1689 C 0.95261 0.65518 0.62717 0.0
C1690 C 0.94574 0.6356 0.61415 0.0
C1691 C 0.96163 0.59832 0.57484 0.0
C1692 C 0.98471 0.57874 0.55257 0.0
C1693 C 0.96844 0.61508 0.59297 0.0
C1694 C 0.01441 0.57609 0.54931 0.0
C1695 C 0.02138 0.59229 0.56711 0.0
H1696 H 0.31678 0.78433 0.40732 0.0
H1697 H 0.35475 0.71426 0.49146 0.0
H1698 H 0.4046 0.70601 0.45128 0.0
H1699 H 0.43997 0.72096 0.39401 0.0
H1700 H 0.40367 0.78861 0.30712 0.0
H1701 H 0.35264 0.7949 0.34519 0.0
C1702 C 0.33565 0.7664 0.41659 0.0
C1703 C 0.33046 0.74932 0.45342 0.0
C1704 C 0.36564 0.76158 0.39246 0.0
C1705 C 0.35663 0.72737 0.46383 0.0
C1706 C 0.38576 0.7228 0.44063 0.0
C1707 C 0.42103 0.73691 0.38283 0.0
C1708 C 0.427 0.75427 0.34668 0.0
C1709 C 0.39097 0.74012 0.40513 0.0
C1710 C 0.40105 0.7746 0.33405 0.0
C1711 C 0.37133 0.77833 0.35631 0.0
H1712 H 0.22957 0.10309 0.21024 0.0
H1713 H 0.29493 0.0456 0.13596 0.0
H1714 H 0.29736 0.08844 0.08744 0.0
H1715 H 0.28097 0.14326 0.06393 0.0
H1716 H 0.22187 0.20136 0.14022 0.0
H1717 H 0.2177 0.15852 0.18874 0.0
C1718 C 0.24499 0.0998 0.18386 0.0
C1719 C 0.26232 0.07021 0.17784 0.0
C1720 C 0.24737 0.12525 0.15554 0.0
C1721 C 0.28125 0.06744 0.14237 0.0
C1722 C 0.28273 0.09224 0.11414 0.0
C1723 C 0.26714 0.14669 0.09112 0.0
C1724 C 0.25132 0.17628 0.09748 0.0
C1725 C 0.26583 0.12142 0.12003 0.0
C1726 C 0.23415 0.17941 0.13366 0.0
C1727 C 0.23173 0.15461 0.16179 0.0
H1728 H 0.81705 0.79492 0.90363 0.0
H1729 H 0.8457 0.71472 0.98178 0.0
H1730 H 0.89723 0.704 0.94467 0.0
H1731 H 0.93649 0.7192 0.8918 0.0
H1732 H 0.90729 0.79777 0.81169 0.0
H1733 H 0.85536 0.80708 0.84695 0.0
C1734 C 0.8343 0.77461 0.91229 0.0
C1735 C 0.82611 0.75528 0.94588 0.0
C1736 C 0.86474 0.76846 0.89026 0.0
C1737 C 0.84995 0.72966 0.95604 0.0
C1738 C 0.87999 0.72373 0.93477 0.0
C1739 C 0.91884 0.73822 0.88154 0.0
C1740 C 0.92702 0.75772 0.8481 0.0
C1741 C 0.88805 0.74315 0.90205 0.0
C1742 C 0.90281 0.78206 0.83643 0.0
C1743 C 0.87264 0.78749 0.85703 0.0
H1744 H 0.23901 0.60336 0.71323 0.0
H1745 H 0.2913 0.54619 0.63348 0.0
H1746 H 0.29074 0.5892 0.58434 0.0
H1747 H 0.2757 0.64417 0.56175 0.0
H1748 H 0.22666 0.70174 0.64131 0.0
H1749 H 0.22646 0.65877 0.69098 0.0
C1750 C 0.25077 0.60013 0.68531 0.0
C1751 C 0.26537 0.57055 0.67812 0.0
C1752 C 0.25108 0.62569 0.65618 0.0
C1753 C 0.27984 0.56797 0.64091 0.0
C1754 C 0.27955 0.59289 0.61226 0.0
C1755 C 0.26483 0.64748 0.58987 0.0
C1756 C 0.2513 0.67703 0.59692 0.0
C1757 C 0.26518 0.62206 0.61919 0.0
C1758 C 0.23774 0.67988 0.63423 0.0
C1759 C 0.23743 0.65498 0.66305 0.0
H1760 H 0.37333 0.97956 0.42076 0.0
H1761 H 0.30964 0.06543 0.43992 0.0
H1762 H 0.34678 0.07584 0.45854 0.0
H1763 H 0.39655 0.05828 0.47402 0.0
H1764 H 0.46143 0.97489 0.44753 0.0
H1765 H 0.42477 0.96515 0.42779 0.0
C1766 C 0.36781 1.0006 0.42877 0.0
C1767 C 0.33893 0.02155 0.42969 0.0
C1768 C 0.38932 1.00652 0.43869 0.0
C1769 C 0.33183 0.04897 0.43944 0.0
C1770 C 0.35298 0.05484 0.45013 0.0
C1771 C 0.40253 0.03823 0.46348 0.0
C1772 C 0.43108 0.01668 0.46336 0.0
C1773 C 0.38163 0.0335 0.45059 0.0
C1774 C 0.43912 0.99107 0.44904 0.0
C1775 C 0.41829 0.98569 0.43743 0.0
H1776 H 0.88604 0.85215 0.99119 0.0
H1777 H 0.81077 0.85369 0.08433 0.0
H1778 H 0.81719 0.89297 0.1021 0.0
H1779 H 0.85348 0.91392 0.10335 0.0
H1780 H 0.93368 0.90561 0.01732 0.0
H1781 H 0.91627 0.88255 0.9847 0.0
C1782 C 0.87078 0.86133 1.01511 0.0
C1783 C 0.84892 0.84875 0.03723 0.0
C1784 C 0.87598 0.8825 0.02703 0.0
C1785 C 0.82823 0.86225 0.06684 0.0
C1786 C 0.83207 0.88466 0.07747 0.0
C1787 C 0.86644 0.90816 0.07665 0.0
C1788 C 0.89492 0.91085 0.0629 0.0
C1789 C 0.8573 0.89304 0.05962 0.0
C1790 C 0.91167 0.90359 0.02833 0.0
C1791 C 0.90188 0.89004 1.00999 0.0
H1792 H 0.67091 0.15043 0.4833 0.0
H1793 H 0.58925 0.20529 0.54437 0.0
H1794 H 0.56549 0.16877 0.55396 0.0
H1795 H 0.5632 0.1325 0.52444 0.0
H1796 H 0.64348 0.08022 0.45868 0.0
H1797 H 0.67295 0.10309 0.4728 0.0
C1798 C 0.64856 0.15344 0.50059 0.0
C1799 C 0.63146 0.18076 0.51218 0.0
C1800 C 0.63457 0.13297 0.50429 0.0
C1801 C 0.60261 0.1845 0.53478 0.0
C1802 C 0.58888 0.16378 0.53981 0.0
C1803 C 0.58743 0.12478 0.5153 0.0
C1804 C 0.60116 0.10544 0.48985 0.0
C1805 C 0.6038 0.13944 0.52169 0.0
C1806 C 0.6325 0.09537 0.47807 0.0
C1807 C 0.64926 0.10891 0.48558 0.0
H1808 H 0.83694 0.42894 0.30533 0.0
H1809 H 0.82922 0.43895 0.19449 0.0
H1810 H 0.8728 0.39408 0.18562 0.0
H1811 H 0.91432 0.35112 0.20936 0.0
H1812 H 0.92207 0.34298 0.32007 0.0
H1813 H 0.87826 0.38705 0.32852 0.0
C1814 C 0.84491 0.42145 0.27913 0.0
C1815 C 0.82917 0.43727 0.25091 0.0
C1816 C 0.87046 0.39552 0.27401 0.0
C1817 C 0.84003 0.4269 0.21723 0.0
C1818 C 0.86532 0.40123 0.21196 0.0
C1819 C 0.90644 0.35897 0.23529 0.0
C1820 C 0.92219 0.34344 0.26372 0.0
C1821 C 0.8808 0.38509 0.24021 0.0
C1822 C 0.91116 0.35433 0.29717 0.0
C1823 C 0.88581 0.37972 0.30228 0.0
H1824 H 0.12937 0.59004 0.47624 0.0
H1825 H 0.04025 0.6471 0.51717 0.0
H1826 H 0.0601 0.67039 0.54611 0.0
H1827 H 0.1021 0.68632 0.538 0.0
H1828 H 0.19058 0.63599 0.48517 0.0
H1829 H 0.17269 0.59702 0.48546 0.0
C1830 C 0.1144 0.60641 0.49329 0.0
C1831 C 0.08361 0.61728 0.49437 0.0
C1832 C 0.1262 0.62123 0.50737 0.0
C1833 C 0.06409 0.6386 0.51611 0.0
C1834 C 0.07547 0.65209 0.53233 0.0
C1835 C 0.11768 0.66596 0.5285 0.0
C1836 C 0.14705 0.66457 0.50975 0.0
C1837 C 0.1065 0.64545 0.52507 0.0
C1838 C 0.16755 0.6379 0.49867 0.0
C1839 C 0.15714 0.6159 0.49812 0.0
H1840 H 0.63038 0.06956 0.81792 0.0
H1841 H 0.69346 0.11308 0.75168 0.0
H1842 H 0.6535 0.16129 0.75031 0.0
H1843 H 0.60011 0.19156 0.7667 0.0
H1844 H 0.53558 0.14848 0.82733 0.0
H1845 H 0.57607 0.10036 0.83351 0.0
C1846 C 0.63529 0.08965 0.80343 0.0
C1847 C 0.66514 0.08769 0.7856 0.0
C1848 C 0.61176 0.11763 0.80212 0.0
C1849 C 0.67095 0.11395 0.76645 0.0
C1850 C 0.648 0.14162 0.76549 0.0
C1851 C 0.59489 0.17165 0.78117 0.0
C1852 C 0.56473 0.17373 0.7964 0.0
C1853 C 0.61827 0.14382 0.78315 0.0
C1854 C 0.5585 0.14763 0.81536 0.0
C1855 C 0.58173 0.12001 0.81872 0.0
H1856 H 0.78321 0.56313 0.1359 0.0
H1857 H 0.72465 0.59914 0.23193 0.0
H1858 H 0.72049 0.64956 0.19766 0.0
H1859 H 0.73211 0.68478 0.13845 0.0
H1860 H 0.7831 0.64794 0.04032 0.0
H1861 H 0.79126 0.59782 0.07646 0.0
C1862 C 0.76968 0.58192 0.14961 0.0
C1863 C 0.75562 0.57649 0.18766 0.0
C1864 C 0.76582 0.61139 0.12874 0.0
C1865 C 0.73724 0.60181 0.20371 0.0
C1866 C 0.73445 0.631 0.18369 0.0
C1867 C 0.74517 0.66583 0.12492 0.0
C1868 C 0.7575 0.67088 0.08613 0.0
C1869 C 0.74859 0.6363 0.14598 0.0
C1870 C 0.77364 0.64548 0.06971 0.0
C1871 C 0.77827 0.61646 0.09057 0.0
H1872 H 0.92839 0.48525 0.48548 0.0
H1873 H 0.91862 0.57658 0.43694 0.0
H1874 H 0.87947 0.58026 0.40824 0.0
H1875 H 0.84378 0.55888 0.40389 0.0
H1876 H 0.8539 0.46751 0.45317 0.0
H1877 H 0.89803 0.46194 0.47341 0.0
C1878 C 0.91739 0.50599 0.46892 0.0
C1879 C 0.92513 0.53104 0.46461 0.0
C1880 C 0.89531 0.50773 0.45235 0.0
C1881 C 0.9122 0.55734 0.4414 0.0
C1882 C 0.88998 0.55937 0.42495 0.0
C1883 C 0.85619 0.53761 0.41827 0.0
C1884 C 0.84582 0.51362 0.42711 0.0
C1885 C 0.88074 0.53494 0.43113 0.0
C1886 C 0.86171 0.48617 0.44601 0.0
C1887 C 0.88657 0.48311 0.45806 0.0
H1888 H 0.11794 0.50191 0.65445 0.0
H1889 H 0.17702 0.51811 0.54953 0.0
H1890 H 0.13958 0.52328 0.51726 0.0
H1891 H 0.09374 0.51464 0.51949 0.0
H1892 H 0.03491 0.49884 0.62514 0.0
H1893 H 0.0687 0.50113 0.65642 0.0
C1894 C 0.12203 0.50769 0.62457 0.0
C1895 C 0.14993 0.50969 0.60427 0.0
C1896 C 0.10108 0.50917 0.60634 0.0
C1897 C 0.15542 0.51675 0.56556 0.0
C1898 C 0.13427 0.51916 0.54717 0.0
C1899 C 0.08835 0.51152 0.54936 0.0
C1900 C 0.06242 0.50474 0.56993 0.0
C1901 C 0.10769 0.51379 0.56733 0.0
C1902 C 0.0554 0.50209 0.60853 0.0
C1903 C 0.07451 0.50409 0.62655 0.0
H1904 H 0.60046 0.74034 0.20437 0.0
H1905 H 0.53594 0.8074 0.14487 0.0
H1906 H 0.57627 0.81592 0.09339 0.0
H1907 H 0.63041 0.80204 0.06082 0.0
H1908 H 0.69634 0.73656 0.11923 0.0
H1909 H 0.65628 0.73037 0.17366 0.0
C1910 C 0.59503 0.75777 0.18093 0.0
C1911 C 0.56386 0.77418 0.18061 0.0
C1912 C 0.61927 0.76257 0.14989 0.0
C1913 C 0.55877 0.79517 0.14791 0.0
C1914 C 0.58223 0.79983 0.11766 0.0
C1915 C 0.63635 0.78657 0.08549 0.0
C1916 C 0.66743 0.76973 0.08453 0.0
C1917 C 0.61268 0.78332 0.11762 0.0
C1918 C 0.6734 0.75003 0.11784 0.0
C1919 C 0.65007 0.7464 0.14946 0.0
H1920 H 0.65859 0.51075 0.06377 0.0
H1921 H 0.61769 0.48742 0.17804 0.0
H1922 H 0.57394 0.48857 0.16032 0.0
H1923 H 0.55205 0.48824 0.11131 0.0
H1924 H 0.59548 0.50976 0.99716 0.0
H1925 H 0.63384 0.51669 1.01576 0.0
C1926 C 0.63975 0.5065 0.08475 0.0
C1927 C 0.64132 0.49836 0.12189 0.0
C1928 C 0.6158 0.50575 0.07429 0.0
C1929 C 0.61681 0.49347 0.14918 0.0
C1930 C 0.59211 0.49375 0.139 0.0
C1931 C 0.57002 0.49412 0.09056 0.0
C1932 C 0.57172 0.49666 0.0529 0.0
C1933 C 0.59218 0.49829 0.10149 0.0
C1934 C 0.59451 0.50571 0.02636 0.0
C1935 C 0.61624 0.51031 0.03691 0.0
H1936 H 0.42135 0.404 1.00634 0.0
H1937 H 0.3451 0.44271 0.08852 0.0
H1938 H 0.31577 0.41953 0.07474 0.0
H1939 H 0.31938 0.37489 0.05639 0.0
H1940 H 0.39792 0.33231 0.97907 0.0
H1941 H 0.41856 0.37066 0.97275 0.0
C1942 C 0.39773 0.40878 0.01943 0.0
C1943 C 0.38537 0.42439 0.04873 0.0
C1944 C 0.38181 0.39374 1.01303 0.0
C1945 C 0.35491 0.43059 0.0659 0.0
C1946 C 0.33835 0.41688 0.05844 0.0
C1947 C 0.34022 0.37495 0.03663 0.0
C1948 C 0.35774 0.35033 0.01934 0.0
C1949 C 0.35256 0.39627 0.03461 0.0
C1950 C 0.38451 0.35075 0.99343 0.0
C1951 C 0.3964 0.37256 0.99002 0.0
H1952 H 0.05669 0.14805 0.2718 0.0
H1953 H 0.0999 0.20609 0.2757 0.0
H1954 H 0.14656 0.16514 0.27783 0.0
H1955 H 0.17635 0.11312 0.27583 0.0
H1956 H 0.13579 0.05333 0.27076 0.0
H1957 H 0.08763 0.09425 0.27049 0.0
C1958 C 0.07626 0.15162 0.2734 0.0
C1959 C 0.07406 0.18032 0.27534 0.0
C1960 C 0.10384 0.12748 0.27392 0.0
C1961 C 0.10005 0.18428 0.27674 0.0
C1962 C 0.12716 0.16081 0.27706 0.0
C1963 C 0.15688 0.10868 0.27599 0.0
C1964 C 0.15974 0.07983 0.27457 0.0
C1965 C 0.12935 0.13228 0.27589 0.0
C1966 C 0.13433 0.07519 0.27231 0.0
C1967 C 0.10671 0.09866 0.27216 0.0
H1968 H 0.205 0.3676 0.93523 0.0
H1969 H 0.2989 0.32862 0.93629 0.0
H1970 H 0.30867 0.36999 0.88902 0.0
H1971 H 0.29122 0.41848 0.84762 0.0
H1972 H 0.1969 0.46321 0.85553 0.0
H1973 H 0.18687 0.41919 0.89645 0.0
C1974 C 0.22767 0.36797 0.92497 0.0
C1975 C 0.25128 0.344 0.9397 0.0
C1976 C 0.23319 0.39312 0.8981 0.0
C1977 C 0.2802 0.34602 0.92597 0.0
C1978 C 0.28587 0.36994 0.89861 0.0
C1979 C 0.26836 0.41859 0.85757 0.0
C1980 C 0.24501 0.44406 0.84467 0.0
C1981 C 0.26265 0.39377 0.88436 0.0
C1982 C 0.21568 0.44353 0.86069 0.0
C1983 C 0.20991 0.41832 0.88562 0.0
H1984 H 0.31665 0.27732 0.90873 0.0
H1985 H 0.35835 0.21428 0.99515 0.0
H1986 H 0.40743 0.20724 0.95371 0.0
H1987 H 0.44064 0.22234 0.89504 0.0
H1988 H 0.40157 0.28234 0.80567 0.0
H1989 H 0.35112 0.28642 0.84462 0.0
C1990 C 0.33622 0.26105 0.91828 0.0
C1991 C 0.33244 0.24577 0.9562 0.0
C1992 C 0.36576 0.25667 0.89327 0.0
C1993 C 0.35931 0.22601 0.96686 0.0
C1994 C 0.38794 0.22208 0.94289 0.0
C1995 C 0.42125 0.23559 0.88327 0.0
C1996 C 0.42616 0.25138 0.84608 0.0
C1997 C 0.39179 0.2377 0.90626 0.0
C1998 C 0.39971 0.26908 0.83309 0.0
C1999 C 0.37037 0.27171 0.85598 0.0
H2000 H 0.39497 0.55315 0.99386 0.0
H2001 H 0.46167 0.49792 0.91806 0.0
H2002 H 0.42236 0.49602 0.89443 0.0
H2003 H 0.36818 0.50666 0.89975 0.0
H2004 H 0.3024 0.56443 0.97359 0.0
H2005 H 0.34198 0.56948 0.99271 0.0
C2006 C 0.40083 0.54116 0.97172 0.0
C2007 C 0.43097 0.52554 0.95791 0.0
C2008 C 0.3782 0.54066 0.95786 0.0
C2009 C 0.43848 0.51021 0.92903 0.0
C2010 C 0.41601 0.50903 0.91562 0.0
C2011 C 0.36262 0.52087 0.91936 0.0
C2012 C 0.33236 0.53469 0.93578 0.0
C2013 C 0.38566 0.52372 0.93036 0.0
C2014 C 0.3255 0.55308 0.96112 0.0
C2015 C 0.34811 0.55597 0.97212 0.0
H2016 H 0.67028 0.64355 0.97226 0.0
H2017 H 0.59852 0.68404 0.05757 0.0
H2018 H 0.57278 0.65047 0.06151 0.0
H2019 H 0.56322 0.6237 0.02499 0.0
H2020 H 0.63288 0.58649 0.93597 0.0
H2021 H 0.6675 0.60323 0.95006 0.0
C2022 C 0.64989 0.64377 0.99314 0.0
C2023 C 0.63569 0.66671 1.01375 0.0
C2024 C 0.63448 0.62537 0.99382 0.0
C2025 C 0.60948 0.66678 0.04102 0.0
C2026 C 0.59458 0.64782 0.04293 0.0
C2027 C 0.58648 0.61793 1.01005 0.0
C2028 C 0.59541 0.60484 0.97885 0.0
C2029 C 0.6056 0.62906 0.01709 0.0
C2030 C 0.62553 0.59699 0.9598 0.0
C2031 C 0.64518 0.60695 0.96755 0.0
H2032 H 0.89499 0.8337 0.75401 0.0
H2033 H 0.95476 0.87351 0.76147 0.0
H2034 H 0.91391 0.9213 0.764 0.0
H2035 H 0.86016 0.95217 0.76555 0.0
H2036 H 0.80018 0.91005 0.7645 0.0
H2037 H 0.84149 0.86357 0.75807 0.0
C2038 C 0.89927 0.8529 0.75552 0.0
C2039 C 0.92832 0.84986 0.75677 0.0
C2040 C 0.87528 0.88027 0.75827 0.0
C2041 C 0.93287 0.87503 0.76004 0.0
C2042 C 0.90937 0.90248 0.76168 0.0
C2043 C 0.85614 0.9329 0.76372 0.0
C2044 C 0.82693 0.93544 0.76355 0.0
C2045 C 0.88029 0.90544 0.76112 0.0
C2046 C 0.82243 0.90966 0.76222 0.0
C2047 C 0.84613 0.88269 0.75921 0.0
H2048 H 0.4409 0.16006 0.61807 0.0
H2049 H 0.53618 0.12765 0.60937 0.0
H2050 H 0.54191 0.08717 0.5804 0.0
H2051 H 0.52008 0.0652 0.55009 0.0
H2052 H 0.42635 0.1051 0.54907 0.0
H2053 H 0.41945 0.13799 0.5895 0.0
C2054 C 0.46288 0.14372 0.61062 0.0
C2055 C 0.48801 0.14688 0.61624 0.0
C2056 C 0.46613 0.12179 0.59199 0.0
C2057 C 0.51636 0.12554 0.60616 0.0
C2058 C 0.51965 0.10264 0.58902 0.0
C2059 C 0.49802 0.08048 0.5597 0.0
C2060 C 0.47322 0.08128 0.54851 0.0
C2061 C 0.49476 0.10109 0.58074 0.0
C2062 C 0.44528 0.1027 0.55904 0.0
C2063 C 0.44149 0.1219 0.5817 0.0
H2064 H 0.55319 0.35502 0.9205 0.0
H2065 H 0.45878 0.39133 0.923 0.0
H2066 H 0.45412 0.43399 0.94677 0.0
H2067 H 0.47585 0.45703 0.97516 0.0
H2068 H 0.56935 0.41781 0.97763 0.0
H2069 H 0.5758 0.38072 0.94299 0.0
C2070 C 0.53185 0.3729 0.92491 0.0
C2071 C 0.50648 0.3703 0.91926 0.0
C2072 C 0.52922 0.3967 0.93994 0.0
C2073 C 0.47876 0.39318 0.92614 0.0
C2074 C 0.47605 0.41735 0.94028 0.0
C2075 C 0.49778 0.44084 0.96711 0.0
C2076 C 0.52234 0.44055 0.97811 0.0
C2077 C 0.50094 0.41882 0.94847 0.0
C2078 C 0.55034 0.41876 0.96893 0.0
C2079 C 0.55393 0.39746 0.9493 0.0
H2080 H 0.48102 0.87613 0.45201 0.0
H2081 H 0.5563 0.8794 0.36126 0.0
H2082 H 0.56309 0.91652 0.3848 0.0
H2083 H 0.55162 0.94204 0.43652 0.0
H2084 H 0.47548 0.94008 0.52546 0.0
H2085 H 0.46464 0.90935 0.49689 0.0
C2086 C 0.49817 0.88586 0.43658 0.0
C2087 C 0.51781 0.87536 0.40454 0.0
C2088 C 0.50247 0.90654 0.45084 0.0
C2089 C 0.54051 0.88754 0.38552 0.0
C2090 C 0.54471 0.90837 0.3994 0.0
C2091 C 0.53243 0.9355 0.44954 0.0
C2092 C 0.51436 0.94378 0.48352 0.0
C2093 C 0.52652 0.91715 0.43292 0.0
C2094 C 0.49013 0.93359 0.50003 0.0
C2095 C 0.48405 0.91566 0.48381 0.0
H2096 H 0.51214 0.55155 0.08839 0.0
H2097 H 0.46628 0.60603 1.00165 0.0
H2098 H 0.45287 0.65005 0.02758 0.0
H2099 H 0.45715 0.67336 0.07138 0.0
H2100 H 0.49716 0.62014 0.16367 0.0
H2101 H 0.51079 0.57533 0.13842 0.0
C2102 C 0.49835 0.57297 0.07601 0.0
C2103 C 0.48926 0.57544 0.04375 0.0
C2104 C 0.49033 0.59838 0.09154 0.0
C2105 C 0.47252 0.60344 0.02712 0.0
C2106 C 0.46521 0.62865 0.04171 0.0
C2107 C 0.46788 0.65207 0.08718 0.0
C2108 C 0.4754 0.65065 0.1202 0.0
C2109 C 0.4743 0.62643 0.07356 0.0
C2110 C 0.49104 0.62243 0.13827 0.0
C2111 C 0.49862 0.59666 0.12395 0.0
loop_
_geom_bond_atom_site_label_1
_geom_bond_atom_site_label_2
_geom_bond_distance
_geom_bond_site_symmetry_2
_ccdc_geom_bond_type
Eu0 N31 2.657 1_565 S
Eu0 N38 2.609 . S
Eu0 O44 2.558 . S
Eu0 O45 2.612 1_654 S
Eu0 O47 2.339 1_564 S
Eu0 O48 2.563 1_554 S
Eu0 O49 2.419 . S
Eu0 O51 2.380 1_565 S
Eu0 O52 2.432 1_655 S
Eu0 C64 2.848 . S
C1 C4 1.429 1_545 S
C1 C5 1.411 . S
C1 N8 1.377 . S
C2 C4 1.420 . S
C2 C6 1.423 . S
C2 C14 1.392 . S
C3 C5 1.420 1_565 S
C3 C6 1.351 . S
C3 H26 0.931 . S
C4 C1 1.429 1_565 S
C4 C2 1.420 . S
C4 N12 1.362 . S
C5 C1 1.411 . S
C5 C3 1.420 1_545 S
C5 C10 1.395 . S
C6 C2 1.423 . S
C6 C3 1.351 . S
C6 H18 0.930 . S
C7 C9 1.400 . S
C7 C10 1.386 . S
C7 H19 0.930 1_455 S
N8 C1 1.377 . S
N8 C9 1.321 . S
N8 Eu11 2.609 . S
C9 C7 1.400 . S
C9 N8 1.321 . S
C9 H16 0.930 1_455 S
C10 C5 1.395 . S
C10 C7 1.386 . S
C10 H29 0.930 . S
Eu11 N8 2.609 . S
Eu11 N12 2.657 1_545 S
Eu11 O45 2.380 1_545 S
Eu11 O46 2.432 1_455 S
Eu11 O50 2.558 . S
Eu11 O51 2.612 1_456 S
Eu11 O53 2.339 1_546 S
Eu11 O54 2.563 1_556 S
Eu11 O55 2.419 . S
Eu11 C75 2.848 . S
N12 C4 1.362 . S
N12 Eu11 2.657 1_565 S
N12 C13 1.334 . S
C13 N12 1.334 . S
C13 C15 1.413 . S
C13 H20 0.929 . S
C14 C2 1.392 . S
C14 C15 1.367 . S
C14 H22 0.930 . S
C15 C13 1.413 . S
C15 C14 1.367 . S
C15 H17 0.930 . S
H16 C9 0.930 1_655 S
H17 C15 0.930 . S
H18 C6 0.930 . S
H19 C7 0.930 1_655 S
H20 C13 0.929 . S
H21 C35 0.930 . S
H22 C14 0.930 . S
H23 C41 0.930 1_455 S
H24 C32 0.929 . S
H25 C39 0.930 1_455 S
H26 C3 0.931 . S
H27 C33 0.930 . S
H28 C66 0.930 . S
H29 C10 0.930 . S
H30 C65 0.931 . S
N31 Eu0 2.657 1_545 S
N31 C32 1.334 . S
N31 C36 1.362 . S
C32 H24 0.929 . S
C32 N31 1.334 . S
C32 C35 1.413 . S
C33 H27 0.930 . S
C33 C34 1.392 . S
C33 C35 1.367 . S
C34 C33 1.392 . S
C34 C36 1.420 . S
C34 C66 1.423 . S
C35 H21 0.930 . S
C35 C32 1.413 . S
C35 C33 1.367 . S
C36 N31 1.362 . S
C36 C34 1.420 . S
C36 C40 1.429 1_545 S
H37 C42 0.930 . S
N38 Eu0 2.609 . S
N38 C40 1.377 . S
N38 C41 1.321 . S
C39 H25 0.930 1_655 S
C39 C41 1.400 . S
C39 C42 1.386 . S
C40 C36 1.429 1_565 S
C40 N38 1.377 . S
C40 C43 1.411 . S
C41 H23 0.930 1_655 S
C41 N38 1.321 . S
C41 C39 1.400 . S
C42 H37 0.930 . S
C42 C39 1.386 . S
C42 C43 1.395 . S
C43 C40 1.411 . S
C43 C42 1.395 . S
C43 C65 1.420 1_565 S
O44 Eu0 2.558 . S
O44 C64 1.257 . S
O45 Eu0 2.612 1_456 S
O45 Eu11 2.380 1_565 S
O45 C56 1.276 . S
O46 Eu11 2.432 1_655 S
O46 C63 1.264 . S
O47 Eu0 2.339 1_546 S
O47 C63 1.254 . S
O48 Eu0 2.563 1_556 S
O48 C56 1.231 1_655 S
O49 Eu0 2.419 . S
O49 C64 1.249 . S
O50 Eu11 2.558 . S
O50 C75 1.257 . S
O51 Eu0 2.380 1_545 S
O51 Eu11 2.612 1_654 S
O51 C67 1.276 . S
O52 Eu0 2.432 1_455 S
O52 C74 1.264 . S
O53 Eu11 2.339 1_564 S
O53 C74 1.254 . S
O54 Eu11 2.563 1_554 S
O54 C67 1.223 1_455 S
O55 Eu11 2.419 . S
O55 C75 1.249 . S
C56 O45 1.276 . S
C56 O48 1.231 1_455 S
C57 C59 1.393 . S
C57 C61 1.395 . S
C57 C64 1.492 . S
C58 C59 1.392 . S
C58 C60 1.386 . S
C59 C57 1.393 . S
C59 C58 1.392 . S
C59 H76 0.930 . S
C60 C58 1.386 . S
C60 C62 1.395 . S
C60 H77 0.930 . S
C61 C57 1.395 . S
C61 C62 1.379 . S
C61 H78 0.930 . S
C62 C60 1.395 . S
C62 C61 1.379 . S
C62 H79 0.930 . S
C63 O46 1.264 . S
C63 O47 1.254 . S
C64 Eu0 2.848 . S
C64 O44 1.257 . S
C64 O49 1.249 . S
C64 C57 1.492 . S
C65 H30 0.931 . S
C65 C43 1.420 1_545 S
C65 C66 1.351 . S
C66 H28 0.930 . S
C66 C34 1.423 . S
C66 C65 1.351 . S
C67 O51 1.276 . S
C67 O54 1.223 1_655 S
C68 C69 1.393 . S
C68 C72 1.395 . S
C68 C75 1.492 . S
C69 C68 1.393 . S
C69 C70 1.392 . S
C69 H80 0.930 . S
C70 C69 1.392 . S
C70 C71 1.386 . S
C71 C70 1.386 . S
C71 C73 1.395 . S
C71 H81 0.930 . S
C72 C68 1.395 . S
C72 C73 1.379 . S
C72 H82 0.930 . S
C73 C71 1.395 . S
C73 C72 1.379 . S
C73 H83 0.930 . S
C74 O52 1.264 . S
C74 O53 1.254 . S
C75 Eu11 2.848 . S
C75 O50 1.257 . S
C75 O55 1.249 . S
C75 C68 1.492 . S
H76 C59 0.930 . S
H77 C60 0.930 . S
H78 C61 0.930 . S
H79 C62 0.930 . S
H80 C69 0.930 . S
H81 C71 0.930 . S
H82 C72 0.930 . S
H83 C73 0.930 . S
Eu84 N115 2.657 . S
Eu84 N122 2.609 . S
Eu84 O128 2.558 . S
Eu84 O129 2.612 1_455 S
Eu84 O131 2.339 1_455 S
Eu84 O132 2.563 1_455 S
Eu84 O133 2.419 . S
Eu84 O135 2.380 . S
Eu84 O136 2.432 . S
Eu84 C148 2.848 . S
C85 C88 1.429 . S
C85 C89 1.411 . S
C85 N92 1.377 . S
C86 C88 1.420 . S
C86 C90 1.423 . S
C86 C98 1.392 . S
C87 C89 1.420 . S
C87 C90 1.351 . S
C87 H110 0.931 . S
C88 C85 1.429 . S
C88 C86 1.420 . S
C88 N96 1.362 . S
C89 C85 1.411 . S
C89 C87 1.420 . S
C89 C94 1.395 . S
C90 C86 1.423 . S
C90 C87 1.351 . S
C90 H102 0.930 . S
C91 C93 1.400 . S
C91 C94 1.386 . S
C91 H103 0.930 . S
N92 C85 1.377 . S
N92 C93 1.321 . S
N92 Eu95 2.609 . S
C93 C91 1.400 . S
C93 N92 1.321 . S
C93 H100 0.930 . S
C94 C89 1.395 . S
C94 C91 1.386 . S
C94 H113 0.930 . S
Eu95 N92 2.609 . S
Eu95 N96 2.657 . S
Eu95 O129 2.380 . S
Eu95 O130 2.432 . S
Eu95 O134 2.558 . S
Eu95 O135 2.612 1_655 S
Eu95 O137 2.339 1_655 S
Eu95 O138 2.563 1_655 S
Eu95 O139 2.419 . S
Eu95 C159 2.848 . S
N96 C88 1.362 . S
N96 Eu95 2.657 . S
N96 C97 1.334 . S
C97 N96 1.334 . S
C97 C99 1.413 . S
C97 H104 0.929 . S
C98 C86 1.392 . S
C98 C99 1.367 . S
C98 H106 0.930 . S
C99 C97 1.413 . S
C99 C98 1.367 . S
C99 H101 0.930 . S
H100 C93 0.930 . S
H101 C99 0.930 . S
H102 C90 0.930 . S
H103 C91 0.930 . S
H104 C97 0.929 . S
H105 C119 0.930 . S
H106 C98 0.930 . S
H107 C125 0.930 . S
H108 C116 0.929 . S
H109 C123 0.930 . S
H110 C87 0.931 . S
H111 C117 0.930 . S
H112 C150 0.930 . S
H113 C94 0.930 . S
H114 C149 0.931 . S
N115 Eu84 2.657 . S
N115 C116 1.334 . S
N115 C120 1.362 . S
C116 H108 0.929 . S
C116 N115 1.334 . S
C116 C119 1.413 . S
C117 H111 0.930 . S
C117 C118 1.392 . S
C117 C119 1.367 . S
C118 C117 1.392 . S
C118 C120 1.420 . S
C118 C150 1.423 . S
C119 H105 0.930 . S
C119 C116 1.413 . S
C119 C117 1.367 . S
C120 N115 1.362 . S
C120 C118 1.420 . S
C120 C124 1.429 . S
H121 C126 0.930 . S
N122 Eu84 2.609 . S
N122 C124 1.377 . S
N122 C125 1.321 . S
C123 H109 0.930 . S
C123 C125 1.400 . S
C123 C126 1.386 . S
C124 C120 1.429 . S
C124 N122 1.377 . S
C124 C127 1.411 . S
C125 H107 0.930 . S
C125 N122 1.321 . S
C125 C123 1.400 . S
C126 H121 0.930 . S
C126 C123 1.386 . S
C126 C127 1.395 . S
C127 C124 1.411 . S
C127 C126 1.395 . S
C127 C149 1.420 . S
O128 Eu84 2.558 . S
O128 C148 1.257 . S
O129 Eu84 2.612 1_655 S
O129 Eu95 2.380 . S
O129 C140 1.276 . S
O130 Eu95 2.432 . S
O130 C147 1.264 . S
O131 Eu84 2.339 1_655 S
O131 C147 1.254 . S
O132 Eu84 2.563 1_655 S
O132 C140 1.235 . S
O133 Eu84 2.419 . S
O133 C148 1.249 . S
O134 Eu95 2.558 . S
O134 C159 1.257 . S
O135 Eu84 2.380 . S
O135 Eu95 2.612 1_455 S
O135 C151 1.276 . S
O136 Eu84 2.432 . S
O136 C158 1.264 . S
O137 Eu95 2.339 1_455 S
O137 C158 1.254 . S
O138 Eu95 2.563 1_455 S
O138 C151 1.235 . S
O139 Eu95 2.419 . S
O139 C159 1.249 . S
C140 O129 1.276 . S
C140 O132 1.235 . S
C141 C143 1.393 1_455 S
C141 C145 1.395 . S
C141 C148 1.492 . S
C142 C143 1.392 . S
C142 C144 1.386 1_655 S
C143 C141 1.393 1_655 S
C143 C142 1.392 . S
C143 H160 0.930 . S
C144 C142 1.386 1_455 S
C144 C146 1.395 . S
C144 H161 0.930 . S
C145 C141 1.395 . S
C145 C146 1.379 . S
C145 H162 0.930 . S
C146 C144 1.395 . S
C146 C145 1.379 . S
C146 H163 0.930 . S
C147 O130 1.264 . S
C147 O131 1.254 . S
C148 Eu84 2.848 . S
C148 O128 1.257 . S
C148 O133 1.249 . S
C148 C141 1.492 . S
C149 H114 0.931 . S
C149 C127 1.420 . S
C149 C150 1.351 . S
C150 H112 0.930 . S
C150 C118 1.423 . S
C150 C149 1.351 . S
C151 O135 1.276 . S
C151 O138 1.235 . S
C152 C153 1.393 1_655 S
C152 C156 1.395 . S
C152 C159 1.492 . S
C153 C152 1.393 1_455 S
C153 C154 1.392 . S
C153 H164 0.930 . S
C154 C153 1.392 . S
C154 C155 1.386 1_455 S
C155 C154 1.386 1_655 S
C155 C157 1.395 . S
C155 H165 0.930 . S
C156 C152 1.395 . S
C156 C157 1.379 . S
C156 H166 0.930 . S
C157 C155 1.395 . S
C157 C156 1.379 . S
C157 H167 0.930 . S
C158 O136 1.264 . S
C158 O137 1.254 . S
C159 Eu95 2.848 . S
C159 O134 1.257 . S
C159 O139 1.249 . S
C159 C152 1.492 . S
H160 C143 0.930 . S
H161 C144 0.930 . S
H162 C145 0.930 . S
H163 C146 0.930 . S
H164 C153 0.930 . S
H165 C155 0.930 . S
H166 C156 0.930 . S
H167 C157 0.930 . S
Eu168 N199 2.657 . S
Eu168 N206 2.609 . S
Eu168 O212 2.558 . S
Eu168 O213 2.612 . S
Eu168 O215 2.339 . S
Eu168 O216 2.563 . S
Eu168 O217 2.419 . S
Eu168 O219 2.380 . S
Eu168 O220 2.432 . S
Eu168 C232 2.848 . S
C169 C172 1.429 . S
C169 C173 1.411 . S
C169 N176 1.377 . S
C170 C172 1.420 . S
C170 C174 1.423 . S
C170 C182 1.392 . S
C171 C173 1.420 . S
C171 C174 1.351 . S
C171 H194 0.931 . S
C172 C169 1.429 . S
C172 C170 1.420 . S
C172 N180 1.362 . S
C173 C169 1.411 . S
C173 C171 1.420 . S
C173 C178 1.395 . S
C174 C170 1.423 . S
C174 C171 1.351 . S
C174 H186 0.930 . S
C175 C177 1.400 . S
C175 C178 1.386 . S
C175 H187 0.930 . S
N176 C169 1.377 . S
N176 C177 1.321 . S
N176 Eu179 2.609 . S
C177 C175 1.400 . S
C177 N176 1.321 . S
C177 H184 0.930 . S
C178 C173 1.395 . S
C178 C175 1.386 . S
C178 H197 0.930 . S
Eu179 N176 2.609 . S
Eu179 N180 2.657 . S
Eu179 O213 2.380 . S
Eu179 O214 2.432 . S
Eu179 O218 2.558 . S
Eu179 O219 2.612 . S
Eu179 O221 2.339 . S
Eu179 O222 2.563 . S
Eu179 O223 2.419 . S
Eu179 C243 2.848 . S
N180 C172 1.362 . S
N180 Eu179 2.657 . S
N180 C181 1.334 . S
C181 N180 1.334 . S
C181 C183 1.413 . S
C181 H188 0.929 . S
C182 C170 1.392 . S
C182 C183 1.367 . S
C182 H190 0.930 . S
C183 C181 1.413 . S
C183 C182 1.367 . S
C183 H185 0.930 . S
H184 C177 0.930 . S
H185 C183 0.930 . S
H186 C174 0.930 . S
H187 C175 0.930 . S
H188 C181 0.929 . S
H189 C203 0.930 . S
H190 C182 0.930 . S
H191 C209 0.930 . S
H192 C200 0.929 . S
H193 C207 0.930 . S
H194 C171 0.931 . S
H195 C201 0.930 . S
H196 C234 0.930 . S
H197 C178 0.930 . S
H198 C233 0.931 . S
N199 Eu168 2.657 . S
N199 C200 1.334 . S
N199 C204 1.362 . S
C200 H192 0.929 . S
C200 N199 1.334 . S
C200 C203 1.413 . S
C201 H195 0.930 . S
C201 C202 1.392 . S
C201 C203 1.367 . S
C202 C201 1.392 . S
C202 C204 1.420 . S
C202 C234 1.423 . S
C203 H189 0.930 . S
C203 C200 1.413 . S
C203 C201 1.367 . S
C204 N199 1.362 . S
C204 C202 1.420 . S
C204 C208 1.429 . S
H205 C210 0.930 . S
N206 Eu168 2.609 . S
N206 C208 1.377 . S
N206 C209 1.321 . S
C207 H193 0.930 . S
C207 C209 1.400 . S
C207 C210 1.386 . S
C208 C204 1.429 . S
C208 N206 1.377 . S
C208 C211 1.411 . S
C209 H191 0.930 . S
C209 N206 1.321 . S
C209 C207 1.400 . S
C210 H205 0.930 . S
C210 C207 1.386 . S
C210 C211 1.395 . S
C211 C208 1.411 . S
C211 C210 1.395 . S
C211 C233 1.420 . S
O212 Eu168 2.558 . S
O212 C232 1.257 . S
O213 Eu168 2.612 . S
O213 Eu179 2.380 . S
O213 C224 1.276 . S
O214 Eu179 2.432 . S
O214 C231 1.264 . S
O215 Eu168 2.339 . S
O215 C231 1.254 . S
O216 Eu168 2.563 . S
O216 C224 1.235 . S
O217 Eu168 2.419 . S
O217 C232 1.249 . S
O218 Eu179 2.558 . S
O218 C243 1.257 . S
O219 Eu168 2.380 . S
O219 Eu179 2.612 . S
O219 C235 1.276 . S
O220 Eu168 2.432 . S
O220 C242 1.264 . S
O221 Eu179 2.339 . S
O221 C242 1.254 . S
O222 Eu179 2.563 . S
O222 C235 1.235 . S
O223 Eu179 2.419 . S
O223 C243 1.249 . S
C224 O213 1.276 . S
C224 O216 1.235 . S
C225 C227 1.393 . S
C225 C229 1.395 . S
C225 C232 1.492 . S
C226 C227 1.392 . S
C226 C228 1.386 . S
C227 C225 1.393 . S
C227 C226 1.392 . S
C227 H244 0.930 . S
C228 C226 1.386 . S
C228 C230 1.395 . S
C228 H245 0.930 . S
C229 C225 1.395 . S
C229 C230 1.379 . S
C229 H246 0.930 . S
C230 C228 1.395 . S
C230 C229 1.379 . S
C230 H247 0.930 . S
C231 O214 1.264 . S
C231 O215 1.254 . S
C232 Eu168 2.848 . S
C232 O212 1.257 . S
C232 O217 1.249 . S
C232 C225 1.492 . S
C233 H198 0.931 . S
C233 C211 1.420 . S
C233 C234 1.351 . S
C234 H196 0.930 . S
C234 C202 1.423 . S
C234 C233 1.351 . S
C235 O219 1.276 . S
C235 O222 1.235 . S
C236 C237 1.393 . S
C236 C240 1.395 . S
C236 C243 1.492 . S
C237 C236 1.393 . S
C237 C238 1.392 . S
C237 H248 0.930 . S
C238 C237 1.392 . S
C238 C239 1.386 . S
C239 C238 1.386 . S
C239 C241 1.395 . S
C239 H249 0.930 . S
C240 C236 1.395 . S
C240 C241 1.379 . S
C240 H250 0.930 . S
C241 C239 1.395 . S
C241 C240 1.379 . S
C241 H251 0.930 . S
C242 O220 1.264 . S
C242 O221 1.254 . S
C243 Eu179 2.848 . S
C243 O218 1.257 . S
C243 O223 1.249 . S
C243 C236 1.492 . S
H244 C227 0.930 . S
H245 C228 0.930 . S
H246 C229 0.930 . S
H247 C230 0.930 . S
H248 C237 0.930 . S
H249 C239 0.930 . S
H250 C240 0.930 . S
H251 C241 0.930 . S
Eu252 N283 2.657 . S
Eu252 N290 2.609 . S
Eu252 O296 2.558 . S
Eu252 O297 2.612 1_565 S
Eu252 O299 2.339 1_565 S
Eu252 O300 2.563 1_565 S
Eu252 O301 2.419 . S
Eu252 O303 2.380 . S
Eu252 O304 2.432 . S
Eu252 C316 2.848 . S
C253 C256 1.429 . S
C253 C257 1.411 . S
C253 N260 1.377 . S
C254 C256 1.420 . S
C254 C258 1.423 . S
C254 C266 1.392 . S
C255 C257 1.420 . S
C255 C258 1.351 . S
C255 H278 0.931 . S
C256 C253 1.429 . S
C256 C254 1.420 . S
C256 N264 1.362 . S
C257 C253 1.411 . S
C257 C255 1.420 . S
C257 C262 1.395 . S
C258 C254 1.423 . S
C258 C255 1.351 . S
C258 H270 0.930 . S
C259 C261 1.400 . S
C259 C262 1.386 . S
C259 H271 0.930 . S
N260 C253 1.377 . S
N260 C261 1.321 . S
N260 Eu263 2.609 . S
C261 C259 1.400 . S
C261 N260 1.321 . S
C261 H268 0.930 . S
C262 C257 1.395 . S
C262 C259 1.386 . S
C262 H281 0.930 . S
Eu263 N260 2.609 . S
Eu263 N264 2.657 . S
Eu263 O297 2.380 . S
Eu263 O298 2.432 . S
Eu263 O302 2.558 . S
Eu263 O303 2.612 1_545 S
Eu263 O305 2.339 1_545 S
Eu263 O306 2.563 1_545 S
Eu263 O307 2.419 . S
Eu263 C327 2.848 . S
N264 C256 1.362 . S
N264 Eu263 2.657 . S
N264 C265 1.334 . S
C265 N264 1.334 . S
C265 C267 1.413 . S
C265 H272 0.929 . S
C266 C254 1.392 . S
C266 C267 1.367 . S
C266 H274 0.930 . S
C267 C265 1.413 . S
C267 C266 1.367 . S
C267 H269 0.930 . S
H268 C261 0.930 . S
H269 C267 0.930 . S
H270 C258 0.930 . S
H271 C259 0.930 . S
H272 C265 0.929 . S
H273 C287 0.930 . S
H274 C266 0.930 . S
H275 C293 0.930 . S
H276 C284 0.929 . S
H277 C291 0.930 . S
H278 C255 0.931 . S
H279 C285 0.930 . S
H280 C318 0.930 . S
H281 C262 0.930 . S
H282 C317 0.931 . S
N283 Eu252 2.657 . S
N283 C284 1.334 . S
N283 C288 1.362 . S
C284 H276 0.929 . S
C284 N283 1.334 . S
C284 C287 1.413 . S
C285 H279 0.930 . S
C285 C286 1.392 . S
C285 C287 1.367 . S
C286 C285 1.392 . S
C286 C288 1.420 . S
C286 C318 1.423 . S
C287 H273 0.930 . S
C287 C284 1.413 . S
C287 C285 1.367 . S
C288 N283 1.362 . S
C288 C286 1.420 . S
C288 C292 1.429 . S
H289 C294 0.930 . S
N290 Eu252 2.609 . S
N290 C292 1.377 . S
N290 C293 1.321 . S
C291 H277 0.930 . S
C291 C293 1.400 . S
C291 C294 1.386 . S
C292 C288 1.429 . S
C292 N290 1.377 . S
C292 C295 1.411 . S
C293 H275 0.930 . S
C293 N290 1.321 . S
C293 C291 1.400 . S
C294 H289 0.930 . S
C294 C291 1.386 . S
C294 C295 1.395 . S
C295 C292 1.411 . S
C295 C294 1.395 . S
C295 C317 1.420 . S
O296 Eu252 2.558 . S
O296 C316 1.257 . S
O297 Eu252 2.612 1_545 S
O297 Eu263 2.380 . S
O297 C308 1.276 . S
O298 Eu263 2.432 . S
O298 C315 1.264 . S
O299 Eu252 2.339 1_545 S
O299 C315 1.254 . S
O300 Eu252 2.563 1_545 S
O300 C308 1.235 . S
O301 Eu252 2.419 . S
O301 C316 1.249 . S
O302 Eu263 2.558 . S
O302 C327 1.257 . S
O303 Eu252 2.380 . S
O303 Eu263 2.612 1_565 S
O303 C319 1.276 . S
O304 Eu252 2.432 . S
O304 C326 1.264 . S
O305 Eu263 2.339 1_565 S
O305 C326 1.254 . S
O306 Eu263 2.563 1_565 S
O306 C319 1.235 . S
O307 Eu263 2.419 . S
O307 C327 1.249 . S
C308 O297 1.276 . S
C308 O300 1.235 . S
C309 C311 1.393 1_565 S
C309 C313 1.395 . S
C309 C316 1.492 . S
C310 C311 1.392 . S
C310 C312 1.386 1_545 S
C311 C309 1.393 1_545 S
C311 C310 1.392 . S
C311 H328 0.930 . S
C312 C310 1.386 1_565 S
C312 C314 1.395 . S
C312 H329 0.930 . S
C313 C309 1.395 . S
C313 C314 1.379 . S
C313 H330 0.930 . S
C314 C312 1.395 . S
C314 C313 1.379 . S
C314 H331 0.930 . S
C315 O298 1.264 . S
C315 O299 1.254 . S
C316 Eu252 2.848 . S
C316 O296 1.257 . S
C316 O301 1.249 . S
C316 C309 1.492 . S
C317 H282 0.931 . S
C317 C295 1.420 . S
C317 C318 1.351 . S
C318 H280 0.930 . S
C318 C286 1.423 . S
C318 C317 1.351 . S
C319 O303 1.276 . S
C319 O306 1.235 . S
C320 C321 1.393 1_545 S
C320 C324 1.395 . S
C320 C327 1.492 . S
C321 C320 1.393 1_565 S
C321 C322 1.392 . S
C321 H332 0.930 . S
C322 C321 1.392 . S
C322 C323 1.386 1_565 S
C323 C322 1.386 1_545 S
C323 C325 1.395 . S
C323 H333 0.930 . S
C324 C320 1.395 . S
C324 C325 1.379 . S
C324 H334 0.930 . S
C325 C323 1.395 . S
C325 C324 1.379 . S
C325 H335 0.930 . S
C326 O304 1.264 . S
C326 O305 1.254 . S
C327 Eu263 2.848 . S
C327 O302 1.257 . S
C327 O307 1.249 . S
C327 C320 1.492 . S
H328 C311 0.930 . S
H329 C312 0.930 . S
H330 C313 0.930 . S
H331 C314 0.930 . S
H332 C321 0.930 . S
H333 C323 0.930 . S
H334 C324 0.930 . S
H335 C325 0.930 . S
Eu336 N367 2.657 . S
Eu336 N374 2.609 . S
Eu336 O380 2.558 . S
Eu336 O381 2.612 . S
Eu336 O383 2.339 . S
Eu336 O384 2.563 . S
Eu336 O385 2.419 . S
Eu336 O387 2.380 . S
Eu336 O388 2.432 . S
Eu336 C400 2.848 . S
C337 C340 1.429 . S
C337 C341 1.411 . S
C337 N344 1.377 . S
C338 C340 1.420 . S
C338 C342 1.423 . S
C338 C350 1.392 . S
C339 C341 1.420 . S
C339 C342 1.351 . S
C339 H362 0.931 . S
C340 C337 1.429 . S
C340 C338 1.420 . S
C340 N348 1.362 . S
C341 C337 1.411 . S
C341 C339 1.420 . S
C341 C346 1.395 . S
C342 C338 1.423 . S
C342 C339 1.351 . S
C342 H354 0.930 . S
C343 C345 1.400 . S
C343 C346 1.386 . S
C343 H355 0.930 . S
N344 C337 1.377 . S
N344 C345 1.321 . S
N344 Eu347 2.609 . S
C345 C343 1.400 . S
C345 N344 1.321 . S
C345 H352 0.930 . S
C346 C341 1.395 . S
C346 C343 1.386 . S
C346 H365 0.930 . S
Eu347 N344 2.609 . S
Eu347 N348 2.657 . S
Eu347 O381 2.380 . S
Eu347 O382 2.432 . S
Eu347 O386 2.558 . S
Eu347 O387 2.612 . S
Eu347 O389 2.339 . S
Eu347 O390 2.563 . S
Eu347 O391 2.419 . S
Eu347 C411 2.848 . S
N348 C340 1.362 . S
N348 Eu347 2.657 . S
N348 C349 1.334 . S
C349 N348 1.334 . S
C349 C351 1.413 . S
C349 H356 0.929 . S
C350 C338 1.392 . S
C350 C351 1.367 . S
C350 H358 0.930 . S
C351 C349 1.413 . S
C351 C350 1.367 . S
C351 H353 0.930 . S
H352 C345 0.930 . S
H353 C351 0.930 . S
H354 C342 0.930 . S
H355 C343 0.930 . S
H356 C349 0.929 . S
H357 C371 0.930 . S
H358 C350 0.930 . S
H359 C377 0.930 . S
H360 C368 0.929 . S
H361 C375 0.930 . S
H362 C339 0.931 . S
H363 C369 0.930 . S
H364 C402 0.930 . S
H365 C346 0.930 . S
H366 C401 0.931 . S
N367 Eu336 2.657 . S
N367 C368 1.334 . S
N367 C372 1.362 . S
C368 H360 0.929 . S
C368 N367 1.334 . S
C368 C371 1.413 . S
C369 H363 0.930 . S
C369 C370 1.392 . S
C369 C371 1.367 . S
C370 C369 1.392 . S
C370 C372 1.420 . S
C370 C402 1.423 . S
C371 H357 0.930 . S
C371 C368 1.413 . S
C371 C369 1.367 . S
C372 N367 1.362 . S
C372 C370 1.420 . S
C372 C376 1.429 . S
H373 C378 0.930 . S
N374 Eu336 2.609 . S
N374 C376 1.377 . S
N374 C377 1.321 . S
C375 H361 0.930 . S
C375 C377 1.400 . S
C375 C378 1.386 . S
C376 C372 1.429 . S
C376 N374 1.377 . S
C376 C379 1.411 . S
C377 H359 0.930 . S
C377 N374 1.321 . S
C377 C375 1.400 . S
C378 H373 0.930 . S
C378 C375 1.386 . S
C378 C379 1.395 . S
C379 C376 1.411 . S
C379 C378 1.395 . S
C379 C401 1.420 . S
O380 Eu336 2.558 . S
O380 C400 1.257 . S
O381 Eu336 2.612 . S
O381 Eu347 2.380 . S
O381 C392 1.276 . S
O382 Eu347 2.432 . S
O382 C399 1.264 . S
O383 Eu336 2.339 . S
O383 C399 1.254 . S
O384 Eu336 2.563 . S
O384 C392 1.235 . S
O385 Eu336 2.419 . S
O385 C400 1.249 . S
O386 Eu347 2.558 . S
O386 C411 1.257 . S
O387 Eu336 2.380 . S
O387 Eu347 2.612 . S
O387 C403 1.276 . S
O388 Eu336 2.432 . S
O388 C410 1.264 . S
O389 Eu347 2.339 . S
O389 C410 1.254 . S
O390 Eu347 2.563 . S
O390 C403 1.235 . S
O391 Eu347 2.419 . S
O391 C411 1.249 . S
C392 O381 1.276 . S
C392 O384 1.235 . S
C393 C395 1.393 . S
C393 C397 1.395 . S
C393 C400 1.492 . S
C394 C395 1.392 . S
C394 C396 1.386 . S
C395 C393 1.393 . S
C395 C394 1.392 . S
C395 H412 0.930 . S
C396 C394 1.386 . S
C396 C398 1.395 . S
C396 H413 0.930 . S
C397 C393 1.395 . S
C397 C398 1.379 . S
C397 H414 0.930 . S
C398 C396 1.395 . S
C398 C397 1.379 . S
C398 H415 0.930 . S
C399 O382 1.264 . S
C399 O383 1.254 . S
C400 Eu336 2.848 . S
C400 O380 1.257 . S
C400 O385 1.249 . S
C400 C393 1.492 . S
C401 H366 0.931 . S
C401 C379 1.420 . S
C401 C402 1.351 . S
C402 H364 0.930 . S
C402 C370 1.423 . S
C402 C401 1.351 . S
C403 O387 1.276 . S
C403 O390 1.235 . S
C404 C405 1.393 . S
C404 C408 1.395 . S
C404 C411 1.492 . S
C405 C404 1.393 . S
C405 C406 1.392 . S
C405 H416 0.930 . S
C406 C405 1.392 . S
C406 C407 1.386 . S
C407 C406 1.386 . S
C407 C409 1.395 . S
C407 H417 0.930 . S
C408 C404 1.395 . S
C408 C409 1.379 . S
C408 H418 0.930 . S
C409 C407 1.395 . S
C409 C408 1.379 . S
C409 H419 0.930 . S
C410 O388 1.264 . S
C410 O389 1.254 . S
C411 Eu347 2.848 . S
C411 O386 1.257 . S
C411 O391 1.249 . S
C411 C404 1.492 . S
H412 C395 0.930 . S
H413 C396 0.930 . S
H414 C397 0.930 . S
H415 C398 0.930 . S
H416 C405 0.930 . S
H417 C407 0.930 . S
H418 C408 0.930 . S
H419 C409 0.930 . S
Eu420 N451 2.657 . S
Eu420 N458 2.609 . S
Eu420 O464 2.558 . S
Eu420 O465 2.612 . S
Eu420 O467 2.339 . S
Eu420 O468 2.563 . S
Eu420 O469 2.419 . S
Eu420 O471 2.380 . S
Eu420 O472 2.432 . S
Eu420 C484 2.848 . S
C421 C424 1.429 . S
C421 C425 1.411 . S
C421 N428 1.377 . S
C422 C424 1.420 . S
C422 C426 1.423 . S
C422 C434 1.392 . S
C423 C425 1.420 . S
C423 C426 1.351 . S
C423 H446 0.931 . S
C424 C421 1.429 . S
C424 C422 1.420 . S
C424 N432 1.362 . S
C425 C421 1.411 . S
C425 C423 1.420 . S
C425 C430 1.395 . S
C426 C422 1.423 . S
C426 C423 1.351 . S
C426 H438 0.930 . S
C427 C429 1.400 . S
C427 C430 1.386 . S
C427 H439 0.930 . S
N428 C421 1.377 . S
N428 C429 1.321 . S
N428 Eu431 2.609 . S
C429 C427 1.400 . S
C429 N428 1.321 . S
C429 H436 0.930 . S
C430 C425 1.395 . S
C430 C427 1.386 . S
C430 H449 0.930 . S
Eu431 N428 2.609 . S
Eu431 N432 2.657 . S
Eu431 O465 2.380 . S
Eu431 O466 2.432 . S
Eu431 O470 2.558 . S
Eu431 O471 2.612 . S
Eu431 O473 2.339 . S
Eu431 O474 2.563 . S
Eu431 O475 2.419 . S
Eu431 C495 2.848 . S
N432 C424 1.362 . S
N432 Eu431 2.657 . S
N432 C433 1.334 . S
C433 N432 1.334 . S
C433 C435 1.413 . S
C433 H440 0.929 . S
C434 C422 1.392 . S
C434 C435 1.367 . S
C434 H442 0.930 . S
C435 C433 1.413 . S
C435 C434 1.367 . S
C435 H437 0.930 . S
H436 C429 0.930 . S
H437 C435 0.930 . S
H438 C426 0.930 . S
H439 C427 0.930 . S
H440 C433 0.929 . S
H441 C455 0.930 . S
H442 C434 0.930 . S
H443 C461 0.930 . S
H444 C452 0.929 . S
H445 C459 0.930 . S
H446 C423 0.931 . S
H447 C453 0.930 . S
H448 C486 0.930 . S
H449 C430 0.930 . S
H450 C485 0.931 . S
N451 Eu420 2.657 . S
N451 C452 1.334 . S
N451 C456 1.362 . S
C452 H444 0.929 . S
C452 N451 1.334 . S
C452 C455 1.413 . S
C453 H447 0.930 . S
C453 C454 1.392 . S
C453 C455 1.367 . S
C454 C453 1.392 . S
C454 C456 1.420 . S
C454 C486 1.423 . S
C455 H441 0.930 . S
C455 C452 1.413 . S
C455 C453 1.367 . S
C456 N451 1.362 . S
C456 C454 1.420 . S
C456 C460 1.429 . S
H457 C462 0.930 . S
N458 Eu420 2.609 . S
N458 C460 1.377 . S
N458 C461 1.321 . S
C459 H445 0.930 . S
C459 C461 1.400 . S
C459 C462 1.386 . S
C460 C456 1.429 . S
C460 N458 1.377 . S
C460 C463 1.411 . S
C461 H443 0.930 . S
C461 N458 1.321 . S
C461 C459 1.400 . S
C462 H457 0.930 . S
C462 C459 1.386 . S
C462 C463 1.395 . S
C463 C460 1.411 . S
C463 C462 1.395 . S
C463 C485 1.420 . S
O464 Eu420 2.558 . S
O464 C484 1.257 . S
O465 Eu420 2.612 . S
O465 Eu431 2.380 . S
O465 C476 1.276 . S
O466 Eu431 2.432 . S
O466 C483 1.264 . S
O467 Eu420 2.339 . S
O467 C483 1.254 . S
O468 Eu420 2.563 . S
O468 C476 1.235 . S
O469 Eu420 2.419 . S
O469 C484 1.249 . S
O470 Eu431 2.558 . S
O470 C495 1.257 . S
O471 Eu420 2.380 . S
O471 Eu431 2.612 . S
O471 C487 1.276 . S
O472 Eu420 2.432 . S
O472 C494 1.264 . S
O473 Eu431 2.339 . S
O473 C494 1.254 . S
O474 Eu431 2.563 . S
O474 C487 1.235 . S
O475 Eu431 2.419 . S
O475 C495 1.249 . S
C476 O465 1.276 . S
C476 O468 1.235 . S
C477 C479 1.393 . S
C477 C481 1.395 . S
C477 C484 1.492 . S
C478 C479 1.392 . S
C478 C480 1.386 . S
C479 C477 1.393 . S
C479 C478 1.392 . S
C479 H496 0.930 . S
C480 C478 1.386 . S
C480 C482 1.395 . S
C480 H497 0.930 . S
C481 C477 1.395 . S
C481 C482 1.379 . S
C481 H498 0.930 . S
C482 C480 1.395 . S
C482 C481 1.379 . S
C482 H499 0.930 . S
C483 O466 1.264 . S
C483 O467 1.254 . S
C484 Eu420 2.848 . S
C484 O464 1.257 . S
C484 O469 1.249 . S
C484 C477 1.492 . S
C485 H450 0.931 . S
C485 C463 1.420 . S
C485 C486 1.351 . S
C486 H448 0.930 . S
C486 C454 1.423 . S
C486 C485 1.351 . S
C487 O471 1.276 . S
C487 O474 1.235 . S
C488 C489 1.393 . S
C488 C492 1.395 . S
C488 C495 1.492 . S
C489 C488 1.393 . S
C489 C490 1.392 . S
C489 H500 0.930 . S
C490 C489 1.392 . S
C490 C491 1.386 . S
C491 C490 1.386 . S
C491 C493 1.395 . S
C491 H501 0.930 . S
C492 C488 1.395 . S
C492 C493 1.379 . S
C492 H502 0.930 . S
C493 C491 1.395 . S
C493 C492 1.379 . S
C493 H503 0.930 . S
C494 O472 1.264 . S
C494 O473 1.254 . S
C495 Eu431 2.848 . S
C495 O470 1.257 . S
C495 O475 1.249 . S
C495 C488 1.492 . S
H496 C479 0.930 . S
H497 C480 0.930 . S
H498 C481 0.930 . S
H499 C482 0.930 . S
H500 C489 0.930 . S
H501 C491 0.930 . S
H502 C492 0.930 . S
H503 C493 0.930 . S
Eu504 N535 2.657 . S
Eu504 N542 2.609 . S
Eu504 O548 2.558 . S
Eu504 O549 2.612 . S
Eu504 O551 2.339 . S
Eu504 O552 2.563 . S
Eu504 O553 2.419 . S
Eu504 O555 2.380 . S
Eu504 O556 2.432 . S
Eu504 C568 2.848 . S
C505 C508 1.429 . S
C505 C509 1.411 . S
C505 N512 1.377 . S
C506 C508 1.420 . S
C506 C510 1.423 . S
C506 C518 1.392 . S
C507 C509 1.420 . S
C507 C510 1.351 . S
C507 H530 0.931 . S
C508 C505 1.429 . S
C508 C506 1.420 . S
C508 N516 1.362 . S
C509 C505 1.411 . S
C509 C507 1.420 . S
C509 C514 1.395 . S
C510 C506 1.423 . S
C510 C507 1.351 . S
C510 H522 0.930 . S
C511 C513 1.400 . S
C511 C514 1.386 . S
C511 H523 0.930 . S
N512 C505 1.377 . S
N512 C513 1.321 . S
N512 Eu515 2.609 . S
C513 C511 1.400 . S
C513 N512 1.321 . S
C513 H520 0.930 . S
C514 C509 1.395 . S
C514 C511 1.386 . S
C514 H533 0.930 . S
Eu515 N512 2.609 . S
Eu515 N516 2.657 . S
Eu515 O549 2.380 . S
Eu515 O550 2.432 . S
Eu515 O554 2.558 . S
Eu515 O555 2.612 . S
Eu515 O557 2.339 . S
Eu515 O558 2.563 . S
Eu515 O559 2.419 . S
Eu515 C579 2.848 . S
N516 C508 1.362 . S
N516 Eu515 2.657 . S
N516 C517 1.334 . S
C517 N516 1.334 . S
C517 C519 1.413 . S
C517 H524 0.929 . S
C518 C506 1.392 . S
C518 C519 1.367 . S
C518 H526 0.930 . S
C519 C517 1.413 . S
C519 C518 1.367 . S
C519 H521 0.930 . S
H520 C513 0.930 . S
H521 C519 0.930 . S
H522 C510 0.930 . S
H523 C511 0.930 . S
H524 C517 0.929 . S
H525 C539 0.930 . S
H526 C518 0.930 . S
H527 C545 0.930 . S
H528 C536 0.929 . S
H529 C543 0.930 . S
H530 C507 0.931 . S
H531 C537 0.930 . S
H532 C570 0.930 . S
H533 C514 0.930 . S
H534 C569 0.931 . S
N535 Eu504 2.657 . S
N535 C536 1.334 . S
N535 C540 1.362 . S
C536 H528 0.929 . S
C536 N535 1.334 . S
C536 C539 1.413 . S
C537 H531 0.930 . S
C537 C538 1.392 . S
C537 C539 1.367 . S
C538 C537 1.392 . S
C538 C540 1.420 . S
C538 C570 1.423 . S
C539 H525 0.930 . S
C539 C536 1.413 . S
C539 C537 1.367 . S
C540 N535 1.362 . S
C540 C538 1.420 . S
C540 C544 1.429 . S
H541 C546 0.930 . S
N542 Eu504 2.609 . S
N542 C544 1.377 . S
N542 C545 1.321 . S
C543 H529 0.930 . S
C543 C545 1.400 . S
C543 C546 1.386 . S
C544 C540 1.429 . S
C544 N542 1.377 . S
C544 C547 1.411 . S
C545 H527 0.930 . S
C545 N542 1.321 . S
C545 C543 1.400 . S
C546 H541 0.930 . S
C546 C543 1.386 . S
C546 C547 1.395 . S
C547 C544 1.411 . S
C547 C546 1.395 . S
C547 C569 1.420 . S
O548 Eu504 2.558 . S
O548 C568 1.257 . S
O549 Eu504 2.612 . S
O549 Eu515 2.380 . S
O549 C560 1.276 . S
O550 Eu515 2.432 . S
O550 C567 1.264 . S
O551 Eu504 2.339 . S
O551 C567 1.254 . S
O552 Eu504 2.563 . S
O552 C560 1.235 . S
O553 Eu504 2.419 . S
O553 C568 1.249 . S
O554 Eu515 2.558 . S
O554 C579 1.257 . S
O555 Eu504 2.380 . S
O555 Eu515 2.612 . S
O555 C571 1.276 . S
O556 Eu504 2.432 . S
O556 C578 1.264 . S
O557 Eu515 2.339 . S
O557 C578 1.254 . S
O558 Eu515 2.563 . S
O558 C571 1.235 . S
O559 Eu515 2.419 . S
O559 C579 1.249 . S
C560 O549 1.276 . S
C560 O552 1.235 . S
C561 C563 1.393 . S
C561 C565 1.395 . S
C561 C568 1.492 . S
C562 C563 1.392 . S
C562 C564 1.386 . S
C563 C561 1.393 . S
C563 C562 1.392 . S
C563 H580 0.930 . S
C564 C562 1.386 . S
C564 C566 1.395 . S
C564 H581 0.930 . S
C565 C561 1.395 . S
C565 C566 1.379 . S
C565 H582 0.930 . S
C566 C564 1.395 . S
C566 C565 1.379 . S
C566 H583 0.930 . S
C567 O550 1.264 . S
C567 O551 1.254 . S
C568 Eu504 2.848 . S
C568 O548 1.257 . S
C568 O553 1.249 . S
C568 C561 1.492 . S
C569 H534 0.931 . S
C569 C547 1.420 . S
C569 C570 1.351 . S
C570 H532 0.930 . S
C570 C538 1.423 . S
C570 C569 1.351 . S
C571 O555 1.276 . S
C571 O558 1.235 . S
C572 C573 1.393 . S
C572 C576 1.395 . S
C572 C579 1.492 . S
C573 C572 1.393 . S
C573 C574 1.392 . S
C573 H584 0.930 . S
C574 C573 1.392 . S
C574 C575 1.386 . S
C575 C574 1.386 . S
C575 C577 1.395 . S
C575 H585 0.930 . S
C576 C572 1.395 . S
C576 C577 1.379 . S
C576 H586 0.930 . S
C577 C575 1.395 . S
C577 C576 1.379 . S
C577 H587 0.930 . S
C578 O556 1.264 . S
C578 O557 1.254 . S
C579 Eu515 2.848 . S
C579 O554 1.257 . S
C579 O559 1.249 . S
C579 C572 1.492 . S
H580 C563 0.930 . S
H581 C564 0.930 . S
H582 C565 0.930 . S
H583 C566 0.930 . S
H584 C573 0.930 . S
H585 C575 0.930 . S
H586 C576 0.930 . S
H587 C577 0.930 . S
Eu588 N619 2.657 . S
Eu588 N626 2.609 . S
Eu588 O632 2.558 . S
Eu588 O633 2.612 1_655 S
Eu588 O635 2.339 . S
Eu588 O636 2.563 . S
Eu588 O637 2.419 . S
Eu588 O639 2.380 . S
Eu588 O640 2.432 1_655 S
Eu588 C652 2.848 . S
C589 C592 1.429 . S
C589 C593 1.411 . S
C589 N596 1.377 . S
C590 C592 1.420 . S
C590 C594 1.423 . S
C590 C602 1.392 . S
C591 C593 1.420 . S
C591 C594 1.351 . S
C591 H614 0.931 . S
C592 C589 1.429 . S
C592 C590 1.420 . S
C592 N600 1.362 . S
C593 C589 1.411 . S
C593 C591 1.420 . S
C593 C598 1.395 . S
C594 C590 1.423 . S
C594 C591 1.351 . S
C594 H606 0.930 . S
C595 C597 1.400 . S
C595 C598 1.386 . S
C595 H607 0.930 1_455 S
N596 C589 1.377 . S
N596 C597 1.321 . S
N596 Eu599 2.609 . S
C597 C595 1.400 . S
C597 N596 1.321 . S
C597 H604 0.930 1_455 S
C598 C593 1.395 . S
C598 C595 1.386 . S
C598 H617 0.930 . S
Eu599 N596 2.609 . S
Eu599 N600 2.657 . S
Eu599 O633 2.380 . S
Eu599 O634 2.432 1_455 S
Eu599 O638 2.558 . S
Eu599 O639 2.612 1_455 S
Eu599 O641 2.339 . S
Eu599 O642 2.563 . S
Eu599 O643 2.419 . S
Eu599 C663 2.848 . S
N600 C592 1.362 . S
N600 Eu599 2.657 . S
N600 C601 1.334 . S
C601 N600 1.334 . S
C601 C603 1.413 . S
C601 H608 0.929 . S
C602 C590 1.392 . S
C602 C603 1.367 . S
C602 H610 0.930 . S
C603 C601 1.413 . S
C603 C602 1.367 . S
C603 H605 0.930 . S
H604 C597 0.930 1_655 S
H605 C603 0.930 . S
H606 C594 0.930 . S
H607 C595 0.930 1_655 S
H608 C601 0.929 . S
H609 C623 0.930 . S
H610 C602 0.930 . S
H611 C629 0.930 1_455 S
H612 C620 0.929 . S
H613 C627 0.930 1_455 S
H614 C591 0.931 . S
H615 C621 0.930 . S
H616 C654 0.930 . S
H617 C598 0.930 . S
H618 C653 0.931 . S
N619 Eu588 2.657 . S
N619 C620 1.334 . S
N619 C624 1.362 . S
C620 H612 0.929 . S
C620 N619 1.334 . S
C620 C623 1.413 . S
C621 H615 0.930 . S
C621 C622 1.392 . S
C621 C623 1.367 . S
C622 C621 1.392 . S
C622 C624 1.420 . S
C622 C654 1.423 . S
C623 H609 0.930 . S
C623 C620 1.413 . S
C623 C621 1.367 . S
C624 N619 1.362 . S
C624 C622 1.420 . S
C624 C628 1.429 . S
H625 C630 0.930 . S
N626 Eu588 2.609 . S
N626 C628 1.377 . S
N626 C629 1.321 . S
C627 H613 0.930 1_655 S
C627 C629 1.400 . S
C627 C630 1.386 . S
C628 C624 1.429 . S
C628 N626 1.377 . S
C628 C631 1.411 . S
C629 H611 0.930 1_655 S
C629 N626 1.321 . S
C629 C627 1.400 . S
C630 H625 0.930 . S
C630 C627 1.386 . S
C630 C631 1.395 . S
C631 C628 1.411 . S
C631 C630 1.395 . S
C631 C653 1.420 . S
O632 Eu588 2.558 . S
O632 C652 1.257 . S
O633 Eu588 2.612 1_455 S
O633 Eu599 2.380 . S
O633 C644 1.276 . S
O634 Eu599 2.432 1_655 S
O634 C651 1.264 . S
O635 Eu588 2.339 . S
O635 C651 1.254 . S
O636 Eu588 2.563 . S
O636 C644 1.232 1_655 S
O637 Eu588 2.419 . S
O637 C652 1.249 . S
O638 Eu599 2.558 . S
O638 C663 1.257 . S
O639 Eu588 2.380 . S
O639 Eu599 2.612 1_655 S
O639 C655 1.276 . S
O640 Eu588 2.432 1_455 S
O640 C662 1.264 . S
O641 Eu599 2.339 . S
O641 C662 1.254 . S
O642 Eu599 2.563 . S
O642 C655 1.222 1_455 S
O643 Eu599 2.419 . S
O643 C663 1.249 . S
C644 O633 1.276 . S
C644 O636 1.232 1_455 S
C645 C647 1.393 . S
C645 C649 1.395 . S
C645 C652 1.492 . S
C646 C647 1.392 . S
C646 C648 1.386 . S
C647 C645 1.393 . S
C647 C646 1.392 . S
C647 H664 0.930 . S
C648 C646 1.386 . S
C648 C650 1.395 . S
C648 H665 0.930 . S
C649 C645 1.395 . S
C649 C650 1.379 . S
C649 H666 0.930 . S
C650 C648 1.395 . S
C650 C649 1.379 . S
C650 H667 0.930 . S
C651 O634 1.264 . S
C651 O635 1.254 . S
C652 Eu588 2.848 . S
C652 O632 1.257 . S
C652 O637 1.249 . S
C652 C645 1.492 . S
C653 H618 0.931 . S
C653 C631 1.420 . S
C653 C654 1.351 . S
C654 H616 0.930 . S
C654 C622 1.423 . S
C654 C653 1.351 . S
C655 O639 1.276 . S
C655 O642 1.222 1_655 S
C656 C657 1.393 . S
C656 C660 1.395 . S
C656 C663 1.492 . S
C657 C656 1.393 . S
C657 C658 1.392 . S
C657 H668 0.930 . S
C658 C657 1.392 . S
C658 C659 1.386 . S
C659 C658 1.386 . S
C659 C661 1.395 . S
C659 H669 0.930 . S
C660 C656 1.395 . S
C660 C661 1.379 . S
C660 H670 0.930 . S
C661 C659 1.395 . S
C661 C660 1.379 . S
C661 H671 0.930 . S
C662 O640 1.264 . S
C662 O641 1.254 . S
C663 Eu599 2.848 . S
C663 O638 1.257 . S
C663 O643 1.249 . S
C663 C656 1.492 . S
H664 C647 0.930 . S
H665 C648 0.930 . S
H666 C649 0.930 . S
H667 C650 0.930 . S
H668 C657 0.930 . S
H669 C659 0.930 . S
H670 C660 0.930 . S
H671 C661 0.930 . S
Eu672 N703 2.657 . S
Eu672 N710 2.609 . S
Eu672 O716 2.558 . S
Eu672 O717 2.612 1_556 S
Eu672 O719 2.339 1_556 S
Eu672 O720 2.563 1_556 S
Eu672 O721 2.419 . S
Eu672 O723 2.380 . S
Eu672 O724 2.432 . S
Eu672 C736 2.848 . S
C673 C676 1.429 . S
C673 C677 1.411 . S
C673 N680 1.377 . S
C674 C676 1.420 . S
C674 C678 1.423 . S
C674 C686 1.392 . S
C675 C677 1.420 . S
C675 C678 1.351 . S
C675 H698 0.931 . S
C676 C673 1.429 . S
C676 C674 1.420 . S
C676 N684 1.362 . S
C677 C673 1.411 . S
C677 C675 1.420 . S
C677 C682 1.395 . S
C678 C674 1.423 . S
C678 C675 1.351 . S
C678 H690 0.930 . S
C679 C681 1.400 . S
C679 C682 1.386 . S
C679 H691 0.930 . S
N680 C673 1.377 . S
N680 C681 1.321 . S
N680 Eu683 2.609 . S
C681 C679 1.400 . S
C681 N680 1.321 . S
C681 H688 0.930 . S
C682 C677 1.395 . S
C682 C679 1.386 . S
C682 H701 0.930 . S
Eu683 N680 2.609 . S
Eu683 N684 2.657 . S
Eu683 O717 2.380 . S
Eu683 O718 2.432 . S
Eu683 O722 2.558 . S
Eu683 O723 2.612 1_554 S
Eu683 O725 2.339 1_554 S
Eu683 O726 2.563 1_554 S
Eu683 O727 2.419 . S
Eu683 C747 2.848 . S
N684 C676 1.362 . S
N684 Eu683 2.657 . S
N684 C685 1.334 . S
C685 N684 1.334 . S
C685 C687 1.413 . S
C685 H692 0.929 . S
C686 C674 1.392 . S
C686 C687 1.367 . S
C686 H694 0.930 . S
C687 C685 1.413 . S
C687 C686 1.367 . S
C687 H689 0.930 . S
H688 C681 0.930 . S
H689 C687 0.930 . S
H690 C678 0.930 . S
H691 C679 0.930 . S
H692 C685 0.929 . S
H693 C707 0.930 . S
H694 C686 0.930 . S
H695 C713 0.930 . S
H696 C704 0.929 . S
H697 C711 0.930 . S
H698 C675 0.931 . S
H699 C705 0.930 . S
H700 C738 0.930 . S
H701 C682 0.930 . S
H702 C737 0.931 . S
N703 Eu672 2.657 . S
N703 C704 1.334 . S
N703 C708 1.362 . S
C704 H696 0.929 . S
C704 N703 1.334 . S
C704 C707 1.413 . S
C705 H699 0.930 . S
C705 C706 1.392 . S
C705 C707 1.367 . S
C706 C705 1.392 . S
C706 C708 1.420 . S
C706 C738 1.423 . S
C707 H693 0.930 . S
C707 C704 1.413 . S
C707 C705 1.367 . S
C708 N703 1.362 . S
C708 C706 1.420 . S
C708 C712 1.429 . S
H709 C714 0.930 . S
N710 Eu672 2.609 . S
N710 C712 1.377 . S
N710 C713 1.321 . S
C711 H697 0.930 . S
C711 C713 1.400 . S
C711 C714 1.386 . S
C712 C708 1.429 . S
C712 N710 1.377 . S
C712 C715 1.411 . S
C713 H695 0.930 . S
C713 N710 1.321 . S
C713 C711 1.400 . S
C714 H709 0.930 . S
C714 C711 1.386 . S
C714 C715 1.395 . S
C715 C712 1.411 . S
C715 C714 1.395 . S
C715 C737 1.420 . S
O716 Eu672 2.558 . S
O716 C736 1.257 . S
O717 Eu672 2.612 1_554 S
O717 Eu683 2.380 . S
O717 C728 1.276 . S
O718 Eu683 2.432 . S
O718 C735 1.264 . S
O719 Eu672 2.339 1_554 S
O719 C735 1.254 . S
O720 Eu672 2.563 1_554 S
O720 C728 1.235 . S
O721 Eu672 2.419 . S
O721 C736 1.249 . S
O722 Eu683 2.558 . S
O722 C747 1.257 . S
O723 Eu672 2.380 . S
O723 Eu683 2.612 1_556 S
O723 C739 1.276 . S
O724 Eu672 2.432 . S
O724 C746 1.264 . S
O725 Eu683 2.339 1_556 S
O725 C746 1.254 . S
O726 Eu683 2.563 1_556 S
O726 C739 1.235 . S
O727 Eu683 2.419 . S
O727 C747 1.249 . S
C728 O717 1.276 . S
C728 O720 1.235 . S
C729 C731 1.393 . S
C729 C733 1.395 . S
C729 C736 1.492 . S
C730 C731 1.392 . S
C730 C732 1.386 . S
C731 C729 1.393 . S
C731 C730 1.392 . S
C731 H748 0.930 . S
C732 C730 1.386 . S
C732 C734 1.395 . S
C732 H749 0.930 . S
C733 C729 1.395 . S
C733 C734 1.379 . S
C733 H750 0.930 . S
C734 C732 1.395 . S
C734 C733 1.379 . S
C734 H751 0.930 . S
C735 O718 1.264 . S
C735 O719 1.254 . S
C736 Eu672 2.848 . S
C736 O716 1.257 . S
C736 O721 1.249 . S
C736 C729 1.492 . S
C737 H702 0.931 . S
C737 C715 1.420 . S
C737 C738 1.351 . S
C738 H700 0.930 . S
C738 C706 1.423 . S
C738 C737 1.351 . S
C739 O723 1.276 . S
C739 O726 1.235 . S
C740 C741 1.393 . S
C740 C744 1.395 . S
C740 C747 1.492 . S
C741 C740 1.393 . S
C741 C742 1.392 . S
C741 H752 0.930 . S
C742 C741 1.392 . S
C742 C743 1.386 . S
C743 C742 1.386 . S
C743 C745 1.395 . S
C743 H753 0.930 . S
C744 C740 1.395 . S
C744 C745 1.379 . S
C744 H754 0.930 . S
C745 C743 1.395 . S
C745 C744 1.379 . S
C745 H755 0.930 . S
C746 O724 1.264 . S
C746 O725 1.254 . S
C747 Eu683 2.848 . S
C747 O722 1.257 . S
C747 O727 1.249 . S
C747 C740 1.492 . S
H748 C731 0.930 . S
H749 C732 0.930 . S
H750 C733 0.930 . S
H751 C734 0.930 . S
H752 C741 0.930 . S
H753 C743 0.930 . S
H754 C744 0.930 . S
H755 C745 0.930 . S
Eu756 N787 2.657 . S
Eu756 N794 2.609 . S
Eu756 O800 2.558 . S
Eu756 O801 2.612 1_565 S
Eu756 O803 2.339 1_565 S
Eu756 O804 2.563 1_565 S
Eu756 O805 2.419 . S
Eu756 O807 2.380 . S
Eu756 O808 2.432 . S
Eu756 C820 2.848 . S
C757 C760 1.429 . S
C757 C761 1.411 . S
C757 N764 1.377 . S
C758 C760 1.420 . S
C758 C762 1.423 . S
C758 C770 1.392 . S
C759 C761 1.420 . S
C759 C762 1.351 . S
C759 H782 0.931 . S
C760 C757 1.429 . S
C760 C758 1.420 . S
C760 N768 1.362 . S
C761 C757 1.411 . S
C761 C759 1.420 . S
C761 C766 1.395 . S
C762 C758 1.423 . S
C762 C759 1.351 . S
C762 H774 0.930 . S
C763 C765 1.400 . S
C763 C766 1.386 . S
C763 H775 0.930 . S
N764 C757 1.377 . S
N764 C765 1.321 . S
N764 Eu767 2.609 . S
C765 C763 1.400 . S
C765 N764 1.321 . S
C765 H772 0.930 . S
C766 C761 1.395 . S
C766 C763 1.386 . S
C766 H785 0.930 . S
Eu767 N764 2.609 . S
Eu767 N768 2.657 . S
Eu767 O801 2.380 . S
Eu767 O802 2.432 . S
Eu767 O806 2.558 . S
Eu767 O807 2.612 1_545 S
Eu767 O809 2.339 1_545 S
Eu767 O810 2.563 1_545 S
Eu767 O811 2.419 . S
Eu767 C831 2.848 . S
N768 C760 1.362 . S
N768 Eu767 2.657 . S
N768 C769 1.334 . S
C769 N768 1.334 . S
C769 C771 1.413 . S
C769 H776 0.929 . S
C770 C758 1.392 . S
C770 C771 1.367 . S
C770 H778 0.930 . S
C771 C769 1.413 . S
C771 C770 1.367 . S
C771 H773 0.930 . S
H772 C765 0.930 . S
H773 C771 0.930 . S
H774 C762 0.930 . S
H775 C763 0.930 . S
H776 C769 0.929 . S
H777 C791 0.930 . S
H778 C770 0.930 . S
H779 C797 0.930 . S
H780 C788 0.929 . S
H781 C795 0.930 . S
H782 C759 0.931 . S
H783 C789 0.930 . S
H784 C822 0.930 . S
H785 C766 0.930 . S
H786 C821 0.931 . S
N787 Eu756 2.657 . S
N787 C788 1.334 . S
N787 C792 1.362 . S
C788 H780 0.929 . S
C788 N787 1.334 . S
C788 C791 1.413 . S
C789 H783 0.930 . S
C789 C790 1.392 . S
C789 C791 1.367 . S
C790 C789 1.392 . S
C790 C792 1.420 . S
C790 C822 1.423 . S
C791 H777 0.930 . S
C791 C788 1.413 . S
C791 C789 1.367 . S
C792 N787 1.362 . S
C792 C790 1.420 . S
C792 C796 1.429 . S
H793 C798 0.930 . S
N794 Eu756 2.609 . S
N794 C796 1.377 . S
N794 C797 1.321 . S
C795 H781 0.930 . S
C795 C797 1.400 . S
C795 C798 1.386 . S
C796 C792 1.429 . S
C796 N794 1.377 . S
C796 C799 1.411 . S
C797 H779 0.930 . S
C797 N794 1.321 . S
C797 C795 1.400 . S
C798 H793 0.930 . S
C798 C795 1.386 . S
C798 C799 1.395 . S
C799 C796 1.411 . S
C799 C798 1.395 . S
C799 C821 1.420 . S
O800 Eu756 2.558 . S
O800 C820 1.257 . S
O801 Eu756 2.612 1_545 S
O801 Eu767 2.380 . S
O801 C812 1.276 . S
O802 Eu767 2.432 . S
O802 C819 1.264 . S
O803 Eu756 2.339 1_545 S
O803 C819 1.254 . S
O804 Eu756 2.563 1_545 S
O804 C812 1.235 . S
O805 Eu756 2.419 . S
O805 C820 1.249 . S
O806 Eu767 2.558 . S
O806 C831 1.257 . S
O807 Eu756 2.380 . S
O807 Eu767 2.612 1_565 S
O807 C823 1.276 . S
O808 Eu756 2.432 . S
O808 C830 1.264 . S
O809 Eu767 2.339 1_565 S
O809 C830 1.254 . S
O810 Eu767 2.563 1_565 S
O810 C823 1.235 . S
O811 Eu767 2.419 . S
O811 C831 1.249 . S
C812 O801 1.276 . S
C812 O804 1.235 . S
C813 C815 1.393 1_565 S
C813 C817 1.395 . S
C813 C820 1.492 . S
C814 C815 1.392 . S
C814 C816 1.386 1_545 S
C815 C813 1.393 1_545 S
C815 C814 1.392 . S
C815 H832 0.930 . S
C816 C814 1.386 1_565 S
C816 C818 1.395 . S
C816 H833 0.930 . S
C817 C813 1.395 . S
C817 C818 1.379 . S
C817 H834 0.930 . S
C818 C816 1.395 . S
C818 C817 1.379 . S
C818 H835 0.930 . S
C819 O802 1.264 . S
C819 O803 1.254 . S
C820 Eu756 2.848 . S
C820 O800 1.257 . S
C820 O805 1.249 . S
C820 C813 1.492 . S
C821 H786 0.931 . S
C821 C799 1.420 . S
C821 C822 1.351 . S
C822 H784 0.930 . S
C822 C790 1.423 . S
C822 C821 1.351 . S
C823 O807 1.276 . S
C823 O810 1.235 . S
C824 C825 1.393 1_545 S
C824 C828 1.395 . S
C824 C831 1.492 . S
C825 C824 1.393 1_565 S
C825 C826 1.392 . S
C825 H836 0.930 . S
C826 C825 1.392 . S
C826 C827 1.386 1_565 S
C827 C826 1.386 1_545 S
C827 C829 1.395 . S
C827 H837 0.930 . S
C828 C824 1.395 . S
C828 C829 1.379 . S
C828 H838 0.930 . S
C829 C827 1.395 . S
C829 C828 1.379 . S
C829 H839 0.930 . S
C830 O808 1.264 . S
C830 O809 1.254 . S
C831 Eu767 2.848 . S
C831 O806 1.257 . S
C831 O811 1.249 . S
C831 C824 1.492 . S
H832 C815 0.930 . S
H833 C816 0.930 . S
H834 C817 0.930 . S
H835 C818 0.930 . S
H836 C825 0.930 . S
H837 C827 0.930 . S
H838 C828 0.930 . S
H839 C829 0.930 . S
Eu840 N871 2.657 . S
Eu840 N878 2.609 . S
Eu840 O884 2.558 . S
Eu840 O885 2.612 . S
Eu840 O887 2.339 . S
Eu840 O888 2.563 . S
Eu840 O889 2.419 . S
Eu840 O891 2.380 . S
Eu840 O892 2.432 . S
Eu840 C904 2.848 . S
C841 C844 1.429 . S
C841 C845 1.411 . S
C841 N848 1.377 . S
C842 C844 1.420 . S
C842 C846 1.423 . S
C842 C854 1.392 . S
C843 C845 1.420 . S
C843 C846 1.351 . S
C843 H866 0.931 . S
C844 C841 1.429 . S
C844 C842 1.420 . S
C844 N852 1.362 . S
C845 C841 1.411 . S
C845 C843 1.420 . S
C845 C850 1.395 . S
C846 C842 1.423 . S
C846 C843 1.351 . S
C846 H858 0.930 . S
C847 C849 1.400 . S
C847 C850 1.386 . S
C847 H859 0.930 . S
N848 C841 1.377 . S
N848 C849 1.321 . S
N848 Eu851 2.609 . S
C849 C847 1.400 . S
C849 N848 1.321 . S
C849 H856 0.930 . S
C850 C845 1.395 . S
C850 C847 1.386 . S
C850 H869 0.930 . S
Eu851 N848 2.609 . S
Eu851 N852 2.657 . S
Eu851 O885 2.380 . S
Eu851 O886 2.432 . S
Eu851 O890 2.558 . S
Eu851 O891 2.612 . S
Eu851 O893 2.339 . S
Eu851 O894 2.563 . S
Eu851 O895 2.419 . S
Eu851 C915 2.848 . S
N852 C844 1.362 . S
N852 Eu851 2.657 . S
N852 C853 1.334 . S
C853 N852 1.334 . S
C853 C855 1.413 . S
C853 H860 0.929 . S
C854 C842 1.392 . S
C854 C855 1.367 . S
C854 H862 0.930 . S
C855 C853 1.413 . S
C855 C854 1.367 . S
C855 H857 0.930 . S
H856 C849 0.930 . S
H857 C855 0.930 . S
H858 C846 0.930 . S
H859 C847 0.930 . S
H860 C853 0.929 . S
H861 C875 0.930 . S
H862 C854 0.930 . S
H863 C881 0.930 . S
H864 C872 0.929 . S
H865 C879 0.930 . S
H866 C843 0.931 . S
H867 C873 0.930 . S
H868 C906 0.930 . S
H869 C850 0.930 . S
H870 C905 0.931 . S
N871 Eu840 2.657 . S
N871 C872 1.334 . S
N871 C876 1.362 . S
C872 H864 0.929 . S
C872 N871 1.334 . S
C872 C875 1.413 . S
C873 H867 0.930 . S
C873 C874 1.392 . S
C873 C875 1.367 . S
C874 C873 1.392 . S
C874 C876 1.420 . S
C874 C906 1.423 . S
C875 H861 0.930 . S
C875 C872 1.413 . S
C875 C873 1.367 . S
C876 N871 1.362 . S
C876 C874 1.420 . S
C876 C880 1.429 . S
H877 C882 0.930 . S
N878 Eu840 2.609 . S
N878 C880 1.377 . S
N878 C881 1.321 . S
C879 H865 0.930 . S
C879 C881 1.400 . S
C879 C882 1.386 . S
C880 C876 1.429 . S
C880 N878 1.377 . S
C880 C883 1.411 . S
C881 H863 0.930 . S
C881 N878 1.321 . S
C881 C879 1.400 . S
C882 H877 0.930 . S
C882 C879 1.386 . S
C882 C883 1.395 . S
C883 C880 1.411 . S
C883 C882 1.395 . S
C883 C905 1.420 . S
O884 Eu840 2.558 . S
O884 C904 1.257 . S
O885 Eu840 2.612 . S
O885 Eu851 2.380 . S
O885 C896 1.276 . S
O886 Eu851 2.432 . S
O886 C903 1.264 . S
O887 Eu840 2.339 . S
O887 C903 1.254 . S
O888 Eu840 2.563 . S
O888 C896 1.235 . S
O889 Eu840 2.419 . S
O889 C904 1.249 . S
O890 Eu851 2.558 . S
O890 C915 1.257 . S
O891 Eu840 2.380 . S
O891 Eu851 2.612 . S
O891 C907 1.276 . S
O892 Eu840 2.432 . S
O892 C914 1.264 . S
O893 Eu851 2.339 . S
O893 C914 1.254 . S
O894 Eu851 2.563 . S
O894 C907 1.235 . S
O895 Eu851 2.419 . S
O895 C915 1.249 . S
C896 O885 1.276 . S
C896 O888 1.235 . S
C897 C899 1.393 . S
C897 C901 1.395 . S
C897 C904 1.492 . S
C898 C899 1.392 . S
C898 C900 1.386 . S
C899 C897 1.393 . S
C899 C898 1.392 . S
C899 H916 0.930 . S
C900 C898 1.386 . S
C900 C902 1.395 . S
C900 H917 0.930 . S
C901 C897 1.395 . S
C901 C902 1.379 . S
C901 H918 0.930 . S
C902 C900 1.395 . S
C902 C901 1.379 . S
C902 H919 0.930 . S
C903 O886 1.264 . S
C903 O887 1.254 . S
C904 Eu840 2.848 . S
C904 O884 1.257 . S
C904 O889 1.249 . S
C904 C897 1.492 . S
C905 H870 0.931 . S
C905 C883 1.420 . S
C905 C906 1.351 . S
C906 H868 0.930 . S
C906 C874 1.423 . S
C906 C905 1.351 . S
C907 O891 1.276 . S
C907 O894 1.235 . S
C908 C909 1.393 . S
C908 C912 1.395 . S
C908 C915 1.492 . S
C909 C908 1.393 . S
C909 C910 1.392 . S
C909 H920 0.930 . S
C910 C909 1.392 . S
C910 C911 1.386 . S
C911 C910 1.386 . S
C911 C913 1.395 . S
C911 H921 0.930 . S
C912 C908 1.395 . S
C912 C913 1.379 . S
C912 H922 0.930 . S
C913 C911 1.395 . S
C913 C912 1.379 . S
C913 H923 0.930 . S
C914 O892 1.264 . S
C914 O893 1.254 . S
C915 Eu851 2.848 . S
C915 O890 1.257 . S
C915 O895 1.249 . S
C915 C908 1.492 . S
H916 C899 0.930 . S
H917 C900 0.930 . S
H918 C901 0.930 . S
H919 C902 0.930 . S
H920 C909 0.930 . S
H921 C911 0.930 . S
H922 C912 0.930 . S
H923 C913 0.930 . S
Eu924 N955 2.657 . S
Eu924 N962 2.609 . S
Eu924 O968 2.558 . S
Eu924 O969 2.612 1_455 S
Eu924 O971 2.339 1_455 S
Eu924 O972 2.563 1_455 S
Eu924 O973 2.419 . S
Eu924 O975 2.380 . S
Eu924 O976 2.432 . S
Eu924 C988 2.848 . S
C925 C928 1.429 . S
C925 C929 1.411 . S
C925 N932 1.377 . S
C926 C928 1.420 . S
C926 C930 1.423 . S
C926 C938 1.392 . S
C927 C929 1.420 . S
C927 C930 1.351 . S
C927 H950 0.931 . S
C928 C925 1.429 . S
C928 C926 1.420 . S
C928 N936 1.362 . S
C929 C925 1.411 . S
C929 C927 1.420 . S
C929 C934 1.395 . S
C930 C926 1.423 . S
C930 C927 1.351 . S
C930 H942 0.930 . S
C931 C933 1.400 . S
C931 C934 1.386 . S
C931 H943 0.930 . S
N932 C925 1.377 . S
N932 C933 1.321 . S
N932 Eu935 2.609 . S
C933 C931 1.400 . S
C933 N932 1.321 . S
C933 H940 0.930 . S
C934 C929 1.395 . S
C934 C931 1.386 . S
C934 H953 0.930 . S
Eu935 N932 2.609 . S
Eu935 N936 2.657 . S
Eu935 O969 2.380 . S
Eu935 O970 2.432 . S
Eu935 O974 2.558 . S
Eu935 O975 2.612 1_655 S
Eu935 O977 2.339 1_655 S
Eu935 O978 2.563 1_655 S
Eu935 O979 2.419 . S
Eu935 C999 2.848 . S
N936 C928 1.362 . S
N936 Eu935 2.657 . S
N936 C937 1.334 . S
C937 N936 1.334 . S
C937 C939 1.413 . S
C937 H944 0.929 . S
C938 C926 1.392 . S
C938 C939 1.367 . S
C938 H946 0.930 . S
C939 C937 1.413 . S
C939 C938 1.367 . S
C939 H941 0.930 . S
H940 C933 0.930 . S
H941 C939 0.930 . S
H942 C930 0.930 . S
H943 C931 0.930 . S
H944 C937 0.929 . S
H945 C959 0.930 . S
H946 C938 0.930 . S
H947 C965 0.930 . S
H948 C956 0.929 . S
H949 C963 0.930 . S
H950 C927 0.931 . S
H951 C957 0.930 . S
H952 C990 0.930 . S
H953 C934 0.930 . S
H954 C989 0.931 . S
N955 Eu924 2.657 . S
N955 C956 1.334 . S
N955 C960 1.362 . S
C956 H948 0.929 . S
C956 N955 1.334 . S
C956 C959 1.413 . S
C957 H951 0.930 . S
C957 C958 1.392 . S
C957 C959 1.367 . S
C958 C957 1.392 . S
C958 C960 1.420 . S
C958 C990 1.423 . S
C959 H945 0.930 . S
C959 C956 1.413 . S
C959 C957 1.367 . S
C960 N955 1.362 . S
C960 C958 1.420 . S
C960 C964 1.429 . S
H961 C966 0.930 . S
N962 Eu924 2.609 . S
N962 C964 1.377 . S
N962 C965 1.321 . S
C963 H949 0.930 . S
C963 C965 1.400 . S
C963 C966 1.386 . S
C964 C960 1.429 . S
C964 N962 1.377 . S
C964 C967 1.411 . S
C965 H947 0.930 . S
C965 N962 1.321 . S
C965 C963 1.400 . S
C966 H961 0.930 . S
C966 C963 1.386 . S
C966 C967 1.395 . S
C967 C964 1.411 . S
C967 C966 1.395 . S
C967 C989 1.420 . S
O968 Eu924 2.558 . S
O968 C988 1.257 . S
O969 Eu924 2.612 1_655 S
O969 Eu935 2.380 . S
O969 C980 1.276 . S
O970 Eu935 2.432 . S
O970 C987 1.264 . S
O971 Eu924 2.339 1_655 S
O971 C987 1.254 . S
O972 Eu924 2.563 1_655 S
O972 C980 1.235 . S
O973 Eu924 2.419 . S
O973 C988 1.249 . S
O974 Eu935 2.558 . S
O974 C999 1.257 . S
O975 Eu924 2.380 . S
O975 Eu935 2.612 1_455 S
O975 C991 1.276 . S
O976 Eu924 2.432 . S
O976 C998 1.264 . S
O977 Eu935 2.339 1_455 S
O977 C998 1.254 . S
O978 Eu935 2.563 1_455 S
O978 C991 1.235 . S
O979 Eu935 2.419 . S
O979 C999 1.249 . S
C980 O969 1.276 . S
C980 O972 1.235 . S
C981 C983 1.393 1_455 S
C981 C985 1.395 . S
C981 C988 1.492 . S
C982 C983 1.392 . S
C982 C984 1.386 1_655 S
C983 C981 1.393 1_655 S
C983 C982 1.392 . S
C983 H1000 0.930 . S
C984 C982 1.386 1_455 S
C984 C986 1.395 . S
C984 H1001 0.930 . S
C985 C981 1.395 . S
C985 C986 1.379 . S
C985 H1002 0.930 . S
C986 C984 1.395 . S
C986 C985 1.379 . S
C986 H1003 0.930 . S
C987 O970 1.264 . S
C987 O971 1.254 . S
C988 Eu924 2.848 . S
C988 O968 1.257 . S
C988 O973 1.249 . S
C988 C981 1.492 . S
C989 H954 0.931 . S
C989 C967 1.420 . S
C989 C990 1.351 . S
C990 H952 0.930 . S
C990 C958 1.423 . S
C990 C989 1.351 . S
C991 O975 1.276 . S
C991 O978 1.235 . S
C992 C993 1.393 1_655 S
C992 C996 1.395 . S
C992 C999 1.492 . S
C993 C992 1.393 1_455 S
C993 C994 1.392 . S
C993 H1004 0.930 . S
C994 C993 1.392 . S
C994 C995 1.386 1_455 S
C995 C994 1.386 1_655 S
C995 C997 1.395 . S
C995 H1005 0.930 . S
C996 C992 1.395 . S
C996 C997 1.379 . S
C996 H1006 0.930 . S
C997 C995 1.395 . S
C997 C996 1.379 . S
C997 H1007 0.930 . S
C998 O976 1.264 . S
C998 O977 1.254 . S
C999 Eu935 2.848 . S
C999 O974 1.257 . S
C999 O979 1.249 . S
C999 C992 1.492 . S
H1000 C983 0.930 . S
H1001 C984 0.930 . S
H1002 C985 0.930 . S
H1003 C986 0.930 . S
H1004 C993 0.930 . S
H1005 C995 0.930 . S
H1006 C996 0.930 . S
H1007 C997 0.930 . S
Eu1008 N1039 2.657 . S
Eu1008 N1046 2.609 . S
Eu1008 O1052 2.558 . S
Eu1008 O1053 2.612 . S
Eu1008 O1055 2.339 . S
Eu1008 O1056 2.563 . S
Eu1008 O1057 2.419 . S
Eu1008 O1059 2.380 . S
Eu1008 O1060 2.432 . S
Eu1008 C1072 2.848 . S
C1009 C1012 1.429 . S
C1009 C1013 1.411 . S
C1009 N1016 1.377 . S
C1010 C1012 1.420 . S
C1010 C1014 1.423 . S
C1010 C1022 1.392 . S
C1011 C1013 1.420 . S
C1011 C1014 1.351 . S
C1011 H1034 0.931 . S
C1012 C1009 1.429 . S
C1012 C1010 1.420 . S
C1012 N1020 1.362 . S
C1013 C1009 1.411 . S
C1013 C1011 1.420 . S
C1013 C1018 1.395 . S
C1014 C1010 1.423 . S
C1014 C1011 1.351 . S
C1014 H1026 0.930 . S
C1015 C1017 1.400 . S
C1015 C1018 1.386 . S
C1015 H1027 0.930 . S
N1016 C1009 1.377 . S
N1016 C1017 1.321 . S
N1016 Eu1019 2.609 . S
C1017 C1015 1.400 . S
C1017 N1016 1.321 . S
C1017 H1024 0.930 . S
C1018 C1013 1.395 . S
C1018 C1015 1.386 . S
C1018 H1037 0.930 . S
Eu1019 N1016 2.609 . S
Eu1019 N1020 2.657 . S
Eu1019 O1053 2.380 . S
Eu1019 O1054 2.432 . S
Eu1019 O1058 2.558 . S
Eu1019 O1059 2.612 . S
Eu1019 O1061 2.339 . S
Eu1019 O1062 2.563 . S
Eu1019 O1063 2.419 . S
Eu1019 C1083 2.848 . S
N1020 C1012 1.362 . S
N1020 Eu1019 2.657 . S
N1020 C1021 1.334 . S
C1021 N1020 1.334 . S
C1021 C1023 1.413 . S
C1021 H1028 0.929 . S
C1022 C1010 1.392 . S
C1022 C1023 1.367 . S
C1022 H1030 0.930 . S
C1023 C1021 1.413 . S
C1023 C1022 1.367 . S
C1023 H1025 0.930 . S
H1024 C1017 0.930 . S
H1025 C1023 0.930 . S
H1026 C1014 0.930 . S
H1027 C1015 0.930 . S
H1028 C1021 0.929 . S
H1029 C1043 0.930 . S
H1030 C1022 0.930 . S
H1031 C1049 0.930 . S
H1032 C1040 0.929 . S
H1033 C1047 0.930 . S
H1034 C1011 0.931 . S
H1035 C1041 0.930 . S
H1036 C1074 0.930 . S
H1037 C1018 0.930 . S
H1038 C1073 0.931 . S
N1039 Eu1008 2.657 . S
N1039 C1040 1.334 . S
N1039 C1044 1.362 . S
C1040 H1032 0.929 . S
C1040 N1039 1.334 . S
C1040 C1043 1.413 . S
C1041 H1035 0.930 . S
C1041 C1042 1.392 . S
C1041 C1043 1.367 . S
C1042 C1041 1.392 . S
C1042 C1044 1.420 . S
C1042 C1074 1.423 . S
C1043 H1029 0.930 . S
C1043 C1040 1.413 . S
C1043 C1041 1.367 . S
C1044 N1039 1.362 . S
C1044 C1042 1.420 . S
C1044 C1048 1.429 . S
H1045 C1050 0.930 . S
N1046 Eu1008 2.609 . S
N1046 C1048 1.377 . S
N1046 C1049 1.321 . S
C1047 H1033 0.930 . S
C1047 C1049 1.400 . S
C1047 C1050 1.386 . S
C1048 C1044 1.429 . S
C1048 N1046 1.377 . S
C1048 C1051 1.411 . S
C1049 H1031 0.930 . S
C1049 N1046 1.321 . S
C1049 C1047 1.400 . S
C1050 H1045 0.930 . S
C1050 C1047 1.386 . S
C1050 C1051 1.395 . S
C1051 C1048 1.411 . S
C1051 C1050 1.395 . S
C1051 C1073 1.420 . S
O1052 Eu1008 2.558 . S
O1052 C1072 1.257 . S
O1053 Eu1008 2.612 . S
O1053 Eu1019 2.380 . S
O1053 C1064 1.276 . S
O1054 Eu1019 2.432 . S
O1054 C1071 1.264 . S
O1055 Eu1008 2.339 . S
O1055 C1071 1.254 . S
O1056 Eu1008 2.563 . S
O1056 C1064 1.235 . S
O1057 Eu1008 2.419 . S
O1057 C1072 1.249 . S
O1058 Eu1019 2.558 . S
O1058 C1083 1.257 . S
O1059 Eu1008 2.380 . S
O1059 Eu1019 2.612 . S
O1059 C1075 1.276 . S
O1060 Eu1008 2.432 . S
O1060 C1082 1.264 . S
O1061 Eu1019 2.339 . S
O1061 C1082 1.254 . S
O1062 Eu1019 2.563 . S
O1062 C1075 1.235 . S
O1063 Eu1019 2.419 . S
O1063 C1083 1.249 . S
C1064 O1053 1.276 . S
C1064 O1056 1.235 . S
C1065 C1067 1.393 . S
C1065 C1069 1.395 . S
C1065 C1072 1.492 . S
C1066 C1067 1.392 . S
C1066 C1068 1.386 . S
C1067 C1065 1.393 . S
C1067 C1066 1.392 . S
C1067 H1084 0.930 . S
C1068 C1066 1.386 . S
C1068 C1070 1.395 . S
C1068 H1085 0.930 . S
C1069 C1065 1.395 . S
C1069 C1070 1.379 . S
C1069 H1086 0.930 . S
C1070 C1068 1.395 . S
C1070 C1069 1.379 . S
C1070 H1087 0.930 . S
C1071 O1054 1.264 . S
C1071 O1055 1.254 . S
C1072 Eu1008 2.848 . S
C1072 O1052 1.257 . S
C1072 O1057 1.249 . S
C1072 C1065 1.492 . S
C1073 H1038 0.931 . S
C1073 C1051 1.420 . S
C1073 C1074 1.351 . S
C1074 H1036 0.930 . S
C1074 C1042 1.423 . S
C1074 C1073 1.351 . S
C1075 O1059 1.276 . S
C1075 O1062 1.235 . S
C1076 C1077 1.393 . S
C1076 C1080 1.395 . S
C1076 C1083 1.492 . S
C1077 C1076 1.393 . S
C1077 C1078 1.392 . S
C1077 H1088 0.930 . S
C1078 C1077 1.392 . S
C1078 C1079 1.386 . S
C1079 C1078 1.386 . S
C1079 C1081 1.395 . S
C1079 H1089 0.930 . S
C1080 C1076 1.395 . S
C1080 C1081 1.379 . S
C1080 H1090 0.930 . S
C1081 C1079 1.395 . S
C1081 C1080 1.379 . S
C1081 H1091 0.930 . S
C1082 O1060 1.264 . S
C1082 O1061 1.254 . S
C1083 Eu1019 2.848 . S
C1083 O1058 1.257 . S
C1083 O1063 1.249 . S
C1083 C1076 1.492 . S
H1084 C1067 0.930 . S
H1085 C1068 0.930 . S
H1086 C1069 0.930 . S
H1087 C1070 0.930 . S
H1088 C1077 0.930 . S
H1089 C1079 0.930 . S
H1090 C1080 0.930 . S
H1091 C1081 0.930 . S
Eu1092 N1123 2.657 . S
Eu1092 N1130 2.609 . S
Eu1092 O1136 2.558 . S
Eu1092 O1137 2.612 1_556 S
Eu1092 O1139 2.339 1_556 S
Eu1092 O1140 2.563 1_556 S
Eu1092 O1141 2.419 . S
Eu1092 O1143 2.380 . S
Eu1092 O1144 2.432 . S
Eu1092 C1156 2.848 . S
C1093 C1096 1.429 . S
C1093 C1097 1.411 . S
C1093 N1100 1.377 . S
C1094 C1096 1.420 . S
C1094 C1098 1.423 . S
C1094 C1106 1.392 . S
C1095 C1097 1.420 . S
C1095 C1098 1.351 . S
C1095 H1118 0.931 . S
C1096 C1093 1.429 . S
C1096 C1094 1.420 . S
C1096 N1104 1.362 . S
C1097 C1093 1.411 . S
C1097 C1095 1.420 . S
C1097 C1102 1.395 . S
C1098 C1094 1.423 . S
C1098 C1095 1.351 . S
C1098 H1110 0.930 . S
C1099 C1101 1.400 . S
C1099 C1102 1.386 . S
C1099 H1111 0.930 . S
N1100 C1093 1.377 . S
N1100 C1101 1.321 . S
N1100 Eu1103 2.609 . S
C1101 C1099 1.400 . S
C1101 N1100 1.321 . S
C1101 H1108 0.930 . S
C1102 C1097 1.395 . S
C1102 C1099 1.386 . S
C1102 H1121 0.930 . S
Eu1103 N1100 2.609 . S
Eu1103 N1104 2.657 . S
Eu1103 O1137 2.380 . S
Eu1103 O1138 2.432 . S
Eu1103 O1142 2.558 . S
Eu1103 O1143 2.612 1_554 S
Eu1103 O1145 2.339 1_554 S
Eu1103 O1146 2.563 1_554 S
Eu1103 O1147 2.419 . S
Eu1103 C1167 2.848 . S
N1104 C1096 1.362 . S
N1104 Eu1103 2.657 . S
N1104 C1105 1.334 . S
C1105 N1104 1.334 . S
C1105 C1107 1.413 . S
C1105 H1112 0.929 . S
C1106 C1094 1.392 . S
C1106 C1107 1.367 . S
C1106 H1114 0.930 . S
C1107 C1105 1.413 . S
C1107 C1106 1.367 . S
C1107 H1109 0.930 . S
H1108 C1101 0.930 . S
H1109 C1107 0.930 . S
H1110 C1098 0.930 . S
H1111 C1099 0.930 . S
H1112 C1105 0.929 . S
H1113 C1127 0.930 . S
H1114 C1106 0.930 . S
H1115 C1133 0.930 . S
H1116 C1124 0.929 . S
H1117 C1131 0.930 . S
H1118 C1095 0.931 . S
H1119 C1125 0.930 . S
H1120 C1158 0.930 . S
H1121 C1102 0.930 . S
H1122 C1157 0.931 . S
N1123 Eu1092 2.657 . S
N1123 C1124 1.334 . S
N1123 C1128 1.362 . S
C1124 H1116 0.929 . S
C1124 N1123 1.334 . S
C1124 C1127 1.413 . S
C1125 H1119 0.930 . S
C1125 C1126 1.392 . S
C1125 C1127 1.367 . S
C1126 C1125 1.392 . S
C1126 C1128 1.420 . S
C1126 C1158 1.423 . S
C1127 H1113 0.930 . S
C1127 C1124 1.413 . S
C1127 C1125 1.367 . S
C1128 N1123 1.362 . S
C1128 C1126 1.420 . S
C1128 C1132 1.429 . S
H1129 C1134 0.930 . S
N1130 Eu1092 2.609 . S
N1130 C1132 1.377 . S
N1130 C1133 1.321 . S
C1131 H1117 0.930 . S
C1131 C1133 1.400 . S
C1131 C1134 1.386 . S
C1132 C1128 1.429 . S
C1132 N1130 1.377 . S
C1132 C1135 1.411 . S
C1133 H1115 0.930 . S
C1133 N1130 1.321 . S
C1133 C1131 1.400 . S
C1134 H1129 0.930 . S
C1134 C1131 1.386 . S
C1134 C1135 1.395 . S
C1135 C1132 1.411 . S
C1135 C1134 1.395 . S
C1135 C1157 1.420 . S
O1136 Eu1092 2.558 . S
O1136 C1156 1.257 . S
O1137 Eu1092 2.612 1_554 S
O1137 Eu1103 2.380 . S
O1137 C1148 1.276 . S
O1138 Eu1103 2.432 . S
O1138 C1155 1.264 . S
O1139 Eu1092 2.339 1_554 S
O1139 C1155 1.254 . S
O1140 Eu1092 2.563 1_554 S
O1140 C1148 1.235 . S
O1141 Eu1092 2.419 . S
O1141 C1156 1.249 . S
O1142 Eu1103 2.558 . S
O1142 C1167 1.257 . S
O1143 Eu1092 2.380 . S
O1143 Eu1103 2.612 1_556 S
O1143 C1159 1.276 . S
O1144 Eu1092 2.432 . S
O1144 C1166 1.264 . S
O1145 Eu1103 2.339 1_556 S
O1145 C1166 1.254 . S
O1146 Eu1103 2.563 1_556 S
O1146 C1159 1.235 . S
O1147 Eu1103 2.419 . S
O1147 C1167 1.249 . S
C1148 O1137 1.276 . S
C1148 O1140 1.235 . S
C1149 C1151 1.393 . S
C1149 C1153 1.395 . S
C1149 C1156 1.492 . S
C1150 C1151 1.392 . S
C1150 C1152 1.386 . S
C1151 C1149 1.393 . S
C1151 C1150 1.392 . S
C1151 H1168 0.930 . S
C1152 C1150 1.386 . S
C1152 C1154 1.395 . S
C1152 H1169 0.930 . S
C1153 C1149 1.395 . S
C1153 C1154 1.379 . S
C1153 H1170 0.930 . S
C1154 C1152 1.395 . S
C1154 C1153 1.379 . S
C1154 H1171 0.930 . S
C1155 O1138 1.264 . S
C1155 O1139 1.254 . S
C1156 Eu1092 2.848 . S
C1156 O1136 1.257 . S
C1156 O1141 1.249 . S
C1156 C1149 1.492 . S
C1157 H1122 0.931 . S
C1157 C1135 1.420 . S
C1157 C1158 1.351 . S
C1158 H1120 0.930 . S
C1158 C1126 1.423 . S
C1158 C1157 1.351 . S
C1159 O1143 1.276 . S
C1159 O1146 1.235 . S
C1160 C1161 1.393 . S
C1160 C1164 1.395 . S
C1160 C1167 1.492 . S
C1161 C1160 1.393 . S
C1161 C1162 1.392 . S
C1161 H1172 0.930 . S
C1162 C1161 1.392 . S
C1162 C1163 1.386 . S
C1163 C1162 1.386 . S
C1163 C1165 1.395 . S
C1163 H1173 0.930 . S
C1164 C1160 1.395 . S
C1164 C1165 1.379 . S
C1164 H1174 0.930 . S
C1165 C1163 1.395 . S
C1165 C1164 1.379 . S
C1165 H1175 0.930 . S
C1166 O1144 1.264 . S
C1166 O1145 1.254 . S
C1167 Eu1103 2.848 . S
C1167 O1142 1.257 . S
C1167 O1147 1.249 . S
C1167 C1160 1.492 . S
H1168 C1151 0.930 . S
H1169 C1152 0.930 . S
H1170 C1153 0.930 . S
H1171 C1154 0.930 . S
H1172 C1161 0.930 . S
H1173 C1163 0.930 . S
H1174 C1164 0.930 . S
H1175 C1165 0.930 . S
Eu1176 N1207 2.657 1_565 S
Eu1176 N1214 2.609 . S
Eu1176 O1220 2.558 . S
Eu1176 O1221 2.612 . S
Eu1176 O1223 2.339 1_565 S
Eu1176 O1224 2.563 . S
Eu1176 O1225 2.419 . S
Eu1176 O1227 2.380 1_565 S
Eu1176 O1228 2.432 . S
Eu1176 C1240 2.848 . S
C1177 C1180 1.429 1_545 S
C1177 C1181 1.411 . S
C1177 N1184 1.377 . S
C1178 C1180 1.420 . S
C1178 C1182 1.423 . S
C1178 C1190 1.392 . S
C1179 C1181 1.420 1_565 S
C1179 C1182 1.351 . S
C1179 H1202 0.931 . S
C1180 C1177 1.429 1_565 S
C1180 C1178 1.420 . S
C1180 N1188 1.362 . S
C1181 C1177 1.411 . S
C1181 C1179 1.420 1_545 S
C1181 C1186 1.395 . S
C1182 C1178 1.423 . S
C1182 C1179 1.351 . S
C1182 H1194 0.930 . S
C1183 C1185 1.400 . S
C1183 C1186 1.386 . S
C1183 H1195 0.930 . S
N1184 C1177 1.377 . S
N1184 C1185 1.321 . S
N1184 Eu1187 2.609 . S
C1185 C1183 1.400 . S
C1185 N1184 1.321 . S
C1185 H1192 0.930 . S
C1186 C1181 1.395 . S
C1186 C1183 1.386 . S
C1186 H1205 0.930 . S
Eu1187 N1184 2.609 . S
Eu1187 N1188 2.657 1_545 S
Eu1187 O1221 2.380 1_545 S
Eu1187 O1222 2.432 . S
Eu1187 O1226 2.558 . S
Eu1187 O1227 2.612 . S
Eu1187 O1229 2.339 1_545 S
Eu1187 O1230 2.563 . S
Eu1187 O1231 2.419 . S
Eu1187 C1251 2.848 . S
N1188 C1180 1.362 . S
N1188 Eu1187 2.657 1_565 S
N1188 C1189 1.334 . S
C1189 N1188 1.334 . S
C1189 C1191 1.413 . S
C1189 H1196 0.929 . S
C1190 C1178 1.392 . S
C1190 C1191 1.367 . S
C1190 H1198 0.930 . S
C1191 C1189 1.413 . S
C1191 C1190 1.367 . S
C1191 H1193 0.930 . S
H1192 C1185 0.930 . S
H1193 C1191 0.930 . S
H1194 C1182 0.930 . S
H1195 C1183 0.930 . S
H1196 C1189 0.929 . S
H1197 C1211 0.930 . S
H1198 C1190 0.930 . S
H1199 C1217 0.930 . S
H1200 C1208 0.929 . S
H1201 C1215 0.930 . S
H1202 C1179 0.931 . S
H1203 C1209 0.930 . S
H1204 C1242 0.930 . S
H1205 C1186 0.930 . S
H1206 C1241 0.931 . S
N1207 Eu1176 2.657 1_545 S
N1207 C1208 1.334 . S
N1207 C1212 1.362 . S
C1208 H1200 0.929 . S
C1208 N1207 1.334 . S
C1208 C1211 1.413 . S
C1209 H1203 0.930 . S
C1209 C1210 1.392 . S
C1209 C1211 1.367 . S
C1210 C1209 1.392 . S
C1210 C1212 1.420 . S
C1210 C1242 1.423 . S
C1211 H1197 0.930 . S
C1211 C1208 1.413 . S
C1211 C1209 1.367 . S
C1212 N1207 1.362 . S
C1212 C1210 1.420 . S
C1212 C1216 1.429 1_545 S
H1213 C1218 0.930 . S
N1214 Eu1176 2.609 . S
N1214 C1216 1.377 . S
N1214 C1217 1.321 . S
C1215 H1201 0.930 . S
C1215 C1217 1.400 . S
C1215 C1218 1.386 . S
C1216 C1212 1.429 1_565 S
C1216 N1214 1.377 . S
C1216 C1219 1.411 . S
C1217 H1199 0.930 . S
C1217 N1214 1.321 . S
C1217 C1215 1.400 . S
C1218 H1213 0.930 . S
C1218 C1215 1.386 . S
C1218 C1219 1.395 . S
C1219 C1216 1.411 . S
C1219 C1218 1.395 . S
C1219 C1241 1.420 1_565 S
O1220 Eu1176 2.558 . S
O1220 C1240 1.257 . S
O1221 Eu1176 2.612 . S
O1221 Eu1187 2.380 1_565 S
O1221 C1232 1.276 . S
O1222 Eu1187 2.432 . S
O1222 C1239 1.264 . S
O1223 Eu1176 2.339 1_545 S
O1223 C1239 1.254 . S
O1224 Eu1176 2.563 . S
O1224 C1232 1.235 . S
O1225 Eu1176 2.419 . S
O1225 C1240 1.249 . S
O1226 Eu1187 2.558 . S
O1226 C1251 1.257 . S
O1227 Eu1176 2.380 1_545 S
O1227 Eu1187 2.612 . S
O1227 C1243 1.276 . S
O1228 Eu1176 2.432 . S
O1228 C1250 1.264 . S
O1229 Eu1187 2.339 1_565 S
O1229 C1250 1.254 . S
O1230 Eu1187 2.563 . S
O1230 C1243 1.235 . S
O1231 Eu1187 2.419 . S
O1231 C1251 1.249 . S
C1232 O1221 1.276 . S
C1232 O1224 1.235 . S
C1233 C1235 1.393 . S
C1233 C1237 1.395 . S
C1233 C1240 1.492 . S
C1234 C1235 1.392 . S
C1234 C1236 1.386 . S
C1235 C1233 1.393 . S
C1235 C1234 1.392 . S
C1235 H1252 0.930 . S
C1236 C1234 1.386 . S
C1236 C1238 1.395 . S
C1236 H1253 0.930 . S
C1237 C1233 1.395 . S
C1237 C1238 1.379 . S
C1237 H1254 0.930 . S
C1238 C1236 1.395 . S
C1238 C1237 1.379 . S
C1238 H1255 0.930 . S
C1239 O1222 1.264 . S
C1239 O1223 1.254 . S
C1240 Eu1176 2.848 . S
C1240 O1220 1.257 . S
C1240 O1225 1.249 . S
C1240 C1233 1.492 . S
C1241 H1206 0.931 . S
C1241 C1219 1.420 1_545 S
C1241 C1242 1.351 . S
C1242 H1204 0.930 . S
C1242 C1210 1.423 . S
C1242 C1241 1.351 . S
C1243 O1227 1.276 . S
C1243 O1230 1.235 . S
C1244 C1245 1.393 . S
C1244 C1248 1.395 . S
C1244 C1251 1.492 . S
C1245 C1244 1.393 . S
C1245 C1246 1.392 . S
C1245 H1256 0.930 . S
C1246 C1245 1.392 . S
C1246 C1247 1.386 . S
C1247 C1246 1.386 . S
C1247 C1249 1.395 . S
C1247 H1257 0.930 . S
C1248 C1244 1.395 . S
C1248 C1249 1.379 . S
C1248 H1258 0.930 . S
C1249 C1247 1.395 . S
C1249 C1248 1.379 . S
C1249 H1259 0.930 . S
C1250 O1228 1.264 . S
C1250 O1229 1.254 . S
C1251 Eu1187 2.848 . S
C1251 O1226 1.257 . S
C1251 O1231 1.249 . S
C1251 C1244 1.492 . S
H1252 C1235 0.930 . S
H1253 C1236 0.930 . S
H1254 C1237 0.930 . S
H1255 C1238 0.930 . S
H1256 C1245 0.930 . S
H1257 C1247 0.930 . S
H1258 C1248 0.930 . S
H1259 C1249 0.930 . S
Eu1260 N1291 2.657 . S
Eu1260 N1298 2.609 . S
Eu1260 O1304 2.558 . S
Eu1260 O1305 2.612 1_554 S
Eu1260 O1307 2.339 1_554 S
Eu1260 O1308 2.563 1_554 S
Eu1260 O1309 2.419 . S
Eu1260 O1311 2.380 . S
Eu1260 O1312 2.432 . S
Eu1260 C1324 2.848 . S
C1261 C1264 1.429 . S
C1261 C1265 1.411 . S
C1261 N1268 1.377 . S
C1262 C1264 1.420 . S
C1262 C1266 1.423 . S
C1262 C1274 1.392 . S
C1263 C1265 1.420 . S
C1263 C1266 1.351 . S
C1263 H1286 0.931 . S
C1264 C1261 1.429 . S
C1264 C1262 1.420 . S
C1264 N1272 1.362 . S
C1265 C1261 1.411 . S
C1265 C1263 1.420 . S
C1265 C1270 1.395 . S
C1266 C1262 1.423 . S
C1266 C1263 1.351 . S
C1266 H1278 0.930 . S
C1267 C1269 1.400 . S
C1267 C1270 1.386 . S
C1267 H1279 0.930 . S
N1268 C1261 1.377 . S
N1268 C1269 1.321 . S
N1268 Eu1271 2.609 . S
C1269 C1267 1.400 . S
C1269 N1268 1.321 . S
C1269 H1276 0.930 . S
C1270 C1265 1.395 . S
C1270 C1267 1.386 . S
C1270 H1289 0.930 . S
Eu1271 N1268 2.609 . S
Eu1271 N1272 2.657 . S
Eu1271 O1305 2.380 . S
Eu1271 O1306 2.432 . S
Eu1271 O1310 2.558 . S
Eu1271 O1311 2.612 1_556 S
Eu1271 O1313 2.339 1_556 S
Eu1271 O1314 2.563 1_556 S
Eu1271 O1315 2.419 . S
Eu1271 C1335 2.848 . S
N1272 C1264 1.362 . S
N1272 Eu1271 2.657 . S
N1272 C1273 1.334 . S
C1273 N1272 1.334 . S
C1273 C1275 1.413 . S
C1273 H1280 0.929 . S
C1274 C1262 1.392 . S
C1274 C1275 1.367 . S
C1274 H1282 0.930 . S
C1275 C1273 1.413 . S
C1275 C1274 1.367 . S
C1275 H1277 0.930 . S
H1276 C1269 0.930 . S
H1277 C1275 0.930 . S
H1278 C1266 0.930 . S
H1279 C1267 0.930 . S
H1280 C1273 0.929 . S
H1281 C1295 0.930 . S
H1282 C1274 0.930 . S
H1283 C1301 0.930 . S
H1284 C1292 0.929 . S
H1285 C1299 0.930 . S
H1286 C1263 0.931 . S
H1287 C1293 0.930 . S
H1288 C1326 0.930 . S
H1289 C1270 0.930 . S
H1290 C1325 0.931 . S
N1291 Eu1260 2.657 . S
N1291 C1292 1.334 . S
N1291 C1296 1.362 . S
C1292 H1284 0.929 . S
C1292 N1291 1.334 . S
C1292 C1295 1.413 . S
C1293 H1287 0.930 . S
C1293 C1294 1.392 . S
C1293 C1295 1.367 . S
C1294 C1293 1.392 . S
C1294 C1296 1.420 . S
C1294 C1326 1.423 . S
C1295 H1281 0.930 . S
C1295 C1292 1.413 . S
C1295 C1293 1.367 . S
C1296 N1291 1.362 . S
C1296 C1294 1.420 . S
C1296 C1300 1.429 . S
H1297 C1302 0.930 . S
N1298 Eu1260 2.609 . S
N1298 C1300 1.377 . S
N1298 C1301 1.321 . S
C1299 H1285 0.930 . S
C1299 C1301 1.400 . S
C1299 C1302 1.386 . S
C1300 C1296 1.429 . S
C1300 N1298 1.377 . S
C1300 C1303 1.411 . S
C1301 H1283 0.930 . S
C1301 N1298 1.321 . S
C1301 C1299 1.400 . S
C1302 H1297 0.930 . S
C1302 C1299 1.386 . S
C1302 C1303 1.395 . S
C1303 C1300 1.411 . S
C1303 C1302 1.395 . S
C1303 C1325 1.420 . S
O1304 Eu1260 2.558 . S
O1304 C1324 1.257 . S
O1305 Eu1260 2.612 1_556 S
O1305 Eu1271 2.380 . S
O1305 C1316 1.276 . S
O1306 Eu1271 2.432 . S
O1306 C1323 1.264 . S
O1307 Eu1260 2.339 1_556 S
O1307 C1323 1.254 . S
O1308 Eu1260 2.563 1_556 S
O1308 C1316 1.235 . S
O1309 Eu1260 2.419 . S
O1309 C1324 1.249 . S
O1310 Eu1271 2.558 . S
O1310 C1335 1.257 . S
O1311 Eu1260 2.380 . S
O1311 Eu1271 2.612 1_554 S
O1311 C1327 1.276 . S
O1312 Eu1260 2.432 . S
O1312 C1334 1.264 . S
O1313 Eu1271 2.339 1_554 S
O1313 C1334 1.254 . S
O1314 Eu1271 2.563 1_554 S
O1314 C1327 1.235 . S
O1315 Eu1271 2.419 . S
O1315 C1335 1.249 . S
C1316 O1305 1.276 . S
C1316 O1308 1.235 . S
C1317 C1319 1.393 . S
C1317 C1321 1.395 . S
C1317 C1324 1.492 . S
C1318 C1319 1.392 . S
C1318 C1320 1.386 . S
C1319 C1317 1.393 . S
C1319 C1318 1.392 . S
C1319 H1336 0.930 . S
C1320 C1318 1.386 . S
C1320 C1322 1.395 . S
C1320 H1337 0.930 . S
C1321 C1317 1.395 . S
C1321 C1322 1.379 . S
C1321 H1338 0.930 . S
C1322 C1320 1.395 . S
C1322 C1321 1.379 . S
C1322 H1339 0.930 . S
C1323 O1306 1.264 . S
C1323 O1307 1.254 . S
C1324 Eu1260 2.848 . S
C1324 O1304 1.257 . S
C1324 O1309 1.249 . S
C1324 C1317 1.492 . S
C1325 H1290 0.931 . S
C1325 C1303 1.420 . S
C1325 C1326 1.351 . S
C1326 H1288 0.930 . S
C1326 C1294 1.423 . S
C1326 C1325 1.351 . S
C1327 O1311 1.276 . S
C1327 O1314 1.235 . S
C1328 C1329 1.393 . S
C1328 C1332 1.395 . S
C1328 C1335 1.492 . S
C1329 C1328 1.393 . S
C1329 C1330 1.392 . S
C1329 H1340 0.930 . S
C1330 C1329 1.392 . S
C1330 C1331 1.386 . S
C1331 C1330 1.386 . S
C1331 C1333 1.395 . S
C1331 H1341 0.930 . S
C1332 C1328 1.395 . S
C1332 C1333 1.379 . S
C1332 H1342 0.930 . S
C1333 C1331 1.395 . S
C1333 C1332 1.379 . S
C1333 H1343 0.930 . S
C1334 O1312 1.264 . S
C1334 O1313 1.254 . S
C1335 Eu1271 2.848 . S
C1335 O1310 1.257 . S
C1335 O1315 1.249 . S
C1335 C1328 1.492 . S
H1336 C1319 0.930 . S
H1337 C1320 0.930 . S
H1338 C1321 0.930 . S
H1339 C1322 0.930 . S
H1340 C1329 0.930 . S
H1341 C1331 0.930 . S
H1342 C1332 0.930 . S
H1343 C1333 0.930 . S
H1344 C1350 0.930 . S
H1345 C1353 0.930 . S
H1346 C1354 0.930 . S
H1347 C1355 0.930 1_655 S
H1348 C1358 0.930 . S
H1349 C1359 0.930 . S
C1350 H1344 0.930 . S
C1350 C1351 1.355 1_455 S
C1350 C1352 1.415 . S
C1351 C1350 1.355 1_655 S
C1351 C1353 1.419 . S
C1352 C1350 1.415 . S
C1352 C1357 1.425 1_455 S
C1352 C1359 1.409 . S
C1353 H1345 0.930 . S
C1353 C1351 1.419 . S
C1353 C1354 1.362 . S
C1354 H1346 0.930 . S
C1354 C1353 1.362 . S
C1354 C1357 1.409 . S
C1355 H1347 0.930 1_455 S
C1355 C1356 1.355 . S
C1355 C1357 1.415 1_455 S
C1356 C1355 1.355 . S
C1356 C1358 1.419 . S
C1357 C1352 1.425 1_655 S
C1357 C1354 1.409 . S
C1357 C1355 1.415 1_655 S
C1358 H1348 0.930 . S
C1358 C1356 1.419 . S
C1358 C1359 1.362 . S
C1359 H1349 0.930 . S
C1359 C1352 1.409 . S
C1359 C1358 1.362 . S
H1360 C1366 0.930 . S
H1361 C1369 0.930 . S
H1362 C1370 0.930 . S
H1363 C1371 0.930 . S
H1364 C1374 0.930 . S
H1365 C1375 0.930 . S
C1366 H1360 0.930 . S
C1366 C1367 1.355 . S
C1366 C1368 1.415 . S
C1367 C1366 1.355 . S
C1367 C1369 1.419 . S
C1368 C1366 1.415 . S
C1368 C1373 1.425 . S
C1368 C1375 1.409 . S
C1369 H1361 0.930 . S
C1369 C1367 1.419 . S
C1369 C1370 1.362 . S
C1370 H1362 0.930 . S
C1370 C1369 1.362 . S
C1370 C1373 1.409 . S
C1371 H1363 0.930 . S
C1371 C1372 1.355 . S
C1371 C1373 1.415 . S
C1372 C1371 1.355 . S
C1372 C1374 1.419 . S
C1373 C1368 1.425 . S
C1373 C1370 1.409 . S
C1373 C1371 1.415 . S
C1374 H1364 0.930 . S
C1374 C1372 1.419 . S
C1374 C1375 1.362 . S
C1375 H1365 0.930 . S
C1375 C1368 1.409 . S
C1375 C1374 1.362 . S
H1376 C1382 0.930 . S
H1377 C1385 0.930 . S
H1378 C1386 0.930 . S
H1379 C1387 0.930 . S
H1380 C1390 0.930 . S
H1381 C1391 0.930 . S
C1382 H1376 0.930 . S
C1382 C1383 1.355 . S
C1382 C1384 1.415 . S
C1383 C1382 1.355 . S
C1383 C1385 1.419 . S
C1384 C1382 1.415 . S
C1384 C1389 1.425 . S
C1384 C1391 1.409 . S
C1385 H1377 0.930 . S
C1385 C1383 1.419 . S
C1385 C1386 1.362 . S
C1386 H1378 0.930 . S
C1386 C1385 1.362 . S
C1386 C1389 1.409 . S
C1387 H1379 0.930 . S
C1387 C1388 1.355 . S
C1387 C1389 1.415 . S
C1388 C1387 1.355 . S
C1388 C1390 1.419 . S
C1389 C1384 1.425 . S
C1389 C1386 1.409 . S
C1389 C1387 1.415 . S
C1390 H1380 0.930 . S
C1390 C1388 1.419 . S
C1390 C1391 1.362 . S
C1391 H1381 0.930 . S
C1391 C1384 1.409 . S
C1391 C1390 1.362 . S
H1392 C1398 0.930 . S
H1393 C1401 0.930 . S
H1394 C1402 0.930 . S
H1395 C1403 0.930 . S
H1396 C1406 0.930 . S
H1397 C1407 0.930 . S
C1398 H1392 0.930 . S
C1398 C1399 1.355 . S
C1398 C1400 1.415 . S
C1399 C1398 1.355 . S
C1399 C1401 1.419 1_545 S
C1400 C1398 1.415 . S
C1400 C1405 1.425 1_545 S
C1400 C1407 1.409 . S
C1401 H1393 0.930 . S
C1401 C1399 1.419 1_565 S
C1401 C1402 1.362 . S
C1402 H1394 0.930 . S
C1402 C1401 1.362 . S
C1402 C1405 1.409 . S
C1403 H1395 0.930 . S
C1403 C1404 1.355 . S
C1403 C1405 1.415 . S
C1404 C1403 1.355 . S
C1404 C1406 1.419 1_565 S
C1405 C1400 1.425 1_565 S
C1405 C1402 1.409 . S
C1405 C1403 1.415 . S
C1406 H1396 0.930 . S
C1406 C1404 1.419 1_545 S
C1406 C1407 1.362 . S
C1407 H1397 0.930 . S
C1407 C1400 1.409 . S
C1407 C1406 1.362 . S
H1408 C1414 0.930 . S
H1409 C1417 0.930 . S
H1410 C1418 0.930 . S
H1411 C1419 0.930 1_565 S
H1412 C1422 0.930 . S
H1413 C1423 0.930 . S
C1414 H1408 0.930 . S
C1414 C1415 1.355 1_545 S
C1414 C1416 1.415 . S
C1415 C1414 1.355 1_565 S
C1415 C1417 1.419 . S
C1416 C1414 1.415 . S
C1416 C1421 1.425 1_545 S
C1416 C1423 1.409 . S
C1417 H1409 0.930 . S
C1417 C1415 1.419 . S
C1417 C1418 1.362 . S
C1418 H1410 0.930 . S
C1418 C1417 1.362 . S
C1418 C1421 1.409 . S
C1419 H1411 0.930 1_545 S
C1419 C1420 1.355 . S
C1419 C1421 1.415 1_545 S
C1420 C1419 1.355 . S
C1420 C1422 1.419 . S
C1421 C1416 1.425 1_565 S
C1421 C1418 1.409 . S
C1421 C1419 1.415 1_565 S
C1422 H1412 0.930 . S
C1422 C1420 1.419 . S
C1422 C1423 1.362 . S
C1423 H1413 0.930 . S
C1423 C1416 1.409 . S
C1423 C1422 1.362 . S
H1424 C1430 0.930 . S
H1425 C1433 0.930 . S
H1426 C1434 0.930 . S
H1427 C1435 0.930 . S
H1428 C1438 0.930 . S
H1429 C1439 0.930 . S
C1430 H1424 0.930 . S
C1430 C1431 1.355 . S
C1430 C1432 1.415 . S
C1431 C1430 1.355 . S
C1431 C1433 1.419 1_455 S
C1432 C1430 1.415 . S
C1432 C1437 1.425 1_455 S
C1432 C1439 1.409 . S
C1433 H1425 0.930 . S
C1433 C1431 1.419 1_655 S
C1433 C1434 1.362 . S
C1434 H1426 0.930 . S
C1434 C1433 1.362 . S
C1434 C1437 1.409 . S
C1435 H1427 0.930 . S
C1435 C1436 1.355 . S
C1435 C1437 1.415 . S
C1436 C1435 1.355 . S
C1436 C1438 1.398 1_655 S
C1437 C1432 1.425 1_655 S
C1437 C1434 1.409 . S
C1437 C1435 1.415 . S
C1438 H1428 0.930 . S
C1438 C1436 1.398 1_455 S
C1438 C1439 1.384 . S
C1439 H1429 0.930 . S
C1439 C1432 1.409 . S
C1439 C1438 1.384 . S
H1440 C1446 0.930 . S
H1441 C1449 0.930 . S
H1442 C1450 0.930 . S
H1443 C1451 0.930 . S
H1444 C1454 0.930 . S
H1445 C1455 0.930 . S
C1446 H1440 0.930 . S
C1446 C1447 1.355 . S
C1446 C1448 1.415 . S
C1447 C1446 1.355 . S
C1447 C1449 1.419 . S
C1448 C1446 1.415 . S
C1448 C1453 1.425 . S
C1448 C1455 1.409 . S
C1449 H1441 0.930 . S
C1449 C1447 1.419 . S
C1449 C1450 1.362 . S
C1450 H1442 0.930 . S
C1450 C1449 1.362 . S
C1450 C1453 1.409 . S
C1451 H1443 0.930 . S
C1451 C1452 1.355 . S
C1451 C1453 1.415 . S
C1452 C1451 1.355 . S
C1452 C1454 1.419 . S
C1453 C1448 1.425 . S
C1453 C1450 1.409 . S
C1453 C1451 1.415 . S
C1454 H1444 0.930 . S
C1454 C1452 1.419 . S
C1454 C1455 1.362 . S
C1455 H1445 0.930 . S
C1455 C1448 1.409 . S
C1455 C1454 1.362 . S
H1456 C1462 0.930 . S
H1457 C1465 0.930 . S
H1458 C1466 0.930 . S
H1459 C1467 0.930 . S
H1460 C1470 0.930 . S
H1461 C1471 0.930 . S
C1462 H1456 0.930 . S
C1462 C1463 1.355 . S
C1462 C1464 1.415 . S
C1463 C1462 1.355 . S
C1463 C1465 1.419 . S
C1464 C1462 1.415 . S
C1464 C1469 1.425 . S
C1464 C1471 1.409 . S
C1465 H1457 0.930 . S
C1465 C1463 1.419 . S
C1465 C1466 1.362 . S
C1466 H1458 0.930 . S
C1466 C1465 1.362 . S
C1466 C1469 1.409 . S
C1467 H1459 0.930 . S
C1467 C1468 1.355 . S
C1467 C1469 1.415 . S
C1468 C1467 1.355 . S
C1468 C1470 1.419 . S
C1469 C1464 1.425 . S
C1469 C1466 1.409 . S
C1469 C1467 1.415 . S
C1470 H1460 0.930 . S
C1470 C1468 1.419 . S
C1470 C1471 1.362 . S
C1471 H1461 0.930 . S
C1471 C1464 1.409 . S
C1471 C1470 1.362 . S
H1472 C1478 0.930 . S
H1473 C1481 0.930 . S
H1474 C1482 0.930 . S
H1475 C1483 0.930 . S
H1476 C1486 0.930 . S
H1477 C1487 0.930 . S
C1478 H1472 0.930 . S
C1478 C1479 1.355 . S
C1478 C1480 1.415 . S
C1479 C1478 1.355 . S
C1479 C1481 1.419 . S
C1480 C1478 1.415 . S
C1480 C1485 1.425 . S
C1480 C1487 1.409 . S
C1481 H1473 0.930 . S
C1481 C1479 1.419 . S
C1481 C1482 1.362 . S
C1482 H1474 0.930 . S
C1482 C1481 1.362 . S
C1482 C1485 1.409 . S
C1483 H1475 0.930 . S
C1483 C1484 1.355 . S
C1483 C1485 1.415 . S
C1484 C1483 1.355 . S
C1484 C1486 1.419 . S
C1485 C1480 1.425 . S
C1485 C1482 1.409 . S
C1485 C1483 1.415 . S
C1486 H1476 0.930 . S
C1486 C1484 1.419 . S
C1486 C1487 1.362 . S
C1487 H1477 0.930 . S
C1487 C1480 1.409 . S
C1487 C1486 1.362 . S
H1488 C1494 0.930 . S
H1489 C1497 0.930 . S
H1490 C1498 0.930 . S
H1491 C1499 0.930 . S
H1492 C1502 0.930 . S
H1493 C1503 0.930 . S
C1494 H1488 0.930 . S
C1494 C1495 1.355 . S
C1494 C1496 1.415 . S
C1495 C1494 1.355 . S
C1495 C1497 1.419 . S
C1496 C1494 1.415 . S
C1496 C1501 1.425 . S
C1496 C1503 1.409 . S
C1497 H1489 0.930 . S
C1497 C1495 1.419 . S
C1497 C1498 1.362 . S
C1498 H1490 0.930 . S
C1498 C1497 1.362 . S
C1498 C1501 1.409 . S
C1499 H1491 0.930 . S
C1499 C1500 1.355 . S
C1499 C1501 1.415 . S
C1500 C1499 1.355 . S
C1500 C1502 1.419 . S
C1501 C1496 1.425 . S
C1501 C1498 1.409 . S
C1501 C1499 1.415 . S
C1502 H1492 0.930 . S
C1502 C1500 1.419 . S
C1502 C1503 1.362 . S
C1503 H1493 0.930 . S
C1503 C1496 1.409 . S
C1503 C1502 1.362 . S
H1504 C1510 0.931 . S
H1505 C1513 0.930 . S
H1506 C1514 0.930 . S
H1507 C1515 0.930 . S
H1508 C1518 0.930 . S
H1509 C1519 0.930 . S
C1510 H1504 0.931 . S
C1510 C1511 1.330 1_545 S
C1510 C1512 1.439 . S
C1511 C1510 1.330 1_565 S
C1511 C1513 1.419 . S
C1512 C1510 1.439 . S
C1512 C1517 1.425 . S
C1512 C1519 1.409 . S
C1513 H1505 0.930 . S
C1513 C1511 1.419 . S
C1513 C1514 1.362 . S
C1514 H1506 0.930 . S
C1514 C1513 1.362 . S
C1514 C1517 1.409 1_565 S
C1515 H1507 0.930 . S
C1515 C1516 1.355 . S
C1515 C1517 1.415 . S
C1516 C1515 1.355 . S
C1516 C1518 1.419 . S
C1517 C1512 1.425 . S
C1517 C1514 1.409 1_545 S
C1517 C1515 1.415 . S
C1518 H1508 0.930 . S
C1518 C1516 1.419 . S
C1518 C1519 1.362 . S
C1519 H1509 0.930 . S
C1519 C1512 1.409 . S
C1519 C1518 1.362 . S
H1520 C1526 0.930 . S
H1521 C1529 0.930 . S
H1522 C1530 0.930 . S
H1523 C1531 0.930 1_455 S
H1524 C1534 0.930 . S
H1525 C1535 0.930 . S
C1526 H1520 0.930 . S
C1526 C1527 1.355 1_655 S
C1526 C1528 1.415 . S
C1527 C1526 1.355 1_455 S
C1527 C1529 1.419 . S
C1528 C1526 1.415 . S
C1528 C1533 1.428 . S
C1528 C1535 1.409 . S
C1529 H1521 0.930 . S
C1529 C1527 1.419 . S
C1529 C1530 1.362 . S
C1530 H1522 0.930 . S
C1530 C1529 1.362 . S
C1530 C1533 1.400 1_455 S
C1531 H1523 0.930 1_655 S
C1531 C1532 1.355 . S
C1531 C1533 1.422 . S
C1532 C1531 1.355 . S
C1532 C1534 1.419 . S
C1533 C1528 1.428 . S
C1533 C1530 1.400 1_655 S
C1533 C1531 1.422 . S
C1534 H1524 0.930 . S
C1534 C1532 1.419 . S
C1534 C1535 1.362 . S
C1535 H1525 0.930 . S
C1535 C1528 1.409 . S
C1535 C1534 1.362 . S
H1536 C1542 0.930 . S
H1537 C1545 0.930 . S
H1538 C1546 0.930 . S
H1539 C1547 0.930 . S
H1540 C1550 0.940 . S
H1541 C1551 0.930 . S
C1542 H1536 0.930 . S
C1542 C1543 1.355 . S
C1542 C1544 1.415 . S
C1543 C1542 1.355 . S
C1543 C1545 1.419 . S
C1544 C1542 1.415 . S
C1544 C1549 1.425 . S
C1544 C1551 1.409 . S
C1545 H1537 0.930 . S
C1545 C1543 1.419 . S
C1545 C1546 1.362 . S
C1546 H1538 0.930 . S
C1546 C1545 1.362 . S
C1546 C1549 1.409 . S
C1547 H1539 0.930 . S
C1547 C1548 1.355 . S
C1547 C1549 1.415 . S
C1548 C1547 1.355 . S
C1548 C1550 1.419 . S
C1549 C1544 1.425 . S
C1549 C1546 1.409 . S
C1549 C1547 1.415 . S
C1550 H1540 0.940 . S
C1550 C1548 1.419 . S
C1550 C1551 1.362 . S
C1551 H1541 0.930 . S
C1551 C1544 1.409 . S
C1551 C1550 1.362 . S
H1552 C1558 0.930 . S
H1553 C1561 0.930 . S
H1554 C1562 0.930 . S
H1555 C1563 0.930 . S
H1556 C1566 0.930 . S
H1557 C1567 0.930 . S
C1558 H1552 0.930 . S
C1558 C1559 1.355 . S
C1558 C1560 1.415 . S
C1559 C1558 1.355 . S
C1559 C1561 1.419 . S
C1560 C1558 1.415 . S
C1560 C1565 1.425 . S
C1560 C1567 1.409 . S
C1561 H1553 0.930 . S
C1561 C1559 1.419 . S
C1561 C1562 1.362 . S
C1562 H1554 0.930 . S
C1562 C1561 1.362 . S
C1562 C1565 1.409 . S
C1563 H1555 0.930 . S
C1563 C1564 1.355 . S
C1563 C1565 1.415 . S
C1564 C1563 1.355 . S
C1564 C1566 1.419 . S
C1565 C1560 1.425 . S
C1565 C1562 1.409 . S
C1565 C1563 1.415 . S
C1566 H1556 0.930 . S
C1566 C1564 1.419 . S
C1566 C1567 1.362 . S
C1567 H1557 0.930 . S
C1567 C1560 1.409 . S
C1567 C1566 1.362 . S
H1568 C1574 0.930 . S
H1569 C1577 0.930 . S
H1570 C1578 0.930 . S
H1571 C1579 0.930 . S
H1572 C1582 0.930 . S
H1573 C1583 0.930 . S
C1574 H1568 0.930 . S
C1574 C1575 1.355 . S
C1574 C1576 1.415 . S
C1575 C1574 1.355 . S
C1575 C1577 1.419 . S
C1576 C1574 1.415 . S
C1576 C1581 1.425 . S
C1576 C1583 1.409 . S
C1577 H1569 0.930 . S
C1577 C1575 1.419 . S
C1577 C1578 1.362 . S
C1578 H1570 0.930 . S
C1578 C1577 1.362 . S
C1578 C1581 1.409 . S
C1579 H1571 0.930 . S
C1579 C1580 1.355 . S
C1579 C1581 1.415 . S
C1580 C1579 1.355 . S
C1580 C1582 1.419 . S
C1581 C1576 1.425 . S
C1581 C1578 1.409 . S
C1581 C1579 1.415 . S
C1582 H1572 0.930 . S
C1582 C1580 1.419 . S
C1582 C1583 1.362 . S
C1583 H1573 0.930 . S
C1583 C1576 1.409 . S
C1583 C1582 1.362 . S
H1584 C1590 0.930 . S
H1585 C1593 0.930 . S
H1586 C1594 0.930 . S
H1587 C1595 0.930 . S
H1588 C1598 0.930 . S
H1589 C1599 0.930 . S
C1590 H1584 0.930 . S
C1590 C1591 1.355 . S
C1590 C1592 1.415 . S
C1591 C1590 1.355 . S
C1591 C1593 1.419 . S
C1592 C1590 1.415 . S
C1592 C1597 1.425 . S
C1592 C1599 1.409 . S
C1593 H1585 0.930 . S
C1593 C1591 1.419 . S
C1593 C1594 1.362 . S
C1594 H1586 0.930 . S
C1594 C1593 1.362 . S
C1594 C1597 1.409 . S
C1595 H1587 0.930 . S
C1595 C1596 1.355 . S
C1595 C1597 1.415 . S
C1596 C1595 1.355 . S
C1596 C1598 1.419 . S
C1597 C1592 1.425 . S
C1597 C1594 1.409 . S
C1597 C1595 1.415 . S
C1598 H1588 0.930 . S
C1598 C1596 1.419 . S
C1598 C1599 1.362 . S
C1599 H1589 0.930 . S
C1599 C1592 1.409 . S
C1599 C1598 1.362 . S
H1600 C1606 0.930 . S
H1601 C1609 0.930 . S
H1602 C1610 0.930 . S
H1603 C1611 0.930 . S
H1604 C1614 0.930 . S
H1605 C1615 0.930 . S
C1606 H1600 0.930 . S
C1606 C1607 1.355 . S
C1606 C1608 1.415 . S
C1607 C1606 1.355 . S
C1607 C1609 1.419 . S
C1608 C1606 1.415 . S
C1608 C1613 1.425 . S
C1608 C1615 1.409 . S
C1609 H1601 0.930 . S
C1609 C1607 1.419 . S
C1609 C1610 1.362 . S
C1610 H1602 0.930 . S
C1610 C1609 1.362 . S
C1610 C1613 1.409 . S
C1611 H1603 0.930 . S
C1611 C1612 1.355 . S
C1611 C1613 1.415 . S
C1612 C1611 1.355 . S
C1612 C1614 1.419 . S
C1613 C1608 1.425 . S
C1613 C1610 1.409 . S
C1613 C1611 1.415 . S
C1614 H1604 0.930 . S
C1614 C1612 1.419 . S
C1614 C1615 1.362 . S
C1615 H1605 0.930 . S
C1615 C1608 1.409 . S
C1615 C1614 1.362 . S
H1616 C1622 0.930 . S
H1617 C1625 0.930 . S
H1618 C1626 0.930 . S
H1619 C1627 0.930 . S
H1620 C1630 0.930 . S
H1621 C1631 0.930 . S
C1622 H1616 0.930 . S
C1622 C1623 1.355 . S
C1622 C1624 1.415 . S
C1623 C1622 1.355 . S
C1623 C1625 1.419 . S
C1624 C1622 1.415 . S
C1624 C1629 1.425 . S
C1624 C1631 1.409 . S
C1625 H1617 0.930 . S
C1625 C1623 1.419 . S
C1625 C1626 1.362 . S
C1626 H1618 0.930 . S
C1626 C1625 1.362 . S
C1626 C1629 1.409 . S
C1627 H1619 0.930 . S
C1627 C1628 1.355 . S
C1627 C1629 1.415 . S
C1628 C1627 1.355 . S
C1628 C1630 1.419 . S
C1629 C1624 1.425 . S
C1629 C1626 1.409 . S
C1629 C1627 1.415 . S
C1630 H1620 0.930 . S
C1630 C1628 1.419 . S
C1630 C1631 1.362 . S
C1631 H1621 0.930 . S
C1631 C1624 1.409 . S
C1631 C1630 1.362 . S
H1632 C1638 0.930 . S
H1633 C1641 0.930 . S
H1634 C1642 0.930 . S
H1635 C1643 0.930 . S
H1636 C1646 0.930 . S
H1637 C1647 0.930 . S
C1638 H1632 0.930 . S
C1638 C1639 1.355 . S
C1638 C1640 1.415 . S
C1639 C1638 1.355 . S
C1639 C1641 1.419 . S
C1640 C1638 1.415 . S
C1640 C1645 1.425 . S
C1640 C1647 1.409 . S
C1641 H1633 0.930 . S
C1641 C1639 1.419 . S
C1641 C1642 1.362 . S
C1642 H1634 0.930 . S
C1642 C1641 1.362 . S
C1642 C1645 1.409 . S
C1643 H1635 0.930 . S
C1643 C1644 1.355 . S
C1643 C1645 1.415 . S
C1644 C1643 1.355 . S
C1644 C1646 1.419 . S
C1645 C1640 1.425 . S
C1645 C1642 1.409 . S
C1645 C1643 1.415 . S
C1646 H1636 0.930 . S
C1646 C1644 1.419 . S
C1646 C1647 1.362 . S
C1647 H1637 0.930 . S
C1647 C1640 1.409 . S
C1647 C1646 1.362 . S
H1648 C1654 0.930 . S
H1649 C1657 0.930 . S
H1650 C1658 0.930 . S
H1651 C1659 0.930 . S
H1652 C1662 0.930 . S
H1653 C1663 0.930 . S
C1654 H1648 0.930 . S
C1654 C1655 1.355 . S
C1654 C1656 1.415 . S
C1655 C1654 1.355 . S
C1655 C1657 1.419 . S
C1656 C1654 1.415 . S
C1656 C1661 1.425 . S
C1656 C1663 1.409 . S
C1657 H1649 0.930 . S
C1657 C1655 1.419 . S
C1657 C1658 1.362 . S
C1658 H1650 0.930 . S
C1658 C1657 1.362 . S
C1658 C1661 1.409 . S
C1659 H1651 0.930 . S
C1659 C1660 1.355 . S
C1659 C1661 1.415 . S
C1660 C1659 1.355 . S
C1660 C1662 1.419 . S
C1661 C1656 1.425 . S
C1661 C1658 1.409 . S
C1661 C1659 1.415 . S
C1662 H1652 0.930 . S
C1662 C1660 1.419 . S
C1662 C1663 1.362 . S
C1663 H1653 0.930 . S
C1663 C1656 1.409 . S
C1663 C1662 1.362 . S
H1664 C1670 0.930 . S
H1665 C1673 0.930 . S
H1666 C1674 0.930 . S
H1667 C1675 0.930 . S
H1668 C1678 0.930 . S
H1669 C1679 0.930 . S
C1670 H1664 0.930 . S
C1670 C1671 1.355 . S
C1670 C1672 1.415 . S
C1671 C1670 1.355 . S
C1671 C1673 1.419 . S
C1672 C1670 1.415 . S
C1672 C1677 1.425 . S
C1672 C1679 1.409 . S
C1673 H1665 0.930 . S
C1673 C1671 1.419 . S
C1673 C1674 1.362 . S
C1674 H1666 0.930 . S
C1674 C1673 1.362 . S
C1674 C1677 1.409 . S
C1675 H1667 0.930 . S
C1675 C1676 1.355 . S
C1675 C1677 1.415 . S
C1676 C1675 1.355 . S
C1676 C1678 1.419 . S
C1677 C1672 1.425 . S
C1677 C1674 1.409 . S
C1677 C1675 1.415 . S
C1678 H1668 0.930 . S
C1678 C1676 1.419 . S
C1678 C1679 1.362 . S
C1679 H1669 0.930 . S
C1679 C1672 1.409 . S
C1679 C1678 1.362 . S
H1680 C1686 0.930 . S
H1681 C1689 0.930 . S
H1682 C1690 0.930 . S
H1683 C1691 0.930 . S
H1684 C1694 0.930 . S
H1685 C1695 0.930 . S
C1686 H1680 0.930 . S
C1686 C1687 1.355 . S
C1686 C1688 1.415 . S
C1687 C1686 1.355 . S
C1687 C1689 1.419 1_455 S
C1688 C1686 1.415 . S
C1688 C1693 1.425 1_455 S
C1688 C1695 1.409 . S
C1689 H1681 0.930 . S
C1689 C1687 1.419 1_655 S
C1689 C1690 1.362 . S
C1690 H1682 0.930 . S
C1690 C1689 1.362 . S
C1690 C1693 1.409 . S
C1691 H1683 0.930 . S
C1691 C1692 1.355 . S
C1691 C1693 1.415 . S
C1692 C1691 1.355 . S
C1692 C1694 1.419 1_655 S
C1693 C1688 1.425 1_655 S
C1693 C1690 1.409 . S
C1693 C1691 1.415 . S
C1694 H1684 0.930 . S
C1694 C1692 1.419 1_455 S
C1694 C1695 1.362 . S
C1695 H1685 0.930 . S
C1695 C1688 1.409 . S
C1695 C1694 1.362 . S
H1696 C1702 0.930 . S
H1697 C1705 0.930 . S
H1698 C1706 0.930 . S
H1699 C1707 0.930 . S
H1700 C1710 0.930 . S
H1701 C1711 0.930 . S
C1702 H1696 0.930 . S
C1702 C1703 1.355 . S
C1702 C1704 1.415 . S
C1703 C1702 1.355 . S
C1703 C1705 1.419 . S
C1704 C1702 1.415 . S
C1704 C1709 1.425 . S
C1704 C1711 1.409 . S
C1705 H1697 0.930 . S
C1705 C1703 1.419 . S
C1705 C1706 1.362 . S
C1706 H1698 0.930 . S
C1706 C1705 1.362 . S
C1706 C1709 1.409 . S
C1707 H1699 0.930 . S
C1707 C1708 1.355 . S
C1707 C1709 1.415 . S
C1708 C1707 1.355 . S
C1708 C1710 1.419 . S
C1709 C1704 1.425 . S
C1709 C1706 1.409 . S
C1709 C1707 1.415 . S
C1710 H1700 0.930 . S
C1710 C1708 1.419 . S
C1710 C1711 1.362 . S
C1711 H1701 0.930 . S
C1711 C1704 1.409 . S
C1711 C1710 1.362 . S
H1712 C1718 0.930 . S
H1713 C1721 0.930 . S
H1714 C1722 0.930 . S
H1715 C1723 0.930 . S
H1716 C1726 0.930 . S
H1717 C1727 0.930 . S
C1718 H1712 0.930 . S
C1718 C1719 1.355 . S
C1718 C1720 1.415 . S
C1719 C1718 1.355 . S
C1719 C1721 1.419 . S
C1720 C1718 1.415 . S
C1720 C1725 1.425 . S
C1720 C1727 1.409 . S
C1721 H1713 0.930 . S
C1721 C1719 1.419 . S
C1721 C1722 1.362 . S
C1722 H1714 0.930 . S
C1722 C1721 1.362 . S
C1722 C1725 1.409 . S
C1723 H1715 0.930 . S
C1723 C1724 1.355 . S
C1723 C1725 1.415 . S
C1724 C1723 1.355 . S
C1724 C1726 1.419 . S
C1725 C1720 1.425 . S
C1725 C1722 1.409 . S
C1725 C1723 1.415 . S
C1726 H1716 0.930 . S
C1726 C1724 1.419 . S
C1726 C1727 1.362 . S
C1727 H1717 0.930 . S
C1727 C1720 1.409 . S
C1727 C1726 1.362 . S
H1728 C1734 0.930 . S
H1729 C1737 0.930 . S
H1730 C1738 0.930 . S
H1731 C1739 0.930 . S
H1732 C1742 0.930 . S
H1733 C1743 0.930 . S
C1734 H1728 0.930 . S
C1734 C1735 1.355 . S
C1734 C1736 1.415 . S
C1735 C1734 1.355 . S
C1735 C1737 1.419 . S
C1736 C1734 1.415 . S
C1736 C1741 1.425 . S
C1736 C1743 1.409 . S
C1737 H1729 0.930 . S
C1737 C1735 1.419 . S
C1737 C1738 1.362 . S
C1738 H1730 0.930 . S
C1738 C1737 1.362 . S
C1738 C1741 1.409 . S
C1739 H1731 0.930 . S
C1739 C1740 1.355 . S
C1739 C1741 1.415 . S
C1740 C1739 1.355 . S
C1740 C1742 1.419 . S
C1741 C1736 1.425 . S
C1741 C1738 1.409 . S
C1741 C1739 1.415 . S
C1742 H1732 0.930 . S
C1742 C1740 1.419 . S
C1742 C1743 1.362 . S
C1743 H1733 0.930 . S
C1743 C1736 1.409 . S
C1743 C1742 1.362 . S
H1744 C1750 0.930 . S
H1745 C1753 0.930 . S
H1746 C1754 0.930 . S
H1747 C1755 0.930 . S
H1748 C1758 0.930 . S
H1749 C1759 0.930 . S
C1750 H1744 0.930 . S
C1750 C1751 1.355 . S
C1750 C1752 1.415 . S
C1751 C1750 1.355 . S
C1751 C1753 1.419 . S
C1752 C1750 1.415 . S
C1752 C1757 1.425 . S
C1752 C1759 1.409 . S
C1753 H1745 0.930 . S
C1753 C1751 1.419 . S
C1753 C1754 1.362 . S
C1754 H1746 0.930 . S
C1754 C1753 1.362 . S
C1754 C1757 1.409 . S
C1755 H1747 0.930 . S
C1755 C1756 1.355 . S
C1755 C1757 1.415 . S
C1756 C1755 1.355 . S
C1756 C1758 1.419 . S
C1757 C1752 1.425 . S
C1757 C1754 1.409 . S
C1757 C1755 1.415 . S
C1758 H1748 0.930 . S
C1758 C1756 1.419 . S
C1758 C1759 1.362 . S
C1759 H1749 0.930 . S
C1759 C1752 1.409 . S
C1759 C1758 1.362 . S
H1760 C1766 0.930 . S
H1761 C1769 0.930 . S
H1762 C1770 0.930 . S
H1763 C1771 0.930 . S
H1764 C1774 0.930 . S
H1765 C1775 0.930 . S
C1766 H1760 0.930 . S
C1766 C1767 1.355 . S
C1766 C1768 1.415 . S
C1767 C1766 1.355 . S
C1767 C1769 1.419 1_565 S
C1768 C1766 1.415 . S
C1768 C1773 1.425 1_565 S
C1768 C1775 1.409 . S
C1769 H1761 0.930 . S
C1769 C1767 1.419 1_545 S
C1769 C1770 1.362 . S
C1770 H1762 0.930 . S
C1770 C1769 1.362 . S
C1770 C1773 1.409 . S
C1771 H1763 0.930 . S
C1771 C1772 1.355 . S
C1771 C1773 1.415 . S
C1772 C1771 1.355 . S
C1772 C1774 1.419 1_545 S
C1773 C1768 1.425 1_545 S
C1773 C1770 1.409 . S
C1773 C1771 1.415 . S
C1774 H1764 0.930 . S
C1774 C1772 1.419 1_565 S
C1774 C1775 1.362 . S
C1775 H1765 0.930 . S
C1775 C1768 1.409 . S
C1775 C1774 1.362 . S
H1776 C1782 0.930 . S
H1777 C1785 0.930 . S
H1778 C1786 0.930 . S
H1779 C1787 0.930 . S
H1780 C1790 0.930 1_556 S
H1781 C1791 0.930 . S
C1782 H1776 0.930 . S
C1782 C1783 1.355 1_556 S
C1782 C1784 1.415 1_556 S
C1783 C1782 1.355 1_554 S
C1783 C1785 1.419 . S
C1784 C1782 1.415 1_554 S
C1784 C1789 1.425 . S
C1784 C1791 1.409 1_554 S
C1785 H1777 0.930 . S
C1785 C1783 1.419 . S
C1785 C1786 1.362 . S
C1786 H1778 0.930 . S
C1786 C1785 1.362 . S
C1786 C1789 1.409 . S
C1787 H1779 0.930 . S
C1787 C1788 1.355 . S
C1787 C1789 1.415 . S
C1788 C1787 1.355 . S
C1788 C1790 1.419 . S
C1789 C1784 1.425 . S
C1789 C1786 1.409 . S
C1789 C1787 1.415 . S
C1790 H1780 0.930 1_554 S
C1790 C1788 1.419 . S
C1790 C1791 1.362 1_554 S
C1791 H1781 0.930 . S
C1791 C1784 1.409 1_556 S
C1791 C1790 1.362 1_556 S
H1792 C1798 0.930 . S
H1793 C1801 0.930 . S
H1794 C1802 0.930 . S
H1795 C1803 0.930 . S
H1796 C1806 0.930 . S
H1797 C1807 0.930 . S
C1798 H1792 0.930 . S
C1798 C1799 1.355 . S
C1798 C1800 1.415 . S
C1799 C1798 1.355 . S
C1799 C1801 1.419 . S
C1800 C1798 1.415 . S
C1800 C1805 1.425 . S
C1800 C1807 1.409 . S
C1801 H1793 0.930 . S
C1801 C1799 1.419 . S
C1801 C1802 1.362 . S
C1802 H1794 0.930 . S
C1802 C1801 1.362 . S
C1802 C1805 1.409 . S
C1803 H1795 0.930 . S
C1803 C1804 1.355 . S
C1803 C1805 1.415 . S
C1804 C1803 1.355 . S
C1804 C1806 1.419 . S
C1805 C1800 1.425 . S
C1805 C1802 1.409 . S
C1805 C1803 1.415 . S
C1806 H1796 0.930 . S
C1806 C1804 1.419 . S
C1806 C1807 1.362 . S
C1807 H1797 0.930 . S
C1807 C1800 1.409 . S
C1807 C1806 1.362 . S
H1808 C1814 0.930 . S
H1809 C1817 0.930 . S
H1810 C1818 0.930 . S
H1811 C1819 0.930 . S
H1812 C1822 0.930 . S
H1813 C1823 0.930 . S
C1814 H1808 0.930 . S
C1814 C1815 1.355 . S
C1814 C1816 1.415 . S
C1815 C1814 1.355 . S
C1815 C1817 1.419 . S
C1816 C1814 1.415 . S
C1816 C1821 1.425 . S
C1816 C1823 1.409 . S
C1817 H1809 0.930 . S
C1817 C1815 1.419 . S
C1817 C1818 1.362 . S
C1818 H1810 0.930 . S
C1818 C1817 1.362 . S
C1818 C1821 1.409 . S
C1819 H1811 0.930 . S
C1819 C1820 1.355 . S
C1819 C1821 1.415 . S
C1820 C1819 1.355 . S
C1820 C1822 1.419 . S
C1821 C1816 1.425 . S
C1821 C1818 1.409 . S
C1821 C1819 1.415 . S
C1822 H1812 0.930 . S
C1822 C1820 1.419 . S
C1822 C1823 1.362 . S
C1823 H1813 0.930 . S
C1823 C1816 1.409 . S
C1823 C1822 1.362 . S
H1824 C1830 0.930 . S
H1825 C1833 0.930 . S
H1826 C1834 0.930 . S
H1827 C1835 0.930 . S
H1828 C1838 0.930 . S
H1829 C1839 0.930 . S
C1830 H1824 0.930 . S
C1830 C1831 1.355 . S
C1830 C1832 1.415 . S
C1831 C1830 1.355 . S
C1831 C1833 1.419 . S
C1832 C1830 1.415 . S
C1832 C1837 1.425 . S
C1832 C1839 1.409 . S
C1833 H1825 0.930 . S
C1833 C1831 1.419 . S
C1833 C1834 1.362 . S
C1834 H1826 0.930 . S
C1834 C1833 1.362 . S
C1834 C1837 1.409 . S
C1835 H1827 0.930 . S
C1835 C1836 1.355 . S
C1835 C1837 1.415 . S
C1836 C1835 1.355 . S
C1836 C1838 1.419 . S
C1837 C1832 1.425 . S
C1837 C1834 1.409 . S
C1837 C1835 1.415 . S
C1838 H1828 0.930 . S
C1838 C1836 1.419 . S
C1838 C1839 1.362 . S
C1839 H1829 0.930 . S
C1839 C1832 1.409 . S
C1839 C1838 1.362 . S
H1840 C1846 0.930 . S
H1841 C1849 0.930 . S
H1842 C1850 0.930 . S
H1843 C1851 0.930 . S
H1844 C1854 0.930 . S
H1845 C1855 0.930 . S
C1846 H1840 0.930 . S
C1846 C1847 1.355 . S
C1846 C1848 1.415 . S
C1847 C1846 1.355 . S
C1847 C1849 1.419 . S
C1848 C1846 1.415 . S
C1848 C1853 1.425 . S
C1848 C1855 1.409 . S
C1849 H1841 0.930 . S
C1849 C1847 1.419 . S
C1849 C1850 1.362 . S
C1850 H1842 0.930 . S
C1850 C1849 1.362 . S
C1850 C1853 1.409 . S
C1851 H1843 0.930 . S
C1851 C1852 1.355 . S
C1851 C1853 1.415 . S
C1852 C1851 1.355 . S
C1852 C1854 1.419 . S
C1853 C1848 1.425 . S
C1853 C1850 1.409 . S
C1853 C1851 1.415 . S
C1854 H1844 0.930 . S
C1854 C1852 1.419 . S
C1854 C1855 1.362 . S
C1855 H1845 0.930 . S
C1855 C1848 1.409 . S
C1855 C1854 1.362 . S
H1856 C1862 0.930 . S
H1857 C1865 0.930 . S
H1858 C1866 0.930 . S
H1859 C1867 0.930 . S
H1860 C1870 0.930 . S
H1861 C1871 0.930 . S
C1862 H1856 0.930 . S
C1862 C1863 1.355 . S
C1862 C1864 1.415 . S
C1863 C1862 1.355 . S
C1863 C1865 1.419 . S
C1864 C1862 1.415 . S
C1864 C1869 1.425 . S
C1864 C1871 1.409 . S
C1865 H1857 0.930 . S
C1865 C1863 1.419 . S
C1865 C1866 1.362 . S
C1866 H1858 0.930 . S
C1866 C1865 1.362 . S
C1866 C1869 1.409 . S
C1867 H1859 0.930 . S
C1867 C1868 1.355 . S
C1867 C1869 1.415 . S
C1868 C1867 1.355 . S
C1868 C1870 1.419 . S
C1869 C1864 1.425 . S
C1869 C1866 1.409 . S
C1869 C1867 1.415 . S
C1870 H1860 0.930 . S
C1870 C1868 1.419 . S
C1870 C1871 1.362 . S
C1871 H1861 0.930 . S
C1871 C1864 1.409 . S
C1871 C1870 1.362 . S
H1872 C1878 0.930 . S
H1873 C1881 0.930 . S
H1874 C1882 0.930 . S
H1875 C1883 0.930 . S
H1876 C1886 0.930 . S
H1877 C1887 0.930 . S
C1878 H1872 0.930 . S
C1878 C1879 1.355 . S
C1878 C1880 1.415 . S
C1879 C1878 1.355 . S
C1879 C1881 1.419 . S
C1880 C1878 1.415 . S
C1880 C1885 1.425 . S
C1880 C1887 1.409 . S
C1881 H1873 0.930 . S
C1881 C1879 1.419 . S
C1881 C1882 1.362 . S
C1882 H1874 0.930 . S
C1882 C1881 1.362 . S
C1882 C1885 1.409 . S
C1883 H1875 0.930 . S
C1883 C1884 1.355 . S
C1883 C1885 1.415 . S
C1884 C1883 1.355 . S
C1884 C1886 1.419 . S
C1885 C1880 1.425 . S
C1885 C1882 1.409 . S
C1885 C1883 1.415 . S
C1886 H1876 0.930 . S
C1886 C1884 1.419 . S
C1886 C1887 1.362 . S
C1887 H1877 0.930 . S
C1887 C1880 1.409 . S
C1887 C1886 1.362 . S
H1888 C1894 0.930 . S
H1889 C1897 0.930 . S
H1890 C1898 0.930 . S
H1891 C1899 0.930 . S
H1892 C1902 0.930 . S
H1893 C1903 0.930 . S
C1894 H1888 0.930 . S
C1894 C1895 1.355 . S
C1894 C1896 1.415 . S
C1895 C1894 1.355 . S
C1895 C1897 1.419 . S
C1896 C1894 1.415 . S
C1896 C1901 1.425 . S
C1896 C1903 1.409 . S
C1897 H1889 0.930 . S
C1897 C1895 1.419 . S
C1897 C1898 1.362 . S
C1898 H1890 0.930 . S
C1898 C1897 1.362 . S
C1898 C1901 1.409 . S
C1899 H1891 0.930 . S
C1899 C1900 1.355 . S
C1899 C1901 1.415 . S
C1900 C1899 1.355 . S
C1900 C1902 1.419 . S
C1901 C1896 1.425 . S
C1901 C1898 1.409 . S
C1901 C1899 1.415 . S
C1902 H1892 0.930 . S
C1902 C1900 1.419 . S
C1902 C1903 1.362 . S
C1903 H1893 0.930 . S
C1903 C1896 1.409 . S
C1903 C1902 1.362 . S
H1904 C1910 0.930 . S
H1905 C1913 0.930 . S
H1906 C1914 0.930 . S
H1907 C1915 0.930 . S
H1908 C1918 0.930 . S
H1909 C1919 0.930 . S
C1910 H1904 0.930 . S
C1910 C1911 1.355 . S
C1910 C1912 1.415 . S
C1911 C1910 1.355 . S
C1911 C1913 1.419 . S
C1912 C1910 1.415 . S
C1912 C1917 1.425 . S
C1912 C1919 1.409 . S
C1913 H1905 0.930 . S
C1913 C1911 1.419 . S
C1913 C1914 1.362 . S
C1914 H1906 0.930 . S
C1914 C1913 1.362 . S
C1914 C1917 1.409 . S
C1915 H1907 0.930 . S
C1915 C1916 1.355 . S
C1915 C1917 1.415 . S
C1916 C1915 1.355 . S
C1916 C1918 1.419 . S
C1917 C1912 1.425 . S
C1917 C1914 1.409 . S
C1917 C1915 1.415 . S
C1918 H1908 0.930 . S
C1918 C1916 1.419 . S
C1918 C1919 1.362 . S
C1919 H1909 0.930 . S
C1919 C1912 1.409 . S
C1919 C1918 1.362 . S
H1920 C1926 0.930 . S
H1921 C1929 0.930 . S
H1922 C1930 0.930 . S
H1923 C1931 0.930 . S
H1924 C1934 0.930 . S
H1925 C1935 0.930 . S
C1926 H1920 0.930 . S
C1926 C1927 1.355 . S
C1926 C1928 1.415 . S
C1927 C1926 1.355 . S
C1927 C1929 1.419 . S
C1928 C1926 1.415 . S
C1928 C1933 1.425 . S
C1928 C1935 1.409 . S
C1929 H1921 0.930 . S
C1929 C1927 1.419 . S
C1929 C1930 1.362 . S
C1930 H1922 0.930 . S
C1930 C1929 1.362 . S
C1930 C1933 1.409 . S
C1931 H1923 0.930 . S
C1931 C1932 1.355 . S
C1931 C1933 1.415 . S
C1932 C1931 1.355 . S
C1932 C1934 1.419 . S
C1933 C1928 1.425 . S
C1933 C1930 1.409 . S
C1933 C1931 1.415 . S
C1934 H1924 0.930 . S
C1934 C1932 1.419 . S
C1934 C1935 1.362 . S
C1935 H1925 0.930 . S
C1935 C1928 1.409 . S
C1935 C1934 1.362 . S
H1936 C1942 0.930 . S
H1937 C1945 0.930 . S
H1938 C1946 0.930 . S
H1939 C1947 0.930 . S
H1940 C1950 0.930 . S
H1941 C1951 0.930 . S
C1942 H1936 0.930 . S
C1942 C1943 1.355 . S
C1942 C1944 1.415 . S
C1943 C1942 1.355 . S
C1943 C1945 1.419 . S
C1944 C1942 1.415 . S
C1944 C1949 1.425 . S
C1944 C1951 1.409 1_554 S
C1945 H1937 0.930 . S
C1945 C1943 1.419 . S
C1945 C1946 1.362 . S
C1946 H1938 0.930 . S
C1946 C1945 1.362 . S
C1946 C1949 1.409 . S
C1947 H1939 0.930 . S
C1947 C1948 1.355 . S
C1947 C1949 1.415 . S
C1948 C1947 1.355 . S
C1948 C1950 1.419 1_554 S
C1949 C1944 1.425 . S
C1949 C1946 1.409 . S
C1949 C1947 1.415 . S
C1950 H1940 0.930 . S
C1950 C1948 1.419 1_556 S
C1950 C1951 1.362 . S
C1951 H1941 0.930 . S
C1951 C1944 1.409 1_556 S
C1951 C1950 1.362 . S
H1952 C1958 0.930 . S
H1953 C1961 0.930 . S
H1954 C1962 0.930 . S
H1955 C1963 0.930 . S
H1956 C1966 0.930 . S
H1957 C1967 0.930 . S
C1958 H1952 0.930 . S
C1958 C1959 1.355 . S
C1958 C1960 1.415 . S
C1959 C1958 1.355 . S
C1959 C1961 1.419 . S
C1960 C1958 1.415 . S
C1960 C1965 1.425 . S
C1960 C1967 1.409 . S
C1961 H1953 0.930 . S
C1961 C1959 1.419 . S
C1961 C1962 1.362 . S
C1962 H1954 0.930 . S
C1962 C1961 1.362 . S
C1962 C1965 1.409 . S
C1963 H1955 0.930 . S
C1963 C1964 1.355 . S
C1963 C1965 1.415 . S
C1964 C1963 1.355 . S
C1964 C1966 1.419 . S
C1965 C1960 1.425 . S
C1965 C1962 1.409 . S
C1965 C1963 1.415 . S
C1966 H1956 0.930 . S
C1966 C1964 1.419 . S
C1966 C1967 1.362 . S
C1967 H1957 0.930 . S
C1967 C1960 1.409 . S
C1967 C1966 1.362 . S
H1968 C1974 0.930 . S
H1969 C1977 0.930 . S
H1970 C1978 0.930 . S
H1971 C1979 0.930 . S
H1972 C1982 0.930 . S
H1973 C1983 0.930 . S
C1974 H1968 0.930 . S
C1974 C1975 1.355 . S
C1974 C1976 1.415 . S
C1975 C1974 1.355 . S
C1975 C1977 1.419 . S
C1976 C1974 1.415 . S
C1976 C1981 1.425 . S
C1976 C1983 1.409 . S
C1977 H1969 0.930 . S
C1977 C1975 1.419 . S
C1977 C1978 1.362 . S
C1978 H1970 0.930 . S
C1978 C1977 1.362 . S
C1978 C1981 1.409 . S
C1979 H1971 0.930 . S
C1979 C1980 1.355 . S
C1979 C1981 1.415 . S
C1980 C1979 1.355 . S
C1980 C1982 1.419 . S
C1981 C1976 1.425 . S
C1981 C1978 1.409 . S
C1981 C1979 1.415 . S
C1982 H1972 0.930 . S
C1982 C1980 1.419 . S
C1982 C1983 1.362 . S
C1983 H1973 0.930 . S
C1983 C1976 1.409 . S
C1983 C1982 1.362 . S
H1984 C1990 0.930 . S
H1985 C1993 0.930 . S
H1986 C1994 0.930 . S
H1987 C1995 0.930 . S
H1988 C1998 0.930 . S
H1989 C1999 0.930 . S
C1990 H1984 0.930 . S
C1990 C1991 1.355 . S
C1990 C1992 1.415 . S
C1991 C1990 1.355 . S
C1991 C1993 1.419 . S
C1992 C1990 1.415 . S
C1992 C1997 1.425 . S
C1992 C1999 1.409 . S
C1993 H1985 0.930 . S
C1993 C1991 1.419 . S
C1993 C1994 1.362 . S
C1994 H1986 0.930 . S
C1994 C1993 1.362 . S
C1994 C1997 1.409 . S
C1995 H1987 0.930 . S
C1995 C1996 1.355 . S
C1995 C1997 1.415 . S
C1996 C1995 1.355 . S
C1996 C1998 1.419 . S
C1997 C1992 1.425 . S
C1997 C1994 1.409 . S
C1997 C1995 1.415 . S
C1998 H1988 0.930 . S
C1998 C1996 1.419 . S
C1998 C1999 1.362 . S
C1999 H1989 0.930 . S
C1999 C1992 1.409 . S
C1999 C1998 1.362 . S
H2000 C2006 0.930 . S
H2001 C2009 0.930 . S
H2002 C2010 0.930 . S
H2003 C2011 0.930 . S
H2004 C2014 0.930 . S
H2005 C2015 0.930 . S
C2006 H2000 0.930 . S
C2006 C2007 1.355 . S
C2006 C2008 1.415 . S
C2007 C2006 1.355 . S
C2007 C2009 1.419 . S
C2008 C2006 1.415 . S
C2008 C2013 1.425 . S
C2008 C2015 1.409 . S
C2009 H2001 0.930 . S
C2009 C2007 1.419 . S
C2009 C2010 1.362 . S
C2010 H2002 0.930 . S
C2010 C2009 1.362 . S
C2010 C2013 1.409 . S
C2011 H2003 0.930 . S
C2011 C2012 1.355 . S
C2011 C2013 1.415 . S
C2012 C2011 1.355 . S
C2012 C2014 1.419 . S
C2013 C2008 1.425 . S
C2013 C2010 1.409 . S
C2013 C2011 1.415 . S
C2014 H2004 0.930 . S
C2014 C2012 1.419 . S
C2014 C2015 1.362 . S
C2015 H2005 0.930 . S
C2015 C2008 1.409 . S
C2015 C2014 1.362 . S
H2016 C2022 0.930 . S
H2017 C2025 0.930 . S
H2018 C2026 0.930 . S
H2019 C2027 0.930 . S
H2020 C2030 0.930 . S
H2021 C2031 0.930 . S
C2022 H2016 0.930 . S
C2022 C2023 1.355 . S
C2022 C2024 1.415 . S
C2023 C2022 1.355 . S
C2023 C2025 1.419 1_556 S
C2024 C2022 1.415 . S
C2024 C2029 1.425 . S
C2024 C2031 1.409 . S
C2025 H2017 0.930 . S
C2025 C2023 1.419 1_554 S
C2025 C2026 1.362 . S
C2026 H2018 0.930 . S
C2026 C2025 1.362 . S
C2026 C2029 1.409 1_554 S
C2027 H2019 0.930 . S
C2027 C2028 1.355 . S
C2027 C2029 1.415 . S
C2028 C2027 1.355 . S
C2028 C2030 1.419 . S
C2029 C2024 1.425 . S
C2029 C2026 1.409 1_556 S
C2029 C2027 1.415 . S
C2030 H2020 0.930 . S
C2030 C2028 1.419 . S
C2030 C2031 1.362 . S
C2031 H2021 0.930 . S
C2031 C2024 1.409 . S
C2031 C2030 1.362 . S
H2032 C2038 0.930 . S
H2033 C2041 0.930 . S
H2034 C2042 0.930 . S
H2035 C2043 0.930 . S
H2036 C2046 0.930 . S
H2037 C2047 0.930 . S
C2038 H2032 0.930 . S
C2038 C2039 1.355 . S
C2038 C2040 1.415 . S
C2039 C2038 1.355 . S
C2039 C2041 1.419 . S
C2040 C2038 1.415 . S
C2040 C2045 1.425 . S
C2040 C2047 1.409 . S
C2041 H2033 0.930 . S
C2041 C2039 1.419 . S
C2041 C2042 1.362 . S
C2042 H2034 0.930 . S
C2042 C2041 1.362 . S
C2042 C2045 1.409 . S
C2043 H2035 0.930 . S
C2043 C2044 1.355 . S
C2043 C2045 1.415 . S
C2044 C2043 1.355 . S
C2044 C2046 1.419 . S
C2045 C2040 1.425 . S
C2045 C2042 1.409 . S
C2045 C2043 1.415 . S
C2046 H2036 0.930 . S
C2046 C2044 1.419 . S
C2046 C2047 1.362 . S
C2047 H2037 0.930 . S
C2047 C2040 1.409 . S
C2047 C2046 1.362 . S
H2048 C2054 0.930 . S
H2049 C2057 0.930 . S
H2050 C2058 0.930 . S
H2051 C2059 0.930 . S
H2052 C2062 0.930 . S
H2053 C2063 0.930 . S
C2054 H2048 0.930 . S
C2054 C2055 1.355 . S
C2054 C2056 1.415 . S
C2055 C2054 1.355 . S
C2055 C2057 1.419 . S
C2056 C2054 1.415 . S
C2056 C2061 1.425 . S
C2056 C2063 1.409 . S
C2057 H2049 0.930 . S
C2057 C2055 1.419 . S
C2057 C2058 1.362 . S
C2058 H2050 0.930 . S
C2058 C2057 1.362 . S
C2058 C2061 1.409 . S
C2059 H2051 0.930 . S
C2059 C2060 1.355 . S
C2059 C2061 1.415 . S
C2060 C2059 1.355 . S
C2060 C2062 1.419 . S
C2061 C2056 1.425 . S
C2061 C2058 1.409 . S
C2061 C2059 1.415 . S
C2062 H2052 0.930 . S
C2062 C2060 1.419 . S
C2062 C2063 1.362 . S
C2063 H2053 0.930 . S
C2063 C2056 1.409 . S
C2063 C2062 1.362 . S
H2064 C2070 0.930 . S
H2065 C2073 0.930 . S
H2066 C2074 0.930 . S
H2067 C2075 0.930 . S
H2068 C2078 0.930 . S
H2069 C2079 0.930 . S
C2070 H2064 0.930 . S
C2070 C2071 1.355 . S
C2070 C2072 1.415 . S
C2071 C2070 1.355 . S
C2071 C2073 1.419 . S
C2072 C2070 1.415 . S
C2072 C2077 1.425 . S
C2072 C2079 1.409 . S
C2073 H2065 0.930 . S
C2073 C2071 1.419 . S
C2073 C2074 1.362 . S
C2074 H2066 0.930 . S
C2074 C2073 1.362 . S
C2074 C2077 1.409 . S
C2075 H2067 0.930 . S
C2075 C2076 1.355 . S
C2075 C2077 1.415 . S
C2076 C2075 1.355 . S
C2076 C2078 1.419 . S
C2077 C2072 1.425 . S
C2077 C2074 1.409 . S
C2077 C2075 1.415 . S
C2078 H2068 0.930 . S
C2078 C2076 1.419 . S
C2078 C2079 1.362 . S
C2079 H2069 0.930 . S
C2079 C2072 1.409 . S
C2079 C2078 1.362 . S
H2080 C2086 0.930 . S
H2081 C2089 0.930 . S
H2082 C2090 0.930 . S
H2083 C2091 0.930 . S
H2084 C2094 0.930 . S
H2085 C2095 0.930 . S
C2086 H2080 0.930 . S
C2086 C2087 1.355 . S
C2086 C2088 1.415 . S
C2087 C2086 1.355 . S
C2087 C2089 1.419 . S
C2088 C2086 1.415 . S
C2088 C2093 1.425 . S
C2088 C2095 1.409 . S
C2089 H2081 0.930 . S
C2089 C2087 1.419 . S
C2089 C2090 1.362 . S
C2090 H2082 0.930 . S
C2090 C2089 1.362 . S
C2090 C2093 1.409 . S
C2091 H2083 0.930 . S
C2091 C2092 1.355 . S
C2091 C2093 1.415 . S
C2092 C2091 1.355 . S
C2092 C2094 1.419 . S
C2093 C2088 1.425 . S
C2093 C2090 1.409 . S
C2093 C2091 1.415 . S
C2094 H2084 0.930 . S
C2094 C2092 1.419 . S
C2094 C2095 1.362 . S
C2095 H2085 0.930 . S
C2095 C2088 1.409 . S
C2095 C2094 1.362 . S
H2096 C2102 0.930 . S
H2097 C2105 0.925 1_556 S
H2098 C2106 0.930 . S
H2099 C2107 0.930 . S
H2100 C2110 0.930 . S
H2101 C2111 0.930 . S
C2102 H2096 0.930 . S
C2102 C2103 1.355 . S
C2102 C2104 1.415 . S
C2103 C2102 1.355 . S
C2103 C2105 1.419 . S
C2104 C2102 1.415 . S
C2104 C2109 1.425 . S
C2104 C2111 1.409 . S
C2105 H2097 0.925 1_554 S
C2105 C2103 1.419 . S
C2105 C2106 1.362 . S
C2106 H2098 0.930 . S
C2106 C2105 1.362 . S
C2106 C2109 1.409 . S
C2107 H2099 0.930 . S
C2107 C2108 1.355 . S
C2107 C2109 1.415 . S
C2108 C2107 1.355 . S
C2108 C2110 1.419 . S
C2109 C2104 1.425 . S
C2109 C2106 1.409 . S
C2109 C2107 1.415 . S
C2110 H2100 0.930 . S
C2110 C2108 1.419 . S
C2110 C2111 1.362 . S
C2111 H2101 0.930 . S
C2111 C2104 1.409 . S
C2111 C2110 1.362 . S
C1351 C67 1.394 . S
C1356 C154 1.222 . S
C1367 C235 2.025 . S
C1372 C140 2.068 . S
C1383 C308 2.077 . S
C1388 C231 2.067 . S
C1399 C63 1.455 . S
C1404 C322 1.072 . S
C1415 C74 1.499 . S
C1420 C814 1.230 . S
C1431 C644 1.345 . S
C1436 C142 1.107 . S
C1447 C224 2.007 . S
C1452 C907 2.077 . S
C1463 C319 2.066 . S
C1468 C1166 2.077 . S
C1479 C728 1.996 . S
C1484 C151 2.082 . S
C1495 C1075 2.089 . S
C1500 C242 2.076 . S
C1511 C1250 1.459 . S
C1516 C310 1.158 . S
C1527 C56 1.301 . S
C1532 C982 1.204 . S
C1543 C70 0.482 . S
C1548 C730 0.749 . S
C1559 C1071 1.944 . S
C1564 C410 1.957 . S
C1575 C490 0.622 . S
C1580 C1234 0.521 . S
C1591 C998 1.949 . S
C1596 C567 1.951 . S
C1607 C238 0.672 . S
C1612 C646 0.532 . S
C1623 C830 1.955 . S
C1628 C399 1.944 . S
C1639 C578 1.954 . S
C1644 C903 1.946 . S
C1655 C476 1.973 . S
C1660 C991 2.091 . S
C1671 C823 2.072 . S
C1676 C494 2.070 . S
C1687 C994 1.074 . S
C1692 C655 1.289 . S
C1703 C487 1.983 . S
C1708 C392 2.086 . S
C1719 C812 2.070 . S
C1724 C735 2.091 . S
C1735 C1159 2.015 . S
C1740 C980 2.073 . S
C1751 C560 2.065 . S
C1756 C483 2.084 . S
C1767 C826 1.073 . S
C1772 C1239 1.482 . S
C1783 C1162 0.603 . S
C1788 C58 0.559 . S
C1799 C226 0.666 . S
C1804 C1246 0.535 . S
C1815 C1082 1.940 . S
C1820 C147 1.961 . S
C1831 C658 0.416 . S
C1836 C478 0.751 . S
C1847 C315 1.963 . S
C1852 C914 1.936 . S
C1863 C1064 2.085 . S
C1868 C1155 2.067 . S
C1879 C651 1.501 . S
C1884 C1078 1.227 . S
C1895 C562 1.064 . S
C1900 C662 1.477 . S
C1911 C403 2.073 . S
C1916 C1148 2.012 . S
C1927 C1066 1.178 . S
C1932 C1334 1.464 . S
C1943 C1318 0.467 . S
C1948 C742 0.768 . S
C1959 C158 1.944 . S
C1964 C819 1.956 . S
C1975 C746 2.085 . S
C1980 C571 2.084 . S
C1991 C739 1.967 . S
C1996 C896 2.093 . S
C2007 C1323 1.470 . S
C2012 C574 1.057 . S
C2023 C1150 0.748 . S
C2028 C1330 0.483 . S
C2039 C987 1.939 . S
C2044 C326 1.960 . S
C2055 C910 1.247 . S
C2060 C1243 1.369 . S
C2071 C898 1.232 . S
C2076 C1316 1.391 . S
C2087 C394 1.140 . S
C2092 C1232 1.267 . S
C2103 C1327 1.301 . S
C2108 C406 1.203 . S
