# Generated by pormake.
# Topology uoz, (4)-cn, num edge types: 1
# Building blocks:
#     Node 0, Type 0, BuildingBlock: AZAVOO_clean_sbu_0, # of connection points: 4
#     Node 1, Type 0, BuildingBlock: AZAVOO_clean_sbu_0, # of connection points: 4
#     Node 2, Type 0, BuildingBlock: AZAVOO_clean_sbu_0, # of connection points: 4
#     Node 3, Type 0, BuildingBlock: AZAVOO_clean_sbu_0, # of connection points: 4
#     Node 4, Type 0, BuildingBlock: AZAVOO_clean_sbu_0, # of connection points: 4
#     Node 5, Type 0, BuildingBlock: AZAVOO_clean_sbu_0, # of connection points: 4
#     Node 6, Type 0, BuildingBlock: AZAVOO_clean_sbu_0, # of connection points: 4
#     Node 7, Type 0, BuildingBlock: AZAVOO_clean_sbu_0, # of connection points: 4
#     Node 8, Type 0, BuildingBlock: AZAVOO_clean_sbu_0, # of connection points: 4
#     Node 9, Type 0, BuildingBlock: AZAVOO_clean_sbu_0, # of connection points: 4
#     Node 10, Type 0, BuildingBlock: AZAVOO_clean_sbu_0, # of connection points: 4
#     Node 11, Type 0, BuildingBlock: AZAVOO_clean_sbu_0, # of connection points: 4
#     Node 12, Type 0, BuildingBlock: AZAVOO_clean_sbu_0, # of connection points: 4
#     Node 13, Type 0, BuildingBlock: AZAVOO_clean_sbu_0, # of connection points: 4
#     Node 14, Type 0, BuildingBlock: AZAVOO_clean_sbu_0, # of connection points: 4
#     Node 15, Type 0, BuildingBlock: AZAVOO_clean_sbu_0, # of connection points: 4
#     Edge 16, Type (0, 0), BuildingBlock: TEMPAE_clean_linker_10, # of connection points: 2
#     Edge 17, Type (0, 0), BuildingBlock: TEMPAE_clean_linker_10, # of connection points: 2
#     Edge 18, Type (0, 0), BuildingBlock: TEMPAE_clean_linker_10, # of connection points: 2
#     Edge 19, Type (0, 0), BuildingBlock: TEMPAE_clean_linker_10, # of connection points: 2
#     Edge 20, Type (0, 0), BuildingBlock: TEMPAE_clean_linker_10, # of connection points: 2
#     Edge 21, Type (0, 0), BuildingBlock: TEMPAE_clean_linker_10, # of connection points: 2
#     Edge 22, Type (0, 0), BuildingBlock: TEMPAE_clean_linker_10, # of connection points: 2
#     Edge 23, Type (0, 0), BuildingBlock: TEMPAE_clean_linker_10, # of connection points: 2
#     Edge 24, Type (0, 0), BuildingBlock: TEMPAE_clean_linker_10, # of connection points: 2
#     Edge 25, Type (0, 0), BuildingBlock: TEMPAE_clean_linker_10, # of connection points: 2
#     Edge 26, Type (0, 0), BuildingBlock: TEMPAE_clean_linker_10, # of connection points: 2
#     Edge 27, Type (0, 0), BuildingBlock: TEMPAE_clean_linker_10, # of connection points: 2
#     Edge 28, Type (0, 0), BuildingBlock: TEMPAE_clean_linker_10, # of connection points: 2
#     Edge 29, Type (0, 0), BuildingBlock: TEMPAE_clean_linker_10, # of connection points: 2
#     Edge 30, Type (0, 0), BuildingBlock: TEMPAE_clean_linker_10, # of connection points: 2
#     Edge 31, Type (0, 0), BuildingBlock: TEMPAE_clean_linker_10, # of connection points: 2
#     Edge 32, Type (0, 0), BuildingBlock: TEMPAE_clean_linker_10, # of connection points: 2
#     Edge 33, Type (0, 0), BuildingBlock: TEMPAE_clean_linker_10, # of connection points: 2
#     Edge 34, Type (0, 0), BuildingBlock: TEMPAE_clean_linker_10, # of connection points: 2
#     Edge 35, Type (0, 0), BuildingBlock: TEMPAE_clean_linker_10, # of connection points: 2
#     Edge 36, Type (0, 0), BuildingBlock: TEMPAE_clean_linker_10, # of connection points: 2
#     Edge 37, Type (0, 0), BuildingBlock: TEMPAE_clean_linker_10, # of connection points: 2
#     Edge 38, Type (0, 0), BuildingBlock: TEMPAE_clean_linker_10, # of connection points: 2
#     Edge 39, Type (0, 0), BuildingBlock: TEMPAE_clean_linker_10, # of connection points: 2
#     Edge 40, Type (0, 0), BuildingBlock: TEMPAE_clean_linker_10, # of connection points: 2
#     Edge 41, Type (0, 0), BuildingBlock: TEMPAE_clean_linker_10, # of connection points: 2
#     Edge 42, Type (0, 0), BuildingBlock: TEMPAE_clean_linker_10, # of connection points: 2
#     Edge 43, Type (0, 0), BuildingBlock: TEMPAE_clean_linker_10, # of connection points: 2
#     Edge 44, Type (0, 0), BuildingBlock: TEMPAE_clean_linker_10, # of connection points: 2
#     Edge 45, Type (0, 0), BuildingBlock: TEMPAE_clean_linker_10, # of connection points: 2
#     Edge 46, Type (0, 0), BuildingBlock: TEMPAE_clean_linker_10, # of connection points: 2
#     Edge 47, Type (0, 0), BuildingBlock: TEMPAE_clean_linker_10, # of connection points: 2
# Relax obj value: 0.115
# Max RMSD: 0.104
# Mean RMSD: 0.104
data_MOF--net-uoz--node1-AZAVOO_clean_sbu_0--edge1-TEMPAE_clean_linker_10
_symmetry_space_group_name_H-M    P1
_symmetry_Int_Tables_number       1
_symmetry_cell_setting            triclinic
loop_
_symmetry_equiv_pos_as_xyz
'x, y, z'
_cell_length_a     59.685954
_cell_length_b     59.705865
_cell_length_c     22.894921
_cell_angle_alpha  89.943877
_cell_angle_beta   89.986478
_cell_angle_gamma 90.023307
loop_
_atom_site_label
_atom_site_type_symbol
_atom_site_fract_x
_atom_site_fract_y
_atom_site_fract_z
_atom_type_partial_charge
Mg0 Mg 0.00775 0.5915 0.31983 0.0
O1 O 0.00842 0.56656 0.24385 0.0
O2 O 0.00793 0.58677 0.16106 0.0
Mg3 Mg 0.00364 0.62379 0.18327 0.0
C4 C 0.00887 0.56808 0.18816 0.0
C5 C 0.00831 0.54675 0.39162 0.0
O6 O 0.9915 0.54264 0.35615 0.0
O7 O 0.0442 0.6015 0.29913 0.0
O8 O 0.03884 0.62373 0.22151 0.0
O9 O 0.96995 0.59012 0.32197 0.0
O10 O 0.98976 0.61317 0.26703 0.0
C11 C 0.05152 0.61503 0.26024 0.0
C12 C 0.97055 0.60513 0.28121 0.0
O13 O 0.01904 0.56503 0.386 0.0
Mg14 Mg 0.66136 0.7307 0.59459 0.0
O15 O 0.68581 0.72522 0.51846 0.0
O16 O 0.66728 0.71006 0.44319 0.0
Mg17 Mg 0.6303 0.71054 0.46676 0.0
C18 C 0.68534 0.71696 0.46698 0.0
C19 C 0.68862 0.74028 0.70134 0.0
O20 O 0.67286 0.72611 0.71695 0.0
O21 O 0.65012 0.7636 0.5506 0.0
O22 O 0.6332 0.74853 0.4726 0.0
O23 O 0.66515 0.69415 0.61752 0.0
O24 O 0.63918 0.70784 0.55864 0.0
C25 C 0.64001 0.76549 0.50153 0.0
C26 C 0.64884 0.69076 0.58146 0.0
O27 O 0.68874 0.7474 0.64895 0.0
Mg28 Mg 0.52901 0.4208 0.81653 0.0
O29 O 0.53482 0.44793 0.74609 0.0
O30 O 0.54542 0.43029 0.66427 0.0
Mg31 Mg 0.54436 0.39279 0.67902 0.0
C32 C 0.54125 0.44817 0.69276 0.0
C33 C 0.52508 0.46356 0.89318 0.0
O34 O 0.54411 0.46728 0.86596 0.0
O35 O 0.49485 0.41268 0.77498 0.0
O36 O 0.50662 0.39613 0.69281 0.0
O37 O 0.56608 0.4207 0.83776 0.0
O38 O 0.54989 0.39931 0.77132 0.0
C39 C 0.49093 0.40321 0.72592 0.0
C40 C 0.56788 0.4063 0.79589 0.0
O41 O 0.51388 0.44616 0.88015 0.0
Mg42 Mg 0.84807 0.2528 0.04199 0.0
O43 O 0.82017 0.25823 0.97429 0.0
O44 O 0.83643 0.26541 0.88805 0.0
Mg45 Mg 0.87417 0.26234 0.89843 0.0
C46 C 0.81906 0.26309 0.92 0.0
C47 C 0.82504 0.24825 0.16119 0.0
O48 O 0.84287 0.26036 0.17297 0.0
O49 O 0.85363 0.21712 0.00695 0.0
O50 O 0.86979 0.22544 0.92157 0.0
O51 O 0.8509 0.2901 0.05698 0.0
O52 O 0.86984 0.2714 0.99014 0.0
C53 C 0.86254 0.21116 0.95857 0.0
C54 C 0.86453 0.2903 0.01305 0.0
O55 O 0.82227 0.24126 0.10925 0.0
Mg56 Mg 0.01881 0.40334 0.81715 0.0
O57 O 0.01557 0.42861 0.89229 0.0
O58 O 0.01187 0.40928 0.97579 0.0
Mg59 Mg 0.01221 0.37212 0.9549 0.0
C60 C 0.01329 0.42769 0.94772 0.0
C61 C 0.01584 0.44771 0.74692 0.0
O62 O -0.00166 0.44934 0.78149 0.0
O63 O 0.05534 0.39605 0.84471 0.0
O64 O 0.04848 0.37716 0.92736 0.0
O65 O 0.9812 0.40197 0.80998 0.0
O66 O 0.00142 0.37973 0.86601 0.0
C67 C 0.06207 0.3856 0.89032 0.0
C68 C 0.98201 0.38629 0.849 0.0
O69 O 0.02885 0.43099 0.75278 0.0
Mg70 Mg 0.84531 0.75029 0.09054 0.0
O71 O 0.82092 0.74042 0.16405 0.0
O72 O 0.84111 0.73262 0.2439 0.0
Mg73 Mg 0.87756 0.7407 0.225 0.0
C74 C 0.82242 0.7339 0.21711 0.0
C75 C 0.81824 0.75266 0.97878 0.0
O76 O 0.83657 0.74174 0.96471 0.0
O77 O 0.84827 0.78573 0.12915 0.0
O78 O 0.86778 0.77721 0.2096 0.0
O79 O 0.85133 0.71368 0.07163 0.0
O80 O 0.87134 0.73392 0.13291 0.0
C81 C 0.85782 0.79143 0.17691 0.0
C82 C 0.86713 0.71474 0.1102 0.0
O83 O 0.81615 0.75975 0.03087 0.0
Mg84 Mg 0.52113 0.60336 0.30463 0.0
O85 O 0.528 0.58201 0.3865 0.0
O86 O 0.54465 0.60345 0.45402 0.0
Mg87 Mg 0.54347 0.63928 0.42094 0.0
C88 C 0.53737 0.58453 0.43632 0.0
C89 C 0.51412 0.55601 0.25419 0.0
O90 O 0.53248 0.55346 0.28513 0.0
O91 O 0.48897 0.61625 0.34923 0.0
O92 O 0.50537 0.63597 0.42072 0.0
O93 O 0.557 0.59804 0.27881 0.0
O94 O 0.54487 0.62646 0.33202 0.0
C95 C 0.48796 0.62809 0.39572 0.0
C96 C 0.56137 0.61531 0.31087 0.0
O97 O 0.50355 0.57445 0.25781 0.0
Mg98 Mg 0.66285 0.26023 0.53902 0.0
O99 O 0.68298 0.26077 0.6239 0.0
O100 O 0.65979 0.26901 0.69781 0.0
Mg101 Mg 0.62423 0.27053 0.66107 0.0
C102 C 0.67931 0.26472 0.67789 0.0
C103 C 0.69515 0.25743 0.43886 0.0
O104 O 0.68026 0.27271 0.42472 0.0
O105 O 0.65084 0.22485 0.56288 0.0
O106 O 0.62702 0.23366 0.63487 0.0
O107 O 0.66648 0.2977 0.53404 0.0
O108 O 0.63835 0.28021 0.57706 0.0
C109 C 0.63649 0.21928 0.60176 0.0
C110 C 0.64857 0.29864 0.56575 0.0
O111 O 0.69299 0.24735 0.4875 0.0
Mg112 Mg 0.37435 0.24124 0.54637 0.0
O113 O 0.35256 0.23904 0.6283 0.0
O114 O 0.37449 0.22969 0.70386 0.0
Mg115 Mg 0.41068 0.22844 0.67177 0.0
C116 C 0.35531 0.23424 0.68221 0.0
C117 C 0.34453 0.24559 0.44222 0.0
O118 O 0.36069 0.23166 0.42812 0.0
O119 O 0.38603 0.27623 0.57571 0.0
O120 O 0.40873 0.26552 0.64846 0.0
O121 O 0.37135 0.20377 0.53588 0.0
O122 O 0.39824 0.22073 0.58488 0.0
C123 C 0.40004 0.28072 0.61635 0.0
C124 C 0.38875 0.20241 0.56933 0.0
O125 O 0.34501 0.25459 0.49253 0.0
Mg126 Mg 0.19436 0.74971 0.14652 0.0
O127 O 0.22407 0.75406 0.20922 0.0
O128 O 0.21004 0.75541 0.29996 0.0
Mg129 Mg 0.17205 0.75454 0.29559 0.0
C130 C 0.22651 0.75543 0.26449 0.0
C131 C 0.21557 0.75006 0.02453 0.0
O132 O 0.19845 0.76372 0.01897 0.0
O133 O 0.18917 0.71304 0.17534 0.0
O134 O 0.17411 0.71858 0.26353 0.0
O135 O 0.19112 0.78707 0.13833 0.0
O136 O 0.17378 0.76685 0.20515 0.0
C137 C 0.18049 0.70556 0.22262 0.0
C138 C 0.17828 0.78629 0.18383 0.0
O139 O 0.21846 0.74016 0.07315 0.0
Mg140 Mg 0.18972 0.23121 0.05459 0.0
O141 O 0.21566 0.22999 0.98091 0.0
O142 O 0.19768 0.22031 0.89879 0.0
Mg143 Mg 0.16051 0.21572 0.91876 0.0
C144 C 0.21553 0.22556 0.92632 0.0
C145 C 0.21349 0.2409 0.16911 0.0
O146 O 0.19719 0.22711 0.18319 0.0
O147 O 0.17727 0.26506 0.01876 0.0
O148 O 0.15792 0.25285 0.94114 0.0
O149 O 0.19388 0.19396 0.07099 0.0
O150 O 0.16992 0.20889 0.00871 0.0
C151 C 0.16443 0.26857 0.97493 0.0
C152 C 0.17916 0.19133 0.03013 0.0
O153 O 0.21506 0.24735 0.11631 0.0
Mg154 Mg 0.37491 0.78105 0.64885 0.0
O155 O 0.35651 0.78127 0.56127 0.0
O156 O 0.38096 0.79062 0.49087 0.0
Mg157 Mg 0.41491 0.7968 0.53409 0.0
C158 C 0.36133 0.78513 0.50782 0.0
C159 C 0.34397 0.77097 0.74773 0.0
O160 O 0.35915 0.7851 0.76707 0.0
O161 O 0.39081 0.74727 0.62266 0.0
O162 O 0.4154 0.75967 0.5562 0.0
O163 O 0.36686 0.81771 0.65563 0.0
O164 O 0.39771 0.80397 0.61608 0.0
C165 C 0.40658 0.74385 0.58586 0.0
C166 C 0.38493 0.82089 0.62554 0.0
O167 O 0.34544 0.7643 0.69514 0.0
Mg168 Mg 0.51346 0.07152 0.77833 0.0
O169 O 0.50792 0.04411 0.70899 0.0
O170 O 0.49825 0.06133 0.62576 0.0
Mg171 Mg 0.49928 0.09896 0.63899 0.0
C172 C 0.50198 0.04361 0.65535 0.0
C173 C 0.52329 0.04973 0.89585 0.0
O174 O 0.51349 0.06873 0.90944 0.0
O175 O 0.54803 0.07965 0.73875 0.0
O176 O 0.5368 0.09631 0.65622 0.0
O177 O 0.47632 0.07197 0.79828 0.0
O178 O 0.49288 0.09285 0.73125 0.0
C179 C 0.55229 0.08945 0.69025 0.0
C180 C 0.47473 0.08604 0.75553 0.0
O181 O 0.52731 0.0457 0.84234 0.0
Mg182 Mg 0.01943 0.90333 0.3349 0.0
O183 O 0.02414 0.92846 0.26014 0.0
O184 O 0.03233 0.90918 0.17907 0.0
Mg185 Mg 0.03136 0.87189 0.20034 0.0
C186 C 0.02904 0.92763 0.20587 0.0
C187 C 0.01882 0.94789 0.40393 0.0
O188 O 0.03702 0.95025 0.37218 0.0
O189 O 0.98428 0.89532 0.29959 0.0
O190 O 0.9941 0.87471 0.22201 0.0
O191 O 0.05676 0.90242 0.35122 0.0
O192 O 0.03886 0.87994 0.29101 0.0
C193 C 0.97922 0.88314 0.25556 0.0
C194 C 0.05752 0.88653 0.31288 0.0
O195 O 0.00668 0.93064 0.39629 0.0
Mg196 Mg 0.49043 0.89004 0.26781 0.0
O197 O 0.49272 0.90931 0.35391 0.0
O198 O 0.47951 0.88746 0.42566 0.0
Mg199 Mg 0.47196 0.85307 0.38665 0.0
C200 C 0.48757 0.90601 0.40741 0.0
C201 C 0.49947 0.92172 0.16999 0.0
O202 O 0.48206 0.90949 0.15523 0.0
O203 O 0.52296 0.8719 0.29377 0.0
O204 O 0.50903 0.84991 0.3643 0.0
O205 O 0.45432 0.9008 0.26242 0.0
O206 O 0.46588 0.8693 0.30302 0.0
C207 C 0.52534 0.85682 0.33302 0.0
C208 C 0.4499 0.88319 0.29323 0.0
O209 O 0.50891 0.91779 0.21873 0.0
Mg210 Mg 0.02533 0.08927 0.82719 0.0
O211 O 0.02674 0.06575 0.90623 0.0
O212 O 0.03561 0.08632 0.98468 0.0
Mg213 Mg 0.03768 0.12304 0.95744 0.0
C214 C 0.03114 0.06755 0.96063 0.0
C215 C 0.02173 0.04361 0.76264 0.0
O216 O 0.03957 0.04016 0.79503 0.0
O217 O 0.99049 0.10101 0.85682 0.0
O218 O 0.0006 0.1225 0.93251 0.0
O219 O 0.06288 0.08622 0.81668 0.0
O220 O 0.04591 0.11197 0.86954 0.0
C221 C 0.98568 0.11444 0.89847 0.0
C222 C 0.06426 0.10289 0.85255 0.0
O223 O 0.01101 0.06186 0.76859 0.0
C224 C 0.16915 0.67306 0.28331 0.0
C225 C 0.17345 0.68188 0.22757 0.0
C226 C 0.15371 0.65562 0.29095 0.0
C227 C 0.14254 0.64685 0.24158 0.0
C228 C 0.15006 0.65277 0.18491 0.0
C229 C 0.16546 0.67043 0.17841 0.0
C230 C 0.1468 0.64931 0.35219 0.0
C231 C 0.13944 0.64282 0.13114 0.0
C232 C 0.09288 0.60725 0.26371 0.0
C233 C 0.07503 0.62245 0.26086 0.0
C234 C 0.11518 0.61471 0.25736 0.0
C235 C 0.11945 0.63786 0.24904 0.0
C236 C 0.10133 0.65322 0.24825 0.0
C237 C 0.07943 0.64526 0.25349 0.0
C238 C 0.13386 0.59772 0.25697 0.0
C239 C 0.10495 0.67816 0.24105 0.0
H240 H 0.17586 0.68146 0.32148 0.0
H241 H 0.16905 0.67687 0.13511 0.0
H242 H 0.1314 0.6587 0.36403 0.0
H243 H 0.14294 0.63118 0.35537 0.0
H244 H 0.16005 0.6535 0.38446 0.0
H245 H 0.15037 0.64486 0.0922 0.0
H246 H 0.13582 0.62476 0.13767 0.0
H247 H 0.12332 0.65146 0.12234 0.0
H248 H 0.08938 0.58952 0.26853 0.0
H249 H 0.06556 0.65698 0.25153 0.0
H250 H 0.14914 0.60425 0.27864 0.0
H251 H 0.1383 0.59381 0.21103 0.0
H252 H 0.12876 0.58188 0.27872 0.0
H253 H 0.11655 0.68444 0.27518 0.0
H254 H 0.08907 0.6878 0.24402 0.0
H255 H 0.11269 0.68165 0.19793 0.0
C256 C 0.54874 0.82488 0.3641 0.0
C257 C 0.54756 0.84727 0.3462 0.0
C258 C 0.56845 0.81597 0.3873 0.0
C259 C 0.58758 0.82984 0.39328 0.0
C260 C 0.58688 0.85224 0.37276 0.0
C261 C 0.56678 0.86073 0.34919 0.0
C262 C 0.56846 0.79181 0.40733 0.0
C263 C 0.60685 0.86757 0.37833 0.0
C264 C 0.62196 0.8029 0.51119 0.0
C265 C 0.63403 0.78756 0.47745 0.0
C266 C 0.60876 0.81941 0.48402 0.0
C267 C 0.6078 0.82036 0.42214 0.0
C268 C 0.62269 0.80714 0.38876 0.0
C269 C 0.63554 0.79074 0.41689 0.0
C270 C 0.59361 0.8337 0.52123 0.0
C271 C 0.62274 0.80803 0.32289 0.0
H272 H 0.53389 0.81444 0.36149 0.0
H273 H 0.56578 0.87815 0.33607 0.0
H274 H 0.5821 0.78244 0.38534 0.0
H275 H 0.57157 0.79099 0.45506 0.0
H276 H 0.55235 0.78321 0.39801 0.0
H277 H 0.60545 0.8823 0.34886 0.0
H278 H 0.60791 0.87375 0.42393 0.0
H279 H 0.62268 0.85859 0.36857 0.0
H280 H 0.62086 0.80049 0.55805 0.0
H281 H 0.64517 0.779 0.39088 0.0
H282 H 0.57646 0.82649 0.52086 0.0
H283 H 0.59256 0.85097 0.50358 0.0
H284 H 0.59949 0.83443 0.56723 0.0
H285 H 0.60832 0.79824 0.30601 0.0
H286 H 0.63835 0.80076 0.30447 0.0
H287 H 0.62094 0.82549 0.30703 0.0
C288 C 0.46289 0.39503 0.64914 0.0
C289 C 0.46788 0.39718 0.70873 0.0
C290 C 0.44537 0.3812 0.63037 0.0
C291 C 0.43283 0.36916 0.67237 0.0
C292 C 0.43523 0.37451 0.73236 0.0
C293 C 0.45291 0.38851 0.75008 0.0
C294 C 0.44283 0.37671 0.56587 0.0
C295 C 0.42139 0.36284 0.77829 0.0
C296 C 0.39357 0.3224 0.62181 0.0
C297 C 0.40788 0.30385 0.6261 0.0
C298 C 0.40121 0.344 0.63684 0.0
C299 C 0.42365 0.3469 0.65579 0.0
C300 C 0.43821 0.32817 0.65833 0.0
C301 C 0.4301 0.30699 0.64382 0.0
C302 C 0.38505 0.36339 0.63447 0.0
C303 C 0.46245 0.33035 0.67691 0.0
H304 H 0.47412 0.40228 0.61701 0.0
H305 H 0.45648 0.39045 0.79623 0.0
H306 H 0.45218 0.36125 0.55448 0.0
H307 H 0.425 0.37406 0.5541 0.0
H308 H 0.44964 0.39071 0.53923 0.0
H309 H 0.42133 0.37233 0.82001 0.0
H310 H 0.40387 0.36058 0.7632 0.0
H311 H 0.42855 0.346 0.78679 0.0
H312 H 0.3763 0.31992 0.60869 0.0
H313 H 0.44126 0.2927 0.64652 0.0
H314 H 0.3934 0.37898 0.6195 0.0
H315 H 0.37842 0.36651 0.67899 0.0
H316 H 0.37065 0.35978 0.60522 0.0
H317 H 0.47131 0.34241 0.64815 0.0
H318 H 0.47154 0.31413 0.67524 0.0
H319 H 0.4634 0.33682 0.72224 0.0
C320 C 0.87383 0.17318 0.99423 0.0
C321 C 0.8684 0.18746 0.9477 0.0
C322 C 0.88778 0.15454 0.98499 0.0
C323 C 0.89661 0.1506 0.92848 0.0
C324 C 0.88783 0.16256 0.8803 0.0
C325 C 0.87369 0.18084 0.89054 0.0
C326 C 0.89562 0.14112 0.03689 0.0
C327 C 0.89619 0.15855 0.81898 0.0
C328 C 0.95956 0.14494 0.92394 0.0
C329 C 0.96258 0.12278 0.90573 0.0
C330 C 0.93819 0.1539 0.93178 0.0
C331 C 0.91912 0.14019 0.92251 0.0
C332 C 0.92197 0.11761 0.90484 0.0
C333 C 0.94378 0.10919 0.89598 0.0
C334 C 0.93615 0.17826 0.94918 0.0
C335 C 0.90219 0.10218 0.89688 0.0
H336 H 0.86934 0.17785 0.03845 0.0
H337 H 0.86884 0.19141 0.85411 0.0
H338 H 0.89812 0.12329 0.02482 0.0
H339 H 0.91191 0.14784 0.05231 0.0
H340 H 0.88346 0.14211 0.07355 0.0
H341 H 0.88464 0.16572 0.78583 0.0
H342 H 0.91282 0.16665 0.81369 0.0
H343 H 0.89827 0.14041 0.81027 0.0
H344 H 0.97408 0.15553 0.93104 0.0
H345 H 0.94614 0.09193 0.8827 0.0
H346 H 0.92763 0.17963 0.99208 0.0
H347 H 0.92589 0.18748 0.91667 0.0
H348 H 0.95269 0.1867 0.95258 0.0
H349 H 0.8965 0.09631 0.94043 0.0
H350 H 0.90662 0.08726 0.87032 0.0
H351 H 0.88788 0.11091 0.87599 0.0
C352 C 0.09938 0.37287 0.85369 0.0
C353 C 0.08601 0.38061 0.89968 0.0
C354 C 0.11843 0.35973 0.86533 0.0
C355 C 0.12373 0.35414 0.92394 0.0
C356 C 0.11248 0.36517 0.97003 0.0
C357 C 0.09371 0.37833 0.95725 0.0
C358 C 0.13089 0.34928 0.81501 0.0
C359 C 0.11785 0.36023 0.03316 0.0
C360 C 0.13206 0.29224 0.95004 0.0
C361 C 0.15477 0.29092 0.96458 0.0
C362 C 0.122 0.31273 0.93683 0.0
C363 C 0.13512 0.33252 0.93672 0.0
C364 C 0.1582 0.33136 0.95128 0.0
C365 C 0.16776 0.31047 0.96573 0.0
C366 C 0.09718 0.31306 0.92328 0.0
C367 C 0.17293 0.35188 0.94971 0.0
H368 H 0.09367 0.3749 0.80904 0.0
H369 H 0.08366 0.38485 0.99287 0.0
H370 H 0.14903 0.34786 0.82504 0.0
H371 H 0.12432 0.33215 0.80723 0.0
H372 H 0.12874 0.35916 0.77425 0.0
H373 H 0.11107 0.37333 0.06271 0.0
H374 H 0.11022 0.34393 0.04553 0.0
H375 H 0.13618 0.3589 0.04008 0.0
H376 H 0.12201 0.2771 0.94949 0.0
H377 H 0.18544 0.30933 0.97611 0.0
H378 H 0.09442 0.31921 0.87813 0.0
H379 H 0.08838 0.32463 0.95344 0.0
H380 H 0.08936 0.29624 0.92728 0.0
H381 H 0.17722 0.35572 0.90362 0.0
H382 H 0.18878 0.34926 0.9742 0.0
H383 H 0.16419 0.36672 0.96783 0.0
C384 C 0.95178 0.85492 0.22291 0.0
C385 C 0.95577 0.87636 0.24522 0.0
C386 C 0.93006 0.8472 0.21298 0.0
C387 C 0.9116 0.8615 0.22432 0.0
C388 C 0.91544 0.88344 0.24581 0.0
C389 C 0.93759 0.89057 0.2567 0.0
C390 C 0.92703 0.82344 0.19133 0.0
C391 C 0.89642 0.89961 0.25578 0.0
C392 C 0.86661 0.83067 0.14715 0.0
C393 C 0.86142 0.81527 0.19136 0.0
C394 C 0.88007 0.84941 0.15958 0.0
C395 C 0.88867 0.85217 0.21679 0.0
C396 C 0.87958 0.83932 0.26299 0.0
C397 C 0.86591 0.82096 0.24963 0.0
C398 C 0.88801 0.864 0.11001 0.0
C399 C 0.88749 0.84223 0.32511 0.0
H400 H 0.96579 0.84381 0.21444 0.0
H401 H 0.9407 0.9073 0.27314 0.0
H402 H 0.91619 0.81387 0.22181 0.0
H403 H 0.91877 0.82353 0.14796 0.0
H404 H 0.94319 0.81435 0.18704 0.0
H405 H 0.90118 0.91303 0.287 0.0
H406 H 0.89204 0.90764 0.21356 0.0
H407 H 0.88118 0.89103 0.27222 0.0
H408 H 0.86266 0.82671 0.10211 0.0
H409 H 0.86119 0.80946 0.28422 0.0
H410 H 0.90421 0.85751 0.09335 0.0
H411 H 0.89068 0.88148 0.12501 0.0
H412 H 0.8758 0.86399 0.07337 0.0
H413 H 0.904 0.83391 0.33033 0.0
H414 H 0.87561 0.83457 0.35673 0.0
H415 H 0.88962 0.86019 0.336 0.0
C416 C 0.39926 0.70318 0.5655 0.0
C417 C 0.41436 0.72098 0.57227 0.0
C418 C 0.40615 0.68295 0.53931 0.0
C419 C 0.42857 0.68072 0.51965 0.0
C420 C 0.44411 0.69821 0.53015 0.0
C421 C 0.4368 0.71804 0.55626 0.0
C422 C 0.38913 0.66465 0.5297 0.0
C423 C 0.46832 0.69654 0.51102 0.0
C424 C 0.46342 0.63079 0.48201 0.0
C425 C 0.46636 0.63429 0.42197 0.0
C426 C 0.44821 0.64376 0.51409 0.0
C427 C 0.43618 0.66095 0.48539 0.0
C428 C 0.43684 0.66234 0.42353 0.0
C429 C 0.45201 0.64889 0.39232 0.0
C430 C 0.44743 0.64113 0.57959 0.0
C431 C 0.42389 0.68011 0.39109 0.0
H432 H 0.38182 0.70551 0.5773 0.0
H433 H 0.44851 0.73177 0.56185 0.0
H434 H 0.38265 0.66579 0.48439 0.0
H435 H 0.39672 0.64782 0.53527 0.0
H436 H 0.37471 0.66629 0.56009 0.0
H437 H 0.47831 0.71142 0.52407 0.0
H438 H 0.47623 0.68144 0.53029 0.0
H439 H 0.4692 0.69488 0.4628 0.0
H440 H 0.47453 0.61937 0.50483 0.0
H441 H 0.45438 0.65163 0.34589 0.0
H442 H 0.43024 0.64396 0.59647 0.0
H443 H 0.45862 0.65375 0.59998 0.0
H444 H 0.45317 0.62423 0.59335 0.0
H445 H 0.40673 0.6818 0.40911 0.0
H446 H 0.42274 0.67634 0.34367 0.0
H447 H 0.43247 0.69648 0.39639 0.0
C448 C 0.60774 0.19097 0.6259 0.0
C449 C 0.62979 0.19565 0.60911 0.0
C450 C 0.60077 0.16909 0.63747 0.0
C451 C 0.61637 0.15126 0.63315 0.0
C452 C 0.6387 0.15577 0.61558 0.0
C453 C 0.64514 0.17801 0.60329 0.0
C454 C 0.5766 0.16516 0.65465 0.0
C455 C 0.65598 0.13741 0.61181 0.0
C456 C 0.58911 0.1057 0.71942 0.0
C457 C 0.57525 0.09684 0.67581 0.0
C458 C 0.60585 0.12134 0.705 0.0
C459 C 0.6084 0.12816 0.64605 0.0
C460 C 0.59722 0.11617 0.60151 0.0
C461 C 0.58072 0.10058 0.61701 0.0
C462 C 0.61839 0.13291 0.75349 0.0
C463 C 0.59993 0.12233 0.53796 0.0
H464 H 0.5958 0.20457 0.62998 0.0
H465 H 0.66231 0.18167 0.59105 0.0
H466 H 0.56868 0.15304 0.62431 0.0
H467 H 0.57578 0.15792 0.69924 0.0
H468 H 0.56655 0.18082 0.65418 0.0
H469 H 0.6705 0.14246 0.58442 0.0
H470 H 0.66224 0.13364 0.65638 0.0
H471 H 0.64873 0.12175 0.59388 0.0
H472 H 0.5852 0.10258 0.76496 0.0
H473 H 0.57038 0.09324 0.58308 0.0
H474 H 0.60993 0.14897 0.76394 0.0
H475 H 0.63582 0.13678 0.73997 0.0
H476 H 0.61878 0.12252 0.79376 0.0
H477 H 0.58969 0.13741 0.52843 0.0
H478 H 0.59424 0.10859 0.50882 0.0
H479 H 0.61763 0.12638 0.52764 0.0
C480 C 0.9409 0.38761 0.87291 0.0
C481 C 0.96162 0.37658 0.87546 0.0
C482 C 0.92164 0.37794 0.89794 0.0
C483 C 0.92315 0.35656 0.92454 0.0
C484 C 0.94414 0.34557 0.9277 0.0
C485 C 0.96309 0.3558 0.90361 0.0
C486 C 0.89967 0.39037 0.89489 0.0
C487 C 0.94652 0.32259 0.95485 0.0
C488 C 0.88294 0.32745 0.02699 0.0
C489 C 0.87412 0.31119 0.98947 0.0
C490 C 0.89727 0.34423 0.00534 0.0
C491 C 0.90286 0.34445 0.94515 0.0
C492 C 0.89187 0.32959 0.9065 0.0
C493 C 0.87748 0.31325 0.92921 0.0
C494 C 0.90807 0.36029 0.04766 0.0
C495 C 0.89714 0.32927 0.84198 0.0
H496 H 0.93976 0.40379 0.85161 0.0
H497 H 0.97903 0.34714 0.90546 0.0
H498 H 0.88871 0.38246 0.8617 0.0
H499 H 0.89077 0.38953 0.9374 0.0
H500 H 0.90205 0.40824 0.88275 0.0
H501 H 0.96413 0.31656 0.95468 0.0
H502 H 0.94047 0.32285 1.00064 0.0
H503 H 0.93608 0.31035 0.93058 0.0
H504 H 0.8801 0.32604 0.07362 0.0
H505 H 0.86976 0.30136 0.89989 0.0
H506 H 0.9093 0.37731 0.02844 0.0
H507 H 0.92534 0.35454 0.05752 0.0
H508 H 0.89861 0.36126 0.08938 0.0
H509 H 0.89719 0.34647 0.82378 0.0
H510 H 0.88496 0.31897 0.81698 0.0
H511 H 0.91412 0.32215 0.8353 0.0
C512 C 0.44927 0.09223 0.67224 0.0
C513 C 0.45313 0.09373 0.73236 0.0
C514 C 0.43337 0.10593 0.64502 0.0
C515 C 0.42126 0.12156 0.67903 0.0
C516 C 0.42292 0.12083 0.7408 0.0
C517 C 0.439 0.10685 0.76695 0.0
C518 C 0.43189 0.10579 0.5792 0.0
C519 C 0.40987 0.13682 0.77871 0.0
C520 C 0.41877 0.17968 0.61413 0.0
C521 C 0.39665 0.18104 0.59424 0.0
C522 C 0.42678 0.16041 0.64166 0.0
C523 C 0.41223 0.14194 0.65011 0.0
C524 C 0.38985 0.14303 0.62962 0.0
C525 C 0.38231 0.16263 0.60153 0.0
C526 C 0.45092 0.15991 0.66177 0.0
C527 C 0.3738 0.12381 0.63859 0.0
H528 H 0.45992 0.08164 0.64577 0.0
H529 H 0.442 0.1079 0.81359 0.0
H530 H 0.41437 0.10816 0.56438 0.0
H531 H 0.44202 0.11984 0.56148 0.0
H532 H 0.43845 0.08991 0.56054 0.0
H533 H 0.40913 0.13097 0.82475 0.0
H534 H 0.41813 0.15348 0.77795 0.0
H535 H 0.39255 0.13897 0.76204 0.0
H536 H 0.42994 0.19383 0.60816 0.0
H537 H 0.3651 0.16377 0.58672 0.0
H538 H 0.45989 0.14578 0.64074 0.0
H539 H 0.45166 0.15724 0.70969 0.0
H540 H 0.46 0.17565 0.65131 0.0
H541 H 0.38166 0.10771 0.62585 0.0
H542 H 0.35807 0.12603 0.6133 0.0
H543 H 0.36946 0.12257 0.6856 0.0
C544 C 0.59132 0.6414 0.33847 0.0
C545 C 0.58372 0.61933 0.33523 0.0
C546 C 0.60784 0.64751 0.3787 0.0
C547 C 0.61658 0.63114 0.4174 0.0
C548 C 0.61075 0.60833 0.40967 0.0
C549 C 0.59427 0.60265 0.36833 0.0
C550 C 0.61367 0.67202 0.38455 0.0
C551 C 0.61995 0.59027 0.44898 0.0
C552 C 0.65855 0.65967 0.51499 0.0
C553 C 0.64395 0.66872 0.55663 0.0
C554 C 0.65055 0.64471 0.47243 0.0
C555 C 0.62753 0.63894 0.47206 0.0
C556 C 0.61364 0.64568 0.51912 0.0
C557 C 0.62201 0.66074 0.56053 0.0
C558 C 0.66607 0.63744 0.42407 0.0
C559 C 0.5891 0.63954 0.52143 0.0
H560 H 0.58298 0.65423 0.31291 0.0
H561 H 0.58812 0.58557 0.36624 0.0
H562 H 0.60515 0.67892 0.42368 0.0
H563 H 0.63197 0.67431 0.39034 0.0
H564 H 0.60824 0.68188 0.34589 0.0
H565 H 0.61978 0.57373 0.4268 0.0
H566 H 0.63731 0.59413 0.46312 0.0
H567 H 0.60931 0.58894 0.48858 0.0
H568 H 0.67549 0.66612 0.51169 0.0
H569 H 0.61076 0.66796 0.59263 0.0
H570 H 0.66444 0.64918 0.38671 0.0
H571 H 0.66178 0.62039 0.40834 0.0
H572 H 0.68382 0.63765 0.43862 0.0
H573 H 0.57985 0.64939 0.48813 0.0
H574 H 0.58164 0.64311 0.5649 0.0
H575 H 0.58665 0.62155 0.51142 0.0
C576 C 0.15921 0.80645 0.26522 0.0
C577 C 0.16781 0.80668 0.2083 0.0
C578 C 0.14493 0.82344 0.28491 0.0
C579 C 0.13904 0.84106 0.24654 0.0
C580 C 0.14958 0.84267 0.19126 0.0
C581 C 0.16393 0.82541 0.17273 0.0
C582 C 0.13437 0.82121 0.34459 0.0
C583 C 0.14404 0.86141 0.14946 0.0
C584 C 0.078 0.85674 0.25945 0.0
C585 C 0.07879 0.87628 0.29328 0.0
C586 C 0.09757 0.84576 0.24219 0.0
C587 C 0.11863 0.85445 0.25927 0.0
C588 C 0.11969 0.87455 0.29201 0.0
C589 C 0.09968 0.88521 0.30901 0.0
C590 C 0.09559 0.82431 0.20748 0.0
C591 C 0.14185 0.88439 0.31057 0.0
H592 H 0.16269 0.79246 0.29368 0.0
H593 H 0.17075 0.82583 0.12885 0.0
H594 H 0.13413 0.83756 0.36744 0.0
H595 H 0.11674 0.81558 0.33968 0.0
H596 H 0.14334 0.80885 0.37235 0.0
H597 H 0.15681 0.86298 0.11438 0.0
H598 H 0.12758 0.85801 0.12874 0.0
H599 H 0.14271 0.87763 0.17283 0.0
H600 H 0.06198 0.84952 0.24769 0.0
H601 H 0.10039 0.90034 0.33505 0.0
H602 H 0.10224 0.8101 0.23348 0.0
H603 H 0.10569 0.82546 0.16692 0.0
H604 H 0.07799 0.82045 0.19529 0.0
H605 H 0.14909 0.87408 0.34619 0.0
H606 H 0.14003 0.90185 0.32666 0.0
H607 H 0.15396 0.88424 0.2738 0.0
C608 C 0.95102 0.61773 0.19138 0.0
C609 C 0.95019 0.61298 0.25121 0.0
C610 C 0.93408 0.63024 0.16441 0.0
C611 C 0.91595 0.63819 0.19838 0.0
C612 C 0.9138 0.63124 0.25735 0.0
C613 C 0.93102 0.61859 0.28319 0.0
C614 C 0.93694 0.63693 0.10124 0.0
C615 C 0.89458 0.63913 0.29486 0.0
C616 C 0.899 0.69765 0.16335 0.0
C617 C 0.87917 0.69471 0.13154 0.0
C618 C 0.91078 0.67937 0.18585 0.0
C619 C 0.90258 0.65743 0.17638 0.0
C620 C 0.88254 0.65422 0.14428 0.0
C621 C 0.87106 0.67297 0.12192 0.0
C622 C 0.93222 0.68362 0.21928 0.0
C623 C 0.87329 0.63106 0.13368 0.0
H624 H 0.96545 0.61259 0.16612 0.0
H625 H 0.9303 0.6147 0.32942 0.0
H626 H 0.92076 0.63609 0.07756 0.0
H627 H 0.94294 0.65451 0.09905 0.0
H628 H 0.94931 0.62614 0.07841 0.0
H629 H 0.89276 0.62875 0.33489 0.0
H630 H 0.89764 0.65671 0.30834 0.0
H631 H 0.8786 0.63875 0.27018 0.0
H632 H 0.90554 0.71438 0.17033 0.0
H633 H 0.85567 0.67064 0.09755 0.0
H634 H 0.94649 0.67545 0.19672 0.0
H635 H 0.93103 0.67624 0.26367 0.0
H636 H 0.93601 0.70176 0.2237 0.0
H637 H 0.88572 0.6208 0.1096 0.0
H638 H 0.85743 0.63141 0.10832 0.0
H639 H 0.87015 0.62255 0.176 0.0
C640 C 0.10486 0.09719 0.87872 0.0
C641 C 0.08573 0.11081 0.87702 0.0
C642 C 0.12477 0.10486 0.90508 0.0
C643 C 0.12554 0.12677 0.92877 0.0
C644 C 0.10625 0.14056 0.92639 0.0
C645 C 0.08665 0.13236 0.90089 0.0
C646 C 0.14491 0.08962 0.907 0.0
C647 C 0.10625 0.16417 0.9504 0.0
C648 C 0.16227 0.15358 0.04141 0.0
C649 C 0.17317 0.16933 0.00619 0.0
C650 C 0.14886 0.13686 0.01601 0.0
C651 C 0.14636 0.13626 0.95443 0.0
C652 C 0.16011 0.15001 0.91907 0.0
C653 C 0.17333 0.16649 0.94555 0.0
C654 C 0.13505 0.12195 0.05518 0.0
C655 C 0.1584 0.14967 0.85332 0.0
H656 H 0.10415 0.08046 0.86046 0.0
H657 H 0.07198 0.14304 0.89918 0.0
H658 H 0.15691 0.09466 0.87241 0.0
H659 H 0.15371 0.09093 0.94956 0.0
H660 H 0.14021 0.07185 0.89951 0.0
H661 H 0.0898 0.17262 0.94491 0.0
H662 H 0.11041 0.16393 0.99761 0.0
H663 H 0.1192 0.17436 0.92793 0.0
H664 H 0.16228 0.15575 0.08843 0.0
H665 H 0.18223 0.17844 0.91848 0.0
H666 H 0.1334 0.10492 0.03629 0.0
H667 H 0.11797 0.12908 0.05957 0.0
H668 H 0.14251 0.12061 0.09951 0.0
H669 H 0.15691 0.13228 0.83687 0.0
H670 H 0.17315 0.15775 0.83246 0.0
H671 H 0.14315 0.15894 0.83971 0.0
C672 C 0.61871 0.32187 0.60944 0.0
C673 C 0.64135 0.31936 0.59514 0.0
C674 C 0.61138 0.33985 0.64349 0.0
C675 C 0.62718 0.35558 0.66477 0.0
C676 C 0.65005 0.35354 0.64903 0.0
C677 C 0.65688 0.33543 0.61391 0.0
C678 C 0.58672 0.34159 0.65804 0.0
C679 C 0.6674 0.36979 0.67134 0.0
C680 C 0.59507 0.40596 0.71507 0.0
C681 C 0.5895 0.39926 0.77181 0.0
C682 C 0.60992 0.39329 0.68111 0.0
C683 C 0.61926 0.37349 0.70484 0.0
C684 C 0.616 0.36846 0.76479 0.0
C685 C 0.60091 0.38138 0.79763 0.0
C686 C 0.61314 0.39948 0.61774 0.0
C687 C 0.6261 0.34781 0.79217 0.0
H688 H 0.6067 0.30948 0.59465 0.0
H689 H 0.67446 0.33331 0.60342 0.0
H690 H 0.58426 0.33975 0.70585 0.0
H691 H 0.58021 0.3583 0.6453 0.0
H692 H 0.57656 0.32859 0.63564 0.0
H693 H 0.68343 0.36839 0.64695 0.0
H694 H 0.66128 0.38729 0.6683 0.0
H695 H 0.67077 0.36623 0.71809 0.0
H696 H 0.58628 0.41993 0.69542 0.0
H697 H 0.59643 0.37617 0.8415 0.0
H698 H 0.60196 0.38896 0.59039 0.0
H699 H 0.63062 0.39633 0.60357 0.0
H700 H 0.60896 0.41734 0.60951 0.0
H701 H 0.61637 0.33287 0.77846 0.0
H702 H 0.62582 0.3487 0.84063 0.0
H703 H 0.64364 0.34544 0.77739 0.0
C704 C 0.41037 0.84753 0.57752 0.0
C705 C 0.38838 0.84108 0.58988 0.0
C706 C 0.41529 0.86045 0.52825 0.0
C707 C 0.39769 0.86709 0.49042 0.0
C708 C 0.37517 0.8631 0.50702 0.0
C709 C 0.37073 0.84998 0.55681 0.0
C710 C 0.43959 0.86426 0.51289 0.0
C711 C 0.35588 0.87047 0.46913 0.0
C712 C 0.42319 0.89932 0.36517 0.0
C713 C 0.42961 0.88142 0.32934 0.0
C714 C 0.41011 0.89551 0.41534 0.0
C715 C 0.4035 0.87334 0.42932 0.0
C716 C 0.40746 0.85588 0.38871 0.0
C717 C 0.42063 0.86014 0.33937 0.0
C718 C 0.40578 0.91467 0.45664 0.0
C719 C 0.40038 0.83204 0.40099 0.0
H720 H 0.42398 0.84066 0.60334 0.0
H721 H 0.35366 0.8449 0.56621 0.0
H722 H 0.44475 0.85185 0.47943 0.0
H723 H 0.4421 0.88118 0.49433 0.0
H724 H 0.45071 0.8623 0.55147 0.0
H725 H 0.34041 0.87275 0.49544 0.0
H726 H 0.35974 0.88635 0.44597 0.0
H727 H 0.35247 0.85741 0.43587 0.0
H728 H 0.4303 0.91579 0.35764 0.0
H729 H 0.42561 0.84635 0.31141 0.0
H730 H 0.41912 0.91507 0.49038 0.0
H731 H 0.38944 0.91267 0.47924 0.0
H732 H 0.40597 0.93099 0.43329 0.0
H733 H 0.41105 0.82498 0.43616 0.0
H734 H 0.40201 0.82118 0.36183 0.0
H735 H 0.38275 0.83143 0.4162 0.0
C736 C 0.99666 0.52906 0.16797 0.0
C737 C 0.01004 0.54748 0.15337 0.0
C738 C 0.99671 0.50974 0.1332 0.0
C739 C 0.01116 0.50863 0.08419 0.0
C740 C 0.0251 0.52705 0.07018 0.0
C741 C 0.02404 0.54648 0.10439 0.0
C742 C 0.98111 0.49069 0.14838 0.0
C743 C 0.04131 0.52615 0.01958 0.0
C744 C 0.02605 0.45037 0.03192 0.0
C745 C 0.01304 0.4486 0.98128 0.0
C746 C 0.02602 0.47007 0.06503 0.0
C747 C 0.01196 0.48802 0.04816 0.0
C748 C -0.0014 0.4862 0.99723 0.0
C749 C -0.00035 0.46659 0.96361 0.0
C750 C 0.04112 0.47171 0.11781 0.0
C751 C 0.98287 0.50474 0.97901 0.0
H752 H 0.98567 0.53004 0.20561 0.0
H753 H 0.03446 0.56077 0.09351 0.0
H754 H 0.97036 0.48663 0.11027 0.0
H755 H 0.99093 0.47544 0.15888 0.0
H756 H 0.97018 0.49467 0.18623 0.0
H757 H 0.05154 0.54164 0.01589 0.0
H758 H 0.05275 0.51164 0.02482 0.0
H759 H 0.03206 0.52371 0.97808 0.0
H760 H 0.03655 0.43642 0.04502 0.0
H761 H 0.98951 0.46503 0.92452 0.0
H762 H 0.0309 0.47365 0.15794 0.0
H763 H 0.05196 0.48676 0.11422 0.0
H764 H 0.05196 0.45672 0.12294 0.0
H765 H 0.9709 0.50834 0.0149 0.0
H766 H 0.97322 0.50042 0.93909 0.0
H767 H 0.99243 0.52034 0.97058 0.0
C768 C 0.78139 0.73846 0.23505 0.0
C769 C 0.80183 0.72841 0.24985 0.0
C770 C 0.76226 0.73509 0.26957 0.0
C771 C 0.76355 0.72097 0.31921 0.0
C772 C 0.78387 0.70994 0.33266 0.0
C773 C 0.80285 0.71398 0.29816 0.0
C774 C 0.74093 0.74739 0.25436 0.0
C775 C 0.78574 0.69436 0.38444 0.0
C776 C 0.72309 0.73232 0.44325 0.0
C777 C 0.70611 0.71669 0.43203 0.0
C778 C 0.74195 0.73377 0.40698 0.0
C779 C 0.74407 0.71891 0.35913 0.0
C780 C 0.72739 0.70253 0.34888 0.0
C781 C 0.70846 0.70177 0.38515 0.0
C782 C 0.75928 0.75164 0.41886 0.0
C783 C 0.72937 0.68607 0.29912 0.0
H784 H 0.78058 0.74969 0.19788 0.0
H785 H 0.81857 0.70597 0.30932 0.0
H786 H 0.72681 0.73541 0.25026 0.0
H787 H 0.73662 0.75922 0.29 0.0
H788 H 0.74242 0.75697 0.21292 0.0
H789 H 0.8021 0.68549 0.38567 0.0
H790 H 0.78384 0.70402 0.42549 0.0
H791 H 0.77211 0.68172 0.38338 0.0
H792 H 0.72126 0.74399 0.47918 0.0
H793 H 0.69543 0.68953 0.37668 0.0
H794 H 0.76057 0.76303 0.38068 0.0
H795 H 0.77598 0.74388 0.42524 0.0
H796 H 0.7552 0.76177 0.45812 0.0
H797 H 0.72889 0.69515 0.25685 0.0
H798 H 0.71569 0.67345 0.29948 0.0
H799 H 0.74568 0.67721 0.3014 0.0
C800 C 0.55476 0.56532 0.52206 0.0
C801 C 0.53937 0.56504 0.47572 0.0
C802 C 0.55643 0.54716 0.56071 0.0
C803 C 0.54216 0.52846 0.55322 0.0
C804 C 0.52659 0.52809 0.50658 0.0
C805 C 0.52551 0.54632 0.46808 0.0
C806 C 0.57353 0.54792 0.60926 0.0
C807 C 0.51099 0.50847 0.49746 0.0
C808 C 0.55711 0.47117 0.61203 0.0
C809 C 0.54329 0.46969 0.66145 0.0
C810 C 0.55765 0.49063 0.57789 0.0
C811 C 0.54379 0.50892 0.59309 0.0
C812 C 0.53044 0.50788 0.64418 0.0
C813 C 0.53049 0.48828 0.67814 0.0
C814 C 0.57245 0.49128 0.52436 0.0
C815 C 0.51533 0.52703 0.66145 0.0
H816 H 0.56565 0.57968 0.5279 0.0
H817 H 0.5135 0.54607 0.43256 0.0
H818 H 0.56505 0.54645 0.6522 0.0
H819 H 0.58516 0.5335 0.60539 0.0
H820 H 0.5835 0.56364 0.60874 0.0
H821 H 0.49943 0.51109 0.46004 0.0
H822 H 0.52085 0.49304 0.4894 0.0
H823 H 0.50087 0.50559 0.53743 0.0
H824 H 0.56729 0.45694 0.59943 0.0
H825 H 0.51977 0.48717 0.71627 0.0
H826 H 0.58285 0.50668 0.52434 0.0
H827 H 0.56189 0.49173 0.48449 0.0
H828 H 0.5837 0.4765 0.52167 0.0
H829 H 0.52498 0.5429 0.66339 0.0
H830 H 0.50718 0.5242 0.70446 0.0
H831 H 0.50208 0.52923 0.62794 0.0
C832 C 0.77884 0.25222 0.91073 0.0
C833 C 0.79694 0.26534 0.89206 0.0
C834 C 0.75849 0.25239 0.88001 0.0
C835 C 0.75615 0.26644 0.83051 0.0
C836 C 0.77401 0.28063 0.81354 0.0
C837 C 0.79431 0.27968 0.84409 0.0
C838 C 0.73995 0.23674 0.89869 0.0
C839 C 0.77195 0.29625 0.76188 0.0
C840 C 0.71692 0.25073 0.70731 0.0
C841 C 0.69843 0.26449 0.71858 0.0
C842 C 0.73549 0.25066 0.7447 0.0
C843 C 0.73577 0.26514 0.79363 0.0
C844 C 0.71708 0.27899 0.80545 0.0
C845 C 0.69846 0.2783 0.76807 0.0
C846 C 0.75493 0.2353 0.73136 0.0
C847 C 0.71704 0.29502 0.85642 0.0
H848 H 0.78092 0.24103 0.94767 0.0
H849 H 0.80825 0.29003 0.83006 0.0
H850 H 0.72398 0.24604 0.90375 0.0
H851 H 0.73726 0.2239 0.86438 0.0
H852 H 0.74381 0.22809 0.94047 0.0
H853 H 0.78651 0.30777 0.75814 0.0
H854 H 0.77074 0.28635 0.72102 0.0
H855 H 0.75644 0.30639 0.76544 0.0
H856 H 0.71681 0.23988 0.66935 0.0
H857 H 0.68421 0.28907 0.77656 0.0
H858 H 0.759 0.22495 0.77021 0.0
H859 H 0.77002 0.24537 0.7208 0.0
H860 H 0.7514 0.22398 0.694 0.0
H861 H 0.72037 0.28587 0.8977 0.0
H862 H 0.70087 0.30409 0.86072 0.0
H863 H 0.73066 0.30749 0.85087 0.0
C864 C 0.25389 0.24117 0.91087 0.0
C865 C 0.23674 0.22659 0.89346 0.0
C866 C 0.27372 0.24296 0.87829 0.0
C867 C 0.27659 0.22943 0.8281 0.0
C868 C 0.25956 0.21426 0.81127 0.0
C869 C 0.23971 0.21322 0.84379 0.0
C870 C 0.29136 0.25964 0.89679 0.0
C871 C 0.26226 0.1992 0.75876 0.0
C872 C 0.31666 0.24669 0.7078 0.0
C873 C 0.33551 0.2336 0.72071 0.0
C874 C 0.29759 0.24597 0.74347 0.0
C875 C 0.29721 0.23141 0.79229 0.0
C876 C 0.31621 0.21819 0.8056 0.0
C877 C 0.33526 0.21964 0.76997 0.0
C878 C 0.27779 0.26066 0.72867 0.0
C879 C 0.31621 0.2021 0.85656 0.0
H880 H 0.25154 0.25162 0.94908 0.0
H881 H 0.22655 0.20176 0.83063 0.0
H882 H 0.30752 0.25099 0.90459 0.0
H883 H 0.29417 0.27199 0.86128 0.0
H884 H 0.28658 0.26881 0.93711 0.0
H885 H 0.24789 0.18756 0.75331 0.0
H886 H 0.26384 0.20947 0.71857 0.0
H887 H 0.27784 0.18919 0.7629 0.0
H888 H 0.3169 0.25765 0.67002 0.0
H889 H 0.34977 0.20938 0.77978 0.0
H890 H 0.27307 0.27096 0.76706 0.0
H891 H 0.26311 0.25009 0.71756 0.0
H892 H 0.28128 0.272 0.69125 0.0
H893 H 0.31257 0.21119 0.8977 0.0
H894 H 0.33246 0.19324 0.86142 0.0
H895 H 0.30277 0.18946 0.85063 0.0
C896 C 0.32219 0.79098 0.475 0.0
C897 C 0.3436 0.7825 0.46397 0.0
C898 C 0.30462 0.78725 0.43564 0.0
C899 C 0.30847 0.77401 0.38531 0.0
C900 C 0.33025 0.76582 0.37338 0.0
C901 C 0.34771 0.77051 0.41255 0.0
C902 C 0.28179 0.79689 0.44892 0.0
C903 C 0.33484 0.75112 0.32112 0.0
C904 C 0.25564 0.74473 0.33617 0.0
C905 C 0.24905 0.75808 0.28902 0.0
C906 C 0.27583 0.74884 0.36536 0.0
C907 C 0.28921 0.76731 0.34828 0.0
C908 C 0.28295 0.78042 0.29932 0.0
C909 C 0.263 0.77539 0.26957 0.0
C910 C 0.2823 0.73403 0.41614 0.0
C911 C 0.29646 0.80059 0.28084 0.0
H912 H 0.31918 0.80046 0.51462 0.0
H913 H 0.36434 0.76388 0.40446 0.0
H914 H 0.27501 0.80564 0.40998 0.0
H915 H 0.27 0.78316 0.46003 0.0
H916 H 0.28224 0.80886 0.48603 0.0
H917 H 0.353 0.74765 0.31548 0.0
H918 H 0.32591 0.73494 0.3265 0.0
H919 H 0.32838 0.75904 0.28065 0.0
H920 H 0.24476 0.73129 0.35081 0.0
H921 H 0.25764 0.78582 0.23337 0.0
H922 H 0.28058 0.74349 0.45756 0.0
H923 H 0.30008 0.72879 0.41227 0.0
H924 H 0.27165 0.7188 0.41895 0.0
H925 H 0.29502 0.8138 0.3147 0.0
H926 H 0.29062 0.8076 0.23852 0.0
H927 H 0.31446 0.79626 0.27698 0.0
C928 C 0.47772 0.92554 0.50039 0.0
C929 C 0.49069 0.92449 0.4494 0.0
C930 C 0.47955 0.94374 0.53875 0.0
C931 C 0.49504 0.96104 0.52626 0.0
C932 C 0.5088 0.95963 0.47604 0.0
C933 C 0.5063 0.94147 0.43786 0.0
C934 C 0.46429 0.94489 0.59127 0.0
C935 C 0.52575 0.97761 0.46175 0.0
C936 C 0.48447 0.02017 0.57822 0.0
C937 C 0.49919 0.02187 0.62571 0.0
C938 C 0.48238 0.00017 0.54693 0.0
C939 C 0.49566 0.98152 0.56285 0.0
C940 C 0.5102 0.98292 0.6116 0.0
C941 C 0.51163 0.00309 0.64293 0.0
C942 C 0.46635 -0.00082 0.49593 0.0
C943 C 0.52479 0.96342 0.62929 0.0
H944 H 0.46559 0.91252 0.50941 0.0
H945 H 0.51654 0.9406 0.39882 0.0
H946 H 0.47421 0.94763 0.63159 0.0
H947 H 0.45273 0.95933 0.58664 0.0
H948 H 0.45414 0.92942 0.59669 0.0
H949 H 0.53645 0.97305 0.42386 0.0
H950 H 0.51696 0.99351 0.45147 0.0
H951 H 0.53669 0.98081 0.50002 0.0
H952 H 0.47458 0.03458 0.5653 0.0
H953 H 0.52306 0.0044 0.67956 0.0
H954 H 0.45492 0.98462 0.50061 0.0
H955 H 0.47586 0.99687 0.45474 0.0
H956 H 0.45608 0.01462 0.49196 0.0
H957 H 0.51445 0.94817 0.63568 0.0
H958 H 0.53425 0.9668 0.67013 0.0
H959 H 0.53694 0.95973 0.59389 0.0
C960 C 0.01738 0.02903 0.98306 0.0
C961 C 0.0312 0.0472 0.99718 0.0
C962 C 0.01698 0.00978 0.01818 0.0
C963 C 0.03122 0.00849 0.06755 0.0
C964 C 0.04548 0.02666 0.08143 0.0
C965 C 0.04507 0.04595 0.04647 0.0
C966 C 0.0012 0.99091 0.00278 0.0
C967 C 0.06132 0.02563 0.1328 0.0
C968 C 0.01712 0.96708 0.18793 0.0
C969 C 0.03036 0.94867 0.17226 0.0
C970 C 0.01718 0.98668 0.15409 0.0
C971 C 0.03127 0.98804 0.10445 0.0
C972 C 0.04517 0.96972 0.0895 0.0
C973 C 0.04432 0.95012 0.12316 0.0
C974 C 0.00177 0.00571 0.17061 0.0
C975 C 0.06086 0.97079 0.0378 0.0
H976 H 0.00654 0.03005 0.94516 0.0
H977 H 0.05594 0.05991 0.05712 0.0
H978 H 0.01085 0.97544 0.99362 0.0
H979 H 0.99 0.98727 0.04031 0.0
H980 H 0.99071 0.99486 0.96404 0.0
H981 H 0.0717 0.041 0.13677 0.0
H982 H 0.05173 0.02336 0.17389 0.0
H983 H 0.07261 0.01097 0.12831 0.0
H984 H 0.00619 0.96591 0.22565 0.0
H985 H 0.05471 0.93594 0.1113 0.0
H986 H 0.99006 0.00925 0.1341 0.0
H987 H 0.01162 0.02118 0.17836 0.0
H988 H 0.99182 0.00196 0.21045 0.0
H989 H 0.05111 0.97277 0.9969 0.0
H990 H 0.07142 0.95554 0.03396 0.0
H991 H 0.072 0.98561 0.04162 0.0
C992 C 0.00427 0.48213 0.69238 0.0
C993 C 0.01856 0.46357 0.69741 0.0
C994 C 0.00475 0.49594 0.64275 0.0
C995 C 0.01986 0.49109 0.59677 0.0
C996 C 0.03496 0.47292 0.60253 0.0
C997 C 0.03416 0.4594 0.65284 0.0
C998 C 0.98848 0.51525 0.63861 0.0
C999 C 0.05135 0.46724 0.55455 0.0
C1000 C 0.00108 0.51134 0.44723 0.0
C1001 C 0.01308 0.53142 0.44122 0.0
C1002 C 0.00376 0.49767 0.49668 0.0
C1003 C 0.01876 0.50424 0.54143 0.0
C1004 C 0.03155 0.52405 0.53469 0.0
C1005 C 0.02858 0.53739 0.48464 0.0
C1006 C 0.98991 0.47659 0.50197 0.0
C1007 C 0.04773 0.53161 0.58135 0.0
H1008 H 0.99225 0.4856 0.7267 0.0
H1009 H 0.04528 0.44511 0.6563 0.0
H1010 H 0.99756 0.531 0.62845 0.0
H1011 H 0.97649 0.5122 0.60246 0.0
H1012 H 0.97883 0.51766 0.67962 0.0
H1013 H 0.0632 0.45381 0.56771 0.0
H1014 H 0.04205 0.46158 0.51528 0.0
H1015 H 0.06109 0.4823 0.54183 0.0
H1016 H 0.98917 0.50649 0.41383 0.0
H1017 H 0.03797 0.55285 0.4804 0.0
H1018 H 0.97809 0.4782 0.53913 0.0
H1019 H 0.00088 0.46202 0.51121 0.0
H1020 H 0.98012 0.47307 0.46175 0.0
H1021 H 0.03834 0.53608 0.6215 0.0
H1022 H 0.05774 0.54637 0.56743 0.0
H1023 H 0.05936 0.51781 0.59296 0.0
C1024 C 0.80052 0.74249 0.88372 0.0
C1025 C 0.79981 0.75486 0.93576 0.0
C1026 C 0.7825 0.74268 0.84445 0.0
C1027 C 0.76338 0.75584 0.85696 0.0
C1028 C 0.76298 0.76924 0.90799 0.0
C1029 C 0.78113 0.76844 0.94712 0.0
C1030 C 0.78351 0.72789 0.791 0.0
C1031 C 0.74307 0.78382 0.92222 0.0
C1032 C 0.72251 0.76273 0.73047 0.0
C1033 C 0.70682 0.74589 0.74289 0.0
C1034 C 0.74053 0.76694 0.76859 0.0
C1035 C 0.74309 0.7537 0.81955 0.0
C1036 C 0.72699 0.73706 0.83285 0.0
C1037 C 0.70899 0.73351 0.79469 0.0
C1038 C 0.75713 0.78514 0.7536 0.0
C1039 C 0.72924 0.72232 0.88623 0.0
H1040 H 0.81488 0.73197 0.87448 0.0
H1041 H 0.78055 0.77821 0.98698 0.0
H1042 H 0.7705 0.71467 0.7942 0.0
H1043 H 0.77992 0.7378 0.75109 0.0
H1044 H 0.8001 0.7197 0.78578 0.0
H1045 H 0.74645 0.79522 0.95951 0.0
H1046 H 0.73826 0.79401 0.88365 0.0
H1047 H 0.7285 0.77312 0.93352 0.0
H1048 H 0.72085 0.77247 0.69073 0.0
H1049 H 0.69698 0.72043 0.80469 0.0
H1050 H 0.77355 0.77753 0.74263 0.0
H1051 H 0.75979 0.79626 0.79176 0.0
H1052 H 0.75153 0.79545 0.71592 0.0
H1053 H 0.74483 0.71227 0.88306 0.0
H1054 H 0.71485 0.71068 0.89142 0.0
H1055 H 0.73057 0.73273 0.92615 0.0
C1056 C 0.4946 0.54588 0.16076 0.0
C1057 C 0.5091 0.53995 0.20651 0.0
C1058 C 0.49345 0.53295 0.10953 0.0
C1059 C 0.50706 0.51364 0.1041 0.0
C1060 C 0.52034 0.50664 0.15199 0.0
C1061 C 0.52121 0.51988 0.20255 0.0
C1062 C 0.47889 0.54086 0.05973 0.0
C1063 C 0.53491 0.48601 0.14837 0.0
C1064 C 0.50075 0.47155 0.98034 0.0
C1065 C 0.51844 0.47784 0.94332 0.0
C1066 C 0.49618 0.48355 0.03184 0.0
C1067 C 0.50961 0.50227 0.04656 0.0
C1068 C 0.52678 0.50929 0.00793 0.0
C1069 C 0.53097 0.49701 0.95689 0.0
C1070 C 0.47766 0.47561 0.0717 0.0
C1071 C 0.54139 0.52927 0.02171 0.0
H1072 H 0.48509 0.56131 0.16344 0.0
H1073 H 0.53227 0.51502 0.23791 0.0
H1074 H 0.48964 0.5479 0.02469 0.0
H1075 H 0.46938 0.52668 0.04064 0.0
H1076 H 0.46686 0.55399 0.07376 0.0
H1077 H 0.54228 0.48148 0.19133 0.0
H1078 H 0.5251 0.47155 0.13194 0.0
H1079 H 0.54877 0.48903 0.11702 0.0
H1080 H 0.49093 0.45679 0.97019 0.0
H1081 H 0.54456 0.50212 0.9284 0.0
H1082 H 0.46679 0.48983 0.0847 0.0
H1083 H 0.48503 0.46857 0.11222 0.0
H1084 H 0.46711 0.46252 0.05091 0.0
H1085 H 0.53086 0.54416 0.03089 0.0
H1086 H 0.55305 0.5334 0.98544 0.0
H1087 H 0.55142 0.5258 0.06151 0.0
C1088 C 0.78811 0.23246 0.19402 0.0
C1089 C 0.80738 0.24511 0.20609 0.0
C1090 C 0.77025 0.23152 0.23399 0.0
C1091 C 0.77162 0.24369 0.28694 0.0
C1092 C 0.79146 0.25558 0.30055 0.0
C1093 C 0.80913 0.25605 0.26011 0.0
C1094 C 0.74949 0.21841 0.21824 0.0
C1095 C 0.79357 0.2689 0.35633 0.0
C1096 C 0.71796 0.26706 0.35111 0.0
C1097 C 0.71438 0.25305 0.39945 0.0
C1098 C 0.73634 0.26395 0.31396 0.0
C1099 C 0.7515 0.24621 0.32486 0.0
C1100 C 0.74779 0.23168 0.37287 0.0
C1101 C 0.72932 0.23535 0.40989 0.0
C1102 C 0.73978 0.27999 0.26362 0.0
C1103 C 0.76346 0.21244 0.3854 0.0
H1104 H 0.78669 0.22379 0.15261 0.0
H1105 H 0.82398 0.26578 0.27004 0.0
H1106 H 0.74414 0.20775 0.25544 0.0
H1107 H 0.73557 0.23016 0.20865 0.0
H1108 H 0.75214 0.20759 0.17938 0.0
H1109 H 0.81079 0.2755 0.36292 0.0
H1110 H 0.78177 0.28326 0.3551 0.0
H1111 H 0.78898 0.25844 0.39455 0.0
H1112 H 0.70655 0.28081 0.34267 0.0
H1113 H 0.72661 0.2244 0.447 0.0
H1114 H 0.7404 0.27063 0.22181 0.0
H1115 H 0.75605 0.28878 0.26861 0.0
H1116 H 0.72627 0.29274 0.26068 0.0
H1117 H 0.76513 0.20168 0.34615 0.0
H1118 H 0.7576 0.20196 0.42252 0.0
H1119 H 0.7804 0.21895 0.39584 0.0
C1120 C 0.32343 0.23515 0.35237 0.0
C1121 C 0.32543 0.24892 0.40173 0.0
C1122 C 0.30482 0.23663 0.31532 0.0
C1123 C 0.28783 0.25251 0.32723 0.0
C1124 C 0.29009 0.26708 0.37571 0.0
C1125 C 0.3088 0.26498 0.41277 0.0
C1126 C 0.30297 0.22057 0.26455 0.0
C1127 C 0.27251 0.28448 0.38916 0.0
C1128 C 0.24847 0.26138 0.19885 0.0
C1129 C 0.23106 0.24648 0.21256 0.0
C1130 C 0.26645 0.2647 0.23761 0.0
C1131 C 0.26715 0.25259 0.29082 0.0
C1132 C 0.24908 0.23838 0.30605 0.0
C1133 C 0.23121 0.23563 0.26695 0.0
C1134 C 0.28521 0.28032 0.22032 0.0
C1135 C 0.24924 0.22498 0.36205 0.0
H1136 H 0.33615 0.22268 0.34341 0.0
H1137 H 0.3103 0.27577 0.45063 0.0
H1138 H 0.28799 0.20976 0.27025 0.0
H1139 H 0.30077 0.22997 0.22314 0.0
H1140 H 0.31794 0.20964 0.26032 0.0
H1141 H 0.27777 0.29591 0.42489 0.0
H1142 H 0.26883 0.29459 0.34962 0.0
H1143 H 0.2567 0.27611 0.40228 0.0
H1144 H 0.24839 0.27 0.15717 0.0
H1145 H 0.21779 0.22416 0.27815 0.0
H1146 H 0.30032 0.2704 0.20911 0.0
H1147 H 0.28972 0.29145 0.25728 0.0
H1148 H 0.2807 0.29082 0.18201 0.0
H1149 H 0.26281 0.21229 0.36019 0.0
H1150 H 0.2331 0.21619 0.36978 0.0
H1151 H 0.25274 0.23601 0.3999 0.0
C1152 C 0.30901 0.74861 0.76784 0.0
C1153 C 0.32507 0.7643 0.78605 0.0
C1154 C 0.29059 0.7432 0.80361 0.0
C1155 C 0.2881 0.75393 0.8584 0.0
C1156 C 0.30449 0.76944 0.87731 0.0
C1157 C 0.32278 0.77432 0.84112 0.0
C1158 C 0.2736 0.72635 0.78236 0.0
C1159 C 0.30241 0.7814 0.93521 0.0
C1160 C 0.23158 0.76323 0.92967 0.0
C1161 C 0.23262 0.74857 0.97754 0.0
C1162 C 0.24902 0.76427 0.88866 0.0
C1163 C 0.26786 0.7501 0.89517 0.0
C1164 C 0.26835 0.73423 0.94119 0.0
C1165 C 0.25079 0.73376 0.98211 0.0
C1166 C 0.24789 0.78155 0.84052 0.0
C1167 C 0.28797 0.71857 0.94901 0.0
H1168 H 0.31072 0.74071 0.72547 0.0
H1169 H 0.33508 0.78644 0.85571 0.0
H1170 H 0.27085 0.71324 0.816 0.0
H1171 H 0.25728 0.73478 0.77496 0.0
H1172 H 0.27887 0.71817 0.74103 0.0
H1173 H 0.31689 0.7926 0.94407 0.0
H1174 H 0.28688 0.79161 0.93573 0.0
H1175 H 0.30111 0.76906 0.97128 0.0
H1176 H 0.21758 0.77468 0.92553 0.0
H1177 H 0.25162 0.72222 0.01862 0.0
H1178 H 0.25157 0.77376 0.79763 0.0
H1179 H 0.26078 0.79462 0.8482 0.0
H1180 H 0.23123 0.7898 0.83813 0.0
H1181 H 0.29251 0.71065 0.90682 0.0
H1182 H 0.28439 0.70519 0.98147 0.0
H1183 H 0.30276 0.7282 0.96416 0.0
C1184 C 0.49307 0.94679 0.08468 0.0
C1185 C 0.50679 0.94029 0.13142 0.0
C1186 C 0.4989 0.96476 0.04842 0.0
C1187 C 0.51918 0.97644 0.05844 0.0
C1188 C 0.53344 0.96969 0.10471 0.0
C1189 C 0.52698 0.95176 0.14106 0.0
C1190 C 0.48305 0.97156 1.00006 0.0
C1191 C 0.55534 0.98153 0.11609 0.0
C1192 C 0.53566 0.0113 0.92672 0.0
C1193 C 0.52611 0.03207 0.94089 0.0
C1194 C 0.53516 0.99339 0.96661 0.0
C1195 C 0.52462 0.99626 0.02154 0.0
C1196 C 0.51633 0.01761 0.03747 0.0
C1197 C 0.51731 0.03527 0.99711 0.0
C1198 C 0.54459 0.971 0.94842 0.0
C1199 C 0.50484 0.0214 0.0954 0.0
H1200 H 0.47741 0.93809 0.07694 0.0
H1201 H 0.53772 0.94675 0.17692 0.0
H1202 H 0.47743 0.98908 0.00684 0.0
H1203 H 0.49176 0.97091 0.9573 0.0
H1204 H 0.46802 0.96061 0.99784 0.0
H1205 H 0.56519 0.97335 0.15131 0.0
H1206 H 0.5656 0.98193 0.07567 0.0
H1207 H 0.5521 -0.00084 0.12881 0.0
H1208 H 0.54273 0.00874 0.88364 0.0
H1209 H 0.51005 0.0513 0.00872 0.0
H1210 H 0.53063 0.95934 0.93846 0.0
H1211 H 0.55452 0.96349 0.98441 0.0
H1212 H 0.55538 0.97241 0.90904 0.0
H1213 H 0.48848 0.01253 0.09561 0.0
H1214 H 0.50175 0.03944 0.10401 0.0
H1215 H 0.51499 0.01444 0.13167 0.0
C1216 C 0.00064 0.03414 0.6711 0.0
C1217 C 0.01643 0.02816 0.71384 0.0
C1218 C 0.99787 0.02119 0.62036 0.0
C1219 C 0.01114 0.00179 0.61231 0.0
C1220 C 0.02618 0.99502 0.65679 0.0
C1221 C 0.02865 0.00828 0.70693 0.0
C1222 C 0.9816 0.02892 0.57408 0.0
C1223 C 0.0405 0.97432 0.65017 0.0
C1224 C -0.00152 0.95808 0.49614 0.0
C1225 C 0.01453 0.96332 0.45342 0.0
C1226 C 0.9965 0.97098 0.54723 0.0
C1227 C 0.01086 0.98958 0.5556 0.0
C1228 C 0.02626 0.99563 0.51123 0.0
C1229 C 0.02792 0.98242 0.46078 0.0
C1230 C 0.97981 0.96407 0.5934 0.0
C1231 C 0.04173 0.01548 0.51817 0.0
H1232 H 0.99106 0.04943 0.67607 0.0
H1233 H 0.04075 0.00342 0.73989 0.0
H1234 H 0.99102 0.03483 0.53523 0.0
H1235 H 0.9708 0.01483 0.55974 0.0
H1236 H 0.97075 0.04279 0.5897 0.0
H1237 H 0.04998 0.97034 0.69062 0.0
H1238 H 0.02994 0.95968 0.63862 0.0
H1239 H 0.05265 0.97683 0.61405 0.0
H1240 H 0.98803 0.94337 0.49082 0.0
H1241 H 0.04024 0.98671 0.42782 0.0
H1242 H 0.96974 0.97867 0.60771 0.0
H1243 H 0.98888 0.95768 0.63229 0.0
H1244 H 0.96828 0.95077 0.57769 0.0
H1245 H 0.03199 0.03069 0.52949 0.0
H1246 H 0.05155 0.01892 0.47792 0.0
H1247 H 0.05359 0.0123 0.55455 0.0
loop_
_geom_bond_atom_site_label_1
_geom_bond_atom_site_label_2
_geom_bond_distance
_geom_bond_site_symmetry_2
_ccdc_geom_bond_type
Mg0 O1 2.028 . S
Mg0 O7 1.986 . S
Mg0 O9 2.114 1_455 S
Mg0 O10 2.251 1_455 S
Mg0 O13 2.010 . S
O1 Mg0 2.028 . S
O1 C4 1.250 . S
O2 Mg3 2.028 . S
O2 C4 1.248 . S
Mg3 O2 2.028 . S
Mg3 O8 2.032 . S
Mg3 O10 2.079 1_455 S
C4 O1 1.250 . S
C4 O2 1.248 . S
C5 O6 1.264 . S
C5 O13 1.249 . S
O6 C5 1.264 . S
O7 Mg0 1.986 . S
O7 C11 1.246 . S
O8 Mg3 2.032 . S
O8 C11 1.259 . S
O9 Mg0 2.114 1_655 S
O9 C12 1.252 . S
O10 Mg0 2.251 1_655 S
O10 Mg3 2.079 1_655 S
O10 C12 1.273 . S
C11 O7 1.246 . S
C11 O8 1.259 . S
C12 O9 1.252 . S
C12 O10 1.273 . S
O13 Mg0 2.010 . S
O13 C5 1.249 . S
Mg14 O15 2.028 . S
Mg14 O21 1.986 . S
Mg14 O23 2.114 . S
Mg14 O24 2.251 . S
Mg14 O27 2.010 . S
O15 Mg14 2.028 . S
O15 C18 1.250 . S
O16 Mg17 2.028 . S
O16 C18 1.248 . S
Mg17 O16 2.028 . S
Mg17 O22 2.032 . S
Mg17 O24 2.079 . S
C18 O15 1.250 . S
C18 O16 1.248 . S
C19 O20 1.264 . S
C19 O27 1.249 . S
O20 C19 1.264 . S
O21 Mg14 1.986 . S
O21 C25 1.246 . S
O22 Mg17 2.032 . S
O22 C25 1.259 . S
O23 Mg14 2.114 . S
O23 C26 1.252 . S
O24 Mg14 2.251 . S
O24 Mg17 2.079 . S
O24 C26 1.273 . S
C25 O21 1.246 . S
C25 O22 1.259 . S
C26 O23 1.252 . S
C26 O24 1.273 . S
O27 Mg14 2.010 . S
O27 C19 1.249 . S
Mg28 O29 2.028 . S
Mg28 O35 1.986 . S
Mg28 O37 2.114 . S
Mg28 O38 2.251 . S
Mg28 O41 2.010 . S
O29 Mg28 2.028 . S
O29 C32 1.250 . S
O30 Mg31 2.028 . S
O30 C32 1.248 . S
Mg31 O30 2.028 . S
Mg31 O36 2.032 . S
Mg31 O38 2.079 . S
C32 O29 1.250 . S
C32 O30 1.248 . S
C33 O34 1.264 . S
C33 O41 1.249 . S
O34 C33 1.264 . S
O35 Mg28 1.986 . S
O35 C39 1.246 . S
O36 Mg31 2.032 . S
O36 C39 1.259 . S
O37 Mg28 2.114 . S
O37 C40 1.252 . S
O38 Mg28 2.251 . S
O38 Mg31 2.079 . S
O38 C40 1.273 . S
C39 O35 1.246 . S
C39 O36 1.259 . S
C40 O37 1.252 . S
C40 O38 1.273 . S
O41 Mg28 2.010 . S
O41 C33 1.249 . S
Mg42 O43 2.028 1_554 S
Mg42 O49 1.986 . S
Mg42 O51 2.114 . S
Mg42 O52 2.251 1_554 S
Mg42 O55 2.010 . S
O43 Mg42 2.028 1_556 S
O43 C46 1.250 . S
O44 Mg45 2.028 . S
O44 C46 1.248 . S
Mg45 O44 2.028 . S
Mg45 O50 2.032 . S
Mg45 O52 2.079 . S
C46 O43 1.250 . S
C46 O44 1.248 . S
C47 O48 1.264 . S
C47 O55 1.249 . S
O48 C47 1.264 . S
O49 Mg42 1.986 . S
O49 C53 1.246 1_554 S
O50 Mg45 2.032 . S
O50 C53 1.259 . S
O51 Mg42 2.114 . S
O51 C54 1.243 1_554 S
O52 Mg42 2.251 1_556 S
O52 Mg45 2.079 . S
O52 C54 1.279 . S
C53 O49 1.246 1_556 S
C53 O50 1.259 . S
C54 O51 1.243 1_556 S
C54 O52 1.279 . S
O55 Mg42 2.010 . S
O55 C47 1.249 . S
Mg56 O57 2.028 . S
Mg56 O63 1.986 . S
Mg56 O65 2.114 1_455 S
Mg56 O66 2.251 1_455 S
Mg56 O69 2.010 . S
O57 Mg56 2.028 . S
O57 C60 1.250 . S
O58 Mg59 2.028 . S
O58 C60 1.248 . S
Mg59 O58 2.028 . S
Mg59 O64 2.032 . S
Mg59 O66 2.079 1_455 S
C60 O57 1.250 . S
C60 O58 1.248 . S
C61 O62 1.264 . S
C61 O69 1.249 . S
O62 C61 1.264 . S
O63 Mg56 1.986 . S
O63 C67 1.246 . S
O64 Mg59 2.032 . S
O64 C67 1.259 . S
O65 Mg56 2.114 1_655 S
O65 C68 1.252 . S
O66 Mg56 2.251 1_655 S
O66 Mg59 2.079 1_655 S
O66 C68 1.273 . S
C67 O63 1.246 . S
C67 O64 1.259 . S
C68 O65 1.252 . S
C68 O66 1.273 . S
O69 Mg56 2.010 . S
O69 C61 1.249 . S
Mg70 O71 2.028 . S
Mg70 O77 1.986 . S
Mg70 O79 2.114 . S
Mg70 O80 2.251 . S
Mg70 O83 2.010 . S
O71 Mg70 2.028 . S
O71 C74 1.250 . S
O72 Mg73 2.028 . S
O72 C74 1.248 . S
Mg73 O72 2.028 . S
Mg73 O78 2.032 . S
Mg73 O80 2.079 . S
C74 O71 1.250 . S
C74 O72 1.248 . S
C75 O76 1.264 . S
C75 O83 1.249 1_556 S
O76 C75 1.264 . S
O77 Mg70 1.986 . S
O77 C81 1.246 . S
O78 Mg73 2.032 . S
O78 C81 1.259 . S
O79 Mg70 2.114 . S
O79 C82 1.252 . S
O80 Mg70 2.251 . S
O80 Mg73 2.079 . S
O80 C82 1.273 . S
C81 O77 1.246 . S
C81 O78 1.259 . S
C82 O79 1.252 . S
C82 O80 1.273 . S
O83 Mg70 2.010 . S
O83 C75 1.249 1_554 S
Mg84 O85 2.028 . S
Mg84 O91 1.986 . S
Mg84 O93 2.114 . S
Mg84 O94 2.251 . S
Mg84 O97 2.010 . S
O85 Mg84 2.028 . S
O85 C88 1.250 . S
O86 Mg87 2.028 . S
O86 C88 1.248 . S
Mg87 O86 2.028 . S
Mg87 O92 2.032 . S
Mg87 O94 2.079 . S
C88 O85 1.250 . S
C88 O86 1.248 . S
C89 O90 1.264 . S
C89 O97 1.249 . S
O90 C89 1.264 . S
O91 Mg84 1.986 . S
O91 C95 1.246 . S
O92 Mg87 2.032 . S
O92 C95 1.259 . S
O93 Mg84 2.114 . S
O93 C96 1.252 . S
O94 Mg84 2.251 . S
O94 Mg87 2.079 . S
O94 C96 1.273 . S
C95 O91 1.246 . S
C95 O92 1.259 . S
C96 O93 1.252 . S
C96 O94 1.273 . S
O97 Mg84 2.010 . S
O97 C89 1.249 . S
Mg98 O99 2.028 . S
Mg98 O105 1.986 . S
Mg98 O107 2.114 . S
Mg98 O108 2.251 . S
Mg98 O111 2.010 . S
O99 Mg98 2.028 . S
O99 C102 1.250 . S
O100 Mg101 2.028 . S
O100 C102 1.248 . S
Mg101 O100 2.028 . S
Mg101 O106 2.032 . S
Mg101 O108 2.079 . S
C102 O99 1.250 . S
C102 O100 1.248 . S
C103 O104 1.264 . S
C103 O111 1.249 . S
O104 C103 1.264 . S
O105 Mg98 1.986 . S
O105 C109 1.246 . S
O106 Mg101 2.032 . S
O106 C109 1.259 . S
O107 Mg98 2.114 . S
O107 C110 1.252 . S
O108 Mg98 2.251 . S
O108 Mg101 2.079 . S
O108 C110 1.273 . S
C109 O105 1.246 . S
C109 O106 1.259 . S
C110 O107 1.252 . S
C110 O108 1.273 . S
O111 Mg98 2.010 . S
O111 C103 1.249 . S
Mg112 O113 2.028 . S
Mg112 O119 1.986 . S
Mg112 O121 2.114 . S
Mg112 O122 2.251 . S
Mg112 O125 2.010 . S
O113 Mg112 2.028 . S
O113 C116 1.250 . S
O114 Mg115 2.028 . S
O114 C116 1.248 . S
Mg115 O114 2.028 . S
Mg115 O120 2.032 . S
Mg115 O122 2.079 . S
C116 O113 1.250 . S
C116 O114 1.248 . S
C117 O118 1.264 . S
C117 O125 1.249 . S
O118 C117 1.264 . S
O119 Mg112 1.986 . S
O119 C123 1.246 . S
O120 Mg115 2.032 . S
O120 C123 1.259 . S
O121 Mg112 2.114 . S
O121 C124 1.252 . S
O122 Mg112 2.251 . S
O122 Mg115 2.079 . S
O122 C124 1.273 . S
C123 O119 1.246 . S
C123 O120 1.259 . S
C124 O121 1.252 . S
C124 O122 1.273 . S
O125 Mg112 2.010 . S
O125 C117 1.249 . S
Mg126 O127 2.028 . S
Mg126 O133 1.986 . S
Mg126 O135 2.114 . S
Mg126 O136 2.251 . S
Mg126 O139 2.010 . S
O127 Mg126 2.028 . S
O127 C130 1.250 . S
O128 Mg129 2.028 . S
O128 C130 1.248 . S
Mg129 O128 2.028 . S
Mg129 O134 2.032 . S
Mg129 O136 2.079 . S
C130 O127 1.250 . S
C130 O128 1.248 . S
C131 O132 1.264 . S
C131 O139 1.249 1_556 S
O132 C131 1.264 . S
O133 Mg126 1.986 . S
O133 C137 1.246 . S
O134 Mg129 2.032 . S
O134 C137 1.259 . S
O135 Mg126 2.114 . S
O135 C138 1.252 . S
O136 Mg126 2.251 . S
O136 Mg129 2.079 . S
O136 C138 1.273 . S
C137 O133 1.246 . S
C137 O134 1.259 . S
C138 O135 1.252 . S
C138 O136 1.273 . S
O139 Mg126 2.010 . S
O139 C131 1.249 1_554 S
Mg140 O141 2.028 1_554 S
Mg140 O147 1.986 . S
Mg140 O149 2.114 . S
Mg140 O150 2.251 1_554 S
Mg140 O153 2.010 . S
O141 Mg140 2.028 1_556 S
O141 C144 1.250 . S
O142 Mg143 2.028 . S
O142 C144 1.248 . S
Mg143 O142 2.028 . S
Mg143 O148 2.032 . S
Mg143 O150 2.079 . S
C144 O141 1.250 . S
C144 O142 1.248 . S
C145 O146 1.264 . S
C145 O153 1.249 . S
O146 C145 1.264 . S
O147 Mg140 1.986 . S
O147 C151 1.246 1_554 S
O148 Mg143 2.032 . S
O148 C151 1.259 . S
O149 Mg140 2.114 . S
O149 C152 1.243 1_554 S
O150 Mg140 2.251 1_556 S
O150 Mg143 2.079 . S
O150 C152 1.279 . S
C151 O147 1.246 1_556 S
C151 O148 1.259 . S
C152 O149 1.243 1_556 S
C152 O150 1.279 . S
O153 Mg140 2.010 . S
O153 C145 1.249 . S
Mg154 O155 2.028 . S
Mg154 O161 1.986 . S
Mg154 O163 2.114 . S
Mg154 O164 2.251 . S
Mg154 O167 2.010 . S
O155 Mg154 2.028 . S
O155 C158 1.250 . S
O156 Mg157 2.028 . S
O156 C158 1.248 . S
Mg157 O156 2.028 . S
Mg157 O162 2.032 . S
Mg157 O164 2.079 . S
C158 O155 1.250 . S
C158 O156 1.248 . S
C159 O160 1.264 . S
C159 O167 1.249 . S
O160 C159 1.264 . S
O161 Mg154 1.986 . S
O161 C165 1.246 . S
O162 Mg157 2.032 . S
O162 C165 1.259 . S
O163 Mg154 2.114 . S
O163 C166 1.252 . S
O164 Mg154 2.251 . S
O164 Mg157 2.079 . S
O164 C166 1.273 . S
C165 O161 1.246 . S
C165 O162 1.259 . S
C166 O163 1.252 . S
C166 O164 1.273 . S
O167 Mg154 2.010 . S
O167 C159 1.249 . S
Mg168 O169 2.028 . S
Mg168 O175 1.986 . S
Mg168 O177 2.114 . S
Mg168 O178 2.251 . S
Mg168 O181 2.010 . S
O169 Mg168 2.028 . S
O169 C172 1.250 . S
O170 Mg171 2.028 . S
O170 C172 1.248 . S
Mg171 O170 2.028 . S
Mg171 O176 2.032 . S
Mg171 O178 2.079 . S
C172 O169 1.250 . S
C172 O170 1.248 . S
C173 O174 1.264 . S
C173 O181 1.249 . S
O174 C173 1.264 . S
O175 Mg168 1.986 . S
O175 C179 1.246 . S
O176 Mg171 2.032 . S
O176 C179 1.259 . S
O177 Mg168 2.114 . S
O177 C180 1.252 . S
O178 Mg168 2.251 . S
O178 Mg171 2.079 . S
O178 C180 1.273 . S
C179 O175 1.246 . S
C179 O176 1.259 . S
C180 O177 1.252 . S
C180 O178 1.273 . S
O181 Mg168 2.010 . S
O181 C173 1.249 . S
Mg182 O183 2.028 . S
Mg182 O189 1.986 1_455 S
Mg182 O191 2.114 . S
Mg182 O192 2.251 . S
Mg182 O195 2.010 . S
O183 Mg182 2.028 . S
O183 C186 1.250 . S
O184 Mg185 2.028 . S
O184 C186 1.248 . S
Mg185 O184 2.028 . S
Mg185 O190 2.032 1_455 S
Mg185 O192 2.079 . S
C186 O183 1.250 . S
C186 O184 1.248 . S
C187 O188 1.264 . S
C187 O195 1.249 . S
O188 C187 1.264 . S
O189 Mg182 1.986 1_655 S
O189 C193 1.246 . S
O190 Mg185 2.032 1_655 S
O190 C193 1.259 . S
O191 Mg182 2.114 . S
O191 C194 1.252 . S
O192 Mg182 2.251 . S
O192 Mg185 2.079 . S
O192 C194 1.273 . S
C193 O189 1.246 . S
C193 O190 1.259 . S
C194 O191 1.252 . S
C194 O192 1.273 . S
O195 Mg182 2.010 . S
O195 C187 1.249 . S
Mg196 O197 2.028 . S
Mg196 O203 1.986 . S
Mg196 O205 2.114 . S
Mg196 O206 2.251 . S
Mg196 O209 2.010 . S
O197 Mg196 2.028 . S
O197 C200 1.250 . S
O198 Mg199 2.028 . S
O198 C200 1.248 . S
Mg199 O198 2.028 . S
Mg199 O204 2.032 . S
Mg199 O206 2.079 . S
C200 O197 1.250 . S
C200 O198 1.248 . S
C201 O202 1.264 . S
C201 O209 1.249 . S
O202 C201 1.264 . S
O203 Mg196 1.986 . S
O203 C207 1.246 . S
O204 Mg199 2.032 . S
O204 C207 1.259 . S
O205 Mg196 2.114 . S
O205 C208 1.252 . S
O206 Mg196 2.251 . S
O206 Mg199 2.079 . S
O206 C208 1.273 . S
C207 O203 1.246 . S
C207 O204 1.259 . S
C208 O205 1.252 . S
C208 O206 1.273 . S
O209 Mg196 2.010 . S
O209 C201 1.249 . S
Mg210 O211 2.028 . S
Mg210 O217 1.986 1_455 S
Mg210 O219 2.114 . S
Mg210 O220 2.251 . S
Mg210 O223 2.010 . S
O211 Mg210 2.028 . S
O211 C214 1.250 . S
O212 Mg213 2.028 . S
O212 C214 1.248 . S
Mg213 O212 2.028 . S
Mg213 O218 2.032 1_455 S
Mg213 O220 2.079 . S
C214 O211 1.250 . S
C214 O212 1.248 . S
C215 O216 1.264 . S
C215 O223 1.249 . S
O216 C215 1.264 . S
O217 Mg210 1.986 1_655 S
O217 C221 1.246 . S
O218 Mg213 2.032 1_655 S
O218 C221 1.259 . S
O219 Mg210 2.114 . S
O219 C222 1.252 . S
O220 Mg210 2.251 . S
O220 Mg213 2.079 . S
O220 C222 1.273 . S
C221 O217 1.246 . S
C221 O218 1.259 . S
C222 O219 1.252 . S
C222 O220 1.273 . S
O223 Mg210 2.010 . S
O223 C215 1.249 . S
C224 C225 1.391 . S
C224 C226 1.394 . S
C224 H240 0.931 . S
C225 C224 1.391 . S
C225 C229 1.376 . S
C226 C224 1.394 . S
C226 C227 1.369 . S
C226 C230 1.531 . S
C227 C226 1.369 . S
C227 C228 1.410 . S
C227 C235 1.503 . S
C228 C227 1.410 . S
C228 C229 1.392 . S
C228 C231 1.511 . S
C229 C225 1.376 . S
C229 C228 1.392 . S
C229 H241 0.929 . S
C230 C226 1.531 . S
C230 H242 0.960 . S
C230 H243 0.962 . S
C230 H244 0.960 . S
C231 C228 1.511 . S
C231 H245 0.961 . S
C231 H246 0.961 . S
C231 H247 0.961 . S
C232 C233 1.370 . S
C232 C234 1.363 . S
C232 H248 0.931 . S
C233 C232 1.370 . S
C233 C237 1.408 . S
C234 C232 1.363 . S
C234 C235 1.370 . S
C234 C238 1.524 . S
C235 C227 1.503 . S
C235 C234 1.370 . S
C235 C236 1.403 . S
C236 C235 1.403 . S
C236 C237 1.404 . S
C236 C239 1.539 . S
C237 C233 1.408 . S
C237 C236 1.404 . S
C237 H249 0.930 . S
C238 C234 1.524 . S
C238 H250 0.956 . S
C238 H251 0.961 . S
C238 H252 0.961 . S
C239 C236 1.539 . S
C239 H253 0.958 . S
C239 H254 0.961 . S
C239 H255 0.960 . S
H240 C224 0.931 . S
H241 C229 0.929 . S
H242 C230 0.960 . S
H243 C230 0.962 . S
H244 C230 0.960 . S
H245 C231 0.961 . S
H246 C231 0.961 . S
H247 C231 0.961 . S
H248 C232 0.931 . S
H249 C237 0.930 . S
H250 C238 0.956 . S
H251 C238 0.961 . S
H252 C238 0.961 . S
H253 C239 0.958 . S
H254 C239 0.961 . S
H255 C239 0.960 . S
C256 C257 1.391 . S
C256 C258 1.394 . S
C256 H272 0.931 . S
C257 C256 1.391 . S
C257 C261 1.376 . S
C258 C256 1.394 . S
C258 C259 1.369 . S
C258 C262 1.531 . S
C259 C258 1.369 . S
C259 C260 1.410 . S
C259 C267 1.503 . S
C260 C259 1.410 . S
C260 C261 1.392 . S
C260 C263 1.511 . S
C261 C257 1.376 . S
C261 C260 1.392 . S
C261 H273 0.929 . S
C262 C258 1.531 . S
C262 H274 0.960 . S
C262 H275 0.962 . S
C262 H276 0.960 . S
C263 C260 1.511 . S
C263 H277 0.961 . S
C263 H278 0.961 . S
C263 H279 0.961 . S
C264 C265 1.370 . S
C264 C266 1.363 . S
C264 H280 0.931 . S
C265 C264 1.370 . S
C265 C269 1.408 . S
C266 C264 1.363 . S
C266 C267 1.370 . S
C266 C270 1.524 . S
C267 C259 1.503 . S
C267 C266 1.370 . S
C267 C268 1.403 . S
C268 C267 1.403 . S
C268 C269 1.404 . S
C268 C271 1.539 . S
C269 C265 1.408 . S
C269 C268 1.404 . S
C269 H281 0.930 . S
C270 C266 1.524 . S
C270 H282 0.956 . S
C270 H283 0.961 . S
C270 H284 0.961 . S
C271 C268 1.539 . S
C271 H285 0.958 . S
C271 H286 0.961 . S
C271 H287 0.960 . S
H272 C256 0.931 . S
H273 C261 0.929 . S
H274 C262 0.960 . S
H275 C262 0.962 . S
H276 C262 0.960 . S
H277 C263 0.961 . S
H278 C263 0.961 . S
H279 C263 0.961 . S
H280 C264 0.931 . S
H281 C269 0.930 . S
H282 C270 0.956 . S
H283 C270 0.961 . S
H284 C270 0.961 . S
H285 C271 0.958 . S
H286 C271 0.961 . S
H287 C271 0.960 . S
C288 C289 1.391 . S
C288 C290 1.394 . S
C288 H304 0.931 . S
C289 C288 1.391 . S
C289 C293 1.376 . S
C290 C288 1.394 . S
C290 C291 1.369 . S
C290 C294 1.531 . S
C291 C290 1.369 . S
C291 C292 1.410 . S
C291 C299 1.503 . S
C292 C291 1.410 . S
C292 C293 1.392 . S
C292 C295 1.511 . S
C293 C289 1.376 . S
C293 C292 1.392 . S
C293 H305 0.929 . S
C294 C290 1.531 . S
C294 H306 0.960 . S
C294 H307 0.962 . S
C294 H308 0.960 . S
C295 C292 1.511 . S
C295 H309 0.961 . S
C295 H310 0.961 . S
C295 H311 0.961 . S
C296 C297 1.370 . S
C296 C298 1.363 . S
C296 H312 0.931 . S
C297 C296 1.370 . S
C297 C301 1.408 . S
C298 C296 1.363 . S
C298 C299 1.370 . S
C298 C302 1.524 . S
C299 C291 1.503 . S
C299 C298 1.370 . S
C299 C300 1.403 . S
C300 C299 1.403 . S
C300 C301 1.404 . S
C300 C303 1.539 . S
C301 C297 1.408 . S
C301 C300 1.404 . S
C301 H313 0.930 . S
C302 C298 1.524 . S
C302 H314 0.956 . S
C302 H315 0.961 . S
C302 H316 0.961 . S
C303 C300 1.539 . S
C303 H317 0.958 . S
C303 H318 0.961 . S
C303 H319 0.960 . S
H304 C288 0.931 . S
H305 C293 0.929 . S
H306 C294 0.960 . S
H307 C294 0.962 . S
H308 C294 0.960 . S
H309 C295 0.961 . S
H310 C295 0.961 . S
H311 C295 0.961 . S
H312 C296 0.931 . S
H313 C301 0.930 . S
H314 C302 0.956 . S
H315 C302 0.961 . S
H316 C302 0.961 . S
H317 C303 0.958 . S
H318 C303 0.961 . S
H319 C303 0.960 . S
C320 C321 1.391 1_554 S
C320 C322 1.394 . S
C320 H336 0.931 . S
C321 C320 1.391 1_556 S
C321 C325 1.376 . S
C322 C320 1.394 . S
C322 C323 1.369 1_554 S
C322 C326 1.531 . S
C323 C322 1.369 1_556 S
C323 C324 1.410 . S
C323 C331 1.503 . S
C324 C323 1.410 . S
C324 C325 1.392 . S
C324 C327 1.511 . S
C325 C321 1.376 . S
C325 C324 1.392 . S
C325 H337 0.929 . S
C326 C322 1.531 . S
C326 H338 0.960 . S
C326 H339 0.962 . S
C326 H340 0.960 . S
C327 C324 1.511 . S
C327 H341 0.961 . S
C327 H342 0.961 . S
C327 H343 0.961 . S
C328 C329 1.370 . S
C328 C330 1.363 . S
C328 H344 0.931 . S
C329 C328 1.370 . S
C329 C333 1.408 . S
C330 C328 1.363 . S
C330 C331 1.370 . S
C330 C334 1.524 . S
C331 C323 1.503 . S
C331 C330 1.370 . S
C331 C332 1.403 . S
C332 C331 1.403 . S
C332 C333 1.404 . S
C332 C335 1.539 . S
C333 C329 1.408 . S
C333 C332 1.404 . S
C333 H345 0.930 . S
C334 C330 1.524 . S
C334 H346 0.956 . S
C334 H347 0.961 . S
C334 H348 0.961 . S
C335 C332 1.539 . S
C335 H349 0.958 . S
C335 H350 0.961 . S
C335 H351 0.960 . S
H336 C320 0.931 . S
H337 C325 0.929 . S
H338 C326 0.960 . S
H339 C326 0.962 . S
H340 C326 0.960 . S
H341 C327 0.961 . S
H342 C327 0.961 . S
H343 C327 0.961 . S
H344 C328 0.931 . S
H345 C333 0.930 . S
H346 C334 0.956 . S
H347 C334 0.961 . S
H348 C334 0.961 . S
H349 C335 0.958 . S
H350 C335 0.961 . S
H351 C335 0.960 . S
C352 C353 1.391 . S
C352 C354 1.394 . S
C352 H368 0.931 . S
C353 C352 1.391 . S
C353 C357 1.376 . S
C354 C352 1.394 . S
C354 C355 1.369 . S
C354 C358 1.531 . S
C355 C354 1.369 . S
C355 C356 1.410 . S
C355 C363 1.503 . S
C356 C355 1.410 . S
C356 C357 1.392 . S
C356 C359 1.511 1_556 S
C357 C353 1.376 . S
C357 C356 1.392 . S
C357 H369 0.929 . S
C358 C354 1.531 . S
C358 H370 0.960 . S
C358 H371 0.962 . S
C358 H372 0.960 . S
C359 C356 1.511 1_554 S
C359 H373 0.961 . S
C359 H374 0.961 . S
C359 H375 0.961 . S
C360 C361 1.367 1_554 S
C360 C362 1.360 1_554 S
C360 H376 0.937 . S
C361 C360 1.367 1_556 S
C361 C365 1.408 . S
C362 C360 1.360 1_556 S
C362 C363 1.370 . S
C362 C366 1.524 1_556 S
C363 C355 1.503 . S
C363 C362 1.370 . S
C363 C364 1.403 . S
C364 C363 1.403 . S
C364 C365 1.404 . S
C364 C367 1.539 . S
C365 C361 1.408 . S
C365 C364 1.404 . S
C365 H377 0.930 . S
C366 C362 1.524 1_554 S
C366 H378 0.956 1_554 S
C366 H379 0.961 . S
C366 H380 0.961 . S
C367 C364 1.539 . S
C367 H381 0.958 . S
C367 H382 0.961 . S
C367 H383 0.960 . S
H368 C352 0.931 . S
H369 C357 0.929 . S
H370 C358 0.960 . S
H371 C358 0.962 . S
H372 C358 0.960 . S
H373 C359 0.961 . S
H374 C359 0.961 . S
H375 C359 0.961 . S
H376 C360 0.937 . S
H377 C365 0.930 . S
H378 C366 0.956 1_556 S
H379 C366 0.961 . S
H380 C366 0.961 . S
H381 C367 0.958 . S
H382 C367 0.961 . S
H383 C367 0.960 . S
C384 C385 1.391 . S
C384 C386 1.394 . S
C384 H400 0.931 . S
C385 C384 1.391 . S
C385 C389 1.376 . S
C386 C384 1.394 . S
C386 C387 1.369 . S
C386 C390 1.531 . S
C387 C386 1.369 . S
C387 C388 1.410 . S
C387 C395 1.503 . S
C388 C387 1.410 . S
C388 C389 1.392 . S
C388 C391 1.511 . S
C389 C385 1.376 . S
C389 C388 1.392 . S
C389 H401 0.929 . S
C390 C386 1.531 . S
C390 H402 0.960 . S
C390 H403 0.962 . S
C390 H404 0.960 . S
C391 C388 1.511 . S
C391 H405 0.961 . S
C391 H406 0.961 . S
C391 H407 0.961 . S
C392 C393 1.370 . S
C392 C394 1.363 . S
C392 H408 0.931 . S
C393 C392 1.370 . S
C393 C397 1.408 . S
C394 C392 1.363 . S
C394 C395 1.370 . S
C394 C398 1.524 . S
C395 C387 1.503 . S
C395 C394 1.370 . S
C395 C396 1.403 . S
C396 C395 1.403 . S
C396 C397 1.404 . S
C396 C399 1.539 . S
C397 C393 1.408 . S
C397 C396 1.404 . S
C397 H409 0.930 . S
C398 C394 1.524 . S
C398 H410 0.956 . S
C398 H411 0.961 . S
C398 H412 0.961 . S
C399 C396 1.539 . S
C399 H413 0.958 . S
C399 H414 0.961 . S
C399 H415 0.960 . S
H400 C384 0.931 . S
H401 C389 0.929 . S
H402 C390 0.960 . S
H403 C390 0.962 . S
H404 C390 0.960 . S
H405 C391 0.961 . S
H406 C391 0.961 . S
H407 C391 0.961 . S
H408 C392 0.931 . S
H409 C397 0.930 . S
H410 C398 0.956 . S
H411 C398 0.961 . S
H412 C398 0.961 . S
H413 C399 0.958 . S
H414 C399 0.961 . S
H415 C399 0.960 . S
C416 C417 1.391 . S
C416 C418 1.394 . S
C416 H432 0.931 . S
C417 C416 1.391 . S
C417 C421 1.376 . S
C418 C416 1.394 . S
C418 C419 1.369 . S
C418 C422 1.531 . S
C419 C418 1.369 . S
C419 C420 1.410 . S
C419 C427 1.503 . S
C420 C419 1.410 . S
C420 C421 1.392 . S
C420 C423 1.511 . S
C421 C417 1.376 . S
C421 C420 1.392 . S
C421 H433 0.929 . S
C422 C418 1.531 . S
C422 H434 0.960 . S
C422 H435 0.962 . S
C422 H436 0.960 . S
C423 C420 1.511 . S
C423 H437 0.961 . S
C423 H438 0.961 . S
C423 H439 0.961 . S
C424 C425 1.370 . S
C424 C426 1.363 . S
C424 H440 0.931 . S
C425 C424 1.370 . S
C425 C429 1.408 . S
C426 C424 1.363 . S
C426 C427 1.370 . S
C426 C430 1.524 . S
C427 C419 1.503 . S
C427 C426 1.370 . S
C427 C428 1.403 . S
C428 C427 1.403 . S
C428 C429 1.404 . S
C428 C431 1.539 . S
C429 C425 1.408 . S
C429 C428 1.404 . S
C429 H441 0.930 . S
C430 C426 1.524 . S
C430 H442 0.956 . S
C430 H443 0.961 . S
C430 H444 0.961 . S
C431 C428 1.539 . S
C431 H445 0.958 . S
C431 H446 0.961 . S
C431 H447 0.960 . S
H432 C416 0.931 . S
H433 C421 0.929 . S
H434 C422 0.960 . S
H435 C422 0.962 . S
H436 C422 0.960 . S
H437 C423 0.961 . S
H438 C423 0.961 . S
H439 C423 0.961 . S
H440 C424 0.931 . S
H441 C429 0.930 . S
H442 C430 0.956 . S
H443 C430 0.961 . S
H444 C430 0.961 . S
H445 C431 0.958 . S
H446 C431 0.961 . S
H447 C431 0.960 . S
C448 C449 1.391 . S
C448 C450 1.394 . S
C448 H464 0.931 . S
C449 C448 1.391 . S
C449 C453 1.376 . S
C450 C448 1.394 . S
C450 C451 1.369 . S
C450 C454 1.531 . S
C451 C450 1.369 . S
C451 C452 1.410 . S
C451 C459 1.503 . S
C452 C451 1.410 . S
C452 C453 1.392 . S
C452 C455 1.511 . S
C453 C449 1.376 . S
C453 C452 1.392 . S
C453 H465 0.929 . S
C454 C450 1.531 . S
C454 H466 0.960 . S
C454 H467 0.962 . S
C454 H468 0.960 . S
C455 C452 1.511 . S
C455 H469 0.961 . S
C455 H470 0.961 . S
C455 H471 0.961 . S
C456 C457 1.370 . S
C456 C458 1.363 . S
C456 H472 0.931 . S
C457 C456 1.370 . S
C457 C461 1.408 . S
C458 C456 1.363 . S
C458 C459 1.370 . S
C458 C462 1.524 . S
C459 C451 1.503 . S
C459 C458 1.370 . S
C459 C460 1.403 . S
C460 C459 1.403 . S
C460 C461 1.404 . S
C460 C463 1.539 . S
C461 C457 1.408 . S
C461 C460 1.404 . S
C461 H473 0.930 . S
C462 C458 1.524 . S
C462 H474 0.956 . S
C462 H475 0.961 . S
C462 H476 0.961 . S
C463 C460 1.539 . S
C463 H477 0.958 . S
C463 H478 0.961 . S
C463 H479 0.960 . S
H464 C448 0.931 . S
H465 C453 0.929 . S
H466 C454 0.960 . S
H467 C454 0.962 . S
H468 C454 0.960 . S
H469 C455 0.961 . S
H470 C455 0.961 . S
H471 C455 0.961 . S
H472 C456 0.931 . S
H473 C461 0.930 . S
H474 C462 0.956 . S
H475 C462 0.961 . S
H476 C462 0.961 . S
H477 C463 0.958 . S
H478 C463 0.961 . S
H479 C463 0.960 . S
C480 C481 1.391 . S
C480 C482 1.394 . S
C480 H496 0.931 . S
C481 C480 1.391 . S
C481 C485 1.376 . S
C482 C480 1.394 . S
C482 C483 1.369 . S
C482 C486 1.531 . S
C483 C482 1.369 . S
C483 C484 1.410 . S
C483 C491 1.503 . S
C484 C483 1.410 . S
C484 C485 1.392 . S
C484 C487 1.511 . S
C485 C481 1.376 . S
C485 C484 1.392 . S
C485 H497 0.929 . S
C486 C482 1.531 . S
C486 H498 0.960 . S
C486 H499 0.962 . S
C486 H500 0.960 . S
C487 C484 1.511 . S
C487 H501 0.961 . S
C487 H502 0.961 . S
C487 H503 0.961 . S
C488 C489 1.370 1_554 S
C488 C490 1.363 1_554 S
C488 H504 0.931 . S
C489 C488 1.370 1_556 S
C489 C493 1.408 . S
C490 C488 1.363 1_556 S
C490 C491 1.370 . S
C490 C494 1.524 1_556 S
C491 C483 1.503 . S
C491 C490 1.370 . S
C491 C492 1.403 . S
C492 C491 1.403 . S
C492 C493 1.404 . S
C492 C495 1.539 . S
C493 C489 1.408 . S
C493 C492 1.404 . S
C493 H505 0.930 . S
C494 C490 1.524 1_554 S
C494 H506 0.956 . S
C494 H507 0.961 . S
C494 H508 0.961 . S
C495 C492 1.539 . S
C495 H509 0.958 . S
C495 H510 0.961 . S
C495 H511 0.960 . S
H496 C480 0.931 . S
H497 C485 0.929 . S
H498 C486 0.960 . S
H499 C486 0.962 . S
H500 C486 0.960 . S
H501 C487 0.961 . S
H502 C487 0.961 . S
H503 C487 0.961 . S
H504 C488 0.931 . S
H505 C493 0.930 . S
H506 C494 0.956 . S
H507 C494 0.961 . S
H508 C494 0.961 . S
H509 C495 0.958 . S
H510 C495 0.961 . S
H511 C495 0.960 . S
C512 C513 1.391 . S
C512 C514 1.394 . S
C512 H528 0.931 . S
C513 C512 1.391 . S
C513 C517 1.376 . S
C514 C512 1.394 . S
C514 C515 1.369 . S
C514 C518 1.531 . S
C515 C514 1.369 . S
C515 C516 1.410 . S
C515 C523 1.503 . S
C516 C515 1.410 . S
C516 C517 1.392 . S
C516 C519 1.511 . S
C517 C513 1.376 . S
C517 C516 1.392 . S
C517 H529 0.929 . S
C518 C514 1.531 . S
C518 H530 0.960 . S
C518 H531 0.962 . S
C518 H532 0.960 . S
C519 C516 1.511 . S
C519 H533 0.961 . S
C519 H534 0.961 . S
C519 H535 0.961 . S
C520 C521 1.370 . S
C520 C522 1.363 . S
C520 H536 0.931 . S
C521 C520 1.370 . S
C521 C525 1.408 . S
C522 C520 1.363 . S
C522 C523 1.370 . S
C522 C526 1.524 . S
C523 C515 1.503 . S
C523 C522 1.370 . S
C523 C524 1.403 . S
C524 C523 1.403 . S
C524 C525 1.404 . S
C524 C527 1.539 . S
C525 C521 1.408 . S
C525 C524 1.404 . S
C525 H537 0.930 . S
C526 C522 1.524 . S
C526 H538 0.956 . S
C526 H539 0.961 . S
C526 H540 0.961 . S
C527 C524 1.539 . S
C527 H541 0.958 . S
C527 H542 0.961 . S
C527 H543 0.960 . S
H528 C512 0.931 . S
H529 C517 0.929 . S
H530 C518 0.960 . S
H531 C518 0.962 . S
H532 C518 0.960 . S
H533 C519 0.961 . S
H534 C519 0.961 . S
H535 C519 0.961 . S
H536 C520 0.931 . S
H537 C525 0.930 . S
H538 C526 0.956 . S
H539 C526 0.961 . S
H540 C526 0.961 . S
H541 C527 0.958 . S
H542 C527 0.961 . S
H543 C527 0.960 . S
C544 C545 1.391 . S
C544 C546 1.394 . S
C544 H560 0.931 . S
C545 C544 1.391 . S
C545 C549 1.376 . S
C546 C544 1.394 . S
C546 C547 1.369 . S
C546 C550 1.531 . S
C547 C546 1.369 . S
C547 C548 1.410 . S
C547 C555 1.503 . S
C548 C547 1.410 . S
C548 C549 1.392 . S
C548 C551 1.511 . S
C549 C545 1.376 . S
C549 C548 1.392 . S
C549 H561 0.929 . S
C550 C546 1.531 . S
C550 H562 0.960 . S
C550 H563 0.962 . S
C550 H564 0.960 . S
C551 C548 1.511 . S
C551 H565 0.961 . S
C551 H566 0.961 . S
C551 H567 0.961 . S
C552 C553 1.370 . S
C552 C554 1.363 . S
C552 H568 0.931 . S
C553 C552 1.370 . S
C553 C557 1.408 . S
C554 C552 1.363 . S
C554 C555 1.370 . S
C554 C558 1.524 . S
C555 C547 1.503 . S
C555 C554 1.370 . S
C555 C556 1.403 . S
C556 C555 1.403 . S
C556 C557 1.404 . S
C556 C559 1.539 . S
C557 C553 1.408 . S
C557 C556 1.404 . S
C557 H569 0.930 . S
C558 C554 1.524 . S
C558 H570 0.956 . S
C558 H571 0.961 . S
C558 H572 0.961 . S
C559 C556 1.539 . S
C559 H573 0.958 . S
C559 H574 0.961 . S
C559 H575 0.960 . S
H560 C544 0.931 . S
H561 C549 0.929 . S
H562 C550 0.960 . S
H563 C550 0.962 . S
H564 C550 0.960 . S
H565 C551 0.961 . S
H566 C551 0.961 . S
H567 C551 0.961 . S
H568 C552 0.931 . S
H569 C557 0.930 . S
H570 C558 0.956 . S
H571 C558 0.961 . S
H572 C558 0.961 . S
H573 C559 0.958 . S
H574 C559 0.961 . S
H575 C559 0.960 . S
C576 C577 1.391 . S
C576 C578 1.394 . S
C576 H592 0.931 . S
C577 C576 1.391 . S
C577 C581 1.376 . S
C578 C576 1.394 . S
C578 C579 1.369 . S
C578 C582 1.531 . S
C579 C578 1.369 . S
C579 C580 1.410 . S
C579 C587 1.503 . S
C580 C579 1.410 . S
C580 C581 1.392 . S
C580 C583 1.511 . S
C581 C577 1.376 . S
C581 C580 1.392 . S
C581 H593 0.929 . S
C582 C578 1.531 . S
C582 H594 0.960 . S
C582 H595 0.962 . S
C582 H596 0.960 . S
C583 C580 1.511 . S
C583 H597 0.961 . S
C583 H598 0.961 . S
C583 H599 0.961 . S
C584 C585 1.370 . S
C584 C586 1.363 . S
C584 H600 0.931 . S
C585 C584 1.370 . S
C585 C589 1.408 . S
C586 C584 1.363 . S
C586 C587 1.370 . S
C586 C590 1.524 . S
C587 C579 1.503 . S
C587 C586 1.370 . S
C587 C588 1.403 . S
C588 C587 1.403 . S
C588 C589 1.404 . S
C588 C591 1.539 . S
C589 C585 1.408 . S
C589 C588 1.404 . S
C589 H601 0.930 . S
C590 C586 1.524 . S
C590 H602 0.956 . S
C590 H603 0.961 . S
C590 H604 0.961 . S
C591 C588 1.539 . S
C591 H605 0.958 . S
C591 H606 0.961 . S
C591 H607 0.960 . S
H592 C576 0.931 . S
H593 C581 0.929 . S
H594 C582 0.960 . S
H595 C582 0.962 . S
H596 C582 0.960 . S
H597 C583 0.961 . S
H598 C583 0.961 . S
H599 C583 0.961 . S
H600 C584 0.931 . S
H601 C589 0.930 . S
H602 C590 0.956 . S
H603 C590 0.961 . S
H604 C590 0.961 . S
H605 C591 0.958 . S
H606 C591 0.961 . S
H607 C591 0.960 . S
C608 C609 1.391 . S
C608 C610 1.394 . S
C608 H624 0.931 . S
C609 C608 1.391 . S
C609 C613 1.376 . S
C610 C608 1.394 . S
C610 C611 1.369 . S
C610 C614 1.531 . S
C611 C610 1.369 . S
C611 C612 1.410 . S
C611 C619 1.503 . S
C612 C611 1.410 . S
C612 C613 1.392 . S
C612 C615 1.511 . S
C613 C609 1.376 . S
C613 C612 1.392 . S
C613 H625 0.929 . S
C614 C610 1.531 . S
C614 H626 0.960 . S
C614 H627 0.962 . S
C614 H628 0.960 . S
C615 C612 1.511 . S
C615 H629 0.961 . S
C615 H630 0.961 . S
C615 H631 0.961 . S
C616 C617 1.370 . S
C616 C618 1.363 . S
C616 H632 0.931 . S
C617 C616 1.370 . S
C617 C621 1.408 . S
C618 C616 1.363 . S
C618 C619 1.370 . S
C618 C622 1.524 . S
C619 C611 1.503 . S
C619 C618 1.370 . S
C619 C620 1.403 . S
C620 C619 1.403 . S
C620 C621 1.404 . S
C620 C623 1.539 . S
C621 C617 1.408 . S
C621 C620 1.404 . S
C621 H633 0.930 . S
C622 C618 1.524 . S
C622 H634 0.956 . S
C622 H635 0.961 . S
C622 H636 0.961 . S
C623 C620 1.539 . S
C623 H637 0.958 . S
C623 H638 0.961 . S
C623 H639 0.960 . S
H624 C608 0.931 . S
H625 C613 0.929 . S
H626 C614 0.960 . S
H627 C614 0.962 . S
H628 C614 0.960 . S
H629 C615 0.961 . S
H630 C615 0.961 . S
H631 C615 0.961 . S
H632 C616 0.931 . S
H633 C621 0.930 . S
H634 C622 0.956 . S
H635 C622 0.961 . S
H636 C622 0.961 . S
H637 C623 0.958 . S
H638 C623 0.961 . S
H639 C623 0.960 . S
C640 C641 1.391 . S
C640 C642 1.394 . S
C640 H656 0.931 . S
C641 C640 1.391 . S
C641 C645 1.376 . S
C642 C640 1.394 . S
C642 C643 1.369 . S
C642 C646 1.531 . S
C643 C642 1.369 . S
C643 C644 1.410 . S
C643 C651 1.503 . S
C644 C643 1.410 . S
C644 C645 1.392 . S
C644 C647 1.511 . S
C645 C641 1.376 . S
C645 C644 1.392 . S
C645 H657 0.929 . S
C646 C642 1.531 . S
C646 H658 0.960 . S
C646 H659 0.962 . S
C646 H660 0.960 . S
C647 C644 1.511 . S
C647 H661 0.961 1_556 S
C647 H662 0.961 1_556 S
C647 H663 0.961 . S
C648 C649 1.370 1_554 S
C648 C650 1.363 1_554 S
C648 H664 0.931 . S
C649 C648 1.370 1_556 S
C649 C653 1.408 . S
C650 C648 1.363 1_556 S
C650 C651 1.370 . S
C650 C654 1.524 1_556 S
C651 C643 1.503 . S
C651 C650 1.370 . S
C651 C652 1.403 . S
C652 C651 1.403 . S
C652 C653 1.404 . S
C652 C655 1.539 . S
C653 C649 1.408 . S
C653 C652 1.404 . S
C653 H665 0.930 . S
C654 C650 1.524 1_554 S
C654 H666 0.956 . S
C654 H667 0.961 . S
C654 H668 0.961 . S
C655 C652 1.539 . S
C655 H669 0.958 . S
C655 H670 0.961 . S
C655 H671 0.960 . S
H656 C640 0.931 . S
H657 C645 0.929 . S
H658 C646 0.960 . S
H659 C646 0.962 . S
H660 C646 0.960 . S
H661 C647 0.961 1_554 S
H662 C647 0.961 1_554 S
H663 C647 0.961 . S
H664 C648 0.931 . S
H665 C653 0.930 . S
H666 C654 0.956 . S
H667 C654 0.961 . S
H668 C654 0.961 . S
H669 C655 0.958 . S
H670 C655 0.961 . S
H671 C655 0.960 . S
C672 C673 1.391 . S
C672 C674 1.394 . S
C672 H688 0.931 . S
C673 C672 1.391 . S
C673 C677 1.376 . S
C674 C672 1.394 . S
C674 C675 1.369 . S
C674 C678 1.531 . S
C675 C674 1.369 . S
C675 C676 1.410 . S
C675 C683 1.503 . S
C676 C675 1.410 . S
C676 C677 1.392 . S
C676 C679 1.511 . S
C677 C673 1.376 . S
C677 C676 1.392 . S
C677 H689 0.929 . S
C678 C674 1.531 . S
C678 H690 0.960 . S
C678 H691 0.962 . S
C678 H692 0.960 . S
C679 C676 1.511 . S
C679 H693 0.961 . S
C679 H694 0.961 . S
C679 H695 0.961 . S
C680 C681 1.370 . S
C680 C682 1.363 . S
C680 H696 0.931 . S
C681 C680 1.370 . S
C681 C685 1.408 . S
C682 C680 1.363 . S
C682 C683 1.370 . S
C682 C686 1.524 . S
C683 C675 1.503 . S
C683 C682 1.370 . S
C683 C684 1.403 . S
C684 C683 1.403 . S
C684 C685 1.404 . S
C684 C687 1.539 . S
C685 C681 1.408 . S
C685 C684 1.404 . S
C685 H697 0.930 . S
C686 C682 1.524 . S
C686 H698 0.956 . S
C686 H699 0.961 . S
C686 H700 0.961 . S
C687 C684 1.539 . S
C687 H701 0.958 . S
C687 H702 0.961 . S
C687 H703 0.960 . S
H688 C672 0.931 . S
H689 C677 0.929 . S
H690 C678 0.960 . S
H691 C678 0.962 . S
H692 C678 0.960 . S
H693 C679 0.961 . S
H694 C679 0.961 . S
H695 C679 0.961 . S
H696 C680 0.931 . S
H697 C685 0.930 . S
H698 C686 0.956 . S
H699 C686 0.961 . S
H700 C686 0.961 . S
H701 C687 0.958 . S
H702 C687 0.961 . S
H703 C687 0.960 . S
C704 C705 1.391 . S
C704 C706 1.394 . S
C704 H720 0.931 . S
C705 C704 1.391 . S
C705 C709 1.376 . S
C706 C704 1.394 . S
C706 C707 1.369 . S
C706 C710 1.531 . S
C707 C706 1.369 . S
C707 C708 1.410 . S
C707 C715 1.503 . S
C708 C707 1.410 . S
C708 C709 1.392 . S
C708 C711 1.511 . S
C709 C705 1.376 . S
C709 C708 1.392 . S
C709 H721 0.929 . S
C710 C706 1.531 . S
C710 H722 0.960 . S
C710 H723 0.962 . S
C710 H724 0.960 . S
C711 C708 1.511 . S
C711 H725 0.961 . S
C711 H726 0.961 . S
C711 H727 0.961 . S
C712 C713 1.370 . S
C712 C714 1.363 . S
C712 H728 0.931 . S
C713 C712 1.370 . S
C713 C717 1.408 . S
C714 C712 1.363 . S
C714 C715 1.370 . S
C714 C718 1.524 . S
C715 C707 1.503 . S
C715 C714 1.370 . S
C715 C716 1.403 . S
C716 C715 1.403 . S
C716 C717 1.404 . S
C716 C719 1.539 . S
C717 C713 1.408 . S
C717 C716 1.404 . S
C717 H729 0.930 . S
C718 C714 1.524 . S
C718 H730 0.956 . S
C718 H731 0.961 . S
C718 H732 0.961 . S
C719 C716 1.539 . S
C719 H733 0.958 . S
C719 H734 0.961 . S
C719 H735 0.960 . S
H720 C704 0.931 . S
H721 C709 0.929 . S
H722 C710 0.960 . S
H723 C710 0.962 . S
H724 C710 0.960 . S
H725 C711 0.961 . S
H726 C711 0.961 . S
H727 C711 0.961 . S
H728 C712 0.931 . S
H729 C717 0.930 . S
H730 C718 0.956 . S
H731 C718 0.961 . S
H732 C718 0.961 . S
H733 C719 0.958 . S
H734 C719 0.961 . S
H735 C719 0.960 . S
C736 C737 1.419 . S
C736 C738 1.392 1_455 S
C736 H752 0.906 1_455 S
C737 C736 1.419 . S
C737 C741 1.376 . S
C738 C736 1.392 1_655 S
C738 C739 1.369 1_655 S
C738 C742 1.531 . S
C739 C738 1.369 1_455 S
C739 C740 1.410 . S
C739 C747 1.503 . S
C740 C739 1.410 . S
C740 C741 1.392 . S
C740 C743 1.511 . S
C741 C737 1.376 . S
C741 C740 1.392 . S
C741 H753 0.929 . S
C742 C738 1.531 . S
C742 H754 0.960 . S
C742 H755 0.962 . S
C742 H756 0.960 . S
C743 C740 1.511 . S
C743 H757 0.961 . S
C743 H758 0.961 . S
C743 H759 0.961 . S
C744 C745 1.370 1_554 S
C744 C746 1.363 . S
C744 H760 0.931 . S
C745 C744 1.370 1_556 S
C745 C749 1.400 1_455 S
C746 C744 1.363 . S
C746 C747 1.370 . S
C746 C750 1.524 . S
C747 C739 1.503 . S
C747 C746 1.370 . S
C747 C748 1.403 1_454 S
C748 C747 1.403 1_656 S
C748 C749 1.404 . S
C748 C751 1.539 . S
C749 C745 1.400 1_655 S
C749 C748 1.404 . S
C749 H761 0.937 . S
C750 C746 1.524 . S
C750 H762 0.956 . S
C750 H763 0.961 . S
C750 H764 0.961 . S
C751 C748 1.539 . S
C751 H765 0.958 1_556 S
C751 H766 0.961 . S
C751 H767 0.960 1_556 S
H752 C736 0.906 1_655 S
H753 C741 0.929 . S
H754 C742 0.960 . S
H755 C742 0.962 . S
H756 C742 0.960 . S
H757 C743 0.961 . S
H758 C743 0.961 . S
H759 C743 0.961 . S
H760 C744 0.931 . S
H761 C749 0.937 . S
H762 C750 0.956 . S
H763 C750 0.961 . S
H764 C750 0.961 . S
H765 C751 0.958 1_554 S
H766 C751 0.961 . S
H767 C751 0.960 1_554 S
C768 C769 1.391 . S
C768 C770 1.394 . S
C768 H784 0.931 . S
C769 C768 1.391 . S
C769 C773 1.376 . S
C770 C768 1.394 . S
C770 C771 1.369 . S
C770 C774 1.531 . S
C771 C770 1.369 . S
C771 C772 1.410 . S
C771 C779 1.503 . S
C772 C771 1.410 . S
C772 C773 1.392 . S
C772 C775 1.511 . S
C773 C769 1.376 . S
C773 C772 1.392 . S
C773 H785 0.929 . S
C774 C770 1.531 . S
C774 H786 0.960 . S
C774 H787 0.962 . S
C774 H788 0.960 . S
C775 C772 1.511 . S
C775 H789 0.961 . S
C775 H790 0.961 . S
C775 H791 0.961 . S
C776 C777 1.370 . S
C776 C778 1.363 . S
C776 H792 0.931 . S
C777 C776 1.370 . S
C777 C781 1.408 . S
C778 C776 1.363 . S
C778 C779 1.370 . S
C778 C782 1.524 . S
C779 C771 1.503 . S
C779 C778 1.370 . S
C779 C780 1.403 . S
C780 C779 1.403 . S
C780 C781 1.404 . S
C780 C783 1.539 . S
C781 C777 1.408 . S
C781 C780 1.404 . S
C781 H793 0.930 . S
C782 C778 1.524 . S
C782 H794 0.956 . S
C782 H795 0.961 . S
C782 H796 0.961 . S
C783 C780 1.539 . S
C783 H797 0.958 . S
C783 H798 0.961 . S
C783 H799 0.960 . S
H784 C768 0.931 . S
H785 C773 0.929 . S
H786 C774 0.960 . S
H787 C774 0.962 . S
H788 C774 0.960 . S
H789 C775 0.961 . S
H790 C775 0.961 . S
H791 C775 0.961 . S
H792 C776 0.931 . S
H793 C781 0.930 . S
H794 C782 0.956 . S
H795 C782 0.961 . S
H796 C782 0.961 . S
H797 C783 0.958 . S
H798 C783 0.961 . S
H799 C783 0.960 . S
C800 C801 1.391 . S
C800 C802 1.394 . S
C800 H816 0.931 . S
C801 C800 1.391 . S
C801 C805 1.376 . S
C802 C800 1.394 . S
C802 C803 1.369 . S
C802 C806 1.531 . S
C803 C802 1.369 . S
C803 C804 1.410 . S
C803 C811 1.503 . S
C804 C803 1.410 . S
C804 C805 1.392 . S
C804 C807 1.511 . S
C805 C801 1.376 . S
C805 C804 1.392 . S
C805 H817 0.929 . S
C806 C802 1.531 . S
C806 H818 0.960 . S
C806 H819 0.962 . S
C806 H820 0.960 . S
C807 C804 1.511 . S
C807 H821 0.961 . S
C807 H822 0.961 . S
C807 H823 0.961 . S
C808 C809 1.370 . S
C808 C810 1.363 . S
C808 H824 0.931 . S
C809 C808 1.370 . S
C809 C813 1.408 . S
C810 C808 1.363 . S
C810 C811 1.370 . S
C810 C814 1.524 . S
C811 C803 1.503 . S
C811 C810 1.370 . S
C811 C812 1.403 . S
C812 C811 1.403 . S
C812 C813 1.404 . S
C812 C815 1.539 . S
C813 C809 1.408 . S
C813 C812 1.404 . S
C813 H825 0.930 . S
C814 C810 1.524 . S
C814 H826 0.956 . S
C814 H827 0.961 . S
C814 H828 0.961 . S
C815 C812 1.539 . S
C815 H829 0.958 . S
C815 H830 0.961 . S
C815 H831 0.960 . S
H816 C800 0.931 . S
H817 C805 0.929 . S
H818 C806 0.960 . S
H819 C806 0.962 . S
H820 C806 0.960 . S
H821 C807 0.961 . S
H822 C807 0.961 . S
H823 C807 0.961 . S
H824 C808 0.931 . S
H825 C813 0.930 . S
H826 C814 0.956 . S
H827 C814 0.961 . S
H828 C814 0.961 . S
H829 C815 0.958 . S
H830 C815 0.961 . S
H831 C815 0.960 . S
C832 C833 1.391 . S
C832 C834 1.394 . S
C832 H848 0.931 . S
C833 C832 1.391 . S
C833 C837 1.376 . S
C834 C832 1.394 . S
C834 C835 1.369 . S
C834 C838 1.531 . S
C835 C834 1.369 . S
C835 C836 1.410 . S
C835 C843 1.503 . S
C836 C835 1.410 . S
C836 C837 1.392 . S
C836 C839 1.511 . S
C837 C833 1.376 . S
C837 C836 1.392 . S
C837 H849 0.929 . S
C838 C834 1.531 . S
C838 H850 0.960 . S
C838 H851 0.962 . S
C838 H852 0.960 . S
C839 C836 1.511 . S
C839 H853 0.961 . S
C839 H854 0.961 . S
C839 H855 0.961 . S
C840 C841 1.370 . S
C840 C842 1.363 . S
C840 H856 0.931 . S
C841 C840 1.370 . S
C841 C845 1.408 . S
C842 C840 1.363 . S
C842 C843 1.370 . S
C842 C846 1.524 . S
C843 C835 1.503 . S
C843 C842 1.370 . S
C843 C844 1.403 . S
C844 C843 1.403 . S
C844 C845 1.404 . S
C844 C847 1.539 . S
C845 C841 1.408 . S
C845 C844 1.404 . S
C845 H857 0.930 . S
C846 C842 1.524 . S
C846 H858 0.956 . S
C846 H859 0.961 . S
C846 H860 0.961 . S
C847 C844 1.539 . S
C847 H861 0.958 . S
C847 H862 0.961 . S
C847 H863 0.960 . S
H848 C832 0.931 . S
H849 C837 0.929 . S
H850 C838 0.960 . S
H851 C838 0.962 . S
H852 C838 0.960 . S
H853 C839 0.961 . S
H854 C839 0.961 . S
H855 C839 0.961 . S
H856 C840 0.931 . S
H857 C845 0.930 . S
H858 C846 0.956 . S
H859 C846 0.961 . S
H860 C846 0.961 . S
H861 C847 0.958 . S
H862 C847 0.961 . S
H863 C847 0.960 . S
C864 C865 1.391 . S
C864 C866 1.394 . S
C864 H880 0.931 . S
C865 C864 1.391 . S
C865 C869 1.376 . S
C866 C864 1.394 . S
C866 C867 1.369 . S
C866 C870 1.531 . S
C867 C866 1.369 . S
C867 C868 1.410 . S
C867 C875 1.503 . S
C868 C867 1.410 . S
C868 C869 1.392 . S
C868 C871 1.511 . S
C869 C865 1.376 . S
C869 C868 1.392 . S
C869 H881 0.929 . S
C870 C866 1.531 . S
C870 H882 0.960 . S
C870 H883 0.962 . S
C870 H884 0.960 . S
C871 C868 1.511 . S
C871 H885 0.961 . S
C871 H886 0.961 . S
C871 H887 0.961 . S
C872 C873 1.370 . S
C872 C874 1.363 . S
C872 H888 0.931 . S
C873 C872 1.370 . S
C873 C877 1.408 . S
C874 C872 1.363 . S
C874 C875 1.370 . S
C874 C878 1.524 . S
C875 C867 1.503 . S
C875 C874 1.370 . S
C875 C876 1.403 . S
C876 C875 1.403 . S
C876 C877 1.404 . S
C876 C879 1.539 . S
C877 C873 1.408 . S
C877 C876 1.404 . S
C877 H889 0.930 . S
C878 C874 1.524 . S
C878 H890 0.956 . S
C878 H891 0.961 . S
C878 H892 0.961 . S
C879 C876 1.539 . S
C879 H893 0.958 . S
C879 H894 0.961 . S
C879 H895 0.960 . S
H880 C864 0.931 . S
H881 C869 0.929 . S
H882 C870 0.960 . S
H883 C870 0.962 . S
H884 C870 0.960 . S
H885 C871 0.961 . S
H886 C871 0.961 . S
H887 C871 0.961 . S
H888 C872 0.931 . S
H889 C877 0.930 . S
H890 C878 0.956 . S
H891 C878 0.961 . S
H892 C878 0.961 . S
H893 C879 0.958 . S
H894 C879 0.961 . S
H895 C879 0.960 . S
C896 C897 1.391 . S
C896 C898 1.394 . S
C896 H912 0.931 . S
C897 C896 1.391 . S
C897 C901 1.376 . S
C898 C896 1.394 . S
C898 C899 1.369 . S
C898 C902 1.531 . S
C899 C898 1.369 . S
C899 C900 1.410 . S
C899 C907 1.503 . S
C900 C899 1.410 . S
C900 C901 1.392 . S
C900 C903 1.511 . S
C901 C897 1.376 . S
C901 C900 1.392 . S
C901 H913 0.929 . S
C902 C898 1.531 . S
C902 H914 0.960 . S
C902 H915 0.962 . S
C902 H916 0.960 . S
C903 C900 1.511 . S
C903 H917 0.961 . S
C903 H918 0.961 . S
C903 H919 0.961 . S
C904 C905 1.370 . S
C904 C906 1.363 . S
C904 H920 0.931 . S
C905 C904 1.370 . S
C905 C909 1.408 . S
C906 C904 1.363 . S
C906 C907 1.370 . S
C906 C910 1.524 . S
C907 C899 1.503 . S
C907 C906 1.370 . S
C907 C908 1.403 . S
C908 C907 1.403 . S
C908 C909 1.404 . S
C908 C911 1.539 . S
C909 C905 1.408 . S
C909 C908 1.404 . S
C909 H921 0.930 . S
C910 C906 1.524 . S
C910 H922 0.956 . S
C910 H923 0.961 . S
C910 H924 0.961 . S
C911 C908 1.539 . S
C911 H925 0.958 . S
C911 H926 0.961 . S
C911 H927 0.960 . S
H912 C896 0.931 . S
H913 C901 0.929 . S
H914 C902 0.960 . S
H915 C902 0.962 . S
H916 C902 0.960 . S
H917 C903 0.961 . S
H918 C903 0.961 . S
H919 C903 0.961 . S
H920 C904 0.931 . S
H921 C909 0.930 . S
H922 C910 0.956 . S
H923 C910 0.961 . S
H924 C910 0.961 . S
H925 C911 0.958 . S
H926 C911 0.961 . S
H927 C911 0.960 . S
C928 C929 1.391 . S
C928 C930 1.394 . S
C928 H944 0.931 . S
C929 C928 1.391 . S
C929 C933 1.376 . S
C930 C928 1.394 . S
C930 C931 1.369 . S
C930 C934 1.531 . S
C931 C930 1.369 . S
C931 C932 1.410 . S
C931 C939 1.503 1_565 S
C932 C931 1.410 . S
C932 C933 1.392 . S
C932 C935 1.511 . S
C933 C929 1.376 . S
C933 C932 1.392 . S
C933 H945 0.929 . S
C934 C930 1.531 . S
C934 H946 0.960 . S
C934 H947 0.962 . S
C934 H948 0.960 . S
C935 C932 1.511 . S
C935 H949 0.961 1_565 S
C935 H950 0.961 1_565 S
C935 H951 0.961 . S
C936 C937 1.370 . S
C936 C938 1.363 . S
C936 H952 0.931 . S
C937 C936 1.370 . S
C937 C941 1.408 . S
C938 C936 1.363 . S
C938 C939 1.370 . S
C938 C942 1.524 . S
C939 C931 1.503 1_545 S
C939 C938 1.370 . S
C939 C940 1.406 . S
C940 C939 1.406 . S
C940 C941 1.414 . S
C940 C943 1.526 1_545 S
C941 C937 1.408 . S
C941 C940 1.414 . S
C941 H953 0.930 . S
C942 C938 1.524 . S
C942 H954 0.956 . S
C942 H955 0.961 . S
C942 H956 0.961 . S
C943 C940 1.526 1_565 S
C943 H957 0.958 . S
C943 H958 0.961 . S
C943 H959 0.960 . S
H944 C928 0.931 . S
H945 C933 0.929 . S
H946 C934 0.960 . S
H947 C934 0.962 . S
H948 C934 0.960 . S
H949 C935 0.961 1_545 S
H950 C935 0.961 1_545 S
H951 C935 0.961 . S
H952 C936 0.931 . S
H953 C941 0.930 . S
H954 C942 0.956 . S
H955 C942 0.961 . S
H956 C942 0.961 . S
H957 C943 0.958 . S
H958 C943 0.961 . S
H959 C943 0.960 . S
C960 C961 1.391 . S
C960 C962 1.394 . S
C960 H976 0.931 . S
C961 C960 1.391 . S
C961 C965 1.376 1_556 S
C962 C960 1.394 . S
C962 C963 1.369 1_556 S
C962 C966 1.532 1_545 S
C963 C962 1.369 1_554 S
C963 C964 1.410 . S
C963 C971 1.503 1_545 S
C964 C963 1.410 . S
C964 C965 1.392 . S
C964 C967 1.511 . S
C965 C961 1.376 1_554 S
C965 C964 1.392 . S
C965 H977 0.929 . S
C966 C962 1.532 1_565 S
C966 H978 0.962 1_556 S
C966 H979 0.959 1_456 S
C966 H980 0.960 1_455 S
C967 C964 1.511 . S
C967 H981 0.961 . S
C967 H982 0.961 . S
C967 H983 0.961 . S
C968 C969 1.370 . S
C968 C970 1.363 . S
C968 H984 0.931 1_455 S
C969 C968 1.370 . S
C969 C973 1.408 . S
C970 C968 1.363 . S
C970 C971 1.370 . S
C970 C974 1.524 1_465 S
C971 C963 1.503 1_565 S
C971 C970 1.370 . S
C971 C972 1.403 . S
C972 C971 1.403 . S
C972 C973 1.404 . S
C972 C975 1.539 . S
C973 C969 1.408 . S
C973 C972 1.404 . S
C973 H985 0.930 . S
C974 C970 1.524 1_645 S
C974 H986 0.956 . S
C974 H987 0.961 1_655 S
C974 H988 0.961 . S
C975 C972 1.539 . S
C975 H989 0.958 . S
C975 H990 0.961 . S
C975 H991 0.960 . S
H976 C960 0.931 . S
H977 C965 0.929 . S
H978 C966 0.962 1_554 S
H979 C966 0.959 1_654 S
H980 C966 0.960 1_655 S
H981 C967 0.961 . S
H982 C967 0.961 . S
H983 C967 0.961 . S
H984 C968 0.931 1_655 S
H985 C973 0.930 . S
H986 C974 0.956 . S
H987 C974 0.961 1_455 S
H988 C974 0.961 . S
H989 C975 0.958 . S
H990 C975 0.961 . S
H991 C975 0.960 . S
C992 C993 1.391 . S
C992 C994 1.394 . S
C992 H1008 0.931 1_455 S
C993 C992 1.391 . S
C993 C997 1.376 . S
C994 C992 1.394 . S
C994 C995 1.369 . S
C994 C998 1.531 1_455 S
C995 C994 1.369 . S
C995 C996 1.410 . S
C995 C1003 1.503 . S
C996 C995 1.410 . S
C996 C997 1.392 . S
C996 C999 1.511 . S
C997 C993 1.376 . S
C997 C996 1.392 . S
C997 H1009 0.929 . S
C998 C994 1.531 1_655 S
C998 H1010 0.960 . S
C998 H1011 0.962 . S
C998 H1012 0.960 . S
C999 C996 1.511 . S
C999 H1013 0.961 . S
C999 H1014 0.961 . S
C999 H1015 0.961 . S
C1000 C1001 1.370 . S
C1000 C1002 1.363 . S
C1000 H1016 0.931 1_455 S
C1001 C1000 1.370 . S
C1001 C1005 1.408 . S
C1002 C1000 1.363 . S
C1002 C1003 1.370 . S
C1002 C1006 1.524 1_455 S
C1003 C995 1.503 . S
C1003 C1002 1.370 . S
C1003 C1004 1.403 . S
C1004 C1003 1.403 . S
C1004 C1005 1.404 . S
C1004 C1007 1.539 . S
C1005 C1001 1.408 . S
C1005 C1004 1.404 . S
C1005 H1017 0.930 . S
C1006 C1002 1.524 1_655 S
C1006 H1018 0.956 . S
C1006 H1019 0.961 1_655 S
C1006 H1020 0.961 . S
C1007 C1004 1.539 . S
C1007 H1021 0.958 . S
C1007 H1022 0.961 . S
C1007 H1023 0.960 . S
H1008 C992 0.931 1_655 S
H1009 C997 0.929 . S
H1010 C998 0.960 . S
H1011 C998 0.962 . S
H1012 C998 0.960 . S
H1013 C999 0.961 . S
H1014 C999 0.961 . S
H1015 C999 0.961 . S
H1016 C1000 0.931 1_655 S
H1017 C1005 0.930 . S
H1018 C1006 0.956 . S
H1019 C1006 0.961 1_455 S
H1020 C1006 0.961 . S
H1021 C1007 0.958 . S
H1022 C1007 0.961 . S
H1023 C1007 0.960 . S
C1024 C1025 1.391 . S
C1024 C1026 1.394 . S
C1024 H1040 0.931 . S
C1025 C1024 1.391 . S
C1025 C1029 1.376 . S
C1026 C1024 1.394 . S
C1026 C1027 1.369 . S
C1026 C1030 1.531 . S
C1027 C1026 1.369 . S
C1027 C1028 1.410 . S
C1027 C1035 1.503 . S
C1028 C1027 1.410 . S
C1028 C1029 1.392 . S
C1028 C1031 1.511 . S
C1029 C1025 1.376 . S
C1029 C1028 1.392 . S
C1029 H1041 0.929 . S
C1030 C1026 1.531 . S
C1030 H1042 0.960 . S
C1030 H1043 0.962 . S
C1030 H1044 0.960 . S
C1031 C1028 1.511 . S
C1031 H1045 0.961 . S
C1031 H1046 0.961 . S
C1031 H1047 0.961 . S
C1032 C1033 1.370 . S
C1032 C1034 1.363 . S
C1032 H1048 0.931 . S
C1033 C1032 1.370 . S
C1033 C1037 1.408 . S
C1034 C1032 1.363 . S
C1034 C1035 1.370 . S
C1034 C1038 1.524 . S
C1035 C1027 1.503 . S
C1035 C1034 1.370 . S
C1035 C1036 1.403 . S
C1036 C1035 1.403 . S
C1036 C1037 1.404 . S
C1036 C1039 1.539 . S
C1037 C1033 1.408 . S
C1037 C1036 1.404 . S
C1037 H1049 0.930 . S
C1038 C1034 1.524 . S
C1038 H1050 0.956 . S
C1038 H1051 0.961 . S
C1038 H1052 0.961 . S
C1039 C1036 1.539 . S
C1039 H1053 0.958 . S
C1039 H1054 0.961 . S
C1039 H1055 0.960 . S
H1040 C1024 0.931 . S
H1041 C1029 0.929 . S
H1042 C1030 0.960 . S
H1043 C1030 0.962 . S
H1044 C1030 0.960 . S
H1045 C1031 0.961 . S
H1046 C1031 0.961 . S
H1047 C1031 0.961 . S
H1048 C1032 0.931 . S
H1049 C1037 0.930 . S
H1050 C1038 0.956 . S
H1051 C1038 0.961 . S
H1052 C1038 0.961 . S
H1053 C1039 0.958 . S
H1054 C1039 0.961 . S
H1055 C1039 0.960 . S
C1056 C1057 1.391 . S
C1056 C1058 1.394 . S
C1056 H1072 0.931 . S
C1057 C1056 1.391 . S
C1057 C1061 1.376 . S
C1058 C1056 1.394 . S
C1058 C1059 1.369 . S
C1058 C1062 1.531 . S
C1059 C1058 1.369 . S
C1059 C1060 1.410 . S
C1059 C1067 1.503 . S
C1060 C1059 1.410 . S
C1060 C1061 1.392 . S
C1060 C1063 1.511 . S
C1061 C1057 1.376 . S
C1061 C1060 1.392 . S
C1061 H1073 0.929 . S
C1062 C1058 1.531 . S
C1062 H1074 0.960 . S
C1062 H1075 0.962 . S
C1062 H1076 0.960 . S
C1063 C1060 1.511 . S
C1063 H1077 0.961 . S
C1063 H1078 0.961 . S
C1063 H1079 0.961 . S
C1064 C1065 1.370 . S
C1064 C1066 1.363 1_556 S
C1064 H1080 0.931 . S
C1065 C1064 1.370 . S
C1065 C1069 1.408 . S
C1066 C1064 1.363 1_554 S
C1066 C1067 1.370 . S
C1066 C1070 1.524 . S
C1067 C1059 1.503 . S
C1067 C1066 1.370 . S
C1067 C1068 1.403 1_554 S
C1068 C1067 1.403 1_556 S
C1068 C1069 1.404 . S
C1068 C1071 1.539 . S
C1069 C1065 1.408 . S
C1069 C1068 1.404 . S
C1069 H1081 0.930 . S
C1070 C1066 1.524 . S
C1070 H1082 0.956 . S
C1070 H1083 0.961 . S
C1070 H1084 0.961 . S
C1071 C1068 1.539 . S
C1071 H1085 0.958 . S
C1071 H1086 0.961 . S
C1071 H1087 0.960 1_556 S
H1072 C1056 0.931 . S
H1073 C1061 0.929 . S
H1074 C1062 0.960 . S
H1075 C1062 0.962 . S
H1076 C1062 0.960 . S
H1077 C1063 0.961 . S
H1078 C1063 0.961 . S
H1079 C1063 0.961 . S
H1080 C1064 0.931 . S
H1081 C1069 0.930 . S
H1082 C1070 0.956 . S
H1083 C1070 0.961 . S
H1084 C1070 0.961 . S
H1085 C1071 0.958 . S
H1086 C1071 0.961 . S
H1087 C1071 0.960 1_554 S
C1088 C1089 1.391 . S
C1088 C1090 1.394 . S
C1088 H1104 0.931 . S
C1089 C1088 1.391 . S
C1089 C1093 1.376 . S
C1090 C1088 1.394 . S
C1090 C1091 1.369 . S
C1090 C1094 1.531 . S
C1091 C1090 1.369 . S
C1091 C1092 1.410 . S
C1091 C1099 1.503 . S
C1092 C1091 1.410 . S
C1092 C1093 1.392 . S
C1092 C1095 1.511 . S
C1093 C1089 1.376 . S
C1093 C1092 1.392 . S
C1093 H1105 0.929 . S
C1094 C1090 1.531 . S
C1094 H1106 0.960 . S
C1094 H1107 0.962 . S
C1094 H1108 0.960 . S
C1095 C1092 1.511 . S
C1095 H1109 0.961 . S
C1095 H1110 0.961 . S
C1095 H1111 0.961 . S
C1096 C1097 1.370 . S
C1096 C1098 1.363 . S
C1096 H1112 0.931 . S
C1097 C1096 1.370 . S
C1097 C1101 1.408 . S
C1098 C1096 1.363 . S
C1098 C1099 1.370 . S
C1098 C1102 1.524 . S
C1099 C1091 1.503 . S
C1099 C1098 1.370 . S
C1099 C1100 1.403 . S
C1100 C1099 1.403 . S
C1100 C1101 1.404 . S
C1100 C1103 1.539 . S
C1101 C1097 1.408 . S
C1101 C1100 1.404 . S
C1101 H1113 0.930 . S
C1102 C1098 1.524 . S
C1102 H1114 0.956 . S
C1102 H1115 0.961 . S
C1102 H1116 0.961 . S
C1103 C1100 1.539 . S
C1103 H1117 0.958 . S
C1103 H1118 0.961 . S
C1103 H1119 0.960 . S
H1104 C1088 0.931 . S
H1105 C1093 0.929 . S
H1106 C1094 0.960 . S
H1107 C1094 0.962 . S
H1108 C1094 0.960 . S
H1109 C1095 0.961 . S
H1110 C1095 0.961 . S
H1111 C1095 0.961 . S
H1112 C1096 0.931 . S
H1113 C1101 0.930 . S
H1114 C1102 0.956 . S
H1115 C1102 0.961 . S
H1116 C1102 0.961 . S
H1117 C1103 0.958 . S
H1118 C1103 0.961 . S
H1119 C1103 0.960 . S
C1120 C1121 1.391 . S
C1120 C1122 1.394 . S
C1120 H1136 0.931 . S
C1121 C1120 1.391 . S
C1121 C1125 1.376 . S
C1122 C1120 1.394 . S
C1122 C1123 1.369 . S
C1122 C1126 1.531 . S
C1123 C1122 1.369 . S
C1123 C1124 1.410 . S
C1123 C1131 1.503 . S
C1124 C1123 1.410 . S
C1124 C1125 1.392 . S
C1124 C1127 1.511 . S
C1125 C1121 1.376 . S
C1125 C1124 1.392 . S
C1125 H1137 0.929 . S
C1126 C1122 1.531 . S
C1126 H1138 0.960 . S
C1126 H1139 0.962 . S
C1126 H1140 0.960 . S
C1127 C1124 1.511 . S
C1127 H1141 0.961 . S
C1127 H1142 0.961 . S
C1127 H1143 0.961 . S
C1128 C1129 1.370 . S
C1128 C1130 1.363 . S
C1128 H1144 0.931 . S
C1129 C1128 1.370 . S
C1129 C1133 1.408 . S
C1130 C1128 1.363 . S
C1130 C1131 1.370 . S
C1130 C1134 1.524 . S
C1131 C1123 1.503 . S
C1131 C1130 1.370 . S
C1131 C1132 1.403 . S
C1132 C1131 1.403 . S
C1132 C1133 1.404 . S
C1132 C1135 1.539 . S
C1133 C1129 1.408 . S
C1133 C1132 1.404 . S
C1133 H1145 0.930 . S
C1134 C1130 1.524 . S
C1134 H1146 0.956 . S
C1134 H1147 0.961 . S
C1134 H1148 0.961 . S
C1135 C1132 1.539 . S
C1135 H1149 0.958 . S
C1135 H1150 0.961 . S
C1135 H1151 0.960 . S
H1136 C1120 0.931 . S
H1137 C1125 0.929 . S
H1138 C1126 0.960 . S
H1139 C1126 0.962 . S
H1140 C1126 0.960 . S
H1141 C1127 0.961 . S
H1142 C1127 0.961 . S
H1143 C1127 0.961 . S
H1144 C1128 0.931 . S
H1145 C1133 0.930 . S
H1146 C1134 0.956 . S
H1147 C1134 0.961 . S
H1148 C1134 0.961 . S
H1149 C1135 0.958 . S
H1150 C1135 0.961 . S
H1151 C1135 0.960 . S
C1152 C1153 1.391 . S
C1152 C1154 1.394 . S
C1152 H1168 0.931 . S
C1153 C1152 1.391 . S
C1153 C1157 1.376 . S
C1154 C1152 1.394 . S
C1154 C1155 1.369 . S
C1154 C1158 1.531 . S
C1155 C1154 1.369 . S
C1155 C1156 1.410 . S
C1155 C1163 1.503 . S
C1156 C1155 1.410 . S
C1156 C1157 1.392 . S
C1156 C1159 1.511 . S
C1157 C1153 1.376 . S
C1157 C1156 1.392 . S
C1157 H1169 0.929 . S
C1158 C1154 1.531 . S
C1158 H1170 0.960 . S
C1158 H1171 0.962 . S
C1158 H1172 0.960 . S
C1159 C1156 1.511 . S
C1159 H1173 0.961 . S
C1159 H1174 0.961 . S
C1159 H1175 0.961 . S
C1160 C1161 1.370 . S
C1160 C1162 1.363 . S
C1160 H1176 0.931 . S
C1161 C1160 1.370 . S
C1161 C1165 1.408 . S
C1162 C1160 1.363 . S
C1162 C1163 1.370 . S
C1162 C1166 1.524 . S
C1163 C1155 1.503 . S
C1163 C1162 1.370 . S
C1163 C1164 1.403 . S
C1164 C1163 1.403 . S
C1164 C1165 1.404 . S
C1164 C1167 1.539 . S
C1165 C1161 1.408 . S
C1165 C1164 1.404 . S
C1165 H1177 0.930 . S
C1166 C1162 1.524 . S
C1166 H1178 0.956 . S
C1166 H1179 0.961 . S
C1166 H1180 0.961 . S
C1167 C1164 1.539 . S
C1167 H1181 0.958 . S
C1167 H1182 0.961 . S
C1167 H1183 0.960 . S
H1168 C1152 0.931 . S
H1169 C1157 0.929 . S
H1170 C1158 0.960 . S
H1171 C1158 0.962 . S
H1172 C1158 0.960 . S
H1173 C1159 0.961 . S
H1174 C1159 0.961 . S
H1175 C1159 0.961 . S
H1176 C1160 0.931 . S
H1177 C1165 0.930 . S
H1178 C1166 0.956 . S
H1179 C1166 0.961 . S
H1180 C1166 0.961 . S
H1181 C1167 0.958 . S
H1182 C1167 0.961 . S
H1183 C1167 0.960 . S
C1184 C1185 1.391 . S
C1184 C1186 1.394 . S
C1184 H1200 0.931 . S
C1185 C1184 1.391 . S
C1185 C1189 1.376 . S
C1186 C1184 1.394 . S
C1186 C1187 1.369 . S
C1186 C1190 1.531 . S
C1187 C1186 1.369 . S
C1187 C1188 1.410 . S
C1187 C1195 1.503 1_565 S
C1188 C1187 1.410 . S
C1188 C1189 1.392 . S
C1188 C1191 1.511 1_565 S
C1189 C1185 1.376 . S
C1189 C1188 1.392 . S
C1189 H1201 0.929 . S
C1190 C1186 1.531 . S
C1190 H1202 0.960 1_565 S
C1190 H1203 0.962 . S
C1190 H1204 0.960 . S
C1191 C1188 1.511 1_545 S
C1191 H1205 0.961 1_545 S
C1191 H1206 0.961 . S
C1191 H1207 0.961 . S
C1192 C1193 1.370 . S
C1192 C1194 1.363 1_545 S
C1192 H1208 0.931 . S
C1193 C1192 1.370 . S
C1193 C1197 1.408 . S
C1194 C1192 1.363 1_565 S
C1194 C1195 1.370 1_566 S
C1194 C1198 1.524 . S
C1195 C1187 1.503 1_545 S
C1195 C1194 1.370 1_544 S
C1195 C1196 1.403 . S
C1196 C1195 1.403 . S
C1196 C1197 1.404 1_554 S
C1196 C1199 1.539 . S
C1197 C1193 1.408 . S
C1197 C1196 1.404 1_556 S
C1197 H1209 0.930 . S
C1198 C1194 1.524 . S
C1198 H1210 0.956 1_556 S
C1198 H1211 0.961 1_556 S
C1198 H1212 0.961 . S
C1199 C1196 1.539 . S
C1199 H1213 0.958 . S
C1199 H1214 0.961 . S
C1199 H1215 0.960 . S
H1200 C1184 0.931 . S
H1201 C1189 0.929 . S
H1202 C1190 0.960 1_545 S
H1203 C1190 0.962 . S
H1204 C1190 0.960 . S
H1205 C1191 0.961 1_565 S
H1206 C1191 0.961 . S
H1207 C1191 0.961 . S
H1208 C1192 0.931 . S
H1209 C1197 0.930 . S
H1210 C1198 0.956 1_554 S
H1211 C1198 0.961 1_554 S
H1212 C1198 0.961 . S
H1213 C1199 0.958 . S
H1214 C1199 0.961 . S
H1215 C1199 0.960 . S
C1216 C1217 1.391 . S
C1216 C1218 1.394 . S
C1216 H1232 0.931 1_455 S
C1217 C1216 1.391 . S
C1217 C1221 1.376 . S
C1218 C1216 1.394 . S
C1218 C1219 1.369 . S
C1218 C1222 1.531 1_455 S
C1219 C1218 1.369 . S
C1219 C1220 1.410 . S
C1219 C1227 1.503 1_545 S
C1220 C1219 1.410 . S
C1220 C1221 1.392 . S
C1220 C1223 1.511 . S
C1221 C1217 1.376 . S
C1221 C1220 1.392 . S
C1221 H1233 0.929 . S
C1222 C1218 1.531 1_655 S
C1222 H1234 0.960 . S
C1222 H1235 0.962 . S
C1222 H1236 0.960 . S
C1223 C1220 1.511 . S
C1223 H1237 0.961 . S
C1223 H1238 0.961 1_545 S
C1223 H1239 0.961 . S
C1224 C1225 1.370 . S
C1224 C1226 1.363 . S
C1224 H1240 0.931 . S
C1225 C1224 1.370 . S
C1225 C1229 1.408 . S
C1226 C1224 1.363 . S
C1226 C1227 1.370 . S
C1226 C1230 1.524 . S
C1227 C1219 1.503 1_565 S
C1227 C1226 1.370 . S
C1227 C1228 1.403 1_565 S
C1228 C1227 1.403 1_545 S
C1228 C1229 1.404 1_545 S
C1228 C1231 1.539 . S
C1229 C1225 1.408 . S
C1229 C1228 1.404 1_565 S
C1229 H1241 0.930 . S
C1230 C1226 1.524 . S
C1230 H1242 0.956 . S
C1230 H1243 0.961 . S
C1230 H1244 0.961 . S
C1231 C1228 1.539 . S
C1231 H1245 0.958 . S
C1231 H1246 0.961 . S
C1231 H1247 0.960 . S
H1232 C1216 0.931 1_655 S
H1233 C1221 0.929 . S
H1234 C1222 0.960 . S
H1235 C1222 0.962 . S
H1236 C1222 0.960 . S
H1237 C1223 0.961 . S
H1238 C1223 0.961 1_565 S
H1239 C1223 0.961 . S
H1240 C1224 0.931 . S
H1241 C1229 0.930 . S
H1242 C1230 0.956 . S
H1243 C1230 0.961 . S
H1244 C1230 0.961 . S
H1245 C1231 0.958 . S
H1246 C1231 0.961 . S
H1247 C1231 0.960 . S
C225 C137 1.406 . S
C233 C11 1.426 . S
C257 C207 1.429 . S
C265 C25 1.420 . S
C289 C39 1.401 . S
C297 C123 1.429 . S
C321 C53 1.450 . S
C329 C221 1.442 . S
C353 C67 1.459 . S
C361 C151 1.436 . S
C385 C193 1.460 . S
C393 C81 1.427 . S
C417 C165 1.397 . S
C425 C95 1.434 . S
C449 C109 1.461 . S
C457 C179 1.428 . S
C481 C68 1.435 . S
C489 C54 1.439 . S
C513 C180 1.444 . S
C521 C124 1.445 . S
C545 C96 1.425 . S
C553 C26 1.436 . S
C577 C138 1.446 . S
C585 C194 1.445 . S
C609 C12 1.442 . S
C617 C82 1.445 . S
C641 C222 1.433 . S
C649 C152 1.439 . S
C673 C110 1.433 . S
C681 C40 1.443 . S
C705 C166 1.424 . S
C713 C208 1.436 . S
C737 C4 0.511 . S
C745 C60 0.583 . S
C769 C74 0.583 . S
C777 C18 0.556 . S
C801 C88 0.489 . S
C809 C32 0.585 . S
C833 C46 0.630 . S
C841 C102 0.531 . S
C865 C144 0.634 . S
C873 C116 0.526 . S
C897 C158 0.492 . S
C905 C130 0.589 . S
C929 C200 0.486 . S
C937 C172 0.586 . S
C961 C214 0.611 . S
C969 C186 0.542 . S
C993 C61 1.432 . S
C1001 C5 1.378 . S
C1025 C75 1.395 . S
C1033 C19 1.384 . S
C1057 C89 1.340 . S
C1065 C33 1.408 . S
C1089 C47 1.358 . S
C1097 C103 1.409 . S
C1121 C117 1.424 . S
C1129 C145 1.373 . S
C1153 C159 1.385 . S
C1161 C131 1.400 . S
C1185 C201 1.444 . S
C1193 C173 1.368 . S
C1217 C215 1.332 . S
C1225 C187 1.414 . S
