# Generated by pormake.
# Topology teo, (8)-cn, num edge types: 1
# Building blocks:
#     Node 0, Type 0, BuildingBlock: LIZSOE_clean_sbu_0, # of connection points: 8
#     Node 1, Type 0, BuildingBlock: LIZSOE_clean_sbu_0, # of connection points: 8
#     Node 2, Type 0, BuildingBlock: LIZSOE_clean_sbu_0, # of connection points: 8
#     Node 3, Type 0, BuildingBlock: LIZSOE_clean_sbu_0, # of connection points: 8
#     Node 4, Type 0, BuildingBlock: LIZSOE_clean_sbu_0, # of connection points: 8
#     Node 5, Type 0, BuildingBlock: LIZSOE_clean_sbu_0, # of connection points: 8
#     Node 6, Type 0, BuildingBlock: LIZSOE_clean_sbu_0, # of connection points: 8
#     Node 7, Type 0, BuildingBlock: LIZSOE_clean_sbu_0, # of connection points: 8
#     Node 8, Type 0, BuildingBlock: LIZSOE_clean_sbu_0, # of connection points: 8
#     Node 9, Type 0, BuildingBlock: LIZSOE_clean_sbu_0, # of connection points: 8
#     Node 10, Type 0, BuildingBlock: LIZSOE_clean_sbu_0, # of connection points: 8
#     Node 11, Type 0, BuildingBlock: LIZSOE_clean_sbu_0, # of connection points: 8
#     Node 12, Type 0, BuildingBlock: LIZSOE_clean_sbu_0, # of connection points: 8
#     Node 13, Type 0, BuildingBlock: LIZSOE_clean_sbu_0, # of connection points: 8
#     Node 14, Type 0, BuildingBlock: LIZSOE_clean_sbu_0, # of connection points: 8
#     Node 15, Type 0, BuildingBlock: LIZSOE_clean_sbu_0, # of connection points: 8
#     Node 16, Type 0, BuildingBlock: LIZSOE_clean_sbu_0, # of connection points: 8
#     Node 17, Type 0, BuildingBlock: LIZSOE_clean_sbu_0, # of connection points: 8
#     Node 18, Type 0, BuildingBlock: LIZSOE_clean_sbu_0, # of connection points: 8
#     Node 19, Type 0, BuildingBlock: LIZSOE_clean_sbu_0, # of connection points: 8
#     Node 20, Type 0, BuildingBlock: LIZSOE_clean_sbu_0, # of connection points: 8
#     Node 21, Type 0, BuildingBlock: LIZSOE_clean_sbu_0, # of connection points: 8
#     Node 22, Type 0, BuildingBlock: LIZSOE_clean_sbu_0, # of connection points: 8
#     Node 23, Type 0, BuildingBlock: LIZSOE_clean_sbu_0, # of connection points: 8
#     Edge 24, Type (0, 0), BuildingBlock: KIFKEQ_clean_linker_1, # of connection points: 2
#     Edge 25, Type (0, 0), BuildingBlock: KIFKEQ_clean_linker_1, # of connection points: 2
#     Edge 26, Type (0, 0), BuildingBlock: KIFKEQ_clean_linker_1, # of connection points: 2
#     Edge 27, Type (0, 0), BuildingBlock: KIFKEQ_clean_linker_1, # of connection points: 2
#     Edge 28, Type (0, 0), BuildingBlock: KIFKEQ_clean_linker_1, # of connection points: 2
#     Edge 29, Type (0, 0), BuildingBlock: KIFKEQ_clean_linker_1, # of connection points: 2
#     Edge 30, Type (0, 0), BuildingBlock: KIFKEQ_clean_linker_1, # of connection points: 2
#     Edge 31, Type (0, 0), BuildingBlock: KIFKEQ_clean_linker_1, # of connection points: 2
#     Edge 32, Type (0, 0), BuildingBlock: KIFKEQ_clean_linker_1, # of connection points: 2
#     Edge 33, Type (0, 0), BuildingBlock: KIFKEQ_clean_linker_1, # of connection points: 2
#     Edge 34, Type (0, 0), BuildingBlock: KIFKEQ_clean_linker_1, # of connection points: 2
#     Edge 35, Type (0, 0), BuildingBlock: KIFKEQ_clean_linker_1, # of connection points: 2
#     Edge 36, Type (0, 0), BuildingBlock: KIFKEQ_clean_linker_1, # of connection points: 2
#     Edge 37, Type (0, 0), BuildingBlock: KIFKEQ_clean_linker_1, # of connection points: 2
#     Edge 38, Type (0, 0), BuildingBlock: KIFKEQ_clean_linker_1, # of connection points: 2
#     Edge 39, Type (0, 0), BuildingBlock: KIFKEQ_clean_linker_1, # of connection points: 2
#     Edge 40, Type (0, 0), BuildingBlock: KIFKEQ_clean_linker_1, # of connection points: 2
#     Edge 41, Type (0, 0), BuildingBlock: KIFKEQ_clean_linker_1, # of connection points: 2
#     Edge 42, Type (0, 0), BuildingBlock: KIFKEQ_clean_linker_1, # of connection points: 2
#     Edge 43, Type (0, 0), BuildingBlock: KIFKEQ_clean_linker_1, # of connection points: 2
#     Edge 44, Type (0, 0), BuildingBlock: KIFKEQ_clean_linker_1, # of connection points: 2
#     Edge 45, Type (0, 0), BuildingBlock: KIFKEQ_clean_linker_1, # of connection points: 2
#     Edge 46, Type (0, 0), BuildingBlock: KIFKEQ_clean_linker_1, # of connection points: 2
#     Edge 47, Type (0, 0), BuildingBlock: KIFKEQ_clean_linker_1, # of connection points: 2
#     Edge 48, Type (0, 0), BuildingBlock: KIFKEQ_clean_linker_1, # of connection points: 2
#     Edge 49, Type (0, 0), BuildingBlock: KIFKEQ_clean_linker_1, # of connection points: 2
#     Edge 50, Type (0, 0), BuildingBlock: KIFKEQ_clean_linker_1, # of connection points: 2
#     Edge 51, Type (0, 0), BuildingBlock: KIFKEQ_clean_linker_1, # of connection points: 2
#     Edge 52, Type (0, 0), BuildingBlock: KIFKEQ_clean_linker_1, # of connection points: 2
#     Edge 53, Type (0, 0), BuildingBlock: KIFKEQ_clean_linker_1, # of connection points: 2
#     Edge 54, Type (0, 0), BuildingBlock: KIFKEQ_clean_linker_1, # of connection points: 2
#     Edge 55, Type (0, 0), BuildingBlock: KIFKEQ_clean_linker_1, # of connection points: 2
#     Edge 56, Type (0, 0), BuildingBlock: KIFKEQ_clean_linker_1, # of connection points: 2
#     Edge 57, Type (0, 0), BuildingBlock: KIFKEQ_clean_linker_1, # of connection points: 2
#     Edge 58, Type (0, 0), BuildingBlock: KIFKEQ_clean_linker_1, # of connection points: 2
#     Edge 59, Type (0, 0), BuildingBlock: KIFKEQ_clean_linker_1, # of connection points: 2
#     Edge 60, Type (0, 0), BuildingBlock: KIFKEQ_clean_linker_1, # of connection points: 2
#     Edge 61, Type (0, 0), BuildingBlock: KIFKEQ_clean_linker_1, # of connection points: 2
#     Edge 62, Type (0, 0), BuildingBlock: KIFKEQ_clean_linker_1, # of connection points: 2
#     Edge 63, Type (0, 0), BuildingBlock: KIFKEQ_clean_linker_1, # of connection points: 2
#     Edge 64, Type (0, 0), BuildingBlock: KIFKEQ_clean_linker_1, # of connection points: 2
#     Edge 65, Type (0, 0), BuildingBlock: KIFKEQ_clean_linker_1, # of connection points: 2
#     Edge 66, Type (0, 0), BuildingBlock: KIFKEQ_clean_linker_1, # of connection points: 2
#     Edge 67, Type (0, 0), BuildingBlock: KIFKEQ_clean_linker_1, # of connection points: 2
#     Edge 68, Type (0, 0), BuildingBlock: KIFKEQ_clean_linker_1, # of connection points: 2
#     Edge 69, Type (0, 0), BuildingBlock: KIFKEQ_clean_linker_1, # of connection points: 2
#     Edge 70, Type (0, 0), BuildingBlock: KIFKEQ_clean_linker_1, # of connection points: 2
#     Edge 71, Type (0, 0), BuildingBlock: KIFKEQ_clean_linker_1, # of connection points: 2
#     Edge 72, Type (0, 0), BuildingBlock: KIFKEQ_clean_linker_1, # of connection points: 2
#     Edge 73, Type (0, 0), BuildingBlock: KIFKEQ_clean_linker_1, # of connection points: 2
#     Edge 74, Type (0, 0), BuildingBlock: KIFKEQ_clean_linker_1, # of connection points: 2
#     Edge 75, Type (0, 0), BuildingBlock: KIFKEQ_clean_linker_1, # of connection points: 2
#     Edge 76, Type (0, 0), BuildingBlock: KIFKEQ_clean_linker_1, # of connection points: 2
#     Edge 77, Type (0, 0), BuildingBlock: KIFKEQ_clean_linker_1, # of connection points: 2
#     Edge 78, Type (0, 0), BuildingBlock: KIFKEQ_clean_linker_1, # of connection points: 2
#     Edge 79, Type (0, 0), BuildingBlock: KIFKEQ_clean_linker_1, # of connection points: 2
#     Edge 80, Type (0, 0), BuildingBlock: KIFKEQ_clean_linker_1, # of connection points: 2
#     Edge 81, Type (0, 0), BuildingBlock: KIFKEQ_clean_linker_1, # of connection points: 2
#     Edge 82, Type (0, 0), BuildingBlock: KIFKEQ_clean_linker_1, # of connection points: 2
#     Edge 83, Type (0, 0), BuildingBlock: KIFKEQ_clean_linker_1, # of connection points: 2
#     Edge 84, Type (0, 0), BuildingBlock: KIFKEQ_clean_linker_1, # of connection points: 2
#     Edge 85, Type (0, 0), BuildingBlock: KIFKEQ_clean_linker_1, # of connection points: 2
#     Edge 86, Type (0, 0), BuildingBlock: KIFKEQ_clean_linker_1, # of connection points: 2
#     Edge 87, Type (0, 0), BuildingBlock: KIFKEQ_clean_linker_1, # of connection points: 2
#     Edge 88, Type (0, 0), BuildingBlock: KIFKEQ_clean_linker_1, # of connection points: 2
#     Edge 89, Type (0, 0), BuildingBlock: KIFKEQ_clean_linker_1, # of connection points: 2
#     Edge 90, Type (0, 0), BuildingBlock: KIFKEQ_clean_linker_1, # of connection points: 2
#     Edge 91, Type (0, 0), BuildingBlock: KIFKEQ_clean_linker_1, # of connection points: 2
#     Edge 92, Type (0, 0), BuildingBlock: KIFKEQ_clean_linker_1, # of connection points: 2
#     Edge 93, Type (0, 0), BuildingBlock: KIFKEQ_clean_linker_1, # of connection points: 2
#     Edge 94, Type (0, 0), BuildingBlock: KIFKEQ_clean_linker_1, # of connection points: 2
#     Edge 95, Type (0, 0), BuildingBlock: KIFKEQ_clean_linker_1, # of connection points: 2
#     Edge 96, Type (0, 0), BuildingBlock: KIFKEQ_clean_linker_1, # of connection points: 2
#     Edge 97, Type (0, 0), BuildingBlock: KIFKEQ_clean_linker_1, # of connection points: 2
#     Edge 98, Type (0, 0), BuildingBlock: KIFKEQ_clean_linker_1, # of connection points: 2
#     Edge 99, Type (0, 0), BuildingBlock: KIFKEQ_clean_linker_1, # of connection points: 2
#     Edge 100, Type (0, 0), BuildingBlock: KIFKEQ_clean_linker_1, # of connection points: 2
#     Edge 101, Type (0, 0), BuildingBlock: KIFKEQ_clean_linker_1, # of connection points: 2
#     Edge 102, Type (0, 0), BuildingBlock: KIFKEQ_clean_linker_1, # of connection points: 2
#     Edge 103, Type (0, 0), BuildingBlock: KIFKEQ_clean_linker_1, # of connection points: 2
#     Edge 104, Type (0, 0), BuildingBlock: KIFKEQ_clean_linker_1, # of connection points: 2
#     Edge 105, Type (0, 0), BuildingBlock: KIFKEQ_clean_linker_1, # of connection points: 2
#     Edge 106, Type (0, 0), BuildingBlock: KIFKEQ_clean_linker_1, # of connection points: 2
#     Edge 107, Type (0, 0), BuildingBlock: KIFKEQ_clean_linker_1, # of connection points: 2
#     Edge 108, Type (0, 0), BuildingBlock: KIFKEQ_clean_linker_1, # of connection points: 2
#     Edge 109, Type (0, 0), BuildingBlock: KIFKEQ_clean_linker_1, # of connection points: 2
#     Edge 110, Type (0, 0), BuildingBlock: KIFKEQ_clean_linker_1, # of connection points: 2
#     Edge 111, Type (0, 0), BuildingBlock: KIFKEQ_clean_linker_1, # of connection points: 2
#     Edge 112, Type (0, 0), BuildingBlock: KIFKEQ_clean_linker_1, # of connection points: 2
#     Edge 113, Type (0, 0), BuildingBlock: KIFKEQ_clean_linker_1, # of connection points: 2
#     Edge 114, Type (0, 0), BuildingBlock: KIFKEQ_clean_linker_1, # of connection points: 2
#     Edge 115, Type (0, 0), BuildingBlock: KIFKEQ_clean_linker_1, # of connection points: 2
#     Edge 116, Type (0, 0), BuildingBlock: KIFKEQ_clean_linker_1, # of connection points: 2
#     Edge 117, Type (0, 0), BuildingBlock: KIFKEQ_clean_linker_1, # of connection points: 2
#     Edge 118, Type (0, 0), BuildingBlock: KIFKEQ_clean_linker_1, # of connection points: 2
#     Edge 119, Type (0, 0), BuildingBlock: KIFKEQ_clean_linker_1, # of connection points: 2
# Relax obj value: 0.296
# Max RMSD: 0.241
# Mean RMSD: 0.241
data_MOF--net-teo--node1-LIZSOE_clean_sbu_0--edge1-KIFKEQ_clean_linker_1
_symmetry_space_group_name_H-M    P1
_symmetry_Int_Tables_number       1
_symmetry_cell_setting            triclinic
loop_
_symmetry_equiv_pos_as_xyz
'x, y, z'
_cell_length_a     46.658689
_cell_length_b     46.637684
_cell_length_c     46.592485
_cell_angle_alpha  89.96438
_cell_angle_beta   89.806668
_cell_angle_gamma 89.903748
loop_
_atom_site_label
_atom_site_type_symbol
_atom_site_fract_x
_atom_site_fract_y
_atom_site_fract_z
_atom_type_partial_charge
Co0 Co 0.98261 0.33163 0.34729 0.0
N1 N 0.95094 0.35743 0.34397 0.0
C2 C 0.9562 0.38583 0.34502 0.0
N3 N 0.90977 0.38241 0.33608 0.0
C4 C 0.92219 0.35595 0.33834 0.0
C5 C 0.93137 0.40095 0.34042 0.0
Co6 Co 0.05244 0.20666 0.34259 0.0
N7 N 0.08324 0.18174 0.33335 0.0
N8 N 0.12166 0.15365 0.32243 0.0
C9 C 0.10206 0.1515 0.30141 0.0
C10 C 0.07898 0.16837 0.30813 0.0
C11 C 0.10961 0.17214 0.34185 0.0
Co12 Co 1.01746 0.26876 0.3546 0.0
C13 C 1.01639 0.20395 0.36867 0.0
H14 H 0.06011 0.17127 0.29501 0.0
O15 O 1.01434 0.31141 0.35271 0.0
O16 O 0.05086 0.26773 0.38469 0.0
O17 O 0.98642 0.26892 0.3873 0.0
O18 O 0.98654 0.26508 0.32448 0.0
O19 O 0.96645 0.30799 0.31836 0.0
O20 O 0.07346 0.22665 0.37114 0.0
O21 O 0.02099 0.22605 0.35196 0.0
O22 O 0.06623 0.23175 0.31387 0.0
O23 O 0.96407 0.3107 0.37637 0.0
O24 O 1.00143 0.3519 0.37443 0.0
O25 O 0.04556 0.27372 0.32192 0.0
O26 O 0.03661 0.18458 0.36991 0.0
C27 C 0.96636 0.28819 0.39172 0.0
C28 C 0.12296 0.17996 0.3699 0.0
H29 H 0.10618 0.18417 0.38629 0.0
H30 H 0.1359 0.19966 0.36693 0.0
H31 H 0.13729 0.16256 0.37753 0.0
C32 C 0.07146 0.24868 0.3874 0.0
C33 C 0.96909 0.28172 0.31144 0.0
H34 H 0.97717 0.39513 0.34817 0.0
H35 H 0.90417 0.32292 0.31236 0.0
H36 H 0.91727 0.31061 0.34646 0.0
H37 H 0.88407 0.33073 0.34433 0.0
C38 C 0.90604 0.32838 0.33543 0.0
C39 C 0.02098 0.33238 0.36999 0.0
C40 C 0.06264 0.25793 0.30752 0.0
H41 H 0.92953 0.42402 0.3392 0.0
H42 H 0.10453 0.13901 0.28197 0.0
Co43 Co 0.97362 0.7178 0.60218 0.0
N44 N 0.96055 0.68193 0.5887 0.0
C45 C 0.97791 0.66252 0.57592 0.0
N46 N 0.93512 0.64244 0.577 0.0
C47 C 0.93448 0.66894 0.58918 0.0
C48 C 0.9625 0.63848 0.56883 0.0
Co49 Co 0.07735 0.8128 0.60069 0.0
N50 N 0.09198 0.8504 0.59665 0.0
N51 N 0.11707 0.89025 0.585 0.0
C52 C 0.0921 0.89814 0.59713 0.0
C53 C 0.0768 0.87404 0.60381 0.0
C54 C 0.11638 0.86099 0.58466 0.0
Co55 Co 0.02397 0.76514 0.61177 0.0
C56 C 0.08851 0.77639 0.62352 0.0
H57 H 0.05528 0.87403 0.61234 0.0
O58 O 0.98307 0.75237 0.61447 0.0
O59 O 0.01864 0.79625 0.6438 0.0
O60 O 0.02841 0.73378 0.64368 0.0
O61 O 0.03376 0.73645 0.58046 0.0
O62 O 0.9913 0.72312 0.56532 0.0
O63 O 0.05478 0.82521 0.63112 0.0
O64 O 0.06568 0.77689 0.60721 0.0
O65 O 0.0495 0.82242 0.57356 0.0
O66 O 1.00709 0.70027 0.61718 0.0
O67 O 0.94402 0.7386 0.59017 0.0
O68 O 1.01267 0.79299 0.57946 0.0
O69 O 0.10299 0.80023 0.62609 0.0
C70 C 1.01712 0.70817 0.64129 0.0
C71 C 0.13901 0.8421 0.57196 0.0
H72 H 0.1433 0.82378 0.58655 0.0
H73 H 0.15905 0.85408 0.56779 0.0
H74 H 0.13102 0.83319 0.55142 0.0
C75 C 0.03413 0.81919 0.64763 0.0
C76 C 1.0179 0.72606 0.5609 0.0
H77 H 1.00055 0.66557 0.572 0.0
H78 H 0.89286 0.68782 0.58722 0.0
H79 H 0.89895 0.66507 0.61782 0.0
H80 H 0.91463 0.70045 0.61675 0.0
C81 C 0.90878 0.68149 0.60368 0.0
C82 C 0.95886 0.75901 0.60237 0.0
C83 C 0.02495 0.81374 0.56611 0.0
H84 H 0.97071 0.61954 0.55815 0.0
H85 H 0.08492 0.92004 0.60008 0.0
Co86 Co 0.46756 0.81796 0.86044 0.0
N87 N 0.42998 0.83065 0.85049 0.0
C88 C 0.4083 0.81201 0.84589 0.0
N89 N 0.38979 0.85472 0.83764 0.0
C90 C 0.41793 0.85677 0.84501 0.0
C91 C 0.38388 0.82657 0.83838 0.0
Co92 Co 0.56615 0.71516 0.85714 0.0
N93 N 0.60312 0.70005 0.848 0.0
N94 N 0.64244 0.67461 0.83471 0.0
C95 C 0.65082 0.70044 0.84423 0.0
C96 C 0.62704 0.71587 0.85197 0.0
C97 C 0.61327 0.67489 0.83697 0.0
Co98 Co 0.51774 0.76805 0.86711 0.0
C99 C 0.52536 0.70839 0.84493 0.0
H100 H 0.62735 0.73773 0.85963 0.0
O101 O 0.5036 0.80868 0.86873 0.0
O102 O 0.55061 0.77331 0.89814 0.0
O103 O 0.48811 0.76203 0.90033 0.0
O104 O 0.48784 0.75779 0.83642 0.0
O105 O 0.46862 0.79926 0.82388 0.0
O106 O 0.58135 0.73756 0.88553 0.0
O107 O 0.53113 0.72726 0.8646 0.0
O108 O 0.57376 0.74331 0.82886 0.0
O109 O 0.45229 0.78464 0.87789 0.0
O110 O 0.48644 0.84714 0.84505 0.0
O111 O 0.54399 0.77976 0.83436 0.0
O112 O 0.54628 0.69493 0.83179 0.0
C113 C 0.46215 0.7727 0.90032 0.0
C114 C 0.59426 0.65054 0.8285 0.0
H115 H 0.57813 0.6466 0.84561 0.0
H116 H 0.60673 0.63074 0.82432 0.0
H117 H 0.58261 0.65643 0.80862 0.0
C118 C 0.57432 0.75825 0.90183 0.0
C119 C 0.47398 0.77322 0.81844 0.0
H120 H 0.41009 0.78893 0.84717 0.0
H121 H 0.44686 0.88762 0.8275 0.0
H122 H 0.41882 0.90285 0.84941 0.0
H123 H 0.44856 0.88393 0.86589 0.0
C124 C 0.43384 0.88451 0.84723 0.0
C125 C 0.50823 0.83175 0.85364 0.0
C126 C 0.56477 0.7677 0.82126 0.0
H127 H 0.36341 0.8171 0.83301 0.0
H128 H 0.67279 0.70787 0.845 0.0
Co129 Co 0.58172 0.30985 0.10486 0.0
N130 N 0.60076 0.34608 0.10503 0.0
C131 C 0.60337 0.36207 0.12896 0.0
N132 N 0.62278 0.38835 0.09424 0.0
C133 C 0.61312 0.36248 0.08413 0.0
C134 C 0.61614 0.38767 0.12244 0.0
Co135 Co 0.46858 0.21933 0.1044 0.0
N136 N 0.45235 0.18243 0.09714 0.0
N137 N 0.42626 0.14261 0.08733 0.0
C138 C 0.45344 0.13477 0.09262 0.0
C139 C 0.46916 0.15881 0.09838 0.0
C140 C 0.42604 0.17176 0.09015 0.0
Co141 Co 0.52441 0.26544 0.11115 0.0
C142 C 0.46339 0.25978 0.08989 0.0
H143 H 0.49189 0.15897 0.10285 0.0
O144 O 0.56652 0.27489 0.10846 0.0
O145 O 0.52863 0.23278 0.14273 0.0
O146 O 0.51979 0.29571 0.14449 0.0
O147 O 0.51689 0.2956 0.08029 0.0
O148 O 0.55531 0.32412 0.07709 0.0
O149 O 0.49099 0.20406 0.13238 0.0
O150 O 0.48223 0.25494 0.11006 0.0
O151 O 0.49558 0.20997 0.07513 0.0
O152 O 0.55851 0.32236 0.13448 0.0
O153 O 0.60514 0.29243 0.13042 0.0
O154 O 0.53277 0.23888 0.07802 0.0
O155 O 0.44853 0.23857 0.07911 0.0
C156 C 0.53668 0.31746 0.14976 0.0
C157 C 0.39988 0.19007 0.08691 0.0
H158 H 0.40163 0.20958 0.10042 0.0
H159 H 0.38032 0.17787 0.09284 0.0
H160 H 0.39801 0.19681 0.06416 0.0
C161 C 0.51255 0.2101 0.14762 0.0
C162 C 0.53054 0.3165 0.06857 0.0
H163 H 0.59625 0.35573 0.15012 0.0
H164 H 0.59929 0.36109 0.04052 0.0
H165 H 0.63765 0.35861 0.0451 0.0
H166 H 0.61479 0.32821 0.05332 0.0
C167 C 0.6166 0.35194 0.054 0.0
C168 C 0.58837 0.27058 0.12543 0.0
C169 C 0.51971 0.21826 0.06601 0.0
H170 H 0.61977 0.40482 0.13759 0.0
H171 H 0.46154 0.11301 0.09182 0.0
Co172 Co 0.05334 0.83127 0.19117 0.0
N173 N 0.08535 0.85693 0.19506 0.0
C174 C 0.08001 0.88532 0.19363 0.0
N175 N 0.12654 0.88217 0.20258 0.0
C176 C 0.11415 0.85561 0.2007 0.0
C177 C 0.10478 0.90057 0.19795 0.0
Co178 Co 0.9815 0.7067 0.19269 0.0
N179 N 0.94934 0.68172 0.19782 0.0
N180 N 0.90793 0.6578 0.2076 0.0
C181 C 0.92924 0.63871 0.20386 0.0
C182 C 0.95422 0.65321 0.19809 0.0
C183 C 0.92068 0.68392 0.20394 0.0
Co184 Co 1.01757 0.76874 0.18286 0.0
C185 C 0.01939 0.70432 0.16888 0.0
H186 H 0.97503 0.64345 0.19495 0.0
O187 O 0.02115 0.81147 0.18501 0.0
O188 O 0.9854 0.76831 0.15125 0.0
O189 O 0.04976 0.76853 0.15131 0.0
O190 O 0.04704 0.76509 0.21427 0.0
O191 O 0.06852 0.80728 0.22079 0.0
O192 O 0.96238 0.7274 0.16359 0.0
O193 O 1.01388 0.726 0.18581 0.0
O194 O 0.96686 0.73114 0.22187 0.0
O195 O 0.07233 0.81 0.16258 0.0
O196 O 0.03535 0.85166 0.16354 0.0
O197 O 0.98829 0.77311 0.21445 0.0
O198 O 0.99897 0.68557 0.16537 0.0
C199 C 0.07014 0.78747 0.14729 0.0
C200 C 0.90498 0.71186 0.20625 0.0
H201 H 0.90217 0.71737 0.22923 0.0
H202 H 0.88336 0.70992 0.19658 0.0
H203 H 0.91698 0.72938 0.19563 0.0
C204 C 0.9649 0.74942 0.14756 0.0
C205 C 0.06451 0.78117 0.22789 0.0
H206 H 0.05904 0.89457 0.19017 0.0
H207 H 0.13265 0.82283 0.22678 0.0
H208 H 0.11883 0.81017 0.19319 0.0
H209 H 0.15211 0.83016 0.19427 0.0
C210 C 0.13034 0.82803 0.20369 0.0
C211 C 1.01523 0.8327 0.16769 0.0
C212 C 0.97093 0.75727 0.22853 0.0
H213 H 0.10646 0.9237 0.1985 0.0
H214 H 0.92702 0.61571 0.20602 0.0
Co215 Co 0.58086 0.73433 0.44247 0.0
N216 N 0.60459 0.70304 0.45555 0.0
C217 C 0.61692 0.7058 0.48165 0.0
N218 N 0.63061 0.6632 0.46653 0.0
C219 C 0.6134 0.67639 0.44682 0.0
C220 C 0.63272 0.68196 0.48821 0.0
Co221 Co 0.45701 0.80693 0.4425 0.0
N222 N 0.43142 0.83868 0.44579 0.0
N223 N 0.4069 0.88017 0.45342 0.0
C224 C 0.38815 0.85844 0.451 0.0
C225 C 0.40302 0.83341 0.44655 0.0
C226 C 0.43317 0.86764 0.45016 0.0
Co227 Co 0.51914 0.77092 0.43357 0.0
C228 C 0.45529 0.7676 0.42124 0.0
H229 H 0.39359 0.81232 0.4448 0.0
O230 O 0.56172 0.76636 0.43243 0.0
O231 O 0.51801 0.80131 0.40019 0.0
O232 O 0.51896 0.73637 0.40432 0.0
O233 O 0.51485 0.74389 0.46679 0.0
O234 O 0.55757 0.72592 0.47515 0.0
O235 O 0.47659 0.82414 0.4117 0.0
O236 O 0.47687 0.77489 0.43737 0.0
O237 O 0.48222 0.82458 0.46943 0.0
O238 O 0.55804 0.71048 0.41902 0.0
O239 O 0.5995 0.76117 0.46195 0.0
O240 O 0.5243 0.80257 0.46317 0.0
O241 O 0.43537 0.78681 0.41727 0.0
C242 C 0.53634 0.71405 0.40247 0.0
C243 C 0.46077 0.88386 0.45111 0.0
H244 H 0.45804 0.90544 0.44143 0.0
H245 H 0.47802 0.87213 0.43974 0.0
H246 H 0.46705 0.88669 0.47385 0.0
C247 C 0.49866 0.82131 0.39575 0.0
C248 C 0.53153 0.7289 0.4821 0.0
H249 H 0.61417 0.72398 0.49578 0.0
H250 H 0.62222 0.648 0.41141 0.0
H251 H 0.58515 0.65139 0.42135 0.0
H252 H 0.60243 0.68025 0.40216 0.0
C253 C 0.60549 0.66335 0.41864 0.0
C254 C 0.58087 0.77769 0.44932 0.0
C255 C 0.50853 0.82125 0.47575 0.0
H256 H 0.64447 0.67835 0.50789 0.0
H257 H 0.36519 0.86038 0.45345 0.0
Co258 Co 0.55084 0.3315 0.69446 0.0
N259 N 0.58277 0.35606 0.69937 0.0
C260 C 0.57867 0.38467 0.69986 0.0
N261 N 0.62489 0.37851 0.70816 0.0
C262 C 0.61141 0.35288 0.70469 0.0
C263 C 0.60418 0.39832 0.70507 0.0
Co264 Co 0.48066 0.20733 0.69027 0.0
N265 N 0.44944 0.18191 0.69434 0.0
N266 N 0.40848 0.15717 0.70234 0.0
C267 C 0.43022 0.13847 0.69918 0.0
C268 C 0.45504 0.15354 0.69453 0.0
C269 C 0.42061 0.18355 0.69925 0.0
Co270 Co 0.51575 0.26977 0.68361 0.0
C271 C 0.51699 0.20783 0.66442 0.0
H272 H 0.47619 0.14432 0.69201 0.0
O273 O 0.51908 0.31212 0.68768 0.0
O274 O 0.48327 0.27103 0.65254 0.0
O275 O 0.54765 0.27104 0.65168 0.0
O276 O 0.54575 0.26409 0.71443 0.0
O277 O 0.56597 0.30645 0.72277 0.0
O278 O 0.46082 0.22932 0.66308 0.0
O279 O 0.51234 0.22745 0.68381 0.0
O280 O 0.46574 0.22991 0.72083 0.0
O281 O 0.56992 0.31189 0.66481 0.0
O282 O 0.53278 0.3533 0.66782 0.0
O283 O 0.48637 0.27254 0.71569 0.0
O284 O 0.49745 0.18816 0.66133 0.0
C285 C 0.56795 0.29017 0.64846 0.0
C286 C 0.40385 0.21101 0.69974 0.0
H287 H 0.41729 0.22975 0.69433 0.0
H288 H 0.39441 0.21438 0.7213 0.0
H289 H 0.38584 0.20951 0.68431 0.0
C290 C 0.46281 0.25226 0.6484 0.0
C291 C 0.56292 0.27999 0.72864 0.0
H292 H 0.55809 0.39506 0.69724 0.0
H293 H 0.62955 0.31876 0.72927 0.0
H294 H 0.61418 0.30736 0.69584 0.0
H295 H 0.64807 0.32615 0.69635 0.0
C296 C 0.62653 0.32456 0.7064 0.0
C297 C 0.51306 0.33372 0.67096 0.0
C298 C 0.46888 0.25583 0.72866 0.0
H299 H 0.60716 0.42112 0.70749 0.0
H300 H 0.42841 0.11541 0.70106 0.0
Co301 Co 0.97686 0.31298 0.94039 0.0
N302 N 0.96692 0.35167 0.94916 0.0
C303 C 0.98479 0.37363 0.94344 0.0
N304 N 0.94432 0.39389 0.95813 0.0
C305 C 0.94237 0.36472 0.95853 0.0
C306 C 0.97103 0.39932 0.94861 0.0
Co307 Co 0.08282 0.23432 0.94403 0.0
N308 N 0.10744 0.20309 0.95269 0.0
N309 N 0.13283 0.16294 0.96378 0.0
C310 C 0.14549 0.1859 0.97579 0.0
C311 C 0.13006 0.21003 0.96911 0.0
C312 C 0.10963 0.17401 0.94965 0.0
Co313 Co 0.02206 0.27091 0.93117 0.0
C314 C 0.08521 0.26931 0.91676 0.0
H315 H 0.13479 0.23159 0.97618 0.0
O316 O 0.98089 0.27557 0.93073 0.0
O317 O 0.02318 0.23817 0.9005 0.0
O318 O 0.02303 0.30239 0.89779 0.0
O319 O 0.02467 0.30151 0.96285 0.0
O320 O 0.9801 0.3045 0.97953 0.0
O321 O 0.06278 0.21378 0.91501 0.0
O322 O 0.06398 0.2661 0.93469 0.0
O323 O 0.05724 0.22082 0.97236 0.0
O324 O 0.97859 0.32166 0.90256 0.0
O325 O 0.94043 0.29962 0.93685 0.0
O326 O 1.01537 0.24163 0.96316 0.0
O327 O 0.10523 0.24974 0.91675 0.0
C328 C 1.00169 0.31853 0.88832 0.0
C329 C 0.08989 0.15695 0.93112 0.0
H330 H 0.09115 0.1655 0.90896 0.0
H331 H 0.06754 0.15956 0.93893 0.0
H332 H 0.09563 0.13393 0.9304 0.0
C333 C 0.04142 0.21687 0.89812 0.0
C334 C 1.00709 0.30704 0.9836 0.0
H335 H 1.00636 0.37107 0.93527 0.0
H336 H 0.92125 0.32954 0.97951 0.0
H337 H 0.90028 0.36215 0.97854 0.0
H338 H 0.90491 0.34135 0.94656 0.0
C339 C 0.91567 0.34865 0.96646 0.0
C340 C 0.95329 0.27616 0.92954 0.0
C341 C 0.03081 0.22432 0.97793 0.0
H342 H 0.97998 0.42051 0.94551 0.0
H343 H 0.16453 0.18523 0.98901 0.0
Co344 Co 0.34308 0.98316 0.32851 0.0
N345 N 0.33228 0.95172 0.35174 0.0
C346 C 0.31183 0.95897 0.37088 0.0
N347 N 0.31992 0.91295 0.37856 0.0
C348 C 0.33698 0.92327 0.35696 0.0
C349 C 0.30434 0.93568 0.38715 0.0
Co350 Co 0.35179 0.06859 0.21648 0.0
N351 N 0.34165 0.10555 0.2018 0.0
N352 N 0.33104 0.14509 0.17541 0.0
C353 C 0.32907 0.15176 0.2034 0.0
C354 C 0.33526 0.12777 0.21933 0.0
C355 C 0.33865 0.11683 0.17492 0.0
Co356 Co 0.35791 0.02224 0.26976 0.0
C357 C 0.34713 0.02694 0.20332 0.0
H358 H 0.33478 0.12666 0.2425 0.0
O359 O 0.35387 1.01479 0.31146 0.0
O360 O 0.39156 0.05163 0.27344 0.0
O361 O 0.38734 0.98814 0.26894 0.0
O362 O 0.3246 0.99495 0.26078 0.0
O363 O 0.31531 0.97192 0.30157 0.0
O364 O 0.36957 0.08612 0.24857 0.0
O365 O 0.36093 0.03207 0.22731 0.0
O366 O 0.31516 0.06838 0.23485 0.0
O367 O 0.37201 0.96271 0.30796 0.0
O368 O 0.36982 0.99649 0.35251 0.0
O369 O 0.32804 0.05297 0.27738 0.0
O370 O 0.33673 0.04867 0.18892 0.0
C371 C 0.38918 0.96622 0.28669 0.0
C372 C 0.34389 0.10006 0.14804 0.0
H373 H 0.36184 0.08476 0.15126 0.0
H374 H 0.34875 0.11451 0.12973 0.0
H375 H 0.32438 0.08756 0.14286 0.0
C376 C 0.39185 0.07689 0.26126 0.0
C377 C 0.30958 0.97706 0.27544 0.0
H378 H 0.3028 0.98027 0.37277 0.0
H379 H 0.36319 0.88511 0.35223 0.0
H380 H 0.35316 0.903 0.31922 0.0
H381 H 0.38002 0.91838 0.34204 0.0
C382 C 0.35962 0.90622 0.34188 0.0
C383 C 0.3703 1.01742 0.33396 0.0
C384 C 0.30981 0.06514 0.26123 0.0
H385 H 0.28826 0.9354 0.40397 0.0
H386 H 0.32297 0.17255 0.21179 0.0
Co387 Co 0.22135 0.10382 0.46443 0.0
N388 N 0.18503 0.09307 0.44907 0.0
C389 C 0.16401 0.08327 0.4666 0.0
N390 N 0.14625 0.08011 0.42307 0.0
C391 C 0.1734 0.0908 0.42233 0.0
C392 C 0.14054 0.07546 0.4509 0.0
Co393 Co 0.30157 0.09443 0.5798 0.0
N394 N 0.33199 0.08437 0.60441 0.0
N395 N 0.36963 0.07122 0.63229 0.0
C396 C 0.34702 0.05441 0.63844 0.0
C397 C 0.32444 0.06241 0.62158 0.0
C398 C 0.35991 0.08953 0.61149 0.0
Co399 Co 0.26567 0.10925 0.51937 0.0
C400 C 0.26481 0.11821 0.58455 0.0
H401 H 0.30352 0.05246 0.62144 0.0
O402 O 0.25735 0.11301 0.47668 0.0
O403 O 0.29842 0.1399 0.521 0.0
O404 O 0.23489 0.14167 0.52304 0.0
O405 O 0.23641 0.07784 0.52386 0.0
O406 O 0.22288 0.06614 0.48032 0.0
O407 O 0.32147 0.1252 0.56159 0.0
O408 O 0.27091 0.10382 0.56128 0.0
O409 O 0.3161 0.06837 0.55259 0.0
O410 O 0.20269 0.11799 0.49755 0.0
O411 O 0.24252 0.09142 0.43593 0.0
O412 O 0.29487 0.07762 0.51082 0.0
O413 O 0.28459 0.11929 0.60424 0.0
C414 C 0.21015 0.14077 0.51021 0.0
C415 C 0.37705 0.11349 0.59882 0.0
H416 H 0.36363 0.13309 0.59751 0.0
H417 H 0.38373 0.10752 0.57674 0.0
H418 H 0.39632 0.11822 0.61184 0.0
C419 C 0.31889 0.14236 0.54021 0.0
C420 C 0.22586 0.05976 0.50648 0.0
H421 H 0.16581 0.08095 0.48961 0.0
H422 H 0.20163 0.07962 0.38802 0.0
H423 H 0.17375 0.10442 0.37812 0.0
H424 H 0.2041 0.11642 0.39934 0.0
C425 C 0.18905 0.09847 0.39533 0.0
C426 C 0.26344 0.09914 0.45292 0.0
C427 C 0.31254 0.06304 0.52611 0.0
H428 H 0.12091 0.06623 0.45922 0.0
H429 H 0.34698 0.03698 0.65381 0.0
Co430 Co 0.18981 0.98166 0.70556 0.0
N431 N 0.19454 0.94983 0.68029 0.0
C432 C 0.19635 0.95553 0.652 0.0
N433 N 0.20415 0.90878 0.65555 0.0
C434 C 0.19966 0.92096 0.68193 0.0
C435 C 0.20209 0.93085 0.63703 0.0
Co436 Co 0.19458 0.05186 0.82926 0.0
N437 N 0.20536 0.08178 0.8542 0.0
N438 N 0.21978 0.11907 0.88197 0.0
C439 C 0.23726 0.09651 0.88638 0.0
C440 C 0.22844 0.07413 0.86968 0.0
C441 C 0.20025 0.10948 0.86231 0.0
Co442 Co 0.18134 1.01754 0.76761 0.0
C443 C 0.16618 1.018 0.83158 0.0
H444 H 0.23869 0.05335 0.86831 0.0
O445 O 0.18327 1.01377 0.72506 0.0
O446 O 0.15145 0.05099 0.76881 0.0
O447 O 0.14919 0.98614 0.76806 0.0
O448 O 0.21159 0.98715 0.7719 0.0
O449 O 0.21929 0.9665 0.72957 0.0
O450 O 0.16729 0.07442 0.80866 0.0
O451 O 0.18381 0.02119 0.81 0.0
O452 O 0.22416 0.06388 0.80463 0.0
O453 O 0.16095 0.96268 0.72703 0.0
O454 O 0.16225 0.99941 0.68482 0.0
O455 O 0.21352 0.04592 0.76209 0.0
O456 O 0.16613 0.03812 0.85105 0.0
C457 C 0.14537 0.96537 0.74947 0.0
C458 C 0.17528 0.12659 0.85174 0.0
H459 H 0.15655 0.11239 0.84841 0.0
H460 H 0.18103 0.13658 0.83089 0.0
H461 H 0.16939 0.14371 0.8672 0.0
C462 C 0.15016 0.07224 0.78728 0.0
C463 C 0.22559 0.9699 0.7559 0.0
H464 H 0.19443 0.97674 0.64279 0.0
H465 H 0.19097 0.88318 0.70702 0.0
H466 H 0.22321 0.9021 0.71636 0.0
H467 H 0.18924 0.91654 0.7269 0.0
C468 C 0.20057 0.90476 0.70968 0.0
C469 C 0.16589 0.01951 0.70391 0.0
C470 C 0.22924 0.06145 0.77806 0.0
H471 H 0.20548 0.92942 0.61408 0.0
H472 H 0.25575 0.09635 0.90036 0.0
Co473 Co 0.31366 0.93317 0.96275 0.0
N474 N 0.35029 0.94128 0.94576 0.0
C475 C 0.37385 0.94222 0.96257 0.0
N476 N 0.38963 0.9523 0.91906 0.0
C477 C 0.36069 0.94776 0.91907 0.0
C478 C 0.39759 0.94864 0.94649 0.0
Co479 Co 0.22907 0.94182 0.07794 0.0
N480 N 0.19685 0.95253 0.0999 0.0
N481 N 0.15767 0.96483 0.12613 0.0
C482 C 0.17692 0.98622 0.12732 0.0
C483 C 0.20049 0.97867 0.11156 0.0
C484 C 0.17034 0.94434 0.10932 0.0
Co485 Co 0.26924 0.92767 0.01963 0.0
C486 C 0.26388 0.91545 0.08456 0.0
H487 H 0.21945 0.99166 0.1085 0.0
O488 O 0.27829 0.92657 0.97687 0.0
O489 O 0.23612 0.8973 1.01881 0.0
O490 O 0.30028 0.89507 0.02394 0.0
O491 O 0.29828 0.95851 0.02719 0.0
O492 O 0.32097 0.96556 0.98646 0.0
O493 O 0.20966 0.91275 0.05716 0.0
O494 O 0.26138 0.9314 0.06158 0.0
O495 O 0.21788 0.96931 0.05089 0.0
O496 O 0.33071 0.90773 0.98811 0.0
O497 O 0.29299 0.95531 0.94045 0.0
O498 O 0.24113 0.9599 1.01044 0.0
O499 O 0.2422 0.91536 0.10233 0.0
C500 C 0.3241 0.89168 1.0092 0.0
C501 C 0.15764 0.91557 0.10322 0.0
H502 H 0.1748 0.89934 0.10025 0.0
H503 H 0.14499 0.9169 0.08315 0.0
H504 H 0.14315 0.90884 0.12092 0.0
C505 C 0.21389 0.89541 0.03622 0.0
C506 C 0.31535 0.97309 1.01187 0.0
H507 H 0.37385 0.93896 0.98554 0.0
H508 H 0.33385 0.97112 0.89038 0.0
H509 H 0.35501 0.94358 0.87336 0.0
H510 H 0.32391 0.93413 0.89498 0.0
C511 C 0.34233 0.94901 0.89283 0.0
C512 C 0.27223 0.94464 0.95616 0.0
C513 C 0.2231 0.97481 0.02483 0.0
H514 H 0.4192 0.95113 0.95452 0.0
H515 H 0.17398 1.0063 0.13863 0.0
Co516 Co 0.20453 0.34453 0.0507 0.0
N517 N 0.1833 0.33011 0.08285 0.0
C518 C 0.17531 0.30224 0.08269 0.0
N519 N 0.16141 0.31855 0.12484 0.0
C520 C 0.17401 0.33969 0.109 0.0
C521 C 0.16233 0.29515 0.10813 0.0
Co522 Co 0.30794 0.3481 0.97022 0.0
N523 N 0.31629 0.33734 0.9313 0.0
N524 N 0.33733 0.32434 0.88904 0.0
C525 C 0.30916 0.31808 0.88808 0.0
C526 C 0.29648 0.32625 0.91354 0.0
C527 C 0.34098 0.33674 0.91534 0.0
Co528 Co 0.264 0.35815 1.01264 0.0
C529 C 0.33323 0.36003 1.00514 0.0
H530 H 0.27406 0.3242 0.91877 0.0
O531 O 0.22154 0.35583 1.01818 0.0
O532 O 0.26211 0.39122 0.98135 0.0
O533 O 0.26238 0.38815 0.0461 0.0
O534 O 0.27225 0.32651 0.04117 0.0
O535 O 0.22989 0.31311 0.05692 0.0
O536 O 0.30548 0.38539 0.95994 0.0
O537 O 0.30561 0.35924 1.00802 0.0
O538 O 0.3059 0.30947 0.98069 0.0
O539 O 0.22699 0.36892 0.07403 0.0
O540 O 0.18574 0.3242 0.02478 0.0
O541 O 0.26156 0.32646 0.98196 0.0
O542 O 0.3444 0.35182 0.98115 0.0
C543 C 0.24632 0.38792 0.06937 0.0
C544 C 0.36795 0.35167 0.9242 0.0
H545 H 0.3804 0.3376 0.93879 0.0
H546 H 0.36276 0.37196 0.93551 0.0
H547 H 0.38131 0.35703 0.90525 0.0
C548 C 0.28272 0.39994 0.96395 0.0
C549 C 0.2565 0.3087 0.05451 0.0
H550 H 0.1795 0.28744 0.06531 0.0
H551 H 0.15945 0.37641 0.1328 0.0
H552 H 0.19736 0.37034 0.1333 0.0
H553 H 0.18083 0.38475 0.10128 0.0
C554 C 0.17806 0.36969 0.11951 0.0
C555 C 0.20291 0.338 1.0075 0.0
C556 C 0.27902 0.30529 0.97808 0.0
H557 H 0.1546 0.27412 0.11421 0.0
H558 H 0.2984 0.30781 0.8703 0.0
Co559 Co 0.70175 0.19142 0.98508 0.0
N560 N 0.67642 0.19584 0.95338 0.0
C561 C 0.64801 0.19699 0.95873 0.0
N562 N 0.65222 0.20487 0.91211 0.0
C563 C 0.67836 0.20075 0.9245 0.0
C564 C 0.63331 0.20228 0.93379 0.0
Co565 Co 0.82455 0.19013 0.05816 0.0
N566 N 0.84738 0.20353 0.08983 0.0
N567 N 0.86747 0.21741 0.13201 0.0
C568 C 0.87222 0.23779 0.11226 0.0
C569 C 0.86022 0.22938 0.08692 0.0
C570 C 0.8526 0.19654 0.1179 0.0
Co571 Co 0.76353 0.18135 0.02108 0.0
C572 C 0.82535 0.19678 1.0149 0.0
H573 H 0.85957 0.24254 0.06784 0.0
O574 O 0.72126 0.18504 1.01709 0.0
O575 O 0.76358 0.15093 0.05452 0.0
O576 O 0.76289 0.14928 0.98951 0.0
O577 O 0.76874 0.21242 0.99077 0.0
O578 O 0.72697 0.2196 0.96868 0.0
O579 O 0.80083 0.16727 0.08186 0.0
O580 O 0.80595 0.18007 0.02601 0.0
O581 O 0.80176 0.22303 0.06562 0.0
O582 O 0.72179 0.16158 0.96672 0.0
O583 O 0.68008 0.16515 1.00401 0.0
O584 O 0.75885 0.21331 0.04918 0.0
O585 O 0.84408 0.20903 0.03151 0.0
C586 C 0.74387 0.14563 0.96916 0.0
C587 C 0.84129 0.1701 0.13207 0.0
H588 H 0.84135 0.15194 0.11671 0.0
H589 H 0.81899 0.1743 0.13921 0.0
H590 H 0.85414 0.16432 0.15119 0.0
C591 C 0.7803 0.14956 0.07729 0.0
C592 C 0.75321 0.22597 0.97261 0.0
H593 H 0.63849 0.1949 0.97982 0.0
H594 H 0.71139 0.22352 0.90271 0.0
H595 H 0.72366 0.19152 0.92061 0.0
H596 H 0.70339 0.1892 0.88758 0.0
C597 C 0.70594 0.20105 0.90807 0.0
C598 C 0.69966 0.1685 0.02362 0.0
C599 C 0.77552 0.22914 0.06343 0.0
H600 H 0.6104 0.20518 0.9319 0.0
H601 H 0.88289 0.25801 0.11622 0.0
Co602 Co 0.09447 0.45386 0.23847 0.0
N603 N 0.08443 0.42829 0.20828 0.0
C604 C 0.06091 0.41322 0.21543 0.0
N605 N 0.07027 0.40054 0.17057 0.0
C606 C 0.08996 0.41994 0.18061 0.0
C607 C 0.05227 0.39662 0.19289 0.0
Co608 Co 0.09657 0.57898 0.30692 0.0
N609 N 0.089 0.60472 0.33733 0.0
N610 N 0.07953 0.63411 0.37509 0.0
C611 C 0.05943 0.63799 0.35481 0.0
C612 C 0.06525 0.62028 0.33213 0.0
C613 C 0.09751 0.61375 0.36388 0.0
Co614 Co 0.10682 0.51646 0.27227 0.0
C615 C 0.12003 0.58131 0.26904 0.0
H616 H 0.05254 0.61837 0.31286 0.0
O617 O 0.10447 0.47377 0.26913 0.0
O618 O 0.13904 0.51787 0.30394 0.0
O619 O 0.13673 0.51524 0.23861 0.0
O620 O 0.07449 0.52083 0.24413 0.0
O621 O 0.06515 0.47833 0.22528 0.0
O622 O 0.12639 0.55934 0.3266 0.0
O623 O 0.10428 0.55907 0.27553 0.0
O624 O 0.06868 0.55402 0.3232 0.0
O625 O 0.12236 0.47409 0.21644 0.0
O626 O 0.12236 0.43213 0.25408 0.0
O627 O 0.07651 0.51199 0.30247 0.0
O628 O 0.1227 0.60095 0.2888 0.0
C629 C 0.13874 0.49609 0.21796 0.0
C630 C 0.12422 0.60343 0.37824 0.0
H631 H 0.1195 0.58304 0.38954 0.0
H632 H 0.13202 0.61933 0.3941 0.0
H633 H 0.14123 0.59946 0.36203 0.0
C634 C 0.14263 0.53728 0.32419 0.0
C635 C 0.05925 0.50466 0.22835 0.0
H636 H 0.05008 0.41496 0.23592 0.0
H637 H 0.1219 0.41427 0.14751 0.0
H638 H 0.10979 0.45064 0.15305 0.0
H639 H 0.13365 0.43424 0.17856 0.0
C640 C 0.11539 0.43023 0.16393 0.0
C641 C 0.12101 0.45172 0.27409 0.0
C642 C 0.06275 0.52767 0.32008 0.0
H643 H 0.03337 0.38318 0.19274 0.0
H644 H 0.04119 0.65228 0.35656 0.0
Co645 Co 0.70782 0.84614 0.56301 0.0
N646 N 0.68683 0.83632 0.59638 0.0
C647 C 0.6732 0.81108 0.59321 0.0
N648 N 0.6605 0.82632 0.63623 0.0
C649 C 0.67862 0.84531 0.62311 0.0
C650 C 0.6573 0.80496 0.61717 0.0
Co651 Co 0.81683 0.85152 0.47327 0.0
N652 N 0.83134 0.8406 0.43684 0.0
N653 N 0.85715 0.83005 0.39709 0.0
C654 C 0.82946 0.82451 0.39177 0.0
C655 C 0.81383 0.83088 0.41593 0.0
C656 C 0.85785 0.83984 0.42457 0.0
Co657 Co 0.7642 0.85906 0.51971 0.0
C658 C 0.82812 0.84587 0.51498 0.0
H659 H 0.79089 0.82832 0.41811 0.0
O660 O 0.72296 0.85606 0.52975 0.0
O661 O 0.76054 0.89223 0.48954 0.0
O662 O 0.76766 0.88877 0.55291 0.0
O663 O 0.77366 0.8259 0.54674 0.0
O664 O 0.73459 0.81757 0.57289 0.0
O665 O 0.78479 0.86876 0.45536 0.0
O666 O 0.80553 0.86079 0.50838 0.0
O667 O 0.79797 0.81524 0.47441 0.0
O668 O 0.7306 0.8744 0.58154 0.0
O669 O 0.68384 0.87361 0.55098 0.0
O670 O 0.75548 0.82881 0.48994 0.0
O671 O 0.84482 0.83633 0.49448 0.0
C672 C 0.75184 0.89101 0.57613 0.0
C673 C 0.88441 0.85003 0.43912 0.0
H674 H 0.87935 0.86093 0.45966 0.0
H675 H 0.89577 0.86521 0.42474 0.0
H676 H 0.89879 0.83149 0.44312 0.0
C677 C 0.77264 0.89156 0.46412 0.0
C678 C 0.76004 0.81133 0.56568 0.0
H679 H 0.67466 0.79792 0.57415 0.0
H680 H 0.67078 0.88126 0.65114 0.0
H681 H 0.7077 0.87067 0.64733 0.0
H682 H 0.69037 0.88964 0.61847 0.0
C683 C 0.6872 0.87349 0.63569 0.0
C684 C 0.70105 0.87347 0.52885 0.0
C685 C 0.77169 0.81 0.47852 0.0
H686 H 0.64424 0.78604 0.62039 0.0
H687 H 0.82119 0.81597 0.37185 0.0
Co688 Co 0.93876 0.95389 0.3051 0.0
N689 N 0.94415 0.92779 0.3366 0.0
C690 C 0.94654 0.89987 0.32972 0.0
N691 N 0.95447 0.90137 0.37673 0.0
C692 C 0.94921 0.92821 0.36558 0.0
C693 C 0.95265 0.88395 0.3537 0.0
Co694 Co 0.94086 0.07896 0.23375 0.0
N695 N 0.94674 0.10465 0.20207 0.0
N696 N 0.95795 0.13002 0.16162 0.0
C697 C 0.95695 0.14788 0.18429 0.0
C698 C 0.95026 0.13256 0.20855 0.0
C699 C 0.95178 0.10363 0.17306 0.0
Co700 Co 0.92996 1.01665 0.26948 0.0
C701 C 0.91772 0.08147 0.27214 0.0
H702 H 0.94891 0.14124 0.23004 0.0
O703 O 0.9316 0.9739 0.2731 0.0
O704 O 0.89802 1.01828 0.23766 0.0
O705 O 0.89894 1.0168 0.30253 0.0
O706 O 0.96182 0.01982 0.29821 0.0
O707 O 0.96845 0.97782 0.31994 0.0
O708 O 0.91073 0.05956 0.21502 0.0
O709 O 0.93365 0.05926 0.26584 0.0
O710 O 0.96854 0.05362 0.21782 0.0
O711 O 0.91025 0.97498 0.32487 0.0
O712 O 0.91102 0.93341 0.28763 0.0
O713 O 0.96086 1.01179 0.23945 0.0
O714 O 0.91478 0.10094 0.25224 0.0
C715 C 0.89498 0.99765 0.32293 0.0
C716 C 0.95068 0.07651 0.15593 0.0
H717 H 0.93882 0.05957 0.16758 0.0
H718 H 0.97281 0.06873 0.15204 0.0
H719 H 0.9405 0.08058 0.13481 0.0
C720 C 0.89439 0.03774 0.21753 0.0
C721 C 0.9756 1.00382 0.31559 0.0
H722 H 0.94471 0.89154 0.30814 0.0
H723 H 0.97119 0.96227 0.38678 0.0
H724 H 0.93797 0.97276 0.37105 0.0
H725 H 0.93805 0.95171 0.40374 0.0
C726 C 0.94886 0.9553 0.3828 0.0
C727 C 0.91441 0.95253 0.26746 0.0
C728 C 0.97459 0.02727 0.22147 0.0
H729 H 0.9564 0.86104 0.35379 0.0
H730 H 0.96169 0.17058 0.18353 0.0
Co731 Co 0.22161 0.68258 0.46978 0.0
N732 N 0.20701 0.69207 0.43251 0.0
C733 C 0.22461 0.69825 0.41019 0.0
N734 N 0.18098 0.70367 0.39311 0.0
C735 C 0.18023 0.69575 0.42127 0.0
C736 C 0.2089 0.70507 0.38632 0.0
Co737 Co 0.33265 0.69403 0.55727 0.0
N738 N 0.3552 0.70396 0.59008 0.0
N739 N 0.38162 0.71557 0.62958 0.0
C740 C 0.38454 0.73624 0.60964 0.0
C741 C 0.36862 0.72919 0.58602 0.0
C742 C 0.36362 0.69597 0.61713 0.0
Co743 Co 0.27448 0.6788 0.51702 0.0
C744 C 0.33974 0.67056 0.52032 0.0
H745 H 0.36676 0.74191 0.56669 0.0
O746 O 0.23241 0.67404 0.50662 0.0
O747 O 0.27502 0.64802 0.54995 0.0
O748 O 0.27968 0.64585 0.48668 0.0
O749 O 0.27957 0.71035 0.48739 0.0
O750 O 0.23647 0.72035 0.47095 0.0
O751 O 0.3141 0.66259 0.57541 0.0
O752 O 0.31602 0.68475 0.52496 0.0
O753 O 0.30397 0.71901 0.57048 0.0
O754 O 0.25586 0.66925 0.45309 0.0
O755 O 0.19212 0.6943 0.48943 0.0
O756 O 0.26424 0.71084 0.54535 0.0
O757 O 0.35851 0.67004 0.54107 0.0
C758 C 0.26757 0.64631 0.46147 0.0
C759 C 0.35508 0.66824 0.63078 0.0
H760 H 0.35365 0.65114 0.61431 0.0
H761 H 0.33367 0.6709 0.64085 0.0
H762 H 0.37062 0.66179 0.64757 0.0
C763 C 0.29322 0.64525 0.57131 0.0
C764 C 0.26244 0.72719 0.47436 0.0
H765 H 0.24774 0.69872 0.41115 0.0
H766 H 0.14902 0.71035 0.45156 0.0
H767 H 0.13458 0.68817 0.42344 0.0
H768 H 0.15536 0.67231 0.45223 0.0
C769 C 0.15313 0.69124 0.43796 0.0
C770 C 0.20721 0.68569 0.51145 0.0
C771 C 0.27796 0.72468 0.56479 0.0
H772 H 0.21738 0.71147 0.36563 0.0
H773 H 0.39723 0.7555 0.6121 0.0
Co774 Co 0.44239 0.57384 0.73081 0.0
N775 N 0.45684 0.59682 0.69993 0.0
C776 C 0.48414 0.60637 0.7017 0.0
N777 N 0.46894 0.62133 0.65959 0.0
C778 C 0.44791 0.60674 0.67383 0.0
C779 C 0.49156 0.62095 0.67728 0.0
Co780 Co 0.43871 0.45461 0.81027 0.0
N781 N 0.43886 0.43383 0.84583 0.0
N782 N 0.4492 0.41031 0.88748 0.0
C783 C 0.42054 0.41254 0.88462 0.0
C784 C 0.41437 0.42662 0.85946 0.0
C785 C 0.45989 0.42345 0.86342 0.0
Co786 Co 0.43209 0.51375 0.76826 0.0
C787 C 0.41764 0.4499 0.77097 0.0
H788 H 0.3931 0.43147 0.85166 0.0
O789 O 0.43095 0.5556 0.76162 0.0
O790 O 0.39874 0.51653 0.79801 0.0
O791 O 0.4031 0.51302 0.73381 0.0
O792 O 0.465 0.50752 0.74107 0.0
O793 O 0.47504 0.55071 0.72494 0.0
O794 O 0.40933 0.4778 0.82461 0.0
O795 O 0.43514 0.47124 0.77552 0.0
O796 O 0.46686 0.47993 0.82506 0.0
O797 O 0.4206 0.55006 0.70639 0.0
O798 O 0.46016 0.59357 0.75844 0.0
O799 O 0.46229 0.51998 0.79908 0.0
O800 O 0.41263 0.43243 0.79236 0.0
C801 C 0.40267 0.52956 0.71077 0.0
C802 C 0.49106 0.42512 0.85595 0.0
H803 H 0.50248 0.40561 0.8634 0.0
H804 H 0.50059 0.44401 0.86677 0.0
H805 H 0.49393 0.4277 0.83243 0.0
C806 C 0.39402 0.49975 0.81985 0.0
C807 C 0.48121 0.52449 0.72728 0.0
H808 H 0.49836 0.60224 0.71951 0.0
H809 H 0.41143 0.62019 0.64918 0.0
H810 H 0.4198 0.5827 0.64723 0.0
H811 H 0.40314 0.59687 0.67932 0.0
C812 C 0.41871 0.60141 0.66186 0.0
C813 C 0.44581 0.57536 0.77415 0.0
C814 C 0.47472 0.50527 0.81874 0.0
H815 H 0.51232 0.6302 0.67254 0.0
H816 H 0.40491 0.40479 0.89996 0.0
Co817 Co 0.84556 0.4804 0.82789 0.0
N818 N 0.84137 0.44874 0.85418 0.0
C819 C 0.84369 0.45401 0.88254 0.0
N820 N 0.83151 0.40816 0.87983 0.0
C821 C 0.83386 0.42033 0.85315 0.0
C822 C 0.83798 0.42959 0.89803 0.0
Co823 Co 0.84495 0.55018 0.70187 0.0
N824 N 0.83978 0.58162 0.67594 0.0
N825 N 0.82987 0.6222 0.65051 0.0
C826 C 0.83435 0.60032 0.63218 0.0
C827 C 0.8401 0.57588 0.64758 0.0
C828 C 0.83339 0.61028 0.67714 0.0
Co829 Co 0.85419 0.51509 0.76468 0.0
C830 C 0.86984 0.51288 0.70095 0.0
H831 H 0.84377 0.55485 0.63853 0.0
O832 O 0.85161 0.51211 0.80745 0.0
O833 O 0.8853 0.54784 0.76406 0.0
O834 O 0.886 0.48325 0.76524 0.0
O835 O 0.82316 0.48489 0.76121 0.0
O836 O 0.81643 0.46479 0.80419 0.0
O837 O 0.87329 0.57026 0.72264 0.0
O838 O 0.85208 0.5183 0.722 0.0
O839 O 0.81511 0.56496 0.72577 0.0
O840 O 0.87442 0.46104 0.80698 0.0
O841 O 0.8729 0.49898 0.84806 0.0
O842 O 0.82228 0.544 0.76812 0.0
O843 O 0.87297 0.53275 0.68148 0.0
C844 C 0.8899 0.46305 0.78444 0.0
C845 C 0.83142 0.62687 0.7046 0.0
H846 H 0.84163 0.64819 0.70195 0.0
H847 H 0.84169 0.61516 0.7225 0.0
H848 H 0.80859 0.63034 0.71018 0.0
C849 C 0.8889 0.5683 0.74498 0.0
C850 C 0.80962 0.46773 0.77789 0.0
H851 H 0.84854 0.47476 0.89164 0.0
H852 H 0.83678 0.38163 0.82816 0.0
H853 H 0.80653 0.40416 0.82027 0.0
H854 H 0.84157 0.41445 0.80786 0.0
C855 C 0.82964 0.40421 0.82571 0.0
C856 C 0.86865 0.51867 0.82861 0.0
C857 C 0.80823 0.56108 0.75196 0.0
H858 H 0.83772 0.42799 0.92122 0.0
H859 H 0.83289 0.60171 0.60902 0.0
Co860 Co 0.72957 0.60015 0.95745 0.0
N861 N 0.69416 0.59964 0.93717 0.0
C862 C 0.67962 0.62379 0.93071 0.0
N863 N 0.65343 0.58834 0.91303 0.0
C864 C 0.67778 0.57825 0.92585 0.0
C865 C 0.65496 0.61702 0.91624 0.0
Co866 Co 0.81576 0.59869 0.07355 0.0
N867 N 0.85243 0.59634 0.09128 0.0
N868 N 0.89145 0.58587 0.11823 0.0
C869 C 0.90009 0.59863 0.09386 0.0
C870 C 0.8766 0.60455 0.07747 0.0
C871 C 0.86229 0.58445 0.11609 0.0
Co872 Co 0.77232 0.60651 1.01588 0.0
C873 C 0.77788 0.62086 0.08066 0.0
H874 H 0.87758 0.61298 0.05595 0.0
O875 O 0.76412 0.60397 0.9734 0.0
O876 O 0.8036 0.63887 1.01197 0.0
O877 O 0.74085 0.63882 0.02006 0.0
O878 O 0.74301 0.5752 0.02264 0.0
O879 O 0.71482 0.57271 0.98399 0.0
O880 O 0.82888 0.62884 0.05144 0.0
O881 O 0.78066 0.60366 0.05863 0.0
O882 O 0.82862 0.57159 0.04721 0.0
O883 O 0.71579 0.63004 0.97996 0.0
O884 O 0.74724 0.6255 0.93414 0.0
O885 O 0.80126 0.5743 1.00849 0.0
O886 O 0.80014 0.62425 0.09735 0.0
C887 C 0.71986 0.64468 1.00242 0.0
C888 C 0.84302 0.57063 0.13772 0.0
H889 H 0.82208 0.58196 0.13849 0.0
H890 H 0.85306 0.57047 0.15925 0.0
H891 H 0.839 0.54814 0.13111 0.0
C892 C 0.82465 0.6442 0.0296 0.0
C893 C 0.72208 0.56399 1.00887 0.0
H894 H 0.68655 0.64524 0.93608 0.0
H895 H 0.67597 0.5358 0.94307 0.0
H896 H 0.68146 0.53732 0.90492 0.0
H897 H 0.71057 0.54591 0.92928 0.0
C898 C 0.68712 0.54753 0.92564 0.0
C899 C 0.7689 0.6204 0.95111 0.0
C900 C 0.82191 0.56279 0.02246 0.0
H901 H 0.63916 0.63228 0.90869 0.0
H902 H 0.92218 0.60225 0.08766 0.0
Co903 Co 0.68884 0.47942 0.21267 0.0
N904 N 0.70248 0.447 0.19179 0.0
C905 C 0.73001 0.44739 0.18254 0.0
N906 N 0.71356 0.40531 0.16948 0.0
C907 C 0.69282 0.4208 0.18311 0.0
C908 C 0.73679 0.42215 0.16923 0.0
Co909 Co 0.68542 0.56279 0.32955 0.0
N910 N 0.68704 0.59919 0.34775 0.0
N911 N 0.69407 0.63766 0.37652 0.0
C912 C 0.68488 0.64685 0.35081 0.0
C913 C 0.68099 0.62363 0.33336 0.0
C914 C 0.69544 0.60853 0.37412 0.0
Co915 Co 0.67813 0.51943 0.27164 0.0
C916 C 0.66269 0.52489 0.33572 0.0
H917 H 0.67515 0.62481 0.31098 0.0
O918 O 0.67835 0.51225 0.22922 0.0
O919 O 0.6447 0.5496 0.2685 0.0
O920 O 0.64831 0.48543 0.27325 0.0
O921 O 0.71057 0.49169 0.27946 0.0
O922 O 0.7207 0.47295 0.23735 0.0
O923 O 0.65587 0.5763 0.3068 0.0
O924 O 0.68073 0.52743 0.31431 0.0
O925 O 0.71368 0.57607 0.30375 0.0
O926 O 0.66474 0.45715 0.2365 0.0
O927 O 0.70886 0.50437 0.19246 0.0
O928 O 0.70892 0.54964 0.26442 0.0
O929 O 0.65909 0.54709 0.3525 0.0
C930 C 0.64708 0.46215 0.25711 0.0
C931 C 0.70525 0.58879 0.39743 0.0
H932 H 0.6964 0.56695 0.39422 0.0
H933 H 0.69875 0.59724 0.41873 0.0
H934 H 0.72898 0.58733 0.39681 0.0
C935 C 0.64006 0.57147 0.28544 0.0
C936 C 0.72674 0.47655 0.2635 0.0
H937 H 0.74483 0.46484 0.18596 0.0
H938 H 0.65681 0.39411 0.17262 0.0
H939 H 0.66365 0.39855 0.21013 0.0
H940 H 0.64774 0.42775 0.19027 0.0
C941 C 0.66337 0.40981 0.18919 0.0
C942 C 0.69565 0.52219 0.20943 0.0
C943 C 0.72143 0.56954 0.27852 0.0
H944 H 0.75749 0.41633 0.16037 0.0
H945 H 0.68235 0.6691 0.34462 0.0
Co946 Co 0.80582 0.44141 0.45892 0.0
N947 N 0.83686 0.45532 0.4358 0.0
C948 C 0.83355 0.48105 0.42278 0.0
N949 N 0.87715 0.46724 0.41113 0.0
C950 C 0.86403 0.44732 0.42813 0.0
C951 C 0.85775 0.48821 0.40779 0.0
Co952 Co 0.73657 0.44476 0.58247 0.0
N953 N 0.70697 0.45317 0.60852 0.0
N954 N 0.66826 0.4656 0.63523 0.0
C955 C 0.69206 0.47582 0.64783 0.0
C956 C 0.71539 0.46829 0.63158 0.0
C957 C 0.67792 0.45167 0.61126 0.0
Co958 Co 0.7703 0.43205 0.52012 0.0
C959 C 0.77311 0.41948 0.58437 0.0
H960 H 0.73739 0.47411 0.63589 0.0
O961 O 0.774 0.43031 0.47743 0.0
O962 O 0.73774 0.40111 0.52229 0.0
O963 O 0.8028 0.40128 0.51959 0.0
O964 O 0.79983 0.46281 0.52425 0.0
O965 O 0.8106 0.47618 0.48046 0.0
O966 O 0.71573 0.41512 0.56363 0.0
O967 O 0.76732 0.43586 0.56239 0.0
O968 O 0.7211 0.47294 0.55719 0.0
O969 O 0.83066 0.42047 0.484 0.0
O970 O 0.77873 0.45813 0.43823 0.0
O971 O 0.74114 0.46378 0.5148 0.0
O972 O 0.75384 0.4182 0.60465 0.0
C973 C 0.82591 0.40128 0.50332 0.0
C974 C 0.65952 0.43484 0.59116 0.0
H975 H 0.66712 0.41233 0.5911 0.0
H976 H 0.66187 0.44348 0.56908 0.0
H977 H 0.63668 0.43474 0.59758 0.0
C978 C 0.71752 0.39849 0.54183 0.0
C979 C 0.81066 0.48088 0.50714 0.0
H980 H 0.81471 0.49446 0.42452 0.0
H981 H 0.89305 0.4123 0.41996 0.0
H982 H 0.88916 0.42249 0.45696 0.0
H983 H 0.86079 0.40277 0.43961 0.0
C984 C 0.87744 0.41944 0.43653 0.0
C985 C 0.76235 0.44594 0.45732 0.0
C986 C 0.72433 0.47854 0.53069 0.0
H987 H 0.86115 0.50781 0.39577 0.0
H988 H 0.69253 0.48854 0.66726 0.0
Co989 Co 0.59306 0.08317 0.80234 0.0
N990 N 0.57868 0.10451 0.83449 0.0
C991 C 0.55139 0.11425 0.83366 0.0
N992 N 0.56804 0.12897 0.87535 0.0
C993 C 0.58841 0.11399 0.86046 0.0
C994 C 0.54495 0.12908 0.85823 0.0
Co995 Co 0.59721 0.97944 0.72097 0.0
N996 N 0.58755 0.97017 0.68198 0.0
N997 N 0.57582 0.94957 0.63925 0.0
C998 C 0.57313 0.97826 0.63705 0.0
C999 C 0.58031 0.99063 0.6629 0.0
C1000 C 0.58507 0.94519 0.66671 0.0
Co1001 Co 0.60649 0.02389 0.76384 0.0
C1002 C 0.60818 0.9551 0.75743 0.0
H1003 H 0.58023 1.01332 0.66755 0.0
O1004 O 0.60452 0.06629 0.76973 0.0
O1005 O 0.64029 0.02529 0.73327 0.0
O1006 O 0.6358 0.02452 0.79784 0.0
O1007 O 0.57404 1.01597 0.79154 0.0
O1008 O 0.56126 0.05821 0.80829 0.0
O1009 O 0.63481 0.98181 0.71182 0.0
O1010 O 0.60706 0.98273 0.75842 0.0
O1011 O 0.55847 0.98236 0.73034 0.0
O1012 O 0.61694 0.06015 0.82573 0.0
O1013 O 0.57321 0.10247 0.77625 0.0
O1014 O 0.57565 0.0268 0.73243 0.0
O1015 O 0.60088 0.94281 0.73374 0.0
C1016 C 0.63558 0.04039 0.82117 0.0
C1017 C 0.59434 0.91652 0.67803 0.0
H1018 H 0.61547 0.91853 0.68866 0.0
H1019 H 0.59649 0.90039 0.6607 0.0
H1020 H 0.57844 0.90881 0.69402 0.0
C1021 C 0.64933 1.00453 0.71619 0.0
C1022 C 0.55642 0.03175 0.80516 0.0
H1023 H 0.53669 0.1106 0.81615 0.0
H1024 H 0.62543 0.12791 0.88413 0.0
H1025 H 0.61893 0.09003 0.88442 0.0
H1026 H 0.63334 0.10663 0.85245 0.0
C1027 C 0.6184 0.10952 0.8708 0.0
C1028 C 0.58701 0.08526 0.759 0.0
C1029 C 0.55465 1.00939 0.72769 0.0
H1030 H 0.52455 0.13897 0.86335 0.0
H1031 H 0.56602 0.98959 0.61807 0.0
H1032 H 0.15883 0.41065 0.29198 0.0
H1033 H 0.09346 0.46798 0.3235 0.0
H1034 H 0.14817 0.37745 0.33095 0.0
H1035 H 0.08214 0.43511 0.36138 0.0
H1036 H 0.06862 0.31609 0.33948 0.0
H1037 H 0.10802 0.3474 0.32924 0.0
H1038 H 0.08226 0.40234 0.39945 0.0
H1039 H 0.04175 0.37081 0.40899 0.0
C1040 C 0.14317 0.41695 0.30802 0.0
C1041 C 0.12625 0.44161 0.30387 0.0
C1042 C 0.13675 0.39767 0.33021 0.0
C1043 C 0.11325 0.40273 0.34857 0.0
C1044 C 0.10015 0.42996 0.3476 0.0
C1045 C 0.10676 0.44925 0.32559 0.0
C1046 C 0.07198 0.33383 0.35377 0.0
C1047 C 0.05123 0.34132 0.3743 0.0
C1048 C 0.09491 0.35218 0.34786 0.0
C1049 C 0.09778 0.37835 0.36268 0.0
C1050 C 0.08012 0.383 0.3868 0.0
C1051 C 0.05701 0.36467 0.39252 0.0
H1052 H 0.96361 0.81409 0.58215 0.0
H1053 H 0.91692 0.76084 0.64155 0.0
H1054 H 0.92329 0.84674 0.57954 0.0
H1055 H 0.87616 0.79343 0.63879 0.0
H1056 H 0.83379 0.79481 0.54016 0.0
H1057 H 0.86144 0.78457 0.58288 0.0
H1058 H 0.87392 0.87533 0.59641 0.0
H1059 H 0.8434 0.88546 0.55467 0.0
C1060 C 0.94549 0.81026 0.59595 0.0
C1061 C 0.94294 0.78461 0.61126 0.0
C1062 C 0.92235 0.82921 0.5948 0.0
C1063 C 0.89636 0.82206 0.60838 0.0
C1064 C 0.89593 0.79929 0.62804 0.0
C1065 C 0.91917 0.78052 0.62936 0.0
C1066 C 0.84059 0.81249 0.55355 0.0
C1067 C 0.8363 0.84075 0.54468 0.0
C1068 C 0.85646 0.80676 0.57803 0.0
C1069 C 0.86984 0.82925 0.59292 0.0
C1070 C 0.86345 0.85774 0.58551 0.0
C1071 C 0.84622 0.86347 0.56165 0.0
H1072 H 0.48811 0.69934 0.88851 0.0
H1073 H 0.49829 0.69068 0.79681 0.0
H1074 H 0.44913 0.66431 0.88772 0.0
H1075 H 0.45784 0.65777 0.79571 0.0
H1076 H 0.39688 0.60032 0.79043 0.0
H1077 H 0.39796 0.64099 0.82312 0.0
H1078 H 0.47852 0.61115 0.85687 0.0
H1079 H 0.47936 0.57326 0.82155 0.0
C1080 C 0.48075 0.69135 0.86799 0.0
C1081 C 0.4963 0.69704 0.84271 0.0
C1082 C 0.45831 0.6716 0.86762 0.0
C1083 C 0.45061 0.65859 0.84174 0.0
C1084 C 0.46332 0.66787 0.81592 0.0
C1085 C 0.48663 0.68637 0.81649 0.0
C1086 C 0.41386 0.60137 0.80622 0.0
C1087 C 0.43843 0.58419 0.80324 0.0
C1088 C 0.41422 0.62452 0.82518 0.0
C1089 C 0.43879 0.62953 0.8416 0.0
C1090 C 0.45946 0.60773 0.84407 0.0
C1091 C 0.46007 0.58584 0.8238 0.0
H1092 H 0.657 0.1333 0.04371 0.0
H1093 H 0.72212 0.19108 0.07343 0.0
H1094 H 0.62888 0.14328 0.08647 0.0
H1095 H 0.69376 0.2035 0.11393 0.0
H1096 H 0.63461 0.25499 0.1583 0.0
H1097 H 0.66439 0.21315 0.14971 0.0
H1098 H 0.59865 0.17878 0.09415 0.0
H1099 H 0.56882 0.21861 0.10529 0.0
C1100 C 0.66579 0.14768 0.05966 0.0
C1101 C 0.69112 0.163 0.05396 0.0
C1102 C 0.64932 0.15393 0.08408 0.0
C1103 C 0.65745 0.17632 0.10274 0.0
C1104 C 0.68556 0.18702 0.0999 0.0
C1105 C 0.70225 0.18005 0.076 0.0
C1106 C 0.62612 0.23785 0.14517 0.0
C1107 C 0.59986 0.24123 0.13081 0.0
C1108 C 0.6435 0.21389 0.13977 0.0
C1109 C 0.63535 0.19331 0.11914 0.0
C1110 C 0.60682 0.19426 0.10929 0.0
C1111 C 0.58931 0.21776 0.1154 0.0
H1112 H 0.03791 0.66204 0.13264 0.0
H1113 H 0.06826 0.72022 0.19745 0.0
H1114 H 0.07641 0.62878 0.14431 0.0
H1115 H 0.10562 0.6869 0.21021 0.0
H1116 H 0.08838 0.56583 0.22214 0.0
H1117 H 0.07558 0.59841 0.18436 0.0
H1118 H 0.14445 0.65486 0.20947 0.0
H1119 H 0.15666 0.622 0.24825 0.0
C1120 C 0.05349 0.66838 0.14861 0.0
C1121 C 0.04913 0.69334 0.16505 0.0
C1122 C 0.07541 0.64904 0.15561 0.0
C1123 C 0.09339 0.65429 0.17922 0.0
C1124 C 0.0921 0.68161 0.19214 0.0
C1125 C 0.07038 0.70102 0.18485 0.0
C1126 C 0.10188 0.58422 0.21883 0.0
C1127 C 0.12298 0.5915 0.23893 0.0
C1128 C 0.09441 0.60333 0.19693 0.0
C1129 C 0.10822 0.63009 0.19437 0.0
C1130 C 0.13261 0.635 0.21137 0.0
C1131 C 0.13992 0.61588 0.23341 0.0
H1132 H 0.66188 0.91616 0.52159 0.0
H1133 H 0.71174 0.85431 0.4741 0.0
H1134 H 0.62181 0.90857 0.48929 0.0
H1135 H 0.67227 0.84744 0.44145 0.0
H1136 H 0.59472 0.81353 0.40568 0.0
H1137 H 0.6235 0.85711 0.41169 0.0
H1138 H 0.60736 0.85433 0.50296 0.0
H1139 H 0.58106 0.80993 0.49706 0.0
C1140 C 0.66515 0.90252 0.50304 0.0
C1141 C 0.68926 0.88436 0.50148 0.0
C1142 C 0.64209 0.89823 0.48448 0.0
C1143 C 0.64352 0.87646 0.46375 0.0
C1144 C 0.67034 0.86401 0.45765 0.0
C1145 C 0.69322 0.86796 0.47653 0.0
C1146 C 0.59608 0.82326 0.42674 0.0
C1147 C 0.58555 0.80872 0.45096 0.0
C1148 C 0.61254 0.84814 0.43015 0.0
C1149 C 0.61768 0.85912 0.45773 0.0
C1150 C 0.6035 0.84669 0.48136 0.0
C1151 C 0.58827 0.82126 0.47807 0.0
H1152 H 0.44321 0.46653 0.72059 0.0
H1153 H 0.38 0.40814 0.75414 0.0
H1154 H 0.45176 0.43553 0.68074 0.0
H1155 H 0.38737 0.37699 0.71286 0.0
H1156 H 0.49318 0.37384 0.63292 0.0
H1157 H 0.45205 0.40451 0.64278 0.0
H1158 H 0.4249 0.34564 0.70926 0.0
H1159 H 0.46447 0.31508 0.6982 0.0
C1160 C 0.42996 0.44783 0.7188 0.0
C1161 C 0.412 0.43934 0.74144 0.0
C1162 C 0.43479 0.42968 0.69548 0.0
C1163 C 0.42145 0.40262 0.69413 0.0
C1164 C 0.39922 0.3969 0.71386 0.0
C1165 C 0.39473 0.41497 0.73748 0.0
C1166 C 0.47748 0.36674 0.64855 0.0
C1167 C 0.48294 0.34255 0.66575 0.0
C1168 C 0.45401 0.38457 0.65453 0.0
C1169 C 0.43603 0.37875 0.67819 0.0
C1170 C 0.43838 0.35161 0.6913 0.0
C1171 C 0.4615 0.33366 0.68493 0.0
H1172 H 0.82623 0.24565 0.98537 0.0
H1173 H 0.83724 0.15442 0.97687 0.0
H1174 H 0.85238 0.25338 0.94141 0.0
H1175 H 0.86682 0.16211 0.93393 0.0
H1176 H 0.95621 0.22089 0.94798 0.0
H1177 H 0.9151 0.18877 0.9484 0.0
H1178 H 0.87083 0.24467 0.88937 0.0
H1179 H 0.91165 0.27716 0.88975 0.0
C1180 C 0.83259 0.22716 0.97283 0.0
C1181 C 0.82937 0.19958 0.98398 0.0
C1182 C 0.84791 0.23144 0.94765 0.0
C1183 C 0.86213 0.20828 0.93445 0.0
C1184 C 0.85597 0.18025 0.94363 0.0
C1185 C 0.83914 0.17589 0.96817 0.0
C1186 C 0.93836 0.22537 0.93385 0.0
C1187 C 0.9363 0.25178 0.91976 0.0
C1188 C 0.91488 0.20681 0.93374 0.0
C1189 C 0.88939 0.21491 0.91971 0.0
C1190 C 0.89005 0.23825 0.9007 0.0
C1191 C 0.91323 0.25701 0.90124 0.0
H1192 H 0.40853 0.02764 0.3769 0.0
H1193 H 0.35398 0.07207 0.31718 0.0
H1194 H 0.39454 0.06107 0.4143 0.0
H1195 H 0.34087 0.10594 0.35419 0.0
H1196 H 0.31092 0.13448 0.45595 0.0
H1197 H 0.35485 0.12929 0.42632 0.0
H1198 H 0.32467 0.04712 0.39666 0.0
H1199 H 0.28106 0.0528 0.42443 0.0
C1200 C 0.39523 0.04576 0.371 0.0
C1201 C 0.38021 0.04567 0.34479 0.0
C1202 C 0.38742 0.06515 0.39257 0.0
C1203 C 0.36557 0.08514 0.38741 0.0
C1204 C 0.35733 0.0902 0.35887 0.0
C1205 C 0.36465 0.07039 0.33752 0.0
C1206 C 0.31431 0.115 0.44375 0.0
C1207 C 0.29281 0.0939 0.44257 0.0
C1208 C 0.33922 0.11216 0.42677 0.0
C1209 C 0.34286 0.08786 0.40932 0.0
C1210 C 0.32226 0.06605 0.40998 0.0
C1211 C 0.29734 0.06931 0.42587 0.0
H1212 H 0.19209 0.06914 0.72185 0.0
H1213 H 0.1285 0.03826 0.66281 0.0
H1214 H 0.20391 0.1076 0.68964 0.0
H1215 H 0.13875 0.07827 0.63087 0.0
H1216 H 0.24529 0.1558 0.62515 0.0
H1217 H 0.20537 0.14558 0.65745 0.0
H1218 H 0.17812 0.07771 0.60063 0.0
H1219 H 0.217 0.08827 0.56912 0.0
C1220 C 0.17957 0.07128 0.70269 0.0
C1221 C 0.16071 0.04949 0.69424 0.0
C1222 C 0.18623 0.09376 0.68394 0.0
C1223 C 0.17346 0.09529 0.6566 0.0
C1224 C 0.15015 0.07698 0.65104 0.0
C1225 C 0.14395 0.05417 0.66961 0.0
C1226 C 0.22975 0.13978 0.61883 0.0
C1227 C 0.23483 0.12254 0.59454 0.0
C1228 C 0.20702 0.13361 0.63761 0.0
C1229 C 0.189 0.10995 0.6325 0.0
C1230 C 0.19134 0.09604 0.60576 0.0
C1231 C 0.21392 0.10233 0.58707 0.0
H1232 H 0.12488 1.00491 0.87104 0.0
H1233 H 0.18828 0.96536 0.81649 0.0
H1234 H 0.14018 0.97483 0.91074 0.0
H1235 H 0.20292 0.93472 0.85586 0.0
H1236 H 0.22915 0.90491 0.95371 0.0
H1237 H 0.18687 0.90783 0.9222 0.0
H1238 H 0.20744 0.99594 0.90315 0.0
H1239 H 0.25024 0.9925 0.93253 0.0
C1240 C 0.14047 0.98819 0.86673 0.0
C1241 C 0.15725 0.9892 0.84155 0.0
C1242 C 0.14923 0.97092 0.88965 0.0
C1243 C 0.1735 0.95343 0.88658 0.0
C1244 C 0.18441 0.94849 0.85886 0.0
C1245 C 0.17598 0.96621 0.83615 0.0
C1246 C 0.22389 0.92518 0.94363 0.0
C1247 C 0.24271 0.94865 0.94578 0.0
C1248 C 0.19987 0.92673 0.92558 0.0
C1249 C 0.19404 0.95211 0.91052 0.0
C1250 C 0.21143 0.97623 0.91485 0.0
C1251 C 0.2358 0.97435 0.93181 0.0
H1252 H 0.35213 0.02269 0.14627 0.0
H1253 H 0.35215 0.96999 0.22252 0.0
H1254 H 0.34842 0.98141 0.11686 0.0
H1255 H 0.34838 0.92711 0.19237 0.0
H1256 H 0.27449 0.88851 0.13545 0.0
H1257 H 0.31115 0.90608 0.16709 0.0
H1258 H 0.35767 0.93957 0.09414 0.0
H1259 H 0.31868 0.92607 0.06322 0.0
C1260 C 0.35155 1.00202 0.1569 0.0
C1261 C 0.35054 0.99988 0.18697 0.0
C1262 C 0.35006 0.97786 0.13974 0.0
C1263 C 0.34742 0.9504 0.15193 0.0
C1264 C 0.34959 0.9479 0.18211 0.0
C1265 C 0.35149 0.97251 0.19951 0.0
C1266 C 0.29293 0.89895 0.12587 0.0
C1267 C 0.29228 0.90815 0.09703 0.0
C1268 C 0.31433 0.90889 0.14425 0.0
C1269 C 0.33614 0.92671 0.13351 0.0
C1270 C 0.33982 0.92799 0.10347 0.0
C1271 C 0.31749 0.91972 0.08538 0.0
H1272 H 0.32874 0.34529 0.06161 0.0
H1273 H 0.38174 0.39093 1.00092 0.0
H1274 H 0.37069 0.33671 0.09159 0.0
H1275 H 0.4235 0.3826 0.03094 0.0
H1276 H 0.45048 0.27887 0.03709 0.0
H1277 H 0.42452 0.32246 0.02554 0.0
H1278 H 0.42746 0.34838 0.11445 0.0
H1279 H 0.45577 0.30527 0.12566 0.0
C1280 C 0.34892 0.35511 0.05569 0.0
C1281 C 0.35251 0.3677 0.02863 0.0
C1282 C 0.37293 0.35047 0.07297 0.0
C1283 C 0.40031 0.35838 0.063 0.0
C1284 C 0.4026 0.3762 0.03889 0.0
C1285 C 0.37875 0.38066 0.02159 0.0
C1286 C 0.44693 0.29461 0.05384 0.0
C1287 C 0.45515 0.28901 0.0821 0.0
C1288 C 0.43219 0.31961 0.04729 0.0
C1289 C 0.42416 0.33874 0.06918 0.0
C1290 C 0.43388 0.33411 0.09725 0.0
C1291 C 0.44993 0.30954 0.10358 0.0
H1292 H 0.99596 0.87437 0.13108 0.0
H1293 H 0.96633 0.8155 0.19581 0.0
H1294 H 0.95607 0.90625 0.14199 0.0
H1295 H 0.9279 0.84747 0.20809 0.0
H1296 H 0.94137 0.96999 0.21789 0.0
H1297 H 0.95409 0.93769 0.1799 0.0
H1298 H 0.88936 0.87822 0.20942 0.0
H1299 H 0.87807 0.91047 0.2489 0.0
C1300 C 0.98034 0.86759 0.14694 0.0
C1301 C 0.98525 0.84286 0.16358 0.0
C1302 C 0.95761 0.88617 0.15355 0.0
C1303 C 0.93947 0.88048 0.17711 0.0
C1304 C 0.94145 0.85324 0.19011 0.0
C1305 C 0.96389 0.83456 0.18312 0.0
C1306 C 0.92908 0.95069 0.21585 0.0
C1307 C 0.90993 0.94232 0.23754 0.0
C1308 C 0.93632 0.9318 0.19366 0.0
C1309 C 0.92389 0.9043 0.19225 0.0
C1310 C 0.90052 0.89851 0.21057 0.0
C1311 C 0.89367 0.91731 0.23305 0.0
H1312 H 0.07054 0.72049 0.61549 0.0
H1313 H 0.14326 0.77018 0.64325 0.0
H1314 H 0.10177 0.681 0.60399 0.0
H1315 H 0.17492 0.73243 0.62739 0.0
H1316 H 0.22791 0.68188 0.5681 0.0
H1317 H 0.19922 0.69018 0.61152 0.0
H1318 H 0.12236 0.68814 0.55979 0.0
H1319 H 0.15039 0.68133 0.51777 0.0
C1320 C 0.09288 0.72279 0.62033 0.0
C1321 C 0.10418 0.74919 0.62909 0.0
C1322 C 0.11112 0.70011 0.61325 0.0
C1323 C 0.14099 0.70441 0.61248 0.0
C1324 C 0.15207 0.72851 0.62669 0.0
C1325 C 0.13368 0.75053 0.63548 0.0
C1326 C 0.20497 0.68352 0.56618 0.0
C1327 C 0.1917 0.68343 0.53916 0.0
C1328 C 0.18842 0.68771 0.59114 0.0
C1329 C 0.15835 0.69062 0.58935 0.0
C1330 C 0.14527 0.68623 0.5626 0.0
C1331 C 0.16163 0.68286 0.53803 0.0
H1332 H 0.63754 0.90527 0.757 0.0
H1333 H 0.59424 0.96452 0.81358 0.0
H1334 H 0.63003 0.8668 0.79147 0.0
H1335 H 0.58638 0.9258 0.84793 0.0
H1336 H 0.55468 0.84044 0.88828 0.0
H1337 H 0.59789 0.86799 0.87476 0.0
H1338 H 0.56834 0.87051 0.78704 0.0
H1339 H 0.52495 0.84555 0.80087 0.0
C1340 C 0.62788 0.91038 0.77757 0.0
C1341 C 0.61534 0.93735 0.78235 0.0
C1342 C 0.62406 0.88846 0.7975 0.0
C1343 C 0.60696 0.89331 0.82182 0.0
C1344 C 0.59958 0.92161 0.82921 0.0
C1345 C 0.60369 0.94372 0.80935 0.0
C1346 C 0.55818 0.84619 0.86601 0.0
C1347 C 0.53694 0.84092 0.8454 0.0
C1348 C 0.58275 0.86175 0.85836 0.0
C1349 C 0.58649 0.87081 0.82986 0.0
C1350 C 0.56622 0.86321 0.80904 0.0
C1351 C 0.54137 0.84903 0.8169 0.0
H1352 H 0.8804 0.12183 0.29264 0.0
H1353 H 0.94894 0.06602 0.31931 0.0
H1354 H 0.89157 0.15441 0.33186 0.0
H1355 H 0.96101 0.09847 0.35729 0.0
H1356 H 0.96559 0.22119 0.3446 0.0
H1357 H 0.92831 0.18752 0.33275 0.0
H1358 H 0.96135 0.12872 0.39641 0.0
H1359 H 1.00007 0.16206 0.40642 0.0
C1360 C 0.89705 0.11578 0.30764 0.0
C1361 C 0.91436 0.09161 0.30221 0.0
C1362 C 0.9038 0.13476 0.32994 0.0
C1363 C 0.92812 0.13004 0.34715 0.0
C1364 C 0.94226 0.10338 0.34459 0.0
C1365 C 0.93525 0.08433 0.32254 0.0
C1366 C 0.96441 0.20161 0.35673 0.0
C1367 C 0.98689 0.19364 0.37498 0.0
C1368 C 0.94272 0.18201 0.35006 0.0
C1369 C 0.9426 0.15437 0.3624 0.0
C1370 C 0.96156 0.1491 0.38527 0.0
C1371 C 0.98357 0.16852 0.39143 0.0
H1372 H 0.532 0.17577 0.61787 0.0
H1373 H 0.56853 0.22133 0.6893 0.0
H1374 H 0.56468 0.13612 0.62639 0.0
H1375 H 0.60178 0.18227 0.69714 0.0
H1376 H 0.6335 0.09605 0.72554 0.0
H1377 H 0.63296 0.12856 0.68399 0.0
H1378 H 0.54054 0.12493 0.68323 0.0
H1379 H 0.54114 0.09492 0.72581 0.0
C1380 C 0.54854 0.17845 0.63392 0.0
C1381 C 0.54621 0.20044 0.65449 0.0
C1382 C 0.56736 0.15562 0.63873 0.0
C1383 C 0.58461 0.15561 0.66332 0.0
C1384 C 0.58813 0.18147 0.67838 0.0
C1385 C 0.56888 0.20405 0.67389 0.0
C1386 C 0.61322 0.10102 0.71541 0.0
C1387 C 0.5873 0.09275 0.72846 0.0
C1388 C 0.61297 0.11963 0.69174 0.0
C1389 C 0.58678 0.12893 0.68026 0.0
C1390 C 0.56108 0.11762 0.69127 0.0
C1391 C 0.56133 0.10038 0.71563 0.0
H1392 H 0.1969 0.38367 0.9715 0.0
H1393 H 0.1901 0.2916 0.97628 0.0
H1394 H 0.16644 0.38362 0.92849 0.0
H1395 H 0.16226 0.29124 0.93251 0.0
H1396 H 0.1171 0.27954 0.86878 0.0
H1397 H 0.15615 0.31344 0.87375 0.0
H1398 H 0.10947 0.35704 0.94064 0.0
H1399 H 0.07086 0.32277 0.93631 0.0
C1400 C 0.19061 0.36336 0.96219 0.0
C1401 C 0.19601 0.33754 0.97685 0.0
C1402 C 0.17323 0.36339 0.93766 0.0
C1403 C 0.16237 0.33747 0.927 0.0
C1404 C 0.17082 0.31153 0.93988 0.0
C1405 C 0.1867 0.31166 0.96501 0.0
C1406 C 0.11413 0.29769 0.88301 0.0
C1407 C 0.0922 0.2973 0.9038 0.0
C1408 C 0.13656 0.31731 0.8857 0.0
C1409 C 0.13649 0.33651 0.90888 0.0
C1410 C 0.11042 0.3417 0.9232 0.0
C1411 C 0.08813 0.32184 0.92077 0.0
H1412 H 0.4169 0.74576 0.38277 0.0
H1413 H 0.4737 0.72021 0.45076 0.0
H1414 H 0.38705 0.70407 0.39256 0.0
H1415 H 0.44406 0.67998 0.46147 0.0
H1416 H 0.32402 0.69627 0.4701 0.0
H1417 H 0.35527 0.70463 0.43062 0.0
H1418 H 0.41387 0.64076 0.46351 0.0
H1419 H 0.38174 0.63284 0.50411 0.0
C1420 C 0.42385 0.73062 0.39898 0.0
C1421 C 0.44724 0.7371 0.41679 0.0
C1422 C 0.4065 0.7068 0.40485 0.0
C1423 C 0.41202 0.68942 0.42898 0.0
C1424 C 0.43846 0.6929 0.44302 0.0
C1425 C 0.45589 0.71642 0.43684 0.0
C1426 C 0.34235 0.68256 0.46828 0.0
C1427 C 0.35037 0.66442 0.49088 0.0
C1428 C 0.36088 0.68753 0.44527 0.0
C1429 C 0.38807 0.67442 0.44433 0.0
C1430 C 0.39369 0.65224 0.4641 0.0
C1431 C 0.37507 0.64742 0.4873 0.0
H1432 H 0.83867 0.56622 0.81128 0.0
H1433 H 0.90554 0.53972 0.86899 0.0
H1434 H 0.82606 0.60491 0.84273 0.0
H1435 H 0.89402 0.57983 0.90043 0.0
H1436 H 0.81815 0.59125 0.96484 0.0
H1437 H 0.85565 0.57944 0.93195 0.0
H1438 H 0.82445 0.64411 0.87328 0.0
H1439 H 0.78575 0.65519 0.90675 0.0
C1440 C 0.85183 0.56951 0.82984 0.0
C1441 C 0.87219 0.54892 0.83807 0.0
C1442 C 0.84458 0.59206 0.84824 0.0
C1443 C 0.85802 0.59486 0.87513 0.0
C1444 C 0.88222 0.57761 0.88058 0.0
C1445 C 0.88915 0.55477 0.86229 0.0
C1446 C 0.81979 0.60398 0.94583 0.0
C1447 C 0.79811 0.62342 0.93839 0.0
C1448 C 0.84169 0.59717 0.92648 0.0
C1449 C 0.84266 0.60994 0.8991 0.0
C1450 C 0.82382 0.63293 0.89364 0.0
C1451 C 0.80173 0.63955 0.91306 0.0
H1452 H 0.72687 0.5932 0.0716 0.0
H1453 H 0.76519 0.6615 0.12059 0.0
H1454 H 0.69371 0.58393 0.11065 0.0
H1455 H 0.73253 0.65141 0.16016 0.0
H1456 H 0.7439 0.5521 0.20347 0.0
H1457 H 0.75036 0.59428 0.17395 0.0
H1458 H 0.659 0.5989 0.16076 0.0
H1459 H 0.65244 0.55818 0.19378 0.0
C1460 C 0.72702 0.6076 0.08975 0.0
C1461 C 0.7495 0.62724 0.09349 0.0
C1462 C 0.70788 0.60224 0.11231 0.0
C1463 C 0.7112 0.61642 0.13871 0.0
C1464 C 0.7297 0.64005 0.14009 0.0
C1465 C 0.74849 0.64571 0.11737 0.0
C1466 C 0.72507 0.56385 0.19678 0.0
C1467 C 0.69772 0.55273 0.20205 0.0
C1468 C 0.7287 0.58776 0.17932 0.0
C1469 C 0.70512 0.59995 0.16517 0.0
C1470 C 0.67741 0.5902 0.17188 0.0
C1471 C 0.6737 0.56704 0.19083 0.0
H1472 H 0.6876 0.47256 0.32495 0.0
H1473 H 0.62108 0.51308 0.37508 0.0
H1474 H 0.69617 0.43895 0.36363 0.0
H1475 H 0.63023 0.47977 0.41416 0.0
H1476 H 0.73092 0.49326 0.45239 0.0
H1477 H 0.68696 0.49806 0.42574 0.0
H1478 H 0.68402 0.40624 0.41483 0.0
H1479 H 0.72668 0.40147 0.44538 0.0
C1480 C 0.67345 0.47319 0.34332 0.0
C1481 C 0.65487 0.49652 0.34768 0.0
C1482 C 0.67829 0.45369 0.36563 0.0
C1483 C 0.66462 0.45758 0.39229 0.0
C1484 C 0.64134 0.4766 0.39394 0.0
C1485 C 0.63626 0.49583 0.37151 0.0
C1486 C 0.71921 0.47402 0.44718 0.0
C1487 C 0.73137 0.44709 0.45226 0.0
C1488 C 0.69423 0.47666 0.43126 0.0
C1489 C 0.68194 0.45245 0.41831 0.0
C1490 C 0.69276 0.42513 0.42506 0.0
C1491 C 0.71706 0.42244 0.44258 0.0
H1492 H 0.79089 0.3797 0.62358 0.0
H1493 H 0.82332 0.44388 0.56565 0.0
H1494 H 0.8316 0.3875 0.65507 0.0
H1495 H 0.8625 0.45326 0.59728 0.0
H1496 H 0.84491 0.4629 0.7194 0.0
H1497 H 0.83418 0.42422 0.68728 0.0
H1498 H 0.89973 0.45449 0.62883 0.0
H1499 H 0.90872 0.49474 0.66068 0.0
C1500 C 0.80733 0.39468 0.61686 0.0
C1501 C 0.80297 0.41234 0.59275 0.0
C1502 C 0.83053 0.39955 0.63524 0.0
C1503 C 0.84953 0.42242 0.62997 0.0
C1504 C 0.8482 0.43589 0.60288 0.0
C1505 C 0.82532 0.43057 0.58435 0.0
C1506 C 0.85775 0.46086 0.70032 0.0
C1507 C 0.87621 0.483 0.69184 0.0
C1508 C 0.85171 0.43829 0.68157 0.0
C1509 C 0.86477 0.43702 0.65423 0.0
C1510 C 0.88795 0.45562 0.64885 0.0
C1511 C 0.89349 0.47854 0.66742 0.0
H1512 H 0.1521 0.14407 0.51436 0.0
H1513 H 0.22454 0.19346 0.48589 0.0
H1514 H 0.11987 0.17575 0.48854 0.0
H1515 H 0.19214 0.22613 0.46024 0.0
H1516 H 0.12998 0.2523 0.38537 0.0
H1517 H 0.16374 0.2312 0.41927 0.0
H1518 H 0.09435 0.21702 0.47905 0.0
H1519 H 0.06068 0.23743 0.44443 0.0
C1520 C 0.16116 0.16265 0.50373 0.0
C1521 C 0.19122 0.16642 0.50341 0.0
C1522 C 0.14244 0.18099 0.48847 0.0
C1523 C 0.15273 0.2041 0.47172 0.0
C1524 C 0.18282 0.20869 0.4724 0.0
C1525 C 0.20164 0.19024 0.48786 0.0
C1526 C 0.12208 0.24596 0.40632 0.0
C1527 C 0.09239 0.24773 0.41219 0.0
C1528 C 0.14162 0.23338 0.42593 0.0
C1529 C 0.13239 0.22163 0.4524 0.0
C1530 C 0.10285 0.22505 0.45897 0.0
C1531 C 0.08334 0.23766 0.43929 0.0
H1532 H 0.08825 0.97469 0.73761 0.0
H1533 H 0.14804 0.9074 0.75724 0.0
H1534 H 0.05428 0.93923 0.71943 0.0
H1535 H 0.11526 0.87199 0.73788 0.0
H1536 H 0.05485 0.80725 0.70131 0.0
H1537 H 0.07719 0.84214 0.73318 0.0
H1538 H 0.04249 0.91079 0.68162 0.0
H1539 H 0.01914 0.87571 0.65111 0.0
C1540 C 0.09371 0.95217 0.73932 0.0
C1541 C 0.12081 0.94421 0.7501 0.0
C1542 C 0.07441 0.93156 0.72796 0.0
C1543 C 0.08148 0.90198 0.72637 0.0
C1544 C 0.10806 0.89402 0.73867 0.0
C1545 C 0.12714 0.91459 0.75017 0.0
C1546 C 0.05039 0.82979 0.69788 0.0
C1547 C 0.03402 0.8382 0.67386 0.0
C1548 C 0.06421 0.85017 0.71574 0.0
C1549 C 0.06269 0.88007 0.71025 0.0
C1550 C 0.04449 0.88843 0.68744 0.0
C1551 C 0.03051 0.86804 0.66984 0.0
H1552 H 0.40449 0.76594 0.9053 0.0
H1553 H 0.47697 0.79588 0.95342 0.0
H1554 H 0.37211 0.7901 0.93806 0.0
H1555 H 0.44445 0.81943 0.98753 0.0
H1556 H 0.38182 0.89164 1.0175 0.0
H1557 H 0.41565 0.8582 0.99615 0.0
H1558 H 0.34602 0.80022 0.97787 0.0
H1559 H 0.31217 0.83478 0.99817 0.0
C1560 C 0.4136 0.7765 0.92386 0.0
C1561 C 0.44372 0.7779 0.92678 0.0
C1562 C 0.39474 0.79079 0.9429 0.0
C1563 C 0.40489 0.80742 0.9661 0.0
C1564 C 0.43512 0.80749 0.97002 0.0
C1565 C 0.45409 0.79316 0.95073 0.0
C1566 C 0.3738 0.87108 1.01031 0.0
C1567 C 0.3439 0.86598 1.01066 0.0
C1568 C 0.39344 0.85173 0.99746 0.0
C1569 C 0.38427 0.82602 0.98428 0.0
C1570 C 0.35456 0.81979 0.98683 0.0
C1571 C 0.33487 0.83938 0.99953 0.0
H1572 H 0.49683 0.22407 0.20279 0.0
H1573 H 0.52218 0.1524 0.15067 0.0
H1574 H 0.47233 0.19159 0.23583 0.0
H1575 H 0.4969 0.11984 0.18273 0.0
H1576 H 0.44726 0.06127 0.2439 0.0
H1577 H 0.48371 0.09257 0.22221 0.0
H1578 H 0.43086 0.16626 0.24114 0.0
H1579 H 0.39551 0.13519 0.26323 0.0
C1580 C 0.49871 0.2012 0.19913 0.0
C1581 C 0.51281 0.19129 0.17416 0.0
C1582 C 0.48356 0.1823 0.21774 0.0
C1583 C 0.48147 0.15242 0.21223 0.0
C1584 C 0.49763 0.14227 0.18854 0.0
C1585 C 0.51286 0.16118 0.17011 0.0
C1586 C 0.44406 0.08426 0.24465 0.0
C1587 C 0.4184 0.09537 0.25642 0.0
C1588 C 0.46485 0.10247 0.23145 0.0
C1589 C 0.46094 0.13267 0.22933 0.0
C1590 C 0.43576 0.14362 0.24234 0.0
C1591 C 0.41515 0.12552 0.25537 0.0
H1592 H 0.05978 0.80084 0.09087 0.0
H1593 H 0.12819 0.78038 0.14892 0.0
H1594 H 0.09434 0.82177 0.05726 0.0
H1595 H 0.16278 0.80187 0.1161 0.0
H1596 H 0.2253 0.84012 0.05296 0.0
H1597 H 0.19109 0.80697 0.07506 0.0
H1598 H 0.12168 0.86304 0.05058 0.0
H1599 H 0.15596 0.89547 0.02817 0.0
C1600 C 0.08239 0.79936 0.09587 0.0
C1601 C 0.09095 0.78757 0.1224 0.0
C1602 C 0.1024 0.81226 0.07682 0.0
C1603 C 0.13195 0.8142 0.08354 0.0
C1604 C 0.14064 0.80079 0.10935 0.0
C1605 C 0.12063 0.78796 0.1283 0.0
C1606 C 0.20261 0.84452 0.05077 0.0
C1607 C 0.19366 0.87018 0.03743 0.0
C1608 C 0.18277 0.82579 0.06432 0.0
C1609 C 0.15301 0.83192 0.06529 0.0
C1610 C 0.144 0.85673 0.0503 0.0
C1611 C 0.16384 0.87542 0.03688 0.0
H1612 H 0.50766 0.87908 0.39581 0.0
H1613 H 0.48212 0.81035 0.34021 0.0
H1614 H 0.48542 0.91375 0.36383 0.0
H1615 H 0.46074 0.84498 0.30712 0.0
H1616 H 0.44449 0.97686 0.30345 0.0
H1617 H 0.47774 0.94222 0.32449 0.0
H1618 H 0.42127 0.87341 0.2996 0.0
H1619 H 0.38901 0.90818 0.27777 0.0
C1620 C 0.49876 0.87139 0.3758 0.0
C1621 C 0.49798 0.84159 0.37042 0.0
C1622 C 0.48549 0.89151 0.35729 0.0
C1623 C 0.47054 0.88288 0.33235 0.0
C1624 C 0.47133 0.85312 0.32605 0.0
C1625 C 0.48454 0.83299 0.34474 0.0
C1626 C 0.43999 0.95422 0.30098 0.0
C1627 C 0.41426 0.94562 0.28771 0.0
C1628 C 0.4588 0.93408 0.31396 0.0
C1629 C 0.45262 0.90431 0.3146 0.0
C1630 C 0.42768 0.89568 0.29967 0.0
C1631 C 0.40901 0.91583 0.28665 0.0
H1632 H 0.40487 0.26015 0.65042 0.0
H1633 H 0.47304 0.23846 0.59212 0.0
H1634 H 0.3702 0.23779 0.61857 0.0
H1635 H 0.4384 0.21667 0.55944 0.0
H1636 H 0.37701 0.14218 0.53252 0.0
H1637 H 0.41126 0.17512 0.55408 0.0
H1638 H 0.34169 0.23136 0.57816 0.0
H1639 H 0.30755 0.19766 0.55707 0.0
C1640 C 0.41235 0.25217 0.62989 0.0
C1641 C 0.442 0.25243 0.62368 0.0
C1642 C 0.39229 0.23878 0.61151 0.0
C1643 C 0.4009 0.22471 0.58599 0.0
C1644 C 0.43039 0.22663 0.57885 0.0
C1645 C 0.45044 0.24007 0.59731 0.0
C1646 C 0.36909 0.16228 0.54111 0.0
C1647 C 0.33928 0.16746 0.54183 0.0
C1648 C 0.38891 0.18131 0.55396 0.0
C1649 C 0.37984 0.2064 0.56849 0.0
C1650 C 0.35005 0.21235 0.56777 0.0
C1651 C 0.33025 0.19326 0.55485 0.0
H1652 H 0.15305 0.13044 0.78209 0.0
H1653 H 0.09372 0.06274 0.80149 0.0
H1654 H 0.121 0.16524 0.80423 0.0
H1655 H 0.06075 0.09757 0.82301 0.0
H1656 H 0.03076 0.15907 0.89656 0.0
H1657 H 0.05277 0.12463 0.86385 0.0
H1658 H 0.08167 0.19438 0.81016 0.0
H1659 H 0.06042 0.22859 0.84377 0.0
C1660 C 0.13232 0.12314 0.78962 0.0
C1661 C 0.12584 0.09361 0.78881 0.0
C1662 C 0.11376 0.14327 0.80281 0.0
C1663 C 0.08775 0.13485 0.81608 0.0
C1664 C 0.0805 0.10543 0.8137 0.0
C1665 C 0.09918 0.08528 0.80047 0.0
C1666 C 0.04058 0.16704 0.87702 0.0
C1667 C 0.04278 0.1969 0.87265 0.0
C1668 C 0.05369 0.14709 0.85814 0.0
C1669 C 0.06981 0.15609 0.83395 0.0
C1670 C 0.07023 0.186 0.82856 0.0
C1671 C 0.05717 0.2059 0.84755 0.0
H1672 H 0.19506 0.48128 0.22641 0.0
H1673 H 0.13527 0.5026 0.15976 0.0
H1674 H 0.22738 0.4601 0.19072 0.0
H1675 H 0.16693 0.48104 0.12401 0.0
H1676 H 0.22891 0.44343 0.05943 0.0
H1677 H 0.20755 0.47618 0.09463 0.0
H1678 H 0.23265 0.41881 0.16277 0.0
H1679 H 0.25421 0.38669 0.12753 0.0
C1680 C 0.1894 0.48285 0.20393 0.0
C1681 C 0.1628 0.49499 0.19618 0.0
C1682 C 0.2077 0.46985 0.18328 0.0
C1683 C 0.20017 0.46821 0.15388 0.0
C1684 C 0.17428 0.48192 0.14599 0.0
C1685 C 0.15601 0.4948 0.16666 0.0
C1686 C 0.23126 0.43856 0.08203 0.0
C1687 C 0.24447 0.41262 0.09036 0.0
C1688 C 0.2182 0.4571 0.10244 0.0
C1689 C 0.21771 0.45053 0.13215 0.0
C1690 C 0.23257 0.42542 0.14051 0.0
C1691 C 0.24543 0.40688 0.12011 0.0
H1692 H 0.69183 0.05552 0.81165 0.0
H1693 H 0.6333 0.03293 0.87936 0.0
H1694 H 0.72486 0.07573 0.847 0.0
H1695 H 0.66562 0.05346 0.91473 0.0
H1696 H 0.72739 0.08997 0.97881 0.0
H1697 H 0.70606 0.05783 0.94333 0.0
H1698 H 0.73137 0.11601 0.87583 0.0
H1699 H 0.75332 0.14727 0.91135 0.0
C1700 C 0.68656 0.05351 0.83422 0.0
C1701 C 0.66005 0.04144 0.84239 0.0
C1702 C 0.70529 0.06593 0.85471 0.0
C1703 C 0.69832 0.06691 0.88434 0.0
C1704 C 0.67257 0.05312 0.89256 0.0
C1705 C 0.65388 0.04087 0.87208 0.0
C1706 C 0.72995 0.09505 0.95625 0.0
C1707 C 0.7434 0.12093 0.94823 0.0
C1708 C 0.71682 0.0769 0.93569 0.0
C1709 C 0.71626 0.08396 0.90609 0.0
C1710 C 0.73131 0.10902 0.89798 0.0
C1711 C 0.74441 0.12706 0.91855 0.0
H1712 H 0.7987 0.9434 0.47832 0.0
H1713 H 0.76628 0.89618 0.40624 0.0
H1714 H 0.82417 0.97571 0.44541 0.0
H1715 H 0.79205 0.92735 0.37344 0.0
H1716 H 0.83775 0.98696 0.31299 0.0
H1717 H 0.80332 0.96719 0.34735 0.0
H1718 H 0.86361 0.98165 0.41588 0.0
H1719 H 0.89706 1.00252 0.38152 0.0
C1720 C 0.79582 0.94062 0.45543 0.0
C1721 C 0.77917 0.91748 0.44532 0.0
C1722 C 0.81123 0.95884 0.43625 0.0
C1723 C 0.81089 0.95469 0.406 0.0
C1724 C 0.79304 0.93232 0.39609 0.0
C1725 C 0.77776 0.91425 0.41518 0.0
C1726 C 0.84305 0.98745 0.33561 0.0
C1727 C 0.8702 0.99756 0.34416 0.0
C1728 C 0.82346 0.97513 0.35556 0.0
C1729 C 0.83018 0.97188 0.38511 0.0
C1730 C 0.85675 0.98359 0.39381 0.0
C1731 C 0.87619 0.99599 0.37386 0.0
H1732 H 0.77153 0.1475 0.13556 0.0
H1733 H 0.79856 0.09499 0.06475 0.0
H1734 H 0.79491 0.11488 0.16904 0.0
H1735 H 0.82128 0.06149 0.09806 0.0
H1736 H 0.89446 0.0321 0.15914 0.0
H1737 H 0.8614 0.05466 0.12573 0.0
H1738 H 0.80439 0.07454 0.19611 0.0
H1739 H 0.83844 0.0527 0.22952 0.0
C1740 C 0.78106 0.12804 0.12714 0.0
C1741 C 0.78206 0.12381 0.09712 0.0
C1742 C 0.79501 0.10919 0.14654 0.0
C1743 C 0.81087 0.08508 0.13692 0.0
C1744 C 0.81011 0.0798 0.10695 0.0
C1745 C 0.79615 0.09874 0.08757 0.0
C1746 C 0.87425 0.04005 0.16743 0.0
C1747 C 0.86903 0.03926 0.19731 0.0
C1748 C 0.85507 0.05348 0.14805 0.0
C1749 C 0.8296 0.06713 0.15753 0.0
C1750 C 0.82363 0.06493 0.18734 0.0
C1751 C 0.84294 0.05149 0.20673 0.0
H1752 H 0.40381 0.52456 0.65233 0.0
H1753 H 0.34665 0.5441 0.72215 0.0
H1754 H 0.3714 0.54793 0.61879 0.0
H1755 H 0.31353 0.56718 0.68863 0.0
H1756 H 0.28588 0.64357 0.62949 0.0
H1757 H 0.30771 0.6095 0.66258 0.0
H1758 H 0.33065 0.55524 0.59109 0.0
H1759 H 0.30932 0.59008 0.5581 0.0
C1760 C 0.38343 0.53234 0.66039 0.0
C1761 C 0.37773 0.53122 0.69017 0.0
C1762 C 0.36472 0.54631 0.64099 0.0
C1763 C 0.3394 0.56018 0.65043 0.0
C1764 C 0.33278 0.55741 0.68003 0.0
C1765 C 0.35152 0.54329 0.69942 0.0
C1766 C 0.29426 0.62366 0.62089 0.0
C1767 C 0.29464 0.61942 0.59088 0.0
C1768 C 0.30727 0.60399 0.64004 0.0
C1769 C 0.3216 0.57912 0.63009 0.0
C1770 C 0.32045 0.57404 0.60011 0.0
C1771 C 0.30736 0.59379 0.58097 0.0
H1772 H 0.27194 0.64139 0.40352 0.0
H1773 H 0.24115 0.59461 0.47687 0.0
H1774 H 0.24551 0.61006 0.37173 0.0
H1775 H 0.2151 0.56198 0.4449 0.0
H1776 H 0.14198 0.53263 0.38281 0.0
H1777 H 0.1757 0.55421 0.41627 0.0
H1778 H 0.23387 0.57066 0.34596 0.0
H1779 H 0.19924 0.55007 0.31263 0.0
C1780 C 0.26063 0.62339 0.41294 0.0
C1781 C 0.25996 0.62034 0.44315 0.0
C1782 C 0.245 0.60519 0.39441 0.0
C1783 C 0.2275 0.58273 0.40493 0.0
C1784 C 0.22775 0.57885 0.43524 0.0
C1785 C 0.2435 0.59728 0.45389 0.0
C1786 C 0.16257 0.53962 0.3746 0.0
C1787 C 0.16788 0.53836 0.34471 0.0
C1788 C 0.18211 0.55253 0.39401 0.0
C1789 C 0.20812 0.5651 0.38456 0.0
C1790 C 0.21418 0.56215 0.35478 0.0
C1791 C 0.19449 0.54935 0.33539 0.0
H1792 H 0.33697 0.48941 0.80898 0.0
H1793 H 0.39556 0.50884 0.87719 0.0
H1794 H 0.30203 0.47184 0.8441 0.0
H1795 H 0.36176 0.49038 0.91222 0.0
H1796 H 0.30089 0.45438 0.97602 0.0
H1797 H 0.32251 0.48684 0.94104 0.0
H1798 H 0.29142 0.43311 0.87245 0.0
H1799 H 0.26881 0.4019 0.90758 0.0
C1800 C 0.34186 0.4914 0.8316 0.0
C1801 C 0.36888 0.50184 0.84004 0.0
C1802 C 0.32204 0.4804 0.85197 0.0
C1803 C 0.32859 0.479 0.88165 0.0
C1804 C 0.355 0.49119 0.89006 0.0
C1805 C 0.37458 0.50229 0.86976 0.0
C1806 C 0.29701 0.45059 0.95343 0.0
C1807 C 0.28181 0.42593 0.94496 0.0
C1808 C 0.31037 0.4688 0.93307 0.0
C1809 C 0.30966 0.46282 0.90325 0.0
C1810 C 0.29259 0.43927 0.89478 0.0
C1811 C 0.27899 0.42134 0.91516 0.0
H1812 H 0.63115 0.77184 0.90404 0.0
H1813 H 0.56284 0.73899 0.95649 0.0
H1814 H 0.66622 0.74818 0.9344 0.0
H1815 H 0.59781 0.71603 0.98795 0.0
H1816 H 0.66224 0.64357 1.01174 0.0
H1817 H 0.62715 0.67708 0.99275 0.0
H1818 H 0.6952 0.73623 0.97205 0.0
H1819 H 0.73027 0.70174 0.99032 0.0
C1820 C 0.62353 0.76116 0.92326 0.0
C1821 C 0.59363 0.75865 0.92793 0.0
C1822 C 0.64394 0.74687 0.94074 0.0
C1823 C 0.63566 0.72921 0.96407 0.0
C1824 C 0.60581 0.7286 0.97015 0.0
C1825 C 0.58539 0.74282 0.95248 0.0
C1826 C 0.6697 0.66441 1.00465 0.0
C1827 C 0.69948 0.67003 1.00415 0.0
C1828 C 0.64931 0.68383 0.99314 0.0
C1829 C 0.65752 0.71008 0.9802 0.0
C1830 C 0.68727 0.71644 0.98118 0.0
C1831 C 0.7077 0.69683 0.99265 0.0
H1832 H 0.64774 0.40396 0.26522 0.0
H1833 H 0.59089 0.47258 0.24193 0.0
H1834 H 0.61508 0.36923 0.24426 0.0
H1835 H 0.55733 0.43791 0.22159 0.0
H1836 H 0.52476 0.37468 0.15137 0.0
H1837 H 0.54742 0.40934 0.18291 0.0
H1838 H 0.57621 0.3403 0.2374 0.0
H1839 H 0.55417 0.30574 0.20487 0.0
C1840 C 0.62738 0.41163 0.25711 0.0
C1841 C 0.62193 0.44145 0.25655 0.0
C1842 C 0.60845 0.39145 0.24453 0.0
C1843 C 0.58294 0.39998 0.23044 0.0
C1844 C 0.57664 0.42977 0.23147 0.0
C1845 C 0.59569 0.44995 0.24409 0.0
C1846 C 0.53438 0.36687 0.17102 0.0
C1847 C 0.53609 0.33694 0.17579 0.0
C1848 C 0.5481 0.38703 0.18919 0.0
C1849 C 0.5645 0.37841 0.21325 0.0
C1850 C 0.56453 0.34853 0.21915 0.0
C1851 C 0.55085 0.32838 0.20082 0.0
H1852 H 0.90831 0.28133 0.39154 0.0
H1853 H 0.97803 0.30273 0.44753 0.0
H1854 H 0.87459 0.30439 0.42424 0.0
H1855 H 0.94436 0.32525 0.48104 0.0
H1856 H 0.88433 0.40081 0.50891 0.0
H1857 H 0.91773 0.36717 0.48672 0.0
H1858 H 0.84711 0.31149 0.46559 0.0
H1859 H 0.81378 0.34582 0.4874 0.0
C1860 C 0.91635 0.28943 0.41175 0.0
C1861 C 0.94613 0.28885 0.41708 0.0
C1862 C 0.89684 0.30321 0.43062 0.0
C1863 C 0.90618 0.3174 0.45574 0.0
C1864 C 0.93582 0.3152 0.46198 0.0
C1865 C 0.95532 0.30137 0.44303 0.0
C1866 C 0.87601 0.38073 0.50078 0.0
C1867 C 0.84613 0.37596 0.50098 0.0
C1868 C 0.89533 0.36128 0.4876 0.0
C1869 C 0.88569 0.33613 0.47368 0.0
C1870 C 0.85588 0.33054 0.47545 0.0
C1871 C 0.83656 0.35002 0.48877 0.0
H1872 H 0.88651 0.62693 0.7477 0.0
H1873 H 0.94652 0.55802 0.73546 0.0
H1874 H 0.92077 0.66081 0.72737 0.0
H1875 H 0.98151 0.5919 0.71582 0.0
H1876 H 0.02021 0.64993 0.64453 0.0
H1877 H 0.99283 0.61755 0.67487 0.0
H1878 H 0.96161 0.68975 0.72375 0.0
H1879 H 0.98892 0.7223 0.69247 0.0
C1880 C 0.90764 0.61911 0.74203 0.0
C1881 C 0.91367 0.58946 0.74449 0.0
C1882 C 0.92751 0.63876 0.72993 0.0
C1883 C 0.9545 0.62976 0.71922 0.0
C1884 C 0.96111 0.60027 0.72311 0.0
C1885 C 0.94116 0.58062 0.7353 0.0
C1886 C 1.00847 0.65898 0.66248 0.0
C1887 C 1.00797 0.68908 0.66627 0.0
C1888 C 0.99234 0.64015 0.68006 0.0
C1889 C 0.9744 0.65031 0.70239 0.0
C1890 C 0.97468 0.68047 0.70692 0.0
C1891 C 0.99106 0.6994 0.68926 0.0
H1892 H 0.65964 0.39911 0.53157 0.0
H1893 H 0.72701 0.34365 0.56099 0.0
H1894 H 0.62392 0.36744 0.55293 0.0
H1895 H 0.69151 0.31107 0.58159 0.0
H1896 H 0.62581 0.28176 0.65073 0.0
H1897 H 0.66158 0.30389 0.61984 0.0
H1898 H 0.59502 0.32823 0.56044 0.0
H1899 H 0.55922 0.30691 0.59245 0.0
C1900 C 0.66685 0.37922 0.54118 0.0
C1901 C 0.69655 0.37375 0.54335 0.0
C1902 C 0.64614 0.36092 0.55396 0.0
C1903 C 0.65408 0.33618 0.56977 0.0
C1904 C 0.68383 0.32986 0.57037 0.0
C1905 C 0.7045 0.34829 0.55766 0.0
C1906 C 0.61886 0.2906 0.63041 0.0
C1907 C 0.58931 0.29123 0.62393 0.0
C1908 C 0.63962 0.30379 0.61249 0.0
C1909 C 0.63195 0.31857 0.58707 0.0
C1910 C 0.60245 0.31775 0.57975 0.0
C1911 C 0.58167 0.30459 0.59784 0.0
H1912 H 1.01722 0.37476 0.88346 0.0
H1913 H 0.9802 0.30569 0.83534 0.0
H1914 H 0.99372 0.40947 0.85239 0.0
H1915 H 0.95776 0.34009 0.80298 0.0
H1916 H 0.88645 0.40503 0.77956 0.0
H1917 H 0.91948 0.36996 0.79925 0.0
H1918 H 0.98156 0.43701 0.81341 0.0
H1919 H 0.94743 0.47222 0.79461 0.0
C1920 C 1.00557 0.36682 0.86506 0.0
C1921 C 1.00177 0.33696 0.86171 0.0
C1922 C 0.99149 0.387 0.84716 0.0
C1923 C 0.97288 0.37831 0.82484 0.0
C1924 C 0.97105 0.34835 0.82005 0.0
C1925 C 0.9849 0.32825 0.83819 0.0
C1926 C 0.90766 0.41218 0.7856 0.0
C1927 C 0.9143 0.44167 0.78422 0.0
C1928 C 0.92688 0.39184 0.79734 0.0
C1929 C 0.95387 0.39992 0.80853 0.0
C1930 C 0.96115 0.42932 0.80566 0.0
C1931 C 0.94174 0.44972 0.79396 0.0
H1932 H 0.81106 0.69729 0.0507 0.0
H1933 H 0.88179 0.64902 1.01654 0.0
H1934 H 0.84438 0.72927 0.0751 0.0
H1935 H 0.91534 0.67994 0.04174 0.0
H1936 H 0.97601 0.73856 0.0902 0.0
H1937 H 0.94232 0.71914 0.055 0.0
H1938 H 0.87284 0.73311 0.11479 0.0
H1939 H 0.90645 0.75322 0.14903 0.0
C1940 C 0.83381 0.69435 0.04696 0.0
C1941 C 0.84323 0.6708 0.03032 0.0
C1942 C 0.85326 0.7123 0.06199 0.0
C1943 C 0.8833 0.7075 0.06146 0.0
C1944 C 0.89279 0.68521 0.04305 0.0
C1945 C 0.87329 0.66742 0.02793 0.0
C1946 C 0.95333 0.73899 0.09522 0.0
C1947 C 0.94422 0.74887 0.12242 0.0
C1948 C 0.93378 0.72694 0.07514 0.0
C1949 C 0.90411 0.72387 0.08139 0.0
C1950 C 0.89498 0.73511 0.10815 0.0
C1951 C 0.9145 0.74711 0.12808 0.0
H1952 H 0.58669 0.55848 0.30645 0.0
H1953 H 0.63602 0.62856 0.27277 0.0
H1954 H 0.55481 0.59231 0.33074 0.0
H1955 H 0.60514 0.66256 0.2977 0.0
H1956 H 0.54663 0.72416 0.34499 0.0
H1957 H 0.56561 0.6898 0.31002 0.0
H1958 H 0.5513 0.6212 0.37058 0.0
H1959 H 0.5317 0.65556 0.40474 0.0
C1960 C 0.58987 0.58119 0.30275 0.0
C1961 C 0.61363 0.59032 0.28625 0.0
C1962 C 0.57197 0.60092 0.31769 0.0
C1963 C 0.57706 0.6309 0.31714 0.0
C1964 C 0.59963 0.64008 0.29893 0.0
C1965 C 0.61738 0.62032 0.28396 0.0
C1966 C 0.54605 0.70154 0.35026 0.0
C1967 C 0.53638 0.69291 0.37769 0.0
C1968 C 0.55784 0.68161 0.33032 0.0
C1969 C 0.56073 0.65202 0.33688 0.0
C1970 C 0.54945 0.6433 0.36377 0.0
C1971 C 0.53772 0.66322 0.3836 0.0
H1972 H 0.7591 0.88967 0.63396 0.0
H1973 H 0.74241 0.94808 0.56459 0.0
H1974 H 0.74031 0.92419 0.66814 0.0
H1975 H 0.7246 0.9837 0.59883 0.0
H1976 H 0.65314 1.01825 0.65988 0.0
H1977 H 0.68516 0.99501 0.6259 0.0
H1978 H 0.73656 0.96386 0.6963 0.0
H1979 H 0.70325 0.98612 0.73012 0.0
C1980 C 0.75296 0.91067 0.62612 0.0
C1981 C 0.75318 0.9161 0.59635 0.0
C1982 C 0.74177 0.93071 0.64591 0.0
C1983 C 0.73024 0.95727 0.63685 0.0
C1984 C 0.73253 0.96355 0.60715 0.0
C1985 C 0.74364 0.94331 0.58731 0.0
C1986 C 0.67225 1.00793 0.66811 0.0
C1987 C 0.6759 1.00521 0.69804 0.0
C1988 C 0.69065 0.99396 0.64841 0.0
C1989 C 0.71375 0.97667 0.65774 0.0
C1990 C 0.71888 0.97614 0.6877 0.0
C1991 C 0.70019 0.98987 0.70739 0.0
H1992 H 0.11323 0.34302 0.14616 0.0
H1993 H 0.18565 0.29097 0.169 0.0
H1994 H 0.08998 0.33118 0.19219 0.0
H1995 H 0.16342 0.27961 0.21513 0.0
H1996 H 0.10133 0.23085 0.27233 0.0
H1997 H 0.12639 0.24962 0.23071 0.0
H1998 H 0.08621 0.33216 0.24353 0.0
H1999 H 0.06027 0.31293 0.28503 0.0
C2000 C 0.12453 0.3299 0.16157 0.0
C2001 C 0.15129 0.31815 0.15422 0.0
C2002 C 0.11123 0.3229 0.18789 0.0
C2003 C 0.12438 0.30377 0.20739 0.0
C2004 C 0.15208 0.29368 0.20056 0.0
C2005 C 0.16516 0.30056 0.17432 0.0
C2006 C 0.09781 0.25306 0.26648 0.0
C2007 C 0.07868 0.27026 0.28236 0.0
C2008 C 0.11249 0.26401 0.24256 0.0
C2009 C 0.10879 0.29268 0.23359 0.0
C2010 C 0.08964 0.30998 0.24948 0.0
C2011 C 0.07484 0.29895 0.2735 0.0
H2012 H 0.94263 0.84904 0.39958 0.0
H2013 H 0.98356 0.92915 0.42067 0.0
H2014 H 0.95809 0.82894 0.44465 0.0
H2015 H 0.99645 0.9101 0.46722 0.0
H2016 H 0.97617 0.79839 0.53499 0.0
H2017 H 0.9565 0.82139 0.49232 0.0
H2018 H 0.02595 0.88266 0.49343 0.0
H2019 H 0.04385 0.86125 0.53701 0.0
C2020 C 0.95457 0.86275 0.41393 0.0
C2021 C 0.9613 0.89118 0.4058 0.0
C2022 C 0.96318 0.85116 0.44044 0.0
C2023 C 0.97876 0.86748 0.46049 0.0
C2024 C 0.98496 0.89621 0.4527 0.0
C2025 C 0.97677 0.90767 0.42582 0.0
C2026 C 0.98681 0.81723 0.52656 0.0
C2027 C 1.01148 0.82799 0.54018 0.0
C2028 C 0.97578 0.83032 0.50149 0.0
C2029 C 0.98938 0.85429 0.48857 0.0
C2030 C 1.01406 0.86488 0.50239 0.0
C2031 C 0.02469 0.8522 0.52762 0.0
H2032 H 0.35894 0.70593 0.68328 0.0
H2033 H 0.4368 0.72918 0.63934 0.0
H2034 H 0.38175 0.71703 0.72959 0.0
H2035 H 0.45963 0.7399 0.68496 0.0
H2036 H 0.47923 0.79421 0.76415 0.0
H2037 H 0.45743 0.7769 0.71991 0.0
H2038 H 0.41812 0.7073 0.76672 0.0
H2039 H 0.43954 0.72555 0.81135 0.0
C2040 C 0.38115 0.71258 0.6835 0.0
C2041 C 0.39601 0.71647 0.65739 0.0
C2042 C 0.39429 0.71916 0.71012 0.0
C2043 C 0.4226 0.73 0.71138 0.0
C2044 C 0.43768 0.73242 0.68523 0.0
C2045 C 0.42462 0.72596 0.65889 0.0
C2046 C 0.46622 0.77501 0.76497 0.0
C2047 C 0.46199 0.76076 0.79125 0.0
C2048 C 0.45372 0.76489 0.73946 0.0
C2049 C 0.43609 0.74027 0.7392 0.0
C2050 C 0.4315 0.72622 0.76571 0.0
C2051 C 0.44424 0.73635 0.79131 0.0
H2052 H 0.50944 0.16411 0.04552 0.0
H2053 H 0.55797 0.24063 0.02688 0.0
H2054 H 0.52666 0.1424 1.00085 0.0
H2055 H 0.57461 0.21905 0.98173 0.0
H2056 H 0.55253 0.18308 0.88779 0.0
H2057 H 0.54535 0.20423 0.93534 0.0
H2058 H 0.57518 0.12594 0.97454 0.0
H2059 H 0.58288 0.10495 0.92653 0.0
C2060 C 0.52397 0.17625 0.03204 0.0
C2061 C 0.53223 0.20421 0.0399 0.0
C2062 C 0.53399 0.16369 1.00647 0.0
C2063 C 0.55203 0.17894 0.98766 0.0
C2064 C 0.56072 0.20671 0.99571 0.0
C2065 C 0.55124 0.21904 0.02165 0.0
C2066 C 0.55818 0.17064 0.90658 0.0
C2067 C 0.56868 0.14251 0.90337 0.0
C2068 C 0.55406 0.18274 0.93382 0.0
C2069 C 0.55969 0.16683 0.95881 0.0
C2070 C 0.57071 0.1388 0.95571 0.0
C2071 C 0.57542 0.12687 0.92828 0.0
H2072 H 0.0634 0.72574 0.24846 0.0
H2073 H 0.09978 0.80888 0.26643 0.0
H2074 H 0.08777 0.70588 0.29012 0.0
H2075 H 0.12422 0.78887 0.30823 0.0
H2076 H 0.14637 0.75018 0.39573 0.0
H2077 H 0.11615 0.76883 0.35674 0.0
H2078 H 0.13625 0.69395 0.30599 0.0
H2079 H 0.16635 0.67579 0.34495 0.0
C2080 C 0.07681 0.73983 0.26103 0.0
C2081 C 0.07992 0.76896 0.25344 0.0
C2082 C 0.0908 0.72835 0.28512 0.0
C2083 C 0.10808 0.74565 0.30274 0.0
C2084 C 0.11089 0.77487 0.29544 0.0
C2085 C 0.09709 0.78631 0.27117 0.0
C2086 C 0.14351 0.73744 0.37653 0.0
C2087 C 0.15826 0.71134 0.37349 0.0
C2088 C 0.1266 0.74826 0.35399 0.0
C2089 C 0.12387 0.7331 0.32793 0.0
C2090 C 0.13757 0.70623 0.32566 0.0
C2091 C 0.15474 0.69569 0.348 0.0
H2092 H 0.5185 0.87915 0.47614 0.0
H2093 H 0.52726 0.80367 0.52857 0.0
H2094 H 0.53578 0.90885 0.51565 0.0
H2095 H 0.54558 0.8331 0.56811 0.0
H2096 H 0.5458 0.89939 0.6432 0.0
H2097 H 0.53163 0.86758 0.60391 0.0
H2098 H 0.57578 0.92241 0.54361 0.0
H2099 H 0.58968 0.95404 0.58295 0.0
C2100 C 0.52404 0.86892 0.49622 0.0
C2101 C 0.521 0.83911 0.49931 0.0
C2102 C 0.53441 0.88591 0.5189 0.0
C2103 C 0.54212 0.87366 0.54553 0.0
C2104 C 0.53951 0.84361 0.54832 0.0
C2105 C 0.52918 0.82663 0.52555 0.0
C2106 C 0.55299 0.90428 0.62164 0.0
C2107 C 0.5693 0.92916 0.61643 0.0
C2108 C 0.54477 0.88605 0.59894 0.0
C2109 C 0.55231 0.89222 0.57019 0.0
C2110 C 0.56898 0.91695 0.56517 0.0
C2111 C 0.57718 0.9351 0.58783 0.0
H2112 H 0.39293 0.30601 0.895 0.0
H2113 H 0.32879 0.32569 0.83144 0.0
H2114 H 0.42625 0.29166 0.85668 0.0
H2115 H 0.36173 0.31005 0.79342 0.0
H2116 H 0.427 0.22783 0.75961 0.0
H2117 H 0.39656 0.24655 0.79816 0.0
H2118 H 0.43993 0.32783 0.79332 0.0
H2119 H 0.47015 0.30953 0.75405 0.0
C2120 C 0.38606 0.30795 0.87294 0.0
C2121 C 0.35814 0.31767 0.86649 0.0
C2122 C 0.40512 0.2994 0.85098 0.0
C2123 C 0.39664 0.29985 0.82203 0.0
C2124 C 0.36892 0.30961 0.8155 0.0
C2125 C 0.35002 0.31847 0.83736 0.0
C2126 C 0.43009 0.24976 0.76648 0.0
C2127 C 0.45102 0.26714 0.75319 0.0
C2128 C 0.41265 0.26042 0.78874 0.0
C2129 C 0.41586 0.28862 0.79879 0.0
C2130 C 0.43699 0.30598 0.78603 0.0
C2131 C 0.45427 0.29543 0.76347 0.0
H2132 H 0.057 0.18443 1.01271 0.0
H2133 H 0.97553 0.22641 0.99991 0.0
H2134 H 0.03775 0.15945 0.05434 0.0
H2135 H 0.95584 0.20057 0.04106 0.0
H2136 H 0.99283 0.1041 0.12126 0.0
H2137 H 1.00815 0.12407 0.07505 0.0
H2138 H 0.95641 0.19931 0.0909 0.0
H2139 H 0.94062 0.17891 0.13589 0.0
C2140 C 0.03482 0.1882 1.01854 0.0
C2141 C 1.018 0.2078 1.00271 0.0
C2142 C 0.02361 0.17352 0.04249 0.0
C2143 C 0.99507 0.17775 0.05162 0.0
C2144 C 0.97804 0.19688 0.03534 0.0
C2145 C 0.98931 0.21167 1.0114 0.0
C2146 C 0.98395 0.1244 0.11445 0.0
C2147 C 0.96478 0.13944 0.13242 0.0
C2148 C 0.9932 0.13626 0.08801 0.0
C2149 C 0.98369 0.16359 0.07872 0.0
C2150 C 0.96403 0.17811 0.09652 0.0
C2151 C 0.9549 0.16633 0.12271 0.0
H2152 H 0.17464 0.17507 0.33651 0.0
H2153 H 0.13197 0.09974 0.30445 0.0
H2154 H 0.22136 0.15294 0.32529 0.0
H2155 H 0.17821 0.07849 0.29204 0.0
H2156 H 0.26054 0.07926 0.23283 0.0
H2157 H 0.21626 0.09967 0.25222 0.0
H2158 H 0.2533 0.10133 0.33681 0.0
H2159 H 0.29767 0.07995 0.31757 0.0
C2160 C 0.17515 0.15355 0.32788 0.0
C2161 C 0.14937 0.13922 0.32146 0.0
C2162 C 0.20194 0.14097 0.32117 0.0
C2163 C 0.20349 0.11408 0.3074 0.0
C2164 C 0.17781 0.09931 0.30232 0.0
C2165 C 0.15128 0.11153 0.30948 0.0
C2166 C 0.25938 0.08387 0.25558 0.0
C2167 C 0.28282 0.07776 0.27355 0.0
C2168 C 0.23392 0.09558 0.26671 0.0
C2169 C 0.23122 0.1022 0.29606 0.0
C2170 C 0.25474 0.09662 0.31409 0.0
C2171 C 0.2801 0.08421 0.30304 0.0
H2172 H 0.19178 0.02112 0.47806 0.0
H2173 H 0.23182 0.03604 0.56012 0.0
H2174 H 0.16907 0.97808 0.49707 0.0
H2175 H 0.20971 0.99257 0.57896 0.0
H2176 H 0.13589 0.93677 0.61284 0.0
H2177 H 0.16411 0.97611 0.59349 0.0
H2178 H 0.17414 0.92982 0.51376 0.0
H2179 H 0.14418 0.89105 0.53295 0.0
C2180 C 0.19605 1.01507 0.50008 0.0
C2181 C 0.21349 0.03236 0.51758 0.0
C2182 C 0.18313 0.99016 0.51097 0.0
C2183 C 0.18735 0.98166 0.53967 0.0
C2184 C 0.20546 0.99857 0.55692 0.0
C2185 C 0.21827 0.02354 0.54607 0.0
C2186 C 0.14446 0.93486 0.59129 0.0
C2187 C 0.13814 0.91057 0.57463 0.0
C2188 C 0.16084 0.95739 0.58018 0.0
C2189 C 0.17168 0.95634 0.55199 0.0
C2190 C 0.16606 0.93158 0.5355 0.0
C2191 C 0.14935 0.90904 0.54664 0.0
H2192 H 0.33921 0.86621 0.8627 0.0
H2193 H 0.39347 0.89058 0.79199 0.0
H2194 H 0.30033 0.89569 0.84347 0.0
H2195 H 0.35452 0.92024 0.77229 0.0
H2196 H 0.26586 0.93605 0.72849 0.0
H2197 H 0.30726 0.91164 0.74946 0.0
H2198 H 0.28408 0.94434 0.83302 0.0
H2199 H 0.24275 0.96852 0.81226 0.0
C2200 C 0.34294 0.87853 0.84334 0.0
C2201 C 0.3694 0.87645 0.82904 0.0
C2202 C 0.32067 0.89539 0.83222 0.0
C2203 C 0.32406 0.91025 0.8061 0.0
C2204 C 0.35097 0.90887 0.79225 0.0
C2205 C 0.37344 0.89226 0.80368 0.0
C2206 C 0.26947 0.93795 0.75136 0.0
C2207 C 0.25059 0.95415 0.76859 0.0
C2208 C 0.29346 0.92417 0.76337 0.0
C2209 C 0.2992 0.926 0.793 0.0
C2210 C 0.28031 0.94217 0.8102 0.0
C2211 C 0.2565 0.9561 0.7982 0.0
H2212 H 0.39192 0.14373 0.04025 0.0
H2213 H 0.41199 0.09461 0.11579 0.0
H2214 H 0.36225 0.10403 0.02249 0.0
H2215 H 0.38282 0.05494 0.09833 0.0
H2216 H 0.31372 0.99328 0.0675 0.0
H2217 H 0.33598 0.0365 0.08689 0.0
H2218 H 0.3707 0.05613 1.00315 0.0
H2219 H 0.34828 1.01314 0.98374 0.0
C2220 C 0.38926 0.12479 0.05343 0.0
C2221 C 0.40399 0.12243 0.07959 0.0
C2222 C 0.37266 0.10179 0.0431 0.0
C2223 C 0.37022 0.07595 0.05878 0.0
C2224 C 0.38386 0.07437 0.08564 0.0
C2225 C 0.40062 0.09715 0.09572 0.0
C2226 C 0.32601 1.00684 0.05315 0.0
C2227 C 0.32912 0.9995 0.02396 0.0
C2228 C 0.33889 0.03168 0.06433 0.0
C2229 C 0.35513 0.05014 0.04664 0.0
C2230 C 0.35801 0.04288 1.01742 0.0
C2231 C 0.34532 1.01795 1.0063 0.0
H2232 H 0.1565 0.92473 0.17727 0.0
H2233 H 0.16285 0.86125 0.24392 0.0
H2234 H 0.2009 0.94671 0.19325 0.0
H2235 H 0.20864 0.88152 0.25881 0.0
H2236 H 0.29065 0.97586 0.21863 0.0
H2237 H 0.24969 0.94993 0.19884 0.0
H2238 H 0.22914 0.91816 0.28359 0.0
H2239 H 0.27051 0.94259 0.30272 0.0
C2240 C 0.16774 0.91513 0.19509 0.0
C2241 C 0.15577 0.89121 0.20921 0.0
C2242 C 0.19362 0.92759 0.2042 0.0
C2243 C 0.20891 0.91646 0.22781 0.0
C2244 C 0.19758 0.89152 0.24105 0.0
C2245 C 0.1714 0.87928 0.23207 0.0
C2246 C 0.27753 0.96314 0.23298 0.0
C2247 C 0.28434 0.96149 0.26239 0.0
C2248 C 0.25367 0.94828 0.22164 0.0
C2249 C 0.23549 0.93148 0.23935 0.0
C2250 C 0.24249 0.93002 0.26875 0.0
C2251 C 0.26639 0.9445 0.27993 0.0
H2252 H 0.35227 0.02821 0.55241 0.0
H2253 H 0.30974 0.04045 0.47166 0.0
H2254 H 0.37681 0.98665 0.53348 0.0
H2255 H 0.33671 1.00101 0.451 0.0
H2256 H 0.36587 0.91092 0.42748 0.0
H2257 H 0.34387 0.95504 0.444 0.0
H2258 H 0.40953 0.96227 0.50915 0.0
H2259 H 0.42882 0.91603 0.4943 0.0
C2260 C 0.34861 0.02251 0.53019 0.0
C2261 C 0.32915 0.03837 0.51337 0.0
C2262 C 0.36317 0.99854 0.51901 0.0
C2263 C 0.35944 0.98969 0.49025 0.0
C2264 C 0.34031 1.0061 0.47332 0.0
C2265 C 0.32512 0.02953 0.48489 0.0
C2266 C 0.37524 0.92194 0.44554 0.0
C2267 C 0.39869 0.9096 0.45977 0.0
C2268 C 0.36295 0.94779 0.45492 0.0
C2269 C 0.37423 0.96294 0.47859 0.0
C2270 C 0.39916 0.95136 0.49157 0.0
C2271 C 0.41092 0.92495 0.48258 0.0
H2272 H 0.24422 0.06781 0.72099 0.0
H2273 H 0.2708 0.09177 0.80631 0.0
H2274 H 0.28397 0.09486 0.70075 0.0
H2275 H 0.31157 0.11715 0.78641 0.0
H2276 H 0.37611 0.11855 0.67489 0.0
H2277 H 0.33209 0.09629 0.69214 0.0
H2278 H 0.33026 0.15596 0.76324 0.0
H2279 H 0.3758 0.17591 0.74704 0.0
C2280 C 0.25856 0.07876 0.73551 0.0
C2281 C 0.25397 0.07761 0.76537 0.0
C2282 C 0.28173 0.09418 0.72387 0.0
C2283 C 0.30145 0.10854 0.74173 0.0
C2284 C 0.29679 0.10718 0.77163 0.0
C2285 C 0.27339 0.09221 0.7832 0.0
C2286 C 0.36607 0.12682 0.69412 0.0
C2287 C 0.3794 0.14896 0.70948 0.0
C2288 C 0.34056 0.11431 0.70399 0.0
C2289 C 0.32728 0.12385 0.72952 0.0
C2290 C 0.33991 0.14728 0.74396 0.0
C2291 C 0.36576 0.15941 0.73427 0.0
H2292 H 0.18762 0.14619 0.96051 0.0
H2293 H 0.10288 0.11395 0.97669 0.0
H2294 H 0.20809 0.09959 0.97209 0.0
H2295 H 0.12295 0.06645 0.98704 0.0
H2296 H 0.17145 0.99811 0.04044 0.0
H2297 H 0.14842 0.04136 0.02241 0.0
H2298 H 0.21699 0.05187 0.96072 0.0
H2299 H 0.24088 1.00953 0.98039 0.0
C2300 C 0.1733 0.12872 0.96555 0.0
C2301 C 0.14361 0.13375 0.96667 0.0
C2302 C 0.18501 0.1018 0.97216 0.0
C2303 C 0.1674 0.07869 0.98036 0.0
C2304 C 0.13745 0.08353 0.98101 0.0
C2305 C 0.12575 0.11071 0.97448 0.0
C2306 C 0.18155 1.00953 0.02286 0.0
C2307 C 0.20789 0.99986 1.0115 0.0
C2308 C 0.16811 0.03436 1.01225 0.0
C2309 C 0.18054 0.05055 0.98989 0.0
C2310 C 0.20665 0.04044 0.97811 0.0
C2311 C 0.22019 1.01567 0.98893 0.0
H2312 H 0.31366 0.29336 0.05955 0.0
H2313 H 0.22856 0.26464 0.08195 0.0
H2314 H 0.33401 0.25192 0.08466 0.0
H2315 H 0.24881 0.22347 0.10682 0.0
H2316 H 0.29117 0.13977 0.13344 0.0
H2317 H 0.27454 0.17781 0.10088 0.0
H2318 H 0.33944 0.23451 0.13424 0.0
H2319 H 0.35566 0.19649 0.1666 0.0
C2320 C 0.29923 0.27827 0.06972 0.0
C2321 C 0.26935 0.28275 0.06878 0.0
C2322 C 0.31093 0.25444 0.0842 0.0
C2323 C 0.29314 0.2341 0.09787 0.0
C2324 C 0.26329 0.23829 0.09632 0.0
C2325 C 0.25163 0.2622 0.08215 0.0
C2326 C 0.30229 0.16012 0.13314 0.0
C2327 C 0.3249 0.16507 0.15235 0.0
C2328 C 0.29258 0.1821 0.11478 0.0
C2329 C 0.30543 0.20952 0.11495 0.0
C2330 C 0.32905 0.2138 0.1332 0.0
C2331 C 0.33841 0.192 0.15178 0.0
H2332 H 0.85491 0.3766 0.92247 0.0
H2333 H 0.78734 0.37489 0.8597 0.0
H2334 H 0.83701 0.33212 0.94343 0.0
H2335 H 0.76936 0.33003 0.88054 0.0
H2336 H 0.75786 0.23611 0.9143 0.0
H2337 H 0.77724 0.27853 0.88989 0.0
H2338 H 0.79718 0.31587 0.97215 0.0
H2339 H 0.77727 0.27371 0.99624 0.0
C2340 C 0.83637 0.36653 0.91287 0.0
C2341 C 0.82287 0.37946 0.88909 0.0
C2342 C 0.82589 0.341 0.92508 0.0
C2343 C 0.80137 0.32727 0.91409 0.0
C2344 C 0.7884 0.33962 0.88962 0.0
C2345 C 0.79888 0.36537 0.87741 0.0
C2346 C 0.76586 0.2536 0.92713 0.0
C2347 C 0.76565 0.2515 0.95728 0.0
C2348 C 0.77722 0.27798 0.91312 0.0
C2349 C 0.789 0.30098 0.92883 0.0
C2350 C 0.78879 0.29867 0.95907 0.0
C2351 C 0.77722 0.27446 0.973 0.0
H2352 H 0.93654 0.61404 0.13966 0.0
H2353 H 0.89275 0.53291 0.14335 0.0
H2354 H 0.97612 0.59423 0.16714 0.0
H2355 H 0.93195 0.51305 0.1723 0.0
H2356 H 0.02372 0.47845 0.18931 0.0
H2357 H 0.9811 0.498 0.1662 0.0
H2358 H 0.9925 0.57756 0.21213 0.0
H2359 H 0.03538 0.55826 0.23474 0.0
C2360 C 0.93506 0.59209 0.14712 0.0
C2361 C 0.91128 0.57522 0.13962 0.0
C2362 C 0.95777 0.58069 0.16301 0.0
C2363 C 0.95748 0.55193 0.17212 0.0
C2364 C 0.93315 0.53521 0.1655 0.0
C2365 C 0.91035 0.54671 0.14938 0.0
C2366 C 1.0172 0.50015 0.19448 0.0
C2367 C 0.03334 0.51678 0.2138 0.0
C2368 C 0.99248 0.5113 0.18139 0.0
C2369 C 0.98307 0.53943 0.18722 0.0
C2370 C 0.99914 0.55597 0.2067 0.0
C2371 C 0.02386 0.54485 0.21975 0.0
H2372 H 0.66398 0.68239 0.39671 0.0
H2373 H 0.74438 0.63802 0.40598 0.0
H2374 H 0.68202 0.72216 0.42509 0.0
H2375 H 0.7626 0.67749 0.43535 0.0
H2376 H 0.79856 0.76886 0.44609 0.0
H2377 H 0.77887 0.72467 0.42698 0.0
H2378 H 0.69772 0.74332 0.46791 0.0
H2379 H 0.7173 0.78824 0.48629 0.0
C2380 C 0.68525 0.68075 0.40578 0.0
C2381 C 0.70261 0.65693 0.39928 0.0
C2382 C 0.69571 0.70364 0.4221 0.0
C2383 C 0.72407 0.70354 0.43235 0.0
C2384 C 0.74086 0.67875 0.42741 0.0
C2385 C 0.73027 0.65576 0.41103 0.0
C2386 C 0.77652 0.76357 0.45117 0.0
C2387 C 0.75953 0.7824 0.46766 0.0
C2388 C 0.76524 0.73791 0.44038 0.0
C2389 C 0.7366 0.73002 0.44586 0.0
C2390 C 0.71973 0.74865 0.46282 0.0
C2391 C 0.731 0.77447 0.47349 0.0
H2392 H 0.10506 0.94994 0.10491 0.0
H2393 H 0.14735 0.98422 0.1795 0.0
H2394 H 0.05816 0.96145 0.1268 0.0
H2395 H 0.10091 0.99623 0.20077 0.0
H2396 H 1.01237 0.05409 0.18484 0.0
H2397 H 0.05463 0.03384 0.16109 0.0
H2398 H 0.03613 0.95111 0.19772 0.0
H2399 H 0.99382 0.97114 0.22187 0.0
C2400 C 0.10438 0.9591 0.12624 0.0
C2401 C 0.13001 0.96604 0.14049 0.0
C2402 C 0.07758 0.96593 0.13863 0.0
C2403 C 0.07601 0.97988 0.1654 0.0
C2404 C 0.10151 0.98558 0.18012 0.0
C2405 C 0.12806 0.9787 0.16789 0.0
C2406 C 1.01684 0.03146 0.18753 0.0
C2407 C 0.99926 1.01433 0.20522 0.0
C2408 C 0.0411 0.01989 0.17386 0.0
C2409 C 0.0484 0.99086 0.17727 0.0
C2410 C 0.03072 0.97346 0.19439 0.0
C2411 C 1.00648 0.98505 0.20825 0.0
H2412 H 0.18465 0.88149 0.60849 0.0
H2413 H 0.23998 0.86957 0.68138 0.0
H2414 H 0.20096 0.83606 0.58856 0.0
H2415 H 0.25443 0.82282 0.66274 0.0
H2416 H 0.22186 0.74511 0.56247 0.0
H2417 H 0.20134 0.78629 0.58783 0.0
H2418 H 0.28322 0.80203 0.62787 0.0
H2419 H 0.30302 0.7605 0.60389 0.0
C2420 C 0.19972 0.86879 0.62072 0.0
C2421 C 0.21063 0.8794 0.64682 0.0
C2422 C 0.20882 0.84239 0.60939 0.0
C2423 C 0.22895 0.8252 0.62384 0.0
C2424 C 0.23914 0.83531 0.65056 0.0
C2425 C 0.23033 0.86206 0.66174 0.0
C2426 C 0.23536 0.75714 0.57696 0.0
C2427 C 0.26421 0.74915 0.58091 0.0
C2428 C 0.22366 0.78108 0.59143 0.0
C2429 C 0.24049 0.79805 0.6101 0.0
C2430 C 0.26916 0.7896 0.61429 0.0
C2431 C 0.2807 0.76565 0.60013 0.0
H2432 H 0.03244 0.47936 0.30648 0.0
H2433 H 0.03663 0.54691 0.36969 0.0
H2434 H 0.98947 0.46036 0.32987 0.0
H2435 H 0.99393 0.52721 0.39354 0.0
H2436 H 0.92801 0.46411 0.4393 0.0
H2437 H 0.97557 0.47623 0.41928 0.0
H2438 H 0.93773 0.48682 0.33563 0.0
H2439 H 0.89055 0.47574 0.35578 0.0
C2440 C 0.02453 0.48992 0.32564 0.0
C2441 C 0.03802 0.51484 0.33606 0.0
C2442 C 0.99986 0.47899 0.33901 0.0
C2443 C 0.98837 0.49222 0.3636 0.0
C2444 C 1.00244 0.51641 0.37477 0.0
C2445 C 0.02679 0.52779 0.36099 0.0
C2446 C 0.93014 0.46825 0.41652 0.0
C2447 C 0.9057 0.46835 0.39894 0.0
C2448 C 0.95721 0.47552 0.40514 0.0
C2449 C 0.96039 0.48241 0.37584 0.0
C2450 C 0.93608 0.48141 0.35819 0.0
C2451 C 0.9091 0.47488 0.36966 0.0
H2452 H 0.62554 0.60659 0.86596 0.0
H2453 H 0.62721 0.53735 0.92706 0.0
H2454 H 0.58266 0.58691 0.84434 0.0
H2455 H 0.5854 0.51596 0.90396 0.0
H2456 H 0.49254 0.49902 0.87477 0.0
H2457 H 0.53626 0.51736 0.897 0.0
H2458 H 0.56158 0.55419 0.81558 0.0
H2459 H 0.51731 0.53713 0.79422 0.0
C2460 C 0.61701 0.58677 0.87446 0.0
C2461 C 0.63021 0.57362 0.89819 0.0
C2462 C 0.5924 0.57514 0.86177 0.0
C2463 C 0.58005 0.5495 0.87198 0.0
C2464 C 0.5937 0.53587 0.89542 0.0
C2465 C 0.61826 0.54783 0.90843 0.0
C2466 C 0.50741 0.51128 0.86177 0.0
C2467 C 0.50104 0.51707 0.83283 0.0
C2468 C 0.53279 0.52163 0.87445 0.0
C2469 C 0.55297 0.53766 0.85843 0.0
C2470 C 0.54664 0.54279 0.82921 0.0
C2471 C 0.52113 0.53284 0.81675 0.0
H2472 H 0.54 0.80016 0.77872 0.0
H2473 H 0.62132 0.7658 0.8057 0.0
H2474 H 0.56289 0.82111 0.73633 0.0
H2475 H 0.64411 0.78533 0.76273 0.0
H2476 H 0.60455 0.8171 0.64612 0.0
H2477 H 0.58153 0.80683 0.69189 0.0
H2478 H 0.66089 0.82527 0.73564 0.0
H2479 H 0.68408 0.83467 0.6891 0.0
C2480 C 0.5629 0.79755 0.77587 0.0
C2481 C 0.57886 0.78184 0.79602 0.0
C2482 C 0.57606 0.80917 0.75124 0.0
C2483 C 0.60559 0.80508 0.74571 0.0
C2484 C 0.62154 0.78956 0.76618 0.0
C2485 C 0.60837 0.77805 0.79082 0.0
C2486 C 0.61689 0.81957 0.6656 0.0
C2487 C 0.6461 0.82688 0.66391 0.0
C2488 C 0.60365 0.81375 0.69203 0.0
C2489 C 0.61918 0.81491 0.71788 0.0
C2490 C 0.64818 0.82365 0.71632 0.0
C2491 C 0.66146 0.82955 0.68968 0.0
H2492 H 0.43201 0.36203 0.91446 0.0
H2493 H 0.49784 0.42657 0.91661 0.0
H2494 H 0.45054 0.3409 0.95816 0.0
H2495 H 0.5182 0.40405 0.95944 0.0
H2496 H 0.53332 0.37342 0.05246 0.0
H2497 H 0.51492 0.39587 1.00869 0.0
H2498 H 0.48444 0.31328 0.97998 0.0
H2499 H 0.50204 0.29149 0.02401 0.0
C2500 C 0.45079 0.37153 0.92406 0.0
C2501 C 0.46333 0.39604 0.91158 0.0
C2502 C 0.46181 0.35909 0.94919 0.0
C2503 C 0.48626 0.37033 0.96289 0.0
C2504 C 0.49922 0.39466 0.95009 0.0
C2505 C 0.48786 0.40738 0.92497 0.0
C2506 C 0.52234 0.36019 0.03689 0.0
C2507 C 0.51836 0.33074 0.04232 0.0
C2508 C 0.51198 0.37302 1.01147 0.0
C2509 C 0.49774 0.35674 0.99027 0.0
C2510 C 0.49439 0.32709 0.9957 0.0
C2511 C 0.50447 0.31441 0.02118 0.0
H2512 H 0.93851 0.31184 0.27122 0.0
H2513 H 0.96062 0.22528 0.29526 0.0
H2514 H 0.9114 0.29382 0.23092 0.0
H2515 H 0.93159 0.20685 0.25629 0.0
H2516 H 0.90197 0.18348 0.1646 0.0
H2517 H 0.92554 0.1978 0.20914 0.0
H2518 H 0.87195 0.27344 0.21262 0.0
H2519 H 0.85067 0.26 0.16699 0.0
C2520 C 0.93707 0.28884 0.26836 0.0
C2521 C 0.95155 0.27015 0.28708 0.0
C2522 C 0.92111 0.2783 0.24516 0.0
C2523 C 0.91849 0.24856 0.24001 0.0
C2524 C 0.93298 0.22985 0.2589 0.0
C2525 C 0.94949 0.24048 0.28177 0.0
C2526 C 0.89529 0.20303 0.17509 0.0
C2527 C 0.87493 0.22086 0.16199 0.0
C2528 C 0.9087 0.21133 0.20084 0.0
C2529 C 0.9017 0.23752 0.2145 0.0
C2530 C 0.87924 0.25387 0.2025 0.0
C2531 C 0.86644 0.24588 0.17653 0.0
H2532 H 0.9917 0.71785 0.5092 0.0
H2533 H 0.07291 0.70615 0.55166 0.0
H2534 H 1.01153 0.69654 0.46549 0.0
H2535 H 0.09258 0.68386 0.50784 0.0
H2536 H 0.0888 0.61154 0.42867 0.0
H2537 H 0.07776 0.63492 0.47483 0.0
H2538 H 0.05502 0.71247 0.42995 0.0
H2539 H 0.06723 0.68975 0.3843 0.0
C2540 C 1.01382 0.71074 0.50924 0.0
C2541 C 0.03072 0.71393 0.53399 0.0
C2542 C 0.02519 0.69852 0.48414 0.0
C2543 C 0.05363 0.68845 0.48316 0.0
C2544 C 0.07058 0.6913 0.50794 0.0
C2545 C 0.05936 0.70425 0.53294 0.0
C2546 C 0.08258 0.63389 0.42876 0.0
C2547 C 0.07899 0.64875 0.40266 0.0
C2548 C 0.07598 0.64723 0.45519 0.0
C2549 C 0.06515 0.67546 0.45602 0.0
C2550 C 0.063 0.69064 0.43008 0.0
C2551 C 0.07004 0.67759 0.40391 0.0
H2552 H 0.61137 0.18021 0.88011 0.0
H2553 H 0.67419 0.24747 0.87837 0.0
H2554 H 0.59139 0.19728 0.83499 0.0
H2555 H 0.65585 0.26375 0.83205 0.0
H2556 H 0.59387 0.30837 0.76991 0.0
H2557 H 0.61787 0.28875 0.81177 0.0
H2558 H 0.59365 0.20326 0.78569 0.0
H2559 H 0.56867 0.22315 0.74434 0.0
C2560 C 0.62127 0.19833 0.86964 0.0
C2561 C 0.64443 0.21225 0.88285 0.0
C2562 C 0.61003 0.2081 0.84349 0.0
C2563 C 0.6217 0.23222 0.82943 0.0
C2564 C 0.64576 0.24547 0.84217 0.0
C2565 C 0.65682 0.23574 0.86856 0.0
C2566 C 0.59381 0.28534 0.7729 0.0
C2567 C 0.57921 0.26747 0.75347 0.0
C2568 C 0.60784 0.27395 0.79702 0.0
C2569 C 0.60798 0.2442 0.80257 0.0
C2570 C 0.5938 0.22628 0.78275 0.0
C2571 C 0.57955 0.23772 0.75873 0.0
H2572 H 0.05015 0.34705 0.16121 0.0
H2573 H 0.07968 0.42229 0.11612 0.0
H2574 H 0.03609 0.32532 0.11606 0.0
H2575 H 0.06644 0.39973 0.07034 0.0
H2576 H 0.05964 0.33234 0.99316 0.0
H2577 H 0.07724 0.35539 0.03699 0.0
H2578 H 0.99733 0.33602 0.07945 0.0
H2579 H 0.97951 0.31347 0.03558 0.0
C2580 C 0.05406 0.35893 0.14164 0.0
C2581 C 0.0664 0.38654 0.14275 0.0
C2582 C 0.04584 0.34638 0.11561 0.0
C2583 C 0.04975 0.36076 0.0894 0.0
C2584 C 0.06318 0.3879 0.09008 0.0
C2585 C 0.07111 0.40077 0.11641 0.0
C2586 C 0.04575 0.33296 1.01182 0.0
C2587 C 1.01806 0.32081 1.01066 0.0
C2588 C 0.05584 0.34641 0.03695 0.0
C2589 C 0.03882 0.34761 0.06193 0.0
C2590 C 1.0112 0.33537 0.06077 0.0
C2591 C 1.0009 0.32245 0.03552 0.0
H2592 H 0.97098 0.81317 0.24787 0.0
H2593 H 0.93753 0.72929 0.26846 0.0
H2594 H 0.94762 0.83286 0.29047 0.0
H2595 H 0.91423 0.74906 0.31104 0.0
H2596 H 0.86881 0.85934 0.3488 0.0
H2597 H 0.89879 0.843 0.30869 0.0
H2598 H 0.92503 0.76963 0.35878 0.0
H2599 H 0.89501 0.78645 0.39884 0.0
C2600 C 0.95848 0.79889 0.26126 0.0
C2601 C 0.95593 0.76958 0.25425 0.0
C2602 C 0.9451 0.81025 0.28582 0.0
C2603 C 0.9291 0.79259 0.30439 0.0
C2604 C 0.9267 0.76328 0.29752 0.0
C2605 C 0.93983 0.75198 0.27282 0.0
C2606 C 0.88182 0.84028 0.35143 0.0
C2607 C 0.88004 0.82438 0.37698 0.0
C2608 C 0.89887 0.83076 0.32845 0.0
C2609 C 0.9141 0.80472 0.33025 0.0
C2610 C 0.91332 0.78955 0.35644 0.0
C2611 C 0.89653 0.79934 0.37956 0.0
H2612 H 0.47652 0.72962 0.50447 0.0
H2613 H 0.56001 0.6921 0.51825 0.0
H2614 H 0.45742 0.70205 0.54487 0.0
H2615 H 0.54124 0.6653 0.5589 0.0
H2616 H 0.49922 0.60062 0.61528 0.0
H2617 H 0.512 0.62601 0.57121 0.0
H2618 H 0.45694 0.69631 0.59634 0.0
H2619 H 0.44368 0.66989 0.64014 0.0
C2620 C 0.4909 0.71561 0.51612 0.0
C2621 C 0.51991 0.71312 0.50776 0.0
C2622 C 0.47991 0.69983 0.53949 0.0
C2623 C 0.49755 0.68099 0.55525 0.0
C2624 C 0.52664 0.67892 0.54707 0.0
C2625 C 0.53758 0.69463 0.52378 0.0
C2626 C 0.48916 0.62107 0.61079 0.0
C2627 C 0.47011 0.63308 0.63087 0.0
C2628 C 0.49687 0.63598 0.58579 0.0
C2629 C 0.48614 0.66371 0.58022 0.0
C2630 C 0.46572 0.67506 0.59963 0.0
C2631 C 0.45789 0.65993 0.62469 0.0
H2632 H 0.77065 0.59811 0.72499 0.0
H2633 H 0.7864 0.55748 0.80675 0.0
H2634 H 0.72897 0.62248 0.74534 0.0
H2635 H 0.74435 0.58096 0.82674 0.0
H2636 H 0.6422 0.64756 0.783 0.0
H2637 H 0.68094 0.61796 0.76281 0.0
H2638 H 0.72754 0.62579 0.84243 0.0
H2639 H 0.68851 0.65433 0.86241 0.0
C2640 C 0.76539 0.59442 0.74733 0.0
C2641 C 0.78251 0.57617 0.76424 0.0
C2642 C 0.7411 0.60813 0.75896 0.0
C2643 C 0.73302 0.6039 0.78785 0.0
C2644 C 0.74996 0.58531 0.8046 0.0
C2645 C 0.77423 0.57171 0.79302 0.0
C2646 C 0.66037 0.64209 0.79633 0.0
C2647 C 0.66218 0.65291 0.8244 0.0
C2648 C 0.68287 0.62557 0.78466 0.0
C2649 C 0.70777 0.61951 0.80078 0.0
C2650 C 0.70882 0.62952 0.82929 0.0
C2651 C 0.68643 0.64598 0.84083 0.0
H2652 H 0.66935 0.54164 0.99446 0.0
H2653 H 0.74045 0.52822 0.05187 0.0
H2654 H 0.64588 0.49891 1.01356 0.0
H2655 H 0.71773 0.4851 0.07026 0.0
H2656 H 0.65941 0.42591 0.11927 0.0
H2657 H 0.68189 0.46753 0.09894 0.0
H2658 H 0.64357 0.44869 1.01685 0.0
H2659 H 0.61906 0.40764 0.03803 0.0
C2660 C 0.68012 0.52947 1.01102 0.0
C2661 C 0.70689 0.53858 0.02154 0.0
C2662 C 0.66669 0.5047 0.02192 0.0
C2663 C 0.67966 0.48808 0.04363 0.0
C2664 C 0.7065 0.49733 0.05405 0.0
C2665 C 0.71973 0.52221 0.04338 0.0
C2666 C 0.65568 0.4302 0.09679 0.0
C2667 C 0.63773 0.41224 0.08038 0.0
C2668 C 0.66902 0.45432 0.08492 0.0
C2669 C 0.66519 0.46174 0.05591 0.0
C2670 C 0.64718 0.44398 0.03929 0.0
C2671 C 0.6335 0.41977 0.05136 0.0
H2672 H 0.87793 0.4224 0.36297 0.0
H2673 H 0.87598 0.36321 0.2923 0.0
H2674 H 0.83367 0.44457 0.3464 0.0
H2675 H 0.83042 0.38375 0.27646 0.0
H2676 H 0.769 0.44738 0.23438 0.0
H2677 H 0.81074 0.42275 0.25322 0.0
H2678 H 0.7848 0.44529 0.33944 0.0
H2679 H 0.74352 0.47108 0.32026 0.0
C2680 C 0.86762 0.4138 0.3441 0.0
C2681 C 0.88065 0.39111 0.32901 0.0
C2682 C 0.84192 0.42633 0.33463 0.0
C2683 C 0.82803 0.41643 0.30967 0.0
C2684 C 0.84046 0.39266 0.29535 0.0
C2685 C 0.86642 0.38032 0.30476 0.0
C2686 C 0.77211 0.4472 0.25739 0.0
C2687 C 0.75262 0.46149 0.27565 0.0
C2688 C 0.79615 0.43266 0.26835 0.0
C2689 C 0.80161 0.43153 0.2981 0.0
C2690 C 0.78196 0.44577 0.31641 0.0
C2691 C 0.758 0.46057 0.30538 0.0
H2692 H 0.93284 0.58815 0.59622 0.0
H2693 H 0.88727 0.65 0.54513 0.0
H2694 H 0.89959 0.55051 0.58092 0.0
H2695 H 0.85414 0.61223 0.52908 0.0
H2696 H 0.81959 0.4952 0.56372 0.0
H2697 H 0.84642 0.53565 0.58305 0.0
H2698 H 0.86177 0.56673 0.49719 0.0
H2699 H 0.83552 0.52577 0.4776 0.0
C2700 C 0.91521 0.59374 0.58221 0.0
C2701 C 0.91236 0.62201 0.57216 0.0
C2702 C 0.89622 0.57222 0.57335 0.0
C2703 C 0.8743 0.57826 0.55356 0.0
C2704 C 0.87091 0.60681 0.54416 0.0
C2705 C 0.88961 0.62849 0.55357 0.0
C2706 C 0.82869 0.51051 0.54882 0.0
C2707 C 0.82556 0.50679 0.51895 0.0
C2708 C 0.84406 0.53381 0.56 0.0
C2709 C 0.85627 0.55449 0.54172 0.0
C2710 C 0.85242 0.55135 0.51191 0.0
C2711 C 0.83746 0.52774 0.50067 0.0
H2712 H 0.7674 0.4398 0.80819 0.0
H2713 H 0.79401 0.45877 0.72149 0.0
H2714 H 0.72531 0.41528 0.79007 0.0
H2715 H 0.75297 0.43275 0.70312 0.0
H2716 H 0.65991 0.41349 0.67886 0.0
H2717 H 0.70521 0.43355 0.695 0.0
H2718 H 0.70311 0.37716 0.76877 0.0
H2719 H 0.65639 0.35917 0.75329 0.0
C2720 C 0.76465 0.43825 0.78517 0.0
C2721 C 0.7845 0.45124 0.76643 0.0
C2722 C 0.74039 0.42388 0.77464 0.0
C2723 C 0.7352 0.42163 0.74488 0.0
C2724 C 0.75547 0.43422 0.72614 0.0
C2725 C 0.77946 0.44902 0.73673 0.0
C2726 C 0.6693 0.4055 0.69851 0.0
C2727 C 0.65446 0.38509 0.71492 0.0
C2728 C 0.69559 0.41672 0.70774 0.0
C2729 C 0.70825 0.40752 0.73364 0.0
C2730 C 0.69404 0.38562 0.74917 0.0
C2731 C 0.66743 0.37472 0.74004 0.0
H2732 H 0.81728 0.53504 0.96948 0.0
H2733 H 0.86464 0.5328 0.04896 0.0
H2734 H 0.84432 0.49289 0.95262 0.0
H2735 H 0.89123 0.49148 0.03228 0.0
H2736 H 0.91775 0.40167 1.00933 0.0
H2737 H 0.88594 0.44118 0.02315 0.0
H2738 H 0.8926 0.47621 0.93756 0.0
H2739 H 0.92411 0.43617 0.92389 0.0
C2740 C 0.83339 0.52575 0.98335 0.0
C2741 C 0.83849 0.53759 1.01071 0.0
C2742 C 0.84898 0.50154 0.97365 0.0
C2743 C 0.86986 0.4883 0.99118 0.0
C2744 C 0.875 0.50042 1.01831 0.0
C2745 C 0.85973 0.52452 0.02783 0.0
C2746 C 0.91187 0.41749 0.99337 0.0
C2747 C 0.92314 0.41558 0.96545 0.0
C2748 C 0.8939 0.44041 1.0013 0.0
C2749 C 0.88672 0.46231 0.9816 0.0
C2750 C 0.89736 0.45984 0.95335 0.0
C2751 C 0.91552 0.43696 0.9455 0.0
H2752 H 0.87542 0.61842 0.18087 0.0
H2753 H 0.87443 0.67771 0.25159 0.0
H2754 H 0.82928 0.59906 0.19639 0.0
H2755 H 0.82844 0.65793 0.26782 0.0
H2756 H 0.76701 0.54561 0.25025 0.0
H2757 H 0.81011 0.56901 0.23192 0.0
H2758 H 0.77812 0.65072 0.26178 0.0
H2759 H 0.73509 0.62688 0.28043 0.0
C2760 C 0.86509 0.62755 0.1996 0.0
C2761 C 0.87856 0.64988 0.21472 0.0
C2762 C 0.83873 0.61618 0.20879 0.0
C2763 C 0.82494 0.62637 0.23376 0.0
C2764 C 0.83798 0.64949 0.24837 0.0
C2765 C 0.8644 0.66106 0.239 0.0
C2766 C 0.76895 0.56866 0.25241 0.0
C2767 C 0.74713 0.58441 0.26608 0.0
C2768 C 0.79378 0.58222 0.24187 0.0
C2769 C 0.7979 0.61208 0.24488 0.0
C2770 C 0.77612 0.62777 0.25902 0.0
C2771 C 0.75125 0.61412 0.26959 0.0
H2772 H 0.60494 0.61088 0.46405 0.0
H2773 H 0.68666 0.65236 0.47297 0.0
H2774 H 0.62696 0.56467 0.47703 0.0
H2775 H 0.7087 0.60695 0.48646 0.0
H2776 H 0.74733 0.51877 0.49508 0.0
H2777 H 0.72446 0.56086 0.47399 0.0
H2778 H 0.64589 0.54033 0.51874 0.0
H2779 H 0.66879 0.49739 0.53889 0.0
C2780 C 0.62779 0.60991 0.46792 0.0
C2781 C 0.64417 0.63518 0.46703 0.0
C2782 C 0.6404 0.58353 0.47592 0.0
C2783 C 0.66976 0.58175 0.48319 0.0
C2784 C 0.68622 0.60698 0.48084 0.0
C2785 C 0.67362 0.63317 0.473 0.0
C2786 C 0.72501 0.52301 0.50006 0.0
C2787 C 0.70976 0.50431 0.51818 0.0
C2788 C 0.71189 0.54741 0.48818 0.0
C2789 C 0.6831 0.55436 0.49444 0.0
C2790 C 0.66787 0.53566 0.51285 0.0
C2791 C 0.68107 0.51112 0.52469 0.0
H2792 H 0.78836 0.76684 0.53955 0.0
H2793 H 0.76051 0.79654 0.62254 0.0
H2794 H 0.80599 0.72261 0.56111 0.0
H2795 H 0.77932 0.75298 0.64475 0.0
H2796 H 0.78927 0.65865 0.673 0.0
H2797 H 0.77404 0.70483 0.65363 0.0
H2798 H 0.83848 0.6978 0.58711 0.0
H2799 H 0.85216 0.65112 0.60569 0.0
C2800 C 0.78676 0.76422 0.56261 0.0
C2801 C 0.7735 0.78553 0.57932 0.0
C2802 C 0.79694 0.7387 0.57519 0.0
C2803 C 0.79446 0.73363 0.60507 0.0
C2804 C 0.78143 0.75536 0.62175 0.0
C2805 C 0.77084 0.78067 0.60904 0.0
C2806 C 0.80067 0.66731 0.65473 0.0
C2807 C 0.82268 0.65133 0.64153 0.0
C2808 C 0.79183 0.69399 0.64335 0.0
C2809 C 0.8048 0.70571 0.61844 0.0
C2810 C 0.82728 0.6898 0.60582 0.0
C2811 C 0.83565 0.66305 0.61686 0.0
H2812 H 0.31459 0.86155 0.35095 0.0
H2813 H 0.31599 0.90028 0.43486 0.0
H2814 H 0.30314 0.81492 0.37311 0.0
H2815 H 0.30556 0.85397 0.45688 0.0
H2816 H 0.31197 0.7575 0.48527 0.0
H2817 H 0.32941 0.80091 0.46086 0.0
H2818 H 0.25631 0.79892 0.40457 0.0
H2819 H 0.23829 0.75648 0.42945 0.0
C2820 C 0.31348 0.85994 0.3741 0.0
C2821 C 0.31721 0.88455 0.39116 0.0
C2822 C 0.30663 0.83334 0.38679 0.0
C2823 C 0.3038 0.83067 0.41683 0.0
C2824 C 0.30806 0.85513 0.43378 0.0
C2825 C 0.31419 0.88168 0.42112 0.0
C2826 C 0.29961 0.76632 0.46771 0.0
C2827 C 0.27358 0.75346 0.45955 0.0
C2828 C 0.30964 0.79113 0.45368 0.0
C2829 C 0.29435 0.80322 0.43059 0.0
C2830 C 0.26875 0.78998 0.42202 0.0
C2831 C 0.25834 0.76571 0.43649 0.0
H2832 H 0.42281 0.07129 0.60712 0.0
H2833 H 0.37946 0.06162 0.68834 0.0
H2834 H 0.46827 0.05778 0.62995 0.0
H2835 H 0.42436 0.04828 0.7111 0.0
H2836 H 0.49961 0.9905 0.73526 0.0
H2837 H 0.456 1.0078 0.71189 0.0
H2838 H 0.50591 0.06969 0.66427 0.0
H2839 H 0.5495 0.05139 0.68691 0.0
C2840 C 0.4231 0.06713 0.62997 0.0
C2841 C 0.39744 0.06792 0.64593 0.0
C2842 C 0.44914 0.05913 0.6431 0.0
C2843 C 0.45011 0.05143 0.67243 0.0
C2844 C 0.42456 0.05329 0.68841 0.0
C2845 C 0.39876 0.06126 0.67538 0.0
C2846 C 0.50122 1.00781 0.71982 0.0
C2847 C 0.52798 0.02009 0.71356 0.0
C2848 C 0.47617 1.01796 0.70652 0.0
C2849 C 0.47714 0.04053 0.68631 0.0
C2850 C 0.5041 0.05235 0.67964 0.0
C2851 C 0.52911 0.04222 0.69304 0.0
H2852 H 0.23525 0.29843 0.9397 0.0
H2853 H 0.30099 0.25095 0.98356 0.0
H2854 H 0.21785 0.25443 0.91746 0.0
H2855 H 0.28503 0.207 0.96005 0.0
H2856 H 0.23592 0.12776 0.93662 0.0
H2857 H 0.24845 0.1725 0.95981 0.0
H2858 H 0.22765 0.21849 0.88211 0.0
H2859 H 0.21444 0.17313 0.85904 0.0
C2860 C 0.24555 0.27842 0.94514 0.0
C2861 C 0.26877 0.27817 0.96433 0.0
C2862 C 0.23605 0.25318 0.93176 0.0
C2863 C 0.24971 0.22674 0.93696 0.0
C2864 C 0.27337 0.22663 0.95585 0.0
C2865 C 0.28277 0.25194 0.96924 0.0
C2866 C 0.23361 0.14743 0.92452 0.0
C2867 C 0.22355 0.14665 0.89608 0.0
C2868 C 0.24116 0.17323 0.93778 0.0
C2869 C 0.23956 0.19943 0.92293 0.0
C2870 C 0.22892 0.19891 0.89453 0.0
C2871 C 0.2211 0.17285 0.88125 0.0
H2872 H 0.51059 0.54992 0.68325 0.0
H2873 H 0.51041 0.47393 0.73629 0.0
H2874 H 0.55381 0.53308 0.65893 0.0
H2875 H 0.55402 0.45718 0.71194 0.0
H2876 H 0.65193 0.46385 0.69065 0.0
H2877 H 0.60542 0.47593 0.71103 0.0
H2878 H 0.57298 0.49327 0.62621 0.0
H2879 H 0.62018 0.48164 0.60571 0.0
C2880 C 0.51975 0.52959 0.68976 0.0
C2881 C 0.50713 0.51345 0.71204 0.0
C2882 C 0.5444 0.51981 0.67555 0.0
C2883 C 0.5574 0.49382 0.68347 0.0
C2884 C 0.54459 0.47741 0.70544 0.0
C2885 C 0.51961 0.48698 0.71938 0.0
C2886 C 0.63473 0.46944 0.67618 0.0
C2887 C 0.63954 0.47028 0.64636 0.0
C2888 C 0.60802 0.47643 0.68792 0.0
C2889 C 0.58524 0.4849 0.67026 0.0
C2890 C 0.58998 0.48633 0.64039 0.0
C2891 C 0.61687 0.47919 0.62857 0.0
H2892 H 0.80383 0.26551 0.09981 0.0
H2893 H 0.72002 0.24937 0.0642 0.0
H2894 H 0.78436 0.30533 0.12737 0.0
H2895 H 0.70037 0.28909 0.0923 0.0
H2896 H 0.68873 0.38563 0.12104 0.0
H2897 H 0.70119 0.34131 0.09585 0.0
H2898 H 0.75387 0.31592 0.16764 0.0
H2899 H 0.7415 0.36063 0.1922 0.0
C2900 C 0.78122 0.2704 0.09783 0.0
C2901 C 0.7636 0.25413 0.07962 0.0
C2902 C 0.76993 0.29313 0.11394 0.0
C2903 C 0.74064 0.30038 0.1124 0.0
C2904 C 0.72302 0.28429 0.09399 0.0
C2905 C 0.73432 0.26143 0.07788 0.0
C2906 C 0.70197 0.37003 0.13179 0.0
C2907 C 0.71373 0.37632 0.15874 0.0
C2908 C 0.7094 0.34465 0.1173 0.0
C2909 C 0.72904 0.32512 0.12942 0.0
C2910 C 0.73922 0.33066 0.15729 0.0
C2911 C 0.73178 0.356 0.17164 0.0
H2912 H 0.53864 0.9752 0.80541 0.0
H2913 H 0.51374 0.0592 0.83548 0.0
H2914 H 0.49616 0.95466 0.82836 0.0
H2915 H 0.47156 0.03868 0.85854 0.0
H2916 H 0.38619 0.99788 0.88262 0.0
H2917 H 0.42494 1.01646 0.85192 0.0
H2918 H 0.47795 0.94431 0.8757 0.0
H2919 H 0.43925 0.92609 0.90596 0.0
C2920 C 0.52417 0.98936 0.81687 0.0
C2921 C 0.52999 0.01896 0.81859 0.0
C2922 C 0.49972 0.97752 0.83015 0.0
C2923 C 0.48013 0.99489 0.84544 0.0
C2924 C 0.48572 0.02455 0.84669 0.0
C2925 C 0.51021 0.03634 0.83358 0.0
C2926 C 0.40581 0.98563 0.88048 0.0
C2927 C 0.40949 0.96028 0.89638 0.0
C2928 C 0.42827 0.99646 0.86325 0.0
C2929 C 0.45493 0.98209 0.86132 0.0
C2930 C 0.45788 0.95599 0.87625 0.0
C2931 C 0.43565 0.94546 0.89365 0.0
H2932 H 1.01118 0.97808 0.35527 0.0
H2933 H 1.00003 0.05696 0.30797 0.0
H2934 H 0.05416 0.99765 0.37751 0.0
H2935 H 0.04328 0.0762 0.32961 0.0
H2936 H 0.14321 0.02876 0.39727 0.0
H2937 H 0.1028 1.0105 0.36927 0.0
H2938 H 0.06307 0.09422 0.37295 0.0
H2939 H 0.10401 0.11215 0.40037 0.0
C2940 C 1.01776 0.99962 0.34963 0.0
C2941 C 1.00165 1.01592 0.33001 0.0
C2942 C 0.04274 1.01079 0.36217 0.0
C2943 C 0.05258 0.0386 0.35537 0.0
C2944 C 0.03641 0.0549 0.33577 0.0
C2945 C 1.01143 0.04375 0.32329 0.0
C2946 C 0.12628 0.04338 0.39103 0.0
C2947 C 0.127 0.07199 0.40032 0.0
C2948 C 0.10278 0.03286 0.37552 0.0
C2949 C 0.07917 0.05065 0.36909 0.0
C2950 C 0.08075 0.07978 0.37717 0.0
C2951 C 0.10429 0.09022 0.39273 0.0
loop_
_geom_bond_atom_site_label_1
_geom_bond_atom_site_label_2
_geom_bond_distance
_geom_bond_site_symmetry_2
_ccdc_geom_bond_type
Co0 N1 2.034 . S
Co0 O15 2.262 . S
Co0 O19 1.958 . S
Co0 O23 1.950 . S
Co0 O24 2.057 . S
N1 Co0 2.034 . S
N1 C2 1.366 . S
N1 C4 1.332 . S
C2 N1 1.366 . S
C2 C5 1.377 . S
C2 H34 0.931 . S
N3 C4 1.346 . S
N3 C5 1.337 . S
C4 N1 1.332 . S
C4 N3 1.346 . S
C4 C38 1.361 . S
C5 C2 1.377 . S
C5 N3 1.337 . S
C5 H41 0.930 . S
Co6 N7 2.034 . S
Co6 O20 1.950 . S
Co6 O21 2.262 . S
Co6 O22 1.958 . S
Co6 O26 2.057 . S
N7 Co6 2.034 . S
N7 C10 1.366 . S
N7 C11 1.332 . S
N8 C9 1.337 . S
N8 C11 1.346 . S
C9 N8 1.337 . S
C9 C10 1.377 . S
C9 H42 0.930 . S
C10 N7 1.366 . S
C10 C9 1.377 . S
C10 H14 0.931 . S
C11 N7 1.332 . S
C11 N8 1.346 . S
C11 C28 1.361 . S
Co12 O15 2.097 1_455 S
Co12 O16 2.065 . S
Co12 O17 2.065 1_455 S
Co12 O18 2.042 1_455 S
Co12 O21 2.097 . S
Co12 O25 2.042 . S
C13 O21 1.252 1_655 S
C13 O26 1.261 1_655 S
H14 C10 0.931 . S
O15 Co0 2.262 . S
O15 Co12 2.097 1_655 S
O15 C39 1.251 1_655 S
O16 Co12 2.065 . S
O16 C32 1.221 . S
O17 Co12 2.065 1_655 S
O17 C27 1.221 . S
O18 Co12 2.042 1_655 S
O18 C33 1.237 . S
O19 Co0 1.958 . S
O19 C33 1.278 . S
O20 Co6 1.950 . S
O20 C32 1.277 . S
O21 Co6 2.262 . S
O21 Co12 2.097 . S
O21 C13 1.252 1_455 S
O22 Co6 1.958 . S
O22 C40 1.278 . S
O23 Co0 1.950 . S
O23 C27 1.277 . S
O24 Co0 2.057 . S
O24 C39 1.253 1_655 S
O25 Co12 2.042 . S
O25 C40 1.237 . S
O26 Co6 2.057 . S
O26 C13 1.261 1_455 S
C27 O17 1.221 . S
C27 O23 1.277 . S
C28 C11 1.361 . S
C28 H29 0.960 . S
C28 H30 0.961 . S
C28 H31 0.961 . S
H29 C28 0.960 . S
H30 C28 0.961 . S
H31 C28 0.961 . S
C32 O16 1.221 . S
C32 O20 1.277 . S
C33 O18 1.237 . S
C33 O19 1.278 . S
H34 C2 0.931 . S
H35 C38 0.961 . S
H36 C38 0.961 . S
H37 C38 0.960 . S
C38 C4 1.361 . S
C38 H35 0.961 . S
C38 H36 0.961 . S
C38 H37 0.960 . S
C39 O15 1.251 1_455 S
C39 O24 1.253 1_455 S
C40 O22 1.278 . S
C40 O25 1.237 . S
H41 C5 0.930 . S
H42 C9 0.930 . S
Co43 N44 2.034 . S
Co43 O58 2.262 . S
Co43 O62 1.958 . S
Co43 O66 1.950 . S
Co43 O67 2.057 . S
N44 Co43 2.034 . S
N44 C45 1.366 . S
N44 C47 1.332 . S
C45 N44 1.366 . S
C45 C48 1.377 . S
C45 H77 0.931 . S
N46 C47 1.346 . S
N46 C48 1.337 . S
C47 N44 1.332 . S
C47 N46 1.346 . S
C47 C81 1.361 . S
C48 C45 1.377 . S
C48 N46 1.337 . S
C48 H84 0.930 . S
Co49 N50 2.034 . S
Co49 O63 1.950 . S
Co49 O64 2.262 . S
Co49 O65 1.958 . S
Co49 O69 2.057 . S
N50 Co49 2.034 . S
N50 C53 1.366 . S
N50 C54 1.332 . S
N51 C52 1.337 . S
N51 C54 1.346 . S
C52 N51 1.337 . S
C52 C53 1.377 . S
C52 H85 0.930 . S
C53 N50 1.366 . S
C53 C52 1.377 . S
C53 H57 0.931 . S
C54 N50 1.332 . S
C54 N51 1.346 . S
C54 C71 1.361 . S
Co55 O58 2.097 1_455 S
Co55 O59 2.065 1_455 S
Co55 O60 2.065 . S
Co55 O61 2.042 . S
Co55 O64 2.097 . S
Co55 O68 2.042 1_455 S
C56 O64 1.253 . S
C56 O69 1.263 . S
H57 C53 0.931 . S
O58 Co43 2.262 . S
O58 Co55 2.097 1_655 S
O58 C82 1.253 . S
O59 Co55 2.065 1_655 S
O59 C75 1.221 1_655 S
O60 Co55 2.065 . S
O60 C70 1.221 1_455 S
O61 Co55 2.042 . S
O61 C76 1.237 1_455 S
O62 Co43 1.958 . S
O62 C76 1.278 . S
O63 Co49 1.950 . S
O63 C75 1.277 . S
O64 Co49 2.262 . S
O64 Co55 2.097 . S
O64 C56 1.253 . S
O65 Co49 1.958 . S
O65 C83 1.278 . S
O66 Co43 1.950 . S
O66 C70 1.277 . S
O67 Co43 2.057 . S
O67 C82 1.263 . S
O68 Co55 2.042 1_655 S
O68 C83 1.237 1_655 S
O69 Co49 2.057 . S
O69 C56 1.263 . S
C70 O60 1.221 1_655 S
C70 O66 1.277 . S
C71 C54 1.361 . S
C71 H72 0.960 . S
C71 H73 0.961 . S
C71 H74 0.961 . S
H72 C71 0.960 . S
H73 C71 0.961 . S
H74 C71 0.961 . S
C75 O59 1.221 1_455 S
C75 O63 1.277 . S
C76 O61 1.237 1_655 S
C76 O62 1.278 . S
H77 C45 0.931 . S
H78 C81 0.961 . S
H79 C81 0.961 . S
H80 C81 0.960 . S
C81 C47 1.361 . S
C81 H78 0.961 . S
C81 H79 0.961 . S
C81 H80 0.960 . S
C82 O58 1.253 . S
C82 O67 1.263 . S
C83 O65 1.278 . S
C83 O68 1.237 1_455 S
H84 C48 0.930 . S
H85 C52 0.930 . S
Co86 N87 2.034 . S
Co86 O101 2.262 . S
Co86 O105 1.958 . S
Co86 O109 1.950 . S
Co86 O110 2.057 . S
N87 Co86 2.034 . S
N87 C88 1.366 . S
N87 C90 1.332 . S
C88 N87 1.366 . S
C88 C91 1.377 . S
C88 H120 0.931 . S
N89 C90 1.346 . S
N89 C91 1.337 . S
C90 N87 1.332 . S
C90 N89 1.346 . S
C90 C124 1.361 . S
C91 C88 1.377 . S
C91 N89 1.337 . S
C91 H127 0.930 . S
Co92 N93 2.034 . S
Co92 O106 1.950 . S
Co92 O107 2.262 . S
Co92 O108 1.958 . S
Co92 O112 2.057 . S
N93 Co92 2.034 . S
N93 C96 1.366 . S
N93 C97 1.332 . S
N94 C95 1.337 . S
N94 C97 1.346 . S
C95 N94 1.337 . S
C95 C96 1.377 . S
C95 H128 0.930 . S
C96 N93 1.366 . S
C96 C95 1.377 . S
C96 H100 0.931 . S
C97 N93 1.332 . S
C97 N94 1.346 . S
C97 C114 1.361 . S
Co98 O101 2.097 . S
Co98 O102 2.065 . S
Co98 O103 2.065 . S
Co98 O104 2.042 . S
Co98 O107 2.097 . S
Co98 O111 2.042 . S
C99 O107 1.253 . S
C99 O112 1.263 . S
H100 C96 0.931 . S
O101 Co86 2.262 . S
O101 Co98 2.097 . S
O101 C125 1.253 . S
O102 Co98 2.065 . S
O102 C118 1.221 . S
O103 Co98 2.065 . S
O103 C113 1.221 . S
O104 Co98 2.042 . S
O104 C119 1.237 . S
O105 Co86 1.958 . S
O105 C119 1.278 . S
O106 Co92 1.950 . S
O106 C118 1.277 . S
O107 Co92 2.262 . S
O107 Co98 2.097 . S
O107 C99 1.253 . S
O108 Co92 1.958 . S
O108 C126 1.278 . S
O109 Co86 1.950 . S
O109 C113 1.277 . S
O110 Co86 2.057 . S
O110 C125 1.263 . S
O111 Co98 2.042 . S
O111 C126 1.237 . S
O112 Co92 2.057 . S
O112 C99 1.263 . S
C113 O103 1.221 . S
C113 O109 1.277 . S
C114 C97 1.361 . S
C114 H115 0.960 . S
C114 H116 0.961 . S
C114 H117 0.961 . S
H115 C114 0.960 . S
H116 C114 0.961 . S
H117 C114 0.961 . S
C118 O102 1.221 . S
C118 O106 1.277 . S
C119 O104 1.237 . S
C119 O105 1.278 . S
H120 C88 0.931 . S
H121 C124 0.961 . S
H122 C124 0.961 . S
H123 C124 0.960 . S
C124 C90 1.361 . S
C124 H121 0.961 . S
C124 H122 0.961 . S
C124 H123 0.960 . S
C125 O101 1.253 . S
C125 O110 1.263 . S
C126 O108 1.278 . S
C126 O111 1.237 . S
H127 C91 0.930 . S
H128 C95 0.930 . S
Co129 N130 2.034 . S
Co129 O144 2.262 . S
Co129 O148 1.958 . S
Co129 O152 1.950 . S
Co129 O153 2.057 . S
N130 Co129 2.034 . S
N130 C131 1.366 . S
N130 C133 1.332 . S
C131 N130 1.366 . S
C131 C134 1.377 . S
C131 H163 0.931 . S
N132 C133 1.346 . S
N132 C134 1.337 . S
C133 N130 1.332 . S
C133 N132 1.346 . S
C133 C167 1.361 . S
C134 C131 1.377 . S
C134 N132 1.337 . S
C134 H170 0.930 . S
Co135 N136 2.034 . S
Co135 O149 1.950 . S
Co135 O150 2.262 . S
Co135 O151 1.958 . S
Co135 O155 2.057 . S
N136 Co135 2.034 . S
N136 C139 1.366 . S
N136 C140 1.332 . S
N137 C138 1.337 . S
N137 C140 1.346 . S
C138 N137 1.337 . S
C138 C139 1.377 . S
C138 H171 0.930 . S
C139 N136 1.366 . S
C139 C138 1.377 . S
C139 H143 0.931 . S
C140 N136 1.332 . S
C140 N137 1.346 . S
C140 C157 1.361 . S
Co141 O144 2.097 . S
Co141 O145 2.065 . S
Co141 O146 2.065 . S
Co141 O147 2.042 . S
Co141 O150 2.097 . S
Co141 O154 2.042 . S
C142 O150 1.253 . S
C142 O155 1.263 . S
H143 C139 0.931 . S
O144 Co129 2.262 . S
O144 Co141 2.097 . S
O144 C168 1.253 . S
O145 Co141 2.065 . S
O145 C161 1.221 . S
O146 Co141 2.065 . S
O146 C156 1.221 . S
O147 Co141 2.042 . S
O147 C162 1.237 . S
O148 Co129 1.958 . S
O148 C162 1.278 . S
O149 Co135 1.950 . S
O149 C161 1.277 . S
O150 Co135 2.262 . S
O150 Co141 2.097 . S
O150 C142 1.253 . S
O151 Co135 1.958 . S
O151 C169 1.278 . S
O152 Co129 1.950 . S
O152 C156 1.277 . S
O153 Co129 2.057 . S
O153 C168 1.263 . S
O154 Co141 2.042 . S
O154 C169 1.237 . S
O155 Co135 2.057 . S
O155 C142 1.263 . S
C156 O146 1.221 . S
C156 O152 1.277 . S
C157 C140 1.361 . S
C157 H158 0.960 . S
C157 H159 0.961 . S
C157 H160 0.961 . S
H158 C157 0.960 . S
H159 C157 0.961 . S
H160 C157 0.961 . S
C161 O145 1.221 . S
C161 O149 1.277 . S
C162 O147 1.237 . S
C162 O148 1.278 . S
H163 C131 0.931 . S
H164 C167 0.961 . S
H165 C167 0.961 . S
H166 C167 0.960 . S
C167 C133 1.361 . S
C167 H164 0.961 . S
C167 H165 0.961 . S
C167 H166 0.960 . S
C168 O144 1.253 . S
C168 O153 1.263 . S
C169 O151 1.278 . S
C169 O154 1.237 . S
H170 C134 0.930 . S
H171 C138 0.930 . S
Co172 N173 2.034 . S
Co172 O187 2.262 . S
Co172 O191 1.958 . S
Co172 O195 1.950 . S
Co172 O196 2.057 . S
N173 Co172 2.034 . S
N173 C174 1.366 . S
N173 C176 1.332 . S
C174 N173 1.366 . S
C174 C177 1.377 . S
C174 H206 0.931 . S
N175 C176 1.346 . S
N175 C177 1.337 . S
C176 N173 1.332 . S
C176 N175 1.346 . S
C176 C210 1.361 . S
C177 C174 1.377 . S
C177 N175 1.337 . S
C177 H213 0.930 . S
Co178 N179 2.034 . S
Co178 O192 1.950 . S
Co178 O193 2.262 . S
Co178 O194 1.958 . S
Co178 O198 2.057 . S
N179 Co178 2.034 . S
N179 C182 1.366 . S
N179 C183 1.332 . S
N180 C181 1.337 . S
N180 C183 1.346 . S
C181 N180 1.337 . S
C181 C182 1.377 . S
C181 H214 0.930 . S
C182 N179 1.366 . S
C182 C181 1.377 . S
C182 H186 0.931 . S
C183 N179 1.332 . S
C183 N180 1.346 . S
C183 C200 1.361 . S
Co184 O187 2.097 . S
Co184 O188 2.065 1_455 S
Co184 O189 2.065 . S
Co184 O190 2.042 . S
Co184 O193 2.097 1_455 S
Co184 O197 2.042 1_455 S
C185 O193 1.251 1_455 S
C185 O198 1.253 1_455 S
H186 C182 0.931 . S
O187 Co172 2.262 . S
O187 Co184 2.097 . S
O187 C211 1.252 1_455 S
O188 Co184 2.065 1_655 S
O188 C204 1.221 . S
O189 Co184 2.065 . S
O189 C199 1.221 . S
O190 Co184 2.042 . S
O190 C205 1.237 . S
O191 Co172 1.958 . S
O191 C205 1.278 . S
O192 Co178 1.950 . S
O192 C204 1.277 . S
O193 Co178 2.262 . S
O193 Co184 2.097 1_655 S
O193 C185 1.251 1_655 S
O194 Co178 1.958 . S
O194 C212 1.278 . S
O195 Co172 1.950 . S
O195 C199 1.277 . S
O196 Co172 2.057 . S
O196 C211 1.261 1_455 S
O197 Co184 2.042 1_655 S
O197 C212 1.237 . S
O198 Co178 2.057 . S
O198 C185 1.253 1_655 S
C199 O189 1.221 . S
C199 O195 1.277 . S
C200 C183 1.361 . S
C200 H201 0.960 . S
C200 H202 0.961 . S
C200 H203 0.961 . S
H201 C200 0.960 . S
H202 C200 0.961 . S
H203 C200 0.961 . S
C204 O188 1.221 . S
C204 O192 1.277 . S
C205 O190 1.237 . S
C205 O191 1.278 . S
H206 C174 0.931 . S
H207 C210 0.961 . S
H208 C210 0.961 . S
H209 C210 0.960 . S
C210 C176 1.361 . S
C210 H207 0.961 . S
C210 H208 0.961 . S
C210 H209 0.960 . S
C211 O187 1.252 1_655 S
C211 O196 1.261 1_655 S
C212 O194 1.278 . S
C212 O197 1.237 . S
H213 C177 0.930 . S
H214 C181 0.930 . S
Co215 N216 2.034 . S
Co215 O230 2.262 . S
Co215 O234 1.958 . S
Co215 O238 1.950 . S
Co215 O239 2.057 . S
N216 Co215 2.034 . S
N216 C217 1.366 . S
N216 C219 1.332 . S
C217 N216 1.366 . S
C217 C220 1.377 . S
C217 H249 0.931 . S
N218 C219 1.346 . S
N218 C220 1.337 . S
C219 N216 1.332 . S
C219 N218 1.346 . S
C219 C253 1.361 . S
C220 C217 1.377 . S
C220 N218 1.337 . S
C220 H256 0.930 . S
Co221 N222 2.034 . S
Co221 O235 1.950 . S
Co221 O236 2.262 . S
Co221 O237 1.958 . S
Co221 O241 2.057 . S
N222 Co221 2.034 . S
N222 C225 1.366 . S
N222 C226 1.332 . S
N223 C224 1.337 . S
N223 C226 1.346 . S
C224 N223 1.337 . S
C224 C225 1.377 . S
C224 H257 0.930 . S
C225 N222 1.366 . S
C225 C224 1.377 . S
C225 H229 0.931 . S
C226 N222 1.332 . S
C226 N223 1.346 . S
C226 C243 1.361 . S
Co227 O230 2.097 . S
Co227 O231 2.065 . S
Co227 O232 2.065 . S
Co227 O233 2.042 . S
Co227 O236 2.097 . S
Co227 O240 2.042 . S
C228 O236 1.253 . S
C228 O241 1.263 . S
H229 C225 0.931 . S
O230 Co215 2.262 . S
O230 Co227 2.097 . S
O230 C254 1.253 . S
O231 Co227 2.065 . S
O231 C247 1.221 . S
O232 Co227 2.065 . S
O232 C242 1.221 . S
O233 Co227 2.042 . S
O233 C248 1.237 . S
O234 Co215 1.958 . S
O234 C248 1.278 . S
O235 Co221 1.950 . S
O235 C247 1.277 . S
O236 Co221 2.262 . S
O236 Co227 2.097 . S
O236 C228 1.253 . S
O237 Co221 1.958 . S
O237 C255 1.278 . S
O238 Co215 1.950 . S
O238 C242 1.277 . S
O239 Co215 2.057 . S
O239 C254 1.263 . S
O240 Co227 2.042 . S
O240 C255 1.237 . S
O241 Co221 2.057 . S
O241 C228 1.263 . S
C242 O232 1.221 . S
C242 O238 1.277 . S
C243 C226 1.361 . S
C243 H244 0.960 . S
C243 H245 0.961 . S
C243 H246 0.961 . S
H244 C243 0.960 . S
H245 C243 0.961 . S
H246 C243 0.961 . S
C247 O231 1.221 . S
C247 O235 1.277 . S
C248 O233 1.237 . S
C248 O234 1.278 . S
H249 C217 0.931 . S
H250 C253 0.961 . S
H251 C253 0.961 . S
H252 C253 0.960 . S
C253 C219 1.361 . S
C253 H250 0.961 . S
C253 H251 0.961 . S
C253 H252 0.960 . S
C254 O230 1.253 . S
C254 O239 1.263 . S
C255 O237 1.278 . S
C255 O240 1.237 . S
H256 C220 0.930 . S
H257 C224 0.930 . S
Co258 N259 2.034 . S
Co258 O273 2.262 . S
Co258 O277 1.958 . S
Co258 O281 1.950 . S
Co258 O282 2.057 . S
N259 Co258 2.034 . S
N259 C260 1.366 . S
N259 C262 1.332 . S
C260 N259 1.366 . S
C260 C263 1.377 . S
C260 H292 0.931 . S
N261 C262 1.346 . S
N261 C263 1.337 . S
C262 N259 1.332 . S
C262 N261 1.346 . S
C262 C296 1.361 . S
C263 C260 1.377 . S
C263 N261 1.337 . S
C263 H299 0.930 . S
Co264 N265 2.034 . S
Co264 O278 1.950 . S
Co264 O279 2.262 . S
Co264 O280 1.958 . S
Co264 O284 2.057 . S
N265 Co264 2.034 . S
N265 C268 1.366 . S
N265 C269 1.332 . S
N266 C267 1.337 . S
N266 C269 1.346 . S
C267 N266 1.337 . S
C267 C268 1.377 . S
C267 H300 0.930 . S
C268 N265 1.366 . S
C268 C267 1.377 . S
C268 H272 0.931 . S
C269 N265 1.332 . S
C269 N266 1.346 . S
C269 C286 1.361 . S
Co270 O273 2.097 . S
Co270 O274 2.065 . S
Co270 O275 2.065 . S
Co270 O276 2.042 . S
Co270 O279 2.097 . S
Co270 O283 2.042 . S
C271 O279 1.253 . S
C271 O284 1.263 . S
H272 C268 0.931 . S
O273 Co258 2.262 . S
O273 Co270 2.097 . S
O273 C297 1.253 . S
O274 Co270 2.065 . S
O274 C290 1.221 . S
O275 Co270 2.065 . S
O275 C285 1.221 . S
O276 Co270 2.042 . S
O276 C291 1.237 . S
O277 Co258 1.958 . S
O277 C291 1.278 . S
O278 Co264 1.950 . S
O278 C290 1.277 . S
O279 Co264 2.262 . S
O279 Co270 2.097 . S
O279 C271 1.253 . S
O280 Co264 1.958 . S
O280 C298 1.278 . S
O281 Co258 1.950 . S
O281 C285 1.277 . S
O282 Co258 2.057 . S
O282 C297 1.263 . S
O283 Co270 2.042 . S
O283 C298 1.237 . S
O284 Co264 2.057 . S
O284 C271 1.263 . S
C285 O275 1.221 . S
C285 O281 1.277 . S
C286 C269 1.361 . S
C286 H287 0.960 . S
C286 H288 0.961 . S
C286 H289 0.961 . S
H287 C286 0.960 . S
H288 C286 0.961 . S
H289 C286 0.961 . S
C290 O274 1.221 . S
C290 O278 1.277 . S
C291 O276 1.237 . S
C291 O277 1.278 . S
H292 C260 0.931 . S
H293 C296 0.961 . S
H294 C296 0.961 . S
H295 C296 0.960 . S
C296 C262 1.361 . S
C296 H293 0.961 . S
C296 H294 0.961 . S
C296 H295 0.960 . S
C297 O273 1.253 . S
C297 O282 1.263 . S
C298 O280 1.278 . S
C298 O283 1.237 . S
H299 C263 0.930 . S
H300 C267 0.930 . S
Co301 N302 2.034 . S
Co301 O316 2.262 . S
Co301 O320 1.958 . S
Co301 O324 1.950 . S
Co301 O325 2.057 . S
N302 Co301 2.034 . S
N302 C303 1.366 . S
N302 C305 1.332 . S
C303 N302 1.366 . S
C303 C306 1.377 . S
C303 H335 0.931 . S
N304 C305 1.346 . S
N304 C306 1.337 . S
C305 N302 1.332 . S
C305 N304 1.346 . S
C305 C339 1.361 . S
C306 C303 1.377 . S
C306 N304 1.337 . S
C306 H342 0.930 . S
Co307 N308 2.034 . S
Co307 O321 1.950 . S
Co307 O322 2.262 . S
Co307 O323 1.958 . S
Co307 O327 2.057 . S
N308 Co307 2.034 . S
N308 C311 1.366 . S
N308 C312 1.332 . S
N309 C310 1.337 . S
N309 C312 1.346 . S
C310 N309 1.337 . S
C310 C311 1.377 . S
C310 H343 0.930 . S
C311 N308 1.366 . S
C311 C310 1.377 . S
C311 H315 0.931 . S
C312 N308 1.332 . S
C312 N309 1.346 . S
C312 C329 1.361 . S
Co313 O316 2.097 1_455 S
Co313 O317 2.065 1_455 S
Co313 O318 2.065 . S
Co313 O319 2.042 . S
Co313 O322 2.097 . S
Co313 O326 2.042 1_455 S
C314 O322 1.253 . S
C314 O327 1.263 . S
H315 C311 0.931 . S
O316 Co301 2.262 . S
O316 Co313 2.097 1_655 S
O316 C340 1.253 . S
O317 Co313 2.065 1_655 S
O317 C333 1.221 1_655 S
O318 Co313 2.065 . S
O318 C328 1.221 1_455 S
O319 Co313 2.042 . S
O319 C334 1.237 1_455 S
O320 Co301 1.958 . S
O320 C334 1.278 . S
O321 Co307 1.950 . S
O321 C333 1.277 . S
O322 Co307 2.262 . S
O322 Co313 2.097 . S
O322 C314 1.253 . S
O323 Co307 1.958 . S
O323 C341 1.278 . S
O324 Co301 1.950 . S
O324 C328 1.277 . S
O325 Co301 2.057 . S
O325 C340 1.263 . S
O326 Co313 2.042 1_655 S
O326 C341 1.237 1_655 S
O327 Co307 2.057 . S
O327 C314 1.263 . S
C328 O318 1.221 1_655 S
C328 O324 1.277 . S
C329 C312 1.361 . S
C329 H330 0.960 . S
C329 H331 0.961 . S
C329 H332 0.961 . S
H330 C329 0.960 . S
H331 C329 0.961 . S
H332 C329 0.961 . S
C333 O317 1.221 1_455 S
C333 O321 1.277 . S
C334 O319 1.237 1_655 S
C334 O320 1.278 . S
H335 C303 0.931 . S
H336 C339 0.961 . S
H337 C339 0.961 . S
H338 C339 0.960 . S
C339 C305 1.361 . S
C339 H336 0.961 . S
C339 H337 0.961 . S
C339 H338 0.960 . S
C340 O316 1.253 . S
C340 O325 1.263 . S
C341 O323 1.278 . S
C341 O326 1.237 1_455 S
H342 C306 0.930 . S
H343 C310 0.930 . S
Co344 N345 2.034 . S
Co344 O359 2.262 . S
Co344 O363 1.958 . S
Co344 O367 1.950 . S
Co344 O368 2.057 . S
N345 Co344 2.034 . S
N345 C346 1.366 . S
N345 C348 1.332 . S
C346 N345 1.366 . S
C346 C349 1.377 . S
C346 H378 0.931 . S
N347 C348 1.346 . S
N347 C349 1.337 . S
C348 N345 1.332 . S
C348 N347 1.346 . S
C348 C382 1.361 . S
C349 C346 1.377 . S
C349 N347 1.337 . S
C349 H385 0.930 . S
Co350 N351 2.034 . S
Co350 O364 1.950 . S
Co350 O365 2.262 . S
Co350 O366 1.958 . S
Co350 O370 2.057 . S
N351 Co350 2.034 . S
N351 C354 1.366 . S
N351 C355 1.332 . S
N352 C353 1.337 . S
N352 C355 1.346 . S
C353 N352 1.337 . S
C353 C354 1.377 . S
C353 H386 0.930 . S
C354 N351 1.366 . S
C354 C353 1.377 . S
C354 H358 0.931 . S
C355 N351 1.332 . S
C355 N352 1.346 . S
C355 C372 1.361 . S
Co356 O359 2.097 1_545 S
Co356 O360 2.065 . S
Co356 O361 2.065 1_545 S
Co356 O362 2.042 1_545 S
Co356 O365 2.097 . S
Co356 O369 2.042 . S
C357 O365 1.252 1_565 S
C357 O370 1.261 1_565 S
H358 C354 0.931 . S
O359 Co344 2.262 . S
O359 Co356 2.097 1_565 S
O359 C383 1.251 1_565 S
O360 Co356 2.065 . S
O360 C376 1.221 . S
O361 Co356 2.065 1_565 S
O361 C371 1.221 . S
O362 Co356 2.042 1_565 S
O362 C377 1.237 . S
O363 Co344 1.958 . S
O363 C377 1.278 . S
O364 Co350 1.950 . S
O364 C376 1.277 . S
O365 Co350 2.262 . S
O365 Co356 2.097 . S
O365 C357 1.252 1_545 S
O366 Co350 1.958 . S
O366 C384 1.278 . S
O367 Co344 1.950 . S
O367 C371 1.277 . S
O368 Co344 2.057 . S
O368 C383 1.253 1_565 S
O369 Co356 2.042 . S
O369 C384 1.237 . S
O370 Co350 2.057 . S
O370 C357 1.261 1_545 S
C371 O361 1.221 . S
C371 O367 1.277 . S
C372 C355 1.361 . S
C372 H373 0.960 . S
C372 H374 0.961 . S
C372 H375 0.961 . S
H373 C372 0.960 . S
H374 C372 0.961 . S
H375 C372 0.961 . S
C376 O360 1.221 . S
C376 O364 1.277 . S
C377 O362 1.237 . S
C377 O363 1.278 . S
H378 C346 0.931 . S
H379 C382 0.961 . S
H380 C382 0.961 . S
H381 C382 0.960 . S
C382 C348 1.361 . S
C382 H379 0.961 . S
C382 H380 0.961 . S
C382 H381 0.960 . S
C383 O359 1.251 1_545 S
C383 O368 1.253 1_545 S
C384 O366 1.278 . S
C384 O369 1.237 . S
H385 C349 0.930 . S
H386 C353 0.930 . S
Co387 N388 2.034 . S
Co387 O402 2.262 . S
Co387 O406 1.958 . S
Co387 O410 1.950 . S
Co387 O411 2.057 . S
N388 Co387 2.034 . S
N388 C389 1.366 . S
N388 C391 1.332 . S
C389 N388 1.366 . S
C389 C392 1.377 . S
C389 H421 0.931 . S
N390 C391 1.346 . S
N390 C392 1.337 . S
C391 N388 1.332 . S
C391 N390 1.346 . S
C391 C425 1.361 . S
C392 C389 1.377 . S
C392 N390 1.337 . S
C392 H428 0.930 . S
Co393 N394 2.034 . S
Co393 O407 1.950 . S
Co393 O408 2.262 . S
Co393 O409 1.958 . S
Co393 O413 2.057 . S
N394 Co393 2.034 . S
N394 C397 1.366 . S
N394 C398 1.332 . S
N395 C396 1.337 . S
N395 C398 1.346 . S
C396 N395 1.337 . S
C396 C397 1.377 . S
C396 H429 0.930 . S
C397 N394 1.366 . S
C397 C396 1.377 . S
C397 H401 0.931 . S
C398 N394 1.332 . S
C398 N395 1.346 . S
C398 C415 1.361 . S
Co399 O402 2.097 . S
Co399 O403 2.065 . S
Co399 O404 2.065 . S
Co399 O405 2.042 . S
Co399 O408 2.097 . S
Co399 O412 2.042 . S
C400 O408 1.253 . S
C400 O413 1.263 . S
H401 C397 0.931 . S
O402 Co387 2.262 . S
O402 Co399 2.097 . S
O402 C426 1.253 . S
O403 Co399 2.065 . S
O403 C419 1.221 . S
O404 Co399 2.065 . S
O404 C414 1.221 . S
O405 Co399 2.042 . S
O405 C420 1.237 . S
O406 Co387 1.958 . S
O406 C420 1.278 . S
O407 Co393 1.950 . S
O407 C419 1.277 . S
O408 Co393 2.262 . S
O408 Co399 2.097 . S
O408 C400 1.253 . S
O409 Co393 1.958 . S
O409 C427 1.278 . S
O410 Co387 1.950 . S
O410 C414 1.277 . S
O411 Co387 2.057 . S
O411 C426 1.263 . S
O412 Co399 2.042 . S
O412 C427 1.237 . S
O413 Co393 2.057 . S
O413 C400 1.263 . S
C414 O404 1.221 . S
C414 O410 1.277 . S
C415 C398 1.361 . S
C415 H416 0.960 . S
C415 H417 0.961 . S
C415 H418 0.961 . S
H416 C415 0.960 . S
H417 C415 0.961 . S
H418 C415 0.961 . S
C419 O403 1.221 . S
C419 O407 1.277 . S
C420 O405 1.237 . S
C420 O406 1.278 . S
H421 C389 0.931 . S
H422 C425 0.961 . S
H423 C425 0.961 . S
H424 C425 0.960 . S
C425 C391 1.361 . S
C425 H422 0.961 . S
C425 H423 0.961 . S
C425 H424 0.960 . S
C426 O402 1.253 . S
C426 O411 1.263 . S
C427 O409 1.278 . S
C427 O412 1.237 . S
H428 C392 0.930 . S
H429 C396 0.930 . S
Co430 N431 2.034 . S
Co430 O445 2.262 . S
Co430 O449 1.958 . S
Co430 O453 1.950 . S
Co430 O454 2.057 . S
N431 Co430 2.034 . S
N431 C432 1.366 . S
N431 C434 1.332 . S
C432 N431 1.366 . S
C432 C435 1.377 . S
C432 H464 0.931 . S
N433 C434 1.346 . S
N433 C435 1.337 . S
C434 N431 1.332 . S
C434 N433 1.346 . S
C434 C468 1.361 . S
C435 C432 1.377 . S
C435 N433 1.337 . S
C435 H471 0.930 . S
Co436 N437 2.034 . S
Co436 O450 1.950 . S
Co436 O451 2.262 . S
Co436 O452 1.958 . S
Co436 O456 2.057 . S
N437 Co436 2.034 . S
N437 C440 1.366 . S
N437 C441 1.332 . S
N438 C439 1.337 . S
N438 C441 1.346 . S
C439 N438 1.337 . S
C439 C440 1.377 . S
C439 H472 0.930 . S
C440 N437 1.366 . S
C440 C439 1.377 . S
C440 H444 0.931 . S
C441 N437 1.332 . S
C441 N438 1.346 . S
C441 C458 1.361 . S
Co442 O445 2.097 1_545 S
Co442 O446 2.065 . S
Co442 O447 2.065 1_545 S
Co442 O448 2.042 1_545 S
Co442 O451 2.097 . S
Co442 O455 2.042 . S
C443 O451 1.252 1_565 S
C443 O456 1.261 1_565 S
H444 C440 0.931 . S
O445 Co430 2.262 . S
O445 Co442 2.097 1_565 S
O445 C469 1.251 1_565 S
O446 Co442 2.065 . S
O446 C462 1.221 . S
O447 Co442 2.065 1_565 S
O447 C457 1.221 . S
O448 Co442 2.042 1_565 S
O448 C463 1.237 . S
O449 Co430 1.958 . S
O449 C463 1.278 . S
O450 Co436 1.950 . S
O450 C462 1.277 . S
O451 Co436 2.262 . S
O451 Co442 2.097 . S
O451 C443 1.252 1_545 S
O452 Co436 1.958 . S
O452 C470 1.278 . S
O453 Co430 1.950 . S
O453 C457 1.277 . S
O454 Co430 2.057 . S
O454 C469 1.253 1_565 S
O455 Co442 2.042 . S
O455 C470 1.237 . S
O456 Co436 2.057 . S
O456 C443 1.261 1_545 S
C457 O447 1.221 . S
C457 O453 1.277 . S
C458 C441 1.361 . S
C458 H459 0.960 . S
C458 H460 0.961 . S
C458 H461 0.961 . S
H459 C458 0.960 . S
H460 C458 0.961 . S
H461 C458 0.961 . S
C462 O446 1.221 . S
C462 O450 1.277 . S
C463 O448 1.237 . S
C463 O449 1.278 . S
H464 C432 0.931 . S
H465 C468 0.961 . S
H466 C468 0.961 . S
H467 C468 0.960 . S
C468 C434 1.361 . S
C468 H465 0.961 . S
C468 H466 0.961 . S
C468 H467 0.960 . S
C469 O445 1.251 1_545 S
C469 O454 1.253 1_545 S
C470 O452 1.278 . S
C470 O455 1.237 . S
H471 C435 0.930 . S
H472 C439 0.930 . S
Co473 N474 2.034 . S
Co473 O488 2.262 . S
Co473 O492 1.958 . S
Co473 O496 1.950 . S
Co473 O497 2.057 . S
N474 Co473 2.034 . S
N474 C475 1.366 . S
N474 C477 1.332 . S
C475 N474 1.366 . S
C475 C478 1.377 . S
C475 H507 0.931 . S
N476 C477 1.346 . S
N476 C478 1.337 . S
C477 N474 1.332 . S
C477 N476 1.346 . S
C477 C511 1.361 . S
C478 C475 1.377 . S
C478 N476 1.337 . S
C478 H514 0.930 . S
Co479 N480 2.034 . S
Co479 O493 1.950 . S
Co479 O494 2.262 . S
Co479 O495 1.958 . S
Co479 O499 2.057 . S
N480 Co479 2.034 . S
N480 C483 1.366 . S
N480 C484 1.332 . S
N481 C482 1.337 . S
N481 C484 1.346 . S
C482 N481 1.337 . S
C482 C483 1.377 . S
C482 H515 0.930 . S
C483 N480 1.366 . S
C483 C482 1.377 . S
C483 H487 0.931 . S
C484 N480 1.332 . S
C484 N481 1.346 . S
C484 C501 1.361 . S
Co485 O488 2.097 1_554 S
Co485 O489 2.065 1_554 S
Co485 O490 2.065 . S
Co485 O491 2.042 . S
Co485 O494 2.097 . S
Co485 O498 2.042 1_554 S
C486 O494 1.253 . S
C486 O499 1.263 . S
H487 C483 0.931 . S
O488 Co473 2.262 . S
O488 Co485 2.097 1_556 S
O488 C512 1.253 . S
O489 Co485 2.065 1_556 S
O489 C505 1.221 1_556 S
O490 Co485 2.065 . S
O490 C500 1.221 1_554 S
O491 Co485 2.042 . S
O491 C506 1.237 1_554 S
O492 Co473 1.958 . S
O492 C506 1.278 . S
O493 Co479 1.950 . S
O493 C505 1.277 . S
O494 Co479 2.262 . S
O494 Co485 2.097 . S
O494 C486 1.253 . S
O495 Co479 1.958 . S
O495 C513 1.278 . S
O496 Co473 1.950 . S
O496 C500 1.277 . S
O497 Co473 2.057 . S
O497 C512 1.263 . S
O498 Co485 2.042 1_556 S
O498 C513 1.237 1_556 S
O499 Co479 2.057 . S
O499 C486 1.263 . S
C500 O490 1.221 1_556 S
C500 O496 1.277 . S
C501 C484 1.361 . S
C501 H502 0.960 . S
C501 H503 0.961 . S
C501 H504 0.961 . S
H502 C501 0.960 . S
H503 C501 0.961 . S
H504 C501 0.961 . S
C505 O489 1.221 1_554 S
C505 O493 1.277 . S
C506 O491 1.237 1_556 S
C506 O492 1.278 . S
H507 C475 0.931 . S
H508 C511 0.961 . S
H509 C511 0.961 . S
H510 C511 0.960 . S
C511 C477 1.361 . S
C511 H508 0.961 . S
C511 H509 0.961 . S
C511 H510 0.960 . S
C512 O488 1.253 . S
C512 O497 1.263 . S
C513 O495 1.278 . S
C513 O498 1.237 1_554 S
H514 C478 0.930 . S
H515 C482 0.930 . S
Co516 N517 2.034 . S
Co516 O531 2.262 . S
Co516 O535 1.958 . S
Co516 O539 1.950 . S
Co516 O540 2.057 . S
N517 Co516 2.034 . S
N517 C518 1.366 . S
N517 C520 1.332 . S
C518 N517 1.366 . S
C518 C521 1.377 . S
C518 H550 0.931 . S
N519 C520 1.346 . S
N519 C521 1.337 . S
C520 N517 1.332 . S
C520 N519 1.346 . S
C520 C554 1.361 . S
C521 C518 1.377 . S
C521 N519 1.337 . S
C521 H557 0.930 . S
Co522 N523 2.034 . S
Co522 O536 1.950 . S
Co522 O537 2.262 . S
Co522 O538 1.958 . S
Co522 O542 2.057 . S
N523 Co522 2.034 . S
N523 C526 1.366 . S
N523 C527 1.332 . S
N524 C525 1.337 . S
N524 C527 1.346 . S
C525 N524 1.337 . S
C525 C526 1.377 . S
C525 H558 0.930 . S
C526 N523 1.366 . S
C526 C525 1.377 . S
C526 H530 0.931 . S
C527 N523 1.332 . S
C527 N524 1.346 . S
C527 C544 1.361 . S
Co528 O531 2.097 . S
Co528 O532 2.065 1_554 S
Co528 O533 2.065 . S
Co528 O534 2.042 . S
Co528 O537 2.097 1_554 S
Co528 O541 2.042 1_554 S
C529 O537 1.251 1_554 S
C529 O542 1.253 1_554 S
H530 C526 0.931 . S
O531 Co516 2.262 . S
O531 Co528 2.097 . S
O531 C555 1.252 1_554 S
O532 Co528 2.065 1_556 S
O532 C548 1.221 . S
O533 Co528 2.065 . S
O533 C543 1.221 . S
O534 Co528 2.042 . S
O534 C549 1.237 . S
O535 Co516 1.958 . S
O535 C549 1.278 . S
O536 Co522 1.950 . S
O536 C548 1.277 . S
O537 Co522 2.262 . S
O537 Co528 2.097 1_556 S
O537 C529 1.251 1_556 S
O538 Co522 1.958 . S
O538 C556 1.278 . S
O539 Co516 1.950 . S
O539 C543 1.277 . S
O540 Co516 2.057 . S
O540 C555 1.261 1_554 S
O541 Co528 2.042 1_556 S
O541 C556 1.237 . S
O542 Co522 2.057 . S
O542 C529 1.253 1_556 S
C543 O533 1.221 . S
C543 O539 1.277 . S
C544 C527 1.361 . S
C544 H545 0.960 . S
C544 H546 0.961 . S
C544 H547 0.961 . S
H545 C544 0.960 . S
H546 C544 0.961 . S
H547 C544 0.961 . S
C548 O532 1.221 . S
C548 O536 1.277 . S
C549 O534 1.237 . S
C549 O535 1.278 . S
H550 C518 0.931 . S
H551 C554 0.961 . S
H552 C554 0.961 . S
H553 C554 0.960 . S
C554 C520 1.361 . S
C554 H551 0.961 . S
C554 H552 0.961 . S
C554 H553 0.960 . S
C555 O531 1.252 1_556 S
C555 O540 1.261 1_556 S
C556 O538 1.278 . S
C556 O541 1.237 . S
H557 C521 0.930 . S
H558 C525 0.930 . S
Co559 N560 2.034 . S
Co559 O574 2.262 . S
Co559 O578 1.958 . S
Co559 O582 1.950 . S
Co559 O583 2.057 . S
N560 Co559 2.034 . S
N560 C561 1.366 . S
N560 C563 1.332 . S
C561 N560 1.366 . S
C561 C564 1.377 . S
C561 H593 0.931 . S
N562 C563 1.346 . S
N562 C564 1.337 . S
C563 N560 1.332 . S
C563 N562 1.346 . S
C563 C597 1.361 . S
C564 C561 1.377 . S
C564 N562 1.337 . S
C564 H600 0.930 . S
Co565 N566 2.034 . S
Co565 O579 1.950 . S
Co565 O580 2.262 . S
Co565 O581 1.958 . S
Co565 O585 2.057 . S
N566 Co565 2.034 . S
N566 C569 1.366 . S
N566 C570 1.332 . S
N567 C568 1.337 . S
N567 C570 1.346 . S
C568 N567 1.337 . S
C568 C569 1.377 . S
C568 H601 0.930 . S
C569 N566 1.366 . S
C569 C568 1.377 . S
C569 H573 0.931 . S
C570 N566 1.332 . S
C570 N567 1.346 . S
C570 C587 1.361 . S
Co571 O574 2.097 1_554 S
Co571 O575 2.065 . S
Co571 O576 2.065 1_554 S
Co571 O577 2.042 1_554 S
Co571 O580 2.097 . S
Co571 O584 2.042 . S
C572 O580 1.252 1_556 S
C572 O585 1.261 1_556 S
H573 C569 0.931 . S
O574 Co559 2.262 . S
O574 Co571 2.097 1_556 S
O574 C598 1.251 1_556 S
O575 Co571 2.065 . S
O575 C591 1.221 . S
O576 Co571 2.065 1_556 S
O576 C586 1.221 . S
O577 Co571 2.042 1_556 S
O577 C592 1.237 . S
O578 Co559 1.958 . S
O578 C592 1.278 . S
O579 Co565 1.950 . S
O579 C591 1.277 . S
O580 Co565 2.262 . S
O580 Co571 2.097 . S
O580 C572 1.252 1_554 S
O581 Co565 1.958 . S
O581 C599 1.278 . S
O582 Co559 1.950 . S
O582 C586 1.277 . S
O583 Co559 2.057 . S
O583 C598 1.253 1_556 S
O584 Co571 2.042 . S
O584 C599 1.237 . S
O585 Co565 2.057 . S
O585 C572 1.261 1_554 S
C586 O576 1.221 . S
C586 O582 1.277 . S
C587 C570 1.361 . S
C587 H588 0.960 . S
C587 H589 0.961 . S
C587 H590 0.961 . S
H588 C587 0.960 . S
H589 C587 0.961 . S
H590 C587 0.961 . S
C591 O575 1.221 . S
C591 O579 1.277 . S
C592 O577 1.237 . S
C592 O578 1.278 . S
H593 C561 0.931 . S
H594 C597 0.961 . S
H595 C597 0.961 . S
H596 C597 0.960 . S
C597 C563 1.361 . S
C597 H594 0.961 . S
C597 H595 0.961 . S
C597 H596 0.960 . S
C598 O574 1.251 1_554 S
C598 O583 1.253 1_554 S
C599 O581 1.278 . S
C599 O584 1.237 . S
H600 C564 0.930 . S
H601 C568 0.930 . S
Co602 N603 2.034 . S
Co602 O617 2.262 . S
Co602 O621 1.958 . S
Co602 O625 1.950 . S
Co602 O626 2.057 . S
N603 Co602 2.034 . S
N603 C604 1.366 . S
N603 C606 1.332 . S
C604 N603 1.366 . S
C604 C607 1.377 . S
C604 H636 0.931 . S
N605 C606 1.346 . S
N605 C607 1.337 . S
C606 N603 1.332 . S
C606 N605 1.346 . S
C606 C640 1.361 . S
C607 C604 1.377 . S
C607 N605 1.337 . S
C607 H643 0.930 . S
Co608 N609 2.034 . S
Co608 O622 1.950 . S
Co608 O623 2.262 . S
Co608 O624 1.958 . S
Co608 O628 2.057 . S
N609 Co608 2.034 . S
N609 C612 1.366 . S
N609 C613 1.332 . S
N610 C611 1.337 . S
N610 C613 1.346 . S
C611 N610 1.337 . S
C611 C612 1.377 . S
C611 H644 0.930 . S
C612 N609 1.366 . S
C612 C611 1.377 . S
C612 H616 0.931 . S
C613 N609 1.332 . S
C613 N610 1.346 . S
C613 C630 1.361 . S
Co614 O617 2.097 . S
Co614 O618 2.065 . S
Co614 O619 2.065 . S
Co614 O620 2.042 . S
Co614 O623 2.097 . S
Co614 O627 2.042 . S
C615 O623 1.253 . S
C615 O628 1.263 . S
H616 C612 0.931 . S
O617 Co602 2.262 . S
O617 Co614 2.097 . S
O617 C641 1.253 . S
O618 Co614 2.065 . S
O618 C634 1.221 . S
O619 Co614 2.065 . S
O619 C629 1.221 . S
O620 Co614 2.042 . S
O620 C635 1.237 . S
O621 Co602 1.958 . S
O621 C635 1.278 . S
O622 Co608 1.950 . S
O622 C634 1.277 . S
O623 Co608 2.262 . S
O623 Co614 2.097 . S
O623 C615 1.253 . S
O624 Co608 1.958 . S
O624 C642 1.278 . S
O625 Co602 1.950 . S
O625 C629 1.277 . S
O626 Co602 2.057 . S
O626 C641 1.263 . S
O627 Co614 2.042 . S
O627 C642 1.237 . S
O628 Co608 2.057 . S
O628 C615 1.263 . S
C629 O619 1.221 . S
C629 O625 1.277 . S
C630 C613 1.361 . S
C630 H631 0.960 . S
C630 H632 0.961 . S
C630 H633 0.961 . S
H631 C630 0.960 . S
H632 C630 0.961 . S
H633 C630 0.961 . S
C634 O618 1.221 . S
C634 O622 1.277 . S
C635 O620 1.237 . S
C635 O621 1.278 . S
H636 C604 0.931 . S
H637 C640 0.961 . S
H638 C640 0.961 . S
H639 C640 0.960 . S
C640 C606 1.361 . S
C640 H637 0.961 . S
C640 H638 0.961 . S
C640 H639 0.960 . S
C641 O617 1.253 . S
C641 O626 1.263 . S
C642 O624 1.278 . S
C642 O627 1.237 . S
H643 C607 0.930 . S
H644 C611 0.930 . S
Co645 N646 2.034 . S
Co645 O660 2.262 . S
Co645 O664 1.958 . S
Co645 O668 1.950 . S
Co645 O669 2.057 . S
N646 Co645 2.034 . S
N646 C647 1.366 . S
N646 C649 1.332 . S
C647 N646 1.366 . S
C647 C650 1.377 . S
C647 H679 0.931 . S
N648 C649 1.346 . S
N648 C650 1.337 . S
C649 N646 1.332 . S
C649 N648 1.346 . S
C649 C683 1.361 . S
C650 C647 1.377 . S
C650 N648 1.337 . S
C650 H686 0.930 . S
Co651 N652 2.034 . S
Co651 O665 1.950 . S
Co651 O666 2.262 . S
Co651 O667 1.958 . S
Co651 O671 2.057 . S
N652 Co651 2.034 . S
N652 C655 1.366 . S
N652 C656 1.332 . S
N653 C654 1.337 . S
N653 C656 1.346 . S
C654 N653 1.337 . S
C654 C655 1.377 . S
C654 H687 0.930 . S
C655 N652 1.366 . S
C655 C654 1.377 . S
C655 H659 0.931 . S
C656 N652 1.332 . S
C656 N653 1.346 . S
C656 C673 1.361 . S
Co657 O660 2.097 . S
Co657 O661 2.065 . S
Co657 O662 2.065 . S
Co657 O663 2.042 . S
Co657 O666 2.097 . S
Co657 O670 2.042 . S
C658 O666 1.253 . S
C658 O671 1.263 . S
H659 C655 0.931 . S
O660 Co645 2.262 . S
O660 Co657 2.097 . S
O660 C684 1.253 . S
O661 Co657 2.065 . S
O661 C677 1.221 . S
O662 Co657 2.065 . S
O662 C672 1.221 . S
O663 Co657 2.042 . S
O663 C678 1.237 . S
O664 Co645 1.958 . S
O664 C678 1.278 . S
O665 Co651 1.950 . S
O665 C677 1.277 . S
O666 Co651 2.262 . S
O666 Co657 2.097 . S
O666 C658 1.253 . S
O667 Co651 1.958 . S
O667 C685 1.278 . S
O668 Co645 1.950 . S
O668 C672 1.277 . S
O669 Co645 2.057 . S
O669 C684 1.263 . S
O670 Co657 2.042 . S
O670 C685 1.237 . S
O671 Co651 2.057 . S
O671 C658 1.263 . S
C672 O662 1.221 . S
C672 O668 1.277 . S
C673 C656 1.361 . S
C673 H674 0.960 . S
C673 H675 0.961 . S
C673 H676 0.961 . S
H674 C673 0.960 . S
H675 C673 0.961 . S
H676 C673 0.961 . S
C677 O661 1.221 . S
C677 O665 1.277 . S
C678 O663 1.237 . S
C678 O664 1.278 . S
H679 C647 0.931 . S
H680 C683 0.961 . S
H681 C683 0.961 . S
H682 C683 0.960 . S
C683 C649 1.361 . S
C683 H680 0.961 . S
C683 H681 0.961 . S
C683 H682 0.960 . S
C684 O660 1.253 . S
C684 O669 1.263 . S
C685 O667 1.278 . S
C685 O670 1.237 . S
H686 C650 0.930 . S
H687 C654 0.930 . S
Co688 N689 2.034 . S
Co688 O703 2.262 . S
Co688 O707 1.958 . S
Co688 O711 1.950 . S
Co688 O712 2.057 . S
N689 Co688 2.034 . S
N689 C690 1.366 . S
N689 C692 1.332 . S
C690 N689 1.366 . S
C690 C693 1.377 . S
C690 H722 0.931 . S
N691 C692 1.346 . S
N691 C693 1.337 . S
C692 N689 1.332 . S
C692 N691 1.346 . S
C692 C726 1.361 . S
C693 C690 1.377 . S
C693 N691 1.337 . S
C693 H729 0.930 . S
Co694 N695 2.034 . S
Co694 O708 1.950 . S
Co694 O709 2.262 . S
Co694 O710 1.958 . S
Co694 O714 2.057 . S
N695 Co694 2.034 . S
N695 C698 1.366 . S
N695 C699 1.332 . S
N696 C697 1.337 . S
N696 C699 1.346 . S
C697 N696 1.337 . S
C697 C698 1.377 . S
C697 H730 0.930 . S
C698 N695 1.366 . S
C698 C697 1.377 . S
C698 H702 0.931 . S
C699 N695 1.332 . S
C699 N696 1.346 . S
C699 C716 1.361 . S
Co700 O703 2.097 1_545 S
Co700 O704 2.065 1_545 S
Co700 O705 2.065 . S
Co700 O706 2.042 . S
Co700 O709 2.097 . S
Co700 O713 2.042 1_545 S
C701 O709 1.253 . S
C701 O714 1.263 . S
H702 C698 0.931 . S
O703 Co688 2.262 . S
O703 Co700 2.097 1_565 S
O703 C727 1.253 . S
O704 Co700 2.065 1_565 S
O704 C720 1.221 1_565 S
O705 Co700 2.065 . S
O705 C715 1.221 1_545 S
O706 Co700 2.042 . S
O706 C721 1.237 1_545 S
O707 Co688 1.958 . S
O707 C721 1.278 . S
O708 Co694 1.950 . S
O708 C720 1.277 . S
O709 Co694 2.262 . S
O709 Co700 2.097 . S
O709 C701 1.253 . S
O710 Co694 1.958 . S
O710 C728 1.278 . S
O711 Co688 1.950 . S
O711 C715 1.277 . S
O712 Co688 2.057 . S
O712 C727 1.263 . S
O713 Co700 2.042 1_565 S
O713 C728 1.237 1_565 S
O714 Co694 2.057 . S
O714 C701 1.263 . S
C715 O705 1.221 1_565 S
C715 O711 1.277 . S
C716 C699 1.361 . S
C716 H717 0.960 . S
C716 H718 0.961 . S
C716 H719 0.961 . S
H717 C716 0.960 . S
H718 C716 0.961 . S
H719 C716 0.961 . S
C720 O704 1.221 1_545 S
C720 O708 1.277 . S
C721 O706 1.237 1_565 S
C721 O707 1.278 . S
H722 C690 0.931 . S
H723 C726 0.961 . S
H724 C726 0.961 . S
H725 C726 0.960 . S
C726 C692 1.361 . S
C726 H723 0.961 . S
C726 H724 0.961 . S
C726 H725 0.960 . S
C727 O703 1.253 . S
C727 O712 1.263 . S
C728 O710 1.278 . S
C728 O713 1.237 1_545 S
H729 C693 0.930 . S
H730 C697 0.930 . S
Co731 N732 2.034 . S
Co731 O746 2.262 . S
Co731 O750 1.958 . S
Co731 O754 1.950 . S
Co731 O755 2.057 . S
N732 Co731 2.034 . S
N732 C733 1.366 . S
N732 C735 1.332 . S
C733 N732 1.366 . S
C733 C736 1.377 . S
C733 H765 0.931 . S
N734 C735 1.346 . S
N734 C736 1.337 . S
C735 N732 1.332 . S
C735 N734 1.346 . S
C735 C769 1.361 . S
C736 C733 1.377 . S
C736 N734 1.337 . S
C736 H772 0.930 . S
Co737 N738 2.034 . S
Co737 O751 1.950 . S
Co737 O752 2.262 . S
Co737 O753 1.958 . S
Co737 O757 2.057 . S
N738 Co737 2.034 . S
N738 C741 1.366 . S
N738 C742 1.332 . S
N739 C740 1.337 . S
N739 C742 1.346 . S
C740 N739 1.337 . S
C740 C741 1.377 . S
C740 H773 0.930 . S
C741 N738 1.366 . S
C741 C740 1.377 . S
C741 H745 0.931 . S
C742 N738 1.332 . S
C742 N739 1.346 . S
C742 C759 1.361 . S
Co743 O746 2.097 . S
Co743 O747 2.065 . S
Co743 O748 2.065 . S
Co743 O749 2.042 . S
Co743 O752 2.097 . S
Co743 O756 2.042 . S
C744 O752 1.253 . S
C744 O757 1.263 . S
H745 C741 0.931 . S
O746 Co731 2.262 . S
O746 Co743 2.097 . S
O746 C770 1.253 . S
O747 Co743 2.065 . S
O747 C763 1.221 . S
O748 Co743 2.065 . S
O748 C758 1.221 . S
O749 Co743 2.042 . S
O749 C764 1.237 . S
O750 Co731 1.958 . S
O750 C764 1.278 . S
O751 Co737 1.950 . S
O751 C763 1.277 . S
O752 Co737 2.262 . S
O752 Co743 2.097 . S
O752 C744 1.253 . S
O753 Co737 1.958 . S
O753 C771 1.278 . S
O754 Co731 1.950 . S
O754 C758 1.277 . S
O755 Co731 2.057 . S
O755 C770 1.263 . S
O756 Co743 2.042 . S
O756 C771 1.237 . S
O757 Co737 2.057 . S
O757 C744 1.263 . S
C758 O748 1.221 . S
C758 O754 1.277 . S
C759 C742 1.361 . S
C759 H760 0.960 . S
C759 H761 0.961 . S
C759 H762 0.961 . S
H760 C759 0.960 . S
H761 C759 0.961 . S
H762 C759 0.961 . S
C763 O747 1.221 . S
C763 O751 1.277 . S
C764 O749 1.237 . S
C764 O750 1.278 . S
H765 C733 0.931 . S
H766 C769 0.961 . S
H767 C769 0.961 . S
H768 C769 0.960 . S
C769 C735 1.361 . S
C769 H766 0.961 . S
C769 H767 0.961 . S
C769 H768 0.960 . S
C770 O746 1.253 . S
C770 O755 1.263 . S
C771 O753 1.278 . S
C771 O756 1.237 . S
H772 C736 0.930 . S
H773 C740 0.930 . S
Co774 N775 2.034 . S
Co774 O789 2.262 . S
Co774 O793 1.958 . S
Co774 O797 1.950 . S
Co774 O798 2.057 . S
N775 Co774 2.034 . S
N775 C776 1.366 . S
N775 C778 1.332 . S
C776 N775 1.366 . S
C776 C779 1.377 . S
C776 H808 0.931 . S
N777 C778 1.346 . S
N777 C779 1.337 . S
C778 N775 1.332 . S
C778 N777 1.346 . S
C778 C812 1.361 . S
C779 C776 1.377 . S
C779 N777 1.337 . S
C779 H815 0.930 . S
Co780 N781 2.034 . S
Co780 O794 1.950 . S
Co780 O795 2.262 . S
Co780 O796 1.958 . S
Co780 O800 2.057 . S
N781 Co780 2.034 . S
N781 C784 1.366 . S
N781 C785 1.332 . S
N782 C783 1.337 . S
N782 C785 1.346 . S
C783 N782 1.337 . S
C783 C784 1.377 . S
C783 H816 0.930 . S
C784 N781 1.366 . S
C784 C783 1.377 . S
C784 H788 0.931 . S
C785 N781 1.332 . S
C785 N782 1.346 . S
C785 C802 1.361 . S
Co786 O789 2.097 . S
Co786 O790 2.065 . S
Co786 O791 2.065 . S
Co786 O792 2.042 . S
Co786 O795 2.097 . S
Co786 O799 2.042 . S
C787 O795 1.253 . S
C787 O800 1.263 . S
H788 C784 0.931 . S
O789 Co774 2.262 . S
O789 Co786 2.097 . S
O789 C813 1.253 . S
O790 Co786 2.065 . S
O790 C806 1.221 . S
O791 Co786 2.065 . S
O791 C801 1.221 . S
O792 Co786 2.042 . S
O792 C807 1.237 . S
O793 Co774 1.958 . S
O793 C807 1.278 . S
O794 Co780 1.950 . S
O794 C806 1.277 . S
O795 Co780 2.262 . S
O795 Co786 2.097 . S
O795 C787 1.253 . S
O796 Co780 1.958 . S
O796 C814 1.278 . S
O797 Co774 1.950 . S
O797 C801 1.277 . S
O798 Co774 2.057 . S
O798 C813 1.263 . S
O799 Co786 2.042 . S
O799 C814 1.237 . S
O800 Co780 2.057 . S
O800 C787 1.263 . S
C801 O791 1.221 . S
C801 O797 1.277 . S
C802 C785 1.361 . S
C802 H803 0.960 . S
C802 H804 0.961 . S
C802 H805 0.961 . S
H803 C802 0.960 . S
H804 C802 0.961 . S
H805 C802 0.961 . S
C806 O790 1.221 . S
C806 O794 1.277 . S
C807 O792 1.237 . S
C807 O793 1.278 . S
H808 C776 0.931 . S
H809 C812 0.961 . S
H810 C812 0.961 . S
H811 C812 0.960 . S
C812 C778 1.361 . S
C812 H809 0.961 . S
C812 H810 0.961 . S
C812 H811 0.960 . S
C813 O789 1.253 . S
C813 O798 1.263 . S
C814 O796 1.278 . S
C814 O799 1.237 . S
H815 C779 0.930 . S
H816 C783 0.930 . S
Co817 N818 2.034 . S
Co817 O832 2.262 . S
Co817 O836 1.958 . S
Co817 O840 1.950 . S
Co817 O841 2.057 . S
N818 Co817 2.034 . S
N818 C819 1.366 . S
N818 C821 1.332 . S
C819 N818 1.366 . S
C819 C822 1.377 . S
C819 H851 0.931 . S
N820 C821 1.346 . S
N820 C822 1.337 . S
C821 N818 1.332 . S
C821 N820 1.346 . S
C821 C855 1.361 . S
C822 C819 1.377 . S
C822 N820 1.337 . S
C822 H858 0.930 . S
Co823 N824 2.034 . S
Co823 O837 1.950 . S
Co823 O838 2.262 . S
Co823 O839 1.958 . S
Co823 O843 2.057 . S
N824 Co823 2.034 . S
N824 C827 1.366 . S
N824 C828 1.332 . S
N825 C826 1.337 . S
N825 C828 1.346 . S
C826 N825 1.337 . S
C826 C827 1.377 . S
C826 H859 0.930 . S
C827 N824 1.366 . S
C827 C826 1.377 . S
C827 H831 0.931 . S
C828 N824 1.332 . S
C828 N825 1.346 . S
C828 C845 1.361 . S
Co829 O832 2.097 . S
Co829 O833 2.065 . S
Co829 O834 2.065 . S
Co829 O835 2.042 . S
Co829 O838 2.097 . S
Co829 O842 2.042 . S
C830 O838 1.253 . S
C830 O843 1.263 . S
H831 C827 0.931 . S
O832 Co817 2.262 . S
O832 Co829 2.097 . S
O832 C856 1.253 . S
O833 Co829 2.065 . S
O833 C849 1.221 . S
O834 Co829 2.065 . S
O834 C844 1.221 . S
O835 Co829 2.042 . S
O835 C850 1.237 . S
O836 Co817 1.958 . S
O836 C850 1.278 . S
O837 Co823 1.950 . S
O837 C849 1.277 . S
O838 Co823 2.262 . S
O838 Co829 2.097 . S
O838 C830 1.253 . S
O839 Co823 1.958 . S
O839 C857 1.278 . S
O840 Co817 1.950 . S
O840 C844 1.277 . S
O841 Co817 2.057 . S
O841 C856 1.263 . S
O842 Co829 2.042 . S
O842 C857 1.237 . S
O843 Co823 2.057 . S
O843 C830 1.263 . S
C844 O834 1.221 . S
C844 O840 1.277 . S
C845 C828 1.361 . S
C845 H846 0.960 . S
C845 H847 0.961 . S
C845 H848 0.961 . S
H846 C845 0.960 . S
H847 C845 0.961 . S
H848 C845 0.961 . S
C849 O833 1.221 . S
C849 O837 1.277 . S
C850 O835 1.237 . S
C850 O836 1.278 . S
H851 C819 0.931 . S
H852 C855 0.961 . S
H853 C855 0.961 . S
H854 C855 0.960 . S
C855 C821 1.361 . S
C855 H852 0.961 . S
C855 H853 0.961 . S
C855 H854 0.960 . S
C856 O832 1.253 . S
C856 O841 1.263 . S
C857 O839 1.278 . S
C857 O842 1.237 . S
H858 C822 0.930 . S
H859 C826 0.930 . S
Co860 N861 2.034 . S
Co860 O875 2.262 . S
Co860 O879 1.958 . S
Co860 O883 1.950 . S
Co860 O884 2.057 . S
N861 Co860 2.034 . S
N861 C862 1.366 . S
N861 C864 1.332 . S
C862 N861 1.366 . S
C862 C865 1.377 . S
C862 H894 0.931 . S
N863 C864 1.346 . S
N863 C865 1.337 . S
C864 N861 1.332 . S
C864 N863 1.346 . S
C864 C898 1.361 . S
C865 C862 1.377 . S
C865 N863 1.337 . S
C865 H901 0.930 . S
Co866 N867 2.034 . S
Co866 O880 1.950 . S
Co866 O881 2.262 . S
Co866 O882 1.958 . S
Co866 O886 2.057 . S
N867 Co866 2.034 . S
N867 C870 1.366 . S
N867 C871 1.332 . S
N868 C869 1.337 . S
N868 C871 1.346 . S
C869 N868 1.337 . S
C869 C870 1.377 . S
C869 H902 0.930 . S
C870 N867 1.366 . S
C870 C869 1.377 . S
C870 H874 0.931 . S
C871 N867 1.332 . S
C871 N868 1.346 . S
C871 C888 1.361 . S
Co872 O875 2.097 1_554 S
Co872 O876 2.065 1_554 S
Co872 O877 2.065 . S
Co872 O878 2.042 . S
Co872 O881 2.097 . S
Co872 O885 2.042 1_554 S
C873 O881 1.253 . S
C873 O886 1.263 . S
H874 C870 0.931 . S
O875 Co860 2.262 . S
O875 Co872 2.097 1_556 S
O875 C899 1.253 . S
O876 Co872 2.065 1_556 S
O876 C892 1.221 1_556 S
O877 Co872 2.065 . S
O877 C887 1.221 1_554 S
O878 Co872 2.042 . S
O878 C893 1.237 1_554 S
O879 Co860 1.958 . S
O879 C893 1.278 . S
O880 Co866 1.950 . S
O880 C892 1.277 . S
O881 Co866 2.262 . S
O881 Co872 2.097 . S
O881 C873 1.253 . S
O882 Co866 1.958 . S
O882 C900 1.278 . S
O883 Co860 1.950 . S
O883 C887 1.277 . S
O884 Co860 2.057 . S
O884 C899 1.263 . S
O885 Co872 2.042 1_556 S
O885 C900 1.237 1_556 S
O886 Co866 2.057 . S
O886 C873 1.263 . S
C887 O877 1.221 1_556 S
C887 O883 1.277 . S
C888 C871 1.361 . S
C888 H889 0.960 . S
C888 H890 0.961 . S
C888 H891 0.961 . S
H889 C888 0.960 . S
H890 C888 0.961 . S
H891 C888 0.961 . S
C892 O876 1.221 1_554 S
C892 O880 1.277 . S
C893 O878 1.237 1_556 S
C893 O879 1.278 . S
H894 C862 0.931 . S
H895 C898 0.961 . S
H896 C898 0.961 . S
H897 C898 0.960 . S
C898 C864 1.361 . S
C898 H895 0.961 . S
C898 H896 0.961 . S
C898 H897 0.960 . S
C899 O875 1.253 . S
C899 O884 1.263 . S
C900 O882 1.278 . S
C900 O885 1.237 1_554 S
H901 C865 0.930 . S
H902 C869 0.930 . S
Co903 N904 2.034 . S
Co903 O918 2.262 . S
Co903 O922 1.958 . S
Co903 O926 1.950 . S
Co903 O927 2.057 . S
N904 Co903 2.034 . S
N904 C905 1.366 . S
N904 C907 1.332 . S
C905 N904 1.366 . S
C905 C908 1.377 . S
C905 H937 0.931 . S
N906 C907 1.346 . S
N906 C908 1.337 . S
C907 N904 1.332 . S
C907 N906 1.346 . S
C907 C941 1.361 . S
C908 C905 1.377 . S
C908 N906 1.337 . S
C908 H944 0.930 . S
Co909 N910 2.034 . S
Co909 O923 1.950 . S
Co909 O924 2.262 . S
Co909 O925 1.958 . S
Co909 O929 2.057 . S
N910 Co909 2.034 . S
N910 C913 1.366 . S
N910 C914 1.332 . S
N911 C912 1.337 . S
N911 C914 1.346 . S
C912 N911 1.337 . S
C912 C913 1.377 . S
C912 H945 0.930 . S
C913 N910 1.366 . S
C913 C912 1.377 . S
C913 H917 0.931 . S
C914 N910 1.332 . S
C914 N911 1.346 . S
C914 C931 1.361 . S
Co915 O918 2.097 . S
Co915 O919 2.065 . S
Co915 O920 2.065 . S
Co915 O921 2.042 . S
Co915 O924 2.097 . S
Co915 O928 2.042 . S
C916 O924 1.253 . S
C916 O929 1.263 . S
H917 C913 0.931 . S
O918 Co903 2.262 . S
O918 Co915 2.097 . S
O918 C942 1.253 . S
O919 Co915 2.065 . S
O919 C935 1.221 . S
O920 Co915 2.065 . S
O920 C930 1.221 . S
O921 Co915 2.042 . S
O921 C936 1.237 . S
O922 Co903 1.958 . S
O922 C936 1.278 . S
O923 Co909 1.950 . S
O923 C935 1.277 . S
O924 Co909 2.262 . S
O924 Co915 2.097 . S
O924 C916 1.253 . S
O925 Co909 1.958 . S
O925 C943 1.278 . S
O926 Co903 1.950 . S
O926 C930 1.277 . S
O927 Co903 2.057 . S
O927 C942 1.263 . S
O928 Co915 2.042 . S
O928 C943 1.237 . S
O929 Co909 2.057 . S
O929 C916 1.263 . S
C930 O920 1.221 . S
C930 O926 1.277 . S
C931 C914 1.361 . S
C931 H932 0.960 . S
C931 H933 0.961 . S
C931 H934 0.961 . S
H932 C931 0.960 . S
H933 C931 0.961 . S
H934 C931 0.961 . S
C935 O919 1.221 . S
C935 O923 1.277 . S
C936 O921 1.237 . S
C936 O922 1.278 . S
H937 C905 0.931 . S
H938 C941 0.961 . S
H939 C941 0.961 . S
H940 C941 0.960 . S
C941 C907 1.361 . S
C941 H938 0.961 . S
C941 H939 0.961 . S
C941 H940 0.960 . S
C942 O918 1.253 . S
C942 O927 1.263 . S
C943 O925 1.278 . S
C943 O928 1.237 . S
H944 C908 0.930 . S
H945 C912 0.930 . S
Co946 N947 2.034 . S
Co946 O961 2.262 . S
Co946 O965 1.958 . S
Co946 O969 1.950 . S
Co946 O970 2.057 . S
N947 Co946 2.034 . S
N947 C948 1.366 . S
N947 C950 1.332 . S
C948 N947 1.366 . S
C948 C951 1.377 . S
C948 H980 0.931 . S
N949 C950 1.346 . S
N949 C951 1.337 . S
C950 N947 1.332 . S
C950 N949 1.346 . S
C950 C984 1.361 . S
C951 C948 1.377 . S
C951 N949 1.337 . S
C951 H987 0.930 . S
Co952 N953 2.034 . S
Co952 O966 1.950 . S
Co952 O967 2.262 . S
Co952 O968 1.958 . S
Co952 O972 2.057 . S
N953 Co952 2.034 . S
N953 C956 1.366 . S
N953 C957 1.332 . S
N954 C955 1.337 . S
N954 C957 1.346 . S
C955 N954 1.337 . S
C955 C956 1.377 . S
C955 H988 0.930 . S
C956 N953 1.366 . S
C956 C955 1.377 . S
C956 H960 0.931 . S
C957 N953 1.332 . S
C957 N954 1.346 . S
C957 C974 1.361 . S
Co958 O961 2.097 . S
Co958 O962 2.065 . S
Co958 O963 2.065 . S
Co958 O964 2.042 . S
Co958 O967 2.097 . S
Co958 O971 2.042 . S
C959 O967 1.253 . S
C959 O972 1.263 . S
H960 C956 0.931 . S
O961 Co946 2.262 . S
O961 Co958 2.097 . S
O961 C985 1.253 . S
O962 Co958 2.065 . S
O962 C978 1.221 . S
O963 Co958 2.065 . S
O963 C973 1.221 . S
O964 Co958 2.042 . S
O964 C979 1.237 . S
O965 Co946 1.958 . S
O965 C979 1.278 . S
O966 Co952 1.950 . S
O966 C978 1.277 . S
O967 Co952 2.262 . S
O967 Co958 2.097 . S
O967 C959 1.253 . S
O968 Co952 1.958 . S
O968 C986 1.278 . S
O969 Co946 1.950 . S
O969 C973 1.277 . S
O970 Co946 2.057 . S
O970 C985 1.263 . S
O971 Co958 2.042 . S
O971 C986 1.237 . S
O972 Co952 2.057 . S
O972 C959 1.263 . S
C973 O963 1.221 . S
C973 O969 1.277 . S
C974 C957 1.361 . S
C974 H975 0.960 . S
C974 H976 0.961 . S
C974 H977 0.961 . S
H975 C974 0.960 . S
H976 C974 0.961 . S
H977 C974 0.961 . S
C978 O962 1.221 . S
C978 O966 1.277 . S
C979 O964 1.237 . S
C979 O965 1.278 . S
H980 C948 0.931 . S
H981 C984 0.961 . S
H982 C984 0.961 . S
H983 C984 0.960 . S
C984 C950 1.361 . S
C984 H981 0.961 . S
C984 H982 0.961 . S
C984 H983 0.960 . S
C985 O961 1.253 . S
C985 O970 1.263 . S
C986 O968 1.278 . S
C986 O971 1.237 . S
H987 C951 0.930 . S
H988 C955 0.930 . S
Co989 N990 2.034 . S
Co989 O1004 2.262 . S
Co989 O1008 1.958 . S
Co989 O1012 1.950 . S
Co989 O1013 2.057 . S
N990 Co989 2.034 . S
N990 C991 1.366 . S
N990 C993 1.332 . S
C991 N990 1.366 . S
C991 C994 1.377 . S
C991 H1023 0.931 . S
N992 C993 1.346 . S
N992 C994 1.337 . S
C993 N990 1.332 . S
C993 N992 1.346 . S
C993 C1027 1.361 . S
C994 C991 1.377 . S
C994 N992 1.337 . S
C994 H1030 0.930 . S
Co995 N996 2.034 . S
Co995 O1009 1.950 . S
Co995 O1010 2.262 . S
Co995 O1011 1.958 . S
Co995 O1015 2.057 . S
N996 Co995 2.034 . S
N996 C999 1.366 . S
N996 C1000 1.332 . S
N997 C998 1.337 . S
N997 C1000 1.346 . S
C998 N997 1.337 . S
C998 C999 1.377 . S
C998 H1031 0.930 . S
C999 N996 1.366 . S
C999 C998 1.377 . S
C999 H1003 0.931 . S
C1000 N996 1.332 . S
C1000 N997 1.346 . S
C1000 C1017 1.361 . S
Co1001 O1004 2.097 . S
Co1001 O1005 2.065 . S
Co1001 O1006 2.065 1_545 S
Co1001 O1007 2.042 1_545 S
Co1001 O1010 2.097 1_545 S
Co1001 O1014 2.042 . S
C1002 O1010 1.253 . S
C1002 O1015 1.263 . S
H1003 C999 0.931 . S
O1004 Co989 2.262 . S
O1004 Co1001 2.097 . S
O1004 C1028 1.253 . S
O1005 Co1001 2.065 . S
O1005 C1021 1.221 1_545 S
O1006 Co1001 2.065 1_565 S
O1006 C1016 1.221 1_565 S
O1007 Co1001 2.042 1_565 S
O1007 C1022 1.237 1_565 S
O1008 Co989 1.958 . S
O1008 C1022 1.278 . S
O1009 Co995 1.950 . S
O1009 C1021 1.277 . S
O1010 Co995 2.262 . S
O1010 Co1001 2.097 1_565 S
O1010 C1002 1.253 . S
O1011 Co995 1.958 . S
O1011 C1029 1.278 . S
O1012 Co989 1.950 . S
O1012 C1016 1.277 . S
O1013 Co989 2.057 . S
O1013 C1028 1.263 . S
O1014 Co1001 2.042 . S
O1014 C1029 1.237 1_545 S
O1015 Co995 2.057 . S
O1015 C1002 1.263 . S
C1016 O1006 1.221 1_545 S
C1016 O1012 1.277 . S
C1017 C1000 1.361 . S
C1017 H1018 0.960 . S
C1017 H1019 0.961 . S
C1017 H1020 0.961 . S
H1018 C1017 0.960 . S
H1019 C1017 0.961 . S
H1020 C1017 0.961 . S
C1021 O1005 1.221 1_565 S
C1021 O1009 1.277 . S
C1022 O1007 1.237 1_545 S
C1022 O1008 1.278 . S
H1023 C991 0.931 . S
H1024 C1027 0.961 . S
H1025 C1027 0.961 . S
H1026 C1027 0.960 . S
C1027 C993 1.361 . S
C1027 H1024 0.961 . S
C1027 H1025 0.961 . S
C1027 H1026 0.960 . S
C1028 O1004 1.253 . S
C1028 O1013 1.263 . S
C1029 O1011 1.278 . S
C1029 O1014 1.237 1_565 S
H1030 C994 0.930 . S
H1031 C998 0.930 . S
H1032 C1040 0.950 . S
H1033 C1045 0.950 . S
H1034 C1042 0.950 . S
H1035 C1044 0.950 . S
H1036 C1046 0.945 1_655 S
H1037 C1048 0.950 . S
H1038 C1050 0.950 . S
H1039 C1051 0.950 . S
C1040 H1032 0.950 . S
C1040 C1041 1.386 . S
C1040 C1042 1.391 . S
C1041 C1040 1.386 . S
C1041 C1045 1.393 . S
C1042 H1034 0.950 . S
C1042 C1040 1.391 . S
C1042 C1043 1.400 . S
C1043 C1042 1.400 . S
C1043 C1044 1.398 . S
C1043 C1049 1.491 . S
C1044 H1035 0.950 . S
C1044 C1043 1.398 . S
C1044 C1045 1.391 . S
C1045 H1033 0.950 . S
C1045 C1041 1.393 . S
C1045 C1044 1.391 . S
C1046 H1036 0.945 1_455 S
C1046 C1047 1.386 . S
C1046 C1048 1.391 . S
C1047 C1046 1.386 . S
C1047 C1051 1.393 . S
C1048 H1037 0.950 . S
C1048 C1046 1.391 . S
C1048 C1049 1.400 . S
C1049 C1043 1.491 . S
C1049 C1048 1.400 . S
C1049 C1050 1.398 . S
C1050 H1038 0.950 . S
C1050 C1049 1.398 . S
C1050 C1051 1.391 . S
C1051 H1039 0.950 . S
C1051 C1047 1.393 . S
C1051 C1050 1.391 . S
H1052 C1060 0.950 . S
H1053 C1065 0.950 . S
H1054 C1062 0.950 . S
H1055 C1064 0.950 . S
H1056 C1066 0.950 . S
H1057 C1068 0.950 . S
H1058 C1070 0.950 . S
H1059 C1071 0.950 . S
C1060 H1052 0.950 . S
C1060 C1061 1.386 . S
C1060 C1062 1.391 . S
C1061 C1060 1.386 . S
C1061 C1065 1.393 . S
C1062 H1054 0.950 . S
C1062 C1060 1.391 . S
C1062 C1063 1.400 . S
C1063 C1062 1.400 . S
C1063 C1064 1.398 . S
C1063 C1069 1.491 . S
C1064 H1055 0.950 . S
C1064 C1063 1.398 . S
C1064 C1065 1.391 . S
C1065 H1053 0.950 . S
C1065 C1061 1.393 . S
C1065 C1064 1.391 . S
C1066 H1056 0.950 . S
C1066 C1067 1.386 . S
C1066 C1068 1.391 . S
C1067 C1066 1.386 . S
C1067 C1071 1.393 . S
C1068 H1057 0.950 . S
C1068 C1066 1.391 . S
C1068 C1069 1.400 . S
C1069 C1063 1.491 . S
C1069 C1068 1.400 . S
C1069 C1070 1.398 . S
C1070 H1058 0.950 . S
C1070 C1069 1.398 . S
C1070 C1071 1.391 . S
C1071 H1059 0.950 . S
C1071 C1067 1.393 . S
C1071 C1070 1.391 . S
H1072 C1080 0.950 . S
H1073 C1085 0.950 . S
H1074 C1082 0.950 . S
H1075 C1084 0.950 . S
H1076 C1086 0.950 . S
H1077 C1088 0.950 . S
H1078 C1090 0.950 . S
H1079 C1091 0.950 . S
C1080 H1072 0.950 . S
C1080 C1081 1.386 . S
C1080 C1082 1.391 . S
C1081 C1080 1.386 . S
C1081 C1085 1.393 . S
C1082 H1074 0.950 . S
C1082 C1080 1.391 . S
C1082 C1083 1.400 . S
C1083 C1082 1.400 . S
C1083 C1084 1.398 . S
C1083 C1089 1.491 . S
C1084 H1075 0.950 . S
C1084 C1083 1.398 . S
C1084 C1085 1.391 . S
C1085 H1073 0.950 . S
C1085 C1081 1.393 . S
C1085 C1084 1.391 . S
C1086 H1076 0.950 . S
C1086 C1087 1.386 . S
C1086 C1088 1.391 . S
C1087 C1086 1.386 . S
C1087 C1091 1.393 . S
C1088 H1077 0.950 . S
C1088 C1086 1.391 . S
C1088 C1089 1.400 . S
C1089 C1083 1.491 . S
C1089 C1088 1.400 . S
C1089 C1090 1.398 . S
C1090 H1078 0.950 . S
C1090 C1089 1.398 . S
C1090 C1091 1.391 . S
C1091 H1079 0.950 . S
C1091 C1087 1.393 . S
C1091 C1090 1.391 . S
H1092 C1100 0.950 . S
H1093 C1105 0.950 . S
H1094 C1102 0.950 . S
H1095 C1104 0.950 . S
H1096 C1106 0.950 . S
H1097 C1108 0.950 . S
H1098 C1110 0.950 . S
H1099 C1111 0.950 . S
C1100 H1092 0.950 . S
C1100 C1101 1.386 . S
C1100 C1102 1.391 . S
C1101 C1100 1.386 . S
C1101 C1105 1.393 . S
C1102 H1094 0.950 . S
C1102 C1100 1.391 . S
C1102 C1103 1.400 . S
C1103 C1102 1.400 . S
C1103 C1104 1.398 . S
C1103 C1109 1.491 . S
C1104 H1095 0.950 . S
C1104 C1103 1.398 . S
C1104 C1105 1.391 . S
C1105 H1093 0.950 . S
C1105 C1101 1.393 . S
C1105 C1104 1.391 . S
C1106 H1096 0.950 . S
C1106 C1107 1.386 . S
C1106 C1108 1.391 . S
C1107 C1106 1.386 . S
C1107 C1111 1.393 . S
C1108 H1097 0.950 . S
C1108 C1106 1.391 . S
C1108 C1109 1.400 . S
C1109 C1103 1.491 . S
C1109 C1108 1.400 . S
C1109 C1110 1.398 . S
C1110 H1098 0.950 . S
C1110 C1109 1.398 . S
C1110 C1111 1.391 . S
C1111 H1099 0.950 . S
C1111 C1107 1.393 . S
C1111 C1110 1.391 . S
H1112 C1120 0.950 . S
H1113 C1125 0.950 . S
H1114 C1122 0.950 . S
H1115 C1124 0.950 1_655 S
H1116 C1126 0.950 . S
H1117 C1128 0.950 . S
H1118 C1130 0.950 . S
H1119 C1131 0.950 . S
C1120 H1112 0.950 . S
C1120 C1121 1.386 . S
C1120 C1122 1.391 . S
C1121 C1120 1.386 . S
C1121 C1125 1.393 1_455 S
C1122 H1114 0.950 . S
C1122 C1120 1.391 . S
C1122 C1123 1.400 . S
C1123 C1122 1.400 . S
C1123 C1124 1.398 . S
C1123 C1129 1.491 . S
C1124 H1115 0.950 1_455 S
C1124 C1123 1.398 . S
C1124 C1125 1.391 1_455 S
C1125 H1113 0.950 . S
C1125 C1121 1.393 1_655 S
C1125 C1124 1.391 1_655 S
C1126 H1116 0.950 . S
C1126 C1127 1.386 . S
C1126 C1128 1.391 . S
C1127 C1126 1.386 . S
C1127 C1131 1.393 . S
C1128 H1117 0.950 . S
C1128 C1126 1.391 . S
C1128 C1129 1.400 . S
C1129 C1123 1.491 . S
C1129 C1128 1.400 . S
C1129 C1130 1.398 . S
C1130 H1118 0.950 . S
C1130 C1129 1.398 . S
C1130 C1131 1.391 . S
C1131 H1119 0.950 . S
C1131 C1127 1.393 . S
C1131 C1130 1.391 . S
H1132 C1140 0.950 . S
H1133 C1145 0.950 . S
H1134 C1142 0.950 . S
H1135 C1144 0.950 . S
H1136 C1146 0.950 . S
H1137 C1148 0.950 . S
H1138 C1150 0.950 . S
H1139 C1151 0.950 . S
C1140 H1132 0.950 . S
C1140 C1141 1.386 . S
C1140 C1142 1.391 . S
C1141 C1140 1.386 . S
C1141 C1145 1.393 . S
C1142 H1134 0.950 . S
C1142 C1140 1.391 . S
C1142 C1143 1.400 . S
C1143 C1142 1.400 . S
C1143 C1144 1.398 . S
C1143 C1149 1.491 . S
C1144 H1135 0.950 . S
C1144 C1143 1.398 . S
C1144 C1145 1.391 . S
C1145 H1133 0.950 . S
C1145 C1141 1.393 . S
C1145 C1144 1.391 . S
C1146 H1136 0.950 . S
C1146 C1147 1.386 . S
C1146 C1148 1.391 . S
C1147 C1146 1.386 . S
C1147 C1151 1.393 . S
C1148 H1137 0.950 . S
C1148 C1146 1.391 . S
C1148 C1149 1.400 . S
C1149 C1143 1.491 . S
C1149 C1148 1.400 . S
C1149 C1150 1.398 . S
C1150 H1138 0.950 . S
C1150 C1149 1.398 . S
C1150 C1151 1.391 . S
C1151 H1139 0.950 . S
C1151 C1147 1.393 . S
C1151 C1150 1.391 . S
H1152 C1160 0.950 . S
H1153 C1165 0.950 . S
H1154 C1162 0.950 . S
H1155 C1164 0.950 . S
H1156 C1166 0.950 . S
H1157 C1168 0.950 . S
H1158 C1170 0.950 . S
H1159 C1171 0.950 . S
C1160 H1152 0.950 . S
C1160 C1161 1.386 . S
C1160 C1162 1.391 . S
C1161 C1160 1.386 . S
C1161 C1165 1.393 . S
C1162 H1154 0.950 . S
C1162 C1160 1.391 . S
C1162 C1163 1.400 . S
C1163 C1162 1.400 . S
C1163 C1164 1.398 . S
C1163 C1169 1.491 . S
C1164 H1155 0.950 . S
C1164 C1163 1.398 . S
C1164 C1165 1.391 . S
C1165 H1153 0.950 . S
C1165 C1161 1.393 . S
C1165 C1164 1.391 . S
C1166 H1156 0.950 . S
C1166 C1167 1.386 . S
C1166 C1168 1.391 . S
C1167 C1166 1.386 . S
C1167 C1171 1.393 . S
C1168 H1157 0.950 . S
C1168 C1166 1.391 . S
C1168 C1169 1.400 . S
C1169 C1163 1.491 . S
C1169 C1168 1.400 . S
C1169 C1170 1.398 . S
C1170 H1158 0.950 . S
C1170 C1169 1.398 . S
C1170 C1171 1.391 . S
C1171 H1159 0.950 . S
C1171 C1167 1.393 . S
C1171 C1170 1.391 . S
H1172 C1180 0.950 . S
H1173 C1185 0.950 . S
H1174 C1182 0.950 . S
H1175 C1184 0.950 1_554 S
H1176 C1186 0.950 . S
H1177 C1188 0.950 . S
H1178 C1190 0.950 . S
H1179 C1191 0.950 . S
C1180 H1172 0.950 . S
C1180 C1181 1.386 . S
C1180 C1182 1.391 . S
C1181 C1180 1.386 . S
C1181 C1185 1.393 1_556 S
C1182 H1174 0.950 . S
C1182 C1180 1.391 . S
C1182 C1183 1.400 . S
C1183 C1182 1.400 . S
C1183 C1184 1.398 . S
C1183 C1189 1.491 . S
C1184 H1175 0.950 1_556 S
C1184 C1183 1.398 . S
C1184 C1185 1.391 1_556 S
C1185 H1173 0.950 . S
C1185 C1181 1.393 1_554 S
C1185 C1184 1.391 1_554 S
C1186 H1176 0.950 . S
C1186 C1187 1.386 . S
C1186 C1188 1.391 . S
C1187 C1186 1.386 . S
C1187 C1191 1.393 . S
C1188 H1177 0.950 . S
C1188 C1186 1.391 . S
C1188 C1189 1.400 . S
C1189 C1183 1.491 . S
C1189 C1188 1.400 . S
C1189 C1190 1.398 . S
C1190 H1178 0.950 . S
C1190 C1189 1.398 . S
C1190 C1191 1.391 . S
C1191 H1179 0.950 . S
C1191 C1187 1.393 . S
C1191 C1190 1.391 . S
H1192 C1200 0.950 . S
H1193 C1205 0.950 . S
H1194 C1202 0.950 . S
H1195 C1204 0.950 . S
H1196 C1206 0.950 . S
H1197 C1208 0.950 . S
H1198 C1210 0.950 . S
H1199 C1211 0.950 . S
C1200 H1192 0.950 . S
C1200 C1201 1.386 . S
C1200 C1202 1.391 . S
C1201 C1200 1.386 . S
C1201 C1205 1.393 . S
C1202 H1194 0.950 . S
C1202 C1200 1.391 . S
C1202 C1203 1.400 . S
C1203 C1202 1.400 . S
C1203 C1204 1.398 . S
C1203 C1209 1.491 . S
C1204 H1195 0.950 . S
C1204 C1203 1.398 . S
C1204 C1205 1.391 . S
C1205 H1193 0.950 . S
C1205 C1201 1.393 . S
C1205 C1204 1.391 . S
C1206 H1196 0.950 . S
C1206 C1207 1.386 . S
C1206 C1208 1.391 . S
C1207 C1206 1.386 . S
C1207 C1211 1.393 . S
C1208 H1197 0.950 . S
C1208 C1206 1.391 . S
C1208 C1209 1.400 . S
C1209 C1203 1.491 . S
C1209 C1208 1.400 . S
C1209 C1210 1.398 . S
C1210 H1198 0.950 . S
C1210 C1209 1.398 . S
C1210 C1211 1.391 . S
C1211 H1199 0.950 . S
C1211 C1207 1.393 . S
C1211 C1210 1.391 . S
H1212 C1220 0.954 . S
H1213 C1225 0.950 . S
H1214 C1222 0.950 . S
H1215 C1224 0.950 . S
H1216 C1226 0.950 . S
H1217 C1228 0.950 . S
H1218 C1230 0.950 . S
H1219 C1231 0.950 . S
C1220 H1212 0.954 . S
C1220 C1221 1.384 1_565 S
C1220 C1222 1.389 1_565 S
C1221 C1220 1.384 1_545 S
C1221 C1225 1.393 . S
C1222 H1214 0.950 . S
C1222 C1220 1.389 1_545 S
C1222 C1223 1.400 . S
C1223 C1222 1.400 . S
C1223 C1224 1.398 . S
C1223 C1229 1.491 . S
C1224 H1215 0.950 . S
C1224 C1223 1.398 . S
C1224 C1225 1.391 . S
C1225 H1213 0.950 . S
C1225 C1221 1.393 . S
C1225 C1224 1.391 . S
C1226 H1216 0.950 . S
C1226 C1227 1.386 . S
C1226 C1228 1.391 . S
C1227 C1226 1.386 . S
C1227 C1231 1.393 . S
C1228 H1217 0.950 . S
C1228 C1226 1.391 . S
C1228 C1229 1.400 . S
C1229 C1223 1.491 . S
C1229 C1228 1.400 . S
C1229 C1230 1.398 . S
C1230 H1218 0.950 . S
C1230 C1229 1.398 . S
C1230 C1231 1.391 . S
C1231 H1219 0.950 . S
C1231 C1227 1.393 . S
C1231 C1230 1.391 . S
H1232 C1240 0.950 . S
H1233 C1245 0.950 . S
H1234 C1242 0.950 . S
H1235 C1244 0.950 . S
H1236 C1246 0.950 . S
H1237 C1248 0.950 . S
H1238 C1250 0.950 . S
H1239 C1251 0.950 . S
C1240 H1232 0.950 . S
C1240 C1241 1.386 . S
C1240 C1242 1.391 . S
C1241 C1240 1.386 . S
C1241 C1245 1.393 . S
C1242 H1234 0.950 . S
C1242 C1240 1.391 . S
C1242 C1243 1.400 . S
C1243 C1242 1.400 . S
C1243 C1244 1.398 . S
C1243 C1249 1.491 . S
C1244 H1235 0.950 . S
C1244 C1243 1.398 . S
C1244 C1245 1.391 . S
C1245 H1233 0.950 . S
C1245 C1241 1.393 . S
C1245 C1244 1.391 . S
C1246 H1236 0.950 . S
C1246 C1247 1.386 . S
C1246 C1248 1.391 . S
C1247 C1246 1.386 . S
C1247 C1251 1.393 . S
C1248 H1237 0.950 . S
C1248 C1246 1.391 . S
C1248 C1249 1.400 . S
C1249 C1243 1.491 . S
C1249 C1248 1.400 . S
C1249 C1250 1.398 . S
C1250 H1238 0.950 . S
C1250 C1249 1.398 . S
C1250 C1251 1.391 . S
C1251 H1239 0.950 . S
C1251 C1247 1.393 . S
C1251 C1250 1.391 . S
H1252 C1260 0.950 . S
H1253 C1265 0.950 . S
H1254 C1262 0.950 1_545 S
H1255 C1264 0.950 . S
H1256 C1266 0.950 . S
H1257 C1268 0.950 . S
H1258 C1270 0.950 . S
H1259 C1271 0.950 . S
C1260 H1252 0.950 . S
C1260 C1261 1.386 1_545 S
C1260 C1262 1.391 1_545 S
C1261 C1260 1.386 1_565 S
C1261 C1265 1.393 . S
C1262 H1254 0.950 1_565 S
C1262 C1260 1.391 1_565 S
C1262 C1263 1.400 . S
C1263 C1262 1.400 . S
C1263 C1264 1.398 . S
C1263 C1269 1.491 . S
C1264 H1255 0.950 . S
C1264 C1263 1.398 . S
C1264 C1265 1.391 . S
C1265 H1253 0.950 . S
C1265 C1261 1.393 . S
C1265 C1264 1.391 . S
C1266 H1256 0.950 . S
C1266 C1267 1.386 . S
C1266 C1268 1.391 . S
C1267 C1266 1.386 . S
C1267 C1271 1.393 . S
C1268 H1257 0.950 . S
C1268 C1266 1.391 . S
C1268 C1269 1.400 . S
C1269 C1263 1.491 . S
C1269 C1268 1.400 . S
C1269 C1270 1.398 . S
C1270 H1258 0.950 . S
C1270 C1269 1.398 . S
C1270 C1271 1.391 . S
C1271 H1259 0.950 . S
C1271 C1267 1.393 . S
C1271 C1270 1.391 . S
H1272 C1280 0.950 . S
H1273 C1285 0.950 . S
H1274 C1282 0.950 . S
H1275 C1284 0.950 . S
H1276 C1286 0.950 . S
H1277 C1288 0.950 . S
H1278 C1290 0.950 . S
H1279 C1291 0.950 . S
C1280 H1272 0.950 . S
C1280 C1281 1.386 . S
C1280 C1282 1.391 . S
C1281 C1280 1.386 . S
C1281 C1285 1.393 . S
C1282 H1274 0.950 . S
C1282 C1280 1.391 . S
C1282 C1283 1.400 . S
C1283 C1282 1.400 . S
C1283 C1284 1.398 . S
C1283 C1289 1.491 . S
C1284 H1275 0.950 . S
C1284 C1283 1.398 . S
C1284 C1285 1.391 . S
C1285 H1273 0.950 . S
C1285 C1281 1.393 . S
C1285 C1284 1.391 . S
C1286 H1276 0.950 . S
C1286 C1287 1.386 . S
C1286 C1288 1.391 . S
C1287 C1286 1.386 . S
C1287 C1291 1.393 . S
C1288 H1277 0.950 . S
C1288 C1286 1.391 . S
C1288 C1289 1.400 . S
C1289 C1283 1.491 . S
C1289 C1288 1.400 . S
C1289 C1290 1.398 . S
C1290 H1278 0.950 . S
C1290 C1289 1.398 . S
C1290 C1291 1.391 . S
C1291 H1279 0.950 . S
C1291 C1287 1.393 . S
C1291 C1290 1.391 . S
H1292 C1300 0.950 . S
H1293 C1305 0.950 . S
H1294 C1302 0.950 . S
H1295 C1304 0.950 1_455 S
H1296 C1306 0.950 . S
H1297 C1308 0.950 . S
H1298 C1310 0.950 . S
H1299 C1311 0.950 . S
C1300 H1292 0.950 . S
C1300 C1301 1.386 . S
C1300 C1302 1.391 . S
C1301 C1300 1.386 . S
C1301 C1305 1.393 1_655 S
C1302 H1294 0.950 . S
C1302 C1300 1.391 . S
C1302 C1303 1.400 . S
C1303 C1302 1.400 . S
C1303 C1304 1.398 . S
C1303 C1309 1.491 . S
C1304 H1295 0.950 1_655 S
C1304 C1303 1.398 . S
C1304 C1305 1.391 1_655 S
C1305 H1293 0.950 . S
C1305 C1301 1.393 1_455 S
C1305 C1304 1.391 1_455 S
C1306 H1296 0.950 . S
C1306 C1307 1.386 . S
C1306 C1308 1.391 . S
C1307 C1306 1.386 . S
C1307 C1311 1.393 . S
C1308 H1297 0.950 . S
C1308 C1306 1.391 . S
C1308 C1309 1.400 . S
C1309 C1303 1.491 . S
C1309 C1308 1.400 . S
C1309 C1310 1.398 . S
C1310 H1298 0.950 . S
C1310 C1309 1.398 . S
C1310 C1311 1.391 . S
C1311 H1299 0.950 . S
C1311 C1307 1.393 . S
C1311 C1310 1.391 . S
H1312 C1320 0.950 . S
H1313 C1325 0.950 . S
H1314 C1322 0.950 . S
H1315 C1324 0.950 . S
H1316 C1326 0.950 . S
H1317 C1328 0.950 . S
H1318 C1330 0.950 . S
H1319 C1331 0.950 . S
C1320 H1312 0.950 . S
C1320 C1321 1.386 . S
C1320 C1322 1.391 . S
C1321 C1320 1.386 . S
C1321 C1325 1.393 . S
C1322 H1314 0.950 . S
C1322 C1320 1.391 . S
C1322 C1323 1.400 . S
C1323 C1322 1.400 . S
C1323 C1324 1.398 . S
C1323 C1329 1.491 . S
C1324 H1315 0.950 . S
C1324 C1323 1.398 . S
C1324 C1325 1.391 . S
C1325 H1313 0.950 . S
C1325 C1321 1.393 . S
C1325 C1324 1.391 . S
C1326 H1316 0.950 . S
C1326 C1327 1.386 . S
C1326 C1328 1.391 . S
C1327 C1326 1.386 . S
C1327 C1331 1.393 . S
C1328 H1317 0.950 . S
C1328 C1326 1.391 . S
C1328 C1329 1.400 . S
C1329 C1323 1.491 . S
C1329 C1328 1.400 . S
C1329 C1330 1.398 . S
C1330 H1318 0.950 . S
C1330 C1329 1.398 . S
C1330 C1331 1.391 . S
C1331 H1319 0.950 . S
C1331 C1327 1.393 . S
C1331 C1330 1.391 . S
H1332 C1340 0.950 . S
H1333 C1345 0.950 . S
H1334 C1342 0.950 . S
H1335 C1344 0.950 . S
H1336 C1346 0.950 . S
H1337 C1348 0.950 . S
H1338 C1350 0.950 . S
H1339 C1351 0.950 . S
C1340 H1332 0.950 . S
C1340 C1341 1.386 . S
C1340 C1342 1.391 . S
C1341 C1340 1.386 . S
C1341 C1345 1.393 . S
C1342 H1334 0.950 . S
C1342 C1340 1.391 . S
C1342 C1343 1.400 . S
C1343 C1342 1.400 . S
C1343 C1344 1.398 . S
C1343 C1349 1.491 . S
C1344 H1335 0.950 . S
C1344 C1343 1.398 . S
C1344 C1345 1.391 . S
C1345 H1333 0.950 . S
C1345 C1341 1.393 . S
C1345 C1344 1.391 . S
C1346 H1336 0.950 . S
C1346 C1347 1.386 . S
C1346 C1348 1.391 . S
C1347 C1346 1.386 . S
C1347 C1351 1.393 . S
C1348 H1337 0.950 . S
C1348 C1346 1.391 . S
C1348 C1349 1.400 . S
C1349 C1343 1.491 . S
C1349 C1348 1.400 . S
C1349 C1350 1.398 . S
C1350 H1338 0.950 . S
C1350 C1349 1.398 . S
C1350 C1351 1.391 . S
C1351 H1339 0.950 . S
C1351 C1347 1.393 . S
C1351 C1350 1.391 . S
H1352 C1360 0.950 . S
H1353 C1365 0.950 . S
H1354 C1362 0.950 . S
H1355 C1364 0.950 . S
H1356 C1366 0.950 . S
H1357 C1368 0.950 . S
H1358 C1370 0.950 . S
H1359 C1371 0.950 . S
C1360 H1352 0.950 . S
C1360 C1361 1.386 . S
C1360 C1362 1.391 . S
C1361 C1360 1.386 . S
C1361 C1365 1.393 . S
C1362 H1354 0.950 . S
C1362 C1360 1.391 . S
C1362 C1363 1.400 . S
C1363 C1362 1.400 . S
C1363 C1364 1.398 . S
C1363 C1369 1.491 . S
C1364 H1355 0.950 . S
C1364 C1363 1.398 . S
C1364 C1365 1.391 . S
C1365 H1353 0.950 . S
C1365 C1361 1.393 . S
C1365 C1364 1.391 . S
C1366 H1356 0.950 . S
C1366 C1367 1.386 1_455 S
C1366 C1368 1.391 1_455 S
C1367 C1366 1.386 1_655 S
C1367 C1371 1.393 . S
C1368 H1357 0.950 . S
C1368 C1366 1.391 1_655 S
C1368 C1369 1.400 . S
C1369 C1363 1.491 . S
C1369 C1368 1.400 . S
C1369 C1370 1.398 . S
C1370 H1358 0.950 . S
C1370 C1369 1.398 . S
C1370 C1371 1.391 . S
C1371 H1359 0.950 . S
C1371 C1367 1.393 . S
C1371 C1370 1.391 . S
H1372 C1380 0.950 . S
H1373 C1385 0.950 . S
H1374 C1382 0.950 . S
H1375 C1384 0.950 . S
H1376 C1386 0.950 . S
H1377 C1388 0.950 . S
H1378 C1390 0.950 . S
H1379 C1391 0.950 . S
C1380 H1372 0.950 . S
C1380 C1381 1.386 . S
C1380 C1382 1.391 . S
C1381 C1380 1.386 . S
C1381 C1385 1.393 . S
C1382 H1374 0.950 . S
C1382 C1380 1.391 . S
C1382 C1383 1.400 . S
C1383 C1382 1.400 . S
C1383 C1384 1.398 . S
C1383 C1389 1.491 . S
C1384 H1375 0.950 . S
C1384 C1383 1.398 . S
C1384 C1385 1.391 . S
C1385 H1373 0.950 . S
C1385 C1381 1.393 . S
C1385 C1384 1.391 . S
C1386 H1376 0.950 . S
C1386 C1387 1.386 . S
C1386 C1388 1.391 . S
C1387 C1386 1.386 . S
C1387 C1391 1.393 . S
C1388 H1377 0.950 . S
C1388 C1386 1.391 . S
C1388 C1389 1.400 . S
C1389 C1383 1.491 . S
C1389 C1388 1.400 . S
C1389 C1390 1.398 . S
C1390 H1378 0.950 . S
C1390 C1389 1.398 . S
C1390 C1391 1.391 . S
C1391 H1379 0.950 . S
C1391 C1387 1.393 . S
C1391 C1390 1.391 . S
H1392 C1400 0.950 . S
H1393 C1405 0.950 . S
H1394 C1402 0.950 1_554 S
H1395 C1404 0.950 . S
H1396 C1406 0.950 . S
H1397 C1408 0.950 . S
H1398 C1410 0.950 . S
H1399 C1411 0.950 . S
C1400 H1392 0.950 . S
C1400 C1401 1.386 1_554 S
C1400 C1402 1.391 1_554 S
C1401 C1400 1.386 1_556 S
C1401 C1405 1.393 . S
C1402 H1394 0.950 1_556 S
C1402 C1400 1.391 1_556 S
C1402 C1403 1.400 . S
C1403 C1402 1.400 . S
C1403 C1404 1.398 . S
C1403 C1409 1.491 . S
C1404 H1395 0.950 . S
C1404 C1403 1.398 . S
C1404 C1405 1.391 . S
C1405 H1393 0.950 . S
C1405 C1401 1.393 . S
C1405 C1404 1.391 . S
C1406 H1396 0.950 . S
C1406 C1407 1.386 . S
C1406 C1408 1.391 . S
C1407 C1406 1.386 . S
C1407 C1411 1.393 . S
C1408 H1397 0.950 . S
C1408 C1406 1.391 . S
C1408 C1409 1.400 . S
C1409 C1403 1.491 . S
C1409 C1408 1.400 . S
C1409 C1410 1.398 . S
C1410 H1398 0.950 . S
C1410 C1409 1.398 . S
C1410 C1411 1.391 . S
C1411 H1399 0.950 . S
C1411 C1407 1.393 . S
C1411 C1410 1.391 . S
H1412 C1420 0.950 . S
H1413 C1425 0.950 . S
H1414 C1422 0.950 . S
H1415 C1424 0.950 . S
H1416 C1426 0.950 . S
H1417 C1428 0.950 . S
H1418 C1430 0.950 . S
H1419 C1431 0.950 . S
C1420 H1412 0.950 . S
C1420 C1421 1.386 . S
C1420 C1422 1.391 . S
C1421 C1420 1.386 . S
C1421 C1425 1.393 . S
C1422 H1414 0.950 . S
C1422 C1420 1.391 . S
C1422 C1423 1.400 . S
C1423 C1422 1.400 . S
C1423 C1424 1.398 . S
C1423 C1429 1.491 . S
C1424 H1415 0.950 . S
C1424 C1423 1.398 . S
C1424 C1425 1.391 . S
C1425 H1413 0.950 . S
C1425 C1421 1.393 . S
C1425 C1424 1.391 . S
C1426 H1416 0.950 . S
C1426 C1427 1.386 . S
C1426 C1428 1.391 . S
C1427 C1426 1.386 . S
C1427 C1431 1.393 . S
C1428 H1417 0.950 . S
C1428 C1426 1.391 . S
C1428 C1429 1.400 . S
C1429 C1423 1.491 . S
C1429 C1428 1.400 . S
C1429 C1430 1.398 . S
C1430 H1418 0.950 . S
C1430 C1429 1.398 . S
C1430 C1431 1.391 . S
C1431 H1419 0.950 . S
C1431 C1427 1.393 . S
C1431 C1430 1.391 . S
H1432 C1440 0.950 . S
H1433 C1445 0.950 . S
H1434 C1442 0.950 . S
H1435 C1444 0.950 . S
H1436 C1446 0.950 . S
H1437 C1448 0.950 . S
H1438 C1450 0.950 . S
H1439 C1451 0.950 . S
C1440 H1432 0.950 . S
C1440 C1441 1.386 . S
C1440 C1442 1.391 . S
C1441 C1440 1.386 . S
C1441 C1445 1.393 . S
C1442 H1434 0.950 . S
C1442 C1440 1.391 . S
C1442 C1443 1.400 . S
C1443 C1442 1.400 . S
C1443 C1444 1.398 . S
C1443 C1449 1.491 . S
C1444 H1435 0.950 . S
C1444 C1443 1.398 . S
C1444 C1445 1.391 . S
C1445 H1433 0.950 . S
C1445 C1441 1.393 . S
C1445 C1444 1.391 . S
C1446 H1436 0.950 . S
C1446 C1447 1.386 . S
C1446 C1448 1.391 . S
C1447 C1446 1.386 . S
C1447 C1451 1.393 . S
C1448 H1437 0.950 . S
C1448 C1446 1.391 . S
C1448 C1449 1.400 . S
C1449 C1443 1.491 . S
C1449 C1448 1.400 . S
C1449 C1450 1.398 . S
C1450 H1438 0.950 . S
C1450 C1449 1.398 . S
C1450 C1451 1.391 . S
C1451 H1439 0.950 . S
C1451 C1447 1.393 . S
C1451 C1450 1.391 . S
H1452 C1460 0.950 . S
H1453 C1465 0.950 . S
H1454 C1462 0.950 . S
H1455 C1464 0.950 . S
H1456 C1466 0.950 . S
H1457 C1468 0.950 . S
H1458 C1470 0.950 . S
H1459 C1471 0.950 . S
C1460 H1452 0.950 . S
C1460 C1461 1.386 . S
C1460 C1462 1.391 . S
C1461 C1460 1.386 . S
C1461 C1465 1.393 . S
C1462 H1454 0.950 . S
C1462 C1460 1.391 . S
C1462 C1463 1.400 . S
C1463 C1462 1.400 . S
C1463 C1464 1.398 . S
C1463 C1469 1.491 . S
C1464 H1455 0.950 . S
C1464 C1463 1.398 . S
C1464 C1465 1.391 . S
C1465 H1453 0.950 . S
C1465 C1461 1.393 . S
C1465 C1464 1.391 . S
C1466 H1456 0.950 . S
C1466 C1467 1.386 . S
C1466 C1468 1.391 . S
C1467 C1466 1.386 . S
C1467 C1471 1.393 . S
C1468 H1457 0.950 . S
C1468 C1466 1.391 . S
C1468 C1469 1.400 . S
C1469 C1463 1.491 . S
C1469 C1468 1.400 . S
C1469 C1470 1.398 . S
C1470 H1458 0.950 . S
C1470 C1469 1.398 . S
C1470 C1471 1.391 . S
C1471 H1459 0.950 . S
C1471 C1467 1.393 . S
C1471 C1470 1.391 . S
H1472 C1480 0.950 . S
H1473 C1485 0.950 . S
H1474 C1482 0.950 . S
H1475 C1484 0.950 . S
H1476 C1486 0.950 . S
H1477 C1488 0.950 . S
H1478 C1490 0.950 . S
H1479 C1491 0.950 . S
C1480 H1472 0.950 . S
C1480 C1481 1.386 . S
C1480 C1482 1.391 . S
C1481 C1480 1.386 . S
C1481 C1485 1.393 . S
C1482 H1474 0.950 . S
C1482 C1480 1.391 . S
C1482 C1483 1.400 . S
C1483 C1482 1.400 . S
C1483 C1484 1.398 . S
C1483 C1489 1.491 . S
C1484 H1475 0.950 . S
C1484 C1483 1.398 . S
C1484 C1485 1.391 . S
C1485 H1473 0.950 . S
C1485 C1481 1.393 . S
C1485 C1484 1.391 . S
C1486 H1476 0.950 . S
C1486 C1487 1.386 . S
C1486 C1488 1.391 . S
C1487 C1486 1.386 . S
C1487 C1491 1.393 . S
C1488 H1477 0.950 . S
C1488 C1486 1.391 . S
C1488 C1489 1.400 . S
C1489 C1483 1.491 . S
C1489 C1488 1.400 . S
C1489 C1490 1.398 . S
C1490 H1478 0.950 . S
C1490 C1489 1.398 . S
C1490 C1491 1.391 . S
C1491 H1479 0.950 . S
C1491 C1487 1.393 . S
C1491 C1490 1.391 . S
H1492 C1500 0.950 . S
H1493 C1505 0.950 . S
H1494 C1502 0.950 . S
H1495 C1504 0.950 . S
H1496 C1506 0.950 . S
H1497 C1508 0.950 . S
H1498 C1510 0.950 . S
H1499 C1511 0.950 . S
C1500 H1492 0.950 . S
C1500 C1501 1.386 . S
C1500 C1502 1.391 . S
C1501 C1500 1.386 . S
C1501 C1505 1.393 . S
C1502 H1494 0.950 . S
C1502 C1500 1.391 . S
C1502 C1503 1.400 . S
C1503 C1502 1.400 . S
C1503 C1504 1.398 . S
C1503 C1509 1.491 . S
C1504 H1495 0.950 . S
C1504 C1503 1.398 . S
C1504 C1505 1.391 . S
C1505 H1493 0.950 . S
C1505 C1501 1.393 . S
C1505 C1504 1.391 . S
C1506 H1496 0.950 . S
C1506 C1507 1.386 . S
C1506 C1508 1.391 . S
C1507 C1506 1.386 . S
C1507 C1511 1.393 . S
C1508 H1497 0.950 . S
C1508 C1506 1.391 . S
C1508 C1509 1.400 . S
C1509 C1503 1.491 . S
C1509 C1508 1.400 . S
C1509 C1510 1.398 . S
C1510 H1498 0.950 . S
C1510 C1509 1.398 . S
C1510 C1511 1.391 . S
C1511 H1499 0.950 . S
C1511 C1507 1.393 . S
C1511 C1510 1.391 . S
H1512 C1520 0.950 . S
H1513 C1525 0.950 . S
H1514 C1522 0.950 . S
H1515 C1524 0.950 . S
H1516 C1526 0.950 . S
H1517 C1528 0.950 . S
H1518 C1530 0.950 . S
H1519 C1531 0.950 . S
C1520 H1512 0.950 . S
C1520 C1521 1.386 . S
C1520 C1522 1.391 . S
C1521 C1520 1.386 . S
C1521 C1525 1.393 . S
C1522 H1514 0.950 . S
C1522 C1520 1.391 . S
C1522 C1523 1.400 . S
C1523 C1522 1.400 . S
C1523 C1524 1.398 . S
C1523 C1529 1.491 . S
C1524 H1515 0.950 . S
C1524 C1523 1.398 . S
C1524 C1525 1.391 . S
C1525 H1513 0.950 . S
C1525 C1521 1.393 . S
C1525 C1524 1.391 . S
C1526 H1516 0.950 . S
C1526 C1527 1.386 . S
C1526 C1528 1.391 . S
C1527 C1526 1.386 . S
C1527 C1531 1.393 . S
C1528 H1517 0.950 . S
C1528 C1526 1.391 . S
C1528 C1529 1.400 . S
C1529 C1523 1.491 . S
C1529 C1528 1.400 . S
C1529 C1530 1.398 . S
C1530 H1518 0.950 . S
C1530 C1529 1.398 . S
C1530 C1531 1.391 . S
C1531 H1519 0.950 . S
C1531 C1527 1.393 . S
C1531 C1530 1.391 . S
H1532 C1540 0.950 . S
H1533 C1545 0.950 . S
H1534 C1542 0.950 . S
H1535 C1544 0.950 . S
H1536 C1546 0.950 . S
H1537 C1548 0.950 . S
H1538 C1550 0.950 . S
H1539 C1551 0.950 . S
C1540 H1532 0.950 . S
C1540 C1541 1.386 . S
C1540 C1542 1.391 . S
C1541 C1540 1.386 . S
C1541 C1545 1.393 . S
C1542 H1534 0.950 . S
C1542 C1540 1.391 . S
C1542 C1543 1.400 . S
C1543 C1542 1.400 . S
C1543 C1544 1.398 . S
C1543 C1549 1.491 . S
C1544 H1535 0.950 . S
C1544 C1543 1.398 . S
C1544 C1545 1.391 . S
C1545 H1533 0.950 . S
C1545 C1541 1.393 . S
C1545 C1544 1.391 . S
C1546 H1536 0.950 . S
C1546 C1547 1.386 . S
C1546 C1548 1.391 . S
C1547 C1546 1.386 . S
C1547 C1551 1.393 . S
C1548 H1537 0.950 . S
C1548 C1546 1.391 . S
C1548 C1549 1.400 . S
C1549 C1543 1.491 . S
C1549 C1548 1.400 . S
C1549 C1550 1.398 . S
C1550 H1538 0.950 . S
C1550 C1549 1.398 . S
C1550 C1551 1.391 . S
C1551 H1539 0.950 . S
C1551 C1547 1.393 . S
C1551 C1550 1.391 . S
H1552 C1560 0.950 . S
H1553 C1565 0.950 . S
H1554 C1562 0.950 . S
H1555 C1564 0.950 . S
H1556 C1566 0.950 . S
H1557 C1568 0.950 . S
H1558 C1570 0.950 . S
H1559 C1571 0.950 . S
C1560 H1552 0.950 . S
C1560 C1561 1.386 . S
C1560 C1562 1.391 . S
C1561 C1560 1.386 . S
C1561 C1565 1.393 . S
C1562 H1554 0.950 . S
C1562 C1560 1.391 . S
C1562 C1563 1.400 . S
C1563 C1562 1.400 . S
C1563 C1564 1.398 . S
C1563 C1569 1.491 . S
C1564 H1555 0.950 . S
C1564 C1563 1.398 . S
C1564 C1565 1.391 . S
C1565 H1553 0.950 . S
C1565 C1561 1.393 . S
C1565 C1564 1.391 . S
C1566 H1556 0.950 . S
C1566 C1567 1.386 . S
C1566 C1568 1.391 . S
C1567 C1566 1.386 . S
C1567 C1571 1.393 . S
C1568 H1557 0.950 . S
C1568 C1566 1.391 . S
C1568 C1569 1.400 . S
C1569 C1563 1.491 . S
C1569 C1568 1.400 . S
C1569 C1570 1.398 . S
C1570 H1558 0.950 . S
C1570 C1569 1.398 . S
C1570 C1571 1.391 . S
C1571 H1559 0.950 . S
C1571 C1567 1.393 . S
C1571 C1570 1.391 . S
H1572 C1580 0.950 . S
H1573 C1585 0.950 . S
H1574 C1582 0.950 . S
H1575 C1584 0.950 . S
H1576 C1586 0.950 . S
H1577 C1588 0.950 . S
H1578 C1590 0.950 . S
H1579 C1591 0.950 . S
C1580 H1572 0.950 . S
C1580 C1581 1.386 . S
C1580 C1582 1.391 . S
C1581 C1580 1.386 . S
C1581 C1585 1.393 . S
C1582 H1574 0.950 . S
C1582 C1580 1.391 . S
C1582 C1583 1.400 . S
C1583 C1582 1.400 . S
C1583 C1584 1.398 . S
C1583 C1589 1.491 . S
C1584 H1575 0.950 . S
C1584 C1583 1.398 . S
C1584 C1585 1.391 . S
C1585 H1573 0.950 . S
C1585 C1581 1.393 . S
C1585 C1584 1.391 . S
C1586 H1576 0.950 . S
C1586 C1587 1.386 . S
C1586 C1588 1.391 . S
C1587 C1586 1.386 . S
C1587 C1591 1.393 . S
C1588 H1577 0.950 . S
C1588 C1586 1.391 . S
C1588 C1589 1.400 . S
C1589 C1583 1.491 . S
C1589 C1588 1.400 . S
C1589 C1590 1.398 . S
C1590 H1578 0.950 . S
C1590 C1589 1.398 . S
C1590 C1591 1.391 . S
C1591 H1579 0.950 . S
C1591 C1587 1.393 . S
C1591 C1590 1.391 . S
H1592 C1600 0.950 . S
H1593 C1605 0.950 . S
H1594 C1602 0.950 . S
H1595 C1604 0.950 . S
H1596 C1606 0.950 . S
H1597 C1608 0.950 . S
H1598 C1610 0.950 . S
H1599 C1611 0.950 . S
C1600 H1592 0.950 . S
C1600 C1601 1.386 . S
C1600 C1602 1.391 . S
C1601 C1600 1.386 . S
C1601 C1605 1.393 . S
C1602 H1594 0.950 . S
C1602 C1600 1.391 . S
C1602 C1603 1.400 . S
C1603 C1602 1.400 . S
C1603 C1604 1.398 . S
C1603 C1609 1.491 . S
C1604 H1595 0.950 . S
C1604 C1603 1.398 . S
C1604 C1605 1.391 . S
C1605 H1593 0.950 . S
C1605 C1601 1.393 . S
C1605 C1604 1.391 . S
C1606 H1596 0.950 . S
C1606 C1607 1.386 . S
C1606 C1608 1.391 . S
C1607 C1606 1.386 . S
C1607 C1611 1.393 . S
C1608 H1597 0.950 . S
C1608 C1606 1.391 . S
C1608 C1609 1.400 . S
C1609 C1603 1.491 . S
C1609 C1608 1.400 . S
C1609 C1610 1.398 . S
C1610 H1598 0.950 . S
C1610 C1609 1.398 . S
C1610 C1611 1.391 . S
C1611 H1599 0.950 . S
C1611 C1607 1.393 . S
C1611 C1610 1.391 . S
H1612 C1620 0.950 . S
H1613 C1625 0.950 . S
H1614 C1622 0.950 . S
H1615 C1624 0.950 . S
H1616 C1626 0.950 . S
H1617 C1628 0.950 . S
H1618 C1630 0.950 . S
H1619 C1631 0.950 . S
C1620 H1612 0.950 . S
C1620 C1621 1.386 . S
C1620 C1622 1.391 . S
C1621 C1620 1.386 . S
C1621 C1625 1.393 . S
C1622 H1614 0.950 . S
C1622 C1620 1.391 . S
C1622 C1623 1.400 . S
C1623 C1622 1.400 . S
C1623 C1624 1.398 . S
C1623 C1629 1.491 . S
C1624 H1615 0.950 . S
C1624 C1623 1.398 . S
C1624 C1625 1.391 . S
C1625 H1613 0.950 . S
C1625 C1621 1.393 . S
C1625 C1624 1.391 . S
C1626 H1616 0.950 . S
C1626 C1627 1.386 . S
C1626 C1628 1.391 . S
C1627 C1626 1.386 . S
C1627 C1631 1.393 . S
C1628 H1617 0.950 . S
C1628 C1626 1.391 . S
C1628 C1629 1.400 . S
C1629 C1623 1.491 . S
C1629 C1628 1.400 . S
C1629 C1630 1.398 . S
C1630 H1618 0.950 . S
C1630 C1629 1.398 . S
C1630 C1631 1.391 . S
C1631 H1619 0.950 . S
C1631 C1627 1.393 . S
C1631 C1630 1.391 . S
H1632 C1640 0.950 . S
H1633 C1645 0.950 . S
H1634 C1642 0.950 . S
H1635 C1644 0.950 . S
H1636 C1646 0.950 . S
H1637 C1648 0.950 . S
H1638 C1650 0.950 . S
H1639 C1651 0.950 . S
C1640 H1632 0.950 . S
C1640 C1641 1.386 . S
C1640 C1642 1.391 . S
C1641 C1640 1.386 . S
C1641 C1645 1.393 . S
C1642 H1634 0.950 . S
C1642 C1640 1.391 . S
C1642 C1643 1.400 . S
C1643 C1642 1.400 . S
C1643 C1644 1.398 . S
C1643 C1649 1.491 . S
C1644 H1635 0.950 . S
C1644 C1643 1.398 . S
C1644 C1645 1.391 . S
C1645 H1633 0.950 . S
C1645 C1641 1.393 . S
C1645 C1644 1.391 . S
C1646 H1636 0.950 . S
C1646 C1647 1.386 . S
C1646 C1648 1.391 . S
C1647 C1646 1.386 . S
C1647 C1651 1.393 . S
C1648 H1637 0.950 . S
C1648 C1646 1.391 . S
C1648 C1649 1.400 . S
C1649 C1643 1.491 . S
C1649 C1648 1.400 . S
C1649 C1650 1.398 . S
C1650 H1638 0.950 . S
C1650 C1649 1.398 . S
C1650 C1651 1.391 . S
C1651 H1639 0.950 . S
C1651 C1647 1.393 . S
C1651 C1650 1.391 . S
H1652 C1660 0.950 . S
H1653 C1665 0.950 . S
H1654 C1662 0.950 . S
H1655 C1664 0.950 . S
H1656 C1666 0.950 . S
H1657 C1668 0.950 . S
H1658 C1670 0.950 . S
H1659 C1671 0.950 . S
C1660 H1652 0.950 . S
C1660 C1661 1.386 . S
C1660 C1662 1.391 . S
C1661 C1660 1.386 . S
C1661 C1665 1.393 . S
C1662 H1654 0.950 . S
C1662 C1660 1.391 . S
C1662 C1663 1.400 . S
C1663 C1662 1.400 . S
C1663 C1664 1.398 . S
C1663 C1669 1.491 . S
C1664 H1655 0.950 . S
C1664 C1663 1.398 . S
C1664 C1665 1.391 . S
C1665 H1653 0.950 . S
C1665 C1661 1.393 . S
C1665 C1664 1.391 . S
C1666 H1656 0.950 . S
C1666 C1667 1.386 . S
C1666 C1668 1.391 . S
C1667 C1666 1.386 . S
C1667 C1671 1.393 . S
C1668 H1657 0.950 . S
C1668 C1666 1.391 . S
C1668 C1669 1.400 . S
C1669 C1663 1.491 . S
C1669 C1668 1.400 . S
C1669 C1670 1.398 . S
C1670 H1658 0.950 . S
C1670 C1669 1.398 . S
C1670 C1671 1.391 . S
C1671 H1659 0.950 . S
C1671 C1667 1.393 . S
C1671 C1670 1.391 . S
H1672 C1680 0.950 . S
H1673 C1685 0.950 . S
H1674 C1682 0.950 . S
H1675 C1684 0.950 . S
H1676 C1686 0.950 . S
H1677 C1688 0.950 . S
H1678 C1690 0.950 . S
H1679 C1691 0.950 . S
C1680 H1672 0.950 . S
C1680 C1681 1.386 . S
C1680 C1682 1.391 . S
C1681 C1680 1.386 . S
C1681 C1685 1.393 . S
C1682 H1674 0.950 . S
C1682 C1680 1.391 . S
C1682 C1683 1.400 . S
C1683 C1682 1.400 . S
C1683 C1684 1.398 . S
C1683 C1689 1.491 . S
C1684 H1675 0.950 . S
C1684 C1683 1.398 . S
C1684 C1685 1.391 . S
C1685 H1673 0.950 . S
C1685 C1681 1.393 . S
C1685 C1684 1.391 . S
C1686 H1676 0.950 . S
C1686 C1687 1.386 . S
C1686 C1688 1.391 . S
C1687 C1686 1.386 . S
C1687 C1691 1.393 . S
C1688 H1677 0.950 . S
C1688 C1686 1.391 . S
C1688 C1689 1.400 . S
C1689 C1683 1.491 . S
C1689 C1688 1.400 . S
C1689 C1690 1.398 . S
C1690 H1678 0.950 . S
C1690 C1689 1.398 . S
C1690 C1691 1.391 . S
C1691 H1679 0.950 . S
C1691 C1687 1.393 . S
C1691 C1690 1.391 . S
H1692 C1700 0.950 . S
H1693 C1705 0.950 . S
H1694 C1702 0.950 . S
H1695 C1704 0.950 . S
H1696 C1706 0.950 . S
H1697 C1708 0.950 . S
H1698 C1710 0.950 . S
H1699 C1711 0.950 . S
C1700 H1692 0.950 . S
C1700 C1701 1.386 . S
C1700 C1702 1.391 . S
C1701 C1700 1.386 . S
C1701 C1705 1.393 . S
C1702 H1694 0.950 . S
C1702 C1700 1.391 . S
C1702 C1703 1.400 . S
C1703 C1702 1.400 . S
C1703 C1704 1.398 . S
C1703 C1709 1.491 . S
C1704 H1695 0.950 . S
C1704 C1703 1.398 . S
C1704 C1705 1.391 . S
C1705 H1693 0.950 . S
C1705 C1701 1.393 . S
C1705 C1704 1.391 . S
C1706 H1696 0.950 . S
C1706 C1707 1.386 . S
C1706 C1708 1.391 . S
C1707 C1706 1.386 . S
C1707 C1711 1.393 . S
C1708 H1697 0.950 . S
C1708 C1706 1.391 . S
C1708 C1709 1.400 . S
C1709 C1703 1.491 . S
C1709 C1708 1.400 . S
C1709 C1710 1.398 . S
C1710 H1698 0.950 . S
C1710 C1709 1.398 . S
C1710 C1711 1.391 . S
C1711 H1699 0.950 . S
C1711 C1707 1.393 . S
C1711 C1710 1.391 . S
H1712 C1720 0.950 . S
H1713 C1725 0.950 . S
H1714 C1722 0.950 . S
H1715 C1724 0.950 . S
H1716 C1726 0.950 . S
H1717 C1728 0.950 . S
H1718 C1730 0.950 . S
H1719 C1731 0.954 . S
C1720 H1712 0.950 . S
C1720 C1721 1.386 . S
C1720 C1722 1.391 . S
C1721 C1720 1.386 . S
C1721 C1725 1.393 . S
C1722 H1714 0.950 . S
C1722 C1720 1.391 . S
C1722 C1723 1.400 . S
C1723 C1722 1.400 . S
C1723 C1724 1.398 . S
C1723 C1729 1.491 . S
C1724 H1715 0.950 . S
C1724 C1723 1.398 . S
C1724 C1725 1.391 . S
C1725 H1713 0.950 . S
C1725 C1721 1.393 . S
C1725 C1724 1.391 . S
C1726 H1716 0.950 . S
C1726 C1727 1.386 . S
C1726 C1728 1.391 . S
C1727 C1726 1.386 . S
C1727 C1731 1.393 . S
C1728 H1717 0.950 . S
C1728 C1726 1.391 . S
C1728 C1729 1.400 . S
C1729 C1723 1.491 . S
C1729 C1728 1.400 . S
C1729 C1730 1.398 . S
C1730 H1718 0.950 . S
C1730 C1729 1.398 . S
C1730 C1731 1.391 . S
C1731 H1719 0.954 . S
C1731 C1727 1.393 . S
C1731 C1730 1.391 . S
H1732 C1740 0.950 . S
H1733 C1745 0.950 . S
H1734 C1742 0.950 . S
H1735 C1744 0.950 . S
H1736 C1746 0.950 . S
H1737 C1748 0.950 . S
H1738 C1750 0.950 . S
H1739 C1751 0.950 . S
C1740 H1732 0.950 . S
C1740 C1741 1.386 . S
C1740 C1742 1.391 . S
C1741 C1740 1.386 . S
C1741 C1745 1.393 . S
C1742 H1734 0.950 . S
C1742 C1740 1.391 . S
C1742 C1743 1.400 . S
C1743 C1742 1.400 . S
C1743 C1744 1.398 . S
C1743 C1749 1.491 . S
C1744 H1735 0.950 . S
C1744 C1743 1.398 . S
C1744 C1745 1.391 . S
C1745 H1733 0.950 . S
C1745 C1741 1.393 . S
C1745 C1744 1.391 . S
C1746 H1736 0.950 . S
C1746 C1747 1.386 . S
C1746 C1748 1.391 . S
C1747 C1746 1.386 . S
C1747 C1751 1.393 . S
C1748 H1737 0.950 . S
C1748 C1746 1.391 . S
C1748 C1749 1.400 . S
C1749 C1743 1.491 . S
C1749 C1748 1.400 . S
C1749 C1750 1.398 . S
C1750 H1738 0.950 . S
C1750 C1749 1.398 . S
C1750 C1751 1.391 . S
C1751 H1739 0.950 . S
C1751 C1747 1.393 . S
C1751 C1750 1.391 . S
H1752 C1760 0.950 . S
H1753 C1765 0.950 . S
H1754 C1762 0.950 . S
H1755 C1764 0.950 . S
H1756 C1766 0.950 . S
H1757 C1768 0.950 . S
H1758 C1770 0.950 . S
H1759 C1771 0.950 . S
C1760 H1752 0.950 . S
C1760 C1761 1.386 . S
C1760 C1762 1.391 . S
C1761 C1760 1.386 . S
C1761 C1765 1.393 . S
C1762 H1754 0.950 . S
C1762 C1760 1.391 . S
C1762 C1763 1.400 . S
C1763 C1762 1.400 . S
C1763 C1764 1.398 . S
C1763 C1769 1.491 . S
C1764 H1755 0.950 . S
C1764 C1763 1.398 . S
C1764 C1765 1.391 . S
C1765 H1753 0.950 . S
C1765 C1761 1.393 . S
C1765 C1764 1.391 . S
C1766 H1756 0.950 . S
C1766 C1767 1.386 . S
C1766 C1768 1.391 . S
C1767 C1766 1.386 . S
C1767 C1771 1.393 . S
C1768 H1757 0.950 . S
C1768 C1766 1.391 . S
C1768 C1769 1.400 . S
C1769 C1763 1.491 . S
C1769 C1768 1.400 . S
C1769 C1770 1.398 . S
C1770 H1758 0.950 . S
C1770 C1769 1.398 . S
C1770 C1771 1.391 . S
C1771 H1759 0.950 . S
C1771 C1767 1.393 . S
C1771 C1770 1.391 . S
H1772 C1780 0.950 . S
H1773 C1785 0.950 . S
H1774 C1782 0.950 . S
H1775 C1784 0.950 . S
H1776 C1786 0.950 . S
H1777 C1788 0.950 . S
H1778 C1790 0.950 . S
H1779 C1791 0.950 . S
C1780 H1772 0.950 . S
C1780 C1781 1.386 . S
C1780 C1782 1.391 . S
C1781 C1780 1.386 . S
C1781 C1785 1.393 . S
C1782 H1774 0.950 . S
C1782 C1780 1.391 . S
C1782 C1783 1.400 . S
C1783 C1782 1.400 . S
C1783 C1784 1.398 . S
C1783 C1789 1.491 . S
C1784 H1775 0.950 . S
C1784 C1783 1.398 . S
C1784 C1785 1.391 . S
C1785 H1773 0.950 . S
C1785 C1781 1.393 . S
C1785 C1784 1.391 . S
C1786 H1776 0.950 . S
C1786 C1787 1.386 . S
C1786 C1788 1.391 . S
C1787 C1786 1.386 . S
C1787 C1791 1.393 . S
C1788 H1777 0.950 . S
C1788 C1786 1.391 . S
C1788 C1789 1.400 . S
C1789 C1783 1.491 . S
C1789 C1788 1.400 . S
C1789 C1790 1.398 . S
C1790 H1778 0.950 . S
C1790 C1789 1.398 . S
C1790 C1791 1.391 . S
C1791 H1779 0.950 . S
C1791 C1787 1.393 . S
C1791 C1790 1.391 . S
H1792 C1800 0.950 . S
H1793 C1805 0.950 . S
H1794 C1802 0.950 . S
H1795 C1804 0.950 . S
H1796 C1806 0.950 . S
H1797 C1808 0.950 . S
H1798 C1810 0.950 . S
H1799 C1811 0.950 . S
C1800 H1792 0.950 . S
C1800 C1801 1.386 . S
C1800 C1802 1.391 . S
C1801 C1800 1.386 . S
C1801 C1805 1.393 . S
C1802 H1794 0.950 . S
C1802 C1800 1.391 . S
C1802 C1803 1.400 . S
C1803 C1802 1.400 . S
C1803 C1804 1.398 . S
C1803 C1809 1.491 . S
C1804 H1795 0.950 . S
C1804 C1803 1.398 . S
C1804 C1805 1.391 . S
C1805 H1793 0.950 . S
C1805 C1801 1.393 . S
C1805 C1804 1.391 . S
C1806 H1796 0.950 . S
C1806 C1807 1.386 . S
C1806 C1808 1.391 . S
C1807 C1806 1.386 . S
C1807 C1811 1.393 . S
C1808 H1797 0.950 . S
C1808 C1806 1.391 . S
C1808 C1809 1.400 . S
C1809 C1803 1.491 . S
C1809 C1808 1.400 . S
C1809 C1810 1.398 . S
C1810 H1798 0.950 . S
C1810 C1809 1.398 . S
C1810 C1811 1.391 . S
C1811 H1799 0.950 . S
C1811 C1807 1.393 . S
C1811 C1810 1.391 . S
H1812 C1820 0.950 . S
H1813 C1825 0.950 . S
H1814 C1822 0.950 . S
H1815 C1824 0.950 . S
H1816 C1826 0.950 . S
H1817 C1828 0.950 . S
H1818 C1830 0.950 . S
H1819 C1831 0.950 . S
C1820 H1812 0.950 . S
C1820 C1821 1.386 . S
C1820 C1822 1.391 . S
C1821 C1820 1.386 . S
C1821 C1825 1.393 . S
C1822 H1814 0.950 . S
C1822 C1820 1.391 . S
C1822 C1823 1.400 . S
C1823 C1822 1.400 . S
C1823 C1824 1.398 . S
C1823 C1829 1.491 . S
C1824 H1815 0.950 . S
C1824 C1823 1.398 . S
C1824 C1825 1.391 . S
C1825 H1813 0.950 . S
C1825 C1821 1.393 . S
C1825 C1824 1.391 . S
C1826 H1816 0.950 . S
C1826 C1827 1.386 . S
C1826 C1828 1.391 . S
C1827 C1826 1.386 . S
C1827 C1831 1.393 . S
C1828 H1817 0.950 . S
C1828 C1826 1.391 . S
C1828 C1829 1.400 . S
C1829 C1823 1.491 . S
C1829 C1828 1.400 . S
C1829 C1830 1.398 . S
C1830 H1818 0.950 . S
C1830 C1829 1.398 . S
C1830 C1831 1.391 . S
C1831 H1819 0.950 . S
C1831 C1827 1.393 . S
C1831 C1830 1.391 . S
H1832 C1840 0.950 . S
H1833 C1845 0.950 . S
H1834 C1842 0.950 . S
H1835 C1844 0.950 . S
H1836 C1846 0.950 . S
H1837 C1848 0.950 . S
H1838 C1850 0.950 . S
H1839 C1851 0.950 . S
C1840 H1832 0.950 . S
C1840 C1841 1.386 . S
C1840 C1842 1.391 . S
C1841 C1840 1.386 . S
C1841 C1845 1.393 . S
C1842 H1834 0.950 . S
C1842 C1840 1.391 . S
C1842 C1843 1.400 . S
C1843 C1842 1.400 . S
C1843 C1844 1.398 . S
C1843 C1849 1.491 . S
C1844 H1835 0.950 . S
C1844 C1843 1.398 . S
C1844 C1845 1.391 . S
C1845 H1833 0.950 . S
C1845 C1841 1.393 . S
C1845 C1844 1.391 . S
C1846 H1836 0.950 . S
C1846 C1847 1.386 . S
C1846 C1848 1.391 . S
C1847 C1846 1.386 . S
C1847 C1851 1.393 . S
C1848 H1837 0.950 . S
C1848 C1846 1.391 . S
C1848 C1849 1.400 . S
C1849 C1843 1.491 . S
C1849 C1848 1.400 . S
C1849 C1850 1.398 . S
C1850 H1838 0.950 . S
C1850 C1849 1.398 . S
C1850 C1851 1.391 . S
C1851 H1839 0.950 . S
C1851 C1847 1.393 . S
C1851 C1850 1.391 . S
H1852 C1860 0.950 . S
H1853 C1865 0.950 . S
H1854 C1862 0.950 . S
H1855 C1864 0.950 . S
H1856 C1866 0.950 . S
H1857 C1868 0.950 . S
H1858 C1870 0.950 . S
H1859 C1871 0.950 . S
C1860 H1852 0.950 . S
C1860 C1861 1.386 . S
C1860 C1862 1.391 . S
C1861 C1860 1.386 . S
C1861 C1865 1.393 . S
C1862 H1854 0.950 . S
C1862 C1860 1.391 . S
C1862 C1863 1.400 . S
C1863 C1862 1.400 . S
C1863 C1864 1.398 . S
C1863 C1869 1.491 . S
C1864 H1855 0.950 . S
C1864 C1863 1.398 . S
C1864 C1865 1.391 . S
C1865 H1853 0.950 . S
C1865 C1861 1.393 . S
C1865 C1864 1.391 . S
C1866 H1856 0.950 . S
C1866 C1867 1.386 . S
C1866 C1868 1.391 . S
C1867 C1866 1.386 . S
C1867 C1871 1.393 . S
C1868 H1857 0.950 . S
C1868 C1866 1.391 . S
C1868 C1869 1.400 . S
C1869 C1863 1.491 . S
C1869 C1868 1.400 . S
C1869 C1870 1.398 . S
C1870 H1858 0.950 . S
C1870 C1869 1.398 . S
C1870 C1871 1.391 . S
C1871 H1859 0.950 . S
C1871 C1867 1.393 . S
C1871 C1870 1.391 . S
H1872 C1880 0.950 . S
H1873 C1885 0.950 . S
H1874 C1882 0.950 . S
H1875 C1884 0.950 . S
H1876 C1886 0.950 1_455 S
H1877 C1888 0.950 . S
H1878 C1890 0.950 . S
H1879 C1891 0.950 . S
C1880 H1872 0.950 . S
C1880 C1881 1.386 . S
C1880 C1882 1.391 . S
C1881 C1880 1.386 . S
C1881 C1885 1.393 . S
C1882 H1874 0.950 . S
C1882 C1880 1.391 . S
C1882 C1883 1.400 . S
C1883 C1882 1.400 . S
C1883 C1884 1.398 . S
C1883 C1889 1.491 . S
C1884 H1875 0.950 . S
C1884 C1883 1.398 . S
C1884 C1885 1.391 . S
C1885 H1873 0.950 . S
C1885 C1881 1.393 . S
C1885 C1884 1.391 . S
C1886 H1876 0.950 1_655 S
C1886 C1887 1.386 . S
C1886 C1888 1.391 . S
C1887 C1886 1.386 . S
C1887 C1891 1.393 . S
C1888 H1877 0.950 . S
C1888 C1886 1.391 . S
C1888 C1889 1.400 . S
C1889 C1883 1.491 . S
C1889 C1888 1.400 . S
C1889 C1890 1.398 . S
C1890 H1878 0.950 . S
C1890 C1889 1.398 . S
C1890 C1891 1.391 . S
C1891 H1879 0.950 . S
C1891 C1887 1.393 . S
C1891 C1890 1.391 . S
H1892 C1900 0.950 . S
H1893 C1905 0.950 . S
H1894 C1902 0.950 . S
H1895 C1904 0.950 . S
H1896 C1906 0.950 . S
H1897 C1908 0.950 . S
H1898 C1910 0.950 . S
H1899 C1911 0.950 . S
C1900 H1892 0.950 . S
C1900 C1901 1.386 . S
C1900 C1902 1.391 . S
C1901 C1900 1.386 . S
C1901 C1905 1.393 . S
C1902 H1894 0.950 . S
C1902 C1900 1.391 . S
C1902 C1903 1.400 . S
C1903 C1902 1.400 . S
C1903 C1904 1.398 . S
C1903 C1909 1.491 . S
C1904 H1895 0.950 . S
C1904 C1903 1.398 . S
C1904 C1905 1.391 . S
C1905 H1893 0.950 . S
C1905 C1901 1.393 . S
C1905 C1904 1.391 . S
C1906 H1896 0.950 . S
C1906 C1907 1.386 . S
C1906 C1908 1.391 . S
C1907 C1906 1.386 . S
C1907 C1911 1.393 . S
C1908 H1897 0.950 . S
C1908 C1906 1.391 . S
C1908 C1909 1.400 . S
C1909 C1903 1.491 . S
C1909 C1908 1.400 . S
C1909 C1910 1.398 . S
C1910 H1898 0.950 . S
C1910 C1909 1.398 . S
C1910 C1911 1.391 . S
C1911 H1899 0.950 . S
C1911 C1907 1.393 . S
C1911 C1910 1.391 . S
H1912 C1920 0.950 . S
H1913 C1925 0.950 . S
H1914 C1922 0.950 . S
H1915 C1924 0.950 . S
H1916 C1926 0.950 . S
H1917 C1928 0.950 . S
H1918 C1930 0.950 . S
H1919 C1931 0.950 . S
C1920 H1912 0.950 . S
C1920 C1921 1.386 . S
C1920 C1922 1.391 . S
C1921 C1920 1.386 . S
C1921 C1925 1.393 . S
C1922 H1914 0.950 . S
C1922 C1920 1.391 . S
C1922 C1923 1.400 . S
C1923 C1922 1.400 . S
C1923 C1924 1.398 . S
C1923 C1929 1.491 . S
C1924 H1915 0.950 . S
C1924 C1923 1.398 . S
C1924 C1925 1.391 . S
C1925 H1913 0.950 . S
C1925 C1921 1.393 . S
C1925 C1924 1.391 . S
C1926 H1916 0.950 . S
C1926 C1927 1.386 . S
C1926 C1928 1.391 . S
C1927 C1926 1.386 . S
C1927 C1931 1.393 . S
C1928 H1917 0.950 . S
C1928 C1926 1.391 . S
C1928 C1929 1.400 . S
C1929 C1923 1.491 . S
C1929 C1928 1.400 . S
C1929 C1930 1.398 . S
C1930 H1918 0.950 . S
C1930 C1929 1.398 . S
C1930 C1931 1.391 . S
C1931 H1919 0.950 . S
C1931 C1927 1.393 . S
C1931 C1930 1.391 . S
H1932 C1940 0.950 . S
H1933 C1945 0.950 . S
H1934 C1942 0.950 . S
H1935 C1944 0.950 . S
H1936 C1946 0.950 . S
H1937 C1948 0.950 . S
H1938 C1950 0.950 . S
H1939 C1951 0.950 . S
C1940 H1932 0.950 . S
C1940 C1941 1.386 . S
C1940 C1942 1.391 . S
C1941 C1940 1.386 . S
C1941 C1945 1.393 . S
C1942 H1934 0.950 . S
C1942 C1940 1.391 . S
C1942 C1943 1.400 . S
C1943 C1942 1.400 . S
C1943 C1944 1.398 . S
C1943 C1949 1.491 . S
C1944 H1935 0.950 . S
C1944 C1943 1.398 . S
C1944 C1945 1.391 . S
C1945 H1933 0.950 . S
C1945 C1941 1.393 . S
C1945 C1944 1.391 . S
C1946 H1936 0.950 . S
C1946 C1947 1.386 . S
C1946 C1948 1.391 . S
C1947 C1946 1.386 . S
C1947 C1951 1.393 . S
C1948 H1937 0.950 . S
C1948 C1946 1.391 . S
C1948 C1949 1.400 . S
C1949 C1943 1.491 . S
C1949 C1948 1.400 . S
C1949 C1950 1.398 . S
C1950 H1938 0.950 . S
C1950 C1949 1.398 . S
C1950 C1951 1.391 . S
C1951 H1939 0.950 . S
C1951 C1947 1.393 . S
C1951 C1950 1.391 . S
H1952 C1960 0.950 . S
H1953 C1965 0.950 . S
H1954 C1962 0.950 . S
H1955 C1964 0.950 . S
H1956 C1966 0.950 . S
H1957 C1968 0.950 . S
H1958 C1970 0.950 . S
H1959 C1971 0.950 . S
C1960 H1952 0.950 . S
C1960 C1961 1.386 . S
C1960 C1962 1.391 . S
C1961 C1960 1.386 . S
C1961 C1965 1.393 . S
C1962 H1954 0.950 . S
C1962 C1960 1.391 . S
C1962 C1963 1.400 . S
C1963 C1962 1.400 . S
C1963 C1964 1.398 . S
C1963 C1969 1.491 . S
C1964 H1955 0.950 . S
C1964 C1963 1.398 . S
C1964 C1965 1.391 . S
C1965 H1953 0.950 . S
C1965 C1961 1.393 . S
C1965 C1964 1.391 . S
C1966 H1956 0.950 . S
C1966 C1967 1.386 . S
C1966 C1968 1.391 . S
C1967 C1966 1.386 . S
C1967 C1971 1.393 . S
C1968 H1957 0.950 . S
C1968 C1966 1.391 . S
C1968 C1969 1.400 . S
C1969 C1963 1.491 . S
C1969 C1968 1.400 . S
C1969 C1970 1.398 . S
C1970 H1958 0.950 . S
C1970 C1969 1.398 . S
C1970 C1971 1.391 . S
C1971 H1959 0.950 . S
C1971 C1967 1.393 . S
C1971 C1970 1.391 . S
H1972 C1980 0.950 . S
H1973 C1985 0.950 . S
H1974 C1982 0.950 . S
H1975 C1984 0.950 . S
H1976 C1986 0.950 . S
H1977 C1988 0.950 . S
H1978 C1990 0.950 . S
H1979 C1991 0.950 . S
C1980 H1972 0.950 . S
C1980 C1981 1.386 . S
C1980 C1982 1.391 . S
C1981 C1980 1.386 . S
C1981 C1985 1.393 . S
C1982 H1974 0.950 . S
C1982 C1980 1.391 . S
C1982 C1983 1.400 . S
C1983 C1982 1.400 . S
C1983 C1984 1.398 . S
C1983 C1989 1.491 . S
C1984 H1975 0.950 . S
C1984 C1983 1.398 . S
C1984 C1985 1.391 . S
C1985 H1973 0.950 . S
C1985 C1981 1.393 . S
C1985 C1984 1.391 . S
C1986 H1976 0.950 . S
C1986 C1987 1.386 . S
C1986 C1988 1.391 . S
C1987 C1986 1.386 . S
C1987 C1991 1.393 . S
C1988 H1977 0.950 . S
C1988 C1986 1.391 . S
C1988 C1989 1.400 . S
C1989 C1983 1.491 . S
C1989 C1988 1.400 . S
C1989 C1990 1.398 . S
C1990 H1978 0.950 . S
C1990 C1989 1.398 . S
C1990 C1991 1.391 . S
C1991 H1979 0.950 . S
C1991 C1987 1.393 . S
C1991 C1990 1.391 . S
H1992 C2000 0.950 . S
H1993 C2005 0.950 . S
H1994 C2002 0.950 . S
H1995 C2004 0.950 . S
H1996 C2006 0.950 . S
H1997 C2008 0.950 . S
H1998 C2010 0.950 . S
H1999 C2011 0.950 . S
C2000 H1992 0.950 . S
C2000 C2001 1.386 . S
C2000 C2002 1.391 . S
C2001 C2000 1.386 . S
C2001 C2005 1.393 . S
C2002 H1994 0.950 . S
C2002 C2000 1.391 . S
C2002 C2003 1.400 . S
C2003 C2002 1.400 . S
C2003 C2004 1.398 . S
C2003 C2009 1.491 . S
C2004 H1995 0.950 . S
C2004 C2003 1.398 . S
C2004 C2005 1.391 . S
C2005 H1993 0.950 . S
C2005 C2001 1.393 . S
C2005 C2004 1.391 . S
C2006 H1996 0.950 . S
C2006 C2007 1.386 . S
C2006 C2008 1.391 . S
C2007 C2006 1.386 . S
C2007 C2011 1.393 . S
C2008 H1997 0.950 . S
C2008 C2006 1.391 . S
C2008 C2009 1.400 . S
C2009 C2003 1.491 . S
C2009 C2008 1.400 . S
C2009 C2010 1.398 . S
C2010 H1998 0.950 . S
C2010 C2009 1.398 . S
C2010 C2011 1.391 . S
C2011 H1999 0.950 . S
C2011 C2007 1.393 . S
C2011 C2010 1.391 . S
H2012 C2020 0.950 . S
H2013 C2025 0.950 . S
H2014 C2022 0.950 . S
H2015 C2024 0.950 . S
H2016 C2026 0.950 . S
H2017 C2028 0.950 . S
H2018 C2030 0.950 . S
H2019 C2031 0.950 . S
C2020 H2012 0.950 . S
C2020 C2021 1.386 . S
C2020 C2022 1.391 . S
C2021 C2020 1.386 . S
C2021 C2025 1.393 . S
C2022 H2014 0.950 . S
C2022 C2020 1.391 . S
C2022 C2023 1.400 . S
C2023 C2022 1.400 . S
C2023 C2024 1.398 . S
C2023 C2029 1.491 . S
C2024 H2015 0.950 . S
C2024 C2023 1.398 . S
C2024 C2025 1.391 . S
C2025 H2013 0.950 . S
C2025 C2021 1.393 . S
C2025 C2024 1.391 . S
C2026 H2016 0.950 . S
C2026 C2027 1.402 . S
C2026 C2028 1.391 . S
C2027 C2026 1.402 . S
C2027 C2031 1.384 1_655 S
C2028 H2017 0.950 . S
C2028 C2026 1.391 . S
C2028 C2029 1.400 . S
C2029 C2023 1.491 . S
C2029 C2028 1.400 . S
C2029 C2030 1.398 1_655 S
C2030 H2018 0.950 . S
C2030 C2029 1.398 1_455 S
C2030 C2031 1.391 . S
C2031 H2019 0.950 . S
C2031 C2027 1.384 1_455 S
C2031 C2030 1.391 . S
H2032 C2040 0.950 . S
H2033 C2045 0.950 . S
H2034 C2042 0.950 . S
H2035 C2044 0.950 . S
H2036 C2046 0.950 . S
H2037 C2048 0.950 . S
H2038 C2050 0.950 . S
H2039 C2051 0.950 . S
C2040 H2032 0.950 . S
C2040 C2041 1.386 . S
C2040 C2042 1.391 . S
C2041 C2040 1.386 . S
C2041 C2045 1.393 . S
C2042 H2034 0.950 . S
C2042 C2040 1.391 . S
C2042 C2043 1.400 . S
C2043 C2042 1.400 . S
C2043 C2044 1.398 . S
C2043 C2049 1.491 . S
C2044 H2035 0.950 . S
C2044 C2043 1.398 . S
C2044 C2045 1.391 . S
C2045 H2033 0.950 . S
C2045 C2041 1.393 . S
C2045 C2044 1.391 . S
C2046 H2036 0.950 . S
C2046 C2047 1.386 . S
C2046 C2048 1.391 . S
C2047 C2046 1.386 . S
C2047 C2051 1.393 . S
C2048 H2037 0.950 . S
C2048 C2046 1.391 . S
C2048 C2049 1.400 . S
C2049 C2043 1.491 . S
C2049 C2048 1.400 . S
C2049 C2050 1.398 . S
C2050 H2038 0.950 . S
C2050 C2049 1.398 . S
C2050 C2051 1.391 . S
C2051 H2039 0.950 . S
C2051 C2047 1.393 . S
C2051 C2050 1.391 . S
H2052 C2060 0.950 . S
H2053 C2065 0.950 . S
H2054 C2062 0.950 . S
H2055 C2064 0.950 . S
H2056 C2066 0.950 . S
H2057 C2068 0.950 . S
H2058 C2070 0.950 . S
H2059 C2071 0.950 . S
C2060 H2052 0.950 . S
C2060 C2061 1.386 . S
C2060 C2062 1.391 . S
C2061 C2060 1.386 . S
C2061 C2065 1.393 . S
C2062 H2054 0.950 . S
C2062 C2060 1.391 . S
C2062 C2063 1.400 . S
C2063 C2062 1.400 . S
C2063 C2064 1.398 . S
C2063 C2069 1.491 . S
C2064 H2055 0.950 . S
C2064 C2063 1.398 . S
C2064 C2065 1.391 . S
C2065 H2053 0.950 . S
C2065 C2061 1.393 . S
C2065 C2064 1.391 . S
C2066 H2056 0.950 . S
C2066 C2067 1.386 . S
C2066 C2068 1.391 . S
C2067 C2066 1.386 . S
C2067 C2071 1.393 . S
C2068 H2057 0.950 . S
C2068 C2066 1.391 . S
C2068 C2069 1.400 . S
C2069 C2063 1.491 . S
C2069 C2068 1.400 . S
C2069 C2070 1.398 . S
C2070 H2058 0.950 . S
C2070 C2069 1.398 . S
C2070 C2071 1.391 . S
C2071 H2059 0.950 . S
C2071 C2067 1.393 . S
C2071 C2070 1.391 . S
H2072 C2080 0.950 . S
H2073 C2085 0.950 . S
H2074 C2082 0.950 . S
H2075 C2084 0.950 . S
H2076 C2086 0.950 . S
H2077 C2088 0.950 . S
H2078 C2090 0.950 . S
H2079 C2091 0.950 . S
C2080 H2072 0.950 . S
C2080 C2081 1.386 . S
C2080 C2082 1.391 . S
C2081 C2080 1.386 . S
C2081 C2085 1.393 . S
C2082 H2074 0.950 . S
C2082 C2080 1.391 . S
C2082 C2083 1.400 . S
C2083 C2082 1.400 . S
C2083 C2084 1.398 . S
C2083 C2089 1.491 . S
C2084 H2075 0.950 . S
C2084 C2083 1.398 . S
C2084 C2085 1.391 . S
C2085 H2073 0.950 . S
C2085 C2081 1.393 . S
C2085 C2084 1.391 . S
C2086 H2076 0.950 . S
C2086 C2087 1.386 . S
C2086 C2088 1.391 . S
C2087 C2086 1.386 . S
C2087 C2091 1.393 . S
C2088 H2077 0.950 . S
C2088 C2086 1.391 . S
C2088 C2089 1.400 . S
C2089 C2083 1.491 . S
C2089 C2088 1.400 . S
C2089 C2090 1.398 . S
C2090 H2078 0.950 . S
C2090 C2089 1.398 . S
C2090 C2091 1.391 . S
C2091 H2079 0.950 . S
C2091 C2087 1.393 . S
C2091 C2090 1.391 . S
H2092 C2100 0.950 . S
H2093 C2105 0.950 . S
H2094 C2102 0.950 . S
H2095 C2104 0.950 . S
H2096 C2106 0.950 . S
H2097 C2108 0.950 . S
H2098 C2110 0.950 . S
H2099 C2111 0.950 . S
C2100 H2092 0.950 . S
C2100 C2101 1.386 . S
C2100 C2102 1.391 . S
C2101 C2100 1.386 . S
C2101 C2105 1.393 . S
C2102 H2094 0.950 . S
C2102 C2100 1.391 . S
C2102 C2103 1.400 . S
C2103 C2102 1.400 . S
C2103 C2104 1.398 . S
C2103 C2109 1.491 . S
C2104 H2095 0.950 . S
C2104 C2103 1.398 . S
C2104 C2105 1.391 . S
C2105 H2093 0.950 . S
C2105 C2101 1.393 . S
C2105 C2104 1.391 . S
C2106 H2096 0.950 . S
C2106 C2107 1.386 . S
C2106 C2108 1.391 . S
C2107 C2106 1.386 . S
C2107 C2111 1.393 . S
C2108 H2097 0.950 . S
C2108 C2106 1.391 . S
C2108 C2109 1.400 . S
C2109 C2103 1.491 . S
C2109 C2108 1.400 . S
C2109 C2110 1.398 . S
C2110 H2098 0.950 . S
C2110 C2109 1.398 . S
C2110 C2111 1.391 . S
C2111 H2099 0.950 . S
C2111 C2107 1.393 . S
C2111 C2110 1.391 . S
H2112 C2120 0.950 . S
H2113 C2125 0.950 . S
H2114 C2122 0.950 . S
H2115 C2124 0.950 . S
H2116 C2126 0.950 . S
H2117 C2128 0.950 . S
H2118 C2130 0.950 . S
H2119 C2131 0.950 . S
C2120 H2112 0.950 . S
C2120 C2121 1.386 . S
C2120 C2122 1.391 . S
C2121 C2120 1.386 . S
C2121 C2125 1.393 . S
C2122 H2114 0.950 . S
C2122 C2120 1.391 . S
C2122 C2123 1.400 . S
C2123 C2122 1.400 . S
C2123 C2124 1.398 . S
C2123 C2129 1.491 . S
C2124 H2115 0.950 . S
C2124 C2123 1.398 . S
C2124 C2125 1.391 . S
C2125 H2113 0.950 . S
C2125 C2121 1.393 . S
C2125 C2124 1.391 . S
C2126 H2116 0.950 . S
C2126 C2127 1.386 . S
C2126 C2128 1.391 . S
C2127 C2126 1.386 . S
C2127 C2131 1.393 . S
C2128 H2117 0.950 . S
C2128 C2126 1.391 . S
C2128 C2129 1.400 . S
C2129 C2123 1.491 . S
C2129 C2128 1.400 . S
C2129 C2130 1.398 . S
C2130 H2118 0.950 . S
C2130 C2129 1.398 . S
C2130 C2131 1.391 . S
C2131 H2119 0.950 . S
C2131 C2127 1.393 . S
C2131 C2130 1.391 . S
H2132 C2140 0.950 . S
H2133 C2145 0.950 1_556 S
H2134 C2142 0.950 . S
H2135 C2144 0.950 . S
H2136 C2146 0.950 . S
H2137 C2148 0.950 . S
H2138 C2150 0.950 . S
H2139 C2151 0.950 . S
C2140 H2132 0.950 . S
C2140 C2141 1.380 1_455 S
C2140 C2142 1.391 . S
C2141 C2140 1.380 1_655 S
C2141 C2145 1.403 . S
C2142 H2134 0.950 . S
C2142 C2140 1.391 . S
C2142 C2143 1.400 1_455 S
C2143 C2142 1.400 1_655 S
C2143 C2144 1.398 . S
C2143 C2149 1.491 . S
C2144 H2135 0.950 . S
C2144 C2143 1.398 . S
C2144 C2145 1.391 . S
C2145 H2133 0.950 1_554 S
C2145 C2141 1.403 . S
C2145 C2144 1.391 . S
C2146 H2136 0.950 . S
C2146 C2147 1.386 . S
C2146 C2148 1.391 . S
C2147 C2146 1.386 . S
C2147 C2151 1.393 . S
C2148 H2137 0.950 . S
C2148 C2146 1.391 . S
C2148 C2149 1.400 . S
C2149 C2143 1.491 . S
C2149 C2148 1.400 . S
C2149 C2150 1.398 . S
C2150 H2138 0.950 . S
C2150 C2149 1.398 . S
C2150 C2151 1.391 . S
C2151 H2139 0.950 . S
C2151 C2147 1.393 . S
C2151 C2150 1.391 . S
H2152 C2160 0.950 . S
H2153 C2165 0.950 . S
H2154 C2162 0.950 . S
H2155 C2164 0.950 . S
H2156 C2166 0.950 . S
H2157 C2168 0.950 . S
H2158 C2170 0.950 . S
H2159 C2171 0.950 . S
C2160 H2152 0.950 . S
C2160 C2161 1.386 . S
C2160 C2162 1.391 . S
C2161 C2160 1.386 . S
C2161 C2165 1.393 . S
C2162 H2154 0.950 . S
C2162 C2160 1.391 . S
C2162 C2163 1.400 . S
C2163 C2162 1.400 . S
C2163 C2164 1.398 . S
C2163 C2169 1.491 . S
C2164 H2155 0.950 . S
C2164 C2163 1.398 . S
C2164 C2165 1.391 . S
C2165 H2153 0.950 . S
C2165 C2161 1.393 . S
C2165 C2164 1.391 . S
C2166 H2156 0.950 . S
C2166 C2167 1.386 . S
C2166 C2168 1.391 . S
C2167 C2166 1.386 . S
C2167 C2171 1.393 . S
C2168 H2157 0.950 . S
C2168 C2166 1.391 . S
C2168 C2169 1.400 . S
C2169 C2163 1.491 . S
C2169 C2168 1.400 . S
C2169 C2170 1.398 . S
C2170 H2158 0.950 . S
C2170 C2169 1.398 . S
C2170 C2171 1.391 . S
C2171 H2159 0.950 . S
C2171 C2167 1.393 . S
C2171 C2170 1.391 . S
H2172 C2180 0.950 . S
H2173 C2185 0.950 1_545 S
H2174 C2182 0.950 . S
H2175 C2184 0.950 . S
H2176 C2186 0.950 . S
H2177 C2188 0.950 . S
H2178 C2190 0.950 . S
H2179 C2191 0.950 . S
C2180 H2172 0.950 . S
C2180 C2181 1.386 . S
C2180 C2182 1.391 . S
C2181 C2180 1.386 . S
C2181 C2185 1.393 . S
C2182 H2174 0.950 . S
C2182 C2180 1.391 . S
C2182 C2183 1.400 . S
C2183 C2182 1.400 . S
C2183 C2184 1.398 . S
C2183 C2189 1.491 . S
C2184 H2175 0.950 . S
C2184 C2183 1.398 . S
C2184 C2185 1.391 . S
C2185 H2173 0.950 1_565 S
C2185 C2181 1.393 . S
C2185 C2184 1.391 . S
C2186 H2176 0.950 . S
C2186 C2187 1.386 . S
C2186 C2188 1.391 . S
C2187 C2186 1.386 . S
C2187 C2191 1.393 . S
C2188 H2177 0.950 . S
C2188 C2186 1.391 . S
C2188 C2189 1.400 . S
C2189 C2183 1.491 . S
C2189 C2188 1.400 . S
C2189 C2190 1.398 . S
C2190 H2178 0.950 . S
C2190 C2189 1.398 . S
C2190 C2191 1.391 . S
C2191 H2179 0.950 . S
C2191 C2187 1.393 . S
C2191 C2190 1.391 . S
H2192 C2200 0.950 . S
H2193 C2205 0.950 . S
H2194 C2202 0.950 . S
H2195 C2204 0.950 . S
H2196 C2206 0.950 . S
H2197 C2208 0.950 . S
H2198 C2210 0.950 . S
H2199 C2211 0.950 . S
C2200 H2192 0.950 . S
C2200 C2201 1.386 . S
C2200 C2202 1.391 . S
C2201 C2200 1.386 . S
C2201 C2205 1.393 . S
C2202 H2194 0.950 . S
C2202 C2200 1.391 . S
C2202 C2203 1.400 . S
C2203 C2202 1.400 . S
C2203 C2204 1.398 . S
C2203 C2209 1.491 . S
C2204 H2195 0.950 . S
C2204 C2203 1.398 . S
C2204 C2205 1.391 . S
C2205 H2193 0.950 . S
C2205 C2201 1.393 . S
C2205 C2204 1.391 . S
C2206 H2196 0.950 . S
C2206 C2207 1.386 . S
C2206 C2208 1.391 . S
C2207 C2206 1.386 . S
C2207 C2211 1.393 . S
C2208 H2197 0.950 . S
C2208 C2206 1.391 . S
C2208 C2209 1.400 . S
C2209 C2203 1.491 . S
C2209 C2208 1.400 . S
C2209 C2210 1.398 . S
C2210 H2198 0.950 . S
C2210 C2209 1.398 . S
C2210 C2211 1.391 . S
C2211 H2199 0.950 . S
C2211 C2207 1.393 . S
C2211 C2210 1.391 . S
H2212 C2220 0.950 . S
H2213 C2225 0.950 . S
H2214 C2222 0.950 . S
H2215 C2224 0.950 . S
H2216 C2226 0.950 1_565 S
H2217 C2228 0.950 . S
H2218 C2230 0.950 . S
H2219 C2231 0.950 . S
C2220 H2212 0.950 . S
C2220 C2221 1.386 . S
C2220 C2222 1.391 . S
C2221 C2220 1.386 . S
C2221 C2225 1.393 . S
C2222 H2214 0.950 . S
C2222 C2220 1.391 . S
C2222 C2223 1.400 . S
C2223 C2222 1.400 . S
C2223 C2224 1.398 . S
C2223 C2229 1.491 . S
C2224 H2215 0.950 . S
C2224 C2223 1.398 . S
C2224 C2225 1.391 . S
C2225 H2213 0.950 . S
C2225 C2221 1.393 . S
C2225 C2224 1.391 . S
C2226 H2216 0.950 1_545 S
C2226 C2227 1.392 . S
C2226 C2228 1.391 . S
C2227 C2226 1.392 . S
C2227 C2231 1.389 1_554 S
C2228 H2217 0.950 . S
C2228 C2226 1.391 . S
C2228 C2229 1.400 . S
C2229 C2223 1.491 . S
C2229 C2228 1.400 . S
C2229 C2230 1.398 1_554 S
C2230 H2218 0.950 . S
C2230 C2229 1.398 1_556 S
C2230 C2231 1.391 . S
C2231 H2219 0.950 . S
C2231 C2227 1.389 1_556 S
C2231 C2230 1.391 . S
H2232 C2240 0.950 . S
H2233 C2245 0.950 . S
H2234 C2242 0.950 . S
H2235 C2244 0.950 . S
H2236 C2246 0.950 . S
H2237 C2248 0.950 . S
H2238 C2250 0.950 . S
H2239 C2251 0.950 . S
C2240 H2232 0.950 . S
C2240 C2241 1.386 . S
C2240 C2242 1.391 . S
C2241 C2240 1.386 . S
C2241 C2245 1.393 . S
C2242 H2234 0.950 . S
C2242 C2240 1.391 . S
C2242 C2243 1.400 . S
C2243 C2242 1.400 . S
C2243 C2244 1.398 . S
C2243 C2249 1.491 . S
C2244 H2235 0.950 . S
C2244 C2243 1.398 . S
C2244 C2245 1.391 . S
C2245 H2233 0.950 . S
C2245 C2241 1.393 . S
C2245 C2244 1.391 . S
C2246 H2236 0.950 . S
C2246 C2247 1.386 . S
C2246 C2248 1.391 . S
C2247 C2246 1.386 . S
C2247 C2251 1.393 . S
C2248 H2237 0.950 . S
C2248 C2246 1.391 . S
C2248 C2249 1.400 . S
C2249 C2243 1.491 . S
C2249 C2248 1.400 . S
C2249 C2250 1.398 . S
C2250 H2238 0.950 . S
C2250 C2249 1.398 . S
C2250 C2251 1.391 . S
C2251 H2239 0.950 . S
C2251 C2247 1.393 . S
C2251 C2250 1.391 . S
H2252 C2260 0.950 1_545 S
H2253 C2265 0.950 . S
H2254 C2262 0.950 . S
H2255 C2264 0.950 . S
H2256 C2266 0.950 . S
H2257 C2268 0.950 . S
H2258 C2270 0.950 . S
H2259 C2271 0.950 . S
C2260 H2252 0.950 1_565 S
C2260 C2261 1.386 . S
C2260 C2262 1.391 . S
C2261 C2260 1.386 . S
C2261 C2265 1.393 . S
C2262 H2254 0.950 . S
C2262 C2260 1.391 . S
C2262 C2263 1.400 . S
C2263 C2262 1.400 . S
C2263 C2264 1.398 . S
C2263 C2269 1.491 . S
C2264 H2255 0.950 . S
C2264 C2263 1.398 . S
C2264 C2265 1.391 . S
C2265 H2253 0.950 . S
C2265 C2261 1.393 . S
C2265 C2264 1.391 . S
C2266 H2256 0.950 . S
C2266 C2267 1.386 . S
C2266 C2268 1.391 . S
C2267 C2266 1.386 . S
C2267 C2271 1.393 . S
C2268 H2257 0.950 . S
C2268 C2266 1.391 . S
C2268 C2269 1.400 . S
C2269 C2263 1.491 . S
C2269 C2268 1.400 . S
C2269 C2270 1.398 . S
C2270 H2258 0.950 . S
C2270 C2269 1.398 . S
C2270 C2271 1.391 . S
C2271 H2259 0.950 . S
C2271 C2267 1.393 . S
C2271 C2270 1.391 . S
H2272 C2280 0.950 . S
H2273 C2285 0.950 . S
H2274 C2282 0.950 . S
H2275 C2284 0.950 . S
H2276 C2286 0.950 . S
H2277 C2288 0.950 . S
H2278 C2290 0.950 . S
H2279 C2291 0.950 . S
C2280 H2272 0.950 . S
C2280 C2281 1.386 . S
C2280 C2282 1.391 . S
C2281 C2280 1.386 . S
C2281 C2285 1.393 . S
C2282 H2274 0.950 . S
C2282 C2280 1.391 . S
C2282 C2283 1.400 . S
C2283 C2282 1.400 . S
C2283 C2284 1.398 . S
C2283 C2289 1.491 . S
C2284 H2275 0.950 . S
C2284 C2283 1.398 . S
C2284 C2285 1.391 . S
C2285 H2273 0.950 . S
C2285 C2281 1.393 . S
C2285 C2284 1.391 . S
C2286 H2276 0.950 . S
C2286 C2287 1.386 . S
C2286 C2288 1.391 . S
C2287 C2286 1.386 . S
C2287 C2291 1.393 . S
C2288 H2277 0.950 . S
C2288 C2286 1.391 . S
C2288 C2289 1.400 . S
C2289 C2283 1.491 . S
C2289 C2288 1.400 . S
C2289 C2290 1.398 . S
C2290 H2278 0.950 . S
C2290 C2289 1.398 . S
C2290 C2291 1.391 . S
C2291 H2279 0.950 . S
C2291 C2287 1.393 . S
C2291 C2290 1.391 . S
H2292 C2300 0.950 . S
H2293 C2305 0.950 . S
H2294 C2302 0.950 . S
H2295 C2304 0.950 . S
H2296 C2306 0.950 1_565 S
H2297 C2308 0.950 . S
H2298 C2310 0.950 . S
H2299 C2311 0.950 . S
C2300 H2292 0.950 . S
C2300 C2301 1.386 . S
C2300 C2302 1.391 . S
C2301 C2300 1.386 . S
C2301 C2305 1.393 . S
C2302 H2294 0.950 . S
C2302 C2300 1.391 . S
C2302 C2303 1.400 . S
C2303 C2302 1.400 . S
C2303 C2304 1.398 . S
C2303 C2309 1.491 . S
C2304 H2295 0.950 . S
C2304 C2303 1.398 . S
C2304 C2305 1.391 . S
C2305 H2293 0.950 . S
C2305 C2301 1.393 . S
C2305 C2304 1.391 . S
C2306 H2296 0.950 1_545 S
C2306 C2307 1.386 . S
C2306 C2308 1.391 . S
C2307 C2306 1.386 . S
C2307 C2311 1.393 1_556 S
C2308 H2297 0.950 . S
C2308 C2306 1.391 . S
C2308 C2309 1.400 . S
C2309 C2303 1.491 . S
C2309 C2308 1.400 . S
C2309 C2310 1.398 . S
C2310 H2298 0.950 . S
C2310 C2309 1.398 . S
C2310 C2311 1.391 1_556 S
C2311 H2299 0.950 . S
C2311 C2307 1.393 1_554 S
C2311 C2310 1.391 1_554 S
H2312 C2320 0.950 . S
H2313 C2325 0.950 . S
H2314 C2322 0.950 . S
H2315 C2324 0.950 . S
H2316 C2326 0.950 . S
H2317 C2328 0.950 . S
H2318 C2330 0.950 . S
H2319 C2331 0.950 . S
C2320 H2312 0.950 . S
C2320 C2321 1.386 . S
C2320 C2322 1.391 . S
C2321 C2320 1.386 . S
C2321 C2325 1.393 . S
C2322 H2314 0.950 . S
C2322 C2320 1.391 . S
C2322 C2323 1.400 . S
C2323 C2322 1.400 . S
C2323 C2324 1.398 . S
C2323 C2329 1.491 . S
C2324 H2315 0.950 . S
C2324 C2323 1.398 . S
C2324 C2325 1.391 . S
C2325 H2313 0.950 . S
C2325 C2321 1.393 . S
C2325 C2324 1.391 . S
C2326 H2316 0.950 . S
C2326 C2327 1.386 . S
C2326 C2328 1.391 . S
C2327 C2326 1.386 . S
C2327 C2331 1.393 . S
C2328 H2317 0.950 . S
C2328 C2326 1.391 . S
C2328 C2329 1.400 . S
C2329 C2323 1.491 . S
C2329 C2328 1.400 . S
C2329 C2330 1.398 . S
C2330 H2318 0.950 . S
C2330 C2329 1.398 . S
C2330 C2331 1.391 . S
C2331 H2319 0.950 . S
C2331 C2327 1.393 . S
C2331 C2330 1.391 . S
H2332 C2340 0.950 . S
H2333 C2345 0.950 . S
H2334 C2342 0.950 . S
H2335 C2344 0.950 . S
H2336 C2346 0.950 . S
H2337 C2348 0.950 . S
H2338 C2350 0.950 . S
H2339 C2351 0.950 . S
C2340 H2332 0.950 . S
C2340 C2341 1.386 . S
C2340 C2342 1.391 . S
C2341 C2340 1.386 . S
C2341 C2345 1.393 . S
C2342 H2334 0.950 . S
C2342 C2340 1.391 . S
C2342 C2343 1.400 . S
C2343 C2342 1.400 . S
C2343 C2344 1.398 . S
C2343 C2349 1.491 . S
C2344 H2335 0.950 . S
C2344 C2343 1.398 . S
C2344 C2345 1.391 . S
C2345 H2333 0.950 . S
C2345 C2341 1.393 . S
C2345 C2344 1.391 . S
C2346 H2336 0.950 . S
C2346 C2347 1.386 . S
C2346 C2348 1.391 . S
C2347 C2346 1.386 . S
C2347 C2351 1.393 . S
C2348 H2337 0.950 . S
C2348 C2346 1.391 . S
C2348 C2349 1.400 . S
C2349 C2343 1.491 . S
C2349 C2348 1.400 . S
C2349 C2350 1.398 . S
C2350 H2338 0.950 . S
C2350 C2349 1.398 . S
C2350 C2351 1.391 . S
C2351 H2339 0.950 . S
C2351 C2347 1.393 . S
C2351 C2350 1.391 . S
H2352 C2360 0.950 . S
H2353 C2365 0.950 . S
H2354 C2362 0.950 . S
H2355 C2364 0.950 . S
H2356 C2366 0.950 . S
H2357 C2368 0.950 . S
H2358 C2370 0.950 . S
H2359 C2371 0.950 . S
C2360 H2352 0.950 . S
C2360 C2361 1.386 . S
C2360 C2362 1.391 . S
C2361 C2360 1.386 . S
C2361 C2365 1.393 . S
C2362 H2354 0.950 . S
C2362 C2360 1.391 . S
C2362 C2363 1.400 . S
C2363 C2362 1.400 . S
C2363 C2364 1.398 . S
C2363 C2369 1.491 . S
C2364 H2355 0.950 . S
C2364 C2363 1.398 . S
C2364 C2365 1.391 . S
C2365 H2353 0.950 . S
C2365 C2361 1.393 . S
C2365 C2364 1.391 . S
C2366 H2356 0.950 . S
C2366 C2367 1.386 . S
C2366 C2368 1.391 . S
C2367 C2366 1.386 . S
C2367 C2371 1.393 . S
C2368 H2357 0.950 . S
C2368 C2366 1.391 . S
C2368 C2369 1.400 . S
C2369 C2363 1.491 . S
C2369 C2368 1.400 . S
C2369 C2370 1.398 . S
C2370 H2358 0.950 . S
C2370 C2369 1.398 . S
C2370 C2371 1.391 . S
C2371 H2359 0.950 . S
C2371 C2367 1.393 . S
C2371 C2370 1.391 . S
H2372 C2380 0.950 . S
H2373 C2385 0.950 . S
H2374 C2382 0.950 . S
H2375 C2384 0.950 . S
H2376 C2386 0.950 . S
H2377 C2388 0.950 . S
H2378 C2390 0.950 . S
H2379 C2391 0.950 . S
C2380 H2372 0.950 . S
C2380 C2381 1.386 . S
C2380 C2382 1.391 . S
C2381 C2380 1.386 . S
C2381 C2385 1.393 . S
C2382 H2374 0.950 . S
C2382 C2380 1.391 . S
C2382 C2383 1.400 . S
C2383 C2382 1.400 . S
C2383 C2384 1.398 . S
C2383 C2389 1.491 . S
C2384 H2375 0.950 . S
C2384 C2383 1.398 . S
C2384 C2385 1.391 . S
C2385 H2373 0.950 . S
C2385 C2381 1.393 . S
C2385 C2384 1.391 . S
C2386 H2376 0.950 . S
C2386 C2387 1.386 . S
C2386 C2388 1.391 . S
C2387 C2386 1.386 . S
C2387 C2391 1.393 . S
C2388 H2377 0.950 . S
C2388 C2386 1.391 . S
C2388 C2389 1.400 . S
C2389 C2383 1.491 . S
C2389 C2388 1.400 . S
C2389 C2390 1.398 . S
C2390 H2378 0.950 . S
C2390 C2389 1.398 . S
C2390 C2391 1.391 . S
C2391 H2379 0.950 . S
C2391 C2387 1.393 . S
C2391 C2390 1.391 . S
H2392 C2400 0.950 . S
H2393 C2405 0.950 . S
H2394 C2402 0.950 . S
H2395 C2404 0.950 . S
H2396 C2406 0.950 . S
H2397 C2408 0.947 1_545 S
H2398 C2410 0.950 . S
H2399 C2411 0.950 1_655 S
C2400 H2392 0.950 . S
C2400 C2401 1.386 . S
C2400 C2402 1.391 . S
C2401 C2400 1.386 . S
C2401 C2405 1.393 . S
C2402 H2394 0.950 . S
C2402 C2400 1.391 . S
C2402 C2403 1.400 . S
C2403 C2402 1.400 . S
C2403 C2404 1.398 . S
C2403 C2409 1.491 . S
C2404 H2395 0.950 . S
C2404 C2403 1.398 . S
C2404 C2405 1.391 . S
C2405 H2393 0.950 . S
C2405 C2401 1.393 . S
C2405 C2404 1.391 . S
C2406 H2396 0.950 . S
C2406 C2407 1.386 1_545 S
C2406 C2408 1.389 1_545 S
C2407 C2406 1.386 1_565 S
C2407 C2411 1.392 . S
C2408 H2397 0.947 1_565 S
C2408 C2406 1.389 1_565 S
C2408 C2409 1.405 . S
C2409 C2403 1.491 . S
C2409 C2408 1.405 . S
C2409 C2410 1.398 . S
C2410 H2398 0.950 . S
C2410 C2409 1.398 . S
C2410 C2411 1.391 . S
C2411 H2399 0.950 1_455 S
C2411 C2407 1.392 . S
C2411 C2410 1.391 . S
H2412 C2420 0.950 . S
H2413 C2425 0.950 . S
H2414 C2422 0.950 . S
H2415 C2424 0.950 . S
H2416 C2426 0.950 . S
H2417 C2428 0.950 . S
H2418 C2430 0.950 . S
H2419 C2431 0.950 . S
C2420 H2412 0.950 . S
C2420 C2421 1.386 . S
C2420 C2422 1.391 . S
C2421 C2420 1.386 . S
C2421 C2425 1.393 . S
C2422 H2414 0.950 . S
C2422 C2420 1.391 . S
C2422 C2423 1.400 . S
C2423 C2422 1.400 . S
C2423 C2424 1.398 . S
C2423 C2429 1.491 . S
C2424 H2415 0.950 . S
C2424 C2423 1.398 . S
C2424 C2425 1.391 . S
C2425 H2413 0.950 . S
C2425 C2421 1.393 . S
C2425 C2424 1.391 . S
C2426 H2416 0.950 . S
C2426 C2427 1.386 . S
C2426 C2428 1.391 . S
C2427 C2426 1.386 . S
C2427 C2431 1.393 . S
C2428 H2417 0.950 . S
C2428 C2426 1.391 . S
C2428 C2429 1.400 . S
C2429 C2423 1.491 . S
C2429 C2428 1.400 . S
C2429 C2430 1.398 . S
C2430 H2418 0.950 . S
C2430 C2429 1.398 . S
C2430 C2431 1.391 . S
C2431 H2419 0.950 . S
C2431 C2427 1.393 . S
C2431 C2430 1.391 . S
H2432 C2440 0.950 . S
H2433 C2445 0.950 1_455 S
H2434 C2442 0.950 . S
H2435 C2444 0.950 . S
H2436 C2446 0.950 . S
H2437 C2448 0.950 . S
H2438 C2450 0.950 . S
H2439 C2451 0.950 . S
C2440 H2432 0.950 . S
C2440 C2441 1.386 . S
C2440 C2442 1.391 . S
C2441 C2440 1.386 . S
C2441 C2445 1.393 . S
C2442 H2434 0.950 . S
C2442 C2440 1.391 . S
C2442 C2443 1.400 . S
C2443 C2442 1.400 . S
C2443 C2444 1.398 . S
C2443 C2449 1.491 . S
C2444 H2435 0.950 . S
C2444 C2443 1.398 . S
C2444 C2445 1.391 . S
C2445 H2433 0.950 1_655 S
C2445 C2441 1.393 . S
C2445 C2444 1.391 . S
C2446 H2436 0.950 . S
C2446 C2447 1.386 . S
C2446 C2448 1.391 . S
C2447 C2446 1.386 . S
C2447 C2451 1.393 . S
C2448 H2437 0.950 . S
C2448 C2446 1.391 . S
C2448 C2449 1.400 . S
C2449 C2443 1.491 . S
C2449 C2448 1.400 . S
C2449 C2450 1.398 . S
C2450 H2438 0.950 . S
C2450 C2449 1.398 . S
C2450 C2451 1.391 . S
C2451 H2439 0.950 . S
C2451 C2447 1.393 . S
C2451 C2450 1.391 . S
H2452 C2460 0.950 . S
H2453 C2465 0.950 . S
H2454 C2462 0.950 . S
H2455 C2464 0.950 . S
H2456 C2466 0.950 . S
H2457 C2468 0.950 . S
H2458 C2470 0.950 . S
H2459 C2471 0.950 . S
C2460 H2452 0.950 . S
C2460 C2461 1.386 . S
C2460 C2462 1.391 . S
C2461 C2460 1.386 . S
C2461 C2465 1.393 . S
C2462 H2454 0.950 . S
C2462 C2460 1.391 . S
C2462 C2463 1.400 . S
C2463 C2462 1.400 . S
C2463 C2464 1.398 . S
C2463 C2469 1.491 . S
C2464 H2455 0.950 . S
C2464 C2463 1.398 . S
C2464 C2465 1.391 . S
C2465 H2453 0.950 . S
C2465 C2461 1.393 . S
C2465 C2464 1.391 . S
C2466 H2456 0.950 . S
C2466 C2467 1.386 . S
C2466 C2468 1.391 . S
C2467 C2466 1.386 . S
C2467 C2471 1.393 . S
C2468 H2457 0.950 . S
C2468 C2466 1.391 . S
C2468 C2469 1.400 . S
C2469 C2463 1.491 . S
C2469 C2468 1.400 . S
C2469 C2470 1.398 . S
C2470 H2458 0.950 . S
C2470 C2469 1.398 . S
C2470 C2471 1.391 . S
C2471 H2459 0.950 . S
C2471 C2467 1.393 . S
C2471 C2470 1.391 . S
H2472 C2480 0.950 . S
H2473 C2485 0.950 . S
H2474 C2482 0.950 . S
H2475 C2484 0.950 . S
H2476 C2486 0.950 . S
H2477 C2488 0.950 . S
H2478 C2490 0.950 . S
H2479 C2491 0.950 . S
C2480 H2472 0.950 . S
C2480 C2481 1.386 . S
C2480 C2482 1.391 . S
C2481 C2480 1.386 . S
C2481 C2485 1.393 . S
C2482 H2474 0.950 . S
C2482 C2480 1.391 . S
C2482 C2483 1.400 . S
C2483 C2482 1.400 . S
C2483 C2484 1.398 . S
C2483 C2489 1.491 . S
C2484 H2475 0.950 . S
C2484 C2483 1.398 . S
C2484 C2485 1.391 . S
C2485 H2473 0.950 . S
C2485 C2481 1.393 . S
C2485 C2484 1.391 . S
C2486 H2476 0.950 . S
C2486 C2487 1.386 . S
C2486 C2488 1.391 . S
C2487 C2486 1.386 . S
C2487 C2491 1.393 . S
C2488 H2477 0.950 . S
C2488 C2486 1.391 . S
C2488 C2489 1.400 . S
C2489 C2483 1.491 . S
C2489 C2488 1.400 . S
C2489 C2490 1.398 . S
C2490 H2478 0.950 . S
C2490 C2489 1.398 . S
C2490 C2491 1.391 . S
C2491 H2479 0.950 . S
C2491 C2487 1.393 . S
C2491 C2490 1.391 . S
H2492 C2500 0.950 . S
H2493 C2505 0.950 . S
H2494 C2502 0.950 . S
H2495 C2504 0.950 . S
H2496 C2506 0.950 . S
H2497 C2508 0.950 . S
H2498 C2510 0.950 . S
H2499 C2511 0.950 1_554 S
C2500 H2492 0.950 . S
C2500 C2501 1.386 . S
C2500 C2502 1.391 . S
C2501 C2500 1.386 . S
C2501 C2505 1.393 . S
C2502 H2494 0.950 . S
C2502 C2500 1.391 . S
C2502 C2503 1.400 . S
C2503 C2502 1.400 . S
C2503 C2504 1.398 . S
C2503 C2509 1.491 . S
C2504 H2495 0.950 . S
C2504 C2503 1.398 . S
C2504 C2505 1.391 . S
C2505 H2493 0.950 . S
C2505 C2501 1.393 . S
C2505 C2504 1.391 . S
C2506 H2496 0.950 . S
C2506 C2507 1.386 . S
C2506 C2508 1.391 . S
C2507 C2506 1.386 . S
C2507 C2511 1.393 . S
C2508 H2497 0.950 . S
C2508 C2506 1.391 . S
C2508 C2509 1.400 . S
C2509 C2503 1.491 . S
C2509 C2508 1.400 . S
C2509 C2510 1.398 . S
C2510 H2498 0.950 . S
C2510 C2509 1.398 . S
C2510 C2511 1.391 . S
C2511 H2499 0.950 1_556 S
C2511 C2507 1.393 . S
C2511 C2510 1.391 . S
H2512 C2520 0.950 . S
H2513 C2525 0.950 . S
H2514 C2522 0.950 . S
H2515 C2524 0.950 . S
H2516 C2526 0.950 . S
H2517 C2528 0.950 . S
H2518 C2530 0.950 . S
H2519 C2531 0.950 . S
C2520 H2512 0.950 . S
C2520 C2521 1.386 . S
C2520 C2522 1.391 . S
C2521 C2520 1.386 . S
C2521 C2525 1.393 . S
C2522 H2514 0.950 . S
C2522 C2520 1.391 . S
C2522 C2523 1.400 . S
C2523 C2522 1.400 . S
C2523 C2524 1.398 . S
C2523 C2529 1.491 . S
C2524 H2515 0.950 . S
C2524 C2523 1.398 . S
C2524 C2525 1.391 . S
C2525 H2513 0.950 . S
C2525 C2521 1.393 . S
C2525 C2524 1.391 . S
C2526 H2516 0.950 . S
C2526 C2527 1.386 . S
C2526 C2528 1.391 . S
C2527 C2526 1.386 . S
C2527 C2531 1.393 . S
C2528 H2517 0.950 . S
C2528 C2526 1.391 . S
C2528 C2529 1.400 . S
C2529 C2523 1.491 . S
C2529 C2528 1.400 . S
C2529 C2530 1.398 . S
C2530 H2518 0.950 . S
C2530 C2529 1.398 . S
C2530 C2531 1.391 . S
C2531 H2519 0.950 . S
C2531 C2527 1.393 . S
C2531 C2530 1.391 . S
H2532 C2540 0.950 . S
H2533 C2545 0.950 . S
H2534 C2542 0.956 . S
H2535 C2544 0.950 . S
H2536 C2546 0.950 . S
H2537 C2548 0.950 . S
H2538 C2550 0.950 . S
H2539 C2551 0.950 . S
C2540 H2532 0.950 . S
C2540 C2541 1.386 1_655 S
C2540 C2542 1.391 1_655 S
C2541 C2540 1.386 1_455 S
C2541 C2545 1.393 . S
C2542 H2534 0.956 . S
C2542 C2540 1.391 1_455 S
C2542 C2543 1.400 . S
C2543 C2542 1.400 . S
C2543 C2544 1.398 . S
C2543 C2549 1.491 . S
C2544 H2535 0.950 . S
C2544 C2543 1.398 . S
C2544 C2545 1.391 . S
C2545 H2533 0.950 . S
C2545 C2541 1.393 . S
C2545 C2544 1.391 . S
C2546 H2536 0.950 . S
C2546 C2547 1.386 . S
C2546 C2548 1.391 . S
C2547 C2546 1.386 . S
C2547 C2551 1.393 . S
C2548 H2537 0.950 . S
C2548 C2546 1.391 . S
C2548 C2549 1.400 . S
C2549 C2543 1.491 . S
C2549 C2548 1.400 . S
C2549 C2550 1.398 . S
C2550 H2538 0.950 . S
C2550 C2549 1.398 . S
C2550 C2551 1.391 . S
C2551 H2539 0.950 . S
C2551 C2547 1.393 . S
C2551 C2550 1.391 . S
H2552 C2560 0.950 . S
H2553 C2565 0.950 . S
H2554 C2562 0.950 . S
H2555 C2564 0.950 . S
H2556 C2566 0.950 . S
H2557 C2568 0.950 . S
H2558 C2570 0.950 . S
H2559 C2571 0.950 . S
C2560 H2552 0.950 . S
C2560 C2561 1.386 . S
C2560 C2562 1.391 . S
C2561 C2560 1.386 . S
C2561 C2565 1.393 . S
C2562 H2554 0.950 . S
C2562 C2560 1.391 . S
C2562 C2563 1.400 . S
C2563 C2562 1.400 . S
C2563 C2564 1.398 . S
C2563 C2569 1.491 . S
C2564 H2555 0.950 . S
C2564 C2563 1.398 . S
C2564 C2565 1.391 . S
C2565 H2553 0.950 . S
C2565 C2561 1.393 . S
C2565 C2564 1.391 . S
C2566 H2556 0.950 . S
C2566 C2567 1.386 . S
C2566 C2568 1.391 . S
C2567 C2566 1.386 . S
C2567 C2571 1.393 . S
C2568 H2557 0.950 . S
C2568 C2566 1.391 . S
C2568 C2569 1.400 . S
C2569 C2563 1.491 . S
C2569 C2568 1.400 . S
C2569 C2570 1.398 . S
C2570 H2558 0.950 . S
C2570 C2569 1.398 . S
C2570 C2571 1.391 . S
C2571 H2559 0.950 . S
C2571 C2567 1.393 . S
C2571 C2570 1.391 . S
H2572 C2580 0.950 . S
H2573 C2585 0.950 . S
H2574 C2582 0.950 . S
H2575 C2584 0.950 . S
H2576 C2586 0.950 1_556 S
H2577 C2588 0.950 . S
H2578 C2590 0.943 1_655 S
H2579 C2591 0.950 . S
C2580 H2572 0.950 . S
C2580 C2581 1.386 . S
C2580 C2582 1.391 . S
C2581 C2580 1.386 . S
C2581 C2585 1.393 . S
C2582 H2574 0.950 . S
C2582 C2580 1.391 . S
C2582 C2583 1.400 . S
C2583 C2582 1.400 . S
C2583 C2584 1.398 . S
C2583 C2589 1.491 . S
C2584 H2575 0.950 . S
C2584 C2583 1.398 . S
C2584 C2585 1.391 . S
C2585 H2573 0.950 . S
C2585 C2581 1.393 . S
C2585 C2584 1.391 . S
C2586 H2576 0.950 1_554 S
C2586 C2587 1.415 . S
C2586 C2588 1.391 . S
C2587 C2586 1.415 . S
C2587 C2591 1.378 1_455 S
C2588 H2577 0.950 . S
C2588 C2586 1.391 . S
C2588 C2589 1.400 . S
C2589 C2583 1.491 . S
C2589 C2588 1.400 . S
C2589 C2590 1.413 . S
C2590 H2578 0.943 1_455 S
C2590 C2589 1.413 . S
C2590 C2591 1.384 1_455 S
C2591 H2579 0.950 . S
C2591 C2587 1.378 1_655 S
C2591 C2590 1.384 1_655 S
H2592 C2600 0.950 . S
H2593 C2605 0.950 . S
H2594 C2602 0.950 . S
H2595 C2604 0.950 . S
H2596 C2606 0.950 . S
H2597 C2608 0.950 . S
H2598 C2610 0.950 . S
H2599 C2611 0.950 . S
C2600 H2592 0.950 . S
C2600 C2601 1.386 . S
C2600 C2602 1.391 . S
C2601 C2600 1.386 . S
C2601 C2605 1.393 . S
C2602 H2594 0.950 . S
C2602 C2600 1.391 . S
C2602 C2603 1.400 . S
C2603 C2602 1.400 . S
C2603 C2604 1.398 . S
C2603 C2609 1.491 . S
C2604 H2595 0.950 . S
C2604 C2603 1.398 . S
C2604 C2605 1.391 . S
C2605 H2593 0.950 . S
C2605 C2601 1.393 . S
C2605 C2604 1.391 . S
C2606 H2596 0.950 . S
C2606 C2607 1.386 . S
C2606 C2608 1.391 . S
C2607 C2606 1.386 . S
C2607 C2611 1.393 . S
C2608 H2597 0.950 . S
C2608 C2606 1.391 . S
C2608 C2609 1.400 . S
C2609 C2603 1.491 . S
C2609 C2608 1.400 . S
C2609 C2610 1.398 . S
C2610 H2598 0.950 . S
C2610 C2609 1.398 . S
C2610 C2611 1.391 . S
C2611 H2599 0.950 . S
C2611 C2607 1.393 . S
C2611 C2610 1.391 . S
H2612 C2620 0.950 . S
H2613 C2625 0.950 . S
H2614 C2622 0.950 . S
H2615 C2624 0.950 . S
H2616 C2626 0.950 . S
H2617 C2628 0.950 . S
H2618 C2630 0.950 . S
H2619 C2631 0.950 . S
C2620 H2612 0.950 . S
C2620 C2621 1.386 . S
C2620 C2622 1.391 . S
C2621 C2620 1.386 . S
C2621 C2625 1.393 . S
C2622 H2614 0.950 . S
C2622 C2620 1.391 . S
C2622 C2623 1.400 . S
C2623 C2622 1.400 . S
C2623 C2624 1.398 . S
C2623 C2629 1.491 . S
C2624 H2615 0.950 . S
C2624 C2623 1.398 . S
C2624 C2625 1.391 . S
C2625 H2613 0.950 . S
C2625 C2621 1.393 . S
C2625 C2624 1.391 . S
C2626 H2616 0.950 . S
C2626 C2627 1.386 . S
C2626 C2628 1.391 . S
C2627 C2626 1.386 . S
C2627 C2631 1.393 . S
C2628 H2617 0.950 . S
C2628 C2626 1.391 . S
C2628 C2629 1.400 . S
C2629 C2623 1.491 . S
C2629 C2628 1.400 . S
C2629 C2630 1.398 . S
C2630 H2618 0.950 . S
C2630 C2629 1.398 . S
C2630 C2631 1.391 . S
C2631 H2619 0.950 . S
C2631 C2627 1.393 . S
C2631 C2630 1.391 . S
H2632 C2640 0.950 . S
H2633 C2645 0.950 . S
H2634 C2642 0.950 . S
H2635 C2644 0.950 . S
H2636 C2646 0.950 . S
H2637 C2648 0.950 . S
H2638 C2650 0.950 . S
H2639 C2651 0.950 . S
C2640 H2632 0.950 . S
C2640 C2641 1.386 . S
C2640 C2642 1.391 . S
C2641 C2640 1.386 . S
C2641 C2645 1.393 . S
C2642 H2634 0.950 . S
C2642 C2640 1.391 . S
C2642 C2643 1.400 . S
C2643 C2642 1.400 . S
C2643 C2644 1.398 . S
C2643 C2649 1.491 . S
C2644 H2635 0.950 . S
C2644 C2643 1.398 . S
C2644 C2645 1.391 . S
C2645 H2633 0.950 . S
C2645 C2641 1.393 . S
C2645 C2644 1.391 . S
C2646 H2636 0.950 . S
C2646 C2647 1.386 . S
C2646 C2648 1.391 . S
C2647 C2646 1.386 . S
C2647 C2651 1.393 . S
C2648 H2637 0.950 . S
C2648 C2646 1.391 . S
C2648 C2649 1.400 . S
C2649 C2643 1.491 . S
C2649 C2648 1.400 . S
C2649 C2650 1.398 . S
C2650 H2638 0.950 . S
C2650 C2649 1.398 . S
C2650 C2651 1.391 . S
C2651 H2639 0.950 . S
C2651 C2647 1.393 . S
C2651 C2650 1.391 . S
H2652 C2660 0.950 . S
H2653 C2665 0.950 . S
H2654 C2662 0.966 . S
H2655 C2664 0.950 . S
H2656 C2666 0.950 . S
H2657 C2668 0.950 . S
H2658 C2670 0.950 . S
H2659 C2671 0.950 . S
C2660 H2652 0.950 . S
C2660 C2661 1.382 1_556 S
C2660 C2662 1.406 . S
C2661 C2660 1.382 1_554 S
C2661 C2665 1.400 . S
C2662 H2654 0.966 . S
C2662 C2660 1.406 . S
C2662 C2663 1.371 1_556 S
C2663 C2662 1.371 1_554 S
C2663 C2664 1.398 . S
C2663 C2669 1.491 . S
C2664 H2655 0.950 . S
C2664 C2663 1.398 . S
C2664 C2665 1.391 . S
C2665 H2653 0.950 . S
C2665 C2661 1.400 . S
C2665 C2664 1.391 . S
C2666 H2656 0.950 . S
C2666 C2667 1.386 . S
C2666 C2668 1.391 . S
C2667 C2666 1.386 . S
C2667 C2671 1.393 . S
C2668 H2657 0.950 . S
C2668 C2666 1.391 . S
C2668 C2669 1.400 . S
C2669 C2663 1.491 . S
C2669 C2668 1.400 . S
C2669 C2670 1.398 . S
C2670 H2658 0.950 . S
C2670 C2669 1.398 . S
C2670 C2671 1.391 . S
C2671 H2659 0.950 . S
C2671 C2667 1.393 . S
C2671 C2670 1.391 . S
H2672 C2680 0.950 . S
H2673 C2685 0.950 . S
H2674 C2682 0.950 . S
H2675 C2684 0.950 . S
H2676 C2686 0.950 . S
H2677 C2688 0.950 . S
H2678 C2690 0.950 . S
H2679 C2691 0.950 . S
C2680 H2672 0.950 . S
C2680 C2681 1.386 . S
C2680 C2682 1.391 . S
C2681 C2680 1.386 . S
C2681 C2685 1.393 . S
C2682 H2674 0.950 . S
C2682 C2680 1.391 . S
C2682 C2683 1.400 . S
C2683 C2682 1.400 . S
C2683 C2684 1.398 . S
C2683 C2689 1.491 . S
C2684 H2675 0.950 . S
C2684 C2683 1.398 . S
C2684 C2685 1.391 . S
C2685 H2673 0.950 . S
C2685 C2681 1.393 . S
C2685 C2684 1.391 . S
C2686 H2676 0.950 . S
C2686 C2687 1.386 . S
C2686 C2688 1.391 . S
C2687 C2686 1.386 . S
C2687 C2691 1.393 . S
C2688 H2677 0.950 . S
C2688 C2686 1.391 . S
C2688 C2689 1.400 . S
C2689 C2683 1.491 . S
C2689 C2688 1.400 . S
C2689 C2690 1.398 . S
C2690 H2678 0.950 . S
C2690 C2689 1.398 . S
C2690 C2691 1.391 . S
C2691 H2679 0.950 . S
C2691 C2687 1.393 . S
C2691 C2690 1.391 . S
H2692 C2700 0.950 . S
H2693 C2705 0.950 . S
H2694 C2702 0.950 . S
H2695 C2704 0.950 . S
H2696 C2706 0.950 . S
H2697 C2708 0.950 . S
H2698 C2710 0.950 . S
H2699 C2711 0.950 . S
C2700 H2692 0.950 . S
C2700 C2701 1.386 . S
C2700 C2702 1.391 . S
C2701 C2700 1.386 . S
C2701 C2705 1.393 . S
C2702 H2694 0.950 . S
C2702 C2700 1.391 . S
C2702 C2703 1.400 . S
C2703 C2702 1.400 . S
C2703 C2704 1.398 . S
C2703 C2709 1.491 . S
C2704 H2695 0.950 . S
C2704 C2703 1.398 . S
C2704 C2705 1.391 . S
C2705 H2693 0.950 . S
C2705 C2701 1.393 . S
C2705 C2704 1.391 . S
C2706 H2696 0.950 . S
C2706 C2707 1.386 . S
C2706 C2708 1.391 . S
C2707 C2706 1.386 . S
C2707 C2711 1.393 . S
C2708 H2697 0.950 . S
C2708 C2706 1.391 . S
C2708 C2709 1.400 . S
C2709 C2703 1.491 . S
C2709 C2708 1.400 . S
C2709 C2710 1.398 . S
C2710 H2698 0.950 . S
C2710 C2709 1.398 . S
C2710 C2711 1.391 . S
C2711 H2699 0.950 . S
C2711 C2707 1.393 . S
C2711 C2710 1.391 . S
H2712 C2720 0.950 . S
H2713 C2725 0.950 . S
H2714 C2722 0.950 . S
H2715 C2724 0.950 . S
H2716 C2726 0.950 . S
H2717 C2728 0.950 . S
H2718 C2730 0.950 . S
H2719 C2731 0.950 . S
C2720 H2712 0.950 . S
C2720 C2721 1.386 . S
C2720 C2722 1.391 . S
C2721 C2720 1.386 . S
C2721 C2725 1.393 . S
C2722 H2714 0.950 . S
C2722 C2720 1.391 . S
C2722 C2723 1.400 . S
C2723 C2722 1.400 . S
C2723 C2724 1.398 . S
C2723 C2729 1.491 . S
C2724 H2715 0.950 . S
C2724 C2723 1.398 . S
C2724 C2725 1.391 . S
C2725 H2713 0.950 . S
C2725 C2721 1.393 . S
C2725 C2724 1.391 . S
C2726 H2716 0.950 . S
C2726 C2727 1.386 . S
C2726 C2728 1.391 . S
C2727 C2726 1.386 . S
C2727 C2731 1.393 . S
C2728 H2717 0.950 . S
C2728 C2726 1.391 . S
C2728 C2729 1.400 . S
C2729 C2723 1.491 . S
C2729 C2728 1.400 . S
C2729 C2730 1.398 . S
C2730 H2718 0.950 . S
C2730 C2729 1.398 . S
C2730 C2731 1.391 . S
C2731 H2719 0.950 . S
C2731 C2727 1.393 . S
C2731 C2730 1.391 . S
H2732 C2740 0.950 . S
H2733 C2745 0.950 . S
H2734 C2742 0.950 . S
H2735 C2744 0.955 . S
H2736 C2746 0.950 . S
H2737 C2748 0.950 . S
H2738 C2750 0.950 . S
H2739 C2751 0.950 . S
C2740 H2732 0.950 . S
C2740 C2741 1.381 1_556 S
C2740 C2742 1.391 . S
C2741 C2740 1.381 1_554 S
C2741 C2745 1.395 . S
C2742 H2734 0.950 . S
C2742 C2740 1.391 . S
C2742 C2743 1.400 . S
C2743 C2742 1.400 . S
C2743 C2744 1.389 1_556 S
C2743 C2749 1.491 . S
C2744 H2735 0.955 . S
C2744 C2743 1.389 1_554 S
C2744 C2745 1.395 . S
C2745 H2733 0.950 . S
C2745 C2741 1.395 . S
C2745 C2744 1.395 . S
C2746 H2736 0.950 . S
C2746 C2747 1.386 . S
C2746 C2748 1.391 . S
C2747 C2746 1.386 . S
C2747 C2751 1.393 . S
C2748 H2737 0.950 . S
C2748 C2746 1.391 . S
C2748 C2749 1.400 . S
C2749 C2743 1.491 . S
C2749 C2748 1.400 . S
C2749 C2750 1.398 . S
C2750 H2738 0.950 . S
C2750 C2749 1.398 . S
C2750 C2751 1.391 . S
C2751 H2739 0.950 . S
C2751 C2747 1.393 . S
C2751 C2750 1.391 . S
H2752 C2760 0.950 . S
H2753 C2765 0.950 . S
H2754 C2762 0.950 . S
H2755 C2764 0.950 . S
H2756 C2766 0.950 . S
H2757 C2768 0.950 . S
H2758 C2770 0.950 . S
H2759 C2771 0.950 . S
C2760 H2752 0.950 . S
C2760 C2761 1.386 . S
C2760 C2762 1.391 . S
C2761 C2760 1.386 . S
C2761 C2765 1.393 . S
C2762 H2754 0.950 . S
C2762 C2760 1.391 . S
C2762 C2763 1.400 . S
C2763 C2762 1.400 . S
C2763 C2764 1.398 . S
C2763 C2769 1.491 . S
C2764 H2755 0.950 . S
C2764 C2763 1.398 . S
C2764 C2765 1.391 . S
C2765 H2753 0.950 . S
C2765 C2761 1.393 . S
C2765 C2764 1.391 . S
C2766 H2756 0.950 . S
C2766 C2767 1.386 . S
C2766 C2768 1.391 . S
C2767 C2766 1.386 . S
C2767 C2771 1.393 . S
C2768 H2757 0.950 . S
C2768 C2766 1.391 . S
C2768 C2769 1.400 . S
C2769 C2763 1.491 . S
C2769 C2768 1.400 . S
C2769 C2770 1.398 . S
C2770 H2758 0.950 . S
C2770 C2769 1.398 . S
C2770 C2771 1.391 . S
C2771 H2759 0.950 . S
C2771 C2767 1.393 . S
C2771 C2770 1.391 . S
H2772 C2780 0.950 . S
H2773 C2785 0.950 . S
H2774 C2782 0.950 . S
H2775 C2784 0.950 . S
H2776 C2786 0.950 . S
H2777 C2788 0.950 . S
H2778 C2790 0.950 . S
H2779 C2791 0.950 . S
C2780 H2772 0.950 . S
C2780 C2781 1.386 . S
C2780 C2782 1.391 . S
C2781 C2780 1.386 . S
C2781 C2785 1.393 . S
C2782 H2774 0.950 . S
C2782 C2780 1.391 . S
C2782 C2783 1.400 . S
C2783 C2782 1.400 . S
C2783 C2784 1.398 . S
C2783 C2789 1.491 . S
C2784 H2775 0.950 . S
C2784 C2783 1.398 . S
C2784 C2785 1.391 . S
C2785 H2773 0.950 . S
C2785 C2781 1.393 . S
C2785 C2784 1.391 . S
C2786 H2776 0.950 . S
C2786 C2787 1.386 . S
C2786 C2788 1.391 . S
C2787 C2786 1.386 . S
C2787 C2791 1.393 . S
C2788 H2777 0.950 . S
C2788 C2786 1.391 . S
C2788 C2789 1.400 . S
C2789 C2783 1.491 . S
C2789 C2788 1.400 . S
C2789 C2790 1.398 . S
C2790 H2778 0.950 . S
C2790 C2789 1.398 . S
C2790 C2791 1.391 . S
C2791 H2779 0.950 . S
C2791 C2787 1.393 . S
C2791 C2790 1.391 . S
H2792 C2800 0.950 . S
H2793 C2805 0.950 . S
H2794 C2802 0.950 . S
H2795 C2804 0.950 . S
H2796 C2806 0.950 . S
H2797 C2808 0.950 . S
H2798 C2810 0.950 . S
H2799 C2811 0.950 . S
C2800 H2792 0.950 . S
C2800 C2801 1.386 . S
C2800 C2802 1.391 . S
C2801 C2800 1.386 . S
C2801 C2805 1.393 . S
C2802 H2794 0.950 . S
C2802 C2800 1.391 . S
C2802 C2803 1.400 . S
C2803 C2802 1.400 . S
C2803 C2804 1.398 . S
C2803 C2809 1.491 . S
C2804 H2795 0.950 . S
C2804 C2803 1.398 . S
C2804 C2805 1.391 . S
C2805 H2793 0.950 . S
C2805 C2801 1.393 . S
C2805 C2804 1.391 . S
C2806 H2796 0.950 . S
C2806 C2807 1.386 . S
C2806 C2808 1.391 . S
C2807 C2806 1.386 . S
C2807 C2811 1.393 . S
C2808 H2797 0.950 . S
C2808 C2806 1.391 . S
C2808 C2809 1.400 . S
C2809 C2803 1.491 . S
C2809 C2808 1.400 . S
C2809 C2810 1.398 . S
C2810 H2798 0.950 . S
C2810 C2809 1.398 . S
C2810 C2811 1.391 . S
C2811 H2799 0.950 . S
C2811 C2807 1.393 . S
C2811 C2810 1.391 . S
H2812 C2820 0.950 . S
H2813 C2825 0.950 . S
H2814 C2822 0.950 . S
H2815 C2824 0.950 . S
H2816 C2826 0.950 . S
H2817 C2828 0.950 . S
H2818 C2830 0.950 . S
H2819 C2831 0.950 . S
C2820 H2812 0.950 . S
C2820 C2821 1.386 . S
C2820 C2822 1.391 . S
C2821 C2820 1.386 . S
C2821 C2825 1.393 . S
C2822 H2814 0.950 . S
C2822 C2820 1.391 . S
C2822 C2823 1.400 . S
C2823 C2822 1.400 . S
C2823 C2824 1.398 . S
C2823 C2829 1.491 . S
C2824 H2815 0.950 . S
C2824 C2823 1.398 . S
C2824 C2825 1.391 . S
C2825 H2813 0.950 . S
C2825 C2821 1.393 . S
C2825 C2824 1.391 . S
C2826 H2816 0.950 . S
C2826 C2827 1.386 . S
C2826 C2828 1.391 . S
C2827 C2826 1.386 . S
C2827 C2831 1.393 . S
C2828 H2817 0.950 . S
C2828 C2826 1.391 . S
C2828 C2829 1.400 . S
C2829 C2823 1.491 . S
C2829 C2828 1.400 . S
C2829 C2830 1.398 . S
C2830 H2818 0.950 . S
C2830 C2829 1.398 . S
C2830 C2831 1.391 . S
C2831 H2819 0.950 . S
C2831 C2827 1.393 . S
C2831 C2830 1.391 . S
H2832 C2840 0.950 . S
H2833 C2845 0.950 . S
H2834 C2842 0.950 . S
H2835 C2844 0.950 . S
H2836 C2846 0.950 . S
H2837 C2848 0.950 . S
H2838 C2850 0.950 . S
H2839 C2851 0.950 1_565 S
C2840 H2832 0.950 . S
C2840 C2841 1.386 . S
C2840 C2842 1.391 . S
C2841 C2840 1.386 . S
C2841 C2845 1.393 . S
C2842 H2834 0.950 . S
C2842 C2840 1.391 . S
C2842 C2843 1.400 . S
C2843 C2842 1.400 . S
C2843 C2844 1.398 . S
C2843 C2849 1.491 . S
C2844 H2835 0.950 . S
C2844 C2843 1.398 . S
C2844 C2845 1.391 . S
C2845 H2833 0.950 . S
C2845 C2841 1.393 . S
C2845 C2844 1.391 . S
C2846 H2836 0.950 . S
C2846 C2847 1.380 1_545 S
C2846 C2848 1.391 . S
C2847 C2846 1.380 1_565 S
C2847 C2851 1.391 1_565 S
C2848 H2837 0.950 . S
C2848 C2846 1.391 . S
C2848 C2849 1.400 . S
C2849 C2843 1.491 . S
C2849 C2848 1.400 . S
C2849 C2850 1.398 . S
C2850 H2838 0.950 . S
C2850 C2849 1.398 . S
C2850 C2851 1.391 . S
C2851 H2839 0.950 1_545 S
C2851 C2847 1.391 1_545 S
C2851 C2850 1.391 . S
H2852 C2860 0.950 . S
H2853 C2865 0.950 . S
H2854 C2862 0.950 . S
H2855 C2864 0.950 . S
H2856 C2866 0.950 . S
H2857 C2868 0.950 . S
H2858 C2870 0.950 . S
H2859 C2871 0.950 . S
C2860 H2852 0.950 . S
C2860 C2861 1.386 . S
C2860 C2862 1.391 . S
C2861 C2860 1.386 . S
C2861 C2865 1.393 . S
C2862 H2854 0.950 . S
C2862 C2860 1.391 . S
C2862 C2863 1.400 . S
C2863 C2862 1.400 . S
C2863 C2864 1.398 . S
C2863 C2869 1.491 . S
C2864 H2855 0.950 . S
C2864 C2863 1.398 . S
C2864 C2865 1.391 . S
C2865 H2853 0.950 . S
C2865 C2861 1.393 . S
C2865 C2864 1.391 . S
C2866 H2856 0.950 . S
C2866 C2867 1.386 . S
C2866 C2868 1.391 . S
C2867 C2866 1.386 . S
C2867 C2871 1.393 . S
C2868 H2857 0.950 . S
C2868 C2866 1.391 . S
C2868 C2869 1.400 . S
C2869 C2863 1.491 . S
C2869 C2868 1.400 . S
C2869 C2870 1.398 . S
C2870 H2858 0.950 . S
C2870 C2869 1.398 . S
C2870 C2871 1.391 . S
C2871 H2859 0.950 . S
C2871 C2867 1.393 . S
C2871 C2870 1.391 . S
H2872 C2880 0.950 . S
H2873 C2885 0.950 . S
H2874 C2882 0.950 . S
H2875 C2884 0.950 . S
H2876 C2886 0.950 . S
H2877 C2888 0.950 . S
H2878 C2890 0.950 . S
H2879 C2891 0.950 . S
C2880 H2872 0.950 . S
C2880 C2881 1.386 . S
C2880 C2882 1.391 . S
C2881 C2880 1.386 . S
C2881 C2885 1.393 . S
C2882 H2874 0.950 . S
C2882 C2880 1.391 . S
C2882 C2883 1.400 . S
C2883 C2882 1.400 . S
C2883 C2884 1.398 . S
C2883 C2889 1.491 . S
C2884 H2875 0.950 . S
C2884 C2883 1.398 . S
C2884 C2885 1.391 . S
C2885 H2873 0.950 . S
C2885 C2881 1.393 . S
C2885 C2884 1.391 . S
C2886 H2876 0.950 . S
C2886 C2887 1.386 . S
C2886 C2888 1.391 . S
C2887 C2886 1.386 . S
C2887 C2891 1.393 . S
C2888 H2877 0.950 . S
C2888 C2886 1.391 . S
C2888 C2889 1.400 . S
C2889 C2883 1.491 . S
C2889 C2888 1.400 . S
C2889 C2890 1.398 . S
C2890 H2878 0.950 . S
C2890 C2889 1.398 . S
C2890 C2891 1.391 . S
C2891 H2879 0.950 . S
C2891 C2887 1.393 . S
C2891 C2890 1.391 . S
H2892 C2900 0.950 . S
H2893 C2905 0.950 . S
H2894 C2902 0.950 . S
H2895 C2904 0.950 . S
H2896 C2906 0.950 . S
H2897 C2908 0.950 . S
H2898 C2910 0.950 . S
H2899 C2911 0.950 . S
C2900 H2892 0.950 . S
C2900 C2901 1.386 . S
C2900 C2902 1.391 . S
C2901 C2900 1.386 . S
C2901 C2905 1.393 . S
C2902 H2894 0.950 . S
C2902 C2900 1.391 . S
C2902 C2903 1.400 . S
C2903 C2902 1.400 . S
C2903 C2904 1.398 . S
C2903 C2909 1.491 . S
C2904 H2895 0.950 . S
C2904 C2903 1.398 . S
C2904 C2905 1.391 . S
C2905 H2893 0.950 . S
C2905 C2901 1.393 . S
C2905 C2904 1.391 . S
C2906 H2896 0.950 . S
C2906 C2907 1.386 . S
C2906 C2908 1.391 . S
C2907 C2906 1.386 . S
C2907 C2911 1.393 . S
C2908 H2897 0.950 . S
C2908 C2906 1.391 . S
C2908 C2909 1.400 . S
C2909 C2903 1.491 . S
C2909 C2908 1.400 . S
C2909 C2910 1.398 . S
C2910 H2898 0.950 . S
C2910 C2909 1.398 . S
C2910 C2911 1.391 . S
C2911 H2899 0.950 . S
C2911 C2907 1.393 . S
C2911 C2910 1.391 . S
H2912 C2920 0.950 . S
H2913 C2925 0.950 . S
H2914 C2922 0.950 . S
H2915 C2924 0.950 . S
H2916 C2926 0.950 . S
H2917 C2928 0.950 . S
H2918 C2930 0.950 . S
H2919 C2931 0.950 . S
C2920 H2912 0.950 . S
C2920 C2921 1.374 1_565 S
C2920 C2922 1.391 . S
C2921 C2920 1.374 1_545 S
C2921 C2925 1.396 . S
C2922 H2914 0.950 . S
C2922 C2920 1.391 . S
C2922 C2923 1.400 . S
C2923 C2922 1.400 . S
C2923 C2924 1.398 . S
C2923 C2929 1.491 . S
C2924 H2915 0.950 . S
C2924 C2923 1.398 . S
C2924 C2925 1.391 1_565 S
C2925 H2913 0.950 . S
C2925 C2921 1.396 . S
C2925 C2924 1.391 1_545 S
C2926 H2916 0.950 . S
C2926 C2927 1.386 . S
C2926 C2928 1.391 . S
C2927 C2926 1.386 . S
C2927 C2931 1.393 . S
C2928 H2917 0.950 . S
C2928 C2926 1.391 . S
C2928 C2929 1.400 . S
C2929 C2923 1.491 . S
C2929 C2928 1.400 . S
C2929 C2930 1.398 . S
C2930 H2918 0.950 . S
C2930 C2929 1.398 . S
C2930 C2931 1.391 . S
C2931 H2919 0.950 . S
C2931 C2927 1.393 . S
C2931 C2930 1.391 . S
H2932 C2940 0.950 1_655 S
H2933 C2945 0.950 1_565 S
H2934 C2942 0.950 . S
H2935 C2944 0.950 . S
H2936 C2946 0.950 . S
H2937 C2948 0.950 . S
H2938 C2950 0.950 . S
H2939 C2951 0.950 . S
C2940 H2932 0.950 1_455 S
C2940 C2941 1.382 1_545 S
C2940 C2942 1.391 . S
C2941 C2940 1.382 1_565 S
C2941 C2945 1.391 1_565 S
C2942 H2934 0.950 . S
C2942 C2940 1.391 . S
C2942 C2943 1.400 . S
C2943 C2942 1.400 . S
C2943 C2944 1.398 . S
C2943 C2949 1.491 . S
C2944 H2935 0.950 . S
C2944 C2943 1.398 . S
C2944 C2945 1.391 . S
C2945 H2933 0.950 1_545 S
C2945 C2941 1.391 1_545 S
C2945 C2944 1.391 . S
C2946 H2936 0.950 . S
C2946 C2947 1.386 . S
C2946 C2948 1.391 . S
C2947 C2946 1.386 . S
C2947 C2951 1.393 . S
C2948 H2937 0.950 . S
C2948 C2946 1.391 . S
C2948 C2949 1.400 . S
C2949 C2943 1.491 . S
C2949 C2948 1.400 . S
C2949 C2950 1.398 . S
C2950 H2938 0.950 . S
C2950 C2949 1.398 . S
C2950 C2951 1.391 . S
C2951 H2939 0.950 . S
C2951 C2947 1.393 . S
C2951 C2950 1.391 . S
C1041 C641 0.583 . S
C1047 C39 0.640 . S
C1061 C82 0.552 . S
C1067 C658 0.635 . S
C1081 C99 0.639 . S
C1087 C813 0.557 . S
C1101 C598 0.643 . S
C1107 C168 0.585 . S
C1121 C185 0.606 . S
C1127 C615 0.629 . S
C1141 C684 0.639 . S
C1147 C254 0.564 . S
C1161 C787 0.597 . S
C1167 C297 0.553 . S
C1181 C572 0.552 . S
C1187 C340 0.632 . S
C1201 C383 0.646 . S
C1207 C426 0.578 . S
C1221 C469 0.581 . S
C1227 C400 0.577 . S
C1241 C443 0.639 . S
C1247 C512 0.572 . S
C1261 C357 0.625 . S
C1267 C486 0.543 . S
C1281 C529 0.554 . S
C1287 C142 0.617 . S
C1301 C211 0.599 . S
C1307 C727 0.622 . S
C1321 C56 0.547 . S
C1327 C770 0.609 . S
C1341 C1002 0.639 . S
C1347 C125 0.556 . S
C1361 C701 0.607 . S
C1367 C13 0.626 . S
C1381 C271 0.637 . S
C1387 C1028 0.575 . S
C1401 C555 0.621 . S
C1407 C314 0.543 . S
C1421 C228 0.594 . S
C1427 C744 0.628 . S
C1441 C856 0.551 . S
C1447 C899 0.598 . S
C1461 C873 0.544 . S
C1467 C942 0.617 . S
C1481 C916 0.549 . S
C1487 C985 0.604 . S
C1501 C959 0.607 . S
C1507 C830 0.618 . S
C1521 C414 2.546 . S
C1527 C32 2.524 . S
C1541 C457 2.530 . S
C1547 C75 2.544 . S
C1561 C113 2.548 . S
C1567 C500 2.528 . S
C1581 C161 2.534 . S
C1587 C376 2.536 . S
C1601 C199 2.525 . S
C1607 C505 2.544 . S
C1621 C247 2.538 . S
C1627 C371 2.537 . S
C1641 C290 2.546 . S
C1647 C419 2.527 . S
C1661 C462 2.547 . S
C1667 C333 2.523 . S
C1681 C629 2.526 . S
C1687 C543 2.545 . S
C1701 C1016 2.524 . S
C1707 C586 2.549 . S
C1721 C677 2.533 . S
C1727 C715 2.544 . S
C1741 C591 2.549 . S
C1747 C720 2.520 . S
C1761 C801 2.549 . S
C1767 C763 2.524 . S
C1781 C758 2.549 . S
C1787 C634 2.525 . S
C1801 C806 2.524 . S
C1807 C548 2.552 . S
C1821 C118 2.548 . S
C1827 C887 2.528 . S
C1841 C930 2.549 . S
C1847 C156 2.525 . S
C1861 C27 2.548 . S
C1867 C973 2.528 . S
C1881 C849 2.545 . S
C1887 C70 2.529 . S
C1901 C978 2.546 . S
C1907 C285 2.527 . S
C1921 C328 2.545 . S
C1927 C844 2.531 . S
C1941 C892 2.525 . S
C1947 C204 2.548 . S
C1961 C935 2.529 . S
C1967 C242 2.544 . S
C1981 C672 2.545 . S
C1987 C1021 2.531 . S
C2001 N519 1.129 . S
C2007 C40 1.305 . S
C2021 N691 1.128 . S
C2027 C83 1.310 1_655 S
C2041 N739 1.171 . S
C2047 C119 1.311 . S
C2061 C169 1.314 1_556 S
C2067 N992 1.144 . S
C2081 C205 1.310 . S
C2087 N734 1.161 . S
C2101 C255 1.314 . S
C2107 N997 1.169 . S
C2121 N524 1.146 . S
C2127 C298 1.314 . S
C2141 C341 1.309 1_654 S
C2147 N696 1.125 . S
C2161 N8 1.176 . S
C2167 C384 1.306 . S
C2181 C420 1.313 1_565 S
C2187 N51 1.120 . S
C2201 N89 1.155 . S
C2207 C463 1.312 . S
C2221 N137 1.132 . S
C2227 C506 1.309 1_544 S
C2241 N175 1.122 . S
C2247 C377 1.310 . S
C2261 C427 1.314 1_565 S
C2267 N223 1.159 . S
C2281 C470 1.310 . S
C2287 N266 1.158 . S
C2301 N309 1.122 . S
C2307 C513 1.312 1_546 S
C2321 C549 1.311 . S
C2327 N352 1.166 . S
C2341 N820 1.122 . S
C2347 C592 1.314 . S
C2361 N868 1.158 . S
C2367 C635 1.308 1_655 S
C2381 N911 1.165 . S
C2387 C685 1.310 . S
C2401 N481 1.176 . S
C2407 C728 1.312 1_465 S
C2421 N433 1.123 . S
C2427 C771 1.317 . S
C2441 C642 1.311 1_655 S
C2447 N949 1.127 . S
C2461 N863 1.166 . S
C2467 C814 1.312 . S
C2481 C126 1.311 . S
C2487 N648 1.174 . S
C2501 N782 1.171 . S
C2507 C162 1.311 1_556 S
C2521 C33 1.314 . S
C2527 N567 1.140 . S
C2541 C76 1.311 1_455 S
C2547 N610 1.123 . S
C2561 N562 1.142 . S
C2567 C291 1.314 . S
C2581 N605 1.123 . S
C2587 C334 1.298 1_454 S
C2601 C212 1.310 . S
C2607 N653 1.152 . S
C2621 C248 1.310 . S
C2627 N777 1.130 . S
C2641 C857 1.314 . S
C2647 N94 1.156 . S
C2661 C893 1.310 1_554 S
C2667 N132 1.133 . S
C2681 N3 1.126 . S
C2687 C936 1.315 . S
C2701 N46 1.158 . S
C2707 C979 1.316 . S
C2721 C850 1.314 . S
C2727 N261 1.143 . S
C2741 C900 1.314 . S
C2747 N304 1.180 . S
C2761 N180 1.130 . S
C2767 C943 1.318 . S
C2781 N218 1.168 . S
C2787 C986 1.313 . S
C2801 C678 1.313 . S
C2807 N825 1.124 . S
C2821 N347 1.162 . S
C2827 C764 1.318 . S
C2841 N395 1.165 . S
C2847 C1029 1.318 . S
C2861 C556 1.314 . S
C2867 N438 1.150 . S
C2881 C807 1.314 . S
C2887 N954 1.162 . S
C2901 C599 1.314 . S
C2907 N906 1.159 . S
C2921 C1022 1.320 . S
C2927 N476 1.177 . S
C2941 C721 1.318 1_455 S
C2947 N390 1.165 . S
