# Generated by pormake.
# Topology uml, (4)-cn, num edge types: 1
# Building blocks:
#     Node 0, Type 0, BuildingBlock: NAWXER_clean_sbu_0, # of connection points: 4
#     Node 1, Type 0, BuildingBlock: NAWXER_clean_sbu_0, # of connection points: 4
#     Node 2, Type 0, BuildingBlock: NAWXER_clean_sbu_0, # of connection points: 4
#     Node 3, Type 0, BuildingBlock: NAWXER_clean_sbu_0, # of connection points: 4
#     Node 4, Type 0, BuildingBlock: NAWXER_clean_sbu_0, # of connection points: 4
#     Node 5, Type 0, BuildingBlock: NAWXER_clean_sbu_0, # of connection points: 4
#     Node 6, Type 0, BuildingBlock: NAWXER_clean_sbu_0, # of connection points: 4
#     Node 7, Type 0, BuildingBlock: NAWXER_clean_sbu_0, # of connection points: 4
#     Node 8, Type 0, BuildingBlock: NAWXER_clean_sbu_0, # of connection points: 4
#     Node 9, Type 0, BuildingBlock: NAWXER_clean_sbu_0, # of connection points: 4
#     Node 10, Type 0, BuildingBlock: NAWXER_clean_sbu_0, # of connection points: 4
#     Node 11, Type 0, BuildingBlock: NAWXER_clean_sbu_0, # of connection points: 4
#     Node 12, Type 0, BuildingBlock: NAWXER_clean_sbu_0, # of connection points: 4
#     Node 13, Type 0, BuildingBlock: NAWXER_clean_sbu_0, # of connection points: 4
#     Node 14, Type 0, BuildingBlock: NAWXER_clean_sbu_0, # of connection points: 4
#     Node 15, Type 0, BuildingBlock: NAWXER_clean_sbu_0, # of connection points: 4
#     Node 16, Type 0, BuildingBlock: NAWXER_clean_sbu_0, # of connection points: 4
#     Node 17, Type 0, BuildingBlock: NAWXER_clean_sbu_0, # of connection points: 4
#     Node 18, Type 0, BuildingBlock: NAWXER_clean_sbu_0, # of connection points: 4
#     Node 19, Type 0, BuildingBlock: NAWXER_clean_sbu_0, # of connection points: 4
#     Node 20, Type 0, BuildingBlock: NAWXER_clean_sbu_0, # of connection points: 4
#     Node 21, Type 0, BuildingBlock: NAWXER_clean_sbu_0, # of connection points: 4
#     Node 22, Type 0, BuildingBlock: NAWXER_clean_sbu_0, # of connection points: 4
#     Node 23, Type 0, BuildingBlock: NAWXER_clean_sbu_0, # of connection points: 4
#     Node 24, Type 0, BuildingBlock: NAWXER_clean_sbu_0, # of connection points: 4
#     Node 25, Type 0, BuildingBlock: NAWXER_clean_sbu_0, # of connection points: 4
#     Node 26, Type 0, BuildingBlock: NAWXER_clean_sbu_0, # of connection points: 4
#     Node 27, Type 0, BuildingBlock: NAWXER_clean_sbu_0, # of connection points: 4
#     Node 28, Type 0, BuildingBlock: NAWXER_clean_sbu_0, # of connection points: 4
#     Node 29, Type 0, BuildingBlock: NAWXER_clean_sbu_0, # of connection points: 4
#     Node 30, Type 0, BuildingBlock: NAWXER_clean_sbu_0, # of connection points: 4
#     Node 31, Type 0, BuildingBlock: NAWXER_clean_sbu_0, # of connection points: 4
#     Node 32, Type 0, BuildingBlock: NAWXER_clean_sbu_0, # of connection points: 4
#     Node 33, Type 0, BuildingBlock: NAWXER_clean_sbu_0, # of connection points: 4
#     Node 34, Type 0, BuildingBlock: NAWXER_clean_sbu_0, # of connection points: 4
#     Node 35, Type 0, BuildingBlock: NAWXER_clean_sbu_0, # of connection points: 4
#     Edge 36, Type (0, 0), BuildingBlock: TEMPAE_clean_linker_10, # of connection points: 2
#     Edge 37, Type (0, 0), BuildingBlock: TEMPAE_clean_linker_10, # of connection points: 2
#     Edge 38, Type (0, 0), BuildingBlock: TEMPAE_clean_linker_10, # of connection points: 2
#     Edge 39, Type (0, 0), BuildingBlock: TEMPAE_clean_linker_10, # of connection points: 2
#     Edge 40, Type (0, 0), BuildingBlock: TEMPAE_clean_linker_10, # of connection points: 2
#     Edge 41, Type (0, 0), BuildingBlock: TEMPAE_clean_linker_10, # of connection points: 2
#     Edge 42, Type (0, 0), BuildingBlock: TEMPAE_clean_linker_10, # of connection points: 2
#     Edge 43, Type (0, 0), BuildingBlock: TEMPAE_clean_linker_10, # of connection points: 2
#     Edge 44, Type (0, 0), BuildingBlock: TEMPAE_clean_linker_10, # of connection points: 2
#     Edge 45, Type (0, 0), BuildingBlock: TEMPAE_clean_linker_10, # of connection points: 2
#     Edge 46, Type (0, 0), BuildingBlock: TEMPAE_clean_linker_10, # of connection points: 2
#     Edge 47, Type (0, 0), BuildingBlock: TEMPAE_clean_linker_10, # of connection points: 2
#     Edge 48, Type (0, 0), BuildingBlock: TEMPAE_clean_linker_10, # of connection points: 2
#     Edge 49, Type (0, 0), BuildingBlock: TEMPAE_clean_linker_10, # of connection points: 2
#     Edge 50, Type (0, 0), BuildingBlock: TEMPAE_clean_linker_10, # of connection points: 2
#     Edge 51, Type (0, 0), BuildingBlock: TEMPAE_clean_linker_10, # of connection points: 2
#     Edge 52, Type (0, 0), BuildingBlock: TEMPAE_clean_linker_10, # of connection points: 2
#     Edge 53, Type (0, 0), BuildingBlock: TEMPAE_clean_linker_10, # of connection points: 2
#     Edge 54, Type (0, 0), BuildingBlock: TEMPAE_clean_linker_10, # of connection points: 2
#     Edge 55, Type (0, 0), BuildingBlock: TEMPAE_clean_linker_10, # of connection points: 2
#     Edge 56, Type (0, 0), BuildingBlock: TEMPAE_clean_linker_10, # of connection points: 2
#     Edge 57, Type (0, 0), BuildingBlock: TEMPAE_clean_linker_10, # of connection points: 2
#     Edge 58, Type (0, 0), BuildingBlock: TEMPAE_clean_linker_10, # of connection points: 2
#     Edge 59, Type (0, 0), BuildingBlock: TEMPAE_clean_linker_10, # of connection points: 2
#     Edge 60, Type (0, 0), BuildingBlock: TEMPAE_clean_linker_10, # of connection points: 2
#     Edge 61, Type (0, 0), BuildingBlock: TEMPAE_clean_linker_10, # of connection points: 2
#     Edge 62, Type (0, 0), BuildingBlock: TEMPAE_clean_linker_10, # of connection points: 2
#     Edge 63, Type (0, 0), BuildingBlock: TEMPAE_clean_linker_10, # of connection points: 2
#     Edge 64, Type (0, 0), BuildingBlock: TEMPAE_clean_linker_10, # of connection points: 2
#     Edge 65, Type (0, 0), BuildingBlock: TEMPAE_clean_linker_10, # of connection points: 2
#     Edge 66, Type (0, 0), BuildingBlock: TEMPAE_clean_linker_10, # of connection points: 2
#     Edge 67, Type (0, 0), BuildingBlock: TEMPAE_clean_linker_10, # of connection points: 2
#     Edge 68, Type (0, 0), BuildingBlock: TEMPAE_clean_linker_10, # of connection points: 2
#     Edge 69, Type (0, 0), BuildingBlock: TEMPAE_clean_linker_10, # of connection points: 2
#     Edge 70, Type (0, 0), BuildingBlock: TEMPAE_clean_linker_10, # of connection points: 2
#     Edge 71, Type (0, 0), BuildingBlock: TEMPAE_clean_linker_10, # of connection points: 2
#     Edge 72, Type (0, 0), BuildingBlock: TEMPAE_clean_linker_10, # of connection points: 2
#     Edge 73, Type (0, 0), BuildingBlock: TEMPAE_clean_linker_10, # of connection points: 2
#     Edge 74, Type (0, 0), BuildingBlock: TEMPAE_clean_linker_10, # of connection points: 2
#     Edge 75, Type (0, 0), BuildingBlock: TEMPAE_clean_linker_10, # of connection points: 2
#     Edge 76, Type (0, 0), BuildingBlock: TEMPAE_clean_linker_10, # of connection points: 2
#     Edge 77, Type (0, 0), BuildingBlock: TEMPAE_clean_linker_10, # of connection points: 2
#     Edge 78, Type (0, 0), BuildingBlock: TEMPAE_clean_linker_10, # of connection points: 2
#     Edge 79, Type (0, 0), BuildingBlock: TEMPAE_clean_linker_10, # of connection points: 2
#     Edge 80, Type (0, 0), BuildingBlock: TEMPAE_clean_linker_10, # of connection points: 2
#     Edge 81, Type (0, 0), BuildingBlock: TEMPAE_clean_linker_10, # of connection points: 2
#     Edge 82, Type (0, 0), BuildingBlock: TEMPAE_clean_linker_10, # of connection points: 2
#     Edge 83, Type (0, 0), BuildingBlock: TEMPAE_clean_linker_10, # of connection points: 2
#     Edge 84, Type (0, 0), BuildingBlock: TEMPAE_clean_linker_10, # of connection points: 2
#     Edge 85, Type (0, 0), BuildingBlock: TEMPAE_clean_linker_10, # of connection points: 2
#     Edge 86, Type (0, 0), BuildingBlock: TEMPAE_clean_linker_10, # of connection points: 2
#     Edge 87, Type (0, 0), BuildingBlock: TEMPAE_clean_linker_10, # of connection points: 2
#     Edge 88, Type (0, 0), BuildingBlock: TEMPAE_clean_linker_10, # of connection points: 2
#     Edge 89, Type (0, 0), BuildingBlock: TEMPAE_clean_linker_10, # of connection points: 2
#     Edge 90, Type (0, 0), BuildingBlock: TEMPAE_clean_linker_10, # of connection points: 2
#     Edge 91, Type (0, 0), BuildingBlock: TEMPAE_clean_linker_10, # of connection points: 2
#     Edge 92, Type (0, 0), BuildingBlock: TEMPAE_clean_linker_10, # of connection points: 2
#     Edge 93, Type (0, 0), BuildingBlock: TEMPAE_clean_linker_10, # of connection points: 2
#     Edge 94, Type (0, 0), BuildingBlock: TEMPAE_clean_linker_10, # of connection points: 2
#     Edge 95, Type (0, 0), BuildingBlock: TEMPAE_clean_linker_10, # of connection points: 2
#     Edge 96, Type (0, 0), BuildingBlock: TEMPAE_clean_linker_10, # of connection points: 2
#     Edge 97, Type (0, 0), BuildingBlock: TEMPAE_clean_linker_10, # of connection points: 2
#     Edge 98, Type (0, 0), BuildingBlock: TEMPAE_clean_linker_10, # of connection points: 2
#     Edge 99, Type (0, 0), BuildingBlock: TEMPAE_clean_linker_10, # of connection points: 2
#     Edge 100, Type (0, 0), BuildingBlock: TEMPAE_clean_linker_10, # of connection points: 2
#     Edge 101, Type (0, 0), BuildingBlock: TEMPAE_clean_linker_10, # of connection points: 2
#     Edge 102, Type (0, 0), BuildingBlock: TEMPAE_clean_linker_10, # of connection points: 2
#     Edge 103, Type (0, 0), BuildingBlock: TEMPAE_clean_linker_10, # of connection points: 2
#     Edge 104, Type (0, 0), BuildingBlock: TEMPAE_clean_linker_10, # of connection points: 2
#     Edge 105, Type (0, 0), BuildingBlock: TEMPAE_clean_linker_10, # of connection points: 2
#     Edge 106, Type (0, 0), BuildingBlock: TEMPAE_clean_linker_10, # of connection points: 2
#     Edge 107, Type (0, 0), BuildingBlock: TEMPAE_clean_linker_10, # of connection points: 2
# Relax obj value: 0.036
# Max RMSD: 0.160
# Mean RMSD: 0.157
data_MOF--net-uml--node1-NAWXER_clean_sbu_0--edge1-TEMPAE_clean_linker_10
_symmetry_space_group_name_H-M    P1
_symmetry_Int_Tables_number       1
_symmetry_cell_setting            triclinic
loop_
_symmetry_equiv_pos_as_xyz
'x, y, z'
_cell_length_a     99.243659
_cell_length_b     99.209825
_cell_length_c     29.641469
_cell_angle_alpha  90.003411
_cell_angle_beta   89.997892
_cell_angle_gamma 119.99562
loop_
_atom_site_label
_atom_site_type_symbol
_atom_site_fract_x
_atom_site_fract_y
_atom_site_fract_z
_atom_type_partial_charge
C0 C 0.35264 0.12923 0.1741 0.0
C1 C 0.3757 0.09675 0.1484 0.0
O2 O 0.34232 0.11472 0.17358 0.0
Zn3 Zn 0.34203 0.09285 0.16609 0.0
O4 O 0.36697 0.13341 0.17102 0.0
Zn5 Zn 0.36427 0.1129 0.16695 0.0
O6 O 0.353 0.10593 0.10166 0.0
O7 O 0.33004 0.08486 0.11169 0.0
O8 O 0.38269 0.11111 0.1584 0.0
O9 O 0.36082 0.0888 0.15053 0.0
O10 O 0.33313 0.0818 0.22152 0.0
O11 O 0.35556 0.1032 0.23269 0.0
C12 C 0.34011 0.09509 0.08547 0.0
C13 C 0.34349 0.09119 0.24852 0.0
C14 C 0.90629 0.24689 0.08094 0.0
C15 C 0.91046 0.25076 0.24488 0.0
O16 O 0.89544 0.24862 0.09881 0.0
Zn17 Zn 0.88875 0.25176 0.16668 0.0
O18 O 0.91648 0.24646 0.106 0.0
Zn19 Zn 0.90852 0.24925 0.16182 0.0
O20 O 0.88648 0.22775 0.16462 0.0
O21 O 0.86813 0.23405 0.17189 0.0
O22 O 0.91947 0.2498 0.21641 0.0
O23 O 0.89868 0.25158 0.23071 0.0
O24 O 0.89077 0.27219 0.16247 0.0
O25 O 0.91288 0.27248 0.15119 0.0
C26 C 0.87205 0.22371 0.16834 0.0
C27 C 0.90508 0.27959 0.15189 0.0
C28 C 0.75474 0.66088 0.08878 0.0
C29 C 0.74797 0.65828 0.25195 0.0
O30 O 0.75235 0.64791 0.10533 0.0
Zn31 Zn 0.74798 0.63686 0.1709 0.0
O32 O 0.75501 0.67123 0.11474 0.0
Zn33 Zn 0.75088 0.6594 0.16953 0.0
O34 O 0.77208 0.65839 0.17673 0.0
O35 O 0.76537 0.63351 0.17488 0.0
O36 O 0.74928 0.66874 0.22477 0.0
O37 O 0.74744 0.64596 0.23635 0.0
O38 O 0.72751 0.61879 0.16322 0.0
O39 O 0.72773 0.641 0.1551 0.0
C40 C 0.77585 0.64775 0.17747 0.0
C41 C 0.72044 0.62609 0.15345 0.0
C42 C 0.12523 0.34989 0.33343 0.0
C43 C 0.09268 0.37331 0.34963 0.0
O44 O 0.11076 0.33965 0.33713 0.0
Zn45 Zn 0.08888 0.33938 0.33976 0.0
O46 O 0.12934 0.3642 0.32972 0.0
Zn47 Zn 0.10883 0.36162 0.33486 0.0
O48 O 0.10206 0.35184 0.4026 0.0
O49 O 0.08086 0.32873 0.39572 0.0
O50 O 0.10699 0.38015 0.33911 0.0
O51 O 0.08478 0.35841 0.35026 0.0
O52 O 0.07791 0.32906 0.2851 0.0
O53 O 0.09883 0.35155 0.27098 0.0
C54 C 0.09115 0.33933 0.42063 0.0
C55 C 0.087 0.33903 0.25672 0.0
C56 C 0.65528 0.75123 0.41719 0.0
C57 C 0.65176 0.74576 0.25367 0.0
O58 O 0.64287 0.75046 0.4015 0.0
Zn59 Zn 0.63182 0.74758 0.33673 0.0
O60 O 0.66477 0.75029 0.39035 0.0
Zn61 Zn 0.65311 0.74796 0.33594 0.0
O62 O 0.65461 0.77057 0.33097 0.0
O63 O 0.63046 0.76609 0.33453 0.0
O64 O 0.66186 0.74599 0.28037 0.0
O65 O 0.64002 0.74628 0.26993 0.0
O66 O 0.61258 0.72846 0.3456 0.0
O67 O 0.63304 0.72527 0.34692 0.0
C68 C 0.64496 0.77563 0.33164 0.0
C69 C 0.61831 0.71964 0.35064 0.0
C70 C 0.22384 0.87158 0.32203 0.0
C71 C 0.27964 0.9012 0.34368 0.0
O72 O 0.2288 0.88628 0.32075 0.0
Zn73 Zn 0.25135 0.9075 0.32589 0.0
O74 O 0.23344 0.86672 0.3257 0.0
Zn75 Zn 0.25182 0.88662 0.32812 0.0
O76 O 0.24836 0.89489 0.39193 0.0
O77 O 0.24859 0.91694 0.37948 0.0
O78 O 0.27091 0.88663 0.33878 0.0
O79 O 0.27399 0.91024 0.33884 0.0
O80 O 0.25362 0.91796 0.26957 0.0
O81 O 0.25346 0.89582 0.26088 0.0
C82 C 0.2474 0.90652 0.4068 0.0
C83 C 0.25404 0.90799 0.2437 0.0
C84 C 0.64949 0.87376 0.83243 0.0
C85 C 0.62591 0.90596 0.85305 0.0
O86 O 0.63514 0.8696 0.83017 0.0
Zn87 Zn 0.63772 0.89005 0.83633 0.0
O88 O 0.65974 0.88824 0.83595 0.0
Zn89 Zn 0.65986 0.91008 0.83998 0.0
O90 O 0.67108 0.91816 0.89505 0.0
O91 O 0.64817 0.89683 0.90348 0.0
O92 O 0.6408 0.914 0.85279 0.0
O93 O 0.61914 0.89166 0.84243 0.0
O94 O 0.64715 0.90008 0.77187 0.0
O95 O 0.66962 0.92115 0.78493 0.0
C96 C 0.66082 0.90781 0.92062 0.0
C97 C 0.65948 0.91201 0.75704 0.0
C98 C 0.09348 0.75115 0.91203 0.0
C99 C 0.09219 0.7443 0.74901 0.0
O100 O 0.08299 0.74969 0.88459 0.0
Zn101 Zn 0.09261 0.7471 0.83113 0.0
O102 O 0.10527 0.75046 0.89732 0.0
Zn103 Zn 0.11375 0.74714 0.83372 0.0
O104 O 0.13344 0.76584 0.83108 0.0
O105 O 0.11351 0.76986 0.82546 0.0
O106 O 0.10448 0.74519 0.76634 0.0
O107 O 0.08209 0.74451 0.77476 0.0
O108 O 0.09036 0.72469 0.84433 0.0
O109 O 0.11415 0.72825 0.84482 0.0
C110 C 0.12826 0.77516 0.8268 0.0
C111 C 0.09961 0.71928 0.84948 0.0
C112 C 0.25143 0.34269 0.75955 0.0
C113 C 0.2462 0.34187 0.92329 0.0
O114 O 0.2504 0.33257 0.78762 0.0
Zn115 Zn 0.24929 0.34252 0.84257 0.0
O116 O 0.25196 0.3551 0.77417 0.0
Zn117 Zn 0.25157 0.36477 0.83843 0.0
O118 O 0.27191 0.38327 0.84426 0.0
O119 O 0.27231 0.36147 0.85483 0.0
O120 O 0.24794 0.3545 0.90574 0.0
O121 O 0.24618 0.33148 0.89807 0.0
O122 O 0.22769 0.34283 0.8388 0.0
O123 O 0.23371 0.36743 0.83244 0.0
C124 C 0.27932 0.37637 0.85493 0.0
C125 C 0.2235 0.3531 0.83521 0.0
C126 C 0.90499 0.65813 0.59265 0.0
C127 C 0.90909 0.65491 0.75573 0.0
O128 O 0.91573 0.66787 0.61837 0.0
Zn129 Zn 0.90723 0.65641 0.673 0.0
O130 O 0.89359 0.6457 0.60941 0.0
Zn131 Zn 0.88634 0.6348 0.67568 0.0
O132 O 0.8665 0.63368 0.68252 0.0
O133 O 0.88625 0.65778 0.67788 0.0
O134 O 0.89674 0.64317 0.74025 0.0
O135 O 0.91856 0.6651 0.7285 0.0
O136 O 0.90963 0.63664 0.65762 0.0
O137 O 0.8867 0.61556 0.66707 0.0
C138 C 0.87157 0.64824 0.68101 0.0
C139 C 0.90095 0.62182 0.65618 0.0
C140 C 0.34152 0.25332 0.7535 0.0
C141 C 0.33932 0.24698 0.59016 0.0
O142 O 0.33125 0.25229 0.72604 0.0
Zn143 Zn 0.34057 0.25052 0.67067 0.0
O144 O 0.35363 0.2534 0.73824 0.0
Zn145 Zn 0.3626 0.25219 0.67377 0.0
O146 O 0.38137 0.27223 0.66648 0.0
O147 O 0.35984 0.27323 0.65702 0.0
O148 O 0.35192 0.24847 0.60716 0.0
O149 O 0.32924 0.24742 0.61573 0.0
O150 O 0.34021 0.2286 0.67467 0.0
O151 O 0.36463 0.23396 0.68006 0.0
C152 C 0.37471 0.27989 0.65604 0.0
C153 C 0.3502 0.22403 0.67789 0.0
C154 C 0.77582 0.12701 0.67036 0.0
C155 C 0.71998 0.09426 0.65349 0.0
O156 O 0.76554 0.131 0.67394 0.0
Zn157 Zn 0.74777 0.11043 0.66867 0.0
O158 O 0.77172 0.11257 0.66664 0.0
Zn159 Zn 0.75016 0.09058 0.66376 0.0
O160 O 0.75295 0.0826 0.60795 0.0
O161 O 0.75091 0.10372 0.60078 0.0
O162 O 0.727 0.08638 0.65283 0.0
O163 O 0.72741 0.10855 0.66429 0.0
O164 O 0.74785 0.10043 0.73271 0.0
O165 O 0.7495 0.07957 0.71837 0.0
C166 C 0.7526 0.09284 0.58289 0.0
C167 C 0.74858 0.08861 0.74686 0.0
C168 C 0.00811 0.42392 0.58225 0.0
C169 C 0.00519 0.42816 0.41903 0.0
O170 O 0.02036 0.43577 0.5666 0.0
Zn171 Zn 0.02939 0.44535 0.50094 0.0
O172 O 0.99773 0.41466 0.55505 0.0
Zn173 Zn 0.00695 0.42567 0.49969 0.0
O174 O 0.02539 0.42103 0.4844 0.0
O175 O 0.04751 0.44306 0.49284 0.0
O176 O 0.99498 0.418 0.44509 0.0
O177 O 0.01818 0.43877 0.43541 0.0
O178 O 0.03274 0.46608 0.50524 0.0
O179 O 0.00788 0.44787 0.50743 0.0
C180 C 0.04028 0.42872 0.48266 0.0
C181 C 0.0185 0.46228 0.50822 0.0
C182 C 0.53928 0.55701 0.50531 0.0
C183 C 0.56639 0.61315 0.48852 0.0
O184 O 0.55406 0.56272 0.50237 0.0
Zn185 Zn 0.57448 0.58578 0.49957 0.0
O186 O 0.53366 0.56602 0.50741 0.0
Zn187 Zn 0.553 0.58517 0.50194 0.0
O188 O 0.56088 0.58291 0.43562 0.0
O189 O 0.58373 0.58444 0.44401 0.0
O190 O 0.55196 0.6039 0.49439 0.0
O191 O 0.57594 0.60801 0.49066 0.0
O192 O 0.5856 0.5877 0.5547 0.0
O193 O 0.56337 0.58698 0.56695 0.0
C194 C 0.57277 0.58293 0.41844 0.0
C195 C 0.57583 0.58774 0.58221 0.0
C196 C 0.41761 0.99195 0.42311 0.0
C197 C 0.41074 0.98665 0.58606 0.0
O198 O 0.41679 0.97943 0.43804 0.0
Zn199 Zn 0.41345 0.96773 0.50174 0.0
O200 O 0.41636 0.00114 0.45039 0.0
Zn201 Zn 0.41367 0.98898 0.50401 0.0
O202 O 0.43631 0.9906 0.50966 0.0
O203 O 0.43204 0.96655 0.5045 0.0
O204 O 0.41119 0.99706 0.56022 0.0
O205 O 0.41148 0.97514 0.56888 0.0
O206 O 0.39448 0.94855 0.49075 0.0
O207 O 0.39117 0.96894 0.49097 0.0
C208 C 0.44147 0.98104 0.50849 0.0
C209 C 0.38564 0.95426 0.48597 0.0
C210 C 0.79532 0.6869 0.66307 0.0
C211 C 0.76201 0.70906 0.68767 0.0
O212 O 0.78087 0.6764 0.66345 0.0
Zn213 Zn 0.7588 0.67567 0.67047 0.0
O214 O 0.79928 0.70119 0.66592 0.0
Zn215 Zn 0.77862 0.69812 0.66958 0.0
O216 O 0.77177 0.68685 0.73484 0.0
O217 O 0.75094 0.66369 0.72496 0.0
O218 O 0.77637 0.7163 0.67774 0.0
O219 O 0.7543 0.69417 0.68579 0.0
O220 O 0.74789 0.66664 0.61493 0.0
O221 O 0.76911 0.68925 0.60391 0.0
C222 C 0.76109 0.67389 0.7511 0.0
C223 C 0.75723 0.67708 0.58801 0.0
C224 C 0.3241 0.0814 0.58448 0.0
C225 C 0.32665 0.08794 0.74781 0.0
O226 O 0.31189 0.08111 0.59999 0.0
Zn227 Zn 0.3028 0.08166 0.66549 0.0
O228 O 0.3344 0.08239 0.61178 0.0
Zn229 Zn 0.32513 0.08412 0.66706 0.0
O230 O 0.30644 0.06109 0.68149 0.0
O231 O 0.28449 0.06133 0.67294 0.0
O232 O 0.3369 0.088 0.72188 0.0
O233 O 0.31378 0.0858 0.73121 0.0
O234 O 0.29983 0.09929 0.66185 0.0
O235 O 0.32459 0.1056 0.66035 0.0
C236 C 0.29154 0.05403 0.68296 0.0
C237 C 0.31413 0.10961 0.65967 0.0
C238 C 0.9463 0.23406 0.68049 0.0
C239 C 0.89045 0.20476 0.65894 0.0
O240 O 0.94073 0.24318 0.67561 0.0
Zn241 Zn 0.91815 0.24059 0.66278 0.0
O242 O 0.93747 0.2195 0.67576 0.0
Zn243 Zn 0.91845 0.21963 0.66512 0.0
O244 O 0.92014 0.22884 0.5978 0.0
O245 O 0.92047 0.25106 0.60646 0.0
O246 O 0.89997 0.19979 0.66276 0.0
O247 O 0.89552 0.21947 0.6576 0.0
O248 O 0.91548 0.25012 0.71634 0.0
O249 O 0.9151 0.228 0.72891 0.0
C250 C 0.92081 0.24105 0.5806 0.0
C251 C 0.91424 0.23969 0.74373 0.0
C252 C 0.32312 0.24425 0.08943 0.0
C253 C 0.32575 0.24015 0.25264 0.0
O254 O 0.3334 0.25358 0.11672 0.0
Zn255 Zn 0.32428 0.24244 0.17219 0.0
O256 O 0.3111 0.23215 0.10488 0.0
Zn257 Zn 0.30231 0.22197 0.16945 0.0
O258 O 0.28347 0.22312 0.17721 0.0
O259 O 0.30496 0.24572 0.18643 0.0
O260 O 0.31315 0.22899 0.23582 0.0
O261 O 0.33572 0.25071 0.22695 0.0
O262 O 0.32481 0.22099 0.16761 0.0
O263 O 0.30044 0.20178 0.16287 0.0
C264 C 0.29009 0.23744 0.18765 0.0
C265 C 0.31491 0.2064 0.16445 0.0
C266 C 0.75987 0.08499 0.24563 0.0
C267 C 0.7584 0.0782 0.08255 0.0
O268 O 0.74939 0.08361 0.21829 0.0
Zn269 Zn 0.75892 0.08097 0.16472 0.0
O270 O 0.77162 0.08425 0.23078 0.0
Zn271 Zn 0.78 0.08091 0.16697 0.0
O272 O 0.79973 0.09951 0.16429 0.0
O273 O 0.7799 0.10371 0.15913 0.0
O274 O 0.77068 0.07902 0.09969 0.0
O275 O 0.74835 0.07845 0.10846 0.0
O276 O 0.75659 0.0585 0.17789 0.0
O277 O 0.78035 0.062 0.17787 0.0
C278 C 0.79464 0.10892 0.16033 0.0
C279 C 0.76583 0.05307 0.18282 0.0
C280 C 0.88996 0.68234 0.16609 0.0
C281 C 0.94568 0.70629 0.18926 0.0
O282 O 0.90002 0.69674 0.16417 0.0
Zn283 Zn 0.91806 0.69445 0.17106 0.0
O284 O 0.89436 0.67222 0.16963 0.0
Zn285 Zn 0.9161 0.67228 0.17445 0.0
O286 O 0.91273 0.66096 0.22959 0.0
O287 O 0.91409 0.68379 0.23769 0.0
O288 O 0.93888 0.6914 0.18832 0.0
O289 O 0.93818 0.71309 0.17854 0.0
O290 O 0.91924 0.68536 0.1068 0.0
O291 O 0.91785 0.66285 0.11921 0.0
C292 C 0.9124 0.67115 0.25494 0.0
C293 C 0.91903 0.67316 0.09166 0.0
C294 C 0.5714 0.99331 0.92733 0.0
C295 C 0.57481 0.98888 0.09017 0.0
O296 O 0.58149 0.00325 0.95412 0.0
Zn297 Zn 0.5734 0.99085 0.00779 0.0
O298 O 0.56061 0.98024 0.94276 0.0
Zn299 Zn 0.55356 0.9685 0.00746 0.0
O300 O 0.53293 0.96543 0.01128 0.0
O301 O 0.55133 0.99019 0.01491 0.0
O302 O 0.56293 0.97684 0.07368 0.0
O303 O 0.5842 0.99949 0.06375 0.0
O304 O 0.57783 0.97236 0.99136 0.0
O305 O 0.55564 0.95029 0.9981 0.0
C306 C 0.53687 0.9797 0.01483 0.0
C307 C 0.57003 0.95748 0.98858 0.0
C308 C 0.04525 0.61342 0.99146 0.0
C309 C 0.01601 0.55735 0.01038 0.0
O310 O 0.05037 0.60411 0.99713 0.0
Zn311 Zn 0.03058 0.5855 0.00604 0.0
O312 O 0.03061 0.6084 0.99452 0.0
Zn313 Zn 0.00982 0.58629 0.00495 0.0
O314 O 0.00111 0.58857 0.06057 0.0
O315 O 0.02259 0.58769 0.07162 0.0
O316 O 0.00701 0.56316 0.008 0.0
O317 O 0.03066 0.56629 0.01158 0.0
O318 O 0.01992 0.58299 0.94036 0.0
O319 O 0.99878 0.58475 0.95017 0.0
C320 C 0.01108 0.58866 0.08753 0.0
C321 C 0.00795 0.58302 0.92399 0.0
C322 C 0.44347 0.46102 0.00469 0.0
C323 C 0.38761 0.42938 0.98416 0.0
O324 O 0.43344 0.46538 0.00732 0.0
Zn325 Zn 0.41538 0.44505 1.00097 0.0
O326 O 0.43904 0.44649 1.00091 0.0
Zn327 Zn 0.41719 0.42481 0.99667 0.0
O328 O 0.4202 0.41684 0.94103 0.0
O329 O 0.41899 0.43841 0.93367 0.0
O330 O 0.39435 0.42123 0.98417 0.0
O331 O 0.39525 0.44366 0.99504 0.0
O332 O 0.41475 0.43486 0.06512 0.0
O333 O 0.41577 0.4136 0.05166 0.0
C334 C 0.42051 0.42742 0.91598 0.0
C335 C 0.41499 0.42283 0.07974 0.0
C336 C 0.68303 0.79336 0.84195 0.0
C337 C 0.70567 0.76032 0.82184 0.0
O338 O 0.67252 0.7789 0.84141 0.0
Zn339 Zn 0.67198 0.75682 0.8355 0.0
O340 O 0.69731 0.79727 0.83997 0.0
Zn341 Zn 0.69424 0.77665 0.83721 0.0
O342 O 0.68354 0.76957 0.77106 0.0
O343 O 0.66039 0.74873 0.78059 0.0
O344 O 0.7126 0.77472 0.83128 0.0
O345 O 0.69077 0.75242 0.82277 0.0
O346 O 0.66239 0.74597 0.89059 0.0
O347 O 0.68483 0.76723 0.90284 0.0
C348 C 0.67071 0.75875 0.75448 0.0
C349 C 0.67252 0.75535 0.91814 0.0
C350 C 0.24355 0.91736 0.90794 0.0
C351 C 0.23929 0.91327 0.74406 0.0
O352 O 0.23177 0.91815 0.89372 0.0
Zn353 Zn 0.22177 0.91821 0.82971 0.0
O354 O 0.25255 0.91633 0.87952 0.0
Zn355 Zn 0.24156 0.91569 0.82493 0.0
O356 O 0.2459 0.93889 0.81413 0.0
O357 O 0.22381 0.93866 0.82523 0.0
O358 O 0.24949 0.91285 0.76911 0.0
O359 O 0.22845 0.91501 0.76193 0.0
O360 O 0.20116 0.90046 0.83513 0.0
O361 O 0.21954 0.8942 0.82804 0.0
C362 C 0.23813 0.94602 0.81468 0.0
C363 C 0.20512 0.89014 0.83179 0.0
C364 C 0.08429 0.32504 0.75796 0.0
C365 C 0.07756 0.31967 0.92091 0.0
O366 O 0.0836 0.31257 0.77281 0.0
Zn367 Zn 0.0804 0.30088 0.83647 0.0
O368 O 0.08296 0.33417 0.78532 0.0
Zn369 Zn 0.08043 0.32204 0.83889 0.0
O370 O 0.10316 0.32386 0.84435 0.0
O371 O 0.0991 0.29988 0.83905 0.0
O372 O 0.07789 0.33004 0.89515 0.0
O373 O 0.07841 0.30824 0.90368 0.0
O374 O 0.06148 0.28161 0.82556 0.0
O375 O 0.058 0.30189 0.82605 0.0
C376 C 0.10844 0.31439 0.84307 0.0
C377 C 0.05255 0.28723 0.82101 0.0
C378 C 0.42475 0.00619 0.08574 0.0
C379 C 0.42061 0.00605 0.92185 0.0
O380 O 0.43586 0.01855 0.06772 0.0
Zn381 Zn 0.44281 0.0283 0.99999 0.0
O382 O 0.4143 0.99574 0.06083 0.0
Zn383 Zn 0.42249 0.00633 0.00488 0.0
O384 O 0.44405 0.00594 0.00216 0.0
O385 O 0.46307 0.0303 0.9948 0.0
O386 O 0.41136 0.99621 0.95023 0.0
O387 O 0.43264 0.0184 0.9361 0.0
O388 O 0.44155 0.04717 0.0044 0.0
O389 O 0.41904 0.02577 0.01555 0.0
C390 C 0.4586 0.0159 0.99845 0.0
C391 C 0.42726 0.04065 0.01499 0.0
C392 C 0.97752 0.44254 0.99256 0.0
C393 C 0.95645 0.38726 0.0178 0.0
O394 O 0.98827 0.43893 0.99322 0.0
Zn395 Zn 0.98954 0.41785 1.00068 0.0
O396 O 0.96334 0.43195 0.99546 0.0
Zn397 Zn 0.96696 0.41473 0.99954 0.0
O398 O 0.97819 0.41938 0.06511 0.0
O399 O 0.00155 0.42224 0.05518 0.0
O400 O 0.94902 0.39418 0.00772 0.0
O401 O 0.97134 0.39466 0.01597 0.0
O402 O 0.99883 0.41618 0.94539 0.0
O403 O 0.976 0.41421 0.93381 0.0
C404 C 0.99125 0.42193 0.08138 0.0
C405 C 0.98834 0.41479 0.91819 0.0
C406 C 0.57925 0.57486 0.081 0.0
C407 C 0.58603 0.57835 0.9179 0.0
O408 O 0.58144 0.56407 0.06508 0.0
Zn409 Zn 0.5856 0.55697 0.99967 0.0
O410 O 0.5791 0.58486 0.05444 0.0
Zn411 Zn 0.58309 0.57679 1.00029 0.0
O412 O 0.56165 0.55473 0.99352 0.0
O413 O 0.56805 0.53635 0.99618 0.0
O414 O 0.58491 0.58767 0.94485 0.0
O415 O 0.58632 0.56647 0.9338 0.0
O416 O 0.60587 0.55896 0.00746 0.0
O417 O 0.60613 0.5812 0.01524 0.0
C418 C 0.5577 0.54027 0.99326 0.0
C419 C 0.61317 0.57334 0.01709 0.0
C420 C 0.99277 0.57488 0.58668 0.0
C421 C 0.9913 0.57874 0.42311 0.0
O422 O 0.00282 0.58538 0.56105 0.0
Zn423 Zn 0.99177 0.5769 0.50593 0.0
O424 O 0.98034 0.56357 0.56956 0.0
Zn425 Zn 0.97003 0.55636 0.50251 0.0
O426 O 0.96832 0.53628 0.49655 0.0
O427 O 0.99261 0.55556 0.50227 0.0
O428 O 0.97919 0.56659 0.43798 0.0
O429 O 0.00133 0.58807 0.45095 0.0
O430 O 0.97209 0.57992 0.51789 0.0
O431 O 0.95097 0.55705 0.50876 0.0
C432 C 0.98278 0.54096 0.49886 0.0
C433 C 0.95723 0.5714 0.51859 0.0
C434 C 0.42886 0.42138 0.57846 0.0
C435 C 0.42509 0.41333 0.41564 0.0
O436 O 0.41882 0.42132 0.55166 0.0
Zn437 Zn 0.42676 0.41686 0.49799 0.0
O438 O 0.43958 0.419 0.56298 0.0
Zn439 Zn 0.44649 0.41421 0.49805 0.0
O440 O 0.46717 0.43165 0.49374 0.0
O441 O 0.44889 0.43817 0.49028 0.0
O442 O 0.43697 0.41311 0.43188 0.0
O443 O 0.41583 0.41467 0.44229 0.0
O444 O 0.42223 0.39389 0.51468 0.0
O445 O 0.44437 0.39393 0.50744 0.0
C446 C 0.46333 0.44204 0.49007 0.0
C447 C 0.43 0.38678 0.51732 0.0
C448 C 0.61202 0.04143 0.52186 0.0
C449 C 0.5563 0.01869 0.50139 0.0
O450 O 0.60476 0.04847 0.51113 0.0
Zn451 Zn 0.58433 0.03012 0.50497 0.0
O452 O 0.60487 0.02652 0.52161 0.0
Zn453 Zn 0.5818 0.00775 0.50914 0.0
O454 O 0.58288 0.99777 0.45421 0.0
O455 O 0.58473 0.02043 0.44081 0.0
O456 O 0.56035 0.00832 0.50505 0.0
O457 O 0.56661 0.03299 0.49873 0.0
O458 O 0.58052 0.01982 0.57219 0.0
O459 O 0.57851 0.99667 0.56471 0.0
C460 C 0.58408 0.00797 0.42617 0.0
C461 C 0.57862 0.00714 0.58982 0.0
C462 C 0.24175 0.32299 0.42367 0.0
C463 C 0.23858 0.32728 0.26068 0.0
O464 O 0.25129 0.33342 0.39708 0.0
Zn465 Zn 0.24043 0.32481 0.34119 0.0
O466 O 0.22974 0.31106 0.40732 0.0
Zn467 Zn 0.22033 0.30271 0.34105 0.0
O468 O 0.22188 0.2842 0.33221 0.0
O469 O 0.24437 0.30593 0.32518 0.0
O470 O 0.2276 0.31432 0.27614 0.0
O471 O 0.24876 0.33712 0.28749 0.0
O472 O 0.21858 0.32468 0.34801 0.0
O473 O 0.19988 0.30004 0.34464 0.0
C474 C 0.23627 0.29106 0.32269 0.0
C475 C 0.20405 0.31438 0.34793 0.0
C476 C 0.67936 0.92162 0.42139 0.0
C477 C 0.67616 0.91569 0.2579 0.0
O478 O 0.66919 0.92111 0.39446 0.0
Zn479 Zn 0.67808 0.91913 0.33883 0.0
O480 O 0.69111 0.92109 0.40546 0.0
Zn481 Zn 0.69926 0.91917 0.33979 0.0
O482 O 0.71867 0.93817 0.33059 0.0
O483 O 0.69836 0.94159 0.32798 0.0
O484 O 0.68839 0.91617 0.27415 0.0
O485 O 0.66679 0.91707 0.28417 0.0
O486 O 0.67618 0.89637 0.34215 0.0
O487 O 0.70018 0.90039 0.34551 0.0
C488 C 0.71308 0.94708 0.3248 0.0
C489 C 0.6856 0.89106 0.3445 0.0
C490 C 0.05362 0.76006 0.32074 0.0
C491 C 0.10944 0.79322 0.33632 0.0
O492 O 0.06098 0.77438 0.33134 0.0
Zn493 Zn 0.08142 0.77644 0.33526 0.0
O494 O 0.06075 0.7523 0.3199 0.0
Zn495 Zn 0.08401 0.75671 0.3302 0.0
O496 O 0.08359 0.74579 0.38474 0.0
O497 O 0.08172 0.76652 0.39922 0.0
O498 O 0.10546 0.77881 0.33261 0.0
O499 O 0.09908 0.79709 0.34022 0.0
O500 O 0.08446 0.76974 0.26727 0.0
O501 O 0.08674 0.74875 0.27427 0.0
C502 C 0.08261 0.75478 0.41329 0.0
C503 C 0.08621 0.75891 0.24928 0.0
C504 C 0.31783 0.08504 0.50521 0.0
C505 C 0.32651 0.0814 0.53509 0.0
C506 C 0.32064 0.08609 0.45856 0.0
C507 C 0.33224 0.08317 0.4412 0.0
C508 C 0.34075 0.07907 0.47106 0.0
C509 C 0.33788 0.07837 0.51768 0.0
C510 C 0.31146 0.09071 0.42795 0.0
C511 C 0.35302 0.07561 0.45379 0.0
C512 C 0.33004 0.07437 0.31557 0.0
C513 C 0.34128 0.08879 0.29796 0.0
C514 C 0.32728 0.07223 0.36224 0.0
C515 C 0.33576 0.0849 0.39195 0.0
C516 C 0.34725 0.09943 0.3744 0.0
C517 C 0.34996 0.10116 0.3277 0.0
C518 C 0.31512 0.05649 0.37971 0.0
C519 C 0.3564 0.11329 0.40485 0.0
H520 H 0.30909 0.08749 0.5184 0.0
H521 H 0.34458 0.07547 0.54054 0.0
H522 H 0.31948 0.1017 0.41022 0.0
H523 H 0.30536 0.08167 0.40177 0.0
H524 H 0.30272 0.09239 0.44668 0.0
H525 H 0.35801 0.07177 0.48109 0.0
H526 H 0.34799 0.06639 0.4276 0.0
H527 H 0.36259 0.08615 0.4377 0.0
H528 H 0.32335 0.06473 0.29283 0.0
H529 H 0.35861 0.11238 0.31436 0.0
H530 H 0.30548 0.05737 0.39562 0.0
H531 H 0.32021 0.05243 0.40607 0.0
H532 H 0.31022 0.0476 0.35253 0.0
H533 H 0.34835 0.11627 0.4224 0.0
H534 H 0.36513 0.1237 0.38602 0.0
H535 H 0.36251 0.11044 0.43118 0.0
C536 C 0.91669 0.23034 0.50207 0.0
C537 C 0.92111 0.24307 0.53095 0.0
C538 C 0.91567 0.23182 0.45522 0.0
C539 C 0.9194 0.24645 0.43671 0.0
C540 C 0.9244 0.25947 0.46555 0.0
C541 C 0.92507 0.2576 0.51232 0.0
C542 C 0.9101 0.21761 0.42569 0.0
C543 C 0.92872 0.27531 0.4471 0.0
C544 C 0.92724 0.25236 0.31038 0.0
C545 C 0.91304 0.25023 0.29401 0.0
C546 C 0.92958 0.25139 0.35679 0.0
C547 C 0.91733 0.24795 0.38748 0.0
C548 C 0.90299 0.24582 0.37113 0.0
C549 C 0.90106 0.24711 0.3247 0.0
C550 C 0.94512 0.25398 0.37299 0.0
C551 C 0.88957 0.24196 0.40264 0.0
H552 H 0.91354 0.21906 0.5162 0.0
H553 H 0.9286 0.26752 0.53438 0.0
H554 H 0.89901 0.21493 0.40911 0.0
H555 H 0.91868 0.21987 0.39857 0.0
H556 H 0.90819 0.20721 0.44507 0.0
H557 H 0.93341 0.28446 0.47359 0.0
H558 H 0.93755 0.27866 0.42002 0.0
H559 H 0.91833 0.27494 0.43187 0.0
H560 H 0.93658 0.25483 0.28691 0.0
H561 H 0.89001 0.24534 0.31235 0.0
H562 H 0.9436 0.24334 0.3899 0.0
H563 H 0.95008 0.2635 0.39829 0.0
H564 H 0.9536 0.25701 0.34499 0.0
H565 H 0.88634 0.23101 0.42107 0.0
H566 H 0.87914 0.24054 0.38453 0.0
H567 H 0.89307 0.25129 0.42821 0.0
C568 C 0.76746 0.6833 0.50913 0.0
C569 C 0.75493 0.67488 0.53859 0.0
C570 C 0.76578 0.68064 0.46241 0.0
C571 C 0.75115 0.6695 0.44458 0.0
C572 C 0.73833 0.6613 0.47401 0.0
C573 C 0.74042 0.66397 0.52072 0.0
C574 C 0.7798 0.68945 0.43227 0.0
C575 C 0.72248 0.64955 0.45619 0.0
C576 C 0.74525 0.67224 0.31878 0.0
C577 C 0.74785 0.66059 0.30134 0.0
C578 C 0.74587 0.67501 0.36545 0.0
C579 C 0.74944 0.66608 0.3953 0.0
C580 C 0.75191 0.6542 0.37791 0.0
C581 C 0.75096 0.65151 0.33121 0.0
C582 C 0.74291 0.6876 0.38276 0.0
C583 C 0.75596 0.64457 0.40853 0.0
H584 H 0.77873 0.69168 0.52272 0.0
H585 H 0.73066 0.65749 0.54328 0.0
H586 H 0.78241 0.68115 0.41465 0.0
H587 H 0.77733 0.69588 0.40598 0.0
H588 H 0.7903 0.69788 0.45136 0.0
H589 H 0.71352 0.64483 0.48319 0.0
H590 H 0.71876 0.65496 0.42986 0.0
H591 H 0.72301 0.63973 0.44015 0.0
H592 H 0.74277 0.67926 0.29593 0.0
H593 H 0.75307 0.64254 0.318 0.0
H594 H 0.75357 0.69693 0.39905 0.0
H595 H 0.73363 0.6828 0.40879 0.0
H596 H 0.73939 0.69288 0.35544 0.0
H597 H 0.767 0.65226 0.42652 0.0
H598 H 0.75729 0.63562 0.38976 0.0
H599 H 0.7468 0.63867 0.4345 0.0
C600 C 0.08141 0.3129 0.99945 0.0
C601 C 0.07704 0.32125 0.97053 0.0
C602 C 0.08223 0.31527 0.04634 0.0
C603 C 0.07835 0.32606 0.06482 0.0
C604 C 0.07339 0.3341 0.03593 0.0
C605 C 0.07291 0.33169 0.98913 0.0
C606 C 0.08776 0.30662 0.07594 0.0
C607 C 0.06893 0.34552 0.05437 0.0
C608 C 0.07029 0.32391 0.19101 0.0
C609 C 0.08446 0.33599 0.20758 0.0
C610 C 0.06803 0.32068 0.14455 0.0
C611 C 0.08031 0.32957 0.11406 0.0
C612 C 0.09461 0.3418 0.1306 0.0
C613 C 0.09647 0.34493 0.17706 0.0
C614 C 0.05254 0.30771 0.12811 0.0
C615 C 0.10806 0.35144 0.09928 0.0
H616 H 0.08468 0.30487 0.98534 0.0
H617 H 0.06942 0.33811 0.96703 0.0
H618 H 0.09882 0.31503 0.09271 0.0
H619 H 0.07914 0.30025 0.1029 0.0
H620 H 0.08974 0.29817 0.05656 0.0
H621 H 0.06423 0.34995 0.02783 0.0
H622 H 0.06006 0.33997 0.08133 0.0
H623 H 0.07925 0.35557 0.06975 0.0
H624 H 0.06094 0.31699 0.21436 0.0
H625 H 0.10749 0.35422 0.18956 0.0
H626 H 0.05412 0.29863 0.11121 0.0
H627 H 0.04759 0.31226 0.10274 0.0
H628 H 0.04401 0.30221 0.15598 0.0
H629 H 0.11138 0.3438 0.08086 0.0
H630 H 0.11844 0.36048 0.11754 0.0
H631 H 0.10456 0.35726 0.0737 0.0
C632 C 0.64568 0.74989 0.17451 0.0
C633 C 0.65398 0.74569 0.20418 0.0
C634 C 0.64852 0.75097 0.12782 0.0
C635 C 0.65976 0.74755 0.11029 0.0
C636 C 0.66785 0.74287 0.13994 0.0
C637 C 0.66494 0.74211 0.18652 0.0
C638 C 0.63978 0.75617 0.09738 0.0
C639 C 0.67974 0.7389 0.12253 0.0
C640 C 0.65797 0.73883 0.98465 0.0
C641 C 0.66976 0.75307 0.96746 0.0
C642 C 0.65477 0.73678 0.03113 0.0
C643 C 0.66339 0.74932 0.06109 0.0
C644 C 0.67537 0.76368 0.04398 0.0
C645 C 0.67848 0.76534 0.99745 0.0
C646 C 0.64208 0.72121 0.04813 0.0
C647 C 0.68471 0.7774 0.07472 0.0
H648 H 0.63726 0.75275 0.18788 0.0
H649 H 0.67135 0.73877 0.20919 0.0
H650 H 0.64811 0.76716 0.08017 0.0
H651 H 0.63355 0.74733 0.07078 0.0
H652 H 0.63121 0.7581 0.11616 0.0
H653 H 0.68442 0.73467 0.14969 0.0
H654 H 0.67449 0.7298 0.09607 0.0
H655 H 0.68957 0.74931 0.10676 0.0
H656 H 0.65122 0.72927 0.96174 0.0
H657 H 0.68754 0.77641 0.98445 0.0
H658 H 0.63275 0.72258 0.06426 0.0
H659 H 0.6468 0.71668 0.07424 0.0
H660 H 0.63685 0.71246 0.0207 0.0
H661 H 0.67685 0.78061 0.09229 0.0
H662 H 0.69366 0.78774 0.05614 0.0
H663 H 0.6906 0.77424 0.10104 0.0
C664 C 0.25821 0.92451 0.17541 0.0
C665 C 0.25433 0.91001 0.19406 0.0
C666 C 0.25753 0.92636 0.12863 0.0
C667 C 0.2526 0.91334 0.09981 0.0
C668 C 0.24894 0.89874 0.11835 0.0
C669 C 0.24998 0.89728 0.1652 0.0
C670 C 0.26177 0.94218 0.11014 0.0
C671 C 0.24344 0.88453 0.08885 0.0
C672 C 0.23419 0.9138 0.98776 0.0
C673 C 0.24617 0.91693 0.95707 0.0
C674 C 0.23614 0.91259 0.03421 0.0
C675 C 0.25052 0.91482 0.05058 0.0
C676 C 0.26277 0.91828 0.01991 0.0
C677 C 0.26041 0.91917 0.97347 0.0
C678 C 0.22271 0.90868 0.06571 0.0
C679 C 0.27835 0.92099 0.03613 0.0
H680 H 0.26168 0.93443 0.19745 0.0
H681 H 0.24688 0.88602 0.17935 0.0
H682 H 0.2706 0.94557 0.08305 0.0
H683 H 0.25135 0.94175 0.0949 0.0
H684 H 0.26642 0.95133 0.13661 0.0
H685 H 0.24158 0.87416 0.10826 0.0
H686 H 0.23234 0.8818 0.07222 0.0
H687 H 0.25204 0.88683 0.06176 0.0
H688 H 0.22311 0.91195 0.97539 0.0
H689 H 0.26975 0.92165 0.95 0.0
H690 H 0.22617 0.91802 0.09124 0.0
H691 H 0.21953 0.89776 0.08418 0.0
H692 H 0.21226 0.90722 0.04759 0.0
H693 H 0.28326 0.9305 0.06143 0.0
H694 H 0.28684 0.92406 0.00815 0.0
H695 H 0.27691 0.91037 0.05306 0.0
C696 C 0.67384 0.92889 0.69082 0.0
C697 C 0.66215 0.91457 0.70777 0.0
C698 C 0.67687 0.93114 0.64427 0.0
C699 C 0.6682 0.91869 0.61405 0.0
C700 C 0.65631 0.90426 0.63095 0.0
C701 C 0.65334 0.90241 0.6775 0.0
C702 C 0.68947 0.94678 0.62747 0.0
C703 C 0.64693 0.89062 0.59995 0.0
C704 C 0.66634 0.9256 0.4885 0.0
C705 C 0.67726 0.92196 0.47085 0.0
C706 C 0.66362 0.92507 0.53517 0.0
C707 C 0.67183 0.92053 0.56486 0.0
C708 C 0.68304 0.91709 0.5473 0.0
C709 C 0.68571 0.91797 0.50058 0.0
C710 C 0.65176 0.92908 0.55264 0.0
C711 C 0.69188 0.912 0.57773 0.0
H712 H 0.68064 0.93836 0.71397 0.0
H713 H 0.64435 0.89128 0.69031 0.0
H714 H 0.69889 0.94555 0.61138 0.0
H715 H 0.6847 0.95128 0.60138 0.0
H716 H 0.69459 0.9555 0.65503 0.0
H717 H 0.63799 0.88023 0.61837 0.0
H718 H 0.64105 0.89384 0.57383 0.0
H719 H 0.65479 0.88743 0.58217 0.0
H720 H 0.65983 0.92878 0.46578 0.0
H721 H 0.69411 0.91506 0.48723 0.0
H722 H 0.65701 0.93811 0.5793 0.0
H723 H 0.64189 0.91864 0.56818 0.0
H724 H 0.64715 0.93339 0.52554 0.0
H725 H 0.69807 0.92085 0.60432 0.0
H726 H 0.7005 0.91015 0.55893 0.0
H727 H 0.68361 0.90098 0.59494 0.0
C728 C 0.08111 0.73797 0.47865 0.0
C729 C 0.08316 0.75216 0.4624 0.0
C730 C 0.08207 0.7356 0.52504 0.0
C731 C 0.08541 0.74779 0.55584 0.0
C732 C 0.08746 0.76213 0.53962 0.0
C733 C 0.08619 0.76409 0.4932 0.0
C734 C 0.07956 0.72007 0.5411 0.0
C735 C 0.09122 0.77549 0.57125 0.0
C736 C 0.07566 0.73989 0.68059 0.0
C737 C 0.09019 0.74395 0.69934 0.0
C738 C 0.07383 0.74058 0.6338 0.0
C739 C 0.08688 0.74568 0.60506 0.0
C740 C 0.10151 0.74949 0.62369 0.0
C741 C 0.10297 0.74847 0.67055 0.0
C742 C 0.05798 0.73617 0.61523 0.0
C743 C 0.11576 0.75517 0.59427 0.0
H744 H 0.0787 0.72867 0.45509 0.0
H745 H 0.08789 0.77513 0.48095 0.0
H746 H 0.09021 0.72164 0.5581 0.0
H747 H 0.07002 0.71501 0.56628 0.0
H748 H 0.07662 0.71163 0.51301 0.0
H749 H 0.09259 0.78592 0.55323 0.0
H750 H 0.08186 0.77191 0.59674 0.0
H751 H 0.10215 0.77876 0.58977 0.0
H752 H 0.06571 0.7363 0.70257 0.0
H753 H 0.11425 0.7517 0.68477 0.0
H754 H 0.05472 0.72739 0.58805 0.0
H755 H 0.05828 0.74655 0.60011 0.0
H756 H 0.04881 0.73138 0.64163 0.0
H757 H 0.11357 0.74664 0.56706 0.0
H758 H 0.12615 0.7571 0.61372 0.0
H759 H 0.1184 0.76627 0.57782 0.0
C760 C 0.2585 0.33594 0.49123 0.0
C761 C 0.24403 0.32499 0.4732 0.0
C762 C 0.26055 0.33856 0.53797 0.0
C763 C 0.24774 0.33024 0.56734 0.0
C764 C 0.23317 0.31899 0.54939 0.0
C765 C 0.23153 0.31641 0.5026 0.0
C766 C 0.27634 0.35045 0.55585 0.0
C767 C 0.21917 0.31003 0.57945 0.0
C768 C 0.2539 0.32822 0.69348 0.0
C769 C 0.25124 0.33991 0.7103 0.0
C770 C 0.25315 0.32516 0.64693 0.0
C771 C 0.24936 0.3338 0.61659 0.0
C772 C 0.24674 0.34566 0.63338 0.0
C773 C 0.24785 0.34865 0.67993 0.0
C774 C 0.25628 0.31261 0.63026 0.0
C775 C 0.24246 0.35498 0.60227 0.0
H776 H 0.26825 0.34255 0.46875 0.0
H777 H 0.22029 0.30798 0.48894 0.0
H778 H 0.27568 0.36028 0.57137 0.0
H779 H 0.28008 0.3452 0.5826 0.0
H780 H 0.28534 0.35514 0.52897 0.0
H781 H 0.20878 0.30138 0.56039 0.0
H782 H 0.22179 0.30384 0.60614 0.0
H783 H 0.21629 0.31822 0.59657 0.0
H784 H 0.2566 0.32146 0.7167 0.0
H785 H 0.24567 0.35764 0.69263 0.0
H786 H 0.26564 0.31744 0.60445 0.0
H787 H 0.24571 0.3032 0.61384 0.0
H788 H 0.25979 0.30745 0.65793 0.0
H789 H 0.25164 0.36099 0.57642 0.0
H790 H 0.24085 0.36384 0.62065 0.0
H791 H 0.23151 0.34708 0.58416 0.0
C792 C 0.89943 0.64831 0.83503 0.0
C793 C 0.91176 0.65689 0.80509 0.0
C794 C 0.90137 0.65078 0.88176 0.0
C795 C 0.91608 0.66191 0.89915 0.0
C796 C 0.92873 0.67023 0.86925 0.0
C797 C 0.92638 0.66772 0.82252 0.0
C798 C 0.88752 0.64183 0.91242 0.0
C799 C 0.94466 0.68199 0.88657 0.0
C800 C 0.91616 0.67987 0.01234 0.0
C801 C 0.9193 0.67084 0.04232 0.0
C802 C 0.91531 0.67722 0.96566 0.0
C803 C 0.91793 0.66542 0.94836 0.0
C804 C 0.92159 0.65658 0.9783 0.0
C805 C 0.92209 0.6593 0.02499 0.0
C806 C 0.91115 0.68675 0.93498 0.0
C807 C 0.92471 0.64409 0.96105 0.0
H808 H 0.88807 0.63997 0.82186 0.0
H809 H 0.936 0.67432 0.79961 0.0
H810 H 0.89024 0.63557 0.9386 0.0
H811 H 0.88481 0.65005 0.93013 0.0
H812 H 0.877 0.63326 0.8937 0.0
H813 H 0.95352 0.68659 0.85931 0.0
H814 H 0.9442 0.69189 0.90238 0.0
H815 H 0.94844 0.67666 0.91297 0.0
H816 H 0.91391 0.68876 0.02543 0.0
H817 H 0.92461 0.65234 0.04794 0.0
H818 H 0.90008 0.67899 0.9172 0.0
H819 H 0.92025 0.69264 0.90885 0.0
H820 H 0.9098 0.69571 0.95367 0.0
H821 H 0.91404 0.63462 0.94518 0.0
H822 H 0.92845 0.639 0.98834 0.0
H823 H 0.93388 0.64892 0.93469 0.0
C824 C 0.33635 0.26128 0.02249 0.0
C825 C 0.32528 0.24678 0.04006 0.0
C826 C 0.33895 0.26348 0.97576 0.0
C827 C 0.33049 0.25081 0.94604 0.0
C828 C 0.31916 0.23621 0.96359 0.0
C829 C 0.3166 0.23441 0.0103 0.0
C830 C 0.35093 0.2793 0.95825 0.0
C831 C 0.31007 0.22234 0.93313 0.0
C832 C 0.32791 0.25672 0.82017 0.0
C833 C 0.33926 0.25366 0.80284 0.0
C834 C 0.32525 0.25634 0.86686 0.0
C835 C 0.33397 0.25253 0.89681 0.0
C836 C 0.34558 0.24963 0.87952 0.0
C837 C 0.34817 0.25036 0.83282 0.0
C838 C 0.31296 0.25976 0.8841 0.0
C839 C 0.35496 0.24529 0.91023 0.0
H840 H 0.34303 0.27091 0.04528 0.0
H841 H 0.30808 0.22315 0.02361 0.0
H842 H 0.36067 0.27858 0.94236 0.0
H843 H 0.34573 0.28322 0.93185 0.0
H844 H 0.35572 0.2882 0.9854 0.0
H845 H 0.30142 0.21189 0.95199 0.0
H846 H 0.30386 0.22512 0.90691 0.0
H847 H 0.31816 0.21945 0.91545 0.0
H848 H 0.32104 0.25937 0.79722 0.0
H849 H 0.35692 0.24791 0.81972 0.0
H850 H 0.31795 0.26897 0.9103 0.0
H851 H 0.3034 0.2492 0.90016 0.0
H852 H 0.30795 0.26357 0.85677 0.0
H853 H 0.36099 0.25441 0.93626 0.0
H854 H 0.3638 0.24374 0.89154 0.0
H855 H 0.34709 0.23428 0.92813 0.0
C856 C 0.75217 0.09794 0.82676 0.0
C857 C 0.74907 0.08599 0.79599 0.0
C858 C 0.75345 0.09599 0.87318 0.0
C859 C 0.75135 0.08164 0.88946 0.0
C860 C 0.74794 0.06942 0.8587 0.0
C861 C 0.74696 0.07178 0.8123 0.0
C862 C 0.75728 0.10939 0.90476 0.0
C863 C 0.74537 0.05387 0.87481 0.0
C864 C 0.76905 0.08232 0.00393 0.0
C865 C 0.75633 0.07786 0.0329 0.0
C866 C 0.76753 0.08333 0.95709 0.0
C867 C 0.75289 0.07957 0.93867 0.0
C868 C 0.73988 0.07452 0.96759 0.0
C869 C 0.74179 0.07385 0.01435 0.0
C870 C 0.78172 0.08894 0.92749 0.0
C871 C 0.72402 0.07016 0.94923 0.0
H872 H 0.75392 0.109 0.81448 0.0
H873 H 0.74451 0.06246 0.78878 0.0
H874 H 0.74796 0.10585 0.93038 0.0
H875 H 0.76824 0.11265 0.92312 0.0
H876 H 0.75865 0.11981 0.88672 0.0
H877 H 0.74234 0.0454 0.84678 0.0
H878 H 0.75604 0.05541 0.89162 0.0
H879 H 0.73588 0.04889 0.90017 0.0
H880 H 0.78034 0.08551 0.01799 0.0
H881 H 0.73187 0.07029 0.03646 0.0
H882 H 0.78437 0.10004 0.91097 0.0
H883 H 0.77946 0.08038 0.90033 0.0
H884 H 0.79213 0.09087 0.9468 0.0
H885 H 0.72435 0.08055 0.9341 0.0
H886 H 0.71489 0.06543 0.97576 0.0
H887 H 0.72068 0.06135 0.9221 0.0
C888 C 0.00207 0.41161 0.85151 0.0
C889 C 0.99068 0.41464 0.86879 0.0
C890 C 0.0049 0.41218 0.80488 0.0
C891 C 0.99634 0.41618 0.77486 0.0
C892 C 0.98472 0.41909 0.79209 0.0
C893 C 0.98194 0.41814 0.83877 0.0
C894 C 0.01718 0.40872 0.78779 0.0
C895 C 0.97551 0.42362 0.76132 0.0
C896 C 0.01429 0.43402 0.66136 0.0
C897 C 0.0057 0.4216 0.63168 0.0
C898 C 0.01143 0.43237 0.70801 0.0
C899 C -0.00011 0.41787 0.7256 0.0
C900 C 0.99149 0.40515 0.69596 0.0
C901 C 0.99438 0.40721 0.64931 0.0
C902 C 0.02049 0.44628 0.73835 0.0
C903 C 0.9793 0.38943 0.71347 0.0
H904 H 0.00881 0.4088 0.87448 0.0
H905 H 0.97319 0.42059 0.85186 0.0
H906 H 0.01217 0.39948 0.76165 0.0
H907 H 0.02676 0.41925 0.7717 0.0
H908 H 0.02215 0.4049 0.8152 0.0
H909 H 0.96673 0.42528 0.77993 0.0
H910 H 0.9835 0.43461 0.74353 0.0
H911 H 0.96945 0.41455 0.73518 0.0
H912 H 0.02298 0.4452 0.64799 0.0
H913 H 0.98775 0.39754 0.62662 0.0
H914 H 0.02665 0.44351 0.76476 0.0
H915 H 0.01239 0.4492 0.75579 0.0
H916 H 0.02918 0.4567 0.71945 0.0
H917 H 0.98437 0.38538 0.73993 0.0
H918 H 0.9744 0.38052 0.68635 0.0
H919 H 0.96966 0.39034 0.72928 0.0
C920 C 0.59295 0.59142 0.6488 0.0
C921 C 0.57836 0.58783 0.63155 0.0
C922 C 0.59522 0.59076 0.69537 0.0
C923 C 0.58255 0.58618 0.72532 0.0
C924 C 0.56785 0.58272 0.70814 0.0
C925 C 0.56597 0.5837 0.66155 0.0
C926 C 0.61113 0.59478 0.71248 0.0
C927 C 0.55399 0.57761 0.73889 0.0
C928 C 0.58295 0.56848 0.83871 0.0
C929 C 0.58619 0.58073 0.86847 0.0
C930 C 0.58194 0.57017 0.792 0.0
C931 C 0.58448 0.58454 0.77451 0.0
C932 C 0.58824 0.59711 0.80424 0.0
C933 C 0.58892 0.59501 0.8509 0.0
C934 C 0.57771 0.55643 0.76149 0.0
C935 C 0.59127 0.61268 0.78684 0.0
H936 H 0.60261 0.59469 0.62586 0.0
H937 H 0.55463 0.58083 0.64851 0.0
H938 H 0.61505 0.60396 0.7387 0.0
H939 H 0.61058 0.58441 0.72848 0.0
H940 H 0.61995 0.5989 0.6851 0.0
H941 H 0.5434 0.57553 0.72028 0.0
H942 H 0.55143 0.56671 0.75653 0.0
H943 H 0.55662 0.58656 0.76513 0.0
H944 H 0.58074 0.55738 0.85201 0.0
H945 H 0.59153 0.60456 0.87366 0.0
H946 H 0.58672 0.55962 0.73504 0.0
H947 H 0.56656 0.55303 0.74408 0.0
H948 H 0.57649 0.54618 0.78025 0.0
H949 H 0.60041 0.61702 0.76041 0.0
H950 H 0.595 0.62155 0.81402 0.0
H951 H 0.58056 0.61141 0.77102 0.0
C952 C 0.40365 0.99132 0.85613 0.0
C953 C 0.41801 0.00304 0.87271 0.0
C954 C 0.40131 0.9881 0.80968 0.0
C955 C 0.41371 0.99664 0.7792 0.0
C956 C 0.42822 0.0085 0.79576 0.0
C957 C 0.43015 0.01164 0.84221 0.0
C958 C 0.3856 0.97554 0.79322 0.0
C959 C 0.4418 0.01774 0.76446 0.0
C960 C 0.41414 0.97956 0.66468 0.0
C961 C 0.41024 0.98826 0.63568 0.0
C962 C 0.415 0.98194 0.71156 0.0
C963 C 0.41166 0.99312 0.72997 0.0
C964 C 0.40716 0.00153 0.70101 0.0
C965 C 0.40662 0.99908 0.65422 0.0
C966 C 0.42001 0.97286 0.74125 0.0
C967 C 0.40329 0.01339 0.71936 0.0
H968 H 0.39419 0.98467 0.87946 0.0
H969 H 0.44132 0.02064 0.85473 0.0
H970 H 0.38098 0.98039 0.76781 0.0
H971 H 0.38676 0.96618 0.77636 0.0
H972 H 0.37702 0.9703 0.82107 0.0
H973 H 0.45233 0.02652 0.78274 0.0
H974 H 0.44471 0.00978 0.74613 0.0
H975 H 0.43864 0.02383 0.73882 0.0
H976 H 0.41702 0.97122 0.65064 0.0
H977 H 0.40349 0.00578 0.63208 0.0
H978 H 0.4113 0.96676 0.76821 0.0
H979 H 0.43118 0.98097 0.75802 0.0
H980 H 0.42157 0.96413 0.72193 0.0
H981 H 0.39438 0.00812 0.74631 0.0
H982 H 0.39889 0.0181 0.69278 0.0
H983 H 0.41382 0.02321 0.73474 0.0
C984 C 0.58671 0.99362 0.36006 0.0
C985 C 0.58396 0.00524 0.37694 0.0
C986 C 0.58605 0.99064 0.31348 0.0
C987 C 0.58225 0.99928 0.28319 0.0
C988 C 0.57954 0.01107 0.30005 0.0
C989 C 0.58057 0.014 0.34661 0.0
C990 C 0.58929 0.97817 0.29672 0.0
C991 C 0.57523 0.02039 0.26899 0.0
C992 C 0.5915 0.00174 0.15787 0.0
C993 C 0.57706 0.99076 0.1397 0.0
C994 C 0.59351 0.00424 0.20466 0.0
C995 C 0.5807 0.99579 0.23392 0.0
C996 C 0.56616 0.98453 0.21581 0.0
C997 C 0.56456 0.98205 0.16899 0.0
C998 C 0.60927 0.01614 0.22271 0.0
C999 C 0.55215 0.97545 0.24575 0.0
H1000 H 0.58941 0.98686 0.38326 0.0
H1001 H 0.57833 0.02293 0.35938 0.0
H1002 H 0.57875 0.96874 0.28018 0.0
H1003 H 0.59866 0.98307 0.27099 0.0
H1004 H 0.59281 0.97301 0.32437 0.0
H1005 H 0.57353 0.02918 0.28744 0.0
H1006 H 0.58444 0.02647 0.24327 0.0
H1007 H 0.56432 0.01247 0.25073 0.0
H1008 H 0.60124 0.00844 0.13547 0.0
H1009 H 0.55335 0.97361 0.1552 0.0
H1010 H 0.61301 0.01088 0.24944 0.0
H1011 H 0.60856 0.02593 0.23829 0.0
H1012 H 0.6183 0.02089 0.19591 0.0
H1013 H 0.55481 0.96926 0.27237 0.0
H1014 H 0.5418 0.96678 0.22657 0.0
H1015 H 0.54918 0.98356 0.26296 0.0
C1016 C 0.98504 0.56927 0.34346 0.0
C1017 C 0.9939 0.58137 0.37383 0.0
C1018 C 0.98796 0.57118 0.2969 0.0
C1019 C -0.0001 0.58562 0.28012 0.0
C1020 C 0.00862 0.59801 0.31045 0.0
C1021 C 0.0056 0.59571 0.35699 0.0
C1022 C 0.97852 0.55761 0.26575 0.0
C1023 C 0.02128 0.61365 0.29379 0.0
C1024 C 0.01734 0.58486 0.16664 0.0
C1025 C 0.00899 0.58899 0.13698 0.0
C1026 C 0.01467 0.58396 0.21335 0.0
C1027 C 0.00354 0.58751 0.23097 0.0
C1028 C 0.99543 0.59218 0.20137 0.0
C1029 C 0.99817 0.59275 0.1547 0.0
C1030 C 0.02342 0.57874 0.24371 0.0
C1031 C 0.98366 0.59629 0.21892 0.0
H1032 H 0.97603 0.55813 0.35616 0.0
H1033 H 0.01245 0.60513 0.38021 0.0
H1034 H 0.97272 0.56095 0.23965 0.0
H1035 H 0.98631 0.55435 0.24795 0.0
H1036 H 0.96949 0.54724 0.28406 0.0
H1037 H 0.02643 0.62233 0.32143 0.0
H1038 H 0.03068 0.61237 0.27771 0.0
H1039 H 0.01658 0.61821 0.26773 0.0
H1040 H 0.02568 0.58187 0.15325 0.0
H1041 H 0.99173 0.59605 0.13204 0.0
H1042 H 0.0151 0.56772 0.26079 0.0
H1043 H 0.02964 0.58754 0.27041 0.0
H1044 H 0.03201 0.57684 0.22488 0.0
H1045 H 0.97373 0.58587 0.23437 0.0
H1046 H 0.97911 0.60069 0.19188 0.0
H1047 H 0.98894 0.60528 0.24566 0.0
C1048 C 0.41907 0.43257 0.1592 0.0
C1049 C 0.41519 0.42027 0.12901 0.0
C1050 C 0.42021 0.4307 0.20574 0.0
C1051 C 0.41713 0.41609 0.22274 0.0
C1052 C 0.41284 0.40351 0.19259 0.0
C1053 C 0.41207 0.40579 0.14602 0.0
C1054 C 0.42504 0.44449 0.23661 0.0
C1055 C 0.40919 0.38769 0.2095 0.0
C1056 C 0.43498 0.41625 0.33646 0.0
C1057 C 0.42267 0.41288 0.36614 0.0
C1058 C 0.43324 0.41707 0.28966 0.0
C1059 C 0.41878 0.41418 0.27199 0.0
C1060 C 0.40615 0.41024 0.30165 0.0
C1061 C 0.40829 0.40977 0.34839 0.0
C1062 C 0.44706 0.42154 0.25927 0.0
C1063 C 0.39047 0.40681 0.2841 0.0
H1064 H 0.4216 0.44383 0.14634 0.0
H1065 H 0.409 0.39621 0.12293 0.0
H1066 H 0.41598 0.44168 0.26265 0.0
H1067 H 0.43593 0.4472 0.25451 0.0
H1068 H 0.42699 0.45505 0.21808 0.0
H1069 H 0.40532 0.37893 0.18198 0.0
H1070 H 0.41964 0.38849 0.22571 0.0
H1071 H 0.39992 0.38351 0.23552 0.0
H1072 H 0.44615 0.41875 0.34989 0.0
H1073 H 0.3987 0.40706 0.37108 0.0
H1074 H 0.4503 0.43267 0.24196 0.0
H1075 H 0.44404 0.41259 0.23275 0.0
H1076 H 0.45736 0.42293 0.27812 0.0
H1077 H 0.39147 0.41743 0.26849 0.0
H1078 H 0.38155 0.40281 0.31119 0.0
H1079 H 0.38639 0.39774 0.2575 0.0
C1080 C 0.31344 0.18167 0.13914 0.0
C1081 C 0.32042 0.1951 0.16584 0.0
C1082 C 0.31886 0.17102 0.1402 0.0
C1083 C 0.33111 0.17362 0.16998 0.0
C1084 C 0.33792 0.18702 0.19775 0.0
C1085 C 0.33268 0.19775 0.1947 0.0
C1086 C 0.31164 0.15713 0.10904 0.0
C1087 C 0.35062 0.18993 0.23106 0.0
C1088 C 0.3348 0.13843 0.20094 0.0
C1089 C 0.34768 0.14097 0.17512 0.0
C1090 C 0.32949 0.14916 0.20042 0.0
C1091 C 0.33688 0.16238 0.17198 0.0
C1092 C 0.34982 0.16489 0.14554 0.0
C1093 C 0.35525 0.15429 0.14808 0.0
C1094 C 0.31602 0.14636 0.23033 0.0
C1095 C 0.35771 0.17858 0.11377 0.0
H1096 H 0.304 0.1797 0.11671 0.0
H1097 H 0.33794 0.20807 0.21577 0.0
H1098 H 0.32079 0.15704 0.08768 0.0
H1099 H 0.30622 0.14621 0.129 0.0
H1100 H 0.30264 0.15711 0.08673 0.0
H1101 H 0.35417 0.20054 0.25166 0.0
H1102 H 0.3466 0.17981 0.25406 0.0
H1103 H 0.36099 0.19126 0.21296 0.0
H1104 H 0.32899 0.12812 0.22191 0.0
H1105 H 0.36508 0.1561 0.1276 0.0
H1106 H 0.30605 0.1447 0.20938 0.0
H1107 H 0.31938 0.15667 0.25207 0.0
H1108 H 0.31212 0.13597 0.25222 0.0
H1109 H 0.34908 0.17837 0.0895 0.0
H1110 H 0.36732 0.1786 0.09451 0.0
H1111 H 0.3625 0.18964 0.13292 0.0
C1112 C 0.80254 0.13587 0.1347 0.0
C1113 C 0.80562 0.12582 0.16014 0.0
C1114 C 0.81298 0.15199 0.1347 0.0
C1115 C 0.82647 0.15817 0.16212 0.0
C1116 C 0.82941 0.14805 0.18863 0.0
C1117 C 0.81908 0.13196 0.18668 0.0
C1118 C 0.80972 0.16236 0.10486 0.0
C1119 C 0.84341 0.15422 0.21933 0.0
C1120 C 0.86211 0.19722 0.13668 0.0
C1121 C 0.86013 0.20711 0.16626 0.0
C1122 C 0.85093 0.18138 0.13381 0.0
C1123 C 0.83775 0.17518 0.16245 0.0
C1124 C 0.83574 0.18514 0.19257 0.0
C1125 C 0.84684 0.20108 0.1935 0.0
C1126 C 0.85325 0.17126 0.10024 0.0
C1127 C 0.82211 0.17887 0.22465 0.0
H1128 H 0.79212 0.13108 0.1141 0.0
H1129 H 0.82135 0.12419 0.20686 0.0
H1130 H 0.80867 0.17109 0.12561 0.0
H1131 H 0.81957 0.16886 0.08125 0.0
H1132 H 0.79887 0.15569 0.08491 0.0
H1133 H 0.84351 0.14487 0.23968 0.0
H1134 H 0.85425 0.16004 0.1991 0.0
H1135 H 0.84357 0.16306 0.24261 0.0
H1136 H 0.87231 0.20196 0.1152 0.0
H1137 H 0.84539 0.20876 0.21648 0.0
H1138 H 0.84274 0.16488 0.07882 0.0
H1139 H 0.85496 0.16244 0.11833 0.0
H1140 H 0.86347 0.17812 0.07803 0.0
H1141 H 0.81102 0.173 0.20559 0.0
H1142 H 0.82223 0.18816 0.24587 0.0
H1143 H 0.82232 0.17002 0.24711 0.0
C1144 C 0.86705 0.68436 0.14057 0.0
C1145 C 0.87324 0.67719 0.16749 0.0
C1146 C 0.85107 0.67934 0.14182 0.0
C1147 C 0.84127 0.66732 0.17203 0.0
C1148 C 0.8476 0.6603 0.19995 0.0
C1149 C 0.86347 0.66512 0.1967 0.0
C1150 C 0.84465 0.68676 0.11049 0.0
C1151 C 0.83766 0.64784 0.23369 0.0
C1152 C 0.80308 0.66505 0.20352 0.0
C1153 C 0.7924 0.65221 0.17816 0.0
C1154 C 0.819 0.66988 0.20268 0.0
C1155 C 0.82438 0.66205 0.1744 0.0
C1156 C 0.81361 0.64914 0.14843 0.0
C1157 C 0.79769 0.6442 0.15128 0.0
C1158 C 0.83005 0.68334 0.23208 0.0
C1159 C 0.81894 0.64079 0.11683 0.0
H1160 H 0.87464 0.69364 0.11786 0.0
H1161 H 0.86835 0.65973 0.21794 0.0
H1162 H 0.83518 0.67768 0.08959 0.0
H1163 H 0.83953 0.69258 0.13033 0.0
H1164 H 0.85371 0.69549 0.08774 0.0
H1165 H 0.84454 0.64405 0.25423 0.0
H1166 H 0.8319 0.65223 0.25672 0.0
H1167 H 0.82835 0.63755 0.21597 0.0
H1168 H 0.79893 0.67121 0.22437 0.0
H1169 H 0.78942 0.6344 0.13117 0.0
H1170 H 0.83849 0.69311 0.21076 0.0
H1171 H 0.83683 0.67977 0.25384 0.0
H1172 H 0.82389 0.68762 0.25395 0.0
H1173 H 0.82741 0.64917 0.09219 0.0
H1174 H 0.80912 0.63126 0.09798 0.0
H1175 H 0.82499 0.63579 0.13604 0.0
C1176 C 0.15035 0.35206 0.30923 0.0
C1177 C 0.13697 0.34499 0.33613 0.0
C1178 C 0.16136 0.34711 0.31116 0.0
C1179 C 0.15917 0.33525 0.34196 0.0
C1180 C 0.14586 0.3284 0.37005 0.0
C1181 C 0.13477 0.33315 0.36617 0.0
C1182 C 0.17516 0.35435 0.27965 0.0
C1183 C 0.14336 0.31611 0.40437 0.0
C1184 C 0.17892 0.31143 0.32161 0.0
C1185 C 0.1923 0.31931 0.34827 0.0
C1186 C 0.16818 0.31668 0.31864 0.0
C1187 C 0.17063 0.32977 0.34424 0.0
C1188 C 0.18394 0.33751 0.37219 0.0
C1189 C 0.1948 0.33236 0.37318 0.0
C1190 C 0.15438 0.3084 0.28741 0.0
C1191 C 0.18668 0.35116 0.40117 0.0
H1192 H 0.15198 0.36117 0.28588 0.0
H1193 H 0.12449 0.32783 0.38738 0.0
H1194 H 0.18613 0.35998 0.29931 0.0
H1195 H 0.17531 0.34517 0.25862 0.0
H1196 H 0.17497 0.36318 0.25702 0.0
H1197 H 0.13287 0.31263 0.42545 0.0
H1198 H 0.14205 0.30561 0.38705 0.0
H1199 H 0.15365 0.32047 0.42685 0.0
H1200 H 0.17712 0.30147 0.30183 0.0
H1201 H 0.20515 0.33841 0.39386 0.0
H1202 H 0.15431 0.31679 0.26277 0.0
H1203 H 0.14341 0.30354 0.30694 0.0
H1204 H 0.15449 0.29877 0.26856 0.0
H1205 H 0.188 0.36088 0.37958 0.0
H1206 H 0.19723 0.35543 0.42257 0.0
H1207 H 0.17648 0.34781 0.42337 0.0
C1208 C 0.64349 0.79848 0.35965 0.0
C1209 C 0.65072 0.79249 0.33209 0.0
C1210 C 0.64927 0.81456 0.36259 0.0
C1211 C 0.66224 0.82483 0.336 0.0
C1212 C 0.66937 0.81878 0.30727 0.0
C1213 C 0.6637 0.80267 0.30635 0.0
C1214 C 0.64168 0.82057 0.39475 0.0
C1215 C 0.68288 0.82931 0.27726 0.0
C1216 C 0.66711 0.86476 0.3145 0.0
C1217 C 0.67951 0.87414 0.34324 0.0
C1218 C 0.66161 0.84874 0.31102 0.0
C1219 C 0.6683 0.84189 0.33826 0.0
C1220 C 0.68064 0.85131 0.36806 0.0
C1221 C 0.68631 0.86741 0.3695 0.0
C1222 C 0.64881 0.83918 0.27776 0.0
C1223 C 0.68771 0.84436 0.39877 0.0
H1224 H 0.63357 0.79059 0.38002 0.0
H1225 H 0.66924 0.79799 0.28493 0.0
H1226 H 0.65047 0.82895 0.41874 0.0
H1227 H 0.63693 0.82691 0.37584 0.0
H1228 H 0.63209 0.81107 0.41433 0.0
H1229 H 0.68662 0.8227 0.25536 0.0
H1230 H 0.67962 0.83635 0.25553 0.0
H1231 H 0.69292 0.83756 0.29812 0.0
H1232 H 0.66201 0.87005 0.29374 0.0
H1233 H 0.69588 0.87472 0.39182 0.0
H1234 H 0.6384 0.8302 0.29586 0.0
H1235 H 0.65264 0.83301 0.25441 0.0
H1236 H 0.64539 0.84643 0.25754 0.0
H1237 H 0.67851 0.83514 0.42003 0.0
H1238 H 0.69681 0.8532 0.42117 0.0
H1239 H 0.69297 0.83879 0.37846 0.0
C1240 C 0.19668 0.86314 0.29744 0.0
C1241 C 0.207 0.86039 0.3226 0.0
C1242 C 0.1806 0.85253 0.29836 0.0
C1243 C 0.17476 0.83922 0.32645 0.0
C1244 C 0.18516 0.83661 0.35265 0.0
C1245 C 0.20119 0.84709 0.34977 0.0
C1246 C 0.16992 0.85543 0.26882 0.0
C1247 C 0.17936 0.82282 0.38405 0.0
C1248 C 0.13207 0.81864 0.36013 0.0
C1249 C 0.126 0.8052 0.33351 0.0
C1250 C 0.14797 0.82985 0.35828 0.0
C1251 C 0.15781 0.82779 0.32784 0.0
C1252 C 0.15156 0.81444 0.29987 0.0
C1253 C 0.13578 0.80316 0.30366 0.0
C1254 C 0.15431 0.84367 0.38967 0.0
C1255 C 0.16155 0.81205 0.266 0.0
H1256 H 0.20122 0.87344 0.27637 0.0
H1257 H 0.20918 0.84509 0.36975 0.0
H1258 H 0.16334 0.84539 0.24586 0.0
H1259 H 0.16127 0.85652 0.28988 0.0
H1260 H 0.17635 0.86615 0.24818 0.0
H1261 H 0.18891 0.82296 0.40399 0.0
H1262 H 0.17063 0.82269 0.40772 0.0
H1263 H 0.17349 0.81184 0.36441 0.0
H1264 H 0.12448 0.82014 0.38332 0.0
H1265 H 0.131 0.79284 0.28264 0.0
H1266 H 0.1599 0.85465 0.37001 0.0
H1267 H 0.16339 0.84375 0.41169 0.0
H1268 H 0.14511 0.84355 0.41134 0.0
H1269 H 0.16766 0.82243 0.24394 0.0
H1270 H 0.15465 0.80165 0.24447 0.0
H1271 H 0.17058 0.81061 0.2838 0.0
C1272 C 0.66638 0.86402 0.86276 0.0
C1273 C 0.65439 0.862 0.83364 0.0
C1274 C 0.67095 0.85277 0.86567 0.0
C1275 C 0.66375 0.83948 0.83749 0.0
C1276 C 0.65181 0.83753 0.8074 0.0
C1277 C 0.64705 0.84869 0.80649 0.0
C1278 C 0.68334 0.855 0.89928 0.0
C1279 C 0.64422 0.82378 0.77577 0.0
C1280 C 0.68651 0.81871 0.81558 0.0
C1281 C 0.67844 0.80536 0.84227 0.0
C1282 C 0.68168 0.82978 0.81309 0.0
C1283 C 0.66883 0.8277 0.83925 0.0
C1284 C 0.6609 0.81441 0.8672 0.0
C1285 C 0.66562 0.80322 0.86766 0.0
C1286 C 0.69011 0.84354 0.78179 0.0
C1287 C 0.64751 0.81205 0.89679 0.0
H1288 H 0.67191 0.87425 0.88416 0.0
H1289 H 0.63782 0.84721 0.78384 0.0
H1290 H 0.67886 0.84475 0.92193 0.0
H1291 H 0.69359 0.85594 0.88139 0.0
H1292 H 0.68723 0.8656 0.92022 0.0
H1293 H 0.63551 0.82428 0.75331 0.0
H1294 H 0.6532 0.82334 0.75456 0.0
H1295 H 0.63833 0.81279 0.79535 0.0
H1296 H 0.69631 0.82024 0.79548 0.0
H1297 H 0.65944 0.79289 0.88841 0.0
H1298 H 0.69531 0.85453 0.80134 0.0
H1299 H 0.68176 0.84386 0.75754 0.0
H1300 H 0.69951 0.84313 0.76251 0.0
H1301 H 0.65121 0.82231 0.91903 0.0
H1302 H 0.64308 0.80148 0.91817 0.0
H1303 H 0.63781 0.81099 0.87565 0.0
C1304 C 0.1953 0.86355 0.80103 0.0
C1305 C 0.19323 0.87351 0.83007 0.0
C1306 C 0.18419 0.84767 0.79863 0.0
C1307 C 0.17101 0.84152 0.82721 0.0
C1308 C 0.1689 0.85155 0.85676 0.0
C1309 C 0.17993 0.86752 0.85722 0.0
C1310 C 0.18662 0.83747 0.76566 0.0
C1311 C 0.15525 0.84534 0.88875 0.0
C1312 C 0.13599 0.80197 0.80026 0.0
C1313 C 0.13915 0.79208 0.82624 0.0
C1314 C 0.14634 0.81811 0.79985 0.0
C1315 C 0.1598 0.82449 0.8274 0.0
C1316 C 0.16282 0.81453 0.85446 0.0
C1317 C 0.15259 0.79841 0.85292 0.0
C1318 C 0.14301 0.8283 0.76942 0.0
C1319 C 0.17679 0.8209 0.88531 0.0
H1320 H 0.20552 0.86825 0.77962 0.0
H1321 H 0.1784 0.87526 0.8798 0.0
H1322 H 0.1884 0.82878 0.78425 0.0
H1323 H 0.17613 0.83094 0.74427 0.0
H1324 H 0.19683 0.84428 0.7434 0.0
H1325 H 0.15527 0.85469 0.90945 0.0
H1326 H 0.14417 0.83931 0.86966 0.0
H1327 H 0.15552 0.83664 0.9117 0.0
H1328 H 0.1256 0.79704 0.77954 0.0
H1329 H 0.15491 0.79076 0.87351 0.0
H1330 H 0.15286 0.83475 0.74576 0.0
H1331 H 0.14188 0.83708 0.78971 0.0
H1332 H 0.13218 0.82149 0.7495 0.0
H1333 H 0.18765 0.8267 0.86513 0.0
H1334 H 0.17695 0.81167 0.90614 0.0
H1335 H 0.17687 0.8298 0.90814 0.0
C1336 C 0.13533 0.33361 0.86857 0.0
C1337 C 0.12536 0.32042 0.84322 0.0
C1338 C 0.15148 0.33946 0.86842 0.0
C1339 C 0.15777 0.33227 0.84093 0.0
C1340 C 0.14772 0.31914 0.81454 0.0
C1341 C 0.13161 0.31321 0.81664 0.0
C1342 C 0.16177 0.35316 0.89816 0.0
C1343 C 0.15399 0.31142 0.78378 0.0
C1344 C 0.20066 0.35528 0.80966 0.0
C1345 C 0.20683 0.34818 0.83699 0.0
C1346 C 0.18466 0.3502 0.81044 0.0
C1347 C 0.17481 0.33817 0.84052 0.0
C1348 C 0.18114 0.33134 0.86922 0.0
C1349 C 0.19704 0.33623 0.86649 0.0
C1350 C 0.17825 0.35741 0.7783 0.0
C1351 C 0.17113 0.31884 0.90277 0.0
H1352 H 0.13047 0.33916 0.88921 0.0
H1353 H 0.12389 0.30313 0.79652 0.0
H1354 H 0.16838 0.34992 0.92171 0.0
H1355 H 0.1704 0.36298 0.87734 0.0
H1356 H 0.15502 0.35723 0.91819 0.0
H1357 H 0.14469 0.30189 0.76351 0.0
H1358 H 0.16275 0.32014 0.76042 0.0
H1359 H 0.15994 0.30652 0.80396 0.0
H1360 H 0.20828 0.36448 0.78675 0.0
H1361 H 0.20189 0.33089 0.88805 0.0
H1362 H 0.1723 0.36256 0.79733 0.0
H1363 H 0.16944 0.34828 0.75595 0.0
H1364 H 0.18746 0.36661 0.75698 0.0
H1365 H 0.16467 0.32287 0.92424 0.0
H1366 H 0.17808 0.31558 0.92492 0.0
H1367 H 0.16239 0.30828 0.88468 0.0
C1368 C 0.82006 0.68951 0.6919 0.0
C1369 C 0.80721 0.68217 0.663 0.0
C1370 C 0.83064 0.68408 0.69581 0.0
C1371 C 0.8286 0.6714 0.6689 0.0
C1372 C 0.81591 0.66431 0.63848 0.0
C1373 C 0.80517 0.66958 0.6366 0.0
C1374 C 0.84372 0.69163 0.72965 0.0
C1375 C 0.81366 0.65113 0.60804 0.0
C1376 C 0.86403 0.66692 0.65112 0.0
C1377 C 0.86068 0.65425 0.67914 0.0
C1378 C 0.85357 0.67247 0.64694 0.0
C1379 C 0.8397 0.66551 0.67267 0.0
C1380 C 0.83643 0.6529 0.70181 0.0
C1381 C 0.84684 0.64721 0.70403 0.0
C1382 C 0.85723 0.68556 0.61435 0.0
C1383 C 0.822 0.64551 0.73085 0.0
H1384 H 0.82146 0.69909 0.71283 0.0
H1385 H 0.79522 0.66394 0.61424 0.0
H1386 H 0.84293 0.68278 0.75406 0.0
H1387 H 0.85511 0.69645 0.71232 0.0
H1388 H 0.84348 0.70116 0.74866 0.0
H1389 H 0.80378 0.64757 0.58432 0.0
H1390 H 0.8244 0.65464 0.58819 0.0
H1391 H 0.81146 0.64089 0.62861 0.0
H1392 H 0.87466 0.67222 0.63139 0.0
H1393 H 0.84431 0.63744 0.7258 0.0
H1394 H 0.85814 0.69572 0.63272 0.0
H1395 H 0.84765 0.68182 0.5895 0.0
H1396 H 0.86828 0.68935 0.59577 0.0
H1397 H 0.82153 0.65452 0.75191 0.0
H1398 H 0.82156 0.63635 0.75336 0.0
H1399 H 0.81147 0.64023 0.70924 0.0
C1400 C 0.33295 0.19784 0.64542 0.0
C1401 C 0.34488 0.20728 0.67547 0.0
C1402 C 0.32798 0.18196 0.64113 0.0
C1403 C 0.33469 0.17526 0.66884 0.0
C1404 C 0.34657 0.18472 0.69986 0.0
C1405 C 0.35175 0.20073 0.70215 0.0
C1406 C 0.31568 0.1724 0.60654 0.0
C1407 C 0.35365 0.17789 0.731 0.0
C1408 C 0.31087 0.13155 0.6868 0.0
C1409 C 0.31886 0.12625 0.65983 0.0
C1410 C 0.31605 0.1475 0.6906 0.0
C1411 C 0.32919 0.15832 0.66551 0.0
C1412 C 0.33701 0.15296 0.63714 0.0
C1413 C 0.33193 0.13697 0.63535 0.0
C1414 C 0.30769 0.1528 0.72227 0.0
C1415 C 0.35071 0.16407 0.60864 0.0
H1416 H 0.32779 0.203 0.62434 0.0
H1417 H 0.36094 0.20806 0.72549 0.0
H1418 H 0.32008 0.16667 0.58339 0.0
H1419 H 0.30521 0.16306 0.62351 0.0
H1420 H 0.31218 0.17955 0.5862 0.0
H1421 H 0.36233 0.18672 0.75437 0.0
H1422 H 0.34438 0.16835 0.75124 0.0
H1423 H 0.35944 0.17278 0.71102 0.0
H1424 H 0.3009 0.12324 0.70626 0.0
H1425 H 0.33807 0.13283 0.61445 0.0
H1426 H 0.30295 0.15913 0.70325 0.0
H1427 H 0.316 0.16102 0.74749 0.0
H1428 H 0.29798 0.14293 0.74043 0.0
H1429 H 0.34743 0.17114 0.58714 0.0
H1430 H 0.35497 0.15794 0.58659 0.0
H1431 H 0.36041 0.17226 0.63063 0.0
C1432 C 0.80227 0.13674 0.63875 0.0
C1433 C 0.79243 0.13889 0.66806 0.0
C1434 C 0.8181 0.14793 0.63543 0.0
C1435 C 0.82432 0.16129 0.66333 0.0
C1436 C 0.81442 0.16346 0.69325 0.0
C1437 C 0.79849 0.15234 0.69463 0.0
C1438 C 0.82816 0.14542 0.6021 0.0
C1439 C 0.82073 0.1773 0.72456 0.0
C1440 C 0.86762 0.18038 0.68654 0.0
C1441 C 0.87359 0.19366 0.65924 0.0
C1442 C 0.85157 0.16998 0.68906 0.0
C1443 C 0.8413 0.17265 0.66236 0.0
C1444 C 0.84731 0.18594 0.63415 0.0
C1445 C 0.8634 0.19648 0.63359 0.0
C1446 C 0.84559 0.15621 0.7206 0.0
C1447 C 0.83678 0.1889 0.60409 0.0
H1448 H 0.79751 0.12641 0.61776 0.0
H1449 H 0.79085 0.15393 0.7174 0.0
H1450 H 0.8344 0.15578 0.58 0.0
H1451 H 0.83709 0.14394 0.62035 0.0
H1452 H 0.82129 0.13502 0.58057 0.0
H1453 H 0.81149 0.17725 0.74586 0.0
H1454 H 0.82971 0.17733 0.74695 0.0
H1455 H 0.82644 0.18826 0.70487 0.0
H1456 H 0.87551 0.17833 0.70688 0.0
H1457 H 0.86807 0.20675 0.61241 0.0
H1458 H 0.83974 0.14521 0.70103 0.0
H1459 H 0.83681 0.15616 0.7439 0.0
H1460 H 0.85504 0.1563 0.74094 0.0
H1461 H 0.83024 0.17885 0.58112 0.0
H1462 H 0.84333 0.1996 0.58343 0.0
H1463 H 0.8281 0.19006 0.62474 0.0
C1464 C 0.02203 0.48779 0.48315 0.0
C1465 C 0.01402 0.47436 0.50955 0.0
C1466 C 0.01706 0.49876 0.48085 0.0
C1467 C 0.00412 0.49648 0.50688 0.0
C1468 C 0.99631 0.48316 0.53479 0.0
C1469 C 0.00118 0.47209 0.53509 0.0
C1470 C 0.02538 0.51255 0.44962 0.0
C1471 C 0.98281 0.48059 0.56423 0.0
C1472 C 0.00039 0.53214 0.52946 0.0
C1473 C 0.98829 0.52967 0.50018 0.0
C1474 C 0.00546 0.52127 0.53262 0.0
C1475 C 0.99865 0.50794 0.50455 0.0
C1476 C 0.98662 0.50558 0.47421 0.0
C1477 C 0.98136 0.51634 0.47305 0.0
C1478 C 0.01792 0.52392 0.56649 0.0
C1479 C 0.97942 0.49177 0.4427 0.0
H1480 H 0.03184 0.48942 0.46293 0.0
H1481 H 0.99502 0.4617 0.5556 0.0
H1482 H 0.01703 0.51256 0.42474 0.0
H1483 H 0.03016 0.52355 0.46905 0.0
H1484 H 0.03506 0.51246 0.43105 0.0
H1485 H 0.97866 0.47017 0.58612 0.0
H1486 H 0.98625 0.49092 0.58595 0.0
H1487 H 0.97298 0.47911 0.5429 0.0
H1488 H 0.0056 0.54238 0.55083 0.0
H1489 H 0.97204 0.51452 0.45027 0.0
H1490 H 0.02828 0.52501 0.5489 0.0
H1491 H 0.0136 0.51378 0.58954 0.0
H1492 H 0.02159 0.53458 0.587 0.0
H1493 H 0.98862 0.49153 0.42201 0.0
H1494 H 0.9707 0.49202 0.41974 0.0
H1495 H 0.97365 0.48081 0.4624 0.0
C1496 C 0.473 0.46924 0.46393 0.0
C1497 C 0.47536 0.45864 0.489 0.0
C1498 C 0.48392 0.48522 0.46501 0.0
C1499 C 0.49716 0.49073 0.49322 0.0
C1500 C 0.49959 0.48002 0.51854 0.0
C1501 C 0.48877 0.46405 0.51549 0.0
C1502 C 0.48119 0.49622 0.43634 0.0
C1503 C 0.51329 0.48547 0.55008 0.0
C1504 C 0.532 0.531 0.47388 0.0
C1505 C 0.52883 0.54004 0.50362 0.0
C1506 C 0.52169 0.51494 0.46971 0.0
C1507 C 0.50823 0.50772 0.49722 0.0
C1508 C 0.50524 0.51678 0.52826 0.0
C1509 C 0.51544 0.53291 0.53042 0.0
C1510 C 0.52499 0.50579 0.43513 0.0
C1511 C 0.4913 0.50943 0.55923 0.0
H1512 H 0.46264 0.46502 0.44333 0.0
H1513 H 0.49047 0.45584 0.53536 0.0
H1514 H 0.47919 0.5041 0.45828 0.0
H1515 H 0.49164 0.5036 0.41557 0.0
H1516 H 0.47101 0.48995 0.41358 0.0
H1517 H 0.51351 0.47563 0.56731 0.0
H1518 H 0.52434 0.49228 0.53127 0.0
H1519 H 0.51284 0.49328 0.57609 0.0
H1520 H 0.54229 0.53659 0.45276 0.0
H1521 H 0.51307 0.53995 0.55355 0.0
H1522 H 0.51513 0.50013 0.4111 0.0
H1523 H 0.52612 0.49641 0.45188 0.0
H1524 H 0.53582 0.51322 0.41578 0.0
H1525 H 0.48043 0.50429 0.53909 0.0
H1526 H 0.49117 0.51795 0.58332 0.0
H1527 H 0.49122 0.49983 0.57869 0.0
C1528 C 0.53366 0.0212 0.47576 0.0
C1529 C 0.53967 0.01393 0.50302 0.0
C1530 C 0.51769 0.01628 0.47643 0.0
C1531 C 0.50772 0.00423 0.50631 0.0
C1532 C 0.5139 0.99724 0.53494 0.0
C1533 C 0.52976 0.00198 0.53232 0.0
C1534 C 0.51144 0.02366 0.44438 0.0
C1535 C 0.50376 0.98472 0.56827 0.0
C1536 C 0.46839 4e-05 0.53425 0.0
C1537 C 0.45836 0.98693 0.50871 0.0
C1538 C 0.48451 0.00575 0.53418 0.0
C1539 C 0.49071 0.9985 0.50659 0.0
C1540 C 0.48061 0.98545 0.47999 0.0
C1541 C 0.46452 0.97966 0.48201 0.0
C1542 C 0.49487 0.01935 0.56414 0.0
C1543 C 0.4868 0.97768 0.44912 0.0
H1544 H 0.54136 0.0304 0.453 0.0
H1545 H 0.53449 0.99651 0.55383 0.0
H1546 H 0.5026 0.01462 0.42186 0.0
H1547 H 0.50556 0.02887 0.46347 0.0
H1548 H 0.52073 0.03285 0.42322 0.0
H1549 H 0.5106 0.98131 0.59039 0.0
H1550 H 0.49736 0.9888 0.58978 0.0
H1551 H 0.49497 0.97423 0.54999 0.0
H1552 H 0.46359 0.00563 0.55496 0.0
H1553 H 0.45676 0.96964 0.46175 0.0
H1554 H 0.50359 0.02917 0.54348 0.0
H1555 H 0.50137 0.01597 0.58768 0.0
H1556 H 0.48818 0.02349 0.58419 0.0
H1557 H 0.49564 0.9864 0.42593 0.0
H1558 H 0.47746 0.96825 0.42867 0.0
H1559 H 0.49263 0.97264 0.46924 0.0
C1560 C 0.4675 0.99861 0.03105 0.0
C1561 C 0.47004 0.0106 1.00116 0.0
C1562 C 0.47837 0.99358 0.03524 0.0
C1563 C 0.49181 0.00032 0.00761 0.0
C1564 C 0.4943 0.01228 0.97681 0.0
C1565 C 0.4835 0.0175 0.97459 0.0
C1566 C 0.47556 0.98119 0.06954 0.0
C1567 C 0.50823 0.0194 0.94579 0.0
C1568 C 0.52727 0.99736 0.04035 0.0
C1569 C 0.52493 0.9844 0.01531 0.0
C1570 C 0.51637 0.00245 0.03906 0.0
C1571 C 0.50317 0.99473 0.01068 0.0
C1572 C 0.50084 0.98167 0.98512 0.0
C1573 C 0.51162 0.97649 0.98839 0.0
C1574 C 0.51898 0.01607 0.06801 0.0
C1575 C 0.48717 0.97342 0.95344 0.0
H1576 H 0.45716 0.99342 0.05201 0.0
H1577 H 0.48539 0.02672 0.95134 0.0
H1578 H 0.47437 0.97073 0.05232 0.0
H1579 H 0.48567 0.98548 0.0927 0.0
H1580 H 0.46492 0.97769 0.0899 0.0
H1581 H 0.50817 0.0282 0.92272 0.0
H1582 H 0.51911 0.02506 0.96586 0.0
H1583 H 0.50844 0.01016 0.92522 0.0
H1584 H 0.53757 0.00344 0.06124 0.0
H1585 H 0.50995 0.96659 0.9685 0.0
H1586 H 0.50862 0.01276 0.08946 0.0
H1587 H 0.52058 0.02587 0.04633 0.0
H1588 H 0.52934 0.02021 0.09014 0.0
H1589 H 0.47611 0.96871 0.97248 0.0
H1590 H 0.48726 0.9637 0.9351 0.0
H1591 H 0.48732 0.9818 0.92836 0.0
C1592 C 0.01598 0.53324 0.03429 0.0
C1593 C 0.00939 0.54036 0.00879 0.0
C1594 C 0.01004 0.51711 0.03186 0.0
C1595 C 0.99764 0.50804 1.00183 0.0
C1596 C 0.99104 0.51524 0.97574 0.0
C1597 C 0.99682 0.53129 0.98018 0.0
C1598 C 0.01704 0.50978 0.06134 0.0
C1599 C 0.97819 0.50607 0.94223 0.0
C1600 C 0.99443 0.46978 0.96599 0.0
C1601 C 0.98181 0.45906 0.99195 0.0
C1602 C 0.99932 0.48572 0.96756 0.0
C1603 C 0.99179 0.49107 0.99721 0.0
C1604 C 0.979 0.48023 0.02341 0.0
C1605 C 0.97398 0.4643 0.01982 0.0
C1606 C 0.01265 0.49684 0.93791 0.0
C1607 C 0.97101 0.48551 0.05649 0.0
H1608 H 0.02567 0.54028 0.05655 0.0
H1609 H 0.99188 0.53687 0.96003 0.0
H1610 H 0.00778 0.50008 0.08117 0.0
H1611 H 0.02265 0.50479 0.04005 0.0
H1612 H 0.02587 0.51828 0.08505 0.0
H1613 H 0.97445 0.51346 0.92417 0.0
H1614 H 0.98219 0.50056 0.91701 0.0
H1615 H 0.96795 0.49657 0.95964 0.0
H1616 H 0.00044 0.46568 0.94435 0.0
H1617 H 0.96435 0.45599 0.04036 0.0
H1618 H 0.02277 0.50471 0.9591 0.0
H1619 H 0.00927 0.50422 0.9183 0.0
H1620 H 0.01634 0.49067 0.91401 0.0
H1621 H 0.97951 0.49327 0.08212 0.0
H1622 H 0.96117 0.47559 0.07412 0.0
H1623 H 0.96654 0.49234 0.03888 0.0
C1624 C 0.46641 0.48596 0.02999 0.0
C1625 C 0.46019 0.47258 0.00311 0.0
C1626 C 0.48239 0.49692 0.02867 0.0
C1627 C 0.49217 0.49468 0.99845 0.0
C1628 C 0.48582 0.48131 0.97055 0.0
C1629 C 0.46994 0.47027 0.97385 0.0
C1630 C 0.48883 0.51076 0.05999 0.0
C1631 C 0.49574 0.47877 0.93682 0.0
C1632 C 0.53048 0.53053 0.96725 0.0
C1633 C 0.54109 0.52829 0.99268 0.0
C1634 C 0.51454 0.51949 0.96798 0.0
C1635 C 0.50908 0.50625 0.99621 0.0
C1636 C 0.51978 0.50404 0.02228 0.0
C1637 C 0.53572 0.51497 0.01955 0.0
C1638 C 0.50356 0.52196 0.93848 0.0
C1639 C 0.51437 0.49034 0.05383 0.0
H1640 H 0.45884 0.48766 0.05275 0.0
H1641 H 0.46505 0.45999 0.95264 0.0
H1642 H 0.49825 0.5111 0.08101 0.0
H1643 H 0.49402 0.5217 0.04015 0.0
H1644 H 0.47978 0.51049 0.08263 0.0
H1645 H 0.48884 0.46812 0.9162 0.0
H1646 H 0.50156 0.48894 0.91387 0.0
H1647 H 0.50501 0.47772 0.95458 0.0
H1648 H 0.53469 0.54084 0.94639 0.0
H1649 H 0.54394 0.51338 0.0397 0.0
H1650 H 0.49511 0.5233 0.95973 0.0
H1651 H 0.49678 0.51163 0.91664 0.0
H1652 H 0.50978 0.53242 0.9167 0.0
H1653 H 0.50588 0.49027 0.07837 0.0
H1654 H 0.52414 0.49059 0.0728 0.0
H1655 H 0.50831 0.4793 0.03456 0.0
C1656 C 0.42495 0.06472 0.01648 0.0
C1657 C 0.4205 0.04985 0.03298 0.0
C1658 C 0.41847 0.07335 0.03451 0.0
C1659 C 0.40778 0.06713 0.07087 0.0
C1660 C 0.40367 0.0523 0.08841 0.0
C1661 C 0.40988 0.04375 0.06876 0.0
C1662 C 0.42275 0.08891 0.01404 0.0
C1663 C 0.39267 0.04541 0.1279 0.0
C1664 C 0.39916 0.09351 0.14396 0.0
C1665 C 0.38426 0.08955 0.12885 0.0
C1666 C 0.4071 0.08643 0.12509 0.0
C1667 C 0.40017 0.07563 0.08927 0.0
C1668 C 0.38536 0.07209 0.0729 0.0
C1669 C 0.37749 0.07889 0.09341 0.0
C1670 C 0.42266 0.09013 0.14435 0.0
C1671 C 0.37774 0.06098 0.034 0.0
H1672 H 0.4332 0.06944 0.98891 0.0
H1673 H 0.40667 0.03236 0.08218 0.0
H1674 H 0.41215 0.08857 1.0005 0.0
H1675 H 0.42763 0.09812 0.04023 0.0
H1676 H 0.43136 0.0922 0.98632 0.0
H1677 H 0.39167 0.03432 0.13977 0.0
H1678 H 0.39669 0.05377 0.15644 0.0
H1679 H 0.38092 0.04313 0.11818 0.0
H1680 H 0.40439 0.1018 0.17128 0.0
H1681 H 0.36608 0.07605 0.08109 0.0
H1682 H 0.43158 0.0943 0.11734 0.0
H1683 H 0.42184 0.07941 0.15865 0.0
H1684 H 0.42666 0.09911 0.17128 0.0
H1685 H 0.38588 0.06439 0.00503 0.0
H1686 H 0.3669 0.06063 0.0226 0.0
H1687 H 0.37481 0.04906 0.04419 0.0
C1688 C 0.90796 0.30619 0.15028 0.0
C1689 C 0.91228 0.29562 0.13422 0.0
C1690 C 0.91463 0.32129 0.13212 0.0
C1691 C 0.92539 0.32562 0.09602 0.0
C1692 C 0.92948 0.3148 0.07911 0.0
C1693 C 0.92308 0.30004 0.09891 0.0
C1694 C 0.91038 0.33268 0.15196 0.0
C1695 C 0.94056 0.31877 0.03988 0.0
C1696 C 0.93349 0.36024 0.02194 0.0
C1697 C 0.94829 0.37143 0.03706 0.0
C1698 C 0.92582 0.34523 0.04089 0.0
C1699 C 0.93291 0.34161 0.07684 0.0
C1700 C 0.94766 0.35309 0.09303 0.0
C1701 C 0.95528 0.36776 0.07242 0.0
C1702 C 0.91033 0.33315 0.02179 0.0
C1703 C 0.95543 0.34987 0.13209 0.0
H1704 H 0.89958 0.30274 0.1775 0.0
H1705 H 0.92621 0.29177 0.08584 0.0
H1706 H 0.92101 0.34311 0.16458 0.0
H1707 H 0.90526 0.33669 0.12558 0.0
H1708 H 0.90195 0.32755 0.1802 0.0
H1709 H 0.9417 0.30868 0.02886 0.0
H1710 H 0.9365 0.32285 0.01081 0.0
H1711 H 0.95225 0.3284 0.04939 0.0
H1712 H 0.9281 0.36312 0.99466 0.0
H1713 H 0.96661 0.37652 0.08472 0.0
H1714 H 0.90137 0.3286 0.04868 0.0
H1715 H 0.91123 0.32315 0.00863 0.0
H1716 H 0.90634 0.33785 0.99407 0.0
H1717 H 0.94737 0.34532 0.1613 0.0
H1718 H 0.96629 0.36044 0.14295 0.0
H1719 H 0.95833 0.34082 0.12242 0.0
C1720 C 0.69363 0.60282 0.14936 0.0
C1721 C 0.70455 0.61779 0.13472 0.0
C1722 C 0.6786 0.59495 0.13059 0.0
C1723 C 0.67471 0.60203 0.09529 0.0
C1724 C 0.68588 0.617 0.07971 0.0
C1725 C 0.70056 0.6248 0.10014 0.0
C1726 C 0.66683 0.57921 0.14903 0.0
C1727 C 0.68236 0.62479 0.04132 0.0
C1728 C 0.63995 0.57683 0.02007 0.0
C1729 C 0.629 0.58064 0.03605 0.0
C1730 C 0.65495 0.58373 0.03895 0.0
C1731 C 0.65877 0.59417 0.07572 0.0
C1732 C 0.64754 0.59767 0.09268 0.0
C1733 C 0.63289 0.59108 0.07209 0.0
C1734 C 0.66679 0.58012 0.01901 0.0
C1735 C 0.65097 0.60836 0.13264 0.0
H1736 H 0.69674 0.59741 0.17605 0.0
H1737 H 0.70912 0.63628 0.0882 0.0
H1738 H 0.65656 0.57963 0.16205 0.0
H1739 H 0.66265 0.57037 0.12178 0.0
H1740 H 0.67167 0.57535 0.17669 0.0
H1741 H 0.69269 0.63596 0.03116 0.0
H1742 H 0.67815 0.61695 0.01156 0.0
H1743 H 0.67296 0.62714 0.05131 0.0
H1744 H 0.63689 0.56872 0.99224 0.0
H1745 H 0.6243 0.5938 0.08501 0.0
H1746 H 0.67102 0.57515 0.04519 0.0
H1747 H 0.67701 0.59102 0.00684 0.0
H1748 H 0.66198 0.57179 0.99042 0.0
H1749 H 0.65524 0.60435 0.1614 0.0
H1750 H 0.64058 0.60893 0.14379 0.0
H1751 H 0.6603 0.62029 0.12387 0.0
C1752 C 0.06364 0.42533 0.47833 0.0
C1753 C 0.04867 0.42127 0.46357 0.0
C1754 C 0.07156 0.41822 0.45953 0.0
C1755 C 0.06453 0.40727 0.42411 0.0
C1756 C 0.04961 0.40355 0.40824 0.0
C1757 C 0.04177 0.41039 0.42869 0.0
C1758 C 0.08723 0.42211 0.4783 0.0
C1759 C 0.04189 0.39227 0.36975 0.0
C1760 C 0.0896 0.39693 0.35074 0.0
C1761 C 0.08555 0.38218 0.36746 0.0
C1762 C 0.08284 0.40529 0.36875 0.0
C1763 C 0.07227 0.39895 0.40533 0.0
C1764 C 0.06852 0.38424 0.42302 0.0
C1765 C 0.075 0.37593 0.40337 0.0
C1766 C 0.08673 0.42073 0.34812 0.0
C1767 C 0.05767 0.37724 0.46279 0.0
H1768 H 0.06898 0.43378 0.50524 0.0
H1769 H 0.0303 0.40747 0.41664 0.0
H1770 H 0.08664 0.41144 0.49215 0.0
H1771 H 0.09608 0.42648 0.45107 0.0
H1772 H 0.09118 0.43101 0.50543 0.0
H1773 H 0.03087 0.39165 0.35896 0.0
H1774 H 0.04986 0.39575 0.34035 0.0
H1775 H 0.03927 0.38046 0.38003 0.0
H1776 H 0.0978 0.40177 0.32305 0.0
H1777 H 0.07209 0.36464 0.41694 0.0
H1778 H 0.0917 0.43002 0.37406 0.0
H1779 H 0.07596 0.42018 0.3353 0.0
H1780 H 0.09516 0.42405 0.31986 0.0
H1781 H 0.06169 0.38561 0.4913 0.0
H1782 H 0.05687 0.36623 0.47452 0.0
H1783 H 0.04584 0.37481 0.45348 0.0
C1784 C 0.59712 0.70035 0.39982 0.0
C1785 C 0.6085 0.70356 0.36697 0.0
C1786 C 0.58929 0.68576 0.42105 0.0
C1787 C 0.59252 0.67395 0.40787 0.0
C1788 C 0.60344 0.67692 0.37301 0.0
C1789 C 0.61155 0.69181 0.35364 0.0
C1790 C 0.57814 0.68325 0.45908 0.0
C1791 C 0.60682 0.66447 0.3569 0.0
C1792 C 0.58643 0.64132 0.48724 0.0
C1793 C 0.57204 0.62916 0.47268 0.0
C1794 C 0.59287 0.65619 0.46789 0.0
C1795 C 0.58503 0.65872 0.43179 0.0
C1796 C 0.57037 0.64649 0.41741 0.0
C1797 C 0.56391 0.63192 0.43865 0.0
C1798 C 0.60825 0.66908 0.48531 0.0
C1799 C 0.5619 0.64855 0.37805 0.0
H1800 H 0.59496 0.70954 0.4107 0.0
H1801 H 0.62037 0.69433 0.32826 0.0
H1802 H 0.56664 0.67285 0.4524 0.0
H1803 H 0.58262 0.68103 0.49088 0.0
H1804 H 0.57651 0.69343 0.46421 0.0
H1805 H 0.6144 0.66816 0.32654 0.0
H1806 H 0.61269 0.66162 0.38404 0.0
H1807 H 0.59581 0.65365 0.34881 0.0
H1808 H 0.59271 0.63913 0.51347 0.0
H1809 H 0.55291 0.6224 0.42681 0.0
H1810 H 0.60746 0.67964 0.49248 0.0
H1811 H 0.61737 0.67224 0.45925 0.0
H1812 H 0.612 0.66566 0.51651 0.0
H1813 H 0.56026 0.65868 0.38373 0.0
H1814 H 0.55034 0.63808 0.37216 0.0
H1815 H 0.569 0.65096 0.34701 0.0
C1816 C 0.29863 0.89945 0.39451 0.0
C1817 C 0.29561 0.90754 0.36094 0.0
C1818 C 0.31314 0.9062 0.41619 0.0
C1819 C 0.32506 0.92115 0.40275 0.0
C1820 C 0.32227 0.92905 0.36734 0.0
C1821 C 0.30744 0.92228 0.3475 0.0
C1822 C 0.31547 0.89764 0.45479 0.0
C1823 C 0.33484 0.94477 0.35096 0.0
C1824 C 0.35777 0.94727 0.48255 0.0
C1825 C 0.36969 0.94457 0.46865 0.0
C1826 C 0.34297 0.93923 0.46261 0.0
C1827 C 0.34028 0.92876 0.42664 0.0
C1828 C 0.3523 0.92594 0.41274 0.0
C1829 C 0.36678 0.93367 0.43452 0.0
C1830 C 0.33029 0.94215 0.47949 0.0
C1831 C 0.35008 0.91529 0.37355 0.0
H1832 H 0.28938 0.88815 0.40546 0.0
H1833 H 0.30507 0.92852 0.32158 0.0
H1834 H 0.32565 0.89615 0.44823 0.0
H1835 H 0.31794 0.90458 0.48619 0.0
H1836 H 0.30511 0.88599 0.46057 0.0
H1837 H 0.33124 0.94868 0.32047 0.0
H1838 H 0.33783 0.95357 0.37791 0.0
H1839 H 0.34557 0.94438 0.34296 0.0
H1840 H 0.36006 0.95574 0.5089 0.0
H1841 H 0.37612 0.9318 0.42321 0.0
H1842 H 0.31962 0.93094 0.48712 0.0
H1843 H 0.32725 0.94805 0.45294 0.0
H1844 H 0.33384 0.94951 0.5103 0.0
H1845 H 0.33995 0.90354 0.37968 0.0
H1846 H 0.3605 0.91413 0.36744 0.0
H1847 H 0.34756 0.91988 0.34248 0.0
C1848 C 0.57361 0.93423 0.9839 0.0
C1849 C 0.57746 0.94914 0.96907 0.0
C1850 C 0.58082 0.92644 0.96493 0.0
C1851 C 0.59164 0.93352 0.92925 0.0
C1852 C 0.59513 0.94836 0.91326 0.0
C1853 C 0.58821 0.95609 0.93391 0.0
C1854 C 0.57718 0.91085 0.98382 0.0
C1855 C 0.60624 0.95612 0.87446 0.0
C1856 C 0.62327 0.92355 0.90722 0.0
C1857 C 0.61698 0.91294 0.87146 0.0
C1858 C 0.61489 0.92987 0.9273 0.0
C1859 C 0.60005 0.92591 0.91017 0.0
C1860 C 0.59366 0.91528 0.87374 0.0
C1861 C 0.60211 0.90867 0.85531 0.0
C1862 C 0.62193 0.94079 0.9669 0.0
C1863 C 0.57809 0.91116 0.85366 0.0
H1864 H 0.56527 0.92887 0.01104 0.0
H1865 H 0.59097 0.96751 0.92184 0.0
H1866 H 0.57284 0.90195 0.95671 0.0
H1867 H 0.58796 0.91161 0.99742 0.0
H1868 H 0.56836 0.90684 0.01117 0.0
H1869 H 0.60666 0.96705 0.86362 0.0
H1870 H 0.61814 0.95892 0.88442 0.0
H1871 H 0.60277 0.9481 0.84516 0.0
H1872 H 0.63466 0.92662 0.92032 0.0
H1873 H 0.59725 0.90043 0.82772 0.0
H1874 H 0.61367 0.93673 0.99566 0.0
H1875 H 0.62421 0.95258 0.95758 0.0
H1876 H 0.63304 0.94173 0.97827 0.0
H1877 H 0.56892 0.90616 0.87993 0.0
H1878 H 0.57474 0.90269 0.82552 0.0
H1879 H 0.57845 0.92185 0.84084 0.0
C1880 C 0.10158 0.70042 0.90047 0.0
C1881 C 0.09348 0.70332 0.86667 0.0
C1882 C 0.09489 0.68594 0.92232 0.0
C1883 C 0.07999 0.67392 0.90885 0.0
C1884 C 0.07212 0.67658 0.87308 0.0
C1885 C 0.07883 0.69137 0.85305 0.0
C1886 C 0.10342 0.68376 0.96127 0.0
C1887 C 0.05645 0.66391 0.85666 0.0
C1888 C 0.06674 0.63209 0.9419 0.0
C1889 C 0.05563 0.62939 0.97516 0.0
C1890 C 0.07491 0.6466 0.92028 0.0
C1891 C 0.07228 0.65881 0.93343 0.0
C1892 C 0.06168 0.65636 0.96881 0.0
C1893 C 0.05323 0.64156 0.9886 0.0
C1894 C 0.08571 0.64858 0.88176 0.0
C1895 C 0.05894 0.66923 0.98493 0.0
H1896 H 0.11281 0.70977 0.91156 0.0
H1897 H 0.07257 0.69364 0.82692 0.0
H1898 H 0.09658 0.68168 0.99271 0.0
H1899 H 0.10468 0.67339 0.95566 0.0
H1900 H 0.11517 0.69404 0.96643 0.0
H1901 H 0.05264 0.66736 0.82568 0.0
H1902 H 0.05685 0.65313 0.84949 0.0
H1903 H 0.04758 0.66108 0.88329 0.0
H1904 H 0.06838 0.62258 0.93094 0.0
H1905 H 0.0446 0.63943 0.01427 0.0
H1906 H 0.09738 0.65884 0.88758 0.0
H1907 H 0.08113 0.65072 0.85005 0.0
H1908 H 0.087 0.63817 0.87699 0.0
H1909 H 0.0702 0.67989 0.99221 0.0
H1910 H 0.05161 0.66591 0.01577 0.0
H1911 H 0.05308 0.6722 0.95809 0.0
C1912 C 0.36718 0.41176 0.93054 0.0
C1913 C 0.37168 0.42252 0.96595 0.0
C1914 C 0.35238 0.40536 0.91105 0.0
C1915 C 0.3416 0.40944 0.92838 0.0
C1916 C 0.34607 0.4203 0.96426 0.0
C1917 C 0.3612 0.42695 0.98213 0.0
C1918 C 0.34825 0.39416 0.87208 0.0
C1919 C 0.33474 0.42456 0.98451 0.0
C1920 C 0.30603 0.39993 0.8568 0.0
C1921 C 0.29527 0.38515 0.87313 0.0
C1922 C 0.3212 0.4081 0.87462 0.0
C1923 C 0.32541 0.40151 0.9106 0.0
C1924 C 0.31435 0.3868 0.92809 0.0
C1925 C 0.29952 0.3787 0.90865 0.0
C1926 C 0.33283 0.42355 0.85422 0.0
C1927 C 0.31819 0.37954 0.96719 0.0
H1928 H 0.37538 0.40855 0.91738 0.0
H1929 H 0.36472 0.43532 0.00943 0.0
H1930 H 0.33894 0.3824 0.88243 0.0
H1931 H 0.34368 0.3979 0.84344 0.0
H1932 H 0.35839 0.39327 0.86011 0.0
H1933 H 0.34012 0.43344 0.01159 0.0
H1934 H 0.33018 0.42911 0.95803 0.0
H1935 H 0.32465 0.41401 0.99887 0.0
H1936 H 0.30271 0.40492 0.82941 0.0
H1937 H 0.29109 0.36738 0.92192 0.0
H1938 H 0.34274 0.42275 0.83993 0.0
H1939 H 0.33761 0.43269 0.88059 0.0
H1940 H 0.32764 0.42722 0.82706 0.0
H1941 H 0.32728 0.37675 0.95692 0.0
H1942 H 0.30788 0.36867 0.97925 0.0
H1943 H 0.32295 0.38787 0.99574 0.0
C1944 C 0.91462 0.61758 0.5931 0.0
C1945 C 0.90711 0.61264 0.63483 0.0
C1946 C 0.92125 0.60965 0.572 0.0
C1947 C 0.92083 0.59679 0.59399 0.0
C1948 C 0.91296 0.59155 0.63587 0.0
C1949 C 0.90592 0.59942 0.65551 0.0
C1950 C 0.92912 0.61536 0.52681 0.0
C1951 C 0.91262 0.57813 0.66086 0.0
C1952 C 0.93184 0.571 0.52668 0.0
C1953 C 0.94777 0.57796 0.53618 0.0
C1954 C 0.92283 0.57695 0.54531 0.0
C1955 C 0.92988 0.58986 0.57501 0.0
C1956 C 0.94591 0.59674 0.58516 0.0
C1957 C 0.95468 0.59084 0.5652 0.0
C1958 C 0.90586 0.56959 0.53278 0.0
C1959 C 0.95383 0.61035 0.61726 0.0
H1960 H 0.9153 0.62771 0.57689 0.0
H1961 H 0.90008 0.59566 0.68781 0.0
H1962 H 0.94187 0.62051 0.53074 0.0
H1963 H 0.92508 0.60552 0.50277 0.0
H1964 H 0.92683 0.62431 0.51194 0.0
H1965 H 0.90521 0.57487 0.69152 0.0
H1966 H 0.90826 0.56781 0.63857 0.0
H1967 H 0.92462 0.58135 0.67111 0.0
H1968 H 0.92646 0.56101 0.50437 0.0
H1969 H 0.96694 0.59611 0.5733 0.0
H1970 H 0.90366 0.57836 0.5164 0.0
H1971 H 0.89854 0.56551 0.56355 0.0
H1972 H 0.90212 0.55957 0.50946 0.0
H1973 H 0.95357 0.62057 0.60314 0.0
H1974 H 0.96614 0.61371 0.62379 0.0
H1975 H 0.94752 0.60744 0.64991 0.0
C1976 C 0.42648 0.36 0.52243 0.0
C1977 C 0.42262 0.37106 0.53714 0.0
C1978 C 0.4194 0.34506 0.54185 0.0
C1979 C 0.40872 0.34141 0.57785 0.0
C1980 C 0.40522 0.35277 0.59368 0.0
C1981 C 0.412 0.36735 0.57259 0.0
C1982 C 0.42303 0.33309 0.52311 0.0
C1983 C 0.39424 0.34952 0.63278 0.0
C1984 C 0.37726 0.29986 0.60113 0.0
C1985 C 0.38367 0.29569 0.63692 0.0
C1986 C 0.38555 0.3145 0.58064 0.0
C1987 C 0.40043 0.32545 0.59734 0.0
C1988 C 0.40695 0.32135 0.63372 0.0
C1989 C 0.39858 0.30635 0.65259 0.0
C1990 C 0.37835 0.31822 0.54112 0.0
C1991 C 0.42257 0.3329 0.65332 0.0
H1992 H 0.43473 0.36291 0.49507 0.0
H1993 H 0.40925 0.37603 0.58457 0.0
H1994 H 0.42751 0.32866 0.5502 0.0
H1995 H 0.41223 0.323 0.50991 0.0
H1996 H 0.43176 0.33784 0.49548 0.0
H1997 H 0.39382 0.36004 0.64346 0.0
H1998 H 0.38232 0.34036 0.62323 0.0
H1999 H 0.39784 0.34509 0.66207 0.0
H2000 H 0.36583 0.29149 0.58841 0.0
H2001 H 0.40353 0.30308 0.68021 0.0
H2002 H 0.38653 0.3224 0.51216 0.0
H2003 H 0.37604 0.32771 0.55038 0.0
H2004 H 0.36724 0.30799 0.53006 0.0
H2005 H 0.43165 0.33705 0.62678 0.0
H2006 H 0.42605 0.32786 0.68138 0.0
H2007 H 0.42219 0.34322 0.66613 0.0
C2008 C 0.63211 0.04328 0.57523 0.0
C2009 C 0.62794 0.05003 0.54039 0.0
C2010 C 0.64687 0.05124 0.59516 0.0
C2011 C 0.65792 0.06615 0.57889 0.0
C2012 C 0.6538 0.07304 0.54355 0.0
C2013 C 0.63871 0.06499 0.5252 0.0
C2014 C 0.65063 0.04364 0.63354 0.0
C2015 C 0.66544 0.08871 0.52443 0.0
C2016 C 0.69333 0.09124 0.65217 0.0
C2017 C 0.70402 0.08717 0.63546 0.0
C2018 C 0.67823 0.08453 0.63402 0.0
C2019 C 0.67403 0.07401 0.59731 0.0
C2020 C 0.685 0.07028 0.57957 0.0
C2021 C 0.69975 0.0767 0.59935 0.0
C2022 C 0.66668 0.0884 0.65472 0.0
C2023 C 0.68115 0.05946 0.53971 0.0
H2024 H 0.62368 0.03182 0.58765 0.0
H2025 H 0.63545 0.07021 0.49835 0.0
H2026 H 0.65986 0.0411 0.623 0.0
H2027 H 0.65516 0.05166 0.66284 0.0
H2028 H 0.64033 0.03259 0.64461 0.0
H2029 H 0.66034 0.09256 0.49746 0.0
H2030 H 0.66997 0.09761 0.55153 0.0
H2031 H 0.67551 0.08818 0.51026 0.0
H2032 H 0.69667 0.09938 0.68 0.0
H2033 H 0.70813 0.07379 0.58578 0.0
H2034 H 0.65654 0.07763 0.66791 0.0
H2035 H 0.66223 0.09323 0.62874 0.0
H2036 H 0.67182 0.09692 0.68274 0.0
H2037 H 0.67185 0.04759 0.54908 0.0
H2038 H 0.6914 0.05878 0.52773 0.0
H2039 H 0.67669 0.06343 0.51136 0.0
C2040 C 0.72987 0.75837 0.81764 0.0
C2041 C 0.71447 0.75306 0.80435 0.0
C2042 C 0.73837 0.7518 0.79936 0.0
C2043 C 0.73144 0.74005 0.76596 0.0
C2044 C 0.71598 0.73488 0.75192 0.0
C2045 C 0.70761 0.74127 0.7718 0.0
C2046 C 0.75465 0.75725 0.81619 0.0
C2047 C 0.70829 0.72268 0.71561 0.0
C2048 C 0.75714 0.73152 0.68955 0.0
C2049 C 0.75455 0.71735 0.70726 0.0
C2050 C 0.74971 0.73913 0.70836 0.0
C2051 C 0.74004 0.73267 0.74675 0.0
C2052 C 0.7379 0.71863 0.76561 0.0
C2053 C 0.74496 0.711 0.74511 0.0
C2054 C 0.75187 0.75382 0.68648 0.0
C2055 C 0.7281 0.71161 0.80732 0.0
H2056 H 0.73519 0.76751 0.84273 0.0
H2057 H 0.69579 0.73734 0.76084 0.0
H2058 H 0.75536 0.74725 0.83024 0.0
H2059 H 0.76304 0.76201 0.78783 0.0
H2060 H 0.75828 0.76634 0.84266 0.0
H2061 H 0.69656 0.72066 0.70657 0.0
H2062 H 0.71562 0.72625 0.6848 0.0
H2063 H 0.70711 0.7115 0.72713 0.0
H2064 H 0.76459 0.7364 0.66029 0.0
H2065 H 0.7432 0.70016 0.75928 0.0
H2066 H 0.75651 0.76346 0.71131 0.0
H2067 H 0.74044 0.752 0.6749 0.0
H2068 H 0.75989 0.75741 0.65713 0.0
H2069 H 0.73196 0.72042 0.83462 0.0
H2070 H 0.72873 0.70138 0.81991 0.0
H2071 H 0.71577 0.70785 0.79984 0.0
C2072 C 0.25609 0.96635 0.76141 0.0
C2073 C 0.24539 0.96204 0.79693 0.0
C2074 C 0.2627 0.98116 0.74186 0.0
C2075 C 0.25892 0.99214 0.75924 0.0
C2076 C 0.2482 0.98791 0.79542 0.0
C2077 C 0.24132 0.97276 0.81333 0.0
C2078 C 0.27373 0.98503 0.70253 0.0
C2079 C 0.24427 0.99947 0.81573 0.0
C2080 C 0.28966 0.03407 0.73698 0.0
C2081 C 0.28297 0.03816 0.70176 0.0
C2082 C 0.28167 0.01935 0.75716 0.0
C2083 C 0.26681 0.00823 0.74068 0.0
C2084 C 0.26 0.01227 0.70492 0.0
C2085 C 0.26807 0.02733 0.6864 0.0
C2086 C 0.28916 0.01568 0.79602 0.0
C2087 C 0.2444 0.00057 0.68552 0.0
H2088 H 0.25902 0.95796 0.74807 0.0
H2089 H 0.233 0.96939 0.84072 0.0
H2090 H 0.26987 0.98945 0.6738 0.0
H2091 H 0.28553 0.99437 0.71227 0.0
H2092 H 0.27452 0.9748 0.69093 0.0
H2093 H 0.23569 0.99434 0.84364 0.0
H2094 H 0.25499 0.00964 0.82896 0.0
H2095 H 0.23946 0.00386 0.7895 0.0
H2096 H 0.30108 0.04256 0.74949 0.0
H2097 H 0.26289 0.03053 0.65924 0.0
H2098 H 0.29178 0.00647 0.78592 0.0
H2099 H 0.28104 0.01116 0.82509 0.0
H2100 H 0.30014 0.02603 0.80724 0.0
H2101 H 0.24501 0.99048 0.67176 0.0
H2102 H 0.24062 0.0056 0.65818 0.0
H2103 H 0.23542 0.99606 0.71237 0.0
C2104 C 0.02466 0.28015 0.81805 0.0
C2105 C 0.03656 0.27744 0.80406 0.0
C2106 C 0.00981 0.27205 0.79839 0.0
C2107 C 0.00706 0.2615 0.76261 0.0
C2108 C 0.01905 0.25864 0.74867 0.0
C2109 C 0.03359 0.26645 0.77016 0.0
C2110 C 0.99717 0.27501 0.81531 0.0
C2111 C 0.01676 0.24789 0.70969 0.0
C2112 C 0.96531 0.23226 0.73109 0.0
C2113 C 0.96229 0.24034 0.6975 0.0
C2114 C 0.97986 0.23898 0.75254 0.0
C2115 C 0.99181 0.25388 0.73884 0.0
C2116 C 0.98901 0.26176 0.70339 0.0
C2117 C 0.97415 0.25502 0.68378 0.0
C2118 C 0.9822 0.23045 0.7912 0.0
C2119 C 0.00161 0.27742 0.68673 0.0
H2120 H 0.02699 0.28868 0.84424 0.0
H2121 H 0.04291 0.26456 0.75879 0.0
H2122 H 0.99411 0.28089 0.78872 0.0
H2123 H 0.9865 0.26382 0.82309 0.0
H2124 H 0.00076 0.28241 0.84604 0.0
H2125 H 0.02714 0.24666 0.70367 0.0
H2126 H 0.0066 0.23619 0.71597 0.0
H2127 H 0.01427 0.25246 0.67851 0.0
H2128 H 0.95603 0.22101 0.74226 0.0
H2129 H 0.97178 0.26126 0.65783 0.0
H2130 H 0.98469 0.23742 0.82255 0.0
H2131 H 0.99238 0.22895 0.78466 0.0
H2132 H 0.97184 0.2188 0.79706 0.0
H2133 H 0.00465 0.28628 0.71355 0.0
H2134 H 0.99799 0.2813 0.6562 0.0
H2135 H 0.0123 0.27697 0.67873 0.0
C2136 C 0.28737 0.25447 0.24359 0.0
C2137 C 0.28113 0.24425 0.20693 0.0
C2138 C 0.2792 0.26101 0.2637 0.0
C2139 C 0.26464 0.25768 0.24572 0.0
C2140 C 0.25826 0.24734 0.20863 0.0
C2141 C 0.26648 0.24049 0.19015 0.0
C2142 C 0.28622 0.27159 0.304 0.0
C2143 C 0.243 0.24389 0.1877 0.0
C2144 C 0.23876 0.26717 0.31809 0.0
C2145 C 0.24334 0.2823 0.30364 0.0
C2146 C 0.24552 0.25891 0.29938 0.0
C2147 C 0.25666 0.26577 0.26436 0.0
C2148 C 0.26091 0.28087 0.24879 0.0
C2149 C 0.2544 0.28905 0.26916 0.0
C2150 C 0.24107 0.24304 0.31786 0.0
C2151 C 0.27241 0.28845 0.21073 0.0
H2152 H 0.2986 0.25715 0.25712 0.0
H2153 H 0.26167 0.23256 0.16184 0.0
H2154 H 0.28918 0.28361 0.29499 0.0
H2155 H 0.27769 0.26772 0.33206 0.0
H2156 H 0.29694 0.27187 0.31624 0.0
H2157 H 0.23947 0.23535 0.15964 0.0
H2158 H 0.23366 0.23925 0.21353 0.0
H2159 H 0.24398 0.25481 0.17449 0.0
H2160 H 0.23017 0.26196 0.3447 0.0
H2161 H 0.25773 0.30065 0.25736 0.0
H2162 H 0.2515 0.24324 0.33219 0.0
H2163 H 0.23665 0.23428 0.29038 0.0
H2164 H 0.23204 0.23923 0.34456 0.0
H2165 H 0.28407 0.2907 0.22141 0.0
H2166 H 0.27343 0.29966 0.20004 0.0
H2167 H 0.26886 0.28055 0.18115 0.0
C2168 C 0.7202 0.97499 0.32175 0.0
C2169 C 0.72302 0.9631 0.30824 0.0
C2170 C 0.7283 0.98982 0.30197 0.0
C2171 C 0.73896 0.99257 0.26652 0.0
C2172 C 0.74197 0.98062 0.25318 0.0
C2173 C 0.73415 0.9661 0.27481 0.0
C2174 C 0.72518 0.00242 0.31829 0.0
C2175 C 0.75284 0.98291 0.21455 0.0
C2176 C 0.74513 0.02511 0.18654 0.0
C2177 C 0.75973 0.03714 0.20022 0.0
C2178 C 0.73854 0.01032 0.20651 0.0
C2179 C 0.74647 0.00775 0.24231 0.0
C2180 C 0.76129 0.01987 0.25596 0.0
C2181 C 0.76787 0.03435 0.23414 0.0
C2182 C 0.72297 0.99753 0.1899 0.0
C2183 C 0.76986 0.01778 0.29498 0.0
H2184 H 0.71154 0.97263 0.34755 0.0
H2185 H 0.73611 0.95679 0.2638 0.0
H2186 H 0.73631 0.0132 0.32583 0.0
H2187 H 0.71923 0.00528 0.29147 0.0
H2188 H 0.71779 0.99888 0.34903 0.0
H2189 H 0.75428 0.97261 0.20924 0.0
H2190 H 0.74823 0.98514 0.18303 0.0
H2191 H 0.76445 0.99322 0.2207 0.0
H2192 H 0.73884 0.02731 0.16034 0.0
H2193 H 0.77905 0.04376 0.24527 0.0
H2194 H 0.71406 0.99449 0.21654 0.0
H2195 H 0.72357 0.98688 0.18244 0.0
H2196 H 0.71907 0.00097 0.15905 0.0
H2197 H 0.76287 0.01538 0.32624 0.0
H2198 H 0.78146 0.02823 0.30065 0.0
H2199 H 0.77146 0.00764 0.28901 0.0
C2200 C 0.02693 0.75697 0.31959 0.0
C2201 C 0.03759 0.75283 0.30312 0.0
C2202 C 0.01179 0.75015 0.3017 0.0
C2203 C 0.00751 0.73944 0.2655 0.0
C2204 C 0.01844 0.7356 0.24803 0.0
C2205 C 0.03324 0.74214 0.26755 0.0
C2206 C 0.00029 0.75415 0.3221 0.0
C2207 C 0.0145 0.72455 0.20871 0.0
C2208 C 0.96564 0.70856 0.24383 0.0
C2209 C 0.96149 0.71512 0.20837 0.0
C2210 C 0.98035 0.71667 0.26395 0.0
C2211 C 0.99139 0.73151 0.24722 0.0
C2212 C 0.98727 0.73822 0.21137 0.0
C2213 C 0.97222 0.73003 0.19285 0.0
C2214 C 0.9841 0.70927 0.30289 0.0
C2215 C 0.9989 0.75382 0.19178 0.0
H2216 H 0.03034 0.76528 0.347 0.0
H2217 H 0.04159 0.73916 0.25414 0.0
H2218 H 0.99582 0.75887 0.29585 0.0
H2219 H 0.99016 0.74345 0.33565 0.0
H2220 H 0.00549 0.7628 0.34979 0.0
H2221 H 0.02471 0.72375 0.19692 0.0
H2222 H 0.00518 0.71274 0.21858 0.0
H2223 H 0.01002 0.72838 0.18008 0.0
H2224 H 0.95722 0.69713 0.25647 0.0
H2225 H 0.96897 0.7351 0.1655 0.0
H2226 H 0.98872 0.71747 0.33177 0.0
H2227 H 0.99326 0.7066 0.29268 0.0
H2228 H 0.97377 0.69832 0.31443 0.0
H2229 H 0.00352 0.76282 0.2186 0.0
H2230 H 0.99376 0.7576 0.16472 0.0
H2231 H 0.00892 0.7532 0.17757 0.0
C2232 C 0.32651 0.08037 0.01566 0.0
C2233 C 0.33749 0.09431 0.03623 0.0
C2234 C 0.32477 0.07931 0.96856 0.0
C2235 C 0.33406 0.09258 0.94163 0.0
C2236 C 0.34492 0.10676 0.96232 0.0
C2237 C 0.34659 0.10742 0.00935 0.0
C2238 C 0.31318 0.06395 0.94757 0.0
C2239 C 0.35485 0.12122 0.93477 0.0
C2240 C 0.34023 0.08708 0.818 0.0
C2241 C 0.3291 0.08975 0.79711 0.0
C2242 C 0.34191 0.08787 0.86512 0.0
C2243 C 0.33241 0.09166 0.89175 0.0
C2244 C 0.32138 0.09465 0.87074 0.0
C2245 C 0.31978 0.09355 0.8237 0.0
C2246 C 0.3537 0.08445 0.88647 0.0
C2247 C 0.31123 0.09898 0.89795 0.0
H2248 H 0.31954 0.07018 0.03627 0.0
H2249 H 0.35504 0.11825 0.0251 0.0
H2250 H 0.30453 0.06534 0.92744 0.0
H2251 H 0.31924 0.06003 0.92412 0.0
H2252 H 0.30689 0.05473 0.97322 0.0
H2253 H 0.36244 0.13143 0.95618 0.0
H2254 H 0.3623 0.11911 0.91126 0.0
H2255 H 0.34733 0.1241 0.91397 0.0
H2256 H 0.34738 0.08403 0.79762 0.0
H2257 H 0.31121 0.09571 0.8077 0.0
H2258 H 0.34778 0.07454 0.91026 0.0
H2259 H 0.36225 0.09465 0.90628 0.0
H2260 H 0.36009 0.08156 0.86104 0.0
H2261 H 0.30394 0.08945 0.92174 0.0
H2262 H 0.30347 0.10129 0.87632 0.0
H2263 H 0.31859 0.10951 0.91844 0.0
C2264 C 0.92071 0.24792 0.01061 0.0
C2265 C 0.90711 0.24587 0.03131 0.0
C2266 C 0.92177 0.24741 0.9635 0.0
C2267 C 0.90883 0.24456 0.93653 0.0
C2268 C 0.89504 0.24242 0.95722 0.0
C2269 C 0.89438 0.2432 0.00437 0.0
C2270 C 0.93672 0.24989 0.94259 0.0
C2271 C 0.88094 0.23913 0.92959 0.0
C2272 C 0.91576 0.25525 0.81216 0.0
C2273 C 0.91212 0.24095 0.79262 0.0
C2274 C 0.91465 0.2566 0.85902 0.0
C2275 C 0.90957 0.24329 0.88673 0.0
C2276 C 0.90549 0.22876 0.86701 0.0
C2277 C 0.90692 0.22779 0.82026 0.0
C2278 C 0.91924 0.27232 0.879 0.0
C2279 C 0.8998 0.21425 0.89534 0.0
H2280 H 0.93063 0.25012 0.03121 0.0
H2281 H 0.88382 0.24157 0.02015 0.0
H2282 H 0.93452 0.23932 0.9237 0.0
H2283 H 0.94117 0.25963 0.91805 0.0
H2284 H 0.94589 0.25252 0.96819 0.0
H2285 H 0.87117 0.2379 0.95084 0.0
H2286 H 0.88401 0.24865 0.90496 0.0
H2287 H 0.8769 0.22825 0.90999 0.0
H2288 H 0.91984 0.26546 0.79097 0.0
H2289 H 0.90396 0.21667 0.80533 0.0
H2290 H 0.92916 0.27589 0.90252 0.0
H2291 H 0.90946 0.27166 0.89886 0.0
H2292 H 0.92265 0.28146 0.85276 0.0
H2293 H 0.90903 0.21573 0.91928 0.0
H2294 H 0.89646 0.20373 0.87454 0.0
H2295 H 0.88959 0.21229 0.91569 0.0
C2296 C 0.76018 0.65388 0.01286 0.0
C2297 C 0.75652 0.6633 0.03948 0.0
C2298 C 0.76116 0.6554 0.9658 0.0
C2299 C 0.7582 0.66646 0.94482 0.0
C2300 C 0.75457 0.67607 0.97148 0.0
C2301 C 0.75391 0.67447 0.01861 0.0
C2302 C 0.76533 0.64514 0.93854 0.0
C2303 C 0.75118 0.68788 0.95015 0.0
C2304 C 0.77363 0.6804 0.82686 0.0
C2305 C 0.76043 0.67131 0.80031 0.0
C2306 C 0.77311 0.6788 0.87389 0.0
C2307 C 0.75897 0.66801 0.89492 0.0
C2308 C 0.74562 0.65873 0.86832 0.0
C2309 C 0.74654 0.6604 0.8212 0.0
C2310 C 0.78766 0.6887 0.90107 0.0
C2311 C 0.7303 0.64722 0.8897 0.0
H2312 H 0.76229 0.64528 0.02885 0.0
H2313 H 0.75096 0.68169 0.03903 0.0
H2314 H 0.75571 0.63782 0.91503 0.0
H2315 H 0.77581 0.65241 0.91774 0.0
H2316 H 0.76766 0.63738 0.96015 0.0
H2317 H 0.74843 0.69437 0.97561 0.0
H2318 H 0.76134 0.69636 0.93006 0.0
H2319 H 0.7412 0.68197 0.92662 0.0
H2320 H 0.78443 0.6888 0.81083 0.0
H2321 H 0.73628 0.65344 0.80083 0.0
H2322 H 0.79053 0.68117 0.92185 0.0
H2323 H 0.7857 0.69625 0.92458 0.0
H2324 H 0.79783 0.69621 0.8794 0.0
H2325 H 0.73169 0.63857 0.90983 0.0
H2326 H 0.721 0.64092 0.86428 0.0
H2327 H 0.72649 0.65338 0.91321 0.0
C2328 C 0.0913 0.32026 0.68128 0.0
C2329 C 0.08625 0.32832 0.70902 0.0
C2330 C 0.0925 0.32249 0.63448 0.0
C2331 C 0.08836 0.33291 0.61483 0.0
C2332 C 0.08344 0.34125 0.64264 0.0
C2333 C 0.08254 0.33893 0.68955 0.0
C2334 C 0.09801 0.31356 0.60601 0.0
C2335 C 0.07881 0.35236 0.62273 0.0
C2336 C 0.10324 0.34768 0.49686 0.0
C2337 C 0.09042 0.3376 0.47025 0.0
C2338 C 0.10269 0.34636 0.54402 0.0
C2339 C 0.08894 0.33481 0.56505 0.0
C2340 C 0.07591 0.32469 0.53842 0.0
C2341 C 0.07684 0.32614 0.49128 0.0
C2342 C 0.1169 0.35721 0.57128 0.0
C2343 C 0.06099 0.31231 0.55975 0.0
H2344 H 0.0943 0.31212 0.69615 0.0
H2345 H 0.07856 0.34513 0.71083 0.0
H2346 H 0.08868 0.30579 0.58234 0.0
H2347 H 0.10818 0.32173 0.58537 0.0
H2348 H 0.10137 0.30637 0.62674 0.0
H2349 H 0.07551 0.35816 0.64903 0.0
H2350 H 0.08854 0.36142 0.60255 0.0
H2351 H 0.06881 0.34598 0.59951 0.0
H2352 H 0.11379 0.35653 0.48082 0.0
H2353 H 0.06685 0.3184 0.47093 0.0
H2354 H 0.12097 0.35038 0.59079 0.0
H2355 H 0.11393 0.36372 0.59597 0.0
H2356 H 0.12661 0.3657 0.54977 0.0
H2357 H 0.0632 0.30395 0.57864 0.0
H2358 H 0.05174 0.30576 0.53439 0.0
H2359 H 0.05666 0.31769 0.58435 0.0
C2360 C 0.65688 0.74398 0.68495 0.0
C2361 C 0.6683 0.75779 0.70509 0.0
C2362 C 0.655 0.7428 0.6379 0.0
C2363 C 0.6646 0.75583 0.61051 0.0
C2364 C 0.67603 0.76985 0.6307 0.0
C2365 C 0.67782 0.77062 0.67772 0.0
C2366 C 0.6428 0.72761 0.61748 0.0
C2367 C 0.68632 0.78405 0.60266 0.0
C2368 C 0.66901 0.74954 0.48608 0.0
C2369 C 0.65816 0.75288 0.46638 0.0
C2370 C 0.67119 0.75039 0.53305 0.0
C2371 C 0.66249 0.7549 0.56074 0.0
C2372 C 0.65173 0.75854 0.54094 0.0
C2373 C 0.64962 0.75738 0.49405 0.0
C2374 C 0.68266 0.74627 0.55309 0.0
C2375 C 0.6424 0.76361 0.56928 0.0
H2376 H 0.64958 0.73399 0.7059 0.0
H2377 H 0.68663 0.78135 0.6931 0.0
H2378 H 0.63419 0.7294 0.59846 0.0
H2379 H 0.6483 0.72332 0.59313 0.0
H2380 H 0.63652 0.71847 0.64338 0.0
H2381 H 0.69458 0.7941 0.62363 0.0
H2382 H 0.69309 0.78134 0.5782 0.0
H2383 H 0.67906 0.78754 0.58287 0.0
H2384 H 0.67557 0.74597 0.4649 0.0
H2385 H 0.64128 0.76007 0.47904 0.0
H2386 H 0.67661 0.73646 0.57712 0.0
H2387 H 0.69171 0.7563 0.5724 0.0
H2388 H 0.68847 0.74293 0.52693 0.0
H2389 H 0.63503 0.75428 0.59351 0.0
H2390 H 0.63478 0.76638 0.54851 0.0
H2391 H 0.65034 0.77406 0.58932 0.0
C2392 C 0.22739 0.90964 0.6675 0.0
C2393 C 0.24011 0.91228 0.69444 0.0
C2394 C 0.22807 0.90893 0.62034 0.0
C2395 C 0.24187 0.9111 0.59963 0.0
C2396 C 0.2548 0.91391 0.6266 0.0
C2397 C 0.25372 0.91436 0.67372 0.0
C2398 C 0.21398 0.90568 0.59272 0.0
C2399 C 0.26976 0.91643 0.60566 0.0
C2400 C 0.24002 0.89451 0.48316 0.0
C2401 C 0.24523 0.90771 0.4557 0.0
C2402 C 0.23856 0.89541 0.52992 0.0
C2403 C 0.24263 0.90991 0.54983 0.0
C2404 C 0.24772 0.92326 0.52228 0.0
C2405 C 0.24885 0.92198 0.4754 0.0
C2406 C 0.23286 0.88086 0.55807 0.0
C2407 C 0.2523 0.93895 0.54246 0.0
H2408 H 0.21682 0.90798 0.6833 0.0
H2409 H 0.26364 0.91653 0.6943 0.0
H2410 H 0.21705 0.91524 0.56824 0.0
H2411 H 0.20995 0.89483 0.57296 0.0
H2412 H 0.20419 0.90441 0.614 0.0
H2413 H 0.27891 0.91902 0.63126 0.0
H2414 H 0.26757 0.9059 0.58661 0.0
H2415 H 0.27422 0.92621 0.58126 0.0
H2416 H 0.23707 0.88341 0.4681 0.0
H2417 H 0.25295 0.93222 0.45433 0.0
H2418 H 0.22264 0.87887 0.57844 0.0
H2419 H 0.24208 0.8823 0.58199 0.0
H2420 H 0.22953 0.87037 0.53713 0.0
H2421 H 0.2425 0.93826 0.56236 0.0
H2422 H 0.25571 0.94812 0.51634 0.0
H2423 H 0.26221 0.94249 0.56599 0.0
C2424 C 0.6624 0.91702 0.18866 0.0
C2425 C 0.67329 0.91382 0.20871 0.0
C2426 C 0.66014 0.91591 0.14174 0.0
C2427 C 0.66884 0.9113 0.11441 0.0
C2428 C 0.67963 0.90777 0.13456 0.0
C2429 C 0.68179 0.90916 0.18143 0.0
C2430 C 0.64863 0.91991 0.12134 0.0
C2431 C 0.68897 0.90262 0.10658 0.0
C2432 C 0.65365 0.8957 0.99717 0.0
C2433 C 0.66314 0.90861 0.97004 0.0
C2434 C 0.65543 0.89638 0.04421 0.0
C2435 C 0.66683 0.91038 0.06462 0.0
C2436 C 0.67643 0.92346 0.03744 0.0
C2437 C 0.67455 0.92238 0.99042 0.0
C2438 C 0.64514 0.88213 0.07207 0.0
C2439 C 0.68861 0.93863 0.05807 0.0
H2440 H 0.65584 0.92068 0.20954 0.0
H2441 H 0.69016 0.90656 0.19671 0.0
H2442 H 0.65468 0.92973 0.09735 0.0
H2443 H 0.63967 0.90985 0.10191 0.0
H2444 H 0.64271 0.92319 0.14729 0.0
H2445 H 0.69651 0.89982 0.12762 0.0
H2446 H 0.68105 0.89218 0.08649 0.0
H2447 H 0.69642 0.91192 0.0824 0.0
H2448 H 0.64486 0.885 0.98162 0.0
H2449 H 0.68184 0.93243 0.96967 0.0
H2450 H 0.63827 0.88478 0.09637 0.0
H2451 H 0.65239 0.87868 0.09203 0.0
H2452 H 0.63697 0.87209 0.05094 0.0
H2453 H 0.68307 0.94292 0.08225 0.0
H2454 H 0.69498 0.94778 0.03228 0.0
H2455 H 0.69715 0.9368 0.07732 0.0
C2456 C 0.08541 0.74461 0.17888 0.0
C2457 C 0.08717 0.75811 0.19963 0.0
C2458 C 0.08592 0.74358 0.13176 0.0
C2459 C 0.08845 0.75643 0.10481 0.0
C2460 C 0.09028 0.77009 0.12554 0.0
C2461 C 0.08952 0.77073 0.1727 0.0
C2462 C 0.08378 0.72876 0.11081 0.0
C2463 C 0.09322 0.7841 0.09793 0.0
C2464 C 0.10536 0.75876 0.98851 0.0
C2465 C 0.09217 0.75327 0.9609 0.0
C2466 C 0.10435 0.76015 0.03526 0.0
C2467 C 0.08974 0.75574 0.05501 0.0
C2468 C 0.0764 0.75037 0.02731 0.0
C2469 C 0.07779 0.74931 0.98044 0.0
C2470 C 0.11889 0.76615 0.06357 0.0
C2471 C 0.0606 0.74543 0.04731 0.0
H2472 H 0.08346 0.73476 0.19945 0.0
H2473 H 0.09093 0.78121 0.1885 0.0
H2474 H 0.07404 0.72412 0.08627 0.0
H2475 H 0.09442 0.7312 0.09192 0.0
H2476 H 0.08134 0.71963 0.13638 0.0
H2477 H 0.09419 0.79376 0.1192 0.0
H2478 H 0.10413 0.78839 0.07834 0.0
H2479 H 0.08365 0.78081 0.0733 0.0
H2480 H 0.11654 0.76196 0.97357 0.0
H2481 H 0.06755 0.745 0.95927 0.0
H2482 H 0.11765 0.75699 0.08748 0.0
H2483 H 0.12061 0.77627 0.08396 0.0
H2484 H 0.12946 0.76973 0.04275 0.0
H2485 H 0.05724 0.73553 0.07076 0.0
H2486 H 0.05144 0.74184 0.02108 0.0
H2487 H 0.06102 0.75509 0.06725 0.0
C2488 C 0.25355 0.34141 0.19173 0.0
C2489 C 0.23952 0.33032 0.21164 0.0
C2490 C 0.25476 0.34358 0.14477 0.0
C2491 C 0.24155 0.33462 0.1173 0.0
C2492 C 0.22726 0.3237 0.13736 0.0
C2493 C 0.22646 0.3216 0.18425 0.0
C2494 C 0.27023 0.3552 0.12446 0.0
C2495 C 0.21286 0.31412 0.10926 0.0
C2496 C 0.24107 0.34923 0.9993 0.0
C2497 C 0.24467 0.33974 0.97277 0.0
C2498 C 0.23995 0.34764 0.04638 0.0
C2499 C 0.24271 0.33645 0.06746 0.0
C2500 C 0.24639 0.32687 0.04089 0.0
C2501 C 0.24721 0.32854 0.99379 0.0
C2502 C 0.23575 0.3579 0.07355 0.0
C2503 C 0.24957 0.31492 0.06225 0.0
H2504 H 0.26371 0.34811 0.21272 0.0
H2505 H 0.21555 0.31308 0.19949 0.0
H2506 H 0.27423 0.34917 0.10111 0.0
H2507 H 0.269 0.36395 0.10435 0.0
H2508 H 0.27933 0.36137 0.15052 0.0
H2509 H 0.2025 0.30661 0.13027 0.0
H2510 H 0.21029 0.32187 0.0885 0.0
H2511 H 0.21486 0.30661 0.0857 0.0
H2512 H 0.23903 0.35786 0.98323 0.0
H2513 H 0.25011 0.32126 0.97349 0.0
H2514 H 0.24518 0.36494 0.0979 0.0
H2515 H 0.22505 0.35061 0.09344 0.0
H2516 H 0.23379 0.36591 0.05194 0.0
H2517 H 0.25932 0.32066 0.08663 0.0
H2518 H 0.25257 0.30859 0.0369 0.0
H2519 H 0.23921 0.30631 0.0814 0.0
C2520 C 0.89257 0.65181 0.51661 0.0
C2521 C 0.90579 0.66062 0.54336 0.0
C2522 C 0.89324 0.65343 0.46957 0.0
C2523 C 0.90753 0.66398 0.44877 0.0
C2524 C 0.9209 0.67299 0.47557 0.0
C2525 C 0.91984 0.67128 0.52265 0.0
C2526 C 0.87869 0.6438 0.44211 0.0
C2527 C 0.93636 0.68425 0.45446 0.0
C2528 C 0.91287 0.65749 0.32539 0.0
C2529 C 0.91058 0.66883 0.30429 0.0
C2530 C 0.91196 0.65581 0.37249 0.0
C2531 C 0.90847 0.66556 0.39891 0.0
C2532 C 0.90588 0.67684 0.37773 0.0
C2533 C 0.90705 0.6784 0.33069 0.0
C2534 C 0.91491 0.64373 0.39403 0.0
C2535 C 0.90192 0.68731 0.40478 0.0
H2536 H 0.88165 0.64361 0.53245 0.0
H2537 H 0.93012 0.67803 0.54315 0.0
H2538 H 0.87609 0.65151 0.42127 0.0
H2539 H 0.8805 0.63614 0.41863 0.0
H2540 H 0.86842 0.63643 0.46358 0.0
H2541 H 0.94565 0.69038 0.48005 0.0
H2542 H 0.94002 0.67793 0.43109 0.0
H2543 H 0.93525 0.69305 0.43423 0.0
H2544 H 0.91569 0.65013 0.30519 0.0
H2545 H 0.90519 0.68714 0.31457 0.0
H2546 H 0.90461 0.6354 0.41389 0.0
H2547 H 0.92485 0.64943 0.41781 0.0
H2548 H 0.91753 0.6371 0.36872 0.0
H2549 H 0.89132 0.68018 0.42524 0.0
H2550 H 0.89991 0.69525 0.38304 0.0
H2551 H 0.91151 0.69443 0.42859 0.0
C2552 C 0.32579 0.24792 0.52005 0.0
C2553 C 0.33692 0.24524 0.54084 0.0
C2554 C 0.32402 0.24707 0.47299 0.0
C2555 C 0.33346 0.24324 0.44628 0.0
C2556 C 0.34452 0.24025 0.46715 0.0
C2557 C 0.34618 0.24138 0.51417 0.0
C2558 C 0.3122 0.25047 0.45179 0.0
C2559 C 0.35463 0.23591 0.43979 0.0
C2560 C 0.31919 0.22766 0.3286 0.0
C2561 C 0.32824 0.24084 0.30191 0.0
C2562 C 0.32091 0.22824 0.37561 0.0
C2563 C 0.33179 0.24238 0.39644 0.0
C2564 C 0.34102 0.25571 0.3697 0.0
C2565 C 0.33921 0.25475 0.32265 0.0
C2566 C 0.31102 0.21373 0.40301 0.0
C2567 C 0.35264 0.27103 0.39085 0.0
H2568 H 0.31867 0.251 0.54047 0.0
H2569 H 0.35475 0.23921 0.53007 0.0
H2570 H 0.31808 0.26041 0.42806 0.0
H2571 H 0.30365 0.24028 0.43194 0.0
H2572 H 0.3058 0.25333 0.4773 0.0
H2573 H 0.3624 0.23358 0.46132 0.0
H2574 H 0.34724 0.22539 0.41929 0.0
H2575 H 0.36191 0.24544 0.41601 0.0
H2576 H 0.31075 0.21685 0.31273 0.0
H2577 H 0.34616 0.26499 0.3022 0.0
H2578 H 0.30359 0.21578 0.42674 0.0
H2579 H 0.31856 0.21082 0.42357 0.0
H2580 H 0.30341 0.20355 0.3815 0.0
H2581 H 0.3466 0.27492 0.41451 0.0
H2582 H 0.35892 0.2803 0.36531 0.0
H2583 H 0.3613 0.26959 0.41078 0.0
C2584 C 0.75167 0.07846 0.51255 0.0
C2585 C 0.75364 0.09204 0.53327 0.0
C2586 C 0.75221 0.07742 0.46544 0.0
C2587 C 0.75499 0.09034 0.43847 0.0
C2588 C 0.75704 0.1041 0.45918 0.0
C2589 C 0.75624 0.10475 0.50633 0.0
C2590 C 0.74983 0.06251 0.44451 0.0
C2591 C 0.76024 0.11818 0.43156 0.0
C2592 C 0.77178 0.09239 0.32216 0.0
C2593 C 0.75861 0.08711 0.29454 0.0
C2594 C 0.7708 0.09379 0.36891 0.0
C2595 C 0.75626 0.08962 0.38867 0.0
C2596 C 0.74294 0.08446 0.36097 0.0
C2597 C 0.74429 0.08337 0.3141 0.0
C2598 C 0.78532 0.09956 0.39723 0.0
C2599 C 0.7272 0.07977 0.38097 0.0
H2600 H 0.74953 0.06855 0.53313 0.0
H2601 H 0.75781 0.11529 0.52211 0.0
H2602 H 0.74008 0.05799 0.42 0.0
H2603 H 0.76041 0.06478 0.42559 0.0
H2604 H 0.74726 0.05335 0.4701 0.0
H2605 H 0.76141 0.12794 0.45282 0.0
H2606 H 0.77112 0.12229 0.41194 0.0
H2607 H 0.7507 0.11506 0.40695 0.0
H2608 H 0.78291 0.09542 0.30721 0.0
H2609 H 0.73407 0.07922 0.29293 0.0
H2610 H 0.7839 0.09035 0.42116 0.0
H2611 H 0.78722 0.10975 0.41759 0.0
H2612 H 0.79585 0.10296 0.37641 0.0
H2613 H 0.72369 0.06986 0.40448 0.0
H2614 H 0.71806 0.07631 0.35475 0.0
H2615 H 0.7278 0.08952 0.40086 0.0
C2616 C 0.00505 0.42119 0.15118 0.0
C2617 C 0.99383 0.4238 0.13065 0.0
C2618 C 0.00682 0.42191 0.19828 0.0
C2619 C 0.99732 0.42559 0.2253 0.0
C2620 C 0.98622 0.42857 0.20464 0.0
C2621 C 0.98453 0.42751 0.1576 0.0
C2622 C 0.01865 0.41846 0.21919 0.0
C2623 C 0.97609 0.43281 0.23226 0.0
C2624 C 0.99153 0.41378 0.34886 0.0
C2625 C 0.00256 0.4276 0.36981 0.0
C2626 C 0.98973 0.41293 0.30177 0.0
C2627 C 0.99899 0.42631 0.27521 0.0
C2628 C 0.00989 0.44039 0.29631 0.0
C2629 C 0.01164 0.44083 0.34332 0.0
C2630 C 0.97812 0.39766 0.28036 0.0
C2631 C 0.01977 0.45498 0.26922 0.0
H2632 H 0.01219 0.41819 0.13053 0.0
H2633 H 0.97589 0.42962 0.14188 0.0
H2634 H 0.02718 0.4286 0.23927 0.0
H2635 H 0.01277 0.40845 0.24265 0.0
H2636 H 0.02507 0.41572 0.19348 0.0
H2637 H 0.96836 0.43525 0.21088 0.0
H2638 H 0.96877 0.42318 0.2557 0.0
H2639 H 0.98345 0.44324 0.25313 0.0
H2640 H 0.98458 0.40349 0.36917 0.0
H2641 H 0.02012 0.45158 0.35938 0.0
H2642 H 0.98416 0.39384 0.2565 0.0
H2643 H 0.96945 0.39913 0.2606 0.0
H2644 H 0.97185 0.38833 0.30574 0.0
H2645 H 0.02724 0.45301 0.24543 0.0
H2646 H 0.02734 0.46511 0.29093 0.0
H2647 H 0.01222 0.45791 0.24874 0.0
C2648 C 0.57963 0.58964 0.14989 0.0
C2649 C 0.57758 0.57588 0.13024 0.0
C2650 C 0.57895 0.59096 0.19688 0.0
C2651 C 0.57595 0.57815 0.2247 0.0
C2652 C 0.5736 0.56415 0.20498 0.0
C2653 C 0.57454 0.56322 0.15801 0.0
C2654 C 0.58165 0.60613 0.21682 0.0
C2655 C 0.57014 0.55017 0.23352 0.0
C2656 C 0.58775 0.58515 0.34814 0.0
C2657 C 0.57363 0.58145 0.36904 0.0
C2658 C 0.58871 0.58425 0.30108 0.0
C2659 C 0.57519 0.57934 0.27448 0.0
C2660 C 0.56088 0.57542 0.29544 0.0
C2661 C 0.5603 0.57661 0.34243 0.0
C2662 C 0.6042 0.58866 0.27978 0.0
C2663 C 0.54618 0.56993 0.26824 0.0
H2664 H 0.58209 0.5995 0.12862 0.0
H2665 H 0.57288 0.55253 0.14302 0.0
H2666 H 0.57137 0.60413 0.23683 0.0
H2667 H 0.59174 0.61086 0.24018 0.0
H2668 H 0.58391 0.615 0.19055 0.0
H2669 H 0.56829 0.54004 0.21284 0.0
H2670 H 0.57991 0.55317 0.25715 0.0
H2671 H 0.55959 0.54668 0.25423 0.0
H2672 H 0.59811 0.58898 0.3685 0.0
H2673 H 0.54933 0.57364 0.35837 0.0
H2674 H 0.60744 0.59824 0.2552 0.0
H2675 H 0.60333 0.57861 0.26086 0.0
H2676 H 0.61365 0.59245 0.30515 0.0
H2677 H 0.54773 0.57901 0.2436 0.0
H2678 H 0.53595 0.56716 0.28979 0.0
H2679 H 0.54365 0.55938 0.24869 0.0
C2680 C 0.41611 0.00596 0.35461 0.0
C2681 C 0.41962 0.99521 0.37416 0.0
C2682 C 0.41706 0.00827 0.3077 0.0
C2683 C 0.42181 -0.00023 0.27996 0.0
C2684 C 0.42574 0.98921 0.29967 0.0
C2685 C 0.42451 0.98699 0.34648 0.0
C2686 C 0.41266 0.01954 0.28771 0.0
C2687 C 0.43107 0.9801 0.27127 0.0
C2688 C 0.41031 0.99313 0.15637 0.0
C2689 C 0.42398 0.00444 0.13536 0.0
C2690 C 0.40935 0.99169 0.20352 0.0
C2691 C 0.42244 0.00167 0.23017 0.0
C2692 C 0.43628 0.01307 0.20916 0.0
C2693 C 0.43686 0.01438 0.162 0.0
C2694 C 0.39435 0.97946 0.22482 0.0
C2695 C 0.45053 0.02378 0.23645 0.0
H2696 H 0.41227 0.01228 0.37584 0.0
H2697 H 0.42735 0.97875 0.3614 0.0
H2698 H 0.42246 0.02851 0.26754 0.0
H2699 H 0.40264 0.01327 0.26447 0.0
H2700 H 0.40948 0.02546 0.31396 0.0
H2701 H 0.43426 0.9728 0.29205 0.0
H2702 H 0.42169 0.97242 0.24758 0.0
H2703 H 0.44129 0.98816 0.25065 0.0
H2704 H 0.40028 0.9855 0.13601 0.0
H2705 H 0.44747 0.02313 0.14598 0.0
H2706 H 0.39013 0.98496 0.24936 0.0
H2707 H 0.39639 0.971 0.24377 0.0
H2708 H 0.38507 0.973 0.19944 0.0
H2709 H 0.44769 0.0304 0.26109 0.0
H2710 H 0.46032 0.03217 0.21496 0.0
H2711 H 0.45445 0.01682 0.25601 0.0
C2712 C 0.55915 0.98751 0.85114 0.0
C2713 C 0.57225 0.99631 0.87831 0.0
C2714 C 0.55989 0.98949 0.80421 0.0
C2715 C 0.57414 0.00035 0.78391 0.0
C2716 C 0.58739 0.0094 0.81117 0.0
C2717 C 0.58625 0.00736 0.85817 0.0
C2718 C 0.54545 0.97982 0.77633 0.0
C2719 C 0.60283 0.02097 0.79058 0.0
C2720 C 0.57963 0.99393 0.66056 0.0
C2721 C 0.57708 0.00507 0.6393 0.0
C2722 C 0.57887 0.99238 0.7077 0.0
C2723 C 0.57523 0.00204 0.73403 0.0
C2724 C 0.57243 0.01316 0.71271 0.0
C2725 C 0.5735 0.01462 0.6656 0.0
C2726 C 0.58209 0.98049 0.72934 0.0
C2727 C 0.56827 0.02349 0.73964 0.0
H2728 H 0.54827 0.97902 0.86658 0.0
H2729 H 0.59643 0.01411 0.87902 0.0
H2730 H 0.54285 0.9875 0.75533 0.0
H2731 H 0.54741 0.97222 0.75301 0.0
H2732 H 0.53511 0.97238 0.79752 0.0
H2733 H 0.61196 0.02723 0.8165 0.0
H2734 H 0.60681 0.01486 0.76744 0.0
H2735 H 0.60156 0.02964 0.7702 0.0
H2736 H 0.58252 0.9866 0.64043 0.0
H2737 H 0.57144 0.02322 0.64933 0.0
H2738 H 0.57177 0.97195 0.74872 0.0
H2739 H 0.59188 0.98631 0.75357 0.0
H2740 H 0.58505 0.97409 0.70414 0.0
H2741 H 0.5576 0.01625 0.75973 0.0
H2742 H 0.56625 0.03142 0.71783 0.0
H2743 H 0.57773 0.03062 0.76378 0.0
C2744 C 0.98537 0.56308 0.66357 0.0
C2745 C 0.99506 0.57582 0.63614 0.0
C2746 C 0.98712 0.56389 0.71061 0.0
C2747 C 0.99872 0.57783 0.73071 0.0
C2748 C 0.00852 0.59075 0.70326 0.0
C2749 C 0.00663 0.58956 0.65625 0.0
C2750 C 0.97658 0.54982 0.73879 0.0
C2751 C 0.02096 0.60585 0.72358 0.0
C2752 C 0.99455 0.58486 0.85461 0.0
C2753 C 0.00514 0.58126 0.87478 0.0
C2754 C 0.99233 0.5838 0.80768 0.0
C2755 C 0.00077 0.57884 0.78048 0.0
C2756 C 0.01128 0.57494 0.80074 0.0
C2757 C 0.0134 0.57628 0.84761 0.0
C2758 C 0.98111 0.58817 0.78714 0.0
C2759 C 0.02034 0.56943 0.77288 0.0
H2760 H 0.97643 0.5524 0.64827 0.0
H2761 H 0.01409 0.59948 0.63529 0.0
H2762 H 0.98363 0.54614 0.75883 0.0
H2763 H 0.96994 0.55279 0.76304 0.0
H2764 H 0.96819 0.53982 0.7179 0.0
H2765 H 0.02745 0.61488 0.69759 0.0
H2766 H 0.01562 0.6104 0.74764 0.0
H2767 H 0.02935 0.60382 0.74289 0.0
H2768 H 0.98818 0.58878 0.8754 0.0
H2769 H 0.02154 0.57339 0.86298 0.0
H2770 H 0.97197 0.57819 0.76788 0.0
H2771 H 0.98736 0.5979 0.76297 0.0
H2772 H 0.97541 0.59174 0.81299 0.0
H2773 H 0.01223 0.55899 0.75306 0.0
H2774 H 0.02775 0.56648 0.79399 0.0
H2775 H 0.02789 0.57859 0.74846 0.0
C2776 C 0.44083 0.42724 0.65514 0.0
C2777 C 0.42794 0.42346 0.62755 0.0
C2778 C 0.43997 0.42839 0.70208 0.0
C2779 C 0.4258 0.42546 0.72197 0.0
C2780 C 0.41278 0.42181 0.69428 0.0
C2781 C 0.41404 0.42097 0.6473 0.0
C2782 C 0.45418 0.43257 0.73043 0.0
C2783 C 0.39742 0.41845 0.71437 0.0
C2784 C 0.41929 0.41316 0.84505 0.0
C2785 C 0.42223 0.42696 0.86653 0.0
C2786 C 0.42027 0.41248 0.79794 0.0
C2787 C 0.42454 0.42598 0.77184 0.0
C2788 C 0.42773 0.44 0.7934 0.0
C2789 C 0.42642 0.44029 0.84046 0.0
C2790 C 0.41661 0.39727 0.77606 0.0
C2791 C 0.43256 0.4547 0.76676 0.0
H2792 H 0.45164 0.42926 0.64004 0.0
H2793 H 0.40401 0.41795 0.62616 0.0
H2794 H 0.45706 0.44289 0.7516 0.0
H2795 H 0.45176 0.42284 0.7536 0.0
H2796 H 0.46449 0.43514 0.70957 0.0
H2797 H 0.38847 0.41596 0.68817 0.0
H2798 H 0.39301 0.40828 0.73734 0.0
H2799 H 0.399 0.4285 0.73484 0.0
H2800 H 0.41593 0.4028 0.865 0.0
H2801 H 0.42879 0.45102 0.85689 0.0
H2802 H 0.42688 0.39873 0.75703 0.0
H2803 H 0.40697 0.39369 0.7515 0.0
H2804 H 0.41323 0.38777 0.80109 0.0
H2805 H 0.44323 0.45779 0.74704 0.0
H2806 H 0.43487 0.4647 0.78873 0.0
H2807 H 0.42332 0.4528 0.74229 0.0
loop_
_geom_bond_atom_site_label_1
_geom_bond_atom_site_label_2
_geom_bond_distance
_geom_bond_site_symmetry_2
_ccdc_geom_bond_type
C0 O2 1.247 . S
C0 O4 1.258 . S
C1 O8 1.247 . S
C1 O9 1.258 . S
O2 C0 1.247 . S
O2 Zn3 2.028 . S
Zn3 O2 2.028 . S
Zn3 O7 2.035 . S
Zn3 O9 2.035 . S
Zn3 O10 2.028 . S
O4 C0 1.258 . S
O4 Zn5 2.035 . S
Zn5 O4 2.035 . S
Zn5 O6 2.028 . S
Zn5 O8 2.028 . S
Zn5 O11 2.035 . S
O6 Zn5 2.028 . S
O6 C12 1.247 . S
O7 Zn3 2.035 . S
O7 C12 1.258 . S
O8 C1 1.247 . S
O8 Zn5 2.028 . S
O9 C1 1.258 . S
O9 Zn3 2.035 . S
O10 Zn3 2.028 . S
O10 C13 1.247 . S
O11 Zn5 2.035 . S
O11 C13 1.258 . S
C12 O6 1.247 . S
C12 O7 1.258 . S
C13 O10 1.247 . S
C13 O11 1.258 . S
C14 O16 1.247 . S
C14 O18 1.258 . S
C15 O22 1.247 . S
C15 O23 1.258 . S
O16 C14 1.247 . S
O16 Zn17 2.028 . S
Zn17 O16 2.028 . S
Zn17 O21 2.035 . S
Zn17 O23 2.035 . S
Zn17 O24 2.028 . S
O18 C14 1.258 . S
O18 Zn19 2.035 . S
Zn19 O18 2.035 . S
Zn19 O20 2.028 . S
Zn19 O22 2.028 . S
Zn19 O25 2.035 . S
O20 Zn19 2.028 . S
O20 C26 1.247 . S
O21 Zn17 2.035 . S
O21 C26 1.258 . S
O22 C15 1.247 . S
O22 Zn19 2.028 . S
O23 C15 1.258 . S
O23 Zn17 2.035 . S
O24 Zn17 2.028 . S
O24 C27 1.247 . S
O25 Zn19 2.035 . S
O25 C27 1.258 . S
C26 O20 1.247 . S
C26 O21 1.258 . S
C27 O24 1.247 . S
C27 O25 1.258 . S
C28 O30 1.247 . S
C28 O32 1.258 . S
C29 O36 1.247 . S
C29 O37 1.258 . S
O30 C28 1.247 . S
O30 Zn31 2.028 . S
Zn31 O30 2.028 . S
Zn31 O35 2.035 . S
Zn31 O37 2.035 . S
Zn31 O38 2.028 . S
O32 C28 1.258 . S
O32 Zn33 2.035 . S
Zn33 O32 2.035 . S
Zn33 O34 2.028 . S
Zn33 O36 2.028 . S
Zn33 O39 2.035 . S
O34 Zn33 2.028 . S
O34 C40 1.247 . S
O35 Zn31 2.035 . S
O35 C40 1.258 . S
O36 C29 1.247 . S
O36 Zn33 2.028 . S
O37 C29 1.258 . S
O37 Zn31 2.035 . S
O38 Zn31 2.028 . S
O38 C41 1.247 . S
O39 Zn33 2.035 . S
O39 C41 1.258 . S
C40 O34 1.247 . S
C40 O35 1.258 . S
C41 O38 1.247 . S
C41 O39 1.258 . S
C42 O44 1.247 . S
C42 O46 1.258 . S
C43 O50 1.247 . S
C43 O51 1.258 . S
O44 C42 1.247 . S
O44 Zn45 2.028 . S
Zn45 O44 2.028 . S
Zn45 O49 2.035 . S
Zn45 O51 2.035 . S
Zn45 O52 2.028 . S
O46 C42 1.258 . S
O46 Zn47 2.035 . S
Zn47 O46 2.035 . S
Zn47 O48 2.028 . S
Zn47 O50 2.028 . S
Zn47 O53 2.035 . S
O48 Zn47 2.028 . S
O48 C54 1.247 . S
O49 Zn45 2.035 . S
O49 C54 1.258 . S
O50 C43 1.247 . S
O50 Zn47 2.028 . S
O51 C43 1.258 . S
O51 Zn45 2.035 . S
O52 Zn45 2.028 . S
O52 C55 1.247 . S
O53 Zn47 2.035 . S
O53 C55 1.258 . S
C54 O48 1.247 . S
C54 O49 1.258 . S
C55 O52 1.247 . S
C55 O53 1.258 . S
C56 O58 1.247 . S
C56 O60 1.258 . S
C57 O64 1.247 . S
C57 O65 1.258 . S
O58 C56 1.247 . S
O58 Zn59 2.028 . S
Zn59 O58 2.028 . S
Zn59 O63 2.035 . S
Zn59 O65 2.035 . S
Zn59 O66 2.028 . S
O60 C56 1.258 . S
O60 Zn61 2.035 . S
Zn61 O60 2.035 . S
Zn61 O62 2.028 . S
Zn61 O64 2.028 . S
Zn61 O67 2.035 . S
O62 Zn61 2.028 . S
O62 C68 1.247 . S
O63 Zn59 2.035 . S
O63 C68 1.258 . S
O64 C57 1.247 . S
O64 Zn61 2.028 . S
O65 C57 1.258 . S
O65 Zn59 2.035 . S
O66 Zn59 2.028 . S
O66 C69 1.247 . S
O67 Zn61 2.035 . S
O67 C69 1.258 . S
C68 O62 1.247 . S
C68 O63 1.258 . S
C69 O66 1.247 . S
C69 O67 1.258 . S
C70 O72 1.247 . S
C70 O74 1.258 . S
C71 O78 1.247 . S
C71 O79 1.258 . S
O72 C70 1.247 . S
O72 Zn73 2.028 . S
Zn73 O72 2.028 . S
Zn73 O77 2.035 . S
Zn73 O79 2.035 . S
Zn73 O80 2.028 . S
O74 C70 1.258 . S
O74 Zn75 2.035 . S
Zn75 O74 2.035 . S
Zn75 O76 2.028 . S
Zn75 O78 2.028 . S
Zn75 O81 2.035 . S
O76 Zn75 2.028 . S
O76 C82 1.247 . S
O77 Zn73 2.035 . S
O77 C82 1.258 . S
O78 C71 1.247 . S
O78 Zn75 2.028 . S
O79 C71 1.258 . S
O79 Zn73 2.035 . S
O80 Zn73 2.028 . S
O80 C83 1.247 . S
O81 Zn75 2.035 . S
O81 C83 1.258 . S
C82 O76 1.247 . S
C82 O77 1.258 . S
C83 O80 1.247 . S
C83 O81 1.258 . S
C84 O86 1.247 . S
C84 O88 1.258 . S
C85 O92 1.247 . S
C85 O93 1.258 . S
O86 C84 1.247 . S
O86 Zn87 2.028 . S
Zn87 O86 2.028 . S
Zn87 O91 2.035 . S
Zn87 O93 2.035 . S
Zn87 O94 2.028 . S
O88 C84 1.258 . S
O88 Zn89 2.035 . S
Zn89 O88 2.035 . S
Zn89 O90 2.028 . S
Zn89 O92 2.028 . S
Zn89 O95 2.035 . S
O90 Zn89 2.028 . S
O90 C96 1.247 . S
O91 Zn87 2.035 . S
O91 C96 1.258 . S
O92 C85 1.247 . S
O92 Zn89 2.028 . S
O93 C85 1.258 . S
O93 Zn87 2.035 . S
O94 Zn87 2.028 . S
O94 C97 1.247 . S
O95 Zn89 2.035 . S
O95 C97 1.258 . S
C96 O90 1.247 . S
C96 O91 1.258 . S
C97 O94 1.247 . S
C97 O95 1.258 . S
C98 O100 1.247 . S
C98 O102 1.258 . S
C99 O106 1.247 . S
C99 O107 1.258 . S
O100 C98 1.247 . S
O100 Zn101 2.028 . S
Zn101 O100 2.028 . S
Zn101 O105 2.035 . S
Zn101 O107 2.035 . S
Zn101 O108 2.028 . S
O102 C98 1.258 . S
O102 Zn103 2.035 . S
Zn103 O102 2.035 . S
Zn103 O104 2.028 . S
Zn103 O106 2.028 . S
Zn103 O109 2.035 . S
O104 Zn103 2.028 . S
O104 C110 1.247 . S
O105 Zn101 2.035 . S
O105 C110 1.258 . S
O106 C99 1.247 . S
O106 Zn103 2.028 . S
O107 C99 1.258 . S
O107 Zn101 2.035 . S
O108 Zn101 2.028 . S
O108 C111 1.247 . S
O109 Zn103 2.035 . S
O109 C111 1.258 . S
C110 O104 1.247 . S
C110 O105 1.258 . S
C111 O108 1.247 . S
C111 O109 1.258 . S
C112 O114 1.247 . S
C112 O116 1.258 . S
C113 O120 1.247 . S
C113 O121 1.258 . S
O114 C112 1.247 . S
O114 Zn115 2.028 . S
Zn115 O114 2.028 . S
Zn115 O119 2.035 . S
Zn115 O121 2.035 . S
Zn115 O122 2.028 . S
O116 C112 1.258 . S
O116 Zn117 2.035 . S
Zn117 O116 2.035 . S
Zn117 O118 2.028 . S
Zn117 O120 2.028 . S
Zn117 O123 2.035 . S
O118 Zn117 2.028 . S
O118 C124 1.247 . S
O119 Zn115 2.035 . S
O119 C124 1.258 . S
O120 C113 1.247 . S
O120 Zn117 2.028 . S
O121 C113 1.258 . S
O121 Zn115 2.035 . S
O122 Zn115 2.028 . S
O122 C125 1.247 . S
O123 Zn117 2.035 . S
O123 C125 1.258 . S
C124 O118 1.247 . S
C124 O119 1.258 . S
C125 O122 1.247 . S
C125 O123 1.258 . S
C126 O128 1.247 . S
C126 O130 1.258 . S
C127 O134 1.247 . S
C127 O135 1.258 . S
O128 C126 1.247 . S
O128 Zn129 2.028 . S
Zn129 O128 2.028 . S
Zn129 O133 2.035 . S
Zn129 O135 2.035 . S
Zn129 O136 2.028 . S
O130 C126 1.258 . S
O130 Zn131 2.035 . S
Zn131 O130 2.035 . S
Zn131 O132 2.028 . S
Zn131 O134 2.028 . S
Zn131 O137 2.035 . S
O132 Zn131 2.028 . S
O132 C138 1.247 . S
O133 Zn129 2.035 . S
O133 C138 1.258 . S
O134 C127 1.247 . S
O134 Zn131 2.028 . S
O135 C127 1.258 . S
O135 Zn129 2.035 . S
O136 Zn129 2.028 . S
O136 C139 1.247 . S
O137 Zn131 2.035 . S
O137 C139 1.258 . S
C138 O132 1.247 . S
C138 O133 1.258 . S
C139 O136 1.247 . S
C139 O137 1.258 . S
C140 O142 1.247 . S
C140 O144 1.258 . S
C141 O148 1.247 . S
C141 O149 1.258 . S
O142 C140 1.247 . S
O142 Zn143 2.028 . S
Zn143 O142 2.028 . S
Zn143 O147 2.035 . S
Zn143 O149 2.035 . S
Zn143 O150 2.028 . S
O144 C140 1.258 . S
O144 Zn145 2.035 . S
Zn145 O144 2.035 . S
Zn145 O146 2.028 . S
Zn145 O148 2.028 . S
Zn145 O151 2.035 . S
O146 Zn145 2.028 . S
O146 C152 1.247 . S
O147 Zn143 2.035 . S
O147 C152 1.258 . S
O148 C141 1.247 . S
O148 Zn145 2.028 . S
O149 C141 1.258 . S
O149 Zn143 2.035 . S
O150 Zn143 2.028 . S
O150 C153 1.247 . S
O151 Zn145 2.035 . S
O151 C153 1.258 . S
C152 O146 1.247 . S
C152 O147 1.258 . S
C153 O150 1.247 . S
C153 O151 1.258 . S
C154 O156 1.247 . S
C154 O158 1.258 . S
C155 O162 1.247 . S
C155 O163 1.258 . S
O156 C154 1.247 . S
O156 Zn157 2.028 . S
Zn157 O156 2.028 . S
Zn157 O161 2.035 . S
Zn157 O163 2.035 . S
Zn157 O164 2.028 . S
O158 C154 1.258 . S
O158 Zn159 2.035 . S
Zn159 O158 2.035 . S
Zn159 O160 2.028 . S
Zn159 O162 2.028 . S
Zn159 O165 2.035 . S
O160 Zn159 2.028 . S
O160 C166 1.247 . S
O161 Zn157 2.035 . S
O161 C166 1.258 . S
O162 C155 1.247 . S
O162 Zn159 2.028 . S
O163 C155 1.258 . S
O163 Zn157 2.035 . S
O164 Zn157 2.028 . S
O164 C167 1.247 . S
O165 Zn159 2.035 . S
O165 C167 1.258 . S
C166 O160 1.247 . S
C166 O161 1.258 . S
C167 O164 1.247 . S
C167 O165 1.258 . S
C168 O170 1.247 . S
C168 O172 1.258 1_455 S
C169 O176 1.247 1_455 S
C169 O177 1.258 . S
O170 C168 1.247 . S
O170 Zn171 2.028 . S
Zn171 O170 2.028 . S
Zn171 O175 2.035 . S
Zn171 O177 2.035 . S
Zn171 O178 2.028 . S
O172 C168 1.258 1_655 S
O172 Zn173 2.035 . S
Zn173 O172 2.035 . S
Zn173 O174 2.028 . S
Zn173 O176 2.028 . S
Zn173 O179 2.035 . S
O174 Zn173 2.028 . S
O174 C180 1.247 1_655 S
O175 Zn171 2.035 . S
O175 C180 1.258 . S
O176 C169 1.247 1_655 S
O176 Zn173 2.028 . S
O177 C169 1.258 . S
O177 Zn171 2.035 . S
O178 Zn171 2.028 . S
O178 C181 1.247 1_455 S
O179 Zn173 2.035 . S
O179 C181 1.258 . S
C180 O174 1.247 1_455 S
C180 O175 1.258 . S
C181 O178 1.247 1_655 S
C181 O179 1.258 . S
C182 O184 1.247 . S
C182 O186 1.258 . S
C183 O190 1.247 . S
C183 O191 1.258 . S
O184 C182 1.247 . S
O184 Zn185 2.028 . S
Zn185 O184 2.028 . S
Zn185 O189 2.035 . S
Zn185 O191 2.035 . S
Zn185 O192 2.028 . S
O186 C182 1.258 . S
O186 Zn187 2.035 . S
Zn187 O186 2.035 . S
Zn187 O188 2.028 . S
Zn187 O190 2.028 . S
Zn187 O193 2.035 . S
O188 Zn187 2.028 . S
O188 C194 1.247 . S
O189 Zn185 2.035 . S
O189 C194 1.258 . S
O190 C183 1.247 . S
O190 Zn187 2.028 . S
O191 C183 1.258 . S
O191 Zn185 2.035 . S
O192 Zn185 2.028 . S
O192 C195 1.247 . S
O193 Zn187 2.035 . S
O193 C195 1.258 . S
C194 O188 1.247 . S
C194 O189 1.258 . S
C195 O192 1.247 . S
C195 O193 1.258 . S
C196 O198 1.247 . S
C196 O200 1.258 1_565 S
C197 O204 1.247 1_565 S
C197 O205 1.258 . S
O198 C196 1.247 . S
O198 Zn199 2.028 . S
Zn199 O198 2.028 . S
Zn199 O203 2.035 . S
Zn199 O205 2.035 . S
Zn199 O206 2.028 . S
O200 C196 1.258 1_545 S
O200 Zn201 2.035 . S
Zn201 O200 2.035 . S
Zn201 O202 2.028 . S
Zn201 O204 2.028 . S
Zn201 O207 2.035 . S
O202 Zn201 2.028 . S
O202 C208 1.247 . S
O203 Zn199 2.035 . S
O203 C208 1.258 1_565 S
O204 C197 1.247 1_545 S
O204 Zn201 2.028 . S
O205 C197 1.258 . S
O205 Zn199 2.035 . S
O206 Zn199 2.028 . S
O206 C209 1.247 . S
O207 Zn201 2.035 . S
O207 C209 1.258 1_545 S
C208 O202 1.247 . S
C208 O203 1.258 1_545 S
C209 O206 1.247 . S
C209 O207 1.258 1_565 S
C210 O212 1.247 . S
C210 O214 1.258 . S
C211 O218 1.247 . S
C211 O219 1.258 . S
O212 C210 1.247 . S
O212 Zn213 2.028 . S
Zn213 O212 2.028 . S
Zn213 O217 2.035 . S
Zn213 O219 2.035 . S
Zn213 O220 2.028 . S
O214 C210 1.258 . S
O214 Zn215 2.035 . S
Zn215 O214 2.035 . S
Zn215 O216 2.028 . S
Zn215 O218 2.028 . S
Zn215 O221 2.035 . S
O216 Zn215 2.028 . S
O216 C222 1.247 . S
O217 Zn213 2.035 . S
O217 C222 1.258 . S
O218 C211 1.247 . S
O218 Zn215 2.028 . S
O219 C211 1.258 . S
O219 Zn213 2.035 . S
O220 Zn213 2.028 . S
O220 C223 1.247 . S
O221 Zn215 2.035 . S
O221 C223 1.258 . S
C222 O216 1.247 . S
C222 O217 1.258 . S
C223 O220 1.247 . S
C223 O221 1.258 . S
C224 O226 1.247 . S
C224 O228 1.258 . S
C225 O232 1.247 . S
C225 O233 1.258 . S
O226 C224 1.247 . S
O226 Zn227 2.028 . S
Zn227 O226 2.028 . S
Zn227 O231 2.035 . S
Zn227 O233 2.035 . S
Zn227 O234 2.028 . S
O228 C224 1.258 . S
O228 Zn229 2.035 . S
Zn229 O228 2.035 . S
Zn229 O230 2.028 . S
Zn229 O232 2.028 . S
Zn229 O235 2.035 . S
O230 Zn229 2.028 . S
O230 C236 1.247 . S
O231 Zn227 2.035 . S
O231 C236 1.258 . S
O232 C225 1.247 . S
O232 Zn229 2.028 . S
O233 C225 1.258 . S
O233 Zn227 2.035 . S
O234 Zn227 2.028 . S
O234 C237 1.247 . S
O235 Zn229 2.035 . S
O235 C237 1.258 . S
C236 O230 1.247 . S
C236 O231 1.258 . S
C237 O234 1.247 . S
C237 O235 1.258 . S
C238 O240 1.247 . S
C238 O242 1.258 . S
C239 O246 1.247 . S
C239 O247 1.258 . S
O240 C238 1.247 . S
O240 Zn241 2.028 . S
Zn241 O240 2.028 . S
Zn241 O245 2.035 . S
Zn241 O247 2.035 . S
Zn241 O248 2.028 . S
O242 C238 1.258 . S
O242 Zn243 2.035 . S
Zn243 O242 2.035 . S
Zn243 O244 2.028 . S
Zn243 O246 2.028 . S
Zn243 O249 2.035 . S
O244 Zn243 2.028 . S
O244 C250 1.247 . S
O245 Zn241 2.035 . S
O245 C250 1.258 . S
O246 C239 1.247 . S
O246 Zn243 2.028 . S
O247 C239 1.258 . S
O247 Zn241 2.035 . S
O248 Zn241 2.028 . S
O248 C251 1.247 . S
O249 Zn243 2.035 . S
O249 C251 1.258 . S
C250 O244 1.247 . S
C250 O245 1.258 . S
C251 O248 1.247 . S
C251 O249 1.258 . S
C252 O254 1.247 . S
C252 O256 1.258 . S
C253 O260 1.247 . S
C253 O261 1.258 . S
O254 C252 1.247 . S
O254 Zn255 2.028 . S
Zn255 O254 2.028 . S
Zn255 O259 2.035 . S
Zn255 O261 2.035 . S
Zn255 O262 2.028 . S
O256 C252 1.258 . S
O256 Zn257 2.035 . S
Zn257 O256 2.035 . S
Zn257 O258 2.028 . S
Zn257 O260 2.028 . S
Zn257 O263 2.035 . S
O258 Zn257 2.028 . S
O258 C264 1.247 . S
O259 Zn255 2.035 . S
O259 C264 1.258 . S
O260 C253 1.247 . S
O260 Zn257 2.028 . S
O261 C253 1.258 . S
O261 Zn255 2.035 . S
O262 Zn255 2.028 . S
O262 C265 1.247 . S
O263 Zn257 2.035 . S
O263 C265 1.258 . S
C264 O258 1.247 . S
C264 O259 1.258 . S
C265 O262 1.247 . S
C265 O263 1.258 . S
C266 O268 1.247 . S
C266 O270 1.258 . S
C267 O274 1.247 . S
C267 O275 1.258 . S
O268 C266 1.247 . S
O268 Zn269 2.028 . S
Zn269 O268 2.028 . S
Zn269 O273 2.035 . S
Zn269 O275 2.035 . S
Zn269 O276 2.028 . S
O270 C266 1.258 . S
O270 Zn271 2.035 . S
Zn271 O270 2.035 . S
Zn271 O272 2.028 . S
Zn271 O274 2.028 . S
Zn271 O277 2.035 . S
O272 Zn271 2.028 . S
O272 C278 1.247 . S
O273 Zn269 2.035 . S
O273 C278 1.258 . S
O274 C267 1.247 . S
O274 Zn271 2.028 . S
O275 C267 1.258 . S
O275 Zn269 2.035 . S
O276 Zn269 2.028 . S
O276 C279 1.247 . S
O277 Zn271 2.035 . S
O277 C279 1.258 . S
C278 O272 1.247 . S
C278 O273 1.258 . S
C279 O276 1.247 . S
C279 O277 1.258 . S
C280 O282 1.247 . S
C280 O284 1.258 . S
C281 O288 1.247 . S
C281 O289 1.258 . S
O282 C280 1.247 . S
O282 Zn283 2.028 . S
Zn283 O282 2.028 . S
Zn283 O287 2.035 . S
Zn283 O289 2.035 . S
Zn283 O290 2.028 . S
O284 C280 1.258 . S
O284 Zn285 2.035 . S
Zn285 O284 2.035 . S
Zn285 O286 2.028 . S
Zn285 O288 2.028 . S
Zn285 O291 2.035 . S
O286 Zn285 2.028 . S
O286 C292 1.247 . S
O287 Zn283 2.035 . S
O287 C292 1.258 . S
O288 C281 1.247 . S
O288 Zn285 2.028 . S
O289 C281 1.258 . S
O289 Zn283 2.035 . S
O290 Zn283 2.028 . S
O290 C293 1.247 . S
O291 Zn285 2.035 . S
O291 C293 1.258 . S
C292 O286 1.247 . S
C292 O287 1.258 . S
C293 O290 1.247 . S
C293 O291 1.258 . S
C294 O296 1.247 1_565 S
C294 O298 1.258 . S
C295 O302 1.247 . S
C295 O303 1.258 1_565 S
O296 C294 1.247 1_545 S
O296 Zn297 2.016 1_556 S
Zn297 O296 2.016 1_554 S
Zn297 O301 2.036 . S
Zn297 O303 2.047 . S
Zn297 O304 1.971 1_544 S
O298 C294 1.258 . S
O298 Zn299 2.041 . S
Zn299 O298 2.041 . S
Zn299 O300 2.027 1_556 S
Zn299 O302 2.022 1_556 S
Zn299 O305 2.036 . S
O300 Zn299 2.027 1_554 S
O300 C306 1.247 1_565 S
O301 Zn297 2.036 . S
O301 C306 1.258 . S
O302 C295 1.247 . S
O302 Zn299 2.022 1_554 S
O303 C295 1.258 1_545 S
O303 Zn297 2.047 . S
O304 Zn297 1.971 1_566 S
O304 C307 1.310 . S
O305 Zn299 2.036 . S
O305 C307 1.258 . S
C306 O300 1.247 1_545 S
C306 O301 1.258 . S
C307 O304 1.310 . S
C307 O305 1.258 . S
C308 O310 1.247 . S
C308 O312 1.317 . S
C309 O316 1.247 . S
C309 O317 1.258 1_655 S
O310 C308 1.247 . S
O310 Zn311 2.030 . S
Zn311 O310 2.030 . S
Zn311 O315 2.014 1_556 S
Zn311 O317 2.033 1_556 S
Zn311 O318 2.049 . S
O312 C308 1.317 . S
O312 Zn313 2.041 1_456 S
Zn313 O312 2.041 1_654 S
Zn313 O314 2.028 . S
Zn313 O316 2.028 . S
Zn313 O319 2.035 1_554 S
O314 Zn313 2.028 . S
O314 C320 1.247 1_655 S
O315 Zn311 2.014 1_554 S
O315 C320 1.258 . S
O316 C309 1.247 . S
O316 Zn313 2.028 . S
O317 C309 1.258 1_455 S
O317 Zn311 2.033 1_554 S
O318 Zn311 2.049 . S
O318 C321 1.247 . S
O319 Zn313 2.035 1_556 S
O319 C321 1.258 1_655 S
C320 O314 1.247 1_455 S
C320 O315 1.258 . S
C321 O318 1.247 . S
C321 O319 1.258 1_455 S
C322 O324 1.247 . S
C322 O326 1.258 . S
C323 O330 1.247 . S
C323 O331 1.258 . S
O324 C322 1.247 . S
O324 Zn325 2.027 1_554 S
Zn325 O324 2.027 1_556 S
Zn325 O329 2.041 . S
Zn325 O331 2.036 . S
Zn325 O332 2.022 1_556 S
O326 C322 1.258 . S
O326 Zn327 2.036 . S
Zn327 O326 2.036 . S
Zn327 O328 2.016 1_554 S
Zn327 O330 2.027 1_554 S
Zn327 O333 2.047 . S
O328 Zn327 2.016 1_556 S
O328 C334 1.247 . S
O329 Zn325 2.041 . S
O329 C334 1.258 . S
O330 C323 1.247 . S
O330 Zn327 2.027 1_556 S
O331 C323 1.258 . S
O331 Zn325 2.036 . S
O332 Zn325 2.022 1_554 S
O332 C335 1.247 . S
O333 Zn327 2.047 . S
O333 C335 1.258 . S
C334 O328 1.247 . S
C334 O329 1.258 . S
C335 O332 1.247 . S
C335 O333 1.258 . S
C336 O338 1.247 . S
C336 O340 1.258 . S
C337 O344 1.247 . S
C337 O345 1.258 . S
O338 C336 1.247 . S
O338 Zn339 2.028 . S
Zn339 O338 2.028 . S
Zn339 O343 2.035 . S
Zn339 O345 2.035 . S
Zn339 O346 2.028 . S
O340 C336 1.258 . S
O340 Zn341 2.035 . S
Zn341 O340 2.035 . S
Zn341 O342 2.028 . S
Zn341 O344 2.028 . S
Zn341 O347 2.035 . S
O342 Zn341 2.028 . S
O342 C348 1.247 . S
O343 Zn339 2.035 . S
O343 C348 1.258 . S
O344 C337 1.247 . S
O344 Zn341 2.028 . S
O345 C337 1.258 . S
O345 Zn339 2.035 . S
O346 Zn339 2.028 . S
O346 C349 1.247 . S
O347 Zn341 2.035 . S
O347 C349 1.258 . S
C348 O342 1.247 . S
C348 O343 1.258 . S
C349 O346 1.247 . S
C349 O347 1.258 . S
C350 O352 1.247 . S
C350 O354 1.258 . S
C351 O358 1.247 . S
C351 O359 1.258 . S
O352 C350 1.247 . S
O352 Zn353 2.028 . S
Zn353 O352 2.028 . S
Zn353 O357 2.035 . S
Zn353 O359 2.035 . S
Zn353 O360 2.028 . S
O354 C350 1.258 . S
O354 Zn355 2.035 . S
Zn355 O354 2.035 . S
Zn355 O356 2.028 . S
Zn355 O358 2.028 . S
Zn355 O361 2.035 . S
O356 Zn355 2.028 . S
O356 C362 1.247 . S
O357 Zn353 2.035 . S
O357 C362 1.258 . S
O358 C351 1.247 . S
O358 Zn355 2.028 . S
O359 C351 1.258 . S
O359 Zn353 2.035 . S
O360 Zn353 2.028 . S
O360 C363 1.247 . S
O361 Zn355 2.035 . S
O361 C363 1.258 . S
C362 O356 1.247 . S
C362 O357 1.258 . S
C363 O360 1.247 . S
C363 O361 1.258 . S
C364 O366 1.247 . S
C364 O368 1.258 . S
C365 O372 1.247 . S
C365 O373 1.258 . S
O366 C364 1.247 . S
O366 Zn367 2.028 . S
Zn367 O366 2.028 . S
Zn367 O371 2.035 . S
Zn367 O373 2.035 . S
Zn367 O374 2.028 . S
O368 C364 1.258 . S
O368 Zn369 2.035 . S
Zn369 O368 2.035 . S
Zn369 O370 2.028 . S
Zn369 O372 2.028 . S
Zn369 O375 2.035 . S
O370 Zn369 2.028 . S
O370 C376 1.247 . S
O371 Zn367 2.035 . S
O371 C376 1.258 . S
O372 C365 1.247 . S
O372 Zn369 2.028 . S
O373 C365 1.258 . S
O373 Zn367 2.035 . S
O374 Zn367 2.028 . S
O374 C377 1.247 . S
O375 Zn369 2.035 . S
O375 C377 1.258 . S
C376 O370 1.247 . S
C376 O371 1.258 . S
C377 O374 1.247 . S
C377 O375 1.258 . S
C378 O380 1.247 . S
C378 O382 1.258 1_545 S
C379 O386 1.247 1_545 S
C379 O387 1.258 . S
O380 C378 1.247 . S
O380 Zn381 2.049 . S
Zn381 O380 2.049 . S
Zn381 O385 2.033 1_554 S
Zn381 O387 2.014 1_554 S
Zn381 O388 2.030 . S
O382 C378 1.258 1_565 S
O382 Zn383 2.035 1_554 S
Zn383 O382 2.035 1_556 S
Zn383 O384 2.028 . S
Zn383 O386 2.028 . S
Zn383 O389 1.977 1_566 S
O384 Zn383 2.028 . S
O384 C390 1.247 . S
O385 Zn381 2.033 1_556 S
O385 C390 1.258 1_545 S
O386 C379 1.247 1_565 S
O386 Zn383 2.028 . S
O387 C379 1.258 . S
O387 Zn381 2.014 1_556 S
O388 Zn381 2.030 . S
O388 C391 1.247 . S
O389 Zn383 1.977 1_544 S
O389 C391 1.324 . S
C390 O384 1.247 . S
C390 O385 1.258 1_565 S
C391 O388 1.247 . S
C391 O389 1.324 . S
C392 O394 1.247 . S
C392 O396 1.258 1_455 S
C393 O400 1.247 . S
C393 O401 1.303 . S
O394 C392 1.247 . S
O394 Zn395 2.028 . S
Zn395 O394 2.028 . S
Zn395 O399 2.035 1_556 S
Zn395 O401 2.039 1_456 S
Zn395 O402 2.028 . S
O396 C392 1.258 1_655 S
O396 Zn397 2.033 1_556 S
Zn397 O396 2.033 1_554 S
Zn397 O398 2.049 . S
Zn397 O400 2.030 . S
Zn397 O403 2.014 1_554 S
O398 Zn397 2.049 . S
O398 C404 1.247 . S
O399 Zn395 2.035 1_554 S
O399 C404 1.258 1_455 S
O400 C393 1.247 . S
O400 Zn397 2.030 . S
O401 C393 1.303 . S
O401 Zn395 2.039 1_654 S
O402 Zn395 2.028 . S
O402 C405 1.247 1_455 S
O403 Zn397 2.014 1_556 S
O403 C405 1.258 . S
C404 O398 1.247 . S
C404 O399 1.258 1_655 S
C405 O402 1.247 1_655 S
C405 O403 1.258 . S
C406 O408 1.247 . S
C406 O410 1.258 . S
C407 O414 1.247 . S
C407 O415 1.258 . S
O408 C406 1.247 . S
O408 Zn409 2.049 . S
Zn409 O408 2.049 . S
Zn409 O413 2.033 1_554 S
Zn409 O415 2.014 1_554 S
Zn409 O416 2.030 . S
O410 C406 1.258 . S
O410 Zn411 2.035 1_554 S
Zn411 O410 2.035 1_556 S
Zn411 O412 2.028 . S
Zn411 O414 2.028 . S
Zn411 O417 2.035 1_556 S
O412 Zn411 2.028 . S
O412 C418 1.247 . S
O413 Zn409 2.033 1_556 S
O413 C418 1.258 . S
O414 C407 1.247 . S
O414 Zn411 2.028 . S
O415 C407 1.258 . S
O415 Zn409 2.014 1_556 S
O416 Zn409 2.030 . S
O416 C419 1.247 . S
O417 Zn411 2.035 1_554 S
O417 C419 1.258 . S
C418 O412 1.247 . S
C418 O413 1.258 . S
C419 O416 1.247 . S
C419 O417 1.258 . S
C420 O422 1.247 1_655 S
C420 O424 1.258 . S
C421 O428 1.247 . S
C421 O429 1.258 1_655 S
O422 C420 1.247 1_455 S
O422 Zn423 2.028 . S
Zn423 O422 2.028 . S
Zn423 O427 2.035 . S
Zn423 O429 2.035 . S
Zn423 O430 2.028 . S
O424 C420 1.258 . S
O424 Zn425 2.035 . S
Zn425 O424 2.035 . S
Zn425 O426 2.028 . S
Zn425 O428 2.028 . S
Zn425 O431 2.035 . S
O426 Zn425 2.028 . S
O426 C432 1.247 1_655 S
O427 Zn423 2.035 . S
O427 C432 1.258 . S
O428 C421 1.247 . S
O428 Zn425 2.028 . S
O429 C421 1.258 1_455 S
O429 Zn423 2.035 . S
O430 Zn423 2.028 . S
O430 C433 1.247 1_455 S
O431 Zn425 2.035 . S
O431 C433 1.258 . S
C432 O426 1.247 1_455 S
C432 O427 1.258 . S
C433 O430 1.247 1_655 S
C433 O431 1.258 . S
C434 O436 1.247 . S
C434 O438 1.258 . S
C435 O442 1.247 . S
C435 O443 1.258 . S
O436 C434 1.247 . S
O436 Zn437 2.028 . S
Zn437 O436 2.028 . S
Zn437 O441 2.035 . S
Zn437 O443 2.035 . S
Zn437 O444 2.028 . S
O438 C434 1.258 . S
O438 Zn439 2.035 . S
Zn439 O438 2.035 . S
Zn439 O440 2.028 . S
Zn439 O442 2.028 . S
Zn439 O445 2.035 . S
O440 Zn439 2.028 . S
O440 C446 1.247 . S
O441 Zn437 2.035 . S
O441 C446 1.258 . S
O442 C435 1.247 . S
O442 Zn439 2.028 . S
O443 C435 1.258 . S
O443 Zn437 2.035 . S
O444 Zn437 2.028 . S
O444 C447 1.247 . S
O445 Zn439 2.035 . S
O445 C447 1.258 . S
C446 O440 1.247 . S
C446 O441 1.258 . S
C447 O444 1.247 . S
C447 O445 1.258 . S
C448 O450 1.247 . S
C448 O452 1.258 1_545 S
C449 O456 1.247 . S
C449 O457 1.258 1_565 S
O450 C448 1.247 . S
O450 Zn451 2.028 . S
Zn451 O450 2.028 . S
Zn451 O455 2.035 . S
Zn451 O457 2.035 . S
Zn451 O458 2.028 . S
O452 C448 1.258 1_565 S
O452 Zn453 2.035 . S
Zn453 O452 2.035 . S
Zn453 O454 2.028 . S
Zn453 O456 2.028 . S
Zn453 O459 2.035 . S
O454 Zn453 2.028 . S
O454 C460 1.247 1_565 S
O455 Zn451 2.035 . S
O455 C460 1.258 . S
O456 C449 1.247 . S
O456 Zn453 2.028 . S
O457 C449 1.258 1_545 S
O457 Zn451 2.035 . S
O458 Zn451 2.028 . S
O458 C461 1.247 . S
O459 Zn453 2.035 . S
O459 C461 1.258 1_565 S
C460 O454 1.247 1_545 S
C460 O455 1.258 . S
C461 O458 1.247 . S
C461 O459 1.258 1_545 S
C462 O464 1.247 . S
C462 O466 1.258 . S
C463 O470 1.247 . S
C463 O471 1.258 . S
O464 C462 1.247 . S
O464 Zn465 2.028 . S
Zn465 O464 2.028 . S
Zn465 O469 2.035 . S
Zn465 O471 2.035 . S
Zn465 O472 2.028 . S
O466 C462 1.258 . S
O466 Zn467 2.035 . S
Zn467 O466 2.035 . S
Zn467 O468 2.028 . S
Zn467 O470 2.028 . S
Zn467 O473 2.035 . S
O468 Zn467 2.028 . S
O468 C474 1.247 . S
O469 Zn465 2.035 . S
O469 C474 1.258 . S
O470 C463 1.247 . S
O470 Zn467 2.028 . S
O471 C463 1.258 . S
O471 Zn465 2.035 . S
O472 Zn465 2.028 . S
O472 C475 1.247 . S
O473 Zn467 2.035 . S
O473 C475 1.258 . S
C474 O468 1.247 . S
C474 O469 1.258 . S
C475 O472 1.247 . S
C475 O473 1.258 . S
C476 O478 1.247 . S
C476 O480 1.258 . S
C477 O484 1.247 . S
C477 O485 1.258 . S
O478 C476 1.247 . S
O478 Zn479 2.028 . S
Zn479 O478 2.028 . S
Zn479 O483 2.035 . S
Zn479 O485 2.035 . S
Zn479 O486 2.028 . S
O480 C476 1.258 . S
O480 Zn481 2.035 . S
Zn481 O480 2.035 . S
Zn481 O482 2.028 . S
Zn481 O484 2.028 . S
Zn481 O487 2.035 . S
O482 Zn481 2.028 . S
O482 C488 1.247 . S
O483 Zn479 2.035 . S
O483 C488 1.258 . S
O484 C477 1.247 . S
O484 Zn481 2.028 . S
O485 C477 1.258 . S
O485 Zn479 2.035 . S
O486 Zn479 2.028 . S
O486 C489 1.247 . S
O487 Zn481 2.035 . S
O487 C489 1.258 . S
C488 O482 1.247 . S
C488 O483 1.258 . S
C489 O486 1.247 . S
C489 O487 1.258 . S
C490 O492 1.247 . S
C490 O494 1.258 . S
C491 O498 1.247 . S
C491 O499 1.258 . S
O492 C490 1.247 . S
O492 Zn493 2.028 . S
Zn493 O492 2.028 . S
Zn493 O497 2.035 . S
Zn493 O499 2.035 . S
Zn493 O500 2.028 . S
O494 C490 1.258 . S
O494 Zn495 2.035 . S
Zn495 O494 2.035 . S
Zn495 O496 2.028 . S
Zn495 O498 2.028 . S
Zn495 O501 2.035 . S
O496 Zn495 2.028 . S
O496 C502 1.247 . S
O497 Zn493 2.035 . S
O497 C502 1.258 . S
O498 C491 1.247 . S
O498 Zn495 2.028 . S
O499 C491 1.258 . S
O499 Zn493 2.035 . S
O500 Zn493 2.028 . S
O500 C503 1.247 . S
O501 Zn495 2.035 . S
O501 C503 1.258 . S
C502 O496 1.247 . S
C502 O497 1.258 . S
C503 O500 1.247 . S
C503 O501 1.258 . S
C504 C505 1.391 . S
C504 C506 1.394 . S
C504 H520 0.931 . S
C505 C504 1.391 . S
C505 C509 1.376 . S
C506 C504 1.394 . S
C506 C507 1.369 . S
C506 C510 1.531 . S
C507 C506 1.369 . S
C507 C508 1.410 . S
C507 C515 1.503 . S
C508 C507 1.410 . S
C508 C509 1.392 . S
C508 C511 1.511 . S
C509 C505 1.376 . S
C509 C508 1.392 . S
C509 H521 0.929 . S
C510 C506 1.531 . S
C510 H522 0.960 . S
C510 H523 0.962 . S
C510 H524 0.960 . S
C511 C508 1.511 . S
C511 H525 0.961 . S
C511 H526 0.961 . S
C511 H527 0.961 . S
C512 C513 1.370 . S
C512 C514 1.363 . S
C512 H528 0.931 . S
C513 C512 1.370 . S
C513 C517 1.408 . S
C514 C512 1.363 . S
C514 C515 1.370 . S
C514 C518 1.524 . S
C515 C507 1.503 . S
C515 C514 1.370 . S
C515 C516 1.403 . S
C516 C515 1.403 . S
C516 C517 1.404 . S
C516 C519 1.539 . S
C517 C513 1.408 . S
C517 C516 1.404 . S
C517 H529 0.930 . S
C518 C514 1.524 . S
C518 H530 0.956 . S
C518 H531 0.961 . S
C518 H532 0.961 . S
C519 C516 1.539 . S
C519 H533 0.958 . S
C519 H534 0.961 . S
C519 H535 0.960 . S
H520 C504 0.931 . S
H521 C509 0.929 . S
H522 C510 0.960 . S
H523 C510 0.962 . S
H524 C510 0.960 . S
H525 C511 0.961 . S
H526 C511 0.961 . S
H527 C511 0.961 . S
H528 C512 0.931 . S
H529 C517 0.930 . S
H530 C518 0.956 . S
H531 C518 0.961 . S
H532 C518 0.961 . S
H533 C519 0.958 . S
H534 C519 0.961 . S
H535 C519 0.960 . S
C536 C537 1.391 . S
C536 C538 1.394 . S
C536 H552 0.931 . S
C537 C536 1.391 . S
C537 C541 1.376 . S
C538 C536 1.394 . S
C538 C539 1.369 . S
C538 C542 1.531 . S
C539 C538 1.369 . S
C539 C540 1.410 . S
C539 C547 1.503 . S
C540 C539 1.410 . S
C540 C541 1.392 . S
C540 C543 1.511 . S
C541 C537 1.376 . S
C541 C540 1.392 . S
C541 H553 0.929 . S
C542 C538 1.531 . S
C542 H554 0.960 . S
C542 H555 0.962 . S
C542 H556 0.960 . S
C543 C540 1.511 . S
C543 H557 0.961 . S
C543 H558 0.961 . S
C543 H559 0.961 . S
C544 C545 1.370 . S
C544 C546 1.363 . S
C544 H560 0.931 . S
C545 C544 1.370 . S
C545 C549 1.408 . S
C546 C544 1.363 . S
C546 C547 1.370 . S
C546 C550 1.524 . S
C547 C539 1.503 . S
C547 C546 1.370 . S
C547 C548 1.403 . S
C548 C547 1.403 . S
C548 C549 1.404 . S
C548 C551 1.539 . S
C549 C545 1.408 . S
C549 C548 1.404 . S
C549 H561 0.930 . S
C550 C546 1.524 . S
C550 H562 0.956 . S
C550 H563 0.961 . S
C550 H564 0.961 . S
C551 C548 1.539 . S
C551 H565 0.958 . S
C551 H566 0.961 . S
C551 H567 0.960 . S
H552 C536 0.931 . S
H553 C541 0.929 . S
H554 C542 0.960 . S
H555 C542 0.962 . S
H556 C542 0.960 . S
H557 C543 0.961 . S
H558 C543 0.961 . S
H559 C543 0.961 . S
H560 C544 0.931 . S
H561 C549 0.930 . S
H562 C550 0.956 . S
H563 C550 0.961 . S
H564 C550 0.961 . S
H565 C551 0.958 . S
H566 C551 0.961 . S
H567 C551 0.960 . S
C568 C569 1.391 . S
C568 C570 1.394 . S
C568 H584 0.931 . S
C569 C568 1.391 . S
C569 C573 1.376 . S
C570 C568 1.394 . S
C570 C571 1.369 . S
C570 C574 1.531 . S
C571 C570 1.369 . S
C571 C572 1.410 . S
C571 C579 1.503 . S
C572 C571 1.410 . S
C572 C573 1.392 . S
C572 C575 1.511 . S
C573 C569 1.376 . S
C573 C572 1.392 . S
C573 H585 0.929 . S
C574 C570 1.531 . S
C574 H586 0.960 . S
C574 H587 0.962 . S
C574 H588 0.960 . S
C575 C572 1.511 . S
C575 H589 0.961 . S
C575 H590 0.961 . S
C575 H591 0.961 . S
C576 C577 1.370 . S
C576 C578 1.363 . S
C576 H592 0.931 . S
C577 C576 1.370 . S
C577 C581 1.408 . S
C578 C576 1.363 . S
C578 C579 1.370 . S
C578 C582 1.524 . S
C579 C571 1.503 . S
C579 C578 1.370 . S
C579 C580 1.403 . S
C580 C579 1.403 . S
C580 C581 1.404 . S
C580 C583 1.539 . S
C581 C577 1.408 . S
C581 C580 1.404 . S
C581 H593 0.930 . S
C582 C578 1.524 . S
C582 H594 0.956 . S
C582 H595 0.961 . S
C582 H596 0.961 . S
C583 C580 1.539 . S
C583 H597 0.958 . S
C583 H598 0.961 . S
C583 H599 0.960 . S
H584 C568 0.931 . S
H585 C573 0.929 . S
H586 C574 0.960 . S
H587 C574 0.962 . S
H588 C574 0.960 . S
H589 C575 0.961 . S
H590 C575 0.961 . S
H591 C575 0.961 . S
H592 C576 0.931 . S
H593 C581 0.930 . S
H594 C582 0.956 . S
H595 C582 0.961 . S
H596 C582 0.961 . S
H597 C583 0.958 . S
H598 C583 0.961 . S
H599 C583 0.960 . S
C600 C601 1.391 . S
C600 C602 1.394 1_556 S
C600 H616 0.931 . S
C601 C600 1.391 . S
C601 C605 1.376 . S
C602 C600 1.394 1_554 S
C602 C603 1.369 . S
C602 C606 1.531 . S
C603 C602 1.369 . S
C603 C604 1.410 . S
C603 C611 1.503 . S
C604 C603 1.410 . S
C604 C605 1.392 1_554 S
C604 C607 1.511 . S
C605 C601 1.376 . S
C605 C604 1.392 1_556 S
C605 H617 0.929 . S
C606 C602 1.531 . S
C606 H618 0.960 . S
C606 H619 0.962 . S
C606 H620 0.960 . S
C607 C604 1.511 . S
C607 H621 0.961 . S
C607 H622 0.961 . S
C607 H623 0.961 . S
C608 C609 1.370 . S
C608 C610 1.363 . S
C608 H624 0.931 . S
C609 C608 1.370 . S
C609 C613 1.408 . S
C610 C608 1.363 . S
C610 C611 1.370 . S
C610 C614 1.524 . S
C611 C603 1.503 . S
C611 C610 1.370 . S
C611 C612 1.403 . S
C612 C611 1.403 . S
C612 C613 1.404 . S
C612 C615 1.539 . S
C613 C609 1.408 . S
C613 C612 1.404 . S
C613 H625 0.930 . S
C614 C610 1.524 . S
C614 H626 0.956 . S
C614 H627 0.961 . S
C614 H628 0.961 . S
C615 C612 1.539 . S
C615 H629 0.958 . S
C615 H630 0.961 . S
C615 H631 0.960 . S
H616 C600 0.931 . S
H617 C605 0.929 . S
H618 C606 0.960 . S
H619 C606 0.962 . S
H620 C606 0.960 . S
H621 C607 0.961 . S
H622 C607 0.961 . S
H623 C607 0.961 . S
H624 C608 0.931 . S
H625 C613 0.930 . S
H626 C614 0.956 . S
H627 C614 0.961 . S
H628 C614 0.961 . S
H629 C615 0.958 . S
H630 C615 0.961 . S
H631 C615 0.960 . S
C632 C633 1.391 . S
C632 C634 1.394 . S
C632 H648 0.931 . S
C633 C632 1.391 . S
C633 C637 1.376 . S
C634 C632 1.394 . S
C634 C635 1.369 . S
C634 C638 1.531 . S
C635 C634 1.369 . S
C635 C636 1.410 . S
C635 C643 1.503 . S
C636 C635 1.410 . S
C636 C637 1.392 . S
C636 C639 1.511 . S
C637 C633 1.376 . S
C637 C636 1.392 . S
C637 H649 0.929 . S
C638 C634 1.531 . S
C638 H650 0.960 . S
C638 H651 0.962 . S
C638 H652 0.960 . S
C639 C636 1.511 . S
C639 H653 0.961 . S
C639 H654 0.961 . S
C639 H655 0.961 . S
C640 C641 1.370 . S
C640 C642 1.363 1_556 S
C640 H656 0.931 . S
C641 C640 1.370 . S
C641 C645 1.408 . S
C642 C640 1.363 1_554 S
C642 C643 1.370 . S
C642 C646 1.524 . S
C643 C635 1.503 . S
C643 C642 1.370 . S
C643 C644 1.403 . S
C644 C643 1.403 . S
C644 C645 1.404 1_554 S
C644 C647 1.539 . S
C645 C641 1.408 . S
C645 C644 1.404 1_556 S
C645 H657 0.930 . S
C646 C642 1.524 . S
C646 H658 0.956 . S
C646 H659 0.961 . S
C646 H660 0.961 . S
C647 C644 1.539 . S
C647 H661 0.958 . S
C647 H662 0.961 . S
C647 H663 0.960 . S
H648 C632 0.931 . S
H649 C637 0.929 . S
H650 C638 0.960 . S
H651 C638 0.962 . S
H652 C638 0.960 . S
H653 C639 0.961 . S
H654 C639 0.961 . S
H655 C639 0.961 . S
H656 C640 0.931 . S
H657 C645 0.930 . S
H658 C646 0.956 . S
H659 C646 0.961 . S
H660 C646 0.961 . S
H661 C647 0.958 . S
H662 C647 0.961 . S
H663 C647 0.960 . S
C664 C665 1.391 . S
C664 C666 1.394 . S
C664 H680 0.931 . S
C665 C664 1.391 . S
C665 C669 1.376 . S
C666 C664 1.394 . S
C666 C667 1.369 . S
C666 C670 1.531 . S
C667 C666 1.369 . S
C667 C668 1.410 . S
C667 C675 1.503 . S
C668 C667 1.410 . S
C668 C669 1.392 . S
C668 C671 1.511 . S
C669 C665 1.376 . S
C669 C668 1.392 . S
C669 H681 0.929 . S
C670 C666 1.531 . S
C670 H682 0.960 . S
C670 H683 0.962 . S
C670 H684 0.960 . S
C671 C668 1.511 . S
C671 H685 0.961 . S
C671 H686 0.961 . S
C671 H687 0.961 . S
C672 C673 1.370 . S
C672 C674 1.363 1_556 S
C672 H688 0.931 . S
C673 C672 1.370 . S
C673 C677 1.408 . S
C674 C672 1.363 1_554 S
C674 C675 1.370 . S
C674 C678 1.524 . S
C675 C667 1.503 . S
C675 C674 1.370 . S
C675 C676 1.403 . S
C676 C675 1.403 . S
C676 C677 1.404 1_554 S
C676 C679 1.539 . S
C677 C673 1.408 . S
C677 C676 1.404 1_556 S
C677 H689 0.930 . S
C678 C674 1.524 . S
C678 H690 0.956 . S
C678 H691 0.961 . S
C678 H692 0.961 . S
C679 C676 1.539 . S
C679 H693 0.958 . S
C679 H694 0.961 . S
C679 H695 0.960 . S
H680 C664 0.931 . S
H681 C669 0.929 . S
H682 C670 0.960 . S
H683 C670 0.962 . S
H684 C670 0.960 . S
H685 C671 0.961 . S
H686 C671 0.961 . S
H687 C671 0.961 . S
H688 C672 0.931 . S
H689 C677 0.930 . S
H690 C678 0.956 . S
H691 C678 0.961 . S
H692 C678 0.961 . S
H693 C679 0.958 . S
H694 C679 0.961 . S
H695 C679 0.960 . S
C696 C697 1.391 . S
C696 C698 1.394 . S
C696 H712 0.931 . S
C697 C696 1.391 . S
C697 C701 1.376 . S
C698 C696 1.394 . S
C698 C699 1.369 . S
C698 C702 1.531 . S
C699 C698 1.369 . S
C699 C700 1.410 . S
C699 C707 1.503 . S
C700 C699 1.410 . S
C700 C701 1.392 . S
C700 C703 1.511 . S
C701 C697 1.376 . S
C701 C700 1.392 . S
C701 H713 0.929 . S
C702 C698 1.531 . S
C702 H714 0.960 . S
C702 H715 0.962 . S
C702 H716 0.960 . S
C703 C700 1.511 . S
C703 H717 0.961 . S
C703 H718 0.961 . S
C703 H719 0.961 . S
C704 C705 1.370 . S
C704 C706 1.363 . S
C704 H720 0.931 . S
C705 C704 1.370 . S
C705 C709 1.408 . S
C706 C704 1.363 . S
C706 C707 1.370 . S
C706 C710 1.524 . S
C707 C699 1.503 . S
C707 C706 1.370 . S
C707 C708 1.403 . S
C708 C707 1.403 . S
C708 C709 1.404 . S
C708 C711 1.539 . S
C709 C705 1.408 . S
C709 C708 1.404 . S
C709 H721 0.930 . S
C710 C706 1.524 . S
C710 H722 0.956 . S
C710 H723 0.961 . S
C710 H724 0.961 . S
C711 C708 1.539 . S
C711 H725 0.958 . S
C711 H726 0.961 . S
C711 H727 0.960 . S
H712 C696 0.931 . S
H713 C701 0.929 . S
H714 C702 0.960 . S
H715 C702 0.962 . S
H716 C702 0.960 . S
H717 C703 0.961 . S
H718 C703 0.961 . S
H719 C703 0.961 . S
H720 C704 0.931 . S
H721 C709 0.930 . S
H722 C710 0.956 . S
H723 C710 0.961 . S
H724 C710 0.961 . S
H725 C711 0.958 . S
H726 C711 0.961 . S
H727 C711 0.960 . S
C728 C729 1.391 . S
C728 C730 1.394 . S
C728 H744 0.931 . S
C729 C728 1.391 . S
C729 C733 1.376 . S
C730 C728 1.394 . S
C730 C731 1.369 . S
C730 C734 1.531 . S
C731 C730 1.369 . S
C731 C732 1.410 . S
C731 C739 1.503 . S
C732 C731 1.410 . S
C732 C733 1.392 . S
C732 C735 1.511 . S
C733 C729 1.376 . S
C733 C732 1.392 . S
C733 H745 0.929 . S
C734 C730 1.531 . S
C734 H746 0.960 . S
C734 H747 0.962 . S
C734 H748 0.960 . S
C735 C732 1.511 . S
C735 H749 0.961 . S
C735 H750 0.961 . S
C735 H751 0.961 . S
C736 C737 1.370 . S
C736 C738 1.363 . S
C736 H752 0.931 . S
C737 C736 1.370 . S
C737 C741 1.408 . S
C738 C736 1.363 . S
C738 C739 1.370 . S
C738 C742 1.524 . S
C739 C731 1.503 . S
C739 C738 1.370 . S
C739 C740 1.403 . S
C740 C739 1.403 . S
C740 C741 1.404 . S
C740 C743 1.539 . S
C741 C737 1.408 . S
C741 C740 1.404 . S
C741 H753 0.930 . S
C742 C738 1.524 . S
C742 H754 0.956 . S
C742 H755 0.961 . S
C742 H756 0.961 . S
C743 C740 1.539 . S
C743 H757 0.958 . S
C743 H758 0.961 . S
C743 H759 0.960 . S
H744 C728 0.931 . S
H745 C733 0.929 . S
H746 C734 0.960 . S
H747 C734 0.962 . S
H748 C734 0.960 . S
H749 C735 0.961 . S
H750 C735 0.961 . S
H751 C735 0.961 . S
H752 C736 0.931 . S
H753 C741 0.930 . S
H754 C742 0.956 . S
H755 C742 0.961 . S
H756 C742 0.961 . S
H757 C743 0.958 . S
H758 C743 0.961 . S
H759 C743 0.960 . S
C760 C761 1.391 . S
C760 C762 1.394 . S
C760 H776 0.931 . S
C761 C760 1.391 . S
C761 C765 1.376 . S
C762 C760 1.394 . S
C762 C763 1.369 . S
C762 C766 1.531 . S
C763 C762 1.369 . S
C763 C764 1.410 . S
C763 C771 1.503 . S
C764 C763 1.410 . S
C764 C765 1.392 . S
C764 C767 1.511 . S
C765 C761 1.376 . S
C765 C764 1.392 . S
C765 H777 0.929 . S
C766 C762 1.531 . S
C766 H778 0.960 . S
C766 H779 0.962 . S
C766 H780 0.960 . S
C767 C764 1.511 . S
C767 H781 0.961 . S
C767 H782 0.961 . S
C767 H783 0.961 . S
C768 C769 1.370 . S
C768 C770 1.363 . S
C768 H784 0.931 . S
C769 C768 1.370 . S
C769 C773 1.408 . S
C770 C768 1.363 . S
C770 C771 1.370 . S
C770 C774 1.524 . S
C771 C763 1.503 . S
C771 C770 1.370 . S
C771 C772 1.403 . S
C772 C771 1.403 . S
C772 C773 1.404 . S
C772 C775 1.539 . S
C773 C769 1.408 . S
C773 C772 1.404 . S
C773 H785 0.930 . S
C774 C770 1.524 . S
C774 H786 0.956 . S
C774 H787 0.961 . S
C774 H788 0.961 . S
C775 C772 1.539 . S
C775 H789 0.958 . S
C775 H790 0.961 . S
C775 H791 0.960 . S
H776 C760 0.931 . S
H777 C765 0.929 . S
H778 C766 0.960 . S
H779 C766 0.962 . S
H780 C766 0.960 . S
H781 C767 0.961 . S
H782 C767 0.961 . S
H783 C767 0.961 . S
H784 C768 0.931 . S
H785 C773 0.930 . S
H786 C774 0.956 . S
H787 C774 0.961 . S
H788 C774 0.961 . S
H789 C775 0.958 . S
H790 C775 0.961 . S
H791 C775 0.960 . S
C792 C793 1.391 . S
C792 C794 1.394 . S
C792 H808 0.931 . S
C793 C792 1.391 . S
C793 C797 1.376 . S
C794 C792 1.394 . S
C794 C795 1.369 . S
C794 C798 1.531 . S
C795 C794 1.369 . S
C795 C796 1.410 . S
C795 C803 1.503 . S
C796 C795 1.410 . S
C796 C797 1.392 . S
C796 C799 1.511 . S
C797 C793 1.376 . S
C797 C796 1.392 . S
C797 H809 0.929 . S
C798 C794 1.531 . S
C798 H810 0.960 . S
C798 H811 0.962 . S
C798 H812 0.960 . S
C799 C796 1.511 . S
C799 H813 0.961 . S
C799 H814 0.961 . S
C799 H815 0.961 . S
C800 C801 1.370 . S
C800 C802 1.363 1_554 S
C800 H816 0.931 . S
C801 C800 1.370 . S
C801 C805 1.408 . S
C802 C800 1.363 1_556 S
C802 C803 1.370 . S
C802 C806 1.524 . S
C803 C795 1.503 . S
C803 C802 1.370 . S
C803 C804 1.403 . S
C804 C803 1.403 . S
C804 C805 1.404 1_556 S
C804 C807 1.539 . S
C805 C801 1.408 . S
C805 C804 1.404 1_554 S
C805 H817 0.930 . S
C806 C802 1.524 . S
C806 H818 0.956 . S
C806 H819 0.961 . S
C806 H820 0.961 . S
C807 C804 1.539 . S
C807 H821 0.958 . S
C807 H822 0.961 . S
C807 H823 0.960 . S
H808 C792 0.931 . S
H809 C797 0.929 . S
H810 C798 0.960 . S
H811 C798 0.962 . S
H812 C798 0.960 . S
H813 C799 0.961 . S
H814 C799 0.961 . S
H815 C799 0.961 . S
H816 C800 0.931 . S
H817 C805 0.930 . S
H818 C806 0.956 . S
H819 C806 0.961 . S
H820 C806 0.961 . S
H821 C807 0.958 . S
H822 C807 0.961 . S
H823 C807 0.960 . S
C824 C825 1.391 . S
C824 C826 1.394 1_554 S
C824 H840 0.931 . S
C825 C824 1.391 . S
C825 C829 1.376 . S
C826 C824 1.394 1_556 S
C826 C827 1.369 . S
C826 C830 1.531 . S
C827 C826 1.369 . S
C827 C828 1.410 . S
C827 C835 1.503 . S
C828 C827 1.410 . S
C828 C829 1.392 1_556 S
C828 C831 1.511 . S
C829 C825 1.376 . S
C829 C828 1.392 1_554 S
C829 H841 0.929 . S
C830 C826 1.531 . S
C830 H842 0.960 . S
C830 H843 0.962 . S
C830 H844 0.960 . S
C831 C828 1.511 . S
C831 H845 0.961 . S
C831 H846 0.961 . S
C831 H847 0.961 . S
C832 C833 1.370 . S
C832 C834 1.363 . S
C832 H848 0.931 . S
C833 C832 1.370 . S
C833 C837 1.408 . S
C834 C832 1.363 . S
C834 C835 1.370 . S
C834 C838 1.524 . S
C835 C827 1.503 . S
C835 C834 1.370 . S
C835 C836 1.403 . S
C836 C835 1.403 . S
C836 C837 1.404 . S
C836 C839 1.539 . S
C837 C833 1.408 . S
C837 C836 1.404 . S
C837 H849 0.930 . S
C838 C834 1.524 . S
C838 H850 0.956 . S
C838 H851 0.961 . S
C838 H852 0.961 . S
C839 C836 1.539 . S
C839 H853 0.958 . S
C839 H854 0.961 . S
C839 H855 0.960 . S
H840 C824 0.931 . S
H841 C829 0.929 . S
H842 C830 0.960 . S
H843 C830 0.962 . S
H844 C830 0.960 . S
H845 C831 0.961 . S
H846 C831 0.961 . S
H847 C831 0.961 . S
H848 C832 0.931 . S
H849 C837 0.930 . S
H850 C838 0.956 . S
H851 C838 0.961 . S
H852 C838 0.961 . S
H853 C839 0.958 . S
H854 C839 0.961 . S
H855 C839 0.960 . S
C856 C857 1.391 . S
C856 C858 1.394 . S
C856 H872 0.931 . S
C857 C856 1.391 . S
C857 C861 1.376 . S
C858 C856 1.394 . S
C858 C859 1.369 . S
C858 C862 1.531 . S
C859 C858 1.369 . S
C859 C860 1.410 . S
C859 C867 1.503 . S
C860 C859 1.410 . S
C860 C861 1.392 . S
C860 C863 1.511 . S
C861 C857 1.376 . S
C861 C860 1.392 . S
C861 H873 0.929 . S
C862 C858 1.531 . S
C862 H874 0.960 . S
C862 H875 0.962 . S
C862 H876 0.960 . S
C863 C860 1.511 . S
C863 H877 0.961 . S
C863 H878 0.961 . S
C863 H879 0.961 . S
C864 C865 1.370 . S
C864 C866 1.363 1_554 S
C864 H880 0.931 . S
C865 C864 1.370 . S
C865 C869 1.408 . S
C866 C864 1.363 1_556 S
C866 C867 1.370 . S
C866 C870 1.524 . S
C867 C859 1.503 . S
C867 C866 1.370 . S
C867 C868 1.403 . S
C868 C867 1.403 . S
C868 C869 1.404 1_556 S
C868 C871 1.539 . S
C869 C865 1.408 . S
C869 C868 1.404 1_554 S
C869 H881 0.930 . S
C870 C866 1.524 . S
C870 H882 0.956 . S
C870 H883 0.961 . S
C870 H884 0.961 . S
C871 C868 1.539 . S
C871 H885 0.958 . S
C871 H886 0.961 . S
C871 H887 0.960 . S
H872 C856 0.931 . S
H873 C861 0.929 . S
H874 C862 0.960 . S
H875 C862 0.962 . S
H876 C862 0.960 . S
H877 C863 0.961 . S
H878 C863 0.961 . S
H879 C863 0.961 . S
H880 C864 0.931 . S
H881 C869 0.930 . S
H882 C870 0.956 . S
H883 C870 0.961 . S
H884 C870 0.961 . S
H885 C871 0.958 . S
H886 C871 0.961 . S
H887 C871 0.960 . S
C888 C889 1.391 1_455 S
C888 C890 1.394 . S
C888 H904 0.931 . S
C889 C888 1.391 1_655 S
C889 C893 1.376 . S
C890 C888 1.394 . S
C890 C891 1.369 1_455 S
C890 C894 1.531 . S
C891 C890 1.369 1_655 S
C891 C892 1.410 . S
C891 C899 1.503 . S
C892 C891 1.410 . S
C892 C893 1.392 . S
C892 C895 1.511 . S
C893 C889 1.376 . S
C893 C892 1.392 . S
C893 H905 0.929 . S
C894 C890 1.531 . S
C894 H906 0.960 . S
C894 H907 0.962 . S
C894 H908 0.960 . S
C895 C892 1.511 . S
C895 H909 0.961 . S
C895 H910 0.961 . S
C895 H911 0.961 . S
C896 C897 1.370 . S
C896 C898 1.363 . S
C896 H912 0.931 . S
C897 C896 1.370 . S
C897 C901 1.408 1_455 S
C898 C896 1.363 . S
C898 C899 1.370 1_455 S
C898 C902 1.524 . S
C899 C891 1.503 . S
C899 C898 1.370 1_655 S
C899 C900 1.403 . S
C900 C899 1.403 . S
C900 C901 1.404 . S
C900 C903 1.539 . S
C901 C897 1.408 1_655 S
C901 C900 1.404 . S
C901 H913 0.930 . S
C902 C898 1.524 . S
C902 H914 0.956 . S
C902 H915 0.961 . S
C902 H916 0.961 . S
C903 C900 1.539 . S
C903 H917 0.958 . S
C903 H918 0.961 . S
C903 H919 0.960 . S
H904 C888 0.931 . S
H905 C893 0.929 . S
H906 C894 0.960 . S
H907 C894 0.962 . S
H908 C894 0.960 . S
H909 C895 0.961 . S
H910 C895 0.961 . S
H911 C895 0.961 . S
H912 C896 0.931 . S
H913 C901 0.930 . S
H914 C902 0.956 . S
H915 C902 0.961 . S
H916 C902 0.961 . S
H917 C903 0.958 . S
H918 C903 0.961 . S
H919 C903 0.960 . S
C920 C921 1.391 . S
C920 C922 1.394 . S
C920 H936 0.931 . S
C921 C920 1.391 . S
C921 C925 1.376 . S
C922 C920 1.394 . S
C922 C923 1.369 . S
C922 C926 1.531 . S
C923 C922 1.369 . S
C923 C924 1.410 . S
C923 C931 1.503 . S
C924 C923 1.410 . S
C924 C925 1.392 . S
C924 C927 1.511 . S
C925 C921 1.376 . S
C925 C924 1.392 . S
C925 H937 0.929 . S
C926 C922 1.531 . S
C926 H938 0.960 . S
C926 H939 0.962 . S
C926 H940 0.960 . S
C927 C924 1.511 . S
C927 H941 0.961 . S
C927 H942 0.961 . S
C927 H943 0.961 . S
C928 C929 1.370 . S
C928 C930 1.363 . S
C928 H944 0.931 . S
C929 C928 1.370 . S
C929 C933 1.408 . S
C930 C928 1.363 . S
C930 C931 1.370 . S
C930 C934 1.524 . S
C931 C923 1.503 . S
C931 C930 1.370 . S
C931 C932 1.403 . S
C932 C931 1.403 . S
C932 C933 1.404 . S
C932 C935 1.539 . S
C933 C929 1.408 . S
C933 C932 1.404 . S
C933 H945 0.930 . S
C934 C930 1.524 . S
C934 H946 0.956 . S
C934 H947 0.961 . S
C934 H948 0.961 . S
C935 C932 1.539 . S
C935 H949 0.958 . S
C935 H950 0.961 . S
C935 H951 0.960 . S
H936 C920 0.931 . S
H937 C925 0.929 . S
H938 C926 0.960 . S
H939 C926 0.962 . S
H940 C926 0.960 . S
H941 C927 0.961 . S
H942 C927 0.961 . S
H943 C927 0.961 . S
H944 C928 0.931 . S
H945 C933 0.930 . S
H946 C934 0.956 . S
H947 C934 0.961 . S
H948 C934 0.961 . S
H949 C935 0.958 . S
H950 C935 0.961 . S
H951 C935 0.960 . S
C952 C953 1.391 . S
C952 C954 1.394 . S
C952 H968 0.931 . S
C953 C952 1.391 . S
C953 C957 1.376 1_545 S
C954 C952 1.394 . S
C954 C955 1.369 . S
C954 C958 1.531 . S
C955 C954 1.369 . S
C955 C956 1.410 1_545 S
C955 C963 1.503 . S
C956 C955 1.410 1_565 S
C956 C957 1.392 . S
C956 C959 1.511 . S
C957 C953 1.376 1_565 S
C957 C956 1.392 . S
C957 H969 0.929 . S
C958 C954 1.531 . S
C958 H970 0.960 . S
C958 H971 0.962 . S
C958 H972 0.960 . S
C959 C956 1.511 . S
C959 H973 0.961 . S
C959 H974 0.961 . S
C959 H975 0.961 . S
C960 C961 1.370 . S
C960 C962 1.363 . S
C960 H976 0.931 . S
C961 C960 1.370 . S
C961 C965 1.408 1_565 S
C962 C960 1.363 . S
C962 C963 1.370 1_565 S
C962 C966 1.524 . S
C963 C955 1.503 . S
C963 C962 1.370 1_545 S
C963 C964 1.403 . S
C964 C963 1.403 . S
C964 C965 1.404 . S
C964 C967 1.539 . S
C965 C961 1.408 1_545 S
C965 C964 1.404 . S
C965 H977 0.930 . S
C966 C962 1.524 . S
C966 H978 0.956 . S
C966 H979 0.961 . S
C966 H980 0.961 . S
C967 C964 1.539 . S
C967 H981 0.958 . S
C967 H982 0.961 . S
C967 H983 0.960 . S
H968 C952 0.931 . S
H969 C957 0.929 . S
H970 C958 0.960 . S
H971 C958 0.962 . S
H972 C958 0.960 . S
H973 C959 0.961 . S
H974 C959 0.961 . S
H975 C959 0.961 . S
H976 C960 0.931 . S
H977 C965 0.930 . S
H978 C966 0.956 . S
H979 C966 0.961 . S
H980 C966 0.961 . S
H981 C967 0.958 . S
H982 C967 0.961 . S
H983 C967 0.960 . S
C984 C985 1.391 1_565 S
C984 C986 1.394 . S
C984 H1000 0.931 . S
C985 C984 1.391 1_545 S
C985 C989 1.376 . S
C986 C984 1.394 . S
C986 C987 1.369 . S
C986 C990 1.531 . S
C987 C986 1.369 . S
C987 C988 1.410 1_565 S
C987 C995 1.503 . S
C988 C987 1.410 1_545 S
C988 C989 1.392 . S
C988 C991 1.511 . S
C989 C985 1.376 . S
C989 C988 1.392 . S
C989 H1001 0.929 . S
C990 C986 1.531 . S
C990 H1002 0.960 . S
C990 H1003 0.962 . S
C990 H1004 0.960 . S
C991 C988 1.511 . S
C991 H1005 0.961 . S
C991 H1006 0.961 . S
C991 H1007 0.961 . S
C992 C993 1.370 1_545 S
C992 C994 1.363 . S
C992 H1008 0.931 . S
C993 C992 1.370 1_565 S
C993 C997 1.408 . S
C994 C992 1.363 . S
C994 C995 1.370 1_545 S
C994 C998 1.524 . S
C995 C987 1.503 . S
C995 C994 1.370 1_565 S
C995 C996 1.403 . S
C996 C995 1.403 . S
C996 C997 1.404 . S
C996 C999 1.539 . S
C997 C993 1.408 . S
C997 C996 1.404 . S
C997 H1009 0.930 . S
C998 C994 1.524 . S
C998 H1010 0.956 . S
C998 H1011 0.961 . S
C998 H1012 0.961 . S
C999 C996 1.539 . S
C999 H1013 0.958 . S
C999 H1014 0.961 . S
C999 H1015 0.960 . S
H1000 C984 0.931 . S
H1001 C989 0.929 . S
H1002 C990 0.960 . S
H1003 C990 0.962 . S
H1004 C990 0.960 . S
H1005 C991 0.961 . S
H1006 C991 0.961 . S
H1007 C991 0.961 . S
H1008 C992 0.931 . S
H1009 C997 0.930 . S
H1010 C998 0.956 . S
H1011 C998 0.961 . S
H1012 C998 0.961 . S
H1013 C999 0.958 . S
H1014 C999 0.961 . S
H1015 C999 0.960 . S
C1016 C1017 1.391 . S
C1016 C1018 1.394 . S
C1016 H1032 0.931 . S
C1017 C1016 1.391 . S
C1017 C1021 1.376 1_655 S
C1018 C1016 1.394 . S
C1018 C1019 1.338 1_655 S
C1018 C1022 1.531 . S
C1019 C1018 1.338 1_455 S
C1019 C1020 1.438 . S
C1019 C1027 1.509 . S
C1020 C1019 1.438 . S
C1020 C1021 1.392 . S
C1020 C1023 1.511 . S
C1021 C1017 1.376 1_455 S
C1021 C1020 1.392 . S
C1021 H1033 0.929 . S
C1022 C1018 1.531 . S
C1022 H1034 0.960 . S
C1022 H1035 0.962 . S
C1022 H1036 0.960 . S
C1023 C1020 1.511 . S
C1023 H1037 0.961 . S
C1023 H1038 0.961 . S
C1023 H1039 0.961 . S
C1024 C1025 1.370 . S
C1024 C1026 1.363 . S
C1024 H1040 0.931 . S
C1025 C1024 1.370 . S
C1025 C1029 1.408 . S
C1026 C1024 1.363 . S
C1026 C1027 1.370 . S
C1026 C1030 1.531 1_455 S
C1027 C1019 1.509 . S
C1027 C1026 1.370 . S
C1027 C1028 1.403 . S
C1028 C1027 1.403 . S
C1028 C1029 1.404 . S
C1028 C1031 1.539 . S
C1029 C1025 1.408 . S
C1029 C1028 1.404 . S
C1029 H1041 0.930 . S
C1030 C1026 1.531 1_655 S
C1030 H1042 0.973 . S
C1030 H1043 0.948 1_655 S
C1030 H1044 0.919 1_655 S
C1031 C1028 1.539 . S
C1031 H1045 0.958 1_455 S
C1031 H1046 0.961 . S
C1031 H1047 0.960 . S
H1032 C1016 0.931 . S
H1033 C1021 0.929 . S
H1034 C1022 0.960 . S
H1035 C1022 0.962 . S
H1036 C1022 0.960 . S
H1037 C1023 0.961 . S
H1038 C1023 0.961 . S
H1039 C1023 0.961 . S
H1040 C1024 0.931 . S
H1041 C1029 0.930 . S
H1042 C1030 0.973 . S
H1043 C1030 0.948 1_455 S
H1044 C1030 0.919 1_455 S
H1045 C1031 0.958 1_655 S
H1046 C1031 0.961 . S
H1047 C1031 0.960 . S
C1048 C1049 1.391 . S
C1048 C1050 1.394 . S
C1048 H1064 0.931 . S
C1049 C1048 1.391 . S
C1049 C1053 1.376 . S
C1050 C1048 1.394 . S
C1050 C1051 1.369 . S
C1050 C1054 1.531 . S
C1051 C1050 1.369 . S
C1051 C1052 1.410 . S
C1051 C1059 1.503 . S
C1052 C1051 1.410 . S
C1052 C1053 1.392 . S
C1052 C1055 1.511 . S
C1053 C1049 1.376 . S
C1053 C1052 1.392 . S
C1053 H1065 0.929 . S
C1054 C1050 1.531 . S
C1054 H1066 0.960 . S
C1054 H1067 0.962 . S
C1054 H1068 0.960 . S
C1055 C1052 1.511 . S
C1055 H1069 0.961 . S
C1055 H1070 0.961 . S
C1055 H1071 0.961 . S
C1056 C1057 1.370 . S
C1056 C1058 1.363 . S
C1056 H1072 0.931 . S
C1057 C1056 1.370 . S
C1057 C1061 1.408 . S
C1058 C1056 1.363 . S
C1058 C1059 1.370 . S
C1058 C1062 1.524 . S
C1059 C1051 1.503 . S
C1059 C1058 1.370 . S
C1059 C1060 1.403 . S
C1060 C1059 1.403 . S
C1060 C1061 1.404 . S
C1060 C1063 1.539 . S
C1061 C1057 1.408 . S
C1061 C1060 1.404 . S
C1061 H1073 0.930 . S
C1062 C1058 1.524 . S
C1062 H1074 0.956 . S
C1062 H1075 0.961 . S
C1062 H1076 0.961 . S
C1063 C1060 1.539 . S
C1063 H1077 0.958 . S
C1063 H1078 0.961 . S
C1063 H1079 0.960 . S
H1064 C1048 0.931 . S
H1065 C1053 0.929 . S
H1066 C1054 0.960 . S
H1067 C1054 0.962 . S
H1068 C1054 0.960 . S
H1069 C1055 0.961 . S
H1070 C1055 0.961 . S
H1071 C1055 0.961 . S
H1072 C1056 0.931 . S
H1073 C1061 0.930 . S
H1074 C1062 0.956 . S
H1075 C1062 0.961 . S
H1076 C1062 0.961 . S
H1077 C1063 0.958 . S
H1078 C1063 0.961 . S
H1079 C1063 0.960 . S
C1080 C1081 1.391 . S
C1080 C1082 1.394 . S
C1080 H1096 0.931 . S
C1081 C1080 1.391 . S
C1081 C1085 1.376 . S
C1082 C1080 1.394 . S
C1082 C1083 1.369 . S
C1082 C1086 1.531 . S
C1083 C1082 1.369 . S
C1083 C1084 1.410 . S
C1083 C1091 1.503 . S
C1084 C1083 1.410 . S
C1084 C1085 1.392 . S
C1084 C1087 1.511 . S
C1085 C1081 1.376 . S
C1085 C1084 1.392 . S
C1085 H1097 0.929 . S
C1086 C1082 1.531 . S
C1086 H1098 0.960 . S
C1086 H1099 0.962 . S
C1086 H1100 0.960 . S
C1087 C1084 1.511 . S
C1087 H1101 0.961 . S
C1087 H1102 0.961 . S
C1087 H1103 0.961 . S
C1088 C1089 1.370 . S
C1088 C1090 1.363 . S
C1088 H1104 0.931 . S
C1089 C1088 1.370 . S
C1089 C1093 1.408 . S
C1090 C1088 1.363 . S
C1090 C1091 1.370 . S
C1090 C1094 1.524 . S
C1091 C1083 1.503 . S
C1091 C1090 1.370 . S
C1091 C1092 1.403 . S
C1092 C1091 1.403 . S
C1092 C1093 1.404 . S
C1092 C1095 1.539 . S
C1093 C1089 1.408 . S
C1093 C1092 1.404 . S
C1093 H1105 0.930 . S
C1094 C1090 1.524 . S
C1094 H1106 0.956 . S
C1094 H1107 0.961 . S
C1094 H1108 0.961 . S
C1095 C1092 1.539 . S
C1095 H1109 0.958 . S
C1095 H1110 0.961 . S
C1095 H1111 0.960 . S
H1096 C1080 0.931 . S
H1097 C1085 0.929 . S
H1098 C1086 0.960 . S
H1099 C1086 0.962 . S
H1100 C1086 0.960 . S
H1101 C1087 0.961 . S
H1102 C1087 0.961 . S
H1103 C1087 0.961 . S
H1104 C1088 0.931 . S
H1105 C1093 0.930 . S
H1106 C1094 0.956 . S
H1107 C1094 0.961 . S
H1108 C1094 0.961 . S
H1109 C1095 0.958 . S
H1110 C1095 0.961 . S
H1111 C1095 0.960 . S
C1112 C1113 1.391 . S
C1112 C1114 1.394 . S
C1112 H1128 0.931 . S
C1113 C1112 1.391 . S
C1113 C1117 1.376 . S
C1114 C1112 1.394 . S
C1114 C1115 1.369 . S
C1114 C1118 1.531 . S
C1115 C1114 1.369 . S
C1115 C1116 1.410 . S
C1115 C1123 1.503 . S
C1116 C1115 1.410 . S
C1116 C1117 1.392 . S
C1116 C1119 1.511 . S
C1117 C1113 1.376 . S
C1117 C1116 1.392 . S
C1117 H1129 0.929 . S
C1118 C1114 1.531 . S
C1118 H1130 0.960 . S
C1118 H1131 0.962 . S
C1118 H1132 0.960 . S
C1119 C1116 1.511 . S
C1119 H1133 0.961 . S
C1119 H1134 0.961 . S
C1119 H1135 0.961 . S
C1120 C1121 1.370 . S
C1120 C1122 1.363 . S
C1120 H1136 0.931 . S
C1121 C1120 1.370 . S
C1121 C1125 1.408 . S
C1122 C1120 1.363 . S
C1122 C1123 1.370 . S
C1122 C1126 1.524 . S
C1123 C1115 1.503 . S
C1123 C1122 1.370 . S
C1123 C1124 1.403 . S
C1124 C1123 1.403 . S
C1124 C1125 1.404 . S
C1124 C1127 1.539 . S
C1125 C1121 1.408 . S
C1125 C1124 1.404 . S
C1125 H1137 0.930 . S
C1126 C1122 1.524 . S
C1126 H1138 0.956 . S
C1126 H1139 0.961 . S
C1126 H1140 0.961 . S
C1127 C1124 1.539 . S
C1127 H1141 0.958 . S
C1127 H1142 0.961 . S
C1127 H1143 0.960 . S
H1128 C1112 0.931 . S
H1129 C1117 0.929 . S
H1130 C1118 0.960 . S
H1131 C1118 0.962 . S
H1132 C1118 0.960 . S
H1133 C1119 0.961 . S
H1134 C1119 0.961 . S
H1135 C1119 0.961 . S
H1136 C1120 0.931 . S
H1137 C1125 0.930 . S
H1138 C1126 0.956 . S
H1139 C1126 0.961 . S
H1140 C1126 0.961 . S
H1141 C1127 0.958 . S
H1142 C1127 0.961 . S
H1143 C1127 0.960 . S
C1144 C1145 1.391 . S
C1144 C1146 1.394 . S
C1144 H1160 0.931 . S
C1145 C1144 1.391 . S
C1145 C1149 1.376 . S
C1146 C1144 1.394 . S
C1146 C1147 1.369 . S
C1146 C1150 1.531 . S
C1147 C1146 1.369 . S
C1147 C1148 1.410 . S
C1147 C1155 1.503 . S
C1148 C1147 1.410 . S
C1148 C1149 1.392 . S
C1148 C1151 1.511 . S
C1149 C1145 1.376 . S
C1149 C1148 1.392 . S
C1149 H1161 0.929 . S
C1150 C1146 1.531 . S
C1150 H1162 0.960 . S
C1150 H1163 0.962 . S
C1150 H1164 0.960 . S
C1151 C1148 1.511 . S
C1151 H1165 0.961 . S
C1151 H1166 0.961 . S
C1151 H1167 0.961 . S
C1152 C1153 1.370 . S
C1152 C1154 1.363 . S
C1152 H1168 0.931 . S
C1153 C1152 1.370 . S
C1153 C1157 1.408 . S
C1154 C1152 1.363 . S
C1154 C1155 1.370 . S
C1154 C1158 1.524 . S
C1155 C1147 1.503 . S
C1155 C1154 1.370 . S
C1155 C1156 1.403 . S
C1156 C1155 1.403 . S
C1156 C1157 1.404 . S
C1156 C1159 1.539 . S
C1157 C1153 1.408 . S
C1157 C1156 1.404 . S
C1157 H1169 0.930 . S
C1158 C1154 1.524 . S
C1158 H1170 0.956 . S
C1158 H1171 0.961 . S
C1158 H1172 0.961 . S
C1159 C1156 1.539 . S
C1159 H1173 0.958 . S
C1159 H1174 0.961 . S
C1159 H1175 0.960 . S
H1160 C1144 0.931 . S
H1161 C1149 0.929 . S
H1162 C1150 0.960 . S
H1163 C1150 0.962 . S
H1164 C1150 0.960 . S
H1165 C1151 0.961 . S
H1166 C1151 0.961 . S
H1167 C1151 0.961 . S
H1168 C1152 0.931 . S
H1169 C1157 0.930 . S
H1170 C1158 0.956 . S
H1171 C1158 0.961 . S
H1172 C1158 0.961 . S
H1173 C1159 0.958 . S
H1174 C1159 0.961 . S
H1175 C1159 0.960 . S
C1176 C1177 1.391 . S
C1176 C1178 1.394 . S
C1176 H1192 0.931 . S
C1177 C1176 1.391 . S
C1177 C1181 1.376 . S
C1178 C1176 1.394 . S
C1178 C1179 1.369 . S
C1178 C1182 1.531 . S
C1179 C1178 1.369 . S
C1179 C1180 1.410 . S
C1179 C1187 1.503 . S
C1180 C1179 1.410 . S
C1180 C1181 1.392 . S
C1180 C1183 1.511 . S
C1181 C1177 1.376 . S
C1181 C1180 1.392 . S
C1181 H1193 0.929 . S
C1182 C1178 1.531 . S
C1182 H1194 0.960 . S
C1182 H1195 0.962 . S
C1182 H1196 0.960 . S
C1183 C1180 1.511 . S
C1183 H1197 0.961 . S
C1183 H1198 0.961 . S
C1183 H1199 0.961 . S
C1184 C1185 1.370 . S
C1184 C1186 1.363 . S
C1184 H1200 0.931 . S
C1185 C1184 1.370 . S
C1185 C1189 1.408 . S
C1186 C1184 1.363 . S
C1186 C1187 1.370 . S
C1186 C1190 1.524 . S
C1187 C1179 1.503 . S
C1187 C1186 1.370 . S
C1187 C1188 1.403 . S
C1188 C1187 1.403 . S
C1188 C1189 1.404 . S
C1188 C1191 1.539 . S
C1189 C1185 1.408 . S
C1189 C1188 1.404 . S
C1189 H1201 0.930 . S
C1190 C1186 1.524 . S
C1190 H1202 0.956 . S
C1190 H1203 0.961 . S
C1190 H1204 0.961 . S
C1191 C1188 1.539 . S
C1191 H1205 0.958 . S
C1191 H1206 0.961 . S
C1191 H1207 0.960 . S
H1192 C1176 0.931 . S
H1193 C1181 0.929 . S
H1194 C1182 0.960 . S
H1195 C1182 0.962 . S
H1196 C1182 0.960 . S
H1197 C1183 0.961 . S
H1198 C1183 0.961 . S
H1199 C1183 0.961 . S
H1200 C1184 0.931 . S
H1201 C1189 0.930 . S
H1202 C1190 0.956 . S
H1203 C1190 0.961 . S
H1204 C1190 0.961 . S
H1205 C1191 0.958 . S
H1206 C1191 0.961 . S
H1207 C1191 0.960 . S
C1208 C1209 1.391 . S
C1208 C1210 1.394 . S
C1208 H1224 0.931 . S
C1209 C1208 1.391 . S
C1209 C1213 1.376 . S
C1210 C1208 1.394 . S
C1210 C1211 1.369 . S
C1210 C1214 1.531 . S
C1211 C1210 1.369 . S
C1211 C1212 1.410 . S
C1211 C1219 1.503 . S
C1212 C1211 1.410 . S
C1212 C1213 1.392 . S
C1212 C1215 1.511 . S
C1213 C1209 1.376 . S
C1213 C1212 1.392 . S
C1213 H1225 0.929 . S
C1214 C1210 1.531 . S
C1214 H1226 0.960 . S
C1214 H1227 0.962 . S
C1214 H1228 0.960 . S
C1215 C1212 1.511 . S
C1215 H1229 0.961 . S
C1215 H1230 0.961 . S
C1215 H1231 0.961 . S
C1216 C1217 1.370 . S
C1216 C1218 1.363 . S
C1216 H1232 0.931 . S
C1217 C1216 1.370 . S
C1217 C1221 1.408 . S
C1218 C1216 1.363 . S
C1218 C1219 1.370 . S
C1218 C1222 1.524 . S
C1219 C1211 1.503 . S
C1219 C1218 1.370 . S
C1219 C1220 1.403 . S
C1220 C1219 1.403 . S
C1220 C1221 1.404 . S
C1220 C1223 1.539 . S
C1221 C1217 1.408 . S
C1221 C1220 1.404 . S
C1221 H1233 0.930 . S
C1222 C1218 1.524 . S
C1222 H1234 0.956 . S
C1222 H1235 0.961 . S
C1222 H1236 0.961 . S
C1223 C1220 1.539 . S
C1223 H1237 0.958 . S
C1223 H1238 0.961 . S
C1223 H1239 0.960 . S
H1224 C1208 0.931 . S
H1225 C1213 0.929 . S
H1226 C1214 0.960 . S
H1227 C1214 0.962 . S
H1228 C1214 0.960 . S
H1229 C1215 0.961 . S
H1230 C1215 0.961 . S
H1231 C1215 0.961 . S
H1232 C1216 0.931 . S
H1233 C1221 0.930 . S
H1234 C1222 0.956 . S
H1235 C1222 0.961 . S
H1236 C1222 0.961 . S
H1237 C1223 0.958 . S
H1238 C1223 0.961 . S
H1239 C1223 0.960 . S
C1240 C1241 1.391 . S
C1240 C1242 1.394 . S
C1240 H1256 0.931 . S
C1241 C1240 1.391 . S
C1241 C1245 1.376 . S
C1242 C1240 1.394 . S
C1242 C1243 1.369 . S
C1242 C1246 1.531 . S
C1243 C1242 1.369 . S
C1243 C1244 1.410 . S
C1243 C1251 1.503 . S
C1244 C1243 1.410 . S
C1244 C1245 1.392 . S
C1244 C1247 1.511 . S
C1245 C1241 1.376 . S
C1245 C1244 1.392 . S
C1245 H1257 0.929 . S
C1246 C1242 1.531 . S
C1246 H1258 0.960 . S
C1246 H1259 0.962 . S
C1246 H1260 0.960 . S
C1247 C1244 1.511 . S
C1247 H1261 0.961 . S
C1247 H1262 0.961 . S
C1247 H1263 0.961 . S
C1248 C1249 1.370 . S
C1248 C1250 1.363 . S
C1248 H1264 0.931 . S
C1249 C1248 1.370 . S
C1249 C1253 1.408 . S
C1250 C1248 1.363 . S
C1250 C1251 1.370 . S
C1250 C1254 1.524 . S
C1251 C1243 1.503 . S
C1251 C1250 1.370 . S
C1251 C1252 1.403 . S
C1252 C1251 1.403 . S
C1252 C1253 1.404 . S
C1252 C1255 1.539 . S
C1253 C1249 1.408 . S
C1253 C1252 1.404 . S
C1253 H1265 0.930 . S
C1254 C1250 1.524 . S
C1254 H1266 0.956 . S
C1254 H1267 0.961 . S
C1254 H1268 0.961 . S
C1255 C1252 1.539 . S
C1255 H1269 0.958 . S
C1255 H1270 0.961 . S
C1255 H1271 0.960 . S
H1256 C1240 0.931 . S
H1257 C1245 0.929 . S
H1258 C1246 0.960 . S
H1259 C1246 0.962 . S
H1260 C1246 0.960 . S
H1261 C1247 0.961 . S
H1262 C1247 0.961 . S
H1263 C1247 0.961 . S
H1264 C1248 0.931 . S
H1265 C1253 0.930 . S
H1266 C1254 0.956 . S
H1267 C1254 0.961 . S
H1268 C1254 0.961 . S
H1269 C1255 0.958 . S
H1270 C1255 0.961 . S
H1271 C1255 0.960 . S
C1272 C1273 1.391 . S
C1272 C1274 1.394 . S
C1272 H1288 0.931 . S
C1273 C1272 1.391 . S
C1273 C1277 1.376 . S
C1274 C1272 1.394 . S
C1274 C1275 1.369 . S
C1274 C1278 1.531 . S
C1275 C1274 1.369 . S
C1275 C1276 1.410 . S
C1275 C1283 1.503 . S
C1276 C1275 1.410 . S
C1276 C1277 1.392 . S
C1276 C1279 1.511 . S
C1277 C1273 1.376 . S
C1277 C1276 1.392 . S
C1277 H1289 0.929 . S
C1278 C1274 1.531 . S
C1278 H1290 0.960 . S
C1278 H1291 0.962 . S
C1278 H1292 0.960 . S
C1279 C1276 1.511 . S
C1279 H1293 0.961 . S
C1279 H1294 0.961 . S
C1279 H1295 0.961 . S
C1280 C1281 1.370 . S
C1280 C1282 1.363 . S
C1280 H1296 0.931 . S
C1281 C1280 1.370 . S
C1281 C1285 1.408 . S
C1282 C1280 1.363 . S
C1282 C1283 1.370 . S
C1282 C1286 1.524 . S
C1283 C1275 1.503 . S
C1283 C1282 1.370 . S
C1283 C1284 1.403 . S
C1284 C1283 1.403 . S
C1284 C1285 1.404 . S
C1284 C1287 1.539 . S
C1285 C1281 1.408 . S
C1285 C1284 1.404 . S
C1285 H1297 0.930 . S
C1286 C1282 1.524 . S
C1286 H1298 0.956 . S
C1286 H1299 0.961 . S
C1286 H1300 0.961 . S
C1287 C1284 1.539 . S
C1287 H1301 0.958 . S
C1287 H1302 0.961 . S
C1287 H1303 0.960 . S
H1288 C1272 0.931 . S
H1289 C1277 0.929 . S
H1290 C1278 0.960 . S
H1291 C1278 0.962 . S
H1292 C1278 0.960 . S
H1293 C1279 0.961 . S
H1294 C1279 0.961 . S
H1295 C1279 0.961 . S
H1296 C1280 0.931 . S
H1297 C1285 0.930 . S
H1298 C1286 0.956 . S
H1299 C1286 0.961 . S
H1300 C1286 0.961 . S
H1301 C1287 0.958 . S
H1302 C1287 0.961 . S
H1303 C1287 0.960 . S
C1304 C1305 1.391 . S
C1304 C1306 1.394 . S
C1304 H1320 0.931 . S
C1305 C1304 1.391 . S
C1305 C1309 1.376 . S
C1306 C1304 1.394 . S
C1306 C1307 1.369 . S
C1306 C1310 1.531 . S
C1307 C1306 1.369 . S
C1307 C1308 1.410 . S
C1307 C1315 1.503 . S
C1308 C1307 1.410 . S
C1308 C1309 1.392 . S
C1308 C1311 1.511 . S
C1309 C1305 1.376 . S
C1309 C1308 1.392 . S
C1309 H1321 0.929 . S
C1310 C1306 1.531 . S
C1310 H1322 0.960 . S
C1310 H1323 0.962 . S
C1310 H1324 0.960 . S
C1311 C1308 1.511 . S
C1311 H1325 0.961 . S
C1311 H1326 0.961 . S
C1311 H1327 0.961 . S
C1312 C1313 1.370 . S
C1312 C1314 1.363 . S
C1312 H1328 0.931 . S
C1313 C1312 1.370 . S
C1313 C1317 1.408 . S
C1314 C1312 1.363 . S
C1314 C1315 1.370 . S
C1314 C1318 1.524 . S
C1315 C1307 1.503 . S
C1315 C1314 1.370 . S
C1315 C1316 1.403 . S
C1316 C1315 1.403 . S
C1316 C1317 1.404 . S
C1316 C1319 1.539 . S
C1317 C1313 1.408 . S
C1317 C1316 1.404 . S
C1317 H1329 0.930 . S
C1318 C1314 1.524 . S
C1318 H1330 0.956 . S
C1318 H1331 0.961 . S
C1318 H1332 0.961 . S
C1319 C1316 1.539 . S
C1319 H1333 0.958 . S
C1319 H1334 0.961 . S
C1319 H1335 0.960 . S
H1320 C1304 0.931 . S
H1321 C1309 0.929 . S
H1322 C1310 0.960 . S
H1323 C1310 0.962 . S
H1324 C1310 0.960 . S
H1325 C1311 0.961 . S
H1326 C1311 0.961 . S
H1327 C1311 0.961 . S
H1328 C1312 0.931 . S
H1329 C1317 0.930 . S
H1330 C1318 0.956 . S
H1331 C1318 0.961 . S
H1332 C1318 0.961 . S
H1333 C1319 0.958 . S
H1334 C1319 0.961 . S
H1335 C1319 0.960 . S
C1336 C1337 1.391 . S
C1336 C1338 1.394 . S
C1336 H1352 0.931 . S
C1337 C1336 1.391 . S
C1337 C1341 1.376 . S
C1338 C1336 1.394 . S
C1338 C1339 1.369 . S
C1338 C1342 1.531 . S
C1339 C1338 1.369 . S
C1339 C1340 1.410 . S
C1339 C1347 1.503 . S
C1340 C1339 1.410 . S
C1340 C1341 1.392 . S
C1340 C1343 1.511 . S
C1341 C1337 1.376 . S
C1341 C1340 1.392 . S
C1341 H1353 0.929 . S
C1342 C1338 1.531 . S
C1342 H1354 0.960 . S
C1342 H1355 0.962 . S
C1342 H1356 0.960 . S
C1343 C1340 1.511 . S
C1343 H1357 0.961 . S
C1343 H1358 0.961 . S
C1343 H1359 0.961 . S
C1344 C1345 1.370 . S
C1344 C1346 1.363 . S
C1344 H1360 0.931 . S
C1345 C1344 1.370 . S
C1345 C1349 1.408 . S
C1346 C1344 1.363 . S
C1346 C1347 1.370 . S
C1346 C1350 1.524 . S
C1347 C1339 1.503 . S
C1347 C1346 1.370 . S
C1347 C1348 1.403 . S
C1348 C1347 1.403 . S
C1348 C1349 1.404 . S
C1348 C1351 1.539 . S
C1349 C1345 1.408 . S
C1349 C1348 1.404 . S
C1349 H1361 0.930 . S
C1350 C1346 1.524 . S
C1350 H1362 0.956 . S
C1350 H1363 0.961 . S
C1350 H1364 0.961 . S
C1351 C1348 1.539 . S
C1351 H1365 0.958 . S
C1351 H1366 0.961 . S
C1351 H1367 0.960 . S
H1352 C1336 0.931 . S
H1353 C1341 0.929 . S
H1354 C1342 0.960 . S
H1355 C1342 0.962 . S
H1356 C1342 0.960 . S
H1357 C1343 0.961 . S
H1358 C1343 0.961 . S
H1359 C1343 0.961 . S
H1360 C1344 0.931 . S
H1361 C1349 0.930 . S
H1362 C1350 0.956 . S
H1363 C1350 0.961 . S
H1364 C1350 0.961 . S
H1365 C1351 0.958 . S
H1366 C1351 0.961 . S
H1367 C1351 0.960 . S
C1368 C1369 1.391 . S
C1368 C1370 1.394 . S
C1368 H1384 0.931 . S
C1369 C1368 1.391 . S
C1369 C1373 1.376 . S
C1370 C1368 1.394 . S
C1370 C1371 1.369 . S
C1370 C1374 1.531 . S
C1371 C1370 1.369 . S
C1371 C1372 1.410 . S
C1371 C1379 1.503 . S
C1372 C1371 1.410 . S
C1372 C1373 1.392 . S
C1372 C1375 1.511 . S
C1373 C1369 1.376 . S
C1373 C1372 1.392 . S
C1373 H1385 0.929 . S
C1374 C1370 1.531 . S
C1374 H1386 0.960 . S
C1374 H1387 0.962 . S
C1374 H1388 0.960 . S
C1375 C1372 1.511 . S
C1375 H1389 0.961 . S
C1375 H1390 0.961 . S
C1375 H1391 0.961 . S
C1376 C1377 1.370 . S
C1376 C1378 1.363 . S
C1376 H1392 0.931 . S
C1377 C1376 1.370 . S
C1377 C1381 1.408 . S
C1378 C1376 1.363 . S
C1378 C1379 1.370 . S
C1378 C1382 1.524 . S
C1379 C1371 1.503 . S
C1379 C1378 1.370 . S
C1379 C1380 1.403 . S
C1380 C1379 1.403 . S
C1380 C1381 1.404 . S
C1380 C1383 1.539 . S
C1381 C1377 1.408 . S
C1381 C1380 1.404 . S
C1381 H1393 0.930 . S
C1382 C1378 1.524 . S
C1382 H1394 0.956 . S
C1382 H1395 0.961 . S
C1382 H1396 0.961 . S
C1383 C1380 1.539 . S
C1383 H1397 0.958 . S
C1383 H1398 0.961 . S
C1383 H1399 0.960 . S
H1384 C1368 0.931 . S
H1385 C1373 0.929 . S
H1386 C1374 0.960 . S
H1387 C1374 0.962 . S
H1388 C1374 0.960 . S
H1389 C1375 0.961 . S
H1390 C1375 0.961 . S
H1391 C1375 0.961 . S
H1392 C1376 0.931 . S
H1393 C1381 0.930 . S
H1394 C1382 0.956 . S
H1395 C1382 0.961 . S
H1396 C1382 0.961 . S
H1397 C1383 0.958 . S
H1398 C1383 0.961 . S
H1399 C1383 0.960 . S
C1400 C1401 1.391 . S
C1400 C1402 1.394 . S
C1400 H1416 0.931 . S
C1401 C1400 1.391 . S
C1401 C1405 1.376 . S
C1402 C1400 1.394 . S
C1402 C1403 1.369 . S
C1402 C1406 1.531 . S
C1403 C1402 1.369 . S
C1403 C1404 1.410 . S
C1403 C1411 1.503 . S
C1404 C1403 1.410 . S
C1404 C1405 1.392 . S
C1404 C1407 1.511 . S
C1405 C1401 1.376 . S
C1405 C1404 1.392 . S
C1405 H1417 0.929 . S
C1406 C1402 1.531 . S
C1406 H1418 0.960 . S
C1406 H1419 0.962 . S
C1406 H1420 0.960 . S
C1407 C1404 1.511 . S
C1407 H1421 0.961 . S
C1407 H1422 0.961 . S
C1407 H1423 0.961 . S
C1408 C1409 1.370 . S
C1408 C1410 1.363 . S
C1408 H1424 0.931 . S
C1409 C1408 1.370 . S
C1409 C1413 1.408 . S
C1410 C1408 1.363 . S
C1410 C1411 1.370 . S
C1410 C1414 1.524 . S
C1411 C1403 1.503 . S
C1411 C1410 1.370 . S
C1411 C1412 1.403 . S
C1412 C1411 1.403 . S
C1412 C1413 1.404 . S
C1412 C1415 1.539 . S
C1413 C1409 1.408 . S
C1413 C1412 1.404 . S
C1413 H1425 0.930 . S
C1414 C1410 1.524 . S
C1414 H1426 0.956 . S
C1414 H1427 0.961 . S
C1414 H1428 0.961 . S
C1415 C1412 1.539 . S
C1415 H1429 0.958 . S
C1415 H1430 0.961 . S
C1415 H1431 0.960 . S
H1416 C1400 0.931 . S
H1417 C1405 0.929 . S
H1418 C1406 0.960 . S
H1419 C1406 0.962 . S
H1420 C1406 0.960 . S
H1421 C1407 0.961 . S
H1422 C1407 0.961 . S
H1423 C1407 0.961 . S
H1424 C1408 0.931 . S
H1425 C1413 0.930 . S
H1426 C1414 0.956 . S
H1427 C1414 0.961 . S
H1428 C1414 0.961 . S
H1429 C1415 0.958 . S
H1430 C1415 0.961 . S
H1431 C1415 0.960 . S
C1432 C1433 1.391 . S
C1432 C1434 1.394 . S
C1432 H1448 0.931 . S
C1433 C1432 1.391 . S
C1433 C1437 1.376 . S
C1434 C1432 1.394 . S
C1434 C1435 1.369 . S
C1434 C1438 1.531 . S
C1435 C1434 1.369 . S
C1435 C1436 1.410 . S
C1435 C1443 1.503 . S
C1436 C1435 1.410 . S
C1436 C1437 1.392 . S
C1436 C1439 1.511 . S
C1437 C1433 1.376 . S
C1437 C1436 1.392 . S
C1437 H1449 0.929 . S
C1438 C1434 1.531 . S
C1438 H1450 0.960 . S
C1438 H1451 0.962 . S
C1438 H1452 0.960 . S
C1439 C1436 1.511 . S
C1439 H1453 0.961 . S
C1439 H1454 0.961 . S
C1439 H1455 0.961 . S
C1440 C1441 1.370 . S
C1440 C1442 1.363 . S
C1440 H1456 0.931 . S
C1441 C1440 1.370 . S
C1441 C1445 1.408 . S
C1442 C1440 1.363 . S
C1442 C1443 1.370 . S
C1442 C1446 1.524 . S
C1443 C1435 1.503 . S
C1443 C1442 1.370 . S
C1443 C1444 1.403 . S
C1444 C1443 1.403 . S
C1444 C1445 1.404 . S
C1444 C1447 1.539 . S
C1445 C1441 1.408 . S
C1445 C1444 1.404 . S
C1445 H1457 0.930 . S
C1446 C1442 1.524 . S
C1446 H1458 0.956 . S
C1446 H1459 0.961 . S
C1446 H1460 0.961 . S
C1447 C1444 1.539 . S
C1447 H1461 0.958 . S
C1447 H1462 0.961 . S
C1447 H1463 0.960 . S
H1448 C1432 0.931 . S
H1449 C1437 0.929 . S
H1450 C1438 0.960 . S
H1451 C1438 0.962 . S
H1452 C1438 0.960 . S
H1453 C1439 0.961 . S
H1454 C1439 0.961 . S
H1455 C1439 0.961 . S
H1456 C1440 0.931 . S
H1457 C1445 0.930 . S
H1458 C1446 0.956 . S
H1459 C1446 0.961 . S
H1460 C1446 0.961 . S
H1461 C1447 0.958 . S
H1462 C1447 0.961 . S
H1463 C1447 0.960 . S
C1464 C1465 1.391 1_455 S
C1464 C1466 1.394 . S
C1464 H1480 0.931 . S
C1465 C1464 1.391 1_655 S
C1465 C1469 1.376 . S
C1466 C1464 1.394 . S
C1466 C1467 1.369 1_455 S
C1466 C1470 1.531 . S
C1467 C1466 1.369 1_655 S
C1467 C1468 1.410 . S
C1467 C1475 1.503 1_655 S
C1468 C1467 1.410 . S
C1468 C1469 1.392 . S
C1468 C1471 1.511 . S
C1469 C1465 1.376 . S
C1469 C1468 1.392 . S
C1469 H1481 0.929 . S
C1470 C1466 1.531 . S
C1470 H1482 0.960 . S
C1470 H1483 0.962 . S
C1470 H1484 0.960 . S
C1471 C1468 1.511 . S
C1471 H1485 0.961 . S
C1471 H1486 0.961 . S
C1471 H1487 0.961 . S
C1472 C1473 1.370 . S
C1472 C1474 1.363 . S
C1472 H1488 0.931 . S
C1473 C1472 1.370 . S
C1473 C1477 1.408 . S
C1474 C1472 1.363 . S
C1474 C1475 1.370 . S
C1474 C1478 1.524 . S
C1475 C1467 1.503 1_455 S
C1475 C1474 1.370 . S
C1475 C1476 1.403 . S
C1476 C1475 1.403 . S
C1476 C1477 1.404 . S
C1476 C1479 1.539 1_455 S
C1477 C1473 1.408 . S
C1477 C1476 1.404 . S
C1477 H1489 0.930 . S
C1478 C1474 1.524 . S
C1478 H1490 0.956 . S
C1478 H1491 0.961 1_455 S
C1478 H1492 0.961 . S
C1479 C1476 1.539 1_655 S
C1479 H1493 0.958 1_655 S
C1479 H1494 0.961 . S
C1479 H1495 0.960 . S
H1480 C1464 0.931 . S
H1481 C1469 0.929 . S
H1482 C1470 0.960 . S
H1483 C1470 0.962 . S
H1484 C1470 0.960 . S
H1485 C1471 0.961 . S
H1486 C1471 0.961 . S
H1487 C1471 0.961 . S
H1488 C1472 0.931 . S
H1489 C1477 0.930 . S
H1490 C1478 0.956 . S
H1491 C1478 0.961 1_655 S
H1492 C1478 0.961 . S
H1493 C1479 0.958 1_455 S
H1494 C1479 0.961 . S
H1495 C1479 0.960 . S
C1496 C1497 1.391 . S
C1496 C1498 1.394 . S
C1496 H1512 0.931 . S
C1497 C1496 1.391 . S
C1497 C1501 1.376 . S
C1498 C1496 1.394 . S
C1498 C1499 1.369 . S
C1498 C1502 1.531 . S
C1499 C1498 1.369 . S
C1499 C1500 1.410 . S
C1499 C1507 1.503 . S
C1500 C1499 1.410 . S
C1500 C1501 1.392 . S
C1500 C1503 1.511 . S
C1501 C1497 1.376 . S
C1501 C1500 1.392 . S
C1501 H1513 0.929 . S
C1502 C1498 1.531 . S
C1502 H1514 0.960 . S
C1502 H1515 0.962 . S
C1502 H1516 0.960 . S
C1503 C1500 1.511 . S
C1503 H1517 0.961 . S
C1503 H1518 0.961 . S
C1503 H1519 0.961 . S
C1504 C1505 1.370 . S
C1504 C1506 1.363 . S
C1504 H1520 0.931 . S
C1505 C1504 1.370 . S
C1505 C1509 1.408 . S
C1506 C1504 1.363 . S
C1506 C1507 1.370 . S
C1506 C1510 1.524 . S
C1507 C1499 1.503 . S
C1507 C1506 1.370 . S
C1507 C1508 1.403 . S
C1508 C1507 1.403 . S
C1508 C1509 1.404 . S
C1508 C1511 1.539 . S
C1509 C1505 1.408 . S
C1509 C1508 1.404 . S
C1509 H1521 0.930 . S
C1510 C1506 1.524 . S
C1510 H1522 0.956 . S
C1510 H1523 0.961 . S
C1510 H1524 0.961 . S
C1511 C1508 1.539 . S
C1511 H1525 0.958 . S
C1511 H1526 0.961 . S
C1511 H1527 0.960 . S
H1512 C1496 0.931 . S
H1513 C1501 0.929 . S
H1514 C1502 0.960 . S
H1515 C1502 0.962 . S
H1516 C1502 0.960 . S
H1517 C1503 0.961 . S
H1518 C1503 0.961 . S
H1519 C1503 0.961 . S
H1520 C1504 0.931 . S
H1521 C1509 0.930 . S
H1522 C1510 0.956 . S
H1523 C1510 0.961 . S
H1524 C1510 0.961 . S
H1525 C1511 0.958 . S
H1526 C1511 0.961 . S
H1527 C1511 0.960 . S
C1528 C1529 1.404 . S
C1528 C1530 1.353 1_565 S
C1528 H1544 0.932 1_565 S
C1529 C1528 1.404 . S
C1529 C1533 1.376 . S
C1530 C1528 1.353 1_545 S
C1530 C1531 1.371 1_545 S
C1530 C1534 1.559 . S
C1531 C1530 1.371 1_565 S
C1531 C1532 1.410 . S
C1531 C1539 1.503 . S
C1532 C1531 1.410 . S
C1532 C1533 1.392 . S
C1532 C1535 1.511 . S
C1533 C1529 1.376 . S
C1533 C1532 1.392 . S
C1533 H1545 0.929 . S
C1534 C1530 1.559 . S
C1534 H1546 0.960 . S
C1534 H1547 0.962 . S
C1534 H1548 0.960 . S
C1535 C1532 1.511 . S
C1535 H1549 0.961 . S
C1535 H1550 0.961 . S
C1535 H1551 0.961 . S
C1536 C1537 1.370 . S
C1536 C1538 1.363 . S
C1536 H1552 0.931 . S
C1537 C1536 1.370 . S
C1537 C1541 1.408 1_545 S
C1538 C1536 1.363 . S
C1538 C1539 1.370 1_545 S
C1538 C1542 1.524 . S
C1539 C1531 1.503 . S
C1539 C1538 1.370 1_565 S
C1539 C1540 1.403 . S
C1540 C1539 1.403 . S
C1540 C1541 1.404 . S
C1540 C1543 1.539 . S
C1541 C1537 1.408 1_565 S
C1541 C1540 1.404 . S
C1541 H1553 0.930 . S
C1542 C1538 1.524 . S
C1542 H1554 0.956 . S
C1542 H1555 0.961 . S
C1542 H1556 0.961 . S
C1543 C1540 1.539 . S
C1543 H1557 0.958 . S
C1543 H1558 0.961 . S
C1543 H1559 0.960 . S
H1544 C1528 0.932 1_545 S
H1545 C1533 0.929 . S
H1546 C1534 0.960 . S
H1547 C1534 0.962 . S
H1548 C1534 0.960 . S
H1549 C1535 0.961 . S
H1550 C1535 0.961 . S
H1551 C1535 0.961 . S
H1552 C1536 0.931 . S
H1553 C1541 0.930 . S
H1554 C1542 0.956 . S
H1555 C1542 0.961 . S
H1556 C1542 0.961 . S
H1557 C1543 0.958 . S
H1558 C1543 0.961 . S
H1559 C1543 0.960 . S
C1560 C1561 1.391 1_554 S
C1560 C1562 1.394 . S
C1560 H1576 0.931 . S
C1561 C1560 1.391 1_556 S
C1561 C1565 1.376 1_565 S
C1562 C1560 1.394 . S
C1562 C1563 1.369 1_554 S
C1562 C1566 1.531 . S
C1563 C1562 1.369 1_556 S
C1563 C1564 1.410 1_565 S
C1563 C1571 1.505 . S
C1564 C1563 1.410 1_545 S
C1564 C1565 1.392 . S
C1564 C1567 1.511 . S
C1565 C1561 1.376 1_545 S
C1565 C1564 1.392 . S
C1565 H1577 0.929 . S
C1566 C1562 1.531 . S
C1566 H1578 0.960 . S
C1566 H1579 0.962 . S
C1566 H1580 0.960 . S
C1567 C1564 1.511 . S
C1567 H1581 0.961 . S
C1567 H1582 0.961 . S
C1567 H1583 0.973 . S
C1568 C1569 1.370 . S
C1568 C1570 1.363 . S
C1568 H1584 0.931 . S
C1569 C1568 1.370 . S
C1569 C1573 1.408 1_544 S
C1570 C1568 1.363 . S
C1570 C1571 1.364 1_544 S
C1570 C1574 1.524 . S
C1571 C1563 1.505 . S
C1571 C1570 1.364 1_566 S
C1571 C1572 1.407 . S
C1572 C1571 1.407 . S
C1572 C1573 1.404 . S
C1572 C1575 1.539 . S
C1573 C1569 1.408 1_566 S
C1573 C1572 1.404 . S
C1573 H1585 0.930 . S
C1574 C1570 1.524 . S
C1574 H1586 0.956 . S
C1574 H1587 0.961 . S
C1574 H1588 0.961 . S
C1575 C1572 1.539 . S
C1575 H1589 0.958 . S
C1575 H1590 0.961 . S
C1575 H1591 0.960 . S
H1576 C1560 0.931 . S
H1577 C1565 0.929 . S
H1578 C1566 0.960 . S
H1579 C1566 0.962 . S
H1580 C1566 0.960 . S
H1581 C1567 0.961 . S
H1582 C1567 0.961 . S
H1583 C1567 0.973 . S
H1584 C1568 0.931 . S
H1585 C1573 0.930 . S
H1586 C1574 0.956 . S
H1587 C1574 0.961 . S
H1588 C1574 0.961 . S
H1589 C1575 0.958 . S
H1590 C1575 0.961 . S
H1591 C1575 0.960 . S
C1592 C1593 1.391 1_455 S
C1592 C1594 1.394 . S
C1592 H1608 0.931 . S
C1593 C1592 1.391 1_655 S
C1593 C1597 1.376 . S
C1594 C1592 1.394 . S
C1594 C1595 1.369 1_455 S
C1594 C1598 1.531 . S
C1595 C1594 1.369 1_655 S
C1595 C1596 1.409 1_554 S
C1595 C1603 1.500 . S
C1596 C1595 1.409 1_556 S
C1596 C1597 1.392 1_556 S
C1596 C1599 1.512 . S
C1597 C1593 1.376 . S
C1597 C1596 1.392 1_554 S
C1597 H1609 0.929 1_554 S
C1598 C1594 1.531 . S
C1598 H1610 0.960 . S
C1598 H1611 0.962 . S
C1598 H1612 0.960 . S
C1599 C1596 1.512 . S
C1599 H1613 0.961 . S
C1599 H1614 0.961 . S
C1599 H1615 0.961 1_556 S
C1600 C1601 1.370 . S
C1600 C1602 1.363 . S
C1600 H1616 0.931 . S
C1601 C1600 1.370 . S
C1601 C1605 1.408 1_456 S
C1602 C1600 1.363 . S
C1602 C1603 1.373 1_456 S
C1602 C1606 1.524 . S
C1603 C1595 1.500 . S
C1603 C1602 1.373 1_654 S
C1603 C1604 1.403 . S
C1604 C1603 1.403 . S
C1604 C1605 1.404 . S
C1604 C1607 1.539 . S
C1605 C1601 1.408 1_654 S
C1605 C1604 1.404 . S
C1605 H1617 0.930 . S
C1606 C1602 1.524 . S
C1606 H1618 0.956 . S
C1606 H1619 0.961 . S
C1606 H1620 0.961 . S
C1607 C1604 1.539 . S
C1607 H1621 0.958 . S
C1607 H1622 0.961 . S
C1607 H1623 0.960 . S
H1608 C1592 0.931 . S
H1609 C1597 0.929 1_556 S
H1610 C1598 0.960 . S
H1611 C1598 0.962 . S
H1612 C1598 0.960 . S
H1613 C1599 0.961 . S
H1614 C1599 0.961 . S
H1615 C1599 0.961 1_554 S
H1616 C1600 0.931 . S
H1617 C1605 0.930 . S
H1618 C1606 0.956 . S
H1619 C1606 0.961 . S
H1620 C1606 0.961 . S
H1621 C1607 0.958 . S
H1622 C1607 0.961 . S
H1623 C1607 0.960 . S
C1624 C1625 1.391 . S
C1624 C1626 1.394 . S
C1624 H1640 0.931 . S
C1625 C1624 1.391 . S
C1625 C1629 1.376 1_554 S
C1626 C1624 1.394 . S
C1626 C1627 1.369 . S
C1626 C1630 1.531 . S
C1627 C1626 1.369 . S
C1627 C1628 1.410 1_554 S
C1627 C1635 1.503 . S
C1628 C1627 1.410 1_556 S
C1628 C1629 1.392 . S
C1628 C1631 1.511 . S
C1629 C1625 1.376 1_556 S
C1629 C1628 1.392 . S
C1629 H1641 0.929 . S
C1630 C1626 1.531 . S
C1630 H1642 0.960 . S
C1630 H1643 0.962 . S
C1630 H1644 0.960 . S
C1631 C1628 1.511 . S
C1631 H1645 0.961 . S
C1631 H1646 0.961 . S
C1631 H1647 0.961 1_556 S
C1632 C1633 1.370 . S
C1632 C1634 1.363 . S
C1632 H1648 0.931 . S
C1633 C1632 1.370 . S
C1633 C1637 1.408 1_556 S
C1634 C1632 1.363 . S
C1634 C1635 1.370 1_556 S
C1634 C1638 1.524 . S
C1635 C1627 1.503 . S
C1635 C1634 1.370 1_554 S
C1635 C1636 1.403 . S
C1636 C1635 1.403 . S
C1636 C1637 1.404 . S
C1636 C1639 1.539 . S
C1637 C1633 1.408 1_554 S
C1637 C1636 1.404 . S
C1637 H1649 0.930 . S
C1638 C1634 1.524 . S
C1638 H1650 0.956 . S
C1638 H1651 0.961 . S
C1638 H1652 0.961 . S
C1639 C1636 1.539 . S
C1639 H1653 0.958 . S
C1639 H1654 0.961 . S
C1639 H1655 0.960 . S
H1640 C1624 0.931 . S
H1641 C1629 0.929 . S
H1642 C1630 0.960 . S
H1643 C1630 0.962 . S
H1644 C1630 0.960 . S
H1645 C1631 0.961 . S
H1646 C1631 0.961 . S
H1647 C1631 0.961 1_554 S
H1648 C1632 0.931 . S
H1649 C1637 0.930 . S
H1650 C1638 0.956 . S
H1651 C1638 0.961 . S
H1652 C1638 0.961 . S
H1653 C1639 0.958 . S
H1654 C1639 0.961 . S
H1655 C1639 0.960 . S
C1656 C1657 1.391 . S
C1656 C1658 1.394 . S
C1656 H1672 0.931 1_554 S
C1657 C1656 1.391 . S
C1657 C1661 1.376 . S
C1658 C1656 1.394 . S
C1658 C1659 1.369 . S
C1658 C1662 1.531 . S
C1659 C1658 1.369 . S
C1659 C1660 1.410 . S
C1659 C1667 1.503 . S
C1660 C1659 1.410 . S
C1660 C1661 1.392 . S
C1660 C1663 1.511 . S
C1661 C1657 1.376 . S
C1661 C1660 1.392 . S
C1661 H1673 0.929 . S
C1662 C1658 1.531 . S
C1662 H1674 0.960 . S
C1662 H1675 0.962 . S
C1662 H1676 0.960 1_554 S
C1663 C1660 1.511 . S
C1663 H1677 0.961 . S
C1663 H1678 0.961 . S
C1663 H1679 0.961 . S
C1664 C1665 1.370 . S
C1664 C1666 1.363 . S
C1664 H1680 0.931 . S
C1665 C1664 1.370 . S
C1665 C1669 1.408 . S
C1666 C1664 1.363 . S
C1666 C1667 1.370 . S
C1666 C1670 1.524 . S
C1667 C1659 1.503 . S
C1667 C1666 1.370 . S
C1667 C1668 1.403 . S
C1668 C1667 1.403 . S
C1668 C1669 1.404 . S
C1668 C1671 1.539 . S
C1669 C1665 1.408 . S
C1669 C1668 1.404 . S
C1669 H1681 0.930 . S
C1670 C1666 1.524 . S
C1670 H1682 0.956 . S
C1670 H1683 0.961 . S
C1670 H1684 0.961 . S
C1671 C1668 1.539 . S
C1671 H1685 0.958 1_554 S
C1671 H1686 0.961 . S
C1671 H1687 0.960 . S
H1672 C1656 0.931 1_556 S
H1673 C1661 0.929 . S
H1674 C1662 0.960 . S
H1675 C1662 0.962 . S
H1676 C1662 0.960 1_556 S
H1677 C1663 0.961 . S
H1678 C1663 0.961 . S
H1679 C1663 0.961 . S
H1680 C1664 0.931 . S
H1681 C1669 0.930 . S
H1682 C1670 0.956 . S
H1683 C1670 0.961 . S
H1684 C1670 0.961 . S
H1685 C1671 0.958 1_556 S
H1686 C1671 0.961 . S
H1687 C1671 0.960 . S
C1688 C1689 1.391 . S
C1688 C1690 1.394 . S
C1688 H1704 0.931 . S
C1689 C1688 1.391 . S
C1689 C1693 1.376 . S
C1690 C1688 1.394 . S
C1690 C1691 1.369 . S
C1690 C1694 1.531 . S
C1691 C1690 1.369 . S
C1691 C1692 1.410 . S
C1691 C1699 1.503 . S
C1692 C1691 1.410 . S
C1692 C1693 1.392 . S
C1692 C1695 1.511 . S
C1693 C1689 1.376 . S
C1693 C1692 1.392 . S
C1693 H1705 0.929 . S
C1694 C1690 1.531 . S
C1694 H1706 0.960 . S
C1694 H1707 0.962 . S
C1694 H1708 0.960 . S
C1695 C1692 1.511 . S
C1695 H1709 0.961 . S
C1695 H1710 0.961 . S
C1695 H1711 0.961 . S
C1696 C1697 1.370 . S
C1696 C1698 1.363 . S
C1696 H1712 0.931 1_554 S
C1697 C1696 1.370 . S
C1697 C1701 1.408 . S
C1698 C1696 1.363 . S
C1698 C1699 1.370 . S
C1698 C1702 1.515 1_554 S
C1699 C1691 1.503 . S
C1699 C1698 1.370 . S
C1699 C1700 1.403 . S
C1700 C1699 1.403 . S
C1700 C1701 1.404 . S
C1700 C1703 1.539 . S
C1701 C1697 1.408 . S
C1701 C1700 1.404 . S
C1701 H1713 0.930 . S
C1702 C1698 1.515 1_556 S
C1702 H1714 0.950 1_556 S
C1702 H1715 0.960 1_556 S
C1702 H1716 0.976 . S
C1703 C1700 1.539 . S
C1703 H1717 0.958 . S
C1703 H1718 0.961 . S
C1703 H1719 0.960 . S
H1704 C1688 0.931 . S
H1705 C1693 0.929 . S
H1706 C1694 0.960 . S
H1707 C1694 0.962 . S
H1708 C1694 0.960 . S
H1709 C1695 0.961 . S
H1710 C1695 0.961 . S
H1711 C1695 0.961 . S
H1712 C1696 0.931 1_556 S
H1713 C1701 0.930 . S
H1714 C1702 0.950 1_554 S
H1715 C1702 0.960 1_554 S
H1716 C1702 0.976 . S
H1717 C1703 0.958 . S
H1718 C1703 0.961 . S
H1719 C1703 0.960 . S
C1720 C1721 1.391 . S
C1720 C1722 1.394 . S
C1720 H1736 0.931 . S
C1721 C1720 1.391 . S
C1721 C1725 1.376 . S
C1722 C1720 1.394 . S
C1722 C1723 1.369 . S
C1722 C1726 1.531 . S
C1723 C1722 1.369 . S
C1723 C1724 1.410 . S
C1723 C1731 1.503 . S
C1724 C1723 1.410 . S
C1724 C1725 1.392 . S
C1724 C1727 1.511 . S
C1725 C1721 1.376 . S
C1725 C1724 1.392 . S
C1725 H1737 0.929 . S
C1726 C1722 1.531 . S
C1726 H1738 0.960 . S
C1726 H1739 0.962 . S
C1726 H1740 0.960 . S
C1727 C1724 1.511 . S
C1727 H1741 0.961 . S
C1727 H1742 0.961 . S
C1727 H1743 0.961 . S
C1728 C1729 1.370 . S
C1728 C1730 1.363 . S
C1728 H1744 0.931 1_554 S
C1729 C1728 1.370 . S
C1729 C1733 1.408 . S
C1730 C1728 1.363 . S
C1730 C1731 1.370 . S
C1730 C1734 1.524 1_554 S
C1731 C1723 1.503 . S
C1731 C1730 1.370 . S
C1731 C1732 1.403 . S
C1732 C1731 1.403 . S
C1732 C1733 1.404 . S
C1732 C1735 1.539 . S
C1733 C1729 1.408 . S
C1733 C1732 1.404 . S
C1733 H1745 0.930 . S
C1734 C1730 1.524 1_556 S
C1734 H1746 0.956 . S
C1734 H1747 0.961 1_556 S
C1734 H1748 0.961 . S
C1735 C1732 1.539 . S
C1735 H1749 0.958 . S
C1735 H1750 0.961 . S
C1735 H1751 0.960 . S
H1736 C1720 0.931 . S
H1737 C1725 0.929 . S
H1738 C1726 0.960 . S
H1739 C1726 0.962 . S
H1740 C1726 0.960 . S
H1741 C1727 0.961 . S
H1742 C1727 0.961 . S
H1743 C1727 0.961 . S
H1744 C1728 0.931 1_556 S
H1745 C1733 0.930 . S
H1746 C1734 0.956 . S
H1747 C1734 0.961 1_554 S
H1748 C1734 0.961 . S
H1749 C1735 0.958 . S
H1750 C1735 0.961 . S
H1751 C1735 0.960 . S
C1752 C1753 1.391 . S
C1752 C1754 1.394 . S
C1752 H1768 0.931 . S
C1753 C1752 1.391 . S
C1753 C1757 1.376 . S
C1754 C1752 1.394 . S
C1754 C1755 1.369 . S
C1754 C1758 1.531 . S
C1755 C1754 1.369 . S
C1755 C1756 1.410 . S
C1755 C1763 1.503 . S
C1756 C1755 1.410 . S
C1756 C1757 1.392 . S
C1756 C1759 1.511 . S
C1757 C1753 1.376 . S
C1757 C1756 1.392 . S
C1757 H1769 0.929 . S
C1758 C1754 1.531 . S
C1758 H1770 0.960 . S
C1758 H1771 0.962 . S
C1758 H1772 0.960 . S
C1759 C1756 1.511 . S
C1759 H1773 0.961 . S
C1759 H1774 0.961 . S
C1759 H1775 0.961 . S
C1760 C1761 1.370 . S
C1760 C1762 1.363 . S
C1760 H1776 0.931 . S
C1761 C1760 1.370 . S
C1761 C1765 1.408 . S
C1762 C1760 1.363 . S
C1762 C1763 1.370 . S
C1762 C1766 1.524 . S
C1763 C1755 1.503 . S
C1763 C1762 1.370 . S
C1763 C1764 1.403 . S
C1764 C1763 1.403 . S
C1764 C1765 1.404 . S
C1764 C1767 1.539 . S
C1765 C1761 1.408 . S
C1765 C1764 1.404 . S
C1765 H1777 0.930 . S
C1766 C1762 1.524 . S
C1766 H1778 0.956 . S
C1766 H1779 0.961 . S
C1766 H1780 0.961 . S
C1767 C1764 1.539 . S
C1767 H1781 0.958 . S
C1767 H1782 0.961 . S
C1767 H1783 0.960 . S
H1768 C1752 0.931 . S
H1769 C1757 0.929 . S
H1770 C1758 0.960 . S
H1771 C1758 0.962 . S
H1772 C1758 0.960 . S
H1773 C1759 0.961 . S
H1774 C1759 0.961 . S
H1775 C1759 0.961 . S
H1776 C1760 0.931 . S
H1777 C1765 0.930 . S
H1778 C1766 0.956 . S
H1779 C1766 0.961 . S
H1780 C1766 0.961 . S
H1781 C1767 0.958 . S
H1782 C1767 0.961 . S
H1783 C1767 0.960 . S
C1784 C1785 1.391 . S
C1784 C1786 1.394 . S
C1784 H1800 0.931 . S
C1785 C1784 1.391 . S
C1785 C1789 1.376 . S
C1786 C1784 1.394 . S
C1786 C1787 1.369 . S
C1786 C1790 1.531 . S
C1787 C1786 1.369 . S
C1787 C1788 1.410 . S
C1787 C1795 1.503 . S
C1788 C1787 1.410 . S
C1788 C1789 1.392 . S
C1788 C1791 1.511 . S
C1789 C1785 1.376 . S
C1789 C1788 1.392 . S
C1789 H1801 0.929 . S
C1790 C1786 1.531 . S
C1790 H1802 0.960 . S
C1790 H1803 0.962 . S
C1790 H1804 0.960 . S
C1791 C1788 1.511 . S
C1791 H1805 0.961 . S
C1791 H1806 0.961 . S
C1791 H1807 0.961 . S
C1792 C1793 1.370 . S
C1792 C1794 1.363 . S
C1792 H1808 0.931 . S
C1793 C1792 1.370 . S
C1793 C1797 1.408 . S
C1794 C1792 1.363 . S
C1794 C1795 1.370 . S
C1794 C1798 1.524 . S
C1795 C1787 1.503 . S
C1795 C1794 1.370 . S
C1795 C1796 1.403 . S
C1796 C1795 1.403 . S
C1796 C1797 1.404 . S
C1796 C1799 1.539 . S
C1797 C1793 1.408 . S
C1797 C1796 1.404 . S
C1797 H1809 0.930 . S
C1798 C1794 1.524 . S
C1798 H1810 0.956 . S
C1798 H1811 0.961 . S
C1798 H1812 0.961 . S
C1799 C1796 1.539 . S
C1799 H1813 0.958 . S
C1799 H1814 0.961 . S
C1799 H1815 0.960 . S
H1800 C1784 0.931 . S
H1801 C1789 0.929 . S
H1802 C1790 0.960 . S
H1803 C1790 0.962 . S
H1804 C1790 0.960 . S
H1805 C1791 0.961 . S
H1806 C1791 0.961 . S
H1807 C1791 0.961 . S
H1808 C1792 0.931 . S
H1809 C1797 0.930 . S
H1810 C1798 0.956 . S
H1811 C1798 0.961 . S
H1812 C1798 0.961 . S
H1813 C1799 0.958 . S
H1814 C1799 0.961 . S
H1815 C1799 0.960 . S
C1816 C1817 1.391 . S
C1816 C1818 1.394 . S
C1816 H1832 0.931 . S
C1817 C1816 1.391 . S
C1817 C1821 1.376 . S
C1818 C1816 1.394 . S
C1818 C1819 1.369 . S
C1818 C1822 1.531 . S
C1819 C1818 1.369 . S
C1819 C1820 1.410 . S
C1819 C1827 1.503 . S
C1820 C1819 1.410 . S
C1820 C1821 1.392 . S
C1820 C1823 1.511 . S
C1821 C1817 1.376 . S
C1821 C1820 1.392 . S
C1821 H1833 0.929 . S
C1822 C1818 1.531 . S
C1822 H1834 0.960 . S
C1822 H1835 0.962 . S
C1822 H1836 0.960 . S
C1823 C1820 1.511 . S
C1823 H1837 0.961 . S
C1823 H1838 0.961 . S
C1823 H1839 0.961 . S
C1824 C1825 1.370 . S
C1824 C1826 1.363 . S
C1824 H1840 0.931 . S
C1825 C1824 1.370 . S
C1825 C1829 1.408 . S
C1826 C1824 1.363 . S
C1826 C1827 1.370 . S
C1826 C1830 1.524 . S
C1827 C1819 1.503 . S
C1827 C1826 1.370 . S
C1827 C1828 1.403 . S
C1828 C1827 1.403 . S
C1828 C1829 1.404 . S
C1828 C1831 1.539 . S
C1829 C1825 1.408 . S
C1829 C1828 1.404 . S
C1829 H1841 0.930 . S
C1830 C1826 1.524 . S
C1830 H1842 0.956 . S
C1830 H1843 0.961 . S
C1830 H1844 0.961 . S
C1831 C1828 1.539 . S
C1831 H1845 0.958 . S
C1831 H1846 0.961 . S
C1831 H1847 0.960 . S
H1832 C1816 0.931 . S
H1833 C1821 0.929 . S
H1834 C1822 0.960 . S
H1835 C1822 0.962 . S
H1836 C1822 0.960 . S
H1837 C1823 0.961 . S
H1838 C1823 0.961 . S
H1839 C1823 0.961 . S
H1840 C1824 0.931 . S
H1841 C1829 0.930 . S
H1842 C1830 0.956 . S
H1843 C1830 0.961 . S
H1844 C1830 0.961 . S
H1845 C1831 0.958 . S
H1846 C1831 0.961 . S
H1847 C1831 0.960 . S
C1848 C1849 1.391 . S
C1848 C1850 1.394 . S
C1848 H1864 0.931 1_556 S
C1849 C1848 1.391 . S
C1849 C1853 1.376 . S
C1850 C1848 1.394 . S
C1850 C1851 1.369 . S
C1850 C1854 1.531 1_556 S
C1851 C1850 1.369 . S
C1851 C1852 1.410 . S
C1851 C1859 1.503 . S
C1852 C1851 1.410 . S
C1852 C1853 1.392 . S
C1852 C1855 1.511 . S
C1853 C1849 1.376 . S
C1853 C1852 1.392 . S
C1853 H1865 0.929 . S
C1854 C1850 1.531 1_554 S
C1854 H1866 0.960 1_554 S
C1854 H1867 0.962 . S
C1854 H1868 0.960 . S
C1855 C1852 1.511 . S
C1855 H1869 0.961 . S
C1855 H1870 0.961 . S
C1855 H1871 0.961 . S
C1856 C1857 1.370 . S
C1856 C1858 1.363 . S
C1856 H1872 0.931 . S
C1857 C1856 1.370 . S
C1857 C1861 1.408 . S
C1858 C1856 1.363 . S
C1858 C1859 1.370 . S
C1858 C1862 1.524 . S
C1859 C1851 1.503 . S
C1859 C1858 1.370 . S
C1859 C1860 1.403 . S
C1860 C1859 1.403 . S
C1860 C1861 1.404 . S
C1860 C1863 1.539 . S
C1861 C1857 1.408 . S
C1861 C1860 1.404 . S
C1861 H1873 0.930 . S
C1862 C1858 1.524 . S
C1862 H1874 0.956 . S
C1862 H1875 0.961 . S
C1862 H1876 0.961 . S
C1863 C1860 1.539 . S
C1863 H1877 0.958 . S
C1863 H1878 0.961 . S
C1863 H1879 0.960 . S
H1864 C1848 0.931 1_554 S
H1865 C1853 0.929 . S
H1866 C1854 0.960 1_556 S
H1867 C1854 0.962 . S
H1868 C1854 0.960 . S
H1869 C1855 0.961 . S
H1870 C1855 0.961 . S
H1871 C1855 0.961 . S
H1872 C1856 0.931 . S
H1873 C1861 0.930 . S
H1874 C1862 0.956 . S
H1875 C1862 0.961 . S
H1876 C1862 0.961 . S
H1877 C1863 0.958 . S
H1878 C1863 0.961 . S
H1879 C1863 0.960 . S
C1880 C1881 1.391 . S
C1880 C1882 1.394 . S
C1880 H1896 0.931 . S
C1881 C1880 1.391 . S
C1881 C1885 1.376 . S
C1882 C1880 1.394 . S
C1882 C1883 1.369 . S
C1882 C1886 1.531 . S
C1883 C1882 1.369 . S
C1883 C1884 1.410 . S
C1883 C1891 1.503 . S
C1884 C1883 1.410 . S
C1884 C1885 1.392 . S
C1884 C1887 1.511 . S
C1885 C1881 1.376 . S
C1885 C1884 1.392 . S
C1885 H1897 0.929 . S
C1886 C1882 1.531 . S
C1886 H1898 0.960 . S
C1886 H1899 0.962 . S
C1886 H1900 0.960 . S
C1887 C1884 1.511 . S
C1887 H1901 0.961 . S
C1887 H1902 0.961 . S
C1887 H1903 0.961 . S
C1888 C1889 1.370 . S
C1888 C1890 1.363 . S
C1888 H1904 0.931 . S
C1889 C1888 1.370 . S
C1889 C1893 1.408 . S
C1890 C1888 1.363 . S
C1890 C1891 1.370 . S
C1890 C1894 1.524 . S
C1891 C1883 1.503 . S
C1891 C1890 1.370 . S
C1891 C1892 1.403 . S
C1892 C1891 1.403 . S
C1892 C1893 1.404 . S
C1892 C1895 1.528 1_556 S
C1893 C1889 1.408 . S
C1893 C1892 1.404 . S
C1893 H1905 0.930 1_556 S
C1894 C1890 1.524 . S
C1894 H1906 0.956 . S
C1894 H1907 0.961 . S
C1894 H1908 0.961 . S
C1895 C1892 1.528 1_554 S
C1895 H1909 0.978 . S
C1895 H1910 0.970 . S
C1895 H1911 0.943 1_554 S
H1896 C1880 0.931 . S
H1897 C1885 0.929 . S
H1898 C1886 0.960 . S
H1899 C1886 0.962 . S
H1900 C1886 0.960 . S
H1901 C1887 0.961 . S
H1902 C1887 0.961 . S
H1903 C1887 0.961 . S
H1904 C1888 0.931 . S
H1905 C1893 0.930 1_554 S
H1906 C1894 0.956 . S
H1907 C1894 0.961 . S
H1908 C1894 0.961 . S
H1909 C1895 0.978 . S
H1910 C1895 0.970 . S
H1911 C1895 0.943 1_556 S
C1912 C1913 1.391 . S
C1912 C1914 1.394 . S
C1912 H1928 0.931 . S
C1913 C1912 1.391 . S
C1913 C1917 1.376 . S
C1914 C1912 1.394 . S
C1914 C1915 1.369 . S
C1914 C1918 1.531 . S
C1915 C1914 1.369 . S
C1915 C1916 1.410 . S
C1915 C1923 1.503 . S
C1916 C1915 1.410 . S
C1916 C1917 1.392 . S
C1916 C1919 1.511 . S
C1917 C1913 1.376 . S
C1917 C1916 1.392 . S
C1917 H1929 0.929 1_556 S
C1918 C1914 1.531 . S
C1918 H1930 0.960 . S
C1918 H1931 0.962 . S
C1918 H1932 0.960 . S
C1919 C1916 1.511 . S
C1919 H1933 0.961 . S
C1919 H1934 0.961 . S
C1919 H1935 0.961 1_556 S
C1920 C1921 1.370 . S
C1920 C1922 1.363 . S
C1920 H1936 0.931 . S
C1921 C1920 1.370 . S
C1921 C1925 1.408 . S
C1922 C1920 1.363 . S
C1922 C1923 1.370 . S
C1922 C1926 1.524 . S
C1923 C1915 1.503 . S
C1923 C1922 1.370 . S
C1923 C1924 1.403 . S
C1924 C1923 1.403 . S
C1924 C1925 1.404 . S
C1924 C1927 1.539 . S
C1925 C1921 1.408 . S
C1925 C1924 1.404 . S
C1925 H1937 0.930 . S
C1926 C1922 1.524 . S
C1926 H1938 0.956 . S
C1926 H1939 0.961 . S
C1926 H1940 0.961 . S
C1927 C1924 1.539 . S
C1927 H1941 0.958 . S
C1927 H1942 0.961 1_556 S
C1927 H1943 0.960 1_556 S
H1928 C1912 0.931 . S
H1929 C1917 0.929 1_554 S
H1930 C1918 0.960 . S
H1931 C1918 0.962 . S
H1932 C1918 0.960 . S
H1933 C1919 0.961 . S
H1934 C1919 0.961 . S
H1935 C1919 0.961 1_554 S
H1936 C1920 0.931 . S
H1937 C1925 0.930 . S
H1938 C1926 0.956 . S
H1939 C1926 0.961 . S
H1940 C1926 0.961 . S
H1941 C1927 0.958 . S
H1942 C1927 0.961 1_554 S
H1943 C1927 0.960 1_554 S
C1944 C1945 1.391 . S
C1944 C1946 1.394 . S
C1944 H1960 0.931 . S
C1945 C1944 1.391 . S
C1945 C1949 1.376 . S
C1946 C1944 1.394 . S
C1946 C1947 1.369 . S
C1946 C1950 1.531 . S
C1947 C1946 1.369 . S
C1947 C1948 1.410 . S
C1947 C1955 1.503 . S
C1948 C1947 1.410 . S
C1948 C1949 1.392 . S
C1948 C1951 1.511 . S
C1949 C1945 1.376 . S
C1949 C1948 1.392 . S
C1949 H1961 0.929 . S
C1950 C1946 1.531 . S
C1950 H1962 0.960 . S
C1950 H1963 0.962 . S
C1950 H1964 0.960 . S
C1951 C1948 1.511 . S
C1951 H1965 0.961 . S
C1951 H1966 0.961 . S
C1951 H1967 0.961 . S
C1952 C1953 1.370 . S
C1952 C1954 1.363 . S
C1952 H1968 0.931 . S
C1953 C1952 1.370 . S
C1953 C1957 1.408 . S
C1954 C1952 1.363 . S
C1954 C1955 1.370 . S
C1954 C1958 1.524 . S
C1955 C1947 1.503 . S
C1955 C1954 1.370 . S
C1955 C1956 1.403 . S
C1956 C1955 1.403 . S
C1956 C1957 1.404 . S
C1956 C1959 1.539 . S
C1957 C1953 1.408 . S
C1957 C1956 1.404 . S
C1957 H1969 0.930 1_655 S
C1958 C1954 1.524 . S
C1958 H1970 0.956 . S
C1958 H1971 0.961 . S
C1958 H1972 0.961 . S
C1959 C1956 1.539 . S
C1959 H1973 0.958 . S
C1959 H1974 0.961 1_655 S
C1959 H1975 0.960 . S
H1960 C1944 0.931 . S
H1961 C1949 0.929 . S
H1962 C1950 0.960 . S
H1963 C1950 0.962 . S
H1964 C1950 0.960 . S
H1965 C1951 0.961 . S
H1966 C1951 0.961 . S
H1967 C1951 0.961 . S
H1968 C1952 0.931 . S
H1969 C1957 0.930 1_455 S
H1970 C1958 0.956 . S
H1971 C1958 0.961 . S
H1972 C1958 0.961 . S
H1973 C1959 0.958 . S
H1974 C1959 0.961 1_455 S
H1975 C1959 0.960 . S
C1976 C1977 1.391 . S
C1976 C1978 1.394 . S
C1976 H1992 0.931 . S
C1977 C1976 1.391 . S
C1977 C1981 1.376 . S
C1978 C1976 1.394 . S
C1978 C1979 1.369 . S
C1978 C1982 1.531 . S
C1979 C1978 1.369 . S
C1979 C1980 1.410 . S
C1979 C1987 1.503 . S
C1980 C1979 1.410 . S
C1980 C1981 1.392 . S
C1980 C1983 1.511 . S
C1981 C1977 1.376 . S
C1981 C1980 1.392 . S
C1981 H1993 0.929 . S
C1982 C1978 1.531 . S
C1982 H1994 0.960 . S
C1982 H1995 0.962 . S
C1982 H1996 0.960 . S
C1983 C1980 1.511 . S
C1983 H1997 0.961 . S
C1983 H1998 0.961 . S
C1983 H1999 0.961 . S
C1984 C1985 1.370 . S
C1984 C1986 1.363 . S
C1984 H2000 0.931 . S
C1985 C1984 1.370 . S
C1985 C1989 1.408 . S
C1986 C1984 1.363 . S
C1986 C1987 1.370 . S
C1986 C1990 1.524 . S
C1987 C1979 1.503 . S
C1987 C1986 1.370 . S
C1987 C1988 1.403 . S
C1988 C1987 1.403 . S
C1988 C1989 1.404 . S
C1988 C1991 1.539 . S
C1989 C1985 1.408 . S
C1989 C1988 1.404 . S
C1989 H2001 0.930 . S
C1990 C1986 1.524 . S
C1990 H2002 0.956 . S
C1990 H2003 0.961 . S
C1990 H2004 0.961 . S
C1991 C1988 1.539 . S
C1991 H2005 0.958 . S
C1991 H2006 0.961 . S
C1991 H2007 0.960 . S
H1992 C1976 0.931 . S
H1993 C1981 0.929 . S
H1994 C1982 0.960 . S
H1995 C1982 0.962 . S
H1996 C1982 0.960 . S
H1997 C1983 0.961 . S
H1998 C1983 0.961 . S
H1999 C1983 0.961 . S
H2000 C1984 0.931 . S
H2001 C1989 0.930 . S
H2002 C1990 0.956 . S
H2003 C1990 0.961 . S
H2004 C1990 0.961 . S
H2005 C1991 0.958 . S
H2006 C1991 0.961 . S
H2007 C1991 0.960 . S
C2008 C2009 1.391 . S
C2008 C2010 1.394 . S
C2008 H2024 0.931 . S
C2009 C2008 1.391 . S
C2009 C2013 1.376 . S
C2010 C2008 1.394 . S
C2010 C2011 1.369 . S
C2010 C2014 1.531 . S
C2011 C2010 1.369 . S
C2011 C2012 1.410 . S
C2011 C2019 1.503 . S
C2012 C2011 1.410 . S
C2012 C2013 1.392 . S
C2012 C2015 1.511 . S
C2013 C2009 1.376 . S
C2013 C2012 1.392 . S
C2013 H2025 0.929 . S
C2014 C2010 1.531 . S
C2014 H2026 0.960 . S
C2014 H2027 0.962 . S
C2014 H2028 0.960 . S
C2015 C2012 1.511 . S
C2015 H2029 0.961 . S
C2015 H2030 0.961 . S
C2015 H2031 0.961 . S
C2016 C2017 1.370 . S
C2016 C2018 1.363 . S
C2016 H2032 0.931 . S
C2017 C2016 1.370 . S
C2017 C2021 1.408 . S
C2018 C2016 1.363 . S
C2018 C2019 1.370 . S
C2018 C2022 1.524 . S
C2019 C2011 1.503 . S
C2019 C2018 1.370 . S
C2019 C2020 1.403 . S
C2020 C2019 1.403 . S
C2020 C2021 1.404 . S
C2020 C2023 1.539 . S
C2021 C2017 1.408 . S
C2021 C2020 1.404 . S
C2021 H2033 0.930 . S
C2022 C2018 1.524 . S
C2022 H2034 0.956 . S
C2022 H2035 0.961 . S
C2022 H2036 0.961 . S
C2023 C2020 1.539 . S
C2023 H2037 0.958 . S
C2023 H2038 0.961 . S
C2023 H2039 0.960 . S
H2024 C2008 0.931 . S
H2025 C2013 0.929 . S
H2026 C2014 0.960 . S
H2027 C2014 0.962 . S
H2028 C2014 0.960 . S
H2029 C2015 0.961 . S
H2030 C2015 0.961 . S
H2031 C2015 0.961 . S
H2032 C2016 0.931 . S
H2033 C2021 0.930 . S
H2034 C2022 0.956 . S
H2035 C2022 0.961 . S
H2036 C2022 0.961 . S
H2037 C2023 0.958 . S
H2038 C2023 0.961 . S
H2039 C2023 0.960 . S
C2040 C2041 1.391 . S
C2040 C2042 1.394 . S
C2040 H2056 0.931 . S
C2041 C2040 1.391 . S
C2041 C2045 1.376 . S
C2042 C2040 1.394 . S
C2042 C2043 1.369 . S
C2042 C2046 1.531 . S
C2043 C2042 1.369 . S
C2043 C2044 1.410 . S
C2043 C2051 1.503 . S
C2044 C2043 1.410 . S
C2044 C2045 1.392 . S
C2044 C2047 1.511 . S
C2045 C2041 1.376 . S
C2045 C2044 1.392 . S
C2045 H2057 0.929 . S
C2046 C2042 1.531 . S
C2046 H2058 0.960 . S
C2046 H2059 0.962 . S
C2046 H2060 0.960 . S
C2047 C2044 1.511 . S
C2047 H2061 0.961 . S
C2047 H2062 0.961 . S
C2047 H2063 0.961 . S
C2048 C2049 1.370 . S
C2048 C2050 1.363 . S
C2048 H2064 0.931 . S
C2049 C2048 1.370 . S
C2049 C2053 1.408 . S
C2050 C2048 1.363 . S
C2050 C2051 1.370 . S
C2050 C2054 1.524 . S
C2051 C2043 1.503 . S
C2051 C2050 1.370 . S
C2051 C2052 1.403 . S
C2052 C2051 1.403 . S
C2052 C2053 1.404 . S
C2052 C2055 1.539 . S
C2053 C2049 1.408 . S
C2053 C2052 1.404 . S
C2053 H2065 0.930 . S
C2054 C2050 1.524 . S
C2054 H2066 0.956 . S
C2054 H2067 0.961 . S
C2054 H2068 0.961 . S
C2055 C2052 1.539 . S
C2055 H2069 0.958 . S
C2055 H2070 0.961 . S
C2055 H2071 0.960 . S
H2056 C2040 0.931 . S
H2057 C2045 0.929 . S
H2058 C2046 0.960 . S
H2059 C2046 0.962 . S
H2060 C2046 0.960 . S
H2061 C2047 0.961 . S
H2062 C2047 0.961 . S
H2063 C2047 0.961 . S
H2064 C2048 0.931 . S
H2065 C2053 0.930 . S
H2066 C2054 0.956 . S
H2067 C2054 0.961 . S
H2068 C2054 0.961 . S
H2069 C2055 0.958 . S
H2070 C2055 0.961 . S
H2071 C2055 0.960 . S
C2072 C2073 1.391 . S
C2072 C2074 1.394 . S
C2072 H2088 0.931 . S
C2073 C2072 1.391 . S
C2073 C2077 1.376 . S
C2074 C2072 1.394 . S
C2074 C2075 1.369 . S
C2074 C2078 1.531 . S
C2075 C2074 1.369 . S
C2075 C2076 1.410 . S
C2075 C2083 1.503 1_565 S
C2076 C2075 1.410 . S
C2076 C2077 1.392 . S
C2076 C2079 1.511 . S
C2077 C2073 1.376 . S
C2077 C2076 1.392 . S
C2077 H2089 0.929 . S
C2078 C2074 1.531 . S
C2078 H2090 0.960 . S
C2078 H2091 0.962 . S
C2078 H2092 0.960 . S
C2079 C2076 1.511 . S
C2079 H2093 0.961 . S
C2079 H2094 0.961 1_565 S
C2079 H2095 0.961 . S
C2080 C2081 1.370 . S
C2080 C2082 1.363 . S
C2080 H2096 0.931 . S
C2081 C2080 1.370 . S
C2081 C2085 1.408 . S
C2082 C2080 1.363 . S
C2082 C2083 1.370 . S
C2082 C2086 1.524 . S
C2083 C2075 1.503 1_545 S
C2083 C2082 1.370 . S
C2083 C2084 1.403 . S
C2084 C2083 1.403 . S
C2084 C2085 1.404 . S
C2084 C2087 1.518 1_545 S
C2085 C2081 1.408 . S
C2085 C2084 1.404 . S
C2085 H2097 0.930 . S
C2086 C2082 1.524 . S
C2086 H2098 0.956 . S
C2086 H2099 0.961 . S
C2086 H2100 0.961 . S
C2087 C2084 1.518 1_565 S
C2087 H2101 0.998 . S
C2087 H2102 0.919 1_565 S
C2087 H2103 0.987 . S
H2088 C2072 0.931 . S
H2089 C2077 0.929 . S
H2090 C2078 0.960 . S
H2091 C2078 0.962 . S
H2092 C2078 0.960 . S
H2093 C2079 0.961 . S
H2094 C2079 0.961 1_545 S
H2095 C2079 0.961 . S
H2096 C2080 0.931 . S
H2097 C2085 0.930 . S
H2098 C2086 0.956 . S
H2099 C2086 0.961 . S
H2100 C2086 0.961 . S
H2101 C2087 0.998 . S
H2102 C2087 0.919 1_545 S
H2103 C2087 0.987 . S
C2104 C2105 1.391 . S
C2104 C2106 1.394 . S
C2104 H2120 0.931 . S
C2105 C2104 1.391 . S
C2105 C2109 1.376 . S
C2106 C2104 1.394 . S
C2106 C2107 1.369 . S
C2106 C2110 1.531 . S
C2107 C2106 1.369 . S
C2107 C2108 1.410 . S
C2107 C2115 1.503 1_455 S
C2108 C2107 1.410 . S
C2108 C2109 1.392 . S
C2108 C2111 1.511 . S
C2109 C2105 1.376 . S
C2109 C2108 1.392 . S
C2109 H2121 0.929 . S
C2110 C2106 1.531 . S
C2110 H2122 0.960 1_455 S
C2110 H2123 0.962 1_455 S
C2110 H2124 0.960 . S
C2111 C2108 1.511 . S
C2111 H2125 0.961 . S
C2111 H2126 0.961 . S
C2111 H2127 0.961 . S
C2112 C2113 1.370 . S
C2112 C2114 1.363 . S
C2112 H2128 0.931 . S
C2113 C2112 1.370 . S
C2113 C2117 1.408 . S
C2114 C2112 1.363 . S
C2114 C2115 1.370 . S
C2114 C2118 1.524 . S
C2115 C2107 1.503 1_655 S
C2115 C2114 1.370 . S
C2115 C2116 1.403 . S
C2116 C2115 1.403 . S
C2116 C2117 1.404 . S
C2116 C2119 1.505 1_655 S
C2117 C2113 1.408 . S
C2117 C2116 1.404 . S
C2117 H2129 0.930 . S
C2118 C2114 1.524 . S
C2118 H2130 0.956 . S
C2118 H2131 0.961 . S
C2118 H2132 0.961 . S
C2119 C2116 1.505 1_455 S
C2119 H2133 0.927 . S
C2119 H2134 0.953 1_455 S
C2119 H2135 1.041 . S
H2120 C2104 0.931 . S
H2121 C2109 0.929 . S
H2122 C2110 0.960 1_655 S
H2123 C2110 0.962 1_655 S
H2124 C2110 0.960 . S
H2125 C2111 0.961 . S
H2126 C2111 0.961 . S
H2127 C2111 0.961 . S
H2128 C2112 0.931 . S
H2129 C2117 0.930 . S
H2130 C2118 0.956 . S
H2131 C2118 0.961 . S
H2132 C2118 0.961 . S
H2133 C2119 0.927 . S
H2134 C2119 0.953 1_655 S
H2135 C2119 1.041 . S
C2136 C2137 1.391 . S
C2136 C2138 1.394 . S
C2136 H2152 0.931 . S
C2137 C2136 1.391 . S
C2137 C2141 1.376 . S
C2138 C2136 1.394 . S
C2138 C2139 1.369 . S
C2138 C2142 1.531 . S
C2139 C2138 1.369 . S
C2139 C2140 1.410 . S
C2139 C2147 1.503 . S
C2140 C2139 1.410 . S
C2140 C2141 1.392 . S
C2140 C2143 1.511 . S
C2141 C2137 1.376 . S
C2141 C2140 1.392 . S
C2141 H2153 0.929 . S
C2142 C2138 1.531 . S
C2142 H2154 0.960 . S
C2142 H2155 0.962 . S
C2142 H2156 0.960 . S
C2143 C2140 1.511 . S
C2143 H2157 0.961 . S
C2143 H2158 0.961 . S
C2143 H2159 0.961 . S
C2144 C2145 1.370 . S
C2144 C2146 1.363 . S
C2144 H2160 0.931 . S
C2145 C2144 1.370 . S
C2145 C2149 1.408 . S
C2146 C2144 1.363 . S
C2146 C2147 1.370 . S
C2146 C2150 1.524 . S
C2147 C2139 1.503 . S
C2147 C2146 1.370 . S
C2147 C2148 1.403 . S
C2148 C2147 1.403 . S
C2148 C2149 1.404 . S
C2148 C2151 1.539 . S
C2149 C2145 1.408 . S
C2149 C2148 1.404 . S
C2149 H2161 0.930 . S
C2150 C2146 1.524 . S
C2150 H2162 0.956 . S
C2150 H2163 0.961 . S
C2150 H2164 0.961 . S
C2151 C2148 1.539 . S
C2151 H2165 0.958 . S
C2151 H2166 0.961 . S
C2151 H2167 0.960 . S
H2152 C2136 0.931 . S
H2153 C2141 0.929 . S
H2154 C2142 0.960 . S
H2155 C2142 0.962 . S
H2156 C2142 0.960 . S
H2157 C2143 0.961 . S
H2158 C2143 0.961 . S
H2159 C2143 0.961 . S
H2160 C2144 0.931 . S
H2161 C2149 0.930 . S
H2162 C2150 0.956 . S
H2163 C2150 0.961 . S
H2164 C2150 0.961 . S
H2165 C2151 0.958 . S
H2166 C2151 0.961 . S
H2167 C2151 0.960 . S
C2168 C2169 1.391 . S
C2168 C2170 1.394 . S
C2168 H2184 0.931 . S
C2169 C2168 1.391 . S
C2169 C2173 1.376 . S
C2170 C2168 1.394 . S
C2170 C2171 1.369 . S
C2170 C2174 1.487 1_565 S
C2171 C2170 1.369 . S
C2171 C2172 1.410 . S
C2171 C2179 1.503 1_565 S
C2172 C2171 1.410 . S
C2172 C2173 1.392 . S
C2172 C2175 1.511 . S
C2173 C2169 1.376 . S
C2173 C2172 1.392 . S
C2173 H2185 0.929 . S
C2174 C2170 1.487 1_545 S
C2174 H2186 0.988 . S
C2174 H2187 0.986 . S
C2174 H2188 0.955 1_545 S
C2175 C2172 1.511 . S
C2175 H2189 0.961 . S
C2175 H2190 0.961 . S
C2175 H2191 0.961 . S
C2176 C2177 1.370 . S
C2176 C2178 1.363 . S
C2176 H2192 0.931 . S
C2177 C2176 1.370 . S
C2177 C2181 1.408 . S
C2178 C2176 1.363 . S
C2178 C2179 1.370 . S
C2178 C2182 1.506 1_545 S
C2179 C2171 1.503 1_545 S
C2179 C2178 1.370 . S
C2179 C2180 1.403 . S
C2180 C2179 1.403 . S
C2180 C2181 1.404 . S
C2180 C2183 1.539 . S
C2181 C2177 1.408 . S
C2181 C2180 1.404 . S
C2181 H2193 0.930 . S
C2182 C2178 1.506 1_565 S
C2182 H2194 0.952 . S
C2182 H2195 1.019 . S
C2182 H2196 0.929 1_565 S
C2183 C2180 1.539 . S
C2183 H2197 0.958 . S
C2183 H2198 0.961 . S
C2183 H2199 0.960 . S
H2184 C2168 0.931 . S
H2185 C2173 0.929 . S
H2186 C2174 0.988 . S
H2187 C2174 0.986 . S
H2188 C2174 0.955 1_565 S
H2189 C2175 0.961 . S
H2190 C2175 0.961 . S
H2191 C2175 0.961 . S
H2192 C2176 0.931 . S
H2193 C2181 0.930 . S
H2194 C2182 0.952 . S
H2195 C2182 1.019 . S
H2196 C2182 0.929 1_545 S
H2197 C2183 0.958 . S
H2198 C2183 0.961 . S
H2199 C2183 0.960 . S
C2200 C2201 1.391 . S
C2200 C2202 1.394 . S
C2200 H2216 0.931 . S
C2201 C2200 1.391 . S
C2201 C2205 1.376 . S
C2202 C2200 1.394 . S
C2202 C2203 1.369 . S
C2202 C2206 1.531 1_455 S
C2203 C2202 1.369 . S
C2203 C2204 1.410 . S
C2203 C2211 1.503 1_455 S
C2204 C2203 1.410 . S
C2204 C2205 1.392 . S
C2204 C2207 1.511 . S
C2205 C2201 1.376 . S
C2205 C2204 1.392 . S
C2205 H2217 0.929 . S
C2206 C2202 1.531 1_655 S
C2206 H2218 0.960 . S
C2206 H2219 0.962 . S
C2206 H2220 0.960 1_655 S
C2207 C2204 1.511 . S
C2207 H2221 0.961 . S
C2207 H2222 0.961 . S
C2207 H2223 0.961 . S
C2208 C2209 1.370 . S
C2208 C2210 1.363 . S
C2208 H2224 0.931 . S
C2209 C2208 1.370 . S
C2209 C2213 1.408 . S
C2210 C2208 1.363 . S
C2210 C2211 1.370 . S
C2210 C2214 1.524 . S
C2211 C2203 1.503 1_655 S
C2211 C2210 1.370 . S
C2211 C2212 1.403 . S
C2212 C2211 1.403 . S
C2212 C2213 1.404 . S
C2212 C2215 1.539 . S
C2213 C2209 1.408 . S
C2213 C2212 1.404 . S
C2213 H2225 0.930 . S
C2214 C2210 1.524 . S
C2214 H2226 0.956 . S
C2214 H2227 0.961 1_655 S
C2214 H2228 0.961 . S
C2215 C2212 1.539 . S
C2215 H2229 0.958 . S
C2215 H2230 0.961 . S
C2215 H2231 0.960 1_655 S
H2216 C2200 0.931 . S
H2217 C2205 0.929 . S
H2218 C2206 0.960 . S
H2219 C2206 0.962 . S
H2220 C2206 0.960 1_455 S
H2221 C2207 0.961 . S
H2222 C2207 0.961 . S
H2223 C2207 0.961 . S
H2224 C2208 0.931 . S
H2225 C2213 0.930 . S
H2226 C2214 0.956 . S
H2227 C2214 0.961 1_455 S
H2228 C2214 0.961 . S
H2229 C2215 0.958 . S
H2230 C2215 0.961 . S
H2231 C2215 0.960 1_455 S
C2232 C2233 1.391 . S
C2232 C2234 1.394 1_554 S
C2232 H2248 0.931 . S
C2233 C2232 1.391 . S
C2233 C2237 1.376 . S
C2234 C2232 1.394 1_556 S
C2234 C2235 1.369 . S
C2234 C2238 1.531 . S
C2235 C2234 1.369 . S
C2235 C2236 1.410 . S
C2235 C2243 1.503 . S
C2236 C2235 1.410 . S
C2236 C2237 1.392 1_556 S
C2236 C2239 1.511 . S
C2237 C2233 1.376 . S
C2237 C2236 1.392 1_554 S
C2237 H2249 0.929 . S
C2238 C2234 1.531 . S
C2238 H2250 0.960 . S
C2238 H2251 0.962 . S
C2238 H2252 0.960 . S
C2239 C2236 1.511 . S
C2239 H2253 0.961 . S
C2239 H2254 0.961 . S
C2239 H2255 0.961 . S
C2240 C2241 1.370 . S
C2240 C2242 1.363 . S
C2240 H2256 0.931 . S
C2241 C2240 1.370 . S
C2241 C2245 1.408 . S
C2242 C2240 1.363 . S
C2242 C2243 1.370 . S
C2242 C2246 1.524 . S
C2243 C2235 1.503 . S
C2243 C2242 1.370 . S
C2243 C2244 1.403 . S
C2244 C2243 1.403 . S
C2244 C2245 1.404 . S
C2244 C2247 1.539 . S
C2245 C2241 1.408 . S
C2245 C2244 1.404 . S
C2245 H2257 0.930 . S
C2246 C2242 1.524 . S
C2246 H2258 0.956 . S
C2246 H2259 0.961 . S
C2246 H2260 0.961 . S
C2247 C2244 1.539 . S
C2247 H2261 0.958 . S
C2247 H2262 0.961 . S
C2247 H2263 0.960 . S
H2248 C2232 0.931 . S
H2249 C2237 0.929 . S
H2250 C2238 0.960 . S
H2251 C2238 0.962 . S
H2252 C2238 0.960 . S
H2253 C2239 0.961 . S
H2254 C2239 0.961 . S
H2255 C2239 0.961 . S
H2256 C2240 0.931 . S
H2257 C2245 0.930 . S
H2258 C2246 0.956 . S
H2259 C2246 0.961 . S
H2260 C2246 0.961 . S
H2261 C2247 0.958 . S
H2262 C2247 0.961 . S
H2263 C2247 0.960 . S
C2264 C2265 1.391 . S
C2264 C2266 1.394 1_554 S
C2264 H2280 0.931 . S
C2265 C2264 1.391 . S
C2265 C2269 1.376 . S
C2266 C2264 1.394 1_556 S
C2266 C2267 1.369 . S
C2266 C2270 1.531 . S
C2267 C2266 1.369 . S
C2267 C2268 1.410 . S
C2267 C2275 1.503 . S
C2268 C2267 1.410 . S
C2268 C2269 1.392 1_556 S
C2268 C2271 1.511 . S
C2269 C2265 1.376 . S
C2269 C2268 1.392 1_554 S
C2269 H2281 0.929 . S
C2270 C2266 1.531 . S
C2270 H2282 0.960 . S
C2270 H2283 0.962 . S
C2270 H2284 0.960 . S
C2271 C2268 1.511 . S
C2271 H2285 0.961 . S
C2271 H2286 0.961 . S
C2271 H2287 0.961 . S
C2272 C2273 1.370 . S
C2272 C2274 1.363 . S
C2272 H2288 0.931 . S
C2273 C2272 1.370 . S
C2273 C2277 1.408 . S
C2274 C2272 1.363 . S
C2274 C2275 1.370 . S
C2274 C2278 1.524 . S
C2275 C2267 1.503 . S
C2275 C2274 1.370 . S
C2275 C2276 1.403 . S
C2276 C2275 1.403 . S
C2276 C2277 1.404 . S
C2276 C2279 1.539 . S
C2277 C2273 1.408 . S
C2277 C2276 1.404 . S
C2277 H2289 0.930 . S
C2278 C2274 1.524 . S
C2278 H2290 0.956 . S
C2278 H2291 0.961 . S
C2278 H2292 0.961 . S
C2279 C2276 1.539 . S
C2279 H2293 0.958 . S
C2279 H2294 0.961 . S
C2279 H2295 0.960 . S
H2280 C2264 0.931 . S
H2281 C2269 0.929 . S
H2282 C2270 0.960 . S
H2283 C2270 0.962 . S
H2284 C2270 0.960 . S
H2285 C2271 0.961 . S
H2286 C2271 0.961 . S
H2287 C2271 0.961 . S
H2288 C2272 0.931 . S
H2289 C2277 0.930 . S
H2290 C2278 0.956 . S
H2291 C2278 0.961 . S
H2292 C2278 0.961 . S
H2293 C2279 0.958 . S
H2294 C2279 0.961 . S
H2295 C2279 0.960 . S
C2296 C2297 1.391 . S
C2296 C2298 1.394 1_554 S
C2296 H2312 0.931 . S
C2297 C2296 1.391 . S
C2297 C2301 1.376 . S
C2298 C2296 1.394 1_556 S
C2298 C2299 1.369 . S
C2298 C2302 1.531 . S
C2299 C2298 1.369 . S
C2299 C2300 1.410 . S
C2299 C2307 1.503 . S
C2300 C2299 1.410 . S
C2300 C2301 1.392 1_556 S
C2300 C2303 1.511 . S
C2301 C2297 1.376 . S
C2301 C2300 1.392 1_554 S
C2301 H2313 0.929 . S
C2302 C2298 1.531 . S
C2302 H2314 0.960 . S
C2302 H2315 0.962 . S
C2302 H2316 0.960 . S
C2303 C2300 1.511 . S
C2303 H2317 0.961 . S
C2303 H2318 0.961 . S
C2303 H2319 0.961 . S
C2304 C2305 1.370 . S
C2304 C2306 1.363 . S
C2304 H2320 0.931 . S
C2305 C2304 1.370 . S
C2305 C2309 1.408 . S
C2306 C2304 1.363 . S
C2306 C2307 1.370 . S
C2306 C2310 1.524 . S
C2307 C2299 1.503 . S
C2307 C2306 1.370 . S
C2307 C2308 1.403 . S
C2308 C2307 1.403 . S
C2308 C2309 1.404 . S
C2308 C2311 1.539 . S
C2309 C2305 1.408 . S
C2309 C2308 1.404 . S
C2309 H2321 0.930 . S
C2310 C2306 1.524 . S
C2310 H2322 0.956 . S
C2310 H2323 0.961 . S
C2310 H2324 0.961 . S
C2311 C2308 1.539 . S
C2311 H2325 0.958 . S
C2311 H2326 0.961 . S
C2311 H2327 0.960 . S
H2312 C2296 0.931 . S
H2313 C2301 0.929 . S
H2314 C2302 0.960 . S
H2315 C2302 0.962 . S
H2316 C2302 0.960 . S
H2317 C2303 0.961 . S
H2318 C2303 0.961 . S
H2319 C2303 0.961 . S
H2320 C2304 0.931 . S
H2321 C2309 0.930 . S
H2322 C2310 0.956 . S
H2323 C2310 0.961 . S
H2324 C2310 0.961 . S
H2325 C2311 0.958 . S
H2326 C2311 0.961 . S
H2327 C2311 0.960 . S
C2328 C2329 1.391 . S
C2328 C2330 1.394 . S
C2328 H2344 0.931 . S
C2329 C2328 1.391 . S
C2329 C2333 1.376 . S
C2330 C2328 1.394 . S
C2330 C2331 1.369 . S
C2330 C2334 1.531 . S
C2331 C2330 1.369 . S
C2331 C2332 1.410 . S
C2331 C2339 1.503 . S
C2332 C2331 1.410 . S
C2332 C2333 1.392 . S
C2332 C2335 1.511 . S
C2333 C2329 1.376 . S
C2333 C2332 1.392 . S
C2333 H2345 0.929 . S
C2334 C2330 1.531 . S
C2334 H2346 0.960 . S
C2334 H2347 0.962 . S
C2334 H2348 0.960 . S
C2335 C2332 1.511 . S
C2335 H2349 0.961 . S
C2335 H2350 0.961 . S
C2335 H2351 0.961 . S
C2336 C2337 1.370 . S
C2336 C2338 1.363 . S
C2336 H2352 0.931 . S
C2337 C2336 1.370 . S
C2337 C2341 1.408 . S
C2338 C2336 1.363 . S
C2338 C2339 1.370 . S
C2338 C2342 1.524 . S
C2339 C2331 1.503 . S
C2339 C2338 1.370 . S
C2339 C2340 1.403 . S
C2340 C2339 1.403 . S
C2340 C2341 1.404 . S
C2340 C2343 1.539 . S
C2341 C2337 1.408 . S
C2341 C2340 1.404 . S
C2341 H2353 0.930 . S
C2342 C2338 1.524 . S
C2342 H2354 0.956 . S
C2342 H2355 0.961 . S
C2342 H2356 0.961 . S
C2343 C2340 1.539 . S
C2343 H2357 0.958 . S
C2343 H2358 0.961 . S
C2343 H2359 0.960 . S
H2344 C2328 0.931 . S
H2345 C2333 0.929 . S
H2346 C2334 0.960 . S
H2347 C2334 0.962 . S
H2348 C2334 0.960 . S
H2349 C2335 0.961 . S
H2350 C2335 0.961 . S
H2351 C2335 0.961 . S
H2352 C2336 0.931 . S
H2353 C2341 0.930 . S
H2354 C2342 0.956 . S
H2355 C2342 0.961 . S
H2356 C2342 0.961 . S
H2357 C2343 0.958 . S
H2358 C2343 0.961 . S
H2359 C2343 0.960 . S
C2360 C2361 1.391 . S
C2360 C2362 1.394 . S
C2360 H2376 0.931 . S
C2361 C2360 1.391 . S
C2361 C2365 1.376 . S
C2362 C2360 1.394 . S
C2362 C2363 1.369 . S
C2362 C2366 1.531 . S
C2363 C2362 1.369 . S
C2363 C2364 1.410 . S
C2363 C2371 1.503 . S
C2364 C2363 1.410 . S
C2364 C2365 1.392 . S
C2364 C2367 1.511 . S
C2365 C2361 1.376 . S
C2365 C2364 1.392 . S
C2365 H2377 0.929 . S
C2366 C2362 1.531 . S
C2366 H2378 0.960 . S
C2366 H2379 0.962 . S
C2366 H2380 0.960 . S
C2367 C2364 1.511 . S
C2367 H2381 0.961 . S
C2367 H2382 0.961 . S
C2367 H2383 0.961 . S
C2368 C2369 1.370 . S
C2368 C2370 1.363 . S
C2368 H2384 0.931 . S
C2369 C2368 1.370 . S
C2369 C2373 1.408 . S
C2370 C2368 1.363 . S
C2370 C2371 1.370 . S
C2370 C2374 1.524 . S
C2371 C2363 1.503 . S
C2371 C2370 1.370 . S
C2371 C2372 1.403 . S
C2372 C2371 1.403 . S
C2372 C2373 1.404 . S
C2372 C2375 1.539 . S
C2373 C2369 1.408 . S
C2373 C2372 1.404 . S
C2373 H2385 0.930 . S
C2374 C2370 1.524 . S
C2374 H2386 0.956 . S
C2374 H2387 0.961 . S
C2374 H2388 0.961 . S
C2375 C2372 1.539 . S
C2375 H2389 0.958 . S
C2375 H2390 0.961 . S
C2375 H2391 0.960 . S
H2376 C2360 0.931 . S
H2377 C2365 0.929 . S
H2378 C2366 0.960 . S
H2379 C2366 0.962 . S
H2380 C2366 0.960 . S
H2381 C2367 0.961 . S
H2382 C2367 0.961 . S
H2383 C2367 0.961 . S
H2384 C2368 0.931 . S
H2385 C2373 0.930 . S
H2386 C2374 0.956 . S
H2387 C2374 0.961 . S
H2388 C2374 0.961 . S
H2389 C2375 0.958 . S
H2390 C2375 0.961 . S
H2391 C2375 0.960 . S
C2392 C2393 1.391 . S
C2392 C2394 1.394 . S
C2392 H2408 0.931 . S
C2393 C2392 1.391 . S
C2393 C2397 1.376 . S
C2394 C2392 1.394 . S
C2394 C2395 1.369 . S
C2394 C2398 1.531 . S
C2395 C2394 1.369 . S
C2395 C2396 1.410 . S
C2395 C2403 1.503 . S
C2396 C2395 1.410 . S
C2396 C2397 1.392 . S
C2396 C2399 1.511 . S
C2397 C2393 1.376 . S
C2397 C2396 1.392 . S
C2397 H2409 0.929 . S
C2398 C2394 1.531 . S
C2398 H2410 0.960 . S
C2398 H2411 0.962 . S
C2398 H2412 0.960 . S
C2399 C2396 1.511 . S
C2399 H2413 0.961 . S
C2399 H2414 0.961 . S
C2399 H2415 0.961 . S
C2400 C2401 1.370 . S
C2400 C2402 1.363 . S
C2400 H2416 0.931 . S
C2401 C2400 1.370 . S
C2401 C2405 1.408 . S
C2402 C2400 1.363 . S
C2402 C2403 1.370 . S
C2402 C2406 1.524 . S
C2403 C2395 1.503 . S
C2403 C2402 1.370 . S
C2403 C2404 1.403 . S
C2404 C2403 1.403 . S
C2404 C2405 1.404 . S
C2404 C2407 1.539 . S
C2405 C2401 1.408 . S
C2405 C2404 1.404 . S
C2405 H2417 0.930 . S
C2406 C2402 1.524 . S
C2406 H2418 0.956 . S
C2406 H2419 0.961 . S
C2406 H2420 0.961 . S
C2407 C2404 1.539 . S
C2407 H2421 0.958 . S
C2407 H2422 0.961 . S
C2407 H2423 0.960 . S
H2408 C2392 0.931 . S
H2409 C2397 0.929 . S
H2410 C2398 0.960 . S
H2411 C2398 0.962 . S
H2412 C2398 0.960 . S
H2413 C2399 0.961 . S
H2414 C2399 0.961 . S
H2415 C2399 0.961 . S
H2416 C2400 0.931 . S
H2417 C2405 0.930 . S
H2418 C2406 0.956 . S
H2419 C2406 0.961 . S
H2420 C2406 0.961 . S
H2421 C2407 0.958 . S
H2422 C2407 0.961 . S
H2423 C2407 0.960 . S
C2424 C2425 1.391 . S
C2424 C2426 1.394 . S
C2424 H2440 0.931 . S
C2425 C2424 1.391 . S
C2425 C2429 1.376 . S
C2426 C2424 1.394 . S
C2426 C2427 1.369 . S
C2426 C2430 1.531 . S
C2427 C2426 1.369 . S
C2427 C2428 1.410 . S
C2427 C2435 1.503 . S
C2428 C2427 1.410 . S
C2428 C2429 1.392 . S
C2428 C2431 1.511 . S
C2429 C2425 1.376 . S
C2429 C2428 1.392 . S
C2429 H2441 0.929 . S
C2430 C2426 1.531 . S
C2430 H2442 0.960 . S
C2430 H2443 0.962 . S
C2430 H2444 0.960 . S
C2431 C2428 1.511 . S
C2431 H2445 0.961 . S
C2431 H2446 0.961 . S
C2431 H2447 0.961 . S
C2432 C2433 1.370 . S
C2432 C2434 1.363 1_556 S
C2432 H2448 0.931 . S
C2433 C2432 1.370 . S
C2433 C2437 1.408 . S
C2434 C2432 1.363 1_554 S
C2434 C2435 1.370 . S
C2434 C2438 1.524 . S
C2435 C2427 1.503 . S
C2435 C2434 1.370 . S
C2435 C2436 1.403 . S
C2436 C2435 1.403 . S
C2436 C2437 1.404 1_554 S
C2436 C2439 1.539 . S
C2437 C2433 1.408 . S
C2437 C2436 1.404 1_556 S
C2437 H2449 0.930 . S
C2438 C2434 1.524 . S
C2438 H2450 0.956 . S
C2438 H2451 0.961 . S
C2438 H2452 0.961 . S
C2439 C2436 1.539 . S
C2439 H2453 0.958 . S
C2439 H2454 0.961 . S
C2439 H2455 0.960 . S
H2440 C2424 0.931 . S
H2441 C2429 0.929 . S
H2442 C2430 0.960 . S
H2443 C2430 0.962 . S
H2444 C2430 0.960 . S
H2445 C2431 0.961 . S
H2446 C2431 0.961 . S
H2447 C2431 0.961 . S
H2448 C2432 0.931 . S
H2449 C2437 0.930 . S
H2450 C2438 0.956 . S
H2451 C2438 0.961 . S
H2452 C2438 0.961 . S
H2453 C2439 0.958 . S
H2454 C2439 0.961 . S
H2455 C2439 0.960 . S
C2456 C2457 1.391 . S
C2456 C2458 1.394 . S
C2456 H2472 0.931 . S
C2457 C2456 1.391 . S
C2457 C2461 1.376 . S
C2458 C2456 1.394 . S
C2458 C2459 1.369 . S
C2458 C2462 1.531 . S
C2459 C2458 1.369 . S
C2459 C2460 1.410 . S
C2459 C2467 1.503 . S
C2460 C2459 1.410 . S
C2460 C2461 1.392 . S
C2460 C2463 1.511 . S
C2461 C2457 1.376 . S
C2461 C2460 1.392 . S
C2461 H2473 0.929 . S
C2462 C2458 1.531 . S
C2462 H2474 0.960 . S
C2462 H2475 0.962 . S
C2462 H2476 0.960 . S
C2463 C2460 1.511 . S
C2463 H2477 0.961 . S
C2463 H2478 0.961 . S
C2463 H2479 0.961 . S
C2464 C2465 1.370 . S
C2464 C2466 1.363 1_556 S
C2464 H2480 0.931 . S
C2465 C2464 1.370 . S
C2465 C2469 1.408 . S
C2466 C2464 1.363 1_554 S
C2466 C2467 1.370 . S
C2466 C2470 1.524 . S
C2467 C2459 1.503 . S
C2467 C2466 1.370 . S
C2467 C2468 1.403 . S
C2468 C2467 1.403 . S
C2468 C2469 1.404 1_554 S
C2468 C2471 1.539 . S
C2469 C2465 1.408 . S
C2469 C2468 1.404 1_556 S
C2469 H2481 0.930 . S
C2470 C2466 1.524 . S
C2470 H2482 0.956 . S
C2470 H2483 0.961 . S
C2470 H2484 0.961 . S
C2471 C2468 1.539 . S
C2471 H2485 0.958 . S
C2471 H2486 0.961 . S
C2471 H2487 0.960 . S
H2472 C2456 0.931 . S
H2473 C2461 0.929 . S
H2474 C2462 0.960 . S
H2475 C2462 0.962 . S
H2476 C2462 0.960 . S
H2477 C2463 0.961 . S
H2478 C2463 0.961 . S
H2479 C2463 0.961 . S
H2480 C2464 0.931 . S
H2481 C2469 0.930 . S
H2482 C2470 0.956 . S
H2483 C2470 0.961 . S
H2484 C2470 0.961 . S
H2485 C2471 0.958 . S
H2486 C2471 0.961 . S
H2487 C2471 0.960 . S
C2488 C2489 1.391 . S
C2488 C2490 1.394 . S
C2488 H2504 0.931 . S
C2489 C2488 1.391 . S
C2489 C2493 1.376 . S
C2490 C2488 1.394 . S
C2490 C2491 1.369 . S
C2490 C2494 1.531 . S
C2491 C2490 1.369 . S
C2491 C2492 1.410 . S
C2491 C2499 1.503 . S
C2492 C2491 1.410 . S
C2492 C2493 1.392 . S
C2492 C2495 1.511 . S
C2493 C2489 1.376 . S
C2493 C2492 1.392 . S
C2493 H2505 0.929 . S
C2494 C2490 1.531 . S
C2494 H2506 0.960 . S
C2494 H2507 0.962 . S
C2494 H2508 0.960 . S
C2495 C2492 1.511 . S
C2495 H2509 0.961 . S
C2495 H2510 0.961 . S
C2495 H2511 0.961 . S
C2496 C2497 1.387 . S
C2496 C2498 1.337 1_556 S
C2496 H2512 0.941 . S
C2497 C2496 1.387 . S
C2497 C2501 1.408 . S
C2498 C2496 1.337 1_554 S
C2498 C2499 1.370 . S
C2498 C2502 1.524 . S
C2499 C2491 1.503 . S
C2499 C2498 1.370 . S
C2499 C2500 1.403 . S
C2500 C2499 1.403 . S
C2500 C2501 1.404 1_554 S
C2500 C2503 1.539 . S
C2501 C2497 1.408 . S
C2501 C2500 1.404 1_556 S
C2501 H2513 0.930 . S
C2502 C2498 1.524 . S
C2502 H2514 0.956 . S
C2502 H2515 0.961 . S
C2502 H2516 0.961 . S
C2503 C2500 1.539 . S
C2503 H2517 0.958 . S
C2503 H2518 0.961 . S
C2503 H2519 0.960 . S
H2504 C2488 0.931 . S
H2505 C2493 0.929 . S
H2506 C2494 0.960 . S
H2507 C2494 0.962 . S
H2508 C2494 0.960 . S
H2509 C2495 0.961 . S
H2510 C2495 0.961 . S
H2511 C2495 0.961 . S
H2512 C2496 0.941 . S
H2513 C2501 0.930 . S
H2514 C2502 0.956 . S
H2515 C2502 0.961 . S
H2516 C2502 0.961 . S
H2517 C2503 0.958 . S
H2518 C2503 0.961 . S
H2519 C2503 0.960 . S
C2520 C2521 1.391 . S
C2520 C2522 1.394 . S
C2520 H2536 0.931 . S
C2521 C2520 1.391 . S
C2521 C2525 1.376 . S
C2522 C2520 1.394 . S
C2522 C2523 1.369 . S
C2522 C2526 1.531 . S
C2523 C2522 1.369 . S
C2523 C2524 1.410 . S
C2523 C2531 1.503 . S
C2524 C2523 1.410 . S
C2524 C2525 1.392 . S
C2524 C2527 1.511 . S
C2525 C2521 1.376 . S
C2525 C2524 1.392 . S
C2525 H2537 0.929 . S
C2526 C2522 1.531 . S
C2526 H2538 0.960 . S
C2526 H2539 0.962 . S
C2526 H2540 0.960 . S
C2527 C2524 1.511 . S
C2527 H2541 0.961 . S
C2527 H2542 0.961 . S
C2527 H2543 0.961 . S
C2528 C2529 1.370 . S
C2528 C2530 1.363 . S
C2528 H2544 0.931 . S
C2529 C2528 1.370 . S
C2529 C2533 1.408 . S
C2530 C2528 1.363 . S
C2530 C2531 1.370 . S
C2530 C2534 1.524 . S
C2531 C2523 1.503 . S
C2531 C2530 1.370 . S
C2531 C2532 1.403 . S
C2532 C2531 1.403 . S
C2532 C2533 1.404 . S
C2532 C2535 1.539 . S
C2533 C2529 1.408 . S
C2533 C2532 1.404 . S
C2533 H2545 0.930 . S
C2534 C2530 1.524 . S
C2534 H2546 0.956 . S
C2534 H2547 0.961 . S
C2534 H2548 0.961 . S
C2535 C2532 1.539 . S
C2535 H2549 0.958 . S
C2535 H2550 0.961 . S
C2535 H2551 0.960 . S
H2536 C2520 0.931 . S
H2537 C2525 0.929 . S
H2538 C2526 0.960 . S
H2539 C2526 0.962 . S
H2540 C2526 0.960 . S
H2541 C2527 0.961 . S
H2542 C2527 0.961 . S
H2543 C2527 0.961 . S
H2544 C2528 0.931 . S
H2545 C2533 0.930 . S
H2546 C2534 0.956 . S
H2547 C2534 0.961 . S
H2548 C2534 0.961 . S
H2549 C2535 0.958 . S
H2550 C2535 0.961 . S
H2551 C2535 0.960 . S
C2552 C2553 1.391 . S
C2552 C2554 1.394 . S
C2552 H2568 0.931 . S
C2553 C2552 1.391 . S
C2553 C2557 1.376 . S
C2554 C2552 1.394 . S
C2554 C2555 1.369 . S
C2554 C2558 1.531 . S
C2555 C2554 1.369 . S
C2555 C2556 1.410 . S
C2555 C2563 1.503 . S
C2556 C2555 1.410 . S
C2556 C2557 1.392 . S
C2556 C2559 1.511 . S
C2557 C2553 1.376 . S
C2557 C2556 1.392 . S
C2557 H2569 0.929 . S
C2558 C2554 1.531 . S
C2558 H2570 0.960 . S
C2558 H2571 0.962 . S
C2558 H2572 0.960 . S
C2559 C2556 1.511 . S
C2559 H2573 0.961 . S
C2559 H2574 0.961 . S
C2559 H2575 0.961 . S
C2560 C2561 1.370 . S
C2560 C2562 1.363 . S
C2560 H2576 0.931 . S
C2561 C2560 1.370 . S
C2561 C2565 1.408 . S
C2562 C2560 1.363 . S
C2562 C2563 1.370 . S
C2562 C2566 1.524 . S
C2563 C2555 1.503 . S
C2563 C2562 1.370 . S
C2563 C2564 1.403 . S
C2564 C2563 1.403 . S
C2564 C2565 1.404 . S
C2564 C2567 1.539 . S
C2565 C2561 1.408 . S
C2565 C2564 1.404 . S
C2565 H2577 0.930 . S
C2566 C2562 1.524 . S
C2566 H2578 0.956 . S
C2566 H2579 0.961 . S
C2566 H2580 0.961 . S
C2567 C2564 1.539 . S
C2567 H2581 0.958 . S
C2567 H2582 0.961 . S
C2567 H2583 0.960 . S
H2568 C2552 0.931 . S
H2569 C2557 0.929 . S
H2570 C2558 0.960 . S
H2571 C2558 0.962 . S
H2572 C2558 0.960 . S
H2573 C2559 0.961 . S
H2574 C2559 0.961 . S
H2575 C2559 0.961 . S
H2576 C2560 0.931 . S
H2577 C2565 0.930 . S
H2578 C2566 0.956 . S
H2579 C2566 0.961 . S
H2580 C2566 0.961 . S
H2581 C2567 0.958 . S
H2582 C2567 0.961 . S
H2583 C2567 0.960 . S
C2584 C2585 1.391 . S
C2584 C2586 1.394 . S
C2584 H2600 0.931 . S
C2585 C2584 1.391 . S
C2585 C2589 1.376 . S
C2586 C2584 1.394 . S
C2586 C2587 1.369 . S
C2586 C2590 1.531 . S
C2587 C2586 1.369 . S
C2587 C2588 1.410 . S
C2587 C2595 1.503 . S
C2588 C2587 1.410 . S
C2588 C2589 1.392 . S
C2588 C2591 1.511 . S
C2589 C2585 1.376 . S
C2589 C2588 1.392 . S
C2589 H2601 0.929 . S
C2590 C2586 1.531 . S
C2590 H2602 0.960 . S
C2590 H2603 0.962 . S
C2590 H2604 0.960 . S
C2591 C2588 1.511 . S
C2591 H2605 0.961 . S
C2591 H2606 0.961 . S
C2591 H2607 0.961 . S
C2592 C2593 1.370 . S
C2592 C2594 1.363 . S
C2592 H2608 0.931 . S
C2593 C2592 1.370 . S
C2593 C2597 1.408 . S
C2594 C2592 1.363 . S
C2594 C2595 1.370 . S
C2594 C2598 1.524 . S
C2595 C2587 1.503 . S
C2595 C2594 1.370 . S
C2595 C2596 1.403 . S
C2596 C2595 1.403 . S
C2596 C2597 1.404 . S
C2596 C2599 1.539 . S
C2597 C2593 1.408 . S
C2597 C2596 1.404 . S
C2597 H2609 0.930 . S
C2598 C2594 1.524 . S
C2598 H2610 0.956 . S
C2598 H2611 0.961 . S
C2598 H2612 0.961 . S
C2599 C2596 1.539 . S
C2599 H2613 0.958 . S
C2599 H2614 0.961 . S
C2599 H2615 0.960 . S
H2600 C2584 0.931 . S
H2601 C2589 0.929 . S
H2602 C2590 0.960 . S
H2603 C2590 0.962 . S
H2604 C2590 0.960 . S
H2605 C2591 0.961 . S
H2606 C2591 0.961 . S
H2607 C2591 0.961 . S
H2608 C2592 0.931 . S
H2609 C2597 0.930 . S
H2610 C2598 0.956 . S
H2611 C2598 0.961 . S
H2612 C2598 0.961 . S
H2613 C2599 0.958 . S
H2614 C2599 0.961 . S
H2615 C2599 0.960 . S
C2616 C2617 1.391 1_455 S
C2616 C2618 1.394 . S
C2616 H2632 0.931 . S
C2617 C2616 1.391 1_655 S
C2617 C2621 1.376 . S
C2618 C2616 1.394 . S
C2618 C2619 1.369 1_455 S
C2618 C2622 1.531 . S
C2619 C2618 1.369 1_655 S
C2619 C2620 1.410 . S
C2619 C2627 1.501 1_655 S
C2620 C2619 1.410 . S
C2620 C2621 1.392 . S
C2620 C2623 1.511 . S
C2621 C2617 1.376 . S
C2621 C2620 1.392 . S
C2621 H2633 0.929 . S
C2622 C2618 1.531 . S
C2622 H2634 0.960 . S
C2622 H2635 0.962 . S
C2622 H2636 0.960 . S
C2623 C2620 1.511 . S
C2623 H2637 0.961 . S
C2623 H2638 0.961 . S
C2623 H2639 0.961 . S
C2624 C2625 1.369 . S
C2624 C2626 1.363 1_455 S
C2624 H2640 0.961 1_455 S
C2625 C2624 1.369 . S
C2625 C2629 1.408 . S
C2626 C2624 1.363 1_655 S
C2626 C2627 1.379 1_655 S
C2626 C2630 1.524 . S
C2627 C2619 1.501 1_455 S
C2627 C2626 1.379 1_455 S
C2627 C2628 1.397 . S
C2628 C2627 1.397 . S
C2628 C2629 1.404 . S
C2628 C2631 1.539 . S
C2629 C2625 1.408 . S
C2629 C2628 1.404 . S
C2629 H2641 0.930 . S
C2630 C2626 1.524 . S
C2630 H2642 0.956 1_655 S
C2630 H2643 0.961 . S
C2630 H2644 0.961 . S
C2631 C2628 1.539 . S
C2631 H2645 0.958 . S
C2631 H2646 0.961 . S
C2631 H2647 0.926 1_455 S
H2632 C2616 0.931 . S
H2633 C2621 0.929 . S
H2634 C2622 0.960 . S
H2635 C2622 0.962 . S
H2636 C2622 0.960 . S
H2637 C2623 0.961 . S
H2638 C2623 0.961 . S
H2639 C2623 0.961 . S
H2640 C2624 0.961 1_655 S
H2641 C2629 0.930 . S
H2642 C2630 0.956 1_455 S
H2643 C2630 0.961 . S
H2644 C2630 0.961 . S
H2645 C2631 0.958 . S
H2646 C2631 0.961 . S
H2647 C2631 0.926 1_655 S
C2648 C2649 1.391 . S
C2648 C2650 1.394 . S
C2648 H2664 0.931 . S
C2649 C2648 1.391 . S
C2649 C2653 1.376 . S
C2650 C2648 1.394 . S
C2650 C2651 1.369 . S
C2650 C2654 1.531 . S
C2651 C2650 1.369 . S
C2651 C2652 1.410 . S
C2651 C2659 1.503 . S
C2652 C2651 1.410 . S
C2652 C2653 1.392 . S
C2652 C2655 1.511 . S
C2653 C2649 1.376 . S
C2653 C2652 1.392 . S
C2653 H2665 0.929 . S
C2654 C2650 1.531 . S
C2654 H2666 0.960 . S
C2654 H2667 0.962 . S
C2654 H2668 0.960 . S
C2655 C2652 1.511 . S
C2655 H2669 0.961 . S
C2655 H2670 0.961 . S
C2655 H2671 0.961 . S
C2656 C2657 1.370 . S
C2656 C2658 1.363 . S
C2656 H2672 0.931 . S
C2657 C2656 1.370 . S
C2657 C2661 1.408 . S
C2658 C2656 1.363 . S
C2658 C2659 1.370 . S
C2658 C2662 1.524 . S
C2659 C2651 1.503 . S
C2659 C2658 1.370 . S
C2659 C2660 1.403 . S
C2660 C2659 1.403 . S
C2660 C2661 1.404 . S
C2660 C2663 1.539 . S
C2661 C2657 1.408 . S
C2661 C2660 1.404 . S
C2661 H2673 0.930 . S
C2662 C2658 1.524 . S
C2662 H2674 0.956 . S
C2662 H2675 0.961 . S
C2662 H2676 0.961 . S
C2663 C2660 1.539 . S
C2663 H2677 0.958 . S
C2663 H2678 0.961 . S
C2663 H2679 0.960 . S
H2664 C2648 0.931 . S
H2665 C2653 0.929 . S
H2666 C2654 0.960 . S
H2667 C2654 0.962 . S
H2668 C2654 0.960 . S
H2669 C2655 0.961 . S
H2670 C2655 0.961 . S
H2671 C2655 0.961 . S
H2672 C2656 0.931 . S
H2673 C2661 0.930 . S
H2674 C2662 0.956 . S
H2675 C2662 0.961 . S
H2676 C2662 0.961 . S
H2677 C2663 0.958 . S
H2678 C2663 0.961 . S
H2679 C2663 0.960 . S
C2680 C2681 1.391 1_545 S
C2680 C2682 1.394 . S
C2680 H2696 0.931 . S
C2681 C2680 1.391 1_565 S
C2681 C2685 1.376 . S
C2682 C2680 1.394 . S
C2682 C2683 1.369 . S
C2682 C2686 1.531 . S
C2683 C2682 1.369 . S
C2683 C2684 1.410 1_545 S
C2683 C2691 1.503 . S
C2684 C2683 1.410 1_565 S
C2684 C2685 1.392 . S
C2684 C2687 1.511 . S
C2685 C2681 1.376 . S
C2685 C2684 1.392 . S
C2685 H2697 0.929 . S
C2686 C2682 1.531 . S
C2686 H2698 0.960 . S
C2686 H2699 0.962 . S
C2686 H2700 0.960 . S
C2687 C2684 1.511 . S
C2687 H2701 0.961 . S
C2687 H2702 0.961 . S
C2687 H2703 0.961 1_565 S
C2688 C2689 1.370 1_565 S
C2688 C2690 1.363 . S
C2688 H2704 0.931 . S
C2689 C2688 1.370 1_545 S
C2689 C2693 1.408 . S
C2690 C2688 1.363 . S
C2690 C2691 1.370 1_565 S
C2690 C2694 1.524 . S
C2691 C2683 1.503 . S
C2691 C2690 1.370 1_545 S
C2691 C2692 1.403 . S
C2692 C2691 1.403 . S
C2692 C2693 1.404 . S
C2692 C2695 1.539 . S
C2693 C2689 1.408 . S
C2693 C2692 1.404 . S
C2693 H2705 0.930 . S
C2694 C2690 1.524 . S
C2694 H2706 0.956 . S
C2694 H2707 0.961 . S
C2694 H2708 0.961 . S
C2695 C2692 1.539 . S
C2695 H2709 0.958 . S
C2695 H2710 0.961 . S
C2695 H2711 0.960 . S
H2696 C2680 0.931 . S
H2697 C2685 0.929 . S
H2698 C2686 0.960 . S
H2699 C2686 0.962 . S
H2700 C2686 0.960 . S
H2701 C2687 0.961 . S
H2702 C2687 0.961 . S
H2703 C2687 0.961 1_545 S
H2704 C2688 0.931 . S
H2705 C2693 0.930 . S
H2706 C2694 0.956 . S
H2707 C2694 0.961 . S
H2708 C2694 0.961 . S
H2709 C2695 0.958 . S
H2710 C2695 0.961 . S
H2711 C2695 0.960 . S
C2712 C2713 1.391 1_545 S
C2712 C2714 1.394 . S
C2712 H2728 0.931 . S
C2713 C2712 1.391 1_565 S
C2713 C2717 1.376 . S
C2714 C2712 1.394 . S
C2714 C2715 1.369 . S
C2714 C2718 1.531 . S
C2715 C2714 1.369 . S
C2715 C2716 1.410 1_545 S
C2715 C2723 1.503 . S
C2716 C2715 1.410 1_565 S
C2716 C2717 1.392 . S
C2716 C2719 1.511 . S
C2717 C2713 1.376 . S
C2717 C2716 1.392 . S
C2717 H2729 0.929 . S
C2718 C2714 1.531 . S
C2718 H2730 0.960 . S
C2718 H2731 0.962 . S
C2718 H2732 0.960 . S
C2719 C2716 1.511 . S
C2719 H2733 0.961 . S
C2719 H2734 0.961 . S
C2719 H2735 0.966 . S
C2720 C2721 1.370 1_565 S
C2720 C2722 1.363 . S
C2720 H2736 0.931 . S
C2721 C2720 1.370 1_545 S
C2721 C2725 1.408 . S
C2722 C2720 1.363 . S
C2722 C2723 1.370 1_565 S
C2722 C2726 1.524 . S
C2723 C2715 1.503 . S
C2723 C2722 1.370 1_545 S
C2723 C2724 1.403 . S
C2724 C2723 1.403 . S
C2724 C2725 1.404 . S
C2724 C2727 1.539 . S
C2725 C2721 1.408 . S
C2725 C2724 1.404 . S
C2725 H2737 0.930 . S
C2726 C2722 1.524 . S
C2726 H2738 0.956 . S
C2726 H2739 0.961 . S
C2726 H2740 0.961 . S
C2727 C2724 1.539 . S
C2727 H2741 0.958 . S
C2727 H2742 0.961 . S
C2727 H2743 0.960 . S
H2728 C2712 0.931 . S
H2729 C2717 0.929 . S
H2730 C2718 0.960 . S
H2731 C2718 0.962 . S
H2732 C2718 0.960 . S
H2733 C2719 0.961 . S
H2734 C2719 0.961 . S
H2735 C2719 0.966 . S
H2736 C2720 0.931 . S
H2737 C2725 0.930 . S
H2738 C2726 0.956 . S
H2739 C2726 0.961 . S
H2740 C2726 0.961 . S
H2741 C2727 0.958 . S
H2742 C2727 0.961 . S
H2743 C2727 0.960 . S
C2744 C2745 1.391 . S
C2744 C2746 1.394 . S
C2744 H2760 0.931 . S
C2745 C2744 1.391 . S
C2745 C2749 1.376 1_655 S
C2746 C2744 1.394 . S
C2746 C2747 1.445 . S
C2746 C2750 1.531 . S
C2747 C2746 1.445 . S
C2747 C2748 1.342 1_655 S
C2747 C2755 1.499 1_655 S
C2748 C2747 1.342 1_455 S
C2748 C2749 1.392 . S
C2748 C2751 1.511 . S
C2749 C2745 1.376 1_455 S
C2749 C2748 1.392 . S
C2749 H2761 0.929 . S
C2750 C2746 1.531 . S
C2750 H2762 0.960 . S
C2750 H2763 0.962 . S
C2750 H2764 0.960 . S
C2751 C2748 1.511 . S
C2751 H2765 0.961 . S
C2751 H2766 0.961 . S
C2751 H2767 0.961 . S
C2752 C2753 1.370 . S
C2752 C2754 1.363 . S
C2752 H2768 0.931 . S
C2753 C2752 1.370 . S
C2753 C2757 1.409 . S
C2754 C2752 1.363 . S
C2754 C2755 1.370 . S
C2754 C2758 1.524 . S
C2755 C2747 1.499 1_455 S
C2755 C2754 1.370 . S
C2755 C2756 1.403 1_455 S
C2756 C2755 1.403 1_655 S
C2756 C2757 1.404 1_655 S
C2756 C2759 1.539 . S
C2757 C2753 1.409 . S
C2757 C2756 1.404 1_455 S
C2757 H2769 0.928 1_455 S
C2758 C2754 1.524 . S
C2758 H2770 0.956 . S
C2758 H2771 0.961 . S
C2758 H2772 0.961 . S
C2759 C2756 1.539 . S
C2759 H2773 0.958 . S
C2759 H2774 0.961 . S
C2759 H2775 0.960 . S
H2760 C2744 0.931 . S
H2761 C2749 0.929 . S
H2762 C2750 0.960 . S
H2763 C2750 0.962 . S
H2764 C2750 0.960 . S
H2765 C2751 0.961 . S
H2766 C2751 0.961 . S
H2767 C2751 0.961 . S
H2768 C2752 0.931 . S
H2769 C2757 0.928 1_655 S
H2770 C2758 0.956 . S
H2771 C2758 0.961 . S
H2772 C2758 0.961 . S
H2773 C2759 0.958 . S
H2774 C2759 0.961 . S
H2775 C2759 0.960 . S
C2776 C2777 1.391 . S
C2776 C2778 1.394 . S
C2776 H2792 0.931 . S
C2777 C2776 1.391 . S
C2777 C2781 1.376 . S
C2778 C2776 1.394 . S
C2778 C2779 1.369 . S
C2778 C2782 1.531 . S
C2779 C2778 1.369 . S
C2779 C2780 1.410 . S
C2779 C2787 1.503 . S
C2780 C2779 1.410 . S
C2780 C2781 1.392 . S
C2780 C2783 1.511 . S
C2781 C2777 1.376 . S
C2781 C2780 1.392 . S
C2781 H2793 0.929 . S
C2782 C2778 1.531 . S
C2782 H2794 0.960 . S
C2782 H2795 0.962 . S
C2782 H2796 0.960 . S
C2783 C2780 1.511 . S
C2783 H2797 0.961 . S
C2783 H2798 0.961 . S
C2783 H2799 0.961 . S
C2784 C2785 1.370 . S
C2784 C2786 1.363 . S
C2784 H2800 0.931 . S
C2785 C2784 1.370 . S
C2785 C2789 1.408 . S
C2786 C2784 1.363 . S
C2786 C2787 1.370 . S
C2786 C2790 1.524 . S
C2787 C2779 1.503 . S
C2787 C2786 1.370 . S
C2787 C2788 1.403 . S
C2788 C2787 1.403 . S
C2788 C2789 1.404 . S
C2788 C2791 1.539 . S
C2789 C2785 1.408 . S
C2789 C2788 1.404 . S
C2789 H2801 0.930 . S
C2790 C2786 1.524 . S
C2790 H2802 0.956 . S
C2790 H2803 0.961 . S
C2790 H2804 0.961 . S
C2791 C2788 1.539 . S
C2791 H2805 0.958 . S
C2791 H2806 0.961 . S
C2791 H2807 0.960 . S
H2792 C2776 0.931 . S
H2793 C2781 0.929 . S
H2794 C2782 0.960 . S
H2795 C2782 0.962 . S
H2796 C2782 0.960 . S
H2797 C2783 0.961 . S
H2798 C2783 0.961 . S
H2799 C2783 0.961 . S
H2800 C2784 0.931 . S
H2801 C2789 0.930 . S
H2802 C2790 0.956 . S
H2803 C2790 0.961 . S
H2804 C2790 0.961 . S
H2805 C2791 0.958 . S
H2806 C2791 0.961 . S
H2807 C2791 0.960 . S
C505 C224 1.831 . S
C513 C13 1.841 . S
C537 C250 1.839 . S
C545 C15 1.842 . S
C569 C223 1.829 . S
C577 C29 1.840 . S
C601 C365 1.796 . S
C609 C55 1.807 . S
C633 C57 1.805 . S
C641 C349 1.809 . S
C665 C83 1.799 . S
C673 C350 1.806 . S
C697 C97 1.836 . S
C705 C476 1.842 . S
C729 C502 1.829 . S
C737 C99 1.842 . S
C761 C462 1.832 . S
C769 C112 1.842 . S
C793 C127 1.805 . S
C801 C293 1.805 . S
C825 C252 1.796 . S
C833 C140 1.808 . S
C857 C167 1.804 . S
C865 C267 1.805 . S
C889 C405 1.726 . S
C897 C168 1.725 . S
C921 C195 1.725 . S
C929 C407 1.723 . S
C953 C379 1.732 . S
C961 C197 1.726 . S
C985 C460 1.725 . S
C993 C295 1.729 . S
C1017 C421 1.722 . S
C1025 C320 1.725 . S
C1049 C335 1.732 . S
C1057 C435 1.726 . S
C1081 C265 1.789 . S
C1089 C0 1.761 . S
C1113 C278 1.756 . S
C1121 C26 1.776 . S
C1145 C280 1.787 . S
C1153 C40 1.762 . S
C1177 C42 1.746 . S
C1185 C475 1.781 . S
C1209 C68 1.765 . S
C1217 C489 1.772 . S
C1241 C70 1.765 . S
C1249 C491 1.775 . S
C1273 C84 1.742 . S
C1281 C336 1.781 . S
C1305 C363 1.788 . S
C1313 C110 1.760 . S
C1337 C376 1.777 . S
C1345 C125 1.768 . S
C1369 C210 1.784 . S
C1377 C138 1.762 . S
C1401 C153 1.746 . S
C1409 C237 1.779 . S
C1433 C154 1.749 . S
C1441 C239 1.778 . S
C1465 C181 1.752 . S
C1473 C432 1.768 . S
C1497 C446 1.751 . S
C1505 C182 1.773 . S
C1529 C449 1.785 . S
C1537 C208 1.759 . S
C1561 C390 1.798 . S
C1569 C306 1.768 . S
C1593 C309 1.797 . S
C1601 C392 1.771 . S
C1625 C322 1.795 . S
C1633 C418 1.770 . S
C1657 C391 1.797 . S
C1665 C1 1.790 . S
C1689 C27 1.793 . S
C1697 C393 1.790 . S
C1721 C41 1.790 . S
C1729 C419 1.789 . S
C1753 C180 1.762 . S
C1761 C43 1.759 . S
C1785 C69 1.753 . S
C1793 C183 1.754 . S
C1817 C71 1.749 . S
C1825 C209 1.753 . S
C1849 C307 1.774 . S
C1857 C85 1.787 . S
C1881 C111 1.788 . S
C1889 C308 1.796 . S
C1913 C323 1.798 . S
C1921 C124 1.788 . S
C1945 C139 1.765 . S
C1953 C433 1.763 . S
C1977 C447 1.741 . S
C1985 C152 1.753 . S
C2009 C448 1.756 . S
C2017 C155 1.756 . S
C2041 C337 1.771 . S
C2049 C211 1.769 . S
C2073 C362 1.759 . S
C2081 C236 1.772 . S
C2105 C377 1.768 . S
C2113 C238 1.776 . S
C2137 C264 1.778 . S
C2145 C474 1.771 . S
C2169 C488 1.762 . S
C2177 C279 1.768 . S
C2201 C490 1.755 . S
C2209 C281 1.770 . S
C2233 C12 0.927 . S
C2241 C225 0.942 . S
C2265 C14 0.927 . S
C2273 C251 0.937 . S
C2297 C28 0.947 . S
C2305 C222 0.940 . S
C2329 C364 0.979 . S
C2337 C54 0.975 . S
C2361 C348 0.965 . S
C2369 C56 0.976 . S
C2393 C351 0.976 . S
C2401 C82 0.976 . S
C2425 C477 0.939 . S
C2433 C96 0.943 . S
C2457 C503 0.937 . S
C2465 C98 0.943 . S
C2489 C463 0.945 . S
C2497 C113 0.934 . S
C2521 C126 0.963 . S
C2529 C292 0.977 . S
C2553 C141 0.981 . S
C2561 C253 0.972 . S
C2585 C166 0.975 . S
C2593 C266 0.975 . S
C2617 C404 1.045 . S
C2625 C169 1.058 . S
C2649 C406 1.044 . S
C2657 C194 1.064 . S
C2681 C196 1.044 . S
C2689 C378 1.061 . S
C2713 C294 1.048 . S
C2721 C461 1.065 . S
C2745 C420 1.053 . S
C2753 C321 1.056 . S
C2777 C434 1.043 . S
C2785 C334 1.063 . S
