# Generated by pormake.
# Topology sod, (4)-cn, num edge types: 1
# Building blocks:
#     Node 0, Type 0, BuildingBlock: UXUYUI_clean_sbu_0, # of connection points: 4
#     Node 1, Type 0, BuildingBlock: UXUYUI_clean_sbu_0, # of connection points: 4
#     Node 2, Type 0, BuildingBlock: UXUYUI_clean_sbu_0, # of connection points: 4
#     Node 3, Type 0, BuildingBlock: UXUYUI_clean_sbu_0, # of connection points: 4
#     Node 4, Type 0, BuildingBlock: UXUYUI_clean_sbu_0, # of connection points: 4
#     Node 5, Type 0, BuildingBlock: UXUYUI_clean_sbu_0, # of connection points: 4
#     Node 6, Type 0, BuildingBlock: UXUYUI_clean_sbu_0, # of connection points: 4
#     Node 7, Type 0, BuildingBlock: UXUYUI_clean_sbu_0, # of connection points: 4
#     Node 8, Type 0, BuildingBlock: UXUYUI_clean_sbu_0, # of connection points: 4
#     Node 9, Type 0, BuildingBlock: UXUYUI_clean_sbu_0, # of connection points: 4
#     Node 10, Type 0, BuildingBlock: UXUYUI_clean_sbu_0, # of connection points: 4
#     Node 11, Type 0, BuildingBlock: UXUYUI_clean_sbu_0, # of connection points: 4
#     Edge 12, Type (0, 0), BuildingBlock: MIFKUJ_clean_linker_0, # of connection points: 2
#     Edge 13, Type (0, 0), BuildingBlock: MIFKUJ_clean_linker_0, # of connection points: 2
#     Edge 14, Type (0, 0), BuildingBlock: MIFKUJ_clean_linker_0, # of connection points: 2
#     Edge 15, Type (0, 0), BuildingBlock: MIFKUJ_clean_linker_0, # of connection points: 2
#     Edge 16, Type (0, 0), BuildingBlock: MIFKUJ_clean_linker_0, # of connection points: 2
#     Edge 17, Type (0, 0), BuildingBlock: MIFKUJ_clean_linker_0, # of connection points: 2
#     Edge 18, Type (0, 0), BuildingBlock: MIFKUJ_clean_linker_0, # of connection points: 2
#     Edge 19, Type (0, 0), BuildingBlock: MIFKUJ_clean_linker_0, # of connection points: 2
#     Edge 20, Type (0, 0), BuildingBlock: MIFKUJ_clean_linker_0, # of connection points: 2
#     Edge 21, Type (0, 0), BuildingBlock: MIFKUJ_clean_linker_0, # of connection points: 2
#     Edge 22, Type (0, 0), BuildingBlock: MIFKUJ_clean_linker_0, # of connection points: 2
#     Edge 23, Type (0, 0), BuildingBlock: MIFKUJ_clean_linker_0, # of connection points: 2
#     Edge 24, Type (0, 0), BuildingBlock: MIFKUJ_clean_linker_0, # of connection points: 2
#     Edge 25, Type (0, 0), BuildingBlock: MIFKUJ_clean_linker_0, # of connection points: 2
#     Edge 26, Type (0, 0), BuildingBlock: MIFKUJ_clean_linker_0, # of connection points: 2
#     Edge 27, Type (0, 0), BuildingBlock: MIFKUJ_clean_linker_0, # of connection points: 2
#     Edge 28, Type (0, 0), BuildingBlock: MIFKUJ_clean_linker_0, # of connection points: 2
#     Edge 29, Type (0, 0), BuildingBlock: MIFKUJ_clean_linker_0, # of connection points: 2
#     Edge 30, Type (0, 0), BuildingBlock: MIFKUJ_clean_linker_0, # of connection points: 2
#     Edge 31, Type (0, 0), BuildingBlock: MIFKUJ_clean_linker_0, # of connection points: 2
#     Edge 32, Type (0, 0), BuildingBlock: MIFKUJ_clean_linker_0, # of connection points: 2
#     Edge 33, Type (0, 0), BuildingBlock: MIFKUJ_clean_linker_0, # of connection points: 2
#     Edge 34, Type (0, 0), BuildingBlock: MIFKUJ_clean_linker_0, # of connection points: 2
#     Edge 35, Type (0, 0), BuildingBlock: MIFKUJ_clean_linker_0, # of connection points: 2
# Relax obj value: 0.150
# Max RMSD: 0.167
# Mean RMSD: 0.167
data_MOF--net-sod--node1-UXUYUI_clean_sbu_0--edge1-MIFKUJ_clean_linker_0
_symmetry_space_group_name_H-M    P1
_symmetry_Int_Tables_number       1
_symmetry_cell_setting            triclinic
loop_
_symmetry_equiv_pos_as_xyz
'x, y, z'
_cell_length_a     74.820333
_cell_length_b     74.770329
_cell_length_c     74.767682
_cell_angle_alpha  89.990386
_cell_angle_beta   89.986395
_cell_angle_gamma 90.017968
loop_
_atom_site_label
_atom_site_type_symbol
_atom_site_fract_x
_atom_site_fract_y
_atom_site_fract_z
_atom_type_partial_charge
Li0 Li 0.98282 0.23759 0.49776 0.0
Li1 Li -0.00151 0.259 0.51679 0.0
Li2 Li 0.0017 0.26015 0.48397 0.0
Li3 Li 0.01538 0.23644 0.50104 0.0
C4 C 0.96362 0.27111 0.49671 0.0
N5 N 0.93008 0.28614 0.49299 0.0
C6 C 0.95366 0.27573 0.51184 0.0
C7 C 0.95666 0.27447 0.47969 0.0
C8 C 0.93668 0.28321 0.50968 0.0
C9 C 0.93964 0.28199 0.47809 0.0
C10 C 0.00481 0.2271 0.53528 0.0
C11 C 0.02755 0.2304 0.55791 0.0
N12 N 0.02111 0.21566 0.5664 0.0
C13 C -0.00158 0.21199 0.54422 0.0
C14 C 0.0195 0.2364 0.54216 0.0
C15 C 0.00684 0.20641 0.55994 0.0
C16 C 0.96347 0.20771 0.48637 0.0
N17 N 0.96198 0.22332 0.49555 0.0
C18 C 0.93136 0.21717 0.50222 0.0
C19 C 0.9464 0.22812 0.50359 0.0
C20 C 0.93248 0.20101 0.49272 0.0
C21 C 0.94879 0.19636 0.48467 0.0
H22 H 0.97613 0.20398 0.4805 0.0
H23 H 0.94573 0.24023 0.51138 0.0
C24 C 0.00594 0.28832 0.53865 0.0
N25 N 0.99661 0.27278 0.53776 0.0
C26 C 0.00517 0.29882 0.55403 0.0
C27 C 0.98508 0.27713 0.5672 0.0
C28 C 0.98629 0.26702 0.55156 0.0
C29 C 0.99465 0.29324 0.56856 0.0
H30 H 0.01393 0.29256 0.52736 0.0
H31 H 0.97903 0.25456 0.5504 0.0
C32 C 0.99687 0.23002 0.46171 0.0
N33 N 0.98833 0.22202 0.42667 0.0
C34 C 0.00914 0.22102 0.45087 0.0
C35 C 0.9802 0.2348 0.45478 0.0
C36 C 0.0046 0.21714 0.43317 0.0
C37 C 0.97615 0.23067 0.43702 0.0
C38 C 0.03664 0.26633 0.49415 0.0
C39 C 0.0418 0.25677 0.47893 0.0
C40 C 0.04771 0.27986 0.50075 0.0
C41 C 0.05794 0.26097 0.47053 0.0
C42 C 0.06375 0.28365 0.49197 0.0
N43 N 0.06849 0.27421 0.47716 0.0
C44 C -0.0018 0.29322 0.4676 0.0
C45 C 0.01089 0.27134 0.44848 0.0
C46 C -0.00097 0.306 0.45405 0.0
N47 N 0.0039 0.27625 0.46453 0.0
C48 C 0.01187 0.28367 0.43451 0.0
C49 C 0.00583 0.30123 0.43721 0.0
H50 H 0.99288 0.29676 0.48058 0.0
H51 H 0.01579 0.25793 0.44648 0.0
C52 C 0.03288 0.20406 0.49545 0.0
N53 N 0.03496 0.22061 0.50263 0.0
C54 C 0.04675 0.19165 0.49637 0.0
C55 C 0.06461 0.21359 0.51206 0.0
C56 C 0.05038 0.22557 0.51087 0.0
C57 C 0.06286 0.19637 0.50479 0.0
H58 H 0.02041 0.20054 0.48903 0.0
H59 H 0.05159 0.23879 0.51659 0.0
O60 O 0.98036 0.264 0.49861 0.0
O61 O 0.99673 0.23262 0.51982 0.0
O62 O 0.00121 0.23401 0.47902 0.0
O63 O 0.02088 0.26253 0.50265 0.0
H64 H 0.9589 0.27341 0.52511 0.0
H65 H 0.96436 0.27151 0.46782 0.0
H66 H 0.92877 0.2867 0.52128 0.0
H67 H 0.93408 0.2846 0.46499 0.0
H68 H 0.03893 0.23746 0.56337 0.0
H69 H 0.98708 0.20464 0.53904 0.0
H70 H 0.02466 0.24811 0.53542 0.0
H71 H 0.00204 0.19473 0.567 0.0
H72 H 0.91914 0.22106 0.50895 0.0
H73 H 0.95021 0.18406 0.47716 0.0
H74 H 0.01252 0.31129 0.55444 0.0
H75 H 0.97691 0.27232 0.57815 0.0
H76 H 0.0221 0.21719 0.45606 0.0
H77 H 0.97045 0.24146 0.46308 0.0
H78 H 0.014 0.21026 0.4246 0.0
H79 H 0.96329 0.23431 0.43149 0.0
H80 H 0.03351 0.24619 0.47368 0.0
H81 H 0.04394 0.28736 0.51255 0.0
H82 H 0.06208 0.25368 0.45874 0.0
H83 H 0.07244 0.2941 0.49693 0.0
H84 H 0.99411 0.31938 0.45663 0.0
H85 H 0.01747 0.27956 0.42179 0.0
H86 H 0.04494 0.17857 0.49042 0.0
H87 H 0.07673 0.21767 0.51885 0.0
Li88 Li 0.73723 0.00035 0.51475 0.0
Li89 Li 0.76004 0.9843 0.49778 0.0
Li90 Li 0.75867 0.01774 0.49844 0.0
Li91 Li 0.73681 0.0008 0.4811 0.0
C92 C 0.76599 -0.00047 0.53627 0.0
N93 N 0.77033 0.99671 0.57286 0.0
C94 C 0.77282 0.98381 0.54373 0.0
C95 C 0.76158 0.01389 0.54739 0.0
C96 C 0.77487 0.98263 0.56227 0.0
C97 C 0.7638 0.01218 0.56586 0.0
C98 C 0.72769 0.96344 0.4945 0.0
C99 C 0.72082 0.93949 0.474 0.0
N100 N 0.71486 0.9294 0.48791 0.0
C101 C 0.72126 0.95292 0.50856 0.0
C102 C 0.72728 0.95676 0.47705 0.0
C103 C 0.71493 0.93571 0.50497 0.0
C104 C 0.70884 0.01088 0.53692 0.0
N105 N 0.72253 -0.00096 0.53531 0.0
C106 C 0.71446 0.98491 0.5628 0.0
C107 C 0.72543 0.98612 0.54777 0.0
C108 C 0.70015 0.99685 0.56471 0.0
C109 C 0.69734 0.00995 0.55157 0.0
H110 H 0.70673 0.02088 0.52669 0.0
H111 H 0.73612 0.97659 0.54593 0.0
C112 C 0.79188 0.9665 0.48999 0.0
N113 N 0.77546 0.96424 0.49741 0.0
C114 C 0.80386 0.95226 0.48922 0.0
C115 C 0.78198 0.93372 0.50416 0.0
C116 C 0.77042 0.94834 0.50463 0.0
C117 C 0.79894 0.93558 0.49634 0.0
H118 H 0.79565 0.9794 0.48462 0.0
H119 H 0.75755 0.94706 0.511 0.0
C120 C 0.73 0.03862 0.49688 0.0
N121 N 0.72623 0.07524 0.49388 0.0
C122 C 0.72543 0.04627 0.48045 0.0
C123 C 0.73243 0.04956 0.51184 0.0
C124 C 0.72363 0.06482 0.4792 0.0
C125 C 0.73054 0.06806 0.51003 0.0
C126 C 0.76961 0.99744 0.4613 0.0
C127 C 0.77824 0.01043 0.45099 0.0
C128 C 0.76792 0.98004 0.45469 0.0
C129 C 0.78478 0.00585 0.4341 0.0
C130 C 0.77467 0.97597 0.43775 0.0
N131 N 0.78287 0.98886 0.42788 0.0
C132 C 0.78449 0.04157 0.5118 0.0
C133 C 0.77163 0.05019 0.48412 0.0
C134 C 0.79579 0.0564 0.51151 0.0
N135 N 0.77279 0.03874 0.4982 0.0
C136 C 0.78256 0.06529 0.48336 0.0
C137 C 0.79498 0.06839 0.49708 0.0
H138 H 0.78532 0.03212 0.52269 0.0
H139 H 0.76247 0.0474 0.47331 0.0
C140 C 0.70477 0.99484 0.46324 0.0
N141 N 0.72182 0.00054 0.46073 0.0
C142 C 0.69292 0.99408 0.44887 0.0
C143 C 0.71639 0.00522 0.42961 0.0
C144 C 0.72772 0.00592 0.4444 0.0
C145 C 0.69871 -0.00081 0.43172 0.0
H146 H 0.7004 0.99089 0.47645 0.0
H147 H 0.74118 0.01083 0.4428 0.0
O148 O 0.76379 0.00088 0.51816 0.0
O149 O 0.73382 0.98038 0.4978 0.0
O150 O 0.73201 0.02051 0.49833 0.0
O151 O 0.7631 0.00176 0.47785 0.0
H152 H 0.77642 0.97261 0.53531 0.0
H153 H 0.75639 0.02618 0.54182 0.0
H154 H 0.78005 0.97051 0.56824 0.0
H155 H 0.76032 0.02314 0.57463 0.0
H156 H 0.72047 0.93415 0.46056 0.0
H157 H 0.72127 0.95793 0.52211 0.0
H158 H 0.73167 0.96485 0.46591 0.0
H159 H 0.71004 0.92739 0.51575 0.0
H160 H 0.71683 0.97447 0.57256 0.0
H161 H 0.68639 0.01936 0.55266 0.0
H162 H 0.81677 0.95424 0.48296 0.0
H163 H 0.77782 0.9212 0.51013 0.0
H164 H 0.72343 0.03798 0.46877 0.0
H165 H 0.73582 0.04383 0.52468 0.0
H166 H 0.7202 0.07094 0.46655 0.0
H167 H 0.7325 0.0767 0.52146 0.0
H168 H 0.77981 0.02393 0.45594 0.0
H169 H 0.76172 0.96971 0.46264 0.0
H170 H 0.79141 0.0158 0.42594 0.0
H171 H 0.77345 0.96255 0.43249 0.0
H172 H 0.80516 0.05839 0.52237 0.0
H173 H 0.78174 0.0741 0.47189 0.0
H174 H 0.67932 0.98973 0.45124 0.0
H175 H 0.7215 0.00918 0.41666 0.0
Li176 Li 0.01348 0.75699 0.4989 0.0
Li177 Li 0.99577 0.73615 0.51659 0.0
Li178 Li 0.99522 0.73453 0.48309 0.0
Li179 Li 0.98007 0.75827 0.49964 0.0
C180 C 0.03185 0.72338 0.49581 0.0
N181 N 0.06472 0.70857 0.4877 0.0
C182 C 0.0426 0.71634 0.50939 0.0
C183 C 0.0377 0.72256 0.47807 0.0
C184 C 0.05922 0.70901 0.50503 0.0
C185 C 0.05438 0.71511 0.47425 0.0
C186 C -0.00068 0.7648 0.53723 0.0
C187 C 0.98718 0.76402 0.5671 0.0
N188 N 0.00347 0.76861 0.57375 0.0
C189 C 0.01591 0.76964 0.54433 0.0
C190 C 0.98479 0.7621 0.54868 0.0
C191 C 0.01774 0.77146 0.56284 0.0
C192 C 0.03245 0.78784 0.49093 0.0
N193 N 0.03441 0.77118 0.49791 0.0
C194 C 0.06538 0.7765 0.50353 0.0
C195 C 0.05041 0.76539 0.50429 0.0
C196 C 0.06378 0.79376 0.49628 0.0
C197 C 0.04704 0.79936 0.48987 0.0
H198 H 0.0195 0.79217 0.4862 0.0
H199 H 0.0515 0.75231 0.51027 0.0
C200 C 0.98152 0.71162 0.54129 0.0
N201 N 0.99576 0.72236 0.53785 0.0
C202 C 0.98107 0.70133 0.55684 0.0
C203 C 0.00994 0.71336 0.565 0.0
C204 C 0.00987 0.72334 0.54924 0.0
C205 C 0.99542 0.70212 0.56894 0.0
H206 H 0.97059 0.71093 0.53188 0.0
H207 H 0.02105 0.73194 0.54612 0.0
C208 C 0.00082 0.76659 0.46219 0.0
N209 N 0.0099 0.77871 0.42845 0.0
C210 C 0.9882 0.77549 0.45166 0.0
C211 C 0.01814 0.7641 0.45563 0.0
C212 C 0.99302 0.78144 0.43462 0.0
C213 C 0.02245 0.77027 0.43853 0.0
C214 C 0.95701 0.73148 0.49875 0.0
C215 C 0.94922 0.72651 0.4825 0.0
C216 C 0.94611 0.73597 0.51325 0.0
C217 C 0.93061 0.72636 0.48096 0.0
C218 C 0.92756 0.73569 0.51117 0.0
N219 N 0.92026 0.73094 0.4952 0.0
C220 C -0.00196 0.7014 0.46654 0.0
C221 C 0.9895 0.72457 0.44667 0.0
C222 C -0.00233 0.68894 0.45268 0.0
N223 N 0.99413 0.71883 0.46328 0.0
C224 C 0.98912 0.7126 0.43237 0.0
C225 C 0.99328 0.6945 0.43527 0.0
H226 H 0.00145 0.69722 0.47997 0.0
H227 H 0.98603 0.73839 0.44446 0.0
C228 C 0.95818 0.78592 0.51255 0.0
N229 N 0.96022 0.77394 0.49906 0.0
C230 C 0.94396 0.79795 0.51233 0.0
C231 C 0.93414 0.785 0.48437 0.0
C232 C 0.94862 0.77328 0.48509 0.0
C233 C 0.93177 0.79764 0.49805 0.0
H234 H 0.96771 0.78627 0.52339 0.0
H235 H 0.95071 0.76376 0.47442 0.0
O236 O 0.01549 0.73051 0.49989 0.0
O237 O 0.99732 0.76278 0.51916 0.0
O238 O 0.99627 0.76069 0.47892 0.0
O239 O 0.9752 0.73191 0.50044 0.0
H240 H 0.03823 0.71661 0.52316 0.0
H241 H 0.02939 0.72741 0.46731 0.0
H242 H 0.06772 0.70364 0.51543 0.0
H243 H 0.05907 0.71445 0.46058 0.0
H244 H 0.97609 0.76184 0.57613 0.0
H245 H 0.02727 0.77186 0.53567 0.0
H246 H 0.97186 0.7584 0.54339 0.0
H247 H 0.03053 0.77511 0.56854 0.0
H248 H 0.07796 0.77179 0.50892 0.0
H249 H 0.04524 0.81249 0.48403 0.0
H250 H 0.96976 0.69258 0.55915 0.0
H251 H 0.0212 0.71451 0.57402 0.0
H252 H 0.97479 0.77772 0.45656 0.0
H253 H 0.02824 0.75774 0.46373 0.0
H254 H 0.98334 0.78825 0.4263 0.0
H255 H 0.03581 0.76841 0.43331 0.0
H256 H 0.95745 0.72294 0.47115 0.0
H257 H 0.95192 0.73979 0.52593 0.0
H258 H 0.9244 0.72264 0.46844 0.0
H259 H 0.91896 0.73926 0.52224 0.0
H260 H 0.00061 0.67508 0.45564 0.0
H261 H 0.98578 0.71754 0.41917 0.0
H262 H 0.94252 0.80741 0.52321 0.0
H263 H 0.92517 0.78449 0.47301 0.0
Li264 Li 0.23565 0.01077 0.50149 0.0
Li265 Li 0.25888 0.99418 0.51733 0.0
Li266 Li 0.25879 0.99535 0.4838 0.0
Li267 Li 0.23742 0.97732 0.50052 0.0
C268 C 0.26716 0.0323 0.49848 0.0
N269 N 0.27834 0.06706 0.49264 0.0
C270 C 0.27409 0.04245 0.51257 0.0
C271 C 0.26624 0.03974 0.48135 0.0
C272 C 0.27957 0.06002 0.50937 0.0
C273 C 0.27188 0.05735 0.47869 0.0
C274 C 0.23073 0.99372 0.53936 0.0
C275 C 0.23392 0.97983 0.5683 0.0
N276 N 0.22748 0.99492 0.57615 0.0
C277 C 0.22399 0.00903 0.5477 0.0
C278 C 0.23559 0.97894 0.54971 0.0
C279 C 0.2225 0.00939 0.56632 0.0
C280 C 0.20365 0.02899 0.495 0.0
N281 N 0.22007 0.03067 0.50258 0.0
C282 C 0.21333 0.06033 0.51226 0.0
C283 C 0.22501 0.04584 0.51127 0.0
C284 C 0.19633 0.05906 0.50441 0.0
C285 C 0.19153 0.04313 0.4957 0.0
H286 H 0.19998 0.01664 0.48844 0.0
H287 H 0.23786 0.04659 0.51776 0.0
C288 C 0.28735 0.98258 0.53884 0.0
N289 N 0.27386 0.99469 0.53769 0.0
C290 C 0.29909 0.983 0.55331 0.0
C291 C 0.28263 0.00814 0.56529 0.0
C292 C 0.27137 0.0074 0.55045 0.0
C293 C 0.29678 0.99593 0.56671 0.0
H294 H 0.28913 0.97277 0.52837 0.0
H295 H 0.26079 0.01712 0.54898 0.0
C296 C 0.22656 -0.0014 0.46396 0.0
N297 N 0.21453 0.0072 0.43008 0.0
C298 C 0.21978 0.98529 0.45272 0.0
C299 C 0.22692 0.01633 0.45806 0.0
C300 C 0.21385 0.98988 0.43561 0.0
C301 C 0.22085 0.0204 0.44086 0.0
C302 C 0.26624 0.95685 0.49774 0.0
C303 C 0.27071 0.94992 0.48096 0.0
C304 C 0.26412 0.94528 0.51226 0.0
C305 C 0.2727 0.93146 0.47894 0.0
C306 C 0.26619 0.92689 0.50969 0.0
N307 N 0.27039 0.92042 0.49321 0.0
C308 C 0.29019 0.00415 0.46622 0.0
C309 C 0.26893 0.99031 0.44722 0.0
C310 C 0.30238 0.00543 0.45219 0.0
N311 N 0.27382 0.9968 0.46348 0.0
C312 C 0.28072 0.99131 0.43278 0.0
C313 C 0.29773 -0.00111 0.43521 0.0
H314 H 0.2938 0.00897 0.47937 0.0
H315 H 0.25608 0.98401 0.44551 0.0
C316 C 0.2121 0.95302 0.51363 0.0
N317 N 0.2235 0.95617 0.49985 0.0
C318 C 0.20095 0.93809 0.51336 0.0
C319 C 0.21364 0.92978 0.48479 0.0
C320 C 0.22451 0.94493 0.4856 0.0
C321 C 0.20151 0.92636 0.49871 0.0
H322 H 0.21141 0.96227 0.52469 0.0
H323 H 0.23352 0.94789 0.4747 0.0
O324 O 0.2618 0.01503 0.5014 0.0
O325 O 0.23242 0.99318 0.52114 0.0
O326 O 0.2324 0.99429 0.48077 0.0
O327 O 0.26406 0.97487 0.49994 0.0
H328 H 0.27513 0.03686 0.52586 0.0
H329 H 0.26149 0.03196 0.47016 0.0
H330 H 0.28483 0.06806 0.52019 0.0
H331 H 0.2712 0.06328 0.4655 0.0
H332 H 0.23776 0.96854 0.57648 0.0
H333 H 0.22001 0.02053 0.53989 0.0
H334 H 0.2407 0.96695 0.54347 0.0
H335 H 0.2174 0.02119 0.57296 0.0
H336 H 0.2174 0.07225 0.51942 0.0
H337 H 0.17858 0.04165 0.48938 0.0
H338 H 0.30987 0.97336 0.55402 0.0
H339 H 0.28062 0.01846 0.57526 0.0
H340 H 0.21919 0.97153 0.45712 0.0
H341 H 0.23159 0.0269 0.46672 0.0
H342 H 0.20869 0.97969 0.42674 0.0
H343 H 0.22109 0.03407 0.43613 0.0
H344 H 0.2725 0.95869 0.4696 0.0
H345 H 0.26083 0.95043 0.52536 0.0
H346 H 0.27605 0.9259 0.46601 0.0
H347 H 0.26446 0.91777 0.52078 0.0
H348 H 0.3153 0.0115 0.45461 0.0
H349 H 0.27675 0.98581 0.41998 0.0
H350 H 0.19187 0.93585 0.52442 0.0
H351 H 0.21429 0.92118 0.47316 0.0
Li352 Li 0.49617 0.0116 0.23629 0.0
Li353 Li 0.48139 0.99514 0.26022 0.0
Li354 Li 0.51469 0.99478 0.25778 0.0
Li355 Li 0.49559 0.97813 0.23721 0.0
C356 C 0.50423 0.03161 0.26824 0.0
N357 N 0.51607 0.06453 0.28017 0.0
C358 C 0.49268 0.04294 0.2776 0.0
C359 C 0.52188 0.03693 0.2652 0.0
C360 C 0.49889 0.05956 0.28344 0.0
C361 C 0.52759 0.05364 0.27127 0.0
C362 C 0.45735 0.99716 0.23452 0.0
C363 C 0.42786 0.98543 0.24018 0.0
N364 N 0.42072 0.00158 0.23582 0.0
C365 C 0.44972 0.0136 0.22998 0.0
C366 C 0.44635 0.9829 0.23954 0.0
C367 C 0.43117 0.01558 0.23075 0.0
C368 C 0.4985 0.02843 0.20338 0.0
N369 N 0.49496 0.03162 0.2209 0.0
C370 C 0.48963 0.06252 0.21485 0.0
C371 C 0.49043 0.0482 0.22681 0.0
C372 C 0.49338 0.05964 0.19667 0.0
C373 C 0.49786 0.04232 0.19098 0.0
H374 H 0.50192 0.01504 0.19908 0.0
H375 H 0.48721 0.0503 0.24072 0.0
C376 C 0.45927 0.9823 0.28787 0.0
N377 N 0.46205 0.99618 0.27648 0.0
C378 C 0.445 0.98274 0.29987 0.0
C379 C 0.43675 0.01174 0.28814 0.0
C380 C 0.45125 0.01079 0.27647 0.0
C381 C 0.43353 0.9976 0.30007 0.0
H382 H 0.46816 0.97092 0.28768 0.0
H383 H 0.45391 0.0217 0.26736 0.0
C384 C 0.53173 -0.00188 0.22317 0.0
N385 N 0.56389 0.00581 0.20663 0.0
C386 C 0.54198 0.9844 0.21569 0.0
C387 C 0.53777 0.01579 0.22205 0.0
C388 C 0.55822 0.98855 0.20744 0.0
C389 C 0.55408 0.01939 0.21368 0.0
C390 C 0.50009 0.95675 0.26492 0.0
C391 C 0.51698 0.94946 0.26816 0.0
C392 C 0.48534 0.94543 0.26295 0.0
C393 C 0.51886 0.93089 0.2692 0.0
C394 C 0.48779 0.92694 0.26405 0.0
N395 N 0.50436 0.92012 0.26711 0.0
C396 C 0.53296 0.99373 0.28964 0.0
C397 C 0.55268 0.99519 0.26485 0.0
C398 C 0.54733 0.99345 0.30149 0.0
N399 N 0.53586 0.99459 0.27172 0.0
C400 C 0.56746 0.99511 0.27623 0.0
C401 C 0.56484 0.99419 0.2948 0.0
H402 H 0.51942 0.99328 0.29468 0.0
H403 H 0.55474 0.99574 0.25061 0.0
C404 C 0.47922 0.95467 0.21288 0.0
N405 N 0.49419 0.95732 0.22281 0.0
C406 C 0.4779 0.93984 0.20165 0.0
C407 C 0.50738 0.93066 0.21119 0.0
C408 C 0.50812 0.94567 0.22224 0.0
C409 C 0.49218 0.9277 0.20057 0.0
H410 H 0.4684 0.9642 0.21347 0.0
H411 H 0.51989 0.94815 0.23022 0.0
O412 O 0.49833 0.01526 0.26249 0.0
O413 O 0.47551 0.99505 0.23409 0.0
O414 O 0.51574 0.99425 0.23121 0.0
O415 O 0.498 0.97488 0.26367 0.0
H416 H 0.47904 0.03898 0.28026 0.0
H417 H 0.53113 0.02822 0.25837 0.0
H418 H 0.49005 0.0685 0.2906 0.0
H419 H 0.54121 0.05793 0.26897 0.0
H420 H 0.41919 0.97456 0.24418 0.0
H421 H 0.45803 0.02476 0.22601 0.0
H422 H 0.45204 0.97009 0.2431 0.0
H423 H 0.42508 0.02825 0.22736 0.0
H424 H 0.48583 0.07562 0.21973 0.0
H425 H 0.50103 0.03955 0.17711 0.0
H426 H 0.44289 0.97152 0.30879 0.0
H427 H 0.42835 0.02353 0.28806 0.0
H428 H 0.5375 0.97068 0.21626 0.0
H429 H 0.52997 0.02665 0.22747 0.0
H430 H 0.56631 0.97804 0.20166 0.0
H431 H 0.55891 0.033 0.21277 0.0
H432 H 0.52854 0.95801 0.26969 0.0
H433 H 0.47219 0.95086 0.26042 0.0
H434 H 0.53187 0.92505 0.27161 0.0
H435 H 0.47653 0.91802 0.26242 0.0
H436 H 0.54478 0.99292 0.31574 0.0
H437 H 0.58078 0.99554 0.27058 0.0
H438 H 0.46586 0.93797 0.19383 0.0
H439 H 0.51879 0.92178 0.21059 0.0
Li440 Li 0.9842 0.49636 0.23388 0.0
Li441 Li 0.00033 0.4815 0.2581 0.0
Li442 Li -0.00118 0.5136 0.25728 0.0
Li443 Li 0.01631 0.49637 0.23567 0.0
C444 C 0.96324 0.50608 0.26285 0.0
N445 N 0.93207 0.52494 0.26888 0.0
C446 C 0.95111 0.50024 0.2758 0.0
C447 C 0.95956 0.52154 0.25299 0.0
C448 C 0.93541 0.50995 0.27864 0.0
C449 C 0.94372 0.53088 0.25623 0.0
C450 C 0.00786 0.46682 0.21812 0.0
C451 C 0.03112 0.4484 0.20541 0.0
N452 N 0.02366 0.45043 0.18895 0.0
C453 C 0.0003 0.4685 0.2011 0.0
C454 C 0.02327 0.45648 0.22032 0.0
C455 C 0.00852 0.46019 0.18653 0.0
C456 C 0.96588 0.50489 0.20267 0.0
N457 N 0.9643 0.49597 0.21841 0.0
C458 C 0.93474 0.48655 0.21095 0.0
C459 C 0.94916 0.48694 0.22281 0.0
C460 C 0.93617 0.49531 0.19441 0.0
C461 C 0.95193 0.50465 0.19035 0.0
H462 H 0.97815 0.51184 0.19955 0.0
H463 H 0.94834 0.47996 0.23546 0.0
C464 C 0.99551 0.46605 0.29152 0.0
N465 N -0.0002 0.46219 0.2743 0.0
C466 C 0.99596 0.4527 0.3045 0.0
C467 C 0.00489 0.43157 0.28167 0.0
C468 C 0.00423 0.44536 0.26911 0.0
C469 C 0.00087 0.43521 0.29967 0.0
H470 H 0.99201 0.47961 0.29517 0.0
H471 H 0.00757 0.44273 0.2553 0.0
C472 C 0.00984 0.53202 0.22647 0.0
N473 N 0.0295 0.56203 0.21752 0.0
C474 C 0.02595 0.53568 0.23524 0.0
C475 C 0.00376 0.54364 0.21315 0.0
C476 C 0.03569 0.55091 0.23051 0.0
C477 C 0.01388 0.55874 0.20883 0.0
C478 C 0.03009 0.49072 0.27483 0.0
C479 C 0.03119 0.49844 0.29182 0.0
C480 C 0.03904 0.47466 0.27148 0.0
C481 C 0.04072 0.48969 0.3053 0.0
C482 C 0.0484 0.46628 0.28529 0.0
N483 N 0.04901 0.47389 0.3018 0.0
C484 C 0.99408 0.53002 0.28983 0.0
C485 C 0.99622 0.5512 0.26634 0.0
C486 C 0.99283 0.54364 0.30247 0.0
N487 N 0.99633 0.53399 0.27225 0.0
C488 C 0.99483 0.56529 0.27852 0.0
C489 C 0.99348 0.56153 0.29686 0.0
H490 H 0.99344 0.51619 0.29404 0.0
H491 H 0.99724 0.5541 0.25225 0.0
C492 C 0.03447 0.49974 0.20335 0.0
N493 N 0.037 0.49693 0.22111 0.0
C494 C 0.04906 0.50078 0.19184 0.0
C495 C 0.06866 0.49647 0.21721 0.0
C496 C 0.05364 0.49539 0.22823 0.0
C497 C 0.06646 0.49922 0.19874 0.0
H498 H 0.02107 0.50124 0.19816 0.0
H499 H 0.05526 0.49362 0.24247 0.0
O500 O 0.97871 0.49672 0.26007 0.0
O501 O 0.00013 0.47512 0.23253 0.0
O502 O 0.00014 0.51705 0.23061 0.0
O503 O 0.02047 0.49889 0.26153 0.0
H504 H 0.95381 0.48833 0.28358 0.0
H505 H 0.96881 0.52633 0.24297 0.0
H506 H 0.92588 0.50559 0.28861 0.0
H507 H 0.9407 0.54285 0.2487 0.0
H508 H 0.04314 0.44051 0.20693 0.0
H509 H 0.98827 0.47617 0.1991 0.0
H510 H 0.02921 0.45474 0.23334 0.0
H511 H 0.00286 0.46151 0.17328 0.0
H512 H 0.9228 0.47914 0.21447 0.0
H513 H 0.95344 0.51171 0.17778 0.0
H514 H 0.99248 0.45603 0.31816 0.0
H515 H 0.0089 0.41832 0.27742 0.0
H516 H 0.03093 0.52694 0.2456 0.0
H517 H 0.99131 0.54106 0.20625 0.0
H518 H 0.04817 0.55389 0.23718 0.0
H519 H 0.00931 0.56785 0.19856 0.0
H520 H 0.02493 0.51114 0.29458 0.0
H521 H 0.0386 0.46863 0.25839 0.0
H522 H 0.04157 0.49549 0.31852 0.0
H523 H 0.05518 0.45373 0.2829 0.0
H524 H 0.99136 0.54022 0.31647 0.0
H525 H 0.99521 0.57895 0.27371 0.0
H526 H 0.04671 0.50268 0.17768 0.0
H527 H 0.08183 0.49551 0.22313 0.0
Li528 Li 0.48358 0.00178 0.73673 0.0
Li529 Li 0.49713 0.98384 0.76006 0.0
Li530 Li 0.50174 0.01651 0.75832 0.0
Li531 Li 0.51617 0.99737 0.73692 0.0
C532 C 0.46134 0.00408 0.76461 0.0
N533 N 0.42456 0.00589 0.76747 0.0
C534 C 0.45141 0.98861 0.76799 0.0
C535 C 0.4526 0.02052 0.76301 0.0
C536 C 0.43282 0.98979 0.76931 0.0
C537 C 0.43399 0.02114 0.76441 0.0
C538 C 0.50458 0.96288 0.72992 0.0
C539 C 0.52644 0.93991 0.73577 0.0
N540 N 0.52018 0.93046 0.72154 0.0
C541 C 0.49837 0.95296 0.71536 0.0
C542 C 0.51873 0.95632 0.74023 0.0
C543 C 0.50644 0.93659 0.71134 0.0
C544 C 0.46134 0.01694 0.71022 0.0
N545 N 0.46317 0.00312 0.72188 0.0
C546 C 0.43571 0.99022 0.71196 0.0
C547 C 0.45089 0.98975 0.72278 0.0
C548 C 0.43346 0.00436 0.69983 0.0
C549 C 0.4465 0.01783 0.699 0.0
H550 H 0.47152 0.02714 0.70943 0.0
H551 H 0.45299 0.97863 0.73178 0.0
C552 C 0.4999 0.96527 0.79238 0.0
N553 N 0.49377 0.96403 0.77535 0.0
C554 C 0.49801 0.95089 0.8041 0.0
C555 C 0.48322 0.93434 0.78056 0.0
C556 C 0.48537 0.94907 0.76931 0.0
C557 C 0.48965 0.93513 0.79819 0.0
H558 H 0.50628 0.97745 0.79683 0.0
H559 H 0.48031 0.94861 0.75578 0.0
C560 C 0.50434 0.03731 0.72856 0.0
N561 N 0.50797 0.07354 0.72215 0.0
C562 C 0.52003 0.04399 0.72089 0.0
C563 C 0.49042 0.04905 0.73273 0.0
C564 C 0.52163 0.06235 0.71781 0.0
C565 C 0.49253 0.06732 0.72946 0.0
C566 C 0.53546 0.00499 0.7692 0.0
C567 C 0.54457 0.01745 0.75868 0.0
C568 C 0.5423 0.00031 0.78596 0.0
C569 C 0.56035 0.02509 0.76509 0.0
C570 C 0.55812 0.00825 0.79192 0.0
N571 N 0.56675 0.02038 0.78145 0.0
C572 C 0.49283 0.03835 0.78709 0.0
C573 C 0.5159 0.0506 0.76916 0.0
C574 C 0.49314 0.05327 0.79825 0.0
N575 N 0.50397 0.03736 0.77278 0.0
C576 C 0.51657 0.06585 0.77988 0.0
C577 C 0.50502 0.06737 0.79462 0.0
H578 H 0.48368 0.0275 0.78986 0.0
H579 H 0.5248 0.04949 0.75787 0.0
C580 C 0.53476 -0.00106 0.70483 0.0
N581 N 0.53623 0.99347 0.72208 0.0
C582 C 0.54906 0.99687 0.69309 0.0
C583 C 0.56597 0.9831 0.71698 0.0
C584 C 0.55133 0.98551 0.7283 0.0
C585 C 0.56497 0.98892 0.69913 0.0
H586 H 0.5225 0.00512 0.70029 0.0
H587 H 0.55203 0.9811 0.74205 0.0
O588 O 0.47954 0.00317 0.76308 0.0
O589 O 0.49684 0.97896 0.73393 0.0
O590 O 0.50255 0.01935 0.73174 0.0
O591 O 0.51993 0.99738 0.76321 0.0
H592 H 0.45794 0.9758 0.76938 0.0
H593 H 0.46008 0.03267 0.7608 0.0
H594 H 0.42495 0.97789 0.77176 0.0
H595 H 0.42704 0.03376 0.7631 0.0
H596 H 0.53739 0.93468 0.74363 0.0
H597 H 0.48743 0.95787 0.70726 0.0
H598 H 0.52371 0.9638 0.75156 0.0
H599 H 0.50177 0.92876 0.70011 0.0
H600 H 0.42609 0.97941 0.71272 0.0
H601 H 0.44521 0.02894 0.68978 0.0
H602 H 0.50328 0.952 0.81754 0.0
H603 H 0.47645 0.92255 0.77558 0.0
H604 H 0.53091 0.03513 0.71742 0.0
H605 H 0.47813 0.04411 0.73849 0.0
H606 H 0.53374 0.0677 0.71198 0.0
H607 H 0.4819 0.07655 0.73274 0.0
H608 H 0.53948 0.02124 0.74572 0.0
H609 H 0.53549 0.99064 0.79428 0.0
H610 H 0.5675 0.03479 0.75708 0.0
H611 H 0.56355 0.00476 0.80487 0.0
H612 H 0.48429 0.05365 0.8097 0.0
H613 H 0.52586 0.07643 0.77649 0.0
H614 H 0.54777 0.00179 0.67953 0.0
H615 H 0.57788 0.97668 0.72212 0.0
Li616 Li 0.995 0.51451 0.73788 0.0
Li617 Li 0.97695 0.49743 0.75912 0.0
Li618 Li 0.01066 0.49619 0.76021 0.0
Li619 Li 0.99367 0.48087 0.73699 0.0
C620 C 0.99664 0.53388 0.77028 0.0
N621 N 0.00128 0.5685 0.78238 0.0
C622 C 0.98201 0.54373 0.77645 0.0
C623 C 0.01368 0.54153 0.77063 0.0
C624 C 0.9846 0.56125 0.7824 0.0
C625 C 0.01574 0.55907 0.7767 0.0
C626 C 0.95649 0.49961 0.72909 0.0
C627 C 0.92709 0.48634 0.72887 0.0
N628 N 0.92024 0.50186 0.72233 0.0
C629 C 0.94917 0.51537 0.72219 0.0
C630 C 0.94539 0.48491 0.73229 0.0
C631 C 0.93081 0.51626 0.71893 0.0
C632 C 0.0062 0.53656 0.70937 0.0
N633 N 0.99579 0.53587 0.72424 0.0
C634 C 0.98545 0.56566 0.71914 0.0
C635 C 0.98541 0.54995 0.72918 0.0
C636 C 0.99614 0.56681 0.70375 0.0
C637 C 0.00666 0.55201 0.69892 0.0
H638 H 0.01395 0.525 0.70546 0.0
H639 H 0.97677 0.54884 0.74068 0.0
C640 C 0.95373 0.48552 0.78612 0.0
N641 N 0.95578 0.4979 0.77299 0.0
C642 C 0.93817 0.48522 0.7964 0.0
C643 C 0.92714 0.51043 0.77942 0.0
C644 C 0.94302 0.5104 0.76967 0.0
C645 C 0.92453 0.49772 0.79303 0.0
H646 H 0.96423 0.47594 0.78869 0.0
H647 H 0.94514 0.52032 0.75938 0.0
C648 C 0.03219 0.49938 0.72954 0.0
N649 N 0.06777 0.50429 0.72087 0.0
C650 C 0.04201 0.48543 0.7219 0.0
C651 C 0.04039 0.51591 0.73248 0.0
C652 C 0.06001 0.48815 0.71769 0.0
C653 C 0.0584 0.51811 0.72809 0.0
C654 C 0.9929 0.45847 0.76527 0.0
C655 C 0.00852 0.44955 0.77031 0.0
C656 C 0.97725 0.4487 0.76231 0.0
C657 C 0.00831 0.43093 0.77194 0.0
C658 C 0.97759 0.4301 0.76405 0.0
N659 N 0.99299 0.42167 0.76877 0.0
C660 C 0.02989 0.5032 0.79157 0.0
C661 C 0.04553 0.48532 0.77057 0.0
C662 C 0.04427 0.50242 0.80341 0.0
N663 N 0.03084 0.49484 0.77546 0.0
C664 C 0.06024 0.48423 0.78197 0.0
C665 C 0.0597 0.49284 0.79864 0.0
H666 H 0.01792 0.51041 0.79524 0.0
H667 H 0.0457 0.47825 0.75799 0.0
C668 C 0.98004 0.4584 0.70999 0.0
N669 N 0.99337 0.46033 0.72217 0.0
C670 C 0.97906 0.44302 0.6995 0.0
C671 C 0.00577 0.43205 0.71402 0.0
C672 C 0.00625 0.44768 0.72419 0.0
C673 C 0.99198 0.42954 0.70153 0.0
H674 H 0.97018 0.46882 0.70839 0.0
H675 H 0.01684 0.44966 0.73382 0.0
O676 O 0.99431 0.5167 0.7644 0.0
O677 O 0.97443 0.49856 0.73251 0.0
O678 O 0.01458 0.49688 0.73384 0.0
O679 O 0.99291 0.47668 0.76341 0.0
H680 H 0.96876 0.53797 0.7765 0.0
H681 H 0.02524 0.53394 0.76649 0.0
H682 H 0.97337 0.56907 0.78706 0.0
H683 H 0.02886 0.56516 0.77698 0.0
H684 H 0.91835 0.47509 0.7314 0.0
H685 H 0.95756 0.5268 0.7194 0.0
H686 H 0.95084 0.47256 0.73741 0.0
H687 H 0.92497 0.52841 0.71368 0.0
H688 H 0.97715 0.57675 0.72335 0.0
H689 H 0.0148 0.55219 0.68694 0.0
H690 H 0.93699 0.47545 0.80702 0.0
H691 H 0.91699 0.52023 0.7762 0.0
H692 H 0.03584 0.47262 0.71931 0.0
H693 H 0.03288 0.52698 0.73788 0.0
H694 H 0.06779 0.47743 0.71189 0.0
H695 H 0.06492 0.53083 0.73034 0.0
H696 H 0.0207 0.45689 0.77282 0.0
H697 H 0.96498 0.45539 0.75871 0.0
H698 H 0.02034 0.42385 0.7757 0.0
H699 H 0.9656 0.42237 0.76168 0.0
H700 H 0.04336 0.50933 0.81611 0.0
H701 H 0.07174 0.47641 0.77795 0.0
H702 H 0.96843 0.44182 0.68974 0.0
H703 H 0.01594 0.42197 0.71609 0.0
Li704 Li 0.23675 0.49925 0.01172 0.0
Li705 Li 0.25968 0.48255 0.9951 0.0
Li706 Li 0.25879 0.51505 0.99443 0.0
Li707 Li 0.23656 0.49815 0.97991 0.0
C708 C 0.26876 0.49013 0.03002 0.0
N709 N 0.28015 0.47095 0.05948 0.0
C710 C 0.25955 0.47475 0.03538 0.0
C711 C 0.28376 0.49572 0.03963 0.0
C712 C 0.26553 0.46524 0.05031 0.0
C713 C 0.28931 0.48586 0.05449 0.0
C714 C 0.22443 0.46593 0.98629 0.0
C715 C 0.22327 0.44478 0.96195 0.0
N716 N 0.2053 0.44326 0.96424 0.0
C717 C 0.20596 0.46411 0.98844 0.0
C718 C 0.23317 0.45617 0.97295 0.0
C719 C 0.19653 0.4526 0.97714 0.0
C720 C 0.20438 0.49882 0.0302 0.0
N721 N 0.22229 0.50052 0.03259 0.0
C722 C 0.21833 0.50485 0.06399 0.0
C723 C 0.22937 0.50389 0.049 0.0
C724 C 0.19981 0.50274 0.06196 0.0
C725 C 0.19281 0.49986 0.04479 0.0
H726 H 0.19909 0.49685 0.0169 0.0
H727 H 0.24355 0.50608 0.05051 0.0
C728 C 0.29238 0.46508 0.99112 0.0
N729 N 0.27502 0.46258 0.99577 0.0
C730 C 0.30442 0.45087 0.99199 0.0
C731 C 0.2804 0.43182 0.00235 0.0
C732 C 0.26885 0.44642 0.00135 0.0
C733 C 0.29845 0.43399 0.99769 0.0
H734 H 0.29686 0.47816 0.98683 0.0
H735 H 0.25499 0.44492 0.00517 0.0
C736 C 0.22895 0.53433 0.00493 0.0
N737 N 0.22139 0.56452 0.02487 0.0
C738 C 0.2149 0.5456 -4e-05 0.0
C739 C 0.23916 0.53843 0.02006 0.0
C740 C 0.21129 0.56079 0.01021 0.0
C741 C 0.23512 0.55375 0.02995 0.0
C742 C 0.26598 0.50805 0.95902 0.0
C743 C 0.25533 0.52271 0.95444 0.0
C744 C 0.28047 0.50342 0.94818 0.0
C745 C 0.25936 0.5325 0.93905 0.0
C746 C 0.28407 0.51355 0.93289 0.0
N747 N 0.27353 0.52776 0.92868 0.0
C748 C 0.29046 0.53386 -0.00028 0.0
C749 C 0.26722 0.55149 0.98731 0.0
C750 C 0.30192 0.54856 -0.00011 0.0
N751 N 0.27347 0.53562 0.99361 0.0
C752 C 0.27821 0.56655 0.98725 0.0
C753 C 0.2958 0.56521 0.99368 0.0
H754 H 0.29508 0.52099 0.00445 0.0
H755 H 0.25366 0.55249 0.98243 0.0
C756 C 0.20438 0.5038 0.96178 0.0
N757 N 0.22109 0.49698 0.9599 0.0
C758 C 0.1922 0.50268 0.94773 0.0
C759 C 0.21471 0.4876 0.93007 0.0
C760 C 0.22648 0.48905 0.94446 0.0
C761 C 0.19728 0.4944 0.93163 0.0
H762 H 0.20051 0.50996 0.97428 0.0
H763 H 0.23981 0.48357 0.94345 0.0
O764 O 0.26337 0.49955 0.01528 0.0
O765 O 0.23387 0.47752 0.99687 0.0
O766 O 0.23248 0.51937 0.99499 0.0
O767 O 0.26244 0.49825 0.97407 0.0
H768 H 0.24788 0.47022 0.02817 0.0
H769 H 0.29105 0.50758 0.03564 0.0
H770 H 0.25852 0.45334 0.05461 0.0
H771 H 0.3009 0.49004 0.06206 0.0
H772 H 0.22985 0.43725 0.9515 0.0
H773 H 0.19895 0.47153 -0.00135 0.0
H774 H 0.2474 0.45766 0.97084 0.0
H775 H 0.18222 0.45112 0.97862 0.0
H776 H 0.22416 0.50749 0.07698 0.0
H777 H 0.17858 0.49821 0.04269 0.0
H778 H 0.3182 0.45303 0.98811 0.0
H779 H 0.27533 0.41908 0.00702 0.0
H780 H 0.20688 0.54261 0.98829 0.0
H781 H 0.25011 0.52995 0.02414 0.0
H782 H 0.20045 0.56963 0.00651 0.0
H783 H 0.24291 0.55707 0.04168 0.0
H784 H 0.24405 0.52651 0.96263 0.0
H785 H 0.28885 0.49212 0.95157 0.0
H786 H 0.25123 0.54388 0.93535 0.0
H787 H 0.29525 0.51012 0.92438 0.0
H788 H 0.31549 0.54685 0.00465 0.0
H789 H 0.27292 0.57915 0.98247 0.0
H790 H 0.17897 0.50831 0.94942 0.0
H791 H 0.2191 0.4809 0.918 0.0
Li792 Li 0.51423 0.25904 -0.00076 0.0
Li793 Li 0.49656 0.23592 0.01373 0.0
Li794 Li 0.49933 0.2372 0.98129 0.0
Li795 Li 0.48179 0.25918 0.99764 0.0
C796 C 0.53601 0.23231 0.0028 0.0
N797 N 0.57198 0.23309 0.01109 0.0
C798 C 0.54165 0.22938 0.02037 0.0
C799 C 0.54866 0.23558 0.98943 0.0
C800 C 0.55991 0.22982 0.02429 0.0
C801 C 0.56678 0.23596 0.9939 0.0
C802 C 0.48914 0.27565 0.0275 0.0
C803 C 0.4648 0.28807 0.04465 0.0
N804 N 0.472 0.30466 0.04268 0.0
C805 C 0.4963 0.29282 0.02567 0.0
C806 C 0.47328 0.27323 0.03711 0.0
C807 C 0.48745 0.30731 0.03345 0.0
C808 C 0.54214 0.2815 0.98721 0.0
N809 N 0.53486 0.27346 0.00178 0.0
C810 C 0.55702 0.28629 0.02083 0.0
C811 C 0.54196 0.27557 0.01838 0.0
C812 C 0.56482 0.29477 0.00601 0.0
C813 C 0.55729 0.29219 0.98901 0.0
H814 H 0.53608 0.27977 0.97423 0.0
H815 H 0.53581 0.26901 0.02971 0.0
C816 C 0.49968 0.20263 0.03026 0.0
N817 N 0.49568 0.22006 0.03341 0.0
C818 C 0.49893 0.19019 0.04412 0.0
C819 C 0.49046 0.21401 0.06431 0.0
C820 C 0.49131 0.22599 0.05002 0.0
C821 C 0.49419 0.19583 0.0614 0.0
H822 H 0.50342 0.19841 0.01694 0.0
H823 H 0.48847 0.23998 0.05217 0.0
C824 C 0.49791 0.26517 0.96009 0.0
N825 N 0.49488 0.26699 0.92329 0.0
C826 C 0.48167 0.27001 0.95223 0.0
C827 C 0.51263 0.26131 0.94922 0.0
C828 C 0.48041 0.27086 0.9336 0.0
C829 C 0.51081 0.26227 0.93065 0.0
C830 C 0.46882 0.21847 0.00154 0.0
C831 C 0.47173 0.202 0.99318 0.0
C832 C 0.45773 0.21937 0.01656 0.0
C833 C 0.46356 0.18667 8e-05 0.0
C834 C 0.44985 0.20373 0.02308 0.0
N835 N 0.4529 0.18784 0.01477 0.0
C836 C 0.51509 0.21298 0.95718 0.0
C837 C 0.48647 0.22354 0.9486 0.0
C838 C 0.51625 0.20262 0.94173 0.0
N839 N 0.50044 0.22324 0.96022 0.0
C840 C 0.48712 0.21351 0.93289 0.0
C841 C 0.50216 0.20283 0.92929 0.0
H842 H 0.52581 0.21269 0.96685 0.0
H843 H 0.47486 0.23163 0.95155 0.0
C844 C 0.46429 0.29192 0.99341 0.0
N845 N 0.46154 0.27431 0.99692 0.0
C846 C 0.45004 0.3039 0.99386 0.0
C847 C 0.43031 0.27929 0.00106 0.0
C848 C 0.44497 0.26777 0.00047 0.0
C849 C 0.4328 0.29764 -0.00209 0.0
H850 H 0.47763 0.29666 0.99048 0.0
H851 H 0.44318 0.25369 0.00309 0.0
O852 O 0.51817 0.23239 -0.00123 0.0
O853 O 0.49737 0.26134 0.0196 0.0
O854 O 0.49936 0.26407 0.97831 0.0
O855 O 0.47699 0.23357 0.99521 0.0
H856 H 0.53206 0.22699 0.03093 0.0
H857 H 0.54451 0.2381 0.9758 0.0
H858 H 0.56447 0.22765 0.03785 0.0
H859 H 0.57671 0.2386 0.98371 0.0
H860 H 0.45245 0.2864 0.05198 0.0
H861 H 0.50843 0.295 0.01811 0.0
H862 H 0.46739 0.26008 0.03843 0.0
H863 H 0.4928 0.32068 0.03207 0.0
H864 H 0.5625 0.28793 0.03413 0.0
H865 H 0.56278 0.29875 0.97731 0.0
H866 H 0.50223 0.17636 0.04138 0.0
H867 H 0.4867 0.21887 0.07743 0.0
H868 H 0.47009 0.2729 0.96037 0.0
H869 H 0.52522 0.25722 0.95504 0.0
H870 H 0.4679 0.27453 0.92734 0.0
H871 H 0.52205 0.25917 0.92209 0.0
H872 H 0.48033 0.201 0.9816 0.0
H873 H 0.45552 0.23195 0.02335 0.0
H874 H 0.46575 0.17383 0.9938 0.0
H875 H 0.44137 0.20422 0.03479 0.0
H876 H 0.5279 0.19427 0.93975 0.0
H877 H 0.47601 0.21419 0.92365 0.0
H878 H 0.45249 0.31789 0.99104 0.0
H879 H 0.41726 0.27394 0.00435 0.0
Li880 Li 0.73578 0.51395 0.99753 0.0
Li881 Li 0.75968 0.49684 0.01149 0.0
Li882 Li 0.75619 0.49753 0.97907 0.0
Li883 Li 0.7353 0.48131 -0.00192 0.0
C884 C 0.76376 0.53553 0.99673 0.0
N885 N 0.76613 0.57222 0.00048 0.0
C886 C 0.77018 0.54295 0.01264 0.0
C887 C 0.75863 0.54677 0.9827 0.0
C888 C 0.77128 0.56154 0.01427 0.0
C889 C 0.75989 0.56529 0.98487 0.0
C890 C 0.72064 0.49148 0.02846 0.0
C891 C 0.70806 0.46851 0.04733 0.0
N892 N 0.69208 0.47718 0.04706 0.0
C893 C 0.70411 0.50019 0.02843 0.0
C894 C 0.72267 0.47555 0.03806 0.0
C895 C 0.68984 0.49274 0.03791 0.0
C896 C 0.70921 0.53802 0.98635 0.0
N897 N 0.72161 0.53484 -0.00079 0.0
C898 C 0.7138 0.56181 0.0144 0.0
C899 C 0.72388 0.54616 0.01324 0.0
C900 C 0.70095 0.56559 0.0012 0.0
C901 C 0.69864 0.55334 0.98712 0.0
H902 H 0.70741 0.52856 0.97558 0.0
H903 H 0.7336 0.54308 0.02348 0.0
C904 C 0.79371 0.50136 0.02676 0.0
N905 N 0.77653 0.4967 0.03035 0.0
C906 C 0.80648 0.50116 0.04034 0.0
C907 C 0.78359 0.4914 0.06101 0.0
C908 C 0.77125 0.4919 0.04705 0.0
C909 C 0.80149 0.49608 0.05774 0.0
H910 H 0.79744 0.50528 0.01334 0.0
H911 H 0.75748 0.48839 0.04953 0.0
C912 C 0.72658 0.49522 0.9602 0.0
N913 N 0.72169 0.49018 0.92392 0.0
C914 C 0.72186 0.47837 0.95362 0.0
C915 C 0.72868 0.50953 0.94835 0.0
C916 C 0.71946 0.47609 0.93522 0.0
C917 C 0.72621 0.5067 0.93005 0.0
C918 C 0.77606 0.46836 0.0001 0.0
C919 C 0.79218 0.47149 0.99119 0.0
C920 C 0.77584 0.45753 0.01535 0.0
C921 C 0.80788 0.46379 0.99777 0.0
C922 C 0.79183 0.45012 0.02152 0.0
N923 N 0.80738 0.45338 0.01268 0.0
C924 C 0.77842 0.51151 0.95214 0.0
C925 C 0.7675 0.4823 0.94644 0.0
C926 C 0.78777 0.51151 0.93603 0.0
N927 N 0.76848 0.4971 0.95694 0.0
C928 C 0.77655 0.48175 0.93012 0.0
C929 C 0.78689 0.4965 0.92475 0.0
H930 H 0.77933 0.52291 0.96096 0.0
H931 H 0.75973 0.4709 0.95079 0.0
C932 C 0.70225 0.46379 -0.00106 0.0
N933 N 0.7202 0.4611 -0.00058 0.0
C934 C 0.69058 0.4494 0.00088 0.0
C935 C 0.71611 0.42963 0.00284 0.0
C936 C 0.7273 0.44446 0.00109 0.0
C937 C 0.69752 0.43209 0.00298 0.0
H938 H 0.69704 0.47718 0.99728 0.0
H939 H 0.74163 0.44272 0.00117 0.0
O940 O 0.76241 0.51737 0.99494 0.0
O941 O 0.7347 0.49842 0.01902 0.0
O942 O 0.72926 0.49766 0.97813 0.0
O943 O 0.76062 0.47613 0.99414 0.0
H944 H 0.7741 0.53449 0.02369 0.0
H945 H 0.75351 0.54127 0.97034 0.0
H946 H 0.77615 0.56747 0.02653 0.0
H947 H 0.75585 0.57414 0.97416 0.0
H948 H 0.7094 0.45611 0.05465 0.0
H949 H 0.70225 0.51249 0.02106 0.0
H950 H 0.73529 0.46848 0.03802 0.0
H951 H 0.67695 0.4993 0.03795 0.0
H952 H 0.71618 0.57088 0.02543 0.0
H953 H 0.68858 0.55538 0.97691 0.0
H954 H 0.82005 0.50515 0.03727 0.0
H955 H 0.77919 0.4872 0.07415 0.0
H956 H 0.72023 0.46713 0.96257 0.0
H957 H 0.73239 0.52264 0.95322 0.0
H958 H 0.71589 0.46311 0.92993 0.0
H959 H 0.72792 0.51762 0.92072 0.0
H960 H 0.79262 0.47991 0.97944 0.0
H961 H 0.76351 0.45514 0.02253 0.0
H962 H 0.82047 0.46616 0.99105 0.0
H963 H 0.79189 0.44184 0.03339 0.0
H964 H 0.79596 0.52297 0.93267 0.0
H965 H 0.77544 0.46993 0.92183 0.0
H966 H 0.6763 0.45175 0.00062 0.0
H967 H 0.72191 0.41645 0.00442 0.0
Li968 Li 0.49751 0.75803 0.0124 0.0
Li969 Li 0.48322 0.73493 0.99436 0.0
Li970 Li 0.51606 0.73657 0.99521 0.0
Li971 Li 0.4985 0.75825 0.97951 0.0
C972 C 0.50835 0.72595 0.02999 0.0
N973 N 0.52759 0.71392 0.05913 0.0
C974 C 0.50438 0.70938 0.03767 0.0
C975 C 0.52212 0.73639 0.0371 0.0
C976 C 0.51425 0.70354 0.05241 0.0
C977 C 0.53168 0.73008 0.05185 0.0
C978 C 0.4595 0.76054 0.99733 0.0
C979 C 0.42998 0.75762 0.98471 0.0
N980 N 0.42283 0.75876 0.0014 0.0
C981 C 0.45186 0.76183 0.01434 0.0
C982 C 0.44848 0.75857 0.98237 0.0
C983 C 0.43329 0.76086 0.01612 0.0
C984 C 0.49875 0.79008 0.03096 0.0
N985 N 0.49562 0.77234 0.03315 0.0
C986 C 0.48967 0.77653 0.06425 0.0
C987 C 0.49093 0.76541 0.0493 0.0
C988 C 0.4931 0.79492 0.06245 0.0
C989 C 0.49768 0.80166 0.04551 0.0
H990 H 0.50199 0.79522 0.01786 0.0
H991 H 0.48803 0.75131 0.05055 0.0
C992 C 0.45807 0.71116 0.97904 0.0
N993 N 0.46331 0.71935 0.99438 0.0
C994 C 0.44281 0.70046 0.97888 0.0
C995 C 0.43885 0.70655 0.0104 0.0
C996 C 0.45424 0.71707 0.00996 0.0
C997 C 0.43291 0.69815 0.99468 0.0
H998 H 0.46571 0.71293 0.96693 0.0
H999 H 0.45883 0.72369 0.02197 0.0
C1000 C 0.53216 0.77131 0.98784 0.0
N1001 N 0.55963 0.78845 0.96996 0.0
C1002 C 0.54233 0.76211 0.97514 0.0
C1003 C 0.53603 0.78923 0.99148 0.0
C1004 C 0.55614 0.77099 0.96624 0.0
C1005 C 0.54995 0.79766 0.98229 0.0
C1006 C 0.50127 0.73148 0.95616 0.0
C1007 C 0.51705 0.7261 0.94771 0.0
C1008 C 0.48644 0.73619 0.94581 0.0
C1009 C 0.5178 0.72576 0.92904 0.0
C1010 C 0.48773 0.73569 0.92718 0.0
N1011 N 0.50325 0.73055 0.91925 0.0
C1012 C 0.53694 0.70614 0.98919 0.0
C1013 C 0.55193 0.72929 0.0049 0.0
C1014 C 0.55212 0.69536 0.98997 0.0
N1015 N 0.53719 0.72277 0.99649 0.0
C1016 C 0.56731 0.71884 0.00625 0.0
C1017 C 0.5675 0.70169 -0.00135 0.0
H1018 H 0.52492 0.70128 0.98279 0.0
H1019 H 0.5517 0.74257 0.01061 0.0
C1020 C 0.48411 0.78649 0.95988 0.0
N1021 N 0.49759 0.77432 0.95969 0.0
C1022 C 0.4821 0.79856 0.94583 0.0
C1023 C 0.50809 0.78558 0.93167 0.0
C1024 C 0.50959 0.77375 0.94602 0.0
C1025 C 0.49417 0.79818 0.93145 0.0
H1026 H 0.47485 0.78682 0.97096 0.0
H1027 H 0.52023 0.76403 0.9461 0.0
O1028 O 0.49894 0.73171 0.01541 0.0
O1029 O 0.47768 0.76104 0.99535 0.0
O1030 O 0.51859 0.76283 0.99675 0.0
O1031 O 0.50029 0.7319 0.97445 0.0
H1032 H 0.49379 0.70112 0.03226 0.0
H1033 H 0.52542 0.74922 0.03127 0.0
H1034 H 0.51133 0.69075 0.0585 0.0
H1035 H 0.54238 0.73802 0.05748 0.0
H1036 H 0.4213 0.75597 0.97326 0.0
H1037 H 0.46015 0.76335 0.02607 0.0
H1038 H 0.45414 0.7577 0.9691 0.0
H1039 H 0.42721 0.76171 0.02922 0.0
H1040 H 0.48579 0.77085 0.077 0.0
H1041 H 0.50058 0.81571 0.04352 0.0
H1042 H 0.43893 0.69392 0.96656 0.0
H1043 H 0.43156 0.70524 0.02285 0.0
H1044 H 0.53945 0.74833 0.97197 0.0
H1045 H 0.52842 0.79659 0.00131 0.0
H1046 H 0.56403 0.76403 0.95632 0.0
H1047 H 0.55306 0.81153 0.98498 0.0
H1048 H 0.52865 0.72229 0.95544 0.0
H1049 H 0.47414 0.74042 0.95208 0.0
H1050 H 0.52996 0.72171 0.92234 0.0
H1051 H 0.47639 0.73945 0.91902 0.0
H1052 H 0.55174 0.6821 0.98416 0.0
H1053 H 0.57898 0.72415 0.01299 0.0
H1054 H 0.47109 0.80794 0.94612 0.0
H1055 H 0.51783 0.785 0.92098 0.0
H1056 H 0.01697 0.33594 0.43892 0.0
H1057 H 0.01672 0.35817 0.41494 0.0
H1058 H 0.99561 0.31873 0.37847 0.0
H1059 H 0.996 0.29638 0.40239 0.0
H1060 H 0.02093 0.33836 0.36264 0.0
H1061 H 0.96842 0.35002 0.39738 0.0
H1062 H 0.95123 0.35597 0.42488 0.0
H1063 H 0.98098 0.40435 0.43336 0.0
H1064 H -0.00146 0.39855 0.40603 0.0
H1065 H 0.99 0.40034 0.29689 0.0
H1066 H 0.99174 0.37701 0.31976 0.0
H1067 H 0.01577 0.41455 0.35637 0.0
H1068 H 0.01434 0.43787 0.33353 0.0
H1069 H 0.98856 0.39556 0.37173 0.0
H1070 H 0.04105 0.38349 0.33651 0.0
H1071 H 0.05767 0.37731 0.30871 0.0
H1072 H 0.02701 0.32943 0.30067 0.0
H1073 H 0.01001 0.33546 0.3283 0.0
C1074 C 0.01224 0.33203 0.42579 0.0
C1075 C 0.00639 0.31448 0.42253 0.0
C1076 C 0.0121 0.34472 0.41212 0.0
C1077 C 0.00588 0.34016 0.39501 0.0
C1078 C 0.00045 0.32252 0.39159 0.0
C1079 C 0.0007 0.30978 0.40524 0.0
C1080 C 0.00478 0.35387 0.38076 0.0
C1081 C 0.01366 0.35076 0.36452 0.0
C1082 C 0.99552 0.37017 0.38336 0.0
C1083 C 0.9849 0.37376 0.39975 0.0
C1084 C 0.97139 0.36186 0.40518 0.0
C1085 C 0.96156 0.36521 0.42073 0.0
C1086 C 0.96504 0.38051 0.43089 0.0
C1087 C 0.97832 0.3925 0.42549 0.0
C1088 C 0.9882 0.38919 0.40997 0.0
C1089 C 0.99584 0.40357 0.30974 0.0
C1090 C 0.002 0.42096 0.31341 0.0
C1091 C 0.99679 0.39024 0.32279 0.0
C1092 C 0.00398 0.39406 0.33969 0.0
C1093 C 0.01012 0.41138 0.34341 0.0
C1094 C 0.00921 0.42469 0.33037 0.0
C1095 C 0.00481 0.38009 0.35367 0.0
C1096 C 0.99583 0.38314 0.36985 0.0
C1097 C 0.01388 0.36372 0.35096 0.0
C1098 C 0.02414 0.36003 0.33438 0.0
C1099 C 0.03775 0.37172 0.32874 0.0
C1100 C 0.04725 0.36823 0.31303 0.0
C1101 C 0.04336 0.35301 0.30291 0.0
C1102 C 0.02999 0.34122 0.30851 0.0
C1103 C 0.02042 0.34467 0.3242 0.0
H1104 H 0.05074 0.35033 0.29074 0.0
H1105 H 0.95742 0.38308 0.44292 0.0
H1106 H 0.69612 0.02269 0.40364 0.0
H1107 H 0.67559 0.02137 0.37835 0.0
H1108 H 0.65213 0.97319 0.39977 0.0
H1109 H 0.67336 0.97375 0.4245 0.0
H1110 H 0.65551 0.97017 0.36509 0.0
H1111 H 0.63235 0.01514 0.40486 0.0
H1112 H 0.63346 0.04262 0.42306 0.0
H1113 H 0.64488 0.07363 0.37608 0.0
H1114 H 0.64407 0.04628 0.35762 0.0
H1115 H 0.57024 0.9723 0.32345 0.0
H1116 H 0.59515 0.97299 0.34465 0.0
H1117 H 0.61907 0.01653 0.31531 0.0
H1118 H 0.59409 0.016 0.29409 0.0
H1119 H 0.61697 0.02257 0.35206 0.0
H1120 H 0.63743 0.97684 0.31211 0.0
H1121 H 0.63507 0.94899 0.29462 0.0
H1122 H 0.62722 0.91894 0.34293 0.0
H1123 H 0.62927 0.94666 0.3607 0.0
C1124 C 0.68681 0.01164 0.40285 0.0
C1125 C 0.68635 -0.00162 0.4162 0.0
C1126 C 0.67492 0.01103 0.38847 0.0
C1127 C 0.66212 0.99735 0.38733 0.0
C1128 C 0.66184 0.98392 0.40042 0.0
C1129 C 0.67386 0.98439 0.41469 0.0
C1130 C 0.64879 0.99716 0.37267 0.0
C1131 C 0.64697 0.98157 0.36236 0.0
C1132 C 0.63791 0.01217 0.36884 0.0
C1133 C 0.63834 0.02864 0.3799 0.0
C1134 C 0.63523 0.0278 0.39843 0.0
C1135 C 0.63578 0.04336 0.40879 0.0
C1136 C 0.63929 0.05986 0.40074 0.0
C1137 C 0.6422 0.06084 0.3823 0.0
C1138 C 0.64168 0.04532 0.37188 0.0
C1139 C 0.58082 0.98201 0.32153 0.0
C1140 C 0.58026 0.99412 0.30717 0.0
C1141 C 0.59508 0.9823 0.33354 0.0
C1142 C 0.60897 0.99473 0.33143 0.0
C1143 C 0.60848 0.0068 0.31708 0.0
C1144 C 0.59429 0.00642 0.30496 0.0
C1145 C 0.6236 0.99554 0.34467 0.0
C1146 C 0.62564 0.01124 0.35472 0.0
C1147 C 0.63452 0.98057 0.34838 0.0
C1148 C 0.63336 0.96386 0.33773 0.0
C1149 C 0.63506 0.96432 0.319 0.0
C1150 C 0.6338 0.94855 0.30903 0.0
C1151 C 0.63096 0.93221 0.31765 0.0
C1152 C 0.62941 0.93161 0.33626 0.0
C1153 C 0.63064 0.94734 0.34629 0.0
H1154 H 0.62999 0.92002 0.30991 0.0
H1155 H 0.63971 0.07188 0.40878 0.0
H1156 H 0.01328 0.56403 0.32719 0.0
H1157 H 0.01236 0.58756 0.3498 0.0
H1158 H 0.97189 0.61531 0.31944 0.0
H1159 H 0.97309 0.59189 0.29648 0.0
H1160 H 0.99549 0.63836 0.33228 0.0
H1161 H 0.96095 0.59062 0.35668 0.0
H1162 H 0.95435 0.55958 0.36567 0.0
H1163 H -0.00175 0.56062 0.40263 0.0
H1164 H 0.00529 0.59159 0.39367 0.0
H1165 H 0.96976 0.69293 0.40714 0.0
H1166 H 0.96942 0.67137 0.38257 0.0
H1167 H 0.01531 0.64476 0.40509 0.0
H1168 H 0.01621 0.66658 0.42936 0.0
H1169 H 0.98682 0.62169 0.39595 0.0
H1170 H 0.02139 0.66978 0.37018 0.0
H1171 H 0.0269 0.70101 0.36112 0.0
H1172 H 0.9809 0.6995 0.32683 0.0
H1173 H 0.97496 0.66832 0.33589 0.0
C1174 C 0.00414 0.57513 0.32538 0.0
C1175 C 0.99311 0.57609 0.31022 0.0
C1176 C 0.00361 0.58854 0.3383 0.0
C1177 C 0.99178 0.603 0.33648 0.0
C1178 C 0.98105 0.60422 0.32113 0.0
C1179 C 0.98174 0.59088 0.30806 0.0
C1180 C 0.99065 0.61672 0.35072 0.0
C1181 C 0.9933 0.63474 0.34616 0.0
C1182 C 0.98799 0.61198 0.36887 0.0
C1183 C 0.98373 0.59338 0.37439 0.0
C1184 C 0.96928 0.58419 0.36664 0.0
C1185 C 0.96545 0.56661 0.37174 0.0
C1186 C 0.9759 0.55812 0.38469 0.0
C1187 C 0.99018 0.56721 0.39259 0.0
C1188 C 0.99408 0.58478 0.38752 0.0
C1189 C 0.97996 0.68267 0.40675 0.0
C1190 C 0.99302 0.6815 0.42026 0.0
C1191 C 0.97968 0.67032 0.39274 0.0
C1192 C 0.99237 0.65655 0.39205 0.0
C1193 C 0.00537 0.65528 0.40548 0.0
C1194 C 0.00578 0.6677 0.41939 0.0
C1195 C 0.99192 0.6432 0.37751 0.0
C1196 C 0.98891 0.62526 0.38204 0.0
C1197 C 0.99403 0.64806 0.35936 0.0
C1198 C -0.00238 0.66678 0.35387 0.0
C1199 C 0.01235 0.67616 0.36083 0.0
C1200 C 0.01557 0.69384 0.35567 0.0
C1201 C 0.00423 0.70225 0.34345 0.0
C1202 C 0.98966 0.69298 0.33632 0.0
C1203 C 0.98637 0.6753 0.34146 0.0
H1204 H 0.00675 0.71594 0.33946 0.0
H1205 H 0.97291 0.54451 0.38862 0.0
H1206 H 0.29154 0.00792 0.40025 0.0
H1207 H 0.31329 0.00907 0.37579 0.0
H1208 H 0.35496 0.99254 0.41209 0.0
H1209 H 0.33335 0.99132 0.43651 0.0
H1210 H 0.36558 0.02013 0.39167 0.0
H1211 H 0.33626 0.96329 0.38261 0.0
H1212 H 0.31037 0.94343 0.37785 0.0
H1213 H 0.29744 0.97147 0.32943 0.0
H1214 H 0.32313 0.99166 0.33404 0.0
H1215 H 0.43413 0.98915 0.33551 0.0
H1216 H 0.40953 0.99097 0.35692 0.0
H1217 H 0.37455 0.01021 0.31529 0.0
H1218 H 0.39912 0.00814 0.29366 0.0
H1219 H 0.35893 0.98392 0.33646 0.0
H1220 H 0.38978 0.03923 0.34434 0.0
H1221 H 0.41591 0.05876 0.34901 0.0
H1222 H 0.42606 0.03355 0.3996 0.0
H1223 H 0.40013 0.01367 0.39512 0.0
C1224 C 0.30531 0.0044 0.40296 0.0
C1225 C 0.31076 -0.00044 0.4203 0.0
C1226 C 0.31771 0.00509 0.389 0.0
C1227 C 0.33571 0.00079 0.39213 0.0
C1228 C 0.34115 0.996 0.40942 0.0
C1229 C 0.3288 0.99536 0.42337 0.0
C1230 C 0.349 0.00133 0.37748 0.0
C1231 C 0.3642 0.0121 0.37967 0.0
C1232 C 0.3469 0.99126 0.36159 0.0
C1233 C 0.33149 0.97911 0.35878 0.0
C1234 C 0.32781 0.96531 0.37103 0.0
C1235 C 0.31319 0.95398 0.36834 0.0
C1236 C 0.30224 0.95622 0.35337 0.0
C1237 C 0.30592 0.96977 0.34103 0.0
C1238 C 0.32051 0.98116 0.34367 0.0
C1239 C 0.42117 0.99362 0.33088 0.0
C1240 C 0.41853 -0.00147 0.31294 0.0
C1241 C 0.40718 0.99479 0.34314 0.0
C1242 C 0.39031 0.00091 0.33769 0.0
C1243 C 0.38751 0.00554 0.31973 0.0
C1244 C 0.40156 0.00446 0.30746 0.0
C1245 C 0.37566 0.0024 0.35087 0.0
C1246 C 0.36021 0.99207 0.34839 0.0
C1247 C 0.37751 0.01286 0.36652 0.0
C1248 C 0.39308 0.02486 0.36932 0.0
C1249 C 0.39766 0.03775 0.3564 0.0
C1250 C 0.41243 0.0489 0.35903 0.0
C1251 C 0.42266 0.04737 0.37458 0.0
C1252 C 0.41813 0.03471 0.38756 0.0
C1253 C 0.40338 0.02351 0.38499 0.0
H1254 H 0.43409 0.05602 0.37659 0.0
H1255 H 0.29093 0.94743 0.35131 0.0
H1256 H 0.02439 0.58343 0.68748 0.0
H1257 H 0.02346 0.60907 0.66722 0.0
H1258 H 0.96637 0.61282 0.67443 0.0
H1259 H 0.9671 0.58681 0.6942 0.0
H1260 H 0.9749 0.61393 0.64003 0.0
H1261 H 0.99431 0.64379 0.69288 0.0
H1262 H 0.01297 0.64916 0.71951 0.0
H1263 H 0.05916 0.65601 0.68612 0.0
H1264 H 0.04083 0.65042 0.65927 0.0
H1265 H 0.96731 0.69478 0.59125 0.0
H1266 H 0.9669 0.67426 0.61671 0.0
H1267 H 0.02307 0.66368 0.60925 0.0
H1268 H 0.02356 0.68388 0.58356 0.0
H1269 H 0.0135 0.66767 0.64524 0.0
H1270 H 0.99409 0.63523 0.59283 0.0
H1271 H 0.9752 0.63006 0.56631 0.0
H1272 H 0.92847 0.62835 0.59963 0.0
H1273 H 0.94708 0.63378 0.62633 0.0
C1274 C 0.01164 0.58972 0.68474 0.0
C1275 C 0.99581 0.58308 0.69241 0.0
C1276 C 0.01116 0.60449 0.67333 0.0
C1277 C 0.99487 0.61296 0.66947 0.0
C1278 C 0.97909 0.60652 0.6773 0.0
C1279 C 0.97955 0.59174 0.6887 0.0
C1280 C 0.99416 0.62781 0.65638 0.0
C1281 C 0.98309 0.62584 0.64137 0.0
C1282 C 0.00512 0.64316 0.65795 0.0
C1283 C 0.01621 0.64652 0.67406 0.0
C1284 C 0.00848 0.64629 0.69121 0.0
C1285 C 0.01899 0.6494 0.70635 0.0
C1286 C 0.03724 0.65288 0.70451 0.0
C1287 C 0.04502 0.65329 0.68752 0.0
C1288 C 0.03457 0.65017 0.67234 0.0
C1289 C 0.97958 0.68807 0.595 0.0
C1290 C 0.99543 0.69083 0.58527 0.0
C1291 C 0.97933 0.67645 0.60961 0.0
C1292 C 0.99492 0.66738 0.61472 0.0
C1293 C 0.01092 0.67063 0.60552 0.0
C1294 C 0.01117 0.6822 0.59087 0.0
C1295 C 0.99434 0.65367 0.62895 0.0
C1296 C 0.00519 0.65583 0.6441 0.0
C1297 C 0.98314 0.6385 0.62757 0.0
C1298 C 0.97195 0.63512 0.61154 0.0
C1299 C 0.97977 0.6339 0.59448 0.0
C1300 C 0.96912 0.6309 0.57942 0.0
C1301 C 0.95064 0.62893 0.58128 0.0
C1302 C 0.94278 0.62991 0.59821 0.0
C1303 C 0.95338 0.63294 0.61331 0.0
H1304 H 0.94241 0.6266 0.5696 0.0
H1305 H 0.04536 0.6553 0.71625 0.0
H1306 H 0.43384 0.01016 0.66396 0.0
H1307 H 0.40846 0.01018 0.64347 0.0
H1308 H 0.37273 -0.00046 0.68756 0.0
H1309 H 0.39829 -0.00095 0.7081 0.0
H1310 H 0.36415 0.97935 0.66053 0.0
H1311 H 0.37492 0.04142 0.66764 0.0
H1312 H 0.39241 0.06934 0.66891 0.0
H1313 H 0.40672 0.06327 0.61363 0.0
H1314 H 0.38953 0.03516 0.61208 0.0
H1315 H 0.28921 -0.00177 0.60236 0.0
H1316 H 0.31063 0.00081 0.62714 0.0
H1317 H 0.35429 -0.0006 0.58948 0.0
H1318 H 0.33301 0.99666 0.56475 0.0
H1319 H 0.35573 0.02774 0.61589 0.0
H1320 H 0.34634 0.96353 0.61096 0.0
H1321 H 0.32769 0.93634 0.61062 0.0
H1322 H 0.30889 0.94822 0.66357 0.0
H1323 H 0.32725 0.97564 0.66411 0.0
C1324 C 0.42055 0.008 0.66929 0.0
C1325 C 0.41797 0.00472 0.6876 0.0
C1326 C 0.40605 0.00806 0.6576 0.0
C1327 C 0.38864 0.00521 0.66404 0.0
C1328 C 0.38604 0.00184 0.68233 0.0
C1329 C 0.4006 0.00155 0.69402 0.0
C1330 C 0.37334 0.00515 0.65146 0.0
C1331 C 0.36211 0.99011 0.65102 0.0
C1332 C 0.3707 0.01914 0.63896 0.0
C1333 C 0.38102 0.0361 0.63979 0.0
C1334 C 0.3819 0.04596 0.65578 0.0
C1335 C 0.39174 0.06184 0.65655 0.0
C1336 C 0.40069 0.06806 0.64137 0.0
C1337 C 0.39978 0.05843 0.62538 0.0
C1338 C 0.38997 0.04254 0.62454 0.0
C1339 C 0.30339 -0.00153 0.59944 0.0
C1340 C 0.30953 0.99717 0.58172 0.0
C1341 C 0.31555 -0.0001 0.61354 0.0
C1342 C 0.33397 0.00027 0.61005 0.0
C1343 C 0.3401 -0.00086 0.59237 0.0
C1344 C 0.32798 0.99746 0.57832 0.0
C1345 C 0.34699 0.00181 0.62478 0.0
C1346 C 0.35771 0.01715 0.62561 0.0
C1347 C 0.34896 0.98826 0.6378 0.0
C1348 C 0.33799 0.97174 0.63749 0.0
C1349 C 0.33809 0.96043 0.62246 0.0
C1350 C 0.3276 0.94496 0.62225 0.0
C1351 C 0.31706 0.94058 0.63704 0.0
C1352 C 0.31703 0.95164 0.65211 0.0
C1353 C 0.32748 0.96715 0.65238 0.0
H1354 H 0.30895 0.92859 0.63686 0.0
H1355 H 0.40831 0.08035 0.64199 0.0
H1356 H 0.96477 0.30153 0.58791 0.0
H1357 H 0.96267 0.32163 0.61367 0.0
H1358 H 0.0196 0.3305 0.61149 0.0
H1359 H 0.02187 0.3101 0.58604 0.0
H1360 H 0.00744 0.32704 0.646 0.0
H1361 H 0.99189 0.35978 0.59242 0.0
H1362 H 0.97472 0.36535 0.56482 0.0
H1363 H 0.92613 0.36796 0.59528 0.0
H1364 H 0.943 0.36215 0.62305 0.0
H1365 H 0.01977 0.41205 0.68549 0.0
H1366 H 0.01833 0.38575 0.6662 0.0
H1367 H 0.96109 0.38377 0.67286 0.0
H1368 H 0.96243 0.41 0.69238 0.0
H1369 H 0.97062 0.38169 0.63818 0.0
H1370 H 0.98687 0.35253 0.6924 0.0
H1371 H 0.00425 0.34731 0.71991 0.0
H1372 H 0.05151 0.33815 0.68865 0.0
H1373 H 0.03448 0.34358 0.66093 0.0
C1374 C 0.97687 0.30752 0.59312 0.0
C1375 C 0.99347 0.30439 0.58488 0.0
C1376 C 0.97564 0.31907 0.60775 0.0
C1377 C 0.99096 0.32768 0.61432 0.0
C1378 C 0.00763 0.324 0.60658 0.0
C1379 C 0.00887 0.3125 0.59195 0.0
C1380 C 0.98956 0.34133 0.62855 0.0
C1381 C -0.00052 0.33905 0.6443 0.0
C1382 C 0.9788 0.35675 0.62643 0.0
C1383 C 0.96867 0.36032 0.60977 0.0
C1384 C 0.97752 0.36139 0.59321 0.0
C1385 C 0.96785 0.36462 0.57754 0.0
C1386 C 0.94934 0.36695 0.57829 0.0
C1387 C 0.94046 0.36611 0.59472 0.0
C1388 C 0.95007 0.36286 0.61042 0.0
C1389 C 0.00691 0.40584 0.68312 0.0
C1390 C 0.9912 0.41312 0.69044 0.0
C1391 C 0.00611 0.39081 0.67209 0.0
C1392 C 0.98962 0.38273 0.66825 0.0
C1393 C 0.97394 0.38983 0.67568 0.0
C1394 C 0.97473 0.40486 0.68674 0.0
C1395 C 0.98871 0.36756 0.65559 0.0
C1396 C 0.97837 0.36957 0.64008 0.0
C1397 C -0.0009 0.35192 0.65794 0.0
C1398 C 0.00941 0.34861 0.67458 0.0
C1399 C 0.001 0.34955 0.69138 0.0
C1400 C 0.01079 0.34653 0.70702 0.0
C1401 C 0.02898 0.34244 0.70603 0.0
C1402 C 0.03742 0.34133 0.68939 0.0
C1403 C 0.0277 0.34436 0.67371 0.0
H1404 H 0.03653 0.3401 0.71815 0.0
H1405 H 0.94187 0.36945 0.56614 0.0
H1406 H 0.60037 0.99421 0.70686 0.0
H1407 H 0.62565 0.99309 0.68618 0.0
H1408 H 0.58989 0.9793 0.64305 0.0
H1409 H 0.56471 0.97955 0.66378 0.0
H1410 H 0.61977 0.96072 0.64038 0.0
H1411 H 0.60426 0.02251 0.64978 0.0
H1412 H 0.59859 0.04964 0.66764 0.0
H1413 H 0.65235 0.04808 0.68768 0.0
H1414 H 0.65826 0.02077 0.67011 0.0
H1415 H 0.66397 0.99437 0.56352 0.0
H1416 H 0.64337 0.9908 0.58876 0.0
H1417 H 0.68781 0.99215 0.62546 0.0
H1418 H 0.70857 0.99541 0.60016 0.0
H1419 H 0.65659 0.01555 0.63364 0.0
H1420 H 0.67224 0.95471 0.62068 0.0
H1421 H 0.67693 0.92856 0.60116 0.0
H1422 H 0.62158 0.92952 0.58604 0.0
H1423 H 0.61661 0.95587 0.60527 0.0
C1424 C 0.59793 0.9906 0.69305 0.0
C1425 C 0.5805 0.98713 0.68692 0.0
C1426 C 0.61237 0.99014 0.68122 0.0
C1427 C 0.6096 0.98641 0.66303 0.0
C1428 C 0.59232 0.9823 0.65702 0.0
C1429 C 0.57791 0.98263 0.66885 0.0
C1430 C 0.6245 0.98747 0.65003 0.0
C1431 C 0.62776 0.97274 0.63886 0.0
C1432 C 0.63515 0.00305 0.64827 0.0
C1433 C 0.63164 0.01948 0.65881 0.0
C1434 C 0.61483 0.02787 0.65811 0.0
C1435 C 0.61157 0.04329 0.66816 0.0
C1436 C 0.62508 0.05055 0.67883 0.0
C1437 C 0.64189 0.04242 0.67943 0.0
C1438 C 0.6452 0.02697 0.66943 0.0
C1439 C 0.66931 0.99397 0.57699 0.0
C1440 C 0.68778 0.99517 0.57999 0.0
C1441 C 0.65758 0.99185 0.59133 0.0
C1442 C 0.66415 0.99114 0.60888 0.0
C1443 C 0.68257 0.99264 0.61197 0.0
C1444 C 0.69436 0.99444 0.59757 0.0
C1445 C 0.6516 0.98893 0.62392 0.0
C1446 C 0.64877 0.00345 0.6354 0.0
C1447 C 0.64119 0.97328 0.62581 0.0
C1448 C 0.6441 0.95737 0.6143 0.0
C1449 C 0.6611 0.94945 0.61307 0.0
C1450 C 0.6638 0.93457 0.60208 0.0
C1451 C 0.64957 0.92741 0.59233 0.0
C1452 C 0.63259 0.93509 0.59359 0.0
C1453 C 0.62982 0.94999 0.60454 0.0
H1454 H 0.65169 0.91588 0.58384 0.0
H1455 H 0.62254 0.06249 0.6866 0.0
H1456 H 0.43246 0.33086 0.01305 0.0
H1457 H 0.40773 0.35209 0.01407 0.0
H1458 H 0.37382 0.31409 0.98697 0.0
H1459 H 0.39876 0.29298 0.98529 0.0
H1460 H 0.3707 0.34657 0.97258 0.0
H1461 H 0.36853 0.32229 0.03147 0.0
H1462 H 0.38035 0.31296 0.0608 0.0
H1463 H 0.39515 0.36721 0.07243 0.0
H1464 H 0.38365 0.37684 0.04305 0.0
H1465 H 0.29289 0.39952 0.98684 0.0
H1466 H 0.31396 0.37452 0.98824 0.0
H1467 H 0.35344 0.40907 0.01221 0.0
H1468 H 0.33233 0.43403 0.0112 0.0
H1469 H 0.35152 0.37622 0.02877 0.0
H1470 H 0.35577 0.39967 0.96868 0.0
H1471 H 0.34386 0.4088 0.93932 0.0
H1472 H 0.3247 0.35544 0.93019 0.0
H1473 H 0.3363 0.34605 0.95963 0.0
C1474 C 0.41978 0.32706 0.0072 0.0
C1475 C 0.41758 0.31027 -0.00097 0.0
C1476 C 0.40559 0.33912 0.00799 0.0
C1477 C 0.38888 0.33457 0.0008 0.0
C1478 C 0.3866 0.31781 0.99268 0.0
C1479 C 0.40081 0.30573 0.99184 0.0
C1480 C 0.37403 0.34764 0.00119 0.0
C1481 C 0.36626 0.3528 0.98491 0.0
C1482 C 0.36848 0.35598 0.01725 0.0
C1483 C 0.37535 0.35026 0.03498 0.0
C1484 C 0.37443 0.33222 0.04022 0.0
C1485 C 0.38105 0.32687 0.05687 0.0
C1486 C 0.38853 0.33948 0.06846 0.0
C1487 C 0.38936 0.35746 0.06344 0.0
C1488 C 0.38277 0.36287 0.04679 0.0
C1489 C 0.306 0.40173 0.99257 0.0
C1490 C 0.31102 0.41874 -0.00118 0.0
C1491 C 0.31804 0.38748 0.99326 0.0
C1492 C 0.33528 0.39003 0.00019 0.0
C1493 C 0.34019 0.40688 0.00679 0.0
C1494 C 0.32819 0.42114 0.00605 0.0
C1495 C 0.34842 0.37526 0.00016 0.0
C1496 C 0.35585 0.36981 0.01649 0.0
C1497 C 0.35362 0.3666 0.98417 0.0
C1498 C 0.34672 0.37221 0.96644 0.0
C1499 C 0.34889 0.38992 0.96048 0.0
C1500 C 0.34222 0.39514 0.94381 0.0
C1501 C 0.33348 0.38272 0.93292 0.0
C1502 C 0.33144 0.36505 0.93865 0.0
C1503 C 0.33807 0.35977 0.95532 0.0
H1504 H 0.32833 0.38679 0.92002 0.0
H1505 H 0.39365 0.33532 0.08134 0.0
H1506 H 0.29948 0.59093 0.96788 0.0
H1507 H 0.31998 0.61641 0.96789 0.0
H1508 H 0.33994 0.60039 0.01961 0.0
H1509 H 0.31903 0.57529 0.01999 0.0
H1510 H 0.33571 0.63621 0.01771 0.0
H1511 H 0.36238 0.58974 0.9816 0.0
H1512 H 0.36325 0.56788 0.95692 0.0
H1513 H 0.35624 0.61023 0.91877 0.0
H1514 H 0.35509 0.63233 0.94326 0.0
H1515 H 0.42226 0.67436 0.02035 0.0
H1516 H 0.39605 0.6549 0.01988 0.0
H1517 H 0.3807 0.67658 0.96867 0.0
H1518 H 0.40677 0.69632 0.96914 0.0
H1519 H 0.38041 0.64031 0.96883 0.0
H1520 H 0.35697 0.68722 0.00506 0.0
H1521 H 0.35656 0.70892 0.02988 0.0
H1522 H 0.35783 0.66591 0.06792 0.0
H1523 H 0.35851 0.64394 0.04333 0.0
C1524 C 0.30804 0.59299 0.97937 0.0
C1525 C 0.30775 0.58102 0.99388 0.0
C1526 C 0.31984 0.60747 0.9793 0.0
C1527 C 0.33162 0.61013 0.99365 0.0
C1528 C 0.33098 0.59852 0.00837 0.0
C1529 C 0.31918 0.58409 0.00848 0.0
C1530 C 0.34513 0.62457 0.9931 0.0
C1531 C 0.34558 0.63706 0.0071 0.0
C1532 C 0.35768 0.62591 0.979 0.0
C1533 C 0.35845 0.61265 0.96427 0.0
C1534 C 0.36089 0.59437 0.96796 0.0
C1535 C 0.36145 0.58194 0.954 0.0
C1536 C 0.35975 0.58765 0.93629 0.0
C1537 C 0.35753 0.60582 0.93249 0.0
C1538 C 0.35693 0.6183 0.9464 0.0
C1539 C 0.41315 0.67522 0.00913 0.0
C1540 C 0.41662 0.68686 0.99476 0.0
C1541 C 0.39819 0.66409 0.00888 0.0
C1542 C 0.38638 0.66442 0.99431 0.0
C1543 C 0.38968 0.67613 0.98003 0.0
C1544 C 0.40462 0.68731 0.98028 0.0
C1545 C 0.37117 0.65181 0.99358 0.0
C1546 C 0.37041 0.63964 0.97933 0.0
C1547 C 0.35839 0.65075 0.00748 0.0
C1548 C 0.35794 0.66393 0.02233 0.0
C1549 C 0.35731 0.68238 0.01872 0.0
C1550 C 0.357 0.69473 0.03275 0.0
C1551 C 0.35721 0.6888 0.05046 0.0
C1552 C 0.35768 0.67049 0.05419 0.0
C1553 C 0.35801 0.65808 0.04021 0.0
H1554 H 0.35696 0.69838 0.06131 0.0
H1555 H 0.36019 0.57801 0.9255 0.0
H1556 H 0.59537 0.29604 0.98609 0.0
H1557 H 0.6196 0.318 0.98826 0.0
H1558 H 0.59309 0.34294 0.03302 0.0
H1559 H 0.5688 0.3211 0.03086 0.0
H1560 H 0.60233 0.36661 0.00573 0.0
H1561 H 0.62983 0.32018 0.04055 0.0
H1562 H 0.64048 0.28957 0.04659 0.0
H1563 H 0.676 0.29274 0.00159 0.0
H1564 H 0.66537 0.3233 0.99511 0.0
H1565 H 0.66916 0.42954 0.02562 0.0
H1566 H 0.64808 0.4047 0.02846 0.0
H1567 H 0.67716 0.3753 0.9882 0.0
H1568 H 0.69854 0.4 0.98562 0.0
H1569 H 0.66678 0.35347 0.0142 0.0
H1570 H 0.63885 0.3982 0.97786 0.0
H1571 H 0.62814 0.42842 0.97017 0.0
H1572 H 0.59321 0.42792 0.01575 0.0
H1573 H 0.60391 0.39778 0.02386 0.0
C1574 C 0.59482 0.30614 0.99647 0.0
C1575 C 0.58023 0.30693 0.00829 0.0
C1576 C 0.60869 0.31856 0.99777 0.0
C1577 C 0.60812 0.332 0.01085 0.0
C1578 C 0.59376 0.3326 0.02288 0.0
C1579 C 0.57997 0.32009 0.0217 0.0
C1580 C 0.62186 0.34618 0.01114 0.0
C1581 C 0.61639 0.36381 0.0079 0.0
C1582 C 0.64023 0.34233 0.01335 0.0
C1583 C 0.64668 0.32397 0.01725 0.0
C1584 C 0.6398 0.3143 0.03184 0.0
C1585 C 0.64585 0.29697 0.03537 0.0
C1586 C 0.65887 0.2892 0.02445 0.0
C1587 C 0.6659 0.29877 0.01002 0.0
C1588 C 0.65988 0.3161 0.00643 0.0
C1589 C 0.67104 0.41775 0.0174 0.0
C1590 C 0.68533 0.41671 0.00527 0.0
C1591 C 0.65902 0.40359 0.01903 0.0
C1592 C 0.66088 0.38829 0.00831 0.0
C1593 C 0.67548 0.38699 0.99658 0.0
C1594 C 0.68764 0.40109 0.9951 0.0
C1595 C 0.64723 0.37395 0.00887 0.0
C1596 C 0.65271 0.3563 0.01216 0.0
C1597 C 0.62885 0.37771 0.00646 0.0
C1598 C 0.62232 0.39581 0.00157 0.0
C1599 C 0.62898 0.40459 0.98632 0.0
C1600 C 0.6229 0.42169 0.98188 0.0
C1601 C 0.61004 0.43011 0.9925 0.0
C1602 C 0.60319 0.4214 0.00755 0.0
C1603 C 0.60925 0.4043 0.01207 0.0
H1604 H 0.60534 0.44335 0.98903 0.0
H1605 H 0.66354 0.27578 0.02721 0.0
H1606 H 0.68748 0.5819 0.03125 0.0
H1607 H 0.66799 0.60795 0.03274 0.0
H1608 H 0.66843 0.61174 0.97515 0.0
H1609 H 0.68902 0.58656 0.97359 0.0
H1610 H 0.66898 0.64366 0.98841 0.0
H1611 H 0.63377 0.59088 -0.00078 0.0
H1612 H 0.62557 0.56278 0.01445 0.0
H1613 H 0.61921 0.59114 0.06399 0.0
H1614 H 0.62761 0.61938 0.04908 0.0
H1615 H 0.58414 0.68364 0.9718 0.0
H1616 H 0.60977 0.66339 0.9743 0.0
H1617 H 0.61235 0.67352 0.03104 0.0
H1618 H 0.58677 0.69393 0.02858 0.0
H1619 H 0.61157 0.63657 0.0209 0.0
H1620 H 0.64363 0.69045 0.0074 0.0
H1621 H 0.65033 0.71784 0.9903 0.0
H1622 H 0.6608 0.68638 0.94341 0.0
H1623 H 0.6539 0.6588 0.96016 0.0
C1624 C 0.68378 0.58848 0.0189 0.0
C1625 C 0.68971 0.58195 0.00227 0.0
C1626 C 0.67243 0.60327 0.01978 0.0
C1627 C 0.66641 0.61156 0.00404 0.0
C1628 C 0.67278 0.60548 0.98748 0.0
C1629 C 0.68438 0.5909 0.9866 0.0
C1630 C 0.65295 0.62609 0.00471 0.0
C1631 C 0.65638 0.64205 0.99541 0.0
C1632 C 0.63662 0.62414 0.01412 0.0
C1633 C 0.63151 0.60719 0.02309 0.0
C1634 C 0.63075 0.59109 0.01339 0.0
C1635 C 0.62605 0.57515 0.02196 0.0
C1636 C 0.62193 0.57517 0.04019 0.0
C1637 C 0.62245 0.59114 0.04988 0.0
C1638 C 0.62716 0.60712 0.04138 0.0
C1639 C 0.59027 0.68161 0.98476 0.0
C1640 C 0.58353 0.69027 0.0 0.0
C1641 C 0.60492 0.67016 0.98616 0.0
C1642 C 0.61294 0.6671 0.00283 0.0
C1643 C 0.60634 0.67583 0.01806 0.0
C1644 C 0.59183 0.68749 0.01663 0.0
C1645 C 0.62756 0.65394 0.00443 0.0
C1646 C 0.62429 0.63823 0.01411 0.0
C1647 C 0.64386 0.656 0.99511 0.0
C1648 C 0.6481 0.67256 0.98501 0.0
C1649 C 0.64721 0.68937 0.9934 0.0
C1650 C 0.65108 0.70493 0.98378 0.0
C1651 C 0.65595 0.70385 0.96577 0.0
C1652 C 0.65701 0.6872 0.95736 0.0
C1653 C 0.65315 0.6716 0.96692 0.0
H1654 H 0.65894 0.71592 0.95834 0.0
H1655 H 0.61829 0.56281 0.0468 0.0
H1656 H 0.49817 0.79155 0.89566 0.0
H1657 H 0.49549 0.8129 0.87099 0.0
H1658 H 0.4831 0.85487 0.90859 0.0
H1659 H 0.48593 0.83371 0.93329 0.0
H1660 H 0.46094 0.85544 0.8795 0.0
H1661 H 0.52441 0.85131 0.89134 0.0
H1662 H 0.55305 0.83538 0.89484 0.0
H1663 H 0.54935 0.8162 0.84084 0.0
H1664 H 0.52054 0.83183 0.8371 0.0
H1665 H 0.48023 0.93531 0.83348 0.0
H1666 H 0.47887 0.90987 0.8539 0.0
H1667 H 0.49319 0.8743 0.81077 0.0
H1668 H 0.49512 0.89983 0.79035 0.0
H1669 H 0.5128 0.86785 0.84001 0.0
H1670 H 0.45091 0.87448 0.82699 0.0
H1671 H 0.42226 0.89033 0.82331 0.0
H1672 H 0.4226 0.9045 0.87896 0.0
H1673 H 0.45139 0.88895 0.88293 0.0
C1674 C 0.495 0.80536 0.89867 0.0
C1675 C 0.49232 0.81097 0.91642 0.0
C1676 C 0.4934 0.8175 0.88457 0.0
C1677 C 0.48919 0.83546 0.88801 0.0
C1678 C 0.48626 0.84104 0.90567 0.0
C1679 C 0.48786 0.82892 0.91976 0.0
C1680 C 0.48821 0.84864 0.87329 0.0
C1681 C 0.4723 0.85827 0.87093 0.0
C1682 C 0.50287 0.85188 0.86179 0.0
C1683 C 0.52023 0.84256 0.86401 0.0
C1684 C 0.52963 0.84357 0.88026 0.0
C1685 C 0.54591 0.83462 0.88228 0.0
C1686 C 0.55299 0.82474 0.86809 0.0
C1687 C 0.54383 0.82383 0.85183 0.0
C1688 C 0.52753 0.83274 0.84975 0.0
C1689 C 0.48312 0.92208 0.82835 0.0
C1690 C 0.48783 0.91957 0.81033 0.0
C1691 C 0.48215 0.90753 0.83998 0.0
C1692 C 0.48573 0.89018 0.83379 0.0
C1693 C 0.49028 0.88759 0.81577 0.0
C1694 C 0.49126 0.90215 0.80411 0.0
C1695 C 0.48562 0.87494 0.84641 0.0
C1696 C 0.50133 0.86489 0.8484 0.0
C1697 C 0.47075 0.87129 0.85753 0.0
C1698 C 0.4534 0.88065 0.85522 0.0
C1699 C 0.44495 0.88109 0.83842 0.0
C1700 C 0.42867 0.89001 0.83628 0.0
C1701 C 0.42063 0.89845 0.85088 0.0
C1702 C 0.42885 0.89796 0.86766 0.0
C1703 C 0.44514 0.88908 0.86986 0.0
H1704 H 0.40802 0.90534 0.84921 0.0
H1705 H 0.56559 0.81782 0.86968 0.0
H1706 H 0.16182 0.48595 0.93359 0.0
H1707 H 0.14039 0.48402 0.90909 0.0
H1708 H 0.18218 0.49639 0.87127 0.0
H1709 H 0.20361 0.49907 0.89585 0.0
H1710 H 0.15297 0.5154 0.86439 0.0
H1711 H 0.16579 0.45395 0.87475 0.0
H1712 H 0.16983 0.4264 0.89241 0.0
H1713 H 0.11472 0.42814 0.90836 0.0
H1714 H 0.11041 0.45587 0.891 0.0
H1715 H 0.09528 0.49592 0.79082 0.0
H1716 H 0.12048 0.49425 0.81165 0.0
H1717 H 0.08387 0.4856 0.8554 0.0
H1718 H 0.05868 0.48685 0.83463 0.0
H1719 H 0.11284 0.46311 0.85677 0.0
H1720 H 0.10136 0.5263 0.84829 0.0
H1721 H 0.09772 0.55375 0.83037 0.0
H1722 H 0.15117 0.54808 0.81023 0.0
H1723 H 0.15504 0.52044 0.82786 0.0
C1724 C 0.16644 0.4884 0.92008 0.0
C1725 C 0.1844 0.49271 0.91666 0.0
C1726 C 0.15422 0.48706 0.90606 0.0
C1727 C 0.15975 0.48981 0.88833 0.0
C1728 C 0.17767 0.49412 0.88485 0.0
C1729 C 0.18991 0.49551 0.89889 0.0
C1730 C 0.1466 0.48882 0.87356 0.0
C1731 C 0.14443 0.50383 0.8625 0.0
C1732 C 0.13531 0.47381 0.87126 0.0
C1733 C 0.13782 0.45708 0.88167 0.0
C1734 C 0.15456 0.44854 0.88213 0.0
C1735 C 0.1569 0.43288 0.89207 0.0
C1736 C 0.14255 0.42555 0.90153 0.0
C1737 C 0.12583 0.43384 0.90103 0.0
C1738 C 0.12343 0.44952 0.89113 0.0
C1739 C 0.09264 0.49349 0.80486 0.0
C1740 C 0.07501 0.49162 0.81113 0.0
C1741 C 0.10702 0.49265 0.81674 0.0
C1742 C 0.104 0.48995 0.83506 0.0
C1743 C 0.08646 0.48773 0.8413 0.0
C1744 C 0.07208 0.48861 0.82945 0.0
C1745 C 0.11903 0.48979 0.84789 0.0
C1746 C 0.12155 0.47457 0.85856 0.0
C1747 C 0.13071 0.50455 0.84976 0.0
C1748 C 0.12841 0.5212 0.83923 0.0
C1749 C 0.11228 0.53083 0.83993 0.0
C1750 C 0.11019 0.54644 0.82984 0.0
C1751 C 0.12419 0.55263 0.81913 0.0
C1752 C 0.14033 0.54325 0.81851 0.0
C1753 C 0.14248 0.52762 0.82855 0.0
H1754 H 0.12254 0.56472 0.81133 0.0
H1755 H 0.14438 0.41342 0.90922 0.0
H1756 H 0.53428 0.08663 0.80546 0.0
H1757 H 0.53489 0.11244 0.82543 0.0
H1758 H 0.47753 0.10977 0.83081 0.0
H1759 H 0.47669 0.08461 0.81006 0.0
H1760 H 0.48784 0.14343 0.8286 0.0
H1761 H 0.50589 0.09181 0.86257 0.0
H1762 H 0.52413 0.06518 0.86932 0.0
H1763 H 0.57128 0.09784 0.87195 0.0
H1764 H 0.55333 0.12464 0.86498 0.0
H1765 H 0.47497 0.1839 0.91372 0.0
H1766 H 0.47672 0.16401 0.8879 0.0
H1767 H 0.53292 0.17567 0.8825 0.0
H1768 H 0.53121 0.19604 0.90802 0.0
H1769 H 0.52521 0.13933 0.88326 0.0
H1770 H 0.5054 0.19169 0.85226 0.0
H1771 H 0.48605 0.21777 0.84662 0.0
H1772 H 0.44085 0.18307 0.8397 0.0
H1773 H 0.45987 0.15678 0.84557 0.0
C1774 C 0.52175 0.09172 0.81063 0.0
C1775 C 0.50544 0.08343 0.80628 0.0
C1776 C 0.52215 0.10637 0.82219 0.0
C1777 C 0.50628 0.11283 0.82985 0.0
C1778 C 0.48994 0.10495 0.82512 0.0
C1779 C 0.48951 0.09042 0.81343 0.0
C1780 C 0.5067 0.12737 0.8433 0.0
C1781 C 0.4959 0.14248 0.84062 0.0
C1782 C 0.51751 0.12627 0.85881 0.0
C1783 C 0.52831 0.11019 0.86305 0.0
C1784 C 0.52017 0.09329 0.86445 0.0
C1785 C 0.53045 0.07817 0.86834 0.0
C1786 C 0.54886 0.07981 0.87101 0.0
C1787 C 0.55702 0.09658 0.86984 0.0
C1788 C 0.5468 0.11174 0.86593 0.0
C1789 C 0.48763 0.18257 0.90683 0.0
C1790 C 0.50297 0.19154 0.91299 0.0
C1791 C 0.48861 0.17115 0.8921 0.0
C1792 C 0.50493 0.16847 0.88328 0.0
C1793 C 0.52021 0.17758 0.88918 0.0
C1794 C 0.51922 0.18911 0.90382 0.0
C1795 C 0.50622 0.15527 0.86864 0.0
C1796 C 0.51732 0.14038 0.87113 0.0
C1797 C 0.49553 0.15648 0.8531 0.0
C1798 C 0.48405 0.17227 0.84951 0.0
C1799 C 0.49131 0.18963 0.84969 0.0
C1800 C 0.4804 0.20445 0.84642 0.0
C1801 C 0.46223 0.20208 0.84284 0.0
C1802 C 0.45493 0.18488 0.84249 0.0
C1803 C 0.46577 0.17001 0.84577 0.0
H1804 H 0.4538 0.21358 0.84031 0.0
H1805 H 0.55679 0.06809 0.87402 0.0
H1806 H 0.90626 0.46882 0.80639 0.0
H1807 H 0.8802 0.46902 0.82592 0.0
H1808 H 0.87827 0.52664 0.82292 0.0
H1809 H 0.9051 0.52664 0.80447 0.0
H1810 H 0.87474 0.51714 0.85555 0.0
H1811 H 0.84703 0.49856 0.80122 0.0
H1812 H 0.84279 0.48043 0.774 0.0
H1813 H 0.83518 0.43343 0.80612 0.0
H1814 H 0.83962 0.45123 0.83354 0.0
H1815 H 0.79225 0.52369 0.90081 0.0
H1816 H 0.81268 0.52394 0.87529 0.0
H1817 H 0.82549 0.46854 0.88483 0.0
H1818 H 0.80549 0.46825 0.91068 0.0
H1819 H 0.82168 0.47809 0.84756 0.0
H1820 H 0.85205 0.49742 0.90157 0.0
H1821 H 0.85551 0.51632 0.92837 0.0
H1822 H 0.85712 0.56331 0.89538 0.0
H1823 H 0.85339 0.54468 0.86838 0.0
C1824 C 0.9004 0.48156 0.80998 0.0
C1825 C 0.90789 0.49772 0.8039 0.0
C1826 C 0.88529 0.48164 0.82092 0.0
C1827 C 0.87709 0.49783 0.82569 0.0
C1828 C 0.88431 0.51396 0.81936 0.0
C1829 C 0.89958 0.51392 0.80864 0.0
C1830 C 0.86175 0.49804 0.83826 0.0
C1831 C 0.863 0.50885 0.85355 0.0
C1832 C 0.84654 0.48698 0.8359 0.0
C1833 C 0.84381 0.47622 0.81944 0.0
C1834 C 0.84458 0.48434 0.80248 0.0
C1835 C 0.84212 0.47412 0.78701 0.0
C1836 C 0.83876 0.45579 0.78833 0.0
C1837 C 0.83781 0.44764 0.80512 0.0
C1838 C 0.84027 0.45779 0.82063 0.0
C1839 C 0.79936 0.51153 0.89746 0.0
C1840 C 0.79743 0.49602 0.90794 0.0
C1841 C 0.8109 0.51167 0.8828 0.0
C1842 C 0.82064 0.4963 0.87834 0.0
C1843 C 0.81799 0.4805 0.88808 0.0
C1844 C 0.80654 0.48037 0.90282 0.0
C1845 C 0.83483 0.49716 0.86463 0.0
C1846 C 0.83337 0.48651 0.84927 0.0
C1847 C 0.84978 0.5085 0.86678 0.0
C1848 C 0.85225 0.51968 0.88299 0.0
C1849 C 0.853 0.51179 0.90004 0.0
C1850 C 0.85503 0.52245 0.91527 0.0
C1851 C 0.85648 0.54101 0.91358 0.0
C1852 C 0.85596 0.54894 0.89666 0.0
C1853 C 0.8539 0.53833 0.8814 0.0
H1854 H 0.85806 0.54924 0.92538 0.0
H1855 H 0.83686 0.4479 0.77634 0.0
H1856 H 0.50592 0.09378 0.20082 0.0
H1857 H 0.50545 0.11801 0.17881 0.0
H1858 H 0.47877 0.08338 0.14116 0.0
H1859 H 0.4791 0.05916 0.16308 0.0
H1860 H 0.50662 0.10045 0.12605 0.0
H1861 H 0.45617 0.11634 0.16278 0.0
H1862 H 0.44076 0.12346 0.19106 0.0
H1863 H 0.4757 0.1683 0.19917 0.0
H1864 H 0.49148 0.1613 0.17105 0.0
H1865 H 0.47957 0.16243 0.06079 0.0
H1866 H 0.47926 0.14031 0.08484 0.0
H1867 H 0.50625 0.17758 0.11964 0.0
H1868 H 0.50665 0.1998 0.09558 0.0
H1869 H 0.47944 0.16 0.1369 0.0
H1870 H 0.52952 0.14467 0.10018 0.0
H1871 H 0.54519 0.13775 0.072 0.0
H1872 H 0.51149 0.09192 0.06417 0.0
H1873 H 0.49544 0.09872 0.09218 0.0
C1874 C 0.49975 0.09142 0.18793 0.0
C1875 C 0.49258 0.07456 0.18365 0.0
C1876 C 0.49952 0.10525 0.17537 0.0
C1877 C 0.49199 0.1025 0.1584 0.0
C1878 C 0.4847 0.08575 0.15417 0.0
C1879 C 0.48496 0.07192 0.16668 0.0
C1880 C 0.49217 0.11687 0.14479 0.0
C1881 C 0.50048 0.11339 0.12834 0.0
C1882 C 0.48464 0.13392 0.14802 0.0
C1883 C 0.47512 0.13818 0.1649 0.0
C1884 C 0.46066 0.12763 0.17067 0.0
C1885 C 0.45184 0.13166 0.18665 0.0
C1886 C 0.45728 0.14629 0.19693 0.0
C1887 C 0.47152 0.15696 0.19121 0.0
C1888 C 0.4804 0.15297 0.17524 0.0
C1889 C 0.48551 0.16588 0.07354 0.0
C1890 C 0.49328 0.18277 0.07626 0.0
C1891 C 0.48529 0.15326 0.08727 0.0
C1892 C 0.49296 0.15724 0.10392 0.0
C1893 C 0.50028 0.17426 0.10687 0.0
C1894 C 0.50046 0.18693 0.09313 0.0
C1895 C 0.49365 0.14345 0.11809 0.0
C1896 C 0.48559 0.14706 0.13465 0.0
C1897 C 0.50147 0.12651 0.115 0.0
C1898 C 0.51117 0.1223 0.0982 0.0
C1899 C 0.52536 0.13319 0.09238 0.0
C1900 C 0.53433 0.12928 0.07645 0.0
C1901 C 0.52931 0.11442 0.06628 0.0
C1902 C 0.51535 0.10343 0.07205 0.0
C1903 C 0.50632 0.1073 0.08796 0.0
H1904 H 0.53627 0.11141 0.05395 0.0
H1905 H 0.45043 0.14939 0.2093 0.0
H1906 H 0.93876 0.48729 0.15907 0.0
H1907 H 0.91489 0.48719 0.1368 0.0
H1908 H 0.8767 0.50169 0.17758 0.0
H1909 H 0.9006 0.50138 0.20005 0.0
H1910 H 0.86279 0.47746 0.15583 0.0
H1911 H 0.89325 0.53302 0.14828 0.0
H1912 H 0.91918 0.55295 0.14417 0.0
H1913 H 0.93114 0.52755 0.09408 0.0
H1914 H 0.90542 0.50727 0.09802 0.0
H1915 H 0.79691 0.50642 0.09261 0.0
H1916 H 0.81896 0.50571 0.11671 0.0
H1917 H 0.85835 0.48475 0.08019 0.0
H1918 H 0.83629 0.48494 0.05609 0.0
H1919 H 0.87059 0.51349 0.10061 0.0
H1920 H 0.83961 0.45748 0.10929 0.0
H1921 H 0.81301 0.43855 0.11389 0.0
H1922 H 0.80106 0.46664 0.16253 0.0
H1923 H 0.82747 0.48591 0.15809 0.0
C1924 C 0.92527 0.49047 0.16326 0.0
C1925 C 0.92151 0.49453 0.1812 0.0
C1926 C 0.91166 0.49044 0.15054 0.0
C1927 C 0.89409 0.49481 0.15546 0.0
C1928 C 0.89019 0.49836 0.17349 0.0
C1929 C 0.90381 0.49819 0.18629 0.0
C1930 C 0.87991 0.49585 0.14169 0.0
C1931 C 0.86438 0.48555 0.14388 0.0
C1932 C 0.88207 0.50627 0.12601 0.0
C1933 C 0.89749 0.51852 0.12352 0.0
C1934 C 0.90148 0.5316 0.13645 0.0
C1935 C 0.91613 0.54297 0.13414 0.0
C1936 C 0.92682 0.54149 0.11889 0.0
C1937 C 0.92285 0.52867 0.10589 0.0
C1938 C 0.90823 0.51724 0.10815 0.0
C1939 C 0.81019 0.50142 0.08974 0.0
C1940 C 0.81483 0.49571 0.07241 0.0
C1941 C 0.82278 0.5011 0.10351 0.0
C1942 C 0.84021 0.49509 0.10021 0.0
C1943 C 0.84494 0.48948 0.08295 0.0
C1944 C 0.83235 0.48969 0.0692 0.0
C1945 C 0.85367 0.49492 0.11466 0.0
C1946 C 0.86902 0.50546 0.1126 0.0
C1947 C 0.85123 0.48491 0.13053 0.0
C1948 C 0.83541 0.47326 0.13326 0.0
C1949 C 0.83123 0.45972 0.12089 0.0
C1950 C 0.8162 0.44891 0.12348 0.0
C1951 C 0.80532 0.45142 0.13846 0.0
C1952 C 0.80948 0.46472 0.15092 0.0
C1953 C 0.82448 0.47558 0.14838 0.0
H1954 H 0.79369 0.44304 0.14045 0.0
H1955 H 0.93816 0.55031 0.11713 0.0
H1956 H 0.50476 0.78886 0.09667 0.0
H1957 H 0.50426 0.80975 0.12189 0.0
H1958 H 0.47876 0.84937 0.08863 0.0
H1959 H 0.47891 0.82854 0.0635 0.0
H1960 H 0.508 0.86248 0.1064 0.0
H1961 H 0.45523 0.82776 0.1199 0.0
H1962 H 0.4385 0.79999 0.12594 0.0
H1963 H 0.4718 0.78945 0.1715 0.0
H1964 H 0.4889 0.81705 0.16557 0.0
H1965 H 0.4797 0.9281 0.16632 0.0
H1966 H 0.47987 0.90371 0.14469 0.0
H1967 H 0.50415 0.86892 0.18377 0.0
H1968 H 0.50349 0.8932 0.2058 0.0
H1969 H 0.47787 0.85189 0.16459 0.0
H1970 H 0.52973 0.88687 0.15236 0.0
H1971 H 0.54694 0.9144 0.14663 0.0
H1972 H 0.51645 0.92393 0.09894 0.0
H1973 H 0.49885 0.89659 0.10453 0.0
C1974 C 0.49878 0.80192 0.09482 0.0
C1975 C 0.49197 0.8071 0.07806 0.0
C1976 C 0.49856 0.81384 0.10921 0.0
C1977 C 0.49147 0.83107 0.10708 0.0
C1978 C 0.48439 0.83615 0.09048 0.0
C1979 C 0.48456 0.82426 0.07613 0.0
C1980 C 0.49202 0.84418 0.12187 0.0
C1981 C 0.50126 0.86025 0.11906 0.0
C1982 C 0.48377 0.84093 0.13858 0.0
C1983 C 0.47347 0.82436 0.14217 0.0
C1984 C 0.45909 0.81944 0.13111 0.0
C1985 C 0.44952 0.80375 0.13453 0.0
C1986 C 0.45412 0.79294 0.14906 0.0
C1987 C 0.46827 0.79782 0.16023 0.0
C1988 C 0.4779 0.81349 0.15685 0.0
C1989 C 0.48481 0.91519 0.17044 0.0
C1990 C 0.49162 0.91259 0.18776 0.0
C1991 C 0.48505 0.90132 0.15801 0.0
C1992 C 0.49226 0.88462 0.16258 0.0
C1993 C 0.49862 0.88176 0.17999 0.0
C1994 C 0.49836 0.89567 0.19248 0.0
C1995 C 0.49348 0.87036 0.14892 0.0
C1996 C 0.4847 0.85406 0.15197 0.0
C1997 C 0.50226 0.87332 0.13242 0.0
C1998 C 0.51287 0.88975 0.12895 0.0
C1999 C 0.5266 0.89491 0.14073 0.0
C2000 C 0.53644 0.91047 0.13749 0.0
C2001 C 0.53277 0.92093 0.12245 0.0
C2002 C 0.51927 0.91582 0.11059 0.0
C2003 C 0.50937 0.90028 0.11378 0.0
H2004 H 0.5404 0.93297 0.11997 0.0
H2005 H 0.44668 0.7808 0.15169 0.0
H2006 H 0.20417 0.48601 0.09407 0.0
H2007 H 0.18376 0.48636 0.1197 0.0
H2008 H 0.14813 0.52138 0.09088 0.0
H2009 H 0.16854 0.52117 0.06525 0.0
H2010 H 0.15376 0.53138 0.127 0.0
H2011 H 0.13866 0.479 0.09198 0.0
H2012 H 0.14531 0.4505 0.07677 0.0
H2013 H 0.16257 0.42765 0.12655 0.0
H2014 H 0.15625 0.45612 0.14201 0.0
H2015 H 0.07104 0.52196 0.17046 0.0
H2016 H 0.09605 0.52312 0.14965 0.0
H2017 H 0.12286 0.48152 0.17932 0.0
H2018 H 0.09739 0.4796 0.19972 0.0
H2019 H 0.12439 0.47465 0.14505 0.0
H2020 H 0.13709 0.5256 0.18096 0.0
H2021 H 0.13099 0.55395 0.19664 0.0
H2022 H 0.11937 0.5795 0.14654 0.0
H2023 H 0.12515 0.55123 0.13057 0.0
C2024 C 0.19208 0.49393 0.0933 0.0
C2025 C 0.18785 0.50349 0.07768 0.0
C2026 C 0.18043 0.49405 0.10788 0.0
C2027 C 0.16444 0.50381 0.10708 0.0
C2028 C 0.16043 0.51377 0.0917 0.0
C2029 C 0.17199 0.51352 0.07706 0.0
C2030 C 0.15152 0.50312 0.12199 0.0
C2031 C 0.14721 0.51903 0.13091 0.0
C2032 C 0.14347 0.48688 0.12737 0.0
C2033 C 0.14718 0.46974 0.1181 0.0
C2034 C 0.14402 0.46795 0.09965 0.0
C2035 C 0.1477 0.45179 0.09099 0.0
C2036 C 0.15441 0.43729 0.10068 0.0
C2037 C 0.1574 0.4389 0.11906 0.0
C2038 C 0.15376 0.45504 0.12777 0.0
C2039 C 0.08219 0.51296 0.17252 0.0
C2040 C 0.08217 0.50061 0.18671 0.0
C2041 C 0.09661 0.51382 0.16074 0.0
C2042 C 0.11145 0.50259 0.16308 0.0
C2043 C 0.11158 0.49038 0.17734 0.0
C2044 C 0.09708 0.48941 0.18906 0.0
C2045 C 0.12635 0.50299 0.15003 0.0
C2046 C 0.13106 0.48701 0.14139 0.0
C2047 C 0.13487 0.51916 0.14504 0.0
C2048 C 0.13143 0.53624 0.15458 0.0
C2049 C 0.13311 0.53722 0.17329 0.0
C2050 C 0.12973 0.55329 0.18223 0.0
C2051 C 0.12476 0.56851 0.1726 0.0
C2052 C 0.12321 0.5677 0.15399 0.0
C2053 C 0.12656 0.55166 0.14498 0.0
H2054 H 0.12214 0.58093 0.17954 0.0
H2055 H 0.15725 0.42479 0.09395 0.0
H2056 H 0.83476 0.9361 0.50318 0.0
H2057 H 0.85572 0.91115 0.50172 0.0
H2058 H 0.81272 0.87557 0.48714 0.0
H2059 H 0.7916 0.90057 0.48848 0.0
H2060 H 0.8344 0.86085 0.51228 0.0
H2061 H 0.84144 0.88919 0.45568 0.0
H2062 H 0.84601 0.91429 0.43479 0.0
H2063 H 0.89743 0.92472 0.45805 0.0
H2064 H 0.89306 0.89983 0.47928 0.0
H2065 H 0.89682 0.79171 0.489 0.0
H2066 H 0.8727 0.81383 0.48721 0.0
H2067 H 0.90942 0.85527 0.50343 0.0
H2068 H 0.93359 0.83336 0.5049 0.0
H2069 H 0.88895 0.86517 0.47475 0.0
H2070 H 0.88035 0.83802 0.53289 0.0
H2071 H 0.87547 0.81281 0.55358 0.0
H2072 H 0.82652 0.79974 0.52659 0.0
H2073 H 0.83125 0.82476 0.50557 0.0
C2074 C 0.82978 0.92301 0.49949 0.0
C2075 C 0.81156 0.92032 0.4958 0.0
C2076 C 0.84176 0.90876 0.4987 0.0
C2077 C 0.8358 0.89159 0.49407 0.0
C2078 C 0.81757 0.88875 0.4907 0.0
C2079 C 0.80554 0.90302 0.49152 0.0
C2080 C 0.84869 0.87664 0.49287 0.0
C2081 C 0.84617 0.86163 0.50384 0.0
C2082 C 0.86412 0.87779 0.48198 0.0
C2083 C 0.86686 0.89272 0.46917 0.0
C2084 C 0.85367 0.89692 0.45643 0.0
C2085 C 0.85623 0.9111 0.44452 0.0
C2086 C 0.87198 0.92112 0.44512 0.0
C2087 C 0.88523 0.91695 0.45761 0.0
C2088 C 0.88273 0.90279 0.46958 0.0
C2089 C 0.89973 0.80556 0.49209 0.0
C2090 C 0.91705 0.81082 0.49717 0.0
C2091 C 0.88595 0.81813 0.49117 0.0
C2092 C 0.88929 0.83613 0.4953 0.0
C2093 C 0.90659 0.84142 0.50022 0.0
C2094 C 0.92033 0.82888 0.50121 0.0
C2095 C 0.87486 0.8496 0.49447 0.0
C2096 C 0.87708 0.86432 0.48305 0.0
C2097 C 0.85913 0.84812 0.50487 0.0
C2098 C 0.85626 0.83312 0.51753 0.0
C2099 C 0.86863 0.82968 0.53127 0.0
C2100 C 0.86587 0.81544 0.54308 0.0
C2101 C 0.85072 0.80464 0.54137 0.0
C2102 C 0.83827 0.8081 0.52788 0.0
C2103 C 0.84098 0.82231 0.51602 0.0
H2104 H 0.84861 0.79363 0.55053 0.0
H2105 H 0.87394 0.93209 0.43588 0.0
H2106 H 0.93255 0.16477 0.4966 0.0
H2107 H 0.90714 0.14443 0.49499 0.0
H2108 H 0.87183 0.18901 0.48533 0.0
H2109 H 0.89733 0.20955 0.4869 0.0
H2110 H 0.85797 0.16626 0.50969 0.0
H2111 H 0.88255 0.16153 0.45136 0.0
H2112 H 0.90605 0.15778 0.42855 0.0
H2113 H 0.91734 0.10511 0.44845 0.0
H2114 H 0.89408 0.10864 0.47156 0.0
H2115 H 0.78786 0.10324 0.48843 0.0
H2116 H 0.80937 0.12792 0.48581 0.0
H2117 H 0.85218 0.09206 0.50021 0.0
H2118 H 0.83085 0.06743 0.50274 0.0
H2119 H 0.85954 0.11304 0.47007 0.0
H2120 H 0.83666 0.11987 0.53042 0.0
H2121 H 0.81288 0.12407 0.55287 0.0
H2122 H 0.79768 0.1735 0.52791 0.0
H2123 H 0.82123 0.16946 0.50514 0.0
C2124 C 0.91942 0.17025 0.49391 0.0
C2125 C 0.91696 0.18875 0.49171 0.0
C2126 C 0.9049 0.15861 0.49302 0.0
C2127 C 0.88765 0.16519 0.48976 0.0
C2128 C 0.88506 0.18367 0.4878 0.0
C2129 C 0.89961 0.19537 0.48874 0.0
C2130 C 0.87238 0.15264 0.48877 0.0
C2131 C 0.85812 0.15482 0.50077 0.0
C2132 C 0.87267 0.13765 0.47722 0.0
C2133 C 0.88664 0.13541 0.46328 0.0
C2134 C 0.89013 0.1492 0.45096 0.0
C2135 C 0.90339 0.1471 0.43796 0.0
C2136 C 0.9132 0.13123 0.43707 0.0
C2137 C 0.90973 0.1174 0.44916 0.0
C2138 C 0.89649 0.11943 0.4622 0.0
C2139 C 0.80187 0.10067 0.49101 0.0
C2140 C 0.80771 0.08348 0.49588 0.0
C2141 C 0.81409 0.11475 0.48958 0.0
C2142 C 0.83231 0.11176 0.49287 0.0
C2143 C 0.83816 0.09459 0.49762 0.0
C2144 C 0.82596 0.08059 0.49921 0.0
C2145 C 0.84547 0.12641 0.49132 0.0
C2146 C 0.85929 0.12464 0.47879 0.0
C2147 C 0.84468 0.14181 0.50226 0.0
C2148 C 0.83055 0.14425 0.51595 0.0
C2149 C 0.82814 0.13155 0.52962 0.0
C2150 C 0.81473 0.13392 0.54242 0.0
C2151 C 0.80373 0.14901 0.54178 0.0
C2152 C 0.80617 0.16179 0.52836 0.0
C2153 C 0.81955 0.15948 0.51551 0.0
H2154 H 0.79336 0.15082 0.55171 0.0
H2155 H 0.92347 0.12963 0.42699 0.0
H2156 H 0.09843 0.78591 0.48732 0.0
H2157 H 0.12386 0.80654 0.48611 0.0
H2158 H 0.08957 0.84987 0.50265 0.0
H2159 H 0.06422 0.82939 0.50406 0.0
H2160 H 0.11023 0.8591 0.47438 0.0
H2161 H 0.11805 0.83029 0.53181 0.0
H2162 H 0.12191 0.80446 0.55196 0.0
H2163 H 0.16989 0.78961 0.52415 0.0
H2164 H 0.16617 0.81523 0.50368 0.0
H2165 H 0.16597 0.92672 0.50641 0.0
H2166 H 0.14473 0.90208 0.50405 0.0
H2167 H 0.18682 0.86722 0.48564 0.0
H2168 H 0.20836 0.89188 0.48829 0.0
H2169 H 0.16478 0.8514 0.51134 0.0
H2170 H 0.15855 0.88224 0.45592 0.0
H2171 H 0.15479 0.90839 0.4362 0.0
H2172 H 0.10385 0.91951 0.46019 0.0
H2173 H 0.10742 0.89357 0.48026 0.0
C2174 C 0.09637 0.7998 0.49086 0.0
C2175 C 0.07931 0.80605 0.49572 0.0
C2176 C 0.11088 0.81156 0.49012 0.0
C2177 C 0.10857 0.8297 0.49433 0.0
C2178 C 0.09159 0.83593 0.49923 0.0
C2179 C 0.07711 0.82423 0.49997 0.0
C2180 C 0.12373 0.84238 0.49356 0.0
C2181 C 0.12211 0.85748 0.48254 0.0
C2182 C 0.13946 0.83992 0.50377 0.0
C2183 C 0.14172 0.82454 0.51608 0.0
C2184 C 0.12934 0.82142 0.52989 0.0
C2185 C 0.13152 0.80684 0.54139 0.0
C2186 C 0.1461 0.79536 0.5393 0.0
C2187 C 0.15857 0.79848 0.52573 0.0
C2188 C 0.15644 0.81304 0.51419 0.0
C2189 C 0.17077 0.91377 0.50204 0.0
C2190 C 0.18882 0.9112 0.49756 0.0
C2191 C 0.15859 0.89975 0.50055 0.0
C2192 C 0.1642 0.88292 0.49447 0.0
C2193 C 0.18226 0.88017 0.49027 0.0
C2194 C 0.19448 0.89425 0.49169 0.0
C2195 C 0.151 0.86834 0.49255 0.0
C2196 C 0.15301 0.85288 0.50299 0.0
C2197 C 0.13559 0.87045 0.48181 0.0
C2198 C 0.13332 0.88601 0.46968 0.0
C2199 C 0.1466 0.89033 0.45708 0.0
C2200 C 0.1445 0.90511 0.44583 0.0
C2201 C 0.12911 0.91562 0.44696 0.0
C2202 C 0.11577 0.91135 0.45933 0.0
C2203 C 0.11782 0.8966 0.47064 0.0
H2204 H 0.1275 0.92706 0.43824 0.0
H2205 H 0.14777 0.78408 0.54822 0.0
H2206 H 0.06073 0.16086 0.51301 0.0
H2207 H 0.0851 0.13918 0.51434 0.0
H2208 H 0.12293 0.18072 0.50117 0.0
H2209 H 0.0985 0.20243 0.49932 0.0
H2210 H 0.12848 0.15089 0.48157 0.0
H2211 H 0.12074 0.16503 0.54325 0.0
H2212 H 0.10416 0.16961 0.57138 0.0
H2213 H 0.08794 0.11452 0.57116 0.0
H2214 H 0.10421 0.10966 0.54287 0.0
H2215 H 0.20327 0.09465 0.49959 0.0
H2216 H 0.18204 0.11951 0.50119 0.0
H2217 H 0.13945 0.08242 0.51301 0.0
H2218 H 0.16065 0.05757 0.51186 0.0
H2219 H 0.13834 0.112 0.53445 0.0
H2220 H 0.14428 0.09879 0.4715 0.0
H2221 H 0.16088 0.09436 0.44335 0.0
H2222 H 0.18074 0.14817 0.44625 0.0
H2223 H 0.16444 0.15283 0.47457 0.0
C2224 C 0.07422 0.16536 0.5103 0.0
C2225 C 0.07771 0.18334 0.50604 0.0
C2226 C 0.08815 0.15301 0.51125 0.0
C2227 C 0.10583 0.15841 0.50806 0.0
C2228 C 0.10937 0.17633 0.50377 0.0
C2229 C 0.09544 0.18871 0.50284 0.0
C2230 C 0.12049 0.14515 0.50866 0.0
C2231 C 0.13087 0.14261 0.49325 0.0
C2232 C 0.12336 0.13418 0.5238 0.0
C2233 C 0.11358 0.13702 0.54085 0.0
C2234 C 0.11352 0.15392 0.54912 0.0
C2235 C 0.1042 0.15656 0.56511 0.0
C2236 C 0.09497 0.14238 0.57303 0.0
C2237 C 0.09508 0.1255 0.565 0.0
C2238 C 0.10437 0.12279 0.549 0.0
C2239 C 0.18941 0.09182 0.50269 0.0
C2240 C 0.18358 0.07417 0.50551 0.0
C2241 C 0.1773 0.10601 0.50348 0.0
C2242 C 0.15918 0.10275 0.50706 0.0
C2243 C 0.15339 0.08518 0.51019 0.0
C2244 C 0.16547 0.071 0.50937 0.0
C2245 C 0.14612 0.11758 0.50728 0.0
C2246 C 0.13605 0.12042 0.52285 0.0
C2247 C 0.14356 0.12886 0.49231 0.0
C2248 C 0.15331 0.12609 0.47525 0.0
C2249 C 0.15231 0.10963 0.46621 0.0
C2250 C 0.16164 0.10708 0.45021 0.0
C2251 C 0.1719 0.12096 0.44304 0.0
C2252 C 0.17281 0.13743 0.45184 0.0
C2253 C 0.16353 0.14003 0.46786 0.0
H2254 H 0.17912 0.11897 0.43065 0.0
H2255 H 0.08776 0.14445 0.58541 0.0
loop_
_geom_bond_atom_site_label_1
_geom_bond_atom_site_label_2
_geom_bond_distance
_geom_bond_site_symmetry_2
_ccdc_geom_bond_type
Li0 N17 1.990 . S
Li0 O60 1.956 . S
Li0 O61 1.971 . S
Li0 O62 1.950 1_655 S
Li1 N25 1.991 . S
Li1 O60 1.955 1_455 S
Li1 O61 1.956 1_455 S
Li1 O63 1.976 . S
Li2 N47 1.990 . S
Li2 O60 1.966 . S
Li2 O62 1.956 1_655 S
Li2 O63 1.965 1_655 S
Li3 N53 1.990 . S
Li3 O61 1.960 1_455 S
Li3 O62 1.981 . S
Li3 O63 1.956 . S
C4 C6 1.348 . S
C4 C7 1.356 . S
C4 O60 1.325 . S
N5 C8 1.314 . S
N5 C9 1.279 . S
C6 C4 1.348 . S
C6 C8 1.353 . S
C6 H64 0.929 . S
C7 C4 1.356 . S
C7 C9 1.358 . S
C7 H65 0.930 . S
C8 N5 1.314 . S
C8 C6 1.353 . S
C8 H66 0.930 . S
C9 N5 1.279 . S
C9 C7 1.358 . S
C9 H67 0.930 . S
C10 C13 1.345 1_455 S
C10 C14 1.359 . S
C10 O61 1.325 1_455 S
C11 N12 1.327 . S
C11 C14 1.358 . S
C11 H68 0.930 . S
N12 C11 1.327 . S
N12 C15 1.267 1_455 S
C13 C10 1.345 1_655 S
C13 C15 1.353 . S
C13 H69 0.929 . S
C14 C10 1.359 . S
C14 C11 1.358 . S
C14 H70 0.930 . S
C15 N12 1.267 1_655 S
C15 C13 1.353 . S
C15 H71 0.930 . S
C16 N17 1.314 . S
C16 C21 1.353 . S
C16 H22 0.930 . S
N17 Li0 1.990 . S
N17 C16 1.314 . S
N17 C19 1.279 . S
C18 C19 1.358 . S
C18 C20 1.356 . S
C18 H72 0.930 . S
C19 N17 1.279 . S
C19 C18 1.358 . S
C19 H23 0.930 . S
C20 C18 1.356 . S
C20 C21 1.348 . S
C21 C16 1.353 . S
C21 C20 1.348 . S
C21 H73 0.929 . S
H22 C16 0.930 . S
H23 C19 0.930 . S
C24 N25 1.314 . S
C24 C26 1.353 . S
C24 H30 0.930 . S
N25 Li1 1.991 . S
N25 C24 1.314 . S
N25 C28 1.279 1_455 S
C26 C24 1.353 . S
C26 C29 1.346 . S
C26 H74 0.929 . S
C27 C28 1.358 . S
C27 C29 1.357 1_655 S
C27 H75 0.930 . S
C28 N25 1.279 1_655 S
C28 C27 1.358 . S
C28 H31 0.930 . S
C29 C26 1.346 . S
C29 C27 1.357 1_455 S
H30 C24 0.930 . S
H31 C28 0.930 . S
C32 C34 1.345 . S
C32 C35 1.359 1_455 S
C32 O62 1.325 . S
N33 C36 1.279 1_655 S
N33 C37 1.315 . S
C34 C32 1.345 . S
C34 C36 1.353 . S
C34 H76 0.929 . S
C35 C32 1.359 1_655 S
C35 C37 1.358 . S
C35 H77 0.930 . S
C36 N33 1.279 1_455 S
C36 C34 1.353 . S
C36 H78 0.930 . S
C37 N33 1.315 . S
C37 C35 1.358 . S
C37 H79 0.930 . S
C38 C39 1.348 . S
C38 C40 1.356 . S
C38 O63 1.325 . S
C39 C38 1.348 . S
C39 C41 1.353 . S
C39 H80 0.929 . S
C40 C38 1.356 . S
C40 C42 1.358 . S
C40 H81 0.930 . S
C41 C39 1.353 . S
C41 N43 1.314 . S
C41 H82 0.930 . S
C42 C40 1.358 . S
C42 N43 1.279 . S
C42 H83 0.930 . S
N43 C41 1.314 . S
N43 C42 1.279 . S
C44 C46 1.353 . S
C44 N47 1.314 . S
C44 H50 0.930 . S
C45 N47 1.279 1_455 S
C45 C48 1.358 . S
C45 H51 0.930 . S
C46 C44 1.353 . S
C46 C49 1.346 1_655 S
C46 H84 0.929 . S
N47 Li2 1.990 . S
N47 C44 1.314 . S
N47 C45 1.279 1_655 S
C48 C45 1.358 . S
C48 C49 1.357 . S
C48 H85 0.930 . S
C49 C46 1.346 1_455 S
C49 C48 1.357 . S
H50 C44 0.930 . S
H51 C45 0.930 . S
C52 N53 1.314 . S
C52 C54 1.353 . S
C52 H58 0.930 . S
N53 Li3 1.990 . S
N53 C52 1.314 . S
N53 C56 1.279 . S
C54 C52 1.353 . S
C54 C57 1.348 . S
C54 H86 0.929 . S
C55 C56 1.358 . S
C55 C57 1.356 . S
C55 H87 0.930 . S
C56 N53 1.279 . S
C56 C55 1.358 . S
C56 H59 0.930 . S
C57 C54 1.348 . S
C57 C55 1.356 . S
H58 C52 0.930 . S
H59 C56 0.930 . S
O60 Li0 1.956 . S
O60 Li1 1.955 1_655 S
O60 Li2 1.966 . S
O60 C4 1.325 . S
O61 Li0 1.971 . S
O61 Li1 1.956 1_655 S
O61 Li3 1.960 1_655 S
O61 C10 1.325 1_655 S
O62 Li0 1.950 1_455 S
O62 Li2 1.956 1_455 S
O62 Li3 1.981 . S
O62 C32 1.325 . S
O63 Li1 1.976 . S
O63 Li2 1.965 1_455 S
O63 Li3 1.956 . S
O63 C38 1.325 . S
H64 C6 0.929 . S
H65 C7 0.930 . S
H66 C8 0.930 . S
H67 C9 0.930 . S
H68 C11 0.930 . S
H69 C13 0.929 . S
H70 C14 0.930 . S
H71 C15 0.930 . S
H72 C18 0.930 . S
H73 C21 0.929 . S
H74 C26 0.929 . S
H75 C27 0.930 . S
H76 C34 0.929 . S
H77 C35 0.930 . S
H78 C36 0.930 . S
H79 C37 0.930 . S
H80 C39 0.929 . S
H81 C40 0.930 . S
H82 C41 0.930 . S
H83 C42 0.930 . S
H84 C46 0.929 . S
H85 C48 0.930 . S
H86 C54 0.929 . S
H87 C55 0.930 . S
Li88 N105 1.991 . S
Li88 O148 1.956 1_545 S
Li88 O149 1.955 1_545 S
Li88 O150 1.976 . S
Li89 N113 1.990 . S
Li89 O148 1.971 . S
Li89 O149 1.956 . S
Li89 O151 1.950 1_565 S
Li90 N135 1.990 . S
Li90 O148 1.960 1_545 S
Li90 O150 1.956 . S
Li90 O151 1.981 . S
Li91 N141 1.990 . S
Li91 O149 1.966 . S
Li91 O150 1.965 1_565 S
Li91 O151 1.956 1_565 S
C92 C94 1.345 1_545 S
C92 C95 1.359 . S
C92 O148 1.325 1_545 S
N93 C96 1.267 1_545 S
N93 C97 1.327 . S
C94 C92 1.345 1_565 S
C94 C96 1.353 . S
C94 H152 0.929 . S
C95 C92 1.359 . S
C95 C97 1.358 . S
C95 H153 0.930 . S
C96 N93 1.267 1_565 S
C96 C94 1.353 . S
C96 H154 0.930 . S
C97 N93 1.327 . S
C97 C95 1.358 . S
C97 H155 0.930 . S
C98 C101 1.348 . S
C98 C102 1.356 . S
C98 O149 1.325 . S
C99 N100 1.279 . S
C99 C102 1.358 . S
C99 H156 0.930 . S
N100 C99 1.279 . S
N100 C103 1.314 . S
C101 C98 1.348 . S
C101 C103 1.353 . S
C101 H157 0.929 . S
C102 C98 1.356 . S
C102 C99 1.358 . S
C102 H158 0.930 . S
C103 N100 1.314 . S
C103 C101 1.353 . S
C103 H159 0.930 . S
C104 N105 1.314 . S
C104 C109 1.353 . S
C104 H110 0.930 . S
N105 Li88 1.991 . S
N105 C104 1.314 . S
N105 C107 1.279 1_545 S
C106 C107 1.358 . S
C106 C108 1.357 1_565 S
C106 H160 0.930 . S
C107 N105 1.279 1_565 S
C107 C106 1.358 . S
C107 H111 0.930 . S
C108 C106 1.357 1_545 S
C108 C109 1.346 . S
C109 C104 1.353 . S
C109 C108 1.346 . S
C109 H161 0.929 . S
H110 C104 0.930 . S
H111 C107 0.930 . S
C112 N113 1.314 . S
C112 C114 1.353 . S
C112 H118 0.930 . S
N113 Li89 1.990 . S
N113 C112 1.314 . S
N113 C116 1.279 . S
C114 C112 1.353 . S
C114 C117 1.348 . S
C114 H162 0.929 . S
C115 C116 1.358 . S
C115 C117 1.356 . S
C115 H163 0.930 . S
C116 N113 1.279 . S
C116 C115 1.358 . S
C116 H119 0.930 . S
C117 C114 1.348 . S
C117 C115 1.356 . S
H118 C112 0.930 . S
H119 C116 0.930 . S
C120 C122 1.348 . S
C120 C123 1.356 . S
C120 O150 1.325 . S
N121 C124 1.314 . S
N121 C125 1.279 . S
C122 C120 1.348 . S
C122 C124 1.353 . S
C122 H164 0.929 . S
C123 C120 1.356 . S
C123 C125 1.358 . S
C123 H165 0.930 . S
C124 N121 1.314 . S
C124 C122 1.353 . S
C124 H166 0.930 . S
C125 N121 1.279 . S
C125 C123 1.358 . S
C125 H167 0.930 . S
C126 C127 1.345 . S
C126 C128 1.359 1_545 S
C126 O151 1.325 . S
C127 C126 1.345 . S
C127 C129 1.353 . S
C127 H168 0.929 . S
C128 C126 1.359 1_565 S
C128 C130 1.358 . S
C128 H169 0.930 . S
C129 C127 1.353 . S
C129 N131 1.279 1_545 S
C129 H170 0.930 . S
C130 C128 1.358 . S
C130 N131 1.315 . S
C130 H171 0.930 . S
N131 C129 1.279 1_565 S
N131 C130 1.315 . S
C132 C134 1.353 . S
C132 N135 1.314 . S
C132 H138 0.930 . S
C133 N135 1.279 . S
C133 C136 1.358 . S
C133 H139 0.930 . S
C134 C132 1.353 . S
C134 C137 1.348 . S
C134 H172 0.929 . S
N135 Li90 1.990 . S
N135 C132 1.314 . S
N135 C133 1.279 . S
C136 C133 1.358 . S
C136 C137 1.356 . S
C136 H173 0.930 . S
C137 C134 1.348 . S
C137 C136 1.356 . S
H138 C132 0.930 . S
H139 C133 0.930 . S
C140 N141 1.314 . S
C140 C142 1.353 . S
C140 H146 0.930 . S
N141 Li91 1.990 . S
N141 C140 1.314 . S
N141 C144 1.279 1_565 S
C142 C140 1.353 . S
C142 C145 1.346 1_565 S
C142 H174 0.929 . S
C143 C144 1.358 . S
C143 C145 1.357 . S
C143 H175 0.930 . S
C144 N141 1.279 1_545 S
C144 C143 1.358 . S
C144 H147 0.930 . S
C145 C142 1.346 1_545 S
C145 C143 1.357 . S
H146 C140 0.930 . S
H147 C144 0.930 . S
O148 Li88 1.956 1_565 S
O148 Li89 1.971 . S
O148 Li90 1.960 1_565 S
O148 C92 1.325 1_565 S
O149 Li88 1.955 1_565 S
O149 Li89 1.956 . S
O149 Li91 1.966 . S
O149 C98 1.325 . S
O150 Li88 1.976 . S
O150 Li90 1.956 . S
O150 Li91 1.965 1_545 S
O150 C120 1.325 . S
O151 Li89 1.950 1_545 S
O151 Li90 1.981 . S
O151 Li91 1.956 1_545 S
O151 C126 1.325 . S
H152 C94 0.929 . S
H153 C95 0.930 . S
H154 C96 0.930 . S
H155 C97 0.930 . S
H156 C99 0.930 . S
H157 C101 0.929 . S
H158 C102 0.930 . S
H159 C103 0.930 . S
H160 C106 0.930 . S
H161 C109 0.929 . S
H162 C114 0.929 . S
H163 C115 0.930 . S
H164 C122 0.929 . S
H165 C123 0.930 . S
H166 C124 0.930 . S
H167 C125 0.930 . S
H168 C127 0.929 . S
H169 C128 0.930 . S
H170 C129 0.930 . S
H171 C130 0.930 . S
H172 C134 0.929 . S
H173 C136 0.930 . S
H174 C142 0.929 . S
H175 C143 0.930 . S
Li176 N193 1.990 . S
Li176 O236 1.956 . S
Li176 O237 1.981 . S
Li176 O238 1.960 1_455 S
Li177 N201 1.990 . S
Li177 O236 1.965 1_655 S
Li177 O237 1.956 1_655 S
Li177 O239 1.966 . S
Li178 N223 1.991 . S
Li178 O236 1.976 . S
Li178 O238 1.956 1_455 S
Li178 O239 1.955 1_455 S
Li179 N229 1.990 . S
Li179 O237 1.950 1_655 S
Li179 O238 1.971 . S
Li179 O239 1.956 . S
C180 C182 1.348 . S
C180 C183 1.356 . S
C180 O236 1.325 . S
N181 C184 1.314 . S
N181 C185 1.279 . S
C182 C180 1.348 . S
C182 C184 1.353 . S
C182 H240 0.929 . S
C183 C180 1.356 . S
C183 C185 1.358 . S
C183 H241 0.930 . S
C184 N181 1.314 . S
C184 C182 1.353 . S
C184 H242 0.930 . S
C185 N181 1.279 . S
C185 C183 1.358 . S
C185 H243 0.930 . S
C186 C189 1.345 . S
C186 C190 1.359 1_455 S
C186 O237 1.325 . S
C187 N188 1.314 . S
C187 C190 1.358 . S
C187 H244 0.930 . S
N188 C187 1.314 . S
N188 C191 1.279 1_655 S
C189 C186 1.345 . S
C189 C191 1.353 . S
C189 H245 0.929 . S
C190 C186 1.359 1_655 S
C190 C187 1.358 . S
C190 H246 0.930 . S
C191 N188 1.279 1_455 S
C191 C189 1.353 . S
C191 H247 0.930 . S
C192 N193 1.314 . S
C192 C197 1.353 . S
C192 H198 0.930 . S
N193 Li176 1.990 . S
N193 C192 1.314 . S
N193 C195 1.279 . S
C194 C195 1.358 . S
C194 C196 1.356 . S
C194 H248 0.930 . S
C195 N193 1.279 . S
C195 C194 1.358 . S
C195 H199 0.930 . S
C196 C194 1.356 . S
C196 C197 1.348 . S
C197 C192 1.353 . S
C197 C196 1.348 . S
C197 H249 0.929 . S
H198 C192 0.930 . S
H199 C195 0.930 . S
C200 N201 1.314 . S
C200 C202 1.353 . S
C200 H206 0.930 . S
N201 Li177 1.990 . S
N201 C200 1.314 . S
N201 C204 1.279 1_655 S
C202 C200 1.353 . S
C202 C205 1.346 1_655 S
C202 H250 0.929 . S
C203 C204 1.358 . S
C203 C205 1.357 . S
C203 H251 0.930 . S
C204 N201 1.279 1_455 S
C204 C203 1.358 . S
C204 H207 0.930 . S
C205 C202 1.346 1_455 S
C205 C203 1.357 . S
H206 C200 0.930 . S
H207 C204 0.930 . S
C208 C210 1.345 1_455 S
C208 C211 1.359 . S
C208 O238 1.325 1_455 S
N209 C212 1.267 1_455 S
N209 C213 1.327 . S
C210 C208 1.345 1_655 S
C210 C212 1.353 . S
C210 H252 0.929 . S
C211 C208 1.359 . S
C211 C213 1.358 . S
C211 H253 0.930 . S
C212 N209 1.267 1_655 S
C212 C210 1.353 . S
C212 H254 0.930 . S
C213 N209 1.327 . S
C213 C211 1.358 . S
C213 H255 0.930 . S
C214 C215 1.348 . S
C214 C216 1.356 . S
C214 O239 1.325 . S
C215 C214 1.348 . S
C215 C217 1.353 . S
C215 H256 0.929 . S
C216 C214 1.356 . S
C216 C218 1.358 . S
C216 H257 0.930 . S
C217 C215 1.353 . S
C217 N219 1.314 . S
C217 H258 0.930 . S
C218 C216 1.358 . S
C218 N219 1.279 . S
C218 H259 0.930 . S
N219 C217 1.314 . S
N219 C218 1.279 . S
C220 C222 1.353 . S
C220 N223 1.314 . S
C220 H226 0.930 . S
C221 N223 1.279 1_655 S
C221 C224 1.358 . S
C221 H227 0.930 . S
C222 C220 1.353 . S
C222 C225 1.346 . S
C222 H260 0.929 . S
N223 Li178 1.991 . S
N223 C220 1.314 . S
N223 C221 1.279 1_455 S
C224 C221 1.358 . S
C224 C225 1.357 1_655 S
C224 H261 0.930 . S
C225 C222 1.346 . S
C225 C224 1.357 1_455 S
H226 C220 0.930 . S
H227 C221 0.930 . S
C228 N229 1.314 . S
C228 C230 1.353 . S
C228 H234 0.930 . S
N229 Li179 1.990 . S
N229 C228 1.314 . S
N229 C232 1.279 . S
C230 C228 1.353 . S
C230 C233 1.348 . S
C230 H262 0.929 . S
C231 C232 1.358 . S
C231 C233 1.356 . S
C231 H263 0.930 . S
C232 N229 1.279 . S
C232 C231 1.358 . S
C232 H235 0.930 . S
C233 C230 1.348 . S
C233 C231 1.356 . S
H234 C228 0.930 . S
H235 C232 0.930 . S
O236 Li176 1.956 . S
O236 Li177 1.965 1_455 S
O236 Li178 1.976 . S
O236 C180 1.325 . S
O237 Li176 1.981 . S
O237 Li177 1.956 1_455 S
O237 Li179 1.950 1_455 S
O237 C186 1.325 . S
O238 Li176 1.960 1_655 S
O238 Li178 1.956 1_655 S
O238 Li179 1.971 . S
O238 C208 1.325 1_655 S
O239 Li177 1.966 . S
O239 Li178 1.955 1_655 S
O239 Li179 1.956 . S
O239 C214 1.325 . S
H240 C182 0.929 . S
H241 C183 0.930 . S
H242 C184 0.930 . S
H243 C185 0.930 . S
H244 C187 0.930 . S
H245 C189 0.929 . S
H246 C190 0.930 . S
H247 C191 0.930 . S
H248 C194 0.930 . S
H249 C197 0.929 . S
H250 C202 0.929 . S
H251 C203 0.930 . S
H252 C210 0.929 . S
H253 C211 0.930 . S
H254 C212 0.930 . S
H255 C213 0.930 . S
H256 C215 0.929 . S
H257 C216 0.930 . S
H258 C217 0.930 . S
H259 C218 0.930 . S
H260 C222 0.929 . S
H261 C224 0.930 . S
H262 C230 0.929 . S
H263 C231 0.930 . S
Li264 N281 1.990 . S
Li264 O324 1.956 . S
Li264 O325 1.981 . S
Li264 O326 1.960 1_545 S
Li265 N289 1.990 . S
Li265 O324 1.965 1_565 S
Li265 O325 1.956 1_565 S
Li265 O327 1.966 . S
Li266 N311 1.991 . S
Li266 O324 1.976 . S
Li266 O326 1.956 1_545 S
Li266 O327 1.955 1_545 S
Li267 N317 1.990 . S
Li267 O325 1.950 1_565 S
Li267 O326 1.971 . S
Li267 O327 1.956 . S
C268 C270 1.348 . S
C268 C271 1.356 . S
C268 O324 1.325 . S
N269 C272 1.314 . S
N269 C273 1.279 . S
C270 C268 1.348 . S
C270 C272 1.353 . S
C270 H328 0.929 . S
C271 C268 1.356 . S
C271 C273 1.358 . S
C271 H329 0.930 . S
C272 N269 1.314 . S
C272 C270 1.353 . S
C272 H330 0.930 . S
C273 N269 1.279 . S
C273 C271 1.358 . S
C273 H331 0.930 . S
C274 C277 1.345 . S
C274 C278 1.359 1_545 S
C274 O325 1.325 . S
C275 N276 1.315 . S
C275 C278 1.358 . S
C275 H332 0.930 . S
N276 C275 1.315 . S
N276 C279 1.279 1_565 S
C277 C274 1.345 . S
C277 C279 1.353 . S
C277 H333 0.929 . S
C278 C274 1.359 1_565 S
C278 C275 1.358 . S
C278 H334 0.930 . S
C279 N276 1.279 1_545 S
C279 C277 1.353 . S
C279 H335 0.930 . S
C280 N281 1.314 . S
C280 C285 1.353 . S
C280 H286 0.930 . S
N281 Li264 1.990 . S
N281 C280 1.314 . S
N281 C283 1.279 . S
C282 C283 1.358 . S
C282 C284 1.356 . S
C282 H336 0.930 . S
C283 N281 1.279 . S
C283 C282 1.358 . S
C283 H287 0.930 . S
C284 C282 1.356 . S
C284 C285 1.348 . S
C285 C280 1.353 . S
C285 C284 1.348 . S
C285 H337 0.929 . S
H286 C280 0.930 . S
H287 C283 0.930 . S
C288 N289 1.314 . S
C288 C290 1.353 . S
C288 H294 0.930 . S
N289 Li265 1.990 . S
N289 C288 1.314 . S
N289 C292 1.279 1_565 S
C290 C288 1.353 . S
C290 C293 1.346 1_565 S
C290 H338 0.929 . S
C291 C292 1.358 . S
C291 C293 1.357 . S
C291 H339 0.930 . S
C292 N289 1.279 1_545 S
C292 C291 1.358 . S
C292 H295 0.930 . S
C293 C290 1.346 1_545 S
C293 C291 1.357 . S
H294 C288 0.930 . S
H295 C292 0.930 . S
C296 C298 1.345 1_545 S
C296 C299 1.359 . S
C296 O326 1.325 1_545 S
N297 C300 1.267 1_545 S
N297 C301 1.327 . S
C298 C296 1.345 1_565 S
C298 C300 1.353 . S
C298 H340 0.929 . S
C299 C296 1.359 . S
C299 C301 1.358 . S
C299 H341 0.930 . S
C300 N297 1.267 1_565 S
C300 C298 1.353 . S
C300 H342 0.930 . S
C301 N297 1.327 . S
C301 C299 1.358 . S
C301 H343 0.930 . S
C302 C303 1.348 . S
C302 C304 1.356 . S
C302 O327 1.325 . S
C303 C302 1.348 . S
C303 C305 1.353 . S
C303 H344 0.929 . S
C304 C302 1.356 . S
C304 C306 1.358 . S
C304 H345 0.930 . S
C305 C303 1.353 . S
C305 N307 1.314 . S
C305 H346 0.930 . S
C306 C304 1.358 . S
C306 N307 1.279 . S
C306 H347 0.930 . S
N307 C305 1.314 . S
N307 C306 1.279 . S
C308 C310 1.353 . S
C308 N311 1.314 . S
C308 H314 0.930 . S
C309 N311 1.279 1_565 S
C309 C312 1.358 . S
C309 H315 0.930 . S
C310 C308 1.353 . S
C310 C313 1.346 . S
C310 H348 0.929 . S
N311 Li266 1.991 . S
N311 C308 1.314 . S
N311 C309 1.279 1_545 S
C312 C309 1.358 . S
C312 C313 1.357 1_565 S
C312 H349 0.930 . S
C313 C310 1.346 . S
C313 C312 1.357 1_545 S
H314 C308 0.930 . S
H315 C309 0.930 . S
C316 N317 1.314 . S
C316 C318 1.353 . S
C316 H322 0.930 . S
N317 Li267 1.990 . S
N317 C316 1.314 . S
N317 C320 1.279 . S
C318 C316 1.353 . S
C318 C321 1.348 . S
C318 H350 0.929 . S
C319 C320 1.358 . S
C319 C321 1.356 . S
C319 H351 0.930 . S
C320 N317 1.279 . S
C320 C319 1.358 . S
C320 H323 0.930 . S
C321 C318 1.348 . S
C321 C319 1.356 . S
H322 C316 0.930 . S
H323 C320 0.930 . S
O324 Li264 1.956 . S
O324 Li265 1.965 1_545 S
O324 Li266 1.976 . S
O324 C268 1.325 . S
O325 Li264 1.981 . S
O325 Li265 1.956 1_545 S
O325 Li267 1.950 1_545 S
O325 C274 1.325 . S
O326 Li264 1.960 1_565 S
O326 Li266 1.956 1_565 S
O326 Li267 1.971 . S
O326 C296 1.325 1_565 S
O327 Li265 1.966 . S
O327 Li266 1.955 1_565 S
O327 Li267 1.956 . S
O327 C302 1.325 . S
H328 C270 0.929 . S
H329 C271 0.930 . S
H330 C272 0.930 . S
H331 C273 0.930 . S
H332 C275 0.930 . S
H333 C277 0.929 . S
H334 C278 0.930 . S
H335 C279 0.930 . S
H336 C282 0.930 . S
H337 C285 0.929 . S
H338 C290 0.929 . S
H339 C291 0.930 . S
H340 C298 0.929 . S
H341 C299 0.930 . S
H342 C300 0.930 . S
H343 C301 0.930 . S
H344 C303 0.929 . S
H345 C304 0.930 . S
H346 C305 0.930 . S
H347 C306 0.930 . S
H348 C310 0.929 . S
H349 C312 0.930 . S
H350 C318 0.929 . S
H351 C319 0.930 . S
Li352 N369 1.990 . S
Li352 O412 1.956 . S
Li352 O413 1.981 . S
Li352 O414 1.960 1_545 S
Li353 N377 1.990 . S
Li353 O412 1.965 1_565 S
Li353 O413 1.956 1_565 S
Li353 O415 1.966 . S
Li354 N399 1.991 . S
Li354 O412 1.976 . S
Li354 O414 1.956 1_545 S
Li354 O415 1.955 1_545 S
Li355 N405 1.990 . S
Li355 O413 1.950 1_565 S
Li355 O414 1.971 . S
Li355 O415 1.956 . S
C356 C358 1.348 . S
C356 C359 1.356 . S
C356 O412 1.325 . S
N357 C360 1.314 . S
N357 C361 1.279 . S
C358 C356 1.348 . S
C358 C360 1.353 . S
C358 H416 0.929 . S
C359 C356 1.356 . S
C359 C361 1.358 . S
C359 H417 0.930 . S
C360 N357 1.314 . S
C360 C358 1.353 . S
C360 H418 0.930 . S
C361 N357 1.279 . S
C361 C359 1.358 . S
C361 H419 0.930 . S
C362 C365 1.345 . S
C362 C366 1.359 1_545 S
C362 O413 1.325 . S
C363 N364 1.315 . S
C363 C366 1.358 . S
C363 H420 0.930 . S
N364 C363 1.315 . S
N364 C367 1.279 1_565 S
C365 C362 1.345 . S
C365 C367 1.353 . S
C365 H421 0.929 . S
C366 C362 1.359 1_565 S
C366 C363 1.358 . S
C366 H422 0.930 . S
C367 N364 1.279 1_545 S
C367 C365 1.353 . S
C367 H423 0.930 . S
C368 N369 1.314 . S
C368 C373 1.353 . S
C368 H374 0.930 . S
N369 Li352 1.990 . S
N369 C368 1.314 . S
N369 C371 1.279 . S
C370 C371 1.358 . S
C370 C372 1.356 . S
C370 H424 0.930 . S
C371 N369 1.279 . S
C371 C370 1.358 . S
C371 H375 0.930 . S
C372 C370 1.356 . S
C372 C373 1.348 . S
C373 C368 1.353 . S
C373 C372 1.348 . S
C373 H425 0.929 . S
H374 C368 0.930 . S
H375 C371 0.930 . S
C376 N377 1.314 . S
C376 C378 1.353 . S
C376 H382 0.930 . S
N377 Li353 1.990 . S
N377 C376 1.314 . S
N377 C380 1.279 1_565 S
C378 C376 1.353 . S
C378 C381 1.346 1_565 S
C378 H426 0.929 . S
C379 C380 1.358 . S
C379 C381 1.357 . S
C379 H427 0.930 . S
C380 N377 1.279 1_545 S
C380 C379 1.358 . S
C380 H383 0.930 . S
C381 C378 1.346 1_545 S
C381 C379 1.357 . S
H382 C376 0.930 . S
H383 C380 0.930 . S
C384 C386 1.345 1_545 S
C384 C387 1.359 . S
C384 O414 1.325 1_545 S
N385 C388 1.267 1_545 S
N385 C389 1.327 . S
C386 C384 1.345 1_565 S
C386 C388 1.353 . S
C386 H428 0.929 . S
C387 C384 1.359 . S
C387 C389 1.358 . S
C387 H429 0.930 . S
C388 N385 1.267 1_565 S
C388 C386 1.353 . S
C388 H430 0.930 . S
C389 N385 1.327 . S
C389 C387 1.358 . S
C389 H431 0.930 . S
C390 C391 1.348 . S
C390 C392 1.356 . S
C390 O415 1.325 . S
C391 C390 1.348 . S
C391 C393 1.353 . S
C391 H432 0.929 . S
C392 C390 1.356 . S
C392 C394 1.358 . S
C392 H433 0.930 . S
C393 C391 1.353 . S
C393 N395 1.314 . S
C393 H434 0.930 . S
C394 C392 1.358 . S
C394 N395 1.279 . S
C394 H435 0.930 . S
N395 C393 1.314 . S
N395 C394 1.279 . S
C396 C398 1.353 . S
C396 N399 1.314 . S
C396 H402 0.930 . S
C397 N399 1.279 1_565 S
C397 C400 1.358 . S
C397 H403 0.930 . S
C398 C396 1.353 . S
C398 C401 1.346 . S
C398 H436 0.929 . S
N399 Li354 1.991 . S
N399 C396 1.314 . S
N399 C397 1.279 1_545 S
C400 C397 1.358 . S
C400 C401 1.357 1_565 S
C400 H437 0.930 . S
C401 C398 1.346 . S
C401 C400 1.357 1_545 S
H402 C396 0.930 . S
H403 C397 0.930 . S
C404 N405 1.314 . S
C404 C406 1.353 . S
C404 H410 0.930 . S
N405 Li355 1.990 . S
N405 C404 1.314 . S
N405 C408 1.279 . S
C406 C404 1.353 . S
C406 C409 1.348 . S
C406 H438 0.929 . S
C407 C408 1.358 . S
C407 C409 1.356 . S
C407 H439 0.930 . S
C408 N405 1.279 . S
C408 C407 1.358 . S
C408 H411 0.930 . S
C409 C406 1.348 . S
C409 C407 1.356 . S
H410 C404 0.930 . S
H411 C408 0.930 . S
O412 Li352 1.956 . S
O412 Li353 1.965 1_545 S
O412 Li354 1.976 . S
O412 C356 1.325 . S
O413 Li352 1.981 . S
O413 Li353 1.956 1_545 S
O413 Li355 1.950 1_545 S
O413 C362 1.325 . S
O414 Li352 1.960 1_565 S
O414 Li354 1.956 1_565 S
O414 Li355 1.971 . S
O414 C384 1.325 1_565 S
O415 Li353 1.966 . S
O415 Li354 1.955 1_565 S
O415 Li355 1.956 . S
O415 C390 1.325 . S
H416 C358 0.929 . S
H417 C359 0.930 . S
H418 C360 0.930 . S
H419 C361 0.930 . S
H420 C363 0.930 . S
H421 C365 0.929 . S
H422 C366 0.930 . S
H423 C367 0.930 . S
H424 C370 0.930 . S
H425 C373 0.929 . S
H426 C378 0.929 . S
H427 C379 0.930 . S
H428 C386 0.929 . S
H429 C387 0.930 . S
H430 C388 0.930 . S
H431 C389 0.930 . S
H432 C391 0.929 . S
H433 C392 0.930 . S
H434 C393 0.930 . S
H435 C394 0.930 . S
H436 C398 0.929 . S
H437 C400 0.930 . S
H438 C406 0.929 . S
H439 C407 0.930 . S
Li440 N457 1.990 . S
Li440 O500 1.956 . S
Li440 O501 1.971 . S
Li440 O502 1.950 1_655 S
Li441 N465 1.991 . S
Li441 O500 1.955 1_455 S
Li441 O501 1.956 1_455 S
Li441 O503 1.976 . S
Li442 N487 1.990 . S
Li442 O500 1.966 . S
Li442 O502 1.956 1_655 S
Li442 O503 1.965 1_655 S
Li443 N493 1.990 . S
Li443 O501 1.960 1_455 S
Li443 O502 1.981 . S
Li443 O503 1.956 . S
C444 C446 1.348 . S
C444 C447 1.356 . S
C444 O500 1.325 . S
N445 C448 1.314 . S
N445 C449 1.279 . S
C446 C444 1.348 . S
C446 C448 1.353 . S
C446 H504 0.929 . S
C447 C444 1.356 . S
C447 C449 1.358 . S
C447 H505 0.930 . S
C448 N445 1.314 . S
C448 C446 1.353 . S
C448 H506 0.930 . S
C449 N445 1.279 . S
C449 C447 1.358 . S
C449 H507 0.930 . S
C450 C453 1.345 1_455 S
C450 C454 1.359 . S
C450 O501 1.325 1_455 S
C451 N452 1.326 . S
C451 C454 1.358 . S
C451 H508 0.930 . S
N452 C451 1.326 . S
N452 C455 1.267 1_455 S
C453 C450 1.345 1_655 S
C453 C455 1.353 . S
C453 H509 0.929 . S
C454 C450 1.359 . S
C454 C451 1.358 . S
C454 H510 0.930 . S
C455 N452 1.267 1_655 S
C455 C453 1.353 . S
C455 H511 0.930 . S
C456 N457 1.314 . S
C456 C461 1.353 . S
C456 H462 0.930 . S
N457 Li440 1.990 . S
N457 C456 1.314 . S
N457 C459 1.279 . S
C458 C459 1.358 . S
C458 C460 1.356 . S
C458 H512 0.930 . S
C459 N457 1.279 . S
C459 C458 1.358 . S
C459 H463 0.930 . S
C460 C458 1.356 . S
C460 C461 1.348 . S
C461 C456 1.353 . S
C461 C460 1.348 . S
C461 H513 0.929 . S
H462 C456 0.930 . S
H463 C459 0.930 . S
C464 N465 1.314 . S
C464 C466 1.353 . S
C464 H470 0.930 . S
N465 Li441 1.991 . S
N465 C464 1.314 . S
N465 C468 1.279 1_455 S
C466 C464 1.353 . S
C466 C469 1.346 . S
C466 H514 0.929 . S
C467 C468 1.358 . S
C467 C469 1.357 1_655 S
C467 H515 0.930 . S
C468 N465 1.279 1_655 S
C468 C467 1.358 . S
C468 H471 0.930 . S
C469 C466 1.346 . S
C469 C467 1.357 1_455 S
H470 C464 0.930 . S
H471 C468 0.930 . S
C472 C474 1.345 . S
C472 C475 1.359 1_455 S
C472 O502 1.325 . S
N473 C476 1.279 1_655 S
N473 C477 1.315 . S
C474 C472 1.345 . S
C474 C476 1.353 . S
C474 H516 0.929 . S
C475 C472 1.359 1_655 S
C475 C477 1.358 . S
C475 H517 0.930 . S
C476 N473 1.279 1_455 S
C476 C474 1.353 . S
C476 H518 0.930 . S
C477 N473 1.315 . S
C477 C475 1.358 . S
C477 H519 0.930 . S
C478 C479 1.348 . S
C478 C480 1.356 . S
C478 O503 1.325 . S
C479 C478 1.348 . S
C479 C481 1.353 . S
C479 H520 0.929 . S
C480 C478 1.356 . S
C480 C482 1.358 . S
C480 H521 0.930 . S
C481 C479 1.353 . S
C481 N483 1.314 . S
C481 H522 0.930 . S
C482 C480 1.358 . S
C482 N483 1.279 . S
C482 H523 0.930 . S
N483 C481 1.314 . S
N483 C482 1.279 . S
C484 C486 1.353 . S
C484 N487 1.314 . S
C484 H490 0.930 . S
C485 N487 1.279 1_455 S
C485 C488 1.358 . S
C485 H491 0.930 . S
C486 C484 1.353 . S
C486 C489 1.346 1_655 S
C486 H524 0.929 . S
N487 Li442 1.990 . S
N487 C484 1.314 . S
N487 C485 1.279 1_655 S
C488 C485 1.358 . S
C488 C489 1.357 . S
C488 H525 0.930 . S
C489 C486 1.346 1_455 S
C489 C488 1.357 . S
H490 C484 0.930 . S
H491 C485 0.930 . S
C492 N493 1.314 . S
C492 C494 1.353 . S
C492 H498 0.930 . S
N493 Li443 1.990 . S
N493 C492 1.314 . S
N493 C496 1.279 . S
C494 C492 1.353 . S
C494 C497 1.348 . S
C494 H526 0.929 . S
C495 C496 1.358 . S
C495 C497 1.356 . S
C495 H527 0.930 . S
C496 N493 1.279 . S
C496 C495 1.358 . S
C496 H499 0.930 . S
C497 C494 1.348 . S
C497 C495 1.356 . S
H498 C492 0.930 . S
H499 C496 0.930 . S
O500 Li440 1.956 . S
O500 Li441 1.955 1_655 S
O500 Li442 1.966 . S
O500 C444 1.325 . S
O501 Li440 1.971 . S
O501 Li441 1.956 1_655 S
O501 Li443 1.960 1_655 S
O501 C450 1.325 1_655 S
O502 Li440 1.950 1_455 S
O502 Li442 1.956 1_455 S
O502 Li443 1.981 . S
O502 C472 1.325 . S
O503 Li441 1.976 . S
O503 Li442 1.965 1_455 S
O503 Li443 1.956 . S
O503 C478 1.325 . S
H504 C446 0.929 . S
H505 C447 0.930 . S
H506 C448 0.930 . S
H507 C449 0.930 . S
H508 C451 0.930 . S
H509 C453 0.929 . S
H510 C454 0.930 . S
H511 C455 0.930 . S
H512 C458 0.930 . S
H513 C461 0.929 . S
H514 C466 0.929 . S
H515 C467 0.930 . S
H516 C474 0.929 . S
H517 C475 0.930 . S
H518 C476 0.930 . S
H519 C477 0.930 . S
H520 C479 0.929 . S
H521 C480 0.930 . S
H522 C481 0.930 . S
H523 C482 0.930 . S
H524 C486 0.929 . S
H525 C488 0.930 . S
H526 C494 0.929 . S
H527 C495 0.930 . S
Li528 N545 1.991 . S
Li528 O588 1.956 1_545 S
Li528 O589 1.955 1_545 S
Li528 O590 1.976 . S
Li529 N553 1.990 . S
Li529 O588 1.971 . S
Li529 O589 1.956 . S
Li529 O591 1.950 1_565 S
Li530 N575 1.990 . S
Li530 O588 1.960 1_545 S
Li530 O590 1.956 . S
Li530 O591 1.981 . S
Li531 N581 1.990 . S
Li531 O589 1.966 . S
Li531 O590 1.965 1_565 S
Li531 O591 1.956 1_565 S
C532 C534 1.345 1_545 S
C532 C535 1.359 . S
C532 O588 1.325 1_545 S
N533 C536 1.267 1_545 S
N533 C537 1.326 . S
C534 C532 1.345 1_565 S
C534 C536 1.353 . S
C534 H592 0.929 . S
C535 C532 1.359 . S
C535 C537 1.358 . S
C535 H593 0.930 . S
C536 N533 1.267 1_565 S
C536 C534 1.353 . S
C536 H594 0.930 . S
C537 N533 1.326 . S
C537 C535 1.358 . S
C537 H595 0.930 . S
C538 C541 1.348 . S
C538 C542 1.356 . S
C538 O589 1.325 . S
C539 N540 1.279 . S
C539 C542 1.358 . S
C539 H596 0.930 . S
N540 C539 1.279 . S
N540 C543 1.314 . S
C541 C538 1.348 . S
C541 C543 1.353 . S
C541 H597 0.929 . S
C542 C538 1.356 . S
C542 C539 1.358 . S
C542 H598 0.930 . S
C543 N540 1.314 . S
C543 C541 1.353 . S
C543 H599 0.930 . S
C544 N545 1.314 . S
C544 C549 1.353 . S
C544 H550 0.930 . S
N545 Li528 1.991 . S
N545 C544 1.314 . S
N545 C547 1.279 1_545 S
C546 C547 1.358 . S
C546 C548 1.357 1_565 S
C546 H600 0.930 . S
C547 N545 1.279 1_565 S
C547 C546 1.358 . S
C547 H551 0.930 . S
C548 C546 1.357 1_545 S
C548 C549 1.346 . S
C549 C544 1.353 . S
C549 C548 1.346 . S
C549 H601 0.929 . S
H550 C544 0.930 . S
H551 C547 0.930 . S
C552 N553 1.314 . S
C552 C554 1.353 . S
C552 H558 0.930 . S
N553 Li529 1.990 . S
N553 C552 1.314 . S
N553 C556 1.279 . S
C554 C552 1.353 . S
C554 C557 1.348 . S
C554 H602 0.929 . S
C555 C556 1.358 . S
C555 C557 1.356 . S
C555 H603 0.930 . S
C556 N553 1.279 . S
C556 C555 1.358 . S
C556 H559 0.930 . S
C557 C554 1.348 . S
C557 C555 1.356 . S
H558 C552 0.930 . S
H559 C556 0.930 . S
C560 C562 1.348 . S
C560 C563 1.356 . S
C560 O590 1.325 . S
N561 C564 1.314 . S
N561 C565 1.279 . S
C562 C560 1.348 . S
C562 C564 1.353 . S
C562 H604 0.929 . S
C563 C560 1.356 . S
C563 C565 1.358 . S
C563 H605 0.930 . S
C564 N561 1.314 . S
C564 C562 1.353 . S
C564 H606 0.930 . S
C565 N561 1.279 . S
C565 C563 1.358 . S
C565 H607 0.930 . S
C566 C567 1.345 . S
C566 C568 1.359 1_545 S
C566 O591 1.325 . S
C567 C566 1.345 . S
C567 C569 1.353 . S
C567 H608 0.929 . S
C568 C566 1.359 1_565 S
C568 C570 1.358 . S
C568 H609 0.930 . S
C569 C567 1.353 . S
C569 N571 1.279 1_545 S
C569 H610 0.930 . S
C570 C568 1.358 . S
C570 N571 1.315 . S
C570 H611 0.930 . S
N571 C569 1.279 1_565 S
N571 C570 1.315 . S
C572 C574 1.353 . S
C572 N575 1.314 . S
C572 H578 0.930 . S
C573 N575 1.279 . S
C573 C576 1.358 . S
C573 H579 0.930 . S
C574 C572 1.353 . S
C574 C577 1.348 . S
C574 H612 0.929 . S
N575 Li530 1.990 . S
N575 C572 1.314 . S
N575 C573 1.279 . S
C576 C573 1.358 . S
C576 C577 1.356 . S
C576 H613 0.930 . S
C577 C574 1.348 . S
C577 C576 1.356 . S
H578 C572 0.930 . S
H579 C573 0.930 . S
C580 N581 1.314 . S
C580 C582 1.353 . S
C580 H586 0.930 . S
N581 Li531 1.990 . S
N581 C580 1.314 . S
N581 C584 1.279 1_565 S
C582 C580 1.353 . S
C582 C585 1.346 1_565 S
C582 H614 0.929 . S
C583 C584 1.358 . S
C583 C585 1.357 . S
C583 H615 0.930 . S
C584 N581 1.279 1_545 S
C584 C583 1.358 . S
C584 H587 0.930 . S
C585 C582 1.346 1_545 S
C585 C583 1.357 . S
H586 C580 0.930 . S
H587 C584 0.930 . S
O588 Li528 1.956 1_565 S
O588 Li529 1.971 . S
O588 Li530 1.960 1_565 S
O588 C532 1.325 1_565 S
O589 Li528 1.955 1_565 S
O589 Li529 1.956 . S
O589 Li531 1.966 . S
O589 C538 1.325 . S
O590 Li528 1.976 . S
O590 Li530 1.956 . S
O590 Li531 1.965 1_545 S
O590 C560 1.325 . S
O591 Li529 1.950 1_545 S
O591 Li530 1.981 . S
O591 Li531 1.956 1_545 S
O591 C566 1.325 . S
H592 C534 0.929 . S
H593 C535 0.930 . S
H594 C536 0.930 . S
H595 C537 0.930 . S
H596 C539 0.930 . S
H597 C541 0.929 . S
H598 C542 0.930 . S
H599 C543 0.930 . S
H600 C546 0.930 . S
H601 C549 0.929 . S
H602 C554 0.929 . S
H603 C555 0.930 . S
H604 C562 0.929 . S
H605 C563 0.930 . S
H606 C564 0.930 . S
H607 C565 0.930 . S
H608 C567 0.929 . S
H609 C568 0.930 . S
H610 C569 0.930 . S
H611 C570 0.930 . S
H612 C574 0.929 . S
H613 C576 0.930 . S
H614 C582 0.929 . S
H615 C583 0.930 . S
Li616 N633 1.991 . S
Li616 O676 1.956 1_455 S
Li616 O677 1.955 1_455 S
Li616 O678 1.976 . S
Li617 N641 1.990 . S
Li617 O676 1.971 . S
Li617 O677 1.956 . S
Li617 O679 1.950 1_655 S
Li618 N663 1.990 . S
Li618 O676 1.960 1_455 S
Li618 O678 1.956 . S
Li618 O679 1.981 . S
Li619 N669 1.990 . S
Li619 O677 1.966 . S
Li619 O678 1.965 1_655 S
Li619 O679 1.956 1_655 S
C620 C622 1.345 1_455 S
C620 C623 1.359 . S
C620 O676 1.325 1_455 S
N621 C624 1.267 1_455 S
N621 C625 1.327 . S
C622 C620 1.345 1_655 S
C622 C624 1.353 . S
C622 H680 0.929 . S
C623 C620 1.359 . S
C623 C625 1.358 . S
C623 H681 0.930 . S
C624 N621 1.267 1_655 S
C624 C622 1.353 . S
C624 H682 0.930 . S
C625 N621 1.327 . S
C625 C623 1.358 . S
C625 H683 0.930 . S
C626 C629 1.348 . S
C626 C630 1.356 . S
C626 O677 1.325 . S
C627 N628 1.279 . S
C627 C630 1.358 . S
C627 H684 0.930 . S
N628 C627 1.279 . S
N628 C631 1.314 . S
C629 C626 1.348 . S
C629 C631 1.353 . S
C629 H685 0.929 . S
C630 C626 1.356 . S
C630 C627 1.358 . S
C630 H686 0.930 . S
C631 N628 1.314 . S
C631 C629 1.353 . S
C631 H687 0.930 . S
C632 N633 1.314 . S
C632 C637 1.353 . S
C632 H638 0.930 . S
N633 Li616 1.991 . S
N633 C632 1.314 . S
N633 C635 1.279 1_455 S
C634 C635 1.358 . S
C634 C636 1.357 1_655 S
C634 H688 0.930 . S
C635 N633 1.279 1_655 S
C635 C634 1.358 . S
C635 H639 0.930 . S
C636 C634 1.357 1_455 S
C636 C637 1.346 . S
C637 C632 1.353 . S
C637 C636 1.346 . S
C637 H689 0.929 . S
H638 C632 0.930 . S
H639 C635 0.930 . S
C640 N641 1.314 . S
C640 C642 1.353 . S
C640 H646 0.930 . S
N641 Li617 1.990 . S
N641 C640 1.314 . S
N641 C644 1.279 . S
C642 C640 1.353 . S
C642 C645 1.348 . S
C642 H690 0.929 . S
C643 C644 1.358 . S
C643 C645 1.356 . S
C643 H691 0.930 . S
C644 N641 1.279 . S
C644 C643 1.358 . S
C644 H647 0.930 . S
C645 C642 1.348 . S
C645 C643 1.356 . S
H646 C640 0.930 . S
H647 C644 0.930 . S
C648 C650 1.348 . S
C648 C651 1.356 . S
C648 O678 1.325 . S
N649 C652 1.314 . S
N649 C653 1.279 . S
C650 C648 1.348 . S
C650 C652 1.353 . S
C650 H692 0.929 . S
C651 C648 1.356 . S
C651 C653 1.358 . S
C651 H693 0.930 . S
C652 N649 1.314 . S
C652 C650 1.353 . S
C652 H694 0.930 . S
C653 N649 1.279 . S
C653 C651 1.358 . S
C653 H695 0.930 . S
C654 C655 1.345 . S
C654 C656 1.359 1_455 S
C654 O679 1.325 . S
C655 C654 1.345 . S
C655 C657 1.353 . S
C655 H696 0.929 . S
C656 C654 1.359 1_655 S
C656 C658 1.358 . S
C656 H697 0.930 . S
C657 C655 1.353 . S
C657 N659 1.279 1_455 S
C657 H698 0.930 . S
C658 C656 1.358 . S
C658 N659 1.315 . S
C658 H699 0.930 . S
N659 C657 1.279 1_655 S
N659 C658 1.315 . S
C660 C662 1.353 . S
C660 N663 1.314 . S
C660 H666 0.930 . S
C661 N663 1.279 . S
C661 C664 1.358 . S
C661 H667 0.930 . S
C662 C660 1.353 . S
C662 C665 1.348 . S
C662 H700 0.929 . S
N663 Li618 1.990 . S
N663 C660 1.314 . S
N663 C661 1.279 . S
C664 C661 1.358 . S
C664 C665 1.356 . S
C664 H701 0.930 . S
C665 C662 1.348 . S
C665 C664 1.356 . S
H666 C660 0.930 . S
H667 C661 0.930 . S
C668 N669 1.314 . S
C668 C670 1.353 . S
C668 H674 0.930 . S
N669 Li619 1.990 . S
N669 C668 1.314 . S
N669 C672 1.279 1_655 S
C670 C668 1.353 . S
C670 C673 1.346 1_655 S
C670 H702 0.929 . S
C671 C672 1.358 . S
C671 C673 1.357 . S
C671 H703 0.930 . S
C672 N669 1.279 1_455 S
C672 C671 1.358 . S
C672 H675 0.930 . S
C673 C670 1.346 1_455 S
C673 C671 1.357 . S
H674 C668 0.930 . S
H675 C672 0.930 . S
O676 Li616 1.956 1_655 S
O676 Li617 1.971 . S
O676 Li618 1.960 1_655 S
O676 C620 1.325 1_655 S
O677 Li616 1.955 1_655 S
O677 Li617 1.956 . S
O677 Li619 1.966 . S
O677 C626 1.325 . S
O678 Li616 1.976 . S
O678 Li618 1.956 . S
O678 Li619 1.965 1_455 S
O678 C648 1.325 . S
O679 Li617 1.950 1_455 S
O679 Li618 1.981 . S
O679 Li619 1.956 1_455 S
O679 C654 1.325 . S
H680 C622 0.929 . S
H681 C623 0.930 . S
H682 C624 0.930 . S
H683 C625 0.930 . S
H684 C627 0.930 . S
H685 C629 0.929 . S
H686 C630 0.930 . S
H687 C631 0.930 . S
H688 C634 0.930 . S
H689 C637 0.929 . S
H690 C642 0.929 . S
H691 C643 0.930 . S
H692 C650 0.929 . S
H693 C651 0.930 . S
H694 C652 0.930 . S
H695 C653 0.930 . S
H696 C655 0.929 . S
H697 C656 0.930 . S
H698 C657 0.930 . S
H699 C658 0.930 . S
H700 C662 0.929 . S
H701 C664 0.930 . S
H702 C670 0.929 . S
H703 C671 0.930 . S
Li704 N721 1.990 . S
Li704 O764 1.956 . S
Li704 O765 1.981 . S
Li704 O766 1.960 1_554 S
Li705 N729 1.990 . S
Li705 O764 1.965 1_556 S
Li705 O765 1.956 1_556 S
Li705 O767 1.966 . S
Li706 N751 1.991 . S
Li706 O764 1.976 . S
Li706 O766 1.956 1_554 S
Li706 O767 1.955 1_554 S
Li707 N757 1.990 . S
Li707 O765 1.950 1_556 S
Li707 O766 1.971 . S
Li707 O767 1.956 . S
C708 C710 1.348 . S
C708 C711 1.356 . S
C708 O764 1.325 . S
N709 C712 1.314 . S
N709 C713 1.279 . S
C710 C708 1.348 . S
C710 C712 1.353 . S
C710 H768 0.929 . S
C711 C708 1.356 . S
C711 C713 1.358 . S
C711 H769 0.930 . S
C712 N709 1.314 . S
C712 C710 1.353 . S
C712 H770 0.930 . S
C713 N709 1.279 . S
C713 C711 1.358 . S
C713 H771 0.930 . S
C714 C717 1.345 . S
C714 C718 1.359 1_554 S
C714 O765 1.325 . S
C715 N716 1.315 . S
C715 C718 1.358 . S
C715 H772 0.930 . S
N716 C715 1.315 . S
N716 C719 1.279 1_556 S
C717 C714 1.345 . S
C717 C719 1.353 . S
C717 H773 0.929 . S
C718 C714 1.359 1_556 S
C718 C715 1.358 . S
C718 H774 0.930 . S
C719 N716 1.279 1_554 S
C719 C717 1.353 . S
C719 H775 0.930 . S
C720 N721 1.314 . S
C720 C725 1.353 . S
C720 H726 0.930 . S
N721 Li704 1.990 . S
N721 C720 1.314 . S
N721 C723 1.279 . S
C722 C723 1.358 . S
C722 C724 1.356 . S
C722 H776 0.930 . S
C723 N721 1.279 . S
C723 C722 1.358 . S
C723 H727 0.930 . S
C724 C722 1.356 . S
C724 C725 1.348 . S
C725 C720 1.353 . S
C725 C724 1.348 . S
C725 H777 0.929 . S
H726 C720 0.930 . S
H727 C723 0.930 . S
C728 N729 1.314 . S
C728 C730 1.353 . S
C728 H734 0.930 . S
N729 Li705 1.990 . S
N729 C728 1.314 . S
N729 C732 1.279 1_556 S
C730 C728 1.353 . S
C730 C733 1.346 1_556 S
C730 H778 0.929 . S
C731 C732 1.358 . S
C731 C733 1.357 . S
C731 H779 0.930 . S
C732 N729 1.279 1_554 S
C732 C731 1.358 . S
C732 H735 0.930 . S
C733 C730 1.346 1_554 S
C733 C731 1.357 . S
H734 C728 0.930 . S
H735 C732 0.930 . S
C736 C738 1.345 1_554 S
C736 C739 1.359 . S
C736 O766 1.325 1_554 S
N737 C740 1.267 1_554 S
N737 C741 1.327 . S
C738 C736 1.345 1_556 S
C738 C740 1.353 . S
C738 H780 0.929 . S
C739 C736 1.359 . S
C739 C741 1.358 . S
C739 H781 0.930 . S
C740 N737 1.267 1_556 S
C740 C738 1.353 . S
C740 H782 0.930 . S
C741 N737 1.327 . S
C741 C739 1.358 . S
C741 H783 0.930 . S
C742 C743 1.348 . S
C742 C744 1.356 . S
C742 O767 1.325 . S
C743 C742 1.348 . S
C743 C745 1.353 . S
C743 H784 0.929 . S
C744 C742 1.356 . S
C744 C746 1.358 . S
C744 H785 0.930 . S
C745 C743 1.353 . S
C745 N747 1.314 . S
C745 H786 0.930 . S
C746 C744 1.358 . S
C746 N747 1.279 . S
C746 H787 0.930 . S
N747 C745 1.314 . S
N747 C746 1.279 . S
C748 C750 1.353 . S
C748 N751 1.314 . S
C748 H754 0.930 . S
C749 N751 1.279 1_556 S
C749 C752 1.358 . S
C749 H755 0.930 . S
C750 C748 1.353 . S
C750 C753 1.346 . S
C750 H788 0.929 . S
N751 Li706 1.991 . S
N751 C748 1.314 . S
N751 C749 1.279 1_554 S
C752 C749 1.358 . S
C752 C753 1.357 1_556 S
C752 H789 0.930 . S
C753 C750 1.346 . S
C753 C752 1.357 1_554 S
H754 C748 0.930 . S
H755 C749 0.930 . S
C756 N757 1.314 . S
C756 C758 1.353 . S
C756 H762 0.930 . S
N757 Li707 1.990 . S
N757 C756 1.314 . S
N757 C760 1.279 . S
C758 C756 1.353 . S
C758 C761 1.348 . S
C758 H790 0.929 . S
C759 C760 1.358 . S
C759 C761 1.356 . S
C759 H791 0.930 . S
C760 N757 1.279 . S
C760 C759 1.358 . S
C760 H763 0.930 . S
C761 C758 1.348 . S
C761 C759 1.356 . S
H762 C756 0.930 . S
H763 C760 0.930 . S
O764 Li704 1.956 . S
O764 Li705 1.965 1_554 S
O764 Li706 1.976 . S
O764 C708 1.325 . S
O765 Li704 1.981 . S
O765 Li705 1.956 1_554 S
O765 Li707 1.950 1_554 S
O765 C714 1.325 . S
O766 Li704 1.960 1_556 S
O766 Li706 1.956 1_556 S
O766 Li707 1.971 . S
O766 C736 1.325 1_556 S
O767 Li705 1.966 . S
O767 Li706 1.955 1_556 S
O767 Li707 1.956 . S
O767 C742 1.325 . S
H768 C710 0.929 . S
H769 C711 0.930 . S
H770 C712 0.930 . S
H771 C713 0.930 . S
H772 C715 0.930 . S
H773 C717 0.929 . S
H774 C718 0.930 . S
H775 C719 0.930 . S
H776 C722 0.930 . S
H777 C725 0.929 . S
H778 C730 0.929 . S
H779 C731 0.930 . S
H780 C738 0.929 . S
H781 C739 0.930 . S
H782 C740 0.930 . S
H783 C741 0.930 . S
H784 C743 0.929 . S
H785 C744 0.930 . S
H786 C745 0.930 . S
H787 C746 0.930 . S
H788 C750 0.929 . S
H789 C752 0.930 . S
H790 C758 0.929 . S
H791 C759 0.930 . S
Li792 N809 1.990 . S
Li792 O852 1.956 1_556 S
Li792 O853 1.965 1_556 S
Li792 O854 1.966 . S
Li793 N817 1.990 . S
Li793 O852 1.981 . S
Li793 O853 1.956 . S
Li793 O855 1.960 1_554 S
Li794 N839 1.990 . S
Li794 O852 1.950 1_556 S
Li794 O854 1.956 . S
Li794 O855 1.971 . S
Li795 N845 1.991 . S
Li795 O853 1.976 . S
Li795 O854 1.955 1_554 S
Li795 O855 1.956 1_554 S
C796 C798 1.345 . S
C796 C799 1.359 1_554 S
C796 O852 1.325 . S
N797 C800 1.279 1_556 S
N797 C801 1.315 . S
C798 C796 1.345 . S
C798 C800 1.353 . S
C798 H856 0.929 . S
C799 C796 1.359 1_556 S
C799 C801 1.358 . S
C799 H857 0.930 . S
C800 N797 1.279 1_554 S
C800 C798 1.353 . S
C800 H858 0.930 . S
C801 N797 1.315 . S
C801 C799 1.358 . S
C801 H859 0.930 . S
C802 C805 1.348 . S
C802 C806 1.356 . S
C802 O853 1.325 . S
C803 N804 1.279 . S
C803 C806 1.358 . S
C803 H860 0.930 . S
N804 C803 1.279 . S
N804 C807 1.314 . S
C805 C802 1.348 . S
C805 C807 1.353 . S
C805 H861 0.929 . S
C806 C802 1.356 . S
C806 C803 1.358 . S
C806 H862 0.930 . S
C807 N804 1.314 . S
C807 C805 1.353 . S
C807 H863 0.930 . S
C808 N809 1.314 . S
C808 C813 1.353 . S
C808 H814 0.930 . S
N809 Li792 1.990 . S
N809 C808 1.314 . S
N809 C811 1.279 1_556 S
C810 C811 1.358 . S
C810 C812 1.357 . S
C810 H864 0.930 . S
C811 N809 1.279 1_554 S
C811 C810 1.358 . S
C811 H815 0.930 . S
C812 C810 1.357 . S
C812 C813 1.346 1_554 S
C813 C808 1.353 . S
C813 C812 1.346 1_556 S
C813 H865 0.929 . S
H814 C808 0.930 . S
H815 C811 0.930 . S
C816 N817 1.314 . S
C816 C818 1.353 . S
C816 H822 0.930 . S
N817 Li793 1.990 . S
N817 C816 1.314 . S
N817 C820 1.279 . S
C818 C816 1.353 . S
C818 C821 1.348 . S
C818 H866 0.929 . S
C819 C820 1.358 . S
C819 C821 1.356 . S
C819 H867 0.930 . S
C820 N817 1.279 . S
C820 C819 1.358 . S
C820 H823 0.930 . S
C821 C818 1.348 . S
C821 C819 1.356 . S
H822 C816 0.930 . S
H823 C820 0.930 . S
C824 C826 1.348 . S
C824 C827 1.356 . S
C824 O854 1.325 . S
N825 C828 1.314 . S
N825 C829 1.279 . S
C826 C824 1.348 . S
C826 C828 1.353 . S
C826 H868 0.929 . S
C827 C824 1.356 . S
C827 C829 1.358 . S
C827 H869 0.930 . S
C828 N825 1.314 . S
C828 C826 1.353 . S
C828 H870 0.930 . S
C829 N825 1.279 . S
C829 C827 1.358 . S
C829 H871 0.930 . S
C830 C831 1.345 1_554 S
C830 C832 1.359 . S
C830 O855 1.325 1_554 S
C831 C830 1.345 1_556 S
C831 C833 1.353 . S
C831 H872 0.929 . S
C832 C830 1.359 . S
C832 C834 1.358 . S
C832 H873 0.930 . S
C833 C831 1.353 . S
C833 N835 1.267 1_556 S
C833 H874 0.930 . S
C834 C832 1.358 . S
C834 N835 1.327 . S
C834 H875 0.930 . S
N835 C833 1.267 1_554 S
N835 C834 1.327 . S
C836 C838 1.353 . S
C836 N839 1.314 . S
C836 H842 0.930 . S
C837 N839 1.279 . S
C837 C840 1.358 . S
C837 H843 0.930 . S
C838 C836 1.353 . S
C838 C841 1.348 . S
C838 H876 0.929 . S
N839 Li794 1.990 . S
N839 C836 1.314 . S
N839 C837 1.279 . S
C840 C837 1.358 . S
C840 C841 1.356 . S
C840 H877 0.930 . S
C841 C838 1.348 . S
C841 C840 1.356 . S
H842 C836 0.930 . S
H843 C837 0.930 . S
C844 N845 1.314 . S
C844 C846 1.353 . S
C844 H850 0.930 . S
N845 Li795 1.991 . S
N845 C844 1.314 . S
N845 C848 1.279 1_554 S
C846 C844 1.353 . S
C846 C849 1.346 . S
C846 H878 0.929 . S
C847 C848 1.358 . S
C847 C849 1.357 1_556 S
C847 H879 0.930 . S
C848 N845 1.279 1_556 S
C848 C847 1.358 . S
C848 H851 0.930 . S
C849 C846 1.346 . S
C849 C847 1.357 1_554 S
H850 C844 0.930 . S
H851 C848 0.930 . S
O852 Li792 1.956 1_554 S
O852 Li793 1.981 . S
O852 Li794 1.950 1_554 S
O852 C796 1.325 . S
O853 Li792 1.965 1_554 S
O853 Li793 1.956 . S
O853 Li795 1.976 . S
O853 C802 1.325 . S
O854 Li792 1.966 . S
O854 Li794 1.956 . S
O854 Li795 1.955 1_556 S
O854 C824 1.325 . S
O855 Li793 1.960 1_556 S
O855 Li794 1.971 . S
O855 Li795 1.956 1_556 S
O855 C830 1.325 1_556 S
H856 C798 0.929 . S
H857 C799 0.930 . S
H858 C800 0.930 . S
H859 C801 0.930 . S
H860 C803 0.930 . S
H861 C805 0.929 . S
H862 C806 0.930 . S
H863 C807 0.930 . S
H864 C810 0.930 . S
H865 C813 0.929 . S
H866 C818 0.929 . S
H867 C819 0.930 . S
H868 C826 0.929 . S
H869 C827 0.930 . S
H870 C828 0.930 . S
H871 C829 0.930 . S
H872 C831 0.929 . S
H873 C832 0.930 . S
H874 C833 0.930 . S
H875 C834 0.930 . S
H876 C838 0.929 . S
H877 C840 0.930 . S
H878 C846 0.929 . S
H879 C847 0.930 . S
Li880 N897 1.990 . S
Li880 O940 1.956 1_556 S
Li880 O941 1.965 1_556 S
Li880 O942 1.966 . S
Li881 N905 1.990 . S
Li881 O940 1.981 . S
Li881 O941 1.956 . S
Li881 O943 1.960 1_554 S
Li882 N927 1.990 . S
Li882 O940 1.950 1_556 S
Li882 O942 1.956 . S
Li882 O943 1.971 . S
Li883 N933 1.991 . S
Li883 O941 1.976 . S
Li883 O942 1.955 1_554 S
Li883 O943 1.956 1_554 S
C884 C886 1.345 . S
C884 C887 1.359 1_554 S
C884 O940 1.325 . S
N885 C888 1.279 1_556 S
N885 C889 1.315 . S
C886 C884 1.345 . S
C886 C888 1.353 . S
C886 H944 0.929 . S
C887 C884 1.359 1_556 S
C887 C889 1.358 . S
C887 H945 0.930 . S
C888 N885 1.279 1_554 S
C888 C886 1.353 . S
C888 H946 0.930 . S
C889 N885 1.315 . S
C889 C887 1.358 . S
C889 H947 0.930 . S
C890 C893 1.348 . S
C890 C894 1.356 . S
C890 O941 1.325 . S
C891 N892 1.279 . S
C891 C894 1.358 . S
C891 H948 0.930 . S
N892 C891 1.279 . S
N892 C895 1.314 . S
C893 C890 1.348 . S
C893 C895 1.353 . S
C893 H949 0.929 . S
C894 C890 1.356 . S
C894 C891 1.358 . S
C894 H950 0.930 . S
C895 N892 1.314 . S
C895 C893 1.353 . S
C895 H951 0.930 . S
C896 N897 1.314 . S
C896 C901 1.353 . S
C896 H902 0.930 . S
N897 Li880 1.990 . S
N897 C896 1.314 . S
N897 C899 1.279 1_556 S
C898 C899 1.358 . S
C898 C900 1.357 . S
C898 H952 0.930 . S
C899 N897 1.279 1_554 S
C899 C898 1.358 . S
C899 H903 0.930 . S
C900 C898 1.357 . S
C900 C901 1.346 1_554 S
C901 C896 1.353 . S
C901 C900 1.346 1_556 S
C901 H953 0.929 . S
H902 C896 0.930 . S
H903 C899 0.930 . S
C904 N905 1.314 . S
C904 C906 1.353 . S
C904 H910 0.930 . S
N905 Li881 1.990 . S
N905 C904 1.314 . S
N905 C908 1.279 . S
C906 C904 1.353 . S
C906 C909 1.348 . S
C906 H954 0.929 . S
C907 C908 1.358 . S
C907 C909 1.356 . S
C907 H955 0.930 . S
C908 N905 1.279 . S
C908 C907 1.358 . S
C908 H911 0.930 . S
C909 C906 1.348 . S
C909 C907 1.356 . S
H910 C904 0.930 . S
H911 C908 0.930 . S
C912 C914 1.348 . S
C912 C915 1.356 . S
C912 O942 1.325 . S
N913 C916 1.314 . S
N913 C917 1.279 . S
C914 C912 1.348 . S
C914 C916 1.353 . S
C914 H956 0.929 . S
C915 C912 1.356 . S
C915 C917 1.358 . S
C915 H957 0.930 . S
C916 N913 1.314 . S
C916 C914 1.353 . S
C916 H958 0.930 . S
C917 N913 1.279 . S
C917 C915 1.358 . S
C917 H959 0.930 . S
C918 C919 1.345 1_554 S
C918 C920 1.359 . S
C918 O943 1.325 1_554 S
C919 C918 1.345 1_556 S
C919 C921 1.353 . S
C919 H960 0.929 . S
C920 C918 1.359 . S
C920 C922 1.358 . S
C920 H961 0.930 . S
C921 C919 1.353 . S
C921 N923 1.267 1_556 S
C921 H962 0.930 . S
C922 C920 1.358 . S
C922 N923 1.327 . S
C922 H963 0.930 . S
N923 C921 1.267 1_554 S
N923 C922 1.327 . S
C924 C926 1.353 . S
C924 N927 1.314 . S
C924 H930 0.930 . S
C925 N927 1.279 . S
C925 C928 1.358 . S
C925 H931 0.930 . S
C926 C924 1.353 . S
C926 C929 1.348 . S
C926 H964 0.929 . S
N927 Li882 1.990 . S
N927 C924 1.314 . S
N927 C925 1.279 . S
C928 C925 1.358 . S
C928 C929 1.356 . S
C928 H965 0.930 . S
C929 C926 1.348 . S
C929 C928 1.356 . S
H930 C924 0.930 . S
H931 C925 0.930 . S
C932 N933 1.314 . S
C932 C934 1.353 . S
C932 H938 0.930 . S
N933 Li883 1.991 . S
N933 C932 1.314 . S
N933 C936 1.279 1_554 S
C934 C932 1.353 . S
C934 C937 1.346 . S
C934 H966 0.929 . S
C935 C936 1.358 . S
C935 C937 1.357 1_556 S
C935 H967 0.930 . S
C936 N933 1.279 1_556 S
C936 C935 1.358 . S
C936 H939 0.930 . S
C937 C934 1.346 . S
C937 C935 1.357 1_554 S
H938 C932 0.930 . S
H939 C936 0.930 . S
O940 Li880 1.956 1_554 S
O940 Li881 1.981 . S
O940 Li882 1.950 1_554 S
O940 C884 1.325 . S
O941 Li880 1.965 1_554 S
O941 Li881 1.956 . S
O941 Li883 1.976 . S
O941 C890 1.325 . S
O942 Li880 1.966 . S
O942 Li882 1.956 . S
O942 Li883 1.955 1_556 S
O942 C912 1.325 . S
O943 Li881 1.960 1_556 S
O943 Li882 1.971 . S
O943 Li883 1.956 1_556 S
O943 C918 1.325 1_556 S
H944 C886 0.929 . S
H945 C887 0.930 . S
H946 C888 0.930 . S
H947 C889 0.930 . S
H948 C891 0.930 . S
H949 C893 0.929 . S
H950 C894 0.930 . S
H951 C895 0.930 . S
H952 C898 0.930 . S
H953 C901 0.929 . S
H954 C906 0.929 . S
H955 C907 0.930 . S
H956 C914 0.929 . S
H957 C915 0.930 . S
H958 C916 0.930 . S
H959 C917 0.930 . S
H960 C919 0.929 . S
H961 C920 0.930 . S
H962 C921 0.930 . S
H963 C922 0.930 . S
H964 C926 0.929 . S
H965 C928 0.930 . S
H966 C934 0.929 . S
H967 C935 0.930 . S
Li968 N985 1.990 . S
Li968 O1028 1.956 . S
Li968 O1029 1.981 . S
Li968 O1030 1.960 1_554 S
Li969 N993 1.990 . S
Li969 O1028 1.965 1_556 S
Li969 O1029 1.956 1_556 S
Li969 O1031 1.966 . S
Li970 N1015 1.991 . S
Li970 O1028 1.976 . S
Li970 O1030 1.956 1_554 S
Li970 O1031 1.955 1_554 S
Li971 N1021 1.990 . S
Li971 O1029 1.950 1_556 S
Li971 O1030 1.971 . S
Li971 O1031 1.956 . S
C972 C974 1.348 . S
C972 C975 1.356 . S
C972 O1028 1.325 . S
N973 C976 1.314 . S
N973 C977 1.279 . S
C974 C972 1.348 . S
C974 C976 1.353 . S
C974 H1032 0.929 . S
C975 C972 1.356 . S
C975 C977 1.358 . S
C975 H1033 0.930 . S
C976 N973 1.314 . S
C976 C974 1.353 . S
C976 H1034 0.930 . S
C977 N973 1.279 . S
C977 C975 1.358 . S
C977 H1035 0.930 . S
C978 C981 1.345 . S
C978 C982 1.359 1_554 S
C978 O1029 1.325 . S
C979 N980 1.315 . S
C979 C982 1.358 . S
C979 H1036 0.930 . S
N980 C979 1.315 . S
N980 C983 1.279 1_556 S
C981 C978 1.345 . S
C981 C983 1.353 . S
C981 H1037 0.929 . S
C982 C978 1.359 1_556 S
C982 C979 1.358 . S
C982 H1038 0.930 . S
C983 N980 1.279 1_554 S
C983 C981 1.353 . S
C983 H1039 0.930 . S
C984 N985 1.314 . S
C984 C989 1.353 . S
C984 H990 0.930 . S
N985 Li968 1.990 . S
N985 C984 1.314 . S
N985 C987 1.279 . S
C986 C987 1.358 . S
C986 C988 1.356 . S
C986 H1040 0.930 . S
C987 N985 1.279 . S
C987 C986 1.358 . S
C987 H991 0.930 . S
C988 C986 1.356 . S
C988 C989 1.348 . S
C989 C984 1.353 . S
C989 C988 1.348 . S
C989 H1041 0.929 . S
H990 C984 0.930 . S
H991 C987 0.930 . S
C992 N993 1.314 . S
C992 C994 1.353 . S
C992 H998 0.930 . S
N993 Li969 1.990 . S
N993 C992 1.314 . S
N993 C996 1.279 1_556 S
C994 C992 1.353 . S
C994 C997 1.346 1_556 S
C994 H1042 0.929 . S
C995 C996 1.358 . S
C995 C997 1.357 . S
C995 H1043 0.930 . S
C996 N993 1.279 1_554 S
C996 C995 1.358 . S
C996 H999 0.930 . S
C997 C994 1.346 1_554 S
C997 C995 1.357 . S
H998 C992 0.930 . S
H999 C996 0.930 . S
C1000 C1002 1.345 1_554 S
C1000 C1003 1.359 . S
C1000 O1030 1.325 1_554 S
N1001 C1004 1.267 1_554 S
N1001 C1005 1.327 . S
C1002 C1000 1.345 1_556 S
C1002 C1004 1.353 . S
C1002 H1044 0.929 . S
C1003 C1000 1.359 . S
C1003 C1005 1.358 . S
C1003 H1045 0.930 . S
C1004 N1001 1.267 1_556 S
C1004 C1002 1.353 . S
C1004 H1046 0.930 . S
C1005 N1001 1.327 . S
C1005 C1003 1.358 . S
C1005 H1047 0.930 . S
C1006 C1007 1.348 . S
C1006 C1008 1.356 . S
C1006 O1031 1.325 . S
C1007 C1006 1.348 . S
C1007 C1009 1.353 . S
C1007 H1048 0.929 . S
C1008 C1006 1.356 . S
C1008 C1010 1.358 . S
C1008 H1049 0.930 . S
C1009 C1007 1.353 . S
C1009 N1011 1.314 . S
C1009 H1050 0.930 . S
C1010 C1008 1.358 . S
C1010 N1011 1.279 . S
C1010 H1051 0.930 . S
N1011 C1009 1.314 . S
N1011 C1010 1.279 . S
C1012 C1014 1.353 . S
C1012 N1015 1.314 . S
C1012 H1018 0.930 . S
C1013 N1015 1.279 1_556 S
C1013 C1016 1.358 . S
C1013 H1019 0.930 . S
C1014 C1012 1.353 . S
C1014 C1017 1.346 . S
C1014 H1052 0.929 . S
N1015 Li970 1.991 . S
N1015 C1012 1.314 . S
N1015 C1013 1.279 1_554 S
C1016 C1013 1.358 . S
C1016 C1017 1.357 1_556 S
C1016 H1053 0.930 . S
C1017 C1014 1.346 . S
C1017 C1016 1.357 1_554 S
H1018 C1012 0.930 . S
H1019 C1013 0.930 . S
C1020 N1021 1.314 . S
C1020 C1022 1.353 . S
C1020 H1026 0.930 . S
N1021 Li971 1.990 . S
N1021 C1020 1.314 . S
N1021 C1024 1.279 . S
C1022 C1020 1.353 . S
C1022 C1025 1.348 . S
C1022 H1054 0.929 . S
C1023 C1024 1.358 . S
C1023 C1025 1.356 . S
C1023 H1055 0.930 . S
C1024 N1021 1.279 . S
C1024 C1023 1.358 . S
C1024 H1027 0.930 . S
C1025 C1022 1.348 . S
C1025 C1023 1.356 . S
H1026 C1020 0.930 . S
H1027 C1024 0.930 . S
O1028 Li968 1.956 . S
O1028 Li969 1.965 1_554 S
O1028 Li970 1.976 . S
O1028 C972 1.325 . S
O1029 Li968 1.981 . S
O1029 Li969 1.956 1_554 S
O1029 Li971 1.950 1_554 S
O1029 C978 1.325 . S
O1030 Li968 1.960 1_556 S
O1030 Li970 1.956 1_556 S
O1030 Li971 1.971 . S
O1030 C1000 1.325 1_556 S
O1031 Li969 1.966 . S
O1031 Li970 1.955 1_556 S
O1031 Li971 1.956 . S
O1031 C1006 1.325 . S
H1032 C974 0.929 . S
H1033 C975 0.930 . S
H1034 C976 0.930 . S
H1035 C977 0.930 . S
H1036 C979 0.930 . S
H1037 C981 0.929 . S
H1038 C982 0.930 . S
H1039 C983 0.930 . S
H1040 C986 0.930 . S
H1041 C989 0.929 . S
H1042 C994 0.929 . S
H1043 C995 0.930 . S
H1044 C1002 0.929 . S
H1045 C1003 0.930 . S
H1046 C1004 0.930 . S
H1047 C1005 0.930 . S
H1048 C1007 0.929 . S
H1049 C1008 0.930 . S
H1050 C1009 0.930 . S
H1051 C1010 0.930 . S
H1052 C1014 0.929 . S
H1053 C1016 0.930 . S
H1054 C1022 0.929 . S
H1055 C1023 0.930 . S
H1056 C1074 0.951 . S
H1057 C1076 0.951 . S
H1058 C1078 0.950 . S
H1059 C1079 0.950 . S
H1060 C1081 0.950 . S
H1061 C1084 0.950 . S
H1062 C1085 0.950 . S
H1063 C1087 0.950 1_455 S
H1064 C1088 0.950 . S
H1065 C1089 0.951 . S
H1066 C1091 0.951 . S
H1067 C1093 0.950 . S
H1068 C1094 0.950 . S
H1069 C1096 0.950 . S
H1070 C1099 0.950 . S
H1071 C1100 0.950 . S
H1072 C1102 0.950 1_655 S
H1073 C1103 0.950 . S
C1074 H1056 0.951 . S
C1074 C1075 1.379 . S
C1074 C1076 1.388 . S
C1075 C1074 1.379 . S
C1075 C1079 1.371 1_455 S
C1076 H1057 0.951 . S
C1076 C1074 1.388 . S
C1076 C1077 1.348 1_455 S
C1077 C1076 1.348 1_655 S
C1077 C1078 1.431 . S
C1077 C1080 1.500 . S
C1078 H1058 0.950 . S
C1078 C1077 1.431 . S
C1078 C1079 1.374 . S
C1079 H1059 0.950 . S
C1079 C1075 1.371 1_655 S
C1079 C1078 1.374 . S
C1080 C1077 1.500 . S
C1080 C1081 1.373 1_655 S
C1080 C1082 1.389 . S
C1081 H1060 0.950 . S
C1081 C1080 1.373 1_455 S
C1081 C1097 1.377 . S
C1082 C1080 1.389 . S
C1082 C1083 1.524 . S
C1082 C1096 1.377 . S
C1083 C1082 1.524 . S
C1083 C1084 1.397 . S
C1083 C1088 1.363 1_655 S
C1084 H1061 0.950 . S
C1084 C1083 1.397 . S
C1084 C1085 1.334 . S
C1085 H1062 0.950 . S
C1085 C1084 1.334 . S
C1085 C1086 1.287 . S
C1086 C1085 1.287 . S
C1086 C1087 1.524 . S
C1086 H1105 0.913 . S
C1087 H1063 0.950 1_655 S
C1087 C1086 1.524 . S
C1087 C1088 1.415 1_655 S
C1088 H1064 0.950 . S
C1088 C1083 1.363 1_455 S
C1088 C1087 1.415 1_455 S
C1089 H1065 0.951 . S
C1089 C1090 1.371 . S
C1089 C1091 1.388 . S
C1090 C1089 1.371 . S
C1090 C1094 1.380 1_655 S
C1091 H1066 0.951 . S
C1091 C1089 1.388 . S
C1091 C1092 1.340 1_655 S
C1092 C1091 1.340 1_455 S
C1092 C1093 1.439 . S
C1092 C1095 1.500 . S
C1093 H1067 0.950 . S
C1093 C1092 1.439 . S
C1093 C1094 1.374 . S
C1094 H1068 0.950 . S
C1094 C1090 1.380 1_455 S
C1094 C1093 1.374 . S
C1095 C1092 1.500 . S
C1095 C1096 1.373 1_455 S
C1095 C1097 1.389 . S
C1096 H1069 0.950 . S
C1096 C1082 1.377 . S
C1096 C1095 1.373 1_655 S
C1097 C1081 1.377 . S
C1097 C1095 1.389 . S
C1097 C1098 1.524 . S
C1098 C1097 1.524 . S
C1098 C1099 1.397 . S
C1098 C1103 1.363 1_455 S
C1099 H1070 0.950 . S
C1099 C1098 1.397 . S
C1099 C1100 1.334 . S
C1100 H1071 0.950 . S
C1100 C1099 1.334 . S
C1100 C1101 1.287 . S
C1101 C1100 1.287 . S
C1101 C1102 1.524 . S
C1101 H1104 0.999 . S
C1102 H1072 0.950 1_455 S
C1102 C1101 1.524 . S
C1102 C1103 1.415 1_455 S
C1103 H1073 0.950 . S
C1103 C1098 1.363 1_655 S
C1103 C1102 1.415 1_655 S
H1104 C1101 0.999 . S
H1105 C1086 0.913 . S
H1106 C1124 0.951 . S
H1107 C1126 0.951 . S
H1108 C1128 0.950 . S
H1109 C1129 0.950 . S
H1110 C1131 0.950 . S
H1111 C1134 0.950 . S
H1112 C1135 0.950 . S
H1113 C1137 0.950 . S
H1114 C1138 0.950 . S
H1115 C1139 0.951 . S
H1116 C1141 0.951 . S
H1117 C1143 0.950 . S
H1118 C1144 0.950 . S
H1119 C1146 0.950 . S
H1120 C1149 0.950 . S
H1121 C1150 0.950 . S
H1122 C1152 0.950 . S
H1123 C1153 0.950 . S
C1124 H1106 0.951 . S
C1124 C1125 1.377 . S
C1124 C1126 1.388 . S
C1125 C1124 1.377 . S
C1125 C1129 1.374 1_545 S
C1126 H1107 0.951 . S
C1126 C1124 1.388 . S
C1126 C1127 1.401 . S
C1127 C1126 1.401 . S
C1127 C1128 1.379 1_545 S
C1127 C1130 1.498 . S
C1128 H1108 0.950 . S
C1128 C1127 1.379 1_565 S
C1128 C1129 1.374 . S
C1129 H1109 0.950 . S
C1129 C1125 1.374 1_565 S
C1129 C1128 1.374 . S
C1130 C1127 1.498 . S
C1130 C1131 1.343 1_545 S
C1130 C1132 1.418 . S
C1131 H1110 0.950 . S
C1131 C1130 1.343 1_565 S
C1131 C1147 1.377 . S
C1132 C1130 1.418 . S
C1132 C1133 1.524 . S
C1132 C1146 1.377 . S
C1133 C1132 1.524 . S
C1133 C1134 1.397 . S
C1133 C1138 1.363 . S
C1134 H1111 0.950 . S
C1134 C1133 1.397 . S
C1134 C1135 1.334 . S
C1135 H1112 0.950 . S
C1135 C1134 1.334 . S
C1135 C1136 1.287 . S
C1136 C1135 1.287 . S
C1136 C1137 1.524 . S
C1136 H1155 0.913 . S
C1137 H1113 0.950 . S
C1137 C1136 1.524 . S
C1137 C1138 1.415 . S
C1138 H1114 0.950 . S
C1138 C1133 1.363 . S
C1138 C1137 1.415 . S
C1139 H1115 0.951 . S
C1139 C1140 1.369 . S
C1139 C1141 1.388 . S
C1140 C1139 1.369 . S
C1140 C1144 1.382 1_565 S
C1141 H1116 0.951 . S
C1141 C1139 1.388 . S
C1141 C1142 1.393 . S
C1142 C1141 1.393 . S
C1142 C1143 1.387 1_565 S
C1142 C1145 1.498 . S
C1143 H1117 0.950 . S
C1143 C1142 1.387 1_545 S
C1143 C1144 1.374 . S
C1144 H1118 0.950 . S
C1144 C1140 1.382 1_545 S
C1144 C1143 1.374 . S
C1145 C1142 1.498 . S
C1145 C1146 1.356 1_565 S
C1145 C1147 1.406 . S
C1146 H1119 0.950 . S
C1146 C1132 1.377 . S
C1146 C1145 1.356 1_545 S
C1147 C1131 1.377 . S
C1147 C1145 1.406 . S
C1147 C1148 1.524 . S
C1148 C1147 1.524 . S
C1148 C1149 1.397 . S
C1148 C1153 1.363 . S
C1149 H1120 0.950 . S
C1149 C1148 1.397 . S
C1149 C1150 1.334 . S
C1150 H1121 0.950 . S
C1150 C1149 1.334 . S
C1150 C1151 1.287 . S
C1151 C1150 1.287 . S
C1151 C1152 1.524 . S
C1151 H1154 0.999 . S
C1152 H1122 0.950 . S
C1152 C1151 1.524 . S
C1152 C1153 1.415 . S
C1153 H1123 0.950 . S
C1153 C1148 1.363 . S
C1153 C1152 1.415 . S
H1154 C1151 0.999 . S
H1155 C1136 0.913 . S
H1156 C1174 0.951 . S
H1157 C1176 0.951 . S
H1158 C1178 0.950 . S
H1159 C1179 0.950 . S
H1160 C1181 0.950 . S
H1161 C1184 0.950 . S
H1162 C1185 0.950 . S
H1163 C1187 0.950 . S
H1164 C1188 0.950 1_455 S
H1165 C1189 0.951 . S
H1166 C1191 0.951 . S
H1167 C1193 0.950 . S
H1168 C1194 0.950 . S
H1169 C1196 0.950 . S
H1170 C1199 0.950 . S
H1171 C1200 0.950 . S
H1172 C1202 0.950 . S
H1173 C1203 0.950 1_655 S
C1174 H1156 0.951 . S
C1174 C1175 1.376 . S
C1174 C1176 1.388 . S
C1175 C1174 1.376 . S
C1175 C1179 1.374 1_455 S
C1176 H1157 0.951 . S
C1176 C1174 1.388 . S
C1176 C1177 1.349 1_455 S
C1177 C1176 1.349 1_655 S
C1177 C1178 1.430 . S
C1177 C1180 1.500 . S
C1178 H1158 0.950 . S
C1178 C1177 1.430 . S
C1178 C1179 1.374 . S
C1179 H1159 0.950 . S
C1179 C1175 1.374 1_655 S
C1179 C1178 1.374 . S
C1180 C1177 1.500 . S
C1180 C1181 1.373 1_655 S
C1180 C1182 1.389 . S
C1181 H1160 0.950 . S
C1181 C1180 1.373 1_455 S
C1181 C1197 1.377 . S
C1182 C1180 1.389 . S
C1182 C1183 1.524 . S
C1182 C1196 1.377 . S
C1183 C1182 1.524 . S
C1183 C1184 1.397 . S
C1183 C1188 1.363 . S
C1184 H1161 0.950 . S
C1184 C1183 1.397 . S
C1184 C1185 1.334 . S
C1185 H1162 0.950 . S
C1185 C1184 1.334 . S
C1185 C1186 1.287 . S
C1186 C1185 1.287 . S
C1186 C1187 1.524 . S
C1186 H1205 0.913 . S
C1187 H1163 0.950 . S
C1187 C1186 1.524 . S
C1187 C1188 1.415 . S
C1188 H1164 0.950 1_655 S
C1188 C1183 1.363 . S
C1188 C1187 1.415 . S
C1189 H1165 0.951 . S
C1189 C1190 1.369 . S
C1189 C1191 1.388 . S
C1190 C1189 1.369 . S
C1190 C1194 1.381 1_655 S
C1191 H1166 0.951 . S
C1191 C1189 1.388 . S
C1191 C1192 1.343 1_655 S
C1192 C1191 1.343 1_455 S
C1192 C1193 1.436 . S
C1192 C1195 1.501 . S
C1193 H1167 0.950 . S
C1193 C1192 1.436 . S
C1193 C1194 1.374 . S
C1194 H1168 0.950 . S
C1194 C1190 1.381 1_455 S
C1194 C1193 1.374 . S
C1195 C1192 1.501 . S
C1195 C1196 1.373 1_455 S
C1195 C1197 1.389 . S
C1196 H1169 0.950 . S
C1196 C1182 1.377 . S
C1196 C1195 1.373 1_655 S
C1197 C1181 1.377 . S
C1197 C1195 1.389 . S
C1197 C1198 1.524 . S
C1198 C1197 1.524 . S
C1198 C1199 1.397 . S
C1198 C1203 1.363 . S
C1199 H1170 0.950 . S
C1199 C1198 1.397 . S
C1199 C1200 1.334 . S
C1200 H1171 0.950 . S
C1200 C1199 1.334 . S
C1200 C1201 1.287 . S
C1201 C1200 1.287 . S
C1201 C1202 1.524 . S
C1201 H1204 0.999 . S
C1202 H1172 0.950 . S
C1202 C1201 1.524 . S
C1202 C1203 1.415 . S
C1203 H1173 0.950 1_455 S
C1203 C1198 1.363 . S
C1203 C1202 1.415 . S
H1204 C1201 0.999 . S
H1205 C1186 0.913 . S
H1206 C1224 0.951 . S
H1207 C1226 0.951 . S
H1208 C1228 0.950 . S
H1209 C1229 0.950 . S
H1210 C1231 0.950 . S
H1211 C1234 0.950 . S
H1212 C1235 0.950 . S
H1213 C1237 0.950 . S
H1214 C1238 0.950 . S
H1215 C1239 0.951 . S
H1216 C1241 0.951 . S
H1217 C1243 0.950 . S
H1218 C1244 0.950 . S
H1219 C1246 0.950 . S
H1220 C1249 0.950 . S
H1221 C1250 0.950 . S
H1222 C1252 0.950 . S
H1223 C1253 0.950 . S
C1224 H1206 0.951 . S
C1224 C1225 1.365 1_545 S
C1224 C1226 1.388 . S
C1225 C1224 1.365 1_565 S
C1225 C1229 1.385 . S
C1226 H1207 0.951 . S
C1226 C1224 1.388 . S
C1226 C1227 1.366 1_545 S
C1227 C1226 1.366 1_565 S
C1227 C1228 1.414 . S
C1227 C1230 1.499 . S
C1228 H1208 0.950 . S
C1228 C1227 1.414 . S
C1228 C1229 1.374 . S
C1229 H1209 0.950 . S
C1229 C1225 1.385 . S
C1229 C1228 1.374 . S
C1230 C1227 1.499 . S
C1230 C1231 1.373 1_565 S
C1230 C1232 1.389 . S
C1231 H1210 0.950 . S
C1231 C1230 1.373 1_545 S
C1231 C1247 1.377 . S
C1232 C1230 1.389 . S
C1232 C1233 1.524 . S
C1232 C1246 1.377 . S
C1233 C1232 1.524 . S
C1233 C1234 1.397 . S
C1233 C1238 1.363 . S
C1234 H1211 0.950 . S
C1234 C1233 1.397 . S
C1234 C1235 1.334 . S
C1235 H1212 0.950 . S
C1235 C1234 1.334 . S
C1235 C1236 1.287 . S
C1236 C1235 1.287 . S
C1236 C1237 1.524 . S
C1236 H1255 0.913 . S
C1237 H1213 0.950 . S
C1237 C1236 1.524 . S
C1237 C1238 1.415 . S
C1238 H1214 0.950 . S
C1238 C1233 1.363 . S
C1238 C1237 1.415 . S
C1239 H1215 0.951 . S
C1239 C1240 1.363 1_565 S
C1239 C1241 1.388 . S
C1240 C1239 1.363 1_545 S
C1240 C1244 1.387 . S
C1241 H1216 0.951 . S
C1241 C1239 1.388 . S
C1241 C1242 1.366 1_565 S
C1242 C1241 1.366 1_545 S
C1242 C1243 1.414 . S
C1242 C1245 1.499 . S
C1243 H1217 0.950 . S
C1243 C1242 1.414 . S
C1243 C1244 1.374 . S
C1244 H1218 0.950 . S
C1244 C1240 1.387 . S
C1244 C1243 1.374 . S
C1245 C1242 1.499 . S
C1245 C1246 1.373 1_545 S
C1245 C1247 1.389 . S
C1246 H1219 0.950 . S
C1246 C1232 1.377 . S
C1246 C1245 1.373 1_565 S
C1247 C1231 1.377 . S
C1247 C1245 1.389 . S
C1247 C1248 1.524 . S
C1248 C1247 1.524 . S
C1248 C1249 1.397 . S
C1248 C1253 1.363 . S
C1249 H1220 0.950 . S
C1249 C1248 1.397 . S
C1249 C1250 1.334 . S
C1250 H1221 0.950 . S
C1250 C1249 1.334 . S
C1250 C1251 1.287 . S
C1251 C1250 1.287 . S
C1251 C1252 1.524 . S
C1251 H1254 0.999 . S
C1252 H1222 0.950 . S
C1252 C1251 1.524 . S
C1252 C1253 1.415 . S
C1253 H1223 0.950 . S
C1253 C1248 1.363 . S
C1253 C1252 1.415 . S
H1254 C1251 0.999 . S
H1255 C1236 0.913 . S
H1256 C1274 0.951 . S
H1257 C1276 0.951 . S
H1258 C1278 0.950 . S
H1259 C1279 0.950 . S
H1260 C1281 0.950 . S
H1261 C1284 0.950 . S
H1262 C1285 0.950 . S
H1263 C1287 0.950 . S
H1264 C1288 0.950 . S
H1265 C1289 0.951 . S
H1266 C1291 0.951 . S
H1267 C1293 0.950 . S
H1268 C1294 0.950 . S
H1269 C1296 0.950 . S
H1270 C1299 0.950 . S
H1271 C1300 0.950 . S
H1272 C1302 0.950 . S
H1273 C1303 0.950 . S
C1274 H1256 0.951 . S
C1274 C1275 1.361 1_455 S
C1274 C1276 1.388 . S
C1275 C1274 1.361 1_655 S
C1275 C1279 1.390 . S
C1276 H1257 0.951 . S
C1276 C1274 1.388 . S
C1276 C1277 1.343 1_455 S
C1277 C1276 1.343 1_655 S
C1277 C1278 1.436 . S
C1277 C1280 1.498 . S
C1278 H1258 0.950 . S
C1278 C1277 1.436 . S
C1278 C1279 1.374 . S
C1279 H1259 0.950 . S
C1279 C1275 1.390 . S
C1279 C1278 1.374 . S
C1280 C1277 1.498 . S
C1280 C1281 1.389 . S
C1280 C1282 1.374 1_655 S
C1281 H1260 0.950 . S
C1281 C1280 1.389 . S
C1281 C1297 1.377 . S
C1282 C1280 1.374 1_455 S
C1282 C1283 1.524 . S
C1282 C1296 1.377 . S
C1283 C1282 1.524 . S
C1283 C1284 1.397 1_455 S
C1283 C1288 1.363 . S
C1284 H1261 0.950 . S
C1284 C1283 1.397 1_655 S
C1284 C1285 1.334 . S
C1285 H1262 0.950 . S
C1285 C1284 1.334 . S
C1285 C1286 1.287 1_655 S
C1286 C1285 1.287 1_455 S
C1286 C1287 1.524 . S
C1286 H1305 0.913 . S
C1287 H1263 0.950 . S
C1287 C1286 1.524 . S
C1287 C1288 1.415 . S
C1288 H1264 0.950 . S
C1288 C1283 1.363 . S
C1288 C1287 1.415 . S
C1289 H1265 0.951 . S
C1289 C1290 1.349 1_655 S
C1289 C1291 1.388 . S
C1290 C1289 1.349 1_455 S
C1290 C1294 1.402 . S
C1291 H1266 0.951 . S
C1291 C1289 1.388 . S
C1291 C1292 1.331 1_655 S
C1292 C1291 1.331 1_455 S
C1292 C1293 1.448 . S
C1292 C1295 1.500 . S
C1293 H1267 0.950 . S
C1293 C1292 1.448 . S
C1293 C1294 1.374 . S
C1294 H1268 0.950 . S
C1294 C1290 1.402 . S
C1294 C1293 1.374 . S
C1295 C1292 1.500 . S
C1295 C1296 1.373 . S
C1295 C1297 1.389 1_455 S
C1296 H1269 0.950 . S
C1296 C1282 1.377 . S
C1296 C1295 1.373 . S
C1297 C1281 1.377 . S
C1297 C1295 1.389 1_655 S
C1297 C1298 1.524 . S
C1298 C1297 1.524 . S
C1298 C1299 1.397 1_655 S
C1298 C1303 1.363 . S
C1299 H1270 0.950 . S
C1299 C1298 1.397 1_455 S
C1299 C1300 1.334 . S
C1300 H1271 0.950 . S
C1300 C1299 1.334 . S
C1300 C1301 1.287 1_455 S
C1301 C1300 1.287 1_655 S
C1301 C1302 1.524 . S
C1301 H1304 0.999 . S
C1302 H1272 0.950 . S
C1302 C1301 1.524 . S
C1302 C1303 1.415 . S
C1303 H1273 0.950 . S
C1303 C1298 1.363 . S
C1303 C1302 1.415 . S
H1304 C1301 0.999 . S
H1305 C1286 0.913 . S
H1306 C1324 0.951 . S
H1307 C1326 0.951 . S
H1308 C1328 0.950 . S
H1309 C1329 0.950 . S
H1310 C1331 0.950 . S
H1311 C1334 0.950 . S
H1312 C1335 0.950 . S
H1313 C1337 0.950 . S
H1314 C1338 0.950 . S
H1315 C1339 0.951 . S
H1316 C1341 0.951 . S
H1317 C1343 0.950 . S
H1318 C1344 0.950 . S
H1319 C1346 0.950 . S
H1320 C1349 0.950 . S
H1321 C1350 0.950 . S
H1322 C1352 0.950 . S
H1323 C1353 0.950 . S
C1324 H1306 0.951 . S
C1324 C1325 1.365 1_545 S
C1324 C1326 1.388 . S
C1325 C1324 1.365 1_565 S
C1325 C1329 1.386 . S
C1326 H1307 0.951 . S
C1326 C1324 1.388 . S
C1326 C1327 1.373 . S
C1327 C1326 1.373 . S
C1327 C1328 1.406 1_545 S
C1327 C1330 1.499 . S
C1328 H1308 0.950 . S
C1328 C1327 1.406 1_565 S
C1328 C1329 1.374 . S
C1329 H1309 0.950 . S
C1329 C1325 1.386 . S
C1329 C1328 1.374 . S
C1330 C1327 1.499 . S
C1330 C1331 1.325 1_545 S
C1330 C1332 1.435 . S
C1331 H1310 0.950 . S
C1331 C1330 1.325 1_565 S
C1331 C1347 1.377 . S
C1332 C1330 1.435 . S
C1332 C1333 1.524 . S
C1332 C1346 1.377 . S
C1333 C1332 1.524 . S
C1333 C1334 1.397 . S
C1333 C1338 1.363 . S
C1334 H1311 0.950 . S
C1334 C1333 1.397 . S
C1334 C1335 1.334 . S
C1335 H1312 0.950 . S
C1335 C1334 1.334 . S
C1335 C1336 1.287 . S
C1336 C1335 1.287 . S
C1336 C1337 1.524 . S
C1336 H1355 0.913 . S
C1337 H1313 0.950 . S
C1337 C1336 1.524 . S
C1337 C1338 1.415 . S
C1338 H1314 0.950 . S
C1338 C1333 1.363 . S
C1338 C1337 1.415 . S
C1339 H1315 0.951 . S
C1339 C1340 1.363 1_565 S
C1339 C1341 1.388 . S
C1340 C1339 1.363 1_545 S
C1340 C1344 1.388 . S
C1341 H1316 0.951 . S
C1341 C1339 1.388 . S
C1341 C1342 1.371 . S
C1342 C1341 1.371 . S
C1342 C1343 1.408 1_565 S
C1342 C1345 1.499 . S
C1343 H1317 0.950 . S
C1343 C1342 1.408 1_545 S
C1343 C1344 1.374 . S
C1344 H1318 0.950 . S
C1344 C1340 1.388 . S
C1344 C1343 1.374 . S
C1345 C1342 1.499 . S
C1345 C1346 1.336 1_565 S
C1345 C1347 1.424 . S
C1346 H1319 0.950 . S
C1346 C1332 1.377 . S
C1346 C1345 1.336 1_545 S
C1347 C1331 1.377 . S
C1347 C1345 1.424 . S
C1347 C1348 1.524 . S
C1348 C1347 1.524 . S
C1348 C1349 1.397 . S
C1348 C1353 1.363 . S
C1349 H1320 0.950 . S
C1349 C1348 1.397 . S
C1349 C1350 1.334 . S
C1350 H1321 0.950 . S
C1350 C1349 1.334 . S
C1350 C1351 1.287 . S
C1351 C1350 1.287 . S
C1351 C1352 1.524 . S
C1351 H1354 0.999 . S
C1352 H1322 0.950 . S
C1352 C1351 1.524 . S
C1352 C1353 1.415 . S
C1353 H1323 0.950 . S
C1353 C1348 1.363 . S
C1353 C1352 1.415 . S
H1354 C1351 0.999 . S
H1355 C1336 0.913 . S
H1356 C1374 0.951 . S
H1357 C1376 0.951 . S
H1358 C1378 0.950 . S
H1359 C1379 0.950 . S
H1360 C1381 0.950 . S
H1361 C1384 0.950 . S
H1362 C1385 0.912 1_455 S
H1363 C1387 0.950 . S
H1364 C1388 0.950 . S
H1365 C1389 0.951 . S
H1366 C1391 0.951 . S
H1367 C1393 0.950 . S
H1368 C1394 0.950 . S
H1369 C1396 0.950 . S
H1370 C1399 0.950 . S
H1371 C1400 0.950 1_655 S
H1372 C1402 0.950 . S
H1373 C1403 0.950 . S
C1374 H1356 0.951 . S
C1374 C1375 1.371 . S
C1374 C1376 1.388 . S
C1375 C1374 1.371 . S
C1375 C1379 1.379 1_655 S
C1376 H1357 0.951 . S
C1376 C1374 1.388 . S
C1376 C1377 1.353 1_655 S
C1377 C1376 1.353 1_455 S
C1377 C1378 1.426 . S
C1377 C1380 1.498 . S
C1378 H1358 0.950 . S
C1378 C1377 1.426 . S
C1378 C1379 1.374 . S
C1379 H1359 0.950 . S
C1379 C1375 1.379 1_455 S
C1379 C1378 1.374 . S
C1380 C1377 1.498 . S
C1380 C1381 1.393 . S
C1380 C1382 1.369 1_455 S
C1381 H1360 0.950 . S
C1381 C1380 1.393 . S
C1381 C1397 1.377 . S
C1382 C1380 1.369 1_655 S
C1382 C1383 1.524 . S
C1382 C1396 1.377 . S
C1383 C1382 1.524 . S
C1383 C1384 1.397 1_655 S
C1383 C1388 1.363 . S
C1384 H1361 0.950 . S
C1384 C1383 1.397 1_455 S
C1384 C1385 1.325 1_455 S
C1385 H1362 0.912 1_655 S
C1385 C1384 1.325 1_655 S
C1385 C1386 1.339 . S
C1386 C1385 1.339 . S
C1386 C1387 1.524 . S
C1386 H1405 0.913 . S
C1387 H1363 0.950 . S
C1387 C1386 1.524 . S
C1387 C1388 1.415 . S
C1388 H1364 0.950 . S
C1388 C1383 1.363 . S
C1388 C1387 1.415 . S
C1389 H1365 0.951 . S
C1389 C1390 1.383 . S
C1389 C1391 1.388 . S
C1390 C1389 1.383 . S
C1390 C1394 1.367 1_455 S
C1391 H1366 0.951 . S
C1391 C1389 1.388 . S
C1391 C1392 1.365 1_455 S
C1392 C1391 1.365 1_655 S
C1392 C1393 1.414 . S
C1392 C1395 1.498 . S
C1393 H1367 0.950 . S
C1393 C1392 1.414 . S
C1393 C1394 1.374 . S
C1394 H1368 0.950 . S
C1394 C1390 1.367 1_655 S
C1394 C1393 1.374 . S
C1395 C1392 1.498 . S
C1395 C1396 1.388 . S
C1395 C1397 1.374 1_655 S
C1396 H1369 0.950 . S
C1396 C1382 1.377 . S
C1396 C1395 1.388 . S
C1397 C1381 1.377 . S
C1397 C1395 1.374 1_455 S
C1397 C1398 1.524 . S
C1398 C1397 1.524 . S
C1398 C1399 1.397 1_455 S
C1398 C1403 1.363 . S
C1399 H1370 0.950 . S
C1399 C1398 1.397 1_655 S
C1399 C1400 1.334 1_655 S
C1400 H1371 0.950 1_455 S
C1400 C1399 1.334 1_455 S
C1400 C1401 1.287 . S
C1401 C1400 1.287 . S
C1401 C1402 1.524 . S
C1401 H1404 0.999 . S
C1402 H1372 0.950 . S
C1402 C1401 1.524 . S
C1402 C1403 1.415 . S
C1403 H1373 0.950 . S
C1403 C1398 1.363 . S
C1403 C1402 1.415 . S
H1404 C1401 0.999 . S
H1405 C1386 0.913 . S
H1406 C1424 0.951 . S
H1407 C1426 0.951 . S
H1408 C1428 0.950 . S
H1409 C1429 0.950 . S
H1410 C1431 0.950 . S
H1411 C1434 0.950 . S
H1412 C1435 0.950 . S
H1413 C1437 0.950 . S
H1414 C1438 0.950 . S
H1415 C1439 0.951 . S
H1416 C1441 0.951 . S
H1417 C1443 0.950 . S
H1418 C1444 0.950 . S
H1419 C1446 0.950 . S
H1420 C1449 0.950 . S
H1421 C1450 0.950 . S
H1422 C1452 0.950 . S
H1423 C1453 0.950 . S
C1424 H1406 0.951 . S
C1424 C1425 1.378 . S
C1424 C1426 1.388 . S
C1425 C1424 1.378 . S
C1425 C1429 1.373 1_545 S
C1426 H1407 0.951 . S
C1426 C1424 1.388 . S
C1426 C1427 1.402 . S
C1427 C1426 1.402 . S
C1427 C1428 1.378 1_545 S
C1427 C1430 1.498 . S
C1428 H1408 0.950 . S
C1428 C1427 1.378 1_565 S
C1428 C1429 1.374 . S
C1429 H1409 0.950 . S
C1429 C1425 1.373 1_565 S
C1429 C1428 1.374 . S
C1430 C1427 1.498 . S
C1430 C1431 1.348 1_545 S
C1430 C1432 1.414 . S
C1431 H1410 0.950 . S
C1431 C1430 1.348 1_565 S
C1431 C1447 1.377 . S
C1432 C1430 1.414 . S
C1432 C1433 1.524 . S
C1432 C1446 1.377 . S
C1433 C1432 1.524 . S
C1433 C1434 1.397 . S
C1433 C1438 1.363 . S
C1434 H1411 0.950 . S
C1434 C1433 1.397 . S
C1434 C1435 1.334 . S
C1435 H1412 0.950 . S
C1435 C1434 1.334 . S
C1435 C1436 1.287 . S
C1436 C1435 1.287 . S
C1436 C1437 1.524 . S
C1436 H1455 0.913 . S
C1437 H1413 0.950 . S
C1437 C1436 1.524 . S
C1437 C1438 1.415 . S
C1438 H1414 0.950 . S
C1438 C1433 1.363 . S
C1438 C1437 1.415 . S
C1439 H1415 0.951 . S
C1439 C1440 1.369 . S
C1439 C1441 1.388 . S
C1440 C1439 1.369 . S
C1440 C1444 1.382 1_565 S
C1441 H1416 0.951 . S
C1441 C1439 1.388 . S
C1441 C1442 1.392 . S
C1442 C1441 1.392 . S
C1442 C1443 1.387 1_565 S
C1442 C1445 1.498 . S
C1443 H1417 0.950 . S
C1443 C1442 1.387 1_545 S
C1443 C1444 1.374 . S
C1444 H1418 0.950 . S
C1444 C1440 1.382 1_545 S
C1444 C1443 1.374 . S
C1445 C1442 1.498 . S
C1445 C1446 1.361 1_565 S
C1445 C1447 1.401 . S
C1446 H1419 0.950 . S
C1446 C1432 1.377 . S
C1446 C1445 1.361 1_545 S
C1447 C1431 1.377 . S
C1447 C1445 1.401 . S
C1447 C1448 1.524 . S
C1448 C1447 1.524 . S
C1448 C1449 1.397 . S
C1448 C1453 1.363 . S
C1449 H1420 0.950 . S
C1449 C1448 1.397 . S
C1449 C1450 1.334 . S
C1450 H1421 0.950 . S
C1450 C1449 1.334 . S
C1450 C1451 1.287 . S
C1451 C1450 1.287 . S
C1451 C1452 1.524 . S
C1451 H1454 0.999 . S
C1452 H1422 0.950 . S
C1452 C1451 1.524 . S
C1452 C1453 1.415 . S
C1453 H1423 0.950 . S
C1453 C1448 1.363 . S
C1453 C1452 1.415 . S
H1454 C1451 0.999 . S
H1455 C1436 0.913 . S
H1456 C1474 0.951 . S
H1457 C1476 0.951 . S
H1458 C1478 0.950 . S
H1459 C1479 0.950 . S
H1460 C1481 0.950 . S
H1461 C1484 0.950 . S
H1462 C1485 0.950 . S
H1463 C1487 0.950 . S
H1464 C1488 0.950 . S
H1465 C1489 0.951 . S
H1466 C1491 0.951 . S
H1467 C1493 0.950 . S
H1468 C1494 0.950 . S
H1469 C1496 0.950 . S
H1470 C1499 0.950 . S
H1471 C1500 0.950 . S
H1472 C1502 0.950 . S
H1473 C1503 0.950 . S
C1474 H1456 0.951 . S
C1474 C1475 1.362 1_554 S
C1474 C1476 1.388 . S
C1475 C1474 1.362 1_556 S
C1475 C1479 1.388 . S
C1476 H1457 0.951 . S
C1476 C1474 1.388 . S
C1476 C1477 1.386 . S
C1477 C1476 1.386 . S
C1477 C1478 1.393 1_554 S
C1477 C1480 1.499 . S
C1478 H1458 0.950 . S
C1478 C1477 1.393 1_556 S
C1478 C1479 1.374 . S
C1479 H1459 0.950 . S
C1479 C1475 1.388 . S
C1479 C1478 1.374 . S
C1480 C1477 1.499 . S
C1480 C1481 1.339 1_554 S
C1480 C1482 1.423 . S
C1481 H1460 0.950 . S
C1481 C1480 1.339 1_556 S
C1481 C1497 1.377 . S
C1482 C1480 1.423 . S
C1482 C1483 1.524 . S
C1482 C1496 1.377 . S
C1483 C1482 1.524 . S
C1483 C1484 1.397 . S
C1483 C1488 1.363 . S
C1484 H1461 0.950 . S
C1484 C1483 1.397 . S
C1484 C1485 1.334 . S
C1485 H1462 0.950 . S
C1485 C1484 1.334 . S
C1485 C1486 1.287 . S
C1486 C1485 1.287 . S
C1486 C1487 1.524 . S
C1486 H1505 0.913 . S
C1487 H1463 0.950 . S
C1487 C1486 1.524 . S
C1487 C1488 1.415 . S
C1488 H1464 0.950 . S
C1488 C1483 1.363 . S
C1488 C1487 1.415 . S
C1489 H1465 0.951 . S
C1489 C1490 1.356 1_556 S
C1489 C1491 1.388 . S
C1490 C1489 1.356 1_554 S
C1490 C1494 1.395 . S
C1491 H1466 0.951 . S
C1491 C1489 1.388 . S
C1491 C1492 1.380 . S
C1492 C1491 1.380 . S
C1492 C1493 1.399 1_556 S
C1492 C1495 1.499 . S
C1493 H1467 0.950 . S
C1493 C1492 1.399 1_554 S
C1493 C1494 1.374 . S
C1494 H1468 0.950 . S
C1494 C1490 1.395 . S
C1494 C1493 1.374 . S
C1495 C1492 1.499 . S
C1495 C1496 1.351 1_556 S
C1495 C1497 1.410 . S
C1496 H1469 0.950 . S
C1496 C1482 1.377 . S
C1496 C1495 1.351 1_554 S
C1497 C1481 1.377 . S
C1497 C1495 1.410 . S
C1497 C1498 1.524 . S
C1498 C1497 1.524 . S
C1498 C1499 1.397 . S
C1498 C1503 1.363 . S
C1499 H1470 0.950 . S
C1499 C1498 1.397 . S
C1499 C1500 1.334 . S
C1500 H1471 0.950 . S
C1500 C1499 1.334 . S
C1500 C1501 1.287 . S
C1501 C1500 1.287 . S
C1501 C1502 1.524 . S
C1501 H1504 0.999 . S
C1502 H1472 0.950 . S
C1502 C1501 1.524 . S
C1502 C1503 1.415 . S
C1503 H1473 0.950 . S
C1503 C1498 1.363 . S
C1503 C1502 1.415 . S
H1504 C1501 0.999 . S
H1505 C1486 0.913 . S
H1506 C1524 0.951 . S
H1507 C1526 0.951 . S
H1508 C1528 0.950 . S
H1509 C1529 0.950 . S
H1510 C1531 0.950 . S
H1511 C1534 0.950 . S
H1512 C1535 0.950 . S
H1513 C1537 0.950 . S
H1514 C1538 0.950 . S
H1515 C1539 0.951 . S
H1516 C1541 0.951 . S
H1517 C1543 0.950 . S
H1518 C1544 0.950 . S
H1519 C1546 0.950 . S
H1520 C1549 0.950 . S
H1521 C1550 0.950 . S
H1522 C1552 0.950 . S
H1523 C1553 0.950 . S
C1524 H1506 0.951 . S
C1524 C1525 1.370 . S
C1524 C1526 1.388 . S
C1525 C1524 1.370 . S
C1525 C1529 1.380 1_556 S
C1526 H1507 0.951 . S
C1526 C1524 1.388 . S
C1526 C1527 1.382 . S
C1527 C1526 1.382 . S
C1527 C1528 1.397 1_556 S
C1527 C1530 1.498 1_556 S
C1528 H1508 0.950 . S
C1528 C1527 1.397 1_554 S
C1528 C1529 1.374 . S
C1529 H1509 0.950 . S
C1529 C1525 1.380 1_554 S
C1529 C1528 1.374 . S
C1530 C1527 1.498 1_554 S
C1530 C1531 1.377 . S
C1530 C1532 1.386 1_554 S
C1531 H1510 0.950 . S
C1531 C1530 1.377 . S
C1531 C1547 1.377 . S
C1532 C1530 1.386 1_556 S
C1532 C1533 1.524 . S
C1532 C1546 1.377 . S
C1533 C1532 1.524 . S
C1533 C1534 1.397 . S
C1533 C1538 1.363 . S
C1534 H1511 0.950 . S
C1534 C1533 1.397 . S
C1534 C1535 1.334 . S
C1535 H1512 0.950 . S
C1535 C1534 1.334 . S
C1535 C1536 1.287 . S
C1536 C1535 1.287 . S
C1536 C1537 1.524 . S
C1536 H1555 0.913 . S
C1537 H1513 0.950 . S
C1537 C1536 1.524 . S
C1537 C1538 1.415 . S
C1538 H1514 0.950 . S
C1538 C1533 1.363 . S
C1538 C1537 1.415 . S
C1539 H1515 0.951 . S
C1539 C1540 1.382 . S
C1539 C1541 1.388 . S
C1540 C1539 1.382 . S
C1540 C1544 1.368 1_554 S
C1541 H1516 0.951 . S
C1541 C1539 1.388 . S
C1541 C1542 1.394 . S
C1542 C1541 1.394 . S
C1542 C1543 1.385 1_554 S
C1542 C1545 1.498 . S
C1543 H1517 0.950 . S
C1543 C1542 1.385 1_556 S
C1543 C1544 1.374 . S
C1544 H1518 0.950 . S
C1544 C1540 1.368 1_556 S
C1544 C1543 1.374 . S
C1545 C1542 1.498 . S
C1545 C1546 1.377 1_554 S
C1545 C1547 1.386 . S
C1546 H1519 0.950 . S
C1546 C1532 1.377 . S
C1546 C1545 1.377 1_556 S
C1547 C1531 1.377 . S
C1547 C1545 1.386 . S
C1547 C1548 1.524 . S
C1548 C1547 1.524 . S
C1548 C1549 1.397 . S
C1548 C1553 1.363 . S
C1549 H1520 0.950 . S
C1549 C1548 1.397 . S
C1549 C1550 1.334 . S
C1550 H1521 0.950 . S
C1550 C1549 1.334 . S
C1550 C1551 1.287 . S
C1551 C1550 1.287 . S
C1551 C1552 1.524 . S
C1551 H1554 0.999 . S
C1552 H1522 0.950 . S
C1552 C1551 1.524 . S
C1552 C1553 1.415 . S
C1553 H1523 0.950 . S
C1553 C1548 1.363 . S
C1553 C1552 1.415 . S
H1554 C1551 0.999 . S
H1555 C1536 0.913 . S
H1556 C1574 0.951 . S
H1557 C1576 0.951 . S
H1558 C1578 0.950 . S
H1559 C1579 0.950 . S
H1560 C1581 0.950 . S
H1561 C1584 0.950 . S
H1562 C1585 0.950 . S
H1563 C1587 0.950 . S
H1564 C1588 0.950 1_556 S
H1565 C1589 0.951 . S
H1566 C1591 0.951 . S
H1567 C1593 0.950 . S
H1568 C1594 0.950 . S
H1569 C1596 0.950 . S
H1570 C1599 0.950 . S
H1571 C1600 0.950 . S
H1572 C1602 0.950 . S
H1573 C1603 0.950 1_554 S
C1574 H1556 0.951 . S
C1574 C1575 1.357 1_556 S
C1574 C1576 1.388 . S
C1575 C1574 1.357 1_554 S
C1575 C1579 1.394 . S
C1576 H1557 0.951 . S
C1576 C1574 1.388 . S
C1576 C1577 1.366 1_556 S
C1577 C1576 1.366 1_554 S
C1577 C1578 1.414 . S
C1577 C1580 1.499 . S
C1578 H1558 0.950 . S
C1578 C1577 1.414 . S
C1578 C1579 1.374 . S
C1579 H1559 0.950 . S
C1579 C1575 1.394 . S
C1579 C1578 1.374 . S
C1580 C1577 1.499 . S
C1580 C1581 1.373 1_554 S
C1580 C1582 1.389 . S
C1581 H1560 0.950 . S
C1581 C1580 1.373 1_556 S
C1581 C1597 1.377 . S
C1582 C1580 1.389 . S
C1582 C1583 1.524 . S
C1582 C1596 1.377 . S
C1583 C1582 1.524 . S
C1583 C1584 1.397 . S
C1583 C1588 1.363 . S
C1584 H1561 0.950 . S
C1584 C1583 1.397 . S
C1584 C1585 1.334 . S
C1585 H1562 0.950 . S
C1585 C1584 1.334 . S
C1585 C1586 1.287 . S
C1586 C1585 1.287 . S
C1586 C1587 1.524 . S
C1586 H1605 0.913 . S
C1587 H1563 0.950 . S
C1587 C1586 1.524 . S
C1587 C1588 1.415 . S
C1588 H1564 0.950 1_554 S
C1588 C1583 1.363 . S
C1588 C1587 1.415 . S
C1589 H1565 0.951 . S
C1589 C1590 1.364 1_554 S
C1589 C1591 1.388 . S
C1590 C1589 1.364 1_556 S
C1590 C1594 1.387 . S
C1591 H1566 0.951 . S
C1591 C1589 1.388 . S
C1591 C1592 1.340 1_554 S
C1592 C1591 1.340 1_556 S
C1592 C1593 1.440 . S
C1592 C1595 1.501 . S
C1593 H1567 0.950 . S
C1593 C1592 1.440 . S
C1593 C1594 1.374 . S
C1594 H1568 0.950 . S
C1594 C1590 1.387 . S
C1594 C1593 1.374 . S
C1595 C1592 1.501 . S
C1595 C1596 1.373 1_556 S
C1595 C1597 1.389 . S
C1596 H1569 0.950 . S
C1596 C1582 1.377 . S
C1596 C1595 1.373 1_554 S
C1597 C1581 1.377 . S
C1597 C1595 1.389 . S
C1597 C1598 1.524 . S
C1598 C1597 1.524 . S
C1598 C1599 1.397 . S
C1598 C1603 1.363 . S
C1599 H1570 0.950 . S
C1599 C1598 1.397 . S
C1599 C1600 1.334 . S
C1600 H1571 0.950 . S
C1600 C1599 1.334 . S
C1600 C1601 1.287 . S
C1601 C1600 1.287 . S
C1601 C1602 1.524 . S
C1601 H1604 0.999 . S
C1602 H1572 0.950 . S
C1602 C1601 1.524 . S
C1602 C1603 1.415 . S
C1603 H1573 0.950 1_556 S
C1603 C1598 1.363 . S
C1603 C1602 1.415 . S
H1604 C1601 0.999 . S
H1605 C1586 0.913 . S
H1606 C1624 0.951 . S
H1607 C1626 0.951 . S
H1608 C1628 0.950 . S
H1609 C1629 0.950 . S
H1610 C1631 0.950 . S
H1611 C1634 0.950 . S
H1612 C1635 0.950 . S
H1613 C1637 0.950 . S
H1614 C1638 0.950 . S
H1615 C1639 0.951 . S
H1616 C1641 0.951 . S
H1617 C1643 0.950 . S
H1618 C1644 0.950 . S
H1619 C1646 0.950 . S
H1620 C1649 0.950 . S
H1621 C1650 0.950 . S
H1622 C1652 0.950 . S
H1623 C1653 0.950 . S
C1624 H1606 0.951 . S
C1624 C1625 1.380 . S
C1624 C1626 1.388 . S
C1625 C1624 1.380 . S
C1625 C1629 1.371 1_554 S
C1626 H1607 0.951 . S
C1626 C1624 1.388 . S
C1626 C1627 1.401 . S
C1627 C1626 1.401 . S
C1627 C1628 1.379 1_554 S
C1627 C1630 1.498 . S
C1628 H1608 0.950 . S
C1628 C1627 1.379 1_556 S
C1628 C1629 1.374 . S
C1629 H1609 0.950 . S
C1629 C1625 1.371 1_556 S
C1629 C1628 1.374 . S
C1630 C1627 1.498 . S
C1630 C1631 1.360 1_554 S
C1630 C1632 1.403 . S
C1631 H1610 0.950 . S
C1631 C1630 1.360 1_556 S
C1631 C1647 1.377 . S
C1632 C1630 1.403 . S
C1632 C1633 1.524 . S
C1632 C1646 1.377 . S
C1633 C1632 1.524 . S
C1633 C1634 1.397 . S
C1633 C1638 1.363 . S
C1634 H1611 0.950 . S
C1634 C1633 1.397 . S
C1634 C1635 1.334 . S
C1635 H1612 0.950 . S
C1635 C1634 1.334 . S
C1635 C1636 1.287 . S
C1636 C1635 1.287 . S
C1636 C1637 1.524 . S
C1636 H1655 0.913 . S
C1637 H1613 0.950 . S
C1637 C1636 1.524 . S
C1637 C1638 1.415 . S
C1638 H1614 0.950 . S
C1638 C1633 1.363 . S
C1638 C1637 1.415 . S
C1639 H1615 0.951 . S
C1639 C1640 1.369 . S
C1639 C1641 1.388 . S
C1640 C1639 1.369 . S
C1640 C1644 1.381 1_556 S
C1641 H1616 0.951 . S
C1641 C1639 1.388 . S
C1641 C1642 1.390 . S
C1642 C1641 1.390 . S
C1642 C1643 1.389 1_556 S
C1642 C1645 1.498 . S
C1643 H1617 0.950 . S
C1643 C1642 1.389 1_554 S
C1643 C1644 1.374 . S
C1644 H1618 0.950 . S
C1644 C1640 1.381 1_554 S
C1644 C1643 1.374 . S
C1645 C1642 1.498 . S
C1645 C1646 1.372 1_556 S
C1645 C1647 1.390 . S
C1646 H1619 0.950 . S
C1646 C1632 1.377 . S
C1646 C1645 1.372 1_554 S
C1647 C1631 1.377 . S
C1647 C1645 1.390 . S
C1647 C1648 1.524 . S
C1648 C1647 1.524 . S
C1648 C1649 1.397 . S
C1648 C1653 1.363 . S
C1649 H1620 0.950 . S
C1649 C1648 1.397 . S
C1649 C1650 1.334 . S
C1650 H1621 0.950 . S
C1650 C1649 1.334 . S
C1650 C1651 1.287 . S
C1651 C1650 1.287 . S
C1651 C1652 1.524 . S
C1651 H1654 0.999 . S
C1652 H1622 0.950 . S
C1652 C1651 1.524 . S
C1652 C1653 1.415 . S
C1653 H1623 0.950 . S
C1653 C1648 1.363 . S
C1653 C1652 1.415 . S
H1654 C1651 0.999 . S
H1655 C1636 0.913 . S
H1656 C1674 0.951 . S
H1657 C1676 0.951 . S
H1658 C1678 0.950 . S
H1659 C1679 0.950 . S
H1660 C1681 0.950 . S
H1661 C1684 0.950 . S
H1662 C1685 0.950 . S
H1663 C1687 0.950 . S
H1664 C1688 0.950 . S
H1665 C1689 0.951 . S
H1666 C1691 0.951 . S
H1667 C1693 0.950 . S
H1668 C1694 0.950 . S
H1669 C1696 0.950 . S
H1670 C1699 0.950 . S
H1671 C1700 0.950 . S
H1672 C1702 0.950 . S
H1673 C1703 0.950 . S
C1674 H1656 0.951 . S
C1674 C1675 1.366 . S
C1674 C1676 1.388 . S
C1675 C1674 1.366 . S
C1675 C1679 1.385 . S
C1676 H1657 0.951 . S
C1676 C1674 1.388 . S
C1676 C1677 1.366 . S
C1677 C1676 1.366 . S
C1677 C1678 1.414 . S
C1677 C1680 1.499 . S
C1678 H1658 0.950 . S
C1678 C1677 1.414 . S
C1678 C1679 1.374 . S
C1679 H1659 0.950 . S
C1679 C1675 1.385 . S
C1679 C1678 1.374 . S
C1680 C1677 1.499 . S
C1680 C1681 1.373 . S
C1680 C1682 1.389 . S
C1681 H1660 0.950 . S
C1681 C1680 1.373 . S
C1681 C1697 1.377 . S
C1682 C1680 1.389 . S
C1682 C1683 1.524 . S
C1682 C1696 1.377 . S
C1683 C1682 1.524 . S
C1683 C1684 1.397 . S
C1683 C1688 1.363 . S
C1684 H1661 0.950 . S
C1684 C1683 1.397 . S
C1684 C1685 1.334 . S
C1685 H1662 0.950 . S
C1685 C1684 1.334 . S
C1685 C1686 1.287 . S
C1686 C1685 1.287 . S
C1686 C1687 1.524 . S
C1686 H1705 0.913 . S
C1687 H1663 0.950 . S
C1687 C1686 1.524 . S
C1687 C1688 1.415 . S
C1688 H1664 0.950 . S
C1688 C1683 1.363 . S
C1688 C1687 1.415 . S
C1689 H1665 0.951 . S
C1689 C1690 1.366 . S
C1689 C1691 1.388 . S
C1690 C1689 1.366 . S
C1690 C1694 1.385 . S
C1691 H1666 0.951 . S
C1691 C1689 1.388 . S
C1691 C1692 1.366 . S
C1692 C1691 1.366 . S
C1692 C1693 1.414 . S
C1692 C1695 1.499 . S
C1693 H1667 0.950 . S
C1693 C1692 1.414 . S
C1693 C1694 1.374 . S
C1694 H1668 0.950 . S
C1694 C1690 1.385 . S
C1694 C1693 1.374 . S
C1695 C1692 1.499 . S
C1695 C1696 1.373 . S
C1695 C1697 1.389 . S
C1696 H1669 0.950 . S
C1696 C1682 1.377 . S
C1696 C1695 1.373 . S
C1697 C1681 1.377 . S
C1697 C1695 1.389 . S
C1697 C1698 1.524 . S
C1698 C1697 1.524 . S
C1698 C1699 1.397 . S
C1698 C1703 1.363 . S
C1699 H1670 0.950 . S
C1699 C1698 1.397 . S
C1699 C1700 1.334 . S
C1700 H1671 0.950 . S
C1700 C1699 1.334 . S
C1700 C1701 1.287 . S
C1701 C1700 1.287 . S
C1701 C1702 1.524 . S
C1701 H1704 0.999 . S
C1702 H1672 0.950 . S
C1702 C1701 1.524 . S
C1702 C1703 1.415 . S
C1703 H1673 0.950 . S
C1703 C1698 1.363 . S
C1703 C1702 1.415 . S
H1704 C1701 0.999 . S
H1705 C1686 0.913 . S
H1706 C1724 0.951 . S
H1707 C1726 0.951 . S
H1708 C1728 0.950 . S
H1709 C1729 0.950 . S
H1710 C1731 0.950 . S
H1711 C1734 0.950 . S
H1712 C1735 0.950 . S
H1713 C1737 0.950 . S
H1714 C1738 0.950 . S
H1715 C1739 0.951 . S
H1716 C1741 0.951 . S
H1717 C1743 0.950 . S
H1718 C1744 0.950 . S
H1719 C1746 0.950 . S
H1720 C1749 0.950 . S
H1721 C1750 0.950 . S
H1722 C1752 0.950 . S
H1723 C1753 0.950 . S
C1724 H1706 0.951 . S
C1724 C1725 1.366 . S
C1724 C1726 1.388 . S
C1725 C1724 1.366 . S
C1725 C1729 1.385 . S
C1726 H1707 0.951 . S
C1726 C1724 1.388 . S
C1726 C1727 1.366 . S
C1727 C1726 1.366 . S
C1727 C1728 1.414 . S
C1727 C1730 1.499 . S
C1728 H1708 0.950 . S
C1728 C1727 1.414 . S
C1728 C1729 1.374 . S
C1729 H1709 0.950 . S
C1729 C1725 1.385 . S
C1729 C1728 1.374 . S
C1730 C1727 1.499 . S
C1730 C1731 1.373 . S
C1730 C1732 1.389 . S
C1731 H1710 0.950 . S
C1731 C1730 1.373 . S
C1731 C1747 1.377 . S
C1732 C1730 1.389 . S
C1732 C1733 1.524 . S
C1732 C1746 1.377 . S
C1733 C1732 1.524 . S
C1733 C1734 1.397 . S
C1733 C1738 1.363 . S
C1734 H1711 0.950 . S
C1734 C1733 1.397 . S
C1734 C1735 1.334 . S
C1735 H1712 0.950 . S
C1735 C1734 1.334 . S
C1735 C1736 1.287 . S
C1736 C1735 1.287 . S
C1736 C1737 1.524 . S
C1736 H1755 0.913 . S
C1737 H1713 0.950 . S
C1737 C1736 1.524 . S
C1737 C1738 1.415 . S
C1738 H1714 0.950 . S
C1738 C1733 1.363 . S
C1738 C1737 1.415 . S
C1739 H1715 0.951 . S
C1739 C1740 1.366 . S
C1739 C1741 1.388 . S
C1740 C1739 1.366 . S
C1740 C1744 1.385 . S
C1741 H1716 0.951 . S
C1741 C1739 1.388 . S
C1741 C1742 1.366 . S
C1742 C1741 1.366 . S
C1742 C1743 1.414 . S
C1742 C1745 1.499 . S
C1743 H1717 0.950 . S
C1743 C1742 1.414 . S
C1743 C1744 1.374 . S
C1744 H1718 0.950 . S
C1744 C1740 1.385 . S
C1744 C1743 1.374 . S
C1745 C1742 1.499 . S
C1745 C1746 1.373 . S
C1745 C1747 1.389 . S
C1746 H1719 0.950 . S
C1746 C1732 1.377 . S
C1746 C1745 1.373 . S
C1747 C1731 1.377 . S
C1747 C1745 1.389 . S
C1747 C1748 1.524 . S
C1748 C1747 1.524 . S
C1748 C1749 1.397 . S
C1748 C1753 1.363 . S
C1749 H1720 0.950 . S
C1749 C1748 1.397 . S
C1749 C1750 1.334 . S
C1750 H1721 0.950 . S
C1750 C1749 1.334 . S
C1750 C1751 1.287 . S
C1751 C1750 1.287 . S
C1751 C1752 1.524 . S
C1751 H1754 0.999 . S
C1752 H1722 0.950 . S
C1752 C1751 1.524 . S
C1752 C1753 1.415 . S
C1753 H1723 0.950 . S
C1753 C1748 1.363 . S
C1753 C1752 1.415 . S
H1754 C1751 0.999 . S
H1755 C1736 0.913 . S
H1756 C1774 0.951 . S
H1757 C1776 0.951 . S
H1758 C1778 0.950 . S
H1759 C1779 0.950 . S
H1760 C1781 0.950 . S
H1761 C1784 0.950 . S
H1762 C1785 0.950 . S
H1763 C1787 0.950 . S
H1764 C1788 0.950 . S
H1765 C1789 0.951 . S
H1766 C1791 0.951 . S
H1767 C1793 0.950 . S
H1768 C1794 0.950 . S
H1769 C1796 0.950 . S
H1770 C1799 0.950 . S
H1771 C1800 0.950 . S
H1772 C1802 0.950 . S
H1773 C1803 0.950 . S
C1774 H1756 0.951 . S
C1774 C1775 1.366 . S
C1774 C1776 1.388 . S
C1775 C1774 1.366 . S
C1775 C1779 1.385 . S
C1776 H1757 0.951 . S
C1776 C1774 1.388 . S
C1776 C1777 1.366 . S
C1777 C1776 1.366 . S
C1777 C1778 1.414 . S
C1777 C1780 1.499 . S
C1778 H1758 0.950 . S
C1778 C1777 1.414 . S
C1778 C1779 1.374 . S
C1779 H1759 0.950 . S
C1779 C1775 1.385 . S
C1779 C1778 1.374 . S
C1780 C1777 1.499 . S
C1780 C1781 1.373 . S
C1780 C1782 1.389 . S
C1781 H1760 0.950 . S
C1781 C1780 1.373 . S
C1781 C1797 1.377 . S
C1782 C1780 1.389 . S
C1782 C1783 1.524 . S
C1782 C1796 1.377 . S
C1783 C1782 1.524 . S
C1783 C1784 1.397 . S
C1783 C1788 1.363 . S
C1784 H1761 0.950 . S
C1784 C1783 1.397 . S
C1784 C1785 1.334 . S
C1785 H1762 0.950 . S
C1785 C1784 1.334 . S
C1785 C1786 1.287 . S
C1786 C1785 1.287 . S
C1786 C1787 1.524 . S
C1786 H1805 0.913 . S
C1787 H1763 0.950 . S
C1787 C1786 1.524 . S
C1787 C1788 1.415 . S
C1788 H1764 0.950 . S
C1788 C1783 1.363 . S
C1788 C1787 1.415 . S
C1789 H1765 0.951 . S
C1789 C1790 1.366 . S
C1789 C1791 1.388 . S
C1790 C1789 1.366 . S
C1790 C1794 1.385 . S
C1791 H1766 0.951 . S
C1791 C1789 1.388 . S
C1791 C1792 1.366 . S
C1792 C1791 1.366 . S
C1792 C1793 1.414 . S
C1792 C1795 1.499 . S
C1793 H1767 0.950 . S
C1793 C1792 1.414 . S
C1793 C1794 1.374 . S
C1794 H1768 0.950 . S
C1794 C1790 1.385 . S
C1794 C1793 1.374 . S
C1795 C1792 1.499 . S
C1795 C1796 1.373 . S
C1795 C1797 1.389 . S
C1796 H1769 0.950 . S
C1796 C1782 1.377 . S
C1796 C1795 1.373 . S
C1797 C1781 1.377 . S
C1797 C1795 1.389 . S
C1797 C1798 1.524 . S
C1798 C1797 1.524 . S
C1798 C1799 1.397 . S
C1798 C1803 1.363 . S
C1799 H1770 0.950 . S
C1799 C1798 1.397 . S
C1799 C1800 1.334 . S
C1800 H1771 0.950 . S
C1800 C1799 1.334 . S
C1800 C1801 1.287 . S
C1801 C1800 1.287 . S
C1801 C1802 1.524 . S
C1801 H1804 0.999 . S
C1802 H1772 0.950 . S
C1802 C1801 1.524 . S
C1802 C1803 1.415 . S
C1803 H1773 0.950 . S
C1803 C1798 1.363 . S
C1803 C1802 1.415 . S
H1804 C1801 0.999 . S
H1805 C1786 0.913 . S
H1806 C1824 0.951 . S
H1807 C1826 0.951 . S
H1808 C1828 0.950 . S
H1809 C1829 0.950 . S
H1810 C1831 0.950 . S
H1811 C1834 0.950 . S
H1812 C1835 0.950 . S
H1813 C1837 0.950 . S
H1814 C1838 0.950 . S
H1815 C1839 0.951 . S
H1816 C1841 0.951 . S
H1817 C1843 0.950 . S
H1818 C1844 0.950 . S
H1819 C1846 0.950 . S
H1820 C1849 0.950 . S
H1821 C1850 0.950 . S
H1822 C1852 0.950 . S
H1823 C1853 0.950 . S
C1824 H1806 0.951 . S
C1824 C1825 1.366 . S
C1824 C1826 1.388 . S
C1825 C1824 1.366 . S
C1825 C1829 1.385 . S
C1826 H1807 0.951 . S
C1826 C1824 1.388 . S
C1826 C1827 1.366 . S
C1827 C1826 1.366 . S
C1827 C1828 1.414 . S
C1827 C1830 1.499 . S
C1828 H1808 0.950 . S
C1828 C1827 1.414 . S
C1828 C1829 1.374 . S
C1829 H1809 0.950 . S
C1829 C1825 1.385 . S
C1829 C1828 1.374 . S
C1830 C1827 1.499 . S
C1830 C1831 1.373 . S
C1830 C1832 1.389 . S
C1831 H1810 0.950 . S
C1831 C1830 1.373 . S
C1831 C1847 1.377 . S
C1832 C1830 1.389 . S
C1832 C1833 1.524 . S
C1832 C1846 1.377 . S
C1833 C1832 1.524 . S
C1833 C1834 1.397 . S
C1833 C1838 1.363 . S
C1834 H1811 0.950 . S
C1834 C1833 1.397 . S
C1834 C1835 1.334 . S
C1835 H1812 0.950 . S
C1835 C1834 1.334 . S
C1835 C1836 1.287 . S
C1836 C1835 1.287 . S
C1836 C1837 1.524 . S
C1836 H1855 0.913 . S
C1837 H1813 0.950 . S
C1837 C1836 1.524 . S
C1837 C1838 1.415 . S
C1838 H1814 0.950 . S
C1838 C1833 1.363 . S
C1838 C1837 1.415 . S
C1839 H1815 0.951 . S
C1839 C1840 1.366 . S
C1839 C1841 1.388 . S
C1840 C1839 1.366 . S
C1840 C1844 1.385 . S
C1841 H1816 0.951 . S
C1841 C1839 1.388 . S
C1841 C1842 1.366 . S
C1842 C1841 1.366 . S
C1842 C1843 1.414 . S
C1842 C1845 1.499 . S
C1843 H1817 0.950 . S
C1843 C1842 1.414 . S
C1843 C1844 1.374 . S
C1844 H1818 0.950 . S
C1844 C1840 1.385 . S
C1844 C1843 1.374 . S
C1845 C1842 1.499 . S
C1845 C1846 1.373 . S
C1845 C1847 1.389 . S
C1846 H1819 0.950 . S
C1846 C1832 1.377 . S
C1846 C1845 1.373 . S
C1847 C1831 1.377 . S
C1847 C1845 1.389 . S
C1847 C1848 1.524 . S
C1848 C1847 1.524 . S
C1848 C1849 1.397 . S
C1848 C1853 1.363 . S
C1849 H1820 0.950 . S
C1849 C1848 1.397 . S
C1849 C1850 1.334 . S
C1850 H1821 0.950 . S
C1850 C1849 1.334 . S
C1850 C1851 1.287 . S
C1851 C1850 1.287 . S
C1851 C1852 1.524 . S
C1851 H1854 0.999 . S
C1852 H1822 0.950 . S
C1852 C1851 1.524 . S
C1852 C1853 1.415 . S
C1853 H1823 0.950 . S
C1853 C1848 1.363 . S
C1853 C1852 1.415 . S
H1854 C1851 0.999 . S
H1855 C1836 0.913 . S
H1856 C1874 0.951 . S
H1857 C1876 0.951 . S
H1858 C1878 0.950 . S
H1859 C1879 0.950 . S
H1860 C1881 0.950 . S
H1861 C1884 0.950 . S
H1862 C1885 0.950 . S
H1863 C1887 0.950 . S
H1864 C1888 0.950 . S
H1865 C1889 0.951 . S
H1866 C1891 0.951 . S
H1867 C1893 0.950 . S
H1868 C1894 0.950 . S
H1869 C1896 0.950 . S
H1870 C1899 0.950 . S
H1871 C1900 0.950 . S
H1872 C1902 0.950 . S
H1873 C1903 0.950 . S
C1874 H1856 0.951 . S
C1874 C1875 1.366 . S
C1874 C1876 1.388 . S
C1875 C1874 1.366 . S
C1875 C1879 1.385 . S
C1876 H1857 0.951 . S
C1876 C1874 1.388 . S
C1876 C1877 1.366 . S
C1877 C1876 1.366 . S
C1877 C1878 1.414 . S
C1877 C1880 1.499 . S
C1878 H1858 0.950 . S
C1878 C1877 1.414 . S
C1878 C1879 1.374 . S
C1879 H1859 0.950 . S
C1879 C1875 1.385 . S
C1879 C1878 1.374 . S
C1880 C1877 1.499 . S
C1880 C1881 1.373 . S
C1880 C1882 1.389 . S
C1881 H1860 0.950 . S
C1881 C1880 1.373 . S
C1881 C1897 1.377 . S
C1882 C1880 1.389 . S
C1882 C1883 1.524 . S
C1882 C1896 1.377 . S
C1883 C1882 1.524 . S
C1883 C1884 1.397 . S
C1883 C1888 1.363 . S
C1884 H1861 0.950 . S
C1884 C1883 1.397 . S
C1884 C1885 1.334 . S
C1885 H1862 0.950 . S
C1885 C1884 1.334 . S
C1885 C1886 1.287 . S
C1886 C1885 1.287 . S
C1886 C1887 1.524 . S
C1886 H1905 0.913 . S
C1887 H1863 0.950 . S
C1887 C1886 1.524 . S
C1887 C1888 1.415 . S
C1888 H1864 0.950 . S
C1888 C1883 1.363 . S
C1888 C1887 1.415 . S
C1889 H1865 0.951 . S
C1889 C1890 1.366 . S
C1889 C1891 1.388 . S
C1890 C1889 1.366 . S
C1890 C1894 1.385 . S
C1891 H1866 0.951 . S
C1891 C1889 1.388 . S
C1891 C1892 1.366 . S
C1892 C1891 1.366 . S
C1892 C1893 1.414 . S
C1892 C1895 1.499 . S
C1893 H1867 0.950 . S
C1893 C1892 1.414 . S
C1893 C1894 1.374 . S
C1894 H1868 0.950 . S
C1894 C1890 1.385 . S
C1894 C1893 1.374 . S
C1895 C1892 1.499 . S
C1895 C1896 1.373 . S
C1895 C1897 1.389 . S
C1896 H1869 0.950 . S
C1896 C1882 1.377 . S
C1896 C1895 1.373 . S
C1897 C1881 1.377 . S
C1897 C1895 1.389 . S
C1897 C1898 1.524 . S
C1898 C1897 1.524 . S
C1898 C1899 1.397 . S
C1898 C1903 1.363 . S
C1899 H1870 0.950 . S
C1899 C1898 1.397 . S
C1899 C1900 1.334 . S
C1900 H1871 0.950 . S
C1900 C1899 1.334 . S
C1900 C1901 1.287 . S
C1901 C1900 1.287 . S
C1901 C1902 1.524 . S
C1901 H1904 0.999 . S
C1902 H1872 0.950 . S
C1902 C1901 1.524 . S
C1902 C1903 1.415 . S
C1903 H1873 0.950 . S
C1903 C1898 1.363 . S
C1903 C1902 1.415 . S
H1904 C1901 0.999 . S
H1905 C1886 0.913 . S
H1906 C1924 0.951 . S
H1907 C1926 0.951 . S
H1908 C1928 0.950 . S
H1909 C1929 0.950 . S
H1910 C1931 0.950 . S
H1911 C1934 0.950 . S
H1912 C1935 0.950 . S
H1913 C1937 0.950 . S
H1914 C1938 0.950 . S
H1915 C1939 0.951 . S
H1916 C1941 0.951 . S
H1917 C1943 0.950 . S
H1918 C1944 0.950 . S
H1919 C1946 0.950 . S
H1920 C1949 0.950 . S
H1921 C1950 0.950 . S
H1922 C1952 0.950 . S
H1923 C1953 0.950 . S
C1924 H1906 0.951 . S
C1924 C1925 1.366 . S
C1924 C1926 1.388 . S
C1925 C1924 1.366 . S
C1925 C1929 1.385 . S
C1926 H1907 0.951 . S
C1926 C1924 1.388 . S
C1926 C1927 1.366 . S
C1927 C1926 1.366 . S
C1927 C1928 1.414 . S
C1927 C1930 1.499 . S
C1928 H1908 0.950 . S
C1928 C1927 1.414 . S
C1928 C1929 1.374 . S
C1929 H1909 0.950 . S
C1929 C1925 1.385 . S
C1929 C1928 1.374 . S
C1930 C1927 1.499 . S
C1930 C1931 1.373 . S
C1930 C1932 1.389 . S
C1931 H1910 0.950 . S
C1931 C1930 1.373 . S
C1931 C1947 1.377 . S
C1932 C1930 1.389 . S
C1932 C1933 1.524 . S
C1932 C1946 1.377 . S
C1933 C1932 1.524 . S
C1933 C1934 1.397 . S
C1933 C1938 1.363 . S
C1934 H1911 0.950 . S
C1934 C1933 1.397 . S
C1934 C1935 1.334 . S
C1935 H1912 0.950 . S
C1935 C1934 1.334 . S
C1935 C1936 1.287 . S
C1936 C1935 1.287 . S
C1936 C1937 1.524 . S
C1936 H1955 0.913 . S
C1937 H1913 0.950 . S
C1937 C1936 1.524 . S
C1937 C1938 1.415 . S
C1938 H1914 0.950 . S
C1938 C1933 1.363 . S
C1938 C1937 1.415 . S
C1939 H1915 0.951 . S
C1939 C1940 1.366 . S
C1939 C1941 1.388 . S
C1940 C1939 1.366 . S
C1940 C1944 1.385 . S
C1941 H1916 0.951 . S
C1941 C1939 1.388 . S
C1941 C1942 1.366 . S
C1942 C1941 1.366 . S
C1942 C1943 1.414 . S
C1942 C1945 1.499 . S
C1943 H1917 0.950 . S
C1943 C1942 1.414 . S
C1943 C1944 1.374 . S
C1944 H1918 0.950 . S
C1944 C1940 1.385 . S
C1944 C1943 1.374 . S
C1945 C1942 1.499 . S
C1945 C1946 1.373 . S
C1945 C1947 1.389 . S
C1946 H1919 0.950 . S
C1946 C1932 1.377 . S
C1946 C1945 1.373 . S
C1947 C1931 1.377 . S
C1947 C1945 1.389 . S
C1947 C1948 1.524 . S
C1948 C1947 1.524 . S
C1948 C1949 1.397 . S
C1948 C1953 1.363 . S
C1949 H1920 0.950 . S
C1949 C1948 1.397 . S
C1949 C1950 1.334 . S
C1950 H1921 0.950 . S
C1950 C1949 1.334 . S
C1950 C1951 1.287 . S
C1951 C1950 1.287 . S
C1951 C1952 1.524 . S
C1951 H1954 0.999 . S
C1952 H1922 0.950 . S
C1952 C1951 1.524 . S
C1952 C1953 1.415 . S
C1953 H1923 0.950 . S
C1953 C1948 1.363 . S
C1953 C1952 1.415 . S
H1954 C1951 0.999 . S
H1955 C1936 0.913 . S
H1956 C1974 0.951 . S
H1957 C1976 0.951 . S
H1958 C1978 0.950 . S
H1959 C1979 0.950 . S
H1960 C1981 0.950 . S
H1961 C1984 0.950 . S
H1962 C1985 0.950 . S
H1963 C1987 0.950 . S
H1964 C1988 0.950 . S
H1965 C1989 0.951 . S
H1966 C1991 0.951 . S
H1967 C1993 0.950 . S
H1968 C1994 0.950 . S
H1969 C1996 0.950 . S
H1970 C1999 0.950 . S
H1971 C2000 0.950 . S
H1972 C2002 0.950 . S
H1973 C2003 0.950 . S
C1974 H1956 0.951 . S
C1974 C1975 1.366 . S
C1974 C1976 1.388 . S
C1975 C1974 1.366 . S
C1975 C1979 1.385 . S
C1976 H1957 0.951 . S
C1976 C1974 1.388 . S
C1976 C1977 1.366 . S
C1977 C1976 1.366 . S
C1977 C1978 1.414 . S
C1977 C1980 1.499 . S
C1978 H1958 0.950 . S
C1978 C1977 1.414 . S
C1978 C1979 1.374 . S
C1979 H1959 0.950 . S
C1979 C1975 1.385 . S
C1979 C1978 1.374 . S
C1980 C1977 1.499 . S
C1980 C1981 1.373 . S
C1980 C1982 1.389 . S
C1981 H1960 0.950 . S
C1981 C1980 1.373 . S
C1981 C1997 1.377 . S
C1982 C1980 1.389 . S
C1982 C1983 1.524 . S
C1982 C1996 1.377 . S
C1983 C1982 1.524 . S
C1983 C1984 1.397 . S
C1983 C1988 1.363 . S
C1984 H1961 0.950 . S
C1984 C1983 1.397 . S
C1984 C1985 1.334 . S
C1985 H1962 0.950 . S
C1985 C1984 1.334 . S
C1985 C1986 1.287 . S
C1986 C1985 1.287 . S
C1986 C1987 1.524 . S
C1986 H2005 0.913 . S
C1987 H1963 0.950 . S
C1987 C1986 1.524 . S
C1987 C1988 1.415 . S
C1988 H1964 0.950 . S
C1988 C1983 1.363 . S
C1988 C1987 1.415 . S
C1989 H1965 0.951 . S
C1989 C1990 1.366 . S
C1989 C1991 1.388 . S
C1990 C1989 1.366 . S
C1990 C1994 1.385 . S
C1991 H1966 0.951 . S
C1991 C1989 1.388 . S
C1991 C1992 1.366 . S
C1992 C1991 1.366 . S
C1992 C1993 1.414 . S
C1992 C1995 1.499 . S
C1993 H1967 0.950 . S
C1993 C1992 1.414 . S
C1993 C1994 1.374 . S
C1994 H1968 0.950 . S
C1994 C1990 1.385 . S
C1994 C1993 1.374 . S
C1995 C1992 1.499 . S
C1995 C1996 1.373 . S
C1995 C1997 1.389 . S
C1996 H1969 0.950 . S
C1996 C1982 1.377 . S
C1996 C1995 1.373 . S
C1997 C1981 1.377 . S
C1997 C1995 1.389 . S
C1997 C1998 1.524 . S
C1998 C1997 1.524 . S
C1998 C1999 1.397 . S
C1998 C2003 1.363 . S
C1999 H1970 0.950 . S
C1999 C1998 1.397 . S
C1999 C2000 1.334 . S
C2000 H1971 0.950 . S
C2000 C1999 1.334 . S
C2000 C2001 1.287 . S
C2001 C2000 1.287 . S
C2001 C2002 1.524 . S
C2001 H2004 0.999 . S
C2002 H1972 0.950 . S
C2002 C2001 1.524 . S
C2002 C2003 1.415 . S
C2003 H1973 0.950 . S
C2003 C1998 1.363 . S
C2003 C2002 1.415 . S
H2004 C2001 0.999 . S
H2005 C1986 0.913 . S
H2006 C2024 0.951 . S
H2007 C2026 0.951 . S
H2008 C2028 0.950 . S
H2009 C2029 0.950 . S
H2010 C2031 0.950 . S
H2011 C2034 0.950 . S
H2012 C2035 0.950 . S
H2013 C2037 0.950 . S
H2014 C2038 0.950 . S
H2015 C2039 0.951 . S
H2016 C2041 0.951 . S
H2017 C2043 0.950 . S
H2018 C2044 0.950 . S
H2019 C2046 0.950 . S
H2020 C2049 0.950 . S
H2021 C2050 0.950 . S
H2022 C2052 0.950 . S
H2023 C2053 0.950 . S
C2024 H2006 0.951 . S
C2024 C2025 1.366 . S
C2024 C2026 1.388 . S
C2025 C2024 1.366 . S
C2025 C2029 1.385 . S
C2026 H2007 0.951 . S
C2026 C2024 1.388 . S
C2026 C2027 1.366 . S
C2027 C2026 1.366 . S
C2027 C2028 1.414 . S
C2027 C2030 1.499 . S
C2028 H2008 0.950 . S
C2028 C2027 1.414 . S
C2028 C2029 1.374 . S
C2029 H2009 0.950 . S
C2029 C2025 1.385 . S
C2029 C2028 1.374 . S
C2030 C2027 1.499 . S
C2030 C2031 1.373 . S
C2030 C2032 1.389 . S
C2031 H2010 0.950 . S
C2031 C2030 1.373 . S
C2031 C2047 1.377 . S
C2032 C2030 1.389 . S
C2032 C2033 1.524 . S
C2032 C2046 1.377 . S
C2033 C2032 1.524 . S
C2033 C2034 1.397 . S
C2033 C2038 1.363 . S
C2034 H2011 0.950 . S
C2034 C2033 1.397 . S
C2034 C2035 1.334 . S
C2035 H2012 0.950 . S
C2035 C2034 1.334 . S
C2035 C2036 1.287 . S
C2036 C2035 1.287 . S
C2036 C2037 1.524 . S
C2036 H2055 0.913 . S
C2037 H2013 0.950 . S
C2037 C2036 1.524 . S
C2037 C2038 1.415 . S
C2038 H2014 0.950 . S
C2038 C2033 1.363 . S
C2038 C2037 1.415 . S
C2039 H2015 0.951 . S
C2039 C2040 1.366 . S
C2039 C2041 1.388 . S
C2040 C2039 1.366 . S
C2040 C2044 1.385 . S
C2041 H2016 0.951 . S
C2041 C2039 1.388 . S
C2041 C2042 1.366 . S
C2042 C2041 1.366 . S
C2042 C2043 1.414 . S
C2042 C2045 1.499 . S
C2043 H2017 0.950 . S
C2043 C2042 1.414 . S
C2043 C2044 1.374 . S
C2044 H2018 0.950 . S
C2044 C2040 1.385 . S
C2044 C2043 1.374 . S
C2045 C2042 1.499 . S
C2045 C2046 1.373 . S
C2045 C2047 1.389 . S
C2046 H2019 0.950 . S
C2046 C2032 1.377 . S
C2046 C2045 1.373 . S
C2047 C2031 1.377 . S
C2047 C2045 1.389 . S
C2047 C2048 1.524 . S
C2048 C2047 1.524 . S
C2048 C2049 1.397 . S
C2048 C2053 1.363 . S
C2049 H2020 0.950 . S
C2049 C2048 1.397 . S
C2049 C2050 1.334 . S
C2050 H2021 0.950 . S
C2050 C2049 1.334 . S
C2050 C2051 1.287 . S
C2051 C2050 1.287 . S
C2051 C2052 1.524 . S
C2051 H2054 0.999 . S
C2052 H2022 0.950 . S
C2052 C2051 1.524 . S
C2052 C2053 1.415 . S
C2053 H2023 0.950 . S
C2053 C2048 1.363 . S
C2053 C2052 1.415 . S
H2054 C2051 0.999 . S
H2055 C2036 0.913 . S
H2056 C2074 0.951 . S
H2057 C2076 0.951 . S
H2058 C2078 0.950 . S
H2059 C2079 0.950 . S
H2060 C2081 0.950 . S
H2061 C2084 0.950 . S
H2062 C2085 0.950 . S
H2063 C2087 0.950 . S
H2064 C2088 0.950 . S
H2065 C2089 0.951 . S
H2066 C2091 0.951 . S
H2067 C2093 0.950 . S
H2068 C2094 0.950 . S
H2069 C2096 0.950 . S
H2070 C2099 0.950 . S
H2071 C2100 0.950 . S
H2072 C2102 0.950 . S
H2073 C2103 0.950 . S
C2074 H2056 0.951 . S
C2074 C2075 1.366 . S
C2074 C2076 1.388 . S
C2075 C2074 1.366 . S
C2075 C2079 1.385 . S
C2076 H2057 0.951 . S
C2076 C2074 1.388 . S
C2076 C2077 1.366 . S
C2077 C2076 1.366 . S
C2077 C2078 1.414 . S
C2077 C2080 1.499 . S
C2078 H2058 0.950 . S
C2078 C2077 1.414 . S
C2078 C2079 1.374 . S
C2079 H2059 0.950 . S
C2079 C2075 1.385 . S
C2079 C2078 1.374 . S
C2080 C2077 1.499 . S
C2080 C2081 1.373 . S
C2080 C2082 1.389 . S
C2081 H2060 0.950 . S
C2081 C2080 1.373 . S
C2081 C2097 1.377 . S
C2082 C2080 1.389 . S
C2082 C2083 1.524 . S
C2082 C2096 1.377 . S
C2083 C2082 1.524 . S
C2083 C2084 1.397 . S
C2083 C2088 1.363 . S
C2084 H2061 0.950 . S
C2084 C2083 1.397 . S
C2084 C2085 1.334 . S
C2085 H2062 0.950 . S
C2085 C2084 1.334 . S
C2085 C2086 1.287 . S
C2086 C2085 1.287 . S
C2086 C2087 1.524 . S
C2086 H2105 0.913 . S
C2087 H2063 0.950 . S
C2087 C2086 1.524 . S
C2087 C2088 1.415 . S
C2088 H2064 0.950 . S
C2088 C2083 1.363 . S
C2088 C2087 1.415 . S
C2089 H2065 0.951 . S
C2089 C2090 1.366 . S
C2089 C2091 1.388 . S
C2090 C2089 1.366 . S
C2090 C2094 1.385 . S
C2091 H2066 0.951 . S
C2091 C2089 1.388 . S
C2091 C2092 1.366 . S
C2092 C2091 1.366 . S
C2092 C2093 1.414 . S
C2092 C2095 1.499 . S
C2093 H2067 0.950 . S
C2093 C2092 1.414 . S
C2093 C2094 1.374 . S
C2094 H2068 0.950 . S
C2094 C2090 1.385 . S
C2094 C2093 1.374 . S
C2095 C2092 1.499 . S
C2095 C2096 1.373 . S
C2095 C2097 1.389 . S
C2096 H2069 0.950 . S
C2096 C2082 1.377 . S
C2096 C2095 1.373 . S
C2097 C2081 1.377 . S
C2097 C2095 1.389 . S
C2097 C2098 1.524 . S
C2098 C2097 1.524 . S
C2098 C2099 1.397 . S
C2098 C2103 1.363 . S
C2099 H2070 0.950 . S
C2099 C2098 1.397 . S
C2099 C2100 1.334 . S
C2100 H2071 0.950 . S
C2100 C2099 1.334 . S
C2100 C2101 1.287 . S
C2101 C2100 1.287 . S
C2101 C2102 1.524 . S
C2101 H2104 0.999 . S
C2102 H2072 0.950 . S
C2102 C2101 1.524 . S
C2102 C2103 1.415 . S
C2103 H2073 0.950 . S
C2103 C2098 1.363 . S
C2103 C2102 1.415 . S
H2104 C2101 0.999 . S
H2105 C2086 0.913 . S
H2106 C2124 0.951 . S
H2107 C2126 0.951 . S
H2108 C2128 0.950 . S
H2109 C2129 0.950 . S
H2110 C2131 0.950 . S
H2111 C2134 0.950 . S
H2112 C2135 0.950 . S
H2113 C2137 0.950 . S
H2114 C2138 0.950 . S
H2115 C2139 0.951 . S
H2116 C2141 0.951 . S
H2117 C2143 0.950 . S
H2118 C2144 0.950 . S
H2119 C2146 0.950 . S
H2120 C2149 0.950 . S
H2121 C2150 0.950 . S
H2122 C2152 0.950 . S
H2123 C2153 0.950 . S
C2124 H2106 0.951 . S
C2124 C2125 1.366 . S
C2124 C2126 1.388 . S
C2125 C2124 1.366 . S
C2125 C2129 1.385 . S
C2126 H2107 0.951 . S
C2126 C2124 1.388 . S
C2126 C2127 1.366 . S
C2127 C2126 1.366 . S
C2127 C2128 1.414 . S
C2127 C2130 1.499 . S
C2128 H2108 0.950 . S
C2128 C2127 1.414 . S
C2128 C2129 1.374 . S
C2129 H2109 0.950 . S
C2129 C2125 1.385 . S
C2129 C2128 1.374 . S
C2130 C2127 1.499 . S
C2130 C2131 1.373 . S
C2130 C2132 1.389 . S
C2131 H2110 0.950 . S
C2131 C2130 1.373 . S
C2131 C2147 1.377 . S
C2132 C2130 1.389 . S
C2132 C2133 1.524 . S
C2132 C2146 1.377 . S
C2133 C2132 1.524 . S
C2133 C2134 1.397 . S
C2133 C2138 1.363 . S
C2134 H2111 0.950 . S
C2134 C2133 1.397 . S
C2134 C2135 1.334 . S
C2135 H2112 0.950 . S
C2135 C2134 1.334 . S
C2135 C2136 1.287 . S
C2136 C2135 1.287 . S
C2136 C2137 1.524 . S
C2136 H2155 0.913 . S
C2137 H2113 0.950 . S
C2137 C2136 1.524 . S
C2137 C2138 1.415 . S
C2138 H2114 0.950 . S
C2138 C2133 1.363 . S
C2138 C2137 1.415 . S
C2139 H2115 0.951 . S
C2139 C2140 1.366 . S
C2139 C2141 1.388 . S
C2140 C2139 1.366 . S
C2140 C2144 1.385 . S
C2141 H2116 0.951 . S
C2141 C2139 1.388 . S
C2141 C2142 1.366 . S
C2142 C2141 1.366 . S
C2142 C2143 1.414 . S
C2142 C2145 1.499 . S
C2143 H2117 0.950 . S
C2143 C2142 1.414 . S
C2143 C2144 1.374 . S
C2144 H2118 0.950 . S
C2144 C2140 1.385 . S
C2144 C2143 1.374 . S
C2145 C2142 1.499 . S
C2145 C2146 1.373 . S
C2145 C2147 1.389 . S
C2146 H2119 0.950 . S
C2146 C2132 1.377 . S
C2146 C2145 1.373 . S
C2147 C2131 1.377 . S
C2147 C2145 1.389 . S
C2147 C2148 1.524 . S
C2148 C2147 1.524 . S
C2148 C2149 1.397 . S
C2148 C2153 1.363 . S
C2149 H2120 0.950 . S
C2149 C2148 1.397 . S
C2149 C2150 1.334 . S
C2150 H2121 0.950 . S
C2150 C2149 1.334 . S
C2150 C2151 1.287 . S
C2151 C2150 1.287 . S
C2151 C2152 1.524 . S
C2151 H2154 0.999 . S
C2152 H2122 0.950 . S
C2152 C2151 1.524 . S
C2152 C2153 1.415 . S
C2153 H2123 0.950 . S
C2153 C2148 1.363 . S
C2153 C2152 1.415 . S
H2154 C2151 0.999 . S
H2155 C2136 0.913 . S
H2156 C2174 0.951 . S
H2157 C2176 0.951 . S
H2158 C2178 0.950 . S
H2159 C2179 0.950 . S
H2160 C2181 0.950 . S
H2161 C2184 0.950 . S
H2162 C2185 0.950 . S
H2163 C2187 0.950 . S
H2164 C2188 0.950 . S
H2165 C2189 0.951 . S
H2166 C2191 0.951 . S
H2167 C2193 0.950 . S
H2168 C2194 0.950 . S
H2169 C2196 0.950 . S
H2170 C2199 0.950 . S
H2171 C2200 0.950 . S
H2172 C2202 0.950 . S
H2173 C2203 0.950 . S
C2174 H2156 0.951 . S
C2174 C2175 1.366 . S
C2174 C2176 1.388 . S
C2175 C2174 1.366 . S
C2175 C2179 1.385 . S
C2176 H2157 0.951 . S
C2176 C2174 1.388 . S
C2176 C2177 1.366 . S
C2177 C2176 1.366 . S
C2177 C2178 1.414 . S
C2177 C2180 1.499 . S
C2178 H2158 0.950 . S
C2178 C2177 1.414 . S
C2178 C2179 1.374 . S
C2179 H2159 0.950 . S
C2179 C2175 1.385 . S
C2179 C2178 1.374 . S
C2180 C2177 1.499 . S
C2180 C2181 1.373 . S
C2180 C2182 1.389 . S
C2181 H2160 0.950 . S
C2181 C2180 1.373 . S
C2181 C2197 1.377 . S
C2182 C2180 1.389 . S
C2182 C2183 1.524 . S
C2182 C2196 1.377 . S
C2183 C2182 1.524 . S
C2183 C2184 1.397 . S
C2183 C2188 1.363 . S
C2184 H2161 0.950 . S
C2184 C2183 1.397 . S
C2184 C2185 1.334 . S
C2185 H2162 0.950 . S
C2185 C2184 1.334 . S
C2185 C2186 1.287 . S
C2186 C2185 1.287 . S
C2186 C2187 1.524 . S
C2186 H2205 0.913 . S
C2187 H2163 0.950 . S
C2187 C2186 1.524 . S
C2187 C2188 1.415 . S
C2188 H2164 0.950 . S
C2188 C2183 1.363 . S
C2188 C2187 1.415 . S
C2189 H2165 0.951 . S
C2189 C2190 1.366 . S
C2189 C2191 1.388 . S
C2190 C2189 1.366 . S
C2190 C2194 1.385 . S
C2191 H2166 0.951 . S
C2191 C2189 1.388 . S
C2191 C2192 1.366 . S
C2192 C2191 1.366 . S
C2192 C2193 1.414 . S
C2192 C2195 1.499 . S
C2193 H2167 0.950 . S
C2193 C2192 1.414 . S
C2193 C2194 1.374 . S
C2194 H2168 0.950 . S
C2194 C2190 1.385 . S
C2194 C2193 1.374 . S
C2195 C2192 1.499 . S
C2195 C2196 1.373 . S
C2195 C2197 1.389 . S
C2196 H2169 0.950 . S
C2196 C2182 1.377 . S
C2196 C2195 1.373 . S
C2197 C2181 1.377 . S
C2197 C2195 1.389 . S
C2197 C2198 1.524 . S
C2198 C2197 1.524 . S
C2198 C2199 1.397 . S
C2198 C2203 1.363 . S
C2199 H2170 0.950 . S
C2199 C2198 1.397 . S
C2199 C2200 1.334 . S
C2200 H2171 0.950 . S
C2200 C2199 1.334 . S
C2200 C2201 1.287 . S
C2201 C2200 1.287 . S
C2201 C2202 1.524 . S
C2201 H2204 0.999 . S
C2202 H2172 0.950 . S
C2202 C2201 1.524 . S
C2202 C2203 1.415 . S
C2203 H2173 0.950 . S
C2203 C2198 1.363 . S
C2203 C2202 1.415 . S
H2204 C2201 0.999 . S
H2205 C2186 0.913 . S
H2206 C2224 0.951 . S
H2207 C2226 0.951 . S
H2208 C2228 0.950 . S
H2209 C2229 0.950 . S
H2210 C2231 0.950 . S
H2211 C2234 0.950 . S
H2212 C2235 0.950 . S
H2213 C2237 0.950 . S
H2214 C2238 0.950 . S
H2215 C2239 0.951 . S
H2216 C2241 0.951 . S
H2217 C2243 0.950 . S
H2218 C2244 0.950 . S
H2219 C2246 0.950 . S
H2220 C2249 0.950 . S
H2221 C2250 0.950 . S
H2222 C2252 0.950 . S
H2223 C2253 0.950 . S
C2224 H2206 0.951 . S
C2224 C2225 1.366 . S
C2224 C2226 1.388 . S
C2225 C2224 1.366 . S
C2225 C2229 1.385 . S
C2226 H2207 0.951 . S
C2226 C2224 1.388 . S
C2226 C2227 1.366 . S
C2227 C2226 1.366 . S
C2227 C2228 1.414 . S
C2227 C2230 1.499 . S
C2228 H2208 0.950 . S
C2228 C2227 1.414 . S
C2228 C2229 1.374 . S
C2229 H2209 0.950 . S
C2229 C2225 1.385 . S
C2229 C2228 1.374 . S
C2230 C2227 1.499 . S
C2230 C2231 1.373 . S
C2230 C2232 1.389 . S
C2231 H2210 0.950 . S
C2231 C2230 1.373 . S
C2231 C2247 1.377 . S
C2232 C2230 1.389 . S
C2232 C2233 1.524 . S
C2232 C2246 1.377 . S
C2233 C2232 1.524 . S
C2233 C2234 1.397 . S
C2233 C2238 1.363 . S
C2234 H2211 0.950 . S
C2234 C2233 1.397 . S
C2234 C2235 1.334 . S
C2235 H2212 0.950 . S
C2235 C2234 1.334 . S
C2235 C2236 1.287 . S
C2236 C2235 1.287 . S
C2236 C2237 1.524 . S
C2236 H2255 0.913 . S
C2237 H2213 0.950 . S
C2237 C2236 1.524 . S
C2237 C2238 1.415 . S
C2238 H2214 0.950 . S
C2238 C2233 1.363 . S
C2238 C2237 1.415 . S
C2239 H2215 0.951 . S
C2239 C2240 1.366 . S
C2239 C2241 1.388 . S
C2240 C2239 1.366 . S
C2240 C2244 1.385 . S
C2241 H2216 0.951 . S
C2241 C2239 1.388 . S
C2241 C2242 1.366 . S
C2242 C2241 1.366 . S
C2242 C2243 1.414 . S
C2242 C2245 1.499 . S
C2243 H2217 0.950 . S
C2243 C2242 1.414 . S
C2243 C2244 1.374 . S
C2244 H2218 0.950 . S
C2244 C2240 1.385 . S
C2244 C2243 1.374 . S
C2245 C2242 1.499 . S
C2245 C2246 1.373 . S
C2245 C2247 1.389 . S
C2246 H2219 0.950 . S
C2246 C2232 1.377 . S
C2246 C2245 1.373 . S
C2247 C2231 1.377 . S
C2247 C2245 1.389 . S
C2247 C2248 1.524 . S
C2248 C2247 1.524 . S
C2248 C2249 1.397 . S
C2248 C2253 1.363 . S
C2249 H2220 0.950 . S
C2249 C2248 1.397 . S
C2249 C2250 1.334 . S
C2250 H2221 0.950 . S
C2250 C2249 1.334 . S
C2250 C2251 1.287 . S
C2251 C2250 1.287 . S
C2251 C2252 1.524 . S
C2251 H2254 0.999 . S
C2252 H2222 0.950 . S
C2252 C2251 1.524 . S
C2252 C2253 1.415 . S
C2253 H2223 0.950 . S
C2253 C2248 1.363 . S
C2253 C2252 1.415 . S
H2254 C2251 0.999 . S
H2255 C2236 0.913 . S
C1075 C49 1.144 . S
C1090 C469 1.144 1_655 S
C1125 C145 1.144 . S
C1140 C401 1.144 1_565 S
C1175 C489 1.144 . S
C1190 C225 1.144 1_655 S
C1225 C313 1.144 1_565 S
C1240 C381 1.144 . S
C1275 C636 1.144 1_655 S
C1290 C205 1.144 . S
C1325 C548 1.144 1_565 S
C1340 C293 1.144 . S
C1375 C29 1.144 1_655 S
C1390 C673 1.143 . S
C1425 C585 1.144 . S
C1440 C108 1.144 1_565 S
C1475 C849 1.144 1_556 S
C1490 C733 1.144 . S
C1525 C753 1.144 1_556 S
C1540 C997 1.144 . S
C1575 C812 1.144 . S
C1590 C937 1.144 1_556 S
C1625 C900 1.144 . S
C1640 C1017 1.144 1_556 S
C1675 C1025 1.144 . S
C1690 C557 1.149 . S
C1725 C761 1.144 . S
C1740 C665 1.144 . S
C1775 C577 1.144 . S
C1790 C841 1.145 . S
C1825 C645 1.144 . S
C1840 C929 1.149 . S
C1875 C372 1.144 . S
C1890 C821 1.139 . S
C1925 C460 1.144 . S
C1940 C909 1.142 . S
C1975 C988 1.144 . S
C1990 C409 1.144 . S
C2025 C724 1.144 . S
C2040 C497 1.139 . S
C2075 C117 1.144 . S
C2090 C233 1.147 . S
C2125 C20 1.144 . S
C2140 C137 1.143 . S
C2175 C196 1.144 . S
C2190 C321 1.144 . S
C2225 C57 1.144 . S
C2240 C284 1.140 . S
