# Generated by pormake.
# Topology lcs, (4)-cn, num edge types: 1
# Building blocks:
#     Node 0, Type 0, BuildingBlock: NAHDIM_clean_sbu_0, # of connection points: 4
#     Node 1, Type 0, BuildingBlock: NAHDIM_clean_sbu_0, # of connection points: 4
#     Node 2, Type 0, BuildingBlock: NAHDIM_clean_sbu_0, # of connection points: 4
#     Node 3, Type 0, BuildingBlock: NAHDIM_clean_sbu_0, # of connection points: 4
#     Node 4, Type 0, BuildingBlock: NAHDIM_clean_sbu_0, # of connection points: 4
#     Node 5, Type 0, BuildingBlock: NAHDIM_clean_sbu_0, # of connection points: 4
#     Node 6, Type 0, BuildingBlock: NAHDIM_clean_sbu_0, # of connection points: 4
#     Node 7, Type 0, BuildingBlock: NAHDIM_clean_sbu_0, # of connection points: 4
#     Node 8, Type 0, BuildingBlock: NAHDIM_clean_sbu_0, # of connection points: 4
#     Node 9, Type 0, BuildingBlock: NAHDIM_clean_sbu_0, # of connection points: 4
#     Node 10, Type 0, BuildingBlock: NAHDIM_clean_sbu_0, # of connection points: 4
#     Node 11, Type 0, BuildingBlock: NAHDIM_clean_sbu_0, # of connection points: 4
#     Node 12, Type 0, BuildingBlock: NAHDIM_clean_sbu_0, # of connection points: 4
#     Node 13, Type 0, BuildingBlock: NAHDIM_clean_sbu_0, # of connection points: 4
#     Node 14, Type 0, BuildingBlock: NAHDIM_clean_sbu_0, # of connection points: 4
#     Node 15, Type 0, BuildingBlock: NAHDIM_clean_sbu_0, # of connection points: 4
#     Node 16, Type 0, BuildingBlock: NAHDIM_clean_sbu_0, # of connection points: 4
#     Node 17, Type 0, BuildingBlock: NAHDIM_clean_sbu_0, # of connection points: 4
#     Node 18, Type 0, BuildingBlock: NAHDIM_clean_sbu_0, # of connection points: 4
#     Node 19, Type 0, BuildingBlock: NAHDIM_clean_sbu_0, # of connection points: 4
#     Node 20, Type 0, BuildingBlock: NAHDIM_clean_sbu_0, # of connection points: 4
#     Node 21, Type 0, BuildingBlock: NAHDIM_clean_sbu_0, # of connection points: 4
#     Node 22, Type 0, BuildingBlock: NAHDIM_clean_sbu_0, # of connection points: 4
#     Node 23, Type 0, BuildingBlock: NAHDIM_clean_sbu_0, # of connection points: 4
#     Edge 24, Type (0, 0), BuildingBlock: ZUJKAS_clean_linker_0, # of connection points: 2
#     Edge 25, Type (0, 0), BuildingBlock: ZUJKAS_clean_linker_0, # of connection points: 2
#     Edge 26, Type (0, 0), BuildingBlock: ZUJKAS_clean_linker_0, # of connection points: 2
#     Edge 27, Type (0, 0), BuildingBlock: ZUJKAS_clean_linker_0, # of connection points: 2
#     Edge 28, Type (0, 0), BuildingBlock: ZUJKAS_clean_linker_0, # of connection points: 2
#     Edge 29, Type (0, 0), BuildingBlock: ZUJKAS_clean_linker_0, # of connection points: 2
#     Edge 30, Type (0, 0), BuildingBlock: ZUJKAS_clean_linker_0, # of connection points: 2
#     Edge 31, Type (0, 0), BuildingBlock: ZUJKAS_clean_linker_0, # of connection points: 2
#     Edge 32, Type (0, 0), BuildingBlock: ZUJKAS_clean_linker_0, # of connection points: 2
#     Edge 33, Type (0, 0), BuildingBlock: ZUJKAS_clean_linker_0, # of connection points: 2
#     Edge 34, Type (0, 0), BuildingBlock: ZUJKAS_clean_linker_0, # of connection points: 2
#     Edge 35, Type (0, 0), BuildingBlock: ZUJKAS_clean_linker_0, # of connection points: 2
#     Edge 36, Type (0, 0), BuildingBlock: ZUJKAS_clean_linker_0, # of connection points: 2
#     Edge 37, Type (0, 0), BuildingBlock: ZUJKAS_clean_linker_0, # of connection points: 2
#     Edge 38, Type (0, 0), BuildingBlock: ZUJKAS_clean_linker_0, # of connection points: 2
#     Edge 39, Type (0, 0), BuildingBlock: ZUJKAS_clean_linker_0, # of connection points: 2
#     Edge 40, Type (0, 0), BuildingBlock: ZUJKAS_clean_linker_0, # of connection points: 2
#     Edge 41, Type (0, 0), BuildingBlock: ZUJKAS_clean_linker_0, # of connection points: 2
#     Edge 42, Type (0, 0), BuildingBlock: ZUJKAS_clean_linker_0, # of connection points: 2
#     Edge 43, Type (0, 0), BuildingBlock: ZUJKAS_clean_linker_0, # of connection points: 2
#     Edge 44, Type (0, 0), BuildingBlock: ZUJKAS_clean_linker_0, # of connection points: 2
#     Edge 45, Type (0, 0), BuildingBlock: ZUJKAS_clean_linker_0, # of connection points: 2
#     Edge 46, Type (0, 0), BuildingBlock: ZUJKAS_clean_linker_0, # of connection points: 2
#     Edge 47, Type (0, 0), BuildingBlock: ZUJKAS_clean_linker_0, # of connection points: 2
#     Edge 48, Type (0, 0), BuildingBlock: ZUJKAS_clean_linker_0, # of connection points: 2
#     Edge 49, Type (0, 0), BuildingBlock: ZUJKAS_clean_linker_0, # of connection points: 2
#     Edge 50, Type (0, 0), BuildingBlock: ZUJKAS_clean_linker_0, # of connection points: 2
#     Edge 51, Type (0, 0), BuildingBlock: ZUJKAS_clean_linker_0, # of connection points: 2
#     Edge 52, Type (0, 0), BuildingBlock: ZUJKAS_clean_linker_0, # of connection points: 2
#     Edge 53, Type (0, 0), BuildingBlock: ZUJKAS_clean_linker_0, # of connection points: 2
#     Edge 54, Type (0, 0), BuildingBlock: ZUJKAS_clean_linker_0, # of connection points: 2
#     Edge 55, Type (0, 0), BuildingBlock: ZUJKAS_clean_linker_0, # of connection points: 2
#     Edge 56, Type (0, 0), BuildingBlock: ZUJKAS_clean_linker_0, # of connection points: 2
#     Edge 57, Type (0, 0), BuildingBlock: ZUJKAS_clean_linker_0, # of connection points: 2
#     Edge 58, Type (0, 0), BuildingBlock: ZUJKAS_clean_linker_0, # of connection points: 2
#     Edge 59, Type (0, 0), BuildingBlock: ZUJKAS_clean_linker_0, # of connection points: 2
#     Edge 60, Type (0, 0), BuildingBlock: ZUJKAS_clean_linker_0, # of connection points: 2
#     Edge 61, Type (0, 0), BuildingBlock: ZUJKAS_clean_linker_0, # of connection points: 2
#     Edge 62, Type (0, 0), BuildingBlock: ZUJKAS_clean_linker_0, # of connection points: 2
#     Edge 63, Type (0, 0), BuildingBlock: ZUJKAS_clean_linker_0, # of connection points: 2
#     Edge 64, Type (0, 0), BuildingBlock: ZUJKAS_clean_linker_0, # of connection points: 2
#     Edge 65, Type (0, 0), BuildingBlock: ZUJKAS_clean_linker_0, # of connection points: 2
#     Edge 66, Type (0, 0), BuildingBlock: ZUJKAS_clean_linker_0, # of connection points: 2
#     Edge 67, Type (0, 0), BuildingBlock: ZUJKAS_clean_linker_0, # of connection points: 2
#     Edge 68, Type (0, 0), BuildingBlock: ZUJKAS_clean_linker_0, # of connection points: 2
#     Edge 69, Type (0, 0), BuildingBlock: ZUJKAS_clean_linker_0, # of connection points: 2
#     Edge 70, Type (0, 0), BuildingBlock: ZUJKAS_clean_linker_0, # of connection points: 2
#     Edge 71, Type (0, 0), BuildingBlock: ZUJKAS_clean_linker_0, # of connection points: 2
# Relax obj value: 0.090
# Max RMSD: 0.160
# Mean RMSD: 0.151
data_MOF--net-lcs--node1-NAHDIM_clean_sbu_0--edge1-ZUJKAS_clean_linker_0
_symmetry_space_group_name_H-M    P1
_symmetry_Int_Tables_number       1
_symmetry_cell_setting            triclinic
loop_
_symmetry_equiv_pos_as_xyz
'x, y, z'
_cell_length_a     64.742393
_cell_length_b     62.693853
_cell_length_c     62.746554
_cell_angle_alpha  91.432906
_cell_angle_beta   90.580328
_cell_angle_gamma 91.1173
loop_
_atom_site_label
_atom_site_type_symbol
_atom_site_fract_x
_atom_site_fract_y
_atom_site_fract_z
_atom_type_partial_charge
C0 C 0.95783 0.27333 0.38011 0.0
O1 O 0.95785 0.27499 0.35927 0.0
O2 O 0.98167 0.22903 0.35157 0.0
Zn3 Zn 0.99464 0.25229 0.37011 0.0
O4 O 0.00532 0.27588 0.35193 0.0
C5 C 0.01956 0.2218 0.39255 0.0
O6 O 0.00491 0.20811 0.3865 0.0
O7 O 0.97266 0.26396 0.3891 0.0
C8 C 0.0235 0.27561 0.34454 0.0
O9 O 0.03538 0.25944 0.34864 0.0
C10 C 0.99162 0.21716 0.33876 0.0
O11 O 0.01171 0.21988 0.33718 0.0
O12 O 0.01809 0.24127 0.38769 0.0
C13 C 0.03098 0.74435 0.61106 0.0
O14 O 0.01249 0.73541 0.60961 0.0
O15 O 0.00404 0.74007 0.66081 0.0
Zn16 Zn 0.01117 0.7664 0.64473 0.0
O17 O 0.02023 0.78993 0.66518 0.0
C18 C 0.9714 0.76357 0.62265 0.0
O19 O 0.97133 0.7437 0.62879 0.0
O20 O 0.03437 0.759 0.62509 0.0
C21 C 0.00741 0.8032 0.67266 0.0
O22 O 0.98787 0.8014 0.66691 0.0
C23 C 0.98976 0.73921 0.6745 0.0
O24 O 0.97911 0.75637 0.67885 0.0
O25 O 0.98671 0.77581 0.62749 0.0
C26 C 0.46186 0.77599 0.88026 0.0
O27 O 0.46241 0.78018 0.85986 0.0
O28 O 0.48711 0.72744 0.85383 0.0
Zn29 Zn 0.49832 0.75368 0.86931 0.0
O30 O 0.50684 0.77644 0.849 0.0
C31 C 0.53463 0.73112 0.88057 0.0
O32 O 0.53065 0.7216 0.86205 0.0
O33 O 0.47603 0.76487 0.88827 0.0
C34 C 0.51697 0.77272 0.83213 0.0
O35 O 0.52224 0.75307 0.82733 0.0
C36 C 0.47718 0.72746 0.83627 0.0
O37 O 0.47394 0.74562 0.82691 0.0
O38 O 0.5228 0.74574 0.88719 0.0
C39 C 0.54738 0.24388 0.11802 0.0
O40 O 0.54985 0.24647 0.13873 0.0
O41 O 0.49791 0.23272 0.14554 0.0
Zn42 Zn 0.50718 0.25781 0.12857 0.0
O43 O 0.51795 0.28165 0.14783 0.0
C44 C 0.46503 0.26458 0.11663 0.0
O45 O 0.46171 0.25591 0.13516 0.0
O46 O 0.53008 0.24816 0.10959 0.0
C47 C 0.50691 0.29654 0.15532 0.0
O48 O 0.48711 0.29669 0.15061 0.0
C49 C 0.50515 0.22833 0.16376 0.0
O50 O 0.51934 0.24095 0.17274 0.0
O51 O 0.4835 0.26736 0.11045 0.0
C52 C 0.03318 0.7599 0.10197 0.0
O53 O 0.03225 0.73924 0.10494 0.0
O54 O 0.00611 0.73477 0.14351 0.0
Zn55 Zn -0.00377 0.76003 0.12756 0.0
O56 O 0.98758 0.78322 0.14811 0.0
C57 C 0.95751 0.74031 0.11868 0.0
O58 O 0.96014 0.73541 0.13874 0.0
O59 O 0.01918 0.77165 0.10969 0.0
C60 C 0.98107 0.77987 0.1668 0.0
O61 O 0.98001 0.76026 0.17366 0.0
C62 C 0.01976 0.73667 0.15814 0.0
O63 O 0.0278 0.75563 0.16286 0.0
O64 O 0.97155 0.75108 0.10956 0.0
C65 C 0.46297 0.72178 0.40086 0.0
O66 O 0.4641 0.71889 0.3801 0.0
O67 O 0.51105 0.72091 0.37376 0.0
Zn68 Zn 0.5003 0.74418 0.39306 0.0
O69 O 0.48914 0.76787 0.37577 0.0
C70 C 0.53776 0.74385 0.4181 0.0
O71 O 0.53735 0.72354 0.41239 0.0
O72 O 0.47727 0.73235 0.41059 0.0
C73 C 0.50096 0.78163 0.36737 0.0
O74 O 0.52104 0.78037 0.3701 0.0
C75 C 0.50789 0.72002 0.35373 0.0
O76 O 0.49711 0.73494 0.34473 0.0
O77 O 0.52326 0.7557 0.41199 0.0
C78 C 0.5351 0.25661 0.60197 0.0
O79 O 0.53434 0.23604 0.60549 0.0
O80 O 0.50777 0.2331 0.64484 0.0
Zn81 Zn 0.49813 0.25782 0.62784 0.0
O82 O 0.48962 0.28211 0.647 0.0
C83 C 0.47219 0.23012 0.60133 0.0
O84 O 0.48712 0.21661 0.60439 0.0
O85 O 0.52117 0.26851 0.60957 0.0
C86 C 0.48653 0.28111 0.66692 0.0
O87 O 0.48891 0.26293 0.67652 0.0
C88 C 0.52391 0.23472 0.6565 0.0
O89 O 0.53415 0.25303 0.65773 0.0
O90 O 0.47372 0.24877 0.60963 0.0
C91 C 0.95558 0.22563 0.8913 0.0
O92 O 0.95547 0.22926 0.87076 0.0
O93 O 0.00648 0.2144 0.86643 0.0
Zn94 Zn -0.00236 0.23787 0.88643 0.0
O95 O 0.99079 0.26363 0.86954 0.0
C96 C 0.03639 0.23494 0.91028 0.0
O97 O 0.03866 0.21706 0.89927 0.0
O98 O 0.97233 0.22826 0.90183 0.0
C99 C 0.00328 0.27938 0.86792 0.0
O100 O 0.02141 0.27893 0.87747 0.0
C101 C 0.02008 0.21785 0.85241 0.0
O102 O 0.02841 0.23704 0.85114 0.0
O103 O 0.02018 0.24572 0.90763 0.0
C104 C 0.40612 0.9579 0.26669 0.0
O105 O 0.38594 0.95776 0.26421 0.0
O106 O 0.38229 0.99484 0.23089 0.0
Zn107 Zn 0.40018 0.00104 0.25688 0.0
O108 O 0.38289 0.00882 0.28212 0.0
C109 C 0.42847 0.0279 0.23387 0.0
O110 O 0.42612 0.013 0.2189 0.0
O111 O 0.41624 0.97515 0.26394 0.0
C112 C 0.37499 0.02718 0.28347 0.0
O113 O 0.37805 0.04065 0.26805 0.0
C114 C 0.36267 0.99395 0.23154 0.0
O115 O 0.35338 -0.0029 0.24982 0.0
O116 O 0.41924 0.02579 0.25146 0.0
C117 C 0.20913 0.13879 0.47145 0.0
O118 O 0.21403 0.12024 0.46293 0.0
O119 O 0.23918 0.11165 0.51763 0.0
Zn120 Zn 0.24644 0.13141 0.49396 0.0
O121 O 0.25727 0.11547 0.46831 0.0
C122 C 0.2853 0.14131 0.51112 0.0
O123 O 0.28503 0.12034 0.51041 0.0
O124 O 0.22114 0.14754 0.48539 0.0
C125 C 0.26381 0.09648 0.46814 0.0
O126 O 0.26335 0.08555 0.48571 0.0
C127 C 0.2264 0.09605 0.51589 0.0
O128 O 0.21717 0.09189 0.49749 0.0
O129 O 0.26941 0.15101 0.50476 0.0
C130 C 0.16037 0.00504 0.71016 0.0
O131 O 0.14412 0.99219 0.71049 0.0
O132 O 0.13634 0.03626 0.76232 0.0
Zn133 Zn 0.15119 0.00945 0.75472 0.0
O134 O 0.13036 0.98554 0.7502 0.0
C135 C 0.16376 0.00564 0.79779 0.0
O136 O 0.14618 0.01543 0.80044 0.0
O137 O 0.16677 0.01401 0.72747 0.0
C138 C 0.11479 0.98199 0.76185 0.0
O139 O 0.11158 0.99438 0.77863 0.0
C140 C 0.11987 0.04134 0.75269 0.0
O141 O 0.11264 0.02899 0.737 0.0
O142 O 0.16999 0.00176 0.77897 0.0
C143 C 0.29464 0.86758 0.99579 0.0
O144 O 0.29474 0.88854 -0.00279 0.0
O145 O 0.26613 0.89162 0.03906 0.0
Zn146 Zn 0.25585 0.87523 0.01308 0.0
O147 O 0.24806 0.89518 0.98988 0.0
C148 C 0.21472 0.86675 0.02577 0.0
O149 O 0.21459 0.88769 0.02538 0.0
O150 O 0.27886 0.85726 0.00209 0.0
C151 C 0.23568 0.88857 0.97522 0.0
O152 O 0.22799 0.86905 0.97585 0.0
C153 C 0.2617 0.91093 0.04323 0.0
O154 O 0.24976 0.92112 0.03002 0.0
O155 O 0.23121 0.85717 0.02095 0.0
C156 C 0.28936 0.34239 0.00554 0.0
O157 O 0.28933 0.34941 0.98599 0.0
O158 O 0.24282 0.38306 0.03299 0.0
Zn159 Zn 0.25009 0.36365 0.00831 0.0
O160 O 0.25817 0.38073 0.98298 0.0
C161 C 0.20775 0.34863 0.00639 0.0
O162 O 0.20478 0.36609 0.01785 0.0
O163 O 0.27411 0.34624 0.01753 0.0
C164 C 0.24522 0.38782 0.9697 0.0
O165 O 0.22539 0.38421 0.9725 0.0
C166 C 0.23944 0.40288 0.03156 0.0
O167 O 0.24085 0.41191 0.01296 0.0
O168 O 0.22594 0.34421 0.00052 0.0
C169 C 0.7021 0.12265 0.01292 0.0
O170 O 0.7018 0.10226 0.01727 0.0
O171 O 0.75025 0.09499 0.01748 0.0
Zn172 Zn 0.73929 0.11069 0.99238 0.0
O173 O 0.72809 0.09028 0.96991 0.0
C174 C 0.77698 0.13564 0.99128 0.0
O175 O 0.77686 0.1326 0.01192 0.0
O176 O 0.71688 0.13018 0.00209 0.0
C177 C 0.73976 0.07678 0.96094 0.0
O178 O 0.75922 0.07597 0.96695 0.0
C179 C 0.74457 0.07625 0.0224 0.0
O180 O 0.73072 0.06585 0.0105 0.0
O181 O 0.76229 0.12791 0.97975 0.0
C182 C 0.09286 0.54668 0.25108 0.0
O183 O 0.10235 0.54595 0.26964 0.0
O184 O 0.12988 0.50132 0.21617 0.0
Zn185 Zn 0.11393 0.5071 0.24294 0.0
O186 O 0.1336 0.51522 0.26696 0.0
C187 C 0.10831 0.46325 0.2504 0.0
O188 O 0.12805 0.46398 0.24576 0.0
O189 O 0.09496 0.53146 0.23756 0.0
C190 C 0.13111 0.50887 0.28585 0.0
O191 O 0.11521 0.49639 0.29005 0.0
C192 C 0.14944 0.49996 0.21605 0.0
O193 O 0.15991 0.50273 0.23398 0.0
O194 O 0.09813 0.48038 0.25012 0.0
C195 C 0.79887 0.85979 0.52087 0.0
O196 O 0.80156 0.87889 0.51307 0.0
O197 O 0.74837 0.88887 0.53548 0.0
Zn198 Zn 0.75672 0.86889 0.51175 0.0
O199 O 0.76486 0.8847 0.4856 0.0
C200 C 0.71467 0.85681 0.50373 0.0
O201 O 0.71225 0.87718 0.50823 0.0
O202 O 0.7807 0.85185 0.52176 0.0
C203 C 0.75621 0.90149 0.47937 0.0
O204 O 0.74111 0.90962 0.49057 0.0
C205 C 0.75748 0.90642 0.54059 0.0
O206 O 0.7736 0.91275 0.5297 0.0
O207 O 0.73272 0.84923 0.5043 0.0
C208 C 0.84691 0.00456 0.20898 0.0
O209 O 0.86706 0.003 0.20748 0.0
O210 O 0.87363 0.97096 0.2446 0.0
Zn211 Zn 0.85753 -0.00294 0.25166 0.0
O212 O 0.87695 0.02204 0.25621 0.0
C213 C 0.83073 0.9752 0.27985 0.0
O214 O 0.83006 0.96138 0.26375 0.0
O215 O 0.8386 0.00261 0.22709 0.0
C216 C 0.86954 0.04029 0.26018 0.0
O217 O 0.84939 0.04221 0.2612 0.0
C218 C 0.88506 0.9621 0.25822 0.0
O219 O 0.88663 0.97036 0.27763 0.0
O220 O 0.8414 0.99228 0.27823 0.0
C221 C 0.19949 0.63816 0.51194 0.0
O222 O 0.19602 0.61876 0.50415 0.0
O223 O 0.24672 0.60636 0.53059 0.0
Zn224 Zn 0.24076 0.62517 0.50599 0.0
O225 O 0.23188 0.60755 0.48018 0.0
C226 C 0.2826 0.63076 0.49505 0.0
O227 O 0.28117 0.60982 0.49512 0.0
O228 O 0.21802 0.64496 0.51418 0.0
C229 C 0.23617 0.61331 0.46144 0.0
O230 O 0.24682 0.63109 0.45885 0.0
C231 C 0.24746 0.58615 0.52909 0.0
O232 O 0.24366 0.57649 0.5106 0.0
O233 O 0.26674 0.64156 0.49951 0.0
C234 C 0.34555 0.49468 0.70831 0.0
O235 O 0.36383 0.48619 0.7062 0.0
O236 O 0.37581 0.47047 0.74596 0.0
Zn237 Zn 0.3573 0.49519 0.75246 0.0
O238 O 0.37383 0.52233 0.75822 0.0
C239 C 0.34616 0.47682 0.79226 0.0
O240 O 0.36507 0.46971 0.79107 0.0
O241 O 0.33925 0.49974 0.72684 0.0
C242 C 0.38133 0.52749 0.77646 0.0
O243 O 0.37858 0.51459 0.7924 0.0
C244 C 0.39437 0.46871 0.75236 0.0
O245 O 0.40295 0.48392 0.76441 0.0
O246 O 0.3393 0.4883 0.77747 0.0
C247 C 0.60749 0.04389 0.73994 0.0
O248 O 0.62446 0.04426 0.75161 0.0
O249 O 0.6352 0.99294 0.71579 0.0
Zn250 Zn 0.61531 -0.00084 0.73936 0.0
O251 O 0.63089 0.00303 0.767 0.0
C252 C 0.59764 0.95687 0.73184 0.0
O253 O 0.61215 0.95568 0.71741 0.0
O254 O 0.60019 0.02605 0.73295 0.0
C255 C 0.64664 0.99217 0.77152 0.0
O256 O 0.6532 0.97785 0.75766 0.0
C257 C 0.65113 0.00427 0.71189 0.0
O258 O 0.6552 0.02154 0.72359 0.0
O259 O 0.5956 0.97418 0.74256 0.0
C260 C 0.7086 0.65182 0.99436 0.0
O261 O 0.70778 0.64503 0.01398 0.0
O262 O 0.73808 0.61158 0.01759 0.0
Zn263 Zn 0.74756 0.62977 0.99341 0.0
O264 O 0.75685 0.61128 0.96898 0.0
C265 C 0.77041 0.66202 0.01819 0.0
O266 O 0.75266 0.66456 0.02781 0.0
O267 O 0.72421 0.64752 0.98303 0.0
C268 C 0.77022 0.59696 0.97147 0.0
O269 O 0.77768 0.59374 0.99063 0.0
C270 C 0.75005 0.6069 0.0329 0.0
O271 O 0.76935 0.61375 0.03287 0.0
O272 O 0.77158 0.64844 0.00292 0.0
C273 C 0.90994 0.45906 0.77501 0.0
O274 O 0.89012 0.45987 0.77916 0.0
O275 O 0.88042 0.48817 0.73361 0.0
Zn276 Zn 0.89968 0.4981 0.75737 0.0
O277 O 0.88374 0.50634 0.78352 0.0
C278 C 0.90802 0.53605 0.73468 0.0
O279 O 0.88975 0.53103 0.72651 0.0
O280 O 0.91836 0.47425 0.76501 0.0
C281 C 0.86985 0.52035 0.78334 0.0
O282 O 0.8655 0.52983 0.76546 0.0
C283 C 0.86194 0.4817 0.73638 0.0
O284 O 0.85471 0.48066 0.75581 0.0
O285 O 0.91603 0.52384 0.74821 0.0
C286 C 0.7909 0.37191 0.4909 0.0
O287 O 0.79056 0.39286 0.49112 0.0
O288 O 0.76406 0.39419 0.53772 0.0
Zn289 Zn 0.75312 0.37905 0.51135 0.0
O290 O 0.74407 0.39969 0.4893 0.0
C291 C 0.71133 0.36833 0.52075 0.0
O292 O 0.70929 0.38872 0.51706 0.0
O293 O 0.77592 0.36165 0.49899 0.0
C294 C 0.73636 0.39138 0.47227 0.0
O295 O 0.7348 0.37049 0.47041 0.0
C296 C 0.75611 0.41066 0.54621 0.0
O297 O 0.73985 0.41903 0.53723 0.0
O298 O 0.72906 0.36015 0.51914 0.0
C299 C 0.65032 0.51734 0.21242 0.0
O300 O 0.63065 0.51223 0.20992 0.0
O301 O 0.62386 0.53953 0.26298 0.0
Zn302 Zn 0.63949 0.51302 0.25596 0.0
O303 O 0.61958 0.48902 0.24842 0.0
C304 C 0.64607 0.4984 0.29756 0.0
O305 O 0.62579 0.49741 0.29649 0.0
O306 O 0.65801 0.51852 0.23114 0.0
C307 C 0.62626 0.47027 0.24554 0.0
O308 O 0.64614 0.46698 0.24767 0.0
C309 C 0.60623 0.54295 0.25481 0.0
O310 O 0.59796 0.52879 0.24131 0.0
O311 O 0.65604 0.50502 0.28162 0.0
H312 H 0.12625 0.42442 0.25337 0.0
H313 H 0.11079 0.3915 0.26654 0.0
H314 H 0.05311 0.4234 0.27628 0.0
H315 H 0.06837 0.45643 0.26294 0.0
H316 H 0.0942 0.38717 0.3075 0.0
H317 H 0.03575 0.36756 0.24421 0.0
H318 H 0.0571 0.38599 0.24032 0.0
H319 H 0.0349 0.39433 0.25506 0.0
C320 C 0.1102 0.42442 0.25809 0.0
C321 C 0.09853 0.44305 0.25713 0.0
C322 C 0.10141 0.40558 0.2656 0.0
C323 C 0.08078 0.40499 0.27214 0.0
C324 C 0.06896 0.42345 0.27092 0.0
H325 H 0.00365 0.31237 0.33514 0.0
H326 H 0.01774 0.34333 0.31686 0.0
C327 C 0.07774 0.44233 0.26341 0.0
C328 C 0.07211 0.38545 0.28161 0.0
H329 H 0.03424 0.34708 0.27553 0.0
C330 C 0.08117 0.3783 0.30046 0.0
C331 C 0.05506 0.37406 0.27239 0.0
C332 C 0.0452 0.38072 0.25178 0.0
C333 C 0.07342 0.36021 0.31059 0.0
C334 C 0.05641 0.34876 0.30136 0.0
C335 C 0.04732 0.3559 0.2825 0.0
C336 C 0.04764 0.32953 0.31133 0.0
C337 C 0.08318 0.35383 0.33138 0.0
C338 C 0.05967 0.31138 0.31382 0.0
C339 C 0.05172 0.29369 0.32433 0.0
C340 C 0.03153 0.29382 0.33238 0.0
C341 C 0.0193 0.31179 0.32922 0.0
C342 C 0.02729 0.32948 0.31875 0.0
H343 H 0.09253 0.36709 0.33887 0.0
H344 H 0.07123 0.34867 0.34284 0.0
H345 H 0.09357 0.34024 0.32834 0.0
H346 H 0.07529 0.31098 0.30783 0.0
H347 H 0.06148 0.28004 0.32634 0.0
H348 H 0.96769 0.80299 0.60555 0.0
H349 H 0.93788 0.81694 0.58656 0.0
H350 H 0.90523 0.75695 0.59343 0.0
H351 H 0.93494 0.7428 0.6125 0.0
H352 H 0.91717 0.79885 0.54808 0.0
H353 H 0.86656 0.80361 0.61919 0.0
H354 H 0.89429 0.80167 0.62137 0.0
H355 H 0.87882 0.77853 0.61405 0.0
C356 C 0.95419 0.79273 0.60302 0.0
C357 C 0.95363 0.77182 0.61063 0.0
C358 C 0.93721 0.80072 0.59213 0.0
C359 C 0.91936 0.78802 0.58883 0.0
C360 C 0.91883 0.76705 0.59608 0.0
H361 H 0.7989 0.81955 0.53677 0.0
H362 H 0.82825 0.80076 0.55169 0.0
C363 C 0.93583 0.75899 0.6069 0.0
C364 C 0.90124 0.79687 0.57793 0.0
H365 H 0.85202 0.81331 0.58635 0.0
C366 C 0.90288 0.80198 0.55638 0.0
C367 C 0.88268 0.8008 0.58887 0.0
C368 C 0.88039 0.79604 0.61219 0.0
C369 C 0.88634 0.81097 0.54539 0.0
C370 C 0.8679 0.81536 0.55645 0.0
C371 C 0.86618 0.80991 0.57793 0.0
C372 C 0.85044 0.82627 0.54631 0.0
C373 C 0.88867 0.81546 0.52202 0.0
C374 C 0.85319 0.84687 0.53844 0.0
C375 C 0.83649 0.85762 0.52984 0.0
C376 C 0.81667 0.84804 0.52918 0.0
C377 C 0.81397 0.82736 0.53703 0.0
C378 C 0.83071 0.8166 0.54556 0.0
H379 H 0.90082 0.80553 0.51461 0.0
H380 H 0.87392 0.81246 0.51317 0.0
H381 H 0.89327 0.83246 0.52023 0.0
H382 H 0.86819 0.85482 0.53934 0.0
H383 H 0.83908 0.87357 0.52406 0.0
H384 H 0.38532 0.56016 0.74859 0.0
H385 H 0.40343 0.59448 0.7547 0.0
H386 H 0.42119 0.57541 0.81772 0.0
H387 H 0.40312 0.54113 0.81186 0.0
H388 H 0.39496 0.62452 0.79004 0.0
H389 H 0.47591 0.5968 0.78928 0.0
H390 H 0.45472 0.58145 0.77729 0.0
H391 H 0.45858 0.58181 0.80568 0.0
C392 C 0.3932 0.56321 0.7637 0.0
C393 C 0.39279 0.54793 0.77976 0.0
C394 C 0.40351 0.5828 0.76714 0.0
C395 C 0.4138 0.5873 0.78654 0.0
C396 C 0.41357 0.57206 0.80252 0.0
H397 H 0.47783 0.68813 0.85383 0.0
H398 H 0.46262 0.65487 0.8394 0.0
C399 C 0.40315 0.55254 0.79918 0.0
C400 C 0.42394 0.60832 0.79062 0.0
H401 H 0.47057 0.63212 0.80257 0.0
C402 C 0.41152 0.62632 0.79253 0.0
C403 C 0.44551 0.61045 0.79384 0.0
C404 C 0.45954 0.59165 0.79126 0.0
C405 C 0.42002 0.64635 0.79858 0.0
C406 C 0.44157 0.64841 0.80231 0.0
C407 C 0.45405 0.63048 0.79972 0.0
C408 C 0.4513 0.66865 0.81035 0.0
C409 C 0.40573 0.66485 0.80191 0.0
C410 C 0.45025 0.68738 0.79863 0.0
C411 C 0.45879 0.70654 0.80693 0.0
C412 C 0.46873 0.70717 0.82698 0.0
C413 C 0.47023 0.68822 0.83837 0.0
C414 C 0.46159 0.66917 0.83013 0.0
H415 H 0.38934 0.65947 0.80314 0.0
H416 H 0.41005 0.67422 0.81659 0.0
H417 H 0.40693 0.67558 0.78817 0.0
H418 H 0.44276 0.68721 0.78311 0.0
H419 H 0.45755 0.72082 0.79769 0.0
H420 H 0.58377 0.22767 0.13189 0.0
H421 H 0.61023 0.21043 0.11051 0.0
H422 H 0.57545 0.22252 0.05321 0.0
H423 H 0.54858 0.23936 0.07456 0.0
H424 H 0.58731 0.18186 0.0544 0.0
H425 H 0.65458 0.23494 0.07321 0.0
H426 H 0.64263 0.22543 0.0969 0.0
H427 H 0.62846 0.2423 0.07938 0.0
C428 C 0.58184 0.22691 0.11472 0.0
C429 C 0.56408 0.23488 0.10492 0.0
C430 C 0.59707 0.21717 0.1025 0.0
C431 C 0.59499 0.21553 0.08024 0.0
C432 C 0.57742 0.22376 0.07036 0.0
H433 H 0.69618 0.16462 0.00404 0.0
H434 H 0.66932 0.1879 0.01803 0.0
C435 C 0.56209 0.23337 0.08259 0.0
C436 C 0.61041 0.2038 0.06751 0.0
H437 H 0.66217 0.20001 0.0589 0.0
C438 C 0.60365 0.186 0.05514 0.0
C439 C 0.63168 0.20941 0.06821 0.0
C440 C 0.63974 0.22921 0.07996 0.0
C441 C 0.61769 0.1731 0.04421 0.0
C442 C 0.63908 0.17786 0.04614 0.0
C443 C 0.64577 0.19621 0.0577 0.0
C444 C 0.65482 0.16357 0.037 0.0
C445 C 0.60945 0.15448 0.03074 0.0
C446 C 0.65565 0.14225 0.04318 0.0
C447 C 0.67085 0.12889 0.03513 0.0
C448 C 0.68571 0.1367 0.02097 0.0
C449 C 0.68494 0.15812 0.0149 0.0
C450 C 0.66962 0.17144 0.02287 0.0
H451 H 0.5933 0.15709 0.02541 0.0
H452 H 0.61913 0.15168 0.01647 0.0
H453 H 0.60947 0.13987 0.04036 0.0
H454 H 0.64471 0.13601 0.05451 0.0
H455 H 0.67113 0.11253 0.04027 0.0
H456 H 0.06967 0.55263 0.21515 0.0
H457 H 0.05512 0.58606 0.20317 0.0
H458 H 0.07713 0.61821 0.26078 0.0
H459 H 0.09168 0.58485 0.27303 0.0
H460 H 0.02633 0.61742 0.22794 0.0
H461 H 0.10454 0.64817 0.20622 0.0
H462 H 0.09886 0.61997 0.2083 0.0
H463 H 0.10127 0.6365 0.23195 0.0
C464 C 0.0712 0.56673 0.22542 0.0
C465 C 0.08198 0.56614 0.24496 0.0
C466 C 0.06285 0.58577 0.21856 0.0
C467 C 0.06526 0.6045 0.23105 0.0
C468 C 0.07525 0.60385 0.25092 0.0
H469 H 0.04492 0.73553 0.19338 0.0
H470 H 0.05492 0.70408 0.2131 0.0
C471 C 0.0835 0.58478 0.25788 0.0
C472 C 0.05839 0.62496 0.22263 0.0
H473 H 0.07636 0.66997 0.19904 0.0
C474 C 0.03721 0.62902 0.22172 0.0
C475 C 0.07273 0.63998 0.2147 0.0
C476 C 0.09565 0.63605 0.21517 0.0
C477 C 0.02991 0.64782 0.21288 0.0
C478 C 0.04421 0.66255 0.20425 0.0
C479 C 0.06544 0.65864 0.20563 0.0
C480 C 0.03749 0.68165 0.19286 0.0
C481 C 0.007 0.65177 0.21302 0.0
C482 C 0.02462 0.67941 0.1748 0.0
C483 C 0.01882 0.6973 0.16358 0.0
C484 C 0.02602 0.71778 0.17005 0.0
C485 C 0.03912 0.71998 0.188 0.0
C486 C 0.04481 0.70205 0.19931 0.0
H487 H -0.0008 0.64291 0.22588 0.0
H488 H 0.0038 0.66902 0.21519 0.0
H489 H 0.0001 0.64612 0.19758 0.0
H490 H 0.01928 0.66376 0.16917 0.0
H491 H 0.00884 0.69505 0.14971 0.0
H492 H 0.57322 0.72412 0.43008 0.0
H493 H 0.60349 0.74038 0.44823 0.0
H494 H 0.57292 0.80085 0.4515 0.0
H495 H 0.5426 0.7848 0.43351 0.0
H496 H 0.62675 0.77534 0.43259 0.0
H497 H 0.59515 0.79366 0.51268 0.0
H498 H 0.58294 0.77465 0.49421 0.0
H499 H 0.57955 0.80279 0.49103 0.0
C500 C 0.57283 0.74081 0.4349 0.0
C501 C 0.55551 0.75318 0.43035 0.0
C502 C 0.59014 0.75006 0.44525 0.0
C503 C 0.5903 0.77171 0.45142 0.0
C504 C 0.57292 0.784 0.44723 0.0
H505 H 0.67479 0.86892 0.49786 0.0
H506 H 0.64532 0.84662 0.48602 0.0
C507 C 0.55566 0.77482 0.43682 0.0
C508 C 0.60915 0.78195 0.46083 0.0
H509 H 0.62715 0.81083 0.50417 0.0
C510 C 0.62698 0.78287 0.44835 0.0
C511 C 0.60928 0.79178 0.48135 0.0
C512 C 0.59077 0.79055 0.4957 0.0
C513 C 0.64475 0.79415 0.4555 0.0
C514 C 0.64475 0.80437 0.47586 0.0
C515 C 0.62707 0.80299 0.48856 0.0
C516 C 0.6626 0.81746 0.48383 0.0
C517 C 0.66302 0.7958 0.44083 0.0
C518 C 0.682 0.80836 0.48686 0.0
C519 C 0.69894 0.82109 0.4935 0.0
C520 C 0.69668 0.84311 0.49743 0.0
C521 C 0.67708 0.85204 0.49492 0.0
C522 C 0.6602 0.83932 0.48819 0.0
H523 H 0.65877 0.79133 0.42409 0.0
H524 H 0.66971 0.81225 0.44123 0.0
H525 H 0.67515 0.7848 0.44616 0.0
H526 H 0.68407 0.79143 0.48399 0.0
H527 H 0.7138 0.8137 0.49547 0.0
H528 H 0.48122 0.28601 0.71007 0.0
H529 H 0.46895 0.31767 0.72944 0.0
H530 H 0.46392 0.35082 0.67025 0.0
H531 H 0.47655 0.31961 0.65089 0.0
H532 H 0.48156 0.3758 0.70242 0.0
H533 H 0.40897 0.33619 0.72911 0.0
H534 H 0.43248 0.32364 0.73688 0.0
H535 H 0.42534 0.32434 0.70917 0.0
C536 C 0.47754 0.30007 0.70121 0.0
C537 C 0.47971 0.30025 0.67893 0.0
C538 C 0.47047 0.3181 0.71229 0.0
C539 C 0.46526 0.33645 0.70123 0.0
C540 C 0.46784 0.33679 0.67908 0.0
H541 H 0.38276 0.43718 0.72383 0.0
H542 H 0.40164 0.40523 0.71394 0.0
C543 C 0.47501 0.3189 0.66804 0.0
C544 C 0.45661 0.35528 0.71237 0.0
H545 H 0.41399 0.37237 0.73884 0.0
C546 C 0.46688 0.37507 0.71059 0.0
C547 C 0.43739 0.35421 0.72286 0.0
C548 C 0.42526 0.33352 0.72453 0.0
C549 C 0.45812 0.39398 0.71837 0.0
C550 C 0.43878 0.39293 0.7286 0.0
C551 C 0.42886 0.37305 0.73105 0.0
C552 C 0.42762 0.41238 0.73508 0.0
C553 C 0.46914 0.41497 0.71461 0.0
C554 C 0.43594 0.42696 0.75034 0.0
C555 C 0.42524 0.44541 0.75592 0.0
C556 C 0.40594 0.4494 0.74648 0.0
C557 C 0.39758 0.43459 0.73141 0.0
C558 C 0.40833 0.41629 0.72576 0.0
H559 H 0.48158 0.41333 0.70264 0.0
H560 H 0.45813 0.42706 0.70908 0.0
H561 H 0.47629 0.42101 0.72979 0.0
H562 H 0.45064 0.42402 0.75801 0.0
H563 H 0.43199 0.45644 0.76771 0.0
H564 H 0.91765 0.21728 0.87316 0.0
H565 H 0.88646 0.20419 0.89066 0.0
H566 H 0.91932 0.20391 0.95078 0.0
H567 H 0.95055 0.21716 0.9335 0.0
H568 H 0.88289 0.16557 0.91304 0.0
H569 H 0.86593 0.23613 0.96482 0.0
H570 H 0.88293 0.23758 0.94223 0.0
H571 H 0.8919 0.22673 0.96681 0.0
C572 C 0.91822 0.21459 0.89013 0.0
C573 C 0.93657 0.21827 0.90194 0.0
C574 C 0.90039 0.20712 0.90009 0.0
C575 C 0.90056 0.20337 0.92202 0.0
C576 C 0.9188 0.20711 0.93389 0.0
H577 H 0.81298 0.14995 0.01037 0.0
H578 H 0.84273 0.16679 0.99332 0.0
C579 C 0.93665 0.21454 0.92396 0.0
C580 C 0.88196 0.19445 0.93226 0.0
H581 H 0.84626 0.2045 0.97069 0.0
C582 C 0.87478 0.17411 0.92555 0.0
C583 C 0.87157 0.20563 0.94865 0.0
C584 C 0.87832 0.22781 0.95598 0.0
C585 C 0.85762 0.16443 0.93508 0.0
C586 C 0.84715 0.17563 0.95142 0.0
C587 C 0.85433 0.196 0.95813 0.0
C588 C 0.82878 0.16636 0.96182 0.0
C589 C 0.8512 0.14208 0.92792 0.0
C590 C 0.81095 0.16101 0.94983 0.0
C591 C 0.794 0.15128 0.95947 0.0
C592 C 0.7945 0.14696 0.98135 0.0
C593 C 0.81213 0.15301 0.99347 0.0
C594 C 0.82913 0.16264 0.98378 0.0
H595 H 0.86388 0.13376 0.91952 0.0
H596 H 0.84638 0.13243 0.94168 0.0
H597 H 0.8379 0.14287 0.9167 0.0
H598 H 0.81021 0.1642 0.93295 0.0
H599 H 0.78057 0.14702 0.94972 0.0
H600 H 0.26814 0.11558 0.4298 0.0
H601 H 0.28571 0.10181 0.39826 0.0
H602 H 0.29861 0.04358 0.4306 0.0
H603 H 0.28092 0.05717 0.46232 0.0
H604 H 0.32799 0.08938 0.39813 0.0
H605 H 0.2743 0.02331 0.37177 0.0
H606 H 0.26652 0.04472 0.38956 0.0
H607 H 0.28207 0.02362 0.39938 0.0
C608 C 0.27451 0.09975 0.43018 0.0
C609 C 0.27318 0.08748 0.4486 0.0
C610 C 0.28455 0.09193 0.41214 0.0
C611 C 0.29328 0.07165 0.41209 0.0
C612 C 0.29167 0.05916 0.43026 0.0
H613 H 0.36671 0.00349 0.31849 0.0
H614 H 0.347 0.01413 0.34993 0.0
C615 C 0.28165 0.06699 0.44838 0.0
C616 C 0.30515 0.06424 0.39345 0.0
H617 H 0.30573 0.02673 0.35312 0.0
C618 C 0.32313 0.07571 0.38824 0.0
C619 C 0.29877 0.04633 0.38076 0.0
C620 C 0.27928 0.03381 0.38547 0.0
C621 C 0.33503 0.06969 0.37064 0.0
C622 C 0.32848 0.05199 0.35771 0.0
C623 C 0.31062 0.04034 0.36306 0.0
C624 C 0.33994 0.04544 0.33845 0.0
C625 C 0.35468 0.08211 0.36628 0.0
C626 C 0.34217 0.05942 0.32148 0.0
C627 C 0.35347 0.05345 0.30354 0.0
C628 C 0.3626 0.03331 0.30221 0.0
C629 C 0.35994 0.01916 0.31906 0.0
C630 C 0.34866 0.02517 0.33701 0.0
H631 H 0.36031 0.09129 0.38063 0.0
H632 H 0.36708 0.07133 0.36082 0.0
H633 H 0.35169 0.09362 0.35352 0.0
H634 H 0.33518 0.07498 0.32213 0.0
H635 H 0.35509 0.06465 0.29077 0.0
H636 H 0.19198 0.03358 0.70303 0.0
H637 H 0.20488 0.045 0.6685 0.0
H638 H 0.16308 0.00022 0.63633 0.0
H639 H 0.14995 0.9888 0.67067 0.0
H640 H 0.22216 0.02105 0.63281 0.0
H641 H 0.14777 0.05938 0.61318 0.0
H642 H 0.1544 0.05162 0.63986 0.0
H643 H 0.14591 0.03184 0.62033 0.0
C644 C 0.18566 0.02602 0.68862 0.0
C645 C 0.16977 0.01047 0.68958 0.0
C646 C 0.19307 0.03253 0.66893 0.0
C647 C 0.18467 0.02366 0.64995 0.0
C648 C 0.1695 0.00747 0.65085 0.0
H649 H 0.19886 0.06255 0.51841 0.0
H650 H 0.18986 0.04254 0.55013 0.0
C651 C 0.16207 0.00095 0.67049 0.0
C652 C 0.19107 0.03207 0.6292 0.0
H653 H 0.17356 0.06011 0.58701 0.0
C654 C 0.21157 0.02954 0.62273 0.0
C655 C 0.17713 0.04308 0.61615 0.0
C656 C 0.15511 0.04684 0.62273 0.0
C657 C 0.21852 0.03776 0.60342 0.0
C658 C 0.20467 0.04911 0.59056 0.0
C659 C 0.18409 0.05131 0.59689 0.0
C660 C 0.21138 0.0599 0.57104 0.0
C661 C 0.24056 0.03412 0.5969 0.0
C662 C 0.22642 0.07629 0.57236 0.0
C663 C 0.23158 0.08775 0.55433 0.0
C664 C 0.22166 0.08312 0.53466 0.0
C665 C 0.20679 0.06649 0.53332 0.0
C666 C 0.20164 0.05503 0.5514 0.0
H667 H 0.24711 0.02011 0.60489 0.0
H668 H 0.2417 0.03161 0.57937 0.0
H669 H 0.25016 0.04835 0.6016 0.0
H670 H 0.23378 0.08063 0.58748 0.0
H671 H 0.24308 0.10049 0.55593 0.0
H672 H 0.20251 0.98882 0.79925 0.0
H673 H 0.21906 0.97191 0.8296 0.0
H674 H 0.16599 0.98563 0.86829 0.0
H675 H 0.14977 0.00319 0.83843 0.0
H676 H 0.20098 0.99179 0.8907 0.0
H677 H 0.20224 0.91313 0.84796 0.0
H678 H 0.21638 0.93394 0.83504 0.0
H679 H 0.1888 0.93559 0.83756 0.0
C680 C 0.19449 0.9884 0.8143 0.0
C681 C 0.17475 -0.00287 0.81639 0.0
C682 C 0.2039 0.97862 0.83158 0.0
C683 C 0.19354 0.97706 0.85105 0.0
C684 C 0.17423 0.98656 0.85338 0.0
H685 H 0.20372 0.88322 0.94694 0.0
H686 H 0.19492 0.90588 0.91723 0.0
C687 C 0.16496 -0.00343 0.83626 0.0
C688 C 0.2022 0.96482 0.86884 0.0
H689 H 0.21642 0.91486 0.88266 0.0
C690 C 0.20446 0.97498 0.88895 0.0
C691 C 0.20646 0.94283 0.86655 0.0
C692 C 0.20318 0.93064 0.84568 0.0
C693 C 0.21044 0.96367 0.90695 0.0
C694 C 0.21488 0.94172 0.90459 0.0
C695 C 0.21308 0.9317 0.88439 0.0
C696 C 0.22022 0.92847 0.92301 0.0
C697 C 0.21105 0.97512 0.9284 0.0
C698 C 0.23739 0.93361 0.93612 0.0
C699 C 0.24225 0.92084 0.95335 0.0
C700 C 0.23027 0.90247 0.95745 0.0
C701 C 0.21325 0.89724 0.94416 0.0
C702 C 0.20823 0.91017 0.92716 0.0
H703 H 0.20199 0.98999 0.92829 0.0
H704 H 0.2049 0.96475 0.94104 0.0
H705 H 0.22728 0.9796 0.93256 0.0
H706 H 0.24717 0.94733 0.93291 0.0
H707 H 0.25561 0.92513 0.9632 0.0
H708 H 0.28779 0.89458 0.07276 0.0
H709 H 0.30159 0.91214 0.1051 0.0
H710 H 0.26821 0.96898 0.09074 0.0
H711 H 0.25447 0.95159 0.05802 0.0
H712 H 0.30905 0.97722 0.10264 0.0
H713 H 0.27078 0.92443 0.16029 0.0
H714 H 0.28485 0.90977 0.14047 0.0
H715 H 0.26296 0.92513 0.13262 0.0
C716 C 0.28328 0.91078 0.07647 0.0
C717 C 0.26994 0.92165 0.06286 0.0
C718 C 0.29109 0.92075 0.09505 0.0
C719 C 0.2856 0.94169 0.1005 0.0
C720 C 0.27248 0.95272 0.08687 0.0
H721 H 0.32063 0.99325 0.22683 0.0
H722 H 0.30047 0.98348 0.19477 0.0
C723 C 0.26466 0.94276 0.06821 0.0
C724 C 0.29421 0.95216 0.12011 0.0
H725 H 0.29966 0.94549 0.17363 0.0
C726 C 0.3068 0.97048 0.11823 0.0
C727 C 0.29093 0.94356 0.14045 0.0
C728 C 0.27646 0.92477 0.14365 0.0
C729 C 0.31704 0.9798 0.13604 0.0
C730 C 0.31491 0.97028 0.15613 0.0
C731 C 0.3015 0.95261 0.15817 0.0
C732 C 0.32712 0.97771 0.17506 0.0
C733 C 0.33011 -0.00031 0.13315 0.0
C734 C 0.34878 0.97762 0.17462 0.0
C735 C 0.36035 0.98325 0.19287 0.0
C736 C 0.35044 0.98883 0.21199 0.0
C737 C 0.32873 0.98901 0.21236 0.0
C738 C 0.31718 0.98346 0.19406 0.0
H739 H 0.32491 0.00864 0.11908 0.0
H740 H 0.32967 0.01043 0.14748 0.0
H741 H 0.34637 0.99511 0.13047 0.0
H742 H 0.35677 0.97269 0.16029 0.0
H743 H 0.37704 0.98284 0.19208 0.0
H744 H 0.29342 0.32419 0.0444 0.0
H745 H 0.32437 0.30871 0.05973 0.0
H746 H 0.35745 0.32042 0.00175 0.0
H747 H 0.32654 0.33605 0.98621 0.0
H748 H 0.34961 0.27367 0.04332 0.0
H749 H 0.3916 0.35197 0.05054 0.0
H750 H 0.36395 0.34993 0.0467 0.0
H751 H 0.38084 0.34463 0.02479 0.0
C752 C 0.30722 0.32337 0.03482 0.0
C753 C 0.30758 0.33151 0.01414 0.0
C754 C 0.32486 0.31448 0.0436 0.0
C755 C 0.34318 0.31369 0.03193 0.0
C756 C 0.34347 0.32116 0.01106 0.0
H757 H 0.46637 0.28064 0.07651 0.0
H758 H 0.43719 0.29106 0.05425 0.0
C759 C 0.32579 0.33 0.0022 0.0
C760 C 0.3621 0.30567 0.04203 0.0
H761 H 0.40886 0.32192 0.06279 0.0
C762 C 0.36265 0.28414 0.04748 0.0
C763 C 0.37903 0.31943 0.04732 0.0
C764 C 0.37892 0.34283 0.04221 0.0
C765 C 0.37972 0.27599 0.0583 0.0
C766 C 0.39638 0.2899 0.06421 0.0
C767 C 0.39603 0.31132 0.05826 0.0
C768 C 0.41395 0.28283 0.07735 0.0
C769 C 0.37977 0.25255 0.06321 0.0
C770 C 0.41054 0.27501 0.0978 0.0
C771 C 0.42714 0.269 0.11052 0.0
C772 C 0.44748 0.27093 0.10311 0.0
C773 C 0.45087 0.27895 0.08267 0.0
C774 C 0.43424 0.28488 0.06993 0.0
H775 H 0.36937 0.24313 0.05219 0.0
H776 H 0.39557 0.24606 0.06211 0.0
H777 H 0.37416 0.25034 0.07968 0.0
H778 H 0.39503 0.27383 0.10405 0.0
H779 H 0.42401 0.26302 0.12623 0.0
H780 H 0.96474 0.77839 0.20685 0.0
H781 H 0.95055 0.80803 0.22784 0.0
H782 H 0.96642 0.85139 0.17803 0.0
H783 H 0.98084 0.82205 0.15708 0.0
H784 H 0.97563 0.86728 0.2201 0.0
H785 H 0.89513 0.83508 0.21104 0.0
H786 H 0.91377 0.81749 0.22217 0.0
H787 H 0.91608 0.82535 0.19497 0.0
C788 C 0.96534 0.79426 0.20043 0.0
C789 C 0.97373 0.79783 0.18021 0.0
C790 C 0.95718 0.81114 0.21242 0.0
C791 C 0.95723 0.83179 0.20433 0.0
C792 C 0.96623 0.83553 0.18451 0.0
H793 H 0.88399 0.94088 0.21978 0.0
H794 H 0.90227 0.90863 0.20954 0.0
C795 C 0.97439 0.81872 0.17254 0.0
C796 C 0.94706 0.84947 0.21586 0.0
H797 H 0.89962 0.86801 0.22931 0.0
C798 C 0.95904 0.86739 0.2224 0.0
C799 C 0.92541 0.84952 0.2186 0.0
C800 C 0.91174 0.83094 0.21122 0.0
C801 C 0.94985 0.88567 0.23112 0.0
C802 C 0.92817 0.88584 0.2335 0.0
C803 C 0.91626 0.8677 0.22754 0.0
C804 C 0.9173 0.90535 0.2402 0.0
C805 C 0.96322 0.90499 0.23682 0.0
C806 C 0.91967 0.91409 0.26089 0.0
C807 C 0.90922 0.9326 0.26684 0.0
C808 C 0.89624 0.94258 0.25215 0.0
C809 C 0.89388 0.93364 0.23148 0.0
C810 C 0.90428 0.91519 0.22559 0.0
H811 H 0.97926 0.90337 0.23092 0.0
H812 H 0.95652 0.91957 0.23009 0.0
H813 H 0.96391 0.90721 0.25441 0.0
H814 H 0.92948 0.90653 0.27245 0.0
H815 H 0.91129 0.93905 0.28291 0.0
H816 H 0.1583 0.62871 0.50804 0.0
H817 H 0.12957 0.6494 0.52185 0.0
H818 H 0.17243 0.69778 0.54628 0.0
H819 H 0.2013 0.67735 0.53222 0.0
H820 H 0.12396 0.65982 0.56433 0.0
H821 H 0.12878 0.73299 0.51641 0.0
H822 H 0.14175 0.70873 0.50891 0.0
H823 H 0.15253 0.72626 0.52941 0.0
C824 C 0.16163 0.64387 0.51612 0.0
C825 C 0.18209 0.65137 0.51907 0.0
C826 C 0.14518 0.65567 0.52398 0.0
C827 C 0.14887 0.67521 0.53486 0.0
C828 C 0.16923 0.68295 0.53753 0.0
H829 H 0.07152 0.75774 0.61138 0.0
H830 H 0.10008 0.74166 0.5918 0.0
C831 C 0.18571 0.67117 0.52962 0.0
C832 C 0.13149 0.68659 0.54481 0.0
H833 H 0.10589 0.73372 0.54588 0.0
C834 C 0.11992 0.67592 0.5602 0.0
C835 C 0.12639 0.70764 0.53946 0.0
C836 C 0.13788 0.71955 0.52251 0.0
C837 C 0.10348 0.68582 0.57057 0.0
C838 C 0.09832 0.70682 0.56518 0.0
C839 C 0.10993 0.71759 0.54989 0.0
C840 C 0.08087 0.71776 0.5754 0.0
C841 C 0.09198 0.67387 0.58751 0.0
C842 C 0.06062 0.70995 0.57214 0.0
C843 C 0.04431 0.71904 0.58327 0.0
C844 C 0.04798 0.73614 0.59783 0.0
C845 C 0.0682 0.74451 0.60037 0.0
C846 C 0.08452 0.7354 0.58918 0.0
H847 H 0.10071 0.65994 0.59308 0.0
H848 H 0.08881 0.68453 0.60145 0.0
H849 H 0.07694 0.66791 0.58087 0.0
H850 H 0.05751 0.69651 0.56131 0.0
H851 H 0.0289 0.71232 0.58082 0.0
H852 H 0.01041 0.70176 0.67112 0.0
H853 H -0.00083 0.66679 0.68342 0.0
H854 H 0.94464 0.69461 0.71046 0.0
H855 H 0.95593 0.7298 0.69856 0.0
H856 H 0.96297 0.66447 0.73655 0.0
H857 H 0.95185 0.63341 0.65342 0.0
H858 H 0.97736 0.64379 0.65937 0.0
H859 H 0.95579 0.66143 0.65979 0.0
C860 C 0.9961 0.70049 0.67984 0.0
C861 C 0.98392 0.7185 0.68367 0.0
C862 C 0.98968 0.68048 0.68677 0.0
C863 C 0.97089 0.67809 0.69744 0.0
C864 C 0.95914 0.69615 0.70212 0.0
H865 H 0.89345 0.56664 0.70869 0.0
H866 H 0.90983 0.60078 0.70052 0.0
C867 C 0.96561 0.71622 0.6953 0.0
C868 C 0.96304 0.65665 0.70295 0.0
H869 H 0.94685 0.60884 0.6809 0.0
C870 C 0.95948 0.65225 0.72443 0.0
C871 C 0.9583 0.6409 0.68702 0.0
C872 C 0.96082 0.64511 0.66359 0.0
C873 C 0.95125 0.63244 0.73043 0.0
C874 C 0.94682 0.61659 0.71451 0.0
C875 C 0.95046 0.62099 0.69306 0.0
C876 C 0.93726 0.59573 0.71958 0.0
C877 C 0.94678 0.62889 0.75365 0.0
C878 C 0.94743 0.58145 0.73277 0.0
C879 C 0.93806 0.5619 0.73756 0.0
C880 C 0.91845 0.55627 0.72906 0.0
C881 C 0.90854 0.57047 0.71552 0.0
C882 C 0.91787 0.59 0.71082 0.0
H883 H 0.94658 0.64415 0.76304 0.0
H884 H 0.93169 0.62046 0.7555 0.0
H885 H 0.95898 0.61884 0.76048 0.0
H886 H 0.9626 0.58541 0.73932 0.0
H887 H 0.94613 0.55125 0.74796 0.0
H888 H 0.19614 0.17913 0.48166 0.0
H889 H 0.16343 0.19529 0.4712 0.0
H890 H 0.1453 0.13728 0.4371 0.0
H891 H 0.17784 0.12107 0.44723 0.0
H892 H 0.14766 0.19709 0.42449 0.0
H893 H 0.09668 0.15363 0.48034 0.0
H894 H 0.12399 0.15805 0.48542 0.0
H895 H 0.11545 0.13812 0.46612 0.0
C896 C 0.18517 0.16982 0.47196 0.0
C897 C 0.18957 0.14883 0.46527 0.0
C898 C 0.16654 0.17907 0.46602 0.0
C899 C 0.15199 0.16735 0.45359 0.0
C900 C 0.15632 0.14645 0.44689 0.0
H901 H 0.03184 0.18077 0.39755 0.0
H902 H 0.06411 0.1689 0.41351 0.0
C903 C 0.17496 0.13727 0.45263 0.0
C904 C 0.13241 0.17699 0.44698 0.0
H905 H 0.08024 0.17328 0.45348 0.0
C906 C 0.13289 0.19214 0.43094 0.0
C907 C 0.1133 0.17025 0.45539 0.0
C908 C 0.11217 0.15421 0.47288 0.0
C909 C 0.11457 0.20023 0.42249 0.0
C910 C 0.09535 0.19338 0.43078 0.0
C911 C 0.09497 0.17853 0.44718 0.0
C912 C 0.07544 0.20072 0.42206 0.0
C913 C 0.11598 0.21531 0.40415 0.0
C914 C 0.07089 0.22251 0.42201 0.0
C915 C 0.05258 0.22935 0.41269 0.0
C916 C 0.03831 0.21449 0.40359 0.0
C917 C 0.04252 0.19262 0.40442 0.0
C918 C 0.06095 0.18581 0.41353 0.0
H919 H 0.13117 0.21443 0.39611 0.0
H920 H 0.1036 0.21177 0.39213 0.0
H921 H 0.11417 0.23192 0.41026 0.0
H922 H 0.08159 0.23425 0.42903 0.0
H923 H 0.04966 0.2463 0.41251 0.0
H924 H 0.63571 0.42879 0.23635 0.0
H925 H 0.61211 0.39994 0.22434 0.0
H926 H 0.56079 0.44259 0.2288 0.0
H927 H 0.58429 0.47167 0.24052 0.0
H928 H 0.5769 0.38226 0.24411 0.0
H929 H 0.55721 0.41941 0.16708 0.0
H930 H 0.57881 0.42856 0.1835 0.0
H931 H 0.55298 0.4357 0.19054 0.0
C932 C 0.6194 0.43205 0.23481 0.0
C933 C 0.6119 0.45257 0.2392 0.0
C934 C 0.60594 0.41554 0.228 0.0
C935 C 0.58478 0.41925 0.22541 0.0
C936 C 0.57714 0.43953 0.23033 0.0
H937 H 0.48928 0.33346 0.16976 0.0
H938 H 0.50632 0.36333 0.18932 0.0
C939 C 0.59059 0.45609 0.2371 0.0
C940 C 0.57087 0.4019 0.21716 0.0
H941 H 0.54068 0.38665 0.17434 0.0
C942 C 0.56888 0.38323 0.22891 0.0
C943 C 0.56038 0.40331 0.19737 0.0
C944 C 0.56251 0.42273 0.18375 0.0
C945 C 0.55687 0.36577 0.22124 0.0
C946 C 0.54686 0.36697 0.20119 0.0
C947 C 0.54834 0.38586 0.18974 0.0
C948 C 0.53607 0.34831 0.19102 0.0
C949 C 0.55502 0.34617 0.23461 0.0
C950 C 0.54721 0.33006 0.18552 0.0
C951 C 0.53759 0.31306 0.17432 0.0
C952 C 0.51664 0.31404 0.16832 0.0
C953 C 0.50541 0.33221 0.17419 0.0
C954 C 0.5151 0.34927 0.18534 0.0
H955 H 0.55834 0.34997 0.25171 0.0
H956 H 0.53934 0.33876 0.23312 0.0
H957 H 0.56639 0.33429 0.22905 0.0
H958 H 0.56351 0.3292 0.18938 0.0
H959 H 0.54668 0.29932 0.17004 0.0
H960 H 0.30011 0.82447 0.99148 0.0
H961 H 0.32918 0.80624 0.97488 0.0
H962 H 0.35788 0.8671 0.96171 0.0
H963 H 0.32919 0.8854 0.97856 0.0
H964 H 0.34205 0.80872 0.93373 0.0
H965 H 0.40512 0.8356 0.98887 0.0
H966 H 0.37818 0.83828 0.99538 0.0
H967 H 0.3908 0.85745 0.97878 0.0
C968 C 0.31271 0.83396 0.98523 0.0
C969 C 0.31238 0.85638 0.9864 0.0
C970 C 0.32929 0.82352 0.97576 0.0
C971 C 0.34583 0.83532 0.9674 0.0
C972 C 0.34552 0.85769 0.96855 0.0
H973 H 0.43057 0.80194 0.86854 0.0
H974 H 0.40223 0.81473 0.89051 0.0
C975 C 0.32902 0.86812 0.97806 0.0
C976 C 0.36288 0.82439 0.95636 0.0
H977 H 0.41542 0.82136 0.95484 0.0
C978 C 0.35808 0.81127 0.93848 0.0
C979 C 0.38376 0.82748 0.96278 0.0
C980 C 0.38978 0.84029 0.98264 0.0
C981 C 0.37367 0.80184 0.92632 0.0
C982 C 0.39459 0.80603 0.93198 0.0
C983 C 0.39936 0.81842 0.95036 0.0
C984 C 0.41175 0.79817 0.91872 0.0
C985 C 0.36758 0.78749 0.90754 0.0
C986 C 0.42685 0.78515 0.9275 0.0
C987 C 0.44321 0.77798 0.91504 0.0
C988 C 0.44477 0.7838 0.8936 0.0
C989 C 0.42973 0.79704 0.88494 0.0
C990 C 0.41344 0.80425 0.89743 0.0
H991 H 0.35165 0.78085 0.90921 0.0
H992 H 0.36796 0.79688 0.89278 0.0
H993 H 0.37839 0.77406 0.90565 0.0
H994 H 0.42589 0.78042 0.94395 0.0
H995 H 0.45456 0.76782 0.92219 0.0
H996 H 0.95089 0.45128 0.76792 0.0
H997 H 0.97113 0.42178 0.7816 0.0
H998 H 0.91709 0.39705 0.81292 0.0
H999 H 0.89679 0.42628 0.79942 0.0
H1000 H 0.95558 0.40279 0.83888 0.0
H1001 H 0.96453 0.35635 0.7627 0.0
H1002 H 0.97014 0.38462 0.76288 0.0
H1003 H 0.9441 0.37527 0.76647 0.0
C1004 C 0.94331 0.4395 0.77764 0.0
C1005 C 0.92224 0.4411 0.78259 0.0
C1006 C 0.95487 0.42267 0.78537 0.0
C1007 C 0.94551 0.40729 0.79814 0.0
C1008 C 0.92452 0.40882 0.80304 0.0
H1009 H 0.96813 0.2842 0.8443 0.0
H1010 H 0.95694 0.31618 0.82635 0.0
C1011 C 0.91296 0.42551 0.79528 0.0
C1012 C 0.9575 0.38972 0.80694 0.0
H1013 H 0.97818 0.34156 0.79382 0.0
C1014 C 0.9608 0.38951 0.82905 0.0
C1015 C 0.9641 0.37248 0.79397 0.0
C1016 C 0.96052 0.37196 0.77017 0.0
C1017 C 0.97009 0.37214 0.83867 0.0
C1018 C 0.97631 0.35467 0.82576 0.0
C1019 C 0.97347 0.3551 0.80358 0.0
C1020 C 0.98412 0.33506 0.83527 0.0
C1021 C 0.97238 0.37214 0.86263 0.0
C1022 C 0.00328 0.33508 0.84589 0.0
C1023 C 0.00975 0.31682 0.85618 0.0
C1024 C -0.0029 0.29831 0.85602 0.0
C1025 C 0.97817 0.29823 0.84484 0.0
C1026 C 0.97178 0.31644 0.8345 0.0
H1027 H 0.96403 0.38547 0.87048 0.0
H1028 H 0.96648 0.35683 0.86897 0.0
H1029 H 0.98899 0.37379 0.86704 0.0
H1030 H 0.01306 0.34931 0.84647 0.0
H1031 H 0.02445 0.31736 0.86458 0.0
H1032 H 0.32197 0.12458 0.52309 0.0
H1033 H 0.353 0.14362 0.53602 0.0
H1034 H 0.32239 0.20363 0.52963 0.0
H1035 H 0.29102 0.18464 0.51667 0.0
H1036 H 0.37611 0.1767 0.51423 0.0
H1037 H 0.34468 0.20365 0.59253 0.0
H1038 H 0.33278 0.18217 0.57678 0.0
H1039 H 0.32981 0.20928 0.56902 0.0
C1040 C 0.32175 0.14183 0.52445 0.0
C1041 C 0.30399 0.1531 0.51893 0.0
C1042 C 0.33953 0.15267 0.53179 0.0
C1043 C 0.33989 0.17496 0.5339 0.0
C1044 C 0.32229 0.18637 0.52831 0.0
H1045 H 0.43906 0.25449 0.59127 0.0
H1046 H 0.40716 0.24294 0.57282 0.0
C1047 C 0.30443 0.17551 0.52087 0.0
C1048 C 0.35885 0.18604 0.54197 0.0
H1049 H 0.37938 0.21247 0.58564 0.0
C1050 C 0.37683 0.18469 0.52976 0.0
C1051 C 0.35963 0.19649 0.56218 0.0
C1052 C 0.34077 0.19796 0.57604 0.0
C1053 C 0.39574 0.19326 0.53741 0.0
C1054 C 0.39672 0.20298 0.55799 0.0
C1055 C 0.37857 0.20494 0.56989 0.0
C1056 C 0.41654 0.21026 0.56794 0.0
C1057 C 0.41448 0.1918 0.52338 0.0
C1058 C 0.43235 0.19569 0.57135 0.0
C1059 C 0.45062 0.20223 0.58181 0.0
C1060 C 0.45331 0.22344 0.58927 0.0
C1061 C 0.43748 0.23804 0.58571 0.0
C1062 C 0.41924 0.23148 0.57518 0.0
H1063 H 0.41003 0.19019 0.50626 0.0
H1064 H 0.42479 0.20606 0.52564 0.0
H1065 H 0.42331 0.17747 0.52756 0.0
H1066 H 0.43038 0.17911 0.56634 0.0
H1067 H 0.46244 0.19057 0.58441 0.0
H1068 H 0.50635 0.71444 0.31031 0.0
H1069 H 0.52016 0.68473 0.2891 0.0
H1070 H 0.54187 0.65578 0.34656 0.0
H1071 H 0.52814 0.68525 0.36787 0.0
H1072 H 0.56217 0.67105 0.28818 0.0
H1073 H 0.50819 0.60759 0.31487 0.0
H1074 H 0.50291 0.63567 0.31812 0.0
H1075 H 0.52007 0.62298 0.33637 0.0
C1076 C 0.51399 0.7017 0.31844 0.0
C1077 C 0.5161 0.70216 0.34078 0.0
C1078 C 0.52185 0.68477 0.30629 0.0
C1079 C 0.53173 0.66797 0.31633 0.0
C1080 C 0.53395 0.66844 0.33858 0.0
H1081 H 0.61992 0.57612 0.28053 0.0
H1082 H 0.60071 0.60731 0.29226 0.0
C1083 C 0.52619 0.68536 0.35071 0.0
C1084 C 0.54046 0.65023 0.30363 0.0
H1085 H 0.53903 0.596 0.29775 0.0
C1086 C 0.55695 0.65465 0.29001 0.0
C1087 C 0.53338 0.62894 0.30585 0.0
C1088 C 0.51503 0.62347 0.31943 0.0
C1089 C 0.56731 0.63814 0.27937 0.0
C1090 C 0.56107 0.61675 0.28268 0.0
C1091 C 0.54388 0.61243 0.29541 0.0
C1092 C 0.57298 0.59858 0.2743 0.0
C1093 C 0.585 0.64369 0.26493 0.0
C1094 C 0.56363 0.5832 0.26053 0.0
C1095 C 0.57455 0.56527 0.25384 0.0
C1096 C 0.59493 0.56235 0.26101 0.0
C1097 C 0.60427 0.57791 0.27468 0.0
C1098 C 0.59337 0.59583 0.28128 0.0
H1099 H 0.58394 0.66028 0.25924 0.0
H1100 H 0.59977 0.64244 0.2739 0.0
H1101 H 0.58542 0.63256 0.2509 0.0
H1102 H 0.54782 0.585 0.25513 0.0
H1103 H 0.56691 0.55356 0.24334 0.0
H1104 H 0.06764 0.74013 0.08686 0.0
H1105 H 0.09864 0.75709 0.07224 0.0
H1106 H 0.0704 0.81862 0.07835 0.0
H1107 H 0.0395 0.80195 0.09315 0.0
H1108 H 0.10403 0.78397 0.03629 0.0
H1109 H 0.12477 0.82547 0.11297 0.0
H1110 H 0.10609 0.80373 0.11112 0.0
H1111 H 0.09894 0.83013 0.10375 0.0
C1112 C 0.06797 0.75726 0.08497 0.0
C1113 C 0.05119 0.76972 0.09138 0.0
C1114 C 0.08568 0.76689 0.0766 0.0
C1115 C 0.0869 0.78911 0.0746 0.0
C1116 C 0.06988 0.80148 0.08018 0.0
H1117 H 0.17738 0.88271 0.03707 0.0
H1118 H 0.14655 0.86285 0.04783 0.0
C1119 C 0.0522 0.7919 0.08855 0.0
C1120 C 0.10614 0.79952 0.06723 0.0
H1121 H 0.14395 0.83547 0.08266 0.0
C1122 C 0.11287 0.79513 0.04642 0.0
C1123 C 0.11762 0.81398 0.08058 0.0
C1124 C 0.11164 0.8185 0.10342 0.0
C1125 C 0.13052 0.80539 0.03837 0.0
C1126 C 0.14178 0.82012 0.05163 0.0
C1127 C 0.13519 0.82424 0.07252 0.0
C1128 C 0.16027 0.83181 0.04411 0.0
C1129 C 0.13664 0.80086 0.01559 0.0
C1130 C 0.17822 0.8209 0.03855 0.0
C1131 C 0.19592 0.83221 0.03239 0.0
C1132 C 0.19595 0.85463 0.03182 0.0
C1133 C 0.17789 0.86546 0.03734 0.0
C1134 C 0.16024 0.85415 0.04348 0.0
H1135 H 0.1239 0.79294 0.00618 0.0
H1136 H 0.14129 0.81582 0.00766 0.0
H1137 H 0.15006 0.79012 0.01541 0.0
H1138 H 0.17866 0.80367 0.03931 0.0
H1139 H 0.20961 0.8234 0.0283 0.0
H1140 H 0.77231 0.9453 0.55575 0.0
H1141 H 0.75977 0.96604 0.58655 0.0
H1142 H 0.71323 0.91745 0.59723 0.0
H1143 H 0.72557 0.89669 0.56678 0.0
H1144 H 0.71854 0.98135 0.59356 0.0
H1145 H 0.74298 0.92555 0.65557 0.0
H1146 H 0.7535 0.92505 0.629 0.0
H1147 H 0.72887 0.91248 0.63403 0.0
C1148 C 0.75945 0.93903 0.56471 0.0
C1149 C 0.75001 0.91929 0.5589 0.0
C1150 C 0.75233 0.95088 0.58226 0.0
C1151 C 0.73584 0.94304 0.59432 0.0
C1152 C 0.72626 0.92353 0.58837 0.0
H1153 H 0.64784 0.96834 0.6867 0.0
H1154 H 0.67129 0.95645 0.6589 0.0
C1155 C 0.73328 0.91175 0.57087 0.0
C1156 C 0.728 0.95529 0.61286 0.0
H1157 H 0.7161 0.94984 0.66528 0.0
C1158 C 0.71839 0.97479 0.60939 0.0
C1159 C 0.72799 0.94667 0.63346 0.0
C1160 C 0.73908 0.92639 0.63833 0.0
C1161 C 0.70741 0.98511 0.62572 0.0
C1162 C 0.70626 0.97569 0.64591 0.0
C1163 C 0.71694 0.9569 0.6497 0.0
C1164 C 0.6922 0.98365 0.66255 0.0
C1165 C 0.69607 0.00527 0.62099 0.0
C1166 C 0.69627 0.00292 0.67377 0.0
C1167 C 0.68286 0.00981 0.68979 0.0
C1168 C 0.66523 -0.00251 0.69473 0.0
C1169 C 0.66125 0.97824 0.6833 0.0
C1170 C 0.67464 0.97138 0.66743 0.0
H1171 H 0.69704 0.00948 0.60393 0.0
H1172 H 0.67954 0.00345 0.6253 0.0
H1173 H 0.70276 0.0187 0.63082 0.0
H1174 H 0.70989 0.01247 0.67031 0.0
H1175 H 0.68636 0.02468 0.69834 0.0
H1176 H 0.82829 0.00073 0.31569 0.0
H1177 H 0.81351 0.99146 0.35004 0.0
H1178 H 0.79561 0.92927 0.32442 0.0
H1179 H 0.81002 0.93849 0.28992 0.0
H1180 H 0.76518 0.94831 0.34966 0.0
H1181 H 0.84198 0.95035 0.39023 0.0
H1182 H 0.83529 0.97447 0.37716 0.0
H1183 H 0.83912 0.95045 0.3616 0.0
C1184 C 0.82109 0.98512 0.31731 0.0
C1185 C 0.8205 0.97026 0.30014 0.0
C1186 C 0.81273 0.97984 0.33697 0.0
C1187 C 0.80381 0.95957 0.33983 0.0
C1188 C 0.80252 0.94498 0.32253 0.0
H1189 H 0.78576 0.88747 0.45201 0.0
H1190 H 0.79629 0.90311 0.41853 0.0
C1191 C 0.8108 0.95027 0.30284 0.0
C1192 C 0.79644 0.95318 0.36101 0.0
H1193 H 0.81298 0.94332 0.41156 0.0
C1194 C 0.77556 0.94731 0.36326 0.0
C1195 C 0.81014 0.95171 0.3786 0.0
C1196 C 0.83292 0.95689 0.37684 0.0
C1197 C 0.76802 0.93979 0.38263 0.0
C1198 C 0.78171 0.93844 0.40024 0.0
C1199 C 0.80252 0.94455 0.39805 0.0
C1200 C 0.77513 0.92936 0.42067 0.0
C1201 C 0.74569 0.93264 0.38387 0.0
C1202 C 0.75988 0.93909 0.43309 0.0
C1203 C 0.75374 0.93012 0.45226 0.0
C1204 C 0.76287 0.91137 0.45936 0.0
C1205 C 0.77837 0.90189 0.447 0.0
C1206 C 0.78444 0.91082 0.42786 0.0
H1207 H 0.73847 0.93039 0.36781 0.0
H1208 H 0.74422 0.91743 0.39249 0.0
H1209 H 0.7369 0.94493 0.39277 0.0
H1210 H 0.7528 0.95364 0.42799 0.0
H1211 H 0.74185 0.93787 0.46148 0.0
H1212 H 0.73471 0.03735 0.03897 0.0
H1213 H 0.74856 0.02208 0.07161 0.0
H1214 H 0.78776 0.07788 0.08188 0.0
H1215 H 0.77392 0.09335 0.04959 0.0
H1216 H 0.7893 0.01262 0.0821 0.0
H1217 H 0.75805 0.07262 0.13877 0.0
H1218 H 0.74897 0.06967 0.11152 0.0
H1219 H 0.77244 0.08452 0.11769 0.0
C1220 C 0.74624 0.04639 0.04822 0.0
C1221 C 0.75312 0.06662 0.04177 0.0
C1222 C 0.75412 0.03764 0.06684 0.0
C1223 C 0.76887 0.04905 0.07933 0.0
C1224 C 0.77601 0.06905 0.07272 0.0
H1225 H 0.86033 0.012 0.16872 0.0
H1226 H 0.83953 0.02034 0.13749 0.0
C1227 C 0.76817 0.0778 0.05418 0.0
C1228 C 0.77734 0.03995 0.09901 0.0
H1229 H 0.78545 0.05119 0.15192 0.0
C1230 C 0.78824 0.02087 0.09744 0.0
C1231 C 0.7756 0.05055 0.11905 0.0
C1232 C 0.76294 0.07036 0.12195 0.0
C1233 C 0.79837 0.01267 0.11524 0.0
C1234 C 0.79784 0.0241 0.13495 0.0
C1235 C 0.78605 0.04259 0.13673 0.0
C1236 C 0.81023 0.01785 0.15364 0.0
C1237 C 0.80965 0.99194 0.11272 0.0
C1238 C 0.80069 0.01416 0.17322 0.0
C1239 C 0.81257 0.00963 0.19121 0.0
C1240 C 0.83421 0.00881 0.18991 0.0
C1241 C 0.8437 0.0124 0.17023 0.0
C1242 C 0.83181 0.01699 0.15231 0.0
H1243 H 0.80319 0.98201 0.09924 0.0
H1244 H 0.82613 0.99543 0.10928 0.0
H1245 H 0.80887 0.98256 0.12748 0.0
H1246 H 0.78405 0.01493 0.17461 0.0
H1247 H 0.8048 0.00694 0.20614 0.0
H1248 H 0.68386 0.97644 0.78426 0.0
H1249 H 0.70225 0.98408 0.81806 0.0
H1250 H 0.65256 0.02416 0.83879 0.0
H1251 H 0.63414 0.01672 0.80524 0.0
H1252 H 0.71409 0.02637 0.83378 0.0
H1253 H 0.66258 0.98413 0.8895 0.0
H1254 H 0.66277 0.97808 0.86118 0.0
H1255 H 0.64913 0.00082 0.87134 0.0
C1256 C 0.67678 0.98672 0.79611 0.0
C1257 C 0.65755 0.99597 0.79209 0.0
C1258 C 0.68729 0.99104 0.81537 0.0
C1259 C 0.67857 0.00439 0.83097 0.0
C1260 C 0.65933 0.01348 0.82708 0.0
H1261 H 0.7009 0.07611 0.94373 0.0
H1262 H 0.6882 0.05533 0.91278 0.0
C1263 C 0.64891 0.00932 0.80783 0.0
C1264 C 0.69001 0.01019 0.85082 0.0
H1265 H 0.68527 0.01117 0.90491 0.0
C1266 C 0.7081 0.02271 0.84939 0.0
C1267 C 0.68207 0.00533 0.87105 0.0
C1268 C 0.66317 0.99118 0.87344 0.0
C1269 C 0.71773 0.03174 0.8677 0.0
C1270 C 0.7092 0.02771 0.88792 0.0
C1271 C 0.69172 0.01426 0.88937 0.0
C1272 C 0.7169 0.039 0.90748 0.0
C1273 C 0.73617 0.04654 0.86517 0.0
C1274 C 0.73715 0.03637 0.915 0.0
C1275 C 0.74454 0.04835 0.93267 0.0
C1276 C 0.73171 0.06303 0.94314 0.0
C1277 C 0.71122 0.06503 0.93598 0.0
C1278 C 0.7039 0.05312 0.91832 0.0
H1279 H 0.73841 0.05103 0.84832 0.0
H1280 H 0.73446 0.06133 0.87505 0.0
H1281 H 0.75031 0.03848 0.87063 0.0
H1282 H 0.7473 0.02525 0.90705 0.0
H1283 H 0.76035 0.04633 0.93791 0.0
H1284 H 0.54767 0.74785 0.91927 0.0
H1285 H 0.57698 0.73655 0.94092 0.0
H1286 H 0.5912 0.6886 0.89312 0.0
H1287 H 0.56191 0.69961 0.87145 0.0
H1288 H 0.58999 0.67377 0.93558 0.0
H1289 H 0.6391 0.747 0.92836 0.0
H1290 H 0.61306 0.75107 0.93707 0.0
H1291 H 0.61758 0.74082 0.91059 0.0
C1292 C 0.55708 0.73495 0.91332 0.0
C1293 C 0.55249 0.72465 0.89361 0.0
C1294 C 0.57386 0.72859 0.92567 0.0
C1295 C 0.58633 0.71191 0.91848 0.0
C1296 C 0.58175 0.70156 0.89888 0.0
H1297 H 0.70577 0.66834 0.9546 0.0
H1298 H 0.6756 0.68407 0.93794 0.0
C1299 C 0.56503 0.70791 0.88652 0.0
C1300 C 0.60395 0.70482 0.9315 0.0
H1301 H 0.65167 0.72015 0.95055 0.0
C1302 C 0.60344 0.68392 0.93898 0.0
C1303 C 0.62148 0.71811 0.93571 0.0
C1304 C 0.62303 0.74046 0.92741 0.0
C1305 C 0.62014 0.67584 0.95044 0.0
C1306 C 0.63765 0.68915 0.95472 0.0
C1307 C 0.63811 0.71011 0.94738 0.0
C1308 C 0.65618 0.68108 0.96559 0.0
C1309 C 0.6192 0.65294 0.95729 0.0
C1310 C 0.65534 0.67466 0.98682 0.0
C1311 C 0.67256 0.66563 -0.00358 0.0
C1312 C 0.6909 0.66292 0.98492 0.0
C1313 C 0.69186 0.67008 0.96388 0.0
C1314 C 0.67466 0.67912 0.95433 0.0
H1315 H 0.60644 0.64371 0.94916 0.0
H1316 H 0.63399 0.64492 0.95389 0.0
H1317 H 0.6166 0.65254 0.97472 0.0
H1318 H 0.64127 0.67634 0.99585 0.0
H1319 H 0.67135 0.66039 0.01269 0.0
H1320 H 0.13203 0.07125 0.78277 0.0
H1321 H 0.11224 0.10114 0.79669 0.0
H1322 H 0.06185 0.08396 0.75376 0.0
H1323 H 0.08172 0.05409 0.7394 0.0
H1324 H 0.07056 0.12807 0.75643 0.0
H1325 H 0.06305 0.09348 0.83648 0.0
H1326 H 0.08934 0.09564 0.82787 0.0
H1327 H 0.07143 0.07814 0.81354 0.0
C1328 C 0.11677 0.07384 0.77619 0.0
C1329 C 0.10836 0.06018 0.76011 0.0
C1330 C 0.10546 0.09087 0.78425 0.0
C1331 C 0.08545 0.09445 0.77654 0.0
C1332 C 0.07724 0.08133 0.76 0.0
H1333 H 0.00387 0.17737 0.84865 0.0
H1334 H 0.01739 0.14737 0.82785 0.0
C1335 C 0.0886 0.06429 0.75183 0.0
C1336 C 0.0731 0.11173 0.7861 0.0
H1337 H 0.05449 0.13014 0.83359 0.0
C1338 C 0.06684 0.12848 0.77325 0.0
C1339 C 0.06795 0.11196 0.80795 0.0
C1340 C 0.0731 0.09374 0.82223 0.0
C1341 C 0.05625 0.14594 0.78192 0.0
C1342 C 0.05221 0.14675 0.80404 0.0
C1343 C 0.05778 0.12959 0.81667 0.0
C1344 C 0.04283 0.16548 0.8147 0.0
C1345 C 0.04947 0.16328 0.76731 0.0
C1346 C 0.05259 0.18563 0.81409 0.0
C1347 C 0.04485 0.20284 0.82587 0.0
C1348 C 0.02737 0.2001 0.8387 0.0
C1349 C 0.01741 0.17998 0.83898 0.0
C1350 C 0.02508 0.16283 0.82709 0.0
H1351 H 0.0478 0.15724 0.75057 0.0
H1352 H 0.03454 0.17005 0.77244 0.0
H1353 H 0.06131 0.17632 0.76764 0.0
H1354 H 0.0666 0.18791 0.80507 0.0
H1355 H 0.05292 0.21811 0.82541 0.0
H1356 H 0.95161 0.27024 0.42302 0.0
H1357 H 0.92297 0.28459 0.44375 0.0
H1358 H 0.89711 0.31097 0.38677 0.0
H1359 H 0.92539 0.2964 0.36589 0.0
H1360 H 0.91149 0.32614 0.44959 0.0
H1361 H 0.84798 0.27854 0.41083 0.0
H1362 H 0.87484 0.27212 0.40751 0.0
H1363 H 0.86344 0.29276 0.3921 0.0
C1364 C 0.93977 0.27901 0.41489 0.0
C1365 C 0.9407 0.28209 0.39279 0.0
C1366 C 0.92344 0.28719 0.42675 0.0
C1367 C 0.90775 0.2985 0.41672 0.0
C1368 C 0.90879 0.30183 0.39473 0.0
H1369 H 0.82348 0.38912 0.46959 0.0
H1370 H 0.8521 0.37035 0.45308 0.0
C1371 C 0.92505 0.29361 0.38284 0.0
C1372 C 0.89064 0.30749 0.42931 0.0
H1373 H 0.83807 0.30873 0.43215 0.0
C1374 C 0.89544 0.3222 0.44593 0.0
C1375 C 0.86973 0.30204 0.42473 0.0
C1376 C 0.86366 0.28533 0.40797 0.0
C1377 C 0.87984 0.3322 0.45761 0.0
C1378 C 0.85892 0.32766 0.45219 0.0
C1379 C 0.85413 0.31237 0.4361 0.0
C1380 C 0.84176 0.339 0.46262 0.0
C1381 C 0.88592 0.34747 0.47566 0.0
C1382 C 0.82614 0.32753 0.47297 0.0
C1383 C 0.80961 0.3382 0.48224 0.0
C1384 C 0.8084 0.36053 0.48125 0.0
C1385 C 0.82403 0.37194 0.47079 0.0
C1386 C 0.84049 0.36125 0.46146 0.0
H1387 H 0.90166 0.34425 0.48186 0.0
H1388 H 0.886 0.36402 0.46978 0.0
H1389 H 0.87484 0.34649 0.48901 0.0
H1390 H 0.82678 0.31032 0.4739 0.0
H1391 H 0.79779 0.32895 0.49016 0.0
H1392 H 0.60033 0.91676 0.71413 0.0
H1393 H 0.58343 0.88407 0.72616 0.0
H1394 H 0.55128 0.92035 0.7743 0.0
H1395 H 0.56792 0.95315 0.76229 0.0
H1396 H 0.58854 0.86914 0.76719 0.0
H1397 H 0.50563 0.88091 0.74907 0.0
H1398 H 0.526 0.89627 0.73682 0.0
H1399 H 0.51771 0.90305 0.76337 0.0
C1400 C 0.58937 0.91787 0.72702 0.0
C1401 C 0.58554 0.93756 0.73732 0.0
C1402 C 0.57974 0.89916 0.73386 0.0
C1403 C 0.56597 0.89983 0.75096 0.0
C1404 C 0.56155 0.91954 0.76079 0.0
H1405 H 0.50963 0.81513 0.83851 0.0
H1406 H 0.52116 0.84473 0.81674 0.0
C1407 C 0.57119 0.93826 0.75399 0.0
C1408 C 0.55789 0.87978 0.75998 0.0
H1409 H 0.51348 0.85358 0.7737 0.0
C1410 C 0.57214 0.86554 0.76835 0.0
C1411 C 0.5365 0.87525 0.76152 0.0
C1412 C 0.52056 0.88957 0.75204 0.0
C1413 C 0.56555 0.84729 0.77902 0.0
C1414 C 0.54414 0.84299 0.78099 0.0
C1415 C 0.52989 0.85695 0.77215 0.0
C1416 C 0.53628 0.82476 0.79328 0.0
C1417 C 0.58156 0.83329 0.78892 0.0
C1418 C 0.54067 0.80369 0.78706 0.0
C1419 C 0.53421 0.78669 0.79954 0.0
C1420 C 0.52312 0.79052 0.81837 0.0
C1421 C 0.51824 0.81162 0.82417 0.0
C1422 C 0.52475 0.82857 0.81172 0.0
H1423 H 0.597 0.84133 0.79 0.0
H1424 H 0.57691 0.82862 0.80516 0.0
H1425 H 0.58305 0.81852 0.77898 0.0
H1426 H 0.54925 0.80041 0.77265 0.0
H1427 H 0.53806 0.77061 0.79454 0.0
H1428 H 0.95007 0.20921 0.33657 0.0
H1429 H 0.93205 0.17923 0.31851 0.0
H1430 H 0.99009 0.15564 0.29564 0.0
H1431 H 0.00839 0.18563 0.31376 0.0
H1432 H 0.93306 0.16544 0.27333 0.0
H1433 H 0.96302 0.10573 0.32963 0.0
H1434 H 0.96367 0.13401 0.33588 0.0
H1435 H 0.98165 0.12298 0.31725 0.0
C1436 C 0.95904 0.19772 0.32763 0.0
C1437 C 0.98069 0.1997 0.32674 0.0
C1438 C 0.9487 0.18065 0.31727 0.0
C1439 C 0.95978 0.16519 0.30596 0.0
C1440 C 0.98132 0.16735 0.30451 0.0
H1441 H 0.91159 0.04233 0.25657 0.0
H1442 H 0.93458 0.07294 0.26473 0.0
C1443 C 0.99172 0.1845 0.31482 0.0
C1444 C 0.94868 0.14646 0.29638 0.0
H1445 H 0.93976 0.09326 0.30301 0.0
C1446 C 0.93462 0.1496 0.27965 0.0
C1447 C 0.95087 0.12587 0.30466 0.0
C1448 C 0.9655 0.12181 0.32293 0.0
C1449 C 0.92241 0.13266 0.27115 0.0
C1450 C 0.924 0.11221 0.28 0.0
C1451 C 0.93855 0.10896 0.29628 0.0
C1452 C 0.90998 0.09421 0.27351 0.0
C1453 C 0.90795 0.13682 0.25278 0.0
C1454 C 0.88855 0.09602 0.27583 0.0
C1455 C 0.87537 0.07861 0.2711 0.0
C1456 C 0.88342 0.05898 0.26425 0.0
C1457 C 0.9049 0.05724 0.26184 0.0
C1458 C 0.91806 0.0747 0.26646 0.0
H1459 H 0.9133 0.15077 0.24358 0.0
H1460 H 0.90648 0.12272 0.24177 0.0
H1461 H 0.89242 0.14044 0.25908 0.0
H1462 H 0.88202 0.11075 0.28179 0.0
H1463 H 0.85891 0.08044 0.27325 0.0
H1464 H 0.57272 0.04903 0.71554 0.0
H1465 H 0.55798 0.08264 0.7042 0.0
H1466 H 0.60526 0.11789 0.73977 0.0
H1467 H 0.62021 0.08447 0.75109 0.0
H1468 H 0.5438 0.11871 0.72969 0.0
H1469 H 0.61013 0.13916 0.67781 0.0
H1470 H 0.60565 0.1126 0.68747 0.0
H1471 H 0.61659 0.13308 0.70489 0.0
C1472 C 0.57994 0.06393 0.72103 0.0
C1473 C 0.59775 0.06408 0.73407 0.0
C1474 C 0.57148 0.08309 0.71457 0.0
C1475 C 0.58073 0.10266 0.72093 0.0
C1476 C 0.59811 0.1029 0.73444 0.0
H1477 H 0.55731 0.23279 0.68338 0.0
H1478 H 0.57043 0.20133 0.70099 0.0
C1479 C 0.60658 0.08378 0.74093 0.0
C1480 C 0.57245 0.12283 0.71304 0.0
H1481 H 0.58397 0.16463 0.68118 0.0
C1482 C 0.55255 0.12879 0.7191 0.0
C1483 C 0.58399 0.13591 0.6993 0.0
C1484 C 0.60522 0.12987 0.6918 0.0
C1485 C 0.54387 0.14766 0.71183 0.0
C1486 C 0.55528 0.16057 0.69781 0.0
C1487 C 0.57529 0.15471 0.69197 0.0
C1488 C 0.54653 0.17984 0.68831 0.0
C1489 C 0.52269 0.1537 0.71944 0.0
C1490 C 0.52881 0.17813 0.6753 0.0
C1491 C 0.52125 0.19606 0.66527 0.0
C1492 C 0.53142 0.21599 0.6679 0.0
C1493 C 0.54912 0.21768 0.68104 0.0
C1494 C 0.55663 0.19973 0.69112 0.0
H1495 H 0.51876 0.14587 0.7346 0.0
H1496 H 0.52158 0.17125 0.72185 0.0
H1497 H 0.51099 0.14844 0.70727 0.0
H1498 H 0.52107 0.16283 0.6725 0.0
H1499 H 0.50765 0.19418 0.65515 0.0
H1500 H 0.20834 0.31184 0.98198 0.0
H1501 H 0.17862 0.29051 0.96874 0.0
H1502 H 0.13744 0.33284 0.0019 0.0
H1503 H 0.16697 0.35435 0.01513 0.0
H1504 H 0.14474 0.27003 0.99211 0.0
H1505 H 0.1193 0.33352 0.93789 0.0
H1506 H 0.14493 0.33329 0.94949 0.0
H1507 H 0.12345 0.34173 0.96528 0.0
C1508 C 0.19297 0.31656 0.98656 0.0
C1509 C 0.19 0.33491 -0.00055 0.0
C1510 C 0.17604 0.30432 0.97904 0.0
C1511 C 0.15591 0.31029 0.98418 0.0
C1512 C 0.1529 0.32817 -0.00243 0.0
H1513 H 0.03505 0.26889 0.93824 0.0
H1514 H 0.06382 0.28555 0.95834 0.0
C1515 C 0.16979 0.34041 0.00513 0.0
C1516 C 0.13801 0.29834 0.97484 0.0
H1517 H 0.09765 0.30302 0.94008 0.0
C1518 C 0.1344 0.27717 0.98073 0.0
C1519 C 0.12465 0.30779 0.96 0.0
C1520 C 0.12828 0.33027 0.9526 0.0
C1521 C 0.11747 0.26523 0.97238 0.0
C1522 C 0.10415 0.27467 0.95747 0.0
C1523 C 0.10783 0.29586 0.9516 0.0
C1524 C 0.08643 0.26293 0.94733 0.0
C1525 C 0.1138 0.24282 0.97989 0.0
C1526 C 0.08956 0.24451 0.93469 0.0
C1527 C 0.0731 0.23484 0.92328 0.0
C1528 C 0.0533 0.24364 0.92409 0.0
C1529 C 0.05013 0.26176 0.93721 0.0
C1530 C 0.06654 0.2713 0.94872 0.0
H1531 H 0.12152 0.24026 0.99549 0.0
H1532 H 0.09703 0.23918 0.98143 0.0
H1533 H 0.12025 0.23135 0.96809 0.0
H1534 H 0.10487 0.23807 0.933 0.0
H1535 H 0.07606 0.22098 0.91321 0.0
H1536 H 0.43156 0.69615 0.38519 0.0
H1537 H 0.40146 0.68283 0.40425 0.0
H1538 H 0.42336 0.71513 0.46187 0.0
H1539 H 0.45381 0.72825 0.44301 0.0
H1540 H 0.40972 0.6741 0.4687 0.0
H1541 H 0.35181 0.71758 0.42193 0.0
H1542 H 0.36826 0.70163 0.40543 0.0
H1543 H 0.37913 0.72373 0.42091 0.0
C1544 C 0.42999 0.70047 0.40191 0.0
C1545 C 0.445 0.71338 0.41256 0.0
C1546 C 0.41271 0.69294 0.41274 0.0
C1547 C 0.40999 0.69838 0.43434 0.0
C1548 C 0.42512 0.71092 0.44515 0.0
H1549 H 0.29137 0.67363 0.49496 0.0
H1550 H 0.32307 0.69121 0.48286 0.0
C1551 C 0.44249 0.71838 0.43435 0.0
C1552 C 0.3915 0.69059 0.44566 0.0
H1553 H 0.33884 0.68929 0.44325 0.0
C1554 C 0.3942 0.67758 0.4633 0.0
C1555 C 0.37129 0.69551 0.43882 0.0
C1556 C 0.36741 0.71056 0.42088 0.0
C1557 C 0.3772 0.66861 0.47377 0.0
C1558 C 0.35703 0.67246 0.46608 0.0
C1559 C 0.35433 0.68617 0.44898 0.0
C1560 C 0.33852 0.6618 0.47492 0.0
C1561 C 0.38101 0.65515 0.49296 0.0
C1562 C 0.33671 0.63946 0.47442 0.0
C1563 C 0.3187 0.62938 0.4814 0.0
C1564 C 0.30204 0.64148 0.48876 0.0
C1565 C 0.30393 0.66386 0.48938 0.0
C1566 C 0.32202 0.67393 0.48249 0.0
H1567 H 0.3961 0.65932 0.50074 0.0
H1568 H 0.3686 0.65706 0.5049 0.0
H1569 H 0.38138 0.6381 0.4878 0.0
H1570 H 0.34904 0.6298 0.46812 0.0
H1571 H 0.31768 0.61211 0.48059 0.0
H1572 H 0.83862 0.54871 0.78841 0.0
H1573 H 0.82082 0.55829 0.82141 0.0
H1574 H 0.85781 0.51391 0.8558 0.0
H1575 H 0.87579 0.50427 0.82297 0.0
H1576 H 0.79849 0.53032 0.85009 0.0
H1577 H 0.8664 0.5722 0.88829 0.0
H1578 H 0.86489 0.56633 0.85999 0.0
H1579 H 0.8706 0.54556 0.8782 0.0
C1580 C 0.84297 0.54097 0.80298 0.0
C1581 C 0.85871 0.52584 0.80311 0.0
C1582 C 0.83276 0.54643 0.82178 0.0
C1583 C 0.8382 0.53696 0.84099 0.0
C1584 C 0.85362 0.52159 0.84114 0.0
H1585 H 0.79929 0.56587 0.97091 0.0
H1586 H 0.81466 0.54866 0.9396 0.0
C1587 C 0.86383 0.51608 0.82236 0.0
C1588 C 0.82786 0.54338 0.86094 0.0
H1589 H 0.83616 0.56948 0.90867 0.0
C1590 C 0.80669 0.53884 0.86296 0.0
C1591 C 0.8387 0.55436 0.87765 0.0
C1592 C 0.86137 0.56008 0.87599 0.0
C1593 C 0.79599 0.54506 0.88135 0.0
C1594 C 0.80673 0.55649 0.89787 0.0
C1595 C 0.828 0.56067 0.89599 0.0
C1596 C 0.79608 0.56533 0.91677 0.0
C1597 C 0.77336 0.53921 0.88298 0.0
C1598 C 0.7805 0.58033 0.91426 0.0
C1599 C 0.77166 0.59013 0.93207 0.0
C1600 C 0.7784 0.58528 0.95273 0.0
C1601 C 0.79376 0.56996 0.95521 0.0
C1602 C 0.80256 0.56011 0.93736 0.0
H1603 H 0.76915 0.52519 0.87253 0.0
H1604 H 0.76915 0.53558 0.89963 0.0
H1605 H 0.76402 0.55284 0.87779 0.0
H1606 H 0.77562 0.58496 0.89851 0.0
H1607 H 0.75993 0.60193 0.9296 0.0
H1608 H 0.63785 0.51869 0.17081 0.0
H1609 H 0.65806 0.53024 0.14042 0.0
H1610 H 0.71159 0.53985 0.18128 0.0
H1611 H 0.69137 0.52865 0.21192 0.0
H1612 H 0.70357 0.57436 0.15689 0.0
H1613 H 0.70262 0.50078 0.10615 0.0
H1614 H 0.67727 0.5085 0.11421 0.0
H1615 H 0.69581 0.50075 0.13399 0.0
C1616 C 0.65399 0.52301 0.17332 0.0
C1617 C 0.66299 0.5228 0.19379 0.0
C1618 C 0.66556 0.52945 0.15589 0.0
C1619 C 0.68641 0.53557 0.15854 0.0
C1620 C 0.69555 0.53504 0.17888 0.0
H1621 H 0.77086 0.59607 0.06907 0.0
H1622 H 0.75701 0.57746 0.0998 0.0
C1623 C 0.68397 0.52865 0.19636 0.0
C1624 C 0.69809 0.5442 0.14042 0.0
H1625 H 0.71199 0.53332 0.089 0.0
C1626 C 0.7057 0.5653 0.14215 0.0
C1627 C 0.70078 0.53233 0.12122 0.0
C1628 C 0.69387 0.50926 0.11881 0.0
C1629 C 0.71521 0.57514 0.1249 0.0
C1630 C 0.71738 0.56345 0.10552 0.0
C1631 C 0.71022 0.54221 0.1039 0.0
C1632 C 0.7262 0.57341 0.08647 0.0
C1633 C 0.72217 0.59821 0.12724 0.0
C1634 C 0.71356 0.57674 0.06864 0.0
C1635 C 0.72139 0.58734 0.05107 0.0
C1636 C 0.74206 0.59468 0.051 0.0
C1637 C 0.75485 0.59073 0.06867 0.0
C1638 C 0.74697 0.58016 0.08626 0.0
H1639 H 0.71585 0.60605 0.14178 0.0
H1640 H 0.73928 0.59909 0.12837 0.0
H1641 H 0.71734 0.60729 0.11312 0.0
H1642 H 0.69749 0.57158 0.06853 0.0
H1643 H 0.71116 0.59005 0.03768 0.0
H1644 H 0.71605 0.37844 0.43583 0.0
H1645 H 0.70387 0.40052 0.40703 0.0
H1646 H 0.72823 0.45684 0.44009 0.0
H1647 H 0.74015 0.43483 0.46934 0.0
H1648 H 0.68921 0.46239 0.42483 0.0
H1649 H 0.73788 0.42822 0.36114 0.0
H1650 H 0.72327 0.40797 0.37435 0.0
H1651 H 0.74256 0.42353 0.38902 0.0
C1652 C 0.71893 0.3955 0.43697 0.0
C1653 C 0.72916 0.40487 0.45482 0.0
C1654 C 0.71208 0.40809 0.42041 0.0
C1655 C 0.71555 0.43025 0.42121 0.0
C1656 C 0.72557 0.43973 0.4391 0.0
H1657 H 0.68751 0.50145 0.30651 0.0
H1658 H 0.70567 0.48802 0.33768 0.0
C1659 C 0.73236 0.42713 0.45577 0.0
C1660 C 0.70793 0.44349 0.40369 0.0
H1661 H 0.70826 0.44757 0.34959 0.0
C1662 C 0.69358 0.45938 0.4084 0.0
C1663 C 0.71396 0.43984 0.38232 0.0
C1664 C 0.73044 0.42412 0.37642 0.0
C1665 C 0.6843 0.47097 0.39216 0.0
C1666 C 0.68917 0.46616 0.37066 0.0
C1667 C 0.70431 0.45104 0.36606 0.0
C1668 C 0.67805 0.47574 0.35262 0.0
C1669 C 0.66931 0.48817 0.39822 0.0
C1670 C 0.65653 0.47323 0.35066 0.0
C1671 C 0.64611 0.48099 0.33297 0.0
C1672 C 0.65707 0.49113 0.31673 0.0
C1673 C 0.67863 0.4937 0.31875 0.0
C1674 C 0.68903 0.48606 0.33654 0.0
H1675 H 0.67257 0.49471 0.41455 0.0
H1676 H 0.66989 0.50148 0.38688 0.0
H1677 H 0.6534 0.48126 0.39806 0.0
H1678 H 0.64781 0.46479 0.36255 0.0
H1679 H 0.62952 0.4786 0.33182 0.0
H1680 H 0.87263 0.48094 0.69441 0.0
H1681 H 0.85073 0.47136 0.66365 0.0
H1682 H 0.79918 0.4602 0.70521 0.0
H1683 H 0.82112 0.46942 0.73623 0.0
H1684 H 0.80393 0.42793 0.67582 0.0
H1685 H 0.80562 0.50566 0.63593 0.0
H1686 H 0.83107 0.49643 0.64177 0.0
H1687 H 0.81386 0.50278 0.66328 0.0
C1688 C 0.85661 0.47654 0.69705 0.0
C1689 C 0.84861 0.47596 0.71777 0.0
C1690 C 0.84407 0.47126 0.67942 0.0
C1691 C 0.82323 0.46552 0.68213 0.0
C1692 C 0.81519 0.4648 0.70279 0.0
H1693 H 0.74184 0.44424 0.57034 0.0
H1694 H 0.75587 0.45811 0.60451 0.0
C1695 C 0.82776 0.47003 0.72048 0.0
C1696 C 0.81027 0.45909 0.66342 0.0
H1697 H 0.79514 0.4751 0.61417 0.0
C1698 C 0.80175 0.43834 0.66246 0.0
C1699 C 0.80714 0.47282 0.64617 0.0
C1700 C 0.81472 0.49574 0.6469 0.0
C1701 C 0.7911 0.43057 0.64423 0.0
C1702 C 0.78929 0.44379 0.62639 0.0
C1703 C 0.79683 0.46491 0.62777 0.0
C1704 C 0.7807 0.43556 0.6058 0.0
C1705 C 0.78208 0.40819 0.64414 0.0
C1706 C 0.7903 0.41863 0.59507 0.0
C1707 C 0.78238 0.4107 0.57565 0.0
C1708 C 0.76476 0.41967 0.56647 0.0
C1709 C 0.7554 0.43695 0.57703 0.0
C1710 C 0.76336 0.44488 0.59654 0.0
H1711 H 0.77917 0.40279 0.6606 0.0
H1712 H 0.76737 0.40707 0.63489 0.0
H1713 H 0.7932 0.3971 0.63667 0.0
H1714 H 0.80401 0.41157 0.60171 0.0
H1715 H 0.79007 0.39749 0.56787 0.0
H1716 H 0.44778 0.03917 0.1971 0.0
H1717 H 0.46401 0.07362 0.18937 0.0
H1718 H 0.4517 0.09621 0.25339 0.0
H1719 H 0.43525 0.06195 0.26122 0.0
H1720 H 0.43781 0.12311 0.22242 0.0
H1721 H 0.51922 0.10155 0.20806 0.0
H1722 H 0.50091 0.0853 0.19295 0.0
H1723 H 0.50125 0.08425 0.22156 0.0
C1724 C 0.4488 0.05135 0.20964 0.0
C1725 C 0.44016 0.04785 0.22975 0.0
C1726 C 0.4582 0.07098 0.20524 0.0
C1727 C 0.45925 0.08736 0.2209 0.0
C1728 C 0.45113 0.08372 0.24114 0.0
H1729 H 0.52082 0.21089 0.19999 0.0
H1730 H 0.5099 0.17737 0.21621 0.0
C1731 C 0.44173 0.06412 0.24556 0.0
C1732 C 0.4671 0.10885 0.21555 0.0
H1733 H 0.50879 0.13564 0.19575 0.0
C1734 C 0.45341 0.12591 0.21684 0.0
C1735 C 0.48752 0.11249 0.20852 0.0
C1736 C 0.50316 0.09497 0.20787 0.0
C1737 C 0.45934 0.14636 0.21042 0.0
C1738 C 0.47937 0.14972 0.20229 0.0
C1739 C 0.49337 0.13292 0.20185 0.0
C1740 C 0.48564 0.17025 0.19301 0.0
C1741 C 0.44405 0.16416 0.21218 0.0
C1742 C 0.47565 0.17717 0.17459 0.0
C1743 C 0.48184 0.19619 0.16528 0.0
C1744 C 0.49819 0.20863 0.17422 0.0
C1745 C 0.50812 0.20171 0.19278 0.0
C1746 C 0.50196 0.18257 0.20203 0.0
H1747 H 0.43175 0.16056 0.22386 0.0
H1748 H 0.45188 0.17947 0.21702 0.0
H1749 H 0.43654 0.16626 0.19641 0.0
H1750 H 0.46324 0.16768 0.16722 0.0
H1751 H 0.47389 0.20104 0.15098 0.0
H1752 H 0.04647 0.81088 0.68814 0.0
H1753 H 0.05897 0.84177 0.70923 0.0
H1754 H -0.00257 0.86687 0.7104 0.0
H1755 H 0.98474 0.83603 0.68904 0.0
H1756 H 0.02669 0.89576 0.69698 0.0
H1757 H 0.05275 0.8595 0.7718 0.0
H1758 H 0.06283 0.84603 0.7487 0.0
H1759 H 0.03538 0.84581 0.75308 0.0
C1760 C 0.03551 0.82281 0.6931 0.0
C1761 C 0.01462 0.82105 0.68684 0.0
C1762 C 0.04265 0.84036 0.70533 0.0
C1763 C 0.02905 0.85641 0.71167 0.0
C1764 C 0.00811 0.85453 0.70583 0.0
H1765 H 0.08181 0.9671 0.78466 0.0
H1766 H 0.05773 0.93778 0.7744 0.0
C1767 C 0.00092 0.83692 0.6936 0.0
C1768 C 0.03726 0.8761 0.72242 0.0
H1769 H 0.06837 0.89372 0.76368 0.0
C1770 C 0.03544 0.89541 0.7118 0.0
C1771 C 0.04841 0.87567 0.74189 0.0
C1772 C 0.04979 0.85567 0.75465 0.0
C1773 C 0.0457 0.914 0.71938 0.0
C1774 C 0.05825 0.91312 0.73788 0.0
C1775 C 0.05891 0.89423 0.74934 0.0
C1776 C 0.07239 0.93096 0.74423 0.0
C1777 C 0.04362 0.93428 0.70715 0.0
C1778 C 0.08868 0.93648 0.73079 0.0
C1779 C 0.10245 0.95301 0.7366 0.0
C1780 C 0.10019 0.96435 0.75602 0.0
C1781 C 0.0839 0.9587 0.76957 0.0
C1782 C 0.07016 0.942 0.76376 0.0
H1783 H 0.02924 0.93404 0.69732 0.0
H1784 H 0.04359 0.94847 0.71811 0.0
H1785 H 0.05693 0.93596 0.69628 0.0
H1786 H 0.09083 0.92787 0.71581 0.0
H1787 H 0.11483 0.95691 0.7258 0.0
H1788 H 0.4605 0.78673 0.35641 0.0
H1789 H 0.44557 0.81581 0.33661 0.0
H1790 H 0.50606 0.84494 0.33053 0.0
H1791 H 0.52125 0.81568 0.35006 0.0
H1792 H 0.44701 0.85841 0.34855 0.0
H1793 H 0.48335 0.84575 0.26955 0.0
H1794 H 0.48316 0.82567 0.28969 0.0
H1795 H 0.50127 0.84774 0.29158 0.0
C1796 C 0.47069 0.79922 0.35073 0.0
C1797 C 0.49207 0.79891 0.35481 0.0
C1798 C 0.46211 0.81581 0.3394 0.0
C1799 C 0.47474 0.83236 0.33189 0.0
C1800 C 0.49611 0.83207 0.33581 0.0
H1801 H 0.44745 0.95311 0.27433 0.0
H1802 H 0.46433 0.92218 0.28936 0.0
C1803 C 0.50473 0.81542 0.34709 0.0
C1804 C 0.46528 0.85051 0.32108 0.0
H1805 H 0.46449 0.87761 0.27455 0.0
C1806 C 0.45075 0.86255 0.33234 0.0
C1807 C 0.47029 0.85588 0.29997 0.0
C1808 C 0.48523 0.84299 0.28688 0.0
C1809 C 0.4412 0.87998 0.32312 0.0
C1810 C 0.44613 0.8853 0.302 0.0
C1811 C 0.46076 0.8734 0.29075 0.0
C1812 C 0.43617 0.90325 0.29142 0.0
C1813 C 0.42615 0.89279 0.33617 0.0
C1814 C 0.41487 0.90253 0.28715 0.0
C1815 C 0.40518 0.92012 0.2786 0.0
C1816 C 0.41666 0.93872 0.27413 0.0
C1817 C 0.43815 0.93907 0.27771 0.0
C1818 C 0.44783 0.92143 0.28624 0.0
H1819 H 0.42759 0.88964 0.35347 0.0
H1820 H 0.42855 0.91015 0.33379 0.0
H1821 H 0.41015 0.88842 0.33098 0.0
H1822 H 0.40569 0.88847 0.29077 0.0
H1823 H 0.38863 0.91928 0.27589 0.0
H1824 H 0.80928 0.65997 0.00188 0.0
H1825 H 0.84115 0.67548 0.01724 0.0
H1826 H 0.80657 0.70428 0.0684 0.0
H1827 H 0.77448 0.689 0.05305 0.0
H1828 H 0.83829 0.73133 0.05079 0.0
H1829 H 0.86654 0.65142 0.07231 0.0
H1830 H 0.85937 0.65403 0.04477 0.0
H1831 H 0.83999 0.65595 0.06498 0.0
C1832 C 0.80838 0.66976 0.0163 0.0
C1833 C 0.78936 0.67308 0.02638 0.0
C1834 C 0.82663 0.67854 0.02507 0.0
C1835 C 0.82619 0.6907 0.0441 0.0
C1836 C 0.80718 0.69483 0.05373 0.0
H1837 H 0.92501 0.71735 0.13407 0.0
H1838 H 0.89318 0.7064 0.11534 0.0
C1839 C 0.78888 0.68607 0.04495 0.0
C1840 C 0.84567 0.69828 0.05447 0.0
H1841 H 0.88955 0.68072 0.07831 0.0
C1842 C 0.84955 0.72032 0.0568 0.0
C1843 C 0.86014 0.68381 0.06248 0.0
C1844 C 0.85631 0.65998 0.06122 0.0
C1845 C 0.86769 0.72828 0.06685 0.0
C1846 C 0.88232 0.71378 0.0745 0.0
C1847 C 0.87836 0.69177 0.07225 0.0
C1848 C 0.90149 0.72104 0.0857 0.0
C1849 C 0.87085 0.7521 0.06963 0.0
C1850 C 0.91678 0.73276 0.07513 0.0
C1851 C 0.93506 0.73906 0.08579 0.0
C1852 C 0.93833 0.73364 0.10717 0.0
C1853 C 0.92299 0.72181 0.11762 0.0
C1854 C 0.90478 0.71553 0.10696 0.0
H1855 H 0.85627 0.76081 0.06712 0.0
H1856 H 0.87703 0.75626 0.08581 0.0
H1857 H 0.88224 0.75772 0.05782 0.0
H1858 H 0.91467 0.73682 0.05858 0.0
H1859 H 0.94661 0.74811 0.07728 0.0
H1860 H 0.53989 0.29794 0.59006 0.0
H1861 H 0.57014 0.3146 0.57402 0.0
H1862 H 0.60086 0.25416 0.57296 0.0
H1863 H 0.57046 0.2372 0.58875 0.0
H1864 H 0.60922 0.31643 0.59245 0.0
H1865 H 0.61067 0.27576 0.51274 0.0
H1866 H 0.58816 0.27523 0.5295 0.0
H1867 H 0.60953 0.25828 0.53498 0.0
C1868 C 0.55297 0.28809 0.58619 0.0
C1869 C 0.55279 0.26624 0.59071 0.0
C1870 C 0.57024 0.29766 0.57702 0.0
C1871 C 0.58765 0.28558 0.57214 0.0
C1872 C 0.58742 0.26368 0.57624 0.0
H1873 H 0.70987 0.32563 0.5291 0.0
H1874 H 0.68015 0.30472 0.54148 0.0
C1875 C 0.57008 0.25404 0.58536 0.0
C1876 C 0.60646 0.29636 0.56415 0.0
H1877 H 0.63911 0.29871 0.52184 0.0
C1878 C 0.61573 0.31258 0.57699 0.0
C1879 C 0.61499 0.29116 0.54407 0.0
C1880 C 0.60527 0.27428 0.5294 0.0
C1881 C 0.63328 0.32384 0.57025 0.0
C1882 C 0.64159 0.31891 0.55003 0.0
C1883 C 0.63261 0.30242 0.53732 0.0
C1884 C 0.65927 0.33123 0.54163 0.0
C1885 C 0.64289 0.34084 0.58488 0.0
C1886 C 0.65716 0.3529 0.53727 0.0
C1887 C 0.67403 0.36487 0.53022 0.0
C1888 C 0.69331 0.35534 0.52735 0.0
C1889 C 0.69524 0.33346 0.53125 0.0
C1890 C 0.67831 0.32148 0.53827 0.0
H1891 H 0.63782 0.33911 0.60162 0.0
H1892 H 0.66002 0.34029 0.58446 0.0
H1893 H 0.63818 0.35677 0.5795 0.0
H1894 H 0.64247 0.3606 0.5395 0.0
H1895 H 0.67198 0.38164 0.52724 0.0
H1896 H 0.22563 0.44388 0.03334 0.0
H1897 H 0.21219 0.46317 0.06445 0.0
H1898 H 0.22483 0.40928 0.10362 0.0
H1899 H 0.23791 0.38975 0.07263 0.0
H1900 H 0.18537 0.42338 0.10768 0.0
H1901 H 0.24167 0.49108 0.11616 0.0
H1902 H 0.2302 0.48784 0.09007 0.0
H1903 H 0.24663 0.4675 0.10005 0.0
C1904 C 0.22577 0.43623 0.04863 0.0
C1905 C 0.23277 0.41526 0.05052 0.0
C1906 C 0.2182 0.44734 0.0664 0.0
C1907 C 0.21774 0.43773 0.08636 0.0
C1908 C 0.22512 0.41699 0.08835 0.0
H1909 H 0.19014 0.49023 0.21123 0.0
H1910 H 0.20677 0.47643 0.17902 0.0
C1911 C 0.23258 0.40585 0.07062 0.0
C1912 C 0.2082 0.44856 0.10488 0.0
H1913 H 0.21174 0.49273 0.13776 0.0
C1914 C 0.19115 0.43852 0.11428 0.0
C1915 C 0.21591 0.46823 0.11351 0.0
C1916 C 0.23473 0.47924 0.10458 0.0
C1917 C 0.18152 0.44763 0.1321 0.0
C1918 C 0.18889 0.46755 0.14043 0.0
C1919 C 0.20603 0.47756 0.13114 0.0
C1920 C 0.1793 0.4778 0.15923 0.0
C1921 C 0.16385 0.43559 0.14213 0.0
C1922 C 0.15853 0.48367 0.15853 0.0
C1923 C 0.14894 0.49141 0.1769 0.0
C1924 C 0.16004 0.49358 0.19623 0.0
C1925 C 0.18113 0.48864 0.19661 0.0
C1926 C 0.19068 0.4808 0.17824 0.0
H1927 H 0.16348 0.41845 0.13715 0.0
H1928 H 0.16488 0.43674 0.1598 0.0
H1929 H 0.14903 0.4426 0.13708 0.0
H1930 H 0.14961 0.48185 0.14387 0.0
H1931 H 0.13273 0.4953 0.17602 0.0
H1932 H 0.30473 0.48341 0.79712 0.0
H1933 H 0.28321 0.47324 0.82734 0.0
H1934 H 0.33659 0.44793 0.8588 0.0
H1935 H 0.35814 0.45789 0.82882 0.0
H1936 H 0.27912 0.42975 0.84324 0.0
H1937 H 0.30941 0.48811 0.90425 0.0
H1938 H 0.3121 0.49197 0.87595 0.0
H1939 H 0.32909 0.47442 0.88962 0.0
C1940 C 0.3119 0.47582 0.81056 0.0
C1941 C 0.33313 0.47144 0.81061 0.0
C1942 C 0.29959 0.47004 0.82776 0.0
C1943 C 0.30842 0.46012 0.84533 0.0
C1944 C 0.3296 0.45589 0.84549 0.0
H1945 H 0.28511 0.3956 0.95836 0.0
H1946 H 0.2975 0.41513 0.92776 0.0
C1947 C 0.34185 0.46148 0.82829 0.0
C1948 C 0.29551 0.45298 0.86314 0.0
H1949 H 0.29117 0.45754 0.91715 0.0
C1950 C 0.28138 0.43604 0.85938 0.0
C1951 C 0.29857 0.46133 0.88407 0.0
C1952 C 0.31298 0.4801 0.88876 0.0
C1953 C 0.27118 0.42625 0.87629 0.0
C1954 C 0.27502 0.43395 0.89737 0.0
C1955 C 0.28834 0.45163 0.90096 0.0
C1956 C 0.26701 0.42266 0.91607 0.0
C1957 C 0.25738 0.40699 0.87159 0.0
C1958 C 0.24572 0.42061 0.91973 0.0
C1959 C 0.23855 0.4093 0.9372 0.0
C1960 C 0.25258 0.40005 0.95134 0.0
C1961 C 0.27388 0.40249 0.94777 0.0
C1962 C 0.281 0.41369 0.93032 0.0
H1963 H 0.25912 0.40075 0.85499 0.0
H1964 H 0.26082 0.394 0.88273 0.0
H1965 H 0.24103 0.41144 0.87378 0.0
H1966 H 0.23469 0.42774 0.90909 0.0
H1967 H 0.22205 0.40782 0.93961 0.0
H1968 H 0.25402 0.54316 0.53093 0.0
H1969 H 0.26825 0.5238 0.561 0.0
H1970 H 0.27045 0.58205 0.59905 0.0
H1971 H 0.25642 0.60153 0.5692 0.0
H1972 H 0.30827 0.55982 0.5965 0.0
H1973 H 0.24221 0.50717 0.61897 0.0
H1974 H 0.24886 0.50709 0.59119 0.0
H1975 H 0.2389 0.53083 0.60353 0.0
C1976 C 0.25728 0.55179 0.54579 0.0
C1977 C 0.2542 0.57391 0.54765 0.0
C1978 C 0.26531 0.54068 0.56296 0.0
C1979 C 0.27025 0.55151 0.58222 0.0
C1980 C 0.26667 0.57343 0.58429 0.0
H1981 H 0.30821 0.51431 0.70694 0.0
H1982 H 0.28952 0.52578 0.67529 0.0
C1983 C 0.25866 0.58453 0.5672 0.0
C1984 C 0.28067 0.54053 0.59975 0.0
H1985 H 0.27382 0.50283 0.63749 0.0
C1986 C 0.3008 0.54729 0.60542 0.0
C1987 C 0.27076 0.5243 0.61134 0.0
C1988 C 0.24893 0.51694 0.60613 0.0
C1989 C 0.31128 0.5384 0.62257 0.0
C1990 C 0.30144 0.52209 0.63414 0.0
C1991 C 0.28133 0.51521 0.62842 0.0
C1992 C 0.31152 0.51291 0.65292 0.0
C1993 C 0.33257 0.54696 0.62858 0.0
C1994 C 0.32975 0.5014 0.6507 0.0
C1995 C 0.34052 0.4949 0.66872 0.0
C1996 C 0.33317 0.49977 0.68925 0.0
C1997 C 0.31435 0.51043 0.69136 0.0
C1998 C 0.30361 0.51694 0.67331 0.0
H1999 H 0.33615 0.56234 0.62087 0.0
H2000 H 0.33408 0.54936 0.64613 0.0
H2001 H 0.34426 0.53526 0.62341 0.0
H2002 H 0.33591 0.49792 0.63503 0.0
H2003 H 0.35485 0.48654 0.66655 0.0
H2004 H 0.16424 0.53622 0.28269 0.0
H2005 H 0.18568 0.55149 0.31173 0.0
H2006 H 0.1509 0.51523 0.35711 0.0
H2007 H 0.12946 0.49971 0.32818 0.0
H2008 H 0.16976 0.57578 0.34584 0.0
H2009 H 0.21143 0.50529 0.37459 0.0
H2010 H 0.19901 0.50572 0.34869 0.0
H2011 H 0.18391 0.50156 0.37215 0.0
C2012 C 0.1613 0.53126 0.29882 0.0
C2013 C 0.14509 0.51681 0.30316 0.0
C2014 C 0.17359 0.53999 0.31536 0.0
C2015 C 0.17 0.5343 0.33649 0.0
C2016 C 0.15416 0.51951 0.34085 0.0
H2017 H 0.20972 0.57882 0.46122 0.0
H2018 H 0.19504 0.55944 0.43017 0.0
C2019 C 0.14183 0.51078 0.32431 0.0
C2020 C 0.18163 0.54521 0.35411 0.0
H2021 H 0.21329 0.53672 0.39673 0.0
C2022 C 0.17946 0.56731 0.35686 0.0
C2023 C 0.19412 0.53402 0.36846 0.0
C2024 C 0.19745 0.51036 0.36578 0.0
C2025 C 0.18902 0.57851 0.37398 0.0
C2026 C 0.20144 0.56732 0.38845 0.0
C2027 C 0.20379 0.54523 0.38556 0.0
C2028 C 0.21147 0.57822 0.4071 0.0
C2029 C 0.18513 0.60207 0.37685 0.0
C2030 C 0.22592 0.59487 0.40437 0.0
C2031 C 0.23421 0.6061 0.42206 0.0
C2032 C 0.22836 0.60068 0.44278 0.0
C2033 C 0.21448 0.58344 0.44546 0.0
C2034 C 0.20611 0.57232 0.42776 0.0
H2035 H 0.17136 0.60701 0.36763 0.0
H2036 H 0.18284 0.60642 0.39392 0.0
H2037 H 0.1987 0.61127 0.37112 0.0
H2038 H 0.23058 0.59935 0.38854 0.0
H2039 H 0.24505 0.61914 0.41948 0.0
loop_
_geom_bond_atom_site_label_1
_geom_bond_atom_site_label_2
_geom_bond_distance
_geom_bond_site_symmetry_2
_ccdc_geom_bond_type
C0 O1 1.160 . S
C0 O7 1.185 . S
O1 C0 1.160 . S
O2 Zn3 1.902 . S
O2 C10 1.284 . S
Zn3 O2 1.902 . S
Zn3 O4 2.031 1_655 S
Zn3 O7 2.089 . S
Zn3 O12 1.973 1_655 S
O4 Zn3 2.031 1_455 S
O4 C8 1.278 . S
C5 O6 1.203 . S
C5 O12 1.267 . S
O6 C5 1.203 . S
O7 C0 1.185 . S
O7 Zn3 2.089 . S
C8 O4 1.278 . S
C8 O9 1.211 . S
O9 C8 1.211 . S
C10 O2 1.284 . S
C10 O11 1.273 1_655 S
O11 C10 1.273 1_455 S
O12 Zn3 1.973 1_455 S
O12 C5 1.267 . S
C13 O14 1.160 . S
C13 O20 1.185 . S
O14 C13 1.160 . S
O15 Zn16 1.899 1_655 S
O15 C23 1.284 . S
Zn16 O15 1.899 1_455 S
Zn16 O17 2.032 . S
Zn16 O20 2.086 . S
Zn16 O25 1.977 1_455 S
O17 Zn16 2.032 . S
O17 C21 1.278 . S
C18 O19 1.203 . S
C18 O25 1.267 . S
O19 C18 1.203 . S
O20 C13 1.185 . S
O20 Zn16 2.086 . S
C21 O17 1.278 . S
C21 O22 1.253 . S
O22 C21 1.253 . S
C23 O15 1.284 . S
C23 O24 1.273 . S
O24 C23 1.273 . S
O25 Zn16 1.977 1_655 S
O25 C18 1.267 . S
C26 O27 1.160 . S
C26 O33 1.185 . S
O27 C26 1.160 . S
O28 Zn29 1.899 . S
O28 C36 1.284 . S
Zn29 O28 1.899 . S
Zn29 O30 2.032 . S
Zn29 O33 2.086 . S
Zn29 O38 1.977 . S
O30 Zn29 2.032 . S
O30 C34 1.278 . S
C31 O32 1.203 . S
C31 O38 1.267 . S
O32 C31 1.203 . S
O33 C26 1.185 . S
O33 Zn29 2.086 . S
C34 O30 1.278 . S
C34 O35 1.211 . S
O35 C34 1.211 . S
C36 O28 1.284 . S
C36 O37 1.273 . S
O37 C36 1.273 . S
O38 Zn29 1.977 . S
O38 C31 1.267 . S
C39 O40 1.160 . S
C39 O46 1.185 . S
O40 C39 1.160 . S
O41 Zn42 1.899 . S
O41 C49 1.284 . S
Zn42 O41 1.899 . S
Zn42 O43 2.032 . S
Zn42 O46 2.086 . S
Zn42 O51 1.977 . S
O43 Zn42 2.032 . S
O43 C47 1.278 . S
C44 O45 1.203 . S
C44 O51 1.267 . S
O45 C44 1.203 . S
O46 C39 1.185 . S
O46 Zn42 2.086 . S
C47 O43 1.278 . S
C47 O48 1.211 . S
O48 C47 1.211 . S
C49 O41 1.284 . S
C49 O50 1.273 . S
O50 C49 1.273 . S
O51 Zn42 1.977 . S
O51 C44 1.267 . S
C52 O53 1.160 . S
C52 O59 1.185 . S
O53 C52 1.160 . S
O54 Zn55 1.899 . S
O54 C62 1.284 . S
Zn55 O54 1.899 . S
Zn55 O56 2.032 . S
Zn55 O59 2.086 . S
Zn55 O64 1.977 1_455 S
O56 Zn55 2.032 . S
O56 C60 1.278 1_455 S
C57 O58 1.203 . S
C57 O64 1.267 . S
O58 C57 1.203 . S
O59 C52 1.185 . S
O59 Zn55 2.086 . S
C60 O56 1.278 1_655 S
C60 O61 1.211 . S
O61 C60 1.211 . S
C62 O54 1.284 . S
C62 O63 1.273 . S
O63 C62 1.273 . S
O64 Zn55 1.977 1_655 S
O64 C57 1.267 . S
C65 O66 1.160 . S
C65 O72 1.185 . S
O66 C65 1.160 . S
O67 Zn68 1.899 . S
O67 C75 1.284 . S
Zn68 O67 1.899 . S
Zn68 O69 2.032 . S
Zn68 O72 2.086 . S
Zn68 O77 1.977 . S
O69 Zn68 2.032 . S
O69 C73 1.278 . S
C70 O71 1.203 . S
C70 O77 1.267 . S
O71 C70 1.203 . S
O72 C65 1.185 . S
O72 Zn68 2.086 . S
C73 O69 1.278 . S
C73 O74 1.211 . S
O74 C73 1.211 . S
C75 O67 1.284 . S
C75 O76 1.273 . S
O76 C75 1.273 . S
O77 Zn68 1.977 . S
O77 C70 1.267 . S
C78 O79 1.160 . S
C78 O85 1.185 . S
O79 C78 1.160 . S
O80 Zn81 1.899 . S
O80 C88 1.284 . S
Zn81 O80 1.899 . S
Zn81 O82 2.032 . S
Zn81 O85 2.086 . S
Zn81 O90 1.977 . S
O82 Zn81 2.032 . S
O82 C86 1.278 . S
C83 O84 1.203 . S
C83 O90 1.267 . S
O84 C83 1.203 . S
O85 C78 1.185 . S
O85 Zn81 2.086 . S
C86 O82 1.278 . S
C86 O87 1.211 . S
O87 C86 1.211 . S
C88 O80 1.284 . S
C88 O89 1.273 . S
O89 C88 1.273 . S
O90 Zn81 1.977 . S
O90 C83 1.267 . S
C91 O92 1.160 . S
C91 O98 1.185 . S
O92 C91 1.160 . S
O93 Zn94 1.899 . S
O93 C101 1.284 . S
Zn94 O93 1.899 . S
Zn94 O95 2.032 1_455 S
Zn94 O98 2.086 1_455 S
Zn94 O103 1.977 . S
O95 Zn94 2.032 1_655 S
O95 C99 1.278 . S
C96 O97 1.203 . S
C96 O103 1.267 . S
O97 C96 1.203 . S
O98 C91 1.185 . S
O98 Zn94 2.086 1_655 S
C99 O95 1.278 . S
C99 O100 1.211 1_655 S
O100 C99 1.211 1_455 S
C101 O93 1.284 . S
C101 O102 1.273 . S
O102 C101 1.273 . S
O103 Zn94 1.977 . S
O103 C96 1.267 . S
C104 O105 1.160 . S
C104 O111 1.185 . S
O105 C104 1.160 . S
O106 Zn107 1.899 1_565 S
O106 C114 1.284 . S
Zn107 O106 1.899 1_545 S
Zn107 O108 2.032 . S
Zn107 O111 2.086 1_545 S
Zn107 O116 1.977 . S
O108 Zn107 2.032 . S
O108 C112 1.278 . S
C109 O110 1.203 . S
C109 O116 1.267 . S
O110 C109 1.203 . S
O111 C104 1.185 . S
O111 Zn107 2.086 1_565 S
C112 O108 1.278 . S
C112 O113 1.211 . S
O113 C112 1.211 . S
C114 O106 1.284 . S
C114 O115 1.273 1_565 S
O115 C114 1.273 1_545 S
O116 Zn107 1.977 . S
O116 C109 1.267 . S
C117 O118 1.160 . S
C117 O124 1.185 . S
O118 C117 1.160 . S
O119 Zn120 1.899 . S
O119 C127 1.284 . S
Zn120 O119 1.899 . S
Zn120 O121 2.032 . S
Zn120 O124 2.086 . S
Zn120 O129 1.977 . S
O121 Zn120 2.032 . S
O121 C125 1.278 . S
C122 O123 1.203 . S
C122 O129 1.267 . S
O123 C122 1.203 . S
O124 C117 1.185 . S
O124 Zn120 2.086 . S
C125 O121 1.278 . S
C125 O126 1.211 . S
O126 C125 1.211 . S
C127 O119 1.284 . S
C127 O128 1.273 . S
O128 C127 1.273 . S
O129 Zn120 1.977 . S
O129 C122 1.267 . S
C130 O131 1.160 . S
C130 O137 1.185 . S
O131 C130 1.160 . S
O132 Zn133 1.899 . S
O132 C140 1.284 . S
Zn133 O132 1.899 . S
Zn133 O134 2.032 1_545 S
Zn133 O137 2.086 . S
Zn133 O142 1.977 1_545 S
O134 Zn133 2.032 1_565 S
O134 C138 1.278 . S
C135 O136 1.203 . S
C135 O142 1.267 . S
O136 C135 1.203 . S
O137 C130 1.185 . S
O137 Zn133 2.086 . S
C138 O134 1.278 . S
C138 O139 1.211 . S
O139 C138 1.211 . S
C140 O132 1.284 . S
C140 O141 1.273 . S
O141 C140 1.273 . S
O142 Zn133 1.977 1_565 S
O142 C135 1.267 . S
C143 O144 1.160 . S
C143 O150 1.185 . S
O144 C143 1.160 . S
O145 Zn146 1.899 . S
O145 C153 1.284 . S
Zn146 O145 1.899 . S
Zn146 O147 2.032 1_554 S
Zn146 O150 2.086 1_554 S
Zn146 O155 1.977 . S
O147 Zn146 2.032 1_556 S
O147 C151 1.278 . S
C148 O149 1.203 . S
C148 O155 1.267 . S
O149 C148 1.203 . S
O150 C143 1.185 . S
O150 Zn146 2.086 1_556 S
C151 O147 1.278 . S
C151 O152 1.211 . S
O152 C151 1.211 . S
C153 O145 1.284 . S
C153 O154 1.273 . S
O154 C153 1.273 . S
O155 Zn146 1.977 . S
O155 C148 1.267 . S
C156 O157 1.160 . S
C156 O163 1.185 . S
O157 C156 1.160 . S
O158 Zn159 1.899 . S
O158 C166 1.284 . S
Zn159 O158 1.899 . S
Zn159 O160 2.032 1_554 S
Zn159 O163 2.086 . S
Zn159 O168 1.954 1_554 S
O160 Zn159 2.032 1_556 S
O160 C164 1.278 . S
C161 O162 1.203 1_556 S
C161 O168 1.275 . S
O162 C161 1.203 1_554 S
O163 C156 1.185 . S
O163 Zn159 2.086 . S
C164 O160 1.278 . S
C164 O165 1.211 . S
O165 C164 1.211 . S
C166 O158 1.284 . S
C166 O167 1.273 . S
O167 C166 1.273 . S
O168 Zn159 1.954 1_556 S
O168 C161 1.275 . S
C169 O170 1.160 . S
C169 O176 1.185 . S
O170 C169 1.160 . S
O171 Zn172 1.899 . S
O171 C179 1.284 . S
Zn172 O171 1.899 . S
Zn172 O173 2.032 1_554 S
Zn172 O176 2.086 . S
Zn172 O181 1.977 1_554 S
O173 Zn172 2.032 1_556 S
O173 C177 1.278 . S
C174 O175 1.203 . S
C174 O181 1.267 . S
O175 C174 1.203 . S
O176 C169 1.185 . S
O176 Zn172 2.086 . S
C177 O173 1.278 . S
C177 O178 1.211 . S
O178 C177 1.211 . S
C179 O171 1.284 . S
C179 O180 1.273 . S
O180 C179 1.273 . S
O181 Zn172 1.977 1_556 S
O181 C174 1.267 . S
C182 O183 1.160 . S
C182 O189 1.185 . S
O183 C182 1.160 . S
O184 Zn185 1.899 . S
O184 C192 1.284 . S
Zn185 O184 1.899 . S
Zn185 O186 2.032 . S
Zn185 O189 2.086 . S
Zn185 O194 1.977 . S
O186 Zn185 2.032 . S
O186 C190 1.278 . S
C187 O188 1.203 . S
C187 O194 1.267 . S
O188 C187 1.203 . S
O189 C182 1.185 . S
O189 Zn185 2.086 . S
C190 O186 1.278 . S
C190 O191 1.211 . S
O191 C190 1.211 . S
C192 O184 1.284 . S
C192 O193 1.273 . S
O193 C192 1.273 . S
O194 Zn185 1.977 . S
O194 C187 1.267 . S
C195 O196 1.160 . S
C195 O202 1.185 . S
O196 C195 1.160 . S
O197 Zn198 1.899 . S
O197 C205 1.284 . S
Zn198 O197 1.899 . S
Zn198 O199 2.032 . S
Zn198 O202 2.086 . S
Zn198 O207 1.977 . S
O199 Zn198 2.032 . S
O199 C203 1.278 . S
C200 O201 1.203 . S
C200 O207 1.267 . S
O201 C200 1.203 . S
O202 C195 1.185 . S
O202 Zn198 2.086 . S
C203 O199 1.278 . S
C203 O204 1.211 . S
O204 C203 1.211 . S
C205 O197 1.284 . S
C205 O206 1.273 . S
O206 C205 1.273 . S
O207 Zn198 1.977 . S
O207 C200 1.267 . S
C208 O209 1.160 . S
C208 O215 1.185 . S
O209 C208 1.160 . S
O210 Zn211 1.899 . S
O210 C218 1.284 . S
Zn211 O210 1.899 . S
Zn211 O212 2.032 1_565 S
Zn211 O215 2.086 1_565 S
Zn211 O220 1.977 . S
O212 Zn211 2.032 1_545 S
O212 C216 1.278 . S
C213 O214 1.203 . S
C213 O220 1.267 . S
O214 C213 1.203 . S
O215 C208 1.185 . S
O215 Zn211 2.086 1_545 S
C216 O212 1.278 . S
C216 O217 1.211 . S
O217 C216 1.211 . S
C218 O210 1.284 . S
C218 O219 1.273 . S
O219 C218 1.273 . S
O220 Zn211 1.977 . S
O220 C213 1.267 . S
C221 O222 1.160 . S
C221 O228 1.185 . S
O222 C221 1.160 . S
O223 Zn224 1.899 . S
O223 C231 1.284 . S
Zn224 O223 1.899 . S
Zn224 O225 2.032 . S
Zn224 O228 2.086 . S
Zn224 O233 1.977 . S
O225 Zn224 2.032 . S
O225 C229 1.278 . S
C226 O227 1.203 . S
C226 O233 1.267 . S
O227 C226 1.203 . S
O228 C221 1.185 . S
O228 Zn224 2.086 . S
C229 O225 1.278 . S
C229 O230 1.211 . S
O230 C229 1.211 . S
C231 O223 1.284 . S
C231 O232 1.273 . S
O232 C231 1.273 . S
O233 Zn224 1.977 . S
O233 C226 1.267 . S
C234 O235 1.160 . S
C234 O241 1.185 . S
O235 C234 1.160 . S
O236 Zn237 1.899 . S
O236 C244 1.284 . S
Zn237 O236 1.899 . S
Zn237 O238 2.032 . S
Zn237 O241 2.086 . S
Zn237 O246 1.977 . S
O238 Zn237 2.032 . S
O238 C242 1.278 . S
C239 O240 1.203 . S
C239 O246 1.267 . S
O240 C239 1.203 . S
O241 C234 1.185 . S
O241 Zn237 2.086 . S
C242 O238 1.278 . S
C242 O243 1.211 . S
O243 C242 1.211 . S
C244 O236 1.284 . S
C244 O245 1.273 . S
O245 C244 1.273 . S
O246 Zn237 1.977 . S
O246 C239 1.267 . S
C247 O248 1.160 . S
C247 O254 1.185 . S
O248 C247 1.160 . S
O249 Zn250 1.899 1_565 S
O249 C257 1.284 . S
Zn250 O249 1.899 1_545 S
Zn250 O251 2.032 . S
Zn250 O254 2.086 . S
Zn250 O259 1.977 1_545 S
O251 Zn250 2.032 . S
O251 C255 1.278 . S
C252 O253 1.203 . S
C252 O259 1.267 . S
O253 C252 1.203 . S
O254 C247 1.185 . S
O254 Zn250 2.086 . S
C255 O251 1.278 . S
C255 O256 1.211 1_545 S
O256 C255 1.211 1_565 S
C257 O249 1.284 . S
C257 O258 1.273 . S
O258 C257 1.273 . S
O259 Zn250 1.977 1_565 S
O259 C252 1.267 . S
C260 O261 1.160 . S
C260 O267 1.185 . S
O261 C260 1.160 . S
O262 Zn263 1.899 . S
O262 C270 1.284 . S
Zn263 O262 1.899 . S
Zn263 O264 2.032 1_554 S
Zn263 O267 2.086 1_554 S
Zn263 O272 1.977 . S
O264 Zn263 2.032 1_556 S
O264 C268 1.278 . S
C265 O266 1.203 . S
C265 O272 1.267 . S
O266 C265 1.203 . S
O267 C260 1.185 . S
O267 Zn263 2.086 1_556 S
C268 O264 1.278 . S
C268 O269 1.211 . S
O269 C268 1.211 . S
C270 O262 1.284 . S
C270 O271 1.273 . S
O271 C270 1.273 . S
O272 Zn263 1.977 . S
O272 C265 1.267 . S
C273 O274 1.160 . S
C273 O280 1.185 . S
O274 C273 1.160 . S
O275 Zn276 1.899 . S
O275 C283 1.284 . S
Zn276 O275 1.899 . S
Zn276 O277 2.032 . S
Zn276 O280 2.086 . S
Zn276 O285 1.977 . S
O277 Zn276 2.032 . S
O277 C281 1.278 . S
C278 O279 1.203 . S
C278 O285 1.267 . S
O279 C278 1.203 . S
O280 C273 1.185 . S
O280 Zn276 2.086 . S
C281 O277 1.278 . S
C281 O282 1.211 . S
O282 C281 1.211 . S
C283 O275 1.284 . S
C283 O284 1.273 . S
O284 C283 1.273 . S
O285 Zn276 1.977 . S
O285 C278 1.267 . S
C286 O287 1.160 . S
C286 O293 1.185 . S
O287 C286 1.160 . S
O288 Zn289 1.899 . S
O288 C296 1.284 . S
Zn289 O288 1.899 . S
Zn289 O290 2.032 . S
Zn289 O293 2.086 . S
Zn289 O298 1.977 . S
O290 Zn289 2.032 . S
O290 C294 1.278 . S
C291 O292 1.203 . S
C291 O298 1.267 . S
O292 C291 1.203 . S
O293 C286 1.185 . S
O293 Zn289 2.086 . S
C294 O290 1.278 . S
C294 O295 1.211 . S
O295 C294 1.211 . S
C296 O288 1.284 . S
C296 O297 1.273 . S
O297 C296 1.273 . S
O298 Zn289 1.977 . S
O298 C291 1.267 . S
C299 O300 1.160 . S
C299 O306 1.185 . S
O300 C299 1.160 . S
O301 Zn302 1.899 . S
O301 C309 1.284 . S
Zn302 O301 1.899 . S
Zn302 O303 2.032 . S
Zn302 O306 2.086 . S
Zn302 O311 1.977 . S
O303 Zn302 2.032 . S
O303 C307 1.278 . S
C304 O305 1.203 . S
C304 O311 1.267 . S
O305 C304 1.203 . S
O306 C299 1.185 . S
O306 Zn302 2.086 . S
C307 O303 1.278 . S
C307 O308 1.211 . S
O308 C307 1.211 . S
C309 O301 1.284 . S
C309 O310 1.273 . S
O310 C309 1.273 . S
O311 Zn302 1.977 . S
O311 C304 1.267 . S
H312 C320 0.929 . S
H313 C322 0.930 . S
H314 C324 0.930 . S
H315 C327 0.929 . S
H316 C330 0.930 . S
H317 C332 0.960 . S
H318 C332 0.960 . S
H319 C332 0.960 . S
C320 H312 0.929 . S
C320 C321 1.377 . S
C320 C322 1.384 . S
C321 C320 1.377 . S
C321 C327 1.390 . S
C322 H313 0.930 . S
C322 C320 1.384 . S
C322 C323 1.372 . S
C323 C322 1.372 . S
C323 C324 1.400 . S
C323 C328 1.490 . S
C324 H314 0.930 . S
C324 C323 1.400 . S
C324 C327 1.386 . S
H325 C341 0.930 1_655 S
H326 C342 0.931 . S
C327 H315 0.929 . S
C327 C321 1.390 . S
C327 C324 1.386 . S
C328 C323 1.490 . S
C328 C330 1.395 . S
C328 C331 1.403 . S
H329 C335 0.930 . S
C330 H316 0.930 . S
C330 C328 1.395 . S
C330 C333 1.403 . S
C331 C328 1.403 . S
C331 C332 1.524 . S
C331 C335 1.400 . S
C332 H317 0.960 . S
C332 H318 0.960 . S
C332 H319 0.960 . S
C332 C331 1.524 . S
C333 C330 1.403 . S
C333 C334 1.392 . S
C333 C337 1.495 . S
C334 C333 1.392 . S
C334 C335 1.385 . S
C334 C336 1.478 . S
C335 H329 0.930 . S
C335 C331 1.400 . S
C335 C334 1.385 . S
C336 C334 1.478 . S
C336 C338 1.381 . S
C336 C342 1.383 . S
C337 C333 1.495 . S
C337 H343 0.959 . S
C337 H344 0.961 . S
C337 H345 0.960 . S
C338 C336 1.381 . S
C338 C339 1.394 . S
C338 H346 0.930 . S
C339 C338 1.394 . S
C339 C340 1.383 . S
C339 H347 0.929 . S
C340 C339 1.383 . S
C340 C341 1.377 . S
C341 H325 0.930 1_455 S
C341 C340 1.377 . S
C341 C342 1.379 . S
C342 H326 0.931 . S
C342 C336 1.383 . S
C342 C341 1.379 . S
H343 C337 0.959 . S
H344 C337 0.961 . S
H345 C337 0.960 . S
H346 C338 0.930 . S
H347 C339 0.929 . S
H348 C356 0.929 . S
H349 C358 0.930 . S
H350 C360 0.930 . S
H351 C363 0.929 . S
H352 C366 0.930 . S
H353 C368 0.960 . S
H354 C368 0.960 . S
H355 C368 0.960 . S
C356 H348 0.929 . S
C356 C357 1.377 . S
C356 C358 1.384 . S
C357 C356 1.377 . S
C357 C363 1.390 . S
C358 H349 0.930 . S
C358 C356 1.384 . S
C358 C359 1.372 . S
C359 C358 1.372 . S
C359 C360 1.400 . S
C359 C364 1.490 . S
C360 H350 0.930 . S
C360 C359 1.400 . S
C360 C363 1.386 . S
H361 C377 0.930 . S
H362 C378 0.931 . S
C363 H351 0.929 . S
C363 C357 1.390 . S
C363 C360 1.386 . S
C364 C359 1.490 . S
C364 C366 1.395 . S
C364 C367 1.403 . S
H365 C371 0.930 . S
C366 H352 0.930 . S
C366 C364 1.395 . S
C366 C369 1.403 . S
C367 C364 1.403 . S
C367 C368 1.524 . S
C367 C371 1.400 . S
C368 H353 0.960 . S
C368 H354 0.960 . S
C368 H355 0.960 . S
C368 C367 1.524 . S
C369 C366 1.403 . S
C369 C370 1.392 . S
C369 C373 1.495 . S
C370 C369 1.392 . S
C370 C371 1.385 . S
C370 C372 1.478 . S
C371 H365 0.930 . S
C371 C367 1.400 . S
C371 C370 1.385 . S
C372 C370 1.478 . S
C372 C374 1.381 . S
C372 C378 1.383 . S
C373 C369 1.495 . S
C373 H379 0.959 . S
C373 H380 0.961 . S
C373 H381 0.960 . S
C374 C372 1.381 . S
C374 C375 1.394 . S
C374 H382 0.930 . S
C375 C374 1.394 . S
C375 C376 1.383 . S
C375 H383 0.929 . S
C376 C375 1.383 . S
C376 C377 1.377 . S
C377 H361 0.930 . S
C377 C376 1.377 . S
C377 C378 1.379 . S
C378 H362 0.931 . S
C378 C372 1.383 . S
C378 C377 1.379 . S
H379 C373 0.959 . S
H380 C373 0.961 . S
H381 C373 0.960 . S
H382 C374 0.930 . S
H383 C375 0.929 . S
H384 C392 0.929 . S
H385 C394 0.930 . S
H386 C396 0.930 . S
H387 C399 0.929 . S
H388 C402 0.930 . S
H389 C404 0.960 . S
H390 C404 0.960 . S
H391 C404 0.960 . S
C392 H384 0.929 . S
C392 C393 1.377 . S
C392 C394 1.384 . S
C393 C392 1.377 . S
C393 C399 1.390 . S
C394 H385 0.930 . S
C394 C392 1.384 . S
C394 C395 1.372 . S
C395 C394 1.372 . S
C395 C396 1.400 . S
C395 C400 1.490 . S
C396 H386 0.930 . S
C396 C395 1.400 . S
C396 C399 1.386 . S
H397 C413 0.930 . S
H398 C414 0.931 . S
C399 H387 0.929 . S
C399 C393 1.390 . S
C399 C396 1.386 . S
C400 C395 1.490 . S
C400 C402 1.395 . S
C400 C403 1.403 . S
H401 C407 0.930 . S
C402 H388 0.930 . S
C402 C400 1.395 . S
C402 C405 1.403 . S
C403 C400 1.403 . S
C403 C404 1.524 . S
C403 C407 1.400 . S
C404 H389 0.960 . S
C404 H390 0.960 . S
C404 H391 0.960 . S
C404 C403 1.524 . S
C405 C402 1.403 . S
C405 C406 1.392 . S
C405 C409 1.495 . S
C406 C405 1.392 . S
C406 C407 1.385 . S
C406 C408 1.478 . S
C407 H401 0.930 . S
C407 C403 1.400 . S
C407 C406 1.385 . S
C408 C406 1.478 . S
C408 C410 1.381 . S
C408 C414 1.383 . S
C409 C405 1.495 . S
C409 H415 0.959 . S
C409 H416 0.961 . S
C409 H417 0.960 . S
C410 C408 1.381 . S
C410 C411 1.394 . S
C410 H418 0.930 . S
C411 C410 1.394 . S
C411 C412 1.383 . S
C411 H419 0.929 . S
C412 C411 1.383 . S
C412 C413 1.377 . S
C413 H397 0.930 . S
C413 C412 1.377 . S
C413 C414 1.379 . S
C414 H398 0.931 . S
C414 C408 1.383 . S
C414 C413 1.379 . S
H415 C409 0.959 . S
H416 C409 0.961 . S
H417 C409 0.960 . S
H418 C410 0.930 . S
H419 C411 0.929 . S
H420 C428 0.929 . S
H421 C430 0.930 . S
H422 C432 0.930 . S
H423 C435 0.929 . S
H424 C438 0.930 . S
H425 C440 0.960 . S
H426 C440 0.960 . S
H427 C440 0.960 . S
C428 H420 0.929 . S
C428 C429 1.377 . S
C428 C430 1.384 . S
C429 C428 1.377 . S
C429 C435 1.390 . S
C430 H421 0.930 . S
C430 C428 1.384 . S
C430 C431 1.372 . S
C431 C430 1.372 . S
C431 C432 1.400 . S
C431 C436 1.490 . S
C432 H422 0.930 . S
C432 C431 1.400 . S
C432 C435 1.386 . S
H433 C449 0.930 . S
H434 C450 0.931 . S
C435 H423 0.929 . S
C435 C429 1.390 . S
C435 C432 1.386 . S
C436 C431 1.490 . S
C436 C438 1.395 . S
C436 C439 1.403 . S
H437 C443 0.930 . S
C438 H424 0.930 . S
C438 C436 1.395 . S
C438 C441 1.403 . S
C439 C436 1.403 . S
C439 C440 1.524 . S
C439 C443 1.400 . S
C440 H425 0.960 . S
C440 H426 0.960 . S
C440 H427 0.960 . S
C440 C439 1.524 . S
C441 C438 1.403 . S
C441 C442 1.392 . S
C441 C445 1.495 . S
C442 C441 1.392 . S
C442 C443 1.385 . S
C442 C444 1.478 . S
C443 H437 0.930 . S
C443 C439 1.400 . S
C443 C442 1.385 . S
C444 C442 1.478 . S
C444 C446 1.381 . S
C444 C450 1.383 . S
C445 C441 1.495 . S
C445 H451 0.959 . S
C445 H452 0.961 . S
C445 H453 0.960 . S
C446 C444 1.381 . S
C446 C447 1.394 . S
C446 H454 0.930 . S
C447 C446 1.394 . S
C447 C448 1.383 . S
C447 H455 0.929 . S
C448 C447 1.383 . S
C448 C449 1.377 . S
C449 H433 0.930 . S
C449 C448 1.377 . S
C449 C450 1.379 . S
C450 H434 0.931 . S
C450 C444 1.383 . S
C450 C449 1.379 . S
H451 C445 0.959 . S
H452 C445 0.961 . S
H453 C445 0.960 . S
H454 C446 0.930 . S
H455 C447 0.929 . S
H456 C464 0.929 . S
H457 C466 0.930 . S
H458 C468 0.930 . S
H459 C471 0.929 . S
H460 C474 0.930 . S
H461 C476 0.960 . S
H462 C476 0.960 . S
H463 C476 0.960 . S
C464 H456 0.929 . S
C464 C465 1.377 . S
C464 C466 1.384 . S
C465 C464 1.377 . S
C465 C471 1.390 . S
C466 H457 0.930 . S
C466 C464 1.384 . S
C466 C467 1.372 . S
C467 C466 1.372 . S
C467 C468 1.400 . S
C467 C472 1.490 . S
C468 H458 0.930 . S
C468 C467 1.400 . S
C468 C471 1.386 . S
H469 C485 0.930 . S
H470 C486 0.931 . S
C471 H459 0.929 . S
C471 C465 1.390 . S
C471 C468 1.386 . S
C472 C467 1.490 . S
C472 C474 1.395 . S
C472 C475 1.403 . S
H473 C479 0.930 . S
C474 H460 0.930 . S
C474 C472 1.395 . S
C474 C477 1.403 . S
C475 C472 1.403 . S
C475 C476 1.524 . S
C475 C479 1.400 . S
C476 H461 0.960 . S
C476 H462 0.960 . S
C476 H463 0.960 . S
C476 C475 1.524 . S
C477 C474 1.403 . S
C477 C478 1.392 . S
C477 C481 1.495 . S
C478 C477 1.392 . S
C478 C479 1.385 . S
C478 C480 1.478 . S
C479 H473 0.930 . S
C479 C475 1.400 . S
C479 C478 1.385 . S
C480 C478 1.478 . S
C480 C482 1.381 . S
C480 C486 1.383 . S
C481 C477 1.495 . S
C481 H487 0.959 . S
C481 H488 0.961 . S
C481 H489 0.960 . S
C482 C480 1.381 . S
C482 C483 1.394 . S
C482 H490 0.930 . S
C483 C482 1.394 . S
C483 C484 1.383 . S
C483 H491 0.929 . S
C484 C483 1.383 . S
C484 C485 1.377 . S
C485 H469 0.930 . S
C485 C484 1.377 . S
C485 C486 1.379 . S
C486 H470 0.931 . S
C486 C480 1.383 . S
C486 C485 1.379 . S
H487 C481 0.959 . S
H488 C481 0.961 . S
H489 C481 0.960 . S
H490 C482 0.930 . S
H491 C483 0.929 . S
H492 C500 0.929 . S
H493 C502 0.930 . S
H494 C504 0.930 . S
H495 C507 0.929 . S
H496 C510 0.930 . S
H497 C512 0.960 . S
H498 C512 0.960 . S
H499 C512 0.960 . S
C500 H492 0.929 . S
C500 C501 1.377 . S
C500 C502 1.384 . S
C501 C500 1.377 . S
C501 C507 1.390 . S
C502 H493 0.930 . S
C502 C500 1.384 . S
C502 C503 1.372 . S
C503 C502 1.372 . S
C503 C504 1.400 . S
C503 C508 1.490 . S
C504 H494 0.930 . S
C504 C503 1.400 . S
C504 C507 1.386 . S
H505 C521 0.930 . S
H506 C522 0.931 . S
C507 H495 0.929 . S
C507 C501 1.390 . S
C507 C504 1.386 . S
C508 C503 1.490 . S
C508 C510 1.395 . S
C508 C511 1.403 . S
H509 C515 0.930 . S
C510 H496 0.930 . S
C510 C508 1.395 . S
C510 C513 1.403 . S
C511 C508 1.403 . S
C511 C512 1.524 . S
C511 C515 1.400 . S
C512 H497 0.960 . S
C512 H498 0.960 . S
C512 H499 0.960 . S
C512 C511 1.524 . S
C513 C510 1.403 . S
C513 C514 1.392 . S
C513 C517 1.495 . S
C514 C513 1.392 . S
C514 C515 1.385 . S
C514 C516 1.478 . S
C515 H509 0.930 . S
C515 C511 1.400 . S
C515 C514 1.385 . S
C516 C514 1.478 . S
C516 C518 1.381 . S
C516 C522 1.383 . S
C517 C513 1.495 . S
C517 H523 0.959 . S
C517 H524 0.961 . S
C517 H525 0.960 . S
C518 C516 1.381 . S
C518 C519 1.394 . S
C518 H526 0.930 . S
C519 C518 1.394 . S
C519 C520 1.383 . S
C519 H527 0.929 . S
C520 C519 1.383 . S
C520 C521 1.377 . S
C521 H505 0.930 . S
C521 C520 1.377 . S
C521 C522 1.379 . S
C522 H506 0.931 . S
C522 C516 1.383 . S
C522 C521 1.379 . S
H523 C517 0.959 . S
H524 C517 0.961 . S
H525 C517 0.960 . S
H526 C518 0.930 . S
H527 C519 0.929 . S
H528 C536 0.929 . S
H529 C538 0.930 . S
H530 C540 0.930 . S
H531 C543 0.929 . S
H532 C546 0.930 . S
H533 C548 0.960 . S
H534 C548 0.960 . S
H535 C548 0.960 . S
C536 H528 0.929 . S
C536 C537 1.377 . S
C536 C538 1.384 . S
C537 C536 1.377 . S
C537 C543 1.390 . S
C538 H529 0.930 . S
C538 C536 1.384 . S
C538 C539 1.372 . S
C539 C538 1.372 . S
C539 C540 1.400 . S
C539 C544 1.490 . S
C540 H530 0.930 . S
C540 C539 1.400 . S
C540 C543 1.386 . S
H541 C557 0.930 . S
H542 C558 0.931 . S
C543 H531 0.929 . S
C543 C537 1.390 . S
C543 C540 1.386 . S
C544 C539 1.490 . S
C544 C546 1.395 . S
C544 C547 1.403 . S
H545 C551 0.930 . S
C546 H532 0.930 . S
C546 C544 1.395 . S
C546 C549 1.403 . S
C547 C544 1.403 . S
C547 C548 1.524 . S
C547 C551 1.400 . S
C548 H533 0.960 . S
C548 H534 0.960 . S
C548 H535 0.960 . S
C548 C547 1.524 . S
C549 C546 1.403 . S
C549 C550 1.392 . S
C549 C553 1.495 . S
C550 C549 1.392 . S
C550 C551 1.385 . S
C550 C552 1.478 . S
C551 H545 0.930 . S
C551 C547 1.400 . S
C551 C550 1.385 . S
C552 C550 1.478 . S
C552 C554 1.381 . S
C552 C558 1.383 . S
C553 C549 1.495 . S
C553 H559 0.959 . S
C553 H560 0.961 . S
C553 H561 0.960 . S
C554 C552 1.381 . S
C554 C555 1.394 . S
C554 H562 0.930 . S
C555 C554 1.394 . S
C555 C556 1.383 . S
C555 H563 0.929 . S
C556 C555 1.383 . S
C556 C557 1.377 . S
C557 H541 0.930 . S
C557 C556 1.377 . S
C557 C558 1.379 . S
C558 H542 0.931 . S
C558 C552 1.383 . S
C558 C557 1.379 . S
H559 C553 0.959 . S
H560 C553 0.961 . S
H561 C553 0.960 . S
H562 C554 0.930 . S
H563 C555 0.929 . S
H564 C572 0.929 . S
H565 C574 0.930 . S
H566 C576 0.930 . S
H567 C579 0.929 . S
H568 C582 0.930 . S
H569 C584 0.960 . S
H570 C584 0.960 . S
H571 C584 0.960 . S
C572 H564 0.929 . S
C572 C573 1.377 . S
C572 C574 1.384 . S
C573 C572 1.377 . S
C573 C579 1.390 . S
C574 H565 0.930 . S
C574 C572 1.384 . S
C574 C575 1.372 . S
C575 C574 1.372 . S
C575 C576 1.400 . S
C575 C580 1.490 . S
C576 H566 0.930 . S
C576 C575 1.400 . S
C576 C579 1.386 . S
H577 C593 0.930 1_554 S
H578 C594 0.931 . S
C579 H567 0.929 . S
C579 C573 1.390 . S
C579 C576 1.386 . S
C580 C575 1.490 . S
C580 C582 1.395 . S
C580 C583 1.403 . S
H581 C587 0.930 . S
C582 H568 0.930 . S
C582 C580 1.395 . S
C582 C585 1.403 . S
C583 C580 1.403 . S
C583 C584 1.524 . S
C583 C587 1.400 . S
C584 H569 0.960 . S
C584 H570 0.960 . S
C584 H571 0.960 . S
C584 C583 1.524 . S
C585 C582 1.403 . S
C585 C586 1.392 . S
C585 C589 1.495 . S
C586 C585 1.392 . S
C586 C587 1.385 . S
C586 C588 1.478 . S
C587 H581 0.930 . S
C587 C583 1.400 . S
C587 C586 1.385 . S
C588 C586 1.478 . S
C588 C590 1.381 . S
C588 C594 1.383 . S
C589 C585 1.495 . S
C589 H595 0.959 . S
C589 H596 0.961 . S
C589 H597 0.960 . S
C590 C588 1.381 . S
C590 C591 1.394 . S
C590 H598 0.930 . S
C591 C590 1.394 . S
C591 C592 1.383 . S
C591 H599 0.929 . S
C592 C591 1.383 . S
C592 C593 1.377 . S
C593 H577 0.930 1_556 S
C593 C592 1.377 . S
C593 C594 1.379 . S
C594 H578 0.931 . S
C594 C588 1.383 . S
C594 C593 1.379 . S
H595 C589 0.959 . S
H596 C589 0.961 . S
H597 C589 0.960 . S
H598 C590 0.930 . S
H599 C591 0.929 . S
H600 C608 0.929 . S
H601 C610 0.930 . S
H602 C612 0.930 . S
H603 C615 0.929 . S
H604 C618 0.930 . S
H605 C620 0.960 . S
H606 C620 0.960 . S
H607 C620 0.960 . S
C608 H600 0.929 . S
C608 C609 1.377 . S
C608 C610 1.384 . S
C609 C608 1.377 . S
C609 C615 1.390 . S
C610 H601 0.930 . S
C610 C608 1.384 . S
C610 C611 1.372 . S
C611 C610 1.372 . S
C611 C612 1.400 . S
C611 C616 1.490 . S
C612 H602 0.930 . S
C612 C611 1.400 . S
C612 C615 1.386 . S
H613 C629 0.930 . S
H614 C630 0.931 . S
C615 H603 0.929 . S
C615 C609 1.390 . S
C615 C612 1.386 . S
C616 C611 1.490 . S
C616 C618 1.395 . S
C616 C619 1.403 . S
H617 C623 0.930 . S
C618 H604 0.930 . S
C618 C616 1.395 . S
C618 C621 1.403 . S
C619 C616 1.403 . S
C619 C620 1.524 . S
C619 C623 1.400 . S
C620 H605 0.960 . S
C620 H606 0.960 . S
C620 H607 0.960 . S
C620 C619 1.524 . S
C621 C618 1.403 . S
C621 C622 1.392 . S
C621 C625 1.495 . S
C622 C621 1.392 . S
C622 C623 1.385 . S
C622 C624 1.478 . S
C623 H617 0.930 . S
C623 C619 1.400 . S
C623 C622 1.385 . S
C624 C622 1.478 . S
C624 C626 1.381 . S
C624 C630 1.383 . S
C625 C621 1.495 . S
C625 H631 0.959 . S
C625 H632 0.961 . S
C625 H633 0.960 . S
C626 C624 1.381 . S
C626 C627 1.394 . S
C626 H634 0.930 . S
C627 C626 1.394 . S
C627 C628 1.383 . S
C627 H635 0.929 . S
C628 C627 1.383 . S
C628 C629 1.377 . S
C629 H613 0.930 . S
C629 C628 1.377 . S
C629 C630 1.379 . S
C630 H614 0.931 . S
C630 C624 1.383 . S
C630 C629 1.379 . S
H631 C625 0.959 . S
H632 C625 0.961 . S
H633 C625 0.960 . S
H634 C626 0.930 . S
H635 C627 0.929 . S
H636 C644 0.929 . S
H637 C646 0.930 . S
H638 C648 0.930 . S
H639 C651 0.929 . S
H640 C654 0.930 . S
H641 C656 0.960 . S
H642 C656 0.960 . S
H643 C656 0.960 . S
C644 H636 0.929 . S
C644 C645 1.377 . S
C644 C646 1.384 . S
C645 C644 1.377 . S
C645 C651 1.390 . S
C646 H637 0.930 . S
C646 C644 1.384 . S
C646 C647 1.372 . S
C647 C646 1.372 . S
C647 C648 1.400 . S
C647 C652 1.490 . S
C648 H638 0.930 . S
C648 C647 1.400 . S
C648 C651 1.386 . S
H649 C665 0.930 . S
H650 C666 0.931 . S
C651 H639 0.929 . S
C651 C645 1.390 . S
C651 C648 1.386 . S
C652 C647 1.490 . S
C652 C654 1.395 . S
C652 C655 1.403 . S
H653 C659 0.930 . S
C654 H640 0.930 . S
C654 C652 1.395 . S
C654 C657 1.403 . S
C655 C652 1.403 . S
C655 C656 1.524 . S
C655 C659 1.400 . S
C656 H641 0.960 . S
C656 H642 0.960 . S
C656 H643 0.960 . S
C656 C655 1.524 . S
C657 C654 1.403 . S
C657 C658 1.392 . S
C657 C661 1.495 . S
C658 C657 1.392 . S
C658 C659 1.385 . S
C658 C660 1.478 . S
C659 H653 0.930 . S
C659 C655 1.400 . S
C659 C658 1.385 . S
C660 C658 1.478 . S
C660 C662 1.381 . S
C660 C666 1.383 . S
C661 C657 1.495 . S
C661 H667 0.959 . S
C661 H668 0.961 . S
C661 H669 0.960 . S
C662 C660 1.381 . S
C662 C663 1.394 . S
C662 H670 0.930 . S
C663 C662 1.394 . S
C663 C664 1.383 . S
C663 H671 0.929 . S
C664 C663 1.383 . S
C664 C665 1.377 . S
C665 H649 0.930 . S
C665 C664 1.377 . S
C665 C666 1.379 . S
C666 H650 0.931 . S
C666 C660 1.383 . S
C666 C665 1.379 . S
H667 C661 0.959 . S
H668 C661 0.961 . S
H669 C661 0.960 . S
H670 C662 0.930 . S
H671 C663 0.929 . S
H672 C680 0.929 . S
H673 C682 0.930 . S
H674 C684 0.930 . S
H675 C687 0.929 . S
H676 C690 0.930 . S
H677 C692 0.960 . S
H678 C692 0.960 . S
H679 C692 0.960 . S
C680 H672 0.929 . S
C680 C681 1.377 . S
C680 C682 1.384 . S
C681 C680 1.377 . S
C681 C687 1.390 . S
C682 H673 0.930 . S
C682 C680 1.384 . S
C682 C683 1.372 . S
C683 C682 1.372 . S
C683 C684 1.400 . S
C683 C688 1.490 . S
C684 H674 0.930 . S
C684 C683 1.400 . S
C684 C687 1.386 . S
H685 C701 0.930 . S
H686 C702 0.931 . S
C687 H675 0.929 . S
C687 C681 1.390 . S
C687 C684 1.386 . S
C688 C683 1.490 . S
C688 C690 1.395 . S
C688 C691 1.403 . S
H689 C695 0.930 . S
C690 H676 0.930 . S
C690 C688 1.395 . S
C690 C693 1.403 . S
C691 C688 1.403 . S
C691 C692 1.524 . S
C691 C695 1.400 . S
C692 H677 0.960 . S
C692 H678 0.960 . S
C692 H679 0.960 . S
C692 C691 1.524 . S
C693 C690 1.403 . S
C693 C694 1.392 . S
C693 C697 1.495 . S
C694 C693 1.392 . S
C694 C695 1.385 . S
C694 C696 1.478 . S
C695 H689 0.930 . S
C695 C691 1.400 . S
C695 C694 1.385 . S
C696 C694 1.478 . S
C696 C698 1.381 . S
C696 C702 1.383 . S
C697 C693 1.495 . S
C697 H703 0.959 1_565 S
C697 H704 0.961 . S
C697 H705 0.960 . S
C698 C696 1.381 . S
C698 C699 1.394 . S
C698 H706 0.930 . S
C699 C698 1.394 . S
C699 C700 1.383 . S
C699 H707 0.929 . S
C700 C699 1.383 . S
C700 C701 1.377 . S
C701 H685 0.930 . S
C701 C700 1.377 . S
C701 C702 1.379 . S
C702 H686 0.931 . S
C702 C696 1.383 . S
C702 C701 1.379 . S
H703 C697 0.959 1_545 S
H704 C697 0.961 . S
H705 C697 0.960 . S
H706 C698 0.930 . S
H707 C699 0.929 . S
H708 C716 0.929 . S
H709 C718 0.930 . S
H710 C720 0.930 . S
H711 C723 0.929 . S
H712 C726 0.930 . S
H713 C728 0.960 . S
H714 C728 0.960 . S
H715 C728 0.960 . S
C716 H708 0.929 . S
C716 C717 1.377 . S
C716 C718 1.384 . S
C717 C716 1.377 . S
C717 C723 1.390 . S
C718 H709 0.930 . S
C718 C716 1.384 . S
C718 C719 1.372 . S
C719 C718 1.372 . S
C719 C720 1.400 . S
C719 C724 1.490 . S
C720 H710 0.930 . S
C720 C719 1.400 . S
C720 C723 1.386 . S
H721 C737 0.930 . S
H722 C738 0.931 . S
C723 H711 0.929 . S
C723 C717 1.390 . S
C723 C720 1.386 . S
C724 C719 1.490 . S
C724 C726 1.395 . S
C724 C727 1.403 . S
H725 C731 0.930 . S
C726 H712 0.930 . S
C726 C724 1.395 . S
C726 C729 1.403 . S
C727 C724 1.403 . S
C727 C728 1.524 . S
C727 C731 1.400 . S
C728 H713 0.960 . S
C728 H714 0.960 . S
C728 H715 0.960 . S
C728 C727 1.524 . S
C729 C726 1.403 . S
C729 C730 1.392 . S
C729 C733 1.495 . S
C730 C729 1.392 . S
C730 C731 1.385 . S
C730 C732 1.478 . S
C731 H725 0.930 . S
C731 C727 1.400 . S
C731 C730 1.385 . S
C732 C730 1.478 . S
C732 C734 1.381 . S
C732 C738 1.383 . S
C733 C729 1.495 . S
C733 H739 0.959 . S
C733 H740 0.961 . S
C733 H741 0.960 . S
C734 C732 1.381 . S
C734 C735 1.394 . S
C734 H742 0.930 . S
C735 C734 1.394 . S
C735 C736 1.383 . S
C735 H743 0.929 . S
C736 C735 1.383 . S
C736 C737 1.377 . S
C737 H721 0.930 . S
C737 C736 1.377 . S
C737 C738 1.379 . S
C738 H722 0.931 . S
C738 C732 1.383 . S
C738 C737 1.379 . S
H739 C733 0.959 . S
H740 C733 0.961 . S
H741 C733 0.960 . S
H742 C734 0.930 . S
H743 C735 0.929 . S
H744 C752 0.929 . S
H745 C754 0.930 . S
H746 C756 0.930 . S
H747 C759 0.929 . S
H748 C762 0.930 . S
H749 C764 0.960 . S
H750 C764 0.960 . S
H751 C764 0.960 . S
C752 H744 0.929 . S
C752 C753 1.377 . S
C752 C754 1.384 . S
C753 C752 1.377 . S
C753 C759 1.390 . S
C754 H745 0.930 . S
C754 C752 1.384 . S
C754 C755 1.372 . S
C755 C754 1.372 . S
C755 C756 1.400 . S
C755 C760 1.490 . S
C756 H746 0.930 . S
C756 C755 1.400 . S
C756 C759 1.386 . S
H757 C773 0.930 . S
H758 C774 0.931 . S
C759 H747 0.929 . S
C759 C753 1.390 . S
C759 C756 1.386 . S
C760 C755 1.490 . S
C760 C762 1.395 . S
C760 C763 1.403 . S
H761 C767 0.930 . S
C762 H748 0.930 . S
C762 C760 1.395 . S
C762 C765 1.403 . S
C763 C760 1.403 . S
C763 C764 1.524 . S
C763 C767 1.400 . S
C764 H749 0.960 . S
C764 H750 0.960 . S
C764 H751 0.960 . S
C764 C763 1.524 . S
C765 C762 1.403 . S
C765 C766 1.392 . S
C765 C769 1.495 . S
C766 C765 1.392 . S
C766 C767 1.385 . S
C766 C768 1.478 . S
C767 H761 0.930 . S
C767 C763 1.400 . S
C767 C766 1.385 . S
C768 C766 1.478 . S
C768 C770 1.381 . S
C768 C774 1.383 . S
C769 C765 1.495 . S
C769 H775 0.959 . S
C769 H776 0.961 . S
C769 H777 0.960 . S
C770 C768 1.381 . S
C770 C771 1.394 . S
C770 H778 0.930 . S
C771 C770 1.394 . S
C771 C772 1.383 . S
C771 H779 0.929 . S
C772 C771 1.383 . S
C772 C773 1.377 . S
C773 H757 0.930 . S
C773 C772 1.377 . S
C773 C774 1.379 . S
C774 H758 0.931 . S
C774 C768 1.383 . S
C774 C773 1.379 . S
H775 C769 0.959 . S
H776 C769 0.961 . S
H777 C769 0.960 . S
H778 C770 0.930 . S
H779 C771 0.929 . S
H780 C788 0.929 . S
H781 C790 0.930 . S
H782 C792 0.930 . S
H783 C795 0.929 . S
H784 C798 0.930 . S
H785 C800 0.960 . S
H786 C800 0.960 . S
H787 C800 0.960 . S
C788 H780 0.929 . S
C788 C789 1.377 . S
C788 C790 1.384 . S
C789 C788 1.377 . S
C789 C795 1.390 . S
C790 H781 0.930 . S
C790 C788 1.384 . S
C790 C791 1.372 . S
C791 C790 1.372 . S
C791 C792 1.400 . S
C791 C796 1.490 . S
C792 H782 0.930 . S
C792 C791 1.400 . S
C792 C795 1.386 . S
H793 C809 0.930 . S
H794 C810 0.931 . S
C795 H783 0.929 . S
C795 C789 1.390 . S
C795 C792 1.386 . S
C796 C791 1.490 . S
C796 C798 1.395 . S
C796 C799 1.403 . S
H797 C803 0.930 . S
C798 H784 0.930 . S
C798 C796 1.395 . S
C798 C801 1.403 . S
C799 C796 1.403 . S
C799 C800 1.524 . S
C799 C803 1.400 . S
C800 H785 0.960 . S
C800 H786 0.960 . S
C800 H787 0.960 . S
C800 C799 1.524 . S
C801 C798 1.403 . S
C801 C802 1.392 . S
C801 C805 1.495 . S
C802 C801 1.392 . S
C802 C803 1.385 . S
C802 C804 1.478 . S
C803 H797 0.930 . S
C803 C799 1.400 . S
C803 C802 1.385 . S
C804 C802 1.478 . S
C804 C806 1.381 . S
C804 C810 1.383 . S
C805 C801 1.495 . S
C805 H811 0.959 . S
C805 H812 0.961 . S
C805 H813 0.960 . S
C806 C804 1.381 . S
C806 C807 1.394 . S
C806 H814 0.930 . S
C807 C806 1.394 . S
C807 C808 1.383 . S
C807 H815 0.929 . S
C808 C807 1.383 . S
C808 C809 1.377 . S
C809 H793 0.930 . S
C809 C808 1.377 . S
C809 C810 1.379 . S
C810 H794 0.931 . S
C810 C804 1.383 . S
C810 C809 1.379 . S
H811 C805 0.959 . S
H812 C805 0.961 . S
H813 C805 0.960 . S
H814 C806 0.930 . S
H815 C807 0.929 . S
H816 C824 0.929 . S
H817 C826 0.930 . S
H818 C828 0.930 . S
H819 C831 0.929 . S
H820 C834 0.930 . S
H821 C836 0.960 . S
H822 C836 0.960 . S
H823 C836 0.960 . S
C824 H816 0.929 . S
C824 C825 1.377 . S
C824 C826 1.384 . S
C825 C824 1.377 . S
C825 C831 1.390 . S
C826 H817 0.930 . S
C826 C824 1.384 . S
C826 C827 1.372 . S
C827 C826 1.372 . S
C827 C828 1.400 . S
C827 C832 1.490 . S
C828 H818 0.930 . S
C828 C827 1.400 . S
C828 C831 1.386 . S
H829 C845 0.930 . S
H830 C846 0.931 . S
C831 H819 0.929 . S
C831 C825 1.390 . S
C831 C828 1.386 . S
C832 C827 1.490 . S
C832 C834 1.395 . S
C832 C835 1.403 . S
H833 C839 0.930 . S
C834 H820 0.930 . S
C834 C832 1.395 . S
C834 C837 1.403 . S
C835 C832 1.403 . S
C835 C836 1.524 . S
C835 C839 1.400 . S
C836 H821 0.960 . S
C836 H822 0.960 . S
C836 H823 0.960 . S
C836 C835 1.524 . S
C837 C834 1.403 . S
C837 C838 1.392 . S
C837 C841 1.495 . S
C838 C837 1.392 . S
C838 C839 1.385 . S
C838 C840 1.478 . S
C839 H833 0.930 . S
C839 C835 1.400 . S
C839 C838 1.385 . S
C840 C838 1.478 . S
C840 C842 1.381 . S
C840 C846 1.383 . S
C841 C837 1.495 . S
C841 H847 0.959 . S
C841 H848 0.961 . S
C841 H849 0.960 . S
C842 C840 1.381 . S
C842 C843 1.394 . S
C842 H850 0.930 . S
C843 C842 1.394 . S
C843 C844 1.383 . S
C843 H851 0.929 . S
C844 C843 1.383 . S
C844 C845 1.377 . S
C845 H829 0.930 . S
C845 C844 1.377 . S
C845 C846 1.379 . S
C846 H830 0.931 . S
C846 C840 1.383 . S
C846 C845 1.379 . S
H847 C841 0.959 . S
H848 C841 0.961 . S
H849 C841 0.960 . S
H850 C842 0.930 . S
H851 C843 0.929 . S
H852 C860 0.913 1_455 S
H853 C862 0.930 . S
H854 C864 0.930 . S
H855 C867 0.929 . S
H856 C870 0.930 . S
H857 C872 0.960 . S
H858 C872 0.960 . S
H859 C872 0.960 . S
C860 H852 0.913 1_655 S
C860 C861 1.377 . S
C860 C862 1.384 . S
C861 C860 1.377 . S
C861 C867 1.390 . S
C862 H853 0.930 . S
C862 C860 1.384 . S
C862 C863 1.372 . S
C863 C862 1.372 . S
C863 C864 1.400 . S
C863 C868 1.490 . S
C864 H854 0.930 . S
C864 C863 1.400 . S
C864 C867 1.386 . S
H865 C881 0.930 . S
H866 C882 0.931 . S
C867 H855 0.929 . S
C867 C861 1.390 . S
C867 C864 1.386 . S
C868 C863 1.490 . S
C868 C870 1.395 . S
C868 C871 1.403 . S
H869 C875 0.930 . S
C870 H856 0.930 . S
C870 C868 1.395 . S
C870 C873 1.403 . S
C871 C868 1.403 . S
C871 C872 1.524 . S
C871 C875 1.400 . S
C872 H857 0.960 . S
C872 H858 0.960 . S
C872 H859 0.960 . S
C872 C871 1.524 . S
C873 C870 1.403 . S
C873 C874 1.392 . S
C873 C877 1.495 . S
C874 C873 1.392 . S
C874 C875 1.385 . S
C874 C876 1.478 . S
C875 H869 0.930 . S
C875 C871 1.400 . S
C875 C874 1.385 . S
C876 C874 1.478 . S
C876 C878 1.381 . S
C876 C882 1.383 . S
C877 C873 1.495 . S
C877 H883 0.959 . S
C877 H884 0.961 . S
C877 H885 0.960 . S
C878 C876 1.381 . S
C878 C879 1.394 . S
C878 H886 0.930 . S
C879 C878 1.394 . S
C879 C880 1.383 . S
C879 H887 0.929 . S
C880 C879 1.383 . S
C880 C881 1.377 . S
C881 H865 0.930 . S
C881 C880 1.377 . S
C881 C882 1.379 . S
C882 H866 0.931 . S
C882 C876 1.383 . S
C882 C881 1.379 . S
H883 C877 0.959 . S
H884 C877 0.961 . S
H885 C877 0.960 . S
H886 C878 0.930 . S
H887 C879 0.929 . S
H888 C896 0.929 . S
H889 C898 0.930 . S
H890 C900 0.930 . S
H891 C903 0.929 . S
H892 C906 0.930 . S
H893 C908 0.960 . S
H894 C908 0.960 . S
H895 C908 0.960 . S
C896 H888 0.929 . S
C896 C897 1.377 . S
C896 C898 1.384 . S
C897 C896 1.377 . S
C897 C903 1.390 . S
C898 H889 0.930 . S
C898 C896 1.384 . S
C898 C899 1.372 . S
C899 C898 1.372 . S
C899 C900 1.400 . S
C899 C904 1.490 . S
C900 H890 0.930 . S
C900 C899 1.400 . S
C900 C903 1.386 . S
H901 C917 0.930 . S
H902 C918 0.931 . S
C903 H891 0.929 . S
C903 C897 1.390 . S
C903 C900 1.386 . S
C904 C899 1.490 . S
C904 C906 1.395 . S
C904 C907 1.403 . S
H905 C911 0.930 . S
C906 H892 0.930 . S
C906 C904 1.395 . S
C906 C909 1.403 . S
C907 C904 1.403 . S
C907 C908 1.524 . S
C907 C911 1.400 . S
C908 H893 0.960 . S
C908 H894 0.960 . S
C908 H895 0.960 . S
C908 C907 1.524 . S
C909 C906 1.403 . S
C909 C910 1.392 . S
C909 C913 1.495 . S
C910 C909 1.392 . S
C910 C911 1.385 . S
C910 C912 1.478 . S
C911 H905 0.930 . S
C911 C907 1.400 . S
C911 C910 1.385 . S
C912 C910 1.478 . S
C912 C914 1.381 . S
C912 C918 1.383 . S
C913 C909 1.495 . S
C913 H919 0.959 . S
C913 H920 0.961 . S
C913 H921 0.960 . S
C914 C912 1.381 . S
C914 C915 1.394 . S
C914 H922 0.930 . S
C915 C914 1.394 . S
C915 C916 1.383 . S
C915 H923 0.929 . S
C916 C915 1.383 . S
C916 C917 1.377 . S
C917 H901 0.930 . S
C917 C916 1.377 . S
C917 C918 1.379 . S
C918 H902 0.931 . S
C918 C912 1.383 . S
C918 C917 1.379 . S
H919 C913 0.959 . S
H920 C913 0.961 . S
H921 C913 0.960 . S
H922 C914 0.930 . S
H923 C915 0.929 . S
H924 C932 0.929 . S
H925 C934 0.930 . S
H926 C936 0.930 . S
H927 C939 0.929 . S
H928 C942 0.930 . S
H929 C944 0.960 . S
H930 C944 0.960 . S
H931 C944 0.960 . S
C932 H924 0.929 . S
C932 C933 1.377 . S
C932 C934 1.384 . S
C933 C932 1.377 . S
C933 C939 1.390 . S
C934 H925 0.930 . S
C934 C932 1.384 . S
C934 C935 1.372 . S
C935 C934 1.372 . S
C935 C936 1.400 . S
C935 C940 1.490 . S
C936 H926 0.930 . S
C936 C935 1.400 . S
C936 C939 1.386 . S
H937 C953 0.930 . S
H938 C954 0.931 . S
C939 H927 0.929 . S
C939 C933 1.390 . S
C939 C936 1.386 . S
C940 C935 1.490 . S
C940 C942 1.395 . S
C940 C943 1.403 . S
H941 C947 0.930 . S
C942 H928 0.930 . S
C942 C940 1.395 . S
C942 C945 1.403 . S
C943 C940 1.403 . S
C943 C944 1.524 . S
C943 C947 1.400 . S
C944 H929 0.960 . S
C944 H930 0.960 . S
C944 H931 0.960 . S
C944 C943 1.524 . S
C945 C942 1.403 . S
C945 C946 1.392 . S
C945 C949 1.495 . S
C946 C945 1.392 . S
C946 C947 1.385 . S
C946 C948 1.478 . S
C947 H941 0.930 . S
C947 C943 1.400 . S
C947 C946 1.385 . S
C948 C946 1.478 . S
C948 C950 1.381 . S
C948 C954 1.383 . S
C949 C945 1.495 . S
C949 H955 0.959 . S
C949 H956 0.961 . S
C949 H957 0.960 . S
C950 C948 1.381 . S
C950 C951 1.394 . S
C950 H958 0.930 . S
C951 C950 1.394 . S
C951 C952 1.383 . S
C951 H959 0.929 . S
C952 C951 1.383 . S
C952 C953 1.377 . S
C953 H937 0.930 . S
C953 C952 1.377 . S
C953 C954 1.379 . S
C954 H938 0.931 . S
C954 C948 1.383 . S
C954 C953 1.379 . S
H955 C949 0.959 . S
H956 C949 0.961 . S
H957 C949 0.960 . S
H958 C950 0.930 . S
H959 C951 0.929 . S
H960 C968 0.929 . S
H961 C970 0.930 . S
H962 C972 0.930 . S
H963 C975 0.929 . S
H964 C978 0.930 . S
H965 C980 0.960 . S
H966 C980 0.960 . S
H967 C980 0.960 . S
C968 H960 0.929 . S
C968 C969 1.377 . S
C968 C970 1.384 . S
C969 C968 1.377 . S
C969 C975 1.390 . S
C970 H961 0.930 . S
C970 C968 1.384 . S
C970 C971 1.372 . S
C971 C970 1.372 . S
C971 C972 1.400 . S
C971 C976 1.490 . S
C972 H962 0.930 . S
C972 C971 1.400 . S
C972 C975 1.386 . S
H973 C989 0.930 . S
H974 C990 0.931 . S
C975 H963 0.929 . S
C975 C969 1.390 . S
C975 C972 1.386 . S
C976 C971 1.490 . S
C976 C978 1.395 . S
C976 C979 1.403 . S
H977 C983 0.930 . S
C978 H964 0.930 . S
C978 C976 1.395 . S
C978 C981 1.403 . S
C979 C976 1.403 . S
C979 C980 1.524 . S
C979 C983 1.400 . S
C980 H965 0.960 . S
C980 H966 0.960 . S
C980 H967 0.960 . S
C980 C979 1.524 . S
C981 C978 1.403 . S
C981 C982 1.392 . S
C981 C985 1.495 . S
C982 C981 1.392 . S
C982 C983 1.385 . S
C982 C984 1.478 . S
C983 H977 0.930 . S
C983 C979 1.400 . S
C983 C982 1.385 . S
C984 C982 1.478 . S
C984 C986 1.381 . S
C984 C990 1.383 . S
C985 C981 1.495 . S
C985 H991 0.959 . S
C985 H992 0.961 . S
C985 H993 0.960 . S
C986 C984 1.381 . S
C986 C987 1.394 . S
C986 H994 0.930 . S
C987 C986 1.394 . S
C987 C988 1.383 . S
C987 H995 0.929 . S
C988 C987 1.383 . S
C988 C989 1.377 . S
C989 H973 0.930 . S
C989 C988 1.377 . S
C989 C990 1.379 . S
C990 H974 0.931 . S
C990 C984 1.383 . S
C990 C989 1.379 . S
H991 C985 0.959 . S
H992 C985 0.961 . S
H993 C985 0.960 . S
H994 C986 0.930 . S
H995 C987 0.929 . S
H996 C1004 0.929 . S
H997 C1006 0.930 . S
H998 C1008 0.930 . S
H999 C1011 0.929 . S
H1000 C1014 0.930 . S
H1001 C1016 0.960 . S
H1002 C1016 0.960 . S
H1003 C1016 0.960 . S
C1004 H996 0.929 . S
C1004 C1005 1.377 . S
C1004 C1006 1.384 . S
C1005 C1004 1.377 . S
C1005 C1011 1.390 . S
C1006 H997 0.930 . S
C1006 C1004 1.384 . S
C1006 C1007 1.372 . S
C1007 C1006 1.372 . S
C1007 C1008 1.400 . S
C1007 C1012 1.490 . S
C1008 H998 0.930 . S
C1008 C1007 1.400 . S
C1008 C1011 1.386 . S
H1009 C1025 0.930 . S
H1010 C1026 0.931 . S
C1011 H999 0.929 . S
C1011 C1005 1.390 . S
C1011 C1008 1.386 . S
C1012 C1007 1.490 . S
C1012 C1014 1.395 . S
C1012 C1015 1.403 . S
H1013 C1019 0.930 . S
C1014 H1000 0.930 . S
C1014 C1012 1.395 . S
C1014 C1017 1.403 . S
C1015 C1012 1.403 . S
C1015 C1016 1.524 . S
C1015 C1019 1.400 . S
C1016 H1001 0.960 . S
C1016 H1002 0.960 . S
C1016 H1003 0.960 . S
C1016 C1015 1.524 . S
C1017 C1014 1.403 . S
C1017 C1018 1.392 . S
C1017 C1021 1.495 . S
C1018 C1017 1.392 . S
C1018 C1019 1.385 . S
C1018 C1020 1.478 . S
C1019 H1013 0.930 . S
C1019 C1015 1.400 . S
C1019 C1018 1.385 . S
C1020 C1018 1.478 . S
C1020 C1022 1.381 . S
C1020 C1026 1.383 . S
C1021 C1017 1.495 . S
C1021 H1027 0.959 . S
C1021 H1028 0.961 . S
C1021 H1029 0.960 . S
C1022 C1020 1.381 . S
C1022 C1023 1.394 . S
C1022 H1030 0.930 . S
C1023 C1022 1.394 . S
C1023 C1024 1.383 . S
C1023 H1031 0.929 1_655 S
C1024 C1023 1.383 . S
C1024 C1025 1.377 . S
C1025 H1009 0.930 . S
C1025 C1024 1.377 . S
C1025 C1026 1.379 . S
C1026 H1010 0.931 . S
C1026 C1020 1.383 . S
C1026 C1025 1.379 . S
H1027 C1021 0.959 . S
H1028 C1021 0.961 . S
H1029 C1021 0.960 . S
H1030 C1022 0.930 . S
H1031 C1023 0.929 1_455 S
H1032 C1040 0.929 . S
H1033 C1042 0.930 . S
H1034 C1044 0.930 . S
H1035 C1047 0.929 . S
H1036 C1050 0.930 . S
H1037 C1052 0.960 . S
H1038 C1052 0.960 . S
H1039 C1052 0.960 . S
C1040 H1032 0.929 . S
C1040 C1041 1.377 . S
C1040 C1042 1.384 . S
C1041 C1040 1.377 . S
C1041 C1047 1.390 . S
C1042 H1033 0.930 . S
C1042 C1040 1.384 . S
C1042 C1043 1.372 . S
C1043 C1042 1.372 . S
C1043 C1044 1.400 . S
C1043 C1048 1.490 . S
C1044 H1034 0.930 . S
C1044 C1043 1.400 . S
C1044 C1047 1.386 . S
H1045 C1061 0.930 . S
H1046 C1062 0.931 . S
C1047 H1035 0.929 . S
C1047 C1041 1.390 . S
C1047 C1044 1.386 . S
C1048 C1043 1.490 . S
C1048 C1050 1.395 . S
C1048 C1051 1.403 . S
H1049 C1055 0.930 . S
C1050 H1036 0.930 . S
C1050 C1048 1.395 . S
C1050 C1053 1.403 . S
C1051 C1048 1.403 . S
C1051 C1052 1.524 . S
C1051 C1055 1.400 . S
C1052 H1037 0.960 . S
C1052 H1038 0.960 . S
C1052 H1039 0.960 . S
C1052 C1051 1.524 . S
C1053 C1050 1.403 . S
C1053 C1054 1.392 . S
C1053 C1057 1.495 . S
C1054 C1053 1.392 . S
C1054 C1055 1.385 . S
C1054 C1056 1.478 . S
C1055 H1049 0.930 . S
C1055 C1051 1.400 . S
C1055 C1054 1.385 . S
C1056 C1054 1.478 . S
C1056 C1058 1.381 . S
C1056 C1062 1.383 . S
C1057 C1053 1.495 . S
C1057 H1063 0.959 . S
C1057 H1064 0.961 . S
C1057 H1065 0.960 . S
C1058 C1056 1.381 . S
C1058 C1059 1.394 . S
C1058 H1066 0.930 . S
C1059 C1058 1.394 . S
C1059 C1060 1.383 . S
C1059 H1067 0.929 . S
C1060 C1059 1.383 . S
C1060 C1061 1.377 . S
C1061 H1045 0.930 . S
C1061 C1060 1.377 . S
C1061 C1062 1.379 . S
C1062 H1046 0.931 . S
C1062 C1056 1.383 . S
C1062 C1061 1.379 . S
H1063 C1057 0.959 . S
H1064 C1057 0.961 . S
H1065 C1057 0.960 . S
H1066 C1058 0.930 . S
H1067 C1059 0.929 . S
H1068 C1076 0.929 . S
H1069 C1078 0.930 . S
H1070 C1080 0.930 . S
H1071 C1083 0.929 . S
H1072 C1086 0.930 . S
H1073 C1088 0.960 . S
H1074 C1088 0.960 . S
H1075 C1088 0.960 . S
C1076 H1068 0.929 . S
C1076 C1077 1.377 . S
C1076 C1078 1.384 . S
C1077 C1076 1.377 . S
C1077 C1083 1.390 . S
C1078 H1069 0.930 . S
C1078 C1076 1.384 . S
C1078 C1079 1.372 . S
C1079 C1078 1.372 . S
C1079 C1080 1.400 . S
C1079 C1084 1.490 . S
C1080 H1070 0.930 . S
C1080 C1079 1.400 . S
C1080 C1083 1.386 . S
H1081 C1097 0.930 . S
H1082 C1098 0.931 . S
C1083 H1071 0.929 . S
C1083 C1077 1.390 . S
C1083 C1080 1.386 . S
C1084 C1079 1.490 . S
C1084 C1086 1.395 . S
C1084 C1087 1.403 . S
H1085 C1091 0.930 . S
C1086 H1072 0.930 . S
C1086 C1084 1.395 . S
C1086 C1089 1.403 . S
C1087 C1084 1.403 . S
C1087 C1088 1.524 . S
C1087 C1091 1.400 . S
C1088 H1073 0.960 . S
C1088 H1074 0.960 . S
C1088 H1075 0.960 . S
C1088 C1087 1.524 . S
C1089 C1086 1.403 . S
C1089 C1090 1.392 . S
C1089 C1093 1.495 . S
C1090 C1089 1.392 . S
C1090 C1091 1.385 . S
C1090 C1092 1.478 . S
C1091 H1085 0.930 . S
C1091 C1087 1.400 . S
C1091 C1090 1.385 . S
C1092 C1090 1.478 . S
C1092 C1094 1.381 . S
C1092 C1098 1.383 . S
C1093 C1089 1.495 . S
C1093 H1099 0.959 . S
C1093 H1100 0.961 . S
C1093 H1101 0.960 . S
C1094 C1092 1.381 . S
C1094 C1095 1.394 . S
C1094 H1102 0.930 . S
C1095 C1094 1.394 . S
C1095 C1096 1.383 . S
C1095 H1103 0.929 . S
C1096 C1095 1.383 . S
C1096 C1097 1.377 . S
C1097 H1081 0.930 . S
C1097 C1096 1.377 . S
C1097 C1098 1.379 . S
C1098 H1082 0.931 . S
C1098 C1092 1.383 . S
C1098 C1097 1.379 . S
H1099 C1093 0.959 . S
H1100 C1093 0.961 . S
H1101 C1093 0.960 . S
H1102 C1094 0.930 . S
H1103 C1095 0.929 . S
H1104 C1112 0.929 . S
H1105 C1114 0.930 . S
H1106 C1116 0.930 . S
H1107 C1119 0.929 . S
H1108 C1122 0.930 . S
H1109 C1124 0.960 . S
H1110 C1124 0.960 . S
H1111 C1124 0.960 . S
C1112 H1104 0.929 . S
C1112 C1113 1.377 . S
C1112 C1114 1.384 . S
C1113 C1112 1.377 . S
C1113 C1119 1.390 . S
C1114 H1105 0.930 . S
C1114 C1112 1.384 . S
C1114 C1115 1.372 . S
C1115 C1114 1.372 . S
C1115 C1116 1.400 . S
C1115 C1120 1.490 . S
C1116 H1106 0.930 . S
C1116 C1115 1.400 . S
C1116 C1119 1.386 . S
H1117 C1133 0.930 . S
H1118 C1134 0.931 . S
C1119 H1107 0.929 . S
C1119 C1113 1.390 . S
C1119 C1116 1.386 . S
C1120 C1115 1.490 . S
C1120 C1122 1.395 . S
C1120 C1123 1.403 . S
H1121 C1127 0.930 . S
C1122 H1108 0.930 . S
C1122 C1120 1.395 . S
C1122 C1125 1.403 . S
C1123 C1120 1.403 . S
C1123 C1124 1.524 . S
C1123 C1127 1.400 . S
C1124 H1109 0.960 . S
C1124 H1110 0.960 . S
C1124 H1111 0.960 . S
C1124 C1123 1.524 . S
C1125 C1122 1.403 . S
C1125 C1126 1.392 . S
C1125 C1129 1.495 . S
C1126 C1125 1.392 . S
C1126 C1127 1.385 . S
C1126 C1128 1.478 . S
C1127 H1121 0.930 . S
C1127 C1123 1.400 . S
C1127 C1126 1.385 . S
C1128 C1126 1.478 . S
C1128 C1130 1.381 . S
C1128 C1134 1.383 . S
C1129 C1125 1.495 . S
C1129 H1135 0.959 . S
C1129 H1136 0.961 . S
C1129 H1137 0.960 . S
C1130 C1128 1.381 . S
C1130 C1131 1.394 . S
C1130 H1138 0.930 . S
C1131 C1130 1.394 . S
C1131 C1132 1.383 . S
C1131 H1139 0.929 . S
C1132 C1131 1.383 . S
C1132 C1133 1.377 . S
C1133 H1117 0.930 . S
C1133 C1132 1.377 . S
C1133 C1134 1.379 . S
C1134 H1118 0.931 . S
C1134 C1128 1.383 . S
C1134 C1133 1.379 . S
H1135 C1129 0.959 . S
H1136 C1129 0.961 . S
H1137 C1129 0.960 . S
H1138 C1130 0.930 . S
H1139 C1131 0.929 . S
H1140 C1148 0.929 . S
H1141 C1150 0.930 . S
H1142 C1152 0.930 . S
H1143 C1155 0.929 . S
H1144 C1158 0.930 . S
H1145 C1160 0.960 . S
H1146 C1160 0.960 . S
H1147 C1160 0.960 . S
C1148 H1140 0.929 . S
C1148 C1149 1.377 . S
C1148 C1150 1.384 . S
C1149 C1148 1.377 . S
C1149 C1155 1.390 . S
C1150 H1141 0.930 . S
C1150 C1148 1.384 . S
C1150 C1151 1.372 . S
C1151 C1150 1.372 . S
C1151 C1152 1.400 . S
C1151 C1156 1.490 . S
C1152 H1142 0.930 . S
C1152 C1151 1.400 . S
C1152 C1155 1.386 . S
H1153 C1169 0.930 . S
H1154 C1170 0.931 . S
C1155 H1143 0.929 . S
C1155 C1149 1.390 . S
C1155 C1152 1.386 . S
C1156 C1151 1.490 . S
C1156 C1158 1.395 . S
C1156 C1159 1.403 . S
H1157 C1163 0.930 . S
C1158 H1144 0.930 . S
C1158 C1156 1.395 . S
C1158 C1161 1.403 . S
C1159 C1156 1.403 . S
C1159 C1160 1.524 . S
C1159 C1163 1.400 . S
C1160 H1145 0.960 . S
C1160 H1146 0.960 . S
C1160 H1147 0.960 . S
C1160 C1159 1.524 . S
C1161 C1158 1.403 . S
C1161 C1162 1.392 . S
C1161 C1165 1.495 . S
C1162 C1161 1.392 . S
C1162 C1163 1.385 . S
C1162 C1164 1.478 . S
C1163 H1157 0.930 . S
C1163 C1159 1.400 . S
C1163 C1162 1.385 . S
C1164 C1162 1.478 . S
C1164 C1166 1.381 . S
C1164 C1170 1.383 . S
C1165 C1161 1.495 . S
C1165 H1171 0.959 . S
C1165 H1172 0.961 . S
C1165 H1173 0.960 . S
C1166 C1164 1.381 . S
C1166 C1167 1.394 . S
C1166 H1174 0.930 . S
C1167 C1166 1.394 . S
C1167 C1168 1.383 . S
C1167 H1175 0.929 . S
C1168 C1167 1.383 . S
C1168 C1169 1.377 . S
C1169 H1153 0.930 . S
C1169 C1168 1.377 . S
C1169 C1170 1.379 . S
C1170 H1154 0.931 . S
C1170 C1164 1.383 . S
C1170 C1169 1.379 . S
H1171 C1165 0.959 . S
H1172 C1165 0.961 . S
H1173 C1165 0.960 . S
H1174 C1166 0.930 . S
H1175 C1167 0.929 . S
H1176 C1184 0.882 1_545 S
H1177 C1186 0.930 . S
H1178 C1188 0.930 . S
H1179 C1191 0.929 . S
H1180 C1194 0.930 . S
H1181 C1196 0.960 . S
H1182 C1196 0.960 . S
H1183 C1196 0.960 . S
C1184 H1176 0.882 1_565 S
C1184 C1185 1.377 . S
C1184 C1186 1.384 . S
C1185 C1184 1.377 . S
C1185 C1191 1.390 . S
C1186 H1177 0.930 . S
C1186 C1184 1.384 . S
C1186 C1187 1.372 . S
C1187 C1186 1.372 . S
C1187 C1188 1.400 . S
C1187 C1192 1.490 . S
C1188 H1178 0.930 . S
C1188 C1187 1.400 . S
C1188 C1191 1.386 . S
H1189 C1205 0.930 . S
H1190 C1206 0.931 . S
C1191 H1179 0.929 . S
C1191 C1185 1.390 . S
C1191 C1188 1.386 . S
C1192 C1187 1.490 . S
C1192 C1194 1.395 . S
C1192 C1195 1.403 . S
H1193 C1199 0.930 . S
C1194 H1180 0.930 . S
C1194 C1192 1.395 . S
C1194 C1197 1.403 . S
C1195 C1192 1.403 . S
C1195 C1196 1.524 . S
C1195 C1199 1.400 . S
C1196 H1181 0.960 . S
C1196 H1182 0.960 . S
C1196 H1183 0.960 . S
C1196 C1195 1.524 . S
C1197 C1194 1.403 . S
C1197 C1198 1.392 . S
C1197 C1201 1.495 . S
C1198 C1197 1.392 . S
C1198 C1199 1.385 . S
C1198 C1200 1.478 . S
C1199 H1193 0.930 . S
C1199 C1195 1.400 . S
C1199 C1198 1.385 . S
C1200 C1198 1.478 . S
C1200 C1202 1.381 . S
C1200 C1206 1.383 . S
C1201 C1197 1.495 . S
C1201 H1207 0.959 . S
C1201 H1208 0.961 . S
C1201 H1209 0.960 . S
C1202 C1200 1.381 . S
C1202 C1203 1.394 . S
C1202 H1210 0.930 . S
C1203 C1202 1.394 . S
C1203 C1204 1.383 . S
C1203 H1211 0.929 . S
C1204 C1203 1.383 . S
C1204 C1205 1.377 . S
C1205 H1189 0.930 . S
C1205 C1204 1.377 . S
C1205 C1206 1.379 . S
C1206 H1190 0.931 . S
C1206 C1200 1.383 . S
C1206 C1205 1.379 . S
H1207 C1201 0.959 . S
H1208 C1201 0.961 . S
H1209 C1201 0.960 . S
H1210 C1202 0.930 . S
H1211 C1203 0.929 . S
H1212 C1220 0.929 . S
H1213 C1222 0.930 . S
H1214 C1224 0.930 . S
H1215 C1227 0.929 . S
H1216 C1230 0.930 . S
H1217 C1232 0.960 . S
H1218 C1232 0.960 . S
H1219 C1232 0.960 . S
C1220 H1212 0.929 . S
C1220 C1221 1.377 . S
C1220 C1222 1.384 . S
C1221 C1220 1.377 . S
C1221 C1227 1.390 . S
C1222 H1213 0.930 . S
C1222 C1220 1.384 . S
C1222 C1223 1.372 . S
C1223 C1222 1.372 . S
C1223 C1224 1.400 . S
C1223 C1228 1.490 . S
C1224 H1214 0.930 . S
C1224 C1223 1.400 . S
C1224 C1227 1.386 . S
H1225 C1241 0.930 . S
H1226 C1242 0.931 . S
C1227 H1215 0.929 . S
C1227 C1221 1.390 . S
C1227 C1224 1.386 . S
C1228 C1223 1.490 . S
C1228 C1230 1.395 . S
C1228 C1231 1.403 . S
H1229 C1235 0.930 . S
C1230 H1216 0.930 . S
C1230 C1228 1.395 . S
C1230 C1233 1.403 . S
C1231 C1228 1.403 . S
C1231 C1232 1.524 . S
C1231 C1235 1.400 . S
C1232 H1217 0.960 . S
C1232 H1218 0.960 . S
C1232 H1219 0.960 . S
C1232 C1231 1.524 . S
C1233 C1230 1.403 . S
C1233 C1234 1.392 . S
C1233 C1237 1.495 . S
C1234 C1233 1.392 . S
C1234 C1235 1.385 . S
C1234 C1236 1.478 . S
C1235 H1229 0.930 . S
C1235 C1231 1.400 . S
C1235 C1234 1.385 . S
C1236 C1234 1.478 . S
C1236 C1238 1.381 . S
C1236 C1242 1.383 . S
C1237 C1233 1.495 . S
C1237 H1243 0.959 . S
C1237 H1244 0.961 . S
C1237 H1245 0.960 . S
C1238 C1236 1.381 . S
C1238 C1239 1.394 . S
C1238 H1246 0.930 . S
C1239 C1238 1.394 . S
C1239 C1240 1.383 . S
C1239 H1247 0.929 1_545 S
C1240 C1239 1.383 . S
C1240 C1241 1.377 . S
C1241 H1225 0.930 . S
C1241 C1240 1.377 . S
C1241 C1242 1.379 . S
C1242 H1226 0.931 . S
C1242 C1236 1.383 . S
C1242 C1241 1.379 . S
H1243 C1237 0.959 . S
H1244 C1237 0.961 . S
H1245 C1237 0.960 . S
H1246 C1238 0.930 . S
H1247 C1239 0.929 1_565 S
H1248 C1256 0.929 . S
H1249 C1258 0.930 . S
H1250 C1260 0.930 . S
H1251 C1263 0.929 . S
H1252 C1266 0.930 . S
H1253 C1268 0.960 . S
H1254 C1268 0.960 . S
H1255 C1268 0.960 . S
C1256 H1248 0.929 . S
C1256 C1257 1.377 . S
C1256 C1258 1.384 . S
C1257 C1256 1.377 . S
C1257 C1263 1.390 . S
C1258 H1249 0.930 . S
C1258 C1256 1.384 . S
C1258 C1259 1.372 . S
C1259 C1258 1.372 . S
C1259 C1260 1.400 . S
C1259 C1264 1.490 . S
C1260 H1250 0.930 . S
C1260 C1259 1.400 . S
C1260 C1263 1.386 . S
H1261 C1277 0.930 . S
H1262 C1278 0.931 . S
C1263 H1251 0.929 . S
C1263 C1257 1.390 . S
C1263 C1260 1.386 . S
C1264 C1259 1.490 . S
C1264 C1266 1.395 . S
C1264 C1267 1.403 . S
H1265 C1271 0.930 . S
C1266 H1252 0.930 . S
C1266 C1264 1.395 . S
C1266 C1269 1.403 . S
C1267 C1264 1.403 . S
C1267 C1268 1.524 . S
C1267 C1271 1.400 . S
C1268 H1253 0.960 . S
C1268 H1254 0.960 . S
C1268 H1255 0.960 . S
C1268 C1267 1.524 . S
C1269 C1266 1.403 . S
C1269 C1270 1.392 . S
C1269 C1273 1.495 . S
C1270 C1269 1.392 . S
C1270 C1271 1.385 . S
C1270 C1272 1.478 . S
C1271 H1265 0.930 . S
C1271 C1267 1.400 . S
C1271 C1270 1.385 . S
C1272 C1270 1.478 . S
C1272 C1274 1.381 . S
C1272 C1278 1.383 . S
C1273 C1269 1.495 . S
C1273 H1279 0.959 . S
C1273 H1280 0.961 . S
C1273 H1281 0.960 . S
C1274 C1272 1.381 . S
C1274 C1275 1.394 . S
C1274 H1282 0.930 . S
C1275 C1274 1.394 . S
C1275 C1276 1.383 . S
C1275 H1283 0.929 . S
C1276 C1275 1.383 . S
C1276 C1277 1.377 . S
C1277 H1261 0.930 . S
C1277 C1276 1.377 . S
C1277 C1278 1.379 . S
C1278 H1262 0.931 . S
C1278 C1272 1.383 . S
C1278 C1277 1.379 . S
H1279 C1273 0.959 . S
H1280 C1273 0.961 . S
H1281 C1273 0.960 . S
H1282 C1274 0.930 . S
H1283 C1275 0.929 . S
H1284 C1292 0.929 . S
H1285 C1294 0.930 . S
H1286 C1296 0.930 . S
H1287 C1299 0.929 . S
H1288 C1302 0.930 . S
H1289 C1304 0.960 . S
H1290 C1304 0.960 . S
H1291 C1304 0.960 . S
C1292 H1284 0.929 . S
C1292 C1293 1.377 . S
C1292 C1294 1.384 . S
C1293 C1292 1.377 . S
C1293 C1299 1.390 . S
C1294 H1285 0.930 . S
C1294 C1292 1.384 . S
C1294 C1295 1.372 . S
C1295 C1294 1.372 . S
C1295 C1296 1.400 . S
C1295 C1300 1.490 . S
C1296 H1286 0.930 . S
C1296 C1295 1.400 . S
C1296 C1299 1.386 . S
H1297 C1313 0.930 . S
H1298 C1314 0.931 . S
C1299 H1287 0.929 . S
C1299 C1293 1.390 . S
C1299 C1296 1.386 . S
C1300 C1295 1.490 . S
C1300 C1302 1.395 . S
C1300 C1303 1.403 . S
H1301 C1307 0.930 . S
C1302 H1288 0.930 . S
C1302 C1300 1.395 . S
C1302 C1305 1.403 . S
C1303 C1300 1.403 . S
C1303 C1304 1.524 . S
C1303 C1307 1.400 . S
C1304 H1289 0.960 . S
C1304 H1290 0.960 . S
C1304 H1291 0.960 . S
C1304 C1303 1.524 . S
C1305 C1302 1.403 . S
C1305 C1306 1.392 . S
C1305 C1309 1.495 . S
C1306 C1305 1.392 . S
C1306 C1307 1.385 . S
C1306 C1308 1.478 . S
C1307 H1301 0.930 . S
C1307 C1303 1.400 . S
C1307 C1306 1.385 . S
C1308 C1306 1.478 . S
C1308 C1310 1.381 . S
C1308 C1314 1.383 . S
C1309 C1305 1.495 . S
C1309 H1315 0.959 . S
C1309 H1316 0.961 . S
C1309 H1317 0.960 . S
C1310 C1308 1.381 . S
C1310 C1311 1.394 . S
C1310 H1318 0.930 . S
C1311 C1310 1.394 . S
C1311 C1312 1.383 . S
C1311 H1319 0.929 . S
C1312 C1311 1.383 . S
C1312 C1313 1.377 . S
C1313 H1297 0.930 . S
C1313 C1312 1.377 . S
C1313 C1314 1.379 . S
C1314 H1298 0.931 . S
C1314 C1308 1.383 . S
C1314 C1313 1.379 . S
H1315 C1309 0.959 . S
H1316 C1309 0.961 . S
H1317 C1309 0.960 . S
H1318 C1310 0.930 . S
H1319 C1311 0.929 . S
H1320 C1328 0.929 . S
H1321 C1330 0.930 . S
H1322 C1332 0.930 . S
H1323 C1335 0.929 . S
H1324 C1338 0.930 . S
H1325 C1340 0.960 . S
H1326 C1340 0.960 . S
H1327 C1340 0.960 . S
C1328 H1320 0.929 . S
C1328 C1329 1.377 . S
C1328 C1330 1.384 . S
C1329 C1328 1.377 . S
C1329 C1335 1.390 . S
C1330 H1321 0.930 . S
C1330 C1328 1.384 . S
C1330 C1331 1.372 . S
C1331 C1330 1.372 . S
C1331 C1332 1.400 . S
C1331 C1336 1.490 . S
C1332 H1322 0.930 . S
C1332 C1331 1.400 . S
C1332 C1335 1.386 . S
H1333 C1349 0.930 . S
H1334 C1350 0.931 . S
C1335 H1323 0.929 . S
C1335 C1329 1.390 . S
C1335 C1332 1.386 . S
C1336 C1331 1.490 . S
C1336 C1338 1.395 . S
C1336 C1339 1.403 . S
H1337 C1343 0.930 . S
C1338 H1324 0.930 . S
C1338 C1336 1.395 . S
C1338 C1341 1.403 . S
C1339 C1336 1.403 . S
C1339 C1340 1.524 . S
C1339 C1343 1.400 . S
C1340 H1325 0.960 . S
C1340 H1326 0.960 . S
C1340 H1327 0.960 . S
C1340 C1339 1.524 . S
C1341 C1338 1.403 . S
C1341 C1342 1.392 . S
C1341 C1345 1.495 . S
C1342 C1341 1.392 . S
C1342 C1343 1.385 . S
C1342 C1344 1.478 . S
C1343 H1337 0.930 . S
C1343 C1339 1.400 . S
C1343 C1342 1.385 . S
C1344 C1342 1.478 . S
C1344 C1346 1.381 . S
C1344 C1350 1.383 . S
C1345 C1341 1.495 . S
C1345 H1351 0.959 . S
C1345 H1352 0.961 . S
C1345 H1353 0.960 . S
C1346 C1344 1.381 . S
C1346 C1347 1.394 . S
C1346 H1354 0.930 . S
C1347 C1346 1.394 . S
C1347 C1348 1.383 . S
C1347 H1355 0.929 . S
C1348 C1347 1.383 . S
C1348 C1349 1.377 . S
C1349 H1333 0.930 . S
C1349 C1348 1.377 . S
C1349 C1350 1.379 . S
C1350 H1334 0.931 . S
C1350 C1344 1.383 . S
C1350 C1349 1.379 . S
H1351 C1345 0.959 . S
H1352 C1345 0.961 . S
H1353 C1345 0.960 . S
H1354 C1346 0.930 . S
H1355 C1347 0.929 . S
H1356 C1364 0.929 . S
H1357 C1366 0.930 . S
H1358 C1368 0.930 . S
H1359 C1371 0.929 . S
H1360 C1374 0.930 . S
H1361 C1376 0.960 . S
H1362 C1376 0.960 . S
H1363 C1376 0.960 . S
C1364 H1356 0.929 . S
C1364 C1365 1.377 . S
C1364 C1366 1.384 . S
C1365 C1364 1.377 . S
C1365 C1371 1.390 . S
C1366 H1357 0.930 . S
C1366 C1364 1.384 . S
C1366 C1367 1.372 . S
C1367 C1366 1.372 . S
C1367 C1368 1.400 . S
C1367 C1372 1.490 . S
C1368 H1358 0.930 . S
C1368 C1367 1.400 . S
C1368 C1371 1.386 . S
H1369 C1385 0.930 . S
H1370 C1386 0.931 . S
C1371 H1359 0.929 . S
C1371 C1365 1.390 . S
C1371 C1368 1.386 . S
C1372 C1367 1.490 . S
C1372 C1374 1.395 . S
C1372 C1375 1.403 . S
H1373 C1379 0.930 . S
C1374 H1360 0.930 . S
C1374 C1372 1.395 . S
C1374 C1377 1.403 . S
C1375 C1372 1.403 . S
C1375 C1376 1.524 . S
C1375 C1379 1.400 . S
C1376 H1361 0.960 . S
C1376 H1362 0.960 . S
C1376 H1363 0.960 . S
C1376 C1375 1.524 . S
C1377 C1374 1.403 . S
C1377 C1378 1.392 . S
C1377 C1381 1.495 . S
C1378 C1377 1.392 . S
C1378 C1379 1.385 . S
C1378 C1380 1.478 . S
C1379 H1373 0.930 . S
C1379 C1375 1.400 . S
C1379 C1378 1.385 . S
C1380 C1378 1.478 . S
C1380 C1382 1.381 . S
C1380 C1386 1.383 . S
C1381 C1377 1.495 . S
C1381 H1387 0.959 . S
C1381 H1388 0.961 . S
C1381 H1389 0.960 . S
C1382 C1380 1.381 . S
C1382 C1383 1.394 . S
C1382 H1390 0.930 . S
C1383 C1382 1.394 . S
C1383 C1384 1.383 . S
C1383 H1391 0.929 . S
C1384 C1383 1.383 . S
C1384 C1385 1.377 . S
C1385 H1369 0.930 . S
C1385 C1384 1.377 . S
C1385 C1386 1.379 . S
C1386 H1370 0.931 . S
C1386 C1380 1.383 . S
C1386 C1385 1.379 . S
H1387 C1381 0.959 . S
H1388 C1381 0.961 . S
H1389 C1381 0.960 . S
H1390 C1382 0.930 . S
H1391 C1383 0.929 . S
H1392 C1400 0.929 . S
H1393 C1402 0.930 . S
H1394 C1404 0.930 . S
H1395 C1407 0.929 . S
H1396 C1410 0.930 . S
H1397 C1412 0.960 . S
H1398 C1412 0.960 . S
H1399 C1412 0.960 . S
C1400 H1392 0.929 . S
C1400 C1401 1.377 . S
C1400 C1402 1.384 . S
C1401 C1400 1.377 . S
C1401 C1407 1.390 . S
C1402 H1393 0.930 . S
C1402 C1400 1.384 . S
C1402 C1403 1.372 . S
C1403 C1402 1.372 . S
C1403 C1404 1.400 . S
C1403 C1408 1.490 . S
C1404 H1394 0.930 . S
C1404 C1403 1.400 . S
C1404 C1407 1.386 . S
H1405 C1421 0.930 . S
H1406 C1422 0.931 . S
C1407 H1395 0.929 . S
C1407 C1401 1.390 . S
C1407 C1404 1.386 . S
C1408 C1403 1.490 . S
C1408 C1410 1.395 . S
C1408 C1411 1.403 . S
H1409 C1415 0.930 . S
C1410 H1396 0.930 . S
C1410 C1408 1.395 . S
C1410 C1413 1.403 . S
C1411 C1408 1.403 . S
C1411 C1412 1.524 . S
C1411 C1415 1.400 . S
C1412 H1397 0.960 . S
C1412 H1398 0.960 . S
C1412 H1399 0.960 . S
C1412 C1411 1.524 . S
C1413 C1410 1.403 . S
C1413 C1414 1.392 . S
C1413 C1417 1.495 . S
C1414 C1413 1.392 . S
C1414 C1415 1.385 . S
C1414 C1416 1.478 . S
C1415 H1409 0.930 . S
C1415 C1411 1.400 . S
C1415 C1414 1.385 . S
C1416 C1414 1.478 . S
C1416 C1418 1.381 . S
C1416 C1422 1.383 . S
C1417 C1413 1.495 . S
C1417 H1423 0.959 . S
C1417 H1424 0.961 . S
C1417 H1425 0.960 . S
C1418 C1416 1.381 . S
C1418 C1419 1.394 . S
C1418 H1426 0.930 . S
C1419 C1418 1.394 . S
C1419 C1420 1.383 . S
C1419 H1427 0.929 . S
C1420 C1419 1.383 . S
C1420 C1421 1.377 . S
C1421 H1405 0.930 . S
C1421 C1420 1.377 . S
C1421 C1422 1.379 . S
C1422 H1406 0.931 . S
C1422 C1416 1.383 . S
C1422 C1421 1.379 . S
H1423 C1417 0.959 . S
H1424 C1417 0.961 . S
H1425 C1417 0.960 . S
H1426 C1418 0.930 . S
H1427 C1419 0.929 . S
H1428 C1436 0.929 . S
H1429 C1438 0.930 . S
H1430 C1440 0.930 . S
H1431 C1443 0.929 1_455 S
H1432 C1446 0.930 . S
H1433 C1448 0.960 . S
H1434 C1448 0.960 . S
H1435 C1448 0.960 . S
C1436 H1428 0.929 . S
C1436 C1437 1.377 . S
C1436 C1438 1.384 . S
C1437 C1436 1.377 . S
C1437 C1443 1.390 . S
C1438 H1429 0.930 . S
C1438 C1436 1.384 . S
C1438 C1439 1.372 . S
C1439 C1438 1.372 . S
C1439 C1440 1.400 . S
C1439 C1444 1.490 . S
C1440 H1430 0.930 . S
C1440 C1439 1.400 . S
C1440 C1443 1.386 . S
H1441 C1457 0.930 . S
H1442 C1458 0.931 . S
C1443 H1431 0.929 1_655 S
C1443 C1437 1.390 . S
C1443 C1440 1.386 . S
C1444 C1439 1.490 . S
C1444 C1446 1.395 . S
C1444 C1447 1.403 . S
H1445 C1451 0.930 . S
C1446 H1432 0.930 . S
C1446 C1444 1.395 . S
C1446 C1449 1.403 . S
C1447 C1444 1.403 . S
C1447 C1448 1.524 . S
C1447 C1451 1.400 . S
C1448 H1433 0.960 . S
C1448 H1434 0.960 . S
C1448 H1435 0.960 . S
C1448 C1447 1.524 . S
C1449 C1446 1.403 . S
C1449 C1450 1.392 . S
C1449 C1453 1.495 . S
C1450 C1449 1.392 . S
C1450 C1451 1.385 . S
C1450 C1452 1.478 . S
C1451 H1445 0.930 . S
C1451 C1447 1.400 . S
C1451 C1450 1.385 . S
C1452 C1450 1.478 . S
C1452 C1454 1.381 . S
C1452 C1458 1.383 . S
C1453 C1449 1.495 . S
C1453 H1459 0.959 . S
C1453 H1460 0.961 . S
C1453 H1461 0.960 . S
C1454 C1452 1.381 . S
C1454 C1455 1.394 . S
C1454 H1462 0.930 . S
C1455 C1454 1.394 . S
C1455 C1456 1.383 . S
C1455 H1463 0.929 . S
C1456 C1455 1.383 . S
C1456 C1457 1.377 . S
C1457 H1441 0.930 . S
C1457 C1456 1.377 . S
C1457 C1458 1.379 . S
C1458 H1442 0.931 . S
C1458 C1452 1.383 . S
C1458 C1457 1.379 . S
H1459 C1453 0.959 . S
H1460 C1453 0.961 . S
H1461 C1453 0.960 . S
H1462 C1454 0.930 . S
H1463 C1455 0.929 . S
H1464 C1472 0.929 . S
H1465 C1474 0.930 . S
H1466 C1476 0.930 . S
H1467 C1479 0.929 . S
H1468 C1482 0.930 . S
H1469 C1484 0.960 . S
H1470 C1484 0.960 . S
H1471 C1484 0.960 . S
C1472 H1464 0.929 . S
C1472 C1473 1.377 . S
C1472 C1474 1.384 . S
C1473 C1472 1.377 . S
C1473 C1479 1.390 . S
C1474 H1465 0.930 . S
C1474 C1472 1.384 . S
C1474 C1475 1.372 . S
C1475 C1474 1.372 . S
C1475 C1476 1.400 . S
C1475 C1480 1.490 . S
C1476 H1466 0.930 . S
C1476 C1475 1.400 . S
C1476 C1479 1.386 . S
H1477 C1493 0.930 . S
H1478 C1494 0.931 . S
C1479 H1467 0.929 . S
C1479 C1473 1.390 . S
C1479 C1476 1.386 . S
C1480 C1475 1.490 . S
C1480 C1482 1.395 . S
C1480 C1483 1.403 . S
H1481 C1487 0.930 . S
C1482 H1468 0.930 . S
C1482 C1480 1.395 . S
C1482 C1485 1.403 . S
C1483 C1480 1.403 . S
C1483 C1484 1.524 . S
C1483 C1487 1.400 . S
C1484 H1469 0.960 . S
C1484 H1470 0.960 . S
C1484 H1471 0.960 . S
C1484 C1483 1.524 . S
C1485 C1482 1.403 . S
C1485 C1486 1.392 . S
C1485 C1489 1.495 . S
C1486 C1485 1.392 . S
C1486 C1487 1.385 . S
C1486 C1488 1.478 . S
C1487 H1481 0.930 . S
C1487 C1483 1.400 . S
C1487 C1486 1.385 . S
C1488 C1486 1.478 . S
C1488 C1490 1.381 . S
C1488 C1494 1.383 . S
C1489 C1485 1.495 . S
C1489 H1495 0.959 . S
C1489 H1496 0.961 . S
C1489 H1497 0.960 . S
C1490 C1488 1.381 . S
C1490 C1491 1.394 . S
C1490 H1498 0.930 . S
C1491 C1490 1.394 . S
C1491 C1492 1.383 . S
C1491 H1499 0.929 . S
C1492 C1491 1.383 . S
C1492 C1493 1.377 . S
C1493 H1477 0.930 . S
C1493 C1492 1.377 . S
C1493 C1494 1.379 . S
C1494 H1478 0.931 . S
C1494 C1488 1.383 . S
C1494 C1493 1.379 . S
H1495 C1489 0.959 . S
H1496 C1489 0.961 . S
H1497 C1489 0.960 . S
H1498 C1490 0.930 . S
H1499 C1491 0.929 . S
H1500 C1508 0.929 . S
H1501 C1510 0.930 . S
H1502 C1512 0.930 . S
H1503 C1515 0.929 1_554 S
H1504 C1518 0.930 . S
H1505 C1520 0.960 . S
H1506 C1520 0.960 . S
H1507 C1520 0.960 . S
C1508 H1500 0.929 . S
C1508 C1509 1.377 . S
C1508 C1510 1.384 . S
C1509 C1508 1.377 . S
C1509 C1515 1.390 . S
C1510 H1501 0.930 . S
C1510 C1508 1.384 . S
C1510 C1511 1.372 . S
C1511 C1510 1.372 . S
C1511 C1512 1.400 . S
C1511 C1516 1.490 . S
C1512 H1502 0.930 . S
C1512 C1511 1.400 . S
C1512 C1515 1.386 . S
H1513 C1529 0.930 . S
H1514 C1530 0.931 . S
C1515 H1503 0.929 1_556 S
C1515 C1509 1.390 . S
C1515 C1512 1.386 . S
C1516 C1511 1.490 . S
C1516 C1518 1.395 . S
C1516 C1519 1.403 . S
H1517 C1523 0.930 . S
C1518 H1504 0.930 . S
C1518 C1516 1.395 . S
C1518 C1521 1.403 . S
C1519 C1516 1.403 . S
C1519 C1520 1.524 . S
C1519 C1523 1.400 . S
C1520 H1505 0.960 . S
C1520 H1506 0.960 . S
C1520 H1507 0.960 . S
C1520 C1519 1.524 . S
C1521 C1518 1.403 . S
C1521 C1522 1.392 . S
C1521 C1525 1.495 . S
C1522 C1521 1.392 . S
C1522 C1523 1.385 . S
C1522 C1524 1.478 . S
C1523 H1517 0.930 . S
C1523 C1519 1.400 . S
C1523 C1522 1.385 . S
C1524 C1522 1.478 . S
C1524 C1526 1.381 . S
C1524 C1530 1.383 . S
C1525 C1521 1.495 . S
C1525 H1531 0.959 . S
C1525 H1532 0.961 . S
C1525 H1533 0.960 . S
C1526 C1524 1.381 . S
C1526 C1527 1.394 . S
C1526 H1534 0.930 . S
C1527 C1526 1.394 . S
C1527 C1528 1.383 . S
C1527 H1535 0.929 . S
C1528 C1527 1.383 . S
C1528 C1529 1.377 . S
C1529 H1513 0.930 . S
C1529 C1528 1.377 . S
C1529 C1530 1.379 . S
C1530 H1514 0.931 . S
C1530 C1524 1.383 . S
C1530 C1529 1.379 . S
H1531 C1525 0.959 . S
H1532 C1525 0.961 . S
H1533 C1525 0.960 . S
H1534 C1526 0.930 . S
H1535 C1527 0.929 . S
H1536 C1544 0.929 . S
H1537 C1546 0.930 . S
H1538 C1548 0.930 . S
H1539 C1551 0.929 . S
H1540 C1554 0.930 . S
H1541 C1556 0.960 . S
H1542 C1556 0.960 . S
H1543 C1556 0.960 . S
C1544 H1536 0.929 . S
C1544 C1545 1.377 . S
C1544 C1546 1.384 . S
C1545 C1544 1.377 . S
C1545 C1551 1.390 . S
C1546 H1537 0.930 . S
C1546 C1544 1.384 . S
C1546 C1547 1.372 . S
C1547 C1546 1.372 . S
C1547 C1548 1.400 . S
C1547 C1552 1.490 . S
C1548 H1538 0.930 . S
C1548 C1547 1.400 . S
C1548 C1551 1.386 . S
H1549 C1565 0.930 . S
H1550 C1566 0.931 . S
C1551 H1539 0.929 . S
C1551 C1545 1.390 . S
C1551 C1548 1.386 . S
C1552 C1547 1.490 . S
C1552 C1554 1.395 . S
C1552 C1555 1.403 . S
H1553 C1559 0.930 . S
C1554 H1540 0.930 . S
C1554 C1552 1.395 . S
C1554 C1557 1.403 . S
C1555 C1552 1.403 . S
C1555 C1556 1.524 . S
C1555 C1559 1.400 . S
C1556 H1541 0.960 . S
C1556 H1542 0.960 . S
C1556 H1543 0.960 . S
C1556 C1555 1.524 . S
C1557 C1554 1.403 . S
C1557 C1558 1.392 . S
C1557 C1561 1.495 . S
C1558 C1557 1.392 . S
C1558 C1559 1.385 . S
C1558 C1560 1.478 . S
C1559 H1553 0.930 . S
C1559 C1555 1.400 . S
C1559 C1558 1.385 . S
C1560 C1558 1.478 . S
C1560 C1562 1.381 . S
C1560 C1566 1.383 . S
C1561 C1557 1.495 . S
C1561 H1567 0.959 . S
C1561 H1568 0.961 . S
C1561 H1569 0.960 . S
C1562 C1560 1.381 . S
C1562 C1563 1.394 . S
C1562 H1570 0.930 . S
C1563 C1562 1.394 . S
C1563 C1564 1.383 . S
C1563 H1571 0.929 . S
C1564 C1563 1.383 . S
C1564 C1565 1.377 . S
C1565 H1549 0.930 . S
C1565 C1564 1.377 . S
C1565 C1566 1.379 . S
C1566 H1550 0.931 . S
C1566 C1560 1.383 . S
C1566 C1565 1.379 . S
H1567 C1561 0.959 . S
H1568 C1561 0.961 . S
H1569 C1561 0.960 . S
H1570 C1562 0.930 . S
H1571 C1563 0.929 . S
H1572 C1580 0.929 . S
H1573 C1582 0.930 . S
H1574 C1584 0.930 . S
H1575 C1587 0.929 . S
H1576 C1590 0.930 . S
H1577 C1592 0.960 . S
H1578 C1592 0.960 . S
H1579 C1592 0.960 . S
C1580 H1572 0.929 . S
C1580 C1581 1.377 . S
C1580 C1582 1.384 . S
C1581 C1580 1.377 . S
C1581 C1587 1.390 . S
C1582 H1573 0.930 . S
C1582 C1580 1.384 . S
C1582 C1583 1.372 . S
C1583 C1582 1.372 . S
C1583 C1584 1.400 . S
C1583 C1588 1.490 . S
C1584 H1574 0.930 . S
C1584 C1583 1.400 . S
C1584 C1587 1.386 . S
H1585 C1601 0.930 . S
H1586 C1602 0.931 . S
C1587 H1575 0.929 . S
C1587 C1581 1.390 . S
C1587 C1584 1.386 . S
C1588 C1583 1.490 . S
C1588 C1590 1.395 . S
C1588 C1591 1.403 . S
H1589 C1595 0.930 . S
C1590 H1576 0.930 . S
C1590 C1588 1.395 . S
C1590 C1593 1.403 . S
C1591 C1588 1.403 . S
C1591 C1592 1.524 . S
C1591 C1595 1.400 . S
C1592 H1577 0.960 . S
C1592 H1578 0.960 . S
C1592 H1579 0.960 . S
C1592 C1591 1.524 . S
C1593 C1590 1.403 . S
C1593 C1594 1.392 . S
C1593 C1597 1.495 . S
C1594 C1593 1.392 . S
C1594 C1595 1.385 . S
C1594 C1596 1.478 . S
C1595 H1589 0.930 . S
C1595 C1591 1.400 . S
C1595 C1594 1.385 . S
C1596 C1594 1.478 . S
C1596 C1598 1.381 . S
C1596 C1602 1.383 . S
C1597 C1593 1.495 . S
C1597 H1603 0.959 . S
C1597 H1604 0.961 . S
C1597 H1605 0.960 . S
C1598 C1596 1.381 . S
C1598 C1599 1.394 . S
C1598 H1606 0.930 . S
C1599 C1598 1.394 . S
C1599 C1600 1.383 . S
C1599 H1607 0.929 . S
C1600 C1599 1.383 . S
C1600 C1601 1.377 . S
C1601 H1585 0.930 . S
C1601 C1600 1.377 . S
C1601 C1602 1.379 . S
C1602 H1586 0.931 . S
C1602 C1596 1.383 . S
C1602 C1601 1.379 . S
H1603 C1597 0.959 . S
H1604 C1597 0.961 . S
H1605 C1597 0.960 . S
H1606 C1598 0.930 . S
H1607 C1599 0.929 . S
H1608 C1616 0.929 . S
H1609 C1618 0.930 . S
H1610 C1620 0.930 . S
H1611 C1623 0.929 . S
H1612 C1626 0.930 . S
H1613 C1628 0.960 . S
H1614 C1628 0.960 . S
H1615 C1628 0.960 . S
C1616 H1608 0.929 . S
C1616 C1617 1.377 . S
C1616 C1618 1.384 . S
C1617 C1616 1.377 . S
C1617 C1623 1.390 . S
C1618 H1609 0.930 . S
C1618 C1616 1.384 . S
C1618 C1619 1.372 . S
C1619 C1618 1.372 . S
C1619 C1620 1.400 . S
C1619 C1624 1.490 . S
C1620 H1610 0.930 . S
C1620 C1619 1.400 . S
C1620 C1623 1.386 . S
H1621 C1637 0.930 . S
H1622 C1638 0.931 . S
C1623 H1611 0.929 . S
C1623 C1617 1.390 . S
C1623 C1620 1.386 . S
C1624 C1619 1.490 . S
C1624 C1626 1.395 . S
C1624 C1627 1.403 . S
H1625 C1631 0.930 . S
C1626 H1612 0.930 . S
C1626 C1624 1.395 . S
C1626 C1629 1.403 . S
C1627 C1624 1.403 . S
C1627 C1628 1.524 . S
C1627 C1631 1.400 . S
C1628 H1613 0.960 . S
C1628 H1614 0.960 . S
C1628 H1615 0.960 . S
C1628 C1627 1.524 . S
C1629 C1626 1.403 . S
C1629 C1630 1.392 . S
C1629 C1633 1.495 . S
C1630 C1629 1.392 . S
C1630 C1631 1.385 . S
C1630 C1632 1.478 . S
C1631 H1625 0.930 . S
C1631 C1627 1.400 . S
C1631 C1630 1.385 . S
C1632 C1630 1.478 . S
C1632 C1634 1.381 . S
C1632 C1638 1.383 . S
C1633 C1629 1.495 . S
C1633 H1639 0.959 . S
C1633 H1640 0.961 . S
C1633 H1641 0.960 . S
C1634 C1632 1.381 . S
C1634 C1635 1.394 . S
C1634 H1642 0.930 . S
C1635 C1634 1.394 . S
C1635 C1636 1.383 . S
C1635 H1643 0.929 . S
C1636 C1635 1.383 . S
C1636 C1637 1.377 . S
C1637 H1621 0.930 . S
C1637 C1636 1.377 . S
C1637 C1638 1.379 . S
C1638 H1622 0.931 . S
C1638 C1632 1.383 . S
C1638 C1637 1.379 . S
H1639 C1633 0.959 . S
H1640 C1633 0.961 . S
H1641 C1633 0.960 . S
H1642 C1634 0.930 . S
H1643 C1635 0.929 . S
H1644 C1652 0.929 . S
H1645 C1654 0.930 . S
H1646 C1656 0.930 . S
H1647 C1659 0.929 . S
H1648 C1662 0.930 . S
H1649 C1664 0.960 . S
H1650 C1664 0.960 . S
H1651 C1664 0.960 . S
C1652 H1644 0.929 . S
C1652 C1653 1.377 . S
C1652 C1654 1.384 . S
C1653 C1652 1.377 . S
C1653 C1659 1.390 . S
C1654 H1645 0.930 . S
C1654 C1652 1.384 . S
C1654 C1655 1.372 . S
C1655 C1654 1.372 . S
C1655 C1656 1.400 . S
C1655 C1660 1.490 . S
C1656 H1646 0.930 . S
C1656 C1655 1.400 . S
C1656 C1659 1.386 . S
H1657 C1673 0.930 . S
H1658 C1674 0.931 . S
C1659 H1647 0.929 . S
C1659 C1653 1.390 . S
C1659 C1656 1.386 . S
C1660 C1655 1.490 . S
C1660 C1662 1.395 . S
C1660 C1663 1.403 . S
H1661 C1667 0.930 . S
C1662 H1648 0.930 . S
C1662 C1660 1.395 . S
C1662 C1665 1.403 . S
C1663 C1660 1.403 . S
C1663 C1664 1.524 . S
C1663 C1667 1.400 . S
C1664 H1649 0.960 . S
C1664 H1650 0.960 . S
C1664 H1651 0.960 . S
C1664 C1663 1.524 . S
C1665 C1662 1.403 . S
C1665 C1666 1.392 . S
C1665 C1669 1.495 . S
C1666 C1665 1.392 . S
C1666 C1667 1.385 . S
C1666 C1668 1.478 . S
C1667 H1661 0.930 . S
C1667 C1663 1.400 . S
C1667 C1666 1.385 . S
C1668 C1666 1.478 . S
C1668 C1670 1.381 . S
C1668 C1674 1.383 . S
C1669 C1665 1.495 . S
C1669 H1675 0.959 . S
C1669 H1676 0.961 . S
C1669 H1677 0.960 . S
C1670 C1668 1.381 . S
C1670 C1671 1.394 . S
C1670 H1678 0.930 . S
C1671 C1670 1.394 . S
C1671 C1672 1.383 . S
C1671 H1679 0.929 . S
C1672 C1671 1.383 . S
C1672 C1673 1.377 . S
C1673 H1657 0.930 . S
C1673 C1672 1.377 . S
C1673 C1674 1.379 . S
C1674 H1658 0.931 . S
C1674 C1668 1.383 . S
C1674 C1673 1.379 . S
H1675 C1669 0.959 . S
H1676 C1669 0.961 . S
H1677 C1669 0.960 . S
H1678 C1670 0.930 . S
H1679 C1671 0.929 . S
H1680 C1688 0.929 . S
H1681 C1690 0.930 . S
H1682 C1692 0.930 . S
H1683 C1695 0.929 . S
H1684 C1698 0.930 . S
H1685 C1700 0.960 . S
H1686 C1700 0.960 . S
H1687 C1700 0.960 . S
C1688 H1680 0.929 . S
C1688 C1689 1.377 . S
C1688 C1690 1.384 . S
C1689 C1688 1.377 . S
C1689 C1695 1.390 . S
C1690 H1681 0.930 . S
C1690 C1688 1.384 . S
C1690 C1691 1.372 . S
C1691 C1690 1.372 . S
C1691 C1692 1.400 . S
C1691 C1696 1.490 . S
C1692 H1682 0.930 . S
C1692 C1691 1.400 . S
C1692 C1695 1.386 . S
H1693 C1709 0.930 . S
H1694 C1710 0.931 . S
C1695 H1683 0.929 . S
C1695 C1689 1.390 . S
C1695 C1692 1.386 . S
C1696 C1691 1.490 . S
C1696 C1698 1.395 . S
C1696 C1699 1.403 . S
H1697 C1703 0.930 . S
C1698 H1684 0.930 . S
C1698 C1696 1.395 . S
C1698 C1701 1.403 . S
C1699 C1696 1.403 . S
C1699 C1700 1.524 . S
C1699 C1703 1.400 . S
C1700 H1685 0.960 . S
C1700 H1686 0.960 . S
C1700 H1687 0.960 . S
C1700 C1699 1.524 . S
C1701 C1698 1.403 . S
C1701 C1702 1.392 . S
C1701 C1705 1.495 . S
C1702 C1701 1.392 . S
C1702 C1703 1.385 . S
C1702 C1704 1.478 . S
C1703 H1697 0.930 . S
C1703 C1699 1.400 . S
C1703 C1702 1.385 . S
C1704 C1702 1.478 . S
C1704 C1706 1.381 . S
C1704 C1710 1.383 . S
C1705 C1701 1.495 . S
C1705 H1711 0.959 . S
C1705 H1712 0.961 . S
C1705 H1713 0.960 . S
C1706 C1704 1.381 . S
C1706 C1707 1.394 . S
C1706 H1714 0.930 . S
C1707 C1706 1.394 . S
C1707 C1708 1.383 . S
C1707 H1715 0.929 . S
C1708 C1707 1.383 . S
C1708 C1709 1.377 . S
C1709 H1693 0.930 . S
C1709 C1708 1.377 . S
C1709 C1710 1.379 . S
C1710 H1694 0.931 . S
C1710 C1704 1.383 . S
C1710 C1709 1.379 . S
H1711 C1705 0.959 . S
H1712 C1705 0.961 . S
H1713 C1705 0.960 . S
H1714 C1706 0.930 . S
H1715 C1707 0.929 . S
H1716 C1724 0.929 . S
H1717 C1726 0.930 . S
H1718 C1728 0.930 . S
H1719 C1731 0.929 . S
H1720 C1734 0.930 . S
H1721 C1736 0.960 . S
H1722 C1736 0.960 . S
H1723 C1736 0.960 . S
C1724 H1716 0.929 . S
C1724 C1725 1.377 . S
C1724 C1726 1.384 . S
C1725 C1724 1.377 . S
C1725 C1731 1.390 . S
C1726 H1717 0.930 . S
C1726 C1724 1.384 . S
C1726 C1727 1.372 . S
C1727 C1726 1.372 . S
C1727 C1728 1.400 . S
C1727 C1732 1.490 . S
C1728 H1718 0.930 . S
C1728 C1727 1.400 . S
C1728 C1731 1.386 . S
H1729 C1745 0.930 . S
H1730 C1746 0.931 . S
C1731 H1719 0.929 . S
C1731 C1725 1.390 . S
C1731 C1728 1.386 . S
C1732 C1727 1.490 . S
C1732 C1734 1.395 . S
C1732 C1735 1.403 . S
H1733 C1739 0.930 . S
C1734 H1720 0.930 . S
C1734 C1732 1.395 . S
C1734 C1737 1.403 . S
C1735 C1732 1.403 . S
C1735 C1736 1.524 . S
C1735 C1739 1.400 . S
C1736 H1721 0.960 . S
C1736 H1722 0.960 . S
C1736 H1723 0.960 . S
C1736 C1735 1.524 . S
C1737 C1734 1.403 . S
C1737 C1738 1.392 . S
C1737 C1741 1.495 . S
C1738 C1737 1.392 . S
C1738 C1739 1.385 . S
C1738 C1740 1.478 . S
C1739 H1733 0.930 . S
C1739 C1735 1.400 . S
C1739 C1738 1.385 . S
C1740 C1738 1.478 . S
C1740 C1742 1.381 . S
C1740 C1746 1.383 . S
C1741 C1737 1.495 . S
C1741 H1747 0.959 . S
C1741 H1748 0.961 . S
C1741 H1749 0.960 . S
C1742 C1740 1.381 . S
C1742 C1743 1.394 . S
C1742 H1750 0.930 . S
C1743 C1742 1.394 . S
C1743 C1744 1.383 . S
C1743 H1751 0.929 . S
C1744 C1743 1.383 . S
C1744 C1745 1.377 . S
C1745 H1729 0.930 . S
C1745 C1744 1.377 . S
C1745 C1746 1.379 . S
C1746 H1730 0.931 . S
C1746 C1740 1.383 . S
C1746 C1745 1.379 . S
H1747 C1741 0.959 . S
H1748 C1741 0.961 . S
H1749 C1741 0.960 . S
H1750 C1742 0.930 . S
H1751 C1743 0.929 . S
H1752 C1760 0.929 . S
H1753 C1762 0.930 . S
H1754 C1764 0.930 . S
H1755 C1767 0.929 . S
H1756 C1770 0.930 . S
H1757 C1772 0.960 . S
H1758 C1772 0.960 . S
H1759 C1772 0.960 . S
C1760 H1752 0.929 . S
C1760 C1761 1.377 . S
C1760 C1762 1.384 . S
C1761 C1760 1.377 . S
C1761 C1767 1.390 . S
C1762 H1753 0.930 . S
C1762 C1760 1.384 . S
C1762 C1763 1.372 . S
C1763 C1762 1.372 . S
C1763 C1764 1.400 . S
C1763 C1768 1.490 . S
C1764 H1754 0.930 . S
C1764 C1763 1.400 . S
C1764 C1767 1.386 . S
H1765 C1781 0.930 . S
H1766 C1782 0.931 . S
C1767 H1755 0.929 . S
C1767 C1761 1.390 . S
C1767 C1764 1.386 . S
C1768 C1763 1.490 . S
C1768 C1770 1.395 . S
C1768 C1771 1.403 . S
H1769 C1775 0.930 . S
C1770 H1756 0.930 . S
C1770 C1768 1.395 . S
C1770 C1773 1.403 . S
C1771 C1768 1.403 . S
C1771 C1772 1.524 . S
C1771 C1775 1.400 . S
C1772 H1757 0.960 . S
C1772 H1758 0.960 . S
C1772 H1759 0.960 . S
C1772 C1771 1.524 . S
C1773 C1770 1.403 . S
C1773 C1774 1.392 . S
C1773 C1777 1.495 . S
C1774 C1773 1.392 . S
C1774 C1775 1.385 . S
C1774 C1776 1.478 . S
C1775 H1769 0.930 . S
C1775 C1771 1.400 . S
C1775 C1774 1.385 . S
C1776 C1774 1.478 . S
C1776 C1778 1.381 . S
C1776 C1782 1.383 . S
C1777 C1773 1.495 . S
C1777 H1783 0.959 . S
C1777 H1784 0.961 . S
C1777 H1785 0.960 . S
C1778 C1776 1.381 . S
C1778 C1779 1.394 . S
C1778 H1786 0.930 . S
C1779 C1778 1.394 . S
C1779 C1780 1.383 . S
C1779 H1787 0.929 . S
C1780 C1779 1.383 . S
C1780 C1781 1.377 . S
C1781 H1765 0.930 . S
C1781 C1780 1.377 . S
C1781 C1782 1.379 . S
C1782 H1766 0.931 . S
C1782 C1776 1.383 . S
C1782 C1781 1.379 . S
H1783 C1777 0.959 . S
H1784 C1777 0.961 . S
H1785 C1777 0.960 . S
H1786 C1778 0.930 . S
H1787 C1779 0.929 . S
H1788 C1796 0.929 . S
H1789 C1798 0.930 . S
H1790 C1800 0.930 . S
H1791 C1803 0.929 . S
H1792 C1806 0.930 . S
H1793 C1808 0.960 . S
H1794 C1808 0.960 . S
H1795 C1808 0.960 . S
C1796 H1788 0.929 . S
C1796 C1797 1.377 . S
C1796 C1798 1.384 . S
C1797 C1796 1.377 . S
C1797 C1803 1.390 . S
C1798 H1789 0.930 . S
C1798 C1796 1.384 . S
C1798 C1799 1.372 . S
C1799 C1798 1.372 . S
C1799 C1800 1.400 . S
C1799 C1804 1.490 . S
C1800 H1790 0.930 . S
C1800 C1799 1.400 . S
C1800 C1803 1.386 . S
H1801 C1817 0.930 . S
H1802 C1818 0.931 . S
C1803 H1791 0.929 . S
C1803 C1797 1.390 . S
C1803 C1800 1.386 . S
C1804 C1799 1.490 . S
C1804 C1806 1.395 . S
C1804 C1807 1.403 . S
H1805 C1811 0.930 . S
C1806 H1792 0.930 . S
C1806 C1804 1.395 . S
C1806 C1809 1.403 . S
C1807 C1804 1.403 . S
C1807 C1808 1.524 . S
C1807 C1811 1.400 . S
C1808 H1793 0.960 . S
C1808 H1794 0.960 . S
C1808 H1795 0.960 . S
C1808 C1807 1.524 . S
C1809 C1806 1.403 . S
C1809 C1810 1.392 . S
C1809 C1813 1.495 . S
C1810 C1809 1.392 . S
C1810 C1811 1.385 . S
C1810 C1812 1.478 . S
C1811 H1805 0.930 . S
C1811 C1807 1.400 . S
C1811 C1810 1.385 . S
C1812 C1810 1.478 . S
C1812 C1814 1.381 . S
C1812 C1818 1.383 . S
C1813 C1809 1.495 . S
C1813 H1819 0.959 . S
C1813 H1820 0.961 . S
C1813 H1821 0.960 . S
C1814 C1812 1.381 . S
C1814 C1815 1.394 . S
C1814 H1822 0.930 . S
C1815 C1814 1.394 . S
C1815 C1816 1.383 . S
C1815 H1823 0.929 . S
C1816 C1815 1.383 . S
C1816 C1817 1.377 . S
C1817 H1801 0.930 . S
C1817 C1816 1.377 . S
C1817 C1818 1.379 . S
C1818 H1802 0.931 . S
C1818 C1812 1.383 . S
C1818 C1817 1.379 . S
H1819 C1813 0.959 . S
H1820 C1813 0.961 . S
H1821 C1813 0.960 . S
H1822 C1814 0.930 . S
H1823 C1815 0.929 . S
H1824 C1832 0.929 . S
H1825 C1834 0.930 . S
H1826 C1836 0.930 . S
H1827 C1839 0.929 . S
H1828 C1842 0.930 . S
H1829 C1844 0.960 . S
H1830 C1844 0.960 . S
H1831 C1844 0.960 . S
C1832 H1824 0.929 . S
C1832 C1833 1.377 . S
C1832 C1834 1.384 . S
C1833 C1832 1.377 . S
C1833 C1839 1.390 . S
C1834 H1825 0.930 . S
C1834 C1832 1.384 . S
C1834 C1835 1.372 . S
C1835 C1834 1.372 . S
C1835 C1836 1.400 . S
C1835 C1840 1.490 . S
C1836 H1826 0.930 . S
C1836 C1835 1.400 . S
C1836 C1839 1.386 . S
H1837 C1853 0.930 . S
H1838 C1854 0.931 . S
C1839 H1827 0.929 . S
C1839 C1833 1.390 . S
C1839 C1836 1.386 . S
C1840 C1835 1.490 . S
C1840 C1842 1.395 . S
C1840 C1843 1.403 . S
H1841 C1847 0.930 . S
C1842 H1828 0.930 . S
C1842 C1840 1.395 . S
C1842 C1845 1.403 . S
C1843 C1840 1.403 . S
C1843 C1844 1.524 . S
C1843 C1847 1.400 . S
C1844 H1829 0.960 . S
C1844 H1830 0.960 . S
C1844 H1831 0.960 . S
C1844 C1843 1.524 . S
C1845 C1842 1.403 . S
C1845 C1846 1.392 . S
C1845 C1849 1.495 . S
C1846 C1845 1.392 . S
C1846 C1847 1.385 . S
C1846 C1848 1.478 . S
C1847 H1841 0.930 . S
C1847 C1843 1.400 . S
C1847 C1846 1.385 . S
C1848 C1846 1.478 . S
C1848 C1850 1.381 . S
C1848 C1854 1.383 . S
C1849 C1845 1.495 . S
C1849 H1855 0.959 . S
C1849 H1856 0.961 . S
C1849 H1857 0.960 . S
C1850 C1848 1.381 . S
C1850 C1851 1.394 . S
C1850 H1858 0.930 . S
C1851 C1850 1.394 . S
C1851 C1852 1.383 . S
C1851 H1859 0.929 . S
C1852 C1851 1.383 . S
C1852 C1853 1.377 . S
C1853 H1837 0.930 . S
C1853 C1852 1.377 . S
C1853 C1854 1.379 . S
C1854 H1838 0.931 . S
C1854 C1848 1.383 . S
C1854 C1853 1.379 . S
H1855 C1849 0.959 . S
H1856 C1849 0.961 . S
H1857 C1849 0.960 . S
H1858 C1850 0.930 . S
H1859 C1851 0.929 . S
H1860 C1868 0.929 . S
H1861 C1870 0.930 . S
H1862 C1872 0.930 . S
H1863 C1875 0.929 . S
H1864 C1878 0.930 . S
H1865 C1880 0.960 . S
H1866 C1880 0.960 . S
H1867 C1880 0.960 . S
C1868 H1860 0.929 . S
C1868 C1869 1.377 . S
C1868 C1870 1.384 . S
C1869 C1868 1.377 . S
C1869 C1875 1.390 . S
C1870 H1861 0.930 . S
C1870 C1868 1.384 . S
C1870 C1871 1.372 . S
C1871 C1870 1.372 . S
C1871 C1872 1.400 . S
C1871 C1876 1.490 . S
C1872 H1862 0.930 . S
C1872 C1871 1.400 . S
C1872 C1875 1.386 . S
H1873 C1889 0.930 . S
H1874 C1890 0.931 . S
C1875 H1863 0.929 . S
C1875 C1869 1.390 . S
C1875 C1872 1.386 . S
C1876 C1871 1.490 . S
C1876 C1878 1.395 . S
C1876 C1879 1.403 . S
H1877 C1883 0.930 . S
C1878 H1864 0.930 . S
C1878 C1876 1.395 . S
C1878 C1881 1.403 . S
C1879 C1876 1.403 . S
C1879 C1880 1.524 . S
C1879 C1883 1.400 . S
C1880 H1865 0.960 . S
C1880 H1866 0.960 . S
C1880 H1867 0.960 . S
C1880 C1879 1.524 . S
C1881 C1878 1.403 . S
C1881 C1882 1.392 . S
C1881 C1885 1.495 . S
C1882 C1881 1.392 . S
C1882 C1883 1.385 . S
C1882 C1884 1.478 . S
C1883 H1877 0.930 . S
C1883 C1879 1.400 . S
C1883 C1882 1.385 . S
C1884 C1882 1.478 . S
C1884 C1886 1.381 . S
C1884 C1890 1.383 . S
C1885 C1881 1.495 . S
C1885 H1891 0.959 . S
C1885 H1892 0.961 . S
C1885 H1893 0.960 . S
C1886 C1884 1.381 . S
C1886 C1887 1.394 . S
C1886 H1894 0.930 . S
C1887 C1886 1.394 . S
C1887 C1888 1.383 . S
C1887 H1895 0.929 . S
C1888 C1887 1.383 . S
C1888 C1889 1.377 . S
C1889 H1873 0.930 . S
C1889 C1888 1.377 . S
C1889 C1890 1.379 . S
C1890 H1874 0.931 . S
C1890 C1884 1.383 . S
C1890 C1889 1.379 . S
H1891 C1885 0.959 . S
H1892 C1885 0.961 . S
H1893 C1885 0.960 . S
H1894 C1886 0.930 . S
H1895 C1887 0.929 . S
H1896 C1904 0.929 . S
H1897 C1906 0.930 . S
H1898 C1908 0.930 . S
H1899 C1911 0.929 . S
H1900 C1914 0.930 . S
H1901 C1916 0.960 . S
H1902 C1916 0.960 . S
H1903 C1916 0.960 . S
C1904 H1896 0.929 . S
C1904 C1905 1.377 . S
C1904 C1906 1.384 . S
C1905 C1904 1.377 . S
C1905 C1911 1.390 . S
C1906 H1897 0.930 . S
C1906 C1904 1.384 . S
C1906 C1907 1.372 . S
C1907 C1906 1.372 . S
C1907 C1908 1.400 . S
C1907 C1912 1.490 . S
C1908 H1898 0.930 . S
C1908 C1907 1.400 . S
C1908 C1911 1.386 . S
H1909 C1925 0.930 . S
H1910 C1926 0.931 . S
C1911 H1899 0.929 . S
C1911 C1905 1.390 . S
C1911 C1908 1.386 . S
C1912 C1907 1.490 . S
C1912 C1914 1.395 . S
C1912 C1915 1.403 . S
H1913 C1919 0.930 . S
C1914 H1900 0.930 . S
C1914 C1912 1.395 . S
C1914 C1917 1.403 . S
C1915 C1912 1.403 . S
C1915 C1916 1.524 . S
C1915 C1919 1.400 . S
C1916 H1901 0.960 . S
C1916 H1902 0.960 . S
C1916 H1903 0.960 . S
C1916 C1915 1.524 . S
C1917 C1914 1.403 . S
C1917 C1918 1.392 . S
C1917 C1921 1.495 . S
C1918 C1917 1.392 . S
C1918 C1919 1.385 . S
C1918 C1920 1.478 . S
C1919 H1913 0.930 . S
C1919 C1915 1.400 . S
C1919 C1918 1.385 . S
C1920 C1918 1.478 . S
C1920 C1922 1.381 . S
C1920 C1926 1.383 . S
C1921 C1917 1.495 . S
C1921 H1927 0.959 . S
C1921 H1928 0.961 . S
C1921 H1929 0.960 . S
C1922 C1920 1.381 . S
C1922 C1923 1.394 . S
C1922 H1930 0.930 . S
C1923 C1922 1.394 . S
C1923 C1924 1.383 . S
C1923 H1931 0.929 . S
C1924 C1923 1.383 . S
C1924 C1925 1.377 . S
C1925 H1909 0.930 . S
C1925 C1924 1.377 . S
C1925 C1926 1.379 . S
C1926 H1910 0.931 . S
C1926 C1920 1.383 . S
C1926 C1925 1.379 . S
H1927 C1921 0.959 . S
H1928 C1921 0.961 . S
H1929 C1921 0.960 . S
H1930 C1922 0.930 . S
H1931 C1923 0.929 . S
H1932 C1940 0.929 . S
H1933 C1942 0.930 . S
H1934 C1944 0.930 . S
H1935 C1947 0.929 . S
H1936 C1950 0.930 . S
H1937 C1952 0.960 . S
H1938 C1952 0.960 . S
H1939 C1952 0.960 . S
C1940 H1932 0.929 . S
C1940 C1941 1.377 . S
C1940 C1942 1.384 . S
C1941 C1940 1.377 . S
C1941 C1947 1.390 . S
C1942 H1933 0.930 . S
C1942 C1940 1.384 . S
C1942 C1943 1.372 . S
C1943 C1942 1.372 . S
C1943 C1944 1.400 . S
C1943 C1948 1.490 . S
C1944 H1934 0.930 . S
C1944 C1943 1.400 . S
C1944 C1947 1.386 . S
H1945 C1961 0.930 . S
H1946 C1962 0.931 . S
C1947 H1935 0.929 . S
C1947 C1941 1.390 . S
C1947 C1944 1.386 . S
C1948 C1943 1.490 . S
C1948 C1950 1.395 . S
C1948 C1951 1.403 . S
H1949 C1955 0.930 . S
C1950 H1936 0.930 . S
C1950 C1948 1.395 . S
C1950 C1953 1.403 . S
C1951 C1948 1.403 . S
C1951 C1952 1.524 . S
C1951 C1955 1.400 . S
C1952 H1937 0.960 . S
C1952 H1938 0.960 . S
C1952 H1939 0.960 . S
C1952 C1951 1.524 . S
C1953 C1950 1.403 . S
C1953 C1954 1.392 . S
C1953 C1957 1.495 . S
C1954 C1953 1.392 . S
C1954 C1955 1.385 . S
C1954 C1956 1.478 . S
C1955 H1949 0.930 . S
C1955 C1951 1.400 . S
C1955 C1954 1.385 . S
C1956 C1954 1.478 . S
C1956 C1958 1.381 . S
C1956 C1962 1.383 . S
C1957 C1953 1.495 . S
C1957 H1963 0.959 . S
C1957 H1964 0.961 . S
C1957 H1965 0.960 . S
C1958 C1956 1.381 . S
C1958 C1959 1.394 . S
C1958 H1966 0.930 . S
C1959 C1958 1.394 . S
C1959 C1960 1.383 . S
C1959 H1967 0.929 . S
C1960 C1959 1.383 . S
C1960 C1961 1.377 . S
C1961 H1945 0.930 . S
C1961 C1960 1.377 . S
C1961 C1962 1.379 . S
C1962 H1946 0.931 . S
C1962 C1956 1.383 . S
C1962 C1961 1.379 . S
H1963 C1957 0.959 . S
H1964 C1957 0.961 . S
H1965 C1957 0.960 . S
H1966 C1958 0.930 . S
H1967 C1959 0.929 . S
H1968 C1976 0.929 . S
H1969 C1978 0.930 . S
H1970 C1980 0.930 . S
H1971 C1983 0.929 . S
H1972 C1986 0.930 . S
H1973 C1988 0.960 . S
H1974 C1988 0.960 . S
H1975 C1988 0.960 . S
C1976 H1968 0.929 . S
C1976 C1977 1.377 . S
C1976 C1978 1.384 . S
C1977 C1976 1.377 . S
C1977 C1983 1.390 . S
C1978 H1969 0.930 . S
C1978 C1976 1.384 . S
C1978 C1979 1.372 . S
C1979 C1978 1.372 . S
C1979 C1980 1.400 . S
C1979 C1984 1.490 . S
C1980 H1970 0.930 . S
C1980 C1979 1.400 . S
C1980 C1983 1.386 . S
H1981 C1997 0.930 . S
H1982 C1998 0.931 . S
C1983 H1971 0.929 . S
C1983 C1977 1.390 . S
C1983 C1980 1.386 . S
C1984 C1979 1.490 . S
C1984 C1986 1.395 . S
C1984 C1987 1.403 . S
H1985 C1991 0.930 . S
C1986 H1972 0.930 . S
C1986 C1984 1.395 . S
C1986 C1989 1.403 . S
C1987 C1984 1.403 . S
C1987 C1988 1.524 . S
C1987 C1991 1.400 . S
C1988 H1973 0.960 . S
C1988 H1974 0.960 . S
C1988 H1975 0.960 . S
C1988 C1987 1.524 . S
C1989 C1986 1.403 . S
C1989 C1990 1.392 . S
C1989 C1993 1.495 . S
C1990 C1989 1.392 . S
C1990 C1991 1.385 . S
C1990 C1992 1.478 . S
C1991 H1985 0.930 . S
C1991 C1987 1.400 . S
C1991 C1990 1.385 . S
C1992 C1990 1.478 . S
C1992 C1994 1.381 . S
C1992 C1998 1.383 . S
C1993 C1989 1.495 . S
C1993 H1999 0.959 . S
C1993 H2000 0.961 . S
C1993 H2001 0.960 . S
C1994 C1992 1.381 . S
C1994 C1995 1.394 . S
C1994 H2002 0.930 . S
C1995 C1994 1.394 . S
C1995 C1996 1.383 . S
C1995 H2003 0.929 . S
C1996 C1995 1.383 . S
C1996 C1997 1.377 . S
C1997 H1981 0.930 . S
C1997 C1996 1.377 . S
C1997 C1998 1.379 . S
C1998 H1982 0.931 . S
C1998 C1992 1.383 . S
C1998 C1997 1.379 . S
H1999 C1993 0.959 . S
H2000 C1993 0.961 . S
H2001 C1993 0.960 . S
H2002 C1994 0.930 . S
H2003 C1995 0.929 . S
H2004 C2012 0.929 . S
H2005 C2014 0.930 . S
H2006 C2016 0.930 . S
H2007 C2019 0.929 . S
H2008 C2022 0.930 . S
H2009 C2024 0.960 . S
H2010 C2024 0.960 . S
H2011 C2024 0.960 . S
C2012 H2004 0.929 . S
C2012 C2013 1.377 . S
C2012 C2014 1.384 . S
C2013 C2012 1.377 . S
C2013 C2019 1.390 . S
C2014 H2005 0.930 . S
C2014 C2012 1.384 . S
C2014 C2015 1.372 . S
C2015 C2014 1.372 . S
C2015 C2016 1.400 . S
C2015 C2020 1.490 . S
C2016 H2006 0.930 . S
C2016 C2015 1.400 . S
C2016 C2019 1.386 . S
H2017 C2033 0.930 . S
H2018 C2034 0.931 . S
C2019 H2007 0.929 . S
C2019 C2013 1.390 . S
C2019 C2016 1.386 . S
C2020 C2015 1.490 . S
C2020 C2022 1.395 . S
C2020 C2023 1.403 . S
H2021 C2027 0.930 . S
C2022 H2008 0.930 . S
C2022 C2020 1.395 . S
C2022 C2025 1.403 . S
C2023 C2020 1.403 . S
C2023 C2024 1.524 . S
C2023 C2027 1.400 . S
C2024 H2009 0.960 . S
C2024 H2010 0.960 . S
C2024 H2011 0.960 . S
C2024 C2023 1.524 . S
C2025 C2022 1.403 . S
C2025 C2026 1.392 . S
C2025 C2029 1.495 . S
C2026 C2025 1.392 . S
C2026 C2027 1.385 . S
C2026 C2028 1.478 . S
C2027 H2021 0.930 . S
C2027 C2023 1.400 . S
C2027 C2026 1.385 . S
C2028 C2026 1.478 . S
C2028 C2030 1.381 . S
C2028 C2034 1.383 . S
C2029 C2025 1.495 . S
C2029 H2035 0.959 . S
C2029 H2036 0.961 . S
C2029 H2037 0.960 . S
C2030 C2028 1.381 . S
C2030 C2031 1.394 . S
C2030 H2038 0.930 . S
C2031 C2030 1.394 . S
C2031 C2032 1.383 . S
C2031 H2039 0.929 . S
C2032 C2031 1.383 . S
C2032 C2033 1.377 . S
C2033 H2017 0.930 . S
C2033 C2032 1.377 . S
C2033 C2034 1.379 . S
C2034 H2018 0.931 . S
C2034 C2028 1.383 . S
C2034 C2033 1.379 . S
H2035 C2029 0.959 . S
H2036 C2029 0.961 . S
H2037 C2029 0.960 . S
H2038 C2030 0.930 . S
H2039 C2031 0.929 . S
C321 C187 1.181 . S
C340 C8 1.167 . S
C357 C18 1.129 . S
C376 C195 1.154 . S
C393 C242 1.199 . S
C412 C36 1.216 . S
C429 C39 1.097 . S
C448 C169 1.078 . S
C465 C182 1.210 . S
C484 C62 1.241 . S
C501 C70 1.148 . S
C520 C200 1.167 . S
C537 C86 1.136 . S
C556 C244 1.161 . S
C573 C91 1.119 . S
C592 C174 1.094 . S
C609 C125 1.156 . S
C628 C112 1.133 . S
C645 C130 1.219 . S
C664 C127 1.246 . S
C681 C135 1.190 . S
C700 C151 1.210 . S
C717 C153 1.200 . S
C736 C114 1.196 . S
C753 C156 1.130 . S
C772 C44 1.121 . S
C789 C60 1.137 . S
C808 C218 1.166 . S
C825 C221 1.098 . S
C844 C13 1.070 . S
C861 C23 1.405 . S
C880 C278 1.387 . S
C897 C117 1.322 . S
C916 C5 1.346 . S
C933 C307 1.375 . S
C952 C47 1.385 . S
C969 C143 1.328 . S
C988 C26 1.300 . S
C1005 C273 1.448 . S
C1024 C99 1.434 . S
C1041 C122 1.334 . S
C1060 C83 1.352 . S
C1077 C75 1.398 . S
C1096 C309 1.396 . S
C1113 C52 1.320 . S
C1132 C148 1.356 . S
C1149 C205 1.401 . S
C1168 C257 1.395 . S
C1185 C213 1.493 . S
C1204 C203 1.468 . S
C1221 C179 1.365 . S
C1240 C208 1.289 . S
C1257 C255 1.368 . S
C1276 C177 1.348 . S
C1293 C31 1.344 . S
C1312 C260 1.312 . S
C1329 C140 1.398 . S
C1348 C101 1.394 . S
C1365 C0 1.325 . S
C1384 C286 1.298 . S
C1401 C252 1.185 . S
C1420 C34 1.164 . S
C1437 C10 1.218 . S
C1456 C216 1.193 . S
C1473 C247 1.212 . S
C1492 C88 1.241 . S
C1509 C161 1.145 . S
C1528 C96 1.143 . S
C1545 C65 1.110 . S
C1564 C226 1.073 . S
C1581 C281 1.156 . S
C1600 C268 1.182 . S
C1617 C299 1.219 . S
C1636 C270 1.249 . S
C1653 C294 1.185 . S
C1672 C304 1.151 . S
C1689 C283 1.198 . S
C1708 C296 1.198 . S
C1725 C109 1.363 . S
C1744 C49 1.404 . S
C1761 C21 1.382 . S
C1780 C138 1.396 . S
C1797 C73 1.450 . S
C1816 C104 1.432 . S
C1833 C265 1.339 . S
C1852 C57 1.339 . S
C1869 C78 1.329 . S
C1888 C291 1.307 . S
C1905 C166 1.401 . S
C1924 C192 1.402 . S
C1941 C239 1.496 . S
C1960 C164 1.455 . S
C1977 C231 1.365 . S
C1996 C234 1.302 . S
C2013 C190 1.374 . S
C2032 C229 1.351 . S
