# Generated by pormake.
# Topology uog, (4)-cn, num edge types: 1
# Building blocks:
#     Node 0, Type 0, BuildingBlock: KUFVIS_clean_sbu_0, # of connection points: 4
#     Node 1, Type 0, BuildingBlock: KUFVIS_clean_sbu_0, # of connection points: 4
#     Node 2, Type 0, BuildingBlock: KUFVIS_clean_sbu_0, # of connection points: 4
#     Node 3, Type 0, BuildingBlock: KUFVIS_clean_sbu_0, # of connection points: 4
#     Node 4, Type 0, BuildingBlock: KUFVIS_clean_sbu_0, # of connection points: 4
#     Node 5, Type 0, BuildingBlock: KUFVIS_clean_sbu_0, # of connection points: 4
#     Edge 6, Type (0, 0), BuildingBlock: XUDNAN_clean_linker_2, # of connection points: 2
#     Edge 7, Type (0, 0), BuildingBlock: XUDNAN_clean_linker_2, # of connection points: 2
#     Edge 8, Type (0, 0), BuildingBlock: XUDNAN_clean_linker_2, # of connection points: 2
#     Edge 9, Type (0, 0), BuildingBlock: XUDNAN_clean_linker_2, # of connection points: 2
#     Edge 10, Type (0, 0), BuildingBlock: XUDNAN_clean_linker_2, # of connection points: 2
#     Edge 11, Type (0, 0), BuildingBlock: XUDNAN_clean_linker_2, # of connection points: 2
#     Edge 12, Type (0, 0), BuildingBlock: XUDNAN_clean_linker_2, # of connection points: 2
#     Edge 13, Type (0, 0), BuildingBlock: XUDNAN_clean_linker_2, # of connection points: 2
#     Edge 14, Type (0, 0), BuildingBlock: XUDNAN_clean_linker_2, # of connection points: 2
#     Edge 15, Type (0, 0), BuildingBlock: XUDNAN_clean_linker_2, # of connection points: 2
#     Edge 16, Type (0, 0), BuildingBlock: XUDNAN_clean_linker_2, # of connection points: 2
#     Edge 17, Type (0, 0), BuildingBlock: XUDNAN_clean_linker_2, # of connection points: 2
# Relax obj value: 0.108
# Max RMSD: 0.206
# Mean RMSD: 0.204
data_MOF--net-uog--node1-KUFVIS_clean_sbu_0--edge1-XUDNAN_clean_linker_2
_symmetry_space_group_name_H-M    P1
_symmetry_Int_Tables_number       1
_symmetry_cell_setting            triclinic
loop_
_symmetry_equiv_pos_as_xyz
'x, y, z'
_cell_length_a     28.802599
_cell_length_b     28.551485
_cell_length_c     41.557107
_cell_angle_alpha  89.960662
_cell_angle_beta   89.942106
_cell_angle_gamma 120.01432
loop_
_atom_site_label
_atom_site_type_symbol
_atom_site_fract_x
_atom_site_fract_y
_atom_site_fract_z
_atom_type_partial_charge
Mn0 Mn 0.62373 0.26717 0.15098 0.0
Mn1 Mn 0.72037 0.39821 0.15952 0.0
C2 C 0.66188 0.31796 0.106 0.0
C3 C 0.60533 0.17707 0.15218 0.0
C4 C 0.60178 0.36194 0.1612 0.0
O5 O 0.63963 0.27363 0.19822 0.0
O6 O 0.70645 0.35953 0.20163 0.0
C7 C 0.80817 0.37517 0.17201 0.0
N8 N 0.78721 0.4001 0.1541 0.0
C9 C 0.86391 0.43887 0.11889 0.0
C10 C 0.88644 0.41385 0.13707 0.0
C11 C 0.85836 0.38175 0.1637 0.0
C12 C 0.81354 0.43044 0.12817 0.0
H13 H 0.78669 0.35034 0.19246 0.0
C14 C 0.6747 0.31335 0.21419 0.0
O15 O 0.56755 0.1886 0.15732 0.0
O16 O 0.65252 0.21739 0.14616 0.0
N17 N 0.73985 0.44233 0.12165 0.0
C18 C 0.71458 0.46711 0.10817 0.0
C19 C 0.73753 0.50093 0.08133 0.0
C20 C 0.78719 0.51061 0.06938 0.0
C21 C 0.81389 0.48712 0.08477 0.0
C22 C 0.78876 0.45331 0.11122 0.0
H23 H 0.67669 0.46031 0.11745 0.0
O24 O 0.61877 0.2711 0.10393 0.0
O25 O 0.68478 0.33158 0.13419 0.0
O26 O 0.58382 0.3109 0.15686 0.0
O27 O 0.65175 0.39716 0.16361 0.0
C28 C 0.86474 0.49647 0.07513 0.0
C29 C 0.88956 0.47204 0.09203 0.0
H30 H 0.92526 0.41903 0.13082 0.0
H31 H 0.87541 0.36218 0.1778 0.0
H32 H 0.71707 0.51963 0.06995 0.0
H33 H 0.80481 0.53677 0.0487 0.0
H34 H 0.88509 0.52232 0.05472 0.0
H35 H 0.92858 0.47937 0.08431 0.0
Mn36 Mn 0.30166 0.59979 0.4808 0.0
Mn37 Mn 0.28199 0.70422 0.4641 0.0
C38 C 0.31113 0.63078 0.42885 0.0
C39 C 0.36407 0.57573 0.49804 0.0
C40 C 0.19087 0.58838 0.47256 0.0
O41 O 0.30072 0.62898 0.52478 0.0
O42 O 0.29214 0.70057 0.51138 0.0
C43 C 0.39058 0.7919 0.48185 0.0
N44 N 0.35081 0.76782 0.45959 0.0
C45 C 0.40435 0.83394 0.41953 0.0
C46 C 0.44567 0.85971 0.44212 0.0
C47 C 0.43876 0.83854 0.4734 0.0
C48 C 0.35711 0.78777 0.4294 0.0
H49 H 0.3857 0.77554 0.50585 0.0
C50 C 0.29783 0.67063 0.53217 0.0
O51 O 0.31289 0.54133 0.5002 0.0
O52 O 0.37802 0.62269 0.48614 0.0
N53 N 0.27252 0.71397 0.41945 0.0
C54 C 0.22892 0.68439 0.40047 0.0
C55 C 0.22974 0.69954 0.36824 0.0
C56 C 0.27502 0.74558 0.35598 0.0
C57 C 0.31873 0.77653 0.37625 0.0
C58 C 0.31547 0.75953 0.40822 0.0
H59 H 0.19387 0.64957 0.40988 0.0
O60 O 0.3051 0.5835 0.43475 0.0
O61 O 0.31369 0.65961 0.45376 0.0
O62 O 0.21926 0.56601 0.47788 0.0
O63 O 0.21021 0.63906 0.4674 0.0
C64 C 0.36569 0.82317 0.36587 0.0
C65 C 0.4085 0.85181 0.38748 0.0
H66 H 0.483 0.89553 0.43564 0.0
H67 H 0.47059 0.858 0.49092 0.0
H68 H 0.19556 0.67576 0.35288 0.0
H69 H 0.27573 0.75687 0.33102 0.0
H70 H 0.36947 0.83711 0.34124 0.0
H71 H 0.44458 0.88735 0.37915 0.0
Mn72 Mn 0.68176 0.3108 0.83368 0.0
Mn73 Mn 0.70612 0.4389 0.84011 0.0
C74 C 0.6927 0.3487 0.8838 0.0
C75 C 0.61385 0.22026 0.82763 0.0
C76 C 0.78991 0.40988 0.81912 0.0
O77 O 0.66593 0.32853 0.78947 0.0
O78 O 0.66996 0.40835 0.79824 0.0
C79 C 0.59527 0.41923 0.84433 0.0
N80 N 0.6453 0.44047 0.85708 0.0
C81 C 0.6213 0.47653 0.90235 0.0
C82 C 0.56958 0.45538 0.88959 0.0
C83 C 0.5565 0.42653 0.86048 0.0
C84 C 0.65843 0.46853 0.88498 0.0
H85 H 0.5851 0.39688 0.82202 0.0
C86 C 0.66046 0.36804 0.78025 0.0
O87 O 0.66298 0.23568 0.81914 0.0
O88 O 0.60514 0.25677 0.83977 0.0
N89 N 0.74109 0.47328 0.87943 0.0
C90 C 0.7911 0.48674 0.88986 0.0
C91 C 0.80939 0.51313 0.91954 0.0
C92 C 0.77634 0.52585 0.93802 0.0
C93 C 0.72525 0.51208 0.92664 0.0
C94 C 0.70924 0.48599 0.89682 0.0
H95 H 0.8166 0.47689 0.87582 0.0
O96 O 0.6961 0.30542 0.87994 0.0
O97 O 0.68078 0.36708 0.85837 0.0
O98 O 0.76323 0.3587 0.82435 0.0
O99 O 0.77093 0.44145 0.82309 0.0
C100 C 0.68892 0.52166 0.94417 0.0
C101 C 0.63702 0.50396 0.93202 0.0
H102 H 0.53941 0.46049 0.90212 0.0
H103 H 0.51658 0.40983 0.85059 0.0
H104 H 0.84876 0.52337 0.92824 0.0
H105 H 0.79035 0.54561 0.96109 0.0
H106 H 0.70014 0.54168 0.96733 0.0
H107 H 0.60915 0.51073 0.946 0.0
Mn108 Mn 0.43929 0.69371 0.13737 0.0
Mn109 Mn 0.31719 0.58154 0.14095 0.0
C110 C 0.39037 0.6612 0.09068 0.0
C111 C 0.48767 0.78829 0.14302 0.0
C112 C 0.42177 0.57894 0.14376 0.0
O113 O 0.4214 0.68562 0.1846 0.0
O114 O 0.33659 0.61601 0.18446 0.0
C115 C 0.24914 0.62953 0.15525 0.0
N116 N 0.26095 0.59802 0.13627 0.0
C117 C 0.18441 0.57417 0.10257 0.0
C118 C 0.1712 0.60607 0.1219 0.0
C119 C 0.20377 0.63394 0.14831 0.0
C120 C 0.22963 0.57061 0.11096 0.0
H121 H 0.27414 0.65109 0.17554 0.0
C122 C 0.37741 0.65427 0.19877 0.0
O123 O 0.51113 0.75963 0.1462 0.0
O124 O 0.4371 0.76207 0.13642 0.0
N125 N 0.29309 0.54478 0.10066 0.0
C126 C 0.31526 0.5216 0.0822 0.0
C127 C 0.28984 0.49531 0.05353 0.0
C128 C 0.24182 0.4929 0.04423 0.0
C129 C 0.21979 0.5171 0.0636 0.0
C130 C 0.24678 0.54254 0.09199 0.0
H131 H 0.35237 0.5237 0.0891 0.0
O132 O 0.44187 0.69353 0.08968 0.0
O133 O 0.36874 0.64908 0.11929 0.0
O134 O 0.4546 0.6297 0.13984 0.0
O135 O 0.37108 0.55899 0.14545 0.0
C136 C 0.17326 0.5188 0.05522 0.0
C137 C 0.15552 0.54722 0.07473 0.0
H138 H 0.13659 0.61009 0.11641 0.0
H139 H 0.194 0.65889 0.16322 0.0
H140 H 0.30735 0.47717 0.03856 0.0
H141 H 0.22268 0.47313 0.02191 0.0
H142 H 0.15153 0.49946 0.03342 0.0
H143 H 0.12036 0.5492 0.06766 0.0
Mn144 Mn 0.6979 0.44004 0.48312 0.0
Mn145 Mn 0.71003 0.32947 0.49329 0.0
C146 C 0.68982 0.38866 0.43916 0.0
C147 C 0.64281 0.47763 0.48897 0.0
C148 C 0.80495 0.44365 0.49007 0.0
O149 O 0.69509 0.4293 0.53096 0.0
O150 O 0.68918 0.3481 0.5352 0.0
C151 C 0.59655 0.24926 0.50707 0.0
N152 N 0.64145 0.26574 0.48886 0.0
C153 C 0.59668 0.18686 0.45523 0.0
C154 C 0.5501 0.16883 0.47379 0.0
C155 C 0.55003 0.20023 0.49978 0.0
C156 C 0.64194 0.2359 0.46376 0.0
H157 H 0.59622 0.27341 0.52696 0.0
C158 C 0.68701 0.38828 0.54724 0.0
O159 O 0.69478 0.50757 0.4899 0.0
O160 O 0.62321 0.42641 0.48375 0.0
N161 N 0.72915 0.30596 0.45487 0.0
C162 C 0.77663 0.32998 0.43856 0.0
C163 C 0.78271 0.30455 0.41128 0.0
C164 C 0.74028 0.25432 0.4013 0.0
C165 C 0.69222 0.22977 0.41885 0.0
C166 C 0.68853 0.25697 0.44592 0.0
H167 H 0.80952 0.3684 0.4461 0.0
O168 O 0.69703 0.43704 0.43564 0.0
O169 O 0.68378 0.37028 0.46852 0.0
O170 O 0.77885 0.46751 0.4827 0.0
O171 O 0.78291 0.39337 0.49709 0.0
C172 C 0.64742 0.17996 0.41013 0.0
C173 C 0.59968 0.15855 0.42828 0.0
H174 H 0.51403 0.13118 0.46814 0.0
H175 H 0.51414 0.18674 0.51411 0.0
H176 H 0.81999 0.32372 0.39791 0.0
H177 H 0.74495 0.23509 0.38006 0.0
H178 H 0.64904 0.15812 0.38925 0.0
H179 H 0.5653 0.12053 0.4211 0.0
Mn180 Mn 0.28687 0.73883 0.8303 0.0
Mn181 Mn 0.27481 0.61522 0.82385 0.0
C182 C 0.28439 0.69283 0.87607 0.0
C183 C 0.34007 0.83329 0.82883 0.0
C184 C 0.17977 0.63184 0.82053 0.0
O185 O 0.30285 0.73568 0.78378 0.0
O186 O 0.28944 0.65144 0.78062 0.0
C187 C 0.38802 0.65407 0.80636 0.0
N188 N 0.34514 0.62439 0.82593 0.0
C189 C 0.39222 0.58706 0.85402 0.0
C190 C 0.43688 0.61713 0.83414 0.0
C191 C 0.43491 0.65113 0.81038 0.0
C192 C 0.34712 0.59268 0.8494 0.0
H193 H 0.38632 0.67947 0.78769 0.0
C194 C 0.30021 0.69665 0.7678 0.0
O195 O 0.28909 0.80882 0.82248 0.0
O196 O 0.35998 0.8029 0.83659 0.0
N197 N 0.26091 0.57384 0.86253 0.0
C198 C 0.2148 0.54827 0.8801 0.0
C199 C 0.2109 0.51419 0.90561 0.0
C200 C 0.25362 0.5051 0.912 0.0
C201 C 0.30011 0.53068 0.89304 0.0
C202 C 0.30233 0.56552 0.8686 0.0
H203 H 0.18156 0.55442 0.87493 0.0
O204 O 0.27439 0.73236 0.87699 0.0
O205 O 0.2989 0.68278 0.84825 0.0
O206 O 0.20661 0.68364 0.82195 0.0
O207 O 0.20095 0.60191 0.82221 0.0
C208 C 0.34421 0.52271 0.89729 0.0
C209 C 0.39044 0.55127 0.87799 0.0
H210 H 0.47284 0.61438 0.83687 0.0
H211 H 0.4692 0.67447 0.79493 0.0
H212 H 0.17478 0.49444 0.92003 0.0
H213 H 0.25022 0.47826 0.93144 0.0
H214 H 0.34343 0.49555 0.91577 0.0
H215 H 0.42448 0.54558 0.8819 0.0
H216 H 0.50966 0.07917 0.15084 0.0
H217 H 0.68233 0.14883 0.15588 0.0
H218 H 0.6713 0.05761 0.15601 0.0
H219 H 0.47476 0.96151 0.20159 0.0
H220 H 0.41738 0.91657 0.17767 0.0
H221 H 0.43845 0.98749 0.17967 0.0
H222 H 0.4454 0.99374 0.11748 0.0
H223 H 0.42444 0.9229 0.11531 0.0
H224 H 0.48663 0.97218 0.09688 0.0
H225 H 0.6421 0.9584 0.15453 0.0
H226 H 0.59603 0.85853 0.14996 0.0
H227 H 0.44299 0.85321 0.14444 0.0
C228 C 0.54502 0.07512 0.15229 0.0
C229 C 0.59683 0.12129 0.15344 0.0
C230 C 0.64217 0.1142 0.15493 0.0
C231 C 0.63639 0.06245 0.1551 0.0
C232 C 0.58495 0.0178 0.15363 0.0
C233 C 0.54002 0.0235 0.15218 0.0
C234 C 0.48947 0.96873 0.14954 0.0
C235 C 0.45286 0.95795 0.17887 0.0
C236 C 0.45975 0.96414 0.11792 0.0
C237 C 0.51313 0.93167 0.1495 0.0
C238 C 0.56824 0.96069 0.15215 0.0
C239 C 0.59888 0.93518 0.15248 0.0
C240 C 0.57245 0.87847 0.14989 0.0
C241 C 0.51602 0.848 0.14675 0.0
C242 C 0.48624 0.87526 0.14671 0.0
H243 H 0.36707 0.48156 0.48904 0.0
H244 H 0.45795 0.64503 0.52603 0.0
H245 H 0.53785 0.63526 0.53123 0.0
H246 H 0.43663 0.42334 0.53819 0.0
H247 H 0.43503 0.38144 0.5053 0.0
H248 H 0.38246 0.39781 0.50954 0.0
H249 H 0.40091 0.43572 0.45141 0.0
H250 H 0.45413 0.42047 0.44718 0.0
H251 H 0.46741 0.48849 0.44058 0.0
H252 H 0.61071 0.61364 0.52514 0.0
H253 H 0.67078 0.5776 0.51269 0.0
H254 H 0.53405 0.42777 0.47976 0.0
C255 C 0.40322 0.51427 0.49947 0.0
C256 C 0.40635 0.56379 0.50755 0.0
C257 C 0.45479 0.60663 0.51997 0.0
C258 C 0.5004 0.60152 0.52298 0.0
C259 C 0.49698 0.55321 0.51346 0.0
C260 C 0.44955 0.50994 0.50241 0.0
C261 C 0.45831 0.46429 0.49135 0.0
C262 C 0.4262 0.41372 0.51236 0.0
C263 C 0.44437 0.45153 0.45551 0.0
C264 C 0.51813 0.48945 0.49702 0.0
C265 C 0.53953 0.54064 0.50994 0.0
C266 C 0.59436 0.5732 0.51554 0.0
C267 C 0.62823 0.55259 0.50816 0.0
C268 C 0.60713 0.49992 0.49536 0.0
C269 C 0.55132 0.46806 0.48978 0.0
H270 H 0.87365 0.3999 0.84376 0.0
H271 H 0.83355 0.48448 0.77221 0.0
H272 H 0.92944 0.54917 0.76358 0.0
H273 H 0.9767 0.51288 0.87944 0.0
H274 H 0.02093 0.48628 0.88631 0.0
H275 H 0.94966 0.44104 0.88397 0.0
H276 H 0.96282 0.38723 0.83821 0.0
H277 H 0.03434 0.43145 0.84095 0.0
H278 H 1.00079 0.42255 0.80295 0.0
H279 H 0.02743 0.61343 0.76927 0.0
H280 H 0.12442 0.66429 0.7819 0.0
H281 H 0.103 0.53633 0.84716 0.0
C282 C 0.88534 0.43053 0.82527 0.0
C283 C 0.84634 0.43694 0.80838 0.0
C284 C 0.86296 0.47873 0.78518 0.0
C285 C 0.9173 0.51586 0.78022 0.0
C286 C 0.9548 0.51043 0.79842 0.0
C287 C 0.93986 0.46807 0.81986 0.0
C288 C 0.9885 0.47351 0.8374 0.0
C289 C 0.98363 0.47874 0.87394 0.0
C290 C 0.99712 0.42585 0.82938 0.0
C291 C 0.03247 0.52601 0.82303 0.0
C292 C 0.01206 0.54687 0.80082 0.0
C293 C 0.04419 0.59697 0.78611 0.0
C294 C 0.09903 0.62585 0.79365 0.0
C295 C 0.12119 0.60415 0.81533 0.0
C296 C 0.08728 0.55367 0.83023 0.0
H297 H 0.11555 0.54322 0.52076 0.0
H298 H 0.1347 0.56035 0.41725 0.0
H299 H 0.03841 0.52945 0.41128 0.0
H300 H 0.97955 0.4169 0.51663 0.0
H301 H 0.9563 0.43531 0.5521 0.0
H302 H 0.02626 0.45599 0.54793 0.0
H303 H 0.05058 0.55547 0.55682 0.0
H304 H 0.98069 0.53535 0.56006 0.0
H305 H 0.02244 0.58522 0.53065 0.0
H306 H 0.94486 0.51124 0.41712 0.0
H307 H 0.85154 0.48232 0.43275 0.0
H308 H 0.8875 0.4637 0.53161 0.0
C309 C 0.09884 0.53845 0.49685 0.0
C310 C 0.13233 0.55476 0.4694 0.0
C311 C 0.10965 0.54898 0.43851 0.0
C312 C 0.05508 0.53144 0.4349 0.0
C313 C 0.02347 0.5184 0.46246 0.0
C314 C 0.04379 0.51938 0.49274 0.0
C315 C 1.00027 0.50197 0.51817 0.0
C316 C 0.98997 0.44941 0.53468 0.0
C317 C 0.01437 0.54721 0.54288 0.0
C318 C 0.95297 0.49272 0.49749 0.0
C319 C 0.96777 0.50357 0.46551 0.0
C320 C 0.93243 0.5016 0.44198 0.0
C321 C 0.87985 0.48599 0.45112 0.0
C322 C 0.86283 0.4714 0.48333 0.0
C323 C 0.89988 0.47507 0.50687 0.0
H324 H 0.45029 0.89535 0.83348 0.0
H325 H 0.3068 0.90629 0.81858 0.0
H326 H 0.36237 1.00544 0.81402 0.0
H327 H 0.5213 0.01524 0.88131 0.0
H328 H 0.58602 0.03519 0.86404 0.0
H329 H 0.53526 0.96475 0.86552 0.0
H330 H 0.54365 0.95753 0.80391 0.0
H331 H 0.5943 0.02805 0.8022 0.0
H332 H 0.53514 1.00283 0.77754 0.0
H333 H 0.4317 0.10251 0.81326 0.0
H334 H 0.51139 0.19326 0.81622 0.0
H335 H 0.61245 0.1221 0.82969 0.0
C336 C 0.4306 0.91865 0.82925 0.0
C337 C 0.37404 0.89297 0.82646 0.0
C338 C 0.34991 0.92491 0.8208 0.0
C339 C 0.38118 0.9813 0.81812 0.0
C340 C 0.43667 1.00529 0.82089 0.0
C341 C 0.46135 0.97518 0.82626 0.0
C342 C 0.52186 0.01156 0.82861 0.0
C343 C 0.5423 1.00637 0.86185 0.0
C344 C 0.55042 0.99925 0.80144 0.0
C345 C 0.52717 0.06688 0.82416 0.0
C346 C 0.47732 0.06195 0.81972 0.0
C347 C 0.47097 0.10689 0.81645 0.0
C348 C 0.51654 0.15829 0.81822 0.0
C349 C 0.56814 0.16476 0.82298 0.0
C350 C 0.57363 0.11834 0.8255 0.0
H351 H 0.52571 0.59678 0.15315 0.0
H352 H 0.36064 0.46935 0.13873 0.0
H353 H 0.38776 0.40097 0.1433 0.0
H354 H 0.58633 0.53188 0.10823 0.0
H355 H 0.64226 0.55364 0.13527 0.0
H356 H 0.61042 0.59381 0.13063 0.0
H357 H 0.59415 0.58932 0.19218 0.0
H358 H 0.62572 0.54893 0.19695 0.0
H359 H 0.55861 0.52434 0.2118 0.0
H360 H 0.43179 0.34467 0.14893 0.0
H361 H 0.49152 0.30603 0.15422 0.0
H362 H 0.62724 0.46827 0.16654 0.0
C363 C 0.49537 0.55457 0.15084 0.0
C364 C 0.44093 0.53904 0.14569 0.0
C365 C 0.40261 0.48298 0.14291 0.0
C366 C 0.41751 0.4434 0.14544 0.0
C367 C 0.47106 0.45986 0.15087 0.0
C368 C 0.50953 0.51402 0.15349 0.0
C369 C 0.56435 0.52024 0.15936 0.0
C370 C 0.60312 0.55176 0.13172 0.0
C371 C 0.58703 0.54731 0.19202 0.0
C372 C 0.55037 0.46135 0.15955 0.0
C373 C 0.49636 0.42714 0.15456 0.0
C374 C 0.47425 0.37106 0.15299 0.0
C375 C 0.50846 0.34938 0.15614 0.0
C376 C 0.5642 0.38368 0.16093 0.0
C377 C 0.58488 0.44043 0.16305 0.0
H378 H 0.764 0.36622 0.93105 0.0
H379 H 0.61604 0.36438 0.91062 0.0
H380 H 0.60968 0.38597 0.96729 0.0
H381 H 0.71588 0.28966 -0.00331 0.0
H382 H 0.77683 0.32011 0.01998 0.0
H383 H 0.78028 0.32384 0.97692 0.0
H384 H 0.83668 0.4292 0.97931 0.0
H385 H 0.83452 0.42371 0.02252 0.0
H386 H 0.81244 0.46556 0.00286 0.0
H387 H 0.60901 0.38966 0.02534 0.0
H388 H 0.60383 0.35824 0.08106 0.0
H389 H 0.7478 0.3491 0.06647 0.0
C390 C 0.73178 0.37298 0.9385 0.0
C391 C 0.69257 0.36787 0.91637 0.0
C392 C 0.6484 0.37226 0.92697 0.0
C393 C 0.64451 0.38435 0.9591 0.0
C394 C 0.68428 0.39004 0.98049 0.0
C395 C 0.72662 0.38345 0.97075 0.0
C396 C 0.75636 0.3783 -0.00069 0.0
C397 C 0.7573 0.3248 -0.00186 0.0
C398 C 0.81338 0.42717 0.00112 0.0
C399 C 0.72174 0.3789 0.02659 0.0
C400 C 0.68205 0.38849 0.01518 0.0
C401 C 0.6407 0.38372 0.03477 0.0
C402 C 0.63801 0.36585 0.06633 0.0
C403 C 0.67655 0.35332 0.07798 0.0
C404 C 0.71968 0.36124 0.0583 0.0
H405 H 0.29311 0.59521 0.24023 0.0
H406 H 0.45339 0.73563 0.23594 0.0
H407 H 0.44879 0.75128 0.2937 0.0
H408 H 0.23953 0.65113 0.30052 0.0
H409 H 0.20047 0.58704 0.32063 0.0
H410 H 0.21316 0.58909 0.278 0.0
H411 H 0.2543 0.52732 0.28566 0.0
H412 H 0.24097 0.52406 0.32812 0.0
H413 H 0.30812 0.54652 0.31406 0.0
H414 H 0.43144 0.74662 0.35261 0.0
H415 H 0.40192 0.72005 0.40896 0.0
H416 H 0.25306 0.58452 0.37528 0.0
C417 C 0.32701 0.62962 0.25131 0.0
C418 C 0.3736 0.664 0.23342 0.0
C419 C 0.4172 0.70845 0.24902 0.0
C420 C 0.41493 0.71801 0.28184 0.0
C421 C 0.36868 0.68311 0.29878 0.0
C422 C 0.32545 0.63985 0.28411 0.0
C423 C 0.28205 0.60631 0.30831 0.0
C424 C 0.23076 0.60854 0.30145 0.0
C425 C 0.27074 0.5476 0.30908 0.0
C426 C 0.30866 0.63618 0.33899 0.0
C427 C 0.35824 0.68097 0.33291 0.0
C428 C 0.39212 0.71252 0.35765 0.0
C429 C 0.37501 0.69749 0.38948 0.0
C430 C 0.3244 0.6519 0.39605 0.0
C431 C 0.29102 0.62083 0.37057 0.0
H432 H 0.66247 0.30505 0.73138 0.0
H433 H 0.63226 0.43677 0.75148 0.0
H434 H 0.62608 0.44923 0.69321 0.0
H435 H 0.74855 0.36619 0.66889 0.0
H436 H 0.72701 0.30645 0.64469 0.0
H437 H 0.71902 0.30049 0.68767 0.0
H438 H 0.61718 0.2339 0.68128 0.0
H439 H 0.6249 0.23891 0.63814 0.0
H440 H 0.5773 0.2533 0.65739 0.0
H441 H 0.63594 0.45596 0.63389 0.0
H442 H 0.65778 0.4549 0.57687 0.0
H443 H 0.68302 0.31932 0.59503 0.0
C444 C 0.6528 0.3354 0.72366 0.0
C445 C 0.64765 0.36984 0.74603 0.0
C446 C 0.63624 0.40985 0.73481 0.0
C447 C 0.63251 0.41712 0.70177 0.0
C448 C 0.63999 0.38388 0.68038 0.0
C449 C 0.64934 0.34342 0.69083 0.0
C450 C 0.66132 0.3169 0.66296 0.0
C451 C 0.71729 0.32291 0.66627 0.0
C452 C 0.61755 0.25721 0.65976 0.0
C453 C 0.65934 0.35025 0.63528 0.0
C454 C 0.64624 0.38811 0.64586 0.0
C455 C 0.6454 0.42596 0.62522 0.0
C456 C 0.65836 0.42524 0.59288 0.0
C457 C 0.67234 0.38705 0.58144 0.0
C458 C 0.67214 0.34869 0.60295 0.0
H459 H 0.36177 0.67454 0.902 0.0
H460 H 0.20566 0.65707 0.91992 0.0
H461 H 0.21137 0.63678 0.97694 0.0
H462 H 0.34974 0.56811 0.9609 0.0
H463 H 0.41802 0.60788 0.97448 0.0
H464 H 0.40173 0.61436 0.93362 0.0
H465 H 0.44096 0.71606 0.939 0.0
H466 H 0.46027 0.71245 0.97967 0.0
H467 H 0.41925 0.74235 0.97152 0.0
H468 H 0.24648 0.64842 0.03242 0.0
H469 H 0.29755 0.66287 0.08264 0.0
H470 H 0.42124 0.65202 0.03027 0.0
C471 C 0.32766 0.66336 0.91761 0.0
C472 C 0.28267 0.666 0.9066 0.0
C473 C 0.23996 0.65426 0.92798 0.0
C474 C 0.2429 0.64285 0.96035 0.0
C475 C 0.28866 0.6428 0.97091 0.0
C476 C 0.32964 0.65093 0.95011 0.0
C477 C 0.3764 0.65369 0.96857 0.0
C478 C 0.38694 0.60812 0.95878 0.0
C479 C 0.42719 0.70944 0.96444 0.0
C480 C 0.35516 0.64586 0.00265 0.0
C481 C 0.30528 0.64159 0.00353 0.0
C482 C 0.28321 0.64678 0.03222 0.0
C483 C 0.31172 0.65372 0.06077 0.0
C484 C 0.35943 0.65124 0.0608 0.0
C485 C 0.38221 0.64891 0.03119 0.0
H486 H 0.76156 0.42097 0.39107 0.0
H487 H 0.60601 0.29147 0.42104 0.0
H488 H 0.59351 0.24799 0.36776 0.0
H489 H 0.72188 0.43834 0.3183 0.0
H490 H 0.78214 0.45428 0.29645 0.0
H491 H 0.78537 0.46717 0.3389 0.0
H492 H 0.82925 0.40815 0.34849 0.0
H493 H 0.82686 0.39565 0.30581 0.0
H494 H 0.79672 0.33972 0.33364 0.0
H495 H 0.5926 0.22642 0.30989 0.0
H496 H 0.59822 0.2317 0.25088 0.0
H497 H 0.75228 0.37976 0.25722 0.0
C498 C 0.72596 0.38223 0.38666 0.0
C499 C 0.6859 0.35765 0.41035 0.0
C500 C 0.6382 0.30898 0.40354 0.0
C501 C 0.63083 0.2843 0.37338 0.0
C502 C 0.67122 0.30961 0.35034 0.0
C503 C 0.71783 0.35769 0.35661 0.0
C504 C 0.75093 0.38138 0.32644 0.0
C505 C 0.76058 0.43864 0.31964 0.0
C506 C 0.8041 0.3812 0.32873 0.0
C507 C 0.71406 0.34102 0.30179 0.0
C508 C 0.66931 0.29893 0.31625 0.0
C509 C 0.6278 0.25867 0.29833 0.0
C510 C 0.63139 0.26219 0.26476 0.0
C511 C 0.67566 0.30639 0.24939 0.0
C512 C 0.71806 0.34549 0.26826 0.0
H513 H 0.28939 0.62176 0.72191 0.0
H514 H 0.32743 0.7886 0.73354 0.0
H515 H 0.33271 0.80022 0.67489 0.0
H516 H 0.37703 0.64647 0.65226 0.0
H517 H 0.33056 0.58354 0.63315 0.0
H518 H 0.33237 0.58875 0.67639 0.0
H519 H 0.23078 0.55662 0.67705 0.0
H520 H 0.22874 0.55169 0.63383 0.0
H521 H 0.20611 0.59281 0.65367 0.0
H522 H 0.32801 0.79283 0.6152 0.0
H523 H 0.3192 0.76783 0.55777 0.0
H524 H 0.28629 0.60685 0.58442 0.0
C525 C 0.29951 0.66092 0.71217 0.0
C526 C 0.30779 0.70409 0.73251 0.0
C527 C 0.32071 0.75467 0.71863 0.0
C528 C 0.32384 0.76183 0.68526 0.0
C529 C 0.31438 0.71825 0.66594 0.0
C530 C 0.30302 0.66894 0.67878 0.0
C531 C 0.29354 0.62849 0.65244 0.0
C532 C 0.33591 0.61079 0.65363 0.0
C533 C 0.2364 0.57952 0.65437 0.0
C534 C 0.30065 0.66266 0.62292 0.0
C535 C 0.31257 0.71427 0.63128 0.0
C536 C 0.31916 0.75266 0.60827 0.0
C537 C 0.31381 0.738 0.57574 0.0
C538 C 0.30225 0.68549 0.56656 0.0
C539 C 0.29563 0.64749 0.5906 0.0
loop_
_geom_bond_atom_site_label_1
_geom_bond_atom_site_label_2
_geom_bond_distance
_geom_bond_site_symmetry_2
_ccdc_geom_bond_type
Mn0 O5 2.095 . S
Mn0 O15 2.162 . S
Mn0 O16 2.297 . S
Mn0 O24 2.385 . S
Mn0 O25 2.209 . S
Mn0 O26 2.094 . S
Mn1 O6 2.121 . S
Mn1 N8 2.257 . S
Mn1 N17 2.282 . S
Mn1 O25 2.215 . S
Mn1 O27 2.117 . S
C2 O24 1.234 . S
C2 O25 1.283 . S
C3 O15 1.281 . S
C3 O16 1.236 . S
C4 O26 1.240 . S
C4 O27 1.264 . S
O5 Mn0 2.095 . S
O5 C14 1.250 . S
O6 Mn1 2.121 . S
O6 C14 1.258 . S
C7 N8 1.326 . S
C7 C11 1.460 . S
C7 H13 0.929 . S
N8 Mn1 2.257 . S
N8 C7 1.326 . S
N8 C12 1.362 . S
C9 C10 1.258 . S
C9 C12 1.431 . S
C9 C29 1.449 . S
C10 C9 1.258 . S
C10 C11 1.477 . S
C10 H30 0.931 . S
C11 C7 1.460 . S
C11 C10 1.477 . S
C11 H31 0.930 . S
C12 N8 1.362 . S
C12 C9 1.431 . S
C12 C22 1.476 . S
H13 C7 0.929 . S
C14 O5 1.250 . S
C14 O6 1.258 . S
O15 Mn0 2.162 . S
O15 C3 1.281 . S
O16 Mn0 2.297 . S
O16 C3 1.236 . S
N17 Mn1 2.282 . S
N17 C18 1.328 . S
N17 C22 1.318 . S
C18 N17 1.328 . S
C18 C19 1.457 . S
C18 H23 0.929 . S
C19 C18 1.457 . S
C19 C20 1.291 . S
C19 H32 0.931 . S
C20 C19 1.291 . S
C20 C21 1.373 . S
C20 H33 0.929 . S
C21 C20 1.373 . S
C21 C22 1.396 . S
C21 C28 1.403 . S
C22 C12 1.476 . S
C22 N17 1.318 . S
C22 C21 1.396 . S
H23 C18 0.929 . S
O24 Mn0 2.385 . S
O24 C2 1.234 . S
O25 Mn0 2.209 . S
O25 Mn1 2.215 . S
O25 C2 1.283 . S
O26 Mn0 2.094 . S
O26 C4 1.240 . S
O27 Mn1 2.117 . S
O27 C4 1.264 . S
C28 C21 1.403 . S
C28 C29 1.399 . S
C28 H34 0.929 . S
C29 C9 1.449 . S
C29 C28 1.399 . S
C29 H35 0.930 . S
H30 C10 0.931 . S
H31 C11 0.930 . S
H32 C19 0.931 . S
H33 C20 0.929 . S
H34 C28 0.929 . S
H35 C29 0.930 . S
Mn36 O41 2.095 . S
Mn36 O51 2.162 . S
Mn36 O52 2.297 . S
Mn36 O60 2.385 . S
Mn36 O61 2.209 . S
Mn36 O62 2.094 . S
Mn37 O42 2.121 . S
Mn37 N44 2.257 . S
Mn37 N53 2.282 . S
Mn37 O61 2.215 . S
Mn37 O63 2.117 . S
C38 O60 1.234 . S
C38 O61 1.283 . S
C39 O51 1.281 . S
C39 O52 1.236 . S
C40 O62 1.240 . S
C40 O63 1.264 . S
O41 Mn36 2.095 . S
O41 C50 1.250 . S
O42 Mn37 2.121 . S
O42 C50 1.258 . S
C43 N44 1.326 . S
C43 C47 1.460 . S
C43 H49 0.929 . S
N44 Mn37 2.257 . S
N44 C43 1.326 . S
N44 C48 1.362 . S
C45 C46 1.258 . S
C45 C48 1.431 . S
C45 C65 1.449 . S
C46 C45 1.258 . S
C46 C47 1.477 . S
C46 H66 0.931 . S
C47 C43 1.460 . S
C47 C46 1.477 . S
C47 H67 0.930 . S
C48 N44 1.362 . S
C48 C45 1.431 . S
C48 C58 1.476 . S
H49 C43 0.929 . S
C50 O41 1.250 . S
C50 O42 1.258 . S
O51 Mn36 2.162 . S
O51 C39 1.281 . S
O52 Mn36 2.297 . S
O52 C39 1.236 . S
N53 Mn37 2.282 . S
N53 C54 1.328 . S
N53 C58 1.318 . S
C54 N53 1.328 . S
C54 C55 1.457 . S
C54 H59 0.929 . S
C55 C54 1.457 . S
C55 C56 1.291 . S
C55 H68 0.931 . S
C56 C55 1.291 . S
C56 C57 1.373 . S
C56 H69 0.929 . S
C57 C56 1.373 . S
C57 C58 1.396 . S
C57 C64 1.403 . S
C58 C48 1.476 . S
C58 N53 1.318 . S
C58 C57 1.396 . S
H59 C54 0.929 . S
O60 Mn36 2.385 . S
O60 C38 1.234 . S
O61 Mn36 2.209 . S
O61 Mn37 2.215 . S
O61 C38 1.283 . S
O62 Mn36 2.094 . S
O62 C40 1.240 . S
O63 Mn37 2.117 . S
O63 C40 1.264 . S
C64 C57 1.403 . S
C64 C65 1.399 . S
C64 H70 0.929 . S
C65 C45 1.449 . S
C65 C64 1.399 . S
C65 H71 0.930 . S
H66 C46 0.931 . S
H67 C47 0.930 . S
H68 C55 0.931 . S
H69 C56 0.929 . S
H70 C64 0.929 . S
H71 C65 0.930 . S
Mn72 O77 2.095 . S
Mn72 O87 2.162 . S
Mn72 O88 2.297 . S
Mn72 O96 2.385 . S
Mn72 O97 2.209 . S
Mn72 O98 2.094 . S
Mn73 O78 2.121 . S
Mn73 N80 2.257 . S
Mn73 N89 2.282 . S
Mn73 O97 2.215 . S
Mn73 O99 2.117 . S
C74 O96 1.234 . S
C74 O97 1.283 . S
C75 O87 1.281 . S
C75 O88 1.236 . S
C76 O98 1.240 . S
C76 O99 1.264 . S
O77 Mn72 2.095 . S
O77 C86 1.250 . S
O78 Mn73 2.121 . S
O78 C86 1.258 . S
C79 N80 1.326 . S
C79 C83 1.460 . S
C79 H85 0.929 . S
N80 Mn73 2.257 . S
N80 C79 1.326 . S
N80 C84 1.362 . S
C81 C82 1.258 . S
C81 C84 1.431 . S
C81 C101 1.449 . S
C82 C81 1.258 . S
C82 C83 1.477 . S
C82 H102 0.931 . S
C83 C79 1.460 . S
C83 C82 1.477 . S
C83 H103 0.930 . S
C84 N80 1.362 . S
C84 C81 1.431 . S
C84 C94 1.476 . S
H85 C79 0.929 . S
C86 O77 1.250 . S
C86 O78 1.258 . S
O87 Mn72 2.162 . S
O87 C75 1.281 . S
O88 Mn72 2.297 . S
O88 C75 1.236 . S
N89 Mn73 2.282 . S
N89 C90 1.328 . S
N89 C94 1.318 . S
C90 N89 1.328 . S
C90 C91 1.457 . S
C90 H95 0.929 . S
C91 C90 1.457 . S
C91 C92 1.291 . S
C91 H104 0.931 . S
C92 C91 1.291 . S
C92 C93 1.373 . S
C92 H105 0.929 . S
C93 C92 1.373 . S
C93 C94 1.396 . S
C93 C100 1.403 . S
C94 C84 1.476 . S
C94 N89 1.318 . S
C94 C93 1.396 . S
H95 C90 0.929 . S
O96 Mn72 2.385 . S
O96 C74 1.234 . S
O97 Mn72 2.209 . S
O97 Mn73 2.215 . S
O97 C74 1.283 . S
O98 Mn72 2.094 . S
O98 C76 1.240 . S
O99 Mn73 2.117 . S
O99 C76 1.264 . S
C100 C93 1.403 . S
C100 C101 1.399 . S
C100 H106 0.929 . S
C101 C81 1.449 . S
C101 C100 1.399 . S
C101 H107 0.930 . S
H102 C82 0.931 . S
H103 C83 0.930 . S
H104 C91 0.931 . S
H105 C92 0.929 . S
H106 C100 0.929 . S
H107 C101 0.930 . S
Mn108 O113 2.095 . S
Mn108 O123 2.162 . S
Mn108 O124 2.297 . S
Mn108 O132 2.385 . S
Mn108 O133 2.209 . S
Mn108 O134 2.094 . S
Mn109 O114 2.121 . S
Mn109 N116 2.257 . S
Mn109 N125 2.282 . S
Mn109 O133 2.215 . S
Mn109 O135 2.117 . S
C110 O132 1.234 . S
C110 O133 1.283 . S
C111 O123 1.281 . S
C111 O124 1.236 . S
C112 O134 1.240 . S
C112 O135 1.264 . S
O113 Mn108 2.095 . S
O113 C122 1.250 . S
O114 Mn109 2.121 . S
O114 C122 1.258 . S
C115 N116 1.326 . S
C115 C119 1.460 . S
C115 H121 0.929 . S
N116 Mn109 2.257 . S
N116 C115 1.326 . S
N116 C120 1.362 . S
C117 C118 1.258 . S
C117 C120 1.431 . S
C117 C137 1.449 . S
C118 C117 1.258 . S
C118 C119 1.477 . S
C118 H138 0.931 . S
C119 C115 1.460 . S
C119 C118 1.477 . S
C119 H139 0.930 . S
C120 N116 1.362 . S
C120 C117 1.431 . S
C120 C130 1.476 . S
H121 C115 0.929 . S
C122 O113 1.250 . S
C122 O114 1.258 . S
O123 Mn108 2.162 . S
O123 C111 1.281 . S
O124 Mn108 2.297 . S
O124 C111 1.236 . S
N125 Mn109 2.282 . S
N125 C126 1.328 . S
N125 C130 1.318 . S
C126 N125 1.328 . S
C126 C127 1.457 . S
C126 H131 0.929 . S
C127 C126 1.457 . S
C127 C128 1.291 . S
C127 H140 0.931 . S
C128 C127 1.291 . S
C128 C129 1.373 . S
C128 H141 0.929 . S
C129 C128 1.373 . S
C129 C130 1.396 . S
C129 C136 1.403 . S
C130 C120 1.476 . S
C130 N125 1.318 . S
C130 C129 1.396 . S
H131 C126 0.929 . S
O132 Mn108 2.385 . S
O132 C110 1.234 . S
O133 Mn108 2.209 . S
O133 Mn109 2.215 . S
O133 C110 1.283 . S
O134 Mn108 2.094 . S
O134 C112 1.240 . S
O135 Mn109 2.117 . S
O135 C112 1.264 . S
C136 C129 1.403 . S
C136 C137 1.399 . S
C136 H142 0.929 . S
C137 C117 1.449 . S
C137 C136 1.399 . S
C137 H143 0.930 . S
H138 C118 0.931 . S
H139 C119 0.930 . S
H140 C127 0.931 . S
H141 C128 0.929 . S
H142 C136 0.929 . S
H143 C137 0.930 . S
Mn144 O149 2.095 . S
Mn144 O159 2.162 . S
Mn144 O160 2.297 . S
Mn144 O168 2.385 . S
Mn144 O169 2.209 . S
Mn144 O170 2.094 . S
Mn145 O150 2.121 . S
Mn145 N152 2.257 . S
Mn145 N161 2.282 . S
Mn145 O169 2.215 . S
Mn145 O171 2.117 . S
C146 O168 1.234 . S
C146 O169 1.283 . S
C147 O159 1.281 . S
C147 O160 1.236 . S
C148 O170 1.240 . S
C148 O171 1.264 . S
O149 Mn144 2.095 . S
O149 C158 1.250 . S
O150 Mn145 2.121 . S
O150 C158 1.258 . S
C151 N152 1.326 . S
C151 C155 1.460 . S
C151 H157 0.929 . S
N152 Mn145 2.257 . S
N152 C151 1.326 . S
N152 C156 1.362 . S
C153 C154 1.258 . S
C153 C156 1.431 . S
C153 C173 1.449 . S
C154 C153 1.258 . S
C154 C155 1.477 . S
C154 H174 0.931 . S
C155 C151 1.460 . S
C155 C154 1.477 . S
C155 H175 0.930 . S
C156 N152 1.362 . S
C156 C153 1.431 . S
C156 C166 1.476 . S
H157 C151 0.929 . S
C158 O149 1.250 . S
C158 O150 1.258 . S
O159 Mn144 2.162 . S
O159 C147 1.281 . S
O160 Mn144 2.297 . S
O160 C147 1.236 . S
N161 Mn145 2.282 . S
N161 C162 1.328 . S
N161 C166 1.318 . S
C162 N161 1.328 . S
C162 C163 1.457 . S
C162 H167 0.929 . S
C163 C162 1.457 . S
C163 C164 1.291 . S
C163 H176 0.931 . S
C164 C163 1.291 . S
C164 C165 1.373 . S
C164 H177 0.929 . S
C165 C164 1.373 . S
C165 C166 1.396 . S
C165 C172 1.403 . S
C166 C156 1.476 . S
C166 N161 1.318 . S
C166 C165 1.396 . S
H167 C162 0.929 . S
O168 Mn144 2.385 . S
O168 C146 1.234 . S
O169 Mn144 2.209 . S
O169 Mn145 2.215 . S
O169 C146 1.283 . S
O170 Mn144 2.094 . S
O170 C148 1.240 . S
O171 Mn145 2.117 . S
O171 C148 1.264 . S
C172 C165 1.403 . S
C172 C173 1.399 . S
C172 H178 0.929 . S
C173 C153 1.449 . S
C173 C172 1.399 . S
C173 H179 0.930 . S
H174 C154 0.931 . S
H175 C155 0.930 . S
H176 C163 0.931 . S
H177 C164 0.929 . S
H178 C172 0.929 . S
H179 C173 0.930 . S
Mn180 O185 2.095 . S
Mn180 O195 2.162 . S
Mn180 O196 2.297 . S
Mn180 O204 2.385 . S
Mn180 O205 2.209 . S
Mn180 O206 2.094 . S
Mn181 O186 2.121 . S
Mn181 N188 2.257 . S
Mn181 N197 2.282 . S
Mn181 O205 2.215 . S
Mn181 O207 2.117 . S
C182 O204 1.234 . S
C182 O205 1.283 . S
C183 O195 1.281 . S
C183 O196 1.236 . S
C184 O206 1.240 . S
C184 O207 1.264 . S
O185 Mn180 2.095 . S
O185 C194 1.250 . S
O186 Mn181 2.121 . S
O186 C194 1.258 . S
C187 N188 1.326 . S
C187 C191 1.460 . S
C187 H193 0.929 . S
N188 Mn181 2.257 . S
N188 C187 1.326 . S
N188 C192 1.362 . S
C189 C190 1.258 . S
C189 C192 1.431 . S
C189 C209 1.449 . S
C190 C189 1.258 . S
C190 C191 1.477 . S
C190 H210 0.931 . S
C191 C187 1.460 . S
C191 C190 1.477 . S
C191 H211 0.930 . S
C192 N188 1.362 . S
C192 C189 1.431 . S
C192 C202 1.476 . S
H193 C187 0.929 . S
C194 O185 1.250 . S
C194 O186 1.258 . S
O195 Mn180 2.162 . S
O195 C183 1.281 . S
O196 Mn180 2.297 . S
O196 C183 1.236 . S
N197 Mn181 2.282 . S
N197 C198 1.328 . S
N197 C202 1.318 . S
C198 N197 1.328 . S
C198 C199 1.457 . S
C198 H203 0.929 . S
C199 C198 1.457 . S
C199 C200 1.291 . S
C199 H212 0.931 . S
C200 C199 1.291 . S
C200 C201 1.373 . S
C200 H213 0.929 . S
C201 C200 1.373 . S
C201 C202 1.396 . S
C201 C208 1.403 . S
C202 C192 1.476 . S
C202 N197 1.318 . S
C202 C201 1.396 . S
H203 C198 0.929 . S
O204 Mn180 2.385 . S
O204 C182 1.234 . S
O205 Mn180 2.209 . S
O205 Mn181 2.215 . S
O205 C182 1.283 . S
O206 Mn180 2.094 . S
O206 C184 1.240 . S
O207 Mn181 2.117 . S
O207 C184 1.264 . S
C208 C201 1.403 . S
C208 C209 1.399 . S
C208 H214 0.929 . S
C209 C189 1.449 . S
C209 C208 1.399 . S
C209 H215 0.930 . S
H210 C190 0.931 . S
H211 C191 0.930 . S
H212 C199 0.931 . S
H213 C200 0.929 . S
H214 C208 0.929 . S
H215 C209 0.930 . S
H216 C228 0.930 . S
H217 C230 0.930 . S
H218 C231 0.930 . S
H219 C235 0.959 . S
H220 C235 0.959 . S
H221 C235 0.961 1_545 S
H222 C236 0.950 1_545 S
H223 C236 0.969 . S
H224 C236 0.964 1_545 S
H225 C239 0.929 . S
H226 C240 0.931 . S
H227 C242 0.930 . S
C228 H216 0.930 . S
C228 C229 1.399 . S
C228 C233 1.399 . S
C229 C228 1.399 . S
C229 C230 1.376 . S
C230 H217 0.930 . S
C230 C229 1.376 . S
C230 C231 1.388 . S
C231 H218 0.930 . S
C231 C230 1.388 . S
C231 C232 1.390 . S
C232 C231 1.390 . S
C232 C233 1.394 . S
C232 C238 1.465 1_545 S
C233 C228 1.399 . S
C233 C232 1.394 . S
C233 C234 1.516 1_545 S
C234 C233 1.516 1_565 S
C234 C235 1.502 . S
C234 C236 1.560 . S
C234 C237 1.526 . S
C235 H219 0.959 . S
C235 H220 0.959 . S
C235 H221 0.961 1_565 S
C235 C234 1.502 . S
C236 H222 0.950 1_565 S
C236 H223 0.969 . S
C236 H224 0.964 1_565 S
C236 C234 1.560 . S
C237 C234 1.526 . S
C237 C238 1.396 . S
C237 C242 1.390 . S
C238 C232 1.465 1_565 S
C238 C237 1.396 . S
C238 C239 1.399 . S
C239 H225 0.929 . S
C239 C238 1.399 . S
C239 C240 1.385 . S
C240 H226 0.931 . S
C240 C239 1.385 . S
C240 C241 1.389 . S
C241 C240 1.389 . S
C241 C242 1.387 . S
C242 H227 0.930 . S
C242 C237 1.390 . S
C242 C241 1.387 . S
H243 C255 0.930 . S
H244 C257 0.930 . S
H245 C258 0.930 . S
H246 C262 0.959 . S
H247 C262 0.959 . S
H248 C262 0.961 . S
H249 C263 0.960 . S
H250 C263 0.961 . S
H251 C263 0.959 . S
H252 C266 0.929 . S
H253 C267 0.931 . S
H254 C269 0.930 . S
C255 H243 0.930 . S
C255 C256 1.399 . S
C255 C260 1.399 . S
C256 C255 1.399 . S
C256 C257 1.376 . S
C257 H244 0.930 . S
C257 C256 1.376 . S
C257 C258 1.388 . S
C258 H245 0.930 . S
C258 C257 1.388 . S
C258 C259 1.390 . S
C259 C258 1.390 . S
C259 C260 1.394 . S
C259 C265 1.465 . S
C260 C255 1.399 . S
C260 C259 1.394 . S
C260 C261 1.516 . S
C261 C260 1.516 . S
C261 C262 1.502 . S
C261 C263 1.561 . S
C261 C264 1.526 . S
C262 H246 0.959 . S
C262 H247 0.959 . S
C262 H248 0.961 . S
C262 C261 1.502 . S
C263 H249 0.960 . S
C263 H250 0.961 . S
C263 H251 0.959 . S
C263 C261 1.561 . S
C264 C261 1.526 . S
C264 C265 1.396 . S
C264 C269 1.390 . S
C265 C259 1.465 . S
C265 C264 1.396 . S
C265 C266 1.399 . S
C266 H252 0.929 . S
C266 C265 1.399 . S
C266 C267 1.385 . S
C267 H253 0.931 . S
C267 C266 1.385 . S
C267 C268 1.389 . S
C268 C267 1.389 . S
C268 C269 1.387 . S
C269 H254 0.930 . S
C269 C264 1.390 . S
C269 C268 1.387 . S
H270 C282 0.930 . S
H271 C284 0.930 . S
H272 C285 0.930 . S
H273 C289 0.959 1_655 S
H274 C289 0.959 . S
H275 C289 0.961 1_655 S
H276 C290 0.960 1_655 S
H277 C290 0.961 . S
H278 C290 0.959 . S
H279 C293 0.929 . S
H280 C294 0.931 . S
H281 C296 0.930 . S
C282 H270 0.930 . S
C282 C283 1.399 . S
C282 C287 1.399 . S
C283 C282 1.399 . S
C283 C284 1.376 . S
C284 H271 0.930 . S
C284 C283 1.376 . S
C284 C285 1.388 . S
C285 H272 0.930 . S
C285 C284 1.388 . S
C285 C286 1.390 . S
C286 C285 1.390 . S
C286 C287 1.394 . S
C286 C292 1.465 1_655 S
C287 C282 1.399 . S
C287 C286 1.394 . S
C287 C288 1.516 1_655 S
C288 C287 1.516 1_455 S
C288 C289 1.502 . S
C288 C290 1.561 . S
C288 C291 1.526 . S
C289 H273 0.959 1_455 S
C289 H274 0.959 . S
C289 H275 0.961 1_455 S
C289 C288 1.502 . S
C290 H276 0.960 1_455 S
C290 H277 0.961 . S
C290 H278 0.959 . S
C290 C288 1.561 . S
C291 C288 1.526 . S
C291 C292 1.396 . S
C291 C296 1.390 . S
C292 C286 1.465 1_455 S
C292 C291 1.396 . S
C292 C293 1.399 . S
C293 H279 0.929 . S
C293 C292 1.399 . S
C293 C294 1.385 . S
C294 H280 0.931 . S
C294 C293 1.385 . S
C294 C295 1.389 . S
C295 C294 1.389 . S
C295 C296 1.387 . S
C296 H281 0.930 . S
C296 C291 1.390 . S
C296 C295 1.387 . S
H297 C309 0.930 . S
H298 C311 0.930 . S
H299 C312 0.930 . S
H300 C316 0.959 . S
H301 C316 0.959 . S
H302 C316 0.961 1_455 S
H303 C317 0.960 . S
H304 C317 0.961 1_655 S
H305 C317 0.959 . S
H306 C320 0.929 . S
H307 C321 0.931 . S
H308 C323 0.930 . S
C309 H297 0.930 . S
C309 C310 1.399 . S
C309 C314 1.399 . S
C310 C309 1.399 . S
C310 C311 1.376 . S
C311 H298 0.930 . S
C311 C310 1.376 . S
C311 C312 1.388 . S
C312 H299 0.930 . S
C312 C311 1.388 . S
C312 C313 1.390 . S
C313 C312 1.390 . S
C313 C314 1.394 . S
C313 C319 1.465 1_455 S
C314 C309 1.399 . S
C314 C313 1.394 . S
C314 C315 1.516 1_455 S
C315 C314 1.516 1_655 S
C315 C316 1.502 . S
C315 C317 1.561 1_655 S
C315 C318 1.526 . S
C316 H300 0.959 . S
C316 H301 0.959 . S
C316 H302 0.961 1_655 S
C316 C315 1.502 . S
C317 H303 0.960 . S
C317 H304 0.961 1_455 S
C317 H305 0.959 . S
C317 C315 1.561 1_455 S
C318 C315 1.526 . S
C318 C319 1.396 . S
C318 C323 1.390 . S
C319 C313 1.465 1_655 S
C319 C318 1.396 . S
C319 C320 1.399 . S
C320 H306 0.929 . S
C320 C319 1.399 . S
C320 C321 1.385 . S
C321 H307 0.931 . S
C321 C320 1.385 . S
C321 C322 1.389 . S
C322 C321 1.389 . S
C322 C323 1.387 . S
C323 H308 0.930 . S
C323 C318 1.390 . S
C323 C322 1.387 . S
H324 C336 0.930 . S
H325 C338 0.930 . S
H326 C339 0.930 . S
H327 C343 0.959 . S
H328 C343 0.959 1_545 S
H329 C343 0.961 . S
H330 C344 0.960 1_565 S
H331 C344 0.961 . S
H332 C344 0.959 . S
H333 C347 0.929 . S
H334 C348 0.931 . S
H335 C350 0.930 . S
C336 H324 0.930 . S
C336 C337 1.399 . S
C336 C341 1.399 . S
C337 C336 1.399 . S
C337 C338 1.376 . S
C338 H325 0.930 . S
C338 C337 1.376 . S
C338 C339 1.388 . S
C339 H326 0.930 . S
C339 C338 1.388 . S
C339 C340 1.390 . S
C340 C339 1.390 . S
C340 C341 1.394 . S
C340 C346 1.465 1_565 S
C341 C336 1.399 . S
C341 C340 1.394 . S
C341 C342 1.516 . S
C342 C341 1.516 . S
C342 C343 1.502 . S
C342 C344 1.561 1_565 S
C342 C345 1.526 1_565 S
C343 H327 0.959 . S
C343 H328 0.959 1_565 S
C343 H329 0.961 . S
C343 C342 1.502 . S
C344 H330 0.960 1_545 S
C344 H331 0.961 . S
C344 H332 0.959 . S
C344 C342 1.561 1_545 S
C345 C342 1.526 1_545 S
C345 C346 1.396 . S
C345 C350 1.390 . S
C346 C340 1.465 1_545 S
C346 C345 1.396 . S
C346 C347 1.399 . S
C347 H333 0.929 . S
C347 C346 1.399 . S
C347 C348 1.385 . S
C348 H334 0.931 . S
C348 C347 1.385 . S
C348 C349 1.389 . S
C349 C348 1.389 . S
C349 C350 1.387 . S
C350 H335 0.930 . S
C350 C345 1.390 . S
C350 C349 1.387 . S
H351 C363 0.930 . S
H352 C365 0.930 . S
H353 C366 0.930 . S
H354 C370 0.959 . S
H355 C370 0.959 . S
H356 C370 0.961 . S
H357 C371 0.960 . S
H358 C371 0.961 . S
H359 C371 0.959 . S
H360 C374 0.929 . S
H361 C375 0.931 . S
H362 C377 0.930 . S
C363 H351 0.930 . S
C363 C364 1.399 . S
C363 C368 1.399 . S
C364 C363 1.399 . S
C364 C365 1.376 . S
C365 H352 0.930 . S
C365 C364 1.376 . S
C365 C366 1.388 . S
C366 H353 0.930 . S
C366 C365 1.388 . S
C366 C367 1.390 . S
C367 C366 1.390 . S
C367 C368 1.394 . S
C367 C373 1.465 . S
C368 C363 1.399 . S
C368 C367 1.394 . S
C368 C369 1.516 . S
C369 C368 1.516 . S
C369 C370 1.502 . S
C369 C371 1.561 . S
C369 C372 1.526 . S
C370 H354 0.959 . S
C370 H355 0.959 . S
C370 H356 0.961 . S
C370 C369 1.502 . S
C371 H357 0.960 . S
C371 H358 0.961 . S
C371 H359 0.959 . S
C371 C369 1.561 . S
C372 C369 1.526 . S
C372 C373 1.396 . S
C372 C377 1.390 . S
C373 C367 1.465 . S
C373 C372 1.396 . S
C373 C374 1.399 . S
C374 H360 0.929 . S
C374 C373 1.399 . S
C374 C375 1.385 . S
C375 H361 0.931 . S
C375 C374 1.385 . S
C375 C376 1.389 . S
C376 C375 1.389 . S
C376 C377 1.387 . S
C377 H362 0.930 . S
C377 C372 1.390 . S
C377 C376 1.387 . S
H378 C390 0.930 . S
H379 C392 0.930 . S
H380 C393 0.930 . S
H381 C397 0.959 1_554 S
H382 C397 0.959 1_554 S
H383 C397 0.961 . S
H384 C398 0.957 1_556 S
H385 C398 0.964 . S
H386 C398 0.959 . S
H387 C401 0.929 . S
H388 C402 0.931 . S
H389 C404 0.930 . S
C390 H378 0.930 . S
C390 C391 1.399 . S
C390 C395 1.399 . S
C391 C390 1.399 . S
C391 C392 1.376 . S
C392 H379 0.930 . S
C392 C391 1.376 . S
C392 C393 1.388 . S
C393 H380 0.930 . S
C393 C392 1.388 . S
C393 C394 1.390 . S
C394 C393 1.390 . S
C394 C395 1.394 . S
C394 C400 1.465 1_556 S
C395 C390 1.399 . S
C395 C394 1.394 . S
C395 C396 1.524 . S
C396 C395 1.524 . S
C396 C397 1.502 . S
C396 C398 1.561 1_556 S
C396 C399 1.518 1_556 S
C397 H381 0.959 1_556 S
C397 H382 0.959 1_556 S
C397 H383 0.961 . S
C397 C396 1.502 . S
C398 H384 0.957 1_554 S
C398 H385 0.964 . S
C398 H386 0.959 . S
C398 C396 1.561 1_554 S
C399 C396 1.518 1_554 S
C399 C400 1.396 . S
C399 C404 1.390 . S
C400 C394 1.465 1_554 S
C400 C399 1.396 . S
C400 C401 1.399 . S
C401 H387 0.929 . S
C401 C400 1.399 . S
C401 C402 1.385 . S
C402 H388 0.931 . S
C402 C401 1.385 . S
C402 C403 1.389 . S
C403 C402 1.389 . S
C403 C404 1.387 . S
C404 H389 0.930 . S
C404 C399 1.390 . S
C404 C403 1.387 . S
H405 C417 0.930 . S
H406 C419 0.930 . S
H407 C420 0.930 . S
H408 C424 0.959 . S
H409 C424 0.959 . S
H410 C424 0.961 . S
H411 C425 0.960 . S
H412 C425 0.961 . S
H413 C425 0.959 . S
H414 C428 0.929 . S
H415 C429 0.931 . S
H416 C431 0.930 . S
C417 H405 0.930 . S
C417 C418 1.399 . S
C417 C422 1.399 . S
C418 C417 1.399 . S
C418 C419 1.376 . S
C419 H406 0.930 . S
C419 C418 1.376 . S
C419 C420 1.388 . S
C420 H407 0.930 . S
C420 C419 1.388 . S
C420 C421 1.390 . S
C421 C420 1.390 . S
C421 C422 1.394 . S
C421 C427 1.465 . S
C422 C417 1.399 . S
C422 C421 1.394 . S
C422 C423 1.516 . S
C423 C422 1.516 . S
C423 C424 1.502 . S
C423 C425 1.561 . S
C423 C426 1.526 . S
C424 H408 0.959 . S
C424 H409 0.959 . S
C424 H410 0.961 . S
C424 C423 1.502 . S
C425 H411 0.960 . S
C425 H412 0.961 . S
C425 H413 0.959 . S
C425 C423 1.561 . S
C426 C423 1.526 . S
C426 C427 1.396 . S
C426 C431 1.390 . S
C427 C421 1.465 . S
C427 C426 1.396 . S
C427 C428 1.399 . S
C428 H414 0.929 . S
C428 C427 1.399 . S
C428 C429 1.385 . S
C429 H415 0.931 . S
C429 C428 1.385 . S
C429 C430 1.389 . S
C430 C429 1.389 . S
C430 C431 1.387 . S
C431 H416 0.930 . S
C431 C426 1.390 . S
C431 C430 1.387 . S
H432 C444 0.930 . S
H433 C446 0.930 . S
H434 C447 0.930 . S
H435 C451 0.959 . S
H436 C451 0.959 . S
H437 C451 0.961 . S
H438 C452 0.960 . S
H439 C452 0.961 . S
H440 C452 0.959 . S
H441 C455 0.929 . S
H442 C456 0.931 . S
H443 C458 0.930 . S
C444 H432 0.930 . S
C444 C445 1.399 . S
C444 C449 1.399 . S
C445 C444 1.399 . S
C445 C446 1.376 . S
C446 H433 0.930 . S
C446 C445 1.376 . S
C446 C447 1.388 . S
C447 H434 0.930 . S
C447 C446 1.388 . S
C447 C448 1.390 . S
C448 C447 1.390 . S
C448 C449 1.394 . S
C448 C454 1.465 . S
C449 C444 1.399 . S
C449 C448 1.394 . S
C449 C450 1.516 . S
C450 C449 1.516 . S
C450 C451 1.502 . S
C450 C452 1.561 . S
C450 C453 1.526 . S
C451 H435 0.959 . S
C451 H436 0.959 . S
C451 H437 0.961 . S
C451 C450 1.502 . S
C452 H438 0.960 . S
C452 H439 0.961 . S
C452 H440 0.959 . S
C452 C450 1.561 . S
C453 C450 1.526 . S
C453 C454 1.396 . S
C453 C458 1.390 . S
C454 C448 1.465 . S
C454 C453 1.396 . S
C454 C455 1.399 . S
C455 H441 0.929 . S
C455 C454 1.399 . S
C455 C456 1.385 . S
C456 H442 0.931 . S
C456 C455 1.385 . S
C456 C457 1.389 . S
C457 C456 1.389 . S
C457 C458 1.387 . S
C458 H443 0.930 . S
C458 C453 1.390 . S
C458 C457 1.387 . S
H459 C471 0.930 . S
H460 C473 0.930 . S
H461 C474 0.930 . S
H462 C478 0.959 . S
H463 C478 0.959 . S
H464 C478 0.961 1_556 S
H465 C479 0.952 1_556 S
H466 C479 0.968 . S
H467 C479 0.959 . S
H468 C482 0.929 . S
H469 C483 0.931 . S
H470 C485 0.930 . S
C471 H459 0.930 . S
C471 C472 1.399 . S
C471 C476 1.399 . S
C472 C471 1.399 . S
C472 C473 1.376 . S
C473 H460 0.930 . S
C473 C472 1.376 . S
C473 C474 1.388 . S
C474 H461 0.930 . S
C474 C473 1.388 . S
C474 C475 1.390 . S
C475 C474 1.390 . S
C475 C476 1.394 . S
C475 C481 1.465 1_556 S
C476 C471 1.399 . S
C476 C475 1.394 . S
C476 C477 1.516 1_556 S
C477 C476 1.516 1_554 S
C477 C478 1.502 . S
C477 C479 1.561 . S
C477 C480 1.526 . S
C478 H462 0.959 . S
C478 H463 0.959 . S
C478 H464 0.961 1_554 S
C478 C477 1.502 . S
C479 H465 0.952 1_554 S
C479 H466 0.968 . S
C479 H467 0.959 . S
C479 C477 1.561 . S
C480 C477 1.526 . S
C480 C481 1.396 . S
C480 C485 1.390 . S
C481 C475 1.465 1_554 S
C481 C480 1.396 . S
C481 C482 1.399 . S
C482 H468 0.929 . S
C482 C481 1.399 . S
C482 C483 1.385 . S
C483 H469 0.931 . S
C483 C482 1.385 . S
C483 C484 1.389 . S
C484 C483 1.389 . S
C484 C485 1.387 . S
C485 H470 0.930 . S
C485 C480 1.390 . S
C485 C484 1.387 . S
H486 C498 0.930 . S
H487 C500 0.930 . S
H488 C501 0.930 . S
H489 C505 0.959 . S
H490 C505 0.959 . S
H491 C505 0.961 . S
H492 C506 0.960 . S
H493 C506 0.961 . S
H494 C506 0.959 . S
H495 C509 0.929 . S
H496 C510 0.931 . S
H497 C512 0.930 . S
C498 H486 0.930 . S
C498 C499 1.399 . S
C498 C503 1.399 . S
C499 C498 1.399 . S
C499 C500 1.376 . S
C500 H487 0.930 . S
C500 C499 1.376 . S
C500 C501 1.388 . S
C501 H488 0.930 . S
C501 C500 1.388 . S
C501 C502 1.390 . S
C502 C501 1.390 . S
C502 C503 1.394 . S
C502 C508 1.465 . S
C503 C498 1.399 . S
C503 C502 1.394 . S
C503 C504 1.516 . S
C504 C503 1.516 . S
C504 C505 1.502 . S
C504 C506 1.561 . S
C504 C507 1.526 . S
C505 H489 0.959 . S
C505 H490 0.959 . S
C505 H491 0.961 . S
C505 C504 1.502 . S
C506 H492 0.960 . S
C506 H493 0.961 . S
C506 H494 0.959 . S
C506 C504 1.561 . S
C507 C504 1.526 . S
C507 C508 1.396 . S
C507 C512 1.390 . S
C508 C502 1.465 . S
C508 C507 1.396 . S
C508 C509 1.399 . S
C509 H495 0.929 . S
C509 C508 1.399 . S
C509 C510 1.385 . S
C510 H496 0.931 . S
C510 C509 1.385 . S
C510 C511 1.389 . S
C511 C510 1.389 . S
C511 C512 1.387 . S
C512 H497 0.930 . S
C512 C507 1.390 . S
C512 C511 1.387 . S
H513 C525 0.930 . S
H514 C527 0.930 . S
H515 C528 0.930 . S
H516 C532 0.959 . S
H517 C532 0.959 . S
H518 C532 0.961 . S
H519 C533 0.960 . S
H520 C533 0.961 . S
H521 C533 0.959 . S
H522 C536 0.929 . S
H523 C537 0.931 . S
H524 C539 0.930 . S
C525 H513 0.930 . S
C525 C526 1.399 . S
C525 C530 1.399 . S
C526 C525 1.399 . S
C526 C527 1.376 . S
C527 H514 0.930 . S
C527 C526 1.376 . S
C527 C528 1.388 . S
C528 H515 0.930 . S
C528 C527 1.388 . S
C528 C529 1.390 . S
C529 C528 1.390 . S
C529 C530 1.394 . S
C529 C535 1.465 . S
C530 C525 1.399 . S
C530 C529 1.394 . S
C530 C531 1.516 . S
C531 C530 1.516 . S
C531 C532 1.502 . S
C531 C533 1.561 . S
C531 C534 1.526 . S
C532 H516 0.959 . S
C532 H517 0.959 . S
C532 H518 0.961 . S
C532 C531 1.502 . S
C533 H519 0.960 . S
C533 H520 0.961 . S
C533 H521 0.959 . S
C533 C531 1.561 . S
C534 C531 1.526 . S
C534 C535 1.396 . S
C534 C539 1.390 . S
C535 C529 1.465 . S
C535 C534 1.396 . S
C535 C536 1.399 . S
C536 H522 0.929 . S
C536 C535 1.399 . S
C536 C537 1.385 . S
C537 H523 0.931 . S
C537 C536 1.385 . S
C537 C538 1.389 . S
C538 C537 1.389 . S
C538 C539 1.387 . S
C539 H524 0.930 . S
C539 C534 1.390 . S
C539 C538 1.387 . S
C229 C3 1.428 . S
C241 C111 1.438 . S
C256 C39 1.415 . S
C268 C147 1.423 . S
C283 C76 1.416 . S
C295 C184 1.419 . S
C310 C40 1.382 . S
C322 C148 1.405 . S
C337 C183 1.429 . S
C349 C75 1.422 . S
C364 C112 1.390 . S
C376 C4 1.428 . S
C391 C74 1.196 . S
C403 C2 1.085 . S
C418 C122 1.182 . S
C430 C38 1.184 . S
C445 C86 1.260 . S
C457 C158 1.238 . S
C472 C182 1.124 . S
C484 C110 1.200 . S
C499 C146 1.209 . S
C511 C14 1.255 . S
C526 C194 1.229 . S
C538 C50 1.251 . S
