# Generated by pormake.
# Topology wgq, (5)-cn, num edge types: 1
# Building blocks:
#     Node 0, Type 0, BuildingBlock: XOMCOT_clean_sbu_0, # of connection points: 5
#     Node 1, Type 0, BuildingBlock: XOMCOT_clean_sbu_0, # of connection points: 5
#     Node 2, Type 0, BuildingBlock: XOMCOT_clean_sbu_0, # of connection points: 5
#     Node 3, Type 0, BuildingBlock: XOMCOT_clean_sbu_0, # of connection points: 5
#     Node 4, Type 0, BuildingBlock: XOMCOT_clean_sbu_0, # of connection points: 5
#     Node 5, Type 0, BuildingBlock: XOMCOT_clean_sbu_0, # of connection points: 5
#     Node 6, Type 0, BuildingBlock: XOMCOT_clean_sbu_0, # of connection points: 5
#     Node 7, Type 0, BuildingBlock: XOMCOT_clean_sbu_0, # of connection points: 5
#     Node 8, Type 0, BuildingBlock: XOMCOT_clean_sbu_0, # of connection points: 5
#     Node 9, Type 0, BuildingBlock: XOMCOT_clean_sbu_0, # of connection points: 5
#     Node 10, Type 0, BuildingBlock: XOMCOT_clean_sbu_0, # of connection points: 5
#     Node 11, Type 0, BuildingBlock: XOMCOT_clean_sbu_0, # of connection points: 5
#     Node 12, Type 0, BuildingBlock: XOMCOT_clean_sbu_0, # of connection points: 5
#     Node 13, Type 0, BuildingBlock: XOMCOT_clean_sbu_0, # of connection points: 5
#     Node 14, Type 0, BuildingBlock: XOMCOT_clean_sbu_0, # of connection points: 5
#     Node 15, Type 0, BuildingBlock: XOMCOT_clean_sbu_0, # of connection points: 5
#     Node 16, Type 0, BuildingBlock: XOMCOT_clean_sbu_0, # of connection points: 5
#     Node 17, Type 0, BuildingBlock: XOMCOT_clean_sbu_0, # of connection points: 5
#     Node 18, Type 0, BuildingBlock: XOMCOT_clean_sbu_0, # of connection points: 5
#     Node 19, Type 0, BuildingBlock: XOMCOT_clean_sbu_0, # of connection points: 5
#     Node 20, Type 0, BuildingBlock: XOMCOT_clean_sbu_0, # of connection points: 5
#     Node 21, Type 0, BuildingBlock: XOMCOT_clean_sbu_0, # of connection points: 5
#     Node 22, Type 0, BuildingBlock: XOMCOT_clean_sbu_0, # of connection points: 5
#     Node 23, Type 0, BuildingBlock: XOMCOT_clean_sbu_0, # of connection points: 5
#     Node 24, Type 0, BuildingBlock: XOMCOT_clean_sbu_0, # of connection points: 5
#     Node 25, Type 0, BuildingBlock: XOMCOT_clean_sbu_0, # of connection points: 5
#     Node 26, Type 0, BuildingBlock: XOMCOT_clean_sbu_0, # of connection points: 5
#     Node 27, Type 0, BuildingBlock: XOMCOT_clean_sbu_0, # of connection points: 5
#     Node 28, Type 0, BuildingBlock: XOMCOT_clean_sbu_0, # of connection points: 5
#     Node 29, Type 0, BuildingBlock: XOMCOT_clean_sbu_0, # of connection points: 5
#     Node 30, Type 0, BuildingBlock: XOMCOT_clean_sbu_0, # of connection points: 5
#     Node 31, Type 0, BuildingBlock: XOMCOT_clean_sbu_0, # of connection points: 5
#     Edge 32, Type (0, 0), BuildingBlock: UVAHIK_clean_linker_0, # of connection points: 2
#     Edge 33, Type (0, 0), BuildingBlock: UVAHIK_clean_linker_0, # of connection points: 2
#     Edge 34, Type (0, 0), BuildingBlock: UVAHIK_clean_linker_0, # of connection points: 2
#     Edge 35, Type (0, 0), BuildingBlock: UVAHIK_clean_linker_0, # of connection points: 2
#     Edge 36, Type (0, 0), BuildingBlock: UVAHIK_clean_linker_0, # of connection points: 2
#     Edge 37, Type (0, 0), BuildingBlock: UVAHIK_clean_linker_0, # of connection points: 2
#     Edge 38, Type (0, 0), BuildingBlock: UVAHIK_clean_linker_0, # of connection points: 2
#     Edge 39, Type (0, 0), BuildingBlock: UVAHIK_clean_linker_0, # of connection points: 2
#     Edge 40, Type (0, 0), BuildingBlock: UVAHIK_clean_linker_0, # of connection points: 2
#     Edge 41, Type (0, 0), BuildingBlock: UVAHIK_clean_linker_0, # of connection points: 2
#     Edge 42, Type (0, 0), BuildingBlock: UVAHIK_clean_linker_0, # of connection points: 2
#     Edge 43, Type (0, 0), BuildingBlock: UVAHIK_clean_linker_0, # of connection points: 2
#     Edge 44, Type (0, 0), BuildingBlock: UVAHIK_clean_linker_0, # of connection points: 2
#     Edge 45, Type (0, 0), BuildingBlock: UVAHIK_clean_linker_0, # of connection points: 2
#     Edge 46, Type (0, 0), BuildingBlock: UVAHIK_clean_linker_0, # of connection points: 2
#     Edge 47, Type (0, 0), BuildingBlock: UVAHIK_clean_linker_0, # of connection points: 2
#     Edge 48, Type (0, 0), BuildingBlock: UVAHIK_clean_linker_0, # of connection points: 2
#     Edge 49, Type (0, 0), BuildingBlock: UVAHIK_clean_linker_0, # of connection points: 2
#     Edge 50, Type (0, 0), BuildingBlock: UVAHIK_clean_linker_0, # of connection points: 2
#     Edge 51, Type (0, 0), BuildingBlock: UVAHIK_clean_linker_0, # of connection points: 2
#     Edge 52, Type (0, 0), BuildingBlock: UVAHIK_clean_linker_0, # of connection points: 2
#     Edge 53, Type (0, 0), BuildingBlock: UVAHIK_clean_linker_0, # of connection points: 2
#     Edge 54, Type (0, 0), BuildingBlock: UVAHIK_clean_linker_0, # of connection points: 2
#     Edge 55, Type (0, 0), BuildingBlock: UVAHIK_clean_linker_0, # of connection points: 2
#     Edge 56, Type (0, 0), BuildingBlock: UVAHIK_clean_linker_0, # of connection points: 2
#     Edge 57, Type (0, 0), BuildingBlock: UVAHIK_clean_linker_0, # of connection points: 2
#     Edge 58, Type (0, 0), BuildingBlock: UVAHIK_clean_linker_0, # of connection points: 2
#     Edge 59, Type (0, 0), BuildingBlock: UVAHIK_clean_linker_0, # of connection points: 2
#     Edge 60, Type (0, 0), BuildingBlock: UVAHIK_clean_linker_0, # of connection points: 2
#     Edge 61, Type (0, 0), BuildingBlock: UVAHIK_clean_linker_0, # of connection points: 2
#     Edge 62, Type (0, 0), BuildingBlock: UVAHIK_clean_linker_0, # of connection points: 2
#     Edge 63, Type (0, 0), BuildingBlock: UVAHIK_clean_linker_0, # of connection points: 2
#     Edge 64, Type (0, 0), BuildingBlock: UVAHIK_clean_linker_0, # of connection points: 2
#     Edge 65, Type (0, 0), BuildingBlock: UVAHIK_clean_linker_0, # of connection points: 2
#     Edge 66, Type (0, 0), BuildingBlock: UVAHIK_clean_linker_0, # of connection points: 2
#     Edge 67, Type (0, 0), BuildingBlock: UVAHIK_clean_linker_0, # of connection points: 2
#     Edge 68, Type (0, 0), BuildingBlock: UVAHIK_clean_linker_0, # of connection points: 2
#     Edge 69, Type (0, 0), BuildingBlock: UVAHIK_clean_linker_0, # of connection points: 2
#     Edge 70, Type (0, 0), BuildingBlock: UVAHIK_clean_linker_0, # of connection points: 2
#     Edge 71, Type (0, 0), BuildingBlock: UVAHIK_clean_linker_0, # of connection points: 2
#     Edge 72, Type (0, 0), BuildingBlock: UVAHIK_clean_linker_0, # of connection points: 2
#     Edge 73, Type (0, 0), BuildingBlock: UVAHIK_clean_linker_0, # of connection points: 2
#     Edge 74, Type (0, 0), BuildingBlock: UVAHIK_clean_linker_0, # of connection points: 2
#     Edge 75, Type (0, 0), BuildingBlock: UVAHIK_clean_linker_0, # of connection points: 2
#     Edge 76, Type (0, 0), BuildingBlock: UVAHIK_clean_linker_0, # of connection points: 2
#     Edge 77, Type (0, 0), BuildingBlock: UVAHIK_clean_linker_0, # of connection points: 2
#     Edge 78, Type (0, 0), BuildingBlock: UVAHIK_clean_linker_0, # of connection points: 2
#     Edge 79, Type (0, 0), BuildingBlock: UVAHIK_clean_linker_0, # of connection points: 2
#     Edge 80, Type (0, 0), BuildingBlock: UVAHIK_clean_linker_0, # of connection points: 2
#     Edge 81, Type (0, 0), BuildingBlock: UVAHIK_clean_linker_0, # of connection points: 2
#     Edge 82, Type (0, 0), BuildingBlock: UVAHIK_clean_linker_0, # of connection points: 2
#     Edge 83, Type (0, 0), BuildingBlock: UVAHIK_clean_linker_0, # of connection points: 2
#     Edge 84, Type (0, 0), BuildingBlock: UVAHIK_clean_linker_0, # of connection points: 2
#     Edge 85, Type (0, 0), BuildingBlock: UVAHIK_clean_linker_0, # of connection points: 2
#     Edge 86, Type (0, 0), BuildingBlock: UVAHIK_clean_linker_0, # of connection points: 2
#     Edge 87, Type (0, 0), BuildingBlock: UVAHIK_clean_linker_0, # of connection points: 2
#     Edge 88, Type (0, 0), BuildingBlock: UVAHIK_clean_linker_0, # of connection points: 2
#     Edge 89, Type (0, 0), BuildingBlock: UVAHIK_clean_linker_0, # of connection points: 2
#     Edge 90, Type (0, 0), BuildingBlock: UVAHIK_clean_linker_0, # of connection points: 2
#     Edge 91, Type (0, 0), BuildingBlock: UVAHIK_clean_linker_0, # of connection points: 2
#     Edge 92, Type (0, 0), BuildingBlock: UVAHIK_clean_linker_0, # of connection points: 2
#     Edge 93, Type (0, 0), BuildingBlock: UVAHIK_clean_linker_0, # of connection points: 2
#     Edge 94, Type (0, 0), BuildingBlock: UVAHIK_clean_linker_0, # of connection points: 2
#     Edge 95, Type (0, 0), BuildingBlock: UVAHIK_clean_linker_0, # of connection points: 2
#     Edge 96, Type (0, 0), BuildingBlock: UVAHIK_clean_linker_0, # of connection points: 2
#     Edge 97, Type (0, 0), BuildingBlock: UVAHIK_clean_linker_0, # of connection points: 2
#     Edge 98, Type (0, 0), BuildingBlock: UVAHIK_clean_linker_0, # of connection points: 2
#     Edge 99, Type (0, 0), BuildingBlock: UVAHIK_clean_linker_0, # of connection points: 2
#     Edge 100, Type (0, 0), BuildingBlock: UVAHIK_clean_linker_0, # of connection points: 2
#     Edge 101, Type (0, 0), BuildingBlock: UVAHIK_clean_linker_0, # of connection points: 2
#     Edge 102, Type (0, 0), BuildingBlock: UVAHIK_clean_linker_0, # of connection points: 2
#     Edge 103, Type (0, 0), BuildingBlock: UVAHIK_clean_linker_0, # of connection points: 2
#     Edge 104, Type (0, 0), BuildingBlock: UVAHIK_clean_linker_0, # of connection points: 2
#     Edge 105, Type (0, 0), BuildingBlock: UVAHIK_clean_linker_0, # of connection points: 2
#     Edge 106, Type (0, 0), BuildingBlock: UVAHIK_clean_linker_0, # of connection points: 2
#     Edge 107, Type (0, 0), BuildingBlock: UVAHIK_clean_linker_0, # of connection points: 2
#     Edge 108, Type (0, 0), BuildingBlock: UVAHIK_clean_linker_0, # of connection points: 2
#     Edge 109, Type (0, 0), BuildingBlock: UVAHIK_clean_linker_0, # of connection points: 2
#     Edge 110, Type (0, 0), BuildingBlock: UVAHIK_clean_linker_0, # of connection points: 2
#     Edge 111, Type (0, 0), BuildingBlock: UVAHIK_clean_linker_0, # of connection points: 2
# Relax obj value: 0.330
# Max RMSD: 0.239
# Mean RMSD: 0.239
data_MOF--net-wgq--node1-XOMCOT_clean_sbu_0--edge1-UVAHIK_clean_linker_0
_symmetry_space_group_name_H-M    P1
_symmetry_Int_Tables_number       1
_symmetry_cell_setting            triclinic
loop_
_symmetry_equiv_pos_as_xyz
'x, y, z'
_cell_length_a     38.559256
_cell_length_b     38.674387
_cell_length_c     175.47615
_cell_angle_alpha  90.017446
_cell_angle_beta   90.034225
_cell_angle_gamma 89.99443
loop_
_atom_site_label
_atom_site_type_symbol
_atom_site_fract_x
_atom_site_fract_y
_atom_site_fract_z
_atom_type_partial_charge
Co0 Co 0.21434 0.03858 0.18835 0.0
C1 C 0.21993 0.03261 0.17113 0.0
C2 C 0.21358 0.98426 0.17692 0.0
C3 C 0.21529 0.97786 0.16923 0.0
N4 N 0.21571 0.01865 0.17815 0.0
N5 N 0.21924 0.00827 0.16561 0.0
H6 H 0.22316 0.05966 0.16995 0.0
H7 H 0.21056 0.96511 0.18136 0.0
C8 C 0.144 0.00795 0.18585 0.0
O9 O 0.14719 0.02023 0.17891 0.0
N10 N 0.21405 0.05632 0.19861 0.0
C11 C 0.22268 0.08835 0.20093 0.0
C12 C 0.22134 0.08932 0.20877 0.0
C13 C 0.20784 0.03817 0.20502 0.0
N14 N 0.21207 0.05771 0.21135 0.0
C15 C 0.19856 0.1024 0.18034 0.0
C16 C 0.13497 0.11258 0.18721 0.0
C17 C 0.14598 0.13599 0.18166 0.0
C18 C 0.17837 0.13098 0.17823 0.0
C19 C 0.15564 0.08435 0.18904 0.0
N20 N 0.18603 0.07811 0.18527 0.0
H21 H 0.2247 0.10055 0.1782 0.0
H22 H 0.1475 0.06803 0.19368 0.0
H23 H 0.23013 0.10927 0.19718 0.0
H24 H 0.20072 0.01112 0.20502 0.0
O25 O 0.25965 0.05879 0.18674 0.0
O26 O 0.25168 0.00631 0.19128 0.0
O27 O 0.16948 0.0111 0.19059 0.0
C28 C 0.27353 0.03052 0.18928 0.0
H29 H 0.21408 0.95274 0.16652 0.0
H30 H 0.22786 0.11136 0.21229 0.0
H31 H 0.11063 0.11622 0.19019 0.0
H32 H 0.1885 0.14961 0.1742 0.0
Co33 Co 0.23147 0.96094 0.43814 0.0
C34 C 0.23946 0.96626 0.421 0.0
C35 C 0.28756 0.96341 0.42706 0.0
C36 C 0.2947 0.96638 0.41941 0.0
N37 N 0.25291 0.96292 0.42809 0.0
N38 N 0.26441 0.96815 0.41559 0.0
H39 H 0.21228 0.96712 0.4197 0.0
H40 H 0.30645 0.9618 0.4316 0.0
C41 C 0.26361 0.89139 0.43579 0.0
O42 O 0.25333 0.89484 0.4287 0.0
N43 N 0.21195 0.96007 0.44826 0.0
C44 C 0.17931 0.96826 0.45029 0.0
C45 C 0.17691 0.96676 0.45812 0.0
C46 C 0.22902 0.95387 0.45482 0.0
N47 N 0.20821 0.95779 0.46096 0.0
C48 C 0.16803 0.94651 0.42983 0.0
C49 C 0.15703 0.88232 0.43628 0.0
C50 C 0.13341 0.8946 0.43088 0.0
C51 C 0.13894 0.9272 0.42764 0.0
C52 C 0.18575 0.90217 0.4382 0.0
N53 N 0.19227 0.93301 0.43468 0.0
H54 H 0.17036 0.97277 0.42782 0.0
H55 H 0.20189 0.89319 0.44281 0.0
H56 H 0.15888 0.97533 0.44636 0.0
H57 H 0.2564 0.94785 0.45509 0.0
O58 O 0.21172 0.00633 0.43649 0.0
O59 O 0.2635 0.99749 0.44148 0.0
O60 O 0.25876 0.91641 0.44053 0.0
C61 C 0.23982 0.0196 0.43931 0.0
H62 H 0.32027 0.96784 0.41689 0.0
H63 H 0.15389 0.97203 0.46144 0.0
H64 H 0.15298 0.85777 0.43912 0.0
H65 H 0.12025 0.9382 0.42372 0.0
Co66 Co 0.3021 0.97267 0.68911 0.0
C67 C 0.29606 0.9777 0.67192 0.0
C68 C 0.30152 0.02663 0.67752 0.0
C69 C 0.29928 0.03237 0.66981 0.0
N70 N 0.30032 0.9923 0.67888 0.0
N71 N 0.29586 1.00159 0.6663 0.0
H72 H 0.29327 0.95048 0.67086 0.0
H73 H 0.30418 0.04621 0.68189 0.0
C74 C 0.37118 0.00596 0.68676 0.0
O75 O 0.36881 0.99404 0.67977 0.0
N76 N 0.30271 0.95473 0.69936 0.0
C77 C 0.29459 0.92244 0.70158 0.0
C78 C 0.29613 0.92099 0.70941 0.0
C79 C 0.30886 0.97256 0.70582 0.0
N80 N 0.30505 0.95255 0.71209 0.0
C81 C 0.31933 0.90859 0.6813 0.0
C82 C 0.3839 0.90157 0.68794 0.0
C83 C 0.37326 0.87688 0.6826 0.0
C84 C 0.34026 0.88033 0.67932 0.0
C85 C 0.36224 0.92901 0.68975 0.0
N86 N 0.3314 0.93383 0.68606 0.0
H87 H 0.29304 0.90946 0.67921 0.0
H88 H 0.3701 0.94587 0.69431 0.0
H89 H 0.28736 0.90164 0.69778 0.0
H90 H 0.31564 0.99969 0.70588 0.0
O91 O 0.25719 0.95175 0.68747 0.0
O92 O 0.26477 1.00437 0.69207 0.0
O93 O 0.3458 1.00138 0.69143 0.0
C94 C 0.24324 0.97996 0.69005 0.0
H95 H 0.29965 0.05729 0.667 0.0
H96 H 0.28996 0.89864 0.71286 0.0
H97 H 0.40879 0.89973 0.69077 0.0
H98 H 0.33032 0.8609 0.67544 0.0
Co99 Co 0.28179 0.05586 0.9378 0.0
C100 C 0.26507 0.0511 0.92141 0.0
C101 C 0.22251 0.07136 0.92792 0.0
C102 C 0.21288 0.07014 0.92037 0.0
N103 N 0.25525 0.05968 0.92853 0.0
N104 N 0.23967 0.05741 0.91628 0.0
H105 H 0.29055 0.04123 0.92001 0.0
H106 H 0.20678 0.08017 0.93264 0.0
C107 C 0.27907 0.12659 0.94458 0.0
O108 O 0.31173 0.12086 0.94632 0.0
N109 N 0.30679 0.05069 0.9474 0.0
C110 C 0.33373 0.02953 0.94903 0.0
C111 C 0.33747 0.02719 0.95682 0.0
C112 C 0.2937 0.0594 0.95429 0.0
N113 N 0.31229 0.04612 0.96011 0.0
C114 C 0.35232 0.06931 0.93287 0.0
C115 C 0.33849 0.13349 0.92662 0.0
C116 C 0.37304 0.12284 0.92735 0.0
C117 C 0.37972 0.08968 0.93023 0.0
C118 C 0.31198 0.11232 0.92934 0.0
N119 N 0.31926 0.08179 0.93295 0.0
H120 H 0.35787 0.04366 0.93485 0.0
H121 H 0.28555 0.12133 0.92884 0.0
H122 H 0.34776 0.01396 0.94497 0.0
H123 H 0.26949 0.07313 0.95504 0.0
O124 O 0.29571 0.00975 0.93486 0.0
O125 O 0.24882 0.02119 0.94162 0.0
O126 O 0.26113 0.10214 0.94149 0.0
C127 C 0.26881 0.99794 0.93845 0.0
H128 H 0.18796 0.07778 0.91808 0.0
H129 H 0.35621 0.01141 0.95982 0.0
H130 H 0.33197 0.15866 0.92433 0.0
H131 H 0.40596 0.07977 0.93056 0.0
Co132 Co 0.19609 0.96983 0.3128 0.0
C133 C 0.2073 0.98325 0.32945 0.0
C134 C 0.16062 0.00681 0.32539 0.0
C135 C 0.16338 0.0131 0.33304 0.0
N136 N 0.188 0.98784 0.32307 0.0
N137 N 0.19249 0.99791 0.33567 0.0
H138 H 0.23106 0.96844 0.32961 0.0
H139 H 0.13927 0.01529 0.32193 0.0
C140 C 0.13339 0.01449 0.3074 0.0
O141 O 0.15178 0.04294 0.3068 0.0
N142 N 0.20413 0.95288 0.30261 0.0
C143 C 0.21915 0.92291 0.30055 0.0
C144 C 0.22168 0.92219 0.29271 0.0
C145 C 0.19802 0.97009 0.29607 0.0
N146 N 0.20843 0.95193 0.28989 0.0
C147 C 0.18342 0.90875 0.32188 0.0
C148 C 0.13001 0.88406 0.31288 0.0
C149 C 0.13804 0.86674 0.31966 0.0
C150 C 0.16539 0.8791 0.32416 0.0
C151 C 0.14829 0.9137 0.31089 0.0
N152 N 0.17381 0.92646 0.31549 0.0
H153 H 0.20501 0.91741 0.32528 0.0
H154 H 0.14172 0.92648 0.30561 0.0
H155 H 0.22812 0.90329 0.30447 0.0
H156 H 0.18641 0.99552 0.29588 0.0
O157 O 0.24336 0.9581 0.31546 0.0
O158 O 0.2282 0.0084 0.31059 0.0
O159 O 0.14802 0.98641 0.30951 0.0
C160 C 0.25305 0.9882 0.31306 0.0
H161 H 0.14491 0.02763 0.33639 0.0
H162 H 0.23334 0.9017 0.28938 0.0
H163 H 0.10917 0.87527 0.30922 0.0
H164 H 0.17288 0.86586 0.32934 0.0
Co165 Co 0.28735 0.95384 0.56274 0.0
C166 C 0.28072 0.96004 0.57991 0.0
C167 C 0.23238 0.95271 0.57411 0.0
C168 C 0.22588 0.95486 0.5818 0.0
N169 N 0.26686 0.95503 0.5729 0.0
N170 N 0.2563 0.95945 0.58544 0.0
H171 H 0.30776 0.96408 0.58108 0.0
H172 H 0.21322 0.94935 0.56967 0.0
C173 C 0.25476 0.88444 0.56483 0.0
O174 O 0.26654 0.88669 0.57184 0.0
N175 N 0.30595 0.95389 0.55254 0.0
C176 C 0.33858 0.96173 0.55044 0.0
C177 C 0.34038 0.96121 0.5426 0.0
C178 C 0.28828 0.94888 0.546 0.0
N179 N 0.30871 0.95322 0.53981 0.0
C180 C 0.35058 0.93546 0.57093 0.0
C181 C 0.35851 0.87225 0.56382 0.0
C182 C 0.382 0.88157 0.56953 0.0
C183 C 0.37818 0.91386 0.57306 0.0
C184 C 0.33154 0.89436 0.56193 0.0
N185 N 0.32613 0.92445 0.56584 0.0
H186 H 0.34969 0.9614 0.57317 0.0
H187 H 0.31536 0.88742 0.55716 0.0
H188 H 0.35944 0.96788 0.55433 0.0
H189 H 0.26077 0.94339 0.54579 0.0
O190 O 0.3082 0.99856 0.56456 0.0
O191 O 0.25575 0.99128 0.55977 0.0
O192 O 0.25898 0.9101 0.56022 0.0
C193 C 0.28012 0.01265 0.56191 0.0
H194 H 0.20068 0.95364 0.5845 0.0
H195 H 0.36327 0.96645 0.53923 0.0
H196 H 0.3609 0.84797 0.56078 0.0
H197 H 0.39688 0.92273 0.57724 0.0
Co198 Co 0.31135 0.04576 0.81394 0.0
C199 C 0.29924 0.03183 0.83056 0.0
C200 C 0.35305 0.03748 0.82774 0.0
C201 C 0.35017 0.03553 0.83551 0.0
N202 N 0.32122 0.03497 0.82457 0.0
N203 N 0.31638 0.03229 0.83728 0.0
H204 H 0.27128 0.03208 0.83009 0.0
H205 H 0.37664 0.04333 0.82468 0.0
C206 C 0.37337 0.99647 0.81322 0.0
O207 O 0.35658 0.9742 0.8175 0.0
N208 N 0.30202 0.05719 0.80343 0.0
C209 C 0.28643 0.08622 0.80097 0.0
C210 C 0.28492 0.08535 0.79315 0.0
C211 C 0.30971 0.03888 0.79711 0.0
N212 N 0.29966 0.05565 0.7907 0.0
C213 C 0.32886 0.11016 0.82108 0.0
C214 C 0.38317 0.12587 0.81138 0.0
C215 C 0.37736 0.14686 0.81777 0.0
C216 C 0.34942 0.13912 0.82258 0.0
C217 C 0.36228 0.09709 0.81013 0.0
N218 N 0.33639 0.08885 0.8151 0.0
H219 H 0.30768 0.10399 0.82487 0.0
H220 H 0.3674 0.08099 0.80523 0.0
H221 H 0.27694 0.10667 0.80462 0.0
H222 H 0.32284 0.01416 0.79721 0.0
O223 O 0.26534 0.06202 0.81658 0.0
O224 O 0.27638 0.00835 0.81321 0.0
O225 O 0.35744 0.02336 0.81078 0.0
C226 C 0.25313 0.03156 0.81508 0.0
H227 H 0.37116 0.03828 0.83956 0.0
H228 H 0.27342 0.10498 0.78955 0.0
H229 H 0.40445 0.13091 0.80751 0.0
H230 H 0.34374 0.15509 0.8275 0.0
Co231 Co 0.22954 0.05167 0.06195 0.0
C232 C 0.2341 0.0466 0.07915 0.0
C233 C 0.28306 0.05398 0.07362 0.0
C234 C 0.2887 0.0523 0.08134 0.0
N235 N 0.24876 0.05122 0.07222 0.0
N236 N 0.25791 0.04768 0.08481 0.0
H237 H 0.20693 0.04262 0.08017 0.0
H238 H 0.30268 0.05728 0.06927 0.0
C239 C 0.25979 0.12201 0.06429 0.0
O240 O 0.24697 0.11941 0.0712 0.0
N241 N 0.21227 0.05098 0.05165 0.0
C242 C 0.18074 0.04059 0.04931 0.0
C243 C 0.1801 0.04113 0.04147 0.0
C244 C 0.23042 0.05758 0.04526 0.0
N245 N 0.21141 0.05178 0.03889 0.0
C246 C 0.16444 0.06731 0.06959 0.0
C247 C 0.15539 0.13076 0.06265 0.0
C248 C 0.1311 0.12004 0.06807 0.0
C249 C 0.13553 0.08755 0.0715 0.0
C250 C 0.18354 0.10981 0.06093 0.0
N251 N 0.18938 0.07966 0.06478 0.0
H252 H 0.16611 0.04135 0.07179 0.0
H253 H 0.20032 0.11776 0.05635 0.0
H254 H 0.16003 0.03233 0.05304 0.0
H255 H 0.25718 0.06589 0.04533 0.0
O256 O 0.20999 0.00622 0.06366 0.0
O257 O 0.26272 0.01525 0.0592 0.0
O258 O 0.25685 0.09633 0.05963 0.0
C259 C 0.23886 0.99306 0.06121 0.0
H260 H 0.31358 0.05385 0.08418 0.0
H261 H 0.15845 0.03308 0.03797 0.0
H262 H 0.15282 0.15525 0.05971 0.0
H263 H 0.11642 0.0775 0.07544 0.0
Co264 Co 0.81136 0.96749 0.81407 0.0
C265 C 0.80236 0.97967 0.83093 0.0
C266 C 0.85538 0.9728 0.82756 0.0
C267 C 0.85417 0.97431 0.83535 0.0
N268 N 0.82303 0.97636 0.82472 0.0
N269 N 0.82091 0.97833 0.83748 0.0
H270 H 0.77434 0.98062 0.83073 0.0
H271 H 0.87824 0.96691 0.82424 0.0
C272 C 0.87309 0.017 0.81342 0.0
O273 O 0.85685 0.03825 0.81805 0.0
N274 N 0.8003 0.95781 0.80354 0.0
C275 C 0.78391 0.92929 0.80103 0.0
C276 C 0.78172 0.93077 0.79322 0.0
C277 C 0.80781 0.97643 0.79724 0.0
N278 N 0.79687 0.96031 0.79082 0.0
C279 C 0.83095 0.90193 0.82047 0.0
C280 C 0.88473 0.89007 0.81037 0.0
C281 C 0.88108 0.86828 0.81671 0.0
C282 C 0.85312 0.87384 0.82168 0.0
C283 C 0.86215 0.91774 0.80939 0.0
N284 N 0.83684 0.92438 0.81461 0.0
H285 H 0.81016 0.90682 0.82446 0.0
H286 H 0.8659 0.93464 0.80457 0.0
H287 H 0.7745 0.90865 0.80463 0.0
H288 H 0.82161 1.00079 0.79736 0.0
O289 O 0.7658 0.95064 0.81694 0.0
O290 O 0.77632 1.00486 0.81392 0.0
O291 O 0.85681 0.99075 0.81076 0.0
C292 C 0.75336 0.9813 0.81573 0.0
H293 H 0.87599 0.97113 0.83917 0.0
H294 H 0.76961 0.91157 0.78961 0.0
H295 H 0.90589 0.88694 0.80638 0.0
H296 H 0.84893 0.85719 0.82656 0.0
Co297 Co 0.78536 0.04766 0.56276 0.0
C298 C 0.77956 0.03954 0.57986 0.0
C299 C 0.73225 0.05559 0.57452 0.0
C300 C 0.72661 0.05349 0.58224 0.0
N301 N 0.76586 0.04836 0.57302 0.0
N302 N 0.75632 0.04331 0.58554 0.0
H303 H 0.80542 0.02997 0.58077 0.0
H304 H 0.71313 0.06239 0.57026 0.0
C305 C 0.75522 0.11835 0.56443 0.0
O306 O 0.76913 0.11744 0.57127 0.0
N307 N 0.80288 0.04567 0.55247 0.0
C308 C 0.83515 0.03699 0.55027 0.0
C309 C 0.83624 0.03682 0.54242 0.0
C310 C 0.7847 0.05042 0.54599 0.0
N311 N 0.80447 0.04519 0.53973 0.0
C312 C 0.84863 0.06772 0.57082 0.0
C313 C 0.85795 0.12814 0.56269 0.0
C314 C 0.88095 0.12056 0.56863 0.0
C315 C 0.87641 0.08963 0.57267 0.0
C316 C 0.83083 0.10575 0.56108 0.0
N317 N 0.82481 0.07709 0.56544 0.0
H318 H 0.84729 0.04276 0.5735 0.0
H319 H 0.81469 0.11147 0.55622 0.0
H320 H 0.85627 0.03095 0.5541 0.0
H321 H 0.75733 0.05657 0.54589 0.0
O322 O 0.80587 1.00301 0.56482 0.0
O323 O 0.75301 0.01015 0.56023 0.0
O324 O 0.75748 0.09158 0.56006 0.0
C325 C 0.77739 0.98884 0.56241 0.0
H326 H 0.70254 0.05867 0.5852 0.0
H327 H 0.85878 0.03103 0.53898 0.0
H328 H 0.86069 0.15138 0.5593 0.0
H329 H 0.89466 0.08199 0.57706 0.0
Co330 Co 0.69613 0.03586 0.31341 0.0
C331 C 0.713 0.02962 0.32983 0.0
C332 C 0.69129 0.98283 0.32524 0.0
C333 C 0.6952 0.97885 0.33299 0.0
N334 N 0.70206 0.01475 0.32329 0.0
N335 N 0.70887 0.0082 0.33584 0.0
H336 H 0.72182 0.05613 0.33026 0.0
H337 H 0.68003 0.96428 0.32135 0.0
C338 C 0.63063 1.00337 0.30654 0.0
O339 O 0.64459 1.00311 0.29972 0.0
N340 N 0.68969 0.05688 0.30338 0.0
C341 C 0.6638 0.07855 0.30133 0.0
C342 C 0.66383 0.08232 0.29354 0.0
C343 C 0.70504 0.04783 0.29672 0.0
N344 N 0.6895 0.06273 0.29063 0.0
C345 C 0.68421 0.10671 0.31738 0.0
C346 C 0.62342 0.09553 0.3254 0.0
C347 C 0.63414 0.12958 0.32401 0.0
C348 C 0.66559 0.13498 0.32016 0.0
C349 C 0.6428 0.06805 0.32253 0.0
N350 N 0.67177 0.07392 0.31824 0.0
H351 H 0.70773 0.11117 0.31418 0.0
H352 H 0.63405 0.04205 0.32366 0.0
H353 H 0.64424 0.08879 0.30511 0.0
H354 H 0.72509 0.02843 0.29623 0.0
O355 O 0.74252 0.05465 0.31397 0.0
O356 O 0.73097 1.0032 0.30926 0.0
O357 O 0.64929 0.01095 0.31236 0.0
C358 C 0.75439 0.02653 0.31095 0.0
H359 H 0.68781 0.95646 0.33632 0.0
H360 H 0.64508 0.09686 0.29025 0.0
H361 H 0.59947 0.09007 0.32838 0.0
H362 H 0.67523 0.16085 0.31912 0.0
Co363 Co 0.72881 0.95561 0.06476 0.0
C364 C 0.74323 0.96126 0.08126 0.0
C365 C 0.78777 0.94361 0.07503 0.0
C366 C 0.79638 0.94576 0.08264 0.0
N367 N 0.75445 0.95313 0.0742 0.0
N368 N 0.76834 0.95684 0.08656 0.0
H369 H 0.71705 0.96968 0.08246 0.0
H370 H 0.80466 0.93584 0.07042 0.0
C371 C 0.73542 0.88565 0.0578 0.0
O372 O 0.70274 0.89028 0.05593 0.0
N373 N 0.70462 0.95972 0.05502 0.0
C374 C 0.67596 0.97826 0.05331 0.0
C375 C 0.67259 0.98033 0.04551 0.0
C376 C 0.71913 0.95258 0.04818 0.0
N377 N 0.69979 0.96407 0.04228 0.0
C378 C 0.65844 0.93682 0.06933 0.0
C379 C 0.67728 0.87362 0.07542 0.0
C380 C 0.64208 0.88106 0.07446 0.0
C381 C 0.63262 0.91378 0.07172 0.0
C382 C 0.70202 0.89734 0.073 0.0
N383 N 0.69252 0.9273 0.06941 0.0
H384 H 0.65086 0.96198 0.06736 0.0
H385 H 0.72905 0.89064 0.07367 0.0
H386 H 0.6601 0.99221 0.05733 0.0
H387 H 0.74451 0.94101 0.04755 0.0
O388 O 0.71225 1.001 0.06764 0.0
O389 O 0.76036 0.99176 0.06112 0.0
O390 O 0.75209 0.91048 0.06109 0.0
C391 C 0.73899 0.01403 0.06418 0.0
H392 H 0.82157 0.94011 0.08505 0.0
H393 H 0.6524 0.99404 0.04247 0.0
H394 H 0.68569 0.84917 0.0778 0.0
H395 H 0.60559 0.92096 0.07114 0.0
Co396 Co 0.80143 0.0355 0.68904 0.0
C397 C 0.79293 0.02657 0.672 0.0
C398 C 0.8076 0.98005 0.67779 0.0
C399 C 0.80555 0.97303 0.67012 0.0
N400 N 0.80108 0.01397 0.67898 0.0
N401 N 0.79623 1.00227 0.66653 0.0
H402 H 0.78454 0.05252 0.67082 0.0
H403 H 0.81406 0.96173 0.68223 0.0
C404 C 0.87212 0.00525 0.68725 0.0
O405 O 0.87042 0.0175 0.68028 0.0
N406 N 0.80069 0.05508 0.69916 0.0
C407 C 0.79163 0.08746 0.70114 0.0
C408 C 0.79241 0.08997 0.70897 0.0
C409 C 0.80661 0.03826 0.70575 0.0
N410 N 0.80177 0.05898 0.71188 0.0
C411 C 0.81776 0.09766 0.68046 0.0
C412 C 0.88017 0.11007 0.68769 0.0
C413 C 0.86965 0.13223 0.68184 0.0
C414 C 0.83787 0.12605 0.67823 0.0
C415 C 0.85956 0.08199 0.68965 0.0
N416 N 0.82975 0.07465 0.68575 0.0
H417 H 0.79194 0.09528 0.6782 0.0
H418 H 0.8673 0.06662 0.69449 0.0
H419 H 0.78429 0.10758 0.69717 0.0
H420 H 0.81397 0.01131 0.70603 0.0
O421 O 0.75626 0.05497 0.68706 0.0
O422 O 0.76461 1.00334 0.69212 0.0
O423 O 0.84591 0.0087 0.69175 0.0
C424 C 0.74272 0.02693 0.68981 0.0
H425 H 0.81027 0.94838 0.66738 0.0
H426 H 0.78546 0.11262 0.71225 0.0
H427 H 0.90405 0.11457 0.69079 0.0
H428 H 0.82806 0.14375 0.67396 0.0
Co429 Co 0.72815 0.06018 0.43834 0.0
C430 C 0.7403 0.05306 0.42182 0.0
C431 C 0.78155 0.08112 0.42726 0.0
C432 C 0.78739 0.08098 0.41951 0.0
N433 N 0.75186 0.06391 0.42868 0.0
N434 N 0.7615 0.06326 0.41613 0.0
H435 H 0.71611 0.03937 0.42098 0.0
H436 H 0.79736 0.09374 0.43153 0.0
C437 C 0.73479 0.12966 0.44563 0.0
O438 O 0.70284 0.12412 0.44791 0.0
N439 N 0.70563 0.05548 0.44822 0.0
C440 C 0.67417 0.04278 0.4501 0.0
C441 C 0.67193 0.04043 0.45792 0.0
C442 C 0.72234 0.05942 0.45494 0.0
N443 N 0.70227 0.05098 0.46096 0.0
C444 C 0.65817 0.07248 0.43295 0.0
C445 C 0.67012 0.13915 0.42795 0.0
C446 C 0.63618 0.12625 0.42773 0.0
C447 C 0.6306 0.09193 0.43003 0.0
C448 C 0.69677 0.11871 0.43082 0.0
N449 N 0.69017 0.0869 0.4339 0.0
H450 H 0.65385 0.04565 0.43426 0.0
H451 H 0.72282 0.12887 0.43062 0.0
H452 H 0.65452 0.03405 0.4462 0.0
H453 H 0.7492 0.06729 0.45536 0.0
O454 O 0.71238 0.01448 0.43559 0.0
O455 O 0.76132 0.02466 0.44171 0.0
O456 O 0.75089 0.10559 0.44196 0.0
C457 C 0.73988 1.00197 0.43882 0.0
H458 H 0.80879 0.0932 0.41657 0.0
H459 H 0.64978 0.03111 0.4611 0.0
H460 H 0.67616 0.16516 0.4261 0.0
H461 H 0.60525 0.08009 0.42954 0.0
Co462 Co 0.71258 0.96987 0.18947 0.0
C463 C 0.72393 0.98808 0.17298 0.0
C464 C 0.67018 0.98289 0.17589 0.0
C465 C 0.67254 0.98897 0.16821 0.0
N466 N 0.70228 0.98289 0.17896 0.0
N467 N 0.70628 0.9921 0.16636 0.0
H468 H 0.7519 0.98772 0.17337 0.0
H469 H 0.6466 0.97669 0.17892 0.0
C470 C 0.65207 0.01994 0.19113 0.0
O471 O 0.66902 0.04317 0.18713 0.0
N472 N 0.72229 0.95669 0.19987 0.0
C473 C 0.73543 0.92633 0.20226 0.0
C474 C 0.73776 0.92703 0.21009 0.0
C475 C 0.71719 0.97565 0.20622 0.0
N476 N 0.7263 0.95804 0.21257 0.0
C477 C 0.69433 0.90723 0.1817 0.0
C478 C 0.64067 0.88946 0.1914 0.0
C479 C 0.64612 0.86977 0.1848 0.0
C480 C 0.67369 0.87858 0.17997 0.0
C481 C 0.66163 0.91798 0.19287 0.0
N482 N 0.68729 0.92718 0.18793 0.0
H483 H 0.71526 0.91421 0.17791 0.0
H484 H 0.65683 0.93305 0.19795 0.0
H485 H 0.74254 0.9051 0.19856 0.0
H486 H 0.70643 1.0015 0.2062 0.0
O487 O 0.75825 0.95411 0.18656 0.0
O488 O 0.74703 0.00715 0.19052 0.0
O489 O 0.66724 0.99178 0.19299 0.0
C490 C 0.77017 0.9844 0.18836 0.0
H491 H 0.65117 0.98885 0.16421 0.0
H492 H 0.74741 0.90638 0.21367 0.0
H493 H 0.61966 0.88358 0.19528 0.0
H494 H 0.67909 0.86364 0.17489 0.0
Co495 Co 0.77645 0.96114 0.94023 0.0
C496 C 0.77077 0.96781 0.92306 0.0
C497 C 0.72192 0.9628 0.92876 0.0
C498 C 0.71577 0.966 0.92107 0.0
N499 N 0.75643 0.9632 0.93003 0.0
N500 N 0.7465 0.96914 0.91749 0.0
H501 H 0.79807 0.97016 0.92196 0.0
H502 H 0.70248 0.96029 0.93316 0.0
C503 C 0.74245 0.89239 0.93788 0.0
O504 O 0.75392 0.89503 0.93086 0.0
N505 N 0.79461 0.96037 0.95047 0.0
C506 C 0.82764 0.96572 0.95265 0.0
C507 C 0.82909 0.96494 0.96048 0.0
C508 C 0.77634 0.95676 0.95697 0.0
N509 N 0.79678 0.95945 0.96322 0.0
C510 C 0.84035 0.94305 0.93233 0.0
C511 C 0.84709 0.8789 0.93908 0.0
C512 C 0.87206 0.88924 0.93377 0.0
C513 C 0.86868 0.92199 0.93041 0.0
C514 C 0.81964 0.90068 0.94083 0.0
N515 N 0.81499 0.93139 0.93712 0.0
H516 H 0.83965 0.96919 0.9302 0.0
H517 H 0.80276 0.89312 0.94542 0.0
H518 H 0.84909 0.97021 0.9488 0.0
H519 H 0.74851 0.95332 0.95709 0.0
O520 O 0.79806 0.00566 0.93856 0.0
O521 O 0.74532 0.9991 0.94321 0.0
O522 O 0.74728 0.91766 0.94257 0.0
C523 C 0.77007 0.02016 0.94113 0.0
H524 H 0.69058 0.96657 0.91835 0.0
H525 H 0.85229 0.96822 0.96387 0.0
H526 H 0.84877 0.85419 0.94196 0.0
H527 H 0.88827 0.93169 0.92654 0.0
Co528 Co 0.70858 0.53332 0.68844 0.0
C529 C 0.71499 0.5208 0.67192 0.0
C530 C 0.69523 0.47619 0.67778 0.0
C531 C 0.69675 0.46892 0.6701 0.0
N532 N 0.70638 0.50877 0.67888 0.0
N533 N 0.70916 0.49701 0.66643 0.0
H534 H 0.72433 0.54678 0.6709 0.0
H535 H 0.68635 0.45905 0.68224 0.0
C536 C 0.63859 0.52563 0.69524 0.0
O537 O 0.64305 0.55803 0.69728 0.0
N538 N 0.7125 0.55639 0.6983 0.0
C539 C 0.73139 0.58454 0.70019 0.0
C540 C 0.73385 0.58667 0.70801 0.0
C541 C 0.7056 0.5409 0.70505 0.0
N542 N 0.71763 0.55912 0.71107 0.0
C543 C 0.68893 0.60379 0.68431 0.0
C544 C 0.62756 0.58498 0.67729 0.0
C545 C 0.63444 0.62016 0.67839 0.0
C546 C 0.66623 0.6295 0.68172 0.0
C547 C 0.65058 0.56033 0.68006 0.0
N548 N 0.6799 0.56973 0.68394 0.0
H549 H 0.71352 0.61148 0.6866 0.0
H550 H 0.6441 0.53338 0.67928 0.0
H551 H 0.7457 0.60058 0.69627 0.0
H552 H 0.69331 0.51588 0.70549 0.0
O553 O 0.75377 0.55055 0.68567 0.0
O554 O 0.74505 0.50176 0.69194 0.0
O555 O 0.66364 0.50941 0.69194 0.0
C556 C 0.76709 0.52366 0.68898 0.0
H557 H 0.68949 0.44475 0.66743 0.0
H558 H 0.7488 0.6056 0.71114 0.0
H559 H 0.60419 0.57638 0.67444 0.0
H560 H 0.67319 0.65635 0.68255 0.0
Co561 Co 0.71802 0.46129 0.93957 0.0
C562 C 0.72427 0.46689 0.92238 0.0
C563 C 0.77279 0.4613 0.92821 0.0
C564 C 0.77929 0.46315 0.92053 0.0
N565 N 0.73825 0.46281 0.92941 0.0
N566 N 0.74879 0.46664 0.91687 0.0
H567 H 0.69709 0.46985 0.92119 0.0
H568 H 0.79199 0.45864 0.93267 0.0
C569 C 0.75117 0.392 0.93736 0.0
O570 O 0.7396 0.39435 0.93035 0.0
N571 N 0.6999 0.46085 0.9498 0.0
C572 C 0.6672 0.46724 0.95207 0.0
C573 C 0.66626 0.46629 0.95993 0.0
C574 C 0.71843 0.45637 0.95624 0.0
N575 N 0.69854 0.45954 0.96254 0.0
C576 C 0.65436 0.44381 0.93155 0.0
C577 C 0.64672 0.37964 0.93823 0.0
C578 C 0.62253 0.38998 0.93274 0.0
C579 C 0.62627 0.42283 0.92944 0.0
C580 C 0.674 0.40136 0.94016 0.0
N581 N 0.6792 0.43199 0.93645 0.0
H582 H 0.65545 0.46994 0.92941 0.0
H583 H 0.69052 0.39369 0.94481 0.0
H584 H 0.64569 0.4726 0.94829 0.0
H585 H 0.74615 0.45204 0.95627 0.0
O586 O 0.69691 0.506 0.93785 0.0
O587 O 0.74949 0.499 0.94256 0.0
O588 O 0.74665 0.41754 0.942 0.0
C589 C 0.72496 0.52027 0.94046 0.0
H590 H 0.80454 0.46244 0.91784 0.0
H591 H 0.64349 0.47035 0.96341 0.0
H592 H 0.64471 0.35486 0.94108 0.0
H593 H 0.60723 0.43258 0.92545 0.0
Co594 Co 0.80005 0.47223 0.18847 0.0
C595 C 0.793 0.47884 0.17137 0.0
C596 C 0.79971 0.52717 0.17715 0.0
C597 C 0.79645 0.53367 0.16948 0.0
N598 N 0.79843 0.49273 0.17835 0.0
N599 N 0.79225 0.50325 0.16586 0.0
H600 H 0.78937 0.45181 0.17023 0.0
H601 H 0.80282 0.54632 0.18159 0.0
C602 C 0.86879 0.5065 0.1864 0.0
O603 O 0.86683 0.49476 0.17939 0.0
N604 N 0.80035 0.45361 0.19865 0.0
C605 C 0.79209 0.42124 0.20078 0.0
C606 C 0.79321 0.41949 0.20862 0.0
C607 C 0.80619 0.47117 0.20515 0.0
N608 N 0.80204 0.45094 0.21138 0.0
C609 C 0.82034 0.4096 0.1803 0.0
C610 C 0.88357 0.40326 0.18756 0.0
C611 C 0.87499 0.37944 0.18188 0.0
C612 C 0.84271 0.38249 0.17825 0.0
C613 C 0.86072 0.42969 0.18936 0.0
N614 N 0.83056 0.43431 0.1854 0.0
H615 H 0.7944 0.40981 0.17801 0.0
H616 H 0.86711 0.44604 0.19413 0.0
H617 H 0.78504 0.40062 0.19692 0.0
H618 H 0.81298 0.49829 0.20528 0.0
O619 O 0.7557 0.45043 0.18661 0.0
O620 O 0.76176 0.50283 0.19143 0.0
O621 O 0.84319 0.50158 0.19101 0.0
C622 C 0.74091 0.47812 0.18924 0.0
H623 H 0.79646 0.55887 0.1668 0.0
H624 H 0.78686 0.39699 0.212 0.0
H625 H 0.90781 0.40146 0.19066 0.0
H626 H 0.83441 0.36352 0.17409 0.0
Co627 Co 0.78807 0.55976 0.43899 0.0
C628 C 0.77977 0.54956 0.42202 0.0
C629 C 0.73427 0.56968 0.42743 0.0
C630 C 0.72766 0.56674 0.41977 0.0
N631 N 0.76751 0.56055 0.42883 0.0
N632 N 0.75625 0.55402 0.41641 0.0
H633 H 0.8047 0.53778 0.4211 0.0
H634 H 0.71603 0.57822 0.43172 0.0
C635 C 0.76032 0.63134 0.4373 0.0
O636 O 0.77396 0.62976 0.43045 0.0
N637 N 0.80652 0.55768 0.4492 0.0
C638 C 0.8386 0.54781 0.4513 0.0
C639 C 0.84023 0.54758 0.45915 0.0
C640 C 0.78899 0.56311 0.45573 0.0
N641 N 0.80899 0.55713 0.46193 0.0
C642 C 0.85034 0.57846 0.4304 0.0
C643 C 0.86264 0.63833 0.43855 0.0
C644 C 0.88393 0.63073 0.43232 0.0
C645 C 0.87795 0.60003 0.42827 0.0
C646 C 0.83556 0.61632 0.44042 0.0
N647 N 0.82802 0.58798 0.43607 0.0
H648 H 0.84781 0.55377 0.42766 0.0
H649 H 0.82039 0.62234 0.44541 0.0
H650 H 0.85916 0.54086 0.4474 0.0
H651 H 0.76184 0.57012 0.45592 0.0
O652 O 0.80708 0.5144 0.43695 0.0
O653 O 0.75489 0.52343 0.44173 0.0
O654 O 0.76182 0.60465 0.44171 0.0
C655 C 0.77839 0.50126 0.43951 0.0
H656 H 0.70365 0.57299 0.41688 0.0
H657 H 0.8627 0.54079 0.46253 0.0
H658 H 0.86651 0.66144 0.44194 0.0
H659 H 0.89487 0.5924 0.42365 0.0
Co660 Co 0.72884 0.47954 0.81294 0.0
C661 C 0.7309 0.48458 0.83021 0.0
C662 C 0.72925 0.53349 0.82449 0.0
C663 C 0.72929 0.53943 0.83221 0.0
N664 N 0.72953 0.49909 0.82319 0.0
N665 N 0.7303 0.50867 0.83579 0.0
H666 H 0.73179 0.45731 0.83135 0.0
H667 H 0.72844 0.55299 0.82007 0.0
C668 C 0.65976 0.51325 0.81495 0.0
O669 O 0.66139 0.50118 0.82193 0.0
N670 N 0.7293 0.4619 0.80267 0.0
C671 C 0.73748 0.42967 0.80041 0.0
C672 C 0.73605 0.42842 0.79257 0.0
C673 C 0.7233 0.47991 0.79623 0.0
N674 N 0.72717 0.46005 0.78994 0.0
C675 C 0.70931 0.41568 0.82064 0.0
C676 C 0.64649 0.4092 0.81321 0.0
C677 C 0.65554 0.38453 0.81868 0.0
C678 C 0.68757 0.38769 0.8224 0.0
C679 C 0.6687 0.4365 0.8117 0.0
N680 N 0.69865 0.44103 0.81574 0.0
H681 H 0.73509 0.4163 0.82303 0.0
H682 H 0.66211 0.45345 0.80706 0.0
H683 H 0.74441 0.40871 0.8042 0.0
H684 H 0.71632 0.507 0.79618 0.0
O685 O 0.7732 0.45792 0.81484 0.0
O686 O 0.76705 0.51069 0.81022 0.0
O687 O 0.68565 0.50876 0.8104 0.0
C688 C 0.78793 0.48588 0.81235 0.0
H689 H 0.72882 0.56444 0.83498 0.0
H690 H 0.74204 0.40612 0.78909 0.0
H691 H 0.62241 0.40735 0.81005 0.0
H692 H 0.69615 0.36821 0.82641 0.0
Co693 Co 0.78635 0.45522 0.06323 0.0
C694 C 0.77432 0.46154 0.07977 0.0
C695 C 0.72933 0.44225 0.07392 0.0
C696 C 0.72218 0.44366 0.08161 0.0
N697 N 0.76207 0.45316 0.07282 0.0
N698 N 0.7505 0.45576 0.08527 0.0
H699 H 0.80045 0.47065 0.08079 0.0
H700 H 0.71201 0.4336 0.06946 0.0
C701 C 0.77835 0.38494 0.05655 0.0
O702 O 0.8107 0.38928 0.05441 0.0
N703 N 0.80898 0.45887 0.05332 0.0
C704 C 0.83716 0.47755 0.05133 0.0
C705 C 0.83906 0.47932 0.0435 0.0
C706 C 0.79325 0.45142 0.04663 0.0
N707 N 0.81136 0.46282 0.04054 0.0
C708 C 0.85727 0.43553 0.06717 0.0
C709 C 0.83873 0.37453 0.07429 0.0
C710 C 0.87394 0.38113 0.07301 0.0
C711 C 0.88317 0.41277 0.06964 0.0
C712 C 0.81387 0.39759 0.07162 0.0
N713 N 0.82311 0.4267 0.06767 0.0
H714 H 0.86491 0.45998 0.06484 0.0
H715 H 0.78689 0.39126 0.07251 0.0
H716 H 0.85355 0.4919 0.05518 0.0
H717 H 0.76776 0.43987 0.04625 0.0
O718 O 0.80375 0.50048 0.06595 0.0
O719 O 0.75455 0.49168 0.0598 0.0
O720 O 0.76226 0.41015 0.05983 0.0
C721 C 0.77655 0.51376 0.06272 0.0
H722 H 0.69793 0.43652 0.08428 0.0
H723 H 0.85855 0.49312 0.04028 0.0
H724 H 0.83023 0.3513 0.07718 0.0
H725 H 0.91005 0.41954 0.06869 0.0
Co726 Co 0.79573 0.53051 0.3131 0.0
C727 C 0.78754 0.52365 0.33016 0.0
C728 C 0.80208 0.47641 0.32464 0.0
C729 C 0.80006 0.47032 0.33234 0.0
N730 N 0.79571 0.51021 0.32326 0.0
N731 N 0.79082 0.50001 0.33576 0.0
H732 H 0.77896 0.5497 0.33118 0.0
H733 H 0.80836 0.45751 0.32031 0.0
C734 C 0.86606 0.49926 0.31482 0.0
O735 O 0.86504 0.51236 0.32173 0.0
N736 N 0.79455 0.5488 0.30289 0.0
C737 C 0.78463 0.58063 0.3007 0.0
C738 C 0.7856 0.58214 0.29286 0.0
C739 C 0.80125 0.53134 0.29642 0.0
N740 N 0.79603 0.55108 0.29016 0.0
C741 C 0.81563 0.59294 0.32139 0.0
C742 C 0.87742 0.60172 0.31367 0.0
C743 C 0.8695 0.62427 0.31966 0.0
C744 C 0.83782 0.62008 0.32347 0.0
C745 C 0.85468 0.57522 0.31182 0.0
N746 N 0.82541 0.56932 0.31601 0.0
H747 H 0.7902 0.59184 0.32389 0.0
H748 H 0.86072 0.55943 0.30694 0.0
H749 H 0.77667 0.60105 0.30453 0.0
H750 H 0.80954 0.50464 0.29634 0.0
O751 O 0.75108 0.5512 0.31512 0.0
O752 O 0.75805 0.49881 0.31034 0.0
O753 O 0.8395 0.50243 0.3104 0.0
C754 C 0.7368 0.52312 0.31256 0.0
H755 H 0.80473 0.446 0.33522 0.0
H756 H 0.77817 0.60419 0.28944 0.0
H757 H 0.90121 0.60424 0.31044 0.0
H758 H 0.82991 0.63808 0.32787 0.0
Co759 Co 0.72621 0.54758 0.56325 0.0
C760 C 0.73352 0.53958 0.58034 0.0
C761 C 0.78178 0.54672 0.57451 0.0
C762 C 0.78852 0.5432 0.58217 0.0
N763 N 0.74722 0.54522 0.57335 0.0
N764 N 0.75814 0.53872 0.58582 0.0
H765 H 0.70644 0.53613 0.58152 0.0
H766 H 0.80083 0.55026 0.57006 0.0
C767 C 0.7588 0.61688 0.56567 0.0
O768 O 0.74783 0.61374 0.57272 0.0
N769 N 0.7071 0.54882 0.55311 0.0
C770 C 0.67442 0.54124 0.55099 0.0
C771 C 0.67242 0.54302 0.54315 0.0
C772 C 0.72457 0.55494 0.5466 0.0
N773 N 0.70399 0.55158 0.5404 0.0
C774 C 0.66301 0.56314 0.57156 0.0
C775 C 0.65306 0.62744 0.56508 0.0
C776 C 0.62957 0.61583 0.57057 0.0
C777 C 0.6345 0.58314 0.57381 0.0
C778 C 0.68122 0.60692 0.5631 0.0
N779 N 0.68732 0.57606 0.56666 0.0
H780 H 0.66462 0.53677 0.57351 0.0
H781 H 0.69736 0.61546 0.55847 0.0
H782 H 0.65369 0.53442 0.55485 0.0
H783 H 0.75205 0.56053 0.54642 0.0
O784 O 0.70574 0.50256 0.56484 0.0
O785 O 0.75787 0.51057 0.55997 0.0
O786 O 0.75414 0.59179 0.56093 0.0
C787 C 0.73373 0.48886 0.56207 0.0
H788 H 0.81387 0.54334 0.58482 0.0
H789 H 0.64946 0.53827 0.53976 0.0
H790 H 0.64936 0.65203 0.56223 0.0
H791 H 0.61576 0.5726 0.57777 0.0
Co792 Co 0.29596 0.47191 0.31287 0.0
C793 C 0.28943 0.47835 0.33001 0.0
C794 C 0.29352 0.52689 0.3242 0.0
C795 C 0.29069 0.53327 0.33188 0.0
N796 N 0.29345 0.49243 0.323 0.0
N797 N 0.28813 0.50273 0.33552 0.0
H798 H 0.28761 0.45116 0.33118 0.0
H799 H 0.29572 0.54612 0.31975 0.0
C800 C 0.3646 0.50613 0.31526 0.0
O801 O 0.36182 0.49513 0.32232 0.0
N802 N 0.29726 0.4531 0.3027 0.0
C803 C 0.28889 0.42076 0.30056 0.0
C804 C 0.29103 0.41869 0.29274 0.0
C805 C 0.3042 0.47034 0.29621 0.0
N806 N 0.30063 0.44991 0.28999 0.0
C807 C 0.31335 0.40868 0.32098 0.0
C808 C 0.37841 0.4018 0.31459 0.0
C809 C 0.36777 0.3776 0.32003 0.0
C810 C 0.33452 0.38093 0.32319 0.0
C811 C 0.35654 0.42878 0.31258 0.0
N812 N 0.32544 0.43362 0.31615 0.0
H813 H 0.28692 0.40945 0.32299 0.0
H814 H 0.36447 0.44527 0.30796 0.0
H815 H 0.28108 0.40036 0.30441 0.0
H816 H 0.31138 0.49736 0.29608 0.0
O817 O 0.25123 0.45064 0.31449 0.0
O818 O 0.25835 0.50291 0.30967 0.0
O819 O 0.33954 0.50081 0.31054 0.0
C820 C 0.23703 0.47844 0.31177 0.0
H821 H 0.29003 0.55847 0.33456 0.0
H822 H 0.28484 0.39612 0.28937 0.0
H823 H 0.40351 0.39998 0.31185 0.0
H824 H 0.32462 0.36182 0.32714 0.0
Co825 Co 0.29112 0.55172 0.06221 0.0
C826 C 0.28102 0.54766 0.07887 0.0
C827 C 0.236 0.56773 0.07317 0.0
C828 C 0.22976 0.56752 0.0809 0.0
N829 N 0.26817 0.55551 0.07193 0.0
N830 N 0.2581 0.55494 0.08448 0.0
H831 H 0.30694 0.53774 0.0798 0.0
H832 H 0.21842 0.57642 0.06876 0.0
C833 C 0.2841 0.6215 0.05515 0.0
O834 O 0.31602 0.61601 0.05282 0.0
N835 N 0.31249 0.54674 0.05221 0.0
C836 C 0.3413 0.52933 0.05012 0.0
C837 C 0.34197 0.52656 0.04228 0.0
C838 C 0.29546 0.55275 0.0456 0.0
N839 N 0.31303 0.54132 0.03944 0.0
C840 C 0.36226 0.56542 0.06669 0.0
C841 C 0.34949 0.6305 0.07256 0.0
C842 C 0.38381 0.61867 0.07226 0.0
C843 C 0.38988 0.58515 0.06949 0.0
C844 C 0.32278 0.60979 0.0698 0.0
N845 N 0.32952 0.5787 0.06639 0.0
H846 H 0.3672 0.53924 0.06495 0.0
H847 H 0.29651 0.61918 0.07033 0.0
H848 H 0.35922 0.5167 0.05391 0.0
H849 H 0.26998 0.56435 0.0454 0.0
O850 O 0.30729 0.50619 0.06498 0.0
O851 O 0.25776 0.51596 0.05905 0.0
O852 O 0.26797 0.59719 0.05873 0.0
C853 C 0.27951 0.49346 0.0619 0.0
H854 H 0.20608 0.57578 0.08366 0.0
H855 H 0.36125 0.51269 0.03901 0.0
H856 H 0.34313 0.65593 0.07472 0.0
H857 H 0.41568 0.57409 0.06952 0.0
Co858 Co 0.22919 0.53395 0.81277 0.0
C859 C 0.23284 0.52926 0.83 0.0
C860 C 0.2319 0.48016 0.82434 0.0
C861 C 0.23328 0.47447 0.83207 0.0
N862 N 0.23108 0.51451 0.82301 0.0
N863 N 0.23384 0.50536 0.83562 0.0
H864 H 0.23286 0.55657 0.83109 0.0
H865 H 0.23117 0.46052 0.81996 0.0
C866 C 0.16023 0.50045 0.8152 0.0
O867 O 0.16285 0.51217 0.8222 0.0
N868 N 0.22843 0.55156 0.8025 0.0
C869 C 0.23737 0.58346 0.80017 0.0
C870 C 0.23501 0.58461 0.79234 0.0
C871 C 0.22093 0.53368 0.79612 0.0
N872 N 0.22469 0.55326 0.78978 0.0
C873 C 0.21242 0.59835 0.82041 0.0
C874 C 0.14856 0.60639 0.8135 0.0
C875 C 0.15988 0.63156 0.81864 0.0
C876 C 0.19228 0.62749 0.82213 0.0
C877 C 0.16924 0.5778 0.81202 0.0
N878 N 0.19992 0.57283 0.81577 0.0
H879 H 0.23855 0.59703 0.82259 0.0
H880 H 0.1611 0.56053 0.80756 0.0
H881 H 0.24561 0.6042 0.80389 0.0
H882 H 0.2131 0.50684 0.79616 0.0
O883 O 0.27389 0.55521 0.81439 0.0
O884 O 0.26694 0.5025 0.80982 0.0
O885 O 0.18551 0.50508 0.8105 0.0
C886 C 0.28819 0.52716 0.81185 0.0
H887 H 0.23415 0.44952 0.83485 0.0
H888 H 0.24144 0.60664 0.78882 0.0
H889 H 0.12414 0.60912 0.8105 0.0
H890 H 0.20252 0.64728 0.82588 0.0
Co891 Co 0.22999 0.45459 0.56241 0.0
C892 C 0.23775 0.46397 0.57942 0.0
C893 C 0.28393 0.44573 0.57396 0.0
C894 C 0.29038 0.44834 0.58164 0.0
N895 N 0.25045 0.45399 0.57257 0.0
N896 N 0.26136 0.45989 0.58502 0.0
H897 H 0.21236 0.4746 0.58039 0.0
H898 H 0.30242 0.43796 0.56966 0.0
C899 C 0.25863 0.38336 0.56412 0.0
O900 O 0.24507 0.38476 0.57098 0.0
N901 N 0.21173 0.4564 0.5522 0.0
C902 C 0.17988 0.46646 0.55001 0.0
C903 C 0.17894 0.46728 0.54216 0.0
C904 C 0.22977 0.45144 0.54572 0.0
N905 N 0.21041 0.4579 0.53943 0.0
C906 C 0.16714 0.43715 0.57077 0.0
C907 C 0.15433 0.37673 0.56285 0.0
C908 C 0.13209 0.38599 0.5688 0.0
C909 C 0.13849 0.41679 0.57276 0.0
C910 C 0.18262 0.39754 0.56113 0.0
N911 N 0.19012 0.42633 0.56535 0.0
H912 H 0.16971 0.46224 0.57333 0.0
H913 H 0.19824 0.39069 0.55626 0.0
H914 H 0.15914 0.47357 0.55385 0.0
H915 H 0.25678 0.44405 0.5457 0.0
O916 O 0.21049 0.49961 0.56445 0.0
O917 O 0.2628 0.49146 0.55967 0.0
O918 O 0.25666 0.40999 0.55971 0.0
C919 C 0.23894 0.51323 0.56191 0.0
H920 H 0.31453 0.44261 0.58453 0.0
H921 H 0.15685 0.47524 0.5388 0.0
H922 H 0.14982 0.3536 0.55951 0.0
H923 H 0.12081 0.42568 0.57714 0.0
Co924 Co 0.29981 0.53105 0.18811 0.0
C925 C 0.29498 0.5275 0.17088 0.0
C926 C 0.29877 0.47806 0.17633 0.0
C927 C 0.29665 0.47292 0.16859 0.0
N928 N 0.29843 0.5123 0.1778 0.0
N929 N 0.2943 0.50401 0.16517 0.0
H930 H 0.29307 0.55485 0.16993 0.0
H931 H 0.3006 0.45813 0.18063 0.0
C932 C 0.36875 0.49734 0.18578 0.0
O933 O 0.36673 0.50989 0.17884 0.0
N934 N 0.29994 0.54809 0.19843 0.0
C935 C 0.291 0.57998 0.20077 0.0
C936 C 0.29254 0.58089 0.20861 0.0
C937 C 0.30664 0.52996 0.20482 0.0
N938 N 0.30236 0.5494 0.21117 0.0
C939 C 0.31873 0.59562 0.18063 0.0
C940 C 0.38205 0.60154 0.18788 0.0
C941 C 0.37244 0.62688 0.18261 0.0
C942 C 0.34019 0.62396 0.17897 0.0
C943 C 0.36009 0.57393 0.1893 0.0
N944 N 0.32982 0.56977 0.18535 0.0
H945 H 0.29276 0.59526 0.17835 0.0
H946 H 0.36709 0.55652 0.19383 0.0
H947 H 0.28327 0.60088 0.19705 0.0
H948 H 0.3142 0.50304 0.20478 0.0
O949 O 0.25527 0.55273 0.18642 0.0
O950 O 0.2618 0.49966 0.19083 0.0
O951 O 0.34315 0.50161 0.19042 0.0
C952 C 0.24074 0.52455 0.18885 0.0
H953 H 0.29629 0.44816 0.16571 0.0
H954 H 0.28584 0.60288 0.21212 0.0
H955 H 0.40633 0.60315 0.19097 0.0
H956 H 0.33117 0.64392 0.17513 0.0
Co957 Co 0.22085 0.55639 0.9386 0.0
C958 C 0.23147 0.55264 0.92193 0.0
C959 C 0.27562 0.57419 0.92771 0.0
C960 C 0.28227 0.57387 0.92 0.0
N961 N 0.24373 0.56114 0.92889 0.0
N962 N 0.25449 0.56034 0.91638 0.0
H963 H 0.20597 0.5418 0.92097 0.0
H964 H 0.2928 0.58335 0.93214 0.0
C965 C 0.22652 0.6263 0.94568 0.0
O966 O 0.19479 0.62032 0.94807 0.0
N967 N 0.19963 0.55029 0.94859 0.0
C968 C 0.17294 0.52947 0.95056 0.0
C969 C 0.17245 0.52563 0.95836 0.0
C970 C 0.2158 0.55733 0.95527 0.0
N971 N 0.19947 0.54318 0.96131 0.0
C972 C 0.14876 0.57064 0.9349 0.0
C973 C 0.16096 0.63503 0.9286 0.0
C974 C 0.12667 0.62432 0.9297 0.0
C975 C 0.12071 0.59117 0.93266 0.0
C976 C 0.18811 0.61378 0.93095 0.0
N977 N 0.18184 0.58301 0.93455 0.0
H978 H 0.14371 0.54485 0.93685 0.0
H979 H 0.21435 0.62277 0.93011 0.0
H980 H 0.15694 0.51491 0.94668 0.0
H981 H 0.24057 0.57037 0.95563 0.0
O982 O 0.20569 0.51057 0.93571 0.0
O983 O 0.25503 0.52133 0.94163 0.0
O984 O 0.24304 0.60217 0.94213 0.0
C985 C 0.23382 0.49839 0.93875 0.0
H986 H 0.3059 0.58254 0.91728 0.0
H987 H 0.15462 0.50964 0.96156 0.0
H988 H 0.16686 0.66022 0.92624 0.0
H989 H 0.09458 0.58129 0.93329 0.0
Co990 Co 0.20849 0.47422 0.68815 0.0
C991 C 0.21782 0.48228 0.67116 0.0
C992 C 0.19943 0.52823 0.67664 0.0
C993 C 0.20211 0.53476 0.66897 0.0
N994 N 0.20767 0.49482 0.67801 0.0
N995 N 0.21375 0.50588 0.66557 0.0
H996 H 0.22868 0.45703 0.67019 0.0
H997 H 0.19167 0.54663 0.68096 0.0
C998 C 0.13738 0.50337 0.68658 0.0
O999 O 0.13837 0.4899 0.67971 0.0
N1000 N 0.21062 0.45564 0.69833 0.0
C1001 C 0.22096 0.42376 0.70039 0.0
C1002 C 0.22108 0.42193 0.70823 0.0
C1003 C 0.20481 0.47285 0.70488 0.0
N1004 N 0.21096 0.45285 0.71106 0.0
C1005 C 0.1891 0.41208 0.67965 0.0
C1006 C 0.12885 0.40079 0.68779 0.0
C1007 C 0.13651 0.37898 0.68166 0.0
C1008 C 0.16735 0.3845 0.6776 0.0
C1009 C 0.15104 0.42781 0.68958 0.0
N1010 N 0.17961 0.4348 0.68523 0.0
H1011 H 0.21397 0.41419 0.67694 0.0
H1012 H 0.14511 0.4432 0.69453 0.0
H1013 H 0.22856 0.40356 0.69647 0.0
H1014 H 0.19658 0.49957 0.70507 0.0
O1015 O 0.25362 0.45473 0.68603 0.0
O1016 O 0.2452 0.50684 0.69087 0.0
O1017 O 0.16418 0.50108 0.69095 0.0
C1018 C 0.2671 0.48319 0.68861 0.0
H1019 H 0.19644 0.5589 0.66611 0.0
H1020 H 0.22914 0.3998 0.71156 0.0
H1021 H 0.10564 0.39725 0.69117 0.0
H1022 H 0.17501 0.36718 0.67305 0.0
Co1023 Co 0.28977 0.46087 0.4384 0.0
C1024 C 0.27678 0.46562 0.42186 0.0
C1025 C 0.2323 0.44631 0.42787 0.0
C1026 C 0.22485 0.44685 0.42019 0.0
N1027 N 0.26491 0.4578 0.42888 0.0
N1028 N 0.25286 0.45896 0.41642 0.0
H1029 H 0.30277 0.47493 0.42075 0.0
H1030 H 0.21528 0.4378 0.43239 0.0
C1031 C 0.28269 0.39104 0.44539 0.0
O1032 O 0.31526 0.39569 0.44735 0.0
N1033 N 0.3132 0.46549 0.44819 0.0
C1034 C 0.34109 0.48501 0.45001 0.0
C1035 C 0.34364 0.48742 0.45783 0.0
C1036 C 0.29836 0.45798 0.45498 0.0
N1037 N 0.31677 0.47022 0.46093 0.0
C1038 C 0.36048 0.44193 0.43417 0.0
C1039 C 0.34216 0.37914 0.42779 0.0
C1040 C 0.37729 0.38685 0.42874 0.0
C1041 C 0.38649 0.41929 0.43168 0.0
C1042 C 0.31722 0.40244 0.4303 0.0
N1043 N 0.32643 0.43233 0.43395 0.0
H1044 H 0.36788 0.4669 0.43629 0.0
H1045 H 0.29026 0.39558 0.42958 0.0
H1046 H 0.35686 0.49931 0.44603 0.0
H1047 H 0.27329 0.44568 0.45554 0.0
O1048 O 0.30667 0.50592 0.43544 0.0
O1049 O 0.25804 0.49753 0.44181 0.0
O1050 O 0.26619 0.41592 0.44207 0.0
C1051 C 0.27979 0.51941 0.43873 0.0
H1052 H 0.20063 0.43905 0.41758 0.0
H1053 H 0.36294 0.50193 0.46097 0.0
H1054 H 0.33395 0.3549 0.42527 0.0
H1055 H 0.41346 0.42662 0.4323 0.0
C1056 C 0.20839 0.93793 0.27609 0.0
C1057 C 0.20692 0.96254 0.28199 0.0
C1058 C 0.20757 0.94822 0.26845 0.0
C1059 C 0.2229 0.02437 0.25603 0.0
H1060 H 0.17309 0.97004 0.24102 0.0
C1061 C 0.20392 0.07128 0.22505 0.0
C1062 C 0.20919 0.04685 0.21922 0.0
C1063 C 0.20238 0.061 0.23269 0.0
C1064 C 0.18736 0.98533 0.24513 0.0
H1065 H 0.20342 0.01753 0.28437 0.0
H1066 H 0.20103 0.03529 0.2711 0.0
H1067 H 0.17258 0.95227 0.25436 0.0
H1068 H 0.21684 0.99219 0.21695 0.0
H1069 H 0.21384 0.97434 0.23023 0.0
H1070 H 0.23753 0.0575 0.24681 0.0
C1071 C 0.20336 0.00799 0.27238 0.0
C1072 C 0.18713 0.97512 0.25279 0.0
C1073 C 0.20428 0.99772 0.28002 0.0
C1074 C 0.21229 0.01175 0.22124 0.0
C1075 C 0.2106 1.00146 0.22887 0.0
C1076 C 0.22299 0.03465 0.24839 0.0
C1077 C 0.20516 0.98341 0.26649 0.0
C1078 C 0.20497 0.99446 0.25834 0.0
C1079 C 0.20591 0.026 0.2347 0.0
C1080 C 0.2053 0.01523 0.24284 0.0
H1081 H 0.21002 0.91061 0.27735 0.0
H1082 H 0.20938 0.92856 0.26407 0.0
H1083 H 0.23745 0.03958 0.26011 0.0
H1084 H 0.20076 0.09841 0.22373 0.0
H1085 H 0.19815 0.0805 0.23702 0.0
C1086 C 0.24558 0.93364 0.47116 0.0
C1087 C 0.21778 0.95483 0.4689 0.0
C1088 C 0.25511 0.93122 0.47884 0.0
C1089 C 0.22268 0.94796 0.49846 0.0
H1090 H 0.32035 0.94663 0.50369 0.0
C1091 C 0.27028 0.93101 0.52958 0.0
C1092 C 0.29859 0.95142 0.53189 0.0
C1093 C 0.26043 0.92953 0.5219 0.0
C1094 C 0.29295 0.94718 0.50234 0.0
H1095 H 0.17852 0.99043 0.47299 0.0
H1096 H 0.19518 0.98642 0.48633 0.0
H1097 H 0.30301 0.94808 0.49035 0.0
H1098 H 0.3383 0.98676 0.5279 0.0
H1099 H 0.3211 0.98436 0.51458 0.0
H1100 H 0.21265 0.94814 0.51046 0.0
C1101 C 0.20924 0.97108 0.48219 0.0
C1102 C 0.28299 0.94757 0.49467 0.0
C1103 C 0.19967 0.97342 0.47452 0.0
C1104 C 0.31678 0.97029 0.52633 0.0
C1105 C 0.3069 0.96888 0.51867 0.0
C1106 C 0.23265 0.9476 0.50613 0.0
C1107 C 0.23712 0.95001 0.48446 0.0
C1108 C 0.24772 0.94822 0.49263 0.0
C1109 C 0.2786 0.94849 0.51634 0.0
C1110 C 0.26793 0.94748 0.50817 0.0
H1111 H 0.25977 0.91858 0.467 0.0
H1112 H 0.27638 0.91433 0.48039 0.0
H1113 H 0.19528 0.948 0.4971 0.0
H1114 H 0.25599 0.9158 0.53369 0.0
H1115 H 0.23881 0.91318 0.52031 0.0
C1116 C 0.31298 0.93817 0.72576 0.0
C1117 C 0.30782 0.96293 0.71999 0.0
C1118 C 0.31405 0.94796 0.73343 0.0
C1119 C 0.2868 0.01879 0.74633 0.0
H1120 H 0.34913 0.9745 0.76068 0.0
C1121 C 0.30351 0.06919 0.77695 0.0
C1122 C 0.30359 0.04469 0.78287 0.0
C1123 C 0.30558 0.05879 0.76934 0.0
C1124 C 0.33136 0.98688 0.75675 0.0
H1125 H 0.30029 0.01772 0.71787 0.0
H1126 H 0.30318 0.03482 0.73117 0.0
H1127 H 0.35041 0.95768 0.74726 0.0
H1128 H 0.30666 0.98986 0.78538 0.0
H1129 H 0.31054 0.97169 0.77206 0.0
H1130 H 0.26791 0.04812 0.75579 0.0
C1131 C 0.30574 0.00767 0.72977 0.0
C1132 C 0.33205 0.97724 0.74906 0.0
C1133 C 0.30453 0.99787 0.72211 0.0
C1134 C 0.30677 0.00947 0.78098 0.0
C1135 C 0.30898 0.99904 0.77334 0.0
C1136 C 0.28624 0.02852 0.754 0.0
C1137 C 0.31014 0.98281 0.73555 0.0
C1138 C 0.30979 0.99312 0.74374 0.0
C1139 C 0.30794 0.0236 0.76744 0.0
C1140 C 0.30855 0.01276 0.7593 0.0
H1141 H 0.31614 0.91111 0.72437 0.0
H1142 H 0.31721 0.92804 0.73771 0.0
H1143 H 0.26875 0.03107 0.74245 0.0
H1144 H 0.30198 0.09656 0.77816 0.0
H1145 H 0.30546 0.07842 0.76494 0.0
C1146 C 0.31095 0.02095 0.97306 0.0
C1147 C 0.30433 0.04871 0.96811 0.0
C1148 C 0.30208 0.0231 0.98077 0.0
C1149 C 0.24604 0.07246 0.99416 0.0
H1150 H 0.3025 0.02672 0.0094 0.0
C1151 C 0.19831 0.05317 0.02503 0.0
C1152 C 0.22258 0.05436 0.03103 0.0
C1153 C 0.2091 0.05423 0.01743 0.0
C1154 C 0.28661 0.04006 0.00525 0.0
H1155 H 0.28419 0.10084 0.96739 0.0
H1156 H 0.2695 0.10511 0.98088 0.0
H1157 H 0.32076 0.02619 0.99615 0.0
H1158 H 0.27768 0.0583 0.03354 0.0
H1159 H 0.29615 0.06149 0.02037 0.0
H1160 H 0.21251 0.08733 0.00328 0.0
C1161 C 0.28064 0.08123 0.97879 0.0
C1162 C 0.29684 0.03928 0.99761 0.0
C1163 C 0.28916 0.07889 0.97106 0.0
C1164 C 0.25798 0.05744 0.02916 0.0
C1165 C 0.26873 0.05883 0.02155 0.0
C1166 C 0.23599 0.07352 0.00181 0.0
C1167 C 0.28673 0.05325 0.98374 0.0
C1168 C 0.27654 0.0552 0.99194 0.0
C1169 C 0.24447 0.05692 0.01558 0.0
C1170 C 0.25595 0.05706 0.00746 0.0
H1171 H 0.32214 0.99717 0.97093 0.0
H1172 H 0.30658 1.00076 0.98435 0.0
H1173 H 0.22947 0.08469 0.98997 0.0
H1174 H 0.17083 0.05131 0.02615 0.0
H1175 H 0.18961 0.05226 0.01301 0.0
C1176 C 0.80036 0.94698 0.77705 0.0
C1177 C 0.80065 0.97141 0.783 0.0
C1178 C 0.80206 0.95744 0.76945 0.0
C1179 C 0.82678 0.02949 0.75677 0.0
H1180 H 0.76449 0.98388 0.74262 0.0
C1181 C 0.80851 0.07516 0.7255 0.0
C1182 C 0.80404 0.04964 0.71985 0.0
C1183 C 0.80931 0.0663 0.73323 0.0
C1184 C 0.78242 0.99659 0.74646 0.0
H1185 H 0.80388 0.02618 0.78554 0.0
H1186 H 0.80705 0.04452 0.77221 0.0
H1187 H 0.76389 0.96764 0.75601 0.0
H1188 H 0.79731 0.99453 0.71803 0.0
H1189 H 0.79964 0.97908 0.73144 0.0
H1190 H 0.84544 0.05832 0.74719 0.0
C1191 C 0.80557 0.01716 0.77348 0.0
C1192 C 0.78201 0.98731 0.75415 0.0
C1193 C 0.80377 0.00665 0.78112 0.0
C1194 C 0.80105 0.01494 0.72217 0.0
C1195 C 0.80193 0.00609 0.72989 0.0
C1196 C 0.82728 0.03871 0.74905 0.0
C1197 C 0.80422 0.99266 0.76755 0.0
C1198 C 0.80431 1.00347 0.7594 0.0
C1199 C 0.80573 0.03166 0.73554 0.0
C1200 C 0.80522 0.02223 0.74378 0.0
H1201 H 0.79891 0.91959 0.77826 0.0
H1202 H 0.80178 0.93783 0.76504 0.0
H1203 H 0.8445 0.04221 0.76066 0.0
H1204 H 0.81139 0.10208 0.72396 0.0
H1205 H 0.81203 0.08674 0.73741 0.0
C1206 C 0.69508 0.03036 0.47425 0.0
C1207 C 0.71183 0.05181 0.46893 0.0
C1208 C 0.70461 0.03095 0.48195 0.0
C1209 C 0.77701 0.05471 0.49472 0.0
H1210 H 0.70701 0.04858 0.51052 0.0
C1211 C 0.81195 0.02858 0.52619 0.0
C1212 C 0.79379 0.04697 0.53184 0.0
C1213 C 0.80171 0.03023 0.51855 0.0
C1214 C 0.72688 0.05059 0.50618 0.0
H1215 H 0.75126 0.09136 0.46762 0.0
H1216 H 0.76794 0.09228 0.48102 0.0
H1217 H 0.68942 0.05023 0.49716 0.0
H1218 H 0.7507 0.0819 0.5338 0.0
H1219 H 0.73277 0.08468 0.52048 0.0
H1220 H 0.81445 0.05544 0.50373 0.0
C1221 C 0.74777 0.07459 0.47921 0.0
C1222 C 0.71681 0.05114 0.49852 0.0
C1223 C 0.73821 0.07403 0.47152 0.0
C1224 C 0.76502 0.06701 0.52964 0.0
C1225 C 0.75474 0.06863 0.52199 0.0
C1226 C 0.78708 0.05405 0.50238 0.0
C1227 C 0.73115 0.05299 0.48452 0.0
C1228 C 0.74176 0.05309 0.49269 0.0
C1229 C 0.773 0.05029 0.51635 0.0
C1230 C 0.76216 0.05184 0.50821 0.0
H1231 H 0.67501 0.01257 0.47247 0.0
H1232 H 0.69161 0.01359 0.48586 0.0
H1233 H 0.79694 0.0559 0.49038 0.0
H1234 H 0.83381 0.01237 0.52766 0.0
H1235 H 0.81601 0.01528 0.51439 0.0
C1236 C 0.6665 0.05387 0.27762 0.0
C1237 C 0.69474 0.05431 0.2827 0.0
C1238 C 0.67101 0.04419 0.27002 0.0
C1239 C 0.7354 0.03624 0.25469 0.0
H1240 H 0.66912 0.97171 0.24606 0.0
C1241 C 0.72715 1.00449 0.22231 0.0
C1242 C 0.72362 0.96936 0.22039 0.0
C1243 C 0.7248 0.01526 0.22992 0.0
C1244 C 0.68792 0.98963 0.24839 0.0
H1245 H 0.75 0.04548 0.28371 0.0
H1246 H 0.75801 0.02872 0.27034 0.0
H1247 H 0.66336 0.98968 0.25932 0.0
H1248 H 0.71434 0.91813 0.22495 0.0
H1249 H 0.71009 0.93687 0.23819 0.0
H1250 H 0.7599 0.03616 0.2437 0.0
C1251 C 0.73236 0.03592 0.27229 0.0
C1252 C 0.68447 1.00015 0.25597 0.0
C1253 C 0.72776 0.04527 0.27994 0.0
C1254 C 0.71752 0.94531 0.22624 0.0
C1255 C 0.71478 0.95609 0.23382 0.0
C1256 C 0.73864 0.026 0.24706 0.0
C1257 C 0.70392 0.03492 0.26726 0.0
C1258 C 0.70814 0.02357 0.25921 0.0
C1259 C 0.71841 0.99118 0.23576 0.0
C1260 C 0.71497 1.0025 0.24383 0.0
H1261 H 0.64063 0.06016 0.27956 0.0
H1262 H 0.64864 0.04397 0.26628 0.0
H1263 H 0.75392 0.05448 0.25701 0.0
H1264 H 0.73215 0.0236 0.21794 0.0
H1265 H 0.72747 0.04251 0.23122 0.0
C1266 C 0.80756 0.97235 0.97688 0.0
C1267 C 0.7863 0.95819 0.97114 0.0
C1268 C 0.79751 0.9713 0.98452 0.0
C1269 C 0.72088 0.96334 0.99696 0.0
H1270 H 0.78923 0.94263 0.01252 0.0
C1271 C 0.69551 0.98648 0.02907 0.0
C1272 C 0.70814 0.96181 0.03427 0.0
C1273 C 0.70415 0.98456 0.02133 0.0
C1274 C 0.76973 0.94818 0.00825 0.0
H1275 H 0.7377 0.9314 0.9691 0.0
H1276 H 0.72006 0.92997 0.98243 0.0
H1277 H 0.80593 0.94131 0.99912 0.0
H1278 H 0.73903 0.91522 0.03532 0.0
H1279 H 0.75414 0.9119 0.02185 0.0
H1280 H 0.68463 0.97 0.00609 0.0
C1281 C 0.74446 0.94213 0.98096 0.0
C1282 C 0.7794 0.94779 1.00057 0.0
C1283 C 0.7546 0.94301 0.9733 0.0
C1284 C 0.72935 0.93499 0.03151 0.0
C1285 C 0.738 0.93307 0.02378 0.0
C1286 C 0.71123 0.96388 0.00465 0.0
C1287 C 0.76583 0.95622 0.98667 0.0
C1288 C 0.75516 0.95554 0.99483 0.0
C1289 C 0.72563 0.95792 0.0186 0.0
C1290 C 0.73558 0.95645 0.01039 0.0
H1291 H 0.83182 0.98483 0.97548 0.0
H1292 H 0.81434 0.98291 0.98876 0.0
H1293 H 0.70163 0.96969 0.99268 0.0
H1294 H 0.67954 0.00777 0.03098 0.0
H1295 H 0.6946 1.00443 0.01753 0.0
C1296 C 0.71231 0.51469 0.7212 0.0
C1297 C 0.71659 0.54944 0.71902 0.0
C1298 C 0.71204 0.50532 0.7289 0.0
C1299 C 0.70053 0.54076 0.74839 0.0
H1300 H 0.74841 0.45691 0.7544 0.0
C1301 C 0.72789 0.50536 0.77993 0.0
C1302 C 0.72385 0.47052 0.78207 0.0
C1303 C 0.72572 0.51523 0.77227 0.0
C1304 C 0.73457 0.4802 0.75281 0.0
H1305 H 0.72324 0.60161 0.72332 0.0
H1306 H 0.7236 0.58518 0.73672 0.0
H1307 H 0.74715 0.47369 0.74103 0.0
H1308 H 0.71318 0.41899 0.77777 0.0
H1309 H 0.70962 0.43617 0.76445 0.0
H1310 H 0.68828 0.54736 0.76022 0.0
C1311 C 0.72007 0.56519 0.73246 0.0
C1312 C 0.73381 0.48982 0.74514 0.0
C1313 C 0.72028 0.57458 0.72476 0.0
C1314 C 0.71711 0.44592 0.77634 0.0
C1315 C 0.71503 0.45578 0.76869 0.0
C1316 C 0.70138 0.53118 0.75608 0.0
C1317 C 0.71612 0.5304 0.73463 0.0
C1318 C 0.71675 0.5202 0.74282 0.0
C1319 C 0.71953 0.49051 0.76656 0.0
C1320 C 0.71839 0.50075 0.75838 0.0
H1321 H 0.70974 0.49447 0.71698 0.0
H1322 H 0.70848 0.47834 0.73035 0.0
H1323 H 0.68672 0.56406 0.74681 0.0
H1324 H 0.73356 0.52498 0.78414 0.0
H1325 H 0.72973 0.54215 0.77081 0.0
C1326 C 0.69043 0.47366 0.97622 0.0
C1327 C 0.70978 0.45769 0.9704 0.0
C1328 C 0.70167 0.47251 0.98379 0.0
C1329 C 0.78006 0.46059 0.99553 0.0
H1330 H 0.71409 0.44575 0.01188 0.0
C1331 C 0.81371 0.48446 0.02723 0.0
C1332 C 0.80126 0.46053 0.03262 0.0
C1333 C 0.8032 0.48267 0.01961 0.0
C1334 C 0.7329 0.44967 0.00738 0.0
H1335 H 0.75587 0.42721 0.9681 0.0
H1336 H 0.77556 0.42551 0.98129 0.0
H1337 H 0.69428 0.44465 0.99867 0.0
H1338 H 0.7687 0.41527 0.03408 0.0
H1339 H 0.75016 0.41239 0.02082 0.0
H1340 H 0.8187 0.46547 0.00424 0.0
C1341 C 0.75187 0.4393 0.97996 0.0
C1342 C 0.72147 0.44939 0.99981 0.0
C1343 C 0.74057 0.44032 0.97238 0.0
C1344 C 0.77832 0.43454 0.03015 0.0
C1345 C 0.76771 0.43284 0.02253 0.0
C1346 C 0.79145 0.46107 0.0031 0.0
C1347 C 0.7326 0.45546 0.98575 0.0
C1348 C 0.74489 0.45496 0.99379 0.0
C1349 C 0.77991 0.45697 0.01718 0.0
C1350 C 0.76798 0.45571 0.00911 0.0
H1351 H 0.66691 0.48773 0.97492 0.0
H1352 H 0.68646 0.48564 0.9881 0.0
H1353 H 0.79872 0.46526 0.99103 0.0
H1354 H 0.831 0.50512 0.02891 0.0
H1355 H 0.81274 0.50194 0.01566 0.0
C1356 C 0.7998 0.50562 0.2802 0.0
C1357 C 0.79937 0.5408 0.28226 0.0
C1358 C 0.8022 0.49573 0.27255 0.0
C1359 C 0.82554 0.52857 0.25329 0.0
H1360 H 0.77112 0.4501 0.24648 0.0
C1361 C 0.80227 0.49605 0.22145 0.0
C1362 C 0.80457 0.46105 0.2193 0.0
C1363 C 0.80356 0.50564 0.22913 0.0
C1364 C 0.78676 0.47184 0.24831 0.0
H1365 H 0.80195 0.59305 0.27777 0.0
H1366 H 0.80484 0.57584 0.26448 0.0
H1367 H 0.7695 0.46715 0.25983 0.0
H1368 H 0.8112 0.40888 0.22364 0.0
H1369 H 0.81279 0.42562 0.237 0.0
H1370 H 0.84212 0.53358 0.24168 0.0
C1371 C 0.80388 0.55584 0.26879 0.0
C1372 C 0.78592 0.4816 0.25597 0.0
C1373 C 0.80173 0.56575 0.27644 0.0
C1374 C 0.80864 0.43599 0.22504 0.0
C1375 C 0.80965 0.44557 0.23272 0.0
C1376 C 0.82614 0.51896 0.2456 0.0
C1377 C 0.80398 0.52069 0.26674 0.0
C1378 C 0.80529 0.5101 0.25857 0.0
C1379 C 0.80692 0.48047 0.23486 0.0
C1380 C 0.80676 0.49049 0.24303 0.0
H1381 H 0.79776 0.48553 0.28445 0.0
H1382 H 0.80274 0.4684 0.27121 0.0
H1383 H 0.84125 0.55029 0.25509 0.0
H1384 H 0.79866 0.51614 0.21724 0.0
H1385 H 0.80101 0.53272 0.2306 0.0
C1386 C 0.6958 0.53682 0.52678 0.0
C1387 C 0.71403 0.5547 0.5325 0.0
C1388 C 0.70591 0.53924 0.51915 0.0
C1389 C 0.78109 0.56093 0.50699 0.0
H1390 H 0.71186 0.56395 0.49097 0.0
C1391 C 0.81574 0.5388 0.47537 0.0
C1392 C 0.79873 0.55892 0.46983 0.0
C1393 C 0.80556 0.54011 0.48301 0.0
C1394 C 0.73156 0.56347 0.49537 0.0
H1395 H 0.75678 0.58985 0.53461 0.0
H1396 H 0.77438 0.59415 0.52129 0.0
H1397 H 0.69359 0.56386 0.50427 0.0
H1398 H 0.75801 0.59675 0.46807 0.0
H1399 H 0.74027 0.5991 0.4814 0.0
H1400 H 0.81907 0.561 0.4981 0.0
C1401 C 0.75257 0.57777 0.52274 0.0
C1402 C 0.72106 0.56299 0.503 0.0
C1403 C 0.74248 0.57531 0.53038 0.0
C1404 C 0.77135 0.58053 0.47215 0.0
C1405 C 0.76118 0.58187 0.4798 0.0
C1406 C 0.79158 0.5614 0.49937 0.0
C1407 C 0.73449 0.55965 0.51703 0.0
C1408 C 0.74568 0.56147 0.50891 0.0
C1409 C 0.77811 0.56161 0.48532 0.0
C1410 C 0.76695 0.56242 0.49345 0.0
H1411 H 0.67413 0.52029 0.52821 0.0
H1412 H 0.69173 0.52445 0.51493 0.0
H1413 H 0.80077 0.55943 0.51139 0.0
H1414 H 0.83652 0.52144 0.47378 0.0
H1415 H 0.81878 0.52368 0.48707 0.0
C1416 C 0.30847 0.43417 0.27639 0.0
C1417 C 0.30441 0.4596 0.28206 0.0
C1418 C 0.31061 0.44335 0.26869 0.0
C1419 C 0.33056 0.51565 0.25576 0.0
H1420 H 0.27377 0.46505 0.24132 0.0
C1421 C 0.30904 0.56327 0.22491 0.0
C1422 C 0.30582 0.53864 0.21904 0.0
C1423 C 0.31089 0.55305 0.23254 0.0
C1424 C 0.29027 0.47912 0.24524 0.0
H1425 H 0.29985 0.51493 0.28397 0.0
H1426 H 0.30419 0.53079 0.27059 0.0
H1427 H 0.27377 0.44829 0.2547 0.0
H1428 H 0.30264 0.48354 0.21674 0.0
H1429 H 0.30709 0.46578 0.22997 0.0
H1430 H 0.34736 0.54631 0.24631 0.0
C1431 C 0.3058 0.50372 0.27213 0.0
C1432 C 0.29016 0.46955 0.25292 0.0
C1433 C 0.30336 0.49455 0.27982 0.0
C1434 C 0.30529 0.50339 0.22104 0.0
C1435 C 0.3074 0.49315 0.22867 0.0
C1436 C 0.33092 0.52505 0.24806 0.0
C1437 C 0.30909 0.4782 0.26647 0.0
C1438 C 0.31012 0.48783 0.25827 0.0
C1439 C 0.30988 0.51785 0.23453 0.0
C1440 C 0.31058 0.50707 0.2427 0.0
H1441 H 0.31011 0.40707 0.27785 0.0
H1442 H 0.31367 0.42312 0.26448 0.0
H1443 H 0.34656 0.52996 0.25974 0.0
H1444 H 0.31008 0.59061 0.22364 0.0
H1445 H 0.3124 0.57289 0.23688 0.0
C1446 C 0.26693 0.54807 0.02965 0.0
C1447 C 0.30194 0.54232 0.03155 0.0
C1448 C 0.2562 0.54887 0.02204 0.0
C1449 C 0.28903 0.55856 0.00223 0.0
H1450 H 0.19987 0.51868 0.99703 0.0
C1451 C 0.2293 0.57197 0.97207 0.0
C1452 C 0.21092 0.54353 0.96914 0.0
C1453 C 0.24053 0.57227 0.97966 0.0
C1454 C 0.225 0.52965 0.99835 0.0
H1455 H 0.3531 0.5334 0.02678 0.0
H1456 H 0.3342 0.53364 0.01356 0.0
H1457 H 0.2197 0.51745 0.01017 0.0
H1458 H 0.19069 0.49273 0.97186 0.0
H1459 H 0.21062 0.49293 0.98501 0.0
H1460 H 0.2948 0.5697 0.99035 0.0
C1461 C 0.31509 0.53808 0.01797 0.0
C1462 C 0.23619 0.5294 0.00593 0.0
C1463 C 0.32589 0.53749 0.02559 0.0
C1464 C 0.20421 0.51531 0.97396 0.0
C1465 C 0.21564 0.51548 0.98152 0.0
C1466 C 0.27792 0.55864 0.99463 0.0
C1467 C 0.28007 0.54371 0.01609 0.0
C1468 C 0.26833 0.5439 0.00798 0.0
C1469 C 0.23386 0.544 0.98449 0.0
C1470 C 0.24574 0.54417 0.99259 0.0
H1471 H 0.24747 0.55158 0.03401 0.0
H1472 H 0.22911 0.5538 0.02083 0.0
H1473 H 0.31375 0.57033 0.00359 0.0
H1474 H 0.23454 0.59424 0.96851 0.0
H1475 H 0.25399 0.59492 0.98176 0.0
C1476 C 0.20688 0.43745 0.72475 0.0
C1477 C 0.20903 0.46274 0.719 0.0
C1478 C 0.20647 0.44687 0.73244 0.0
C1479 C 0.18861 0.51945 0.74549 0.0
H1480 H 0.24899 0.46967 0.75934 0.0
C1481 C 0.21602 0.56738 0.77612 0.0
C1482 C 0.22021 0.54265 0.78193 0.0
C1483 C 0.21293 0.55724 0.7685 0.0
C1484 C 0.23154 0.48353 0.75559 0.0
H1485 H 0.2121 0.51806 0.71696 0.0
H1486 H 0.21085 0.53435 0.73035 0.0
H1487 H 0.24625 0.45266 0.74599 0.0
H1488 H 0.22397 0.48754 0.78417 0.0
H1489 H 0.21741 0.46994 0.77097 0.0
H1490 H 0.17365 0.55017 0.75508 0.0
C1491 C 0.20933 0.5072 0.72887 0.0
C1492 C 0.23006 0.4738 0.74793 0.0
C1493 C 0.21 0.49779 0.72117 0.0
C1494 C 0.22055 0.50743 0.77991 0.0
C1495 C 0.21724 0.49729 0.77229 0.0
C1496 C 0.18988 0.52904 0.75317 0.0
C1497 C 0.20791 0.48183 0.73459 0.0
C1498 C 0.20871 0.49174 0.74278 0.0
C1499 C 0.21369 0.52206 0.76647 0.0
C1500 C 0.21151 0.51131 0.75832 0.0
H1501 H 0.20539 0.41028 0.72334 0.0
H1502 H 0.20482 0.42674 0.73672 0.0
H1503 H 0.17159 0.5335 0.74167 0.0
H1504 H 0.21512 0.59469 0.77742 0.0
H1505 H 0.2106 0.57711 0.76418 0.0
C1506 C 0.19769 0.46277 0.52556 0.0
C1507 C 0.2215 0.45704 0.53153 0.0
C1508 C 0.20855 0.46306 0.51796 0.0
C1509 C 0.28729 0.47303 0.50599 0.0
H1510 H 0.22739 0.43657 0.49016 0.0
C1511 C 0.31585 0.49446 0.47399 0.0
C1512 C 0.30763 0.46772 0.46888 0.0
C1513 C 0.30596 0.49236 0.48164 0.0
C1514 C 0.24467 0.44653 0.4945 0.0
H1515 H 0.27589 0.44638 0.53391 0.0
H1516 H 0.29428 0.446 0.52074 0.0
H1517 H 0.20935 0.43306 0.50341 0.0
H1518 H 0.28355 0.41736 0.46783 0.0
H1519 H 0.26692 0.41324 0.4812 0.0
H1520 H 0.32309 0.48554 0.4971 0.0
C1521 C 0.26725 0.45108 0.52198 0.0
C1522 C 0.23406 0.44496 0.50212 0.0
C1523 C 0.25647 0.45099 0.52959 0.0
C1524 C 0.28977 0.4386 0.47161 0.0
C1525 C 0.28016 0.43633 0.47928 0.0
C1526 C 0.29801 0.47439 0.49838 0.0
C1527 C 0.24349 0.45736 0.51606 0.0
C1528 C 0.25514 0.45834 0.50796 0.0
C1529 C 0.28788 0.4633 0.48439 0.0
C1530 C 0.27678 0.4613 0.49252 0.0
H1531 H 0.17053 0.46725 0.52669 0.0
H1532 H 0.18952 0.46839 0.51357 0.0
H1533 H 0.30407 0.48398 0.51031 0.0
H1534 H 0.32917 0.51743 0.47203 0.0
H1535 H 0.31186 0.51391 0.48536 0.0
C1536 C 0.11362 0.17321 0.17234 0.0
C1537 C 0.12413 0.1663 0.17985 0.0
C1538 C 0.08926 0.19928 0.17087 0.0
C1539 C 0.04777 0.27609 0.17962 0.0
H1540 H 0.96594 0.24974 0.16812 0.0
C1541 C 0.91681 0.3341 0.18602 0.0
C1542 C 0.89977 0.35135 0.18005 0.0
C1543 C 0.94476 0.31241 0.18453 0.0
C1544 C 0.9889 0.25761 0.17122 0.0
H1545 H 0.1191 0.18201 0.19165 0.0
H1546 H 0.07698 0.22733 0.18912 0.0
H1547 H 0.0172 0.21206 0.16806 0.0
H1548 H 0.89683 0.35729 0.16779 0.0
H1549 H 0.94582 0.31818 0.16514 0.0
H1550 H 0.01892 0.32053 0.18314 0.0
C1551 C 0.08734 0.2129 0.18434 0.0
C1552 C 0.01823 0.2362 0.17118 0.0
C1553 C 0.11126 0.18679 0.18581 0.0
C1554 C 0.90955 0.34428 0.17249 0.0
C1555 C 0.93756 0.32215 0.17098 0.0
C1556 C 0.01853 0.29721 0.17971 0.0
C1557 C 0.07558 0.21909 0.17688 0.0
C1558 C 0.04746 0.24465 0.17562 0.0
C1559 C 0.95609 0.30712 0.17703 0.0
C1560 C 0.98846 0.28755 0.17574 0.0
H1561 H 0.12313 0.15756 0.16767 0.0
H1562 H 0.08075 0.20361 0.16506 0.0
H1563 H 0.07016 0.28363 0.18297 0.0
H1564 H 0.90934 0.33844 0.1919 0.0
H1565 H 0.95821 0.30047 0.18927 0.0
C1566 C 0.08164 0.86169 0.43515 0.0
C1567 C 0.10214 0.87402 0.42914 0.0
C1568 C 0.05451 0.83884 0.43374 0.0
C1569 C 0.02804 0.77121 0.42057 0.0
H1570 H 0.94505 0.77333 0.43304 0.0
C1571 C 0.91679 0.66574 0.42263 0.0
C1572 C 0.91198 0.65516 0.43023 0.0
C1573 C 0.93913 0.69329 0.42093 0.0
C1574 C 0.96795 0.77259 0.42946 0.0
H1575 H 0.10983 0.8733 0.41692 0.0
H1576 H 0.06196 0.83278 0.41442 0.0
H1577 H 0.98305 0.82369 0.43268 0.0
H1578 H 0.92912 0.66288 0.44188 0.0
H1579 H 0.96731 0.71115 0.43893 0.0
H1580 H 0.01298 0.71944 0.41754 0.0
C1581 C 0.06708 0.84087 0.42022 0.0
C1582 C 0.98971 0.80131 0.42927 0.0
C1583 C 0.0942 0.86416 0.42164 0.0
C1584 C 0.93162 0.671 0.436 0.0
C1585 C 0.95349 0.69856 0.43432 0.0
C1586 C 1.00596 0.74244 0.42071 0.0
C1587 C 0.04727 0.82765 0.42629 0.0
C1588 C 0.02075 0.80041 0.42509 0.0
C1589 C 0.95662 0.7106 0.42682 0.0
C1590 C 0.97653 0.74253 0.4254 0.0
H1591 H 0.08721 0.86907 0.44098 0.0
H1592 H 0.04013 0.8288 0.43856 0.0
H1593 H 0.05186 0.76971 0.41732 0.0
H1594 H 0.90192 0.65401 0.41807 0.0
H1595 H 0.9414 0.70216 0.41509 0.0
C1596 C 0.40119 0.83655 0.67315 0.0
C1597 C 0.39658 0.84756 0.68072 0.0
C1598 C 0.4265 0.81182 0.67137 0.0
C1599 C 0.47068 0.74367 0.67126 0.0
H1600 H 0.56117 0.76202 0.6801 0.0
C1601 C 0.57236 0.63918 0.67771 0.0
C1602 C 0.60768 0.6465 0.67648 0.0
C1603 C 0.5471 0.66432 0.67645 0.0
C1604 C 0.53626 0.75679 0.67748 0.0
H1605 H 0.41289 0.83919 0.69243 0.0
H1606 H 0.45734 0.79694 0.68929 0.0
H1607 H 0.51485 0.80456 0.68144 0.0
H1608 H 0.64382 0.68589 0.67267 0.0
H1609 H 0.59953 0.73028 0.67071 0.0
H1610 H 0.49179 0.69513 0.66758 0.0
C1611 C 0.44188 0.80784 0.68473 0.0
C1612 C 0.50972 0.78096 0.67831 0.0
C1613 C 0.41647 0.83207 0.68651 0.0
C1614 C 0.61697 0.67949 0.67379 0.0
C1615 C 0.59163 0.70483 0.67262 0.0
C1616 C 0.49719 0.7192 0.67051 0.0
C1617 C 0.44768 0.79808 0.67714 0.0
C1618 C 0.47651 0.77425 0.67537 0.0
C1619 C 0.55651 0.69757 0.67403 0.0
C1620 C 0.53001 0.72526 0.67376 0.0
H1621 H 0.38629 0.84806 0.66857 0.0
H1622 H 0.43046 0.80446 0.66548 0.0
H1623 H 0.44524 0.73798 0.66896 0.0
H1624 H 0.56417 0.61439 0.67994 0.0
H1625 H 0.52031 0.65819 0.67774 0.0
C1626 C 0.42955 0.15005 0.93087 0.0
C1627 C 0.40178 0.14728 0.92572 0.0
C1628 C 0.45462 0.17568 0.92995 0.0
C1629 C 0.46674 0.26177 0.92137 0.0
H1630 H 0.56107 0.24729 0.92836 0.0
C1631 C 0.5833 0.36209 0.92302 0.0
C1632 C 0.59356 0.36644 0.93066 0.0
C1633 C 0.55919 0.33646 0.92104 0.0
C1634 C 0.53489 0.25154 0.92631 0.0
H1635 H 0.37943 0.16826 0.91537 0.0
H1636 H 0.42367 0.21292 0.9137 0.0
H1637 H 0.52228 0.19786 0.92697 0.0
H1638 H 0.58429 0.34928 0.94227 0.0
H1639 H 0.54339 0.30404 0.93877 0.0
H1640 H 0.47983 0.31576 0.92081 0.0
C1641 C 0.42562 0.19561 0.91853 0.0
C1642 C 0.51259 0.22336 0.92557 0.0
C1643 C 0.40035 0.16999 0.91947 0.0
C1644 C 0.5778 0.34598 0.93631 0.0
C1645 C 0.55423 0.32023 0.93433 0.0
C1646 C 0.48932 0.28997 0.92202 0.0
C1647 C 0.45276 0.19911 0.92383 0.0
C1648 C 0.47787 0.22824 0.92336 0.0
C1649 C 0.54534 0.31479 0.92668 0.0
C1650 C 0.52318 0.28507 0.92472 0.0
H1651 H 0.43106 0.13344 0.93582 0.0
H1652 H 0.47465 0.17798 0.93425 0.0
H1653 H 0.44012 0.26654 0.91971 0.0
H1654 H 0.59503 0.37737 0.91853 0.0
H1655 H 0.55249 0.3326 0.91511 0.0
C1656 C 0.10867 0.811 0.31659 0.0
C1657 C 0.11719 0.83641 0.32198 0.0
C1658 C 0.08508 0.78498 0.31838 0.0
C1659 C 0.00986 0.76951 0.33052 0.0
H1660 H 0.01524 0.6789 0.32113 0.0
C1661 C 0.90335 0.65831 0.32938 0.0
C1662 C 0.8945 0.65188 0.32172 0.0
C1663 C 0.93104 0.68038 0.33116 0.0
C1664 C 0.01363 0.70395 0.32388 0.0
H1665 H 0.10904 0.85372 0.33359 0.0
H1666 H 0.06766 0.8078 0.33677 0.0
H1667 H 0.06656 0.7158 0.32141 0.0
H1668 H 0.90562 0.66588 0.31 0.0
H1669 H 0.95426 0.70346 0.31311 0.0
H1670 H 0.95638 0.75757 0.33277 0.0
C1671 C 0.07912 0.80826 0.33113 0.0
C1672 C 0.04286 0.72513 0.324 0.0
C1673 C 0.10298 0.83431 0.32934 0.0
C1674 C 0.91236 0.66959 0.31593 0.0
C1675 C 0.94008 0.69116 0.3177 0.0
C1676 C 0.98062 0.74806 0.33046 0.0
C1677 C 0.0694 0.78374 0.32561 0.0
C1678 C 0.04091 0.75873 0.32702 0.0
C1679 C 0.9502 0.69598 0.3253 0.0
C1680 C 0.98207 0.71571 0.32688 0.0
H1681 H 0.11948 0.81187 0.3109 0.0
H1682 H 0.07788 0.76684 0.31395 0.0
H1683 H 0.00745 0.79533 0.33285 0.0
H1684 H 0.89007 0.64496 0.33395 0.0
H1685 H 0.93849 0.684 0.33706 0.0
C1686 C 0.59214 0.64771 0.57991 0.0
C1687 C 0.59896 0.63716 0.5724 0.0
C1688 C 0.5656 0.67155 0.5814 0.0
C1689 C 0.48739 0.71097 0.57275 0.0
H1690 H 0.51335 0.79414 0.58375 0.0
C1691 C 0.42826 0.84021 0.56566 0.0
C1692 C 0.41045 0.85745 0.57151 0.0
C1693 C 0.45032 0.8128 0.56732 0.0
C1694 C 0.50559 0.77079 0.58079 0.0
H1695 H 0.58272 0.64156 0.56063 0.0
H1696 H 0.53651 0.68271 0.56318 0.0
H1697 H 0.55186 0.74355 0.58398 0.0
H1698 H 0.40386 0.86136 0.58375 0.0
H1699 H 0.44364 0.81333 0.58669 0.0
H1700 H 0.44227 0.73878 0.5692 0.0
C1701 C 0.55137 0.6728 0.56795 0.0
C1702 C 0.52746 0.74186 0.58094 0.0
C1703 C 0.57797 0.64944 0.56647 0.0
C1704 C 0.41731 0.84847 0.57914 0.0
C1705 C 0.43982 0.821 0.58082 0.0
C1706 C 0.4658 0.73981 0.57257 0.0
C1707 C 0.54523 0.68459 0.5754 0.0
C1708 C 0.51915 0.71217 0.57666 0.0
C1709 C 0.45542 0.80224 0.57489 0.0
C1710 C 0.47534 0.77034 0.57635 0.0
H1711 H 0.60819 0.63862 0.58457 0.0
H1712 H 0.56132 0.68015 0.5872 0.0
H1713 H 0.48001 0.68823 0.56953 0.0
H1714 H 0.42408 0.84708 0.55974 0.0
H1715 H 0.4627 0.79911 0.56267 0.0
C1716 C 0.41471 0.18031 0.82687 0.0
C1717 C 0.40139 0.1757 0.81948 0.0
C1718 C 0.44049 0.20499 0.82826 0.0
C1719 C 0.48314 0.28177 0.8197 0.0
H1720 H 0.56451 0.25142 0.83089 0.0
C1721 C 0.61533 0.33885 0.81402 0.0
C1722 C 0.63142 0.35558 0.82019 0.0
C1723 C 0.58747 0.3167 0.81523 0.0
C1724 C 0.54172 0.26033 0.82786 0.0
H1725 H 0.40326 0.19437 0.80785 0.0
H1726 H 0.44836 0.23687 0.81021 0.0
H1727 H 0.51238 0.21507 0.83069 0.0
H1728 H 0.63297 0.36006 0.83249 0.0
H1729 H 0.58415 0.32016 0.83463 0.0
H1730 H 0.51308 0.32603 0.81654 0.0
C1731 C 0.43888 0.22175 0.81497 0.0
C1732 C 0.51188 0.2397 0.82776 0.0
C1733 C 0.41327 0.19714 0.81358 0.0
C1734 C 0.62098 0.34744 0.82765 0.0
C1735 C 0.59307 0.32485 0.82887 0.0
C1736 C 0.51294 0.30209 0.81974 0.0
C1737 C 0.4532 0.22563 0.82229 0.0
C1738 C 0.48266 0.24974 0.82348 0.0
C1739 C 0.57536 0.31046 0.82264 0.0
C1740 C 0.54276 0.29106 0.82363 0.0
H1741 H 0.40619 0.16394 0.83152 0.0
H1742 H 0.45083 0.20757 0.83397 0.0
H1743 H 0.46081 0.29063 0.8165 0.0
H1744 H 0.62332 0.34411 0.80822 0.0
H1745 H 0.57455 0.30532 0.81035 0.0
C1746 C 0.09084 0.14796 0.07754 0.0
C1747 C 0.10135 0.14285 0.06995 0.0
C1748 C 0.06592 0.17309 0.07931 0.0
C1749 C 0.9975 0.21701 0.07957 0.0
H1750 H 0.01523 0.30667 0.07041 0.0
C1751 C 0.89257 0.31906 0.07361 0.0
C1752 C 0.90037 0.35424 0.07478 0.0
C1753 C 0.91773 0.29367 0.07471 0.0
C1754 C 0.01018 0.28199 0.07311 0.0
H1755 H 0.09185 0.158 0.05822 0.0
H1756 H 0.04924 0.20216 0.06133 0.0
H1757 H 0.0575 0.2602 0.06893 0.0
H1758 H 0.94068 0.38995 0.07834 0.0
H1759 H 0.98507 0.34544 0.08002 0.0
H1760 H 0.94941 0.23852 0.08348 0.0
C1761 C 0.06067 0.18722 0.06591 0.0
C1762 C 0.03418 0.25535 0.0722 0.0
C1763 C 0.0851 0.16198 0.06414 0.0
C1764 C 0.93389 0.36323 0.07726 0.0
C1765 C 0.95924 0.33776 0.07828 0.0
C1766 C 0.97318 0.24361 0.08039 0.0
C1767 C 0.05148 0.19359 0.07351 0.0
C1768 C 0.02771 0.22245 0.07528 0.0
C1769 C 0.95148 0.3028 0.07692 0.0
C1770 C 0.97903 0.27614 0.07704 0.0
H1771 H 0.10294 0.13367 0.08214 0.0
H1772 H 0.05903 0.17751 0.08521 0.0
H1773 H 0.992 0.19183 0.08198 0.0
H1774 H 0.86736 0.31108 0.07153 0.0
H1775 H 0.9112 0.267 0.07348 0.0
C1776 C 0.12833 0.67278 0.82723 0.0
C1777 C 0.13837 0.66265 0.81988 0.0
C1778 C 0.10378 0.69912 0.82821 0.0
C1779 C 0.03239 0.73396 0.82757 0.0
H1780 H 0.02721 0.81108 0.81349 0.0
C1781 C 0.9237 0.82373 0.81229 0.0
C1782 C 0.908 0.84183 0.81832 0.0
C1783 C 0.95292 0.80338 0.81359 0.0
C1784 C 0.02841 0.7897 0.81748 0.0
H1785 H 0.13264 0.67326 0.80782 0.0
H1786 H 0.08994 0.71869 0.80948 0.0
H1787 H 0.07982 0.77625 0.81406 0.0
H1788 H 0.90952 0.85098 0.83053 0.0
H1789 H 0.96019 0.81419 0.8328 0.0
H1790 H 0.98054 0.74759 0.8309 0.0
C1791 C 0.10084 0.70672 0.81452 0.0
C1792 C 0.05846 0.76977 0.8178 0.0
C1793 C 0.12508 0.68046 0.81355 0.0
C1794 C 0.92082 0.83717 0.82577 0.0
C1795 C 0.94992 0.81636 0.82708 0.0
C1796 C 1.00235 0.75427 0.8273 0.0
C1797 C 0.0893 0.71589 0.82185 0.0
C1798 C 0.06032 0.74088 0.82264 0.0
C1799 C 0.9668 0.80026 0.82095 0.0
C1800 C 0.99976 0.7815 0.82206 0.0
H1801 H 0.13824 0.6593 0.83219 0.0
H1802 H 0.09558 0.70585 0.83393 0.0
H1803 H 0.03291 0.71175 0.83133 0.0
H1804 H 0.91401 0.8261 0.80652 0.0
H1805 H 0.96514 0.79057 0.8088 0.0
C1806 C 0.92738 0.16105 0.56433 0.0
C1807 C 0.90952 0.14503 0.57035 0.0
C1808 C 0.94996 0.18836 0.56574 0.0
C1809 C 1.00643 0.23115 0.57894 0.0
H1810 H 0.98307 0.31271 0.56712 0.0
C1811 C 0.09468 0.35297 0.57799 0.0
C1812 C 0.10162 0.3641 0.57052 0.0
C1813 C 0.06808 0.3291 0.57938 0.0
C1814 C 0.98994 0.29021 0.57047 0.0
H1815 H 0.90337 0.14335 0.58263 0.0
H1816 H 0.94406 0.19108 0.58511 0.0
H1817 H 0.94451 0.2628 0.56695 0.0
H1818 H 0.08525 0.36061 0.55873 0.0
H1819 H 0.03926 0.31914 0.56111 0.0
H1820 H 0.05295 0.25793 0.58213 0.0
C1821 C 0.93986 0.18255 0.57931 0.0
C1822 C 0.96784 0.26174 0.57038 0.0
C1823 C 0.9168 0.15524 0.57788 0.0
C1824 C 0.08064 0.35221 0.56454 0.0
C1825 C 0.05406 0.3287 0.56592 0.0
C1826 C 0.02885 0.25967 0.57898 0.0
C1827 C 0.95561 0.20002 0.57321 0.0
C1828 C 0.97645 0.23159 0.57441 0.0
C1829 C 0.04775 0.31643 0.57333 0.0
C1830 C 0.02137 0.28901 0.57452 0.0
H1831 H 0.92301 0.15319 0.55848 0.0
H1832 H 0.96243 0.20101 0.56096 0.0
H1833 H 0.0135 0.20811 0.58209 0.0
H1834 H 0.11064 0.36171 0.58269 0.0
H1835 H 0.06368 0.32024 0.58515 0.0
C1836 C 0.39625 0.33945 0.32985 0.0
C1837 C 0.39146 0.34897 0.32217 0.0
C1838 C 0.42242 0.31599 0.33186 0.0
C1839 C 0.50766 0.29229 0.32615 0.0
H1840 H 0.49466 0.19899 0.33369 0.0
C1841 C 0.60613 0.1857 0.3206 0.0
C1842 C 0.61098 0.159 0.32591 0.0
C1843 C 0.58129 0.21124 0.32184 0.0
C1844 C 0.49888 0.22526 0.33177 0.0
H1845 H 0.40821 0.33905 0.31057 0.0
H1846 H 0.45428 0.29914 0.31412 0.0
H1847 H 0.44487 0.23821 0.33283 0.0
H1848 H 0.59468 0.13914 0.3369 0.0
H1849 H 0.55113 0.18405 0.3391 0.0
H1850 H 0.56128 0.27963 0.32492 0.0
C1851 C 0.43811 0.31011 0.31855 0.0
C1852 C 0.47037 0.24756 0.33126 0.0
C1853 C 0.41186 0.33303 0.31654 0.0
C1854 C 0.59126 0.15918 0.33265 0.0
C1855 C 0.56632 0.18484 0.33391 0.0
C1856 C 0.53613 0.27027 0.32674 0.0
C1857 C 0.44414 0.30209 0.32622 0.0
C1858 C 0.47447 0.28076 0.32819 0.0
C1859 C 0.56068 0.21083 0.32845 0.0
C1860 C 0.53186 0.23604 0.32926 0.0
H1861 H 0.38094 0.35135 0.33431 0.0
H1862 H 0.42669 0.30992 0.33781 0.0
H1863 H 0.51131 0.31799 0.32382 0.0
H1864 H 0.62032 0.18598 0.31527 0.0
H1865 H 0.57719 0.2304 0.31744 0.0
C1866 C 0.5855 0.86023 0.07994 0.0
C1867 C 0.61596 0.8537 0.0758 0.0
C1868 C 0.56113 0.83387 0.08106 0.0
C1869 C 0.55059 0.738 0.07951 0.0
H1870 H 0.4529 0.76033 0.07775 0.0
C1871 C 0.44435 0.64135 0.07051 0.0
C1872 C 0.41289 0.64175 0.07457 0.0
C1873 C 0.47021 0.66561 0.07209 0.0
C1874 C 0.48008 0.7538 0.07836 0.0
H1875 H 0.64442 0.81502 0.06942 0.0
H1876 H 0.6018 0.76962 0.07115 0.0
H1877 H 0.49566 0.80676 0.07774 0.0
H1878 H 0.38513 0.66676 0.08384 0.0
H1879 H 0.42985 0.70992 0.08634 0.0
H1880 H 0.53483 0.68485 0.0797 0.0
C1881 C 0.59706 0.79447 0.0738 0.0
C1882 C 0.50462 0.78039 0.07839 0.0
C1883 C 0.62147 0.82057 0.07276 0.0
C1884 C 0.40859 0.66618 0.08045 0.0
C1885 C 0.43424 0.69079 0.08193 0.0
C1886 C 0.52608 0.71144 0.07937 0.0
C1887 C 0.56659 0.80066 0.07798 0.0
C1888 C 0.54025 0.77279 0.0788 0.0
C1889 C 0.46501 0.69104 0.07768 0.0
C1890 C 0.49068 0.71909 0.07867 0.0
H1891 H 0.58076 0.88554 0.08236 0.0
H1892 H 0.53812 0.83949 0.08437 0.0
H1893 H 0.57772 0.73118 0.08003 0.0
H1894 H 0.44849 0.62331 0.06588 0.0
H1895 H 0.49363 0.66548 0.06868 0.0
C1896 C 0.90161 0.16896 0.67237 0.0
C1897 C 0.89122 0.16257 0.67991 0.0
C1898 C 0.92538 0.1954 0.67077 0.0
C1899 C 0.99548 0.23384 0.67087 0.0
H1900 H 0.99366 0.31882 0.68261 0.0
C1901 C 0.09648 0.33159 0.68557 0.0
C1902 C 0.11208 0.35075 0.6797 0.0
C1903 C 0.06886 0.30957 0.68402 0.0
C1904 C 0.9943 0.29536 0.67923 0.0
H1905 H 0.89584 0.17965 0.69162 0.0
H1906 H 0.93707 0.22545 0.68889 0.0
H1907 H 0.94295 0.28116 0.68255 0.0
H1908 H 0.11279 0.35979 0.6675 0.0
H1909 H 0.06448 0.32005 0.66475 0.0
H1910 H 0.0475 0.24804 0.66775 0.0
C1911 C 0.92702 0.21036 0.68418 0.0
C1912 C 0.96539 0.27378 0.67922 0.0
C1913 C 0.90365 0.18392 0.68576 0.0
C1914 C 0.10124 0.3453 0.67213 0.0
C1915 C 0.0736 0.3228 0.67056 0.0
C1916 C 0.02444 0.25573 0.67084 0.0
C1917 C 0.93863 0.21608 0.67669 0.0
C1918 C 0.96619 0.24208 0.67531 0.0
C1919 C 0.05652 0.30581 0.67655 0.0
C1920 C 0.02442 0.28592 0.67527 0.0
H1921 H 0.89241 0.15269 0.66776 0.0
H1922 H 0.93378 0.19934 0.66495 0.0
H1923 H 0.99689 0.20951 0.66783 0.0
H1924 H 0.1048 0.33463 0.69143 0.0
H1925 H 0.0564 0.29617 0.6887 0.0
C1926 C 0.43375 0.3678 0.42291 0.0
C1927 C 0.40368 0.3601 0.42708 0.0
C1928 C 0.45816 0.3419 0.42138 0.0
C1929 C 0.46895 0.24594 0.42158 0.0
H1930 H 0.56669 0.26773 0.4235 0.0
C1931 C 0.57495 0.1471 0.42928 0.0
C1932 C 0.60691 0.14909 0.42545 0.0
C1933 C 0.54898 0.17146 0.4279 0.0
C1934 C 0.5395 0.26137 0.42282 0.0
H1935 H 0.376 0.31978 0.43313 0.0
H1936 H 0.41868 0.27509 0.43066 0.0
H1937 H 0.52395 0.31406 0.42421 0.0
H1938 H 0.63545 0.17691 0.41671 0.0
H1939 H 0.59042 0.22011 0.41451 0.0
H1940 H 0.48466 0.19296 0.42061 0.0
C1941 C 0.42306 0.30059 0.42831 0.0
C1942 C 0.51498 0.28792 0.42321 0.0
C1943 C 0.39864 0.32628 0.42977 0.0
C1944 C 0.61155 0.17507 0.41992 0.0
C1945 C 0.58574 0.19972 0.41862 0.0
C1946 C 0.49344 0.21939 0.4213 0.0
C1947 C 0.45307 0.30796 0.42407 0.0
C1948 C 0.47934 0.28043 0.42276 0.0
C1949 C 0.55452 0.19852 0.42271 0.0
C1950 C 0.52887 0.22681 0.42206 0.0
H1951 H 0.43811 0.39366 0.42075 0.0
H1952 H 0.48084 0.34842 0.41804 0.0
H1953 H 0.44178 0.23931 0.42102 0.0
H1954 H 0.57054 0.12779 0.43364 0.0
H1955 H 0.52522 0.17015 0.43118 0.0
C1956 C 0.61102 0.81838 0.18865 0.0
C1957 C 0.62222 0.84103 0.18292 0.0
C1958 C 0.58577 0.79358 0.18712 0.0
C1959 C 0.54272 0.73343 0.18195 0.0
H1960 H 0.45994 0.76384 0.17128 0.0
C1961 C 0.40586 0.66603 0.17384 0.0
C1962 C 0.39608 0.65639 0.18127 0.0
C1963 C 0.43322 0.68939 0.17273 0.0
C1964 C 0.48313 0.75493 0.17416 0.0
H1965 H 0.61649 0.85487 0.17101 0.0
H1966 H 0.57245 0.81094 0.16829 0.0
H1967 H 0.51118 0.80141 0.17167 0.0
H1968 H 0.40475 0.66595 0.1933 0.0
H1969 H 0.45258 0.70607 0.19134 0.0
H1970 H 0.51408 0.68787 0.18478 0.0
C1971 C 0.58306 0.81269 0.17399 0.0
C1972 C 0.51246 0.77627 0.17437 0.0
C1973 C 0.6085 0.83755 0.17553 0.0
C1974 C 0.41227 0.67235 0.18752 0.0
C1975 C 0.43958 0.69526 0.18641 0.0
C1976 C 0.51343 0.71239 0.1818 0.0
C1977 C 0.57111 0.79074 0.17981 0.0
C1978 C 0.54218 0.76616 0.17848 0.0
C1979 C 0.45104 0.70306 0.17903 0.0
C1980 C 0.48311 0.7234 0.1781 0.0
H1981 H 0.62135 0.82027 0.19438 0.0
H1982 H 0.57685 0.77743 0.19177 0.0
H1983 H 0.56545 0.72454 0.185 0.0
H1984 H 0.39377 0.65405 0.16894 0.0
H1985 H 0.44164 0.69529 0.16699 0.0
C1986 C 0.91667 0.84619 0.9379 0.0
C1987 C 0.90163 0.8659 0.93203 0.0
C1988 C 0.94077 0.82047 0.93625 0.0
C1989 C 0.00689 0.78937 0.92398 0.0
H1990 H 0.9772 0.69821 0.93051 0.0
C1991 C 0.09738 0.67026 0.92184 0.0
C1992 C 0.09756 0.64855 0.92827 0.0
C1993 C 0.07171 0.69554 0.92097 0.0
C1994 C 0.98603 0.72346 0.92869 0.0
H1995 H 0.90211 0.87567 0.91986 0.0
H1996 H 0.9456 0.83097 0.917 0.0
H1997 H 0.93757 0.74706 0.93159 0.0
H1998 H 0.07088 0.63615 0.93878 0.0
H1999 H 0.02663 0.68026 0.93736 0.0
H2000 H 0.0561 0.76634 0.9215 0.0
C2001 C 0.93789 0.83533 0.92286 0.0
C2002 C 0.96324 0.75132 0.92926 0.0
C2003 C 0.91322 0.86092 0.9245 0.0
C2004 C 0.07109 0.65203 0.9337 0.0
C2005 C 0.04565 0.67738 0.93287 0.0
C2006 C 0.03 0.76151 0.92351 0.0
C2007 C 0.95095 0.81429 0.92871 0.0
C2008 C 0.97374 0.78457 0.92707 0.0
C2009 C 0.04582 0.69975 0.92654 0.0
C2010 C 0.0201 0.72838 0.92605 0.0
H2011 H 0.90917 0.85003 0.94379 0.0
H2012 H 0.95105 0.8049 0.94086 0.0
H2013 H 0.01548 0.81491 0.92229 0.0
H2014 H 0.11731 0.66794 0.91753 0.0
H2015 H 0.07234 0.71196 0.91598 0.0
C2016 C 0.3288 0.99822 0.19298 0.0
C2017 C 0.31225 0.02727 0.18979 0.0
C2018 C 0.36537 0.99651 0.19344 0.0
C2019 C 0.44574 0.03605 0.18504 0.0
H2020 H 0.49196 0.99855 0.20281 0.0
C2021 C 0.59476 0.05057 0.18893 0.0
C2022 C 0.6134 0.02269 0.19207 0.0
C2023 C 0.55824 0.051 0.18899 0.0
C2024 C 0.47962 0.00882 0.19775 0.0
H2025 H 0.32172 0.07732 0.18461 0.0
H2026 H 0.38442 0.07442 0.18542 0.0
H2027 H 0.42864 0.99803 0.20211 0.0
H2028 H 0.6074 0.97377 0.19797 0.0
H2029 H 0.54426 0.97434 0.19801 0.0
H2030 H 0.49642 0.04669 0.18064 0.0
C2031 C 0.36955 0.05263 0.1875 0.0
C2032 C 0.4431 0.00847 0.19735 0.0
C2033 C 0.33328 0.05438 0.18708 0.0
C2034 C 0.59425 0.99579 0.19549 0.0
C2035 C 0.55775 0.99618 0.19555 0.0
C2036 C 0.48214 0.03634 0.18543 0.0
C2037 C 0.38636 0.02368 0.19066 0.0
C2038 C 0.42549 0.02236 0.19101 0.0
C2039 C 0.53902 0.02352 0.19218 0.0
C2040 C 0.49983 0.02298 0.19181 0.0
H2041 H 0.31355 0.97686 0.19515 0.0
H2042 H 0.37719 0.97364 0.19587 0.0
H2043 H 0.43345 0.04634 0.17997 0.0
H2044 H 0.60834 0.07181 0.18624 0.0
H2045 H 0.54509 0.07294 0.18647 0.0
C2046 C 0.24481 0.34178 0.44058 0.0
C2047 C 0.26917 0.35486 0.44581 0.0
C2048 C 0.23829 0.3059 0.44014 0.0
C2049 C 0.25518 0.22134 0.45041 0.0
H2050 H 0.24186 0.18132 0.43039 0.0
C2051 C 0.26934 0.07321 0.44459 0.0
C2052 C 0.2437 0.05795 0.43998 0.0
C2053 C 0.27124 0.10943 0.44538 0.0
C2054 C 0.24535 0.19204 0.43604 0.0
H2055 H 0.30445 0.3404 0.45489 0.0
H2056 H 0.2937 0.27896 0.45407 0.0
H2057 H 0.24476 0.24402 0.4318 0.0
H2058 H 0.20039 0.06916 0.43248 0.0
H2059 H 0.20407 0.13178 0.43376 0.0
H2060 H 0.25667 0.16919 0.4546 0.0
C2061 C 0.27906 0.29585 0.45035 0.0
C2062 C 0.24678 0.2282 0.43686 0.0
C2063 C 0.28542 0.3314 0.4508 0.0
C2064 C 0.22049 0.07988 0.43609 0.0
C2065 C 0.2227 0.11594 0.43679 0.0
C2066 C 0.25417 0.18522 0.44957 0.0
C2067 C 0.25594 0.28222 0.44491 0.0
C2068 C 0.25194 0.24355 0.44406 0.0
C2069 C 0.2479 0.13134 0.44149 0.0
C2070 C 0.24937 0.16998 0.44237 0.0
H2071 H 0.2321 0.35898 0.43659 0.0
H2072 H 0.21986 0.29671 0.43594 0.0
H2073 H 0.25839 0.23178 0.45609 0.0
H2074 H 0.28758 0.05717 0.44768 0.0
H2075 H 0.2912 0.12033 0.449 0.0
C2076 C 0.92765 0.97404 0.68504 0.0
C2077 C 0.90686 0.99395 0.68995 0.0
C2078 C 0.96325 0.9702 0.68638 0.0
C2079 C 0.03706 0.01704 0.69423 0.0
H2080 H 0.08572 0.93015 0.69173 0.0
C2081 C 0.18879 0.00818 0.69527 0.0
C2082 C 0.20476 0.98314 0.69064 0.0
C2083 C 0.15241 0.00919 0.69604 0.0
C2084 C 0.07278 0.95483 0.69233 0.0
H2085 H 0.90718 0.02482 0.70024 0.0
H2086 H 0.96986 0.01877 0.7025 0.0
H2087 H 0.02261 0.93094 0.69179 0.0
H2088 H 0.19478 0.94033 0.68298 0.0
H2089 H 0.13218 0.94291 0.68402 0.0
H2090 H 0.08707 0.04127 0.69441 0.0
C2091 C 0.95832 0.00574 0.69766 0.0
C2092 C 0.03642 0.95515 0.69244 0.0
C2093 C 0.92234 0.00886 0.69642 0.0
C2094 C 0.18348 0.95975 0.68667 0.0
C2095 C 0.14732 0.96104 0.68734 0.0
C2096 C 0.07354 0.01683 0.694 0.0
C2097 C 0.97932 0.98692 0.69256 0.0
C2098 C 0.01802 0.98628 0.69329 0.0
C2099 C 0.13103 0.98541 0.69212 0.0
C2100 C 0.09207 0.98575 0.69291 0.0
H2101 H 0.91659 0.96271 0.67994 0.0
H2102 H 0.97858 0.95572 0.68231 0.0
H2103 H 0.02371 0.04154 0.69482 0.0
H2104 H 0.20442 0.02648 0.69844 0.0
H2105 H 0.14118 0.02822 0.69983 0.0
C2106 C 0.26193 0.67626 0.9404 0.0
C2107 C 0.23879 0.66298 0.94586 0.0
C2108 C 0.26759 0.71221 0.9398 0.0
C2109 C 0.2524 0.79688 0.95003 0.0
H2110 H 0.25897 0.83588 0.92975 0.0
C2111 C 0.23996 0.94538 0.9444 0.0
C2112 C 0.26322 0.95978 0.93911 0.0
C2113 C 0.23734 0.90922 0.94527 0.0
C2114 C 0.25745 0.8255 0.93547 0.0
H2115 H 0.20474 0.67723 0.95517 0.0
H2116 H 0.21432 0.73896 0.95413 0.0
H2117 H 0.25667 0.7733 0.93135 0.0
H2118 H 0.30145 0.94711 0.93048 0.0
H2119 H 0.29674 0.88478 0.93195 0.0
H2120 H 0.2527 0.84918 0.95413 0.0
C2121 C 0.22848 0.72206 0.95032 0.0
C2122 C 0.25632 0.78941 0.93639 0.0
C2123 C 0.22284 0.68639 0.9509 0.0
C2124 C 0.28317 0.93708 0.93461 0.0
C2125 C 0.28035 0.90114 0.93543 0.0
C2126 C 0.25334 0.83297 0.9491 0.0
C2127 C 0.25037 0.73578 0.94466 0.0
C2128 C 0.25364 0.77441 0.94369 0.0
C2129 C 0.25764 0.88653 0.94081 0.0
C2130 C 0.25583 0.84791 0.9418 0.0
H2131 H 0.27438 0.6591 0.93636 0.0
H2132 H 0.28507 0.72154 0.93543 0.0
H2133 H 0.25096 0.78662 0.95575 0.0
H2134 H 0.22432 0.96203 0.94798 0.0
H2135 H 0.21929 0.89903 0.94942 0.0
C2136 C 0.31261 0.98416 0.31871 0.0
C2137 C 0.29091 0.99687 0.3129 0.0
C2138 C 0.34886 0.98689 0.31821 0.0
C2139 C 0.42212 0.02668 0.30665 0.0
H2140 H 0.47584 0.95552 0.3168 0.0
C2141 C 0.57012 1.00463 0.30094 0.0
C2142 C 0.59189 1.00013 0.30733 0.0
C2143 C 0.53377 1.00495 0.30169 0.0
C2144 C 0.46134 0.97578 0.31397 0.0
H2145 H 0.29071 0.0227 0.30199 0.0
H2146 H 0.35395 0.02648 0.30092 0.0
H2147 H 0.413 0.95528 0.31782 0.0
H2148 H 0.59168 0.99189 0.31954 0.0
H2149 H 0.5283 0.99131 0.3208 0.0
H2150 H 0.47098 0.04606 0.30255 0.0
C2151 C 0.34311 0.01526 0.30604 0.0
C2152 C 0.42494 0.9759 0.3146 0.0
C2153 C 0.30658 0.0132 0.30663 0.0
C2154 C 0.57596 0.99524 0.31448 0.0
C2155 C 0.53951 0.9949 0.3152 0.0
C2156 C 0.45856 0.02614 0.30591 0.0
C2157 C 0.36509 1.00155 0.31177 0.0
C2158 C 0.40443 1.0015 0.311 0.0
C2159 C 0.5178 1.00018 0.30883 0.0
C2160 C 0.4788 1.00078 0.3096 0.0
H2161 H 0.30146 0.97147 0.32364 0.0
H2162 H 0.36406 0.97704 0.32292 0.0
H2163 H 0.408 0.04727 0.30386 0.0
H2164 H 0.58117 0.00883 0.29535 0.0
H2165 H 0.51809 0.00877 0.29663 0.0
C2166 C 0.3006 0.07214 0.56536 0.0
C2167 C 0.27718 0.05108 0.56133 0.0
C2168 C 0.29971 0.1082 0.56466 0.0
C2169 C 0.24504 0.18239 0.55775 0.0
H2170 H 0.33169 0.23216 0.56012 0.0
C2171 C 0.25466 0.33298 0.55505 0.0
C2172 C 0.27001 0.34869 0.56145 0.0
C2173 C 0.25738 0.29699 0.55391 0.0
C2174 C 0.30725 0.21869 0.55943 0.0
H2175 H 0.23416 0.0518 0.5534 0.0
H2176 H 0.2331 0.11487 0.55199 0.0
H2177 H 0.33165 0.16925 0.56032 0.0
H2178 H 0.30149 0.33925 0.57144 0.0
H2179 H 0.30781 0.27724 0.56925 0.0
H2180 H 0.22094 0.23235 0.55676 0.0
C2181 C 0.25185 0.10352 0.55584 0.0
C2182 C 0.30709 0.18242 0.55962 0.0
C2183 C 0.25247 0.06723 0.55662 0.0
C2184 C 0.28993 0.32804 0.56638 0.0
C2185 C 0.29335 0.2924 0.56515 0.0
C2186 C 0.24531 0.21877 0.55745 0.0
C2187 C 0.27572 0.12467 0.55981 0.0
C2188 C 0.2759 0.16354 0.55897 0.0
C2189 C 0.27618 0.27613 0.55905 0.0
C2190 C 0.27634 0.23744 0.55844 0.0
H2191 H 0.31978 0.06071 0.5691 0.0
H2192 H 0.31788 0.12315 0.56802 0.0
H2193 H 0.22038 0.16919 0.55729 0.0
H2194 H 0.23861 0.348 0.55122 0.0
H2195 H 0.24402 0.28534 0.54913 0.0
C2196 C 0.19273 0.05087 0.81847 0.0
C2197 C 0.2145 0.02553 0.81524 0.0
C2198 C 0.15644 0.04794 0.81821 0.0
C2199 C 0.08343 1.00475 0.80777 0.0
H2200 H 0.02922 0.03934 0.82473 0.0
C2201 C 0.93122 0.993 0.80892 0.0
C2202 C 0.91208 0.01912 0.81265 0.0
C2203 C 0.96784 0.99285 0.80901 0.0
C2204 C 0.04369 0.02999 0.81986 0.0
H2205 H 0.21427 0.97681 0.80917 0.0
H2206 H 0.15065 0.97146 0.80872 0.0
H2207 H 0.09214 0.03927 0.8255 0.0
H2208 H 0.91756 0.06623 0.81923 0.0
H2209 H 0.98075 0.06649 0.81924 0.0
H2210 H 0.03477 0.99561 0.80213 0.0
C2211 C 0.1619 0.9939 0.81146 0.0
C2212 C 0.08015 0.02986 0.82032 0.0
C2213 C 0.19853 0.99675 0.81178 0.0
C2214 C 0.93101 0.04559 0.81628 0.0
C2215 C 0.96757 0.04549 0.81637 0.0
C2216 C 0.04682 1.00493 0.80731 0.0
C2217 C 0.14015 0.01958 0.81465 0.0
C2218 C 0.10085 0.01758 0.81426 0.0
C2219 C 0.98681 0.01883 0.81284 0.0
C2220 C 0.02618 0.01789 0.81332 0.0
H2221 H 0.20376 0.07355 0.82116 0.0
H2222 H 0.14112 0.06865 0.82064 0.0
H2223 H 0.09809 0.99538 0.80294 0.0
H2224 H 0.91793 0.97199 0.80608 0.0
H2225 H 0.98121 0.97163 0.80627 0.0
C2226 C 0.28793 0.68165 0.05 0.0
C2227 C 0.27122 0.65798 0.05487 0.0
C2228 C 0.28154 0.71719 0.0505 0.0
C2229 C 0.24748 0.78449 0.06387 0.0
H2230 H 0.25877 0.8437 0.04621 0.0
C2231 C 0.21975 0.9327 0.06444 0.0
C2232 C 0.24328 0.95473 0.06068 0.0
C2233 C 0.22238 0.89664 0.06379 0.0
C2234 C 0.25587 0.82761 0.05122 0.0
H2235 H 0.23336 0.65354 0.06392 0.0
H2236 H 0.22109 0.71576 0.06463 0.0
H2237 H 0.26115 0.78116 0.04471 0.0
H2238 H 0.2882 0.95573 0.05329 0.0
H2239 H 0.29255 0.8926 0.05206 0.0
H2240 H 0.24143 0.83129 0.07033 0.0
C2241 C 0.23992 0.70675 0.06051 0.0
C2242 C 0.25726 0.79152 0.05037 0.0
C2243 C 0.2465 0.67089 0.06003 0.0
C2244 C 0.26971 0.9396 0.05628 0.0
C2245 C 0.27203 0.90339 0.05554 0.0
C2246 C 0.24564 0.82063 0.0647 0.0
C2247 C 0.2579 0.7306 0.05585 0.0
C2248 C 0.25355 0.76923 0.0567 0.0
C2249 C 0.24833 0.88138 0.05928 0.0
C2250 C 0.25016 0.84276 0.0584 0.0
H2251 H 0.30723 0.67284 0.04596 0.0
H2252 H 0.29646 0.73421 0.04687 0.0
H2253 H 0.24503 0.7686 0.06892 0.0
H2254 H 0.19904 0.94335 0.06789 0.0
H2255 H 0.20348 0.88068 0.0667 0.0
C2256 C 0.43096 0.96706 0.81603 0.0
C2257 C 0.41241 0.99436 0.8126 0.0
C2258 C 0.46752 0.96695 0.81623 0.0
C2259 C 0.54747 0.00894 0.80782 0.0
H2260 H 0.59169 0.97076 0.82576 0.0
C2261 C 0.69873 0.01647 0.81273 0.0
C2262 C 0.71471 0.98714 0.81595 0.0
C2263 C 0.66212 0.01923 0.81237 0.0
C2264 C 0.58002 0.98126 0.82065 0.0
H2265 H 0.41894 0.04276 0.80654 0.0
H2266 H 0.48218 0.04273 0.80694 0.0
H2267 H 0.52881 0.97094 0.82481 0.0
H2268 H 0.70401 0.93801 0.82141 0.0
H2269 H 0.64132 0.94277 0.82082 0.0
H2270 H 0.59898 0.01931 0.80369 0.0
C2271 C 0.46853 0.02104 0.80942 0.0
C2272 C 0.54358 0.98128 0.82009 0.0
C2273 C 0.43192 0.02112 0.8092 0.0
C2274 C 0.69295 0.96115 0.81892 0.0
C2275 C 0.65665 0.96397 0.81861 0.0
C2276 C 0.58404 0.00896 0.80839 0.0
C2277 C 0.48712 0.99419 0.81304 0.0
C2278 C 0.52646 0.99481 0.81363 0.0
C2279 C 0.64036 0.99288 0.81528 0.0
C2280 C 0.60107 0.9948 0.81479 0.0
H2281 H 0.41721 0.94592 0.81871 0.0
H2282 H 0.4804 0.94532 0.81893 0.0
H2283 H 0.53574 0.01935 0.8027 0.0
H2284 H 0.71446 0.03692 0.81032 0.0
H2285 H 0.65088 0.04211 0.80981 0.0
C2286 C 0.75517 0.66754 0.55658 0.0
C2287 C 0.76911 0.6523 0.56319 0.0
C2288 C 0.75739 0.70356 0.55543 0.0
C2289 C 0.80495 0.78266 0.56127 0.0
H2290 H 0.71831 0.83143 0.5581 0.0
C2291 C 0.7969 0.92978 0.56642 0.0
C2292 C 0.77413 0.95036 0.5621 0.0
C2293 C 0.79609 0.89363 0.56592 0.0
C2294 C 0.74293 0.81844 0.55886 0.0
H2295 H 0.79796 0.66275 0.57352 0.0
H2296 H 0.80341 0.7248 0.57133 0.0
H2297 H 0.71938 0.76822 0.55779 0.0
H2298 H 0.73229 0.9487 0.55389 0.0
H2299 H 0.73142 0.88548 0.55281 0.0
H2300 H 0.82887 0.83229 0.56221 0.0
C2301 C 0.79025 0.70923 0.56709 0.0
C2302 C 0.74349 0.78202 0.55868 0.0
C2303 C 0.78727 0.67356 0.56833 0.0
C2304 C 0.75006 0.93365 0.55733 0.0
C2305 C 0.74957 0.89726 0.55674 0.0
C2306 C 0.80454 0.81894 0.56133 0.0
C2307 C 0.77443 0.72496 0.56075 0.0
C2308 C 0.7744 0.76363 0.56004 0.0
C2309 C 0.77288 0.87657 0.56098 0.0
C2310 C 0.7734 0.8376 0.56031 0.0
H2311 H 0.74069 0.65205 0.55254 0.0
H2312 H 0.74516 0.7148 0.55045 0.0
H2313 H 0.8293 0.7694 0.56224 0.0
H2314 H 0.81556 0.94165 0.57022 0.0
H2315 H 0.81375 0.87911 0.56949 0.0
C2316 C 0.80933 0.99084 0.30859 0.0
C2317 C 0.79268 0.02295 0.30955 0.0
C2318 C 0.8459 0.98884 0.30795 0.0
C2319 C 0.92658 0.04228 0.31172 0.0
H2320 H 0.97286 0.97163 0.29984 0.0
C2321 C 0.07592 0.04663 0.30624 0.0
C2322 C 0.09439 0.01528 0.30675 0.0
C2323 C 0.03932 0.04708 0.30625 0.0
C2324 C 0.96045 0.99148 0.30324 0.0
H2325 H 0.8018 0.07818 0.3102 0.0
H2326 H 0.86413 0.07494 0.30882 0.0
H2327 H 0.90954 0.9726 0.30047 0.0
H2328 H 0.08786 0.95965 0.30749 0.0
H2329 H 0.02473 0.96046 0.30742 0.0
H2330 H 0.97738 0.06134 0.31442 0.0
C2331 C 0.84966 0.05096 0.30886 0.0
C2332 C 0.92388 0.99197 0.30362 0.0
C2333 C 0.8135 0.05287 0.30958 0.0
C2334 C 0.07493 0.98439 0.30707 0.0
C2335 C 0.03843 0.98482 0.307 0.0
C2336 C 0.963 0.04196 0.31127 0.0
C2337 C 0.86683 0.01894 0.30818 0.0
C2338 C 0.90615 0.01751 0.30785 0.0
C2339 C 0.0199 0.01617 0.30668 0.0
C2340 C 0.98068 0.01662 0.30702 0.0
H2341 H 0.79425 0.96722 0.30857 0.0
H2342 H 0.85775 0.96357 0.30748 0.0
H2343 H 0.91451 0.06191 0.31522 0.0
H2344 H 0.08972 0.07099 0.306 0.0
H2345 H 0.02622 0.07179 0.3059 0.0
C2346 C 0.76614 0.06739 0.05827 0.0
C2347 C 0.74317 0.05234 0.06354 0.0
C2348 C 0.76769 0.10356 0.05739 0.0
C2349 C 0.74606 0.18679 0.06709 0.0
H2350 H 0.75021 0.22507 0.04672 0.0
C2351 C 0.7421 0.33601 0.062 0.0
C2352 C 0.7647 0.3488 0.05638 0.0
C2353 C 0.73596 0.30015 0.06267 0.0
C2354 C 0.74944 0.21501 0.05247 0.0
H2355 H 0.70435 0.06386 0.07211 0.0
H2356 H 0.70738 0.12643 0.07065 0.0
H2357 H 0.74935 0.16259 0.04845 0.0
H2358 H 0.79716 0.33391 0.04685 0.0
H2359 H 0.78685 0.27242 0.04801 0.0
H2360 H 0.7469 0.23912 0.07113 0.0
C2361 C 0.72424 0.11047 0.06719 0.0
C2362 C 0.74897 0.17897 0.05345 0.0
C2363 C 0.72241 0.07444 0.068 0.0
C2364 C 0.77947 0.32509 0.05124 0.0
C2365 C 0.77339 0.28955 0.05189 0.0
C2366 C 0.74685 0.22287 0.06611 0.0
C2367 C 0.74663 0.12566 0.06182 0.0
C2368 C 0.74743 0.16425 0.06078 0.0
C2369 C 0.75219 0.27624 0.05772 0.0
C2370 C 0.74879 0.23767 0.05878 0.0
H2371 H 0.7824 0.05121 0.05472 0.0
H2372 H 0.78552 0.11425 0.05325 0.0
H2373 H 0.74515 0.17652 0.07282 0.0
H2374 H 0.73063 0.35344 0.06613 0.0
H2375 H 0.71902 0.29115 0.06717 0.0
C2376 C 0.68805 1.00017 0.69533 0.0
C2377 C 0.70425 0.02334 0.69028 0.0
C2378 C 0.65162 0.99958 0.69605 0.0
C2379 C 0.57283 0.05347 0.69137 0.0
H2380 H 0.52214 0.96875 0.69521 0.0
C2381 C 0.42769 0.03486 0.68417 0.0
C2382 C 0.40627 0.01707 0.68933 0.0
C2383 C 0.46333 0.03827 0.6855 0.0
C2384 C 0.53595 0.99273 0.69424 0.0
H2385 H 0.69465 0.06293 0.68181 0.0
H2386 H 0.63205 0.06098 0.68279 0.0
H2387 H 0.58557 0.96776 0.69488 0.0
H2388 H 0.40554 0.98994 0.70012 0.0
H2389 H 0.46829 0.99516 0.70238 0.0
H2390 H 0.52313 0.07802 0.69038 0.0
C2391 C 0.64701 0.04414 0.68646 0.0
C2392 C 0.57245 0.99221 0.69405 0.0
C2393 C 0.68317 0.04503 0.68583 0.0
C2394 C 0.4212 1.00409 0.69606 0.0
C2395 C 0.45721 0.00673 0.69732 0.0
C2396 C 0.53648 0.05384 0.69144 0.0
C2397 C 0.63048 0.02192 0.69168 0.0
C2398 C 0.59153 0.02249 0.69247 0.0
C2399 C 0.47881 0.02328 0.69196 0.0
C2400 C 0.51749 0.02343 0.69277 0.0
H2401 H 0.70354 0.98323 0.69888 0.0
H2402 H 0.64014 0.98217 0.70016 0.0
H2403 H 0.58622 0.07764 0.69037 0.0
H2404 H 0.41709 0.04482 0.67888 0.0
H2405 H 0.47911 0.05103 0.68124 0.0
C2406 C 0.7645 0.68178 0.44638 0.0
C2407 C 0.74928 0.66618 0.43995 0.0
C2408 C 0.76219 0.71784 0.44749 0.0
C2409 C 0.71384 0.79672 0.44139 0.0
H2410 H 0.80031 0.8456 0.44474 0.0
C2411 C 0.72412 0.94196 0.43477 0.0
C2412 C 0.74451 0.96368 0.43939 0.0
C2413 C 0.72518 0.90599 0.43559 0.0
C2414 C 0.77578 0.83251 0.44392 0.0
H2415 H 0.71858 0.67593 0.42986 0.0
H2416 H 0.71315 0.73798 0.43195 0.0
H2417 H 0.79902 0.78236 0.44536 0.0
H2418 H 0.7827 0.96415 0.44843 0.0
H2419 H 0.78431 0.90098 0.44997 0.0
H2420 H 0.6904 0.84639 0.43996 0.0
C2421 C 0.72708 0.72274 0.43612 0.0
C2422 C 0.77505 0.79611 0.44428 0.0
C2423 C 0.72999 0.68704 0.43494 0.0
C2424 C 0.76679 0.94822 0.44475 0.0
C2425 C 0.76767 0.91193 0.44562 0.0
C2426 C 0.71448 0.83295 0.44109 0.0
C2427 C 0.74403 0.73891 0.44227 0.0
C2428 C 0.74418 0.77767 0.44286 0.0
C2429 C 0.74638 0.89024 0.44113 0.0
C2430 C 0.7456 0.85152 0.44215 0.0
H2431 H 0.78014 0.66658 0.45026 0.0
H2432 H 0.77536 0.72934 0.45231 0.0
H2433 H 0.68947 0.78354 0.44039 0.0
H2434 H 0.7069 0.95281 0.43052 0.0
H2435 H 0.70917 0.8905 0.43184 0.0
C2436 C 0.82962 0.97008 0.18357 0.0
C2437 C 0.80844 0.99076 0.18824 0.0
C2438 C 0.86587 0.97189 0.18401 0.0
C2439 C 0.94066 0.02362 0.19189 0.0
H2440 H 0.9903 0.93833 0.18788 0.0
C2441 C 0.09215 0.0116 0.19469 0.0
C2442 C 0.10829 0.99747 0.18819 0.0
C2443 C 0.05582 0.00954 0.19561 0.0
C2444 C 0.97694 0.96243 0.18901 0.0
H2445 H 0.80918 0.03021 0.19698 0.0
H2446 H 0.87267 0.03299 0.19791 0.0
H2447 H 0.92729 0.93877 0.18758 0.0
H2448 H 0.09895 0.96872 0.17781 0.0
H2449 H 0.03647 0.96363 0.17959 0.0
H2450 H 0.9909 0.04691 0.19343 0.0
C2451 C 0.86123 0.01567 0.19377 0.0
C2452 C 0.94054 0.96284 0.18877 0.0
C2453 C 0.82468 0.01418 0.19324 0.0
C2454 C 0.0875 0.97943 0.18294 0.0
C2455 C 0.05153 0.97669 0.18394 0.0
C2456 C 0.97722 0.02308 0.19222 0.0
C2457 C 0.88251 0.994 0.18926 0.0
C2458 C 0.92163 0.99358 0.19003 0.0
C2459 C 0.03491 0.99258 0.19016 0.0
C2460 C 0.99593 0.99258 0.19065 0.0
H2461 H 0.81809 0.95194 0.1796 0.0
H2462 H 0.88082 0.95558 0.18023 0.0
H2463 H 0.92747 0.04792 0.19286 0.0
H2464 H 0.1072 0.02611 0.1988 0.0
H2465 H 0.044 0.02183 0.20051 0.0
C2466 C 0.7801 0.33539 0.93487 0.0
C2467 C 0.7619 0.35685 0.93996 0.0
C2468 C 0.78324 0.29979 0.9362 0.0
C2469 C 0.73671 0.2272 0.94472 0.0
H2470 H 0.82235 0.17703 0.94145 0.0
C2471 C 0.74315 0.07556 0.94625 0.0
C2472 C 0.76745 0.05871 0.94156 0.0
C2473 C 0.74278 0.11197 0.94683 0.0
C2474 C 0.79795 0.19033 0.94226 0.0
H2475 H 0.73363 0.35749 0.95063 0.0
H2476 H 0.73832 0.29485 0.95285 0.0
H2477 H 0.82257 0.23992 0.94126 0.0
H2478 H 0.80952 0.06724 0.9336 0.0
H2479 H 0.80795 0.12975 0.93432 0.0
H2480 H 0.71166 0.17776 0.94536 0.0
C2481 C 0.75047 0.30589 0.94785 0.0
C2482 C 0.79824 0.22663 0.94223 0.0
C2483 C 0.74812 0.34187 0.94662 0.0
C2484 C 0.79068 0.07919 0.93735 0.0
C2485 C 0.78999 0.11535 0.93783 0.0
C2486 C 0.73627 0.19077 0.94462 0.0
C2487 C 0.76752 0.28429 0.94257 0.0
C2488 C 0.7676 0.24563 0.94337 0.0
C2489 C 0.76643 0.13257 0.94267 0.0
C2490 C 0.76684 0.17161 0.94327 0.0
H2491 H 0.79066 0.34598 0.92965 0.0
H2492 H 0.79642 0.28405 0.93199 0.0
H2493 H 0.71255 0.24098 0.94554 0.0
H2494 H 0.72497 0.06061 0.9496 0.0
H2495 H 0.72435 0.12384 0.95067 0.0
C2496 C 0.0879 0.50046 0.69592 0.0
C2497 C 0.10289 0.51489 0.68934 0.0
C2498 C 0.05195 0.50324 0.69721 0.0
C2499 C 0.97267 0.55148 0.69145 0.0
H2500 H 0.92387 0.46505 0.69467 0.0
C2501 C 0.82691 0.54089 0.68502 0.0
C2502 C 0.8055 0.52 0.68958 0.0
C2503 C 0.86299 0.54021 0.68582 0.0
C2504 C 0.93695 0.48957 0.69389 0.0
H2505 H 0.09238 0.54495 0.67921 0.0
H2506 H 0.03045 0.55122 0.68162 0.0
H2507 H 0.98729 0.46633 0.69515 0.0
H2508 H 0.80555 0.48148 0.69853 0.0
H2509 H 0.86886 0.48059 0.70005 0.0
H2510 H 0.92279 0.57491 0.6902 0.0
C2511 C 0.04609 0.53748 0.68576 0.0
C2512 C 0.97342 0.49028 0.69418 0.0
C2513 C 0.08168 0.53405 0.68439 0.0
C2514 C 0.82129 0.49776 0.69489 0.0
C2515 C 0.85765 0.49728 0.69575 0.0
C2516 C 0.93635 0.55086 0.69124 0.0
C2517 C 0.03048 0.52115 0.69204 0.0
C2518 C 0.99177 0.52113 0.69279 0.0
C2519 C 0.87905 0.51892 0.69129 0.0
C2520 C 0.91784 0.51975 0.69226 0.0
H2521 H 0.10343 0.48501 0.69977 0.0
H2522 H 0.04079 0.49056 0.70214 0.0
H2523 H 0.98589 0.57578 0.69046 0.0
H2524 H 0.81575 0.5581 0.68081 0.0
H2525 H 0.8783 0.55651 0.6821 0.0
C2526 C 0.75179 0.57541 0.94575 0.0
C2527 C 0.7277 0.5588 0.94096 0.0
C2528 C 0.75206 0.61179 0.94645 0.0
C2529 C 0.69664 0.6902 0.94206 0.0
H2530 H 0.78163 0.7411 0.94567 0.0
C2531 C 0.71361 0.83588 0.93523 0.0
C2532 C 0.7317 0.8571 0.94039 0.0
C2533 C 0.71066 0.80017 0.93643 0.0
C2534 C 0.75757 0.72725 0.94476 0.0
H2535 H 0.68595 0.56777 0.93294 0.0
H2536 H 0.68735 0.63023 0.93385 0.0
H2537 H 0.78291 0.6779 0.94526 0.0
H2538 H 0.75984 0.85715 0.95108 0.0
H2539 H 0.75549 0.79436 0.9531 0.0
H2540 H 0.67172 0.73969 0.94122 0.0
C2541 C 0.70521 0.61565 0.93736 0.0
C2542 C 0.75824 0.69082 0.94453 0.0
C2543 C 0.70463 0.57952 0.93676 0.0
C2544 C 0.74548 0.84174 0.94701 0.0
C2545 C 0.74332 0.80567 0.94812 0.0
C2546 C 0.69612 0.72649 0.94217 0.0
C2547 C 0.72849 0.63259 0.9423 0.0
C2548 C 0.72784 0.67158 0.94305 0.0
C2549 C 0.72644 0.78432 0.94276 0.0
C2550 C 0.7266 0.7456 0.94343 0.0
H2551 H 0.76983 0.56028 0.94911 0.0
H2552 H 0.77029 0.62345 0.95037 0.0
H2553 H 0.67234 0.67681 0.94116 0.0
H2554 H 0.70304 0.84675 0.93003 0.0
H2555 H 0.69759 0.78466 0.93217 0.0
C2556 C 0.42514 0.46811 0.18317 0.0
C2557 C 0.40375 0.48585 0.18835 0.0
C2558 C 0.4608 0.4646 0.18449 0.0
C2559 C 0.53351 0.51016 0.19315 0.0
H2560 H 0.58397 0.42512 0.18953 0.0
C2561 C 0.68541 0.5042 0.1945 0.0
C2562 C 0.70229 0.48044 0.18969 0.0
C2563 C 0.64895 0.50432 0.19512 0.0
C2564 C 0.57057 0.44935 0.19044 0.0
H2565 H 0.40321 0.51273 0.19918 0.0
H2566 H 0.46597 0.50744 0.2014 0.0
H2567 H 0.52087 0.42474 0.18943 0.0
H2568 H 0.69383 0.43906 0.18158 0.0
H2569 H 0.63111 0.44024 0.18237 0.0
H2570 H 0.58301 0.53525 0.1938 0.0
C2571 C 0.45483 0.49595 0.19633 0.0
C2572 C 0.53418 0.44896 0.19046 0.0
C2573 C 0.41879 0.49865 0.1951 0.0
C2574 C 0.68181 0.45748 0.18541 0.0
C2575 C 0.64556 0.45794 0.18594 0.0
C2576 C 0.57002 0.51071 0.193 0.0
C2577 C 0.47638 0.47948 0.19095 0.0
C2578 C 0.51511 0.47939 0.19173 0.0
C2579 C 0.62834 0.48097 0.19088 0.0
C2580 C 0.58925 0.48037 0.19153 0.0
H2581 H 0.41447 0.4583 0.17788 0.0
H2582 H 0.47654 0.45188 0.18021 0.0
H2583 H 0.51965 0.53416 0.19406 0.0
H2584 H 0.7004 0.52213 0.19791 0.0
H2585 H 0.63706 0.52231 0.19906 0.0
C2586 C 0.73099 0.18973 0.45084 0.0
C2587 C 0.74759 0.16616 0.44593 0.0
C2588 C 0.73721 0.2253 0.45034 0.0
C2589 C 0.77001 0.29265 0.43685 0.0
H2590 H 0.75985 0.35199 0.45453 0.0
C2591 C 0.797 0.44094 0.43609 0.0
C2592 C 0.77392 0.46293 0.43999 0.0
C2593 C 0.79451 0.40487 0.43675 0.0
C2594 C 0.76242 0.33587 0.44952 0.0
H2595 H 0.78507 0.16192 0.4368 0.0
H2596 H 0.79698 0.22418 0.43607 0.0
H2597 H 0.7578 0.28945 0.45607 0.0
H2598 H 0.72989 0.46387 0.44764 0.0
H2599 H 0.72573 0.40076 0.44887 0.0
H2600 H 0.77532 0.3394 0.43035 0.0
C2601 C 0.7784 0.21507 0.44023 0.0
C2602 C 0.76123 0.29978 0.45038 0.0
C2603 C 0.77203 0.1792 0.44072 0.0
C2604 C 0.74802 0.44777 0.44454 0.0
C2605 C 0.74582 0.41157 0.44528 0.0
C2606 C 0.77161 0.32878 0.436 0.0
C2607 C 0.7605 0.23882 0.44493 0.0
C2608 C 0.76457 0.27745 0.44406 0.0
C2609 C 0.76913 0.38958 0.44141 0.0
C2610 C 0.76751 0.35096 0.44231 0.0
H2611 H 0.71192 0.1808 0.45492 0.0
H2612 H 0.72239 0.24227 0.454 0.0
H2613 H 0.77213 0.27672 0.4318 0.0
H2614 H 0.8173 0.45162 0.43254 0.0
H2615 H 0.8131 0.38895 0.43374 0.0
C2616 C 0.84343 0.51187 0.80708 0.0
C2617 C 0.82653 0.4882 0.8119 0.0
C2618 C 0.87987 0.51165 0.80639 0.0
C2619 C 0.95767 0.45556 0.8108 0.0
H2620 H 0.00964 0.53976 0.80724 0.0
C2621 C 0.10351 0.47197 0.81785 0.0
C2622 C 0.12497 0.48963 0.81267 0.0
C2623 C 0.06777 0.46901 0.81658 0.0
C2624 C 0.99546 0.51593 0.80813 0.0
H2625 H 0.83491 0.44668 0.81998 0.0
H2626 H 0.8976 0.44728 0.81908 0.0
H2627 H 0.9463 0.54175 0.80764 0.0
H2628 H 0.12556 0.51688 0.80189 0.0
H2629 H 0.06266 0.51255 0.79976 0.0
H2630 H 0.00704 0.43019 0.81166 0.0
C2631 C 0.88317 0.46517 0.81555 0.0
C2632 C 0.95899 0.517 0.80836 0.0
C2633 C 0.84696 0.46505 0.81614 0.0
C2634 C 0.1099 0.50288 0.80597 0.0
C2635 C 0.0738 0.50072 0.80479 0.0
C2636 C 0.99404 0.45464 0.8107 0.0
C2637 C 0.9004 0.48802 0.81057 0.0
C2638 C 0.9394 0.48689 0.80982 0.0
C2639 C 0.05221 0.48436 0.81018 0.0
C2640 C 0.01348 0.48484 0.80946 0.0
H2641 H 0.82847 0.52991 0.8037 0.0
H2642 H 0.89179 0.52954 0.80244 0.0
H2643 H 0.94395 0.4315 0.8117 0.0
H2644 H 0.1142 0.46179 0.82311 0.0
H2645 H 0.052 0.45635 0.82086 0.0
C2646 C 0.73321 0.82652 0.05212 0.0
C2647 C 0.74896 0.84952 0.05729 0.0
C2648 C 0.73937 0.7909 0.05248 0.0
C2649 C 0.76878 0.72223 0.06596 0.0
H2650 H 0.76267 0.66449 0.04794 0.0
C2651 C 0.79396 0.57378 0.06664 0.0
C2652 C 0.77234 0.55214 0.06226 0.0
C2653 C 0.79189 0.60989 0.06605 0.0
C2654 C 0.76406 0.68014 0.05305 0.0
H2655 H 0.78485 0.8528 0.06675 0.0
H2656 H 0.79662 0.7904 0.06726 0.0
H2657 H 0.76136 0.72719 0.04665 0.0
H2658 H 0.73135 0.55193 0.05383 0.0
H2659 H 0.72782 0.61516 0.05275 0.0
H2660 H 0.77196 0.67494 0.07233 0.0
C2661 C 0.77884 0.80001 0.06298 0.0
C2662 C 0.76334 0.71632 0.05232 0.0
C2663 C 0.77259 0.83595 0.06262 0.0
C2664 C 0.74831 0.56774 0.0573 0.0
C2665 C 0.7465 0.60402 0.05665 0.0
C2666 C 0.76983 0.68602 0.06668 0.0
C2667 C 0.76168 0.77679 0.05802 0.0
C2668 C 0.7653 0.73807 0.05877 0.0
C2669 C 0.76837 0.62565 0.061 0.0
C2670 C 0.76719 0.66438 0.06024 0.0
H2671 H 0.71471 0.83593 0.04796 0.0
H2672 H 0.72517 0.77433 0.04861 0.0
H2673 H 0.76976 0.73773 0.07109 0.0
H2674 H 0.81283 0.56279 0.07052 0.0
H2675 H 0.80941 0.62547 0.06945 0.0
C2676 C 0.41505 0.50331 0.30609 0.0
C2677 C 0.39988 0.51687 0.31274 0.0
C2678 C 0.45114 0.50561 0.30492 0.0
C2679 C 0.53059 0.55247 0.31083 0.0
H2680 H 0.57894 0.46569 0.30776 0.0
C2681 C 0.67755 0.5429 0.31643 0.0
C2682 C 0.69824 0.52024 0.31212 0.0
C2683 C 0.64135 0.54244 0.31581 0.0
C2684 C 0.56606 0.49034 0.30849 0.0
H2685 H 0.41043 0.54536 0.32311 0.0
H2686 H 0.47261 0.55097 0.32089 0.0
H2687 H 0.51557 0.46725 0.30734 0.0
H2688 H 0.69679 0.47897 0.3038 0.0
H2689 H 0.63345 0.4787 0.30252 0.0
H2690 H 0.58053 0.57591 0.31187 0.0
C2691 C 0.45694 0.538 0.31663 0.0
C2692 C 0.52958 0.49118 0.30824 0.0
C2693 C 0.42121 0.53493 0.31789 0.0
C2694 C 0.68162 0.49664 0.30723 0.0
C2695 C 0.64518 0.49649 0.30653 0.0
C2696 C 0.56696 0.55178 0.31095 0.0
C2697 C 0.47262 0.5224 0.31027 0.0
C2698 C 0.51136 0.52215 0.30957 0.0
C2699 C 0.6244 0.5197 0.31076 0.0
C2700 C 0.58542 0.52057 0.30998 0.0
H2701 H 0.39949 0.48899 0.30203 0.0
H2702 H 0.46237 0.49358 0.29992 0.0
H2703 H 0.51744 0.57685 0.31178 0.0
H2704 H 0.68938 0.5612 0.32032 0.0
H2705 H 0.62669 0.56 0.31938 0.0
C2706 C 0.71377 0.42925 0.5655 0.0
C2707 C 0.73683 0.45044 0.56141 0.0
C2708 C 0.71466 0.39321 0.56477 0.0
C2709 C 0.76875 0.31904 0.55768 0.0
H2710 H 0.68214 0.26949 0.5603 0.0
C2711 C 0.75844 0.16826 0.55521 0.0
C2712 C 0.74358 0.15287 0.5617 0.0
C2713 C 0.75578 0.20422 0.55401 0.0
C2714 C 0.70657 0.28289 0.55954 0.0
H2715 H 0.77931 0.44993 0.55336 0.0
H2716 H 0.78039 0.38681 0.55189 0.0
H2717 H 0.68232 0.33239 0.56044 0.0
H2718 H 0.71289 0.16287 0.57177 0.0
H2719 H 0.70659 0.22479 0.56949 0.0
H2720 H 0.79269 0.26899 0.55667 0.0
C2721 C 0.76188 0.39809 0.5558 0.0
C2722 C 0.70681 0.31916 0.55969 0.0
C2723 C 0.76125 0.43441 0.55662 0.0
C2724 C 0.72409 0.17381 0.56665 0.0
C2725 C 0.7207 0.20941 0.56536 0.0
C2726 C 0.76839 0.28264 0.55741 0.0
C2727 C 0.7383 0.37685 0.55982 0.0
C2728 C 0.73801 0.33797 0.55896 0.0
C2729 C 0.73747 0.22537 0.55918 0.0
C2730 C 0.73738 0.26405 0.5585 0.0
H2731 H 0.69484 0.44054 0.56932 0.0
H2732 H 0.69676 0.3782 0.56818 0.0
H2733 H 0.7934 0.3322 0.55714 0.0
H2734 H 0.7741 0.15303 0.55134 0.0
H2735 H 0.76881 0.21563 0.54916 0.0
C2736 C 0.17755 0.45781 0.31521 0.0
C2737 C 0.19851 0.48111 0.31115 0.0
C2738 C 0.14139 0.45854 0.31454 0.0
C2739 C 0.06674 0.51261 0.30767 0.0
H2740 H 0.0172 0.42613 0.31024 0.0
C2741 C 0.9156 0.50215 0.30547 0.0
C2742 C 0.9006 0.48774 0.31205 0.0
C2743 C 0.95155 0.49939 0.30418 0.0
C2744 C 0.03062 0.4505 0.30949 0.0
H2745 H 0.19757 0.52376 0.30317 0.0
H2746 H 0.13427 0.52452 0.30178 0.0
H2747 H 0.08032 0.42632 0.31025 0.0
H2748 H 0.9112 0.45757 0.32217 0.0
H2749 H 0.97315 0.4511 0.31971 0.0
H2750 H 0.0165 0.53648 0.3068 0.0
C2751 C 0.14579 0.50598 0.30564 0.0
C2752 C 0.06699 0.45076 0.30957 0.0
C2753 C 0.18219 0.50553 0.30641 0.0
C2754 C 0.92187 0.4685 0.31699 0.0
C2755 C 0.95745 0.46498 0.3156 0.0
C2756 C 0.03025 0.51224 0.30747 0.0
C2757 C 0.12474 0.48224 0.30965 0.0
C2758 C 0.08577 0.48192 0.30886 0.0
C2759 C 0.97303 0.48137 0.30932 0.0
C2760 C 0.01172 0.48126 0.30854 0.0
H2761 H 0.18911 0.43888 0.31899 0.0
H2762 H 0.12651 0.4405 0.31793 0.0
H2763 H 0.07989 0.53723 0.30716 0.0
H2764 H 0.90007 0.51755 0.30161 0.0
H2765 H 0.96271 0.51211 0.29926 0.0
C2766 C 0.25725 0.17252 0.05514 0.0
C2767 C 0.27052 0.1573 0.06182 0.0
C2768 C 0.25949 0.20857 0.05401 0.0
C2769 C 0.30569 0.2879 0.06049 0.0
H2770 H 0.22007 0.33649 0.05607 0.0
C2771 C 0.29466 0.43386 0.06632 0.0
C2772 C 0.27484 0.45513 0.06149 0.0
C2773 C 0.29368 0.3978 0.06566 0.0
C2774 C 0.2444 0.32349 0.05719 0.0
H2775 H 0.29804 0.1678 0.07232 0.0
H2776 H 0.30339 0.22983 0.0702 0.0
H2777 H 0.22153 0.27321 0.05564 0.0
H2778 H 0.2378 0.45475 0.05222 0.0
H2779 H 0.23643 0.39147 0.05094 0.0
H2780 H 0.32885 0.33764 0.06198 0.0
C2781 C 0.29088 0.21428 0.06587 0.0
C2782 C 0.24521 0.28707 0.05694 0.0
C2783 C 0.28797 0.17859 0.06707 0.0
C2784 C 0.25322 0.43916 0.05607 0.0
C2785 C 0.25249 0.40279 0.05535 0.0
C2786 C 0.30501 0.32415 0.06065 0.0
C2787 C 0.27578 0.23002 0.05944 0.0
C2788 C 0.27572 0.26875 0.05875 0.0
C2789 C 0.27321 0.38151 0.06006 0.0
C2790 C 0.27416 0.34267 0.0592 0.0
H2791 H 0.24323 0.157 0.05103 0.0
H2792 H 0.24782 0.21976 0.04897 0.0
H2793 H 0.3298 0.27478 0.06179 0.0
H2794 H 0.31135 0.44513 0.07062 0.0
H2795 H 0.30918 0.38271 0.06958 0.0
C2796 C 0.34735 0.54775 0.81553 0.0
C2797 C 0.32675 0.52462 0.81132 0.0
C2798 C 0.38351 0.54763 0.81488 0.0
C2799 C 0.45923 0.49592 0.80769 0.0
H2800 H 0.50679 0.5832 0.81074 0.0
C2801 C 0.6102 0.51054 0.80554 0.0
C2802 C 0.62484 0.52423 0.81224 0.0
C2803 C 0.57417 0.51252 0.80425 0.0
C2804 C 0.49394 0.55862 0.80985 0.0
H2805 H 0.32837 0.48282 0.80313 0.0
H2806 H 0.39173 0.48312 0.80178 0.0
H2807 H 0.44372 0.58157 0.81075 0.0
H2808 H 0.61342 0.5527 0.82256 0.0
H2809 H 0.55135 0.55788 0.82012 0.0
H2810 H 0.51002 0.47334 0.80668 0.0
C2811 C 0.3799 0.50106 0.80574 0.0
C2812 C 0.45759 0.55752 0.80993 0.0
C2813 C 0.34346 0.50088 0.80649 0.0
C2814 C 0.60307 0.54222 0.8173 0.0
C2815 C 0.56739 0.545 0.81593 0.0
C2816 C 0.49571 0.49716 0.80748 0.0
C2817 C 0.40055 0.52476 0.80987 0.0
C2818 C 0.43951 0.52602 0.80906 0.0
C2819 C 0.55223 0.52915 0.80953 0.0
C2820 C 0.51354 0.52843 0.80873 0.0
H2821 H 0.33548 0.56615 0.81939 0.0
H2822 H 0.39808 0.56554 0.81838 0.0
H2823 H 0.44664 0.47108 0.80704 0.0
H2824 H 0.62611 0.4963 0.80154 0.0
H2825 H 0.56333 0.50031 0.79923 0.0
C2826 C 0.25831 0.83437 0.55559 0.0
C2827 C 0.2442 0.84932 0.56222 0.0
C2828 C 0.25641 0.79836 0.55439 0.0
C2829 C 0.20983 0.71863 0.56025 0.0
H2830 H 0.29704 0.67094 0.55704 0.0
C2831 C 0.22037 0.57244 0.56594 0.0
C2832 C 0.24251 0.55166 0.56152 0.0
C2833 C 0.22093 0.60852 0.56533 0.0
C2834 C 0.27229 0.68366 0.55781 0.0
H2835 H 0.21529 0.83842 0.5725 0.0
H2836 H 0.21036 0.77641 0.57024 0.0
H2837 H 0.29508 0.73417 0.55664 0.0
H2838 H 0.28312 0.55289 0.55302 0.0
H2839 H 0.28365 0.61614 0.55177 0.0
H2840 H 0.1867 0.66869 0.56133 0.0
C2841 C 0.22342 0.79218 0.56602 0.0
C2842 C 0.2712 0.72006 0.55758 0.0
C2843 C 0.22607 0.82783 0.5673 0.0
C2844 C 0.26585 0.56812 0.55654 0.0
C2845 C 0.26612 0.60448 0.55585 0.0
C2846 C 0.21078 0.68239 0.56037 0.0
C2847 C 0.23952 0.77671 0.55969 0.0
C2848 C 0.24007 0.73805 0.55896 0.0
C2849 C 0.24326 0.62531 0.56016 0.0
C2850 C 0.24216 0.66417 0.55935 0.0
H2851 H 0.27277 0.85005 0.55159 0.0
H2852 H 0.26883 0.78733 0.54942 0.0
H2853 H 0.18531 0.73156 0.56124 0.0
H2854 H 0.20231 0.56077 0.56991 0.0
H2855 H 0.2037 0.62322 0.56896 0.0
C2856 C 0.18142 0.54564 0.18534 0.0
C2857 C 0.20217 0.52205 0.18939 0.0
C2858 C 0.14522 0.5452 0.186 0.0
C2859 C 0.07007 0.49173 0.19295 0.0
H2860 H 0.02112 0.5785 0.1903 0.0
C2861 C 0.91913 0.50374 0.19561 0.0
C2862 C 0.90374 0.51781 0.18903 0.0
C2863 C 0.95522 0.50623 0.19677 0.0
C2864 C 0.03437 0.55405 0.19107 0.0
H2865 H 0.2008 0.47922 0.19731 0.0
H2866 H 0.13755 0.47899 0.19868 0.0
H2867 H 0.08422 0.57778 0.19016 0.0
H2868 H 0.91387 0.5474 0.1788 0.0
H2869 H 0.97604 0.55341 0.18103 0.0
H2870 H 0.01968 0.46834 0.19399 0.0
C2871 C 0.14919 0.4975 0.19483 0.0
C2872 C 0.07074 0.55348 0.19091 0.0
C2873 C 0.1856 0.49764 0.19408 0.0
C2874 C 0.92482 0.53661 0.18397 0.0
C2875 C 0.96055 0.53988 0.18523 0.0
C2876 C 0.03359 0.49243 0.19323 0.0
C2877 C 0.12834 0.52153 0.19085 0.0
C2878 C 0.08934 0.5222 0.19166 0.0
C2879 C 0.97648 0.52371 0.19149 0.0
C2880 C 0.01525 0.52351 0.19215 0.0
H2881 H 0.19319 0.5646 0.1816 0.0
H2882 H 0.13053 0.56346 0.18262 0.0
H2883 H 0.08301 0.46701 0.19348 0.0
H2884 H 0.90378 0.48883 0.19959 0.0
H2885 H 0.96664 0.49373 0.20169 0.0
C2886 C 0.21779 0.43775 0.93503 0.0
C2887 C 0.23948 0.46018 0.9392 0.0
C2888 C 0.22079 0.40175 0.93572 0.0
C2889 C 0.25273 0.33299 0.94873 0.0
H2890 H 0.24268 0.27388 0.93101 0.0
C2891 C 0.28438 0.18659 0.94977 0.0
C2892 C 0.26669 0.16319 0.94501 0.0
C2893 C 0.27835 0.22223 0.94933 0.0
C2894 C 0.24494 0.28983 0.93606 0.0
H2895 H 0.28167 0.46188 0.94733 0.0
H2896 H 0.28701 0.39884 0.94854 0.0
H2897 H 0.23969 0.33652 0.92956 0.0
H2898 H 0.22764 0.15929 0.93618 0.0
H2899 H 0.21631 0.22173 0.93552 0.0
H2900 H 0.2577 0.28644 0.95525 0.0
C2901 C 0.26746 0.40926 0.94475 0.0
C2902 C 0.24341 0.32596 0.93522 0.0
C2903 C 0.26464 0.44546 0.94401 0.0
C2904 C 0.24149 0.17645 0.94 0.0
C2905 C 0.23543 0.2124 0.93954 0.0
C2906 C 0.25406 0.29687 0.94958 0.0
C2907 C 0.24542 0.38683 0.94064 0.0
C2908 C 0.24747 0.34816 0.94153 0.0
C2909 C 0.25431 0.23596 0.94411 0.0
C2910 C 0.25047 0.2746 0.94326 0.0
H2911 H 0.19802 0.44803 0.93128 0.0
H2912 H 0.20306 0.38559 0.93251 0.0
H2913 H 0.25529 0.34904 0.95376 0.0
H2914 H 0.30408 0.17744 0.95369 0.0
H2915 H 0.29384 0.23911 0.95289 0.0
C2916 C 0.57874 0.5277 0.70056 0.0
C2917 C 0.60244 0.51204 0.69553 0.0
C2918 C 0.5431 0.52192 0.69988 0.0
C2919 C 0.47495 0.46564 0.6919 0.0
H2920 H 0.42014 0.54975 0.69224 0.0
C2921 C 0.32735 0.46403 0.68523 0.0
C2922 C 0.30548 0.48732 0.68909 0.0
C2923 C 0.36351 0.46639 0.68587 0.0
C2924 C 0.43476 0.52585 0.69225 0.0
H2925 H 0.60706 0.47633 0.68607 0.0
H2926 H 0.54431 0.46549 0.68499 0.0
H2927 H 0.48272 0.55288 0.69383 0.0
H2928 H 0.30472 0.53143 0.69667 0.0
H2929 H 0.36771 0.53511 0.698 0.0
H2930 H 0.42698 0.43844 0.69051 0.0
C2931 C 0.55363 0.48251 0.68945 0.0
C2932 C 0.47085 0.5277 0.69313 0.0
C2933 C 0.58961 0.48849 0.6901 0.0
C2934 C 0.32078 0.51326 0.69357 0.0
C2935 C 0.35705 0.51539 0.6943 0.0
C2936 C 0.4387 0.46372 0.69111 0.0
C2937 C 0.52988 0.50014 0.69417 0.0
C2938 C 0.49147 0.49764 0.693 0.0
C2939 C 0.37908 0.49189 0.69048 0.0
C2940 C 0.41793 0.49382 0.69129 0.0
H2941 H 0.58764 0.54582 0.70484 0.0
H2942 H 0.52573 0.5353 0.70374 0.0
H2943 H 0.48996 0.44197 0.69183 0.0
H2944 H 0.31651 0.44384 0.68168 0.0
H2945 H 0.37922 0.44826 0.68269 0.0
C2946 C 0.25958 0.84082 0.44492 0.0
C2947 C 0.27337 0.8558 0.43827 0.0
C2948 C 0.2615 0.80478 0.4461 0.0
C2949 C 0.30778 0.72505 0.43988 0.0
H2950 H 0.22184 0.67692 0.44422 0.0
C2951 C 0.29628 0.57877 0.43434 0.0
C2952 C 0.27599 0.55785 0.43914 0.0
C2953 C 0.29563 0.61486 0.43494 0.0
C2954 C 0.24626 0.68979 0.44312 0.0
H2955 H 0.30158 0.84483 0.42788 0.0
H2956 H 0.30627 0.78282 0.43008 0.0
H2957 H 0.22346 0.7402 0.4445 0.0
H2958 H 0.23854 0.55895 0.44832 0.0
H2959 H 0.23776 0.62224 0.4495 0.0
H2960 H 0.33085 0.67517 0.43855 0.0
C2961 C 0.29357 0.79856 0.43436 0.0
C2962 C 0.24716 0.72622 0.44329 0.0
C2963 C 0.29099 0.83424 0.4331 0.0
C2964 C 0.25435 0.57424 0.4445 0.0
C2965 C 0.25393 0.61063 0.44516 0.0
C2966 C 0.307 0.68879 0.43979 0.0
C2967 C 0.27801 0.78308 0.44075 0.0
C2968 C 0.27779 0.74438 0.44151 0.0
C2969 C 0.27501 0.63155 0.44045 0.0
C2970 C 0.27605 0.67044 0.44122 0.0
H2971 H 0.24548 0.85655 0.44898 0.0
H2972 H 0.24948 0.7938 0.45113 0.0
H2973 H 0.33198 0.73804 0.43861 0.0
H2974 H 0.31302 0.5672 0.43009 0.0
H2975 H 0.31144 0.62967 0.43103 0.0
C2976 C 0.27286 0.06328 0.09805 0.0
C2977 C 0.25193 0.0449 0.09289 0.0
C2978 C 0.26756 0.06032 0.1059 0.0
C2979 C 0.23332 1.00163 0.12037 0.0
H2980 H 0.23209 0.08293 0.13331 0.0
C2981 C 0.20325 0.99174 0.15248 0.0
C2982 C 0.22148 0.01347 0.15749 0.0
C2983 C 0.20559 0.99636 0.1446 0.0
C2984 C 0.23284 0.0599 0.1298 0.0
H2985 H 0.20911 0.00894 0.09191 0.0
H2986 H 0.2 1.00346 0.10567 0.0
H2987 H 0.23868 0.0895 0.11956 0.0
H2988 H 0.25665 0.05698 0.15817 0.0
H2989 H 0.26159 0.06463 0.14441 0.0
H2990 H 0.22851 0.97186 0.13057 0.0
C2991 C 0.22045 0.02025 0.10361 0.0
C2992 C 0.23646 0.06372 0.12192 0.0
C2993 C 0.22546 0.02357 0.09575 0.0
C2994 C 0.24202 0.04008 0.15445 0.0
C2995 C 0.24472 0.04449 0.14655 0.0
C2996 C 0.2301 0.99776 0.12826 0.0
C2997 C 0.24147 0.03859 0.10877 0.0
C2998 C 0.23675 0.03463 0.11712 0.0
C2999 C 0.22659 0.02261 0.14152 0.0
C3000 C 0.22981 0.02684 0.13309 0.0
H3001 H 0.2932 0.08018 0.09601 0.0
H3002 H 0.28432 0.07458 0.10973 0.0
H3003 H 0.23395 0.97871 0.11682 0.0
H3004 H 0.18674 0.9714 0.15466 0.0
H3005 H 0.19062 0.97949 0.14093 0.0
C3006 C 0.1795 1.00261 0.34946 0.0
C3007 C 0.20331 0.99571 0.34356 0.0
C3008 C 0.18946 1.00071 0.35708 0.0
C3009 C 0.25145 0.96085 0.37014 0.0
H3010 H 0.22053 0.03307 0.38389 0.0
C3011 C 0.286 0.96133 0.40235 0.0
C3012 C 0.25978 0.97172 0.40745 0.0
C3013 C 0.28165 0.96502 0.39448 0.0
C3014 C 0.22907 0.01248 0.38015 0.0
H3015 H 0.25659 0.98097 0.34123 0.0
H3016 H 0.27377 0.97699 0.35464 0.0
H3017 H 0.20909 0.03821 0.37029 0.0
H3018 H 0.2084 0.99441 0.40815 0.0
H3019 H 0.20043 0.99986 0.39447 0.0
H3020 H 0.27066 0.93466 0.38003 0.0
C3021 C 0.24732 0.98405 0.35325 0.0
C3022 C 0.22265 0.01552 0.37235 0.0
C3023 C 0.23742 0.98629 0.34557 0.0
C3024 C 0.22904 0.98576 0.40444 0.0
C3025 C 0.22466 0.98935 0.39657 0.0
C3026 C 0.25771 0.95768 0.37797 0.0
C3027 C 0.22344 0.99153 0.35908 0.0
C3028 C 0.23328 0.98952 0.36726 0.0
C3029 C 0.25094 0.97916 0.39148 0.0
C3030 C 0.24612 0.98323 0.38309 0.0
H3031 H 0.15279 0.00901 0.34825 0.0
H3032 H 0.17024 0.00589 0.36144 0.0
H3033 H 0.25969 0.94026 0.36636 0.0
H3034 H 0.30985 0.95004 0.40443 0.0
H3035 H 0.30255 0.95714 0.39074 0.0
C3036 C 0.28766 0.98372 0.59653 0.0
C3037 C 0.26141 0.96249 0.59355 0.0
C3038 C 0.292 0.98711 0.60443 0.0
C3039 C 0.24564 0.97221 0.62282 0.0
H3040 H 0.33741 0.98434 0.63146 0.0
C3041 C 0.27254 0.96855 0.65534 0.0
C3042 C 0.29297 0.99571 0.6582 0.0
C3043 C 0.26912 0.96356 0.64747 0.0
C3044 C 0.3116 0.98113 0.62912 0.0
H3045 H 0.21988 0.92727 0.59649 0.0
H3046 H 0.22792 0.93227 0.61021 0.0
H3047 H 0.33085 0.97708 0.61772 0.0
H3048 H 0.32656 0.03829 0.65507 0.0
H3049 H 0.32087 0.02939 0.64134 0.0
H3050 H 0.22661 0.97561 0.63427 0.0
C3051 C 0.24454 0.9473 0.6065 0.0
C3052 C 0.30777 0.97714 0.62123 0.0
C3053 C 0.23995 0.9443 0.59862 0.0
C3054 C 0.31036 0.01738 0.65303 0.0
C3055 C 0.30735 0.01209 0.64518 0.0
C3056 C 0.24954 0.97576 0.63071 0.0
C3057 C 0.27044 0.96897 0.60953 0.0
C3058 C 0.2747 0.97279 0.61796 0.0
C3059 C 0.28651 0.98529 0.6423 0.0
C3060 C 0.28253 0.98045 0.63394 0.0
H3061 H 0.30434 0.99834 0.59276 0.0
H3062 H 0.31185 1.0045 0.60651 0.0
H3063 H 0.21968 0.96963 0.62054 0.0
H3064 H 0.25867 0.95161 0.65918 0.0
H3065 H 0.25304 0.94256 0.64542 0.0
C3066 C 0.22115 0.07368 0.90327 0.0
C3067 C 0.2412 0.0528 0.90813 0.0
C3068 C 0.22358 0.0702 0.89536 0.0
C3069 C 0.25297 0.01158 0.87997 0.0
H3070 H 0.26454 0.09652 0.86851 0.0
C3071 C 0.27318 0.01527 0.84703 0.0
C3072 C 0.30195 0.03514 0.84482 0.0
C3073 C 0.26074 0.01698 0.85454 0.0
C3074 C 0.26114 0.07258 0.87162 0.0
H3075 H 0.27865 0.01102 0.90847 0.0
H3076 H 0.28323 1.00519 0.89465 0.0
H3077 H 0.25255 0.09925 0.88213 0.0
H3078 H 0.33921 0.07348 0.84858 0.0
H3079 H 0.31758 0.07663 0.86157 0.0
H3080 H 0.26267 0.98499 0.86945 0.0
C3081 C 0.26547 0.02416 0.89697 0.0
C3082 C 0.25402 0.07413 0.87942 0.0
C3083 C 0.26318 0.02779 0.90489 0.0
C3084 C 0.31732 0.05749 0.85015 0.0
C3085 C 0.30469 0.05956 0.85758 0.0
C3086 C 0.25983 0.01004 0.87214 0.0
C3087 C 0.24599 0.04561 0.89211 0.0
C3088 C 0.25051 0.04366 0.88371 0.0
C3089 C 0.27649 0.03914 0.85988 0.0
C3090 C 0.26473 0.04054 0.86793 0.0
H3091 H 0.20417 0.09337 0.90556 0.0
H3092 H 0.20804 0.08693 0.89177 0.0
H3093 H 0.25003 0.98767 0.88311 0.0
H3094 H 0.26096 0.99786 0.84301 0.0
H3095 H 0.23886 1.00105 0.85616 0.0
C3096 C 0.72863 0.958 0.90417 0.0
C3097 C 0.75201 0.97277 0.90939 0.0
C3098 C 0.73417 0.96089 0.89632 0.0
C3099 C 0.80393 0.97778 0.8823 0.0
H3100 H 0.72726 0.98542 0.86807 0.0
C3101 C 0.8249 0.95473 0.85047 0.0
C3102 C 0.80852 0.97677 0.84522 0.0
C3103 C 0.81583 0.95526 0.85815 0.0
C3104 C 0.74898 0.98363 0.87197 0.0
H3105 H 0.79899 1.0031 0.91043 0.0
H3106 H 0.80849 0.0086 0.89675 0.0
H3107 H 0.71599 0.98642 0.88177 0.0
H3108 H 0.76871 0.01564 0.84384 0.0
H3109 H 0.75288 0.01708 0.85742 0.0
H3110 H 0.837 0.97573 0.87255 0.0
C3111 C 0.78624 0.99405 0.89871 0.0
C3112 C 0.74251 0.98378 0.87983 0.0
C3113 C 0.78082 0.99093 0.90657 0.0
C3114 C 0.78168 0.9984 0.84778 0.0
C3115 C 0.7727 0.99916 0.85554 0.0
C3116 C 0.81038 0.97777 0.87447 0.0
C3117 C 0.76313 0.97882 0.89347 0.0
C3118 C 0.76989 0.98049 0.8851 0.0
C3119 C 0.79027 0.97809 0.86085 0.0
C3120 C 0.783 0.98015 0.86919 0.0
H3121 H 0.70644 0.94344 0.90615 0.0
H3122 H 0.71615 0.94827 0.89248 0.0
H3123 H 0.82568 0.97483 0.88615 0.0
H3124 H 0.84508 0.93716 0.84863 0.0
H3125 H 0.82914 0.93785 0.862 0.0
C3126 C 0.77105 0.00688 0.59659 0.0
C3127 C 0.76215 0.03917 0.59356 0.0
C3128 C 0.77469 1.00263 0.60448 0.0
C3129 C 0.75524 0.04765 0.62303 0.0
H3130 H 0.81576 0.97652 0.63102 0.0
C3131 C 0.76156 0.02001 0.6554 0.0
C3132 C 0.79239 0.00683 0.65846 0.0
C3133 C 0.7576 0.02341 0.6475 0.0
C3134 C 0.79917 0.99702 0.62895 0.0
H3135 H 0.75122 0.09254 0.59619 0.0
H3136 H 0.75994 0.0862 0.60988 0.0
H3137 H 0.81154 0.98467 0.61741 0.0
H3138 H 0.84365 0.9879 0.65583 0.0
H3139 H 0.83812 0.99599 0.64211 0.0
H3140 H 0.7449 0.06178 0.63455 0.0
C3141 C 0.76247 0.06347 0.60632 0.0
C3142 C 0.79613 1.00121 0.62105 0.0
C3143 C 0.75785 0.06737 0.59847 0.0
C3144 C 0.81951 0.99778 0.65354 0.0
C3145 C 0.81605 1.00214 0.64567 0.0
C3146 C 0.75904 0.04411 0.63092 0.0
C3147 C 0.77044 0.0309 0.60949 0.0
C3148 C 0.77399 0.02652 0.61795 0.0
C3149 C 0.78488 0.01468 0.64249 0.0
C3150 C 0.78094 0.01862 0.63403 0.0
H3151 H 0.77415 0.9848 0.59285 0.0
H3152 H 0.78012 0.97696 0.60661 0.0
H3153 H 0.73727 0.06697 0.62095 0.0
H3154 H 0.74027 0.02685 0.65913 0.0
H3155 H 0.73287 0.03238 0.64536 0.0
C3156 C 0.74683 0.02565 0.40525 0.0
C3157 C 0.75647 0.05813 0.40809 0.0
C3158 C 0.74252 0.02053 0.39741 0.0
C3159 C 0.75967 0.06275 0.37843 0.0
H3160 H 0.69527 0.99265 0.37153 0.0
C3161 C 0.74588 0.0289 0.34636 0.0
C3162 C 0.71404 0.01603 0.34376 0.0
C3163 C 0.75143 0.0344 0.35417 0.0
C3164 C 0.71294 0.01285 0.3733 0.0
H3165 H 0.76824 0.11098 0.40507 0.0
H3166 H 0.75865 0.10299 0.39146 0.0
H3167 H 0.70264 1.0024 0.385 0.0
H3168 H 0.66252 1.00031 0.3471 0.0
H3169 H 0.67096 0.01199 0.3606 0.0
H3170 H 0.76806 0.07489 0.36671 0.0
C3171 C 0.75595 0.08079 0.39516 0.0
C3172 C 0.71781 0.01795 0.38111 0.0
C3173 C 0.76121 0.08558 0.40298 0.0
C3174 C 0.68745 0.00983 0.34902 0.0
C3175 C 0.69256 0.01622 0.35678 0.0
C3176 C 0.75412 0.05827 0.37061 0.0
C3177 C 0.74675 0.0481 0.39222 0.0
C3178 C 0.7414 0.04285 0.38383 0.0
C3179 C 0.72485 0.02802 0.35952 0.0
C3180 C 0.73073 0.03315 0.3679 0.0
H3181 H 0.74339 1.00405 0.40911 0.0
H3182 H 0.73631 0.99474 0.39545 0.0
H3183 H 0.7786 0.08176 0.38021 0.0
H3184 H 0.76677 0.03361 0.34237 0.0
H3185 H 0.77686 0.04288 0.35598 0.0
C3186 C 0.74979 0.97654 0.15654 0.0
C3187 C 0.71966 0.99448 0.15871 0.0
C3188 C 0.75976 0.9751 0.14886 0.0
C3189 C 0.74506 0.01596 0.12992 0.0
H3190 H 0.76755 0.92509 0.12201 0.0
C3191 C 0.74055 0.98487 0.09773 0.0
C3192 C 0.76584 0.96255 0.0947 0.0
C3193 C 0.73809 0.99025 0.1056 0.0
C3194 C 0.76185 0.95077 0.12413 0.0
H3195 H 0.67761 0.02659 0.15461 0.0
H3196 H 0.69481 0.02414 0.14127 0.0
H3197 H 0.75941 0.933 0.13567 0.0
H3198 H 0.80825 0.9282 0.09768 0.0
H3199 H 0.80442 0.93813 0.11134 0.0
H3200 H 0.74708 0.03368 0.11837 0.0
C3201 C 0.71081 0.01113 0.14546 0.0
C3202 C 0.75723 0.95531 0.13198 0.0
C3203 C 0.70076 0.01232 0.1531 0.0
C3204 C 0.78867 0.94585 0.09976 0.0
C3205 C 0.78623 0.95124 0.10763 0.0
C3206 C 0.74976 0.01144 0.12208 0.0
C3207 C 0.74 0.9919 0.14321 0.0
C3208 C 0.74828 0.98786 0.13496 0.0
C3209 C 0.76087 0.97347 0.11066 0.0
C3210 C 0.75774 0.97869 0.11906 0.0
H3211 H 0.76474 0.96236 0.16073 0.0
H3212 H 0.78259 0.96037 0.14733 0.0
H3213 H 0.73868 0.04148 0.13204 0.0
H3214 H 0.72274 0.99848 0.09402 0.0
H3215 H 0.71794 0.00721 0.10772 0.0
C3216 C 0.77604 0.54961 0.59914 0.0
C3217 C 0.7531 0.53427 0.59391 0.0
C3218 C 0.77108 0.54564 0.60699 0.0
C3219 C 0.72974 0.48922 0.62122 0.0
H3220 H 0.73907 0.56863 0.63456 0.0
C3221 C 0.73979 0.52347 0.6555 0.0
C3222 C 0.71417 0.50107 0.65833 0.0
C3223 C 0.74459 0.5274 0.64764 0.0
C3224 C 0.73683 0.54606 0.63094 0.0
H3225 H 0.7072 0.50229 0.59283 0.0
H3226 H 0.69846 0.49539 0.60654 0.0
H3227 H 0.74748 0.57554 0.62087 0.0
H3228 H 0.67304 0.46577 0.65512 0.0
H3229 H 0.68099 0.47294 0.64144 0.0
H3230 H 0.71957 0.45958 0.63126 0.0
C3231 C 0.72034 0.51048 0.60456 0.0
C3232 C 0.74157 0.55007 0.62308 0.0
C3233 C 0.72514 0.5147 0.59671 0.0
C3234 C 0.69337 0.48279 0.65312 0.0
C3235 C 0.698 0.48689 0.64527 0.0
C3236 C 0.72523 0.48514 0.62907 0.0
C3237 C 0.7432 0.52599 0.60979 0.0
C3238 C 0.73805 0.52171 0.61813 0.0
C3239 C 0.72371 0.50921 0.64242 0.0
C3240 C 0.72867 0.51352 0.63404 0.0
H3241 H 0.79762 0.56511 0.59718 0.0
H3242 H 0.78932 0.55767 0.61086 0.0
H3243 H 0.72732 0.46677 0.61756 0.0
H3244 H 0.75654 0.53755 0.65935 0.0
H3245 H 0.76505 0.54436 0.64567 0.0
C3246 C 0.71771 0.49033 0.90568 0.0
C3247 C 0.74383 0.46915 0.90875 0.0
C3248 C 0.71406 0.49377 0.89777 0.0
C3249 C 0.73343 0.45101 0.87955 0.0
H3250 H 0.72947 0.5433 0.87099 0.0
C3251 C 0.711 0.52525 0.8487 0.0
C3252 C 0.72977 0.50298 0.84391 0.0
C3253 C 0.71075 0.5202 0.85658 0.0
C3254 C 0.72991 0.51728 0.87326 0.0
H3255 H 0.78576 0.4341 0.90596 0.0
H3256 H 0.77914 0.43974 0.89217 0.0
H3257 H 0.73117 0.53584 0.88477 0.0
H3258 H 0.76314 0.45802 0.84362 0.0
H3259 H 0.76375 0.44967 0.85741 0.0
H3260 H 0.73157 0.43225 0.86809 0.0
C3261 C 0.76166 0.45387 0.89587 0.0
C3262 C 0.731 0.51307 0.88118 0.0
C3263 C 0.76565 0.45087 0.90376 0.0
C3264 C 0.74818 0.47537 0.84717 0.0
C3265 C 0.74835 0.47057 0.85508 0.0
C3266 C 0.73186 0.45517 0.87164 0.0
C3267 C 0.73606 0.4756 0.89279 0.0
C3268 C 0.73307 0.47992 0.8844 0.0
C3269 C 0.7297 0.49299 0.85991 0.0
C3270 C 0.73037 0.48839 0.86837 0.0
H3271 H 0.70068 0.50485 0.9094 0.0
H3272 H 0.69397 0.51057 0.89555 0.0
H3273 H 0.73466 0.42511 0.88189 0.0
H3274 H 0.69608 0.54638 0.84633 0.0
H3275 H 0.6954 0.53754 0.86006 0.0
C3276 C 0.77726 0.48593 0.09623 0.0
C3277 C 0.75473 0.46047 0.09337 0.0
C3278 C 0.78126 0.49052 0.10409 0.0
C3279 C 0.77112 0.44564 0.12245 0.0
H3280 H 0.77057 0.53821 0.13093 0.0
C3281 C 0.76842 0.47025 0.15496 0.0
C3282 C 0.78801 0.4981 0.15777 0.0
C3283 C 0.76421 0.46553 0.14711 0.0
C3284 C 0.77126 0.51218 0.12866 0.0
H3285 H 0.71919 0.41949 0.09653 0.0
H3286 H 0.72606 0.42757 0.11024 0.0
H3287 H 0.76405 0.53024 0.11723 0.0
H3288 H 0.81924 0.5423 0.15455 0.0
H3289 H 0.81241 0.53386 0.14089 0.0
H3290 H 0.77877 0.42752 0.13385 0.0
C3291 C 0.74066 0.44396 0.1064 0.0
C3292 C 0.76745 0.50765 0.1208 0.0
C3293 C 0.73644 0.43957 0.09855 0.0
C3294 C 0.8035 0.52095 0.15257 0.0
C3295 C 0.79952 0.51612 0.14472 0.0
C3296 C 0.77516 0.45017 0.13031 0.0
C3297 C 0.76305 0.46953 0.10926 0.0
C3298 C 0.7673 0.47433 0.11761 0.0
C3299 C 0.77971 0.48842 0.14188 0.0
C3300 C 0.77527 0.48351 0.13352 0.0
H3301 H 0.79149 0.50261 0.09239 0.0
H3302 H 0.79891 0.51026 0.10612 0.0
H3303 H 0.77155 0.41965 0.12015 0.0
H3304 H 0.75577 0.45248 0.15882 0.0
H3305 H 0.74832 0.44424 0.14514 0.0
C3306 C 0.75611 0.5182 0.34682 0.0
C3307 C 0.78721 0.50559 0.3438 0.0
C3308 C 0.75243 0.52262 0.3547 0.0
C3309 C 0.79574 0.50035 0.37331 0.0
H3310 H 0.73265 0.57009 0.38093 0.0
C3311 C 0.77017 0.51558 0.40565 0.0
C3312 C 0.76095 0.54828 0.40841 0.0
C3313 C 0.77303 0.50984 0.39779 0.0
C3314 C 0.75095 0.55087 0.37895 0.0
H3315 H 0.83919 0.4887 0.34642 0.0
H3316 H 0.8341 0.49863 0.36009 0.0
H3317 H 0.7395 0.56279 0.36736 0.0
H3318 H 0.74875 0.60089 0.40533 0.0
H3319 H 0.75611 0.59199 0.39169 0.0
H3320 H 0.80921 0.4903 0.38489 0.0
C3321 C 0.81167 0.50353 0.35654 0.0
C3322 C 0.7543 0.5461 0.37109 0.0
C3323 C 0.81486 0.49813 0.3487 0.0
C3324 C 0.75554 0.57539 0.40326 0.0
C3325 C 0.75941 0.57003 0.39544 0.0
C3326 C 0.79313 0.50581 0.38117 0.0
C3327 C 0.78025 0.51552 0.3597 0.0
C3328 C 0.77666 0.52067 0.36813 0.0
C3329 C 0.76771 0.53702 0.39255 0.0
C3330 C 0.77062 0.53112 0.38413 0.0
H3331 H 0.73443 0.5238 0.34309 0.0
H3332 H 0.72754 0.53112 0.35684 0.0
H3333 H 0.8127 0.47994 0.37134 0.0
H3334 H 0.77416 0.49433 0.40957 0.0
H3335 H 0.77877 0.48389 0.39587 0.0
C3336 C 0.26682 0.46884 0.34654 0.0
C3337 C 0.28503 0.49742 0.34363 0.0
C3338 C 0.26355 0.46405 0.35442 0.0
C3339 C 0.30378 0.48731 0.37278 0.0
H3340 H 0.21408 0.46379 0.38129 0.0
C3341 C 0.23866 0.44114 0.40324 0.0
C3342 C 0.25675 0.46287 0.40829 0.0
C3343 C 0.24247 0.44478 0.39536 0.0
C3344 C 0.23946 0.46986 0.37902 0.0
H3345 H 0.31465 0.54295 0.34671 0.0
H3346 H 0.30892 0.53464 0.36044 0.0
H3347 H 0.22034 0.47045 0.36755 0.0
H3348 H 0.29266 0.50581 0.409 0.0
H3349 H 0.2989 0.51267 0.39525 0.0
H3350 H 0.32309 0.48635 0.38421 0.0
C3351 C 0.29717 0.51593 0.35664 0.0
C3352 C 0.24299 0.47374 0.37113 0.0
C3353 C 0.30016 0.52089 0.34877 0.0
C3354 C 0.27872 0.48838 0.40526 0.0
C3355 C 0.28234 0.49223 0.39737 0.0
C3356 C 0.30032 0.48318 0.38066 0.0
C3357 C 0.27873 0.48753 0.35955 0.0
C3358 C 0.27515 0.48266 0.36792 0.0
C3359 C 0.26428 0.47045 0.39231 0.0
C3360 C 0.26808 0.47453 0.3839 0.0
H3361 H 0.25464 0.45046 0.34274 0.0
H3362 H 0.24939 0.44177 0.35649 0.0
H3363 H 0.32901 0.49374 0.37047 0.0
H3364 H 0.22198 0.42086 0.40539 0.0
H3365 H 0.22866 0.42709 0.39166 0.0
C3366 C 0.27378 0.53957 0.15432 0.0
C3367 C 0.29175 0.51054 0.15709 0.0
C3368 C 0.2708 0.54536 0.14647 0.0
C3369 C 0.311 0.52359 0.12798 0.0
H3370 H 0.22152 0.54894 0.11959 0.0
C3371 C 0.24563 0.57275 0.09774 0.0
C3372 C 0.26294 0.55091 0.09259 0.0
C3373 C 0.24989 0.56868 0.1056 0.0
C3374 C 0.24685 0.54237 0.12184 0.0
H3375 H 0.32137 0.46534 0.15378 0.0
H3376 H 0.3161 0.47535 0.14011 0.0
H3377 H 0.22783 0.54104 0.1333 0.0
H3378 H 0.2982 0.5075 0.09168 0.0
H3379 H 0.30529 0.49995 0.1054 0.0
H3380 H 0.33017 0.52519 0.11654 0.0
C3381 C 0.30432 0.49365 0.144 0.0
C3382 C 0.25041 0.53779 0.12971 0.0
C3383 C 0.30703 0.48771 0.15184 0.0
C3384 C 0.28482 0.525 0.09549 0.0
C3385 C 0.28891 0.52075 0.10336 0.0
C3386 C 0.30751 0.5284 0.12011 0.0
C3387 C 0.28603 0.52244 0.14122 0.0
C3388 C 0.28249 0.5282 0.13287 0.0
C3389 C 0.27142 0.54249 0.10853 0.0
C3390 C 0.27534 0.53773 0.11693 0.0
H3391 H 0.26149 0.55748 0.15821 0.0
H3392 H 0.25677 0.56793 0.14451 0.0
H3393 H 0.33618 0.51664 0.13025 0.0
H3394 H 0.22909 0.59336 0.09569 0.0
H3395 H 0.23656 0.58638 0.10938 0.0
C3396 C 0.21942 0.48765 0.84877 0.0
C3397 C 0.23466 0.51141 0.84373 0.0
C3398 C 0.22026 0.49333 0.85664 0.0
C3399 C 0.23456 0.56198 0.87114 0.0
H3400 H 0.2487 0.48394 0.88467 0.0
C3401 C 0.26735 0.57753 0.90311 0.0
C3402 C 0.25043 0.55547 0.90828 0.0
C3403 C 0.26403 0.57253 0.89526 0.0
C3404 C 0.24435 0.50594 0.88097 0.0
H3405 H 0.26308 0.55961 0.843 0.0
H3406 H 0.2651 0.56933 0.85673 0.0
H3407 H 0.24617 0.47455 0.87094 0.0
H3408 H 0.21677 0.51082 0.90923 0.0
H3409 H 0.21093 0.50206 0.89549 0.0
H3410 H 0.2334 0.59339 0.8812 0.0
C3411 C 0.25179 0.54663 0.85461 0.0
C3412 C 0.24284 0.50058 0.87309 0.0
C3413 C 0.25072 0.54105 0.84673 0.0
C3414 C 0.22992 0.5284 0.9054 0.0
C3415 C 0.22684 0.5232 0.89754 0.0
C3416 C 0.23631 0.56735 0.87902 0.0
C3417 C 0.2366 0.52281 0.85967 0.0
C3418 C 0.23796 0.52853 0.86807 0.0
C3419 C 0.24392 0.54519 0.89238 0.0
C3420 C 0.24127 0.5394 0.88402 0.0
H3421 H 0.20633 0.46488 0.84663 0.0
H3422 H 0.20769 0.47476 0.86034 0.0
H3423 H 0.23015 0.58405 0.86747 0.0
H3424 H 0.28301 0.59886 0.90514 0.0
H3425 H 0.27774 0.58975 0.89144 0.0
C3426 C 0.25107 0.48961 0.65477 0.0
C3427 C 0.21905 0.50102 0.65756 0.0
C3428 C 0.25635 0.48605 0.64691 0.0
C3429 C 0.21589 0.50905 0.62805 0.0
H3430 H 0.28208 0.44175 0.62063 0.0
C3431 C 0.24611 0.49725 0.59587 0.0
C3432 C 0.25632 0.465 0.59303 0.0
C3433 C 0.24242 0.50234 0.60373 0.0
C3434 C 0.26296 0.46029 0.62255 0.0
H3435 H 0.16711 0.51659 0.65452 0.0
H3436 H 0.17506 0.50812 0.64089 0.0
H3437 H 0.2728 0.44757 0.63417 0.0
H3438 H 0.26962 0.41248 0.59597 0.0
H3439 H 0.26085 0.42018 0.60961 0.0
H3440 H 0.20402 0.51984 0.61642 0.0
C3441 C 0.19695 0.50355 0.64461 0.0
C3442 C 0.25817 0.46421 0.6304 0.0
C3443 C 0.19212 0.5081 0.65243 0.0
C3444 C 0.26205 0.43766 0.59811 0.0
C3445 C 0.25735 0.44233 0.60593 0.0
C3446 C 0.21993 0.50441 0.6202 0.0
C3447 C 0.22929 0.49284 0.6417 0.0
C3448 C 0.2346 0.48871 0.63329 0.0
C3449 C 0.24785 0.47488 0.6089 0.0
C3450 C 0.24359 0.48 0.61731 0.0
H3451 H 0.27219 0.48431 0.65867 0.0
H3452 H 0.28186 0.47849 0.64497 0.0
H3453 H 0.19805 0.52881 0.62996 0.0
H3454 H 0.24186 0.51868 0.59201 0.0
H3455 H 0.23584 0.52799 0.60572 0.0
loop_
_geom_bond_atom_site_label_1
_geom_bond_atom_site_label_2
_geom_bond_distance
_geom_bond_site_symmetry_2
_ccdc_geom_bond_type
Co0 N4 2.148 . S
Co0 N10 2.128 . S
Co0 N20 2.194 . S
Co0 O25 2.351 . S
Co0 O26 2.155 1_545 S
Co0 O27 2.096 1_545 S
C1 N4 1.301 . S
C1 N5 1.328 . S
C1 H6 0.930 . S
C2 C3 1.333 . S
C2 N4 1.317 . S
C2 H7 0.930 . S
C3 C2 1.333 . S
C3 N5 1.350 . S
C3 H29 0.931 . S
N4 Co0 2.148 . S
N4 C1 1.301 . S
N4 C2 1.317 . S
N5 C1 1.328 . S
N5 C3 1.350 . S
H6 C1 0.930 . S
H7 C2 0.930 . S
C8 O9 1.191 1_565 S
C8 O27 1.259 . S
O9 C8 1.191 1_545 S
N10 Co0 2.128 . S
N10 C11 1.355 . S
N10 C13 1.311 . S
C11 N10 1.355 . S
C11 C12 1.363 . S
C11 H23 0.929 . S
C12 C11 1.363 . S
C12 N14 1.375 . S
C12 H30 0.931 . S
C13 N10 1.311 . S
C13 N14 1.347 . S
C13 H24 0.929 1_545 S
N14 C12 1.375 . S
N14 C13 1.347 . S
C15 C18 1.365 . S
C15 N20 1.328 . S
C15 H21 0.929 . S
C16 C17 1.362 . S
C16 C19 1.378 . S
C16 H31 0.929 . S
C17 C16 1.362 . S
C17 C18 1.366 . S
C18 C15 1.365 . S
C18 C17 1.366 . S
C18 H32 0.930 . S
C19 C16 1.378 . S
C19 N20 1.315 . S
C19 H22 0.930 . S
N20 Co0 2.194 . S
N20 C15 1.328 . S
N20 C19 1.315 . S
H21 C15 0.929 . S
H22 C19 0.930 . S
H23 C11 0.929 . S
H24 C13 0.929 1_565 S
O25 Co0 2.351 . S
O25 C28 1.244 . S
O26 Co0 2.155 1_565 S
O26 C28 1.240 1_565 S
O27 Co0 2.096 1_565 S
O27 C8 1.259 . S
C28 O25 1.244 . S
C28 O26 1.240 1_545 S
H29 C3 0.931 . S
H30 C12 0.931 . S
H31 C16 0.929 . S
H32 C18 0.930 . S
Co33 N37 2.148 . S
Co33 N43 2.128 . S
Co33 N53 2.194 . S
Co33 O58 2.351 . S
Co33 O59 2.155 . S
Co33 O60 2.096 . S
C34 N37 1.301 . S
C34 N38 1.328 . S
C34 H39 0.930 . S
C35 C36 1.333 . S
C35 N37 1.317 . S
C35 H40 0.930 . S
C36 C35 1.333 . S
C36 N38 1.350 . S
C36 H62 0.931 . S
N37 Co33 2.148 . S
N37 C34 1.301 . S
N37 C35 1.317 . S
N38 C34 1.328 . S
N38 C36 1.350 . S
H39 C34 0.930 . S
H40 C35 0.930 . S
C41 O42 1.224 . S
C41 O60 1.247 . S
O42 C41 1.224 . S
N43 Co33 2.128 . S
N43 C44 1.355 . S
N43 C46 1.311 . S
C44 N43 1.355 . S
C44 C45 1.363 . S
C44 H56 0.929 . S
C45 C44 1.363 . S
C45 N47 1.375 . S
C45 H63 0.931 . S
C46 N43 1.311 . S
C46 N47 1.347 . S
C46 H57 0.929 . S
N47 C45 1.375 . S
N47 C46 1.347 . S
C48 C51 1.365 . S
C48 N53 1.328 . S
C48 H54 0.929 . S
C49 C50 1.362 . S
C49 C52 1.378 . S
C49 H64 0.929 . S
C50 C49 1.362 . S
C50 C51 1.366 . S
C51 C48 1.365 . S
C51 C50 1.366 . S
C51 H65 0.930 . S
C52 C49 1.378 . S
C52 N53 1.315 . S
C52 H55 0.930 . S
N53 Co33 2.194 . S
N53 C48 1.328 . S
N53 C52 1.315 . S
H54 C48 0.929 . S
H55 C52 0.930 . S
H56 C44 0.929 . S
H57 C46 0.929 . S
O58 Co33 2.351 . S
O58 C61 1.244 . S
O59 Co33 2.155 . S
O59 C61 1.240 . S
O60 Co33 2.096 . S
O60 C41 1.247 . S
C61 O58 1.244 . S
C61 O59 1.240 . S
H62 C36 0.931 . S
H63 C45 0.931 . S
H64 C49 0.929 . S
H65 C51 0.930 . S
Co66 N70 2.148 . S
Co66 N76 2.128 . S
Co66 N86 2.194 . S
Co66 O91 2.351 . S
Co66 O92 2.155 1_565 S
Co66 O93 2.096 1_565 S
C67 N70 1.301 . S
C67 N71 1.328 . S
C67 H72 0.930 . S
C68 C69 1.333 . S
C68 N70 1.317 . S
C68 H73 0.930 . S
C69 C68 1.333 . S
C69 N71 1.350 . S
C69 H95 0.931 . S
N70 Co66 2.148 . S
N70 C67 1.301 . S
N70 C68 1.317 . S
N71 C67 1.328 . S
N71 C69 1.350 . S
H72 C67 0.930 . S
H73 C68 0.930 . S
C74 O75 1.192 1_545 S
C74 O93 1.258 . S
O75 C74 1.192 1_565 S
N76 Co66 2.128 . S
N76 C77 1.355 . S
N76 C79 1.311 . S
C77 N76 1.355 . S
C77 C78 1.363 . S
C77 H89 0.929 . S
C78 C77 1.363 . S
C78 N80 1.375 . S
C78 H96 0.931 . S
C79 N76 1.311 . S
C79 N80 1.347 . S
C79 H90 0.929 1_565 S
N80 C78 1.375 . S
N80 C79 1.347 . S
C81 C84 1.365 . S
C81 N86 1.328 . S
C81 H87 0.929 . S
C82 C83 1.362 . S
C82 C85 1.378 . S
C82 H97 0.929 . S
C83 C82 1.362 . S
C83 C84 1.366 . S
C84 C81 1.365 . S
C84 C83 1.366 . S
C84 H98 0.930 . S
C85 C82 1.378 . S
C85 N86 1.315 . S
C85 H88 0.930 . S
N86 Co66 2.194 . S
N86 C81 1.328 . S
N86 C85 1.315 . S
H87 C81 0.929 . S
H88 C85 0.930 . S
H89 C77 0.929 . S
H90 C79 0.929 1_545 S
O91 Co66 2.351 . S
O91 C94 1.244 . S
O92 Co66 2.155 1_545 S
O92 C94 1.240 1_545 S
O93 Co66 2.096 1_545 S
O93 C74 1.258 . S
C94 O91 1.244 . S
C94 O92 1.240 1_565 S
H95 C69 0.931 . S
H96 C78 0.931 . S
H97 C82 0.929 . S
H98 C84 0.930 . S
Co99 N103 2.148 . S
Co99 N109 2.128 . S
Co99 N119 2.194 . S
Co99 O124 2.351 . S
Co99 O125 2.155 . S
Co99 O126 2.096 . S
C100 N103 1.301 . S
C100 N104 1.328 . S
C100 H105 0.930 . S
C101 C102 1.333 . S
C101 N103 1.317 . S
C101 H106 0.930 . S
C102 C101 1.333 . S
C102 N104 1.350 . S
C102 H128 0.931 . S
N103 Co99 2.148 . S
N103 C100 1.301 . S
N103 C101 1.317 . S
N104 C100 1.328 . S
N104 C102 1.350 . S
H105 C100 0.930 . S
H106 C101 0.930 . S
C107 O108 1.224 . S
C107 O126 1.247 . S
O108 C107 1.224 . S
N109 Co99 2.128 . S
N109 C110 1.355 . S
N109 C112 1.311 . S
C110 N109 1.355 . S
C110 C111 1.363 . S
C110 H122 0.929 . S
C111 C110 1.363 . S
C111 N113 1.375 . S
C111 H129 0.931 . S
C112 N109 1.311 . S
C112 N113 1.347 . S
C112 H123 0.929 . S
N113 C111 1.375 . S
N113 C112 1.347 . S
C114 C117 1.365 . S
C114 N119 1.328 . S
C114 H120 0.929 . S
C115 C116 1.362 . S
C115 C118 1.378 . S
C115 H130 0.929 . S
C116 C115 1.362 . S
C116 C117 1.366 . S
C117 C114 1.365 . S
C117 C116 1.366 . S
C117 H131 0.930 . S
C118 C115 1.378 . S
C118 N119 1.315 . S
C118 H121 0.930 . S
N119 Co99 2.194 . S
N119 C114 1.328 . S
N119 C118 1.315 . S
H120 C114 0.929 . S
H121 C118 0.930 . S
H122 C110 0.929 . S
H123 C112 0.929 . S
O124 Co99 2.351 . S
O124 C127 1.244 . S
O125 Co99 2.155 . S
O125 C127 1.240 . S
O126 Co99 2.096 . S
O126 C107 1.247 . S
C127 O124 1.244 . S
C127 O125 1.240 . S
H128 C102 0.931 . S
H129 C111 0.931 . S
H130 C115 0.929 . S
H131 C117 0.930 . S
Co132 N136 2.148 . S
Co132 N142 2.128 . S
Co132 N152 2.194 . S
Co132 O157 2.351 . S
Co132 O158 2.155 1_565 S
Co132 O159 2.096 1_565 S
C133 N136 1.301 . S
C133 N137 1.328 . S
C133 H138 0.930 . S
C134 C135 1.333 . S
C134 N136 1.317 . S
C134 H139 0.930 . S
C135 C134 1.333 . S
C135 N137 1.350 . S
C135 H161 0.931 . S
N136 Co132 2.148 . S
N136 C133 1.301 . S
N136 C134 1.317 . S
N137 C133 1.328 . S
N137 C135 1.350 . S
H138 C133 0.930 . S
H139 C134 0.930 . S
C140 O141 1.191 1_545 S
C140 O159 1.259 . S
O141 C140 1.191 1_565 S
N142 Co132 2.128 . S
N142 C143 1.355 . S
N142 C145 1.311 . S
C143 N142 1.355 . S
C143 C144 1.363 . S
C143 H155 0.929 . S
C144 C143 1.363 . S
C144 N146 1.375 . S
C144 H162 0.931 . S
C145 N142 1.311 . S
C145 N146 1.347 . S
C145 H156 0.929 1_565 S
N146 C144 1.375 . S
N146 C145 1.347 . S
C147 C150 1.365 . S
C147 N152 1.328 . S
C147 H153 0.929 . S
C148 C149 1.362 . S
C148 C151 1.378 . S
C148 H163 0.929 . S
C149 C148 1.362 . S
C149 C150 1.366 . S
C150 C147 1.365 . S
C150 C149 1.366 . S
C150 H164 0.930 . S
C151 C148 1.378 . S
C151 N152 1.315 . S
C151 H154 0.930 . S
N152 Co132 2.194 . S
N152 C147 1.328 . S
N152 C151 1.315 . S
H153 C147 0.929 . S
H154 C151 0.930 . S
H155 C143 0.929 . S
H156 C145 0.929 1_545 S
O157 Co132 2.351 . S
O157 C160 1.244 . S
O158 Co132 2.155 1_545 S
O158 C160 1.240 1_545 S
O159 Co132 2.096 1_545 S
O159 C140 1.259 . S
C160 O157 1.244 . S
C160 O158 1.240 1_565 S
H161 C135 0.931 . S
H162 C144 0.931 . S
H163 C148 0.929 . S
H164 C150 0.930 . S
Co165 N169 2.148 . S
Co165 N175 2.128 . S
Co165 N185 2.194 . S
Co165 O190 2.351 . S
Co165 O191 2.155 . S
Co165 O192 2.096 . S
C166 N169 1.301 . S
C166 N170 1.328 . S
C166 H171 0.930 . S
C167 C168 1.333 . S
C167 N169 1.317 . S
C167 H172 0.930 . S
C168 C167 1.333 . S
C168 N170 1.350 . S
C168 H194 0.931 . S
N169 Co165 2.148 . S
N169 C166 1.301 . S
N169 C167 1.317 . S
N170 C166 1.328 . S
N170 C168 1.350 . S
H171 C166 0.930 . S
H172 C167 0.930 . S
C173 O174 1.224 . S
C173 O192 1.247 . S
O174 C173 1.224 . S
N175 Co165 2.128 . S
N175 C176 1.355 . S
N175 C178 1.311 . S
C176 N175 1.355 . S
C176 C177 1.363 . S
C176 H188 0.929 . S
C177 C176 1.363 . S
C177 N179 1.375 . S
C177 H195 0.931 . S
C178 N175 1.311 . S
C178 N179 1.347 . S
C178 H189 0.929 . S
N179 C177 1.375 . S
N179 C178 1.347 . S
C180 C183 1.365 . S
C180 N185 1.328 . S
C180 H186 0.929 . S
C181 C182 1.362 . S
C181 C184 1.378 . S
C181 H196 0.929 . S
C182 C181 1.362 . S
C182 C183 1.366 . S
C183 C180 1.365 . S
C183 C182 1.366 . S
C183 H197 0.930 . S
C184 C181 1.378 . S
C184 N185 1.315 . S
C184 H187 0.930 . S
N185 Co165 2.194 . S
N185 C180 1.328 . S
N185 C184 1.315 . S
H186 C180 0.929 . S
H187 C184 0.930 . S
H188 C176 0.929 . S
H189 C178 0.929 . S
O190 Co165 2.351 . S
O190 C193 1.244 . S
O191 Co165 2.155 . S
O191 C193 1.240 . S
O192 Co165 2.096 . S
O192 C173 1.247 . S
C193 O190 1.244 . S
C193 O191 1.240 . S
H194 C168 0.931 . S
H195 C177 0.931 . S
H196 C181 0.929 . S
H197 C183 0.930 . S
Co198 N202 2.148 . S
Co198 N208 2.128 . S
Co198 N218 2.194 . S
Co198 O223 2.351 . S
Co198 O224 2.155 1_545 S
Co198 O225 2.096 1_545 S
C199 N202 1.301 . S
C199 N203 1.328 . S
C199 H204 0.930 . S
C200 C201 1.333 . S
C200 N202 1.317 . S
C200 H205 0.930 . S
C201 C200 1.333 . S
C201 N203 1.350 . S
C201 H227 0.931 . S
N202 Co198 2.148 . S
N202 C199 1.301 . S
N202 C200 1.317 . S
N203 C199 1.328 . S
N203 C201 1.350 . S
H204 C199 0.930 . S
H205 C200 0.930 . S
C206 O207 1.192 1_565 S
C206 O225 1.258 . S
O207 C206 1.192 1_545 S
N208 Co198 2.128 . S
N208 C209 1.355 . S
N208 C211 1.311 . S
C209 N208 1.355 . S
C209 C210 1.363 . S
C209 H221 0.929 . S
C210 C209 1.363 . S
C210 N212 1.375 . S
C210 H228 0.931 . S
C211 N208 1.311 . S
C211 N212 1.347 . S
C211 H222 0.929 1_545 S
N212 C210 1.375 . S
N212 C211 1.347 . S
C213 C216 1.365 . S
C213 N218 1.328 . S
C213 H219 0.929 . S
C214 C215 1.362 . S
C214 C217 1.378 . S
C214 H229 0.929 . S
C215 C214 1.362 . S
C215 C216 1.366 . S
C216 C213 1.365 . S
C216 C215 1.366 . S
C216 H230 0.930 . S
C217 C214 1.378 . S
C217 N218 1.315 . S
C217 H220 0.930 . S
N218 Co198 2.194 . S
N218 C213 1.328 . S
N218 C217 1.315 . S
H219 C213 0.929 . S
H220 C217 0.930 . S
H221 C209 0.929 . S
H222 C211 0.929 1_565 S
O223 Co198 2.351 . S
O223 C226 1.244 . S
O224 Co198 2.155 1_565 S
O224 C226 1.240 1_565 S
O225 Co198 2.096 1_565 S
O225 C206 1.258 . S
C226 O223 1.244 . S
C226 O224 1.240 1_545 S
H227 C201 0.931 . S
H228 C210 0.931 . S
H229 C214 0.929 . S
H230 C216 0.930 . S
Co231 N235 2.148 . S
Co231 N241 2.128 . S
Co231 N251 2.194 . S
Co231 O256 2.351 . S
Co231 O257 2.155 . S
Co231 O258 2.096 . S
C232 N235 1.301 . S
C232 N236 1.328 . S
C232 H237 0.930 . S
C233 C234 1.333 . S
C233 N235 1.317 . S
C233 H238 0.930 . S
C234 C233 1.333 . S
C234 N236 1.350 . S
C234 H260 0.931 . S
N235 Co231 2.148 . S
N235 C232 1.301 . S
N235 C233 1.317 . S
N236 C232 1.328 . S
N236 C234 1.350 . S
H237 C232 0.930 . S
H238 C233 0.930 . S
C239 O240 1.224 . S
C239 O258 1.247 . S
O240 C239 1.224 . S
N241 Co231 2.128 . S
N241 C242 1.355 . S
N241 C244 1.311 . S
C242 N241 1.355 . S
C242 C243 1.363 . S
C242 H254 0.929 . S
C243 C242 1.363 . S
C243 N245 1.375 . S
C243 H261 0.931 . S
C244 N241 1.311 . S
C244 N245 1.347 . S
C244 H255 0.929 . S
N245 C243 1.375 . S
N245 C244 1.347 . S
C246 C249 1.365 . S
C246 N251 1.328 . S
C246 H252 0.929 . S
C247 C248 1.362 . S
C247 C250 1.378 . S
C247 H262 0.929 . S
C248 C247 1.362 . S
C248 C249 1.366 . S
C249 C246 1.365 . S
C249 C248 1.366 . S
C249 H263 0.930 . S
C250 C247 1.378 . S
C250 N251 1.315 . S
C250 H253 0.930 . S
N251 Co231 2.194 . S
N251 C246 1.328 . S
N251 C250 1.315 . S
H252 C246 0.929 . S
H253 C250 0.930 . S
H254 C242 0.929 . S
H255 C244 0.929 . S
O256 Co231 2.351 . S
O256 C259 1.244 . S
O257 Co231 2.155 . S
O257 C259 1.240 . S
O258 Co231 2.096 . S
O258 C239 1.247 . S
C259 O256 1.244 . S
C259 O257 1.240 . S
H260 C234 0.931 . S
H261 C243 0.931 . S
H262 C247 0.929 . S
H263 C249 0.930 . S
Co264 N268 2.148 . S
Co264 N274 2.128 . S
Co264 N284 2.194 . S
Co264 O289 2.351 . S
Co264 O290 2.155 1_565 S
Co264 O291 2.096 1_565 S
C265 N268 1.301 . S
C265 N269 1.328 . S
C265 H270 0.930 . S
C266 C267 1.333 . S
C266 N268 1.317 . S
C266 H271 0.930 . S
C267 C266 1.333 . S
C267 N269 1.350 . S
C267 H293 0.931 . S
N268 Co264 2.148 . S
N268 C265 1.301 . S
N268 C266 1.317 . S
N269 C265 1.328 . S
N269 C267 1.350 . S
H270 C265 0.930 . S
H271 C266 0.930 . S
C272 O273 1.191 1_545 S
C272 O291 1.259 . S
O273 C272 1.191 1_565 S
N274 Co264 2.128 . S
N274 C275 1.355 . S
N274 C277 1.311 . S
C275 N274 1.355 . S
C275 C276 1.363 . S
C275 H287 0.929 . S
C276 C275 1.363 . S
C276 N278 1.375 . S
C276 H294 0.931 . S
C277 N274 1.311 . S
C277 N278 1.347 . S
C277 H288 0.929 1_565 S
N278 C276 1.375 . S
N278 C277 1.347 . S
C279 C282 1.365 . S
C279 N284 1.328 . S
C279 H285 0.929 . S
C280 C281 1.362 . S
C280 C283 1.378 . S
C280 H295 0.929 . S
C281 C280 1.362 . S
C281 C282 1.366 . S
C282 C279 1.365 . S
C282 C281 1.366 . S
C282 H296 0.930 . S
C283 C280 1.378 . S
C283 N284 1.315 . S
C283 H286 0.930 . S
N284 Co264 2.194 . S
N284 C279 1.328 . S
N284 C283 1.315 . S
H285 C279 0.929 . S
H286 C283 0.930 . S
H287 C275 0.929 . S
H288 C277 0.929 1_545 S
O289 Co264 2.351 . S
O289 C292 1.244 . S
O290 Co264 2.155 1_545 S
O290 C292 1.240 1_545 S
O291 Co264 2.096 1_545 S
O291 C272 1.259 . S
C292 O289 1.244 . S
C292 O290 1.240 1_565 S
H293 C267 0.931 . S
H294 C276 0.931 . S
H295 C280 0.929 . S
H296 C282 0.930 . S
Co297 N301 2.148 . S
Co297 N307 2.128 . S
Co297 N317 2.194 . S
Co297 O322 2.351 . S
Co297 O323 2.155 . S
Co297 O324 2.096 . S
C298 N301 1.301 . S
C298 N302 1.328 . S
C298 H303 0.930 . S
C299 C300 1.333 . S
C299 N301 1.317 . S
C299 H304 0.930 . S
C300 C299 1.333 . S
C300 N302 1.350 . S
C300 H326 0.931 . S
N301 Co297 2.148 . S
N301 C298 1.301 . S
N301 C299 1.317 . S
N302 C298 1.328 . S
N302 C300 1.350 . S
H303 C298 0.930 . S
H304 C299 0.930 . S
C305 O306 1.224 . S
C305 O324 1.247 . S
O306 C305 1.224 . S
N307 Co297 2.128 . S
N307 C308 1.355 . S
N307 C310 1.311 . S
C308 N307 1.355 . S
C308 C309 1.363 . S
C308 H320 0.929 . S
C309 C308 1.363 . S
C309 N311 1.375 . S
C309 H327 0.931 . S
C310 N307 1.311 . S
C310 N311 1.347 . S
C310 H321 0.929 . S
N311 C309 1.375 . S
N311 C310 1.347 . S
C312 C315 1.365 . S
C312 N317 1.328 . S
C312 H318 0.929 . S
C313 C314 1.362 . S
C313 C316 1.378 . S
C313 H328 0.929 . S
C314 C313 1.362 . S
C314 C315 1.366 . S
C315 C312 1.365 . S
C315 C314 1.366 . S
C315 H329 0.930 . S
C316 C313 1.378 . S
C316 N317 1.315 . S
C316 H319 0.930 . S
N317 Co297 2.194 . S
N317 C312 1.328 . S
N317 C316 1.315 . S
H318 C312 0.929 . S
H319 C316 0.930 . S
H320 C308 0.929 . S
H321 C310 0.929 . S
O322 Co297 2.351 . S
O322 C325 1.244 . S
O323 Co297 2.155 . S
O323 C325 1.240 . S
O324 Co297 2.096 . S
O324 C305 1.247 . S
C325 O322 1.244 . S
C325 O323 1.240 . S
H326 C300 0.931 . S
H327 C309 0.931 . S
H328 C313 0.929 . S
H329 C315 0.930 . S
Co330 N334 2.148 . S
Co330 N340 2.128 . S
Co330 N350 2.194 . S
Co330 O355 2.351 . S
Co330 O356 2.155 1_545 S
Co330 O357 2.096 1_545 S
C331 N334 1.301 . S
C331 N335 1.328 . S
C331 H336 0.930 . S
C332 C333 1.333 . S
C332 N334 1.317 . S
C332 H337 0.930 . S
C333 C332 1.333 . S
C333 N335 1.350 . S
C333 H359 0.931 . S
N334 Co330 2.148 . S
N334 C331 1.301 . S
N334 C332 1.317 . S
N335 C331 1.328 . S
N335 C333 1.350 . S
H336 C331 0.930 . S
H337 C332 0.930 . S
C338 O339 1.192 1_565 S
C338 O357 1.258 . S
O339 C338 1.192 1_545 S
N340 Co330 2.128 . S
N340 C341 1.355 . S
N340 C343 1.311 . S
C341 N340 1.355 . S
C341 C342 1.363 . S
C341 H353 0.929 . S
C342 C341 1.363 . S
C342 N344 1.375 . S
C342 H360 0.931 . S
C343 N340 1.311 . S
C343 N344 1.347 . S
C343 H354 0.929 1_545 S
N344 C342 1.375 . S
N344 C343 1.347 . S
C345 C348 1.365 . S
C345 N350 1.328 . S
C345 H351 0.929 . S
C346 C347 1.362 . S
C346 C349 1.378 . S
C346 H361 0.929 . S
C347 C346 1.362 . S
C347 C348 1.366 . S
C348 C345 1.365 . S
C348 C347 1.366 . S
C348 H362 0.930 . S
C349 C346 1.378 . S
C349 N350 1.315 . S
C349 H352 0.930 . S
N350 Co330 2.194 . S
N350 C345 1.328 . S
N350 C349 1.315 . S
H351 C345 0.929 . S
H352 C349 0.930 . S
H353 C341 0.929 . S
H354 C343 0.929 1_565 S
O355 Co330 2.351 . S
O355 C358 1.244 . S
O356 Co330 2.155 1_565 S
O356 C358 1.240 1_565 S
O357 Co330 2.096 1_565 S
O357 C338 1.258 . S
C358 O355 1.244 . S
C358 O356 1.240 1_545 S
H359 C333 0.931 . S
H360 C342 0.931 . S
H361 C346 0.929 . S
H362 C348 0.930 . S
Co363 N367 2.148 . S
Co363 N373 2.128 . S
Co363 N383 2.194 . S
Co363 O388 2.351 . S
Co363 O389 2.155 . S
Co363 O390 2.096 . S
C364 N367 1.301 . S
C364 N368 1.328 . S
C364 H369 0.930 . S
C365 C366 1.333 . S
C365 N367 1.317 . S
C365 H370 0.930 . S
C366 C365 1.333 . S
C366 N368 1.350 . S
C366 H392 0.931 . S
N367 Co363 2.148 . S
N367 C364 1.301 . S
N367 C365 1.317 . S
N368 C364 1.328 . S
N368 C366 1.350 . S
H369 C364 0.930 . S
H370 C365 0.930 . S
C371 O372 1.224 . S
C371 O390 1.247 . S
O372 C371 1.224 . S
N373 Co363 2.128 . S
N373 C374 1.355 . S
N373 C376 1.311 . S
C374 N373 1.355 . S
C374 C375 1.363 . S
C374 H386 0.929 . S
C375 C374 1.363 . S
C375 N377 1.375 . S
C375 H393 0.931 . S
C376 N373 1.311 . S
C376 N377 1.347 . S
C376 H387 0.929 . S
N377 C375 1.375 . S
N377 C376 1.347 . S
C378 C381 1.365 . S
C378 N383 1.328 . S
C378 H384 0.929 . S
C379 C380 1.362 . S
C379 C382 1.378 . S
C379 H394 0.929 . S
C380 C379 1.362 . S
C380 C381 1.366 . S
C381 C378 1.365 . S
C381 C380 1.366 . S
C381 H395 0.930 . S
C382 C379 1.378 . S
C382 N383 1.315 . S
C382 H385 0.930 . S
N383 Co363 2.194 . S
N383 C378 1.328 . S
N383 C382 1.315 . S
H384 C378 0.929 . S
H385 C382 0.930 . S
H386 C374 0.929 . S
H387 C376 0.929 . S
O388 Co363 2.351 . S
O388 C391 1.244 . S
O389 Co363 2.155 . S
O389 C391 1.240 . S
O390 Co363 2.096 . S
O390 C371 1.247 . S
C391 O388 1.244 . S
C391 O389 1.240 . S
H392 C366 0.931 . S
H393 C375 0.931 . S
H394 C379 0.929 . S
H395 C381 0.930 . S
Co396 N400 2.148 . S
Co396 N406 2.128 . S
Co396 N416 2.194 . S
Co396 O421 2.351 . S
Co396 O422 2.155 1_545 S
Co396 O423 2.096 1_545 S
C397 N400 1.301 . S
C397 N401 1.328 . S
C397 H402 0.930 . S
C398 C399 1.333 . S
C398 N400 1.317 . S
C398 H403 0.930 . S
C399 C398 1.333 . S
C399 N401 1.350 . S
C399 H425 0.931 . S
N400 Co396 2.148 . S
N400 C397 1.301 . S
N400 C398 1.317 . S
N401 C397 1.328 . S
N401 C399 1.350 . S
H402 C397 0.930 . S
H403 C398 0.930 . S
C404 O405 1.191 1_565 S
C404 O423 1.259 . S
O405 C404 1.191 1_545 S
N406 Co396 2.128 . S
N406 C407 1.355 . S
N406 C409 1.311 . S
C407 N406 1.355 . S
C407 C408 1.363 . S
C407 H419 0.929 . S
C408 C407 1.363 . S
C408 N410 1.375 . S
C408 H426 0.931 . S
C409 N406 1.311 . S
C409 N410 1.347 . S
C409 H420 0.929 1_545 S
N410 C408 1.375 . S
N410 C409 1.347 . S
C411 C414 1.365 . S
C411 N416 1.328 . S
C411 H417 0.929 . S
C412 C413 1.362 . S
C412 C415 1.378 . S
C412 H427 0.929 . S
C413 C412 1.362 . S
C413 C414 1.366 . S
C414 C411 1.365 . S
C414 C413 1.366 . S
C414 H428 0.930 . S
C415 C412 1.378 . S
C415 N416 1.315 . S
C415 H418 0.930 . S
N416 Co396 2.194 . S
N416 C411 1.328 . S
N416 C415 1.315 . S
H417 C411 0.929 . S
H418 C415 0.930 . S
H419 C407 0.929 . S
H420 C409 0.929 1_565 S
O421 Co396 2.351 . S
O421 C424 1.244 . S
O422 Co396 2.155 1_565 S
O422 C424 1.240 1_565 S
O423 Co396 2.096 1_565 S
O423 C404 1.259 . S
C424 O421 1.244 . S
C424 O422 1.240 1_545 S
H425 C399 0.931 . S
H426 C408 0.931 . S
H427 C412 0.929 . S
H428 C414 0.930 . S
Co429 N433 2.148 . S
Co429 N439 2.128 . S
Co429 N449 2.194 . S
Co429 O454 2.351 . S
Co429 O455 2.155 . S
Co429 O456 2.096 . S
C430 N433 1.301 . S
C430 N434 1.328 . S
C430 H435 0.930 . S
C431 C432 1.333 . S
C431 N433 1.317 . S
C431 H436 0.930 . S
C432 C431 1.333 . S
C432 N434 1.350 . S
C432 H458 0.931 . S
N433 Co429 2.148 . S
N433 C430 1.301 . S
N433 C431 1.317 . S
N434 C430 1.328 . S
N434 C432 1.350 . S
H435 C430 0.930 . S
H436 C431 0.930 . S
C437 O438 1.224 . S
C437 O456 1.247 . S
O438 C437 1.224 . S
N439 Co429 2.128 . S
N439 C440 1.355 . S
N439 C442 1.311 . S
C440 N439 1.355 . S
C440 C441 1.363 . S
C440 H452 0.929 . S
C441 C440 1.363 . S
C441 N443 1.375 . S
C441 H459 0.931 . S
C442 N439 1.311 . S
C442 N443 1.347 . S
C442 H453 0.929 . S
N443 C441 1.375 . S
N443 C442 1.347 . S
C444 C447 1.365 . S
C444 N449 1.328 . S
C444 H450 0.929 . S
C445 C446 1.362 . S
C445 C448 1.378 . S
C445 H460 0.929 . S
C446 C445 1.362 . S
C446 C447 1.366 . S
C447 C444 1.365 . S
C447 C446 1.366 . S
C447 H461 0.930 . S
C448 C445 1.378 . S
C448 N449 1.315 . S
C448 H451 0.930 . S
N449 Co429 2.194 . S
N449 C444 1.328 . S
N449 C448 1.315 . S
H450 C444 0.929 . S
H451 C448 0.930 . S
H452 C440 0.929 . S
H453 C442 0.929 . S
O454 Co429 2.351 . S
O454 C457 1.244 . S
O455 Co429 2.155 . S
O455 C457 1.240 . S
O456 Co429 2.096 . S
O456 C437 1.247 . S
C457 O454 1.244 . S
C457 O455 1.240 . S
H458 C432 0.931 . S
H459 C441 0.931 . S
H460 C445 0.929 . S
H461 C447 0.930 . S
Co462 N466 2.148 . S
Co462 N472 2.128 . S
Co462 N482 2.194 . S
Co462 O487 2.351 . S
Co462 O488 2.155 1_565 S
Co462 O489 2.096 1_565 S
C463 N466 1.301 . S
C463 N467 1.328 . S
C463 H468 0.930 . S
C464 C465 1.333 . S
C464 N466 1.317 . S
C464 H469 0.930 . S
C465 C464 1.333 . S
C465 N467 1.350 . S
C465 H491 0.931 . S
N466 Co462 2.148 . S
N466 C463 1.301 . S
N466 C464 1.317 . S
N467 C463 1.328 . S
N467 C465 1.350 . S
H468 C463 0.930 . S
H469 C464 0.930 . S
C470 O471 1.192 1_545 S
C470 O489 1.258 . S
O471 C470 1.192 1_565 S
N472 Co462 2.128 . S
N472 C473 1.355 . S
N472 C475 1.311 . S
C473 N472 1.355 . S
C473 C474 1.363 . S
C473 H485 0.929 . S
C474 C473 1.363 . S
C474 N476 1.375 . S
C474 H492 0.931 . S
C475 N472 1.311 . S
C475 N476 1.347 . S
C475 H486 0.929 1_565 S
N476 C474 1.375 . S
N476 C475 1.347 . S
C477 C480 1.365 . S
C477 N482 1.328 . S
C477 H483 0.929 . S
C478 C479 1.362 . S
C478 C481 1.378 . S
C478 H493 0.929 . S
C479 C478 1.362 . S
C479 C480 1.366 . S
C480 C477 1.365 . S
C480 C479 1.366 . S
C480 H494 0.930 . S
C481 C478 1.378 . S
C481 N482 1.315 . S
C481 H484 0.930 . S
N482 Co462 2.194 . S
N482 C477 1.328 . S
N482 C481 1.315 . S
H483 C477 0.929 . S
H484 C481 0.930 . S
H485 C473 0.929 . S
H486 C475 0.929 1_545 S
O487 Co462 2.351 . S
O487 C490 1.244 . S
O488 Co462 2.155 1_545 S
O488 C490 1.240 1_545 S
O489 Co462 2.096 1_545 S
O489 C470 1.258 . S
C490 O487 1.244 . S
C490 O488 1.240 1_565 S
H491 C465 0.931 . S
H492 C474 0.931 . S
H493 C478 0.929 . S
H494 C480 0.930 . S
Co495 N499 2.148 . S
Co495 N505 2.128 . S
Co495 N515 2.194 . S
Co495 O520 2.351 . S
Co495 O521 2.155 . S
Co495 O522 2.096 . S
C496 N499 1.301 . S
C496 N500 1.328 . S
C496 H501 0.930 . S
C497 C498 1.333 . S
C497 N499 1.317 . S
C497 H502 0.930 . S
C498 C497 1.333 . S
C498 N500 1.350 . S
C498 H524 0.931 . S
N499 Co495 2.148 . S
N499 C496 1.301 . S
N499 C497 1.317 . S
N500 C496 1.328 . S
N500 C498 1.350 . S
H501 C496 0.930 . S
H502 C497 0.930 . S
C503 O504 1.224 . S
C503 O522 1.247 . S
O504 C503 1.224 . S
N505 Co495 2.128 . S
N505 C506 1.355 . S
N505 C508 1.311 . S
C506 N505 1.355 . S
C506 C507 1.363 . S
C506 H518 0.929 . S
C507 C506 1.363 . S
C507 N509 1.375 . S
C507 H525 0.931 . S
C508 N505 1.311 . S
C508 N509 1.347 . S
C508 H519 0.929 . S
N509 C507 1.375 . S
N509 C508 1.347 . S
C510 C513 1.365 . S
C510 N515 1.328 . S
C510 H516 0.929 . S
C511 C512 1.362 . S
C511 C514 1.378 . S
C511 H526 0.929 . S
C512 C511 1.362 . S
C512 C513 1.366 . S
C513 C510 1.365 . S
C513 C512 1.366 . S
C513 H527 0.930 . S
C514 C511 1.378 . S
C514 N515 1.315 . S
C514 H517 0.930 . S
N515 Co495 2.194 . S
N515 C510 1.328 . S
N515 C514 1.315 . S
H516 C510 0.929 . S
H517 C514 0.930 . S
H518 C506 0.929 . S
H519 C508 0.929 . S
O520 Co495 2.351 . S
O520 C523 1.244 . S
O521 Co495 2.155 . S
O521 C523 1.240 . S
O522 Co495 2.096 . S
O522 C503 1.247 . S
C523 O520 1.244 . S
C523 O521 1.240 . S
H524 C498 0.931 . S
H525 C507 0.931 . S
H526 C511 0.929 . S
H527 C513 0.930 . S
Co528 N532 2.148 . S
Co528 N538 2.128 . S
Co528 N548 2.194 . S
Co528 O553 2.351 . S
Co528 O554 2.155 . S
Co528 O555 2.096 . S
C529 N532 1.301 . S
C529 N533 1.328 . S
C529 H534 0.930 . S
C530 C531 1.333 . S
C530 N532 1.317 . S
C530 H535 0.930 . S
C531 C530 1.333 . S
C531 N533 1.350 . S
C531 H557 0.931 . S
N532 Co528 2.148 . S
N532 C529 1.301 . S
N532 C530 1.317 . S
N533 C529 1.328 . S
N533 C531 1.350 . S
H534 C529 0.930 . S
H535 C530 0.930 . S
C536 O537 1.224 . S
C536 O555 1.247 . S
O537 C536 1.224 . S
N538 Co528 2.128 . S
N538 C539 1.355 . S
N538 C541 1.311 . S
C539 N538 1.355 . S
C539 C540 1.363 . S
C539 H551 0.929 . S
C540 C539 1.363 . S
C540 N542 1.375 . S
C540 H558 0.931 . S
C541 N538 1.311 . S
C541 N542 1.347 . S
C541 H552 0.929 . S
N542 C540 1.375 . S
N542 C541 1.347 . S
C543 C546 1.365 . S
C543 N548 1.328 . S
C543 H549 0.929 . S
C544 C545 1.362 . S
C544 C547 1.378 . S
C544 H559 0.929 . S
C545 C544 1.362 . S
C545 C546 1.366 . S
C546 C543 1.365 . S
C546 C545 1.366 . S
C546 H560 0.930 . S
C547 C544 1.378 . S
C547 N548 1.315 . S
C547 H550 0.930 . S
N548 Co528 2.194 . S
N548 C543 1.328 . S
N548 C547 1.315 . S
H549 C543 0.929 . S
H550 C547 0.930 . S
H551 C539 0.929 . S
H552 C541 0.929 . S
O553 Co528 2.351 . S
O553 C556 1.244 . S
O554 Co528 2.155 . S
O554 C556 1.240 . S
O555 Co528 2.096 . S
O555 C536 1.247 . S
C556 O553 1.244 . S
C556 O554 1.240 . S
H557 C531 0.931 . S
H558 C540 0.931 . S
H559 C544 0.929 . S
H560 C546 0.930 . S
Co561 N565 2.148 . S
Co561 N571 2.128 . S
Co561 N581 2.194 . S
Co561 O586 2.351 . S
Co561 O587 2.155 . S
Co561 O588 2.096 . S
C562 N565 1.301 . S
C562 N566 1.328 . S
C562 H567 0.930 . S
C563 C564 1.333 . S
C563 N565 1.317 . S
C563 H568 0.930 . S
C564 C563 1.333 . S
C564 N566 1.350 . S
C564 H590 0.931 . S
N565 Co561 2.148 . S
N565 C562 1.301 . S
N565 C563 1.317 . S
N566 C562 1.328 . S
N566 C564 1.350 . S
H567 C562 0.930 . S
H568 C563 0.930 . S
C569 O570 1.224 . S
C569 O588 1.247 . S
O570 C569 1.224 . S
N571 Co561 2.128 . S
N571 C572 1.355 . S
N571 C574 1.311 . S
C572 N571 1.355 . S
C572 C573 1.363 . S
C572 H584 0.929 . S
C573 C572 1.363 . S
C573 N575 1.375 . S
C573 H591 0.931 . S
C574 N571 1.311 . S
C574 N575 1.347 . S
C574 H585 0.929 . S
N575 C573 1.375 . S
N575 C574 1.347 . S
C576 C579 1.365 . S
C576 N581 1.328 . S
C576 H582 0.929 . S
C577 C578 1.362 . S
C577 C580 1.378 . S
C577 H592 0.929 . S
C578 C577 1.362 . S
C578 C579 1.366 . S
C579 C576 1.365 . S
C579 C578 1.366 . S
C579 H593 0.930 . S
C580 C577 1.378 . S
C580 N581 1.315 . S
C580 H583 0.930 . S
N581 Co561 2.194 . S
N581 C576 1.328 . S
N581 C580 1.315 . S
H582 C576 0.929 . S
H583 C580 0.930 . S
H584 C572 0.929 . S
H585 C574 0.929 . S
O586 Co561 2.351 . S
O586 C589 1.244 . S
O587 Co561 2.155 . S
O587 C589 1.240 . S
O588 Co561 2.096 . S
O588 C569 1.247 . S
C589 O586 1.244 . S
C589 O587 1.240 . S
H590 C564 0.931 . S
H591 C573 0.931 . S
H592 C577 0.929 . S
H593 C579 0.930 . S
Co594 N598 2.148 . S
Co594 N604 2.128 . S
Co594 N614 2.194 . S
Co594 O619 2.351 . S
Co594 O620 2.155 . S
Co594 O621 2.096 . S
C595 N598 1.301 . S
C595 N599 1.328 . S
C595 H600 0.930 . S
C596 C597 1.333 . S
C596 N598 1.317 . S
C596 H601 0.930 . S
C597 C596 1.333 . S
C597 N599 1.350 . S
C597 H623 0.931 . S
N598 Co594 2.148 . S
N598 C595 1.301 . S
N598 C596 1.317 . S
N599 C595 1.328 . S
N599 C597 1.350 . S
H600 C595 0.930 . S
H601 C596 0.930 . S
C602 O603 1.224 . S
C602 O621 1.247 . S
O603 C602 1.224 . S
N604 Co594 2.128 . S
N604 C605 1.355 . S
N604 C607 1.311 . S
C605 N604 1.355 . S
C605 C606 1.363 . S
C605 H617 0.929 . S
C606 C605 1.363 . S
C606 N608 1.375 . S
C606 H624 0.931 . S
C607 N604 1.311 . S
C607 N608 1.347 . S
C607 H618 0.929 . S
N608 C606 1.375 . S
N608 C607 1.347 . S
C609 C612 1.365 . S
C609 N614 1.328 . S
C609 H615 0.929 . S
C610 C611 1.362 . S
C610 C613 1.378 . S
C610 H625 0.929 . S
C611 C610 1.362 . S
C611 C612 1.366 . S
C612 C609 1.365 . S
C612 C611 1.366 . S
C612 H626 0.930 . S
C613 C610 1.378 . S
C613 N614 1.315 . S
C613 H616 0.930 . S
N614 Co594 2.194 . S
N614 C609 1.328 . S
N614 C613 1.315 . S
H615 C609 0.929 . S
H616 C613 0.930 . S
H617 C605 0.929 . S
H618 C607 0.929 . S
O619 Co594 2.351 . S
O619 C622 1.244 . S
O620 Co594 2.155 . S
O620 C622 1.240 . S
O621 Co594 2.096 . S
O621 C602 1.247 . S
C622 O619 1.244 . S
C622 O620 1.240 . S
H623 C597 0.931 . S
H624 C606 0.931 . S
H625 C610 0.929 . S
H626 C612 0.930 . S
Co627 N631 2.148 . S
Co627 N637 2.128 . S
Co627 N647 2.194 . S
Co627 O652 2.351 . S
Co627 O653 2.155 . S
Co627 O654 2.096 . S
C628 N631 1.301 . S
C628 N632 1.328 . S
C628 H633 0.930 . S
C629 C630 1.333 . S
C629 N631 1.317 . S
C629 H634 0.930 . S
C630 C629 1.333 . S
C630 N632 1.350 . S
C630 H656 0.931 . S
N631 Co627 2.148 . S
N631 C628 1.301 . S
N631 C629 1.317 . S
N632 C628 1.328 . S
N632 C630 1.350 . S
H633 C628 0.930 . S
H634 C629 0.930 . S
C635 O636 1.224 . S
C635 O654 1.247 . S
O636 C635 1.224 . S
N637 Co627 2.128 . S
N637 C638 1.355 . S
N637 C640 1.311 . S
C638 N637 1.355 . S
C638 C639 1.363 . S
C638 H650 0.929 . S
C639 C638 1.363 . S
C639 N641 1.375 . S
C639 H657 0.931 . S
C640 N637 1.311 . S
C640 N641 1.347 . S
C640 H651 0.929 . S
N641 C639 1.375 . S
N641 C640 1.347 . S
C642 C645 1.365 . S
C642 N647 1.328 . S
C642 H648 0.929 . S
C643 C644 1.362 . S
C643 C646 1.378 . S
C643 H658 0.929 . S
C644 C643 1.362 . S
C644 C645 1.366 . S
C645 C642 1.365 . S
C645 C644 1.366 . S
C645 H659 0.930 . S
C646 C643 1.378 . S
C646 N647 1.315 . S
C646 H649 0.930 . S
N647 Co627 2.194 . S
N647 C642 1.328 . S
N647 C646 1.315 . S
H648 C642 0.929 . S
H649 C646 0.930 . S
H650 C638 0.929 . S
H651 C640 0.929 . S
O652 Co627 2.351 . S
O652 C655 1.244 . S
O653 Co627 2.155 . S
O653 C655 1.240 . S
O654 Co627 2.096 . S
O654 C635 1.247 . S
C655 O652 1.244 . S
C655 O653 1.240 . S
H656 C630 0.931 . S
H657 C639 0.931 . S
H658 C643 0.929 . S
H659 C645 0.930 . S
Co660 N664 2.148 . S
Co660 N670 2.128 . S
Co660 N680 2.194 . S
Co660 O685 2.351 . S
Co660 O686 2.155 . S
Co660 O687 2.096 . S
C661 N664 1.301 . S
C661 N665 1.328 . S
C661 H666 0.930 . S
C662 C663 1.333 . S
C662 N664 1.317 . S
C662 H667 0.930 . S
C663 C662 1.333 . S
C663 N665 1.350 . S
C663 H689 0.931 . S
N664 Co660 2.148 . S
N664 C661 1.301 . S
N664 C662 1.317 . S
N665 C661 1.328 . S
N665 C663 1.350 . S
H666 C661 0.930 . S
H667 C662 0.930 . S
C668 O669 1.224 . S
C668 O687 1.247 . S
O669 C668 1.224 . S
N670 Co660 2.128 . S
N670 C671 1.355 . S
N670 C673 1.311 . S
C671 N670 1.355 . S
C671 C672 1.363 . S
C671 H683 0.929 . S
C672 C671 1.363 . S
C672 N674 1.375 . S
C672 H690 0.931 . S
C673 N670 1.311 . S
C673 N674 1.347 . S
C673 H684 0.929 . S
N674 C672 1.375 . S
N674 C673 1.347 . S
C675 C678 1.365 . S
C675 N680 1.328 . S
C675 H681 0.929 . S
C676 C677 1.362 . S
C676 C679 1.378 . S
C676 H691 0.929 . S
C677 C676 1.362 . S
C677 C678 1.366 . S
C678 C675 1.365 . S
C678 C677 1.366 . S
C678 H692 0.930 . S
C679 C676 1.378 . S
C679 N680 1.315 . S
C679 H682 0.930 . S
N680 Co660 2.194 . S
N680 C675 1.328 . S
N680 C679 1.315 . S
H681 C675 0.929 . S
H682 C679 0.930 . S
H683 C671 0.929 . S
H684 C673 0.929 . S
O685 Co660 2.351 . S
O685 C688 1.244 . S
O686 Co660 2.155 . S
O686 C688 1.240 . S
O687 Co660 2.096 . S
O687 C668 1.247 . S
C688 O685 1.244 . S
C688 O686 1.240 . S
H689 C663 0.931 . S
H690 C672 0.931 . S
H691 C676 0.929 . S
H692 C678 0.930 . S
Co693 N697 2.148 . S
Co693 N703 2.128 . S
Co693 N713 2.194 . S
Co693 O718 2.351 . S
Co693 O719 2.155 . S
Co693 O720 2.096 . S
C694 N697 1.301 . S
C694 N698 1.328 . S
C694 H699 0.930 . S
C695 C696 1.333 . S
C695 N697 1.317 . S
C695 H700 0.930 . S
C696 C695 1.333 . S
C696 N698 1.350 . S
C696 H722 0.931 . S
N697 Co693 2.148 . S
N697 C694 1.301 . S
N697 C695 1.317 . S
N698 C694 1.328 . S
N698 C696 1.350 . S
H699 C694 0.930 . S
H700 C695 0.930 . S
C701 O702 1.224 . S
C701 O720 1.247 . S
O702 C701 1.224 . S
N703 Co693 2.128 . S
N703 C704 1.355 . S
N703 C706 1.311 . S
C704 N703 1.355 . S
C704 C705 1.363 . S
C704 H716 0.929 . S
C705 C704 1.363 . S
C705 N707 1.375 . S
C705 H723 0.931 . S
C706 N703 1.311 . S
C706 N707 1.347 . S
C706 H717 0.929 . S
N707 C705 1.375 . S
N707 C706 1.347 . S
C708 C711 1.365 . S
C708 N713 1.328 . S
C708 H714 0.929 . S
C709 C710 1.362 . S
C709 C712 1.378 . S
C709 H724 0.929 . S
C710 C709 1.362 . S
C710 C711 1.366 . S
C711 C708 1.365 . S
C711 C710 1.366 . S
C711 H725 0.930 . S
C712 C709 1.378 . S
C712 N713 1.315 . S
C712 H715 0.930 . S
N713 Co693 2.194 . S
N713 C708 1.328 . S
N713 C712 1.315 . S
H714 C708 0.929 . S
H715 C712 0.930 . S
H716 C704 0.929 . S
H717 C706 0.929 . S
O718 Co693 2.351 . S
O718 C721 1.244 . S
O719 Co693 2.155 . S
O719 C721 1.240 . S
O720 Co693 2.096 . S
O720 C701 1.247 . S
C721 O718 1.244 . S
C721 O719 1.240 . S
H722 C696 0.931 . S
H723 C705 0.931 . S
H724 C709 0.929 . S
H725 C711 0.930 . S
Co726 N730 2.148 . S
Co726 N736 2.128 . S
Co726 N746 2.194 . S
Co726 O751 2.351 . S
Co726 O752 2.155 . S
Co726 O753 2.096 . S
C727 N730 1.301 . S
C727 N731 1.328 . S
C727 H732 0.930 . S
C728 C729 1.333 . S
C728 N730 1.317 . S
C728 H733 0.930 . S
C729 C728 1.333 . S
C729 N731 1.350 . S
C729 H755 0.931 . S
N730 Co726 2.148 . S
N730 C727 1.301 . S
N730 C728 1.317 . S
N731 C727 1.328 . S
N731 C729 1.350 . S
H732 C727 0.930 . S
H733 C728 0.930 . S
C734 O735 1.224 . S
C734 O753 1.247 . S
O735 C734 1.224 . S
N736 Co726 2.128 . S
N736 C737 1.355 . S
N736 C739 1.311 . S
C737 N736 1.355 . S
C737 C738 1.363 . S
C737 H749 0.929 . S
C738 C737 1.363 . S
C738 N740 1.375 . S
C738 H756 0.931 . S
C739 N736 1.311 . S
C739 N740 1.347 . S
C739 H750 0.929 . S
N740 C738 1.375 . S
N740 C739 1.347 . S
C741 C744 1.365 . S
C741 N746 1.328 . S
C741 H747 0.929 . S
C742 C743 1.362 . S
C742 C745 1.378 . S
C742 H757 0.929 . S
C743 C742 1.362 . S
C743 C744 1.366 . S
C744 C741 1.365 . S
C744 C743 1.366 . S
C744 H758 0.930 . S
C745 C742 1.378 . S
C745 N746 1.315 . S
C745 H748 0.930 . S
N746 Co726 2.194 . S
N746 C741 1.328 . S
N746 C745 1.315 . S
H747 C741 0.929 . S
H748 C745 0.930 . S
H749 C737 0.929 . S
H750 C739 0.929 . S
O751 Co726 2.351 . S
O751 C754 1.244 . S
O752 Co726 2.155 . S
O752 C754 1.240 . S
O753 Co726 2.096 . S
O753 C734 1.247 . S
C754 O751 1.244 . S
C754 O752 1.240 . S
H755 C729 0.931 . S
H756 C738 0.931 . S
H757 C742 0.929 . S
H758 C744 0.930 . S
Co759 N763 2.148 . S
Co759 N769 2.128 . S
Co759 N779 2.194 . S
Co759 O784 2.351 . S
Co759 O785 2.155 . S
Co759 O786 2.096 . S
C760 N763 1.301 . S
C760 N764 1.328 . S
C760 H765 0.930 . S
C761 C762 1.333 . S
C761 N763 1.317 . S
C761 H766 0.930 . S
C762 C761 1.333 . S
C762 N764 1.350 . S
C762 H788 0.931 . S
N763 Co759 2.148 . S
N763 C760 1.301 . S
N763 C761 1.317 . S
N764 C760 1.328 . S
N764 C762 1.350 . S
H765 C760 0.930 . S
H766 C761 0.930 . S
C767 O768 1.224 . S
C767 O786 1.247 . S
O768 C767 1.224 . S
N769 Co759 2.128 . S
N769 C770 1.355 . S
N769 C772 1.311 . S
C770 N769 1.355 . S
C770 C771 1.363 . S
C770 H782 0.929 . S
C771 C770 1.363 . S
C771 N773 1.375 . S
C771 H789 0.931 . S
C772 N769 1.311 . S
C772 N773 1.347 . S
C772 H783 0.929 . S
N773 C771 1.375 . S
N773 C772 1.347 . S
C774 C777 1.365 . S
C774 N779 1.328 . S
C774 H780 0.929 . S
C775 C776 1.362 . S
C775 C778 1.378 . S
C775 H790 0.929 . S
C776 C775 1.362 . S
C776 C777 1.366 . S
C777 C774 1.365 . S
C777 C776 1.366 . S
C777 H791 0.930 . S
C778 C775 1.378 . S
C778 N779 1.315 . S
C778 H781 0.930 . S
N779 Co759 2.194 . S
N779 C774 1.328 . S
N779 C778 1.315 . S
H780 C774 0.929 . S
H781 C778 0.930 . S
H782 C770 0.929 . S
H783 C772 0.929 . S
O784 Co759 2.351 . S
O784 C787 1.244 . S
O785 Co759 2.155 . S
O785 C787 1.240 . S
O786 Co759 2.096 . S
O786 C767 1.247 . S
C787 O784 1.244 . S
C787 O785 1.240 . S
H788 C762 0.931 . S
H789 C771 0.931 . S
H790 C775 0.929 . S
H791 C777 0.930 . S
Co792 N796 2.148 . S
Co792 N802 2.128 . S
Co792 N812 2.194 . S
Co792 O817 2.351 . S
Co792 O818 2.155 . S
Co792 O819 2.096 . S
C793 N796 1.301 . S
C793 N797 1.328 . S
C793 H798 0.930 . S
C794 C795 1.333 . S
C794 N796 1.317 . S
C794 H799 0.930 . S
C795 C794 1.333 . S
C795 N797 1.350 . S
C795 H821 0.931 . S
N796 Co792 2.148 . S
N796 C793 1.301 . S
N796 C794 1.317 . S
N797 C793 1.328 . S
N797 C795 1.350 . S
H798 C793 0.930 . S
H799 C794 0.930 . S
C800 O801 1.224 . S
C800 O819 1.247 . S
O801 C800 1.224 . S
N802 Co792 2.128 . S
N802 C803 1.355 . S
N802 C805 1.311 . S
C803 N802 1.355 . S
C803 C804 1.363 . S
C803 H815 0.929 . S
C804 C803 1.363 . S
C804 N806 1.375 . S
C804 H822 0.931 . S
C805 N802 1.311 . S
C805 N806 1.347 . S
C805 H816 0.929 . S
N806 C804 1.375 . S
N806 C805 1.347 . S
C807 C810 1.365 . S
C807 N812 1.328 . S
C807 H813 0.929 . S
C808 C809 1.362 . S
C808 C811 1.378 . S
C808 H823 0.929 . S
C809 C808 1.362 . S
C809 C810 1.366 . S
C810 C807 1.365 . S
C810 C809 1.366 . S
C810 H824 0.930 . S
C811 C808 1.378 . S
C811 N812 1.315 . S
C811 H814 0.930 . S
N812 Co792 2.194 . S
N812 C807 1.328 . S
N812 C811 1.315 . S
H813 C807 0.929 . S
H814 C811 0.930 . S
H815 C803 0.929 . S
H816 C805 0.929 . S
O817 Co792 2.351 . S
O817 C820 1.244 . S
O818 Co792 2.155 . S
O818 C820 1.240 . S
O819 Co792 2.096 . S
O819 C800 1.247 . S
C820 O817 1.244 . S
C820 O818 1.240 . S
H821 C795 0.931 . S
H822 C804 0.931 . S
H823 C808 0.929 . S
H824 C810 0.930 . S
Co825 N829 2.148 . S
Co825 N835 2.128 . S
Co825 N845 2.194 . S
Co825 O850 2.351 . S
Co825 O851 2.155 . S
Co825 O852 2.096 . S
C826 N829 1.301 . S
C826 N830 1.328 . S
C826 H831 0.930 . S
C827 C828 1.333 . S
C827 N829 1.317 . S
C827 H832 0.930 . S
C828 C827 1.333 . S
C828 N830 1.350 . S
C828 H854 0.931 . S
N829 Co825 2.148 . S
N829 C826 1.301 . S
N829 C827 1.317 . S
N830 C826 1.328 . S
N830 C828 1.350 . S
H831 C826 0.930 . S
H832 C827 0.930 . S
C833 O834 1.224 . S
C833 O852 1.247 . S
O834 C833 1.224 . S
N835 Co825 2.128 . S
N835 C836 1.355 . S
N835 C838 1.311 . S
C836 N835 1.355 . S
C836 C837 1.363 . S
C836 H848 0.929 . S
C837 C836 1.363 . S
C837 N839 1.375 . S
C837 H855 0.931 . S
C838 N835 1.311 . S
C838 N839 1.347 . S
C838 H849 0.929 . S
N839 C837 1.375 . S
N839 C838 1.347 . S
C840 C843 1.365 . S
C840 N845 1.328 . S
C840 H846 0.929 . S
C841 C842 1.362 . S
C841 C844 1.378 . S
C841 H856 0.929 . S
C842 C841 1.362 . S
C842 C843 1.366 . S
C843 C840 1.365 . S
C843 C842 1.366 . S
C843 H857 0.930 . S
C844 C841 1.378 . S
C844 N845 1.315 . S
C844 H847 0.930 . S
N845 Co825 2.194 . S
N845 C840 1.328 . S
N845 C844 1.315 . S
H846 C840 0.929 . S
H847 C844 0.930 . S
H848 C836 0.929 . S
H849 C838 0.929 . S
O850 Co825 2.351 . S
O850 C853 1.244 . S
O851 Co825 2.155 . S
O851 C853 1.240 . S
O852 Co825 2.096 . S
O852 C833 1.247 . S
C853 O850 1.244 . S
C853 O851 1.240 . S
H854 C828 0.931 . S
H855 C837 0.931 . S
H856 C841 0.929 . S
H857 C843 0.930 . S
Co858 N862 2.148 . S
Co858 N868 2.128 . S
Co858 N878 2.194 . S
Co858 O883 2.351 . S
Co858 O884 2.155 . S
Co858 O885 2.096 . S
C859 N862 1.301 . S
C859 N863 1.328 . S
C859 H864 0.930 . S
C860 C861 1.333 . S
C860 N862 1.317 . S
C860 H865 0.930 . S
C861 C860 1.333 . S
C861 N863 1.350 . S
C861 H887 0.931 . S
N862 Co858 2.148 . S
N862 C859 1.301 . S
N862 C860 1.317 . S
N863 C859 1.328 . S
N863 C861 1.350 . S
H864 C859 0.930 . S
H865 C860 0.930 . S
C866 O867 1.224 . S
C866 O885 1.247 . S
O867 C866 1.224 . S
N868 Co858 2.128 . S
N868 C869 1.355 . S
N868 C871 1.311 . S
C869 N868 1.355 . S
C869 C870 1.363 . S
C869 H881 0.929 . S
C870 C869 1.363 . S
C870 N872 1.375 . S
C870 H888 0.931 . S
C871 N868 1.311 . S
C871 N872 1.347 . S
C871 H882 0.929 . S
N872 C870 1.375 . S
N872 C871 1.347 . S
C873 C876 1.365 . S
C873 N878 1.328 . S
C873 H879 0.929 . S
C874 C875 1.362 . S
C874 C877 1.378 . S
C874 H889 0.929 . S
C875 C874 1.362 . S
C875 C876 1.366 . S
C876 C873 1.365 . S
C876 C875 1.366 . S
C876 H890 0.930 . S
C877 C874 1.378 . S
C877 N878 1.315 . S
C877 H880 0.930 . S
N878 Co858 2.194 . S
N878 C873 1.328 . S
N878 C877 1.315 . S
H879 C873 0.929 . S
H880 C877 0.930 . S
H881 C869 0.929 . S
H882 C871 0.929 . S
O883 Co858 2.351 . S
O883 C886 1.244 . S
O884 Co858 2.155 . S
O884 C886 1.240 . S
O885 Co858 2.096 . S
O885 C866 1.247 . S
C886 O883 1.244 . S
C886 O884 1.240 . S
H887 C861 0.931 . S
H888 C870 0.931 . S
H889 C874 0.929 . S
H890 C876 0.930 . S
Co891 N895 2.148 . S
Co891 N901 2.128 . S
Co891 N911 2.194 . S
Co891 O916 2.351 . S
Co891 O917 2.155 . S
Co891 O918 2.096 . S
C892 N895 1.301 . S
C892 N896 1.328 . S
C892 H897 0.930 . S
C893 C894 1.333 . S
C893 N895 1.317 . S
C893 H898 0.930 . S
C894 C893 1.333 . S
C894 N896 1.350 . S
C894 H920 0.931 . S
N895 Co891 2.148 . S
N895 C892 1.301 . S
N895 C893 1.317 . S
N896 C892 1.328 . S
N896 C894 1.350 . S
H897 C892 0.930 . S
H898 C893 0.930 . S
C899 O900 1.224 . S
C899 O918 1.247 . S
O900 C899 1.224 . S
N901 Co891 2.128 . S
N901 C902 1.355 . S
N901 C904 1.311 . S
C902 N901 1.355 . S
C902 C903 1.363 . S
C902 H914 0.929 . S
C903 C902 1.363 . S
C903 N905 1.375 . S
C903 H921 0.931 . S
C904 N901 1.311 . S
C904 N905 1.347 . S
C904 H915 0.929 . S
N905 C903 1.375 . S
N905 C904 1.347 . S
C906 C909 1.365 . S
C906 N911 1.328 . S
C906 H912 0.929 . S
C907 C908 1.362 . S
C907 C910 1.378 . S
C907 H922 0.929 . S
C908 C907 1.362 . S
C908 C909 1.366 . S
C909 C906 1.365 . S
C909 C908 1.366 . S
C909 H923 0.930 . S
C910 C907 1.378 . S
C910 N911 1.315 . S
C910 H913 0.930 . S
N911 Co891 2.194 . S
N911 C906 1.328 . S
N911 C910 1.315 . S
H912 C906 0.929 . S
H913 C910 0.930 . S
H914 C902 0.929 . S
H915 C904 0.929 . S
O916 Co891 2.351 . S
O916 C919 1.244 . S
O917 Co891 2.155 . S
O917 C919 1.240 . S
O918 Co891 2.096 . S
O918 C899 1.247 . S
C919 O916 1.244 . S
C919 O917 1.240 . S
H920 C894 0.931 . S
H921 C903 0.931 . S
H922 C907 0.929 . S
H923 C909 0.930 . S
Co924 N928 2.148 . S
Co924 N934 2.128 . S
Co924 N944 2.194 . S
Co924 O949 2.351 . S
Co924 O950 2.155 . S
Co924 O951 2.096 . S
C925 N928 1.301 . S
C925 N929 1.328 . S
C925 H930 0.930 . S
C926 C927 1.333 . S
C926 N928 1.317 . S
C926 H931 0.930 . S
C927 C926 1.333 . S
C927 N929 1.350 . S
C927 H953 0.931 . S
N928 Co924 2.148 . S
N928 C925 1.301 . S
N928 C926 1.317 . S
N929 C925 1.328 . S
N929 C927 1.350 . S
H930 C925 0.930 . S
H931 C926 0.930 . S
C932 O933 1.224 . S
C932 O951 1.247 . S
O933 C932 1.224 . S
N934 Co924 2.128 . S
N934 C935 1.355 . S
N934 C937 1.311 . S
C935 N934 1.355 . S
C935 C936 1.363 . S
C935 H947 0.929 . S
C936 C935 1.363 . S
C936 N938 1.375 . S
C936 H954 0.931 . S
C937 N934 1.311 . S
C937 N938 1.347 . S
C937 H948 0.929 . S
N938 C936 1.375 . S
N938 C937 1.347 . S
C939 C942 1.365 . S
C939 N944 1.328 . S
C939 H945 0.929 . S
C940 C941 1.362 . S
C940 C943 1.378 . S
C940 H955 0.929 . S
C941 C940 1.362 . S
C941 C942 1.366 . S
C942 C939 1.365 . S
C942 C941 1.366 . S
C942 H956 0.930 . S
C943 C940 1.378 . S
C943 N944 1.315 . S
C943 H946 0.930 . S
N944 Co924 2.194 . S
N944 C939 1.328 . S
N944 C943 1.315 . S
H945 C939 0.929 . S
H946 C943 0.930 . S
H947 C935 0.929 . S
H948 C937 0.929 . S
O949 Co924 2.351 . S
O949 C952 1.244 . S
O950 Co924 2.155 . S
O950 C952 1.240 . S
O951 Co924 2.096 . S
O951 C932 1.247 . S
C952 O949 1.244 . S
C952 O950 1.240 . S
H953 C927 0.931 . S
H954 C936 0.931 . S
H955 C940 0.929 . S
H956 C942 0.930 . S
Co957 N961 2.148 . S
Co957 N967 2.128 . S
Co957 N977 2.194 . S
Co957 O982 2.351 . S
Co957 O983 2.155 . S
Co957 O984 2.096 . S
C958 N961 1.301 . S
C958 N962 1.328 . S
C958 H963 0.930 . S
C959 C960 1.333 . S
C959 N961 1.317 . S
C959 H964 0.930 . S
C960 C959 1.333 . S
C960 N962 1.350 . S
C960 H986 0.931 . S
N961 Co957 2.148 . S
N961 C958 1.301 . S
N961 C959 1.317 . S
N962 C958 1.328 . S
N962 C960 1.350 . S
H963 C958 0.930 . S
H964 C959 0.930 . S
C965 O966 1.224 . S
C965 O984 1.247 . S
O966 C965 1.224 . S
N967 Co957 2.128 . S
N967 C968 1.355 . S
N967 C970 1.311 . S
C968 N967 1.355 . S
C968 C969 1.363 . S
C968 H980 0.929 . S
C969 C968 1.363 . S
C969 N971 1.375 . S
C969 H987 0.931 . S
C970 N967 1.311 . S
C970 N971 1.347 . S
C970 H981 0.929 . S
N971 C969 1.375 . S
N971 C970 1.347 . S
C972 C975 1.365 . S
C972 N977 1.328 . S
C972 H978 0.929 . S
C973 C974 1.362 . S
C973 C976 1.378 . S
C973 H988 0.929 . S
C974 C973 1.362 . S
C974 C975 1.366 . S
C975 C972 1.365 . S
C975 C974 1.366 . S
C975 H989 0.930 . S
C976 C973 1.378 . S
C976 N977 1.315 . S
C976 H979 0.930 . S
N977 Co957 2.194 . S
N977 C972 1.328 . S
N977 C976 1.315 . S
H978 C972 0.929 . S
H979 C976 0.930 . S
H980 C968 0.929 . S
H981 C970 0.929 . S
O982 Co957 2.351 . S
O982 C985 1.244 . S
O983 Co957 2.155 . S
O983 C985 1.240 . S
O984 Co957 2.096 . S
O984 C965 1.247 . S
C985 O982 1.244 . S
C985 O983 1.240 . S
H986 C960 0.931 . S
H987 C969 0.931 . S
H988 C973 0.929 . S
H989 C975 0.930 . S
Co990 N994 2.148 . S
Co990 N1000 2.128 . S
Co990 N1010 2.194 . S
Co990 O1015 2.351 . S
Co990 O1016 2.155 . S
Co990 O1017 2.096 . S
C991 N994 1.301 . S
C991 N995 1.328 . S
C991 H996 0.930 . S
C992 C993 1.333 . S
C992 N994 1.317 . S
C992 H997 0.930 . S
C993 C992 1.333 . S
C993 N995 1.350 . S
C993 H1019 0.931 . S
N994 Co990 2.148 . S
N994 C991 1.301 . S
N994 C992 1.317 . S
N995 C991 1.328 . S
N995 C993 1.350 . S
H996 C991 0.930 . S
H997 C992 0.930 . S
C998 O999 1.224 . S
C998 O1017 1.247 . S
O999 C998 1.224 . S
N1000 Co990 2.128 . S
N1000 C1001 1.355 . S
N1000 C1003 1.311 . S
C1001 N1000 1.355 . S
C1001 C1002 1.363 . S
C1001 H1013 0.929 . S
C1002 C1001 1.363 . S
C1002 N1004 1.375 . S
C1002 H1020 0.931 . S
C1003 N1000 1.311 . S
C1003 N1004 1.347 . S
C1003 H1014 0.929 . S
N1004 C1002 1.375 . S
N1004 C1003 1.347 . S
C1005 C1008 1.365 . S
C1005 N1010 1.328 . S
C1005 H1011 0.929 . S
C1006 C1007 1.362 . S
C1006 C1009 1.378 . S
C1006 H1021 0.929 . S
C1007 C1006 1.362 . S
C1007 C1008 1.366 . S
C1008 C1005 1.365 . S
C1008 C1007 1.366 . S
C1008 H1022 0.930 . S
C1009 C1006 1.378 . S
C1009 N1010 1.315 . S
C1009 H1012 0.930 . S
N1010 Co990 2.194 . S
N1010 C1005 1.328 . S
N1010 C1009 1.315 . S
H1011 C1005 0.929 . S
H1012 C1009 0.930 . S
H1013 C1001 0.929 . S
H1014 C1003 0.929 . S
O1015 Co990 2.351 . S
O1015 C1018 1.244 . S
O1016 Co990 2.155 . S
O1016 C1018 1.240 . S
O1017 Co990 2.096 . S
O1017 C998 1.247 . S
C1018 O1015 1.244 . S
C1018 O1016 1.240 . S
H1019 C993 0.931 . S
H1020 C1002 0.931 . S
H1021 C1006 0.929 . S
H1022 C1008 0.930 . S
Co1023 N1027 2.148 . S
Co1023 N1033 2.128 . S
Co1023 N1043 2.194 . S
Co1023 O1048 2.351 . S
Co1023 O1049 2.155 . S
Co1023 O1050 2.096 . S
C1024 N1027 1.301 . S
C1024 N1028 1.328 . S
C1024 H1029 0.930 . S
C1025 C1026 1.333 . S
C1025 N1027 1.317 . S
C1025 H1030 0.930 . S
C1026 C1025 1.333 . S
C1026 N1028 1.350 . S
C1026 H1052 0.931 . S
N1027 Co1023 2.148 . S
N1027 C1024 1.301 . S
N1027 C1025 1.317 . S
N1028 C1024 1.328 . S
N1028 C1026 1.350 . S
H1029 C1024 0.930 . S
H1030 C1025 0.930 . S
C1031 O1032 1.224 . S
C1031 O1050 1.247 . S
O1032 C1031 1.224 . S
N1033 Co1023 2.128 . S
N1033 C1034 1.355 . S
N1033 C1036 1.311 . S
C1034 N1033 1.355 . S
C1034 C1035 1.363 . S
C1034 H1046 0.929 . S
C1035 C1034 1.363 . S
C1035 N1037 1.375 . S
C1035 H1053 0.931 . S
C1036 N1033 1.311 . S
C1036 N1037 1.347 . S
C1036 H1047 0.929 . S
N1037 C1035 1.375 . S
N1037 C1036 1.347 . S
C1038 C1041 1.365 . S
C1038 N1043 1.328 . S
C1038 H1044 0.929 . S
C1039 C1040 1.362 . S
C1039 C1042 1.378 . S
C1039 H1054 0.929 . S
C1040 C1039 1.362 . S
C1040 C1041 1.366 . S
C1041 C1038 1.365 . S
C1041 C1040 1.366 . S
C1041 H1055 0.930 . S
C1042 C1039 1.378 . S
C1042 N1043 1.315 . S
C1042 H1045 0.930 . S
N1043 Co1023 2.194 . S
N1043 C1038 1.328 . S
N1043 C1042 1.315 . S
H1044 C1038 0.929 . S
H1045 C1042 0.930 . S
H1046 C1034 0.929 . S
H1047 C1036 0.929 . S
O1048 Co1023 2.351 . S
O1048 C1051 1.244 . S
O1049 Co1023 2.155 . S
O1049 C1051 1.240 . S
O1050 Co1023 2.096 . S
O1050 C1031 1.247 . S
C1051 O1048 1.244 . S
C1051 O1049 1.240 . S
H1052 C1026 0.931 . S
H1053 C1035 0.931 . S
H1054 C1039 0.929 . S
H1055 C1041 0.930 . S
C1056 C1057 1.349 . S
C1056 C1058 1.327 . S
C1056 H1081 0.950 . S
C1057 C1056 1.349 . S
C1057 C1073 1.349 1_565 S
C1058 C1056 1.327 . S
C1058 C1077 1.429 . S
C1058 H1082 0.950 . S
C1059 C1076 1.574 . S
C1059 C1078 1.368 1_545 S
C1059 H1083 0.949 . S
H1060 C1064 0.949 . S
C1061 C1062 1.349 . S
C1061 C1063 1.327 . S
C1061 H1084 0.950 . S
C1062 C1061 1.349 . S
C1062 C1074 1.349 1_545 S
C1063 C1061 1.327 . S
C1063 C1079 1.429 . S
C1063 H1085 0.950 . S
C1064 H1060 0.949 . S
C1064 C1072 1.574 . S
C1064 C1080 1.368 1_565 S
H1065 C1073 0.950 . S
H1066 C1071 0.950 . S
H1067 C1072 0.949 . S
H1068 C1074 0.950 . S
H1069 C1075 0.950 . S
H1070 C1076 0.949 . S
C1071 H1066 0.950 . S
C1071 C1073 1.327 . S
C1071 C1077 1.429 1_545 S
C1072 C1064 1.574 . S
C1072 H1067 0.949 . S
C1072 C1078 1.368 . S
C1073 C1057 1.349 1_545 S
C1073 H1065 0.950 . S
C1073 C1071 1.327 . S
C1074 C1062 1.349 1_565 S
C1074 H1068 0.950 . S
C1074 C1075 1.327 . S
C1075 H1069 0.950 . S
C1075 C1074 1.327 . S
C1075 C1079 1.429 1_565 S
C1076 C1059 1.574 . S
C1076 H1070 0.949 . S
C1076 C1080 1.368 . S
C1077 C1058 1.429 . S
C1077 C1071 1.429 1_565 S
C1077 C1078 1.523 . S
C1078 C1059 1.368 1_565 S
C1078 C1072 1.368 . S
C1078 C1077 1.523 . S
C1079 C1063 1.429 . S
C1079 C1075 1.429 1_545 S
C1079 C1080 1.523 . S
C1080 C1064 1.368 1_545 S
C1080 C1076 1.368 . S
C1080 C1079 1.523 . S
H1081 C1056 0.950 . S
H1082 C1058 0.950 . S
H1083 C1059 0.949 . S
H1084 C1061 0.950 . S
H1085 C1063 0.950 . S
C1086 C1087 1.349 . S
C1086 C1088 1.327 . S
C1086 H1111 0.950 . S
C1087 C1086 1.349 . S
C1087 C1103 1.349 . S
C1088 C1086 1.327 . S
C1088 C1107 1.429 . S
C1088 H1112 0.950 . S
C1089 C1106 1.574 . S
C1089 C1108 1.368 . S
C1089 H1113 0.949 . S
H1090 C1094 0.949 . S
C1091 C1092 1.349 . S
C1091 C1093 1.327 . S
C1091 H1114 0.950 . S
C1092 C1091 1.349 . S
C1092 C1104 1.349 . S
C1093 C1091 1.327 . S
C1093 C1109 1.429 . S
C1093 H1115 0.950 . S
C1094 H1090 0.949 . S
C1094 C1102 1.574 . S
C1094 C1110 1.368 . S
H1095 C1103 0.950 . S
H1096 C1101 0.950 . S
H1097 C1102 0.949 . S
H1098 C1104 0.950 . S
H1099 C1105 0.950 . S
H1100 C1106 0.949 . S
C1101 H1096 0.950 . S
C1101 C1103 1.327 . S
C1101 C1107 1.429 . S
C1102 C1094 1.574 . S
C1102 H1097 0.949 . S
C1102 C1108 1.368 . S
C1103 C1087 1.349 . S
C1103 H1095 0.950 . S
C1103 C1101 1.327 . S
C1104 C1092 1.349 . S
C1104 H1098 0.950 . S
C1104 C1105 1.327 . S
C1105 H1099 0.950 . S
C1105 C1104 1.327 . S
C1105 C1109 1.429 . S
C1106 C1089 1.574 . S
C1106 H1100 0.949 . S
C1106 C1110 1.368 . S
C1107 C1088 1.429 . S
C1107 C1101 1.429 . S
C1107 C1108 1.523 . S
C1108 C1089 1.368 . S
C1108 C1102 1.368 . S
C1108 C1107 1.523 . S
C1109 C1093 1.429 . S
C1109 C1105 1.429 . S
C1109 C1110 1.523 . S
C1110 C1094 1.368 . S
C1110 C1106 1.368 . S
C1110 C1109 1.523 . S
H1111 C1086 0.950 . S
H1112 C1088 0.950 . S
H1113 C1089 0.949 . S
H1114 C1091 0.950 . S
H1115 C1093 0.950 . S
C1116 C1117 1.349 . S
C1116 C1118 1.327 . S
C1116 H1141 0.950 . S
C1117 C1116 1.349 . S
C1117 C1133 1.349 1_565 S
C1118 C1116 1.327 . S
C1118 C1137 1.429 . S
C1118 H1142 0.950 . S
C1119 C1136 1.574 . S
C1119 C1138 1.368 1_545 S
C1119 H1143 0.949 . S
H1120 C1124 0.949 . S
C1121 C1122 1.349 . S
C1121 C1123 1.327 . S
C1121 H1144 0.950 . S
C1122 C1121 1.349 . S
C1122 C1134 1.349 1_545 S
C1123 C1121 1.327 . S
C1123 C1139 1.429 . S
C1123 H1145 0.950 . S
C1124 H1120 0.949 . S
C1124 C1132 1.574 . S
C1124 C1140 1.368 1_565 S
H1125 C1133 0.950 . S
H1126 C1131 0.950 . S
H1127 C1132 0.949 . S
H1128 C1134 0.950 . S
H1129 C1135 0.950 . S
H1130 C1136 0.949 . S
C1131 H1126 0.950 . S
C1131 C1133 1.327 . S
C1131 C1137 1.429 1_545 S
C1132 C1124 1.574 . S
C1132 H1127 0.949 . S
C1132 C1138 1.368 . S
C1133 C1117 1.349 1_545 S
C1133 H1125 0.950 . S
C1133 C1131 1.327 . S
C1134 C1122 1.349 1_565 S
C1134 H1128 0.950 . S
C1134 C1135 1.327 . S
C1135 H1129 0.950 . S
C1135 C1134 1.327 . S
C1135 C1139 1.429 1_565 S
C1136 C1119 1.574 . S
C1136 H1130 0.949 . S
C1136 C1140 1.368 . S
C1137 C1118 1.429 . S
C1137 C1131 1.429 1_565 S
C1137 C1138 1.523 . S
C1138 C1119 1.368 1_565 S
C1138 C1132 1.368 . S
C1138 C1137 1.523 . S
C1139 C1123 1.429 . S
C1139 C1135 1.429 1_545 S
C1139 C1140 1.523 . S
C1140 C1124 1.368 1_545 S
C1140 C1136 1.368 . S
C1140 C1139 1.523 . S
H1141 C1116 0.950 . S
H1142 C1118 0.950 . S
H1143 C1119 0.949 . S
H1144 C1121 0.950 . S
H1145 C1123 0.950 . S
C1146 C1147 1.349 . S
C1146 C1148 1.327 . S
C1146 H1171 0.950 . S
C1147 C1146 1.349 . S
C1147 C1163 1.349 . S
C1148 C1146 1.327 . S
C1148 C1167 1.429 . S
C1148 H1172 0.950 . S
C1149 C1166 1.574 1_556 S
C1149 C1168 1.368 . S
C1149 H1173 0.949 . S
H1150 C1154 0.949 . S
C1151 C1152 1.349 . S
C1151 C1153 1.327 . S
C1151 H1174 0.950 . S
C1152 C1151 1.349 . S
C1152 C1164 1.349 . S
C1153 C1151 1.327 . S
C1153 C1169 1.429 . S
C1153 H1175 0.950 . S
C1154 H1150 0.949 . S
C1154 C1162 1.574 1_554 S
C1154 C1170 1.368 . S
H1155 C1163 0.950 . S
H1156 C1161 0.950 . S
H1157 C1162 0.949 . S
H1158 C1164 0.950 . S
H1159 C1165 0.950 . S
H1160 C1166 0.949 . S
C1161 H1156 0.950 . S
C1161 C1163 1.327 . S
C1161 C1167 1.429 . S
C1162 C1154 1.574 1_556 S
C1162 H1157 0.949 . S
C1162 C1168 1.368 . S
C1163 C1147 1.349 . S
C1163 H1155 0.950 . S
C1163 C1161 1.327 . S
C1164 C1152 1.349 . S
C1164 H1158 0.950 . S
C1164 C1165 1.327 . S
C1165 H1159 0.950 . S
C1165 C1164 1.327 . S
C1165 C1169 1.429 . S
C1166 C1149 1.574 1_554 S
C1166 H1160 0.949 . S
C1166 C1170 1.368 . S
C1167 C1148 1.429 . S
C1167 C1161 1.429 . S
C1167 C1168 1.523 . S
C1168 C1149 1.368 . S
C1168 C1162 1.368 . S
C1168 C1167 1.523 . S
C1169 C1153 1.429 . S
C1169 C1165 1.429 . S
C1169 C1170 1.523 . S
C1170 C1154 1.368 . S
C1170 C1166 1.368 . S
C1170 C1169 1.523 . S
H1171 C1146 0.950 . S
H1172 C1148 0.950 . S
H1173 C1149 0.949 . S
H1174 C1151 0.950 . S
H1175 C1153 0.950 . S
C1176 C1177 1.349 . S
C1176 C1178 1.327 . S
C1176 H1201 0.950 . S
C1177 C1176 1.349 . S
C1177 C1193 1.349 1_565 S
C1178 C1176 1.327 . S
C1178 C1197 1.429 . S
C1178 H1202 0.950 . S
C1179 C1196 1.574 . S
C1179 C1198 1.368 1_545 S
C1179 H1203 0.949 . S
H1180 C1184 0.949 . S
C1181 C1182 1.349 . S
C1181 C1183 1.327 . S
C1181 H1204 0.950 . S
C1182 C1181 1.349 . S
C1182 C1194 1.349 1_545 S
C1183 C1181 1.327 . S
C1183 C1199 1.429 . S
C1183 H1205 0.950 . S
C1184 H1180 0.949 . S
C1184 C1192 1.574 . S
C1184 C1200 1.368 1_565 S
H1185 C1193 0.950 . S
H1186 C1191 0.950 . S
H1187 C1192 0.949 . S
H1188 C1194 0.950 . S
H1189 C1195 0.950 . S
H1190 C1196 0.949 . S
C1191 H1186 0.950 . S
C1191 C1193 1.327 . S
C1191 C1197 1.429 1_545 S
C1192 C1184 1.574 . S
C1192 H1187 0.949 . S
C1192 C1198 1.368 . S
C1193 C1177 1.349 1_545 S
C1193 H1185 0.950 . S
C1193 C1191 1.327 . S
C1194 C1182 1.349 1_565 S
C1194 H1188 0.950 . S
C1194 C1195 1.327 . S
C1195 H1189 0.950 . S
C1195 C1194 1.327 . S
C1195 C1199 1.429 1_565 S
C1196 C1179 1.574 . S
C1196 H1190 0.949 . S
C1196 C1200 1.368 . S
C1197 C1178 1.429 . S
C1197 C1191 1.429 1_565 S
C1197 C1198 1.523 . S
C1198 C1179 1.368 1_565 S
C1198 C1192 1.368 . S
C1198 C1197 1.523 . S
C1199 C1183 1.429 . S
C1199 C1195 1.429 1_545 S
C1199 C1200 1.523 . S
C1200 C1184 1.368 1_545 S
C1200 C1196 1.368 . S
C1200 C1199 1.523 . S
H1201 C1176 0.950 . S
H1202 C1178 0.950 . S
H1203 C1179 0.949 . S
H1204 C1181 0.950 . S
H1205 C1183 0.950 . S
C1206 C1207 1.349 . S
C1206 C1208 1.327 . S
C1206 H1231 0.950 . S
C1207 C1206 1.349 . S
C1207 C1223 1.349 . S
C1208 C1206 1.327 . S
C1208 C1227 1.429 . S
C1208 H1232 0.950 . S
C1209 C1226 1.574 . S
C1209 C1228 1.368 . S
C1209 H1233 0.949 . S
H1210 C1214 0.949 . S
C1211 C1212 1.349 . S
C1211 C1213 1.327 . S
C1211 H1234 0.950 . S
C1212 C1211 1.349 . S
C1212 C1224 1.349 . S
C1213 C1211 1.327 . S
C1213 C1229 1.429 . S
C1213 H1235 0.950 . S
C1214 H1210 0.949 . S
C1214 C1222 1.574 . S
C1214 C1230 1.368 . S
H1215 C1223 0.950 . S
H1216 C1221 0.950 . S
H1217 C1222 0.949 . S
H1218 C1224 0.950 . S
H1219 C1225 0.950 . S
H1220 C1226 0.949 . S
C1221 H1216 0.950 . S
C1221 C1223 1.327 . S
C1221 C1227 1.429 . S
C1222 C1214 1.574 . S
C1222 H1217 0.949 . S
C1222 C1228 1.368 . S
C1223 C1207 1.349 . S
C1223 H1215 0.950 . S
C1223 C1221 1.327 . S
C1224 C1212 1.349 . S
C1224 H1218 0.950 . S
C1224 C1225 1.327 . S
C1225 H1219 0.950 . S
C1225 C1224 1.327 . S
C1225 C1229 1.429 . S
C1226 C1209 1.574 . S
C1226 H1220 0.949 . S
C1226 C1230 1.368 . S
C1227 C1208 1.429 . S
C1227 C1221 1.429 . S
C1227 C1228 1.523 . S
C1228 C1209 1.368 . S
C1228 C1222 1.368 . S
C1228 C1227 1.523 . S
C1229 C1213 1.429 . S
C1229 C1225 1.429 . S
C1229 C1230 1.523 . S
C1230 C1214 1.368 . S
C1230 C1226 1.368 . S
C1230 C1229 1.523 . S
H1231 C1206 0.950 . S
H1232 C1208 0.950 . S
H1233 C1209 0.949 . S
H1234 C1211 0.950 . S
H1235 C1213 0.950 . S
C1236 C1237 1.349 1_565 S
C1236 C1238 1.327 . S
C1236 H1261 0.950 . S
C1237 C1236 1.349 1_545 S
C1237 C1253 1.349 . S
C1238 C1236 1.327 . S
C1238 C1257 1.429 1_565 S
C1238 H1262 0.950 . S
C1239 C1256 1.574 . S
C1239 C1258 1.368 . S
C1239 H1263 0.949 . S
H1240 C1244 0.949 . S
C1241 C1242 1.349 1_545 S
C1241 C1243 1.327 . S
C1241 H1264 0.950 . S
C1242 C1241 1.349 1_565 S
C1242 C1254 1.349 . S
C1243 C1241 1.327 . S
C1243 C1259 1.429 1_545 S
C1243 H1265 0.950 . S
C1244 H1240 0.949 . S
C1244 C1252 1.574 . S
C1244 C1260 1.368 . S
H1245 C1253 0.950 . S
H1246 C1251 0.950 . S
H1247 C1252 0.949 . S
H1248 C1254 0.950 . S
H1249 C1255 0.950 . S
H1250 C1256 0.949 . S
C1251 H1246 0.950 . S
C1251 C1253 1.327 . S
C1251 C1257 1.429 . S
C1252 C1244 1.574 . S
C1252 H1247 0.949 . S
C1252 C1258 1.368 1_565 S
C1253 C1237 1.349 . S
C1253 H1245 0.950 . S
C1253 C1251 1.327 . S
C1254 C1242 1.349 . S
C1254 H1248 0.950 . S
C1254 C1255 1.327 . S
C1255 H1249 0.950 . S
C1255 C1254 1.327 . S
C1255 C1259 1.429 . S
C1256 C1239 1.574 . S
C1256 H1250 0.949 . S
C1256 C1260 1.368 1_545 S
C1257 C1238 1.429 1_545 S
C1257 C1251 1.429 . S
C1257 C1258 1.523 . S
C1258 C1239 1.368 . S
C1258 C1252 1.368 1_545 S
C1258 C1257 1.523 . S
C1259 C1243 1.429 1_565 S
C1259 C1255 1.429 . S
C1259 C1260 1.523 . S
C1260 C1244 1.368 . S
C1260 C1256 1.368 1_565 S
C1260 C1259 1.523 . S
H1261 C1236 0.950 . S
H1262 C1238 0.950 . S
H1263 C1239 0.949 . S
H1264 C1241 0.950 . S
H1265 C1243 0.950 . S
C1266 C1267 1.349 . S
C1266 C1268 1.327 . S
C1266 H1291 0.950 . S
C1267 C1266 1.349 . S
C1267 C1283 1.349 . S
C1268 C1266 1.327 . S
C1268 C1287 1.429 . S
C1268 H1292 0.950 . S
C1269 C1286 1.574 1_556 S
C1269 C1288 1.368 . S
C1269 H1293 0.949 . S
H1270 C1274 0.949 . S
C1271 C1272 1.349 . S
C1271 C1273 1.327 . S
C1271 H1294 0.950 . S
C1272 C1271 1.349 . S
C1272 C1284 1.349 . S
C1273 C1271 1.327 . S
C1273 C1289 1.429 . S
C1273 H1295 0.950 . S
C1274 H1270 0.949 . S
C1274 C1282 1.574 1_554 S
C1274 C1290 1.368 . S
H1275 C1283 0.950 . S
H1276 C1281 0.950 . S
H1277 C1282 0.949 . S
H1278 C1284 0.950 . S
H1279 C1285 0.950 . S
H1280 C1286 0.949 . S
C1281 H1276 0.950 . S
C1281 C1283 1.327 . S
C1281 C1287 1.429 . S
C1282 C1274 1.574 1_556 S
C1282 H1277 0.949 . S
C1282 C1288 1.368 . S
C1283 C1267 1.349 . S
C1283 H1275 0.950 . S
C1283 C1281 1.327 . S
C1284 C1272 1.349 . S
C1284 H1278 0.950 . S
C1284 C1285 1.327 . S
C1285 H1279 0.950 . S
C1285 C1284 1.327 . S
C1285 C1289 1.429 . S
C1286 C1269 1.574 1_554 S
C1286 H1280 0.949 . S
C1286 C1290 1.368 . S
C1287 C1268 1.429 . S
C1287 C1281 1.429 . S
C1287 C1288 1.523 . S
C1288 C1269 1.368 . S
C1288 C1282 1.368 . S
C1288 C1287 1.523 . S
C1289 C1273 1.429 . S
C1289 C1285 1.429 . S
C1289 C1290 1.523 . S
C1290 C1274 1.368 . S
C1290 C1286 1.368 . S
C1290 C1289 1.523 . S
H1291 C1266 0.950 . S
H1292 C1268 0.950 . S
H1293 C1269 0.949 . S
H1294 C1271 0.950 . S
H1295 C1273 0.950 . S
C1296 C1297 1.349 . S
C1296 C1298 1.327 . S
C1296 H1321 0.950 . S
C1297 C1296 1.349 . S
C1297 C1313 1.349 . S
C1298 C1296 1.327 . S
C1298 C1317 1.429 . S
C1298 H1322 0.950 . S
C1299 C1316 1.574 . S
C1299 C1318 1.368 . S
C1299 H1323 0.949 . S
H1300 C1304 0.949 . S
C1301 C1302 1.349 . S
C1301 C1303 1.327 . S
C1301 H1324 0.950 . S
C1302 C1301 1.349 . S
C1302 C1314 1.349 . S
C1303 C1301 1.327 . S
C1303 C1319 1.429 . S
C1303 H1325 0.950 . S
C1304 H1300 0.949 . S
C1304 C1312 1.574 . S
C1304 C1320 1.368 . S
H1305 C1313 0.950 . S
H1306 C1311 0.950 . S
H1307 C1312 0.949 . S
H1308 C1314 0.950 . S
H1309 C1315 0.950 . S
H1310 C1316 0.949 . S
C1311 H1306 0.950 . S
C1311 C1313 1.327 . S
C1311 C1317 1.429 . S
C1312 C1304 1.574 . S
C1312 H1307 0.949 . S
C1312 C1318 1.368 . S
C1313 C1297 1.349 . S
C1313 H1305 0.950 . S
C1313 C1311 1.327 . S
C1314 C1302 1.349 . S
C1314 H1308 0.950 . S
C1314 C1315 1.327 . S
C1315 H1309 0.950 . S
C1315 C1314 1.327 . S
C1315 C1319 1.429 . S
C1316 C1299 1.574 . S
C1316 H1310 0.949 . S
C1316 C1320 1.368 . S
C1317 C1298 1.429 . S
C1317 C1311 1.429 . S
C1317 C1318 1.523 . S
C1318 C1299 1.368 . S
C1318 C1312 1.368 . S
C1318 C1317 1.523 . S
C1319 C1303 1.429 . S
C1319 C1315 1.429 . S
C1319 C1320 1.523 . S
C1320 C1304 1.368 . S
C1320 C1316 1.368 . S
C1320 C1319 1.523 . S
H1321 C1296 0.950 . S
H1322 C1298 0.950 . S
H1323 C1299 0.949 . S
H1324 C1301 0.950 . S
H1325 C1303 0.950 . S
C1326 C1327 1.349 . S
C1326 C1328 1.327 . S
C1326 H1351 0.950 . S
C1327 C1326 1.349 . S
C1327 C1343 1.349 . S
C1328 C1326 1.327 . S
C1328 C1347 1.429 . S
C1328 H1352 0.950 . S
C1329 C1346 1.574 1_556 S
C1329 C1348 1.368 . S
C1329 H1353 0.949 . S
H1330 C1334 0.949 . S
C1331 C1332 1.349 . S
C1331 C1333 1.327 . S
C1331 H1354 0.950 . S
C1332 C1331 1.349 . S
C1332 C1344 1.349 . S
C1333 C1331 1.327 . S
C1333 C1349 1.429 . S
C1333 H1355 0.950 . S
C1334 H1330 0.949 . S
C1334 C1342 1.574 1_554 S
C1334 C1350 1.368 . S
H1335 C1343 0.950 . S
H1336 C1341 0.950 . S
H1337 C1342 0.949 . S
H1338 C1344 0.950 . S
H1339 C1345 0.950 . S
H1340 C1346 0.949 . S
C1341 H1336 0.950 . S
C1341 C1343 1.327 . S
C1341 C1347 1.429 . S
C1342 C1334 1.574 1_556 S
C1342 H1337 0.949 . S
C1342 C1348 1.368 . S
C1343 C1327 1.349 . S
C1343 H1335 0.950 . S
C1343 C1341 1.327 . S
C1344 C1332 1.349 . S
C1344 H1338 0.950 . S
C1344 C1345 1.327 . S
C1345 H1339 0.950 . S
C1345 C1344 1.327 . S
C1345 C1349 1.429 . S
C1346 C1329 1.574 1_554 S
C1346 H1340 0.949 . S
C1346 C1350 1.368 . S
C1347 C1328 1.429 . S
C1347 C1341 1.429 . S
C1347 C1348 1.523 . S
C1348 C1329 1.368 . S
C1348 C1342 1.368 . S
C1348 C1347 1.523 . S
C1349 C1333 1.429 . S
C1349 C1345 1.429 . S
C1349 C1350 1.523 . S
C1350 C1334 1.368 . S
C1350 C1346 1.368 . S
C1350 C1349 1.523 . S
H1351 C1326 0.950 . S
H1352 C1328 0.950 . S
H1353 C1329 0.949 . S
H1354 C1331 0.950 . S
H1355 C1333 0.950 . S
C1356 C1357 1.349 . S
C1356 C1358 1.327 . S
C1356 H1381 0.950 . S
C1357 C1356 1.349 . S
C1357 C1373 1.349 . S
C1358 C1356 1.327 . S
C1358 C1377 1.429 . S
C1358 H1382 0.950 . S
C1359 C1376 1.574 . S
C1359 C1378 1.368 . S
C1359 H1383 0.949 . S
H1360 C1364 0.949 . S
C1361 C1362 1.349 . S
C1361 C1363 1.327 . S
C1361 H1384 0.950 . S
C1362 C1361 1.349 . S
C1362 C1374 1.349 . S
C1363 C1361 1.327 . S
C1363 C1379 1.429 . S
C1363 H1385 0.950 . S
C1364 H1360 0.949 . S
C1364 C1372 1.574 . S
C1364 C1380 1.368 . S
H1365 C1373 0.950 . S
H1366 C1371 0.950 . S
H1367 C1372 0.949 . S
H1368 C1374 0.950 . S
H1369 C1375 0.950 . S
H1370 C1376 0.949 . S
C1371 H1366 0.950 . S
C1371 C1373 1.327 . S
C1371 C1377 1.429 . S
C1372 C1364 1.574 . S
C1372 H1367 0.949 . S
C1372 C1378 1.368 . S
C1373 C1357 1.349 . S
C1373 H1365 0.950 . S
C1373 C1371 1.327 . S
C1374 C1362 1.349 . S
C1374 H1368 0.950 . S
C1374 C1375 1.327 . S
C1375 H1369 0.950 . S
C1375 C1374 1.327 . S
C1375 C1379 1.429 . S
C1376 C1359 1.574 . S
C1376 H1370 0.949 . S
C1376 C1380 1.368 . S
C1377 C1358 1.429 . S
C1377 C1371 1.429 . S
C1377 C1378 1.523 . S
C1378 C1359 1.368 . S
C1378 C1372 1.368 . S
C1378 C1377 1.523 . S
C1379 C1363 1.429 . S
C1379 C1375 1.429 . S
C1379 C1380 1.523 . S
C1380 C1364 1.368 . S
C1380 C1376 1.368 . S
C1380 C1379 1.523 . S
H1381 C1356 0.950 . S
H1382 C1358 0.950 . S
H1383 C1359 0.949 . S
H1384 C1361 0.950 . S
H1385 C1363 0.950 . S
C1386 C1387 1.349 . S
C1386 C1388 1.327 . S
C1386 H1411 0.950 . S
C1387 C1386 1.349 . S
C1387 C1403 1.349 . S
C1388 C1386 1.327 . S
C1388 C1407 1.429 . S
C1388 H1412 0.950 . S
C1389 C1406 1.574 . S
C1389 C1408 1.368 . S
C1389 H1413 0.949 . S
H1390 C1394 0.949 . S
C1391 C1392 1.349 . S
C1391 C1393 1.327 . S
C1391 H1414 0.950 . S
C1392 C1391 1.349 . S
C1392 C1404 1.349 . S
C1393 C1391 1.327 . S
C1393 C1409 1.429 . S
C1393 H1415 0.950 . S
C1394 H1390 0.949 . S
C1394 C1402 1.574 . S
C1394 C1410 1.368 . S
H1395 C1403 0.950 . S
H1396 C1401 0.950 . S
H1397 C1402 0.949 . S
H1398 C1404 0.950 . S
H1399 C1405 0.950 . S
H1400 C1406 0.949 . S
C1401 H1396 0.950 . S
C1401 C1403 1.327 . S
C1401 C1407 1.429 . S
C1402 C1394 1.574 . S
C1402 H1397 0.949 . S
C1402 C1408 1.368 . S
C1403 C1387 1.349 . S
C1403 H1395 0.950 . S
C1403 C1401 1.327 . S
C1404 C1392 1.349 . S
C1404 H1398 0.950 . S
C1404 C1405 1.327 . S
C1405 H1399 0.950 . S
C1405 C1404 1.327 . S
C1405 C1409 1.429 . S
C1406 C1389 1.574 . S
C1406 H1400 0.949 . S
C1406 C1410 1.368 . S
C1407 C1388 1.429 . S
C1407 C1401 1.429 . S
C1407 C1408 1.523 . S
C1408 C1389 1.368 . S
C1408 C1402 1.368 . S
C1408 C1407 1.523 . S
C1409 C1393 1.429 . S
C1409 C1405 1.429 . S
C1409 C1410 1.523 . S
C1410 C1394 1.368 . S
C1410 C1406 1.368 . S
C1410 C1409 1.523 . S
H1411 C1386 0.950 . S
H1412 C1388 0.950 . S
H1413 C1389 0.949 . S
H1414 C1391 0.950 . S
H1415 C1393 0.950 . S
C1416 C1417 1.349 . S
C1416 C1418 1.327 . S
C1416 H1441 0.950 . S
C1417 C1416 1.349 . S
C1417 C1433 1.349 . S
C1418 C1416 1.327 . S
C1418 C1437 1.429 . S
C1418 H1442 0.950 . S
C1419 C1436 1.574 . S
C1419 C1438 1.368 . S
C1419 H1443 0.949 . S
H1420 C1424 0.949 . S
C1421 C1422 1.349 . S
C1421 C1423 1.327 . S
C1421 H1444 0.950 . S
C1422 C1421 1.349 . S
C1422 C1434 1.349 . S
C1423 C1421 1.327 . S
C1423 C1439 1.429 . S
C1423 H1445 0.950 . S
C1424 H1420 0.949 . S
C1424 C1432 1.574 . S
C1424 C1440 1.368 . S
H1425 C1433 0.950 . S
H1426 C1431 0.950 . S
H1427 C1432 0.949 . S
H1428 C1434 0.950 . S
H1429 C1435 0.950 . S
H1430 C1436 0.949 . S
C1431 H1426 0.950 . S
C1431 C1433 1.327 . S
C1431 C1437 1.429 . S
C1432 C1424 1.574 . S
C1432 H1427 0.949 . S
C1432 C1438 1.368 . S
C1433 C1417 1.349 . S
C1433 H1425 0.950 . S
C1433 C1431 1.327 . S
C1434 C1422 1.349 . S
C1434 H1428 0.950 . S
C1434 C1435 1.327 . S
C1435 H1429 0.950 . S
C1435 C1434 1.327 . S
C1435 C1439 1.429 . S
C1436 C1419 1.574 . S
C1436 H1430 0.949 . S
C1436 C1440 1.368 . S
C1437 C1418 1.429 . S
C1437 C1431 1.429 . S
C1437 C1438 1.523 . S
C1438 C1419 1.368 . S
C1438 C1432 1.368 . S
C1438 C1437 1.523 . S
C1439 C1423 1.429 . S
C1439 C1435 1.429 . S
C1439 C1440 1.523 . S
C1440 C1424 1.368 . S
C1440 C1436 1.368 . S
C1440 C1439 1.523 . S
H1441 C1416 0.950 . S
H1442 C1418 0.950 . S
H1443 C1419 0.949 . S
H1444 C1421 0.950 . S
H1445 C1423 0.950 . S
C1446 C1447 1.349 . S
C1446 C1448 1.327 . S
C1446 H1471 0.950 . S
C1447 C1446 1.349 . S
C1447 C1463 1.349 . S
C1448 C1446 1.327 . S
C1448 C1467 1.429 . S
C1448 H1472 0.950 . S
C1449 C1466 1.574 1_554 S
C1449 C1468 1.368 . S
C1449 H1473 0.949 . S
H1450 C1454 0.949 . S
C1451 C1452 1.349 . S
C1451 C1453 1.327 . S
C1451 H1474 0.950 . S
C1452 C1451 1.349 . S
C1452 C1464 1.349 . S
C1453 C1451 1.327 . S
C1453 C1469 1.429 . S
C1453 H1475 0.950 . S
C1454 H1450 0.949 . S
C1454 C1462 1.574 1_556 S
C1454 C1470 1.368 . S
H1455 C1463 0.950 . S
H1456 C1461 0.950 . S
H1457 C1462 0.949 . S
H1458 C1464 0.950 . S
H1459 C1465 0.950 . S
H1460 C1466 0.949 . S
C1461 H1456 0.950 . S
C1461 C1463 1.327 . S
C1461 C1467 1.429 . S
C1462 C1454 1.574 1_554 S
C1462 H1457 0.949 . S
C1462 C1468 1.368 . S
C1463 C1447 1.349 . S
C1463 H1455 0.950 . S
C1463 C1461 1.327 . S
C1464 C1452 1.349 . S
C1464 H1458 0.950 . S
C1464 C1465 1.327 . S
C1465 H1459 0.950 . S
C1465 C1464 1.327 . S
C1465 C1469 1.429 . S
C1466 C1449 1.574 1_556 S
C1466 H1460 0.949 . S
C1466 C1470 1.368 . S
C1467 C1448 1.429 . S
C1467 C1461 1.429 . S
C1467 C1468 1.523 . S
C1468 C1449 1.368 . S
C1468 C1462 1.368 . S
C1468 C1467 1.523 . S
C1469 C1453 1.429 . S
C1469 C1465 1.429 . S
C1469 C1470 1.523 . S
C1470 C1454 1.368 . S
C1470 C1466 1.368 . S
C1470 C1469 1.523 . S
H1471 C1446 0.950 . S
H1472 C1448 0.950 . S
H1473 C1449 0.949 . S
H1474 C1451 0.950 . S
H1475 C1453 0.950 . S
C1476 C1477 1.349 . S
C1476 C1478 1.327 . S
C1476 H1501 0.950 . S
C1477 C1476 1.349 . S
C1477 C1493 1.349 . S
C1478 C1476 1.327 . S
C1478 C1497 1.429 . S
C1478 H1502 0.950 . S
C1479 C1496 1.574 . S
C1479 C1498 1.368 . S
C1479 H1503 0.949 . S
H1480 C1484 0.949 . S
C1481 C1482 1.349 . S
C1481 C1483 1.327 . S
C1481 H1504 0.950 . S
C1482 C1481 1.349 . S
C1482 C1494 1.349 . S
C1483 C1481 1.327 . S
C1483 C1499 1.429 . S
C1483 H1505 0.950 . S
C1484 H1480 0.949 . S
C1484 C1492 1.574 . S
C1484 C1500 1.368 . S
H1485 C1493 0.950 . S
H1486 C1491 0.950 . S
H1487 C1492 0.949 . S
H1488 C1494 0.950 . S
H1489 C1495 0.950 . S
H1490 C1496 0.949 . S
C1491 H1486 0.950 . S
C1491 C1493 1.327 . S
C1491 C1497 1.429 . S
C1492 C1484 1.574 . S
C1492 H1487 0.949 . S
C1492 C1498 1.368 . S
C1493 C1477 1.349 . S
C1493 H1485 0.950 . S
C1493 C1491 1.327 . S
C1494 C1482 1.349 . S
C1494 H1488 0.950 . S
C1494 C1495 1.327 . S
C1495 H1489 0.950 . S
C1495 C1494 1.327 . S
C1495 C1499 1.429 . S
C1496 C1479 1.574 . S
C1496 H1490 0.949 . S
C1496 C1500 1.368 . S
C1497 C1478 1.429 . S
C1497 C1491 1.429 . S
C1497 C1498 1.523 . S
C1498 C1479 1.368 . S
C1498 C1492 1.368 . S
C1498 C1497 1.523 . S
C1499 C1483 1.429 . S
C1499 C1495 1.429 . S
C1499 C1500 1.523 . S
C1500 C1484 1.368 . S
C1500 C1496 1.368 . S
C1500 C1499 1.523 . S
H1501 C1476 0.950 . S
H1502 C1478 0.950 . S
H1503 C1479 0.949 . S
H1504 C1481 0.950 . S
H1505 C1483 0.950 . S
C1506 C1507 1.349 . S
C1506 C1508 1.327 . S
C1506 H1531 0.950 . S
C1507 C1506 1.349 . S
C1507 C1523 1.349 . S
C1508 C1506 1.327 . S
C1508 C1527 1.429 . S
C1508 H1532 0.950 . S
C1509 C1526 1.574 . S
C1509 C1528 1.368 . S
C1509 H1533 0.949 . S
H1510 C1514 0.949 . S
C1511 C1512 1.349 . S
C1511 C1513 1.327 . S
C1511 H1534 0.950 . S
C1512 C1511 1.349 . S
C1512 C1524 1.349 . S
C1513 C1511 1.327 . S
C1513 C1529 1.429 . S
C1513 H1535 0.950 . S
C1514 H1510 0.949 . S
C1514 C1522 1.574 . S
C1514 C1530 1.368 . S
H1515 C1523 0.950 . S
H1516 C1521 0.950 . S
H1517 C1522 0.949 . S
H1518 C1524 0.950 . S
H1519 C1525 0.950 . S
H1520 C1526 0.949 . S
C1521 H1516 0.950 . S
C1521 C1523 1.327 . S
C1521 C1527 1.429 . S
C1522 C1514 1.574 . S
C1522 H1517 0.949 . S
C1522 C1528 1.368 . S
C1523 C1507 1.349 . S
C1523 H1515 0.950 . S
C1523 C1521 1.327 . S
C1524 C1512 1.349 . S
C1524 H1518 0.950 . S
C1524 C1525 1.327 . S
C1525 H1519 0.950 . S
C1525 C1524 1.327 . S
C1525 C1529 1.429 . S
C1526 C1509 1.574 . S
C1526 H1520 0.949 . S
C1526 C1530 1.368 . S
C1527 C1508 1.429 . S
C1527 C1521 1.429 . S
C1527 C1528 1.523 . S
C1528 C1509 1.368 . S
C1528 C1522 1.368 . S
C1528 C1527 1.523 . S
C1529 C1513 1.429 . S
C1529 C1525 1.429 . S
C1529 C1530 1.523 . S
C1530 C1514 1.368 . S
C1530 C1526 1.368 . S
C1530 C1529 1.523 . S
H1531 C1506 0.950 . S
H1532 C1508 0.950 . S
H1533 C1509 0.949 . S
H1534 C1511 0.950 . S
H1535 C1513 0.950 . S
C1536 C1537 1.349 . S
C1536 C1538 1.327 . S
C1536 H1561 0.950 . S
C1537 C1536 1.349 . S
C1537 C1553 1.349 . S
C1538 C1536 1.327 . S
C1538 C1557 1.429 . S
C1538 H1562 0.950 . S
C1539 C1556 1.574 . S
C1539 C1558 1.368 . S
C1539 H1563 0.949 . S
H1540 C1544 0.949 . S
C1541 C1542 1.349 . S
C1541 C1543 1.327 . S
C1541 H1564 0.950 . S
C1542 C1541 1.349 . S
C1542 C1554 1.349 . S
C1543 C1541 1.327 . S
C1543 C1559 1.429 . S
C1543 H1565 0.950 . S
C1544 H1540 0.949 . S
C1544 C1552 1.574 . S
C1544 C1560 1.368 . S
H1545 C1553 0.950 . S
H1546 C1551 0.950 . S
H1547 C1552 0.949 . S
H1548 C1554 0.950 . S
H1549 C1555 0.950 . S
H1550 C1556 0.949 . S
C1551 H1546 0.950 . S
C1551 C1553 1.327 . S
C1551 C1557 1.429 . S
C1552 C1544 1.574 . S
C1552 H1547 0.949 . S
C1552 C1558 1.368 1_655 S
C1553 C1537 1.349 . S
C1553 H1545 0.950 . S
C1553 C1551 1.327 . S
C1554 C1542 1.349 . S
C1554 H1548 0.950 . S
C1554 C1555 1.327 . S
C1555 H1549 0.950 . S
C1555 C1554 1.327 . S
C1555 C1559 1.429 . S
C1556 C1539 1.574 . S
C1556 H1550 0.949 . S
C1556 C1560 1.368 1_455 S
C1557 C1538 1.429 . S
C1557 C1551 1.429 . S
C1557 C1558 1.523 . S
C1558 C1539 1.368 . S
C1558 C1552 1.368 1_455 S
C1558 C1557 1.523 . S
C1559 C1543 1.429 . S
C1559 C1555 1.429 . S
C1559 C1560 1.523 . S
C1560 C1544 1.368 . S
C1560 C1556 1.368 1_655 S
C1560 C1559 1.523 . S
H1561 C1536 0.950 . S
H1562 C1538 0.950 . S
H1563 C1539 0.949 . S
H1564 C1541 0.950 . S
H1565 C1543 0.950 . S
C1566 C1567 1.349 . S
C1566 C1568 1.327 . S
C1566 H1591 0.950 . S
C1567 C1566 1.349 . S
C1567 C1583 1.349 . S
C1568 C1566 1.327 . S
C1568 C1587 1.429 . S
C1568 H1592 0.950 . S
C1569 C1586 1.574 1_455 S
C1569 C1588 1.368 . S
C1569 H1593 0.949 . S
H1570 C1574 0.949 . S
C1571 C1572 1.349 . S
C1571 C1573 1.327 . S
C1571 H1594 0.950 . S
C1572 C1571 1.349 . S
C1572 C1584 1.349 . S
C1573 C1571 1.327 . S
C1573 C1589 1.429 . S
C1573 H1595 0.950 . S
C1574 H1570 0.949 . S
C1574 C1582 1.574 1_655 S
C1574 C1590 1.368 . S
H1575 C1583 0.950 . S
H1576 C1581 0.950 . S
H1577 C1582 0.949 . S
H1578 C1584 0.950 . S
H1579 C1585 0.950 . S
H1580 C1586 0.949 . S
C1581 H1576 0.950 . S
C1581 C1583 1.327 . S
C1581 C1587 1.429 . S
C1582 C1574 1.574 1_455 S
C1582 H1577 0.949 . S
C1582 C1588 1.368 . S
C1583 C1567 1.349 . S
C1583 H1575 0.950 . S
C1583 C1581 1.327 . S
C1584 C1572 1.349 . S
C1584 H1578 0.950 . S
C1584 C1585 1.327 . S
C1585 H1579 0.950 . S
C1585 C1584 1.327 . S
C1585 C1589 1.429 . S
C1586 C1569 1.574 1_655 S
C1586 H1580 0.949 . S
C1586 C1590 1.368 . S
C1587 C1568 1.429 . S
C1587 C1581 1.429 . S
C1587 C1588 1.523 . S
C1588 C1569 1.368 . S
C1588 C1582 1.368 . S
C1588 C1587 1.523 . S
C1589 C1573 1.429 . S
C1589 C1585 1.429 . S
C1589 C1590 1.523 . S
C1590 C1574 1.368 . S
C1590 C1586 1.368 . S
C1590 C1589 1.523 . S
H1591 C1566 0.950 . S
H1592 C1568 0.950 . S
H1593 C1569 0.949 . S
H1594 C1571 0.950 . S
H1595 C1573 0.950 . S
C1596 C1597 1.349 . S
C1596 C1598 1.327 . S
C1596 H1621 0.950 . S
C1597 C1596 1.349 . S
C1597 C1613 1.349 . S
C1598 C1596 1.327 . S
C1598 C1617 1.429 . S
C1598 H1622 0.950 . S
C1599 C1616 1.574 . S
C1599 C1618 1.368 . S
C1599 H1623 0.949 . S
H1600 C1604 0.949 . S
C1601 C1602 1.349 . S
C1601 C1603 1.327 . S
C1601 H1624 0.950 . S
C1602 C1601 1.349 . S
C1602 C1614 1.349 . S
C1603 C1601 1.327 . S
C1603 C1619 1.429 . S
C1603 H1625 0.950 . S
C1604 H1600 0.949 . S
C1604 C1612 1.574 . S
C1604 C1620 1.368 . S
H1605 C1613 0.950 . S
H1606 C1611 0.950 . S
H1607 C1612 0.949 . S
H1608 C1614 0.950 . S
H1609 C1615 0.950 . S
H1610 C1616 0.949 . S
C1611 H1606 0.950 . S
C1611 C1613 1.327 . S
C1611 C1617 1.429 . S
C1612 C1604 1.574 . S
C1612 H1607 0.949 . S
C1612 C1618 1.368 . S
C1613 C1597 1.349 . S
C1613 H1605 0.950 . S
C1613 C1611 1.327 . S
C1614 C1602 1.349 . S
C1614 H1608 0.950 . S
C1614 C1615 1.327 . S
C1615 H1609 0.950 . S
C1615 C1614 1.327 . S
C1615 C1619 1.429 . S
C1616 C1599 1.574 . S
C1616 H1610 0.949 . S
C1616 C1620 1.368 . S
C1617 C1598 1.429 . S
C1617 C1611 1.429 . S
C1617 C1618 1.523 . S
C1618 C1599 1.368 . S
C1618 C1612 1.368 . S
C1618 C1617 1.523 . S
C1619 C1603 1.429 . S
C1619 C1615 1.429 . S
C1619 C1620 1.523 . S
C1620 C1604 1.368 . S
C1620 C1616 1.368 . S
C1620 C1619 1.523 . S
H1621 C1596 0.950 . S
H1622 C1598 0.950 . S
H1623 C1599 0.949 . S
H1624 C1601 0.950 . S
H1625 C1603 0.950 . S
C1626 C1627 1.349 . S
C1626 C1628 1.327 . S
C1626 H1651 0.950 . S
C1627 C1626 1.349 . S
C1627 C1643 1.349 . S
C1628 C1626 1.327 . S
C1628 C1647 1.429 . S
C1628 H1652 0.950 . S
C1629 C1646 1.574 . S
C1629 C1648 1.368 . S
C1629 H1653 0.949 . S
H1630 C1634 0.949 . S
C1631 C1632 1.349 . S
C1631 C1633 1.327 . S
C1631 H1654 0.950 . S
C1632 C1631 1.349 . S
C1632 C1644 1.349 . S
C1633 C1631 1.327 . S
C1633 C1649 1.429 . S
C1633 H1655 0.950 . S
C1634 H1630 0.949 . S
C1634 C1642 1.574 . S
C1634 C1650 1.368 . S
H1635 C1643 0.950 . S
H1636 C1641 0.950 . S
H1637 C1642 0.949 . S
H1638 C1644 0.950 . S
H1639 C1645 0.950 . S
H1640 C1646 0.949 . S
C1641 H1636 0.950 . S
C1641 C1643 1.327 . S
C1641 C1647 1.429 . S
C1642 C1634 1.574 . S
C1642 H1637 0.949 . S
C1642 C1648 1.368 . S
C1643 C1627 1.349 . S
C1643 H1635 0.950 . S
C1643 C1641 1.327 . S
C1644 C1632 1.349 . S
C1644 H1638 0.950 . S
C1644 C1645 1.327 . S
C1645 H1639 0.950 . S
C1645 C1644 1.327 . S
C1645 C1649 1.429 . S
C1646 C1629 1.574 . S
C1646 H1640 0.949 . S
C1646 C1650 1.368 . S
C1647 C1628 1.429 . S
C1647 C1641 1.429 . S
C1647 C1648 1.523 . S
C1648 C1629 1.368 . S
C1648 C1642 1.368 . S
C1648 C1647 1.523 . S
C1649 C1633 1.429 . S
C1649 C1645 1.429 . S
C1649 C1650 1.523 . S
C1650 C1634 1.368 . S
C1650 C1646 1.368 . S
C1650 C1649 1.523 . S
H1651 C1626 0.950 . S
H1652 C1628 0.950 . S
H1653 C1629 0.949 . S
H1654 C1631 0.950 . S
H1655 C1633 0.950 . S
C1656 C1657 1.349 . S
C1656 C1658 1.327 . S
C1656 H1681 0.950 . S
C1657 C1656 1.349 . S
C1657 C1673 1.349 . S
C1658 C1656 1.327 . S
C1658 C1677 1.429 . S
C1658 H1682 0.950 . S
C1659 C1676 1.574 . S
C1659 C1678 1.368 1_655 S
C1659 H1683 0.949 . S
H1660 C1664 0.949 . S
C1661 C1662 1.349 . S
C1661 C1663 1.327 . S
C1661 H1684 0.950 . S
C1662 C1661 1.349 . S
C1662 C1674 1.349 . S
C1663 C1661 1.327 . S
C1663 C1679 1.429 . S
C1663 H1685 0.950 . S
C1664 H1660 0.949 . S
C1664 C1672 1.574 . S
C1664 C1680 1.368 1_455 S
H1665 C1673 0.950 . S
H1666 C1671 0.950 . S
H1667 C1672 0.949 . S
H1668 C1674 0.950 . S
H1669 C1675 0.950 . S
H1670 C1676 0.949 . S
C1671 H1666 0.950 . S
C1671 C1673 1.327 . S
C1671 C1677 1.429 . S
C1672 C1664 1.574 . S
C1672 H1667 0.949 . S
C1672 C1678 1.368 . S
C1673 C1657 1.349 . S
C1673 H1665 0.950 . S
C1673 C1671 1.327 . S
C1674 C1662 1.349 . S
C1674 H1668 0.950 . S
C1674 C1675 1.327 . S
C1675 H1669 0.950 . S
C1675 C1674 1.327 . S
C1675 C1679 1.429 . S
C1676 C1659 1.574 . S
C1676 H1670 0.949 . S
C1676 C1680 1.368 . S
C1677 C1658 1.429 . S
C1677 C1671 1.429 . S
C1677 C1678 1.523 . S
C1678 C1659 1.368 1_455 S
C1678 C1672 1.368 . S
C1678 C1677 1.523 . S
C1679 C1663 1.429 . S
C1679 C1675 1.429 . S
C1679 C1680 1.523 . S
C1680 C1664 1.368 1_655 S
C1680 C1676 1.368 . S
C1680 C1679 1.523 . S
H1681 C1656 0.950 . S
H1682 C1658 0.950 . S
H1683 C1659 0.949 . S
H1684 C1661 0.950 . S
H1685 C1663 0.950 . S
C1686 C1687 1.349 . S
C1686 C1688 1.327 . S
C1686 H1711 0.950 . S
C1687 C1686 1.349 . S
C1687 C1703 1.349 . S
C1688 C1686 1.327 . S
C1688 C1707 1.429 . S
C1688 H1712 0.950 . S
C1689 C1706 1.574 . S
C1689 C1708 1.368 . S
C1689 H1713 0.949 . S
H1690 C1694 0.949 . S
C1691 C1692 1.349 . S
C1691 C1693 1.327 . S
C1691 H1714 0.950 . S
C1692 C1691 1.349 . S
C1692 C1704 1.349 . S
C1693 C1691 1.327 . S
C1693 C1709 1.429 . S
C1693 H1715 0.950 . S
C1694 H1690 0.949 . S
C1694 C1702 1.574 . S
C1694 C1710 1.368 . S
H1695 C1703 0.950 . S
H1696 C1701 0.950 . S
H1697 C1702 0.949 . S
H1698 C1704 0.950 . S
H1699 C1705 0.950 . S
H1700 C1706 0.949 . S
C1701 H1696 0.950 . S
C1701 C1703 1.327 . S
C1701 C1707 1.429 . S
C1702 C1694 1.574 . S
C1702 H1697 0.949 . S
C1702 C1708 1.368 . S
C1703 C1687 1.349 . S
C1703 H1695 0.950 . S
C1703 C1701 1.327 . S
C1704 C1692 1.349 . S
C1704 H1698 0.950 . S
C1704 C1705 1.327 . S
C1705 H1699 0.950 . S
C1705 C1704 1.327 . S
C1705 C1709 1.429 . S
C1706 C1689 1.574 . S
C1706 H1700 0.949 . S
C1706 C1710 1.368 . S
C1707 C1688 1.429 . S
C1707 C1701 1.429 . S
C1707 C1708 1.523 . S
C1708 C1689 1.368 . S
C1708 C1702 1.368 . S
C1708 C1707 1.523 . S
C1709 C1693 1.429 . S
C1709 C1705 1.429 . S
C1709 C1710 1.523 . S
C1710 C1694 1.368 . S
C1710 C1706 1.368 . S
C1710 C1709 1.523 . S
H1711 C1686 0.950 . S
H1712 C1688 0.950 . S
H1713 C1689 0.949 . S
H1714 C1691 0.950 . S
H1715 C1693 0.950 . S
C1716 C1717 1.349 . S
C1716 C1718 1.327 . S
C1716 H1741 0.950 . S
C1717 C1716 1.349 . S
C1717 C1733 1.349 . S
C1718 C1716 1.327 . S
C1718 C1737 1.429 . S
C1718 H1742 0.950 . S
C1719 C1736 1.574 . S
C1719 C1738 1.368 . S
C1719 H1743 0.949 . S
H1720 C1724 0.949 . S
C1721 C1722 1.349 . S
C1721 C1723 1.327 . S
C1721 H1744 0.950 . S
C1722 C1721 1.349 . S
C1722 C1734 1.349 . S
C1723 C1721 1.327 . S
C1723 C1739 1.429 . S
C1723 H1745 0.950 . S
C1724 H1720 0.949 . S
C1724 C1732 1.574 . S
C1724 C1740 1.368 . S
H1725 C1733 0.950 . S
H1726 C1731 0.950 . S
H1727 C1732 0.949 . S
H1728 C1734 0.950 . S
H1729 C1735 0.950 . S
H1730 C1736 0.949 . S
C1731 H1726 0.950 . S
C1731 C1733 1.327 . S
C1731 C1737 1.429 . S
C1732 C1724 1.574 . S
C1732 H1727 0.949 . S
C1732 C1738 1.368 . S
C1733 C1717 1.349 . S
C1733 H1725 0.950 . S
C1733 C1731 1.327 . S
C1734 C1722 1.349 . S
C1734 H1728 0.950 . S
C1734 C1735 1.327 . S
C1735 H1729 0.950 . S
C1735 C1734 1.327 . S
C1735 C1739 1.429 . S
C1736 C1719 1.574 . S
C1736 H1730 0.949 . S
C1736 C1740 1.368 . S
C1737 C1718 1.429 . S
C1737 C1731 1.429 . S
C1737 C1738 1.523 . S
C1738 C1719 1.368 . S
C1738 C1732 1.368 . S
C1738 C1737 1.523 . S
C1739 C1723 1.429 . S
C1739 C1735 1.429 . S
C1739 C1740 1.523 . S
C1740 C1724 1.368 . S
C1740 C1736 1.368 . S
C1740 C1739 1.523 . S
H1741 C1716 0.950 . S
H1742 C1718 0.950 . S
H1743 C1719 0.949 . S
H1744 C1721 0.950 . S
H1745 C1723 0.950 . S
C1746 C1747 1.349 . S
C1746 C1748 1.327 . S
C1746 H1771 0.950 . S
C1747 C1746 1.349 . S
C1747 C1763 1.349 . S
C1748 C1746 1.327 . S
C1748 C1767 1.429 . S
C1748 H1772 0.950 . S
C1749 C1766 1.574 1_455 S
C1749 C1768 1.368 . S
C1749 H1773 0.949 . S
H1750 C1754 0.949 . S
C1751 C1752 1.349 . S
C1751 C1753 1.327 . S
C1751 H1774 0.950 . S
C1752 C1751 1.349 . S
C1752 C1764 1.349 . S
C1753 C1751 1.327 . S
C1753 C1769 1.429 . S
C1753 H1775 0.950 . S
C1754 H1750 0.949 . S
C1754 C1762 1.574 1_655 S
C1754 C1770 1.368 . S
H1755 C1763 0.950 . S
H1756 C1761 0.950 . S
H1757 C1762 0.949 . S
H1758 C1764 0.950 . S
H1759 C1765 0.950 . S
H1760 C1766 0.949 . S
C1761 H1756 0.950 . S
C1761 C1763 1.327 . S
C1761 C1767 1.429 . S
C1762 C1754 1.574 1_455 S
C1762 H1757 0.949 . S
C1762 C1768 1.368 . S
C1763 C1747 1.349 . S
C1763 H1755 0.950 . S
C1763 C1761 1.327 . S
C1764 C1752 1.349 . S
C1764 H1758 0.950 . S
C1764 C1765 1.327 . S
C1765 H1759 0.950 . S
C1765 C1764 1.327 . S
C1765 C1769 1.429 . S
C1766 C1749 1.574 1_655 S
C1766 H1760 0.949 . S
C1766 C1770 1.368 . S
C1767 C1748 1.429 . S
C1767 C1761 1.429 . S
C1767 C1768 1.523 . S
C1768 C1749 1.368 . S
C1768 C1762 1.368 . S
C1768 C1767 1.523 . S
C1769 C1753 1.429 . S
C1769 C1765 1.429 . S
C1769 C1770 1.523 . S
C1770 C1754 1.368 . S
C1770 C1766 1.368 . S
C1770 C1769 1.523 . S
H1771 C1746 0.950 . S
H1772 C1748 0.950 . S
H1773 C1749 0.949 . S
H1774 C1751 0.950 . S
H1775 C1753 0.950 . S
C1776 C1777 1.349 . S
C1776 C1778 1.327 . S
C1776 H1801 0.950 . S
C1777 C1776 1.349 . S
C1777 C1793 1.349 . S
C1778 C1776 1.327 . S
C1778 C1797 1.429 . S
C1778 H1802 0.950 . S
C1779 C1796 1.574 . S
C1779 C1798 1.368 1_655 S
C1779 H1803 0.949 . S
H1780 C1784 0.949 . S
C1781 C1782 1.349 . S
C1781 C1783 1.327 . S
C1781 H1804 0.950 . S
C1782 C1781 1.349 . S
C1782 C1794 1.349 . S
C1783 C1781 1.327 . S
C1783 C1799 1.429 . S
C1783 H1805 0.950 . S
C1784 H1780 0.949 . S
C1784 C1792 1.574 . S
C1784 C1800 1.368 1_455 S
H1785 C1793 0.950 . S
H1786 C1791 0.950 . S
H1787 C1792 0.949 . S
H1788 C1794 0.950 . S
H1789 C1795 0.950 . S
H1790 C1796 0.949 . S
C1791 H1786 0.950 . S
C1791 C1793 1.327 . S
C1791 C1797 1.429 . S
C1792 C1784 1.574 . S
C1792 H1787 0.949 . S
C1792 C1798 1.368 . S
C1793 C1777 1.349 . S
C1793 H1785 0.950 . S
C1793 C1791 1.327 . S
C1794 C1782 1.349 . S
C1794 H1788 0.950 . S
C1794 C1795 1.327 . S
C1795 H1789 0.950 . S
C1795 C1794 1.327 . S
C1795 C1799 1.429 . S
C1796 C1779 1.574 . S
C1796 H1790 0.949 . S
C1796 C1800 1.368 . S
C1797 C1778 1.429 . S
C1797 C1791 1.429 . S
C1797 C1798 1.523 . S
C1798 C1779 1.368 1_455 S
C1798 C1792 1.368 . S
C1798 C1797 1.523 . S
C1799 C1783 1.429 . S
C1799 C1795 1.429 . S
C1799 C1800 1.523 . S
C1800 C1784 1.368 1_655 S
C1800 C1796 1.368 . S
C1800 C1799 1.523 . S
H1801 C1776 0.950 . S
H1802 C1778 0.950 . S
H1803 C1779 0.949 . S
H1804 C1781 0.950 . S
H1805 C1783 0.950 . S
C1806 C1807 1.349 . S
C1806 C1808 1.327 . S
C1806 H1831 0.950 . S
C1807 C1806 1.349 . S
C1807 C1823 1.349 . S
C1808 C1806 1.327 . S
C1808 C1827 1.429 . S
C1808 H1832 0.950 . S
C1809 C1826 1.574 1_655 S
C1809 C1828 1.368 . S
C1809 H1833 0.949 . S
H1810 C1814 0.949 . S
C1811 C1812 1.349 . S
C1811 C1813 1.327 . S
C1811 H1834 0.950 . S
C1812 C1811 1.349 . S
C1812 C1824 1.349 . S
C1813 C1811 1.327 . S
C1813 C1829 1.429 . S
C1813 H1835 0.950 . S
C1814 H1810 0.949 . S
C1814 C1822 1.574 1_455 S
C1814 C1830 1.368 . S
H1815 C1823 0.950 . S
H1816 C1821 0.950 . S
H1817 C1822 0.949 . S
H1818 C1824 0.950 . S
H1819 C1825 0.950 . S
H1820 C1826 0.949 . S
C1821 H1816 0.950 . S
C1821 C1823 1.327 . S
C1821 C1827 1.429 . S
C1822 C1814 1.574 1_655 S
C1822 H1817 0.949 . S
C1822 C1828 1.368 . S
C1823 C1807 1.349 . S
C1823 H1815 0.950 . S
C1823 C1821 1.327 . S
C1824 C1812 1.349 . S
C1824 H1818 0.950 . S
C1824 C1825 1.327 . S
C1825 H1819 0.950 . S
C1825 C1824 1.327 . S
C1825 C1829 1.429 . S
C1826 C1809 1.574 1_455 S
C1826 H1820 0.949 . S
C1826 C1830 1.368 . S
C1827 C1808 1.429 . S
C1827 C1821 1.429 . S
C1827 C1828 1.523 . S
C1828 C1809 1.368 . S
C1828 C1822 1.368 . S
C1828 C1827 1.523 . S
C1829 C1813 1.429 . S
C1829 C1825 1.429 . S
C1829 C1830 1.523 . S
C1830 C1814 1.368 . S
C1830 C1826 1.368 . S
C1830 C1829 1.523 . S
H1831 C1806 0.950 . S
H1832 C1808 0.950 . S
H1833 C1809 0.949 . S
H1834 C1811 0.950 . S
H1835 C1813 0.950 . S
C1836 C1837 1.349 . S
C1836 C1838 1.327 . S
C1836 H1861 0.950 . S
C1837 C1836 1.349 . S
C1837 C1853 1.349 . S
C1838 C1836 1.327 . S
C1838 C1857 1.429 . S
C1838 H1862 0.950 . S
C1839 C1856 1.574 . S
C1839 C1858 1.368 . S
C1839 H1863 0.949 . S
H1840 C1844 0.949 . S
C1841 C1842 1.349 . S
C1841 C1843 1.327 . S
C1841 H1864 0.950 . S
C1842 C1841 1.349 . S
C1842 C1854 1.349 . S
C1843 C1841 1.327 . S
C1843 C1859 1.429 . S
C1843 H1865 0.950 . S
C1844 H1840 0.949 . S
C1844 C1852 1.574 . S
C1844 C1860 1.368 . S
H1845 C1853 0.950 . S
H1846 C1851 0.950 . S
H1847 C1852 0.949 . S
H1848 C1854 0.950 . S
H1849 C1855 0.950 . S
H1850 C1856 0.949 . S
C1851 H1846 0.950 . S
C1851 C1853 1.327 . S
C1851 C1857 1.429 . S
C1852 C1844 1.574 . S
C1852 H1847 0.949 . S
C1852 C1858 1.368 . S
C1853 C1837 1.349 . S
C1853 H1845 0.950 . S
C1853 C1851 1.327 . S
C1854 C1842 1.349 . S
C1854 H1848 0.950 . S
C1854 C1855 1.327 . S
C1855 H1849 0.950 . S
C1855 C1854 1.327 . S
C1855 C1859 1.429 . S
C1856 C1839 1.574 . S
C1856 H1850 0.949 . S
C1856 C1860 1.368 . S
C1857 C1838 1.429 . S
C1857 C1851 1.429 . S
C1857 C1858 1.523 . S
C1858 C1839 1.368 . S
C1858 C1852 1.368 . S
C1858 C1857 1.523 . S
C1859 C1843 1.429 . S
C1859 C1855 1.429 . S
C1859 C1860 1.523 . S
C1860 C1844 1.368 . S
C1860 C1856 1.368 . S
C1860 C1859 1.523 . S
H1861 C1836 0.950 . S
H1862 C1838 0.950 . S
H1863 C1839 0.949 . S
H1864 C1841 0.950 . S
H1865 C1843 0.950 . S
C1866 C1867 1.349 . S
C1866 C1868 1.327 . S
C1866 H1891 0.950 . S
C1867 C1866 1.349 . S
C1867 C1883 1.349 . S
C1868 C1866 1.327 . S
C1868 C1887 1.429 . S
C1868 H1892 0.950 . S
C1869 C1886 1.574 . S
C1869 C1888 1.368 . S
C1869 H1893 0.949 . S
H1870 C1874 0.949 . S
C1871 C1872 1.349 . S
C1871 C1873 1.327 . S
C1871 H1894 0.950 . S
C1872 C1871 1.349 . S
C1872 C1884 1.349 . S
C1873 C1871 1.327 . S
C1873 C1889 1.429 . S
C1873 H1895 0.950 . S
C1874 H1870 0.949 . S
C1874 C1882 1.574 . S
C1874 C1890 1.368 . S
H1875 C1883 0.950 . S
H1876 C1881 0.950 . S
H1877 C1882 0.949 . S
H1878 C1884 0.950 . S
H1879 C1885 0.950 . S
H1880 C1886 0.949 . S
C1881 H1876 0.950 . S
C1881 C1883 1.327 . S
C1881 C1887 1.429 . S
C1882 C1874 1.574 . S
C1882 H1877 0.949 . S
C1882 C1888 1.368 . S
C1883 C1867 1.349 . S
C1883 H1875 0.950 . S
C1883 C1881 1.327 . S
C1884 C1872 1.349 . S
C1884 H1878 0.950 . S
C1884 C1885 1.327 . S
C1885 H1879 0.950 . S
C1885 C1884 1.327 . S
C1885 C1889 1.429 . S
C1886 C1869 1.574 . S
C1886 H1880 0.949 . S
C1886 C1890 1.368 . S
C1887 C1868 1.429 . S
C1887 C1881 1.429 . S
C1887 C1888 1.523 . S
C1888 C1869 1.368 . S
C1888 C1882 1.368 . S
C1888 C1887 1.523 . S
C1889 C1873 1.429 . S
C1889 C1885 1.429 . S
C1889 C1890 1.523 . S
C1890 C1874 1.368 . S
C1890 C1886 1.368 . S
C1890 C1889 1.523 . S
H1891 C1866 0.950 . S
H1892 C1868 0.950 . S
H1893 C1869 0.949 . S
H1894 C1871 0.950 . S
H1895 C1873 0.950 . S
C1896 C1897 1.349 . S
C1896 C1898 1.327 . S
C1896 H1921 0.950 . S
C1897 C1896 1.349 . S
C1897 C1913 1.349 . S
C1898 C1896 1.327 . S
C1898 C1917 1.429 . S
C1898 H1922 0.950 . S
C1899 C1916 1.574 . S
C1899 C1918 1.368 1_455 S
C1899 H1923 0.949 . S
H1900 C1904 0.949 . S
C1901 C1902 1.349 . S
C1901 C1903 1.327 . S
C1901 H1924 0.950 . S
C1902 C1901 1.349 . S
C1902 C1914 1.349 . S
C1903 C1901 1.327 . S
C1903 C1919 1.429 . S
C1903 H1925 0.950 . S
C1904 H1900 0.949 . S
C1904 C1912 1.574 . S
C1904 C1920 1.368 1_655 S
H1905 C1913 0.950 . S
H1906 C1911 0.950 . S
H1907 C1912 0.949 . S
H1908 C1914 0.950 . S
H1909 C1915 0.950 . S
H1910 C1916 0.949 . S
C1911 H1906 0.950 . S
C1911 C1913 1.327 . S
C1911 C1917 1.429 . S
C1912 C1904 1.574 . S
C1912 H1907 0.949 . S
C1912 C1918 1.368 . S
C1913 C1897 1.349 . S
C1913 H1905 0.950 . S
C1913 C1911 1.327 . S
C1914 C1902 1.349 . S
C1914 H1908 0.950 . S
C1914 C1915 1.327 . S
C1915 H1909 0.950 . S
C1915 C1914 1.327 . S
C1915 C1919 1.429 . S
C1916 C1899 1.574 . S
C1916 H1910 0.949 . S
C1916 C1920 1.368 . S
C1917 C1898 1.429 . S
C1917 C1911 1.429 . S
C1917 C1918 1.523 . S
C1918 C1899 1.368 1_655 S
C1918 C1912 1.368 . S
C1918 C1917 1.523 . S
C1919 C1903 1.429 . S
C1919 C1915 1.429 . S
C1919 C1920 1.523 . S
C1920 C1904 1.368 1_455 S
C1920 C1916 1.368 . S
C1920 C1919 1.523 . S
H1921 C1896 0.950 . S
H1922 C1898 0.950 . S
H1923 C1899 0.949 . S
H1924 C1901 0.950 . S
H1925 C1903 0.950 . S
C1926 C1927 1.349 . S
C1926 C1928 1.327 . S
C1926 H1951 0.950 . S
C1927 C1926 1.349 . S
C1927 C1943 1.349 . S
C1928 C1926 1.327 . S
C1928 C1947 1.429 . S
C1928 H1952 0.950 . S
C1929 C1946 1.574 . S
C1929 C1948 1.368 . S
C1929 H1953 0.949 . S
H1930 C1934 0.949 . S
C1931 C1932 1.349 . S
C1931 C1933 1.327 . S
C1931 H1954 0.950 . S
C1932 C1931 1.349 . S
C1932 C1944 1.349 . S
C1933 C1931 1.327 . S
C1933 C1949 1.429 . S
C1933 H1955 0.950 . S
C1934 H1930 0.949 . S
C1934 C1942 1.574 . S
C1934 C1950 1.368 . S
H1935 C1943 0.950 . S
H1936 C1941 0.950 . S
H1937 C1942 0.949 . S
H1938 C1944 0.950 . S
H1939 C1945 0.950 . S
H1940 C1946 0.949 . S
C1941 H1936 0.950 . S
C1941 C1943 1.327 . S
C1941 C1947 1.429 . S
C1942 C1934 1.574 . S
C1942 H1937 0.949 . S
C1942 C1948 1.368 . S
C1943 C1927 1.349 . S
C1943 H1935 0.950 . S
C1943 C1941 1.327 . S
C1944 C1932 1.349 . S
C1944 H1938 0.950 . S
C1944 C1945 1.327 . S
C1945 H1939 0.950 . S
C1945 C1944 1.327 . S
C1945 C1949 1.429 . S
C1946 C1929 1.574 . S
C1946 H1940 0.949 . S
C1946 C1950 1.368 . S
C1947 C1928 1.429 . S
C1947 C1941 1.429 . S
C1947 C1948 1.523 . S
C1948 C1929 1.368 . S
C1948 C1942 1.368 . S
C1948 C1947 1.523 . S
C1949 C1933 1.429 . S
C1949 C1945 1.429 . S
C1949 C1950 1.523 . S
C1950 C1934 1.368 . S
C1950 C1946 1.368 . S
C1950 C1949 1.523 . S
H1951 C1926 0.950 . S
H1952 C1928 0.950 . S
H1953 C1929 0.949 . S
H1954 C1931 0.950 . S
H1955 C1933 0.950 . S
C1956 C1957 1.349 . S
C1956 C1958 1.327 . S
C1956 H1981 0.950 . S
C1957 C1956 1.349 . S
C1957 C1973 1.349 . S
C1958 C1956 1.327 . S
C1958 C1977 1.429 . S
C1958 H1982 0.950 . S
C1959 C1976 1.574 . S
C1959 C1978 1.368 . S
C1959 H1983 0.949 . S
H1960 C1964 0.949 . S
C1961 C1962 1.349 . S
C1961 C1963 1.327 . S
C1961 H1984 0.950 . S
C1962 C1961 1.349 . S
C1962 C1974 1.349 . S
C1963 C1961 1.327 . S
C1963 C1979 1.429 . S
C1963 H1985 0.950 . S
C1964 H1960 0.949 . S
C1964 C1972 1.574 . S
C1964 C1980 1.368 . S
H1965 C1973 0.950 . S
H1966 C1971 0.950 . S
H1967 C1972 0.949 . S
H1968 C1974 0.950 . S
H1969 C1975 0.950 . S
H1970 C1976 0.949 . S
C1971 H1966 0.950 . S
C1971 C1973 1.327 . S
C1971 C1977 1.429 . S
C1972 C1964 1.574 . S
C1972 H1967 0.949 . S
C1972 C1978 1.368 . S
C1973 C1957 1.349 . S
C1973 H1965 0.950 . S
C1973 C1971 1.327 . S
C1974 C1962 1.349 . S
C1974 H1968 0.950 . S
C1974 C1975 1.327 . S
C1975 H1969 0.950 . S
C1975 C1974 1.327 . S
C1975 C1979 1.429 . S
C1976 C1959 1.574 . S
C1976 H1970 0.949 . S
C1976 C1980 1.368 . S
C1977 C1958 1.429 . S
C1977 C1971 1.429 . S
C1977 C1978 1.523 . S
C1978 C1959 1.368 . S
C1978 C1972 1.368 . S
C1978 C1977 1.523 . S
C1979 C1963 1.429 . S
C1979 C1975 1.429 . S
C1979 C1980 1.523 . S
C1980 C1964 1.368 . S
C1980 C1976 1.368 . S
C1980 C1979 1.523 . S
H1981 C1956 0.950 . S
H1982 C1958 0.950 . S
H1983 C1959 0.949 . S
H1984 C1961 0.950 . S
H1985 C1963 0.950 . S
C1986 C1987 1.349 . S
C1986 C1988 1.327 . S
C1986 H2011 0.950 . S
C1987 C1986 1.349 . S
C1987 C2003 1.349 . S
C1988 C1986 1.327 . S
C1988 C2007 1.429 . S
C1988 H2012 0.950 . S
C1989 C2006 1.574 1_655 S
C1989 C2008 1.368 . S
C1989 H2013 0.949 . S
H1990 C1994 0.949 . S
C1991 C1992 1.349 . S
C1991 C1993 1.327 . S
C1991 H2014 0.950 . S
C1992 C1991 1.349 . S
C1992 C2004 1.349 . S
C1993 C1991 1.327 . S
C1993 C2009 1.429 . S
C1993 H2015 0.950 . S
C1994 H1990 0.949 . S
C1994 C2002 1.574 1_455 S
C1994 C2010 1.368 . S
H1995 C2003 0.950 . S
H1996 C2001 0.950 . S
H1997 C2002 0.949 . S
H1998 C2004 0.950 . S
H1999 C2005 0.950 . S
H2000 C2006 0.949 . S
C2001 H1996 0.950 . S
C2001 C2003 1.327 . S
C2001 C2007 1.429 . S
C2002 C1994 1.574 1_655 S
C2002 H1997 0.949 . S
C2002 C2008 1.368 . S
C2003 C1987 1.349 . S
C2003 H1995 0.950 . S
C2003 C2001 1.327 . S
C2004 C1992 1.349 . S
C2004 H1998 0.950 . S
C2004 C2005 1.327 . S
C2005 H1999 0.950 . S
C2005 C2004 1.327 . S
C2005 C2009 1.429 . S
C2006 C1989 1.574 1_455 S
C2006 H2000 0.949 . S
C2006 C2010 1.368 . S
C2007 C1988 1.429 . S
C2007 C2001 1.429 . S
C2007 C2008 1.523 . S
C2008 C1989 1.368 . S
C2008 C2002 1.368 . S
C2008 C2007 1.523 . S
C2009 C1993 1.429 . S
C2009 C2005 1.429 . S
C2009 C2010 1.523 . S
C2010 C1994 1.368 . S
C2010 C2006 1.368 . S
C2010 C2009 1.523 . S
H2011 C1986 0.950 . S
H2012 C1988 0.950 . S
H2013 C1989 0.949 . S
H2014 C1991 0.950 . S
H2015 C1993 0.950 . S
C2016 C2017 1.349 1_565 S
C2016 C2018 1.327 . S
C2016 H2041 0.950 . S
C2017 C2016 1.349 1_545 S
C2017 C2033 1.349 . S
C2018 C2016 1.327 . S
C2018 C2037 1.429 1_565 S
C2018 H2042 0.950 . S
C2019 C2036 1.574 . S
C2019 C2038 1.368 . S
C2019 H2043 0.949 . S
H2020 C2024 0.949 . S
C2021 C2022 1.349 . S
C2021 C2023 1.327 . S
C2021 H2044 0.950 . S
C2022 C2021 1.349 . S
C2022 C2034 1.349 1_545 S
C2023 C2021 1.327 . S
C2023 C2039 1.429 . S
C2023 H2045 0.950 . S
C2024 H2020 0.949 . S
C2024 C2032 1.574 . S
C2024 C2040 1.368 1_565 S
H2025 C2033 0.950 . S
H2026 C2031 0.950 . S
H2027 C2032 0.949 . S
H2028 C2034 0.950 . S
H2029 C2035 0.950 . S
H2030 C2036 0.949 . S
C2031 H2026 0.950 . S
C2031 C2033 1.327 . S
C2031 C2037 1.429 . S
C2032 C2024 1.574 . S
C2032 H2027 0.949 . S
C2032 C2038 1.368 1_565 S
C2033 C2017 1.349 . S
C2033 H2025 0.950 . S
C2033 C2031 1.327 . S
C2034 C2022 1.349 1_565 S
C2034 H2028 0.950 . S
C2034 C2035 1.327 . S
C2035 H2029 0.950 . S
C2035 C2034 1.327 . S
C2035 C2039 1.429 1_565 S
C2036 C2019 1.574 . S
C2036 H2030 0.949 . S
C2036 C2040 1.368 . S
C2037 C2018 1.429 1_545 S
C2037 C2031 1.429 . S
C2037 C2038 1.523 . S
C2038 C2019 1.368 . S
C2038 C2032 1.368 1_545 S
C2038 C2037 1.523 . S
C2039 C2023 1.429 . S
C2039 C2035 1.429 1_545 S
C2039 C2040 1.523 . S
C2040 C2024 1.368 1_545 S
C2040 C2036 1.368 . S
C2040 C2039 1.523 . S
H2041 C2016 0.950 . S
H2042 C2018 0.950 . S
H2043 C2019 0.949 . S
H2044 C2021 0.950 . S
H2045 C2023 0.950 . S
C2046 C2047 1.349 . S
C2046 C2048 1.327 . S
C2046 H2071 0.950 . S
C2047 C2046 1.349 . S
C2047 C2063 1.349 . S
C2048 C2046 1.327 . S
C2048 C2067 1.429 . S
C2048 H2072 0.950 . S
C2049 C2066 1.574 . S
C2049 C2068 1.368 . S
C2049 H2073 0.949 . S
H2050 C2054 0.949 . S
C2051 C2052 1.349 . S
C2051 C2053 1.327 . S
C2051 H2074 0.950 . S
C2052 C2051 1.349 . S
C2052 C2064 1.349 . S
C2053 C2051 1.327 . S
C2053 C2069 1.429 1_565 S
C2053 H2075 0.950 . S
C2054 H2050 0.949 . S
C2054 C2062 1.574 . S
C2054 C2070 1.368 . S
H2055 C2063 0.950 . S
H2056 C2061 0.950 . S
H2057 C2062 0.949 . S
H2058 C2064 0.950 . S
H2059 C2065 0.965 . S
H2060 C2066 0.949 . S
C2061 H2056 0.950 . S
C2061 C2063 1.327 . S
C2061 C2067 1.429 . S
C2062 C2054 1.574 . S
C2062 H2057 0.949 . S
C2062 C2068 1.368 . S
C2063 C2047 1.349 . S
C2063 H2055 0.950 . S
C2063 C2061 1.327 . S
C2064 C2052 1.349 . S
C2064 H2058 0.950 . S
C2064 C2065 1.327 . S
C2065 H2059 0.965 . S
C2065 C2064 1.327 . S
C2065 C2069 1.429 1_565 S
C2066 C2049 1.574 . S
C2066 H2060 0.949 . S
C2066 C2070 1.368 . S
C2067 C2048 1.429 . S
C2067 C2061 1.429 . S
C2067 C2068 1.523 . S
C2068 C2049 1.368 . S
C2068 C2062 1.368 . S
C2068 C2067 1.523 . S
C2069 C2053 1.429 1_545 S
C2069 C2065 1.429 1_545 S
C2069 C2070 1.523 . S
C2070 C2054 1.368 . S
C2070 C2066 1.368 . S
C2070 C2069 1.523 . S
H2071 C2046 0.950 . S
H2072 C2048 0.950 . S
H2073 C2049 0.949 . S
H2074 C2051 0.950 . S
H2075 C2053 0.950 . S
C2076 C2077 1.349 . S
C2076 C2078 1.327 . S
C2076 H2101 0.950 . S
C2077 C2076 1.349 . S
C2077 C2093 1.349 1_565 S
C2078 C2076 1.327 . S
C2078 C2097 1.429 . S
C2078 H2102 0.950 . S
C2079 C2096 1.574 . S
C2079 C2098 1.368 1_545 S
C2079 H2103 0.949 . S
H2080 C2084 0.949 . S
C2081 C2082 1.349 1_545 S
C2081 C2083 1.327 . S
C2081 H2104 0.950 . S
C2082 C2081 1.349 1_565 S
C2082 C2094 1.349 . S
C2083 C2081 1.327 . S
C2083 C2099 1.429 1_545 S
C2083 H2105 0.950 . S
C2084 H2080 0.949 . S
C2084 C2092 1.574 . S
C2084 C2100 1.368 . S
H2085 C2093 0.950 . S
H2086 C2091 0.950 . S
H2087 C2092 0.949 . S
H2088 C2094 0.950 . S
H2089 C2095 0.950 . S
H2090 C2096 0.949 . S
C2091 H2086 0.950 . S
C2091 C2093 1.327 . S
C2091 C2097 1.429 1_545 S
C2092 C2084 1.574 . S
C2092 H2087 0.949 . S
C2092 C2098 1.368 . S
C2093 C2077 1.349 1_545 S
C2093 H2085 0.950 . S
C2093 C2091 1.327 . S
C2094 C2082 1.349 . S
C2094 H2088 0.950 . S
C2094 C2095 1.327 . S
C2095 H2089 0.950 . S
C2095 C2094 1.327 . S
C2095 C2099 1.429 . S
C2096 C2079 1.574 . S
C2096 H2090 0.949 . S
C2096 C2100 1.368 1_545 S
C2097 C2078 1.429 . S
C2097 C2091 1.429 1_565 S
C2097 C2098 1.523 . S
C2098 C2079 1.368 1_565 S
C2098 C2092 1.368 . S
C2098 C2097 1.523 . S
C2099 C2083 1.429 1_565 S
C2099 C2095 1.429 . S
C2099 C2100 1.523 . S
C2100 C2084 1.368 . S
C2100 C2096 1.368 1_565 S
C2100 C2099 1.523 . S
H2101 C2076 0.950 . S
H2102 C2078 0.950 . S
H2103 C2079 0.949 . S
H2104 C2081 0.950 . S
H2105 C2083 0.950 . S
C2106 C2107 1.349 . S
C2106 C2108 1.327 . S
C2106 H2131 0.950 . S
C2107 C2106 1.349 . S
C2107 C2123 1.349 . S
C2108 C2106 1.327 . S
C2108 C2127 1.429 . S
C2108 H2132 0.950 . S
C2109 C2126 1.574 . S
C2109 C2128 1.368 . S
C2109 H2133 0.949 . S
H2110 C2114 0.949 . S
C2111 C2112 1.349 . S
C2111 C2113 1.327 . S
C2111 H2134 0.950 . S
C2112 C2111 1.349 . S
C2112 C2124 1.349 . S
C2113 C2111 1.327 . S
C2113 C2129 1.429 1_545 S
C2113 H2135 0.950 . S
C2114 H2110 0.949 . S
C2114 C2122 1.574 . S
C2114 C2130 1.368 . S
H2115 C2123 0.950 . S
H2116 C2121 0.950 . S
H2117 C2122 0.949 . S
H2118 C2124 0.950 . S
H2119 C2125 0.965 . S
H2120 C2126 0.949 . S
C2121 H2116 0.950 . S
C2121 C2123 1.327 . S
C2121 C2127 1.429 . S
C2122 C2114 1.574 . S
C2122 H2117 0.949 . S
C2122 C2128 1.368 . S
C2123 C2107 1.349 . S
C2123 H2115 0.950 . S
C2123 C2121 1.327 . S
C2124 C2112 1.349 . S
C2124 H2118 0.950 . S
C2124 C2125 1.327 . S
C2125 H2119 0.965 . S
C2125 C2124 1.327 . S
C2125 C2129 1.429 1_545 S
C2126 C2109 1.574 . S
C2126 H2120 0.949 . S
C2126 C2130 1.368 . S
C2127 C2108 1.429 . S
C2127 C2121 1.429 . S
C2127 C2128 1.523 . S
C2128 C2109 1.368 . S
C2128 C2122 1.368 . S
C2128 C2127 1.523 . S
C2129 C2113 1.429 1_565 S
C2129 C2125 1.429 1_565 S
C2129 C2130 1.523 . S
C2130 C2114 1.368 . S
C2130 C2126 1.368 . S
C2130 C2129 1.523 . S
H2131 C2106 0.950 . S
H2132 C2108 0.950 . S
H2133 C2109 0.949 . S
H2134 C2111 0.950 . S
H2135 C2113 0.950 . S
C2136 C2137 1.349 . S
C2136 C2138 1.327 . S
C2136 H2161 0.950 . S
C2137 C2136 1.349 . S
C2137 C2153 1.351 . S
C2138 C2136 1.327 . S
C2138 C2157 1.429 . S
C2138 H2162 0.950 . S
C2139 C2156 1.574 . S
C2139 C2158 1.377 . S
C2139 H2163 0.941 1_565 S
H2140 C2144 0.949 . S
C2141 C2142 1.349 . S
C2141 C2143 1.327 . S
C2141 H2164 0.950 1_565 S
C2142 C2141 1.349 . S
C2142 C2154 1.349 . S
C2143 C2141 1.327 . S
C2143 C2159 1.429 . S
C2143 H2165 0.950 1_565 S
C2144 H2140 0.949 . S
C2144 C2152 1.574 . S
C2144 C2160 1.368 . S
H2145 C2153 0.948 1_545 S
H2146 C2151 0.946 1_545 S
H2147 C2152 0.949 . S
H2148 C2154 0.950 . S
H2149 C2155 0.950 . S
H2150 C2156 0.949 1_545 S
C2151 H2146 0.946 1_565 S
C2151 C2153 1.327 . S
C2151 C2157 1.432 . S
C2152 C2144 1.574 . S
C2152 H2147 0.949 . S
C2152 C2158 1.368 . S
C2153 C2137 1.351 . S
C2153 H2145 0.948 1_565 S
C2153 C2151 1.327 . S
C2154 C2142 1.349 . S
C2154 H2148 0.950 . S
C2154 C2155 1.327 . S
C2155 H2149 0.950 . S
C2155 C2154 1.327 . S
C2155 C2159 1.429 . S
C2156 C2139 1.574 . S
C2156 H2150 0.949 1_565 S
C2156 C2160 1.368 . S
C2157 C2138 1.429 . S
C2157 C2151 1.432 . S
C2157 C2158 1.523 . S
C2158 C2139 1.377 . S
C2158 C2152 1.368 . S
C2158 C2157 1.523 . S
C2159 C2143 1.429 . S
C2159 C2155 1.429 . S
C2159 C2160 1.523 . S
C2160 C2144 1.368 . S
C2160 C2156 1.368 . S
C2160 C2159 1.523 . S
H2161 C2136 0.950 . S
H2162 C2138 0.950 . S
H2163 C2139 0.941 1_545 S
H2164 C2141 0.950 1_545 S
H2165 C2143 0.950 1_545 S
C2166 C2167 1.349 . S
C2166 C2168 1.327 . S
C2166 H2191 0.950 . S
C2167 C2166 1.349 . S
C2167 C2183 1.349 . S
C2168 C2166 1.327 . S
C2168 C2187 1.429 1_565 S
C2168 H2192 0.950 . S
C2169 C2186 1.574 . S
C2169 C2188 1.368 . S
C2169 H2193 0.949 . S
H2170 C2174 0.949 . S
C2171 C2172 1.349 . S
C2171 C2173 1.327 . S
C2171 H2194 0.950 . S
C2172 C2171 1.349 . S
C2172 C2184 1.349 . S
C2173 C2171 1.327 . S
C2173 C2189 1.429 . S
C2173 H2195 0.950 . S
C2174 H2170 0.949 . S
C2174 C2182 1.574 . S
C2174 C2190 1.368 . S
H2175 C2183 0.950 . S
H2176 C2181 0.950 . S
H2177 C2182 0.949 . S
H2178 C2184 0.950 . S
H2179 C2185 0.950 . S
H2180 C2186 0.949 . S
C2181 H2176 0.950 . S
C2181 C2183 1.327 . S
C2181 C2187 1.429 1_565 S
C2182 C2174 1.574 . S
C2182 H2177 0.949 . S
C2182 C2188 1.368 . S
C2183 C2167 1.349 . S
C2183 H2175 0.950 . S
C2183 C2181 1.327 . S
C2184 C2172 1.349 . S
C2184 H2178 0.950 . S
C2184 C2185 1.327 . S
C2185 H2179 0.950 . S
C2185 C2184 1.327 . S
C2185 C2189 1.429 . S
C2186 C2169 1.574 . S
C2186 H2180 0.949 . S
C2186 C2190 1.368 . S
C2187 C2168 1.429 1_545 S
C2187 C2181 1.429 1_545 S
C2187 C2188 1.523 . S
C2188 C2169 1.368 . S
C2188 C2182 1.368 . S
C2188 C2187 1.523 . S
C2189 C2173 1.429 . S
C2189 C2185 1.429 . S
C2189 C2190 1.523 . S
C2190 C2174 1.368 . S
C2190 C2186 1.368 . S
C2190 C2189 1.523 . S
H2191 C2166 0.950 . S
H2192 C2168 0.950 . S
H2193 C2169 0.949 . S
H2194 C2171 0.950 . S
H2195 C2173 0.950 . S
C2196 C2197 1.349 . S
C2196 C2198 1.327 . S
C2196 H2221 0.950 . S
C2197 C2196 1.349 . S
C2197 C2213 1.349 1_545 S
C2198 C2196 1.327 . S
C2198 C2217 1.429 . S
C2198 H2222 0.950 . S
C2199 C2216 1.574 . S
C2199 C2218 1.368 1_565 S
C2199 H2223 0.949 . S
H2200 C2204 0.949 . S
C2201 C2202 1.349 1_565 S
C2201 C2203 1.327 . S
C2201 H2224 0.950 . S
C2202 C2201 1.349 1_545 S
C2202 C2214 1.349 . S
C2203 C2201 1.327 . S
C2203 C2219 1.429 1_565 S
C2203 H2225 0.950 . S
C2204 H2200 0.949 . S
C2204 C2212 1.574 . S
C2204 C2220 1.368 . S
H2205 C2213 0.950 . S
H2206 C2211 0.950 . S
H2207 C2212 0.949 . S
H2208 C2214 0.950 . S
H2209 C2215 0.950 . S
H2210 C2216 0.949 . S
C2211 H2206 0.950 . S
C2211 C2213 1.327 . S
C2211 C2217 1.429 1_565 S
C2212 C2204 1.574 . S
C2212 H2207 0.949 . S
C2212 C2218 1.368 . S
C2213 C2197 1.349 1_565 S
C2213 H2205 0.950 . S
C2213 C2211 1.327 . S
C2214 C2202 1.349 . S
C2214 H2208 0.950 . S
C2214 C2215 1.327 . S
C2215 H2209 0.950 . S
C2215 C2214 1.327 . S
C2215 C2219 1.429 . S
C2216 C2199 1.574 . S
C2216 H2210 0.949 . S
C2216 C2220 1.368 1_565 S
C2217 C2198 1.429 . S
C2217 C2211 1.429 1_545 S
C2217 C2218 1.523 . S
C2218 C2199 1.368 1_545 S
C2218 C2212 1.368 . S
C2218 C2217 1.523 . S
C2219 C2203 1.429 1_545 S
C2219 C2215 1.429 . S
C2219 C2220 1.523 . S
C2220 C2204 1.368 . S
C2220 C2216 1.368 1_545 S
C2220 C2219 1.523 . S
H2221 C2196 0.950 . S
H2222 C2198 0.950 . S
H2223 C2199 0.949 . S
H2224 C2201 0.950 . S
H2225 C2203 0.950 . S
C2226 C2227 1.349 . S
C2226 C2228 1.327 . S
C2226 H2251 0.950 . S
C2227 C2226 1.349 . S
C2227 C2243 1.349 . S
C2228 C2226 1.327 . S
C2228 C2247 1.429 . S
C2228 H2252 0.950 . S
C2229 C2246 1.574 . S
C2229 C2248 1.368 . S
C2229 H2253 0.949 . S
H2230 C2234 0.949 . S
C2231 C2232 1.349 . S
C2231 C2233 1.327 . S
C2231 H2254 0.950 . S
C2232 C2231 1.349 . S
C2232 C2244 1.349 . S
C2233 C2231 1.327 . S
C2233 C2249 1.429 1_545 S
C2233 H2255 0.965 . S
C2234 H2230 0.949 . S
C2234 C2242 1.574 . S
C2234 C2250 1.368 . S
H2235 C2243 0.950 . S
H2236 C2241 0.950 . S
H2237 C2242 0.949 . S
H2238 C2244 0.950 . S
H2239 C2245 0.950 . S
H2240 C2246 0.949 . S
C2241 H2236 0.950 . S
C2241 C2243 1.327 . S
C2241 C2247 1.429 . S
C2242 C2234 1.574 . S
C2242 H2237 0.949 . S
C2242 C2248 1.368 . S
C2243 C2227 1.349 . S
C2243 H2235 0.950 . S
C2243 C2241 1.327 . S
C2244 C2232 1.349 . S
C2244 H2238 0.950 . S
C2244 C2245 1.327 . S
C2245 H2239 0.950 . S
C2245 C2244 1.327 . S
C2245 C2249 1.429 1_545 S
C2246 C2229 1.574 . S
C2246 H2240 0.949 . S
C2246 C2250 1.368 . S
C2247 C2228 1.429 . S
C2247 C2241 1.429 . S
C2247 C2248 1.523 . S
C2248 C2229 1.368 . S
C2248 C2242 1.368 . S
C2248 C2247 1.523 . S
C2249 C2233 1.429 1_565 S
C2249 C2245 1.429 1_565 S
C2249 C2250 1.523 . S
C2250 C2234 1.368 . S
C2250 C2246 1.368 . S
C2250 C2249 1.523 . S
H2251 C2226 0.950 . S
H2252 C2228 0.950 . S
H2253 C2229 0.949 . S
H2254 C2231 0.950 . S
H2255 C2233 0.965 . S
C2256 C2257 1.349 . S
C2256 C2258 1.327 . S
C2256 H2281 0.950 . S
C2257 C2256 1.349 . S
C2257 C2273 1.349 1_565 S
C2258 C2256 1.327 . S
C2258 C2277 1.429 . S
C2258 H2282 0.950 . S
C2259 C2276 1.574 . S
C2259 C2278 1.368 1_545 S
C2259 H2283 0.949 . S
H2260 C2264 0.949 . S
C2261 C2262 1.349 1_545 S
C2261 C2263 1.327 . S
C2261 H2284 0.950 . S
C2262 C2261 1.349 1_565 S
C2262 C2274 1.349 . S
C2263 C2261 1.327 . S
C2263 C2279 1.429 1_545 S
C2263 H2285 0.950 . S
C2264 H2260 0.949 . S
C2264 C2272 1.574 . S
C2264 C2280 1.368 . S
H2265 C2273 0.950 . S
H2266 C2271 0.950 . S
H2267 C2272 0.949 . S
H2268 C2274 0.950 . S
H2269 C2275 0.950 . S
H2270 C2276 0.949 . S
C2271 H2266 0.950 . S
C2271 C2273 1.327 . S
C2271 C2277 1.429 1_545 S
C2272 C2264 1.574 . S
C2272 H2267 0.949 . S
C2272 C2278 1.368 . S
C2273 C2257 1.349 1_545 S
C2273 H2265 0.950 . S
C2273 C2271 1.327 . S
C2274 C2262 1.349 . S
C2274 H2268 0.950 . S
C2274 C2275 1.327 . S
C2275 H2269 0.950 . S
C2275 C2274 1.327 . S
C2275 C2279 1.429 . S
C2276 C2259 1.574 . S
C2276 H2270 0.949 . S
C2276 C2280 1.368 1_545 S
C2277 C2258 1.429 . S
C2277 C2271 1.429 1_565 S
C2277 C2278 1.523 . S
C2278 C2259 1.368 1_565 S
C2278 C2272 1.368 . S
C2278 C2277 1.523 . S
C2279 C2263 1.429 1_565 S
C2279 C2275 1.429 . S
C2279 C2280 1.523 . S
C2280 C2264 1.368 . S
C2280 C2276 1.368 1_565 S
C2280 C2279 1.523 . S
H2281 C2256 0.950 . S
H2282 C2258 0.950 . S
H2283 C2259 0.949 . S
H2284 C2261 0.950 . S
H2285 C2263 0.950 . S
C2286 C2287 1.349 . S
C2286 C2288 1.327 . S
C2286 H2311 0.950 . S
C2287 C2286 1.349 . S
C2287 C2303 1.349 . S
C2288 C2286 1.327 . S
C2288 C2307 1.429 . S
C2288 H2312 0.950 . S
C2289 C2306 1.574 . S
C2289 C2308 1.368 . S
C2289 H2313 0.949 . S
H2290 C2294 0.949 . S
C2291 C2292 1.349 . S
C2291 C2293 1.327 . S
C2291 H2314 0.950 . S
C2292 C2291 1.349 . S
C2292 C2304 1.349 . S
C2293 C2291 1.327 . S
C2293 C2309 1.429 1_545 S
C2293 H2315 0.950 . S
C2294 H2290 0.949 . S
C2294 C2302 1.574 . S
C2294 C2310 1.368 . S
H2295 C2303 0.950 . S
H2296 C2301 0.950 . S
H2297 C2302 0.949 . S
H2298 C2304 0.950 . S
H2299 C2305 0.950 . S
H2300 C2306 0.949 . S
C2301 H2296 0.950 . S
C2301 C2303 1.327 . S
C2301 C2307 1.429 . S
C2302 C2294 1.574 . S
C2302 H2297 0.949 . S
C2302 C2308 1.368 . S
C2303 C2287 1.349 . S
C2303 H2295 0.950 . S
C2303 C2301 1.327 . S
C2304 C2292 1.349 . S
C2304 H2298 0.950 . S
C2304 C2305 1.327 . S
C2305 H2299 0.950 . S
C2305 C2304 1.327 . S
C2305 C2309 1.429 1_545 S
C2306 C2289 1.574 . S
C2306 H2300 0.949 . S
C2306 C2310 1.368 . S
C2307 C2288 1.429 . S
C2307 C2301 1.429 . S
C2307 C2308 1.523 . S
C2308 C2289 1.368 . S
C2308 C2302 1.368 . S
C2308 C2307 1.523 . S
C2309 C2293 1.429 1_565 S
C2309 C2305 1.429 1_565 S
C2309 C2310 1.523 . S
C2310 C2294 1.368 . S
C2310 C2306 1.368 . S
C2310 C2309 1.523 . S
H2311 C2286 0.950 . S
H2312 C2288 0.950 . S
H2313 C2289 0.949 . S
H2314 C2291 0.950 . S
H2315 C2293 0.950 . S
C2316 C2317 1.349 1_565 S
C2316 C2318 1.327 . S
C2316 H2341 0.950 . S
C2317 C2316 1.349 1_545 S
C2317 C2333 1.349 . S
C2318 C2316 1.327 . S
C2318 C2337 1.429 1_565 S
C2318 H2342 0.950 . S
C2319 C2336 1.574 . S
C2319 C2338 1.368 . S
C2319 H2343 0.949 . S
H2320 C2324 0.949 . S
C2321 C2322 1.349 . S
C2321 C2323 1.327 . S
C2321 H2344 0.950 . S
C2322 C2321 1.349 . S
C2322 C2334 1.349 1_545 S
C2323 C2321 1.327 . S
C2323 C2339 1.429 . S
C2323 H2345 0.950 . S
C2324 H2320 0.949 . S
C2324 C2332 1.574 . S
C2324 C2340 1.368 1_565 S
H2325 C2333 0.950 . S
H2326 C2331 0.950 . S
H2327 C2332 0.949 . S
H2328 C2334 0.950 . S
H2329 C2335 0.950 . S
H2330 C2336 0.949 . S
C2331 H2326 0.950 . S
C2331 C2333 1.327 . S
C2331 C2337 1.429 . S
C2332 C2324 1.574 . S
C2332 H2327 0.949 . S
C2332 C2338 1.368 1_565 S
C2333 C2317 1.349 . S
C2333 H2325 0.950 . S
C2333 C2331 1.327 . S
C2334 C2322 1.349 1_565 S
C2334 H2328 0.950 . S
C2334 C2335 1.327 . S
C2335 H2329 0.950 . S
C2335 C2334 1.327 . S
C2335 C2339 1.429 1_565 S
C2336 C2319 1.574 . S
C2336 H2330 0.949 . S
C2336 C2340 1.368 . S
C2337 C2318 1.429 1_545 S
C2337 C2331 1.429 . S
C2337 C2338 1.523 . S
C2338 C2319 1.368 . S
C2338 C2332 1.368 1_545 S
C2338 C2337 1.523 . S
C2339 C2323 1.429 . S
C2339 C2335 1.429 1_545 S
C2339 C2340 1.523 . S
C2340 C2324 1.368 1_545 S
C2340 C2336 1.368 . S
C2340 C2339 1.523 . S
H2341 C2316 0.950 . S
H2342 C2318 0.950 . S
H2343 C2319 0.949 . S
H2344 C2321 0.950 . S
H2345 C2323 0.950 . S
C2346 C2347 1.349 . S
C2346 C2348 1.327 . S
C2346 H2371 0.950 . S
C2347 C2346 1.349 . S
C2347 C2363 1.349 . S
C2348 C2346 1.327 . S
C2348 C2367 1.429 1_565 S
C2348 H2372 0.950 . S
C2349 C2366 1.574 . S
C2349 C2368 1.368 . S
C2349 H2373 0.949 . S
H2350 C2354 0.949 . S
C2351 C2352 1.349 . S
C2351 C2353 1.327 . S
C2351 H2374 0.950 . S
C2352 C2351 1.349 . S
C2352 C2364 1.349 . S
C2353 C2351 1.327 . S
C2353 C2369 1.429 . S
C2353 H2375 0.950 . S
C2354 H2350 0.949 . S
C2354 C2362 1.574 . S
C2354 C2370 1.368 . S
H2355 C2363 0.950 . S
H2356 C2361 0.965 . S
H2357 C2362 0.949 . S
H2358 C2364 0.950 . S
H2359 C2365 0.950 . S
H2360 C2366 0.949 . S
C2361 H2356 0.965 . S
C2361 C2363 1.327 . S
C2361 C2367 1.429 1_565 S
C2362 C2354 1.574 . S
C2362 H2357 0.949 . S
C2362 C2368 1.368 . S
C2363 C2347 1.349 . S
C2363 H2355 0.950 . S
C2363 C2361 1.327 . S
C2364 C2352 1.349 . S
C2364 H2358 0.950 . S
C2364 C2365 1.327 . S
C2365 H2359 0.950 . S
C2365 C2364 1.327 . S
C2365 C2369 1.429 . S
C2366 C2349 1.574 . S
C2366 H2360 0.949 . S
C2366 C2370 1.368 . S
C2367 C2348 1.429 1_545 S
C2367 C2361 1.429 1_545 S
C2367 C2368 1.523 . S
C2368 C2349 1.368 . S
C2368 C2362 1.368 . S
C2368 C2367 1.523 . S
C2369 C2353 1.429 . S
C2369 C2365 1.429 . S
C2369 C2370 1.523 . S
C2370 C2354 1.368 . S
C2370 C2366 1.368 . S
C2370 C2369 1.523 . S
H2371 C2346 0.950 . S
H2372 C2348 0.950 . S
H2373 C2349 0.949 . S
H2374 C2351 0.950 . S
H2375 C2353 0.950 . S
C2376 C2377 1.349 1_565 S
C2376 C2378 1.327 . S
C2376 H2401 0.950 . S
C2377 C2376 1.349 1_545 S
C2377 C2393 1.349 . S
C2378 C2376 1.327 . S
C2378 C2397 1.429 1_565 S
C2378 H2402 0.950 . S
C2379 C2396 1.574 . S
C2379 C2398 1.368 . S
C2379 H2403 0.949 . S
H2380 C2384 0.949 . S
C2381 C2382 1.349 . S
C2381 C2383 1.327 . S
C2381 H2404 0.950 . S
C2382 C2381 1.349 . S
C2382 C2394 1.349 1_545 S
C2383 C2381 1.327 . S
C2383 C2399 1.429 . S
C2383 H2405 0.950 . S
C2384 H2380 0.949 . S
C2384 C2392 1.574 . S
C2384 C2400 1.368 1_565 S
H2385 C2393 0.950 . S
H2386 C2391 0.950 . S
H2387 C2392 0.949 . S
H2388 C2394 0.950 . S
H2389 C2395 0.950 . S
H2390 C2396 0.949 . S
C2391 H2386 0.950 . S
C2391 C2393 1.327 . S
C2391 C2397 1.429 . S
C2392 C2384 1.574 . S
C2392 H2387 0.949 . S
C2392 C2398 1.368 1_565 S
C2393 C2377 1.349 . S
C2393 H2385 0.950 . S
C2393 C2391 1.327 . S
C2394 C2382 1.349 1_565 S
C2394 H2388 0.950 . S
C2394 C2395 1.327 . S
C2395 H2389 0.950 . S
C2395 C2394 1.327 . S
C2395 C2399 1.429 1_565 S
C2396 C2379 1.574 . S
C2396 H2390 0.949 . S
C2396 C2400 1.368 . S
C2397 C2378 1.429 1_545 S
C2397 C2391 1.429 . S
C2397 C2398 1.523 . S
C2398 C2379 1.368 . S
C2398 C2392 1.368 1_545 S
C2398 C2397 1.523 . S
C2399 C2383 1.429 . S
C2399 C2395 1.429 1_545 S
C2399 C2400 1.523 . S
C2400 C2384 1.368 1_545 S
C2400 C2396 1.368 . S
C2400 C2399 1.523 . S
H2401 C2376 0.950 . S
H2402 C2378 0.950 . S
H2403 C2379 0.949 . S
H2404 C2381 0.950 . S
H2405 C2383 0.950 . S
C2406 C2407 1.349 . S
C2406 C2408 1.327 . S
C2406 H2431 0.950 . S
C2407 C2406 1.349 . S
C2407 C2423 1.349 . S
C2408 C2406 1.327 . S
C2408 C2427 1.429 . S
C2408 H2432 0.950 . S
C2409 C2426 1.574 . S
C2409 C2428 1.368 . S
C2409 H2433 0.949 . S
H2410 C2414 0.949 . S
C2411 C2412 1.349 . S
C2411 C2413 1.327 . S
C2411 H2434 0.950 . S
C2412 C2411 1.349 . S
C2412 C2424 1.349 . S
C2413 C2411 1.327 . S
C2413 C2429 1.429 1_545 S
C2413 H2435 0.950 . S
C2414 H2410 0.949 . S
C2414 C2422 1.574 . S
C2414 C2430 1.368 . S
H2415 C2423 0.950 . S
H2416 C2421 0.950 . S
H2417 C2422 0.949 . S
H2418 C2424 0.950 . S
H2419 C2425 0.950 . S
H2420 C2426 0.949 . S
C2421 H2416 0.950 . S
C2421 C2423 1.327 . S
C2421 C2427 1.429 . S
C2422 C2414 1.574 . S
C2422 H2417 0.949 . S
C2422 C2428 1.368 . S
C2423 C2407 1.349 . S
C2423 H2415 0.950 . S
C2423 C2421 1.327 . S
C2424 C2412 1.349 . S
C2424 H2418 0.950 . S
C2424 C2425 1.327 . S
C2425 H2419 0.950 . S
C2425 C2424 1.327 . S
C2425 C2429 1.429 1_545 S
C2426 C2409 1.574 . S
C2426 H2420 0.949 . S
C2426 C2430 1.368 . S
C2427 C2408 1.429 . S
C2427 C2421 1.429 . S
C2427 C2428 1.523 . S
C2428 C2409 1.368 . S
C2428 C2422 1.368 . S
C2428 C2427 1.523 . S
C2429 C2413 1.429 1_565 S
C2429 C2425 1.429 1_565 S
C2429 C2430 1.523 . S
C2430 C2414 1.368 . S
C2430 C2426 1.368 . S
C2430 C2429 1.523 . S
H2431 C2406 0.950 . S
H2432 C2408 0.950 . S
H2433 C2409 0.949 . S
H2434 C2411 0.950 . S
H2435 C2413 0.950 . S
C2436 C2437 1.349 . S
C2436 C2438 1.327 . S
C2436 H2461 0.950 . S
C2437 C2436 1.349 . S
C2437 C2453 1.349 1_565 S
C2438 C2436 1.327 . S
C2438 C2457 1.429 . S
C2438 H2462 0.950 . S
C2439 C2456 1.574 . S
C2439 C2458 1.368 1_545 S
C2439 H2463 0.949 . S
H2440 C2444 0.949 . S
C2441 C2442 1.349 1_545 S
C2441 C2443 1.327 . S
C2441 H2464 0.950 . S
C2442 C2441 1.349 1_565 S
C2442 C2454 1.349 . S
C2443 C2441 1.327 . S
C2443 C2459 1.429 1_545 S
C2443 H2465 0.950 . S
C2444 H2440 0.949 . S
C2444 C2452 1.574 . S
C2444 C2460 1.368 . S
H2445 C2453 0.950 . S
H2446 C2451 0.950 . S
H2447 C2452 0.949 . S
H2448 C2454 0.950 . S
H2449 C2455 0.950 . S
H2450 C2456 0.949 . S
C2451 H2446 0.950 . S
C2451 C2453 1.327 . S
C2451 C2457 1.429 1_545 S
C2452 C2444 1.574 . S
C2452 H2447 0.949 . S
C2452 C2458 1.368 . S
C2453 C2437 1.349 1_545 S
C2453 H2445 0.950 . S
C2453 C2451 1.327 . S
C2454 C2442 1.349 . S
C2454 H2448 0.950 . S
C2454 C2455 1.327 . S
C2455 H2449 0.950 . S
C2455 C2454 1.327 . S
C2455 C2459 1.429 . S
C2456 C2439 1.574 . S
C2456 H2450 0.949 . S
C2456 C2460 1.368 1_545 S
C2457 C2438 1.429 . S
C2457 C2451 1.429 1_565 S
C2457 C2458 1.523 . S
C2458 C2439 1.368 1_565 S
C2458 C2452 1.368 . S
C2458 C2457 1.523 . S
C2459 C2443 1.429 1_565 S
C2459 C2455 1.429 . S
C2459 C2460 1.523 . S
C2460 C2444 1.368 . S
C2460 C2456 1.368 1_565 S
C2460 C2459 1.523 . S
H2461 C2436 0.950 . S
H2462 C2438 0.950 . S
H2463 C2439 0.949 . S
H2464 C2441 0.950 . S
H2465 C2443 0.950 . S
C2466 C2467 1.349 . S
C2466 C2468 1.327 . S
C2466 H2491 0.950 . S
C2467 C2466 1.349 . S
C2467 C2483 1.349 . S
C2468 C2466 1.327 . S
C2468 C2487 1.429 . S
C2468 H2492 0.950 . S
C2469 C2486 1.574 . S
C2469 C2488 1.368 . S
C2469 H2493 0.949 . S
H2470 C2474 0.949 . S
C2471 C2472 1.349 . S
C2471 C2473 1.327 . S
C2471 H2494 0.950 . S
C2472 C2471 1.349 . S
C2472 C2484 1.349 . S
C2473 C2471 1.327 . S
C2473 C2489 1.429 1_565 S
C2473 H2495 0.950 . S
C2474 H2470 0.949 . S
C2474 C2482 1.574 . S
C2474 C2490 1.368 . S
H2475 C2483 0.950 . S
H2476 C2481 0.950 . S
H2477 C2482 0.949 . S
H2478 C2484 0.950 . S
H2479 C2485 0.950 . S
H2480 C2486 0.949 . S
C2481 H2476 0.950 . S
C2481 C2483 1.327 . S
C2481 C2487 1.429 . S
C2482 C2474 1.574 . S
C2482 H2477 0.949 . S
C2482 C2488 1.368 . S
C2483 C2467 1.349 . S
C2483 H2475 0.950 . S
C2483 C2481 1.327 . S
C2484 C2472 1.349 . S
C2484 H2478 0.950 . S
C2484 C2485 1.327 . S
C2485 H2479 0.950 . S
C2485 C2484 1.327 . S
C2485 C2489 1.429 1_565 S
C2486 C2469 1.574 . S
C2486 H2480 0.949 . S
C2486 C2490 1.368 . S
C2487 C2468 1.429 . S
C2487 C2481 1.429 . S
C2487 C2488 1.523 . S
C2488 C2469 1.368 . S
C2488 C2482 1.368 . S
C2488 C2487 1.523 . S
C2489 C2473 1.429 1_545 S
C2489 C2485 1.429 1_545 S
C2489 C2490 1.523 . S
C2490 C2474 1.368 . S
C2490 C2486 1.368 . S
C2490 C2489 1.523 . S
H2491 C2466 0.950 . S
H2492 C2468 0.950 . S
H2493 C2469 0.949 . S
H2494 C2471 0.950 . S
H2495 C2473 0.950 . S
C2496 C2497 1.349 . S
C2496 C2498 1.327 . S
C2496 H2521 0.950 . S
C2497 C2496 1.349 . S
C2497 C2513 1.349 . S
C2498 C2496 1.327 . S
C2498 C2517 1.429 . S
C2498 H2522 0.950 . S
C2499 C2516 1.574 . S
C2499 C2518 1.368 . S
C2499 H2523 0.949 . S
H2500 C2504 0.949 . S
C2501 C2502 1.349 . S
C2501 C2503 1.327 . S
C2501 H2524 0.950 . S
C2502 C2501 1.349 . S
C2502 C2514 1.349 . S
C2503 C2501 1.327 . S
C2503 C2519 1.429 . S
C2503 H2525 0.950 . S
C2504 H2500 0.949 . S
C2504 C2512 1.574 . S
C2504 C2520 1.368 . S
H2505 C2513 0.950 . S
H2506 C2511 0.950 . S
H2507 C2512 0.949 . S
H2508 C2514 0.950 . S
H2509 C2515 0.950 . S
H2510 C2516 0.949 . S
C2511 H2506 0.950 . S
C2511 C2513 1.327 . S
C2511 C2517 1.429 . S
C2512 C2504 1.574 . S
C2512 H2507 0.949 . S
C2512 C2518 1.368 . S
C2513 C2497 1.349 . S
C2513 H2505 0.950 . S
C2513 C2511 1.327 . S
C2514 C2502 1.349 . S
C2514 H2508 0.950 . S
C2514 C2515 1.327 . S
C2515 H2509 0.950 . S
C2515 C2514 1.327 . S
C2515 C2519 1.429 . S
C2516 C2499 1.574 . S
C2516 H2510 0.949 . S
C2516 C2520 1.368 . S
C2517 C2498 1.429 . S
C2517 C2511 1.429 . S
C2517 C2518 1.523 . S
C2518 C2499 1.368 . S
C2518 C2512 1.368 . S
C2518 C2517 1.523 . S
C2519 C2503 1.429 . S
C2519 C2515 1.429 . S
C2519 C2520 1.523 . S
C2520 C2504 1.368 . S
C2520 C2516 1.368 . S
C2520 C2519 1.523 . S
H2521 C2496 0.950 . S
H2522 C2498 0.950 . S
H2523 C2499 0.949 . S
H2524 C2501 0.950 . S
H2525 C2503 0.950 . S
C2526 C2527 1.349 . S
C2526 C2528 1.327 . S
C2526 H2551 0.950 . S
C2527 C2526 1.349 . S
C2527 C2543 1.349 . S
C2528 C2526 1.327 . S
C2528 C2547 1.429 . S
C2528 H2552 0.950 . S
C2529 C2546 1.574 . S
C2529 C2548 1.368 . S
C2529 H2553 0.949 . S
H2530 C2534 0.949 . S
C2531 C2532 1.349 . S
C2531 C2533 1.327 . S
C2531 H2554 0.950 . S
C2532 C2531 1.349 . S
C2532 C2544 1.349 . S
C2533 C2531 1.327 . S
C2533 C2549 1.429 . S
C2533 H2555 0.950 . S
C2534 H2530 0.949 . S
C2534 C2542 1.574 . S
C2534 C2550 1.368 . S
H2535 C2543 0.950 . S
H2536 C2541 0.950 . S
H2537 C2542 0.949 . S
H2538 C2544 0.950 . S
H2539 C2545 0.950 . S
H2540 C2546 0.949 . S
C2541 H2536 0.950 . S
C2541 C2543 1.327 . S
C2541 C2547 1.429 . S
C2542 C2534 1.574 . S
C2542 H2537 0.949 . S
C2542 C2548 1.368 . S
C2543 C2527 1.349 . S
C2543 H2535 0.950 . S
C2543 C2541 1.327 . S
C2544 C2532 1.349 . S
C2544 H2538 0.950 . S
C2544 C2545 1.327 . S
C2545 H2539 0.950 . S
C2545 C2544 1.327 . S
C2545 C2549 1.429 . S
C2546 C2529 1.574 . S
C2546 H2540 0.949 . S
C2546 C2550 1.368 . S
C2547 C2528 1.429 . S
C2547 C2541 1.429 . S
C2547 C2548 1.523 . S
C2548 C2529 1.368 . S
C2548 C2542 1.368 . S
C2548 C2547 1.523 . S
C2549 C2533 1.429 . S
C2549 C2545 1.429 . S
C2549 C2550 1.523 . S
C2550 C2534 1.368 . S
C2550 C2546 1.368 . S
C2550 C2549 1.523 . S
H2551 C2526 0.950 . S
H2552 C2528 0.950 . S
H2553 C2529 0.949 . S
H2554 C2531 0.950 . S
H2555 C2533 0.950 . S
C2556 C2557 1.349 . S
C2556 C2558 1.327 . S
C2556 H2581 0.950 . S
C2557 C2556 1.349 . S
C2557 C2573 1.349 . S
C2558 C2556 1.327 . S
C2558 C2577 1.429 . S
C2558 H2582 0.950 . S
C2559 C2576 1.574 . S
C2559 C2578 1.368 . S
C2559 H2583 0.949 . S
H2560 C2564 0.949 . S
C2561 C2562 1.349 . S
C2561 C2563 1.327 . S
C2561 H2584 0.950 . S
C2562 C2561 1.349 . S
C2562 C2574 1.349 . S
C2563 C2561 1.327 . S
C2563 C2579 1.429 . S
C2563 H2585 0.950 . S
C2564 H2560 0.949 . S
C2564 C2572 1.574 . S
C2564 C2580 1.368 . S
H2565 C2573 0.950 . S
H2566 C2571 0.950 . S
H2567 C2572 0.949 . S
H2568 C2574 0.950 . S
H2569 C2575 0.950 . S
H2570 C2576 0.949 . S
C2571 H2566 0.950 . S
C2571 C2573 1.327 . S
C2571 C2577 1.429 . S
C2572 C2564 1.574 . S
C2572 H2567 0.949 . S
C2572 C2578 1.368 . S
C2573 C2557 1.349 . S
C2573 H2565 0.950 . S
C2573 C2571 1.327 . S
C2574 C2562 1.349 . S
C2574 H2568 0.950 . S
C2574 C2575 1.327 . S
C2575 H2569 0.950 . S
C2575 C2574 1.327 . S
C2575 C2579 1.429 . S
C2576 C2559 1.574 . S
C2576 H2570 0.949 . S
C2576 C2580 1.368 . S
C2577 C2558 1.429 . S
C2577 C2571 1.429 . S
C2577 C2578 1.523 . S
C2578 C2559 1.368 . S
C2578 C2572 1.368 . S
C2578 C2577 1.523 . S
C2579 C2563 1.429 . S
C2579 C2575 1.429 . S
C2579 C2580 1.523 . S
C2580 C2564 1.368 . S
C2580 C2576 1.368 . S
C2580 C2579 1.523 . S
H2581 C2556 0.950 . S
H2582 C2558 0.950 . S
H2583 C2559 0.949 . S
H2584 C2561 0.950 . S
H2585 C2563 0.950 . S
C2586 C2587 1.349 . S
C2586 C2588 1.327 . S
C2586 H2611 0.950 . S
C2587 C2586 1.349 . S
C2587 C2603 1.349 . S
C2588 C2586 1.327 . S
C2588 C2607 1.429 . S
C2588 H2612 0.950 . S
C2589 C2606 1.574 . S
C2589 C2608 1.368 . S
C2589 H2613 0.949 . S
H2590 C2594 0.949 . S
C2591 C2592 1.349 . S
C2591 C2593 1.327 . S
C2591 H2614 0.950 . S
C2592 C2591 1.349 . S
C2592 C2604 1.349 . S
C2593 C2591 1.327 . S
C2593 C2609 1.429 . S
C2593 H2615 0.950 . S
C2594 H2590 0.949 . S
C2594 C2602 1.574 . S
C2594 C2610 1.368 . S
H2595 C2603 0.950 . S
H2596 C2601 0.950 . S
H2597 C2602 0.949 . S
H2598 C2604 0.950 . S
H2599 C2605 0.950 . S
H2600 C2606 0.949 . S
C2601 H2596 0.950 . S
C2601 C2603 1.327 . S
C2601 C2607 1.429 . S
C2602 C2594 1.574 . S
C2602 H2597 0.949 . S
C2602 C2608 1.368 . S
C2603 C2587 1.349 . S
C2603 H2595 0.950 . S
C2603 C2601 1.327 . S
C2604 C2592 1.349 . S
C2604 H2598 0.950 . S
C2604 C2605 1.327 . S
C2605 H2599 0.950 . S
C2605 C2604 1.327 . S
C2605 C2609 1.429 . S
C2606 C2589 1.574 . S
C2606 H2600 0.949 . S
C2606 C2610 1.368 . S
C2607 C2588 1.429 . S
C2607 C2601 1.429 . S
C2607 C2608 1.523 . S
C2608 C2589 1.368 . S
C2608 C2602 1.368 . S
C2608 C2607 1.523 . S
C2609 C2593 1.429 . S
C2609 C2605 1.429 . S
C2609 C2610 1.523 . S
C2610 C2594 1.368 . S
C2610 C2606 1.368 . S
C2610 C2609 1.523 . S
H2611 C2586 0.950 . S
H2612 C2588 0.950 . S
H2613 C2589 0.949 . S
H2614 C2591 0.950 . S
H2615 C2593 0.950 . S
C2616 C2617 1.349 . S
C2616 C2618 1.327 . S
C2616 H2641 0.950 . S
C2617 C2616 1.349 . S
C2617 C2633 1.349 . S
C2618 C2616 1.327 . S
C2618 C2637 1.429 . S
C2618 H2642 0.950 . S
C2619 C2636 1.574 . S
C2619 C2638 1.368 . S
C2619 H2643 0.949 . S
H2620 C2624 0.949 . S
C2621 C2622 1.349 . S
C2621 C2623 1.327 . S
C2621 H2644 0.950 . S
C2622 C2621 1.349 . S
C2622 C2634 1.349 . S
C2623 C2621 1.327 . S
C2623 C2639 1.429 . S
C2623 H2645 0.950 . S
C2624 H2620 0.949 . S
C2624 C2632 1.574 . S
C2624 C2640 1.368 . S
H2625 C2633 0.950 . S
H2626 C2631 0.950 . S
H2627 C2632 0.949 . S
H2628 C2634 0.950 . S
H2629 C2635 0.950 . S
H2630 C2636 0.949 . S
C2631 H2626 0.950 . S
C2631 C2633 1.327 . S
C2631 C2637 1.429 . S
C2632 C2624 1.574 . S
C2632 H2627 0.949 . S
C2632 C2638 1.368 . S
C2633 C2617 1.349 . S
C2633 H2625 0.950 . S
C2633 C2631 1.327 . S
C2634 C2622 1.349 . S
C2634 H2628 0.950 . S
C2634 C2635 1.327 . S
C2635 H2629 0.950 . S
C2635 C2634 1.327 . S
C2635 C2639 1.429 . S
C2636 C2619 1.574 . S
C2636 H2630 0.949 . S
C2636 C2640 1.368 . S
C2637 C2618 1.429 . S
C2637 C2631 1.429 . S
C2637 C2638 1.523 . S
C2638 C2619 1.368 . S
C2638 C2632 1.368 . S
C2638 C2637 1.523 . S
C2639 C2623 1.429 . S
C2639 C2635 1.429 . S
C2639 C2640 1.523 . S
C2640 C2624 1.368 . S
C2640 C2636 1.368 . S
C2640 C2639 1.523 . S
H2641 C2616 0.950 . S
H2642 C2618 0.950 . S
H2643 C2619 0.949 . S
H2644 C2621 0.950 . S
H2645 C2623 0.950 . S
C2646 C2647 1.349 . S
C2646 C2648 1.327 . S
C2646 H2671 0.950 . S
C2647 C2646 1.349 . S
C2647 C2663 1.349 . S
C2648 C2646 1.327 . S
C2648 C2667 1.429 . S
C2648 H2672 0.950 . S
C2649 C2666 1.574 . S
C2649 C2668 1.368 . S
C2649 H2673 0.949 . S
H2650 C2654 0.949 . S
C2651 C2652 1.349 . S
C2651 C2653 1.327 . S
C2651 H2674 0.950 . S
C2652 C2651 1.349 . S
C2652 C2664 1.349 . S
C2653 C2651 1.327 . S
C2653 C2669 1.429 . S
C2653 H2675 0.950 . S
C2654 H2650 0.949 . S
C2654 C2662 1.574 . S
C2654 C2670 1.368 . S
H2655 C2663 0.950 . S
H2656 C2661 0.950 . S
H2657 C2662 0.949 . S
H2658 C2664 0.950 . S
H2659 C2665 0.950 . S
H2660 C2666 0.949 . S
C2661 H2656 0.950 . S
C2661 C2663 1.327 . S
C2661 C2667 1.429 . S
C2662 C2654 1.574 . S
C2662 H2657 0.949 . S
C2662 C2668 1.368 . S
C2663 C2647 1.349 . S
C2663 H2655 0.950 . S
C2663 C2661 1.327 . S
C2664 C2652 1.349 . S
C2664 H2658 0.950 . S
C2664 C2665 1.327 . S
C2665 H2659 0.950 . S
C2665 C2664 1.327 . S
C2665 C2669 1.429 . S
C2666 C2649 1.574 . S
C2666 H2660 0.949 . S
C2666 C2670 1.368 . S
C2667 C2648 1.429 . S
C2667 C2661 1.429 . S
C2667 C2668 1.523 . S
C2668 C2649 1.368 . S
C2668 C2662 1.368 . S
C2668 C2667 1.523 . S
C2669 C2653 1.429 . S
C2669 C2665 1.429 . S
C2669 C2670 1.523 . S
C2670 C2654 1.368 . S
C2670 C2666 1.368 . S
C2670 C2669 1.523 . S
H2671 C2646 0.950 . S
H2672 C2648 0.950 . S
H2673 C2649 0.949 . S
H2674 C2651 0.950 . S
H2675 C2653 0.950 . S
C2676 C2677 1.349 . S
C2676 C2678 1.327 . S
C2676 H2701 0.950 . S
C2677 C2676 1.349 . S
C2677 C2693 1.349 . S
C2678 C2676 1.327 . S
C2678 C2697 1.429 . S
C2678 H2702 0.950 . S
C2679 C2696 1.574 . S
C2679 C2698 1.368 . S
C2679 H2703 0.949 . S
H2680 C2684 0.949 . S
C2681 C2682 1.349 . S
C2681 C2683 1.327 . S
C2681 H2704 0.950 . S
C2682 C2681 1.349 . S
C2682 C2694 1.349 . S
C2683 C2681 1.327 . S
C2683 C2699 1.429 . S
C2683 H2705 0.950 . S
C2684 H2680 0.949 . S
C2684 C2692 1.574 . S
C2684 C2700 1.368 . S
H2685 C2693 0.950 . S
H2686 C2691 0.950 . S
H2687 C2692 0.949 . S
H2688 C2694 0.950 . S
H2689 C2695 0.950 . S
H2690 C2696 0.949 . S
C2691 H2686 0.950 . S
C2691 C2693 1.327 . S
C2691 C2697 1.429 . S
C2692 C2684 1.574 . S
C2692 H2687 0.949 . S
C2692 C2698 1.368 . S
C2693 C2677 1.349 . S
C2693 H2685 0.950 . S
C2693 C2691 1.327 . S
C2694 C2682 1.349 . S
C2694 H2688 0.950 . S
C2694 C2695 1.327 . S
C2695 H2689 0.950 . S
C2695 C2694 1.327 . S
C2695 C2699 1.429 . S
C2696 C2679 1.574 . S
C2696 H2690 0.949 . S
C2696 C2700 1.368 . S
C2697 C2678 1.429 . S
C2697 C2691 1.429 . S
C2697 C2698 1.523 . S
C2698 C2679 1.368 . S
C2698 C2692 1.368 . S
C2698 C2697 1.523 . S
C2699 C2683 1.429 . S
C2699 C2695 1.429 . S
C2699 C2700 1.523 . S
C2700 C2684 1.368 . S
C2700 C2696 1.368 . S
C2700 C2699 1.523 . S
H2701 C2676 0.950 . S
H2702 C2678 0.950 . S
H2703 C2679 0.949 . S
H2704 C2681 0.950 . S
H2705 C2683 0.950 . S
C2706 C2707 1.349 . S
C2706 C2708 1.327 . S
C2706 H2731 0.950 . S
C2707 C2706 1.349 . S
C2707 C2723 1.349 . S
C2708 C2706 1.327 . S
C2708 C2727 1.429 . S
C2708 H2732 0.950 . S
C2709 C2726 1.574 . S
C2709 C2728 1.368 . S
C2709 H2733 0.949 . S
H2710 C2714 0.949 . S
C2711 C2712 1.349 . S
C2711 C2713 1.327 . S
C2711 H2734 0.950 . S
C2712 C2711 1.349 . S
C2712 C2724 1.349 . S
C2713 C2711 1.327 . S
C2713 C2729 1.429 . S
C2713 H2735 0.950 . S
C2714 H2710 0.949 . S
C2714 C2722 1.574 . S
C2714 C2730 1.368 . S
H2715 C2723 0.950 . S
H2716 C2721 0.950 . S
H2717 C2722 0.949 . S
H2718 C2724 0.950 . S
H2719 C2725 0.950 . S
H2720 C2726 0.949 . S
C2721 H2716 0.950 . S
C2721 C2723 1.327 . S
C2721 C2727 1.429 . S
C2722 C2714 1.574 . S
C2722 H2717 0.949 . S
C2722 C2728 1.368 . S
C2723 C2707 1.349 . S
C2723 H2715 0.950 . S
C2723 C2721 1.327 . S
C2724 C2712 1.349 . S
C2724 H2718 0.950 . S
C2724 C2725 1.327 . S
C2725 H2719 0.950 . S
C2725 C2724 1.327 . S
C2725 C2729 1.429 . S
C2726 C2709 1.574 . S
C2726 H2720 0.949 . S
C2726 C2730 1.368 . S
C2727 C2708 1.429 . S
C2727 C2721 1.429 . S
C2727 C2728 1.523 . S
C2728 C2709 1.368 . S
C2728 C2722 1.368 . S
C2728 C2727 1.523 . S
C2729 C2713 1.429 . S
C2729 C2725 1.429 . S
C2729 C2730 1.523 . S
C2730 C2714 1.368 . S
C2730 C2726 1.368 . S
C2730 C2729 1.523 . S
H2731 C2706 0.950 . S
H2732 C2708 0.950 . S
H2733 C2709 0.949 . S
H2734 C2711 0.950 . S
H2735 C2713 0.950 . S
C2736 C2737 1.349 . S
C2736 C2738 1.327 . S
C2736 H2761 0.950 . S
C2737 C2736 1.349 . S
C2737 C2753 1.349 . S
C2738 C2736 1.327 . S
C2738 C2757 1.429 . S
C2738 H2762 0.950 . S
C2739 C2756 1.574 . S
C2739 C2758 1.368 . S
C2739 H2763 0.949 . S
H2740 C2744 0.949 . S
C2741 C2742 1.349 . S
C2741 C2743 1.327 . S
C2741 H2764 0.950 . S
C2742 C2741 1.349 . S
C2742 C2754 1.349 . S
C2743 C2741 1.327 . S
C2743 C2759 1.429 . S
C2743 H2765 0.950 . S
C2744 H2740 0.949 . S
C2744 C2752 1.574 . S
C2744 C2760 1.368 . S
H2745 C2753 0.950 . S
H2746 C2751 0.950 . S
H2747 C2752 0.949 . S
H2748 C2754 0.950 . S
H2749 C2755 0.950 . S
H2750 C2756 0.949 . S
C2751 H2746 0.950 . S
C2751 C2753 1.327 . S
C2751 C2757 1.429 . S
C2752 C2744 1.574 . S
C2752 H2747 0.949 . S
C2752 C2758 1.368 . S
C2753 C2737 1.349 . S
C2753 H2745 0.950 . S
C2753 C2751 1.327 . S
C2754 C2742 1.349 . S
C2754 H2748 0.950 . S
C2754 C2755 1.327 . S
C2755 H2749 0.950 . S
C2755 C2754 1.327 . S
C2755 C2759 1.429 . S
C2756 C2739 1.574 . S
C2756 H2750 0.949 . S
C2756 C2760 1.368 . S
C2757 C2738 1.429 . S
C2757 C2751 1.429 . S
C2757 C2758 1.523 . S
C2758 C2739 1.368 . S
C2758 C2752 1.368 . S
C2758 C2757 1.523 . S
C2759 C2743 1.429 . S
C2759 C2755 1.429 . S
C2759 C2760 1.523 . S
C2760 C2744 1.368 . S
C2760 C2756 1.368 . S
C2760 C2759 1.523 . S
H2761 C2736 0.950 . S
H2762 C2738 0.950 . S
H2763 C2739 0.949 . S
H2764 C2741 0.950 . S
H2765 C2743 0.950 . S
C2766 C2767 1.349 . S
C2766 C2768 1.327 . S
C2766 H2791 0.950 . S
C2767 C2766 1.349 . S
C2767 C2783 1.349 . S
C2768 C2766 1.327 . S
C2768 C2787 1.429 . S
C2768 H2792 0.950 . S
C2769 C2786 1.574 . S
C2769 C2788 1.368 . S
C2769 H2793 0.949 . S
H2770 C2774 0.949 . S
C2771 C2772 1.349 . S
C2771 C2773 1.327 . S
C2771 H2794 0.950 . S
C2772 C2771 1.349 . S
C2772 C2784 1.349 . S
C2773 C2771 1.327 . S
C2773 C2789 1.429 . S
C2773 H2795 0.950 . S
C2774 H2770 0.949 . S
C2774 C2782 1.574 . S
C2774 C2790 1.368 . S
H2775 C2783 0.950 . S
H2776 C2781 0.950 . S
H2777 C2782 0.949 . S
H2778 C2784 0.950 . S
H2779 C2785 0.950 . S
H2780 C2786 0.949 . S
C2781 H2776 0.950 . S
C2781 C2783 1.327 . S
C2781 C2787 1.429 . S
C2782 C2774 1.574 . S
C2782 H2777 0.949 . S
C2782 C2788 1.368 . S
C2783 C2767 1.349 . S
C2783 H2775 0.950 . S
C2783 C2781 1.327 . S
C2784 C2772 1.349 . S
C2784 H2778 0.950 . S
C2784 C2785 1.327 . S
C2785 H2779 0.950 . S
C2785 C2784 1.327 . S
C2785 C2789 1.429 . S
C2786 C2769 1.574 . S
C2786 H2780 0.949 . S
C2786 C2790 1.368 . S
C2787 C2768 1.429 . S
C2787 C2781 1.429 . S
C2787 C2788 1.523 . S
C2788 C2769 1.368 . S
C2788 C2782 1.368 . S
C2788 C2787 1.523 . S
C2789 C2773 1.429 . S
C2789 C2785 1.429 . S
C2789 C2790 1.523 . S
C2790 C2774 1.368 . S
C2790 C2786 1.368 . S
C2790 C2789 1.523 . S
H2791 C2766 0.950 . S
H2792 C2768 0.950 . S
H2793 C2769 0.949 . S
H2794 C2771 0.950 . S
H2795 C2773 0.950 . S
C2796 C2797 1.349 . S
C2796 C2798 1.327 . S
C2796 H2821 0.950 . S
C2797 C2796 1.349 . S
C2797 C2813 1.349 . S
C2798 C2796 1.327 . S
C2798 C2817 1.429 . S
C2798 H2822 0.950 . S
C2799 C2816 1.574 . S
C2799 C2818 1.368 . S
C2799 H2823 0.949 . S
H2800 C2804 0.949 . S
C2801 C2802 1.349 . S
C2801 C2803 1.327 . S
C2801 H2824 0.950 . S
C2802 C2801 1.349 . S
C2802 C2814 1.349 . S
C2803 C2801 1.327 . S
C2803 C2819 1.429 . S
C2803 H2825 0.950 . S
C2804 H2800 0.949 . S
C2804 C2812 1.574 . S
C2804 C2820 1.368 . S
H2805 C2813 0.950 . S
H2806 C2811 0.950 . S
H2807 C2812 0.949 . S
H2808 C2814 0.950 . S
H2809 C2815 0.950 . S
H2810 C2816 0.949 . S
C2811 H2806 0.950 . S
C2811 C2813 1.327 . S
C2811 C2817 1.429 . S
C2812 C2804 1.574 . S
C2812 H2807 0.949 . S
C2812 C2818 1.368 . S
C2813 C2797 1.349 . S
C2813 H2805 0.950 . S
C2813 C2811 1.327 . S
C2814 C2802 1.349 . S
C2814 H2808 0.950 . S
C2814 C2815 1.327 . S
C2815 H2809 0.950 . S
C2815 C2814 1.327 . S
C2815 C2819 1.429 . S
C2816 C2799 1.574 . S
C2816 H2810 0.949 . S
C2816 C2820 1.368 . S
C2817 C2798 1.429 . S
C2817 C2811 1.429 . S
C2817 C2818 1.523 . S
C2818 C2799 1.368 . S
C2818 C2812 1.368 . S
C2818 C2817 1.523 . S
C2819 C2803 1.429 . S
C2819 C2815 1.429 . S
C2819 C2820 1.523 . S
C2820 C2804 1.368 . S
C2820 C2816 1.368 . S
C2820 C2819 1.523 . S
H2821 C2796 0.950 . S
H2822 C2798 0.950 . S
H2823 C2799 0.949 . S
H2824 C2801 0.950 . S
H2825 C2803 0.950 . S
C2826 C2827 1.349 . S
C2826 C2828 1.327 . S
C2826 H2851 0.950 . S
C2827 C2826 1.349 . S
C2827 C2843 1.349 . S
C2828 C2826 1.327 . S
C2828 C2847 1.429 . S
C2828 H2852 0.950 . S
C2829 C2846 1.574 . S
C2829 C2848 1.368 . S
C2829 H2853 0.949 . S
H2830 C2834 0.949 . S
C2831 C2832 1.349 . S
C2831 C2833 1.327 . S
C2831 H2854 0.950 . S
C2832 C2831 1.349 . S
C2832 C2844 1.349 . S
C2833 C2831 1.327 . S
C2833 C2849 1.429 . S
C2833 H2855 0.950 . S
C2834 H2830 0.949 . S
C2834 C2842 1.574 . S
C2834 C2850 1.368 . S
H2835 C2843 0.950 . S
H2836 C2841 0.950 . S
H2837 C2842 0.949 . S
H2838 C2844 0.950 . S
H2839 C2845 0.950 . S
H2840 C2846 0.949 . S
C2841 H2836 0.950 . S
C2841 C2843 1.327 . S
C2841 C2847 1.429 . S
C2842 C2834 1.574 . S
C2842 H2837 0.949 . S
C2842 C2848 1.368 . S
C2843 C2827 1.349 . S
C2843 H2835 0.950 . S
C2843 C2841 1.327 . S
C2844 C2832 1.349 . S
C2844 H2838 0.950 . S
C2844 C2845 1.327 . S
C2845 H2839 0.950 . S
C2845 C2844 1.327 . S
C2845 C2849 1.429 . S
C2846 C2829 1.574 . S
C2846 H2840 0.949 . S
C2846 C2850 1.368 . S
C2847 C2828 1.429 . S
C2847 C2841 1.429 . S
C2847 C2848 1.523 . S
C2848 C2829 1.368 . S
C2848 C2842 1.368 . S
C2848 C2847 1.523 . S
C2849 C2833 1.429 . S
C2849 C2845 1.429 . S
C2849 C2850 1.523 . S
C2850 C2834 1.368 . S
C2850 C2846 1.368 . S
C2850 C2849 1.523 . S
H2851 C2826 0.950 . S
H2852 C2828 0.950 . S
H2853 C2829 0.949 . S
H2854 C2831 0.950 . S
H2855 C2833 0.950 . S
C2856 C2857 1.349 . S
C2856 C2858 1.327 . S
C2856 H2881 0.950 . S
C2857 C2856 1.349 . S
C2857 C2873 1.349 . S
C2858 C2856 1.327 . S
C2858 C2877 1.429 . S
C2858 H2882 0.950 . S
C2859 C2876 1.574 . S
C2859 C2878 1.368 . S
C2859 H2883 0.949 . S
H2860 C2864 0.949 . S
C2861 C2862 1.349 . S
C2861 C2863 1.327 . S
C2861 H2884 0.950 . S
C2862 C2861 1.349 . S
C2862 C2874 1.349 . S
C2863 C2861 1.327 . S
C2863 C2879 1.429 . S
C2863 H2885 0.950 . S
C2864 H2860 0.949 . S
C2864 C2872 1.574 . S
C2864 C2880 1.368 . S
H2865 C2873 0.950 . S
H2866 C2871 0.950 . S
H2867 C2872 0.949 . S
H2868 C2874 0.950 . S
H2869 C2875 0.950 . S
H2870 C2876 0.949 . S
C2871 H2866 0.950 . S
C2871 C2873 1.327 . S
C2871 C2877 1.429 . S
C2872 C2864 1.574 . S
C2872 H2867 0.949 . S
C2872 C2878 1.368 . S
C2873 C2857 1.349 . S
C2873 H2865 0.950 . S
C2873 C2871 1.327 . S
C2874 C2862 1.349 . S
C2874 H2868 0.950 . S
C2874 C2875 1.327 . S
C2875 H2869 0.950 . S
C2875 C2874 1.327 . S
C2875 C2879 1.429 . S
C2876 C2859 1.574 . S
C2876 H2870 0.949 . S
C2876 C2880 1.368 . S
C2877 C2858 1.429 . S
C2877 C2871 1.429 . S
C2877 C2878 1.523 . S
C2878 C2859 1.368 . S
C2878 C2872 1.368 . S
C2878 C2877 1.523 . S
C2879 C2863 1.429 . S
C2879 C2875 1.429 . S
C2879 C2880 1.523 . S
C2880 C2864 1.368 . S
C2880 C2876 1.368 . S
C2880 C2879 1.523 . S
H2881 C2856 0.950 . S
H2882 C2858 0.950 . S
H2883 C2859 0.949 . S
H2884 C2861 0.950 . S
H2885 C2863 0.950 . S
C2886 C2887 1.349 . S
C2886 C2888 1.327 . S
C2886 H2911 0.950 . S
C2887 C2886 1.349 . S
C2887 C2903 1.349 . S
C2888 C2886 1.327 . S
C2888 C2907 1.429 . S
C2888 H2912 0.950 . S
C2889 C2906 1.574 . S
C2889 C2908 1.368 . S
C2889 H2913 0.949 . S
H2890 C2894 0.949 . S
C2891 C2892 1.349 . S
C2891 C2893 1.327 . S
C2891 H2914 0.950 . S
C2892 C2891 1.349 . S
C2892 C2904 1.349 . S
C2893 C2891 1.327 . S
C2893 C2909 1.429 . S
C2893 H2915 0.950 . S
C2894 H2890 0.949 . S
C2894 C2902 1.574 . S
C2894 C2910 1.368 . S
H2895 C2903 0.950 . S
H2896 C2901 0.950 . S
H2897 C2902 0.949 . S
H2898 C2904 0.950 . S
H2899 C2905 0.950 . S
H2900 C2906 0.949 . S
C2901 H2896 0.950 . S
C2901 C2903 1.327 . S
C2901 C2907 1.429 . S
C2902 C2894 1.574 . S
C2902 H2897 0.949 . S
C2902 C2908 1.368 . S
C2903 C2887 1.349 . S
C2903 H2895 0.950 . S
C2903 C2901 1.327 . S
C2904 C2892 1.349 . S
C2904 H2898 0.950 . S
C2904 C2905 1.327 . S
C2905 H2899 0.950 . S
C2905 C2904 1.327 . S
C2905 C2909 1.429 . S
C2906 C2889 1.574 . S
C2906 H2900 0.949 . S
C2906 C2910 1.368 . S
C2907 C2888 1.429 . S
C2907 C2901 1.429 . S
C2907 C2908 1.523 . S
C2908 C2889 1.368 . S
C2908 C2902 1.368 . S
C2908 C2907 1.523 . S
C2909 C2893 1.429 . S
C2909 C2905 1.429 . S
C2909 C2910 1.523 . S
C2910 C2894 1.368 . S
C2910 C2906 1.368 . S
C2910 C2909 1.523 . S
H2911 C2886 0.950 . S
H2912 C2888 0.950 . S
H2913 C2889 0.949 . S
H2914 C2891 0.950 . S
H2915 C2893 0.950 . S
C2916 C2917 1.349 . S
C2916 C2918 1.327 . S
C2916 H2941 0.950 . S
C2917 C2916 1.349 . S
C2917 C2933 1.349 . S
C2918 C2916 1.327 . S
C2918 C2937 1.429 . S
C2918 H2942 0.950 . S
C2919 C2936 1.574 . S
C2919 C2938 1.368 . S
C2919 H2943 0.949 . S
H2920 C2924 0.949 . S
C2921 C2922 1.349 . S
C2921 C2923 1.327 . S
C2921 H2944 0.950 . S
C2922 C2921 1.349 . S
C2922 C2934 1.349 . S
C2923 C2921 1.327 . S
C2923 C2939 1.429 . S
C2923 H2945 0.950 . S
C2924 H2920 0.949 . S
C2924 C2932 1.574 . S
C2924 C2940 1.368 . S
H2925 C2933 0.950 . S
H2926 C2931 0.950 . S
H2927 C2932 0.949 . S
H2928 C2934 0.950 . S
H2929 C2935 0.950 . S
H2930 C2936 0.949 . S
C2931 H2926 0.950 . S
C2931 C2933 1.327 . S
C2931 C2937 1.429 . S
C2932 C2924 1.574 . S
C2932 H2927 0.949 . S
C2932 C2938 1.368 . S
C2933 C2917 1.349 . S
C2933 H2925 0.950 . S
C2933 C2931 1.327 . S
C2934 C2922 1.349 . S
C2934 H2928 0.950 . S
C2934 C2935 1.327 . S
C2935 H2929 0.950 . S
C2935 C2934 1.327 . S
C2935 C2939 1.429 . S
C2936 C2919 1.574 . S
C2936 H2930 0.949 . S
C2936 C2940 1.368 . S
C2937 C2918 1.429 . S
C2937 C2931 1.429 . S
C2937 C2938 1.523 . S
C2938 C2919 1.368 . S
C2938 C2932 1.368 . S
C2938 C2937 1.523 . S
C2939 C2923 1.429 . S
C2939 C2935 1.429 . S
C2939 C2940 1.523 . S
C2940 C2924 1.368 . S
C2940 C2936 1.368 . S
C2940 C2939 1.523 . S
H2941 C2916 0.950 . S
H2942 C2918 0.950 . S
H2943 C2919 0.949 . S
H2944 C2921 0.950 . S
H2945 C2923 0.950 . S
C2946 C2947 1.349 . S
C2946 C2948 1.327 . S
C2946 H2971 0.950 . S
C2947 C2946 1.349 . S
C2947 C2963 1.349 . S
C2948 C2946 1.327 . S
C2948 C2967 1.429 . S
C2948 H2972 0.950 . S
C2949 C2966 1.574 . S
C2949 C2968 1.368 . S
C2949 H2973 0.949 . S
H2950 C2954 0.949 . S
C2951 C2952 1.349 . S
C2951 C2953 1.327 . S
C2951 H2974 0.950 . S
C2952 C2951 1.349 . S
C2952 C2964 1.349 . S
C2953 C2951 1.327 . S
C2953 C2969 1.429 . S
C2953 H2975 0.950 . S
C2954 H2950 0.949 . S
C2954 C2962 1.574 . S
C2954 C2970 1.368 . S
H2955 C2963 0.950 . S
H2956 C2961 0.950 . S
H2957 C2962 0.949 . S
H2958 C2964 0.950 . S
H2959 C2965 0.950 . S
H2960 C2966 0.949 . S
C2961 H2956 0.950 . S
C2961 C2963 1.327 . S
C2961 C2967 1.429 . S
C2962 C2954 1.574 . S
C2962 H2957 0.949 . S
C2962 C2968 1.368 . S
C2963 C2947 1.349 . S
C2963 H2955 0.950 . S
C2963 C2961 1.327 . S
C2964 C2952 1.349 . S
C2964 H2958 0.950 . S
C2964 C2965 1.327 . S
C2965 H2959 0.950 . S
C2965 C2964 1.327 . S
C2965 C2969 1.429 . S
C2966 C2949 1.574 . S
C2966 H2960 0.949 . S
C2966 C2970 1.368 . S
C2967 C2948 1.429 . S
C2967 C2961 1.429 . S
C2967 C2968 1.523 . S
C2968 C2949 1.368 . S
C2968 C2962 1.368 . S
C2968 C2967 1.523 . S
C2969 C2953 1.429 . S
C2969 C2965 1.429 . S
C2969 C2970 1.523 . S
C2970 C2954 1.368 . S
C2970 C2966 1.368 . S
C2970 C2969 1.523 . S
H2971 C2946 0.950 . S
H2972 C2948 0.950 . S
H2973 C2949 0.949 . S
H2974 C2951 0.950 . S
H2975 C2953 0.950 . S
C2976 C2977 1.349 . S
C2976 C2978 1.327 . S
C2976 H3001 0.950 . S
C2977 C2976 1.349 . S
C2977 C2993 1.349 . S
C2978 C2976 1.327 . S
C2978 C2997 1.429 . S
C2978 H3002 0.950 . S
C2979 C2996 1.574 . S
C2979 C2998 1.368 . S
C2979 H3003 0.949 . S
H2980 C2984 0.949 . S
C2981 C2982 1.349 . S
C2981 C2983 1.327 . S
C2981 H3004 0.950 . S
C2982 C2981 1.349 . S
C2982 C2994 1.349 . S
C2983 C2981 1.327 . S
C2983 C2999 1.429 . S
C2983 H3005 0.950 . S
C2984 H2980 0.949 . S
C2984 C2992 1.574 . S
C2984 C3000 1.368 . S
H2985 C2993 0.950 . S
H2986 C2991 0.950 . S
H2987 C2992 0.949 . S
H2988 C2994 0.950 . S
H2989 C2995 0.950 . S
H2990 C2996 0.949 . S
C2991 H2986 0.950 . S
C2991 C2993 1.327 . S
C2991 C2997 1.429 . S
C2992 C2984 1.574 . S
C2992 H2987 0.949 . S
C2992 C2998 1.368 . S
C2993 C2977 1.349 . S
C2993 H2985 0.950 . S
C2993 C2991 1.327 . S
C2994 C2982 1.349 . S
C2994 H2988 0.950 . S
C2994 C2995 1.327 . S
C2995 H2989 0.950 . S
C2995 C2994 1.327 . S
C2995 C2999 1.429 . S
C2996 C2979 1.574 . S
C2996 H2990 0.949 . S
C2996 C3000 1.368 . S
C2997 C2978 1.429 . S
C2997 C2991 1.429 . S
C2997 C2998 1.523 . S
C2998 C2979 1.368 . S
C2998 C2992 1.368 . S
C2998 C2997 1.523 . S
C2999 C2983 1.429 . S
C2999 C2995 1.429 . S
C2999 C3000 1.523 . S
C3000 C2984 1.368 . S
C3000 C2996 1.368 . S
C3000 C2999 1.523 . S
H3001 C2976 0.950 . S
H3002 C2978 0.950 . S
H3003 C2979 0.949 . S
H3004 C2981 0.950 . S
H3005 C2983 0.950 . S
C3006 C3007 1.349 . S
C3006 C3008 1.327 . S
C3006 H3031 0.950 . S
C3007 C3006 1.349 . S
C3007 C3023 1.349 . S
C3008 C3006 1.327 . S
C3008 C3027 1.429 . S
C3008 H3032 0.950 . S
C3009 C3026 1.574 . S
C3009 C3028 1.368 . S
C3009 H3033 0.949 . S
H3010 C3014 0.949 . S
C3011 C3012 1.349 . S
C3011 C3013 1.327 . S
C3011 H3034 0.950 . S
C3012 C3011 1.349 . S
C3012 C3024 1.349 . S
C3013 C3011 1.327 . S
C3013 C3029 1.429 . S
C3013 H3035 0.950 . S
C3014 H3010 0.949 . S
C3014 C3022 1.574 . S
C3014 C3030 1.368 . S
H3015 C3023 0.950 . S
H3016 C3021 0.950 . S
H3017 C3022 0.949 . S
H3018 C3024 0.950 . S
H3019 C3025 0.950 . S
H3020 C3026 0.949 . S
C3021 H3016 0.950 . S
C3021 C3023 1.327 . S
C3021 C3027 1.429 . S
C3022 C3014 1.574 . S
C3022 H3017 0.949 . S
C3022 C3028 1.368 . S
C3023 C3007 1.349 . S
C3023 H3015 0.950 . S
C3023 C3021 1.327 . S
C3024 C3012 1.349 . S
C3024 H3018 0.950 . S
C3024 C3025 1.327 . S
C3025 H3019 0.950 . S
C3025 C3024 1.327 . S
C3025 C3029 1.429 . S
C3026 C3009 1.574 . S
C3026 H3020 0.949 . S
C3026 C3030 1.368 . S
C3027 C3008 1.429 . S
C3027 C3021 1.429 . S
C3027 C3028 1.523 . S
C3028 C3009 1.368 . S
C3028 C3022 1.368 . S
C3028 C3027 1.523 . S
C3029 C3013 1.429 . S
C3029 C3025 1.429 . S
C3029 C3030 1.523 . S
C3030 C3014 1.368 . S
C3030 C3026 1.368 . S
C3030 C3029 1.523 . S
H3031 C3006 0.950 . S
H3032 C3008 0.950 . S
H3033 C3009 0.949 . S
H3034 C3011 0.950 . S
H3035 C3013 0.950 . S
C3036 C3037 1.349 . S
C3036 C3038 1.327 . S
C3036 H3061 0.950 . S
C3037 C3036 1.349 . S
C3037 C3053 1.349 . S
C3038 C3036 1.327 . S
C3038 C3057 1.429 . S
C3038 H3062 0.950 . S
C3039 C3056 1.574 . S
C3039 C3058 1.368 . S
C3039 H3063 0.949 . S
H3040 C3044 0.949 . S
C3041 C3042 1.349 . S
C3041 C3043 1.327 . S
C3041 H3064 0.950 . S
C3042 C3041 1.349 . S
C3042 C3054 1.349 . S
C3043 C3041 1.327 . S
C3043 C3059 1.429 . S
C3043 H3065 0.950 . S
C3044 H3040 0.949 . S
C3044 C3052 1.574 . S
C3044 C3060 1.368 . S
H3045 C3053 0.950 . S
H3046 C3051 0.950 . S
H3047 C3052 0.949 . S
H3048 C3054 0.950 . S
H3049 C3055 0.950 . S
H3050 C3056 0.949 . S
C3051 H3046 0.950 . S
C3051 C3053 1.327 . S
C3051 C3057 1.429 . S
C3052 C3044 1.574 . S
C3052 H3047 0.949 . S
C3052 C3058 1.368 . S
C3053 C3037 1.349 . S
C3053 H3045 0.950 . S
C3053 C3051 1.327 . S
C3054 C3042 1.349 . S
C3054 H3048 0.950 . S
C3054 C3055 1.327 . S
C3055 H3049 0.950 . S
C3055 C3054 1.327 . S
C3055 C3059 1.429 . S
C3056 C3039 1.574 . S
C3056 H3050 0.949 . S
C3056 C3060 1.368 . S
C3057 C3038 1.429 . S
C3057 C3051 1.429 . S
C3057 C3058 1.523 . S
C3058 C3039 1.368 . S
C3058 C3052 1.368 . S
C3058 C3057 1.523 . S
C3059 C3043 1.429 . S
C3059 C3055 1.429 . S
C3059 C3060 1.523 . S
C3060 C3044 1.368 . S
C3060 C3056 1.368 . S
C3060 C3059 1.523 . S
H3061 C3036 0.950 . S
H3062 C3038 0.950 . S
H3063 C3039 0.949 . S
H3064 C3041 0.950 . S
H3065 C3043 0.950 . S
C3066 C3067 1.349 . S
C3066 C3068 1.327 . S
C3066 H3091 0.950 . S
C3067 C3066 1.349 . S
C3067 C3083 1.349 . S
C3068 C3066 1.327 . S
C3068 C3087 1.429 . S
C3068 H3092 0.950 . S
C3069 C3086 1.574 . S
C3069 C3088 1.368 . S
C3069 H3093 0.949 . S
H3070 C3074 0.949 . S
C3071 C3072 1.349 . S
C3071 C3073 1.327 . S
C3071 H3094 0.950 . S
C3072 C3071 1.349 . S
C3072 C3084 1.349 . S
C3073 C3071 1.327 . S
C3073 C3089 1.429 . S
C3073 H3095 0.950 . S
C3074 H3070 0.949 . S
C3074 C3082 1.574 . S
C3074 C3090 1.368 . S
H3075 C3083 0.950 . S
H3076 C3081 0.950 . S
H3077 C3082 0.949 . S
H3078 C3084 0.950 . S
H3079 C3085 0.950 . S
H3080 C3086 0.949 . S
C3081 H3076 0.950 . S
C3081 C3083 1.327 . S
C3081 C3087 1.429 . S
C3082 C3074 1.574 . S
C3082 H3077 0.949 . S
C3082 C3088 1.368 . S
C3083 C3067 1.349 . S
C3083 H3075 0.950 . S
C3083 C3081 1.327 . S
C3084 C3072 1.349 . S
C3084 H3078 0.950 . S
C3084 C3085 1.327 . S
C3085 H3079 0.950 . S
C3085 C3084 1.327 . S
C3085 C3089 1.429 . S
C3086 C3069 1.574 . S
C3086 H3080 0.949 . S
C3086 C3090 1.368 . S
C3087 C3068 1.429 . S
C3087 C3081 1.429 . S
C3087 C3088 1.523 . S
C3088 C3069 1.368 . S
C3088 C3082 1.368 . S
C3088 C3087 1.523 . S
C3089 C3073 1.429 . S
C3089 C3085 1.429 . S
C3089 C3090 1.523 . S
C3090 C3074 1.368 . S
C3090 C3086 1.368 . S
C3090 C3089 1.523 . S
H3091 C3066 0.950 . S
H3092 C3068 0.950 . S
H3093 C3069 0.949 . S
H3094 C3071 0.950 . S
H3095 C3073 0.950 . S
C3096 C3097 1.349 . S
C3096 C3098 1.327 . S
C3096 H3121 0.950 . S
C3097 C3096 1.349 . S
C3097 C3113 1.349 . S
C3098 C3096 1.327 . S
C3098 C3117 1.429 . S
C3098 H3122 0.950 . S
C3099 C3116 1.574 . S
C3099 C3118 1.368 . S
C3099 H3123 0.949 . S
H3100 C3104 0.949 . S
C3101 C3102 1.349 . S
C3101 C3103 1.327 . S
C3101 H3124 0.950 . S
C3102 C3101 1.349 . S
C3102 C3114 1.349 . S
C3103 C3101 1.327 . S
C3103 C3119 1.429 . S
C3103 H3125 0.950 . S
C3104 H3100 0.949 . S
C3104 C3112 1.574 . S
C3104 C3120 1.368 . S
H3105 C3113 0.950 . S
H3106 C3111 0.950 . S
H3107 C3112 0.949 . S
H3108 C3114 0.950 . S
H3109 C3115 0.950 . S
H3110 C3116 0.949 . S
C3111 H3106 0.950 . S
C3111 C3113 1.327 . S
C3111 C3117 1.429 . S
C3112 C3104 1.574 . S
C3112 H3107 0.949 . S
C3112 C3118 1.368 . S
C3113 C3097 1.349 . S
C3113 H3105 0.950 . S
C3113 C3111 1.327 . S
C3114 C3102 1.349 . S
C3114 H3108 0.950 . S
C3114 C3115 1.327 . S
C3115 H3109 0.950 . S
C3115 C3114 1.327 . S
C3115 C3119 1.429 . S
C3116 C3099 1.574 . S
C3116 H3110 0.949 . S
C3116 C3120 1.368 . S
C3117 C3098 1.429 . S
C3117 C3111 1.429 . S
C3117 C3118 1.523 . S
C3118 C3099 1.368 . S
C3118 C3112 1.368 . S
C3118 C3117 1.523 . S
C3119 C3103 1.429 . S
C3119 C3115 1.429 . S
C3119 C3120 1.523 . S
C3120 C3104 1.368 . S
C3120 C3116 1.368 . S
C3120 C3119 1.523 . S
H3121 C3096 0.950 . S
H3122 C3098 0.950 . S
H3123 C3099 0.949 . S
H3124 C3101 0.950 . S
H3125 C3103 0.950 . S
C3126 C3127 1.349 . S
C3126 C3128 1.327 . S
C3126 H3151 0.950 . S
C3127 C3126 1.349 . S
C3127 C3143 1.349 . S
C3128 C3126 1.327 . S
C3128 C3147 1.429 . S
C3128 H3152 0.950 . S
C3129 C3146 1.574 . S
C3129 C3148 1.368 . S
C3129 H3153 0.949 . S
H3130 C3134 0.949 . S
C3131 C3132 1.349 . S
C3131 C3133 1.327 . S
C3131 H3154 0.950 . S
C3132 C3131 1.349 . S
C3132 C3144 1.349 . S
C3133 C3131 1.327 . S
C3133 C3149 1.429 . S
C3133 H3155 0.950 . S
C3134 H3130 0.949 . S
C3134 C3142 1.574 . S
C3134 C3150 1.368 . S
H3135 C3143 0.950 . S
H3136 C3141 0.950 . S
H3137 C3142 0.949 . S
H3138 C3144 0.950 . S
H3139 C3145 0.950 . S
H3140 C3146 0.949 . S
C3141 H3136 0.950 . S
C3141 C3143 1.327 . S
C3141 C3147 1.429 . S
C3142 C3134 1.574 . S
C3142 H3137 0.949 . S
C3142 C3148 1.368 . S
C3143 C3127 1.349 . S
C3143 H3135 0.950 . S
C3143 C3141 1.327 . S
C3144 C3132 1.349 . S
C3144 H3138 0.950 . S
C3144 C3145 1.327 . S
C3145 H3139 0.950 . S
C3145 C3144 1.327 . S
C3145 C3149 1.429 . S
C3146 C3129 1.574 . S
C3146 H3140 0.949 . S
C3146 C3150 1.368 . S
C3147 C3128 1.429 . S
C3147 C3141 1.429 . S
C3147 C3148 1.523 . S
C3148 C3129 1.368 . S
C3148 C3142 1.368 . S
C3148 C3147 1.523 . S
C3149 C3133 1.429 . S
C3149 C3145 1.429 . S
C3149 C3150 1.523 . S
C3150 C3134 1.368 . S
C3150 C3146 1.368 . S
C3150 C3149 1.523 . S
H3151 C3126 0.950 . S
H3152 C3128 0.950 . S
H3153 C3129 0.949 . S
H3154 C3131 0.950 . S
H3155 C3133 0.950 . S
C3156 C3157 1.349 . S
C3156 C3158 1.327 . S
C3156 H3181 0.950 . S
C3157 C3156 1.349 . S
C3157 C3173 1.349 . S
C3158 C3156 1.327 . S
C3158 C3177 1.429 . S
C3158 H3182 0.950 . S
C3159 C3176 1.574 . S
C3159 C3178 1.368 . S
C3159 H3183 0.949 . S
H3160 C3164 0.949 . S
C3161 C3162 1.349 . S
C3161 C3163 1.327 . S
C3161 H3184 0.950 . S
C3162 C3161 1.349 . S
C3162 C3174 1.349 . S
C3163 C3161 1.327 . S
C3163 C3179 1.429 . S
C3163 H3185 0.950 . S
C3164 H3160 0.949 . S
C3164 C3172 1.574 . S
C3164 C3180 1.368 . S
H3165 C3173 0.950 . S
H3166 C3171 0.950 . S
H3167 C3172 0.949 . S
H3168 C3174 0.950 . S
H3169 C3175 0.950 . S
H3170 C3176 0.949 . S
C3171 H3166 0.950 . S
C3171 C3173 1.327 . S
C3171 C3177 1.429 . S
C3172 C3164 1.574 . S
C3172 H3167 0.949 . S
C3172 C3178 1.368 . S
C3173 C3157 1.349 . S
C3173 H3165 0.950 . S
C3173 C3171 1.327 . S
C3174 C3162 1.349 . S
C3174 H3168 0.950 . S
C3174 C3175 1.327 . S
C3175 H3169 0.950 . S
C3175 C3174 1.327 . S
C3175 C3179 1.429 . S
C3176 C3159 1.574 . S
C3176 H3170 0.949 . S
C3176 C3180 1.368 . S
C3177 C3158 1.429 . S
C3177 C3171 1.429 . S
C3177 C3178 1.523 . S
C3178 C3159 1.368 . S
C3178 C3172 1.368 . S
C3178 C3177 1.523 . S
C3179 C3163 1.429 . S
C3179 C3175 1.429 . S
C3179 C3180 1.523 . S
C3180 C3164 1.368 . S
C3180 C3176 1.368 . S
C3180 C3179 1.523 . S
H3181 C3156 0.950 . S
H3182 C3158 0.950 . S
H3183 C3159 0.949 . S
H3184 C3161 0.950 . S
H3185 C3163 0.950 . S
C3186 C3187 1.349 . S
C3186 C3188 1.327 . S
C3186 H3211 0.950 . S
C3187 C3186 1.349 . S
C3187 C3203 1.349 . S
C3188 C3186 1.327 . S
C3188 C3207 1.429 . S
C3188 H3212 0.950 . S
C3189 C3206 1.574 . S
C3189 C3208 1.368 . S
C3189 H3213 0.949 . S
H3190 C3194 0.949 . S
C3191 C3192 1.349 . S
C3191 C3193 1.327 . S
C3191 H3214 0.950 . S
C3192 C3191 1.349 . S
C3192 C3204 1.349 . S
C3193 C3191 1.327 . S
C3193 C3209 1.429 . S
C3193 H3215 0.950 . S
C3194 H3190 0.949 . S
C3194 C3202 1.574 . S
C3194 C3210 1.368 . S
H3195 C3203 0.950 . S
H3196 C3201 0.950 . S
H3197 C3202 0.949 . S
H3198 C3204 0.950 . S
H3199 C3205 0.950 . S
H3200 C3206 0.949 . S
C3201 H3196 0.950 . S
C3201 C3203 1.327 . S
C3201 C3207 1.429 . S
C3202 C3194 1.574 . S
C3202 H3197 0.949 . S
C3202 C3208 1.368 . S
C3203 C3187 1.349 . S
C3203 H3195 0.950 . S
C3203 C3201 1.327 . S
C3204 C3192 1.349 . S
C3204 H3198 0.950 . S
C3204 C3205 1.327 . S
C3205 H3199 0.950 . S
C3205 C3204 1.327 . S
C3205 C3209 1.429 . S
C3206 C3189 1.574 . S
C3206 H3200 0.949 . S
C3206 C3210 1.368 . S
C3207 C3188 1.429 . S
C3207 C3201 1.429 . S
C3207 C3208 1.523 . S
C3208 C3189 1.368 . S
C3208 C3202 1.368 . S
C3208 C3207 1.523 . S
C3209 C3193 1.429 . S
C3209 C3205 1.429 . S
C3209 C3210 1.523 . S
C3210 C3194 1.368 . S
C3210 C3206 1.368 . S
C3210 C3209 1.523 . S
H3211 C3186 0.950 . S
H3212 C3188 0.950 . S
H3213 C3189 0.949 . S
H3214 C3191 0.950 . S
H3215 C3193 0.950 . S
C3216 C3217 1.349 . S
C3216 C3218 1.327 . S
C3216 H3241 0.950 . S
C3217 C3216 1.349 . S
C3217 C3233 1.349 . S
C3218 C3216 1.327 . S
C3218 C3237 1.429 . S
C3218 H3242 0.950 . S
C3219 C3236 1.574 . S
C3219 C3238 1.368 . S
C3219 H3243 0.949 . S
H3220 C3224 0.949 . S
C3221 C3222 1.349 . S
C3221 C3223 1.327 . S
C3221 H3244 0.950 . S
C3222 C3221 1.349 . S
C3222 C3234 1.349 . S
C3223 C3221 1.327 . S
C3223 C3239 1.429 . S
C3223 H3245 0.950 . S
C3224 H3220 0.949 . S
C3224 C3232 1.574 . S
C3224 C3240 1.368 . S
H3225 C3233 0.950 . S
H3226 C3231 0.950 . S
H3227 C3232 0.949 . S
H3228 C3234 0.950 . S
H3229 C3235 0.950 . S
H3230 C3236 0.949 . S
C3231 H3226 0.950 . S
C3231 C3233 1.327 . S
C3231 C3237 1.429 . S
C3232 C3224 1.574 . S
C3232 H3227 0.949 . S
C3232 C3238 1.368 . S
C3233 C3217 1.349 . S
C3233 H3225 0.950 . S
C3233 C3231 1.327 . S
C3234 C3222 1.349 . S
C3234 H3228 0.950 . S
C3234 C3235 1.327 . S
C3235 H3229 0.950 . S
C3235 C3234 1.327 . S
C3235 C3239 1.429 . S
C3236 C3219 1.574 . S
C3236 H3230 0.949 . S
C3236 C3240 1.368 . S
C3237 C3218 1.429 . S
C3237 C3231 1.429 . S
C3237 C3238 1.523 . S
C3238 C3219 1.368 . S
C3238 C3232 1.368 . S
C3238 C3237 1.523 . S
C3239 C3223 1.429 . S
C3239 C3235 1.429 . S
C3239 C3240 1.523 . S
C3240 C3224 1.368 . S
C3240 C3236 1.368 . S
C3240 C3239 1.523 . S
H3241 C3216 0.950 . S
H3242 C3218 0.950 . S
H3243 C3219 0.949 . S
H3244 C3221 0.950 . S
H3245 C3223 0.950 . S
C3246 C3247 1.349 . S
C3246 C3248 1.327 . S
C3246 H3271 0.950 . S
C3247 C3246 1.349 . S
C3247 C3263 1.349 . S
C3248 C3246 1.327 . S
C3248 C3267 1.429 . S
C3248 H3272 0.950 . S
C3249 C3266 1.574 . S
C3249 C3268 1.368 . S
C3249 H3273 0.949 . S
H3250 C3254 0.949 . S
C3251 C3252 1.349 . S
C3251 C3253 1.327 . S
C3251 H3274 0.950 . S
C3252 C3251 1.349 . S
C3252 C3264 1.349 . S
C3253 C3251 1.327 . S
C3253 C3269 1.429 . S
C3253 H3275 0.950 . S
C3254 H3250 0.949 . S
C3254 C3262 1.574 . S
C3254 C3270 1.368 . S
H3255 C3263 0.950 . S
H3256 C3261 0.950 . S
H3257 C3262 0.949 . S
H3258 C3264 0.950 . S
H3259 C3265 0.950 . S
H3260 C3266 0.949 . S
C3261 H3256 0.950 . S
C3261 C3263 1.327 . S
C3261 C3267 1.429 . S
C3262 C3254 1.574 . S
C3262 H3257 0.949 . S
C3262 C3268 1.368 . S
C3263 C3247 1.349 . S
C3263 H3255 0.950 . S
C3263 C3261 1.327 . S
C3264 C3252 1.349 . S
C3264 H3258 0.950 . S
C3264 C3265 1.327 . S
C3265 H3259 0.950 . S
C3265 C3264 1.327 . S
C3265 C3269 1.429 . S
C3266 C3249 1.574 . S
C3266 H3260 0.949 . S
C3266 C3270 1.368 . S
C3267 C3248 1.429 . S
C3267 C3261 1.429 . S
C3267 C3268 1.523 . S
C3268 C3249 1.368 . S
C3268 C3262 1.368 . S
C3268 C3267 1.523 . S
C3269 C3253 1.429 . S
C3269 C3265 1.429 . S
C3269 C3270 1.523 . S
C3270 C3254 1.368 . S
C3270 C3266 1.368 . S
C3270 C3269 1.523 . S
H3271 C3246 0.950 . S
H3272 C3248 0.950 . S
H3273 C3249 0.949 . S
H3274 C3251 0.950 . S
H3275 C3253 0.950 . S
C3276 C3277 1.349 . S
C3276 C3278 1.327 . S
C3276 H3301 0.950 . S
C3277 C3276 1.349 . S
C3277 C3293 1.349 . S
C3278 C3276 1.327 . S
C3278 C3297 1.429 . S
C3278 H3302 0.950 . S
C3279 C3296 1.574 . S
C3279 C3298 1.368 . S
C3279 H3303 0.949 . S
H3280 C3284 0.949 . S
C3281 C3282 1.349 . S
C3281 C3283 1.327 . S
C3281 H3304 0.950 . S
C3282 C3281 1.349 . S
C3282 C3294 1.349 . S
C3283 C3281 1.327 . S
C3283 C3299 1.429 . S
C3283 H3305 0.950 . S
C3284 H3280 0.949 . S
C3284 C3292 1.574 . S
C3284 C3300 1.368 . S
H3285 C3293 0.950 . S
H3286 C3291 0.950 . S
H3287 C3292 0.949 . S
H3288 C3294 0.950 . S
H3289 C3295 0.950 . S
H3290 C3296 0.949 . S
C3291 H3286 0.950 . S
C3291 C3293 1.327 . S
C3291 C3297 1.429 . S
C3292 C3284 1.574 . S
C3292 H3287 0.949 . S
C3292 C3298 1.368 . S
C3293 C3277 1.349 . S
C3293 H3285 0.950 . S
C3293 C3291 1.327 . S
C3294 C3282 1.349 . S
C3294 H3288 0.950 . S
C3294 C3295 1.327 . S
C3295 H3289 0.950 . S
C3295 C3294 1.327 . S
C3295 C3299 1.429 . S
C3296 C3279 1.574 . S
C3296 H3290 0.949 . S
C3296 C3300 1.368 . S
C3297 C3278 1.429 . S
C3297 C3291 1.429 . S
C3297 C3298 1.523 . S
C3298 C3279 1.368 . S
C3298 C3292 1.368 . S
C3298 C3297 1.523 . S
C3299 C3283 1.429 . S
C3299 C3295 1.429 . S
C3299 C3300 1.523 . S
C3300 C3284 1.368 . S
C3300 C3296 1.368 . S
C3300 C3299 1.523 . S
H3301 C3276 0.950 . S
H3302 C3278 0.950 . S
H3303 C3279 0.949 . S
H3304 C3281 0.950 . S
H3305 C3283 0.950 . S
C3306 C3307 1.349 . S
C3306 C3308 1.327 . S
C3306 H3331 0.950 . S
C3307 C3306 1.349 . S
C3307 C3323 1.349 . S
C3308 C3306 1.327 . S
C3308 C3327 1.429 . S
C3308 H3332 0.950 . S
C3309 C3326 1.574 . S
C3309 C3328 1.368 . S
C3309 H3333 0.949 . S
H3310 C3314 0.949 . S
C3311 C3312 1.349 . S
C3311 C3313 1.327 . S
C3311 H3334 0.950 . S
C3312 C3311 1.349 . S
C3312 C3324 1.349 . S
C3313 C3311 1.327 . S
C3313 C3329 1.429 . S
C3313 H3335 0.950 . S
C3314 H3310 0.949 . S
C3314 C3322 1.574 . S
C3314 C3330 1.368 . S
H3315 C3323 0.950 . S
H3316 C3321 0.950 . S
H3317 C3322 0.949 . S
H3318 C3324 0.950 . S
H3319 C3325 0.950 . S
H3320 C3326 0.949 . S
C3321 H3316 0.950 . S
C3321 C3323 1.327 . S
C3321 C3327 1.429 . S
C3322 C3314 1.574 . S
C3322 H3317 0.949 . S
C3322 C3328 1.368 . S
C3323 C3307 1.349 . S
C3323 H3315 0.950 . S
C3323 C3321 1.327 . S
C3324 C3312 1.349 . S
C3324 H3318 0.950 . S
C3324 C3325 1.327 . S
C3325 H3319 0.950 . S
C3325 C3324 1.327 . S
C3325 C3329 1.429 . S
C3326 C3309 1.574 . S
C3326 H3320 0.949 . S
C3326 C3330 1.368 . S
C3327 C3308 1.429 . S
C3327 C3321 1.429 . S
C3327 C3328 1.523 . S
C3328 C3309 1.368 . S
C3328 C3322 1.368 . S
C3328 C3327 1.523 . S
C3329 C3313 1.429 . S
C3329 C3325 1.429 . S
C3329 C3330 1.523 . S
C3330 C3314 1.368 . S
C3330 C3326 1.368 . S
C3330 C3329 1.523 . S
H3331 C3306 0.950 . S
H3332 C3308 0.950 . S
H3333 C3309 0.949 . S
H3334 C3311 0.950 . S
H3335 C3313 0.950 . S
C3336 C3337 1.349 . S
C3336 C3338 1.327 . S
C3336 H3361 0.950 . S
C3337 C3336 1.349 . S
C3337 C3353 1.349 . S
C3338 C3336 1.327 . S
C3338 C3357 1.429 . S
C3338 H3362 0.950 . S
C3339 C3356 1.574 . S
C3339 C3358 1.368 . S
C3339 H3363 0.949 . S
H3340 C3344 0.949 . S
C3341 C3342 1.349 . S
C3341 C3343 1.327 . S
C3341 H3364 0.950 . S
C3342 C3341 1.349 . S
C3342 C3354 1.349 . S
C3343 C3341 1.327 . S
C3343 C3359 1.429 . S
C3343 H3365 0.950 . S
C3344 H3340 0.949 . S
C3344 C3352 1.574 . S
C3344 C3360 1.368 . S
H3345 C3353 0.950 . S
H3346 C3351 0.950 . S
H3347 C3352 0.949 . S
H3348 C3354 0.950 . S
H3349 C3355 0.950 . S
H3350 C3356 0.949 . S
C3351 H3346 0.950 . S
C3351 C3353 1.327 . S
C3351 C3357 1.429 . S
C3352 C3344 1.574 . S
C3352 H3347 0.949 . S
C3352 C3358 1.368 . S
C3353 C3337 1.349 . S
C3353 H3345 0.950 . S
C3353 C3351 1.327 . S
C3354 C3342 1.349 . S
C3354 H3348 0.950 . S
C3354 C3355 1.327 . S
C3355 H3349 0.950 . S
C3355 C3354 1.327 . S
C3355 C3359 1.429 . S
C3356 C3339 1.574 . S
C3356 H3350 0.949 . S
C3356 C3360 1.368 . S
C3357 C3338 1.429 . S
C3357 C3351 1.429 . S
C3357 C3358 1.523 . S
C3358 C3339 1.368 . S
C3358 C3352 1.368 . S
C3358 C3357 1.523 . S
C3359 C3343 1.429 . S
C3359 C3355 1.429 . S
C3359 C3360 1.523 . S
C3360 C3344 1.368 . S
C3360 C3356 1.368 . S
C3360 C3359 1.523 . S
H3361 C3336 0.950 . S
H3362 C3338 0.950 . S
H3363 C3339 0.949 . S
H3364 C3341 0.950 . S
H3365 C3343 0.950 . S
C3366 C3367 1.349 . S
C3366 C3368 1.327 . S
C3366 H3391 0.950 . S
C3367 C3366 1.349 . S
C3367 C3383 1.349 . S
C3368 C3366 1.327 . S
C3368 C3387 1.429 . S
C3368 H3392 0.950 . S
C3369 C3386 1.574 . S
C3369 C3388 1.368 . S
C3369 H3393 0.949 . S
H3370 C3374 0.949 . S
C3371 C3372 1.349 . S
C3371 C3373 1.327 . S
C3371 H3394 0.950 . S
C3372 C3371 1.349 . S
C3372 C3384 1.349 . S
C3373 C3371 1.327 . S
C3373 C3389 1.429 . S
C3373 H3395 0.950 . S
C3374 H3370 0.949 . S
C3374 C3382 1.574 . S
C3374 C3390 1.368 . S
H3375 C3383 0.950 . S
H3376 C3381 0.950 . S
H3377 C3382 0.949 . S
H3378 C3384 0.950 . S
H3379 C3385 0.950 . S
H3380 C3386 0.949 . S
C3381 H3376 0.950 . S
C3381 C3383 1.327 . S
C3381 C3387 1.429 . S
C3382 C3374 1.574 . S
C3382 H3377 0.949 . S
C3382 C3388 1.368 . S
C3383 C3367 1.349 . S
C3383 H3375 0.950 . S
C3383 C3381 1.327 . S
C3384 C3372 1.349 . S
C3384 H3378 0.950 . S
C3384 C3385 1.327 . S
C3385 H3379 0.950 . S
C3385 C3384 1.327 . S
C3385 C3389 1.429 . S
C3386 C3369 1.574 . S
C3386 H3380 0.949 . S
C3386 C3390 1.368 . S
C3387 C3368 1.429 . S
C3387 C3381 1.429 . S
C3387 C3388 1.523 . S
C3388 C3369 1.368 . S
C3388 C3382 1.368 . S
C3388 C3387 1.523 . S
C3389 C3373 1.429 . S
C3389 C3385 1.429 . S
C3389 C3390 1.523 . S
C3390 C3374 1.368 . S
C3390 C3386 1.368 . S
C3390 C3389 1.523 . S
H3391 C3366 0.950 . S
H3392 C3368 0.950 . S
H3393 C3369 0.949 . S
H3394 C3371 0.950 . S
H3395 C3373 0.950 . S
C3396 C3397 1.349 . S
C3396 C3398 1.327 . S
C3396 H3421 0.950 . S
C3397 C3396 1.349 . S
C3397 C3413 1.349 . S
C3398 C3396 1.327 . S
C3398 C3417 1.429 . S
C3398 H3422 0.950 . S
C3399 C3416 1.574 . S
C3399 C3418 1.368 . S
C3399 H3423 0.949 . S
H3400 C3404 0.949 . S
C3401 C3402 1.349 . S
C3401 C3403 1.327 . S
C3401 H3424 0.950 . S
C3402 C3401 1.349 . S
C3402 C3414 1.349 . S
C3403 C3401 1.327 . S
C3403 C3419 1.429 . S
C3403 H3425 0.950 . S
C3404 H3400 0.949 . S
C3404 C3412 1.574 . S
C3404 C3420 1.368 . S
H3405 C3413 0.950 . S
H3406 C3411 0.950 . S
H3407 C3412 0.949 . S
H3408 C3414 0.950 . S
H3409 C3415 0.950 . S
H3410 C3416 0.949 . S
C3411 H3406 0.950 . S
C3411 C3413 1.327 . S
C3411 C3417 1.429 . S
C3412 C3404 1.574 . S
C3412 H3407 0.949 . S
C3412 C3418 1.368 . S
C3413 C3397 1.349 . S
C3413 H3405 0.950 . S
C3413 C3411 1.327 . S
C3414 C3402 1.349 . S
C3414 H3408 0.950 . S
C3414 C3415 1.327 . S
C3415 H3409 0.950 . S
C3415 C3414 1.327 . S
C3415 C3419 1.429 . S
C3416 C3399 1.574 . S
C3416 H3410 0.949 . S
C3416 C3420 1.368 . S
C3417 C3398 1.429 . S
C3417 C3411 1.429 . S
C3417 C3418 1.523 . S
C3418 C3399 1.368 . S
C3418 C3412 1.368 . S
C3418 C3417 1.523 . S
C3419 C3403 1.429 . S
C3419 C3415 1.429 . S
C3419 C3420 1.523 . S
C3420 C3404 1.368 . S
C3420 C3416 1.368 . S
C3420 C3419 1.523 . S
H3421 C3396 0.950 . S
H3422 C3398 0.950 . S
H3423 C3399 0.949 . S
H3424 C3401 0.950 . S
H3425 C3403 0.950 . S
C3426 C3427 1.349 . S
C3426 C3428 1.327 . S
C3426 H3451 0.950 . S
C3427 C3426 1.349 . S
C3427 C3443 1.349 . S
C3428 C3426 1.327 . S
C3428 C3447 1.429 . S
C3428 H3452 0.950 . S
C3429 C3446 1.574 . S
C3429 C3448 1.368 . S
C3429 H3453 0.949 . S
H3430 C3434 0.949 . S
C3431 C3432 1.349 . S
C3431 C3433 1.327 . S
C3431 H3454 0.950 . S
C3432 C3431 1.349 . S
C3432 C3444 1.349 . S
C3433 C3431 1.327 . S
C3433 C3449 1.429 . S
C3433 H3455 0.950 . S
C3434 H3430 0.949 . S
C3434 C3442 1.574 . S
C3434 C3450 1.368 . S
H3435 C3443 0.950 . S
H3436 C3441 0.950 . S
H3437 C3442 0.949 . S
H3438 C3444 0.950 . S
H3439 C3445 0.950 . S
H3440 C3446 0.949 . S
C3441 H3436 0.950 . S
C3441 C3443 1.327 . S
C3441 C3447 1.429 . S
C3442 C3434 1.574 . S
C3442 H3437 0.949 . S
C3442 C3448 1.368 . S
C3443 C3427 1.349 . S
C3443 H3435 0.950 . S
C3443 C3441 1.327 . S
C3444 C3432 1.349 . S
C3444 H3438 0.950 . S
C3444 C3445 1.327 . S
C3445 H3439 0.950 . S
C3445 C3444 1.327 . S
C3445 C3449 1.429 . S
C3446 C3429 1.574 . S
C3446 H3440 0.949 . S
C3446 C3450 1.368 . S
C3447 C3428 1.429 . S
C3447 C3441 1.429 . S
C3447 C3448 1.523 . S
C3448 C3429 1.368 . S
C3448 C3442 1.368 . S
C3448 C3447 1.523 . S
C3449 C3433 1.429 . S
C3449 C3445 1.429 . S
C3449 C3450 1.523 . S
C3450 C3434 1.368 . S
C3450 C3446 1.368 . S
C3450 C3449 1.523 . S
H3451 C3426 0.950 . S
H3452 C3428 0.950 . S
H3453 C3429 0.949 . S
H3454 C3431 0.950 . S
H3455 C3433 0.950 . S
C1057 N146 1.530 . S
C1062 N14 1.530 . S
C1087 N47 1.530 . S
C1092 N179 1.530 . S
C1117 N80 1.530 . S
C1122 N212 1.530 . S
C1147 N113 1.530 . S
C1152 N245 1.530 . S
C1177 N278 1.530 . S
C1182 N410 1.530 . S
C1207 N443 1.530 . S
C1212 N311 1.530 . S
C1237 N344 1.530 . S
C1242 N476 1.530 . S
C1267 N509 1.530 . S
C1272 N377 1.530 . S
C1297 N542 1.530 . S
C1302 N674 1.530 . S
C1327 N575 1.530 . S
C1332 N707 1.530 . S
C1357 N740 1.530 . S
C1362 N608 1.530 . S
C1387 N773 1.530 . S
C1392 N641 1.530 . S
C1417 N806 1.530 . S
C1422 N938 1.530 . S
C1447 N839 1.530 . S
C1452 N971 1.530 . S
C1477 N1004 1.530 . S
C1482 N872 1.530 . S
C1507 N905 1.530 . S
C1512 N1037 1.530 . S
C1537 C17 1.412 . S
C1542 C611 1.412 . S
C1567 C50 1.412 . S
C1572 C644 1.412 . S
C1597 C83 1.412 . S
C1602 C545 1.412 . S
C1627 C116 1.412 . S
C1632 C578 1.412 . S
C1657 C149 1.412 . S
C1662 C743 1.412 . S
C1687 C776 1.412 . S
C1692 C182 1.412 . S
C1717 C215 1.412 . S
C1722 C677 1.412 . S
C1747 C248 1.412 . S
C1752 C710 1.412 . S
C1777 C875 1.412 . S
C1782 C281 1.412 . S
C1807 C314 1.412 . S
C1812 C908 1.412 . S
C1837 C809 1.412 . S
C1842 C347 1.412 . S
C1867 C380 1.412 . S
C1872 C842 1.412 . S
C1897 C413 1.412 . S
C1902 C1007 1.412 . S
C1927 C1040 1.412 . S
C1932 C446 1.412 . S
C1957 C479 1.412 . S
C1962 C941 1.412 . S
C1987 C512 1.412 . S
C1992 C974 1.412 . S
C2017 C28 1.743 . S
C2022 C470 1.668 . S
C2047 C1031 1.658 . S
C2052 C61 1.744 . S
C2077 C404 1.668 1_455 S
C2082 C94 1.743 . S
C2107 C965 1.658 . S
C2112 C127 1.743 . S
C2137 C160 1.743 . S
C2142 C338 1.668 . S
C2167 C193 1.743 . S
C2172 C899 1.658 . S
C2197 C226 1.743 . S
C2202 C272 1.668 1_455 S
C2227 C833 1.658 . S
C2232 C259 1.744 . S
C2257 C206 1.668 . S
C2262 C292 1.743 . S
C2287 C767 1.658 . S
C2292 C325 1.744 . S
C2317 C358 1.743 . S
C2322 C140 1.668 1_655 S
C2347 C391 1.743 . S
C2352 C701 1.658 . S
C2377 C424 1.743 . S
C2382 C74 1.668 . S
C2407 C635 1.658 . S
C2412 C457 1.743 . S
C2437 C490 1.743 . S
C2442 C8 1.668 1_655 S
C2467 C569 1.658 . S
C2472 C523 1.744 . S
C2497 C998 1.658 1_655 S
C2502 C556 1.743 . S
C2527 C589 1.743 . S
C2532 C503 1.658 . S
C2557 C932 1.658 . S
C2562 C622 1.743 . S
C2587 C437 1.658 . S
C2592 C655 1.744 . S
C2617 C688 1.743 . S
C2622 C866 1.658 1_655 S
C2647 C371 1.658 . S
C2652 C721 1.744 . S
C2677 C800 1.658 . S
C2682 C754 1.743 . S
C2707 C787 1.743 . S
C2712 C305 1.658 . S
C2737 C820 1.743 . S
C2742 C734 1.658 1_455 S
C2767 C239 1.658 . S
C2772 C853 1.743 . S
C2797 C886 1.743 . S
C2802 C668 1.658 . S
C2827 C173 1.658 . S
C2832 C919 1.744 . S
C2857 C952 1.743 . S
C2862 C602 1.658 1_455 S
C2887 C985 1.744 . S
C2892 C107 1.658 . S
C2917 C536 1.658 . S
C2922 C1018 1.743 . S
C2947 C41 1.658 . S
C2952 C1051 1.743 . S
C2977 N236 1.660 . S
C2982 N5 1.660 . S
C3007 N137 1.660 . S
C3012 N38 1.660 . S
C3037 N170 1.660 . S
C3042 N71 1.660 . S
C3067 N104 1.660 . S
C3072 N203 1.660 . S
C3097 N500 1.660 . S
C3102 N269 1.660 . S
C3127 N302 1.660 . S
C3132 N401 1.660 . S
C3157 N434 1.660 . S
C3162 N335 1.660 . S
C3187 N467 1.660 . S
C3192 N368 1.660 . S
C3217 N764 1.660 . S
C3222 N533 1.660 . S
C3247 N566 1.660 . S
C3252 N665 1.660 . S
C3277 N698 1.660 . S
C3282 N599 1.660 . S
C3307 N731 1.660 . S
C3312 N632 1.660 . S
C3337 N797 1.660 . S
C3342 N1028 1.660 . S
C3367 N929 1.660 . S
C3372 N830 1.660 . S
C3397 N863 1.660 . S
C3402 N962 1.660 . S
C3427 N995 1.660 . S
C3432 N896 1.660 . S
