# Generated by pormake.
# Topology uol, (4)-cn, num edge types: 1
# Building blocks:
#     Node 0, Type 0, BuildingBlock: GALJAG_clean_sbu_0, # of connection points: 4
#     Node 1, Type 0, BuildingBlock: GALJAG_clean_sbu_0, # of connection points: 4
#     Node 2, Type 0, BuildingBlock: GALJAG_clean_sbu_0, # of connection points: 4
#     Node 3, Type 0, BuildingBlock: GALJAG_clean_sbu_0, # of connection points: 4
#     Node 4, Type 0, BuildingBlock: GALJAG_clean_sbu_0, # of connection points: 4
#     Node 5, Type 0, BuildingBlock: GALJAG_clean_sbu_0, # of connection points: 4
#     Node 6, Type 0, BuildingBlock: GALJAG_clean_sbu_0, # of connection points: 4
#     Node 7, Type 0, BuildingBlock: GALJAG_clean_sbu_0, # of connection points: 4
#     Node 8, Type 0, BuildingBlock: GALJAG_clean_sbu_0, # of connection points: 4
#     Node 9, Type 0, BuildingBlock: GALJAG_clean_sbu_0, # of connection points: 4
#     Node 10, Type 0, BuildingBlock: GALJAG_clean_sbu_0, # of connection points: 4
#     Node 11, Type 0, BuildingBlock: GALJAG_clean_sbu_0, # of connection points: 4
#     Edge 12, Type (0, 0), BuildingBlock: TEMPAE_clean_linker_10, # of connection points: 2
#     Edge 13, Type (0, 0), BuildingBlock: TEMPAE_clean_linker_10, # of connection points: 2
#     Edge 14, Type (0, 0), BuildingBlock: TEMPAE_clean_linker_10, # of connection points: 2
#     Edge 15, Type (0, 0), BuildingBlock: TEMPAE_clean_linker_10, # of connection points: 2
#     Edge 16, Type (0, 0), BuildingBlock: TEMPAE_clean_linker_10, # of connection points: 2
#     Edge 17, Type (0, 0), BuildingBlock: TEMPAE_clean_linker_10, # of connection points: 2
#     Edge 18, Type (0, 0), BuildingBlock: TEMPAE_clean_linker_10, # of connection points: 2
#     Edge 19, Type (0, 0), BuildingBlock: TEMPAE_clean_linker_10, # of connection points: 2
#     Edge 20, Type (0, 0), BuildingBlock: TEMPAE_clean_linker_10, # of connection points: 2
#     Edge 21, Type (0, 0), BuildingBlock: TEMPAE_clean_linker_10, # of connection points: 2
#     Edge 22, Type (0, 0), BuildingBlock: TEMPAE_clean_linker_10, # of connection points: 2
#     Edge 23, Type (0, 0), BuildingBlock: TEMPAE_clean_linker_10, # of connection points: 2
#     Edge 24, Type (0, 0), BuildingBlock: TEMPAE_clean_linker_10, # of connection points: 2
#     Edge 25, Type (0, 0), BuildingBlock: TEMPAE_clean_linker_10, # of connection points: 2
#     Edge 26, Type (0, 0), BuildingBlock: TEMPAE_clean_linker_10, # of connection points: 2
#     Edge 27, Type (0, 0), BuildingBlock: TEMPAE_clean_linker_10, # of connection points: 2
#     Edge 28, Type (0, 0), BuildingBlock: TEMPAE_clean_linker_10, # of connection points: 2
#     Edge 29, Type (0, 0), BuildingBlock: TEMPAE_clean_linker_10, # of connection points: 2
#     Edge 30, Type (0, 0), BuildingBlock: TEMPAE_clean_linker_10, # of connection points: 2
#     Edge 31, Type (0, 0), BuildingBlock: TEMPAE_clean_linker_10, # of connection points: 2
#     Edge 32, Type (0, 0), BuildingBlock: TEMPAE_clean_linker_10, # of connection points: 2
#     Edge 33, Type (0, 0), BuildingBlock: TEMPAE_clean_linker_10, # of connection points: 2
#     Edge 34, Type (0, 0), BuildingBlock: TEMPAE_clean_linker_10, # of connection points: 2
#     Edge 35, Type (0, 0), BuildingBlock: TEMPAE_clean_linker_10, # of connection points: 2
# Relax obj value: 0.121
# Max RMSD: 0.117
# Mean RMSD: 0.117
data_MOF--net-uol--node1-GALJAG_clean_sbu_0--edge1-TEMPAE_clean_linker_10
_symmetry_space_group_name_H-M    P1
_symmetry_Int_Tables_number       1
_symmetry_cell_setting            triclinic
loop_
_symmetry_equiv_pos_as_xyz
'x, y, z'
_cell_length_a     34.959735
_cell_length_b     34.961915
_cell_length_c     60.44067
_cell_angle_alpha  89.988637
_cell_angle_beta   90.007315
_cell_angle_gamma 119.99767
loop_
_atom_site_label
_atom_site_type_symbol
_atom_site_fract_x
_atom_site_fract_y
_atom_site_fract_z
_atom_type_partial_charge
In0 In 0.18312 0.37001 0.08632 0.0
O1 O 0.10756 0.32705 0.08747 0.0
O2 O 0.142 0.35476 0.11747 0.0
C3 C 0.20026 0.35008 0.04574 0.0
C4 C 0.19692 0.45286 0.08344 0.0
C5 C 0.23057 0.34454 0.11114 0.0
O6 O 0.16394 0.32652 0.0555 0.0
O7 O 0.22743 0.38404 0.05627 0.0
O8 O 0.24097 0.38454 0.10913 0.0
O9 O 0.19676 0.31771 0.10038 0.0
C10 C 0.10533 0.3311 0.10812 0.0
O11 O 0.2208 0.44317 0.0951 0.0
O12 O 0.16657 0.42087 0.07295 0.0
In13 In 0.80589 0.18077 0.25028 0.0
O14 O 0.77684 0.10549 0.25129 0.0
O15 O 0.78068 0.139 0.28122 0.0
C16 C 0.84758 0.20055 0.21085 0.0
C17 C 0.73506 0.19107 0.24479 0.0
C18 C 0.87482 0.22979 0.27723 0.0
O19 O 0.83533 0.1643 0.2206 0.0
O20 O 0.83757 0.22617 0.22069 0.0
O21 O 0.84046 0.23309 0.27711 0.0
O22 O 0.87454 0.20241 0.26356 0.0
C23 C 0.76982 0.10278 0.27188 0.0
O24 O 0.76924 0.21876 0.25504 0.0
O25 O 0.73708 0.15876 0.23685 0.0
In26 In 0.62881 0.80704 0.41545 0.0
O27 O 0.67363 0.77628 0.41661 0.0
O28 O 0.64803 0.78534 0.44674 0.0
C29 C 0.65049 0.84734 0.37564 0.0
C30 C 0.54747 0.73605 0.41107 0.0
C31 C 0.64714 0.8763 0.44184 0.0
O32 O 0.6755 0.83731 0.38609 0.0
O33 O 0.61407 0.83588 0.38501 0.0
O34 O 0.61006 0.84126 0.44196 0.0
O35 O 0.67452 0.87662 0.42814 0.0
C36 C 0.6715 0.77213 0.4374 0.0
O37 O 0.55447 0.77077 0.42092 0.0
O38 O 0.58143 0.73756 0.40291 0.0
In39 In 0.81727 0.62656 0.58306 0.0
O40 O 0.77863 0.55241 0.58906 0.0
O41 O 0.8377 0.57813 0.57019 0.0
C42 C 0.76738 0.647 0.60905 0.0
C43 C 0.8946 0.66757 0.60528 0.0
C44 C 0.79969 0.64821 0.543 0.0
O45 O 0.76327 0.60902 0.60882 0.0
O46 O 0.79603 0.67431 0.59588 0.0
O47 O 0.83532 0.67235 0.55321 0.0
O48 O 0.7735 0.61271 0.55278 0.0
C49 C 0.80543 0.54466 0.57879 0.0
O50 O 0.89282 0.67098 0.58456 0.0
O51 O 0.85781 0.64366 0.61443 0.0
In52 In 0.18662 0.81922 0.75103 0.0
O53 O 0.21786 0.89482 0.75106 0.0
O54 O 0.20934 0.86201 0.78173 0.0
C55 C 0.14651 0.79954 0.71118 0.0
C56 C 0.257 0.80769 0.74733 0.0
C57 C 0.1171 0.76945 0.77754 0.0
O58 O 0.15703 0.83509 0.72122 0.0
O59 O 0.1572 0.77442 0.72101 0.0
O60 O 0.15156 0.76638 0.77749 0.0
O61 O 0.11748 0.79706 0.76396 0.0
C62 C 0.22252 0.89812 0.7718 0.0
O63 O 0.2228 0.78158 0.75802 0.0
O64 O 0.25533 0.83914 0.73804 0.0
In65 In 0.36508 0.1921 0.91444 0.0
O66 O 0.3218 0.22457 0.91609 0.0
O67 O 0.34502 0.2118 0.94606 0.0
C68 C 0.34518 0.15482 0.87394 0.0
C69 C 0.44733 0.26229 0.91181 0.0
C70 C 0.34327 0.11991 0.93919 0.0
O71 O 0.32045 0.16558 0.88413 0.0
O72 O 0.38049 0.16413 0.88392 0.0
O73 O 0.38116 0.15389 0.93982 0.0
O74 O 0.31676 0.1221 0.92578 0.0
C75 C 0.32286 0.22678 0.93695 0.0
O76 O 0.43872 0.22732 0.92191 0.0
O77 O 0.41458 0.26146 0.90254 0.0
In78 In 0.62547 0.8175 0.74826 0.0
O79 O 0.552 0.78095 0.74041 0.0
O80 O 0.57639 0.83652 0.76179 0.0
C81 C 0.64693 0.76802 0.72257 0.0
C82 C 0.66694 0.89532 0.72646 0.0
C83 C 0.6456 0.79857 0.78838 0.0
O84 O 0.60823 0.76199 0.72345 0.0
O85 O 0.67448 0.79839 0.73494 0.0
O86 O 0.66992 0.83469 0.7786 0.0
O87 O 0.61066 0.77254 0.77814 0.0
C88 C 0.54361 0.80614 0.75175 0.0
O89 O 0.67022 0.89304 0.74717 0.0
O90 O 0.64289 0.85877 0.71712 0.0
In91 In 0.80583 0.6303 0.91688 0.0
O92 O 0.77215 0.67249 0.91556 0.0
O93 O 0.78403 0.64899 0.88546 0.0
C94 C 0.8452 0.65241 0.95691 0.0
C95 C 0.73567 0.54823 0.92005 0.0
C96 C 0.87694 0.65038 0.89158 0.0
O97 O 0.8367 0.67786 0.94584 0.0
O98 O 0.83259 0.61528 0.94809 0.0
O99 O 0.84417 0.61176 0.89272 0.0
O100 O 0.87409 0.67844 0.90351 0.0
C101 C 0.76892 0.67088 0.89473 0.0
O102 O 0.76961 0.55694 0.90893 0.0
O103 O 0.73757 0.58079 0.9301 0.0
In104 In 0.1811 0.80696 0.07967 0.0
O105 O 0.10695 0.78402 0.07872 0.0
O106 O 0.13555 0.77012 0.05111 0.0
C107 C 0.20401 0.84945 0.11887 0.0
C108 C 0.19785 0.74018 0.08524 0.0
C109 C 0.22275 0.87486 0.05124 0.0
O110 O 0.16427 0.82322 0.11372 0.0
O111 O 0.23187 0.85346 0.10446 0.0
O112 O 0.23226 0.84456 0.05291 0.0
O113 O 0.19263 0.87113 0.06412 0.0
C114 C 0.10137 0.76727 0.05965 0.0
O115 O 0.22047 0.77244 0.0726 0.0
O116 O 0.16738 0.74209 0.09543 0.0
In117 In 0.35894 0.16464 0.25139 0.0
O118 O 0.42921 0.19836 0.23786 0.0
O119 O 0.41417 0.15486 0.26515 0.0
C120 C 0.34782 0.2187 0.22368 0.0
C121 C 0.30694 0.08272 0.23424 0.0
C122 C 0.34036 0.18399 0.29182 0.0
O123 O 0.37411 0.20471 0.21952 0.0
O124 O 0.32802 0.20617 0.242 0.0
O125 O 0.31535 0.14793 0.28215 0.0
O126 O 0.37511 0.20952 0.28134 0.0
C127 C 0.44274 0.18031 0.25139 0.0
O128 O 0.30252 0.11534 0.22967 0.0
O129 O 0.33677 0.09074 0.2482 0.0
In130 In 0.18844 0.36699 0.41519 0.0
O131 O 0.2271 0.43903 0.40464 0.0
O132 O 0.25629 0.41729 0.4287 0.0
C133 C 0.11675 0.34666 0.39032 0.0
C134 C 0.22259 0.32245 0.39429 0.0
C135 C 0.14988 0.34826 0.45544 0.0
O136 O 0.14959 0.38526 0.39129 0.0
O137 O 0.11986 0.31861 0.40216 0.0
O138 O 0.16085 0.32326 0.44571 0.0
O139 O 0.15951 0.38331 0.44511 0.0
C140 C 0.25988 0.44868 0.41689 0.0
O141 O 0.22028 0.32314 0.41511 0.0
O142 O 0.20803 0.34418 0.38434 0.0
In143 In 0.81777 0.18749 0.58133 0.0
O144 O 0.7816 0.22419 0.57228 0.0
O145 O 0.83491 0.25497 0.59503 0.0
C146 C 0.76779 0.11616 0.55599 0.0
C147 C 0.89592 0.22483 0.55979 0.0
C148 C 0.7994 0.14828 0.62142 0.0
O149 O 0.76082 0.14819 0.55742 0.0
O150 O 0.79942 0.11986 0.56764 0.0
O151 O 0.83481 0.1589 0.61119 0.0
O152 O 0.77387 0.15851 0.61167 0.0
C153 C 0.80541 0.25743 0.58413 0.0
O154 O 0.89362 0.22112 0.5806 0.0
O155 O 0.85923 0.20992 0.55021 0.0
C156 C 0.17893 0.66723 0.10147 0.0
C157 C 0.20419 0.70157 0.08665 0.0
C158 C 0.18137 0.62841 0.1015 0.0
C159 C 0.20954 0.62381 0.08624 0.0
C160 C 0.23631 0.65903 0.07179 0.0
C161 C 0.23341 0.69762 0.07221 0.0
C162 C 0.15261 0.5917 0.11731 0.0
C163 C 0.26667 0.65526 0.05528 0.0
C164 C 0.23399 0.53106 0.09658 0.0
C165 C 0.20245 0.49756 0.08303 0.0
C166 C 0.2374 0.57276 0.09747 0.0
C167 C 0.20864 0.58102 0.08446 0.0
C168 C 0.17757 0.54768 0.07031 0.0
C169 C 0.17482 0.50631 0.06979 0.0
C170 C 0.27091 0.60755 0.11275 0.0
C171 C 0.14649 0.55537 0.0561 0.0
H172 H 0.15646 0.67027 0.11274 0.0
H173 H 0.25301 0.72413 0.06073 0.0
H174 H 0.12777 0.56263 0.10786 0.0
H175 H 0.17287 0.58107 0.1268 0.0
H176 H 0.13496 0.60171 0.12918 0.0
H177 H 0.28774 0.6868 0.0464 0.0
H178 H 0.28831 0.64501 0.06369 0.0
H179 H 0.24678 0.62941 0.04291 0.0
H180 H 0.25545 0.52442 0.10684 0.0
H181 H 0.15047 0.48054 0.05925 0.0
H182 H 0.25367 0.61555 0.12578 0.0
H183 H 0.29207 0.63844 0.10345 0.0
H184 H 0.2924 0.59668 0.12086 0.0
H185 H 0.12452 0.56182 0.06678 0.0
H186 H 0.12564 0.52669 0.04527 0.0
H187 H 0.16549 0.58495 0.04554 0.0
C188 C 0.65721 0.16202 0.23254 0.0
C189 C 0.69464 0.19442 0.24364 0.0
C190 C 0.61731 0.16242 0.23303 0.0
C191 C 0.61484 0.19596 0.24496 0.0
C192 C 0.65293 0.2296 0.25558 0.0
C193 C 0.69246 0.22846 0.25478 0.0
C194 C 0.57742 0.12612 0.22138 0.0
C195 C 0.65153 0.26591 0.26844 0.0
C196 C 0.51672 0.21153 0.23341 0.0
C197 C 0.48778 0.1867 0.2505 0.0
C198 C 0.55859 0.21553 0.23159 0.0
C199 C 0.57175 0.19433 0.24729 0.0
C200 C 0.54305 0.17012 0.26489 0.0
C201 C 0.50134 0.16652 0.26625 0.0
C202 C 0.58831 0.24155 0.21259 0.0
C203 C 0.55605 0.14725 0.28202 0.0
H204 H 0.65878 0.13571 0.22386 0.0
H205 H 0.72134 0.2536 0.26337 0.0
H206 H 0.55165 0.10588 0.23371 0.0
H207 H 0.56303 0.14049 0.21001 0.0
H208 H 0.58553 0.10405 0.21173 0.0
H209 H 0.68467 0.29117 0.27452 0.0
H210 H 0.63801 0.28246 0.25798 0.0
H211 H 0.62919 0.25156 0.28287 0.0
H212 H 0.50634 0.22717 0.22118 0.0
H213 H 0.4791 0.14739 0.27952 0.0
H214 H 0.59422 0.21932 0.20182 0.0
H215 H 0.6209 0.26733 0.21892 0.0
H216 H 0.57396 0.25768 0.20236 0.0
H217 H 0.56117 0.12165 0.27396 0.0
H218 H 0.53065 0.13124 0.29515 0.0
H219 H 0.58776 0.17132 0.2899 0.0
C220 C 0.46841 0.69383 0.42262 0.0
C221 C 0.50353 0.69583 0.41047 0.0
C222 C 0.42744 0.65469 0.42366 0.0
C223 C 0.42148 0.61686 0.41214 0.0
C224 C 0.45645 0.61907 0.39934 0.0
C225 C 0.49716 0.65853 0.39873 0.0
C226 C 0.39095 0.6535 0.43754 0.0
C227 C 0.45114 0.57948 0.38666 0.0
C228 C 0.3343 0.50299 0.43165 0.0
C229 C 0.30016 0.49258 0.41649 0.0
C230 C 0.37369 0.54375 0.43068 0.0
C231 C 0.37912 0.57452 0.414 0.0
C232 C 0.34451 0.56439 0.39882 0.0
C233 C 0.30531 0.52357 0.40032 0.0
C234 C 0.40973 0.55362 0.4473 0.0
C235 C 0.34926 0.59626 0.38072 0.0
H236 H 0.47322 0.72258 0.43176 0.0
H237 H 0.52421 0.65998 0.38929 0.0
H238 H 0.3608 0.64248 0.42738 0.0
H239 H 0.38229 0.62924 0.45116 0.0
H240 H 0.40042 0.68621 0.44485 0.0
H241 H 0.48086 0.58726 0.37669 0.0
H242 H 0.44479 0.55245 0.39834 0.0
H243 H 0.42223 0.56691 0.37543 0.0
H244 H 0.33038 0.47914 0.4442 0.0
H245 H 0.27903 0.51557 0.38851 0.0
H246 H 0.41903 0.58495 0.45608 0.0
H247 H 0.43967 0.55808 0.43863 0.0
H248 H 0.39963 0.52688 0.45974 0.0
H249 H 0.35723 0.62856 0.38796 0.0
H250 H 0.31881 0.58382 0.37058 0.0
H251 H 0.37704 0.60222 0.36966 0.0
C252 C 0.83049 0.49308 0.56574 0.0
C253 C 0.80102 0.50043 0.57822 0.0
C254 C 0.8288 0.45217 0.56636 0.0
C255 C 0.7971 0.41803 0.57996 0.0
C256 C 0.7666 0.42494 0.59221 0.0
C257 C 0.76881 0.46607 0.59112 0.0
C258 C 0.86156 0.44581 0.55288 0.0
C259 C 0.7325 0.38935 0.60696 0.0
C260 C 0.77322 0.30136 0.56872 0.0
C261 C 0.80088 0.29718 0.58414 0.0
C262 C 0.77113 0.34033 0.56737 0.0
C263 C 0.79702 0.37566 0.58193 0.0
C264 C 0.82403 0.37112 0.59795 0.0
C265 C 0.82581 0.33195 0.59879 0.0
C266 C 0.74218 0.34413 0.54998 0.0
C267 C 0.85173 0.40796 0.61392 0.0
H268 H 0.85535 0.51953 0.5557 0.0
H269 H 0.74601 0.47167 0.60084 0.0
H270 H 0.88331 0.43999 0.56406 0.0
H271 H 0.84396 0.41626 0.54215 0.0
H272 H 0.88257 0.47486 0.54229 0.0
H273 H 0.71002 0.39938 0.61468 0.0
H274 H 0.71241 0.35863 0.59734 0.0
H275 H 0.74925 0.38141 0.62029 0.0
H276 H 0.75398 0.27457 0.55732 0.0
H277 H 0.84713 0.32876 0.61077 0.0
H278 H 0.76292 0.37099 0.53823 0.0
H279 H 0.71892 0.35296 0.55778 0.0
H280 H 0.72284 0.31301 0.54049 0.0
H281 H 0.87658 0.43733 0.60465 0.0
H282 H 0.86928 0.39835 0.62606 0.0
H283 H 0.83062 0.41794 0.62308 0.0
C284 C 0.46657 0.77311 0.73747 0.0
C285 C 0.49953 0.80208 0.75207 0.0
C286 C 0.42565 0.77136 0.73635 0.0
C287 C 0.41747 0.79893 0.75034 0.0
C288 C 0.45017 0.82731 0.76557 0.0
C289 C 0.49095 0.82871 0.76617 0.0
C290 C 0.39166 0.74091 0.71981 0.0
C291 C 0.4424 0.85684 0.78093 0.0
C292 C 0.33304 0.8315 0.7337 0.0
C293 C 0.29686 0.80333 0.74692 0.0
C294 C 0.3722 0.82968 0.73427 0.0
C295 C 0.37528 0.79925 0.74858 0.0
C296 C 0.33855 0.77016 0.76166 0.0
C297 C 0.29965 0.77242 0.76059 0.0
C298 C 0.41056 0.8609 0.7199 0.0
C299 C 0.34074 0.73748 0.7772 0.0
H300 H 0.47314 0.75255 0.72649 0.0
H301 H 0.51632 0.85105 0.77753 0.0
H302 H 0.36005 0.71863 0.7283 0.0
H303 H 0.38494 0.76061 0.70765 0.0
H304 H 0.40258 0.72045 0.71069 0.0
H305 H 0.47039 0.87538 0.79252 0.0
H306 H 0.43755 0.88091 0.77112 0.0
H307 H 0.41187 0.8369 0.79071 0.0
H308 H 0.33094 0.85536 0.72306 0.0
H309 H 0.27176 0.75065 0.77089 0.0
H310 H 0.42157 0.84207 0.70949 0.0
H311 H 0.43892 0.88349 0.73046 0.0
H312 H 0.40209 0.88108 0.70893 0.0
H313 H 0.35037 0.71613 0.76801 0.0
H314 H 0.30876 0.71612 0.78566 0.0
H315 H 0.36644 0.75543 0.78995 0.0
C316 C 0.52471 0.30396 0.92593 0.0
C317 C 0.49164 0.30204 0.91206 0.0
C318 C 0.56588 0.3427 0.92764 0.0
C319 C 0.57421 0.38017 0.915 0.0
C320 C 0.54135 0.378 0.90051 0.0
C321 C 0.50033 0.33898 0.89929 0.0
C322 C 0.60003 0.34392 0.94337 0.0
C323 C 0.54925 0.41716 0.88658 0.0
C324 C 0.66011 0.49498 0.93393 0.0
C325 C 0.69572 0.50407 0.92002 0.0
C326 C 0.62072 0.45425 0.93288 0.0
C327 C 0.61679 0.42214 0.91736 0.0
C328 C 0.65298 0.43079 0.90359 0.0
C329 C 0.69215 0.47162 0.90517 0.0
C330 C 0.58298 0.44595 0.94803 0.0
C331 C 0.64988 0.39747 0.88674 0.0
H332 H 0.51805 0.27549 0.93588 0.0
H333 H 0.47487 0.33757 0.88851 0.0
H334 H 0.63133 0.35381 0.93444 0.0
H335 H 0.60741 0.36903 0.9564 0.0
H336 H 0.58889 0.3115 0.95147 0.0
H337 H 0.52104 0.40941 0.87541 0.0
H338 H 0.55478 0.44503 0.89745 0.0
H339 H 0.57944 0.42853 0.8764 0.0
H340 H 0.66281 0.51995 0.94548 0.0
H341 H 0.71958 0.47858 0.89433 0.0
H342 H 0.57181 0.41487 0.95742 0.0
H343 H 0.5545 0.44187 0.93808 0.0
H344 H 0.5922 0.47335 0.95997 0.0
H345 H 0.63996 0.36541 0.89489 0.0
H346 H 0.6816 0.40859 0.87791 0.0
H347 H 0.62403 0.39153 0.87436 0.0
C348 C 0.35918 0.25597 0.18698 0.0
C349 C 0.33779 0.24424 0.20755 0.0
C350 C 0.34649 0.27603 0.17067 0.0
C351 C 0.31144 0.28423 0.17505 0.0
C352 C 0.29094 0.27401 0.1961 0.0
C353 C 0.30447 0.25425 0.21212 0.0
C354 C 0.36936 0.28685 0.14848 0.0
C355 C 0.25339 0.28216 0.2014 0.0
C356 C 0.28954 0.36032 0.13905 0.0
C357 C 0.25416 0.32979 0.12605 0.0
C358 C 0.30963 0.34612 0.15461 0.0
C359 C 0.29382 0.30038 0.15721 0.0
C360 C 0.25909 0.26957 0.14359 0.0
C361 C 0.23971 0.28466 0.12817 0.0
C362 C 0.34677 0.37992 0.16876 0.0
C363 C 0.24131 0.22049 0.14585 0.0
H364 H 0.38508 0.24842 0.1834 0.0
H365 H 0.28788 0.24532 0.22801 0.0
H366 H 0.34597 0.26512 0.1356 0.0
H367 H 0.38002 0.32143 0.14377 0.0
H368 H 0.39867 0.28238 0.14844 0.0
H369 H 0.24288 0.27494 0.21898 0.0
H370 H 0.26315 0.317 0.19785 0.0
H371 H 0.22459 0.26102 0.19073 0.0
H372 H 0.30089 0.39527 0.13744 0.0
H373 H 0.21247 0.26093 0.1181 0.0
H374 H 0.37553 0.37467 0.16813 0.0
H375 H 0.33587 0.37602 0.18626 0.0
H376 H 0.3576 0.41429 0.16347 0.0
H377 H 0.26852 0.21301 0.14428 0.0
H378 H 0.21578 0.2011 0.13322 0.0
H379 H 0.22653 0.2093 0.1625 0.0
C380 C 0.9502 0.25172 0.29098 0.0
C381 C 0.91125 0.25356 0.29314 0.0
C382 C 0.98364 0.27066 0.30695 0.0
C383 C 0.97778 0.29158 0.32565 0.0
C384 C 0.93911 0.29477 0.32759 0.0
C385 C 0.90631 0.27584 0.31122 0.0
C386 C 0.02464 0.267 0.30417 0.0
C387 C 0.93167 0.31667 0.34734 0.0
C388 C 0.04212 0.29187 0.37614 0.0
C389 C 0.0791 0.3344 0.37526 0.0
C390 C 0.00795 0.27817 0.36062 0.0
C391 C 0.01108 0.30763 0.3437 0.0
C392 C 0.04757 0.35117 0.34322 0.0
C393 C 0.08113 0.36412 0.35909 0.0
C394 C 0.9693 0.23161 0.36183 0.0
C395 C 0.05211 0.38342 0.32538 0.0
H396 H 0.95425 0.23475 0.27695 0.0
H397 H 0.87618 0.27726 0.31297 0.0
H398 H 0.05463 0.30007 0.30555 0.0
H399 H 0.02625 0.24612 0.31755 0.0
H400 H 0.02537 0.25231 0.28799 0.0
H401 H 0.90144 0.3193 0.34557 0.0
H402 H 0.92844 0.29735 0.36249 0.0
H403 H 0.96042 0.35024 0.3498 0.0
H404 H 0.0403 0.26888 0.38871 0.0
H405 H 0.1097 0.39705 0.35836 0.0
H406 H 0.96956 0.21262 0.34718 0.0
H407 H 0.93773 0.23193 0.36152 0.0
H408 H 0.97012 0.21405 0.37698 0.0
H409 H 0.05693 0.37166 0.30913 0.0
H410 H 0.08048 0.41707 0.3284 0.0
H411 H 0.02151 0.38545 0.3242 0.0
C412 C 0.75047 0.04291 0.54087 0.0
C413 C 0.74326 0.07888 0.54062 0.0
C414 C 0.73072 0.00919 0.52507 0.0
C415 C 0.70342 0.01176 0.50852 0.0
C416 C 0.69478 0.04723 0.50864 0.0
C417 C 0.71472 0.08036 0.52478 0.0
C418 C 0.74034 0.97162 0.52563 0.0
C419 C 0.66598 0.05113 0.49122 0.0
C420 C 0.69894 0.95243 0.45531 0.0
C421 C 0.659 0.91265 0.45769 0.0
C422 C 0.71289 0.98571 0.47135 0.0
C423 C 0.68645 0.97879 0.49032 0.0
C424 C 0.64536 0.93929 0.49245 0.0
C425 C 0.63199 0.90671 0.47602 0.0
C426 C 0.75669 0.02764 0.46836 0.0
C427 C 0.61642 0.93068 0.51251 0.0
H428 H 0.77232 0.04152 0.55317 0.0
H429 H 0.70908 0.10815 0.52453 0.0
H430 H 0.70906 0.93945 0.52541 0.0
H431 H 0.75936 0.97289 0.51068 0.0
H432 H 0.75962 0.97283 0.54049 0.0
H433 H 0.65975 0.07877 0.49463 0.0
H434 H 0.68217 0.05671 0.47481 0.0
H435 H 0.6338 0.01999 0.49012 0.0
H436 H 0.71978 0.95724 0.44109 0.0
H437 H 0.60111 0.87593 0.47793 0.0
H438 H 0.78008 0.02981 0.48138 0.0
H439 H 0.75251 0.05691 0.47019 0.0
H440 H 0.77168 0.02922 0.45193 0.0
H441 H 0.63334 0.9277 0.5274 0.0
H442 H 0.58395 0.89993 0.51084 0.0
H443 H 0.6107 0.95876 0.51538 0.0
C444 C 0.71979 0.63192 0.64244 0.0
C445 C 0.7432 0.65966 0.6247 0.0
C446 C 0.70049 0.6456 0.65868 0.0
C447 C 0.70439 0.68778 0.65695 0.0
C448 C 0.72643 0.71512 0.63857 0.0
C449 C 0.74579 0.70081 0.62272 0.0
C450 C 0.67748 0.61568 0.67811 0.0
C451 C 0.73081 0.76013 0.63601 0.0
C452 C 0.63088 0.71741 0.69036 0.0
C453 C 0.65989 0.74386 0.70707 0.0
C454 C 0.64447 0.69786 0.67421 0.0
C455 C 0.68791 0.70468 0.67497 0.0
C456 C 0.7167 0.7299 0.69233 0.0
C457 C 0.7024 0.74937 0.70812 0.0
C458 C 0.61295 0.67136 0.65587 0.0
C459 C 0.76313 0.7375 0.69384 0.0
H460 H 0.71781 0.60009 0.64404 0.0
H461 H 0.76367 0.72224 0.60896 0.0
H462 H 0.69617 0.63113 0.6935 0.0
H463 H 0.64393 0.61113 0.68022 0.0
H464 H 0.67456 0.58272 0.67621 0.0
H465 H 0.7462 0.77594 0.62 0.0
H466 H 0.6979 0.75747 0.63716 0.0
H467 H 0.75139 0.78204 0.64963 0.0
H468 H 0.598 0.71314 0.68947 0.0
H469 H 0.72485 0.76961 0.72108 0.0
H470 H 0.61032 0.63849 0.65451 0.0
H471 H 0.62582 0.68853 0.63984 0.0
H472 H 0.57939 0.6666 0.65851 0.0
H473 H 0.76257 0.7055 0.69338 0.0
H474 H 0.78026 0.75534 0.70919 0.0
H475 H 0.78267 0.75712 0.6794 0.0
C476 C 0.91162 0.63328 0.85978 0.0
C477 C 0.91413 0.66278 0.8762 0.0
C478 C 0.94467 0.6465 0.8436 0.0
C479 C 0.98111 0.69007 0.84402 0.0
C480 C 0.98469 0.71932 0.86114 0.0
C481 C 0.95104 0.70536 0.87697 0.0
C482 C 0.93969 0.61447 0.82555 0.0
C483 C 0.02331 0.76591 0.86229 0.0
C484 C 0.08557 0.72248 0.81121 0.0
C485 C 0.08058 0.74522 0.79335 0.0
C486 C 0.05282 0.70311 0.82756 0.0
C487 C 0.01413 0.7063 0.82584 0.0
C488 C 0.00816 0.72762 0.80733 0.0
C489 C 0.04159 0.74702 0.79136 0.0
C490 C 0.06041 0.68083 0.84711 0.0
C491 C 0.96713 0.73127 0.80479 0.0
H492 H 0.88308 0.60032 0.85912 0.0
H493 H 0.95321 0.72818 0.88972 0.0
H494 H 0.93463 0.6265 0.80943 0.0
H495 H 0.97021 0.61237 0.8241 0.0
H496 H 0.91133 0.58081 0.82856 0.0
H497 H 0.02274 0.78339 0.87753 0.0
H498 H 0.05489 0.76564 0.86177 0.0
H499 H 0.02277 0.78496 0.84773 0.0
H500 H 0.11572 0.72107 0.81282 0.0
H501 H 0.0375 0.76435 0.7775 0.0
H502 H 0.03164 0.64726 0.84952 0.0
H503 H 0.06388 0.69994 0.86238 0.0
H504 H 0.09057 0.67814 0.84514 0.0
H505 H 0.93716 0.6982 0.8062 0.0
H506 H 0.96617 0.74606 0.78867 0.0
H507 H 0.9657 0.75207 0.81827 0.0
C508 C 0.27165 0.90984 0.01849 0.0
C509 C 0.24405 0.91105 0.03498 0.0
C510 C 0.29029 0.94298 0.00229 0.0
C511 C 0.28141 0.97828 0.00278 0.0
C512 C 0.2543 0.9801 0.01966 0.0
C513 C 0.23575 0.94631 0.0355 0.0
C514 C 0.31873 0.93978 0.98442 0.0
C515 C 0.24442 0.01747 0.02085 0.0
C516 C 0.35566 0.08569 0.97266 0.0
C517 C 0.3297 0.08202 0.95422 0.0
C518 C 0.34088 0.05164 0.98836 0.0
C519 C 0.29946 0.01289 0.98535 0.0
C520 C 0.27401 0.00827 0.96626 0.0
C521 C 0.28933 0.04306 0.95099 0.0
C522 C 0.36873 0.05789 0.0086 0.0
C523 C 0.22996 0.96716 0.96232 0.0
H524 H 0.27803 0.88254 0.018 0.0
H525 H 0.21454 0.94744 0.04826 0.0
H526 H 0.3034 0.93714 0.96799 0.0
H527 H 0.35165 0.97015 0.9842 0.0
H528 H 0.32333 0.91081 0.9867 0.0
H529 H 0.22412 0.01487 0.03552 0.0
H530 H 0.27568 0.04962 0.0215 0.0
H531 H 0.22647 0.01761 0.00574 0.0
H532 H 0.38686 0.11584 0.97524 0.0
H533 H 0.26929 0.04004 0.93668 0.0
H534 H 0.37431 0.02951 0.01059 0.0
H535 H 0.35102 0.05909 0.02359 0.0
H536 H 0.40129 0.08876 0.00782 0.0
H537 H 0.23339 0.93735 0.96353 0.0
H538 H 0.21593 0.96736 0.94585 0.0
H539 H 0.20615 0.96431 0.97525 0.0
C540 C 0.18362 0.29491 0.01568 0.0
C541 C 0.21213 0.33641 0.02493 0.0
C542 C 0.1977 0.27828 0.99831 0.0
C543 C 0.24126 0.30384 0.99007 0.0
C544 C 0.26883 0.3472 0.99814 0.0
C545 C 0.25393 0.36296 0.01551 0.0
C546 C 0.1672 0.232 0.99005 0.0
C547 C 0.31538 0.37564 0.98968 0.0
C548 C 0.3009 0.24325 0.97318 0.0
C549 C 0.30048 0.24551 0.95005 0.0
C550 C 0.28113 0.26155 0.98626 0.0
C551 C 0.26043 0.28285 0.97597 0.0
C552 C 0.25931 0.28483 0.95258 0.0
C553 C 0.27938 0.26601 0.93984 0.0
C554 C 0.28291 0.25853 0.01116 0.0
C555 C 0.23755 0.30732 0.9411 0.0
H556 H 0.1511 0.2744 0.02278 0.0
H557 H 0.27594 0.39528 0.02245 0.0
H558 H 0.16813 0.23069 0.97174 0.0
H559 H 0.17832 0.20953 0.99663 0.0
H560 H 0.13253 0.21944 0.9954 0.0
H561 H 0.33001 0.41051 0.99517 0.0
H562 H 0.33642 0.36252 0.99594 0.0
H563 H 0.31616 0.37485 0.97135 0.0
H564 H 0.31698 0.22726 0.98117 0.0
H565 H 0.27898 0.26778 0.92194 0.0
H566 H 0.24901 0.242 0.01811 0.0
H567 H 0.30107 0.29218 0.01838 0.0
H568 H 0.29942 0.23995 0.0165 0.0
H569 H 0.20291 0.29307 0.94681 0.0
H570 H 0.23766 0.30418 0.92281 0.0
H571 H 0.25502 0.34291 0.94545 0.0
C572 C 0.89014 0.25565 0.18139 0.0
C573 C 0.87632 0.21434 0.19109 0.0
C574 C 0.92323 0.27254 0.16514 0.0
C575 C 0.94308 0.24759 0.1586 0.0
C576 C 0.92708 0.20458 0.16723 0.0
C577 C 0.89375 0.1884 0.18336 0.0
C578 C 0.93904 0.31834 0.15616 0.0
C579 C 0.94735 0.17693 0.16066 0.0
C580 C 0.02266 0.28601 0.10982 0.0
C581 C 0.06345 0.30961 0.12066 0.0
C582 C 0.98295 0.2656 0.12189 0.0
C583 C 0.98432 0.26876 0.14527 0.0
C584 C 0.02549 0.29246 0.15622 0.0
C585 C 0.06448 0.31268 0.14379 0.0
C586 C 0.93961 0.24081 0.10969 0.0
C587 C 0.02844 0.29645 0.18115 0.0
H588 H 0.8765 0.2757 0.18718 0.0
H589 H 0.88304 0.15635 0.19074 0.0
H590 H 0.9721 0.34147 0.16311 0.0
H591 H 0.94252 0.3188 0.1379 0.0
H592 H 0.91627 0.33073 0.16046 0.0
H593 H 0.92745 0.14228 0.16652 0.0
H594 H 0.95086 0.17678 0.14243 0.0
H595 H 0.98094 0.19145 0.1679 0.0
H596 H 0.02175 0.28362 0.09193 0.0
H597 H 0.09592 0.33078 0.15226 0.0
H598 H 0.91852 0.25535 0.11354 0.0
H599 H 0.92147 0.2059 0.11525 0.0
H600 H 0.9442 0.24148 0.09148 0.0
H601 H 0.01016 0.31281 0.1871 0.0
H602 H 0.06309 0.31571 0.18709 0.0
H603 H 0.01281 0.26313 0.18876 0.0
C604 C 0.74738 0.0618 0.30749 0.0
C605 C 0.75091 0.06096 0.28442 0.0
C606 C 0.72992 0.02295 0.31998 0.0
C607 C 0.71536 0.98207 0.30915 0.0
C608 C 0.7187 0.98086 0.28583 0.0
C609 C 0.73661 0.02046 0.27371 0.0
C610 C 0.72711 0.02575 0.34483 0.0
C611 C 0.70331 0.93781 0.27376 0.0
C612 C 0.70885 0.89476 0.34844 0.0
C613 C 0.66491 0.87531 0.35561 0.0
C614 C 0.72512 0.92758 0.33204 0.0
C615 C 0.69664 0.94098 0.32256 0.0
C616 C 0.65142 0.91894 0.3285 0.0
C617 C 0.63611 0.88643 0.34503 0.0
C618 C 0.77354 0.95022 0.32615 0.0
C619 C 0.61989 0.93194 0.31861 0.0
H620 H 0.75848 0.09301 0.31588 0.0
H621 H 0.73927 0.0197 0.25586 0.0
H622 H 0.69225 0.00576 0.35029 0.0
H623 H 0.74598 0.01192 0.353 0.0
H624 H 0.74026 0.06021 0.35068 0.0
H625 H 0.70814 0.94249 0.25559 0.0
H626 H 0.72153 0.92151 0.27987 0.0
H627 H 0.66775 0.91502 0.27713 0.0
H628 H 0.73122 0.88612 0.35648 0.0
H629 H 0.60199 0.87119 0.35037 0.0
H630 H 0.79063 0.98392 0.33336 0.0
H631 H 0.77811 0.95379 0.30795 0.0
H632 H 0.78969 0.93196 0.33252 0.0
H633 H 0.62731 0.96448 0.32533 0.0
H634 H 0.5849 0.90751 0.32243 0.0
H635 H 0.62395 0.9354 0.30039 0.0
C636 C 0.81412 0.70564 0.51451 0.0
C637 C 0.78718 0.66276 0.52266 0.0
C638 C 0.79907 0.7226 0.49772 0.0
C639 C 0.75616 0.69594 0.48892 0.0
C640 C 0.7303 0.65148 0.49586 0.0
C641 C 0.74611 0.63543 0.51271 0.0
C642 C 0.82773 0.7701 0.49069 0.0
C643 C 0.68451 0.62186 0.48676 0.0
C644 C 0.69209 0.7528 0.4733 0.0
C645 C 0.69424 0.7533 0.45014 0.0
C646 C 0.71254 0.73464 0.48599 0.0
C647 C 0.73569 0.71631 0.47528 0.0
C648 C 0.73836 0.71696 0.45189 0.0
C649 C 0.71759 0.73558 0.43954 0.0
C650 C 0.70903 0.73479 0.51092 0.0
C651 C 0.76272 0.69765 0.43995 0.0
H652 H 0.84605 0.72682 0.52205 0.0
H653 H 0.72532 0.60209 0.5188 0.0
H654 H 0.82771 0.77317 0.47243 0.0
H655 H 0.81424 0.79024 0.49775 0.0
H656 H 0.86237 0.78412 0.49645 0.0
H657 H 0.67147 0.58673 0.49137 0.0
H658 H 0.66172 0.63256 0.49335 0.0
H659 H 0.68442 0.62438 0.46847 0.0
H660 H 0.67423 0.7666 0.4816 0.0
H661 H 0.71931 0.73592 0.42163 0.0
H662 H 0.74249 0.75223 0.51839 0.0
H663 H 0.69213 0.70039 0.51725 0.0
H664 H 0.69045 0.75105 0.51664 0.0
H665 H 0.79738 0.71348 0.44585 0.0
H666 H 0.76285 0.70192 0.42174 0.0
H667 H 0.74715 0.66188 0.4437 0.0
C668 C 0.10681 0.74521 0.68098 0.0
C669 C 0.11913 0.78596 0.69095 0.0
C670 C 0.07492 0.72844 0.66415 0.0
C671 C 0.05478 0.75293 0.65727 0.0
C672 C 0.06946 0.79551 0.66616 0.0
C673 C 0.10158 0.81158 0.68289 0.0
C674 C 0.06049 0.68309 0.65492 0.0
C675 C 0.04886 0.82269 0.65925 0.0
C676 C 0.97714 0.7141 0.6077 0.0
C677 C 0.93603 0.68975 0.61815 0.0
C678 C 0.01637 0.73495 0.62015 0.0
C679 C 0.01414 0.7314 0.64351 0.0
C680 C 0.97264 0.70695 0.65408 0.0
C681 C 0.93418 0.68639 0.64127 0.0
C682 C 0.0601 0.76061 0.60837 0.0
C683 C 0.96877 0.70248 0.67897 0.0
H684 H 0.12059 0.72545 0.68701 0.0
H685 H 0.1112 0.84325 0.69044 0.0
H686 H 0.02731 0.65923 0.66149 0.0
H687 H 0.05782 0.68306 0.63663 0.0
H688 H 0.08367 0.67132 0.65946 0.0
H689 H 0.06807 0.85728 0.66528 0.0
H690 H 0.04614 0.82307 0.64098 0.0
H691 H 0.01492 0.80761 0.6661 0.0
H692 H 0.97867 0.71673 0.58981 0.0
H693 H 0.90249 0.6677 0.64946 0.0
H694 H 0.08153 0.74657 0.61243 0.0
H695 H 0.07749 0.79541 0.61411 0.0
H696 H 0.05618 0.76022 0.59012 0.0
H697 H 0.98735 0.68657 0.68513 0.0
H698 H 0.93394 0.68258 0.68457 0.0
H699 H 0.98353 0.73563 0.68672 0.0
C700 C 0.288 0.11075 0.84556 0.0
C701 C 0.33113 0.12782 0.85359 0.0
C702 C 0.27134 0.07807 0.82911 0.0
C703 C 0.29857 0.06231 0.8205 0.0
C704 C 0.3433 0.08224 0.82717 0.0
C705 C 0.35904 0.11474 0.8437 0.0
C706 C 0.22353 0.05785 0.82235 0.0
C707 C 0.37354 0.0667 0.81824 0.0
C708 C 0.24331 0.94049 0.80699 0.0
C709 C 0.24168 0.94051 0.78383 0.0
C710 C 0.26145 0.97994 0.819 0.0
C711 C 0.27858 0.02059 0.80757 0.0
C712 C 0.27693 0.02096 0.78417 0.0
C713 C 0.25838 0.98077 0.77253 0.0
C714 C 0.26243 0.97804 0.84397 0.0
C715 C 0.29497 0.06373 0.77149 0.0
H716 H 0.26637 0.12099 0.85304 0.0
H717 H 0.39258 0.12817 0.84969 0.0
H718 H 0.21995 0.05347 0.80414 0.0
H719 H 0.20417 0.02467 0.82998 0.0
H720 H 0.20903 0.07828 0.82771 0.0
H721 H 0.4087 0.08994 0.82236 0.0
H722 H 0.36415 0.03396 0.82545 0.0
H723 H 0.37024 0.06267 0.80001 0.0
H724 H 0.23035 0.90947 0.81583 0.0
H725 H 0.25715 0.98089 0.75461 0.0
H726 H 0.24456 0.9938 0.85122 0.0
H727 H 0.29705 0.99671 0.84993 0.0
H728 H 0.2472 0.94366 0.85029 0.0
H729 H 0.27838 0.0821 0.77694 0.0
H730 H 0.29045 0.05831 0.75334 0.0
H731 H 0.33072 0.08499 0.77501 0.0
C732 C 0.63193 0.74403 0.81832 0.0
C733 C 0.65943 0.7855 0.80878 0.0
C734 C 0.64745 0.72789 0.83526 0.0
C735 C 0.69155 0.7538 0.84271 0.0
C736 C 0.71832 0.79704 0.8343 0.0
C737 C 0.70189 0.81242 0.81742 0.0
C738 C 0.61772 0.68177 0.84394 0.0
C739 C 0.76547 0.82576 0.84186 0.0
C740 C 0.73039 0.71509 0.89236 0.0
C741 C 0.74926 0.69269 0.88187 0.0
C742 C 0.71145 0.7354 0.87989 0.0
C743 C 0.71163 0.73323 0.85649 0.0
C744 C 0.73089 0.71084 0.8459 0.0
C745 C 0.74936 0.69084 0.85871 0.0
C746 C 0.69109 0.75892 0.89169 0.0
C747 C 0.73191 0.70784 0.82098 0.0
H748 H 0.59891 0.72325 0.81184 0.0
H749 H 0.72319 0.84465 0.81021 0.0
H750 H 0.62888 0.65936 0.83733 0.0
H751 H 0.61952 0.68109 0.86225 0.0
H752 H 0.58274 0.66867 0.839 0.0
H753 H 0.77957 0.86051 0.83627 0.0
H754 H 0.76772 0.82533 0.86016 0.0
H755 H 0.78608 0.8126 0.83505 0.0
H756 H 0.73025 0.71657 0.91027 0.0
H757 H 0.76398 0.67366 0.8505 0.0
H758 H 0.6556 0.74346 0.88733 0.0
H759 H 0.70722 0.79388 0.88626 0.0
H760 H 0.69409 0.75807 0.90996 0.0
H761 H 0.69774 0.69088 0.81435 0.0
H762 H 0.74859 0.68959 0.81537 0.0
H763 H 0.74941 0.74145 0.81369 0.0
C764 C 0.89761 0.71209 0.98214 0.0
C765 C 0.87306 0.66703 0.97697 0.0
C766 C 0.9306 0.72753 0.99842 0.0
C767 C 0.93868 0.69704 0.00999 0.0
C768 C 0.91137 0.6512 0.00615 0.0
C769 C 0.87908 0.63673 0.98951 0.0
C770 C 0.95919 0.7767 0.00188 0.0
C771 C 0.91832 0.61759 0.01846 0.0
C772 C 0.05782 0.73698 0.02516 0.0
C773 C 0.05897 0.74765 0.04759 0.0
C774 C 0.01877 0.72024 0.01289 0.0
C775 C 0.9796 0.71337 0.02336 0.0
C776 C 0.98021 0.72314 0.04614 0.0
C777 C 0.0201 0.74054 0.05799 0.0
C778 C 0.01968 0.71064 0.98857 0.0
C779 C 0.93891 0.71557 0.05789 0.0
H780 H 0.89299 0.73565 0.97251 0.0
H781 H 0.85983 0.60179 0.98572 0.0
H782 H 0.96344 0.78479 0.01977 0.0
H783 H 0.99249 0.78797 0.99486 0.0
H784 H 0.94519 0.79552 0.99378 0.0
H785 H 0.89004 0.58354 0.01633 0.0
H786 H 0.94857 0.61845 0.01219 0.0
H787 H 0.9232 0.62545 0.03638 0.0
H788 H 0.0878 0.74251 0.01702 0.0
H789 H 0.02087 0.74863 0.07536 0.0
H790 H 0.00954 0.73071 0.97858 0.0
H791 H 0.99581 0.6754 0.98511 0.0
H792 H 0.05292 0.71793 0.98296 0.0
H793 H 0.92724 0.73707 0.05064 0.0
H794 H 0.94437 0.72256 0.0759 0.0
H795 H 0.91213 0.68089 0.05559 0.0
C796 C 0.25914 0.91362 0.14079 0.0
C797 C 0.21692 0.87636 0.13923 0.0
C798 C 0.27073 0.94263 0.15875 0.0
C799 C 0.2396 0.93364 0.17583 0.0
C800 C 0.19774 0.89472 0.17497 0.0
C801 C 0.18665 0.86674 0.15649 0.0
C802 C 0.31551 0.98409 0.15886 0.0
C803 C 0.16416 0.8835 0.19314 0.0
C804 C 0.29102 0.00579 0.22635 0.0
C805 C 0.28328 0.0407 0.22191 0.0
C806 C 0.27424 0.96884 0.21231 0.0
C807 C 0.24984 0.96733 0.1933 0.0
C808 C 0.2397 0.00125 0.18956 0.0
C809 C 0.25628 0.03735 0.20401 0.0
C810 C 0.2848 0.93277 0.21712 0.0
C811 C 0.21404 0.0011 0.16941 0.0
H812 H 0.28262 0.92121 0.12746 0.0
H813 H 0.15408 0.83772 0.1554 0.0
H814 H 0.31135 0.01351 0.15786 0.0
H815 H 0.3331 0.98657 0.17454 0.0
H816 H 0.33655 0.98521 0.14482 0.0
H817 H 0.13584 0.84932 0.19153 0.0
H818 H 0.17972 0.88709 0.20959 0.0
H819 H 0.15132 0.90677 0.19259 0.0
H820 H 0.31163 0.0081 0.24027 0.0
H821 H 0.24998 0.06415 0.20056 0.0
H822 H 0.31035 0.93532 0.20537 0.0
H823 H 0.25511 0.89976 0.21481 0.0
H824 H 0.29744 0.93505 0.23422 0.0
H825 H 0.23383 0.00531 0.1543 0.0
H826 H 0.20586 0.02797 0.16989 0.0
H827 H 0.1829 0.96904 0.16791 0.0
C828 C 0.28511 0.17164 0.32123 0.0
C829 C 0.32726 0.19802 0.31214 0.0
C830 C 0.26912 0.18822 0.33776 0.0
C831 C 0.29597 0.23216 0.34526 0.0
C832 C 0.33986 0.25755 0.33745 0.0
C833 C 0.35499 0.24014 0.32095 0.0
C834 C 0.22227 0.15995 0.34583 0.0
C835 C 0.36965 0.30443 0.34512 0.0
C836 C 0.23927 0.29727 0.35902 0.0
C837 C 0.24071 0.29832 0.38219 0.0
C838 C 0.25664 0.27532 0.34695 0.0
C839 C 0.27612 0.25391 0.3583 0.0
C840 C 0.27737 0.25443 0.38172 0.0
C841 C 0.25954 0.27667 0.39344 0.0
C842 C 0.2545 0.27546 0.32197 0.0
C843 C 0.29793 0.23198 0.39433 0.0
H844 H 0.26365 0.13889 0.3146 0.0
H845 H 0.38778 0.26054 0.31413 0.0
H846 H 0.2205 0.1624 0.36406 0.0
H847 H 0.20115 0.17192 0.33838 0.0
H848 H 0.20845 0.12469 0.34126 0.0
H849 H 0.40452 0.31724 0.34005 0.0
H850 H 0.35815 0.3261 0.33788 0.0
H851 H 0.36835 0.30675 0.36338 0.0
H852 H 0.22459 0.31379 0.35024 0.0
H853 H 0.26068 0.2774 0.41137 0.0
H854 H 0.23678 0.24107 0.31564 0.0
H855 H 0.28838 0.29173 0.31498 0.0
H856 H 0.23748 0.29295 0.31573 0.0
H857 H 0.28219 0.19672 0.38947 0.0
H858 H 0.29473 0.23395 0.41253 0.0
H859 H 0.3335 0.24751 0.39012 0.0
C860 C 0.10843 0.36241 0.48488 0.0
C861 C 0.12277 0.33488 0.47576 0.0
C862 C 0.07629 0.34703 0.50159 0.0
C863 C 0.05804 0.30304 0.50925 0.0
C864 C 0.07494 0.27632 0.50132 0.0
C865 C 0.1072 0.2926 0.48466 0.0
C866 C 0.05944 0.37671 0.50976 0.0
C867 C 0.05649 0.2293 0.50912 0.0
C868 C 0.97874 0.26402 0.55817 0.0
C869 C 0.93784 0.24479 0.5473 0.0
C870 C 0.01843 0.28325 0.54607 0.0
C871 C 0.0169 0.28293 0.52265 0.0
C872 C 0.97562 0.26333 0.51168 0.0
C873 C 0.93668 0.24462 0.52413 0.0
C874 C 0.0619 0.30401 0.55828 0.0
C875 C 0.97249 0.26212 0.48672 0.0
H876 H 0.12067 0.39529 0.4782 0.0
H877 H 0.11843 0.27128 0.47778 0.0
H878 H 0.02612 0.36541 0.50277 0.0
H879 H 0.05622 0.37502 0.52805 0.0
H880 H 0.08144 0.41166 0.50482 0.0
H881 H 0.07749 0.21532 0.50397 0.0
H882 H 0.05318 0.22729 0.52739 0.0
H883 H 0.023 0.20846 0.50204 0.0
H884 H 0.97974 0.26424 0.5761 0.0
H885 H 0.90517 0.22971 0.51563 0.0
H886 H 0.08192 0.33945 0.55382 0.0
H887 H 0.08109 0.28799 0.55329 0.0
H888 H 0.05742 0.30126 0.57652 0.0
H889 H 0.9898 0.29623 0.48002 0.0
H890 H 0.93776 0.24525 0.48078 0.0
H891 H 0.98899 0.24469 0.47979 0.0
C892 C 0.71434 0.97783 0.72446 0.0
C893 C 0.68947 0.93701 0.71381 0.0
C894 C 0.73554 0.01731 0.71221 0.0
C895 C 0.7318 0.01564 0.68885 0.0
C896 C 0.70684 0.97443 0.67809 0.0
C897 C 0.68595 0.93571 0.6907 0.0
C898 C 0.76176 0.06071 0.7242 0.0
C899 C 0.70212 0.97114 0.6532 0.0
C900 C 0.74588 0.10912 0.65198 0.0
C901 C 0.78629 0.12109 0.64172 0.0
C902 C 0.72923 0.07715 0.66878 0.0
C903 C 0.7535 0.05656 0.6753 0.0
C904 C 0.79585 0.07097 0.66617 0.0
C905 C 0.81181 0.1032 0.64948 0.0
C906 C 0.68416 0.06304 0.67828 0.0
C907 C 0.8228 0.04991 0.67271 0.0
H908 H 0.7171 0.97894 0.74234 0.0
H909 H 0.66686 0.90425 0.68236 0.0
H910 H 0.79648 0.07792 0.71833 0.0
H911 H 0.74801 0.08254 0.72047 0.0
H912 H 0.76158 0.05635 0.74242 0.0
H913 H 0.68188 0.93647 0.64742 0.0
H914 H 0.68645 0.99013 0.64732 0.0
H915 H 0.73517 0.98577 0.64535 0.0
H916 H 0.72622 0.12318 0.64618 0.0
H917 H 0.84322 0.11256 0.64169 0.0
H918 H 0.6844 0.05998 0.69654 0.0
H919 H 0.65991 0.0301 0.67161 0.0
H920 H 0.67271 0.08662 0.67407 0.0
H921 H 0.82328 0.04672 0.69095 0.0
H922 H 0.85736 0.06908 0.66664 0.0
H923 H 0.80747 0.01614 0.66563 0.0
loop_
_geom_bond_atom_site_label_1
_geom_bond_atom_site_label_2
_geom_bond_distance
_geom_bond_site_symmetry_2
_ccdc_geom_bond_type
In0 O1 2.294 . S
In0 O2 2.326 . S
In0 O6 2.266 . S
In0 O7 2.326 . S
In0 O8 2.266 . S
In0 O9 2.326 . S
In0 O11 2.294 . S
In0 O12 2.326 . S
O1 In0 2.294 . S
O1 C10 1.240 . S
O2 In0 2.326 . S
O2 C10 1.252 . S
C3 O6 1.252 . S
C3 O7 1.260 . S
C4 O11 1.240 . S
C4 O12 1.252 . S
C5 O8 1.252 . S
C5 O9 1.260 . S
O6 In0 2.266 . S
O6 C3 1.252 . S
O7 In0 2.326 . S
O7 C3 1.260 . S
O8 In0 2.266 . S
O8 C5 1.252 . S
O9 In0 2.326 . S
O9 C5 1.260 . S
C10 O1 1.240 . S
C10 O2 1.252 . S
O11 In0 2.294 . S
O11 C4 1.240 . S
O12 In0 2.326 . S
O12 C4 1.252 . S
In13 O14 2.294 . S
In13 O15 2.326 . S
In13 O19 2.266 . S
In13 O20 2.326 . S
In13 O21 2.266 . S
In13 O22 2.326 . S
In13 O24 2.294 . S
In13 O25 2.326 . S
O14 In13 2.294 . S
O14 C23 1.240 . S
O15 In13 2.326 . S
O15 C23 1.252 . S
C16 O19 1.252 . S
C16 O20 1.260 . S
C17 O24 1.240 . S
C17 O25 1.252 . S
C18 O21 1.252 . S
C18 O22 1.260 . S
O19 In13 2.266 . S
O19 C16 1.252 . S
O20 In13 2.326 . S
O20 C16 1.260 . S
O21 In13 2.266 . S
O21 C18 1.252 . S
O22 In13 2.326 . S
O22 C18 1.260 . S
C23 O14 1.240 . S
C23 O15 1.252 . S
O24 In13 2.294 . S
O24 C17 1.240 . S
O25 In13 2.326 . S
O25 C17 1.252 . S
In26 O27 2.294 . S
In26 O28 2.326 . S
In26 O32 2.266 . S
In26 O33 2.326 . S
In26 O34 2.266 . S
In26 O35 2.326 . S
In26 O37 2.294 . S
In26 O38 2.326 . S
O27 In26 2.294 . S
O27 C36 1.240 . S
O28 In26 2.326 . S
O28 C36 1.252 . S
C29 O32 1.252 . S
C29 O33 1.260 . S
C30 O37 1.240 . S
C30 O38 1.252 . S
C31 O34 1.252 . S
C31 O35 1.260 . S
O32 In26 2.266 . S
O32 C29 1.252 . S
O33 In26 2.326 . S
O33 C29 1.260 . S
O34 In26 2.266 . S
O34 C31 1.252 . S
O35 In26 2.326 . S
O35 C31 1.260 . S
C36 O27 1.240 . S
C36 O28 1.252 . S
O37 In26 2.294 . S
O37 C30 1.240 . S
O38 In26 2.326 . S
O38 C30 1.252 . S
In39 O40 2.294 . S
In39 O41 2.326 . S
In39 O45 2.266 . S
In39 O46 2.326 . S
In39 O47 2.266 . S
In39 O48 2.326 . S
In39 O50 2.294 . S
In39 O51 2.326 . S
O40 In39 2.294 . S
O40 C49 1.240 . S
O41 In39 2.326 . S
O41 C49 1.252 . S
C42 O45 1.252 . S
C42 O46 1.260 . S
C43 O50 1.240 . S
C43 O51 1.252 . S
C44 O47 1.252 . S
C44 O48 1.260 . S
O45 In39 2.266 . S
O45 C42 1.252 . S
O46 In39 2.326 . S
O46 C42 1.260 . S
O47 In39 2.266 . S
O47 C44 1.252 . S
O48 In39 2.326 . S
O48 C44 1.260 . S
C49 O40 1.240 . S
C49 O41 1.252 . S
O50 In39 2.294 . S
O50 C43 1.240 . S
O51 In39 2.326 . S
O51 C43 1.252 . S
In52 O53 2.294 . S
In52 O54 2.326 . S
In52 O58 2.266 . S
In52 O59 2.326 . S
In52 O60 2.266 . S
In52 O61 2.326 . S
In52 O63 2.294 . S
In52 O64 2.326 . S
O53 In52 2.294 . S
O53 C62 1.240 . S
O54 In52 2.326 . S
O54 C62 1.252 . S
C55 O58 1.252 . S
C55 O59 1.260 . S
C56 O63 1.240 . S
C56 O64 1.252 . S
C57 O60 1.252 . S
C57 O61 1.260 . S
O58 In52 2.266 . S
O58 C55 1.252 . S
O59 In52 2.326 . S
O59 C55 1.260 . S
O60 In52 2.266 . S
O60 C57 1.252 . S
O61 In52 2.326 . S
O61 C57 1.260 . S
C62 O53 1.240 . S
C62 O54 1.252 . S
O63 In52 2.294 . S
O63 C56 1.240 . S
O64 In52 2.326 . S
O64 C56 1.252 . S
In65 O66 2.294 . S
In65 O67 2.326 . S
In65 O71 2.266 . S
In65 O72 2.326 . S
In65 O73 2.266 . S
In65 O74 2.326 . S
In65 O76 2.294 . S
In65 O77 2.326 . S
O66 In65 2.294 . S
O66 C75 1.240 . S
O67 In65 2.326 . S
O67 C75 1.252 . S
C68 O71 1.252 . S
C68 O72 1.260 . S
C69 O76 1.240 . S
C69 O77 1.252 . S
C70 O73 1.252 . S
C70 O74 1.260 . S
O71 In65 2.266 . S
O71 C68 1.252 . S
O72 In65 2.326 . S
O72 C68 1.260 . S
O73 In65 2.266 . S
O73 C70 1.252 . S
O74 In65 2.326 . S
O74 C70 1.260 . S
C75 O66 1.240 . S
C75 O67 1.252 . S
O76 In65 2.294 . S
O76 C69 1.240 . S
O77 In65 2.326 . S
O77 C69 1.252 . S
In78 O79 2.294 . S
In78 O80 2.326 . S
In78 O84 2.266 . S
In78 O85 2.326 . S
In78 O86 2.266 . S
In78 O87 2.326 . S
In78 O89 2.294 . S
In78 O90 2.326 . S
O79 In78 2.294 . S
O79 C88 1.240 . S
O80 In78 2.326 . S
O80 C88 1.252 . S
C81 O84 1.252 . S
C81 O85 1.260 . S
C82 O89 1.240 . S
C82 O90 1.252 . S
C83 O86 1.252 . S
C83 O87 1.260 . S
O84 In78 2.266 . S
O84 C81 1.252 . S
O85 In78 2.326 . S
O85 C81 1.260 . S
O86 In78 2.266 . S
O86 C83 1.252 . S
O87 In78 2.326 . S
O87 C83 1.260 . S
C88 O79 1.240 . S
C88 O80 1.252 . S
O89 In78 2.294 . S
O89 C82 1.240 . S
O90 In78 2.326 . S
O90 C82 1.252 . S
In91 O92 2.294 . S
In91 O93 2.326 . S
In91 O97 2.266 . S
In91 O98 2.326 . S
In91 O99 2.266 . S
In91 O100 2.326 . S
In91 O102 2.294 . S
In91 O103 2.326 . S
O92 In91 2.294 . S
O92 C101 1.240 . S
O93 In91 2.326 . S
O93 C101 1.252 . S
C94 O97 1.252 . S
C94 O98 1.260 . S
C95 O102 1.240 . S
C95 O103 1.252 . S
C96 O99 1.252 . S
C96 O100 1.260 . S
O97 In91 2.266 . S
O97 C94 1.252 . S
O98 In91 2.326 . S
O98 C94 1.260 . S
O99 In91 2.266 . S
O99 C96 1.252 . S
O100 In91 2.326 . S
O100 C96 1.260 . S
C101 O92 1.240 . S
C101 O93 1.252 . S
O102 In91 2.294 . S
O102 C95 1.240 . S
O103 In91 2.326 . S
O103 C95 1.252 . S
In104 O105 2.294 . S
In104 O106 2.326 . S
In104 O110 2.266 . S
In104 O111 2.326 . S
In104 O112 2.266 . S
In104 O113 2.326 . S
In104 O115 2.294 . S
In104 O116 2.326 . S
O105 In104 2.294 . S
O105 C114 1.240 . S
O106 In104 2.326 . S
O106 C114 1.252 . S
C107 O110 1.252 . S
C107 O111 1.260 . S
C108 O115 1.240 . S
C108 O116 1.252 . S
C109 O112 1.252 . S
C109 O113 1.260 . S
O110 In104 2.266 . S
O110 C107 1.252 . S
O111 In104 2.326 . S
O111 C107 1.260 . S
O112 In104 2.266 . S
O112 C109 1.252 . S
O113 In104 2.326 . S
O113 C109 1.260 . S
C114 O105 1.240 . S
C114 O106 1.252 . S
O115 In104 2.294 . S
O115 C108 1.240 . S
O116 In104 2.326 . S
O116 C108 1.252 . S
In117 O118 2.294 . S
In117 O119 2.326 . S
In117 O123 2.266 . S
In117 O124 2.326 . S
In117 O125 2.266 . S
In117 O126 2.326 . S
In117 O128 2.294 . S
In117 O129 2.326 . S
O118 In117 2.294 . S
O118 C127 1.240 . S
O119 In117 2.326 . S
O119 C127 1.252 . S
C120 O123 1.252 . S
C120 O124 1.260 . S
C121 O128 1.240 . S
C121 O129 1.252 . S
C122 O125 1.252 . S
C122 O126 1.260 . S
O123 In117 2.266 . S
O123 C120 1.252 . S
O124 In117 2.326 . S
O124 C120 1.260 . S
O125 In117 2.266 . S
O125 C122 1.252 . S
O126 In117 2.326 . S
O126 C122 1.260 . S
C127 O118 1.240 . S
C127 O119 1.252 . S
O128 In117 2.294 . S
O128 C121 1.240 . S
O129 In117 2.326 . S
O129 C121 1.252 . S
In130 O131 2.294 . S
In130 O132 2.326 . S
In130 O136 2.266 . S
In130 O137 2.326 . S
In130 O138 2.266 . S
In130 O139 2.326 . S
In130 O141 2.294 . S
In130 O142 2.326 . S
O131 In130 2.294 . S
O131 C140 1.240 . S
O132 In130 2.326 . S
O132 C140 1.252 . S
C133 O136 1.252 . S
C133 O137 1.260 . S
C134 O141 1.240 . S
C134 O142 1.252 . S
C135 O138 1.252 . S
C135 O139 1.260 . S
O136 In130 2.266 . S
O136 C133 1.252 . S
O137 In130 2.326 . S
O137 C133 1.260 . S
O138 In130 2.266 . S
O138 C135 1.252 . S
O139 In130 2.326 . S
O139 C135 1.260 . S
C140 O131 1.240 . S
C140 O132 1.252 . S
O141 In130 2.294 . S
O141 C134 1.240 . S
O142 In130 2.326 . S
O142 C134 1.252 . S
In143 O144 2.294 . S
In143 O145 2.326 . S
In143 O149 2.266 . S
In143 O150 2.326 . S
In143 O151 2.266 . S
In143 O152 2.326 . S
In143 O154 2.294 . S
In143 O155 2.326 . S
O144 In143 2.294 . S
O144 C153 1.240 . S
O145 In143 2.326 . S
O145 C153 1.252 . S
C146 O149 1.252 . S
C146 O150 1.260 . S
C147 O154 1.240 . S
C147 O155 1.252 . S
C148 O151 1.252 . S
C148 O152 1.260 . S
O149 In143 2.266 . S
O149 C146 1.252 . S
O150 In143 2.326 . S
O150 C146 1.260 . S
O151 In143 2.266 . S
O151 C148 1.252 . S
O152 In143 2.326 . S
O152 C148 1.260 . S
C153 O144 1.240 . S
C153 O145 1.252 . S
O154 In143 2.294 . S
O154 C147 1.240 . S
O155 In143 2.326 . S
O155 C147 1.252 . S
C156 C157 1.391 . S
C156 C158 1.394 . S
C156 H172 0.931 . S
C157 C156 1.391 . S
C157 C161 1.376 . S
C158 C156 1.394 . S
C158 C159 1.369 . S
C158 C162 1.531 . S
C159 C158 1.369 . S
C159 C160 1.410 . S
C159 C167 1.503 . S
C160 C159 1.410 . S
C160 C161 1.392 . S
C160 C163 1.511 . S
C161 C157 1.376 . S
C161 C160 1.392 . S
C161 H173 0.929 . S
C162 C158 1.531 . S
C162 H174 0.960 . S
C162 H175 0.962 . S
C162 H176 0.960 . S
C163 C160 1.511 . S
C163 H177 0.961 . S
C163 H178 0.961 . S
C163 H179 0.961 . S
C164 C165 1.370 . S
C164 C166 1.363 . S
C164 H180 0.931 . S
C165 C164 1.370 . S
C165 C169 1.408 . S
C166 C164 1.363 . S
C166 C167 1.370 . S
C166 C170 1.524 . S
C167 C159 1.503 . S
C167 C166 1.370 . S
C167 C168 1.403 . S
C168 C167 1.403 . S
C168 C169 1.404 . S
C168 C171 1.539 . S
C169 C165 1.408 . S
C169 C168 1.404 . S
C169 H181 0.930 . S
C170 C166 1.524 . S
C170 H182 0.956 . S
C170 H183 0.961 . S
C170 H184 0.961 . S
C171 C168 1.539 . S
C171 H185 0.958 . S
C171 H186 0.961 . S
C171 H187 0.960 . S
H172 C156 0.931 . S
H173 C161 0.929 . S
H174 C162 0.960 . S
H175 C162 0.962 . S
H176 C162 0.960 . S
H177 C163 0.961 . S
H178 C163 0.961 . S
H179 C163 0.961 . S
H180 C164 0.931 . S
H181 C169 0.930 . S
H182 C170 0.956 . S
H183 C170 0.961 . S
H184 C170 0.961 . S
H185 C171 0.958 . S
H186 C171 0.961 . S
H187 C171 0.960 . S
C188 C189 1.391 . S
C188 C190 1.394 . S
C188 H204 0.931 . S
C189 C188 1.391 . S
C189 C193 1.376 . S
C190 C188 1.394 . S
C190 C191 1.369 . S
C190 C194 1.531 . S
C191 C190 1.369 . S
C191 C192 1.410 . S
C191 C199 1.503 . S
C192 C191 1.410 . S
C192 C193 1.392 . S
C192 C195 1.511 . S
C193 C189 1.376 . S
C193 C192 1.392 . S
C193 H205 0.929 . S
C194 C190 1.531 . S
C194 H206 0.960 . S
C194 H207 0.962 . S
C194 H208 0.960 . S
C195 C192 1.511 . S
C195 H209 0.961 . S
C195 H210 0.961 . S
C195 H211 0.961 . S
C196 C197 1.370 . S
C196 C198 1.363 . S
C196 H212 0.931 . S
C197 C196 1.370 . S
C197 C201 1.408 . S
C198 C196 1.363 . S
C198 C199 1.370 . S
C198 C202 1.524 . S
C199 C191 1.503 . S
C199 C198 1.370 . S
C199 C200 1.403 . S
C200 C199 1.403 . S
C200 C201 1.404 . S
C200 C203 1.539 . S
C201 C197 1.408 . S
C201 C200 1.404 . S
C201 H213 0.930 . S
C202 C198 1.524 . S
C202 H214 0.956 . S
C202 H215 0.961 . S
C202 H216 0.961 . S
C203 C200 1.539 . S
C203 H217 0.958 . S
C203 H218 0.961 . S
C203 H219 0.960 . S
H204 C188 0.931 . S
H205 C193 0.929 . S
H206 C194 0.960 . S
H207 C194 0.962 . S
H208 C194 0.960 . S
H209 C195 0.961 . S
H210 C195 0.961 . S
H211 C195 0.961 . S
H212 C196 0.931 . S
H213 C201 0.930 . S
H214 C202 0.956 . S
H215 C202 0.961 . S
H216 C202 0.961 . S
H217 C203 0.958 . S
H218 C203 0.961 . S
H219 C203 0.960 . S
C220 C221 1.391 . S
C220 C222 1.394 . S
C220 H236 0.931 . S
C221 C220 1.391 . S
C221 C225 1.376 . S
C222 C220 1.394 . S
C222 C223 1.369 . S
C222 C226 1.531 . S
C223 C222 1.369 . S
C223 C224 1.410 . S
C223 C231 1.503 . S
C224 C223 1.410 . S
C224 C225 1.392 . S
C224 C227 1.511 . S
C225 C221 1.376 . S
C225 C224 1.392 . S
C225 H237 0.929 . S
C226 C222 1.531 . S
C226 H238 0.960 . S
C226 H239 0.962 . S
C226 H240 0.960 . S
C227 C224 1.511 . S
C227 H241 0.961 . S
C227 H242 0.961 . S
C227 H243 0.961 . S
C228 C229 1.370 . S
C228 C230 1.363 . S
C228 H244 0.931 . S
C229 C228 1.370 . S
C229 C233 1.408 . S
C230 C228 1.363 . S
C230 C231 1.370 . S
C230 C234 1.524 . S
C231 C223 1.503 . S
C231 C230 1.370 . S
C231 C232 1.403 . S
C232 C231 1.403 . S
C232 C233 1.404 . S
C232 C235 1.539 . S
C233 C229 1.408 . S
C233 C232 1.404 . S
C233 H245 0.930 . S
C234 C230 1.524 . S
C234 H246 0.956 . S
C234 H247 0.961 . S
C234 H248 0.961 . S
C235 C232 1.539 . S
C235 H249 0.958 . S
C235 H250 0.961 . S
C235 H251 0.960 . S
H236 C220 0.931 . S
H237 C225 0.929 . S
H238 C226 0.960 . S
H239 C226 0.962 . S
H240 C226 0.960 . S
H241 C227 0.961 . S
H242 C227 0.961 . S
H243 C227 0.961 . S
H244 C228 0.931 . S
H245 C233 0.930 . S
H246 C234 0.956 . S
H247 C234 0.961 . S
H248 C234 0.961 . S
H249 C235 0.958 . S
H250 C235 0.961 . S
H251 C235 0.960 . S
C252 C253 1.391 . S
C252 C254 1.394 . S
C252 H268 0.931 . S
C253 C252 1.391 . S
C253 C257 1.376 . S
C254 C252 1.394 . S
C254 C255 1.369 . S
C254 C258 1.531 . S
C255 C254 1.369 . S
C255 C256 1.410 . S
C255 C263 1.503 . S
C256 C255 1.410 . S
C256 C257 1.392 . S
C256 C259 1.511 . S
C257 C253 1.376 . S
C257 C256 1.392 . S
C257 H269 0.929 . S
C258 C254 1.531 . S
C258 H270 0.960 . S
C258 H271 0.962 . S
C258 H272 0.960 . S
C259 C256 1.511 . S
C259 H273 0.961 . S
C259 H274 0.961 . S
C259 H275 0.961 . S
C260 C261 1.370 . S
C260 C262 1.363 . S
C260 H276 0.931 . S
C261 C260 1.370 . S
C261 C265 1.408 . S
C262 C260 1.363 . S
C262 C263 1.370 . S
C262 C266 1.524 . S
C263 C255 1.503 . S
C263 C262 1.370 . S
C263 C264 1.403 . S
C264 C263 1.403 . S
C264 C265 1.404 . S
C264 C267 1.539 . S
C265 C261 1.408 . S
C265 C264 1.404 . S
C265 H277 0.930 . S
C266 C262 1.524 . S
C266 H278 0.956 . S
C266 H279 0.961 . S
C266 H280 0.961 . S
C267 C264 1.539 . S
C267 H281 0.958 . S
C267 H282 0.961 . S
C267 H283 0.960 . S
H268 C252 0.931 . S
H269 C257 0.929 . S
H270 C258 0.960 . S
H271 C258 0.962 . S
H272 C258 0.960 . S
H273 C259 0.961 . S
H274 C259 0.961 . S
H275 C259 0.961 . S
H276 C260 0.931 . S
H277 C265 0.930 . S
H278 C266 0.956 . S
H279 C266 0.961 . S
H280 C266 0.961 . S
H281 C267 0.958 . S
H282 C267 0.961 . S
H283 C267 0.960 . S
C284 C285 1.391 . S
C284 C286 1.394 . S
C284 H300 0.931 . S
C285 C284 1.391 . S
C285 C289 1.376 . S
C286 C284 1.394 . S
C286 C287 1.369 . S
C286 C290 1.531 . S
C287 C286 1.369 . S
C287 C288 1.410 . S
C287 C295 1.503 . S
C288 C287 1.410 . S
C288 C289 1.392 . S
C288 C291 1.511 . S
C289 C285 1.376 . S
C289 C288 1.392 . S
C289 H301 0.929 . S
C290 C286 1.531 . S
C290 H302 0.960 . S
C290 H303 0.962 . S
C290 H304 0.960 . S
C291 C288 1.511 . S
C291 H305 0.961 . S
C291 H306 0.961 . S
C291 H307 0.961 . S
C292 C293 1.370 . S
C292 C294 1.363 . S
C292 H308 0.931 . S
C293 C292 1.370 . S
C293 C297 1.408 . S
C294 C292 1.363 . S
C294 C295 1.370 . S
C294 C298 1.524 . S
C295 C287 1.503 . S
C295 C294 1.370 . S
C295 C296 1.403 . S
C296 C295 1.403 . S
C296 C297 1.404 . S
C296 C299 1.539 . S
C297 C293 1.408 . S
C297 C296 1.404 . S
C297 H309 0.930 . S
C298 C294 1.524 . S
C298 H310 0.956 . S
C298 H311 0.961 . S
C298 H312 0.961 . S
C299 C296 1.539 . S
C299 H313 0.958 . S
C299 H314 0.961 . S
C299 H315 0.960 . S
H300 C284 0.931 . S
H301 C289 0.929 . S
H302 C290 0.960 . S
H303 C290 0.962 . S
H304 C290 0.960 . S
H305 C291 0.961 . S
H306 C291 0.961 . S
H307 C291 0.961 . S
H308 C292 0.931 . S
H309 C297 0.930 . S
H310 C298 0.956 . S
H311 C298 0.961 . S
H312 C298 0.961 . S
H313 C299 0.958 . S
H314 C299 0.961 . S
H315 C299 0.960 . S
C316 C317 1.391 . S
C316 C318 1.394 . S
C316 H332 0.931 . S
C317 C316 1.391 . S
C317 C321 1.376 . S
C318 C316 1.394 . S
C318 C319 1.369 . S
C318 C322 1.531 . S
C319 C318 1.369 . S
C319 C320 1.410 . S
C319 C327 1.503 . S
C320 C319 1.410 . S
C320 C321 1.392 . S
C320 C323 1.511 . S
C321 C317 1.376 . S
C321 C320 1.392 . S
C321 H333 0.929 . S
C322 C318 1.531 . S
C322 H334 0.960 . S
C322 H335 0.962 . S
C322 H336 0.960 . S
C323 C320 1.511 . S
C323 H337 0.961 . S
C323 H338 0.961 . S
C323 H339 0.961 . S
C324 C325 1.370 . S
C324 C326 1.363 . S
C324 H340 0.931 . S
C325 C324 1.370 . S
C325 C329 1.408 . S
C326 C324 1.363 . S
C326 C327 1.370 . S
C326 C330 1.524 . S
C327 C319 1.503 . S
C327 C326 1.370 . S
C327 C328 1.403 . S
C328 C327 1.403 . S
C328 C329 1.404 . S
C328 C331 1.539 . S
C329 C325 1.408 . S
C329 C328 1.404 . S
C329 H341 0.930 . S
C330 C326 1.524 . S
C330 H342 0.956 . S
C330 H343 0.961 . S
C330 H344 0.961 . S
C331 C328 1.539 . S
C331 H345 0.958 . S
C331 H346 0.961 . S
C331 H347 0.960 . S
H332 C316 0.931 . S
H333 C321 0.929 . S
H334 C322 0.960 . S
H335 C322 0.962 . S
H336 C322 0.960 . S
H337 C323 0.961 . S
H338 C323 0.961 . S
H339 C323 0.961 . S
H340 C324 0.931 . S
H341 C329 0.930 . S
H342 C330 0.956 . S
H343 C330 0.961 . S
H344 C330 0.961 . S
H345 C331 0.958 . S
H346 C331 0.961 . S
H347 C331 0.960 . S
C348 C349 1.391 . S
C348 C350 1.394 . S
C348 H364 0.931 . S
C349 C348 1.391 . S
C349 C353 1.376 . S
C350 C348 1.394 . S
C350 C351 1.369 . S
C350 C354 1.531 . S
C351 C350 1.369 . S
C351 C352 1.410 . S
C351 C359 1.503 . S
C352 C351 1.410 . S
C352 C353 1.392 . S
C352 C355 1.511 . S
C353 C349 1.376 . S
C353 C352 1.392 . S
C353 H365 0.929 . S
C354 C350 1.531 . S
C354 H366 0.960 . S
C354 H367 0.962 . S
C354 H368 0.960 . S
C355 C352 1.511 . S
C355 H369 0.961 . S
C355 H370 0.961 . S
C355 H371 0.961 . S
C356 C357 1.370 . S
C356 C358 1.363 . S
C356 H372 0.931 . S
C357 C356 1.370 . S
C357 C361 1.408 . S
C358 C356 1.363 . S
C358 C359 1.370 . S
C358 C362 1.524 . S
C359 C351 1.503 . S
C359 C358 1.370 . S
C359 C360 1.403 . S
C360 C359 1.403 . S
C360 C361 1.404 . S
C360 C363 1.539 . S
C361 C357 1.408 . S
C361 C360 1.404 . S
C361 H373 0.930 . S
C362 C358 1.524 . S
C362 H374 0.956 . S
C362 H375 0.961 . S
C362 H376 0.961 . S
C363 C360 1.539 . S
C363 H377 0.958 . S
C363 H378 0.961 . S
C363 H379 0.960 . S
H364 C348 0.931 . S
H365 C353 0.929 . S
H366 C354 0.960 . S
H367 C354 0.962 . S
H368 C354 0.960 . S
H369 C355 0.961 . S
H370 C355 0.961 . S
H371 C355 0.961 . S
H372 C356 0.931 . S
H373 C361 0.930 . S
H374 C362 0.956 . S
H375 C362 0.961 . S
H376 C362 0.961 . S
H377 C363 0.958 . S
H378 C363 0.961 . S
H379 C363 0.960 . S
C380 C381 1.391 . S
C380 C382 1.394 . S
C380 H396 0.931 . S
C381 C380 1.391 . S
C381 C385 1.376 . S
C382 C380 1.394 . S
C382 C383 1.369 . S
C382 C386 1.531 1_655 S
C383 C382 1.369 . S
C383 C384 1.410 . S
C383 C391 1.503 1_655 S
C384 C383 1.410 . S
C384 C385 1.392 . S
C384 C387 1.511 . S
C385 C381 1.376 . S
C385 C384 1.392 . S
C385 H397 0.929 . S
C386 C382 1.531 1_455 S
C386 H398 0.960 . S
C386 H399 0.962 . S
C386 H400 0.960 . S
C387 C384 1.511 . S
C387 H401 0.961 . S
C387 H402 0.961 . S
C387 H403 0.961 . S
C388 C389 1.370 . S
C388 C390 1.363 . S
C388 H404 0.931 . S
C389 C388 1.370 . S
C389 C393 1.408 . S
C390 C388 1.363 . S
C390 C391 1.370 . S
C390 C394 1.524 1_455 S
C391 C383 1.503 1_455 S
C391 C390 1.370 . S
C391 C392 1.403 . S
C392 C391 1.403 . S
C392 C393 1.404 . S
C392 C395 1.539 . S
C393 C389 1.408 . S
C393 C392 1.404 . S
C393 H405 0.930 . S
C394 C390 1.524 1_655 S
C394 H406 0.956 . S
C394 H407 0.961 . S
C394 H408 0.961 . S
C395 C392 1.539 . S
C395 H409 0.958 . S
C395 H410 0.961 . S
C395 H411 0.960 . S
H396 C380 0.931 . S
H397 C385 0.929 . S
H398 C386 0.960 . S
H399 C386 0.962 . S
H400 C386 0.960 . S
H401 C387 0.961 . S
H402 C387 0.961 . S
H403 C387 0.961 . S
H404 C388 0.931 . S
H405 C393 0.930 . S
H406 C394 0.956 . S
H407 C394 0.961 . S
H408 C394 0.961 . S
H409 C395 0.958 . S
H410 C395 0.961 . S
H411 C395 0.960 . S
C412 C413 1.391 . S
C412 C414 1.394 . S
C412 H428 0.931 . S
C413 C412 1.391 . S
C413 C417 1.376 . S
C414 C412 1.394 . S
C414 C415 1.369 . S
C414 C418 1.531 . S
C415 C414 1.369 . S
C415 C416 1.410 . S
C415 C423 1.503 1_545 S
C416 C415 1.410 . S
C416 C417 1.392 . S
C416 C419 1.511 . S
C417 C413 1.376 . S
C417 C416 1.392 . S
C417 H429 0.929 . S
C418 C414 1.531 . S
C418 H430 0.960 1_545 S
C418 H431 0.962 . S
C418 H432 0.960 . S
C419 C416 1.511 . S
C419 H433 0.961 . S
C419 H434 0.961 1_545 S
C419 H435 0.961 1_545 S
C420 C421 1.370 . S
C420 C422 1.363 . S
C420 H436 0.931 . S
C421 C420 1.370 . S
C421 C425 1.408 . S
C422 C420 1.363 . S
C422 C423 1.370 . S
C422 C426 1.524 1_565 S
C423 C415 1.503 1_565 S
C423 C422 1.370 . S
C423 C424 1.403 . S
C424 C423 1.403 . S
C424 C425 1.404 . S
C424 C427 1.539 . S
C425 C421 1.408 . S
C425 C424 1.404 . S
C425 H437 0.930 . S
C426 C422 1.524 1_545 S
C426 H438 0.956 . S
C426 H439 0.961 . S
C426 H440 0.961 . S
C427 C424 1.539 . S
C427 H441 0.958 . S
C427 H442 0.961 . S
C427 H443 0.960 . S
H428 C412 0.931 . S
H429 C417 0.929 . S
H430 C418 0.960 1_565 S
H431 C418 0.962 . S
H432 C418 0.960 . S
H433 C419 0.961 . S
H434 C419 0.961 1_565 S
H435 C419 0.961 1_565 S
H436 C420 0.931 . S
H437 C425 0.930 . S
H438 C426 0.956 . S
H439 C426 0.961 . S
H440 C426 0.961 . S
H441 C427 0.958 . S
H442 C427 0.961 . S
H443 C427 0.960 . S
C444 C445 1.391 . S
C444 C446 1.394 . S
C444 H460 0.931 . S
C445 C444 1.391 . S
C445 C449 1.376 . S
C446 C444 1.394 . S
C446 C447 1.369 . S
C446 C450 1.531 . S
C447 C446 1.369 . S
C447 C448 1.410 . S
C447 C455 1.503 . S
C448 C447 1.410 . S
C448 C449 1.392 . S
C448 C451 1.511 . S
C449 C445 1.376 . S
C449 C448 1.392 . S
C449 H461 0.929 . S
C450 C446 1.531 . S
C450 H462 0.960 . S
C450 H463 0.962 . S
C450 H464 0.960 . S
C451 C448 1.511 . S
C451 H465 0.961 . S
C451 H466 0.961 . S
C451 H467 0.961 . S
C452 C453 1.370 . S
C452 C454 1.363 . S
C452 H468 0.931 . S
C453 C452 1.370 . S
C453 C457 1.408 . S
C454 C452 1.363 . S
C454 C455 1.370 . S
C454 C458 1.524 . S
C455 C447 1.503 . S
C455 C454 1.370 . S
C455 C456 1.403 . S
C456 C455 1.403 . S
C456 C457 1.404 . S
C456 C459 1.539 . S
C457 C453 1.408 . S
C457 C456 1.404 . S
C457 H469 0.930 . S
C458 C454 1.524 . S
C458 H470 0.956 . S
C458 H471 0.961 . S
C458 H472 0.961 . S
C459 C456 1.539 . S
C459 H473 0.958 . S
C459 H474 0.961 . S
C459 H475 0.960 . S
H460 C444 0.931 . S
H461 C449 0.929 . S
H462 C450 0.960 . S
H463 C450 0.962 . S
H464 C450 0.960 . S
H465 C451 0.961 . S
H466 C451 0.961 . S
H467 C451 0.961 . S
H468 C452 0.931 . S
H469 C457 0.930 . S
H470 C458 0.956 . S
H471 C458 0.961 . S
H472 C458 0.961 . S
H473 C459 0.958 . S
H474 C459 0.961 . S
H475 C459 0.960 . S
C476 C477 1.391 . S
C476 C478 1.394 . S
C476 H492 0.931 . S
C477 C476 1.391 . S
C477 C481 1.376 . S
C478 C476 1.394 . S
C478 C479 1.369 . S
C478 C482 1.531 . S
C479 C478 1.369 . S
C479 C480 1.410 . S
C479 C487 1.503 1_655 S
C480 C479 1.410 . S
C480 C481 1.392 . S
C480 C483 1.511 . S
C481 C477 1.376 . S
C481 C480 1.392 . S
C481 H493 0.929 . S
C482 C478 1.531 . S
C482 H494 0.960 . S
C482 H495 0.962 . S
C482 H496 0.960 . S
C483 C480 1.511 . S
C483 H497 0.961 . S
C483 H498 0.961 1_655 S
C483 H499 0.961 . S
C484 C485 1.370 . S
C484 C486 1.363 . S
C484 H500 0.931 . S
C485 C484 1.370 . S
C485 C489 1.408 . S
C486 C484 1.363 . S
C486 C487 1.370 . S
C486 C490 1.524 . S
C487 C479 1.503 1_455 S
C487 C486 1.370 . S
C487 C488 1.403 . S
C488 C487 1.403 . S
C488 C489 1.404 . S
C488 C491 1.539 1_455 S
C489 C485 1.408 . S
C489 C488 1.404 . S
C489 H501 0.930 . S
C490 C486 1.524 . S
C490 H502 0.956 . S
C490 H503 0.961 . S
C490 H504 0.961 . S
C491 C488 1.539 1_655 S
C491 H505 0.958 . S
C491 H506 0.961 . S
C491 H507 0.960 . S
H492 C476 0.931 . S
H493 C481 0.929 . S
H494 C482 0.960 . S
H495 C482 0.962 . S
H496 C482 0.960 . S
H497 C483 0.961 . S
H498 C483 0.961 1_455 S
H499 C483 0.961 . S
H500 C484 0.931 . S
H501 C489 0.930 . S
H502 C490 0.956 . S
H503 C490 0.961 . S
H504 C490 0.961 . S
H505 C491 0.958 . S
H506 C491 0.961 . S
H507 C491 0.960 . S
C508 C509 1.391 . S
C508 C510 1.394 . S
C508 H524 0.931 . S
C509 C508 1.391 . S
C509 C513 1.376 . S
C510 C508 1.394 . S
C510 C511 1.369 . S
C510 C514 1.531 1_554 S
C511 C510 1.369 . S
C511 C512 1.410 . S
C511 C519 1.503 1_564 S
C512 C511 1.410 . S
C512 C513 1.392 . S
C512 C515 1.511 . S
C513 C509 1.376 . S
C513 C512 1.392 . S
C513 H525 0.929 . S
C514 C510 1.531 1_556 S
C514 H526 0.960 . S
C514 H527 0.957 1_556 S
C514 H528 0.960 . S
C515 C512 1.511 . S
C515 H529 0.961 . S
C515 H530 0.961 1_565 S
C515 H531 0.922 1_554 S
C516 C517 1.370 . S
C516 C518 1.363 1_556 S
C516 H532 0.931 . S
C517 C516 1.370 . S
C517 C521 1.408 . S
C518 C516 1.363 1_554 S
C518 C519 1.370 1_554 S
C518 C522 1.524 . S
C519 C511 1.503 1_546 S
C519 C518 1.370 1_556 S
C519 C520 1.403 . S
C520 C519 1.403 . S
C520 C521 1.404 . S
C520 C523 1.539 1_545 S
C521 C517 1.408 . S
C521 C520 1.404 . S
C521 H533 0.930 . S
C522 C518 1.524 . S
C522 H534 0.956 . S
C522 H535 0.961 . S
C522 H536 0.961 . S
C523 C520 1.539 1_565 S
C523 H537 0.958 . S
C523 H538 0.961 . S
C523 H539 0.960 . S
H524 C508 0.931 . S
H525 C513 0.929 . S
H526 C514 0.960 . S
H527 C514 0.957 1_554 S
H528 C514 0.960 . S
H529 C515 0.961 . S
H530 C515 0.961 1_545 S
H531 C515 0.922 1_556 S
H532 C516 0.931 . S
H533 C521 0.930 . S
H534 C522 0.956 . S
H535 C522 0.961 . S
H536 C522 0.961 . S
H537 C523 0.958 . S
H538 C523 0.961 . S
H539 C523 0.960 . S
C540 C541 1.391 . S
C540 C542 1.394 . S
C540 H556 0.931 . S
C541 C540 1.391 . S
C541 C545 1.376 . S
C542 C540 1.394 . S
C542 C543 1.369 . S
C542 C546 1.531 1_554 S
C543 C542 1.369 . S
C543 C544 1.410 . S
C543 C551 1.503 . S
C544 C543 1.410 . S
C544 C545 1.392 . S
C544 C547 1.511 . S
C545 C541 1.376 . S
C545 C544 1.392 . S
C545 H557 0.929 . S
C546 C542 1.531 1_556 S
C546 H558 0.960 . S
C546 H559 0.962 . S
C546 H560 0.960 . S
C547 C544 1.511 . S
C547 H561 0.961 . S
C547 H562 0.961 . S
C547 H563 0.961 . S
C548 C549 1.370 . S
C548 C550 1.363 1_556 S
C548 H564 0.931 . S
C549 C548 1.370 . S
C549 C553 1.408 . S
C550 C548 1.363 1_554 S
C550 C551 1.370 . S
C550 C554 1.524 . S
C551 C543 1.503 . S
C551 C550 1.370 . S
C551 C552 1.403 1_554 S
C552 C551 1.403 1_556 S
C552 C553 1.404 . S
C552 C555 1.539 . S
C553 C549 1.408 . S
C553 C552 1.404 . S
C553 H565 0.930 . S
C554 C550 1.524 . S
C554 H566 0.956 . S
C554 H567 0.961 . S
C554 H568 0.961 . S
C555 C552 1.539 . S
C555 H569 0.958 . S
C555 H570 0.961 . S
C555 H571 0.927 1_556 S
H556 C540 0.931 . S
H557 C545 0.929 . S
H558 C546 0.960 . S
H559 C546 0.962 . S
H560 C546 0.960 . S
H561 C547 0.961 . S
H562 C547 0.961 . S
H563 C547 0.961 . S
H564 C548 0.931 . S
H565 C553 0.930 . S
H566 C554 0.956 . S
H567 C554 0.961 . S
H568 C554 0.961 . S
H569 C555 0.958 . S
H570 C555 0.961 . S
H571 C555 0.927 1_554 S
C572 C573 1.391 . S
C572 C574 1.394 . S
C572 H588 0.931 . S
C573 C572 1.391 . S
C573 C577 1.376 . S
C574 C572 1.394 . S
C574 C575 1.369 . S
C574 C578 1.531 . S
C575 C574 1.369 . S
C575 C576 1.410 . S
C575 C583 1.503 . S
C576 C575 1.410 . S
C576 C577 1.392 . S
C576 C579 1.511 . S
C577 C573 1.376 . S
C577 C576 1.392 . S
C577 H589 0.929 . S
C578 C574 1.531 . S
C578 H590 0.960 1_655 S
C578 H591 0.962 . S
C578 H592 0.960 . S
C579 C576 1.511 . S
C579 H593 0.961 . S
C579 H594 0.961 . S
C579 H595 0.961 . S
C580 C581 1.370 . S
C580 C582 1.363 1_455 S
C580 H596 0.931 . S
C581 C580 1.370 . S
C581 C585 1.408 . S
C582 C580 1.363 1_655 S
C582 C583 1.370 . S
C582 C586 1.524 . S
C583 C575 1.503 . S
C583 C582 1.370 . S
C583 C584 1.403 1_655 S
C584 C583 1.403 1_455 S
C584 C585 1.404 . S
C584 C587 1.539 . S
C585 C581 1.408 . S
C585 C584 1.404 . S
C585 H597 0.930 . S
C586 C582 1.524 . S
C586 H598 0.956 . S
C586 H599 0.961 . S
C586 H600 0.961 . S
C587 C584 1.539 . S
C587 H601 0.958 . S
C587 H602 0.961 . S
C587 H603 0.960 . S
H588 C572 0.931 . S
H589 C577 0.929 . S
H590 C578 0.960 1_455 S
H591 C578 0.962 . S
H592 C578 0.960 . S
H593 C579 0.961 . S
H594 C579 0.961 . S
H595 C579 0.961 . S
H596 C580 0.931 . S
H597 C585 0.930 . S
H598 C586 0.956 . S
H599 C586 0.961 . S
H600 C586 0.961 . S
H601 C587 0.958 . S
H602 C587 0.961 . S
H603 C587 0.960 . S
C604 C605 1.391 . S
C604 C606 1.394 . S
C604 H620 0.931 . S
C605 C604 1.391 . S
C605 C609 1.376 . S
C606 C604 1.394 . S
C606 C607 1.369 1_545 S
C606 C610 1.531 . S
C607 C606 1.369 1_565 S
C607 C608 1.410 . S
C607 C615 1.503 . S
C608 C607 1.410 . S
C608 C609 1.392 1_565 S
C608 C611 1.511 . S
C609 C605 1.376 . S
C609 C608 1.392 1_545 S
C609 H621 0.929 . S
C610 C606 1.531 . S
C610 H622 0.960 . S
C610 H623 0.962 . S
C610 H624 0.960 . S
C611 C608 1.511 . S
C611 H625 0.961 . S
C611 H626 0.961 . S
C611 H627 0.961 . S
C612 C613 1.370 . S
C612 C614 1.363 . S
C612 H628 0.931 . S
C613 C612 1.370 . S
C613 C617 1.408 . S
C614 C612 1.363 . S
C614 C615 1.370 . S
C614 C618 1.524 . S
C615 C607 1.503 . S
C615 C614 1.370 . S
C615 C616 1.403 . S
C616 C615 1.403 . S
C616 C617 1.404 . S
C616 C619 1.539 . S
C617 C613 1.408 . S
C617 C616 1.404 . S
C617 H629 0.930 . S
C618 C614 1.524 . S
C618 H630 0.956 . S
C618 H631 0.961 . S
C618 H632 0.961 . S
C619 C616 1.539 . S
C619 H633 0.958 1_565 S
C619 H634 0.961 . S
C619 H635 0.960 . S
H620 C604 0.931 . S
H621 C609 0.929 . S
H622 C610 0.960 . S
H623 C610 0.962 . S
H624 C610 0.960 . S
H625 C611 0.961 . S
H626 C611 0.961 . S
H627 C611 0.961 . S
H628 C612 0.931 . S
H629 C617 0.930 . S
H630 C618 0.956 . S
H631 C618 0.961 . S
H632 C618 0.961 . S
H633 C619 0.958 1_545 S
H634 C619 0.961 . S
H635 C619 0.960 . S
C636 C637 1.391 . S
C636 C638 1.394 . S
C636 H652 0.931 . S
C637 C636 1.391 . S
C637 C641 1.376 . S
C638 C636 1.394 . S
C638 C639 1.369 . S
C638 C642 1.531 . S
C639 C638 1.369 . S
C639 C640 1.410 . S
C639 C647 1.503 . S
C640 C639 1.410 . S
C640 C641 1.392 . S
C640 C643 1.511 . S
C641 C637 1.376 . S
C641 C640 1.392 . S
C641 H653 0.929 . S
C642 C638 1.531 . S
C642 H654 0.960 . S
C642 H655 0.962 . S
C642 H656 0.960 . S
C643 C640 1.511 . S
C643 H657 0.961 . S
C643 H658 0.961 . S
C643 H659 0.961 . S
C644 C645 1.370 . S
C644 C646 1.363 . S
C644 H660 0.931 . S
C645 C644 1.370 . S
C645 C649 1.408 . S
C646 C644 1.363 . S
C646 C647 1.370 . S
C646 C650 1.524 . S
C647 C639 1.503 . S
C647 C646 1.370 . S
C647 C648 1.403 . S
C648 C647 1.403 . S
C648 C649 1.404 . S
C648 C651 1.539 . S
C649 C645 1.408 . S
C649 C648 1.404 . S
C649 H661 0.930 . S
C650 C646 1.524 . S
C650 H662 0.956 . S
C650 H663 0.961 . S
C650 H664 0.961 . S
C651 C648 1.539 . S
C651 H665 0.958 . S
C651 H666 0.961 . S
C651 H667 0.960 . S
H652 C636 0.931 . S
H653 C641 0.929 . S
H654 C642 0.960 . S
H655 C642 0.962 . S
H656 C642 0.960 . S
H657 C643 0.961 . S
H658 C643 0.961 . S
H659 C643 0.961 . S
H660 C644 0.931 . S
H661 C649 0.930 . S
H662 C650 0.956 . S
H663 C650 0.961 . S
H664 C650 0.961 . S
H665 C651 0.958 . S
H666 C651 0.961 . S
H667 C651 0.960 . S
C668 C669 1.391 . S
C668 C670 1.394 . S
C668 H684 0.931 . S
C669 C668 1.391 . S
C669 C673 1.376 . S
C670 C668 1.394 . S
C670 C671 1.369 . S
C670 C674 1.531 . S
C671 C670 1.369 . S
C671 C672 1.410 . S
C671 C679 1.503 . S
C672 C671 1.410 . S
C672 C673 1.392 . S
C672 C675 1.511 . S
C673 C669 1.376 . S
C673 C672 1.392 . S
C673 H685 0.929 . S
C674 C670 1.531 . S
C674 H686 0.960 . S
C674 H687 0.962 . S
C674 H688 0.960 . S
C675 C672 1.511 . S
C675 H689 0.961 . S
C675 H690 0.960 1_455 S
C675 H691 0.961 1_455 S
C676 C677 1.370 . S
C676 C678 1.363 1_655 S
C676 H692 0.931 . S
C677 C676 1.370 . S
C677 C681 1.408 . S
C678 C676 1.363 1_455 S
C678 C679 1.370 . S
C678 C682 1.524 . S
C679 C671 1.503 . S
C679 C678 1.370 . S
C679 C680 1.403 1_455 S
C680 C679 1.403 1_655 S
C680 C681 1.404 . S
C680 C683 1.539 . S
C681 C677 1.408 . S
C681 C680 1.404 . S
C681 H693 0.930 . S
C682 C678 1.524 . S
C682 H694 0.956 . S
C682 H695 0.961 . S
C682 H696 0.961 . S
C683 C680 1.539 . S
C683 H697 0.958 . S
C683 H698 0.961 . S
C683 H699 0.960 . S
H684 C668 0.931 . S
H685 C673 0.929 . S
H686 C674 0.960 . S
H687 C674 0.962 . S
H688 C674 0.960 . S
H689 C675 0.961 . S
H690 C675 0.960 1_655 S
H691 C675 0.961 1_655 S
H692 C676 0.931 . S
H693 C681 0.930 . S
H694 C682 0.956 . S
H695 C682 0.961 . S
H696 C682 0.961 . S
H697 C683 0.958 . S
H698 C683 0.961 . S
H699 C683 0.960 . S
C700 C701 1.391 . S
C700 C702 1.394 . S
C700 H716 0.931 . S
C701 C700 1.391 . S
C701 C705 1.376 . S
C702 C700 1.394 . S
C702 C703 1.369 . S
C702 C706 1.531 . S
C703 C702 1.369 . S
C703 C704 1.410 . S
C703 C711 1.503 . S
C704 C703 1.410 . S
C704 C705 1.392 . S
C704 C707 1.511 . S
C705 C701 1.376 . S
C705 C704 1.392 . S
C705 H717 0.929 . S
C706 C702 1.531 . S
C706 H718 0.960 . S
C706 H719 0.962 . S
C706 H720 0.960 . S
C707 C704 1.511 . S
C707 H721 0.961 . S
C707 H722 0.961 . S
C707 H723 0.961 . S
C708 C709 1.370 . S
C708 C710 1.363 . S
C708 H724 0.931 . S
C709 C708 1.370 . S
C709 C713 1.408 . S
C710 C708 1.363 . S
C710 C711 1.370 1_565 S
C710 C714 1.524 . S
C711 C703 1.503 . S
C711 C710 1.370 1_545 S
C711 C712 1.403 . S
C712 C711 1.403 . S
C712 C713 1.404 1_545 S
C712 C715 1.539 . S
C713 C709 1.408 . S
C713 C712 1.404 1_565 S
C713 H725 0.930 . S
C714 C710 1.524 . S
C714 H726 0.956 . S
C714 H727 0.961 . S
C714 H728 0.961 . S
C715 C712 1.539 . S
C715 H729 0.958 . S
C715 H730 0.961 . S
C715 H731 0.960 . S
H716 C700 0.931 . S
H717 C705 0.929 . S
H718 C706 0.960 . S
H719 C706 0.962 . S
H720 C706 0.960 . S
H721 C707 0.961 . S
H722 C707 0.961 . S
H723 C707 0.961 . S
H724 C708 0.931 . S
H725 C713 0.930 . S
H726 C714 0.956 . S
H727 C714 0.961 . S
H728 C714 0.961 . S
H729 C715 0.958 . S
H730 C715 0.961 . S
H731 C715 0.960 . S
C732 C733 1.391 . S
C732 C734 1.394 . S
C732 H748 0.931 . S
C733 C732 1.391 . S
C733 C737 1.376 . S
C734 C732 1.394 . S
C734 C735 1.369 . S
C734 C738 1.531 . S
C735 C734 1.369 . S
C735 C736 1.410 . S
C735 C743 1.503 . S
C736 C735 1.410 . S
C736 C737 1.392 . S
C736 C739 1.511 . S
C737 C733 1.376 . S
C737 C736 1.392 . S
C737 H749 0.929 . S
C738 C734 1.531 . S
C738 H750 0.960 . S
C738 H751 0.962 . S
C738 H752 0.960 . S
C739 C736 1.511 . S
C739 H753 0.961 . S
C739 H754 0.961 . S
C739 H755 0.961 . S
C740 C741 1.370 . S
C740 C742 1.363 . S
C740 H756 0.931 . S
C741 C740 1.370 . S
C741 C745 1.408 . S
C742 C740 1.363 . S
C742 C743 1.370 . S
C742 C746 1.524 . S
C743 C735 1.503 . S
C743 C742 1.370 . S
C743 C744 1.403 . S
C744 C743 1.403 . S
C744 C745 1.404 . S
C744 C747 1.539 . S
C745 C741 1.408 . S
C745 C744 1.404 . S
C745 H757 0.930 . S
C746 C742 1.524 . S
C746 H758 0.956 . S
C746 H759 0.961 . S
C746 H760 0.961 . S
C747 C744 1.539 . S
C747 H761 0.958 . S
C747 H762 0.961 . S
C747 H763 0.960 . S
H748 C732 0.931 . S
H749 C737 0.929 . S
H750 C738 0.960 . S
H751 C738 0.962 . S
H752 C738 0.960 . S
H753 C739 0.961 . S
H754 C739 0.961 . S
H755 C739 0.961 . S
H756 C740 0.931 . S
H757 C745 0.930 . S
H758 C746 0.956 . S
H759 C746 0.961 . S
H760 C746 0.961 . S
H761 C747 0.958 . S
H762 C747 0.961 . S
H763 C747 0.960 . S
C764 C765 1.391 . S
C764 C766 1.394 . S
C764 H780 0.931 . S
C765 C764 1.391 . S
C765 C769 1.376 . S
C766 C764 1.394 . S
C766 C767 1.369 . S
C766 C770 1.531 . S
C767 C766 1.369 . S
C767 C768 1.410 . S
C767 C775 1.532 . S
C768 C767 1.410 . S
C768 C769 1.392 . S
C768 C771 1.511 1_556 S
C769 C765 1.376 . S
C769 C768 1.392 . S
C769 H781 0.929 . S
C770 C766 1.531 . S
C770 H782 0.960 1_655 S
C770 H783 0.962 1_655 S
C770 H784 0.960 . S
C771 C768 1.511 1_554 S
C771 H785 0.969 . S
C771 H786 0.961 . S
C771 H787 0.961 . S
C772 C773 1.370 . S
C772 C774 1.363 1_554 S
C772 H788 0.931 . S
C773 C772 1.370 . S
C773 C777 1.408 . S
C774 C772 1.363 1_556 S
C774 C775 1.383 1_455 S
C774 C778 1.524 . S
C775 C767 1.532 . S
C775 C774 1.383 1_655 S
C775 C776 1.363 1_556 S
C776 C775 1.363 1_554 S
C776 C777 1.404 1_655 S
C776 C779 1.539 . S
C777 C773 1.408 . S
C777 C776 1.404 1_455 S
C777 H789 0.930 . S
C778 C774 1.524 . S
C778 H790 0.956 . S
C778 H791 0.961 1_455 S
C778 H792 0.961 . S
C779 C776 1.539 . S
C779 H793 0.958 . S
C779 H794 0.961 . S
C779 H795 0.960 . S
H780 C764 0.931 . S
H781 C769 0.929 . S
H782 C770 0.960 1_455 S
H783 C770 0.962 1_455 S
H784 C770 0.960 . S
H785 C771 0.969 . S
H786 C771 0.961 . S
H787 C771 0.961 . S
H788 C772 0.931 . S
H789 C777 0.930 . S
H790 C778 0.956 . S
H791 C778 0.961 1_655 S
H792 C778 0.961 . S
H793 C779 0.958 . S
H794 C779 0.961 . S
H795 C779 0.960 . S
C796 C797 1.391 . S
C796 C798 1.394 . S
C796 H812 0.931 . S
C797 C796 1.391 . S
C797 C801 1.376 . S
C798 C796 1.394 . S
C798 C799 1.369 . S
C798 C802 1.531 1_565 S
C799 C798 1.369 . S
C799 C800 1.410 . S
C799 C807 1.503 . S
C800 C799 1.410 . S
C800 C801 1.392 . S
C800 C803 1.511 . S
C801 C797 1.376 . S
C801 C800 1.392 . S
C801 H813 0.929 . S
C802 C798 1.531 1_545 S
C802 H814 0.960 . S
C802 H815 0.962 . S
C802 H816 0.960 . S
C803 C800 1.511 . S
C803 H817 0.961 . S
C803 H818 0.961 . S
C803 H819 0.961 . S
C804 C805 1.370 . S
C804 C806 1.363 . S
C804 H820 0.931 . S
C805 C804 1.370 . S
C805 C809 1.408 . S
C806 C804 1.363 . S
C806 C807 1.370 1_545 S
C806 C810 1.524 1_545 S
C807 C799 1.503 . S
C807 C806 1.370 1_565 S
C807 C808 1.403 1_565 S
C808 C807 1.403 1_545 S
C808 C809 1.404 . S
C808 C811 1.544 1_545 S
C809 C805 1.408 . S
C809 C808 1.404 . S
C809 H821 0.930 . S
C810 C806 1.524 1_565 S
C810 H822 0.956 . S
C810 H823 0.961 . S
C810 H824 0.961 . S
C811 C808 1.544 1_565 S
C811 H825 0.942 1_565 S
C811 H826 0.952 1_565 S
C811 H827 0.981 . S
H812 C796 0.931 . S
H813 C801 0.929 . S
H814 C802 0.960 . S
H815 C802 0.962 . S
H816 C802 0.960 . S
H817 C803 0.961 . S
H818 C803 0.961 . S
H819 C803 0.961 . S
H820 C804 0.931 . S
H821 C809 0.930 . S
H822 C810 0.956 . S
H823 C810 0.961 . S
H824 C810 0.961 . S
H825 C811 0.942 1_545 S
H826 C811 0.952 1_545 S
H827 C811 0.981 . S
C828 C829 1.391 . S
C828 C830 1.394 . S
C828 H844 0.931 . S
C829 C828 1.391 . S
C829 C833 1.376 . S
C830 C828 1.394 . S
C830 C831 1.369 . S
C830 C834 1.531 . S
C831 C830 1.369 . S
C831 C832 1.410 . S
C831 C839 1.503 . S
C832 C831 1.410 . S
C832 C833 1.392 . S
C832 C835 1.511 . S
C833 C829 1.376 . S
C833 C832 1.392 . S
C833 H845 0.929 . S
C834 C830 1.531 . S
C834 H846 0.960 . S
C834 H847 0.962 . S
C834 H848 0.960 . S
C835 C832 1.511 . S
C835 H849 0.961 . S
C835 H850 0.961 . S
C835 H851 0.961 . S
C836 C837 1.370 . S
C836 C838 1.363 . S
C836 H852 0.931 . S
C837 C836 1.370 . S
C837 C841 1.408 . S
C838 C836 1.363 . S
C838 C839 1.370 . S
C838 C842 1.524 . S
C839 C831 1.503 . S
C839 C838 1.370 . S
C839 C840 1.403 . S
C840 C839 1.403 . S
C840 C841 1.404 . S
C840 C843 1.539 . S
C841 C837 1.408 . S
C841 C840 1.404 . S
C841 H853 0.930 . S
C842 C838 1.524 . S
C842 H854 0.956 . S
C842 H855 0.961 . S
C842 H856 0.961 . S
C843 C840 1.539 . S
C843 H857 0.958 . S
C843 H858 0.961 . S
C843 H859 0.960 . S
H844 C828 0.931 . S
H845 C833 0.929 . S
H846 C834 0.960 . S
H847 C834 0.962 . S
H848 C834 0.960 . S
H849 C835 0.961 . S
H850 C835 0.961 . S
H851 C835 0.961 . S
H852 C836 0.931 . S
H853 C841 0.930 . S
H854 C842 0.956 . S
H855 C842 0.961 . S
H856 C842 0.961 . S
H857 C843 0.958 . S
H858 C843 0.961 . S
H859 C843 0.960 . S
C860 C861 1.391 . S
C860 C862 1.394 . S
C860 H876 0.931 . S
C861 C860 1.391 . S
C861 C865 1.376 . S
C862 C860 1.394 . S
C862 C863 1.369 . S
C862 C866 1.531 1_455 S
C863 C862 1.369 . S
C863 C864 1.410 . S
C863 C871 1.503 . S
C864 C863 1.410 . S
C864 C865 1.392 . S
C864 C867 1.511 . S
C865 C861 1.376 . S
C865 C864 1.392 . S
C865 H877 0.929 . S
C866 C862 1.531 1_655 S
C866 H878 0.960 . S
C866 H879 0.962 . S
C866 H880 0.960 . S
C867 C864 1.511 . S
C867 H881 0.961 . S
C867 H882 0.961 . S
C867 H883 0.961 . S
C868 C869 1.370 . S
C868 C870 1.363 1_655 S
C868 H884 0.931 . S
C869 C868 1.370 . S
C869 C873 1.408 . S
C870 C868 1.363 1_455 S
C870 C871 1.370 . S
C870 C874 1.524 . S
C871 C863 1.503 . S
C871 C870 1.370 . S
C871 C872 1.403 1_455 S
C872 C871 1.403 1_655 S
C872 C873 1.404 . S
C872 C875 1.539 . S
C873 C869 1.408 . S
C873 C872 1.404 . S
C873 H885 0.930 . S
C874 C870 1.524 . S
C874 H886 0.956 . S
C874 H887 0.961 . S
C874 H888 0.961 . S
C875 C872 1.539 . S
C875 H889 0.958 . S
C875 H890 0.961 . S
C875 H891 0.955 1_655 S
H876 C860 0.931 . S
H877 C865 0.929 . S
H878 C866 0.960 . S
H879 C866 0.962 . S
H880 C866 0.960 . S
H881 C867 0.961 . S
H882 C867 0.961 . S
H883 C867 0.961 . S
H884 C868 0.931 . S
H885 C873 0.930 . S
H886 C874 0.956 . S
H887 C874 0.961 . S
H888 C874 0.961 . S
H889 C875 0.958 . S
H890 C875 0.961 . S
H891 C875 0.955 1_455 S
C892 C893 1.391 . S
C892 C894 1.394 . S
C892 H908 0.931 . S
C893 C892 1.391 . S
C893 C897 1.376 . S
C894 C892 1.394 . S
C894 C895 1.384 . S
C894 C898 1.531 1_565 S
C895 C894 1.384 . S
C895 C896 1.409 . S
C895 C903 1.487 1_565 S
C896 C895 1.409 . S
C896 C897 1.392 . S
C896 C899 1.511 . S
C897 C893 1.376 . S
C897 C896 1.392 . S
C897 H909 0.929 . S
C898 C894 1.531 1_545 S
C898 H910 0.960 . S
C898 H911 0.962 . S
C898 H912 0.960 1_545 S
C899 C896 1.511 . S
C899 H913 0.961 . S
C899 H914 0.961 1_565 S
C899 H915 0.961 . S
C900 C901 1.370 . S
C900 C902 1.363 . S
C900 H916 0.931 . S
C901 C900 1.370 . S
C901 C905 1.408 . S
C902 C900 1.363 . S
C902 C903 1.370 . S
C902 C906 1.524 . S
C903 C895 1.487 1_545 S
C903 C902 1.370 . S
C903 C904 1.403 . S
C904 C903 1.403 . S
C904 C905 1.404 . S
C904 C907 1.539 1_545 S
C905 C901 1.408 . S
C905 C904 1.404 . S
C905 H917 0.930 . S
C906 C902 1.524 . S
C906 H918 0.956 . S
C906 H919 0.961 . S
C906 H920 0.961 . S
C907 C904 1.539 1_565 S
C907 H921 0.958 . S
C907 H922 0.961 . S
C907 H923 0.960 . S
H908 C892 0.931 . S
H909 C897 0.929 . S
H910 C898 0.960 . S
H911 C898 0.962 . S
H912 C898 0.960 1_565 S
H913 C899 0.961 . S
H914 C899 0.961 1_545 S
H915 C899 0.961 . S
H916 C900 0.931 . S
H917 C905 0.930 . S
H918 C906 0.956 . S
H919 C906 0.961 . S
H920 C906 0.961 . S
H921 C907 0.958 . S
H922 C907 0.961 . S
H923 C907 0.960 . S
C157 C108 1.237 . S
C165 C4 1.235 . S
C189 C17 1.228 . S
C197 C127 1.238 . S
C221 C30 1.241 . S
C229 C140 1.234 . S
C253 C49 1.228 . S
C261 C153 1.242 . S
C285 C88 1.244 . S
C293 C56 1.236 . S
C317 C69 1.241 . S
C325 C95 1.234 . S
C349 C120 0.999 . S
C357 C5 0.997 . S
C381 C18 1.009 . S
C389 C133 1.008 . S
C413 C146 0.995 . S
C421 C31 1.003 . S
C445 C42 0.981 . S
C453 C81 0.994 . S
C477 C96 0.993 . S
C485 C57 0.995 . S
C509 C109 0.997 . S
C517 C70 0.996 . S
C541 C3 1.582 . S
C549 C75 1.595 . S
C573 C16 1.572 . S
C581 C10 1.585 . S
C605 C23 1.589 . S
C613 C29 1.578 . S
C637 C44 1.588 . S
C645 C36 1.596 . S
C669 C55 1.563 . S
C677 C43 1.587 . S
C701 C68 1.591 . S
C709 C62 1.596 . S
C733 C83 1.566 . S
C741 C101 1.591 . S
C765 C94 1.595 . S
C773 C114 1.591 . S
C797 C107 1.587 . S
C805 C121 1.587 . S
C829 C122 1.593 . S
C837 C134 1.596 . S
C861 C135 1.578 . S
C869 C147 1.585 . S
C893 C82 1.574 . S
C901 C148 1.578 . S
