# Generated by pormake.
# Topology rob, (6)-cn, num edge types: 1
# Building blocks:
#     Node 0, Type 0, BuildingBlock: KUMBOL_clean_sbu_0, # of connection points: 6
#     Node 1, Type 0, BuildingBlock: KUMBOL_clean_sbu_0, # of connection points: 6
#     Node 2, Type 0, BuildingBlock: KUMBOL_clean_sbu_0, # of connection points: 6
#     Node 3, Type 0, BuildingBlock: KUMBOL_clean_sbu_0, # of connection points: 6
#     Edge 4, Type (0, 0), BuildingBlock: MIFKUJ_clean_linker_0, # of connection points: 2
#     Edge 5, Type (0, 0), BuildingBlock: MIFKUJ_clean_linker_0, # of connection points: 2
#     Edge 6, Type (0, 0), BuildingBlock: MIFKUJ_clean_linker_0, # of connection points: 2
#     Edge 7, Type (0, 0), BuildingBlock: MIFKUJ_clean_linker_0, # of connection points: 2
#     Edge 8, Type (0, 0), BuildingBlock: MIFKUJ_clean_linker_0, # of connection points: 2
#     Edge 9, Type (0, 0), BuildingBlock: MIFKUJ_clean_linker_0, # of connection points: 2
#     Edge 10, Type (0, 0), BuildingBlock: MIFKUJ_clean_linker_0, # of connection points: 2
#     Edge 11, Type (0, 0), BuildingBlock: MIFKUJ_clean_linker_0, # of connection points: 2
#     Edge 12, Type (0, 0), BuildingBlock: MIFKUJ_clean_linker_0, # of connection points: 2
#     Edge 13, Type (0, 0), BuildingBlock: MIFKUJ_clean_linker_0, # of connection points: 2
#     Edge 14, Type (0, 0), BuildingBlock: MIFKUJ_clean_linker_0, # of connection points: 2
#     Edge 15, Type (0, 0), BuildingBlock: MIFKUJ_clean_linker_0, # of connection points: 2
# Relax obj value: 0.032
# Max RMSD: 0.149
# Mean RMSD: 0.149
data_MOF--net-rob--node1-KUMBOL_clean_sbu_0--edge1-MIFKUJ_clean_linker_0
_symmetry_space_group_name_H-M    P1
_symmetry_Int_Tables_number       1
_symmetry_cell_setting            triclinic
loop_
_symmetry_equiv_pos_as_xyz
'x, y, z'
_cell_length_a     19.946211
_cell_length_b     33.933488
_cell_length_c     41.959766
_cell_angle_alpha  118.42672
_cell_angle_beta   90.080409
_cell_angle_gamma 89.913554
loop_
_atom_site_label
_atom_site_type_symbol
_atom_site_fract_x
_atom_site_fract_y
_atom_site_fract_z
_atom_type_partial_charge
Gd0 Gd 0.30626 0.21444 0.97252 0.0
Gd1 Gd 0.18652 0.29342 0.03981 0.0
C2 C 0.01902 0.3609 1.00907 0.0
C3 C 0.05172 0.43931 0.04136 0.0
C4 C 0.11891 0.38264 0.04632 0.0
C5 C 0.07579 0.34964 0.02313 0.0
C6 C 0.10687 0.42799 0.05625 0.0
C7 C 0.00788 0.40581 0.01779 0.0
C8 C 0.9744 0.32684 0.98737 0.0
C9 C 0.98595 0.28312 0.98106 0.0
N10 N 0.08794 0.30669 0.01547 0.0
C11 C 0.04276 0.27371 0.99587 0.0
H12 H 0.05111 0.23979 0.99075 0.0
C13 C 0.21174 0.40225 0.08603 0.0
N14 N 0.17137 0.3705 0.06028 0.0
C15 C 0.20211 0.44767 0.09663 0.0
C16 C 0.14984 0.46059 0.08139 0.0
H17 H 0.25252 0.39244 0.09771 0.0
H18 H 0.96482 0.41508 1.00702 0.0
H19 H 0.44296 0.26666 0.02064 0.0
H20 H 0.93022 0.33415 0.97607 0.0
H21 H 0.95117 0.25664 0.96479 0.0
H22 H 0.04185 0.47392 0.04842 0.0
H23 H 0.23492 0.11592 0.91672 0.0
H24 H 0.5641 0.17071 0.03302 0.0
H25 H 0.5445 0.24837 0.04449 0.0
H26 H 0.44617 0.03264 0.96378 0.0
H27 H 0.23502 0.47264 0.11647 0.0
H28 H 0.14238 0.4958 0.08969 0.0
H29 H 0.52727 0.09023 1.00256 0.0
H30 H 0.24956 0.03605 0.89914 0.0
N31 N 0.4042 0.2003 0.99665 0.0
C32 C 0.51922 0.17858 0.02258 0.0
C33 C 0.50842 0.22241 0.02903 0.0
C34 C 0.47287 0.14518 1.00189 0.0
C35 C 0.4152 0.15724 0.98903 0.0
C36 C 0.45062 0.23266 0.0155 0.0
N37 N 0.31749 0.13737 0.95329 0.0
C38 C 0.3703 0.12475 0.96676 0.0
C39 C 0.28341 0.06067 0.91851 0.0
C40 C 0.33554 0.04738 0.93352 0.0
C41 C 0.2755 0.10598 0.92839 0.0
C42 C 0.38086 0.07939 0.95723 0.0
H43 H 0.34151 0.01225 0.92584 0.0
O44 O 0.30562 0.19338 0.91503 0.0
O45 O 0.21779 0.25845 0.98219 0.0
O46 O 0.15208 0.22045 0.01362 0.0
O47 O 0.24971 0.17741 0.99594 0.0
O48 O 0.21347 0.19613 0.93752 0.0
O49 O 0.39327 0.22664 0.94716 0.0
O50 O 0.18165 0.318 0.09795 0.0
O51 O 0.27561 0.25087 0.02978 0.0
O52 O 0.3424 0.2868 0.99807 0.0
O53 O 0.24722 0.33227 0.01932 0.0
O54 O 0.27876 0.31058 0.07575 0.0
O55 O 0.1051 0.27286 0.06282 0.0
C56 C 0.18269 0.23394 0.95483 0.0
C57 C 0.43719 0.06733 0.97076 0.0
C58 C 0.48334 0.10013 0.99287 0.0
C59 C 0.36646 0.20706 0.91489 0.0
C60 C 0.40874 0.17627 0.88462 0.0
C61 C 0.43165 0.1358 0.88211 0.0
C62 C 0.4224 0.18635 0.8565 0.0
C63 C 0.45805 0.15599 0.82557 0.0
C64 C 0.46732 0.10554 0.85153 0.0
C65 C 0.48018 0.11536 0.8233 0.0
C66 C 0.18602 0.18319 1.0057 0.0
C67 C 0.31069 0.27343 0.0575 0.0
C68 C 0.1257 0.29725 0.09609 0.0
C69 C 0.07441 0.32303 0.12314 0.0
C70 C 0.034 0.35424 0.11922 0.0
C71 C 0.06578 0.31602 0.15329 0.0
C72 C 0.01641 0.33975 0.17954 0.0
C73 C 0.9851 0.37804 0.1451 0.0
C74 C 0.97612 0.37085 0.17498 0.0
C75 C 0.31046 0.32539 1.00851 0.0
H76 H 0.42133 0.12742 0.90346 0.0
H77 H 0.4038 0.21741 0.85832 0.0
H78 H 0.48477 0.07426 0.84962 0.0
H79 H 0.50817 0.09149 0.79993 0.0
H80 H 0.04006 0.36003 0.09615 0.0
H81 H 0.09802 0.29228 0.15635 0.0
H82 H 0.95368 0.40194 0.14187 0.0
H83 H 0.93683 0.38916 0.19416 0.0
Gd84 Gd 0.80946 0.71825 0.98047 0.0
Gd85 Gd 0.69471 0.79967 0.05028 0.0
C86 C 0.53808 0.87483 0.02034 0.0
C87 C 0.57963 0.95136 0.05184 0.0
C88 C 0.6384 0.89183 0.05701 0.0
C89 C 0.59241 0.86095 0.03414 0.0
C90 C 0.63185 0.93757 0.0668 0.0
C91 C 0.53282 0.92001 0.02861 0.0
C92 C 0.48964 0.84315 0.99956 0.0
C93 C 0.49486 0.79939 0.99424 0.0
N94 N 0.59877 0.81774 0.02706 0.0
C95 C 0.54959 0.78734 1.00868 0.0
H96 H 0.55325 0.75332 1.00409 0.0
C97 C 0.72975 0.90722 0.09714 0.0
N98 N 0.68776 0.87734 0.07112 0.0
C99 C 0.72539 0.95293 0.10771 0.0
C100 C 0.67688 0.96815 0.09208 0.0
H101 H 0.76777 0.89561 0.10906 0.0
H102 H 0.4918 0.93125 0.01797 0.0
H103 H 0.95083 0.76198 0.02753 0.0
H104 H 0.4472 0.85239 0.98837 0.0
H105 H 0.45695 0.77483 0.97885 0.0
H106 H 0.57404 0.98629 0.05875 0.0
H107 H 0.73084 0.62433 0.92129 0.0
H108 H 0.06015 0.6575 0.03396 0.0
H109 H 0.04887 0.73718 0.04897 0.0
H110 H 0.93007 0.52628 0.96124 0.0
H111 H 0.75934 0.97635 0.12794 0.0
H112 H 0.67358 1.0036 0.10037 0.0
H113 H 0.01471 0.57913 1.00185 0.0
H114 H 0.73833 0.54296 0.89935 0.0
N115 N 0.90554 0.69746 1.00149 0.0
C116 C 0.01667 0.66836 0.02471 0.0
C117 C 0.01062 0.71326 0.0331 0.0
C118 C 0.96746 0.63768 1.00354 0.0
C119 C 0.91206 0.65342 0.99192 0.0
C120 C 0.95485 0.7272 0.02082 0.0
N121 N 0.81382 0.64001 0.95727 0.0
C122 C 0.86463 0.62373 0.96913 0.0
C123 C 0.77391 0.5653 0.91916 0.0
C124 C 0.82413 0.5482 0.93236 0.0
C125 C 0.76994 0.61148 0.93161 0.0
C126 C 0.87095 0.57741 0.95724 0.0
H127 H 0.82718 0.51238 0.92257 0.0
O128 O 0.80861 0.70215 0.92384 0.0
O129 O 0.72482 0.76566 0.99269 0.0
O130 O 0.65386 0.72833 0.02297 0.0
O131 O 0.74605 0.68026 1.00067 0.0
O132 O 0.71656 0.7057 0.94597 0.0
O133 O 0.89802 0.73016 0.95588 0.0
O134 O 0.68987 0.82311 0.10824 0.0
O135 O 0.78015 0.75292 0.03851 0.0
O136 O 0.85223 0.78899 1.00918 0.0
O137 O 0.75989 0.83703 0.03024 0.0
O138 O 0.78602 0.81241 0.08589 0.0
O139 O 0.60911 0.78284 0.0734 0.0
C140 C 0.68824 0.74396 0.96535 0.0
C141 C 0.9246 0.5617 0.96983 0.0
C142 C 0.97279 0.59179 0.99294 0.0
C143 C 0.87068 0.71383 0.92384 0.0
C144 C 0.91108 0.68256 0.89264 0.0
C145 C 0.9286 0.64037 0.88843 0.0
C146 C 0.92882 0.69407 0.86567 0.0
C147 C 0.9631 0.66329 0.83407 0.0
C148 C 0.96242 0.6097 0.85739 0.0
C149 C 0.97909 0.62078 0.83031 0.0
C150 C 0.68313 0.68876 0.01188 0.0
C151 C 0.81557 0.77463 0.06643 0.0
C152 C 0.63098 0.80567 0.10658 0.0
C153 C 0.58207 0.8344 0.13401 0.0
C154 C 0.55103 0.87014 0.13188 0.0
C155 C 0.5672 0.82631 0.16311 0.0
C156 C 0.52164 0.8539 0.19028 0.0
C157 C 0.50571 0.89762 0.15864 0.0
C158 C 0.49112 0.88969 0.18768 0.0
C159 C 0.82343 0.82868 0.0203 0.0
H160 H 0.91537 0.63092 0.90883 0.0
H161 H 0.91582 0.72705 0.86951 0.0
H162 H 0.97507 0.57693 0.85408 0.0
H163 H 0.0036 0.5956 0.80617 0.0
H164 H 0.56188 0.87682 0.10965 0.0
H165 H 0.59201 0.79894 0.16485 0.0
H166 H 0.48177 0.92515 0.15686 0.0
H167 H 0.45529 0.91124 0.20786 0.0
Gd168 Gd 0.31408 0.80361 0.55121 0.0
Gd169 Gd 0.19956 0.72258 0.4814 0.0
C170 C 0.03369 0.65524 0.51304 0.0
C171 C 0.06981 0.5774 0.48326 0.0
C172 C 0.13481 0.63376 0.47684 0.0
C173 C 0.09023 0.66655 0.49893 0.0
C174 C 0.12449 0.58864 0.46811 0.0
C175 C 0.02451 0.61066 0.50573 0.0
C176 C 0.98721 0.68883 0.53327 0.0
C177 C 0.99658 0.73198 0.53787 0.0
N178 N 0.10046 0.70916 0.5052 0.0
C179 C 0.05332 0.74149 0.52317 0.0
H180 H 0.0599 0.77508 0.52723 0.0
C181 C 0.22808 0.61399 0.43746 0.0
N182 N 0.18678 0.64577 0.46255 0.0
C183 C 0.22019 0.56881 0.42809 0.0
C184 C 0.16859 0.55612 0.44379 0.0
H185 H 0.2684 0.62377 0.42553 0.0
H186 H 0.98172 0.6014 0.51661 0.0
H187 H 0.45288 0.75664 0.50249 0.0
H188 H 0.94321 0.68156 0.54466 0.0
H189 H 0.96027 0.75803 0.55286 0.0
H190 H 0.06132 0.54299 0.47716 0.0
H191 H 0.24891 0.89952 0.61519 0.0
H192 H 0.56201 0.85747 0.49114 0.0
H193 H 0.54952 0.77868 0.47802 0.0
H194 H 0.44098 0.99193 0.56618 0.0
H195 H 0.25396 0.54385 0.40885 0.0
H196 H 0.16244 0.52109 0.43642 0.0
H197 H 0.52 0.93662 0.5228 0.0
H198 H 0.26044 0.98089 0.63713 0.0
N199 N 0.40915 0.82175 0.52761 0.0
C200 C 0.51896 0.84775 0.50132 0.0
C201 C 0.51229 0.80336 0.49417 0.0
C202 C 0.47159 0.87959 0.52302 0.0
C203 C 0.41688 0.86542 0.53624 0.0
C204 C 0.45735 0.79103 0.50814 0.0
N205 N 0.32358 0.88163 0.57447 0.0
C206 C 0.37256 0.89641 0.56045 0.0
C207 C 0.29196 0.95749 0.61533 0.0
C208 C 0.33945 0.97313 0.59961 0.0
C209 C 0.2855 0.91139 0.60282 0.0
C210 C 0.38151 0.94255 0.57234 0.0
H211 H 0.34471 0.00887 0.60953 0.0
O212 O 0.31383 0.81832 0.60757 0.0
O213 O 0.22875 0.75683 0.53917 0.0
O214 O 0.15997 0.79381 0.50539 0.0
O215 O 0.24675 0.84488 0.53569 0.0
O216 O 0.22096 0.8174 0.58551 0.0
O217 O 0.40384 0.79291 0.57573 0.0
O218 O 0.19722 0.69463 0.42281 0.0
O219 O 0.28492 0.76937 0.49298 0.0
O220 O 0.35533 0.73219 0.52372 0.0
O221 O 0.26224 0.68516 0.50255 0.0
O222 O 0.29295 0.70794 0.44735 0.0
O223 O 0.11876 0.74002 0.45578 0.0
C224 C 0.19206 0.77927 0.56635 0.0
C225 C 0.4337 0.95668 0.55771 0.0
C226 C 0.47869 0.92521 0.53305 0.0
C227 C 0.37666 0.80826 0.60766 0.0
C228 C 0.41598 0.84041 0.6389 0.0
C229 C 0.43562 0.88159 0.64176 0.0
C230 C 0.43119 0.8306 0.66708 0.0
C231 C 0.46489 0.86208 0.69855 0.0
C232 C 0.46869 0.91305 0.67277 0.0
C233 C 0.4828 0.90365 0.70107 0.0
C234 C 0.18633 0.83461 0.52091 0.0
C235 C 0.3212 0.74647 0.46565 0.0
C236 C 0.14096 0.71434 0.42305 0.0
C237 C 0.09091 0.68708 0.39572 0.0
C238 C 0.05086 0.65627 0.4003 0.0
C239 C 0.08267 0.69254 0.36478 0.0
C240 C 0.03399 0.66771 0.33841 0.0
C241 C 0.0027 0.63138 0.37431 0.0
C242 C 0.99404 0.63707 0.34367 0.0
C243 C 0.3256 0.69289 0.51295 0.0
H244 H 0.42496 0.8896 0.62026 0.0
H245 H 0.4169 0.79828 0.66422 0.0
H246 H 0.48296 0.94504 0.67502 0.0
H247 H 0.50708 0.92927 0.72508 0.0
H248 H 0.05656 0.65171 0.424 0.0
H249 H 0.1146 0.716 0.36127 0.0
H250 H 0.97153 0.60782 0.37805 0.0
H251 H 0.95521 0.618 0.32445 0.0
Gd252 Gd 0.81237 0.28633 0.53581 0.0
Gd253 Gd 0.67563 0.21608 0.47515 0.0
C254 C 0.51222 0.15534 0.51447 0.0
C255 C 0.53561 0.0756 0.47948 0.0
C256 C 0.60366 0.12957 0.47138 0.0
C257 C 0.56636 0.16431 0.4973 0.0
C258 C 0.5879 0.08473 0.46157 0.0
C259 C 0.49789 0.11087 0.50594 0.0
C260 C 0.47328 0.19127 0.53911 0.0
C261 C 0.4874 0.23456 0.54513 0.0
N262 N 0.58144 0.20681 0.50473 0.0
C263 C 0.54136 0.24168 0.52722 0.0
H264 H 0.55183 0.27535 0.5323 0.0
C265 C 0.6869 0.10634 0.42593 0.0
N266 N 0.65364 0.13962 0.45459 0.0
C267 C 0.67337 0.06133 0.41531 0.0
C268 C 0.62418 0.05046 0.43349 0.0
H269 H 0.72517 0.11453 0.41188 0.0
H270 H 0.45688 0.10334 0.51907 0.0
H271 H 0.93565 0.22222 0.48054 0.0
H272 H 0.43147 0.18585 0.55302 0.0
H273 H 0.45691 0.2625 0.56366 0.0
H274 H 0.5231 0.04139 0.47257 0.0
H275 H 0.76457 0.38998 0.59493 0.0
H276 H 0.06518 0.30582 0.45771 0.0
H277 H 0.03413 0.23092 0.44932 0.0
H278 H 0.97773 0.4534 0.53259 0.0
H279 H 0.7009 0.03508 0.39314 0.0
H280 H 0.61365 0.01556 0.42514 0.0
H281 H 0.0435 0.38883 0.48875 0.0
H282 H 0.79229 0.46816 0.61044 0.0
N283 N 0.90944 0.29144 0.50602 0.0
C284 C 0.02176 0.30225 0.47161 0.0
C285 C 0.00444 0.25994 0.46684 0.0
C286 C 0.98377 0.33958 0.49495 0.0
C287 C 0.92757 0.33302 0.51224 0.0
C288 C 0.94836 0.25519 0.48471 0.0
N289 N 0.83887 0.36152 0.55385 0.0
C290 C 0.89092 0.36923 0.53687 0.0
C291 C 0.82037 0.44063 0.58964 0.0
C292 C 0.87203 0.44903 0.57123 0.0
C293 C 0.80499 0.39643 0.58092 0.0
C294 C 0.90884 0.41318 0.54492 0.0
H295 H 0.88383 0.48327 0.57794 0.0
O296 O 0.83351 0.31412 0.59347 0.0
O297 O 0.71877 0.24906 0.53055 0.0
O298 O 0.64937 0.29027 0.50474 0.0
O299 O 0.75086 0.32911 0.51916 0.0
O300 O 0.72924 0.30839 0.57754 0.0
O301 O 0.88832 0.25603 0.55396 0.0
O302 O 0.66224 0.19723 0.41836 0.0
O303 O 0.7687 0.25443 0.48073 0.0
O304 O 0.83663 0.2119 0.50813 0.0
O305 O 0.73553 0.17201 0.49077 0.0
O306 O 0.75957 0.19475 0.43387 0.0
O307 O 0.5874 0.2382 0.45757 0.0
C308 C 0.69156 0.27366 0.56068 0.0
C309 C 0.96339 0.4199 0.52693 0.0
C310 C 0.00082 0.38315 0.50199 0.0
C311 C 0.88076 0.28499 0.58809 0.0
C312 C 0.94254 0.30151 0.60939 0.0
C313 C 0.99608 0.31741 0.5971 0.0
C314 C 0.94944 0.29841 0.64142 0.0
C315 C 0.01011 0.31007 0.66086 0.0
C316 C 0.05629 0.32948 0.61646 0.0
C317 C 0.06357 0.32557 0.648 0.0
C318 C 0.68567 0.32649 0.51258 0.0
C319 C 0.79687 0.22964 0.45093 0.0
C320 C 0.60409 0.21676 0.42343 0.0
C321 C 0.55141 0.19057 0.39756 0.0
C322 C 0.5193 0.15524 0.39973 0.0
C323 C 0.53516 0.2 0.36934 0.0
C324 C 0.48786 0.17374 0.34266 0.0
C325 C 0.47195 0.12925 0.37367 0.0
C326 C 0.45652 0.13816 0.34521 0.0
C327 C 0.79962 0.17581 0.49965 0.0
H328 H 0.99163 0.31987 0.57239 0.0
H329 H 0.90812 0.28573 0.6506 0.0
H330 H 0.09765 0.34157 0.60684 0.0
H331 H 0.11074 0.33507 0.66253 0.0
H332 H 0.53118 0.14756 0.42132 0.0
H333 H 0.5595 0.2279 0.36832 0.0
H334 H 0.44767 0.10174 0.37527 0.0
H335 H 0.4209 0.11662 0.32491 0.0
H336 H 0.72791 0.60714 1.00096 0.0
H337 H 0.66187 0.54619 0.9999 0.0
H338 H 0.48233 0.62595 0.02154 0.0
H339 H 0.54804 0.68735 0.02271 0.0
H340 H 0.48887 0.58437 0.06284 0.0
H341 H 0.51311 0.54331 0.93742 0.0
H342 H 0.57433 0.52841 0.88178 0.0
H343 H 0.68424 0.42264 0.88685 0.0
H344 H 0.62436 0.43736 0.94287 0.0
H345 H 0.26013 0.40537 0.01826 0.0
H346 H 0.32193 0.46765 0.01881 0.0
H347 H 0.50619 0.39276 0.99861 0.0
H348 H 0.44488 0.33017 0.99801 0.0
H349 H 0.49423 0.43266 0.95602 0.0
H350 H 0.4695 0.47483 0.08226 0.0
H351 H 0.40638 0.48961 0.13732 0.0
H352 H 0.29551 0.59377 0.13031 0.0
H353 H 0.35715 0.57906 0.07477 0.0
C354 C 0.67431 0.61169 1.00517 0.0
C355 C 0.64312 0.65194 0.01143 0.0
C356 C 0.63666 0.5768 1.00462 0.0
C357 C 0.56713 0.5814 1.01018 0.0
C358 C 0.53595 0.62176 0.01709 0.0
C359 C 0.57359 0.65674 0.01765 0.0
C360 C 0.52709 0.54398 1.00881 0.0
C361 C 0.4892 0.55135 0.03931 0.0
C362 C 0.52868 0.50078 0.97831 0.0
C363 C 0.56458 0.49167 0.94451 0.0
C364 C 0.55066 0.51708 0.92682 0.0
C365 C 0.58504 0.50861 0.89518 0.0
C366 C 0.63308 0.47457 0.88078 0.0
C367 C 0.64693 0.44896 0.89802 0.0
C368 C 0.61275 0.45732 0.9297 0.0
C369 C 0.31388 0.40221 0.01426 0.0
C370 C 0.34771 0.36299 1.00857 0.0
C371 C 0.34907 0.43784 0.01451 0.0
C372 C 0.41868 0.43495 1.00918 0.0
C373 C 0.45244 0.39561 1.00286 0.0
C374 C 0.41731 0.35994 1.00261 0.0
C375 C 0.45639 0.47296 1.01013 0.0
C376 C 0.49379 0.46571 0.97953 0.0
C377 C 0.45414 0.51629 0.04049 0.0
C378 C 0.41752 0.52553 0.07413 0.0
C379 C 0.4313 0.50065 0.09228 0.0
C380 C 0.39584 0.50905 0.12361 0.0
C381 C 0.34691 0.54256 0.13727 0.0
C382 C 0.33339 0.56779 0.11967 0.0
C383 C 0.3686 0.55945 0.08827 0.0
H384 H 0.31949 0.549 0.16152 0.0
H385 H 0.65965 0.46807 0.85628 0.0
H386 H 0.46215 0.68526 0.51386 0.0
H387 H 0.52654 0.62316 0.51289 0.0
H388 H 0.34265 0.55449 0.5094 0.0
H389 H 0.27795 0.61616 0.51032 0.0
H390 H 0.43292 0.55849 0.56158 0.0
H391 H 0.42962 0.51791 0.43548 0.0
H392 H 0.44661 0.52815 0.38171 0.0
H393 H 0.65747 0.5476 0.40458 0.0
H394 H 0.64157 0.53812 0.45885 0.0
H395 H 0.55089 0.34104 0.51341 0.0
H396 H 0.49421 0.40505 0.51388 0.0
H397 H 0.68544 0.46466 0.51458 0.0
H398 H 0.7429 0.40041 0.51372 0.0
H399 H 0.59591 0.46735 0.46498 0.0
H400 H 0.59855 0.50537 0.59056 0.0
H401 H 0.58032 0.49261 0.64303 0.0
H402 H 0.36923 0.47648 0.62025 0.0
H403 H 0.38632 0.48849 0.56729 0.0
C404 C 0.43545 0.65691 0.51284 0.0
C405 C 0.36501 0.65553 0.51206 0.0
C406 C 0.47229 0.62142 0.51211 0.0
C407 C 0.43924 0.58425 0.51089 0.0
C408 C 0.36899 0.5829 0.51029 0.0
C409 C 0.33217 0.61808 0.51064 0.0
C410 C 0.47776 0.54722 0.51127 0.0
C411 C 0.46807 0.53825 0.54029 0.0
C412 C 0.52467 0.52163 0.48388 0.0
C413 C 0.53425 0.52793 0.45153 0.0
C414 C 0.4795 0.5249 0.42931 0.0
C415 C 0.48896 0.53043 0.39867 0.0
C416 C 0.55305 0.53868 0.38981 0.0
C417 C 0.60783 0.54132 0.41153 0.0
C418 C 0.59863 0.53586 0.44223 0.0
C419 C 0.58103 0.36777 0.51377 0.0
C420 C 0.65143 0.36582 0.51387 0.0
C421 C 0.54851 0.40438 0.51414 0.0
C422 C 0.58569 0.43972 0.51464 0.0
C423 C 0.65594 0.43774 0.51434 0.0
C424 C 0.68861 0.40117 0.51413 0.0
C425 C 0.55083 0.47854 0.51523 0.0
C426 C 0.56115 0.48784 0.48641 0.0
C427 C 0.50435 0.50442 0.54277 0.0
C428 C 0.49382 0.49746 0.57476 0.0
C429 C 0.54831 0.49876 0.59656 0.0
C430 C 0.53817 0.49172 0.62643 0.0
C431 C 0.47368 0.48364 0.63492 0.0
C432 C 0.41916 0.4827 0.61362 0.0
C433 C 0.42904 0.48967 0.58369 0.0
H434 H 0.46592 0.47819 0.65806 0.0
H435 H 0.56029 0.5429 0.36605 0.0
H436 H 0.24403 0.11532 0.01313 0.0
H437 H 0.18796 0.05572 0.01957 0.0
H438 H 0.99552 0.10827 1.01083 0.0
H439 H 0.05137 0.16907 1.00568 0.0
H440 H 0.99368 0.08693 0.06346 0.0
H441 H 0.06484 0.00942 0.93663 0.0
H442 H 0.14817 0.98517 0.88743 0.0
H443 H 0.26704 0.92479 0.93803 0.0
H444 H 0.18378 0.94818 0.98728 0.0
H445 H 0.77922 0.90467 0.02048 0.0
H446 H 0.84662 0.96524 0.02186 0.0
H447 H 0.02719 0.89793 0.02671 0.0
H448 H 0.95988 0.83618 0.0239 0.0
H449 H 0.04358 0.92681 0.98052 0.0
H450 H 0.96506 0.9951 0.10291 0.0
H451 H 0.88177 0.01842 0.152 0.0
H452 H 0.77944 0.09757 0.11212 0.0
H453 H 0.86199 0.0746 0.06269 0.0
C454 C 0.18974 0.11403 0.01233 0.0
C455 C 0.15193 0.14662 1.0086 0.0
C456 C 0.1578 0.07985 0.01592 0.0
C457 C 0.08758 0.07711 0.01506 0.0
C458 C 0.04979 0.10976 0.01152 0.0
C459 C 0.08169 0.14438 1.00848 0.0
C460 C 0.05316 0.04056 0.01825 0.0
C461 C 0.00403 0.05189 0.04511 0.0
C462 C 0.06854 0.99493 0.99522 0.0
C463 C 0.11839 0.98072 0.96564 0.0
C464 C 0.10882 0.99103 0.93724 0.0
C465 C 0.1559 0.97731 0.90931 0.0
C466 C 0.21296 0.95354 0.90964 0.0
C467 C 0.2228 0.94316 0.93779 0.0
C468 C 0.17551 0.95641 0.9656 0.0
C469 C 0.83327 0.90289 0.0221 0.0
C470 C 0.86435 0.86578 0.02218 0.0
C471 C 0.87176 0.9377 0.02312 0.0
C472 C 0.94197 0.93657 0.02511 0.0
C473 C 0.97309 0.89956 0.0253 0.0
C474 C 0.93461 0.86433 0.02369 0.0
C475 C 0.9828 0.97309 0.02527 0.0
C476 C 0.03343 0.9618 0.99914 0.0
C477 C 0.96903 0.01878 0.04916 0.0
C478 C 0.91953 0.03293 0.079 0.0
C479 C 0.92465 0.01734 0.10453 0.0
C480 C 0.87768 0.0306 0.13247 0.0
C481 C 0.82536 0.05946 0.13518 0.0
C482 C 0.82004 0.07527 0.11002 0.0
C483 C 0.86703 0.06226 0.08211 0.0
H484 H 0.78888 0.06952 0.15674 0.0
H485 H 0.24957 0.94321 0.88811 0.0
H486 H 0.84006 0.17963 0.56209 0.0
H487 H 0.89716 0.12098 0.57007 0.0
H488 H 0.88761 0.03306 0.45455 0.0
H489 H 0.8274 0.09129 0.44693 0.0
H490 H 0.86475 0.98819 0.49114 0.0
H491 H 0.03005 0.09964 0.49961 0.0
H492 H 0.07023 0.17778 0.52749 0.0
H493 H 0.0809 0.18188 0.63124 0.0
H494 H 0.03986 0.10397 0.60406 0.0
H495 H 0.11912 0.8326 0.46424 0.0
H496 H 0.04837 0.89134 0.464 0.0
H497 H 0.08671 0.97493 0.57824 0.0
H498 H 0.15946 0.91664 0.57799 0.0
H499 H 0.09017 0.02438 0.54805 0.0
H500 H 0.93596 0.91555 0.5434 0.0
H501 H 0.88324 0.84154 0.52198 0.0
H502 H 0.84013 0.83536 0.41942 0.0
H503 H 0.89397 0.90889 0.43989 0.0
C504 C 0.85004 0.14759 0.53854 0.0
C505 C 0.83073 0.13967 0.50387 0.0
C506 C 0.88262 0.11425 0.54307 0.0
C507 C 0.89821 0.07311 0.51279 0.0
C508 C 0.87647 0.06471 0.47823 0.0
C509 C 0.84244 0.09781 0.47382 0.0
C510 C 0.93947 0.03944 0.51682 0.0
C511 C 0.91442 0.9958 0.50314 0.0
C512 C 0.00296 0.05017 0.53404 0.0
C513 C 0.03153 0.09605 0.54982 0.0
C514 C 0.04107 0.11719 0.52835 0.0
C515 C 0.06384 0.16148 0.54405 0.0
C516 C 0.07796 0.18481 0.58113 0.0
C517 C 0.06989 0.16378 0.60253 0.0
C518 C 0.04698 0.11954 0.58698 0.0
C519 C 0.11242 0.86363 0.48922 0.0
C520 C 0.14498 0.87049 0.52108 0.0
C521 C 0.07169 0.89704 0.48916 0.0
C522 C 0.06108 0.93732 0.52128 0.0
C523 C 0.09415 0.94422 0.55312 0.0
C524 C 0.13602 0.91109 0.55297 0.0
C525 C 0.01629 0.97239 0.52141 0.0
C526 C 0.04054 0.01646 0.53603 0.0
C527 C 0.95137 0.96226 0.50575 0.0
C528 C 0.91969 0.91764 0.49311 0.0
C529 C 0.91591 0.89823 0.51614 0.0
C530 C 0.88574 0.85636 0.50417 0.0
C531 C 0.8585 0.83372 0.46933 0.0
C532 C 0.8614 0.85289 0.44637 0.0
C533 C 0.89177 0.89466 0.45814 0.0
H534 H 0.83499 0.80137 0.46016 0.0
H535 H 0.09521 0.21917 0.59328 0.0
H536 H 0.57388 0.20174 0.30628 0.0
H537 H 0.54812 0.21626 0.25593 0.0
H538 H 0.34217 0.17899 0.25757 0.0
H539 H 0.36647 0.16623 0.30902 0.0
H540 H 0.40171 0.1379 0.18755 0.0
H541 H 0.37382 0.28484 0.29016 0.0
H542 H 0.40972 0.34994 0.34715 0.0
H543 H 0.57884 0.36902 0.29279 0.0
H544 H 0.54427 0.3037 0.2355 0.0
H545 H 0.25622 0.21053 0.07132 0.0
H546 H 0.29103 0.19031 0.11684 0.0
H547 H 0.46962 0.27078 0.13708 0.0
H548 H 0.42938 0.2955 0.09427 0.0
H549 H 0.42802 0.28793 0.19614 0.0
H550 H 0.46445 0.13734 0.09476 0.0
H551 H 0.43437 0.06859 0.03885 0.0
H552 H 0.2547 0.0556 0.08907 0.0
H553 H 0.28533 0.12293 0.14596 0.0
C554 C 0.52276 0.19735 0.29648 0.0
C555 C 0.47226 0.18285 0.31196 0.0
C556 C 0.50829 0.20539 0.26747 0.0
C557 C 0.44324 0.19879 0.25311 0.0
C558 C 0.39278 0.18411 0.26821 0.0
C559 C 0.40696 0.17658 0.29751 0.0
C560 C 0.42801 0.20687 0.2221 0.0
C561 C 0.40701 0.17073 0.18935 0.0
C562 C 0.43651 0.24942 0.22433 0.0
C563 C 0.45679 0.28913 0.25862 0.0
C564 C 0.41889 0.30274 0.2904 0.0
C565 C 0.43895 0.33972 0.32275 0.0
C566 C 0.49664 0.36353 0.32362 0.0
C567 C 0.53421 0.35052 0.29209 0.0
C568 C 0.51434 0.31357 0.25966 0.0
C569 C 0.30415 0.22255 0.08445 0.0
C570 C 0.3416 0.25312 0.07814 0.0
C571 C 0.3245 0.21071 0.11058 0.0
C572 C 0.38449 0.22756 0.13001 0.0
C573 C 0.4233 0.25691 0.12257 0.0
C574 C 0.40101 0.27056 0.09767 0.0
C575 C 0.40272 0.21858 0.16059 0.0
C576 C 0.42377 0.25474 0.19367 0.0
C577 C 0.39512 0.1758 0.1585 0.0
C578 C 0.37687 0.13532 0.12442 0.0
C579 C 0.4185 0.11985 0.09382 0.0
C580 C 0.4014 0.08113 0.062 0.0
C581 C 0.34217 0.05822 0.06016 0.0
C582 C 0.30047 0.07345 0.09046 0.0
C583 C 0.31804 0.11156 0.12263 0.0
H584 H 0.32884 0.02849 0.03535 0.0
H585 H 0.51214 0.39212 0.3487 0.0
H586 H 0.49881 0.7733 0.18862 0.0
H587 H 0.47298 0.75971 0.23955 0.0
H588 H 0.48223 0.90171 0.31281 0.0
H589 H 0.5095 0.91548 0.26209 0.0
H590 H 0.54823 0.85389 0.33989 0.0
H591 H 0.33208 0.84848 0.28665 0.0
H592 H 0.24775 0.82256 0.23779 0.0
H593 H 0.26711 0.68806 0.22116 0.0
H594 H 0.35219 0.71305 0.26962 0.0
H595 H 0.32022 0.83189 0.47378 0.0
H596 H 0.37051 0.85599 0.43248 0.0
H597 H 0.45762 0.72492 0.36994 0.0
H598 H 0.40956 0.70115 0.41171 0.0
H599 H 0.34406 0.77082 0.34011 0.0
H600 H 0.56959 0.77195 0.38463 0.0
H601 H 0.66459 0.7939 0.42737 0.0
H602 H 0.63039 0.93236 0.45793 0.0
H603 H 0.53517 0.91113 0.41528 0.0
C604 C 0.49583 0.80162 0.2156 0.0
C605 C 0.50605 0.8455 0.22125 0.0
C606 C 0.48045 0.79384 0.24466 0.0
C607 C 0.47486 0.82974 0.27998 0.0
C608 C 0.48595 0.87351 0.28579 0.0
C609 C 0.50105 0.88135 0.25672 0.0
C610 C 0.45811 0.82158 0.31089 0.0
C611 C 0.50302 0.83632 0.34017 0.0
C612 C 0.39993 0.79772 0.31091 0.0
C613 C 0.34903 0.7826 0.28157 0.0
C614 C 0.31881 0.81331 0.27236 0.0
C615 C 0.27076 0.79879 0.24478 0.0
C616 C 0.25221 0.75367 0.22632 0.0
C617 C 0.28158 0.72299 0.23546 0.0
C618 C 0.32967 0.73732 0.263 0.0
C619 C 0.35239 0.80886 0.45213 0.0
C620 C 0.36159 0.76475 0.44614 0.0
C621 C 0.38098 0.82262 0.42852 0.0
C622 C 0.41833 0.79233 0.3984 0.0
C623 C 0.42992 0.74899 0.39335 0.0
C624 C 0.40219 0.73543 0.41713 0.0
C625 C 0.43437 0.80286 0.36882 0.0
C626 C 0.38895 0.7887 0.33987 0.0
C627 C 0.49231 0.82677 0.36892 0.0
C628 C 0.54459 0.84001 0.39725 0.0
C629 C 0.5815 0.80712 0.40098 0.0
C630 C 0.63593 0.81938 0.42485 0.0
C631 C 0.65376 0.86447 0.44522 0.0
C632 C 0.61669 0.89743 0.44206 0.0
C633 C 0.56252 0.8853 0.41804 0.0
H634 H 0.696 0.87388 0.46361 0.0
H635 H 0.21503 0.74245 0.20499 0.0
H636 H 0.58489 0.7056 0.91927 0.0
H637 H 0.5329 0.73116 0.8795 0.0
H638 H 0.65374 0.85103 0.92834 0.0
H639 H 0.70321 0.82643 0.96932 0.0
H640 H 0.54179 0.87076 0.90779 0.0
H641 H 0.70481 0.75732 0.85069 0.0
H642 H 0.7621 0.68521 0.83216 0.0
H643 H 0.5883 0.61445 0.77147 0.0
H644 H 0.5296 0.68622 0.79008 0.0
H645 H 0.57557 0.88843 0.74313 0.0
H646 H 0.60117 0.8731 0.79306 0.0
H647 H 0.42053 0.79503 0.77125 0.0
H648 H 0.39189 0.81227 0.72256 0.0
H649 H 0.56002 0.75591 0.77836 0.0
H650 H 0.40591 0.8834 0.83753 0.0
H651 H 0.37416 0.96002 0.85085 0.0
H652 H 0.56266 0.00991 0.90445 0.0
H653 H 0.59608 0.93342 0.89084 0.0
C654 C 0.5988 0.73798 0.92214 0.0
C655 C 0.64785 0.76405 0.94732 0.0
C656 C 0.56949 0.75248 0.89929 0.0
C657 C 0.59084 0.79242 0.9001 0.0
C658 C 0.63662 0.81999 0.92698 0.0
C659 C 0.6649 0.80592 0.95045 0.0
C660 C 0.57077 0.80279 0.87067 0.0
C661 C 0.54587 0.84559 0.87955 0.0
C662 C 0.57741 0.77044 0.83361 0.0
C663 C 0.61253 0.72713 0.8221 0.0
C664 C 0.67863 0.72637 0.8336 0.0
C665 C 0.71139 0.68557 0.82306 0.0
C666 C 0.67877 0.64527 0.80074 0.0
C667 C 0.61343 0.64571 0.78882 0.0
C668 C 0.5804 0.68644 0.79933 0.0
C669 C 0.54035 0.8687 0.74921 0.0
C670 C 0.48131 0.85185 0.72863 0.0
C671 C 0.55553 0.85967 0.77763 0.0
C672 C 0.51265 0.83306 0.78579 0.0
C673 C 0.45428 0.81558 0.76521 0.0
C674 C 0.43834 0.82524 0.73717 0.0
C675 C 0.52947 0.82311 0.81561 0.0
C676 C 0.5547 0.78059 0.80668 0.0
C677 C 0.52591 0.85629 0.8524 0.0
C678 C 0.50378 0.9026 0.86281 0.0
C679 C 0.4407 0.91068 0.85202 0.0
C680 C 0.42249 0.95405 0.85953 0.0
C681 C 0.46673 0.98969 0.87809 0.0
C682 C 0.52871 0.98218 0.88981 0.0
C683 C 0.54725 0.93884 0.88227 0.0
H684 H 0.45287 0.02318 0.88357 0.0
H685 H 0.70419 0.61371 0.7926 0.0
H686 H 0.61829 0.3233 0.62099 0.0
H687 H 0.56785 0.29851 0.66177 0.0
H688 H 0.62573 0.16241 0.58879 0.0
H689 H 0.67922 0.18722 0.5491 0.0
H690 H 0.46819 0.20795 0.63785 0.0
H691 H 0.70709 0.15804 0.63161 0.0
H692 H 0.82894 0.16985 0.63062 0.0
H693 H 0.81155 0.29741 0.72636 0.0
H694 H 0.68918 0.28663 0.7274 0.0
H695 H 0.44172 0.1023 0.7525 0.0
H696 H 0.46886 0.12011 0.70372 0.0
H697 H 0.53402 0.25189 0.78301 0.0
H698 H 0.50681 0.23439 0.83179 0.0
H699 H 0.62752 0.20513 0.72773 0.0
H700 H 0.39218 0.24305 0.74093 0.0
H701 H 0.27083 0.22997 0.74218 0.0
H702 H 0.2794 0.12328 0.63267 0.0
H703 H 0.40104 0.13516 0.63087 0.0
C704 C 0.61927 0.288 0.61341 0.0
C705 C 0.65171 0.25712 0.58153 0.0
C706 C 0.59044 0.27391 0.63664 0.0
C707 C 0.59351 0.22873 0.62828 0.0
C708 C 0.62319 0.19747 0.59572 0.0
C709 C 0.65311 0.21166 0.57284 0.0
C710 C 0.57106 0.21525 0.65522 0.0
C711 C 0.50292 0.20657 0.65722 0.0
C712 C 0.61638 0.21427 0.68069 0.0
C713 C 0.68908 0.22188 0.67922 0.0
C714 C 0.72913 0.18894 0.65204 0.0
C715 C 0.79827 0.19535 0.65155 0.0
C716 C 0.82795 0.23435 0.6784 0.0
C717 C 0.78845 0.26726 0.70555 0.0
C718 C 0.7192 0.26106 0.70605 0.0
C719 C 0.4617 0.13508 0.75946 0.0
C720 C 0.47238 0.16693 0.79593 0.0
C721 C 0.47662 0.14532 0.73163 0.0
C722 C 0.50311 0.18739 0.73979 0.0
C723 C 0.51337 0.21929 0.77617 0.0
C724 C 0.49765 0.20931 0.80398 0.0
C725 C 0.52428 0.19732 0.71049 0.0
C726 C 0.59244 0.20583 0.70821 0.0
C727 C 0.47884 0.19742 0.68454 0.0
C728 C 0.40596 0.18965 0.68592 0.0
C729 C 0.36841 0.21643 0.71726 0.0
C730 C 0.29951 0.20936 0.71803 0.0
C731 C 0.26747 0.17583 0.68758 0.0
C732 C 0.30429 0.14922 0.65627 0.0
C733 C 0.37321 0.15611 0.65535 0.0
H734 H 0.21409 0.17054 0.68822 0.0
H735 H 0.88162 0.23887 0.67832 0.0
H736 H 0.90577 0.81883 0.11951 0.0
H737 H 0.95931 0.79294 0.15845 0.0
H738 H 0.87628 0.661 0.09286 0.0
H739 H 0.81925 0.68786 0.05522 0.0
H740 H 0.84873 0.68533 0.15843 0.0
H741 H 0.05726 0.68427 0.10174 0.0
H742 H 0.14805 0.71272 0.07824 0.0
H743 H 0.17748 0.82411 0.18431 0.0
H744 H 0.08709 0.7963 0.20843 0.0
H745 H 0.00414 0.60419 0.26864 0.0
H746 H 0.98085 0.61581 0.21652 0.0
H747 H 0.01956 0.75708 0.28167 0.0
H748 H 0.0409 0.74616 0.3343 0.0
H749 H 0.07669 0.72066 0.21212 0.0
H750 H 0.86337 0.72306 0.26713 0.0
H751 H 0.77514 0.69303 0.29068 0.0
H752 H 0.75601 0.57725 0.18602 0.0
H753 H 0.84486 0.60634 0.16197 0.0
C754 C 0.90035 0.78399 0.1129 0.0
C755 C 0.85905 0.75525 0.08403 0.0
C756 C 0.93152 0.76902 0.13503 0.0
C757 C 0.92277 0.72473 0.12856 0.0
C758 C 0.88412 0.6953 0.0985 0.0
C759 C 0.852 0.71053 0.07668 0.0
C760 C 0.94615 0.7112 0.15581 0.0
C761 C 0.89922 0.69206 0.16938 0.0
C762 C 0.01134 0.72112 0.17121 0.0
C763 C 0.06498 0.73841 0.15676 0.0
C764 C 0.08274 0.71504 0.11994 0.0
C765 C 0.13427 0.73095 0.10656 0.0
C766 C 0.16825 0.77029 0.12973 0.0
C767 C 0.15102 0.79369 0.16638 0.0
C768 C 0.0998 0.77779 0.17994 0.0
C769 C 0.00728 0.63784 0.27207 0.0
C770 C 0.02388 0.67427 0.30594 0.0
C771 C 0.9944 0.64434 0.24211 0.0
C772 C 0.99803 0.68735 0.24526 0.0
C773 C 0.01673 0.72356 0.2786 0.0
C774 C 0.02913 0.71718 0.30867 0.0
C775 C 0.97925 0.69496 0.21432 0.0
C776 C 0.02675 0.71324 0.20044 0.0
C777 C 0.91472 0.68411 0.19847 0.0
C778 C 0.8613 0.6666 0.21288 0.0
C779 C 0.84078 0.691 0.24923 0.0
C780 C 0.79057 0.67419 0.26265 0.0
C781 C 0.76014 0.63319 0.23989 0.0
C782 C 0.77973 0.60896 0.20364 0.0
C783 C 0.82998 0.6256 0.19009 0.0
H784 H 0.72125 0.62024 0.25033 0.0
H785 H 0.20808 0.78257 0.1193 0.0
H786 H 0.81218 0.31582 0.4623 0.0
H787 H 0.86674 0.3396 0.42236 0.0
H788 H 0.92426 0.20282 0.35059 0.0
H789 H 0.87247 0.17927 0.39171 0.0
H790 H 0.01934 0.25831 0.35106 0.0
H791 H 0.77922 0.24785 0.33669 0.0
H792 H 0.66191 0.26436 0.35735 0.0
H793 H 0.6953 0.40443 0.39414 0.0
H794 H 0.81318 0.38875 0.37398 0.0
H795 H 0.02304 0.25985 0.18129 0.0
H796 H 0.00169 0.24648 0.23266 0.0
H797 H 0.96302 0.3873 0.3007 0.0
H798 H 0.98597 0.40127 0.24975 0.0
H799 H 0.86431 0.33472 0.30547 0.0
H800 H 0.10415 0.34144 0.31213 0.0
H801 H 0.21957 0.32164 0.28884 0.0
H802 H 0.18503 0.18497 0.26352 0.0
H803 H 0.06903 0.20378 0.28619 0.0
C804 C 0.83836 0.29102 0.43875 0.0
C805 C 0.83875 0.24571 0.4304 0.0
C806 C 0.86896 0.30459 0.41562 0.0
C807 C 0.89848 0.27288 0.38302 0.0
C808 C 0.90176 0.22793 0.37552 0.0
C809 C 0.87195 0.21447 0.39894 0.0
C810 C 0.92022 0.28566 0.35525 0.0
C811 C 0.98535 0.27475 0.3409 0.0
C812 C 0.87618 0.30768 0.34228 0.0
C813 C 0.80518 0.31718 0.35415 0.0
C814 C 0.76165 0.2822 0.34937 0.0
C815 C 0.69504 0.2914 0.36096 0.0
C816 C 0.67119 0.33543 0.37713 0.0
C817 C 0.71388 0.37034 0.38164 0.0
C818 C 0.78057 0.36131 0.3701 0.0
C819 C 0.01131 0.2882 0.20731 0.0
C820 C 0.00612 0.33168 0.21122 0.0
C821 C -0.00104 0.28043 0.23668 0.0
C822 C 0.98114 0.31592 0.27061 0.0
C823 C 0.97659 0.35939 0.27476 0.0
C824 C 0.98932 0.36724 0.24548 0.0
C825 C 0.96338 0.3073 0.30115 0.0
C826 C 0.8987 0.31879 0.3159 0.0
C827 C 0.00763 0.28538 0.31408 0.0
C828 C 0.07756 0.27397 0.30056 0.0
C829 C 0.12093 0.30708 0.30132 0.0
C830 C 0.18652 0.29604 0.28828 0.0
C831 C 0.20953 0.25205 0.27459 0.0
C832 C 0.16709 0.21903 0.27407 0.0
C833 C 0.10142 0.22987 0.28706 0.0
H834 H 0.26024 0.24356 0.26443 0.0
H835 H 0.6196 0.34249 0.38608 0.0
H836 H 0.92394 0.33821 0.71827 0.0
H837 H 0.93923 0.33335 0.77426 0.0
H838 H 0.12799 0.26538 0.73394 0.0
H839 H 0.11351 0.27119 0.67845 0.0
H840 H 0.94928 0.26947 0.79118 0.0
H841 H 0.2394 0.29265 0.8022 0.0
H842 H 0.32677 0.32982 0.78453 0.0
H843 H 0.18141 0.42374 0.78526 0.0
H844 H 0.09328 0.38729 0.80315 0.0
H845 H 0.10303 0.18468 0.89741 0.0
H846 H 0.05707 0.2064 0.8542 0.0
H847 H 0.1246 0.34214 0.92173 0.0
H848 H 0.17455 0.31959 0.96374 0.0
H849 H 0.16425 0.31788 0.85826 0.0
H850 H 0.95065 0.31054 0.90458 0.0
H851 H 0.85892 0.27892 0.92473 0.0
H852 H 0.84391 0.16703 0.81781 0.0
H853 H 0.93584 0.19766 0.797 0.0
C854 C 0.9686 0.32218 0.72141 0.0
C855 C 0.01797 0.30562 0.69423 0.0
C856 C 0.97729 0.31938 0.75339 0.0
C857 C 0.03543 0.29984 0.75877 0.0
C858 C 0.08358 0.28177 0.73098 0.0
C859 C 0.07528 0.28505 0.69924 0.0
C860 C 0.04622 0.29857 0.79345 0.0
C861 C 0.99616 0.28023 0.80596 0.0
C862 C 0.10654 0.3139 0.81349 0.0
C863 C 0.15952 0.33677 0.80351 0.0
C864 C 0.22609 0.32126 0.79863 0.0
C865 C 0.27576 0.34221 0.78857 0.0
C866 C 0.25961 0.37903 0.78364 0.0
C867 C 0.1938 0.39508 0.78892 0.0
C868 C 0.14393 0.37422 0.79895 0.0
C869 C 0.10665 0.21941 0.90345 0.0
C870 C 0.14194 0.25046 0.93413 0.0
C871 C 0.07986 0.23194 0.87882 0.0
C872 C 0.08669 0.2761 0.88465 0.0
C873 C 0.11861 0.30784 0.91648 0.0
C874 C 0.14657 0.29505 0.94079 0.0
C875 C 0.06817 0.28742 0.85549 0.0
C876 C 0.1169 0.30765 0.84389 0.0
C877 C 0.00602 0.27483 0.83689 0.0
C878 C 0.95047 0.25633 0.84927 0.0
C879 C 0.92809 0.27905 0.8854 0.0
C880 C 0.87602 0.26133 0.89694 0.0
C881 C 0.84579 0.22097 0.87261 0.0
C882 C 0.86739 0.1983 0.83663 0.0
C883 C 0.91936 0.21588 0.82492 0.0
H884 H 0.80554 0.2073 0.88162 0.0
H885 H 0.29812 0.39519 0.77583 0.0
H886 H 0.0943 0.82136 0.61535 0.0
H887 H 0.04364 0.79765 0.65653 0.0
H888 H 0.15002 0.67196 0.60253 0.0
H889 H 0.19964 0.69531 0.56083 0.0
H890 H 0.03131 0.65943 0.62631 0.0
H891 H 0.21576 0.75759 0.67612 0.0
H892 H 0.2844 0.82496 0.6928 0.0
H893 H 0.1292 0.90744 0.76439 0.0
H894 H 0.05883 0.8406 0.74746 0.0
H895 H 0.07401 0.63622 0.78954 0.0
H896 H 0.1013 0.65226 0.74021 0.0
H897 H 0.92523 0.73508 0.76401 0.0
H898 H 0.89443 0.71692 0.81193 0.0
H899 H 0.07808 0.76742 0.75518 0.0
H900 H 0.89528 0.65863 0.70021 0.0
H901 H 0.84392 0.58591 0.68561 0.0
H902 H 0.01881 0.51725 0.6249 0.0
H903 H 0.07185 0.58974 0.63985 0.0
C904 C 0.10533 0.78817 0.61167 0.0
C905 C 0.15076 0.7602 0.5849 0.0
C906 C 0.07668 0.77472 0.6353 0.0
C907 C 0.09427 0.73345 0.63324 0.0
C908 C 0.13588 0.70403 0.6048 0.0
C909 C 0.16415 0.71737 0.58087 0.0
C910 C 0.07488 0.72336 0.66289 0.0
C911 C 0.04167 0.68306 0.65442 0.0
C912 C 0.08938 0.75374 0.6997 0.0
C913 C 0.13166 0.7941 0.7102 0.0
C914 C 0.19598 0.79012 0.69519 0.0
C915 C 0.23525 0.82821 0.70471 0.0
C916 C 0.21116 0.87045 0.72961 0.0
C917 C 0.14774 0.87468 0.74506 0.0
C918 C 0.1081 0.83671 0.73549 0.0
C919 C 0.04009 0.65719 0.78406 0.0
C920 C 0.98151 0.6749 0.8049 0.0
C921 C 0.05631 0.66664 0.75597 0.0
C922 C 0.01515 0.69465 0.74843 0.0
C923 C 0.95763 0.71335 0.76949 0.0
C924 C 0.9405 0.70319 0.79714 0.0
C925 C 0.03272 0.70445 0.71858 0.0
C926 C 0.06669 0.74434 0.72705 0.0
C927 C 0.0208 0.67316 0.68185 0.0
C928 C 0.98787 0.62961 0.67159 0.0
C929 C 0.92303 0.62806 0.68403 0.0
C930 C 0.8936 0.5869 0.67567 0.0
C931 C 0.92833 0.54704 0.65461 0.0
C932 C 0.99217 0.5482 0.64141 0.0
C933 C 0.02191 0.58931 0.6498 0.0
H934 H 0.90574 0.51525 0.64851 0.0
H935 H 0.24168 0.8999 0.73699 0.0
loop_
_geom_bond_atom_site_label_1
_geom_bond_atom_site_label_2
_geom_bond_distance
_geom_bond_site_symmetry_2
_ccdc_geom_bond_type
Gd0 N31 2.661 . S
Gd0 N37 2.601 . S
Gd0 O44 2.545 . S
Gd0 O45 2.606 . S
Gd0 O47 2.429 . S
Gd0 O48 2.545 . S
Gd0 O49 2.412 . S
Gd0 O51 2.362 1_556 S
Gd0 O52 2.324 . S
Gd0 C59 2.828 . S
Gd1 N10 2.661 . S
Gd1 N14 2.601 . S
Gd1 O45 2.362 1_554 S
Gd1 O46 2.324 . S
Gd1 O50 2.545 . S
Gd1 O51 2.606 . S
Gd1 O53 2.429 . S
Gd1 O54 2.545 . S
Gd1 O55 2.412 . S
Gd1 C68 2.828 . S
C2 C5 1.417 1_656 S
C2 C7 1.431 . S
C2 C8 1.412 . S
C3 C6 1.437 1_655 S
C3 C7 1.317 1_554 S
C3 H22 0.929 . S
C4 C5 1.426 . S
C4 C6 1.413 . S
C4 N14 1.359 . S
C5 C2 1.417 1_454 S
C5 C4 1.426 . S
C5 N10 1.350 . S
C6 C3 1.437 1_455 S
C6 C4 1.413 . S
C6 C16 1.391 . S
C7 C2 1.431 . S
C7 C3 1.317 1_556 S
C7 H18 0.930 . S
C8 C2 1.412 . S
C8 C9 1.355 . S
C8 H20 0.930 . S
C9 C8 1.355 . S
C9 C11 1.402 1_655 S
C9 H21 0.930 . S
N10 Gd1 2.661 . S
N10 C5 1.350 . S
N10 C11 1.307 1_554 S
C11 C9 1.402 1_455 S
C11 N10 1.307 1_556 S
C11 H12 0.930 . S
H12 C11 0.930 . S
C13 N14 1.334 . S
C13 C15 1.394 . S
C13 H17 0.930 . S
N14 Gd1 2.601 . S
N14 C4 1.359 . S
N14 C13 1.334 . S
C15 C13 1.394 . S
C15 C16 1.359 . S
C15 H27 0.930 . S
C16 C6 1.391 . S
C16 C15 1.359 . S
C16 H28 0.929 . S
H17 C13 0.930 . S
H18 C7 0.930 . S
H19 C36 0.930 . S
H20 C8 0.930 . S
H21 C9 0.930 . S
H22 C3 0.929 . S
H23 C41 0.930 . S
H24 C32 0.930 . S
H25 C33 0.930 . S
H26 C57 0.929 . S
H27 C15 0.930 . S
H28 C16 0.929 . S
H29 C58 0.930 . S
H30 C39 0.930 . S
N31 Gd0 2.661 . S
N31 C35 1.350 . S
N31 C36 1.307 1_556 S
C32 H24 0.930 . S
C32 C33 1.355 . S
C32 C34 1.412 . S
C33 H25 0.930 . S
C33 C32 1.355 . S
C33 C36 1.402 . S
C34 C32 1.412 . S
C34 C35 1.417 1_554 S
C34 C58 1.431 . S
C35 N31 1.350 . S
C35 C34 1.417 1_556 S
C35 C38 1.426 . S
C36 H19 0.930 . S
C36 N31 1.307 1_554 S
C36 C33 1.402 . S
N37 Gd0 2.601 . S
N37 C38 1.359 . S
N37 C41 1.334 . S
C38 C35 1.426 . S
C38 N37 1.359 . S
C38 C42 1.413 . S
C39 H30 0.930 . S
C39 C40 1.359 . S
C39 C41 1.394 . S
C40 C39 1.359 . S
C40 C42 1.391 . S
C40 H43 0.929 . S
C41 H23 0.930 . S
C41 N37 1.334 . S
C41 C39 1.394 . S
C42 C38 1.413 . S
C42 C40 1.391 . S
C42 C57 1.437 . S
H43 C40 0.929 . S
O44 Gd0 2.545 . S
O44 C59 1.258 . S
O45 Gd0 2.606 . S
O45 Gd1 2.362 1_556 S
O45 C56 1.284 . S
O46 Gd1 2.324 . S
O46 C66 1.254 1_554 S
O47 Gd0 2.429 . S
O47 C66 1.268 . S
O48 Gd0 2.545 . S
O48 C56 1.250 . S
O49 Gd0 2.412 . S
O49 C59 1.252 . S
O50 Gd1 2.545 . S
O50 C68 1.258 . S
O51 Gd0 2.362 1_554 S
O51 Gd1 2.606 . S
O51 C67 1.284 . S
O52 Gd0 2.324 . S
O52 C75 1.254 1_556 S
O53 Gd1 2.429 . S
O53 C75 1.268 . S
O54 Gd1 2.545 . S
O54 C67 1.250 . S
O55 Gd1 2.412 . S
O55 C68 1.252 . S
C56 O45 1.284 . S
C56 O48 1.250 . S
C57 H26 0.929 . S
C57 C42 1.437 . S
C57 C58 1.317 1_556 S
C58 H29 0.930 . S
C58 C34 1.431 . S
C58 C57 1.317 1_554 S
C59 Gd0 2.828 . S
C59 O44 1.258 . S
C59 O49 1.252 . S
C59 C60 1.497 . S
C60 C59 1.497 . S
C60 C61 1.395 . S
C60 C62 1.380 . S
C61 C60 1.395 . S
C61 C64 1.398 . S
C61 H76 0.930 . S
C62 C60 1.380 . S
C62 C63 1.391 . S
C62 H77 0.930 . S
C63 C62 1.391 . S
C63 C65 1.387 . S
C64 C61 1.398 . S
C64 C65 1.380 . S
C64 H78 0.930 . S
C65 C63 1.387 . S
C65 C64 1.380 . S
C65 H79 0.930 . S
C66 O46 1.254 1_556 S
C66 O47 1.268 . S
C67 O51 1.284 . S
C67 O54 1.250 . S
C68 Gd1 2.828 . S
C68 O50 1.258 . S
C68 O55 1.252 . S
C68 C69 1.497 . S
C69 C68 1.497 . S
C69 C70 1.395 . S
C69 C71 1.380 . S
C70 C69 1.395 . S
C70 C73 1.398 . S
C70 H80 0.930 . S
C71 C69 1.380 . S
C71 C72 1.391 . S
C71 H81 0.930 . S
C72 C71 1.391 . S
C72 C74 1.387 . S
C73 C70 1.398 . S
C73 C74 1.380 . S
C73 H82 0.930 . S
C74 C72 1.387 . S
C74 C73 1.380 . S
C74 H83 0.930 . S
C75 O52 1.254 1_554 S
C75 O53 1.268 . S
H76 C61 0.930 . S
H77 C62 0.930 . S
H78 C64 0.930 . S
H79 C65 0.930 . S
H80 C70 0.930 . S
H81 C71 0.930 . S
H82 C73 0.930 . S
H83 C74 0.930 . S
Gd84 N115 2.661 . S
Gd84 N121 2.601 . S
Gd84 O128 2.545 . S
Gd84 O129 2.606 . S
Gd84 O131 2.429 . S
Gd84 O132 2.545 . S
Gd84 O133 2.412 . S
Gd84 O135 2.362 1_556 S
Gd84 O136 2.324 . S
Gd84 C143 2.828 . S
Gd85 N94 2.661 . S
Gd85 N98 2.601 . S
Gd85 O129 2.362 1_554 S
Gd85 O130 2.324 . S
Gd85 O134 2.545 . S
Gd85 O135 2.606 . S
Gd85 O137 2.429 . S
Gd85 O138 2.545 . S
Gd85 O139 2.412 . S
Gd85 C152 2.828 . S
C86 C89 1.417 1_556 S
C86 C91 1.431 . S
C86 C92 1.412 . S
C87 C90 1.437 . S
C87 C91 1.317 1_554 S
C87 H106 0.929 . S
C88 C89 1.426 . S
C88 C90 1.413 . S
C88 N98 1.359 . S
C89 C86 1.417 1_554 S
C89 C88 1.426 . S
C89 N94 1.350 . S
C90 C87 1.437 . S
C90 C88 1.413 . S
C90 C100 1.391 . S
C91 C86 1.431 . S
C91 C87 1.317 1_556 S
C91 H102 0.930 . S
C92 C86 1.412 . S
C92 C93 1.355 . S
C92 H104 0.930 . S
C93 C92 1.355 . S
C93 C95 1.402 . S
C93 H105 0.930 . S
N94 Gd85 2.661 . S
N94 C89 1.350 . S
N94 C95 1.307 1_554 S
C95 C93 1.402 . S
C95 N94 1.307 1_556 S
C95 H96 0.930 . S
H96 C95 0.930 . S
C97 N98 1.334 . S
C97 C99 1.394 . S
C97 H101 0.930 . S
N98 Gd85 2.601 . S
N98 C88 1.359 . S
N98 C97 1.334 . S
C99 C97 1.394 . S
C99 C100 1.359 . S
C99 H111 0.930 . S
C100 C90 1.391 . S
C100 C99 1.359 . S
C100 H112 0.929 . S
H101 C97 0.930 . S
H102 C91 0.930 . S
H103 C120 0.930 . S
H104 C92 0.930 . S
H105 C93 0.930 . S
H106 C87 0.929 . S
H107 C125 0.930 . S
H108 C116 0.930 . S
H109 C117 0.930 . S
H110 C141 0.929 . S
H111 C99 0.930 . S
H112 C100 0.929 . S
H113 C142 0.930 . S
H114 C123 0.930 . S
N115 Gd84 2.661 . S
N115 C119 1.350 . S
N115 C120 1.307 1_556 S
C116 H108 0.930 . S
C116 C117 1.355 . S
C116 C118 1.412 . S
C117 H109 0.930 . S
C117 C116 1.355 . S
C117 C120 1.402 1_455 S
C118 C116 1.412 . S
C118 C119 1.417 1_454 S
C118 C142 1.431 . S
C119 N115 1.350 . S
C119 C118 1.417 1_656 S
C119 C122 1.426 . S
C120 H103 0.930 . S
C120 N115 1.307 1_554 S
C120 C117 1.402 1_655 S
N121 Gd84 2.601 . S
N121 C122 1.359 . S
N121 C125 1.334 . S
C122 C119 1.426 . S
C122 N121 1.359 . S
C122 C126 1.413 . S
C123 H114 0.930 . S
C123 C124 1.359 . S
C123 C125 1.394 . S
C124 C123 1.359 . S
C124 C126 1.391 . S
C124 H127 0.929 . S
C125 H107 0.930 . S
C125 N121 1.334 . S
C125 C123 1.394 . S
C126 C122 1.413 . S
C126 C124 1.391 . S
C126 C141 1.437 1_655 S
H127 C124 0.929 . S
O128 Gd84 2.545 . S
O128 C143 1.258 . S
O129 Gd84 2.606 . S
O129 Gd85 2.362 1_556 S
O129 C140 1.284 . S
O130 Gd85 2.324 . S
O130 C150 1.254 1_554 S
O131 Gd84 2.429 . S
O131 C150 1.268 . S
O132 Gd84 2.545 . S
O132 C140 1.250 . S
O133 Gd84 2.412 . S
O133 C143 1.252 . S
O134 Gd85 2.545 . S
O134 C152 1.258 . S
O135 Gd84 2.362 1_554 S
O135 Gd85 2.606 . S
O135 C151 1.284 . S
O136 Gd84 2.324 . S
O136 C159 1.254 1_556 S
O137 Gd85 2.429 . S
O137 C159 1.268 . S
O138 Gd85 2.545 . S
O138 C151 1.250 . S
O139 Gd85 2.412 . S
O139 C152 1.252 . S
C140 O129 1.284 . S
C140 O132 1.250 . S
C141 H110 0.929 . S
C141 C126 1.437 1_455 S
C141 C142 1.317 1_556 S
C142 H113 0.930 . S
C142 C118 1.431 . S
C142 C141 1.317 1_554 S
C143 Gd84 2.828 . S
C143 O128 1.258 . S
C143 O133 1.252 . S
C143 C144 1.497 . S
C144 C143 1.497 . S
C144 C145 1.395 . S
C144 C146 1.380 . S
C145 C144 1.395 . S
C145 C148 1.398 . S
C145 H160 0.930 . S
C146 C144 1.380 . S
C146 C147 1.391 . S
C146 H161 0.930 . S
C147 C146 1.391 . S
C147 C149 1.387 . S
C148 C145 1.398 . S
C148 C149 1.380 . S
C148 H162 0.930 . S
C149 C147 1.387 . S
C149 C148 1.380 . S
C149 H163 0.930 . S
C150 O130 1.254 1_556 S
C150 O131 1.268 . S
C151 O135 1.284 . S
C151 O138 1.250 . S
C152 Gd85 2.828 . S
C152 O134 1.258 . S
C152 O139 1.252 . S
C152 C153 1.497 . S
C153 C152 1.497 . S
C153 C154 1.395 . S
C153 C155 1.380 . S
C154 C153 1.395 . S
C154 C157 1.398 . S
C154 H164 0.930 . S
C155 C153 1.380 . S
C155 C156 1.391 . S
C155 H165 0.930 . S
C156 C155 1.391 . S
C156 C158 1.387 . S
C157 C154 1.398 . S
C157 C158 1.380 . S
C157 H166 0.930 . S
C158 C156 1.387 . S
C158 C157 1.380 . S
C158 H167 0.930 . S
C159 O136 1.254 1_554 S
C159 O137 1.268 . S
H160 C145 0.930 . S
H161 C146 0.930 . S
H162 C148 0.930 . S
H163 C149 0.930 . S
H164 C154 0.930 . S
H165 C155 0.930 . S
H166 C157 0.930 . S
H167 C158 0.930 . S
Gd168 N199 2.661 . S
Gd168 N205 2.601 . S
Gd168 O212 2.545 . S
Gd168 O213 2.606 . S
Gd168 O215 2.429 . S
Gd168 O216 2.545 . S
Gd168 O217 2.412 . S
Gd168 O219 2.362 . S
Gd168 O220 2.324 . S
Gd168 C227 2.828 . S
Gd169 N178 2.661 . S
Gd169 N182 2.601 . S
Gd169 O213 2.362 . S
Gd169 O214 2.324 . S
Gd169 O218 2.545 . S
Gd169 O219 2.606 . S
Gd169 O221 2.429 . S
Gd169 O222 2.545 . S
Gd169 O223 2.412 . S
Gd169 C236 2.828 . S
C170 C173 1.417 1_655 S
C170 C175 1.431 . S
C170 C176 1.412 . S
C171 C174 1.437 1_655 S
C171 C175 1.317 . S
C171 H190 0.929 . S
C172 C173 1.426 . S
C172 C174 1.413 . S
C172 N182 1.359 . S
C173 C170 1.417 1_455 S
C173 C172 1.426 . S
C173 N178 1.350 . S
C174 C171 1.437 1_455 S
C174 C172 1.413 . S
C174 C184 1.391 . S
C175 C170 1.431 . S
C175 C171 1.317 . S
C175 H186 0.930 . S
C176 C170 1.412 . S
C176 C177 1.355 . S
C176 H188 0.930 . S
C177 C176 1.355 . S
C177 C179 1.402 1_655 S
C177 H189 0.930 . S
N178 Gd169 2.661 . S
N178 C173 1.350 . S
N178 C179 1.307 . S
C179 C177 1.402 1_455 S
C179 N178 1.307 . S
C179 H180 0.930 . S
H180 C179 0.930 . S
C181 N182 1.334 . S
C181 C183 1.394 . S
C181 H185 0.930 . S
N182 Gd169 2.601 . S
N182 C172 1.359 . S
N182 C181 1.334 . S
C183 C181 1.394 . S
C183 C184 1.359 . S
C183 H195 0.930 . S
C184 C174 1.391 . S
C184 C183 1.359 . S
C184 H196 0.929 . S
H185 C181 0.930 . S
H186 C175 0.930 . S
H187 C204 0.930 . S
H188 C176 0.930 . S
H189 C177 0.930 . S
H190 C171 0.929 . S
H191 C209 0.930 . S
H192 C200 0.930 . S
H193 C201 0.930 . S
H194 C225 0.929 . S
H195 C183 0.930 . S
H196 C184 0.929 . S
H197 C226 0.930 . S
H198 C207 0.930 . S
N199 Gd168 2.661 . S
N199 C203 1.350 . S
N199 C204 1.307 . S
C200 H192 0.930 . S
C200 C201 1.355 . S
C200 C202 1.412 . S
C201 H193 0.930 . S
C201 C200 1.355 . S
C201 C204 1.402 . S
C202 C200 1.412 . S
C202 C203 1.417 . S
C202 C226 1.431 . S
C203 N199 1.350 . S
C203 C202 1.417 . S
C203 C206 1.426 . S
C204 H187 0.930 . S
C204 N199 1.307 . S
C204 C201 1.402 . S
N205 Gd168 2.601 . S
N205 C206 1.359 . S
N205 C209 1.334 . S
C206 C203 1.426 . S
C206 N205 1.359 . S
C206 C210 1.413 . S
C207 H198 0.930 . S
C207 C208 1.359 . S
C207 C209 1.394 . S
C208 C207 1.359 . S
C208 C210 1.391 . S
C208 H211 0.929 . S
C209 H191 0.930 . S
C209 N205 1.334 . S
C209 C207 1.394 . S
C210 C206 1.413 . S
C210 C208 1.391 . S
C210 C225 1.437 . S
H211 C208 0.929 . S
O212 Gd168 2.545 . S
O212 C227 1.258 . S
O213 Gd168 2.606 . S
O213 Gd169 2.362 . S
O213 C224 1.284 . S
O214 Gd169 2.324 . S
O214 C234 1.254 . S
O215 Gd168 2.429 . S
O215 C234 1.268 . S
O216 Gd168 2.545 . S
O216 C224 1.250 . S
O217 Gd168 2.412 . S
O217 C227 1.252 . S
O218 Gd169 2.545 . S
O218 C236 1.258 . S
O219 Gd168 2.362 . S
O219 Gd169 2.606 . S
O219 C235 1.284 . S
O220 Gd168 2.324 . S
O220 C243 1.254 . S
O221 Gd169 2.429 . S
O221 C243 1.268 . S
O222 Gd169 2.545 . S
O222 C235 1.250 . S
O223 Gd169 2.412 . S
O223 C236 1.252 . S
C224 O213 1.284 . S
C224 O216 1.250 . S
C225 H194 0.929 . S
C225 C210 1.437 . S
C225 C226 1.317 . S
C226 H197 0.930 . S
C226 C202 1.431 . S
C226 C225 1.317 . S
C227 Gd168 2.828 . S
C227 O212 1.258 . S
C227 O217 1.252 . S
C227 C228 1.497 . S
C228 C227 1.497 . S
C228 C229 1.395 . S
C228 C230 1.380 . S
C229 C228 1.395 . S
C229 C232 1.398 . S
C229 H244 0.930 . S
C230 C228 1.380 . S
C230 C231 1.391 . S
C230 H245 0.930 . S
C231 C230 1.391 . S
C231 C233 1.387 . S
C232 C229 1.398 . S
C232 C233 1.380 . S
C232 H246 0.930 . S
C233 C231 1.387 . S
C233 C232 1.380 . S
C233 H247 0.930 . S
C234 O214 1.254 . S
C234 O215 1.268 . S
C235 O219 1.284 . S
C235 O222 1.250 . S
C236 Gd169 2.828 . S
C236 O218 1.258 . S
C236 O223 1.252 . S
C236 C237 1.497 . S
C237 C236 1.497 . S
C237 C238 1.395 . S
C237 C239 1.380 . S
C238 C237 1.395 . S
C238 C241 1.398 . S
C238 H248 0.930 . S
C239 C237 1.380 . S
C239 C240 1.391 . S
C239 H249 0.930 . S
C240 C239 1.391 . S
C240 C242 1.387 . S
C241 C238 1.398 . S
C241 C242 1.380 . S
C241 H250 0.930 . S
C242 C240 1.387 . S
C242 C241 1.380 . S
C242 H251 0.930 . S
C243 O220 1.254 . S
C243 O221 1.268 . S
H244 C229 0.930 . S
H245 C230 0.930 . S
H246 C232 0.930 . S
H247 C233 0.930 . S
H248 C238 0.930 . S
H249 C239 0.930 . S
H250 C241 0.930 . S
H251 C242 0.930 . S
Gd252 N283 2.661 . S
Gd252 N289 2.601 . S
Gd252 O296 2.545 . S
Gd252 O297 2.606 . S
Gd252 O299 2.429 . S
Gd252 O300 2.545 . S
Gd252 O301 2.412 . S
Gd252 O303 2.362 . S
Gd252 O304 2.324 . S
Gd252 C311 2.828 . S
Gd253 N262 2.661 . S
Gd253 N266 2.601 . S
Gd253 O297 2.362 . S
Gd253 O298 2.324 . S
Gd253 O302 2.545 . S
Gd253 O303 2.606 . S
Gd253 O305 2.429 . S
Gd253 O306 2.545 . S
Gd253 O307 2.412 . S
Gd253 C320 2.828 . S
C254 C257 1.417 . S
C254 C259 1.431 . S
C254 C260 1.412 . S
C255 C258 1.437 . S
C255 C259 1.317 . S
C255 H274 0.929 . S
C256 C257 1.426 . S
C256 C258 1.413 . S
C256 N266 1.359 . S
C257 C254 1.417 . S
C257 C256 1.426 . S
C257 N262 1.350 . S
C258 C255 1.437 . S
C258 C256 1.413 . S
C258 C268 1.391 . S
C259 C254 1.431 . S
C259 C255 1.317 . S
C259 H270 0.930 . S
C260 C254 1.412 . S
C260 C261 1.355 . S
C260 H272 0.930 . S
C261 C260 1.355 . S
C261 C263 1.402 . S
C261 H273 0.930 . S
N262 Gd253 2.661 . S
N262 C257 1.350 . S
N262 C263 1.307 . S
C263 C261 1.402 . S
C263 N262 1.307 . S
C263 H264 0.930 . S
H264 C263 0.930 . S
C265 N266 1.334 . S
C265 C267 1.394 . S
C265 H269 0.930 . S
N266 Gd253 2.601 . S
N266 C256 1.359 . S
N266 C265 1.334 . S
C267 C265 1.394 . S
C267 C268 1.359 . S
C267 H279 0.930 . S
C268 C258 1.391 . S
C268 C267 1.359 . S
C268 H280 0.929 . S
H269 C265 0.930 . S
H270 C259 0.930 . S
H271 C288 0.930 . S
H272 C260 0.930 . S
H273 C261 0.930 . S
H274 C255 0.929 . S
H275 C293 0.930 . S
H276 C284 0.930 . S
H277 C285 0.930 . S
H278 C309 0.929 . S
H279 C267 0.930 . S
H280 C268 0.929 . S
H281 C310 0.930 . S
H282 C291 0.930 . S
N283 Gd252 2.661 . S
N283 C287 1.350 . S
N283 C288 1.307 . S
C284 H276 0.930 . S
C284 C285 1.355 . S
C284 C286 1.412 . S
C285 H277 0.930 . S
C285 C284 1.355 . S
C285 C288 1.402 1_455 S
C286 C284 1.412 . S
C286 C287 1.417 1_455 S
C286 C310 1.431 . S
C287 N283 1.350 . S
C287 C286 1.417 1_655 S
C287 C290 1.426 . S
C288 H271 0.930 . S
C288 N283 1.307 . S
C288 C285 1.402 1_655 S
N289 Gd252 2.601 . S
N289 C290 1.359 . S
N289 C293 1.334 . S
C290 C287 1.426 . S
C290 N289 1.359 . S
C290 C294 1.413 . S
C291 H282 0.930 . S
C291 C292 1.359 . S
C291 C293 1.394 . S
C292 C291 1.359 . S
C292 C294 1.391 . S
C292 H295 0.929 . S
C293 H275 0.930 . S
C293 N289 1.334 . S
C293 C291 1.394 . S
C294 C290 1.413 . S
C294 C292 1.391 . S
C294 C309 1.437 1_655 S
H295 C292 0.929 . S
O296 Gd252 2.545 . S
O296 C311 1.258 . S
O297 Gd252 2.606 . S
O297 Gd253 2.362 . S
O297 C308 1.284 . S
O298 Gd253 2.324 . S
O298 C318 1.254 . S
O299 Gd252 2.429 . S
O299 C318 1.268 . S
O300 Gd252 2.545 . S
O300 C308 1.250 . S
O301 Gd252 2.412 . S
O301 C311 1.252 . S
O302 Gd253 2.545 . S
O302 C320 1.258 . S
O303 Gd252 2.362 . S
O303 Gd253 2.606 . S
O303 C319 1.284 . S
O304 Gd252 2.324 . S
O304 C327 1.254 . S
O305 Gd253 2.429 . S
O305 C327 1.268 . S
O306 Gd253 2.545 . S
O306 C319 1.250 . S
O307 Gd253 2.412 . S
O307 C320 1.252 . S
C308 O297 1.284 . S
C308 O300 1.250 . S
C309 H278 0.929 . S
C309 C294 1.437 1_455 S
C309 C310 1.317 . S
C310 H281 0.930 . S
C310 C286 1.431 . S
C310 C309 1.317 . S
C311 Gd252 2.828 . S
C311 O296 1.258 . S
C311 O301 1.252 . S
C311 C312 1.497 . S
C312 C311 1.497 . S
C312 C313 1.395 . S
C312 C314 1.380 . S
C313 C312 1.395 . S
C313 C316 1.398 . S
C313 H328 0.930 . S
C314 C312 1.380 . S
C314 C315 1.391 . S
C314 H329 0.930 . S
C315 C314 1.391 . S
C315 C317 1.387 . S
C316 C313 1.398 . S
C316 C317 1.380 . S
C316 H330 0.930 . S
C317 C315 1.387 . S
C317 C316 1.380 . S
C317 H331 0.930 . S
C318 O298 1.254 . S
C318 O299 1.268 . S
C319 O303 1.284 . S
C319 O306 1.250 . S
C320 Gd253 2.828 . S
C320 O302 1.258 . S
C320 O307 1.252 . S
C320 C321 1.497 . S
C321 C320 1.497 . S
C321 C322 1.395 . S
C321 C323 1.380 . S
C322 C321 1.395 . S
C322 C325 1.398 . S
C322 H332 0.930 . S
C323 C321 1.380 . S
C323 C324 1.391 . S
C323 H333 0.930 . S
C324 C323 1.391 . S
C324 C326 1.387 . S
C325 C322 1.398 . S
C325 C326 1.380 . S
C325 H334 0.930 . S
C326 C324 1.387 . S
C326 C325 1.380 . S
C326 H335 0.930 . S
C327 O304 1.254 . S
C327 O305 1.268 . S
H328 C313 0.930 . S
H329 C314 0.930 . S
H330 C316 0.930 . S
H331 C317 0.930 . S
H332 C322 0.930 . S
H333 C323 0.930 . S
H334 C325 0.930 . S
H335 C326 0.930 . S
H336 C354 0.951 . S
H337 C356 0.951 . S
H338 C358 0.950 . S
H339 C359 0.950 . S
H340 C361 0.950 . S
H341 C364 0.950 . S
H342 C365 0.950 . S
H343 C367 0.950 . S
H344 C368 0.950 . S
H345 C369 0.951 . S
H346 C371 0.951 . S
H347 C373 0.950 . S
H348 C374 0.950 . S
H349 C376 0.950 . S
H350 C379 0.950 . S
H351 C380 0.950 . S
H352 C382 0.950 . S
H353 C383 0.950 . S
C354 H336 0.951 . S
C354 C355 1.366 . S
C354 C356 1.388 . S
C355 C354 1.366 . S
C355 C359 1.385 1_556 S
C356 H337 0.951 . S
C356 C354 1.388 . S
C356 C357 1.366 . S
C357 C356 1.366 . S
C357 C358 1.414 1_556 S
C357 C360 1.498 . S
C358 H338 0.950 . S
C358 C357 1.414 1_554 S
C358 C359 1.374 . S
C359 H339 0.950 . S
C359 C355 1.385 1_554 S
C359 C358 1.374 . S
C360 C357 1.498 . S
C360 C361 1.375 1_556 S
C360 C362 1.388 . S
C361 H340 0.950 . S
C361 C360 1.375 1_554 S
C361 C377 1.377 . S
C362 C360 1.388 . S
C362 C363 1.524 . S
C362 C376 1.377 . S
C363 C362 1.524 . S
C363 C364 1.397 . S
C363 C368 1.363 . S
C364 H341 0.950 . S
C364 C363 1.397 . S
C364 C365 1.334 . S
C365 H342 0.950 . S
C365 C364 1.334 . S
C365 C366 1.287 . S
C366 C365 1.287 . S
C366 C367 1.524 . S
C366 H385 0.913 . S
C367 H343 0.950 . S
C367 C366 1.524 . S
C367 C368 1.415 . S
C368 H344 0.950 . S
C368 C363 1.363 . S
C368 C367 1.415 . S
C369 H345 0.951 . S
C369 C370 1.366 . S
C369 C371 1.388 . S
C370 C369 1.366 . S
C370 C374 1.385 1_554 S
C371 H346 0.951 . S
C371 C369 1.388 . S
C371 C372 1.366 . S
C372 C371 1.366 . S
C372 C373 1.414 1_554 S
C372 C375 1.501 . S
C373 H347 0.950 . S
C373 C372 1.414 1_556 S
C373 C374 1.374 . S
C374 H348 0.950 . S
C374 C370 1.385 1_556 S
C374 C373 1.374 . S
C375 C372 1.501 . S
C375 C376 1.367 1_554 S
C375 C377 1.393 . S
C376 H349 0.950 . S
C376 C362 1.377 . S
C376 C375 1.367 1_556 S
C377 C361 1.377 . S
C377 C375 1.393 . S
C377 C378 1.524 . S
C378 C377 1.524 . S
C378 C379 1.397 . S
C378 C383 1.363 . S
C379 H350 0.950 . S
C379 C378 1.397 . S
C379 C380 1.334 . S
C380 H351 0.950 . S
C380 C379 1.334 . S
C380 C381 1.287 . S
C381 C380 1.287 . S
C381 C382 1.524 . S
C381 H384 0.999 . S
C382 H352 0.950 . S
C382 C381 1.524 . S
C382 C383 1.415 . S
C383 H353 0.950 . S
C383 C378 1.363 . S
C383 C382 1.415 . S
H384 C381 0.999 . S
H385 C366 0.913 . S
H386 C404 0.951 . S
H387 C406 0.951 . S
H388 C408 0.950 . S
H389 C409 0.950 . S
H390 C411 0.950 . S
H391 C414 0.950 . S
H392 C415 0.950 . S
H393 C417 0.950 . S
H394 C418 0.950 . S
H395 C419 0.951 . S
H396 C421 0.951 . S
H397 C423 0.950 . S
H398 C424 0.950 . S
H399 C426 0.950 . S
H400 C429 0.950 . S
H401 C430 0.950 . S
H402 C432 0.950 . S
H403 C433 0.950 . S
C404 H386 0.951 . S
C404 C405 1.366 . S
C404 C406 1.388 . S
C405 C404 1.366 . S
C405 C409 1.385 . S
C406 H387 0.951 . S
C406 C404 1.388 . S
C406 C407 1.366 . S
C407 C406 1.366 . S
C407 C408 1.414 . S
C407 C410 1.499 . S
C408 H388 0.950 . S
C408 C407 1.414 . S
C408 C409 1.374 . S
C409 H389 0.950 . S
C409 C405 1.385 . S
C409 C408 1.374 . S
C410 C407 1.499 . S
C410 C411 1.373 . S
C410 C412 1.389 . S
C411 H390 0.950 . S
C411 C410 1.373 . S
C411 C427 1.377 . S
C412 C410 1.389 . S
C412 C413 1.524 . S
C412 C426 1.377 . S
C413 C412 1.524 . S
C413 C414 1.397 . S
C413 C418 1.363 . S
C414 H391 0.950 . S
C414 C413 1.397 . S
C414 C415 1.334 . S
C415 H392 0.950 . S
C415 C414 1.334 . S
C415 C416 1.287 . S
C416 C415 1.287 . S
C416 C417 1.524 . S
C416 H435 0.913 . S
C417 H393 0.950 . S
C417 C416 1.524 . S
C417 C418 1.415 . S
C418 H394 0.950 . S
C418 C413 1.363 . S
C418 C417 1.415 . S
C419 H395 0.951 . S
C419 C420 1.366 . S
C419 C421 1.388 . S
C420 C419 1.366 . S
C420 C424 1.385 . S
C421 H396 0.951 . S
C421 C419 1.388 . S
C421 C422 1.366 . S
C422 C421 1.366 . S
C422 C423 1.414 . S
C422 C425 1.499 . S
C423 H397 0.950 . S
C423 C422 1.414 . S
C423 C424 1.374 . S
C424 H398 0.950 . S
C424 C420 1.385 . S
C424 C423 1.374 . S
C425 C422 1.499 . S
C425 C426 1.373 . S
C425 C427 1.389 . S
C426 H399 0.950 . S
C426 C412 1.377 . S
C426 C425 1.373 . S
C427 C411 1.377 . S
C427 C425 1.389 . S
C427 C428 1.524 . S
C428 C427 1.524 . S
C428 C429 1.397 . S
C428 C433 1.363 . S
C429 H400 0.950 . S
C429 C428 1.397 . S
C429 C430 1.334 . S
C430 H401 0.950 . S
C430 C429 1.334 . S
C430 C431 1.287 . S
C431 C430 1.287 . S
C431 C432 1.524 . S
C431 H434 0.999 . S
C432 H402 0.950 . S
C432 C431 1.524 . S
C432 C433 1.415 . S
C433 H403 0.950 . S
C433 C428 1.363 . S
C433 C432 1.415 . S
H434 C431 0.999 . S
H435 C416 0.913 . S
H436 C454 0.951 . S
H437 C456 0.951 . S
H438 C458 0.950 . S
H439 C459 0.950 . S
H440 C461 0.950 . S
H441 C464 0.950 . S
H442 C465 0.950 . S
H443 C467 0.950 . S
H444 C468 0.950 1_554 S
H445 C469 0.951 . S
H446 C471 0.951 . S
H447 C473 0.950 . S
H448 C474 0.950 . S
H449 C476 0.950 . S
H450 C479 0.950 . S
H451 C480 0.950 . S
H452 C482 0.950 . S
H453 C483 0.950 1_556 S
C454 H436 0.951 . S
C454 C455 1.366 1_554 S
C454 C456 1.388 . S
C455 C454 1.366 1_556 S
C455 C459 1.385 . S
C456 H437 0.951 . S
C456 C454 1.388 . S
C456 C457 1.366 1_554 S
C457 C456 1.366 1_556 S
C457 C458 1.414 . S
C457 C460 1.499 . S
C458 H438 0.950 . S
C458 C457 1.414 . S
C458 C459 1.374 . S
C459 H439 0.950 . S
C459 C455 1.385 . S
C459 C458 1.374 . S
C460 C457 1.499 . S
C460 C461 1.373 1_456 S
C460 C462 1.389 1_545 S
C461 H440 0.950 . S
C461 C460 1.373 1_654 S
C461 C477 1.377 . S
C462 C460 1.389 1_565 S
C462 C463 1.524 . S
C462 C476 1.377 . S
C463 C462 1.524 . S
C463 C464 1.397 . S
C463 C468 1.363 . S
C464 H441 0.950 . S
C464 C463 1.397 . S
C464 C465 1.334 . S
C465 H442 0.950 . S
C465 C464 1.334 . S
C465 C466 1.287 . S
C466 C465 1.287 . S
C466 C467 1.524 . S
C466 H485 0.913 . S
C467 H443 0.950 . S
C467 C466 1.524 . S
C467 C468 1.415 . S
C468 H444 0.950 1_556 S
C468 C463 1.363 . S
C468 C467 1.415 . S
C469 H445 0.951 . S
C469 C470 1.366 1_556 S
C469 C471 1.388 . S
C470 C469 1.366 1_554 S
C470 C474 1.385 . S
C471 H446 0.951 . S
C471 C469 1.388 . S
C471 C472 1.366 1_556 S
C472 C471 1.366 1_554 S
C472 C473 1.414 . S
C472 C475 1.499 . S
C473 H447 0.950 . S
C473 C472 1.414 . S
C473 C474 1.374 . S
C474 H448 0.950 . S
C474 C470 1.385 . S
C474 C473 1.374 . S
C475 C472 1.499 . S
C475 C476 1.373 1_654 S
C475 C477 1.389 1_565 S
C476 H449 0.950 . S
C476 C462 1.377 . S
C476 C475 1.373 1_456 S
C477 C461 1.377 . S
C477 C475 1.389 1_545 S
C477 C478 1.524 . S
C478 C477 1.524 . S
C478 C479 1.397 . S
C478 C483 1.363 . S
C479 H450 0.950 . S
C479 C478 1.397 . S
C479 C480 1.334 . S
C480 H451 0.950 . S
C480 C479 1.334 . S
C480 C481 1.287 . S
C481 C480 1.287 . S
C481 C482 1.524 . S
C481 H484 0.999 . S
C482 H452 0.950 . S
C482 C481 1.524 . S
C482 C483 1.415 . S
C483 H453 0.950 1_554 S
C483 C478 1.363 . S
C483 C482 1.415 . S
H484 C481 0.999 . S
H485 C466 0.913 . S
H486 C504 0.951 . S
H487 C506 0.951 . S
H488 C508 0.950 . S
H489 C509 0.950 . S
H490 C511 0.950 . S
H491 C514 0.950 . S
H492 C515 0.950 . S
H493 C517 0.950 . S
H494 C518 0.950 . S
H495 C519 0.951 . S
H496 C521 0.951 . S
H497 C523 0.950 . S
H498 C524 0.950 . S
H499 C526 0.950 . S
H500 C529 0.950 . S
H501 C530 0.950 . S
H502 C532 0.950 . S
H503 C533 0.950 . S
C504 H486 0.951 . S
C504 C505 1.366 . S
C504 C506 1.388 . S
C505 C504 1.366 . S
C505 C509 1.385 . S
C506 H487 0.951 . S
C506 C504 1.388 . S
C506 C507 1.366 . S
C507 C506 1.366 . S
C507 C508 1.414 . S
C507 C510 1.499 . S
C508 H488 0.950 . S
C508 C507 1.414 . S
C508 C509 1.374 . S
C509 H489 0.950 . S
C509 C505 1.385 . S
C509 C508 1.374 . S
C510 C507 1.499 . S
C510 C511 1.373 1_545 S
C510 C512 1.389 1_655 S
C511 H490 0.950 . S
C511 C510 1.373 1_565 S
C511 C527 1.377 . S
C512 C510 1.389 1_455 S
C512 C513 1.524 . S
C512 C526 1.377 . S
C513 C512 1.524 . S
C513 C514 1.397 . S
C513 C518 1.363 . S
C514 H491 0.950 . S
C514 C513 1.397 . S
C514 C515 1.334 . S
C515 H492 0.950 . S
C515 C514 1.334 . S
C515 C516 1.287 . S
C516 C515 1.287 . S
C516 C517 1.524 . S
C516 H535 0.913 . S
C517 H493 0.950 . S
C517 C516 1.524 . S
C517 C518 1.415 . S
C518 H494 0.950 . S
C518 C513 1.363 . S
C518 C517 1.415 . S
C519 H495 0.951 . S
C519 C520 1.366 . S
C519 C521 1.388 . S
C520 C519 1.366 . S
C520 C524 1.385 . S
C521 H496 0.951 . S
C521 C519 1.388 . S
C521 C522 1.366 . S
C522 C521 1.366 . S
C522 C523 1.414 . S
C522 C525 1.499 . S
C523 H497 0.950 . S
C523 C522 1.414 . S
C523 C524 1.374 . S
C524 H498 0.950 . S
C524 C520 1.385 . S
C524 C523 1.374 . S
C525 C522 1.499 . S
C525 C526 1.373 1_565 S
C525 C527 1.389 1_455 S
C526 H499 0.950 . S
C526 C512 1.377 . S
C526 C525 1.373 1_545 S
C527 C511 1.377 . S
C527 C525 1.389 1_655 S
C527 C528 1.524 . S
C528 C527 1.524 . S
C528 C529 1.397 . S
C528 C533 1.363 . S
C529 H500 0.950 . S
C529 C528 1.397 . S
C529 C530 1.334 . S
C530 H501 0.950 . S
C530 C529 1.334 . S
C530 C531 1.287 . S
C531 C530 1.287 . S
C531 C532 1.524 . S
C531 H534 0.999 . S
C532 H502 0.950 . S
C532 C531 1.524 . S
C532 C533 1.415 . S
C533 H503 0.950 . S
C533 C528 1.363 . S
C533 C532 1.415 . S
H534 C531 0.999 . S
H535 C516 0.913 . S
H536 C554 0.951 . S
H537 C556 0.951 . S
H538 C558 0.950 . S
H539 C559 0.950 . S
H540 C561 0.950 . S
H541 C564 0.950 . S
H542 C565 0.950 . S
H543 C567 0.950 . S
H544 C568 0.950 . S
H545 C569 0.951 . S
H546 C571 0.951 . S
H547 C573 0.950 . S
H548 C574 0.950 . S
H549 C576 0.950 . S
H550 C579 0.950 . S
H551 C580 0.950 . S
H552 C582 0.950 . S
H553 C583 0.950 . S
C554 H536 0.951 . S
C554 C555 1.366 . S
C554 C556 1.388 . S
C555 C554 1.366 . S
C555 C559 1.385 . S
C556 H537 0.951 . S
C556 C554 1.388 . S
C556 C557 1.366 . S
C557 C556 1.366 . S
C557 C558 1.414 . S
C557 C560 1.499 . S
C558 H538 0.950 . S
C558 C557 1.414 . S
C558 C559 1.374 . S
C559 H539 0.950 . S
C559 C555 1.385 . S
C559 C558 1.374 . S
C560 C557 1.499 . S
C560 C561 1.373 . S
C560 C562 1.389 . S
C561 H540 0.950 . S
C561 C560 1.373 . S
C561 C577 1.377 . S
C562 C560 1.389 . S
C562 C563 1.524 . S
C562 C576 1.377 . S
C563 C562 1.524 . S
C563 C564 1.397 . S
C563 C568 1.363 . S
C564 H541 0.950 . S
C564 C563 1.397 . S
C564 C565 1.334 . S
C565 H542 0.950 . S
C565 C564 1.334 . S
C565 C566 1.287 . S
C566 C565 1.287 . S
C566 C567 1.524 . S
C566 H585 0.913 . S
C567 H543 0.950 . S
C567 C566 1.524 . S
C567 C568 1.415 . S
C568 H544 0.950 . S
C568 C563 1.363 . S
C568 C567 1.415 . S
C569 H545 0.951 . S
C569 C570 1.366 . S
C569 C571 1.388 . S
C570 C569 1.366 . S
C570 C574 1.385 . S
C571 H546 0.951 . S
C571 C569 1.388 . S
C571 C572 1.366 . S
C572 C571 1.366 . S
C572 C573 1.414 . S
C572 C575 1.499 . S
C573 H547 0.950 . S
C573 C572 1.414 . S
C573 C574 1.374 . S
C574 H548 0.950 . S
C574 C570 1.385 . S
C574 C573 1.374 . S
C575 C572 1.499 . S
C575 C576 1.373 . S
C575 C577 1.389 . S
C576 H549 0.950 . S
C576 C562 1.377 . S
C576 C575 1.373 . S
C577 C561 1.377 . S
C577 C575 1.389 . S
C577 C578 1.524 . S
C578 C577 1.524 . S
C578 C579 1.397 . S
C578 C583 1.363 . S
C579 H550 0.950 . S
C579 C578 1.397 . S
C579 C580 1.334 . S
C580 H551 0.950 . S
C580 C579 1.334 . S
C580 C581 1.287 . S
C581 C580 1.287 . S
C581 C582 1.524 . S
C581 H584 0.999 . S
C582 H552 0.950 . S
C582 C581 1.524 . S
C582 C583 1.415 . S
C583 H553 0.950 . S
C583 C578 1.363 . S
C583 C582 1.415 . S
H584 C581 0.999 . S
H585 C566 0.913 . S
H586 C604 0.951 . S
H587 C606 0.951 . S
H588 C608 0.950 . S
H589 C609 0.950 . S
H590 C611 0.950 . S
H591 C614 0.950 . S
H592 C615 0.950 . S
H593 C617 0.950 . S
H594 C618 0.950 . S
H595 C619 0.951 . S
H596 C621 0.951 . S
H597 C623 0.950 . S
H598 C624 0.950 . S
H599 C626 0.950 . S
H600 C629 0.950 . S
H601 C630 0.950 . S
H602 C632 0.950 . S
H603 C633 0.950 . S
C604 H586 0.951 . S
C604 C605 1.366 . S
C604 C606 1.388 . S
C605 C604 1.366 . S
C605 C609 1.385 . S
C606 H587 0.951 . S
C606 C604 1.388 . S
C606 C607 1.366 . S
C607 C606 1.366 . S
C607 C608 1.414 . S
C607 C610 1.499 . S
C608 H588 0.950 . S
C608 C607 1.414 . S
C608 C609 1.374 . S
C609 H589 0.950 . S
C609 C605 1.385 . S
C609 C608 1.374 . S
C610 C607 1.499 . S
C610 C611 1.373 . S
C610 C612 1.389 . S
C611 H590 0.950 . S
C611 C610 1.373 . S
C611 C627 1.377 . S
C612 C610 1.389 . S
C612 C613 1.524 . S
C612 C626 1.377 . S
C613 C612 1.524 . S
C613 C614 1.397 . S
C613 C618 1.363 . S
C614 H591 0.950 . S
C614 C613 1.397 . S
C614 C615 1.334 . S
C615 H592 0.950 . S
C615 C614 1.334 . S
C615 C616 1.287 . S
C616 C615 1.287 . S
C616 C617 1.524 . S
C616 H635 0.913 . S
C617 H593 0.950 . S
C617 C616 1.524 . S
C617 C618 1.415 . S
C618 H594 0.950 . S
C618 C613 1.363 . S
C618 C617 1.415 . S
C619 H595 0.951 . S
C619 C620 1.366 . S
C619 C621 1.388 . S
C620 C619 1.366 . S
C620 C624 1.385 . S
C621 H596 0.951 . S
C621 C619 1.388 . S
C621 C622 1.366 . S
C622 C621 1.366 . S
C622 C623 1.414 . S
C622 C625 1.499 . S
C623 H597 0.950 . S
C623 C622 1.414 . S
C623 C624 1.374 . S
C624 H598 0.950 . S
C624 C620 1.385 . S
C624 C623 1.374 . S
C625 C622 1.499 . S
C625 C626 1.373 . S
C625 C627 1.389 . S
C626 H599 0.950 . S
C626 C612 1.377 . S
C626 C625 1.373 . S
C627 C611 1.377 . S
C627 C625 1.389 . S
C627 C628 1.524 . S
C628 C627 1.524 . S
C628 C629 1.397 . S
C628 C633 1.363 . S
C629 H600 0.950 . S
C629 C628 1.397 . S
C629 C630 1.334 . S
C630 H601 0.950 . S
C630 C629 1.334 . S
C630 C631 1.287 . S
C631 C630 1.287 . S
C631 C632 1.524 . S
C631 H634 0.999 . S
C632 H602 0.950 . S
C632 C631 1.524 . S
C632 C633 1.415 . S
C633 H603 0.950 . S
C633 C628 1.363 . S
C633 C632 1.415 . S
H634 C631 0.999 . S
H635 C616 0.913 . S
H636 C654 0.951 . S
H637 C656 0.951 . S
H638 C658 0.950 . S
H639 C659 0.950 . S
H640 C661 0.950 . S
H641 C664 0.950 . S
H642 C665 0.950 . S
H643 C667 0.950 . S
H644 C668 0.950 . S
H645 C669 0.951 . S
H646 C671 0.951 . S
H647 C673 0.950 . S
H648 C674 0.950 . S
H649 C676 0.950 . S
H650 C679 0.950 . S
H651 C680 0.950 . S
H652 C682 0.950 . S
H653 C683 0.950 . S
C654 H636 0.951 . S
C654 C655 1.366 . S
C654 C656 1.388 . S
C655 C654 1.366 . S
C655 C659 1.385 . S
C656 H637 0.951 . S
C656 C654 1.388 . S
C656 C657 1.366 . S
C657 C656 1.366 . S
C657 C658 1.414 . S
C657 C660 1.499 . S
C658 H638 0.950 . S
C658 C657 1.414 . S
C658 C659 1.374 . S
C659 H639 0.950 . S
C659 C655 1.385 . S
C659 C658 1.374 . S
C660 C657 1.499 . S
C660 C661 1.373 . S
C660 C662 1.389 . S
C661 H640 0.950 . S
C661 C660 1.373 . S
C661 C677 1.377 . S
C662 C660 1.389 . S
C662 C663 1.524 . S
C662 C676 1.377 . S
C663 C662 1.524 . S
C663 C664 1.397 . S
C663 C668 1.363 . S
C664 H641 0.950 . S
C664 C663 1.397 . S
C664 C665 1.334 . S
C665 H642 0.950 . S
C665 C664 1.334 . S
C665 C666 1.287 . S
C666 C665 1.287 . S
C666 C667 1.524 . S
C666 H685 0.913 . S
C667 H643 0.950 . S
C667 C666 1.524 . S
C667 C668 1.415 . S
C668 H644 0.950 . S
C668 C663 1.363 . S
C668 C667 1.415 . S
C669 H645 0.951 . S
C669 C670 1.366 . S
C669 C671 1.388 . S
C670 C669 1.366 . S
C670 C674 1.385 . S
C671 H646 0.951 . S
C671 C669 1.388 . S
C671 C672 1.366 . S
C672 C671 1.366 . S
C672 C673 1.414 . S
C672 C675 1.499 . S
C673 H647 0.950 . S
C673 C672 1.414 . S
C673 C674 1.374 . S
C674 H648 0.950 . S
C674 C670 1.385 . S
C674 C673 1.374 . S
C675 C672 1.499 . S
C675 C676 1.373 . S
C675 C677 1.389 . S
C676 H649 0.950 . S
C676 C662 1.377 . S
C676 C675 1.373 . S
C677 C661 1.377 . S
C677 C675 1.389 . S
C677 C678 1.524 . S
C678 C677 1.524 . S
C678 C679 1.397 . S
C678 C683 1.363 . S
C679 H650 0.950 . S
C679 C678 1.397 . S
C679 C680 1.334 . S
C680 H651 0.950 . S
C680 C679 1.334 . S
C680 C681 1.287 . S
C681 C680 1.287 . S
C681 C682 1.524 . S
C681 H684 0.999 . S
C682 H652 0.950 . S
C682 C681 1.524 . S
C682 C683 1.415 . S
C683 H653 0.950 . S
C683 C678 1.363 . S
C683 C682 1.415 . S
H684 C681 0.999 . S
H685 C666 0.913 . S
H686 C704 0.951 . S
H687 C706 0.951 . S
H688 C708 0.950 . S
H689 C709 0.950 . S
H690 C711 0.950 . S
H691 C714 0.950 . S
H692 C715 0.950 . S
H693 C717 0.950 . S
H694 C718 0.950 . S
H695 C719 0.951 . S
H696 C721 0.951 . S
H697 C723 0.950 . S
H698 C724 0.950 . S
H699 C726 0.950 . S
H700 C729 0.950 . S
H701 C730 0.950 . S
H702 C732 0.950 . S
H703 C733 0.950 . S
C704 H686 0.951 . S
C704 C705 1.366 . S
C704 C706 1.388 . S
C705 C704 1.366 . S
C705 C709 1.385 . S
C706 H687 0.951 . S
C706 C704 1.388 . S
C706 C707 1.366 . S
C707 C706 1.366 . S
C707 C708 1.414 . S
C707 C710 1.499 . S
C708 H688 0.950 . S
C708 C707 1.414 . S
C708 C709 1.374 . S
C709 H689 0.950 . S
C709 C705 1.385 . S
C709 C708 1.374 . S
C710 C707 1.499 . S
C710 C711 1.373 . S
C710 C712 1.389 . S
C711 H690 0.950 . S
C711 C710 1.373 . S
C711 C727 1.377 . S
C712 C710 1.389 . S
C712 C713 1.524 . S
C712 C726 1.377 . S
C713 C712 1.524 . S
C713 C714 1.397 . S
C713 C718 1.363 . S
C714 H691 0.950 . S
C714 C713 1.397 . S
C714 C715 1.334 . S
C715 H692 0.950 . S
C715 C714 1.334 . S
C715 C716 1.287 . S
C716 C715 1.287 . S
C716 C717 1.524 . S
C716 H735 0.913 . S
C717 H693 0.950 . S
C717 C716 1.524 . S
C717 C718 1.415 . S
C718 H694 0.950 . S
C718 C713 1.363 . S
C718 C717 1.415 . S
C719 H695 0.951 . S
C719 C720 1.366 . S
C719 C721 1.388 . S
C720 C719 1.366 . S
C720 C724 1.385 . S
C721 H696 0.951 . S
C721 C719 1.388 . S
C721 C722 1.366 . S
C722 C721 1.366 . S
C722 C723 1.414 . S
C722 C725 1.499 . S
C723 H697 0.950 . S
C723 C722 1.414 . S
C723 C724 1.374 . S
C724 H698 0.950 . S
C724 C720 1.385 . S
C724 C723 1.374 . S
C725 C722 1.499 . S
C725 C726 1.373 . S
C725 C727 1.389 . S
C726 H699 0.950 . S
C726 C712 1.377 . S
C726 C725 1.373 . S
C727 C711 1.377 . S
C727 C725 1.389 . S
C727 C728 1.524 . S
C728 C727 1.524 . S
C728 C729 1.397 . S
C728 C733 1.363 . S
C729 H700 0.950 . S
C729 C728 1.397 . S
C729 C730 1.334 . S
C730 H701 0.950 . S
C730 C729 1.334 . S
C730 C731 1.287 . S
C731 C730 1.287 . S
C731 C732 1.524 . S
C731 H734 0.999 . S
C732 H702 0.950 . S
C732 C731 1.524 . S
C732 C733 1.415 . S
C733 H703 0.950 . S
C733 C728 1.363 . S
C733 C732 1.415 . S
H734 C731 0.999 . S
H735 C716 0.913 . S
H736 C754 0.951 . S
H737 C756 0.951 . S
H738 C758 0.950 . S
H739 C759 0.950 . S
H740 C761 0.950 . S
H741 C764 0.950 . S
H742 C765 0.950 . S
H743 C767 0.950 . S
H744 C768 0.950 . S
H745 C769 0.951 . S
H746 C771 0.951 . S
H747 C773 0.950 . S
H748 C774 0.950 . S
H749 C776 0.950 . S
H750 C779 0.950 . S
H751 C780 0.950 . S
H752 C782 0.950 1_455 S
H753 C783 0.950 1_455 S
C754 H736 0.951 . S
C754 C755 1.366 . S
C754 C756 1.388 . S
C755 C754 1.366 . S
C755 C759 1.385 . S
C756 H737 0.951 . S
C756 C754 1.388 . S
C756 C757 1.366 . S
C757 C756 1.366 . S
C757 C758 1.414 . S
C757 C760 1.499 . S
C758 H738 0.950 . S
C758 C757 1.414 . S
C758 C759 1.374 . S
C759 H739 0.950 . S
C759 C755 1.385 . S
C759 C758 1.374 . S
C760 C757 1.499 . S
C760 C761 1.373 . S
C760 C762 1.389 . S
C761 H740 0.950 . S
C761 C760 1.373 . S
C761 C777 1.377 . S
C762 C760 1.389 . S
C762 C763 1.524 . S
C762 C776 1.377 . S
C763 C762 1.524 . S
C763 C764 1.397 . S
C763 C768 1.363 . S
C764 H741 0.950 . S
C764 C763 1.397 . S
C764 C765 1.334 . S
C765 H742 0.950 . S
C765 C764 1.334 . S
C765 C766 1.287 . S
C766 C765 1.287 . S
C766 C767 1.524 . S
C766 H785 0.913 . S
C767 H743 0.950 . S
C767 C766 1.524 . S
C767 C768 1.415 . S
C768 H744 0.950 . S
C768 C763 1.363 . S
C768 C767 1.415 . S
C769 H745 0.951 . S
C769 C770 1.366 . S
C769 C771 1.388 . S
C770 C769 1.366 . S
C770 C774 1.385 1_455 S
C771 H746 0.951 . S
C771 C769 1.388 . S
C771 C772 1.366 1_455 S
C772 C771 1.366 1_655 S
C772 C773 1.414 . S
C772 C775 1.499 . S
C773 H747 0.950 . S
C773 C772 1.414 . S
C773 C774 1.374 . S
C774 H748 0.950 . S
C774 C770 1.385 1_655 S
C774 C773 1.374 . S
C775 C772 1.499 . S
C775 C776 1.373 . S
C775 C777 1.389 . S
C776 H749 0.950 . S
C776 C762 1.377 . S
C776 C775 1.373 . S
C777 C761 1.377 . S
C777 C775 1.389 . S
C777 C778 1.524 . S
C778 C777 1.524 . S
C778 C779 1.397 . S
C778 C783 1.363 . S
C779 H750 0.950 . S
C779 C778 1.397 . S
C779 C780 1.334 . S
C780 H751 0.950 . S
C780 C779 1.334 . S
C780 C781 1.287 . S
C781 C780 1.287 . S
C781 C782 1.524 . S
C781 H784 0.999 . S
C782 H752 0.950 1_655 S
C782 C781 1.524 . S
C782 C783 1.415 . S
C783 H753 0.950 1_655 S
C783 C778 1.363 . S
C783 C782 1.415 . S
H784 C781 0.999 . S
H785 C766 0.913 . S
H786 C804 0.951 . S
H787 C806 0.951 . S
H788 C808 0.950 . S
H789 C809 0.950 . S
H790 C811 0.950 . S
H791 C814 0.950 . S
H792 C815 0.950 . S
H793 C817 0.950 . S
H794 C818 0.950 . S
H795 C819 0.951 . S
H796 C821 0.951 . S
H797 C823 0.950 . S
H798 C824 0.950 . S
H799 C826 0.950 . S
H800 C829 0.950 . S
H801 C830 0.950 . S
H802 C832 0.950 . S
H803 C833 0.950 . S
C804 H786 0.951 . S
C804 C805 1.366 . S
C804 C806 1.388 . S
C805 C804 1.366 . S
C805 C809 1.385 . S
C806 H787 0.951 . S
C806 C804 1.388 . S
C806 C807 1.366 . S
C807 C806 1.366 . S
C807 C808 1.414 . S
C807 C810 1.499 . S
C808 H788 0.950 . S
C808 C807 1.414 . S
C808 C809 1.374 . S
C809 H789 0.950 . S
C809 C805 1.385 . S
C809 C808 1.374 . S
C810 C807 1.499 . S
C810 C811 1.373 . S
C810 C812 1.389 . S
C811 H790 0.950 . S
C811 C810 1.373 . S
C811 C827 1.377 . S
C812 C810 1.389 . S
C812 C813 1.524 . S
C812 C826 1.377 . S
C813 C812 1.524 . S
C813 C814 1.397 . S
C813 C818 1.363 . S
C814 H791 0.950 . S
C814 C813 1.397 . S
C814 C815 1.334 . S
C815 H792 0.950 . S
C815 C814 1.334 . S
C815 C816 1.287 . S
C816 C815 1.287 . S
C816 C817 1.524 . S
C816 H835 0.913 . S
C817 H793 0.950 . S
C817 C816 1.524 . S
C817 C818 1.415 . S
C818 H794 0.950 . S
C818 C813 1.363 . S
C818 C817 1.415 . S
C819 H795 0.951 . S
C819 C820 1.366 1_655 S
C819 C821 1.388 . S
C820 C819 1.366 1_455 S
C820 C824 1.385 . S
C821 H796 0.951 . S
C821 C819 1.388 . S
C821 C822 1.366 . S
C822 C821 1.366 . S
C822 C823 1.414 1_655 S
C822 C825 1.499 . S
C823 H797 0.950 . S
C823 C822 1.414 1_455 S
C823 C824 1.374 . S
C824 H798 0.950 . S
C824 C820 1.385 . S
C824 C823 1.374 . S
C825 C822 1.499 . S
C825 C826 1.373 . S
C825 C827 1.389 . S
C826 H799 0.950 . S
C826 C812 1.377 . S
C826 C825 1.373 . S
C827 C811 1.377 . S
C827 C825 1.389 . S
C827 C828 1.524 . S
C828 C827 1.524 . S
C828 C829 1.397 1_655 S
C828 C833 1.363 . S
C829 H800 0.950 . S
C829 C828 1.397 1_455 S
C829 C830 1.334 . S
C830 H801 0.950 . S
C830 C829 1.334 . S
C830 C831 1.287 . S
C831 C830 1.287 . S
C831 C832 1.524 1_455 S
C831 H834 0.999 . S
C832 H802 0.950 . S
C832 C831 1.524 1_655 S
C832 C833 1.415 . S
C833 H803 0.950 . S
C833 C828 1.363 . S
C833 C832 1.415 . S
H834 C831 0.999 . S
H835 C816 0.913 . S
H836 C854 0.951 . S
H837 C856 0.951 . S
H838 C858 0.950 . S
H839 C859 0.950 . S
H840 C861 0.950 . S
H841 C864 0.950 . S
H842 C865 0.950 . S
H843 C867 0.950 . S
H844 C868 0.950 . S
H845 C869 0.951 . S
H846 C871 0.951 . S
H847 C873 0.950 . S
H848 C874 0.950 . S
H849 C876 0.950 . S
H850 C879 0.950 . S
H851 C880 0.950 . S
H852 C882 0.950 . S
H853 C883 0.950 . S
C854 H836 0.951 . S
C854 C855 1.366 . S
C854 C856 1.388 . S
C855 C854 1.366 . S
C855 C859 1.385 1_655 S
C856 H837 0.951 . S
C856 C854 1.388 . S
C856 C857 1.366 1_655 S
C857 C856 1.366 1_455 S
C857 C858 1.414 . S
C857 C860 1.499 . S
C858 H838 0.950 . S
C858 C857 1.414 . S
C858 C859 1.374 . S
C859 H839 0.950 . S
C859 C855 1.385 1_455 S
C859 C858 1.374 . S
C860 C857 1.499 . S
C860 C861 1.373 . S
C860 C862 1.389 . S
C861 H840 0.950 . S
C861 C860 1.373 . S
C861 C877 1.377 . S
C862 C860 1.389 . S
C862 C863 1.524 . S
C862 C876 1.377 . S
C863 C862 1.524 . S
C863 C864 1.397 . S
C863 C868 1.363 1_455 S
C864 H841 0.950 . S
C864 C863 1.397 . S
C864 C865 1.334 . S
C865 H842 0.950 . S
C865 C864 1.334 . S
C865 C866 1.287 . S
C866 C865 1.287 . S
C866 C867 1.524 1_455 S
C866 H885 0.913 1_455 S
C867 H843 0.950 . S
C867 C866 1.524 1_655 S
C867 C868 1.415 . S
C868 H844 0.950 . S
C868 C863 1.363 1_655 S
C868 C867 1.415 . S
C869 H845 0.951 . S
C869 C870 1.366 . S
C869 C871 1.388 . S
C870 C869 1.366 . S
C870 C874 1.385 . S
C871 H846 0.951 . S
C871 C869 1.388 . S
C871 C872 1.366 . S
C872 C871 1.366 . S
C872 C873 1.414 . S
C872 C875 1.499 . S
C873 H847 0.950 . S
C873 C872 1.414 . S
C873 C874 1.374 . S
C874 H848 0.950 . S
C874 C870 1.385 . S
C874 C873 1.374 . S
C875 C872 1.499 . S
C875 C876 1.373 . S
C875 C877 1.389 . S
C876 H849 0.950 . S
C876 C862 1.377 . S
C876 C875 1.373 . S
C877 C861 1.377 . S
C877 C875 1.389 . S
C877 C878 1.524 . S
C878 C877 1.524 . S
C878 C879 1.397 . S
C878 C883 1.363 . S
C879 H850 0.950 . S
C879 C878 1.397 . S
C879 C880 1.334 . S
C880 H851 0.950 . S
C880 C879 1.334 . S
C880 C881 1.287 . S
C881 C880 1.287 . S
C881 C882 1.524 . S
C881 H884 0.999 . S
C882 H852 0.950 . S
C882 C881 1.524 . S
C882 C883 1.415 . S
C883 H853 0.950 . S
C883 C878 1.363 . S
C883 C882 1.415 . S
H884 C881 0.999 . S
H885 C866 0.913 1_655 S
H886 C904 0.951 . S
H887 C906 0.951 . S
H888 C908 0.950 . S
H889 C909 0.950 . S
H890 C911 0.950 . S
H891 C914 0.950 . S
H892 C915 0.950 . S
H893 C917 0.950 . S
H894 C918 0.950 . S
H895 C919 0.951 . S
H896 C921 0.951 . S
H897 C923 0.950 . S
H898 C924 0.950 . S
H899 C926 0.950 . S
H900 C929 0.950 1_655 S
H901 C930 0.950 . S
H902 C932 0.950 . S
H903 C933 0.950 . S
C904 H886 0.951 . S
C904 C905 1.366 . S
C904 C906 1.388 . S
C905 C904 1.366 . S
C905 C909 1.385 . S
C906 H887 0.951 . S
C906 C904 1.388 . S
C906 C907 1.366 . S
C907 C906 1.366 . S
C907 C908 1.414 . S
C907 C910 1.499 . S
C908 H888 0.950 . S
C908 C907 1.414 . S
C908 C909 1.374 . S
C909 H889 0.950 . S
C909 C905 1.385 . S
C909 C908 1.374 . S
C910 C907 1.499 . S
C910 C911 1.373 . S
C910 C912 1.389 . S
C911 H890 0.950 . S
C911 C910 1.373 . S
C911 C927 1.377 . S
C912 C910 1.389 . S
C912 C913 1.524 . S
C912 C926 1.377 . S
C913 C912 1.524 . S
C913 C914 1.397 . S
C913 C918 1.363 1_455 S
C914 H891 0.950 . S
C914 C913 1.397 . S
C914 C915 1.334 . S
C915 H892 0.950 . S
C915 C914 1.334 . S
C915 C916 1.287 . S
C916 C915 1.287 . S
C916 C917 1.524 1_455 S
C916 H935 0.913 . S
C917 H893 0.950 . S
C917 C916 1.524 1_655 S
C917 C918 1.415 . S
C918 H894 0.950 . S
C918 C913 1.363 1_655 S
C918 C917 1.415 . S
C919 H895 0.951 . S
C919 C920 1.366 1_455 S
C919 C921 1.388 . S
C920 C919 1.366 1_655 S
C920 C924 1.385 . S
C921 H896 0.951 . S
C921 C919 1.388 . S
C921 C922 1.366 . S
C922 C921 1.366 . S
C922 C923 1.414 1_455 S
C922 C925 1.499 . S
C923 H897 0.950 . S
C923 C922 1.414 1_655 S
C923 C924 1.374 . S
C924 H898 0.950 . S
C924 C920 1.385 . S
C924 C923 1.374 . S
C925 C922 1.499 . S
C925 C926 1.373 . S
C925 C927 1.389 . S
C926 H899 0.950 . S
C926 C912 1.377 . S
C926 C925 1.373 . S
C927 C911 1.377 . S
C927 C925 1.389 . S
C927 C928 1.524 . S
C928 C927 1.524 . S
C928 C929 1.397 . S
C928 C933 1.363 . S
C929 H900 0.950 1_455 S
C929 C928 1.397 . S
C929 C930 1.334 . S
C930 H901 0.950 . S
C930 C929 1.334 . S
C930 C931 1.287 . S
C931 C930 1.287 . S
C931 C932 1.524 . S
C931 H934 0.999 . S
C932 H902 0.950 . S
C932 C931 1.524 . S
C932 C933 1.415 . S
C933 H903 0.950 . S
C933 C928 1.363 . S
C933 C932 1.415 . S
H934 C931 0.999 . S
H935 C916 0.913 . S
C355 C150 1.497 . S
C370 C75 1.497 . S
C405 C243 1.497 . S
C420 C318 1.497 . S
C455 C66 1.496 . S
C470 C159 1.496 . S
C505 C327 1.496 . S
C520 C234 1.496 . S
C555 C324 1.106 . S
C570 C67 1.104 . S
C605 C156 1.108 . S
C620 C235 1.104 . S
C655 C140 1.108 . S
C670 C231 1.111 . S
C705 C308 1.108 . S
C720 C63 1.110 . S
C755 C151 1.108 . S
C770 C240 1.105 . S
C805 C319 1.107 . S
C820 C72 1.103 . S
C855 C315 1.108 . S
C870 C56 1.110 . S
C905 C224 1.108 . S
C920 C147 1.111 . S
