# Generated by pormake.
# Topology vba, (4)-cn, num edge types: 1
# Building blocks:
#     Node 0, Type 0, BuildingBlock: ESEHIV_clean_sbu_0, # of connection points: 4
#     Node 1, Type 0, BuildingBlock: ESEHIV_clean_sbu_0, # of connection points: 4
#     Node 2, Type 0, BuildingBlock: ESEHIV_clean_sbu_0, # of connection points: 4
#     Node 3, Type 0, BuildingBlock: ESEHIV_clean_sbu_0, # of connection points: 4
#     Node 4, Type 0, BuildingBlock: ESEHIV_clean_sbu_0, # of connection points: 4
#     Node 5, Type 0, BuildingBlock: ESEHIV_clean_sbu_0, # of connection points: 4
#     Node 6, Type 0, BuildingBlock: ESEHIV_clean_sbu_0, # of connection points: 4
#     Node 7, Type 0, BuildingBlock: ESEHIV_clean_sbu_0, # of connection points: 4
#     Node 8, Type 0, BuildingBlock: ESEHIV_clean_sbu_0, # of connection points: 4
#     Node 9, Type 0, BuildingBlock: ESEHIV_clean_sbu_0, # of connection points: 4
#     Node 10, Type 0, BuildingBlock: ESEHIV_clean_sbu_0, # of connection points: 4
#     Node 11, Type 0, BuildingBlock: ESEHIV_clean_sbu_0, # of connection points: 4
#     Node 12, Type 0, BuildingBlock: ESEHIV_clean_sbu_0, # of connection points: 4
#     Node 13, Type 0, BuildingBlock: ESEHIV_clean_sbu_0, # of connection points: 4
#     Node 14, Type 0, BuildingBlock: ESEHIV_clean_sbu_0, # of connection points: 4
#     Node 15, Type 0, BuildingBlock: ESEHIV_clean_sbu_0, # of connection points: 4
#     Node 16, Type 0, BuildingBlock: ESEHIV_clean_sbu_0, # of connection points: 4
#     Node 17, Type 0, BuildingBlock: ESEHIV_clean_sbu_0, # of connection points: 4
#     Node 18, Type 0, BuildingBlock: ESEHIV_clean_sbu_0, # of connection points: 4
#     Node 19, Type 0, BuildingBlock: ESEHIV_clean_sbu_0, # of connection points: 4
#     Node 20, Type 0, BuildingBlock: ESEHIV_clean_sbu_0, # of connection points: 4
#     Node 21, Type 0, BuildingBlock: ESEHIV_clean_sbu_0, # of connection points: 4
#     Node 22, Type 0, BuildingBlock: ESEHIV_clean_sbu_0, # of connection points: 4
#     Node 23, Type 0, BuildingBlock: ESEHIV_clean_sbu_0, # of connection points: 4
#     Node 24, Type 0, BuildingBlock: ESEHIV_clean_sbu_0, # of connection points: 4
#     Node 25, Type 0, BuildingBlock: ESEHIV_clean_sbu_0, # of connection points: 4
#     Node 26, Type 0, BuildingBlock: ESEHIV_clean_sbu_0, # of connection points: 4
#     Node 27, Type 0, BuildingBlock: ESEHIV_clean_sbu_0, # of connection points: 4
#     Node 28, Type 0, BuildingBlock: ESEHIV_clean_sbu_0, # of connection points: 4
#     Node 29, Type 0, BuildingBlock: ESEHIV_clean_sbu_0, # of connection points: 4
#     Node 30, Type 0, BuildingBlock: ESEHIV_clean_sbu_0, # of connection points: 4
#     Node 31, Type 0, BuildingBlock: ESEHIV_clean_sbu_0, # of connection points: 4
#     Edge 32, Type (0, 0), BuildingBlock: XUDNAN_clean_linker_2, # of connection points: 2
#     Edge 33, Type (0, 0), BuildingBlock: XUDNAN_clean_linker_2, # of connection points: 2
#     Edge 34, Type (0, 0), BuildingBlock: XUDNAN_clean_linker_2, # of connection points: 2
#     Edge 35, Type (0, 0), BuildingBlock: XUDNAN_clean_linker_2, # of connection points: 2
#     Edge 36, Type (0, 0), BuildingBlock: XUDNAN_clean_linker_2, # of connection points: 2
#     Edge 37, Type (0, 0), BuildingBlock: XUDNAN_clean_linker_2, # of connection points: 2
#     Edge 38, Type (0, 0), BuildingBlock: XUDNAN_clean_linker_2, # of connection points: 2
#     Edge 39, Type (0, 0), BuildingBlock: XUDNAN_clean_linker_2, # of connection points: 2
#     Edge 40, Type (0, 0), BuildingBlock: XUDNAN_clean_linker_2, # of connection points: 2
#     Edge 41, Type (0, 0), BuildingBlock: XUDNAN_clean_linker_2, # of connection points: 2
#     Edge 42, Type (0, 0), BuildingBlock: XUDNAN_clean_linker_2, # of connection points: 2
#     Edge 43, Type (0, 0), BuildingBlock: XUDNAN_clean_linker_2, # of connection points: 2
#     Edge 44, Type (0, 0), BuildingBlock: XUDNAN_clean_linker_2, # of connection points: 2
#     Edge 45, Type (0, 0), BuildingBlock: XUDNAN_clean_linker_2, # of connection points: 2
#     Edge 46, Type (0, 0), BuildingBlock: XUDNAN_clean_linker_2, # of connection points: 2
#     Edge 47, Type (0, 0), BuildingBlock: XUDNAN_clean_linker_2, # of connection points: 2
#     Edge 48, Type (0, 0), BuildingBlock: XUDNAN_clean_linker_2, # of connection points: 2
#     Edge 49, Type (0, 0), BuildingBlock: XUDNAN_clean_linker_2, # of connection points: 2
#     Edge 50, Type (0, 0), BuildingBlock: XUDNAN_clean_linker_2, # of connection points: 2
#     Edge 51, Type (0, 0), BuildingBlock: XUDNAN_clean_linker_2, # of connection points: 2
#     Edge 52, Type (0, 0), BuildingBlock: XUDNAN_clean_linker_2, # of connection points: 2
#     Edge 53, Type (0, 0), BuildingBlock: XUDNAN_clean_linker_2, # of connection points: 2
#     Edge 54, Type (0, 0), BuildingBlock: XUDNAN_clean_linker_2, # of connection points: 2
#     Edge 55, Type (0, 0), BuildingBlock: XUDNAN_clean_linker_2, # of connection points: 2
#     Edge 56, Type (0, 0), BuildingBlock: XUDNAN_clean_linker_2, # of connection points: 2
#     Edge 57, Type (0, 0), BuildingBlock: XUDNAN_clean_linker_2, # of connection points: 2
#     Edge 58, Type (0, 0), BuildingBlock: XUDNAN_clean_linker_2, # of connection points: 2
#     Edge 59, Type (0, 0), BuildingBlock: XUDNAN_clean_linker_2, # of connection points: 2
#     Edge 60, Type (0, 0), BuildingBlock: XUDNAN_clean_linker_2, # of connection points: 2
#     Edge 61, Type (0, 0), BuildingBlock: XUDNAN_clean_linker_2, # of connection points: 2
#     Edge 62, Type (0, 0), BuildingBlock: XUDNAN_clean_linker_2, # of connection points: 2
#     Edge 63, Type (0, 0), BuildingBlock: XUDNAN_clean_linker_2, # of connection points: 2
#     Edge 64, Type (0, 0), BuildingBlock: XUDNAN_clean_linker_2, # of connection points: 2
#     Edge 65, Type (0, 0), BuildingBlock: XUDNAN_clean_linker_2, # of connection points: 2
#     Edge 66, Type (0, 0), BuildingBlock: XUDNAN_clean_linker_2, # of connection points: 2
#     Edge 67, Type (0, 0), BuildingBlock: XUDNAN_clean_linker_2, # of connection points: 2
#     Edge 68, Type (0, 0), BuildingBlock: XUDNAN_clean_linker_2, # of connection points: 2
#     Edge 69, Type (0, 0), BuildingBlock: XUDNAN_clean_linker_2, # of connection points: 2
#     Edge 70, Type (0, 0), BuildingBlock: XUDNAN_clean_linker_2, # of connection points: 2
#     Edge 71, Type (0, 0), BuildingBlock: XUDNAN_clean_linker_2, # of connection points: 2
#     Edge 72, Type (0, 0), BuildingBlock: XUDNAN_clean_linker_2, # of connection points: 2
#     Edge 73, Type (0, 0), BuildingBlock: XUDNAN_clean_linker_2, # of connection points: 2
#     Edge 74, Type (0, 0), BuildingBlock: XUDNAN_clean_linker_2, # of connection points: 2
#     Edge 75, Type (0, 0), BuildingBlock: XUDNAN_clean_linker_2, # of connection points: 2
#     Edge 76, Type (0, 0), BuildingBlock: XUDNAN_clean_linker_2, # of connection points: 2
#     Edge 77, Type (0, 0), BuildingBlock: XUDNAN_clean_linker_2, # of connection points: 2
#     Edge 78, Type (0, 0), BuildingBlock: XUDNAN_clean_linker_2, # of connection points: 2
#     Edge 79, Type (0, 0), BuildingBlock: XUDNAN_clean_linker_2, # of connection points: 2
#     Edge 80, Type (0, 0), BuildingBlock: XUDNAN_clean_linker_2, # of connection points: 2
#     Edge 81, Type (0, 0), BuildingBlock: XUDNAN_clean_linker_2, # of connection points: 2
#     Edge 82, Type (0, 0), BuildingBlock: XUDNAN_clean_linker_2, # of connection points: 2
#     Edge 83, Type (0, 0), BuildingBlock: XUDNAN_clean_linker_2, # of connection points: 2
#     Edge 84, Type (0, 0), BuildingBlock: XUDNAN_clean_linker_2, # of connection points: 2
#     Edge 85, Type (0, 0), BuildingBlock: XUDNAN_clean_linker_2, # of connection points: 2
#     Edge 86, Type (0, 0), BuildingBlock: XUDNAN_clean_linker_2, # of connection points: 2
#     Edge 87, Type (0, 0), BuildingBlock: XUDNAN_clean_linker_2, # of connection points: 2
#     Edge 88, Type (0, 0), BuildingBlock: XUDNAN_clean_linker_2, # of connection points: 2
#     Edge 89, Type (0, 0), BuildingBlock: XUDNAN_clean_linker_2, # of connection points: 2
#     Edge 90, Type (0, 0), BuildingBlock: XUDNAN_clean_linker_2, # of connection points: 2
#     Edge 91, Type (0, 0), BuildingBlock: XUDNAN_clean_linker_2, # of connection points: 2
#     Edge 92, Type (0, 0), BuildingBlock: XUDNAN_clean_linker_2, # of connection points: 2
#     Edge 93, Type (0, 0), BuildingBlock: XUDNAN_clean_linker_2, # of connection points: 2
#     Edge 94, Type (0, 0), BuildingBlock: XUDNAN_clean_linker_2, # of connection points: 2
#     Edge 95, Type (0, 0), BuildingBlock: XUDNAN_clean_linker_2, # of connection points: 2
# Relax obj value: 0.005
# Max RMSD: 0.021
# Mean RMSD: 0.021
data_MOF--net-vba--node1-ESEHIV_clean_sbu_0--edge1-XUDNAN_clean_linker_2
_symmetry_space_group_name_H-M    P1
_symmetry_Int_Tables_number       1
_symmetry_cell_setting            triclinic
loop_
_symmetry_equiv_pos_as_xyz
'x, y, z'
_cell_length_a     25.080127
_cell_length_b     115.45031
_cell_length_c     53.365571
_cell_angle_alpha  90.130013
_cell_angle_beta   90.015735
_cell_angle_gamma 89.969607
loop_
_atom_site_label
_atom_site_type_symbol
_atom_site_fract_x
_atom_site_fract_y
_atom_site_fract_z
_atom_type_partial_charge
Cu0 Cu 0.26577 0.07925 0.02542 0.0
N1 N 0.20644 0.08835 0.01576 0.0
N2 N 0.16872 0.10586 1.00991 0.0
C3 C 0.20243 0.09941 0.0239 0.0
C4 C 0.15005 0.0985 0.99227 0.0
C5 C 0.17323 0.08771 0.99593 0.0
O6 O 0.26894 0.08148 0.062 0.0
C7 C 0.31051 0.08122 0.98017 0.0
O8 O 0.26907 0.07443 0.97711 0.0
H9 H 0.22772 0.10295 0.03848 0.0
H10 H 0.16909 0.08025 0.98381 0.0
N11 N 0.2675 0.06287 0.02069 0.0
N12 N 0.30705 0.04532 0.01797 0.0
C13 C 0.31243 0.05662 0.02448 0.0
C14 C 0.23193 0.05524 0.01147 0.0
C15 C 0.2562 0.04444 1.00973 0.0
C16 C 0.22821 0.07682 0.07234 0.0
O17 O 0.19338 0.07151 0.05798 0.0
H18 H 0.34916 0.06047 0.0311 0.0
H19 H 0.19174 0.0574 1.0058 0.0
O20 O 0.3208 0.08495 1.00229 0.0
H21 H 0.12329 0.10086 0.9772 0.0
H22 H 0.23773 0.03658 1.00287 0.0
Cu23 Cu 0.01423 0.21562 0.99638 0.0
N24 N 0.07862 0.2073 0.99191 0.0
N25 N 0.12126 0.19011 0.99345 0.0
C26 C 0.08522 0.19721 1.00436 0.0
C27 C 0.13888 0.19602 0.97329 0.0
C28 C 0.11269 0.20661 0.9724 0.0
O29 O 1.00153 0.21288 0.03212 0.0
C30 C 0.98309 0.21194 0.94912 0.0
O31 O 0.02097 0.21975 0.94775 0.0
H32 H 0.0596 0.19454 0.01959 0.0
H33 H 0.11523 0.21284 0.95736 0.0
N34 N 1.00972 0.23195 0.99072 0.0
N35 N 0.9694 0.24937 0.98625 0.0
C36 C 0.9634 0.23797 0.99183 0.0
C37 C 0.04675 0.23983 0.98422 0.0
C38 C 0.02214 0.25053 0.98153 0.0
C39 C 0.02888 0.21957 0.04625 0.0
O40 O 0.05401 0.22833 0.03601 0.0
H41 H 0.92589 0.23394 0.99668 0.0
H42 H 0.08851 0.23791 0.98131 0.0
O43 O 0.96835 0.20858 0.97085 0.0
H44 H 0.16661 0.19269 0.9595 0.0
H45 H 0.04167 0.25846 0.97595 0.0
Cu46 Cu 0.25211 0.21844 0.25328 0.0
N47 N 0.18743 0.21144 0.26307 0.0
N48 N 0.12632 0.19715 0.26268 0.0
C49 C 0.17322 0.20105 0.25353 0.0
C50 C 0.11033 0.20547 0.27891 0.0
C51 C 0.14798 0.2143 0.27904 0.0
O52 O 0.25187 0.21525 0.21733 0.0
C53 C 0.30216 0.21535 0.29673 0.0
O54 O 0.25925 0.22136 0.30227 0.0
H55 H 0.19775 0.19636 0.24028 0.0
H56 H 0.14666 0.22217 0.29004 0.0
N57 N 0.26223 0.23459 0.25801 0.0
N58 N 0.31084 0.25095 0.2617 0.0
C59 C 0.31024 0.23967 0.25467 0.0
C60 C 0.23089 0.24296 0.26762 0.0
C61 C 0.26067 0.25305 0.26985 0.0
C62 C 0.2168 0.2213 0.20596 0.0
O63 O 0.19238 0.22954 0.21851 0.0
H64 H 0.34478 0.23492 0.24816 0.0
H65 H 0.18985 0.24176 0.27325 0.0
O66 O 0.30811 0.2118 0.27423 0.0
H67 H 0.0738 0.20528 0.28969 0.0
H68 H 0.24639 0.26123 0.27713 0.0
Cu69 Cu 0.92698 0.08729 0.25119 0.0
N70 N 0.91786 0.1036 0.25149 0.0
N71 N 0.93743 0.12266 0.25141 0.0
C72 C 0.94897 0.11206 0.24174 0.0
C73 C 0.89652 0.1208 0.26732 0.0
C74 C 0.88472 0.10913 0.26733 0.0
O75 O 0.98831 0.08255 0.23028 0.0
C76 C 0.9239 0.07255 0.29418 0.0
O77 O 0.91949 0.06409 0.2778 0.0
H78 H 0.98128 0.11045 0.22884 0.0
H79 H 0.85609 0.10484 0.2793 0.0
N80 N 0.86634 0.07941 0.23843 0.0
N81 N 0.79707 0.06699 0.23709 0.0
C82 C 0.82549 0.07455 0.25132 0.0
C83 C 0.86271 0.07492 0.2152 0.0
C84 C 0.82031 0.06731 0.2143 0.0
C85 C 0.03404 0.08735 0.22836 0.0
O86 O 0.04666 0.09605 0.24306 0.0
H87 H 0.81928 0.07583 0.2712 0.0
H88 H 0.89113 0.07649 0.20035 0.0
O89 O 0.93296 0.08278 0.28638 0.0
H90 H 0.87753 0.12732 0.27886 0.0
H91 H 0.80863 0.06212 0.19831 0.0
Cu92 Cu 0.67827 0.95643 1.00901 0.0
N93 N 0.66631 0.94023 1.00577 0.0
N94 N 0.67621 0.92079 1.00582 0.0
C95 C 0.70069 0.93121 1.00859 0.0
C96 C 0.62489 0.92346 1.00062 0.0
C97 C 0.619 0.93532 1.00066 0.0
O98 O 0.73834 0.9611 0.98736 0.0
C99 C 0.71251 0.95403 0.06088 0.0
O100 O 0.74116 0.94515 0.05347 0.0
H101 H 0.74248 0.93225 0.01307 0.0
H102 H 0.58242 0.94005 0.99745 0.0
N103 N 0.61757 0.96522 0.99929 0.0
N104 N 0.55469 0.97929 0.99908 0.0
C105 C 0.59597 0.97434 0.01171 0.0
C106 C 0.58909 0.96436 0.97802 0.0
C107 C 0.55048 0.97292 0.97786 0.0
C108 C 0.74679 0.95573 0.96675 0.0
O109 O 0.71601 0.94696 0.96076 0.0
H110 H 0.61079 0.97732 0.02963 0.0
H111 H 0.59659 0.95808 0.96337 0.0
O112 O 0.6876 0.96006 0.04465 0.0
H113 H 0.59332 0.91729 0.99704 0.0
H114 H 0.52257 0.9745 0.96279 0.0
Cu115 Cu 1.00373 0.8277 1.00555 0.0
N116 N 0.93831 0.83417 0.01656 0.0
N117 N 0.87021 0.8467 0.02198 0.0
C118 C 0.91725 0.84461 1.01023 0.0
C119 C 0.862 0.83723 0.03633 0.0
C120 C 0.9037 0.8296 0.03299 0.0
O121 O 1.00877 0.83083 0.96939 0.0
C122 C 0.05701 0.8294 0.05002 0.0
O123 O 0.01706 0.82246 0.05526 0.0
H124 H 0.93578 0.85047 0.99705 0.0
H125 H 0.90864 0.82132 0.04215 0.0
N126 N 1.0097 0.81139 1.00901 0.0
N127 N 0.05115 0.79418 0.01336 0.0
C128 C 0.05684 0.80572 1.00958 0.0
C129 C 0.97253 0.80314 0.01247 0.0
C130 C 0.99792 0.79255 0.01519 0.0
C131 C 0.96982 0.82674 0.95665 0.0
O132 O 0.93197 0.82121 0.96873 0.0
H133 H 0.09477 0.8101 1.00787 0.0
H134 H 0.93003 0.8047 0.01309 0.0
O135 O 0.05981 0.83369 0.02795 0.0
H136 H 0.82846 0.83591 0.04875 0.0
H137 H 0.97849 0.78429 0.01807 0.0
Cu138 Cu 0.75667 0.83072 0.7536 0.0
N139 N 0.75066 0.84695 0.75755 0.0
N140 N 0.77357 0.86576 0.76051 0.0
C141 C 0.79017 0.85463 0.76246 0.0
C142 C 0.7213 0.865 0.75454 0.0
C143 C 0.70746 0.85347 0.75266 0.0
O144 O 0.80953 0.82558 0.77838 0.0
C145 C 0.79065 0.83488 0.70281 0.0
O146 O 0.8166 0.84377 0.71215 0.0
H147 H 0.83102 0.85217 0.76589 0.0
H148 H 0.66905 0.85007 0.7471 0.0
N149 N 0.6917 0.82318 0.76146 0.0
N150 N 0.62439 0.81027 0.76231 0.0
C151 C 0.67404 0.81265 0.75364 0.0
C152 C 0.65212 0.82745 0.77575 0.0
C153 C 0.61071 0.8196 0.77618 0.0
C154 C 0.85877 0.82832 0.77913 0.0
O155 O 0.88056 0.83331 0.75956 0.0
H156 H 0.69647 0.80701 0.74131 0.0
H157 H 0.65307 0.83578 0.78505 0.0
O158 O 0.76875 0.82768 0.71775 0.0
H159 H 0.69497 0.87225 0.75112 0.0
H160 H 0.57325 0.82068 0.78599 0.0
Cu161 Cu 0.08241 0.96207 0.79134 0.0
N162 N 0.07529 0.94582 0.79005 0.0
N163 N 0.03214 0.92896 0.78397 0.0
C164 C 0.0296 0.94065 0.78279 0.0
C165 C 0.08187 0.92668 0.79246 0.0
C166 C 0.10842 0.9371 0.79615 0.0
O167 O 0.02559 0.96742 0.81431 0.0
C168 C 0.08735 0.97639 0.74661 0.0
O169 O 0.09637 0.98528 0.76144 0.0
H170 H 0.99463 0.94551 0.77729 0.0
H171 H 0.14871 0.93821 0.80297 0.0
N172 N 0.14912 0.9677 0.803 0.0
N173 N 0.22019 0.97974 0.80365 0.0
C174 C 0.18601 0.97345 0.78929 0.0
C175 C 0.16152 0.97014 0.82696 0.0
C176 C 0.2051 0.97745 0.82744 0.0
C177 C 0.01803 0.96133 0.83401 0.0
O178 O 0.04924 0.95241 0.83813 0.0
H179 H 0.18558 0.97358 0.76906 0.0
H180 H 0.13765 0.96765 0.84294 0.0
O181 O 0.07529 0.96664 0.75619 0.0
H182 H 0.09819 0.91813 0.79559 0.0
H183 H 0.22129 0.98152 0.84406 0.0
Cu184 Cu 0.32321 0.5867 0.50794 0.0
N185 N 0.33193 0.60278 0.51143 0.0
N186 N 0.30841 0.62146 0.5152 0.0
C187 C 0.29386 0.61031 0.51886 0.0
C188 C 0.35783 0.62091 0.50522 0.0
C189 C 0.37217 0.60939 0.5029 0.0
O190 O 0.26301 0.58238 0.52948 0.0
C191 C 0.28568 0.59054 0.45797 0.0
O192 O 0.26004 0.5994 0.46766 0.0
H193 H 0.25488 0.60761 0.5253 0.0
H194 H 0.40831 0.60605 0.4945 0.0
N195 N 0.38583 0.57849 0.51683 0.0
N196 N 0.45024 0.56485 0.51742 0.0
C197 C 0.40253 0.56815 0.5077 0.0
C198 C 0.42442 0.58188 0.53275 0.0
C199 C 0.46384 0.57352 0.53324 0.0
C200 C 0.27025 0.58261 0.55314 0.0
O201 O 0.31809 0.58499 0.56172 0.0
H202 H 0.38 0.56318 0.49414 0.0
H203 H 0.42424 0.58996 0.54305 0.0
O204 O 0.31096 0.58368 0.47244 0.0
H205 H 0.38148 0.62827 0.49947 0.0
H206 H 0.50041 0.57398 0.54396 0.0
Cu207 Cu 0.99493 0.71807 0.52579 0.0
N208 N 0.05613 0.7101 0.51469 0.0
N209 N 0.11377 0.69522 0.51275 0.0
C210 C 0.06503 0.69888 0.52019 0.0
C211 C 0.13631 0.70458 0.50186 0.0
C212 C 0.1008 0.71376 0.50321 0.0
O213 O 1.00053 0.71708 0.56258 0.0
C214 C 0.93989 0.71145 0.48411 0.0
O215 O 0.98782 0.71345 0.47529 0.0
H216 H 0.03619 0.6936 0.52996 0.0
H217 H 0.10782 0.72255 0.49706 0.0
N218 N 0.9897 0.73378 0.51704 0.0
N219 N 0.93955 0.7497 0.51199 0.0
C220 C 0.9517 0.74068 0.52701 0.0
C221 C 1.00249 0.73874 0.49501 0.0
C222 C 0.97147 0.74853 0.49181 0.0
C223 C 0.04305 0.722 0.57053 0.0
O224 O 0.07204 0.72774 0.55423 0.0
H225 H 0.92892 0.73837 0.54348 0.0
H226 H 0.02812 0.73487 0.48102 0.0
O227 O 0.9329 0.71171 0.50786 0.0
H228 H 0.17634 0.70494 0.49435 0.0
H229 H 0.96996 0.75393 0.47526 0.0
Cu230 Cu 0.32976 0.71039 0.76341 0.0
N231 N 0.3387 0.69422 0.75925 0.0
N232 N 0.31535 0.6754 0.75652 0.0
C233 C 0.30009 0.68656 0.75293 0.0
C234 C 0.36566 0.67612 0.76541 0.0
C235 C 0.37972 0.68767 0.76721 0.0
O236 O 0.26633 0.71459 0.7436 0.0
C237 C 0.33014 0.72209 0.81133 0.0
O238 O 0.33275 0.7317 0.79835 0.0
H239 H 0.2604 0.68916 0.74732 0.0
H240 H 0.41622 0.69104 0.77516 0.0
N241 N 0.38977 0.7193 0.75296 0.0
N242 N 0.44277 0.73493 0.74725 0.0
C243 C 0.39228 0.73099 0.7509 0.0
C244 C 0.44037 0.7157 0.74988 0.0
C245 C 0.47287 0.72522 0.74635 0.0
C246 C 0.27205 0.71523 0.71986 0.0
O247 O 0.32002 0.71382 0.71043 0.0
H248 H 0.35778 0.7365 0.7532 0.0
H249 H 0.45329 0.70679 0.75102 0.0
O250 O 0.32337 0.7125 0.79985 0.0
H251 H 0.39025 0.66885 0.77087 0.0
H252 H 0.51564 0.72494 0.74389 0.0
Cu253 Cu 0.01259 0.5773 0.75069 0.0
N254 N 0.07813 0.58448 0.75902 0.0
N255 N 0.13515 0.59958 0.75957 0.0
C256 C 0.0854 0.59582 0.75405 0.0
C257 C 0.1603 0.59011 0.7687 0.0
C258 C 0.12515 0.5808 0.76823 0.0
O259 O 1.01115 0.57937 0.71419 0.0
C260 C 0.97347 0.58364 0.79543 0.0
O261 O 0.01621 0.57749 0.80051 0.0
H262 H 0.05419 0.6012 0.7463 0.0
H263 H 0.13373 0.57198 0.77371 0.0
N264 N 1.00107 0.56131 0.75705 0.0
N265 N 0.95328 0.54475 0.75923 0.0
C266 C 0.95487 0.55589 0.7512 0.0
C267 C 0.03008 0.55332 0.76933 0.0
C268 C 1.00083 0.54314 0.77068 0.0
C269 C 0.05023 0.57387 0.70437 0.0
O270 O 0.07847 0.56705 0.71893 0.0
H271 H 0.92225 0.56025 0.74189 0.0
H272 H 0.06919 0.55484 0.77721 0.0
O273 O 0.96109 0.58515 0.7724 0.0
H274 H 0.20156 0.58982 0.77461 0.0
H275 H 0.01377 0.53518 0.77947 0.0
Cu276 Cu 0.74404 0.46555 0.49279 0.0
N277 N 0.80657 0.45752 0.50265 0.0
N278 N 0.8628 0.44263 0.50994 0.0
C279 C 0.81353 0.44587 0.50209 0.0
C280 C 0.8874 0.45274 0.51568 0.0
C281 C 0.85297 0.46182 0.51111 0.0
O282 O 0.7456 0.46532 0.45581 0.0
C283 C 0.69529 0.45816 0.53512 0.0
O284 O 0.74314 0.46112 0.54276 0.0
H285 H 0.78314 0.43992 0.49564 0.0
H286 H 0.86139 0.47093 0.51366 0.0
N287 N 0.73827 0.48133 0.50227 0.0
N288 N 0.69715 0.49861 0.50637 0.0
C289 C 0.6982 0.48825 0.49436 0.0
C290 C 0.7636 0.48749 0.52009 0.0
C291 C 0.73859 0.49814 0.52256 0.0
C292 C 0.78128 0.47209 0.44691 0.0
O293 O 0.80998 0.47822 0.4627 0.0
H294 H 0.66866 0.48543 0.4809 0.0
H295 H 0.79638 0.48432 0.5313 0.0
O296 O 0.68469 0.45874 0.51169 0.0
H297 H 0.92751 0.4536 0.52288 0.0
H298 H 0.74964 0.50489 0.53565 0.0
Cu299 Cu 0.04882 0.33127 0.50461 0.0
N300 N 0.99496 0.34196 0.51431 0.0
N301 N 0.95856 0.35975 0.51839 0.0
C302 C 1.00205 0.35349 0.51176 0.0
C303 C 0.9222 0.35172 0.52533 0.0
C304 C 0.94471 0.34077 0.52281 0.0
O305 O 0.04306 0.33083 0.46775 0.0
C306 C 0.10429 0.33723 0.54588 0.0
O307 O 0.05549 0.33549 0.55393 0.0
H308 H 0.03858 0.35717 0.50452 0.0
H309 H 0.92559 0.33257 0.52666 0.0
N310 N 0.04731 0.31563 0.51487 0.0
N311 N 0.08862 0.29851 0.52104 0.0
C312 C 0.08776 0.30857 0.5081 0.0
C313 C 0.02074 0.30979 0.53276 0.0
C314 C 0.04587 0.29918 0.53642 0.0
C315 C 0.99856 0.32628 0.46123 0.0
O316 O 0.96742 0.32235 0.47909 0.0
H317 H 0.11787 0.31116 0.49473 0.0
H318 H 0.98796 0.31328 0.54357 0.0
O319 O 0.11345 0.33642 0.52232 0.0
H320 H 0.8823 0.35359 0.53191 0.0
H321 H 0.03556 0.29284 0.55052 0.0
Cu322 Cu 0.71751 0.33158 0.26901 0.0
N323 N 0.72329 0.34733 0.27756 0.0
N324 N 0.76299 0.36479 0.2787 0.0
C325 C 0.75734 0.35467 0.26613 0.0
C326 C 0.7309 0.36376 0.29892 0.0
C327 C 0.70671 0.35299 0.29822 0.0
O328 O 0.77771 0.32471 0.28728 0.0
C329 C 0.71094 0.32354 0.21699 0.0
O330 O 0.70335 0.31298 0.2253 0.0
H331 H 0.78045 0.35226 0.2498 0.0
H332 H 0.68137 0.3493 0.31253 0.0
N333 N 0.65093 0.32488 0.2779 0.0
N334 N 0.58243 0.3122 0.279 0.0
C335 C 0.63518 0.31377 0.27431 0.0
C336 C 0.60666 0.33049 0.28539 0.0
C337 C 0.5647 0.32274 0.2862 0.0
C338 C 0.77243 0.3238 0.311 0.0
O339 O 0.72511 0.32566 0.32079 0.0
H340 H 0.66175 0.30704 0.26776 0.0
H341 H 0.60431 0.33971 0.28881 0.0
O342 O 0.72189 0.33165 0.23239 0.0
H343 H 0.72641 0.37016 0.3136 0.0
H344 H 0.52368 0.3249 0.29043 0.0
Cu345 Cu 0.05617 0.46234 0.25858 0.0
N346 N 0.05537 0.44665 0.26865 0.0
N347 N 0.02003 0.42886 0.27301 0.0
C348 C 0.02849 0.43791 0.25738 0.0
C349 C 0.04388 0.43191 0.29472 0.0
C350 C 0.06525 0.44285 0.29202 0.0
O351 O 0.99692 0.46974 0.27711 0.0
C352 C 0.01785 0.46 0.20638 0.0
O353 O 0.97105 0.45674 0.21485 0.0
H354 H 1.01022 0.43871 0.23912 0.0
H355 H 0.08212 0.44808 0.30686 0.0
N356 N 0.12084 0.46987 0.26766 0.0
N357 N 0.18755 0.48305 0.26866 0.0
C358 C 0.13776 0.48046 0.26017 0.0
C359 C 0.16145 0.46558 0.28127 0.0
C360 C 0.20219 0.47362 0.28199 0.0
C361 C 0.95555 0.46406 0.28393 0.0
O362 O 0.9471 0.45374 0.27441 0.0
H363 H 0.11395 0.4861 0.24848 0.0
H364 H 0.16222 0.45705 0.28956 0.0
O365 O 0.05421 0.46298 0.22181 0.0
H366 H 0.04311 0.42693 0.31187 0.0
H367 H 0.24039 0.47239 0.29102 0.0
Cu368 Cu 0.78188 0.07774 0.52029 0.0
N369 N 0.78704 0.09397 0.52337 0.0
N370 N 0.7635 0.11275 0.524 0.0
C371 C 0.7464 0.10166 0.52199 0.0
C372 C 0.81688 0.11193 0.52694 0.0
C373 C 0.83119 0.10042 0.52652 0.0
O374 O 0.71958 0.07342 0.54055 0.0
C375 C 0.81653 0.0781 0.47126 0.0
O376 O 0.85226 0.0847 0.48221 0.0
H377 H 0.70534 0.09916 0.51886 0.0
H378 H 0.87127 0.09704 0.52779 0.0
N379 N 0.84259 0.06997 0.53293 0.0
N380 N 0.90239 0.05594 0.54092 0.0
C381 C 0.85864 0.05902 0.5276 0.0
C382 C 0.87775 0.07391 0.54998 0.0
C383 C 0.9144 0.06534 0.55492 0.0
C384 C 0.72528 0.0753 0.56398 0.0
O385 O 0.77096 0.07942 0.57202 0.0
H386 H 0.83766 0.05333 0.51483 0.0
H387 H 0.87617 0.08234 0.55879 0.0
O388 O 0.77885 0.0739 0.48454 0.0
H389 H 0.84399 0.11915 0.52916 0.0
H390 H 0.94724 0.06597 0.56801 0.0
Cu391 Cu 0.45765 0.20988 0.512 0.0
N392 N 0.46365 0.19417 0.52048 0.0
N393 N 0.50863 0.17743 0.52427 0.0
C394 C 0.50532 0.18778 0.51258 0.0
C395 C 0.46643 0.17724 0.54003 0.0
C396 C 0.43898 0.18763 0.5378 0.0
O397 O 0.51564 0.21703 0.53074 0.0
C398 C 0.45792 0.21873 0.46172 0.0
O399 O 0.44382 0.22864 0.47185 0.0
H400 H 0.53409 0.19099 0.4992 0.0
H401 H 0.40555 0.19046 0.54906 0.0
N402 N 0.39093 0.21681 0.51961 0.0
N403 N 0.32724 0.23056 0.52309 0.0
C404 C 0.38025 0.22828 0.52097 0.0
C405 C 0.3431 0.2116 0.52118 0.0
C406 C 0.30401 0.22 0.5234 0.0
C407 C 0.50928 0.21806 0.55432 0.0
O408 O 0.46209 0.21587 0.56388 0.0
H409 H 0.411 0.23481 0.51965 0.0
H410 H 0.33681 0.20236 0.51968 0.0
O411 O 0.46828 0.21017 0.47586 0.0
H412 H 0.45787 0.17043 0.55333 0.0
H413 H 0.26155 0.21838 0.52396 0.0
Cu414 Cu 0.78644 0.21335 0.74672 0.0
N415 N 0.72688 0.20524 0.7593 0.0
N416 N 0.68173 0.1887 0.76565 0.0
C417 C 0.71491 0.1946 0.7504 0.0
C418 C 0.6718 0.19596 0.78495 0.0
C419 C 0.6995 0.20619 0.78094 0.0
O420 O 0.77763 0.21289 0.71033 0.0
C421 C 0.84397 0.2067 0.78592 0.0
O422 O 0.80852 0.21386 0.79523 0.0
H423 H 0.73399 0.19088 0.73407 0.0
H424 H 0.70246 0.2134 0.79383 0.0
N425 N 0.79627 0.2291 0.75561 0.0
N426 N 0.84064 0.24599 0.75928 0.0
C427 C 0.84133 0.23501 0.75027 0.0
C428 C 0.76562 0.23659 0.76852 0.0
C429 C 0.79287 0.24699 0.77085 0.0
C430 C 0.73501 0.21815 0.70385 0.0
O431 O 0.70664 0.22319 0.72148 0.0
H432 H 0.87459 0.23115 0.7404 0.0
H433 H 0.72653 0.23461 0.77593 0.0
O434 O 0.84549 0.20506 0.76226 0.0
H435 H 0.64793 0.19386 0.80122 0.0
H436 H 0.77832 0.25469 0.78019 0.0
Cu437 Cu 0.50101 0.07883 0.77004 0.0
N438 N 0.56074 0.08844 0.77599 0.0
N439 N 0.60356 0.10553 0.77531 0.0
C440 C 0.56324 0.09913 0.76586 0.0
C441 C 0.62799 0.09857 0.79205 0.0
C442 C 0.60174 0.08799 0.79231 0.0
O443 O 0.49559 0.07865 0.73333 0.0
C444 C 0.4588 0.08614 0.81362 0.0
O445 O 0.50543 0.08195 0.82003 0.0
H446 H 0.53397 0.10237 0.75271 0.0
H447 H 0.61041 0.08073 0.80443 0.0
N448 N 0.50236 0.06312 0.78016 0.0
N449 N 0.46798 0.04524 0.78517 0.0
C450 C 0.46443 0.05549 0.77299 0.0
C451 C 0.5313 0.05749 0.79756 0.0
C452 C 0.51019 0.04648 0.80069 0.0
C453 C 0.53687 0.07376 0.72401 0.0
O454 O 0.5718 0.06933 0.73966 0.0
H455 H 0.43303 0.05768 0.75992 0.0
H456 H 0.56403 0.06124 0.80797 0.0
O457 O 0.44463 0.08571 0.79061 0.0
H458 H 0.66178 0.10101 0.80352 0.0
H459 H 0.52443 0.03998 0.81364 0.0
Cu460 Cu 0.21634 0.96025 0.52171 0.0
N461 N 0.21262 0.94396 0.51937 0.0
N462 N 0.24338 0.92562 0.51859 0.0
C463 C 0.25462 0.93691 0.52338 0.0
C464 C 0.19162 0.92567 0.5114 0.0
C465 C 0.17288 0.93696 0.51185 0.0
O466 O 0.27352 0.96485 0.49854 0.0
C467 C 0.19271 0.96026 0.57214 0.0
O468 O 0.15752 0.95284 0.56347 0.0
H469 H 0.29293 0.94016 0.52941 0.0
H470 H 0.13348 0.93985 0.50652 0.0
N471 N 0.15327 0.96822 0.51306 0.0
N472 N 0.09219 0.98247 0.51492 0.0
C473 C 0.13763 0.97805 0.52465 0.0
C474 C 0.11636 0.96633 0.49517 0.0
C475 C 0.07874 0.97512 0.49624 0.0
C476 C 0.26623 0.96169 0.47584 0.0
O477 O 0.22185 0.95622 0.47029 0.0
H478 H 0.15999 0.982 0.53977 0.0
H479 H 0.11672 0.95912 0.48222 0.0
O480 O 0.22706 0.96443 0.55696 0.0
H481 H 0.16898 0.91817 0.50552 0.0
H482 H 0.04389 0.97594 0.48441 0.0
Cu483 Cu 0.55892 0.83063 0.4951 0.0
N484 N 0.49461 0.83701 0.50723 0.0
N485 N 0.43781 0.85157 0.51576 0.0
C486 C 0.48717 0.84857 0.50793 0.0
C487 C 0.41288 0.84139 0.52012 0.0
C488 C 0.44809 0.83241 0.5149 0.0
O489 O 0.55824 0.83441 0.4589 0.0
C490 C 0.60525 0.83394 0.54043 0.0
O491 O 0.56101 0.82826 0.5452 0.0
H492 H 0.51743 0.85465 0.50202 0.0
H493 H 0.44004 0.82323 0.5162 0.0
N494 N 0.56998 0.81443 0.49801 0.0
N495 N 0.62068 0.79853 0.50288 0.0
C496 C 0.61588 0.80999 0.50718 0.0
C497 C 0.54482 0.80532 0.48741 0.0
C498 C 0.57614 0.79551 0.49033 0.0
C499 C 0.51597 0.83093 0.44765 0.0
O500 O 0.47999 0.82542 0.46091 0.0
H501 H 0.64722 0.81519 0.51538 0.0
H502 H 0.50771 0.80579 0.4772 0.0
O503 O 0.61408 0.83697 0.5177 0.0
H504 H 0.37229 0.84047 0.52669 0.0
H505 H 0.56743 0.78691 0.48333 0.0
Cu506 Cu 0.23407 0.83821 0.26335 0.0
N507 N 0.21475 0.85349 0.27231 0.0
N508 N 0.21582 0.87294 0.27516 0.0
C509 C 0.23898 0.86343 0.26504 0.0
C510 C 0.17534 0.86881 0.28925 0.0
C511 C 0.17493 0.85686 0.28754 0.0
O512 O 0.29923 0.83475 0.28269 0.0
C513 C 0.23758 0.82964 0.21217 0.0
O514 O 0.23721 0.81919 0.22186 0.0
H515 H 0.27228 0.8637 0.25217 0.0
H516 H 0.14759 0.85103 0.29681 0.0
N517 N 0.18238 0.82706 0.27378 0.0
N518 N 0.12613 0.81177 0.27533 0.0
C519 C 0.14788 0.82021 0.26076 0.0
C520 C 0.18115 0.82289 0.2973 0.0
C521 C 0.14698 0.81356 0.29831 0.0
C522 C 0.34128 0.84097 0.28358 0.0
O523 O 0.34659 0.84956 0.26769 0.0
H524 H 0.14089 0.82098 0.24083 0.0
H525 H 0.20558 0.8261 0.31251 0.0
O526 O 0.24067 0.83839 0.22669 0.0
H527 H 0.1482 0.87404 0.30026 0.0
H528 H 0.13895 0.80832 0.31468 0.0
Cu529 Cu 0.4967 0.97168 0.26876 0.0
N530 N 0.43438 0.9642 0.25685 0.0
N531 N 0.37088 0.95056 0.25261 0.0
C532 C 0.41915 0.95324 0.26242 0.0
C533 C 0.35552 0.96021 0.24024 0.0
C534 C 0.39463 0.96855 0.24281 0.0
O535 O 0.49808 0.96831 0.30498 0.0
C536 C 0.54924 0.96958 0.22457 0.0
O537 O 0.50761 0.97602 0.21914 0.0
H538 H 0.4421 0.9475 0.27429 0.0
H539 H 0.39365 0.97724 0.23534 0.0
N540 N 0.49686 0.98805 0.26546 0.0
N541 N 0.52804 1.00631 0.26374 0.0
C542 C 0.54058 0.9949 0.26355 0.0
C543 C 0.45535 0.99542 0.26666 0.0
C544 C 0.4744 1.00663 0.26572 0.0
C545 C 0.45384 0.97079 0.31568 0.0
O546 O 0.41578 0.97543 0.30211 0.0
H547 H 0.58094 0.99158 0.263 0.0
H548 H 0.41413 0.99286 0.26869 0.0
O549 O 0.5547 0.96612 0.24718 0.0
H550 H 0.31835 0.96122 0.23017 0.0
H551 H 0.45058 1.01444 0.26668 0.0
Cu552 Cu 0.76974 0.58073 1.00181 0.0
N553 N 0.69824 0.58554 0.99828 0.0
N554 N 0.63431 0.59921 1.00023 0.0
C555 C 0.68525 0.59671 0.99388 0.0
C556 C 0.61427 0.58915 1.00901 0.0
C557 C 0.65379 0.58076 1.00791 0.0
O558 O 0.77992 0.58497 0.03702 0.0
C559 C 0.78803 0.58801 0.95394 0.0
O560 O 0.7429 0.58234 0.95174 0.0
H561 H 0.71433 0.60316 0.98843 0.0
H562 H 0.65162 0.57213 0.01566 0.0
N563 N 0.78456 0.56476 0.99681 0.0
N564 N 0.82909 0.54778 0.99537 0.0
C565 C 0.83187 0.55929 1.0005 0.0
C566 C 0.75105 0.55649 0.98871 0.0
C567 C 0.77813 0.54608 0.98789 0.0
C568 C 0.76402 0.57753 0.05305 0.0
O569 O 0.75757 0.56676 0.04571 0.0
H570 H 0.86724 0.56361 1.0074 0.0
H571 H 0.70972 0.55792 0.98383 0.0
O572 O 0.80974 0.5888 0.97557 0.0
H573 H 0.5748 0.58805 0.01683 0.0
H574 H 0.7614 0.53786 0.98207 0.0
Cu575 Cu 0.42522 0.70786 0.04032 0.0
N576 N 0.42535 0.69145 0.0417 0.0
N577 N 0.45181 0.67303 0.03476 0.0
C578 C 0.46021 0.68441 0.02973 0.0
C579 C 0.40964 0.67299 0.05054 0.0
C580 C 0.39354 0.68429 0.05476 0.0
O581 O 0.47435 0.71382 0.06632 0.0
C582 C 0.41275 0.70742 0.98899 0.0
O583 O 0.37891 0.69936 0.99594 0.0
H584 H 0.4918 0.68767 0.01791 0.0
H585 H 0.36104 0.68706 0.06664 0.0
N586 N 0.35795 0.71481 0.04614 0.0
N587 N 0.29348 0.7284 0.04343 0.0
C588 C 0.34026 0.72436 0.0341 0.0
C589 C 0.32104 0.71268 0.06383 0.0
C590 C 0.28126 0.72097 0.06213 0.0
C591 C 0.51905 0.70921 0.07203 0.0
O592 O 0.53706 0.7006 0.05831 0.0
H593 H 0.36224 0.72838 0.01902 0.0
H594 H 0.32376 0.70588 0.07765 0.0
O595 O 0.44142 0.71231 1.00575 0.0
H596 H 0.39121 0.66535 0.05842 0.0
H597 H 0.24719 0.72171 0.07446 0.0
Cu598 Cu 0.80505 0.71473 0.26705 0.0
N599 N 0.81597 0.6985 0.2642 0.0
N600 N 0.79368 0.67957 0.26222 0.0
C601 C 0.77892 0.69063 0.257 0.0
C602 C 0.84199 0.68058 0.27319 0.0
C603 C 0.85525 0.69218 0.2746 0.0
O604 O 0.74896 0.71869 0.24252 0.0
C605 C 0.80598 0.72307 0.3184 0.0
O606 O 0.83871 0.73111 0.3104 0.0
H607 H 0.74027 0.69305 0.24967 0.0
H608 H 0.88949 0.69573 0.28418 0.0
N609 N 0.8677 0.72377 0.2609 0.0
N610 N 0.92371 0.73907 0.25822 0.0
C611 C 0.87209 0.73546 0.25843 0.0
C612 C 0.91841 0.71995 0.26166 0.0
C613 C 0.95267 0.72927 0.26013 0.0
C614 C 0.75589 0.71542 0.21983 0.0
O615 O 0.80087 0.71022 0.21403 0.0
H616 H 0.83816 0.74126 0.25825 0.0
H617 H 0.93006 0.71101 0.26391 0.0
O618 O 0.78396 0.7163 0.30252 0.0
H619 H 0.86551 0.67349 0.28049 0.0
H620 H 0.99578 0.72886 0.26071 0.0
Cu621 Cu 0.50301 0.57968 0.25104 0.0
N622 N 0.5644 0.58758 0.2625 0.0
N623 N 0.61854 0.60315 0.26469 0.0
C624 C 0.57012 0.59901 0.25794 0.0
C625 C 0.64433 0.59386 0.27424 0.0
C626 C 0.61102 0.58426 0.27273 0.0
O627 O 0.50778 0.58247 0.21492 0.0
C628 C 0.45093 0.58311 0.29375 0.0
O629 O 0.4951 0.57765 0.29974 0.0
H630 H 0.53913 0.60413 0.24921 0.0
H631 H 0.62092 0.57547 0.27786 0.0
N632 N 0.49535 0.56345 0.25605 0.0
N633 N 0.45005 0.54657 0.25822 0.0
C634 C 0.44995 0.55771 0.25021 0.0
C635 C 0.52559 0.55564 0.26825 0.0
C636 C 0.49787 0.54526 0.26959 0.0
C637 C 0.54668 0.57681 0.2054 0.0
O638 O 0.57185 0.56934 0.2197 0.0
H639 H 0.41638 0.56187 0.24122 0.0
H640 H 0.56421 0.55745 0.27637 0.0
O641 O 0.4442 0.58602 0.27086 0.0
H642 H 0.6851 0.59385 0.28089 0.0
H643 H 0.51181 0.53741 0.27849 0.0
Cu644 Cu 0.22048 0.46554 0.993 0.0
N645 N 0.28799 0.4594 1.00257 0.0
N646 N 0.34977 0.44518 1.0053 0.0
C647 C 0.2978 0.44789 1.00141 0.0
C648 C 0.37376 0.45553 1.00911 0.0
C649 C 0.33572 0.46426 1.0074 0.0
O650 O 0.22181 0.46303 0.95646 0.0
C651 C 0.18075 0.46071 0.03832 0.0
O652 O 0.22384 0.46694 0.04216 0.0
H653 H 0.26735 0.44165 0.99652 0.0
H654 H 0.34287 0.47348 1.00863 0.0
N655 N 0.2019 0.48137 0.99783 0.0
N656 N 0.14321 0.49617 1.0011 0.0
C657 C 0.1504 0.48475 0.99624 0.0
C658 C 0.2289 0.49107 1.00387 0.0
C659 C 0.19286 0.50021 1.00577 0.0
C660 C 0.25938 0.46909 0.94689 0.0
O661 O 0.28463 0.47642 0.96154 0.0
H662 H 0.11857 0.4788 0.99163 0.0
H663 H 0.27145 0.49147 1.00705 0.0
O664 O 0.16924 0.45799 0.01565 0.0
H665 H 0.41589 0.45676 0.01257 0.0
H666 H 0.20239 0.50904 1.0109 0.0
Cu667 Cu 0.60897 0.33972 0.9899 0.0
N668 N 0.60317 0.35605 0.98581 0.0
N669 N 0.56496 0.37381 0.98712 0.0
C670 C 0.56034 0.3624 0.99296 0.0
C671 C 0.61315 0.3746 0.97585 0.0
C672 C 0.6364 0.3637 0.97504 0.0
O673 O 0.55684 0.33287 0.96671 0.0
C674 C 0.61012 0.3286 0.03854 0.0
O675 O 0.62733 0.31925 0.02705 0.0
H676 H 0.52634 0.3586 1.00229 0.0
H677 H 0.67446 0.36151 0.96676 0.0
N678 N 0.67725 0.33317 0.98339 0.0
N679 N 0.74032 0.31914 0.98081 0.0
C680 C 0.6875 0.32179 0.97921 0.0
C681 C 0.72532 0.33795 0.98749 0.0
C682 C 0.76397 0.32943 0.98579 0.0
C683 C 0.56272 0.33551 0.94363 0.0
O684 O 0.60356 0.34202 0.93738 0.0
H685 H 0.65604 0.31552 0.97652 0.0
H686 H 0.73162 0.34688 0.99293 0.0
O687 O 0.59538 0.33732 0.02564 0.0
H688 H 0.63017 0.38243 0.96814 0.0
H689 H 0.80597 0.33072 0.98938 0.0
Cu690 Cu 0.23403 0.33004 0.76797 0.0
N691 N 0.22872 0.34594 0.77586 0.0
N692 N 0.25063 0.36473 0.77993 0.0
C693 C 0.26333 0.35441 0.7694 0.0
C694 C 0.20587 0.36265 0.79327 0.0
C695 C 0.19256 0.35112 0.79073 0.0
O696 O 0.2893 0.32391 0.79051 0.0
C697 C 0.21444 0.33459 0.71806 0.0
O698 O 0.17645 0.34047 0.72931 0.0
H699 H 0.29723 0.35302 0.75724 0.0
H700 H 0.15939 0.3468 0.7996 0.0
N701 N 0.17049 0.32197 0.77596 0.0
N702 N 0.10356 0.30889 0.77548 0.0
C703 C 0.14373 0.31395 0.76229 0.0
C704 C 0.14675 0.32191 0.79855 0.0
C705 C 0.10566 0.31399 0.79829 0.0
C706 C 0.335 0.32853 0.79372 0.0
O707 O 0.35098 0.33655 0.77803 0.0
H708 H 0.15458 0.31168 0.74329 0.0
H709 H 0.16001 0.3269 0.81454 0.0
O710 O 0.2468 0.3288 0.73166 0.0
H711 H 0.18497 0.36891 0.80475 0.0
H712 H 0.081 0.3118 0.81421 0.0
Cu713 Cu 0.54873 0.46286 0.75579 0.0
N714 N 0.54352 0.44689 0.76246 0.0
N715 N 0.50061 0.43004 0.76873 0.0
C716 C 0.49599 0.44148 0.7638 0.0
C717 C 0.5537 0.42815 0.77036 0.0
C718 C 0.58007 0.43856 0.76652 0.0
O719 O 0.48949 0.46913 0.77577 0.0
C720 C 0.57609 0.45899 0.70665 0.0
O721 O 0.61346 0.45337 0.71888 0.0
H722 H 0.4586 0.44595 0.76085 0.0
H723 H 0.62273 0.43991 0.76663 0.0
N724 N 0.61467 0.4698 0.76521 0.0
N725 N 0.68348 0.48247 0.76676 0.0
C726 C 0.63477 0.47998 0.75683 0.0
C727 C 0.65187 0.46569 0.78101 0.0
C728 C 0.69396 0.4734 0.782 0.0
C729 C 0.49388 0.46767 0.79941 0.0
O730 O 0.5393 0.4637 0.80817 0.0
H731 H 0.61366 0.48542 0.74368 0.0
H732 H 0.64877 0.45761 0.79111 0.0
O733 O 0.54097 0.46444 0.71937 0.0
H734 H 0.57228 0.4199 0.77436 0.0
H735 H 0.72979 0.47224 0.79299 0.0
H736 H 0.21352 0.0951 0.10537 0.0
H737 H 0.21489 0.05767 0.09996 0.0
H738 H 0.1727 0.05627 0.14154 0.0
H739 H 0.23441 0.09657 0.17626 0.0
H740 H 0.19004 0.10879 0.17918 0.0
H741 H 0.22895 0.10688 0.15106 0.0
H742 H 0.14248 0.10766 0.12466 0.0
H743 H 0.10323 0.10936 0.15264 0.0
H744 H 0.08927 0.09763 0.13129 0.0
H745 H 0.11501 0.05881 0.17911 0.0
H746 H 0.05582 0.06522 0.21355 0.0
H747 H 0.09481 0.10099 0.1973 0.0
C748 C 0.2075 0.08664 0.11362 0.0
C749 C 0.21888 0.07646 0.09976 0.0
C750 C 0.20772 0.06554 0.11054 0.0
C751 C 0.1834 0.06466 0.1341 0.0
C752 C 0.17048 0.07481 0.14689 0.0
C753 C 0.18314 0.08561 0.13738 0.0
C754 C 0.1609 0.09511 0.15424 0.0
C755 C 0.20629 0.10226 0.16588 0.0
C756 C 0.12165 0.1029 0.13984 0.0
C757 C 0.13228 0.08796 0.17403 0.0
C758 C 0.13832 0.07626 0.16936 0.0
C759 C 0.11125 0.06794 0.18341 0.0
C760 C 0.07748 0.07164 0.20286 0.0
C761 C 0.0716 0.08356 0.20842 0.0
C762 C 0.09981 0.0918 0.19391 0.0
H763 H 0.17088 0.23593 0.17295 0.0
H764 H 0.21193 0.19978 0.18312 0.0
H765 H 0.16031 0.19478 0.14478 0.0
H766 H 0.03831 0.23172 0.15284 0.0
H767 H 0.03953 0.24335 0.13038 0.0
H768 H 0.08144 0.244 0.15774 0.0
H769 H 0.16548 0.24646 0.12992 0.0
H770 H 0.12361 0.24619 0.10255 0.0
H771 H 0.17831 0.23614 0.10524 0.0
H772 H 0.09935 0.19402 0.10524 0.0
H773 H 0.04847 0.19794 0.06621 0.0
H774 H 0.04848 0.23457 0.08389 0.0
C775 C 0.16982 0.22697 0.16691 0.0
C776 C 0.19574 0.21825 0.18086 0.0
C777 C 0.19315 0.20662 0.17242 0.0
C778 C 0.1633 0.2037 0.15088 0.0
C779 C 0.13656 0.21252 0.13804 0.0
C780 C 0.14057 0.22395 0.14563 0.0
C781 C 0.10921 0.23193 0.12877 0.0
C782 C 0.06448 0.23811 0.14331 0.0
C783 C 0.14636 0.24069 0.11585 0.0
C784 C 0.08673 0.22328 0.11032 0.0
C785 C 0.10223 0.21209 0.11595 0.0
C786 C 0.08698 0.20276 0.1008 0.0
C787 C 0.05741 0.20503 0.07884 0.0
C788 C 0.04397 0.21654 0.07223 0.0
C789 C 0.05749 0.22566 0.08867 0.0
H790 H 0.95661 0.94525 0.85683 0.0
H791 H 0.98128 0.98231 0.8524 0.0
H792 H 0.91578 0.98519 0.88693 0.0
H793 H 0.81355 0.9467 0.86873 0.0
H794 H 0.81488 0.93426 0.88907 0.0
H795 H 0.86257 0.93548 0.864 0.0
H796 H 0.93948 0.93311 0.89601 0.0
H797 H 0.8921 0.93207 0.92123 0.0
H798 H 0.94382 0.94289 0.92232 0.0
H799 H 0.85179 0.98345 0.92526 0.0
H800 H 0.78723 0.97764 0.95827 0.0
H801 H 0.80176 0.94187 0.9345 0.0
C802 C 0.94779 0.954 0.86293 0.0
C803 C 0.97402 0.96357 0.85201 0.0
C804 C 0.96125 0.97487 0.86039 0.0
C805 C 0.92443 0.97656 0.88012 0.0
C806 C 0.90012 0.96686 0.89089 0.0
C807 C 0.9106 0.95582 0.88209 0.0
C808 C 0.87876 0.94679 0.89615 0.0
C809 C 0.84014 0.94043 0.87843 0.0
C810 C 0.91576 0.93821 0.90973 0.0
C811 C 0.84906 0.95439 0.9146 0.0
C812 C 0.8622 0.96593 0.91163 0.0
C813 C 0.8409 0.97444 0.92744 0.0
C814 C 0.80457 0.97106 0.94628 0.0
C815 C 0.78924 0.95932 0.94889 0.0
C816 C 0.81228 0.95093 0.93286 0.0
H817 H 0.823 0.82008 0.82454 0.0
H818 H 0.96103 0.83568 0.78911 0.0
H819 H 1.00605 0.8368 0.83028 0.0
H820 H 0.825 0.83726 0.87933 0.0
H821 H 0.80455 0.82575 0.89997 0.0
H822 H 0.78486 0.82549 0.86754 0.0
H823 H 0.82723 0.80516 0.8622 0.0
H824 H 0.84662 0.8053 0.89471 0.0
H825 H 0.89607 0.80297 0.87071 0.0
H826 H 0.03413 0.83719 0.87683 0.0
H827 H 0.04307 0.83591 0.92311 0.0
H828 H 0.88646 0.82007 0.92703 0.0
C829 C 0.86305 0.82356 0.82528 0.0
C830 C 0.88843 0.82772 0.80339 0.0
C831 C 0.9407 0.83234 0.80547 0.0
C832 C 0.96661 0.83306 0.82885 0.0
C833 C 0.93996 0.82909 0.85012 0.0
C834 C 0.88945 0.82434 0.84844 0.0
C835 C 0.86865 0.82096 0.87404 0.0
C836 C 0.81776 0.82777 0.8806 0.0
C837 C 0.8591 0.80782 0.87549 0.0
C838 C 0.91503 0.82461 0.89046 0.0
C839 C 0.95593 0.82929 0.87646 0.0
C840 C 1.00236 0.83346 0.8879 0.0
C841 C 1.0071 0.83274 0.91422 0.0
C842 C 0.96568 0.82786 0.92885 0.0
C843 C 0.91917 0.8238 0.91656 0.0
H844 H 0.27838 0.57571 0.60159 0.0
H845 H 0.1621 0.58609 0.54592 0.0
H846 H 0.09079 0.58519 0.57824 0.0
H847 H 0.19333 0.5554 0.63425 0.0
H848 H 0.22146 0.55896 0.66438 0.0
H849 H 0.26146 0.56026 0.63652 0.0
H850 H 0.28093 0.58173 0.64762 0.0
H851 H 0.24058 0.58053 0.67536 0.0
H852 H 0.22606 0.59157 0.65254 0.0
H853 H 0.03289 0.58435 0.61924 0.0
H854 H 0.99538 0.58169 0.66213 0.0
H855 H 0.15152 0.57111 0.68841 0.0
C856 C 0.23785 0.57771 0.59607 0.0
C857 C 0.22583 0.58098 0.57124 0.0
C858 C 0.17218 0.58347 0.56481 0.0
C859 C 0.13151 0.58305 0.5831 0.0
C860 C 0.14507 0.57998 0.60763 0.0
C861 C 0.19705 0.57718 0.61387 0.0
C862 C 0.20212 0.57404 0.64122 0.0
C863 C 0.22067 0.56142 0.64426 0.0
C864 C 0.23963 0.58247 0.65499 0.0
C865 C 0.14505 0.57558 0.64964 0.0
C866 C 0.11238 0.57911 0.63027 0.0
C867 C 0.05824 0.58145 0.63439 0.0
C868 C 0.03722 0.57997 0.6588 0.0
C869 C 0.07024 0.57604 0.67857 0.0
C870 C 0.12476 0.57392 0.67369 0.0
H871 H 0.14363 0.72672 0.58624 0.0
H872 H 0.99207 0.71383 0.61354 0.0
H873 H 0.03181 0.71164 0.65607 0.0
H874 H 0.2248 0.70726 0.62042 0.0
H875 H 0.27715 0.71771 0.62534 0.0
H876 H 0.23509 0.71875 0.59812 0.0
H877 H 0.21034 0.73982 0.61035 0.0
H878 H 0.25215 0.73884 0.6377 0.0
H879 H 0.18288 0.74273 0.64094 0.0
H880 H 0.09194 0.71098 0.69647 0.0
H881 H 0.16509 0.71042 0.72793 0.0
H882 H 0.27543 0.72307 0.67184 0.0
C883 C 0.11822 0.72353 0.60111 0.0
C884 C 0.06433 0.72057 0.5965 0.0
C885 C 0.03331 0.71622 0.61657 0.0
C886 C 0.05562 0.71498 0.6408 0.0
C887 C 0.10912 0.71803 0.64459 0.0
C888 C 0.13986 0.72213 0.62505 0.0
C889 C 0.19683 0.72431 0.63309 0.0
C890 C 0.23574 0.71654 0.61837 0.0
C891 C 0.21138 0.73719 0.63036 0.0
C892 C 0.19394 0.72082 0.66033 0.0
C893 C 0.14309 0.71732 0.6669 0.0
C894 C 0.13174 0.71371 0.69134 0.0
C895 C 0.17347 0.71348 0.70917 0.0
C896 C 0.22608 0.7167 0.70241 0.0
C897 C 0.23579 0.72052 0.67769 0.0
H898 H 0.89287 0.45074 0.31457 0.0
H899 H 0.94428 0.48617 0.30262 0.0
H900 H 0.89407 0.49226 0.34037 0.0
H901 H 0.75923 0.45712 0.34067 0.0
H902 H 0.76347 0.44562 0.36337 0.0
H903 H 0.79741 0.44427 0.33373 0.0
H904 H 0.88656 0.44067 0.35683 0.0
H905 H 0.85303 0.44197 0.38651 0.0
H906 H 0.90952 0.45107 0.37966 0.0
H907 H 0.84491 0.49422 0.381 0.0
H908 H 0.8061 0.4919 0.42307 0.0
H909 H 0.78769 0.45504 0.41004 0.0
C910 C 0.8925 0.45984 0.3195 0.0
C911 C 0.9219 0.46804 0.3053 0.0
C912 C 0.92172 0.47978 0.31296 0.0
C913 C 0.89313 0.4833 0.33436 0.0
C914 C 0.86513 0.47498 0.34805 0.0
C915 C 0.8648 0.46347 0.34101 0.0
C916 C 0.83588 0.45609 0.36031 0.0
C917 C 0.78603 0.45044 0.34883 0.0
C918 C 0.8735 0.44691 0.37149 0.0
C919 C 0.82081 0.46521 0.37964 0.0
C920 C 0.83746 0.47606 0.37191 0.0
C921 C 0.83119 0.48579 0.38706 0.0
C922 C 0.80895 0.48438 0.41095 0.0
C923 C 0.79308 0.47333 0.41974 0.0
C924 C 0.79794 0.46364 0.40358 0.0
H925 H 0.77114 0.31681 0.35965 0.0
H926 H 0.87856 0.32891 0.30179 0.0
H927 H 0.95156 0.33016 0.33318 0.0
H928 H 0.81506 0.33506 0.40714 0.0
H929 H 0.8078 0.32457 0.43187 0.0
H930 H 0.76665 0.32359 0.40435 0.0
H931 H 0.79897 0.30255 0.39666 0.0
H932 H 0.83983 0.30342 0.42436 0.0
H933 H 0.86944 0.29959 0.3947 0.0
H934 H 1.01095 0.33194 0.37362 0.0
H935 H 0.04936 0.33262 0.41667 0.0
H936 H 0.901 0.31892 0.44598 0.0
C937 C 0.8103 0.31949 0.35338 0.0
C938 C 0.81908 0.32269 0.32818 0.0
C939 C 0.87094 0.32625 0.3209 0.0
C940 C 0.91259 0.32706 0.33869 0.0
C941 C 0.90197 0.32415 0.36363 0.0
C942 C 0.85205 0.32026 0.37074 0.0
C943 C 0.84942 0.31801 0.39861 0.0
C944 C 0.80725 0.32578 0.41122 0.0
C945 C 0.83881 0.30513 0.40388 0.0
C946 C 0.90523 0.32145 0.40635 0.0
C947 C 0.9354 0.32498 0.38612 0.0
C948 C 0.98763 0.32903 0.38946 0.0
C949 C 1.0092 0.32942 0.41398 0.0
C950 C 0.97859 0.32577 0.43484 0.0
C951 C 0.92609 0.3217 0.43061 0.0
H952 H 0.73787 0.06702 0.61071 0.0
H953 H 0.6172 0.07987 0.55986 0.0
H954 H 0.55132 0.08003 0.59479 0.0
H955 H 0.64921 0.04846 0.64849 0.0
H956 H 0.6855 0.05174 0.67679 0.0
H957 H 0.71954 0.05162 0.64707 0.0
H958 H 0.75239 0.07258 0.65531 0.0
H959 H 0.71794 0.07283 0.68483 0.0
H960 H 0.70432 0.08381 0.66175 0.0
H961 H 0.50217 0.08094 0.63836 0.0
H962 H 0.4749 0.08083 0.68326 0.0
H963 H 0.62953 0.06668 0.70297 0.0
C964 C 0.69718 0.06959 0.60675 0.0
C965 C 0.68242 0.07335 0.58261 0.0
C966 C 0.62901 0.07677 0.57817 0.0
C967 C 0.59153 0.07696 0.59797 0.0
C968 C 0.60805 0.07352 0.62189 0.0
C969 C 0.65959 0.06969 0.62604 0.0
C970 C 0.66905 0.06685 0.65327 0.0
C971 C 0.68154 0.0539 0.65659 0.0
C972 C 0.71353 0.07447 0.66443 0.0
C973 C 0.6153 0.06991 0.66415 0.0
C974 C 0.58024 0.07378 0.64602 0.0
C975 C 0.52924 0.07773 0.65253 0.0
C976 C 0.51405 0.07767 0.67808 0.0
C977 C 0.54973 0.07365 0.69674 0.0
C978 C 0.6007 0.06968 0.68934 0.0
H979 H 0.50653 0.22577 0.60247 0.0
H980 H 0.6153 0.21326 0.5454 0.0
H981 H 0.68815 0.21268 0.57683 0.0
H982 H 0.60414 0.2438 0.63663 0.0
H983 H 0.57471 0.24031 0.66648 0.0
H984 H 0.5338 0.24074 0.63875 0.0
H985 H 0.50239 0.21975 0.64756 0.0
H986 H 0.54365 0.21919 0.67509 0.0
H987 H 0.5513 0.2084 0.65089 0.0
H988 H 0.7466 0.21137 0.61688 0.0
H989 H 0.78517 0.21118 0.65985 0.0
H990 H 0.63681 0.22513 0.68887 0.0
C991 C 0.54597 0.22316 0.59641 0.0
C992 C 0.55529 0.21962 0.57147 0.0
C993 C 0.6074 0.21616 0.56435 0.0
C994 C 0.64894 0.21574 0.58213 0.0
C995 C 0.63786 0.21895 0.60684 0.0
C996 C 0.58771 0.2228 0.61376 0.0
C997 C 0.5849 0.2254 0.64148 0.0
C998 C 0.57375 0.23833 0.6461 0.0
C999 C 0.5431 0.21773 0.65451 0.0
C1000 C 0.64085 0.22217 0.64933 0.0
C1001 C 0.67115 0.21845 0.62925 0.0
C1002 C 0.72334 0.21444 0.63262 0.0
C1003 C 0.74491 0.21432 0.65708 0.0
C1004 C 0.71432 0.21823 0.67774 0.0
C1005 C 0.66177 0.22222 0.67354 0.0
H1006 H 0.24977 0.95967 0.42574 0.0
H1007 H 0.37301 0.96801 0.47983 0.0
H1008 H 0.43836 0.97002 0.445 0.0
H1009 H 0.33025 0.94298 0.38366 0.0
H1010 H 0.29687 0.94836 0.35614 0.0
H1011 H 0.26141 0.9474 0.3854 0.0
H1012 H 0.23769 0.96924 0.38291 0.0
H1013 H 0.27243 0.97022 0.35351 0.0
H1014 H 0.29032 0.97972 0.37902 0.0
H1015 H 0.49061 0.97086 0.40221 0.0
H1016 H 0.5195 0.97235 0.35761 0.0
H1017 H 0.35927 0.96372 0.33379 0.0
C1018 C 0.29051 0.9619 0.43045 0.0
C1019 C 0.30622 0.96363 0.45561 0.0
C1020 C 0.35992 0.96667 0.4607 0.0
C1021 C 0.39736 0.96775 0.44102 0.0
C1022 C 0.38039 0.96582 0.41636 0.0
C1023 C 0.32787 0.96307 0.4112 0.0
C1024 C 0.31818 0.96181 0.38339 0.0
C1025 C 0.30065 0.9494 0.37677 0.0
C1026 C 0.27726 0.97078 0.37417 0.0
C1027 C 0.3733 0.96434 0.37344 0.0
C1028 C 0.40922 0.96651 0.39253 0.0
C1029 C 0.46257 0.96916 0.38724 0.0
C1030 C 0.47885 0.9699 0.36189 0.0
C1031 C 0.44164 0.96815 0.34229 0.0
C1032 C 0.38868 0.96513 0.34837 0.0
H1033 H 0.43383 0.82196 0.42042 0.0
H1034 H 0.57023 0.84482 0.41349 0.0
H1035 H 0.54404 0.84896 0.36943 0.0
H1036 H 0.43687 0.81023 0.35712 0.0
H1037 H 0.36519 0.80975 0.35483 0.0
H1038 H 0.39709 0.80816 0.38488 0.0
H1039 H 0.34131 0.82526 0.40236 0.0
H1040 H 0.30926 0.8269 0.37241 0.0
H1041 H 0.34305 0.83904 0.38656 0.0
H1042 H 0.49766 0.85142 0.32642 0.0
H1043 H 0.43765 0.852 0.28966 0.0
H1044 H 0.33265 0.82727 0.32569 0.0
C1045 C 0.4588 0.82778 0.4097 0.0
C1046 C 0.50433 0.83307 0.42057 0.0
C1047 C 0.53543 0.84062 0.40565 0.0
C1048 C 0.52072 0.84301 0.3806 0.0
C1049 C 0.47503 0.83773 0.37068 0.0
C1050 C 0.44481 0.83021 0.38487 0.0
C1051 C 0.39647 0.82592 0.3705 0.0
C1052 C 0.39909 0.81273 0.3666 0.0
C1053 C 0.34447 0.8295 0.38375 0.0
C1054 C 0.40338 0.8323 0.34597 0.0
C1055 C 0.449 0.83904 0.3463 0.0
C1056 C 0.46223 0.84608 0.326 0.0
C1057 C 0.42779 0.84633 0.30513 0.0
C1058 C 0.38041 0.83961 0.30453 0.0
C1059 C 0.36878 0.8324 0.32524 0.0
H1060 H 0.74599 0.56397 0.09355 0.0
H1061 H 0.71867 0.59864 0.06534 0.0
H1062 H 0.65711 0.60248 0.10084 0.0
H1063 H 0.61459 0.55829 0.11058 0.0
H1064 H 0.63116 0.55009 0.1382 0.0
H1065 H 0.67704 0.5506 0.11231 0.0
H1066 H 0.75186 0.55828 0.14147 0.0
H1067 H 0.70664 0.55749 0.16761 0.0
H1068 H 0.7397 0.57094 0.16048 0.0
H1069 H 0.59158 0.60163 0.13889 0.0
H1070 H 0.53885 0.59689 0.17703 0.0
H1071 H 0.6095 0.56262 0.17786 0.0
C1072 C 0.72826 0.5725 0.09517 0.0
C1073 C 0.73778 0.58105 0.07684 0.0
C1074 C 0.71299 0.59203 0.07946 0.0
C1075 C 0.6774 0.59423 0.09941 0.0
C1076 C 0.66721 0.58538 0.11661 0.0
C1077 C 0.69281 0.5748 0.11477 0.0
C1078 C 0.67436 0.5665 0.13484 0.0
C1079 C 0.64771 0.55574 0.12328 0.0
C1080 C 0.7209 0.56311 0.15213 0.0
C1081 C 0.63412 0.57399 0.14835 0.0
C1082 C 0.63004 0.58485 0.13769 0.0
C1083 C 0.5948 0.59315 0.14735 0.0
C1084 C 0.56451 0.59035 0.16884 0.0
C1085 C 0.56983 0.57937 0.18038 0.0
C1086 C 0.60438 0.57109 0.16953 0.0
H1087 H 0.75396 0.70548 0.17319 0.0
H1088 H 0.66182 0.728 0.22186 0.0
H1089 H 0.59255 0.72965 0.1888 0.0
H1090 H 0.72379 0.71968 0.11472 0.0
H1091 H 0.72001 0.7063 0.09732 0.0
H1092 H 0.76253 0.70732 0.12444 0.0
H1093 H 0.71481 0.68967 0.14421 0.0
H1094 H 0.67226 0.68857 0.11714 0.0
H1095 H 0.64337 0.68993 0.14793 0.0
H1096 H 0.53249 0.72859 0.14945 0.0
H1097 H 0.48641 0.72415 0.1095 0.0
H1098 H 0.61809 0.70194 0.0877 0.0
C1099 C 0.71947 0.71085 0.17695 0.0
C1100 C 0.71371 0.71669 0.2002 0.0
C1101 C 0.66737 0.72347 0.20426 0.0
C1102 C 0.62784 0.72447 0.18553 0.0
C1103 C 0.63494 0.71858 0.16283 0.0
C1104 C 0.67963 0.71185 0.15862 0.0
C1105 C 0.67734 0.70603 0.13312 0.0
C1106 C 0.72367 0.71008 0.11642 0.0
C1107 C 0.6769 0.69277 0.13577 0.0
C1108 C 0.62432 0.7105 0.12349 0.0
C1109 C 0.60048 0.7178 0.14075 0.0
C1110 C 0.55101 0.72289 0.13588 0.0
C1111 C 0.52513 0.72034 0.11304 0.0
C1112 C 0.54842 0.7127 0.09528 0.0
C1113 C 0.59899 0.70783 0.10072 0.0
H1114 H 0.49825 0.4701 0.84999 0.0
H1115 H 0.38556 0.4671 0.78875 0.0
H1116 H 0.31113 0.46622 0.8195 0.0
H1117 H 0.43491 0.45056 0.8914 0.0
H1118 H 0.45042 0.45885 0.91911 0.0
H1119 H 0.49351 0.45959 0.89219 0.0
H1120 H 0.48295 0.48193 0.89089 0.0
H1121 H 0.44064 0.48128 0.91808 0.0
H1122 H 0.41706 0.48817 0.8899 0.0
H1123 H 0.24859 0.46469 0.85912 0.0
H1124 H 0.20687 0.46498 0.90159 0.0
H1125 H 0.36329 0.46921 0.93477 0.0
C1126 C 0.4579 0.46939 0.84292 0.0
C1127 C 0.44782 0.46872 0.81691 0.0
C1128 C 0.39429 0.46778 0.80857 0.0
C1129 C 0.35181 0.46716 0.82595 0.0
C1130 C 0.36348 0.46757 0.85159 0.0
C1131 C 0.41545 0.46883 0.85986 0.0
C1132 C 0.41848 0.46917 0.88813 0.0
C1133 C 0.45127 0.45894 0.89829 0.0
C1134 C 0.44109 0.48083 0.89728 0.0
C1135 C 0.36017 0.46794 0.8947 0.0
C1136 C 0.32861 0.46689 0.87359 0.0
C1137 C 0.2732 0.46556 0.87567 0.0
C1138 C 0.24977 0.46563 0.89983 0.0
C1139 C 0.28179 0.46715 0.92144 0.0
C1140 C 0.33761 0.46811 0.9186 0.0
H1141 H 0.43095 0.33809 0.80755 0.0
H1142 H 0.30823 0.31455 0.83364 0.0
H1143 H 0.35431 0.31304 0.87452 0.0
H1144 H 0.5432 0.32428 0.83982 0.0
H1145 H 0.57482 0.33795 0.8466 0.0
H1146 H 0.53404 0.33639 0.819 0.0
H1147 H 0.47648 0.35384 0.83331 0.0
H1148 H 0.51675 0.35539 0.86103 0.0
H1149 H 0.44563 0.35357 0.86382 0.0
H1150 H 0.41167 0.31539 0.91429 0.0
H1151 H 0.47628 0.32069 0.94764 0.0
H1152 H 0.56063 0.34247 0.89468 0.0
C1153 C 0.41412 0.33243 0.82164 0.0
C1154 C 0.36593 0.32638 0.81718 0.0
C1155 C 0.34524 0.3192 0.8364 0.0
C1156 C 0.3711 0.31832 0.85978 0.0
C1157 C 0.41789 0.32462 0.86371 0.0
C1158 C 0.43939 0.33145 0.845 0.0
C1159 C 0.48898 0.33767 0.85406 0.0
C1160 C 0.53817 0.33384 0.83897 0.0
C1161 C 0.48148 0.3509 0.85299 0.0
C1162 C 0.49181 0.33342 0.88088 0.0
C1163 C 0.45059 0.32589 0.8862 0.0
C1164 C 0.44436 0.3212 0.91017 0.0
C1165 C 0.4812 0.32427 0.92905 0.0
C1166 C 0.52386 0.33194 0.92388 0.0
C1167 C 0.52891 0.33649 0.89935 0.0
H1168 H 0.31411 0.02527 0.98998 0.0
H1169 H 0.39331 0.04471 0.0489 0.0
H1170 H 0.46404 0.02992 0.05064 0.0
H1171 H 0.34415 0.99659 0.01467 0.0
H1172 H 0.35482 0.99022 0.98421 0.0
H1173 H 0.30971 1.00227 0.9877 0.0
H1174 H 0.36263 1.01369 0.95425 0.0
H1175 H 0.40795 1.00169 0.9507 0.0
H1176 H 0.43327 1.01587 0.95837 0.0
H1177 H 0.52762 1.013 0.04586 0.0
H1178 H 0.5789 0.99558 0.03467 0.0
H1179 H 0.45875 0.98663 0.97923 0.0
C1180 C 0.346 0.02639 1.00342 0.0
C1181 C 0.34775 0.03631 0.01924 0.0
C1182 C 0.39095 0.03738 0.0363 0.0
C1183 C 0.43138 0.02894 0.03755 0.0
C1184 C 0.42864 1.01936 0.02163 0.0
C1185 C 0.38705 1.01802 1.00488 0.0
C1186 C 0.39424 1.00696 0.98963 0.0
C1187 C 0.34798 0.99851 0.99434 0.0
C1188 C 0.39986 1.00972 0.96157 0.0
C1189 C 0.44632 1.00232 1.00039 0.0
C1190 C 0.46535 1.00961 0.01887 0.0
C1191 C 0.51287 1.00722 0.03146 0.0
C1192 C 0.54178 0.99719 0.02499 0.0
C1193 C 0.52354 0.98951 1.00599 0.0
C1194 C 0.47471 0.99222 0.99367 0.0
H1195 H 0.848 0.31379 0.98234 0.0
H1196 H 0.691 0.29791 0.97823 0.0
H1197 H 0.73264 0.27869 0.97874 0.0
H1198 H 0.91604 0.29286 0.94315 0.0
H1199 H 0.97638 0.29305 0.9615 0.0
H1200 H 0.93452 0.30573 0.96028 0.0
H1201 H 0.92811 0.30583 1.00868 0.0
H1202 H 0.96992 0.29315 1.01006 0.0
H1203 H 0.90516 0.29303 0.0247 0.0
H1204 H 0.79136 0.26083 0.98029 0.0
H1205 H 0.86173 0.24604 0.98236 0.0
H1206 H 0.98144 0.27316 0.98659 0.0
C1207 C 0.82191 0.30635 0.98157 0.0
C1208 C 0.76543 0.30768 0.98027 0.0
C1209 C 0.73395 0.29745 0.97912 0.0
C1210 C 0.7574 0.28636 0.97946 0.0
C1211 C 0.81275 0.28544 0.98096 0.0
C1212 C 0.84467 0.29516 0.98196 0.0
C1213 C 0.90326 0.29173 0.98372 0.0
C1214 C 0.93438 0.2961 0.96079 0.0
C1215 C 0.92806 0.2962 1.00825 0.0
C1216 C 0.89926 0.27857 0.98365 0.0
C1217 C 0.84662 0.27514 0.98201 0.0
C1218 C 0.83269 0.26345 0.98166 0.0
C1219 C 0.87331 0.25505 0.98303 0.0
C1220 C 0.92791 0.25824 0.98483 0.0
C1221 C 0.94058 0.27027 0.98507 0.0
H1222 H 0.32489 0.27116 0.28859 0.0
H1223 H 0.40102 0.24889 0.2335 0.0
H1224 H 0.47912 0.26175 0.23314 0.0
H1225 H 0.37121 0.29821 0.2624 0.0
H1226 H 0.38112 0.30505 0.29243 0.0
H1227 H 0.33122 0.29395 0.2889 0.0
H1228 H 0.37465 0.28229 0.32492 0.0
H1229 H 0.42482 0.29334 0.32851 0.0
H1230 H 0.44429 0.27852 0.32303 0.0
H1231 H 0.5498 0.27713 0.23837 0.0
H1232 H 0.60572 0.29412 0.24779 0.0
H1233 H 0.48479 0.30676 0.29927 0.0
C1234 C 0.35771 0.26898 0.27631 0.0
C1235 C 0.35627 0.25882 0.26122 0.0
C1236 C 0.40083 0.2564 0.24562 0.0
C1237 C 0.44558 0.26373 0.24517 0.0
C1238 C 0.44577 0.27356 0.26035 0.0
C1239 C 0.40294 0.27624 0.27558 0.0
C1240 C 0.41329 0.28745 0.28986 0.0
C1241 C 0.37174 0.29671 0.28298 0.0
C1242 C 0.41433 0.28527 0.31827 0.0
C1243 C 0.46838 0.29067 0.28014 0.0
C1244 C 0.48643 0.2825 0.26323 0.0
C1245 C 0.53606 0.28357 0.25166 0.0
C1246 C 0.56788 0.29326 0.25731 0.0
C1247 C 0.55029 0.3019 0.2744 0.0
C1248 C 0.49967 0.30045 0.28599 0.0
H1249 H 0.61988 1.0091 0.23666 0.0
H1250 H 0.51723 0.02599 0.29088 0.0
H1251 H 0.57625 0.04313 0.29083 0.0
H1252 H 0.74629 1.0204 0.26004 0.0
H1253 H 0.77431 0.02241 0.22926 0.0
H1254 H 0.72552 1.01122 0.23447 0.0
H1255 H 0.66664 1.01974 0.19917 0.0
H1256 H 0.71519 0.03096 0.19388 0.0
H1257 H 0.64694 0.03475 0.20062 0.0
H1258 H 0.64748 0.0585 0.28526 0.0
H1259 H 0.72154 0.07135 0.27232 0.0
H1260 H 0.77594 0.04508 0.22006 0.0
C1261 C 0.61025 1.01637 0.24868 0.0
C1262 C 0.56391 1.01617 0.26388 0.0
C1263 C 0.55221 0.02595 0.27901 0.0
C1264 C 0.58571 0.03572 0.27918 0.0
C1265 C 0.63078 0.0357 0.26388 0.0
C1266 C 0.64291 0.02633 0.24874 0.0
C1267 C 0.69249 0.02878 0.23322 0.0
C1268 C 0.7373 1.02019 0.23964 0.0
C1269 C 0.67952 0.02854 0.20506 0.0
C1270 C 0.70624 0.04097 0.242 0.0
C1271 C 0.67049 0.04475 0.25992 0.0
C1272 C 0.67554 0.05564 0.27115 0.0
C1273 C 0.71787 0.06288 0.26376 0.0
C1274 C 0.75443 0.05933 0.24503 0.0
C1275 C 0.7483 0.04817 0.23413 0.0
H1276 H 0.18902 0.73423 0.05342 0.0
H1277 H 0.33281 0.7468 0.01715 0.0
H1278 H 0.2858 0.76461 1.00517 0.0
H1279 H 0.0954 0.74592 1.00856 0.0
H1280 H 0.04645 0.74983 0.03181 0.0
H1281 H 0.09088 0.73784 0.03735 0.0
H1282 H 0.12197 0.74732 0.07887 0.0
H1283 H 0.07756 0.75933 0.07348 0.0
H1284 H 0.14764 0.7619 0.07849 0.0
H1285 H 0.22387 0.78136 0.99738 0.0
H1286 H 0.15151 0.79569 0.99419 0.0
H1287 H 0.04731 0.77283 0.03619 0.0
C1288 C 0.21088 0.74071 0.04305 0.0
C1289 C 0.26507 0.7389 0.03621 0.0
C1290 C 0.29141 0.74771 0.0224 0.0
C1291 C 0.265 0.75797 0.01558 0.0
C1292 C 0.21194 0.75944 0.02263 0.0
C1293 C 0.18506 0.75106 0.03606 0.0
C1294 C 0.12807 0.75491 0.04138 0.0
C1295 C 0.08782 0.74663 0.02903 0.0
C1296 C 0.11825 0.75592 0.06974 0.0
C1297 C 0.12725 0.76675 0.02889 0.0
C1298 C 0.17614 0.76916 0.01821 0.0
C1299 C 0.18547 0.77956 1.00575 0.0
C1300 C 0.14398 0.78772 1.00417 0.0
C1301 C 0.09329 0.78554 0.01501 0.0
C1302 C 0.08513 0.77482 0.02747 0.0
H1303 H 0.65334 0.78734 0.75952 0.0
H1304 H 0.51833 0.81062 0.75378 0.0
H1305 H 0.45824 0.79393 0.74752 0.0
H1306 H 0.60673 0.76581 0.71351 0.0
H1307 H 0.63065 0.75361 0.73129 0.0
H1308 H 0.66396 0.7674 0.73367 0.0
H1309 H 0.65114 0.76717 0.7818 0.0
H1310 H 0.61777 0.7534 0.77955 0.0
H1311 H 0.58507 0.76546 0.79458 0.0
H1312 H 0.41187 0.77472 0.74282 0.0
H1313 H 0.38214 0.75446 0.74139 0.0
H1314 H 0.5459 0.74313 0.75206 0.0
C1315 C 0.61126 0.78889 0.75654 0.0
C1316 C 0.59062 0.80034 0.75705 0.0
C1317 C 0.53507 0.80197 0.75359 0.0
C1318 C 0.5006 0.79253 0.74992 0.0
C1319 C 0.52189 0.78138 0.74989 0.0
C1320 C 0.5759 0.77948 0.75318 0.0
C1321 C 0.58771 0.76654 0.75358 0.0
C1322 C 0.62445 0.76314 0.73171 0.0
C1323 C 0.61185 0.76293 0.77888 0.0
C1324 C 0.53201 0.7615 0.75013 0.0
C1325 C 0.49479 0.77024 0.74784 0.0
C1326 C 0.44074 0.76781 0.74467 0.0
C1327 C 0.42412 0.75617 0.74403 0.0
C1328 C 0.46111 0.74694 0.74676 0.0
C1329 C 0.51605 0.74979 0.74968 0.0
H1330 H 0.29932 0.99032 0.83124 0.0
H1331 H 0.22577 0.99002 0.75747 0.0
H1332 H 0.28379 1.00604 0.7446 0.0
H1333 H 0.3093 1.02103 0.8366 0.0
H1334 H 0.37276 1.02088 0.85246 0.0
H1335 H 0.3279 1.0088 0.85565 0.0
H1336 H 0.40181 0.99487 0.84011 0.0
H1337 H 0.44696 1.00691 0.83691 0.0
H1338 H 0.43395 0.99758 0.81048 0.0
H1339 H 0.34659 0.02298 0.74007 0.0
H1340 H 0.4105 0.0391 0.74411 0.0
H1341 H 0.44323 0.02895 0.82081 0.0
C1342 C 0.2953 0.99354 0.81233 0.0
C1343 C 0.25739 0.98868 0.79549 0.0
C1344 C 0.25444 0.99328 0.77085 0.0
C1345 C 0.28726 1.00251 0.76331 0.0
C1346 C 0.32334 1.00716 0.78047 0.0
C1347 C 0.32779 1.0028 0.80445 0.0
C1348 C 0.36896 1.0096 0.81944 0.0
C1349 C 0.34318 1.01542 0.84239 0.0
C1350 C 0.41569 1.00177 0.82719 0.0
C1351 C 0.38647 1.01854 0.80022 0.0
C1352 C 0.35966 1.01694 0.77786 0.0
C1353 C 0.36789 0.02427 0.75749 0.0
C1354 C 0.40416 0.03348 0.76002 0.0
C1355 C 0.43217 0.0354 0.78276 0.0
C1356 C 0.42321 0.0277 0.80305 0.0
H1357 H 0.67223 0.516 0.53978 0.0
H1358 H 0.63233 0.50244 0.46617 0.0
H1359 H 0.56417 0.51764 0.46139 0.0
H1360 H 0.53892 0.52374 0.55808 0.0
H1361 H 0.55863 0.53683 0.57406 0.0
H1362 H 0.60437 0.52484 0.57186 0.0
H1363 H 0.67485 0.53821 0.55145 0.0
H1364 H 0.62938 0.55025 0.55364 0.0
H1365 H 0.65757 0.5463 0.52375 0.0
H1366 H 0.49919 0.53446 0.46454 0.0
H1367 H 0.44508 0.55166 0.47498 0.0
H1368 H 0.52719 0.55451 0.54635 0.0
C1369 C 0.64964 0.51624 0.52253 0.0
C1370 C 0.65801 0.50784 0.50342 0.0
C1371 C 0.62662 0.50855 0.48132 0.0
C1372 C 0.58777 0.51724 0.47834 0.0
C1373 C 0.5804 0.52528 0.49757 0.0
C1374 C 0.6106 0.52489 0.51921 0.0
C1375 C 0.59476 0.53461 0.537 0.0
C1376 C 0.57287 0.52971 0.56171 0.0
C1377 C 0.64195 0.54283 0.54173 0.0
C1378 C 0.55109 0.54054 0.52196 0.0
C1379 C 0.54331 0.535 0.4993 0.0
C1380 C 0.50499 0.53885 0.48227 0.0
C1381 C 0.47406 0.54863 0.48847 0.0
C1382 C 0.4814 0.55456 0.51153 0.0
C1383 C 0.52061 0.55034 0.52844 0.0
H1384 H 0.67189 0.78289 0.47285 0.0
H1385 H 0.67381 0.79852 0.5467 0.0
H1386 H 0.75521 0.78743 0.55729 0.0
H1387 H 0.7223 0.75437 0.49083 0.0
H1388 H 0.76317 0.75273 0.46328 0.0
H1389 H 0.70306 0.76126 0.46193 0.0
H1390 H 0.75712 0.77882 0.4458 0.0
H1391 H 0.81735 0.77033 0.44704 0.0
H1392 H 0.8135 0.78393 0.46362 0.0
H1393 H 0.83579 0.77445 0.56009 0.0
H1394 H 0.9133 0.76141 0.55391 0.0
H1395 H 0.86425 0.7553 0.47723 0.0
C1396 C 0.68913 0.7838 0.49135 0.0
C1397 C 0.66625 0.79144 0.50915 0.0
C1398 C 0.69064 0.79267 0.53293 0.0
C1399 C 0.73679 0.7864 0.53908 0.0
C1400 C 0.75879 0.77904 0.52109 0.0
C1401 C 0.73608 0.77776 0.49762 0.0
C1402 C 0.7695 0.76973 0.48133 0.0
C1403 C 0.7376 0.75888 0.47391 0.0
C1404 C 0.79062 0.77609 0.45808 0.0
C1405 C 0.81447 0.76673 0.49928 0.0
C1406 C 0.80704 0.77207 0.52223 0.0
C1407 C 0.84222 0.77031 0.54213 0.0
C1408 C 0.88607 0.76291 0.5385 0.0
C1409 C 0.89512 0.75753 0.51506 0.0
C1410 C 0.85882 0.75951 0.49518 0.0
H1411 H 0.93313 0.52518 0.7872 0.0
H1412 H 0.87296 0.54538 0.72476 0.0
H1413 H 0.79779 0.53183 0.72025 0.0
H1414 H 0.89879 0.49702 0.76144 0.0
H1415 H 0.88024 0.49098 0.7913 0.0
H1416 H 0.92956 0.50229 0.78978 0.0
H1417 H 0.87413 0.51467 0.8208 0.0
H1418 H 0.82462 0.5034 0.82238 0.0
H1419 H 0.80544 0.51788 0.81366 0.0
H1420 H 0.72826 0.51588 0.72221 0.0
H1421 H 0.67099 0.49905 0.73045 0.0
H1422 H 0.77513 0.48907 0.79187 0.0
C1423 C 0.90449 0.52675 0.77244 0.0
C1424 C 0.9095 0.53652 0.75644 0.0
C1425 C 0.87025 0.53817 0.73758 0.0
C1426 C 0.82728 0.53043 0.73474 0.0
C1427 C 0.82349 0.52098 0.75085 0.0
C1428 C 0.86108 0.51909 0.76934 0.0
C1429 C 0.84745 0.50825 0.78422 0.0
C1430 C 0.89164 0.49909 0.78152 0.0
C1431 C 0.8373 0.51123 0.81191 0.0
C1432 C 0.79638 0.50436 0.77125 0.0
C1433 C 0.78335 0.51182 0.75202 0.0
C1434 C 0.73813 0.51001 0.73729 0.0
C1435 C 0.70545 0.50036 0.74226 0.0
C1436 C 0.71756 0.4925 0.76193 0.0
C1437 C 0.76405 0.49468 0.77656 0.0
H1438 H 0.08227 0.27543 0.53384 0.0
H1439 H 0.19241 0.30185 0.50807 0.0
H1440 H 0.26425 0.28744 0.50638 0.0
H1441 H 0.17833 0.26015 0.57326 0.0
H1442 H 0.15265 0.24598 0.5658 0.0
H1443 H 0.10898 0.25838 0.56523 0.0
H1444 H 0.08296 0.2536 0.51941 0.0
H1445 H 0.12659 0.2412 0.51985 0.0
H1446 H 0.13451 0.25213 0.49608 0.0
H1447 H 0.3249 0.2702 0.50664 0.0
H1448 H 0.36981 0.25134 0.50882 0.0
H1449 H 0.22303 0.23568 0.53569 0.0
C1450 C 0.12154 0.2782 0.52798 0.0
C1451 C 0.13092 0.28986 0.52075 0.0
C1452 C 0.1832 0.29302 0.51313 0.0
C1453 C 0.22473 0.28487 0.51231 0.0
C1454 C 0.21405 0.27349 0.51925 0.0
C1455 C 0.16385 0.27012 0.52701 0.0
C1456 C 0.16349 0.25724 0.53325 0.0
C1457 C 0.15007 0.25533 0.56104 0.0
C1458 C 0.12457 0.25065 0.51612 0.0
C1459 C 0.22114 0.25395 0.52763 0.0
C1460 C 0.24949 0.26349 0.51965 0.0
C1461 C 0.30313 0.26267 0.51304 0.0
C1462 C 0.32854 0.25184 0.5145 0.0
C1463 C 0.30068 0.24181 0.52256 0.0
C1464 C 0.24599 0.24302 0.5293 0.0
H1465 H 0.27666 0.49061 0.2941 0.0
H1466 H 0.17298 0.49908 0.23155 0.0
H1467 H 0.22835 0.51618 0.22246 0.0
H1468 H 0.30271 0.52 0.31392 0.0
H1469 H 0.37137 0.51723 0.3219 0.0
H1470 H 0.32294 0.50575 0.32389 0.0
H1471 H 0.38062 0.49309 0.29435 0.0
H1472 H 0.42919 0.50454 0.29223 0.0
H1473 H 0.39975 0.49866 0.26413 0.0
H1474 H 0.29651 0.53242 0.2196 0.0
H1475 H 0.37052 0.54635 0.22342 0.0
H1476 H 0.43111 0.5274 0.28756 0.0
C1477 C 0.26545 0.49597 0.27838 0.0
C1478 C 0.21974 0.49332 0.26362 0.0
C1479 C 0.20693 0.50083 0.24345 0.0
C1480 C 0.23852 0.51059 0.23801 0.0
C1481 C 0.28322 0.51286 0.25282 0.0
C1482 C 0.29665 0.50577 0.27263 0.0
C1483 C 0.34694 0.51012 0.28558 0.0
C1484 C 0.33528 0.51348 0.31294 0.0
C1485 C 0.39178 0.50106 0.28397 0.0
C1486 C 0.35989 0.52075 0.2699 0.0
C1487 C 0.3225 0.52218 0.25113 0.0
C1488 C 0.32582 0.53138 0.23431 0.0
C1489 C 0.36809 0.53932 0.23673 0.0
C1490 C 0.4071 0.53813 0.25585 0.0
C1491 C 0.40262 0.52861 0.27257 0.0
H1492 H 0.02771 0.99687 0.48731 0.0
H1493 H 0.09272 0.99156 0.56181 0.0
H1494 H 0.0489 1.00943 0.57631 0.0
H1495 H 0.04193 0.02774 0.48661 0.0
H1496 H 0.98038 0.03046 0.47019 0.0
H1497 H 0.01529 1.01699 0.4655 0.0
H1498 H 0.93051 1.00563 0.47809 0.0
H1499 H 0.89531 1.01907 0.4828 0.0
H1500 H 0.89904 1.00862 0.50778 0.0
H1501 H 1.0009 0.02804 0.58283 0.0
H1502 H 0.9511 0.04638 0.58109 0.0
H1503 H 0.9149 0.04018 0.50269 0.0
C1504 C 0.0322 0.9994 0.50673 0.0
C1505 C 0.0642 0.99277 0.52334 0.0
C1506 C 0.06938 0.99651 0.54856 0.0
C1507 C 0.04425 1.00664 0.55705 0.0
C1508 C 0.01367 1.01301 0.54021 0.0
C1509 C 1.00731 1.00957 0.51559 0.0
C1510 C 0.97308 1.01825 0.50135 0.0
C1511 C 1.00456 0.02368 0.47963 0.0
C1512 C 0.92141 1.01255 0.49195 0.0
C1513 C 0.96161 0.02712 0.5218 0.0
C1514 C 0.98547 0.02386 0.54404 0.0
C1515 C 0.982 0.03067 0.56553 0.0
C1516 C 0.95382 0.04115 0.5643 0.0
C1517 C 0.9292 0.04482 0.54175 0.0
C1518 C 0.93279 0.03759 0.52026 0.0
H1519 H 0.85824 0.26494 0.78945 0.0
H1520 H 0.91884 0.24694 0.72388 0.0
H1521 H 0.99131 0.26123 0.72041 0.0
H1522 H 0.88677 0.29409 0.76731 0.0
H1523 H 0.90563 0.29937 0.79787 0.0
H1524 H 0.85788 0.28779 0.79504 0.0
H1525 H 0.91626 0.27492 0.82377 0.0
H1526 H 0.96422 0.28645 0.82664 0.0
H1527 H 0.98506 0.27239 0.81564 0.0
H1528 H 0.05906 0.27748 0.7244 0.0
H1529 H 0.11624 0.29401 0.73586 0.0
H1530 H 1.01049 0.30188 0.79809 0.0
C1531 C 0.88632 0.26404 0.77419 0.0
C1532 C 0.88245 0.25466 0.75702 0.0
C1533 C 0.9209 0.25384 0.73756 0.0
C1534 C 0.96223 0.26201 0.73531 0.0
C1535 C 0.96501 0.27105 0.7526 0.0
C1536 C 0.92801 0.27213 0.77166 0.0
C1537 C 0.94056 0.28258 0.788 0.0
C1538 C 0.895 0.29148 0.78699 0.0
C1539 C 0.95222 0.27886 0.81512 0.0
C1540 C 0.99047 0.28716 0.77525 0.0
C1541 C 1.00383 0.28041 0.75482 0.0
C1542 C 0.04873 0.28285 0.74032 0.0
C1543 C 0.08101 0.29236 0.74695 0.0
C1544 C 0.0686 0.29941 0.76799 0.0
C1545 C 0.0221 0.29672 0.78208 0.0
H1546 H 0.12841 0.78967 0.29314 0.0
H1547 H 0.04477 0.81207 0.24135 0.0
H1548 H 0.98192 0.79603 0.23154 0.0
H1549 H 0.11739 0.76358 0.2556 0.0
H1550 H 0.10982 0.75426 0.28243 0.0
H1551 H 0.14711 0.76753 0.28517 0.0
H1552 H 0.08646 0.774 0.3219 0.0
H1553 H 0.0488 0.76078 0.31918 0.0
H1554 H 0.01526 0.77457 0.3174 0.0
H1555 H 0.92416 0.77728 0.22963 0.0
H1556 H 0.88502 0.75753 0.23211 0.0
H1557 H 1.01032 0.74737 0.28339 0.0
C1558 C 0.09681 0.79123 0.27976 0.0
C1559 C 0.09132 0.80223 0.26819 0.0
C1560 C 0.04995 0.80377 0.25041 0.0
C1561 C 0.01387 0.7947 0.24485 0.0
C1562 C 0.02001 0.78402 0.25692 0.0
C1563 C 0.06115 0.78224 0.27372 0.0
C1564 C 0.06048 0.76992 0.28367 0.0
C1565 C 0.11174 0.76344 0.27627 0.0
C1566 C 0.05225 0.76982 0.31223 0.0
C1567 C 0.01226 0.765 0.2701 0.0
C1568 C 0.9889 0.77328 0.25494 0.0
C1569 C 0.94266 0.77075 0.24128 0.0
C1570 C 0.92042 0.75953 0.24289 0.0
C1571 C 0.94468 0.75082 0.25773 0.0
C1572 C 0.99115 0.75373 0.27155 0.0
H1573 H 0.1239 0.51957 0.99438 0.0
H1574 H 0.04602 0.4869 1.01109 0.0
H1575 H 0.95925 0.49673 0.01189 0.0
H1576 H 0.03753 0.53749 0.03414 0.0
H1577 H 0.03619 0.54953 0.01271 0.0
H1578 H 0.09336 0.54007 0.01362 0.0
H1579 H 0.08341 0.53615 0.9661 0.0
H1580 H 0.02622 0.54559 0.96504 0.0
H1581 H 0.02079 0.53086 0.95407 0.0
H1582 H 0.88004 0.50971 1.01017 0.0
H1583 H 0.81309 0.52517 1.00643 0.0
H1584 H 0.93851 0.55008 0.99132 0.0
C1585 C 0.08867 0.5145 0.9984 0.0
C1586 C 0.09244 0.50233 1.00237 0.0
C1587 C 0.04485 0.4961 1.00743 0.0
C1588 C 0.99505 0.50165 1.00812 0.0
C1589 C 0.99266 0.51354 1.00385 0.0
C1590 C 0.03806 0.51995 0.99916 0.0
C1591 C 0.02346 0.53265 0.99496 0.0
C1592 C 0.04917 0.54039 0.01506 0.0
C1593 C 0.03943 0.53654 0.96847 0.0
C1594 C 0.96292 0.53231 0.99789 0.0
C1595 C 0.94634 0.52116 1.00303 0.0
C1596 C 0.89259 0.51848 1.00614 0.0
C1597 C 0.85465 0.52735 1.00381 0.0
C1598 C 0.86994 0.53891 0.9984 0.0
C1599 C 0.92523 0.54139 0.99564 0.0
H1600 H 0.31839 0.06857 0.93796 0.0
H1601 H 0.36692 0.10144 0.9701 0.0
H1602 H 0.40098 0.10754 0.92829 0.0
H1603 H 0.42872 0.06501 0.8958 0.0
H1604 H 0.38774 0.05834 0.87206 0.0
H1605 H 0.3701 0.05695 0.90458 0.0
H1606 H 0.27661 0.06535 0.89443 0.0
H1607 H 0.2948 0.06715 0.86203 0.0
H1608 H 0.27135 0.0794 0.87993 0.0
H1609 H 0.42969 0.10966 0.882 0.0
H1610 H 0.46011 0.10669 0.83825 0.0
H1611 H 0.38688 0.07281 0.83734 0.0
C1612 C 0.33663 0.07704 0.93637 0.0
C1613 C 0.34012 0.08454 0.95728 0.0
C1614 C 0.3645 0.0955 0.95439 0.0
C1615 C 0.38321 0.09907 0.93065 0.0
C1616 C 0.37695 0.09157 0.91018 0.0
C1617 C 0.35488 0.08071 0.91306 0.0
C1618 C 0.35325 0.07406 0.88861 0.0
C1619 C 0.38698 0.06294 0.89037 0.0
C1620 C 0.29557 0.07134 0.8808 0.0
C1621 C 0.37823 0.08282 0.87124 0.0
C1622 C 0.39141 0.09292 0.88388 0.0
C1623 C 0.41859 0.10188 0.87192 0.0
C1624 C 0.43495 0.10021 0.84694 0.0
C1625 C 0.42353 0.08975 0.83415 0.0
C1626 C 0.3935 0.08112 0.84627 0.0
H1627 H 1.00863 0.21912 0.90248 0.0
H1628 H 0.91065 0.19399 0.94149 0.0
H1629 H 0.87874 0.18653 0.90035 0.0
H1630 H 0.91654 0.22653 0.85775 0.0
H1631 H 0.96518 0.22865 0.83332 0.0
H1632 H 0.98409 0.2305 0.86549 0.0
H1633 H 0.05982 0.21543 0.85915 0.0
H1634 H 0.03985 0.21332 0.82701 0.0
H1635 H 0.0438 0.20111 0.84792 0.0
H1636 H 0.85033 0.18363 0.85483 0.0
H1637 H 0.81947 0.18733 0.81158 0.0
H1638 H 0.93826 0.21411 0.80338 0.0
C1639 C 0.98104 0.21191 0.9026 0.0
C1640 C 0.96225 0.2071 0.92529 0.0
C1641 C 0.92559 0.1978 0.92435 0.0
C1642 C 0.90778 0.19345 0.90107 0.0
C1643 C 0.92754 0.19843 0.87903 0.0
C1644 C 0.96322 0.20751 0.87978 0.0
C1645 C 0.97438 0.21233 0.854 0.0
C1646 C 0.95909 0.22526 0.85257 0.0
C1647 C 0.03295 0.21043 0.84659 0.0
C1648 C 0.93766 0.20487 0.8384 0.0
C1649 C 0.91188 0.19669 0.85301 0.0
C1650 C 0.87137 0.18977 0.84316 0.0
C1651 C 0.85461 0.19179 0.81842 0.0
C1652 C 0.87811 0.20068 0.80394 0.0
C1653 C 0.92178 0.20686 0.81365 0.0
H1654 H 0.41916 0.23395 0.42699 0.0
H1655 H 0.48415 0.1993 0.4344 0.0
H1656 H 0.46356 0.19543 0.38985 0.0
H1657 H 0.31057 0.22628 0.39262 0.0
H1658 H 0.30947 0.23898 0.37302 0.0
H1659 H 0.33865 0.23972 0.40371 0.0
H1660 H 0.42726 0.24712 0.38452 0.0
H1661 H 0.39818 0.24642 0.35365 0.0
H1662 H 0.45944 0.23883 0.36017 0.0
H1663 H 0.42423 0.19453 0.34557 0.0
H1664 H 0.36766 0.19668 0.30752 0.0
H1665 H 0.32835 0.23168 0.33041 0.0
C1666 C 0.43065 0.22566 0.4191 0.0
C1667 C 0.45357 0.21697 0.43421 0.0
C1668 C 0.46684 0.20615 0.42319 0.0
C1669 C 0.45542 0.20387 0.39784 0.0
C1670 C 0.43109 0.21253 0.38367 0.0
C1671 C 0.41928 0.22325 0.39396 0.0
C1672 C 0.38794 0.23066 0.37587 0.0
C1673 C 0.33345 0.2341 0.38697 0.0
C1674 C 0.42014 0.24139 0.36809 0.0
C1675 C 0.38187 0.22228 0.35423 0.0
C1676 C 0.40791 0.21194 0.35866 0.0
C1677 C 0.40445 0.20267 0.34176 0.0
C1678 C 0.37247 0.20395 0.32018 0.0
C1679 C 0.34383 0.21433 0.31614 0.0
C1680 C 0.34997 0.22364 0.33306 0.0
H1681 H 0.87077 0.09069 0.43654 0.0
H1682 H 0.77867 0.05916 0.44512 0.0
H1683 H 0.79896 0.05388 0.40101 0.0
H1684 H 0.82961 0.09667 0.37269 0.0
H1685 H 0.89379 0.10241 0.36397 0.0
H1686 H 0.87118 0.10357 0.39591 0.0
H1687 H 0.95723 0.09325 0.4109 0.0
H1688 H 0.97976 0.09192 0.37899 0.0
H1689 H 0.97391 0.0792 0.39833 0.0
H1690 H 0.83411 0.05171 0.35628 0.0
H1691 H 0.87133 0.05382 0.31369 0.0
H1692 H 0.93737 0.08723 0.33442 0.0
C1693 C 0.85451 0.08269 0.42913 0.0
C1694 C 0.82323 0.0753 0.44428 0.0
C1695 C 0.80243 0.06498 0.4338 0.0
C1696 C 0.81409 0.06188 0.40884 0.0
C1697 C 0.84603 0.06928 0.39458 0.0
C1698 C 0.86515 0.07957 0.40428 0.0
C1699 C 0.89758 0.08616 0.38506 0.0
C1700 C 0.87147 0.0979 0.37905 0.0
C1701 C 0.95555 0.08772 0.39385 0.0
C1702 C 0.89425 0.07795 0.36296 0.0
C1703 C 0.8648 0.0682 0.36887 0.0
C1704 C 0.85695 0.05933 0.35148 0.0
C1705 C 0.87864 0.06058 0.32735 0.0
C1706 C 0.90746 0.07068 0.32064 0.0
C1707 C 0.91567 0.0794 0.3389 0.0
H1708 H 0.64497 0.96986 0.08264 0.0
H1709 H 0.75665 0.94242 0.10082 0.0
H1710 H 0.73246 0.94421 0.1456 0.0
H1711 H 0.66512 0.98722 0.13994 0.0
H1712 H 0.59558 0.99109 0.14168 0.0
H1713 H 0.62615 0.98841 0.11167 0.0
H1714 H 0.55418 0.97295 0.10186 0.0
H1715 H 0.5236 0.97552 0.13184 0.0
H1716 H 0.54438 0.9611 0.12331 0.0
H1717 H 0.68952 0.94808 0.18867 0.0
H1718 H 0.63266 0.95374 0.22483 0.0
H1719 H 0.55017 0.97841 0.17737 0.0
C1720 C 0.66528 0.96438 0.09604 0.0
C1721 C 0.703 0.95604 0.08811 0.0
C1722 C 0.72786 0.94893 0.10636 0.0
C1723 C 0.71434 0.94988 0.1319 0.0
C1724 C 0.67603 0.95801 0.13899 0.0
C1725 C 0.6522 0.96519 0.12152 0.0
C1726 C 0.61002 0.97276 0.13352 0.0
C1727 C 0.62514 0.98563 0.13159 0.0
C1728 C 0.5548 0.97044 0.12194 0.0
C1729 C 0.6129 0.96856 0.16034 0.0
C1730 C 0.65144 0.96014 0.16335 0.0
C1731 C 0.65957 0.95475 0.18651 0.0
C1732 C 0.62714 0.95801 0.20697 0.0
C1733 C 0.58687 0.9665 0.20404 0.0
C1734 C 0.5805 0.97188 0.1804 0.0
H1735 H 0.08654 0.81421 0.08589 0.0
H1736 H 0.11831 0.84895 0.05927 0.0
H1737 H 0.17597 0.85244 0.09651 0.0
H1738 H 0.07422 0.82073 0.14882 0.0
H1739 H 0.10592 0.8077 0.15995 0.0
H1740 H 0.07271 0.80771 0.1301 0.0
H1741 H 0.15935 0.80064 0.10846 0.0
H1742 H 0.19286 0.80054 0.13834 0.0
H1743 H 0.22023 0.80871 0.11264 0.0
H1744 H 0.22042 0.85265 0.14021 0.0
H1745 H 0.2513 0.84929 0.1837 0.0
H1746 H 0.1927 0.81401 0.17978 0.0
C1747 C 0.10638 0.82251 0.08761 0.0
C1748 C 0.09792 0.83134 0.06972 0.0
C1749 C 0.12464 0.84204 0.07264 0.0
C1750 C 0.15725 0.84409 0.09379 0.0
C1751 C 0.16346 0.83525 0.11149 0.0
C1752 C 0.13934 0.82459 0.10826 0.0
C1753 C 0.14999 0.81663 0.13021 0.0
C1754 C 0.09761 0.81299 0.14302 0.0
C1755 C 0.18255 0.806 0.12191 0.0
C1756 C 0.18258 0.82453 0.14687 0.0
C1757 C 0.19017 0.83524 0.13583 0.0
C1758 C 0.21553 0.84422 0.14872 0.0
C1759 C 0.23292 0.84223 0.17346 0.0
C1760 C 0.22521 0.83133 0.18511 0.0
C1761 C 0.20045 0.82235 0.17131 0.0
H1762 H 0.71257 0.82236 0.67867 0.0
H1763 H 0.83823 0.84737 0.6652 0.0
H1764 H 0.80873 0.84923 0.62115 0.0
H1765 H 0.71451 0.80861 0.61596 0.0
H1766 H 0.64305 0.807 0.61554 0.0
H1767 H 0.67853 0.80667 0.6449 0.0
H1768 H 0.6187 0.82328 0.66167 0.0
H1769 H 0.58348 0.82375 0.63232 0.0
H1770 H 0.61463 0.83666 0.64443 0.0
H1771 H 0.75994 0.84931 0.57841 0.0
H1772 H 0.69715 0.84748 0.54247 0.0
H1773 H 0.60335 0.823 0.58547 0.0
C1774 C 0.7349 0.82799 0.66632 0.0
C1775 C 0.77819 0.83462 0.67546 0.0
C1776 C 0.80523 0.84212 0.65868 0.0
C1777 C 0.7887 0.84325 0.63357 0.0
C1778 C 0.74487 0.83684 0.62537 0.0
C1779 C 0.71862 0.82931 0.6413 0.0
C1780 C 0.67052 0.82398 0.62859 0.0
C1781 C 0.67707 0.81078 0.6261 0.0
C1782 C 0.6188 0.82711 0.64259 0.0
C1783 C 0.6731 0.82984 0.60324 0.0
C1784 C 0.71648 0.83713 0.60144 0.0
C1785 C 0.72598 0.84356 0.57966 0.0
C1786 C 0.69013 0.8425 0.55932 0.0
C1787 C 0.64499 0.83518 0.56107 0.0
C1788 C 0.63708 0.82877 0.58339 0.0
H1789 H 0.13717 0.95009 0.61014 0.0
H1790 H 0.23317 0.98031 0.59311 0.0
H1791 H 0.21359 0.98825 0.63537 0.0
H1792 H 0.03533 0.96456 0.64425 0.0
H1793 H 0.02703 0.95315 0.66691 0.0
H1794 H 0.04981 0.94977 0.63574 0.0
H1795 H 0.13386 0.93977 0.65389 0.0
H1796 H 0.11093 0.94296 0.68513 0.0
H1797 H 0.17617 0.94764 0.67528 0.0
H1798 H 0.17952 0.99314 0.67949 0.0
H1799 H 0.14244 0.99365 0.72241 0.0
H1800 H 0.07004 0.95998 0.71008 0.0
C1801 C 0.15457 0.95834 0.61532 0.0
C1802 C 0.18685 0.96457 0.59828 0.0
C1803 C 0.20878 0.97532 0.60589 0.0
C1804 C 0.19749 0.97994 0.6298 0.0
C1805 C 0.16451 0.97365 0.64592 0.0
C1806 C 0.14403 0.96301 0.63905 0.0
C1807 C 0.11022 0.95786 0.65976 0.0
C1808 C 0.05216 0.95625 0.65114 0.0
C1809 C 0.13425 0.94638 0.66907 0.0
C1810 C 0.11459 0.96727 0.67945 0.0
C1811 C 0.14569 0.97637 0.67111 0.0
C1812 C 0.15524 0.98605 0.68616 0.0
C1813 C 0.13362 0.98629 0.7105 0.0
C1814 C 0.10304 0.97688 0.71971 0.0
C1815 C 0.09297 0.96735 0.70368 0.0
H1816 H 0.34684 0.57491 0.43212 0.0
H1817 H 0.243 0.60456 0.42143 0.0
H1818 H 0.26618 0.60483 0.37638 0.0
H1819 H 0.449 0.58462 0.39488 0.0
H1820 H 0.4669 0.57062 0.38245 0.0
H1821 H 0.4357 0.57168 0.41267 0.0
H1822 H 0.36066 0.55778 0.3981 0.0
H1823 H 0.39189 0.5566 0.36778 0.0
H1824 H 0.32324 0.56109 0.37017 0.0
H1825 H 0.30952 0.60301 0.33271 0.0
H1826 H 0.3687 0.59926 0.29611 0.0
H1827 H 0.44308 0.57111 0.33691 0.0
C1828 C 0.32776 0.58128 0.42025 0.0
C1829 C 0.29285 0.58967 0.43037 0.0
C1830 C 0.26961 0.59798 0.41413 0.0
C1831 C 0.28254 0.5982 0.38847 0.0
C1832 C 0.31849 0.59001 0.37925 0.0
C1833 C 0.34033 0.58165 0.39472 0.0
C1834 C 0.38124 0.57442 0.38101 0.0
C1835 C 0.43645 0.5754 0.39349 0.0
C1836 C 0.36315 0.56172 0.37915 0.0
C1837 C 0.38037 0.58022 0.35565 0.0
C1838 C 0.34352 0.5891 0.35467 0.0
C1839 C 0.33805 0.59598 0.33324 0.0
C1840 C 0.37169 0.59381 0.31253 0.0
C1841 C 0.41063 0.58495 0.31369 0.0
C1842 C 0.41392 0.578 0.3354 0.0
H1843 H 0.84206 0.73667 0.35695 0.0
H1844 H 0.76676 0.70359 0.34186 0.0
H1845 H 0.77839 0.69812 0.38632 0.0
H1846 H 0.94119 0.7266 0.39404 0.0
H1847 H 0.9423 0.73863 0.41563 0.0
H1848 H 0.9186 0.74071 0.38422 0.0
H1849 H 0.82924 0.74872 0.40154 0.0
H1850 H 0.85288 0.74661 0.43311 0.0
H1851 H 0.79096 0.74014 0.42323 0.0
H1852 H 0.81343 0.69494 0.43088 0.0
H1853 H 0.8678 0.69464 0.46985 0.0
H1854 H 0.91724 0.7299 0.45569 0.0
C1855 C 0.82639 0.72842 0.36312 0.0
C1856 C 0.80318 0.7206 0.34582 0.0
C1857 C 0.78407 0.70981 0.35471 0.0
C1858 C 0.79057 0.70661 0.38001 0.0
C1859 C 0.81541 0.71438 0.39639 0.0
C1860 C 0.83227 0.72515 0.38827 0.0
C1861 C 0.86252 0.73149 0.40869 0.0
C1862 C 0.9195 0.73452 0.40013 0.0
C1863 C 0.83207 0.74238 0.41714 0.0
C1864 C 0.86275 0.72239 0.4291 0.0
C1865 C 0.83455 0.71263 0.42198 0.0
C1866 C 0.83427 0.70267 0.43691 0.0
C1867 C 0.86488 0.70257 0.45913 0.0
C1868 C 0.89537 0.71235 0.46605 0.0
C1869 C 0.89281 0.72244 0.45118 0.0
H1870 H 0.37611 0.69556 0.94818 0.0
H1871 H 0.44377 0.7286 0.97035 0.0
H1872 H 0.42877 0.73606 0.92738 0.0
H1873 H 0.43142 0.69521 0.88471 0.0
H1874 H 0.37307 0.68837 0.87163 0.0
H1875 H 0.39159 0.68564 0.9037 0.0
H1876 H 0.29767 0.69222 0.9181 0.0
H1877 H 0.27913 0.69514 0.88614 0.0
H1878 H 0.27377 0.70639 0.90947 0.0
H1879 H 0.39962 0.74027 0.88265 0.0
H1880 H 0.36895 0.7403 0.83874 0.0
H1881 H 0.32295 0.7042 0.84551 0.0
C1882 C 0.3885 0.70433 0.94393 0.0
C1883 C 0.41123 0.71151 0.96263 0.0
C1884 C 0.42683 0.72291 0.95629 0.0
C1885 C 0.41806 0.72724 0.93198 0.0
C1886 C 0.39425 0.72 0.91418 0.0
C1887 C 0.38058 0.70872 0.91977 0.0
C1888 C 0.35562 0.70269 0.89736 0.0
C1889 C 0.38998 0.69237 0.88885 0.0
C1890 C 0.29814 0.69889 0.90312 0.0
C1891 C 0.35667 0.71238 0.87828 0.0
C1892 C 0.37875 0.72232 0.88839 0.0
C1893 C 0.38275 0.73249 0.87453 0.0
C1894 C 0.36483 0.73244 0.84958 0.0
C1895 C 0.34346 0.72225 0.83854 0.0
C1896 C 0.33906 0.71213 0.8533 0.0
H1897 H 0.99753 0.58212 0.84504 0.0
H1898 H 0.87544 0.59472 0.7943 0.0
H1899 H 0.81967 0.60018 0.8309 0.0
H1900 H 0.9127 0.56886 0.88689 0.0
H1901 H 0.95115 0.57232 0.91445 0.0
H1902 H 0.98369 0.57105 0.88458 0.0
H1903 H 0.02206 0.59176 0.88976 0.0
H1904 H 0.98929 0.59311 0.9197 0.0
H1905 H 0.97745 0.60371 0.89559 0.0
H1906 H 0.77322 0.6018 0.87279 0.0
H1907 H 0.73882 0.59897 0.9157 0.0
H1908 H 0.89223 0.58559 0.93908 0.0
C1909 C 0.95948 0.58623 0.84147 0.0
C1910 C 0.9409 0.58802 0.8167 0.0
C1911 C 0.89065 0.59333 0.81305 0.0
C1912 C 0.85885 0.59648 0.83375 0.0
C1913 C 0.87818 0.59437 0.85791 0.0
C1914 C 0.92753 0.5894 0.8618 0.0
C1915 C 0.93749 0.58706 0.88937 0.0
C1916 C 0.94677 0.57405 0.89408 0.0
C1917 C 0.98435 0.59435 0.89918 0.0
C1918 C 0.88518 0.59111 0.90051 0.0
C1919 C 0.85178 0.59545 0.88208 0.0
C1920 C 0.79947 0.59867 0.88738 0.0
C1921 C 0.78032 0.59706 0.91183 0.0
C1922 C 0.81332 0.59232 0.93077 0.0
C1923 C 0.86688 0.58964 0.92519 0.0
H1924 H 0.70827 0.44476 0.57569 0.0
H1925 H 0.59545 0.46782 0.54016 0.0
H1926 H 0.54463 0.46917 0.58004 0.0
H1927 H 0.61165 0.43012 0.6199 0.0
H1928 H 0.66189 0.42959 0.64403 0.0
H1929 H 0.68094 0.4286 0.61153 0.0
H1930 H 0.74528 0.44591 0.61791 0.0
H1931 H 0.7256 0.44717 0.65014 0.0
H1932 H 0.71946 0.45946 0.62958 0.0
H1933 H 0.51642 0.4706 0.62676 0.0
H1934 H 0.51042 0.47072 0.67326 0.0
H1935 H 0.64357 0.44679 0.67667 0.0
C1936 C 0.67129 0.44962 0.57597 0.0
C1937 C 0.65498 0.45596 0.55475 0.0
C1938 C 0.60758 0.46259 0.55599 0.0
C1939 C 0.5789 0.4635 0.57869 0.0
C1940 C 0.59791 0.45761 0.59978 0.0
C1941 C 0.64252 0.45057 0.59831 0.0
C1942 C 0.65859 0.44605 0.6238 0.0
C1943 C 0.6529 0.4328 0.62488 0.0
C1944 C 0.71557 0.44988 0.63075 0.0
C1945 C 0.61752 0.45196 0.64013 0.0
C1946 C 0.58233 0.45851 0.62613 0.0
C1947 C 0.54326 0.46531 0.63775 0.0
C1948 C 0.54023 0.46537 0.6642 0.0
C1949 C 0.57642 0.45876 0.67873 0.0
C1950 C 0.615 0.45192 0.66628 0.0
H1951 H 0.10139 0.35178 0.58509 0.0
H1952 H 0.19598 0.32442 0.55202 0.0
H1953 H 0.24457 0.32206 0.59229 0.0
H1954 H 0.20672 0.36357 0.62942 0.0
H1955 H 0.15674 0.36621 0.65302 0.0
H1956 H 0.13977 0.36739 0.6203 0.0
H1957 H 0.06311 0.35269 0.62692 0.0
H1958 H 0.08047 0.35122 0.65939 0.0
H1959 H 0.07802 0.33858 0.63954 0.0
H1960 H 0.27053 0.32047 0.63936 0.0
H1961 H 0.27392 0.32066 0.68593 0.0
H1962 H 0.16001 0.34892 0.6868 0.0
C1963 C 0.13441 0.34574 0.58594 0.0
C1964 C 0.14608 0.33853 0.56528 0.0
C1965 C 0.18784 0.33033 0.56735 0.0
C1966 C 0.21513 0.32885 0.59029 0.0
C1967 C 0.20045 0.33571 0.61085 0.0
C1968 C 0.16166 0.34418 0.60857 0.0
C1969 C 0.14833 0.34957 0.63367 0.0
C1970 C 0.16384 0.36245 0.63413 0.0
C1971 C 0.089 0.3479 0.64025 0.0
C1972 C 0.18389 0.34254 0.65073 0.0
C1973 C 0.21436 0.33467 0.63742 0.0
C1974 C 0.24747 0.32677 0.6498 0.0
C1975 C 0.24911 0.32691 0.67629 0.0
C1976 C 0.21729 0.3348 0.69013 0.0
C1977 C 0.18505 0.34278 0.67693 0.0
H1978 H 0.63382 0.31154 0.07307 0.0
H1979 H 0.60523 0.34851 0.06638 0.0
H1980 H 0.62974 0.35114 0.11075 0.0
H1981 H 0.5811 0.30896 0.13716 0.0
H1982 H 0.62987 0.29826 0.1461 0.0
H1983 H 0.60828 0.29923 0.11397 0.0
H1984 H 0.7065 0.30161 0.09994 0.0
H1985 H 0.72834 0.30083 0.13205 0.0
H1986 H 0.74617 0.31314 0.1131 0.0
H1987 H 0.66443 0.35007 0.15473 0.0
H1988 H 0.69488 0.34509 0.19725 0.0
H1989 H 0.69679 0.30866 0.17678 0.0
C1990 C 0.63193 0.32017 0.08102 0.0
C1991 C 0.61756 0.32982 0.0661 0.0
C1992 C 0.61575 0.34096 0.07733 0.0
C1993 C 0.62996 0.34256 0.10253 0.0
C1994 C 0.64526 0.33293 0.11649 0.0
C1995 C 0.6453 0.32191 0.10633 0.0
C1996 C 0.66289 0.31303 0.12563 0.0
C1997 C 0.61785 0.30436 0.13104 0.0
C1998 C 0.71401 0.30679 0.11716 0.0
C1999 C 0.67342 0.32081 0.14808 0.0
C2000 C 0.66347 0.33226 0.14226 0.0
C2001 C 0.67178 0.34112 0.15959 0.0
C2002 C 0.68949 0.33819 0.1837 0.0
C2003 C 0.6982 0.32647 0.1905 0.0
C2004 C 0.6904 0.31769 0.17226 0.0
H2005 H 0.11395 0.4641 0.18356 0.0
H2006 H 0.95087 0.45414 0.16717 0.0
H2007 H 0.97404 0.45225 0.12217 0.0
H2008 H 0.1359 0.48098 0.1284 0.0
H2009 H 0.20431 0.47642 0.12524 0.0
H2010 H 0.17378 0.47693 0.15573 0.0
H2011 H 0.19833 0.45535 0.16265 0.0
H2012 H 0.22846 0.45474 0.13206 0.0
H2013 H 0.17659 0.44464 0.14025 0.0
H2014 H 0.01744 0.4517 0.07764 0.0
H2015 H 0.07493 0.45326 0.03974 0.0
H2016 H 0.20806 0.46297 0.08722 0.0
C2017 C 0.08284 0.46157 0.17059 0.0
C2018 C 0.03044 0.45932 0.17905 0.0
C2019 C 0.99129 0.45596 0.16125 0.0
C2020 C 1.00415 0.45482 0.1356 0.0
C2021 C 0.05646 0.45701 0.12797 0.0
C2022 C 0.09501 0.46033 0.14509 0.0
C2023 C 0.14825 0.46225 0.1325 0.0
C2024 C 0.16661 0.47489 0.13565 0.0
C2025 C 0.19038 0.45374 0.14246 0.0
C2026 C 0.13386 0.45959 0.10556 0.0
C2027 C 0.08088 0.45655 0.10308 0.0
C2028 C 0.05905 0.45402 0.07951 0.0
C2029 C 0.092 0.45485 0.05806 0.0
C2030 C 0.14612 0.4582 0.06037 0.0
C2031 C 0.16694 0.46037 0.08459 0.0
H2032 H 0.13452 0.17143 0.96216 0.0
H2033 H 0.12935 0.18159 0.04034 0.0
H2034 H 0.14091 0.16113 0.0529 0.0
H2035 H 0.05914 0.14518 0.96976 0.0
H2036 H 0.09668 0.13698 0.94703 0.0
H2037 H 0.09106 0.15247 0.94397 0.0
H2038 H 0.19392 0.15431 0.94333 0.0
H2039 H 0.19985 0.13881 0.94621 0.0
H2040 H 0.23244 0.14816 0.96855 0.0
H2041 H 0.15342 0.13954 0.05713 0.0
H2042 H 0.16343 0.11833 0.05274 0.0
H2043 H 0.15607 0.12163 0.97193 0.0
C2044 C 0.1367 0.16934 0.9819 0.0
C2045 C 0.13159 0.17816 1.00032 0.0
C2046 C 0.13329 0.17502 0.02595 0.0
C2047 C 0.13988 0.16341 0.03325 0.0
C2048 C 0.14412 0.15492 0.01471 0.0
C2049 C 0.14241 0.15771 0.98954 0.0
C2050 C 0.14588 0.14681 0.97348 0.0
C2051 C 0.09517 0.14527 0.95762 0.0
C2052 C 0.19601 0.14704 0.95691 0.0
C2053 C 0.14999 0.13748 0.99352 0.0
C2054 C 0.14928 0.14239 0.01717 0.0
C2055 C 0.15382 0.13562 0.03869 0.0
C2056 C 0.15958 0.12356 0.03604 0.0
C2057 C 0.16019 0.11826 0.01207 0.0
C2058 C 0.1549 0.12537 0.99053 0.0
H2059 H 0.0562 0.18448 0.29115 0.0
H2060 H 0.13593 0.18514 0.21899 0.0
H2061 H 0.09544 0.16637 0.20816 0.0
H2062 H 0.06997 0.15403 0.30187 0.0
H2063 H 1.00533 0.15235 0.31615 0.0
H2064 H 0.03956 0.16603 0.31816 0.0
H2065 H 0.95801 0.17634 0.29845 0.0
H2066 H 0.9235 0.16268 0.29641 0.0
H2067 H 0.93254 0.17137 0.26872 0.0
H2068 H 0.04819 0.14703 0.20541 0.0
H2069 H 0.99631 0.12902 0.21082 0.0
H2070 H 0.94615 0.14083 0.2844 0.0
C2071 C 0.06469 0.18076 0.27296 0.0
C2072 C 0.0999 0.18636 0.25607 0.0
C2073 C 0.11011 0.18103 0.23254 0.0
C2074 C 0.08693 0.17035 0.22609 0.0
C2075 C 0.05315 0.16501 0.24326 0.0
C2076 C 0.04181 0.17005 0.26618 0.0
C2077 C 1.00468 0.16236 0.28133 0.0
C2078 C 0.0315 0.15847 0.30583 0.0
C2079 C 0.95153 0.16856 0.28653 0.0
C2080 C 0.99714 0.15223 0.2634 0.0
C2081 C 0.02548 0.15393 0.24155 0.0
C2082 C 0.02567 0.14565 0.22243 0.0
C2083 C 0.99623 0.13539 0.22572 0.0
C2084 C 0.96665 0.13341 0.24795 0.0
C2085 C 0.96731 0.14206 0.26695 0.0
H2086 H 0.89506 0.86932 1.00934 0.0
H2087 H 0.76327 0.8467 0.02889 0.0
H2088 H 0.7018 0.86321 0.02724 0.0
H2089 H 0.85001 0.89422 0.04475 0.0
H2090 H 0.87001 0.90478 0.02178 0.0
H2091 H 0.90511 0.89119 0.02405 0.0
H2092 H 0.8868 0.88714 0.97713 0.0
H2093 H 0.85186 0.90074 0.97469 0.0
H2094 H 0.8192 0.88746 0.96566 0.0
H2095 H 0.65393 0.88185 0.02464 0.0
H2096 H 0.62101 0.90169 0.01982 0.0
H2097 H 0.78063 0.91325 1.00063 0.0
C2098 C 0.85322 0.86783 0.01307 0.0
C2099 C 0.83448 0.85659 0.01958 0.0
C2100 C 0.77926 0.85514 0.02441 0.0
C2101 C 0.74373 0.8645 0.02337 0.0
C2102 C 0.76342 0.87542 0.01735 0.0
C2103 C 0.81672 0.87719 0.01213 0.0
C2104 C 0.82661 0.88996 1.00624 0.0
C2105 C 0.86524 0.89535 0.02534 0.0
C2106 C 0.84735 0.89141 0.97933 0.0
C2107 C 0.77059 0.89501 1.00906 0.0
C2108 C 0.73508 0.88637 0.01548 0.0
C2109 C 0.68126 0.88867 0.01937 0.0
C2110 C 0.66282 0.90004 0.01638 0.0
C2111 C 0.69767 0.90917 1.00942 0.0
C2112 C 0.7527 0.90656 1.00596 0.0
H2113 H 0.86755 0.86922 0.78601 0.0
H2114 H 0.75396 0.88609 0.73666 0.0
H2115 H 0.80828 0.90379 0.7374 0.0
H2116 H 0.89734 0.89451 0.82379 0.0
H2117 H 0.96719 0.89115 0.82708 0.0
H2118 H 0.91948 0.87965 0.82288 0.0
H2119 H 0.97224 0.87223 0.78438 0.0
H2120 H 0.02007 0.88373 0.78842 0.0
H2121 H 0.98609 0.882 0.75888 0.0
H2122 H 0.87485 0.91962 0.74255 0.0
H2123 H 0.94819 0.93287 0.75284 0.0
H2124 H 0.02011 0.90637 0.79963 0.0
C2125 C 0.8542 0.87662 0.77529 0.0
C2126 C 0.8059 0.87619 0.7614 0.0
C2127 C 0.78996 0.88616 0.74782 0.0
C2128 C 0.82089 0.89628 0.74795 0.0
C2129 C 0.86797 0.89641 0.76178 0.0
C2130 C 0.88464 0.88688 0.7753 0.0
C2131 C 0.93686 0.88948 0.78877 0.0
C2132 C 0.92978 0.88865 0.81732 0.0
C2133 C 0.98145 0.88138 0.77955 0.0
C2134 C 0.94682 0.90192 0.78062 0.0
C2135 C 0.9065 0.90569 0.765 0.0
C2136 C 0.90646 0.9168 0.75492 0.0
C2137 C 0.94838 0.92432 0.76107 0.0
C2138 C 0.99015 0.92083 0.77735 0.0
C2139 C 0.98924 0.90937 0.78707 0.0
H2140 H 0.19686 0.68507 0.48739 0.0
H2141 H 0.08543 0.67957 0.54852 0.0
H2142 H 0.12376 0.66029 0.55573 0.0
H2143 H 0.19612 0.65592 0.46396 0.0
H2144 H 0.26628 0.65567 0.45665 0.0
H2145 H 0.23024 0.66917 0.45613 0.0
H2146 H 0.29749 0.67799 0.48767 0.0
H2147 H 0.33374 0.66451 0.48831 0.0
H2148 H 0.30939 0.67078 0.51708 0.0
H2149 H 0.17287 0.64135 0.55615 0.0
H2150 H 0.23056 0.62424 0.54995 0.0
H2151 H 0.312 0.64191 0.48936 0.0
C2152 C 0.18072 0.67988 0.50242 0.0
C2153 C 0.13747 0.68393 0.51717 0.0
C2154 C 0.11758 0.67671 0.53652 0.0
C2155 C 0.13944 0.66571 0.54095 0.0
C2156 C 0.1816 0.66198 0.52601 0.0
C2157 C 0.20224 0.66884 0.50719 0.0
C2158 C 0.24764 0.66268 0.49381 0.0
C2159 C 0.23425 0.66075 0.46599 0.0
C2160 C 0.30018 0.66939 0.49691 0.0
C2161 C 0.24909 0.65129 0.50803 0.0
C2162 C 0.21055 0.65108 0.5265 0.0
C2163 C 0.20328 0.64143 0.54177 0.0
C2164 C 0.2361 0.63172 0.53803 0.0
C2165 C 0.27598 0.63168 0.51922 0.0
C2166 C 0.28252 0.64168 0.50414 0.0
H2167 H 0.3264 0.65452 0.78069 0.0
H2168 H 0.23122 0.67245 0.72499 0.0
H2169 H 0.17609 0.65492 0.71952 0.0
H2170 H 0.32523 0.62634 0.75035 0.0
H2171 H 0.32034 0.6184 0.7793 0.0
H2172 H 0.35291 0.6323 0.77876 0.0
H2173 H 0.28951 0.63971 0.81356 0.0
H2174 H 0.25676 0.62583 0.81422 0.0
H2175 H 0.21841 0.63881 0.80897 0.0
H2176 H 0.13136 0.6354 0.71978 0.0
H2177 H 0.09852 0.61561 0.72637 0.0
H2178 H 0.22106 0.61003 0.78258 0.0
C2179 C 0.29435 0.65476 0.76714 0.0
C2180 C 0.28344 0.66498 0.75323 0.0
C2181 C 0.2403 0.66486 0.73606 0.0
C2182 C 0.20886 0.65489 0.73271 0.0
C2183 C 0.22068 0.64502 0.74671 0.0
C2184 C 0.2623 0.64487 0.76364 0.0
C2185 C 0.26576 0.63315 0.77664 0.0
C2186 C 0.31924 0.6272 0.77091 0.0
C2187 C 0.25709 0.63446 0.80503 0.0
C2188 C 0.21958 0.62674 0.76438 0.0
C2189 C 0.19432 0.63377 0.74712 0.0
C2190 C 0.15067 0.62986 0.73337 0.0
C2191 C 0.13199 0.61856 0.73744 0.0
C2192 C 0.15645 0.61114 0.75528 0.0
C2193 C 0.20133 0.61536 0.76875 0.0
H2194 H 0.81005 0.42159 0.51094 0.0
H2195 H 0.9682 0.43695 0.51157 0.0
H2196 H 1.00797 0.41761 0.51477 0.0
H2197 H 0.83841 0.39841 0.55452 0.0
H2198 H 0.7989 0.38776 0.5382 0.0
H2199 H 0.78155 0.40288 0.53625 0.0
H2200 H 0.78613 0.40183 0.48785 0.0
H2201 H 0.8033 0.3867 0.48965 0.0
H2202 H 0.84602 0.39658 0.47298 0.0
H2203 H 0.03203 0.39673 0.51818 0.0
H2204 H 0.03885 0.37554 0.52035 0.0
H2205 H 0.86635 0.37284 0.51602 0.0
C2206 C 0.85303 0.42092 0.51162 0.0
C2207 C 0.88561 0.43102 0.51127 0.0
C2208 C 0.9418 0.42956 0.51232 0.0
C2209 C 0.96505 0.41853 0.51399 0.0
C2210 C 0.93199 0.40885 0.5145 0.0
C2211 C 0.8772 0.40988 0.51324 0.0
C2212 C 0.85122 0.39793 0.51389 0.0
C2213 C 0.8154 0.39668 0.5371 0.0
C2214 C 0.81981 0.39563 0.48965 0.0
C2215 C 0.90002 0.39009 0.51569 0.0
C2216 C 0.94608 0.39664 0.51606 0.0
C2217 C 0.99622 0.3915 0.51771 0.0
C2218 C 0.99966 0.37938 0.51877 0.0
C2219 C 0.95334 0.37232 0.51806 0.0
C2220 C 0.9027 0.37786 0.5167 0.0
H2221 H 0.80915 0.38016 0.31139 0.0
H2222 H 0.80105 0.37065 0.23277 0.0
H2223 H 0.86654 0.38591 0.22278 0.0
H2224 H 0.82123 0.41122 0.30169 0.0
H2225 H 0.86682 0.41319 0.32745 0.0
H2226 H 0.81854 0.40165 0.32831 0.0
H2227 H 0.8945 0.38678 0.33519 0.0
H2228 H 0.94303 0.39826 0.33419 0.0
H2229 H 0.94887 0.3861 0.31313 0.0
H2230 H 0.93381 0.40231 0.22129 0.0
H2231 H 0.99698 0.41842 0.22862 0.0
H2232 H 0.96102 0.41728 0.30809 0.0
C2233 C 0.82054 0.38135 0.29202 0.0
C2234 C 0.7997 0.37411 0.27288 0.0
C2235 C 0.81668 0.37594 0.24784 0.0
C2236 C 0.85377 0.38464 0.24194 0.0
C2237 C 0.87386 0.39152 0.26127 0.0
C2238 C 0.85774 0.38999 0.28581 0.0
C2239 C 0.88598 0.39846 0.30311 0.0
C2240 C 0.84574 0.40662 0.31589 0.0
C2241 C 0.92012 0.39201 0.32255 0.0
C2242 C 0.9206 0.40495 0.28451 0.0
C2243 C 0.91289 0.40085 0.26045 0.0
C2244 C 0.9401 0.40558 0.24008 0.0
C2245 C 0.97585 0.41476 0.2444 0.0
C2246 C 0.98451 0.41913 0.26891 0.0
C2247 C 0.95634 0.41406 0.28916 0.0
H2248 H 0.65749 0.11599 0.53514 0.0
H2249 H 0.7989 0.13364 0.50798 0.0
H2250 H 0.74854 0.15185 0.50541 0.0
H2251 H 0.56282 0.13156 0.49584 0.0
H2252 H 0.51187 0.13225 0.51962 0.0
H2253 H 0.55869 0.12041 0.51937 0.0
H2254 H 0.58526 0.12517 0.56512 0.0
H2255 H 0.53864 0.13705 0.56549 0.0
H2256 H 0.60781 0.13957 0.57289 0.0
H2257 H 0.68471 0.16821 0.50617 0.0
H2258 H 0.61046 0.18191 0.50973 0.0
H2259 H 0.50716 0.15416 0.53541 0.0
C2260 C 0.67772 0.12366 0.52848 0.0
C2261 C 0.7326 0.12332 0.52198 0.0
C2262 C 0.75744 0.13363 0.51354 0.0
C2263 C 0.729 0.14405 0.51185 0.0
C2264 C 0.67541 0.14411 0.5186 0.0
C2265 C 0.64977 0.13422 0.5267 0.0
C2266 C 0.59173 0.13683 0.53293 0.0
C2267 C 0.55405 0.12985 0.51592 0.0
C2268 C 0.5802 0.13452 0.56077 0.0
C2269 C 0.58902 0.14972 0.52706 0.0
C2270 C 0.6379 0.15367 0.5188 0.0
C2271 C 0.64606 0.1652 0.51239 0.0
C2272 C 0.6032 0.17293 0.51431 0.0
C2273 C 0.55221 0.16918 0.52251 0.0
C2274 C 0.5454 0.15736 0.5291 0.0
H2275 H 0.63424 0.12281 0.80747 0.0
H2276 H 0.598 0.11543 0.72966 0.0
H2277 H 0.61326 0.13598 0.71897 0.0
H2278 H 0.56848 0.15061 0.80917 0.0
H2279 H 0.61681 0.15728 0.82961 0.0
H2280 H 0.60539 0.1419 0.83118 0.0
H2281 H 0.70583 0.13809 0.82355 0.0
H2282 H 0.71761 0.15346 0.82212 0.0
H2283 H 0.73779 0.14428 0.79646 0.0
H2284 H 0.63372 0.15723 0.71645 0.0
H2285 H 0.65547 0.17794 0.72249 0.0
H2286 H 0.67416 0.17217 0.80222 0.0
C2287 C 0.6302 0.12553 0.78816 0.0
C2288 C 0.61523 0.11749 0.76931 0.0
C2289 C 0.60927 0.12143 0.74435 0.0
C2290 C 0.61796 0.13308 0.73812 0.0
C2291 C 0.63203 0.14081 0.75711 0.0
C2292 C 0.63789 0.13724 0.78166 0.0
C2293 C 0.65169 0.14745 0.79853 0.0
C2294 C 0.60798 0.14942 0.81829 0.0
C2295 C 0.70649 0.14571 0.81089 0.0
C2296 C 0.653 0.15728 0.7796 0.0
C2297 C 0.64185 0.15321 0.7558 0.0
C2298 C 0.64221 0.16052 0.73503 0.0
C2299 C 0.65465 0.17227 0.73861 0.0
C2300 C 0.66603 0.1767 0.76279 0.0
C2301 C 0.6647 0.16908 0.78358 0.0
H2302 H 0.2193 0.90231 0.5153 0.0
H2303 H 0.35192 0.92626 0.52405 0.0
H2304 H 0.41372 0.90991 0.52588 0.0
H2305 H 0.27064 0.87985 0.55602 0.0
H2306 H 0.24768 0.86811 0.5365 0.0
H2307 H 0.2123 0.8817 0.5367 0.0
H2308 H 0.22297 0.8832 0.48856 0.0
H2309 H 0.25821 0.8696 0.4882 0.0
H2310 H 0.28862 0.88233 0.47493 0.0
H2311 H 0.46255 0.89113 0.52641 0.0
H2312 H 0.49531 0.87109 0.52427 0.0
H2313 H 0.33329 0.8588 0.51352 0.0
C2314 C 0.26122 0.9042 0.51757 0.0
C2315 C 0.27985 0.91581 0.51973 0.0
C2316 C 0.33552 0.91764 0.52274 0.0
C2317 C 0.37144 0.90834 0.52371 0.0
C2318 C 0.35168 0.89712 0.52156 0.0
C2319 C 0.29796 0.89497 0.51846 0.0
C2320 C 0.28772 0.88202 0.51602 0.0
C2321 C 0.25249 0.87766 0.5376 0.0
C2322 C 0.26292 0.87912 0.4904 0.0
C2323 C 0.34416 0.87726 0.5181 0.0
C2324 C 0.38024 0.88617 0.52141 0.0
C2325 C 0.43468 0.88408 0.52369 0.0
C2326 C 0.45298 0.87262 0.52227 0.0
C2327 C 0.41721 0.86327 0.51844 0.0
C2328 C 0.36181 0.86568 0.5166 0.0
H2329 H 0.40736 0.9282 0.25706 0.0
H2330 H 0.26351 0.94906 0.25631 0.0
H2331 H 0.20915 0.93146 0.26174 0.0
H2332 H 0.35225 0.90402 0.22221 0.0
H2333 H 0.38721 0.89309 0.23984 0.0
H2334 H 0.41563 0.90734 0.23645 0.0
H2335 H 0.42196 0.90932 0.28468 0.0
H2336 H 0.39369 0.89507 0.28821 0.0
H2337 H 0.36295 0.90731 0.30346 0.0
H2338 H 0.16979 0.91176 0.26807 0.0
H2339 H 0.14771 0.89109 0.27334 0.0
H2340 H 0.31555 0.88231 0.26864 0.0
C2341 C 0.36445 0.92904 0.25819 0.0
C2342 C 0.33979 0.94008 0.25617 0.0
C2343 C 0.28341 0.94076 0.25748 0.0
C2344 C 0.25213 0.93079 0.2607 0.0
C2345 C 0.27748 0.92007 0.26241 0.0
C2346 C 0.33233 0.91909 0.26109 0.0
C2347 C 0.34905 0.90642 0.26294 0.0
C2348 C 0.37773 0.90249 0.23893 0.0
C2349 C 0.38398 0.90442 0.28621 0.0
C2350 C 0.29509 0.90049 0.26561 0.0
C2351 C 0.25448 0.90858 0.26542 0.0
C2352 C 0.20127 0.90535 0.26817 0.0
C2353 C 0.18909 0.89357 0.27127 0.0
C2354 C 0.22969 0.88502 0.27139 0.0
C2355 C 0.2835 0.88859 0.26834 0.0
H2356 H 0.45352 0.65084 0.05361 0.0
H2357 H 0.51885 0.67236 0.9944 0.0
H2358 H 0.57096 0.65576 0.97902 0.0
H2359 H 0.57171 0.63441 0.0658 0.0
H2360 H 0.53699 0.62097 0.07103 0.0
H2361 H 0.50428 0.63454 0.0775 0.0
H2362 H 0.42679 0.62877 0.04793 0.0
H2363 H 0.45929 0.61517 0.04136 0.0
H2364 H 0.44118 0.62469 0.01601 0.0
H2365 H 0.61793 0.63682 0.97024 0.0
H2366 H 0.6552 0.61702 0.96873 0.0
H2367 H 0.55841 0.60748 0.03277 0.0
C2368 C 0.47827 0.65211 0.03727 0.0
C2369 C 0.48178 0.66311 0.02544 0.0
C2370 C 0.51557 0.66421 1.00422 0.0
C2371 C 0.54528 0.65475 0.99516 0.0
C2372 C 0.54092 0.64412 1.00731 0.0
C2373 C 0.50814 0.64272 0.02786 0.0
C2374 C 0.51097 0.63035 0.03755 0.0
C2375 C 0.53226 0.63006 0.06457 0.0
C2376 C 0.4563 0.62439 0.03559 0.0
C2377 C 0.5507 0.62503 0.01932 0.0
C2378 C 0.56745 0.63315 1.00203 0.0
C2379 C 0.60493 0.6304 0.98366 0.0
C2380 C 0.62608 0.61912 0.983 0.0
C2381 C 0.60985 0.61062 1.00054 0.0
C2382 C 0.5712 0.61367 0.01883 0.0
H2383 H 0.80298 0.65898 0.28776 0.0
H2384 H 0.71325 0.67601 0.2288 0.0
H2385 H 0.65951 0.6583 0.22308 0.0
H2386 H 0.80666 0.63054 0.25875 0.0
H2387 H 0.79936 0.62288 0.28794 0.0
H2388 H 0.83108 0.63687 0.28744 0.0
H2389 H 0.76377 0.64441 0.32045 0.0
H2390 H 0.73183 0.63044 0.32104 0.0
H2391 H 0.69328 0.64325 0.31433 0.0
H2392 H 0.61542 0.63867 0.22354 0.0
H2393 H 0.58344 0.61882 0.23026 0.0
H2394 H 0.70074 0.61419 0.28928 0.0
C2395 C 0.77245 0.659 0.27345 0.0
C2396 C 0.76264 0.66904 0.25873 0.0
C2397 C 0.72145 0.66859 0.24054 0.0
C2398 C 0.6908 0.65851 0.23705 0.0
C2399 C 0.7015 0.64884 0.25187 0.0
C2400 C 0.74132 0.64899 0.26973 0.0
C2401 C 0.74419 0.63742 0.28336 0.0
C2402 C 0.79856 0.63158 0.27911 0.0
C2403 C 0.73257 0.63898 0.31146 0.0
C2404 C 0.69971 0.63075 0.27039 0.0
C2405 C 0.67575 0.63752 0.25227 0.0
C2406 C 0.63375 0.63333 0.23778 0.0
C2407 C 0.61552 0.62199 0.24194 0.0
C2408 C 0.63885 0.61481 0.26056 0.0
C2409 C 0.68194 0.61933 0.27484 0.0
H2410 H 0.45465 0.43935 0.99557 0.0
H2411 H 0.3001 0.42457 0.01326 0.0
H2412 H 0.33848 0.40499 1.01051 0.0
H2413 H 0.49476 0.41745 0.95123 0.0
H2414 H 0.56366 0.41729 0.96083 0.0
H2415 H 0.5246 0.43029 0.96444 0.0
H2416 H 0.54734 0.43084 0.01174 0.0
H2417 H 0.5866 0.41786 1.00826 0.0
H2418 H 0.5333 0.41837 0.03088 0.0
H2419 H 0.39295 0.38678 1.00528 0.0
H2420 H 0.4591 0.37142 0.99835 0.0
H2421 H 0.58052 0.39753 0.98499 0.0
C2422 C 0.42889 0.43202 0.9991 0.0
C2423 C 0.37381 0.43367 1.00449 0.0
C2424 C 0.34192 0.4237 1.00869 0.0
C2425 C 0.36353 0.41247 1.00732 0.0
C2426 C 0.41752 0.41117 1.00175 0.0
C2427 C 0.44993 0.42066 0.99776 0.0
C2428 C 0.50669 0.41676 0.9919 0.0
C2429 C 0.5234 0.42068 0.96553 0.0
C2430 C 0.54579 0.42122 0.01189 0.0
C2431 C 0.501 0.40362 0.99316 0.0
C2432 C 0.44915 0.40062 0.9989 0.0
C2433 C 0.43376 0.38905 1.00093 0.0
C2434 C 0.47209 0.38032 0.99706 0.0
C2435 C 0.52591 0.38305 0.99121 0.0
C2436 C 0.54009 0.39497 0.98926 0.0
H2437 H 0.5043 0.40632 0.76374 0.0
H2438 H 0.39783 0.43491 0.78126 0.0
H2439 H 0.32311 0.4213 0.78491 0.0
H2440 H 0.4114 0.38961 0.72739 0.0
H2441 H 0.433 0.37579 0.7393 0.0
H2442 H 0.47916 0.38772 0.7379 0.0
H2443 H 0.49839 0.38558 0.78535 0.0
H2444 H 0.45251 0.37359 0.78686 0.0
H2445 H 0.44373 0.3859 0.80728 0.0
H2446 H 0.25895 0.40482 0.78614 0.0
H2447 H 0.21016 0.38634 0.78652 0.0
H2448 H 0.35709 0.36795 0.7699 0.0
C2449 C 0.46543 0.40973 0.76852 0.0
C2450 C 0.45733 0.42181 0.77183 0.0
C2451 C 0.40541 0.42581 0.77799 0.0
C2452 C 0.36249 0.41811 0.7803 0.0
C2453 C 0.37171 0.40634 0.77659 0.0
C2454 C 0.42187 0.40212 0.77102 0.0
C2455 C 0.42056 0.389 0.76823 0.0
C2456 C 0.437 0.38532 0.74162 0.0
C2457 C 0.45589 0.38318 0.78812 0.0
C2458 C 0.36181 0.38657 0.77295 0.0
C2459 C 0.33452 0.39672 0.77772 0.0
C2460 C 0.27997 0.39679 0.7826 0.0
C2461 C 0.25258 0.38621 0.78289 0.0
C2462 C 0.27948 0.37559 0.77841 0.0
C2463 C 0.33499 0.37586 0.77319 0.0
loop_
_geom_bond_atom_site_label_1
_geom_bond_atom_site_label_2
_geom_bond_distance
_geom_bond_site_symmetry_2
_ccdc_geom_bond_type
Cu0 N1 1.999 . S
Cu0 O6 1.974 . S
Cu0 N11 1.985 . S
Cu0 O20 1.959 1_554 S
N1 Cu0 1.999 . S
N1 C3 1.263 . S
N1 C5 1.389 1_554 S
N2 C3 1.358 . S
N2 C4 1.400 1_554 S
C3 N1 1.263 . S
C3 N2 1.358 . S
C3 H9 0.930 . S
C4 N2 1.400 1_556 S
C4 C5 1.351 . S
C4 H21 0.930 . S
C5 N1 1.389 1_556 S
C5 C4 1.351 . S
C5 H10 0.930 . S
O6 Cu0 1.974 . S
O6 C16 1.282 . S
C7 O8 1.261 . S
C7 O20 1.251 . S
O8 C7 1.261 . S
H9 C3 0.930 . S
H10 C5 0.930 . S
N11 Cu0 1.985 . S
N11 C13 1.336 . S
N11 C14 1.390 . S
N12 C13 1.345 . S
N12 C15 1.336 . S
C13 N11 1.336 . S
C13 N12 1.345 . S
C13 H18 0.928 1_554 S
C14 N11 1.390 . S
C14 C15 1.346 . S
C14 H19 0.930 . S
C15 N12 1.336 . S
C15 C14 1.346 . S
C15 H22 0.929 . S
C16 O6 1.282 . S
C16 O17 1.216 . S
O17 C16 1.216 . S
H18 C13 0.928 1_556 S
H19 C14 0.930 . S
O20 Cu0 1.959 1_556 S
O20 C7 1.251 . S
H21 C4 0.930 . S
H22 C15 0.929 . S
Cu23 N24 1.999 . S
Cu23 O29 1.974 . S
Cu23 N34 1.985 . S
Cu23 O43 1.959 1_554 S
N24 Cu23 1.999 . S
N24 C26 1.263 1_655 S
N24 C28 1.389 1_554 S
N25 C26 1.358 . S
N25 C27 1.395 1_454 S
C26 N24 1.263 1_455 S
C26 N25 1.358 . S
C26 H32 0.930 . S
C27 N25 1.395 1_656 S
C27 C28 1.355 . S
C27 H44 0.931 . S
C28 N24 1.389 1_556 S
C28 C27 1.355 . S
C28 H33 0.930 . S
O29 Cu23 1.974 . S
O29 C39 1.282 1_655 S
C30 O31 1.261 . S
C30 O43 1.251 . S
O31 C30 1.261 . S
H32 C26 0.930 . S
H33 C28 0.930 . S
N34 Cu23 1.985 . S
N34 C36 1.337 . S
N34 C37 1.390 . S
N35 C36 1.346 . S
N35 C38 1.336 . S
C36 N34 1.337 . S
C36 N35 1.346 . S
C36 H41 0.928 1_554 S
C37 N34 1.390 . S
C37 C38 1.346 . S
C37 H42 0.930 . S
C38 N35 1.336 . S
C38 C37 1.346 . S
C38 H45 0.929 . S
C39 O29 1.282 1_455 S
C39 O40 1.216 . S
O40 C39 1.216 . S
H41 C36 0.928 1_556 S
H42 C37 0.930 . S
O43 Cu23 1.959 1_556 S
O43 C30 1.251 . S
H44 C27 0.931 . S
H45 C38 0.929 . S
Cu46 N47 1.999 . S
Cu46 O52 1.974 . S
Cu46 N57 1.985 . S
Cu46 O66 1.959 . S
N47 Cu46 1.999 . S
N47 C49 1.263 . S
N47 C51 1.389 . S
N48 C49 1.358 . S
N48 C50 1.400 . S
C49 N47 1.263 . S
C49 N48 1.358 . S
C49 H55 0.930 . S
C50 N48 1.400 . S
C50 C51 1.351 . S
C50 H67 0.930 . S
C51 N47 1.389 . S
C51 C50 1.351 . S
C51 H56 0.930 . S
O52 Cu46 1.974 . S
O52 C62 1.282 . S
C53 O54 1.261 . S
C53 O66 1.251 . S
O54 C53 1.261 . S
H55 C49 0.930 . S
H56 C51 0.930 . S
N57 Cu46 1.985 . S
N57 C59 1.335 . S
N57 C60 1.390 . S
N58 C59 1.345 . S
N58 C61 1.336 . S
C59 N57 1.335 . S
C59 N58 1.345 . S
C59 H64 0.930 . S
C60 N57 1.390 . S
C60 C61 1.346 . S
C60 H65 0.930 . S
C61 N58 1.336 . S
C61 C60 1.346 . S
C61 H68 0.929 . S
C62 O52 1.282 . S
C62 O63 1.216 . S
O63 C62 1.216 . S
H64 C59 0.930 . S
H65 C60 0.930 . S
O66 Cu46 1.959 . S
O66 C53 1.251 . S
H67 C50 0.930 . S
H68 C61 0.929 . S
Cu69 N70 1.999 . S
Cu69 O75 1.974 . S
Cu69 N80 1.985 . S
Cu69 O89 1.959 . S
N70 Cu69 1.999 . S
N70 C72 1.263 1_655 S
N70 C74 1.389 . S
N71 C72 1.358 . S
N71 C73 1.395 1_455 S
C72 N70 1.263 1_455 S
C72 N71 1.358 . S
C72 H78 0.930 . S
C73 N71 1.395 1_655 S
C73 C74 1.355 . S
C73 H90 0.931 . S
C74 N70 1.389 . S
C74 C73 1.355 . S
C74 H79 0.930 . S
O75 Cu69 1.974 . S
O75 C85 1.282 1_655 S
C76 O77 1.261 . S
C76 O89 1.251 . S
O77 C76 1.261 . S
H78 C72 0.930 . S
H79 C74 0.930 . S
N80 Cu69 1.985 . S
N80 C82 1.335 . S
N80 C83 1.390 . S
N81 C82 1.345 . S
N81 C84 1.336 . S
C82 N80 1.335 . S
C82 N81 1.345 . S
C82 H87 0.930 . S
C83 N80 1.390 . S
C83 C84 1.346 . S
C83 H88 0.930 . S
C84 N81 1.336 . S
C84 C83 1.346 . S
C84 H91 0.929 . S
C85 O75 1.282 1_455 S
C85 O86 1.216 . S
O86 C85 1.216 . S
H87 C82 0.930 . S
H88 C83 0.930 . S
O89 Cu69 1.959 . S
O89 C76 1.251 . S
H90 C73 0.931 . S
H91 C84 0.929 . S
Cu92 N93 1.999 . S
Cu92 O98 1.974 . S
Cu92 N103 1.985 . S
Cu92 O112 1.959 1_556 S
N93 Cu92 1.999 . S
N93 C95 1.263 . S
N93 C97 1.389 1_556 S
N94 C95 1.358 . S
N94 C96 1.400 1_556 S
C95 N93 1.263 . S
C95 N94 1.358 . S
C95 H101 0.930 . S
C96 N94 1.400 1_554 S
C96 C97 1.351 . S
C96 H113 0.930 . S
C97 N93 1.389 1_554 S
C97 C96 1.351 . S
C97 H102 0.930 . S
O98 Cu92 1.974 . S
O98 C108 1.282 . S
C99 O100 1.261 . S
C99 O112 1.251 . S
O100 C99 1.261 . S
H101 C95 0.930 . S
H102 C97 0.930 . S
N103 Cu92 1.985 . S
N103 C105 1.336 . S
N103 C106 1.390 . S
N104 C105 1.345 . S
N104 C107 1.336 . S
C105 N103 1.336 . S
C105 N104 1.345 . S
C105 H110 0.928 1_556 S
C106 N103 1.390 . S
C106 C107 1.346 . S
C106 H111 0.930 . S
C107 N104 1.336 . S
C107 C106 1.346 . S
C107 H114 0.929 . S
C108 O98 1.282 . S
C108 O109 1.216 . S
O109 C108 1.216 . S
H110 C105 0.928 1_554 S
H111 C106 0.930 . S
O112 Cu92 1.959 1_554 S
O112 C99 1.251 . S
H113 C96 0.930 . S
H114 C107 0.929 . S
Cu115 N116 1.999 . S
Cu115 O121 1.974 . S
Cu115 N126 1.985 . S
Cu115 O135 1.959 1_556 S
N116 Cu115 1.999 . S
N116 C118 1.263 1_455 S
N116 C120 1.389 1_556 S
N117 C118 1.358 . S
N117 C119 1.395 1_656 S
C118 N116 1.263 1_655 S
C118 N117 1.358 . S
C118 H124 0.930 . S
C119 N117 1.395 1_454 S
C119 C120 1.355 . S
C119 H136 0.931 . S
C120 N116 1.389 1_554 S
C120 C119 1.355 . S
C120 H125 0.930 . S
O121 Cu115 1.974 . S
O121 C131 1.282 1_455 S
C122 O123 1.261 . S
C122 O135 1.251 . S
O123 C122 1.261 . S
H124 C118 0.930 . S
H125 C120 0.930 . S
N126 Cu115 1.985 . S
N126 C128 1.337 . S
N126 C129 1.390 . S
N127 C128 1.346 . S
N127 C130 1.336 . S
C128 N126 1.337 . S
C128 N127 1.346 . S
C128 H133 0.928 1_556 S
C129 N126 1.390 . S
C129 C130 1.346 . S
C129 H134 0.930 . S
C130 N127 1.336 . S
C130 C129 1.346 . S
C130 H137 0.929 . S
C131 O121 1.282 1_655 S
C131 O132 1.216 . S
O132 C131 1.216 . S
H133 C128 0.928 1_554 S
H134 C129 0.930 . S
O135 Cu115 1.959 1_554 S
O135 C122 1.251 . S
H136 C119 0.931 . S
H137 C130 0.929 . S
Cu138 N139 1.999 . S
Cu138 O144 1.974 . S
Cu138 N149 1.985 . S
Cu138 O158 1.959 . S
N139 Cu138 1.999 . S
N139 C141 1.263 . S
N139 C143 1.389 . S
N140 C141 1.358 . S
N140 C142 1.400 . S
C141 N139 1.263 . S
C141 N140 1.358 . S
C141 H147 0.930 . S
C142 N140 1.400 . S
C142 C143 1.351 . S
C142 H159 0.930 . S
C143 N139 1.389 . S
C143 C142 1.351 . S
C143 H148 0.930 . S
O144 Cu138 1.974 . S
O144 C154 1.282 . S
C145 O146 1.261 . S
C145 O158 1.251 . S
O146 C145 1.261 . S
H147 C141 0.930 . S
H148 C143 0.930 . S
N149 Cu138 1.985 . S
N149 C151 1.335 . S
N149 C152 1.390 . S
N150 C151 1.345 . S
N150 C153 1.336 . S
C151 N149 1.335 . S
C151 N150 1.345 . S
C151 H156 0.930 . S
C152 N149 1.390 . S
C152 C153 1.346 . S
C152 H157 0.930 . S
C153 N150 1.336 . S
C153 C152 1.346 . S
C153 H160 0.929 . S
C154 O144 1.282 . S
C154 O155 1.216 . S
O155 C154 1.216 . S
H156 C151 0.930 . S
H157 C152 0.930 . S
O158 Cu138 1.959 . S
O158 C145 1.251 . S
H159 C142 0.930 . S
H160 C153 0.929 . S
Cu161 N162 1.999 . S
Cu161 O167 1.974 . S
Cu161 N172 1.985 . S
Cu161 O181 1.959 . S
N162 Cu161 1.999 . S
N162 C164 1.263 1_455 S
N162 C166 1.389 . S
N163 C164 1.358 . S
N163 C165 1.395 1_655 S
C164 N162 1.263 1_655 S
C164 N163 1.358 . S
C164 H170 0.930 . S
C165 N163 1.395 1_455 S
C165 C166 1.355 . S
C165 H182 0.931 . S
C166 N162 1.389 . S
C166 C165 1.355 . S
C166 H171 0.930 . S
O167 Cu161 1.974 . S
O167 C177 1.282 1_455 S
C168 O169 1.261 . S
C168 O181 1.251 . S
O169 C168 1.261 . S
H170 C164 0.930 . S
H171 C166 0.930 . S
N172 Cu161 1.985 . S
N172 C174 1.335 . S
N172 C175 1.390 . S
N173 C174 1.345 . S
N173 C176 1.336 . S
C174 N172 1.335 . S
C174 N173 1.345 . S
C174 H179 0.930 . S
C175 N172 1.390 . S
C175 C176 1.346 . S
C175 H180 0.930 . S
C176 N173 1.336 . S
C176 C175 1.346 . S
C176 H183 0.929 . S
C177 O167 1.282 1_655 S
C177 O178 1.216 . S
O178 C177 1.216 . S
H179 C174 0.930 . S
H180 C175 0.930 . S
O181 Cu161 1.959 . S
O181 C168 1.251 . S
H182 C165 0.931 . S
H183 C176 0.929 . S
Cu184 N185 1.999 . S
Cu184 O190 1.974 . S
Cu184 N195 1.985 . S
Cu184 O204 1.959 . S
N185 Cu184 1.999 . S
N185 C187 1.263 . S
N185 C189 1.389 . S
N186 C187 1.358 . S
N186 C188 1.400 . S
C187 N185 1.263 . S
C187 N186 1.358 . S
C187 H193 0.930 . S
C188 N186 1.400 . S
C188 C189 1.351 . S
C188 H205 0.930 . S
C189 N185 1.389 . S
C189 C188 1.351 . S
C189 H194 0.930 . S
O190 Cu184 1.974 . S
O190 C200 1.282 . S
C191 O192 1.261 . S
C191 O204 1.251 . S
O192 C191 1.261 . S
H193 C187 0.930 . S
H194 C189 0.930 . S
N195 Cu184 1.985 . S
N195 C197 1.335 . S
N195 C198 1.390 . S
N196 C197 1.345 . S
N196 C199 1.336 . S
C197 N195 1.335 . S
C197 N196 1.345 . S
C197 H202 0.930 . S
C198 N195 1.390 . S
C198 C199 1.346 . S
C198 H203 0.930 . S
C199 N196 1.336 . S
C199 C198 1.346 . S
C199 H206 0.929 . S
C200 O190 1.282 . S
C200 O201 1.216 . S
O201 C200 1.216 . S
H202 C197 0.930 . S
H203 C198 0.930 . S
O204 Cu184 1.959 . S
O204 C191 1.251 . S
H205 C188 0.930 . S
H206 C199 0.929 . S
Cu207 N208 1.999 . S
Cu207 O213 1.974 . S
Cu207 N218 1.985 . S
Cu207 O227 1.959 . S
N208 Cu207 1.999 . S
N208 C210 1.263 1_655 S
N208 C212 1.389 . S
N209 C210 1.358 . S
N209 C211 1.392 1_455 S
C210 N208 1.263 1_455 S
C210 N209 1.358 . S
C210 H216 0.930 . S
C211 N209 1.392 1_655 S
C211 C212 1.357 . S
C211 H228 0.932 . S
C212 N208 1.389 . S
C212 C211 1.357 . S
C212 H217 0.930 . S
O213 Cu207 1.974 . S
O213 C223 1.282 1_655 S
C214 O215 1.261 . S
C214 O227 1.251 . S
O215 C214 1.261 . S
H216 C210 0.930 . S
H217 C212 0.930 . S
N218 Cu207 1.985 . S
N218 C220 1.335 . S
N218 C221 1.390 . S
N219 C220 1.345 . S
N219 C222 1.336 . S
C220 N218 1.335 . S
C220 N219 1.345 . S
C220 H225 0.930 . S
C221 N218 1.390 . S
C221 C222 1.346 . S
C221 H226 0.930 . S
C222 N219 1.336 . S
C222 C221 1.346 . S
C222 H229 0.929 . S
C223 O213 1.282 1_455 S
C223 O224 1.216 . S
O224 C223 1.216 . S
H225 C220 0.930 . S
H226 C221 0.930 . S
O227 Cu207 1.959 . S
O227 C214 1.251 . S
H228 C211 0.932 . S
H229 C222 0.929 . S
Cu230 N231 1.999 . S
Cu230 O236 1.974 . S
Cu230 N241 1.985 . S
Cu230 O250 1.959 . S
N231 Cu230 1.999 . S
N231 C233 1.263 . S
N231 C235 1.389 . S
N232 C233 1.358 . S
N232 C234 1.400 . S
C233 N231 1.263 . S
C233 N232 1.358 . S
C233 H239 0.930 . S
C234 N232 1.400 . S
C234 C235 1.351 . S
C234 H251 0.930 . S
C235 N231 1.389 . S
C235 C234 1.351 . S
C235 H240 0.930 . S
O236 Cu230 1.974 . S
O236 C246 1.282 . S
C237 O238 1.261 . S
C237 O250 1.251 . S
O238 C237 1.261 . S
H239 C233 0.930 . S
H240 C235 0.930 . S
N241 Cu230 1.985 . S
N241 C243 1.335 . S
N241 C244 1.390 . S
N242 C243 1.345 . S
N242 C245 1.336 . S
C243 N241 1.335 . S
C243 N242 1.345 . S
C243 H248 0.930 . S
C244 N241 1.390 . S
C244 C245 1.346 . S
C244 H249 0.930 . S
C245 N242 1.336 . S
C245 C244 1.346 . S
C245 H252 0.929 . S
C246 O236 1.282 . S
C246 O247 1.216 . S
O247 C246 1.216 . S
H248 C243 0.930 . S
H249 C244 0.930 . S
O250 Cu230 1.959 . S
O250 C237 1.251 . S
H251 C234 0.930 . S
H252 C245 0.929 . S
Cu253 N254 1.999 . S
Cu253 O259 1.974 . S
Cu253 N264 1.985 . S
Cu253 O273 1.959 . S
N254 Cu253 1.999 . S
N254 C256 1.263 1_655 S
N254 C258 1.389 . S
N255 C256 1.358 . S
N255 C257 1.393 1_455 S
C256 N254 1.263 1_455 S
C256 N255 1.358 . S
C256 H262 0.930 . S
C257 N255 1.393 1_655 S
C257 C258 1.356 . S
C257 H274 0.932 . S
C258 N254 1.389 . S
C258 C257 1.356 . S
C258 H263 0.930 . S
O259 Cu253 1.974 . S
O259 C269 1.282 1_655 S
C260 O261 1.261 . S
C260 O273 1.251 . S
O261 C260 1.261 . S
H262 C256 0.930 . S
H263 C258 0.930 . S
N264 Cu253 1.985 . S
N264 C266 1.335 . S
N264 C267 1.390 . S
N265 C266 1.345 . S
N265 C268 1.336 . S
C266 N264 1.335 . S
C266 N265 1.345 . S
C266 H271 0.930 . S
C267 N264 1.390 . S
C267 C268 1.346 . S
C267 H272 0.930 . S
C268 N265 1.336 . S
C268 C267 1.346 . S
C268 H275 0.929 . S
C269 O259 1.282 1_455 S
C269 O270 1.216 . S
O270 C269 1.216 . S
H271 C266 0.930 . S
H272 C267 0.930 . S
O273 Cu253 1.959 . S
O273 C260 1.251 . S
H274 C257 0.932 . S
H275 C268 0.929 . S
Cu276 N277 1.999 . S
Cu276 O282 1.974 . S
Cu276 N287 1.985 . S
Cu276 O296 1.959 . S
N277 Cu276 1.999 . S
N277 C279 1.263 . S
N277 C281 1.389 . S
N278 C279 1.358 . S
N278 C280 1.400 . S
C279 N277 1.263 . S
C279 N278 1.358 . S
C279 H285 0.930 . S
C280 N278 1.400 . S
C280 C281 1.351 . S
C280 H297 0.930 . S
C281 N277 1.389 . S
C281 C280 1.351 . S
C281 H286 0.930 . S
O282 Cu276 1.974 . S
O282 C292 1.282 . S
C283 O284 1.261 . S
C283 O296 1.251 . S
O284 C283 1.261 . S
H285 C279 0.930 . S
H286 C281 0.930 . S
N287 Cu276 1.985 . S
N287 C289 1.335 . S
N287 C290 1.390 . S
N288 C289 1.345 . S
N288 C291 1.336 . S
C289 N287 1.335 . S
C289 N288 1.345 . S
C289 H294 0.930 . S
C290 N287 1.390 . S
C290 C291 1.346 . S
C290 H295 0.930 . S
C291 N288 1.336 . S
C291 C290 1.346 . S
C291 H298 0.929 . S
C292 O282 1.282 . S
C292 O293 1.216 . S
O293 C292 1.216 . S
H294 C289 0.930 . S
H295 C290 0.930 . S
O296 Cu276 1.959 . S
O296 C283 1.251 . S
H297 C280 0.930 . S
H298 C291 0.929 . S
Cu299 N300 1.999 . S
Cu299 O305 1.974 . S
Cu299 N310 1.985 . S
Cu299 O319 1.959 . S
N300 Cu299 1.999 . S
N300 C302 1.263 1_455 S
N300 C304 1.389 . S
N301 C302 1.358 . S
N301 C303 1.392 1_655 S
C302 N300 1.263 1_655 S
C302 N301 1.358 . S
C302 H308 0.930 . S
C303 N301 1.392 1_455 S
C303 C304 1.357 . S
C303 H320 0.932 . S
C304 N300 1.389 . S
C304 C303 1.357 . S
C304 H309 0.930 . S
O305 Cu299 1.974 . S
O305 C315 1.282 1_455 S
C306 O307 1.261 . S
C306 O319 1.251 . S
O307 C306 1.261 . S
H308 C302 0.930 . S
H309 C304 0.930 . S
N310 Cu299 1.985 . S
N310 C312 1.335 . S
N310 C313 1.390 . S
N311 C312 1.345 . S
N311 C314 1.336 . S
C312 N310 1.335 . S
C312 N311 1.345 . S
C312 H317 0.930 . S
C313 N310 1.390 . S
C313 C314 1.346 . S
C313 H318 0.930 . S
C314 N311 1.336 . S
C314 C313 1.346 . S
C314 H321 0.929 . S
C315 O305 1.282 1_655 S
C315 O316 1.216 . S
O316 C315 1.216 . S
H317 C312 0.930 . S
H318 C313 0.930 . S
O319 Cu299 1.959 . S
O319 C306 1.251 . S
H320 C303 0.932 . S
H321 C314 0.929 . S
Cu322 N323 1.999 . S
Cu322 O328 1.974 . S
Cu322 N333 1.985 . S
Cu322 O342 1.959 . S
N323 Cu322 1.999 . S
N323 C325 1.263 . S
N323 C327 1.389 . S
N324 C325 1.358 . S
N324 C326 1.400 . S
C325 N323 1.263 . S
C325 N324 1.358 . S
C325 H331 0.930 . S
C326 N324 1.400 . S
C326 C327 1.351 . S
C326 H343 0.930 . S
C327 N323 1.389 . S
C327 C326 1.351 . S
C327 H332 0.930 . S
O328 Cu322 1.974 . S
O328 C338 1.282 . S
C329 O330 1.261 . S
C329 O342 1.251 . S
O330 C329 1.261 . S
H331 C325 0.930 . S
H332 C327 0.930 . S
N333 Cu322 1.985 . S
N333 C335 1.335 . S
N333 C336 1.390 . S
N334 C335 1.345 . S
N334 C337 1.336 . S
C335 N333 1.335 . S
C335 N334 1.345 . S
C335 H340 0.930 . S
C336 N333 1.390 . S
C336 C337 1.346 . S
C336 H341 0.930 . S
C337 N334 1.336 . S
C337 C336 1.346 . S
C337 H344 0.929 . S
C338 O328 1.282 . S
C338 O339 1.216 . S
O339 C338 1.216 . S
H340 C335 0.930 . S
H341 C336 0.930 . S
O342 Cu322 1.959 . S
O342 C329 1.251 . S
H343 C326 0.930 . S
H344 C337 0.929 . S
Cu345 N346 1.999 . S
Cu345 O351 1.974 . S
Cu345 N356 1.985 . S
Cu345 O365 1.959 . S
N346 Cu345 1.999 . S
N346 C348 1.263 1_455 S
N346 C350 1.389 . S
N347 C348 1.358 . S
N347 C349 1.393 1_655 S
C348 N346 1.263 1_655 S
C348 N347 1.358 . S
C348 H354 0.930 . S
C349 N347 1.393 1_455 S
C349 C350 1.356 . S
C349 H366 0.932 . S
C350 N346 1.389 . S
C350 C349 1.356 . S
C350 H355 0.930 . S
O351 Cu345 1.974 . S
O351 C361 1.282 1_455 S
C352 O353 1.261 . S
C352 O365 1.251 . S
O353 C352 1.261 . S
H354 C348 0.930 . S
H355 C350 0.930 . S
N356 Cu345 1.985 . S
N356 C358 1.335 . S
N356 C359 1.390 . S
N357 C358 1.345 . S
N357 C360 1.336 . S
C358 N356 1.335 . S
C358 N357 1.345 . S
C358 H363 0.930 . S
C359 N356 1.390 . S
C359 C360 1.346 . S
C359 H364 0.930 . S
C360 N357 1.336 . S
C360 C359 1.346 . S
C360 H367 0.929 . S
C361 O351 1.282 1_655 S
C361 O362 1.216 . S
O362 C361 1.216 . S
H363 C358 0.930 . S
H364 C359 0.930 . S
O365 Cu345 1.959 . S
O365 C352 1.251 . S
H366 C349 0.932 . S
H367 C360 0.929 . S
Cu368 N369 1.999 . S
Cu368 O374 1.974 . S
Cu368 N379 1.985 . S
Cu368 O388 1.959 . S
N369 Cu368 1.999 . S
N369 C371 1.263 . S
N369 C373 1.389 . S
N370 C371 1.358 . S
N370 C372 1.400 . S
C371 N369 1.263 . S
C371 N370 1.358 . S
C371 H377 0.930 . S
C372 N370 1.400 . S
C372 C373 1.351 . S
C372 H389 0.930 . S
C373 N369 1.389 . S
C373 C372 1.351 . S
C373 H378 0.930 . S
O374 Cu368 1.974 . S
O374 C384 1.282 . S
C375 O376 1.261 . S
C375 O388 1.251 . S
O376 C375 1.261 . S
H377 C371 0.930 . S
H378 C373 0.930 . S
N379 Cu368 1.985 . S
N379 C381 1.335 . S
N379 C382 1.390 . S
N380 C381 1.345 . S
N380 C383 1.336 . S
C381 N379 1.335 . S
C381 N380 1.345 . S
C381 H386 0.930 . S
C382 N379 1.390 . S
C382 C383 1.346 . S
C382 H387 0.930 . S
C383 N380 1.336 . S
C383 C382 1.346 . S
C383 H390 0.929 . S
C384 O374 1.282 . S
C384 O385 1.216 . S
O385 C384 1.216 . S
H386 C381 0.930 . S
H387 C382 0.930 . S
O388 Cu368 1.959 . S
O388 C375 1.251 . S
H389 C372 0.930 . S
H390 C383 0.929 . S
Cu391 N392 1.999 . S
Cu391 O397 1.974 . S
Cu391 N402 1.985 . S
Cu391 O411 1.959 . S
N392 Cu391 1.999 . S
N392 C394 1.263 . S
N392 C396 1.389 . S
N393 C394 1.358 . S
N393 C395 1.400 . S
C394 N392 1.263 . S
C394 N393 1.358 . S
C394 H400 0.930 . S
C395 N393 1.400 . S
C395 C396 1.351 . S
C395 H412 0.930 . S
C396 N392 1.389 . S
C396 C395 1.351 . S
C396 H401 0.930 . S
O397 Cu391 1.974 . S
O397 C407 1.282 . S
C398 O399 1.261 . S
C398 O411 1.251 . S
O399 C398 1.261 . S
H400 C394 0.930 . S
H401 C396 0.930 . S
N402 Cu391 1.985 . S
N402 C404 1.335 . S
N402 C405 1.390 . S
N403 C404 1.345 . S
N403 C406 1.336 . S
C404 N402 1.335 . S
C404 N403 1.345 . S
C404 H409 0.930 . S
C405 N402 1.390 . S
C405 C406 1.346 . S
C405 H410 0.930 . S
C406 N403 1.336 . S
C406 C405 1.346 . S
C406 H413 0.929 . S
C407 O397 1.282 . S
C407 O408 1.216 . S
O408 C407 1.216 . S
H409 C404 0.930 . S
H410 C405 0.930 . S
O411 Cu391 1.959 . S
O411 C398 1.251 . S
H412 C395 0.930 . S
H413 C406 0.929 . S
Cu414 N415 1.999 . S
Cu414 O420 1.974 . S
Cu414 N425 1.985 . S
Cu414 O434 1.959 . S
N415 Cu414 1.999 . S
N415 C417 1.263 . S
N415 C419 1.389 . S
N416 C417 1.358 . S
N416 C418 1.400 . S
C417 N415 1.263 . S
C417 N416 1.358 . S
C417 H423 0.930 . S
C418 N416 1.400 . S
C418 C419 1.351 . S
C418 H435 0.930 . S
C419 N415 1.389 . S
C419 C418 1.351 . S
C419 H424 0.930 . S
O420 Cu414 1.974 . S
O420 C430 1.282 . S
C421 O422 1.261 . S
C421 O434 1.251 . S
O422 C421 1.261 . S
H423 C417 0.930 . S
H424 C419 0.930 . S
N425 Cu414 1.985 . S
N425 C427 1.335 . S
N425 C428 1.390 . S
N426 C427 1.345 . S
N426 C429 1.336 . S
C427 N425 1.335 . S
C427 N426 1.345 . S
C427 H432 0.930 . S
C428 N425 1.390 . S
C428 C429 1.346 . S
C428 H433 0.930 . S
C429 N426 1.336 . S
C429 C428 1.346 . S
C429 H436 0.929 . S
C430 O420 1.282 . S
C430 O431 1.216 . S
O431 C430 1.216 . S
H432 C427 0.930 . S
H433 C428 0.930 . S
O434 Cu414 1.959 . S
O434 C421 1.251 . S
H435 C418 0.930 . S
H436 C429 0.929 . S
Cu437 N438 1.999 . S
Cu437 O443 1.974 . S
Cu437 N448 1.985 . S
Cu437 O457 1.959 . S
N438 Cu437 1.999 . S
N438 C440 1.263 . S
N438 C442 1.389 . S
N439 C440 1.358 . S
N439 C441 1.400 . S
C440 N438 1.263 . S
C440 N439 1.358 . S
C440 H446 0.930 . S
C441 N439 1.400 . S
C441 C442 1.351 . S
C441 H458 0.930 . S
C442 N438 1.389 . S
C442 C441 1.351 . S
C442 H447 0.930 . S
O443 Cu437 1.974 . S
O443 C453 1.282 . S
C444 O445 1.261 . S
C444 O457 1.251 . S
O445 C444 1.261 . S
H446 C440 0.930 . S
H447 C442 0.930 . S
N448 Cu437 1.985 . S
N448 C450 1.335 . S
N448 C451 1.390 . S
N449 C450 1.345 . S
N449 C452 1.336 . S
C450 N448 1.335 . S
C450 N449 1.345 . S
C450 H455 0.930 . S
C451 N448 1.390 . S
C451 C452 1.346 . S
C451 H456 0.930 . S
C452 N449 1.336 . S
C452 C451 1.346 . S
C452 H459 0.929 . S
C453 O443 1.282 . S
C453 O454 1.216 . S
O454 C453 1.216 . S
H455 C450 0.930 . S
H456 C451 0.930 . S
O457 Cu437 1.959 . S
O457 C444 1.251 . S
H458 C441 0.930 . S
H459 C452 0.929 . S
Cu460 N461 1.999 . S
Cu460 O466 1.974 . S
Cu460 N471 1.985 . S
Cu460 O480 1.959 . S
N461 Cu460 1.999 . S
N461 C463 1.263 . S
N461 C465 1.389 . S
N462 C463 1.358 . S
N462 C464 1.400 . S
C463 N461 1.263 . S
C463 N462 1.358 . S
C463 H469 0.930 . S
C464 N462 1.400 . S
C464 C465 1.351 . S
C464 H481 0.930 . S
C465 N461 1.389 . S
C465 C464 1.351 . S
C465 H470 0.930 . S
O466 Cu460 1.974 . S
O466 C476 1.282 . S
C467 O468 1.261 . S
C467 O480 1.251 . S
O468 C467 1.261 . S
H469 C463 0.930 . S
H470 C465 0.930 . S
N471 Cu460 1.985 . S
N471 C473 1.335 . S
N471 C474 1.390 . S
N472 C473 1.345 . S
N472 C475 1.336 . S
C473 N471 1.335 . S
C473 N472 1.345 . S
C473 H478 0.930 . S
C474 N471 1.390 . S
C474 C475 1.346 . S
C474 H479 0.930 . S
C475 N472 1.336 . S
C475 C474 1.346 . S
C475 H482 0.929 . S
C476 O466 1.282 . S
C476 O477 1.216 . S
O477 C476 1.216 . S
H478 C473 0.930 . S
H479 C474 0.930 . S
O480 Cu460 1.959 . S
O480 C467 1.251 . S
H481 C464 0.930 . S
H482 C475 0.929 . S
Cu483 N484 1.999 . S
Cu483 O489 1.974 . S
Cu483 N494 1.985 . S
Cu483 O503 1.959 . S
N484 Cu483 1.999 . S
N484 C486 1.263 . S
N484 C488 1.389 . S
N485 C486 1.358 . S
N485 C487 1.400 . S
C486 N484 1.263 . S
C486 N485 1.358 . S
C486 H492 0.930 . S
C487 N485 1.400 . S
C487 C488 1.351 . S
C487 H504 0.930 . S
C488 N484 1.389 . S
C488 C487 1.351 . S
C488 H493 0.930 . S
O489 Cu483 1.974 . S
O489 C499 1.282 . S
C490 O491 1.261 . S
C490 O503 1.251 . S
O491 C490 1.261 . S
H492 C486 0.930 . S
H493 C488 0.930 . S
N494 Cu483 1.985 . S
N494 C496 1.335 . S
N494 C497 1.390 . S
N495 C496 1.345 . S
N495 C498 1.336 . S
C496 N494 1.335 . S
C496 N495 1.345 . S
C496 H501 0.930 . S
C497 N494 1.390 . S
C497 C498 1.346 . S
C497 H502 0.930 . S
C498 N495 1.336 . S
C498 C497 1.346 . S
C498 H505 0.929 . S
C499 O489 1.282 . S
C499 O500 1.216 . S
O500 C499 1.216 . S
H501 C496 0.930 . S
H502 C497 0.930 . S
O503 Cu483 1.959 . S
O503 C490 1.251 . S
H504 C487 0.930 . S
H505 C498 0.929 . S
Cu506 N507 1.999 . S
Cu506 O512 1.974 . S
Cu506 N517 1.985 . S
Cu506 O526 1.959 . S
N507 Cu506 1.999 . S
N507 C509 1.263 . S
N507 C511 1.389 . S
N508 C509 1.358 . S
N508 C510 1.400 . S
C509 N507 1.263 . S
C509 N508 1.358 . S
C509 H515 0.930 . S
C510 N508 1.400 . S
C510 C511 1.351 . S
C510 H527 0.930 . S
C511 N507 1.389 . S
C511 C510 1.351 . S
C511 H516 0.930 . S
O512 Cu506 1.974 . S
O512 C522 1.282 . S
C513 O514 1.261 . S
C513 O526 1.251 . S
O514 C513 1.261 . S
H515 C509 0.930 . S
H516 C511 0.930 . S
N517 Cu506 1.985 . S
N517 C519 1.335 . S
N517 C520 1.390 . S
N518 C519 1.345 . S
N518 C521 1.336 . S
C519 N517 1.335 . S
C519 N518 1.345 . S
C519 H524 0.930 . S
C520 N517 1.390 . S
C520 C521 1.346 . S
C520 H525 0.930 . S
C521 N518 1.336 . S
C521 C520 1.346 . S
C521 H528 0.929 . S
C522 O512 1.282 . S
C522 O523 1.216 . S
O523 C522 1.216 . S
H524 C519 0.930 . S
H525 C520 0.930 . S
O526 Cu506 1.959 . S
O526 C513 1.251 . S
H527 C510 0.930 . S
H528 C521 0.929 . S
Cu529 N530 1.999 . S
Cu529 O535 1.974 . S
Cu529 N540 1.985 . S
Cu529 O549 1.959 . S
N530 Cu529 1.999 . S
N530 C532 1.263 . S
N530 C534 1.389 . S
N531 C532 1.358 . S
N531 C533 1.400 . S
C532 N530 1.263 . S
C532 N531 1.358 . S
C532 H538 0.930 . S
C533 N531 1.400 . S
C533 C534 1.351 . S
C533 H550 0.930 . S
C534 N530 1.389 . S
C534 C533 1.351 . S
C534 H539 0.930 . S
O535 Cu529 1.974 . S
O535 C545 1.282 . S
C536 O537 1.261 . S
C536 O549 1.251 . S
O537 C536 1.261 . S
H538 C532 0.930 . S
H539 C534 0.930 . S
N540 Cu529 1.985 . S
N540 C542 1.335 . S
N540 C543 1.390 . S
N541 C542 1.345 . S
N541 C544 1.336 . S
C542 N540 1.335 . S
C542 N541 1.345 . S
C542 H547 0.930 . S
C543 N540 1.390 . S
C543 C544 1.346 . S
C543 H548 0.930 . S
C544 N541 1.336 . S
C544 C543 1.346 . S
C544 H551 0.929 . S
C545 O535 1.282 . S
C545 O546 1.216 . S
O546 C545 1.216 . S
H547 C542 0.930 . S
H548 C543 0.930 . S
O549 Cu529 1.959 . S
O549 C536 1.251 . S
H550 C533 0.930 . S
H551 C544 0.929 . S
Cu552 N553 1.999 . S
Cu552 O558 1.974 . S
Cu552 N563 1.985 . S
Cu552 O572 1.959 1_554 S
N553 Cu552 1.999 . S
N553 C555 1.263 . S
N553 C557 1.389 1_554 S
N554 C555 1.358 . S
N554 C556 1.400 1_554 S
C555 N553 1.263 . S
C555 N554 1.358 . S
C555 H561 0.930 . S
C556 N554 1.400 1_556 S
C556 C557 1.351 . S
C556 H573 0.930 . S
C557 N553 1.389 1_556 S
C557 C556 1.351 . S
C557 H562 0.930 . S
O558 Cu552 1.974 . S
O558 C568 1.282 . S
C559 O560 1.261 . S
C559 O572 1.251 . S
O560 C559 1.261 . S
H561 C555 0.930 . S
H562 C557 0.930 . S
N563 Cu552 1.985 . S
N563 C565 1.336 . S
N563 C566 1.390 . S
N564 C565 1.345 . S
N564 C567 1.336 . S
C565 N563 1.336 . S
C565 N564 1.345 . S
C565 H570 0.928 1_554 S
C566 N563 1.390 . S
C566 C567 1.346 . S
C566 H571 0.930 . S
C567 N564 1.336 . S
C567 C566 1.346 . S
C567 H574 0.929 . S
C568 O558 1.282 . S
C568 O569 1.216 . S
O569 C568 1.216 . S
H570 C565 0.928 1_556 S
H571 C566 0.930 . S
O572 Cu552 1.959 1_556 S
O572 C559 1.251 . S
H573 C556 0.930 . S
H574 C567 0.929 . S
Cu575 N576 1.999 . S
Cu575 O581 1.974 . S
Cu575 N586 1.985 . S
Cu575 O595 1.959 1_554 S
N576 Cu575 1.999 . S
N576 C578 1.263 . S
N576 C580 1.389 1_554 S
N577 C578 1.358 . S
N577 C579 1.400 1_554 S
C578 N576 1.263 . S
C578 N577 1.358 . S
C578 H584 0.930 . S
C579 N577 1.400 1_556 S
C579 C580 1.351 . S
C579 H596 0.930 . S
C580 N576 1.389 1_556 S
C580 C579 1.351 . S
C580 H585 0.930 . S
O581 Cu575 1.974 . S
O581 C591 1.282 . S
C582 O583 1.261 . S
C582 O595 1.251 . S
O583 C582 1.261 . S
H584 C578 0.930 . S
H585 C580 0.930 . S
N586 Cu575 1.985 . S
N586 C588 1.337 . S
N586 C589 1.390 . S
N587 C588 1.345 . S
N587 C590 1.336 . S
C588 N586 1.337 . S
C588 N587 1.345 . S
C588 H593 0.928 1_554 S
C589 N586 1.390 . S
C589 C590 1.346 . S
C589 H594 0.930 . S
C590 N587 1.336 . S
C590 C589 1.346 . S
C590 H597 0.929 . S
C591 O581 1.282 . S
C591 O592 1.216 . S
O592 C591 1.216 . S
H593 C588 0.928 1_556 S
H594 C589 0.930 . S
O595 Cu575 1.959 1_556 S
O595 C582 1.251 . S
H596 C579 0.930 . S
H597 C590 0.929 . S
Cu598 N599 1.999 . S
Cu598 O604 1.974 . S
Cu598 N609 1.985 . S
Cu598 O618 1.959 . S
N599 Cu598 1.999 . S
N599 C601 1.263 . S
N599 C603 1.389 . S
N600 C601 1.358 . S
N600 C602 1.400 . S
C601 N599 1.263 . S
C601 N600 1.358 . S
C601 H607 0.930 . S
C602 N600 1.400 . S
C602 C603 1.351 . S
C602 H619 0.930 . S
C603 N599 1.389 . S
C603 C602 1.351 . S
C603 H608 0.930 . S
O604 Cu598 1.974 . S
O604 C614 1.282 . S
C605 O606 1.261 . S
C605 O618 1.251 . S
O606 C605 1.261 . S
H607 C601 0.930 . S
H608 C603 0.930 . S
N609 Cu598 1.985 . S
N609 C611 1.335 . S
N609 C612 1.390 . S
N610 C611 1.345 . S
N610 C613 1.336 . S
C611 N609 1.335 . S
C611 N610 1.345 . S
C611 H616 0.930 . S
C612 N609 1.390 . S
C612 C613 1.346 . S
C612 H617 0.930 . S
C613 N610 1.336 . S
C613 C612 1.346 . S
C613 H620 0.929 . S
C614 O604 1.282 . S
C614 O615 1.216 . S
O615 C614 1.216 . S
H616 C611 0.930 . S
H617 C612 0.930 . S
O618 Cu598 1.959 . S
O618 C605 1.251 . S
H619 C602 0.930 . S
H620 C613 0.929 . S
Cu621 N622 1.999 . S
Cu621 O627 1.974 . S
Cu621 N632 1.985 . S
Cu621 O641 1.959 . S
N622 Cu621 1.999 . S
N622 C624 1.263 . S
N622 C626 1.389 . S
N623 C624 1.358 . S
N623 C625 1.400 . S
C624 N622 1.263 . S
C624 N623 1.358 . S
C624 H630 0.930 . S
C625 N623 1.400 . S
C625 C626 1.351 . S
C625 H642 0.930 . S
C626 N622 1.389 . S
C626 C625 1.351 . S
C626 H631 0.930 . S
O627 Cu621 1.974 . S
O627 C637 1.282 . S
C628 O629 1.261 . S
C628 O641 1.251 . S
O629 C628 1.261 . S
H630 C624 0.930 . S
H631 C626 0.930 . S
N632 Cu621 1.985 . S
N632 C634 1.335 . S
N632 C635 1.390 . S
N633 C634 1.345 . S
N633 C636 1.336 . S
C634 N632 1.335 . S
C634 N633 1.345 . S
C634 H639 0.930 . S
C635 N632 1.390 . S
C635 C636 1.346 . S
C635 H640 0.930 . S
C636 N633 1.336 . S
C636 C635 1.346 . S
C636 H643 0.929 . S
C637 O627 1.282 . S
C637 O638 1.216 . S
O638 C637 1.216 . S
H639 C634 0.930 . S
H640 C635 0.930 . S
O641 Cu621 1.959 . S
O641 C628 1.251 . S
H642 C625 0.930 . S
H643 C636 0.929 . S
Cu644 N645 1.999 . S
Cu644 O650 1.974 . S
Cu644 N655 1.985 . S
Cu644 O664 1.959 1_556 S
N645 Cu644 1.999 . S
N645 C647 1.263 . S
N645 C649 1.389 1_556 S
N646 C647 1.358 . S
N646 C648 1.400 1_556 S
C647 N645 1.263 . S
C647 N646 1.358 . S
C647 H653 0.930 . S
C648 N646 1.400 1_554 S
C648 C649 1.351 . S
C648 H665 0.930 . S
C649 N645 1.389 1_554 S
C649 C648 1.351 . S
C649 H654 0.930 . S
O650 Cu644 1.974 . S
O650 C660 1.282 . S
C651 O652 1.261 . S
C651 O664 1.251 . S
O652 C651 1.261 . S
H653 C647 0.930 . S
H654 C649 0.930 . S
N655 Cu644 1.985 . S
N655 C657 1.336 . S
N655 C658 1.390 . S
N656 C657 1.345 . S
N656 C659 1.336 . S
C657 N655 1.336 . S
C657 N656 1.345 . S
C657 H662 0.928 1_556 S
C658 N655 1.390 . S
C658 C659 1.346 . S
C658 H663 0.930 . S
C659 N656 1.336 . S
C659 C658 1.346 . S
C659 H666 0.929 . S
C660 O650 1.282 . S
C660 O661 1.216 . S
O661 C660 1.216 . S
H662 C657 0.928 1_554 S
H663 C658 0.930 . S
O664 Cu644 1.959 1_554 S
O664 C651 1.251 . S
H665 C648 0.930 . S
H666 C659 0.929 . S
Cu667 N668 1.999 . S
Cu667 O673 1.974 . S
Cu667 N678 1.985 . S
Cu667 O687 1.959 1_556 S
N668 Cu667 1.999 . S
N668 C670 1.263 . S
N668 C672 1.389 1_556 S
N669 C670 1.358 . S
N669 C671 1.400 1_556 S
C670 N668 1.263 . S
C670 N669 1.358 . S
C670 H676 0.930 . S
C671 N669 1.400 1_554 S
C671 C672 1.351 . S
C671 H688 0.930 . S
C672 N668 1.389 1_554 S
C672 C671 1.351 . S
C672 H677 0.930 . S
O673 Cu667 1.974 . S
O673 C683 1.282 . S
C674 O675 1.261 . S
C674 O687 1.251 . S
O675 C674 1.261 . S
H676 C670 0.930 . S
H677 C672 0.930 . S
N678 Cu667 1.985 . S
N678 C680 1.337 . S
N678 C681 1.390 . S
N679 C680 1.345 . S
N679 C682 1.336 . S
C680 N678 1.337 . S
C680 N679 1.345 . S
C680 H685 0.928 1_556 S
C681 N678 1.390 . S
C681 C682 1.346 . S
C681 H686 0.930 . S
C682 N679 1.336 . S
C682 C681 1.346 . S
C682 H689 0.929 . S
C683 O673 1.282 . S
C683 O684 1.216 . S
O684 C683 1.216 . S
H685 C680 0.928 1_554 S
H686 C681 0.930 . S
O687 Cu667 1.959 1_554 S
O687 C674 1.251 . S
H688 C671 0.930 . S
H689 C682 0.929 . S
Cu690 N691 1.999 . S
Cu690 O696 1.974 . S
Cu690 N701 1.985 . S
Cu690 O710 1.959 . S
N691 Cu690 1.999 . S
N691 C693 1.263 . S
N691 C695 1.389 . S
N692 C693 1.358 . S
N692 C694 1.400 . S
C693 N691 1.263 . S
C693 N692 1.358 . S
C693 H699 0.930 . S
C694 N692 1.400 . S
C694 C695 1.351 . S
C694 H711 0.930 . S
C695 N691 1.389 . S
C695 C694 1.351 . S
C695 H700 0.930 . S
O696 Cu690 1.974 . S
O696 C706 1.282 . S
C697 O698 1.261 . S
C697 O710 1.251 . S
O698 C697 1.261 . S
H699 C693 0.930 . S
H700 C695 0.930 . S
N701 Cu690 1.985 . S
N701 C703 1.335 . S
N701 C704 1.390 . S
N702 C703 1.345 . S
N702 C705 1.336 . S
C703 N701 1.335 . S
C703 N702 1.345 . S
C703 H708 0.930 . S
C704 N701 1.390 . S
C704 C705 1.346 . S
C704 H709 0.930 . S
C705 N702 1.336 . S
C705 C704 1.346 . S
C705 H712 0.929 . S
C706 O696 1.282 . S
C706 O707 1.216 . S
O707 C706 1.216 . S
H708 C703 0.930 . S
H709 C704 0.930 . S
O710 Cu690 1.959 . S
O710 C697 1.251 . S
H711 C694 0.930 . S
H712 C705 0.929 . S
Cu713 N714 1.999 . S
Cu713 O719 1.974 . S
Cu713 N724 1.985 . S
Cu713 O733 1.959 . S
N714 Cu713 1.999 . S
N714 C716 1.263 . S
N714 C718 1.389 . S
N715 C716 1.358 . S
N715 C717 1.400 . S
C716 N714 1.263 . S
C716 N715 1.358 . S
C716 H722 0.930 . S
C717 N715 1.400 . S
C717 C718 1.351 . S
C717 H734 0.930 . S
C718 N714 1.389 . S
C718 C717 1.351 . S
C718 H723 0.930 . S
O719 Cu713 1.974 . S
O719 C729 1.282 . S
C720 O721 1.261 . S
C720 O733 1.251 . S
O721 C720 1.261 . S
H722 C716 0.930 . S
H723 C718 0.930 . S
N724 Cu713 1.985 . S
N724 C726 1.335 . S
N724 C727 1.390 . S
N725 C726 1.345 . S
N725 C728 1.336 . S
C726 N724 1.335 . S
C726 N725 1.345 . S
C726 H731 0.930 . S
C727 N724 1.390 . S
C727 C728 1.346 . S
C727 H732 0.930 . S
C728 N725 1.336 . S
C728 C727 1.346 . S
C728 H735 0.929 . S
C729 O719 1.282 . S
C729 O730 1.216 . S
O730 C729 1.216 . S
H731 C726 0.930 . S
H732 C727 0.930 . S
O733 Cu713 1.959 . S
O733 C720 1.251 . S
H734 C717 0.930 . S
H735 C728 0.929 . S
H736 C748 0.930 . S
H737 C750 0.930 . S
H738 C751 0.930 . S
H739 C755 0.959 . S
H740 C755 0.959 . S
H741 C755 0.961 . S
H742 C756 0.960 . S
H743 C756 0.961 . S
H744 C756 0.959 . S
H745 C759 0.929 . S
H746 C760 0.931 . S
H747 C762 0.930 . S
C748 H736 0.930 . S
C748 C749 1.399 . S
C748 C753 1.399 . S
C749 C748 1.399 . S
C749 C750 1.376 . S
C750 H737 0.930 . S
C750 C749 1.376 . S
C750 C751 1.388 . S
C751 H738 0.930 . S
C751 C750 1.388 . S
C751 C752 1.390 . S
C752 C751 1.390 . S
C752 C753 1.394 . S
C752 C758 1.465 . S
C753 C748 1.399 . S
C753 C752 1.394 . S
C753 C754 1.516 . S
C754 C753 1.516 . S
C754 C755 1.502 . S
C754 C756 1.561 . S
C754 C757 1.526 . S
C755 H739 0.959 . S
C755 H740 0.959 . S
C755 H741 0.961 . S
C755 C754 1.502 . S
C756 H742 0.960 . S
C756 H743 0.961 . S
C756 H744 0.959 . S
C756 C754 1.561 . S
C757 C754 1.526 . S
C757 C758 1.396 . S
C757 C762 1.390 . S
C758 C752 1.465 . S
C758 C757 1.396 . S
C758 C759 1.399 . S
C759 H745 0.929 . S
C759 C758 1.399 . S
C759 C760 1.385 . S
C760 H746 0.931 . S
C760 C759 1.385 . S
C760 C761 1.389 . S
C761 C760 1.389 . S
C761 C762 1.387 . S
C762 H747 0.930 . S
C762 C757 1.390 . S
C762 C761 1.387 . S
H763 C775 0.930 . S
H764 C777 0.930 . S
H765 C778 0.930 . S
H766 C782 0.959 . S
H767 C782 0.959 . S
H768 C782 0.961 . S
H769 C783 0.960 . S
H770 C783 0.961 . S
H771 C783 0.959 . S
H772 C786 0.929 . S
H773 C787 0.931 . S
H774 C789 0.930 . S
C775 H763 0.930 . S
C775 C776 1.399 . S
C775 C780 1.399 . S
C776 C775 1.399 . S
C776 C777 1.376 . S
C777 H764 0.930 . S
C777 C776 1.376 . S
C777 C778 1.388 . S
C778 H765 0.930 . S
C778 C777 1.388 . S
C778 C779 1.390 . S
C779 C778 1.390 . S
C779 C780 1.394 . S
C779 C785 1.465 . S
C780 C775 1.399 . S
C780 C779 1.394 . S
C780 C781 1.516 . S
C781 C780 1.516 . S
C781 C782 1.502 . S
C781 C783 1.561 . S
C781 C784 1.526 . S
C782 H766 0.959 . S
C782 H767 0.959 . S
C782 H768 0.961 . S
C782 C781 1.502 . S
C783 H769 0.960 . S
C783 H770 0.961 . S
C783 H771 0.959 . S
C783 C781 1.561 . S
C784 C781 1.526 . S
C784 C785 1.396 . S
C784 C789 1.390 . S
C785 C779 1.465 . S
C785 C784 1.396 . S
C785 C786 1.399 . S
C786 H772 0.929 . S
C786 C785 1.399 . S
C786 C787 1.385 . S
C787 H773 0.931 . S
C787 C786 1.385 . S
C787 C788 1.389 . S
C788 C787 1.389 . S
C788 C789 1.387 . S
C789 H774 0.930 . S
C789 C784 1.390 . S
C789 C788 1.387 . S
H790 C802 0.930 . S
H791 C804 0.930 . S
H792 C805 0.930 . S
H793 C809 0.959 . S
H794 C809 0.959 . S
H795 C809 0.961 . S
H796 C810 0.960 . S
H797 C810 0.961 . S
H798 C810 0.959 . S
H799 C813 0.929 . S
H800 C814 0.931 . S
H801 C816 0.930 . S
C802 H790 0.930 . S
C802 C803 1.399 . S
C802 C807 1.399 . S
C803 C802 1.399 . S
C803 C804 1.376 . S
C804 H791 0.930 . S
C804 C803 1.376 . S
C804 C805 1.388 . S
C805 H792 0.930 . S
C805 C804 1.388 . S
C805 C806 1.390 . S
C806 C805 1.390 . S
C806 C807 1.394 . S
C806 C812 1.465 . S
C807 C802 1.399 . S
C807 C806 1.394 . S
C807 C808 1.516 . S
C808 C807 1.516 . S
C808 C809 1.502 . S
C808 C810 1.561 . S
C808 C811 1.526 . S
C809 H793 0.959 . S
C809 H794 0.959 . S
C809 H795 0.961 . S
C809 C808 1.502 . S
C810 H796 0.960 . S
C810 H797 0.961 . S
C810 H798 0.959 . S
C810 C808 1.561 . S
C811 C808 1.526 . S
C811 C812 1.396 . S
C811 C816 1.390 . S
C812 C806 1.465 . S
C812 C811 1.396 . S
C812 C813 1.399 . S
C813 H799 0.929 . S
C813 C812 1.399 . S
C813 C814 1.385 . S
C814 H800 0.931 . S
C814 C813 1.385 . S
C814 C815 1.389 . S
C815 C814 1.389 . S
C815 C816 1.387 . S
C816 H801 0.930 . S
C816 C811 1.390 . S
C816 C815 1.387 . S
H817 C829 0.930 . S
H818 C831 0.930 . S
H819 C832 0.930 . S
H820 C836 0.959 . S
H821 C836 0.959 . S
H822 C836 0.961 . S
H823 C837 0.960 . S
H824 C837 0.961 . S
H825 C837 0.959 . S
H826 C840 0.929 . S
H827 C841 0.931 . S
H828 C843 0.930 . S
C829 H817 0.930 . S
C829 C830 1.399 . S
C829 C834 1.399 . S
C830 C829 1.399 . S
C830 C831 1.376 . S
C831 H818 0.930 . S
C831 C830 1.376 . S
C831 C832 1.388 . S
C832 H819 0.930 . S
C832 C831 1.388 . S
C832 C833 1.390 . S
C833 C832 1.390 . S
C833 C834 1.394 . S
C833 C839 1.465 . S
C834 C829 1.399 . S
C834 C833 1.394 . S
C834 C835 1.516 . S
C835 C834 1.516 . S
C835 C836 1.502 . S
C835 C837 1.561 . S
C835 C838 1.526 . S
C836 H820 0.959 . S
C836 H821 0.959 . S
C836 H822 0.961 . S
C836 C835 1.502 . S
C837 H823 0.960 . S
C837 H824 0.961 . S
C837 H825 0.959 . S
C837 C835 1.561 . S
C838 C835 1.526 . S
C838 C839 1.396 . S
C838 C843 1.390 . S
C839 C833 1.465 . S
C839 C838 1.396 . S
C839 C840 1.399 . S
C840 H826 0.929 . S
C840 C839 1.399 . S
C840 C841 1.385 . S
C841 H827 0.931 . S
C841 C840 1.385 . S
C841 C842 1.389 . S
C842 C841 1.389 . S
C842 C843 1.387 . S
C843 H828 0.930 . S
C843 C838 1.390 . S
C843 C842 1.387 . S
H844 C856 0.930 . S
H845 C858 0.930 . S
H846 C859 0.930 . S
H847 C863 0.959 . S
H848 C863 0.959 . S
H849 C863 0.961 . S
H850 C864 0.960 . S
H851 C864 0.961 . S
H852 C864 0.959 . S
H853 C867 0.929 . S
H854 C868 0.931 . S
H855 C870 0.930 . S
C856 H844 0.930 . S
C856 C857 1.399 . S
C856 C861 1.399 . S
C857 C856 1.399 . S
C857 C858 1.376 . S
C858 H845 0.930 . S
C858 C857 1.376 . S
C858 C859 1.388 . S
C859 H846 0.930 . S
C859 C858 1.388 . S
C859 C860 1.390 . S
C860 C859 1.390 . S
C860 C861 1.394 . S
C860 C866 1.465 . S
C861 C856 1.399 . S
C861 C860 1.394 . S
C861 C862 1.516 . S
C862 C861 1.516 . S
C862 C863 1.502 . S
C862 C864 1.561 . S
C862 C865 1.526 . S
C863 H847 0.959 . S
C863 H848 0.959 . S
C863 H849 0.961 . S
C863 C862 1.502 . S
C864 H850 0.960 . S
C864 H851 0.961 . S
C864 H852 0.959 . S
C864 C862 1.561 . S
C865 C862 1.526 . S
C865 C866 1.396 . S
C865 C870 1.390 . S
C866 C860 1.465 . S
C866 C865 1.396 . S
C866 C867 1.399 . S
C867 H853 0.929 . S
C867 C866 1.399 . S
C867 C868 1.385 . S
C868 H854 0.931 . S
C868 C867 1.385 . S
C868 C869 1.389 . S
C869 C868 1.389 . S
C869 C870 1.387 . S
C870 H855 0.930 . S
C870 C865 1.390 . S
C870 C869 1.387 . S
H871 C883 0.930 . S
H872 C885 0.930 . S
H873 C886 0.930 . S
H874 C890 0.959 . S
H875 C890 0.959 . S
H876 C890 0.961 . S
H877 C891 0.960 . S
H878 C891 0.961 . S
H879 C891 0.959 . S
H880 C894 0.929 . S
H881 C895 0.931 . S
H882 C897 0.930 . S
C883 H871 0.930 . S
C883 C884 1.399 . S
C883 C888 1.399 . S
C884 C883 1.399 . S
C884 C885 1.376 . S
C885 H872 0.930 . S
C885 C884 1.376 . S
C885 C886 1.388 . S
C886 H873 0.930 . S
C886 C885 1.388 . S
C886 C887 1.390 . S
C887 C886 1.390 . S
C887 C888 1.394 . S
C887 C893 1.465 . S
C888 C883 1.399 . S
C888 C887 1.394 . S
C888 C889 1.516 . S
C889 C888 1.516 . S
C889 C890 1.502 . S
C889 C891 1.561 . S
C889 C892 1.526 . S
C890 H874 0.959 . S
C890 H875 0.959 . S
C890 H876 0.961 . S
C890 C889 1.502 . S
C891 H877 0.960 . S
C891 H878 0.961 . S
C891 H879 0.959 . S
C891 C889 1.561 . S
C892 C889 1.526 . S
C892 C893 1.396 . S
C892 C897 1.390 . S
C893 C887 1.465 . S
C893 C892 1.396 . S
C893 C894 1.399 . S
C894 H880 0.929 . S
C894 C893 1.399 . S
C894 C895 1.385 . S
C895 H881 0.931 . S
C895 C894 1.385 . S
C895 C896 1.389 . S
C896 C895 1.389 . S
C896 C897 1.387 . S
C897 H882 0.930 . S
C897 C892 1.390 . S
C897 C896 1.387 . S
H898 C910 0.930 . S
H899 C912 0.930 . S
H900 C913 0.930 . S
H901 C917 0.959 . S
H902 C917 0.959 . S
H903 C917 0.961 . S
H904 C918 0.960 . S
H905 C918 0.961 . S
H906 C918 0.959 . S
H907 C921 0.929 . S
H908 C922 0.931 . S
H909 C924 0.930 . S
C910 H898 0.930 . S
C910 C911 1.399 . S
C910 C915 1.399 . S
C911 C910 1.399 . S
C911 C912 1.376 . S
C912 H899 0.930 . S
C912 C911 1.376 . S
C912 C913 1.388 . S
C913 H900 0.930 . S
C913 C912 1.388 . S
C913 C914 1.390 . S
C914 C913 1.390 . S
C914 C915 1.394 . S
C914 C920 1.465 . S
C915 C910 1.399 . S
C915 C914 1.394 . S
C915 C916 1.516 . S
C916 C915 1.516 . S
C916 C917 1.502 . S
C916 C918 1.561 . S
C916 C919 1.526 . S
C917 H901 0.959 . S
C917 H902 0.959 . S
C917 H903 0.961 . S
C917 C916 1.502 . S
C918 H904 0.960 . S
C918 H905 0.961 . S
C918 H906 0.959 . S
C918 C916 1.561 . S
C919 C916 1.526 . S
C919 C920 1.396 . S
C919 C924 1.390 . S
C920 C914 1.465 . S
C920 C919 1.396 . S
C920 C921 1.399 . S
C921 H907 0.929 . S
C921 C920 1.399 . S
C921 C922 1.385 . S
C922 H908 0.931 . S
C922 C921 1.385 . S
C922 C923 1.389 . S
C923 C922 1.389 . S
C923 C924 1.387 . S
C924 H909 0.930 . S
C924 C919 1.390 . S
C924 C923 1.387 . S
H925 C937 0.930 . S
H926 C939 0.930 . S
H927 C940 0.930 . S
H928 C944 0.959 . S
H929 C944 0.959 . S
H930 C944 0.961 . S
H931 C945 0.960 . S
H932 C945 0.961 . S
H933 C945 0.959 . S
H934 C948 0.929 . S
H935 C949 0.931 . S
H936 C951 0.930 . S
C937 H925 0.930 . S
C937 C938 1.399 . S
C937 C942 1.399 . S
C938 C937 1.399 . S
C938 C939 1.376 . S
C939 H926 0.930 . S
C939 C938 1.376 . S
C939 C940 1.388 . S
C940 H927 0.930 . S
C940 C939 1.388 . S
C940 C941 1.390 . S
C941 C940 1.390 . S
C941 C942 1.394 . S
C941 C947 1.465 . S
C942 C937 1.399 . S
C942 C941 1.394 . S
C942 C943 1.516 . S
C943 C942 1.516 . S
C943 C944 1.502 . S
C943 C945 1.561 . S
C943 C946 1.526 . S
C944 H928 0.959 . S
C944 H929 0.959 . S
C944 H930 0.961 . S
C944 C943 1.502 . S
C945 H931 0.960 . S
C945 H932 0.961 . S
C945 H933 0.959 . S
C945 C943 1.561 . S
C946 C943 1.526 . S
C946 C947 1.396 . S
C946 C951 1.390 . S
C947 C941 1.465 . S
C947 C946 1.396 . S
C947 C948 1.399 . S
C948 H934 0.929 . S
C948 C947 1.399 . S
C948 C949 1.385 . S
C949 H935 0.931 . S
C949 C948 1.385 . S
C949 C950 1.389 . S
C950 C949 1.389 . S
C950 C951 1.387 . S
C951 H936 0.930 . S
C951 C946 1.390 . S
C951 C950 1.387 . S
H952 C964 0.930 . S
H953 C966 0.930 . S
H954 C967 0.930 . S
H955 C971 0.959 . S
H956 C971 0.959 . S
H957 C971 0.961 . S
H958 C972 0.960 . S
H959 C972 0.961 . S
H960 C972 0.959 . S
H961 C975 0.929 . S
H962 C976 0.931 . S
H963 C978 0.930 . S
C964 H952 0.930 . S
C964 C965 1.399 . S
C964 C969 1.399 . S
C965 C964 1.399 . S
C965 C966 1.376 . S
C966 H953 0.930 . S
C966 C965 1.376 . S
C966 C967 1.388 . S
C967 H954 0.930 . S
C967 C966 1.388 . S
C967 C968 1.390 . S
C968 C967 1.390 . S
C968 C969 1.394 . S
C968 C974 1.465 . S
C969 C964 1.399 . S
C969 C968 1.394 . S
C969 C970 1.516 . S
C970 C969 1.516 . S
C970 C971 1.502 . S
C970 C972 1.561 . S
C970 C973 1.526 . S
C971 H955 0.959 . S
C971 H956 0.959 . S
C971 H957 0.961 . S
C971 C970 1.502 . S
C972 H958 0.960 . S
C972 H959 0.961 . S
C972 H960 0.959 . S
C972 C970 1.561 . S
C973 C970 1.526 . S
C973 C974 1.396 . S
C973 C978 1.390 . S
C974 C968 1.465 . S
C974 C973 1.396 . S
C974 C975 1.399 . S
C975 H961 0.929 . S
C975 C974 1.399 . S
C975 C976 1.385 . S
C976 H962 0.931 . S
C976 C975 1.385 . S
C976 C977 1.389 . S
C977 C976 1.389 . S
C977 C978 1.387 . S
C978 H963 0.930 . S
C978 C973 1.390 . S
C978 C977 1.387 . S
H979 C991 0.930 . S
H980 C993 0.930 . S
H981 C994 0.930 . S
H982 C998 0.959 . S
H983 C998 0.959 . S
H984 C998 0.961 . S
H985 C999 0.960 . S
H986 C999 0.961 . S
H987 C999 0.959 . S
H988 C1002 0.929 . S
H989 C1003 0.931 . S
H990 C1005 0.930 . S
C991 H979 0.930 . S
C991 C992 1.399 . S
C991 C996 1.399 . S
C992 C991 1.399 . S
C992 C993 1.376 . S
C993 H980 0.930 . S
C993 C992 1.376 . S
C993 C994 1.388 . S
C994 H981 0.930 . S
C994 C993 1.388 . S
C994 C995 1.390 . S
C995 C994 1.390 . S
C995 C996 1.394 . S
C995 C1001 1.465 . S
C996 C991 1.399 . S
C996 C995 1.394 . S
C996 C997 1.516 . S
C997 C996 1.516 . S
C997 C998 1.502 . S
C997 C999 1.561 . S
C997 C1000 1.526 . S
C998 H982 0.959 . S
C998 H983 0.959 . S
C998 H984 0.961 . S
C998 C997 1.502 . S
C999 H985 0.960 . S
C999 H986 0.961 . S
C999 H987 0.959 . S
C999 C997 1.561 . S
C1000 C997 1.526 . S
C1000 C1001 1.396 . S
C1000 C1005 1.390 . S
C1001 C995 1.465 . S
C1001 C1000 1.396 . S
C1001 C1002 1.399 . S
C1002 H988 0.929 . S
C1002 C1001 1.399 . S
C1002 C1003 1.385 . S
C1003 H989 0.931 . S
C1003 C1002 1.385 . S
C1003 C1004 1.389 . S
C1004 C1003 1.389 . S
C1004 C1005 1.387 . S
C1005 H990 0.930 . S
C1005 C1000 1.390 . S
C1005 C1004 1.387 . S
H1006 C1018 0.930 . S
H1007 C1020 0.930 . S
H1008 C1021 0.930 . S
H1009 C1025 0.959 . S
H1010 C1025 0.959 . S
H1011 C1025 0.961 . S
H1012 C1026 0.960 . S
H1013 C1026 0.961 . S
H1014 C1026 0.959 . S
H1015 C1029 0.929 . S
H1016 C1030 0.931 . S
H1017 C1032 0.930 . S
C1018 H1006 0.930 . S
C1018 C1019 1.399 . S
C1018 C1023 1.399 . S
C1019 C1018 1.399 . S
C1019 C1020 1.376 . S
C1020 H1007 0.930 . S
C1020 C1019 1.376 . S
C1020 C1021 1.388 . S
C1021 H1008 0.930 . S
C1021 C1020 1.388 . S
C1021 C1022 1.390 . S
C1022 C1021 1.390 . S
C1022 C1023 1.394 . S
C1022 C1028 1.465 . S
C1023 C1018 1.399 . S
C1023 C1022 1.394 . S
C1023 C1024 1.516 . S
C1024 C1023 1.516 . S
C1024 C1025 1.502 . S
C1024 C1026 1.561 . S
C1024 C1027 1.526 . S
C1025 H1009 0.959 . S
C1025 H1010 0.959 . S
C1025 H1011 0.961 . S
C1025 C1024 1.502 . S
C1026 H1012 0.960 . S
C1026 H1013 0.961 . S
C1026 H1014 0.959 . S
C1026 C1024 1.561 . S
C1027 C1024 1.526 . S
C1027 C1028 1.396 . S
C1027 C1032 1.390 . S
C1028 C1022 1.465 . S
C1028 C1027 1.396 . S
C1028 C1029 1.399 . S
C1029 H1015 0.929 . S
C1029 C1028 1.399 . S
C1029 C1030 1.385 . S
C1030 H1016 0.931 . S
C1030 C1029 1.385 . S
C1030 C1031 1.389 . S
C1031 C1030 1.389 . S
C1031 C1032 1.387 . S
C1032 H1017 0.930 . S
C1032 C1027 1.390 . S
C1032 C1031 1.387 . S
H1033 C1045 0.930 . S
H1034 C1047 0.930 . S
H1035 C1048 0.930 . S
H1036 C1052 0.959 . S
H1037 C1052 0.959 . S
H1038 C1052 0.961 . S
H1039 C1053 0.960 . S
H1040 C1053 0.961 . S
H1041 C1053 0.959 . S
H1042 C1056 0.929 . S
H1043 C1057 0.931 . S
H1044 C1059 0.930 . S
C1045 H1033 0.930 . S
C1045 C1046 1.399 . S
C1045 C1050 1.399 . S
C1046 C1045 1.399 . S
C1046 C1047 1.376 . S
C1047 H1034 0.930 . S
C1047 C1046 1.376 . S
C1047 C1048 1.388 . S
C1048 H1035 0.930 . S
C1048 C1047 1.388 . S
C1048 C1049 1.390 . S
C1049 C1048 1.390 . S
C1049 C1050 1.394 . S
C1049 C1055 1.465 . S
C1050 C1045 1.399 . S
C1050 C1049 1.394 . S
C1050 C1051 1.516 . S
C1051 C1050 1.516 . S
C1051 C1052 1.502 . S
C1051 C1053 1.561 . S
C1051 C1054 1.526 . S
C1052 H1036 0.959 . S
C1052 H1037 0.959 . S
C1052 H1038 0.961 . S
C1052 C1051 1.502 . S
C1053 H1039 0.960 . S
C1053 H1040 0.961 . S
C1053 H1041 0.959 . S
C1053 C1051 1.561 . S
C1054 C1051 1.526 . S
C1054 C1055 1.396 . S
C1054 C1059 1.390 . S
C1055 C1049 1.465 . S
C1055 C1054 1.396 . S
C1055 C1056 1.399 . S
C1056 H1042 0.929 . S
C1056 C1055 1.399 . S
C1056 C1057 1.385 . S
C1057 H1043 0.931 . S
C1057 C1056 1.385 . S
C1057 C1058 1.389 . S
C1058 C1057 1.389 . S
C1058 C1059 1.387 . S
C1059 H1044 0.930 . S
C1059 C1054 1.390 . S
C1059 C1058 1.387 . S
H1060 C1072 0.930 . S
H1061 C1074 0.930 . S
H1062 C1075 0.930 . S
H1063 C1079 0.959 . S
H1064 C1079 0.959 . S
H1065 C1079 0.961 . S
H1066 C1080 0.960 . S
H1067 C1080 0.961 . S
H1068 C1080 0.959 . S
H1069 C1083 0.929 . S
H1070 C1084 0.931 . S
H1071 C1086 0.930 . S
C1072 H1060 0.930 . S
C1072 C1073 1.399 . S
C1072 C1077 1.399 . S
C1073 C1072 1.399 . S
C1073 C1074 1.376 . S
C1074 H1061 0.930 . S
C1074 C1073 1.376 . S
C1074 C1075 1.388 . S
C1075 H1062 0.930 . S
C1075 C1074 1.388 . S
C1075 C1076 1.390 . S
C1076 C1075 1.390 . S
C1076 C1077 1.394 . S
C1076 C1082 1.465 . S
C1077 C1072 1.399 . S
C1077 C1076 1.394 . S
C1077 C1078 1.516 . S
C1078 C1077 1.516 . S
C1078 C1079 1.502 . S
C1078 C1080 1.561 . S
C1078 C1081 1.526 . S
C1079 H1063 0.959 . S
C1079 H1064 0.959 . S
C1079 H1065 0.961 . S
C1079 C1078 1.502 . S
C1080 H1066 0.960 . S
C1080 H1067 0.961 . S
C1080 H1068 0.959 . S
C1080 C1078 1.561 . S
C1081 C1078 1.526 . S
C1081 C1082 1.396 . S
C1081 C1086 1.390 . S
C1082 C1076 1.465 . S
C1082 C1081 1.396 . S
C1082 C1083 1.399 . S
C1083 H1069 0.929 . S
C1083 C1082 1.399 . S
C1083 C1084 1.385 . S
C1084 H1070 0.931 . S
C1084 C1083 1.385 . S
C1084 C1085 1.389 . S
C1085 C1084 1.389 . S
C1085 C1086 1.387 . S
C1086 H1071 0.930 . S
C1086 C1081 1.390 . S
C1086 C1085 1.387 . S
H1087 C1099 0.930 . S
H1088 C1101 0.930 . S
H1089 C1102 0.930 . S
H1090 C1106 0.959 . S
H1091 C1106 0.959 . S
H1092 C1106 0.961 . S
H1093 C1107 0.960 . S
H1094 C1107 0.961 . S
H1095 C1107 0.959 . S
H1096 C1110 0.929 . S
H1097 C1111 0.931 . S
H1098 C1113 0.930 . S
C1099 H1087 0.930 . S
C1099 C1100 1.399 . S
C1099 C1104 1.399 . S
C1100 C1099 1.399 . S
C1100 C1101 1.376 . S
C1101 H1088 0.930 . S
C1101 C1100 1.376 . S
C1101 C1102 1.388 . S
C1102 H1089 0.930 . S
C1102 C1101 1.388 . S
C1102 C1103 1.390 . S
C1103 C1102 1.390 . S
C1103 C1104 1.394 . S
C1103 C1109 1.465 . S
C1104 C1099 1.399 . S
C1104 C1103 1.394 . S
C1104 C1105 1.516 . S
C1105 C1104 1.516 . S
C1105 C1106 1.502 . S
C1105 C1107 1.561 . S
C1105 C1108 1.526 . S
C1106 H1090 0.959 . S
C1106 H1091 0.959 . S
C1106 H1092 0.961 . S
C1106 C1105 1.502 . S
C1107 H1093 0.960 . S
C1107 H1094 0.961 . S
C1107 H1095 0.959 . S
C1107 C1105 1.561 . S
C1108 C1105 1.526 . S
C1108 C1109 1.396 . S
C1108 C1113 1.390 . S
C1109 C1103 1.465 . S
C1109 C1108 1.396 . S
C1109 C1110 1.399 . S
C1110 H1096 0.929 . S
C1110 C1109 1.399 . S
C1110 C1111 1.385 . S
C1111 H1097 0.931 . S
C1111 C1110 1.385 . S
C1111 C1112 1.389 . S
C1112 C1111 1.389 . S
C1112 C1113 1.387 . S
C1113 H1098 0.930 . S
C1113 C1108 1.390 . S
C1113 C1112 1.387 . S
H1114 C1126 0.930 . S
H1115 C1128 0.930 . S
H1116 C1129 0.930 . S
H1117 C1133 0.959 . S
H1118 C1133 0.959 . S
H1119 C1133 0.961 . S
H1120 C1134 0.960 . S
H1121 C1134 0.961 . S
H1122 C1134 0.959 . S
H1123 C1137 0.929 . S
H1124 C1138 0.931 . S
H1125 C1140 0.930 . S
C1126 H1114 0.930 . S
C1126 C1127 1.399 . S
C1126 C1131 1.399 . S
C1127 C1126 1.399 . S
C1127 C1128 1.376 . S
C1128 H1115 0.930 . S
C1128 C1127 1.376 . S
C1128 C1129 1.388 . S
C1129 H1116 0.930 . S
C1129 C1128 1.388 . S
C1129 C1130 1.390 . S
C1130 C1129 1.390 . S
C1130 C1131 1.394 . S
C1130 C1136 1.465 . S
C1131 C1126 1.399 . S
C1131 C1130 1.394 . S
C1131 C1132 1.516 . S
C1132 C1131 1.516 . S
C1132 C1133 1.502 . S
C1132 C1134 1.561 . S
C1132 C1135 1.526 . S
C1133 H1117 0.959 . S
C1133 H1118 0.959 . S
C1133 H1119 0.961 . S
C1133 C1132 1.502 . S
C1134 H1120 0.960 . S
C1134 H1121 0.961 . S
C1134 H1122 0.959 . S
C1134 C1132 1.561 . S
C1135 C1132 1.526 . S
C1135 C1136 1.396 . S
C1135 C1140 1.390 . S
C1136 C1130 1.465 . S
C1136 C1135 1.396 . S
C1136 C1137 1.399 . S
C1137 H1123 0.929 . S
C1137 C1136 1.399 . S
C1137 C1138 1.385 . S
C1138 H1124 0.931 . S
C1138 C1137 1.385 . S
C1138 C1139 1.389 . S
C1139 C1138 1.389 . S
C1139 C1140 1.387 . S
C1140 H1125 0.930 . S
C1140 C1135 1.390 . S
C1140 C1139 1.387 . S
H1141 C1153 0.930 . S
H1142 C1155 0.930 . S
H1143 C1156 0.930 . S
H1144 C1160 0.959 . S
H1145 C1160 0.959 . S
H1146 C1160 0.961 . S
H1147 C1161 0.960 . S
H1148 C1161 0.961 . S
H1149 C1161 0.959 . S
H1150 C1164 0.929 . S
H1151 C1165 0.931 . S
H1152 C1167 0.930 . S
C1153 H1141 0.930 . S
C1153 C1154 1.399 . S
C1153 C1158 1.399 . S
C1154 C1153 1.399 . S
C1154 C1155 1.376 . S
C1155 H1142 0.930 . S
C1155 C1154 1.376 . S
C1155 C1156 1.388 . S
C1156 H1143 0.930 . S
C1156 C1155 1.388 . S
C1156 C1157 1.390 . S
C1157 C1156 1.390 . S
C1157 C1158 1.394 . S
C1157 C1163 1.465 . S
C1158 C1153 1.399 . S
C1158 C1157 1.394 . S
C1158 C1159 1.516 . S
C1159 C1158 1.516 . S
C1159 C1160 1.502 . S
C1159 C1161 1.561 . S
C1159 C1162 1.526 . S
C1160 H1144 0.959 . S
C1160 H1145 0.959 . S
C1160 H1146 0.961 . S
C1160 C1159 1.502 . S
C1161 H1147 0.960 . S
C1161 H1148 0.961 . S
C1161 H1149 0.959 . S
C1161 C1159 1.561 . S
C1162 C1159 1.526 . S
C1162 C1163 1.396 . S
C1162 C1167 1.390 . S
C1163 C1157 1.465 . S
C1163 C1162 1.396 . S
C1163 C1164 1.399 . S
C1164 H1150 0.929 . S
C1164 C1163 1.399 . S
C1164 C1165 1.385 . S
C1165 H1151 0.931 . S
C1165 C1164 1.385 . S
C1165 C1166 1.389 . S
C1166 C1165 1.389 . S
C1166 C1167 1.387 . S
C1167 H1152 0.930 . S
C1167 C1162 1.390 . S
C1167 C1166 1.387 . S
H1168 C1180 0.930 . S
H1169 C1182 0.930 . S
H1170 C1183 0.930 . S
H1171 C1187 0.959 . S
H1172 C1187 0.959 . S
H1173 C1187 0.961 . S
H1174 C1188 0.960 . S
H1175 C1188 0.961 . S
H1176 C1188 0.959 . S
H1177 C1191 0.929 . S
H1178 C1192 0.931 . S
H1179 C1194 0.930 . S
C1180 H1168 0.930 . S
C1180 C1181 1.399 1_556 S
C1180 C1185 1.399 . S
C1181 C1180 1.399 1_554 S
C1181 C1182 1.376 . S
C1182 H1169 0.930 . S
C1182 C1181 1.376 . S
C1182 C1183 1.388 . S
C1183 H1170 0.930 . S
C1183 C1182 1.388 . S
C1183 C1184 1.390 . S
C1184 C1183 1.390 . S
C1184 C1185 1.394 1_554 S
C1184 C1190 1.465 1_545 S
C1185 C1180 1.399 . S
C1185 C1184 1.394 1_556 S
C1185 C1186 1.498 1_545 S
C1186 C1185 1.498 1_565 S
C1186 C1187 1.520 . S
C1186 C1188 1.544 1_565 S
C1186 C1189 1.542 . S
C1187 H1171 0.959 . S
C1187 H1172 0.959 . S
C1187 H1173 0.961 . S
C1187 C1186 1.520 . S
C1188 H1174 0.960 . S
C1188 H1175 0.961 . S
C1188 H1176 0.959 . S
C1188 C1186 1.544 1_545 S
C1189 C1186 1.542 . S
C1189 C1190 1.396 1_556 S
C1189 C1194 1.390 . S
C1190 C1184 1.465 1_565 S
C1190 C1189 1.396 1_554 S
C1190 C1191 1.399 . S
C1191 H1177 0.929 . S
C1191 C1190 1.399 . S
C1191 C1192 1.385 . S
C1192 H1178 0.931 . S
C1192 C1191 1.385 . S
C1192 C1193 1.403 . S
C1193 C1192 1.403 . S
C1193 C1194 1.376 1_554 S
C1194 H1179 0.930 . S
C1194 C1189 1.390 . S
C1194 C1193 1.376 1_556 S
H1195 C1207 0.930 . S
H1196 C1209 0.930 . S
H1197 C1210 0.930 . S
H1198 C1214 0.959 . S
H1199 C1214 0.959 . S
H1200 C1214 0.961 . S
H1201 C1215 0.960 . S
H1202 C1215 0.961 . S
H1203 C1215 0.959 . S
H1204 C1218 0.929 . S
H1205 C1219 0.931 . S
H1206 C1221 0.930 . S
C1207 H1195 0.930 . S
C1207 C1208 1.399 . S
C1207 C1212 1.399 . S
C1208 C1207 1.399 . S
C1208 C1209 1.377 1_556 S
C1209 H1196 0.930 . S
C1209 C1208 1.377 1_554 S
C1209 C1210 1.388 . S
C1210 H1197 0.930 . S
C1210 C1209 1.388 . S
C1210 C1211 1.390 . S
C1211 C1210 1.390 . S
C1211 C1212 1.394 1_554 S
C1211 C1217 1.465 . S
C1212 C1207 1.399 . S
C1212 C1211 1.394 1_556 S
C1212 C1213 1.516 . S
C1213 C1212 1.516 . S
C1213 C1214 1.502 . S
C1213 C1215 1.561 . S
C1213 C1216 1.526 . S
C1214 H1198 0.959 . S
C1214 H1199 0.959 . S
C1214 H1200 0.961 . S
C1214 C1213 1.502 . S
C1215 H1201 0.960 . S
C1215 H1202 0.961 . S
C1215 H1203 0.959 . S
C1215 C1213 1.561 . S
C1216 C1213 1.526 . S
C1216 C1217 1.396 1_556 S
C1216 C1221 1.390 . S
C1217 C1211 1.465 . S
C1217 C1216 1.396 1_554 S
C1217 C1218 1.399 . S
C1218 H1204 0.929 . S
C1218 C1217 1.399 . S
C1218 C1219 1.385 . S
C1219 H1205 0.931 . S
C1219 C1218 1.385 . S
C1219 C1220 1.389 . S
C1220 C1219 1.389 . S
C1220 C1221 1.387 1_554 S
C1221 H1206 0.930 . S
C1221 C1216 1.390 . S
C1221 C1220 1.387 1_556 S
H1222 C1234 0.930 . S
H1223 C1236 0.930 . S
H1224 C1237 0.930 . S
H1225 C1241 0.959 . S
H1226 C1241 0.959 . S
H1227 C1241 0.961 . S
H1228 C1242 0.960 . S
H1229 C1242 0.961 . S
H1230 C1242 0.959 . S
H1231 C1245 0.929 . S
H1232 C1246 0.931 . S
H1233 C1248 0.930 . S
C1234 H1222 0.930 . S
C1234 C1235 1.399 . S
C1234 C1239 1.399 . S
C1235 C1234 1.399 . S
C1235 C1236 1.376 . S
C1236 H1223 0.930 . S
C1236 C1235 1.376 . S
C1236 C1237 1.388 . S
C1237 H1224 0.930 . S
C1237 C1236 1.388 . S
C1237 C1238 1.390 . S
C1238 C1237 1.390 . S
C1238 C1239 1.394 . S
C1238 C1244 1.465 . S
C1239 C1234 1.399 . S
C1239 C1238 1.394 . S
C1239 C1240 1.516 . S
C1240 C1239 1.516 . S
C1240 C1241 1.502 . S
C1240 C1242 1.561 . S
C1240 C1243 1.526 . S
C1241 H1225 0.959 . S
C1241 H1226 0.959 . S
C1241 H1227 0.961 . S
C1241 C1240 1.502 . S
C1242 H1228 0.960 . S
C1242 H1229 0.961 . S
C1242 H1230 0.959 . S
C1242 C1240 1.561 . S
C1243 C1240 1.526 . S
C1243 C1244 1.396 . S
C1243 C1248 1.390 . S
C1244 C1238 1.465 . S
C1244 C1243 1.396 . S
C1244 C1245 1.399 . S
C1245 H1231 0.929 . S
C1245 C1244 1.399 . S
C1245 C1246 1.385 . S
C1246 H1232 0.931 . S
C1246 C1245 1.385 . S
C1246 C1247 1.389 . S
C1247 C1246 1.389 . S
C1247 C1248 1.387 . S
C1248 H1233 0.930 . S
C1248 C1243 1.390 . S
C1248 C1247 1.387 . S
H1249 C1261 0.930 . S
H1250 C1263 0.930 . S
H1251 C1264 0.973 . S
H1252 C1268 0.959 . S
H1253 C1268 0.959 . S
H1254 C1268 0.961 . S
H1255 C1269 0.960 1_565 S
H1256 C1269 0.961 . S
H1257 C1269 0.959 . S
H1258 C1272 0.929 . S
H1259 C1273 0.931 . S
H1260 C1275 0.930 . S
C1261 H1249 0.930 . S
C1261 C1262 1.399 . S
C1261 C1266 1.399 . S
C1262 C1261 1.399 . S
C1262 C1263 1.376 . S
C1263 H1250 0.930 . S
C1263 C1262 1.376 . S
C1263 C1264 1.388 . S
C1264 H1251 0.973 . S
C1264 C1263 1.388 . S
C1264 C1265 1.390 . S
C1265 C1264 1.390 . S
C1265 C1266 1.394 . S
C1265 C1271 1.465 1_565 S
C1266 C1261 1.399 . S
C1266 C1265 1.394 . S
C1266 C1267 1.516 . S
C1267 C1266 1.516 . S
C1267 C1268 1.502 . S
C1267 C1269 1.561 1_565 S
C1267 C1270 1.526 1_565 S
C1268 H1252 0.959 . S
C1268 H1253 0.959 . S
C1268 H1254 0.961 . S
C1268 C1267 1.502 . S
C1269 H1255 0.960 1_545 S
C1269 H1256 0.961 . S
C1269 H1257 0.959 . S
C1269 C1267 1.561 1_545 S
C1270 C1267 1.526 1_545 S
C1270 C1271 1.396 . S
C1270 C1275 1.390 . S
C1271 C1265 1.465 1_545 S
C1271 C1270 1.396 . S
C1271 C1272 1.399 . S
C1272 H1258 0.929 . S
C1272 C1271 1.399 . S
C1272 C1273 1.385 . S
C1273 H1259 0.931 . S
C1273 C1272 1.385 . S
C1273 C1274 1.389 . S
C1274 C1273 1.389 . S
C1274 C1275 1.387 . S
C1275 H1260 0.930 . S
C1275 C1270 1.390 . S
C1275 C1274 1.387 . S
H1276 C1288 0.930 . S
H1277 C1290 0.930 . S
H1278 C1291 0.930 . S
H1279 C1295 0.959 . S
H1280 C1295 0.959 . S
H1281 C1295 0.961 . S
H1282 C1296 0.960 . S
H1283 C1296 0.961 . S
H1284 C1296 0.959 . S
H1285 C1299 0.929 . S
H1286 C1300 0.931 . S
H1287 C1302 0.930 . S
C1288 H1276 0.930 . S
C1288 C1289 1.383 1_554 S
C1288 C1293 1.399 . S
C1289 C1288 1.383 1_556 S
C1289 C1290 1.398 . S
C1290 H1277 0.930 . S
C1290 C1289 1.398 . S
C1290 C1291 1.388 . S
C1291 H1278 0.930 . S
C1291 C1290 1.388 . S
C1291 C1292 1.390 . S
C1292 C1291 1.390 . S
C1292 C1293 1.394 1_556 S
C1292 C1298 1.465 . S
C1293 C1288 1.399 . S
C1293 C1292 1.394 1_554 S
C1293 C1294 1.516 . S
C1294 C1293 1.516 . S
C1294 C1295 1.502 . S
C1294 C1296 1.561 . S
C1294 C1297 1.526 . S
C1295 H1279 0.959 . S
C1295 H1280 0.959 . S
C1295 H1281 0.961 . S
C1295 C1294 1.502 . S
C1296 H1282 0.960 . S
C1296 H1283 0.961 . S
C1296 H1284 0.959 . S
C1296 C1294 1.561 . S
C1297 C1294 1.526 . S
C1297 C1298 1.396 1_554 S
C1297 C1302 1.390 . S
C1298 C1292 1.465 . S
C1298 C1297 1.396 1_556 S
C1298 C1299 1.399 . S
C1299 H1285 0.929 . S
C1299 C1298 1.399 . S
C1299 C1300 1.385 . S
C1300 H1286 0.931 . S
C1300 C1299 1.385 . S
C1300 C1301 1.389 . S
C1301 C1300 1.389 . S
C1301 C1302 1.387 1_556 S
C1302 H1287 0.930 . S
C1302 C1297 1.390 . S
C1302 C1301 1.387 1_554 S
H1303 C1315 0.930 . S
H1304 C1317 0.930 . S
H1305 C1318 0.930 . S
H1306 C1322 0.959 . S
H1307 C1322 0.959 . S
H1308 C1322 0.961 . S
H1309 C1323 0.960 . S
H1310 C1323 0.961 . S
H1311 C1323 0.959 . S
H1312 C1326 0.929 . S
H1313 C1327 0.931 . S
H1314 C1329 0.930 . S
C1315 H1303 0.930 . S
C1315 C1316 1.399 . S
C1315 C1320 1.399 . S
C1316 C1315 1.399 . S
C1316 C1317 1.376 . S
C1317 H1304 0.930 . S
C1317 C1316 1.376 . S
C1317 C1318 1.388 . S
C1318 H1305 0.930 . S
C1318 C1317 1.388 . S
C1318 C1319 1.390 . S
C1319 C1318 1.390 . S
C1319 C1320 1.394 . S
C1319 C1325 1.465 . S
C1320 C1315 1.399 . S
C1320 C1319 1.394 . S
C1320 C1321 1.516 . S
C1321 C1320 1.516 . S
C1321 C1322 1.502 . S
C1321 C1323 1.561 . S
C1321 C1324 1.526 . S
C1322 H1306 0.959 . S
C1322 H1307 0.959 . S
C1322 H1308 0.961 . S
C1322 C1321 1.502 . S
C1323 H1309 0.960 . S
C1323 H1310 0.961 . S
C1323 H1311 0.959 . S
C1323 C1321 1.561 . S
C1324 C1321 1.526 . S
C1324 C1325 1.396 . S
C1324 C1329 1.390 . S
C1325 C1319 1.465 . S
C1325 C1324 1.396 . S
C1325 C1326 1.399 . S
C1326 H1312 0.929 . S
C1326 C1325 1.399 . S
C1326 C1327 1.385 . S
C1327 H1313 0.931 . S
C1327 C1326 1.385 . S
C1327 C1328 1.389 . S
C1328 C1327 1.389 . S
C1328 C1329 1.387 . S
C1329 H1314 0.930 . S
C1329 C1324 1.390 . S
C1329 C1328 1.387 . S
H1330 C1342 0.930 . S
H1331 C1344 0.930 . S
H1332 C1345 0.930 . S
H1333 C1349 0.959 . S
H1334 C1349 0.959 . S
H1335 C1349 0.961 . S
H1336 C1350 0.960 . S
H1337 C1350 0.961 . S
H1338 C1350 0.959 . S
H1339 C1353 0.929 . S
H1340 C1354 0.931 . S
H1341 C1356 0.930 . S
C1342 H1330 0.930 . S
C1342 C1343 1.399 . S
C1342 C1347 1.399 . S
C1343 C1342 1.399 . S
C1343 C1344 1.376 . S
C1344 H1331 0.930 . S
C1344 C1343 1.376 . S
C1344 C1345 1.388 . S
C1345 H1332 0.930 . S
C1345 C1344 1.388 . S
C1345 C1346 1.390 . S
C1346 C1345 1.390 . S
C1346 C1347 1.394 . S
C1346 C1352 1.465 1_565 S
C1347 C1342 1.399 . S
C1347 C1346 1.394 . S
C1347 C1348 1.492 1_565 S
C1348 C1347 1.492 1_545 S
C1348 C1349 1.526 . S
C1348 C1350 1.538 1_545 S
C1348 C1351 1.548 . S
C1349 H1333 0.959 . S
C1349 H1334 0.959 . S
C1349 H1335 0.961 . S
C1349 C1348 1.526 . S
C1350 H1336 0.960 . S
C1350 H1337 0.961 . S
C1350 H1338 0.959 . S
C1350 C1348 1.538 1_565 S
C1351 C1348 1.548 . S
C1351 C1352 1.396 . S
C1351 C1356 1.390 . S
C1352 C1346 1.465 1_545 S
C1352 C1351 1.396 . S
C1352 C1353 1.399 . S
C1353 H1339 0.929 . S
C1353 C1352 1.399 . S
C1353 C1354 1.385 . S
C1354 H1340 0.931 . S
C1354 C1353 1.385 . S
C1354 C1355 1.389 . S
C1355 C1354 1.389 . S
C1355 C1356 1.387 . S
C1356 H1341 0.930 . S
C1356 C1351 1.390 . S
C1356 C1355 1.387 . S
H1357 C1369 0.930 . S
H1358 C1371 0.930 . S
H1359 C1372 0.930 . S
H1360 C1376 0.959 . S
H1361 C1376 0.959 . S
H1362 C1376 0.961 . S
H1363 C1377 0.960 . S
H1364 C1377 0.961 . S
H1365 C1377 0.959 . S
H1366 C1380 0.929 . S
H1367 C1381 0.931 . S
H1368 C1383 0.930 . S
C1369 H1357 0.930 . S
C1369 C1370 1.399 . S
C1369 C1374 1.399 . S
C1370 C1369 1.399 . S
C1370 C1371 1.376 . S
C1371 H1358 0.930 . S
C1371 C1370 1.376 . S
C1371 C1372 1.388 . S
C1372 H1359 0.930 . S
C1372 C1371 1.388 . S
C1372 C1373 1.390 . S
C1373 C1372 1.390 . S
C1373 C1374 1.394 . S
C1373 C1379 1.465 . S
C1374 C1369 1.399 . S
C1374 C1373 1.394 . S
C1374 C1375 1.516 . S
C1375 C1374 1.516 . S
C1375 C1376 1.502 . S
C1375 C1377 1.561 . S
C1375 C1378 1.526 . S
C1376 H1360 0.959 . S
C1376 H1361 0.959 . S
C1376 H1362 0.961 . S
C1376 C1375 1.502 . S
C1377 H1363 0.960 . S
C1377 H1364 0.961 . S
C1377 H1365 0.959 . S
C1377 C1375 1.561 . S
C1378 C1375 1.526 . S
C1378 C1379 1.396 . S
C1378 C1383 1.390 . S
C1379 C1373 1.465 . S
C1379 C1378 1.396 . S
C1379 C1380 1.399 . S
C1380 H1366 0.929 . S
C1380 C1379 1.399 . S
C1380 C1381 1.385 . S
C1381 H1367 0.931 . S
C1381 C1380 1.385 . S
C1381 C1382 1.389 . S
C1382 C1381 1.389 . S
C1382 C1383 1.387 . S
C1383 H1368 0.930 . S
C1383 C1378 1.390 . S
C1383 C1382 1.387 . S
H1384 C1396 0.930 . S
H1385 C1398 0.930 . S
H1386 C1399 0.930 . S
H1387 C1403 0.959 . S
H1388 C1403 0.959 . S
H1389 C1403 0.961 . S
H1390 C1404 0.960 . S
H1391 C1404 0.961 . S
H1392 C1404 0.959 . S
H1393 C1407 0.929 . S
H1394 C1408 0.931 . S
H1395 C1410 0.930 . S
C1396 H1384 0.930 . S
C1396 C1397 1.399 . S
C1396 C1401 1.399 . S
C1397 C1396 1.399 . S
C1397 C1398 1.376 . S
C1398 H1385 0.930 . S
C1398 C1397 1.376 . S
C1398 C1399 1.388 . S
C1399 H1386 0.930 . S
C1399 C1398 1.388 . S
C1399 C1400 1.390 . S
C1400 C1399 1.390 . S
C1400 C1401 1.394 . S
C1400 C1406 1.465 . S
C1401 C1396 1.399 . S
C1401 C1400 1.394 . S
C1401 C1402 1.516 . S
C1402 C1401 1.516 . S
C1402 C1403 1.502 . S
C1402 C1404 1.561 . S
C1402 C1405 1.526 . S
C1403 H1387 0.959 . S
C1403 H1388 0.959 . S
C1403 H1389 0.961 . S
C1403 C1402 1.502 . S
C1404 H1390 0.960 . S
C1404 H1391 0.961 . S
C1404 H1392 0.959 . S
C1404 C1402 1.561 . S
C1405 C1402 1.526 . S
C1405 C1406 1.396 . S
C1405 C1410 1.390 . S
C1406 C1400 1.465 . S
C1406 C1405 1.396 . S
C1406 C1407 1.399 . S
C1407 H1393 0.929 . S
C1407 C1406 1.399 . S
C1407 C1408 1.385 . S
C1408 H1394 0.931 . S
C1408 C1407 1.385 . S
C1408 C1409 1.389 . S
C1409 C1408 1.389 . S
C1409 C1410 1.387 . S
C1410 H1395 0.930 . S
C1410 C1405 1.390 . S
C1410 C1409 1.387 . S
H1411 C1423 0.930 . S
H1412 C1425 0.930 . S
H1413 C1426 0.930 . S
H1414 C1430 0.959 . S
H1415 C1430 0.959 . S
H1416 C1430 0.961 . S
H1417 C1431 0.960 . S
H1418 C1431 0.961 . S
H1419 C1431 0.959 . S
H1420 C1434 0.929 . S
H1421 C1435 0.931 . S
H1422 C1437 0.930 . S
C1423 H1411 0.930 . S
C1423 C1424 1.399 . S
C1423 C1428 1.399 . S
C1424 C1423 1.399 . S
C1424 C1425 1.376 . S
C1425 H1412 0.930 . S
C1425 C1424 1.376 . S
C1425 C1426 1.388 . S
C1426 H1413 0.930 . S
C1426 C1425 1.388 . S
C1426 C1427 1.390 . S
C1427 C1426 1.390 . S
C1427 C1428 1.394 . S
C1427 C1433 1.465 . S
C1428 C1423 1.399 . S
C1428 C1427 1.394 . S
C1428 C1429 1.516 . S
C1429 C1428 1.516 . S
C1429 C1430 1.502 . S
C1429 C1431 1.561 . S
C1429 C1432 1.526 . S
C1430 H1414 0.959 . S
C1430 H1415 0.959 . S
C1430 H1416 0.961 . S
C1430 C1429 1.502 . S
C1431 H1417 0.960 . S
C1431 H1418 0.961 . S
C1431 H1419 0.959 . S
C1431 C1429 1.561 . S
C1432 C1429 1.526 . S
C1432 C1433 1.396 . S
C1432 C1437 1.390 . S
C1433 C1427 1.465 . S
C1433 C1432 1.396 . S
C1433 C1434 1.399 . S
C1434 H1420 0.929 . S
C1434 C1433 1.399 . S
C1434 C1435 1.385 . S
C1435 H1421 0.931 . S
C1435 C1434 1.385 . S
C1435 C1436 1.389 . S
C1436 C1435 1.389 . S
C1436 C1437 1.387 . S
C1437 H1422 0.930 . S
C1437 C1432 1.390 . S
C1437 C1436 1.387 . S
H1438 C1450 0.930 . S
H1439 C1452 0.930 . S
H1440 C1453 0.930 . S
H1441 C1457 0.959 . S
H1442 C1457 0.959 . S
H1443 C1457 0.961 . S
H1444 C1458 0.960 . S
H1445 C1458 0.961 . S
H1446 C1458 0.959 . S
H1447 C1461 0.929 . S
H1448 C1462 0.931 . S
H1449 C1464 0.930 . S
C1450 H1438 0.930 . S
C1450 C1451 1.399 . S
C1450 C1455 1.399 . S
C1451 C1450 1.399 . S
C1451 C1452 1.376 . S
C1452 H1439 0.930 . S
C1452 C1451 1.376 . S
C1452 C1453 1.388 . S
C1453 H1440 0.930 . S
C1453 C1452 1.388 . S
C1453 C1454 1.390 . S
C1454 C1453 1.390 . S
C1454 C1455 1.394 . S
C1454 C1460 1.465 . S
C1455 C1450 1.399 . S
C1455 C1454 1.394 . S
C1455 C1456 1.516 . S
C1456 C1455 1.516 . S
C1456 C1457 1.502 . S
C1456 C1458 1.561 . S
C1456 C1459 1.526 . S
C1457 H1441 0.959 . S
C1457 H1442 0.959 . S
C1457 H1443 0.961 . S
C1457 C1456 1.502 . S
C1458 H1444 0.960 . S
C1458 H1445 0.961 . S
C1458 H1446 0.959 . S
C1458 C1456 1.561 . S
C1459 C1456 1.526 . S
C1459 C1460 1.396 . S
C1459 C1464 1.390 . S
C1460 C1454 1.465 . S
C1460 C1459 1.396 . S
C1460 C1461 1.399 . S
C1461 H1447 0.929 . S
C1461 C1460 1.399 . S
C1461 C1462 1.385 . S
C1462 H1448 0.931 . S
C1462 C1461 1.385 . S
C1462 C1463 1.389 . S
C1463 C1462 1.389 . S
C1463 C1464 1.387 . S
C1464 H1449 0.930 . S
C1464 C1459 1.390 . S
C1464 C1463 1.387 . S
H1465 C1477 0.930 . S
H1466 C1479 0.930 . S
H1467 C1480 0.930 . S
H1468 C1484 0.959 . S
H1469 C1484 0.959 . S
H1470 C1484 0.961 . S
H1471 C1485 0.960 . S
H1472 C1485 0.961 . S
H1473 C1485 0.959 . S
H1474 C1488 0.929 . S
H1475 C1489 0.931 . S
H1476 C1491 0.930 . S
C1477 H1465 0.930 . S
C1477 C1478 1.399 . S
C1477 C1482 1.399 . S
C1478 C1477 1.399 . S
C1478 C1479 1.376 . S
C1479 H1466 0.930 . S
C1479 C1478 1.376 . S
C1479 C1480 1.388 . S
C1480 H1467 0.930 . S
C1480 C1479 1.388 . S
C1480 C1481 1.390 . S
C1481 C1480 1.390 . S
C1481 C1482 1.394 . S
C1481 C1487 1.465 . S
C1482 C1477 1.399 . S
C1482 C1481 1.394 . S
C1482 C1483 1.516 . S
C1483 C1482 1.516 . S
C1483 C1484 1.502 . S
C1483 C1485 1.561 . S
C1483 C1486 1.526 . S
C1484 H1468 0.959 . S
C1484 H1469 0.959 . S
C1484 H1470 0.961 . S
C1484 C1483 1.502 . S
C1485 H1471 0.960 . S
C1485 H1472 0.961 . S
C1485 H1473 0.959 . S
C1485 C1483 1.561 . S
C1486 C1483 1.526 . S
C1486 C1487 1.396 . S
C1486 C1491 1.390 . S
C1487 C1481 1.465 . S
C1487 C1486 1.396 . S
C1487 C1488 1.399 . S
C1488 H1474 0.929 . S
C1488 C1487 1.399 . S
C1488 C1489 1.385 . S
C1489 H1475 0.931 . S
C1489 C1488 1.385 . S
C1489 C1490 1.389 . S
C1490 C1489 1.389 . S
C1490 C1491 1.387 . S
C1491 H1476 0.930 . S
C1491 C1486 1.390 . S
C1491 C1490 1.387 . S
H1492 C1504 0.930 . S
H1493 C1506 0.930 . S
H1494 C1507 0.930 . S
H1495 C1511 0.959 . S
H1496 C1511 0.959 1_655 S
H1497 C1511 0.961 1_565 S
H1498 C1512 0.960 . S
H1499 C1512 0.961 . S
H1500 C1512 0.959 . S
H1501 C1515 0.929 . S
H1502 C1516 0.931 . S
H1503 C1518 0.930 . S
C1504 H1492 0.930 . S
C1504 C1505 1.399 . S
C1504 C1509 1.399 . S
C1505 C1504 1.399 . S
C1505 C1506 1.376 . S
C1506 H1493 0.930 . S
C1506 C1505 1.376 . S
C1506 C1507 1.388 . S
C1507 H1494 0.930 . S
C1507 C1506 1.388 . S
C1507 C1508 1.390 . S
C1508 C1507 1.390 . S
C1508 C1509 1.394 . S
C1508 C1514 1.465 1_465 S
C1509 C1504 1.399 . S
C1509 C1508 1.394 . S
C1509 C1510 1.516 1_455 S
C1510 C1509 1.516 1_655 S
C1510 C1511 1.502 1_665 S
C1510 C1512 1.561 . S
C1510 C1513 1.526 1_565 S
C1511 H1495 0.959 . S
C1511 H1496 0.959 1_455 S
C1511 H1497 0.961 1_545 S
C1511 C1510 1.502 1_445 S
C1512 H1498 0.960 . S
C1512 H1499 0.961 . S
C1512 H1500 0.959 . S
C1512 C1510 1.561 . S
C1513 C1510 1.526 1_545 S
C1513 C1514 1.396 . S
C1513 C1518 1.390 . S
C1514 C1508 1.465 1_645 S
C1514 C1513 1.396 . S
C1514 C1515 1.399 . S
C1515 H1501 0.929 . S
C1515 C1514 1.399 . S
C1515 C1516 1.385 . S
C1516 H1502 0.931 . S
C1516 C1515 1.385 . S
C1516 C1517 1.389 . S
C1517 C1516 1.389 . S
C1517 C1518 1.387 . S
C1518 H1503 0.930 . S
C1518 C1513 1.390 . S
C1518 C1517 1.387 . S
H1519 C1531 0.930 . S
H1520 C1533 0.930 . S
H1521 C1534 0.930 . S
H1522 C1538 0.959 . S
H1523 C1538 0.959 . S
H1524 C1538 0.961 . S
H1525 C1539 0.946 1_655 S
H1526 C1539 0.961 . S
H1527 C1539 0.959 . S
H1528 C1542 0.929 . S
H1529 C1543 0.931 . S
H1530 C1545 0.930 . S
C1531 H1519 0.930 . S
C1531 C1532 1.399 . S
C1531 C1536 1.399 . S
C1532 C1531 1.399 . S
C1532 C1533 1.376 . S
C1533 H1520 0.930 . S
C1533 C1532 1.376 . S
C1533 C1534 1.388 . S
C1534 H1521 0.930 . S
C1534 C1533 1.388 . S
C1534 C1535 1.390 . S
C1535 C1534 1.390 . S
C1535 C1536 1.394 . S
C1535 C1541 1.465 1_655 S
C1536 C1531 1.399 . S
C1536 C1535 1.394 . S
C1536 C1537 1.516 . S
C1537 C1536 1.516 . S
C1537 C1538 1.502 . S
C1537 C1539 1.561 1_655 S
C1537 C1540 1.526 1_655 S
C1538 H1522 0.959 . S
C1538 H1523 0.959 . S
C1538 H1524 0.961 . S
C1538 C1537 1.502 . S
C1539 H1525 0.946 1_455 S
C1539 H1526 0.961 . S
C1539 H1527 0.959 . S
C1539 C1537 1.561 1_455 S
C1540 C1537 1.526 1_455 S
C1540 C1541 1.396 . S
C1540 C1545 1.390 . S
C1541 C1535 1.465 1_455 S
C1541 C1540 1.396 . S
C1541 C1542 1.399 . S
C1542 H1528 0.929 . S
C1542 C1541 1.399 . S
C1542 C1543 1.385 . S
C1543 H1529 0.931 . S
C1543 C1542 1.385 . S
C1543 C1544 1.389 . S
C1544 C1543 1.389 . S
C1544 C1545 1.387 . S
C1545 H1530 0.930 . S
C1545 C1540 1.390 . S
C1545 C1544 1.387 . S
H1546 C1558 0.930 . S
H1547 C1560 0.930 . S
H1548 C1561 0.912 1_655 S
H1549 C1565 0.959 . S
H1550 C1565 0.959 . S
H1551 C1565 0.961 . S
H1552 C1566 0.960 . S
H1553 C1566 0.961 . S
H1554 C1566 0.959 . S
H1555 C1569 0.929 . S
H1556 C1570 0.931 . S
H1557 C1572 0.930 . S
C1558 H1546 0.930 . S
C1558 C1559 1.399 . S
C1558 C1563 1.399 . S
C1559 C1558 1.399 . S
C1559 C1560 1.376 . S
C1560 H1547 0.930 . S
C1560 C1559 1.376 . S
C1560 C1561 1.407 . S
C1561 H1548 0.912 1_455 S
C1561 C1560 1.407 . S
C1561 C1562 1.390 . S
C1562 C1561 1.390 . S
C1562 C1563 1.394 . S
C1562 C1568 1.465 1_455 S
C1563 C1558 1.399 . S
C1563 C1562 1.394 . S
C1563 C1564 1.516 . S
C1564 C1563 1.516 . S
C1564 C1565 1.502 . S
C1564 C1566 1.561 . S
C1564 C1567 1.526 1_455 S
C1565 H1549 0.959 . S
C1565 H1550 0.959 . S
C1565 H1551 0.961 . S
C1565 C1564 1.502 . S
C1566 H1552 0.960 . S
C1566 H1553 0.961 . S
C1566 H1554 0.959 . S
C1566 C1564 1.561 . S
C1567 C1564 1.526 1_655 S
C1567 C1568 1.396 . S
C1567 C1572 1.390 . S
C1568 C1562 1.465 1_655 S
C1568 C1567 1.396 . S
C1568 C1569 1.399 . S
C1569 H1555 0.929 . S
C1569 C1568 1.399 . S
C1569 C1570 1.385 . S
C1570 H1556 0.931 . S
C1570 C1569 1.385 . S
C1570 C1571 1.389 . S
C1571 C1570 1.389 . S
C1571 C1572 1.387 . S
C1572 H1557 0.930 . S
C1572 C1567 1.390 . S
C1572 C1571 1.387 . S
H1573 C1585 0.930 . S
H1574 C1587 0.930 . S
H1575 C1588 0.930 . S
H1576 C1592 0.959 . S
H1577 C1592 0.959 . S
H1578 C1592 0.961 . S
H1579 C1593 0.960 1_455 S
H1580 C1593 0.961 . S
H1581 C1593 0.959 . S
H1582 C1596 0.929 . S
H1583 C1597 0.931 . S
H1584 C1599 0.930 . S
C1585 H1573 0.930 . S
C1585 C1586 1.408 . S
C1585 C1590 1.399 . S
C1586 C1585 1.408 . S
C1586 C1587 1.365 1_556 S
C1587 H1574 0.930 . S
C1587 C1586 1.365 1_554 S
C1587 C1588 1.388 . S
C1588 H1575 0.930 . S
C1588 C1587 1.388 . S
C1588 C1589 1.390 . S
C1589 C1588 1.390 . S
C1589 C1590 1.394 1_554 S
C1589 C1595 1.465 1_455 S
C1590 C1585 1.399 . S
C1590 C1589 1.394 1_556 S
C1590 C1591 1.516 . S
C1591 C1590 1.516 . S
C1591 C1592 1.502 . S
C1591 C1593 1.561 1_455 S
C1591 C1594 1.526 1_455 S
C1592 H1576 0.959 . S
C1592 H1577 0.959 . S
C1592 H1578 0.961 . S
C1592 C1591 1.502 . S
C1593 H1579 0.960 1_655 S
C1593 H1580 0.961 . S
C1593 H1581 0.959 . S
C1593 C1591 1.561 1_655 S
C1594 C1591 1.526 1_655 S
C1594 C1595 1.396 1_556 S
C1594 C1599 1.390 . S
C1595 C1589 1.465 1_655 S
C1595 C1594 1.396 1_554 S
C1595 C1596 1.399 . S
C1596 H1582 0.929 . S
C1596 C1595 1.399 . S
C1596 C1597 1.385 . S
C1597 H1583 0.931 . S
C1597 C1596 1.385 . S
C1597 C1598 1.389 . S
C1598 C1597 1.389 . S
C1598 C1599 1.387 1_554 S
C1599 H1584 0.930 . S
C1599 C1594 1.390 . S
C1599 C1598 1.387 1_556 S
H1600 C1612 0.930 . S
H1601 C1614 0.930 . S
H1602 C1615 0.930 . S
H1603 C1619 0.959 . S
H1604 C1619 0.959 . S
H1605 C1619 0.961 . S
H1606 C1620 0.960 . S
H1607 C1620 0.961 . S
H1608 C1620 0.959 . S
H1609 C1623 0.929 . S
H1610 C1624 0.931 . S
H1611 C1626 0.930 . S
C1612 H1600 0.930 . S
C1612 C1613 1.399 . S
C1612 C1617 1.399 . S
C1613 C1612 1.399 . S
C1613 C1614 1.376 . S
C1614 H1601 0.930 . S
C1614 C1613 1.376 . S
C1614 C1615 1.388 . S
C1615 H1602 0.930 . S
C1615 C1614 1.388 . S
C1615 C1616 1.390 . S
C1616 C1615 1.390 . S
C1616 C1617 1.394 . S
C1616 C1622 1.465 . S
C1617 C1612 1.399 . S
C1617 C1616 1.394 . S
C1617 C1618 1.516 . S
C1618 C1617 1.516 . S
C1618 C1619 1.502 . S
C1618 C1620 1.561 . S
C1618 C1621 1.526 . S
C1619 H1603 0.959 . S
C1619 H1604 0.959 . S
C1619 H1605 0.961 . S
C1619 C1618 1.502 . S
C1620 H1606 0.960 . S
C1620 H1607 0.961 . S
C1620 H1608 0.959 . S
C1620 C1618 1.561 . S
C1621 C1618 1.526 . S
C1621 C1622 1.396 . S
C1621 C1626 1.390 . S
C1622 C1616 1.465 . S
C1622 C1621 1.396 . S
C1622 C1623 1.399 . S
C1623 H1609 0.929 . S
C1623 C1622 1.399 . S
C1623 C1624 1.385 . S
C1624 H1610 0.931 . S
C1624 C1623 1.385 . S
C1624 C1625 1.389 . S
C1625 C1624 1.389 . S
C1625 C1626 1.387 . S
C1626 H1611 0.930 . S
C1626 C1621 1.390 . S
C1626 C1625 1.387 . S
H1627 C1639 0.930 . S
H1628 C1641 0.930 . S
H1629 C1642 0.930 . S
H1630 C1646 0.959 . S
H1631 C1646 0.959 . S
H1632 C1646 0.961 . S
H1633 C1647 0.960 . S
H1634 C1647 0.961 . S
H1635 C1647 0.959 . S
H1636 C1650 0.929 . S
H1637 C1651 0.931 . S
H1638 C1653 0.930 . S
C1639 H1627 0.930 . S
C1639 C1640 1.399 . S
C1639 C1644 1.399 . S
C1640 C1639 1.399 . S
C1640 C1641 1.376 . S
C1641 H1628 0.930 . S
C1641 C1640 1.376 . S
C1641 C1642 1.388 . S
C1642 H1629 0.930 . S
C1642 C1641 1.388 . S
C1642 C1643 1.390 . S
C1643 C1642 1.390 . S
C1643 C1644 1.394 . S
C1643 C1649 1.465 . S
C1644 C1639 1.399 . S
C1644 C1643 1.394 . S
C1644 C1645 1.516 . S
C1645 C1644 1.516 . S
C1645 C1646 1.502 . S
C1645 C1647 1.561 . S
C1645 C1648 1.526 . S
C1646 H1630 0.959 . S
C1646 H1631 0.959 . S
C1646 H1632 0.961 . S
C1646 C1645 1.502 . S
C1647 H1633 0.960 . S
C1647 H1634 0.961 . S
C1647 H1635 0.959 . S
C1647 C1645 1.561 . S
C1648 C1645 1.526 . S
C1648 C1649 1.396 . S
C1648 C1653 1.390 . S
C1649 C1643 1.465 . S
C1649 C1648 1.396 . S
C1649 C1650 1.399 . S
C1650 H1636 0.929 . S
C1650 C1649 1.399 . S
C1650 C1651 1.385 . S
C1651 H1637 0.931 . S
C1651 C1650 1.385 . S
C1651 C1652 1.389 . S
C1652 C1651 1.389 . S
C1652 C1653 1.387 . S
C1653 H1638 0.930 . S
C1653 C1648 1.390 . S
C1653 C1652 1.387 . S
H1654 C1666 0.930 . S
H1655 C1668 0.930 . S
H1656 C1669 0.930 . S
H1657 C1673 0.959 . S
H1658 C1673 0.959 . S
H1659 C1673 0.961 . S
H1660 C1674 0.960 . S
H1661 C1674 0.961 . S
H1662 C1674 0.959 . S
H1663 C1677 0.929 . S
H1664 C1678 0.931 . S
H1665 C1680 0.930 . S
C1666 H1654 0.930 . S
C1666 C1667 1.399 . S
C1666 C1671 1.399 . S
C1667 C1666 1.399 . S
C1667 C1668 1.376 . S
C1668 H1655 0.930 . S
C1668 C1667 1.376 . S
C1668 C1669 1.388 . S
C1669 H1656 0.930 . S
C1669 C1668 1.388 . S
C1669 C1670 1.390 . S
C1670 C1669 1.390 . S
C1670 C1671 1.394 . S
C1670 C1676 1.465 . S
C1671 C1666 1.399 . S
C1671 C1670 1.394 . S
C1671 C1672 1.516 . S
C1672 C1671 1.516 . S
C1672 C1673 1.502 . S
C1672 C1674 1.561 . S
C1672 C1675 1.526 . S
C1673 H1657 0.959 . S
C1673 H1658 0.959 . S
C1673 H1659 0.961 . S
C1673 C1672 1.502 . S
C1674 H1660 0.960 . S
C1674 H1661 0.961 . S
C1674 H1662 0.959 . S
C1674 C1672 1.561 . S
C1675 C1672 1.526 . S
C1675 C1676 1.396 . S
C1675 C1680 1.390 . S
C1676 C1670 1.465 . S
C1676 C1675 1.396 . S
C1676 C1677 1.399 . S
C1677 H1663 0.929 . S
C1677 C1676 1.399 . S
C1677 C1678 1.385 . S
C1678 H1664 0.931 . S
C1678 C1677 1.385 . S
C1678 C1679 1.389 . S
C1679 C1678 1.389 . S
C1679 C1680 1.387 . S
C1680 H1665 0.930 . S
C1680 C1675 1.390 . S
C1680 C1679 1.387 . S
H1681 C1693 0.930 . S
H1682 C1695 0.930 . S
H1683 C1696 0.930 . S
H1684 C1700 0.959 . S
H1685 C1700 0.959 . S
H1686 C1700 0.961 . S
H1687 C1701 0.960 . S
H1688 C1701 0.961 . S
H1689 C1701 0.959 . S
H1690 C1704 0.929 . S
H1691 C1705 0.931 . S
H1692 C1707 0.930 . S
C1693 H1681 0.930 . S
C1693 C1694 1.399 . S
C1693 C1698 1.399 . S
C1694 C1693 1.399 . S
C1694 C1695 1.376 . S
C1695 H1682 0.930 . S
C1695 C1694 1.376 . S
C1695 C1696 1.388 . S
C1696 H1683 0.930 . S
C1696 C1695 1.388 . S
C1696 C1697 1.390 . S
C1697 C1696 1.390 . S
C1697 C1698 1.394 . S
C1697 C1703 1.465 . S
C1698 C1693 1.399 . S
C1698 C1697 1.394 . S
C1698 C1699 1.516 . S
C1699 C1698 1.516 . S
C1699 C1700 1.502 . S
C1699 C1701 1.561 . S
C1699 C1702 1.526 . S
C1700 H1684 0.959 . S
C1700 H1685 0.959 . S
C1700 H1686 0.961 . S
C1700 C1699 1.502 . S
C1701 H1687 0.960 . S
C1701 H1688 0.961 . S
C1701 H1689 0.959 . S
C1701 C1699 1.561 . S
C1702 C1699 1.526 . S
C1702 C1703 1.396 . S
C1702 C1707 1.390 . S
C1703 C1697 1.465 . S
C1703 C1702 1.396 . S
C1703 C1704 1.399 . S
C1704 H1690 0.929 . S
C1704 C1703 1.399 . S
C1704 C1705 1.385 . S
C1705 H1691 0.931 . S
C1705 C1704 1.385 . S
C1705 C1706 1.389 . S
C1706 C1705 1.389 . S
C1706 C1707 1.387 . S
C1707 H1692 0.930 . S
C1707 C1702 1.390 . S
C1707 C1706 1.387 . S
H1708 C1720 0.930 . S
H1709 C1722 0.930 . S
H1710 C1723 0.930 . S
H1711 C1727 0.959 . S
H1712 C1727 0.959 . S
H1713 C1727 0.961 . S
H1714 C1728 0.960 . S
H1715 C1728 0.961 . S
H1716 C1728 0.959 . S
H1717 C1731 0.929 . S
H1718 C1732 0.931 . S
H1719 C1734 0.930 . S
C1720 H1708 0.930 . S
C1720 C1721 1.399 . S
C1720 C1725 1.399 . S
C1721 C1720 1.399 . S
C1721 C1722 1.376 . S
C1722 H1709 0.930 . S
C1722 C1721 1.376 . S
C1722 C1723 1.388 . S
C1723 H1710 0.930 . S
C1723 C1722 1.388 . S
C1723 C1724 1.390 . S
C1724 C1723 1.390 . S
C1724 C1725 1.394 . S
C1724 C1730 1.465 . S
C1725 C1720 1.399 . S
C1725 C1724 1.394 . S
C1725 C1726 1.516 . S
C1726 C1725 1.516 . S
C1726 C1727 1.502 . S
C1726 C1728 1.561 . S
C1726 C1729 1.526 . S
C1727 H1711 0.959 . S
C1727 H1712 0.959 . S
C1727 H1713 0.961 . S
C1727 C1726 1.502 . S
C1728 H1714 0.960 . S
C1728 H1715 0.961 . S
C1728 H1716 0.959 . S
C1728 C1726 1.561 . S
C1729 C1726 1.526 . S
C1729 C1730 1.396 . S
C1729 C1734 1.390 . S
C1730 C1724 1.465 . S
C1730 C1729 1.396 . S
C1730 C1731 1.399 . S
C1731 H1717 0.929 . S
C1731 C1730 1.399 . S
C1731 C1732 1.385 . S
C1732 H1718 0.931 . S
C1732 C1731 1.385 . S
C1732 C1733 1.389 . S
C1733 C1732 1.389 . S
C1733 C1734 1.387 . S
C1734 H1719 0.930 . S
C1734 C1729 1.390 . S
C1734 C1733 1.387 . S
H1735 C1747 0.930 . S
H1736 C1749 0.930 . S
H1737 C1750 0.930 . S
H1738 C1754 0.959 . S
H1739 C1754 0.959 . S
H1740 C1754 0.961 1_655 S
H1741 C1755 0.960 . S
H1742 C1755 0.961 . S
H1743 C1755 0.959 . S
H1744 C1758 0.929 . S
H1745 C1759 0.931 . S
H1746 C1761 0.930 . S
C1747 H1735 0.930 . S
C1747 C1748 1.399 . S
C1747 C1752 1.399 . S
C1748 C1747 1.399 . S
C1748 C1749 1.376 . S
C1749 H1736 0.930 . S
C1749 C1748 1.376 . S
C1749 C1750 1.388 . S
C1750 H1737 0.930 . S
C1750 C1749 1.388 . S
C1750 C1751 1.390 . S
C1751 C1750 1.390 . S
C1751 C1752 1.394 . S
C1751 C1757 1.465 . S
C1752 C1747 1.399 . S
C1752 C1751 1.394 . S
C1752 C1753 1.516 . S
C1753 C1752 1.516 . S
C1753 C1754 1.502 . S
C1753 C1755 1.561 . S
C1753 C1756 1.526 . S
C1754 H1738 0.959 . S
C1754 H1739 0.959 . S
C1754 H1740 0.961 1_455 S
C1754 C1753 1.502 . S
C1755 H1741 0.960 . S
C1755 H1742 0.961 . S
C1755 H1743 0.959 . S
C1755 C1753 1.561 . S
C1756 C1753 1.526 . S
C1756 C1757 1.396 . S
C1756 C1761 1.390 . S
C1757 C1751 1.465 . S
C1757 C1756 1.396 . S
C1757 C1758 1.399 . S
C1758 H1744 0.929 . S
C1758 C1757 1.399 . S
C1758 C1759 1.385 . S
C1759 H1745 0.931 . S
C1759 C1758 1.385 . S
C1759 C1760 1.389 . S
C1760 C1759 1.389 . S
C1760 C1761 1.387 . S
C1761 H1746 0.930 . S
C1761 C1756 1.390 . S
C1761 C1760 1.387 . S
H1762 C1774 0.930 . S
H1763 C1776 0.930 . S
H1764 C1777 0.930 . S
H1765 C1781 0.959 . S
H1766 C1781 0.959 . S
H1767 C1781 0.961 . S
H1768 C1782 0.960 . S
H1769 C1782 0.961 . S
H1770 C1782 0.959 . S
H1771 C1785 0.929 . S
H1772 C1786 0.931 . S
H1773 C1788 0.930 . S
C1774 H1762 0.930 . S
C1774 C1775 1.399 . S
C1774 C1779 1.399 . S
C1775 C1774 1.399 . S
C1775 C1776 1.376 . S
C1776 H1763 0.930 . S
C1776 C1775 1.376 . S
C1776 C1777 1.388 . S
C1777 H1764 0.930 . S
C1777 C1776 1.388 . S
C1777 C1778 1.390 . S
C1778 C1777 1.390 . S
C1778 C1779 1.394 . S
C1778 C1784 1.465 . S
C1779 C1774 1.399 . S
C1779 C1778 1.394 . S
C1779 C1780 1.516 . S
C1780 C1779 1.516 . S
C1780 C1781 1.502 . S
C1780 C1782 1.561 . S
C1780 C1783 1.526 . S
C1781 H1765 0.959 . S
C1781 H1766 0.959 . S
C1781 H1767 0.961 . S
C1781 C1780 1.502 . S
C1782 H1768 0.960 . S
C1782 H1769 0.961 . S
C1782 H1770 0.959 . S
C1782 C1780 1.561 . S
C1783 C1780 1.526 . S
C1783 C1784 1.396 . S
C1783 C1788 1.390 . S
C1784 C1778 1.465 . S
C1784 C1783 1.396 . S
C1784 C1785 1.399 . S
C1785 H1771 0.929 . S
C1785 C1784 1.399 . S
C1785 C1786 1.385 . S
C1786 H1772 0.931 . S
C1786 C1785 1.385 . S
C1786 C1787 1.389 . S
C1787 C1786 1.389 . S
C1787 C1788 1.387 . S
C1788 H1773 0.930 . S
C1788 C1783 1.390 . S
C1788 C1787 1.387 . S
H1789 C1801 0.930 . S
H1790 C1803 0.930 . S
H1791 C1804 0.930 . S
H1792 C1808 0.959 . S
H1793 C1808 0.959 . S
H1794 C1808 0.961 . S
H1795 C1809 0.960 . S
H1796 C1809 0.961 . S
H1797 C1809 0.959 . S
H1798 C1812 0.929 . S
H1799 C1813 0.931 . S
H1800 C1815 0.930 . S
C1801 H1789 0.930 . S
C1801 C1802 1.399 . S
C1801 C1806 1.399 . S
C1802 C1801 1.399 . S
C1802 C1803 1.376 . S
C1803 H1790 0.930 . S
C1803 C1802 1.376 . S
C1803 C1804 1.388 . S
C1804 H1791 0.930 . S
C1804 C1803 1.388 . S
C1804 C1805 1.390 . S
C1805 C1804 1.390 . S
C1805 C1806 1.394 . S
C1805 C1811 1.465 . S
C1806 C1801 1.399 . S
C1806 C1805 1.394 . S
C1806 C1807 1.516 . S
C1807 C1806 1.516 . S
C1807 C1808 1.502 . S
C1807 C1809 1.561 . S
C1807 C1810 1.526 . S
C1808 H1792 0.959 . S
C1808 H1793 0.959 . S
C1808 H1794 0.961 . S
C1808 C1807 1.502 . S
C1809 H1795 0.960 . S
C1809 H1796 0.961 . S
C1809 H1797 0.959 . S
C1809 C1807 1.561 . S
C1810 C1807 1.526 . S
C1810 C1811 1.396 . S
C1810 C1815 1.390 . S
C1811 C1805 1.465 . S
C1811 C1810 1.396 . S
C1811 C1812 1.399 . S
C1812 H1798 0.929 . S
C1812 C1811 1.399 . S
C1812 C1813 1.385 . S
C1813 H1799 0.931 . S
C1813 C1812 1.385 . S
C1813 C1814 1.389 . S
C1814 C1813 1.389 . S
C1814 C1815 1.387 . S
C1815 H1800 0.930 . S
C1815 C1810 1.390 . S
C1815 C1814 1.387 . S
H1816 C1828 0.930 . S
H1817 C1830 0.930 . S
H1818 C1831 0.930 . S
H1819 C1835 0.959 . S
H1820 C1835 0.959 . S
H1821 C1835 0.961 . S
H1822 C1836 0.960 . S
H1823 C1836 0.961 . S
H1824 C1836 0.959 . S
H1825 C1839 0.929 . S
H1826 C1840 0.931 . S
H1827 C1842 0.930 . S
C1828 H1816 0.930 . S
C1828 C1829 1.399 . S
C1828 C1833 1.399 . S
C1829 C1828 1.399 . S
C1829 C1830 1.376 . S
C1830 H1817 0.930 . S
C1830 C1829 1.376 . S
C1830 C1831 1.388 . S
C1831 H1818 0.930 . S
C1831 C1830 1.388 . S
C1831 C1832 1.390 . S
C1832 C1831 1.390 . S
C1832 C1833 1.394 . S
C1832 C1838 1.465 . S
C1833 C1828 1.399 . S
C1833 C1832 1.394 . S
C1833 C1834 1.516 . S
C1834 C1833 1.516 . S
C1834 C1835 1.502 . S
C1834 C1836 1.561 . S
C1834 C1837 1.526 . S
C1835 H1819 0.959 . S
C1835 H1820 0.959 . S
C1835 H1821 0.961 . S
C1835 C1834 1.502 . S
C1836 H1822 0.960 . S
C1836 H1823 0.961 . S
C1836 H1824 0.959 . S
C1836 C1834 1.561 . S
C1837 C1834 1.526 . S
C1837 C1838 1.396 . S
C1837 C1842 1.390 . S
C1838 C1832 1.465 . S
C1838 C1837 1.396 . S
C1838 C1839 1.399 . S
C1839 H1825 0.929 . S
C1839 C1838 1.399 . S
C1839 C1840 1.385 . S
C1840 H1826 0.931 . S
C1840 C1839 1.385 . S
C1840 C1841 1.389 . S
C1841 C1840 1.389 . S
C1841 C1842 1.387 . S
C1842 H1827 0.930 . S
C1842 C1837 1.390 . S
C1842 C1841 1.387 . S
H1843 C1855 0.930 . S
H1844 C1857 0.930 . S
H1845 C1858 0.930 . S
H1846 C1862 0.959 . S
H1847 C1862 0.959 . S
H1848 C1862 0.961 . S
H1849 C1863 0.960 . S
H1850 C1863 0.961 . S
H1851 C1863 0.959 . S
H1852 C1866 0.929 . S
H1853 C1867 0.931 . S
H1854 C1869 0.930 . S
C1855 H1843 0.930 . S
C1855 C1856 1.399 . S
C1855 C1860 1.399 . S
C1856 C1855 1.399 . S
C1856 C1857 1.376 . S
C1857 H1844 0.930 . S
C1857 C1856 1.376 . S
C1857 C1858 1.388 . S
C1858 H1845 0.930 . S
C1858 C1857 1.388 . S
C1858 C1859 1.390 . S
C1859 C1858 1.390 . S
C1859 C1860 1.394 . S
C1859 C1865 1.465 . S
C1860 C1855 1.399 . S
C1860 C1859 1.394 . S
C1860 C1861 1.516 . S
C1861 C1860 1.516 . S
C1861 C1862 1.502 . S
C1861 C1863 1.561 . S
C1861 C1864 1.526 . S
C1862 H1846 0.959 . S
C1862 H1847 0.959 . S
C1862 H1848 0.961 . S
C1862 C1861 1.502 . S
C1863 H1849 0.960 . S
C1863 H1850 0.961 . S
C1863 H1851 0.959 . S
C1863 C1861 1.561 . S
C1864 C1861 1.526 . S
C1864 C1865 1.396 . S
C1864 C1869 1.390 . S
C1865 C1859 1.465 . S
C1865 C1864 1.396 . S
C1865 C1866 1.399 . S
C1866 H1852 0.929 . S
C1866 C1865 1.399 . S
C1866 C1867 1.385 . S
C1867 H1853 0.931 . S
C1867 C1866 1.385 . S
C1867 C1868 1.389 . S
C1868 C1867 1.389 . S
C1868 C1869 1.387 . S
C1869 H1854 0.930 . S
C1869 C1864 1.390 . S
C1869 C1868 1.387 . S
H1870 C1882 0.930 . S
H1871 C1884 0.930 . S
H1872 C1885 0.930 . S
H1873 C1889 0.959 . S
H1874 C1889 0.959 . S
H1875 C1889 0.961 . S
H1876 C1890 0.960 . S
H1877 C1890 0.961 . S
H1878 C1890 0.959 . S
H1879 C1893 0.929 . S
H1880 C1894 0.931 . S
H1881 C1896 0.930 . S
C1882 H1870 0.930 . S
C1882 C1883 1.399 . S
C1882 C1887 1.399 . S
C1883 C1882 1.399 . S
C1883 C1884 1.376 . S
C1884 H1871 0.930 . S
C1884 C1883 1.376 . S
C1884 C1885 1.388 . S
C1885 H1872 0.930 . S
C1885 C1884 1.388 . S
C1885 C1886 1.390 . S
C1886 C1885 1.390 . S
C1886 C1887 1.394 . S
C1886 C1892 1.465 . S
C1887 C1882 1.399 . S
C1887 C1886 1.394 . S
C1887 C1888 1.516 . S
C1888 C1887 1.516 . S
C1888 C1889 1.502 . S
C1888 C1890 1.561 . S
C1888 C1891 1.526 . S
C1889 H1873 0.959 . S
C1889 H1874 0.959 . S
C1889 H1875 0.961 . S
C1889 C1888 1.502 . S
C1890 H1876 0.960 . S
C1890 H1877 0.961 . S
C1890 H1878 0.959 . S
C1890 C1888 1.561 . S
C1891 C1888 1.526 . S
C1891 C1892 1.396 . S
C1891 C1896 1.390 . S
C1892 C1886 1.465 . S
C1892 C1891 1.396 . S
C1892 C1893 1.399 . S
C1893 H1879 0.929 . S
C1893 C1892 1.399 . S
C1893 C1894 1.385 . S
C1894 H1880 0.931 . S
C1894 C1893 1.385 . S
C1894 C1895 1.389 . S
C1895 C1894 1.389 . S
C1895 C1896 1.387 . S
C1896 H1881 0.930 . S
C1896 C1891 1.390 . S
C1896 C1895 1.387 . S
H1897 C1909 0.930 . S
H1898 C1911 0.930 . S
H1899 C1912 0.930 . S
H1900 C1916 0.959 . S
H1901 C1916 0.959 . S
H1902 C1916 0.961 . S
H1903 C1917 0.960 . S
H1904 C1917 0.961 . S
H1905 C1917 0.959 . S
H1906 C1920 0.929 . S
H1907 C1921 0.931 . S
H1908 C1923 0.930 . S
C1909 H1897 0.930 . S
C1909 C1910 1.399 . S
C1909 C1914 1.399 . S
C1910 C1909 1.399 . S
C1910 C1911 1.376 . S
C1911 H1898 0.930 . S
C1911 C1910 1.376 . S
C1911 C1912 1.388 . S
C1912 H1899 0.930 . S
C1912 C1911 1.388 . S
C1912 C1913 1.390 . S
C1913 C1912 1.390 . S
C1913 C1914 1.394 . S
C1913 C1919 1.465 . S
C1914 C1909 1.399 . S
C1914 C1913 1.394 . S
C1914 C1915 1.516 . S
C1915 C1914 1.516 . S
C1915 C1916 1.502 . S
C1915 C1917 1.561 . S
C1915 C1918 1.526 . S
C1916 H1900 0.959 . S
C1916 H1901 0.959 . S
C1916 H1902 0.961 . S
C1916 C1915 1.502 . S
C1917 H1903 0.960 . S
C1917 H1904 0.961 . S
C1917 H1905 0.959 . S
C1917 C1915 1.561 . S
C1918 C1915 1.526 . S
C1918 C1919 1.396 . S
C1918 C1923 1.390 . S
C1919 C1913 1.465 . S
C1919 C1918 1.396 . S
C1919 C1920 1.399 . S
C1920 H1906 0.929 . S
C1920 C1919 1.399 . S
C1920 C1921 1.385 . S
C1921 H1907 0.931 . S
C1921 C1920 1.385 . S
C1921 C1922 1.389 . S
C1922 C1921 1.389 . S
C1922 C1923 1.387 . S
C1923 H1908 0.930 . S
C1923 C1918 1.390 . S
C1923 C1922 1.387 . S
H1924 C1936 0.930 . S
H1925 C1938 0.930 . S
H1926 C1939 0.930 . S
H1927 C1943 0.959 . S
H1928 C1943 0.959 . S
H1929 C1943 0.961 . S
H1930 C1944 0.960 . S
H1931 C1944 0.961 . S
H1932 C1944 0.959 . S
H1933 C1947 0.929 . S
H1934 C1948 0.931 . S
H1935 C1950 0.930 . S
C1936 H1924 0.930 . S
C1936 C1937 1.399 . S
C1936 C1941 1.399 . S
C1937 C1936 1.399 . S
C1937 C1938 1.376 . S
C1938 H1925 0.930 . S
C1938 C1937 1.376 . S
C1938 C1939 1.388 . S
C1939 H1926 0.930 . S
C1939 C1938 1.388 . S
C1939 C1940 1.390 . S
C1940 C1939 1.390 . S
C1940 C1941 1.394 . S
C1940 C1946 1.465 . S
C1941 C1936 1.399 . S
C1941 C1940 1.394 . S
C1941 C1942 1.516 . S
C1942 C1941 1.516 . S
C1942 C1943 1.502 . S
C1942 C1944 1.561 . S
C1942 C1945 1.526 . S
C1943 H1927 0.959 . S
C1943 H1928 0.959 . S
C1943 H1929 0.961 . S
C1943 C1942 1.502 . S
C1944 H1930 0.960 . S
C1944 H1931 0.961 . S
C1944 H1932 0.959 . S
C1944 C1942 1.561 . S
C1945 C1942 1.526 . S
C1945 C1946 1.396 . S
C1945 C1950 1.390 . S
C1946 C1940 1.465 . S
C1946 C1945 1.396 . S
C1946 C1947 1.399 . S
C1947 H1933 0.929 . S
C1947 C1946 1.399 . S
C1947 C1948 1.385 . S
C1948 H1934 0.931 . S
C1948 C1947 1.385 . S
C1948 C1949 1.389 . S
C1949 C1948 1.389 . S
C1949 C1950 1.387 . S
C1950 H1935 0.930 . S
C1950 C1945 1.390 . S
C1950 C1949 1.387 . S
H1951 C1963 0.930 . S
H1952 C1965 0.930 . S
H1953 C1966 0.930 . S
H1954 C1970 0.959 . S
H1955 C1970 0.959 . S
H1956 C1970 0.961 . S
H1957 C1971 0.960 . S
H1958 C1971 0.961 . S
H1959 C1971 0.959 . S
H1960 C1974 0.929 . S
H1961 C1975 0.931 . S
H1962 C1977 0.930 . S
C1963 H1951 0.930 . S
C1963 C1964 1.399 . S
C1963 C1968 1.399 . S
C1964 C1963 1.399 . S
C1964 C1965 1.376 . S
C1965 H1952 0.930 . S
C1965 C1964 1.376 . S
C1965 C1966 1.388 . S
C1966 H1953 0.930 . S
C1966 C1965 1.388 . S
C1966 C1967 1.390 . S
C1967 C1966 1.390 . S
C1967 C1968 1.394 . S
C1967 C1973 1.465 . S
C1968 C1963 1.399 . S
C1968 C1967 1.394 . S
C1968 C1969 1.516 . S
C1969 C1968 1.516 . S
C1969 C1970 1.502 . S
C1969 C1971 1.561 . S
C1969 C1972 1.526 . S
C1970 H1954 0.959 . S
C1970 H1955 0.959 . S
C1970 H1956 0.961 . S
C1970 C1969 1.502 . S
C1971 H1957 0.960 . S
C1971 H1958 0.961 . S
C1971 H1959 0.959 . S
C1971 C1969 1.561 . S
C1972 C1969 1.526 . S
C1972 C1973 1.396 . S
C1972 C1977 1.390 . S
C1973 C1967 1.465 . S
C1973 C1972 1.396 . S
C1973 C1974 1.399 . S
C1974 H1960 0.929 . S
C1974 C1973 1.399 . S
C1974 C1975 1.385 . S
C1975 H1961 0.931 . S
C1975 C1974 1.385 . S
C1975 C1976 1.389 . S
C1976 C1975 1.389 . S
C1976 C1977 1.387 . S
C1977 H1962 0.930 . S
C1977 C1972 1.390 . S
C1977 C1976 1.387 . S
H1978 C1990 0.930 . S
H1979 C1992 0.930 . S
H1980 C1993 0.930 . S
H1981 C1997 0.959 . S
H1982 C1997 0.959 . S
H1983 C1997 0.961 . S
H1984 C1998 0.960 . S
H1985 C1998 0.961 . S
H1986 C1998 0.959 . S
H1987 C2001 0.929 . S
H1988 C2002 0.931 . S
H1989 C2004 0.930 . S
C1990 H1978 0.930 . S
C1990 C1991 1.399 . S
C1990 C1995 1.399 . S
C1991 C1990 1.399 . S
C1991 C1992 1.376 . S
C1992 H1979 0.930 . S
C1992 C1991 1.376 . S
C1992 C1993 1.388 . S
C1993 H1980 0.930 . S
C1993 C1992 1.388 . S
C1993 C1994 1.390 . S
C1994 C1993 1.390 . S
C1994 C1995 1.394 . S
C1994 C2000 1.465 . S
C1995 C1990 1.399 . S
C1995 C1994 1.394 . S
C1995 C1996 1.516 . S
C1996 C1995 1.516 . S
C1996 C1997 1.502 . S
C1996 C1998 1.561 . S
C1996 C1999 1.526 . S
C1997 H1981 0.959 . S
C1997 H1982 0.959 . S
C1997 H1983 0.961 . S
C1997 C1996 1.502 . S
C1998 H1984 0.960 . S
C1998 H1985 0.961 . S
C1998 H1986 0.959 . S
C1998 C1996 1.561 . S
C1999 C1996 1.526 . S
C1999 C2000 1.396 . S
C1999 C2004 1.390 . S
C2000 C1994 1.465 . S
C2000 C1999 1.396 . S
C2000 C2001 1.399 . S
C2001 H1987 0.929 . S
C2001 C2000 1.399 . S
C2001 C2002 1.385 . S
C2002 H1988 0.931 . S
C2002 C2001 1.385 . S
C2002 C2003 1.389 . S
C2003 C2002 1.389 . S
C2003 C2004 1.387 . S
C2004 H1989 0.930 . S
C2004 C1999 1.390 . S
C2004 C2003 1.387 . S
H2005 C2017 0.930 . S
H2006 C2019 0.930 . S
H2007 C2020 0.930 . S
H2008 C2024 0.959 . S
H2009 C2024 0.959 . S
H2010 C2024 0.961 . S
H2011 C2025 0.960 . S
H2012 C2025 0.961 . S
H2013 C2025 0.959 . S
H2014 C2028 0.929 . S
H2015 C2029 0.931 . S
H2016 C2031 0.930 . S
C2017 H2005 0.930 . S
C2017 C2018 1.399 . S
C2017 C2022 1.399 . S
C2018 C2017 1.399 . S
C2018 C2019 1.376 . S
C2019 H2006 0.930 . S
C2019 C2018 1.376 . S
C2019 C2020 1.388 . S
C2020 H2007 0.930 . S
C2020 C2019 1.388 . S
C2020 C2021 1.390 . S
C2021 C2020 1.390 . S
C2021 C2022 1.394 . S
C2021 C2027 1.465 . S
C2022 C2017 1.399 . S
C2022 C2021 1.394 . S
C2022 C2023 1.516 . S
C2023 C2022 1.516 . S
C2023 C2024 1.502 . S
C2023 C2025 1.561 . S
C2023 C2026 1.526 . S
C2024 H2008 0.959 . S
C2024 H2009 0.959 . S
C2024 H2010 0.961 . S
C2024 C2023 1.502 . S
C2025 H2011 0.960 . S
C2025 H2012 0.961 . S
C2025 H2013 0.959 . S
C2025 C2023 1.561 . S
C2026 C2023 1.526 . S
C2026 C2027 1.396 . S
C2026 C2031 1.390 . S
C2027 C2021 1.465 . S
C2027 C2026 1.396 . S
C2027 C2028 1.399 . S
C2028 H2014 0.929 . S
C2028 C2027 1.399 . S
C2028 C2029 1.385 . S
C2029 H2015 0.931 . S
C2029 C2028 1.385 . S
C2029 C2030 1.389 . S
C2030 C2029 1.389 . S
C2030 C2031 1.387 . S
C2031 H2016 0.930 . S
C2031 C2026 1.390 . S
C2031 C2030 1.387 . S
H2032 C2044 0.930 . S
H2033 C2046 0.930 . S
H2034 C2047 0.930 . S
H2035 C2051 0.959 . S
H2036 C2051 0.959 . S
H2037 C2051 0.961 . S
H2038 C2052 0.960 . S
H2039 C2052 0.961 . S
H2040 C2052 0.959 . S
H2041 C2055 0.929 . S
H2042 C2056 0.931 . S
H2043 C2058 0.930 . S
C2044 H2032 0.930 . S
C2044 C2045 1.399 1_556 S
C2044 C2049 1.399 . S
C2045 C2044 1.399 1_554 S
C2045 C2046 1.376 . S
C2046 H2033 0.930 . S
C2046 C2045 1.376 . S
C2046 C2047 1.388 . S
C2047 H2034 0.930 . S
C2047 C2046 1.388 . S
C2047 C2048 1.390 . S
C2048 C2047 1.390 . S
C2048 C2049 1.394 1_554 S
C2048 C2054 1.465 . S
C2049 C2044 1.399 . S
C2049 C2048 1.394 1_556 S
C2049 C2050 1.516 . S
C2050 C2049 1.516 . S
C2050 C2051 1.502 . S
C2050 C2052 1.561 . S
C2050 C2053 1.526 . S
C2051 H2035 0.959 . S
C2051 H2036 0.959 . S
C2051 H2037 0.961 . S
C2051 C2050 1.502 . S
C2052 H2038 0.960 . S
C2052 H2039 0.961 . S
C2052 H2040 0.959 . S
C2052 C2050 1.561 . S
C2053 C2050 1.526 . S
C2053 C2054 1.396 1_556 S
C2053 C2058 1.390 . S
C2054 C2048 1.465 . S
C2054 C2053 1.396 1_554 S
C2054 C2055 1.399 . S
C2055 H2041 0.929 . S
C2055 C2054 1.399 . S
C2055 C2056 1.385 . S
C2056 H2042 0.931 . S
C2056 C2055 1.385 . S
C2056 C2057 1.389 . S
C2057 C2056 1.389 . S
C2057 C2058 1.387 1_554 S
C2058 H2043 0.930 . S
C2058 C2053 1.390 . S
C2058 C2057 1.387 1_556 S
H2059 C2071 0.930 . S
H2060 C2073 0.930 . S
H2061 C2074 0.930 . S
H2062 C2078 0.959 . S
H2063 C2078 0.959 . S
H2064 C2078 0.961 . S
H2065 C2079 0.960 . S
H2066 C2079 0.961 . S
H2067 C2079 0.959 . S
H2068 C2082 0.929 . S
H2069 C2083 0.931 . S
H2070 C2085 0.930 . S
C2071 H2059 0.930 . S
C2071 C2072 1.399 . S
C2071 C2076 1.399 . S
C2072 C2071 1.399 . S
C2072 C2073 1.376 . S
C2073 H2060 0.930 . S
C2073 C2072 1.376 . S
C2073 C2074 1.388 . S
C2074 H2061 0.930 . S
C2074 C2073 1.388 . S
C2074 C2075 1.390 . S
C2075 C2074 1.390 . S
C2075 C2076 1.394 . S
C2075 C2081 1.465 . S
C2076 C2071 1.399 . S
C2076 C2075 1.394 . S
C2076 C2077 1.516 . S
C2077 C2076 1.516 . S
C2077 C2078 1.502 . S
C2077 C2079 1.561 . S
C2077 C2080 1.526 . S
C2078 H2062 0.959 . S
C2078 H2063 0.959 . S
C2078 H2064 0.961 . S
C2078 C2077 1.502 . S
C2079 H2065 0.960 . S
C2079 H2066 0.961 . S
C2079 H2067 0.959 . S
C2079 C2077 1.561 . S
C2080 C2077 1.526 . S
C2080 C2081 1.396 . S
C2080 C2085 1.390 . S
C2081 C2075 1.465 . S
C2081 C2080 1.396 . S
C2081 C2082 1.399 . S
C2082 H2068 0.929 . S
C2082 C2081 1.399 . S
C2082 C2083 1.385 . S
C2083 H2069 0.931 . S
C2083 C2082 1.385 . S
C2083 C2084 1.389 . S
C2084 C2083 1.389 . S
C2084 C2085 1.387 . S
C2085 H2070 0.930 . S
C2085 C2080 1.390 . S
C2085 C2084 1.387 . S
H2086 C2098 0.930 . S
H2087 C2100 0.930 . S
H2088 C2101 0.930 . S
H2089 C2105 0.959 . S
H2090 C2105 0.959 . S
H2091 C2105 0.961 . S
H2092 C2106 0.960 . S
H2093 C2106 0.961 . S
H2094 C2106 0.959 . S
H2095 C2109 0.929 . S
H2096 C2110 0.931 . S
H2097 C2112 0.930 . S
C2098 H2086 0.930 . S
C2098 C2099 1.399 . S
C2098 C2103 1.399 . S
C2099 C2098 1.399 . S
C2099 C2100 1.376 1_556 S
C2100 H2087 0.930 . S
C2100 C2099 1.376 1_554 S
C2100 C2101 1.388 . S
C2101 H2088 0.930 . S
C2101 C2100 1.388 . S
C2101 C2102 1.390 . S
C2102 C2101 1.390 . S
C2102 C2103 1.394 1_554 S
C2102 C2108 1.465 . S
C2103 C2098 1.399 . S
C2103 C2102 1.394 1_556 S
C2103 C2104 1.516 . S
C2104 C2103 1.516 . S
C2104 C2105 1.502 . S
C2104 C2106 1.561 . S
C2104 C2107 1.526 . S
C2105 H2089 0.959 . S
C2105 H2090 0.959 . S
C2105 H2091 0.961 . S
C2105 C2104 1.502 . S
C2106 H2092 0.960 . S
C2106 H2093 0.961 . S
C2106 H2094 0.959 . S
C2106 C2104 1.561 . S
C2107 C2104 1.526 . S
C2107 C2108 1.396 1_556 S
C2107 C2112 1.390 . S
C2108 C2102 1.465 . S
C2108 C2107 1.396 1_554 S
C2108 C2109 1.399 . S
C2109 H2095 0.929 . S
C2109 C2108 1.399 . S
C2109 C2110 1.385 . S
C2110 H2096 0.931 . S
C2110 C2109 1.385 . S
C2110 C2111 1.389 1_554 S
C2111 C2110 1.389 1_556 S
C2111 C2112 1.387 . S
C2112 H2097 0.930 . S
C2112 C2107 1.390 . S
C2112 C2111 1.387 . S
H2113 C2125 0.930 . S
H2114 C2127 0.930 . S
H2115 C2128 0.930 . S
H2116 C2132 0.959 . S
H2117 C2132 0.959 . S
H2118 C2132 0.961 . S
H2119 C2133 0.960 . S
H2120 C2133 0.961 . S
H2121 C2133 0.959 . S
H2122 C2136 0.929 . S
H2123 C2137 0.931 . S
H2124 C2139 0.930 . S
C2125 H2113 0.930 . S
C2125 C2126 1.399 . S
C2125 C2130 1.399 . S
C2126 C2125 1.399 . S
C2126 C2127 1.376 . S
C2127 H2114 0.930 . S
C2127 C2126 1.376 . S
C2127 C2128 1.388 . S
C2128 H2115 0.930 . S
C2128 C2127 1.388 . S
C2128 C2129 1.390 . S
C2129 C2128 1.390 . S
C2129 C2130 1.394 . S
C2129 C2135 1.465 . S
C2130 C2125 1.399 . S
C2130 C2129 1.394 . S
C2130 C2131 1.516 . S
C2131 C2130 1.516 . S
C2131 C2132 1.502 . S
C2131 C2133 1.561 . S
C2131 C2134 1.526 . S
C2132 H2116 0.959 . S
C2132 H2117 0.959 . S
C2132 H2118 0.961 . S
C2132 C2131 1.502 . S
C2133 H2119 0.960 . S
C2133 H2120 0.961 . S
C2133 H2121 0.959 . S
C2133 C2131 1.561 . S
C2134 C2131 1.526 . S
C2134 C2135 1.396 . S
C2134 C2139 1.390 . S
C2135 C2129 1.465 . S
C2135 C2134 1.396 . S
C2135 C2136 1.399 . S
C2136 H2122 0.929 . S
C2136 C2135 1.399 . S
C2136 C2137 1.385 . S
C2137 H2123 0.931 . S
C2137 C2136 1.385 . S
C2137 C2138 1.389 . S
C2138 C2137 1.389 . S
C2138 C2139 1.387 . S
C2139 H2124 0.930 . S
C2139 C2134 1.390 . S
C2139 C2138 1.387 . S
H2140 C2152 0.930 . S
H2141 C2154 0.930 . S
H2142 C2155 0.930 . S
H2143 C2159 0.959 . S
H2144 C2159 0.959 . S
H2145 C2159 0.961 . S
H2146 C2160 0.960 . S
H2147 C2160 0.961 . S
H2148 C2160 0.959 . S
H2149 C2163 0.929 . S
H2150 C2164 0.931 . S
H2151 C2166 0.930 . S
C2152 H2140 0.930 . S
C2152 C2153 1.399 . S
C2152 C2157 1.399 . S
C2153 C2152 1.399 . S
C2153 C2154 1.376 . S
C2154 H2141 0.930 . S
C2154 C2153 1.376 . S
C2154 C2155 1.388 . S
C2155 H2142 0.930 . S
C2155 C2154 1.388 . S
C2155 C2156 1.390 . S
C2156 C2155 1.390 . S
C2156 C2157 1.394 . S
C2156 C2162 1.465 . S
C2157 C2152 1.399 . S
C2157 C2156 1.394 . S
C2157 C2158 1.516 . S
C2158 C2157 1.516 . S
C2158 C2159 1.502 . S
C2158 C2160 1.561 . S
C2158 C2161 1.526 . S
C2159 H2143 0.959 . S
C2159 H2144 0.959 . S
C2159 H2145 0.961 . S
C2159 C2158 1.502 . S
C2160 H2146 0.960 . S
C2160 H2147 0.961 . S
C2160 H2148 0.959 . S
C2160 C2158 1.561 . S
C2161 C2158 1.526 . S
C2161 C2162 1.396 . S
C2161 C2166 1.390 . S
C2162 C2156 1.465 . S
C2162 C2161 1.396 . S
C2162 C2163 1.399 . S
C2163 H2149 0.929 . S
C2163 C2162 1.399 . S
C2163 C2164 1.385 . S
C2164 H2150 0.931 . S
C2164 C2163 1.385 . S
C2164 C2165 1.389 . S
C2165 C2164 1.389 . S
C2165 C2166 1.387 . S
C2166 H2151 0.930 . S
C2166 C2161 1.390 . S
C2166 C2165 1.387 . S
H2167 C2179 0.930 . S
H2168 C2181 0.930 . S
H2169 C2182 0.930 . S
H2170 C2186 0.959 . S
H2171 C2186 0.959 . S
H2172 C2186 0.961 . S
H2173 C2187 0.960 . S
H2174 C2187 0.961 . S
H2175 C2187 0.959 . S
H2176 C2190 0.929 . S
H2177 C2191 0.931 . S
H2178 C2193 0.930 . S
C2179 H2167 0.930 . S
C2179 C2180 1.399 . S
C2179 C2184 1.399 . S
C2180 C2179 1.399 . S
C2180 C2181 1.376 . S
C2181 H2168 0.930 . S
C2181 C2180 1.376 . S
C2181 C2182 1.388 . S
C2182 H2169 0.930 . S
C2182 C2181 1.388 . S
C2182 C2183 1.390 . S
C2183 C2182 1.390 . S
C2183 C2184 1.394 . S
C2183 C2189 1.465 . S
C2184 C2179 1.399 . S
C2184 C2183 1.394 . S
C2184 C2185 1.516 . S
C2185 C2184 1.516 . S
C2185 C2186 1.502 . S
C2185 C2187 1.561 . S
C2185 C2188 1.526 . S
C2186 H2170 0.959 . S
C2186 H2171 0.959 . S
C2186 H2172 0.961 . S
C2186 C2185 1.502 . S
C2187 H2173 0.960 . S
C2187 H2174 0.961 . S
C2187 H2175 0.959 . S
C2187 C2185 1.561 . S
C2188 C2185 1.526 . S
C2188 C2189 1.396 . S
C2188 C2193 1.390 . S
C2189 C2183 1.465 . S
C2189 C2188 1.396 . S
C2189 C2190 1.399 . S
C2190 H2176 0.929 . S
C2190 C2189 1.399 . S
C2190 C2191 1.385 . S
C2191 H2177 0.931 . S
C2191 C2190 1.385 . S
C2191 C2192 1.389 . S
C2192 C2191 1.389 . S
C2192 C2193 1.387 . S
C2193 H2178 0.930 . S
C2193 C2188 1.390 . S
C2193 C2192 1.387 . S
H2194 C2206 0.930 . S
H2195 C2208 0.930 . S
H2196 C2209 0.930 . S
H2197 C2213 0.959 . S
H2198 C2213 0.959 . S
H2199 C2213 0.961 . S
H2200 C2214 0.960 . S
H2201 C2214 0.961 . S
H2202 C2214 0.959 . S
H2203 C2217 0.929 . S
H2204 C2218 0.916 1_455 S
H2205 C2220 0.930 . S
C2206 H2194 0.930 . S
C2206 C2207 1.399 . S
C2206 C2211 1.399 . S
C2207 C2206 1.399 . S
C2207 C2208 1.376 . S
C2208 H2195 0.930 . S
C2208 C2207 1.376 . S
C2208 C2209 1.388 . S
C2209 H2196 0.930 . S
C2209 C2208 1.388 . S
C2209 C2210 1.390 . S
C2210 C2209 1.390 . S
C2210 C2211 1.394 . S
C2210 C2216 1.465 . S
C2211 C2206 1.399 . S
C2211 C2210 1.394 . S
C2211 C2212 1.516 . S
C2212 C2211 1.516 . S
C2212 C2213 1.502 . S
C2212 C2214 1.561 . S
C2212 C2215 1.526 . S
C2213 H2197 0.959 . S
C2213 H2198 0.959 . S
C2213 H2199 0.961 . S
C2213 C2212 1.502 . S
C2214 H2200 0.960 . S
C2214 H2201 0.961 . S
C2214 H2202 0.959 . S
C2214 C2212 1.561 . S
C2215 C2212 1.526 . S
C2215 C2216 1.396 . S
C2215 C2220 1.390 . S
C2216 C2210 1.465 . S
C2216 C2215 1.396 . S
C2216 C2217 1.399 . S
C2217 H2203 0.929 . S
C2217 C2216 1.399 . S
C2217 C2218 1.385 . S
C2218 H2204 0.916 1_655 S
C2218 C2217 1.385 . S
C2218 C2219 1.389 . S
C2219 C2218 1.389 . S
C2219 C2220 1.387 . S
C2220 H2205 0.930 . S
C2220 C2215 1.390 . S
C2220 C2219 1.387 . S
H2221 C2233 0.930 . S
H2222 C2235 0.930 . S
H2223 C2236 0.930 . S
H2224 C2240 0.959 . S
H2225 C2240 0.959 . S
H2226 C2240 0.961 . S
H2227 C2241 0.960 . S
H2228 C2241 0.961 . S
H2229 C2241 0.959 . S
H2230 C2244 0.929 . S
H2231 C2245 0.931 . S
H2232 C2247 0.930 . S
C2233 H2221 0.930 . S
C2233 C2234 1.399 . S
C2233 C2238 1.399 . S
C2234 C2233 1.399 . S
C2234 C2235 1.376 . S
C2235 H2222 0.930 . S
C2235 C2234 1.376 . S
C2235 C2236 1.388 . S
C2236 H2223 0.930 . S
C2236 C2235 1.388 . S
C2236 C2237 1.390 . S
C2237 C2236 1.390 . S
C2237 C2238 1.394 . S
C2237 C2243 1.465 . S
C2238 C2233 1.399 . S
C2238 C2237 1.394 . S
C2238 C2239 1.516 . S
C2239 C2238 1.516 . S
C2239 C2240 1.502 . S
C2239 C2241 1.561 . S
C2239 C2242 1.526 . S
C2240 H2224 0.959 . S
C2240 H2225 0.959 . S
C2240 H2226 0.961 . S
C2240 C2239 1.502 . S
C2241 H2227 0.960 . S
C2241 H2228 0.961 . S
C2241 H2229 0.959 . S
C2241 C2239 1.561 . S
C2242 C2239 1.526 . S
C2242 C2243 1.396 . S
C2242 C2247 1.390 . S
C2243 C2237 1.465 . S
C2243 C2242 1.396 . S
C2243 C2244 1.399 . S
C2244 H2230 0.929 . S
C2244 C2243 1.399 . S
C2244 C2245 1.385 . S
C2245 H2231 0.931 . S
C2245 C2244 1.385 . S
C2245 C2246 1.389 . S
C2246 C2245 1.389 . S
C2246 C2247 1.387 . S
C2247 H2232 0.930 . S
C2247 C2242 1.390 . S
C2247 C2246 1.387 . S
H2248 C2260 0.930 . S
H2249 C2262 0.930 . S
H2250 C2263 0.930 . S
H2251 C2267 0.959 . S
H2252 C2267 0.959 . S
H2253 C2267 0.961 . S
H2254 C2268 0.960 . S
H2255 C2268 0.961 . S
H2256 C2268 0.959 . S
H2257 C2271 0.929 . S
H2258 C2272 0.931 . S
H2259 C2274 0.930 . S
C2260 H2248 0.930 . S
C2260 C2261 1.399 . S
C2260 C2265 1.399 . S
C2261 C2260 1.399 . S
C2261 C2262 1.376 . S
C2262 H2249 0.930 . S
C2262 C2261 1.376 . S
C2262 C2263 1.388 . S
C2263 H2250 0.930 . S
C2263 C2262 1.388 . S
C2263 C2264 1.390 . S
C2264 C2263 1.390 . S
C2264 C2265 1.394 . S
C2264 C2270 1.465 . S
C2265 C2260 1.399 . S
C2265 C2264 1.394 . S
C2265 C2266 1.516 . S
C2266 C2265 1.516 . S
C2266 C2267 1.502 . S
C2266 C2268 1.561 . S
C2266 C2269 1.526 . S
C2267 H2251 0.959 . S
C2267 H2252 0.959 . S
C2267 H2253 0.961 . S
C2267 C2266 1.502 . S
C2268 H2254 0.960 . S
C2268 H2255 0.961 . S
C2268 H2256 0.959 . S
C2268 C2266 1.561 . S
C2269 C2266 1.526 . S
C2269 C2270 1.396 . S
C2269 C2274 1.390 . S
C2270 C2264 1.465 . S
C2270 C2269 1.396 . S
C2270 C2271 1.399 . S
C2271 H2257 0.929 . S
C2271 C2270 1.399 . S
C2271 C2272 1.385 . S
C2272 H2258 0.931 . S
C2272 C2271 1.385 . S
C2272 C2273 1.389 . S
C2273 C2272 1.389 . S
C2273 C2274 1.387 . S
C2274 H2259 0.930 . S
C2274 C2269 1.390 . S
C2274 C2273 1.387 . S
H2275 C2287 0.930 . S
H2276 C2289 0.930 . S
H2277 C2290 0.930 . S
H2278 C2294 0.959 . S
H2279 C2294 0.959 . S
H2280 C2294 0.961 . S
H2281 C2295 0.960 . S
H2282 C2295 0.961 . S
H2283 C2295 0.959 . S
H2284 C2298 0.929 . S
H2285 C2299 0.931 . S
H2286 C2301 0.930 . S
C2287 H2275 0.930 . S
C2287 C2288 1.399 . S
C2287 C2292 1.399 . S
C2288 C2287 1.399 . S
C2288 C2289 1.376 . S
C2289 H2276 0.930 . S
C2289 C2288 1.376 . S
C2289 C2290 1.388 . S
C2290 H2277 0.930 . S
C2290 C2289 1.388 . S
C2290 C2291 1.390 . S
C2291 C2290 1.390 . S
C2291 C2292 1.394 . S
C2291 C2297 1.465 . S
C2292 C2287 1.399 . S
C2292 C2291 1.394 . S
C2292 C2293 1.516 . S
C2293 C2292 1.516 . S
C2293 C2294 1.502 . S
C2293 C2295 1.561 . S
C2293 C2296 1.526 . S
C2294 H2278 0.959 . S
C2294 H2279 0.959 . S
C2294 H2280 0.961 . S
C2294 C2293 1.502 . S
C2295 H2281 0.960 . S
C2295 H2282 0.961 . S
C2295 H2283 0.959 . S
C2295 C2293 1.561 . S
C2296 C2293 1.526 . S
C2296 C2297 1.396 . S
C2296 C2301 1.390 . S
C2297 C2291 1.465 . S
C2297 C2296 1.396 . S
C2297 C2298 1.399 . S
C2298 H2284 0.929 . S
C2298 C2297 1.399 . S
C2298 C2299 1.385 . S
C2299 H2285 0.931 . S
C2299 C2298 1.385 . S
C2299 C2300 1.389 . S
C2300 C2299 1.389 . S
C2300 C2301 1.387 . S
C2301 H2286 0.930 . S
C2301 C2296 1.390 . S
C2301 C2300 1.387 . S
H2302 C2314 0.930 . S
H2303 C2316 0.930 . S
H2304 C2317 0.930 . S
H2305 C2321 0.959 . S
H2306 C2321 0.959 . S
H2307 C2321 0.961 . S
H2308 C2322 0.960 . S
H2309 C2322 0.961 . S
H2310 C2322 0.959 . S
H2311 C2325 0.929 . S
H2312 C2326 0.931 . S
H2313 C2328 0.930 . S
C2314 H2302 0.930 . S
C2314 C2315 1.399 . S
C2314 C2319 1.399 . S
C2315 C2314 1.399 . S
C2315 C2316 1.376 . S
C2316 H2303 0.930 . S
C2316 C2315 1.376 . S
C2316 C2317 1.388 . S
C2317 H2304 0.930 . S
C2317 C2316 1.388 . S
C2317 C2318 1.390 . S
C2318 C2317 1.390 . S
C2318 C2319 1.394 . S
C2318 C2324 1.465 . S
C2319 C2314 1.399 . S
C2319 C2318 1.394 . S
C2319 C2320 1.516 . S
C2320 C2319 1.516 . S
C2320 C2321 1.502 . S
C2320 C2322 1.561 . S
C2320 C2323 1.526 . S
C2321 H2305 0.959 . S
C2321 H2306 0.959 . S
C2321 H2307 0.961 . S
C2321 C2320 1.502 . S
C2322 H2308 0.960 . S
C2322 H2309 0.961 . S
C2322 H2310 0.959 . S
C2322 C2320 1.561 . S
C2323 C2320 1.526 . S
C2323 C2324 1.396 . S
C2323 C2328 1.390 . S
C2324 C2318 1.465 . S
C2324 C2323 1.396 . S
C2324 C2325 1.399 . S
C2325 H2311 0.929 . S
C2325 C2324 1.399 . S
C2325 C2326 1.385 . S
C2326 H2312 0.931 . S
C2326 C2325 1.385 . S
C2326 C2327 1.389 . S
C2327 C2326 1.389 . S
C2327 C2328 1.387 . S
C2328 H2313 0.930 . S
C2328 C2323 1.390 . S
C2328 C2327 1.387 . S
H2329 C2341 0.930 . S
H2330 C2343 0.930 . S
H2331 C2344 0.930 . S
H2332 C2348 0.959 . S
H2333 C2348 0.959 . S
H2334 C2348 0.961 . S
H2335 C2349 0.960 . S
H2336 C2349 0.961 . S
H2337 C2349 0.959 . S
H2338 C2352 0.929 . S
H2339 C2353 0.931 . S
H2340 C2355 0.930 . S
C2341 H2329 0.930 . S
C2341 C2342 1.399 . S
C2341 C2346 1.399 . S
C2342 C2341 1.399 . S
C2342 C2343 1.376 . S
C2343 H2330 0.930 . S
C2343 C2342 1.376 . S
C2343 C2344 1.388 . S
C2344 H2331 0.930 . S
C2344 C2343 1.388 . S
C2344 C2345 1.390 . S
C2345 C2344 1.390 . S
C2345 C2346 1.394 . S
C2345 C2351 1.465 . S
C2346 C2341 1.399 . S
C2346 C2345 1.394 . S
C2346 C2347 1.516 . S
C2347 C2346 1.516 . S
C2347 C2348 1.502 . S
C2347 C2349 1.561 . S
C2347 C2350 1.526 . S
C2348 H2332 0.959 . S
C2348 H2333 0.959 . S
C2348 H2334 0.961 . S
C2348 C2347 1.502 . S
C2349 H2335 0.960 . S
C2349 H2336 0.961 . S
C2349 H2337 0.959 . S
C2349 C2347 1.561 . S
C2350 C2347 1.526 . S
C2350 C2351 1.396 . S
C2350 C2355 1.390 . S
C2351 C2345 1.465 . S
C2351 C2350 1.396 . S
C2351 C2352 1.399 . S
C2352 H2338 0.929 . S
C2352 C2351 1.399 . S
C2352 C2353 1.385 . S
C2353 H2339 0.931 . S
C2353 C2352 1.385 . S
C2353 C2354 1.389 . S
C2354 C2353 1.389 . S
C2354 C2355 1.387 . S
C2355 H2340 0.930 . S
C2355 C2350 1.390 . S
C2355 C2354 1.387 . S
H2356 C2368 0.930 . S
H2357 C2370 0.930 . S
H2358 C2371 0.930 . S
H2359 C2375 0.959 . S
H2360 C2375 0.959 . S
H2361 C2375 0.961 . S
H2362 C2376 0.960 . S
H2363 C2376 0.961 . S
H2364 C2376 0.959 . S
H2365 C2379 0.929 . S
H2366 C2380 0.931 . S
H2367 C2382 0.930 . S
C2368 H2356 0.930 . S
C2368 C2369 1.399 1_556 S
C2368 C2373 1.399 . S
C2369 C2368 1.399 1_554 S
C2369 C2370 1.376 . S
C2370 H2357 0.930 . S
C2370 C2369 1.376 . S
C2370 C2371 1.388 . S
C2371 H2358 0.930 . S
C2371 C2370 1.388 . S
C2371 C2372 1.390 . S
C2372 C2371 1.390 . S
C2372 C2373 1.394 1_554 S
C2372 C2378 1.465 . S
C2373 C2368 1.399 . S
C2373 C2372 1.394 1_556 S
C2373 C2374 1.516 . S
C2374 C2373 1.516 . S
C2374 C2375 1.502 . S
C2374 C2376 1.561 . S
C2374 C2377 1.526 . S
C2375 H2359 0.959 . S
C2375 H2360 0.959 . S
C2375 H2361 0.961 . S
C2375 C2374 1.502 . S
C2376 H2362 0.960 . S
C2376 H2363 0.961 . S
C2376 H2364 0.959 . S
C2376 C2374 1.561 . S
C2377 C2374 1.526 . S
C2377 C2378 1.396 1_556 S
C2377 C2382 1.390 . S
C2378 C2372 1.465 . S
C2378 C2377 1.396 1_554 S
C2378 C2379 1.399 . S
C2379 H2365 0.929 . S
C2379 C2378 1.399 . S
C2379 C2380 1.385 . S
C2380 H2366 0.931 . S
C2380 C2379 1.385 . S
C2380 C2381 1.389 . S
C2381 C2380 1.389 . S
C2381 C2382 1.387 1_554 S
C2382 H2367 0.930 . S
C2382 C2377 1.390 . S
C2382 C2381 1.387 1_556 S
H2383 C2395 0.930 . S
H2384 C2397 0.930 . S
H2385 C2398 0.930 . S
H2386 C2402 0.959 . S
H2387 C2402 0.959 . S
H2388 C2402 0.961 . S
H2389 C2403 0.960 . S
H2390 C2403 0.961 . S
H2391 C2403 0.959 . S
H2392 C2406 0.929 . S
H2393 C2407 0.931 . S
H2394 C2409 0.930 . S
C2395 H2383 0.930 . S
C2395 C2396 1.399 . S
C2395 C2400 1.399 . S
C2396 C2395 1.399 . S
C2396 C2397 1.376 . S
C2397 H2384 0.930 . S
C2397 C2396 1.376 . S
C2397 C2398 1.388 . S
C2398 H2385 0.930 . S
C2398 C2397 1.388 . S
C2398 C2399 1.390 . S
C2399 C2398 1.390 . S
C2399 C2400 1.394 . S
C2399 C2405 1.465 . S
C2400 C2395 1.399 . S
C2400 C2399 1.394 . S
C2400 C2401 1.516 . S
C2401 C2400 1.516 . S
C2401 C2402 1.502 . S
C2401 C2403 1.561 . S
C2401 C2404 1.526 . S
C2402 H2386 0.959 . S
C2402 H2387 0.959 . S
C2402 H2388 0.961 . S
C2402 C2401 1.502 . S
C2403 H2389 0.960 . S
C2403 H2390 0.961 . S
C2403 H2391 0.959 . S
C2403 C2401 1.561 . S
C2404 C2401 1.526 . S
C2404 C2405 1.396 . S
C2404 C2409 1.390 . S
C2405 C2399 1.465 . S
C2405 C2404 1.396 . S
C2405 C2406 1.399 . S
C2406 H2392 0.929 . S
C2406 C2405 1.399 . S
C2406 C2407 1.385 . S
C2407 H2393 0.931 . S
C2407 C2406 1.385 . S
C2407 C2408 1.389 . S
C2408 C2407 1.389 . S
C2408 C2409 1.387 . S
C2409 H2394 0.930 . S
C2409 C2404 1.390 . S
C2409 C2408 1.387 . S
H2410 C2422 0.930 . S
H2411 C2424 0.930 . S
H2412 C2425 0.930 . S
H2413 C2429 0.959 . S
H2414 C2429 0.959 . S
H2415 C2429 0.961 . S
H2416 C2430 0.960 . S
H2417 C2430 0.961 . S
H2418 C2430 0.959 . S
H2419 C2433 0.929 . S
H2420 C2434 0.931 . S
H2421 C2436 0.930 . S
C2422 H2410 0.930 . S
C2422 C2423 1.399 1_554 S
C2422 C2427 1.399 . S
C2423 C2422 1.399 1_556 S
C2423 C2424 1.376 . S
C2424 H2411 0.930 . S
C2424 C2423 1.376 . S
C2424 C2425 1.388 . S
C2425 H2412 0.930 . S
C2425 C2424 1.388 . S
C2425 C2426 1.390 . S
C2426 C2425 1.390 . S
C2426 C2427 1.394 1_556 S
C2426 C2432 1.465 . S
C2427 C2422 1.399 . S
C2427 C2426 1.394 1_554 S
C2427 C2428 1.516 . S
C2428 C2427 1.516 . S
C2428 C2429 1.502 . S
C2428 C2430 1.561 . S
C2428 C2431 1.526 . S
C2429 H2413 0.959 . S
C2429 H2414 0.959 . S
C2429 H2415 0.961 . S
C2429 C2428 1.502 . S
C2430 H2416 0.960 . S
C2430 H2417 0.961 . S
C2430 H2418 0.959 . S
C2430 C2428 1.561 . S
C2431 C2428 1.526 . S
C2431 C2432 1.396 1_554 S
C2431 C2436 1.390 . S
C2432 C2426 1.465 . S
C2432 C2431 1.396 1_556 S
C2432 C2433 1.399 . S
C2433 H2419 0.929 . S
C2433 C2432 1.399 . S
C2433 C2434 1.385 . S
C2434 H2420 0.931 . S
C2434 C2433 1.385 . S
C2434 C2435 1.389 . S
C2435 C2434 1.389 . S
C2435 C2436 1.387 1_556 S
C2436 H2421 0.930 . S
C2436 C2431 1.390 . S
C2436 C2435 1.387 1_554 S
H2437 C2449 0.930 . S
H2438 C2451 0.930 . S
H2439 C2452 0.930 . S
H2440 C2456 0.959 . S
H2441 C2456 0.959 . S
H2442 C2456 0.961 . S
H2443 C2457 0.960 . S
H2444 C2457 0.961 . S
H2445 C2457 0.959 . S
H2446 C2460 0.929 . S
H2447 C2461 0.931 . S
H2448 C2463 0.930 . S
C2449 H2437 0.930 . S
C2449 C2450 1.399 . S
C2449 C2454 1.399 . S
C2450 C2449 1.399 . S
C2450 C2451 1.376 . S
C2451 H2438 0.930 . S
C2451 C2450 1.376 . S
C2451 C2452 1.388 . S
C2452 H2439 0.930 . S
C2452 C2451 1.388 . S
C2452 C2453 1.390 . S
C2453 C2452 1.390 . S
C2453 C2454 1.394 . S
C2453 C2459 1.465 . S
C2454 C2449 1.399 . S
C2454 C2453 1.394 . S
C2454 C2455 1.516 . S
C2455 C2454 1.516 . S
C2455 C2456 1.502 . S
C2455 C2457 1.561 . S
C2455 C2458 1.526 . S
C2456 H2440 0.959 . S
C2456 H2441 0.959 . S
C2456 H2442 0.961 . S
C2456 C2455 1.502 . S
C2457 H2443 0.960 . S
C2457 H2444 0.961 . S
C2457 H2445 0.959 . S
C2457 C2455 1.561 . S
C2458 C2455 1.526 . S
C2458 C2459 1.396 . S
C2458 C2463 1.390 . S
C2459 C2453 1.465 . S
C2459 C2458 1.396 . S
C2459 C2460 1.399 . S
C2460 H2446 0.929 . S
C2460 C2459 1.399 . S
C2460 C2461 1.385 . S
C2461 H2447 0.931 . S
C2461 C2460 1.385 . S
C2461 C2462 1.389 . S
C2462 C2461 1.389 . S
C2462 C2463 1.387 . S
C2463 H2448 0.930 . S
C2463 C2458 1.390 . S
C2463 C2462 1.387 . S
C749 C16 1.512 . S
C761 C85 1.521 . S
C776 C62 1.512 . S
C788 C39 1.524 . S
C803 C177 1.525 . S
C815 C108 1.514 . S
C830 C154 1.523 . S
C842 C131 1.546 . S
C857 C200 1.546 . S
C869 C269 1.534 . S
C884 C223 1.547 . S
C896 C246 1.536 . S
C911 C361 1.527 . S
C923 C292 1.513 . S
C938 C338 1.531 . S
C950 C315 1.547 . S
C965 C384 1.547 . S
C977 C453 1.536 . S
C992 C407 1.547 . S
C1004 C430 1.536 . S
C1019 C476 1.531 . S
C1031 C545 1.513 . S
C1046 C499 1.527 . S
C1058 C522 1.513 . S
C1073 C568 1.512 . S
C1085 C637 1.517 . S
C1100 C614 1.547 . S
C1112 C591 1.541 . S
C1127 C729 1.524 . S
C1139 C660 1.514 . S
C1154 C706 1.529 . S
C1166 C683 1.547 . S
C1181 N12 1.523 . S
C1193 N104 1.552 1_554 S
C1208 N679 1.557 . S
C1220 N35 1.515 . S
C1235 N58 1.528 . S
C1247 N334 1.552 . S
C1262 N541 1.518 . S
C1274 N81 1.559 . S
C1289 N587 1.552 1_556 S
C1301 N127 1.515 . S
C1316 N150 1.519 . S
C1328 N242 1.551 . S
C1343 N173 1.559 . S
C1355 N449 1.515 . S
C1370 N288 1.517 . S
C1382 N196 1.559 . S
C1397 N495 1.559 . S
C1409 N219 1.515 . S
C1424 N265 1.545 . S
C1436 N725 1.537 . S
C1451 N311 1.520 . S
C1463 N403 1.557 . S
C1478 N357 1.556 . S
C1490 N633 1.523 . S
C1505 N472 1.560 . S
C1517 N380 1.516 . S
C1532 N426 1.524 . S
C1544 N702 1.555 . S
C1559 N518 1.545 . S
C1571 N610 1.524 . S
C1586 N656 1.559 . S
C1598 N564 1.516 . S
C1613 C7 1.429 . S
C1625 C444 1.419 . S
C1640 C30 1.412 . S
C1652 C421 1.421 . S
C1667 C398 1.412 . S
C1679 C53 1.422 . S
C1694 C375 1.429 . S
C1706 C76 1.420 . S
C1721 C99 1.419 . S
C1733 C536 1.429 . S
C1748 C122 1.427 . S
C1760 C513 1.413 . S
C1775 C145 1.419 . S
C1787 C490 1.429 . S
C1802 C467 1.423 . S
C1814 C168 1.427 . S
C1829 C191 1.425 . S
C1841 C628 1.415 . S
C1856 C605 1.411 . S
C1868 C214 1.418 . S
C1883 C582 1.429 . S
C1895 C237 1.423 . S
C1910 C260 1.429 . S
C1922 C559 1.422 . S
C1937 C283 1.423 . S
C1949 C720 1.412 . S
C1964 C306 1.417 . S
C1976 C697 1.429 . S
C1991 C674 1.422 . S
C2003 C329 1.412 . S
C2018 C352 1.420 . S
C2030 C651 1.429 . S
C2045 N25 1.506 . S
C2057 N2 1.463 . S
C2072 N48 1.501 . S
C2084 N71 1.473 . S
C2099 N117 1.475 . S
C2111 N94 1.448 . S
C2126 N140 1.453 . S
C2138 N163 1.470 . S
C2153 N209 1.512 . S
C2165 N186 1.448 . S
C2180 N232 1.508 . S
C2192 N255 1.460 . S
C2207 N278 1.513 . S
C2219 N301 1.424 . S
C2234 N324 1.492 . S
C2246 N347 1.434 . S
C2261 N370 1.430 . S
C2273 N393 1.470 . S
C2288 N439 1.511 . S
C2300 N416 1.455 . S
C2315 N462 1.461 . S
C2327 N485 1.487 . S
C2342 N531 1.489 . S
C2354 N508 1.437 . S
C2369 N577 1.505 . S
C2381 N554 1.466 . S
C2396 N600 1.511 . S
C2408 N623 1.449 . S
C2423 N646 1.456 . S
C2435 N669 1.492 . S
C2450 N715 1.491 . S
C2462 N692 1.435 . S
