# Generated by pormake.
# Topology smu, (6)-cn, num edge types: 1
# Building blocks:
#     Node 0, Type 0, BuildingBlock: BETDAH_clean_sbu_0, # of connection points: 6
#     Node 1, Type 0, BuildingBlock: BETDAH_clean_sbu_0, # of connection points: 6
#     Node 2, Type 0, BuildingBlock: BETDAH_clean_sbu_0, # of connection points: 6
#     Node 3, Type 0, BuildingBlock: BETDAH_clean_sbu_0, # of connection points: 6
#     Node 4, Type 0, BuildingBlock: BETDAH_clean_sbu_0, # of connection points: 6
#     Node 5, Type 0, BuildingBlock: BETDAH_clean_sbu_0, # of connection points: 6
#     Edge 6, Type (0, 0), BuildingBlock: UVAHIK_clean_linker_0, # of connection points: 2
#     Edge 7, Type (0, 0), BuildingBlock: UVAHIK_clean_linker_0, # of connection points: 2
#     Edge 8, Type (0, 0), BuildingBlock: UVAHIK_clean_linker_0, # of connection points: 2
#     Edge 9, Type (0, 0), BuildingBlock: UVAHIK_clean_linker_0, # of connection points: 2
#     Edge 10, Type (0, 0), BuildingBlock: UVAHIK_clean_linker_0, # of connection points: 2
#     Edge 11, Type (0, 0), BuildingBlock: UVAHIK_clean_linker_0, # of connection points: 2
#     Edge 12, Type (0, 0), BuildingBlock: UVAHIK_clean_linker_0, # of connection points: 2
#     Edge 13, Type (0, 0), BuildingBlock: UVAHIK_clean_linker_0, # of connection points: 2
#     Edge 14, Type (0, 0), BuildingBlock: UVAHIK_clean_linker_0, # of connection points: 2
#     Edge 15, Type (0, 0), BuildingBlock: UVAHIK_clean_linker_0, # of connection points: 2
#     Edge 16, Type (0, 0), BuildingBlock: UVAHIK_clean_linker_0, # of connection points: 2
#     Edge 17, Type (0, 0), BuildingBlock: UVAHIK_clean_linker_0, # of connection points: 2
#     Edge 18, Type (0, 0), BuildingBlock: UVAHIK_clean_linker_0, # of connection points: 2
#     Edge 19, Type (0, 0), BuildingBlock: UVAHIK_clean_linker_0, # of connection points: 2
#     Edge 20, Type (0, 0), BuildingBlock: UVAHIK_clean_linker_0, # of connection points: 2
#     Edge 21, Type (0, 0), BuildingBlock: UVAHIK_clean_linker_0, # of connection points: 2
#     Edge 22, Type (0, 0), BuildingBlock: UVAHIK_clean_linker_0, # of connection points: 2
#     Edge 23, Type (0, 0), BuildingBlock: UVAHIK_clean_linker_0, # of connection points: 2
# Relax obj value: 0.209
# Max RMSD: 0.299
# Mean RMSD: 0.299
data_MOF--net-smu--node1-BETDAH_clean_sbu_0--edge1-UVAHIK_clean_linker_0
_symmetry_space_group_name_H-M    P1
_symmetry_Int_Tables_number       1
_symmetry_cell_setting            triclinic
loop_
_symmetry_equiv_pos_as_xyz
'x, y, z'
_cell_length_a     47.640736
_cell_length_b     47.617007
_cell_length_c     34.637033
_cell_angle_alpha  89.967569
_cell_angle_beta   90.117865
_cell_angle_gamma 119.97272
loop_
_atom_site_label
_atom_site_type_symbol
_atom_site_fract_x
_atom_site_fract_y
_atom_site_fract_z
_atom_type_partial_charge
Ho0 Ho 0.37468 0.08678 0.27438 0.0
Ho1 Ho 0.33194 0.11518 0.29571 0.0
C2 C 0.40925 0.16342 0.29491 0.0
C3 C 0.41856 0.07372 0.25055 0.0
C4 C 0.45453 0.09028 0.25 0.0
C5 C 0.47386 0.11954 0.23017 0.0
C6 C 0.50787 0.13475 0.23178 0.0
C7 C 0.52328 0.12113 0.25338 0.0
C8 C 0.50365 0.09192 0.27321 0.0
C9 C 0.46989 0.07667 0.27128 0.0
C10 C 0.35219 0.07436 0.34756 0.0
C11 C 0.29846 0.0399 0.27851 0.0
C12 C 0.30172 0.14341 0.32267 0.0
C13 C 0.27424 0.14845 0.31314 0.0
C14 C 0.25106 0.14303 0.34144 0.0
C15 C 0.22788 0.15245 0.33514 0.0
C16 C 0.22765 0.1679 0.30051 0.0
C17 C 0.25002 0.17191 0.27153 0.0
C18 C 0.27293 0.16218 0.27769 0.0
C19 C 0.33079 0.10116 0.21934 0.0
O20 O 0.41318 0.13923 0.28309 0.0
O21 O 0.38054 0.15925 0.30354 0.0
O22 O 0.40567 0.06662 0.28484 0.0
O23 O 0.40368 0.08393 0.22755 0.0
O24 O 0.35513 0.05421 0.32532 0.0
O25 O 0.36217 0.10132 0.33049 0.0
O26 O 0.29833 0.06184 0.30185 0.0
O27 O 0.32455 0.04596 0.25811 0.0
O28 O 0.32682 0.15736 0.29978 0.0
O29 O 0.29536 0.11453 0.33399 0.0
O30 O 0.30677 0.1 0.23798 0.0
O31 O 0.35514 0.11261 0.24148 0.0
H32 H 0.46277 0.13075 0.21361 0.0
H33 H 0.52204 0.15703 0.21581 0.0
H34 H 0.51429 0.08094 0.29096 0.0
H35 H 0.45566 0.05427 0.28707 0.0
H36 H 0.25155 0.1325 0.369 0.0
H37 H 0.2106 0.14823 0.3578 0.0
H38 H 0.25093 0.18394 0.24465 0.0
H39 H 0.29045 0.16669 0.2552 0.0
Ho40 Ho 0.73858 0.65643 0.27315 0.0
Ho41 Ho 0.80741 0.70451 0.29923 0.0
C42 C 0.78611 0.62854 0.29393 0.0
C43 C 0.68781 0.60983 0.23964 0.0
C44 C 0.66805 0.57434 0.24582 0.0
C45 C 0.65783 0.55328 0.21398 0.0
C46 C 0.63967 0.51962 0.21926 0.0
C47 C 0.63115 0.50625 0.25656 0.0
C48 C 0.64151 0.52745 0.28843 0.0
C49 C 0.65989 0.56109 0.28315 0.0
C50 C 0.74244 0.67165 0.3488 0.0
C51 C 0.75905 0.73003 0.28476 0.0
C52 C 0.86421 0.73822 0.33059 0.0
C53 C 0.89692 0.76418 0.31924 0.0
C54 C 0.91619 0.78835 0.34591 0.0
C55 C 0.9487 0.81048 0.33768 0.0
C56 C 0.96279 0.80866 0.3027 0.0
C57 C 0.94292 0.78519 0.27535 0.0
C58 C 0.91034 0.76332 0.28344 0.0
C59 C 0.79667 0.70873 0.22277 0.0
O60 O 0.75595 0.62145 0.28738 0.0
O61 O 0.80981 0.65868 0.29832 0.0
O62 O 0.68642 0.62852 0.26624 0.0
O63 O 0.71733 0.62049 0.22753 0.0
O64 O 0.71761 0.66387 0.32687 0.0
O65 O 0.76372 0.66827 0.3306 0.0
O66 O 0.77994 0.73037 0.31017 0.0
O67 O 0.74342 0.70539 0.26043 0.0
O68 O 0.85392 0.71028 0.31369 0.0
O69 O 0.84139 0.74568 0.33428 0.0
O70 O 0.8177 0.73268 0.24335 0.0
O71 O 0.78517 0.68331 0.24292 0.0
H72 H 0.66395 0.5629 0.18494 0.0
H73 H 0.63188 0.50407 0.19405 0.0
H74 H 0.63579 0.51801 0.31757 0.0
H75 H 0.66782 0.5767 0.30831 0.0
H76 H 0.90635 0.78955 0.37365 0.0
H77 H 0.96293 0.82866 0.35911 0.0
H78 H 0.95278 0.78272 0.24826 0.0
H79 H 0.89601 0.74495 0.26222 0.0
Ho80 Ho 0.94318 0.29269 0.27185 0.0
Ho81 Ho 0.92363 0.22437 0.29735 0.0
C82 C 0.86789 0.24414 0.28998 0.0
C83 C 0.94746 0.34329 0.23788 0.0
C84 C 0.93264 0.36391 0.24425 0.0
C85 C 0.91649 0.36943 0.21379 0.0
C86 C 0.90227 0.38876 0.21927 0.0
C87 C 0.90409 0.40322 0.25531 0.0
C88 C 0.9202 0.39757 0.28582 0.0
C89 C 0.93418 0.37805 0.28042 0.0
C90 C 0.95432 0.28915 0.3478 0.0
C91 C 0.99725 0.27387 0.2847 0.0
C92 C 0.90076 0.1677 0.32921 0.0
C93 C 0.89312 0.13449 0.31875 0.0
C94 C 0.89778 0.11546 0.34606 0.0
C95 C 0.88657 0.08259 0.3389 0.0
C96 C 0.87012 0.06789 0.30432 0.0
C97 C 0.86673 0.08745 0.27632 0.0
C98 C 0.87818 0.12039 0.28339 0.0
C99 C 0.93949 0.23563 0.2212 0.0
O100 O 0.89073 0.27474 0.28584 0.0
O101 O 0.87491 0.22071 0.29294 0.0
O102 O 0.96805 0.34472 0.26383 0.0
O103 O 0.92799 0.31365 0.22632 0.0
O104 O 0.97098 0.31412 0.326 0.0
O105 O 0.93001 0.26752 0.32929 0.0
O106 O 0.97669 0.25267 0.30973 0.0
O107 O 0.98791 0.28894 0.25998 0.0
O108 O 0.88299 0.17807 0.31281 0.0
O109 O 0.93122 0.19024 0.33161 0.0
O110 O 0.94302 0.21509 0.24207 0.0
O111 O 0.92469 0.24644 0.24087 0.0
H112 H 0.91494 0.35882 0.18565 0.0
H113 H 0.89031 0.39282 0.19506 0.0
H114 H 0.92168 0.40796 0.31408 0.0
H115 H 0.94615 0.37404 0.30465 0.0
H116 H 0.90926 0.1258 0.3735 0.0
H117 H 0.89034 0.06858 0.36082 0.0
H118 H 0.85402 0.0771 0.2495 0.0
H119 H 0.87426 0.13451 0.26174 0.0
Ho120 Ho 0.11961 0.32436 0.7975 0.0
Ho121 Ho 0.09581 0.36977 0.77111 0.0
C122 C 0.04484 0.2953 0.7836 0.0
C123 C 0.1466 0.29428 0.82887 0.0
C124 C 0.15055 0.2657 0.82436 0.0
C125 C 0.16557 0.25813 0.85413 0.0
C126 C 0.17469 0.23471 0.84867 0.0
C127 C 0.16889 0.21822 0.81322 0.0
C128 C 0.15273 0.22511 0.7838 0.0
C129 C 0.14369 0.24871 0.7893 0.0
C130 C 0.10341 0.31872 0.72138 0.0
C131 C 0.17166 0.40131 0.79193 0.0
C132 C 0.08776 0.41405 0.73766 0.0
C133 C 0.10461 0.44987 0.74045 0.0
C134 C 0.10872 0.46857 0.70741 0.0
C135 C 0.12388 0.50244 0.70992 0.0
C136 C 0.13512 0.51842 0.74566 0.0
C137 C 0.13132 0.49949 0.77862 0.0
C138 C 0.11644 0.46569 0.77601 0.0
C139 C 0.08506 0.35436 0.84685 0.0
O140 O 0.0663 0.29523 0.80781 0.0
O141 O 0.05254 0.31996 0.75969 0.0
O142 O 0.16 0.31628 0.80199 0.0
O143 O 0.11839 0.28991 0.83984 0.0
O144 O 0.10026 0.29501 0.7427 0.0
O145 O 0.11733 0.34458 0.74085 0.0
O146 O 0.14801 0.40696 0.78278 0.0
O147 O 0.16622 0.37181 0.79897 0.0
O148 O 0.0718 0.39806 0.76821 0.0
O149 O 0.10398 0.40155 0.72211 0.0
O150 O 0.06657 0.35995 0.82458 0.0
O151 O 0.11043 0.3596 0.82872 0.0
H152 H 0.17152 0.27134 0.88117 0.0
H153 H 0.18749 0.23054 0.87179 0.0
H154 H 0.14745 0.2126 0.75635 0.0
H155 H 0.13233 0.25442 0.76582 0.0
H156 H 0.10007 0.45694 0.67962 0.0
H157 H 0.12686 0.51607 0.68374 0.0
H158 H 0.13917 0.51065 0.80675 0.0
H159 H 0.11382 0.45188 0.80197 0.0
Ho160 Ho 0.23292 0.91718 0.80137 0.0
Ho161 Ho 0.30138 0.9384 0.77425 0.0
C162 C 0.28129 0.9912 0.79055 0.0
C163 C 0.17652 0.89329 0.83389 0.0
C164 C 0.14316 0.88506 0.82334 0.0
C165 C 0.1246 0.89124 0.84967 0.0
C166 C 0.09177 0.88005 0.84244 0.0
C167 C 0.07664 0.86214 0.80882 0.0
C168 C 0.09569 0.85708 0.78176 0.0
C169 C 0.12859 0.86849 0.78888 0.0
C170 C 0.24314 0.93412 0.72551 0.0
C171 C 0.25337 0.86233 0.79076 0.0
C172 C 0.35216 0.94422 0.73913 0.0
C173 C 0.37202 0.92848 0.74363 0.0
C174 C 0.3884 0.9255 0.71174 0.0
C175 C 0.40731 0.91066 0.71559 0.0
C176 C 0.41036 0.89852 0.75155 0.0
C177 C 0.39352 0.9013 0.78338 0.0
C178 C 0.37447 0.91598 0.77943 0.0
C179 C 0.29808 0.94729 0.85082 0.0
O180 O 0.26096 0.96981 0.81556 0.0
O181 O 0.29646 0.98294 0.76467 0.0
O182 O 0.18737 0.87589 0.81765 0.0
O183 O 0.19862 0.92394 0.83613 0.0
O184 O 0.22242 0.93678 0.74695 0.0
O185 O 0.25465 0.91956 0.74437 0.0
O186 O 0.28368 0.88544 0.78516 0.0
O187 O 0.22985 0.86887 0.79614 0.0
O188 O 0.3535 0.96301 0.76733 0.0
O189 O 0.32262 0.9257 0.72675 0.0
O190 O 0.32281 0.96497 0.82916 0.0
O191 O 0.27669 0.92335 0.83167 0.0
H192 H 0.1353 0.90401 0.87637 0.0
H193 H 0.07812 0.8851 0.86354 0.0
H194 H 0.08496 0.84324 0.7557 0.0
H195 H 0.14235 0.8634 0.76797 0.0
H196 H 0.38656 0.93465 0.68376 0.0
H197 H 0.41933 0.90847 0.69022 0.0
H198 H 0.39549 0.89267 0.81162 0.0
H199 H 0.36182 0.91776 0.80443 0.0
Ho200 Ho 0.71078 0.80267 0.79732 0.0
Ho201 Ho 0.66474 0.73347 0.77094 0.0
C202 C 0.73927 0.75671 0.7812 0.0
C203 C 0.74303 0.85973 0.82815 0.0
C204 C 0.77034 0.89222 0.81847 0.0
C205 C 0.79322 0.91054 0.84689 0.0
C206 C 0.81616 0.94313 0.84021 0.0
C207 C 0.81643 0.95824 0.80508 0.0
C208 C 0.79437 0.93927 0.77602 0.0
C209 C 0.77174 0.90663 0.78254 0.0
C210 C 0.71463 0.79266 0.72066 0.0
C211 C 0.63412 0.77837 0.79391 0.0
C212 C 0.61897 0.68111 0.73919 0.0
C213 C 0.58323 0.66197 0.74431 0.0
C214 C 0.56252 0.65468 0.71233 0.0
C215 C 0.52876 0.63626 0.71679 0.0
C216 C 0.51496 0.62447 0.75333 0.0
C217 C 0.53576 0.6321 0.78534 0.0
C218 C 0.56941 0.6507 0.78094 0.0
C219 C 0.68208 0.7382 0.84608 0.0
O220 O 0.7395 0.77783 0.80614 0.0
O221 O 0.71434 0.74003 0.75746 0.0
O222 O 0.71686 0.84987 0.80737 0.0
O223 O 0.74933 0.83646 0.83565 0.0
O224 O 0.73858 0.81359 0.74132 0.0
O225 O 0.68931 0.78035 0.74098 0.0
O226 O 0.62816 0.74902 0.78444 0.0
O227 O 0.66374 0.80234 0.80038 0.0
O228 O 0.63666 0.68115 0.76802 0.0
O229 O 0.63072 0.7098 0.72368 0.0
O230 O 0.67655 0.71437 0.82347 0.0
O231 O 0.67611 0.75809 0.82856 0.0
H232 H 0.79266 0.89996 0.87478 0.0
H233 H 0.83324 0.95663 0.86297 0.0
H234 H 0.79347 0.9499 0.74874 0.0
H235 H 0.75444 0.89309 0.75996 0.0
H236 H 0.57249 0.66309 0.6838 0.0
H237 H 0.5135 0.63067 0.69147 0.0
H238 H 0.52599 0.62388 0.81398 0.0
H239 H 0.58457 0.65614 0.80634 0.0
C240 C 0.32735 0.97451 0.91088 0.0
C241 C 0.29757 0.95482 0.89227 0.0
C242 C 0.3286 0.98622 0.94811 0.0
C243 C 0.2829 1.00794 1.01506 0.0
H244 H 0.34873 0.01688 0.08809 0.0
C245 C 0.29551 0.06445 0.1669 0.0
C246 C 0.32681 0.08413 0.18204 0.0
C247 C 0.29067 0.04685 0.1328 0.0
C248 C 0.33045 0.01496 0.06792 0.0
H249 H 0.24552 0.93146 0.89849 0.0
H250 H 0.24755 0.95224 0.96427 0.0
H251 H 0.34099 0.98705 1.02815 0.0
H252 H 0.37774 0.10167 0.17238 0.0
H253 H 0.36951 0.07113 0.11243 0.0
H254 H 0.27274 0.03637 0.05447 0.0
C255 C 0.27003 0.95848 0.94974 0.0
C256 C 0.32587 0.99765 0.03356 0.0
C257 C 0.26879 0.9463 0.9123 0.0
C258 C 0.35332 0.08627 0.16183 0.0
C259 C 0.34851 0.06867 0.1275 0.0
C260 C 0.28752 0.02534 0.04943 0.0
C261 C 0.30006 0.97892 0.96792 0.0
C262 C 0.30233 0.99424 1.00639 0.0
C263 C 0.31705 0.04857 0.11257 0.0
C264 C 0.31163 0.02942 0.07621 0.0
H265 H 0.35 0.98164 0.89618 0.0
H266 H 0.35214 1.00218 0.96074 0.0
H267 H 0.26489 1.00626 0.99462 0.0
H268 H 0.27448 0.06208 0.18186 0.0
H269 H 0.26609 0.03136 0.12274 0.0
C270 C 0.74971 0.79129 0.66787 0.0
C271 C 0.71849 0.781 0.68235 0.0
C272 C 0.75398 0.77952 0.63262 0.0
C273 C 0.71164 0.74167 0.54119 0.0
H274 H 0.7778 0.71745 0.52978 0.0
C275 C 0.71338 0.67233 0.40763 0.0
C276 C 0.74308 0.68107 0.38974 0.0
C277 C 0.71232 0.6842 0.44403 0.0
C278 C 0.75949 0.72447 0.53232 0.0
H279 H 0.66726 0.75101 0.67062 0.0
H280 H 0.67452 0.73025 0.60905 0.0
H281 H 0.77164 0.73879 0.59154 0.0
H282 H 0.79516 0.70835 0.39671 0.0
H283 H 0.79346 0.72975 0.46096 0.0
H284 H 0.69952 0.72768 0.48221 0.0
C285 C 0.69581 0.74743 0.625 0.0
C286 C 0.7559 0.73668 0.56777 0.0
C287 C 0.69158 0.75908 0.66045 0.0
C288 C 0.77193 0.70106 0.40993 0.0
C289 C 0.77089 0.71331 0.44665 0.0
C290 C 0.71529 0.72963 0.50587 0.0
C291 C 0.7271 0.7574 0.61066 0.0
C292 C 0.73164 0.74509 0.57278 0.0
C293 C 0.74096 0.70564 0.46368 0.0
C294 C 0.73892 0.72038 0.50101 0.0
H295 H 0.77099 0.80821 0.68406 0.0
H296 H 0.77839 0.7881 0.62236 0.0
H297 H 0.69324 0.74859 0.54359 0.0
H298 H 0.69066 0.65668 0.39303 0.0
H299 H 0.68884 0.67687 0.45654 0.0
C300 C 0.94987 0.26958 0.16127 0.0
C301 C 0.9552 0.2478 0.18304 0.0
C302 C 0.96568 0.28147 0.12581 0.0
C303 C 0.03671 0.29325 0.06797 0.0
H304 H 0.98806 0.30038 0.98256 0.0
C305 C 0.08731 0.32764 0.90949 0.0
C306 C 0.07716 0.34616 0.8883 0.0
C307 C 0.07454 0.31605 0.94661 0.0
C308 C 1.00228 0.29904 1.00617 0.0
H309 H 0.98134 0.2214 0.18463 0.0
H310 H 1.00878 0.24198 0.12297 0.0
H311 H 0.96156 0.27992 0.04433 0.0
H312 H 0.04746 0.36884 0.89038 0.0
H313 H 0.02651 0.35003 0.95454 0.0
H314 H 0.07756 0.31266 1.02959 0.0
C315 C 0.99262 0.25016 0.13328 0.0
C316 C 0.98696 0.28721 0.04173 0.0
C317 C 0.97663 0.23812 0.16852 0.0
C318 C 0.05553 0.35428 0.90569 0.0
C319 C 0.04318 0.34315 0.94251 0.0
C320 C 0.05216 0.3053 1.0323 0.0
C321 C 0.98735 0.27198 0.11133 0.0
C322 C 1.00395 0.28435 0.07328 0.0
C323 C 0.05157 0.32299 0.96316 0.0
C324 C 0.03525 0.30873 1.00096 0.0
H325 H 0.93344 0.2774 0.17157 0.0
H326 H 0.9612 0.29844 0.10993 0.0
H327 H 0.05066 0.29158 0.09168 0.0
H328 H 0.10384 0.32089 0.89679 0.0
H329 H 0.08166 0.30063 0.96161 0.0
C330 C 0.34703 0.08647 0.41772 0.0
C331 C 0.33777 0.06474 0.38657 0.0
C332 C 0.33669 0.07477 0.45548 0.0
C333 C 0.30607 0.9976 0.51098 0.0
H334 H 0.28642 0.04191 0.59093 0.0
C335 C 0.278 0.94704 0.66635 0.0
C336 C 0.25459 0.95015 0.68741 0.0
C337 C 0.28952 0.96324 0.63111 0.0
C338 C 0.29153 0.029 0.56886 0.0
H339 H 0.30878 0.01428 0.36998 0.0
H340 H 0.28956 0.99437 0.43433 0.0
H341 H 0.30219 0.06617 0.52675 0.0
H342 H 0.22463 0.97253 0.68783 0.0
H343 H 0.2436 0.99968 0.62576 0.0
H344 H 0.29424 0.95987 0.55196 0.0
C345 C 0.30586 0.02013 0.43059 0.0
C346 C 0.30101 0.0432 0.53211 0.0
C347 C 0.31656 0.03164 0.39343 0.0
C348 C 0.24269 0.96959 0.67225 0.0
C349 C 0.25392 0.98553 0.63679 0.0
C350 C 0.29637 0.98335 0.54739 0.0
C351 C 0.31668 0.04121 0.46247 0.0
C352 C 0.30803 0.02746 0.50246 0.0
C353 C 0.27753 0.9826 0.61558 0.0
C354 C 0.28878 0.99867 0.57696 0.0
H355 H 0.36352 0.1121 0.41324 0.0
H356 H 0.34549 0.0918 0.47927 0.0
H357 H 0.312 0.98497 0.48938 0.0
H358 H 0.2874 0.93204 0.67701 0.0
H359 H 0.30805 0.96065 0.61619 0.0
C360 C 0.69162 0.75795 0.9156 0.0
C361 C 0.69637 0.74141 0.88502 0.0
C362 C 0.70228 0.75637 0.95317 0.0
C363 C 0.72609 0.70472 1.01071 0.0
H364 H 0.75741 0.77428 0.08559 0.0
C365 C 0.79845 0.74328 0.16719 0.0
C366 C 0.78476 0.71251 0.18451 0.0
C367 C 0.78671 0.74756 0.13184 0.0
C368 C 0.74907 0.75466 0.06493 0.0
H369 H 0.71775 0.71218 0.86919 0.0
H370 H 0.73772 0.71106 0.93292 0.0
H371 H 0.74047 0.78188 1.02173 0.0
H372 H 0.74823 0.66217 0.17795 0.0
H373 H 0.72657 0.6695 0.11755 0.0
H374 H 0.73609 0.67804 0.05257 0.0
C375 C 0.72449 0.72388 0.92909 0.0
C376 C 0.73886 0.7589 1.02836 0.0
C377 C 0.71335 0.72489 0.89221 0.0
C378 C 0.75909 0.68614 0.16562 0.0
C379 C 0.74696 0.69043 0.13056 0.0
C380 C 0.73666 0.70067 0.04686 0.0
C381 C 0.71822 0.73858 0.96053 0.0
C382 C 0.72759 0.7341 1.00049 0.0
C383 C 0.76066 0.72121 0.11293 0.0
C384 C 0.7485 0.72557 0.0746 0.0
H385 H 0.67852 0.77081 0.91086 0.0
H386 H 0.697 0.76807 0.97656 0.0
H387 H 0.7168 0.68461 0.99064 0.0
H388 H 0.81834 0.76418 0.181 0.0
H389 H 0.79846 0.77153 0.11915 0.0
C390 C 0.98501 0.31823 0.40641 0.0
C391 C 0.9635 0.28854 0.38872 0.0
C392 C 0.99805 0.31931 0.44282 0.0
C393 C 0.99035 0.27266 0.53188 0.0
H394 H 0.08104 0.3379 0.54323 0.0
C395 C 0.06598 0.28307 0.66926 0.0
C396 C 0.0877 0.31441 0.68299 0.0
C397 C 0.05 0.2785 0.6338 0.0
C398 C 0.05563 0.31979 0.54083 0.0
H399 H 0.93797 0.23647 0.39614 0.0
H400 H 0.96115 0.2382 0.46048 0.0
H401 H 0.05406 0.33139 0.48155 0.0
H402 H 0.11029 0.3655 0.66964 0.0
H403 H 0.08235 0.35775 0.60786 0.0
H404 H 0.99218 0.26109 0.59144 0.0
C405 C 0.96767 0.26078 0.44594 0.0
C406 C 0.04006 0.316 0.50531 0.0
C407 C 0.95431 0.25972 0.40916 0.0
C408 C 0.09344 0.34111 0.66012 0.0
C409 C 0.0776 0.33657 0.6245 0.0
C410 C 1.00602 0.27642 0.56756 0.0
C411 C 0.99038 0.29069 0.46281 0.0
C412 C 1.00705 0.29274 0.50037 0.0
C413 C 0.05555 0.30518 0.61084 0.0
C414 C 0.03882 0.30034 0.57266 0.0
H415 H 0.99239 0.34096 0.39168 0.0
H416 H 1.01459 0.34281 0.45513 0.0
H417 H 0.96492 0.25464 0.52932 0.0
H418 H 0.06101 0.26194 0.68618 0.0
H419 H 0.03359 0.25399 0.62416 0.0
C420 C 0.57451 0.11798 0.25839 0.0
C421 C 0.55951 0.137 0.25578 0.0
C422 C 0.60802 0.13232 0.26344 0.0
C423 C 0.68608 0.2073 0.25033 0.0
H424 H 0.71571 0.1692 0.32785 0.0
C425 C 0.82342 0.25831 0.2837 0.0
C426 C 0.83307 0.23514 0.29005 0.0
C427 C 0.79039 0.24893 0.28162 0.0
C428 C 0.70799 0.17999 0.30576 0.0
H429 H 0.5689 0.18655 0.25533 0.0
H430 H 0.62768 0.21159 0.26303 0.0
H431 H 0.65791 0.14797 0.31868 0.0
H432 H 0.81518 0.18387 0.2995 0.0
H433 H 0.75835 0.16768 0.29535 0.0
H434 H 0.73623 0.23877 0.23666 0.0
C435 C 0.61314 0.18542 0.26148 0.0
C436 C 0.67476 0.16783 0.30059 0.0
C437 C 0.57941 0.17101 0.25689 0.0
C438 C 0.80886 0.20252 0.29475 0.0
C439 C 0.77604 0.1932 0.29262 0.0
C440 C 0.71946 0.21934 0.25525 0.0
C441 C 0.62776 0.16619 0.2655 0.0
C442 C 0.66332 0.18094 0.27242 0.0
C443 C 0.76621 0.21616 0.2859 0.0
C444 C 0.73088 0.20546 0.28263 0.0
H445 H 0.56037 0.09181 0.25655 0.0
H446 H 0.61855 0.1168 0.26558 0.0
H447 H 0.67806 0.21787 0.22828 0.0
H448 H 0.84135 0.28364 0.27987 0.0
H449 H 0.78384 0.26739 0.27678 0.0
C450 C 0.58602 0.45718 0.28928 0.0
C451 C 0.61137 0.47039 0.26222 0.0
C452 C 0.56722 0.42358 0.29441 0.0
C453 C 0.54434 0.34485 0.2465 0.0
H454 H 0.51145 0.3102 0.34824 0.0
C455 C 0.46576 0.2062 0.27533 0.0
C456 C 0.43733 0.19705 0.29658 0.0
C457 C 0.49011 0.23894 0.273 0.0
C458 C 0.52036 0.31947 0.3196 0.0
H459 H 0.63711 0.45839 0.21981 0.0
H460 H 0.60468 0.39985 0.22908 0.0
H461 H 0.54756 0.36829 0.34014 0.0
H462 H 0.41302 0.21507 0.33346 0.0
H463 H 0.4553 0.2716 0.32974 0.0
H464 H 0.51695 0.29585 0.22608 0.0
C465 C 0.59883 0.41541 0.24585 0.0
C466 C 0.541 0.35288 0.31487 0.0
C467 C 0.61751 0.44905 0.24054 0.0
C468 C 0.43453 0.22117 0.31676 0.0
C469 C 0.45891 0.25368 0.31479 0.0
C470 C 0.52384 0.31137 0.25129 0.0
C471 C 0.57334 0.40214 0.27283 0.0
C472 C 0.5529 0.36619 0.27815 0.0
C473 C 0.48676 0.26314 0.29232 0.0
C474 C 0.51116 0.2983 0.2878 0.0
H475 H 0.58026 0.47283 0.30605 0.0
H476 H 0.54744 0.41442 0.31488 0.0
H477 H 0.55262 0.35407 0.21769 0.0
H478 H 0.46867 0.18829 0.25931 0.0
H479 H 0.51141 0.24537 0.25573 0.0
C480 C 0.85886 0.41565 0.2458 0.0
C481 C 0.88955 0.42437 0.26104 0.0
C482 C 0.84528 0.43556 0.25132 0.0
C483 C 0.85315 0.50397 0.31218 0.0
H484 H 0.80439 0.51457 0.22932 0.0
C485 C 0.8249 0.60868 0.30821 0.0
C486 C 0.79428 0.60219 0.29501 0.0
C487 C 0.83397 0.58493 0.30642 0.0
C488 C 0.81756 0.51155 0.25295 0.0
H489 H 0.93025 0.4613 0.29342 0.0
H490 H 0.90699 0.49619 0.30249 0.0
H491 H 0.82548 0.47766 0.22099 0.0
H492 H 0.74892 0.56519 0.27015 0.0
H493 H 0.76489 0.52369 0.26686 0.0
H494 H 0.84588 0.53852 0.3437 0.0
C495 C 0.8929 0.47356 0.2871 0.0
C496 C 0.82968 0.49032 0.24821 0.0
C497 C 0.90635 0.45356 0.28181 0.0
C498 C 0.77266 0.57103 0.28067 0.0
C499 C 0.7819 0.54731 0.2785 0.0
C500 C 0.84123 0.52534 0.31678 0.0
C501 C 0.86212 0.46485 0.27203 0.0
C502 C 0.84795 0.48644 0.27762 0.0
C503 C 0.81279 0.55408 0.29107 0.0
C504 C 0.82355 0.52966 0.28711 0.0
H505 H 0.84507 0.39314 0.23007 0.0
H506 H 0.82135 0.42771 0.23976 0.0
H507 H 0.86642 0.50116 0.33585 0.0
H508 H 0.84221 0.63236 0.31946 0.0
H509 H 0.85804 0.59112 0.316 0.0
C510 C 0.1385 0.57117 0.72607 0.0
C511 C 0.14998 0.55449 0.7488 0.0
C512 C 0.15152 0.6047 0.72997 0.0
C513 C 0.22184 0.67959 0.77118 0.0
H514 H 0.1628 0.71298 0.7619 0.0
C515 C 0.26538 0.81798 0.77292 0.0
C516 C 0.24466 0.82766 0.78962 0.0
C517 C 0.25528 0.78494 0.76847 0.0
C518 C 0.17967 0.70416 0.76506 0.0
H519 H 0.18514 0.56079 0.79287 0.0
H520 H 0.20681 0.61878 0.80076 0.0
H521 H 0.14257 0.65549 0.7534 0.0
H522 H 0.1977 0.81006 0.8165 0.0
H523 H 0.18068 0.75302 0.80993 0.0
H524 H 0.25871 0.7283 0.78429 0.0
C525 C 0.18805 0.60603 0.77937 0.0
C526 C 0.1681 0.67106 0.7595 0.0
C527 C 0.17521 0.57253 0.77523 0.0
C528 C 0.2142 0.80357 0.80308 0.0
C529 C 0.20428 0.7707 0.79899 0.0
C530 C 0.2334 0.71276 0.77702 0.0
C531 C 0.17624 0.62262 0.757 0.0
C532 C 0.18896 0.6582 0.76248 0.0
C533 C 0.22433 0.76081 0.78088 0.0
C534 C 0.21243 0.72552 0.77422 0.0
H535 H 0.1189 0.55828 0.7057 0.0
H536 H 0.14208 0.61653 0.71169 0.0
H537 H 0.23881 0.6708 0.77326 0.0
H538 H 0.28895 0.83588 0.76207 0.0
H539 H 0.27138 0.77838 0.75416 0.0
C540 C 0.4608 0.89607 0.73562 0.0
C541 C 0.43142 0.88361 0.75595 0.0
C542 C 0.48092 0.88269 0.74029 0.0
C543 C 0.48263 0.80978 0.7771 0.0
H544 H 0.57537 0.8688 0.77748 0.0
C545 C 0.57782 0.76648 0.77596 0.0
C546 C 0.6073 0.78582 0.79541 0.0
C547 C 0.5547 0.77649 0.77294 0.0
C548 C 0.54955 0.85189 0.77792 0.0
H549 H 0.40007 0.84651 0.79668 0.0
H550 H 0.43561 0.82393 0.80577 0.0
H551 H 0.53886 0.88997 0.76887 0.0
H552 H 0.63456 0.82977 0.82908 0.0
H553 H 0.5942 0.84654 0.82487 0.0
H554 H 0.49354 0.77178 0.78725 0.0
C555 C 0.44291 0.84382 0.78572 0.0
C556 C 0.52851 0.86405 0.77233 0.0
C557 C 0.42267 0.85713 0.78089 0.0
C558 C 0.61233 0.81443 0.81344 0.0
C559 C 0.58922 0.82424 0.81073 0.0
C560 C 0.50375 0.79758 0.78286 0.0
C561 C 0.47245 0.85655 0.76567 0.0
C562 C 0.49473 0.84322 0.77173 0.0
C563 C 0.56046 0.80595 0.78952 0.0
C564 C 0.53755 0.81851 0.78347 0.0
H565 H 0.46867 0.91663 0.71649 0.0
H566 H 0.50318 0.89289 0.72385 0.0
H567 H 0.45681 0.79289 0.77643 0.0
H568 H 0.57321 0.74437 0.76159 0.0
H569 H 0.53294 0.76178 0.75624 0.0
C570 C 0.23012 0.42364 0.80946 0.0
C571 C 0.20584 0.42843 0.79289 0.0
C572 C 0.26277 0.44765 0.80729 0.0
C573 C 0.31985 0.51697 0.74825 0.0
H574 H 0.37812 0.53391 0.83457 0.0
C575 C 0.45761 0.6115 0.73922 0.0
C576 C 0.4791 0.60387 0.75817 0.0
C577 C 0.424 0.59227 0.74438 0.0
C578 C 0.36233 0.52926 0.80996 0.0
H579 H 0.19705 0.46279 0.76168 0.0
H580 H 0.25432 0.50481 0.75772 0.0
H581 H 0.3202 0.49727 0.84274 0.0
H582 H 0.48185 0.56938 0.79658 0.0
H583 H 0.42359 0.53566 0.80504 0.0
H584 H 0.36204 0.54826 0.71513 0.0
C585 C 0.24792 0.48228 0.77232 0.0
C586 C 0.32901 0.5083 0.81474 0.0
C587 C 0.21507 0.4583 0.77487 0.0
C588 C 0.46608 0.57634 0.78207 0.0
C589 C 0.43255 0.55701 0.78702 0.0
C590 C 0.35326 0.53779 0.74335 0.0
C591 C 0.2722 0.4771 0.7882 0.0
C592 C 0.30735 0.50155 0.78385 0.0
C593 C 0.41095 0.56473 0.76844 0.0
C594 C 0.37508 0.54392 0.77402 0.0
H595 H 0.224 0.401 0.8236 0.0
H596 H 0.28076 0.44265 0.81952 0.0
H597 H 0.30393 0.51205 0.7237 0.0
H598 H 0.46681 0.63273 0.72092 0.0
H599 H 0.40829 0.59932 0.72994 0.0
C600 C 0.19272 0.18211 0.25914 0.0
C601 C 0.2057 0.18164 0.29554 0.0
C602 C 0.17389 0.19691 0.25422 0.0
C603 C 0.15395 0.255 0.30239 0.0
H604 H 0.07942 0.21665 0.2341 0.0
C605 C 0.04402 0.27352 0.31579 0.0
C606 C 0.02943 0.27666 0.28206 0.0
C607 C 0.0704 0.26844 0.31362 0.0
C608 C 0.10051 0.22799 0.25274 0.0
H609 H 0.20865 0.19651 0.35536 0.0
H610 H 0.17464 0.22061 0.34726 0.0
H611 H 0.11432 0.19289 0.23839 0.0
H612 H 0.03185 0.27861 0.21965 0.0
H613 H 0.07779 0.26886 0.2157 0.0
H614 H 0.13895 0.28905 0.31812 0.0
C615 C 0.17971 0.21035 0.32216 0.0
C616 C 0.12056 0.21437 0.25526 0.0
C617 C 0.19877 0.19587 0.32698 0.0
C618 C 0.04284 0.27649 0.24607 0.0
C619 C 0.06889 0.27065 0.24382 0.0
C620 C 0.13367 0.26833 0.30021 0.0
C621 C 0.16727 0.21142 0.28564 0.0
C622 C 0.14724 0.22731 0.28068 0.0
C623 C 0.08236 0.26575 0.27761 0.0
C624 C 0.10644 0.25466 0.27584 0.0
H625 H 0.19713 0.17108 0.23429 0.0
H626 H 0.16497 0.19739 0.2256 0.0
H627 H 0.17471 0.26623 0.32151 0.0
H628 H 0.03402 0.27344 0.3439 0.0
H629 H 0.08009 0.26455 0.34012 0.0
C630 C 0.0206 0.83794 0.3262 0.0
C631 C 0.99833 0.82984 0.29567 0.0
C632 C 0.05392 0.85677 0.31971 0.0
C633 C 0.1146 0.91382 0.24933 0.0
H634 H 0.17318 0.89919 0.31292 0.0
C635 C 0.25524 0.99368 0.24008 0.0
C636 C 0.26812 1.00845 0.27585 0.0
C637 C 0.22339 0.96745 0.23774 0.0
C638 C 0.1571 0.90335 0.29471 0.0
H639 H 0.99415 0.83582 0.23417 0.0
H640 H 0.05228 0.86765 0.22265 0.0
H641 H 0.11493 0.86231 0.31758 0.0
H642 H 0.2587 1.00654 0.33723 0.0
H643 H 0.20415 0.9601 0.33344 0.0
H644 H 0.15717 0.95507 0.22669 0.0
C645 C 0.0439 0.85983 0.25183 0.0
C646 C 0.12367 0.88246 0.29764 0.0
C647 C 1.01047 0.84121 0.25839 0.0
C648 C 0.2495 0.99542 0.30934 0.0
C649 C 0.21823 0.96884 0.30717 0.0
C650 C 0.14815 0.93449 0.24603 0.0
C651 C 0.06613 0.8678 0.2824 0.0
C652 C 0.10185 0.88796 0.2759 0.0
C653 C 0.20447 0.95512 0.27131 0.0
C654 C 0.16965 0.92997 0.26948 0.0
H655 H 1.0124 0.8293 0.3552 0.0
H656 H 0.07009 0.86287 0.34422 0.0
H657 H 0.09871 0.91909 0.23231 0.0
H658 H 0.26902 1.00353 0.21382 0.0
H659 H 0.21329 0.95726 0.20974 0.0
C660 C 0.8407 1.01057 0.32947 0.0
C661 C 0.85513 0.03211 0.29839 0.0
C662 C 0.82573 0.97703 0.324 0.0
C663 C 0.82137 0.91436 0.25625 0.0
H664 H 0.74622 0.85776 0.31802 0.0
C665 C 0.75913 0.77433 0.24559 0.0
C666 C 0.75701 0.75988 0.28163 0.0
C667 C 0.76564 0.8065 0.2435 0.0
C668 C 0.76712 0.87325 0.30046 0.0
H669 H 0.86523 0.03476 0.23702 0.0
H670 H 0.83829 0.9763 0.22727 0.0
H671 H 0.76934 0.91634 0.32221 0.0
H672 H 0.75789 0.76665 0.34351 0.0
H673 H 0.76804 0.82207 0.33995 0.0
H674 H 0.81909 0.87103 0.23476 0.0
C675 C 0.83896 0.9854 0.25609 0.0
C676 C 0.78058 0.90689 0.30305 0.0
C677 C 0.85414 0.01903 0.26162 0.0
C678 C 0.75918 0.77719 0.31537 0.0
C679 C 0.765 0.80894 0.3133 0.0
C680 C 0.80768 0.88066 0.2534 0.0
C681 C 0.82443 0.9639 0.2872 0.0
C682 C 0.80839 0.92798 0.28171 0.0
C683 C 0.76942 0.82438 0.27742 0.0
C684 C 0.78084 0.85975 0.27612 0.0
H685 H 0.84044 0.01953 0.35811 0.0
H686 H 0.8154 0.96142 0.34886 0.0
H687 H 0.84292 0.92969 0.23963 0.0
H688 H 0.75801 0.76164 0.21918 0.0
H689 H 0.76874 0.81772 0.21544 0.0
C690 C 0.19446 0.19372 0.77121 0.0
C691 C 0.18089 0.19499 0.80681 0.0
C692 C 0.20742 0.17323 0.76614 0.0
C693 C 0.20691 0.10149 0.81009 0.0
H694 H 0.28624 0.13031 0.75201 0.0
C695 C 0.27717 0.0349 0.82402 0.0
C696 C 0.28251 0.02281 0.78951 0.0
C697 C 0.2687 0.05898 0.82333 0.0
C698 C 0.26397 0.12194 0.76806 0.0
H699 H 0.16971 0.17484 0.86463 0.0
H700 H 0.19312 0.14025 0.85634 0.0
H701 H 0.2619 0.16506 0.75602 0.0
H702 H 0.28571 0.02823 0.72733 0.0
H703 H 0.27115 0.07109 0.72613 0.0
H704 H 0.20939 0.05888 0.82301 0.0
C705 C 0.19337 0.15464 0.83198 0.0
C706 C 0.2499 0.14172 0.77027 0.0
C707 C 0.18027 0.17489 0.83696 0.0
C708 C 0.28205 0.03736 0.75437 0.0
C709 C 0.27352 0.06169 0.75368 0.0
C710 C 0.22111 0.08204 0.80826 0.0
C711 C 0.2072 0.15351 0.79655 0.0
C712 C 0.22139 0.13192 0.79183 0.0
C713 C 0.26533 0.0716 0.78811 0.0
C714 C 0.25002 0.0922 0.78776 0.0
H715 H 0.19576 0.20911 0.74745 0.0
H716 H 0.21753 0.17281 0.73832 0.0
H717 H 0.1845 0.0926 0.826 0.0
H718 H 0.27755 0.02425 0.85155 0.0
H719 H 0.26317 0.06661 0.85034 0.0
C720 C 0.02774 0.84589 0.76599 0.0
C721 C 0.04096 0.84764 0.80294 0.0
C722 C 0.99419 0.83219 0.76091 0.0
C723 C 0.92129 0.81612 0.81482 0.0
H724 H 0.87299 0.75633 0.73207 0.0
C725 C 0.78417 0.75478 0.81454 0.0
C726 C 0.76887 0.75417 0.77967 0.0
C727 C 0.81611 0.76126 0.81496 0.0
C728 C 0.88619 0.77319 0.75513 0.0
H729 H 0.02874 0.83492 0.86319 0.0
H730 H 0.9707 0.8118 0.85444 0.0
H731 H 0.93176 0.77855 0.73706 0.0
H732 H 0.77418 0.75786 0.71758 0.0
H733 H 0.83081 0.77026 0.71816 0.0
H734 H 0.87645 0.81162 0.83267 0.0
C735 C 0.9863 0.82142 0.82945 0.0
C736 C 0.91983 0.78592 0.75798 0.0
C737 C 1.01968 0.83488 0.83449 0.0
C738 C 0.7854 0.75793 0.74482 0.0
C739 C 0.81784 0.76511 0.74524 0.0
C740 C 0.88794 0.80364 0.81188 0.0
C741 C 0.97313 0.82013 0.79269 0.0
C742 C 0.93766 0.80723 0.7882 0.0
C743 C 0.83398 0.76826 0.78054 0.0
C744 C 0.86976 0.78162 0.7824 0.0
H745 H 0.04334 0.85566 0.74104 0.0
H746 H 0.98482 0.83179 0.73228 0.0
H747 H 0.93438 0.83307 0.83787 0.0
H748 H 0.772 0.75199 0.84183 0.0
H749 H 0.82731 0.76237 0.84259 0.0
C750 C 0.99901 0.25137 0.74591 0.0
C751 C 1.01302 0.2654 0.78159 0.0
C752 C 0.9732 0.21932 0.74426 0.0
C753 C 0.90959 0.15272 0.8018 0.0
H754 H 0.92865 0.09606 0.74081 0.0
C755 C 0.84491 0.01547 0.8306 0.0
C756 C 0.83812 0.99392 0.79958 0.0
C757 C 0.8638 0.04897 0.82526 0.0
C758 C 0.92247 0.11143 0.75745 0.0
H759 H 1.00978 0.25816 0.84351 0.0
H760 H 0.96406 0.20292 0.84078 0.0
H761 H 0.96327 0.15467 0.73553 0.0
H762 H 0.84672 0.99124 0.73851 0.0
H763 H 0.8784 0.04956 0.72889 0.0
H764 H 0.86884 0.1098 0.82378 0.0
C765 C 0.97314 0.21628 0.81407 0.0
C766 C 0.94237 0.14508 0.75436 0.0
C767 C 0.99931 0.24788 0.81564 0.0
C768 C 0.85099 1.00695 0.76306 0.0
C769 C 0.86959 0.04053 0.75761 0.0
C770 C 0.88942 0.11912 0.8045 0.0
C771 C 0.96054 0.20126 0.77835 0.0
C772 C 0.93656 0.16603 0.77716 0.0
C773 C 0.87614 0.06205 0.78862 0.0
C774 C 0.89603 0.09793 0.78311 0.0
H775 H 1.00933 0.26433 0.71926 0.0
H776 H 0.9638 0.20832 0.71636 0.0
H777 H 0.90443 0.16834 0.8195 0.0
H778 H 0.83511 1.00659 0.85905 0.0
H779 H 0.8688 0.06458 0.8501 0.0
loop_
_geom_bond_atom_site_label_1
_geom_bond_atom_site_label_2
_geom_bond_distance
_geom_bond_site_symmetry_2
_ccdc_geom_bond_type
Ho0 C3 2.811 . S
Ho0 O20 2.322 . S
Ho0 O22 2.378 . S
Ho0 O23 2.524 . S
Ho0 O24 2.381 . S
Ho0 O25 2.669 . S
Ho0 O27 2.346 . S
Ho0 O31 2.305 . S
Ho1 C12 2.811 . S
Ho1 O21 2.346 . S
Ho1 O25 2.305 . S
Ho1 O26 2.322 . S
Ho1 O28 2.378 . S
Ho1 O29 2.524 . S
Ho1 O30 2.381 . S
Ho1 O31 2.669 . S
C2 O20 1.259 . S
C2 O21 1.268 . S
C3 Ho0 2.811 . S
C3 C4 1.488 . S
C3 O22 1.215 . S
C3 O23 1.289 . S
C4 C3 1.488 . S
C4 C5 1.348 . S
C4 C9 1.413 . S
C5 C4 1.348 . S
C5 C6 1.442 . S
C5 H32 0.930 . S
C6 C5 1.442 . S
C6 C7 1.381 . S
C6 H33 0.931 . S
C7 C6 1.381 . S
C7 C8 1.321 . S
C8 C7 1.321 . S
C8 C9 1.403 . S
C8 H34 0.934 . S
C9 C4 1.413 . S
C9 C8 1.403 . S
C9 H35 0.930 . S
C10 O24 1.275 . S
C10 O25 1.256 . S
C11 O26 1.259 . S
C11 O27 1.268 . S
C12 Ho1 2.811 . S
C12 C13 1.488 . S
C12 O28 1.215 . S
C12 O29 1.289 . S
C13 C12 1.488 . S
C13 C14 1.348 . S
C13 C18 1.413 . S
C14 C13 1.348 . S
C14 C15 1.442 . S
C14 H36 0.930 . S
C15 C14 1.442 . S
C15 C16 1.381 . S
C15 H37 0.931 . S
C16 C15 1.381 . S
C16 C17 1.321 . S
C17 C16 1.321 . S
C17 C18 1.403 . S
C17 H38 0.934 . S
C18 C13 1.413 . S
C18 C17 1.403 . S
C18 H39 0.930 . S
C19 O30 1.275 . S
C19 O31 1.256 . S
O20 Ho0 2.322 . S
O20 C2 1.259 . S
O21 Ho1 2.346 . S
O21 C2 1.268 . S
O22 Ho0 2.378 . S
O22 C3 1.215 . S
O23 Ho0 2.524 . S
O23 C3 1.289 . S
O24 Ho0 2.381 . S
O24 C10 1.275 . S
O25 Ho0 2.669 . S
O25 Ho1 2.305 . S
O25 C10 1.256 . S
O26 Ho1 2.322 . S
O26 C11 1.259 . S
O27 Ho0 2.346 . S
O27 C11 1.268 . S
O28 Ho1 2.378 . S
O28 C12 1.215 . S
O29 Ho1 2.524 . S
O29 C12 1.289 . S
O30 Ho1 2.381 . S
O30 C19 1.275 . S
O31 Ho0 2.305 . S
O31 Ho1 2.669 . S
O31 C19 1.256 . S
H32 C5 0.930 . S
H33 C6 0.931 . S
H34 C8 0.934 . S
H35 C9 0.930 . S
H36 C14 0.930 . S
H37 C15 0.931 . S
H38 C17 0.934 . S
H39 C18 0.930 . S
Ho40 C43 2.811 . S
Ho40 O60 2.322 . S
Ho40 O62 2.378 . S
Ho40 O63 2.524 . S
Ho40 O64 2.381 . S
Ho40 O65 2.669 . S
Ho40 O67 2.346 . S
Ho40 O71 2.305 . S
Ho41 C52 2.811 . S
Ho41 O61 2.346 . S
Ho41 O65 2.305 . S
Ho41 O66 2.322 . S
Ho41 O68 2.378 . S
Ho41 O69 2.524 . S
Ho41 O70 2.381 . S
Ho41 O71 2.669 . S
C42 O60 1.259 . S
C42 O61 1.268 . S
C43 Ho40 2.811 . S
C43 C44 1.488 . S
C43 O62 1.215 . S
C43 O63 1.289 . S
C44 C43 1.488 . S
C44 C45 1.348 . S
C44 C49 1.413 . S
C45 C44 1.348 . S
C45 C46 1.442 . S
C45 H72 0.930 . S
C46 C45 1.442 . S
C46 C47 1.381 . S
C46 H73 0.931 . S
C47 C46 1.381 . S
C47 C48 1.321 . S
C48 C47 1.321 . S
C48 C49 1.403 . S
C48 H74 0.934 . S
C49 C44 1.413 . S
C49 C48 1.403 . S
C49 H75 0.930 . S
C50 O64 1.275 . S
C50 O65 1.256 . S
C51 O66 1.259 . S
C51 O67 1.268 . S
C52 Ho41 2.811 . S
C52 C53 1.488 . S
C52 O68 1.215 . S
C52 O69 1.289 . S
C53 C52 1.488 . S
C53 C54 1.348 . S
C53 C58 1.413 . S
C54 C53 1.348 . S
C54 C55 1.442 . S
C54 H76 0.930 . S
C55 C54 1.442 . S
C55 C56 1.381 . S
C55 H77 0.931 . S
C56 C55 1.381 . S
C56 C57 1.321 . S
C57 C56 1.321 . S
C57 C58 1.403 . S
C57 H78 0.934 . S
C58 C53 1.413 . S
C58 C57 1.403 . S
C58 H79 0.930 . S
C59 O70 1.275 . S
C59 O71 1.256 . S
O60 Ho40 2.322 . S
O60 C42 1.259 . S
O61 Ho41 2.346 . S
O61 C42 1.268 . S
O62 Ho40 2.378 . S
O62 C43 1.215 . S
O63 Ho40 2.524 . S
O63 C43 1.289 . S
O64 Ho40 2.381 . S
O64 C50 1.275 . S
O65 Ho40 2.669 . S
O65 Ho41 2.305 . S
O65 C50 1.256 . S
O66 Ho41 2.322 . S
O66 C51 1.259 . S
O67 Ho40 2.346 . S
O67 C51 1.268 . S
O68 Ho41 2.378 . S
O68 C52 1.215 . S
O69 Ho41 2.524 . S
O69 C52 1.289 . S
O70 Ho41 2.381 . S
O70 C59 1.275 . S
O71 Ho40 2.305 . S
O71 Ho41 2.669 . S
O71 C59 1.256 . S
H72 C45 0.930 . S
H73 C46 0.931 . S
H74 C48 0.934 . S
H75 C49 0.930 . S
H76 C54 0.930 . S
H77 C55 0.931 . S
H78 C57 0.934 . S
H79 C58 0.930 . S
Ho80 C83 2.811 . S
Ho80 O100 2.322 . S
Ho80 O102 2.378 . S
Ho80 O103 2.524 . S
Ho80 O104 2.381 . S
Ho80 O105 2.669 . S
Ho80 O107 2.346 . S
Ho80 O111 2.305 . S
Ho81 C92 2.811 . S
Ho81 O101 2.346 . S
Ho81 O105 2.305 . S
Ho81 O106 2.322 . S
Ho81 O108 2.378 . S
Ho81 O109 2.524 . S
Ho81 O110 2.381 . S
Ho81 O111 2.669 . S
C82 O100 1.259 . S
C82 O101 1.268 . S
C83 Ho80 2.811 . S
C83 C84 1.488 . S
C83 O102 1.215 . S
C83 O103 1.289 . S
C84 C83 1.488 . S
C84 C85 1.348 . S
C84 C89 1.413 . S
C85 C84 1.348 . S
C85 C86 1.442 . S
C85 H112 0.930 . S
C86 C85 1.442 . S
C86 C87 1.381 . S
C86 H113 0.931 . S
C87 C86 1.381 . S
C87 C88 1.321 . S
C88 C87 1.321 . S
C88 C89 1.403 . S
C88 H114 0.934 . S
C89 C84 1.413 . S
C89 C88 1.403 . S
C89 H115 0.930 . S
C90 O104 1.275 . S
C90 O105 1.256 . S
C91 O106 1.259 . S
C91 O107 1.268 . S
C92 Ho81 2.811 . S
C92 C93 1.488 . S
C92 O108 1.215 . S
C92 O109 1.289 . S
C93 C92 1.488 . S
C93 C94 1.348 . S
C93 C98 1.413 . S
C94 C93 1.348 . S
C94 C95 1.442 . S
C94 H116 0.930 . S
C95 C94 1.442 . S
C95 C96 1.381 . S
C95 H117 0.931 . S
C96 C95 1.381 . S
C96 C97 1.321 . S
C97 C96 1.321 . S
C97 C98 1.403 . S
C97 H118 0.934 . S
C98 C93 1.413 . S
C98 C97 1.403 . S
C98 H119 0.930 . S
C99 O110 1.275 . S
C99 O111 1.256 . S
O100 Ho80 2.322 . S
O100 C82 1.259 . S
O101 Ho81 2.346 . S
O101 C82 1.268 . S
O102 Ho80 2.378 . S
O102 C83 1.215 . S
O103 Ho80 2.524 . S
O103 C83 1.289 . S
O104 Ho80 2.381 . S
O104 C90 1.275 . S
O105 Ho80 2.669 . S
O105 Ho81 2.305 . S
O105 C90 1.256 . S
O106 Ho81 2.322 . S
O106 C91 1.259 . S
O107 Ho80 2.346 . S
O107 C91 1.268 . S
O108 Ho81 2.378 . S
O108 C92 1.215 . S
O109 Ho81 2.524 . S
O109 C92 1.289 . S
O110 Ho81 2.381 . S
O110 C99 1.275 . S
O111 Ho80 2.305 . S
O111 Ho81 2.669 . S
O111 C99 1.256 . S
H112 C85 0.930 . S
H113 C86 0.931 . S
H114 C88 0.934 . S
H115 C89 0.930 . S
H116 C94 0.930 . S
H117 C95 0.931 . S
H118 C97 0.934 . S
H119 C98 0.930 . S
Ho120 C123 2.811 . S
Ho120 O140 2.322 . S
Ho120 O142 2.378 . S
Ho120 O143 2.524 . S
Ho120 O144 2.381 . S
Ho120 O145 2.669 . S
Ho120 O147 2.346 . S
Ho120 O151 2.305 . S
Ho121 C132 2.811 . S
Ho121 O141 2.346 . S
Ho121 O145 2.305 . S
Ho121 O146 2.322 . S
Ho121 O148 2.378 . S
Ho121 O149 2.524 . S
Ho121 O150 2.381 . S
Ho121 O151 2.669 . S
C122 O140 1.259 . S
C122 O141 1.268 . S
C123 Ho120 2.811 . S
C123 C124 1.488 . S
C123 O142 1.215 . S
C123 O143 1.289 . S
C124 C123 1.488 . S
C124 C125 1.348 . S
C124 C129 1.413 . S
C125 C124 1.348 . S
C125 C126 1.442 . S
C125 H152 0.930 . S
C126 C125 1.442 . S
C126 C127 1.381 . S
C126 H153 0.931 . S
C127 C126 1.381 . S
C127 C128 1.321 . S
C128 C127 1.321 . S
C128 C129 1.403 . S
C128 H154 0.934 . S
C129 C124 1.413 . S
C129 C128 1.403 . S
C129 H155 0.930 . S
C130 O144 1.275 . S
C130 O145 1.256 . S
C131 O146 1.259 . S
C131 O147 1.268 . S
C132 Ho121 2.811 . S
C132 C133 1.488 . S
C132 O148 1.215 . S
C132 O149 1.289 . S
C133 C132 1.488 . S
C133 C134 1.348 . S
C133 C138 1.413 . S
C134 C133 1.348 . S
C134 C135 1.442 . S
C134 H156 0.930 . S
C135 C134 1.442 . S
C135 C136 1.381 . S
C135 H157 0.931 . S
C136 C135 1.381 . S
C136 C137 1.321 . S
C137 C136 1.321 . S
C137 C138 1.403 . S
C137 H158 0.934 . S
C138 C133 1.413 . S
C138 C137 1.403 . S
C138 H159 0.930 . S
C139 O150 1.275 . S
C139 O151 1.256 . S
O140 Ho120 2.322 . S
O140 C122 1.259 . S
O141 Ho121 2.346 . S
O141 C122 1.268 . S
O142 Ho120 2.378 . S
O142 C123 1.215 . S
O143 Ho120 2.524 . S
O143 C123 1.289 . S
O144 Ho120 2.381 . S
O144 C130 1.275 . S
O145 Ho120 2.669 . S
O145 Ho121 2.305 . S
O145 C130 1.256 . S
O146 Ho121 2.322 . S
O146 C131 1.259 . S
O147 Ho120 2.346 . S
O147 C131 1.268 . S
O148 Ho121 2.378 . S
O148 C132 1.215 . S
O149 Ho121 2.524 . S
O149 C132 1.289 . S
O150 Ho121 2.381 . S
O150 C139 1.275 . S
O151 Ho120 2.305 . S
O151 Ho121 2.669 . S
O151 C139 1.256 . S
H152 C125 0.930 . S
H153 C126 0.931 . S
H154 C128 0.934 . S
H155 C129 0.930 . S
H156 C134 0.930 . S
H157 C135 0.931 . S
H158 C137 0.934 . S
H159 C138 0.930 . S
Ho160 C163 2.811 . S
Ho160 O180 2.322 . S
Ho160 O182 2.378 . S
Ho160 O183 2.524 . S
Ho160 O184 2.381 . S
Ho160 O185 2.669 . S
Ho160 O187 2.346 . S
Ho160 O191 2.305 . S
Ho161 C172 2.811 . S
Ho161 O181 2.346 . S
Ho161 O185 2.305 . S
Ho161 O186 2.322 . S
Ho161 O188 2.378 . S
Ho161 O189 2.524 . S
Ho161 O190 2.381 . S
Ho161 O191 2.669 . S
C162 O180 1.259 . S
C162 O181 1.268 . S
C163 Ho160 2.811 . S
C163 C164 1.488 . S
C163 O182 1.215 . S
C163 O183 1.289 . S
C164 C163 1.488 . S
C164 C165 1.348 . S
C164 C169 1.413 . S
C165 C164 1.348 . S
C165 C166 1.442 . S
C165 H192 0.930 . S
C166 C165 1.442 . S
C166 C167 1.381 . S
C166 H193 0.931 . S
C167 C166 1.381 . S
C167 C168 1.321 . S
C168 C167 1.321 . S
C168 C169 1.403 . S
C168 H194 0.934 . S
C169 C164 1.413 . S
C169 C168 1.403 . S
C169 H195 0.930 . S
C170 O184 1.275 . S
C170 O185 1.256 . S
C171 O186 1.259 . S
C171 O187 1.268 . S
C172 Ho161 2.811 . S
C172 C173 1.488 . S
C172 O188 1.215 . S
C172 O189 1.289 . S
C173 C172 1.488 . S
C173 C174 1.348 . S
C173 C178 1.413 . S
C174 C173 1.348 . S
C174 C175 1.442 . S
C174 H196 0.930 . S
C175 C174 1.442 . S
C175 C176 1.381 . S
C175 H197 0.931 . S
C176 C175 1.381 . S
C176 C177 1.321 . S
C177 C176 1.321 . S
C177 C178 1.403 . S
C177 H198 0.934 . S
C178 C173 1.413 . S
C178 C177 1.403 . S
C178 H199 0.930 . S
C179 O190 1.275 . S
C179 O191 1.256 . S
O180 Ho160 2.322 . S
O180 C162 1.259 . S
O181 Ho161 2.346 . S
O181 C162 1.268 . S
O182 Ho160 2.378 . S
O182 C163 1.215 . S
O183 Ho160 2.524 . S
O183 C163 1.289 . S
O184 Ho160 2.381 . S
O184 C170 1.275 . S
O185 Ho160 2.669 . S
O185 Ho161 2.305 . S
O185 C170 1.256 . S
O186 Ho161 2.322 . S
O186 C171 1.259 . S
O187 Ho160 2.346 . S
O187 C171 1.268 . S
O188 Ho161 2.378 . S
O188 C172 1.215 . S
O189 Ho161 2.524 . S
O189 C172 1.289 . S
O190 Ho161 2.381 . S
O190 C179 1.275 . S
O191 Ho160 2.305 . S
O191 Ho161 2.669 . S
O191 C179 1.256 . S
H192 C165 0.930 . S
H193 C166 0.931 . S
H194 C168 0.934 . S
H195 C169 0.930 . S
H196 C174 0.930 . S
H197 C175 0.931 . S
H198 C177 0.934 . S
H199 C178 0.930 . S
Ho200 C203 2.811 . S
Ho200 O220 2.322 . S
Ho200 O222 2.378 . S
Ho200 O223 2.524 . S
Ho200 O224 2.381 . S
Ho200 O225 2.669 . S
Ho200 O227 2.346 . S
Ho200 O231 2.305 . S
Ho201 C212 2.811 . S
Ho201 O221 2.346 . S
Ho201 O225 2.305 . S
Ho201 O226 2.322 . S
Ho201 O228 2.378 . S
Ho201 O229 2.524 . S
Ho201 O230 2.381 . S
Ho201 O231 2.669 . S
C202 O220 1.259 . S
C202 O221 1.268 . S
C203 Ho200 2.811 . S
C203 C204 1.488 . S
C203 O222 1.215 . S
C203 O223 1.289 . S
C204 C203 1.488 . S
C204 C205 1.348 . S
C204 C209 1.413 . S
C205 C204 1.348 . S
C205 C206 1.442 . S
C205 H232 0.930 . S
C206 C205 1.442 . S
C206 C207 1.381 . S
C206 H233 0.931 . S
C207 C206 1.381 . S
C207 C208 1.321 . S
C208 C207 1.321 . S
C208 C209 1.403 . S
C208 H234 0.934 . S
C209 C204 1.413 . S
C209 C208 1.403 . S
C209 H235 0.930 . S
C210 O224 1.275 . S
C210 O225 1.256 . S
C211 O226 1.259 . S
C211 O227 1.268 . S
C212 Ho201 2.811 . S
C212 C213 1.488 . S
C212 O228 1.215 . S
C212 O229 1.289 . S
C213 C212 1.488 . S
C213 C214 1.348 . S
C213 C218 1.413 . S
C214 C213 1.348 . S
C214 C215 1.442 . S
C214 H236 0.930 . S
C215 C214 1.442 . S
C215 C216 1.381 . S
C215 H237 0.931 . S
C216 C215 1.381 . S
C216 C217 1.321 . S
C217 C216 1.321 . S
C217 C218 1.403 . S
C217 H238 0.934 . S
C218 C213 1.413 . S
C218 C217 1.403 . S
C218 H239 0.930 . S
C219 O230 1.275 . S
C219 O231 1.256 . S
O220 Ho200 2.322 . S
O220 C202 1.259 . S
O221 Ho201 2.346 . S
O221 C202 1.268 . S
O222 Ho200 2.378 . S
O222 C203 1.215 . S
O223 Ho200 2.524 . S
O223 C203 1.289 . S
O224 Ho200 2.381 . S
O224 C210 1.275 . S
O225 Ho200 2.669 . S
O225 Ho201 2.305 . S
O225 C210 1.256 . S
O226 Ho201 2.322 . S
O226 C211 1.259 . S
O227 Ho200 2.346 . S
O227 C211 1.268 . S
O228 Ho201 2.378 . S
O228 C212 1.215 . S
O229 Ho201 2.524 . S
O229 C212 1.289 . S
O230 Ho201 2.381 . S
O230 C219 1.275 . S
O231 Ho200 2.305 . S
O231 Ho201 2.669 . S
O231 C219 1.256 . S
H232 C205 0.930 . S
H233 C206 0.931 . S
H234 C208 0.934 . S
H235 C209 0.930 . S
H236 C214 0.930 . S
H237 C215 0.931 . S
H238 C217 0.934 . S
H239 C218 0.930 . S
C240 C241 1.349 . S
C240 C242 1.327 . S
C240 H265 0.950 . S
C241 C240 1.349 . S
C241 C257 1.349 . S
C242 C240 1.327 . S
C242 C261 1.429 . S
C242 H266 0.950 . S
C243 C260 1.574 1_556 S
C243 C262 1.368 1_545 S
C243 H267 0.949 . S
H244 C248 0.949 . S
C245 C246 1.349 . S
C245 C247 1.327 . S
C245 H268 0.950 . S
C246 C245 1.349 . S
C246 C258 1.349 . S
C247 C245 1.327 . S
C247 C263 1.429 . S
C247 H269 0.950 . S
C248 H244 0.949 . S
C248 C256 1.574 1_554 S
C248 C264 1.368 1_565 S
H249 C257 0.950 . S
H250 C255 0.950 . S
H251 C256 0.949 . S
H252 C258 0.950 . S
H253 C259 0.950 . S
H254 C260 0.949 . S
C255 H250 0.950 . S
C255 C257 1.327 . S
C255 C261 1.429 . S
C256 C248 1.574 1_556 S
C256 H251 0.949 . S
C256 C262 1.368 . S
C257 C241 1.349 . S
C257 H249 0.950 . S
C257 C255 1.327 . S
C258 C246 1.349 . S
C258 H252 0.950 . S
C258 C259 1.327 . S
C259 H253 0.950 . S
C259 C258 1.327 . S
C259 C263 1.429 . S
C260 C243 1.574 1_554 S
C260 H254 0.949 . S
C260 C264 1.368 . S
C261 C242 1.429 . S
C261 C255 1.429 . S
C261 C262 1.523 . S
C262 C243 1.368 1_565 S
C262 C256 1.368 . S
C262 C261 1.523 . S
C263 C247 1.429 . S
C263 C259 1.429 . S
C263 C264 1.523 . S
C264 C248 1.368 1_545 S
C264 C260 1.368 . S
C264 C263 1.523 . S
H265 C240 0.950 . S
H266 C242 0.950 . S
H267 C243 0.949 . S
H268 C245 0.950 . S
H269 C247 0.950 . S
C270 C271 1.349 . S
C270 C272 1.327 . S
C270 H295 0.950 . S
C271 C270 1.349 . S
C271 C287 1.349 . S
C272 C270 1.327 . S
C272 C291 1.429 . S
C272 H296 0.950 . S
C273 C290 1.574 . S
C273 C292 1.368 . S
C273 H297 0.949 . S
H274 C278 0.949 . S
C275 C276 1.349 . S
C275 C277 1.327 . S
C275 H298 0.950 . S
C276 C275 1.349 . S
C276 C288 1.349 . S
C277 C275 1.327 . S
C277 C293 1.429 . S
C277 H299 0.950 . S
C278 H274 0.949 . S
C278 C286 1.574 . S
C278 C294 1.368 . S
H279 C287 0.950 . S
H280 C285 0.950 . S
H281 C286 0.949 . S
H282 C288 0.950 . S
H283 C289 0.950 . S
H284 C290 0.949 . S
C285 H280 0.950 . S
C285 C287 1.327 . S
C285 C291 1.429 . S
C286 C278 1.574 . S
C286 H281 0.949 . S
C286 C292 1.368 . S
C287 C271 1.349 . S
C287 H279 0.950 . S
C287 C285 1.327 . S
C288 C276 1.349 . S
C288 H282 0.950 . S
C288 C289 1.327 . S
C289 H283 0.950 . S
C289 C288 1.327 . S
C289 C293 1.429 . S
C290 C273 1.574 . S
C290 H284 0.949 . S
C290 C294 1.368 . S
C291 C272 1.429 . S
C291 C285 1.429 . S
C291 C292 1.523 . S
C292 C273 1.368 . S
C292 C286 1.368 . S
C292 C291 1.523 . S
C293 C277 1.429 . S
C293 C289 1.429 . S
C293 C294 1.523 . S
C294 C278 1.368 . S
C294 C290 1.368 . S
C294 C293 1.523 . S
H295 C270 0.950 . S
H296 C272 0.950 . S
H297 C273 0.949 . S
H298 C275 0.950 . S
H299 C277 0.950 . S
C300 C301 1.349 . S
C300 C302 1.327 . S
C300 H325 0.950 . S
C301 C300 1.349 . S
C301 C317 1.349 . S
C302 C300 1.327 . S
C302 C321 1.429 . S
C302 H326 0.950 . S
C303 C320 1.574 1_554 S
C303 C322 1.368 . S
C303 H327 0.949 . S
H304 C308 0.949 . S
C305 C306 1.349 . S
C305 C307 1.327 . S
C305 H328 0.950 . S
C306 C305 1.349 . S
C306 C318 1.349 . S
C307 C305 1.327 . S
C307 C323 1.429 . S
C307 H329 0.950 . S
C308 H304 0.949 . S
C308 C316 1.574 1_556 S
C308 C324 1.368 . S
H309 C317 0.950 . S
H310 C315 0.950 . S
H311 C316 0.949 . S
H312 C318 0.950 . S
H313 C319 0.950 . S
H314 C320 0.949 . S
C315 H310 0.950 . S
C315 C317 1.327 . S
C315 C321 1.429 . S
C316 C308 1.574 1_554 S
C316 H311 0.949 . S
C316 C322 1.368 1_455 S
C317 C301 1.349 . S
C317 H309 0.950 . S
C317 C315 1.327 . S
C318 C306 1.349 . S
C318 H312 0.950 . S
C318 C319 1.327 . S
C319 H313 0.950 . S
C319 C318 1.327 . S
C319 C323 1.429 . S
C320 C303 1.574 1_556 S
C320 H314 0.949 . S
C320 C324 1.368 1_655 S
C321 C302 1.429 . S
C321 C315 1.429 . S
C321 C322 1.523 . S
C322 C303 1.368 . S
C322 C316 1.368 1_655 S
C322 C321 1.523 . S
C323 C307 1.429 . S
C323 C319 1.429 . S
C323 C324 1.523 . S
C324 C308 1.368 . S
C324 C320 1.368 1_455 S
C324 C323 1.523 . S
H325 C300 0.950 . S
H326 C302 0.950 . S
H327 C303 0.949 . S
H328 C305 0.950 . S
H329 C307 0.950 . S
C330 C331 1.349 . S
C330 C332 1.327 . S
C330 H355 0.950 . S
C331 C330 1.349 . S
C331 C347 1.349 . S
C332 C330 1.327 . S
C332 C351 1.429 . S
C332 H356 0.950 . S
C333 C350 1.574 . S
C333 C352 1.368 1_565 S
C333 H357 0.949 . S
H334 C338 0.949 . S
C335 C336 1.349 . S
C335 C337 1.327 . S
C335 H358 0.950 . S
C336 C335 1.349 . S
C336 C348 1.349 . S
C337 C335 1.327 . S
C337 C353 1.429 . S
C337 H359 0.950 . S
C338 H334 0.949 . S
C338 C346 1.574 . S
C338 C354 1.368 1_545 S
H339 C347 0.950 . S
H340 C345 0.950 . S
H341 C346 0.949 . S
H342 C348 0.950 . S
H343 C349 0.950 . S
H344 C350 0.949 . S
C345 H340 0.950 . S
C345 C347 1.327 . S
C345 C351 1.429 . S
C346 C338 1.574 . S
C346 H341 0.949 . S
C346 C352 1.368 . S
C347 C331 1.349 . S
C347 H339 0.950 . S
C347 C345 1.327 . S
C348 C336 1.349 . S
C348 H342 0.950 . S
C348 C349 1.327 . S
C349 H343 0.950 . S
C349 C348 1.327 . S
C349 C353 1.429 . S
C350 C333 1.574 . S
C350 H344 0.949 . S
C350 C354 1.368 . S
C351 C332 1.429 . S
C351 C345 1.429 . S
C351 C352 1.523 . S
C352 C333 1.368 1_545 S
C352 C346 1.368 . S
C352 C351 1.523 . S
C353 C337 1.429 . S
C353 C349 1.429 . S
C353 C354 1.523 . S
C354 C338 1.368 1_565 S
C354 C350 1.368 . S
C354 C353 1.523 . S
H355 C330 0.950 . S
H356 C332 0.950 . S
H357 C333 0.949 . S
H358 C335 0.950 . S
H359 C337 0.950 . S
C360 C361 1.349 . S
C360 C362 1.327 . S
C360 H385 0.950 . S
C361 C360 1.349 . S
C361 C377 1.349 . S
C362 C360 1.327 . S
C362 C381 1.429 . S
C362 H386 0.950 . S
C363 C380 1.574 . S
C363 C382 1.368 . S
C363 H387 0.949 . S
H364 C368 0.949 . S
C365 C366 1.349 . S
C365 C367 1.327 . S
C365 H388 0.950 . S
C366 C365 1.349 . S
C366 C378 1.349 . S
C367 C365 1.327 . S
C367 C383 1.429 . S
C367 H389 0.950 . S
C368 H364 0.949 . S
C368 C376 1.574 . S
C368 C384 1.368 . S
H369 C377 0.950 . S
H370 C375 0.950 . S
H371 C376 0.950 . S
H372 C378 0.950 . S
H373 C379 0.950 . S
H374 C380 0.950 . S
C375 H370 0.950 . S
C375 C377 1.327 . S
C375 C381 1.429 . S
C376 C368 1.574 . S
C376 H371 0.950 . S
C376 C382 1.368 1_554 S
C377 C361 1.349 . S
C377 H369 0.950 . S
C377 C375 1.327 . S
C378 C366 1.349 . S
C378 H372 0.950 . S
C378 C379 1.327 . S
C379 H373 0.950 . S
C379 C378 1.327 . S
C379 C383 1.429 . S
C380 C363 1.574 . S
C380 H374 0.950 . S
C380 C384 1.368 1_556 S
C381 C362 1.429 . S
C381 C375 1.429 . S
C381 C382 1.523 . S
C382 C363 1.368 . S
C382 C376 1.368 1_556 S
C382 C381 1.523 . S
C383 C367 1.429 . S
C383 C379 1.429 . S
C383 C384 1.523 . S
C384 C368 1.368 . S
C384 C380 1.368 1_554 S
C384 C383 1.523 . S
H385 C360 0.950 . S
H386 C362 0.950 . S
H387 C363 0.949 . S
H388 C365 0.950 . S
H389 C367 0.950 . S
C390 C391 1.349 . S
C390 C392 1.327 . S
C390 H415 0.950 . S
C391 C390 1.349 . S
C391 C407 1.349 . S
C392 C390 1.327 . S
C392 C411 1.429 . S
C392 H416 0.950 . S
C393 C410 1.574 1_655 S
C393 C412 1.368 . S
C393 H417 0.949 . S
H394 C398 0.949 . S
C395 C396 1.349 . S
C395 C397 1.327 . S
C395 H418 0.950 . S
C396 C395 1.349 . S
C396 C408 1.349 . S
C397 C395 1.327 . S
C397 C413 1.429 . S
C397 H419 0.950 . S
C398 H394 0.949 . S
C398 C406 1.574 1_455 S
C398 C414 1.368 . S
H399 C407 0.950 . S
H400 C405 0.950 . S
H401 C406 0.949 . S
H402 C408 0.950 . S
H403 C409 0.950 . S
H404 C410 0.949 . S
C405 H400 0.950 . S
C405 C407 1.327 . S
C405 C411 1.429 . S
C406 C398 1.574 1_655 S
C406 H401 0.949 . S
C406 C412 1.368 . S
C407 C391 1.349 . S
C407 H399 0.950 . S
C407 C405 1.327 . S
C408 C396 1.349 . S
C408 H402 0.950 . S
C408 C409 1.327 . S
C409 H403 0.950 . S
C409 C408 1.327 . S
C409 C413 1.429 . S
C410 C393 1.574 1_455 S
C410 H404 0.949 . S
C410 C414 1.368 . S
C411 C392 1.429 . S
C411 C405 1.429 . S
C411 C412 1.523 . S
C412 C393 1.368 . S
C412 C406 1.368 . S
C412 C411 1.523 . S
C413 C397 1.429 . S
C413 C409 1.429 . S
C413 C414 1.523 . S
C414 C398 1.368 . S
C414 C410 1.368 . S
C414 C413 1.523 . S
H415 C390 0.950 . S
H416 C392 0.950 . S
H417 C393 0.949 . S
H418 C395 0.950 . S
H419 C397 0.950 . S
C420 C421 1.349 . S
C420 C422 1.327 . S
C420 H445 0.950 . S
C421 C420 1.349 . S
C421 C437 1.349 . S
C422 C420 1.327 . S
C422 C441 1.429 . S
C422 H446 0.950 . S
C423 C440 1.574 . S
C423 C442 1.368 . S
C423 H447 0.949 . S
H424 C428 0.949 . S
C425 C426 1.349 . S
C425 C427 1.327 . S
C425 H448 0.950 . S
C426 C425 1.349 . S
C426 C438 1.349 . S
C427 C425 1.327 . S
C427 C443 1.429 . S
C427 H449 0.950 . S
C428 H424 0.949 . S
C428 C436 1.574 . S
C428 C444 1.368 . S
H429 C437 0.950 . S
H430 C435 0.950 . S
H431 C436 0.949 . S
H432 C438 0.950 . S
H433 C439 0.950 . S
H434 C440 0.949 . S
C435 H430 0.950 . S
C435 C437 1.327 . S
C435 C441 1.429 . S
C436 C428 1.574 . S
C436 H431 0.949 . S
C436 C442 1.368 . S
C437 C421 1.349 . S
C437 H429 0.950 . S
C437 C435 1.327 . S
C438 C426 1.349 . S
C438 H432 0.950 . S
C438 C439 1.327 . S
C439 H433 0.950 . S
C439 C438 1.327 . S
C439 C443 1.429 . S
C440 C423 1.574 . S
C440 H434 0.949 . S
C440 C444 1.368 . S
C441 C422 1.429 . S
C441 C435 1.429 . S
C441 C442 1.523 . S
C442 C423 1.368 . S
C442 C436 1.368 . S
C442 C441 1.523 . S
C443 C427 1.429 . S
C443 C439 1.429 . S
C443 C444 1.523 . S
C444 C428 1.368 . S
C444 C440 1.368 . S
C444 C443 1.523 . S
H445 C420 0.950 . S
H446 C422 0.950 . S
H447 C423 0.949 . S
H448 C425 0.950 . S
H449 C427 0.950 . S
C450 C451 1.349 . S
C450 C452 1.327 . S
C450 H475 0.950 . S
C451 C450 1.349 . S
C451 C467 1.349 . S
C452 C450 1.327 . S
C452 C471 1.429 . S
C452 H476 0.950 . S
C453 C470 1.574 . S
C453 C472 1.368 . S
C453 H477 0.949 . S
H454 C458 0.949 . S
C455 C456 1.349 . S
C455 C457 1.327 . S
C455 H478 0.950 . S
C456 C455 1.349 . S
C456 C468 1.349 . S
C457 C455 1.327 . S
C457 C473 1.429 . S
C457 H479 0.950 . S
C458 H454 0.949 . S
C458 C466 1.574 . S
C458 C474 1.368 . S
H459 C467 0.950 . S
H460 C465 0.950 . S
H461 C466 0.949 . S
H462 C468 0.950 . S
H463 C469 0.950 . S
H464 C470 0.949 . S
C465 H460 0.950 . S
C465 C467 1.327 . S
C465 C471 1.429 . S
C466 C458 1.574 . S
C466 H461 0.949 . S
C466 C472 1.368 . S
C467 C451 1.349 . S
C467 H459 0.950 . S
C467 C465 1.327 . S
C468 C456 1.349 . S
C468 H462 0.950 . S
C468 C469 1.327 . S
C469 H463 0.950 . S
C469 C468 1.327 . S
C469 C473 1.429 . S
C470 C453 1.574 . S
C470 H464 0.949 . S
C470 C474 1.368 . S
C471 C452 1.429 . S
C471 C465 1.429 . S
C471 C472 1.523 . S
C472 C453 1.368 . S
C472 C466 1.368 . S
C472 C471 1.523 . S
C473 C457 1.429 . S
C473 C469 1.429 . S
C473 C474 1.523 . S
C474 C458 1.368 . S
C474 C470 1.368 . S
C474 C473 1.523 . S
H475 C450 0.950 . S
H476 C452 0.950 . S
H477 C453 0.949 . S
H478 C455 0.950 . S
H479 C457 0.950 . S
C480 C481 1.349 . S
C480 C482 1.327 . S
C480 H505 0.950 . S
C481 C480 1.349 . S
C481 C497 1.349 . S
C482 C480 1.327 . S
C482 C501 1.429 . S
C482 H506 0.950 . S
C483 C500 1.574 . S
C483 C502 1.368 . S
C483 H507 0.949 . S
H484 C488 0.949 . S
C485 C486 1.349 . S
C485 C487 1.327 . S
C485 H508 0.950 . S
C486 C485 1.349 . S
C486 C498 1.349 . S
C487 C485 1.327 . S
C487 C503 1.429 . S
C487 H509 0.950 . S
C488 H484 0.949 . S
C488 C496 1.574 . S
C488 C504 1.368 . S
H489 C497 0.950 . S
H490 C495 0.950 . S
H491 C496 0.949 . S
H492 C498 0.950 . S
H493 C499 0.950 . S
H494 C500 0.949 . S
C495 H490 0.950 . S
C495 C497 1.327 . S
C495 C501 1.429 . S
C496 C488 1.574 . S
C496 H491 0.949 . S
C496 C502 1.368 . S
C497 C481 1.349 . S
C497 H489 0.950 . S
C497 C495 1.327 . S
C498 C486 1.349 . S
C498 H492 0.950 . S
C498 C499 1.327 . S
C499 H493 0.950 . S
C499 C498 1.327 . S
C499 C503 1.429 . S
C500 C483 1.574 . S
C500 H494 0.949 . S
C500 C504 1.368 . S
C501 C482 1.429 . S
C501 C495 1.429 . S
C501 C502 1.523 . S
C502 C483 1.368 . S
C502 C496 1.368 . S
C502 C501 1.523 . S
C503 C487 1.429 . S
C503 C499 1.429 . S
C503 C504 1.523 . S
C504 C488 1.368 . S
C504 C500 1.368 . S
C504 C503 1.523 . S
H505 C480 0.950 . S
H506 C482 0.950 . S
H507 C483 0.949 . S
H508 C485 0.950 . S
H509 C487 0.950 . S
C510 C511 1.349 . S
C510 C512 1.327 . S
C510 H535 0.950 . S
C511 C510 1.349 . S
C511 C527 1.349 . S
C512 C510 1.327 . S
C512 C531 1.429 . S
C512 H536 0.950 . S
C513 C530 1.574 . S
C513 C532 1.368 . S
C513 H537 0.949 . S
H514 C518 0.949 . S
C515 C516 1.349 . S
C515 C517 1.327 . S
C515 H538 0.950 . S
C516 C515 1.349 . S
C516 C528 1.349 . S
C517 C515 1.327 . S
C517 C533 1.429 . S
C517 H539 0.950 . S
C518 H514 0.949 . S
C518 C526 1.574 . S
C518 C534 1.368 . S
H519 C527 0.950 . S
H520 C525 0.950 . S
H521 C526 0.949 . S
H522 C528 0.950 . S
H523 C529 0.950 . S
H524 C530 0.949 . S
C525 H520 0.950 . S
C525 C527 1.327 . S
C525 C531 1.429 . S
C526 C518 1.574 . S
C526 H521 0.949 . S
C526 C532 1.368 . S
C527 C511 1.349 . S
C527 H519 0.950 . S
C527 C525 1.327 . S
C528 C516 1.349 . S
C528 H522 0.950 . S
C528 C529 1.327 . S
C529 H523 0.950 . S
C529 C528 1.327 . S
C529 C533 1.429 . S
C530 C513 1.574 . S
C530 H524 0.949 . S
C530 C534 1.368 . S
C531 C512 1.429 . S
C531 C525 1.429 . S
C531 C532 1.523 . S
C532 C513 1.368 . S
C532 C526 1.368 . S
C532 C531 1.523 . S
C533 C517 1.429 . S
C533 C529 1.429 . S
C533 C534 1.523 . S
C534 C518 1.368 . S
C534 C530 1.368 . S
C534 C533 1.523 . S
H535 C510 0.950 . S
H536 C512 0.950 . S
H537 C513 0.949 . S
H538 C515 0.950 . S
H539 C517 0.950 . S
C540 C541 1.349 . S
C540 C542 1.327 . S
C540 H565 0.950 . S
C541 C540 1.349 . S
C541 C557 1.349 . S
C542 C540 1.327 . S
C542 C561 1.429 . S
C542 H566 0.950 . S
C543 C560 1.574 . S
C543 C562 1.368 . S
C543 H567 0.949 . S
H544 C548 0.949 . S
C545 C546 1.349 . S
C545 C547 1.327 . S
C545 H568 0.950 . S
C546 C545 1.349 . S
C546 C558 1.349 . S
C547 C545 1.327 . S
C547 C563 1.429 . S
C547 H569 0.950 . S
C548 H544 0.949 . S
C548 C556 1.574 . S
C548 C564 1.368 . S
H549 C557 0.950 . S
H550 C555 0.950 . S
H551 C556 0.949 . S
H552 C558 0.950 . S
H553 C559 0.950 . S
H554 C560 0.949 . S
C555 H550 0.950 . S
C555 C557 1.327 . S
C555 C561 1.429 . S
C556 C548 1.574 . S
C556 H551 0.949 . S
C556 C562 1.368 . S
C557 C541 1.349 . S
C557 H549 0.950 . S
C557 C555 1.327 . S
C558 C546 1.349 . S
C558 H552 0.950 . S
C558 C559 1.327 . S
C559 H553 0.950 . S
C559 C558 1.327 . S
C559 C563 1.429 . S
C560 C543 1.574 . S
C560 H554 0.949 . S
C560 C564 1.368 . S
C561 C542 1.429 . S
C561 C555 1.429 . S
C561 C562 1.523 . S
C562 C543 1.368 . S
C562 C556 1.368 . S
C562 C561 1.523 . S
C563 C547 1.429 . S
C563 C559 1.429 . S
C563 C564 1.523 . S
C564 C548 1.368 . S
C564 C560 1.368 . S
C564 C563 1.523 . S
H565 C540 0.950 . S
H566 C542 0.950 . S
H567 C543 0.949 . S
H568 C545 0.950 . S
H569 C547 0.950 . S
C570 C571 1.349 . S
C570 C572 1.327 . S
C570 H595 0.950 . S
C571 C570 1.349 . S
C571 C587 1.349 . S
C572 C570 1.327 . S
C572 C591 1.429 . S
C572 H596 0.950 . S
C573 C590 1.574 . S
C573 C592 1.368 . S
C573 H597 0.949 . S
H574 C578 0.949 . S
C575 C576 1.349 . S
C575 C577 1.327 . S
C575 H598 0.950 . S
C576 C575 1.349 . S
C576 C588 1.349 . S
C577 C575 1.327 . S
C577 C593 1.429 . S
C577 H599 0.950 . S
C578 H574 0.949 . S
C578 C586 1.574 . S
C578 C594 1.368 . S
H579 C587 0.950 . S
H580 C585 0.950 . S
H581 C586 0.949 . S
H582 C588 0.950 . S
H583 C589 0.950 . S
H584 C590 0.949 . S
C585 H580 0.950 . S
C585 C587 1.327 . S
C585 C591 1.429 . S
C586 C578 1.574 . S
C586 H581 0.949 . S
C586 C592 1.368 . S
C587 C571 1.349 . S
C587 H579 0.950 . S
C587 C585 1.327 . S
C588 C576 1.349 . S
C588 H582 0.950 . S
C588 C589 1.327 . S
C589 H583 0.950 . S
C589 C588 1.327 . S
C589 C593 1.429 . S
C590 C573 1.574 . S
C590 H584 0.949 . S
C590 C594 1.368 . S
C591 C572 1.429 . S
C591 C585 1.429 . S
C591 C592 1.523 . S
C592 C573 1.368 . S
C592 C586 1.368 . S
C592 C591 1.523 . S
C593 C577 1.429 . S
C593 C589 1.429 . S
C593 C594 1.523 . S
C594 C578 1.368 . S
C594 C590 1.368 . S
C594 C593 1.523 . S
H595 C570 0.950 . S
H596 C572 0.950 . S
H597 C573 0.949 . S
H598 C575 0.950 . S
H599 C577 0.950 . S
C600 C601 1.349 . S
C600 C602 1.327 . S
C600 H625 0.950 . S
C601 C600 1.349 . S
C601 C617 1.349 . S
C602 C600 1.327 . S
C602 C621 1.429 . S
C602 H626 0.950 . S
C603 C620 1.574 . S
C603 C622 1.368 . S
C603 H627 0.949 . S
H604 C608 0.949 . S
C605 C606 1.349 . S
C605 C607 1.327 1_655 S
C605 H628 0.950 . S
C606 C605 1.349 . S
C606 C618 1.349 . S
C607 C605 1.327 1_455 S
C607 C623 1.429 . S
C607 H629 0.950 . S
C608 H604 0.949 . S
C608 C616 1.574 . S
C608 C624 1.368 . S
H609 C617 0.950 . S
H610 C615 0.950 . S
H611 C616 0.949 . S
H612 C618 0.950 . S
H613 C619 0.950 . S
H614 C620 0.949 . S
C615 H610 0.950 . S
C615 C617 1.327 . S
C615 C621 1.429 . S
C616 C608 1.574 . S
C616 H611 0.949 . S
C616 C622 1.368 . S
C617 C601 1.349 . S
C617 H609 0.950 . S
C617 C615 1.327 . S
C618 C606 1.349 . S
C618 H612 0.950 . S
C618 C619 1.327 . S
C619 H613 0.950 . S
C619 C618 1.327 . S
C619 C623 1.429 1_655 S
C620 C603 1.574 . S
C620 H614 0.949 . S
C620 C624 1.368 . S
C621 C602 1.429 . S
C621 C615 1.429 . S
C621 C622 1.523 . S
C622 C603 1.368 . S
C622 C616 1.368 . S
C622 C621 1.523 . S
C623 C607 1.429 . S
C623 C619 1.429 1_455 S
C623 C624 1.523 . S
C624 C608 1.368 . S
C624 C620 1.368 . S
C624 C623 1.523 . S
H625 C600 0.950 . S
H626 C602 0.950 . S
H627 C603 0.949 . S
H628 C605 0.950 . S
H629 C607 0.950 . S
C630 C631 1.349 . S
C630 C632 1.327 1_655 S
C630 H655 0.950 . S
C631 C630 1.349 . S
C631 C647 1.349 . S
C632 C630 1.327 1_455 S
C632 C651 1.429 . S
C632 H656 0.950 . S
C633 C650 1.574 . S
C633 C652 1.368 . S
C633 H657 0.949 . S
H634 C638 0.949 . S
C635 C636 1.349 . S
C635 C637 1.327 . S
C635 H658 0.950 . S
C636 C635 1.349 . S
C636 C648 1.349 . S
C637 C635 1.327 . S
C637 C653 1.429 1_545 S
C637 H659 0.950 . S
C638 H634 0.949 . S
C638 C646 1.574 . S
C638 C654 1.368 . S
H639 C647 0.950 . S
H640 C645 0.950 . S
H641 C646 0.949 . S
H642 C648 0.950 . S
H643 C649 0.950 . S
H644 C650 0.949 . S
C645 H640 0.950 . S
C645 C647 1.327 1_455 S
C645 C651 1.429 . S
C646 C638 1.574 . S
C646 H641 0.949 . S
C646 C652 1.368 . S
C647 C631 1.349 . S
C647 H639 0.950 . S
C647 C645 1.327 1_655 S
C648 C636 1.349 . S
C648 H642 0.950 . S
C648 C649 1.327 1_545 S
C649 H643 0.950 . S
C649 C648 1.327 1_565 S
C649 C653 1.429 . S
C650 C633 1.574 . S
C650 H644 0.949 . S
C650 C654 1.368 . S
C651 C632 1.429 . S
C651 C645 1.429 . S
C651 C652 1.523 . S
C652 C633 1.368 . S
C652 C646 1.368 . S
C652 C651 1.523 . S
C653 C637 1.429 1_565 S
C653 C649 1.429 . S
C653 C654 1.523 . S
C654 C638 1.368 . S
C654 C650 1.368 . S
C654 C653 1.523 . S
H655 C630 0.950 . S
H656 C632 0.950 . S
H657 C633 0.949 . S
H658 C635 0.950 . S
H659 C637 0.950 . S
C660 C661 1.349 . S
C660 C662 1.327 1_545 S
C660 H685 0.950 . S
C661 C660 1.349 . S
C661 C677 1.349 . S
C662 C660 1.327 1_565 S
C662 C681 1.429 . S
C662 H686 0.950 . S
C663 C680 1.574 . S
C663 C682 1.368 . S
C663 H687 0.949 . S
H664 C668 0.949 . S
C665 C666 1.349 . S
C665 C667 1.327 . S
C665 H688 0.950 . S
C666 C665 1.349 . S
C666 C678 1.349 . S
C667 C665 1.327 . S
C667 C683 1.429 . S
C667 H689 0.950 . S
C668 H664 0.949 . S
C668 C676 1.574 . S
C668 C684 1.368 . S
H669 C677 0.950 . S
H670 C675 0.950 . S
H671 C676 0.949 . S
H672 C678 0.950 . S
H673 C679 0.950 . S
H674 C680 0.949 . S
C675 H670 0.950 . S
C675 C677 1.327 1_565 S
C675 C681 1.429 . S
C676 C668 1.574 . S
C676 H671 0.949 . S
C676 C682 1.368 . S
C677 C661 1.349 . S
C677 H669 0.950 . S
C677 C675 1.327 1_545 S
C678 C666 1.349 . S
C678 H672 0.950 . S
C678 C679 1.327 . S
C679 H673 0.950 . S
C679 C678 1.327 . S
C679 C683 1.429 . S
C680 C663 1.574 . S
C680 H674 0.949 . S
C680 C684 1.368 . S
C681 C662 1.429 . S
C681 C675 1.429 . S
C681 C682 1.523 . S
C682 C663 1.368 . S
C682 C676 1.368 . S
C682 C681 1.523 . S
C683 C667 1.429 . S
C683 C679 1.429 . S
C683 C684 1.523 . S
C684 C668 1.368 . S
C684 C680 1.368 . S
C684 C683 1.523 . S
H685 C660 0.950 . S
H686 C662 0.950 . S
H687 C663 0.949 . S
H688 C665 0.950 . S
H689 C667 0.950 . S
C690 C691 1.349 . S
C690 C692 1.327 . S
C690 H715 0.950 . S
C691 C690 1.349 . S
C691 C707 1.349 . S
C692 C690 1.327 . S
C692 C711 1.429 . S
C692 H716 0.950 . S
C693 C710 1.574 . S
C693 C712 1.368 . S
C693 H717 0.949 . S
H694 C698 0.949 . S
C695 C696 1.349 . S
C695 C697 1.327 . S
C695 H718 0.950 . S
C696 C695 1.349 . S
C696 C708 1.349 . S
C697 C695 1.327 . S
C697 C713 1.429 1_565 S
C697 H719 0.950 . S
C698 H694 0.949 . S
C698 C706 1.574 . S
C698 C714 1.368 . S
H699 C707 0.950 . S
H700 C705 0.950 . S
H701 C706 0.949 . S
H702 C708 0.950 . S
H703 C709 0.950 . S
H704 C710 0.949 . S
C705 H700 0.950 . S
C705 C707 1.327 . S
C705 C711 1.429 . S
C706 C698 1.574 . S
C706 H701 0.949 . S
C706 C712 1.368 . S
C707 C691 1.349 . S
C707 H699 0.950 . S
C707 C705 1.327 . S
C708 C696 1.349 . S
C708 H702 0.950 . S
C708 C709 1.327 1_565 S
C709 H703 0.950 . S
C709 C708 1.327 1_545 S
C709 C713 1.429 . S
C710 C693 1.574 . S
C710 H704 0.949 . S
C710 C714 1.368 . S
C711 C692 1.429 . S
C711 C705 1.429 . S
C711 C712 1.523 . S
C712 C693 1.368 . S
C712 C706 1.368 . S
C712 C711 1.523 . S
C713 C697 1.429 1_545 S
C713 C709 1.429 . S
C713 C714 1.523 . S
C714 C698 1.368 . S
C714 C710 1.368 . S
C714 C713 1.523 . S
H715 C690 0.950 . S
H716 C692 0.950 . S
H717 C693 0.949 . S
H718 C695 0.950 . S
H719 C697 0.950 . S
C720 C721 1.349 . S
C720 C722 1.327 1_455 S
C720 H745 0.950 . S
C721 C720 1.349 . S
C721 C737 1.349 . S
C722 C720 1.327 1_655 S
C722 C741 1.429 . S
C722 H746 0.950 . S
C723 C740 1.574 . S
C723 C742 1.368 . S
C723 H747 0.949 . S
H724 C728 0.949 . S
C725 C726 1.349 . S
C725 C727 1.327 . S
C725 H748 0.950 . S
C726 C725 1.349 . S
C726 C738 1.349 . S
C727 C725 1.327 . S
C727 C743 1.429 . S
C727 H749 0.950 . S
C728 H724 0.949 . S
C728 C736 1.574 . S
C728 C744 1.368 . S
H729 C737 0.950 . S
H730 C735 0.950 . S
H731 C736 0.949 . S
H732 C738 0.950 . S
H733 C739 0.950 . S
H734 C740 0.949 . S
C735 H730 0.950 . S
C735 C737 1.327 1_655 S
C735 C741 1.429 . S
C736 C728 1.574 . S
C736 H731 0.949 . S
C736 C742 1.368 . S
C737 C721 1.349 . S
C737 H729 0.950 . S
C737 C735 1.327 1_455 S
C738 C726 1.349 . S
C738 H732 0.950 . S
C738 C739 1.327 . S
C739 H733 0.950 . S
C739 C738 1.327 . S
C739 C743 1.429 . S
C740 C723 1.574 . S
C740 H734 0.949 . S
C740 C744 1.368 . S
C741 C722 1.429 . S
C741 C735 1.429 . S
C741 C742 1.523 . S
C742 C723 1.368 . S
C742 C736 1.368 . S
C742 C741 1.523 . S
C743 C727 1.429 . S
C743 C739 1.429 . S
C743 C744 1.523 . S
C744 C728 1.368 . S
C744 C740 1.368 . S
C744 C743 1.523 . S
H745 C720 0.950 . S
H746 C722 0.950 . S
H747 C723 0.949 . S
H748 C725 0.950 . S
H749 C727 0.950 . S
C750 C751 1.349 . S
C750 C752 1.327 . S
C750 H775 0.950 . S
C751 C750 1.349 . S
C751 C767 1.349 . S
C752 C750 1.327 . S
C752 C771 1.429 1_455 S
C752 H776 0.950 . S
C753 C770 1.574 . S
C753 C772 1.368 . S
C753 H777 0.949 . S
H754 C758 0.949 . S
C755 C756 1.349 . S
C755 C757 1.327 1_565 S
C755 H778 0.950 . S
C756 C755 1.349 . S
C756 C768 1.349 . S
C757 C755 1.327 1_545 S
C757 C773 1.429 . S
C757 H779 0.950 . S
C758 H754 0.949 . S
C758 C766 1.574 . S
C758 C774 1.368 . S
H759 C767 0.950 . S
H760 C765 0.950 . S
H761 C766 0.949 . S
H762 C768 0.950 . S
H763 C769 0.950 . S
H764 C770 0.949 . S
C765 H760 0.950 . S
C765 C767 1.327 1_655 S
C765 C771 1.429 . S
C766 C758 1.574 . S
C766 H761 0.949 . S
C766 C772 1.368 . S
C767 C751 1.349 . S
C767 H759 0.950 . S
C767 C765 1.327 1_455 S
C768 C756 1.349 . S
C768 H762 0.950 . S
C768 C769 1.327 1_565 S
C769 H763 0.950 . S
C769 C768 1.327 1_545 S
C769 C773 1.429 . S
C770 C753 1.574 . S
C770 H764 0.949 . S
C770 C774 1.368 . S
C771 C752 1.429 1_655 S
C771 C765 1.429 . S
C771 C772 1.523 . S
C772 C753 1.368 . S
C772 C766 1.368 . S
C772 C771 1.523 . S
C773 C757 1.429 . S
C773 C769 1.429 . S
C773 C774 1.523 . S
C774 C758 1.368 . S
C774 C770 1.368 . S
C774 C773 1.523 . S
H775 C750 0.950 . S
H776 C752 0.950 . S
H777 C753 0.949 . S
H778 C755 0.950 . S
H779 C757 0.950 . S
C241 C179 2.336 . S
C246 C19 2.472 . S
C271 C210 2.472 . S
C276 C50 2.336 . S
C301 C99 2.472 . S
C306 C139 2.336 . S
C331 C10 2.336 . S
C336 C170 2.472 . S
C361 C219 2.336 . S
C366 C59 2.472 . S
C391 C90 2.336 . S
C396 C130 2.472 . S
C421 C7 1.903 . S
C426 C82 1.852 . S
C451 C47 1.903 . S
C456 C2 1.852 . S
C481 C87 1.903 . S
C486 C42 1.852 . S
C511 C136 1.903 . S
C516 C171 1.852 . S
C541 C176 1.903 . S
C546 C211 1.852 . S
C571 C131 1.852 . S
C576 C216 1.903 . S
C601 C16 1.038 . S
C606 C91 1.058 . S
C631 C56 1.038 . S
C636 C11 1.058 . S
C661 C96 1.038 . S
C666 C51 1.058 . S
C691 C127 1.038 . S
C696 C162 1.058 . S
C721 C167 1.038 . S
C726 C202 1.058 . S
C751 C122 1.058 . S
C756 C207 1.038 . S
