# Generated by pormake.
# Topology snl, (6)-cn, num edge types: 1
# Building blocks:
#     Node 0, Type 0, BuildingBlock: CIFDUS_clean_sbu_1, # of connection points: 6
#     Node 1, Type 0, BuildingBlock: CIFDUS_clean_sbu_1, # of connection points: 6
#     Node 2, Type 0, BuildingBlock: CIFDUS_clean_sbu_1, # of connection points: 6
#     Node 3, Type 0, BuildingBlock: CIFDUS_clean_sbu_1, # of connection points: 6
#     Node 4, Type 0, BuildingBlock: CIFDUS_clean_sbu_1, # of connection points: 6
#     Node 5, Type 0, BuildingBlock: CIFDUS_clean_sbu_1, # of connection points: 6
#     Node 6, Type 0, BuildingBlock: CIFDUS_clean_sbu_1, # of connection points: 6
#     Node 7, Type 0, BuildingBlock: CIFDUS_clean_sbu_1, # of connection points: 6
#     Node 8, Type 0, BuildingBlock: CIFDUS_clean_sbu_1, # of connection points: 6
#     Node 9, Type 0, BuildingBlock: CIFDUS_clean_sbu_1, # of connection points: 6
#     Node 10, Type 0, BuildingBlock: CIFDUS_clean_sbu_1, # of connection points: 6
#     Node 11, Type 0, BuildingBlock: CIFDUS_clean_sbu_1, # of connection points: 6
#     Node 12, Type 0, BuildingBlock: CIFDUS_clean_sbu_1, # of connection points: 6
#     Node 13, Type 0, BuildingBlock: CIFDUS_clean_sbu_1, # of connection points: 6
#     Node 14, Type 0, BuildingBlock: CIFDUS_clean_sbu_1, # of connection points: 6
#     Node 15, Type 0, BuildingBlock: CIFDUS_clean_sbu_1, # of connection points: 6
#     Edge 16, Type (0, 0), None
#     Edge 17, Type (0, 0), None
#     Edge 18, Type (0, 0), None
#     Edge 19, Type (0, 0), None
#     Edge 20, Type (0, 0), None
#     Edge 21, Type (0, 0), None
#     Edge 22, Type (0, 0), None
#     Edge 23, Type (0, 0), None
#     Edge 24, Type (0, 0), None
#     Edge 25, Type (0, 0), None
#     Edge 26, Type (0, 0), None
#     Edge 27, Type (0, 0), None
#     Edge 28, Type (0, 0), None
#     Edge 29, Type (0, 0), None
#     Edge 30, Type (0, 0), None
#     Edge 31, Type (0, 0), None
#     Edge 32, Type (0, 0), None
#     Edge 33, Type (0, 0), None
#     Edge 34, Type (0, 0), None
#     Edge 35, Type (0, 0), None
#     Edge 36, Type (0, 0), None
#     Edge 37, Type (0, 0), None
#     Edge 38, Type (0, 0), None
#     Edge 39, Type (0, 0), None
#     Edge 40, Type (0, 0), None
#     Edge 41, Type (0, 0), None
#     Edge 42, Type (0, 0), None
#     Edge 43, Type (0, 0), None
#     Edge 44, Type (0, 0), None
#     Edge 45, Type (0, 0), None
#     Edge 46, Type (0, 0), None
#     Edge 47, Type (0, 0), None
#     Edge 48, Type (0, 0), None
#     Edge 49, Type (0, 0), None
#     Edge 50, Type (0, 0), None
#     Edge 51, Type (0, 0), None
#     Edge 52, Type (0, 0), None
#     Edge 53, Type (0, 0), None
#     Edge 54, Type (0, 0), None
#     Edge 55, Type (0, 0), None
#     Edge 56, Type (0, 0), None
#     Edge 57, Type (0, 0), None
#     Edge 58, Type (0, 0), None
#     Edge 59, Type (0, 0), None
#     Edge 60, Type (0, 0), None
#     Edge 61, Type (0, 0), None
#     Edge 62, Type (0, 0), None
#     Edge 63, Type (0, 0), None
# Relax obj value: 0.058
# Max RMSD: 0.111
# Mean RMSD: 0.105
data_MOF--net-snl--node1-CIFDUS_clean_sbu_1--edge1-none
_symmetry_space_group_name_H-M    P1
_symmetry_Int_Tables_number       1
_symmetry_cell_setting            triclinic
loop_
_symmetry_equiv_pos_as_xyz
'x, y, z'
_cell_length_a     28.99238
_cell_length_b     28.844872
_cell_length_c     7.572752
_cell_angle_alpha  88.694307
_cell_angle_beta   88.204694
_cell_angle_gamma 87.900528
loop_
_atom_site_label
_atom_site_type_symbol
_atom_site_fract_x
_atom_site_fract_y
_atom_site_fract_z
_atom_type_partial_charge
O0 O 0.11919 0.56333 0.10916 0.0
Mn1 Mn 0.12595 0.63596 0.14068 0.0
O2 O 0.18954 0.53619 0.04212 0.0
Mn3 Mn 0.2118 0.59129 0.94365 0.0
O4 O 0.12942 0.7092 0.15634 0.0
O5 O 0.05347 0.64061 0.16305 0.0
Mn6 Mn 0.05177 0.6636 0.37873 0.0
O7 O 0.14031 0.63041 0.41358 0.0
O8 O 0.07324 0.72215 0.36146 0.0
O9 O 0.11707 0.64025 0.86942 0.0
O10 O 0.18291 0.61224 0.73827 0.0
O11 O 0.99231 0.65729 0.34528 0.0
O12 O 0.07465 0.63105 0.56559 0.0
C13 C 0.23964 0.6337 0.14448 0.0
C14 C 0.14623 0.53063 0.04748 0.0
C15 C 0.10524 0.73659 0.25806 0.0
C16 C 0.00812 0.64414 0.19172 0.0
C17 C 0.11787 0.62854 0.56159 0.0
C18 C 0.14131 0.62817 0.73165 0.0
O19 O 0.19619 0.63197 0.107 0.0
O20 O 0.26595 0.61216 0.03141 0.0
O21 O 0.69966 0.88462 0.35262 0.0
Mn22 Mn 0.62687 0.89644 0.38861 0.0
O23 O 0.71633 0.93789 0.13839 0.0
Mn24 Mn 0.66138 0.97264 0.14749 0.0
O25 O 0.55511 0.91303 0.39709 0.0
O26 O 0.61415 0.8257 0.41615 0.0
Mn27 Mn 0.57131 0.83158 0.59586 0.0
O28 O 0.63264 0.90698 0.66154 0.0
O29 O 0.518 0.8501 0.48818 0.0
O30 O 0.62103 0.88702 0.11225 0.0
O31 O 0.62362 0.95625 0.97573 0.0
O32 O 0.5949 0.77431 0.62523 0.0
O33 O 0.58152 0.86213 0.79744 0.0
C34 C 0.64305 1.00961 0.38359 0.0
C35 C 0.72768 0.90252 0.23366 0.0
C36 C 0.51798 0.88985 0.41228 0.0
C37 C 0.62035 0.78396 0.48709 0.0
C38 C 0.61058 0.89298 0.80137 0.0
C39 C 0.61793 0.91324 0.9723 0.0
O40 O 0.63712 0.96545 0.3641 0.0
O41 O 0.65783 0.03011 0.24046 0.0
O42 O 0.30426 0.3878 0.62473 0.0
Mn43 Mn 0.37771 0.38864 0.60151 0.0
O44 O 0.29292 0.43954 0.84753 0.0
Mn45 Mn 0.34954 0.46711 0.84004 0.0
O46 O 0.44639 0.40215 0.63057 0.0
O47 O 0.3875 0.31481 0.56029 0.0
Mn48 Mn 0.43833 0.33016 0.41966 0.0
O49 O 0.37851 0.40089 0.32349 0.0
O50 O 0.49159 0.36029 0.46391 0.0
O51 O 0.37847 0.37477 0.87811 0.0
O52 O 0.3892 0.44292 0.99945 0.0
O53 O 0.45174 0.27309 0.48598 0.0
O54 O 0.41806 0.34166 0.19817 0.0
C55 C 0.36377 0.50332 0.60171 0.0
C56 C 0.27816 0.40955 0.74344 0.0
C57 C 0.48678 0.39136 0.57472 0.0
C58 C 0.40981 0.27334 0.5455 0.0
C59 C 0.39354 0.37849 0.18571 0.0
C60 C 0.38811 0.39941 0.01106 0.0
O61 O 0.36952 0.45853 0.62201 0.0
O62 O 0.35475 0.52507 0.74691 0.0
O63 O 0.88128 0.05875 0.90749 0.0
Mn64 Mn 0.86899 0.13041 0.84309 0.0
O65 O 0.81097 0.03256 0.93572 0.0
Mn66 Mn 0.78546 0.08508 0.04369 0.0
O67 O 0.85798 0.20303 0.80723 0.0
O68 O 0.93953 0.14007 0.81787 0.0
Mn69 Mn 0.93869 0.17499 0.61431 0.0
O70 O 0.85926 0.11627 0.57238 0.0
O71 O 0.92603 0.23112 0.72169 0.0
O72 O 0.87443 0.14096 0.11389 0.0
O73 O 0.81418 0.10526 0.24726 0.0
O74 O 0.98846 0.13393 0.59668 0.0
O75 O 0.90101 0.16765 0.42746 0.0
C76 C 0.75664 0.13013 0.83758 0.0
C77 C 0.85398 0.0256 0.94942 0.0
C78 C 0.8866 0.23641 0.79964 0.0
C79 C 0.98152 0.12771 0.76381 0.0
C80 C 0.87058 0.13793 0.42837 0.0
C81 C 0.85169 0.12725 0.25372 0.0
O82 O 0.79967 0.12621 0.8782 0.0
O83 O 0.73075 0.10817 0.9491 0.0
O84 O 0.20236 0.39442 0.8602 0.0
Mn85 Mn 0.12983 0.39407 0.88658 0.0
O86 O 0.21279 0.44724 0.63973 0.0
Mn87 Mn 0.15346 0.47527 0.64458 0.0
O88 O 0.05617 0.39242 0.89994 0.0
O89 O 0.13387 0.32124 0.90757 0.0
Mn90 Mn 0.11197 0.32256 0.12754 0.0
O91 O 0.12718 0.40978 0.15825 0.0
O92 O 0.05071 0.3401 0.12215 0.0
O93 O 0.13109 0.38353 0.61335 0.0
O94 O 0.11833 0.45189 0.4775 0.0
O95 O 0.12527 0.26373 0.11778 0.0
O96 O 0.14372 0.34537 0.30215 0.0
C97 C 0.1312 0.50888 0.88393 0.0
C98 C 0.22764 0.41309 0.73564 0.0
C99 C 0.03184 0.36787 0.01039 0.0
C100 C 0.13532 0.2768 0.95648 0.0
C101 C 0.13476 0.3877 0.30295 0.0
C102 C 0.12482 0.40856 0.47273 0.0
O103 O 0.12951 0.46436 0.85905 0.0
O104 O 0.14108 0.53176 0.74013 0.0
O105 O 0.80503 0.8804 0.12731 0.0
Mn106 Mn 0.87797 0.88542 0.10551 0.0
O107 O 0.79109 0.92958 0.35471 0.0
Mn108 Mn 0.84578 0.96138 0.34632 0.0
O109 O 0.94561 0.90123 0.13056 0.0
O110 O 0.89 0.81281 0.06248 0.0
Mn111 Mn 0.94027 0.82781 0.92072 0.0
O112 O 0.87824 0.89765 0.82786 0.0
O113 O 0.99199 0.85986 0.96565 0.0
O114 O 0.87962 0.87136 0.382 0.0
O115 O 0.88627 0.93987 0.50615 0.0
O116 O 0.95416 0.77085 0.98661 0.0
O117 O 0.91923 0.83938 0.70097 0.0
C118 C 0.86336 0.99997 0.11485 0.0
C119 C 0.77798 0.89871 0.25051 0.0
C120 C 0.98608 0.89108 0.07534 0.0
C121 C 0.91198 0.77146 0.04429 0.0
C122 C 0.89378 0.8756 0.68983 0.0
C123 C 0.88769 0.89635 0.51594 0.0
O124 O 0.8685 0.95505 0.12982 0.0
O125 O 0.84968 0.02016 0.25894 0.0
O126 O 0.37497 0.55762 0.3737 0.0
Mn127 Mn 0.37029 0.63038 0.33333 0.0
O128 O 0.30468 0.53626 0.45041 0.0
Mn129 Mn 0.28408 0.5935 0.53729 0.0
O130 O 0.37125 0.70447 0.30736 0.0
O131 O 0.44264 0.62587 0.31689 0.0
Mn132 Mn 0.44773 0.64847 0.09851 0.0
O133 O 0.35555 0.62568 0.0623 0.0
O134 O 0.43552 0.71065 0.13412 0.0
O135 O 0.37854 0.63436 0.60357 0.0
O136 O 0.31268 0.61183 0.74016 0.0
O137 O 0.50263 0.61918 0.12698 0.0
O138 O 0.42032 0.628 0.90597 0.0
C139 C 0.25613 0.63575 0.32626 0.0
C140 C 0.3478 0.52713 0.43971 0.0
C141 C 0.40219 0.72911 0.22638 0.0
C142 C 0.48794 0.62049 0.28965 0.0
C143 C 0.37743 0.62586 0.91328 0.0
C144 C 0.35413 0.62502 0.74374 0.0
O145 O 0.29974 0.63263 0.36487 0.0
O146 O 0.22994 0.61774 0.44738 0.0
O147 O 0.62347 0.06378 0.60725 0.0
Mn148 Mn 0.62861 0.13683 0.64415 0.0
O149 O 0.69564 0.03996 0.55657 0.0
Mn150 Mn 0.71591 0.0945 0.44833 0.0
O151 O 0.63195 0.21017 0.659 0.0
O152 O 0.55608 0.14218 0.66544 0.0
Mn153 Mn 0.55517 0.16457 0.88271 0.0
O154 O 0.64299 0.13115 0.91766 0.0
O155 O 0.57737 0.22295 0.86942 0.0
O156 O 0.61951 0.14093 0.37334 0.0
O157 O 0.68595 0.11433 0.24325 0.0
O158 O 0.49552 0.15975 0.84957 0.0
O159 O 0.57729 0.13098 0.06878 0.0
C160 C 0.74154 0.1353 0.65463 0.0
C161 C 0.65299 0.03226 0.5517 0.0
C162 C 0.60862 0.23757 0.76301 0.0
C163 C 0.51081 0.14639 0.6956 0.0
C164 C 0.62051 0.12859 0.06555 0.0
C165 C 0.64385 0.12872 0.23616 0.0
O166 O 0.69855 0.13413 0.61164 0.0
O167 O 0.76894 0.11715 0.53699 0.0
O168 O 0.80641 0.37826 0.87781 0.0
Mn169 Mn 0.87866 0.38583 0.90709 0.0
O170 O 0.77825 0.44729 0.79378 0.0
Mn171 Mn 0.83395 0.47072 0.70677 0.0
O172 O 0.95229 0.38979 0.92042 0.0
O173 O 0.88269 0.31385 0.93172 0.0
Mn174 Mn 0.90904 0.3093 0.13864 0.0
O175 O 0.87327 0.39977 0.18038 0.0
O176 O 0.9675 0.32971 0.10604 0.0
O177 O 0.88341 0.37651 0.63609 0.0
O178 O 0.85749 0.44267 0.50286 0.0
O179 O 0.89952 0.25006 0.09602 0.0
O180 O 0.87987 0.33371 0.33169 0.0
C181 C 0.87192 0.49955 0.9159 0.0
C182 C 0.77392 0.40361 0.80733 0.0
C183 C 0.98083 0.3637 0.00982 0.0
C184 C 0.88529 0.26818 0.94821 0.0
C185 C 0.87476 0.37709 0.32765 0.0
C186 C 0.87298 0.40079 0.49749 0.0
O187 O 0.87307 0.45602 0.8743 0.0
O188 O 0.85172 0.52561 0.7999 0.0
O189 O 0.301 0.13366 0.65971 0.0
Mn190 Mn 0.37219 0.12676 0.60477 0.0
O191 O 0.28112 0.06249 0.7392 0.0
Mn192 Mn 0.33892 0.04317 0.81756 0.0
O193 O 0.44421 0.1195 0.57198 0.0
O194 O 0.37145 0.19909 0.5874 0.0
Mn195 Mn 0.40819 0.20594 0.39568 0.0
O196 O 0.36162 0.1162 0.33607 0.0
O197 O 0.46729 0.18956 0.49226 0.0
O198 O 0.38193 0.13508 0.87826 0.0
O199 O 0.35911 0.07047 0.02034 0.0
O200 O 0.36073 0.24833 0.34783 0.0
O201 O 0.40577 0.16752 0.20041 0.0
C202 C 0.37375 1.01143 0.60026 0.0
C203 C 0.27133 0.10567 0.72577 0.0
C204 C 0.47596 0.14922 0.55789 0.0
C205 C 0.38661 0.23148 0.47232 0.0
C206 C 0.38154 0.13222 0.19567 0.0
C207 C 0.37449 0.11115 0.02172 0.0
O208 O 0.37273 0.05609 0.62615 0.0
O209 O 0.36243 0.98769 0.74059 0.0
O210 O 0.63912 0.56196 0.42303 0.0
Mn211 Mn 0.63466 0.63502 0.41632 0.0
O212 O 0.69287 0.54924 0.63401 0.0
Mn213 Mn 0.71608 0.60817 0.6499 0.0
O214 O 0.63833 0.70587 0.44905 0.0
O215 O 0.56405 0.63555 0.36978 0.0
Mn216 Mn 0.56483 0.68781 0.22777 0.0
O217 O 0.64678 0.63848 0.13911 0.0
O218 O 0.59533 0.7421 0.25747 0.0
O219 O 0.62022 0.63314 0.69202 0.0
O220 O 0.68764 0.64309 0.81959 0.0
O221 O 0.50992 0.691 0.34864 0.0
O222 O 0.58109 0.66397 0.0119 0.0
C223 C 0.74673 0.63119 0.40453 0.0
C224 C 0.66255 0.53507 0.5306 0.0
C225 C 0.62448 0.74344 0.37527 0.0
C226 C 0.51996 0.64826 0.38857 0.0
C227 C 0.62215 0.64715 1.00137 0.0
C228 C 0.64413 0.64194 0.82739 0.0
O229 O 0.70309 0.63363 0.44484 0.0
O230 O 0.77142 0.6213 0.5402 0.0
O231 O 0.13876 0.95674 0.12241 0.0
Mn232 Mn 0.13674 0.88449 0.13972 0.0
O233 O 0.19214 0.96816 0.90425 0.0
Mn234 Mn 0.22076 0.90911 0.89856 0.0
O235 O 0.13315 0.8114 0.14869 0.0
O236 O 0.0653 0.89068 0.16838 0.0
Mn237 Mn 0.06368 0.86799 0.38609 0.0
O238 O 0.15209 0.88099 0.41097 0.0
O239 O 0.0812 0.8064 0.37404 0.0
O240 O 0.1265 0.88667 0.86719 0.0
O241 O 0.19537 0.87553 0.72875 0.0
O242 O 0.00536 0.88375 0.36562 0.0
O243 O 0.08837 0.89924 0.55898 0.0
C244 C 0.24814 0.88268 0.14638 0.0
C245 C 0.1581 0.98248 0.00205 0.0
C246 C 0.10875 0.78746 0.26019 0.0
C247 C 0.02067 0.89405 0.20711 0.0
C248 C 0.13053 0.88969 0.5568 0.0
C249 C 0.15191 0.88136 0.72588 0.0
O250 O 0.2056 0.88108 0.1005 0.0
O251 O 0.27458 0.89638 0.01813 0.0
O252 O 0.79743 0.6402 0.16388 0.0
Mn253 Mn 0.86845 0.62881 0.10519 0.0
O254 O 0.77178 0.57096 0.23696 0.0
Mn255 Mn 0.82742 0.54509 0.31601 0.0
O256 O 0.94046 0.61859 0.07073 0.0
O257 O 0.87027 0.70033 0.08123 0.0
Mn258 Mn 0.90787 0.70487 0.89051 0.0
O259 O 0.85688 0.61807 0.83527 0.0
O260 O 0.96678 0.68691 0.98319 0.0
O261 O 0.87869 0.63644 0.377 0.0
O262 O 0.85122 0.57258 0.5142 0.0
O263 O 0.86357 0.7499 0.83998 0.0
O264 O 0.90375 0.66636 0.69707 0.0
C265 C 0.86841 0.51559 0.09852 0.0
C266 C 0.76606 0.61481 0.23464 0.0
C267 C 0.97364 0.64681 0.05307 0.0
C268 C 0.88792 0.73121 0.9664 0.0
C269 C 0.87778 0.63242 0.69367 0.0
C270 C 0.86956 0.61216 0.51832 0.0
O271 O 0.86555 0.55904 0.13898 0.0
O272 O 0.84795 0.48979 0.21484 0.0
O273 O 0.13406 0.05835 0.89475 0.0
Mn274 Mn 0.13359 0.13112 0.87461 0.0
O275 O 0.18377 0.04755 0.12109 0.0
Mn276 Mn 0.21083 0.10479 0.11934 0.0
O277 O 0.14408 0.20037 0.89387 0.0
O278 O 0.06222 0.13563 0.82647 0.0
Mn279 Mn 0.06735 0.18953 0.69443 0.0
O280 O 0.14492 0.13302 0.59621 0.0
O281 O 0.09842 0.24287 0.73229 0.0
O282 O 0.11856 0.13238 0.15123 0.0
O283 O 0.18538 0.14467 0.27629 0.0
O284 O 0.01269 0.19575 0.81055 0.0
O285 O 0.08185 0.16765 0.47495 0.0
C286 C 0.24733 0.12154 0.88564 0.0
C287 C 0.15456 0.03267 0.01479 0.0
C288 C 0.13145 0.23974 0.83374 0.0
C289 C 0.01927 0.15224 0.8479 0.0
C290 C 0.12092 0.14651 0.46077 0.0
C291 C 0.14216 0.14281 0.2855 0.0
O292 O 0.20272 0.1257 0.90361 0.0
O293 O 0.26878 0.11221 0.03043 0.0
O294 O 0.64255 0.45894 0.62567 0.0
Mn295 Mn 0.63978 0.38649 0.64403 0.0
O296 O 0.69826 0.46951 0.41427 0.0
Mn297 Mn 0.72262 0.40874 0.40516 0.0
O298 O 0.63659 0.31288 0.65353 0.0
O299 O 0.56726 0.39182 0.6644 0.0
Mn300 Mn 0.56615 0.36909 0.88311 0.0
O301 O 0.65473 0.38341 0.91494 0.0
O302 O 0.58318 0.30754 0.87317 0.0
O303 O 0.62935 0.38863 0.37125 0.0
O304 O 0.69738 0.37676 0.23097 0.0
O305 O 0.50764 0.38389 0.86392 0.0
O306 O 0.59012 0.39937 0.06097 0.0
C307 C 0.75387 0.38522 0.64561 0.0
C308 C 0.66459 0.48478 0.51238 0.0
C309 C 0.61159 0.28867 0.7626 0.0
C310 C 0.52242 0.39422 0.70486 0.0
C311 C 0.6325 0.39087 0.06017 0.0
C312 C 0.65412 0.38302 0.22906 0.0
O313 O 0.7098 0.38394 0.616 0.0
O314 O 0.77794 0.39338 0.50274 0.0
O315 O 0.3858 0.95573 0.37998 0.0
Mn316 Mn 0.37577 0.8845 0.32557 0.0
O317 O 0.31632 0.98673 0.43062 0.0
Mn318 Mn 0.29151 0.93261 0.52693 0.0
O319 O 0.37287 0.81009 0.28596 0.0
O320 O 0.44505 0.87703 0.29646 0.0
Mn321 Mn 0.4573 0.85022 0.09284 0.0
O322 O 0.36386 0.89675 0.05343 0.0
O323 O 0.44597 0.79289 0.18439 0.0
O324 O 0.38294 0.87449 0.59693 0.0
O325 O 0.32032 0.9095 0.73026 0.0
O326 O 0.50287 0.89146 0.12408 0.0
O327 O 0.42183 0.86262 0.90174 0.0
C328 C 0.26327 0.89012 0.32634 0.0
C329 C 0.35981 0.99006 0.43409 0.0
C330 C 0.40612 0.78034 0.24037 0.0
C331 C 0.48348 0.89824 0.2771 0.0
C332 C 0.38227 0.88175 0.90792 0.0
C333 C 0.35984 0.88834 0.73596 0.0
O334 O 0.30635 0.89122 0.36514 0.0
O335 O 0.23682 0.91359 0.4342 0.0
loop_
_geom_bond_atom_site_label_1
_geom_bond_atom_site_label_2
_geom_bond_distance
_geom_bond_site_symmetry_2
_ccdc_geom_bond_type
O0 Mn1 2.163 . S
O0 C14 1.244 . S
Mn1 O0 2.163 . S
Mn1 O4 2.160 . S
Mn1 O5 2.221 . S
Mn1 O7 2.163 . S
Mn1 O9 2.160 1_554 S
Mn1 O19 2.221 . S
O2 Mn3 2.087 . S
O2 C14 1.256 1_556 S
Mn3 O2 2.087 . S
Mn3 O10 2.089 . S
Mn3 O19 2.290 1_556 S
Mn3 O20 2.251 1_556 S
O4 Mn1 2.160 . S
O4 C15 1.239 . S
O5 Mn1 2.221 . S
O5 Mn6 2.290 . S
O5 C16 1.278 . S
Mn6 O5 2.290 . S
Mn6 O8 2.089 . S
Mn6 O11 2.251 1_455 S
Mn6 O12 2.087 . S
O7 Mn1 2.163 . S
O7 C17 1.244 . S
O8 Mn6 2.089 . S
O8 C15 1.256 . S
O9 Mn1 2.160 1_556 S
O9 C18 1.239 . S
O10 Mn3 2.089 . S
O10 C18 1.256 . S
O11 Mn6 2.251 1_655 S
O11 C16 1.241 1_655 S
O12 Mn6 2.087 . S
O12 C17 1.256 . S
C13 O19 1.278 . S
C13 O20 1.241 . S
C14 O0 1.244 . S
C14 O2 1.256 1_554 S
C15 O4 1.239 . S
C15 O8 1.256 . S
C16 O5 1.278 . S
C16 O11 1.241 1_455 S
C17 O7 1.244 . S
C17 O12 1.256 . S
C18 O9 1.239 . S
C18 O10 1.256 . S
O19 Mn1 2.221 . S
O19 Mn3 2.290 1_554 S
O19 C13 1.278 . S
O20 Mn3 2.251 1_554 S
O20 C13 1.241 . S
O21 Mn22 2.163 . S
O21 C35 1.244 . S
Mn22 O21 2.163 . S
Mn22 O25 2.160 . S
Mn22 O26 2.221 . S
Mn22 O28 2.163 . S
Mn22 O30 2.160 . S
Mn22 O40 2.221 . S
O23 Mn24 2.087 . S
O23 C35 1.256 . S
Mn24 O23 2.087 . S
Mn24 O31 2.089 1_554 S
Mn24 O40 2.290 . S
Mn24 O41 2.251 1_565 S
O25 Mn22 2.160 . S
O25 C36 1.239 . S
O26 Mn22 2.221 . S
O26 Mn27 2.290 . S
O26 C37 1.278 . S
Mn27 O26 2.290 . S
Mn27 O29 2.089 . S
Mn27 O32 2.251 . S
Mn27 O33 2.087 . S
O28 Mn22 2.163 . S
O28 C38 1.244 . S
O29 Mn27 2.089 . S
O29 C36 1.256 . S
O30 Mn22 2.160 . S
O30 C39 1.239 1_554 S
O31 Mn24 2.089 1_556 S
O31 C39 1.256 . S
O32 Mn27 2.251 . S
O32 C37 1.241 . S
O33 Mn27 2.087 . S
O33 C38 1.256 . S
C34 O40 1.278 . S
C34 O41 1.241 1_565 S
C35 O21 1.244 . S
C35 O23 1.256 . S
C36 O25 1.239 . S
C36 O29 1.256 . S
C37 O26 1.278 . S
C37 O32 1.241 . S
C38 O28 1.244 . S
C38 O33 1.256 . S
C39 O30 1.239 1_556 S
C39 O31 1.256 . S
O40 Mn22 2.221 . S
O40 Mn24 2.290 . S
O40 C34 1.278 . S
O41 Mn24 2.251 1_545 S
O41 C34 1.241 1_545 S
O42 Mn43 2.163 . S
O42 C56 1.244 . S
Mn43 O42 2.163 . S
Mn43 O46 2.160 . S
Mn43 O47 2.221 . S
Mn43 O49 2.163 . S
Mn43 O51 2.160 . S
Mn43 O61 2.221 . S
O44 Mn45 2.087 . S
O44 C56 1.256 . S
Mn45 O44 2.087 . S
Mn45 O52 2.089 1_556 S
Mn45 O61 2.290 . S
Mn45 O62 2.251 . S
O46 Mn43 2.160 . S
O46 C57 1.239 . S
O47 Mn43 2.221 . S
O47 Mn48 2.290 . S
O47 C58 1.278 . S
Mn48 O47 2.290 . S
Mn48 O50 2.089 . S
Mn48 O53 2.251 . S
Mn48 O54 2.087 . S
O49 Mn43 2.163 . S
O49 C59 1.244 . S
O50 Mn48 2.089 . S
O50 C57 1.256 . S
O51 Mn43 2.160 . S
O51 C60 1.239 1_556 S
O52 Mn45 2.089 1_554 S
O52 C60 1.256 . S
O53 Mn48 2.251 . S
O53 C58 1.241 . S
O54 Mn48 2.087 . S
O54 C59 1.256 . S
C55 O61 1.278 . S
C55 O62 1.241 . S
C56 O42 1.244 . S
C56 O44 1.256 . S
C57 O46 1.239 . S
C57 O50 1.256 . S
C58 O47 1.278 . S
C58 O53 1.241 . S
C59 O49 1.244 . S
C59 O54 1.256 . S
C60 O51 1.239 1_554 S
C60 O52 1.256 . S
O61 Mn43 2.221 . S
O61 Mn45 2.290 . S
O61 C55 1.278 . S
O62 Mn45 2.251 . S
O62 C55 1.241 . S
O63 Mn64 2.163 . S
O63 C77 1.244 . S
Mn64 O63 2.163 . S
Mn64 O67 2.160 . S
Mn64 O68 2.221 . S
Mn64 O70 2.163 . S
Mn64 O72 2.160 1_556 S
Mn64 O82 2.221 . S
O65 Mn66 2.087 . S
O65 C77 1.256 1_554 S
Mn66 O65 2.087 . S
Mn66 O73 2.089 . S
Mn66 O82 2.290 1_554 S
Mn66 O83 2.251 1_554 S
O67 Mn64 2.160 . S
O67 C78 1.239 . S
O68 Mn64 2.221 . S
O68 Mn69 2.290 . S
O68 C79 1.278 . S
Mn69 O68 2.290 . S
Mn69 O71 2.089 . S
Mn69 O74 2.251 1_655 S
Mn69 O75 2.087 . S
O70 Mn64 2.163 . S
O70 C80 1.244 . S
O71 Mn69 2.089 . S
O71 C78 1.256 . S
O72 Mn64 2.160 1_554 S
O72 C81 1.239 . S
O73 Mn66 2.089 . S
O73 C81 1.256 . S
O74 Mn69 2.251 1_455 S
O74 C79 1.241 1_455 S
O75 Mn69 2.087 . S
O75 C80 1.256 . S
C76 O82 1.278 . S
C76 O83 1.241 . S
C77 O63 1.244 . S
C77 O65 1.256 1_556 S
C78 O67 1.239 . S
C78 O71 1.256 . S
C79 O68 1.278 . S
C79 O74 1.241 1_655 S
C80 O70 1.244 . S
C80 O75 1.256 . S
C81 O72 1.239 . S
C81 O73 1.256 . S
O82 Mn64 2.221 . S
O82 Mn66 2.290 1_556 S
O82 C76 1.278 . S
O83 Mn66 2.251 1_556 S
O83 C76 1.241 . S
O84 Mn85 2.163 . S
O84 C98 1.244 . S
Mn85 O84 2.163 . S
Mn85 O88 2.160 . S
Mn85 O89 2.221 . S
Mn85 O91 2.163 1_556 S
Mn85 O93 2.160 . S
Mn85 O103 2.221 . S
O86 Mn87 2.087 . S
O86 C98 1.256 . S
Mn87 O86 2.087 . S
Mn87 O94 2.089 . S
Mn87 O103 2.290 . S
Mn87 O104 2.251 . S
O88 Mn85 2.160 . S
O88 C99 1.239 . S
O89 Mn85 2.221 . S
O89 Mn90 2.290 1_556 S
O89 C100 1.278 . S
Mn90 O89 2.290 1_554 S
Mn90 O92 2.089 . S
Mn90 O95 2.251 . S
Mn90 O96 2.087 . S
O91 Mn85 2.163 1_554 S
O91 C101 1.244 . S
O92 Mn90 2.089 . S
O92 C99 1.256 1_554 S
O93 Mn85 2.160 . S
O93 C102 1.239 . S
O94 Mn87 2.089 . S
O94 C102 1.256 . S
O95 Mn90 2.251 . S
O95 C100 1.241 1_554 S
O96 Mn90 2.087 . S
O96 C101 1.256 . S
C97 O103 1.278 . S
C97 O104 1.241 . S
C98 O84 1.244 . S
C98 O86 1.256 . S
C99 O88 1.239 . S
C99 O92 1.256 1_556 S
C100 O89 1.278 . S
C100 O95 1.241 1_556 S
C101 O91 1.244 . S
C101 O96 1.256 . S
C102 O93 1.239 . S
C102 O94 1.256 . S
O103 Mn85 2.221 . S
O103 Mn87 2.290 . S
O103 C97 1.278 . S
O104 Mn87 2.251 . S
O104 C97 1.241 . S
O105 Mn106 2.163 . S
O105 C119 1.244 . S
Mn106 O105 2.163 . S
Mn106 O109 2.160 . S
Mn106 O110 2.221 . S
Mn106 O112 2.163 1_554 S
Mn106 O114 2.160 . S
Mn106 O124 2.221 . S
O107 Mn108 2.087 . S
O107 C119 1.256 . S
Mn108 O107 2.087 . S
Mn108 O115 2.089 . S
Mn108 O124 2.290 . S
Mn108 O125 2.251 1_565 S
O109 Mn106 2.160 . S
O109 C120 1.239 . S
O110 Mn106 2.221 . S
O110 Mn111 2.290 1_554 S
O110 C121 1.278 . S
Mn111 O110 2.290 1_556 S
Mn111 O113 2.089 . S
Mn111 O116 2.251 . S
Mn111 O117 2.087 . S
O112 Mn106 2.163 1_556 S
O112 C122 1.244 . S
O113 Mn111 2.089 . S
O113 C120 1.256 1_556 S
O114 Mn106 2.160 . S
O114 C123 1.239 . S
O115 Mn108 2.089 . S
O115 C123 1.256 . S
O116 Mn111 2.251 . S
O116 C121 1.241 1_556 S
O117 Mn111 2.087 . S
O117 C122 1.256 . S
C118 O124 1.278 . S
C118 O125 1.241 1_565 S
C119 O105 1.244 . S
C119 O107 1.256 . S
C120 O109 1.239 . S
C120 O113 1.256 1_554 S
C121 O110 1.278 . S
C121 O116 1.241 1_554 S
C122 O112 1.244 . S
C122 O117 1.256 . S
C123 O114 1.239 . S
C123 O115 1.256 . S
O124 Mn106 2.221 . S
O124 Mn108 2.290 . S
O124 C118 1.278 . S
O125 Mn108 2.251 1_545 S
O125 C118 1.241 1_545 S
O126 Mn127 2.163 . S
O126 C140 1.244 . S
Mn127 O126 2.163 . S
Mn127 O130 2.160 . S
Mn127 O131 2.221 . S
Mn127 O133 2.163 . S
Mn127 O135 2.160 . S
Mn127 O145 2.221 . S
O128 Mn129 2.087 . S
O128 C140 1.256 . S
Mn129 O128 2.087 . S
Mn129 O136 2.089 . S
Mn129 O145 2.290 . S
Mn129 O146 2.251 . S
O130 Mn127 2.160 . S
O130 C141 1.239 . S
O131 Mn127 2.221 . S
O131 Mn132 2.290 . S
O131 C142 1.278 . S
Mn132 O131 2.290 . S
Mn132 O134 2.089 . S
Mn132 O137 2.251 . S
Mn132 O138 2.087 1_554 S
O133 Mn127 2.163 . S
O133 C143 1.244 1_554 S
O134 Mn132 2.089 . S
O134 C141 1.256 . S
O135 Mn127 2.160 . S
O135 C144 1.239 . S
O136 Mn129 2.089 . S
O136 C144 1.256 . S
O137 Mn132 2.251 . S
O137 C142 1.241 . S
O138 Mn132 2.087 1_556 S
O138 C143 1.256 . S
C139 O145 1.278 . S
C139 O146 1.241 . S
C140 O126 1.244 . S
C140 O128 1.256 . S
C141 O130 1.239 . S
C141 O134 1.256 . S
C142 O131 1.278 . S
C142 O137 1.241 . S
C143 O133 1.244 1_556 S
C143 O138 1.256 . S
C144 O135 1.239 . S
C144 O136 1.256 . S
O145 Mn127 2.221 . S
O145 Mn129 2.290 . S
O145 C139 1.278 . S
O146 Mn129 2.251 . S
O146 C139 1.241 . S
O147 Mn148 2.163 . S
O147 C161 1.244 . S
Mn148 O147 2.163 . S
Mn148 O151 2.160 . S
Mn148 O152 2.221 . S
Mn148 O154 2.163 . S
Mn148 O156 2.160 . S
Mn148 O166 2.221 . S
O149 Mn150 2.087 . S
O149 C161 1.256 . S
Mn150 O149 2.087 . S
Mn150 O157 2.089 . S
Mn150 O166 2.290 . S
Mn150 O167 2.251 . S
O151 Mn148 2.160 . S
O151 C162 1.239 . S
O152 Mn148 2.221 . S
O152 Mn153 2.290 . S
O152 C163 1.278 . S
Mn153 O152 2.290 . S
Mn153 O155 2.089 . S
Mn153 O158 2.251 . S
Mn153 O159 2.087 1_556 S
O154 Mn148 2.163 . S
O154 C164 1.244 1_556 S
O155 Mn153 2.089 . S
O155 C162 1.256 . S
O156 Mn148 2.160 . S
O156 C165 1.239 . S
O157 Mn150 2.089 . S
O157 C165 1.256 . S
O158 Mn153 2.251 . S
O158 C163 1.241 . S
O159 Mn153 2.087 1_554 S
O159 C164 1.256 . S
C160 O166 1.278 . S
C160 O167 1.241 . S
C161 O147 1.244 . S
C161 O149 1.256 . S
C162 O151 1.239 . S
C162 O155 1.256 . S
C163 O152 1.278 . S
C163 O158 1.241 . S
C164 O154 1.244 1_554 S
C164 O159 1.256 . S
C165 O156 1.239 . S
C165 O157 1.256 . S
O166 Mn148 2.221 . S
O166 Mn150 2.290 . S
O166 C160 1.278 . S
O167 Mn150 2.251 . S
O167 C160 1.241 . S
O168 Mn169 2.163 . S
O168 C182 1.244 . S
Mn169 O168 2.163 . S
Mn169 O172 2.160 . S
Mn169 O173 2.221 . S
Mn169 O175 2.163 1_556 S
Mn169 O177 2.160 . S
Mn169 O187 2.221 . S
O170 Mn171 2.087 . S
O170 C182 1.256 . S
Mn171 O170 2.087 . S
Mn171 O178 2.089 . S
Mn171 O187 2.290 . S
Mn171 O188 2.251 . S
O172 Mn169 2.160 . S
O172 C183 1.239 . S
O173 Mn169 2.221 . S
O173 Mn174 2.290 1_556 S
O173 C184 1.278 . S
Mn174 O173 2.290 1_554 S
Mn174 O176 2.089 . S
Mn174 O179 2.251 . S
Mn174 O180 2.087 . S
O175 Mn169 2.163 1_554 S
O175 C185 1.244 . S
O176 Mn174 2.089 . S
O176 C183 1.256 1_554 S
O177 Mn169 2.160 . S
O177 C186 1.239 . S
O178 Mn171 2.089 . S
O178 C186 1.256 . S
O179 Mn174 2.251 . S
O179 C184 1.241 1_554 S
O180 Mn174 2.087 . S
O180 C185 1.256 . S
C181 O187 1.278 . S
C181 O188 1.241 . S
C182 O168 1.244 . S
C182 O170 1.256 . S
C183 O172 1.239 . S
C183 O176 1.256 1_556 S
C184 O173 1.278 . S
C184 O179 1.241 1_556 S
C185 O175 1.244 . S
C185 O180 1.256 . S
C186 O177 1.239 . S
C186 O178 1.256 . S
O187 Mn169 2.221 . S
O187 Mn171 2.290 . S
O187 C181 1.278 . S
O188 Mn171 2.251 . S
O188 C181 1.241 . S
O189 Mn190 2.163 . S
O189 C203 1.244 . S
Mn190 O189 2.163 . S
Mn190 O193 2.160 . S
Mn190 O194 2.221 . S
Mn190 O196 2.163 . S
Mn190 O198 2.160 . S
Mn190 O208 2.221 . S
O191 Mn192 2.087 . S
O191 C203 1.256 . S
Mn192 O191 2.087 . S
Mn192 O199 2.089 1_556 S
Mn192 O208 2.290 . S
Mn192 O209 2.251 1_545 S
O193 Mn190 2.160 . S
O193 C204 1.239 . S
O194 Mn190 2.221 . S
O194 Mn195 2.290 . S
O194 C205 1.278 . S
Mn195 O194 2.290 . S
Mn195 O197 2.089 . S
Mn195 O200 2.251 . S
Mn195 O201 2.087 . S
O196 Mn190 2.163 . S
O196 C206 1.244 . S
O197 Mn195 2.089 . S
O197 C204 1.256 . S
O198 Mn190 2.160 . S
O198 C207 1.239 1_556 S
O199 Mn192 2.089 1_554 S
O199 C207 1.256 . S
O200 Mn195 2.251 . S
O200 C205 1.241 . S
O201 Mn195 2.087 . S
O201 C206 1.256 . S
C202 O208 1.278 . S
C202 O209 1.241 1_545 S
C203 O189 1.244 . S
C203 O191 1.256 . S
C204 O193 1.239 . S
C204 O197 1.256 . S
C205 O194 1.278 . S
C205 O200 1.241 . S
C206 O196 1.244 . S
C206 O201 1.256 . S
C207 O198 1.239 1_554 S
C207 O199 1.256 . S
O208 Mn190 2.221 . S
O208 Mn192 2.290 . S
O208 C202 1.278 . S
O209 Mn192 2.251 1_565 S
O209 C202 1.241 1_565 S
O210 Mn211 2.163 . S
O210 C224 1.244 . S
Mn211 O210 2.163 . S
Mn211 O214 2.160 . S
Mn211 O215 2.221 . S
Mn211 O217 2.163 . S
Mn211 O219 2.160 . S
Mn211 O229 2.221 . S
O212 Mn213 2.087 . S
O212 C224 1.256 . S
Mn213 O212 2.087 . S
Mn213 O220 2.089 . S
Mn213 O229 2.290 . S
Mn213 O230 2.251 . S
O214 Mn211 2.160 . S
O214 C225 1.239 . S
O215 Mn211 2.221 . S
O215 Mn216 2.290 . S
O215 C226 1.278 . S
Mn216 O215 2.290 . S
Mn216 O218 2.089 . S
Mn216 O221 2.251 . S
Mn216 O222 2.087 1_554 S
O217 Mn211 2.163 . S
O217 C227 1.244 1_554 S
O218 Mn216 2.089 . S
O218 C225 1.256 . S
O219 Mn211 2.160 . S
O219 C228 1.239 . S
O220 Mn213 2.089 . S
O220 C228 1.256 . S
O221 Mn216 2.251 . S
O221 C226 1.241 . S
O222 Mn216 2.087 1_556 S
O222 C227 1.256 . S
C223 O229 1.278 . S
C223 O230 1.241 . S
C224 O210 1.244 . S
C224 O212 1.256 . S
C225 O214 1.239 . S
C225 O218 1.256 . S
C226 O215 1.278 . S
C226 O221 1.241 . S
C227 O217 1.244 1_556 S
C227 O222 1.256 . S
C228 O219 1.239 . S
C228 O220 1.256 . S
O229 Mn211 2.221 . S
O229 Mn213 2.290 . S
O229 C223 1.278 . S
O230 Mn213 2.251 . S
O230 C223 1.241 . S
O231 Mn232 2.163 . S
O231 C245 1.244 . S
Mn232 O231 2.163 . S
Mn232 O235 2.160 . S
Mn232 O236 2.221 . S
Mn232 O238 2.163 . S
Mn232 O240 2.160 1_554 S
Mn232 O250 2.221 . S
O233 Mn234 2.087 . S
O233 C245 1.256 1_556 S
Mn234 O233 2.087 . S
Mn234 O241 2.089 . S
Mn234 O250 2.290 1_556 S
Mn234 O251 2.251 1_556 S
O235 Mn232 2.160 . S
O235 C246 1.239 . S
O236 Mn232 2.221 . S
O236 Mn237 2.290 . S
O236 C247 1.278 . S
Mn237 O236 2.290 . S
Mn237 O239 2.089 . S
Mn237 O242 2.251 1_455 S
Mn237 O243 2.087 . S
O238 Mn232 2.163 . S
O238 C248 1.244 . S
O239 Mn237 2.089 . S
O239 C246 1.256 . S
O240 Mn232 2.160 1_556 S
O240 C249 1.239 . S
O241 Mn234 2.089 . S
O241 C249 1.256 . S
O242 Mn237 2.251 1_655 S
O242 C247 1.241 1_655 S
O243 Mn237 2.087 . S
O243 C248 1.256 . S
C244 O250 1.278 . S
C244 O251 1.241 . S
C245 O231 1.244 . S
C245 O233 1.256 1_554 S
C246 O235 1.239 . S
C246 O239 1.256 . S
C247 O236 1.278 . S
C247 O242 1.241 1_455 S
C248 O238 1.244 . S
C248 O243 1.256 . S
C249 O240 1.239 . S
C249 O241 1.256 . S
O250 Mn232 2.221 . S
O250 Mn234 2.290 1_554 S
O250 C244 1.278 . S
O251 Mn234 2.251 1_554 S
O251 C244 1.241 . S
O252 Mn253 2.163 . S
O252 C266 1.244 . S
Mn253 O252 2.163 . S
Mn253 O256 2.160 . S
Mn253 O257 2.221 . S
Mn253 O259 2.163 1_554 S
Mn253 O261 2.160 . S
Mn253 O271 2.221 . S
O254 Mn255 2.087 . S
O254 C266 1.256 . S
Mn255 O254 2.087 . S
Mn255 O262 2.089 . S
Mn255 O271 2.290 . S
Mn255 O272 2.251 . S
O256 Mn253 2.160 . S
O256 C267 1.239 . S
O257 Mn253 2.221 . S
O257 Mn258 2.290 1_554 S
O257 C268 1.278 . S
Mn258 O257 2.290 1_556 S
Mn258 O260 2.089 . S
Mn258 O263 2.251 . S
Mn258 O264 2.087 . S
O259 Mn253 2.163 1_556 S
O259 C269 1.244 . S
O260 Mn258 2.089 . S
O260 C267 1.256 1_556 S
O261 Mn253 2.160 . S
O261 C270 1.239 . S
O262 Mn255 2.089 . S
O262 C270 1.256 . S
O263 Mn258 2.251 . S
O263 C268 1.241 1_556 S
O264 Mn258 2.087 . S
O264 C269 1.256 . S
C265 O271 1.278 . S
C265 O272 1.241 . S
C266 O252 1.244 . S
C266 O254 1.256 . S
C267 O256 1.239 . S
C267 O260 1.256 1_554 S
C268 O257 1.278 . S
C268 O263 1.241 1_554 S
C269 O259 1.244 . S
C269 O264 1.256 . S
C270 O261 1.239 . S
C270 O262 1.256 . S
O271 Mn253 2.221 . S
O271 Mn255 2.290 . S
O271 C265 1.278 . S
O272 Mn255 2.251 . S
O272 C265 1.241 . S
O273 Mn274 2.163 . S
O273 C287 1.244 . S
Mn274 O273 2.163 . S
Mn274 O277 2.160 . S
Mn274 O278 2.221 . S
Mn274 O280 2.163 . S
Mn274 O282 2.160 1_556 S
Mn274 O292 2.221 . S
O275 Mn276 2.087 . S
O275 C287 1.256 1_554 S
Mn276 O275 2.087 . S
Mn276 O283 2.089 . S
Mn276 O292 2.290 1_554 S
Mn276 O293 2.251 1_554 S
O277 Mn274 2.160 . S
O277 C288 1.239 . S
O278 Mn274 2.221 . S
O278 Mn279 2.290 . S
O278 C289 1.278 . S
Mn279 O278 2.290 . S
Mn279 O281 2.089 . S
Mn279 O284 2.251 1_455 S
Mn279 O285 2.087 . S
O280 Mn274 2.163 . S
O280 C290 1.244 . S
O281 Mn279 2.089 . S
O281 C288 1.256 . S
O282 Mn274 2.160 1_554 S
O282 C291 1.239 . S
O283 Mn276 2.089 . S
O283 C291 1.256 . S
O284 Mn279 2.251 1_655 S
O284 C289 1.241 1_655 S
O285 Mn279 2.087 . S
O285 C290 1.256 . S
C286 O292 1.278 . S
C286 O293 1.241 . S
C287 O273 1.244 . S
C287 O275 1.256 1_556 S
C288 O277 1.239 . S
C288 O281 1.256 . S
C289 O278 1.278 . S
C289 O284 1.241 1_455 S
C290 O280 1.244 . S
C290 O285 1.256 . S
C291 O282 1.239 . S
C291 O283 1.256 . S
O292 Mn274 2.221 . S
O292 Mn276 2.290 1_556 S
O292 C286 1.278 . S
O293 Mn276 2.251 1_556 S
O293 C286 1.241 . S
O294 Mn295 2.163 . S
O294 C308 1.244 . S
Mn295 O294 2.163 . S
Mn295 O298 2.160 . S
Mn295 O299 2.221 . S
Mn295 O301 2.163 . S
Mn295 O303 2.160 . S
Mn295 O313 2.221 . S
O296 Mn297 2.087 . S
O296 C308 1.256 . S
Mn297 O296 2.087 . S
Mn297 O304 2.089 . S
Mn297 O313 2.290 . S
Mn297 O314 2.251 . S
O298 Mn295 2.160 . S
O298 C309 1.239 . S
O299 Mn295 2.221 . S
O299 Mn300 2.290 . S
O299 C310 1.278 . S
Mn300 O299 2.290 . S
Mn300 O302 2.089 . S
Mn300 O305 2.251 . S
Mn300 O306 2.087 1_556 S
O301 Mn295 2.163 . S
O301 C311 1.244 1_556 S
O302 Mn300 2.089 . S
O302 C309 1.256 . S
O303 Mn295 2.160 . S
O303 C312 1.239 . S
O304 Mn297 2.089 . S
O304 C312 1.256 . S
O305 Mn300 2.251 . S
O305 C310 1.241 . S
O306 Mn300 2.087 1_554 S
O306 C311 1.256 . S
C307 O313 1.278 . S
C307 O314 1.241 . S
C308 O294 1.244 . S
C308 O296 1.256 . S
C309 O298 1.239 . S
C309 O302 1.256 . S
C310 O299 1.278 . S
C310 O305 1.241 . S
C311 O301 1.244 1_554 S
C311 O306 1.256 . S
C312 O303 1.239 . S
C312 O304 1.256 . S
O313 Mn295 2.221 . S
O313 Mn297 2.290 . S
O313 C307 1.278 . S
O314 Mn297 2.251 . S
O314 C307 1.241 . S
O315 Mn316 2.163 . S
O315 C329 1.244 . S
Mn316 O315 2.163 . S
Mn316 O319 2.160 . S
Mn316 O320 2.221 . S
Mn316 O322 2.163 . S
Mn316 O324 2.160 . S
Mn316 O334 2.221 . S
O317 Mn318 2.087 . S
O317 C329 1.256 . S
Mn318 O317 2.087 . S
Mn318 O325 2.089 . S
Mn318 O334 2.290 . S
Mn318 O335 2.251 . S
O319 Mn316 2.160 . S
O319 C330 1.239 . S
O320 Mn316 2.221 . S
O320 Mn321 2.290 . S
O320 C331 1.278 . S
Mn321 O320 2.290 . S
Mn321 O323 2.089 . S
Mn321 O326 2.251 . S
Mn321 O327 2.087 1_554 S
O322 Mn316 2.163 . S
O322 C332 1.244 1_554 S
O323 Mn321 2.089 . S
O323 C330 1.256 . S
O324 Mn316 2.160 . S
O324 C333 1.239 . S
O325 Mn318 2.089 . S
O325 C333 1.256 . S
O326 Mn321 2.251 . S
O326 C331 1.241 . S
O327 Mn321 2.087 1_556 S
O327 C332 1.256 . S
C328 O334 1.278 . S
C328 O335 1.241 . S
C329 O315 1.244 . S
C329 O317 1.256 . S
C330 O319 1.239 . S
C330 O323 1.256 . S
C331 O320 1.278 . S
C331 O326 1.241 . S
C332 O322 1.244 1_556 S
C332 O327 1.256 . S
C333 O324 1.239 . S
C333 O325 1.256 . S
O334 Mn316 2.221 . S
O334 Mn318 2.290 . S
O334 C328 1.278 . S
O335 Mn318 2.251 . S
O335 C328 1.241 . S
C18 C17 1.479 . S
C39 C38 1.470 . S
C59 C60 1.492 . S
C80 C81 1.484 . S
C101 C102 1.474 . S
C122 C123 1.490 . S
C144 C143 1.487 . S
C164 C165 1.479 . S
C185 C186 1.485 . S
C206 C207 1.468 . S
C227 C228 1.485 . S
C248 C249 1.490 . S
C269 C270 1.479 . S
C290 C291 1.486 . S
C312 C311 1.479 . S
C332 C333 1.474 . S
C15 C246 1.253 . S
C36 C331 1.205 . S
C58 C205 0.906 . S
C79 C289 0.940 1_655 S
C100 C288 1.243 . S
C247 C120 1.280 1_455 S
C141 C330 1.347 . S
C163 C204 1.303 . S
C78 C184 1.405 . S
C37 C225 1.288 . S
C268 C121 0.983 . S
C162 C309 1.187 . S
C183 C99 1.157 1_655 S
C142 C226 0.875 . S
C57 C310 1.213 . S
C16 C267 1.378 1_455 S
C14 C97 1.324 1_554 S
C35 C119 1.400 . S
C55 C140 1.401 . S
C76 C160 1.577 . S
C265 C181 1.583 1_554 S
C286 C203 1.419 . S
C224 C308 1.353 . S
C328 C244 1.545 . S
C34 C161 1.309 1_565 S
C98 C56 1.328 . S
C118 C77 1.436 1_564 S
C13 C139 1.549 . S
C329 C202 1.352 1_565 S
C266 C223 1.404 . S
C287 C245 1.336 1_546 S
C307 C182 1.293 . S
