# Generated by pormake.
# Topology wna, (6)-cn, num edge types: 1
# Building blocks:
#     Node 0, Type 0, BuildingBlock: GEDQOX_clean_sbu_0, # of connection points: 6
#     Node 1, Type 0, BuildingBlock: GEDQOX_clean_sbu_0, # of connection points: 6
#     Node 2, Type 0, BuildingBlock: GEDQOX_clean_sbu_0, # of connection points: 6
#     Node 3, Type 0, BuildingBlock: GEDQOX_clean_sbu_0, # of connection points: 6
#     Node 4, Type 0, BuildingBlock: GEDQOX_clean_sbu_0, # of connection points: 6
#     Node 5, Type 0, BuildingBlock: GEDQOX_clean_sbu_0, # of connection points: 6
#     Node 6, Type 0, BuildingBlock: GEDQOX_clean_sbu_0, # of connection points: 6
#     Node 7, Type 0, BuildingBlock: GEDQOX_clean_sbu_0, # of connection points: 6
#     Node 8, Type 0, BuildingBlock: GEDQOX_clean_sbu_0, # of connection points: 6
#     Node 9, Type 0, BuildingBlock: GEDQOX_clean_sbu_0, # of connection points: 6
#     Node 10, Type 0, BuildingBlock: GEDQOX_clean_sbu_0, # of connection points: 6
#     Node 11, Type 0, BuildingBlock: GEDQOX_clean_sbu_0, # of connection points: 6
#     Node 12, Type 0, BuildingBlock: GEDQOX_clean_sbu_0, # of connection points: 6
#     Node 13, Type 0, BuildingBlock: GEDQOX_clean_sbu_0, # of connection points: 6
#     Node 14, Type 0, BuildingBlock: GEDQOX_clean_sbu_0, # of connection points: 6
#     Node 15, Type 0, BuildingBlock: GEDQOX_clean_sbu_0, # of connection points: 6
#     Node 16, Type 0, BuildingBlock: GEDQOX_clean_sbu_0, # of connection points: 6
#     Node 17, Type 0, BuildingBlock: GEDQOX_clean_sbu_0, # of connection points: 6
#     Node 18, Type 0, BuildingBlock: GEDQOX_clean_sbu_0, # of connection points: 6
#     Node 19, Type 0, BuildingBlock: GEDQOX_clean_sbu_0, # of connection points: 6
#     Node 20, Type 0, BuildingBlock: GEDQOX_clean_sbu_0, # of connection points: 6
#     Node 21, Type 0, BuildingBlock: GEDQOX_clean_sbu_0, # of connection points: 6
#     Node 22, Type 0, BuildingBlock: GEDQOX_clean_sbu_0, # of connection points: 6
#     Node 23, Type 0, BuildingBlock: GEDQOX_clean_sbu_0, # of connection points: 6
#     Node 24, Type 0, BuildingBlock: GEDQOX_clean_sbu_0, # of connection points: 6
#     Node 25, Type 0, BuildingBlock: GEDQOX_clean_sbu_0, # of connection points: 6
#     Node 26, Type 0, BuildingBlock: GEDQOX_clean_sbu_0, # of connection points: 6
#     Node 27, Type 0, BuildingBlock: GEDQOX_clean_sbu_0, # of connection points: 6
#     Node 28, Type 0, BuildingBlock: GEDQOX_clean_sbu_0, # of connection points: 6
#     Node 29, Type 0, BuildingBlock: GEDQOX_clean_sbu_0, # of connection points: 6
#     Node 30, Type 0, BuildingBlock: GEDQOX_clean_sbu_0, # of connection points: 6
#     Node 31, Type 0, BuildingBlock: GEDQOX_clean_sbu_0, # of connection points: 6
#     Node 32, Type 0, BuildingBlock: GEDQOX_clean_sbu_0, # of connection points: 6
#     Node 33, Type 0, BuildingBlock: GEDQOX_clean_sbu_0, # of connection points: 6
#     Node 34, Type 0, BuildingBlock: GEDQOX_clean_sbu_0, # of connection points: 6
#     Node 35, Type 0, BuildingBlock: GEDQOX_clean_sbu_0, # of connection points: 6
#     Edge 36, Type (0, 0), BuildingBlock: TEMPAE_clean_linker_10, # of connection points: 2
#     Edge 37, Type (0, 0), BuildingBlock: TEMPAE_clean_linker_10, # of connection points: 2
#     Edge 38, Type (0, 0), BuildingBlock: TEMPAE_clean_linker_10, # of connection points: 2
#     Edge 39, Type (0, 0), BuildingBlock: TEMPAE_clean_linker_10, # of connection points: 2
#     Edge 40, Type (0, 0), BuildingBlock: TEMPAE_clean_linker_10, # of connection points: 2
#     Edge 41, Type (0, 0), BuildingBlock: TEMPAE_clean_linker_10, # of connection points: 2
#     Edge 42, Type (0, 0), BuildingBlock: TEMPAE_clean_linker_10, # of connection points: 2
#     Edge 43, Type (0, 0), BuildingBlock: TEMPAE_clean_linker_10, # of connection points: 2
#     Edge 44, Type (0, 0), BuildingBlock: TEMPAE_clean_linker_10, # of connection points: 2
#     Edge 45, Type (0, 0), BuildingBlock: TEMPAE_clean_linker_10, # of connection points: 2
#     Edge 46, Type (0, 0), BuildingBlock: TEMPAE_clean_linker_10, # of connection points: 2
#     Edge 47, Type (0, 0), BuildingBlock: TEMPAE_clean_linker_10, # of connection points: 2
#     Edge 48, Type (0, 0), BuildingBlock: TEMPAE_clean_linker_10, # of connection points: 2
#     Edge 49, Type (0, 0), BuildingBlock: TEMPAE_clean_linker_10, # of connection points: 2
#     Edge 50, Type (0, 0), BuildingBlock: TEMPAE_clean_linker_10, # of connection points: 2
#     Edge 51, Type (0, 0), BuildingBlock: TEMPAE_clean_linker_10, # of connection points: 2
#     Edge 52, Type (0, 0), BuildingBlock: TEMPAE_clean_linker_10, # of connection points: 2
#     Edge 53, Type (0, 0), BuildingBlock: TEMPAE_clean_linker_10, # of connection points: 2
#     Edge 54, Type (0, 0), BuildingBlock: TEMPAE_clean_linker_10, # of connection points: 2
#     Edge 55, Type (0, 0), BuildingBlock: TEMPAE_clean_linker_10, # of connection points: 2
#     Edge 56, Type (0, 0), BuildingBlock: TEMPAE_clean_linker_10, # of connection points: 2
#     Edge 57, Type (0, 0), BuildingBlock: TEMPAE_clean_linker_10, # of connection points: 2
#     Edge 58, Type (0, 0), BuildingBlock: TEMPAE_clean_linker_10, # of connection points: 2
#     Edge 59, Type (0, 0), BuildingBlock: TEMPAE_clean_linker_10, # of connection points: 2
#     Edge 60, Type (0, 0), BuildingBlock: TEMPAE_clean_linker_10, # of connection points: 2
#     Edge 61, Type (0, 0), BuildingBlock: TEMPAE_clean_linker_10, # of connection points: 2
#     Edge 62, Type (0, 0), BuildingBlock: TEMPAE_clean_linker_10, # of connection points: 2
#     Edge 63, Type (0, 0), BuildingBlock: TEMPAE_clean_linker_10, # of connection points: 2
#     Edge 64, Type (0, 0), BuildingBlock: TEMPAE_clean_linker_10, # of connection points: 2
#     Edge 65, Type (0, 0), BuildingBlock: TEMPAE_clean_linker_10, # of connection points: 2
#     Edge 66, Type (0, 0), BuildingBlock: TEMPAE_clean_linker_10, # of connection points: 2
#     Edge 67, Type (0, 0), BuildingBlock: TEMPAE_clean_linker_10, # of connection points: 2
#     Edge 68, Type (0, 0), BuildingBlock: TEMPAE_clean_linker_10, # of connection points: 2
#     Edge 69, Type (0, 0), BuildingBlock: TEMPAE_clean_linker_10, # of connection points: 2
#     Edge 70, Type (0, 0), BuildingBlock: TEMPAE_clean_linker_10, # of connection points: 2
#     Edge 71, Type (0, 0), BuildingBlock: TEMPAE_clean_linker_10, # of connection points: 2
#     Edge 72, Type (0, 0), BuildingBlock: TEMPAE_clean_linker_10, # of connection points: 2
#     Edge 73, Type (0, 0), BuildingBlock: TEMPAE_clean_linker_10, # of connection points: 2
#     Edge 74, Type (0, 0), BuildingBlock: TEMPAE_clean_linker_10, # of connection points: 2
#     Edge 75, Type (0, 0), BuildingBlock: TEMPAE_clean_linker_10, # of connection points: 2
#     Edge 76, Type (0, 0), BuildingBlock: TEMPAE_clean_linker_10, # of connection points: 2
#     Edge 77, Type (0, 0), BuildingBlock: TEMPAE_clean_linker_10, # of connection points: 2
#     Edge 78, Type (0, 0), BuildingBlock: TEMPAE_clean_linker_10, # of connection points: 2
#     Edge 79, Type (0, 0), BuildingBlock: TEMPAE_clean_linker_10, # of connection points: 2
#     Edge 80, Type (0, 0), BuildingBlock: TEMPAE_clean_linker_10, # of connection points: 2
#     Edge 81, Type (0, 0), BuildingBlock: TEMPAE_clean_linker_10, # of connection points: 2
#     Edge 82, Type (0, 0), BuildingBlock: TEMPAE_clean_linker_10, # of connection points: 2
#     Edge 83, Type (0, 0), BuildingBlock: TEMPAE_clean_linker_10, # of connection points: 2
#     Edge 84, Type (0, 0), BuildingBlock: TEMPAE_clean_linker_10, # of connection points: 2
#     Edge 85, Type (0, 0), BuildingBlock: TEMPAE_clean_linker_10, # of connection points: 2
#     Edge 86, Type (0, 0), BuildingBlock: TEMPAE_clean_linker_10, # of connection points: 2
#     Edge 87, Type (0, 0), BuildingBlock: TEMPAE_clean_linker_10, # of connection points: 2
#     Edge 88, Type (0, 0), BuildingBlock: TEMPAE_clean_linker_10, # of connection points: 2
#     Edge 89, Type (0, 0), BuildingBlock: TEMPAE_clean_linker_10, # of connection points: 2
#     Edge 90, Type (0, 0), BuildingBlock: TEMPAE_clean_linker_10, # of connection points: 2
#     Edge 91, Type (0, 0), BuildingBlock: TEMPAE_clean_linker_10, # of connection points: 2
#     Edge 92, Type (0, 0), BuildingBlock: TEMPAE_clean_linker_10, # of connection points: 2
#     Edge 93, Type (0, 0), BuildingBlock: TEMPAE_clean_linker_10, # of connection points: 2
#     Edge 94, Type (0, 0), BuildingBlock: TEMPAE_clean_linker_10, # of connection points: 2
#     Edge 95, Type (0, 0), BuildingBlock: TEMPAE_clean_linker_10, # of connection points: 2
#     Edge 96, Type (0, 0), BuildingBlock: TEMPAE_clean_linker_10, # of connection points: 2
#     Edge 97, Type (0, 0), BuildingBlock: TEMPAE_clean_linker_10, # of connection points: 2
#     Edge 98, Type (0, 0), BuildingBlock: TEMPAE_clean_linker_10, # of connection points: 2
#     Edge 99, Type (0, 0), BuildingBlock: TEMPAE_clean_linker_10, # of connection points: 2
#     Edge 100, Type (0, 0), BuildingBlock: TEMPAE_clean_linker_10, # of connection points: 2
#     Edge 101, Type (0, 0), BuildingBlock: TEMPAE_clean_linker_10, # of connection points: 2
#     Edge 102, Type (0, 0), BuildingBlock: TEMPAE_clean_linker_10, # of connection points: 2
#     Edge 103, Type (0, 0), BuildingBlock: TEMPAE_clean_linker_10, # of connection points: 2
#     Edge 104, Type (0, 0), BuildingBlock: TEMPAE_clean_linker_10, # of connection points: 2
#     Edge 105, Type (0, 0), BuildingBlock: TEMPAE_clean_linker_10, # of connection points: 2
#     Edge 106, Type (0, 0), BuildingBlock: TEMPAE_clean_linker_10, # of connection points: 2
#     Edge 107, Type (0, 0), BuildingBlock: TEMPAE_clean_linker_10, # of connection points: 2
#     Edge 108, Type (0, 0), BuildingBlock: TEMPAE_clean_linker_10, # of connection points: 2
#     Edge 109, Type (0, 0), BuildingBlock: TEMPAE_clean_linker_10, # of connection points: 2
#     Edge 110, Type (0, 0), BuildingBlock: TEMPAE_clean_linker_10, # of connection points: 2
#     Edge 111, Type (0, 0), BuildingBlock: TEMPAE_clean_linker_10, # of connection points: 2
#     Edge 112, Type (0, 0), BuildingBlock: TEMPAE_clean_linker_10, # of connection points: 2
#     Edge 113, Type (0, 0), BuildingBlock: TEMPAE_clean_linker_10, # of connection points: 2
#     Edge 114, Type (0, 0), BuildingBlock: TEMPAE_clean_linker_10, # of connection points: 2
#     Edge 115, Type (0, 0), BuildingBlock: TEMPAE_clean_linker_10, # of connection points: 2
#     Edge 116, Type (0, 0), BuildingBlock: TEMPAE_clean_linker_10, # of connection points: 2
#     Edge 117, Type (0, 0), BuildingBlock: TEMPAE_clean_linker_10, # of connection points: 2
#     Edge 118, Type (0, 0), BuildingBlock: TEMPAE_clean_linker_10, # of connection points: 2
#     Edge 119, Type (0, 0), BuildingBlock: TEMPAE_clean_linker_10, # of connection points: 2
#     Edge 120, Type (0, 0), BuildingBlock: TEMPAE_clean_linker_10, # of connection points: 2
#     Edge 121, Type (0, 0), BuildingBlock: TEMPAE_clean_linker_10, # of connection points: 2
#     Edge 122, Type (0, 0), BuildingBlock: TEMPAE_clean_linker_10, # of connection points: 2
#     Edge 123, Type (0, 0), BuildingBlock: TEMPAE_clean_linker_10, # of connection points: 2
#     Edge 124, Type (0, 0), BuildingBlock: TEMPAE_clean_linker_10, # of connection points: 2
#     Edge 125, Type (0, 0), BuildingBlock: TEMPAE_clean_linker_10, # of connection points: 2
#     Edge 126, Type (0, 0), BuildingBlock: TEMPAE_clean_linker_10, # of connection points: 2
#     Edge 127, Type (0, 0), BuildingBlock: TEMPAE_clean_linker_10, # of connection points: 2
#     Edge 128, Type (0, 0), BuildingBlock: TEMPAE_clean_linker_10, # of connection points: 2
#     Edge 129, Type (0, 0), BuildingBlock: TEMPAE_clean_linker_10, # of connection points: 2
#     Edge 130, Type (0, 0), BuildingBlock: TEMPAE_clean_linker_10, # of connection points: 2
#     Edge 131, Type (0, 0), BuildingBlock: TEMPAE_clean_linker_10, # of connection points: 2
#     Edge 132, Type (0, 0), BuildingBlock: TEMPAE_clean_linker_10, # of connection points: 2
#     Edge 133, Type (0, 0), BuildingBlock: TEMPAE_clean_linker_10, # of connection points: 2
#     Edge 134, Type (0, 0), BuildingBlock: TEMPAE_clean_linker_10, # of connection points: 2
#     Edge 135, Type (0, 0), BuildingBlock: TEMPAE_clean_linker_10, # of connection points: 2
#     Edge 136, Type (0, 0), BuildingBlock: TEMPAE_clean_linker_10, # of connection points: 2
#     Edge 137, Type (0, 0), BuildingBlock: TEMPAE_clean_linker_10, # of connection points: 2
#     Edge 138, Type (0, 0), BuildingBlock: TEMPAE_clean_linker_10, # of connection points: 2
#     Edge 139, Type (0, 0), BuildingBlock: TEMPAE_clean_linker_10, # of connection points: 2
#     Edge 140, Type (0, 0), BuildingBlock: TEMPAE_clean_linker_10, # of connection points: 2
#     Edge 141, Type (0, 0), BuildingBlock: TEMPAE_clean_linker_10, # of connection points: 2
#     Edge 142, Type (0, 0), BuildingBlock: TEMPAE_clean_linker_10, # of connection points: 2
#     Edge 143, Type (0, 0), BuildingBlock: TEMPAE_clean_linker_10, # of connection points: 2
# Relax obj value: 0.270
# Max RMSD: 0.239
# Mean RMSD: 0.210
data_MOF--net-wna--node1-GEDQOX_clean_sbu_0--edge1-TEMPAE_clean_linker_10
_symmetry_space_group_name_H-M    P1
_symmetry_Int_Tables_number       1
_symmetry_cell_setting            triclinic
loop_
_symmetry_equiv_pos_as_xyz
'x, y, z'
_cell_length_a     45.226358
_cell_length_b     45.239684
_cell_length_c     112.67928
_cell_angle_alpha  90.052103
_cell_angle_beta   90.046763
_cell_angle_gamma 120.07812
loop_
_atom_site_label
_atom_site_type_symbol
_atom_site_fract_x
_atom_site_fract_y
_atom_site_fract_z
_atom_type_partial_charge
Nd0 Nd 0.22422 0.3607 0.19889 0.0
Nd1 Nd 0.17165 0.28577 0.1922 0.0
C2 C 0.26062 0.42777 0.20058 0.0
C3 C 0.27366 0.45425 0.19134 0.0
C4 C 0.25553 0.44841 0.18065 0.0
C5 C 0.27321 0.46298 0.17013 0.0
C6 C 0.30907 0.48218 0.17022 0.0
C7 C 0.3258 0.49389 0.18122 0.0
C8 C 0.30816 0.47965 0.19175 0.0
C9 C 0.24512 0.31352 0.20176 0.0
C10 C 0.21556 0.33771 0.17076 0.0
C11 C 0.13328 0.22161 0.18583 0.0
C12 C 0.10008 0.19321 0.18976 0.0
C13 C 0.09551 0.17946 0.20126 0.0
C14 C 1.06312 0.15431 0.20504 0.0
C15 C 1.03486 0.14321 0.19748 0.0
C16 C 1.03948 0.15657 0.18597 0.0
C17 C 0.07187 0.18113 0.18211 0.0
C18 C 0.14565 0.32809 0.19644 0.0
C19 C 0.18062 0.308 0.21974 0.0
O20 O 0.22745 0.41062 0.20221 0.0
O21 O 0.2742 0.40809 0.20025 0.0
O22 O 0.25217 0.33774 0.2094 0.0
O23 O 0.22855 0.31559 0.19319 0.0
O24 O 0.22823 0.36316 0.1785 0.0
O25 O 0.19571 0.3056 0.17396 0.0
O26 O 0.15925 0.2319 0.19315 0.0
O27 O 0.13207 0.24681 0.18055 0.0
O28 O 0.13092 0.29693 0.20028 0.0
O29 O 0.17211 0.33513 0.19074 0.0
O30 O 0.17625 0.2833 0.21239 0.0
O31 O 0.19393 0.33999 0.21613 0.0
H32 H 0.22865 0.42933 0.18013 0.0
H33 H 0.2596 0.45476 0.16179 0.0
H34 H 0.35338 0.50939 0.18168 0.0
H35 H 0.32251 0.48488 0.19995 0.0
H36 H 0.11669 0.18851 0.20741 0.0
H37 H 1.05996 0.14414 0.21395 0.0
H38 H 1.01798 0.1479 0.17995 0.0
H39 H 0.07475 0.19125 0.1732 0.0
Nd40 Nd 0.7664 0.87189 0.20566 0.0
Nd41 Nd 0.83403 0.90063 0.19203 0.0
C42 C 0.70386 0.83811 0.21429 0.0
C43 C 0.67814 0.8487 0.21586 0.0
C44 C 0.65959 0.84995 0.20604 0.0
C45 C 0.64495 0.87064 0.20639 0.0
C46 C 0.64903 0.89044 0.21648 0.0
C47 C 0.66346 0.88573 0.22679 0.0
C48 C 0.67744 0.86444 0.22654 0.0
C49 C 0.80337 0.942 0.20416 0.0
C50 C 0.76887 0.88215 0.17654 0.0
C51 C 0.89821 0.93369 0.18513 0.0
C52 C 0.92699 0.93149 0.18999 0.0
C53 C 0.95966 0.95011 0.18506 0.0
C54 C 0.98603 0.94525 0.18927 0.0
C55 C 0.97985 0.92175 0.19846 0.0
C56 C 0.94741 0.90447 0.20372 0.0
C57 C 0.92116 0.9091 0.19945 0.0
C58 C 0.795 0.8303 0.19382 0.0
C59 C 0.83244 0.88847 0.22076 0.0
O60 O 0.71131 0.83448 0.20335 0.0
O61 O 0.73112 0.85444 0.22092 0.0
O62 O 0.78502 0.92599 0.21331 0.0
O63 O 0.79922 0.92113 0.19612 0.0
O64 O 0.75113 0.86272 0.18564 0.0
O65 O 0.80156 0.90512 0.17762 0.0
O66 O 0.88527 0.94697 0.19231 0.0
O67 O 0.87486 0.90576 0.17994 0.0
O68 O 0.81159 0.84575 0.18427 0.0
O69 O 0.80131 0.85196 0.20173 0.0
O70 O 0.85025 0.90803 0.21178 0.0
O71 O 0.79958 0.86636 0.21962 0.0
H72 H 0.65927 0.83784 0.19771 0.0
H73 H 0.63385 0.87407 0.19834 0.0
H74 H 0.66655 0.90077 0.23467 0.0
H75 H 0.69088 0.86329 0.23434 0.0
H76 H 0.96448 0.96751 0.17776 0.0
H77 H 1.01075 0.95868 0.18498 0.0
H78 H 0.94205 0.8866 0.21091 0.0
H79 H 0.89597 0.89437 0.20331 0.0
Nd80 Nd 0.23641 0.89155 0.20711 0.0
Nd81 Nd 0.21863 0.94387 0.19631 0.0
C82 C 0.26553 0.8549 0.21168 0.0
C83 C 0.26577 0.82764 0.20466 0.0
C84 C 0.27045 0.83136 0.1923 0.0
C85 C 0.25733 0.80261 0.18503 0.0
C86 C 0.23899 0.76995 0.19007 0.0
C87 C 0.23969 0.76644 0.20245 0.0
C88 C 0.25298 0.79526 0.20973 0.0
C89 C 0.1683 0.8692 0.20452 0.0
C90 C 0.22855 0.896 0.17777 0.0
C91 C 0.19242 0.983 0.19127 0.0
C92 C 0.19515 1.01415 0.19631 0.0
C93 C 0.17731 1.02856 0.19104 0.0
C94 C 0.18181 0.05967 0.19518 0.0
C95 C 0.20439 0.07691 0.20462 0.0
C96 C 0.22135 0.06169 0.21014 0.0
C97 C 0.21668 1.03046 0.20603 0.0
C98 C 0.28678 0.96672 0.20033 0.0
C99 C 0.22227 0.93702 0.22551 0.0
O100 O 0.28206 0.88562 0.20715 0.0
O101 O 0.23547 0.84725 0.21584 0.0
O102 O 0.18049 0.86039 0.21343 0.0
O103 O 0.19148 0.88687 0.19723 0.0
O104 O 0.24323 0.88873 0.18664 0.0
O105 O 0.21196 0.91265 0.17965 0.0
O106 O 0.17676 0.95556 0.19784 0.0
O107 O 0.22021 0.98666 0.1863 0.0
O108 O 0.27603 0.97532 0.19098 0.0
O109 O 0.26219 0.94829 0.2069 0.0
O110 O 0.20897 0.94497 0.21643 0.0
O111 O 0.23925 0.92055 0.22399 0.0
H112 H 0.28083 0.85615 0.18816 0.0
H113 H 0.25756 0.80592 0.1755 0.0
H114 H 0.22582 0.74151 0.20658 0.0
H115 H 0.24945 0.79191 0.21925 0.0
H116 H 0.16055 1.0162 0.18355 0.0
H117 H 0.16871 0.07092 0.19064 0.0
H118 H 0.23864 0.07423 0.2175 0.0
H119 H 0.23049 1.01945 0.21023 0.0
Nd120 Nd 0.31623 0.16905 0.34655 0.0
Nd121 Nd 0.31349 0.1671 0.36839 0.0
C122 C 0.3056 0.16366 0.32328 0.0
C123 C 0.29825 0.1382 0.31405 0.0
C124 C 0.28858 0.10445 0.31705 0.0
C125 C 0.27916 0.07977 0.30818 0.0
C126 C 0.27949 0.08862 0.29621 0.0
C127 C 0.28982 0.12265 0.29327 0.0
C128 C 0.29909 0.14724 0.30214 0.0
C129 C 0.35987 0.14221 0.35374 0.0
C130 C 0.25282 0.09663 0.35769 0.0
C131 C 0.33363 0.16819 0.39055 0.0
C132 C 0.35182 0.18744 0.40118 0.0
C133 C 0.35745 0.16973 0.41025 0.0
C134 C 0.37509 0.1867 0.42048 0.0
C135 C 0.38762 0.2219 0.42187 0.0
C136 C 0.3818 0.23972 0.41275 0.0
C137 C 0.36409 0.22258 0.40242 0.0
C138 C 0.25735 0.17368 0.36195 0.0
C139 C 0.35891 0.24767 0.35739 0.0
O140 O 0.28161 0.15533 0.33112 0.0
O141 O 0.33592 0.17795 0.32804 0.0
O142 O 0.36874 0.16887 0.34714 0.0
O143 O 0.32977 0.13343 0.35748 0.0
O144 O 0.26437 0.11588 0.34805 0.0
O145 O 0.27047 0.10969 0.36753 0.0
O146 O 0.35201 0.17041 0.38129 0.0
O147 O 0.30458 0.16607 0.38782 0.0
O148 O 0.2577 0.15391 0.37022 0.0
O149 O 0.28732 0.19069 0.35722 0.0
O150 O 0.34973 0.2287 0.3672 0.0
O151 O 0.34834 0.22989 0.34742 0.0
H152 H 0.28784 0.09715 0.32625 0.0
H153 H 0.27164 0.05381 0.31066 0.0
H154 H 0.28995 0.13007 0.28412 0.0
H155 H 0.30631 0.17318 0.29973 0.0
H156 H 0.34809 0.14258 0.40942 0.0
H157 H 0.37842 0.17205 0.42741 0.0
H158 H 0.39121 0.26685 0.41356 0.0
H159 H 0.36005 0.23664 0.39544 0.0
Nd160 Nd 0.95709 0.16963 0.34439 0.0
Nd161 Nd 0.9572 0.16827 0.36618 0.0
C162 C 0.96645 0.16745 0.32121 0.0
C163 C 0.99252 0.1876 0.31213 0.0
C164 C 1.0205 0.18264 0.3103 0.0
C165 C 1.04411 0.20021 0.30132 0.0
C166 C 1.04029 0.22307 0.29392 0.0
C167 C 1.01258 0.22841 0.29586 0.0
C168 C 0.98889 0.21077 0.30485 0.0
C169 C 0.98284 0.23989 0.35186 0.0
C170 C 1.02899 0.17986 0.35621 0.0
C171 C 0.9506 0.1823 0.38856 0.0
C172 C 0.92528 0.17555 0.39802 0.0
C173 C 0.90443 0.19044 0.39774 0.0
C174 C 0.88467 0.18831 0.4076 0.0
C175 C 0.8854 0.17133 0.41795 0.0
C176 C 0.9047 0.15476 0.41794 0.0
C177 C 0.92454 0.15701 0.4081 0.0
C178 C 0.95172 0.10582 0.35994 0.0
C179 C 0.87761 0.13346 0.35427 0.0
O180 O 0.97472 0.15189 0.32912 0.0
O181 O 0.94899 0.18049 0.32576 0.0
O182 O 0.95661 0.22203 0.34504 0.0
O183 O 0.99153 0.21869 0.35573 0.0
O184 O 1.00993 0.17099 0.34651 0.0
O185 O 1.01539 0.18488 0.36583 0.0
O186 O 0.95175 0.20106 0.37956 0.0
O187 O 0.95586 0.1575 0.38548 0.0
O188 O 0.9709 0.1262 0.36827 0.0
O189 O 0.9349 0.11853 0.35489 0.0
O190 O 0.89618 0.14582 0.36411 0.0
O191 O 0.89598 0.13807 0.34458 0.0
H192 H 1.02393 0.16471 0.31566 0.0
H193 H 0.0648 0.19505 0.29994 0.0
H194 H 1.00909 0.2461 0.29039 0.0
H195 H 0.9675 0.21498 0.30599 0.0
H196 H 0.90445 0.20499 0.39011 0.0
H197 H 0.87036 0.20161 0.40734 0.0
H198 H 0.9054 0.14102 0.4257 0.0
H199 H 0.94038 0.14534 0.40858 0.0
Nd200 Nd 0.95493 0.80915 0.34681 0.0
Nd201 Nd 0.956 0.80951 0.36901 0.0
C202 C 0.96259 0.80956 0.32349 0.0
C203 C 0.94963 0.81764 0.31286 0.0
C204 C 0.96262 0.81601 0.30177 0.0
C205 C 0.95309 0.82685 0.29163 0.0
C206 C 0.93047 0.83957 0.29248 0.0
C207 C 0.91709 0.84064 0.30363 0.0
C208 C 0.92666 0.82978 0.31377 0.0
C209 C 0.884 0.77491 0.35399 0.0
C210 C 0.94633 0.87111 0.35745 0.0
C211 C 0.94397 0.79389 0.39195 0.0
C212 C 0.94581 0.80391 0.4046 0.0
C213 C 0.96827 0.80027 0.41228 0.0
C214 C 0.96609 0.80301 0.42457 0.0
C215 C 0.94125 0.80934 0.42954 0.0
C216 C 0.91991 0.81474 0.42181 0.0
C217 C 0.92207 0.81194 0.40948 0.0
C218 C 1.01655 0.86924 0.36249 0.0
C219 C 0.98933 0.76396 0.35756 0.0
O220 O 0.98124 0.83557 0.33036 0.0
O221 O 0.94123 0.78233 0.3294 0.0
O222 O 0.89914 0.80066 0.34683 0.0
O223 O 0.9078 0.76977 0.35814 0.0
O224 O 0.95773 0.86221 0.34812 0.0
O225 O 0.93894 0.85126 0.36696 0.0
O226 O 0.97191 0.79976 0.38658 0.0
O227 O 0.92225 0.79592 0.38484 0.0
O228 O 0.99585 0.86706 0.37085 0.0
O229 O 1.00486 0.83979 0.35761 0.0
O230 O 0.98376 0.77604 0.36754 0.0
O231 O 0.978 0.77159 0.34784 0.0
H232 H 0.98073 0.80705 0.30099 0.0
H233 H 0.96401 0.82603 0.28317 0.0
H234 H 0.89923 0.84985 0.30451 0.0
H235 H 0.91666 0.8314 0.32233 0.0
H236 H 0.98646 0.79352 0.40882 0.0
H237 H 0.98263 0.79819 0.4302 0.0
H238 H 0.90078 0.8201 0.4253 0.0
H239 H 0.9042 0.81467 0.40383 0.0
Nd240 Nd 0.96431 0.78136 0.85564 0.0
Nd241 Nd 0.93426 0.71394 0.84163 0.0
C242 C 0.99525 0.84621 0.86156 0.0
C243 C 1.02819 0.8736 0.85714 0.0
C244 C 1.03214 0.90535 0.85414 0.0
C245 C 1.06129 0.92935 0.84806 0.0
C246 C 0.08757 0.92241 0.84517 0.0
C247 C 0.0838 0.89081 0.84864 0.0
C248 C 1.05428 0.86654 0.85437 0.0
C249 C 0.9843 0.73645 0.86308 0.0
C250 C 1.00009 0.77716 0.83043 0.0
C251 C 0.90918 0.64943 0.83535 0.0
C252 C 0.87756 0.61737 0.83827 0.0
C253 C 0.8732 0.60162 0.84939 0.0
C254 C 0.84069 0.57685 0.85318 0.0
C255 C 0.8118 0.56836 0.84611 0.0
C256 C 0.8172 0.58079 0.83435 0.0
C257 C 0.84974 0.60475 0.83047 0.0
C258 C 0.91237 0.75821 0.83481 0.0
C259 C 0.89701 0.71949 0.86656 0.0
O260 O 0.97103 0.83307 0.85356 0.0
O261 O 0.99648 0.82304 0.86815 0.0
O262 O 0.97738 0.75453 0.87029 0.0
O263 O 0.98171 0.7435 0.85244 0.0
O264 O 0.99428 0.79613 0.83794 0.0
O265 O 0.98354 0.74359 0.8312 0.0
O266 O 0.93139 0.66395 0.84394 0.0
O267 O 0.90521 0.6715 0.82903 0.0
O268 O 0.91861 0.74036 0.82722 0.0
O269 O 0.91639 0.751 0.84522 0.0
O270 O 0.90227 0.69984 0.85908 0.0
O271 O 0.91426 0.75314 0.8657 0.0
H272 H 1.01205 0.91105 0.85607 0.0
H273 H 1.06267 0.953 0.84545 0.0
H274 H 0.10364 0.8846 0.84701 0.0
H275 H 1.05164 0.84195 0.85646 0.0
H276 H 0.89435 0.61007 0.85551 0.0
H277 H 0.83807 0.56669 0.86206 0.0
H278 H 0.79618 0.57511 0.82843 0.0
H279 H 0.85254 0.6157 0.82171 0.0
Nd280 Nd 0.2997 0.15595 0.84348 0.0
Nd281 Nd 0.37349 0.17545 0.83507 0.0
C282 C 0.23562 0.12723 0.85029 0.0
C283 C 0.20515 0.1275 0.84602 0.0
C284 C 0.17649 0.11535 0.85335 0.0
C285 C 0.14736 0.11563 0.84942 0.0
C286 C 0.14651 0.12822 0.83807 0.0
C287 C 0.17535 0.14025 0.83071 0.0
C288 C 0.20447 0.13984 0.83465 0.0
C289 C 0.34178 0.2231 0.83807 0.0
C290 C 0.31927 0.17039 0.8155 0.0
C291 C 0.43994 0.20045 0.83321 0.0
C292 C 0.46608 0.2133 0.84261 0.0
C293 C 0.4614 0.22827 0.85285 0.0
C294 C 0.47454 0.22525 0.86373 0.0
C295 C 0.49147 0.20646 0.86445 0.0
C296 C 0.50241 0.19848 0.85383 0.0
C297 C 0.48933 0.20145 0.84295 0.0
C298 C 0.32341 0.10808 0.83311 0.0
C299 C 0.35513 0.1681 0.8639 0.0
O300 O 0.24729 0.11215 0.84331 0.0
O301 O 0.25973 0.15604 0.8548 0.0
O302 O 0.30888 0.20833 0.8369 0.0
O303 O 0.35037 0.20397 0.84322 0.0
O304 O 0.29518 0.15092 0.82319 0.0
O305 O 0.35207 0.18698 0.81841 0.0
O306 O 0.42535 0.21856 0.83093 0.0
O307 O 0.41793 0.16768 0.83399 0.0
O308 O 0.34586 0.124 0.82483 0.0
O309 O 0.32823 0.12767 0.8417 0.0
O310 O 0.37881 0.1787 0.85553 0.0
O311 O 0.32246 0.15555 0.86151 0.0
H312 H 0.17668 0.10577 0.86214 0.0
H313 H 0.12579 0.10675 0.85538 0.0
H314 H 0.17538 0.14995 0.82192 0.0
H315 H 0.22649 0.14928 0.82886 0.0
H316 H 0.44407 0.23825 0.85278 0.0
H317 H 0.4671 0.23292 0.87176 0.0
H318 H 0.51638 0.18482 0.854 0.0
H319 H 0.49369 0.19022 0.83512 0.0
Nd320 Nd 0.90688 0.09863 0.85842 0.0
Nd321 Nd 0.87737 0.13861 0.8462 0.0
C322 C 0.9367 0.06192 0.86219 0.0
C323 C 0.94027 1.03676 0.85496 0.0
C324 C 0.93173 1.03281 0.84285 0.0
C325 C 0.93102 1.00629 0.83627 0.0
C326 C 0.93979 0.98381 0.84165 0.0
C327 C 0.95013 0.98886 0.85361 0.0
C328 C 0.95008 1.015 0.86025 0.0
C329 C 0.84456 0.08544 0.86672 0.0
C330 C 0.86393 0.07228 0.83342 0.0
C331 C 0.85055 0.17589 0.8393 0.0
C332 C 0.86633 0.21266 0.83649 0.0
C333 C 0.87419 0.22354 0.82464 0.0
C334 C 0.89663 0.25784 0.82203 0.0
C335 C 0.91102 0.28191 0.83121 0.0
C336 C 0.90027 0.2717 0.84295 0.0
C337 C 0.87814 0.23732 0.84558 0.0
C338 C 0.94239 0.15483 0.83932 0.0
C339 C 0.91734 0.1647 0.87231 0.0
O340 O 0.95318 0.09353 0.85843 0.0
O341 O 0.90557 0.05243 0.86563 0.0
O342 O 0.86867 0.08744 0.87356 0.0
O343 O 0.85324 0.08879 0.85596 0.0
O344 O 0.89145 0.07778 0.8393 0.0
O345 O 0.84727 0.08786 0.8366 0.0
O346 O 0.8511 0.16769 0.85042 0.0
O347 O 0.85819 0.15825 0.83199 0.0
O348 O 0.91965 0.15291 0.83189 0.0
O349 O 0.93068 0.14956 0.84962 0.0
O350 O 0.89524 0.16488 0.86458 0.0
O351 O 0.92984 0.14397 0.8711 0.0
H352 H 0.9252 0.04994 0.83851 0.0
H353 H 0.92328 1.00309 0.82704 0.0
H354 H 0.9568 0.97163 0.85796 0.0
H355 H 0.95684 1.01765 0.86957 0.0
H356 H 0.86497 0.2052 0.81743 0.0
H357 H 0.90431 0.26523 0.81291 0.0
H358 H 0.91112 0.28983 0.85019 0.0
H359 H 0.87222 0.22988 0.85479 0.0
Nd360 Nd 0.81836 0.9075 0.67613 0.0
Nd361 Nd 0.81525 0.91065 0.69803 0.0
C362 C 0.82 0.91932 0.65292 0.0
C363 C 0.80703 0.90502 0.64105 0.0
C364 C 0.77193 0.88705 0.63845 0.0
C365 C 0.76076 0.87786 0.62673 0.0
C366 C 0.78447 0.88648 0.61744 0.0
C367 C 0.8195 0.90324 0.62018 0.0
C368 C 0.83063 0.91246 0.63186 0.0
C369 C 0.86743 0.89175 0.68501 0.0
C370 C 0.77236 0.83008 0.6863 0.0
C371 C 0.80754 0.90203 0.72137 0.0
C372 C 0.80964 0.92063 0.73234 0.0
C373 C 0.83683 0.95383 0.73442 0.0
C374 C 0.83973 0.96979 0.74533 0.0
C375 C 0.81538 0.95293 0.75432 0.0
C376 C 0.78763 0.9201 0.75202 0.0
C377 C 0.78488 0.90409 0.74115 0.0
C378 C 0.78023 0.9446 0.68931 0.0
C379 C 0.8782 0.98102 0.68817 0.0
O380 O 0.79942 0.92216 0.66031 0.0
O381 O 0.84039 0.91101 0.65816 0.0
O382 O 0.84385 0.87345 0.67729 0.0
O383 O 0.86237 0.91544 0.68866 0.0
O384 O 0.77673 0.84815 0.67655 0.0
O385 O 0.78799 0.84899 0.69583 0.0
O386 O 0.83605 0.91091 0.71582 0.0
O387 O 0.78238 0.89516 0.71415 0.0
O388 O 0.80482 0.95628 0.697 0.0
O389 O 0.77635 0.91567 0.68556 0.0
O390 O 0.86685 0.96289 0.69801 0.0
O391 O 0.86105 0.96612 0.67833 0.0
H392 H 0.75318 0.88093 0.64539 0.0
H393 H 0.73357 0.86455 0.62491 0.0
H394 H 0.83842 0.91058 0.61322 0.0
H395 H 0.85783 0.92655 0.63367 0.0
H396 H 0.85625 0.96716 0.72773 0.0
H397 H 0.86161 0.99493 0.74683 0.0
H398 H 0.76813 0.90665 0.75867 0.0
H399 H 0.76366 0.8785 0.73968 0.0
Nd400 Nd 0.17649 0.91195 0.67619 0.0
Nd401 Nd 0.17294 0.9052 0.69792 0.0
C402 C 0.16506 0.90368 0.65291 0.0
C403 C 0.17714 0.89766 0.6416 0.0
C404 C 0.15631 0.8904 0.63159 0.0
C405 C 0.16773 0.88681 0.62048 0.0
C406 C 0.20026 0.89031 0.61918 0.0
C407 C 0.22109 0.8974 0.6293 0.0
C408 C 0.20959 0.90107 0.64045 0.0
C409 C 0.19187 0.97659 0.68527 0.0
C410 C 0.25338 0.94119 0.68606 0.0
C411 C 0.18287 0.90894 0.72129 0.0
C412 C 0.16525 0.89631 0.73268 0.0
C413 C 0.18202 0.91331 0.74311 0.0
C414 C 0.16578 0.90261 0.75409 0.0
C415 C 0.13236 0.8746 0.75483 0.0
C416 C 0.11559 0.85758 0.7443 0.0
C417 C 0.1319 0.8684 0.7333 0.0
C418 C 0.13923 0.83605 0.6893 0.0
C419 C 0.10268 0.89847 0.6879 0.0
O420 O 0.15126 0.87861 0.66049 0.0
O421 O 0.18445 0.93297 0.658 0.0
O422 O 0.21059 0.9715 0.67775 0.0
O423 O 0.16797 0.94766 0.6887 0.0
O424 O 0.23489 0.92686 0.67645 0.0
O425 O 0.23482 0.93879 0.69558 0.0
O426 O 0.1757 0.92922 0.71536 0.0
O427 O 0.18594 0.88737 0.71447 0.0
O428 O 0.12775 0.84899 0.69705 0.0
O429 O 0.16808 0.86121 0.68543 0.0
O430 O 0.11909 0.90123 0.69792 0.0
O431 O 0.11921 0.90028 0.67797 0.0
H432 H 0.13134 0.88809 0.63232 0.0
H433 H 0.15128 0.88194 0.61287 0.0
H434 H 0.24614 0.89994 0.6286 0.0
H435 H 0.22607 0.90688 0.64812 0.0
H436 H 0.2077 0.93511 0.74276 0.0
H437 H 0.17924 0.9166 0.76198 0.0
H438 H 0.08999 0.83569 0.74458 0.0
H439 H 0.11854 0.85509 0.7253 0.0
Nd440 Nd 0.17514 0.26422 0.67466 0.0
Nd441 Nd 0.17844 0.27046 0.69632 0.0
C442 C 0.19089 0.27992 0.65206 0.0
C443 C 0.18808 0.29142 0.64007 0.0
C444 C 0.20433 0.32636 0.63723 0.0
C445 C 0.2083 0.3368 0.62536 0.0
C446 C 0.19645 0.31249 0.61617 0.0
C447 C 0.17835 0.27763 0.61906 0.0
C448 C 0.17422 0.26721 0.63088 0.0
C449 C 0.11297 0.20896 0.68202 0.0
C450 C 0.14058 0.3108 0.68482 0.0
C451 C 0.17623 0.26314 0.71976 0.0
C452 C 0.19601 0.25728 0.72879 0.0
C453 C 0.18583 0.2537 0.74067 0.0
C454 C 0.20283 0.24559 0.74928 0.0
C455 C 0.23032 0.24089 0.74613 0.0
C456 C 0.24073 0.24499 0.73419 0.0
C457 C 0.22367 0.25313 0.72558 0.0
C458 C 0.248 0.31326 0.68822 0.0
C459 C 0.18722 0.20605 0.68601 0.0
O460 O 0.20514 0.30208 0.66067 0.0
O461 O 0.16773 0.24964 0.65566 0.0
O462 O 0.13237 0.20844 0.67367 0.0
O463 O 0.12635 0.23936 0.68645 0.0
O464 O 0.14869 0.29937 0.67517 0.0
O465 O 0.14962 0.30261 0.69494 0.0
O466 O 0.15952 0.23805 0.71236 0.0
O467 O 0.1913 0.29272 0.71449 0.0
O468 O 0.23076 0.32296 0.69475 0.0
O469 O 0.22647 0.28264 0.68497 0.0
O470 O 0.18172 0.21954 0.69561 0.0
O471 O 0.18931 0.22142 0.67588 0.0
H472 H 0.2156 0.34563 0.6441 0.0
H473 H 0.22247 0.36385 0.62336 0.0
H474 H 0.16859 0.25837 0.61214 0.0
H475 H 0.16188 0.24013 0.63279 0.0
H476 H 0.1643 0.25651 0.74326 0.0
H477 H 0.19383 0.24208 0.75836 0.0
H478 H 0.26198 0.24185 0.73151 0.0
H479 H 0.23171 0.25568 0.7164 0.0
Nd480 Nd 0.87353 0.729 0.5433 0.0
Nd481 Nd 0.82706 0.66699 0.52745 0.0
C482 C 0.90724 0.78919 0.55401 0.0
C483 C 0.94257 0.81735 0.55556 0.0
C484 C 0.9529 0.849 0.55016 0.0
C485 C 0.98756 0.87322 0.54919 0.0
C486 C 1.01219 0.86618 0.55383 0.0
C487 C 1.00145 0.83651 0.56066 0.0
C488 C 0.96692 0.81215 0.56145 0.0
C489 C 0.89452 0.68189 0.54057 0.0
C490 C 0.88426 0.73172 0.51386 0.0
C491 C 0.78595 0.60504 0.51931 0.0
C492 C 0.75535 0.57711 0.52485 0.0
C493 C 0.74031 0.54402 0.52023 0.0
C494 C 0.7118 0.5174 0.5258 0.0
C495 C 0.69788 0.52352 0.53607 0.0
C496 C 0.71302 0.55685 0.54064 0.0
C497 C 0.74148 0.58342 0.53505 0.0
C498 C 0.80766 0.71529 0.53062 0.0
C499 C 0.81469 0.66304 0.55608 0.0
O500 O 0.89468 0.78503 0.54328 0.0
O501 O 0.8989 0.76019 0.55921 0.0
O502 O 0.8988 0.69891 0.55031 0.0
O503 O 0.88232 0.69214 0.53265 0.0
O504 O 0.88705 0.74908 0.52375 0.0
O505 O 0.86688 0.69799 0.51358 0.0
O506 O 0.81474 0.61349 0.52472 0.0
O507 O 0.78342 0.63154 0.51619 0.0
O508 O 0.80452 0.69989 0.52057 0.0
O509 O 0.81874 0.70346 0.53833 0.0
O510 O 0.8153 0.64645 0.54656 0.0
O511 O 0.83004 0.69668 0.55612 0.0
H512 H 0.93435 0.85396 0.54594 0.0
H513 H 0.9952 0.89596 0.54393 0.0
H514 H 1.01979 0.83018 0.56428 0.0
H515 H 0.95971 0.78832 0.56593 0.0
H516 H 0.75061 0.53877 0.51235 0.0
H517 H 0.70028 0.4921 0.52193 0.0
H518 H 0.703 0.56233 0.54854 0.0
H519 H 0.75264 0.60895 0.53869 0.0
Nd520 Nd 0.44543 0.24068 0.53381 0.0
Nd521 Nd 0.52026 0.28158 0.52477 0.0
C522 C 0.37912 0.19879 0.53627 0.0
C523 C 0.34981 0.18596 0.52813 0.0
C524 C 0.35123 0.17425 0.51672 0.0
C525 C 0.32759 0.1709 0.50806 0.0
C526 C 0.30319 0.1807 0.51053 0.0
C527 C 0.29933 0.18808 0.52242 0.0
C528 C 0.32239 0.19058 0.53112 0.0
C529 C 0.48193 0.30894 0.53955 0.0
C530 C 0.46255 0.27126 0.50631 0.0
C531 C 0.58644 0.3249 0.52349 0.0
C532 C 0.61577 0.32783 0.53014 0.0
C533 C 0.61225 0.31763 0.54208 0.0
C534 C 0.63858 0.31579 0.54785 0.0
C535 C 0.66891 0.32434 0.5418 0.0
C536 C 0.67326 0.33677 0.53011 0.0
C537 C 0.64679 0.33837 0.52431 0.0
C538 C 0.48507 0.21548 0.51753 0.0
C539 C 0.50207 0.24259 0.55128 0.0
O540 O 0.40089 0.18822 0.53443 0.0
O541 O 0.39407 0.23153 0.53862 0.0
O542 O 0.46219 0.28572 0.54713 0.0
O543 O 0.48126 0.2956 0.52973 0.0
O544 O 0.44083 0.24711 0.5136 0.0
O545 O 0.49435 0.29306 0.50952 0.0
O546 O 0.56535 0.33116 0.52948 0.0
O547 O 0.57077 0.29799 0.51664 0.0
O548 O 0.50821 0.23976 0.51102 0.0
O549 O 0.48363 0.22617 0.52774 0.0
O550 O 0.52522 0.26488 0.54385 0.0
O551 O 0.46909 0.22736 0.54904 0.0
H552 H 0.37202 0.17015 0.5142 0.0
H553 H 0.33063 0.16388 0.49916 0.0
H554 H 0.28106 0.1958 0.52487 0.0
H555 H 0.32067 0.1993 0.53992 0.0
H556 H 0.5888 0.31013 0.54684 0.0
H557 H 0.63476 0.30646 0.55689 0.0
H558 H 0.69627 0.34315 0.52518 0.0
H559 H 0.64999 0.34641 0.51512 0.0
Nd560 Nd 0.89251 0.27369 0.51714 0.0
Nd561 Nd 0.85655 0.31385 0.50945 0.0
C562 C 0.92339 0.23762 0.51628 0.0
C563 C 0.91107 0.20482 0.51004 0.0
C564 C 0.89831 0.20085 0.49839 0.0
C565 C 0.87508 0.1685 0.49406 0.0
C566 C 0.86472 0.13972 0.5012 0.0
C567 C 0.88064 0.14316 0.51221 0.0
C568 C 0.90377 0.17561 0.51662 0.0
C569 C 0.8314 0.25435 0.52795 0.0
C570 C 0.84115 0.24989 0.49335 0.0
C571 C 0.82397 0.34867 0.5088 0.0
C572 C 0.83006 0.38102 0.51401 0.0
C573 C 0.80243 0.3848 0.51751 0.0
C574 C 0.80815 0.41531 0.52271 0.0
C575 C 0.84166 0.44286 0.52431 0.0
C576 C 0.86922 0.4387 0.52075 0.0
C577 C 0.86348 0.40801 0.51579 0.0
C578 C 0.91751 0.33232 0.49855 0.0
C579 C 0.90577 0.33592 0.53377 0.0
O580 O 0.93255 0.26455 0.50961 0.0
O581 O 0.90432 0.23619 0.52525 0.0
O582 O 0.8569 0.25459 0.53336 0.0
O583 O 0.83818 0.26193 0.51715 0.0
O584 O 0.86615 0.24946 0.49929 0.0
O585 O 0.82888 0.26983 0.49638 0.0
O586 O 0.81639 0.32386 0.51629 0.0
O587 O 0.84565 0.35103 0.50065 0.0
O588 O 0.89183 0.33162 0.49315 0.0
O589 O 0.91099 0.32551 0.50939 0.0
O590 O 0.88059 0.33625 0.52783 0.0
O591 O 0.91945 0.3176 0.53021 0.0
H592 H 0.9036 0.22279 0.49302 0.0
H593 H 0.86308 0.16624 0.48556 0.0
H594 H 0.87268 0.12111 0.51788 0.0
H595 H 0.91315 0.17799 0.52562 0.0
H596 H 0.77645 0.36396 0.51639 0.0
H597 H 0.78624 0.41709 0.52557 0.0
H598 H 0.89536 0.45937 0.52154 0.0
H599 H 0.88523 0.40552 0.51324 0.0
Nd600 Nd 0.96338 0.48085 0.67428 0.0
Nd601 Nd 0.95996 0.47824 0.69635 0.0
C602 C 0.95582 0.47908 0.65083 0.0
C603 C 0.95706 0.46457 0.63926 0.0
C604 C 0.94791 0.43017 0.63792 0.0
C605 C 0.94586 0.41654 0.62656 0.0
C606 C 0.9528 0.43707 0.61637 0.0
C607 C 0.96276 0.47171 0.61787 0.0
C608 C 0.96491 0.48526 0.62918 0.0
C609 C 1.00704 0.45401 0.68196 0.0
C610 C 0.89981 0.40861 0.68483 0.0
C611 C 0.97561 0.47696 0.71892 0.0
C612 C 0.99073 0.49374 0.73024 0.0
C613 C 0.99315 0.52469 0.73371 0.0
C614 C 1.00574 0.53827 0.74501 0.0
C615 C 1.016 0.52101 0.75294 0.0
C616 C 1.01359 0.49014 0.74928 0.0
C617 C 1.00124 0.47679 0.73805 0.0
C618 C 0.9036 0.48444 0.68975 0.0
C619 C 1.00538 0.55903 0.68583 0.0
O620 O 0.93147 0.45973 0.65816 0.0
O621 O 0.98448 0.49957 0.65619 0.0
O622 O 1.01585 0.48021 0.67512 0.0
O623 O 0.97687 0.44535 0.68548 0.0
O624 O 0.91034 0.42909 0.67549 0.0
O625 O 0.91846 0.42041 0.69454 0.0
O626 O 0.996 0.4802 0.71018 0.0
O627 O 0.94733 0.47536 0.71546 0.0
O628 O 0.90412 0.46478 0.698 0.0
O629 O 0.93359 0.50159 0.68503 0.0
O630 O 0.99909 0.53941 0.69538 0.0
O631 O 0.99184 0.54176 0.67591 0.0
H632 H 0.9417 0.41373 0.6456 0.0
H633 H 0.93856 0.38988 0.62575 0.0
H634 H 0.96776 0.48819 0.61027 0.0
H635 H 0.9717 0.5118 0.63003 0.0
H636 H 0.98501 0.53806 0.72776 0.0
H637 H 1.00745 0.56218 0.74755 0.0
H638 H 1.02046 0.47571 0.75521 0.0
H639 H 0.9992 0.45269 0.73556 0.0
Nd640 Nd 0.60404 0.48305 0.67717 0.0
Nd641 Nd 0.60402 0.47901 0.699 0.0
C642 C 0.597 0.48127 0.65378 0.0
C643 C 0.61806 0.50051 0.64368 0.0
C644 C 0.60606 0.48982 0.63212 0.0
C645 C 0.627 0.50658 0.62242 0.0
C646 C 0.66025 0.53419 0.62419 0.0
C647 C 0.6719 0.54512 0.63582 0.0
C648 C 0.65097 0.52835 0.6455 0.0
C649 C 0.64058 0.55315 0.68539 0.0
C650 C 0.67517 0.4911 0.6867 0.0
C651 C 0.60389 0.48593 0.72243 0.0
C652 C 0.59181 0.49646 0.73296 0.0
C653 C 0.61231 0.52906 0.73791 0.0
C654 C 0.60438 0.53718 0.74898 0.0
C655 C 0.57589 0.51283 0.7554 0.0
C656 C 0.55444 0.48076 0.75022 0.0
C657 C 0.56242 0.47258 0.73913 0.0
C658 C 0.60315 0.4194 0.69107 0.0
C659 C 0.52464 0.44693 0.68849 0.0
O660 O 0.6078 0.46355 0.65957 0.0
O661 O 0.5869 0.49742 0.6608 0.0
O662 O 0.65121 0.53884 0.6779 0.0
O663 O 0.61184 0.52878 0.68946 0.0
O664 O 0.65421 0.47966 0.67753 0.0
O665 O 0.66305 0.49814 0.69635 0.0
O666 O 0.62614 0.50951 0.71541 0.0
O667 O 0.5823 0.45833 0.71675 0.0
O668 O 0.62253 0.43976 0.69933 0.0
O669 O 0.58498 0.43133 0.68675 0.0
O670 O 0.54294 0.45347 0.69836 0.0
O671 O 0.543 0.45729 0.67861 0.0
H672 H 0.58077 0.46814 0.63061 0.0
H673 H 0.61749 0.49742 0.61356 0.0
H674 H 0.69721 0.56662 0.63744 0.0
H675 H 0.66063 0.53677 0.65439 0.0
H676 H 0.6353 0.54794 0.73346 0.0
H677 H 0.62109 0.56232 0.75266 0.0
H678 H 0.53242 0.46141 0.75498 0.0
H679 H 0.54634 0.44706 0.73565 0.0
Nd680 Nd 0.60055 0.1206 0.6748 0.0
Nd681 Nd 0.60336 0.12263 0.69671 0.0
C682 C 0.60331 0.11843 0.65131 0.0
C683 C 0.58754 0.12579 0.64124 0.0
C684 C 0.56771 0.14127 0.64308 0.0
C685 C 0.55698 0.15289 0.63342 0.0
C686 C 0.56592 0.14918 0.62179 0.0
C687 C 0.58468 0.13243 0.61999 0.0
C688 C 0.59548 0.12092 0.62966 0.0
C689 C 0.5302 0.08637 0.68293 0.0
C690 C 0.59312 0.18332 0.68508 0.0
C691 C 0.59377 0.11279 0.71988 0.0
C692 C 0.57847 0.0864 0.7291 0.0
C693 C 0.54455 0.05937 0.72829 0.0
C694 C 0.52923 1.03771 0.73799 0.0
C695 C 0.54764 0.04271 0.74858 0.0
C696 C 0.58211 0.06869 0.74907 0.0
C697 C 0.59732 0.09032 0.73942 0.0
C698 C 0.66388 0.18174 0.68951 0.0
C699 C 0.63557 0.07595 0.6861 0.0
O700 O 0.62356 0.14497 0.65772 0.0
O701 O 0.58371 0.0917 0.65776 0.0
O702 O 0.54466 0.11208 0.67573 0.0
O703 O 0.55445 0.08153 0.68672 0.0
O704 O 0.60484 0.17449 0.67584 0.0
O705 O 0.58498 0.16304 0.69444 0.0
O706 O 0.57299 0.11645 0.71281 0.0
O707 O 0.62094 0.11649 0.71451 0.0
O708 O 0.64362 0.18014 0.69787 0.0
O709 O 0.65174 0.15201 0.68484 0.0
O710 O 0.62696 0.08561 0.696 0.0
O711 O 0.6274 0.08614 0.67618 0.0
H712 H 0.56153 0.14539 0.65199 0.0
H713 H 0.54217 0.16527 0.63507 0.0
H714 H 0.59219 0.12947 0.61114 0.0
H715 H 0.61109 0.10933 0.62812 0.0
H716 H 0.52954 0.05573 0.72036 0.0
H717 H 0.50273 1.01771 0.73733 0.0
H718 H 0.59686 0.07358 0.75715 0.0
H719 H 0.62345 0.11111 0.74022 0.0
Nd720 Nd 0.60954 0.13251 0.18359 0.0
Nd721 Nd 0.58002 0.06178 0.1714 0.0
C722 C 0.63024 0.1972 0.18798 0.0
C723 C 0.65964 0.22879 0.1836 0.0
C724 C 0.6714 0.23051 0.17195 0.0
C725 C 0.70271 0.25786 0.16844 0.0
C726 C 0.72263 0.28397 0.17651 0.0
C727 C 0.70977 0.2835 0.1879 0.0
C728 C 0.67846 0.25594 0.19144 0.0
C729 C 0.64045 0.09662 0.19013 0.0
C730 C 0.6381 0.125 0.15699 0.0
C731 C 0.5549 0.99675 0.16606 0.0
C732 C 0.53307 0.9667 0.17335 0.0
C733 C 0.54014 0.96745 0.18551 0.0
C734 C 0.51364 0.94937 0.19351 0.0
C735 C 0.47978 0.93196 0.18945 0.0
C736 C 0.47367 0.92586 0.17719 0.0
C737 C 0.50037 0.94317 0.16915 0.0
C738 C 0.54848 0.09896 0.1665 0.0
C739 C 0.55813 0.06844 0.19901 0.0
O740 O 0.60658 0.17904 0.18015 0.0
O741 O 0.63797 0.17864 0.1948 0.0
O742 O 0.63753 0.11784 0.19713 0.0
O743 O 0.63057 0.09792 0.17974 0.0
O744 O 0.63574 0.14494 0.16511 0.0
O745 O 0.62151 0.09146 0.15791 0.0
O746 O 0.5863 1.01633 0.16976 0.0
O747 O 0.54029 1.01424 0.16293 0.0
O748 O 0.55516 0.08278 0.15836 0.0
O749 O 0.55832 0.09485 0.17645 0.0
O750 O 0.56349 0.04977 0.19115 0.0
O751 O 0.56762 0.10072 0.19692 0.0
H752 H 0.65705 0.21012 0.16568 0.0
H753 H 0.71199 0.25799 0.15957 0.0
H754 H 0.72487 0.30334 0.19429 0.0
H755 H 0.66978 0.25499 0.20047 0.0
H756 H 0.5652 0.98534 0.18898 0.0
H757 H 0.51898 0.95346 0.20292 0.0
H758 H 0.44786 0.91215 0.17373 0.0
H759 H 0.49444 0.94203 0.15978 0.0
Nd760 Nd 0.9566 0.51004 0.18325 0.0
Nd761 Nd 1.02387 0.5209 0.17176 0.0
C762 C 0.89285 0.49117 0.18876 0.0
C763 C 0.866 0.49783 0.18436 0.0
C764 C 0.85601 0.49316 0.17235 0.0
C765 C 0.83047 0.49973 0.16846 0.0
C766 C 0.81506 0.51177 0.17645 0.0
C767 C 0.82537 0.51677 0.18839 0.0
C768 C 0.85044 0.50968 0.19232 0.0
C769 C 1.00765 0.57656 0.18032 0.0
C770 C 0.96662 0.51587 0.15381 0.0
C771 C 0.08901 0.54294 0.16761 0.0
C772 C 0.11591 0.54746 0.176 0.0
C773 C 0.11553 0.55815 0.1877 0.0
C774 C 0.13186 0.55076 0.19677 0.0
C775 C 0.14905 0.53299 0.19419 0.0
C776 C 0.15363 0.52695 0.18226 0.0
C777 C 0.13689 0.53391 0.17321 0.0
C778 C 0.97149 0.45483 0.17319 0.0
C779 C 1.0128 0.51392 0.20101 0.0
O780 O 0.9012 0.47288 0.18201 0.0
O781 O 0.91923 0.517 0.19381 0.0
O782 O 0.98811 0.56633 0.18962 0.0
O783 O 0.99892 0.55249 0.17315 0.0
O784 O 0.94553 0.50503 0.16303 0.0
O785 O 0.9998 0.52772 0.15501 0.0
O786 O 0.07675 0.56345 0.169 0.0
O787 O 0.06504 0.51116 0.16592 0.0
O788 O 0.99226 0.46651 0.1642 0.0
O789 O 0.9803 0.47729 0.18113 0.0
O790 O 1.03422 0.52845 0.19205 0.0
O791 O 0.97944 0.49847 0.19942 0.0
H792 H 0.86781 0.48433 0.166 0.0
H793 H 0.82299 0.49573 0.1592 0.0
H794 H 0.81357 0.52561 0.19476 0.0
H795 H 0.85774 0.51349 0.2016 0.0
H796 H 0.10016 0.56946 0.19001 0.0
H797 H 0.12818 0.55577 0.20588 0.0
H798 H 0.16656 0.51299 0.18004 0.0
H799 H 0.13757 0.52554 0.16426 0.0
Nd800 Nd 0.54845 0.45566 0.17951 0.0
Nd801 Nd 0.53745 0.51518 0.17159 0.0
C802 C 0.56664 0.41141 0.18618 0.0
C803 C 0.56222 0.37939 0.18098 0.0
C804 C 0.58608 0.38024 0.17278 0.0
C805 C 0.58149 0.35011 0.16766 0.0
C806 C 0.55307 0.31846 0.17067 0.0
C807 C 0.52915 0.3176 0.17882 0.0
C808 C 0.53373 0.34772 0.18395 0.0
C809 C 0.48295 0.43833 0.17363 0.0
C810 C 0.54194 0.4674 0.15167 0.0
C811 C 0.51214 0.55607 0.16871 0.0
C812 C 0.51432 0.58357 0.17618 0.0
C813 C 0.51752 0.58182 0.18852 0.0
C814 C 0.53703 0.61173 0.19499 0.0
C815 C 0.55349 0.64324 0.18907 0.0
C816 C 0.54413 0.64514 0.17732 0.0
C817 C 0.52459 0.61521 0.17086 0.0
C818 C 0.60336 0.52749 0.17026 0.0
C819 C 0.55243 0.51045 0.19973 0.0
O820 O 0.58715 0.43965 0.18047 0.0
O821 O 0.53902 0.4107 0.19017 0.0
O822 O 0.49628 0.42005 0.17036 0.0
O823 O 0.5039 0.46369 0.17955 0.0
O824 O 0.55902 0.46 0.15951 0.0
O825 O 0.52545 0.48336 0.15476 0.0
O826 O 0.49411 0.52496 0.17283 0.0
O827 O 0.5416 0.56244 0.16438 0.0
O828 O 0.5906 0.53903 0.16238 0.0
O829 O 0.58222 0.5121 0.17838 0.0
O830 O 0.54945 0.52895 0.19123 0.0
O831 O 0.55161 0.48121 0.19757 0.0
H832 H 0.60837 0.40418 0.17031 0.0
H833 H 0.60031 0.35156 0.16139 0.0
H834 H 0.50738 0.29352 0.1815 0.0
H835 H 0.51501 0.34615 0.19029 0.0
H836 H 0.50917 0.55757 0.19288 0.0
H837 H 0.5434 0.60985 0.20412 0.0
H838 H 0.55624 0.66923 0.1726 0.0
H839 H 0.52199 0.61695 0.16136 0.0
Nd840 Nd 0.49526 0.26518 1.00509 0.0
Nd841 Nd 0.49027 0.26379 0.02653 0.0
C842 C 0.47685 0.26184 0.98253 0.0
C843 C 0.46123 0.24112 0.97172 0.0
C844 C 0.42575 0.22502 0.96982 0.0
C845 C 0.41177 0.21103 0.95874 0.0
C846 C 0.43294 0.21295 0.94929 0.0
C847 C 0.46821 0.22759 0.95135 0.0
C848 C 0.4822 0.24164 0.96243 0.0
C849 C 0.55128 0.2593 1.01223 0.0
C850 C 0.44964 0.18476 1.01608 0.0
C851 C 0.49694 0.2687 0.04991 0.0
C852 C 0.49676 0.29127 0.0591 0.0
C853 C 0.49614 0.28244 0.07101 0.0
C854 C 0.49722 0.30434 0.0799 0.0
C855 C 0.49895 0.33538 0.07698 0.0
C856 C 0.49908 0.34392 0.06499 0.0
C857 C 0.49788 0.32189 0.05608 0.0
C858 C 0.44695 0.2902 1.01861 0.0
C859 C 0.55457 0.33628 1.01597 0.0
O860 O 0.45703 0.25862 0.99147 0.0
O861 O 0.50702 0.26782 0.98584 0.0
O862 O 0.55116 0.27867 1.00378 0.0
O863 O 0.52119 0.24241 1.01688 0.0
O864 O 0.45983 0.20344 1.00622 0.0
O865 O 0.45901 0.20294 0.02596 0.0
O866 O 0.52265 0.28244 0.0426 0.0
O867 O 0.46794 0.24953 0.04456 0.0
O868 O 0.43775 0.26367 0.02529 0.0
O869 O 0.47726 0.29897 1.01511 0.0
O870 O 0.54136 0.31776 0.02567 0.0
O871 O 0.53882 0.32237 1.00589 0.0
H872 H 0.40887 0.22444 0.97675 0.0
H873 H 0.38444 0.19953 0.95747 0.0
H874 H 0.48529 0.22984 0.94423 0.0
H875 H 0.50967 0.25434 0.96353 0.0
H876 H 0.49533 0.25886 0.07342 0.0
H877 H 0.49765 0.29741 0.08908 0.0
H878 H 0.50022 0.3676 0.06252 0.0
H879 H 0.49823 0.32886 0.04686 0.0
Nd880 Nd 0.85057 0.26384 1.00801 0.0
Nd881 Nd 0.85212 0.26391 0.03021 0.0
C882 C 0.85289 0.24689 0.98561 0.0
C883 C 0.87398 0.24783 0.9754 0.0
C884 C 0.87963 0.22036 0.97346 0.0
C885 C 0.8933 0.21728 0.96274 0.0
C886 C 0.90156 0.24152 0.9537 0.0
C887 C 0.89795 0.27014 0.95588 0.0
C888 C 0.88407 0.27316 0.96662 0.0
C889 C 0.85672 0.32653 1.01438 0.0
C890 C 0.93076 0.29937 1.01927 0.0
C891 C 0.84702 0.27049 0.05345 0.0
C892 C 0.82492 0.2542 0.06381 0.0
C893 C 0.8141 0.27321 0.07049 0.0
C894 C 0.79387 0.25917 0.08055 0.0
C895 C 0.78419 0.22584 0.08417 0.0
C896 C 0.795 0.20673 0.07747 0.0
C897 C 0.81514 0.22076 0.06733 0.0
C898 C 0.82627 0.19341 0.02302 0.0
C899 C 0.77956 0.25322 1.0186 0.0
O900 O 0.8504 0.22783 0.99469 0.0
O901 O 0.85277 0.27467 0.98866 0.0
O902 O 0.83697 0.30615 1.00614 0.0
O903 O 0.87372 0.31377 1.0192 0.0
O904 O 0.91155 0.28579 1.00963 0.0
O905 O 0.91313 0.29582 0.02907 0.0
O906 O 0.83541 0.28287 0.04546 0.0
O907 O 0.86341 0.25637 0.04882 0.0
O908 O 0.85228 0.21135 0.02993 0.0
O909 O 0.81743 0.2145 1.01913 0.0
O910 O 0.79883 0.26194 0.02827 0.0
O911 O 0.79279 0.24828 1.00887 0.0
H912 H 0.8719 0.20023 0.97998 0.0
H913 H 0.89613 0.19513 0.96132 0.0
H914 H 0.90388 0.28908 0.94903 0.0
H915 H 0.87969 0.29443 0.96778 0.0
H916 H 0.82156 0.29914 0.06797 0.0
H917 H 0.7863 0.27466 0.08561 0.0
H918 H 0.78763 0.18085 0.08001 0.0
H919 H 0.82309 0.20551 0.06231 0.0
Nd920 Nd 0.85041 0.62158 1.00852 0.0
Nd921 Nd 0.85432 0.62243 0.03048 0.0
C922 C 0.8638 0.6245 0.98544 0.0
C923 C 0.85387 0.62678 0.9732 0.0
C924 C 0.83822 0.64587 0.9702 0.0
C925 C 0.83361 0.65119 0.95823 0.0
C926 C 0.84491 0.63776 0.94919 0.0
C927 C 0.85895 0.6173 0.9523 0.0
C928 C 0.86332 0.61183 0.96418 0.0
C929 C 0.78422 0.57163 1.01616 0.0
C930 C 0.81736 0.66635 1.01921 0.0
C931 C 0.85109 0.62413 0.05398 0.0
C932 C 0.86322 0.61171 0.06376 0.0
C933 C 0.88318 0.59661 0.06146 0.0
C934 C 0.89359 0.58358 0.07078 0.0
C935 C 0.8841 0.58541 0.08252 0.0
C936 C 0.86407 0.6006 0.08474 0.0
C937 C 0.85371 0.61365 0.07541 0.0
C938 C 0.92437 0.65733 0.02261 0.0
C939 C 0.86298 0.561 1.02001 0.0
O940 O 0.87477 0.65132 0.99224 0.0
O941 O 0.84584 0.59599 0.99116 0.0
O942 O 0.79062 0.59547 1.00846 0.0
O943 O 0.81248 0.57648 0.02029 0.0
O944 O 0.82839 0.65977 1.00921 0.0
O945 O 0.82327 0.65312 0.02886 0.0
O946 O 0.82732 0.6005 0.04741 0.0
O947 O 0.87448 0.649 0.0477 0.0
O948 O 0.91027 0.63198 0.02997 0.0
O949 O 0.89996 0.66199 1.01871 0.0
O950 O 0.85312 0.57017 0.02966 0.0
O951 O 0.86857 0.58052 1.01054 0.0
H952 H 0.83074 0.65761 0.97705 0.0
H953 H 0.82285 0.66718 0.95606 0.0
H954 H 0.86758 0.6064 0.9455 0.0
H955 H 0.8754 0.597 0.96633 0.0
H956 H 0.89057 0.59478 0.05247 0.0
H957 H 0.90932 0.57239 0.06881 0.0
H958 H 0.85598 0.60197 0.09367 0.0
H959 H 0.83801 0.62496 0.07729 0.0
Nd960 Nd 0.51042 1.01855 0.85948 0.0
Nd961 Nd 0.45544 0.94235 0.8575 0.0
C962 C 0.55179 0.08478 0.86116 0.0
C963 C 0.58279 0.10176 0.86845 0.0
C964 C 0.61031 0.13349 0.86517 0.0
C965 C 0.64298 0.14416 0.86973 0.0
C966 C 0.64872 0.12251 0.87725 0.0
C967 C 0.62003 0.0924 0.8814 0.0
C968 C 0.58748 0.08246 0.87717 0.0
C969 C 0.5349 0.97402 0.86035 0.0
C970 C 0.4824 0.98746 0.83311 0.0
C971 C 0.4161 0.8762 0.85409 0.0
C972 C 0.38988 0.84697 0.86065 0.0
C973 C 0.37478 0.81457 0.85547 0.0
C974 C 0.34903 0.78648 0.86141 0.0
C975 C 0.33799 0.79034 0.87269 0.0
C976 C 0.35375 0.8229 0.87798 0.0
C977 C 0.37964 0.85107 0.872 0.0
C978 C 0.43317 0.98683 0.86384 0.0
C979 C 0.48252 0.97295 0.88333 0.0
O980 O 0.55374 0.06638 0.85254 0.0
O981 O 0.5229 0.06871 0.86703 0.0
O982 O 0.54782 1.00191 0.8665 0.0
O983 O 0.51155 0.97155 0.85368 0.0
O984 O 0.49813 1.01537 0.83968 0.0
O985 O 0.4664 0.95657 0.83782 0.0
O986 O 0.4471 0.88999 0.85844 0.0
O987 O 0.40782 0.89869 0.85052 0.0
O988 O 0.42188 0.95735 0.86892 0.0
O989 O 0.45436 0.99087 0.85598 0.0
O990 O 0.47457 0.94629 0.87649 0.0
O991 O 0.49215 1.00329 0.87871 0.0
H992 H 0.60704 0.14885 0.8585 0.0
H993 H 0.66394 0.16828 0.86671 0.0
H994 H 0.62253 0.07453 0.88707 0.0
H995 H 0.56644 0.0579 0.87987 0.0
H996 H 0.38252 0.81109 0.84671 0.0
H997 H 0.33696 0.76191 0.85698 0.0
H998 H 0.34586 0.82661 0.88667 0.0
H999 H 0.39137 0.87606 0.87614 0.0
Nd1000 Nd 0.09429 0.5133 0.86146 0.0
Nd1001 Nd 0.16164 0.56476 0.8493 0.0
C1002 C 1.03196 0.4683 0.86821 0.0
C1003 C 1.00733 0.47668 0.87355 0.0
C1004 C 0.97648 0.46743 0.86772 0.0
C1005 C 0.95953 0.48568 0.86984 0.0
C1006 C 0.97374 0.51396 0.87762 0.0
C1007 C 1.00206 0.51986 0.88457 0.0
C1008 C 1.01846 0.50127 0.88263 0.0
C1009 C 0.12378 0.57917 0.86995 0.0
C1010 C 0.09372 0.55124 0.83641 0.0
C1011 C 0.22402 0.61376 0.84368 0.0
C1012 C 0.25861 0.62401 0.84777 0.0
C1013 C 0.28666 0.65397 0.84345 0.0
C1014 C 0.31986 0.66256 0.84675 0.0
C1015 C 0.32536 0.64124 0.85442 0.0
C1016 C 0.29692 0.61203 0.85913 0.0
C1017 C 0.26386 0.60342 0.85579 0.0
C1018 C 0.12947 0.49903 0.84048 0.0
C1019 C 0.16211 0.52383 0.87327 0.0
O1020 O 1.03969 0.47792 0.85715 0.0
O1021 O 1.05898 0.47572 0.8746 0.0
O1022 O 0.10762 0.55254 0.87662 0.0
O1023 O 0.12182 0.57026 0.8593 0.0
O1024 O 0.07839 0.5232 0.84297 0.0
O1025 O 0.12542 0.57546 0.8386 0.0
O1026 O 0.20459 0.61784 0.85129 0.0
O1027 O 0.20798 0.58441 0.83815 0.0
O1028 O 0.14481 0.52598 0.83382 0.0
O1029 O 0.1333 0.50764 0.85121 0.0
O1030 O 0.17742 0.55317 0.86747 0.0
O1031 O 0.13102 0.49964 0.87034 0.0
H1032 H 0.96721 0.44832 0.86076 0.0
H1033 H 0.93695 0.47938 0.86467 0.0
H1034 H 1.01411 0.54119 0.89066 0.0
H1035 H 1.04203 0.50891 0.88739 0.0
H1036 H 0.28294 0.67023 0.83731 0.0
H1037 H 0.34121 0.68512 0.84293 0.0
H1038 H 0.30025 0.59549 0.86526 0.0
H1039 H 0.24241 0.58039 0.85931 0.0
Nd1040 Nd 0.57466 0.60547 0.86548 0.0
Nd1041 Nd 0.61501 0.67067 0.85174 0.0
C1042 C 0.54737 0.54426 0.87493 0.0
C1043 C 0.54244 0.51209 0.87021 0.0
C1044 C 0.55543 0.51143 0.85897 0.0
C1045 C 0.5449 0.4804 0.85327 0.0
C1046 C 0.52126 0.44975 0.85877 0.0
C1047 C 0.51057 0.45045 0.87044 0.0
C1048 C 0.52103 0.48155 0.87611 0.0
C1049 C 0.54551 0.64635 0.86586 0.0
C1050 C 0.57205 0.60125 0.83623 0.0
C1051 C 0.63617 0.72749 0.83953 0.0
C1052 C 0.62928 0.7556 0.84126 0.0
C1053 C 0.5972 0.74869 0.8454 0.0
C1054 C 0.59144 0.77529 0.84826 0.0
C1055 C 0.61784 0.80939 0.84724 0.0
C1056 C 0.64988 0.81633 0.84292 0.0
C1057 C 0.65555 0.78955 0.83995 0.0
C1058 C 0.65112 0.63851 0.85742 0.0
C1059 C 0.62087 0.67378 0.87984 0.0
O1060 O 0.57911 0.56799 0.87682 0.0
O1061 O 0.52933 0.55567 0.86959 0.0
O1062 O 0.54619 0.62895 0.87487 0.0
O1063 O 0.55935 0.64124 0.857 0.0
O1064 O 0.56133 0.58423 0.84633 0.0
O1065 O 0.59336 0.63449 0.83596 0.0
O1066 O 0.61006 0.69822 0.83634 0.0
O1067 O 0.65439 0.72431 0.84789 0.0
O1068 O 0.66502 0.67139 0.85679 0.0
O1069 O 0.6207 0.6244 0.85404 0.0
O1070 O 0.61597 0.68897 0.8707 0.0
O1071 O 0.61352 0.64175 0.87905 0.0
H1072 H 0.57203 0.53489 0.8543 0.0
H1073 H 0.55358 0.48043 0.8443 0.0
H1074 H 0.492 0.42715 0.87481 0.0
H1075 H 0.51076 0.48178 0.88477 0.0
H1076 H 0.57671 0.7227 0.84665 0.0
H1077 H 0.56627 0.76907 0.85132 0.0
H1078 H 0.67075 0.84237 0.84211 0.0
H1079 H 0.68062 0.7953 0.83694 0.0
Nd1080 Nd 0.64143 0.83741 1.01176 0.0
Nd1081 Nd 0.63738 0.83663 0.03353 0.0
C1082 C 0.64828 0.84618 0.98849 0.0
C1083 C 0.64953 0.82809 0.97789 0.0
C1084 C 0.63418 0.83064 0.96745 0.0
C1085 C 0.63363 0.81267 0.95734 0.0
C1086 C 0.64859 0.79194 0.9575 0.0
C1087 C 0.66444 0.78976 0.96793 0.0
C1088 C 0.66471 0.80757 0.97811 0.0
C1089 C 0.67453 0.80018 1.01959 0.0
C1090 C 0.57747 0.7666 0.02078 0.0
C1091 C 0.64285 0.83363 0.05692 0.0
C1092 C 0.662 0.84162 0.06823 0.0
C1093 C 0.66547 0.81597 0.07398 0.0
C1094 C 0.67755 0.82052 0.08564 0.0
C1095 C 0.68626 0.85077 0.09186 0.0
C1096 C 0.68409 0.877 0.08593 0.0
C1097 C 0.672 0.87244 0.07426 0.0
C1098 C 0.57873 0.8381 0.02587 0.0
C1099 C 0.68442 0.9165 0.02344 0.0
O1100 O 0.61889 0.83263 0.99391 0.0
O1101 O 0.67412 0.85766 0.9958 0.0
O1102 O 0.64966 0.79003 1.01207 0.0
O1103 O 0.67915 0.8288 0.02387 0.0
O1104 O 0.58723 0.788 1.01177 0.0
O1105 O 0.59684 0.77799 0.03041 0.0
O1106 O 0.64409 0.81198 0.04957 0.0
O1107 O 0.63923 0.85719 0.05159 0.0
O1108 O 0.57971 0.81857 0.03402 0.0
O1109 O 0.6088 0.85625 0.02151 0.0
O1110 O 0.67301 0.89786 0.03326 0.0
O1111 O 0.67615 0.89841 1.01349 0.0
H1112 H 0.62232 0.84634 0.96716 0.0
H1113 H 0.6216 0.81505 0.94936 0.0
H1114 H 0.67593 0.77375 0.96826 0.0
H1115 H 0.67644 0.80507 0.98615 0.0
H1116 H 0.65735 0.79169 0.06966 0.0
H1117 H 0.67857 0.79968 0.08996 0.0
H1118 H 0.69112 0.90083 0.09041 0.0
H1119 H 0.66932 0.89259 0.07013 0.0
Nd1120 Nd 0.28005 0.83802 1.01053 0.0
Nd1121 Nd 0.28179 0.83644 0.03254 0.0
C1122 C 0.28819 0.83679 0.98724 0.0
C1123 C 0.31355 0.85854 0.97821 0.0
C1124 C 0.33923 0.85154 0.9747 0.0
C1125 C 0.36277 0.87116 0.96596 0.0
C1126 C 0.36105 0.89811 0.96046 0.0
C1127 C 0.33555 0.90534 0.96402 0.0
C1128 C 0.312 0.88574 0.97281 0.0
C1129 C 0.30617 0.9081 1.01815 0.0
C1130 C 0.35228 0.84749 0.02155 0.0
C1131 C 0.28063 0.85149 0.05526 0.0
C1132 C 0.26494 0.84793 0.0671 0.0
C1133 C 0.26001 0.87429 0.07139 0.0
C1134 C 0.25223 0.87535 0.08334 0.0
C1135 C 0.24937 0.85014 0.09132 0.0
C1136 C 0.2524 0.8227 0.08689 0.0
C1137 C 0.26026 0.82167 0.07492 0.0
C1138 C 0.27502 0.77378 0.02559 0.0
C1139 C 0.20136 0.80109 0.02126 0.0
O1140 O 0.29823 0.8221 0.9949 0.0
O1141 O 0.26941 0.84788 0.99211 0.0
O1142 O 0.27969 0.89033 1.01144 0.0
O1143 O 0.31502 0.88687 0.02189 0.0
O1144 O 0.33225 0.83795 1.0121 0.0
O1145 O 0.33992 0.85366 0.03124 0.0
O1146 O 0.27392 0.86655 0.04662 0.0
O1147 O 0.28744 0.8282 0.05158 0.0
O1148 O 0.29455 0.79349 0.03397 0.0
O1149 O 0.25821 0.78704 0.02097 0.0
O1150 O 0.22046 0.81334 0.03102 0.0
O1151 O 0.2191 0.80601 1.01139 0.0
H1152 H 0.34091 0.83053 0.97859 0.0
H1153 H 0.38169 0.86451 0.96325 0.0
H1154 H 0.33368 0.92605 0.95996 0.0
H1155 H 0.29245 0.89173 0.97528 0.0
H1156 H 0.26379 0.89507 0.06564 0.0
H1157 H 0.24947 0.89653 0.08641 0.0
H1158 H 0.25052 0.80296 0.0928 0.0
H1159 H 0.26426 0.80117 0.07194 0.0
Nd1160 Nd 0.27783 0.47764 1.00882 0.0
Nd1161 Nd 0.28149 0.48024 0.03091 0.0
C1162 C 0.28169 0.47477 0.9854 0.0
C1163 C 0.26644 0.47822 0.97434 0.0
C1164 C 0.25724 0.50344 0.97305 0.0
C1165 C 0.24638 0.5087 0.96203 0.0
C1166 C 0.24441 0.48875 0.95214 0.0
C1167 C 0.25252 0.46274 0.95363 0.0
C1168 C 0.26352 0.45763 0.96462 0.0
C1169 C 0.20767 0.44352 1.01691 0.0
C1170 C 0.26839 0.53922 1.01921 0.0
C1171 C 0.27484 0.47213 0.05429 0.0
C1172 C 0.27 0.45049 0.06467 0.0
C1173 C 0.24458 0.41588 0.06517 0.0
C1174 C 0.23951 0.39722 0.07565 0.0
C1175 C 0.25979 0.41293 0.08575 0.0
C1176 C 0.28559 0.4474 0.08505 0.0
C1177 C 0.29062 0.46588 0.07463 0.0
C1178 C 0.34074 0.53969 0.0233 0.0
C1179 C 0.31361 0.43355 1.01988 0.0
O1180 O 0.2994 0.50249 0.99166 0.0
O1181 O 0.2634 0.44784 0.99194 0.0
O1182 O 0.22186 0.46844 1.00939 0.0
O1183 O 0.23204 0.4391 0.02094 0.0
O1184 O 0.28036 0.53079 1.00991 0.0
O1185 O 0.26124 0.51927 0.02865 0.0
O1186 O 0.24915 0.46395 0.04713 0.0
O1187 O 0.30397 0.48499 0.04879 0.0
O1188 O 0.31993 0.53822 0.03145 0.0
O1189 O 0.32915 0.50975 1.0188 0.0
O1190 O 0.30752 0.44526 0.02984 0.0
O1191 O 0.30283 0.44161 1.01009 0.0
H1192 H 0.2593 0.51966 0.98045 0.0
H1193 H 0.24055 0.52908 0.96118 0.0
H1194 H 0.25062 0.44648 0.94626 0.0
H1195 H 0.27049 0.43803 0.96546 0.0
H1196 H 0.22838 0.40346 0.05755 0.0
H1197 H 0.21957 0.37064 0.07587 0.0
H1198 H 0.30121 0.46059 0.0927 0.0
H1199 H 0.31021 0.49264 0.07446 0.0
Nd1200 Nd 0.31448 0.43712 0.5108 0.0
Nd1201 Nd 0.24676 0.37395 0.50273 0.0
C1202 C 0.36746 0.49352 0.519 0.0
C1203 C 0.39913 0.52217 0.51407 0.0
C1204 C 0.39819 0.54141 0.50442 0.0
C1205 C 0.42817 0.56975 0.50033 0.0
C1206 C 0.45971 0.57915 0.50572 0.0
C1207 C 0.46076 0.55923 0.5151 0.0
C1208 C 0.43072 0.5311 0.51927 0.0
C1209 C 0.31908 0.38385 0.50129 0.0
C1210 C 0.29605 0.43015 0.48332 0.0
C1211 C 0.19521 0.31474 0.49581 0.0
C1212 C 0.16741 0.30742 0.48751 0.0
C1213 C 0.13907 0.27455 0.48651 0.0
C1214 C 0.10927 0.26972 0.48092 0.0
C1215 C 0.10701 0.29798 0.47674 0.0
C1216 C 0.137 0.33031 0.47679 0.0
C1217 C 0.16689 0.33478 0.48196 0.0
C1218 C 0.24368 0.43274 0.50429 0.0
C1219 C 0.26439 0.38331 0.53111 0.0
O1220 O 0.33874 0.49153 0.51575 0.0
O1221 O 0.36556 0.46369 0.5195 0.0
O1222 O 0.34117 0.41541 0.49893 0.0
O1223 O 0.29701 0.38154 0.5085 0.0
O1224 O 0.30853 0.4523 0.49212 0.0
O1225 O 0.27581 0.39715 0.48531 0.0
O1226 O 0.19463 0.33051 0.50548 0.0
O1227 O 0.22579 0.32808 0.49115 0.0
O1228 O 0.22601 0.40856 0.49678 0.0
O1229 O 0.25942 0.42398 0.51139 0.0
O1230 O 0.24455 0.36283 0.52261 0.0
O1231 O 0.29178 0.4132 0.52887 0.0
H1232 H 0.37424 0.53495 0.50012 0.0
H1233 H 0.42669 0.58452 0.49303 0.0
H1234 H 0.48469 0.56613 0.5195 0.0
H1235 H 0.43207 0.51666 0.52671 0.0
H1236 H 0.13929 0.253 0.4906 0.0
H1237 H 0.08751 0.24411 0.48059 0.0
H1238 H 0.13712 0.35307 0.47381 0.0
H1239 H 0.18884 0.36025 0.48245 0.0
Nd1240 Nd 0.63754 0.84178 0.51634 0.0
Nd1241 Nd 0.70945 0.87775 0.50433 0.0
C1242 C 0.57862 0.80222 0.52684 0.0
C1243 C 0.54293 0.7939 0.52543 0.0
C1244 C 0.52631 0.78392 0.51439 0.0
C1245 C 0.49312 0.7781 0.51309 0.0
C1246 C 0.47614 0.78269 0.52275 0.0
C1247 C 0.49261 0.79189 0.53385 0.0
C1248 C 0.52563 0.79727 0.53518 0.0
C1249 C 0.66932 0.91144 0.51391 0.0
C1250 C 0.64297 0.86136 0.48875 0.0
C1251 C 0.77247 0.91987 0.49731 0.0
C1252 C 0.80468 0.94049 0.50372 0.0
C1253 C 0.80445 0.95278 0.51515 0.0
C1254 C 0.82918 0.95658 0.52339 0.0
C1255 C 0.85202 0.9451 0.52044 0.0
C1256 C 0.85743 0.94181 0.50831 0.0
C1257 C 0.83337 0.93899 0.49997 0.0
C1258 C 0.66997 0.80812 0.50128 0.0
C1259 C 0.70452 0.85998 0.53274 0.0
O1260 O 0.59109 0.79142 0.51848 0.0
O1261 O 0.6002 0.83326 0.53052 0.0
O1262 O 0.63687 0.89179 0.51184 0.0
O1263 O 0.68265 0.89423 0.51698 0.0
O1264 O 0.62423 0.83738 0.49655 0.0
O1265 O 0.67536 0.88405 0.49081 0.0
O1266 O 0.74933 0.9291 0.49829 0.0
O1267 O 0.7598 0.8868 0.49844 0.0
O1268 O 0.68826 0.82845 0.49277 0.0
O1269 O 0.67382 0.82475 0.51059 0.0
O1270 O 0.72488 0.87699 0.52377 0.0
O1271 O 0.67087 0.84265 0.53178 0.0
H1272 H 0.5391 0.7812 0.50669 0.0
H1273 H 0.48099 0.77054 0.50446 0.0
H1274 H 0.48053 0.79618 0.54143 0.0
H1275 H 0.53804 0.80499 0.54376 0.0
H1276 H 0.78294 0.95506 0.51817 0.0
H1277 H 0.82579 0.96141 0.53257 0.0
H1278 H 0.87588 0.93467 0.50549 0.0
H1279 H 0.83445 0.93046 0.49107 0.0
Nd1280 Nd 0.1999 0.76436 0.52483 0.0
Nd1281 Nd 0.22208 0.82755 0.50925 0.0
C1282 C 0.18894 0.70796 0.5354 0.0
C1283 C 0.19256 0.67883 0.53189 0.0
C1284 C 0.21482 0.68222 0.52268 0.0
C1285 C 0.21858 0.65462 0.51938 0.0
C1286 C 0.19967 0.62296 0.52512 0.0
C1287 C 0.1769 0.61956 0.53424 0.0
C1288 C 0.17347 0.6474 0.53762 0.0
C1289 C 0.15992 0.79362 0.52725 0.0
C1290 C 0.18097 0.75221 0.49684 0.0
C1291 C 0.23281 0.87638 0.49408 0.0
C1292 C 0.26001 0.91178 0.49271 0.0
C1293 C 0.25438 0.93474 0.48614 0.0
C1294 C 0.27949 0.96925 0.48573 0.0
C1295 C 0.31044 0.98101 0.49191 0.0
C1296 C 0.31615 0.95757 0.49823 0.0
C1297 C 0.2911 0.92325 0.49865 0.0
C1298 C 0.27231 0.8124 0.51418 0.0
C1299 C 0.24017 0.83828 0.53716 0.0
O1300 O 0.21763 0.73714 0.53642 0.0
O1301 O 0.16478 0.71061 0.52993 0.0
O1302 O 0.16589 0.77828 0.53579 0.0
O1303 O 0.17217 0.7906 0.5176 0.0
O1304 O 0.18574 0.73903 0.50657 0.0
O1305 O 0.18894 0.78446 0.49628 0.0
O1306 O 0.21433 0.87011 0.50366 0.0
O1307 O 0.24157 0.85333 0.49201 0.0
O1308 O 0.27746 0.84326 0.51405 0.0
O1309 O 0.24194 0.79105 0.5115 0.0
O1310 O 0.23121 0.85033 0.52801 0.0
O1311 O 0.23791 0.80802 0.53673 0.0
H1312 H 0.22943 0.70628 0.51809 0.0
H1313 H 0.23669 0.65828 0.51245 0.0
H1314 H 0.16157 0.59537 0.5387 0.0
H1315 H 0.15591 0.64438 0.54468 0.0
H1316 H 0.23033 0.92614 0.48156 0.0
H1317 H 0.27452 0.9868 0.48077 0.0
H1318 H 0.33942 0.96597 0.50328 0.0
H1319 H 0.29564 0.90584 0.50388 0.0
Nd1320 Nd 0.17104 0.59729 0.34056 0.0
Nd1321 Nd 0.16738 0.59545 0.3626 0.0
C1322 C 0.15367 0.5979 0.31813 0.0
C1323 C 0.1382 0.58347 0.30654 0.0
C1324 C 0.13696 0.60562 0.29815 0.0
C1325 C 0.12202 0.59351 0.28707 0.0
C1326 C 0.1078 0.55882 0.28411 0.0
C1327 C 0.10956 0.53658 0.29247 0.0
C1328 C 0.12459 0.54883 0.30367 0.0
C1329 C 0.22734 0.59144 0.34746 0.0
C1330 C 0.12589 0.51676 0.35136 0.0
C1331 C 0.17539 0.59803 0.38599 0.0
C1332 C 0.1731 0.61478 0.39681 0.0
C1333 C 0.19614 0.62065 0.40604 0.0
C1334 C 0.19376 0.63491 0.41671 0.0
C1335 C 0.1682 0.64354 0.41834 0.0
C1336 C 0.14522 0.63788 0.40902 0.0
C1337 C 0.14772 0.62369 0.3983 0.0
C1338 C 0.12329 0.62146 0.35517 0.0
C1339 C 0.23129 0.66787 0.35167 0.0
O1340 O 0.13382 0.59449 0.32707 0.0
O1341 O 0.18197 0.59896 0.32124 0.0
O1342 O 0.22696 0.61077 0.33904 0.0
O1343 O 0.19735 0.57448 0.35218 0.0
O1344 O 0.13493 0.53573 0.34155 0.0
O1345 O 0.13644 0.53452 0.36134 0.0
O1346 O 0.20008 0.61647 0.37865 0.0
O1347 O 0.14691 0.57718 0.3806 0.0
O1348 O 0.11498 0.59561 0.36211 0.0
O1349 O 0.1533 0.63014 0.35134 0.0
O1350 O 0.21888 0.64909 0.36139 0.0
O1351 O 0.21471 0.65436 0.34168 0.0
H1352 H 0.14753 0.63248 0.3002 0.0
H1353 H 0.12176 0.61148 0.28078 0.0
H1354 H 0.09875 0.5097 0.29045 0.0
H1355 H 0.12537 0.53137 0.31006 0.0
H1356 H 0.21575 0.61374 0.40505 0.0
H1357 H 0.21154 0.63858 0.42378 0.0
H1358 H 0.1255 0.64462 0.41001 0.0
H1359 H 0.12974 0.61942 0.39123 0.0
Nd1360 Nd 0.52618 0.59599 0.34263 0.0
Nd1361 Nd 0.52765 0.59466 0.36423 0.0
C1362 C 0.52858 0.58108 0.32002 0.0
C1363 C 0.54574 0.58723 0.30837 0.0
C1364 C 0.56163 0.56862 0.30499 0.0
C1365 C 0.57037 0.56796 0.29312 0.0
C1366 C 0.56298 0.58556 0.28442 0.0
C1367 C 0.5493 0.60603 0.28794 0.0
C1368 C 0.54076 0.60686 0.29979 0.0
C1369 C 0.53286 0.65894 0.34903 0.0
C1370 C 0.60663 0.63182 0.35397 0.0
C1371 C 0.51879 0.59564 0.38744 0.0
C1372 C 0.49251 0.57324 0.39603 0.0
C1373 C 0.47355 0.58554 0.40195 0.0
C1374 C 0.44727 0.56446 0.40965 0.0
C1375 C 0.43967 0.53076 0.41168 0.0
C1376 C 0.45884 0.51847 0.40586 0.0
C1377 C 0.48494 0.53948 0.39803 0.0
C1378 C 0.50172 0.52441 0.35669 0.0
C1379 C 0.45519 0.58439 0.35318 0.0
O1380 O 0.53729 0.56785 0.32872 0.0
O1381 O 0.51859 0.60207 0.32362 0.0
O1382 O 0.51333 0.63876 0.34075 0.0
O1383 O 0.54958 0.64596 0.35392 0.0
O1384 O 0.58767 0.61958 0.34418 0.0
O1385 O 0.58861 0.62675 0.36377 0.0
O1386 O 0.50907 0.61054 0.37977 0.0
O1387 O 0.53787 0.58476 0.38268 0.0
O1388 O 0.52845 0.54242 0.36328 0.0
O1389 O 0.4926 0.54548 0.35307 0.0
O1390 O 0.47533 0.59466 0.36261 0.0
O1391 O 0.46776 0.57785 0.34363 0.0
H1392 H 0.56542 0.55291 0.31136 0.0
H1393 H 0.5807 0.55179 0.29064 0.0
H1394 H 0.54367 0.62012 0.28142 0.0
H1395 H 0.52833 0.62126 0.30206 0.0
H1396 H 0.47893 0.61147 0.40055 0.0
H1397 H 0.43324 0.57472 0.41419 0.0
H1398 H 0.4534 0.49255 0.40729 0.0
H1399 H 0.49896 0.5292 0.39351 0.0
Nd1400 Nd 0.52551 0.9535 0.34126 0.0
Nd1401 Nd 0.53113 0.95594 0.3633 0.0
C1402 C 0.53769 0.95558 0.31803 0.0
C1403 C 0.53432 0.96868 0.30643 0.0
C1404 C 0.50587 0.97185 0.30341 0.0
C1405 C 0.5036 0.98371 0.29212 0.0
C1406 C 0.52984 0.99277 0.28373 0.0
C1407 C 0.55813 0.98941 0.28686 0.0
C1408 C 0.56032 0.97756 0.29807 0.0
C1409 C 0.46061 0.90361 0.34987 0.0
C1410 C 0.49479 1.00041 0.3518 0.0
C1411 C 0.52726 0.95859 0.38675 0.0
C1412 C 0.53334 0.94259 0.39705 0.0
C1413 C 0.52901 0.90967 0.39631 0.0
C1414 C 0.5356 0.89518 0.40618 0.0
C1415 C 0.54685 0.91349 0.4169 0.0
C1416 C 0.55108 0.94646 0.41755 0.0
C1417 C 0.5443 0.96082 0.40771 0.0
C1418 C 0.60043 0.99096 0.35503 0.0
C1419 C 0.53858 0.89324 0.3531 0.0
O1420 O 0.55909 0.9777 0.32561 0.0
O1421 O 0.51025 0.9317 0.3231 0.0
O1422 O 0.4658 0.92739 0.34228 0.0
O1423 O 0.48948 0.90888 0.35351 0.0
O1424 O 0.50346 0.99158 0.34174 0.0
O1425 O 0.50287 0.98934 0.36154 0.0
O1426 O 0.50145 0.93873 0.37999 0.0
O1427 O 0.5541 0.97967 0.38068 0.0
O1428 O 0.58697 0.96597 0.36254 0.0
O1429 O 0.57558 0.99514 0.35115 0.0
O1430 O 0.53064 0.90392 0.36285 0.0
O1431 O 0.54174 0.91092 0.3433 0.0
H1432 H 0.48549 0.96515 0.30975 0.0
H1433 H 0.48157 0.98617 0.29 0.0
H1434 H 0.57849 0.9955 0.28057 0.0
H1435 H 0.58236 0.97507 0.30019 0.0
H1436 H 0.52066 0.89523 0.38811 0.0
H1437 H 0.53186 0.86966 0.40542 0.0
H1438 H 0.56038 0.96154 0.42559 0.0
H1439 H 0.54799 0.98636 0.40838 0.0
C1440 C 0.2436 0.26124 0.19458 0.0
C1441 C 0.24609 0.28206 0.20416 0.0
C1442 C 0.23906 0.22865 0.1964 0.0
C1443 C 0.2366 0.21642 0.20813 0.0
C1444 C 0.24035 0.23785 0.21788 0.0
C1445 C 0.24527 0.27067 0.21577 0.0
C1446 C 0.23542 0.20678 0.18574 0.0
C1447 C 0.23744 0.22551 0.23049 0.0
C1448 C 0.18611 0.11991 0.20854 0.0
C1449 C 0.21227 0.11192 0.20789 0.0
C1450 C 0.19366 0.15389 0.20959 0.0
C1451 C 0.22821 0.18049 0.20994 0.0
C1452 C 0.25463 0.17237 0.21018 0.0
C1453 C 0.24634 0.13814 0.20916 0.0
C1454 C 0.16469 0.16141 0.20939 0.0
C1455 C 0.29175 0.19997 0.21057 0.0
H1456 H 0.24418 0.27011 0.18559 0.0
H1457 H 0.2467 0.28665 0.22318 0.0
H1458 H 0.25353 0.19707 0.1864 0.0
H1459 H 0.20922 0.1843 0.18546 0.0
H1460 H 0.24018 0.22096 0.17726 0.0
H1461 H 0.24496 0.24649 0.23703 0.0
H1462 H 0.21062 0.20551 0.23228 0.0
H1463 H 0.25362 0.21378 0.23186 0.0
H1464 H 0.15972 0.09966 0.20776 0.0
H1465 H 0.26671 0.13216 0.20861 0.0
H1466 H 0.16361 0.17158 0.20054 0.0
H1467 H 0.16883 0.18112 0.21608 0.0
H1468 H 0.13959 0.13819 0.2111 0.0
H1469 H 0.29915 0.21312 0.20186 0.0
H1470 H 0.30881 0.18948 0.21251 0.0
H1471 H 0.29599 0.21944 0.21738 0.0
C1472 C 0.99373 0.08473 0.2046 0.0
C1473 C 1.00042 0.11736 0.20139 0.0
C1474 C 0.96013 0.05838 0.20654 0.0
C1475 C 0.93292 0.06525 0.20542 0.0
C1476 C 0.93994 0.09885 0.20303 0.0
C1477 C 0.9737 0.1245 0.20089 0.0
C1478 C 0.95366 1.02273 0.20886 0.0
C1479 C 0.91166 0.10722 0.202 0.0
C1480 C 0.851 0.99083 0.19392 0.0
C1481 C 0.83308 0.97668 0.20445 0.0
C1482 C 0.88311 1.02039 0.19411 0.0
C1483 C 0.89724 1.03652 0.20509 0.0
C1484 C 0.87812 1.02377 0.21567 0.0
C1485 C 0.84612 0.99374 0.21523 0.0
C1486 C 0.90278 1.03302 0.18263 0.0
C1487 C 0.89225 1.04071 0.22749 0.0
H1488 H 1.01456 0.07938 0.20491 0.0
H1489 H 0.97916 0.14997 0.1985 0.0
H1490 H 0.93459 1.01018 0.21603 0.0
H1491 H 0.94312 1.00709 0.20071 0.0
H1492 H 0.97743 1.02269 0.21133 0.0
H1493 H 0.92167 0.13522 0.20191 0.0
H1494 H 0.89724 0.09622 0.19364 0.0
H1495 H 0.89336 0.09576 0.20945 0.0
H1496 H 0.84071 0.97768 0.18557 0.0
H1497 H 0.83217 0.98276 0.22338 0.0
H1498 H 0.9259 1.03043 0.18301 0.0
H1499 H 0.91146 0.06048 0.18133 0.0
H1500 H 0.88734 1.01858 0.17479 0.0
H1501 H 0.91354 1.03657 0.23013 0.0
H1502 H 0.87256 1.03037 0.23458 0.0
H1503 H 0.90276 0.06869 0.22684 0.0
C1504 C 0.12299 0.87444 0.19428 0.0
C1505 C 0.13644 0.87019 0.20489 0.0
C1506 C 0.09618 0.88141 0.19436 0.0
C1507 C 0.0829 0.88458 0.20535 0.0
C1508 C 0.09567 0.8792 0.21611 0.0
C1509 C 0.12229 0.87178 0.21575 0.0
C1510 C 0.083 0.88665 0.18268 0.0
C1511 C 0.08238 0.88291 0.22797 0.0
C1512 C 1.04033 0.93807 0.20306 0.0
C1513 C 1.00601 0.91273 0.20175 0.0
C1514 C 0.0656 0.92928 0.20496 0.0
C1515 C 1.05619 0.89436 0.20543 0.0
C1516 C 1.02141 0.86874 0.20467 0.0
C1517 C 0.99672 0.87825 0.20283 0.0
C1518 C 0.10248 0.95735 0.20576 0.0
C1519 C 1.01047 0.83125 0.20507 0.0
H1520 H 0.13421 0.87335 0.1859 0.0
H1521 H 0.1332 0.86905 0.22397 0.0
H1522 H 1.05486 0.86987 0.18215 0.0
H1523 H 0.08859 0.91344 0.18205 0.0
H1524 H 0.09474 0.88125 0.17494 0.0
H1525 H 0.09341 0.87565 0.23547 0.0
H1526 H 0.08882 0.90982 0.22923 0.0
H1527 H 1.05413 0.86686 0.22828 0.0
H1528 H 1.04749 0.96474 0.20235 0.0
H1529 H 0.97024 0.85853 0.20168 0.0
H1530 H 0.11547 0.95851 0.19729 0.0
H1531 H 0.11602 0.95212 0.21294 0.0
H1532 H 0.10498 0.98274 0.20735 0.0
H1533 H 1.01948 0.82429 0.19695 0.0
H1534 H 0.98226 0.81471 0.20561 0.0
H1535 H 1.02219 0.82578 0.21279 0.0
C1536 C 0.19321 0.15026 0.36373 0.0
C1537 C 0.22538 0.17694 0.3599 0.0
C1538 C 0.16248 0.1516 0.36268 0.0
C1539 C 0.16275 0.1808 0.35785 0.0
C1540 C 0.19514 0.20791 0.35387 0.0
C1541 C 0.22564 0.20559 0.35482 0.0
C1542 C 0.12942 0.12141 0.36686 0.0
C1543 C 0.1977 0.23986 0.34875 0.0
C1544 C 0.07582 0.17066 0.34673 0.0
C1545 C 0.06407 0.18179 0.35643 0.0
C1546 C 0.10752 0.17074 0.34697 0.0
C1547 C 0.12934 0.18264 0.35713 0.0
C1548 C 0.11788 0.19448 0.36687 0.0
C1549 C 0.08584 0.19371 0.36644 0.0
C1550 C 0.11731 0.15721 0.33636 0.0
C1551 C 0.13946 0.20776 0.37792 0.0
H1552 H 0.1919 0.1277 0.36759 0.0
H1553 H 0.24983 0.22664 0.35183 0.0
H1554 H 0.11886 0.12923 0.37433 0.0
H1555 H 0.11022 0.1122 0.3596 0.0
H1556 H 0.13275 0.09986 0.36985 0.0
H1557 H 0.22418 0.2587 0.34601 0.0
H1558 H 0.1806 0.23333 0.34094 0.0
H1559 H 0.18903 0.25194 0.35542 0.0
H1560 H 1.0598 0.16115 0.3389 0.0
H1561 H 0.07777 0.20246 0.37407 0.0
H1562 H 0.11883 0.13435 0.33896 0.0
H1563 H 0.14297 0.17662 0.33313 0.0
H1564 H 0.09872 0.15008 0.32895 0.0
H1565 H 0.14162 0.18687 0.38222 0.0
H1566 H 0.12863 0.2182 0.38443 0.0
H1567 H 0.1657 0.22811 0.37557 0.0
C1568 C 0.95692 0.92724 0.3477 0.0
C1569 C 0.94435 0.90426 0.35737 0.0
C1570 C 0.95656 0.95869 0.34753 0.0
C1571 C 0.94296 0.96846 0.35721 0.0
C1572 C 0.92978 0.94513 0.36693 0.0
C1573 C 0.93077 0.91393 0.36693 0.0
C1574 C 0.97154 0.98198 0.33697 0.0
C1575 C 0.91479 0.95334 0.37751 0.0
C1576 C 0.97452 0.06501 0.363 0.0
C1577 C 0.94845 0.07037 0.3584 0.0
C1578 C 0.97315 1.03284 0.36254 0.0
C1579 C 0.94458 1.00367 0.35748 0.0
C1580 C 0.91808 1.00876 0.35271 0.0
C1581 C 0.92038 1.04167 0.35313 0.0
C1582 C 1.00267 1.03017 0.36757 0.0
C1583 C 0.88685 0.97913 0.34726 0.0
H1584 H 0.96771 0.92089 0.34021 0.0
H1585 H 0.92089 0.89706 0.37452 0.0
H1586 H 0.95247 0.98789 0.33315 0.0
H1587 H 0.99384 1.00655 0.33982 0.0
H1588 H 0.97993 0.97063 0.32992 0.0
H1589 H 0.9036 0.93213 0.38404 0.0
H1590 H 0.93491 0.97661 0.382 0.0
H1591 H 0.89464 0.95888 0.37457 0.0
H1592 H 0.99663 0.08645 0.36705 0.0
H1593 H 0.89979 0.04465 0.34956 0.0
H1594 H 1.01312 1.02033 0.3607 0.0
H1595 H 0.99368 1.01173 0.37503 0.0
H1596 H 1.02365 0.05512 0.37083 0.0
H1597 H 0.89443 0.96841 0.33978 0.0
H1598 H 0.86837 0.98658 0.34395 0.0
H1599 H 0.87391 0.95851 0.35393 0.0
C1600 C 0.07994 0.90169 0.35536 0.0
C1601 C 1.05168 0.90161 0.36071 0.0
C1602 C 0.11279 0.93216 0.35449 0.0
C1603 C 0.11826 0.96428 0.35882 0.0
C1604 C 0.08947 0.96429 0.36393 0.0
C1605 C 1.0573 0.93348 0.36491 0.0
C1606 C 0.14201 0.92982 0.34909 0.0
C1607 C 0.09258 0.99712 0.36847 0.0
C1608 C 0.20896 1.03976 0.36756 0.0
C1609 C 0.21914 0.06196 0.35769 0.0
C1610 C 0.17724 1.00812 0.3679 0.0
C1611 C 0.15372 0.99755 0.35822 0.0
C1612 C 0.1639 1.01985 0.34821 0.0
C1613 C 0.19604 0.05112 0.34803 0.0
C1614 C 0.16877 0.98594 0.37877 0.0
C1615 C 0.14033 1.01103 0.33769 0.0
H1616 H 0.07666 0.87771 0.35207 0.0
H1617 H 1.03613 0.93448 0.369 0.0
H1618 H 0.15243 0.9473 0.34138 0.0
H1619 H 0.16298 0.93812 0.35567 0.0
H1620 H 0.13422 0.90349 0.34611 0.0
H1621 H 0.06772 0.9937 0.37155 0.0
H1622 H 0.11096 1.00708 0.37597 0.0
H1623 H 0.10274 1.0168 0.36139 0.0
H1624 H 0.22593 0.04714 0.37515 0.0
H1625 H 0.20278 0.06754 0.34032 0.0
H1626 H 0.16249 0.95975 0.37619 0.0
H1627 H 0.14588 0.98384 0.38319 0.0
H1628 H 0.19014 0.99621 0.38527 0.0
H1629 H 0.13381 0.98559 0.33413 0.0
H1630 H 0.15177 1.03016 0.33046 0.0
H1631 H 0.11607 1.00945 0.34051 0.0
C1632 C 0.91683 0.80342 0.82075 0.0
C1633 C 0.9092 0.78837 0.83203 0.0
C1634 C 0.91905 0.83525 0.81885 0.0
C1635 C 0.91425 0.85246 0.82854 0.0
C1636 C 0.90459 0.83619 0.83975 0.0
C1637 C 0.90163 0.80417 0.84127 0.0
C1638 C 0.92821 0.85077 0.80663 0.0
C1639 C 0.89984 0.85363 0.85044 0.0
C1640 C 0.96236 0.94651 0.83469 0.0
C1641 C 0.93548 0.95339 0.83521 0.0
C1642 C 0.95665 0.91465 0.83074 0.0
C1643 C 0.9231 0.88884 0.82773 0.0
C1644 C 0.8969 0.89713 0.82686 0.0
C1645 C 0.90338 0.92945 0.83063 0.0
C1646 C 0.98595 0.90775 0.83052 0.0
C1647 C 0.86139 0.87101 0.82287 0.0
H1648 H 0.92243 0.7911 0.81354 0.0
H1649 H 0.89524 0.79233 0.84996 0.0
H1650 H 0.92138 0.87091 0.80528 0.0
H1651 H 0.95611 0.8621 0.80524 0.0
H1652 H 0.91513 0.83071 0.79975 0.0
H1653 H 0.89169 0.8371 0.85845 0.0
H1654 H 0.92423 0.87729 0.85251 0.0
H1655 H 0.8804 0.86108 0.84855 0.0
H1656 H 0.98746 0.96553 0.83785 0.0
H1657 H 0.88271 0.93505 0.8308 0.0
H1658 H 0.98838 0.89925 0.82153 0.0
H1659 H 0.98088 0.88676 0.83675 0.0
H1660 H 1.01057 0.93077 0.83286 0.0
H1661 H 0.8625 0.85552 0.81542 0.0
H1662 H 0.84651 0.88324 0.82003 0.0
H1663 H 0.84762 0.85339 0.83031 0.0
C1664 C 0.27664 0.05454 0.84127 0.0
C1665 C 0.29094 0.07606 0.8315 0.0
C1666 C 0.24301 1.02726 0.84092 0.0
C1667 C 0.22281 1.02215 0.83067 0.0
C1668 C 0.2377 0.04299 0.82054 0.0
C1669 C 0.27194 0.06955 0.82103 0.0
C1670 C 0.22848 1.00528 0.85184 0.0
C1671 C 0.21689 1.03923 0.80959 0.0
C1672 C 0.13913 0.93868 0.83223 0.0
C1673 C 0.11955 0.94846 0.83917 0.0
C1674 C 0.1722 0.96282 0.82848 0.0
C1675 C 0.18546 0.99766 0.83133 0.0
C1676 C 0.16414 1.00802 0.83692 0.0
C1677 C 0.13196 0.98338 0.84105 0.0
C1678 C 0.19379 0.95062 0.82235 0.0
C1679 C 0.17624 0.04496 0.83956 0.0
H1680 H 0.29147 0.05981 0.84937 0.0
H1681 H 0.28298 0.08667 0.81354 0.0
H1682 H 0.20977 1.01093 0.85613 0.0
H1683 H 0.21478 0.97782 0.84938 0.0
H1684 H 0.2486 1.00985 0.85844 0.0
H1685 H 0.23345 0.0513 0.80173 0.0
H1686 H 0.19871 1.01199 0.80757 0.0
H1687 H 0.20172 0.052 0.81114 0.0
H1688 H 0.12935 0.912 0.83013 0.0
H1689 H 0.11763 0.99179 0.84636 0.0
H1690 H 0.21214 0.95035 0.82883 0.0
H1691 H 0.20886 0.96812 0.81504 0.0
H1692 H 0.17801 0.92441 0.81869 0.0
H1693 H 0.19122 0.05211 0.84793 0.0
H1694 H 0.15443 0.04946 0.84077 0.0
H1695 H 0.19268 0.06174 0.83233 0.0
C1696 C 0.99889 0.16377 0.84512 0.0
C1697 C 0.97406 0.15492 0.8363 0.0
C1698 C 1.0272 0.15968 0.84331 0.0
C1699 C 1.0308 0.14638 0.83238 0.0
C1700 C 1.00648 0.13869 0.82321 0.0
C1701 C 0.97825 0.14311 0.82529 0.0
C1702 C 1.05245 0.16819 0.85334 0.0
C1703 C 1.00936 0.12435 0.81146 0.0
C1704 C 0.12018 0.1605 0.82927 0.0
C1705 C 0.11618 0.1304 0.83434 0.0
C1706 C 0.09193 0.165 0.82755 0.0
C1707 C 1.05907 0.13885 0.83105 0.0
C1708 C 1.05459 0.10737 0.83524 0.0
C1709 C 0.08321 0.10352 0.83684 0.0
C1710 C 0.09767 0.19873 0.82289 0.0
C1711 C 1.01995 0.0787 0.83895 0.0
H1712 H 0.99558 0.17295 0.85364 0.0
H1713 H 0.95878 0.13592 0.81852 0.0
H1714 H 1.05196 0.14462 0.85637 0.0
H1715 H 0.07875 0.18619 0.85024 0.0
H1716 H 1.04677 0.17983 0.86106 0.0
H1717 H 0.99214 0.12543 0.80466 0.0
H1718 H 1.03601 0.1384 0.80813 0.0
H1719 H 1.00235 0.09726 0.81264 0.0
H1720 H 0.1456 0.18138 0.82731 0.0
H1721 H 0.07993 0.0799 0.84049 0.0
H1722 H 0.09569 0.21378 0.83032 0.0
H1723 H 0.07783 0.19467 0.81626 0.0
H1724 H 0.12326 0.214 0.81875 0.0
H1725 H 1.0121 0.08595 0.84728 0.0
H1726 H 1.01995 0.05446 0.84051 0.0
H1727 H 1.00055 0.07421 0.83209 0.0
C1728 C 0.93188 0.92143 0.68989 0.0
C1729 C 0.90161 0.89217 0.68603 0.0
C1730 C 0.96417 0.92275 0.69025 0.0
C1731 C 0.96716 0.89386 0.68697 0.0
C1732 C 0.9365 0.86406 0.68328 0.0
C1733 C 0.90472 0.86374 0.68271 0.0
C1734 C 0.99542 0.95559 0.69397 0.0
C1735 C 0.93718 0.83215 0.6799 0.0
C1736 C 1.05512 0.90409 0.6773 0.0
C1737 C 0.06768 0.8966 0.68768 0.0
C1738 C 1.0233 0.90372 0.677 0.0
C1739 C 1.00204 0.89488 0.68725 0.0
C1740 C 1.01442 0.88692 0.69772 0.0
C1741 C 1.04675 0.88827 0.69785 0.0
C1742 C 1.0126 0.9133 0.66563 0.0
C1743 C 0.99327 0.87666 0.70889 0.0
H1744 H 0.93055 0.94386 0.6924 0.0
H1745 H 0.88201 0.84085 0.67971 0.0
H1746 H 1.00691 0.95118 0.70199 0.0
H1747 H 1.01495 0.96448 0.68685 0.0
H1748 H 0.98953 0.97616 0.69592 0.0
H1749 H 0.91132 0.81051 0.6778 0.0
H1750 H 0.95383 0.83725 0.67205 0.0
H1751 H 0.9482 0.82445 0.68727 0.0
H1752 H 0.07059 0.91094 0.66934 0.0
H1753 H 1.05551 0.88237 0.70599 0.0
H1754 H 1.00825 0.93502 0.66726 0.0
H1755 H 0.98811 0.89156 0.66244 0.0
H1756 H 1.03201 0.92058 0.65851 0.0
H1757 H 0.98937 0.89781 0.7119 0.0
H1758 H 1.00541 0.87004 0.7162 0.0
H1759 H 0.96765 0.85431 0.70707 0.0
C1760 C 0.18283 0.15276 0.67604 0.0
C1761 C 0.18862 0.17271 0.68637 0.0
C1762 C 0.18282 0.12116 0.67613 0.0
C1763 C 0.18962 0.10848 0.68675 0.0
C1764 C 0.19587 0.12871 0.69719 0.0
C1765 C 0.19483 0.15985 0.69692 0.0
C1766 C 0.17505 0.10101 0.66475 0.0
C1767 C 0.20402 0.11757 0.70875 0.0
C1768 C 0.16191 1.01144 0.68941 0.0
C1769 C 0.19158 1.0104 0.68623 0.0
C1770 C 0.16086 1.04256 0.6896 0.0
C1771 C 0.19044 0.07453 0.68684 0.0
C1772 C 0.22064 0.07362 0.68387 0.0
C1773 C 0.22071 1.04204 0.68344 0.0
C1774 C 0.1276 1.04103 0.69252 0.0
C1775 C 0.25325 0.10629 0.6811 0.0
H1776 H 0.17757 0.16158 0.6678 0.0
H1777 H 0.19938 0.17444 0.70502 0.0
H1778 H 0.19724 0.0983 0.66217 0.0
H1779 H 0.15304 0.07488 0.66609 0.0
H1780 H 0.16898 0.11323 0.65732 0.0
H1781 H 0.2096 0.13632 0.716 0.0
H1782 H 0.1822 0.09256 0.71147 0.0
H1783 H 0.22644 0.11406 0.70759 0.0
H1784 H 0.13896 0.98758 0.69149 0.0
H1785 H 0.24393 1.0422 0.68096 0.0
H1786 H 0.11998 0.05192 0.68509 0.0
H1787 H 0.13082 0.05675 0.70049 0.0
H1788 H 0.10661 1.01452 0.69419 0.0
H1789 H 0.24976 0.1181 0.67299 0.0
H1790 H 0.27514 0.10204 0.67968 0.0
H1791 H 0.25964 0.12484 0.68847 0.0
C1792 C 0.92153 1.03734 0.67782 0.0
C1793 C 0.91125 1.01622 0.68798 0.0
C1794 C 0.95278 0.06943 0.67738 0.0
C1795 C 0.97565 0.08157 0.68726 0.0
C1796 C 0.9653 0.06039 0.69756 0.0
C1797 C 0.93367 1.02864 0.69782 0.0
C1798 C 0.96155 0.09031 0.66617 0.0
C1799 C 0.98822 0.07088 0.70832 0.0
C1800 C 0.07221 0.14478 0.6809 0.0
C1801 C 0.07771 0.17725 0.68432 0.0
C1802 C 1.04004 0.11418 0.68202 0.0
C1803 C 1.01102 0.11487 0.68652 0.0
C1804 C 1.01628 0.14756 0.69011 0.0
C1805 C 1.04921 0.17796 0.68909 0.0
C1806 C 1.03718 0.08081 0.67825 0.0
C1807 C 0.98676 0.15053 0.69486 0.0
H1808 H 0.90507 1.02872 0.67008 0.0
H1809 H 0.92684 1.01308 0.70575 0.0
H1810 H 0.96745 0.11669 0.66827 0.0
H1811 H 0.98475 0.09217 0.6621 0.0
H1812 H 0.94048 0.07908 0.65956 0.0
H1813 H 0.97637 0.05283 0.71583 0.0
H1814 H 1.01266 0.07214 0.70599 0.0
H1815 H 0.99447 0.09678 0.71127 0.0
H1816 H 0.09354 0.14314 0.67726 0.0
H1817 H 1.05233 0.20239 0.69174 0.0
H1818 H 1.01903 0.06975 0.67072 0.0
H1819 H 1.02687 0.06214 0.68564 0.0
H1820 H 1.06215 0.08389 0.67549 0.0
H1821 H 0.9663 0.14161 0.68805 0.0
H1822 H 0.99445 0.17717 0.6974 0.0
H1823 H 0.9757 0.13384 0.70273 0.0
C1824 C 0.8777 0.49722 0.53577 0.0
C1825 C 0.84807 0.4763 0.52913 0.0
C1826 C 0.88631 0.53057 0.53899 0.0
C1827 C 0.8642 0.54295 0.53587 0.0
C1828 C 0.83304 0.52117 0.52999 0.0
C1829 C 0.82563 0.48839 0.52651 0.0
C1830 C 0.91991 0.55311 0.54519 0.0
C1831 C 0.80818 0.53299 0.52684 0.0
C1832 C 0.8762 0.6251 0.54956 0.0
C1833 C 0.89114 0.64792 0.54011 0.0
C1834 C 0.8675 0.59076 0.5484 0.0
C1835 C 0.87504 0.57954 0.53768 0.0
C1836 C 0.89162 0.60308 0.52833 0.0
C1837 C 0.89888 0.63688 0.52959 0.0
C1838 C 0.84854 0.56618 0.55836 0.0
C1839 C 0.90071 0.59231 0.51685 0.0
H1840 H 0.89472 0.48789 0.53823 0.0
H1841 H 0.80283 0.47286 0.52131 0.0
H1842 H 0.93695 0.57443 0.53923 0.0
H1843 H 0.91588 0.5646 0.55328 0.0
H1844 H 0.93313 0.53894 0.54773 0.0
H1845 H 0.78288 0.51135 0.52416 0.0
H1846 H 0.8045 0.54641 0.53444 0.0
H1847 H 0.8185 0.5513 0.51935 0.0
H1848 H 0.86952 0.6336 0.5576 0.0
H1849 H 0.91016 0.65463 0.52227 0.0
H1850 H 0.86085 0.55101 0.56064 0.0
H1851 H 0.82206 0.54792 0.55544 0.0
H1852 H 0.84726 0.57948 0.56647 0.0
H1853 H 0.91519 0.57897 0.51869 0.0
H1854 H 0.91627 0.61437 0.51092 0.0
H1855 H 0.87703 0.57411 0.51206 0.0
C1856 C 0.52126 0.35451 0.55385 0.0
C1857 C 0.50829 0.34438 0.54235 0.0
C1858 C 0.55104 0.38628 0.55583 0.0
C1859 C 0.5681 0.40783 0.54604 0.0
C1860 C 0.55357 0.39845 0.53455 0.0
C1861 C 0.52369 0.36707 0.5329 0.0
C1862 C 0.56549 0.39569 0.56821 0.0
C1863 C 0.57094 0.4203 0.5238 0.0
C1864 C 0.63918 0.49964 0.54478 0.0
C1865 C 0.66673 0.49525 0.54158 0.0
C1866 C 0.60731 0.47139 0.54773 0.0
C1867 C 0.60295 0.43816 0.54726 0.0
C1868 C 0.63177 0.43426 0.54536 0.0
C1869 C 0.66328 0.46285 0.54256 0.0
C1870 C 0.57766 0.47687 0.55025 0.0
C1871 C 0.62892 0.3997 0.54466 0.0
H1872 H 0.50934 0.33695 0.56118 0.0
H1873 H 0.51344 0.35935 0.52401 0.0
H1874 H 0.58795 0.39209 0.56899 0.0
H1875 H 0.57436 0.42297 0.57008 0.0
H1876 H 0.54646 0.37963 0.57502 0.0
H1877 H 0.55545 0.40998 0.51559 0.0
H1878 H 0.57595 0.44667 0.52521 0.0
H1879 H 0.59596 0.42181 0.52239 0.0
H1880 H 0.64176 0.52474 0.5442 0.0
H1881 H 0.68481 0.45948 0.54045 0.0
H1882 H 0.56086 0.45908 0.55723 0.0
H1883 H 0.56211 0.47175 0.54208 0.0
H1884 H 0.58651 0.50353 0.55312 0.0
H1885 H 0.60806 0.38045 0.55028 0.0
H1886 H 0.65326 0.40104 0.54727 0.0
H1887 H 0.62362 0.39112 0.5353 0.0
C1888 C 0.7288 0.33785 0.54576 0.0
C1889 C 0.69358 0.31526 0.54676 0.0
C1890 C 0.75194 0.32602 0.5471 0.0
C1891 C 0.73923 0.29077 0.54902 0.0
C1892 C 0.70445 0.2693 0.55193 0.0
C1893 C 0.68183 0.28175 0.55067 0.0
C1894 C 0.78961 0.35043 0.54537 0.0
C1895 C 0.69054 0.23222 0.55499 0.0
C1896 C 0.77737 0.25534 0.52749 0.0
C1897 C 0.80414 0.25683 0.53413 0.0
C1898 C 0.75522 0.26504 0.53246 0.0
C1899 C 0.75928 0.27535 0.54454 0.0
C1900 C 0.78443 0.27387 0.5516 0.0
C1901 C 0.80686 0.26485 0.54625 0.0
C1902 C 0.7292 0.26674 0.52448 0.0
C1903 C 0.78928 0.2835 0.56456 0.0
H1904 H 0.73799 0.3641 0.54315 0.0
H1905 H 0.65464 0.26426 0.55161 0.0
H1906 H 0.80413 0.34878 0.55302 0.0
H1907 H 0.7987 0.34324 0.53733 0.0
H1908 H 0.79555 0.37731 0.54453 0.0
H1909 H 0.66601 0.22162 0.5599 0.0
H1910 H 0.68585 0.21721 0.54671 0.0
H1911 H 0.70919 0.22896 0.56044 0.0
H1912 H 0.77513 0.24873 0.51815 0.0
H1913 H 0.82751 0.26579 0.55145 0.0
H1914 H 0.73433 0.29342 0.52402 0.0
H1915 H 0.70312 0.25067 0.5281 0.0
H1916 H 0.72963 0.25798 0.5153 0.0
H1917 H 0.81163 0.3096 0.56557 0.0
H1918 H 0.79505 0.26595 0.56964 0.0
H1919 H 0.76656 0.28294 0.56853 0.0
C1920 C 0.83981 0.46169 0.69229 0.0
C1921 C 0.87164 0.48793 0.68801 0.0
C1922 C 0.80913 0.46323 0.69165 0.0
C1923 C 0.80906 0.49213 0.68672 0.0
C1924 C 0.84104 0.51877 0.68225 0.0
C1925 C 0.87154 0.51632 0.68286 0.0
C1926 C 0.77652 0.43358 0.69639 0.0
C1927 C 0.84317 0.55032 0.67694 0.0
C1928 C 0.72074 0.4808 0.67675 0.0
C1929 C 0.71029 0.4931 0.68649 0.0
C1930 C 0.7525 0.481 0.6766 0.0
C1931 C 0.77566 0.49408 0.68638 0.0
C1932 C 0.76547 0.50702 0.69616 0.0
C1933 C 0.73341 0.50624 0.69612 0.0
C1934 C 0.76095 0.46638 0.66596 0.0
C1935 C 0.78843 0.52142 0.70684 0.0
H1936 H 0.83875 0.43933 0.69624 0.0
H1937 H 0.89543 0.53703 0.67952 0.0
H1938 H 0.76686 0.44227 0.70388 0.0
H1939 H 0.75652 0.42366 0.6894 0.0
H1940 H 0.7801 0.4123 0.69952 0.0
H1941 H 0.8693 0.56873 0.67375 0.0
H1942 H 0.82506 0.54316 0.6694 0.0
H1943 H 0.83553 0.56318 0.68365 0.0
H1944 H 0.70368 0.47033 0.66921 0.0
H1945 H 0.72635 0.51589 0.70377 0.0
H1946 H 0.76272 0.44374 0.66868 0.0
H1947 H 0.78622 0.48542 0.66232 0.0
H1948 H 0.74149 0.45859 0.65882 0.0
H1949 H 0.79117 0.50098 0.71124 0.0
H1950 H 0.77841 0.5325 0.71342 0.0
H1951 H 0.81434 0.54152 0.70405 0.0
C1952 C 0.60562 0.24083 0.67597 0.0
C1953 C 0.59206 0.21688 0.68532 0.0
C1954 C 0.60632 0.2728 0.67628 0.0
C1955 C 0.59293 0.28205 0.68616 0.0
C1956 C 0.5788 0.25775 0.69556 0.0
C1957 C 0.57868 0.22607 0.69506 0.0
C1958 C 0.62215 0.29715 0.66603 0.0
C1959 C 0.56399 0.26542 0.70632 0.0
C1960 C 0.62573 0.37809 0.6934 0.0
C1961 C 0.59992 0.38421 0.68907 0.0
C1962 C 0.62397 0.34583 0.69236 0.0
C1963 C 0.5953 0.31748 0.68696 0.0
C1964 C 0.56915 0.32345 0.68245 0.0
C1965 C 0.57181 0.35636 0.68347 0.0
C1966 C 0.65309 0.3421 0.69717 0.0
C1967 C 0.53788 0.29473 0.67666 0.0
H1968 H 0.61632 0.23483 0.66836 0.0
H1969 H 0.56812 0.20843 0.70243 0.0
H1970 H 0.60371 0.30416 0.66238 0.0
H1971 H 0.64476 0.32106 0.66918 0.0
H1972 H 0.6303 0.28615 0.65878 0.0
H1973 H 0.55228 0.24362 0.71262 0.0
H1974 H 0.58435 0.28803 0.71104 0.0
H1975 H 0.54429 0.2718 0.70356 0.0
H1976 H 0.64782 0.39893 0.69769 0.0
H1977 H 0.55146 0.36003 0.68008 0.0
H1978 H 0.66336 0.33266 0.6901 0.0
H1979 H 0.64372 0.32293 0.70441 0.0
H1980 H 0.67427 0.36657 0.70067 0.0
H1981 H 0.5455 0.2846 0.669 0.0
H1982 H 0.51983 0.30293 0.67351 0.0
H1983 H 0.52442 0.27343 0.68305 0.0
C1984 C 0.85647 0.35112 0.6944 0.0
C1985 C 0.8662 0.37398 0.68473 0.0
C1986 C 0.8248 0.31949 0.69467 0.0
C1987 C 0.80097 0.30955 0.68511 0.0
C1988 C 0.81072 0.33247 0.67529 0.0
C1989 C 0.84276 0.3638 0.67519 0.0
C1990 C 0.81664 0.29669 0.70536 0.0
C1991 C 0.78682 0.32421 0.66489 0.0
C1992 C 0.72696 0.21396 0.68204 0.0
C1993 C 0.69898 0.21392 0.68759 0.0
C1994 C 0.75981 0.24438 0.68113 0.0
C1995 C 0.76554 0.27639 0.68568 0.0
C1996 C 0.73702 0.27642 0.691 0.0
C1997 C 0.70484 0.24572 0.69197 0.0
C1998 C 0.78875 0.24213 0.67544 0.0
C1999 C 0.74047 0.30914 0.69583 0.0
H2000 H 0.87372 0.35802 0.70189 0.0
H2001 H 0.84918 0.38075 0.66764 0.0
H2002 H 0.79386 0.29431 0.70995 0.0
H2003 H 0.81031 0.27066 0.70253 0.0
H2004 H 0.83818 0.30661 0.71178 0.0
H2005 H 0.79811 0.34363 0.65775 0.0
H2006 H 0.78002 0.29888 0.66116 0.0
H2007 H 0.76274 0.32268 0.66791 0.0
H2008 H 0.72346 0.19002 0.67862 0.0
H2009 H 0.68386 0.24673 0.69621 0.0
H2010 H 0.80984 0.24985 0.68194 0.0
H2011 H 0.79912 0.26012 0.66786 0.0
H2012 H 0.78069 0.21596 0.67221 0.0
H2013 H 0.75921 0.31877 0.70322 0.0
H2014 H 0.7158 0.30571 0.69913 0.0
H2015 H 0.75035 0.32908 0.68884 0.0
C2016 C 0.54525 0.14159 0.15318 0.0
C2017 C 0.54025 0.12614 0.16433 0.0
C2018 C 0.54376 0.17174 0.15182 0.0
C2019 C 0.53747 0.18661 0.16188 0.0
C2020 C 0.5301 0.16963 0.17296 0.0
C2021 C 0.53121 0.1394 0.17399 0.0
C2022 C 0.55133 0.18894 0.13986 0.0
C2023 C 0.52371 0.18472 0.18396 0.0
C2024 C 0.57838 0.28177 0.16643 0.0
C2025 C 0.54989 0.28618 0.16618 0.0
C2026 C 0.57514 0.24992 0.16405 0.0
C2027 C 0.54255 0.22169 0.16138 0.0
C2028 C 0.51418 0.22663 0.16014 0.0
C2029 C 0.51812 0.25883 0.16265 0.0
C2030 C 0.60611 0.24609 0.16574 0.0
C2031 C 0.47926 0.19746 0.15693 0.0
H2032 H 0.55215 0.13126 0.14568 0.0
H2033 H 0.52702 0.12721 0.1826 0.0
H2034 H 0.53303 0.19782 0.13785 0.0
H2035 H 0.57733 0.21175 0.13999 0.0
H2036 H 0.55019 0.17166 0.13264 0.0
H2037 H 0.51606 0.16712 0.19167 0.0
H2038 H 0.54733 0.20879 0.18635 0.0
H2039 H 0.50339 0.1911 0.18229 0.0
H2040 H 0.60295 0.30267 0.16926 0.0
H2041 H 0.49613 0.26235 0.16222 0.0
H2042 H 0.60601 0.22673 0.15968 0.0
H2043 H 0.60596 0.23779 0.175 0.0
H2044 H 0.63021 0.27071 0.16439 0.0
H2045 H 0.48108 0.18192 0.14964 0.0
H2046 H 0.46165 0.20662 0.15417 0.0
H2047 H 0.468 0.18047 0.16472 0.0
C2048 C 0.9188 0.40944 0.18252 0.0
C2049 C 0.93628 0.4265 0.17224 0.0
C2050 C 0.88385 0.38545 0.18213 0.0
C2051 C 0.86593 0.37931 0.17126 0.0
C2052 C 0.88363 0.3963 0.16081 0.0
C2053 C 0.91886 0.41941 0.1614 0.0
C2054 C 0.86595 0.36735 0.19341 0.0
C2055 C 0.86514 0.39126 0.14917 0.0
C2056 C 0.78047 0.2977 0.1699 0.0
C2057 C 0.75836 0.30916 0.17362 0.0
C2058 C 0.81552 0.32052 0.16865 0.0
C2059 C 0.82852 0.35562 0.17099 0.0
C2060 C 0.80595 0.36755 0.17409 0.0
C2061 C 0.77109 0.34403 0.17553 0.0
C2062 C 0.83883 0.30677 0.16551 0.0
C2063 C 0.81879 0.40493 0.17634 0.0
H2064 H 0.93242 0.41533 0.1909 0.0
H2065 H 0.93239 0.43327 0.15351 0.0
H2066 H 0.84711 0.37507 0.19599 0.0
H2067 H 0.85167 0.3393 0.19197 0.0
H2068 H 0.88407 0.37322 0.2009 0.0
H2069 H 0.88292 0.40523 0.14177 0.0
H2070 H 0.85034 0.36372 0.14687 0.0
H2071 H 0.84663 0.40045 0.15001 0.0
H2072 H 0.77057 0.2706 0.16855 0.0
H2073 H 0.75383 0.35278 0.17835 0.0
H2074 H 0.8555 0.30994 0.17321 0.0
H2075 H 0.85574 0.32134 0.15801 0.0
H2076 H 0.82438 0.27928 0.16306 0.0
H2077 H 0.83307 0.41268 0.18484 0.0
H2078 H 0.79764 0.41066 0.17684 0.0
H2079 H 0.83663 0.42066 0.16921 0.0
C2080 C 0.78851 0.54863 0.17569 0.0
C2081 C 0.78743 0.51812 0.17256 0.0
C2082 C 0.7605 0.5532 0.17355 0.0
C2083 C 0.73053 0.52636 0.16833 0.0
C2084 C 0.73007 0.49627 0.16452 0.0
C2085 C 0.75869 0.4926 0.16662 0.0
C2086 C 0.76219 0.58583 0.1776 0.0
C2087 C 0.69849 0.4669 0.15906 0.0
C2088 C 0.64707 0.51676 0.17923 0.0
C2089 C 0.63665 0.52895 0.16961 0.0
C2090 C 0.67738 0.51564 0.17884 0.0
C2091 C 0.69827 0.52757 0.16861 0.0
C2092 C 0.68829 0.54058 0.15891 0.0
C2093 C 0.6574 0.54102 0.15951 0.0
C2094 C 0.68687 0.50136 0.18936 0.0
C2095 C 0.7101 0.55374 0.14792 0.0
H2096 H 0.81095 0.56856 0.18014 0.0
H2097 H 0.75781 0.46894 0.16424 0.0
H2098 H 0.75207 0.59572 0.17064 0.0
H2099 H 0.74605 0.58062 0.18561 0.0
H2100 H 0.78869 0.60597 0.17984 0.0
H2101 H 0.70369 0.44739 0.15517 0.0
H2102 H 0.6785 0.45443 0.16597 0.0
H2103 H 0.68796 0.47621 0.15204 0.0
H2104 H 0.63123 0.50766 0.18711 0.0
H2105 H 0.64933 0.55043 0.15206 0.0
H2106 H 0.71183 0.52104 0.19304 0.0
H2107 H 0.68965 0.47938 0.18652 0.0
H2108 H 0.6675 0.49267 0.19655 0.0
H2109 H 0.73618 0.57437 0.15033 0.0
H2110 H 0.6992 0.5638 0.14129 0.0
H2111 H 0.71272 0.53295 0.14375 0.0
C2112 C 0.73301 0.2631 0.02803 0.0
C2113 C 0.74446 0.25127 1.01844 0.0
C2114 C 0.7013 0.26303 0.02774 0.0
C2115 C 0.67918 0.25039 1.01767 0.0
C2116 C 0.69035 0.23784 1.00806 0.0
C2117 C 0.72239 0.23864 1.00852 0.0
C2118 C 0.69182 0.27736 0.0382 0.0
C2119 C 0.66846 0.22376 0.99711 0.0
C2120 C 0.58295 0.22779 1.01986 0.0
C2121 C 0.58322 0.2561 1.01448 0.0
C2122 C 0.61344 0.2255 0.02097 0.0
C2123 C 0.64581 0.25229 1.01685 0.0
C2124 C 0.64609 0.28115 1.01171 0.0
C2125 C 0.61539 0.28248 1.01052 0.0
C2126 C 0.61087 0.1939 0.02642 0.0
C2127 C 0.67913 0.31098 1.00733 0.0
H2128 H 0.74929 0.27321 0.03578 0.0
H2129 H 0.73021 0.22934 1.00098 0.0
H2130 H 0.69029 0.30005 0.03537 0.0
H2131 H 0.66623 0.25822 0.04157 0.0
H2132 H 0.7106 0.28499 0.04557 0.0
H2133 H 0.67907 0.21278 0.99072 0.0
H2134 H 0.64226 0.20366 0.99961 0.0
H2135 H 0.66626 0.24436 0.9926 0.0
H2136 H 0.55877 0.20697 0.02296 0.0
H2137 H 0.61672 0.30478 1.00642 0.0
H2138 H 0.62818 0.20097 0.0342 0.0
H2139 H 0.61928 0.18123 1.0199 0.0
H2140 H 0.58444 0.17536 0.0293 0.0
H2141 H 0.69841 0.32072 1.01456 0.0
H2142 H 0.6758 0.33231 1.00408 0.0
H2143 H 0.68958 0.30257 1.0 0.0
C2144 C 0.88842 0.39012 0.02162 0.0
C2145 C 0.86009 0.36186 1.01628 0.0
C2146 C 0.89086 0.42299 0.02249 0.0
C2147 C 0.8642 0.42845 1.01815 0.0
C2148 C 0.83535 0.39969 1.01303 0.0
C2149 C 0.83387 0.36754 1.01208 0.0
C2150 C 0.92241 0.45221 0.02795 0.0
C2151 C 0.80563 0.40277 1.00845 0.0
C2152 C 0.85306 0.50453 0.02922 0.0
C2153 C 0.86509 0.52799 1.01968 0.0
C2154 C 0.85317 0.47297 0.02893 0.0
C2155 C 0.86602 0.46366 1.01891 0.0
C2156 C 0.87875 0.48752 1.00934 0.0
C2157 C 0.87794 0.51877 1.00979 0.0
C2158 C 0.83863 0.44903 0.03935 0.0
C2159 C 0.89305 0.47985 0.99844 0.0
H2160 H 0.90911 0.38682 0.0249 0.0
H2161 H 0.81157 0.3464 1.008 0.0
H2162 H 0.93502 0.47331 0.02144 0.0
H2163 H 0.91527 0.4624 0.03571 0.0
H2164 H 0.94104 0.4445 0.03087 0.0
H2165 H 0.7844 0.37804 1.00515 0.0
H2166 H 0.79568 0.4123 1.0156 0.0
H2167 H 0.81426 0.42163 1.00112 0.0
H2168 H 0.84279 0.51054 0.03694 0.0
H2169 H 0.88737 0.53604 1.0023 0.0
H2170 H 0.85772 0.44262 0.04279 0.0
H2171 H 0.816 0.42478 0.03645 0.0
H2172 H 0.83085 0.46008 0.04669 0.0
H2173 H 0.91318 0.47389 1.00102 0.0
H2174 H 0.90406 0.50148 0.99207 0.0
H2175 H 0.87256 0.45697 0.99388 0.0
C2176 C 0.6002 0.39099 0.02671 0.0
C2177 C 0.58788 0.37124 1.01624 0.0
C2178 C 0.63125 0.42335 0.02699 0.0
C2179 C 0.65205 0.43689 1.01666 0.0
C2180 C 0.63993 0.41674 1.00613 0.0
C2181 C 0.60834 0.38497 1.00601 0.0
C2182 C 0.64167 0.44331 0.03844 0.0
C2183 C 0.66074 0.42856 0.99489 0.0
C2184 C 0.71889 0.53461 1.0133 0.0
C2185 C 0.75025 0.53738 1.01669 0.0
C2186 C 0.68727 0.50283 1.0135 0.0
C2187 C 0.68605 0.47179 1.01683 0.0
C2188 C 0.71778 0.47444 0.02015 0.0
C2189 C 0.74888 0.50673 0.02021 0.0
C2190 C 0.65486 0.50256 1.01014 0.0
C2191 C 0.7191 0.44284 0.02347 0.0
H2192 H 0.58522 0.38132 0.03474 0.0
H2193 H 0.59997 0.37039 0.99784 0.0
H2194 H 0.66648 0.44668 0.04151 0.0
H2195 H 0.64531 0.46919 0.03697 0.0
H2196 H 0.62245 0.43053 0.04557 0.0
H2197 H 0.64895 0.40983 0.98754 0.0
H2198 H 0.66359 0.45329 0.99201 0.0
H2199 H 0.68679 0.43285 0.99657 0.0
H2200 H 0.71895 0.55759 1.01056 0.0
H2201 H 0.77249 0.50778 0.02277 0.0
H2202 H 0.63572 0.49073 1.01734 0.0
H2203 H 0.64367 0.48683 1.00205 0.0
H2204 H 0.65926 0.52864 1.00842 0.0
H2205 H 0.70294 0.43069 0.03138 0.0
H2206 H 0.74551 0.44849 0.02544 0.0
H2207 H 0.70859 0.42395 1.01612 0.0
C2208 C 0.57958 0.95936 0.86558 0.0
C2209 C 0.54934 0.95138 0.85957 0.0
C2210 C 0.59418 0.93851 0.8644 0.0
C2211 C 0.57779 0.90896 0.85718 0.0
C2212 C 0.54696 0.90061 0.85125 0.0
C2213 C 0.53324 0.9221 0.85246 0.0
C2214 C 0.62724 0.94823 0.87076 0.0
C2215 C 0.52854 0.86909 0.84356 0.0
C2216 C 0.62323 0.8664 0.84348 0.0
C2217 C 0.6115 0.83735 0.85064 0.0
C2218 C 0.61411 0.89116 0.84593 0.0
C2219 C 0.59255 0.88647 0.85571 0.0
C2220 C 0.58211 0.85813 0.86332 0.0
C2221 C 0.59192 0.83401 0.86073 0.0
C2222 C 0.62596 0.9213 0.83769 0.0
C2223 C 0.55901 0.85224 0.8738 0.0
H2224 H 0.59207 0.98213 0.87105 0.0
H2225 H 0.50994 0.91605 0.84777 0.0
H2226 H 0.6237 0.92728 0.87676 0.0
H2227 H 0.64717 0.95202 0.86422 0.0
H2228 H 0.63666 0.97201 0.87606 0.0
H2229 H 0.50445 0.86597 0.83977 0.0
H2230 H 0.54531 0.87046 0.83615 0.0
H2231 H 0.52235 0.84598 0.84882 0.0
H2232 H 0.63827 0.86905 0.83564 0.0
H2233 H 0.58349 0.81199 0.86646 0.0
H2234 H 0.63639 0.94541 0.84283 0.0
H2235 H 0.6039 0.91861 0.83248 0.0
H2236 H 0.64582 0.9234 0.8314 0.0
H2237 H 0.56916 0.87567 0.87931 0.0
H2238 H 0.55597 0.83084 0.87949 0.0
H2239 H 0.53338 0.84621 0.87059 0.0
C2240 C 0.16278 0.6173 0.88585 0.0
C2241 C 0.14982 0.61299 0.87429 0.0
C2242 C 0.19236 0.64767 0.88917 0.0
C2243 C 0.20935 0.67376 0.88063 0.0
C2244 C 0.19472 0.67028 0.86921 0.0
C2245 C 0.16478 0.6401 0.86627 0.0
C2246 C 0.20623 0.65049 0.90156 0.0
C2247 C 0.21225 0.69706 0.85969 0.0
C2248 C 0.2813 0.76433 0.88292 0.0
C2249 C 0.3081 0.76078 0.87824 0.0
C2250 C 0.24948 0.73547 0.88534 0.0
C2251 C 0.24439 0.70266 0.88274 0.0
C2252 C 0.27258 0.69891 0.87951 0.0
C2253 C 0.30423 0.72811 0.87736 0.0
C2254 C 0.22051 0.74017 0.88962 0.0
C2255 C 0.26858 0.66419 0.87728 0.0
H2256 H 0.15101 0.59635 0.89212 0.0
H2257 H 0.15436 0.6368 0.85738 0.0
H2258 H 0.22114 0.63712 0.90192 0.0
H2259 H 0.22303 0.67743 0.90433 0.0
H2260 H 0.185 0.63777 0.90804 0.0
H2261 H 0.19693 0.69072 0.8514 0.0
H2262 H 0.21716 0.7223 0.8629 0.0
H2263 H 0.23733 0.69949 0.85753 0.0
H2264 H 0.28423 0.78952 0.88382 0.0
H2265 H 0.32536 0.72533 0.87421 0.0
H2266 H 0.20448 0.72004 0.89613 0.0
H2267 H 0.20399 0.73799 0.882 0.0
H2268 H 0.23006 0.76564 0.89379 0.0
H2269 H 0.25903 0.64839 0.88541 0.0
H2270 H 0.29299 0.66578 0.87464 0.0
H2271 H 0.24942 0.65082 0.87019 0.0
C2272 C 0.51125 0.66442 0.85369 0.0
C2273 C 0.51999 0.65743 0.86485 0.0
C2274 C 0.48258 0.66834 0.8523 0.0
C2275 C 0.46211 0.66482 0.8623 0.0
C2276 C 0.47255 0.66066 0.87372 0.0
C2277 C 0.50148 0.65707 0.87487 0.0
C2278 C 0.47261 0.67323 0.83998 0.0
C2279 C 0.45156 0.65699 0.88462 0.0
C2280 C 0.38764 0.68106 0.85893 0.0
C2281 C 0.36046 0.64785 0.85682 0.0
C2282 C 0.42101 0.68719 0.86079 0.0
C2283 C 0.42718 0.65945 0.86055 0.0
C2284 C 0.39979 0.62593 0.85849 0.0
C2285 C 0.36689 0.6206 0.85662 0.0
C2286 C 0.44965 0.72325 0.86296 0.0
C2287 C 0.40525 0.59559 0.85813 0.0
H2288 H 0.52557 0.66481 0.84593 0.0
H2289 H 0.50843 0.65204 0.88353 0.0
H2290 H 0.49399 0.68143 0.83358 0.0
H2291 H 0.45078 0.64876 0.83681 0.0
H2292 H 0.46427 0.69248 0.84003 0.0
H2293 H 0.46586 0.65955 0.89294 0.0
H2294 H 0.44338 0.67636 0.88464 0.0
H2295 H 0.42813 0.63143 0.88455 0.0
H2296 H 0.38277 0.7022 0.85918 0.0
H2297 H 0.3462 0.59499 0.85474 0.0
H2298 H 0.46965 0.73061 0.85607 0.0
H2299 H 0.46187 0.72484 0.87166 0.0
H2300 H 0.44061 0.742 0.86287 0.0
H2301 H 0.42341 0.59897 0.85093 0.0
H2302 H 0.3811 0.57113 0.85662 0.0
H2303 H 0.41667 0.59368 0.86661 0.0
C2304 C 0.54715 0.87012 1.019 0.0
C2305 C 0.54674 0.8413 0.02398 0.0
C2306 C 0.51684 0.87274 1.01821 0.0
C2307 C 0.48453 0.8458 0.02229 0.0
C2308 C 0.48407 0.81642 0.02702 0.0
C2309 C 0.51464 0.81473 0.02789 0.0
C2310 C 0.51954 0.90482 1.01316 0.0
C2311 C 0.45101 0.78644 0.03132 0.0
C2312 C 0.40923 0.86053 0.03139 0.0
C2313 C 0.38699 0.84877 0.0215 0.0
C2314 C 0.44088 0.86054 0.03162 0.0
C2315 C 0.45144 0.84816 0.0218 0.0
C2316 C 0.42917 0.83644 1.01176 0.0
C2317 C 0.39782 0.83702 1.01171 0.0
C2318 C 0.46299 0.87359 0.04256 0.0
C2319 C 0.43812 0.82247 1.00106 0.0
H2320 H 0.57133 0.89107 1.01597 0.0
H2321 H 0.5133 0.79209 0.03169 0.0
H2322 H 0.50199 0.8984 1.00548 0.0
H2323 H 0.51152 0.91721 1.01993 0.0
H2324 H 0.54592 0.92339 1.01024 0.0
H2325 H 0.45418 0.76471 0.0342 0.0
H2326 H 0.44096 0.79445 0.03889 0.0
H2327 H 0.4315 0.77744 0.02417 0.0
H2328 H 0.40182 0.86969 0.03907 0.0
H2329 H 0.38138 0.8276 1.00398 0.0
H2330 H 0.48921 0.89372 0.0401 0.0
H2331 H 0.46505 0.85251 0.04676 0.0
H2332 H 0.45267 0.88423 0.0492 0.0
H2333 H 0.46374 0.84156 0.9977 0.0
H2334 H 0.41923 0.81552 0.99377 0.0
H2335 H 0.43933 0.79941 1.00362 0.0
C2336 C 0.29733 0.73233 0.02779 0.0
C2337 C 0.27152 0.73847 0.02345 0.0
C2338 C 0.2958 0.7002 0.02667 0.0
C2339 C 0.26735 0.6719 0.02118 0.0
C2340 C 0.24114 0.67782 1.01667 0.0
C2341 C 0.24359 0.71067 1.01775 0.0
C2342 C 0.325 0.69661 0.03148 0.0
C2343 C 0.21006 0.64911 1.01079 0.0
C2344 C 0.27941 0.5963 1.0101 0.0
C2345 C 0.26629 0.57226 1.01945 0.0
C2346 C 0.27928 0.62788 1.01042 0.0
C2347 C 0.2654 0.63663 0.02029 0.0
C2348 C 0.25161 0.61218 0.02966 0.0
C2349 C 0.25236 0.58092 0.02917 0.0
C2350 C 0.29486 0.65241 1.00021 0.0
C2351 C 0.2363 0.61927 0.04041 0.0
H2352 H 0.31935 0.7531 0.03213 0.0
H2353 H 0.22323 0.71431 1.01435 0.0
H2354 H 0.31563 0.67721 0.03865 0.0
H2355 H 0.33556 0.68754 0.02439 0.0
H2356 H 0.34599 0.72103 0.03509 0.0
H2357 H 0.19189 0.65721 1.00768 0.0
H2358 H 0.21787 0.6393 1.0031 0.0
H2359 H 0.19666 0.62763 1.01712 0.0
H2360 H 0.29051 0.59074 1.00251 0.0
H2361 H 0.24209 0.56321 0.03652 0.0
H2362 H 0.3173 0.67643 1.00339 0.0
H2363 H 0.27619 0.65917 0.9966 0.0
H2364 H 0.30323 0.64172 0.99293 0.0
H2365 H 0.25638 0.64182 0.04524 0.0
H2366 H 0.22458 0.59725 0.04661 0.0
H2367 H 0.2165 0.6255 0.03763 0.0
C2368 C 0.38182 0.6035 0.02625 0.0
C2369 C 0.37608 0.57188 0.02171 0.0
C2370 C 0.41419 0.63413 0.02569 0.0
C2371 C 0.44304 0.63426 0.02059 0.0
C2372 C 0.43748 0.60248 1.01587 0.0
C2373 C 0.40446 0.57209 1.01641 0.0
C2374 C 0.41748 0.66659 0.03071 0.0
C2375 C 0.46673 0.60043 1.01036 0.0
C2376 C 0.52078 0.72229 1.01086 0.0
C2377 C 0.54384 0.73194 0.0205 0.0
C2378 C 0.48877 0.69094 1.01068 0.0
C2379 C 0.47856 0.66745 0.02033 0.0
C2380 C 0.50196 0.67687 0.03002 0.0
C2381 C 0.5337 0.70852 0.03001 0.0
C2382 C 0.46542 0.68324 1.00015 0.0
C2383 C 0.49325 0.6535 0.04057 0.0
H2384 H 0.36059 0.6044 0.03033 0.0
H2385 H 0.40111 0.54832 1.01288 0.0
H2386 H 0.43592 0.67578 0.0382 0.0
H2387 H 0.42767 0.68692 0.02386 0.0
H2388 H 0.39269 0.66301 0.03394 0.0
H2389 H 0.45878 0.57443 1.00696 0.0
H2390 H 0.47768 0.61887 1.00292 0.0
H2391 H 0.48734 0.60766 1.01701 0.0
H2392 H 0.5275 0.73965 1.00342 0.0
H2393 H 0.55063 0.715 0.03758 0.0
H2394 H 0.44121 0.6816 1.00305 0.0
H2395 H 0.45879 0.65809 0.99629 0.0
H2396 H 0.47711 0.70302 0.99313 0.0
H2397 H 0.47017 0.65081 0.04504 0.0
H2398 H 0.51442 0.66311 0.04714 0.0
H2399 H 0.48714 0.62765 0.03761 0.0
C2400 C 0.20323 0.45431 0.50617 0.0
C2401 C 0.23676 0.46047 0.50671 0.0
C2402 C 0.19594 0.48013 0.509 0.0
C2403 C 0.22305 0.51295 0.51209 0.0
C2404 C 0.2571 0.51947 0.51228 0.0
C2405 C 0.26346 0.49289 0.50971 0.0
C2406 C 0.15925 0.47212 0.50895 0.0
C2407 C 0.28675 0.55443 0.51523 0.0
C2408 C 0.20853 0.58815 0.50977 0.0
C2409 C 0.20422 0.59385 0.52172 0.0
C2410 C 0.21463 0.56182 0.50649 0.0
C2411 C 0.21579 0.54035 0.51536 0.0
C2412 C 0.21067 0.5454 0.52741 0.0
C2413 C 0.20523 0.57231 0.53046 0.0
C2414 C 0.22035 0.55732 0.49357 0.0
C2415 C 0.21141 0.52268 0.53708 0.0
H2416 H 0.1826 0.42901 0.50386 0.0
H2417 H 0.28934 0.49761 0.50983 0.0
H2418 H 0.15208 0.47638 0.51794 0.0
H2419 H 0.15619 0.48953 0.5028 0.0
H2420 H 0.14122 0.44534 0.50625 0.0
H2421 H 0.31177 0.55551 0.51448 0.0
H2422 H 0.28677 0.57379 0.50918 0.0
H2423 H 0.28405 0.56164 0.5244 0.0
H2424 H 0.20718 0.60432 0.50296 0.0
H2425 H 0.20245 0.57687 0.53972 0.0
H2426 H 0.20116 0.53132 0.49053 0.0
H2427 H 0.24591 0.55992 0.49242 0.0
H2428 H 0.21869 0.5763 0.48777 0.0
H2429 H 0.19285 0.49553 0.53505 0.0
H2430 H 0.20525 0.529 0.54594 0.0
H2431 H 0.23711 0.52527 0.53753 0.0
C2432 C 0.62895 0.75789 0.48894 0.0
C2433 C 0.64288 0.77214 0.50002 0.0
C2434 C 0.60002 0.72499 0.48813 0.0
C2435 C 0.58494 0.70628 0.49865 0.0
C2436 C 0.59997 0.72018 0.50979 0.0
C2437 C 0.62881 0.75283 0.51032 0.0
C2438 C 0.58477 0.71087 0.47611 0.0
C2439 C 0.58469 0.70129 0.52125 0.0
C2440 C 0.49065 0.64168 0.50136 0.0
C2441 C 0.49108 0.61097 0.50217 0.0
C2442 C 0.52089 0.67281 0.49951 0.0
C2443 C 0.55223 0.67316 0.49829 0.0
C2444 C 0.55248 0.64198 0.49837 0.0
C2445 C 0.5219 0.61124 0.50042 0.0
C2446 C 0.51959 0.70553 0.49972 0.0
C2447 C 0.5853 0.64127 0.49695 0.0
H2448 H 0.63978 0.77291 0.48097 0.0
H2449 H 0.63973 0.76379 0.51889 0.0
H2450 H 0.57987 0.68439 0.47511 0.0
H2451 H 0.55983 0.70985 0.47526 0.0
H2452 H 0.60162 0.72673 0.46876 0.0
H2453 H 0.60048 0.71504 0.52911 0.0
H2454 H 0.55882 0.69789 0.52247 0.0
H2455 H 0.58183 0.67548 0.52092 0.0
H2456 H 0.46692 0.6416 0.50281 0.0
H2457 H 0.52219 0.58746 0.5009 0.0
H2458 H 0.534 0.7221 0.49213 0.0
H2459 H 0.53188 0.71985 0.50798 0.0
H2460 H 0.49299 0.70074 0.49942 0.0
H2461 H 0.60026 0.65743 0.48936 0.0
H2462 H 0.58058 0.61494 0.49555 0.0
H2463 H 0.6012 0.65192 0.50504 0.0
C2464 C 0.41752 0.76677 0.52999 0.0
C2465 C 0.44252 0.78049 0.52108 0.0
C2466 C 0.38736 0.76825 0.52908 0.0
C2467 C 0.38201 0.78352 0.51897 0.0
C2468 C 0.40628 0.7958 0.50968 0.0
C2469 C 0.43634 0.79435 0.51088 0.0
C2470 C 0.36202 0.75496 0.53917 0.0
C2471 C 0.40129 0.81199 0.49871 0.0
C2472 C 0.29502 0.77265 0.51207 0.0
C2473 C 0.29935 0.80394 0.51601 0.0
C2474 C 0.32142 0.76512 0.51324 0.0
C2475 C 0.35268 0.78952 0.51852 0.0
C2476 C 0.35677 0.82082 0.52278 0.0
C2477 C 0.33005 0.82772 0.52141 0.0
C2478 C 0.31622 0.73156 0.50855 0.0
C2479 C 0.38966 0.84737 0.52853 0.0
H2480 H 0.42184 0.75547 0.5378 0.0
H2481 H 0.45566 0.80545 0.50403 0.0
H2482 H 0.36153 0.77664 0.54359 0.0
H2483 H 0.33588 0.73753 0.53576 0.0
H2484 H 0.36847 0.74116 0.5459 0.0
H2485 H 0.42091 0.81725 0.49183 0.0
H2486 H 0.37564 0.79515 0.49482 0.0
H2487 H 0.40271 0.83645 0.50113 0.0
H2488 H 0.2714 0.75456 0.50772 0.0
H2489 H 0.33325 0.85186 0.5245 0.0
H2490 H 0.32005 0.71719 0.51578 0.0
H2491 H 0.33543 0.73631 0.50159 0.0
H2492 H 0.29029 0.71535 0.50474 0.0
H2493 H 0.39646 0.83586 0.53598 0.0
H2494 H 0.38795 0.86948 0.53198 0.0
H2495 H 0.4108 0.8569 0.52199 0.0
C2496 C 0.25911 0.56006 0.35511 0.0
C2497 C 0.25926 0.5881 0.34955 0.0
C2498 C 0.28953 0.55763 0.35614 0.0
C2499 C 0.32173 0.58399 0.35171 0.0
C2500 C 0.32191 0.61257 0.34637 0.0
C2501 C 0.29126 0.61406 0.34529 0.0
C2502 C 0.2871 0.52638 0.36183 0.0
C2503 C 0.35477 0.64193 0.34166 0.0
C2504 C 0.40934 0.59528 0.36259 0.0
C2505 C 0.42016 0.58255 0.35309 0.0
C2506 C 0.37769 0.59532 0.36238 0.0
C2507 C 0.35502 0.58196 0.35247 0.0
C2508 C 0.36557 0.56852 0.34295 0.0
C2509 C 0.39754 0.56916 0.34334 0.0
C2510 C 0.36886 0.61054 0.37274 0.0
C2511 C 0.34308 0.55367 0.33217 0.0
H2512 H 0.23507 0.53958 0.35845 0.0
H2513 H 0.2925 0.63614 0.34105 0.0
H2514 H 0.29511 0.51316 0.35539 0.0
H2515 H 0.30478 0.53394 0.36951 0.0
H2516 H 0.26079 0.50813 0.36491 0.0
H2517 H 0.35137 0.66304 0.33822 0.0
H2518 H 0.37441 0.6522 0.34877 0.0
H2519 H 0.36478 0.63283 0.3344 0.0
H2520 H 0.42604 0.60596 0.37021 0.0
H2521 H 0.40489 0.55917 0.33587 0.0
H2522 H 0.34339 0.59178 0.37631 0.0
H2523 H 0.36736 0.63311 0.36974 0.0
H2524 H 0.38798 0.61859 0.38001 0.0
H2525 H 0.317 0.53383 0.3349 0.0
H2526 H 0.35328 0.54213 0.32585 0.0
H2527 H 0.34072 0.57396 0.3275 0.0
C2528 C 0.50926 0.69932 0.34704 0.0
C2529 C 0.53618 0.69424 0.35088 0.0
C2530 C 0.51064 0.73144 0.34781 0.0
C2531 C 0.54011 0.7608 0.35234 0.0
C2532 C 0.56747 0.75596 0.35632 0.0
C2533 C 0.56512 0.72309 0.35567 0.0
C2534 C 0.48018 0.73385 0.34366 0.0
C2535 C 0.5997 0.78585 0.36113 0.0
C2536 C 0.55204 0.84977 0.34304 0.0
C2537 C 0.54067 0.86021 0.35302 0.0
C2538 C 0.553 0.81859 0.34284 0.0
C2539 C 0.54188 0.79602 0.35279 0.0
C2540 C 0.53048 0.80654 0.36289 0.0
C2541 C 0.53024 0.83805 0.36292 0.0
C2542 C 0.56573 0.80961 0.33183 0.0
C2543 C 0.51762 0.78396 0.3737 0.0
H2544 H 0.4865 0.67771 0.34339 0.0
H2545 H 0.58636 0.72027 0.35864 0.0
H2546 H 0.47135 0.74437 0.35084 0.0
H2547 H 0.48756 0.75164 0.33603 0.0
H2548 H 0.45848 0.70868 0.34091 0.0
H2549 H 0.61874 0.77853 0.3639 0.0
H2550 H 0.61137 0.80608 0.35427 0.0
H2551 H 0.59363 0.79705 0.36886 0.0
H2552 H 0.56024 0.86605 0.33527 0.0
H2553 H 0.52113 0.84502 0.37073 0.0
H2554 H 0.54465 0.78616 0.32774 0.0
H2555 H 0.58628 0.80404 0.33417 0.0
H2556 H 0.57572 0.83042 0.32514 0.0
H2557 H 0.49461 0.75935 0.37134 0.0
H2558 H 0.51095 0.79593 0.38106 0.0
H2559 H 0.53725 0.77801 0.37692 0.0
C2560 C 0.28411 0.71661 0.3413 0.0
C2561 C 0.26475 0.70275 0.35175 0.0
C2562 C 0.3157 0.74838 0.34117 0.0
C2563 C 0.32897 0.76844 0.35167 0.0
C2564 C 0.30933 0.75474 0.36224 0.0
C2565 C 0.27825 0.72237 0.36219 0.0
C2566 C 0.33523 0.76032 0.32968 0.0
C2567 C 0.32101 0.7746 0.37369 0.0
C2568 C 0.42606 0.83869 0.35405 0.0
C2569 C 0.42685 0.86924 0.35078 0.0
C2570 C 0.39507 0.8063 0.35429 0.0
C2571 C 0.36288 0.80344 0.35155 0.0
C2572 C 0.36353 0.83439 0.34849 0.0
C2573 C 0.39502 0.86626 0.34798 0.0
C2574 C 0.39697 0.77481 0.35728 0.0
C2575 C 0.33067 0.83392 0.34576 0.0
H2576 H 0.27483 0.70215 0.33313 0.0
H2577 H 0.26417 0.71262 0.37039 0.0
H2578 H 0.33756 0.78496 0.32697 0.0
H2579 H 0.36153 0.76483 0.33092 0.0
H2580 H 0.32274 0.74157 0.32237 0.0
H2581 H 0.30269 0.76165 0.38105 0.0
H2582 H 0.34624 0.77814 0.3763 0.0
H2583 H 0.32429 0.80041 0.37243 0.0
H2584 H 0.45003 0.8399 0.35616 0.0
H2585 H 0.39462 0.88915 0.34544 0.0
H2586 H 0.38573 0.75594 0.34995 0.0
H2587 H 0.38174 0.76257 0.36536 0.0
H2588 H 0.42363 0.78062 0.35881 0.0
H2589 H 0.31864 0.81825 0.33772 0.0
H2590 H 0.33472 0.85996 0.34424 0.0
H2591 H 0.31238 0.82193 0.35319 0.0
C2592 C 0.36216 0.50288 0.15813 0.0
C2593 C 0.32849 0.47735 0.16052 0.0
C2594 C 0.38683 0.49398 0.15513 0.0
C2595 C 0.37731 0.45899 0.15484 0.0
C2596 C 0.34232 0.43389 0.15459 0.0
C2597 C 0.31814 0.44354 0.15726 0.0
C2598 C 0.42379 0.5217 0.15456 0.0
C2599 C 0.33086 0.39631 0.15404 0.0
C2600 C 0.4457 0.43337 0.15648 0.0
C2601 C 0.452 0.43624 0.16872 0.0
C2602 C 0.42111 0.44029 0.15164 0.0
C2603 C 0.40196 0.44909 0.15935 0.0
C2604 C 0.40673 0.44933 0.17182 0.0
C2605 C 0.43212 0.44351 0.17629 0.0
C2606 C 0.41772 0.4406 0.13833 0.0
C2607 C 0.38629 0.45743 0.18052 0.0
H2608 H 0.37019 0.52924 0.16025 0.0
H2609 H 0.29216 0.42357 0.15888 0.0
H2610 H 0.43483 0.52667 0.16364 0.0
H2611 H 0.4388 0.51403 0.14885 0.0
H2612 H 0.42629 0.54587 0.15115 0.0
H2613 H 0.30339 0.38073 0.15165 0.0
H2614 H 0.34623 0.39135 0.14753 0.0
H2615 H 0.33449 0.3878 0.16289 0.0
H2616 H 0.46149 0.42803 0.15064 0.0
H2617 H 0.43733 0.44582 0.18575 0.0
H2618 H 0.43549 0.46675 0.13503 0.0
H2619 H 0.3915 0.43367 0.13554 0.0
H2620 H 0.4248 0.42292 0.13402 0.0
H2621 H 0.39368 0.4847 0.1797 0.0
H2622 H 0.39068 0.45277 0.18986 0.0
H2623 H 0.35855 0.44174 0.17863 0.0
C2624 C 0.64766 0.04608 0.18695 0.0
C2625 C 0.64354 0.06787 0.19471 0.0
C2626 C 0.6475 1.0169 0.19122 0.0
C2627 C 0.64351 1.00977 0.20354 0.0
C2628 C 0.63973 1.03196 0.21142 0.0
C2629 C 0.63996 0.06089 0.20691 0.0
C2630 C 0.65116 0.99348 0.18256 0.0
C2631 C 0.63527 1.02503 0.22458 0.0
C2632 C 0.61495 0.91825 0.21201 0.0
C2633 C 0.64603 0.92103 0.21519 0.0
C2634 C 0.61343 0.94727 0.20875 0.0
C2635 C 0.64394 0.9794 0.20822 0.0
C2636 C 0.67529 0.98233 0.21177 0.0
C2637 C 0.67588 0.95303 0.21534 0.0
C2638 C 0.57933 0.94282 0.20531 0.0
C2639 C 0.70844 1.01596 0.21118 0.0
H2640 H 0.6507 0.05171 0.17754 0.0
H2641 H 0.6365 0.07761 0.21294 0.0
H2642 H 0.67299 0.99015 0.18516 0.0
H2643 H 0.62778 0.9679 0.18277 0.0
H2644 H 0.65519 1.00328 0.17332 0.0
H2645 H 0.62817 1.04218 0.22925 0.0
H2646 H 0.61535 0.99814 0.22628 0.0
H2647 H 0.65948 1.02881 0.22846 0.0
H2648 H 0.59205 0.89327 0.21178 0.0
H2649 H 0.70004 0.95479 0.2176 0.0
H2650 H 0.57813 0.96627 0.20706 0.0
H2651 H 0.55821 0.92124 0.21019 0.0
H2652 H 0.57524 0.93679 0.1957 0.0
H2653 H 0.71398 1.02469 0.20183 0.0
H2654 H 0.73036 1.01408 0.21474 0.0
H2655 H 0.70632 1.03582 0.21627 0.0
C2656 C 0.18701 0.74908 0.17784 0.0
C2657 C 0.21075 0.74215 0.18333 0.0
C2658 C 0.15399 0.72276 0.17522 0.0
C2659 C 0.14493 0.68878 0.17793 0.0
C2660 C 0.17007 0.68131 0.18204 0.0
C2661 C 0.20276 0.70825 0.18485 0.0
C2662 C 0.12792 0.73184 0.17088 0.0
C2663 C 0.16158 0.64512 0.18448 0.0
C2664 C 1.05611 0.62825 0.18947 0.0
C2665 C 1.0406 0.60832 0.17942 0.0
C2666 C 0.08989 0.65535 0.18896 0.0
C2667 C 0.10845 0.66202 0.1782 0.0
C2668 C 0.09229 0.64286 0.16791 0.0
C2669 C 1.05824 0.61659 0.1686 0.0
C2670 C 0.10608 0.67606 0.20004 0.0
C2671 C 0.11143 0.64864 0.15638 0.0
H2672 H 0.19292 0.7753 0.17675 0.0
H2673 H 0.2212 0.70293 0.18903 0.0
H2674 H 0.11157 0.71401 0.16383 0.0
H2675 H 0.111 0.72968 0.17836 0.0
H2676 H 0.14017 0.75834 0.16738 0.0
H2677 H 0.18491 0.64316 0.18573 0.0
H2678 H 0.14596 0.6358 0.19267 0.0
H2679 H 0.14632 0.62806 0.17709 0.0
H2680 H 1.04234 0.6219 0.19781 0.0
H2681 H 1.04599 0.60123 0.16079 0.0
H2682 H 0.11771 0.70373 0.19811 0.0
H2683 H 0.12683 0.67161 0.20313 0.0
H2684 H 0.08736 0.66936 0.20737 0.0
H2685 H 0.12597 0.67619 0.15413 0.0
H2686 H 0.09408 0.6345 0.14888 0.0
H2687 H 0.13021 0.63982 0.15735 0.0
C2688 C 0.39568 0.30799 0.34703 0.0
C2689 C 0.38013 0.2884 0.35742 0.0
C2690 C 0.41495 0.34509 0.34678 0.0
C2691 C 0.41925 0.36557 0.35709 0.0
C2692 C 0.40328 0.34596 0.36759 0.0
C2693 C 0.38485 0.30879 0.36766 0.0
C2694 C 0.43121 0.36255 0.33527 0.0
C2695 C 0.40528 0.36446 0.37895 0.0
C2696 C 0.49471 0.46329 0.35986 0.0
C2697 C 0.4803 0.48373 0.35649 0.0
C2698 C 0.47593 0.4262 0.35995 0.0
C2699 C 0.44034 0.40661 0.3569 0.0
C2700 C 0.42549 0.4271 0.35361 0.0
C2701 C 0.44514 0.46426 0.35331 0.0
C2702 C 0.49472 0.40776 0.36327 0.0
C2703 C 0.38809 0.40959 0.3505 0.0
H2704 H 0.39314 0.29413 0.33889 0.0
H2705 H 0.37351 0.29557 0.37589 0.0
H2706 H 0.41995 0.37811 0.33225 0.0
H2707 H 0.45897 0.38025 0.33662 0.0
H2708 H 0.42774 0.34408 0.32815 0.0
H2709 H 0.39019 0.34667 0.3862 0.0
H2710 H 0.43228 0.37978 0.38186 0.0
H2711 H 0.39577 0.3825 0.37743 0.0
H2712 H 0.52142 0.4765 0.3624 0.0
H2713 H 0.43246 0.47819 0.35074 0.0
H2714 H 0.49153 0.38932 0.35618 0.0
H2715 H 0.48371 0.39289 0.37152 0.0
H2716 H 0.52243 0.42555 0.36471 0.0
H2717 H 0.38317 0.39366 0.34244 0.0
H2718 H 0.37917 0.42805 0.34883 0.0
H2719 H 0.37273 0.39223 0.3578 0.0
C2720 C 0.6624 1.00114 0.35783 0.0
C2721 C 0.641 1.01397 0.35388 0.0
C2722 C 0.69942 1.02033 0.35766 0.0
C2723 C 0.71831 0.05499 0.35364 0.0
C2724 C 0.69701 0.06838 0.34963 0.0
C2725 C 0.65969 0.04825 0.34969 0.0
C2726 C 0.71854 1.00297 0.36188 0.0
C2727 C 0.71385 0.10474 0.34535 0.0
C2728 C 0.81653 0.11273 0.36398 0.0
C2729 C 0.83679 0.11408 0.35409 0.0
C2730 C 0.77933 0.09493 0.36387 0.0
C2731 C 0.75945 0.07638 0.35368 0.0
C2732 C 0.77977 0.07753 0.3437 0.0
C2733 C 0.81694 0.096 0.34398 0.0
C2734 C 0.7611 0.09611 0.37488 0.0
C2735 C 0.76203 0.05853 0.33254 0.0
H2736 H 0.64994 0.97519 0.36114 0.0
H2737 H 0.64516 0.05988 0.34664 0.0
H2738 H 0.73638 1.00424 0.35487 0.0
H2739 H 0.73415 1.01649 0.36978 0.0
H2740 H 0.70117 0.97578 0.36423 0.0
H2741 H 0.69496 0.11247 0.34281 0.0
H2742 H 0.73073 0.12217 0.35241 0.0
H2743 H 0.73022 0.10799 0.33756 0.0
H2744 H 0.82988 0.12595 0.37199 0.0
H2745 H 0.83062 0.09578 0.33612 0.0
H2746 H 0.74578 0.07003 0.3786 0.0
H2747 H 0.74307 0.10518 0.37262 0.0
H2748 H 0.77908 0.11311 0.38181 0.0
H2749 H 0.74523 1.03101 0.33456 0.0
H2750 H 0.78034 0.06114 0.3255 0.0
H2751 H 0.74547 0.06818 0.32908 0.0
C2752 C 1.02744 0.74033 0.36697 0.0
C2753 C 1.00886 0.74279 0.35717 0.0
C2754 C 1.04621 0.722 0.36659 0.0
C2755 C 1.0471 0.70395 0.35621 0.0
C2756 C 1.0281 0.70605 0.34633 0.0
C2757 C 1.01013 0.72515 0.34687 0.0
C2758 C 0.06569 0.72231 0.37748 0.0
C2759 C 1.02643 0.68762 0.335 0.0
C2760 C 0.1191 0.67747 0.35116 0.0
C2761 C 0.10416 0.64298 0.35504 0.0
C2762 C 0.10157 0.69708 0.35156 0.0
C2763 C 0.06701 0.68288 0.35575 0.0
C2764 C 1.05178 0.64796 0.35952 0.0
C2765 C 0.07007 0.62922 0.35925 0.0
C2766 C 0.12061 0.73376 0.34758 0.0
C2767 C 1.01541 0.62987 0.36388 0.0
H2768 H 1.0278 0.75336 0.37509 0.0
H2769 H 0.99657 0.72595 0.33906 0.0
H2770 H 1.05514 0.69592 0.38088 0.0
H2771 H 0.09286 0.73189 0.37517 0.0
H2772 H 0.06454 0.73851 0.38467 0.0
H2773 H 1.00991 0.68997 0.32821 0.0
H2774 H 1.05248 0.69803 0.33128 0.0
H2775 H 1.01645 0.66012 0.33685 0.0
H2776 H 0.14512 0.68966 0.34792 0.0
H2777 H 1.05716 0.60304 0.36236 0.0
H2778 H 0.12075 0.75055 0.35479 0.0
H2779 H 0.10738 0.73717 0.33986 0.0
H2780 H 0.14741 0.74219 0.34503 0.0
H2781 H 1.01342 0.64266 0.37199 0.0
H2782 H 1.00596 0.60257 0.36594 0.0
H2783 H 0.99847 0.63142 0.35707 0.0
C2784 C 0.70475 0.63619 0.85618 0.0
C2785 C 0.6699 0.62001 0.85871 0.0
C2786 C 0.72193 0.61763 0.85608 0.0
C2787 C 0.70399 0.58238 0.85912 0.0
C2788 C 0.66915 0.56649 0.86235 0.0
C2789 C 0.65238 0.58538 0.86179 0.0
C2790 C 0.75898 0.6356 0.85228 0.0
C2791 C 0.64891 0.52962 0.86618 0.0
C2792 C 0.7481 0.54145 0.84432 0.0
C2793 C 0.7773 0.55488 0.85158 0.0
C2794 C 0.72079 0.54638 0.84729 0.0
C2795 C 0.72193 0.56263 0.85815 0.0
C2796 C 0.74675 0.56757 0.86672 0.0
C2797 C 0.77468 0.56428 0.86327 0.0
C2798 C 0.69339 0.53858 0.83817 0.0
C2799 C 0.74652 0.5809 0.87898 0.0
H2800 H 0.71824 0.66297 0.85375 0.0
H2801 H 0.62542 0.57289 0.86372 0.0
H2802 H 0.77538 0.63753 0.8599 0.0
H2803 H 0.76287 0.62087 0.84517 0.0
H2804 H 0.76783 0.66183 0.84894 0.0
H2805 H 0.63297 0.52722 0.87402 0.0
H2806 H 0.63105 0.51427 0.85896 0.0
H2807 H 0.66523 0.51856 0.86843 0.0
H2808 H 0.7484 0.53113 0.83567 0.0
H2809 H 0.79586 0.57302 0.86937 0.0
H2810 H 0.69519 0.56273 0.83508 0.0
H2811 H 0.66779 0.52271 0.84217 0.0
H2812 H 0.69554 0.52483 0.83034 0.0
H2813 H 0.76292 0.60913 0.87909 0.0
H2814 H 0.75714 0.57043 0.88556 0.0
H2815 H 0.72032 0.57414 0.88175 0.0
C2816 C 0.45107 0.16231 0.87822 0.0
C2817 C 0.48522 0.18376 0.8748 0.0
C2818 C 0.43975 0.12875 0.88189 0.0
C2819 C 0.46329 0.11692 0.88215 0.0
C2820 C 0.49874 0.14102 0.88171 0.0
C2821 C 0.50942 0.17445 0.87792 0.0
C2822 C 0.40184 0.10433 0.88288 0.0
C2823 C 0.52534 0.13056 0.88302 0.0
C2824 C 0.43306 1.02151 0.88122 0.0
C2825 C 0.43285 1.01652 0.86893 0.0
C2826 C 0.4422 0.05397 0.88584 0.0
C2827 C 0.45117 0.08153 0.87792 0.0
C2828 C 0.44873 0.07561 0.86549 0.0
C2829 C 0.43949 0.04322 0.86121 0.0
C2830 C 0.44436 0.05906 0.8991 0.0
C2831 C 0.45778 0.10383 0.85656 0.0
H2832 H 0.43206 0.1693 0.8761 0.0
H2833 H 0.53609 0.19138 0.87574 0.0
H2834 H 0.39179 0.09208 0.87412 0.0
H2835 H 0.39625 0.08393 0.88944 0.0
H2836 H 0.38812 0.11786 0.88548 0.0
H2837 H 0.54653 0.14923 0.88873 0.0
H2838 H 0.5149 0.10468 0.88688 0.0
H2839 H 0.53642 0.13129 0.87417 0.0
H2840 H 0.42829 1.00082 0.8872 0.0
H2841 H 0.43934 1.03917 0.85171 0.0
H2842 H 0.43661 0.07778 0.90181 0.0
H2843 H 0.47122 0.0692 0.90196 0.0
H2844 H 0.42815 1.03459 0.90381 0.0
H2845 H 0.45304 0.09434 0.84726 0.0
H2846 H 0.48525 0.12318 0.85741 0.0
H2847 H 0.4427 0.11662 0.85818 0.0
C2848 C 0.9696 0.31771 0.82321 0.0
C2849 C 0.94118 0.3158 0.82893 0.0
C2850 C 1.00106 0.34822 0.82309 0.0
C2851 C 1.0039 0.37752 0.82868 0.0
C2852 C 0.97454 0.37645 0.8336 0.0
C2853 C 0.94354 0.34537 0.83381 0.0
C2854 C 1.03183 0.34812 0.81793 0.0
C2855 C 0.97644 0.40744 0.83941 0.0
C2856 C 0.08605 0.43887 0.84435 0.0
C2857 C 0.10048 0.46643 0.83647 0.0
C2858 C 1.05515 0.40934 0.8417 0.0
C2859 C 1.03813 0.40756 0.83094 0.0
C2860 C 1.05322 0.43483 0.82273 0.0
C2861 C 0.08449 0.46401 0.82557 0.0
C2862 C 1.04011 0.3806 0.85063 0.0
C2863 C 1.03578 0.43363 0.81118 0.0
H2864 H 0.96791 0.29471 0.81957 0.0
H2865 H 0.92148 0.34386 0.83819 0.0
H2866 H 1.04744 0.37136 0.81256 0.0
H2867 H 1.04822 0.34814 0.82527 0.0
H2868 H 1.02444 0.32528 0.8123 0.0
H2869 H 0.95067 0.40419 0.84085 0.0
H2870 H 0.98926 0.41178 0.84815 0.0
H2871 H 0.99174 0.43063 0.83395 0.0
H2872 H 0.09846 0.44084 0.85279 0.0
H2873 H 0.09551 0.48553 0.81952 0.0
H2874 H 1.03359 0.35605 0.84628 0.0
H2875 H 1.01613 0.37793 0.8543 0.0
H2876 H 1.05785 0.38499 0.85812 0.0
H2877 H 1.05007 0.45767 0.80605 0.0
H2878 H 1.00958 0.42879 0.81292 0.0
H2879 H 1.03321 0.4122 0.80564 0.0
C2880 C 0.64303 0.61209 0.69128 0.0
C2881 C 0.65816 0.5937 0.68643 0.0
C2882 C 0.65992 0.64934 0.69142 0.0
C2883 C 0.69388 0.6709 0.68681 0.0
C2884 C 0.70923 0.65234 0.68208 0.0
C2885 C 0.69166 0.61532 0.68186 0.0
C2886 C 0.64087 0.66581 0.69647 0.0
C2887 C 0.74497 0.67181 0.67717 0.0
C2888 C 0.73126 0.76881 0.67685 0.0
C2889 C 0.75158 0.78927 0.68652 0.0
C2890 C 0.71243 0.73163 0.67693 0.0
C2891 C 0.71319 0.71198 0.68683 0.0
C2892 C 0.7338 0.7325 0.69659 0.0
C2893 C 0.75191 0.76966 0.69636 0.0
C2894 C 0.69134 0.71316 0.6662 0.0
C2895 C 0.73726 0.71499 0.70742 0.0
H2896 H 0.61744 0.59734 0.69484 0.0
H2897 H 0.70473 0.60306 0.67802 0.0
H2898 H 0.65514 0.68218 0.70414 0.0
H2899 H 0.63902 0.68262 0.68969 0.0
H2900 H 0.61471 0.6467 0.69942 0.0
H2901 H 0.75461 0.65468 0.6743 0.0
H2902 H 0.74558 0.68732 0.66946 0.0
H2903 H 0.76261 0.68976 0.68398 0.0
H2904 H 0.72979 0.78199 0.66905 0.0
H2905 H 0.76698 0.78352 0.70402 0.0
H2906 H 0.6647 0.69485 0.66891 0.0
H2907 H 0.70177 0.69813 0.66199 0.0
H2908 H 0.69094 0.73095 0.6595 0.0
H2909 H 0.71173 0.69817 0.71136 0.0
H2910 H 0.75406 0.73345 0.71428 0.0
H2911 H 0.74792 0.6985 0.70486 0.0
C2912 C 0.4678 0.07515 0.67975 0.0
C2913 C 0.4897 0.06349 0.68419 0.0
C2914 C 0.4308 0.05571 0.6803 0.0
C2915 C 0.41255 1.02205 0.68528 0.0
C2916 C 0.43442 1.00991 0.68977 0.0
C2917 C 0.47164 1.03025 0.68928 0.0
C2918 C 0.41099 0.07168 0.67548 0.0
C2919 C 0.41829 0.9747 0.69508 0.0
C2920 C 0.31456 0.9818 0.69564 0.0
C2921 C 0.2942 0.96113 0.68602 0.0
C2922 C 0.35175 1.00095 0.69555 0.0
C2923 C 0.37149 1.00024 0.68567 0.0
C2924 C 0.35106 0.9791 0.67599 0.0
C2925 C 0.3139 0.96065 0.67624 0.0
C2926 C 0.37012 1.02268 0.70617 0.0
C2927 C 0.36868 0.97583 0.66516 0.0
H2928 H 0.47982 0.1003 0.67576 0.0
H2929 H 0.48663 1.01964 0.69279 0.0
H2930 H 0.39472 0.05621 0.66796 0.0
H2931 H 0.39372 0.07192 0.68243 0.0
H2932 H 0.42793 0.09825 0.67235 0.0
H2933 H 0.43761 0.96786 0.69794 0.0
H2934 H 0.40254 0.97311 0.70285 0.0
H2935 H 0.40094 0.95557 0.6885 0.0
H2936 H 0.30129 0.98354 0.70337 0.0
H2937 H 0.30011 0.94546 0.66858 0.0
H2938 H 0.3863 0.0497 0.7034 0.0
H2939 H 0.38736 1.01436 0.71001 0.0
H2940 H 0.35221 1.02134 0.71317 0.0
H2941 H 0.38346 1.00106 0.66077 0.0
H2942 H 0.35036 0.95724 0.65863 0.0
H2943 H 0.38713 0.96761 0.66778 0.0
C2944 C 1.01068 0.39804 0.68662 0.0
C2945 C 1.02623 0.43254 0.68268 0.0
C2946 C 1.02811 0.37833 0.68688 0.0
C2947 C 1.06326 0.39245 0.68339 0.0
C2948 C 0.07914 0.4274 0.67957 0.0
C2949 C 1.06091 0.44623 0.67914 0.0
C2950 C 1.00835 0.34165 0.69082 0.0
C2951 C 0.11616 0.44545 0.67595 0.0
C2952 C 0.11794 0.34953 0.69438 0.0
C2953 C 0.12095 0.33191 0.68438 0.0
C2954 C 0.10018 0.36887 0.69416 0.0
C2955 C 0.0831 0.37124 0.68375 0.0
C2956 C 0.0857 0.35318 0.67366 0.0
C2957 C 0.10432 0.33466 0.67404 0.0
C2958 C 0.10003 0.38732 0.70527 0.0
C2959 C 0.06827 0.35307 0.66225 0.0
H2960 H 0.98421 0.38591 0.68938 0.0
H2961 H 0.07435 0.47242 0.67605 0.0
H2962 H 1.00961 0.32487 0.68389 0.0
H2963 H 1.02003 0.33825 0.69899 0.0
H2964 H 0.98111 0.33316 0.69265 0.0
H2965 H 0.12603 0.47279 0.67384 0.0
H2966 H 0.13191 0.44373 0.68318 0.0
H2967 H 0.1194 0.43276 0.66804 0.0
H2968 H 0.13003 0.34859 0.70256 0.0
H2969 H 0.10537 0.32173 0.6661 0.0
H2970 H 0.07344 0.37686 0.70845 0.0
H2971 H 0.11027 0.4148 0.70332 0.0
H2972 H 0.11546 0.38502 0.7125 0.0
H2973 H 1.04082 0.34385 0.66393 0.0
H2974 H 0.07036 0.33667 0.65535 0.0
H2975 H 0.07974 0.37946 0.65876 0.0
C2976 C 0.07451 0.88817 0.556 0.0
C2977 C 1.04694 0.88265 0.54878 0.0
C2978 C 0.10131 0.88481 0.55127 0.0
C2979 C 0.09973 0.87537 0.53921 0.0
C2980 C 0.07587 0.87694 0.53153 0.0
C2981 C 1.04974 0.88101 0.53643 0.0
C2982 C 0.12819 0.88605 0.5595 0.0
C2983 C 0.07432 0.86845 0.51851 0.0
C2984 C 0.1605 0.8489 0.52643 0.0
C2985 C 0.14343 0.81405 0.52914 0.0
C2986 C 0.14724 0.86972 0.52985 0.0
C2987 C 0.11531 0.85474 0.53565 0.0
C2988 C 0.09748 0.81918 0.53814 0.0
C2989 C 0.11222 0.79944 0.53507 0.0
C2990 C 0.16779 0.90754 0.52732 0.0
C2991 C 1.06303 0.80195 0.5442 0.0
H2992 H 0.07286 0.8905 0.56552 0.0
H2993 H 1.02881 0.87745 0.53076 0.0
H2994 H 0.12053 0.85977 0.56246 0.0
H2995 H 0.15308 0.89661 0.55487 0.0
H2996 H 0.13137 0.90177 0.5675 0.0
H2997 H 1.05848 0.87653 0.51345 0.0
H2998 H 0.10031 0.8809 0.51462 0.0
H2999 H 1.06291 0.84041 0.51746 0.0
H3000 H 0.18503 0.86044 0.5222 0.0
H3001 H 0.09935 0.77251 0.53732 0.0
H3002 H 0.16278 0.92283 0.53387 0.0
H3003 H 0.16099 0.91251 0.51837 0.0
H3004 H 0.19562 0.9166 0.52731 0.0
H3005 H 0.06568 0.81197 0.55336 0.0
H3006 H 1.05165 0.77379 0.5447 0.0
H3007 H 1.04498 0.80755 0.53938 0.0
C3008 C 0.26145 0.19746 0.50292 0.0
C3009 C 0.28955 0.19294 0.50079 0.0
C3010 C 0.26091 0.22584 0.49818 0.0
C3011 C 0.2883 0.24875 0.49089 0.0
C3012 C 0.31047 0.23843 0.48611 0.0
C3013 C 0.31105 0.21053 0.49118 0.0
C3014 C 0.23487 0.23459 0.50271 0.0
C3015 C 0.33813 0.2604 0.47746 0.0
C3016 C 0.29993 0.33721 0.48655 0.0
C3017 C 0.31912 0.35379 0.49666 0.0
C3018 C 0.29066 0.3032 0.48412 0.0
C3019 C 0.30095 0.28584 0.49205 0.0
C3020 C 0.32268 0.30368 0.50179 0.0
C3021 C 0.33121 0.33743 0.504 0.0
C3022 C 0.26818 0.28564 0.47353 0.0
C3023 C 0.33536 0.28667 0.51032 0.0
H3024 H 0.24284 0.18215 0.50962 0.0
H3025 H 0.33194 0.20657 0.4888 0.0
H3026 H 0.24605 0.25279 0.51024 0.0
H3027 H 0.22772 0.24703 0.49569 0.0
H3028 H 0.21147 0.2115 0.50592 0.0
H3029 H 0.34112 0.24405 0.47079 0.0
H3030 H 0.33267 0.27867 0.47276 0.0
H3031 H 0.36271 0.27493 0.48231 0.0
H3032 H 0.29045 0.35002 0.48091 0.0
H3033 H 0.34569 0.35043 0.51189 0.0
H3034 H 0.24102 0.27427 0.4762 0.0
H3035 H 0.27206 0.26492 0.47002 0.0
H3036 H 0.27298 0.3042 0.4663 0.0
H3037 H 0.3134 0.26508 0.51486 0.0
H3038 H 0.35267 0.30458 0.51721 0.0
H3039 H 0.34944 0.27627 0.50544 0.0
C3040 C 0.68767 0.95987 0.49968 0.0
C3041 C 0.69047 0.94759 0.51078 0.0
C3042 C 0.71341 0.99208 0.49568 0.0
C3043 C 0.74181 1.01239 0.50313 0.0
C3044 C 0.74342 1.00059 0.51462 0.0
C3045 C 0.71798 0.96815 0.51821 0.0
C3046 C 0.7113 1.00321 0.48325 0.0
C3047 C 0.77281 1.02154 0.52299 0.0
C3048 C 0.8319 0.07854 0.49501 0.0
C3049 C 0.83236 0.10826 0.49865 0.0
C3050 C 0.80115 0.04714 0.49495 0.0
C3051 C 0.77078 0.04559 0.49909 0.0
C3052 C 0.77086 0.07616 0.50181 0.0
C3053 C 0.80174 0.10725 0.50149 0.0
C3054 C 0.80192 1.01531 0.49157 0.0
C3055 C 0.73923 0.07578 0.50628 0.0
H3056 H 0.66668 0.94346 0.49386 0.0
H3057 H 0.72019 0.95827 0.52673 0.0
H3058 H 0.71882 1.0306 0.48302 0.0
H3059 H 0.72935 0.99996 0.47748 0.0
H3060 H 0.6852 0.98782 0.47945 0.0
H3061 H 0.76861 1.00981 0.53194 0.0
H3062 H 0.79672 1.02405 0.51932 0.0
H3063 H 0.77666 0.04765 0.52396 0.0
H3064 H 0.85572 0.07959 0.49277 0.0
H3065 H 0.80239 0.13052 0.50429 0.0
H3066 H 0.77831 0.99704 0.48676 0.0
H3067 H 0.80349 1.00269 0.49977 0.0
H3068 H 0.82444 1.02124 0.48598 0.0
H3069 H 0.73451 0.06674 0.51562 0.0
H3070 H 0.71648 0.05793 0.501 0.0
H3071 H 0.74196 0.10158 0.50599 0.0
C3072 C 0.08764 0.77377 0.69179 0.0
C3073 C 0.1218 0.79559 0.68781 0.0
C3074 C 0.06991 0.73678 0.69129 0.0
C3075 C 0.08572 0.71833 0.68688 0.0
C3076 C 0.12035 0.74005 0.68284 0.0
C3077 C 0.13742 0.77735 0.68324 0.0
C3078 C 1.03347 0.71721 0.69556 0.0
C3079 C 0.13992 0.72371 0.67817 0.0
C3080 C 1.0456 0.61942 0.69617 0.0
C3081 C 1.02664 0.59986 0.68614 0.0
C3082 C 0.06492 0.65662 0.69643 0.0
C3083 C 0.06607 0.67722 0.68651 0.0
C3084 C 1.04681 0.65759 0.67641 0.0
C3085 C 1.02823 0.62043 0.67631 0.0
C3086 C 0.08446 0.6741 0.70753 0.0
C3087 C 1.04531 0.67608 0.66552 0.0
H3088 H 0.07412 0.78587 0.69539 0.0
H3089 H 0.16352 0.79219 0.68014 0.0
H3090 H 1.01678 0.69979 0.68846 0.0
H3091 H 1.0316 0.70113 0.70327 0.0
H3092 H 1.02359 0.7343 0.69823 0.0
H3093 H 0.16656 0.74287 0.67572 0.0
H3094 H 0.14053 0.70627 0.68497 0.0
H3095 H 0.12679 0.708 0.67024 0.0
H3096 H 1.04562 0.60551 0.70399 0.0
H3097 H 1.01429 0.60731 0.66837 0.0
H3098 H 0.07364 0.689 0.71156 0.0
H3099 H 0.11153 0.69241 0.7053 0.0
H3100 H 0.08365 0.65567 0.71421 0.0
H3101 H 1.03463 0.69269 0.66787 0.0
H3102 H 1.02942 0.65825 0.65836 0.0
H3103 H 0.07147 0.69289 0.66205 0.0
C3104 C 0.30786 0.31673 0.68428 0.0
C3105 C 0.28865 0.33234 0.68781 0.0
C3106 C 0.34504 0.33425 0.6844 0.0
C3107 C 0.36575 0.36943 0.68793 0.0
C3108 C 0.34641 0.38532 0.69135 0.0
C3109 C 0.30932 0.36706 0.69136 0.0
C3110 C 0.36235 0.31457 0.68083 0.0
C3111 C 0.3651 0.42233 0.69502 0.0
C3112 C 0.46356 0.41042 0.69851 0.0
C3113 C 0.48392 0.42744 0.68841 0.0
C3114 C 0.42641 0.39173 0.69844 0.0
C3115 C 0.40677 0.38931 0.68807 0.0
C3116 C 0.42719 0.40671 0.67788 0.0
C3117 C 0.46431 0.42469 0.67813 0.0
C3118 C 0.40795 0.37403 0.70965 0.0
C3119 C 0.40962 0.40663 0.66652 0.0
H3120 H 0.29373 0.29021 0.68155 0.0
H3121 H 0.29632 0.38049 0.69417 0.0
H3122 H 0.37865 0.32663 0.67294 0.0
H3123 H 0.37934 0.31542 0.68809 0.0
H3124 H 0.34375 0.28746 0.67871 0.0
H3125 H 0.34743 0.43209 0.69692 0.0
H3126 H 0.38059 0.42564 0.70308 0.0
H3127 H 0.38302 0.43813 0.68791 0.0
H3128 H 0.4768 0.41127 0.70663 0.0
H3129 H 0.47815 0.43703 0.67011 0.0
H3130 H 0.39024 0.34652 0.70784 0.0
H3131 H 0.39227 0.38503 0.7128 0.0
H3132 H 0.4258 0.37641 0.71686 0.0
H3133 H 0.3935 0.38004 0.6633 0.0
H3134 H 0.42804 0.4219 0.65943 0.0
H3135 H 0.39242 0.41709 0.66815 0.0
C3136 C 0.77003 0.99658 0.69095 0.0
C3137 C 0.7571 0.96174 0.68773 0.0
C3138 C 0.75055 1.01399 0.69035 0.0
C3139 C 0.71548 0.99708 0.68669 0.0
C3140 C 0.70199 0.96176 0.68345 0.0
C3141 C 0.72246 0.94504 0.68386 0.0
C3142 C 0.76803 0.05125 0.6937 0.0
C3143 C 0.66518 0.94104 0.67968 0.0
C3144 C 0.65833 1.03831 0.69642 0.0
C3145 C 0.65505 0.05474 0.68613 0.0
C3146 C 0.67647 1.01935 0.69663 0.0
C3147 C 0.69365 1.01622 0.68639 0.0
C3148 C 0.69064 1.03295 0.676 0.0
C3149 C 0.67165 0.05108 0.67596 0.0
C3150 C 0.67714 1.00238 0.70804 0.0
C3151 C 0.70827 1.0323 0.66475 0.0
H3152 H 0.79628 1.01085 0.69399 0.0
H3153 H 0.71079 0.91837 0.68139 0.0
H3154 H 0.76522 0.0662 0.68642 0.0
H3155 H 0.75571 0.05462 0.70169 0.0
H3156 H 0.79566 0.06197 0.69558 0.0
H3157 H 0.6574 0.91397 0.67784 0.0
H3158 H 0.64846 0.94183 0.68673 0.0
H3159 H 0.66089 0.95228 0.67158 0.0
H3160 H 0.64632 1.04004 0.7045 0.0
H3161 H 0.67042 0.06316 0.66783 0.0
H3162 H 0.70367 1.01464 0.71149 0.0
H3163 H 0.66867 0.97508 0.70639 0.0
H3164 H 0.66055 1.00403 0.71496 0.0
H3165 H 0.73606 0.04355 0.66643 0.0
H3166 H 0.70465 0.04661 0.65743 0.0
H3167 H 0.69833 1.00552 0.66185 0.0
C3168 C 0.32788 0.95871 0.21238 0.0
C3169 C 0.3197 0.96802 0.20151 0.0
C3170 C 0.35461 0.95167 0.21319 0.0
C3171 C 0.37411 0.95513 0.20298 0.0
C3172 C 0.36796 0.96766 0.19227 0.0
C3173 C 0.34048 0.97369 0.19163 0.0
C3174 C 0.36084 0.93891 0.22477 0.0
C3175 C 0.3895 0.97329 0.18136 0.0
C3176 C 0.46026 0.96206 0.2029 0.0
C3177 C 0.45276 0.93183 0.19689 0.0
C3178 C 0.43445 0.96887 0.20607 0.0
C3179 C 0.4003 0.94469 0.20322 0.0
C3180 C 0.39219 0.91219 0.19874 0.0
C3181 C 0.41863 0.90612 0.19558 0.0
C3182 C 0.44484 1.00359 0.21119 0.0
C3183 C 0.35577 0.885 0.19632 0.0
H3184 H 0.31198 0.95481 0.22008 0.0
H3185 H 0.33428 0.98118 0.18327 0.0
H3186 H 0.35574 0.91239 0.22361 0.0
H3187 H 0.38798 0.95485 0.22749 0.0
H3188 H 0.34434 0.93912 0.23204 0.0
H3189 H 0.38324 0.98586 0.1741 0.0
H3190 H 0.41701 0.98935 0.1836 0.0
H3191 H 0.38541 0.9484 0.17805 0.0
H3192 H 0.48648 0.98231 0.20394 0.0
H3193 H 0.41271 0.88246 0.19117 0.0
H3194 H 0.42317 1.00562 0.21483 0.0
H3195 H 0.45748 1.02324 0.20418 0.0
H3196 H 0.4638 1.00967 0.21839 0.0
H3197 H 0.33997 0.88132 0.2043 0.0
H3198 H 0.35348 0.86013 0.19388 0.0
H3199 H 0.34529 0.89327 0.18896 0.0
C3200 C 0.12234 0.48619 0.2087 0.0
C3201 C 0.15243 0.51161 0.20337 0.0
C3202 C 0.11953 0.45514 0.21214 0.0
C3203 C 0.14779 0.45031 0.21046 0.0
C3204 C 0.18016 0.47879 0.20776 0.0
C3205 C 0.18201 0.50912 0.20391 0.0
C3206 C 0.08485 0.42592 0.21551 0.0
C3207 C 0.21161 0.47543 0.207 0.0
C3208 C 0.13807 0.36178 0.21243 0.0
C3209 C 0.13833 0.3546 0.20035 0.0
C3210 C 0.14068 0.39273 0.21608 0.0
C3211 C 0.14153 0.41573 0.20737 0.0
C3212 C 0.13834 0.4066 0.19517 0.0
C3213 C 0.13788 0.37666 0.19183 0.0
C3214 C 0.1451 0.40126 0.22914 0.0
C3215 C 0.13734 0.42927 0.18551 0.0
H3216 H 0.09952 0.48835 0.20852 0.0
H3217 H 0.20554 0.52917 0.20007 0.0
H3218 H 0.07258 0.40998 0.20753 0.0
H3219 H 0.08705 0.40946 0.22232 0.0
H3220 H 0.06797 0.43526 0.21894 0.0
H3221 H 0.23525 0.50059 0.20813 0.0
H3222 H 0.21101 0.45749 0.21385 0.0
H3223 H 0.21258 0.46525 0.19814 0.0
H3224 H 0.13832 0.34448 0.219 0.0
H3225 H 0.13815 0.3709 0.1825 0.0
H3226 H 0.14113 0.42284 0.23145 0.0
H3227 H 0.17142 0.40814 0.23181 0.0
H3228 H 0.1272 0.37851 0.23441 0.0
H3229 H 0.12873 0.41563 0.17688 0.0
H3230 H 0.16328 0.45161 0.18423 0.0
H3231 H 0.11992 0.43892 0.18794 0.0
C3232 C 0.61226 0.6605 0.19527 0.0
C3233 C 0.58747 0.66987 0.19316 0.0
C3234 C 0.64688 0.6851 0.196 0.0
C3235 C 0.65685 0.71993 0.19474 0.0
C3236 C 0.63177 0.72969 0.1933 0.0
C3237 C 0.59724 0.70442 0.19246 0.0
C3238 C 0.67285 0.67361 0.19731 0.0
C3239 C 0.64126 0.76668 0.19254 0.0
C3240 C 0.74551 0.78586 0.20477 0.0
C3241 C 0.76237 0.79795 0.1939 0.0
C3242 C 0.71115 0.76035 0.20519 0.0
C3243 C 0.69361 0.74591 0.19447 0.0
C3244 C 0.71108 0.75652 0.18348 0.0
C3245 C 0.74539 0.78266 0.18331 0.0
C3246 C 0.69317 0.75028 0.21704 0.0
C3247 C 0.69303 0.74145 0.17188 0.0
H3248 H 0.60487 0.63371 0.19547 0.0
H3249 H 0.578 0.71151 0.19077 0.0
H3250 H 0.68835 0.67984 0.18909 0.0
H3251 H 0.69065 0.68735 0.20473 0.0
H3252 H 0.66068 0.6457 0.19894 0.0
H3253 H 0.61976 0.76973 0.18926 0.0
H3254 H 0.64825 0.77797 0.20154 0.0
H3255 H 0.66362 0.78135 0.18666 0.0
H3256 H 0.7587 0.79778 0.21297 0.0
H3257 H 0.7583 0.79229 0.1749 0.0
H3258 H 0.68104 0.7223 0.21837 0.0
H3259 H 0.6725 0.7567 0.21722 0.0
H3260 H 0.71081 0.76347 0.22458 0.0
H3261 H 0.71078 0.75081 0.16419 0.0
H3262 H 0.67289 0.74826 0.17043 0.0
H3263 H 0.68027 0.71316 0.17217 0.0
C3264 C 0.36285 0.96824 0.02159 0.0
C3265 C 0.32784 0.94878 1.01823 0.0
C3266 C 0.38266 1.00539 0.02112 0.0
C3267 C 0.36814 1.02586 1.01742 0.0
C3268 C 0.3327 1.00628 1.01419 0.0
C3269 C 0.31376 0.96921 1.01447 0.0
C3270 C 0.41987 1.02291 0.02449 0.0
C3271 C 0.31425 1.02471 1.01042 0.0
C3272 C 0.41231 0.12492 0.02667 0.0
C3273 C 0.42854 0.14402 1.01625 0.0
C3274 C 0.39304 0.08784 0.02712 0.0
C3275 C 0.38936 0.06688 1.01702 0.0
C3276 C 0.40602 0.08599 1.0065 0.0
C3277 C 0.4245 0.12316 1.00621 0.0
C3278 C 0.37609 0.07092 0.03862 0.0
C3279 C 0.40465 0.06694 0.99535 0.0
H3280 H 0.37529 0.95431 0.02445 0.0
H3281 H 0.28718 0.95601 1.01177 0.0
H3282 H 0.43568 1.03973 1.01715 0.0
H3283 H 0.42447 1.03938 0.03237 0.0
H3284 H 0.42853 1.00443 0.02655 0.0
H3285 H 0.28663 1.00694 1.00878 0.0
H3286 H 0.31699 0.04336 1.01736 0.0
H3287 H 0.32589 1.03935 1.00218 0.0
H3288 H 0.41431 0.13915 0.03465 0.0
H3289 H 0.43637 0.13599 0.99799 0.0
H3290 H 0.38692 0.05524 0.04192 0.0
H3291 H 0.34835 0.0534 0.03714 0.0
H3292 H 0.37939 0.08973 0.04559 0.0
H3293 H 0.41408 0.04899 0.99722 0.0
H3294 H 0.42014 0.08439 0.98808 0.0
H3295 H 0.37781 0.05147 0.99228 0.0
C3296 C 0.14549 0.43276 1.01377 0.0
C3297 C 0.16715 0.42064 1.01807 0.0
C3298 C 0.10848 0.4134 1.01414 0.0
C3299 C 0.08995 0.37932 1.01874 0.0
C3300 C 0.11155 0.36668 0.02309 0.0
C3301 C 0.14881 0.38698 0.02281 0.0
C3302 C 0.08896 0.42994 1.00953 0.0
C3303 C 0.09511 0.33097 0.02798 0.0
C3304 C 0.99188 0.33878 0.02894 0.0
C3305 C 0.97157 0.31915 1.01914 0.0
C3306 C 1.02904 0.35769 0.02895 0.0
C3307 C 1.04886 0.35771 1.01898 0.0
C3308 C 1.02852 0.3376 1.0091 0.0
C3309 C 0.99132 0.31941 1.00925 0.0
C3310 C 1.04729 0.37838 0.03977 0.0
C3311 C 1.04626 0.33511 0.99817 0.0
H3312 H 0.15773 0.45823 1.01003 0.0
H3313 H 0.16359 0.37597 0.02618 0.0
H3314 H 0.07302 0.41527 1.00184 0.0
H3315 H 0.07142 0.42955 1.01649 0.0
H3316 H 0.1061 0.4568 1.00673 0.0
H3317 H 0.11423 0.32368 0.03065 0.0
H3318 H 0.07927 0.32877 0.0358 0.0
H3319 H 0.07778 0.31253 0.02122 0.0
H3320 H 0.97857 0.3399 0.03676 0.0
H3321 H 0.97758 0.30498 1.00147 0.0
H3322 H 0.06387 0.40558 0.03727 0.0
H3323 H 0.06413 0.36939 0.04348 0.0
H3324 H 1.0293 0.37672 0.04679 0.0
H3325 H 1.06114 0.36066 0.99401 0.0
H3326 H 1.02799 0.31706 0.99151 0.0
H3327 H 0.06462 0.32663 1.00062 0.0
C3328 C 0.77951 0.68858 0.02976 0.0
C3329 C 0.79768 0.68741 1.01961 0.0
C3330 C 0.76072 0.7069 0.03017 0.0
C3331 C 0.75944 0.72635 0.02029 0.0
C3332 C 0.77812 0.72564 1.01008 0.0
C3333 C 0.79611 0.7065 1.00982 0.0
C3334 C 0.74148 0.7049 0.04132 0.0
C3335 C 0.77931 0.74551 0.9992 0.0
C3336 C 0.68435 0.7483 1.01621 0.0
C3337 C 0.69716 0.78225 0.02049 0.0
C3338 C 0.70347 0.73042 1.01628 0.0
C3339 C 0.738 0.74595 0.02048 0.0
C3340 C 0.75135 0.78038 0.02478 0.0
C3341 C 0.73127 0.79753 0.02484 0.0
C3342 C 0.68616 0.69416 1.0118 0.0
C3343 C 0.78761 0.79969 0.02922 0.0
H3344 H 0.77943 0.67447 0.03754 0.0
H3345 H 0.80939 0.7068 1.00179 0.0
H3346 H 0.75123 0.73088 0.04503 0.0
H3347 H 0.71402 0.69446 0.03922 0.0
H3348 H 0.74377 0.68859 0.0482 0.0
H3349 H 0.79661 0.74518 0.99228 0.0
H3350 H 0.75329 0.73459 0.99537 0.0
H3351 H 0.788 0.77243 1.00164 0.0
H3352 H 0.65852 0.73509 1.01274 0.0
H3353 H 0.74282 0.82348 0.02814 0.0
H3354 H 0.68757 0.67723 1.01862 0.0
H3355 H 0.69961 0.69262 1.0038 0.0
H3356 H 0.65892 0.68434 1.00948 0.0
H3357 H 0.79056 0.78633 0.03698 0.0
H3358 H 0.79542 0.82629 0.03185 0.0
H3359 H 0.8052 0.8004 0.02221 0.0
C3360 C 0.78514 0.07409 0.86543 0.0
C3361 C 0.81707 0.09096 0.87096 0.0
C3362 C 0.75964 0.08164 0.8685 0.0
C3363 C 0.76717 0.10827 0.87672 0.0
C3364 C 0.79942 0.12516 0.88242 0.0
C3365 C 0.82366 0.11547 0.87973 0.0
C3366 C 0.72486 0.06154 0.86276 0.0
C3367 C 0.80905 0.154 0.8911 0.0
C3368 C 0.70886 0.14327 0.87018 0.0
C3369 C 0.68377 0.12749 0.87903 0.0
C3370 C 0.73821 0.14023 0.87012 0.0
C3371 C 0.74168 0.11932 0.87866 0.0
C3372 C 0.71842 0.10604 0.88821 0.0
C3373 C 0.69048 0.11146 0.88852 0.0
C3374 C 0.76439 0.15754 0.86042 0.0
C3375 C 0.72163 0.08412 0.89764 0.0
H3376 H 0.78017 0.055 0.85869 0.0
H3377 H 0.84847 0.12845 0.88402 0.0
H3378 H 0.70445 0.05316 0.86955 0.0
H3379 H 0.72117 0.07794 0.85631 0.0
H3380 H 0.72171 1.03865 0.85797 0.0
H3381 H 0.8368 0.17258 0.89064 0.0
H3382 H 0.795 0.16787 0.8895 0.0
H3383 H 0.80342 0.14355 0.90024 0.0
H3384 H 0.70488 0.15618 0.86281 0.0
H3385 H 0.67275 0.10108 0.89586 0.0
H3386 H 0.76157 0.13841 0.85368 0.0
H3387 H 0.79066 0.16918 0.86411 0.0
H3388 H 0.76145 0.17774 0.85591 0.0
H3389 H 0.72251 0.06235 0.89345 0.0
H3390 H 0.70009 0.07385 0.90404 0.0
H3391 H 0.7458 0.09931 0.90262 0.0
C3392 C 1.00422 0.69445 0.86235 0.0
C3393 C 0.98096 0.70371 0.86654 0.0
C3394 C 1.00007 0.66233 0.86503 0.0
C3395 C 0.97057 0.63815 0.87131 0.0
C3396 C 0.94671 0.64742 0.87539 0.0
C3397 C 0.95297 0.68061 0.87334 0.0
C3398 C 1.02704 0.65422 0.86098 0.0
C3399 C 0.91396 0.62263 0.8816 0.0
C3400 C 0.95527 0.54891 0.86581 0.0
C3401 C 0.96419 0.54106 0.87683 0.0
C3402 C 0.95499 0.57942 0.86407 0.0
C3403 C 0.965 0.60335 0.87348 0.0
C3404 C 0.97174 0.59464 0.88484 0.0
C3405 C 0.97004 0.5631 0.88645 0.0
C3406 C 0.9454 0.58586 0.85189 0.0
C3407 C 0.9825 0.61919 0.89518 0.0
H3408 H 1.02587 0.71252 0.85709 0.0
H3409 H 0.93501 0.68789 0.87662 0.0
H3410 H 1.03251 0.64042 0.868 0.0
H3411 H 1.01771 0.63752 0.85303 0.0
H3412 H 1.05127 0.67767 0.85859 0.0
H3413 H 0.89227 0.6239 0.87756 0.0
H3414 H 0.90808 0.59574 0.88119 0.0
H3415 H 0.91547 0.63028 0.89103 0.0
H3416 H 0.95054 0.53241 0.85822 0.0
H3417 H 0.97537 0.5567 0.89516 0.0
H3418 H 0.96223 0.58397 0.84512 0.0
H3419 H 0.947 0.61098 0.85095 0.0
H3420 H 0.91887 0.56557 0.84979 0.0
H3421 H 1.00136 0.64555 0.89236 0.0
H3422 H 0.99392 0.61171 0.90249 0.0
H3423 H 0.95985 0.61951 0.89877 0.0
C3424 C 0.395 0.26871 0.82934 0.0
C3425 C 0.36574 0.25924 0.83611 0.0
C3426 C 0.42326 0.30165 0.83017 0.0
C3427 C 0.42168 0.32533 0.83793 0.0
C3428 C 0.39065 0.31686 0.84377 0.0
C3429 C 0.36284 0.28362 0.84279 0.0
C3430 C 0.45559 0.30979 0.82364 0.0
C3431 C 0.38787 0.34179 0.85196 0.0
C3432 C 0.49588 0.38684 0.85674 0.0
C3433 C 0.50294 0.41803 0.85179 0.0
C3434 C 0.47124 0.35601 0.85165 0.0
C3435 C 0.45328 0.35673 0.84145 0.0
C3436 C 0.46277 0.38802 0.83575 0.0
C3437 C 0.48758 0.41846 0.84102 0.0
C3438 C 0.46246 0.32288 0.85776 0.0
C3439 C 0.44468 0.38968 0.82472 0.0
H3440 H 0.39644 0.24988 0.82385 0.0
H3441 H 0.33996 0.27598 0.84799 0.0
H3442 H 0.46934 0.33667 0.82054 0.0
H3443 H 0.47285 0.30626 0.82974 0.0
H3444 H 0.45019 0.29261 0.81589 0.0
H3445 H 0.36104 0.33271 0.85465 0.0
H3446 H 0.40324 0.34539 0.86008 0.0
H3447 H 0.39824 0.36708 0.84763 0.0
H3448 H 0.50817 0.38664 0.86499 0.0
H3449 H 0.49286 0.44262 0.8372 0.0
H3450 H 0.46151 0.30405 0.85124 0.0
H3451 H 0.43678 0.3118 0.86187 0.0
H3452 H 0.48119 0.32651 0.86481 0.0
H3453 H 0.45973 0.41445 0.82003 0.0
H3454 H 0.41967 0.38684 0.82724 0.0
H3455 H 0.43961 0.36862 0.8185 0.0
C3456 C 0.70826 0.97765 0.03348 0.0
C3457 C 0.70559 0.95726 0.02345 0.0
C3458 C 0.72655 1.01482 0.0334 0.0
C3459 C 0.7444 1.03447 0.02312 0.0
C3460 C 0.74212 1.01401 1.01302 0.0
C3461 C 0.72301 0.97688 1.01325 0.0
C3462 C 0.72637 1.03327 0.04451 0.0
C3463 C 0.76038 1.03153 1.00175 0.0
C3464 C 0.77047 0.13311 1.01883 0.0
C3465 C 0.805 0.15271 0.02273 0.0
C3466 C 0.75096 0.09592 1.01902 0.0
C3467 C 0.76534 0.07553 0.02296 0.0
C3468 C 0.80032 0.09525 0.02674 0.0
C3469 C 0.81894 0.13236 0.02671 0.0
C3470 C 0.71421 0.07827 1.01507 0.0
C3471 C 0.81862 0.07695 0.03081 0.0
H3472 H 0.69539 0.96442 0.04153 0.0
H3473 H 0.72206 0.96304 1.00528 0.0
H3474 H 0.75281 0.04893 0.04793 0.0
H3475 H 0.7168 0.051 0.04245 0.0
H3476 H 0.71023 1.01543 0.05159 0.0
H3477 H 0.75818 1.0131 0.99481 0.0
H3478 H 0.74967 0.04709 0.99822 0.0
H3479 H 0.78785 0.04924 1.00364 0.0
H3480 H 0.75815 0.14696 1.01575 0.0
H3481 H 0.84517 0.14564 0.0298 0.0
H3482 H 0.69757 0.06095 0.02218 0.0
H3483 H 0.7108 0.06227 1.00716 0.0
H3484 H 0.70555 0.09664 1.01285 0.0
H3485 H 0.80605 0.06178 0.03888 0.0
H3486 H 0.84596 0.09485 0.03287 0.0
H3487 H 0.81698 0.05879 0.02386 0.0
C3488 C 0.98639 0.6676 0.02555 0.0
C3489 C 0.96492 0.68031 0.02157 0.0
C3490 C 1.02341 0.6869 0.02533 0.0
C3491 C 1.04215 0.72152 0.02124 0.0
C3492 C 1.02075 0.73477 1.01724 0.0
C3493 C 0.98347 0.71453 1.01734 0.0
C3494 C 1.0427 0.6697 0.02953 0.0
C3495 C 1.03742 0.77108 1.01292 0.0
C3496 C 0.14053 0.77986 0.03128 0.0
C3497 C 0.16055 0.78133 0.0213 0.0
C3498 C 0.10333 0.7618 0.0313 0.0
C3499 C 0.08324 0.74304 0.02117 0.0
C3500 C 0.10333 0.74426 1.01111 0.0
C3501 C 0.14048 0.76303 1.01126 0.0
C3502 C 0.0853 0.76296 0.04237 0.0
C3503 C 0.08536 0.72501 1.00002 0.0
H3504 H 0.97399 0.64168 0.0289 0.0
H3505 H 0.96884 0.72602 1.01426 0.0
H3506 H 1.06047 0.67097 0.0225 0.0
H3507 H 1.05838 0.68333 0.0374 0.0
H3508 H 1.02542 0.64252 0.03193 0.0
H3509 H 1.01843 0.77878 1.01049 0.0
H3510 H 1.05459 0.78861 1.0199 0.0
H3511 H 1.05346 0.77424 1.00505 0.0
H3512 H 0.15407 0.79325 0.03924 0.0
H3513 H 0.15399 0.76289 1.00335 0.0
H3514 H 0.07025 0.73692 0.04614 0.0
H3515 H 0.06706 0.7718 0.04017 0.0
H3516 H 0.1034 0.78013 0.04924 0.0
H3517 H 0.06859 0.69754 1.00212 0.0
H3518 H 0.10353 0.72747 0.99294 0.0
H3519 H 0.06875 0.7346 0.99657 0.0
C3520 C 0.33526 0.39523 1.0093 0.0
C3521 C 0.33307 0.41228 1.01961 0.0
C3522 C 0.35316 0.37603 1.0089 0.0
C3523 C 0.37112 0.37318 1.01897 0.0
C3524 C 0.36929 0.39062 0.02938 0.0
C3525 C 0.35063 0.40909 0.02959 0.0
C3526 C 0.35255 0.35831 0.99751 0.0
C3527 C 0.3876 0.3901 0.04047 0.0
C3528 C 0.39341 0.29793 0.02208 0.0
C3529 C 0.42792 0.31184 1.0183 0.0
C3530 C 0.37521 0.31679 0.02219 0.0
C3531 C 0.39094 0.35197 1.01868 0.0
C3532 C 0.42591 0.36632 1.01494 0.0
C3533 C 0.44336 0.34661 1.01469 0.0
C3534 C 0.33841 0.29854 0.02608 0.0
C3535 C 0.44547 0.40325 1.01126 0.0
H3536 H 0.3225 0.39658 1.00135 0.0
H3537 H 0.35026 0.42161 0.03774 0.0
H3538 H 0.37896 0.36882 0.99412 0.0
H3539 H 0.34222 0.33067 0.99918 0.0
H3540 H 0.33684 0.36126 0.99054 0.0
H3541 H 0.38578 0.40583 0.0477 0.0
H3542 H 0.37664 0.36347 0.04368 0.0
H3543 H 0.41498 0.39975 0.03849 0.0
H3544 H 0.38009 0.27155 0.02497 0.0
H3545 H 0.46972 0.35894 1.01179 0.0
H3546 H 0.32224 0.3006 1.01908 0.0
H3547 H 0.33563 0.31084 0.03419 0.0
H3548 H 0.32866 0.2711 0.02798 0.0
H3549 H 0.43304 0.40728 1.00343 0.0
H3550 H 0.47247 0.41172 1.00901 0.0
H3551 H 0.44503 0.4196 1.01853 0.0
C3552 C 0.07116 0.32107 0.46802 0.0
C3553 C 0.07317 0.29551 0.4745 0.0
C3554 C 1.04357 0.32668 0.46954 0.0
C3555 C 1.01625 0.30465 0.47698 0.0
C3556 C 1.01512 0.27514 0.48165 0.0
C3557 C 1.0439 0.27135 0.48066 0.0
C3558 C 1.04519 0.35791 0.46409 0.0
C3559 C 0.98471 0.24917 0.48864 0.0
C3560 C 0.97495 0.33809 0.49815 0.0
C3561 C 0.94436 0.32924 0.49232 0.0
C3562 C 0.99933 0.33187 0.49287 0.0
C3563 C 0.99228 0.31525 0.48168 0.0
C3564 C 0.96167 0.30704 0.47562 0.0
C3565 C 0.93833 0.31481 0.48094 0.0
C3566 C 1.03218 0.34212 0.49947 0.0
C3567 C 0.95295 0.28965 0.46366 0.0
H3568 H 0.0923 0.33848 0.46248 0.0
H3569 H 1.04403 0.25086 0.48555 0.0
H3570 H 1.02164 0.35054 0.45892 0.0
H3571 H 1.04673 0.37557 0.47123 0.0
H3572 H 0.06761 0.37184 0.45815 0.0
H3573 H 0.98493 0.22489 0.48978 0.0
H3574 H 0.98485 0.25961 0.49756 0.0
H3575 H 0.96068 0.24362 0.4841 0.0
H3576 H 0.97957 0.34943 0.50693 0.0
H3577 H 0.91464 0.30809 0.47641 0.0
H3578 H 1.05445 0.35605 0.49348 0.0
H3579 H 1.0322 0.31892 0.50265 0.0
H3580 H 1.03556 0.35859 0.50727 0.0
H3581 H 0.96273 0.30936 0.45661 0.0
H3582 H 0.92487 0.27395 0.46247 0.0
H3583 H 0.96435 0.27316 0.46237 0.0
C3584 C 0.82671 0.89822 0.53512 0.0
C3585 C 0.85587 0.92173 0.52878 0.0
C3586 C 0.82045 0.86532 0.53747 0.0
C3587 C 0.84498 0.85639 0.53404 0.0
C3588 C 0.8772 0.88188 0.5297 0.0
C3589 C 0.88239 0.91453 0.52721 0.0
C3590 C 0.78533 0.83952 0.54199 0.0
C3591 C 0.90492 0.8742 0.52628 0.0
C3592 C 0.82279 0.76687 0.5426 0.0
C3593 C 0.81301 0.74999 0.53162 0.0
C3594 C 0.83465 0.8019 0.54345 0.0
C3595 C 0.83469 0.81986 0.53321 0.0
C3596 C 0.82281 0.80246 0.52224 0.0
C3597 C 0.81258 0.76771 0.52153 0.0
C3598 C 0.84768 0.81982 0.55521 0.0
C3599 C 0.82136 0.82061 0.5112 0.0
H3600 H 0.8061 0.90329 0.53667 0.0
H3601 H 0.90559 0.93292 0.52271 0.0
H3602 H 0.766 0.8355 0.53513 0.0
H3603 H 0.78224 0.81438 0.54432 0.0
H3604 H 0.77941 0.84986 0.54996 0.0
H3605 H 0.9298 0.89418 0.52996 0.0
H3606 H 0.89987 0.84883 0.52937 0.0
H3607 H 0.90754 0.87519 0.51647 0.0
H3608 H 0.82293 0.75309 0.55044 0.0
H3609 H 0.80498 0.75464 0.51305 0.0
H3610 H 0.83111 0.82977 0.55837 0.0
H3611 H 0.87383 0.84204 0.55411 0.0
H3612 H 0.84832 0.80266 0.56213 0.0
H3613 H 0.80786 0.80259 0.50378 0.0
H3614 H 0.84771 0.83904 0.50825 0.0
H3615 H 0.80821 0.83526 0.51309 0.0
C3616 C 0.37069 1.02918 0.49226 0.0
C3617 C 0.33565 1.01786 0.49274 0.0
C3618 C 0.39488 0.06292 0.49516 0.0
C3619 C 0.38363 0.08581 0.49851 0.0
C3620 C 0.34843 0.07517 0.49817 0.0
C3621 C 0.32477 1.04119 0.49534 0.0
C3622 C 0.43228 0.07346 0.49533 0.0
C3623 C 0.33558 0.09903 0.50148 0.0
C3624 C 0.4404 0.15485 0.52029 0.0
C3625 C 0.45892 0.18254 0.51271 0.0
C3626 C 0.41538 0.12325 0.51577 0.0
C3627 C 0.40848 0.1197 0.50342 0.0
C3628 C 0.42636 0.14803 0.49579 0.0
C3629 C 0.45174 0.17913 0.50053 0.0
C3630 C 0.39679 0.09353 0.52417 0.0
C3631 C 0.41877 0.14545 0.48266 0.0
H3632 H 0.37914 1.01126 0.49004 0.0
H3633 H 0.29768 1.03249 0.49581 0.0
H3634 H 0.44738 0.09729 0.49016 0.0
H3635 H 0.4419 0.07884 0.5046 0.0
H3636 H 0.43694 0.05339 0.49162 0.0
H3637 H 0.30845 0.08876 0.49888 0.0
H3638 H 0.33771 0.1031 0.51123 0.0
H3639 H 0.35137 0.12421 0.49719 0.0
H3640 H 0.44591 0.15778 0.52973 0.0
H3641 H 0.46563 0.20092 0.49473 0.0
H3642 H 0.40149 0.07255 0.52161 0.0
H3643 H 0.36885 0.0834 0.52359 0.0
H3644 H 0.40496 0.10073 0.53353 0.0
H3645 H 0.43466 0.17011 0.47803 0.0
H3646 H 0.39146 0.13724 0.48121 0.0
H3647 H 0.42342 0.12584 0.47857 0.0
C3648 C 0.10037 0.45562 0.3411 0.0
C3649 C 0.10475 0.476 0.35132 0.0
C3650 C 0.08194 0.41844 0.34117 0.0
C3651 C 0.06558 0.3988 0.35163 0.0
C3652 C 0.06954 0.41928 0.36191 0.0
C3653 C 0.08885 0.45639 0.36168 0.0
C3654 C 0.08037 0.39996 0.32985 0.0
C3655 C 1.05284 0.4018 0.37337 0.0
C3656 C 0.99013 0.3011 0.34861 0.0
C3657 C 1.00432 0.28059 0.35214 0.0
C3658 C 1.00897 0.33821 0.34856 0.0
C3659 C 1.04442 0.35774 0.3518 0.0
C3660 C 1.05905 0.33718 0.35525 0.0
C3661 C 1.03933 0.3 0.35551 0.0
C3662 C 0.99037 0.35671 0.34507 0.0
C3663 C 0.09631 0.35461 0.35856 0.0
H3664 H 0.11198 0.46884 0.33291 0.0
H3665 H 0.09111 0.47023 0.36979 0.0
H3666 H 0.08959 0.38174 0.33149 0.0
H3667 H 1.0535 0.38485 0.32678 0.0
H3668 H 0.09591 0.41776 0.32266 0.0
H3669 H 1.05596 0.42026 0.38045 0.0
H3670 H 1.02515 0.38404 0.3719 0.0
H3671 H 0.06406 0.38632 0.37652 0.0
H3672 H 0.96355 0.28796 0.34592 0.0
H3673 H 1.05186 0.28602 0.35821 0.0
H3674 H 1.00165 0.37149 0.33683 0.0
H3675 H 0.99339 0.37522 0.35211 0.0
H3676 H 0.96268 0.33896 0.34355 0.0
H3677 H 0.112 0.37212 0.35134 0.0
H3678 H 0.10514 0.3361 0.36028 0.0
H3679 H 0.10086 0.37035 0.36664 0.0
C3680 C 0.82438 0.718 0.35896 0.0
C3681 C 0.84332 0.75219 0.35471 0.0
C3682 C 0.78708 0.69792 0.35886 0.0
C3683 C 0.766 0.71129 0.35463 0.0
C3684 C 0.78512 0.74588 0.35051 0.0
C3685 C 0.82218 0.76503 0.35049 0.0
C3686 C 0.77005 0.66163 0.36323 0.0
C3687 C 0.76619 0.76322 0.34608 0.0
C3688 C 0.66785 0.65303 0.3442 0.0
C3689 C 0.64749 0.65164 0.35407 0.0
C3690 C 0.70507 0.67107 0.34434 0.0
C3691 C 0.72485 0.68991 0.35451 0.0
C3692 C 0.70442 0.68878 0.36444 0.0
C3693 C 0.66726 0.67001 0.36415 0.0
C3694 C 0.72345 0.66975 0.33339 0.0
C3695 C 0.72201 0.70811 0.37557 0.0
H3696 H 0.83873 0.70642 0.36223 0.0
H3697 H 0.83487 0.79093 0.34712 0.0
H3698 H 0.75388 0.65868 0.37104 0.0
H3699 H 0.75297 0.6441 0.35622 0.0
H3700 H 0.78883 0.65375 0.36577 0.0
H3701 H 0.7837 0.79037 0.3437 0.0
H3702 H 0.75084 0.7496 0.33815 0.0
H3703 H 0.74814 0.76208 0.35298 0.0
H3704 H 0.65457 0.63958 0.33621 0.0
H3705 H 0.6535 0.67022 0.37198 0.0
H3706 H 0.74156 0.66087 0.33574 0.0
H3707 H 0.73868 0.69576 0.3296 0.0
H3708 H 0.70556 0.65254 0.32648 0.0
H3709 H 0.73829 0.69836 0.37921 0.0
H3710 H 0.70361 0.70593 0.38251 0.0
H3711 H 0.73907 0.73553 0.37345 0.0
C3712 C 0.36364 0.08573 0.35717 0.0
C3713 C 0.37915 0.12081 0.35394 0.0
C3714 C 0.3813 0.06622 0.35681 0.0
C3715 C 0.41661 0.08114 0.35341 0.0
C3716 C 0.43242 0.11665 0.35034 0.0
C3717 C 0.41398 0.13528 0.35048 0.0
C3718 C 0.36158 1.0289 0.35998 0.0
C3719 C 0.46959 0.13554 0.34689 0.0
C3720 C 0.4715 1.03692 0.36271 0.0
C3721 C 0.47513 1.02148 0.3522 0.0
C3722 C 0.45347 0.05599 0.36319 0.0
C3723 C 0.43667 0.06016 0.35302 0.0
C3724 C 0.43986 0.04424 0.34243 0.0
C3725 C 0.45878 1.02604 0.34213 0.0
C3726 C 0.45272 0.07217 0.37479 0.0
C3727 C 0.42271 0.04606 0.33122 0.0
H3728 H 0.33705 0.07298 0.35981 0.0
H3729 H 0.42738 0.16193 0.34791 0.0
H3730 H 0.36325 1.01345 0.35263 0.0
H3731 H 0.37301 1.02417 0.36795 0.0
H3732 H 0.33423 1.01993 0.3618 0.0
H3733 H 0.47944 0.16322 0.34549 0.0
H3734 H 0.48511 0.13246 0.3539 0.0
H3735 H 0.47322 0.12453 0.3386 0.0
H3736 H 0.4833 1.03447 0.37074 0.0
H3737 H 0.46025 1.01473 0.33383 0.0
H3738 H 0.42599 0.06075 0.37795 0.0
H3739 H 0.46261 0.0999 0.37349 0.0
H3740 H 0.46813 0.06883 0.38177 0.0
H3741 H 0.39518 1.03641 0.33291 0.0
H3742 H 0.42511 1.031 0.32387 0.0
H3743 H 0.43416 0.07302 0.32833 0.0
C3744 C 0.28028 0.40029 0.10474 0.0
C3745 C 0.25303 0.39462 0.09728 0.0
C3746 C 0.27453 0.38796 0.11641 0.0
C3747 C 0.24065 0.36902 0.12071 0.0
C3748 C 0.21293 0.36118 0.11299 0.0
C3749 C 0.21945 0.37419 0.10138 0.0
C3750 C 0.3048 0.39697 0.12433 0.0
C3751 C 0.17643 0.34105 0.11724 0.0
C3752 C 0.22392 0.32217 0.15019 0.0
C3753 C 0.22251 0.34557 0.158 0.0
C3754 C 0.22994 0.32942 0.13801 0.0
C3755 C 0.23433 0.36065 0.13357 0.0
C3756 C 0.23242 0.38409 0.14143 0.0
C3757 C 0.22646 0.37618 0.15353 0.0
C3758 C 0.23154 0.30371 0.12989 0.0
C3759 C 0.23718 0.41783 0.13713 0.0
H3760 H 0.30629 0.41543 0.10156 0.0
H3761 H 0.19822 0.36987 0.09574 0.0
H3762 H 0.30652 0.4153 0.13122 0.0
H3763 H 0.30156 0.37388 0.12893 0.0
H3764 H 0.32926 0.40879 0.11935 0.0
H3765 H 0.15782 0.33374 0.10983 0.0
H3766 H 0.1719 0.31754 0.12189 0.0
H3767 H 0.17151 0.35664 0.12369 0.0
H3768 H 0.22061 0.29832 0.15363 0.0
H3769 H 0.2245 0.39386 0.15952 0.0
H3770 H 0.2568 0.31544 0.12546 0.0
H3771 H 0.21192 0.29589 0.12282 0.0
H3772 H 0.22737 0.28053 0.13472 0.0
H3773 H 0.2647 0.4355 0.13534 0.0
H3774 H 0.22843 0.42991 0.14377 0.0
H3775 H 0.22302 0.41466 0.12875 0.0
C3776 C 0.68301 0.86841 0.11272 0.0
C3777 C 0.69606 0.85427 0.10461 0.0
C3778 C 0.69181 0.87168 0.1248 0.0
C3779 C 0.71421 0.86055 0.12888 0.0
C3780 C 0.72702 0.84573 0.12079 0.0
C3781 C 0.71782 0.8428 0.10876 0.0
C3782 C 0.67758 0.88756 0.13316 0.0
C3783 C 0.75112 0.8337 0.12479 0.0
C3784 C 0.76924 0.90251 0.15598 0.0
C3785 C 0.75274 0.87747 0.16473 0.0
C3786 C 0.75643 0.89757 0.14438 0.0
C3787 C 0.72639 0.86676 0.14141 0.0
C3788 C 0.709 0.84172 0.15028 0.0
C3789 C 0.72237 0.84741 0.16187 0.0
C3790 C 0.77563 0.92503 0.13523 0.0
C3791 C 0.67694 0.8085 0.14744 0.0
H3792 H 0.66563 0.8767 0.10964 0.0
H3793 H 0.72821 0.83207 0.10255 0.0
H3794 H 0.66467 0.87023 0.14075 0.0
H3795 H 0.69873 0.91169 0.13685 0.0
H3796 H 0.65907 0.89325 0.12871 0.0
H3797 H 0.75715 0.82088 0.11755 0.0
H3798 H 0.77535 0.8558 0.12799 0.0
H3799 H 0.73985 0.81565 0.13231 0.0
H3800 H 0.79259 0.92593 0.15814 0.0
H3801 H 0.70963 0.82787 0.16858 0.0
H3802 H 0.75834 0.93274 0.13103 0.0
H3803 H 0.78505 0.91494 0.12809 0.0
H3804 H 0.79781 0.94808 0.1391 0.0
H3805 H 0.65799 0.8135 0.14299 0.0
H3806 H 0.66506 0.79288 0.15551 0.0
H3807 H 0.68308 0.79338 0.14119 0.0
C3808 C 0.25242 0.87326 0.16241 0.0
C3809 C 0.22978 0.88469 0.16549 0.0
C3810 C 0.25501 0.8646 0.1506 0.0
C3811 C 0.23444 0.86741 0.14168 0.0
C3812 C 0.21072 0.87779 0.14483 0.0
C3813 C 0.20874 0.88636 0.15666 0.0
C3814 C 0.28061 0.85362 0.14762 0.0
C3815 C 0.1881 0.8809 0.13564 0.0
C3816 C 0.26544 0.88587 0.10977 0.0
C3817 C 0.24571 0.85393 0.1043 0.0
C3818 C 0.26259 0.89031 0.12196 0.0
C3819 C 0.23936 0.86213 0.12892 0.0
C3820 C 0.21974 0.82964 0.12352 0.0
C3821 C 0.22322 0.82589 0.11127 0.0
C3822 C 0.28417 0.92535 0.12736 0.0
C3823 C 0.19458 0.79902 0.13062 0.0
H3824 H 0.26885 0.872 0.16913 0.0
H3825 H 0.19087 0.8948 0.15895 0.0
H3826 H 0.26818 0.82946 0.14246 0.0
H3827 H 0.30111 0.8733 0.14198 0.0
H3828 H 0.29249 0.84986 0.15568 0.0
H3829 H 0.16933 0.88695 0.13966 0.0
H3830 H 0.20407 0.90141 0.12925 0.0
H3831 H 0.17399 0.85678 0.13052 0.0
H3832 H 0.28344 0.9075 0.10451 0.0
H3833 H 0.20784 0.80115 0.10711 0.0
H3834 H 0.29924 0.92406 0.13491 0.0
H3835 H 0.26743 0.93467 0.13091 0.0
H3836 H 0.30204 0.94427 0.12084 0.0
H3837 H 0.20745 0.79545 0.13842 0.0
H3838 H 0.18268 0.77516 0.12527 0.0
H3839 H 0.17405 0.80332 0.13405 0.0
C3840 C 0.42311 0.24222 0.48925 0.0
C3841 C 0.45218 0.27101 0.4938 0.0
C3842 C 0.41536 0.23928 0.4771 0.0
C3843 C 0.43686 0.26604 0.46929 0.0
C3844 C 0.46546 0.29576 0.47388 0.0
C3845 C 0.47285 0.29787 0.48608 0.0
C3846 C 0.38507 0.2067 0.47256 0.0
C3847 C 0.48884 0.32478 0.46583 0.0
C3848 C 0.42864 0.23085 0.43828 0.0
C3849 C 0.40545 0.239 0.43307 0.0
C3850 C 0.44138 0.24207 0.44975 0.0
C3851 C 0.43025 0.26148 0.45627 0.0
C3852 C 0.40968 0.27276 0.45058 0.0
C3853 C 0.39742 0.26126 0.43904 0.0
C3854 C 0.46572 0.23199 0.45506 0.0
C3855 C 0.40021 0.29685 0.45643 0.0
H3856 H 0.40711 0.22117 0.4951 0.0
H3857 H 0.49529 0.32026 0.48952 0.0
H3858 H 0.36883 0.21259 0.46679 0.0
H3859 H 0.39409 0.19243 0.46708 0.0
H3860 H 0.36927 0.18964 0.47987 0.0
H3861 H 0.51072 0.34564 0.47071 0.0
H3862 H 0.49891 0.31524 0.45873 0.0
H3863 H 0.47427 0.33547 0.46146 0.0
H3864 H 0.43609 0.2148 0.43351 0.0
H3865 H 0.38021 0.26843 0.43497 0.0
H3866 H 0.45215 0.21171 0.46177 0.0
H3867 H 0.48715 0.25409 0.45963 0.0
H3868 H 0.47638 0.22218 0.44824 0.0
H3869 H 0.37297 0.28856 0.45468 0.0
H3870 H 0.4156 0.32252 0.45238 0.0
H3871 H 0.40495 0.29947 0.46612 0.0
C3872 C 0.88747 0.18159 0.43981 0.0
C3873 C 0.86935 0.17426 0.42909 0.0
C3874 C 0.87522 0.18892 0.45016 0.0
C3875 C 0.84368 0.18859 0.44986 0.0
C3876 C 0.82407 0.17885 0.43928 0.0
C3877 C 0.83735 0.17225 0.42897 0.0
C3878 C 0.89668 0.19714 0.46129 0.0
C3879 C 0.78952 0.17626 0.43864 0.0
C3880 C 0.81931 0.19684 0.48126 0.0
C3881 C 0.8317 0.23204 0.48188 0.0
C3882 C 0.81906 0.18132 0.4704 0.0
C3883 C 0.8336 0.20198 0.46023 0.0
C3884 C 0.84393 0.23717 0.46072 0.0
C3885 C 0.84206 0.25158 0.47152 0.0
C3886 C 0.8051 0.14327 0.46992 0.0
C3887 C 0.85942 0.26021 0.45009 0.0
H3888 H 0.91219 0.18319 0.44003 0.0
H3889 H 0.82282 0.16589 0.42078 0.0
H3890 H 0.92433 0.20998 0.45911 0.0
H3891 H 0.89256 0.21345 0.46764 0.0
H3892 H 0.89012 0.17286 0.46583 0.0
H3893 H 0.77288 0.15682 0.432 0.0
H3894 H 0.77635 0.16955 0.44736 0.0
H3895 H 0.79277 0.20117 0.43579 0.0
H3896 H 0.8112 0.18176 0.48932 0.0
H3897 H 0.85165 0.27884 0.47208 0.0
H3898 H 0.8263 0.1379 0.4687 0.0
H3899 H 0.78773 0.13213 0.46218 0.0
H3900 H 0.79095 0.1303 0.47812 0.0
H3901 H 0.88075 0.25758 0.44642 0.0
H3902 H 0.86926 0.28752 0.4523 0.0
H3903 H 0.83988 0.25266 0.44303 0.0
C3904 C 0.90225 0.78942 0.44724 0.0
C3905 C 0.93559 0.80684 0.44266 0.0
C3906 C 0.89626 0.7824 0.45943 0.0
C3907 C 0.92425 0.79288 0.46729 0.0
C3908 C 0.95796 0.81222 0.46285 0.0
C3909 C 0.96323 0.81897 0.45061 0.0
C3910 C 0.85987 0.76179 0.46377 0.0
C3911 C 0.98852 0.82411 0.47092 0.0
C3912 C 0.90368 0.78254 0.50044 0.0
C3913 C 0.89901 0.7499 0.50255 0.0
C3914 C 0.91302 0.79757 0.4891 0.0
C3915 C 0.91807 0.77962 0.47972 0.0
C3916 C 0.91499 0.74742 0.48201 0.0
C3917 C 0.90539 0.73296 0.49335 0.0
C3918 C 0.91592 0.83187 0.48704 0.0
C3919 C 0.92047 0.72747 0.47235 0.0
H3920 H 0.88065 0.77955 0.44123 0.0
H3921 H 0.98909 0.83299 0.44721 0.0
H3922 H 0.85446 0.73588 0.46635 0.0
H3923 H 0.85603 0.77385 0.47175 0.0
H3924 H 0.84109 0.75908 0.45687 0.0
H3925 H 1.01272 0.8426 0.46646 0.0
H3926 H 0.98542 0.8362 0.47903 0.0
H3927 H 0.99064 0.80178 0.47378 0.0
H3928 H 0.89852 0.79566 0.50749 0.0
H3929 H 0.90212 0.70786 0.49494 0.0
H3930 H 0.89465 0.82864 0.48124 0.0
H3931 H 0.94014 0.84927 0.48239 0.0
H3932 H 0.91488 0.84411 0.49546 0.0
H3933 H 0.90069 0.72025 0.46537 0.0
H3934 H 0.91917 0.70382 0.47576 0.0
H3935 H 0.94571 0.74346 0.46809 0.0
C3936 C 0.86036 0.66891 0.87943 0.0
C3937 C 0.87542 0.70405 0.87722 0.0
C3938 C 0.84825 0.65566 0.89081 0.0
C3939 C 0.85088 0.67802 0.90008 0.0
C3940 C 0.8623 0.7127 0.89751 0.0
C3941 C 0.87438 0.72529 0.8861 0.0
C3942 C 0.83575 0.61844 0.89322 0.0
C3943 C 0.86524 0.7374 0.90709 0.0
C3944 C 0.81624 0.64431 0.93102 0.0
C3945 C 0.84548 0.64766 0.93662 0.0
C3946 C 0.81722 0.65355 0.91903 0.0
C3947 C 0.84831 0.66698 0.91266 0.0
C3948 C 0.87791 0.67069 0.91837 0.0
C3949 C 0.87605 0.66084 0.93023 0.0
C3950 C 0.78514 0.64893 0.91319 0.0
C3951 C 0.91179 0.68556 0.91199 0.0
H3952 H 0.86018 0.65213 0.87253 0.0
H3953 H 0.88529 0.75238 0.88445 0.0
H3954 H 0.85431 0.61609 0.89902 0.0
H3955 H 0.81103 0.6067 0.89801 0.0
H3956 H 0.83261 0.60383 0.88496 0.0
H3957 H 0.86846 0.76153 0.90332 0.0
H3958 H 0.84239 0.72586 0.9129 0.0
H3959 H 0.88778 0.74376 0.91274 0.0
H3960 H 0.79258 0.63403 0.93597 0.0
H3961 H 0.89881 0.66397 0.93461 0.0
H3962 H 0.77859 0.63168 0.90541 0.0
H3963 H 0.78939 0.67381 0.90984 0.0
H3964 H 0.76303 0.63811 0.91936 0.0
H3965 H 0.90899 0.67106 0.90373 0.0
H3966 H 0.93195 0.68528 0.91755 0.0
H3967 H 0.9205 0.71235 0.90941 0.0
C3968 C 0.34586 0.14766 0.8849 0.0
C3969 C 0.3658 0.17238 0.87646 0.0
C3970 C 0.35579 0.15179 0.8969 0.0
C3971 C 0.386 0.18168 0.90053 0.0
C3972 C 0.40581 0.207 0.89202 0.0
C3973 C 0.3954 0.20201 0.88009 0.0
C3974 C 0.33409 0.12415 0.90567 0.0
C3975 C 0.43797 0.23941 0.89551 0.0
C3976 C 0.39564 0.21149 0.93257 0.0
C3977 C 0.41884 0.2023 0.93709 0.0
C3978 C 0.38419 0.20422 0.92077 0.0
C3979 C 0.39616 0.1873 0.91329 0.0
C3980 C 0.41891 0.1772 0.91789 0.0
C3981 C 0.43 0.18486 0.92972 0.0
C3982 C 0.36023 0.21578 0.9162 0.0
C3983 C 0.43211 0.15892 0.91026 0.0
H3984 H 0.32277 0.12483 0.88209 0.0
H3985 H 0.41008 0.22163 0.87361 0.0
H3986 H 0.34964 0.11461 0.91006 0.0
H3987 H 0.32487 0.13471 0.91271 0.0
H3988 H 0.31164 0.10226 0.90139 0.0
H3989 H 0.44836 0.25809 0.88811 0.0
H3990 H 0.43305 0.25175 0.90317 0.0
H3991 H 0.45775 0.23316 0.89828 0.0
H3992 H 0.38732 0.22548 0.93814 0.0
H3993 H 0.44765 0.17738 0.9332 0.0
H3994 H 0.3371 0.19388 0.91227 0.0
H3995 H 0.37296 0.23494 0.90906 0.0
H3996 H 0.35215 0.22733 0.92328 0.0
H3997 H 0.41038 0.13549 0.90645 0.0
H3998 H 0.44864 0.15165 0.91528 0.0
H3999 H 0.44709 0.17564 0.90279 0.0
C4000 C 0.90982 0.20547 0.88526 0.0
C4001 C 0.92508 0.18547 0.88329 0.0
C4002 C 0.91127 0.2198 0.89645 0.0
C4003 C 0.92865 0.21424 0.90587 0.0
C4004 C 0.94676 0.19681 0.90364 0.0
C4005 C 0.94466 0.18251 0.89238 0.0
C4006 C 0.89193 0.23858 0.89844 0.0
C4007 C 0.96631 0.19107 0.91336 0.0
C4008 C 0.93759 0.26022 0.9352 0.0
C4009 C 0.91005 0.2348 0.94164 0.0
C4010 C 0.94465 0.25383 0.92361 0.0
C4011 C 0.92315 0.22157 0.9183 0.0
C4012 C 0.89534 0.19591 0.92481 0.0
C4013 C 0.8893 0.20278 0.93639 0.0
C4014 C 0.97492 0.28156 0.91704 0.0
C4015 C 0.87154 0.16125 0.91946 0.0
H4016 H 0.89504 0.20839 0.87825 0.0
H4017 H 0.95701 0.16756 0.89093 0.0
H4018 H 0.87052 0.22392 0.90469 0.0
H4019 H 0.90885 0.26386 0.90254 0.0
H4020 H 0.88132 0.24241 0.89006 0.0
H4021 H 0.98376 0.18263 0.90977 0.0
H4022 H 0.98149 0.21472 0.91863 0.0
H4023 H 0.94803 0.17108 0.91949 0.0
H4024 H 0.95371 0.28497 0.93926 0.0
H4025 H 0.86765 0.18326 0.94127 0.0
H4026 H 0.96593 0.29038 0.9094 0.0
H4027 H 0.99098 0.2715 0.91344 0.0
H4028 H 0.99101 0.3039 0.92281 0.0
H4029 H 0.8604 0.16424 0.91109 0.0
H4030 H 0.85035 0.1446 0.92555 0.0
H4031 H 0.886 0.14816 0.91723 0.0
C4032 C 0.74773 0.89245 0.54841 0.0
C4033 C 0.71932 0.86202 0.54457 0.0
C4034 C 0.76008 0.89572 0.56006 0.0
C4035 C 0.74336 0.86792 0.56802 0.0
C4036 C 0.71515 0.83684 0.56406 0.0
C4037 C 0.70334 0.83435 0.55238 0.0
C4038 C 0.79041 0.92916 0.56392 0.0
C4039 C 0.6968 0.80656 0.57224 0.0
C4040 C 0.78803 0.86825 0.59668 0.0
C4041 C 0.773 0.88014 0.60487 0.0
C4042 C 0.77865 0.86403 0.58465 0.0
C4043 C 0.75374 0.87205 0.58072 0.0
C4044 C 0.73831 0.8838 0.58896 0.0
C4045 C 0.7481 0.88767 0.60092 0.0
C4046 C 0.7956 0.85132 0.57615 0.0
C4047 C 0.71168 0.89266 0.58511 0.0
H4048 H 0.75969 0.91406 0.54242 0.0
H4049 H 0.6813 0.81081 0.54939 0.0
H4050 H 0.78244 0.94109 0.57088 0.0
H4051 H 0.81032 0.92469 0.56785 0.0
H4052 H 0.80188 0.94741 0.55643 0.0
H4053 H 0.67671 0.7836 0.56757 0.0
H4054 H 0.71526 0.80017 0.5763 0.0
H4055 H 0.68468 0.81303 0.57958 0.0
H4056 H 0.80712 0.86217 0.5997 0.0
H4057 H 0.73682 0.89744 0.60716 0.0
H4058 H 0.81048 0.87133 0.56947 0.0
H4059 H 0.77602 0.82852 0.57129 0.0
H4060 H 0.81314 0.84452 0.58073 0.0
H4061 H 0.72261 0.91319 0.57834 0.0
H4062 H 0.70207 0.90136 0.59264 0.0
H4063 H 0.68972 0.87009 0.58095 0.0
C4064 C 0.23832 0.88111 0.55071 0.0
C4065 C 0.24692 0.85568 0.5488 0.0
C4066 C 0.2364 0.89169 0.56226 0.0
C4067 C 0.24336 0.87656 0.57207 0.0
C4068 C 0.25518 0.85334 0.57011 0.0
C4069 C 0.25686 0.8432 0.55849 0.0
C4070 C 0.22449 0.91716 0.56401 0.0
C4071 C 0.26311 0.83681 0.58032 0.0
C4072 C 0.24553 0.90911 0.60343 0.0
C4073 C 0.21207 0.88655 0.60727 0.0
C4074 C 0.25627 0.90636 0.59197 0.0
C4075 C 0.23296 0.88054 0.58421 0.0
C4076 C 0.19925 0.85764 0.58808 0.0
C4077 C 0.18932 0.86083 0.59955 0.0
C4078 C 0.29235 0.93127 0.58814 0.0
C4079 C 0.17352 0.82977 0.58006 0.0
H4080 H 0.23085 0.89111 0.54327 0.0
H4081 H 0.264 0.82389 0.55708 0.0
H4082 H 0.24349 0.93908 0.56937 0.0
H4083 H 0.22058 0.92695 0.55546 0.0
H4084 H 0.20012 0.90516 0.56903 0.0
H4085 H 0.27685 0.82351 0.57735 0.0
H4086 H 0.27882 0.85607 0.58713 0.0
H4087 H 0.23889 0.81781 0.58462 0.0
H4088 H 0.26311 0.92932 0.60929 0.0
H4089 H 0.16361 0.84299 0.60251 0.0
H4090 H 0.2919 0.94709 0.58071 0.0
H4091 H 0.30506 0.91733 0.58483 0.0
H4092 H 0.30793 0.9485 0.59547 0.0
H4093 H 0.16964 0.84118 0.5719 0.0
H4094 H 0.14836 0.81406 0.58443 0.0
H4095 H 0.18326 0.81269 0.57726 0.0
C4096 C 0.27789 0.39023 0.55285 0.0
C4097 C 0.25473 0.37293 0.54361 0.0
C4098 C 0.26861 0.38114 0.56475 0.0
C4099 C 0.23526 0.3544 0.56746 0.0
C4100 C 0.21172 0.33697 0.55819 0.0
C4101 C 0.22181 0.34629 0.54638 0.0
C4102 C 0.29456 0.39997 0.5744 0.0
C4103 C 0.17585 0.3085 0.56075 0.0
C4104 C 0.21991 0.30766 0.59672 0.0
C4105 C 0.20573 0.32317 0.60366 0.0
C4106 C 0.22988 0.3178 0.58497 0.0
C4107 C 0.22526 0.3439 0.57999 0.0
C4108 C 0.21086 0.35965 0.58694 0.0
C4109 C 0.20149 0.34925 0.59875 0.0
C4110 C 0.24557 0.30073 0.57791 0.0
C4111 C 0.2052 0.38729 0.58186 0.0
H4112 H 0.30339 0.41079 0.55079 0.0
H4113 H 0.20363 0.33297 0.53931 0.0
H4114 H 0.28463 0.41184 0.58067 0.0
H4115 H 0.2991 0.38174 0.57957 0.0
H4116 H 0.31937 0.42025 0.57081 0.0
H4117 H 0.16033 0.2982 0.55255 0.0
H4118 H 0.17668 0.28732 0.5654 0.0
H4119 H 0.16279 0.31784 0.56673 0.0
H4120 H 0.22381 0.28792 0.60058 0.0
H4121 H 0.19047 0.3612 0.60411 0.0
H4122 H 0.27136 0.32013 0.57477 0.0
H4123 H 0.22981 0.28819 0.56993 0.0
H4124 H 0.24788 0.28122 0.58316 0.0
H4125 H 0.22985 0.4091 0.57885 0.0
H4126 H 0.19356 0.39681 0.58841 0.0
H4127 H 0.18823 0.37741 0.57398 0.0
C4128 C 1.05501 0.53078 0.77006 0.0
C4129 C 1.02827 0.53398 0.76514 0.0
C4130 C 0.06373 0.53782 0.78206 0.0
C4131 C 1.04589 0.54926 0.78931 0.0
C4132 C 1.02053 0.55495 0.78423 0.0
C4133 C 1.01174 0.5469 0.7722 0.0
C4134 C 0.09114 0.53158 0.78709 0.0
C4135 C 1.00155 0.56805 0.79155 0.0
C4136 C 1.0472 0.52462 0.82123 0.0
C4137 C 0.07694 0.55339 0.82541 0.0
C4138 C 1.03488 0.52404 0.80975 0.0
C4139 C 1.05274 0.55287 0.8023 0.0
C4140 C 0.08072 0.58308 0.80689 0.0
C4141 C 0.09261 0.58295 0.81838 0.0
C4142 C 1.00423 0.49171 0.80529 0.0
C4143 C 0.09956 0.61478 0.79937 0.0
H4144 H 0.06856 0.52175 0.76458 0.0
H4145 H 0.991 0.54942 0.76849 0.0
H4146 H 0.1118 0.55535 0.79114 0.0
H4147 H 0.0802 0.51204 0.79419 0.0
H4148 H 0.10258 0.5227 0.78023 0.0
H4149 H 0.98994 0.57962 0.78587 0.0
H4150 H 0.98068 0.5465 0.79648 0.0
H4151 H 1.01865 0.58731 0.79814 0.0
H4152 H 1.03463 0.50177 0.82664 0.0
H4153 H 0.11521 0.60556 0.82162 0.0
H4154 H 1.0123 0.4801 0.79824 0.0
H4155 H 0.98535 0.49755 0.80129 0.0
H4156 H 0.99145 0.47268 0.81248 0.0
H4157 H 0.11566 0.61107 0.7928 0.0
H4158 H 0.11637 0.63766 0.80482 0.0
H4159 H 0.0813 0.61969 0.79437 0.0
C4160 C 0.53725 0.51205 0.77162 0.0
C4161 C 0.56999 0.52038 0.76773 0.0
C4162 C 0.53209 0.52059 0.78314 0.0
C4163 C 0.56033 0.53772 0.79093 0.0
C4164 C 0.59315 0.54489 0.78719 0.0
C4165 C 0.59756 0.53618 0.77565 0.0
C4166 C 0.49673 0.5125 0.78682 0.0
C4167 C 0.62393 0.56287 0.79523 0.0
C4168 C 0.56629 0.60056 0.81425 0.0
C4169 C 0.56288 0.58265 0.82478 0.0
C4170 C 0.56315 0.58532 0.80315 0.0
C4171 C 0.55673 0.55135 0.80254 0.0
C4172 C 0.55107 0.53235 0.81313 0.0
C4173 C 0.55406 0.54822 0.82416 0.0
C4174 C 0.56892 0.60639 0.79209 0.0
C4175 C 0.54403 0.49603 0.81284 0.0
H4176 H 0.51584 0.49978 0.76554 0.0
H4177 H 0.62277 0.5419 0.7728 0.0
H4178 H 0.49015 0.49989 0.79563 0.0
H4179 H 0.49603 0.53658 0.78766 0.0
H4180 H 0.47695 0.49571 0.7803 0.0
H4181 H 0.64715 0.56437 0.79128 0.0
H4182 H 0.62933 0.58923 0.79706 0.0
H4183 H 0.61876 0.54943 0.80387 0.0
H4184 H 0.57259 0.62704 0.81468 0.0
H4185 H 0.55131 0.53421 0.83227 0.0
H4186 H 0.54836 0.59194 0.78552 0.0
H4187 H 0.59346 0.61211 0.78793 0.0
H4188 H 0.56988 0.63094 0.79402 0.0
H4189 H 0.52386 0.48073 0.80623 0.0
H4190 H 0.53598 0.48345 0.82164 0.0
H4191 H 0.5675 0.49586 0.81009 0.0
C4192 C 0.49897 1.02024 0.76289 0.0
C4193 C 0.53046 1.0238 0.75954 0.0
C4194 C 0.48578 1.00903 0.77431 0.0
C4195 C 0.50471 1.00148 0.78253 0.0
C4196 C 0.53507 1.00233 0.77888 0.0
C4197 C 0.54751 1.01338 0.76739 0.0
C4198 C 0.45307 1.00796 0.77783 0.0
C4199 C 0.55588 0.99425 0.78737 0.0
C4200 C 0.50415 1.02335 0.8149 0.0
C4201 C 0.48482 0.99095 0.82004 0.0
C4202 C 0.50988 1.02705 0.80265 0.0
C4203 C 0.49574 0.99765 0.79532 0.0
C4204 C 0.47493 0.96497 0.80035 0.0
C4205 C 0.4698 0.96197 0.81268 0.0
C4206 C 0.53221 0.06241 0.79761 0.0
C4207 C 0.45911 0.93313 0.79277 0.0
H4208 H 0.48571 1.0284 0.75689 0.0
H4209 H 0.57154 1.01547 0.76474 0.0
H4210 H 0.4365 0.98464 0.78306 0.0
H4211 H 0.45918 1.03033 0.78353 0.0
H4212 H 0.43854 1.00864 0.76998 0.0
H4213 H 0.57647 0.99211 0.78278 0.0
H4214 H 0.56781 1.0148 0.79414 0.0
H4215 H 0.5393 0.97001 0.79213 0.0
H4216 H 0.51575 0.04591 0.82048 0.0
H4217 H 0.45467 0.93683 0.81655 0.0
H4218 H 0.51848 0.0674 0.79043 0.0
H4219 H 0.55554 0.06426 0.79365 0.0
H4220 H 0.5401 0.08271 0.80445 0.0
H4221 H 0.44577 0.93629 0.78503 0.0
H4222 H 0.44065 0.91016 0.79783 0.0
H4223 H 0.47946 0.92869 0.78926 0.0
C4224 C 0.53395 0.07072 0.21881 0.0
C4225 C 0.54533 0.05432 0.211 0.0
C4226 C 0.5261 0.06023 0.2307 0.0
C4227 C 0.53004 1.03293 0.23491 0.0
C4228 C 0.53987 1.01523 0.22691 0.0
C4229 C 0.54765 1.02629 0.2151 0.0
C4230 C 0.51493 0.07928 0.23884 0.0
C4231 C 0.54393 0.98571 0.23102 0.0
C4232 C 0.55772 1.03259 0.26666 0.0
C4233 C 0.52819 1.0055 0.27168 0.0
C4234 C 0.55814 0.04262 0.25486 0.0
C4235 C 0.52816 1.02538 0.24786 0.0
C4236 C 0.49766 0.99926 0.25304 0.0
C4237 C 0.49804 0.98957 0.2649 0.0
C4238 C 0.59112 0.0709 0.24976 0.0
C4239 C 0.46498 0.98092 0.24594 0.0
H4240 H 0.53195 0.09232 0.21571 0.0
H4241 H 0.55691 1.01378 0.20922 0.0
H4242 H 0.49301 0.0612 0.24438 0.0
H4243 H 0.53618 0.09574 0.24494 0.0
H4244 H 0.50752 0.09574 0.23384 0.0
H4245 H 0.54976 0.97334 0.22361 0.0
H4246 H 0.56483 0.99484 0.23767 0.0
H4247 H 0.52023 0.96615 0.23543 0.0
H4248 H 0.58087 0.04563 0.27192 0.0
H4249 H 0.47508 0.96865 0.26871 0.0
H4250 H 0.5874 0.09201 0.24659 0.0
H4251 H 0.59883 0.06128 0.242 0.0
H4252 H 0.61231 0.08138 0.25633 0.0
H4253 H 0.45856 0.99966 0.24217 0.0
H4254 H 0.44311 0.9622 0.25139 0.0
H4255 H 0.46835 0.96723 0.23836 0.0
C4256 C 0.09764 0.52487 0.26525 0.0
C4257 C 0.09107 0.54651 0.27232 0.0
C4258 C 0.0844 0.51608 0.25365 0.0
C4259 C 0.06413 0.52923 0.24904 0.0
C4260 C 1.05645 0.55004 0.25631 0.0
C4261 C 0.06987 0.55827 0.26783 0.0
C4262 C 0.09295 0.49364 0.24618 0.0
C4263 C 1.03498 0.56463 0.25177 0.0
C4264 C 1.05957 0.54257 0.21597 0.0
C4265 C 1.02669 0.51608 0.21309 0.0
C4266 C 0.07258 0.54634 0.22753 0.0
C4267 C 1.05224 0.52294 0.23646 0.0
C4268 C 1.0194 0.49548 0.23352 0.0
C4269 C 1.00691 0.49252 0.22189 0.0
C4270 C 0.10761 0.57614 0.23028 0.0
C4271 C 0.99706 0.46984 0.24276 0.0
H4272 H 0.1141 0.5158 0.26864 0.0
H4273 H 0.06413 0.57446 0.27332 0.0
H4274 H 0.06929 0.47194 0.24245 0.0
H4275 H 0.10915 0.50848 0.23858 0.0
H4276 H 0.10675 0.48335 0.25133 0.0
H4277 H 1.03037 0.57939 0.25868 0.0
H4278 H 1.04794 0.58175 0.24413 0.0
H4279 H 1.00994 0.54381 0.24855 0.0
H4280 H 0.07472 0.56123 0.20929 0.0
H4281 H 0.98154 0.47186 0.2197 0.0
H4282 H 0.12411 0.56676 0.234 0.0
H4283 H 0.10558 0.59277 0.23709 0.0
H4284 H 0.1203 0.59186 0.22231 0.0
H4285 H 1.01144 0.45941 0.24744 0.0
H4286 H 0.97358 0.4483 0.23884 0.0
H4287 H 0.98942 0.48261 0.2495 0.0
C4288 C 0.55022 0.50143 0.22167 0.0
C4289 C 0.55789 0.52361 0.21202 0.0
C4290 C 0.55366 0.51339 0.23337 0.0
C4291 C 0.56567 0.5485 0.23546 0.0
C4292 C 0.57468 0.57126 0.22576 0.0
C4293 C 0.57033 0.55846 0.21415 0.0
C4294 C 0.54332 0.48824 0.24348 0.0
C4295 C 0.58808 0.60894 0.2276 0.0
C4296 C 0.53723 0.57012 0.2642 0.0
C4297 C 0.56538 0.57915 0.27164 0.0
C4298 C 0.53733 0.56078 0.25235 0.0
C4299 C 0.56646 0.5608 0.24777 0.0
C4300 C 0.59545 0.571 0.25511 0.0
C4301 C 0.59444 0.57973 0.26702 0.0
C4302 C 0.50574 0.54968 0.24487 0.0
C4303 C 0.62724 0.57208 0.25044 0.0
H4304 H 0.54054 0.47448 0.22007 0.0
H4305 H 0.57674 0.57584 0.20673 0.0
H4306 H 0.5647 0.49661 0.24988 0.0
H4307 H 0.52154 0.4873 0.24834 0.0
H4308 H 0.53567 0.46205 0.24038 0.0
H4309 H 0.60826 0.6193 0.23452 0.0
H4310 H 0.59871 0.62382 0.21931 0.0
H4311 H 0.56705 0.6129 0.23071 0.0
H4312 H 0.5145 0.5691 0.26779 0.0
H4313 H 0.61628 0.58686 0.27275 0.0
H4314 H 0.49515 0.52269 0.24208 0.0
H4315 H 0.51232 0.56533 0.23668 0.0
H4316 H 0.48555 0.55195 0.24969 0.0
H4317 H 0.62145 0.54591 0.24805 0.0
H4318 H 0.64839 0.58283 0.25702 0.0
H4319 H 0.63603 0.58771 0.24224 0.0
C4320 C 1.05149 0.2418 0.2727 0.0
C4321 C 0.06415 0.23983 0.28386 0.0
C4322 C 0.07325 0.25527 0.26288 0.0
C4323 C 0.10854 0.26694 0.26423 0.0
C4324 C 0.12169 0.26587 0.27552 0.0
C4325 C 0.09933 0.25235 0.28521 0.0
C4326 C 1.05827 0.25604 0.25097 0.0
C4327 C 0.1592 0.27822 0.2773 0.0
C4328 C 0.15233 0.26491 0.23585 0.0
C4329 C 0.16675 0.29876 0.23192 0.0
C4330 C 0.13463 0.25457 0.24664 0.0
C4331 C 0.13118 0.27864 0.25365 0.0
C4332 C 0.14723 0.31324 0.25005 0.0
C4333 C 0.165 0.32293 0.23925 0.0
C4334 C 0.11816 0.21749 0.25022 0.0
C4335 C 0.14411 0.33966 0.25728 0.0
H4336 H 1.02431 0.23177 0.27153 0.0
H4337 H 0.10936 0.25135 0.29384 0.0
H4338 H 0.07204 0.28223 0.24723 0.0
H4339 H 1.06145 0.23901 0.24466 0.0
H4340 H 1.03066 0.24771 0.25155 0.0
H4341 H 0.16563 0.27728 0.28675 0.0
H4342 H 0.16656 0.26221 0.27202 0.0
H4343 H 0.17482 0.30485 0.27407 0.0
H4344 H 0.15386 0.2461 0.23031 0.0
H4345 H 0.17628 0.34921 0.23634 0.0
H4346 H 0.08994 0.20566 0.2499 0.0
H4347 H 0.12519 0.2153 0.25948 0.0
H4348 H 0.12569 0.20269 0.24432 0.0
H4349 H 0.11737 0.33437 0.25689 0.0
H4350 H 0.1612 0.36601 0.25398 0.0
H4351 H 0.1502 0.33836 0.26673 0.0
C4352 C 0.91932 0.88179 0.28205 0.0
C4353 C 0.92073 0.85154 0.28175 0.0
C4354 C 0.90838 0.89241 0.27213 0.0
C4355 C 0.8986 0.87219 0.26172 0.0
C4356 C 0.90118 0.8423 0.26123 0.0
C4357 C 0.91219 0.83231 0.27127 0.0
C4358 C 0.90611 0.92454 0.27293 0.0
C4359 C 0.89087 0.82006 0.25026 0.0
C4360 C 0.8307 0.86947 0.24154 0.0
C4361 C 0.85001 0.8881 0.23172 0.0
C4362 C 0.84646 0.86535 0.25158 0.0
C4363 C 0.88241 0.88017 0.25177 0.0
C4364 C 0.90224 0.90035 0.24212 0.0
C4365 C 0.88576 0.90425 0.23219 0.0
C4366 C 0.82446 0.84384 0.26175 0.0
C4367 C 0.94065 0.91649 0.24203 0.0
H4368 H 0.92653 0.89704 0.29009 0.0
H4369 H 0.91303 0.80878 0.27104 0.0
H4370 H 0.91908 0.94139 0.26523 0.0
H4371 H 0.87892 0.91782 0.27263 0.0
H4372 H 0.91771 0.93904 0.28123 0.0
H4373 H 0.89704 0.79925 0.25099 0.0
H4374 H 0.86296 0.80839 0.24879 0.0
H4375 H 0.90392 0.83565 0.24233 0.0
H4376 H 0.80307 0.85729 0.24129 0.0
H4377 H 0.90083 0.9189 0.22466 0.0
H4378 H 0.83354 0.8581 0.27023 0.0
H4379 H 0.82645 0.82046 0.26257 0.0
H4380 H 0.79713 0.83604 0.26053 0.0
H4381 H 0.95172 0.93075 0.2504 0.0
H4382 H 0.95251 0.93417 0.23442 0.0
H4383 H 0.94758 0.89623 0.24146 0.0
C4384 C 0.28764 0.06967 0.27631 0.0
C4385 C 0.26857 0.06246 0.28677 0.0
C4386 C 0.2769 0.04589 0.26704 0.0
C4387 C 0.24634 1.01413 0.26829 0.0
C4388 C 0.2272 1.00644 0.2789 0.0
C4389 C 0.23859 1.03076 0.28805 0.0
C4390 C 0.29812 0.0549 0.25586 0.0
C4391 C 0.19446 0.97285 0.28049 0.0
C4392 C 0.20874 0.9729 0.23874 0.0
C4393 C 0.22281 0.95167 0.23728 0.0
C4394 C 0.21441 0.9919 0.24916 0.0
C4395 C 0.23449 0.98943 0.25832 0.0
C4396 C 0.24657 0.96613 0.25726 0.0
C4397 C 0.24055 0.94747 0.24673 0.0
C4398 C 0.20095 1.01638 0.25 0.0
C4399 C 0.26788 0.96267 0.26689 0.0
H4400 H 0.31105 0.09399 0.27538 0.0
H4401 H 0.22363 1.0253 0.2961 0.0
H4402 H 0.30587 1.03559 0.25413 0.0
H4403 H 0.28271 0.05462 0.24815 0.0
H4404 H 0.32149 0.08049 0.2564 0.0
H4405 H 0.18329 0.97032 0.28947 0.0
H4406 H 0.17541 0.97048 0.27378 0.0
H4407 H 0.19913 0.95128 0.27903 0.0
H4408 H 0.19467 0.97603 0.23152 0.0
H4409 H 0.25123 0.93085 0.24572 0.0
H4410 H 0.22255 0.04299 0.2493 0.0
H4411 H 0.18852 1.01391 0.25872 0.0
H4412 H 0.18229 1.01209 0.24285 0.0
H4413 H 0.29341 0.98611 0.26716 0.0
H4414 H 0.27147 0.94039 0.26539 0.0
H4415 H 0.25589 0.95997 0.27571 0.0
C4416 C 1.02842 0.77395 0.81182 0.0
C4417 C 1.02395 0.79384 0.8204 0.0
C4418 C 1.04812 0.78888 0.80164 0.0
C4419 C 0.06385 0.82463 0.79999 0.0
C4420 C 1.06057 0.84509 0.80883 0.0
C4421 C 1.04064 0.82944 0.81893 0.0
C4422 C 1.05117 0.7662 0.79246 0.0
C4423 C 0.07729 0.88335 0.80745 0.0
C4424 C 0.13337 0.86219 0.77652 0.0
C4425 C 0.11519 0.86324 0.76656 0.0
C4426 C 0.11732 0.85085 0.78758 0.0
C4427 C 0.08219 0.84007 0.7887 0.0
C4428 C 0.06389 0.8418 0.77877 0.0
C4429 C 0.0806 0.85335 0.76783 0.0
C4430 C 0.13772 0.84946 0.79796 0.0
C4431 C 1.02643 0.83075 0.77965 0.0
H4432 H 1.01577 0.74647 0.81287 0.0
H4433 H 1.03752 0.84509 0.82555 0.0
H4434 H 1.03897 0.7673 0.78405 0.0
H4435 H 0.07845 0.77537 0.7905 0.0
H4436 H 1.03889 0.73913 0.79536 0.0
H4437 H 0.07302 0.89568 0.81529 0.0
H4438 H 0.1052 0.89468 0.80613 0.0
H4439 H 0.06702 0.88947 0.79947 0.0
H4440 H 0.16003 0.86948 0.7756 0.0
H4441 H 0.06655 0.85472 0.76026 0.0
H4442 H 0.12789 0.82248 0.80057 0.0
H4443 H 0.13479 0.8628 0.80575 0.0
H4444 H 0.16535 0.86124 0.79587 0.0
H4445 H 1.01145 0.8031 0.78176 0.0
H4446 H 1.01633 0.83533 0.77128 0.0
H4447 H 1.02222 0.84466 0.78696 0.0
C4448 C 0.25528 0.20517 0.7529 0.0
C4449 C 0.24725 0.2308 0.75527 0.0
C4450 C 0.2691 0.19381 0.76176 0.0
C4451 C 0.27484 0.20834 0.77324 0.0
C4452 C 0.26763 0.23484 0.77559 0.0
C4453 C 0.25403 0.2458 0.76657 0.0
C4454 C 0.27663 0.16562 0.75892 0.0
C4455 C 0.27348 0.25105 0.78774 0.0
C4456 C 0.27388 0.15957 0.80066 0.0
C4457 C 0.30863 0.1763 0.80373 0.0
C4458 C 0.26268 0.16866 0.79043 0.0
C4459 C 0.28684 0.19497 0.78304 0.0
C4460 C 0.32212 0.2105 0.78568 0.0
C4461 C 0.33262 0.20101 0.79602 0.0
C4462 C 0.22481 0.15144 0.78792 0.0
C4463 C 0.34864 0.23842 0.77795 0.0
H4464 H 0.24979 0.19322 0.74422 0.0
H4465 H 0.24843 0.26602 0.7684 0.0
H4466 H 0.30322 0.17335 0.76151 0.0
H4467 H 0.25941 0.14248 0.76412 0.0
H4468 H 0.27316 0.15881 0.74934 0.0
H4469 H 0.26758 0.27211 0.78799 0.0
H4470 H 0.25717 0.23149 0.79436 0.0
H4471 H 0.30044 0.26133 0.7905 0.0
H4472 H 0.25513 0.14022 0.8065 0.0
H4473 H 0.35953 0.21401 0.79829 0.0
H4474 H 0.21942 0.14232 0.7786 0.0
H4475 H 0.21596 0.17013 0.78908 0.0
H4476 H 0.20968 0.12941 0.7939 0.0
H4477 H 0.34425 0.23064 0.76848 0.0
H4478 H 0.37504 0.245 0.78041 0.0
H4479 H 0.34653 0.26172 0.77882 0.0
C4480 C 0.87874 0.04679 0.81648 0.0
C4481 C 0.85436 0.05178 0.82242 0.0
C4482 C 0.87115 1.02951 0.8056 0.0
C4483 C 0.8383 1.01678 0.80056 0.0
C4484 C 0.81329 1.02106 0.80663 0.0
C4485 C 0.82171 1.03875 0.81748 0.0
C4486 C 0.89864 1.02574 0.79935 0.0
C4487 C 0.77786 1.00742 0.80159 0.0
C4488 C 0.83134 1.00409 0.76717 0.0
C4489 C 0.81961 0.96902 0.76617 0.0
C4490 C 0.83706 1.01986 0.77832 0.0
C4491 C 0.83061 1.00003 0.78873 0.0
C4492 C 0.8181 0.96451 0.7878 0.0
C4493 C 0.8129 0.94946 0.77654 0.0
C4494 C 0.85064 0.05788 0.77897 0.0
C4495 C 0.81089 0.94255 0.79871 0.0
H4496 H 0.90426 0.05744 0.82011 0.0
H4497 H 0.8028 1.04254 0.82206 0.0
H4498 H 0.8895 0.99841 0.79751 0.0
H4499 H 0.90459 1.03912 0.79068 0.0
H4500 H 0.92258 1.03635 0.80464 0.0
H4501 H 0.76089 1.01143 0.80768 0.0
H4502 H 0.77935 1.02023 0.79303 0.0
H4503 H 0.76606 0.97969 0.79972 0.0
H4504 H 0.83611 1.01927 0.75922 0.0
H4505 H 0.80434 0.92245 0.77586 0.0
H4506 H 0.87582 0.07061 0.78351 0.0
H4507 H 0.83315 0.06315 0.78428 0.0
H4508 H 0.85371 0.06952 0.77005 0.0
H4509 H 0.83498 0.95068 0.80366 0.0
H4510 H 0.7993 0.91501 0.79648 0.0
H4511 H 0.79336 0.94583 0.80474 0.0
C4512 C 0.67048 0.55943 0.60383 0.0
C4513 C 0.68297 0.55129 0.61396 0.0
C4514 C 0.69203 0.57644 0.59423 0.0
C4515 C 0.72683 0.58549 0.59482 0.0
C4516 C 0.73943 0.57674 0.60491 0.0
C4517 C 0.71732 0.55971 0.61437 0.0
C4518 C 0.67776 0.58535 0.58358 0.0
C4519 C 0.77635 0.58573 0.60577 0.0
C4520 C 0.77696 0.6075 0.56613 0.0
C4521 C 0.79379 0.64332 0.5663 0.0
C4522 C 0.75517 0.58826 0.57538 0.0
C4523 C 0.75038 0.60533 0.58507 0.0
C4524 C 0.76785 0.64146 0.58542 0.0
C4525 C 0.78938 0.66006 0.57602 0.0
C4526 C 0.73684 0.54974 0.57469 0.0
C4527 C 0.76335 0.66047 0.59565 0.0
H4528 H 0.64401 0.55317 0.60353 0.0
H4529 H 0.72689 0.55288 0.6221 0.0
H4530 H 0.69079 0.61351 0.58256 0.0
H4531 H 0.68269 0.57493 0.57537 0.0
H4532 H 0.64983 0.57529 0.58432 0.0
H4533 H 0.78179 0.57605 0.61406 0.0
H4534 H 0.78311 0.57498 0.59807 0.0
H4535 H 0.79322 0.61388 0.60547 0.0
H4536 H 0.78043 0.59436 0.55868 0.0
H4537 H 0.80233 0.68772 0.57621 0.0
H4538 H 0.70884 0.53942 0.57429 0.0
H4539 H 0.74212 0.53914 0.58276 0.0
H4540 H 0.7445 0.54051 0.56677 0.0
H4541 H 0.73615 0.65356 0.59632 0.0
H4542 H 0.77923 0.68863 0.59465 0.0
H4543 H 0.77028 0.65298 0.60412 0.0
C4544 C 0.54461 0.14567 0.60101 0.0
C4545 C 0.55708 0.16409 0.61161 0.0
C4546 C 0.53677 0.15979 0.59126 0.0
C4547 C 0.54161 0.19316 0.59214 0.0
C4548 C 0.55436 0.21197 0.60279 0.0
C4549 C 0.56191 0.19718 0.6124 0.0
C4550 C 0.52302 0.13889 0.58006 0.0
C4551 C 0.55994 0.24765 0.60403 0.0
C4552 C 0.54682 0.23886 0.56326 0.0
C4553 C 0.51324 0.23248 0.56213 0.0
C4554 C 0.55664 0.2267 0.5731 0.0
C4555 C 0.53232 0.20793 0.58201 0.0
C4556 C 0.49868 0.20225 0.58107 0.0
C4557 C 0.48954 0.21454 0.57114 0.0
C4558 C 0.59275 0.23319 0.57383 0.0
C4559 C 0.47208 0.18248 0.59042 0.0
H4560 H 0.5406 0.11999 0.60039 0.0
H4561 H 0.57209 0.21175 0.62051 0.0
H4562 H 0.49712 0.13466 0.57812 0.0
H4563 H 0.53956 0.15294 0.57242 0.0
H4564 H 0.52147 0.11365 0.58073 0.0
H4565 H 0.57054 0.25905 0.61285 0.0
H4566 H 0.57773 0.26443 0.59706 0.0
H4567 H 0.53541 0.24724 0.60275 0.0
H4568 H 0.56518 0.2524 0.5563 0.0
H4569 H 0.46359 0.20969 0.57037 0.0
H4570 H 0.59251 0.20855 0.57401 0.0
H4571 H 0.60501 0.24693 0.58217 0.0
H4572 H 0.60861 0.24846 0.56622 0.0
H4573 H 0.46739 0.15598 0.59089 0.0
H4574 H 0.44742 0.18141 0.58858 0.0
H4575 H 0.48142 0.19431 0.59927 0.0
C4576 C 0.97098 0.44138 0.59504 0.0
C4577 C 0.94831 0.42238 0.6042 0.0
C4578 C 0.96575 0.42888 0.58336 0.0
C4579 C 0.93736 0.39638 0.58074 0.0
C4580 C 0.91474 0.37675 0.58996 0.0
C4581 C 0.92041 0.39001 0.60155 0.0
C4582 C 0.99036 0.45065 0.57377 0.0
C4583 C 0.88425 0.34189 0.58754 0.0
C4584 C 0.90285 0.37429 0.54922 0.0
C4585 C 0.91658 0.35419 0.54531 0.0
C4586 C 0.91001 0.38881 0.56062 0.0
C4587 C 0.9312 0.3829 0.56836 0.0
C4588 C 0.94575 0.36331 0.56438 0.0
C4589 C 0.9384 0.34932 0.5529 0.0
C4590 C 0.89419 0.40978 0.56447 0.0
C4591 C 0.96824 0.35619 0.5724 0.0
H4592 H 0.99289 0.46618 0.59701 0.0
H4593 H 0.90244 0.37532 0.60849 0.0
H4594 H 1.00192 0.43672 0.56951 0.0
H4595 H 0.97645 0.45599 0.56676 0.0
H4596 H 1.0112 0.47535 0.57726 0.0
H4597 H 0.86972 0.3294 0.59574 0.0
H4598 H 0.86677 0.34412 0.58116 0.0
H4599 H 0.89269 0.32509 0.5834 0.0
H4600 H 0.88593 0.37821 0.54344 0.0
H4601 H 0.94898 0.33369 0.55001 0.0
H4602 H 0.91426 0.4351 0.56778 0.0
H4603 H 0.8762 0.3968 0.5719 0.0
H4604 H 0.88004 0.41372 0.55716 0.0
H4605 H 0.98997 0.38051 0.57571 0.0
H4606 H 0.97855 0.3415 0.56783 0.0
H4607 H 0.95342 0.34145 0.58025 0.0
C4608 C 0.73471 0.21535 0.097 0.0
C4609 C 0.76312 0.21136 0.09499 0.0
C4610 C 0.71481 0.20226 0.10727 0.0
C4611 C 0.72362 0.18489 0.11574 0.0
C4612 C 0.75242 0.18099 0.1138 0.0
C4613 C 0.77175 0.19416 0.10342 0.0
C4614 C 0.68411 0.20664 0.10897 0.0
C4615 C 0.76281 0.16297 0.12272 0.0
C4616 C 0.68725 0.17444 0.14686 0.0
C4617 C 0.66013 0.14062 0.14651 0.0
C4618 C 0.70851 0.18912 0.13696 0.0
C4619 C 0.70196 0.1697 0.12642 0.0
C4620 C 0.67447 0.13563 0.12602 0.0
C4621 C 0.65406 0.12143 0.1361 0.0
C4622 C 0.7378 0.22544 0.13778 0.0
C4623 C 0.66647 0.11421 0.11491 0.0
H4624 H 0.72777 0.22835 0.09045 0.0
H4625 H 0.79398 0.19146 0.10197 0.0
H4626 H 0.66059 0.18124 0.10958 0.0
H4627 H 0.68651 0.22025 0.11743 0.0
H4628 H 0.68097 0.22116 0.10161 0.0
H4629 H 0.78641 0.1629 0.12004 0.0
H4630 H 0.76716 0.17554 0.13152 0.0
H4631 H 0.74194 0.13614 0.1238 0.0
H4632 H 0.69225 0.18925 0.15493 0.0
H4633 H 0.63298 0.09535 0.13575 0.0
H4634 H 0.73201 0.24224 0.13228 0.0
H4635 H 0.76163 0.22738 0.13427 0.0
H4636 H 0.74251 0.23519 0.14704 0.0
H4637 H 0.66128 0.12694 0.10744 0.0
H4638 H 0.64401 0.08821 0.11604 0.0
H4639 H 0.68882 0.11172 0.11237 0.0
C4640 C 0.97551 0.53622 0.13281 0.0
C4641 C 0.95313 0.51866 0.14217 0.0
C4642 C 0.96363 0.54371 0.12238 0.0
C4643 C 0.92858 0.53343 0.12134 0.0
C4644 C 0.90552 0.51377 0.13043 0.0
C4645 C 0.91807 0.50648 0.14072 0.0
C4646 C 0.98893 0.56443 0.11281 0.0
C4647 C 0.86793 0.50222 0.12963 0.0
C4648 C 0.90713 0.59034 0.10304 0.0
C4649 C 0.89527 0.57178 0.09244 0.0
C4650 C 0.91782 0.57795 0.11252 0.0
C4651 C 0.91676 0.54627 0.11136 0.0
C4652 C 0.90484 0.52735 0.10069 0.0
C4653 C 0.89419 0.54034 0.09135 0.0
C4654 C 0.93044 0.59889 0.12376 0.0
C4655 C 0.90335 0.49347 0.09917 0.0
H4656 H 1.00261 0.54548 0.1338 0.0
H4657 H 0.9005 0.49234 0.14782 0.0
H4658 H 0.97941 0.55251 0.10399 0.0
H4659 H 0.99205 0.59035 0.11251 0.0
H4660 H 1.01441 0.56706 0.11436 0.0
H4661 H 0.85291 0.48405 0.13682 0.0
H4662 H 0.86442 0.52475 0.13029 0.0
H4663 H 0.85739 0.48985 0.12094 0.0
H4664 H 0.90849 0.61487 0.10387 0.0
H4665 H 0.88465 0.5257 0.08322 0.0
H4666 H 0.95729 0.60576 0.12551 0.0
H4667 H 0.91495 0.58366 0.13144 0.0
H4668 H 0.9292 0.62277 0.12328 0.0
H4669 H 0.92922 0.49683 0.10033 0.0
H4670 H 0.8934 0.48194 0.09031 0.0
H4671 H 0.88675 0.47533 0.1061 0.0
C4672 C 0.5555 0.43733 0.13596 0.0
C4673 C 0.53865 0.4548 0.13941 0.0
C4674 C 0.54934 0.42155 0.12484 0.0
C4675 C 0.52581 0.42339 0.11702 0.0
C4676 C 0.51008 0.44251 0.12019 0.0
C4677 C 0.51673 0.45807 0.13137 0.0
C4678 C 0.56667 0.4014 0.12173 0.0
C4679 C 0.48493 0.44506 0.11204 0.0
C4680 C 0.52766 0.39387 0.0858 0.0
C4681 C 0.5024 0.35932 0.0865 0.0
C4682 C 0.53441 0.41577 0.09549 0.0
C4683 C 0.51548 0.40259 0.10607 0.0
C4684 C 0.48861 0.36825 0.10656 0.0
C4685 C 0.48235 0.34701 0.09674 0.0
C4686 C 0.56303 0.45238 0.09465 0.0
C4687 C 0.46774 0.35339 0.1177 0.0
H4688 H 0.57271 0.43498 0.14208 0.0
H4689 H 0.50373 0.47171 0.13396 0.0
H4690 H 0.54729 0.37384 0.12113 0.0
H4691 H 0.57923 0.40936 0.11294 0.0
H4692 H 0.58615 0.40464 0.12842 0.0
H4693 H 0.47847 0.46446 0.11514 0.0
H4694 H 0.49529 0.45164 0.1029 0.0
H4695 H 0.46101 0.41996 0.11161 0.0
H4696 H 0.5433 0.40338 0.07789 0.0
H4697 H 0.46242 0.32041 0.09719 0.0
H4698 H 0.58482 0.45591 0.10022 0.0
H4699 H 0.55464 0.46997 0.09809 0.0
H4700 H 0.5722 0.45975 0.08539 0.0
H4701 H 0.48427 0.35255 0.12482 0.0
H4702 H 0.44599 0.3271 0.11628 0.0
H4703 H 0.45758 0.36975 0.12091 0.0
C4704 C 0.45847 0.93363 0.9006 0.0
C4705 C 0.47443 0.96704 0.89613 0.0
C4706 C 0.4443 0.92621 0.912 0.0
C4707 C 0.44655 0.95293 0.91919 0.0
C4708 C 0.46494 0.98708 0.91511 0.0
C4709 C 0.47855 0.99375 0.90358 0.0
C4710 C 0.42489 0.8894 0.91601 0.0
C4711 C 0.46857 1.01628 0.92266 0.0
C4712 C 0.37138 0.92281 0.94003 0.0
C4713 C 0.3844 0.91688 0.95049 0.0
C4714 C 0.39201 0.9364 0.92996 0.0
C4715 C 0.42652 0.94431 0.93036 0.0
C4716 C 0.44037 0.94028 0.94109 0.0
C4717 C 0.41909 0.92649 0.95103 0.0
C4718 C 0.37627 0.94034 0.91867 0.0
C4719 C 0.47715 0.94886 0.94191 0.0
H4720 H 0.45533 0.9128 0.89497 0.0
H4721 H 0.49105 1.01969 0.90023 0.0
H4722 H 0.43372 0.88675 0.92492 0.0
H4723 H 0.3973 0.88095 0.91672 0.0
H4724 H 0.42784 0.87204 0.90976 0.0
H4725 H 0.48758 1.0415 0.91895 0.0
H4726 H 0.44354 1.01514 0.92327 0.0
H4727 H 0.47637 1.01425 0.93183 0.0
H4728 H 0.34455 0.91519 0.93952 0.0
H4729 H 0.4294 0.92246 0.95916 0.0
H4730 H 0.37513 0.9219 0.91192 0.0
H4731 H 0.39225 0.96635 0.91496 0.0
H4732 H 0.35 0.93577 0.92009 0.0
H4733 H 0.48044 0.92954 0.93693 0.0
H4734 H 0.48529 0.94922 0.95124 0.0
H4735 H 0.49432 0.97408 0.93783 0.0
C4736 C 0.25191 0.49436 0.93006 0.0
C4737 C 0.2347 0.49547 0.94027 0.0
C4738 C 0.24269 0.50003 0.91876 0.0
C4739 C 0.21576 0.50721 0.91764 0.0
C4740 C 0.19873 0.50904 0.92791 0.0
C4741 C 0.20832 0.50304 0.9391 0.0
C4742 C 0.26144 0.49789 0.908 0.0
C4743 C 0.16993 0.51674 0.92706 0.0
C4744 C 0.20563 0.54746 0.88949 0.0
C4745 C 0.17853 0.51914 0.88387 0.0
C4746 C 0.21858 0.54391 0.90039 0.0
C4747 C 0.20427 0.51124 0.9057 0.0
C4748 C 0.17785 0.48239 0.89982 0.0
C4749 C 0.1652 0.48672 0.889 0.0
C4750 C 0.24659 0.57532 0.90643 0.0
C4751 C 0.16221 0.44707 0.90514 0.0
H4752 H 0.27278 0.48921 0.9309 0.0
H4753 H 0.19469 0.50363 0.94692 0.0
H4754 H 0.24332 0.47705 0.90207 0.0
H4755 H 0.27234 0.522 0.90287 0.0
H4756 H 0.28243 0.49301 0.91042 0.0
H4757 H 0.16046 0.51894 0.93593 0.0
H4758 H 0.1785 0.54095 0.92216 0.0
H4759 H 0.14832 0.49618 0.92201 0.0
H4760 H 0.21588 0.57266 0.88562 0.0
H4761 H 0.14435 0.46472 0.88467 0.0
H4762 H 0.26795 0.5712 0.90897 0.0
H4763 H 0.23656 0.58034 0.91471 0.0
H4764 H 0.25676 0.59835 0.9007 0.0
H4765 H 0.18242 0.44079 0.90721 0.0
H4766 H 0.14321 0.42708 0.89912 0.0
H4767 H 0.14931 0.44625 0.9136 0.0
C4768 C 0.64066 0.7261 0.89221 0.0
C4769 C 0.63119 0.69155 0.89139 0.0
C4770 C 0.64685 0.74238 0.90325 0.0
C4771 C 0.64325 0.72355 0.9137 0.0
C4772 C 0.63529 0.68913 0.91291 0.0
C4773 C 0.62946 0.67353 0.90173 0.0
C4774 C 0.6556 0.77926 0.90375 0.0
C4775 C 0.63115 0.66826 0.92388 0.0
C4776 C 0.67666 0.77374 0.94235 0.0
C4777 C 0.64709 0.77242 0.94678 0.0
C4778 C 0.67577 0.75728 0.93168 0.0
C4779 C 0.64451 0.73897 0.92543 0.0
C4780 C 0.61437 0.73661 0.93011 0.0
C4781 C 0.61607 0.75348 0.94072 0.0
C4782 C 0.70838 0.76041 0.9269 0.0
C4783 C 0.58045 0.71695 0.92377 0.0
H4784 H 0.64237 0.74026 0.88423 0.0
H4785 H 0.62224 0.64682 0.90117 0.0
H4786 H 0.6341 0.78088 0.90781 0.0
H4787 H 0.67843 0.79434 0.90942 0.0
H4788 H 0.66064 0.79116 0.89482 0.0
H4789 H 0.62847 0.64307 0.92172 0.0
H4790 H 0.65333 0.68225 0.92991 0.0
H4791 H 0.60804 0.66385 0.9288 0.0
H4792 H 0.70067 0.78855 0.94703 0.0
H4793 H 0.59311 0.75208 0.94426 0.0
H4794 H 0.7153 0.77491 0.91844 0.0
H4795 H 0.70471 0.73476 0.92491 0.0
H4796 H 0.73005 0.77364 0.93321 0.0
H4797 H 0.58187 0.72888 0.91504 0.0
H4798 H 0.55915 0.7162 0.92892 0.0
H4799 H 0.57443 0.69034 0.92207 0.0
C4800 C 0.30163 0.41905 0.46188 0.0
C4801 C 0.30919 0.44226 0.47123 0.0
C4802 C 0.31842 0.42996 0.45092 0.0
C4803 C 0.34344 0.46474 0.44938 0.0
C4804 C 0.34976 0.48853 0.45857 0.0
C4805 C 0.3324 0.47703 0.46935 0.0
C4806 C 0.31064 0.40401 0.44122 0.0
C4807 C 0.3763 0.52589 0.45729 0.0
C4808 C 0.42003 0.49281 0.42941 0.0
C4809 C 0.41281 0.50927 0.4203 0.0
C4810 C 0.39666 0.47641 0.43863 0.0
C4811 C 0.36525 0.47623 0.43862 0.0
C4812 C 0.35689 0.49082 0.42902 0.0
C4813 C 0.38094 0.50745 0.42 0.0
C4814 C 0.4066 0.46132 0.44877 0.0
C4815 C 0.32338 0.49053 0.4286 0.0
H4816 H 0.28363 0.39215 0.46324 0.0
H4817 H 0.33822 0.49524 0.47648 0.0
H4818 H 0.30717 0.41367 0.43259 0.0
H4819 H 0.33247 0.3995 0.44024 0.0
H4820 H 0.28733 0.37919 0.44317 0.0
H4821 H 0.37685 0.54131 0.46505 0.0
H4822 H 0.40198 0.52865 0.4563 0.0
H4823 H 0.3713 0.53661 0.44919 0.0
H4824 H 0.44474 0.49438 0.42968 0.0
H4825 H 0.3752 0.5198 0.41284 0.0
H4826 H 0.38586 0.4349 0.45064 0.0
H4827 H 0.41053 0.47666 0.45692 0.0
H4828 H 0.43046 0.46081 0.44691 0.0
H4829 H 0.30183 0.46474 0.43075 0.0
H4830 H 0.31868 0.49828 0.41976 0.0
H4831 H 0.32356 0.50848 0.43535 0.0
C4832 C 0.54743 0.90435 0.43879 0.0
C4833 C 0.55557 0.89908 0.42726 0.0
C4834 C 0.55895 0.89444 0.44874 0.0
C4835 C 0.57876 0.87853 0.4471 0.0
C4836 C 0.58537 0.8713 0.43551 0.0
C4837 C 0.57384 0.88183 0.42571 0.0
C4838 C 0.55143 0.90264 0.46098 0.0
C4839 C 0.60617 0.85408 0.43343 0.0
C4840 C 0.64376 0.89457 0.47105 0.0
C4841 C 0.62695 0.86454 0.47778 0.0
C4842 C 0.6284 0.8992 0.46099 0.0
C4843 C 0.5956 0.87293 0.45746 0.0
C4844 C 0.57879 0.84216 0.46402 0.0
C4845 C 0.59461 0.8384 0.47418 0.0
C4846 C 0.64702 0.93257 0.45431 0.0
C4847 C 0.54398 0.81349 0.4604 0.0
H4848 H 0.53267 0.91699 0.44004 0.0
H4849 H 0.58046 0.87786 0.41684 0.0
H4850 H 0.54051 0.8796 0.46668 0.0
H4851 H 0.57557 0.9222 0.46521 0.0
H4852 H 0.53336 0.91252 0.46075 0.0
H4853 H 0.60534 0.84641 0.42402 0.0
H4854 H 0.63319 0.87182 0.4359 0.0
H4855 H 0.5968 0.83109 0.43911 0.0
H4856 H 0.66871 0.91497 0.47379 0.0
H4857 H 0.58159 0.81505 0.47931 0.0
H4858 H 0.63174 0.94558 0.45447 0.0
H4859 H 0.65022 0.92772 0.44488 0.0
H4860 H 0.67263 0.95015 0.45812 0.0
H4861 H 0.525 0.82213 0.46101 0.0
H4862 H 0.53523 0.79049 0.46606 0.0
H4863 H 0.54444 0.80623 0.45103 0.0
C4864 C 0.16269 0.74433 0.47561 0.0
C4865 C 0.16991 0.73151 0.48586 0.0
C4866 C 0.15775 0.72786 0.46464 0.0
C4867 C 0.16025 0.69797 0.46391 0.0
C4868 C 0.16529 0.68365 0.47435 0.0
C4869 C 0.16997 0.70057 0.48523 0.0
C4870 C 0.15209 0.74372 0.45371 0.0
C4871 C 0.16805 0.65175 0.47393 0.0
C4872 C 0.13394 0.64597 0.43541 0.0
C4873 C 0.16564 0.65818 0.4298 0.0
C4874 C 0.13164 0.65865 0.44654 0.0
C4875 C 0.16174 0.68416 0.45212 0.0
C4876 C 0.19372 0.69684 0.44642 0.0
C4877 C 0.19526 0.68371 0.43533 0.0
C4878 C 0.09716 0.64453 0.45239 0.0
C4879 C 0.2264 0.72421 0.45206 0.0
H4880 H 0.16221 0.76802 0.47604 0.0
H4881 H 0.17543 0.6904 0.49311 0.0
H4882 H 0.17529 0.75465 0.44807 0.0
H4883 H 0.13059 0.7241 0.44836 0.0
H4884 H 0.1466 0.7644 0.45597 0.0
H4885 H 0.14672 0.63151 0.46869 0.0
H4886 H 0.19221 0.65752 0.46946 0.0
H4887 H 0.16787 0.64168 0.48294 0.0
H4888 H 0.11104 0.62596 0.43121 0.0
H4889 H 0.21973 0.69352 0.43094 0.0
H4890 H 0.09196 0.66553 0.45438 0.0
H4891 H 0.09705 0.63246 0.46097 0.0
H4892 H 0.07613 0.62527 0.44676 0.0
H4893 H 0.22466 0.74747 0.4537 0.0
H4894 H 0.24916 0.73127 0.44643 0.0
H4895 H 0.23028 0.71526 0.46077 0.0
loop_
_geom_bond_atom_site_label_1
_geom_bond_atom_site_label_2
_geom_bond_distance
_geom_bond_site_symmetry_2
_ccdc_geom_bond_type
Nd0 C2 2.836 . S
Nd0 O20 2.500 . S
Nd0 O21 2.492 . S
Nd0 O22 2.487 . S
Nd0 O23 2.682 . S
Nd0 O24 2.410 . S
Nd0 O29 2.414 . S
Nd0 O31 2.424 . S
Nd1 C11 2.836 . S
Nd1 O23 2.414 . S
Nd1 O25 2.424 . S
Nd1 O26 2.500 . S
Nd1 O27 2.492 . S
Nd1 O28 2.487 . S
Nd1 O29 2.682 . S
Nd1 O30 2.410 . S
C2 Nd0 2.836 . S
C2 C3 1.498 . S
C2 O20 1.258 . S
C2 O21 1.239 . S
C3 C2 1.498 . S
C3 C4 1.366 . S
C3 C8 1.407 . S
C4 C3 1.366 . S
C4 C5 1.392 . S
C4 H32 0.930 . S
C5 C4 1.392 . S
C5 C6 1.398 . S
C5 H33 0.929 . S
C6 C5 1.398 . S
C6 C7 1.352 . S
C7 C6 1.352 . S
C7 C8 1.384 . S
C7 H34 0.930 . S
C8 C3 1.407 . S
C8 C7 1.384 . S
C8 H35 0.929 . S
C9 O22 1.241 . S
C9 O23 1.273 . S
C10 O24 1.251 . S
C10 O25 1.268 . S
C11 Nd1 2.836 . S
C11 C12 1.498 . S
C11 O26 1.258 . S
C11 O27 1.239 . S
C12 C11 1.498 . S
C12 C13 1.366 . S
C12 C17 1.407 1_455 S
C13 C12 1.366 . S
C13 C14 1.392 1_455 S
C13 H36 0.930 . S
C14 C13 1.392 1_655 S
C14 C15 1.398 . S
C14 H37 0.929 . S
C15 C14 1.398 . S
C15 C16 1.352 . S
C16 C15 1.352 . S
C16 C17 1.384 . S
C16 H38 0.930 . S
C17 C12 1.407 1_655 S
C17 C16 1.384 . S
C17 H39 0.929 . S
C18 O28 1.241 . S
C18 O29 1.273 . S
C19 O30 1.251 . S
C19 O31 1.268 . S
O20 Nd0 2.500 . S
O20 C2 1.258 . S
O21 Nd0 2.492 . S
O21 C2 1.239 . S
O22 Nd0 2.487 . S
O22 C9 1.241 . S
O23 Nd0 2.682 . S
O23 Nd1 2.414 . S
O23 C9 1.273 . S
O24 Nd0 2.410 . S
O24 C10 1.251 . S
O25 Nd1 2.424 . S
O25 C10 1.268 . S
O26 Nd1 2.500 . S
O26 C11 1.258 . S
O27 Nd1 2.492 . S
O27 C11 1.239 . S
O28 Nd1 2.487 . S
O28 C18 1.241 . S
O29 Nd0 2.414 . S
O29 Nd1 2.682 . S
O29 C18 1.273 . S
O30 Nd1 2.410 . S
O30 C19 1.251 . S
O31 Nd0 2.424 . S
O31 C19 1.268 . S
H32 C4 0.930 . S
H33 C5 0.929 . S
H34 C7 0.930 . S
H35 C8 0.929 . S
H36 C13 0.930 . S
H37 C14 0.929 . S
H38 C16 0.930 . S
H39 C17 0.929 . S
Nd40 C42 2.836 . S
Nd40 O60 2.500 . S
Nd40 O61 2.492 . S
Nd40 O62 2.487 . S
Nd40 O63 2.682 . S
Nd40 O64 2.410 . S
Nd40 O69 2.414 . S
Nd40 O71 2.424 . S
Nd41 C51 2.836 . S
Nd41 O63 2.414 . S
Nd41 O65 2.424 . S
Nd41 O66 2.500 . S
Nd41 O67 2.492 . S
Nd41 O68 2.487 . S
Nd41 O69 2.682 . S
Nd41 O70 2.410 . S
C42 Nd40 2.836 . S
C42 C43 1.498 . S
C42 O60 1.258 . S
C42 O61 1.239 . S
C43 C42 1.498 . S
C43 C44 1.366 . S
C43 C48 1.407 . S
C44 C43 1.366 . S
C44 C45 1.392 . S
C44 H72 0.930 . S
C45 C44 1.392 . S
C45 C46 1.398 . S
C45 H73 0.929 . S
C46 C45 1.398 . S
C46 C47 1.352 . S
C47 C46 1.352 . S
C47 C48 1.384 . S
C47 H74 0.930 . S
C48 C43 1.407 . S
C48 C47 1.384 . S
C48 H75 0.929 . S
C49 O62 1.241 . S
C49 O63 1.273 . S
C50 O64 1.251 . S
C50 O65 1.268 . S
C51 Nd41 2.836 . S
C51 C52 1.498 . S
C51 O66 1.258 . S
C51 O67 1.239 . S
C52 C51 1.498 . S
C52 C53 1.366 . S
C52 C57 1.407 . S
C53 C52 1.366 . S
C53 C54 1.392 . S
C53 H76 0.930 . S
C54 C53 1.392 . S
C54 C55 1.398 . S
C54 H77 0.929 . S
C55 C54 1.398 . S
C55 C56 1.352 . S
C56 C55 1.352 . S
C56 C57 1.384 . S
C56 H78 0.930 . S
C57 C52 1.407 . S
C57 C56 1.384 . S
C57 H79 0.929 . S
C58 O68 1.241 . S
C58 O69 1.273 . S
C59 O70 1.251 . S
C59 O71 1.268 . S
O60 Nd40 2.500 . S
O60 C42 1.258 . S
O61 Nd40 2.492 . S
O61 C42 1.239 . S
O62 Nd40 2.487 . S
O62 C49 1.241 . S
O63 Nd40 2.682 . S
O63 Nd41 2.414 . S
O63 C49 1.273 . S
O64 Nd40 2.410 . S
O64 C50 1.251 . S
O65 Nd41 2.424 . S
O65 C50 1.268 . S
O66 Nd41 2.500 . S
O66 C51 1.258 . S
O67 Nd41 2.492 . S
O67 C51 1.239 . S
O68 Nd41 2.487 . S
O68 C58 1.241 . S
O69 Nd40 2.414 . S
O69 Nd41 2.682 . S
O69 C58 1.273 . S
O70 Nd41 2.410 . S
O70 C59 1.251 . S
O71 Nd40 2.424 . S
O71 C59 1.268 . S
H72 C44 0.930 . S
H73 C45 0.929 . S
H74 C47 0.930 . S
H75 C48 0.929 . S
H76 C53 0.930 . S
H77 C54 0.929 . S
H78 C56 0.930 . S
H79 C57 0.929 . S
Nd80 C82 2.836 . S
Nd80 O100 2.500 . S
Nd80 O101 2.492 . S
Nd80 O102 2.487 . S
Nd80 O103 2.682 . S
Nd80 O104 2.410 . S
Nd80 O109 2.414 . S
Nd80 O111 2.424 . S
Nd81 C91 2.836 . S
Nd81 O103 2.414 . S
Nd81 O105 2.424 . S
Nd81 O106 2.500 . S
Nd81 O107 2.492 . S
Nd81 O108 2.487 . S
Nd81 O109 2.682 . S
Nd81 O110 2.410 . S
C82 Nd80 2.836 . S
C82 C83 1.498 . S
C82 O100 1.258 . S
C82 O101 1.239 . S
C83 C82 1.498 . S
C83 C84 1.366 . S
C83 C88 1.407 . S
C84 C83 1.366 . S
C84 C85 1.392 . S
C84 H112 0.930 . S
C85 C84 1.392 . S
C85 C86 1.398 . S
C85 H113 0.929 . S
C86 C85 1.398 . S
C86 C87 1.352 . S
C87 C86 1.352 . S
C87 C88 1.384 . S
C87 H114 0.930 . S
C88 C83 1.407 . S
C88 C87 1.384 . S
C88 H115 0.929 . S
C89 O102 1.241 . S
C89 O103 1.273 . S
C90 O104 1.251 . S
C90 O105 1.268 . S
C91 Nd81 2.836 . S
C91 C92 1.498 . S
C91 O106 1.258 . S
C91 O107 1.239 . S
C92 C91 1.498 . S
C92 C93 1.366 . S
C92 C97 1.407 1_565 S
C93 C92 1.366 . S
C93 C94 1.392 1_565 S
C93 H116 0.930 . S
C94 C93 1.392 1_545 S
C94 C95 1.398 . S
C94 H117 0.929 . S
C95 C94 1.398 . S
C95 C96 1.352 . S
C96 C95 1.352 . S
C96 C97 1.384 . S
C96 H118 0.930 . S
C97 C92 1.407 1_545 S
C97 C96 1.384 . S
C97 H119 0.929 . S
C98 O108 1.241 . S
C98 O109 1.273 . S
C99 O110 1.251 . S
C99 O111 1.268 . S
O100 Nd80 2.500 . S
O100 C82 1.258 . S
O101 Nd80 2.492 . S
O101 C82 1.239 . S
O102 Nd80 2.487 . S
O102 C89 1.241 . S
O103 Nd80 2.682 . S
O103 Nd81 2.414 . S
O103 C89 1.273 . S
O104 Nd80 2.410 . S
O104 C90 1.251 . S
O105 Nd81 2.424 . S
O105 C90 1.268 . S
O106 Nd81 2.500 . S
O106 C91 1.258 . S
O107 Nd81 2.492 . S
O107 C91 1.239 . S
O108 Nd81 2.487 . S
O108 C98 1.241 . S
O109 Nd80 2.414 . S
O109 Nd81 2.682 . S
O109 C98 1.273 . S
O110 Nd81 2.410 . S
O110 C99 1.251 . S
O111 Nd80 2.424 . S
O111 C99 1.268 . S
H112 C84 0.930 . S
H113 C85 0.929 . S
H114 C87 0.930 . S
H115 C88 0.929 . S
H116 C93 0.930 . S
H117 C94 0.929 . S
H118 C96 0.930 . S
H119 C97 0.929 . S
Nd120 C122 2.836 . S
Nd120 O140 2.500 . S
Nd120 O141 2.492 . S
Nd120 O142 2.487 . S
Nd120 O143 2.682 . S
Nd120 O144 2.410 . S
Nd120 O149 2.414 . S
Nd120 O151 2.424 . S
Nd121 C131 2.836 . S
Nd121 O143 2.414 . S
Nd121 O145 2.424 . S
Nd121 O146 2.500 . S
Nd121 O147 2.492 . S
Nd121 O148 2.487 . S
Nd121 O149 2.682 . S
Nd121 O150 2.410 . S
C122 Nd120 2.836 . S
C122 C123 1.498 . S
C122 O140 1.258 . S
C122 O141 1.239 . S
C123 C122 1.498 . S
C123 C124 1.366 . S
C123 C128 1.407 . S
C124 C123 1.366 . S
C124 C125 1.392 . S
C124 H152 0.930 . S
C125 C124 1.392 . S
C125 C126 1.398 . S
C125 H153 0.929 . S
C126 C125 1.398 . S
C126 C127 1.352 . S
C127 C126 1.352 . S
C127 C128 1.384 . S
C127 H154 0.930 . S
C128 C123 1.407 . S
C128 C127 1.384 . S
C128 H155 0.929 . S
C129 O142 1.241 . S
C129 O143 1.273 . S
C130 O144 1.251 . S
C130 O145 1.268 . S
C131 Nd121 2.836 . S
C131 C132 1.498 . S
C131 O146 1.258 . S
C131 O147 1.239 . S
C132 C131 1.498 . S
C132 C133 1.366 . S
C132 C137 1.407 . S
C133 C132 1.366 . S
C133 C134 1.392 . S
C133 H156 0.930 . S
C134 C133 1.392 . S
C134 C135 1.398 . S
C134 H157 0.929 . S
C135 C134 1.398 . S
C135 C136 1.352 . S
C136 C135 1.352 . S
C136 C137 1.384 . S
C136 H158 0.930 . S
C137 C132 1.407 . S
C137 C136 1.384 . S
C137 H159 0.929 . S
C138 O148 1.241 . S
C138 O149 1.273 . S
C139 O150 1.251 . S
C139 O151 1.268 . S
O140 Nd120 2.500 . S
O140 C122 1.258 . S
O141 Nd120 2.492 . S
O141 C122 1.239 . S
O142 Nd120 2.487 . S
O142 C129 1.241 . S
O143 Nd120 2.682 . S
O143 Nd121 2.414 . S
O143 C129 1.273 . S
O144 Nd120 2.410 . S
O144 C130 1.251 . S
O145 Nd121 2.424 . S
O145 C130 1.268 . S
O146 Nd121 2.500 . S
O146 C131 1.258 . S
O147 Nd121 2.492 . S
O147 C131 1.239 . S
O148 Nd121 2.487 . S
O148 C138 1.241 . S
O149 Nd120 2.414 . S
O149 Nd121 2.682 . S
O149 C138 1.273 . S
O150 Nd121 2.410 . S
O150 C139 1.251 . S
O151 Nd120 2.424 . S
O151 C139 1.268 . S
H152 C124 0.930 . S
H153 C125 0.929 . S
H154 C127 0.930 . S
H155 C128 0.929 . S
H156 C133 0.930 . S
H157 C134 0.929 . S
H158 C136 0.930 . S
H159 C137 0.929 . S
Nd160 C162 2.836 . S
Nd160 O180 2.500 . S
Nd160 O181 2.492 . S
Nd160 O182 2.487 . S
Nd160 O183 2.682 . S
Nd160 O184 2.410 . S
Nd160 O189 2.414 . S
Nd160 O191 2.424 . S
Nd161 C171 2.836 . S
Nd161 O183 2.414 . S
Nd161 O185 2.424 . S
Nd161 O186 2.500 . S
Nd161 O187 2.492 . S
Nd161 O188 2.487 . S
Nd161 O189 2.682 . S
Nd161 O190 2.410 . S
C162 Nd160 2.836 . S
C162 C163 1.498 . S
C162 O180 1.258 . S
C162 O181 1.239 . S
C163 C162 1.498 . S
C163 C164 1.366 . S
C163 C168 1.407 . S
C164 C163 1.366 . S
C164 C165 1.392 . S
C164 H192 0.930 . S
C165 C164 1.392 . S
C165 C166 1.398 . S
C165 H193 0.929 . S
C166 C165 1.398 . S
C166 C167 1.352 . S
C167 C166 1.352 . S
C167 C168 1.384 . S
C167 H194 0.930 . S
C168 C163 1.407 . S
C168 C167 1.384 . S
C168 H195 0.929 . S
C169 O182 1.241 . S
C169 O183 1.273 . S
C170 O184 1.251 . S
C170 O185 1.268 . S
C171 Nd161 2.836 . S
C171 C172 1.498 . S
C171 O186 1.258 . S
C171 O187 1.239 . S
C172 C171 1.498 . S
C172 C173 1.366 . S
C172 C177 1.407 . S
C173 C172 1.366 . S
C173 C174 1.392 . S
C173 H196 0.930 . S
C174 C173 1.392 . S
C174 C175 1.398 . S
C174 H197 0.929 . S
C175 C174 1.398 . S
C175 C176 1.352 . S
C176 C175 1.352 . S
C176 C177 1.384 . S
C176 H198 0.930 . S
C177 C172 1.407 . S
C177 C176 1.384 . S
C177 H199 0.929 . S
C178 O188 1.241 . S
C178 O189 1.273 . S
C179 O190 1.251 . S
C179 O191 1.268 . S
O180 Nd160 2.500 . S
O180 C162 1.258 . S
O181 Nd160 2.492 . S
O181 C162 1.239 . S
O182 Nd160 2.487 . S
O182 C169 1.241 . S
O183 Nd160 2.682 . S
O183 Nd161 2.414 . S
O183 C169 1.273 . S
O184 Nd160 2.410 . S
O184 C170 1.251 . S
O185 Nd161 2.424 . S
O185 C170 1.268 . S
O186 Nd161 2.500 . S
O186 C171 1.258 . S
O187 Nd161 2.492 . S
O187 C171 1.239 . S
O188 Nd161 2.487 . S
O188 C178 1.241 . S
O189 Nd160 2.414 . S
O189 Nd161 2.682 . S
O189 C178 1.273 . S
O190 Nd161 2.410 . S
O190 C179 1.251 . S
O191 Nd160 2.424 . S
O191 C179 1.268 . S
H192 C164 0.930 . S
H193 C165 0.929 . S
H194 C167 0.930 . S
H195 C168 0.929 . S
H196 C173 0.930 . S
H197 C174 0.929 . S
H198 C176 0.930 . S
H199 C177 0.929 . S
Nd200 C202 2.836 . S
Nd200 O220 2.500 . S
Nd200 O221 2.492 . S
Nd200 O222 2.487 . S
Nd200 O223 2.682 . S
Nd200 O224 2.410 . S
Nd200 O229 2.414 . S
Nd200 O231 2.424 . S
Nd201 C211 2.836 . S
Nd201 O223 2.414 . S
Nd201 O225 2.424 . S
Nd201 O226 2.500 . S
Nd201 O227 2.492 . S
Nd201 O228 2.487 . S
Nd201 O229 2.682 . S
Nd201 O230 2.410 . S
C202 Nd200 2.836 . S
C202 C203 1.498 . S
C202 O220 1.258 . S
C202 O221 1.239 . S
C203 C202 1.498 . S
C203 C204 1.366 . S
C203 C208 1.407 . S
C204 C203 1.366 . S
C204 C205 1.392 . S
C204 H232 0.930 . S
C205 C204 1.392 . S
C205 C206 1.398 . S
C205 H233 0.929 . S
C206 C205 1.398 . S
C206 C207 1.352 . S
C207 C206 1.352 . S
C207 C208 1.384 . S
C207 H234 0.930 . S
C208 C203 1.407 . S
C208 C207 1.384 . S
C208 H235 0.929 . S
C209 O222 1.241 . S
C209 O223 1.273 . S
C210 O224 1.251 . S
C210 O225 1.268 . S
C211 Nd201 2.836 . S
C211 C212 1.498 . S
C211 O226 1.258 . S
C211 O227 1.239 . S
C212 C211 1.498 . S
C212 C213 1.366 . S
C212 C217 1.407 . S
C213 C212 1.366 . S
C213 C214 1.392 . S
C213 H236 0.930 . S
C214 C213 1.392 . S
C214 C215 1.398 . S
C214 H237 0.929 . S
C215 C214 1.398 . S
C215 C216 1.352 . S
C216 C215 1.352 . S
C216 C217 1.384 . S
C216 H238 0.930 . S
C217 C212 1.407 . S
C217 C216 1.384 . S
C217 H239 0.929 . S
C218 O228 1.241 . S
C218 O229 1.273 . S
C219 O230 1.251 . S
C219 O231 1.268 . S
O220 Nd200 2.500 . S
O220 C202 1.258 . S
O221 Nd200 2.492 . S
O221 C202 1.239 . S
O222 Nd200 2.487 . S
O222 C209 1.241 . S
O223 Nd200 2.682 . S
O223 Nd201 2.414 . S
O223 C209 1.273 . S
O224 Nd200 2.410 . S
O224 C210 1.251 . S
O225 Nd201 2.424 . S
O225 C210 1.268 . S
O226 Nd201 2.500 . S
O226 C211 1.258 . S
O227 Nd201 2.492 . S
O227 C211 1.239 . S
O228 Nd201 2.487 . S
O228 C218 1.241 . S
O229 Nd200 2.414 . S
O229 Nd201 2.682 . S
O229 C218 1.273 . S
O230 Nd201 2.410 . S
O230 C219 1.251 . S
O231 Nd200 2.424 . S
O231 C219 1.268 . S
H232 C204 0.930 . S
H233 C205 0.929 . S
H234 C207 0.930 . S
H235 C208 0.929 . S
H236 C213 0.930 . S
H237 C214 0.929 . S
H238 C216 0.930 . S
H239 C217 0.929 . S
Nd240 C242 2.836 . S
Nd240 O260 2.500 . S
Nd240 O261 2.492 . S
Nd240 O262 2.487 . S
Nd240 O263 2.682 . S
Nd240 O264 2.410 . S
Nd240 O269 2.414 . S
Nd240 O271 2.424 . S
Nd241 C251 2.836 . S
Nd241 O263 2.414 . S
Nd241 O265 2.424 . S
Nd241 O266 2.500 . S
Nd241 O267 2.492 . S
Nd241 O268 2.487 . S
Nd241 O269 2.682 . S
Nd241 O270 2.410 . S
C242 Nd240 2.836 . S
C242 C243 1.498 . S
C242 O260 1.258 . S
C242 O261 1.239 . S
C243 C242 1.498 . S
C243 C244 1.366 . S
C243 C248 1.407 1_655 S
C244 C243 1.366 . S
C244 C245 1.392 1_655 S
C244 H272 0.930 . S
C245 C244 1.392 1_455 S
C245 C246 1.398 . S
C245 H273 0.929 . S
C246 C245 1.398 . S
C246 C247 1.352 . S
C247 C246 1.352 . S
C247 C248 1.384 . S
C247 H274 0.930 . S
C248 C243 1.407 1_455 S
C248 C247 1.384 . S
C248 H275 0.929 . S
C249 O262 1.241 . S
C249 O263 1.273 . S
C250 O264 1.251 . S
C250 O265 1.268 . S
C251 Nd241 2.836 . S
C251 C252 1.498 . S
C251 O266 1.258 . S
C251 O267 1.239 . S
C252 C251 1.498 . S
C252 C253 1.366 . S
C252 C257 1.407 . S
C253 C252 1.366 . S
C253 C254 1.392 . S
C253 H276 0.930 . S
C254 C253 1.392 . S
C254 C255 1.398 . S
C254 H277 0.929 . S
C255 C254 1.398 . S
C255 C256 1.352 . S
C256 C255 1.352 . S
C256 C257 1.384 . S
C256 H278 0.930 . S
C257 C252 1.407 . S
C257 C256 1.384 . S
C257 H279 0.929 . S
C258 O268 1.241 . S
C258 O269 1.273 . S
C259 O270 1.251 . S
C259 O271 1.268 . S
O260 Nd240 2.500 . S
O260 C242 1.258 . S
O261 Nd240 2.492 . S
O261 C242 1.239 . S
O262 Nd240 2.487 . S
O262 C249 1.241 . S
O263 Nd240 2.682 . S
O263 Nd241 2.414 . S
O263 C249 1.273 . S
O264 Nd240 2.410 . S
O264 C250 1.251 . S
O265 Nd241 2.424 . S
O265 C250 1.268 . S
O266 Nd241 2.500 . S
O266 C251 1.258 . S
O267 Nd241 2.492 . S
O267 C251 1.239 . S
O268 Nd241 2.487 . S
O268 C258 1.241 . S
O269 Nd240 2.414 . S
O269 Nd241 2.682 . S
O269 C258 1.273 . S
O270 Nd241 2.410 . S
O270 C259 1.251 . S
O271 Nd240 2.424 . S
O271 C259 1.268 . S
H272 C244 0.930 . S
H273 C245 0.929 . S
H274 C247 0.930 . S
H275 C248 0.929 . S
H276 C253 0.930 . S
H277 C254 0.929 . S
H278 C256 0.930 . S
H279 C257 0.929 . S
Nd280 C282 2.836 . S
Nd280 O300 2.500 . S
Nd280 O301 2.492 . S
Nd280 O302 2.487 . S
Nd280 O303 2.682 . S
Nd280 O304 2.410 . S
Nd280 O309 2.414 . S
Nd280 O311 2.424 . S
Nd281 C291 2.836 . S
Nd281 O303 2.414 . S
Nd281 O305 2.424 . S
Nd281 O306 2.500 . S
Nd281 O307 2.492 . S
Nd281 O308 2.487 . S
Nd281 O309 2.682 . S
Nd281 O310 2.410 . S
C282 Nd280 2.836 . S
C282 C283 1.498 . S
C282 O300 1.258 . S
C282 O301 1.239 . S
C283 C282 1.498 . S
C283 C284 1.366 . S
C283 C288 1.407 . S
C284 C283 1.366 . S
C284 C285 1.392 . S
C284 H312 0.930 . S
C285 C284 1.392 . S
C285 C286 1.398 . S
C285 H313 0.929 . S
C286 C285 1.398 . S
C286 C287 1.352 . S
C287 C286 1.352 . S
C287 C288 1.384 . S
C287 H314 0.930 . S
C288 C283 1.407 . S
C288 C287 1.384 . S
C288 H315 0.929 . S
C289 O302 1.241 . S
C289 O303 1.273 . S
C290 O304 1.251 . S
C290 O305 1.268 . S
C291 Nd281 2.836 . S
C291 C292 1.498 . S
C291 O306 1.258 . S
C291 O307 1.239 . S
C292 C291 1.498 . S
C292 C293 1.366 . S
C292 C297 1.407 . S
C293 C292 1.366 . S
C293 C294 1.392 . S
C293 H316 0.930 . S
C294 C293 1.392 . S
C294 C295 1.398 . S
C294 H317 0.929 . S
C295 C294 1.398 . S
C295 C296 1.352 . S
C296 C295 1.352 . S
C296 C297 1.384 . S
C296 H318 0.930 . S
C297 C292 1.407 . S
C297 C296 1.384 . S
C297 H319 0.929 . S
C298 O308 1.241 . S
C298 O309 1.273 . S
C299 O310 1.251 . S
C299 O311 1.268 . S
O300 Nd280 2.500 . S
O300 C282 1.258 . S
O301 Nd280 2.492 . S
O301 C282 1.239 . S
O302 Nd280 2.487 . S
O302 C289 1.241 . S
O303 Nd280 2.682 . S
O303 Nd281 2.414 . S
O303 C289 1.273 . S
O304 Nd280 2.410 . S
O304 C290 1.251 . S
O305 Nd281 2.424 . S
O305 C290 1.268 . S
O306 Nd281 2.500 . S
O306 C291 1.258 . S
O307 Nd281 2.492 . S
O307 C291 1.239 . S
O308 Nd281 2.487 . S
O308 C298 1.241 . S
O309 Nd280 2.414 . S
O309 Nd281 2.682 . S
O309 C298 1.273 . S
O310 Nd281 2.410 . S
O310 C299 1.251 . S
O311 Nd280 2.424 . S
O311 C299 1.268 . S
H312 C284 0.930 . S
H313 C285 0.929 . S
H314 C287 0.930 . S
H315 C288 0.929 . S
H316 C293 0.930 . S
H317 C294 0.929 . S
H318 C296 0.930 . S
H319 C297 0.929 . S
Nd320 C322 2.836 . S
Nd320 O340 2.500 . S
Nd320 O341 2.492 . S
Nd320 O342 2.487 . S
Nd320 O343 2.682 . S
Nd320 O344 2.410 . S
Nd320 O349 2.414 . S
Nd320 O351 2.424 . S
Nd321 C331 2.836 . S
Nd321 O343 2.414 . S
Nd321 O345 2.424 . S
Nd321 O346 2.500 . S
Nd321 O347 2.492 . S
Nd321 O348 2.487 . S
Nd321 O349 2.682 . S
Nd321 O350 2.410 . S
C322 Nd320 2.836 . S
C322 C323 1.498 . S
C322 O340 1.258 . S
C322 O341 1.239 . S
C323 C322 1.498 . S
C323 C324 1.366 . S
C323 C328 1.407 1_545 S
C324 C323 1.366 . S
C324 C325 1.392 1_545 S
C324 H352 0.930 . S
C325 C324 1.392 1_565 S
C325 C326 1.398 . S
C325 H353 0.929 . S
C326 C325 1.398 . S
C326 C327 1.352 . S
C327 C326 1.352 . S
C327 C328 1.384 . S
C327 H354 0.930 . S
C328 C323 1.407 1_565 S
C328 C327 1.384 . S
C328 H355 0.929 . S
C329 O342 1.241 . S
C329 O343 1.273 . S
C330 O344 1.251 . S
C330 O345 1.268 . S
C331 Nd321 2.836 . S
C331 C332 1.498 . S
C331 O346 1.258 . S
C331 O347 1.239 . S
C332 C331 1.498 . S
C332 C333 1.366 . S
C332 C337 1.407 . S
C333 C332 1.366 . S
C333 C334 1.392 . S
C333 H356 0.930 . S
C334 C333 1.392 . S
C334 C335 1.398 . S
C334 H357 0.929 . S
C335 C334 1.398 . S
C335 C336 1.352 . S
C336 C335 1.352 . S
C336 C337 1.384 . S
C336 H358 0.930 . S
C337 C332 1.407 . S
C337 C336 1.384 . S
C337 H359 0.929 . S
C338 O348 1.241 . S
C338 O349 1.273 . S
C339 O350 1.251 . S
C339 O351 1.268 . S
O340 Nd320 2.500 . S
O340 C322 1.258 . S
O341 Nd320 2.492 . S
O341 C322 1.239 . S
O342 Nd320 2.487 . S
O342 C329 1.241 . S
O343 Nd320 2.682 . S
O343 Nd321 2.414 . S
O343 C329 1.273 . S
O344 Nd320 2.410 . S
O344 C330 1.251 . S
O345 Nd321 2.424 . S
O345 C330 1.268 . S
O346 Nd321 2.500 . S
O346 C331 1.258 . S
O347 Nd321 2.492 . S
O347 C331 1.239 . S
O348 Nd321 2.487 . S
O348 C338 1.241 . S
O349 Nd320 2.414 . S
O349 Nd321 2.682 . S
O349 C338 1.273 . S
O350 Nd321 2.410 . S
O350 C339 1.251 . S
O351 Nd320 2.424 . S
O351 C339 1.268 . S
H352 C324 0.930 . S
H353 C325 0.929 . S
H354 C327 0.930 . S
H355 C328 0.929 . S
H356 C333 0.930 . S
H357 C334 0.929 . S
H358 C336 0.930 . S
H359 C337 0.929 . S
Nd360 C362 2.836 . S
Nd360 O380 2.500 . S
Nd360 O381 2.492 . S
Nd360 O382 2.487 . S
Nd360 O383 2.682 . S
Nd360 O384 2.410 . S
Nd360 O389 2.414 . S
Nd360 O391 2.424 . S
Nd361 C371 2.836 . S
Nd361 O383 2.414 . S
Nd361 O385 2.424 . S
Nd361 O386 2.500 . S
Nd361 O387 2.492 . S
Nd361 O388 2.487 . S
Nd361 O389 2.682 . S
Nd361 O390 2.410 . S
C362 Nd360 2.836 . S
C362 C363 1.498 . S
C362 O380 1.258 . S
C362 O381 1.239 . S
C363 C362 1.498 . S
C363 C364 1.366 . S
C363 C368 1.407 . S
C364 C363 1.366 . S
C364 C365 1.392 . S
C364 H392 0.930 . S
C365 C364 1.392 . S
C365 C366 1.398 . S
C365 H393 0.929 . S
C366 C365 1.398 . S
C366 C367 1.352 . S
C367 C366 1.352 . S
C367 C368 1.384 . S
C367 H394 0.930 . S
C368 C363 1.407 . S
C368 C367 1.384 . S
C368 H395 0.929 . S
C369 O382 1.241 . S
C369 O383 1.273 . S
C370 O384 1.251 . S
C370 O385 1.268 . S
C371 Nd361 2.836 . S
C371 C372 1.498 . S
C371 O386 1.258 . S
C371 O387 1.239 . S
C372 C371 1.498 . S
C372 C373 1.366 . S
C372 C377 1.407 . S
C373 C372 1.366 . S
C373 C374 1.392 . S
C373 H396 0.930 . S
C374 C373 1.392 . S
C374 C375 1.398 . S
C374 H397 0.929 . S
C375 C374 1.398 . S
C375 C376 1.352 . S
C376 C375 1.352 . S
C376 C377 1.384 . S
C376 H398 0.930 . S
C377 C372 1.407 . S
C377 C376 1.384 . S
C377 H399 0.929 . S
C378 O388 1.241 . S
C378 O389 1.273 . S
C379 O390 1.251 . S
C379 O391 1.268 . S
O380 Nd360 2.500 . S
O380 C362 1.258 . S
O381 Nd360 2.492 . S
O381 C362 1.239 . S
O382 Nd360 2.487 . S
O382 C369 1.241 . S
O383 Nd360 2.682 . S
O383 Nd361 2.414 . S
O383 C369 1.273 . S
O384 Nd360 2.410 . S
O384 C370 1.251 . S
O385 Nd361 2.424 . S
O385 C370 1.268 . S
O386 Nd361 2.500 . S
O386 C371 1.258 . S
O387 Nd361 2.492 . S
O387 C371 1.239 . S
O388 Nd361 2.487 . S
O388 C378 1.241 . S
O389 Nd360 2.414 . S
O389 Nd361 2.682 . S
O389 C378 1.273 . S
O390 Nd361 2.410 . S
O390 C379 1.251 . S
O391 Nd360 2.424 . S
O391 C379 1.268 . S
H392 C364 0.930 . S
H393 C365 0.929 . S
H394 C367 0.930 . S
H395 C368 0.929 . S
H396 C373 0.930 . S
H397 C374 0.929 . S
H398 C376 0.930 . S
H399 C377 0.929 . S
Nd400 C402 2.836 . S
Nd400 O420 2.500 . S
Nd400 O421 2.492 . S
Nd400 O422 2.487 . S
Nd400 O423 2.682 . S
Nd400 O424 2.410 . S
Nd400 O429 2.414 . S
Nd400 O431 2.424 . S
Nd401 C411 2.836 . S
Nd401 O423 2.414 . S
Nd401 O425 2.424 . S
Nd401 O426 2.500 . S
Nd401 O427 2.492 . S
Nd401 O428 2.487 . S
Nd401 O429 2.682 . S
Nd401 O430 2.410 . S
C402 Nd400 2.836 . S
C402 C403 1.498 . S
C402 O420 1.258 . S
C402 O421 1.239 . S
C403 C402 1.498 . S
C403 C404 1.366 . S
C403 C408 1.407 . S
C404 C403 1.366 . S
C404 C405 1.392 . S
C404 H432 0.930 . S
C405 C404 1.392 . S
C405 C406 1.398 . S
C405 H433 0.929 . S
C406 C405 1.398 . S
C406 C407 1.352 . S
C407 C406 1.352 . S
C407 C408 1.384 . S
C407 H434 0.930 . S
C408 C403 1.407 . S
C408 C407 1.384 . S
C408 H435 0.929 . S
C409 O422 1.241 . S
C409 O423 1.273 . S
C410 O424 1.251 . S
C410 O425 1.268 . S
C411 Nd401 2.836 . S
C411 C412 1.498 . S
C411 O426 1.258 . S
C411 O427 1.239 . S
C412 C411 1.498 . S
C412 C413 1.366 . S
C412 C417 1.407 . S
C413 C412 1.366 . S
C413 C414 1.392 . S
C413 H436 0.930 . S
C414 C413 1.392 . S
C414 C415 1.398 . S
C414 H437 0.929 . S
C415 C414 1.398 . S
C415 C416 1.352 . S
C416 C415 1.352 . S
C416 C417 1.384 . S
C416 H438 0.930 . S
C417 C412 1.407 . S
C417 C416 1.384 . S
C417 H439 0.929 . S
C418 O428 1.241 . S
C418 O429 1.273 . S
C419 O430 1.251 . S
C419 O431 1.268 . S
O420 Nd400 2.500 . S
O420 C402 1.258 . S
O421 Nd400 2.492 . S
O421 C402 1.239 . S
O422 Nd400 2.487 . S
O422 C409 1.241 . S
O423 Nd400 2.682 . S
O423 Nd401 2.414 . S
O423 C409 1.273 . S
O424 Nd400 2.410 . S
O424 C410 1.251 . S
O425 Nd401 2.424 . S
O425 C410 1.268 . S
O426 Nd401 2.500 . S
O426 C411 1.258 . S
O427 Nd401 2.492 . S
O427 C411 1.239 . S
O428 Nd401 2.487 . S
O428 C418 1.241 . S
O429 Nd400 2.414 . S
O429 Nd401 2.682 . S
O429 C418 1.273 . S
O430 Nd401 2.410 . S
O430 C419 1.251 . S
O431 Nd400 2.424 . S
O431 C419 1.268 . S
H432 C404 0.930 . S
H433 C405 0.929 . S
H434 C407 0.930 . S
H435 C408 0.929 . S
H436 C413 0.930 . S
H437 C414 0.929 . S
H438 C416 0.930 . S
H439 C417 0.929 . S
Nd440 C442 2.836 . S
Nd440 O460 2.500 . S
Nd440 O461 2.492 . S
Nd440 O462 2.487 . S
Nd440 O463 2.682 . S
Nd440 O464 2.410 . S
Nd440 O469 2.414 . S
Nd440 O471 2.424 . S
Nd441 C451 2.836 . S
Nd441 O463 2.414 . S
Nd441 O465 2.424 . S
Nd441 O466 2.500 . S
Nd441 O467 2.492 . S
Nd441 O468 2.487 . S
Nd441 O469 2.682 . S
Nd441 O470 2.410 . S
C442 Nd440 2.836 . S
C442 C443 1.498 . S
C442 O460 1.258 . S
C442 O461 1.239 . S
C443 C442 1.498 . S
C443 C444 1.366 . S
C443 C448 1.407 . S
C444 C443 1.366 . S
C444 C445 1.392 . S
C444 H472 0.930 . S
C445 C444 1.392 . S
C445 C446 1.398 . S
C445 H473 0.929 . S
C446 C445 1.398 . S
C446 C447 1.352 . S
C447 C446 1.352 . S
C447 C448 1.384 . S
C447 H474 0.930 . S
C448 C443 1.407 . S
C448 C447 1.384 . S
C448 H475 0.929 . S
C449 O462 1.241 . S
C449 O463 1.273 . S
C450 O464 1.251 . S
C450 O465 1.268 . S
C451 Nd441 2.836 . S
C451 C452 1.498 . S
C451 O466 1.258 . S
C451 O467 1.239 . S
C452 C451 1.498 . S
C452 C453 1.366 . S
C452 C457 1.407 . S
C453 C452 1.366 . S
C453 C454 1.392 . S
C453 H476 0.930 . S
C454 C453 1.392 . S
C454 C455 1.398 . S
C454 H477 0.929 . S
C455 C454 1.398 . S
C455 C456 1.352 . S
C456 C455 1.352 . S
C456 C457 1.384 . S
C456 H478 0.930 . S
C457 C452 1.407 . S
C457 C456 1.384 . S
C457 H479 0.929 . S
C458 O468 1.241 . S
C458 O469 1.273 . S
C459 O470 1.251 . S
C459 O471 1.268 . S
O460 Nd440 2.500 . S
O460 C442 1.258 . S
O461 Nd440 2.492 . S
O461 C442 1.239 . S
O462 Nd440 2.487 . S
O462 C449 1.241 . S
O463 Nd440 2.682 . S
O463 Nd441 2.414 . S
O463 C449 1.273 . S
O464 Nd440 2.410 . S
O464 C450 1.251 . S
O465 Nd441 2.424 . S
O465 C450 1.268 . S
O466 Nd441 2.500 . S
O466 C451 1.258 . S
O467 Nd441 2.492 . S
O467 C451 1.239 . S
O468 Nd441 2.487 . S
O468 C458 1.241 . S
O469 Nd440 2.414 . S
O469 Nd441 2.682 . S
O469 C458 1.273 . S
O470 Nd441 2.410 . S
O470 C459 1.251 . S
O471 Nd440 2.424 . S
O471 C459 1.268 . S
H472 C444 0.930 . S
H473 C445 0.929 . S
H474 C447 0.930 . S
H475 C448 0.929 . S
H476 C453 0.930 . S
H477 C454 0.929 . S
H478 C456 0.930 . S
H479 C457 0.929 . S
Nd480 C482 2.836 . S
Nd480 O500 2.500 . S
Nd480 O501 2.492 . S
Nd480 O502 2.487 . S
Nd480 O503 2.682 . S
Nd480 O504 2.410 . S
Nd480 O509 2.414 . S
Nd480 O511 2.424 . S
Nd481 C491 2.836 . S
Nd481 O503 2.414 . S
Nd481 O505 2.424 . S
Nd481 O506 2.500 . S
Nd481 O507 2.492 . S
Nd481 O508 2.487 . S
Nd481 O509 2.682 . S
Nd481 O510 2.410 . S
C482 Nd480 2.836 . S
C482 C483 1.498 . S
C482 O500 1.258 . S
C482 O501 1.239 . S
C483 C482 1.498 . S
C483 C484 1.366 . S
C483 C488 1.407 . S
C484 C483 1.366 . S
C484 C485 1.392 . S
C484 H512 0.930 . S
C485 C484 1.392 . S
C485 C486 1.398 . S
C485 H513 0.929 . S
C486 C485 1.398 . S
C486 C487 1.352 . S
C487 C486 1.352 . S
C487 C488 1.384 . S
C487 H514 0.930 1_655 S
C488 C483 1.407 . S
C488 C487 1.384 . S
C488 H515 0.929 . S
C489 O502 1.241 . S
C489 O503 1.273 . S
C490 O504 1.251 . S
C490 O505 1.268 . S
C491 Nd481 2.836 . S
C491 C492 1.498 . S
C491 O506 1.258 . S
C491 O507 1.239 . S
C492 C491 1.498 . S
C492 C493 1.366 . S
C492 C497 1.407 . S
C493 C492 1.366 . S
C493 C494 1.392 . S
C493 H516 0.930 . S
C494 C493 1.392 . S
C494 C495 1.398 . S
C494 H517 0.929 . S
C495 C494 1.398 . S
C495 C496 1.352 . S
C496 C495 1.352 . S
C496 C497 1.384 . S
C496 H518 0.930 . S
C497 C492 1.407 . S
C497 C496 1.384 . S
C497 H519 0.929 . S
C498 O508 1.241 . S
C498 O509 1.273 . S
C499 O510 1.251 . S
C499 O511 1.268 . S
O500 Nd480 2.500 . S
O500 C482 1.258 . S
O501 Nd480 2.492 . S
O501 C482 1.239 . S
O502 Nd480 2.487 . S
O502 C489 1.241 . S
O503 Nd480 2.682 . S
O503 Nd481 2.414 . S
O503 C489 1.273 . S
O504 Nd480 2.410 . S
O504 C490 1.251 . S
O505 Nd481 2.424 . S
O505 C490 1.268 . S
O506 Nd481 2.500 . S
O506 C491 1.258 . S
O507 Nd481 2.492 . S
O507 C491 1.239 . S
O508 Nd481 2.487 . S
O508 C498 1.241 . S
O509 Nd480 2.414 . S
O509 Nd481 2.682 . S
O509 C498 1.273 . S
O510 Nd481 2.410 . S
O510 C499 1.251 . S
O511 Nd480 2.424 . S
O511 C499 1.268 . S
H512 C484 0.930 . S
H513 C485 0.929 . S
H514 C487 0.930 1_455 S
H515 C488 0.929 . S
H516 C493 0.930 . S
H517 C494 0.929 . S
H518 C496 0.930 . S
H519 C497 0.929 . S
Nd520 C522 2.836 . S
Nd520 O540 2.500 . S
Nd520 O541 2.492 . S
Nd520 O542 2.487 . S
Nd520 O543 2.682 . S
Nd520 O544 2.410 . S
Nd520 O549 2.414 . S
Nd520 O551 2.424 . S
Nd521 C531 2.836 . S
Nd521 O543 2.414 . S
Nd521 O545 2.424 . S
Nd521 O546 2.500 . S
Nd521 O547 2.492 . S
Nd521 O548 2.487 . S
Nd521 O549 2.682 . S
Nd521 O550 2.410 . S
C522 Nd520 2.836 . S
C522 C523 1.498 . S
C522 O540 1.258 . S
C522 O541 1.239 . S
C523 C522 1.498 . S
C523 C524 1.366 . S
C523 C528 1.407 . S
C524 C523 1.366 . S
C524 C525 1.392 . S
C524 H552 0.930 . S
C525 C524 1.392 . S
C525 C526 1.398 . S
C525 H553 0.929 . S
C526 C525 1.398 . S
C526 C527 1.352 . S
C527 C526 1.352 . S
C527 C528 1.384 . S
C527 H554 0.930 . S
C528 C523 1.407 . S
C528 C527 1.384 . S
C528 H555 0.929 . S
C529 O542 1.241 . S
C529 O543 1.273 . S
C530 O544 1.251 . S
C530 O545 1.268 . S
C531 Nd521 2.836 . S
C531 C532 1.498 . S
C531 O546 1.258 . S
C531 O547 1.239 . S
C532 C531 1.498 . S
C532 C533 1.366 . S
C532 C537 1.407 . S
C533 C532 1.366 . S
C533 C534 1.392 . S
C533 H556 0.930 . S
C534 C533 1.392 . S
C534 C535 1.398 . S
C534 H557 0.929 . S
C535 C534 1.398 . S
C535 C536 1.352 . S
C536 C535 1.352 . S
C536 C537 1.384 . S
C536 H558 0.930 . S
C537 C532 1.407 . S
C537 C536 1.384 . S
C537 H559 0.929 . S
C538 O548 1.241 . S
C538 O549 1.273 . S
C539 O550 1.251 . S
C539 O551 1.268 . S
O540 Nd520 2.500 . S
O540 C522 1.258 . S
O541 Nd520 2.492 . S
O541 C522 1.239 . S
O542 Nd520 2.487 . S
O542 C529 1.241 . S
O543 Nd520 2.682 . S
O543 Nd521 2.414 . S
O543 C529 1.273 . S
O544 Nd520 2.410 . S
O544 C530 1.251 . S
O545 Nd521 2.424 . S
O545 C530 1.268 . S
O546 Nd521 2.500 . S
O546 C531 1.258 . S
O547 Nd521 2.492 . S
O547 C531 1.239 . S
O548 Nd521 2.487 . S
O548 C538 1.241 . S
O549 Nd520 2.414 . S
O549 Nd521 2.682 . S
O549 C538 1.273 . S
O550 Nd521 2.410 . S
O550 C539 1.251 . S
O551 Nd520 2.424 . S
O551 C539 1.268 . S
H552 C524 0.930 . S
H553 C525 0.929 . S
H554 C527 0.930 . S
H555 C528 0.929 . S
H556 C533 0.930 . S
H557 C534 0.929 . S
H558 C536 0.930 . S
H559 C537 0.929 . S
Nd560 C562 2.836 . S
Nd560 O580 2.500 . S
Nd560 O581 2.492 . S
Nd560 O582 2.487 . S
Nd560 O583 2.682 . S
Nd560 O584 2.410 . S
Nd560 O589 2.414 . S
Nd560 O591 2.424 . S
Nd561 C571 2.836 . S
Nd561 O583 2.414 . S
Nd561 O585 2.424 . S
Nd561 O586 2.500 . S
Nd561 O587 2.492 . S
Nd561 O588 2.487 . S
Nd561 O589 2.682 . S
Nd561 O590 2.410 . S
C562 Nd560 2.836 . S
C562 C563 1.498 . S
C562 O580 1.258 . S
C562 O581 1.239 . S
C563 C562 1.498 . S
C563 C564 1.366 . S
C563 C568 1.407 . S
C564 C563 1.366 . S
C564 C565 1.392 . S
C564 H592 0.930 . S
C565 C564 1.392 . S
C565 C566 1.398 . S
C565 H593 0.929 . S
C566 C565 1.398 . S
C566 C567 1.352 . S
C567 C566 1.352 . S
C567 C568 1.384 . S
C567 H594 0.930 1_545 S
C568 C563 1.407 . S
C568 C567 1.384 . S
C568 H595 0.929 . S
C569 O582 1.241 . S
C569 O583 1.273 . S
C570 O584 1.251 . S
C570 O585 1.268 . S
C571 Nd561 2.836 . S
C571 C572 1.498 . S
C571 O586 1.258 . S
C571 O587 1.239 . S
C572 C571 1.498 . S
C572 C573 1.366 . S
C572 C577 1.407 . S
C573 C572 1.366 . S
C573 C574 1.392 . S
C573 H596 0.930 . S
C574 C573 1.392 . S
C574 C575 1.398 . S
C574 H597 0.929 . S
C575 C574 1.398 . S
C575 C576 1.352 . S
C576 C575 1.352 . S
C576 C577 1.384 . S
C576 H598 0.930 . S
C577 C572 1.407 . S
C577 C576 1.384 . S
C577 H599 0.929 . S
C578 O588 1.241 . S
C578 O589 1.273 . S
C579 O590 1.251 . S
C579 O591 1.268 . S
O580 Nd560 2.500 . S
O580 C562 1.258 . S
O581 Nd560 2.492 . S
O581 C562 1.239 . S
O582 Nd560 2.487 . S
O582 C569 1.241 . S
O583 Nd560 2.682 . S
O583 Nd561 2.414 . S
O583 C569 1.273 . S
O584 Nd560 2.410 . S
O584 C570 1.251 . S
O585 Nd561 2.424 . S
O585 C570 1.268 . S
O586 Nd561 2.500 . S
O586 C571 1.258 . S
O587 Nd561 2.492 . S
O587 C571 1.239 . S
O588 Nd561 2.487 . S
O588 C578 1.241 . S
O589 Nd560 2.414 . S
O589 Nd561 2.682 . S
O589 C578 1.273 . S
O590 Nd561 2.410 . S
O590 C579 1.251 . S
O591 Nd560 2.424 . S
O591 C579 1.268 . S
H592 C564 0.930 . S
H593 C565 0.929 . S
H594 C567 0.930 1_565 S
H595 C568 0.929 . S
H596 C573 0.930 . S
H597 C574 0.929 . S
H598 C576 0.930 . S
H599 C577 0.929 . S
Nd600 C602 2.836 . S
Nd600 O620 2.500 . S
Nd600 O621 2.492 . S
Nd600 O622 2.487 . S
Nd600 O623 2.682 . S
Nd600 O624 2.410 . S
Nd600 O629 2.414 . S
Nd600 O631 2.424 . S
Nd601 C611 2.836 . S
Nd601 O623 2.414 . S
Nd601 O625 2.424 . S
Nd601 O626 2.500 . S
Nd601 O627 2.492 . S
Nd601 O628 2.487 . S
Nd601 O629 2.682 . S
Nd601 O630 2.410 . S
C602 Nd600 2.836 . S
C602 C603 1.498 . S
C602 O620 1.258 . S
C602 O621 1.239 . S
C603 C602 1.498 . S
C603 C604 1.366 . S
C603 C608 1.407 . S
C604 C603 1.366 . S
C604 C605 1.392 . S
C604 H632 0.930 . S
C605 C604 1.392 . S
C605 C606 1.398 . S
C605 H633 0.929 . S
C606 C605 1.398 . S
C606 C607 1.352 . S
C607 C606 1.352 . S
C607 C608 1.384 . S
C607 H634 0.930 . S
C608 C603 1.407 . S
C608 C607 1.384 . S
C608 H635 0.929 . S
C609 O622 1.241 . S
C609 O623 1.273 . S
C610 O624 1.251 . S
C610 O625 1.268 . S
C611 Nd601 2.836 . S
C611 C612 1.498 . S
C611 O626 1.258 . S
C611 O627 1.239 . S
C612 C611 1.498 . S
C612 C613 1.366 . S
C612 C617 1.407 . S
C613 C612 1.366 . S
C613 C614 1.392 . S
C613 H636 0.930 . S
C614 C613 1.392 . S
C614 C615 1.398 . S
C614 H637 0.929 1_655 S
C615 C614 1.398 . S
C615 C616 1.352 . S
C616 C615 1.352 . S
C616 C617 1.384 . S
C616 H638 0.930 . S
C617 C612 1.407 . S
C617 C616 1.384 . S
C617 H639 0.929 . S
C618 O628 1.241 . S
C618 O629 1.273 . S
C619 O630 1.251 . S
C619 O631 1.268 . S
O620 Nd600 2.500 . S
O620 C602 1.258 . S
O621 Nd600 2.492 . S
O621 C602 1.239 . S
O622 Nd600 2.487 . S
O622 C609 1.241 . S
O623 Nd600 2.682 . S
O623 Nd601 2.414 . S
O623 C609 1.273 . S
O624 Nd600 2.410 . S
O624 C610 1.251 . S
O625 Nd601 2.424 . S
O625 C610 1.268 . S
O626 Nd601 2.500 . S
O626 C611 1.258 . S
O627 Nd601 2.492 . S
O627 C611 1.239 . S
O628 Nd601 2.487 . S
O628 C618 1.241 . S
O629 Nd600 2.414 . S
O629 Nd601 2.682 . S
O629 C618 1.273 . S
O630 Nd601 2.410 . S
O630 C619 1.251 . S
O631 Nd600 2.424 . S
O631 C619 1.268 . S
H632 C604 0.930 . S
H633 C605 0.929 . S
H634 C607 0.930 . S
H635 C608 0.929 . S
H636 C613 0.930 . S
H637 C614 0.929 1_455 S
H638 C616 0.930 . S
H639 C617 0.929 . S
Nd640 C642 2.836 . S
Nd640 O660 2.500 . S
Nd640 O661 2.492 . S
Nd640 O662 2.487 . S
Nd640 O663 2.682 . S
Nd640 O664 2.410 . S
Nd640 O669 2.414 . S
Nd640 O671 2.424 . S
Nd641 C651 2.836 . S
Nd641 O663 2.414 . S
Nd641 O665 2.424 . S
Nd641 O666 2.500 . S
Nd641 O667 2.492 . S
Nd641 O668 2.487 . S
Nd641 O669 2.682 . S
Nd641 O670 2.410 . S
C642 Nd640 2.836 . S
C642 C643 1.498 . S
C642 O660 1.258 . S
C642 O661 1.239 . S
C643 C642 1.498 . S
C643 C644 1.366 . S
C643 C648 1.407 . S
C644 C643 1.366 . S
C644 C645 1.392 . S
C644 H672 0.930 . S
C645 C644 1.392 . S
C645 C646 1.398 . S
C645 H673 0.929 . S
C646 C645 1.398 . S
C646 C647 1.352 . S
C647 C646 1.352 . S
C647 C648 1.384 . S
C647 H674 0.930 . S
C648 C643 1.407 . S
C648 C647 1.384 . S
C648 H675 0.929 . S
C649 O662 1.241 . S
C649 O663 1.273 . S
C650 O664 1.251 . S
C650 O665 1.268 . S
C651 Nd641 2.836 . S
C651 C652 1.498 . S
C651 O666 1.258 . S
C651 O667 1.239 . S
C652 C651 1.498 . S
C652 C653 1.366 . S
C652 C657 1.407 . S
C653 C652 1.366 . S
C653 C654 1.392 . S
C653 H676 0.930 . S
C654 C653 1.392 . S
C654 C655 1.398 . S
C654 H677 0.929 . S
C655 C654 1.398 . S
C655 C656 1.352 . S
C656 C655 1.352 . S
C656 C657 1.384 . S
C656 H678 0.930 . S
C657 C652 1.407 . S
C657 C656 1.384 . S
C657 H679 0.929 . S
C658 O668 1.241 . S
C658 O669 1.273 . S
C659 O670 1.251 . S
C659 O671 1.268 . S
O660 Nd640 2.500 . S
O660 C642 1.258 . S
O661 Nd640 2.492 . S
O661 C642 1.239 . S
O662 Nd640 2.487 . S
O662 C649 1.241 . S
O663 Nd640 2.682 . S
O663 Nd641 2.414 . S
O663 C649 1.273 . S
O664 Nd640 2.410 . S
O664 C650 1.251 . S
O665 Nd641 2.424 . S
O665 C650 1.268 . S
O666 Nd641 2.500 . S
O666 C651 1.258 . S
O667 Nd641 2.492 . S
O667 C651 1.239 . S
O668 Nd641 2.487 . S
O668 C658 1.241 . S
O669 Nd640 2.414 . S
O669 Nd641 2.682 . S
O669 C658 1.273 . S
O670 Nd641 2.410 . S
O670 C659 1.251 . S
O671 Nd640 2.424 . S
O671 C659 1.268 . S
H672 C644 0.930 . S
H673 C645 0.929 . S
H674 C647 0.930 . S
H675 C648 0.929 . S
H676 C653 0.930 . S
H677 C654 0.929 . S
H678 C656 0.930 . S
H679 C657 0.929 . S
Nd680 C682 2.836 . S
Nd680 O700 2.500 . S
Nd680 O701 2.492 . S
Nd680 O702 2.487 . S
Nd680 O703 2.682 . S
Nd680 O704 2.410 . S
Nd680 O709 2.414 . S
Nd680 O711 2.424 . S
Nd681 C691 2.836 . S
Nd681 O703 2.414 . S
Nd681 O705 2.424 . S
Nd681 O706 2.500 . S
Nd681 O707 2.492 . S
Nd681 O708 2.487 . S
Nd681 O709 2.682 . S
Nd681 O710 2.410 . S
C682 Nd680 2.836 . S
C682 C683 1.498 . S
C682 O700 1.258 . S
C682 O701 1.239 . S
C683 C682 1.498 . S
C683 C684 1.366 . S
C683 C688 1.407 . S
C684 C683 1.366 . S
C684 C685 1.392 . S
C684 H712 0.930 . S
C685 C684 1.392 . S
C685 C686 1.398 . S
C685 H713 0.929 . S
C686 C685 1.398 . S
C686 C687 1.352 . S
C687 C686 1.352 . S
C687 C688 1.384 . S
C687 H714 0.930 . S
C688 C683 1.407 . S
C688 C687 1.384 . S
C688 H715 0.929 . S
C689 O702 1.241 . S
C689 O703 1.273 . S
C690 O704 1.251 . S
C690 O705 1.268 . S
C691 Nd681 2.836 . S
C691 C692 1.498 . S
C691 O706 1.258 . S
C691 O707 1.239 . S
C692 C691 1.498 . S
C692 C693 1.366 . S
C692 C697 1.407 . S
C693 C692 1.366 . S
C693 C694 1.392 . S
C693 H716 0.930 . S
C694 C693 1.392 . S
C694 C695 1.398 . S
C694 H717 0.929 1_545 S
C695 C694 1.398 . S
C695 C696 1.352 . S
C696 C695 1.352 . S
C696 C697 1.384 . S
C696 H718 0.930 . S
C697 C692 1.407 . S
C697 C696 1.384 . S
C697 H719 0.929 . S
C698 O708 1.241 . S
C698 O709 1.273 . S
C699 O710 1.251 . S
C699 O711 1.268 . S
O700 Nd680 2.500 . S
O700 C682 1.258 . S
O701 Nd680 2.492 . S
O701 C682 1.239 . S
O702 Nd680 2.487 . S
O702 C689 1.241 . S
O703 Nd680 2.682 . S
O703 Nd681 2.414 . S
O703 C689 1.273 . S
O704 Nd680 2.410 . S
O704 C690 1.251 . S
O705 Nd681 2.424 . S
O705 C690 1.268 . S
O706 Nd681 2.500 . S
O706 C691 1.258 . S
O707 Nd681 2.492 . S
O707 C691 1.239 . S
O708 Nd681 2.487 . S
O708 C698 1.241 . S
O709 Nd680 2.414 . S
O709 Nd681 2.682 . S
O709 C698 1.273 . S
O710 Nd681 2.410 . S
O710 C699 1.251 . S
O711 Nd680 2.424 . S
O711 C699 1.268 . S
H712 C684 0.930 . S
H713 C685 0.929 . S
H714 C687 0.930 . S
H715 C688 0.929 . S
H716 C693 0.930 . S
H717 C694 0.929 1_565 S
H718 C696 0.930 . S
H719 C697 0.929 . S
Nd720 C722 2.836 . S
Nd720 O740 2.500 . S
Nd720 O741 2.492 . S
Nd720 O742 2.487 . S
Nd720 O743 2.682 . S
Nd720 O744 2.410 . S
Nd720 O749 2.414 . S
Nd720 O751 2.424 . S
Nd721 C731 2.836 1_545 S
Nd721 O743 2.414 . S
Nd721 O745 2.424 . S
Nd721 O746 2.500 1_545 S
Nd721 O747 2.492 . S
Nd721 O748 2.487 . S
Nd721 O749 2.682 . S
Nd721 O750 2.410 . S
C722 Nd720 2.836 . S
C722 C723 1.498 . S
C722 O740 1.258 . S
C722 O741 1.239 . S
C723 C722 1.498 . S
C723 C724 1.366 . S
C723 C728 1.407 . S
C724 C723 1.366 . S
C724 C725 1.392 . S
C724 H752 0.930 . S
C725 C724 1.392 . S
C725 C726 1.398 . S
C725 H753 0.929 . S
C726 C725 1.398 . S
C726 C727 1.352 . S
C727 C726 1.352 . S
C727 C728 1.384 . S
C727 H754 0.930 . S
C728 C723 1.407 . S
C728 C727 1.384 . S
C728 H755 0.929 . S
C729 O742 1.241 . S
C729 O743 1.273 . S
C730 O744 1.251 . S
C730 O745 1.268 . S
C731 Nd721 2.836 1_565 S
C731 C732 1.498 . S
C731 O746 1.258 . S
C731 O747 1.239 1_565 S
C732 C731 1.498 . S
C732 C733 1.366 . S
C732 C737 1.407 . S
C733 C732 1.366 . S
C733 C734 1.392 . S
C733 H756 0.930 . S
C734 C733 1.392 . S
C734 C735 1.398 . S
C734 H757 0.929 . S
C735 C734 1.398 . S
C735 C736 1.352 . S
C736 C735 1.352 . S
C736 C737 1.384 . S
C736 H758 0.930 . S
C737 C732 1.407 . S
C737 C736 1.384 . S
C737 H759 0.929 . S
C738 O748 1.241 . S
C738 O749 1.273 . S
C739 O750 1.251 . S
C739 O751 1.268 . S
O740 Nd720 2.500 . S
O740 C722 1.258 . S
O741 Nd720 2.492 . S
O741 C722 1.239 . S
O742 Nd720 2.487 . S
O742 C729 1.241 . S
O743 Nd720 2.682 . S
O743 Nd721 2.414 . S
O743 C729 1.273 . S
O744 Nd720 2.410 . S
O744 C730 1.251 . S
O745 Nd721 2.424 . S
O745 C730 1.268 . S
O746 Nd721 2.500 1_565 S
O746 C731 1.258 . S
O747 Nd721 2.492 . S
O747 C731 1.239 1_545 S
O748 Nd721 2.487 . S
O748 C738 1.241 . S
O749 Nd720 2.414 . S
O749 Nd721 2.682 . S
O749 C738 1.273 . S
O750 Nd721 2.410 . S
O750 C739 1.251 . S
O751 Nd720 2.424 . S
O751 C739 1.268 . S
H752 C724 0.930 . S
H753 C725 0.929 . S
H754 C727 0.930 . S
H755 C728 0.929 . S
H756 C733 0.930 . S
H757 C734 0.929 . S
H758 C736 0.930 . S
H759 C737 0.929 . S
Nd760 C762 2.836 . S
Nd760 O780 2.500 . S
Nd760 O781 2.492 . S
Nd760 O782 2.487 . S
Nd760 O783 2.682 . S
Nd760 O784 2.410 . S
Nd760 O789 2.414 . S
Nd760 O791 2.424 . S
Nd761 C771 2.836 1_655 S
Nd761 O783 2.414 . S
Nd761 O785 2.424 . S
Nd761 O786 2.500 1_655 S
Nd761 O787 2.492 . S
Nd761 O788 2.487 . S
Nd761 O789 2.682 . S
Nd761 O790 2.410 . S
C762 Nd760 2.836 . S
C762 C763 1.498 . S
C762 O780 1.258 . S
C762 O781 1.239 . S
C763 C762 1.498 . S
C763 C764 1.366 . S
C763 C768 1.407 . S
C764 C763 1.366 . S
C764 C765 1.392 . S
C764 H792 0.930 . S
C765 C764 1.392 . S
C765 C766 1.398 . S
C765 H793 0.929 . S
C766 C765 1.398 . S
C766 C767 1.352 . S
C767 C766 1.352 . S
C767 C768 1.384 . S
C767 H794 0.930 . S
C768 C763 1.407 . S
C768 C767 1.384 . S
C768 H795 0.929 . S
C769 O782 1.241 . S
C769 O783 1.273 . S
C770 O784 1.251 . S
C770 O785 1.268 . S
C771 Nd761 2.836 1_455 S
C771 C772 1.498 . S
C771 O786 1.258 . S
C771 O787 1.239 1_455 S
C772 C771 1.498 . S
C772 C773 1.366 . S
C772 C777 1.407 . S
C773 C772 1.366 . S
C773 C774 1.392 . S
C773 H796 0.930 . S
C774 C773 1.392 . S
C774 C775 1.398 . S
C774 H797 0.929 . S
C775 C774 1.398 . S
C775 C776 1.352 . S
C776 C775 1.352 . S
C776 C777 1.384 . S
C776 H798 0.930 . S
C777 C772 1.407 . S
C777 C776 1.384 . S
C777 H799 0.929 . S
C778 O788 1.241 . S
C778 O789 1.273 . S
C779 O790 1.251 . S
C779 O791 1.268 . S
O780 Nd760 2.500 . S
O780 C762 1.258 . S
O781 Nd760 2.492 . S
O781 C762 1.239 . S
O782 Nd760 2.487 . S
O782 C769 1.241 . S
O783 Nd760 2.682 . S
O783 Nd761 2.414 . S
O783 C769 1.273 . S
O784 Nd760 2.410 . S
O784 C770 1.251 . S
O785 Nd761 2.424 . S
O785 C770 1.268 . S
O786 Nd761 2.500 1_455 S
O786 C771 1.258 . S
O787 Nd761 2.492 . S
O787 C771 1.239 1_655 S
O788 Nd761 2.487 . S
O788 C778 1.241 . S
O789 Nd760 2.414 . S
O789 Nd761 2.682 . S
O789 C778 1.273 . S
O790 Nd761 2.410 . S
O790 C779 1.251 . S
O791 Nd760 2.424 . S
O791 C779 1.268 . S
H792 C764 0.930 . S
H793 C765 0.929 . S
H794 C767 0.930 . S
H795 C768 0.929 . S
H796 C773 0.930 . S
H797 C774 0.929 . S
H798 C776 0.930 . S
H799 C777 0.929 . S
Nd800 C802 2.836 . S
Nd800 O820 2.500 . S
Nd800 O821 2.492 . S
Nd800 O822 2.487 . S
Nd800 O823 2.682 . S
Nd800 O824 2.410 . S
Nd800 O829 2.414 . S
Nd800 O831 2.424 . S
Nd801 C811 2.836 . S
Nd801 O823 2.414 . S
Nd801 O825 2.424 . S
Nd801 O826 2.500 . S
Nd801 O827 2.492 . S
Nd801 O828 2.487 . S
Nd801 O829 2.682 . S
Nd801 O830 2.410 . S
C802 Nd800 2.836 . S
C802 C803 1.498 . S
C802 O820 1.258 . S
C802 O821 1.239 . S
C803 C802 1.498 . S
C803 C804 1.366 . S
C803 C808 1.407 . S
C804 C803 1.366 . S
C804 C805 1.392 . S
C804 H832 0.930 . S
C805 C804 1.392 . S
C805 C806 1.398 . S
C805 H833 0.929 . S
C806 C805 1.398 . S
C806 C807 1.352 . S
C807 C806 1.352 . S
C807 C808 1.384 . S
C807 H834 0.930 . S
C808 C803 1.407 . S
C808 C807 1.384 . S
C808 H835 0.929 . S
C809 O822 1.241 . S
C809 O823 1.273 . S
C810 O824 1.251 . S
C810 O825 1.268 . S
C811 Nd801 2.836 . S
C811 C812 1.498 . S
C811 O826 1.258 . S
C811 O827 1.239 . S
C812 C811 1.498 . S
C812 C813 1.366 . S
C812 C817 1.407 . S
C813 C812 1.366 . S
C813 C814 1.392 . S
C813 H836 0.930 . S
C814 C813 1.392 . S
C814 C815 1.398 . S
C814 H837 0.929 . S
C815 C814 1.398 . S
C815 C816 1.352 . S
C816 C815 1.352 . S
C816 C817 1.384 . S
C816 H838 0.930 . S
C817 C812 1.407 . S
C817 C816 1.384 . S
C817 H839 0.929 . S
C818 O828 1.241 . S
C818 O829 1.273 . S
C819 O830 1.251 . S
C819 O831 1.268 . S
O820 Nd800 2.500 . S
O820 C802 1.258 . S
O821 Nd800 2.492 . S
O821 C802 1.239 . S
O822 Nd800 2.487 . S
O822 C809 1.241 . S
O823 Nd800 2.682 . S
O823 Nd801 2.414 . S
O823 C809 1.273 . S
O824 Nd800 2.410 . S
O824 C810 1.251 . S
O825 Nd801 2.424 . S
O825 C810 1.268 . S
O826 Nd801 2.500 . S
O826 C811 1.258 . S
O827 Nd801 2.492 . S
O827 C811 1.239 . S
O828 Nd801 2.487 . S
O828 C818 1.241 . S
O829 Nd800 2.414 . S
O829 Nd801 2.682 . S
O829 C818 1.273 . S
O830 Nd801 2.410 . S
O830 C819 1.251 . S
O831 Nd800 2.424 . S
O831 C819 1.268 . S
H832 C804 0.930 . S
H833 C805 0.929 . S
H834 C807 0.930 . S
H835 C808 0.929 . S
H836 C813 0.930 . S
H837 C814 0.929 . S
H838 C816 0.930 . S
H839 C817 0.929 . S
Nd840 C842 2.836 . S
Nd840 O860 2.500 . S
Nd840 O861 2.492 . S
Nd840 O862 2.487 . S
Nd840 O863 2.682 1_556 S
Nd840 O864 2.410 . S
Nd840 O869 2.414 . S
Nd840 O871 2.424 . S
Nd841 C851 2.836 . S
Nd841 O863 2.414 . S
Nd841 O865 2.424 . S
Nd841 O866 2.500 . S
Nd841 O867 2.492 . S
Nd841 O868 2.487 . S
Nd841 O869 2.682 1_554 S
Nd841 O870 2.410 . S
C842 Nd840 2.836 . S
C842 C843 1.498 . S
C842 O860 1.258 . S
C842 O861 1.239 . S
C843 C842 1.498 . S
C843 C844 1.366 . S
C843 C848 1.407 . S
C844 C843 1.366 . S
C844 C845 1.392 . S
C844 H872 0.930 . S
C845 C844 1.392 . S
C845 C846 1.398 . S
C845 H873 0.929 . S
C846 C845 1.398 . S
C846 C847 1.352 . S
C847 C846 1.352 . S
C847 C848 1.384 . S
C847 H874 0.930 . S
C848 C843 1.407 . S
C848 C847 1.384 . S
C848 H875 0.929 . S
C849 O862 1.241 . S
C849 O863 1.273 1_556 S
C850 O864 1.251 . S
C850 O865 1.268 1_556 S
C851 Nd841 2.836 . S
C851 C852 1.498 . S
C851 O866 1.258 . S
C851 O867 1.239 . S
C852 C851 1.498 . S
C852 C853 1.366 . S
C852 C857 1.407 . S
C853 C852 1.366 . S
C853 C854 1.392 . S
C853 H876 0.930 . S
C854 C853 1.392 . S
C854 C855 1.398 . S
C854 H877 0.929 . S
C855 C854 1.398 . S
C855 C856 1.352 . S
C856 C855 1.352 . S
C856 C857 1.384 . S
C856 H878 0.930 . S
C857 C852 1.407 . S
C857 C856 1.384 . S
C857 H879 0.929 . S
C858 O868 1.241 . S
C858 O869 1.273 1_554 S
C859 O870 1.251 . S
C859 O871 1.268 1_554 S
O860 Nd840 2.500 . S
O860 C842 1.258 . S
O861 Nd840 2.492 . S
O861 C842 1.239 . S
O862 Nd840 2.487 . S
O862 C849 1.241 . S
O863 Nd840 2.682 1_554 S
O863 Nd841 2.414 . S
O863 C849 1.273 1_554 S
O864 Nd840 2.410 . S
O864 C850 1.251 . S
O865 Nd841 2.424 . S
O865 C850 1.268 1_554 S
O866 Nd841 2.500 . S
O866 C851 1.258 . S
O867 Nd841 2.492 . S
O867 C851 1.239 . S
O868 Nd841 2.487 . S
O868 C858 1.241 . S
O869 Nd840 2.414 . S
O869 Nd841 2.682 1_556 S
O869 C858 1.273 1_556 S
O870 Nd841 2.410 . S
O870 C859 1.251 . S
O871 Nd840 2.424 . S
O871 C859 1.268 1_556 S
H872 C844 0.930 . S
H873 C845 0.929 . S
H874 C847 0.930 . S
H875 C848 0.929 . S
H876 C853 0.930 . S
H877 C854 0.929 . S
H878 C856 0.930 . S
H879 C857 0.929 . S
Nd880 C882 2.836 . S
Nd880 O900 2.500 . S
Nd880 O901 2.492 . S
Nd880 O902 2.487 . S
Nd880 O903 2.682 1_556 S
Nd880 O904 2.410 . S
Nd880 O909 2.414 . S
Nd880 O911 2.424 . S
Nd881 C891 2.836 . S
Nd881 O903 2.414 . S
Nd881 O905 2.424 . S
Nd881 O906 2.500 . S
Nd881 O907 2.492 . S
Nd881 O908 2.487 . S
Nd881 O909 2.682 1_554 S
Nd881 O910 2.410 . S
C882 Nd880 2.836 . S
C882 C883 1.498 . S
C882 O900 1.258 . S
C882 O901 1.239 . S
C883 C882 1.498 . S
C883 C884 1.366 . S
C883 C888 1.407 . S
C884 C883 1.366 . S
C884 C885 1.392 . S
C884 H912 0.930 . S
C885 C884 1.392 . S
C885 C886 1.398 . S
C885 H913 0.929 . S
C886 C885 1.398 . S
C886 C887 1.352 . S
C887 C886 1.352 . S
C887 C888 1.384 . S
C887 H914 0.930 . S
C888 C883 1.407 . S
C888 C887 1.384 . S
C888 H915 0.929 . S
C889 O902 1.241 . S
C889 O903 1.273 1_556 S
C890 O904 1.251 . S
C890 O905 1.268 1_556 S
C891 Nd881 2.836 . S
C891 C892 1.498 . S
C891 O906 1.258 . S
C891 O907 1.239 . S
C892 C891 1.498 . S
C892 C893 1.366 . S
C892 C897 1.407 . S
C893 C892 1.366 . S
C893 C894 1.392 . S
C893 H916 0.930 . S
C894 C893 1.392 . S
C894 C895 1.398 . S
C894 H917 0.929 . S
C895 C894 1.398 . S
C895 C896 1.352 . S
C896 C895 1.352 . S
C896 C897 1.384 . S
C896 H918 0.930 . S
C897 C892 1.407 . S
C897 C896 1.384 . S
C897 H919 0.929 . S
C898 O908 1.241 . S
C898 O909 1.273 1_554 S
C899 O910 1.251 . S
C899 O911 1.268 1_554 S
O900 Nd880 2.500 . S
O900 C882 1.258 . S
O901 Nd880 2.492 . S
O901 C882 1.239 . S
O902 Nd880 2.487 . S
O902 C889 1.241 . S
O903 Nd880 2.682 1_554 S
O903 Nd881 2.414 . S
O903 C889 1.273 1_554 S
O904 Nd880 2.410 . S
O904 C890 1.251 . S
O905 Nd881 2.424 . S
O905 C890 1.268 1_554 S
O906 Nd881 2.500 . S
O906 C891 1.258 . S
O907 Nd881 2.492 . S
O907 C891 1.239 . S
O908 Nd881 2.487 . S
O908 C898 1.241 . S
O909 Nd880 2.414 . S
O909 Nd881 2.682 1_556 S
O909 C898 1.273 1_556 S
O910 Nd881 2.410 . S
O910 C899 1.251 . S
O911 Nd880 2.424 . S
O911 C899 1.268 1_556 S
H912 C884 0.930 . S
H913 C885 0.929 . S
H914 C887 0.930 . S
H915 C888 0.929 . S
H916 C893 0.930 . S
H917 C894 0.929 . S
H918 C896 0.930 . S
H919 C897 0.929 . S
Nd920 C922 2.836 . S
Nd920 O940 2.500 . S
Nd920 O941 2.492 . S
Nd920 O942 2.487 . S
Nd920 O943 2.682 1_556 S
Nd920 O944 2.410 . S
Nd920 O949 2.414 . S
Nd920 O951 2.424 . S
Nd921 C931 2.836 . S
Nd921 O943 2.414 . S
Nd921 O945 2.424 . S
Nd921 O946 2.500 . S
Nd921 O947 2.492 . S
Nd921 O948 2.487 . S
Nd921 O949 2.682 1_554 S
Nd921 O950 2.410 . S
C922 Nd920 2.836 . S
C922 C923 1.498 . S
C922 O940 1.258 . S
C922 O941 1.239 . S
C923 C922 1.498 . S
C923 C924 1.366 . S
C923 C928 1.407 . S
C924 C923 1.366 . S
C924 C925 1.392 . S
C924 H952 0.930 . S
C925 C924 1.392 . S
C925 C926 1.398 . S
C925 H953 0.929 . S
C926 C925 1.398 . S
C926 C927 1.352 . S
C927 C926 1.352 . S
C927 C928 1.384 . S
C927 H954 0.930 . S
C928 C923 1.407 . S
C928 C927 1.384 . S
C928 H955 0.929 . S
C929 O942 1.241 . S
C929 O943 1.273 1_556 S
C930 O944 1.251 . S
C930 O945 1.268 1_556 S
C931 Nd921 2.836 . S
C931 C932 1.498 . S
C931 O946 1.258 . S
C931 O947 1.239 . S
C932 C931 1.498 . S
C932 C933 1.366 . S
C932 C937 1.407 . S
C933 C932 1.366 . S
C933 C934 1.392 . S
C933 H956 0.930 . S
C934 C933 1.392 . S
C934 C935 1.398 . S
C934 H957 0.929 . S
C935 C934 1.398 . S
C935 C936 1.352 . S
C936 C935 1.352 . S
C936 C937 1.384 . S
C936 H958 0.930 . S
C937 C932 1.407 . S
C937 C936 1.384 . S
C937 H959 0.929 . S
C938 O948 1.241 . S
C938 O949 1.273 1_554 S
C939 O950 1.251 . S
C939 O951 1.268 1_554 S
O940 Nd920 2.500 . S
O940 C922 1.258 . S
O941 Nd920 2.492 . S
O941 C922 1.239 . S
O942 Nd920 2.487 . S
O942 C929 1.241 . S
O943 Nd920 2.682 1_554 S
O943 Nd921 2.414 . S
O943 C929 1.273 1_554 S
O944 Nd920 2.410 . S
O944 C930 1.251 . S
O945 Nd921 2.424 . S
O945 C930 1.268 1_554 S
O946 Nd921 2.500 . S
O946 C931 1.258 . S
O947 Nd921 2.492 . S
O947 C931 1.239 . S
O948 Nd921 2.487 . S
O948 C938 1.241 . S
O949 Nd920 2.414 . S
O949 Nd921 2.682 1_556 S
O949 C938 1.273 1_556 S
O950 Nd921 2.410 . S
O950 C939 1.251 . S
O951 Nd920 2.424 . S
O951 C939 1.268 1_556 S
H952 C924 0.930 . S
H953 C925 0.929 . S
H954 C927 0.930 . S
H955 C928 0.929 . S
H956 C933 0.930 . S
H957 C934 0.929 . S
H958 C936 0.930 . S
H959 C937 0.929 . S
Nd960 C962 2.836 1_565 S
Nd960 O980 2.500 1_565 S
Nd960 O981 2.492 . S
Nd960 O982 2.487 . S
Nd960 O983 2.682 . S
Nd960 O984 2.410 . S
Nd960 O989 2.414 . S
Nd960 O991 2.424 . S
Nd961 C971 2.836 . S
Nd961 O983 2.414 . S
Nd961 O985 2.424 . S
Nd961 O986 2.500 . S
Nd961 O987 2.492 . S
Nd961 O988 2.487 . S
Nd961 O989 2.682 . S
Nd961 O990 2.410 . S
C962 Nd960 2.836 1_545 S
C962 C963 1.498 . S
C962 O980 1.258 . S
C962 O981 1.239 1_545 S
C963 C962 1.498 . S
C963 C964 1.366 . S
C963 C968 1.407 . S
C964 C963 1.366 . S
C964 C965 1.392 . S
C964 H992 0.930 . S
C965 C964 1.392 . S
C965 C966 1.398 . S
C965 H993 0.929 . S
C966 C965 1.398 . S
C966 C967 1.352 . S
C967 C966 1.352 . S
C967 C968 1.384 . S
C967 H994 0.930 . S
C968 C963 1.407 . S
C968 C967 1.384 . S
C968 H995 0.929 . S
C969 O982 1.241 . S
C969 O983 1.273 . S
C970 O984 1.251 . S
C970 O985 1.268 . S
C971 Nd961 2.836 . S
C971 C972 1.498 . S
C971 O986 1.258 . S
C971 O987 1.239 . S
C972 C971 1.498 . S
C972 C973 1.366 . S
C972 C977 1.407 . S
C973 C972 1.366 . S
C973 C974 1.392 . S
C973 H996 0.930 . S
C974 C973 1.392 . S
C974 C975 1.398 . S
C974 H997 0.929 . S
C975 C974 1.398 . S
C975 C976 1.352 . S
C976 C975 1.352 . S
C976 C977 1.384 . S
C976 H998 0.930 . S
C977 C972 1.407 . S
C977 C976 1.384 . S
C977 H999 0.929 . S
C978 O988 1.241 . S
C978 O989 1.273 . S
C979 O990 1.251 . S
C979 O991 1.268 . S
O980 Nd960 2.500 1_545 S
O980 C962 1.258 . S
O981 Nd960 2.492 . S
O981 C962 1.239 1_565 S
O982 Nd960 2.487 . S
O982 C969 1.241 . S
O983 Nd960 2.682 . S
O983 Nd961 2.414 . S
O983 C969 1.273 . S
O984 Nd960 2.410 . S
O984 C970 1.251 . S
O985 Nd961 2.424 . S
O985 C970 1.268 . S
O986 Nd961 2.500 . S
O986 C971 1.258 . S
O987 Nd961 2.492 . S
O987 C971 1.239 . S
O988 Nd961 2.487 . S
O988 C978 1.241 . S
O989 Nd960 2.414 . S
O989 Nd961 2.682 . S
O989 C978 1.273 . S
O990 Nd961 2.410 . S
O990 C979 1.251 . S
O991 Nd960 2.424 . S
O991 C979 1.268 . S
H992 C964 0.930 . S
H993 C965 0.929 . S
H994 C967 0.930 . S
H995 C968 0.929 . S
H996 C973 0.930 . S
H997 C974 0.929 . S
H998 C976 0.930 . S
H999 C977 0.929 . S
Nd1000 C1002 2.836 1_455 S
Nd1000 O1020 2.500 1_455 S
Nd1000 O1021 2.492 . S
Nd1000 O1022 2.487 . S
Nd1000 O1023 2.682 . S
Nd1000 O1024 2.410 . S
Nd1000 O1029 2.414 . S
Nd1000 O1031 2.424 . S
Nd1001 C1011 2.836 . S
Nd1001 O1023 2.414 . S
Nd1001 O1025 2.424 . S
Nd1001 O1026 2.500 . S
Nd1001 O1027 2.492 . S
Nd1001 O1028 2.487 . S
Nd1001 O1029 2.682 . S
Nd1001 O1030 2.410 . S
C1002 Nd1000 2.836 1_655 S
C1002 C1003 1.498 . S
C1002 O1020 1.258 . S
C1002 O1021 1.239 1_655 S
C1003 C1002 1.498 . S
C1003 C1004 1.366 . S
C1003 C1008 1.407 . S
C1004 C1003 1.366 . S
C1004 C1005 1.392 . S
C1004 H1032 0.930 . S
C1005 C1004 1.392 . S
C1005 C1006 1.398 . S
C1005 H1033 0.929 . S
C1006 C1005 1.398 . S
C1006 C1007 1.352 . S
C1007 C1006 1.352 . S
C1007 C1008 1.384 . S
C1007 H1034 0.930 . S
C1008 C1003 1.407 . S
C1008 C1007 1.384 . S
C1008 H1035 0.929 . S
C1009 O1022 1.241 . S
C1009 O1023 1.273 . S
C1010 O1024 1.251 . S
C1010 O1025 1.268 . S
C1011 Nd1001 2.836 . S
C1011 C1012 1.498 . S
C1011 O1026 1.258 . S
C1011 O1027 1.239 . S
C1012 C1011 1.498 . S
C1012 C1013 1.366 . S
C1012 C1017 1.407 . S
C1013 C1012 1.366 . S
C1013 C1014 1.392 . S
C1013 H1036 0.930 . S
C1014 C1013 1.392 . S
C1014 C1015 1.398 . S
C1014 H1037 0.929 . S
C1015 C1014 1.398 . S
C1015 C1016 1.352 . S
C1016 C1015 1.352 . S
C1016 C1017 1.384 . S
C1016 H1038 0.930 . S
C1017 C1012 1.407 . S
C1017 C1016 1.384 . S
C1017 H1039 0.929 . S
C1018 O1028 1.241 . S
C1018 O1029 1.273 . S
C1019 O1030 1.251 . S
C1019 O1031 1.268 . S
O1020 Nd1000 2.500 1_655 S
O1020 C1002 1.258 . S
O1021 Nd1000 2.492 . S
O1021 C1002 1.239 1_455 S
O1022 Nd1000 2.487 . S
O1022 C1009 1.241 . S
O1023 Nd1000 2.682 . S
O1023 Nd1001 2.414 . S
O1023 C1009 1.273 . S
O1024 Nd1000 2.410 . S
O1024 C1010 1.251 . S
O1025 Nd1001 2.424 . S
O1025 C1010 1.268 . S
O1026 Nd1001 2.500 . S
O1026 C1011 1.258 . S
O1027 Nd1001 2.492 . S
O1027 C1011 1.239 . S
O1028 Nd1001 2.487 . S
O1028 C1018 1.241 . S
O1029 Nd1000 2.414 . S
O1029 Nd1001 2.682 . S
O1029 C1018 1.273 . S
O1030 Nd1001 2.410 . S
O1030 C1019 1.251 . S
O1031 Nd1000 2.424 . S
O1031 C1019 1.268 . S
H1032 C1004 0.930 . S
H1033 C1005 0.929 . S
H1034 C1007 0.930 . S
H1035 C1008 0.929 . S
H1036 C1013 0.930 . S
H1037 C1014 0.929 . S
H1038 C1016 0.930 . S
H1039 C1017 0.929 . S
Nd1040 C1042 2.836 . S
Nd1040 O1060 2.500 . S
Nd1040 O1061 2.492 . S
Nd1040 O1062 2.487 . S
Nd1040 O1063 2.682 . S
Nd1040 O1064 2.410 . S
Nd1040 O1069 2.414 . S
Nd1040 O1071 2.424 . S
Nd1041 C1051 2.836 . S
Nd1041 O1063 2.414 . S
Nd1041 O1065 2.424 . S
Nd1041 O1066 2.500 . S
Nd1041 O1067 2.492 . S
Nd1041 O1068 2.487 . S
Nd1041 O1069 2.682 . S
Nd1041 O1070 2.410 . S
C1042 Nd1040 2.836 . S
C1042 C1043 1.498 . S
C1042 O1060 1.258 . S
C1042 O1061 1.239 . S
C1043 C1042 1.498 . S
C1043 C1044 1.366 . S
C1043 C1048 1.407 . S
C1044 C1043 1.366 . S
C1044 C1045 1.392 . S
C1044 H1072 0.930 . S
C1045 C1044 1.392 . S
C1045 C1046 1.398 . S
C1045 H1073 0.929 . S
C1046 C1045 1.398 . S
C1046 C1047 1.352 . S
C1047 C1046 1.352 . S
C1047 C1048 1.384 . S
C1047 H1074 0.930 . S
C1048 C1043 1.407 . S
C1048 C1047 1.384 . S
C1048 H1075 0.929 . S
C1049 O1062 1.241 . S
C1049 O1063 1.273 . S
C1050 O1064 1.251 . S
C1050 O1065 1.268 . S
C1051 Nd1041 2.836 . S
C1051 C1052 1.498 . S
C1051 O1066 1.258 . S
C1051 O1067 1.239 . S
C1052 C1051 1.498 . S
C1052 C1053 1.366 . S
C1052 C1057 1.407 . S
C1053 C1052 1.366 . S
C1053 C1054 1.392 . S
C1053 H1076 0.930 . S
C1054 C1053 1.392 . S
C1054 C1055 1.398 . S
C1054 H1077 0.929 . S
C1055 C1054 1.398 . S
C1055 C1056 1.352 . S
C1056 C1055 1.352 . S
C1056 C1057 1.384 . S
C1056 H1078 0.930 . S
C1057 C1052 1.407 . S
C1057 C1056 1.384 . S
C1057 H1079 0.929 . S
C1058 O1068 1.241 . S
C1058 O1069 1.273 . S
C1059 O1070 1.251 . S
C1059 O1071 1.268 . S
O1060 Nd1040 2.500 . S
O1060 C1042 1.258 . S
O1061 Nd1040 2.492 . S
O1061 C1042 1.239 . S
O1062 Nd1040 2.487 . S
O1062 C1049 1.241 . S
O1063 Nd1040 2.682 . S
O1063 Nd1041 2.414 . S
O1063 C1049 1.273 . S
O1064 Nd1040 2.410 . S
O1064 C1050 1.251 . S
O1065 Nd1041 2.424 . S
O1065 C1050 1.268 . S
O1066 Nd1041 2.500 . S
O1066 C1051 1.258 . S
O1067 Nd1041 2.492 . S
O1067 C1051 1.239 . S
O1068 Nd1041 2.487 . S
O1068 C1058 1.241 . S
O1069 Nd1040 2.414 . S
O1069 Nd1041 2.682 . S
O1069 C1058 1.273 . S
O1070 Nd1041 2.410 . S
O1070 C1059 1.251 . S
O1071 Nd1040 2.424 . S
O1071 C1059 1.268 . S
H1072 C1044 0.930 . S
H1073 C1045 0.929 . S
H1074 C1047 0.930 . S
H1075 C1048 0.929 . S
H1076 C1053 0.930 . S
H1077 C1054 0.929 . S
H1078 C1056 0.930 . S
H1079 C1057 0.929 . S
Nd1080 C1082 2.836 . S
Nd1080 O1100 2.500 . S
Nd1080 O1101 2.492 . S
Nd1080 O1102 2.487 . S
Nd1080 O1103 2.682 1_556 S
Nd1080 O1104 2.410 . S
Nd1080 O1109 2.414 . S
Nd1080 O1111 2.424 . S
Nd1081 C1091 2.836 . S
Nd1081 O1103 2.414 . S
Nd1081 O1105 2.424 . S
Nd1081 O1106 2.500 . S
Nd1081 O1107 2.492 . S
Nd1081 O1108 2.487 . S
Nd1081 O1109 2.682 1_554 S
Nd1081 O1110 2.410 . S
C1082 Nd1080 2.836 . S
C1082 C1083 1.498 . S
C1082 O1100 1.258 . S
C1082 O1101 1.239 . S
C1083 C1082 1.498 . S
C1083 C1084 1.366 . S
C1083 C1088 1.407 . S
C1084 C1083 1.366 . S
C1084 C1085 1.392 . S
C1084 H1112 0.930 . S
C1085 C1084 1.392 . S
C1085 C1086 1.398 . S
C1085 H1113 0.929 . S
C1086 C1085 1.398 . S
C1086 C1087 1.352 . S
C1087 C1086 1.352 . S
C1087 C1088 1.384 . S
C1087 H1114 0.930 . S
C1088 C1083 1.407 . S
C1088 C1087 1.384 . S
C1088 H1115 0.929 . S
C1089 O1102 1.241 . S
C1089 O1103 1.273 1_556 S
C1090 O1104 1.251 . S
C1090 O1105 1.268 1_556 S
C1091 Nd1081 2.836 . S
C1091 C1092 1.498 . S
C1091 O1106 1.258 . S
C1091 O1107 1.239 . S
C1092 C1091 1.498 . S
C1092 C1093 1.366 . S
C1092 C1097 1.407 . S
C1093 C1092 1.366 . S
C1093 C1094 1.392 . S
C1093 H1116 0.930 . S
C1094 C1093 1.392 . S
C1094 C1095 1.398 . S
C1094 H1117 0.929 . S
C1095 C1094 1.398 . S
C1095 C1096 1.352 . S
C1096 C1095 1.352 . S
C1096 C1097 1.384 . S
C1096 H1118 0.930 . S
C1097 C1092 1.407 . S
C1097 C1096 1.384 . S
C1097 H1119 0.929 . S
C1098 O1108 1.241 . S
C1098 O1109 1.273 1_554 S
C1099 O1110 1.251 . S
C1099 O1111 1.268 1_554 S
O1100 Nd1080 2.500 . S
O1100 C1082 1.258 . S
O1101 Nd1080 2.492 . S
O1101 C1082 1.239 . S
O1102 Nd1080 2.487 . S
O1102 C1089 1.241 . S
O1103 Nd1080 2.682 1_554 S
O1103 Nd1081 2.414 . S
O1103 C1089 1.273 1_554 S
O1104 Nd1080 2.410 . S
O1104 C1090 1.251 . S
O1105 Nd1081 2.424 . S
O1105 C1090 1.268 1_554 S
O1106 Nd1081 2.500 . S
O1106 C1091 1.258 . S
O1107 Nd1081 2.492 . S
O1107 C1091 1.239 . S
O1108 Nd1081 2.487 . S
O1108 C1098 1.241 . S
O1109 Nd1080 2.414 . S
O1109 Nd1081 2.682 1_556 S
O1109 C1098 1.273 1_556 S
O1110 Nd1081 2.410 . S
O1110 C1099 1.251 . S
O1111 Nd1080 2.424 . S
O1111 C1099 1.268 1_556 S
H1112 C1084 0.930 . S
H1113 C1085 0.929 . S
H1114 C1087 0.930 . S
H1115 C1088 0.929 . S
H1116 C1093 0.930 . S
H1117 C1094 0.929 . S
H1118 C1096 0.930 . S
H1119 C1097 0.929 . S
Nd1120 C1122 2.836 . S
Nd1120 O1140 2.500 . S
Nd1120 O1141 2.492 . S
Nd1120 O1142 2.487 . S
Nd1120 O1143 2.682 1_556 S
Nd1120 O1144 2.410 . S
Nd1120 O1149 2.414 . S
Nd1120 O1151 2.424 . S
Nd1121 C1131 2.836 . S
Nd1121 O1143 2.414 . S
Nd1121 O1145 2.424 . S
Nd1121 O1146 2.500 . S
Nd1121 O1147 2.492 . S
Nd1121 O1148 2.487 . S
Nd1121 O1149 2.682 1_554 S
Nd1121 O1150 2.410 . S
C1122 Nd1120 2.836 . S
C1122 C1123 1.498 . S
C1122 O1140 1.258 . S
C1122 O1141 1.239 . S
C1123 C1122 1.498 . S
C1123 C1124 1.366 . S
C1123 C1128 1.407 . S
C1124 C1123 1.366 . S
C1124 C1125 1.392 . S
C1124 H1152 0.930 . S
C1125 C1124 1.392 . S
C1125 C1126 1.398 . S
C1125 H1153 0.929 . S
C1126 C1125 1.398 . S
C1126 C1127 1.352 . S
C1127 C1126 1.352 . S
C1127 C1128 1.384 . S
C1127 H1154 0.930 . S
C1128 C1123 1.407 . S
C1128 C1127 1.384 . S
C1128 H1155 0.929 . S
C1129 O1142 1.241 . S
C1129 O1143 1.273 1_556 S
C1130 O1144 1.251 . S
C1130 O1145 1.268 1_556 S
C1131 Nd1121 2.836 . S
C1131 C1132 1.498 . S
C1131 O1146 1.258 . S
C1131 O1147 1.239 . S
C1132 C1131 1.498 . S
C1132 C1133 1.366 . S
C1132 C1137 1.407 . S
C1133 C1132 1.366 . S
C1133 C1134 1.392 . S
C1133 H1156 0.930 . S
C1134 C1133 1.392 . S
C1134 C1135 1.398 . S
C1134 H1157 0.929 . S
C1135 C1134 1.398 . S
C1135 C1136 1.352 . S
C1136 C1135 1.352 . S
C1136 C1137 1.384 . S
C1136 H1158 0.930 . S
C1137 C1132 1.407 . S
C1137 C1136 1.384 . S
C1137 H1159 0.929 . S
C1138 O1148 1.241 . S
C1138 O1149 1.273 1_554 S
C1139 O1150 1.251 . S
C1139 O1151 1.268 1_554 S
O1140 Nd1120 2.500 . S
O1140 C1122 1.258 . S
O1141 Nd1120 2.492 . S
O1141 C1122 1.239 . S
O1142 Nd1120 2.487 . S
O1142 C1129 1.241 . S
O1143 Nd1120 2.682 1_554 S
O1143 Nd1121 2.414 . S
O1143 C1129 1.273 1_554 S
O1144 Nd1120 2.410 . S
O1144 C1130 1.251 . S
O1145 Nd1121 2.424 . S
O1145 C1130 1.268 1_554 S
O1146 Nd1121 2.500 . S
O1146 C1131 1.258 . S
O1147 Nd1121 2.492 . S
O1147 C1131 1.239 . S
O1148 Nd1121 2.487 . S
O1148 C1138 1.241 . S
O1149 Nd1120 2.414 . S
O1149 Nd1121 2.682 1_556 S
O1149 C1138 1.273 1_556 S
O1150 Nd1121 2.410 . S
O1150 C1139 1.251 . S
O1151 Nd1120 2.424 . S
O1151 C1139 1.268 1_556 S
H1152 C1124 0.930 . S
H1153 C1125 0.929 . S
H1154 C1127 0.930 . S
H1155 C1128 0.929 . S
H1156 C1133 0.930 . S
H1157 C1134 0.929 . S
H1158 C1136 0.930 . S
H1159 C1137 0.929 . S
Nd1160 C1162 2.836 . S
Nd1160 O1180 2.500 . S
Nd1160 O1181 2.492 . S
Nd1160 O1182 2.487 . S
Nd1160 O1183 2.682 1_556 S
Nd1160 O1184 2.410 . S
Nd1160 O1189 2.414 . S
Nd1160 O1191 2.424 . S
Nd1161 C1171 2.836 . S
Nd1161 O1183 2.414 . S
Nd1161 O1185 2.424 . S
Nd1161 O1186 2.500 . S
Nd1161 O1187 2.492 . S
Nd1161 O1188 2.487 . S
Nd1161 O1189 2.682 1_554 S
Nd1161 O1190 2.410 . S
C1162 Nd1160 2.836 . S
C1162 C1163 1.498 . S
C1162 O1180 1.258 . S
C1162 O1181 1.239 . S
C1163 C1162 1.498 . S
C1163 C1164 1.366 . S
C1163 C1168 1.407 . S
C1164 C1163 1.366 . S
C1164 C1165 1.392 . S
C1164 H1192 0.930 . S
C1165 C1164 1.392 . S
C1165 C1166 1.398 . S
C1165 H1193 0.929 . S
C1166 C1165 1.398 . S
C1166 C1167 1.352 . S
C1167 C1166 1.352 . S
C1167 C1168 1.384 . S
C1167 H1194 0.930 . S
C1168 C1163 1.407 . S
C1168 C1167 1.384 . S
C1168 H1195 0.929 . S
C1169 O1182 1.241 . S
C1169 O1183 1.273 1_556 S
C1170 O1184 1.251 . S
C1170 O1185 1.268 1_556 S
C1171 Nd1161 2.836 . S
C1171 C1172 1.498 . S
C1171 O1186 1.258 . S
C1171 O1187 1.239 . S
C1172 C1171 1.498 . S
C1172 C1173 1.366 . S
C1172 C1177 1.407 . S
C1173 C1172 1.366 . S
C1173 C1174 1.392 . S
C1173 H1196 0.930 . S
C1174 C1173 1.392 . S
C1174 C1175 1.398 . S
C1174 H1197 0.929 . S
C1175 C1174 1.398 . S
C1175 C1176 1.352 . S
C1176 C1175 1.352 . S
C1176 C1177 1.384 . S
C1176 H1198 0.930 . S
C1177 C1172 1.407 . S
C1177 C1176 1.384 . S
C1177 H1199 0.929 . S
C1178 O1188 1.241 . S
C1178 O1189 1.273 1_554 S
C1179 O1190 1.251 . S
C1179 O1191 1.268 1_554 S
O1180 Nd1160 2.500 . S
O1180 C1162 1.258 . S
O1181 Nd1160 2.492 . S
O1181 C1162 1.239 . S
O1182 Nd1160 2.487 . S
O1182 C1169 1.241 . S
O1183 Nd1160 2.682 1_554 S
O1183 Nd1161 2.414 . S
O1183 C1169 1.273 1_554 S
O1184 Nd1160 2.410 . S
O1184 C1170 1.251 . S
O1185 Nd1161 2.424 . S
O1185 C1170 1.268 1_554 S
O1186 Nd1161 2.500 . S
O1186 C1171 1.258 . S
O1187 Nd1161 2.492 . S
O1187 C1171 1.239 . S
O1188 Nd1161 2.487 . S
O1188 C1178 1.241 . S
O1189 Nd1160 2.414 . S
O1189 Nd1161 2.682 1_556 S
O1189 C1178 1.273 1_556 S
O1190 Nd1161 2.410 . S
O1190 C1179 1.251 . S
O1191 Nd1160 2.424 . S
O1191 C1179 1.268 1_556 S
H1192 C1164 0.930 . S
H1193 C1165 0.929 . S
H1194 C1167 0.930 . S
H1195 C1168 0.929 . S
H1196 C1173 0.930 . S
H1197 C1174 0.929 . S
H1198 C1176 0.930 . S
H1199 C1177 0.929 . S
Nd1200 C1202 2.836 . S
Nd1200 O1220 2.500 . S
Nd1200 O1221 2.492 . S
Nd1200 O1222 2.487 . S
Nd1200 O1223 2.682 . S
Nd1200 O1224 2.410 . S
Nd1200 O1229 2.414 . S
Nd1200 O1231 2.424 . S
Nd1201 C1211 2.836 . S
Nd1201 O1223 2.414 . S
Nd1201 O1225 2.424 . S
Nd1201 O1226 2.500 . S
Nd1201 O1227 2.492 . S
Nd1201 O1228 2.487 . S
Nd1201 O1229 2.682 . S
Nd1201 O1230 2.410 . S
C1202 Nd1200 2.836 . S
C1202 C1203 1.498 . S
C1202 O1220 1.258 . S
C1202 O1221 1.239 . S
C1203 C1202 1.498 . S
C1203 C1204 1.366 . S
C1203 C1208 1.407 . S
C1204 C1203 1.366 . S
C1204 C1205 1.392 . S
C1204 H1232 0.930 . S
C1205 C1204 1.392 . S
C1205 C1206 1.398 . S
C1205 H1233 0.929 . S
C1206 C1205 1.398 . S
C1206 C1207 1.352 . S
C1207 C1206 1.352 . S
C1207 C1208 1.384 . S
C1207 H1234 0.930 . S
C1208 C1203 1.407 . S
C1208 C1207 1.384 . S
C1208 H1235 0.929 . S
C1209 O1222 1.241 . S
C1209 O1223 1.273 . S
C1210 O1224 1.251 . S
C1210 O1225 1.268 . S
C1211 Nd1201 2.836 . S
C1211 C1212 1.498 . S
C1211 O1226 1.258 . S
C1211 O1227 1.239 . S
C1212 C1211 1.498 . S
C1212 C1213 1.366 . S
C1212 C1217 1.407 . S
C1213 C1212 1.366 . S
C1213 C1214 1.392 . S
C1213 H1236 0.930 . S
C1214 C1213 1.392 . S
C1214 C1215 1.398 . S
C1214 H1237 0.929 . S
C1215 C1214 1.398 . S
C1215 C1216 1.352 . S
C1216 C1215 1.352 . S
C1216 C1217 1.384 . S
C1216 H1238 0.930 1_455 S
C1217 C1212 1.407 . S
C1217 C1216 1.384 . S
C1217 H1239 0.929 . S
C1218 O1228 1.241 . S
C1218 O1229 1.273 . S
C1219 O1230 1.251 . S
C1219 O1231 1.268 . S
O1220 Nd1200 2.500 . S
O1220 C1202 1.258 . S
O1221 Nd1200 2.492 . S
O1221 C1202 1.239 . S
O1222 Nd1200 2.487 . S
O1222 C1209 1.241 . S
O1223 Nd1200 2.682 . S
O1223 Nd1201 2.414 . S
O1223 C1209 1.273 . S
O1224 Nd1200 2.410 . S
O1224 C1210 1.251 . S
O1225 Nd1201 2.424 . S
O1225 C1210 1.268 . S
O1226 Nd1201 2.500 . S
O1226 C1211 1.258 . S
O1227 Nd1201 2.492 . S
O1227 C1211 1.239 . S
O1228 Nd1201 2.487 . S
O1228 C1218 1.241 . S
O1229 Nd1200 2.414 . S
O1229 Nd1201 2.682 . S
O1229 C1218 1.273 . S
O1230 Nd1201 2.410 . S
O1230 C1219 1.251 . S
O1231 Nd1200 2.424 . S
O1231 C1219 1.268 . S
H1232 C1204 0.930 . S
H1233 C1205 0.929 . S
H1234 C1207 0.930 . S
H1235 C1208 0.929 . S
H1236 C1213 0.930 . S
H1237 C1214 0.929 . S
H1238 C1216 0.930 1_655 S
H1239 C1217 0.929 . S
Nd1240 C1242 2.836 . S
Nd1240 O1260 2.500 . S
Nd1240 O1261 2.492 . S
Nd1240 O1262 2.487 . S
Nd1240 O1263 2.682 . S
Nd1240 O1264 2.410 . S
Nd1240 O1269 2.414 . S
Nd1240 O1271 2.424 . S
Nd1241 C1251 2.836 . S
Nd1241 O1263 2.414 . S
Nd1241 O1265 2.424 . S
Nd1241 O1266 2.500 . S
Nd1241 O1267 2.492 . S
Nd1241 O1268 2.487 . S
Nd1241 O1269 2.682 . S
Nd1241 O1270 2.410 . S
C1242 Nd1240 2.836 . S
C1242 C1243 1.498 . S
C1242 O1260 1.258 . S
C1242 O1261 1.239 . S
C1243 C1242 1.498 . S
C1243 C1244 1.366 . S
C1243 C1248 1.407 . S
C1244 C1243 1.366 . S
C1244 C1245 1.392 . S
C1244 H1272 0.930 . S
C1245 C1244 1.392 . S
C1245 C1246 1.398 . S
C1245 H1273 0.929 . S
C1246 C1245 1.398 . S
C1246 C1247 1.352 . S
C1247 C1246 1.352 . S
C1247 C1248 1.384 . S
C1247 H1274 0.930 . S
C1248 C1243 1.407 . S
C1248 C1247 1.384 . S
C1248 H1275 0.929 . S
C1249 O1262 1.241 . S
C1249 O1263 1.273 . S
C1250 O1264 1.251 . S
C1250 O1265 1.268 . S
C1251 Nd1241 2.836 . S
C1251 C1252 1.498 . S
C1251 O1266 1.258 . S
C1251 O1267 1.239 . S
C1252 C1251 1.498 . S
C1252 C1253 1.366 . S
C1252 C1257 1.407 . S
C1253 C1252 1.366 . S
C1253 C1254 1.392 . S
C1253 H1276 0.930 . S
C1254 C1253 1.392 . S
C1254 C1255 1.398 . S
C1254 H1277 0.929 . S
C1255 C1254 1.398 . S
C1255 C1256 1.352 . S
C1256 C1255 1.352 . S
C1256 C1257 1.384 . S
C1256 H1278 0.930 . S
C1257 C1252 1.407 . S
C1257 C1256 1.384 . S
C1257 H1279 0.929 . S
C1258 O1268 1.241 . S
C1258 O1269 1.273 . S
C1259 O1270 1.251 . S
C1259 O1271 1.268 . S
O1260 Nd1240 2.500 . S
O1260 C1242 1.258 . S
O1261 Nd1240 2.492 . S
O1261 C1242 1.239 . S
O1262 Nd1240 2.487 . S
O1262 C1249 1.241 . S
O1263 Nd1240 2.682 . S
O1263 Nd1241 2.414 . S
O1263 C1249 1.273 . S
O1264 Nd1240 2.410 . S
O1264 C1250 1.251 . S
O1265 Nd1241 2.424 . S
O1265 C1250 1.268 . S
O1266 Nd1241 2.500 . S
O1266 C1251 1.258 . S
O1267 Nd1241 2.492 . S
O1267 C1251 1.239 . S
O1268 Nd1241 2.487 . S
O1268 C1258 1.241 . S
O1269 Nd1240 2.414 . S
O1269 Nd1241 2.682 . S
O1269 C1258 1.273 . S
O1270 Nd1241 2.410 . S
O1270 C1259 1.251 . S
O1271 Nd1240 2.424 . S
O1271 C1259 1.268 . S
H1272 C1244 0.930 . S
H1273 C1245 0.929 . S
H1274 C1247 0.930 . S
H1275 C1248 0.929 . S
H1276 C1253 0.930 . S
H1277 C1254 0.929 . S
H1278 C1256 0.930 . S
H1279 C1257 0.929 . S
Nd1280 C1282 2.836 . S
Nd1280 O1300 2.500 . S
Nd1280 O1301 2.492 . S
Nd1280 O1302 2.487 . S
Nd1280 O1303 2.682 . S
Nd1280 O1304 2.410 . S
Nd1280 O1309 2.414 . S
Nd1280 O1311 2.424 . S
Nd1281 C1291 2.836 . S
Nd1281 O1303 2.414 . S
Nd1281 O1305 2.424 . S
Nd1281 O1306 2.500 . S
Nd1281 O1307 2.492 . S
Nd1281 O1308 2.487 . S
Nd1281 O1309 2.682 . S
Nd1281 O1310 2.410 . S
C1282 Nd1280 2.836 . S
C1282 C1283 1.498 . S
C1282 O1300 1.258 . S
C1282 O1301 1.239 . S
C1283 C1282 1.498 . S
C1283 C1284 1.366 . S
C1283 C1288 1.407 . S
C1284 C1283 1.366 . S
C1284 C1285 1.392 . S
C1284 H1312 0.930 . S
C1285 C1284 1.392 . S
C1285 C1286 1.398 . S
C1285 H1313 0.929 . S
C1286 C1285 1.398 . S
C1286 C1287 1.352 . S
C1287 C1286 1.352 . S
C1287 C1288 1.384 . S
C1287 H1314 0.930 . S
C1288 C1283 1.407 . S
C1288 C1287 1.384 . S
C1288 H1315 0.929 . S
C1289 O1302 1.241 . S
C1289 O1303 1.273 . S
C1290 O1304 1.251 . S
C1290 O1305 1.268 . S
C1291 Nd1281 2.836 . S
C1291 C1292 1.498 . S
C1291 O1306 1.258 . S
C1291 O1307 1.239 . S
C1292 C1291 1.498 . S
C1292 C1293 1.366 . S
C1292 C1297 1.407 . S
C1293 C1292 1.366 . S
C1293 C1294 1.392 . S
C1293 H1316 0.930 . S
C1294 C1293 1.392 . S
C1294 C1295 1.398 . S
C1294 H1317 0.929 . S
C1295 C1294 1.398 . S
C1295 C1296 1.352 . S
C1296 C1295 1.352 . S
C1296 C1297 1.384 . S
C1296 H1318 0.930 1_565 S
C1297 C1292 1.407 . S
C1297 C1296 1.384 . S
C1297 H1319 0.929 . S
C1298 O1308 1.241 . S
C1298 O1309 1.273 . S
C1299 O1310 1.251 . S
C1299 O1311 1.268 . S
O1300 Nd1280 2.500 . S
O1300 C1282 1.258 . S
O1301 Nd1280 2.492 . S
O1301 C1282 1.239 . S
O1302 Nd1280 2.487 . S
O1302 C1289 1.241 . S
O1303 Nd1280 2.682 . S
O1303 Nd1281 2.414 . S
O1303 C1289 1.273 . S
O1304 Nd1280 2.410 . S
O1304 C1290 1.251 . S
O1305 Nd1281 2.424 . S
O1305 C1290 1.268 . S
O1306 Nd1281 2.500 . S
O1306 C1291 1.258 . S
O1307 Nd1281 2.492 . S
O1307 C1291 1.239 . S
O1308 Nd1281 2.487 . S
O1308 C1298 1.241 . S
O1309 Nd1280 2.414 . S
O1309 Nd1281 2.682 . S
O1309 C1298 1.273 . S
O1310 Nd1281 2.410 . S
O1310 C1299 1.251 . S
O1311 Nd1280 2.424 . S
O1311 C1299 1.268 . S
H1312 C1284 0.930 . S
H1313 C1285 0.929 . S
H1314 C1287 0.930 . S
H1315 C1288 0.929 . S
H1316 C1293 0.930 . S
H1317 C1294 0.929 . S
H1318 C1296 0.930 1_545 S
H1319 C1297 0.929 . S
Nd1320 C1322 2.836 . S
Nd1320 O1340 2.500 . S
Nd1320 O1341 2.492 . S
Nd1320 O1342 2.487 . S
Nd1320 O1343 2.682 . S
Nd1320 O1344 2.410 . S
Nd1320 O1349 2.414 . S
Nd1320 O1351 2.424 . S
Nd1321 C1331 2.836 . S
Nd1321 O1343 2.414 . S
Nd1321 O1345 2.424 . S
Nd1321 O1346 2.500 . S
Nd1321 O1347 2.492 . S
Nd1321 O1348 2.487 . S
Nd1321 O1349 2.682 . S
Nd1321 O1350 2.410 . S
C1322 Nd1320 2.836 . S
C1322 C1323 1.498 . S
C1322 O1340 1.258 . S
C1322 O1341 1.239 . S
C1323 C1322 1.498 . S
C1323 C1324 1.366 . S
C1323 C1328 1.407 . S
C1324 C1323 1.366 . S
C1324 C1325 1.392 . S
C1324 H1352 0.930 . S
C1325 C1324 1.392 . S
C1325 C1326 1.398 . S
C1325 H1353 0.929 1_455 S
C1326 C1325 1.398 . S
C1326 C1327 1.352 . S
C1327 C1326 1.352 . S
C1327 C1328 1.384 . S
C1327 H1354 0.930 . S
C1328 C1323 1.407 . S
C1328 C1327 1.384 . S
C1328 H1355 0.929 . S
C1329 O1342 1.241 . S
C1329 O1343 1.273 . S
C1330 O1344 1.251 . S
C1330 O1345 1.268 . S
C1331 Nd1321 2.836 . S
C1331 C1332 1.498 . S
C1331 O1346 1.258 . S
C1331 O1347 1.239 . S
C1332 C1331 1.498 . S
C1332 C1333 1.366 . S
C1332 C1337 1.407 . S
C1333 C1332 1.366 . S
C1333 C1334 1.392 . S
C1333 H1356 0.930 . S
C1334 C1333 1.392 . S
C1334 C1335 1.398 . S
C1334 H1357 0.929 . S
C1335 C1334 1.398 . S
C1335 C1336 1.352 . S
C1336 C1335 1.352 . S
C1336 C1337 1.384 . S
C1336 H1358 0.930 . S
C1337 C1332 1.407 . S
C1337 C1336 1.384 . S
C1337 H1359 0.929 . S
C1338 O1348 1.241 . S
C1338 O1349 1.273 . S
C1339 O1350 1.251 . S
C1339 O1351 1.268 . S
O1340 Nd1320 2.500 . S
O1340 C1322 1.258 . S
O1341 Nd1320 2.492 . S
O1341 C1322 1.239 . S
O1342 Nd1320 2.487 . S
O1342 C1329 1.241 . S
O1343 Nd1320 2.682 . S
O1343 Nd1321 2.414 . S
O1343 C1329 1.273 . S
O1344 Nd1320 2.410 . S
O1344 C1330 1.251 . S
O1345 Nd1321 2.424 . S
O1345 C1330 1.268 . S
O1346 Nd1321 2.500 . S
O1346 C1331 1.258 . S
O1347 Nd1321 2.492 . S
O1347 C1331 1.239 . S
O1348 Nd1321 2.487 . S
O1348 C1338 1.241 . S
O1349 Nd1320 2.414 . S
O1349 Nd1321 2.682 . S
O1349 C1338 1.273 . S
O1350 Nd1321 2.410 . S
O1350 C1339 1.251 . S
O1351 Nd1320 2.424 . S
O1351 C1339 1.268 . S
H1352 C1324 0.930 . S
H1353 C1325 0.929 1_655 S
H1354 C1327 0.930 . S
H1355 C1328 0.929 . S
H1356 C1333 0.930 . S
H1357 C1334 0.929 . S
H1358 C1336 0.930 . S
H1359 C1337 0.929 . S
Nd1360 C1362 2.836 . S
Nd1360 O1380 2.500 . S
Nd1360 O1381 2.492 . S
Nd1360 O1382 2.487 . S
Nd1360 O1383 2.682 . S
Nd1360 O1384 2.410 . S
Nd1360 O1389 2.414 . S
Nd1360 O1391 2.424 . S
Nd1361 C1371 2.836 . S
Nd1361 O1383 2.414 . S
Nd1361 O1385 2.424 . S
Nd1361 O1386 2.500 . S
Nd1361 O1387 2.492 . S
Nd1361 O1388 2.487 . S
Nd1361 O1389 2.682 . S
Nd1361 O1390 2.410 . S
C1362 Nd1360 2.836 . S
C1362 C1363 1.498 . S
C1362 O1380 1.258 . S
C1362 O1381 1.239 . S
C1363 C1362 1.498 . S
C1363 C1364 1.366 . S
C1363 C1368 1.407 . S
C1364 C1363 1.366 . S
C1364 C1365 1.392 . S
C1364 H1392 0.930 . S
C1365 C1364 1.392 . S
C1365 C1366 1.398 . S
C1365 H1393 0.929 . S
C1366 C1365 1.398 . S
C1366 C1367 1.352 . S
C1367 C1366 1.352 . S
C1367 C1368 1.384 . S
C1367 H1394 0.930 . S
C1368 C1363 1.407 . S
C1368 C1367 1.384 . S
C1368 H1395 0.929 . S
C1369 O1382 1.241 . S
C1369 O1383 1.273 . S
C1370 O1384 1.251 . S
C1370 O1385 1.268 . S
C1371 Nd1361 2.836 . S
C1371 C1372 1.498 . S
C1371 O1386 1.258 . S
C1371 O1387 1.239 . S
C1372 C1371 1.498 . S
C1372 C1373 1.366 . S
C1372 C1377 1.407 . S
C1373 C1372 1.366 . S
C1373 C1374 1.392 . S
C1373 H1396 0.930 . S
C1374 C1373 1.392 . S
C1374 C1375 1.398 . S
C1374 H1397 0.929 . S
C1375 C1374 1.398 . S
C1375 C1376 1.352 . S
C1376 C1375 1.352 . S
C1376 C1377 1.384 . S
C1376 H1398 0.930 . S
C1377 C1372 1.407 . S
C1377 C1376 1.384 . S
C1377 H1399 0.929 . S
C1378 O1388 1.241 . S
C1378 O1389 1.273 . S
C1379 O1390 1.251 . S
C1379 O1391 1.268 . S
O1380 Nd1360 2.500 . S
O1380 C1362 1.258 . S
O1381 Nd1360 2.492 . S
O1381 C1362 1.239 . S
O1382 Nd1360 2.487 . S
O1382 C1369 1.241 . S
O1383 Nd1360 2.682 . S
O1383 Nd1361 2.414 . S
O1383 C1369 1.273 . S
O1384 Nd1360 2.410 . S
O1384 C1370 1.251 . S
O1385 Nd1361 2.424 . S
O1385 C1370 1.268 . S
O1386 Nd1361 2.500 . S
O1386 C1371 1.258 . S
O1387 Nd1361 2.492 . S
O1387 C1371 1.239 . S
O1388 Nd1361 2.487 . S
O1388 C1378 1.241 . S
O1389 Nd1360 2.414 . S
O1389 Nd1361 2.682 . S
O1389 C1378 1.273 . S
O1390 Nd1361 2.410 . S
O1390 C1379 1.251 . S
O1391 Nd1360 2.424 . S
O1391 C1379 1.268 . S
H1392 C1364 0.930 . S
H1393 C1365 0.929 . S
H1394 C1367 0.930 . S
H1395 C1368 0.929 . S
H1396 C1373 0.930 . S
H1397 C1374 0.929 . S
H1398 C1376 0.930 . S
H1399 C1377 0.929 . S
Nd1400 C1402 2.836 . S
Nd1400 O1420 2.500 . S
Nd1400 O1421 2.492 . S
Nd1400 O1422 2.487 . S
Nd1400 O1423 2.682 . S
Nd1400 O1424 2.410 . S
Nd1400 O1429 2.414 . S
Nd1400 O1431 2.424 . S
Nd1401 C1411 2.836 . S
Nd1401 O1423 2.414 . S
Nd1401 O1425 2.424 . S
Nd1401 O1426 2.500 . S
Nd1401 O1427 2.492 . S
Nd1401 O1428 2.487 . S
Nd1401 O1429 2.682 . S
Nd1401 O1430 2.410 . S
C1402 Nd1400 2.836 . S
C1402 C1403 1.498 . S
C1402 O1420 1.258 . S
C1402 O1421 1.239 . S
C1403 C1402 1.498 . S
C1403 C1404 1.366 . S
C1403 C1408 1.407 . S
C1404 C1403 1.366 . S
C1404 C1405 1.392 . S
C1404 H1432 0.930 . S
C1405 C1404 1.392 . S
C1405 C1406 1.398 . S
C1405 H1433 0.929 1_565 S
C1406 C1405 1.398 . S
C1406 C1407 1.352 . S
C1407 C1406 1.352 . S
C1407 C1408 1.384 . S
C1407 H1434 0.930 . S
C1408 C1403 1.407 . S
C1408 C1407 1.384 . S
C1408 H1435 0.929 . S
C1409 O1422 1.241 . S
C1409 O1423 1.273 . S
C1410 O1424 1.251 . S
C1410 O1425 1.268 . S
C1411 Nd1401 2.836 . S
C1411 C1412 1.498 . S
C1411 O1426 1.258 . S
C1411 O1427 1.239 . S
C1412 C1411 1.498 . S
C1412 C1413 1.366 . S
C1412 C1417 1.407 . S
C1413 C1412 1.366 . S
C1413 C1414 1.392 . S
C1413 H1436 0.930 . S
C1414 C1413 1.392 . S
C1414 C1415 1.398 . S
C1414 H1437 0.929 . S
C1415 C1414 1.398 . S
C1415 C1416 1.352 . S
C1416 C1415 1.352 . S
C1416 C1417 1.384 . S
C1416 H1438 0.930 . S
C1417 C1412 1.407 . S
C1417 C1416 1.384 . S
C1417 H1439 0.929 . S
C1418 O1428 1.241 . S
C1418 O1429 1.273 . S
C1419 O1430 1.251 . S
C1419 O1431 1.268 . S
O1420 Nd1400 2.500 . S
O1420 C1402 1.258 . S
O1421 Nd1400 2.492 . S
O1421 C1402 1.239 . S
O1422 Nd1400 2.487 . S
O1422 C1409 1.241 . S
O1423 Nd1400 2.682 . S
O1423 Nd1401 2.414 . S
O1423 C1409 1.273 . S
O1424 Nd1400 2.410 . S
O1424 C1410 1.251 . S
O1425 Nd1401 2.424 . S
O1425 C1410 1.268 . S
O1426 Nd1401 2.500 . S
O1426 C1411 1.258 . S
O1427 Nd1401 2.492 . S
O1427 C1411 1.239 . S
O1428 Nd1401 2.487 . S
O1428 C1418 1.241 . S
O1429 Nd1400 2.414 . S
O1429 Nd1401 2.682 . S
O1429 C1418 1.273 . S
O1430 Nd1401 2.410 . S
O1430 C1419 1.251 . S
O1431 Nd1400 2.424 . S
O1431 C1419 1.268 . S
H1432 C1404 0.930 . S
H1433 C1405 0.929 1_545 S
H1434 C1407 0.930 . S
H1435 C1408 0.929 . S
H1436 C1413 0.930 . S
H1437 C1414 0.929 . S
H1438 C1416 0.930 . S
H1439 C1417 0.929 . S
C1440 C1441 1.391 . S
C1440 C1442 1.394 . S
C1440 H1456 0.931 . S
C1441 C1440 1.391 . S
C1441 C1445 1.376 . S
C1442 C1440 1.394 . S
C1442 C1443 1.369 . S
C1442 C1446 1.531 . S
C1443 C1442 1.369 . S
C1443 C1444 1.410 . S
C1443 C1451 1.503 . S
C1444 C1443 1.410 . S
C1444 C1445 1.392 . S
C1444 C1447 1.511 . S
C1445 C1441 1.376 . S
C1445 C1444 1.392 . S
C1445 H1457 0.929 . S
C1446 C1442 1.531 . S
C1446 H1458 0.960 . S
C1446 H1459 0.962 . S
C1446 H1460 0.960 . S
C1447 C1444 1.511 . S
C1447 H1461 0.961 . S
C1447 H1462 0.961 . S
C1447 H1463 0.961 . S
C1448 C1449 1.370 . S
C1448 C1450 1.363 . S
C1448 H1464 0.931 . S
C1449 C1448 1.370 . S
C1449 C1453 1.408 . S
C1450 C1448 1.363 . S
C1450 C1451 1.370 . S
C1450 C1454 1.524 . S
C1451 C1443 1.503 . S
C1451 C1450 1.370 . S
C1451 C1452 1.403 . S
C1452 C1451 1.403 . S
C1452 C1453 1.404 . S
C1452 C1455 1.539 . S
C1453 C1449 1.408 . S
C1453 C1452 1.404 . S
C1453 H1465 0.930 . S
C1454 C1450 1.524 . S
C1454 H1466 0.956 . S
C1454 H1467 0.961 . S
C1454 H1468 0.961 . S
C1455 C1452 1.539 . S
C1455 H1469 0.958 . S
C1455 H1470 0.961 . S
C1455 H1471 0.960 . S
H1456 C1440 0.931 . S
H1457 C1445 0.929 . S
H1458 C1446 0.960 . S
H1459 C1446 0.962 . S
H1460 C1446 0.960 . S
H1461 C1447 0.961 . S
H1462 C1447 0.961 . S
H1463 C1447 0.961 . S
H1464 C1448 0.931 . S
H1465 C1453 0.930 . S
H1466 C1454 0.956 . S
H1467 C1454 0.961 . S
H1468 C1454 0.961 . S
H1469 C1455 0.958 . S
H1470 C1455 0.961 . S
H1471 C1455 0.960 . S
C1472 C1473 1.391 . S
C1472 C1474 1.394 . S
C1472 H1488 0.931 . S
C1473 C1472 1.391 . S
C1473 C1477 1.376 . S
C1474 C1472 1.394 . S
C1474 C1475 1.369 . S
C1474 C1478 1.531 . S
C1475 C1474 1.369 . S
C1475 C1476 1.410 . S
C1475 C1483 1.503 . S
C1476 C1475 1.410 . S
C1476 C1477 1.392 . S
C1476 C1479 1.511 . S
C1477 C1473 1.376 . S
C1477 C1476 1.392 . S
C1477 H1489 0.929 . S
C1478 C1474 1.531 . S
C1478 H1490 0.960 1_545 S
C1478 H1491 0.962 . S
C1478 H1492 0.960 . S
C1479 C1476 1.511 . S
C1479 H1493 0.961 . S
C1479 H1494 0.961 . S
C1479 H1495 0.961 . S
C1480 C1481 1.370 . S
C1480 C1482 1.363 1_565 S
C1480 H1496 0.931 . S
C1481 C1480 1.370 . S
C1481 C1485 1.408 . S
C1482 C1480 1.363 1_545 S
C1482 C1483 1.370 . S
C1482 C1486 1.524 . S
C1483 C1475 1.503 . S
C1483 C1482 1.370 . S
C1483 C1484 1.403 1_545 S
C1484 C1483 1.403 1_565 S
C1484 C1485 1.404 . S
C1484 C1487 1.539 . S
C1485 C1481 1.408 . S
C1485 C1484 1.404 . S
C1485 H1497 0.930 . S
C1486 C1482 1.524 . S
C1486 H1498 0.956 . S
C1486 H1499 0.961 . S
C1486 H1500 0.961 . S
C1487 C1484 1.539 . S
C1487 H1501 0.958 . S
C1487 H1502 0.961 . S
C1487 H1503 0.960 1_565 S
H1488 C1472 0.931 . S
H1489 C1477 0.929 . S
H1490 C1478 0.960 1_565 S
H1491 C1478 0.962 . S
H1492 C1478 0.960 . S
H1493 C1479 0.961 . S
H1494 C1479 0.961 . S
H1495 C1479 0.961 . S
H1496 C1480 0.931 . S
H1497 C1485 0.930 . S
H1498 C1486 0.956 . S
H1499 C1486 0.961 . S
H1500 C1486 0.961 . S
H1501 C1487 0.958 . S
H1502 C1487 0.961 . S
H1503 C1487 0.960 1_545 S
C1504 C1505 1.391 . S
C1504 C1506 1.394 . S
C1504 H1520 0.931 . S
C1505 C1504 1.391 . S
C1505 C1509 1.376 . S
C1506 C1504 1.394 . S
C1506 C1507 1.369 1_455 S
C1506 C1510 1.531 1_455 S
C1507 C1506 1.369 1_655 S
C1507 C1508 1.410 . S
C1507 C1515 1.503 . S
C1508 C1507 1.410 . S
C1508 C1509 1.392 1_655 S
C1508 C1511 1.511 . S
C1509 C1505 1.376 . S
C1509 C1508 1.392 1_455 S
C1509 H1521 0.929 . S
C1510 C1506 1.531 1_655 S
C1510 H1522 0.960 . S
C1510 H1523 0.962 . S
C1510 H1524 0.944 1_655 S
C1511 C1508 1.511 . S
C1511 H1525 0.961 . S
C1511 H1526 0.961 . S
C1511 H1527 0.961 . S
C1512 C1513 1.370 . S
C1512 C1514 1.363 . S
C1512 H1528 0.931 . S
C1513 C1512 1.370 . S
C1513 C1517 1.408 . S
C1514 C1512 1.363 . S
C1514 C1515 1.370 . S
C1514 C1518 1.524 . S
C1515 C1507 1.503 . S
C1515 C1514 1.370 . S
C1515 C1516 1.403 . S
C1516 C1515 1.403 . S
C1516 C1517 1.404 . S
C1516 C1519 1.539 . S
C1517 C1513 1.408 . S
C1517 C1516 1.404 . S
C1517 H1529 0.930 . S
C1518 C1514 1.524 . S
C1518 H1530 0.954 1_655 S
C1518 H1531 0.961 . S
C1518 H1532 0.961 . S
C1519 C1516 1.539 . S
C1519 H1533 0.958 . S
C1519 H1534 0.961 . S
C1519 H1535 0.960 . S
H1520 C1504 0.931 . S
H1521 C1509 0.929 . S
H1522 C1510 0.960 . S
H1523 C1510 0.962 . S
H1524 C1510 0.944 1_455 S
H1525 C1511 0.961 . S
H1526 C1511 0.961 . S
H1527 C1511 0.961 . S
H1528 C1512 0.931 . S
H1529 C1517 0.930 . S
H1530 C1518 0.954 1_455 S
H1531 C1518 0.961 . S
H1532 C1518 0.961 . S
H1533 C1519 0.958 . S
H1534 C1519 0.961 . S
H1535 C1519 0.960 . S
C1536 C1537 1.391 . S
C1536 C1538 1.394 . S
C1536 H1552 0.931 . S
C1537 C1536 1.391 . S
C1537 C1541 1.376 . S
C1538 C1536 1.394 . S
C1538 C1539 1.369 . S
C1538 C1542 1.531 . S
C1539 C1538 1.369 . S
C1539 C1540 1.410 . S
C1539 C1547 1.503 . S
C1540 C1539 1.410 . S
C1540 C1541 1.392 . S
C1540 C1543 1.511 . S
C1541 C1537 1.376 . S
C1541 C1540 1.392 . S
C1541 H1553 0.929 . S
C1542 C1538 1.531 . S
C1542 H1554 0.960 . S
C1542 H1555 0.962 . S
C1542 H1556 0.960 . S
C1543 C1540 1.511 . S
C1543 H1557 0.961 . S
C1543 H1558 0.961 . S
C1543 H1559 0.961 . S
C1544 C1545 1.370 . S
C1544 C1546 1.363 1_655 S
C1544 H1560 0.931 . S
C1545 C1544 1.370 . S
C1545 C1549 1.408 1_655 S
C1546 C1544 1.363 1_455 S
C1546 C1547 1.370 . S
C1546 C1550 1.524 . S
C1547 C1539 1.503 . S
C1547 C1546 1.370 . S
C1547 C1548 1.403 . S
C1548 C1547 1.403 . S
C1548 C1549 1.404 . S
C1548 C1551 1.539 . S
C1549 C1545 1.408 1_455 S
C1549 C1548 1.404 . S
C1549 H1561 0.930 . S
C1550 C1546 1.524 . S
C1550 H1562 0.956 . S
C1550 H1563 0.961 . S
C1550 H1564 0.961 . S
C1551 C1548 1.539 . S
C1551 H1565 0.958 . S
C1551 H1566 0.961 . S
C1551 H1567 0.960 . S
H1552 C1536 0.931 . S
H1553 C1541 0.929 . S
H1554 C1542 0.960 . S
H1555 C1542 0.962 . S
H1556 C1542 0.960 . S
H1557 C1543 0.961 . S
H1558 C1543 0.961 . S
H1559 C1543 0.961 . S
H1560 C1544 0.931 . S
H1561 C1549 0.930 . S
H1562 C1550 0.956 . S
H1563 C1550 0.961 . S
H1564 C1550 0.961 . S
H1565 C1551 0.958 . S
H1566 C1551 0.961 . S
H1567 C1551 0.960 . S
C1568 C1569 1.391 . S
C1568 C1570 1.394 . S
C1568 H1584 0.931 . S
C1569 C1568 1.391 . S
C1569 C1573 1.376 . S
C1570 C1568 1.394 . S
C1570 C1571 1.369 . S
C1570 C1574 1.531 . S
C1571 C1570 1.369 . S
C1571 C1572 1.410 . S
C1571 C1579 1.503 . S
C1572 C1571 1.410 . S
C1572 C1573 1.392 . S
C1572 C1575 1.511 . S
C1573 C1569 1.376 . S
C1573 C1572 1.392 . S
C1573 H1585 0.929 . S
C1574 C1570 1.531 . S
C1574 H1586 0.960 . S
C1574 H1587 0.962 . S
C1574 H1588 0.960 . S
C1575 C1572 1.511 . S
C1575 H1589 0.961 . S
C1575 H1590 0.961 . S
C1575 H1591 0.961 . S
C1576 C1577 1.370 1_565 S
C1576 C1578 1.363 . S
C1576 H1592 0.916 1_565 S
C1577 C1576 1.370 1_545 S
C1577 C1581 1.408 1_545 S
C1578 C1576 1.363 . S
C1578 C1579 1.370 . S
C1578 C1582 1.524 . S
C1579 C1571 1.503 . S
C1579 C1578 1.370 . S
C1579 C1580 1.403 . S
C1580 C1579 1.403 . S
C1580 C1581 1.404 . S
C1580 C1583 1.539 . S
C1581 C1577 1.408 1_565 S
C1581 C1580 1.404 . S
C1581 H1593 0.930 . S
C1582 C1578 1.524 . S
C1582 H1594 0.956 . S
C1582 H1595 0.961 . S
C1582 H1596 0.961 . S
C1583 C1580 1.539 . S
C1583 H1597 0.958 . S
C1583 H1598 0.961 . S
C1583 H1599 0.960 . S
H1584 C1568 0.931 . S
H1585 C1573 0.929 . S
H1586 C1574 0.960 . S
H1587 C1574 0.962 . S
H1588 C1574 0.960 . S
H1589 C1575 0.961 . S
H1590 C1575 0.961 . S
H1591 C1575 0.961 . S
H1592 C1576 0.916 1_545 S
H1593 C1581 0.930 . S
H1594 C1582 0.956 . S
H1595 C1582 0.961 . S
H1596 C1582 0.961 . S
H1597 C1583 0.958 . S
H1598 C1583 0.961 . S
H1599 C1583 0.960 . S
C1600 C1601 1.391 1_455 S
C1600 C1602 1.394 . S
C1600 H1616 0.931 . S
C1601 C1600 1.391 1_655 S
C1601 C1605 1.376 . S
C1602 C1600 1.394 . S
C1602 C1603 1.369 . S
C1602 C1606 1.531 . S
C1603 C1602 1.369 . S
C1603 C1604 1.410 . S
C1603 C1611 1.503 . S
C1604 C1603 1.410 . S
C1604 C1605 1.392 1_455 S
C1604 C1607 1.511 . S
C1605 C1601 1.376 . S
C1605 C1604 1.392 1_655 S
C1605 H1617 0.929 . S
C1606 C1602 1.531 . S
C1606 H1618 0.960 . S
C1606 H1619 0.962 . S
C1606 H1620 0.960 . S
C1607 C1604 1.511 . S
C1607 H1621 0.961 . S
C1607 H1622 0.961 . S
C1607 H1623 0.961 . S
C1608 C1609 1.370 1_565 S
C1608 C1610 1.363 . S
C1608 H1624 0.931 . S
C1609 C1608 1.370 1_545 S
C1609 C1613 1.402 . S
C1610 C1608 1.363 . S
C1610 C1611 1.370 . S
C1610 C1614 1.524 . S
C1611 C1603 1.503 . S
C1611 C1610 1.370 . S
C1611 C1612 1.403 . S
C1612 C1611 1.403 . S
C1612 C1613 1.383 1_565 S
C1612 C1615 1.539 . S
C1613 C1609 1.402 . S
C1613 C1612 1.383 1_545 S
C1613 H1625 0.957 . S
C1614 C1610 1.524 . S
C1614 H1626 0.956 . S
C1614 H1627 0.961 . S
C1614 H1628 0.961 . S
C1615 C1612 1.539 . S
C1615 H1629 0.958 . S
C1615 H1630 0.961 . S
C1615 H1631 0.960 . S
H1616 C1600 0.931 . S
H1617 C1605 0.929 . S
H1618 C1606 0.960 . S
H1619 C1606 0.962 . S
H1620 C1606 0.960 . S
H1621 C1607 0.961 . S
H1622 C1607 0.961 . S
H1623 C1607 0.961 . S
H1624 C1608 0.931 . S
H1625 C1613 0.957 . S
H1626 C1614 0.956 . S
H1627 C1614 0.961 . S
H1628 C1614 0.961 . S
H1629 C1615 0.958 . S
H1630 C1615 0.961 . S
H1631 C1615 0.960 . S
C1632 C1633 1.391 . S
C1632 C1634 1.394 . S
C1632 H1648 0.931 . S
C1633 C1632 1.391 . S
C1633 C1637 1.376 . S
C1634 C1632 1.394 . S
C1634 C1635 1.369 . S
C1634 C1638 1.531 . S
C1635 C1634 1.369 . S
C1635 C1636 1.410 . S
C1635 C1643 1.503 . S
C1636 C1635 1.410 . S
C1636 C1637 1.392 . S
C1636 C1639 1.511 . S
C1637 C1633 1.376 . S
C1637 C1636 1.392 . S
C1637 H1649 0.929 . S
C1638 C1634 1.531 . S
C1638 H1650 0.960 . S
C1638 H1651 0.962 . S
C1638 H1652 0.960 . S
C1639 C1636 1.511 . S
C1639 H1653 0.961 . S
C1639 H1654 0.961 . S
C1639 H1655 0.961 . S
C1640 C1641 1.370 . S
C1640 C1642 1.363 . S
C1640 H1656 0.931 . S
C1641 C1640 1.370 . S
C1641 C1645 1.408 . S
C1642 C1640 1.363 . S
C1642 C1643 1.370 . S
C1642 C1646 1.524 . S
C1643 C1635 1.503 . S
C1643 C1642 1.370 . S
C1643 C1644 1.403 . S
C1644 C1643 1.403 . S
C1644 C1645 1.404 . S
C1644 C1647 1.539 . S
C1645 C1641 1.408 . S
C1645 C1644 1.404 . S
C1645 H1657 0.930 . S
C1646 C1642 1.524 . S
C1646 H1658 0.956 . S
C1646 H1659 0.961 . S
C1646 H1660 0.961 . S
C1647 C1644 1.539 . S
C1647 H1661 0.958 . S
C1647 H1662 0.961 . S
C1647 H1663 0.960 . S
H1648 C1632 0.931 . S
H1649 C1637 0.929 . S
H1650 C1638 0.960 . S
H1651 C1638 0.962 . S
H1652 C1638 0.960 . S
H1653 C1639 0.961 . S
H1654 C1639 0.961 . S
H1655 C1639 0.961 . S
H1656 C1640 0.931 . S
H1657 C1645 0.930 . S
H1658 C1646 0.956 . S
H1659 C1646 0.961 . S
H1660 C1646 0.961 . S
H1661 C1647 0.958 . S
H1662 C1647 0.961 . S
H1663 C1647 0.960 . S
C1664 C1665 1.391 . S
C1664 C1666 1.394 1_545 S
C1664 H1680 0.931 . S
C1665 C1664 1.391 . S
C1665 C1669 1.376 . S
C1666 C1664 1.394 1_565 S
C1666 C1667 1.369 . S
C1666 C1670 1.531 . S
C1667 C1666 1.369 . S
C1667 C1668 1.410 1_565 S
C1667 C1675 1.503 . S
C1668 C1667 1.410 1_545 S
C1668 C1669 1.392 . S
C1668 C1671 1.511 . S
C1669 C1665 1.376 . S
C1669 C1668 1.392 . S
C1669 H1681 0.929 . S
C1670 C1666 1.531 . S
C1670 H1682 0.960 . S
C1670 H1683 0.962 . S
C1670 H1684 0.960 . S
C1671 C1668 1.511 . S
C1671 H1685 0.961 . S
C1671 H1686 0.961 1_545 S
C1671 H1687 0.961 . S
C1672 C1673 1.370 . S
C1672 C1674 1.363 . S
C1672 H1688 0.931 . S
C1673 C1672 1.370 . S
C1673 C1677 1.408 . S
C1674 C1672 1.363 . S
C1674 C1675 1.370 . S
C1674 C1678 1.524 . S
C1675 C1667 1.503 . S
C1675 C1674 1.370 . S
C1675 C1676 1.403 . S
C1676 C1675 1.403 . S
C1676 C1677 1.404 . S
C1676 C1679 1.539 . S
C1677 C1673 1.408 . S
C1677 C1676 1.404 . S
C1677 H1689 0.930 . S
C1678 C1674 1.524 . S
C1678 H1690 0.956 . S
C1678 H1691 0.961 . S
C1678 H1692 0.961 . S
C1679 C1676 1.539 . S
C1679 H1693 0.958 . S
C1679 H1694 0.961 . S
C1679 H1695 0.960 . S
H1680 C1664 0.931 . S
H1681 C1669 0.929 . S
H1682 C1670 0.960 . S
H1683 C1670 0.962 . S
H1684 C1670 0.960 . S
H1685 C1671 0.961 . S
H1686 C1671 0.961 1_565 S
H1687 C1671 0.961 . S
H1688 C1672 0.931 . S
H1689 C1677 0.930 . S
H1690 C1678 0.956 . S
H1691 C1678 0.961 . S
H1692 C1678 0.961 . S
H1693 C1679 0.958 . S
H1694 C1679 0.961 . S
H1695 C1679 0.960 . S
C1696 C1697 1.391 . S
C1696 C1698 1.394 . S
C1696 H1712 0.931 . S
C1697 C1696 1.391 . S
C1697 C1701 1.376 . S
C1698 C1696 1.394 . S
C1698 C1699 1.369 1_655 S
C1698 C1702 1.531 . S
C1699 C1698 1.369 1_455 S
C1699 C1700 1.410 . S
C1699 C1707 1.503 . S
C1700 C1699 1.410 . S
C1700 C1701 1.392 1_455 S
C1700 C1703 1.511 . S
C1701 C1697 1.376 . S
C1701 C1700 1.392 1_655 S
C1701 H1713 0.929 . S
C1702 C1698 1.531 . S
C1702 H1714 0.960 1_655 S
C1702 H1715 0.962 . S
C1702 H1716 0.960 . S
C1703 C1700 1.511 . S
C1703 H1717 0.961 . S
C1703 H1718 0.961 . S
C1703 H1719 0.961 . S
C1704 C1705 1.370 . S
C1704 C1706 1.363 . S
C1704 H1720 0.931 . S
C1705 C1704 1.370 . S
C1705 C1709 1.408 . S
C1706 C1704 1.363 . S
C1706 C1707 1.370 . S
C1706 C1710 1.524 . S
C1707 C1699 1.503 . S
C1707 C1706 1.370 . S
C1707 C1708 1.403 . S
C1708 C1707 1.403 . S
C1708 C1709 1.404 . S
C1708 C1711 1.539 . S
C1709 C1705 1.408 . S
C1709 C1708 1.404 . S
C1709 H1721 0.930 . S
C1710 C1706 1.524 . S
C1710 H1722 0.956 . S
C1710 H1723 0.961 . S
C1710 H1724 0.961 . S
C1711 C1708 1.539 . S
C1711 H1725 0.958 . S
C1711 H1726 0.961 . S
C1711 H1727 0.960 . S
H1712 C1696 0.931 . S
H1713 C1701 0.929 . S
H1714 C1702 0.960 1_455 S
H1715 C1702 0.962 . S
H1716 C1702 0.960 . S
H1717 C1703 0.961 . S
H1718 C1703 0.961 . S
H1719 C1703 0.961 . S
H1720 C1704 0.931 . S
H1721 C1709 0.930 . S
H1722 C1710 0.956 . S
H1723 C1710 0.961 . S
H1724 C1710 0.961 . S
H1725 C1711 0.958 . S
H1726 C1711 0.961 . S
H1727 C1711 0.960 . S
C1728 C1729 1.391 . S
C1728 C1730 1.394 . S
C1728 H1744 0.931 . S
C1729 C1728 1.391 . S
C1729 C1733 1.376 . S
C1730 C1728 1.394 . S
C1730 C1731 1.369 . S
C1730 C1734 1.531 . S
C1731 C1730 1.369 . S
C1731 C1732 1.410 . S
C1731 C1739 1.503 . S
C1732 C1731 1.410 . S
C1732 C1733 1.392 . S
C1732 C1735 1.511 . S
C1733 C1729 1.376 . S
C1733 C1732 1.392 . S
C1733 H1745 0.929 . S
C1734 C1730 1.531 . S
C1734 H1746 0.960 . S
C1734 H1747 0.962 . S
C1734 H1748 0.960 . S
C1735 C1732 1.511 . S
C1735 H1749 0.961 . S
C1735 H1750 0.961 . S
C1735 H1751 0.961 . S
C1736 C1737 1.370 . S
C1736 C1738 1.363 1_455 S
C1736 H1752 0.931 . S
C1737 C1736 1.370 . S
C1737 C1741 1.408 1_455 S
C1738 C1736 1.363 1_655 S
C1738 C1739 1.370 . S
C1738 C1742 1.524 . S
C1739 C1731 1.503 . S
C1739 C1738 1.370 . S
C1739 C1740 1.403 . S
C1740 C1739 1.403 . S
C1740 C1741 1.404 . S
C1740 C1743 1.539 . S
C1741 C1737 1.408 1_655 S
C1741 C1740 1.404 . S
C1741 H1753 0.930 . S
C1742 C1738 1.524 . S
C1742 H1754 0.956 . S
C1742 H1755 0.961 . S
C1742 H1756 0.961 . S
C1743 C1740 1.539 . S
C1743 H1757 0.958 . S
C1743 H1758 0.961 . S
C1743 H1759 0.960 . S
H1744 C1728 0.931 . S
H1745 C1733 0.929 . S
H1746 C1734 0.960 . S
H1747 C1734 0.962 . S
H1748 C1734 0.960 . S
H1749 C1735 0.961 . S
H1750 C1735 0.961 . S
H1751 C1735 0.961 . S
H1752 C1736 0.931 . S
H1753 C1741 0.930 . S
H1754 C1742 0.956 . S
H1755 C1742 0.961 . S
H1756 C1742 0.961 . S
H1757 C1743 0.958 . S
H1758 C1743 0.961 . S
H1759 C1743 0.960 . S
C1760 C1761 1.391 . S
C1760 C1762 1.394 . S
C1760 H1776 0.931 . S
C1761 C1760 1.391 . S
C1761 C1765 1.376 . S
C1762 C1760 1.394 . S
C1762 C1763 1.369 . S
C1762 C1766 1.531 . S
C1763 C1762 1.369 . S
C1763 C1764 1.410 . S
C1763 C1771 1.503 . S
C1764 C1763 1.410 . S
C1764 C1765 1.392 . S
C1764 C1767 1.511 . S
C1765 C1761 1.376 . S
C1765 C1764 1.392 . S
C1765 H1777 0.929 . S
C1766 C1762 1.531 . S
C1766 H1778 0.960 . S
C1766 H1779 0.962 . S
C1766 H1780 0.960 . S
C1767 C1764 1.511 . S
C1767 H1781 0.961 . S
C1767 H1782 0.961 . S
C1767 H1783 0.961 . S
C1768 C1769 1.370 1_545 S
C1768 C1770 1.363 . S
C1768 H1784 0.931 1_545 S
C1769 C1768 1.370 1_565 S
C1769 C1773 1.408 1_565 S
C1770 C1768 1.363 . S
C1770 C1771 1.370 . S
C1770 C1774 1.524 . S
C1771 C1763 1.503 . S
C1771 C1770 1.370 . S
C1771 C1772 1.403 . S
C1772 C1771 1.403 . S
C1772 C1773 1.404 . S
C1772 C1775 1.539 . S
C1773 C1769 1.408 1_545 S
C1773 C1772 1.404 . S
C1773 H1785 0.930 . S
C1774 C1770 1.524 . S
C1774 H1786 0.956 . S
C1774 H1787 0.961 . S
C1774 H1788 0.961 . S
C1775 C1772 1.539 . S
C1775 H1789 0.958 . S
C1775 H1790 0.961 . S
C1775 H1791 0.960 . S
H1776 C1760 0.931 . S
H1777 C1765 0.929 . S
H1778 C1766 0.960 . S
H1779 C1766 0.962 . S
H1780 C1766 0.960 . S
H1781 C1767 0.961 . S
H1782 C1767 0.961 . S
H1783 C1767 0.961 . S
H1784 C1768 0.931 1_565 S
H1785 C1773 0.930 . S
H1786 C1774 0.956 . S
H1787 C1774 0.961 . S
H1788 C1774 0.961 . S
H1789 C1775 0.958 . S
H1790 C1775 0.961 . S
H1791 C1775 0.960 . S
C1792 C1793 1.391 1_545 S
C1792 C1794 1.394 . S
C1792 H1808 0.931 . S
C1793 C1792 1.391 1_565 S
C1793 C1797 1.364 . S
C1794 C1792 1.394 . S
C1794 C1795 1.369 . S
C1794 C1798 1.531 . S
C1795 C1794 1.369 . S
C1795 C1796 1.410 . S
C1795 C1803 1.503 . S
C1796 C1795 1.410 . S
C1796 C1797 1.369 1_545 S
C1796 C1799 1.511 . S
C1797 C1793 1.364 . S
C1797 C1796 1.369 1_565 S
C1797 H1809 0.966 . S
C1798 C1794 1.531 . S
C1798 H1810 0.960 . S
C1798 H1811 0.962 . S
C1798 H1812 0.960 . S
C1799 C1796 1.511 . S
C1799 H1813 0.961 . S
C1799 H1814 0.961 . S
C1799 H1815 0.961 . S
C1800 C1801 1.370 1_655 S
C1800 C1802 1.363 . S
C1800 H1816 0.931 1_655 S
C1801 C1800 1.370 1_455 S
C1801 C1805 1.408 1_455 S
C1802 C1800 1.363 . S
C1802 C1803 1.370 . S
C1802 C1806 1.524 . S
C1803 C1795 1.503 . S
C1803 C1802 1.370 . S
C1803 C1804 1.403 . S
C1804 C1803 1.403 . S
C1804 C1805 1.404 . S
C1804 C1807 1.539 . S
C1805 C1801 1.408 1_655 S
C1805 C1804 1.404 . S
C1805 H1817 0.930 . S
C1806 C1802 1.524 . S
C1806 H1818 0.956 . S
C1806 H1819 0.961 . S
C1806 H1820 0.961 . S
C1807 C1804 1.539 . S
C1807 H1821 0.958 . S
C1807 H1822 0.961 . S
C1807 H1823 0.960 . S
H1808 C1792 0.931 . S
H1809 C1797 0.966 . S
H1810 C1798 0.960 . S
H1811 C1798 0.962 . S
H1812 C1798 0.960 . S
H1813 C1799 0.961 . S
H1814 C1799 0.961 . S
H1815 C1799 0.961 . S
H1816 C1800 0.931 1_455 S
H1817 C1805 0.930 . S
H1818 C1806 0.956 . S
H1819 C1806 0.961 . S
H1820 C1806 0.961 . S
H1821 C1807 0.958 . S
H1822 C1807 0.961 . S
H1823 C1807 0.960 . S
C1824 C1825 1.391 . S
C1824 C1826 1.394 . S
C1824 H1840 0.931 . S
C1825 C1824 1.391 . S
C1825 C1829 1.376 . S
C1826 C1824 1.394 . S
C1826 C1827 1.369 . S
C1826 C1830 1.531 . S
C1827 C1826 1.369 . S
C1827 C1828 1.410 . S
C1827 C1835 1.503 . S
C1828 C1827 1.410 . S
C1828 C1829 1.392 . S
C1828 C1831 1.511 . S
C1829 C1825 1.376 . S
C1829 C1828 1.392 . S
C1829 H1841 0.929 . S
C1830 C1826 1.531 . S
C1830 H1842 0.960 . S
C1830 H1843 0.962 . S
C1830 H1844 0.960 . S
C1831 C1828 1.511 . S
C1831 H1845 0.961 . S
C1831 H1846 0.961 . S
C1831 H1847 0.961 . S
C1832 C1833 1.370 . S
C1832 C1834 1.363 . S
C1832 H1848 0.931 . S
C1833 C1832 1.370 . S
C1833 C1837 1.408 . S
C1834 C1832 1.363 . S
C1834 C1835 1.370 . S
C1834 C1838 1.524 . S
C1835 C1827 1.503 . S
C1835 C1834 1.370 . S
C1835 C1836 1.403 . S
C1836 C1835 1.403 . S
C1836 C1837 1.404 . S
C1836 C1839 1.539 . S
C1837 C1833 1.408 . S
C1837 C1836 1.404 . S
C1837 H1849 0.930 . S
C1838 C1834 1.524 . S
C1838 H1850 0.956 . S
C1838 H1851 0.961 . S
C1838 H1852 0.961 . S
C1839 C1836 1.539 . S
C1839 H1853 0.958 . S
C1839 H1854 0.961 . S
C1839 H1855 0.960 . S
H1840 C1824 0.931 . S
H1841 C1829 0.929 . S
H1842 C1830 0.960 . S
H1843 C1830 0.962 . S
H1844 C1830 0.960 . S
H1845 C1831 0.961 . S
H1846 C1831 0.961 . S
H1847 C1831 0.961 . S
H1848 C1832 0.931 . S
H1849 C1837 0.930 . S
H1850 C1838 0.956 . S
H1851 C1838 0.961 . S
H1852 C1838 0.961 . S
H1853 C1839 0.958 . S
H1854 C1839 0.961 . S
H1855 C1839 0.960 . S
C1856 C1857 1.391 . S
C1856 C1858 1.394 . S
C1856 H1872 0.931 . S
C1857 C1856 1.391 . S
C1857 C1861 1.376 . S
C1858 C1856 1.394 . S
C1858 C1859 1.369 . S
C1858 C1862 1.531 . S
C1859 C1858 1.369 . S
C1859 C1860 1.410 . S
C1859 C1867 1.503 . S
C1860 C1859 1.410 . S
C1860 C1861 1.392 . S
C1860 C1863 1.511 . S
C1861 C1857 1.376 . S
C1861 C1860 1.392 . S
C1861 H1873 0.929 . S
C1862 C1858 1.531 . S
C1862 H1874 0.960 . S
C1862 H1875 0.962 . S
C1862 H1876 0.960 . S
C1863 C1860 1.511 . S
C1863 H1877 0.961 . S
C1863 H1878 0.961 . S
C1863 H1879 0.961 . S
C1864 C1865 1.370 . S
C1864 C1866 1.363 . S
C1864 H1880 0.931 . S
C1865 C1864 1.370 . S
C1865 C1869 1.408 . S
C1866 C1864 1.363 . S
C1866 C1867 1.370 . S
C1866 C1870 1.524 . S
C1867 C1859 1.503 . S
C1867 C1866 1.370 . S
C1867 C1868 1.403 . S
C1868 C1867 1.403 . S
C1868 C1869 1.404 . S
C1868 C1871 1.539 . S
C1869 C1865 1.408 . S
C1869 C1868 1.404 . S
C1869 H1881 0.930 . S
C1870 C1866 1.524 . S
C1870 H1882 0.956 . S
C1870 H1883 0.961 . S
C1870 H1884 0.961 . S
C1871 C1868 1.539 . S
C1871 H1885 0.958 . S
C1871 H1886 0.961 . S
C1871 H1887 0.960 . S
H1872 C1856 0.931 . S
H1873 C1861 0.929 . S
H1874 C1862 0.960 . S
H1875 C1862 0.962 . S
H1876 C1862 0.960 . S
H1877 C1863 0.961 . S
H1878 C1863 0.961 . S
H1879 C1863 0.961 . S
H1880 C1864 0.931 . S
H1881 C1869 0.930 . S
H1882 C1870 0.956 . S
H1883 C1870 0.961 . S
H1884 C1870 0.961 . S
H1885 C1871 0.958 . S
H1886 C1871 0.961 . S
H1887 C1871 0.960 . S
C1888 C1889 1.391 . S
C1888 C1890 1.394 . S
C1888 H1904 0.931 . S
C1889 C1888 1.391 . S
C1889 C1893 1.376 . S
C1890 C1888 1.394 . S
C1890 C1891 1.369 . S
C1890 C1894 1.531 . S
C1891 C1890 1.369 . S
C1891 C1892 1.410 . S
C1891 C1899 1.503 . S
C1892 C1891 1.410 . S
C1892 C1893 1.392 . S
C1892 C1895 1.511 . S
C1893 C1889 1.376 . S
C1893 C1892 1.392 . S
C1893 H1905 0.929 . S
C1894 C1890 1.531 . S
C1894 H1906 0.960 . S
C1894 H1907 0.962 . S
C1894 H1908 0.960 . S
C1895 C1892 1.511 . S
C1895 H1909 0.961 . S
C1895 H1910 0.961 . S
C1895 H1911 0.961 . S
C1896 C1897 1.370 . S
C1896 C1898 1.363 . S
C1896 H1912 0.931 . S
C1897 C1896 1.370 . S
C1897 C1901 1.408 . S
C1898 C1896 1.363 . S
C1898 C1899 1.370 . S
C1898 C1902 1.524 . S
C1899 C1891 1.503 . S
C1899 C1898 1.370 . S
C1899 C1900 1.403 . S
C1900 C1899 1.403 . S
C1900 C1901 1.404 . S
C1900 C1903 1.539 . S
C1901 C1897 1.408 . S
C1901 C1900 1.404 . S
C1901 H1913 0.930 . S
C1902 C1898 1.524 . S
C1902 H1914 0.956 . S
C1902 H1915 0.961 . S
C1902 H1916 0.961 . S
C1903 C1900 1.539 . S
C1903 H1917 0.958 . S
C1903 H1918 0.961 . S
C1903 H1919 0.960 . S
H1904 C1888 0.931 . S
H1905 C1893 0.929 . S
H1906 C1894 0.960 . S
H1907 C1894 0.962 . S
H1908 C1894 0.960 . S
H1909 C1895 0.961 . S
H1910 C1895 0.961 . S
H1911 C1895 0.961 . S
H1912 C1896 0.931 . S
H1913 C1901 0.930 . S
H1914 C1902 0.956 . S
H1915 C1902 0.961 . S
H1916 C1902 0.961 . S
H1917 C1903 0.958 . S
H1918 C1903 0.961 . S
H1919 C1903 0.960 . S
C1920 C1921 1.391 . S
C1920 C1922 1.394 . S
C1920 H1936 0.931 . S
C1921 C1920 1.391 . S
C1921 C1925 1.376 . S
C1922 C1920 1.394 . S
C1922 C1923 1.369 . S
C1922 C1926 1.531 . S
C1923 C1922 1.369 . S
C1923 C1924 1.410 . S
C1923 C1931 1.503 . S
C1924 C1923 1.410 . S
C1924 C1925 1.392 . S
C1924 C1927 1.511 . S
C1925 C1921 1.376 . S
C1925 C1924 1.392 . S
C1925 H1937 0.929 . S
C1926 C1922 1.531 . S
C1926 H1938 0.960 . S
C1926 H1939 0.962 . S
C1926 H1940 0.960 . S
C1927 C1924 1.511 . S
C1927 H1941 0.961 . S
C1927 H1942 0.961 . S
C1927 H1943 0.961 . S
C1928 C1929 1.370 . S
C1928 C1930 1.363 . S
C1928 H1944 0.931 . S
C1929 C1928 1.370 . S
C1929 C1933 1.408 . S
C1930 C1928 1.363 . S
C1930 C1931 1.370 . S
C1930 C1934 1.524 . S
C1931 C1923 1.503 . S
C1931 C1930 1.370 . S
C1931 C1932 1.403 . S
C1932 C1931 1.403 . S
C1932 C1933 1.404 . S
C1932 C1935 1.539 . S
C1933 C1929 1.408 . S
C1933 C1932 1.404 . S
C1933 H1945 0.930 . S
C1934 C1930 1.524 . S
C1934 H1946 0.956 . S
C1934 H1947 0.961 . S
C1934 H1948 0.961 . S
C1935 C1932 1.539 . S
C1935 H1949 0.958 . S
C1935 H1950 0.961 . S
C1935 H1951 0.960 . S
H1936 C1920 0.931 . S
H1937 C1925 0.929 . S
H1938 C1926 0.960 . S
H1939 C1926 0.962 . S
H1940 C1926 0.960 . S
H1941 C1927 0.961 . S
H1942 C1927 0.961 . S
H1943 C1927 0.961 . S
H1944 C1928 0.931 . S
H1945 C1933 0.930 . S
H1946 C1934 0.956 . S
H1947 C1934 0.961 . S
H1948 C1934 0.961 . S
H1949 C1935 0.958 . S
H1950 C1935 0.961 . S
H1951 C1935 0.960 . S
C1952 C1953 1.391 . S
C1952 C1954 1.394 . S
C1952 H1968 0.931 . S
C1953 C1952 1.391 . S
C1953 C1957 1.376 . S
C1954 C1952 1.394 . S
C1954 C1955 1.369 . S
C1954 C1958 1.531 . S
C1955 C1954 1.369 . S
C1955 C1956 1.410 . S
C1955 C1963 1.503 . S
C1956 C1955 1.410 . S
C1956 C1957 1.392 . S
C1956 C1959 1.511 . S
C1957 C1953 1.376 . S
C1957 C1956 1.392 . S
C1957 H1969 0.929 . S
C1958 C1954 1.531 . S
C1958 H1970 0.960 . S
C1958 H1971 0.962 . S
C1958 H1972 0.960 . S
C1959 C1956 1.511 . S
C1959 H1973 0.961 . S
C1959 H1974 0.961 . S
C1959 H1975 0.961 . S
C1960 C1961 1.370 . S
C1960 C1962 1.363 . S
C1960 H1976 0.931 . S
C1961 C1960 1.370 . S
C1961 C1965 1.408 . S
C1962 C1960 1.363 . S
C1962 C1963 1.370 . S
C1962 C1966 1.524 . S
C1963 C1955 1.503 . S
C1963 C1962 1.370 . S
C1963 C1964 1.403 . S
C1964 C1963 1.403 . S
C1964 C1965 1.404 . S
C1964 C1967 1.539 . S
C1965 C1961 1.408 . S
C1965 C1964 1.404 . S
C1965 H1977 0.930 . S
C1966 C1962 1.524 . S
C1966 H1978 0.956 . S
C1966 H1979 0.961 . S
C1966 H1980 0.961 . S
C1967 C1964 1.539 . S
C1967 H1981 0.958 . S
C1967 H1982 0.961 . S
C1967 H1983 0.960 . S
H1968 C1952 0.931 . S
H1969 C1957 0.929 . S
H1970 C1958 0.960 . S
H1971 C1958 0.962 . S
H1972 C1958 0.960 . S
H1973 C1959 0.961 . S
H1974 C1959 0.961 . S
H1975 C1959 0.961 . S
H1976 C1960 0.931 . S
H1977 C1965 0.930 . S
H1978 C1966 0.956 . S
H1979 C1966 0.961 . S
H1980 C1966 0.961 . S
H1981 C1967 0.958 . S
H1982 C1967 0.961 . S
H1983 C1967 0.960 . S
C1984 C1985 1.391 . S
C1984 C1986 1.394 . S
C1984 H2000 0.931 . S
C1985 C1984 1.391 . S
C1985 C1989 1.376 . S
C1986 C1984 1.394 . S
C1986 C1987 1.369 . S
C1986 C1990 1.531 . S
C1987 C1986 1.369 . S
C1987 C1988 1.410 . S
C1987 C1995 1.503 . S
C1988 C1987 1.410 . S
C1988 C1989 1.392 . S
C1988 C1991 1.511 . S
C1989 C1985 1.376 . S
C1989 C1988 1.392 . S
C1989 H2001 0.929 . S
C1990 C1986 1.531 . S
C1990 H2002 0.960 . S
C1990 H2003 0.962 . S
C1990 H2004 0.960 . S
C1991 C1988 1.511 . S
C1991 H2005 0.961 . S
C1991 H2006 0.961 . S
C1991 H2007 0.961 . S
C1992 C1993 1.370 . S
C1992 C1994 1.363 . S
C1992 H2008 0.931 . S
C1993 C1992 1.370 . S
C1993 C1997 1.408 . S
C1994 C1992 1.363 . S
C1994 C1995 1.370 . S
C1994 C1998 1.524 . S
C1995 C1987 1.503 . S
C1995 C1994 1.370 . S
C1995 C1996 1.403 . S
C1996 C1995 1.403 . S
C1996 C1997 1.404 . S
C1996 C1999 1.539 . S
C1997 C1993 1.408 . S
C1997 C1996 1.404 . S
C1997 H2009 0.930 . S
C1998 C1994 1.524 . S
C1998 H2010 0.956 . S
C1998 H2011 0.961 . S
C1998 H2012 0.961 . S
C1999 C1996 1.539 . S
C1999 H2013 0.958 . S
C1999 H2014 0.961 . S
C1999 H2015 0.960 . S
H2000 C1984 0.931 . S
H2001 C1989 0.929 . S
H2002 C1990 0.960 . S
H2003 C1990 0.962 . S
H2004 C1990 0.960 . S
H2005 C1991 0.961 . S
H2006 C1991 0.961 . S
H2007 C1991 0.961 . S
H2008 C1992 0.931 . S
H2009 C1997 0.930 . S
H2010 C1998 0.956 . S
H2011 C1998 0.961 . S
H2012 C1998 0.961 . S
H2013 C1999 0.958 . S
H2014 C1999 0.961 . S
H2015 C1999 0.960 . S
C2016 C2017 1.391 . S
C2016 C2018 1.394 . S
C2016 H2032 0.931 . S
C2017 C2016 1.391 . S
C2017 C2021 1.376 . S
C2018 C2016 1.394 . S
C2018 C2019 1.369 . S
C2018 C2022 1.531 . S
C2019 C2018 1.369 . S
C2019 C2020 1.410 . S
C2019 C2027 1.503 . S
C2020 C2019 1.410 . S
C2020 C2021 1.392 . S
C2020 C2023 1.511 . S
C2021 C2017 1.376 . S
C2021 C2020 1.392 . S
C2021 H2033 0.929 . S
C2022 C2018 1.531 . S
C2022 H2034 0.960 . S
C2022 H2035 0.962 . S
C2022 H2036 0.960 . S
C2023 C2020 1.511 . S
C2023 H2037 0.961 . S
C2023 H2038 0.961 . S
C2023 H2039 0.961 . S
C2024 C2025 1.370 . S
C2024 C2026 1.363 . S
C2024 H2040 0.931 . S
C2025 C2024 1.370 . S
C2025 C2029 1.408 . S
C2026 C2024 1.363 . S
C2026 C2027 1.370 . S
C2026 C2030 1.524 . S
C2027 C2019 1.503 . S
C2027 C2026 1.370 . S
C2027 C2028 1.403 . S
C2028 C2027 1.403 . S
C2028 C2029 1.404 . S
C2028 C2031 1.539 . S
C2029 C2025 1.408 . S
C2029 C2028 1.404 . S
C2029 H2041 0.930 . S
C2030 C2026 1.524 . S
C2030 H2042 0.956 . S
C2030 H2043 0.961 . S
C2030 H2044 0.961 . S
C2031 C2028 1.539 . S
C2031 H2045 0.958 . S
C2031 H2046 0.961 . S
C2031 H2047 0.960 . S
H2032 C2016 0.931 . S
H2033 C2021 0.929 . S
H2034 C2022 0.960 . S
H2035 C2022 0.962 . S
H2036 C2022 0.960 . S
H2037 C2023 0.961 . S
H2038 C2023 0.961 . S
H2039 C2023 0.961 . S
H2040 C2024 0.931 . S
H2041 C2029 0.930 . S
H2042 C2030 0.956 . S
H2043 C2030 0.961 . S
H2044 C2030 0.961 . S
H2045 C2031 0.958 . S
H2046 C2031 0.961 . S
H2047 C2031 0.960 . S
C2048 C2049 1.391 . S
C2048 C2050 1.394 . S
C2048 H2064 0.931 . S
C2049 C2048 1.391 . S
C2049 C2053 1.376 . S
C2050 C2048 1.394 . S
C2050 C2051 1.369 . S
C2050 C2054 1.531 . S
C2051 C2050 1.369 . S
C2051 C2052 1.410 . S
C2051 C2059 1.503 . S
C2052 C2051 1.410 . S
C2052 C2053 1.392 . S
C2052 C2055 1.511 . S
C2053 C2049 1.376 . S
C2053 C2052 1.392 . S
C2053 H2065 0.929 . S
C2054 C2050 1.531 . S
C2054 H2066 0.960 . S
C2054 H2067 0.962 . S
C2054 H2068 0.960 . S
C2055 C2052 1.511 . S
C2055 H2069 0.961 . S
C2055 H2070 0.961 . S
C2055 H2071 0.961 . S
C2056 C2057 1.370 . S
C2056 C2058 1.363 . S
C2056 H2072 0.931 . S
C2057 C2056 1.370 . S
C2057 C2061 1.408 . S
C2058 C2056 1.363 . S
C2058 C2059 1.370 . S
C2058 C2062 1.524 . S
C2059 C2051 1.503 . S
C2059 C2058 1.370 . S
C2059 C2060 1.403 . S
C2060 C2059 1.403 . S
C2060 C2061 1.404 . S
C2060 C2063 1.539 . S
C2061 C2057 1.408 . S
C2061 C2060 1.404 . S
C2061 H2073 0.930 . S
C2062 C2058 1.524 . S
C2062 H2074 0.956 . S
C2062 H2075 0.961 . S
C2062 H2076 0.961 . S
C2063 C2060 1.539 . S
C2063 H2077 0.958 . S
C2063 H2078 0.961 . S
C2063 H2079 0.960 . S
H2064 C2048 0.931 . S
H2065 C2053 0.929 . S
H2066 C2054 0.960 . S
H2067 C2054 0.962 . S
H2068 C2054 0.960 . S
H2069 C2055 0.961 . S
H2070 C2055 0.961 . S
H2071 C2055 0.961 . S
H2072 C2056 0.931 . S
H2073 C2061 0.930 . S
H2074 C2062 0.956 . S
H2075 C2062 0.961 . S
H2076 C2062 0.961 . S
H2077 C2063 0.958 . S
H2078 C2063 0.961 . S
H2079 C2063 0.960 . S
C2080 C2081 1.391 . S
C2080 C2082 1.394 . S
C2080 H2096 0.931 . S
C2081 C2080 1.391 . S
C2081 C2085 1.376 . S
C2082 C2080 1.394 . S
C2082 C2083 1.369 . S
C2082 C2086 1.531 . S
C2083 C2082 1.369 . S
C2083 C2084 1.410 . S
C2083 C2091 1.503 . S
C2084 C2083 1.410 . S
C2084 C2085 1.392 . S
C2084 C2087 1.511 . S
C2085 C2081 1.376 . S
C2085 C2084 1.392 . S
C2085 H2097 0.929 . S
C2086 C2082 1.531 . S
C2086 H2098 0.960 . S
C2086 H2099 0.962 . S
C2086 H2100 0.960 . S
C2087 C2084 1.511 . S
C2087 H2101 0.961 . S
C2087 H2102 0.961 . S
C2087 H2103 0.961 . S
C2088 C2089 1.370 . S
C2088 C2090 1.363 . S
C2088 H2104 0.931 . S
C2089 C2088 1.370 . S
C2089 C2093 1.408 . S
C2090 C2088 1.363 . S
C2090 C2091 1.370 . S
C2090 C2094 1.524 . S
C2091 C2083 1.503 . S
C2091 C2090 1.370 . S
C2091 C2092 1.403 . S
C2092 C2091 1.403 . S
C2092 C2093 1.404 . S
C2092 C2095 1.539 . S
C2093 C2089 1.408 . S
C2093 C2092 1.404 . S
C2093 H2105 0.930 . S
C2094 C2090 1.524 . S
C2094 H2106 0.956 . S
C2094 H2107 0.961 . S
C2094 H2108 0.961 . S
C2095 C2092 1.539 . S
C2095 H2109 0.958 . S
C2095 H2110 0.961 . S
C2095 H2111 0.960 . S
H2096 C2080 0.931 . S
H2097 C2085 0.929 . S
H2098 C2086 0.960 . S
H2099 C2086 0.962 . S
H2100 C2086 0.960 . S
H2101 C2087 0.961 . S
H2102 C2087 0.961 . S
H2103 C2087 0.961 . S
H2104 C2088 0.931 . S
H2105 C2093 0.930 . S
H2106 C2094 0.956 . S
H2107 C2094 0.961 . S
H2108 C2094 0.961 . S
H2109 C2095 0.958 . S
H2110 C2095 0.961 . S
H2111 C2095 0.960 . S
C2112 C2113 1.391 . S
C2112 C2114 1.394 . S
C2112 H2128 0.931 . S
C2113 C2112 1.391 . S
C2113 C2117 1.370 1_554 S
C2114 C2112 1.394 . S
C2114 C2115 1.362 1_554 S
C2114 C2118 1.531 . S
C2115 C2114 1.362 1_556 S
C2115 C2116 1.415 . S
C2115 C2123 1.503 . S
C2116 C2115 1.415 . S
C2116 C2117 1.396 . S
C2116 C2119 1.511 . S
C2117 C2113 1.370 1_556 S
C2117 C2116 1.396 . S
C2117 H2129 0.932 . S
C2118 C2114 1.531 . S
C2118 H2130 0.960 1_554 S
C2118 H2131 0.962 . S
C2118 H2132 0.958 1_554 S
C2119 C2116 1.511 . S
C2119 H2133 0.961 . S
C2119 H2134 0.995 . S
C2119 H2135 0.961 . S
C2120 C2121 1.410 . S
C2120 C2122 1.363 . S
C2120 H2136 0.931 . S
C2121 C2120 1.410 . S
C2121 C2125 1.366 1_554 S
C2122 C2120 1.363 . S
C2122 C2123 1.361 1_554 S
C2122 C2126 1.524 . S
C2123 C2115 1.503 . S
C2123 C2122 1.361 1_556 S
C2123 C2124 1.412 . S
C2124 C2123 1.412 . S
C2124 C2125 1.404 . S
C2124 C2127 1.539 . S
C2125 C2121 1.366 1_556 S
C2125 C2124 1.404 . S
C2125 H2137 0.930 . S
C2126 C2122 1.524 . S
C2126 H2138 0.956 . S
C2126 H2139 0.961 . S
C2126 H2140 0.961 . S
C2127 C2124 1.539 . S
C2127 H2141 0.958 . S
C2127 H2142 0.961 . S
C2127 H2143 0.960 . S
H2128 C2112 0.931 . S
H2129 C2117 0.932 . S
H2130 C2118 0.960 1_556 S
H2131 C2118 0.962 . S
H2132 C2118 0.958 1_556 S
H2133 C2119 0.961 . S
H2134 C2119 0.995 . S
H2135 C2119 0.961 . S
H2136 C2120 0.931 . S
H2137 C2125 0.930 . S
H2138 C2126 0.956 . S
H2139 C2126 0.961 . S
H2140 C2126 0.961 . S
H2141 C2127 0.958 . S
H2142 C2127 0.961 . S
H2143 C2127 0.960 . S
C2144 C2145 1.393 1_556 S
C2144 C2146 1.394 . S
C2144 H2160 0.931 . S
C2145 C2144 1.393 1_554 S
C2145 C2149 1.374 . S
C2146 C2144 1.394 . S
C2146 C2147 1.400 . S
C2146 C2150 1.531 . S
C2147 C2146 1.400 . S
C2147 C2148 1.381 1_556 S
C2147 C2155 1.498 1_556 S
C2148 C2147 1.381 1_554 S
C2148 C2149 1.392 . S
C2148 C2151 1.511 . S
C2149 C2145 1.374 . S
C2149 C2148 1.392 . S
C2149 H2161 0.929 . S
C2150 C2146 1.531 . S
C2150 H2162 0.960 . S
C2150 H2163 0.962 . S
C2150 H2164 0.960 . S
C2151 C2148 1.511 . S
C2151 H2165 0.961 . S
C2151 H2166 0.961 . S
C2151 H2167 0.961 . S
C2152 C2153 1.370 . S
C2152 C2154 1.363 . S
C2152 H2168 0.931 . S
C2153 C2152 1.370 . S
C2153 C2157 1.408 1_554 S
C2154 C2152 1.363 . S
C2154 C2155 1.402 . S
C2154 C2158 1.524 . S
C2155 C2147 1.498 1_554 S
C2155 C2154 1.402 . S
C2155 C2156 1.375 1_554 S
C2156 C2155 1.375 1_556 S
C2156 C2157 1.404 . S
C2156 C2159 1.539 . S
C2157 C2153 1.408 1_556 S
C2157 C2156 1.404 . S
C2157 H2169 0.930 . S
C2158 C2154 1.524 . S
C2158 H2170 0.956 . S
C2158 H2171 0.961 . S
C2158 H2172 0.961 . S
C2159 C2156 1.539 . S
C2159 H2173 0.958 . S
C2159 H2174 0.961 . S
C2159 H2175 0.960 . S
H2160 C2144 0.931 . S
H2161 C2149 0.929 . S
H2162 C2150 0.960 . S
H2163 C2150 0.962 . S
H2164 C2150 0.960 . S
H2165 C2151 0.961 . S
H2166 C2151 0.961 . S
H2167 C2151 0.961 . S
H2168 C2152 0.931 . S
H2169 C2157 0.930 . S
H2170 C2158 0.956 . S
H2171 C2158 0.961 . S
H2172 C2158 0.961 . S
H2173 C2159 0.958 . S
H2174 C2159 0.961 . S
H2175 C2159 0.960 . S
C2176 C2177 1.391 . S
C2176 C2178 1.394 . S
C2176 H2192 0.931 . S
C2177 C2176 1.391 . S
C2177 C2181 1.376 1_554 S
C2178 C2176 1.394 . S
C2178 C2179 1.369 . S
C2178 C2182 1.531 . S
C2179 C2178 1.369 . S
C2179 C2180 1.410 1_554 S
C2179 C2187 1.503 . S
C2180 C2179 1.410 1_556 S
C2180 C2181 1.392 . S
C2180 C2183 1.511 . S
C2181 C2177 1.376 1_556 S
C2181 C2180 1.392 . S
C2181 H2193 0.929 . S
C2182 C2178 1.531 . S
C2182 H2194 0.960 . S
C2182 H2195 0.962 . S
C2182 H2196 0.960 . S
C2183 C2180 1.511 . S
C2183 H2197 0.961 . S
C2183 H2198 0.961 . S
C2183 H2199 0.961 . S
C2184 C2185 1.377 . S
C2184 C2186 1.363 . S
C2184 H2200 0.931 . S
C2185 C2184 1.377 . S
C2185 C2189 1.413 . S
C2186 C2184 1.363 . S
C2186 C2187 1.370 . S
C2186 C2190 1.524 . S
C2187 C2179 1.503 . S
C2187 C2186 1.370 . S
C2187 C2188 1.403 . S
C2188 C2187 1.403 . S
C2188 C2189 1.404 . S
C2188 C2191 1.539 . S
C2189 C2185 1.413 . S
C2189 C2188 1.404 . S
C2189 H2201 0.936 . S
C2190 C2186 1.524 . S
C2190 H2202 0.956 . S
C2190 H2203 0.961 1_554 S
C2190 H2204 0.975 . S
C2191 C2188 1.539 . S
C2191 H2205 0.958 . S
C2191 H2206 0.961 1_554 S
C2191 H2207 0.960 1_554 S
H2192 C2176 0.931 . S
H2193 C2181 0.929 . S
H2194 C2182 0.960 . S
H2195 C2182 0.962 . S
H2196 C2182 0.960 . S
H2197 C2183 0.961 . S
H2198 C2183 0.961 . S
H2199 C2183 0.961 . S
H2200 C2184 0.931 . S
H2201 C2189 0.936 . S
H2202 C2190 0.956 . S
H2203 C2190 0.961 1_556 S
H2204 C2190 0.975 . S
H2205 C2191 0.958 . S
H2206 C2191 0.961 1_556 S
H2207 C2191 0.960 1_556 S
C2208 C2209 1.391 . S
C2208 C2210 1.394 . S
C2208 H2224 0.931 . S
C2209 C2208 1.391 . S
C2209 C2213 1.376 . S
C2210 C2208 1.394 . S
C2210 C2211 1.369 . S
C2210 C2214 1.531 . S
C2211 C2210 1.369 . S
C2211 C2212 1.410 . S
C2211 C2219 1.503 . S
C2212 C2211 1.410 . S
C2212 C2213 1.392 . S
C2212 C2215 1.511 . S
C2213 C2209 1.376 . S
C2213 C2212 1.392 . S
C2213 H2225 0.929 . S
C2214 C2210 1.531 . S
C2214 H2226 0.960 . S
C2214 H2227 0.962 . S
C2214 H2228 0.960 . S
C2215 C2212 1.511 . S
C2215 H2229 0.961 . S
C2215 H2230 0.961 . S
C2215 H2231 0.961 . S
C2216 C2217 1.370 . S
C2216 C2218 1.363 . S
C2216 H2232 0.931 . S
C2217 C2216 1.370 . S
C2217 C2221 1.408 . S
C2218 C2216 1.363 . S
C2218 C2219 1.370 . S
C2218 C2222 1.524 . S
C2219 C2211 1.503 . S
C2219 C2218 1.370 . S
C2219 C2220 1.403 . S
C2220 C2219 1.403 . S
C2220 C2221 1.404 . S
C2220 C2223 1.539 . S
C2221 C2217 1.408 . S
C2221 C2220 1.404 . S
C2221 H2233 0.930 . S
C2222 C2218 1.524 . S
C2222 H2234 0.956 . S
C2222 H2235 0.961 . S
C2222 H2236 0.961 . S
C2223 C2220 1.539 . S
C2223 H2237 0.958 . S
C2223 H2238 0.961 . S
C2223 H2239 0.960 . S
H2224 C2208 0.931 . S
H2225 C2213 0.929 . S
H2226 C2214 0.960 . S
H2227 C2214 0.962 . S
H2228 C2214 0.960 . S
H2229 C2215 0.961 . S
H2230 C2215 0.961 . S
H2231 C2215 0.961 . S
H2232 C2216 0.931 . S
H2233 C2221 0.930 . S
H2234 C2222 0.956 . S
H2235 C2222 0.961 . S
H2236 C2222 0.961 . S
H2237 C2223 0.958 . S
H2238 C2223 0.961 . S
H2239 C2223 0.960 . S
C2240 C2241 1.391 . S
C2240 C2242 1.394 . S
C2240 H2256 0.931 . S
C2241 C2240 1.391 . S
C2241 C2245 1.376 . S
C2242 C2240 1.394 . S
C2242 C2243 1.369 . S
C2242 C2246 1.531 . S
C2243 C2242 1.369 . S
C2243 C2244 1.410 . S
C2243 C2251 1.503 . S
C2244 C2243 1.410 . S
C2244 C2245 1.392 . S
C2244 C2247 1.511 . S
C2245 C2241 1.376 . S
C2245 C2244 1.392 . S
C2245 H2257 0.929 . S
C2246 C2242 1.531 . S
C2246 H2258 0.960 . S
C2246 H2259 0.962 . S
C2246 H2260 0.960 . S
C2247 C2244 1.511 . S
C2247 H2261 0.961 . S
C2247 H2262 0.961 . S
C2247 H2263 0.961 . S
C2248 C2249 1.370 . S
C2248 C2250 1.363 . S
C2248 H2264 0.931 . S
C2249 C2248 1.370 . S
C2249 C2253 1.408 . S
C2250 C2248 1.363 . S
C2250 C2251 1.370 . S
C2250 C2254 1.524 . S
C2251 C2243 1.503 . S
C2251 C2250 1.370 . S
C2251 C2252 1.403 . S
C2252 C2251 1.403 . S
C2252 C2253 1.404 . S
C2252 C2255 1.539 . S
C2253 C2249 1.408 . S
C2253 C2252 1.404 . S
C2253 H2265 0.930 . S
C2254 C2250 1.524 . S
C2254 H2266 0.956 . S
C2254 H2267 0.961 . S
C2254 H2268 0.961 . S
C2255 C2252 1.539 . S
C2255 H2269 0.958 . S
C2255 H2270 0.961 . S
C2255 H2271 0.960 . S
H2256 C2240 0.931 . S
H2257 C2245 0.929 . S
H2258 C2246 0.960 . S
H2259 C2246 0.962 . S
H2260 C2246 0.960 . S
H2261 C2247 0.961 . S
H2262 C2247 0.961 . S
H2263 C2247 0.961 . S
H2264 C2248 0.931 . S
H2265 C2253 0.930 . S
H2266 C2254 0.956 . S
H2267 C2254 0.961 . S
H2268 C2254 0.961 . S
H2269 C2255 0.958 . S
H2270 C2255 0.961 . S
H2271 C2255 0.960 . S
C2272 C2273 1.391 . S
C2272 C2274 1.394 . S
C2272 H2288 0.931 . S
C2273 C2272 1.391 . S
C2273 C2277 1.376 . S
C2274 C2272 1.394 . S
C2274 C2275 1.369 . S
C2274 C2278 1.531 . S
C2275 C2274 1.369 . S
C2275 C2276 1.410 . S
C2275 C2283 1.503 . S
C2276 C2275 1.410 . S
C2276 C2277 1.392 . S
C2276 C2279 1.511 . S
C2277 C2273 1.376 . S
C2277 C2276 1.392 . S
C2277 H2289 0.929 . S
C2278 C2274 1.531 . S
C2278 H2290 0.960 . S
C2278 H2291 0.962 . S
C2278 H2292 0.960 . S
C2279 C2276 1.511 . S
C2279 H2293 0.961 . S
C2279 H2294 0.961 . S
C2279 H2295 0.961 . S
C2280 C2281 1.370 . S
C2280 C2282 1.363 . S
C2280 H2296 0.931 . S
C2281 C2280 1.370 . S
C2281 C2285 1.408 . S
C2282 C2280 1.363 . S
C2282 C2283 1.370 . S
C2282 C2286 1.524 . S
C2283 C2275 1.503 . S
C2283 C2282 1.370 . S
C2283 C2284 1.403 . S
C2284 C2283 1.403 . S
C2284 C2285 1.404 . S
C2284 C2287 1.539 . S
C2285 C2281 1.408 . S
C2285 C2284 1.404 . S
C2285 H2297 0.930 . S
C2286 C2282 1.524 . S
C2286 H2298 0.956 . S
C2286 H2299 0.961 . S
C2286 H2300 0.961 . S
C2287 C2284 1.539 . S
C2287 H2301 0.958 . S
C2287 H2302 0.961 . S
C2287 H2303 0.960 . S
H2288 C2272 0.931 . S
H2289 C2277 0.929 . S
H2290 C2278 0.960 . S
H2291 C2278 0.962 . S
H2292 C2278 0.960 . S
H2293 C2279 0.961 . S
H2294 C2279 0.961 . S
H2295 C2279 0.961 . S
H2296 C2280 0.931 . S
H2297 C2285 0.930 . S
H2298 C2286 0.956 . S
H2299 C2286 0.961 . S
H2300 C2286 0.961 . S
H2301 C2287 0.958 . S
H2302 C2287 0.961 . S
H2303 C2287 0.960 . S
C2304 C2305 1.391 . S
C2304 C2306 1.394 . S
C2304 H2320 0.931 . S
C2305 C2304 1.391 . S
C2305 C2309 1.376 1_556 S
C2306 C2304 1.394 . S
C2306 C2307 1.369 . S
C2306 C2310 1.531 . S
C2307 C2306 1.369 . S
C2307 C2308 1.412 . S
C2307 C2315 1.503 . S
C2308 C2307 1.412 . S
C2308 C2309 1.392 1_556 S
C2308 C2311 1.509 1_556 S
C2309 C2305 1.376 1_554 S
C2309 C2308 1.392 1_554 S
C2309 H2321 0.929 . S
C2310 C2306 1.531 . S
C2310 H2322 0.960 . S
C2310 H2323 0.962 . S
C2310 H2324 0.960 . S
C2311 C2308 1.509 1_554 S
C2311 H2325 0.961 . S
C2311 H2326 0.961 . S
C2311 H2327 0.961 1_554 S
C2312 C2313 1.370 1_554 S
C2312 C2314 1.363 . S
C2312 H2328 0.931 . S
C2313 C2312 1.370 1_556 S
C2313 C2317 1.408 . S
C2314 C2312 1.363 . S
C2314 C2315 1.370 1_554 S
C2314 C2318 1.524 . S
C2315 C2307 1.503 . S
C2315 C2314 1.370 1_556 S
C2315 C2316 1.403 . S
C2316 C2315 1.403 . S
C2316 C2317 1.404 . S
C2316 C2319 1.539 . S
C2317 C2313 1.408 . S
C2317 C2316 1.404 . S
C2317 H2329 0.930 . S
C2318 C2314 1.524 . S
C2318 H2330 0.956 . S
C2318 H2331 0.961 . S
C2318 H2332 0.961 . S
C2319 C2316 1.539 . S
C2319 H2333 0.958 . S
C2319 H2334 0.961 . S
C2319 H2335 0.960 . S
H2320 C2304 0.931 . S
H2321 C2309 0.929 . S
H2322 C2310 0.960 . S
H2323 C2310 0.962 . S
H2324 C2310 0.960 . S
H2325 C2311 0.961 . S
H2326 C2311 0.961 . S
H2327 C2311 0.961 1_556 S
H2328 C2312 0.931 . S
H2329 C2317 0.930 . S
H2330 C2318 0.956 . S
H2331 C2318 0.961 . S
H2332 C2318 0.961 . S
H2333 C2319 0.958 . S
H2334 C2319 0.961 . S
H2335 C2319 0.960 . S
C2336 C2337 1.437 . S
C2336 C2338 1.394 . S
C2336 H2352 0.931 . S
C2337 C2336 1.437 . S
C2337 C2341 1.331 1_556 S
C2338 C2336 1.394 . S
C2338 C2339 1.449 . S
C2338 C2342 1.531 . S
C2339 C2338 1.449 . S
C2339 C2340 1.328 1_556 S
C2339 C2347 1.511 . S
C2340 C2339 1.328 1_554 S
C2340 C2341 1.392 . S
C2340 C2343 1.511 . S
C2341 C2337 1.331 1_554 S
C2341 C2340 1.392 . S
C2341 H2353 0.929 . S
C2342 C2338 1.531 . S
C2342 H2354 0.960 . S
C2342 H2355 0.962 . S
C2342 H2356 0.960 . S
C2343 C2340 1.511 . S
C2343 H2357 0.961 . S
C2343 H2358 0.961 . S
C2343 H2359 0.961 . S
C2344 C2345 1.370 . S
C2344 C2346 1.363 . S
C2344 H2360 0.931 . S
C2345 C2344 1.370 . S
C2345 C2349 1.408 1_556 S
C2346 C2344 1.363 . S
C2346 C2347 1.370 . S
C2346 C2350 1.524 . S
C2347 C2339 1.511 . S
C2347 C2346 1.370 . S
C2347 C2348 1.403 1_556 S
C2348 C2347 1.403 1_554 S
C2348 C2349 1.404 . S
C2348 C2351 1.539 . S
C2349 C2345 1.408 1_554 S
C2349 C2348 1.404 . S
C2349 H2361 0.930 . S
C2350 C2346 1.524 . S
C2350 H2362 0.956 . S
C2350 H2363 0.961 . S
C2350 H2364 0.961 . S
C2351 C2348 1.539 . S
C2351 H2365 0.993 . S
C2351 H2366 0.961 . S
C2351 H2367 0.960 . S
H2352 C2336 0.931 . S
H2353 C2341 0.929 . S
H2354 C2342 0.960 . S
H2355 C2342 0.962 . S
H2356 C2342 0.960 . S
H2357 C2343 0.961 . S
H2358 C2343 0.961 . S
H2359 C2343 0.961 . S
H2360 C2344 0.931 . S
H2361 C2349 0.930 . S
H2362 C2350 0.956 . S
H2363 C2350 0.961 . S
H2364 C2350 0.961 . S
H2365 C2351 0.993 . S
H2366 C2351 0.961 . S
H2367 C2351 0.960 . S
C2368 C2369 1.393 1_554 S
C2368 C2370 1.394 . S
C2368 H2384 0.931 . S
C2369 C2368 1.393 1_556 S
C2369 C2373 1.374 . S
C2370 C2368 1.394 . S
C2370 C2371 1.400 . S
C2370 C2374 1.531 . S
C2371 C2370 1.400 . S
C2371 C2372 1.381 1_554 S
C2371 C2379 1.498 1_554 S
C2372 C2371 1.381 1_556 S
C2372 C2373 1.392 . S
C2372 C2375 1.511 . S
C2373 C2369 1.374 . S
C2373 C2372 1.392 . S
C2373 H2385 0.929 . S
C2374 C2370 1.531 . S
C2374 H2386 0.960 . S
C2374 H2387 0.962 . S
C2374 H2388 0.960 . S
C2375 C2372 1.511 . S
C2375 H2389 0.961 . S
C2375 H2390 0.961 . S
C2375 H2391 0.961 . S
C2376 C2377 1.370 . S
C2376 C2378 1.363 . S
C2376 H2392 0.931 . S
C2377 C2376 1.370 . S
C2377 C2381 1.408 1_556 S
C2378 C2376 1.363 . S
C2378 C2379 1.401 . S
C2378 C2382 1.524 . S
C2379 C2371 1.498 1_556 S
C2379 C2378 1.401 . S
C2379 C2380 1.375 1_556 S
C2380 C2379 1.375 1_554 S
C2380 C2381 1.404 . S
C2380 C2383 1.539 . S
C2381 C2377 1.408 1_554 S
C2381 C2380 1.404 . S
C2381 H2393 0.930 . S
C2382 C2378 1.524 . S
C2382 H2394 0.956 . S
C2382 H2395 0.961 . S
C2382 H2396 0.961 . S
C2383 C2380 1.539 . S
C2383 H2397 0.958 . S
C2383 H2398 0.961 . S
C2383 H2399 0.960 . S
H2384 C2368 0.931 . S
H2385 C2373 0.929 . S
H2386 C2374 0.960 . S
H2387 C2374 0.962 . S
H2388 C2374 0.960 . S
H2389 C2375 0.961 . S
H2390 C2375 0.961 . S
H2391 C2375 0.961 . S
H2392 C2376 0.931 . S
H2393 C2381 0.930 . S
H2394 C2382 0.956 . S
H2395 C2382 0.961 . S
H2396 C2382 0.961 . S
H2397 C2383 0.958 . S
H2398 C2383 0.961 . S
H2399 C2383 0.960 . S
C2400 C2401 1.391 . S
C2400 C2402 1.394 . S
C2400 H2416 0.931 . S
C2401 C2400 1.391 . S
C2401 C2405 1.376 . S
C2402 C2400 1.394 . S
C2402 C2403 1.369 . S
C2402 C2406 1.531 . S
C2403 C2402 1.369 . S
C2403 C2404 1.410 . S
C2403 C2411 1.503 . S
C2404 C2403 1.410 . S
C2404 C2405 1.392 . S
C2404 C2407 1.511 . S
C2405 C2401 1.376 . S
C2405 C2404 1.392 . S
C2405 H2417 0.929 . S
C2406 C2402 1.531 . S
C2406 H2418 0.960 . S
C2406 H2419 0.962 . S
C2406 H2420 0.960 . S
C2407 C2404 1.511 . S
C2407 H2421 0.961 . S
C2407 H2422 0.961 . S
C2407 H2423 0.961 . S
C2408 C2409 1.370 . S
C2408 C2410 1.363 . S
C2408 H2424 0.931 . S
C2409 C2408 1.370 . S
C2409 C2413 1.408 . S
C2410 C2408 1.363 . S
C2410 C2411 1.370 . S
C2410 C2414 1.524 . S
C2411 C2403 1.503 . S
C2411 C2410 1.370 . S
C2411 C2412 1.403 . S
C2412 C2411 1.403 . S
C2412 C2413 1.404 . S
C2412 C2415 1.539 . S
C2413 C2409 1.408 . S
C2413 C2412 1.404 . S
C2413 H2425 0.930 . S
C2414 C2410 1.524 . S
C2414 H2426 0.956 . S
C2414 H2427 0.961 . S
C2414 H2428 0.961 . S
C2415 C2412 1.539 . S
C2415 H2429 0.958 . S
C2415 H2430 0.961 . S
C2415 H2431 0.960 . S
H2416 C2400 0.931 . S
H2417 C2405 0.929 . S
H2418 C2406 0.960 . S
H2419 C2406 0.962 . S
H2420 C2406 0.960 . S
H2421 C2407 0.961 . S
H2422 C2407 0.961 . S
H2423 C2407 0.961 . S
H2424 C2408 0.931 . S
H2425 C2413 0.930 . S
H2426 C2414 0.956 . S
H2427 C2414 0.961 . S
H2428 C2414 0.961 . S
H2429 C2415 0.958 . S
H2430 C2415 0.961 . S
H2431 C2415 0.960 . S
C2432 C2433 1.391 . S
C2432 C2434 1.394 . S
C2432 H2448 0.931 . S
C2433 C2432 1.391 . S
C2433 C2437 1.376 . S
C2434 C2432 1.394 . S
C2434 C2435 1.369 . S
C2434 C2438 1.531 . S
C2435 C2434 1.369 . S
C2435 C2436 1.410 . S
C2435 C2443 1.503 . S
C2436 C2435 1.410 . S
C2436 C2437 1.392 . S
C2436 C2439 1.511 . S
C2437 C2433 1.376 . S
C2437 C2436 1.392 . S
C2437 H2449 0.929 . S
C2438 C2434 1.531 . S
C2438 H2450 0.960 . S
C2438 H2451 0.962 . S
C2438 H2452 0.960 . S
C2439 C2436 1.511 . S
C2439 H2453 0.961 . S
C2439 H2454 0.961 . S
C2439 H2455 0.961 . S
C2440 C2441 1.370 . S
C2440 C2442 1.363 . S
C2440 H2456 0.931 . S
C2441 C2440 1.370 . S
C2441 C2445 1.408 . S
C2442 C2440 1.363 . S
C2442 C2443 1.370 . S
C2442 C2446 1.524 . S
C2443 C2435 1.503 . S
C2443 C2442 1.370 . S
C2443 C2444 1.403 . S
C2444 C2443 1.403 . S
C2444 C2445 1.404 . S
C2444 C2447 1.539 . S
C2445 C2441 1.408 . S
C2445 C2444 1.404 . S
C2445 H2457 0.930 . S
C2446 C2442 1.524 . S
C2446 H2458 0.956 . S
C2446 H2459 0.961 . S
C2446 H2460 0.961 . S
C2447 C2444 1.539 . S
C2447 H2461 0.958 . S
C2447 H2462 0.961 . S
C2447 H2463 0.960 . S
H2448 C2432 0.931 . S
H2449 C2437 0.929 . S
H2450 C2438 0.960 . S
H2451 C2438 0.962 . S
H2452 C2438 0.960 . S
H2453 C2439 0.961 . S
H2454 C2439 0.961 . S
H2455 C2439 0.961 . S
H2456 C2440 0.931 . S
H2457 C2445 0.930 . S
H2458 C2446 0.956 . S
H2459 C2446 0.961 . S
H2460 C2446 0.961 . S
H2461 C2447 0.958 . S
H2462 C2447 0.961 . S
H2463 C2447 0.960 . S
C2464 C2465 1.391 . S
C2464 C2466 1.394 . S
C2464 H2480 0.931 . S
C2465 C2464 1.391 . S
C2465 C2469 1.376 . S
C2466 C2464 1.394 . S
C2466 C2467 1.369 . S
C2466 C2470 1.531 . S
C2467 C2466 1.369 . S
C2467 C2468 1.410 . S
C2467 C2475 1.503 . S
C2468 C2467 1.410 . S
C2468 C2469 1.392 . S
C2468 C2471 1.511 . S
C2469 C2465 1.376 . S
C2469 C2468 1.392 . S
C2469 H2481 0.929 . S
C2470 C2466 1.531 . S
C2470 H2482 0.960 . S
C2470 H2483 0.962 . S
C2470 H2484 0.960 . S
C2471 C2468 1.511 . S
C2471 H2485 0.961 . S
C2471 H2486 0.961 . S
C2471 H2487 0.961 . S
C2472 C2473 1.370 . S
C2472 C2474 1.363 . S
C2472 H2488 0.931 . S
C2473 C2472 1.370 . S
C2473 C2477 1.408 . S
C2474 C2472 1.363 . S
C2474 C2475 1.370 . S
C2474 C2478 1.524 . S
C2475 C2467 1.503 . S
C2475 C2474 1.370 . S
C2475 C2476 1.403 . S
C2476 C2475 1.403 . S
C2476 C2477 1.404 . S
C2476 C2479 1.539 . S
C2477 C2473 1.408 . S
C2477 C2476 1.404 . S
C2477 H2489 0.930 . S
C2478 C2474 1.524 . S
C2478 H2490 0.956 . S
C2478 H2491 0.961 . S
C2478 H2492 0.961 . S
C2479 C2476 1.539 . S
C2479 H2493 0.958 . S
C2479 H2494 0.961 . S
C2479 H2495 0.960 . S
H2480 C2464 0.931 . S
H2481 C2469 0.929 . S
H2482 C2470 0.960 . S
H2483 C2470 0.962 . S
H2484 C2470 0.960 . S
H2485 C2471 0.961 . S
H2486 C2471 0.961 . S
H2487 C2471 0.961 . S
H2488 C2472 0.931 . S
H2489 C2477 0.930 . S
H2490 C2478 0.956 . S
H2491 C2478 0.961 . S
H2492 C2478 0.961 . S
H2493 C2479 0.958 . S
H2494 C2479 0.961 . S
H2495 C2479 0.960 . S
C2496 C2497 1.391 . S
C2496 C2498 1.394 . S
C2496 H2512 0.931 . S
C2497 C2496 1.391 . S
C2497 C2501 1.376 . S
C2498 C2496 1.394 . S
C2498 C2499 1.369 . S
C2498 C2502 1.531 . S
C2499 C2498 1.369 . S
C2499 C2500 1.410 . S
C2499 C2507 1.503 . S
C2500 C2499 1.410 . S
C2500 C2501 1.392 . S
C2500 C2503 1.511 . S
C2501 C2497 1.376 . S
C2501 C2500 1.392 . S
C2501 H2513 0.929 . S
C2502 C2498 1.531 . S
C2502 H2514 0.960 . S
C2502 H2515 0.962 . S
C2502 H2516 0.960 . S
C2503 C2500 1.511 . S
C2503 H2517 0.961 . S
C2503 H2518 0.961 . S
C2503 H2519 0.961 . S
C2504 C2505 1.370 . S
C2504 C2506 1.363 . S
C2504 H2520 0.931 . S
C2505 C2504 1.370 . S
C2505 C2509 1.408 . S
C2506 C2504 1.363 . S
C2506 C2507 1.370 . S
C2506 C2510 1.524 . S
C2507 C2499 1.503 . S
C2507 C2506 1.370 . S
C2507 C2508 1.403 . S
C2508 C2507 1.403 . S
C2508 C2509 1.404 . S
C2508 C2511 1.539 . S
C2509 C2505 1.408 . S
C2509 C2508 1.404 . S
C2509 H2521 0.930 . S
C2510 C2506 1.524 . S
C2510 H2522 0.956 . S
C2510 H2523 0.961 . S
C2510 H2524 0.961 . S
C2511 C2508 1.539 . S
C2511 H2525 0.958 . S
C2511 H2526 0.961 . S
C2511 H2527 0.960 . S
H2512 C2496 0.931 . S
H2513 C2501 0.929 . S
H2514 C2502 0.960 . S
H2515 C2502 0.962 . S
H2516 C2502 0.960 . S
H2517 C2503 0.961 . S
H2518 C2503 0.961 . S
H2519 C2503 0.961 . S
H2520 C2504 0.931 . S
H2521 C2509 0.930 . S
H2522 C2510 0.956 . S
H2523 C2510 0.961 . S
H2524 C2510 0.961 . S
H2525 C2511 0.958 . S
H2526 C2511 0.961 . S
H2527 C2511 0.960 . S
C2528 C2529 1.391 . S
C2528 C2530 1.394 . S
C2528 H2544 0.931 . S
C2529 C2528 1.391 . S
C2529 C2533 1.376 . S
C2530 C2528 1.394 . S
C2530 C2531 1.369 . S
C2530 C2534 1.531 . S
C2531 C2530 1.369 . S
C2531 C2532 1.410 . S
C2531 C2539 1.503 . S
C2532 C2531 1.410 . S
C2532 C2533 1.392 . S
C2532 C2535 1.511 . S
C2533 C2529 1.376 . S
C2533 C2532 1.392 . S
C2533 H2545 0.929 . S
C2534 C2530 1.531 . S
C2534 H2546 0.960 . S
C2534 H2547 0.962 . S
C2534 H2548 0.960 . S
C2535 C2532 1.511 . S
C2535 H2549 0.961 . S
C2535 H2550 0.961 . S
C2535 H2551 0.961 . S
C2536 C2537 1.370 . S
C2536 C2538 1.363 . S
C2536 H2552 0.931 . S
C2537 C2536 1.370 . S
C2537 C2541 1.408 . S
C2538 C2536 1.363 . S
C2538 C2539 1.370 . S
C2538 C2542 1.524 . S
C2539 C2531 1.503 . S
C2539 C2538 1.370 . S
C2539 C2540 1.403 . S
C2540 C2539 1.403 . S
C2540 C2541 1.404 . S
C2540 C2543 1.539 . S
C2541 C2537 1.408 . S
C2541 C2540 1.404 . S
C2541 H2553 0.930 . S
C2542 C2538 1.524 . S
C2542 H2554 0.956 . S
C2542 H2555 0.961 . S
C2542 H2556 0.961 . S
C2543 C2540 1.539 . S
C2543 H2557 0.958 . S
C2543 H2558 0.961 . S
C2543 H2559 0.960 . S
H2544 C2528 0.931 . S
H2545 C2533 0.929 . S
H2546 C2534 0.960 . S
H2547 C2534 0.962 . S
H2548 C2534 0.960 . S
H2549 C2535 0.961 . S
H2550 C2535 0.961 . S
H2551 C2535 0.961 . S
H2552 C2536 0.931 . S
H2553 C2541 0.930 . S
H2554 C2542 0.956 . S
H2555 C2542 0.961 . S
H2556 C2542 0.961 . S
H2557 C2543 0.958 . S
H2558 C2543 0.961 . S
H2559 C2543 0.960 . S
C2560 C2561 1.391 . S
C2560 C2562 1.394 . S
C2560 H2576 0.931 . S
C2561 C2560 1.391 . S
C2561 C2565 1.376 . S
C2562 C2560 1.394 . S
C2562 C2563 1.369 . S
C2562 C2566 1.531 . S
C2563 C2562 1.369 . S
C2563 C2564 1.410 . S
C2563 C2571 1.503 . S
C2564 C2563 1.410 . S
C2564 C2565 1.392 . S
C2564 C2567 1.511 . S
C2565 C2561 1.376 . S
C2565 C2564 1.392 . S
C2565 H2577 0.929 . S
C2566 C2562 1.531 . S
C2566 H2578 0.960 . S
C2566 H2579 0.962 . S
C2566 H2580 0.960 . S
C2567 C2564 1.511 . S
C2567 H2581 0.961 . S
C2567 H2582 0.961 . S
C2567 H2583 0.961 . S
C2568 C2569 1.370 . S
C2568 C2570 1.363 . S
C2568 H2584 0.931 . S
C2569 C2568 1.370 . S
C2569 C2573 1.408 . S
C2570 C2568 1.363 . S
C2570 C2571 1.370 . S
C2570 C2574 1.524 . S
C2571 C2563 1.503 . S
C2571 C2570 1.370 . S
C2571 C2572 1.403 . S
C2572 C2571 1.403 . S
C2572 C2573 1.404 . S
C2572 C2575 1.539 . S
C2573 C2569 1.408 . S
C2573 C2572 1.404 . S
C2573 H2585 0.930 . S
C2574 C2570 1.524 . S
C2574 H2586 0.956 . S
C2574 H2587 0.961 . S
C2574 H2588 0.961 . S
C2575 C2572 1.539 . S
C2575 H2589 0.958 . S
C2575 H2590 0.961 . S
C2575 H2591 0.960 . S
H2576 C2560 0.931 . S
H2577 C2565 0.929 . S
H2578 C2566 0.960 . S
H2579 C2566 0.962 . S
H2580 C2566 0.960 . S
H2581 C2567 0.961 . S
H2582 C2567 0.961 . S
H2583 C2567 0.961 . S
H2584 C2568 0.931 . S
H2585 C2573 0.930 . S
H2586 C2574 0.956 . S
H2587 C2574 0.961 . S
H2588 C2574 0.961 . S
H2589 C2575 0.958 . S
H2590 C2575 0.961 . S
H2591 C2575 0.960 . S
C2592 C2593 1.391 . S
C2592 C2594 1.394 . S
C2592 H2608 0.931 . S
C2593 C2592 1.391 . S
C2593 C2597 1.376 . S
C2594 C2592 1.394 . S
C2594 C2595 1.369 . S
C2594 C2598 1.531 . S
C2595 C2594 1.369 . S
C2595 C2596 1.410 . S
C2595 C2603 1.503 . S
C2596 C2595 1.410 . S
C2596 C2597 1.392 . S
C2596 C2599 1.511 . S
C2597 C2593 1.376 . S
C2597 C2596 1.392 . S
C2597 H2609 0.929 . S
C2598 C2594 1.531 . S
C2598 H2610 0.960 . S
C2598 H2611 0.962 . S
C2598 H2612 0.960 . S
C2599 C2596 1.511 . S
C2599 H2613 0.961 . S
C2599 H2614 0.961 . S
C2599 H2615 0.961 . S
C2600 C2601 1.370 . S
C2600 C2602 1.363 . S
C2600 H2616 0.931 . S
C2601 C2600 1.370 . S
C2601 C2605 1.408 . S
C2602 C2600 1.363 . S
C2602 C2603 1.370 . S
C2602 C2606 1.524 . S
C2603 C2595 1.503 . S
C2603 C2602 1.370 . S
C2603 C2604 1.403 . S
C2604 C2603 1.403 . S
C2604 C2605 1.404 . S
C2604 C2607 1.539 . S
C2605 C2601 1.408 . S
C2605 C2604 1.404 . S
C2605 H2617 0.930 . S
C2606 C2602 1.524 . S
C2606 H2618 0.956 . S
C2606 H2619 0.961 . S
C2606 H2620 0.961 . S
C2607 C2604 1.539 . S
C2607 H2621 0.958 . S
C2607 H2622 0.961 . S
C2607 H2623 0.960 . S
H2608 C2592 0.931 . S
H2609 C2597 0.929 . S
H2610 C2598 0.960 . S
H2611 C2598 0.962 . S
H2612 C2598 0.960 . S
H2613 C2599 0.961 . S
H2614 C2599 0.961 . S
H2615 C2599 0.961 . S
H2616 C2600 0.931 . S
H2617 C2605 0.930 . S
H2618 C2606 0.956 . S
H2619 C2606 0.961 . S
H2620 C2606 0.961 . S
H2621 C2607 0.958 . S
H2622 C2607 0.961 . S
H2623 C2607 0.960 . S
C2624 C2625 1.391 1_565 S
C2624 C2626 1.394 . S
C2624 H2640 0.931 . S
C2625 C2624 1.391 1_545 S
C2625 C2629 1.376 . S
C2626 C2624 1.394 . S
C2626 C2627 1.369 . S
C2626 C2630 1.531 . S
C2627 C2626 1.369 . S
C2627 C2628 1.410 . S
C2627 C2635 1.503 . S
C2628 C2627 1.410 . S
C2628 C2629 1.392 1_565 S
C2628 C2631 1.511 . S
C2629 C2625 1.376 . S
C2629 C2628 1.392 1_545 S
C2629 H2641 0.929 . S
C2630 C2626 1.531 . S
C2630 H2642 0.960 . S
C2630 H2643 0.962 . S
C2630 H2644 0.960 . S
C2631 C2628 1.511 . S
C2631 H2645 0.961 1_565 S
C2631 H2646 0.961 . S
C2631 H2647 0.961 . S
C2632 C2633 1.370 . S
C2632 C2634 1.363 . S
C2632 H2648 0.931 . S
C2633 C2632 1.370 . S
C2633 C2637 1.408 . S
C2634 C2632 1.363 . S
C2634 C2635 1.370 . S
C2634 C2638 1.524 . S
C2635 C2627 1.503 . S
C2635 C2634 1.370 . S
C2635 C2636 1.403 . S
C2636 C2635 1.403 . S
C2636 C2637 1.404 . S
C2636 C2639 1.539 . S
C2637 C2633 1.408 . S
C2637 C2636 1.404 . S
C2637 H2649 0.930 . S
C2638 C2634 1.524 . S
C2638 H2650 0.956 . S
C2638 H2651 0.961 1_565 S
C2638 H2652 0.961 . S
C2639 C2636 1.539 . S
C2639 H2653 0.958 . S
C2639 H2654 0.961 . S
C2639 H2655 0.960 . S
H2640 C2624 0.931 . S
H2641 C2629 0.929 . S
H2642 C2630 0.960 . S
H2643 C2630 0.962 . S
H2644 C2630 0.960 . S
H2645 C2631 0.961 1_545 S
H2646 C2631 0.961 . S
H2647 C2631 0.961 . S
H2648 C2632 0.931 . S
H2649 C2637 0.930 . S
H2650 C2638 0.956 . S
H2651 C2638 0.961 1_545 S
H2652 C2638 0.961 . S
H2653 C2639 0.958 . S
H2654 C2639 0.961 . S
H2655 C2639 0.960 . S
C2656 C2657 1.391 . S
C2656 C2658 1.394 . S
C2656 H2672 0.931 . S
C2657 C2656 1.391 . S
C2657 C2661 1.376 . S
C2658 C2656 1.394 . S
C2658 C2659 1.369 . S
C2658 C2662 1.531 . S
C2659 C2658 1.369 . S
C2659 C2660 1.410 . S
C2659 C2667 1.503 . S
C2660 C2659 1.410 . S
C2660 C2661 1.392 . S
C2660 C2663 1.511 . S
C2661 C2657 1.376 . S
C2661 C2660 1.392 . S
C2661 H2673 0.929 . S
C2662 C2658 1.531 . S
C2662 H2674 0.960 . S
C2662 H2675 0.962 . S
C2662 H2676 0.960 . S
C2663 C2660 1.511 . S
C2663 H2677 0.961 . S
C2663 H2678 0.961 . S
C2663 H2679 0.961 . S
C2664 C2665 1.370 . S
C2664 C2666 1.363 1_655 S
C2664 H2680 0.931 . S
C2665 C2664 1.370 . S
C2665 C2669 1.408 1_655 S
C2666 C2664 1.363 1_455 S
C2666 C2667 1.370 . S
C2666 C2670 1.524 1_455 S
C2667 C2659 1.503 . S
C2667 C2666 1.370 . S
C2667 C2668 1.403 . S
C2668 C2667 1.403 . S
C2668 C2669 1.404 . S
C2668 C2671 1.539 . S
C2669 C2665 1.408 1_455 S
C2669 C2668 1.404 . S
C2669 H2681 0.930 . S
C2670 C2666 1.524 1_655 S
C2670 H2682 0.956 . S
C2670 H2683 0.961 1_655 S
C2670 H2684 0.961 . S
C2671 C2668 1.539 . S
C2671 H2685 0.958 . S
C2671 H2686 0.961 . S
C2671 H2687 0.960 . S
H2672 C2656 0.931 . S
H2673 C2661 0.929 . S
H2674 C2662 0.960 . S
H2675 C2662 0.962 . S
H2676 C2662 0.960 . S
H2677 C2663 0.961 . S
H2678 C2663 0.961 . S
H2679 C2663 0.961 . S
H2680 C2664 0.931 . S
H2681 C2669 0.930 . S
H2682 C2670 0.956 . S
H2683 C2670 0.961 1_455 S
H2684 C2670 0.961 . S
H2685 C2671 0.958 . S
H2686 C2671 0.961 . S
H2687 C2671 0.960 . S
C2688 C2689 1.391 . S
C2688 C2690 1.394 . S
C2688 H2704 0.931 . S
C2689 C2688 1.391 . S
C2689 C2693 1.376 . S
C2690 C2688 1.394 . S
C2690 C2691 1.369 . S
C2690 C2694 1.531 . S
C2691 C2690 1.369 . S
C2691 C2692 1.410 . S
C2691 C2699 1.503 . S
C2692 C2691 1.410 . S
C2692 C2693 1.392 . S
C2692 C2695 1.511 . S
C2693 C2689 1.376 . S
C2693 C2692 1.392 . S
C2693 H2705 0.929 . S
C2694 C2690 1.531 . S
C2694 H2706 0.960 . S
C2694 H2707 0.962 . S
C2694 H2708 0.960 . S
C2695 C2692 1.511 . S
C2695 H2709 0.961 . S
C2695 H2710 0.961 . S
C2695 H2711 0.961 . S
C2696 C2697 1.370 . S
C2696 C2698 1.363 . S
C2696 H2712 0.931 . S
C2697 C2696 1.370 . S
C2697 C2701 1.408 . S
C2698 C2696 1.363 . S
C2698 C2699 1.370 . S
C2698 C2702 1.524 . S
C2699 C2691 1.503 . S
C2699 C2698 1.370 . S
C2699 C2700 1.403 . S
C2700 C2699 1.403 . S
C2700 C2701 1.404 . S
C2700 C2703 1.539 . S
C2701 C2697 1.408 . S
C2701 C2700 1.404 . S
C2701 H2713 0.930 . S
C2702 C2698 1.524 . S
C2702 H2714 0.956 . S
C2702 H2715 0.961 . S
C2702 H2716 0.961 . S
C2703 C2700 1.539 . S
C2703 H2717 0.958 . S
C2703 H2718 0.961 . S
C2703 H2719 0.960 . S
H2704 C2688 0.931 . S
H2705 C2693 0.929 . S
H2706 C2694 0.960 . S
H2707 C2694 0.962 . S
H2708 C2694 0.960 . S
H2709 C2695 0.961 . S
H2710 C2695 0.961 . S
H2711 C2695 0.961 . S
H2712 C2696 0.931 . S
H2713 C2701 0.930 . S
H2714 C2702 0.956 . S
H2715 C2702 0.961 . S
H2716 C2702 0.961 . S
H2717 C2703 0.958 . S
H2718 C2703 0.961 . S
H2719 C2703 0.960 . S
C2720 C2721 1.391 . S
C2720 C2722 1.394 1_565 S
C2720 H2736 0.931 . S
C2721 C2720 1.391 . S
C2721 C2725 1.376 . S
C2722 C2720 1.394 1_545 S
C2722 C2723 1.369 . S
C2722 C2726 1.531 . S
C2723 C2722 1.369 . S
C2723 C2724 1.410 . S
C2723 C2731 1.503 . S
C2724 C2723 1.410 . S
C2724 C2725 1.392 1_545 S
C2724 C2727 1.511 . S
C2725 C2721 1.376 . S
C2725 C2724 1.392 1_565 S
C2725 H2737 0.929 . S
C2726 C2722 1.531 . S
C2726 H2738 0.960 . S
C2726 H2739 0.962 . S
C2726 H2740 0.960 1_545 S
C2727 C2724 1.511 . S
C2727 H2741 0.961 . S
C2727 H2742 0.961 . S
C2727 H2743 0.961 . S
C2728 C2729 1.370 . S
C2728 C2730 1.363 . S
C2728 H2744 0.931 . S
C2729 C2728 1.370 . S
C2729 C2733 1.408 . S
C2730 C2728 1.363 . S
C2730 C2731 1.370 . S
C2730 C2734 1.524 . S
C2731 C2723 1.503 . S
C2731 C2730 1.370 . S
C2731 C2732 1.403 . S
C2732 C2731 1.403 . S
C2732 C2733 1.404 . S
C2732 C2735 1.539 1_545 S
C2733 C2729 1.408 . S
C2733 C2732 1.404 . S
C2733 H2745 0.930 . S
C2734 C2730 1.524 . S
C2734 H2746 0.956 . S
C2734 H2747 0.961 . S
C2734 H2748 0.961 . S
C2735 C2732 1.539 1_565 S
C2735 H2749 0.958 . S
C2735 H2750 0.961 . S
C2735 H2751 0.960 . S
H2736 C2720 0.931 . S
H2737 C2725 0.929 . S
H2738 C2726 0.960 . S
H2739 C2726 0.962 . S
H2740 C2726 0.960 1_565 S
H2741 C2727 0.961 . S
H2742 C2727 0.961 . S
H2743 C2727 0.961 . S
H2744 C2728 0.931 . S
H2745 C2733 0.930 . S
H2746 C2734 0.956 . S
H2747 C2734 0.961 . S
H2748 C2734 0.961 . S
H2749 C2735 0.958 . S
H2750 C2735 0.961 . S
H2751 C2735 0.960 . S
C2752 C2753 1.391 . S
C2752 C2754 1.394 . S
C2752 H2768 0.931 . S
C2753 C2752 1.391 . S
C2753 C2757 1.376 . S
C2754 C2752 1.394 . S
C2754 C2755 1.369 . S
C2754 C2758 1.531 1_655 S
C2755 C2754 1.369 . S
C2755 C2756 1.410 . S
C2755 C2763 1.503 . S
C2756 C2755 1.410 . S
C2756 C2757 1.392 . S
C2756 C2759 1.511 . S
C2757 C2753 1.376 . S
C2757 C2756 1.392 . S
C2757 H2769 0.929 . S
C2758 C2754 1.531 1_455 S
C2758 H2770 0.960 . S
C2758 H2771 0.962 . S
C2758 H2772 0.960 . S
C2759 C2756 1.511 . S
C2759 H2773 0.961 . S
C2759 H2774 0.961 . S
C2759 H2775 0.961 . S
C2760 C2761 1.370 . S
C2760 C2762 1.363 1_455 S
C2760 H2776 0.931 . S
C2761 C2760 1.370 . S
C2761 C2765 1.408 . S
C2762 C2760 1.363 1_655 S
C2762 C2763 1.370 . S
C2762 C2766 1.524 . S
C2763 C2755 1.503 . S
C2763 C2762 1.370 . S
C2763 C2764 1.403 . S
C2764 C2763 1.403 . S
C2764 C2765 1.404 1_655 S
C2764 C2767 1.539 . S
C2765 C2761 1.408 . S
C2765 C2764 1.404 1_455 S
C2765 H2777 0.930 . S
C2766 C2762 1.524 . S
C2766 H2778 0.956 . S
C2766 H2779 0.961 . S
C2766 H2780 0.961 . S
C2767 C2764 1.539 . S
C2767 H2781 0.958 . S
C2767 H2782 0.961 . S
C2767 H2783 0.960 . S
H2768 C2752 0.931 . S
H2769 C2757 0.929 . S
H2770 C2758 0.960 . S
H2771 C2758 0.962 . S
H2772 C2758 0.960 . S
H2773 C2759 0.961 . S
H2774 C2759 0.961 . S
H2775 C2759 0.961 . S
H2776 C2760 0.931 . S
H2777 C2765 0.930 . S
H2778 C2766 0.956 . S
H2779 C2766 0.961 . S
H2780 C2766 0.961 . S
H2781 C2767 0.958 . S
H2782 C2767 0.961 . S
H2783 C2767 0.960 . S
C2784 C2785 1.391 . S
C2784 C2786 1.394 . S
C2784 H2800 0.931 . S
C2785 C2784 1.391 . S
C2785 C2789 1.376 . S
C2786 C2784 1.394 . S
C2786 C2787 1.369 . S
C2786 C2790 1.531 . S
C2787 C2786 1.369 . S
C2787 C2788 1.410 . S
C2787 C2795 1.503 . S
C2788 C2787 1.410 . S
C2788 C2789 1.392 . S
C2788 C2791 1.511 . S
C2789 C2785 1.376 . S
C2789 C2788 1.392 . S
C2789 H2801 0.929 . S
C2790 C2786 1.531 . S
C2790 H2802 0.960 . S
C2790 H2803 0.962 . S
C2790 H2804 0.960 . S
C2791 C2788 1.511 . S
C2791 H2805 0.961 . S
C2791 H2806 0.961 . S
C2791 H2807 0.961 . S
C2792 C2793 1.370 . S
C2792 C2794 1.363 . S
C2792 H2808 0.931 . S
C2793 C2792 1.370 . S
C2793 C2797 1.408 . S
C2794 C2792 1.363 . S
C2794 C2795 1.370 . S
C2794 C2798 1.524 . S
C2795 C2787 1.503 . S
C2795 C2794 1.370 . S
C2795 C2796 1.403 . S
C2796 C2795 1.403 . S
C2796 C2797 1.404 . S
C2796 C2799 1.539 . S
C2797 C2793 1.408 . S
C2797 C2796 1.404 . S
C2797 H2809 0.930 . S
C2798 C2794 1.524 . S
C2798 H2810 0.956 . S
C2798 H2811 0.961 . S
C2798 H2812 0.961 . S
C2799 C2796 1.539 . S
C2799 H2813 0.958 . S
C2799 H2814 0.961 . S
C2799 H2815 0.960 . S
H2800 C2784 0.931 . S
H2801 C2789 0.929 . S
H2802 C2790 0.960 . S
H2803 C2790 0.962 . S
H2804 C2790 0.960 . S
H2805 C2791 0.961 . S
H2806 C2791 0.961 . S
H2807 C2791 0.961 . S
H2808 C2792 0.931 . S
H2809 C2797 0.930 . S
H2810 C2798 0.956 . S
H2811 C2798 0.961 . S
H2812 C2798 0.961 . S
H2813 C2799 0.958 . S
H2814 C2799 0.961 . S
H2815 C2799 0.960 . S
C2816 C2817 1.391 . S
C2816 C2818 1.394 . S
C2816 H2832 0.931 . S
C2817 C2816 1.391 . S
C2817 C2821 1.376 . S
C2818 C2816 1.394 . S
C2818 C2819 1.369 . S
C2818 C2822 1.531 . S
C2819 C2818 1.369 . S
C2819 C2820 1.410 . S
C2819 C2827 1.503 . S
C2820 C2819 1.410 . S
C2820 C2821 1.392 . S
C2820 C2823 1.511 . S
C2821 C2817 1.376 . S
C2821 C2820 1.392 . S
C2821 H2833 0.929 . S
C2822 C2818 1.531 . S
C2822 H2834 0.960 . S
C2822 H2835 0.962 . S
C2822 H2836 0.960 . S
C2823 C2820 1.511 . S
C2823 H2837 0.961 . S
C2823 H2838 0.961 . S
C2823 H2839 0.961 . S
C2824 C2825 1.370 1_545 S
C2824 C2826 1.363 . S
C2824 H2840 0.931 . S
C2825 C2824 1.370 1_565 S
C2825 C2829 1.408 . S
C2826 C2824 1.363 . S
C2826 C2827 1.370 . S
C2826 C2830 1.524 . S
C2827 C2819 1.503 . S
C2827 C2826 1.370 . S
C2827 C2828 1.403 1_545 S
C2828 C2827 1.403 1_565 S
C2828 C2829 1.404 . S
C2828 C2831 1.539 . S
C2829 C2825 1.408 . S
C2829 C2828 1.404 . S
C2829 H2841 0.930 . S
C2830 C2826 1.524 . S
C2830 H2842 0.956 . S
C2830 H2843 0.961 . S
C2830 H2844 0.961 . S
C2831 C2828 1.539 . S
C2831 H2845 0.958 . S
C2831 H2846 0.961 . S
C2831 H2847 0.960 . S
H2832 C2816 0.931 . S
H2833 C2821 0.929 . S
H2834 C2822 0.960 . S
H2835 C2822 0.962 . S
H2836 C2822 0.960 . S
H2837 C2823 0.961 . S
H2838 C2823 0.961 . S
H2839 C2823 0.961 . S
H2840 C2824 0.931 . S
H2841 C2829 0.930 . S
H2842 C2830 0.956 . S
H2843 C2830 0.961 . S
H2844 C2830 0.961 . S
H2845 C2831 0.958 . S
H2846 C2831 0.961 . S
H2847 C2831 0.960 . S
C2848 C2849 1.391 . S
C2848 C2850 1.394 . S
C2848 H2864 0.931 . S
C2849 C2848 1.391 . S
C2849 C2853 1.376 . S
C2850 C2848 1.394 . S
C2850 C2851 1.369 . S
C2850 C2854 1.531 . S
C2851 C2850 1.369 . S
C2851 C2852 1.410 . S
C2851 C2859 1.503 . S
C2852 C2851 1.410 . S
C2852 C2853 1.392 . S
C2852 C2855 1.511 . S
C2853 C2849 1.376 . S
C2853 C2852 1.392 . S
C2853 H2865 0.929 . S
C2854 C2850 1.531 . S
C2854 H2866 0.960 1_655 S
C2854 H2867 0.962 1_655 S
C2854 H2868 0.960 . S
C2855 C2852 1.511 . S
C2855 H2869 0.961 . S
C2855 H2870 0.961 . S
C2855 H2871 0.961 . S
C2856 C2857 1.370 . S
C2856 C2858 1.363 1_455 S
C2856 H2872 0.931 . S
C2857 C2856 1.370 . S
C2857 C2861 1.408 . S
C2858 C2856 1.363 1_655 S
C2858 C2859 1.370 . S
C2858 C2862 1.524 . S
C2859 C2851 1.503 . S
C2859 C2858 1.370 . S
C2859 C2860 1.403 . S
C2860 C2859 1.403 . S
C2860 C2861 1.404 1_655 S
C2860 C2863 1.539 . S
C2861 C2857 1.408 . S
C2861 C2860 1.404 1_455 S
C2861 H2873 0.930 . S
C2862 C2858 1.524 . S
C2862 H2874 0.956 . S
C2862 H2875 0.961 . S
C2862 H2876 0.961 . S
C2863 C2860 1.539 . S
C2863 H2877 0.958 . S
C2863 H2878 0.961 . S
C2863 H2879 0.960 . S
H2864 C2848 0.931 . S
H2865 C2853 0.929 . S
H2866 C2854 0.960 1_455 S
H2867 C2854 0.962 1_455 S
H2868 C2854 0.960 . S
H2869 C2855 0.961 . S
H2870 C2855 0.961 . S
H2871 C2855 0.961 . S
H2872 C2856 0.931 . S
H2873 C2861 0.930 . S
H2874 C2862 0.956 . S
H2875 C2862 0.961 . S
H2876 C2862 0.961 . S
H2877 C2863 0.958 . S
H2878 C2863 0.961 . S
H2879 C2863 0.960 . S
C2880 C2881 1.391 . S
C2880 C2882 1.394 . S
C2880 H2896 0.931 . S
C2881 C2880 1.391 . S
C2881 C2885 1.376 . S
C2882 C2880 1.394 . S
C2882 C2883 1.369 . S
C2882 C2886 1.531 . S
C2883 C2882 1.369 . S
C2883 C2884 1.410 . S
C2883 C2891 1.503 . S
C2884 C2883 1.410 . S
C2884 C2885 1.392 . S
C2884 C2887 1.511 . S
C2885 C2881 1.376 . S
C2885 C2884 1.392 . S
C2885 H2897 0.929 . S
C2886 C2882 1.531 . S
C2886 H2898 0.960 . S
C2886 H2899 0.962 . S
C2886 H2900 0.960 . S
C2887 C2884 1.511 . S
C2887 H2901 0.961 . S
C2887 H2902 0.961 . S
C2887 H2903 0.961 . S
C2888 C2889 1.370 . S
C2888 C2890 1.363 . S
C2888 H2904 0.931 . S
C2889 C2888 1.370 . S
C2889 C2893 1.408 . S
C2890 C2888 1.363 . S
C2890 C2891 1.370 . S
C2890 C2894 1.524 . S
C2891 C2883 1.503 . S
C2891 C2890 1.370 . S
C2891 C2892 1.403 . S
C2892 C2891 1.403 . S
C2892 C2893 1.404 . S
C2892 C2895 1.539 . S
C2893 C2889 1.408 . S
C2893 C2892 1.404 . S
C2893 H2905 0.930 . S
C2894 C2890 1.524 . S
C2894 H2906 0.956 . S
C2894 H2907 0.961 . S
C2894 H2908 0.961 . S
C2895 C2892 1.539 . S
C2895 H2909 0.958 . S
C2895 H2910 0.961 . S
C2895 H2911 0.960 . S
H2896 C2880 0.931 . S
H2897 C2885 0.929 . S
H2898 C2886 0.960 . S
H2899 C2886 0.962 . S
H2900 C2886 0.960 . S
H2901 C2887 0.961 . S
H2902 C2887 0.961 . S
H2903 C2887 0.961 . S
H2904 C2888 0.931 . S
H2905 C2893 0.930 . S
H2906 C2894 0.956 . S
H2907 C2894 0.961 . S
H2908 C2894 0.961 . S
H2909 C2895 0.958 . S
H2910 C2895 0.961 . S
H2911 C2895 0.960 . S
C2912 C2913 1.391 . S
C2912 C2914 1.394 . S
C2912 H2928 0.931 . S
C2913 C2912 1.391 . S
C2913 C2917 1.376 1_545 S
C2914 C2912 1.394 . S
C2914 C2915 1.369 1_545 S
C2914 C2918 1.531 . S
C2915 C2914 1.369 1_565 S
C2915 C2916 1.410 . S
C2915 C2923 1.503 . S
C2916 C2915 1.410 . S
C2916 C2917 1.392 . S
C2916 C2919 1.511 . S
C2917 C2913 1.376 1_565 S
C2917 C2916 1.392 . S
C2917 H2929 0.929 . S
C2918 C2914 1.531 . S
C2918 H2930 0.960 . S
C2918 H2931 0.962 . S
C2918 H2932 0.960 . S
C2919 C2916 1.511 . S
C2919 H2933 0.961 . S
C2919 H2934 0.961 . S
C2919 H2935 0.961 . S
C2920 C2921 1.370 . S
C2920 C2922 1.363 . S
C2920 H2936 0.931 . S
C2921 C2920 1.370 . S
C2921 C2925 1.408 . S
C2922 C2920 1.363 . S
C2922 C2923 1.370 . S
C2922 C2926 1.524 . S
C2923 C2915 1.503 . S
C2923 C2922 1.370 . S
C2923 C2924 1.403 . S
C2924 C2923 1.403 . S
C2924 C2925 1.404 . S
C2924 C2927 1.539 . S
C2925 C2921 1.408 . S
C2925 C2924 1.404 . S
C2925 H2937 0.930 . S
C2926 C2922 1.524 . S
C2926 H2938 0.956 1_565 S
C2926 H2939 0.961 . S
C2926 H2940 0.961 . S
C2927 C2924 1.539 . S
C2927 H2941 0.958 . S
C2927 H2942 0.961 . S
C2927 H2943 0.960 . S
H2928 C2912 0.931 . S
H2929 C2917 0.929 . S
H2930 C2918 0.960 . S
H2931 C2918 0.962 . S
H2932 C2918 0.960 . S
H2933 C2919 0.961 . S
H2934 C2919 0.961 . S
H2935 C2919 0.961 . S
H2936 C2920 0.931 . S
H2937 C2925 0.930 . S
H2938 C2926 0.956 1_545 S
H2939 C2926 0.961 . S
H2940 C2926 0.961 . S
H2941 C2927 0.958 . S
H2942 C2927 0.961 . S
H2943 C2927 0.960 . S
C2944 C2945 1.391 . S
C2944 C2946 1.394 1_655 S
C2944 H2960 0.931 . S
C2945 C2944 1.391 . S
C2945 C2949 1.376 . S
C2946 C2944 1.394 1_455 S
C2946 C2947 1.369 . S
C2946 C2950 1.531 . S
C2947 C2946 1.369 . S
C2947 C2948 1.410 . S
C2947 C2955 1.503 . S
C2948 C2947 1.410 . S
C2948 C2949 1.392 1_455 S
C2948 C2951 1.511 . S
C2949 C2945 1.376 . S
C2949 C2948 1.392 1_655 S
C2949 H2961 0.929 . S
C2950 C2946 1.531 . S
C2950 H2962 0.960 . S
C2950 H2963 0.962 . S
C2950 H2964 0.960 . S
C2951 C2948 1.511 . S
C2951 H2965 0.961 . S
C2951 H2966 0.961 . S
C2951 H2967 0.961 1_455 S
C2952 C2953 1.370 . S
C2952 C2954 1.363 . S
C2952 H2968 0.931 . S
C2953 C2952 1.370 . S
C2953 C2957 1.408 . S
C2954 C2952 1.363 . S
C2954 C2955 1.370 . S
C2954 C2958 1.524 . S
C2955 C2947 1.503 . S
C2955 C2954 1.370 . S
C2955 C2956 1.403 . S
C2956 C2955 1.403 . S
C2956 C2957 1.404 . S
C2956 C2959 1.539 1_455 S
C2957 C2953 1.408 . S
C2957 C2956 1.404 . S
C2957 H2969 0.930 . S
C2958 C2954 1.524 . S
C2958 H2970 0.956 . S
C2958 H2971 0.961 . S
C2958 H2972 0.961 . S
C2959 C2956 1.539 1_655 S
C2959 H2973 0.958 . S
C2959 H2974 0.961 . S
C2959 H2975 0.960 . S
H2960 C2944 0.931 . S
H2961 C2949 0.929 . S
H2962 C2950 0.960 . S
H2963 C2950 0.962 . S
H2964 C2950 0.960 . S
H2965 C2951 0.961 . S
H2966 C2951 0.961 . S
H2967 C2951 0.961 1_655 S
H2968 C2952 0.931 . S
H2969 C2957 0.930 . S
H2970 C2958 0.956 . S
H2971 C2958 0.961 . S
H2972 C2958 0.961 . S
H2973 C2959 0.958 . S
H2974 C2959 0.961 . S
H2975 C2959 0.960 . S
C2976 C2977 1.422 . S
C2976 C2978 1.394 . S
C2976 H2992 0.931 . S
C2977 C2976 1.422 . S
C2977 C2981 1.377 . S
C2978 C2976 1.394 . S
C2978 C2979 1.369 . S
C2978 C2982 1.531 . S
C2979 C2978 1.369 . S
C2979 C2980 1.410 . S
C2979 C2987 1.503 . S
C2980 C2979 1.410 . S
C2980 C2981 1.392 . S
C2980 C2983 1.511 . S
C2981 C2977 1.377 . S
C2981 C2980 1.392 . S
C2981 H2993 0.929 1_455 S
C2982 C2978 1.531 . S
C2982 H2994 0.960 . S
C2982 H2995 0.962 . S
C2982 H2996 0.960 . S
C2983 C2980 1.511 . S
C2983 H2997 0.961 . S
C2983 H2998 0.961 . S
C2983 H2999 0.961 . S
C2984 C2985 1.370 . S
C2984 C2986 1.363 . S
C2984 H3000 0.931 . S
C2985 C2984 1.370 . S
C2985 C2989 1.408 . S
C2986 C2984 1.363 . S
C2986 C2987 1.370 . S
C2986 C2990 1.524 . S
C2987 C2979 1.503 . S
C2987 C2986 1.370 . S
C2987 C2988 1.403 . S
C2988 C2987 1.403 . S
C2988 C2989 1.404 . S
C2988 C2991 1.539 . S
C2989 C2985 1.408 . S
C2989 C2988 1.404 . S
C2989 H3001 0.930 . S
C2990 C2986 1.524 . S
C2990 H3002 0.956 . S
C2990 H3003 0.961 . S
C2990 H3004 0.961 . S
C2991 C2988 1.539 . S
C2991 H3005 0.958 . S
C2991 H3006 0.961 . S
C2991 H3007 0.960 . S
H2992 C2976 0.931 . S
H2993 C2981 0.929 1_655 S
H2994 C2982 0.960 . S
H2995 C2982 0.962 . S
H2996 C2982 0.960 . S
H2997 C2983 0.961 . S
H2998 C2983 0.961 . S
H2999 C2983 0.961 . S
H3000 C2984 0.931 . S
H3001 C2989 0.930 . S
H3002 C2990 0.956 . S
H3003 C2990 0.961 . S
H3004 C2990 0.961 . S
H3005 C2991 0.958 . S
H3006 C2991 0.961 . S
H3007 C2991 0.960 . S
C3008 C3009 1.391 . S
C3008 C3010 1.394 . S
C3008 H3024 0.931 . S
C3009 C3008 1.391 . S
C3009 C3013 1.376 . S
C3010 C3008 1.394 . S
C3010 C3011 1.369 . S
C3010 C3014 1.531 . S
C3011 C3010 1.369 . S
C3011 C3012 1.410 . S
C3011 C3019 1.503 . S
C3012 C3011 1.410 . S
C3012 C3013 1.392 . S
C3012 C3015 1.511 . S
C3013 C3009 1.376 . S
C3013 C3012 1.392 . S
C3013 H3025 0.929 . S
C3014 C3010 1.531 . S
C3014 H3026 0.960 . S
C3014 H3027 0.962 . S
C3014 H3028 0.960 . S
C3015 C3012 1.511 . S
C3015 H3029 0.961 . S
C3015 H3030 0.961 . S
C3015 H3031 0.961 . S
C3016 C3017 1.370 . S
C3016 C3018 1.363 . S
C3016 H3032 0.931 . S
C3017 C3016 1.370 . S
C3017 C3021 1.408 . S
C3018 C3016 1.363 . S
C3018 C3019 1.370 . S
C3018 C3022 1.524 . S
C3019 C3011 1.503 . S
C3019 C3018 1.370 . S
C3019 C3020 1.403 . S
C3020 C3019 1.403 . S
C3020 C3021 1.404 . S
C3020 C3023 1.539 . S
C3021 C3017 1.408 . S
C3021 C3020 1.404 . S
C3021 H3033 0.930 . S
C3022 C3018 1.524 . S
C3022 H3034 0.956 . S
C3022 H3035 0.961 . S
C3022 H3036 0.961 . S
C3023 C3020 1.539 . S
C3023 H3037 0.958 . S
C3023 H3038 0.961 . S
C3023 H3039 0.960 . S
H3024 C3008 0.931 . S
H3025 C3013 0.929 . S
H3026 C3014 0.960 . S
H3027 C3014 0.962 . S
H3028 C3014 0.960 . S
H3029 C3015 0.961 . S
H3030 C3015 0.961 . S
H3031 C3015 0.961 . S
H3032 C3016 0.931 . S
H3033 C3021 0.930 . S
H3034 C3022 0.956 . S
H3035 C3022 0.961 . S
H3036 C3022 0.961 . S
H3037 C3023 0.958 . S
H3038 C3023 0.961 . S
H3039 C3023 0.960 . S
C3040 C3041 1.391 . S
C3040 C3042 1.394 . S
C3040 H3056 0.931 . S
C3041 C3040 1.391 . S
C3041 C3045 1.376 . S
C3042 C3040 1.394 . S
C3042 C3043 1.369 . S
C3042 C3046 1.531 . S
C3043 C3042 1.369 . S
C3043 C3044 1.410 . S
C3043 C3051 1.503 . S
C3044 C3043 1.410 . S
C3044 C3045 1.392 . S
C3044 C3047 1.511 . S
C3045 C3041 1.376 . S
C3045 C3044 1.392 . S
C3045 H3057 0.929 . S
C3046 C3042 1.531 . S
C3046 H3058 0.960 . S
C3046 H3059 0.962 . S
C3046 H3060 0.960 . S
C3047 C3044 1.511 . S
C3047 H3061 0.961 . S
C3047 H3062 0.961 . S
C3047 H3063 0.961 . S
C3048 C3049 1.370 . S
C3048 C3050 1.363 . S
C3048 H3064 0.931 . S
C3049 C3048 1.370 . S
C3049 C3053 1.408 1_565 S
C3050 C3048 1.363 . S
C3050 C3051 1.370 . S
C3050 C3054 1.524 . S
C3051 C3043 1.503 . S
C3051 C3050 1.370 . S
C3051 C3052 1.403 . S
C3052 C3051 1.403 . S
C3052 C3053 1.404 1_565 S
C3052 C3055 1.539 . S
C3053 C3049 1.408 1_545 S
C3053 C3052 1.404 1_545 S
C3053 H3065 0.930 . S
C3054 C3050 1.524 . S
C3054 H3066 0.956 . S
C3054 H3067 0.961 . S
C3054 H3068 0.961 . S
C3055 C3052 1.539 . S
C3055 H3069 0.958 . S
C3055 H3070 0.961 1_565 S
C3055 H3071 0.960 . S
H3056 C3040 0.931 . S
H3057 C3045 0.929 . S
H3058 C3046 0.960 . S
H3059 C3046 0.962 . S
H3060 C3046 0.960 . S
H3061 C3047 0.961 . S
H3062 C3047 0.961 . S
H3063 C3047 0.961 . S
H3064 C3048 0.931 . S
H3065 C3053 0.930 . S
H3066 C3054 0.956 . S
H3067 C3054 0.961 . S
H3068 C3054 0.961 . S
H3069 C3055 0.958 . S
H3070 C3055 0.961 1_545 S
H3071 C3055 0.960 . S
C3072 C3073 1.391 . S
C3072 C3074 1.394 . S
C3072 H3088 0.931 . S
C3073 C3072 1.391 . S
C3073 C3077 1.376 . S
C3074 C3072 1.394 . S
C3074 C3075 1.369 . S
C3074 C3078 1.531 1_455 S
C3075 C3074 1.369 . S
C3075 C3076 1.410 . S
C3075 C3083 1.503 . S
C3076 C3075 1.410 . S
C3076 C3077 1.392 . S
C3076 C3079 1.511 . S
C3077 C3073 1.376 . S
C3077 C3076 1.392 . S
C3077 H3089 0.929 . S
C3078 C3074 1.531 1_655 S
C3078 H3090 0.960 . S
C3078 H3091 0.962 . S
C3078 H3092 0.960 . S
C3079 C3076 1.511 . S
C3079 H3093 0.961 . S
C3079 H3094 0.961 . S
C3079 H3095 0.961 . S
C3080 C3081 1.370 1_455 S
C3080 C3082 1.363 . S
C3080 H3096 0.931 . S
C3081 C3080 1.370 1_655 S
C3081 C3085 1.408 . S
C3082 C3080 1.363 . S
C3082 C3083 1.370 . S
C3082 C3086 1.524 . S
C3083 C3075 1.503 . S
C3083 C3082 1.370 . S
C3083 C3084 1.403 . S
C3084 C3083 1.403 . S
C3084 C3085 1.404 1_455 S
C3084 C3087 1.541 1_455 S
C3085 C3081 1.408 . S
C3085 C3084 1.404 1_655 S
C3085 H3097 0.930 . S
C3086 C3082 1.524 . S
C3086 H3098 0.956 . S
C3086 H3099 0.961 . S
C3086 H3100 0.961 . S
C3087 C3084 1.541 1_655 S
C3087 H3101 0.954 . S
C3087 H3102 0.962 . S
C3087 H3103 0.962 1_655 S
H3088 C3072 0.931 . S
H3089 C3077 0.929 . S
H3090 C3078 0.960 . S
H3091 C3078 0.962 . S
H3092 C3078 0.960 . S
H3093 C3079 0.961 . S
H3094 C3079 0.961 . S
H3095 C3079 0.961 . S
H3096 C3080 0.931 . S
H3097 C3085 0.930 . S
H3098 C3086 0.956 . S
H3099 C3086 0.961 . S
H3100 C3086 0.961 . S
H3101 C3087 0.954 . S
H3102 C3087 0.962 . S
H3103 C3087 0.962 1_455 S
C3104 C3105 1.391 . S
C3104 C3106 1.394 . S
C3104 H3120 0.931 . S
C3105 C3104 1.391 . S
C3105 C3109 1.376 . S
C3106 C3104 1.394 . S
C3106 C3107 1.369 . S
C3106 C3110 1.531 . S
C3107 C3106 1.369 . S
C3107 C3108 1.410 . S
C3107 C3115 1.503 . S
C3108 C3107 1.410 . S
C3108 C3109 1.392 . S
C3108 C3111 1.511 . S
C3109 C3105 1.376 . S
C3109 C3108 1.392 . S
C3109 H3121 0.929 . S
C3110 C3106 1.531 . S
C3110 H3122 0.960 . S
C3110 H3123 0.962 . S
C3110 H3124 0.960 . S
C3111 C3108 1.511 . S
C3111 H3125 0.961 . S
C3111 H3126 0.961 . S
C3111 H3127 0.961 . S
C3112 C3113 1.370 . S
C3112 C3114 1.363 . S
C3112 H3128 0.931 . S
C3113 C3112 1.370 . S
C3113 C3117 1.408 . S
C3114 C3112 1.363 . S
C3114 C3115 1.370 . S
C3114 C3118 1.524 . S
C3115 C3107 1.503 . S
C3115 C3114 1.370 . S
C3115 C3116 1.403 . S
C3116 C3115 1.403 . S
C3116 C3117 1.404 . S
C3116 C3119 1.539 . S
C3117 C3113 1.408 . S
C3117 C3116 1.404 . S
C3117 H3129 0.930 . S
C3118 C3114 1.524 . S
C3118 H3130 0.956 . S
C3118 H3131 0.961 . S
C3118 H3132 0.961 . S
C3119 C3116 1.539 . S
C3119 H3133 0.958 . S
C3119 H3134 0.961 . S
C3119 H3135 0.960 . S
H3120 C3104 0.931 . S
H3121 C3109 0.929 . S
H3122 C3110 0.960 . S
H3123 C3110 0.962 . S
H3124 C3110 0.960 . S
H3125 C3111 0.961 . S
H3126 C3111 0.961 . S
H3127 C3111 0.961 . S
H3128 C3112 0.931 . S
H3129 C3117 0.930 . S
H3130 C3118 0.956 . S
H3131 C3118 0.961 . S
H3132 C3118 0.961 . S
H3133 C3119 0.958 . S
H3134 C3119 0.961 . S
H3135 C3119 0.960 . S
C3136 C3137 1.391 . S
C3136 C3138 1.394 . S
C3136 H3152 0.931 . S
C3137 C3136 1.391 . S
C3137 C3141 1.376 . S
C3138 C3136 1.394 . S
C3138 C3139 1.369 . S
C3138 C3142 1.531 1_565 S
C3139 C3138 1.369 . S
C3139 C3140 1.410 . S
C3139 C3147 1.503 . S
C3140 C3139 1.410 . S
C3140 C3141 1.392 . S
C3140 C3143 1.511 . S
C3141 C3137 1.376 . S
C3141 C3140 1.392 . S
C3141 H3153 0.929 . S
C3142 C3138 1.531 1_545 S
C3142 H3154 0.960 . S
C3142 H3155 0.962 . S
C3142 H3156 0.960 . S
C3143 C3140 1.511 . S
C3143 H3157 0.961 . S
C3143 H3158 0.961 . S
C3143 H3159 0.961 . S
C3144 C3145 1.370 1_565 S
C3144 C3146 1.363 . S
C3144 H3160 0.931 . S
C3145 C3144 1.370 1_545 S
C3145 C3149 1.408 . S
C3146 C3144 1.363 . S
C3146 C3147 1.370 . S
C3146 C3150 1.524 . S
C3147 C3139 1.503 . S
C3147 C3146 1.370 . S
C3147 C3148 1.403 . S
C3148 C3147 1.403 . S
C3148 C3149 1.404 1_565 S
C3148 C3151 1.539 1_565 S
C3149 C3145 1.408 . S
C3149 C3148 1.404 1_545 S
C3149 H3161 0.930 . S
C3150 C3146 1.524 . S
C3150 H3162 0.956 . S
C3150 H3163 0.961 . S
C3150 H3164 0.961 . S
C3151 C3148 1.539 1_545 S
C3151 H3165 0.958 . S
C3151 H3166 0.961 . S
C3151 H3167 0.960 1_545 S
H3152 C3136 0.931 . S
H3153 C3141 0.929 . S
H3154 C3142 0.960 . S
H3155 C3142 0.962 . S
H3156 C3142 0.960 . S
H3157 C3143 0.961 . S
H3158 C3143 0.961 . S
H3159 C3143 0.961 . S
H3160 C3144 0.931 . S
H3161 C3149 0.930 . S
H3162 C3150 0.956 . S
H3163 C3150 0.961 . S
H3164 C3150 0.961 . S
H3165 C3151 0.958 . S
H3166 C3151 0.961 . S
H3167 C3151 0.960 1_565 S
C3168 C3169 1.391 . S
C3168 C3170 1.394 . S
C3168 H3184 0.931 . S
C3169 C3168 1.391 . S
C3169 C3173 1.376 . S
C3170 C3168 1.394 . S
C3170 C3171 1.369 . S
C3170 C3174 1.531 . S
C3171 C3170 1.369 . S
C3171 C3172 1.410 . S
C3171 C3179 1.503 . S
C3172 C3171 1.410 . S
C3172 C3173 1.392 . S
C3172 C3175 1.511 . S
C3173 C3169 1.376 . S
C3173 C3172 1.392 . S
C3173 H3185 0.929 . S
C3174 C3170 1.531 . S
C3174 H3186 0.960 . S
C3174 H3187 0.962 . S
C3174 H3188 0.960 . S
C3175 C3172 1.511 . S
C3175 H3189 0.961 . S
C3175 H3190 0.961 . S
C3175 H3191 0.961 . S
C3176 C3177 1.370 . S
C3176 C3178 1.363 . S
C3176 H3192 0.931 . S
C3177 C3176 1.370 . S
C3177 C3181 1.408 . S
C3178 C3176 1.363 . S
C3178 C3179 1.370 . S
C3178 C3182 1.524 . S
C3179 C3171 1.503 . S
C3179 C3178 1.370 . S
C3179 C3180 1.403 . S
C3180 C3179 1.403 . S
C3180 C3181 1.404 . S
C3180 C3183 1.539 . S
C3181 C3177 1.408 . S
C3181 C3180 1.404 . S
C3181 H3193 0.930 . S
C3182 C3178 1.524 . S
C3182 H3194 0.956 . S
C3182 H3195 0.961 . S
C3182 H3196 0.961 . S
C3183 C3180 1.539 . S
C3183 H3197 0.958 . S
C3183 H3198 0.961 . S
C3183 H3199 0.960 . S
H3184 C3168 0.931 . S
H3185 C3173 0.929 . S
H3186 C3174 0.960 . S
H3187 C3174 0.962 . S
H3188 C3174 0.960 . S
H3189 C3175 0.961 . S
H3190 C3175 0.961 . S
H3191 C3175 0.961 . S
H3192 C3176 0.931 . S
H3193 C3181 0.930 . S
H3194 C3182 0.956 . S
H3195 C3182 0.961 . S
H3196 C3182 0.961 . S
H3197 C3183 0.958 . S
H3198 C3183 0.961 . S
H3199 C3183 0.960 . S
C3200 C3201 1.391 . S
C3200 C3202 1.394 . S
C3200 H3216 0.931 . S
C3201 C3200 1.391 . S
C3201 C3205 1.376 . S
C3202 C3200 1.394 . S
C3202 C3203 1.369 . S
C3202 C3206 1.531 . S
C3203 C3202 1.369 . S
C3203 C3204 1.410 . S
C3203 C3211 1.503 . S
C3204 C3203 1.410 . S
C3204 C3205 1.392 . S
C3204 C3207 1.511 . S
C3205 C3201 1.376 . S
C3205 C3204 1.392 . S
C3205 H3217 0.929 . S
C3206 C3202 1.531 . S
C3206 H3218 0.960 . S
C3206 H3219 0.962 . S
C3206 H3220 0.960 . S
C3207 C3204 1.511 . S
C3207 H3221 0.961 . S
C3207 H3222 0.961 . S
C3207 H3223 0.961 . S
C3208 C3209 1.370 . S
C3208 C3210 1.363 . S
C3208 H3224 0.931 . S
C3209 C3208 1.370 . S
C3209 C3213 1.408 . S
C3210 C3208 1.363 . S
C3210 C3211 1.370 . S
C3210 C3214 1.524 . S
C3211 C3203 1.503 . S
C3211 C3210 1.370 . S
C3211 C3212 1.403 . S
C3212 C3211 1.403 . S
C3212 C3213 1.404 . S
C3212 C3215 1.539 . S
C3213 C3209 1.408 . S
C3213 C3212 1.404 . S
C3213 H3225 0.930 . S
C3214 C3210 1.524 . S
C3214 H3226 0.956 . S
C3214 H3227 0.961 . S
C3214 H3228 0.961 . S
C3215 C3212 1.539 . S
C3215 H3229 0.958 . S
C3215 H3230 0.961 . S
C3215 H3231 0.960 . S
H3216 C3200 0.931 . S
H3217 C3205 0.929 . S
H3218 C3206 0.960 . S
H3219 C3206 0.962 . S
H3220 C3206 0.960 . S
H3221 C3207 0.961 . S
H3222 C3207 0.961 . S
H3223 C3207 0.961 . S
H3224 C3208 0.931 . S
H3225 C3213 0.930 . S
H3226 C3214 0.956 . S
H3227 C3214 0.961 . S
H3228 C3214 0.961 . S
H3229 C3215 0.958 . S
H3230 C3215 0.961 . S
H3231 C3215 0.960 . S
C3232 C3233 1.391 . S
C3232 C3234 1.394 . S
C3232 H3248 0.931 . S
C3233 C3232 1.391 . S
C3233 C3237 1.376 . S
C3234 C3232 1.394 . S
C3234 C3235 1.369 . S
C3234 C3238 1.531 . S
C3235 C3234 1.369 . S
C3235 C3236 1.410 . S
C3235 C3243 1.503 . S
C3236 C3235 1.410 . S
C3236 C3237 1.392 . S
C3236 C3239 1.511 . S
C3237 C3233 1.376 . S
C3237 C3236 1.392 . S
C3237 H3249 0.929 . S
C3238 C3234 1.531 . S
C3238 H3250 0.960 . S
C3238 H3251 0.962 . S
C3238 H3252 0.960 . S
C3239 C3236 1.511 . S
C3239 H3253 0.961 . S
C3239 H3254 0.961 . S
C3239 H3255 0.961 . S
C3240 C3241 1.370 . S
C3240 C3242 1.363 . S
C3240 H3256 0.931 . S
C3241 C3240 1.370 . S
C3241 C3245 1.408 . S
C3242 C3240 1.363 . S
C3242 C3243 1.370 . S
C3242 C3246 1.524 . S
C3243 C3235 1.503 . S
C3243 C3242 1.370 . S
C3243 C3244 1.403 . S
C3244 C3243 1.403 . S
C3244 C3245 1.404 . S
C3244 C3247 1.539 . S
C3245 C3241 1.408 . S
C3245 C3244 1.404 . S
C3245 H3257 0.930 . S
C3246 C3242 1.524 . S
C3246 H3258 0.956 . S
C3246 H3259 0.961 . S
C3246 H3260 0.961 . S
C3247 C3244 1.539 . S
C3247 H3261 0.958 . S
C3247 H3262 0.961 . S
C3247 H3263 0.960 . S
H3248 C3232 0.931 . S
H3249 C3237 0.929 . S
H3250 C3238 0.960 . S
H3251 C3238 0.962 . S
H3252 C3238 0.960 . S
H3253 C3239 0.961 . S
H3254 C3239 0.961 . S
H3255 C3239 0.961 . S
H3256 C3240 0.931 . S
H3257 C3245 0.930 . S
H3258 C3246 0.956 . S
H3259 C3246 0.961 . S
H3260 C3246 0.961 . S
H3261 C3247 0.958 . S
H3262 C3247 0.961 . S
H3263 C3247 0.960 . S
C3264 C3265 1.363 1_554 S
C3264 C3266 1.394 . S
C3264 H3280 0.931 . S
C3265 C3264 1.363 1_556 S
C3265 C3269 1.413 . S
C3266 C3264 1.394 . S
C3266 C3267 1.369 1_554 S
C3266 C3270 1.531 . S
C3267 C3266 1.369 1_556 S
C3267 C3268 1.410 . S
C3267 C3275 1.503 1_565 S
C3268 C3267 1.410 . S
C3268 C3269 1.392 . S
C3268 C3271 1.511 . S
C3269 C3265 1.413 . S
C3269 C3268 1.392 . S
C3269 H3281 0.929 . S
C3270 C3266 1.531 . S
C3270 H3282 0.960 . S
C3270 H3283 0.962 . S
C3270 H3284 0.960 . S
C3271 C3268 1.511 . S
C3271 H3285 0.961 . S
C3271 H3286 0.961 . S
C3271 H3287 0.961 . S
C3272 C3273 1.370 1_554 S
C3272 C3274 1.363 . S
C3272 H3288 0.931 . S
C3273 C3272 1.370 1_556 S
C3273 C3277 1.408 . S
C3274 C3272 1.363 . S
C3274 C3275 1.370 1_554 S
C3274 C3278 1.524 . S
C3275 C3267 1.503 1_545 S
C3275 C3274 1.370 1_556 S
C3275 C3276 1.403 . S
C3276 C3275 1.403 . S
C3276 C3277 1.404 . S
C3276 C3279 1.539 . S
C3277 C3273 1.408 . S
C3277 C3276 1.404 . S
C3277 H3289 0.930 . S
C3278 C3274 1.524 . S
C3278 H3290 0.956 1_545 S
C3278 H3291 0.961 1_545 S
C3278 H3292 0.961 . S
C3279 C3276 1.539 . S
C3279 H3293 0.958 . S
C3279 H3294 0.961 . S
C3279 H3295 0.960 1_545 S
H3280 C3264 0.931 . S
H3281 C3269 0.929 . S
H3282 C3270 0.960 . S
H3283 C3270 0.962 . S
H3284 C3270 0.960 . S
H3285 C3271 0.961 . S
H3286 C3271 0.961 . S
H3287 C3271 0.961 . S
H3288 C3272 0.931 . S
H3289 C3277 0.930 . S
H3290 C3278 0.956 1_565 S
H3291 C3278 0.961 1_565 S
H3292 C3278 0.961 . S
H3293 C3279 0.958 . S
H3294 C3279 0.961 . S
H3295 C3279 0.960 1_565 S
C3296 C3297 1.424 . S
C3296 C3298 1.394 . S
C3296 H3312 0.931 . S
C3297 C3296 1.424 . S
C3297 C3301 1.349 1_556 S
C3298 C3296 1.394 . S
C3298 C3299 1.369 . S
C3298 C3302 1.531 . S
C3299 C3298 1.369 . S
C3299 C3300 1.410 1_556 S
C3299 C3307 1.503 1_455 S
C3300 C3299 1.410 1_554 S
C3300 C3301 1.392 . S
C3300 C3303 1.511 . S
C3301 C3297 1.349 1_554 S
C3301 C3300 1.392 . S
C3301 H3313 0.929 . S
C3302 C3298 1.531 . S
C3302 H3314 0.960 . S
C3302 H3315 0.962 . S
C3302 H3316 0.960 . S
C3303 C3300 1.511 . S
C3303 H3317 0.961 . S
C3303 H3318 0.981 . S
C3303 H3319 0.961 . S
C3304 C3305 1.370 1_554 S
C3304 C3306 1.363 . S
C3304 H3320 0.931 . S
C3305 C3304 1.370 1_556 S
C3305 C3309 1.408 . S
C3306 C3304 1.363 . S
C3306 C3307 1.370 1_554 S
C3306 C3310 1.524 . S
C3307 C3299 1.503 1_655 S
C3307 C3306 1.370 1_556 S
C3307 C3308 1.403 . S
C3308 C3307 1.403 . S
C3308 C3309 1.404 . S
C3308 C3311 1.539 . S
C3309 C3305 1.408 . S
C3309 C3308 1.404 . S
C3309 H3321 0.930 . S
C3310 C3306 1.524 . S
C3310 H3322 0.956 1_655 S
C3310 H3323 0.961 1_655 S
C3310 H3324 0.961 . S
C3311 C3308 1.539 . S
C3311 H3325 0.958 . S
C3311 H3326 0.961 . S
C3311 H3327 0.960 1_655 S
H3312 C3296 0.931 . S
H3313 C3301 0.929 . S
H3314 C3302 0.960 . S
H3315 C3302 0.962 . S
H3316 C3302 0.960 . S
H3317 C3303 0.961 . S
H3318 C3303 0.981 . S
H3319 C3303 0.961 . S
H3320 C3304 0.931 . S
H3321 C3309 0.930 . S
H3322 C3310 0.956 1_455 S
H3323 C3310 0.961 1_455 S
H3324 C3310 0.961 . S
H3325 C3311 0.958 . S
H3326 C3311 0.961 . S
H3327 C3311 0.960 1_455 S
C3328 C3329 1.391 1_554 S
C3328 C3330 1.394 . S
C3328 H3344 0.931 . S
C3329 C3328 1.391 1_556 S
C3329 C3333 1.376 . S
C3330 C3328 1.394 . S
C3330 C3331 1.387 . S
C3330 C3334 1.531 . S
C3331 C3330 1.387 . S
C3331 C3332 1.389 1_554 S
C3331 C3339 1.503 . S
C3332 C3331 1.389 1_556 S
C3332 C3333 1.392 . S
C3332 C3335 1.511 . S
C3333 C3329 1.376 . S
C3333 C3332 1.392 . S
C3333 H3345 0.929 . S
C3334 C3330 1.531 . S
C3334 H3346 0.960 . S
C3334 H3347 0.962 . S
C3334 H3348 0.960 . S
C3335 C3332 1.511 . S
C3335 H3349 0.961 . S
C3335 H3350 0.961 . S
C3335 H3351 0.961 . S
C3336 C3337 1.338 1_556 S
C3336 C3338 1.363 . S
C3336 H3352 0.931 . S
C3337 C3336 1.338 1_554 S
C3337 C3341 1.443 . S
C3338 C3336 1.363 . S
C3338 C3339 1.335 1_556 S
C3338 C3342 1.524 . S
C3339 C3331 1.503 . S
C3339 C3338 1.335 1_554 S
C3339 C3340 1.440 . S
C3340 C3339 1.440 . S
C3340 C3341 1.404 . S
C3340 C3343 1.539 . S
C3341 C3337 1.443 . S
C3341 C3340 1.404 . S
C3341 H3353 0.930 . S
C3342 C3338 1.524 . S
C3342 H3354 0.956 . S
C3342 H3355 0.961 . S
C3342 H3356 0.961 . S
C3343 C3340 1.539 . S
C3343 H3357 0.958 . S
C3343 H3358 0.961 . S
C3343 H3359 0.960 . S
H3344 C3328 0.931 . S
H3345 C3333 0.929 . S
H3346 C3334 0.960 . S
H3347 C3334 0.962 . S
H3348 C3334 0.960 . S
H3349 C3335 0.961 . S
H3350 C3335 0.961 . S
H3351 C3335 0.961 . S
H3352 C3336 0.931 . S
H3353 C3341 0.930 . S
H3354 C3342 0.956 . S
H3355 C3342 0.961 . S
H3356 C3342 0.961 . S
H3357 C3343 0.958 . S
H3358 C3343 0.961 . S
H3359 C3343 0.960 . S
C3360 C3361 1.391 . S
C3360 C3362 1.394 . S
C3360 H3376 0.931 . S
C3361 C3360 1.391 . S
C3361 C3365 1.376 . S
C3362 C3360 1.394 . S
C3362 C3363 1.369 . S
C3362 C3366 1.531 . S
C3363 C3362 1.369 . S
C3363 C3364 1.410 . S
C3363 C3371 1.503 . S
C3364 C3363 1.410 . S
C3364 C3365 1.392 . S
C3364 C3367 1.511 . S
C3365 C3361 1.376 . S
C3365 C3364 1.392 . S
C3365 H3377 0.929 . S
C3366 C3362 1.531 . S
C3366 H3378 0.960 . S
C3366 H3379 0.962 . S
C3366 H3380 0.960 . S
C3367 C3364 1.511 . S
C3367 H3381 0.961 . S
C3367 H3382 0.961 . S
C3367 H3383 0.961 . S
C3368 C3369 1.370 . S
C3368 C3370 1.363 . S
C3368 H3384 0.931 . S
C3369 C3368 1.370 . S
C3369 C3373 1.408 . S
C3370 C3368 1.363 . S
C3370 C3371 1.370 . S
C3370 C3374 1.524 . S
C3371 C3363 1.503 . S
C3371 C3370 1.370 . S
C3371 C3372 1.403 . S
C3372 C3371 1.403 . S
C3372 C3373 1.404 . S
C3372 C3375 1.539 . S
C3373 C3369 1.408 . S
C3373 C3372 1.404 . S
C3373 H3385 0.930 . S
C3374 C3370 1.524 . S
C3374 H3386 0.956 . S
C3374 H3387 0.961 . S
C3374 H3388 0.961 . S
C3375 C3372 1.539 . S
C3375 H3389 0.958 . S
C3375 H3390 0.961 . S
C3375 H3391 0.960 . S
H3376 C3360 0.931 . S
H3377 C3365 0.929 . S
H3378 C3366 0.960 . S
H3379 C3366 0.962 . S
H3380 C3366 0.960 . S
H3381 C3367 0.961 . S
H3382 C3367 0.961 . S
H3383 C3367 0.961 . S
H3384 C3368 0.931 . S
H3385 C3373 0.930 . S
H3386 C3374 0.956 . S
H3387 C3374 0.961 . S
H3388 C3374 0.961 . S
H3389 C3375 0.958 . S
H3390 C3375 0.961 . S
H3391 C3375 0.960 . S
C3392 C3393 1.391 . S
C3392 C3394 1.394 . S
C3392 H3408 0.931 . S
C3393 C3392 1.391 . S
C3393 C3397 1.376 . S
C3394 C3392 1.394 . S
C3394 C3395 1.369 . S
C3394 C3398 1.531 . S
C3395 C3394 1.369 . S
C3395 C3396 1.410 . S
C3395 C3403 1.503 . S
C3396 C3395 1.410 . S
C3396 C3397 1.392 . S
C3396 C3399 1.511 . S
C3397 C3393 1.376 . S
C3397 C3396 1.392 . S
C3397 H3409 0.929 . S
C3398 C3394 1.531 . S
C3398 H3410 0.960 . S
C3398 H3411 0.962 . S
C3398 H3412 0.960 . S
C3399 C3396 1.511 . S
C3399 H3413 0.961 . S
C3399 H3414 0.961 . S
C3399 H3415 0.961 . S
C3400 C3401 1.370 . S
C3400 C3402 1.363 . S
C3400 H3416 0.931 . S
C3401 C3400 1.370 . S
C3401 C3405 1.408 . S
C3402 C3400 1.363 . S
C3402 C3403 1.370 . S
C3402 C3406 1.524 . S
C3403 C3395 1.503 . S
C3403 C3402 1.370 . S
C3403 C3404 1.403 . S
C3404 C3403 1.403 . S
C3404 C3405 1.404 . S
C3404 C3407 1.539 . S
C3405 C3401 1.408 . S
C3405 C3404 1.404 . S
C3405 H3417 0.930 . S
C3406 C3402 1.524 . S
C3406 H3418 0.956 . S
C3406 H3419 0.961 . S
C3406 H3420 0.961 . S
C3407 C3404 1.539 . S
C3407 H3421 0.958 . S
C3407 H3422 0.961 . S
C3407 H3423 0.960 . S
H3408 C3392 0.931 . S
H3409 C3397 0.929 . S
H3410 C3398 0.960 . S
H3411 C3398 0.962 . S
H3412 C3398 0.960 . S
H3413 C3399 0.961 . S
H3414 C3399 0.961 . S
H3415 C3399 0.961 . S
H3416 C3400 0.931 . S
H3417 C3405 0.930 . S
H3418 C3406 0.956 . S
H3419 C3406 0.961 . S
H3420 C3406 0.961 . S
H3421 C3407 0.958 . S
H3422 C3407 0.961 . S
H3423 C3407 0.960 . S
C3424 C3425 1.391 . S
C3424 C3426 1.394 . S
C3424 H3440 0.931 . S
C3425 C3424 1.391 . S
C3425 C3429 1.376 . S
C3426 C3424 1.394 . S
C3426 C3427 1.369 . S
C3426 C3430 1.531 . S
C3427 C3426 1.369 . S
C3427 C3428 1.410 . S
C3427 C3435 1.503 . S
C3428 C3427 1.410 . S
C3428 C3429 1.392 . S
C3428 C3431 1.511 . S
C3429 C3425 1.376 . S
C3429 C3428 1.392 . S
C3429 H3441 0.929 . S
C3430 C3426 1.531 . S
C3430 H3442 0.960 . S
C3430 H3443 0.962 . S
C3430 H3444 0.960 . S
C3431 C3428 1.511 . S
C3431 H3445 0.961 . S
C3431 H3446 0.961 . S
C3431 H3447 0.961 . S
C3432 C3433 1.370 . S
C3432 C3434 1.363 . S
C3432 H3448 0.931 . S
C3433 C3432 1.370 . S
C3433 C3437 1.408 . S
C3434 C3432 1.363 . S
C3434 C3435 1.370 . S
C3434 C3438 1.524 . S
C3435 C3427 1.503 . S
C3435 C3434 1.370 . S
C3435 C3436 1.403 . S
C3436 C3435 1.403 . S
C3436 C3437 1.404 . S
C3436 C3439 1.539 . S
C3437 C3433 1.408 . S
C3437 C3436 1.404 . S
C3437 H3449 0.930 . S
C3438 C3434 1.524 . S
C3438 H3450 0.956 . S
C3438 H3451 0.961 . S
C3438 H3452 0.961 . S
C3439 C3436 1.539 . S
C3439 H3453 0.958 . S
C3439 H3454 0.961 . S
C3439 H3455 0.960 . S
H3440 C3424 0.931 . S
H3441 C3429 0.929 . S
H3442 C3430 0.960 . S
H3443 C3430 0.962 . S
H3444 C3430 0.960 . S
H3445 C3431 0.961 . S
H3446 C3431 0.961 . S
H3447 C3431 0.961 . S
H3448 C3432 0.931 . S
H3449 C3437 0.930 . S
H3450 C3438 0.956 . S
H3451 C3438 0.961 . S
H3452 C3438 0.961 . S
H3453 C3439 0.958 . S
H3454 C3439 0.961 . S
H3455 C3439 0.960 . S
C3456 C3457 1.391 . S
C3456 C3458 1.394 . S
C3456 H3472 0.931 . S
C3457 C3456 1.391 . S
C3457 C3461 1.376 . S
C3458 C3456 1.394 . S
C3458 C3459 1.369 . S
C3458 C3462 1.531 . S
C3459 C3458 1.369 . S
C3459 C3460 1.410 . S
C3459 C3467 1.503 1_565 S
C3460 C3459 1.410 . S
C3460 C3461 1.392 . S
C3460 C3463 1.511 1_554 S
C3461 C3457 1.376 . S
C3461 C3460 1.392 . S
C3461 H3473 0.911 1_554 S
C3462 C3458 1.531 . S
C3462 H3474 0.960 1_565 S
C3462 H3475 0.962 . S
C3462 H3476 0.960 . S
C3463 C3460 1.511 1_556 S
C3463 H3477 0.961 . S
C3463 H3478 0.961 1_565 S
C3463 H3479 0.961 1_556 S
C3464 C3465 1.361 1_556 S
C3464 C3466 1.363 . S
C3464 H3480 0.931 . S
C3465 C3464 1.361 1_554 S
C3465 C3469 1.419 . S
C3466 C3464 1.363 . S
C3466 C3467 1.370 1_556 S
C3466 C3470 1.524 . S
C3467 C3459 1.503 1_545 S
C3467 C3466 1.370 1_554 S
C3467 C3468 1.403 . S
C3468 C3467 1.403 . S
C3468 C3469 1.404 . S
C3468 C3471 1.539 . S
C3469 C3465 1.419 . S
C3469 C3468 1.404 . S
C3469 H3481 0.930 . S
C3470 C3466 1.524 . S
C3470 H3482 0.956 . S
C3470 H3483 0.961 . S
C3470 H3484 0.961 . S
C3471 C3468 1.539 . S
C3471 H3485 0.958 . S
C3471 H3486 0.961 . S
C3471 H3487 0.960 . S
H3472 C3456 0.931 . S
H3473 C3461 0.911 1_556 S
H3474 C3462 0.960 1_545 S
H3475 C3462 0.962 . S
H3476 C3462 0.960 . S
H3477 C3463 0.961 . S
H3478 C3463 0.961 1_545 S
H3479 C3463 0.961 1_554 S
H3480 C3464 0.931 . S
H3481 C3469 0.930 . S
H3482 C3470 0.956 . S
H3483 C3470 0.961 . S
H3484 C3470 0.961 . S
H3485 C3471 0.958 . S
H3486 C3471 0.961 . S
H3487 C3471 0.960 . S
C3488 C3489 1.336 1_554 S
C3488 C3490 1.394 . S
C3488 H3504 0.931 . S
C3489 C3488 1.336 1_556 S
C3489 C3493 1.434 . S
C3490 C3488 1.394 . S
C3490 C3491 1.346 1_554 S
C3490 C3494 1.531 . S
C3491 C3490 1.346 1_556 S
C3491 C3492 1.434 . S
C3491 C3499 1.498 1_656 S
C3492 C3491 1.434 . S
C3492 C3493 1.392 . S
C3492 C3495 1.511 . S
C3493 C3489 1.434 . S
C3493 C3492 1.392 . S
C3493 H3505 0.929 . S
C3494 C3490 1.531 . S
C3494 H3506 0.960 . S
C3494 H3507 0.962 . S
C3494 H3508 0.960 . S
C3495 C3492 1.511 . S
C3495 H3509 0.961 . S
C3495 H3510 0.974 . S
C3495 H3511 0.961 . S
C3496 C3497 1.370 . S
C3496 C3498 1.363 . S
C3496 H3512 0.931 . S
C3497 C3496 1.370 . S
C3497 C3501 1.408 1_554 S
C3498 C3496 1.363 . S
C3498 C3499 1.416 . S
C3498 C3502 1.524 . S
C3499 C3491 1.498 1_454 S
C3499 C3498 1.416 . S
C3499 C3500 1.367 1_554 S
C3500 C3499 1.367 1_556 S
C3500 C3501 1.404 . S
C3500 C3503 1.539 . S
C3501 C3497 1.408 1_556 S
C3501 C3500 1.404 . S
C3501 H3513 0.930 . S
C3502 C3498 1.524 . S
C3502 H3514 0.956 1_455 S
C3502 H3515 0.961 1_455 S
C3502 H3516 0.961 . S
C3503 C3500 1.539 . S
C3503 H3517 0.958 . S
C3503 H3518 0.961 . S
C3503 H3519 0.960 1_455 S
H3504 C3488 0.931 . S
H3505 C3493 0.929 . S
H3506 C3494 0.960 . S
H3507 C3494 0.962 . S
H3508 C3494 0.960 . S
H3509 C3495 0.961 . S
H3510 C3495 0.974 . S
H3511 C3495 0.961 . S
H3512 C3496 0.931 . S
H3513 C3501 0.930 . S
H3514 C3502 0.956 1_655 S
H3515 C3502 0.961 1_655 S
H3516 C3502 0.961 . S
H3517 C3503 0.958 . S
H3518 C3503 0.961 . S
H3519 C3503 0.960 1_655 S
C3520 C3521 1.391 1_556 S
C3520 C3522 1.394 . S
C3520 H3536 0.931 . S
C3521 C3520 1.391 1_554 S
C3521 C3525 1.376 . S
C3522 C3520 1.394 . S
C3522 C3523 1.387 . S
C3522 C3526 1.531 . S
C3523 C3522 1.387 . S
C3523 C3524 1.388 1_556 S
C3523 C3531 1.503 . S
C3524 C3523 1.388 1_554 S
C3524 C3525 1.392 . S
C3524 C3527 1.511 . S
C3525 C3521 1.376 . S
C3525 C3524 1.392 . S
C3525 H3537 0.929 . S
C3526 C3522 1.531 . S
C3526 H3538 0.960 . S
C3526 H3539 0.962 . S
C3526 H3540 0.960 . S
C3527 C3524 1.511 . S
C3527 H3541 0.961 . S
C3527 H3542 0.961 . S
C3527 H3543 0.961 . S
C3528 C3529 1.337 1_554 S
C3528 C3530 1.363 . S
C3528 H3544 0.931 . S
C3529 C3528 1.337 1_556 S
C3529 C3533 1.443 . S
C3530 C3528 1.363 . S
C3530 C3531 1.333 1_554 S
C3530 C3534 1.524 . S
C3531 C3523 1.503 . S
C3531 C3530 1.333 1_556 S
C3531 C3532 1.441 . S
C3532 C3531 1.441 . S
C3532 C3533 1.404 . S
C3532 C3535 1.539 . S
C3533 C3529 1.443 . S
C3533 C3532 1.404 . S
C3533 H3545 0.930 . S
C3534 C3530 1.524 . S
C3534 H3546 0.956 . S
C3534 H3547 0.961 . S
C3534 H3548 0.961 . S
C3535 C3532 1.539 . S
C3535 H3549 0.958 . S
C3535 H3550 0.961 . S
C3535 H3551 0.960 . S
H3536 C3520 0.931 . S
H3537 C3525 0.929 . S
H3538 C3526 0.960 . S
H3539 C3526 0.962 . S
H3540 C3526 0.960 . S
H3541 C3527 0.961 . S
H3542 C3527 0.961 . S
H3543 C3527 0.961 . S
H3544 C3528 0.931 . S
H3545 C3533 0.930 . S
H3546 C3534 0.956 . S
H3547 C3534 0.961 . S
H3548 C3534 0.961 . S
H3549 C3535 0.958 . S
H3550 C3535 0.961 . S
H3551 C3535 0.960 . S
C3552 C3553 1.391 . S
C3552 C3554 1.394 . S
C3552 H3568 0.931 . S
C3553 C3552 1.391 . S
C3553 C3557 1.376 . S
C3554 C3552 1.394 . S
C3554 C3555 1.369 . S
C3554 C3558 1.531 . S
C3555 C3554 1.369 . S
C3555 C3556 1.410 . S
C3555 C3563 1.503 . S
C3556 C3555 1.410 . S
C3556 C3557 1.392 . S
C3556 C3559 1.511 . S
C3557 C3553 1.376 . S
C3557 C3556 1.392 . S
C3557 H3569 0.929 1_655 S
C3558 C3554 1.531 . S
C3558 H3570 0.960 . S
C3558 H3571 0.962 . S
C3558 H3572 0.960 . S
C3559 C3556 1.511 . S
C3559 H3573 0.961 . S
C3559 H3574 0.961 . S
C3559 H3575 0.961 . S
C3560 C3561 1.370 . S
C3560 C3562 1.363 . S
C3560 H3576 0.931 . S
C3561 C3560 1.370 . S
C3561 C3565 1.408 . S
C3562 C3560 1.363 . S
C3562 C3563 1.370 . S
C3562 C3566 1.524 . S
C3563 C3555 1.503 . S
C3563 C3562 1.370 . S
C3563 C3564 1.403 . S
C3564 C3563 1.403 . S
C3564 C3565 1.404 . S
C3564 C3567 1.539 . S
C3565 C3561 1.408 . S
C3565 C3564 1.404 . S
C3565 H3577 0.930 . S
C3566 C3562 1.524 . S
C3566 H3578 0.956 . S
C3566 H3579 0.961 . S
C3566 H3580 0.961 . S
C3567 C3564 1.539 . S
C3567 H3581 0.958 . S
C3567 H3582 0.961 . S
C3567 H3583 0.960 . S
H3568 C3552 0.931 . S
H3569 C3557 0.929 1_455 S
H3570 C3558 0.960 . S
H3571 C3558 0.962 . S
H3572 C3558 0.960 . S
H3573 C3559 0.961 . S
H3574 C3559 0.961 . S
H3575 C3559 0.961 . S
H3576 C3560 0.931 . S
H3577 C3565 0.930 . S
H3578 C3566 0.956 . S
H3579 C3566 0.961 . S
H3580 C3566 0.961 . S
H3581 C3567 0.958 . S
H3582 C3567 0.961 . S
H3583 C3567 0.960 . S
C3584 C3585 1.391 . S
C3584 C3586 1.394 . S
C3584 H3600 0.931 . S
C3585 C3584 1.391 . S
C3585 C3589 1.376 . S
C3586 C3584 1.394 . S
C3586 C3587 1.369 . S
C3586 C3590 1.531 . S
C3587 C3586 1.369 . S
C3587 C3588 1.410 . S
C3587 C3595 1.503 . S
C3588 C3587 1.410 . S
C3588 C3589 1.392 . S
C3588 C3591 1.511 . S
C3589 C3585 1.376 . S
C3589 C3588 1.392 . S
C3589 H3601 0.929 . S
C3590 C3586 1.531 . S
C3590 H3602 0.960 . S
C3590 H3603 0.962 . S
C3590 H3604 0.960 . S
C3591 C3588 1.511 . S
C3591 H3605 0.961 . S
C3591 H3606 0.961 . S
C3591 H3607 0.961 . S
C3592 C3593 1.370 . S
C3592 C3594 1.363 . S
C3592 H3608 0.931 . S
C3593 C3592 1.370 . S
C3593 C3597 1.408 . S
C3594 C3592 1.363 . S
C3594 C3595 1.370 . S
C3594 C3598 1.524 . S
C3595 C3587 1.503 . S
C3595 C3594 1.370 . S
C3595 C3596 1.403 . S
C3596 C3595 1.403 . S
C3596 C3597 1.404 . S
C3596 C3599 1.539 . S
C3597 C3593 1.408 . S
C3597 C3596 1.404 . S
C3597 H3609 0.930 . S
C3598 C3594 1.524 . S
C3598 H3610 0.956 . S
C3598 H3611 0.961 . S
C3598 H3612 0.961 . S
C3599 C3596 1.539 . S
C3599 H3613 0.958 . S
C3599 H3614 0.961 . S
C3599 H3615 0.960 . S
H3600 C3584 0.931 . S
H3601 C3589 0.929 . S
H3602 C3590 0.960 . S
H3603 C3590 0.962 . S
H3604 C3590 0.960 . S
H3605 C3591 0.961 . S
H3606 C3591 0.961 . S
H3607 C3591 0.961 . S
H3608 C3592 0.931 . S
H3609 C3597 0.930 . S
H3610 C3598 0.956 . S
H3611 C3598 0.961 . S
H3612 C3598 0.961 . S
H3613 C3599 0.958 . S
H3614 C3599 0.961 . S
H3615 C3599 0.960 . S
C3616 C3617 1.391 . S
C3616 C3618 1.394 . S
C3616 H3632 0.931 . S
C3617 C3616 1.391 . S
C3617 C3621 1.376 . S
C3618 C3616 1.394 . S
C3618 C3619 1.369 . S
C3618 C3622 1.531 . S
C3619 C3618 1.369 . S
C3619 C3620 1.410 . S
C3619 C3627 1.503 . S
C3620 C3619 1.410 . S
C3620 C3621 1.392 . S
C3620 C3623 1.511 . S
C3621 C3617 1.376 . S
C3621 C3620 1.392 . S
C3621 H3633 0.929 1_545 S
C3622 C3618 1.531 . S
C3622 H3634 0.960 . S
C3622 H3635 0.962 . S
C3622 H3636 0.960 . S
C3623 C3620 1.511 . S
C3623 H3637 0.961 . S
C3623 H3638 0.961 . S
C3623 H3639 0.961 . S
C3624 C3625 1.370 . S
C3624 C3626 1.363 . S
C3624 H3640 0.931 . S
C3625 C3624 1.370 . S
C3625 C3629 1.408 . S
C3626 C3624 1.363 . S
C3626 C3627 1.370 . S
C3626 C3630 1.524 . S
C3627 C3619 1.503 . S
C3627 C3626 1.370 . S
C3627 C3628 1.403 . S
C3628 C3627 1.403 . S
C3628 C3629 1.404 . S
C3628 C3631 1.539 . S
C3629 C3625 1.408 . S
C3629 C3628 1.404 . S
C3629 H3641 0.930 . S
C3630 C3626 1.524 . S
C3630 H3642 0.956 . S
C3630 H3643 0.961 . S
C3630 H3644 0.961 . S
C3631 C3628 1.539 . S
C3631 H3645 0.958 . S
C3631 H3646 0.961 . S
C3631 H3647 0.960 . S
H3632 C3616 0.931 . S
H3633 C3621 0.929 1_565 S
H3634 C3622 0.960 . S
H3635 C3622 0.962 . S
H3636 C3622 0.960 . S
H3637 C3623 0.961 . S
H3638 C3623 0.961 . S
H3639 C3623 0.961 . S
H3640 C3624 0.931 . S
H3641 C3629 0.930 . S
H3642 C3630 0.956 . S
H3643 C3630 0.961 . S
H3644 C3630 0.961 . S
H3645 C3631 0.958 . S
H3646 C3631 0.961 . S
H3647 C3631 0.960 . S
C3648 C3649 1.391 . S
C3648 C3650 1.394 . S
C3648 H3664 0.931 . S
C3649 C3648 1.391 . S
C3649 C3653 1.376 1_455 S
C3650 C3648 1.394 . S
C3650 C3651 1.369 1_455 S
C3650 C3654 1.531 . S
C3651 C3650 1.369 1_655 S
C3651 C3652 1.410 . S
C3651 C3659 1.503 . S
C3652 C3651 1.410 . S
C3652 C3653 1.392 . S
C3652 C3655 1.511 . S
C3653 C3649 1.376 1_655 S
C3653 C3652 1.392 . S
C3653 H3665 0.929 . S
C3654 C3650 1.531 . S
C3654 H3666 0.960 . S
C3654 H3667 0.962 . S
C3654 H3668 0.960 . S
C3655 C3652 1.511 . S
C3655 H3669 0.961 . S
C3655 H3670 0.961 . S
C3655 H3671 0.961 . S
C3656 C3657 1.370 . S
C3656 C3658 1.363 . S
C3656 H3672 0.931 . S
C3657 C3656 1.370 . S
C3657 C3661 1.408 . S
C3658 C3656 1.363 . S
C3658 C3659 1.370 . S
C3658 C3662 1.524 . S
C3659 C3651 1.503 . S
C3659 C3658 1.370 . S
C3659 C3660 1.403 . S
C3660 C3659 1.403 . S
C3660 C3661 1.404 . S
C3660 C3663 1.539 . S
C3661 C3657 1.408 . S
C3661 C3660 1.404 . S
C3661 H3673 0.930 . S
C3662 C3658 1.524 . S
C3662 H3674 0.956 . S
C3662 H3675 0.961 . S
C3662 H3676 0.961 . S
C3663 C3660 1.539 . S
C3663 H3677 0.958 . S
C3663 H3678 0.961 . S
C3663 H3679 0.960 . S
H3664 C3648 0.931 . S
H3665 C3653 0.929 . S
H3666 C3654 0.960 . S
H3667 C3654 0.962 . S
H3668 C3654 0.960 . S
H3669 C3655 0.961 . S
H3670 C3655 0.961 . S
H3671 C3655 0.961 . S
H3672 C3656 0.931 . S
H3673 C3661 0.930 . S
H3674 C3662 0.956 . S
H3675 C3662 0.961 . S
H3676 C3662 0.961 . S
H3677 C3663 0.958 . S
H3678 C3663 0.961 . S
H3679 C3663 0.960 . S
C3680 C3681 1.391 . S
C3680 C3682 1.394 . S
C3680 H3696 0.931 . S
C3681 C3680 1.391 . S
C3681 C3685 1.376 . S
C3682 C3680 1.394 . S
C3682 C3683 1.369 . S
C3682 C3686 1.531 . S
C3683 C3682 1.369 . S
C3683 C3684 1.410 . S
C3683 C3691 1.503 . S
C3684 C3683 1.410 . S
C3684 C3685 1.392 . S
C3684 C3687 1.511 . S
C3685 C3681 1.376 . S
C3685 C3684 1.392 . S
C3685 H3697 0.929 . S
C3686 C3682 1.531 . S
C3686 H3698 0.960 . S
C3686 H3699 0.962 . S
C3686 H3700 0.960 . S
C3687 C3684 1.511 . S
C3687 H3701 0.961 . S
C3687 H3702 0.961 . S
C3687 H3703 0.961 . S
C3688 C3689 1.370 . S
C3688 C3690 1.363 . S
C3688 H3704 0.931 . S
C3689 C3688 1.370 . S
C3689 C3693 1.408 . S
C3690 C3688 1.363 . S
C3690 C3691 1.370 . S
C3690 C3694 1.524 . S
C3691 C3683 1.503 . S
C3691 C3690 1.370 . S
C3691 C3692 1.403 . S
C3692 C3691 1.403 . S
C3692 C3693 1.404 . S
C3692 C3695 1.539 . S
C3693 C3689 1.408 . S
C3693 C3692 1.404 . S
C3693 H3705 0.930 . S
C3694 C3690 1.524 . S
C3694 H3706 0.956 . S
C3694 H3707 0.961 . S
C3694 H3708 0.961 . S
C3695 C3692 1.539 . S
C3695 H3709 0.958 . S
C3695 H3710 0.961 . S
C3695 H3711 0.960 . S
H3696 C3680 0.931 . S
H3697 C3685 0.929 . S
H3698 C3686 0.960 . S
H3699 C3686 0.962 . S
H3700 C3686 0.960 . S
H3701 C3687 0.961 . S
H3702 C3687 0.961 . S
H3703 C3687 0.961 . S
H3704 C3688 0.931 . S
H3705 C3693 0.930 . S
H3706 C3694 0.956 . S
H3707 C3694 0.961 . S
H3708 C3694 0.961 . S
H3709 C3695 0.958 . S
H3710 C3695 0.961 . S
H3711 C3695 0.960 . S
C3712 C3713 1.391 . S
C3712 C3714 1.394 . S
C3712 H3728 0.931 . S
C3713 C3712 1.391 . S
C3713 C3717 1.376 . S
C3714 C3712 1.394 . S
C3714 C3715 1.369 . S
C3714 C3718 1.557 . S
C3715 C3714 1.369 . S
C3715 C3716 1.410 . S
C3715 C3723 1.503 . S
C3716 C3715 1.410 . S
C3716 C3717 1.392 . S
C3716 C3719 1.511 . S
C3717 C3713 1.376 . S
C3717 C3716 1.392 . S
C3717 H3729 0.929 . S
C3718 C3714 1.557 . S
C3718 H3730 0.932 1_545 S
C3718 H3731 0.961 . S
C3718 H3732 0.964 1_545 S
C3719 C3716 1.511 . S
C3719 H3733 0.961 . S
C3719 H3734 0.961 . S
C3719 H3735 0.961 . S
C3720 C3721 1.370 1_545 S
C3720 C3722 1.363 . S
C3720 H3736 0.931 . S
C3721 C3720 1.370 1_565 S
C3721 C3725 1.408 . S
C3722 C3720 1.363 . S
C3722 C3723 1.370 . S
C3722 C3726 1.524 . S
C3723 C3715 1.503 . S
C3723 C3722 1.370 . S
C3723 C3724 1.374 1_545 S
C3724 C3723 1.374 1_565 S
C3724 C3725 1.438 . S
C3724 C3727 1.535 . S
C3725 C3721 1.408 . S
C3725 C3724 1.438 . S
C3725 H3737 0.930 . S
C3726 C3722 1.524 . S
C3726 H3738 0.956 . S
C3726 H3739 0.961 . S
C3726 H3740 0.961 . S
C3727 C3724 1.535 . S
C3727 H3741 0.958 . S
C3727 H3742 0.961 . S
C3727 H3743 0.960 1_565 S
H3728 C3712 0.931 . S
H3729 C3717 0.929 . S
H3730 C3718 0.932 1_565 S
H3731 C3718 0.961 . S
H3732 C3718 0.964 1_565 S
H3733 C3719 0.961 . S
H3734 C3719 0.961 . S
H3735 C3719 0.961 . S
H3736 C3720 0.931 . S
H3737 C3725 0.930 . S
H3738 C3726 0.956 . S
H3739 C3726 0.961 . S
H3740 C3726 0.961 . S
H3741 C3727 0.958 . S
H3742 C3727 0.961 . S
H3743 C3727 0.960 1_545 S
C3744 C3745 1.391 . S
C3744 C3746 1.394 . S
C3744 H3760 0.931 . S
C3745 C3744 1.391 . S
C3745 C3749 1.376 . S
C3746 C3744 1.394 . S
C3746 C3747 1.369 . S
C3746 C3750 1.531 . S
C3747 C3746 1.369 . S
C3747 C3748 1.410 . S
C3747 C3755 1.503 . S
C3748 C3747 1.410 . S
C3748 C3749 1.392 . S
C3748 C3751 1.511 . S
C3749 C3745 1.376 . S
C3749 C3748 1.392 . S
C3749 H3761 0.929 . S
C3750 C3746 1.531 . S
C3750 H3762 0.960 . S
C3750 H3763 0.962 . S
C3750 H3764 0.960 . S
C3751 C3748 1.511 . S
C3751 H3765 0.961 . S
C3751 H3766 0.961 . S
C3751 H3767 0.961 . S
C3752 C3753 1.370 . S
C3752 C3754 1.363 . S
C3752 H3768 0.931 . S
C3753 C3752 1.370 . S
C3753 C3757 1.408 . S
C3754 C3752 1.363 . S
C3754 C3755 1.370 . S
C3754 C3758 1.524 . S
C3755 C3747 1.503 . S
C3755 C3754 1.370 . S
C3755 C3756 1.403 . S
C3756 C3755 1.403 . S
C3756 C3757 1.404 . S
C3756 C3759 1.539 . S
C3757 C3753 1.408 . S
C3757 C3756 1.404 . S
C3757 H3769 0.930 . S
C3758 C3754 1.524 . S
C3758 H3770 0.956 . S
C3758 H3771 0.961 . S
C3758 H3772 0.961 . S
C3759 C3756 1.539 . S
C3759 H3773 0.958 . S
C3759 H3774 0.961 . S
C3759 H3775 0.960 . S
H3760 C3744 0.931 . S
H3761 C3749 0.929 . S
H3762 C3750 0.960 . S
H3763 C3750 0.962 . S
H3764 C3750 0.960 . S
H3765 C3751 0.961 . S
H3766 C3751 0.961 . S
H3767 C3751 0.961 . S
H3768 C3752 0.931 . S
H3769 C3757 0.930 . S
H3770 C3758 0.956 . S
H3771 C3758 0.961 . S
H3772 C3758 0.961 . S
H3773 C3759 0.958 . S
H3774 C3759 0.961 . S
H3775 C3759 0.960 . S
C3776 C3777 1.391 . S
C3776 C3778 1.394 . S
C3776 H3792 0.931 . S
C3777 C3776 1.391 . S
C3777 C3781 1.376 . S
C3778 C3776 1.394 . S
C3778 C3779 1.369 . S
C3778 C3782 1.531 . S
C3779 C3778 1.369 . S
C3779 C3780 1.410 . S
C3779 C3787 1.503 . S
C3780 C3779 1.410 . S
C3780 C3781 1.392 . S
C3780 C3783 1.511 . S
C3781 C3777 1.376 . S
C3781 C3780 1.392 . S
C3781 H3793 0.929 . S
C3782 C3778 1.531 . S
C3782 H3794 0.960 . S
C3782 H3795 0.962 . S
C3782 H3796 0.960 . S
C3783 C3780 1.511 . S
C3783 H3797 0.961 . S
C3783 H3798 0.961 . S
C3783 H3799 0.961 . S
C3784 C3785 1.370 . S
C3784 C3786 1.363 . S
C3784 H3800 0.931 . S
C3785 C3784 1.370 . S
C3785 C3789 1.408 . S
C3786 C3784 1.363 . S
C3786 C3787 1.370 . S
C3786 C3790 1.524 . S
C3787 C3779 1.503 . S
C3787 C3786 1.370 . S
C3787 C3788 1.403 . S
C3788 C3787 1.403 . S
C3788 C3789 1.404 . S
C3788 C3791 1.539 . S
C3789 C3785 1.408 . S
C3789 C3788 1.404 . S
C3789 H3801 0.930 . S
C3790 C3786 1.524 . S
C3790 H3802 0.956 . S
C3790 H3803 0.961 . S
C3790 H3804 0.961 . S
C3791 C3788 1.539 . S
C3791 H3805 0.958 . S
C3791 H3806 0.961 . S
C3791 H3807 0.960 . S
H3792 C3776 0.931 . S
H3793 C3781 0.929 . S
H3794 C3782 0.960 . S
H3795 C3782 0.962 . S
H3796 C3782 0.960 . S
H3797 C3783 0.961 . S
H3798 C3783 0.961 . S
H3799 C3783 0.961 . S
H3800 C3784 0.931 . S
H3801 C3789 0.930 . S
H3802 C3790 0.956 . S
H3803 C3790 0.961 . S
H3804 C3790 0.961 . S
H3805 C3791 0.958 . S
H3806 C3791 0.961 . S
H3807 C3791 0.960 . S
C3808 C3809 1.391 . S
C3808 C3810 1.394 . S
C3808 H3824 0.931 . S
C3809 C3808 1.391 . S
C3809 C3813 1.376 . S
C3810 C3808 1.394 . S
C3810 C3811 1.369 . S
C3810 C3814 1.531 . S
C3811 C3810 1.369 . S
C3811 C3812 1.410 . S
C3811 C3819 1.503 . S
C3812 C3811 1.410 . S
C3812 C3813 1.392 . S
C3812 C3815 1.511 . S
C3813 C3809 1.376 . S
C3813 C3812 1.392 . S
C3813 H3825 0.929 . S
C3814 C3810 1.531 . S
C3814 H3826 0.960 . S
C3814 H3827 0.962 . S
C3814 H3828 0.960 . S
C3815 C3812 1.511 . S
C3815 H3829 0.961 . S
C3815 H3830 0.961 . S
C3815 H3831 0.961 . S
C3816 C3817 1.370 . S
C3816 C3818 1.363 . S
C3816 H3832 0.931 . S
C3817 C3816 1.370 . S
C3817 C3821 1.408 . S
C3818 C3816 1.363 . S
C3818 C3819 1.370 . S
C3818 C3822 1.524 . S
C3819 C3811 1.503 . S
C3819 C3818 1.370 . S
C3819 C3820 1.403 . S
C3820 C3819 1.403 . S
C3820 C3821 1.404 . S
C3820 C3823 1.539 . S
C3821 C3817 1.408 . S
C3821 C3820 1.404 . S
C3821 H3833 0.930 . S
C3822 C3818 1.524 . S
C3822 H3834 0.956 . S
C3822 H3835 0.961 . S
C3822 H3836 0.961 . S
C3823 C3820 1.539 . S
C3823 H3837 0.958 . S
C3823 H3838 0.961 . S
C3823 H3839 0.960 . S
H3824 C3808 0.931 . S
H3825 C3813 0.929 . S
H3826 C3814 0.960 . S
H3827 C3814 0.962 . S
H3828 C3814 0.960 . S
H3829 C3815 0.961 . S
H3830 C3815 0.961 . S
H3831 C3815 0.961 . S
H3832 C3816 0.931 . S
H3833 C3821 0.930 . S
H3834 C3822 0.956 . S
H3835 C3822 0.961 . S
H3836 C3822 0.961 . S
H3837 C3823 0.958 . S
H3838 C3823 0.961 . S
H3839 C3823 0.960 . S
C3840 C3841 1.391 . S
C3840 C3842 1.394 . S
C3840 H3856 0.931 . S
C3841 C3840 1.391 . S
C3841 C3845 1.376 . S
C3842 C3840 1.394 . S
C3842 C3843 1.369 . S
C3842 C3846 1.531 . S
C3843 C3842 1.369 . S
C3843 C3844 1.410 . S
C3843 C3851 1.503 . S
C3844 C3843 1.410 . S
C3844 C3845 1.392 . S
C3844 C3847 1.511 . S
C3845 C3841 1.376 . S
C3845 C3844 1.392 . S
C3845 H3857 0.929 . S
C3846 C3842 1.531 . S
C3846 H3858 0.960 . S
C3846 H3859 0.962 . S
C3846 H3860 0.960 . S
C3847 C3844 1.511 . S
C3847 H3861 0.961 . S
C3847 H3862 0.961 . S
C3847 H3863 0.961 . S
C3848 C3849 1.370 . S
C3848 C3850 1.363 . S
C3848 H3864 0.931 . S
C3849 C3848 1.370 . S
C3849 C3853 1.408 . S
C3850 C3848 1.363 . S
C3850 C3851 1.370 . S
C3850 C3854 1.524 . S
C3851 C3843 1.503 . S
C3851 C3850 1.370 . S
C3851 C3852 1.403 . S
C3852 C3851 1.403 . S
C3852 C3853 1.404 . S
C3852 C3855 1.539 . S
C3853 C3849 1.408 . S
C3853 C3852 1.404 . S
C3853 H3865 0.930 . S
C3854 C3850 1.524 . S
C3854 H3866 0.956 . S
C3854 H3867 0.961 . S
C3854 H3868 0.961 . S
C3855 C3852 1.539 . S
C3855 H3869 0.958 . S
C3855 H3870 0.961 . S
C3855 H3871 0.960 . S
H3856 C3840 0.931 . S
H3857 C3845 0.929 . S
H3858 C3846 0.960 . S
H3859 C3846 0.962 . S
H3860 C3846 0.960 . S
H3861 C3847 0.961 . S
H3862 C3847 0.961 . S
H3863 C3847 0.961 . S
H3864 C3848 0.931 . S
H3865 C3853 0.930 . S
H3866 C3854 0.956 . S
H3867 C3854 0.961 . S
H3868 C3854 0.961 . S
H3869 C3855 0.958 . S
H3870 C3855 0.961 . S
H3871 C3855 0.960 . S
C3872 C3873 1.391 . S
C3872 C3874 1.394 . S
C3872 H3888 0.931 . S
C3873 C3872 1.391 . S
C3873 C3877 1.376 . S
C3874 C3872 1.394 . S
C3874 C3875 1.369 . S
C3874 C3878 1.531 . S
C3875 C3874 1.369 . S
C3875 C3876 1.410 . S
C3875 C3883 1.503 . S
C3876 C3875 1.410 . S
C3876 C3877 1.392 . S
C3876 C3879 1.511 . S
C3877 C3873 1.376 . S
C3877 C3876 1.392 . S
C3877 H3889 0.929 . S
C3878 C3874 1.531 . S
C3878 H3890 0.960 . S
C3878 H3891 0.962 . S
C3878 H3892 0.960 . S
C3879 C3876 1.511 . S
C3879 H3893 0.961 . S
C3879 H3894 0.961 . S
C3879 H3895 0.961 . S
C3880 C3881 1.370 . S
C3880 C3882 1.363 . S
C3880 H3896 0.931 . S
C3881 C3880 1.370 . S
C3881 C3885 1.408 . S
C3882 C3880 1.363 . S
C3882 C3883 1.370 . S
C3882 C3886 1.524 . S
C3883 C3875 1.503 . S
C3883 C3882 1.370 . S
C3883 C3884 1.403 . S
C3884 C3883 1.403 . S
C3884 C3885 1.404 . S
C3884 C3887 1.539 . S
C3885 C3881 1.408 . S
C3885 C3884 1.404 . S
C3885 H3897 0.930 . S
C3886 C3882 1.524 . S
C3886 H3898 0.956 . S
C3886 H3899 0.961 . S
C3886 H3900 0.961 . S
C3887 C3884 1.539 . S
C3887 H3901 0.958 . S
C3887 H3902 0.961 . S
C3887 H3903 0.960 . S
H3888 C3872 0.931 . S
H3889 C3877 0.929 . S
H3890 C3878 0.960 . S
H3891 C3878 0.962 . S
H3892 C3878 0.960 . S
H3893 C3879 0.961 . S
H3894 C3879 0.961 . S
H3895 C3879 0.961 . S
H3896 C3880 0.931 . S
H3897 C3885 0.930 . S
H3898 C3886 0.956 . S
H3899 C3886 0.961 . S
H3900 C3886 0.961 . S
H3901 C3887 0.958 . S
H3902 C3887 0.961 . S
H3903 C3887 0.960 . S
C3904 C3905 1.391 . S
C3904 C3906 1.394 . S
C3904 H3920 0.931 . S
C3905 C3904 1.391 . S
C3905 C3909 1.376 . S
C3906 C3904 1.394 . S
C3906 C3907 1.369 . S
C3906 C3910 1.531 . S
C3907 C3906 1.369 . S
C3907 C3908 1.410 . S
C3907 C3915 1.503 . S
C3908 C3907 1.410 . S
C3908 C3909 1.392 . S
C3908 C3911 1.511 . S
C3909 C3905 1.376 . S
C3909 C3908 1.392 . S
C3909 H3921 0.929 . S
C3910 C3906 1.531 . S
C3910 H3922 0.960 . S
C3910 H3923 0.962 . S
C3910 H3924 0.960 . S
C3911 C3908 1.511 . S
C3911 H3925 0.961 . S
C3911 H3926 0.961 . S
C3911 H3927 0.961 . S
C3912 C3913 1.370 . S
C3912 C3914 1.363 . S
C3912 H3928 0.931 . S
C3913 C3912 1.370 . S
C3913 C3917 1.408 . S
C3914 C3912 1.363 . S
C3914 C3915 1.370 . S
C3914 C3918 1.524 . S
C3915 C3907 1.503 . S
C3915 C3914 1.370 . S
C3915 C3916 1.403 . S
C3916 C3915 1.403 . S
C3916 C3917 1.404 . S
C3916 C3919 1.539 . S
C3917 C3913 1.408 . S
C3917 C3916 1.404 . S
C3917 H3929 0.930 . S
C3918 C3914 1.524 . S
C3918 H3930 0.956 . S
C3918 H3931 0.961 . S
C3918 H3932 0.961 . S
C3919 C3916 1.539 . S
C3919 H3933 0.958 . S
C3919 H3934 0.961 . S
C3919 H3935 0.960 . S
H3920 C3904 0.931 . S
H3921 C3909 0.929 . S
H3922 C3910 0.960 . S
H3923 C3910 0.962 . S
H3924 C3910 0.960 . S
H3925 C3911 0.961 . S
H3926 C3911 0.961 . S
H3927 C3911 0.961 . S
H3928 C3912 0.931 . S
H3929 C3917 0.930 . S
H3930 C3918 0.956 . S
H3931 C3918 0.961 . S
H3932 C3918 0.961 . S
H3933 C3919 0.958 . S
H3934 C3919 0.961 . S
H3935 C3919 0.960 . S
C3936 C3937 1.391 . S
C3936 C3938 1.394 . S
C3936 H3952 0.931 . S
C3937 C3936 1.391 . S
C3937 C3941 1.376 . S
C3938 C3936 1.394 . S
C3938 C3939 1.369 . S
C3938 C3942 1.531 . S
C3939 C3938 1.369 . S
C3939 C3940 1.410 . S
C3939 C3947 1.503 . S
C3940 C3939 1.410 . S
C3940 C3941 1.392 . S
C3940 C3943 1.511 . S
C3941 C3937 1.376 . S
C3941 C3940 1.392 . S
C3941 H3953 0.929 . S
C3942 C3938 1.531 . S
C3942 H3954 0.960 . S
C3942 H3955 0.962 . S
C3942 H3956 0.960 . S
C3943 C3940 1.511 . S
C3943 H3957 0.961 . S
C3943 H3958 0.961 . S
C3943 H3959 0.961 . S
C3944 C3945 1.370 . S
C3944 C3946 1.363 . S
C3944 H3960 0.931 . S
C3945 C3944 1.370 . S
C3945 C3949 1.408 . S
C3946 C3944 1.363 . S
C3946 C3947 1.370 . S
C3946 C3950 1.524 . S
C3947 C3939 1.503 . S
C3947 C3946 1.370 . S
C3947 C3948 1.403 . S
C3948 C3947 1.403 . S
C3948 C3949 1.404 . S
C3948 C3951 1.539 . S
C3949 C3945 1.408 . S
C3949 C3948 1.404 . S
C3949 H3961 0.930 . S
C3950 C3946 1.524 . S
C3950 H3962 0.956 . S
C3950 H3963 0.961 . S
C3950 H3964 0.961 . S
C3951 C3948 1.539 . S
C3951 H3965 0.958 . S
C3951 H3966 0.961 . S
C3951 H3967 0.960 . S
H3952 C3936 0.931 . S
H3953 C3941 0.929 . S
H3954 C3942 0.960 . S
H3955 C3942 0.962 . S
H3956 C3942 0.960 . S
H3957 C3943 0.961 . S
H3958 C3943 0.961 . S
H3959 C3943 0.961 . S
H3960 C3944 0.931 . S
H3961 C3949 0.930 . S
H3962 C3950 0.956 . S
H3963 C3950 0.961 . S
H3964 C3950 0.961 . S
H3965 C3951 0.958 . S
H3966 C3951 0.961 . S
H3967 C3951 0.960 . S
C3968 C3969 1.391 . S
C3968 C3970 1.394 . S
C3968 H3984 0.931 . S
C3969 C3968 1.391 . S
C3969 C3973 1.376 . S
C3970 C3968 1.394 . S
C3970 C3971 1.369 . S
C3970 C3974 1.531 . S
C3971 C3970 1.369 . S
C3971 C3972 1.410 . S
C3971 C3979 1.503 . S
C3972 C3971 1.410 . S
C3972 C3973 1.392 . S
C3972 C3975 1.511 . S
C3973 C3969 1.376 . S
C3973 C3972 1.392 . S
C3973 H3985 0.929 . S
C3974 C3970 1.531 . S
C3974 H3986 0.960 . S
C3974 H3987 0.962 . S
C3974 H3988 0.960 . S
C3975 C3972 1.511 . S
C3975 H3989 0.961 . S
C3975 H3990 0.961 . S
C3975 H3991 0.961 . S
C3976 C3977 1.370 . S
C3976 C3978 1.363 . S
C3976 H3992 0.931 . S
C3977 C3976 1.370 . S
C3977 C3981 1.408 . S
C3978 C3976 1.363 . S
C3978 C3979 1.370 . S
C3978 C3982 1.524 . S
C3979 C3971 1.503 . S
C3979 C3978 1.370 . S
C3979 C3980 1.403 . S
C3980 C3979 1.403 . S
C3980 C3981 1.404 . S
C3980 C3983 1.539 . S
C3981 C3977 1.408 . S
C3981 C3980 1.404 . S
C3981 H3993 0.930 . S
C3982 C3978 1.524 . S
C3982 H3994 0.956 . S
C3982 H3995 0.961 . S
C3982 H3996 0.961 . S
C3983 C3980 1.539 . S
C3983 H3997 0.958 . S
C3983 H3998 0.961 . S
C3983 H3999 0.960 . S
H3984 C3968 0.931 . S
H3985 C3973 0.929 . S
H3986 C3974 0.960 . S
H3987 C3974 0.962 . S
H3988 C3974 0.960 . S
H3989 C3975 0.961 . S
H3990 C3975 0.961 . S
H3991 C3975 0.961 . S
H3992 C3976 0.931 . S
H3993 C3981 0.930 . S
H3994 C3982 0.956 . S
H3995 C3982 0.961 . S
H3996 C3982 0.961 . S
H3997 C3983 0.958 . S
H3998 C3983 0.961 . S
H3999 C3983 0.960 . S
C4000 C4001 1.391 . S
C4000 C4002 1.394 . S
C4000 H4016 0.931 . S
C4001 C4000 1.391 . S
C4001 C4005 1.376 . S
C4002 C4000 1.394 . S
C4002 C4003 1.369 . S
C4002 C4006 1.531 . S
C4003 C4002 1.369 . S
C4003 C4004 1.410 . S
C4003 C4011 1.503 . S
C4004 C4003 1.410 . S
C4004 C4005 1.392 . S
C4004 C4007 1.511 . S
C4005 C4001 1.376 . S
C4005 C4004 1.392 . S
C4005 H4017 0.929 . S
C4006 C4002 1.531 . S
C4006 H4018 0.960 . S
C4006 H4019 0.962 . S
C4006 H4020 0.960 . S
C4007 C4004 1.511 . S
C4007 H4021 0.961 . S
C4007 H4022 0.961 . S
C4007 H4023 0.961 . S
C4008 C4009 1.370 . S
C4008 C4010 1.363 . S
C4008 H4024 0.931 . S
C4009 C4008 1.370 . S
C4009 C4013 1.408 . S
C4010 C4008 1.363 . S
C4010 C4011 1.370 . S
C4010 C4014 1.524 . S
C4011 C4003 1.503 . S
C4011 C4010 1.370 . S
C4011 C4012 1.403 . S
C4012 C4011 1.403 . S
C4012 C4013 1.404 . S
C4012 C4015 1.539 . S
C4013 C4009 1.408 . S
C4013 C4012 1.404 . S
C4013 H4025 0.930 . S
C4014 C4010 1.524 . S
C4014 H4026 0.956 . S
C4014 H4027 0.961 . S
C4014 H4028 0.961 . S
C4015 C4012 1.539 . S
C4015 H4029 0.958 . S
C4015 H4030 0.961 . S
C4015 H4031 0.960 . S
H4016 C4000 0.931 . S
H4017 C4005 0.929 . S
H4018 C4006 0.960 . S
H4019 C4006 0.962 . S
H4020 C4006 0.960 . S
H4021 C4007 0.961 . S
H4022 C4007 0.961 . S
H4023 C4007 0.961 . S
H4024 C4008 0.931 . S
H4025 C4013 0.930 . S
H4026 C4014 0.956 . S
H4027 C4014 0.961 . S
H4028 C4014 0.961 . S
H4029 C4015 0.958 . S
H4030 C4015 0.961 . S
H4031 C4015 0.960 . S
C4032 C4033 1.391 . S
C4032 C4034 1.394 . S
C4032 H4048 0.931 . S
C4033 C4032 1.391 . S
C4033 C4037 1.376 . S
C4034 C4032 1.394 . S
C4034 C4035 1.369 . S
C4034 C4038 1.531 . S
C4035 C4034 1.369 . S
C4035 C4036 1.410 . S
C4035 C4043 1.503 . S
C4036 C4035 1.410 . S
C4036 C4037 1.392 . S
C4036 C4039 1.511 . S
C4037 C4033 1.376 . S
C4037 C4036 1.392 . S
C4037 H4049 0.929 . S
C4038 C4034 1.531 . S
C4038 H4050 0.960 . S
C4038 H4051 0.962 . S
C4038 H4052 0.960 . S
C4039 C4036 1.511 . S
C4039 H4053 0.961 . S
C4039 H4054 0.961 . S
C4039 H4055 0.961 . S
C4040 C4041 1.370 . S
C4040 C4042 1.363 . S
C4040 H4056 0.931 . S
C4041 C4040 1.370 . S
C4041 C4045 1.408 . S
C4042 C4040 1.363 . S
C4042 C4043 1.370 . S
C4042 C4046 1.524 . S
C4043 C4035 1.503 . S
C4043 C4042 1.370 . S
C4043 C4044 1.403 . S
C4044 C4043 1.403 . S
C4044 C4045 1.404 . S
C4044 C4047 1.539 . S
C4045 C4041 1.408 . S
C4045 C4044 1.404 . S
C4045 H4057 0.930 . S
C4046 C4042 1.524 . S
C4046 H4058 0.956 . S
C4046 H4059 0.961 . S
C4046 H4060 0.961 . S
C4047 C4044 1.539 . S
C4047 H4061 0.958 . S
C4047 H4062 0.961 . S
C4047 H4063 0.960 . S
H4048 C4032 0.931 . S
H4049 C4037 0.929 . S
H4050 C4038 0.960 . S
H4051 C4038 0.962 . S
H4052 C4038 0.960 . S
H4053 C4039 0.961 . S
H4054 C4039 0.961 . S
H4055 C4039 0.961 . S
H4056 C4040 0.931 . S
H4057 C4045 0.930 . S
H4058 C4046 0.956 . S
H4059 C4046 0.961 . S
H4060 C4046 0.961 . S
H4061 C4047 0.958 . S
H4062 C4047 0.961 . S
H4063 C4047 0.960 . S
C4064 C4065 1.391 . S
C4064 C4066 1.394 . S
C4064 H4080 0.931 . S
C4065 C4064 1.391 . S
C4065 C4069 1.376 . S
C4066 C4064 1.394 . S
C4066 C4067 1.369 . S
C4066 C4070 1.531 . S
C4067 C4066 1.369 . S
C4067 C4068 1.410 . S
C4067 C4075 1.503 . S
C4068 C4067 1.410 . S
C4068 C4069 1.392 . S
C4068 C4071 1.511 . S
C4069 C4065 1.376 . S
C4069 C4068 1.392 . S
C4069 H4081 0.929 . S
C4070 C4066 1.531 . S
C4070 H4082 0.960 . S
C4070 H4083 0.962 . S
C4070 H4084 0.960 . S
C4071 C4068 1.511 . S
C4071 H4085 0.961 . S
C4071 H4086 0.961 . S
C4071 H4087 0.961 . S
C4072 C4073 1.370 . S
C4072 C4074 1.363 . S
C4072 H4088 0.931 . S
C4073 C4072 1.370 . S
C4073 C4077 1.408 . S
C4074 C4072 1.363 . S
C4074 C4075 1.370 . S
C4074 C4078 1.524 . S
C4075 C4067 1.503 . S
C4075 C4074 1.370 . S
C4075 C4076 1.403 . S
C4076 C4075 1.403 . S
C4076 C4077 1.404 . S
C4076 C4079 1.539 . S
C4077 C4073 1.408 . S
C4077 C4076 1.404 . S
C4077 H4089 0.930 . S
C4078 C4074 1.524 . S
C4078 H4090 0.956 . S
C4078 H4091 0.961 . S
C4078 H4092 0.961 . S
C4079 C4076 1.539 . S
C4079 H4093 0.958 . S
C4079 H4094 0.961 . S
C4079 H4095 0.960 . S
H4080 C4064 0.931 . S
H4081 C4069 0.929 . S
H4082 C4070 0.960 . S
H4083 C4070 0.962 . S
H4084 C4070 0.960 . S
H4085 C4071 0.961 . S
H4086 C4071 0.961 . S
H4087 C4071 0.961 . S
H4088 C4072 0.931 . S
H4089 C4077 0.930 . S
H4090 C4078 0.956 . S
H4091 C4078 0.961 . S
H4092 C4078 0.961 . S
H4093 C4079 0.958 . S
H4094 C4079 0.961 . S
H4095 C4079 0.960 . S
C4096 C4097 1.391 . S
C4096 C4098 1.394 . S
C4096 H4112 0.931 . S
C4097 C4096 1.391 . S
C4097 C4101 1.376 . S
C4098 C4096 1.394 . S
C4098 C4099 1.369 . S
C4098 C4102 1.531 . S
C4099 C4098 1.369 . S
C4099 C4100 1.410 . S
C4099 C4107 1.503 . S
C4100 C4099 1.410 . S
C4100 C4101 1.392 . S
C4100 C4103 1.511 . S
C4101 C4097 1.376 . S
C4101 C4100 1.392 . S
C4101 H4113 0.929 . S
C4102 C4098 1.531 . S
C4102 H4114 0.960 . S
C4102 H4115 0.962 . S
C4102 H4116 0.960 . S
C4103 C4100 1.511 . S
C4103 H4117 0.961 . S
C4103 H4118 0.961 . S
C4103 H4119 0.961 . S
C4104 C4105 1.370 . S
C4104 C4106 1.363 . S
C4104 H4120 0.931 . S
C4105 C4104 1.370 . S
C4105 C4109 1.408 . S
C4106 C4104 1.363 . S
C4106 C4107 1.370 . S
C4106 C4110 1.524 . S
C4107 C4099 1.503 . S
C4107 C4106 1.370 . S
C4107 C4108 1.403 . S
C4108 C4107 1.403 . S
C4108 C4109 1.404 . S
C4108 C4111 1.539 . S
C4109 C4105 1.408 . S
C4109 C4108 1.404 . S
C4109 H4121 0.930 . S
C4110 C4106 1.524 . S
C4110 H4122 0.956 . S
C4110 H4123 0.961 . S
C4110 H4124 0.961 . S
C4111 C4108 1.539 . S
C4111 H4125 0.958 . S
C4111 H4126 0.961 . S
C4111 H4127 0.960 . S
H4112 C4096 0.931 . S
H4113 C4101 0.929 . S
H4114 C4102 0.960 . S
H4115 C4102 0.962 . S
H4116 C4102 0.960 . S
H4117 C4103 0.961 . S
H4118 C4103 0.961 . S
H4119 C4103 0.961 . S
H4120 C4104 0.931 . S
H4121 C4109 0.930 . S
H4122 C4110 0.956 . S
H4123 C4110 0.961 . S
H4124 C4110 0.961 . S
H4125 C4111 0.958 . S
H4126 C4111 0.961 . S
H4127 C4111 0.960 . S
C4128 C4129 1.391 . S
C4128 C4130 1.394 . S
C4128 H4144 0.931 . S
C4129 C4128 1.391 . S
C4129 C4133 1.376 1_655 S
C4130 C4128 1.394 . S
C4130 C4131 1.369 1_655 S
C4130 C4134 1.531 . S
C4131 C4130 1.369 1_455 S
C4131 C4132 1.410 . S
C4131 C4139 1.503 . S
C4132 C4131 1.410 . S
C4132 C4133 1.392 . S
C4132 C4135 1.511 . S
C4133 C4129 1.376 1_455 S
C4133 C4132 1.392 . S
C4133 H4145 0.929 . S
C4134 C4130 1.531 . S
C4134 H4146 0.960 . S
C4134 H4147 0.962 . S
C4134 H4148 0.960 . S
C4135 C4132 1.511 . S
C4135 H4149 0.961 . S
C4135 H4150 0.961 . S
C4135 H4151 0.961 . S
C4136 C4137 1.370 . S
C4136 C4138 1.363 . S
C4136 H4152 0.931 . S
C4137 C4136 1.370 . S
C4137 C4141 1.408 . S
C4138 C4136 1.363 . S
C4138 C4139 1.370 . S
C4138 C4142 1.524 1_455 S
C4139 C4131 1.503 . S
C4139 C4138 1.370 . S
C4139 C4140 1.403 . S
C4140 C4139 1.403 . S
C4140 C4141 1.404 . S
C4140 C4143 1.539 . S
C4141 C4137 1.408 . S
C4141 C4140 1.404 . S
C4141 H4153 0.930 . S
C4142 C4138 1.524 1_655 S
C4142 H4154 0.956 . S
C4142 H4155 0.961 1_655 S
C4142 H4156 0.961 . S
C4143 C4140 1.539 . S
C4143 H4157 0.958 . S
C4143 H4158 0.961 . S
C4143 H4159 0.960 . S
H4144 C4128 0.931 . S
H4145 C4133 0.929 . S
H4146 C4134 0.960 . S
H4147 C4134 0.962 . S
H4148 C4134 0.960 . S
H4149 C4135 0.961 . S
H4150 C4135 0.961 . S
H4151 C4135 0.961 . S
H4152 C4136 0.931 . S
H4153 C4141 0.930 . S
H4154 C4142 0.956 . S
H4155 C4142 0.961 1_455 S
H4156 C4142 0.961 . S
H4157 C4143 0.958 . S
H4158 C4143 0.961 . S
H4159 C4143 0.960 . S
C4160 C4161 1.391 . S
C4160 C4162 1.394 . S
C4160 H4176 0.931 . S
C4161 C4160 1.391 . S
C4161 C4165 1.376 . S
C4162 C4160 1.394 . S
C4162 C4163 1.369 . S
C4162 C4166 1.531 . S
C4163 C4162 1.369 . S
C4163 C4164 1.410 . S
C4163 C4171 1.503 . S
C4164 C4163 1.410 . S
C4164 C4165 1.392 . S
C4164 C4167 1.511 . S
C4165 C4161 1.376 . S
C4165 C4164 1.392 . S
C4165 H4177 0.929 . S
C4166 C4162 1.531 . S
C4166 H4178 0.960 . S
C4166 H4179 0.962 . S
C4166 H4180 0.960 . S
C4167 C4164 1.511 . S
C4167 H4181 0.961 . S
C4167 H4182 0.961 . S
C4167 H4183 0.961 . S
C4168 C4169 1.370 . S
C4168 C4170 1.363 . S
C4168 H4184 0.931 . S
C4169 C4168 1.370 . S
C4169 C4173 1.408 . S
C4170 C4168 1.363 . S
C4170 C4171 1.370 . S
C4170 C4174 1.524 . S
C4171 C4163 1.503 . S
C4171 C4170 1.370 . S
C4171 C4172 1.403 . S
C4172 C4171 1.403 . S
C4172 C4173 1.404 . S
C4172 C4175 1.539 . S
C4173 C4169 1.408 . S
C4173 C4172 1.404 . S
C4173 H4185 0.930 . S
C4174 C4170 1.524 . S
C4174 H4186 0.956 . S
C4174 H4187 0.961 . S
C4174 H4188 0.961 . S
C4175 C4172 1.539 . S
C4175 H4189 0.958 . S
C4175 H4190 0.961 . S
C4175 H4191 0.960 . S
H4176 C4160 0.931 . S
H4177 C4165 0.929 . S
H4178 C4166 0.960 . S
H4179 C4166 0.962 . S
H4180 C4166 0.960 . S
H4181 C4167 0.961 . S
H4182 C4167 0.961 . S
H4183 C4167 0.961 . S
H4184 C4168 0.931 . S
H4185 C4173 0.930 . S
H4186 C4174 0.956 . S
H4187 C4174 0.961 . S
H4188 C4174 0.961 . S
H4189 C4175 0.958 . S
H4190 C4175 0.961 . S
H4191 C4175 0.960 . S
C4192 C4193 1.391 1_565 S
C4192 C4194 1.394 . S
C4192 H4208 0.931 . S
C4193 C4192 1.391 1_545 S
C4193 C4197 1.376 . S
C4194 C4192 1.394 . S
C4194 C4195 1.369 . S
C4194 C4198 1.531 . S
C4195 C4194 1.369 . S
C4195 C4196 1.410 1_565 S
C4195 C4203 1.503 . S
C4196 C4195 1.410 1_545 S
C4196 C4197 1.392 . S
C4196 C4199 1.511 . S
C4197 C4193 1.376 . S
C4197 C4196 1.392 . S
C4197 H4209 0.929 . S
C4198 C4194 1.531 . S
C4198 H4210 0.960 . S
C4198 H4211 0.962 . S
C4198 H4212 0.960 . S
C4199 C4196 1.511 . S
C4199 H4213 0.961 . S
C4199 H4214 0.961 . S
C4199 H4215 0.961 1_545 S
C4200 C4201 1.370 . S
C4200 C4202 1.362 1_565 S
C4200 H4216 0.931 1_565 S
C4201 C4200 1.370 . S
C4201 C4205 1.408 . S
C4202 C4200 1.362 1_545 S
C4202 C4203 1.337 1_545 S
C4202 C4206 1.560 . S
C4203 C4195 1.503 . S
C4203 C4202 1.337 1_565 S
C4203 C4204 1.403 . S
C4204 C4203 1.403 . S
C4204 C4205 1.404 . S
C4204 C4207 1.539 . S
C4205 C4201 1.408 . S
C4205 C4204 1.404 . S
C4205 H4217 0.930 . S
C4206 C4202 1.560 . S
C4206 H4218 0.956 . S
C4206 H4219 0.961 . S
C4206 H4220 0.961 . S
C4207 C4204 1.539 . S
C4207 H4221 0.958 . S
C4207 H4222 0.961 . S
C4207 H4223 0.960 . S
H4208 C4192 0.931 . S
H4209 C4197 0.929 . S
H4210 C4198 0.960 . S
H4211 C4198 0.962 . S
H4212 C4198 0.960 . S
H4213 C4199 0.961 . S
H4214 C4199 0.961 . S
H4215 C4199 0.961 1_565 S
H4216 C4200 0.931 1_545 S
H4217 C4205 0.930 . S
H4218 C4206 0.956 . S
H4219 C4206 0.961 . S
H4220 C4206 0.961 . S
H4221 C4207 0.958 . S
H4222 C4207 0.961 . S
H4223 C4207 0.960 . S
C4224 C4225 1.391 . S
C4224 C4226 1.394 . S
C4224 H4240 0.931 . S
C4225 C4224 1.391 . S
C4225 C4229 1.376 . S
C4226 C4224 1.394 . S
C4226 C4227 1.369 . S
C4226 C4230 1.531 . S
C4227 C4226 1.369 . S
C4227 C4228 1.411 . S
C4227 C4235 1.503 . S
C4228 C4227 1.411 . S
C4228 C4229 1.392 . S
C4228 C4231 1.509 1_545 S
C4229 C4225 1.376 . S
C4229 C4228 1.392 . S
C4229 H4241 0.929 1_545 S
C4230 C4226 1.531 . S
C4230 H4242 0.960 . S
C4230 H4243 0.962 . S
C4230 H4244 0.960 . S
C4231 C4228 1.509 1_565 S
C4231 H4245 0.961 . S
C4231 H4246 0.961 . S
C4231 H4247 0.961 . S
C4232 C4233 1.370 . S
C4232 C4234 1.363 . S
C4232 H4248 0.931 . S
C4233 C4232 1.370 . S
C4233 C4237 1.408 1_565 S
C4234 C4232 1.363 . S
C4234 C4235 1.370 1_565 S
C4234 C4238 1.524 . S
C4235 C4227 1.503 . S
C4235 C4234 1.370 1_545 S
C4235 C4236 1.403 . S
C4236 C4235 1.403 . S
C4236 C4237 1.404 . S
C4236 C4239 1.539 . S
C4237 C4233 1.408 1_545 S
C4237 C4236 1.404 . S
C4237 H4249 0.930 . S
C4238 C4234 1.524 . S
C4238 H4250 0.956 . S
C4238 H4251 0.961 . S
C4238 H4252 0.961 . S
C4239 C4236 1.539 . S
C4239 H4253 0.958 . S
C4239 H4254 0.961 . S
C4239 H4255 0.960 . S
H4240 C4224 0.931 . S
H4241 C4229 0.929 1_565 S
H4242 C4230 0.960 . S
H4243 C4230 0.962 . S
H4244 C4230 0.960 . S
H4245 C4231 0.961 . S
H4246 C4231 0.961 . S
H4247 C4231 0.961 . S
H4248 C4232 0.931 . S
H4249 C4237 0.930 . S
H4250 C4238 0.956 . S
H4251 C4238 0.961 . S
H4252 C4238 0.961 . S
H4253 C4239 0.958 . S
H4254 C4239 0.961 . S
H4255 C4239 0.960 . S
C4256 C4257 1.391 . S
C4256 C4258 1.394 . S
C4256 H4272 0.931 . S
C4257 C4256 1.391 . S
C4257 C4261 1.376 1_455 S
C4258 C4256 1.394 . S
C4258 C4259 1.369 1_455 S
C4258 C4262 1.531 . S
C4259 C4258 1.369 1_655 S
C4259 C4260 1.410 . S
C4259 C4267 1.503 . S
C4260 C4259 1.410 . S
C4260 C4261 1.392 . S
C4260 C4263 1.511 . S
C4261 C4257 1.376 1_655 S
C4261 C4260 1.392 . S
C4261 H4273 0.929 . S
C4262 C4258 1.531 . S
C4262 H4274 0.960 . S
C4262 H4275 0.962 . S
C4262 H4276 0.960 . S
C4263 C4260 1.511 . S
C4263 H4277 0.961 . S
C4263 H4278 0.961 . S
C4263 H4279 0.961 . S
C4264 C4265 1.370 . S
C4264 C4266 1.363 . S
C4264 H4280 0.931 . S
C4265 C4264 1.370 . S
C4265 C4269 1.408 . S
C4266 C4264 1.363 . S
C4266 C4267 1.370 . S
C4266 C4270 1.524 . S
C4267 C4259 1.503 . S
C4267 C4266 1.370 . S
C4267 C4268 1.403 . S
C4268 C4267 1.403 . S
C4268 C4269 1.404 . S
C4268 C4271 1.539 . S
C4269 C4265 1.408 . S
C4269 C4268 1.404 . S
C4269 H4281 0.930 . S
C4270 C4266 1.524 . S
C4270 H4282 0.956 1_655 S
C4270 H4283 0.961 . S
C4270 H4284 0.961 . S
C4271 C4268 1.539 . S
C4271 H4285 0.958 . S
C4271 H4286 0.961 . S
C4271 H4287 0.960 . S
H4272 C4256 0.931 . S
H4273 C4261 0.929 . S
H4274 C4262 0.960 . S
H4275 C4262 0.962 . S
H4276 C4262 0.960 . S
H4277 C4263 0.961 . S
H4278 C4263 0.961 . S
H4279 C4263 0.961 . S
H4280 C4264 0.931 . S
H4281 C4269 0.930 . S
H4282 C4270 0.956 1_455 S
H4283 C4270 0.961 . S
H4284 C4270 0.961 . S
H4285 C4271 0.958 . S
H4286 C4271 0.961 . S
H4287 C4271 0.960 . S
C4288 C4289 1.391 . S
C4288 C4290 1.394 . S
C4288 H4304 0.931 . S
C4289 C4288 1.391 . S
C4289 C4293 1.376 . S
C4290 C4288 1.394 . S
C4290 C4291 1.369 . S
C4290 C4294 1.531 . S
C4291 C4290 1.369 . S
C4291 C4292 1.410 . S
C4291 C4299 1.503 . S
C4292 C4291 1.410 . S
C4292 C4293 1.392 . S
C4292 C4295 1.511 . S
C4293 C4289 1.376 . S
C4293 C4292 1.392 . S
C4293 H4305 0.929 . S
C4294 C4290 1.531 . S
C4294 H4306 0.960 . S
C4294 H4307 0.962 . S
C4294 H4308 0.960 . S
C4295 C4292 1.511 . S
C4295 H4309 0.961 . S
C4295 H4310 0.961 . S
C4295 H4311 0.961 . S
C4296 C4297 1.370 . S
C4296 C4298 1.363 . S
C4296 H4312 0.931 . S
C4297 C4296 1.370 . S
C4297 C4301 1.408 . S
C4298 C4296 1.363 . S
C4298 C4299 1.370 . S
C4298 C4302 1.524 . S
C4299 C4291 1.503 . S
C4299 C4298 1.370 . S
C4299 C4300 1.403 . S
C4300 C4299 1.403 . S
C4300 C4301 1.404 . S
C4300 C4303 1.539 . S
C4301 C4297 1.408 . S
C4301 C4300 1.404 . S
C4301 H4313 0.930 . S
C4302 C4298 1.524 . S
C4302 H4314 0.956 . S
C4302 H4315 0.961 . S
C4302 H4316 0.961 . S
C4303 C4300 1.539 . S
C4303 H4317 0.958 . S
C4303 H4318 0.961 . S
C4303 H4319 0.960 . S
H4304 C4288 0.931 . S
H4305 C4293 0.929 . S
H4306 C4294 0.960 . S
H4307 C4294 0.962 . S
H4308 C4294 0.960 . S
H4309 C4295 0.961 . S
H4310 C4295 0.961 . S
H4311 C4295 0.961 . S
H4312 C4296 0.931 . S
H4313 C4301 0.930 . S
H4314 C4302 0.956 . S
H4315 C4302 0.961 . S
H4316 C4302 0.961 . S
H4317 C4303 0.958 . S
H4318 C4303 0.961 . S
H4319 C4303 0.960 . S
C4320 C4321 1.391 . S
C4320 C4322 1.394 1_655 S
C4320 H4336 0.931 . S
C4321 C4320 1.391 . S
C4321 C4325 1.376 1_655 S
C4322 C4320 1.394 1_455 S
C4322 C4323 1.369 . S
C4322 C4326 1.531 . S
C4323 C4322 1.369 . S
C4323 C4324 1.410 . S
C4323 C4331 1.503 . S
C4324 C4323 1.410 . S
C4324 C4325 1.392 . S
C4324 C4327 1.511 . S
C4325 C4321 1.376 1_455 S
C4325 C4324 1.392 . S
C4325 H4337 0.929 . S
C4326 C4322 1.531 . S
C4326 H4338 0.960 . S
C4326 H4339 0.962 . S
C4326 H4340 0.960 . S
C4327 C4324 1.511 . S
C4327 H4341 0.961 . S
C4327 H4342 0.961 . S
C4327 H4343 0.961 . S
C4328 C4329 1.370 . S
C4328 C4330 1.363 . S
C4328 H4344 0.931 . S
C4329 C4328 1.370 . S
C4329 C4333 1.408 . S
C4330 C4328 1.363 . S
C4330 C4331 1.370 . S
C4330 C4334 1.524 . S
C4331 C4323 1.503 . S
C4331 C4330 1.370 . S
C4331 C4332 1.403 . S
C4332 C4331 1.403 . S
C4332 C4333 1.404 . S
C4332 C4335 1.539 . S
C4333 C4329 1.408 . S
C4333 C4332 1.404 . S
C4333 H4345 0.930 . S
C4334 C4330 1.524 . S
C4334 H4346 0.956 1_455 S
C4334 H4347 0.961 . S
C4334 H4348 0.961 . S
C4335 C4332 1.539 . S
C4335 H4349 0.958 . S
C4335 H4350 0.961 . S
C4335 H4351 0.960 . S
H4336 C4320 0.931 . S
H4337 C4325 0.929 . S
H4338 C4326 0.960 . S
H4339 C4326 0.962 . S
H4340 C4326 0.960 . S
H4341 C4327 0.961 . S
H4342 C4327 0.961 . S
H4343 C4327 0.961 . S
H4344 C4328 0.931 . S
H4345 C4333 0.930 . S
H4346 C4334 0.956 1_655 S
H4347 C4334 0.961 . S
H4348 C4334 0.961 . S
H4349 C4335 0.958 . S
H4350 C4335 0.961 . S
H4351 C4335 0.960 . S
C4352 C4353 1.391 . S
C4352 C4354 1.394 . S
C4352 H4368 0.931 . S
C4353 C4352 1.391 . S
C4353 C4357 1.376 . S
C4354 C4352 1.394 . S
C4354 C4355 1.369 . S
C4354 C4358 1.531 . S
C4355 C4354 1.369 . S
C4355 C4356 1.410 . S
C4355 C4363 1.503 . S
C4356 C4355 1.410 . S
C4356 C4357 1.392 . S
C4356 C4359 1.511 . S
C4357 C4353 1.376 . S
C4357 C4356 1.392 . S
C4357 H4369 0.929 . S
C4358 C4354 1.531 . S
C4358 H4370 0.960 . S
C4358 H4371 0.962 . S
C4358 H4372 0.960 . S
C4359 C4356 1.511 . S
C4359 H4373 0.961 . S
C4359 H4374 0.961 . S
C4359 H4375 0.961 . S
C4360 C4361 1.370 . S
C4360 C4362 1.363 . S
C4360 H4376 0.931 . S
C4361 C4360 1.370 . S
C4361 C4365 1.408 . S
C4362 C4360 1.363 . S
C4362 C4363 1.370 . S
C4362 C4366 1.524 . S
C4363 C4355 1.503 . S
C4363 C4362 1.370 . S
C4363 C4364 1.403 . S
C4364 C4363 1.403 . S
C4364 C4365 1.404 . S
C4364 C4367 1.539 . S
C4365 C4361 1.408 . S
C4365 C4364 1.404 . S
C4365 H4377 0.930 . S
C4366 C4362 1.524 . S
C4366 H4378 0.956 . S
C4366 H4379 0.961 . S
C4366 H4380 0.961 . S
C4367 C4364 1.539 . S
C4367 H4381 0.958 . S
C4367 H4382 0.961 . S
C4367 H4383 0.960 . S
H4368 C4352 0.931 . S
H4369 C4357 0.929 . S
H4370 C4358 0.960 . S
H4371 C4358 0.962 . S
H4372 C4358 0.960 . S
H4373 C4359 0.961 . S
H4374 C4359 0.961 . S
H4375 C4359 0.961 . S
H4376 C4360 0.931 . S
H4377 C4365 0.930 . S
H4378 C4366 0.956 . S
H4379 C4366 0.961 . S
H4380 C4366 0.961 . S
H4381 C4367 0.958 . S
H4382 C4367 0.961 . S
H4383 C4367 0.960 . S
C4384 C4385 1.391 1_565 S
C4384 C4386 1.394 . S
C4384 H4400 0.931 1_565 S
C4385 C4384 1.391 1_545 S
C4385 C4389 1.375 . S
C4386 C4384 1.394 . S
C4386 C4387 1.369 . S
C4386 C4390 1.531 . S
C4387 C4386 1.369 . S
C4387 C4388 1.410 . S
C4387 C4395 1.503 . S
C4388 C4387 1.410 . S
C4388 C4389 1.368 1_565 S
C4388 C4391 1.511 . S
C4389 C4385 1.375 . S
C4389 C4388 1.368 1_545 S
C4389 H4401 0.955 . S
C4390 C4386 1.531 . S
C4390 H4402 0.960 . S
C4390 H4403 0.962 . S
C4390 H4404 0.960 . S
C4391 C4388 1.511 . S
C4391 H4405 0.961 . S
C4391 H4406 0.961 . S
C4391 H4407 0.961 . S
C4392 C4393 1.370 . S
C4392 C4394 1.363 . S
C4392 H4408 0.931 . S
C4393 C4392 1.370 . S
C4393 C4397 1.408 . S
C4394 C4392 1.363 . S
C4394 C4395 1.370 . S
C4394 C4398 1.524 . S
C4395 C4387 1.503 . S
C4395 C4394 1.370 . S
C4395 C4396 1.403 . S
C4396 C4395 1.403 . S
C4396 C4397 1.404 . S
C4396 C4399 1.539 . S
C4397 C4393 1.408 . S
C4397 C4396 1.404 . S
C4397 H4409 0.930 . S
C4398 C4394 1.524 . S
C4398 H4410 0.956 . S
C4398 H4411 0.954 1_565 S
C4398 H4412 0.961 . S
C4399 C4396 1.539 . S
C4399 H4413 0.958 . S
C4399 H4414 0.961 . S
C4399 H4415 0.960 . S
H4400 C4384 0.931 1_545 S
H4401 C4389 0.955 . S
H4402 C4390 0.960 . S
H4403 C4390 0.962 . S
H4404 C4390 0.960 . S
H4405 C4391 0.961 . S
H4406 C4391 0.961 . S
H4407 C4391 0.961 . S
H4408 C4392 0.931 . S
H4409 C4397 0.930 . S
H4410 C4398 0.956 . S
H4411 C4398 0.954 1_545 S
H4412 C4398 0.961 . S
H4413 C4399 0.958 . S
H4414 C4399 0.961 . S
H4415 C4399 0.960 . S
C4416 C4417 1.391 . S
C4416 C4418 1.394 . S
C4416 H4432 0.931 . S
C4417 C4416 1.391 . S
C4417 C4421 1.376 . S
C4418 C4416 1.394 . S
C4418 C4419 1.369 . S
C4418 C4422 1.531 . S
C4419 C4418 1.369 . S
C4419 C4420 1.410 . S
C4419 C4427 1.503 . S
C4420 C4419 1.410 . S
C4420 C4421 1.392 . S
C4420 C4423 1.511 . S
C4421 C4417 1.376 . S
C4421 C4420 1.392 . S
C4421 H4433 0.929 . S
C4422 C4418 1.531 . S
C4422 H4434 0.960 . S
C4422 H4435 0.962 . S
C4422 H4436 0.960 . S
C4423 C4420 1.511 . S
C4423 H4437 0.961 . S
C4423 H4438 0.961 . S
C4423 H4439 0.961 . S
C4424 C4425 1.370 . S
C4424 C4426 1.363 1_455 S
C4424 H4440 0.931 . S
C4425 C4424 1.370 . S
C4425 C4429 1.408 1_455 S
C4426 C4424 1.363 1_655 S
C4426 C4427 1.370 . S
C4426 C4430 1.524 . S
C4427 C4419 1.503 . S
C4427 C4426 1.370 . S
C4427 C4428 1.403 . S
C4428 C4427 1.403 . S
C4428 C4429 1.404 . S
C4428 C4431 1.539 . S
C4429 C4425 1.408 1_655 S
C4429 C4428 1.404 . S
C4429 H4441 0.930 . S
C4430 C4426 1.524 . S
C4430 H4442 0.951 1_655 S
C4430 H4443 0.961 . S
C4430 H4444 0.961 1_655 S
C4431 C4428 1.539 . S
C4431 H4445 0.958 . S
C4431 H4446 0.961 . S
C4431 H4447 0.960 . S
H4432 C4416 0.931 . S
H4433 C4421 0.929 . S
H4434 C4422 0.960 . S
H4435 C4422 0.962 . S
H4436 C4422 0.960 . S
H4437 C4423 0.961 . S
H4438 C4423 0.961 . S
H4439 C4423 0.961 . S
H4440 C4424 0.931 . S
H4441 C4429 0.930 . S
H4442 C4430 0.951 1_455 S
H4443 C4430 0.961 . S
H4444 C4430 0.961 1_455 S
H4445 C4431 0.958 . S
H4446 C4431 0.961 . S
H4447 C4431 0.960 . S
C4448 C4449 1.391 . S
C4448 C4450 1.394 . S
C4448 H4464 0.931 . S
C4449 C4448 1.391 . S
C4449 C4453 1.376 . S
C4450 C4448 1.394 . S
C4450 C4451 1.369 . S
C4450 C4454 1.531 . S
C4451 C4450 1.369 . S
C4451 C4452 1.410 . S
C4451 C4459 1.503 . S
C4452 C4451 1.410 . S
C4452 C4453 1.392 . S
C4452 C4455 1.511 . S
C4453 C4449 1.376 . S
C4453 C4452 1.392 . S
C4453 H4465 0.929 . S
C4454 C4450 1.531 . S
C4454 H4466 0.960 . S
C4454 H4467 0.962 . S
C4454 H4468 0.960 . S
C4455 C4452 1.511 . S
C4455 H4469 0.961 . S
C4455 H4470 0.961 . S
C4455 H4471 0.961 . S
C4456 C4457 1.370 . S
C4456 C4458 1.363 . S
C4456 H4472 0.931 . S
C4457 C4456 1.370 . S
C4457 C4461 1.408 . S
C4458 C4456 1.363 . S
C4458 C4459 1.370 . S
C4458 C4462 1.524 . S
C4459 C4451 1.503 . S
C4459 C4458 1.370 . S
C4459 C4460 1.403 . S
C4460 C4459 1.403 . S
C4460 C4461 1.404 . S
C4460 C4463 1.539 . S
C4461 C4457 1.408 . S
C4461 C4460 1.404 . S
C4461 H4473 0.930 . S
C4462 C4458 1.524 . S
C4462 H4474 0.956 . S
C4462 H4475 0.961 . S
C4462 H4476 0.961 . S
C4463 C4460 1.539 . S
C4463 H4477 0.958 . S
C4463 H4478 0.961 . S
C4463 H4479 0.960 . S
H4464 C4448 0.931 . S
H4465 C4453 0.929 . S
H4466 C4454 0.960 . S
H4467 C4454 0.962 . S
H4468 C4454 0.960 . S
H4469 C4455 0.961 . S
H4470 C4455 0.961 . S
H4471 C4455 0.961 . S
H4472 C4456 0.931 . S
H4473 C4461 0.930 . S
H4474 C4462 0.956 . S
H4475 C4462 0.961 . S
H4476 C4462 0.961 . S
H4477 C4463 0.958 . S
H4478 C4463 0.961 . S
H4479 C4463 0.960 . S
C4480 C4481 1.391 . S
C4480 C4482 1.394 . S
C4480 H4496 0.931 . S
C4481 C4480 1.391 . S
C4481 C4485 1.376 . S
C4482 C4480 1.394 . S
C4482 C4483 1.369 . S
C4482 C4486 1.531 . S
C4483 C4482 1.369 . S
C4483 C4484 1.410 . S
C4483 C4491 1.503 . S
C4484 C4483 1.410 . S
C4484 C4485 1.392 . S
C4484 C4487 1.511 . S
C4485 C4481 1.376 . S
C4485 C4484 1.392 . S
C4485 H4497 0.929 . S
C4486 C4482 1.531 . S
C4486 H4498 0.960 . S
C4486 H4499 0.962 . S
C4486 H4500 0.960 . S
C4487 C4484 1.511 . S
C4487 H4501 0.961 . S
C4487 H4502 0.961 . S
C4487 H4503 0.961 . S
C4488 C4489 1.370 1_545 S
C4488 C4490 1.363 . S
C4488 H4504 0.931 . S
C4489 C4488 1.370 1_565 S
C4489 C4493 1.408 . S
C4490 C4488 1.363 . S
C4490 C4491 1.370 . S
C4490 C4494 1.524 . S
C4491 C4483 1.503 . S
C4491 C4490 1.370 . S
C4491 C4492 1.403 1_545 S
C4492 C4491 1.403 1_565 S
C4492 C4493 1.404 . S
C4492 C4495 1.539 . S
C4493 C4489 1.408 . S
C4493 C4492 1.404 . S
C4493 H4505 0.930 . S
C4494 C4490 1.524 . S
C4494 H4506 0.956 . S
C4494 H4507 0.961 . S
C4494 H4508 0.961 . S
C4495 C4492 1.539 . S
C4495 H4509 0.958 . S
C4495 H4510 0.961 . S
C4495 H4511 0.960 . S
H4496 C4480 0.931 . S
H4497 C4485 0.929 . S
H4498 C4486 0.960 . S
H4499 C4486 0.962 . S
H4500 C4486 0.960 . S
H4501 C4487 0.961 . S
H4502 C4487 0.961 . S
H4503 C4487 0.961 . S
H4504 C4488 0.931 . S
H4505 C4493 0.930 . S
H4506 C4494 0.956 . S
H4507 C4494 0.961 . S
H4508 C4494 0.961 . S
H4509 C4495 0.958 . S
H4510 C4495 0.961 . S
H4511 C4495 0.960 . S
C4512 C4513 1.391 . S
C4512 C4514 1.394 . S
C4512 H4528 0.931 . S
C4513 C4512 1.391 . S
C4513 C4517 1.376 . S
C4514 C4512 1.394 . S
C4514 C4515 1.369 . S
C4514 C4518 1.531 . S
C4515 C4514 1.369 . S
C4515 C4516 1.410 . S
C4515 C4523 1.503 . S
C4516 C4515 1.410 . S
C4516 C4517 1.392 . S
C4516 C4519 1.511 . S
C4517 C4513 1.376 . S
C4517 C4516 1.392 . S
C4517 H4529 0.929 . S
C4518 C4514 1.531 . S
C4518 H4530 0.960 . S
C4518 H4531 0.962 . S
C4518 H4532 0.960 . S
C4519 C4516 1.511 . S
C4519 H4533 0.961 . S
C4519 H4534 0.961 . S
C4519 H4535 0.961 . S
C4520 C4521 1.370 . S
C4520 C4522 1.363 . S
C4520 H4536 0.931 . S
C4521 C4520 1.370 . S
C4521 C4525 1.408 . S
C4522 C4520 1.363 . S
C4522 C4523 1.370 . S
C4522 C4526 1.524 . S
C4523 C4515 1.503 . S
C4523 C4522 1.370 . S
C4523 C4524 1.403 . S
C4524 C4523 1.403 . S
C4524 C4525 1.404 . S
C4524 C4527 1.539 . S
C4525 C4521 1.408 . S
C4525 C4524 1.404 . S
C4525 H4537 0.930 . S
C4526 C4522 1.524 . S
C4526 H4538 0.956 . S
C4526 H4539 0.961 . S
C4526 H4540 0.961 . S
C4527 C4524 1.539 . S
C4527 H4541 0.958 . S
C4527 H4542 0.961 . S
C4527 H4543 0.960 . S
H4528 C4512 0.931 . S
H4529 C4517 0.929 . S
H4530 C4518 0.960 . S
H4531 C4518 0.962 . S
H4532 C4518 0.960 . S
H4533 C4519 0.961 . S
H4534 C4519 0.961 . S
H4535 C4519 0.961 . S
H4536 C4520 0.931 . S
H4537 C4525 0.930 . S
H4538 C4526 0.956 . S
H4539 C4526 0.961 . S
H4540 C4526 0.961 . S
H4541 C4527 0.958 . S
H4542 C4527 0.961 . S
H4543 C4527 0.960 . S
C4544 C4545 1.391 . S
C4544 C4546 1.394 . S
C4544 H4560 0.931 . S
C4545 C4544 1.391 . S
C4545 C4549 1.376 . S
C4546 C4544 1.394 . S
C4546 C4547 1.369 . S
C4546 C4550 1.531 . S
C4547 C4546 1.369 . S
C4547 C4548 1.410 . S
C4547 C4555 1.503 . S
C4548 C4547 1.410 . S
C4548 C4549 1.392 . S
C4548 C4551 1.511 . S
C4549 C4545 1.376 . S
C4549 C4548 1.392 . S
C4549 H4561 0.929 . S
C4550 C4546 1.531 . S
C4550 H4562 0.960 . S
C4550 H4563 0.962 . S
C4550 H4564 0.960 . S
C4551 C4548 1.511 . S
C4551 H4565 0.961 . S
C4551 H4566 0.961 . S
C4551 H4567 0.961 . S
C4552 C4553 1.370 . S
C4552 C4554 1.363 . S
C4552 H4568 0.931 . S
C4553 C4552 1.370 . S
C4553 C4557 1.408 . S
C4554 C4552 1.363 . S
C4554 C4555 1.370 . S
C4554 C4558 1.524 . S
C4555 C4547 1.503 . S
C4555 C4554 1.370 . S
C4555 C4556 1.403 . S
C4556 C4555 1.403 . S
C4556 C4557 1.404 . S
C4556 C4559 1.539 . S
C4557 C4553 1.408 . S
C4557 C4556 1.404 . S
C4557 H4569 0.930 . S
C4558 C4554 1.524 . S
C4558 H4570 0.956 . S
C4558 H4571 0.961 . S
C4558 H4572 0.961 . S
C4559 C4556 1.539 . S
C4559 H4573 0.958 . S
C4559 H4574 0.961 . S
C4559 H4575 0.960 . S
H4560 C4544 0.931 . S
H4561 C4549 0.929 . S
H4562 C4550 0.960 . S
H4563 C4550 0.962 . S
H4564 C4550 0.960 . S
H4565 C4551 0.961 . S
H4566 C4551 0.961 . S
H4567 C4551 0.961 . S
H4568 C4552 0.931 . S
H4569 C4557 0.930 . S
H4570 C4558 0.956 . S
H4571 C4558 0.961 . S
H4572 C4558 0.961 . S
H4573 C4559 0.958 . S
H4574 C4559 0.961 . S
H4575 C4559 0.960 . S
C4576 C4577 1.391 . S
C4576 C4578 1.394 . S
C4576 H4592 0.931 . S
C4577 C4576 1.391 . S
C4577 C4581 1.376 . S
C4578 C4576 1.394 . S
C4578 C4579 1.369 . S
C4578 C4582 1.531 . S
C4579 C4578 1.369 . S
C4579 C4580 1.410 . S
C4579 C4587 1.503 . S
C4580 C4579 1.410 . S
C4580 C4581 1.392 . S
C4580 C4583 1.511 . S
C4581 C4577 1.376 . S
C4581 C4580 1.392 . S
C4581 H4593 0.929 . S
C4582 C4578 1.531 . S
C4582 H4594 0.960 . S
C4582 H4595 0.962 . S
C4582 H4596 0.960 . S
C4583 C4580 1.511 . S
C4583 H4597 0.961 . S
C4583 H4598 0.961 . S
C4583 H4599 0.961 . S
C4584 C4585 1.370 . S
C4584 C4586 1.363 . S
C4584 H4600 0.931 . S
C4585 C4584 1.370 . S
C4585 C4589 1.408 . S
C4586 C4584 1.363 . S
C4586 C4587 1.370 . S
C4586 C4590 1.524 . S
C4587 C4579 1.503 . S
C4587 C4586 1.370 . S
C4587 C4588 1.403 . S
C4588 C4587 1.403 . S
C4588 C4589 1.404 . S
C4588 C4591 1.539 . S
C4589 C4585 1.408 . S
C4589 C4588 1.404 . S
C4589 H4601 0.930 . S
C4590 C4586 1.524 . S
C4590 H4602 0.956 . S
C4590 H4603 0.961 . S
C4590 H4604 0.961 . S
C4591 C4588 1.539 . S
C4591 H4605 0.958 . S
C4591 H4606 0.961 . S
C4591 H4607 0.960 . S
H4592 C4576 0.931 . S
H4593 C4581 0.929 . S
H4594 C4582 0.960 . S
H4595 C4582 0.962 . S
H4596 C4582 0.960 . S
H4597 C4583 0.961 . S
H4598 C4583 0.961 . S
H4599 C4583 0.961 . S
H4600 C4584 0.931 . S
H4601 C4589 0.930 . S
H4602 C4590 0.956 . S
H4603 C4590 0.961 . S
H4604 C4590 0.961 . S
H4605 C4591 0.958 . S
H4606 C4591 0.961 . S
H4607 C4591 0.960 . S
C4608 C4609 1.391 . S
C4608 C4610 1.394 . S
C4608 H4624 0.931 . S
C4609 C4608 1.391 . S
C4609 C4613 1.376 . S
C4610 C4608 1.394 . S
C4610 C4611 1.369 . S
C4610 C4614 1.531 . S
C4611 C4610 1.369 . S
C4611 C4612 1.410 . S
C4611 C4619 1.503 . S
C4612 C4611 1.410 . S
C4612 C4613 1.392 . S
C4612 C4615 1.511 . S
C4613 C4609 1.376 . S
C4613 C4612 1.392 . S
C4613 H4625 0.929 . S
C4614 C4610 1.531 . S
C4614 H4626 0.960 . S
C4614 H4627 0.962 . S
C4614 H4628 0.960 . S
C4615 C4612 1.511 . S
C4615 H4629 0.961 . S
C4615 H4630 0.961 . S
C4615 H4631 0.961 . S
C4616 C4617 1.370 . S
C4616 C4618 1.363 . S
C4616 H4632 0.931 . S
C4617 C4616 1.370 . S
C4617 C4621 1.408 . S
C4618 C4616 1.363 . S
C4618 C4619 1.370 . S
C4618 C4622 1.524 . S
C4619 C4611 1.503 . S
C4619 C4618 1.370 . S
C4619 C4620 1.403 . S
C4620 C4619 1.403 . S
C4620 C4621 1.404 . S
C4620 C4623 1.539 . S
C4621 C4617 1.408 . S
C4621 C4620 1.404 . S
C4621 H4633 0.930 . S
C4622 C4618 1.524 . S
C4622 H4634 0.956 . S
C4622 H4635 0.961 . S
C4622 H4636 0.961 . S
C4623 C4620 1.539 . S
C4623 H4637 0.958 . S
C4623 H4638 0.961 . S
C4623 H4639 0.960 . S
H4624 C4608 0.931 . S
H4625 C4613 0.929 . S
H4626 C4614 0.960 . S
H4627 C4614 0.962 . S
H4628 C4614 0.960 . S
H4629 C4615 0.961 . S
H4630 C4615 0.961 . S
H4631 C4615 0.961 . S
H4632 C4616 0.931 . S
H4633 C4621 0.930 . S
H4634 C4622 0.956 . S
H4635 C4622 0.961 . S
H4636 C4622 0.961 . S
H4637 C4623 0.958 . S
H4638 C4623 0.961 . S
H4639 C4623 0.960 . S
C4640 C4641 1.391 . S
C4640 C4642 1.394 . S
C4640 H4656 0.931 . S
C4641 C4640 1.391 . S
C4641 C4645 1.376 . S
C4642 C4640 1.394 . S
C4642 C4643 1.369 . S
C4642 C4646 1.531 . S
C4643 C4642 1.369 . S
C4643 C4644 1.410 . S
C4643 C4651 1.503 . S
C4644 C4643 1.410 . S
C4644 C4645 1.392 . S
C4644 C4647 1.511 . S
C4645 C4641 1.376 . S
C4645 C4644 1.392 . S
C4645 H4657 0.929 . S
C4646 C4642 1.531 . S
C4646 H4658 0.960 . S
C4646 H4659 0.962 . S
C4646 H4660 0.960 . S
C4647 C4644 1.511 . S
C4647 H4661 0.961 . S
C4647 H4662 0.961 . S
C4647 H4663 0.961 . S
C4648 C4649 1.370 . S
C4648 C4650 1.363 . S
C4648 H4664 0.931 . S
C4649 C4648 1.370 . S
C4649 C4653 1.408 . S
C4650 C4648 1.363 . S
C4650 C4651 1.370 . S
C4650 C4654 1.524 . S
C4651 C4643 1.503 . S
C4651 C4650 1.370 . S
C4651 C4652 1.403 . S
C4652 C4651 1.403 . S
C4652 C4653 1.404 . S
C4652 C4655 1.539 . S
C4653 C4649 1.408 . S
C4653 C4652 1.404 . S
C4653 H4665 0.930 . S
C4654 C4650 1.524 . S
C4654 H4666 0.956 . S
C4654 H4667 0.961 . S
C4654 H4668 0.961 . S
C4655 C4652 1.539 . S
C4655 H4669 0.958 . S
C4655 H4670 0.961 . S
C4655 H4671 0.960 . S
H4656 C4640 0.931 . S
H4657 C4645 0.929 . S
H4658 C4646 0.960 . S
H4659 C4646 0.962 . S
H4660 C4646 0.960 . S
H4661 C4647 0.961 . S
H4662 C4647 0.961 . S
H4663 C4647 0.961 . S
H4664 C4648 0.931 . S
H4665 C4653 0.930 . S
H4666 C4654 0.956 . S
H4667 C4654 0.961 . S
H4668 C4654 0.961 . S
H4669 C4655 0.958 . S
H4670 C4655 0.961 . S
H4671 C4655 0.960 . S
C4672 C4673 1.391 . S
C4672 C4674 1.394 . S
C4672 H4688 0.931 . S
C4673 C4672 1.391 . S
C4673 C4677 1.376 . S
C4674 C4672 1.394 . S
C4674 C4675 1.369 . S
C4674 C4678 1.531 . S
C4675 C4674 1.369 . S
C4675 C4676 1.410 . S
C4675 C4683 1.503 . S
C4676 C4675 1.410 . S
C4676 C4677 1.392 . S
C4676 C4679 1.511 . S
C4677 C4673 1.376 . S
C4677 C4676 1.392 . S
C4677 H4689 0.929 . S
C4678 C4674 1.531 . S
C4678 H4690 0.960 . S
C4678 H4691 0.962 . S
C4678 H4692 0.960 . S
C4679 C4676 1.511 . S
C4679 H4693 0.961 . S
C4679 H4694 0.961 . S
C4679 H4695 0.961 . S
C4680 C4681 1.370 . S
C4680 C4682 1.363 . S
C4680 H4696 0.931 . S
C4681 C4680 1.370 . S
C4681 C4685 1.408 . S
C4682 C4680 1.363 . S
C4682 C4683 1.370 . S
C4682 C4686 1.524 . S
C4683 C4675 1.503 . S
C4683 C4682 1.370 . S
C4683 C4684 1.403 . S
C4684 C4683 1.403 . S
C4684 C4685 1.404 . S
C4684 C4687 1.539 . S
C4685 C4681 1.408 . S
C4685 C4684 1.404 . S
C4685 H4697 0.930 . S
C4686 C4682 1.524 . S
C4686 H4698 0.956 . S
C4686 H4699 0.961 . S
C4686 H4700 0.961 . S
C4687 C4684 1.539 . S
C4687 H4701 0.958 . S
C4687 H4702 0.961 . S
C4687 H4703 0.960 . S
H4688 C4672 0.931 . S
H4689 C4677 0.929 . S
H4690 C4678 0.960 . S
H4691 C4678 0.962 . S
H4692 C4678 0.960 . S
H4693 C4679 0.961 . S
H4694 C4679 0.961 . S
H4695 C4679 0.961 . S
H4696 C4680 0.931 . S
H4697 C4685 0.930 . S
H4698 C4686 0.956 . S
H4699 C4686 0.961 . S
H4700 C4686 0.961 . S
H4701 C4687 0.958 . S
H4702 C4687 0.961 . S
H4703 C4687 0.960 . S
C4704 C4705 1.391 . S
C4704 C4706 1.394 . S
C4704 H4720 0.931 . S
C4705 C4704 1.391 . S
C4705 C4709 1.376 . S
C4706 C4704 1.394 . S
C4706 C4707 1.369 . S
C4706 C4710 1.531 . S
C4707 C4706 1.369 . S
C4707 C4708 1.410 . S
C4707 C4715 1.503 . S
C4708 C4707 1.410 . S
C4708 C4709 1.392 . S
C4708 C4711 1.511 . S
C4709 C4705 1.376 . S
C4709 C4708 1.392 . S
C4709 H4721 0.929 . S
C4710 C4706 1.531 . S
C4710 H4722 0.960 . S
C4710 H4723 0.962 . S
C4710 H4724 0.960 . S
C4711 C4708 1.511 . S
C4711 H4725 0.961 . S
C4711 H4726 0.961 . S
C4711 H4727 0.961 . S
C4712 C4713 1.370 . S
C4712 C4714 1.363 . S
C4712 H4728 0.931 . S
C4713 C4712 1.370 . S
C4713 C4717 1.408 . S
C4714 C4712 1.363 . S
C4714 C4715 1.370 . S
C4714 C4718 1.524 . S
C4715 C4707 1.503 . S
C4715 C4714 1.370 . S
C4715 C4716 1.403 . S
C4716 C4715 1.403 . S
C4716 C4717 1.404 . S
C4716 C4719 1.539 . S
C4717 C4713 1.408 . S
C4717 C4716 1.404 . S
C4717 H4729 0.930 . S
C4718 C4714 1.524 . S
C4718 H4730 0.956 . S
C4718 H4731 0.961 . S
C4718 H4732 0.961 . S
C4719 C4716 1.539 . S
C4719 H4733 0.958 . S
C4719 H4734 0.961 . S
C4719 H4735 0.960 . S
H4720 C4704 0.931 . S
H4721 C4709 0.929 . S
H4722 C4710 0.960 . S
H4723 C4710 0.962 . S
H4724 C4710 0.960 . S
H4725 C4711 0.961 . S
H4726 C4711 0.961 . S
H4727 C4711 0.961 . S
H4728 C4712 0.931 . S
H4729 C4717 0.930 . S
H4730 C4718 0.956 . S
H4731 C4718 0.961 . S
H4732 C4718 0.961 . S
H4733 C4719 0.958 . S
H4734 C4719 0.961 . S
H4735 C4719 0.960 . S
C4736 C4737 1.391 . S
C4736 C4738 1.394 . S
C4736 H4752 0.931 . S
C4737 C4736 1.391 . S
C4737 C4741 1.376 . S
C4738 C4736 1.394 . S
C4738 C4739 1.369 . S
C4738 C4742 1.531 . S
C4739 C4738 1.369 . S
C4739 C4740 1.410 . S
C4739 C4747 1.503 . S
C4740 C4739 1.410 . S
C4740 C4741 1.392 . S
C4740 C4743 1.511 . S
C4741 C4737 1.376 . S
C4741 C4740 1.392 . S
C4741 H4753 0.929 . S
C4742 C4738 1.531 . S
C4742 H4754 0.960 . S
C4742 H4755 0.962 . S
C4742 H4756 0.960 . S
C4743 C4740 1.511 . S
C4743 H4757 0.961 . S
C4743 H4758 0.961 . S
C4743 H4759 0.961 . S
C4744 C4745 1.370 . S
C4744 C4746 1.363 . S
C4744 H4760 0.931 . S
C4745 C4744 1.370 . S
C4745 C4749 1.408 . S
C4746 C4744 1.363 . S
C4746 C4747 1.370 . S
C4746 C4750 1.524 . S
C4747 C4739 1.503 . S
C4747 C4746 1.370 . S
C4747 C4748 1.403 . S
C4748 C4747 1.403 . S
C4748 C4749 1.404 . S
C4748 C4751 1.539 . S
C4749 C4745 1.408 . S
C4749 C4748 1.404 . S
C4749 H4761 0.930 . S
C4750 C4746 1.524 . S
C4750 H4762 0.956 . S
C4750 H4763 0.961 . S
C4750 H4764 0.961 . S
C4751 C4748 1.539 . S
C4751 H4765 0.958 . S
C4751 H4766 0.961 . S
C4751 H4767 0.960 . S
H4752 C4736 0.931 . S
H4753 C4741 0.929 . S
H4754 C4742 0.960 . S
H4755 C4742 0.962 . S
H4756 C4742 0.960 . S
H4757 C4743 0.961 . S
H4758 C4743 0.961 . S
H4759 C4743 0.961 . S
H4760 C4744 0.931 . S
H4761 C4749 0.930 . S
H4762 C4750 0.956 . S
H4763 C4750 0.961 . S
H4764 C4750 0.961 . S
H4765 C4751 0.958 . S
H4766 C4751 0.961 . S
H4767 C4751 0.960 . S
C4768 C4769 1.391 . S
C4768 C4770 1.394 . S
C4768 H4784 0.931 . S
C4769 C4768 1.391 . S
C4769 C4773 1.376 . S
C4770 C4768 1.394 . S
C4770 C4771 1.369 . S
C4770 C4774 1.531 . S
C4771 C4770 1.369 . S
C4771 C4772 1.410 . S
C4771 C4779 1.503 . S
C4772 C4771 1.410 . S
C4772 C4773 1.392 . S
C4772 C4775 1.511 . S
C4773 C4769 1.376 . S
C4773 C4772 1.392 . S
C4773 H4785 0.929 . S
C4774 C4770 1.531 . S
C4774 H4786 0.960 . S
C4774 H4787 0.962 . S
C4774 H4788 0.960 . S
C4775 C4772 1.511 . S
C4775 H4789 0.961 . S
C4775 H4790 0.961 . S
C4775 H4791 0.961 . S
C4776 C4777 1.370 . S
C4776 C4778 1.363 . S
C4776 H4792 0.931 . S
C4777 C4776 1.370 . S
C4777 C4781 1.408 . S
C4778 C4776 1.363 . S
C4778 C4779 1.370 . S
C4778 C4782 1.524 . S
C4779 C4771 1.503 . S
C4779 C4778 1.370 . S
C4779 C4780 1.403 . S
C4780 C4779 1.403 . S
C4780 C4781 1.404 . S
C4780 C4783 1.539 . S
C4781 C4777 1.408 . S
C4781 C4780 1.404 . S
C4781 H4793 0.930 . S
C4782 C4778 1.524 . S
C4782 H4794 0.956 . S
C4782 H4795 0.961 . S
C4782 H4796 0.961 . S
C4783 C4780 1.539 . S
C4783 H4797 0.958 . S
C4783 H4798 0.961 . S
C4783 H4799 0.960 . S
H4784 C4768 0.931 . S
H4785 C4773 0.929 . S
H4786 C4774 0.960 . S
H4787 C4774 0.962 . S
H4788 C4774 0.960 . S
H4789 C4775 0.961 . S
H4790 C4775 0.961 . S
H4791 C4775 0.961 . S
H4792 C4776 0.931 . S
H4793 C4781 0.930 . S
H4794 C4782 0.956 . S
H4795 C4782 0.961 . S
H4796 C4782 0.961 . S
H4797 C4783 0.958 . S
H4798 C4783 0.961 . S
H4799 C4783 0.960 . S
C4800 C4801 1.391 . S
C4800 C4802 1.394 . S
C4800 H4816 0.931 . S
C4801 C4800 1.391 . S
C4801 C4805 1.376 . S
C4802 C4800 1.394 . S
C4802 C4803 1.369 . S
C4802 C4806 1.531 . S
C4803 C4802 1.369 . S
C4803 C4804 1.410 . S
C4803 C4811 1.503 . S
C4804 C4803 1.410 . S
C4804 C4805 1.392 . S
C4804 C4807 1.511 . S
C4805 C4801 1.376 . S
C4805 C4804 1.392 . S
C4805 H4817 0.929 . S
C4806 C4802 1.531 . S
C4806 H4818 0.960 . S
C4806 H4819 0.962 . S
C4806 H4820 0.960 . S
C4807 C4804 1.511 . S
C4807 H4821 0.961 . S
C4807 H4822 0.961 . S
C4807 H4823 0.961 . S
C4808 C4809 1.370 . S
C4808 C4810 1.363 . S
C4808 H4824 0.931 . S
C4809 C4808 1.370 . S
C4809 C4813 1.408 . S
C4810 C4808 1.363 . S
C4810 C4811 1.370 . S
C4810 C4814 1.524 . S
C4811 C4803 1.503 . S
C4811 C4810 1.370 . S
C4811 C4812 1.403 . S
C4812 C4811 1.403 . S
C4812 C4813 1.404 . S
C4812 C4815 1.539 . S
C4813 C4809 1.408 . S
C4813 C4812 1.404 . S
C4813 H4825 0.930 . S
C4814 C4810 1.524 . S
C4814 H4826 0.956 . S
C4814 H4827 0.961 . S
C4814 H4828 0.961 . S
C4815 C4812 1.539 . S
C4815 H4829 0.958 . S
C4815 H4830 0.961 . S
C4815 H4831 0.960 . S
H4816 C4800 0.931 . S
H4817 C4805 0.929 . S
H4818 C4806 0.960 . S
H4819 C4806 0.962 . S
H4820 C4806 0.960 . S
H4821 C4807 0.961 . S
H4822 C4807 0.961 . S
H4823 C4807 0.961 . S
H4824 C4808 0.931 . S
H4825 C4813 0.930 . S
H4826 C4814 0.956 . S
H4827 C4814 0.961 . S
H4828 C4814 0.961 . S
H4829 C4815 0.958 . S
H4830 C4815 0.961 . S
H4831 C4815 0.960 . S
C4832 C4833 1.391 . S
C4832 C4834 1.394 . S
C4832 H4848 0.931 . S
C4833 C4832 1.391 . S
C4833 C4837 1.376 . S
C4834 C4832 1.394 . S
C4834 C4835 1.369 . S
C4834 C4838 1.531 . S
C4835 C4834 1.369 . S
C4835 C4836 1.410 . S
C4835 C4843 1.503 . S
C4836 C4835 1.410 . S
C4836 C4837 1.392 . S
C4836 C4839 1.511 . S
C4837 C4833 1.376 . S
C4837 C4836 1.392 . S
C4837 H4849 0.929 . S
C4838 C4834 1.531 . S
C4838 H4850 0.960 . S
C4838 H4851 0.962 . S
C4838 H4852 0.960 . S
C4839 C4836 1.511 . S
C4839 H4853 0.961 . S
C4839 H4854 0.961 . S
C4839 H4855 0.961 . S
C4840 C4841 1.370 . S
C4840 C4842 1.363 . S
C4840 H4856 0.931 . S
C4841 C4840 1.370 . S
C4841 C4845 1.408 . S
C4842 C4840 1.363 . S
C4842 C4843 1.370 . S
C4842 C4846 1.524 . S
C4843 C4835 1.503 . S
C4843 C4842 1.370 . S
C4843 C4844 1.403 . S
C4844 C4843 1.403 . S
C4844 C4845 1.404 . S
C4844 C4847 1.539 . S
C4845 C4841 1.408 . S
C4845 C4844 1.404 . S
C4845 H4857 0.930 . S
C4846 C4842 1.524 . S
C4846 H4858 0.956 . S
C4846 H4859 0.961 . S
C4846 H4860 0.961 . S
C4847 C4844 1.539 . S
C4847 H4861 0.958 . S
C4847 H4862 0.961 . S
C4847 H4863 0.960 . S
H4848 C4832 0.931 . S
H4849 C4837 0.929 . S
H4850 C4838 0.960 . S
H4851 C4838 0.962 . S
H4852 C4838 0.960 . S
H4853 C4839 0.961 . S
H4854 C4839 0.961 . S
H4855 C4839 0.961 . S
H4856 C4840 0.931 . S
H4857 C4845 0.930 . S
H4858 C4846 0.956 . S
H4859 C4846 0.961 . S
H4860 C4846 0.961 . S
H4861 C4847 0.958 . S
H4862 C4847 0.961 . S
H4863 C4847 0.960 . S
C4864 C4865 1.391 . S
C4864 C4866 1.394 . S
C4864 H4880 0.931 . S
C4865 C4864 1.391 . S
C4865 C4869 1.376 . S
C4866 C4864 1.394 . S
C4866 C4867 1.369 . S
C4866 C4870 1.531 . S
C4867 C4866 1.369 . S
C4867 C4868 1.410 . S
C4867 C4875 1.503 . S
C4868 C4867 1.410 . S
C4868 C4869 1.392 . S
C4868 C4871 1.511 . S
C4869 C4865 1.376 . S
C4869 C4868 1.392 . S
C4869 H4881 0.929 . S
C4870 C4866 1.531 . S
C4870 H4882 0.960 . S
C4870 H4883 0.962 . S
C4870 H4884 0.960 . S
C4871 C4868 1.511 . S
C4871 H4885 0.961 . S
C4871 H4886 0.961 . S
C4871 H4887 0.961 . S
C4872 C4873 1.370 . S
C4872 C4874 1.363 . S
C4872 H4888 0.931 . S
C4873 C4872 1.370 . S
C4873 C4877 1.408 . S
C4874 C4872 1.363 . S
C4874 C4875 1.370 . S
C4874 C4878 1.524 . S
C4875 C4867 1.503 . S
C4875 C4874 1.370 . S
C4875 C4876 1.403 . S
C4876 C4875 1.403 . S
C4876 C4877 1.404 . S
C4876 C4879 1.539 . S
C4877 C4873 1.408 . S
C4877 C4876 1.404 . S
C4877 H4889 0.930 . S
C4878 C4874 1.524 . S
C4878 H4890 0.956 . S
C4878 H4891 0.961 . S
C4878 H4892 0.961 . S
C4879 C4876 1.539 . S
C4879 H4893 0.958 . S
C4879 H4894 0.961 . S
C4879 H4895 0.960 . S
H4880 C4864 0.931 . S
H4881 C4869 0.929 . S
H4882 C4870 0.960 . S
H4883 C4870 0.962 . S
H4884 C4870 0.960 . S
H4885 C4871 0.961 . S
H4886 C4871 0.961 . S
H4887 C4871 0.961 . S
H4888 C4872 0.931 . S
H4889 C4877 0.930 . S
H4890 C4878 0.956 . S
H4891 C4878 0.961 . S
H4892 C4878 0.961 . S
H4893 C4879 0.958 . S
H4894 C4879 0.961 . S
H4895 C4879 0.960 . S
C1441 C9 1.086 . S
C1449 C95 1.048 . S
C1473 C15 1.092 . S
C1481 C49 1.066 . S
C1505 C89 1.064 . S
C1513 C55 1.060 . S
C1537 C138 2.580 . S
C1545 C170 2.641 . S
C1569 C210 2.644 . S
C1577 C178 2.585 . S
C1601 C218 2.582 . S
C1609 C130 2.644 . S
C1633 C258 1.046 . S
C1641 C326 1.066 . S
C1665 C298 1.104 . S
C1673 C246 1.042 . S
C1697 C338 1.060 . S
C1705 C286 1.075 . S
C1729 C369 2.584 . S
C1737 C419 2.641 . S
C1761 C459 2.627 . S
C1769 C409 2.572 . S
C1793 C379 2.642 . S
C1801 C449 2.585 . S
C1825 C575 1.060 . S
C1833 C489 1.071 . S
C1857 C529 1.065 . S
C1865 C495 1.069 . S
C1889 C535 1.091 . S
C1897 C569 1.067 . S
C1921 C618 2.558 . S
C1929 C650 2.637 . S
C1953 C690 2.643 . S
C1961 C658 2.585 . S
C1985 C610 2.627 . S
C1993 C698 2.570 . S
C2017 C738 1.044 . S
C2025 C806 1.078 . S
C2049 C778 1.106 . S
C2057 C726 1.045 . S
C2081 C766 1.047 . S
C2089 C818 1.085 . S
C2113 C899 2.627 . S
C2121 C849 2.564 1_554 S
C2145 C889 2.554 1_554 S
C2153 C939 2.638 . S
C2177 C859 2.636 . S
C2185 C929 2.560 1_554 S
C2209 C969 1.053 . S
C2217 C1055 1.074 . S
C2241 C1009 1.076 . S
C2249 C975 1.063 . S
C2273 C1049 1.103 . S
C2281 C1015 1.042 . S
C2305 C1098 2.585 1_556 S
C2313 C1130 2.644 . S
C2337 C1138 2.551 1_556 S
C2345 C1170 2.639 . S
C2369 C1178 2.562 1_556 S
C2377 C1090 2.638 . S
C2401 C1218 1.101 . S
C2409 C1286 1.041 . S
C2433 C1258 1.049 . S
C2441 C1206 1.064 . S
C2465 C1246 1.100 . S
C2473 C1298 1.062 . S
C2497 C1329 2.554 . S
C2505 C1379 2.638 . S
C2529 C1369 2.573 . S
C2537 C1419 2.643 . S
C2561 C1339 2.628 . S
C2569 C1409 2.576 . S
C2593 C6 0.393 . S
C2601 C809 0.446 . S
C2625 C729 0.602 . S
C2633 C46 0.481 . S
C2657 C86 0.511 . S
C2665 C769 0.538 . S
C2689 C139 3.089 . S
C2697 C1378 3.053 . S
C2721 C1418 3.047 . S
C2729 C179 3.084 . S
C2753 C219 3.092 . S
C2761 C1338 3.054 . S
C2785 C1058 0.549 . S
C2793 C255 0.455 . S
C2817 C295 0.395 . S
C2825 C978 0.441 . S
C2849 C335 0.567 . S
C2857 C1018 0.496 . S
C2881 C649 3.052 . S
C2889 C370 3.085 . S
C2913 C689 3.044 . S
C2921 C410 3.097 . S
C2945 C609 3.047 . S
C2953 C450 3.085 . S
C2977 C486 0.356 1_455 S
C2985 C1289 0.482 . S
C3009 C526 0.391 . S
C3017 C1209 0.447 . S
C3041 C1249 0.538 . S
C3049 C566 0.437 1_565 S
C3073 C418 3.065 . S
C3081 C619 3.086 . S
C3105 C458 3.072 . S
C3113 C659 3.092 . S
C3137 C378 3.065 . S
C3145 C699 3.086 . S
C3169 C98 0.593 . S
C3177 C735 0.517 . S
C3201 C775 0.405 . S
C3209 C18 0.441 . S
C3233 C815 0.491 . S
C3241 C58 0.457 . S
C3265 C1129 3.040 . S
C3273 C850 3.091 . S
C3297 C1169 3.052 . S
C3305 C890 3.097 . S
C3329 C930 3.085 . S
C3337 C1089 3.063 1_554 S
C3361 C329 0.376 . S
C3369 C966 0.465 . S
C3393 C249 0.379 . S
C3401 C1006 0.469 . S
C3425 C289 0.548 . S
C3433 C1046 0.440 . S
C3457 C1099 3.097 . S
C3465 C898 3.057 . S
C3489 C938 3.051 1_556 S
C3497 C1139 3.084 . S
C3521 C1179 3.070 . S
C3529 C858 3.059 1_556 S
C3553 C1215 0.581 1_655 S
C3561 C578 0.512 . S
C3585 C1255 0.474 . S
C3593 C498 0.452 . S
C3617 C1295 0.581 1_545 S
C3625 C538 0.511 . S
C3649 C1330 3.078 . S
C3657 C169 3.067 . S
C3681 C209 3.056 . S
C3689 C1370 3.084 . S
C3713 C129 3.037 . S
C3721 C1410 3.090 . S
C3745 C1175 2.632 . S
C3753 C10 2.719 . S
C3777 C1095 2.628 . S
C3785 C50 2.714 . S
C3809 C90 2.709 . S
C3817 C1135 2.657 . S
C3841 C530 2.719 . S
C3849 C135 2.644 . S
C3873 C175 2.632 . S
C3881 C570 2.713 . S
C3905 C215 2.640 . S
C3913 C490 2.711 . S
C3937 C259 2.719 . S
C3945 C926 2.643 . S
C3969 C299 2.714 . S
C3977 C846 2.654 . S
C4001 C339 2.700 . S
C4009 C886 2.649 . S
C4033 C1259 2.709 . S
C4041 C366 2.643 . S
C4065 C1299 2.699 . S
C4073 C406 2.652 . S
C4097 C1219 2.700 . S
C4105 C446 2.655 . S
C4129 C615 2.632 . S
C4137 C1010 2.713 . S
C4161 C655 2.641 . S
C4169 C1050 2.720 . S
C4193 C695 2.660 . S
C4201 C970 2.713 . S
C4225 C739 2.706 . S
C4233 C1406 2.657 . S
C4257 C1326 2.662 . S
C4265 C779 2.714 . S
C4289 C819 2.699 . S
C4297 C1366 2.653 . S
C4321 C166 1.282 . S
C4329 C19 1.348 . S
C4353 C206 1.325 . S
C4361 C59 1.345 . S
C4385 C126 1.300 . S
C4393 C99 1.348 . S
C4417 C250 1.352 . S
C4425 C415 1.296 . S
C4449 C455 1.290 . S
C4457 C290 1.334 . S
C4481 C330 1.320 . S
C4489 C375 1.306 . S
C4513 C646 1.289 . S
C4521 C499 1.335 . S
C4545 C686 1.299 . S
C4553 C539 1.349 . S
C4577 C606 1.297 . S
C4585 C579 1.349 . S
C4609 C895 1.269 . S
C4617 C730 1.344 . S
C4641 C770 1.336 . S
C4649 C935 1.320 . S
C4673 C810 1.326 . S
C4681 C855 1.316 . S
C4705 C979 1.351 . S
C4713 C1126 1.312 . S
C4737 C1166 1.268 . S
C4745 C1019 1.346 . S
C4769 C1059 1.355 . S
C4777 C1086 1.302 . S
C4801 C1210 1.355 . S
C4809 C1375 1.300 . S
C4833 C1415 1.337 . S
C4841 C1250 1.342 . S
C4865 C1290 1.349 . S
C4873 C1335 1.317 . S
