# Generated by pormake.
# Topology wkf, (6)-cn, num edge types: 1
# Building blocks:
#     Node 0, Type 0, BuildingBlock: KUMJIN_clean_sbu_0, # of connection points: 6
#     Node 1, Type 0, BuildingBlock: KUMJIN_clean_sbu_0, # of connection points: 6
#     Node 2, Type 0, BuildingBlock: KUMJIN_clean_sbu_0, # of connection points: 6
#     Node 3, Type 0, BuildingBlock: KUMJIN_clean_sbu_0, # of connection points: 6
#     Node 4, Type 0, BuildingBlock: KUMJIN_clean_sbu_0, # of connection points: 6
#     Node 5, Type 0, BuildingBlock: KUMJIN_clean_sbu_0, # of connection points: 6
#     Node 6, Type 0, BuildingBlock: KUMJIN_clean_sbu_0, # of connection points: 6
#     Node 7, Type 0, BuildingBlock: KUMJIN_clean_sbu_0, # of connection points: 6
#     Node 8, Type 0, BuildingBlock: KUMJIN_clean_sbu_0, # of connection points: 6
#     Node 9, Type 0, BuildingBlock: KUMJIN_clean_sbu_0, # of connection points: 6
#     Node 10, Type 0, BuildingBlock: KUMJIN_clean_sbu_0, # of connection points: 6
#     Node 11, Type 0, BuildingBlock: KUMJIN_clean_sbu_0, # of connection points: 6
#     Edge 12, Type (0, 0), BuildingBlock: XUDNAN_clean_linker_2, # of connection points: 2
#     Edge 13, Type (0, 0), BuildingBlock: XUDNAN_clean_linker_2, # of connection points: 2
#     Edge 14, Type (0, 0), BuildingBlock: XUDNAN_clean_linker_2, # of connection points: 2
#     Edge 15, Type (0, 0), BuildingBlock: XUDNAN_clean_linker_2, # of connection points: 2
#     Edge 16, Type (0, 0), BuildingBlock: XUDNAN_clean_linker_2, # of connection points: 2
#     Edge 17, Type (0, 0), BuildingBlock: XUDNAN_clean_linker_2, # of connection points: 2
#     Edge 18, Type (0, 0), BuildingBlock: XUDNAN_clean_linker_2, # of connection points: 2
#     Edge 19, Type (0, 0), BuildingBlock: XUDNAN_clean_linker_2, # of connection points: 2
#     Edge 20, Type (0, 0), BuildingBlock: XUDNAN_clean_linker_2, # of connection points: 2
#     Edge 21, Type (0, 0), BuildingBlock: XUDNAN_clean_linker_2, # of connection points: 2
#     Edge 22, Type (0, 0), BuildingBlock: XUDNAN_clean_linker_2, # of connection points: 2
#     Edge 23, Type (0, 0), BuildingBlock: XUDNAN_clean_linker_2, # of connection points: 2
#     Edge 24, Type (0, 0), BuildingBlock: XUDNAN_clean_linker_2, # of connection points: 2
#     Edge 25, Type (0, 0), BuildingBlock: XUDNAN_clean_linker_2, # of connection points: 2
#     Edge 26, Type (0, 0), BuildingBlock: XUDNAN_clean_linker_2, # of connection points: 2
#     Edge 27, Type (0, 0), BuildingBlock: XUDNAN_clean_linker_2, # of connection points: 2
#     Edge 28, Type (0, 0), BuildingBlock: XUDNAN_clean_linker_2, # of connection points: 2
#     Edge 29, Type (0, 0), BuildingBlock: XUDNAN_clean_linker_2, # of connection points: 2
#     Edge 30, Type (0, 0), BuildingBlock: XUDNAN_clean_linker_2, # of connection points: 2
#     Edge 31, Type (0, 0), BuildingBlock: XUDNAN_clean_linker_2, # of connection points: 2
#     Edge 32, Type (0, 0), BuildingBlock: XUDNAN_clean_linker_2, # of connection points: 2
#     Edge 33, Type (0, 0), BuildingBlock: XUDNAN_clean_linker_2, # of connection points: 2
#     Edge 34, Type (0, 0), BuildingBlock: XUDNAN_clean_linker_2, # of connection points: 2
#     Edge 35, Type (0, 0), BuildingBlock: XUDNAN_clean_linker_2, # of connection points: 2
#     Edge 36, Type (0, 0), BuildingBlock: XUDNAN_clean_linker_2, # of connection points: 2
#     Edge 37, Type (0, 0), BuildingBlock: XUDNAN_clean_linker_2, # of connection points: 2
#     Edge 38, Type (0, 0), BuildingBlock: XUDNAN_clean_linker_2, # of connection points: 2
#     Edge 39, Type (0, 0), BuildingBlock: XUDNAN_clean_linker_2, # of connection points: 2
#     Edge 40, Type (0, 0), BuildingBlock: XUDNAN_clean_linker_2, # of connection points: 2
#     Edge 41, Type (0, 0), BuildingBlock: XUDNAN_clean_linker_2, # of connection points: 2
#     Edge 42, Type (0, 0), BuildingBlock: XUDNAN_clean_linker_2, # of connection points: 2
#     Edge 43, Type (0, 0), BuildingBlock: XUDNAN_clean_linker_2, # of connection points: 2
#     Edge 44, Type (0, 0), BuildingBlock: XUDNAN_clean_linker_2, # of connection points: 2
#     Edge 45, Type (0, 0), BuildingBlock: XUDNAN_clean_linker_2, # of connection points: 2
#     Edge 46, Type (0, 0), BuildingBlock: XUDNAN_clean_linker_2, # of connection points: 2
#     Edge 47, Type (0, 0), BuildingBlock: XUDNAN_clean_linker_2, # of connection points: 2
# Relax obj value: 0.170
# Max RMSD: 0.269
# Mean RMSD: 0.261
data_MOF--net-wkf--node1-KUMJIN_clean_sbu_0--edge1-XUDNAN_clean_linker_2
_symmetry_space_group_name_H-M    P1
_symmetry_Int_Tables_number       1
_symmetry_cell_setting            triclinic
loop_
_symmetry_equiv_pos_as_xyz
'x, y, z'
_cell_length_a     30.545357
_cell_length_b     30.621109
_cell_length_c     83.565316
_cell_angle_alpha  90.143002
_cell_angle_beta   90.059996
_cell_angle_gamma 119.61233
loop_
_atom_site_label
_atom_site_type_symbol
_atom_site_fract_x
_atom_site_fract_y
_atom_site_fract_z
_atom_type_partial_charge
Eu0 Eu 0.54923 1.02512 0.36333 0.0
C1 C 0.41356 0.06325 0.32605 0.0
C2 C 0.35963 0.06596 0.34698 0.0
C3 C 0.37849 0.11896 0.32354 0.0
C4 C 0.38967 0.04659 0.34084 0.0
C5 C 0.40665 0.0983 0.31709 0.0
C6 C 0.35535 0.10308 0.33847 0.0
C7 C 0.45329 0.08782 0.29544 0.0
N8 N 0.44306 0.04479 0.32029 0.0
C9 C 0.46021 0.054 0.30482 0.0
C10 C 0.42729 0.11079 0.30171 0.0
Eu11 Eu 0.44999 0.9868 0.3373 0.0
N12 N 0.39357 1.00996 0.34883 0.0
C13 C 0.36628 0.98954 0.36249 0.0
C14 C 0.33397 0.04697 0.36139 0.0
C15 C 0.33682 1.00817 0.36905 0.0
H16 H 0.48099 1.03673 0.30008 0.0
H17 H 0.31654 0.99269 0.38009 0.0
H18 H 0.33303 0.1188 0.34315 0.0
H19 H 0.46831 0.09646 0.28342 0.0
H20 H 0.36762 0.95987 0.36883 0.0
H21 H 0.65137 0.08386 0.30627 0.0
H22 H 0.31102 0.06132 0.36653 0.0
H23 H 0.52761 0.92582 0.38621 0.0
H24 H 0.58509 0.07218 0.32499 0.0
H25 H 0.57522 0.88401 0.39351 0.0
H26 H 0.37359 0.14666 0.31694 0.0
H27 H 0.70515 0.04633 0.31205 0.0
H28 H 0.72514 0.99261 0.32995 0.0
H29 H 0.4223 0.13723 0.29443 0.0
H30 H 0.70558 0.93983 0.35396 0.0
N31 N 0.60286 1.03171 0.34207 0.0
C32 C 0.60902 0.05718 0.32811 0.0
C33 C 0.67626 0.04161 0.32049 0.0
C34 C 0.66755 1.01284 0.33433 0.0
C35 C 0.64614 0.06301 0.31721 0.0
C36 C 0.62929 1.00755 0.34484 0.0
H37 H 0.65153 0.90153 0.37835 0.0
N38 N 0.5755 0.96607 0.36661 0.0
C39 C 0.58687 0.9091 0.38335 0.0
C40 C 0.61617 0.97503 0.35778 0.0
C41 C 0.55952 0.93252 0.37897 0.0
C42 C 0.62993 0.9192 0.37475 0.0
C43 C 0.64383 0.95078 0.36137 0.0
O44 O 0.55289 1.01673 0.38901 0.0
O45 O 0.47427 1.01949 0.36214 0.0
O46 O 0.50457 0.07732 0.3326 0.0
O47 O 0.57113 0.10466 0.35046 0.0
O48 O 0.53631 0.08791 0.36963 0.0
O49 O 0.62064 0.06747 0.3761 0.0
O50 O 0.42236 0.94978 0.31416 0.0
O51 O 0.51178 0.9676 0.3439 0.0
O52 O 0.47919 0.96204 0.37643 0.0
O53 O 0.41513 0.92746 0.35766 0.0
O54 O 0.47988 0.94061 0.32326 0.0
O55 O 0.37179 0.92787 0.3345 0.0
C56 C 0.48825 0.06398 0.36727 0.0
C57 C 0.61812 0.07923 0.40398 0.0
C58 C 0.64272 0.15943 0.41685 0.0
C59 C 0.61839 0.12485 0.40433 0.0
C60 C 0.6612 0.14351 0.4299 0.0
C61 C 0.63618 0.06425 0.41698 0.0
C62 C 0.65684 0.09603 0.43005 0.0
C63 C 0.54588 0.11639 0.33932 0.0
C64 C 0.60101 0.04732 0.38988 0.0
C65 C 0.68393 0.95832 0.35144 0.0
C66 C 0.69517 0.98853 0.3378 0.0
C67 C 0.50946 0.93527 0.33315 0.0
C68 C 0.3366 0.92099 0.3086 0.0
C69 C 0.32258 0.89178 0.29448 0.0
C70 C 0.28547 0.89124 0.28433 0.0
C71 C 0.26282 0.91996 0.28836 0.0
C72 C 0.31278 0.94879 0.31247 0.0
C73 C 0.27641 0.94851 0.30235 0.0
C74 C 0.43267 0.92708 0.37223 0.0
C75 C 0.37609 0.92254 0.31914 0.0
H76 H 0.60146 0.13323 0.39434 0.0
H77 H 0.68124 0.16743 0.43988 0.0
H78 H 0.63507 1.02832 0.41688 0.0
H79 H 0.67159 0.08478 0.44003 0.0
H80 H 0.34046 0.86988 0.29139 0.0
H81 H 0.23407 0.91981 0.28071 0.0
H82 H 0.3217 0.97031 0.32339 0.0
H83 H 0.25842 0.97022 0.30543 0.0
Eu84 Eu 0.55515 0.50372 0.53302 0.0
C85 C 0.3802 0.35819 0.4973 0.0
C86 C 0.32938 0.30158 0.51856 0.0
C87 C 0.28867 0.31257 0.49523 0.0
C88 C 0.37718 0.33611 0.51224 0.0
C89 C 0.33579 0.34555 0.48862 0.0
C90 C 0.2855 0.29079 0.51014 0.0
C91 C 0.38723 0.39656 0.46675 0.0
N92 N 0.42619 0.39099 0.49104 0.0
C93 C 0.43034 0.40838 0.47569 0.0
C94 C 0.33981 0.36565 0.47332 0.0
Eu95 Eu 0.49611 0.40814 0.50745 0.0
N96 N 0.42023 0.34625 0.52021 0.0
C97 C 0.41691 0.32185 0.53436 0.0
C98 C 0.3266 0.27771 0.53304 0.0
C99 C 0.37056 0.2875 0.54085 0.0
H100 H 0.46707 0.43312 0.47068 0.0
H101 H 0.36889 0.26941 0.55213 0.0
H102 H 0.24876 0.26469 0.51493 0.0
H103 H 0.39055 0.41147 0.45481 0.0
H104 H 0.44884 0.32962 0.54155 0.0
H105 H 0.59989 0.60292 0.47574 0.0
H106 H 0.29065 0.25123 0.53823 0.0
H107 H 0.6325 0.49738 0.56053 0.0
H108 H 0.54445 0.5418 0.49555 0.0
H109 H 0.72156 0.54175 0.56717 0.0
H110 H 0.25429 0.30293 0.48877 0.0
H111 H 0.69157 0.65226 0.48079 0.0
H112 H 0.765 0.67177 0.4987 0.0
H113 H 0.30646 0.3567 0.46635 0.0
H114 H 0.79765 0.65623 0.52367 0.0
N115 N 0.6033 0.5579 0.51223 0.0
C116 C 0.58384 0.56408 0.49827 0.0
C117 C 0.66717 0.62581 0.48969 0.0
C118 C 0.68701 0.6183 0.50385 0.0
C119 C 0.61543 0.59818 0.48682 0.0
C120 C 0.65381 0.58313 0.51496 0.0
H121 H 0.78161 0.60926 0.5495 0.0
N122 N 0.64087 0.53487 0.5383 0.0
C123 C 0.7087 0.55011 0.55612 0.0
C124 C 0.67286 0.57205 0.52853 0.0
C125 C 0.65802 0.52379 0.552 0.0
C126 C 0.74223 0.5883 0.54617 0.0
C127 C 0.72477 0.59889 0.532 0.0
O128 O 0.56986 0.52283 0.55796 0.0
O129 O 0.47815 0.44594 0.52752 0.0
O130 O 0.45309 0.45604 0.50313 0.0
O131 O 0.49528 0.52353 0.52 0.0
O132 O 0.50109 0.44953 0.55089 0.0
O133 O 0.56559 0.57606 0.54209 0.0
O134 O 0.5061 0.38403 0.48363 0.0
O135 O 0.57896 0.45934 0.51652 0.0
O136 O 0.56276 0.4395 0.54444 0.0
O137 O 0.52002 0.37247 0.52724 0.0
O138 O 0.56938 0.45859 0.49269 0.0
O139 O 0.48586 0.3334 0.50392 0.0
C140 C 0.46257 0.43011 0.54164 0.0
C141 C 0.56292 0.5861 0.57056 0.0
C142 C 0.50949 0.61146 0.58467 0.0
C143 C 0.51896 0.58902 0.57133 0.0
C144 C 0.54359 0.62585 0.59779 0.0
C145 C 0.59583 0.60061 0.58361 0.0
C146 C 0.58576 0.61977 0.59726 0.0
C147 C 0.45692 0.49845 0.50935 0.0
C148 C 0.57605 0.56735 0.55648 0.0
C149 C 0.75759 0.63534 0.52125 0.0
C150 C 0.73892 0.64437 0.50708 0.0
C151 C 0.60492 0.47246 0.50341 0.0
C152 C 0.45809 0.29623 0.47838 0.0
C153 C 0.47548 0.28326 0.46452 0.0
C154 C 0.44289 0.2396 0.45583 0.0
C155 C 0.3928 0.21007 0.46082 0.0
C156 C 0.40776 0.26605 0.48309 0.0
C157 C 0.37529 0.22357 0.47427 0.0
C158 C 0.54509 0.39156 0.54071 0.0
C159 C 0.49338 0.33874 0.48847 0.0
H160 H 0.49402 0.57507 0.56117 0.0
H161 H 0.54007 0.64351 0.60847 0.0
H162 H 0.62952 0.59725 0.58319 0.0
H163 H 0.61154 0.6314 0.60731 0.0
H164 H 0.51432 0.30611 0.46078 0.0
H165 H 0.36705 0.17664 0.45419 0.0
H166 H 0.39372 0.2743 0.49384 0.0
H167 H 0.33658 0.20058 0.47803 0.0
Eu168 Eu 1.05982 0.52315 0.69607 0.0
C169 C 1.02072 0.34862 0.66203 0.0
C170 C 1.0277 0.29924 0.68367 0.0
C171 C 0.96875 0.25751 0.66196 0.0
C172 C 1.04341 0.34632 0.67638 0.0
C173 C 0.98543 0.30378 0.65433 0.0
C174 C 0.98926 0.25536 0.67668 0.0
C175 C 0.98934 0.35255 0.63109 0.0
N176 N 1.03607 0.39397 0.65484 0.0
C177 C 1.02299 0.39627 0.63923 0.0
C178 C 0.96987 0.30629 0.63876 0.0
Eu179 Eu 0.0967 0.46404 0.66961 0.0
N180 N 0.08237 0.38901 0.68271 0.0
C181 C 0.10838 0.38601 0.69572 0.0
C182 C 1.05207 0.29703 0.69756 0.0
C183 C 0.09301 0.34048 0.70344 0.0
H184 H 1.03719 0.43214 0.63334 0.0
H185 H 0.11285 0.33902 0.71399 0.0
H186 H 0.97666 0.21915 0.68223 0.0
H187 H 0.97819 0.35455 0.61894 0.0
H188 H 0.14024 0.41799 0.70084 0.0
H189 H 0.97197 0.55997 0.64421 0.0
H190 H 1.04055 0.26167 0.70355 0.0
H191 H 0.16265 0.60734 0.71695 0.0
H192 H 0.99959 0.5108 0.65981 0.0
H193 H 0.2058 0.69695 0.72258 0.0
H194 H 0.94092 0.22289 0.65633 0.0
H195 H 1.00103 0.64836 0.65155 0.0
H196 H 1.05718 0.72297 0.6685 0.0
H197 H 0.94414 0.27245 0.63233 0.0
H198 H 0.12247 0.76067 0.6893 0.0
N199 N 1.03891 0.56776 0.67735 0.0
C200 C 1.01016 0.54784 0.66392 0.0
C201 C 1.01191 0.62613 0.65887 0.0
C202 C 1.04494 0.64764 0.6718 0.0
C203 C 0.9954 0.57629 0.65469 0.0
C204 C 1.05839 0.61723 0.68084 0.0
H205 H 0.17906 0.75168 0.7091 0.0
N206 N 0.11263 0.60993 0.69946 0.0
C207 C 0.17557 0.68132 0.71387 0.0
C208 C 0.09652 0.63897 0.69222 0.0
C209 C 0.15125 0.63017 0.71033 0.0
C210 C 0.16 0.71191 0.70636 0.0
C211 C 0.12031 0.69097 0.69532 0.0
O212 O 0.07509 0.52985 0.72177 0.0
O213 O 0.06981 0.45655 0.69487 0.0
O214 O 1.00622 0.42906 0.66539 0.0
O215 O 0.97903 0.46325 0.68501 0.0
O216 O 1.0 0.44635 0.70222 0.0
O217 O 1.0203 0.54798 0.71206 0.0
O218 O 0.12398 0.47623 0.6448 0.0
O219 O 0.1047 0.54358 0.67281 0.0
O220 O 0.13162 0.52714 0.70675 0.0
O221 O 0.15822 0.48987 0.68809 0.0
O222 O 0.16777 0.54212 0.66633 0.0
O223 O 0.15124 0.4424 0.66228 0.0
C224 C 1.0268 0.42472 0.70047 0.0
C225 C 1.0055 0.51171 0.73776 0.0
C226 C 0.91808 0.47094 0.74426 0.0
C227 C 0.95599 0.478 0.73364 0.0
C228 C 0.92953 0.48214 0.76054 0.0
C229 C 1.0182 0.52392 0.75393 0.0
C230 C 0.97997 0.50661 0.76546 0.0
C231 C 0.96728 0.42833 0.6733 0.0
C232 C 1.04035 0.54109 0.72499 0.0
C233 C 0.10469 0.72066 0.68704 0.0
C234 C 0.06729 0.69912 0.67526 0.0
C235 C 0.15285 0.57335 0.66998 0.0
C236 C 0.15594 0.42342 0.63531 0.0
C237 C 0.19933 0.44114 0.62581 0.0
C238 C 0.20495 0.4083 0.61527 0.0
C239 C 0.1658 0.35827 0.6139 0.0
C240 C 0.11883 0.3727 0.63428 0.0
C241 C 0.12312 0.34068 0.62339 0.0
C242 C 0.16431 0.5137 0.70176 0.0
C243 C 0.1531 0.45671 0.64747 0.0
H244 H 0.94624 0.46792 0.72116 0.0
H245 H 0.90047 0.47649 0.76905 0.0
H246 H 1.05688 0.5488 0.75746 0.0
H247 H 0.98935 0.51676 0.77791 0.0
H248 H 0.22928 0.47975 0.62707 0.0
H249 H 0.16819 0.33253 0.60551 0.0
H250 H 0.08721 0.35703 0.64212 0.0
H251 H 0.09371 0.30181 0.62254 0.0
Eu252 Eu 0.56808 0.05799 0.86295 0.0
C253 C 0.70291 1.01445 0.82756 0.0
C254 C 0.75723 1.01438 0.84888 0.0
C255 C 0.73741 0.95797 0.82619 0.0
C256 C 0.72733 1.03329 0.84227 0.0
C257 C 0.7096 0.97813 0.81918 0.0
C258 C 0.76086 0.97581 0.84101 0.0
C259 C 0.66665 0.98886 0.79645 0.0
N260 N 0.67563 1.03418 0.82084 0.0
C261 C 0.66077 1.02471 0.80508 0.0
C262 C 0.69012 0.96469 0.80364 0.0
Eu263 Eu 0.66794 0.09344 0.83723 0.0
N264 N 0.72498 0.07208 0.84954 0.0
C265 C 0.75402 0.09499 0.86278 0.0
C266 C 0.78436 1.03592 0.86293 0.0
C267 C 0.78343 0.07691 0.86972 0.0
H268 H 0.64176 0.04278 0.7996 0.0
H269 H 0.80519 0.09456 0.88041 0.0
H270 H 0.78337 0.96077 0.84603 0.0
H271 H 0.653 0.97977 0.78426 0.0
H272 H 0.75461 0.12658 0.86854 0.0
H273 H 0.47131 0.99918 0.80535 0.0
H274 H 0.80744 1.02217 0.86836 0.0
H275 H 0.58364 0.15393 0.8875 0.0
H276 H 0.53311 1.00771 0.82557 0.0
H277 H 0.53769 0.19847 0.89303 0.0
H278 H 0.74237 0.92959 0.82 0.0
H279 H 0.42088 0.04137 0.80935 0.0
H280 H 0.40078 0.09696 0.8263 0.0
H281 H 0.69472 0.937 0.79687 0.0
H282 H 0.4173 0.14906 0.85042 0.0
N283 N 0.51785 0.05347 0.84113 0.0
C284 C 0.51144 1.02593 0.82762 0.0
C285 C 0.44819 0.04525 0.81832 0.0
C286 C 0.45594 0.07451 0.83205 0.0
C287 C 0.47653 1.02135 0.81602 0.0
C288 C 0.49203 0.07856 0.84331 0.0
H289 H 0.46585 0.18424 0.87587 0.0
N290 N 0.54108 0.11699 0.86643 0.0
C291 C 0.52804 0.17435 0.88261 0.0
C292 C 0.50318 0.11021 0.85651 0.0
C293 C 0.55497 0.14984 0.8791 0.0
C294 C 0.48754 0.16611 0.87291 0.0
C295 C 0.47606 0.13556 0.85931 0.0
O296 O 0.53079 0.05559 0.88521 0.0
O297 O 0.62973 0.04216 0.85853 0.0
O298 O 0.6133 1.00456 0.83165 0.0
O299 O 0.55394 0.97811 0.85144 0.0
O300 O 0.62236 0.06285 0.88163 0.0
O301 O 0.50233 0.9882 0.87117 0.0
O302 O 0.69356 0.12854 0.81389 0.0
O303 O 0.6112 0.11868 0.84492 0.0
O304 O 0.63496 0.12714 0.87527 0.0
O305 O 0.70244 0.15182 0.8579 0.0
O306 O 0.63418 0.13576 0.82265 0.0
O307 O 0.74708 0.14952 0.83355 0.0
C308 C 0.64517 0.04536 0.87301 0.0
C309 C 0.49286 0.98188 0.89968 0.0
C310 C 0.48221 0.90862 0.91417 0.0
C311 C 0.49497 0.93752 0.90018 0.0
C312 C 0.47205 0.92775 0.92821 0.0
C313 C 0.48291 1.00052 0.91375 0.0
C314 C 0.47342 0.97391 0.92801 0.0
C315 C 0.57612 0.96554 0.83951 0.0
C316 C 0.49885 1.00834 0.88455 0.0
C317 C 0.43855 0.12982 0.84847 0.0
C318 C 0.42905 0.10002 0.83475 0.0
C319 C 0.60787 0.14443 0.83304 0.0
C320 C 0.77832 0.15708 0.80693 0.0
C321 C 0.80306 0.19826 0.79653 0.0
C322 C 0.8368 0.1986 0.78502 0.0
C323 C 0.84459 0.15732 0.78365 0.0
C324 C 0.78907 0.11764 0.80591 0.0
C325 C 0.82095 0.11711 0.79412 0.0
C326 C 0.68336 0.15736 0.87158 0.0
C327 C 0.74063 0.15523 0.81835 0.0
H328 H 0.50354 0.92414 0.88933 0.0
H329 H 0.46022 0.90618 0.93914 0.0
H330 H 0.48165 1.03527 0.91363 0.0
H331 H 0.46491 0.988 0.93877 0.0
H332 H 0.79646 0.22986 0.79746 0.0
H333 H 0.87049 0.15713 0.77483 0.0
H334 H 0.77381 0.08765 0.81433 0.0
H335 H 0.82821 0.08596 0.79333 0.0
Eu336 Eu 0.57258 0.5833 0.03558 0.0
C337 C 0.74209 0.70928 -0.00315 0.0
C338 C 0.79256 0.77393 0.01646 0.0
C339 C 0.83371 0.75161 -0.00417 0.0
C340 C 0.7449 0.73807 0.01032 0.0
C341 C 0.78679 0.71843 0.98904 0.0
C342 C 0.83655 0.77889 0.00957 0.0
C343 C 0.73649 0.66879 0.96664 0.0
N344 N 0.69626 0.67777 0.99011 0.0
C345 C 0.69307 0.66021 0.97476 0.0
C346 C 0.78338 0.697 0.97396 0.0
Eu347 Eu 0.62647 0.66853 0.00513 0.0
N348 N 0.70202 0.73504 0.01635 0.0
C349 C 0.70518 0.76929 0.02762 0.0
C350 C 0.79516 0.80614 0.02876 0.0
C351 C 0.75139 0.80461 0.03405 0.0
H352 H 0.65669 0.63766 0.96916 0.0
H353 H 0.75309 0.83052 0.0432 0.0
H354 H 0.87321 0.80593 0.01427 0.0
H355 H 0.73379 0.65352 0.95476 0.0
H356 H 0.67288 0.77022 0.03212 0.0
H357 H 0.51647 0.4705 0.98109 0.0
H358 H 0.83102 0.83393 0.03375 0.0
H359 H 0.50337 0.59235 0.06525 0.0
H360 H 0.57611 0.53294 6e-05 0.0
H361 H 0.41444 0.55182 0.0731 0.0
H362 H 0.86827 0.75828 0.9901 0.0
H363 H 0.42528 0.42605 0.9871 0.0
H364 H 0.35522 0.41264 0.00571 0.0
H365 H 0.81701 0.70411 0.96752 0.0
H366 H 0.32767 0.43412 0.03072 0.0
N367 N 0.51995 0.52343 0.01682 0.0
C368 C 0.53686 0.5133 0.00299 0.0
C369 C 0.45155 0.45316 -0.00442 0.0
C370 C 0.43453 0.46375 0.00984 0.0
C371 C 0.50296 0.47812 0.99214 0.0
C372 C 0.47013 0.49962 0.02039 0.0
H373 H 0.34932 0.48568 0.0559 0.0
N374 N 0.48894 0.55004 0.04362 0.0
C375 C 0.42502 0.54071 0.06211 0.0
C376 C 0.45435 0.51269 0.03431 0.0
C377 C 0.47538 0.56382 0.05752 0.0
C378 C 0.38851 0.50321 0.05242 0.0
C379 C 0.40291 0.48888 0.03831 0.0
O380 O 0.57388 0.57402 0.06105 0.0
O381 O 0.64796 0.64326 0.02823 0.0
O382 O 0.66024 0.61266 0.00128 0.0
O383 O 0.63764 0.56809 0.02479 0.0
O384 O 0.62267 0.64814 0.051 0.0
O385 O 0.57046 0.51531 0.04506 0.0
O386 O 0.61668 0.68695 0.98066 0.0
O387 O 0.54832 0.61267 0.01452 0.0
O388 O 0.55821 0.6465 0.04379 0.0
O389 O 0.59966 0.7047 0.02379 0.0
O390 O 0.5471 0.63154 0.99204 0.0
O391 O 0.64012 0.74347 -0.00041 0.0
C392 C 0.66138 0.666 0.04185 0.0
C393 C 0.55778 0.49871 0.0734 0.0
C394 C 0.58051 0.44982 0.09045 0.0
C395 C 0.58985 0.48098 0.07733 0.0
C396 C 0.53953 0.43917 0.10049 0.0
C397 C 0.51713 0.48904 0.08335 0.0
C398 C 0.50825 0.45935 0.09699 0.0
C399 C 0.66656 0.58208 0.01141 0.0
C400 C 0.57271 0.53142 0.0597 0.0
C401 C 0.36745 0.4525 0.02794 0.0
C402 C 0.38316 0.44025 0.0137 0.0
C403 C 0.5157 0.60851 0.00354 0.0
C404 C 0.6646 0.77253 0.97328 0.0
C405 C 0.64537 0.79617 0.96353 0.0
C406 C 0.67743 0.83463 0.95314 0.0
C407 C 0.72866 0.84836 0.95236 0.0
C408 C 0.71601 0.7878 0.97268 0.0
C409 C 0.74775 0.82505 0.96214 0.0
C410 C 0.57475 0.69155 0.0375 0.0
C411 C 0.63058 0.73362 0.98435 0.0
H412 H 0.62234 0.49136 0.06981 0.0
H413 H 0.5309 0.4145 0.11067 0.0
H414 H 0.49283 0.50445 0.08067 0.0
H415 H 0.4768 0.4514 0.10472 0.0
H416 H 0.60579 0.78518 0.96423 0.0
H417 H 0.75394 0.87682 0.94409 0.0
H418 H 0.73208 0.77184 0.98042 0.0
H419 H 0.78728 0.83607 0.96161 0.0
Eu420 Eu 0.06238 0.5528 0.1941 0.0
C421 C 0.08736 0.73299 0.16154 0.0
C422 C 0.07675 0.78151 0.1828 0.0
C423 C 0.12843 0.82425 0.15982 0.0
C424 C 0.06551 0.73446 0.17615 0.0
C425 C 0.11834 0.77809 0.15323 0.0
C426 C 0.10798 0.82596 0.17456 0.0
C427 C 0.12771 0.72953 0.13207 0.0
N428 N 0.07932 0.6882 0.1555 0.0
C429 C 0.09782 0.68589 0.14073 0.0
C430 C 0.13844 0.77584 0.13842 0.0
Eu431 Eu 1.02297 0.61675 0.17056 0.0
N432 N 1.03558 0.691 0.18423 0.0
C433 C 1.01883 0.69339 0.19932 0.0
C434 C 1.05766 0.78315 0.19783 0.0
C435 C 1.02908 0.73895 0.20617 0.0
H436 H 0.09047 0.65 0.13594 0.0
H437 H 1.0159 0.73994 0.21812 0.0
H438 H 0.11685 0.8621 0.17957 0.0
H439 H 0.14284 0.72743 0.12057 0.0
H440 H 1.00041 0.66157 0.20702 0.0
H441 H 0.13211 0.52063 0.13718 0.0
H442 H 0.06606 0.81856 0.20331 0.0
H443 H 0.96457 0.46716 0.21617 0.0
H444 H 0.113 0.56987 0.15617 0.0
H445 H 0.92308 0.37739 0.22119 0.0
H446 H 0.1524 0.85909 0.15363 0.0
H447 H 0.10158 0.43059 0.14227 0.0
H448 H 1.05209 0.35496 0.15961 0.0
H449 H 0.1622 0.80974 0.13175 0.0
H450 H 0.99709 0.31665 0.18286 0.0
N451 N 0.07488 0.50971 0.17266 0.0
C452 C 0.10086 0.53136 0.15896 0.0
C453 C 0.09353 0.45234 0.15081 0.0
C454 C 0.06432 0.42974 0.16437 0.0
C455 C 0.11096 0.50316 0.14792 0.0
C456 C 1.05442 0.45952 0.175 0.0
H457 H 0.94563 0.32367 0.20504 0.0
N458 N 1.00846 0.46582 0.19664 0.0
C459 C 0.95014 0.39344 0.21158 0.0
C460 C 1.02085 0.43713 0.18751 0.0
C461 C 0.97324 0.44469 0.20845 0.0
C462 C 0.96334 0.36348 0.20254 0.0
C463 C 0.99881 0.38515 0.19028 0.0
O464 O 1.05048 0.5372 0.21948 0.0
O465 O 1.05539 0.62136 0.19497 0.0
O466 O 0.11383 0.65528 0.16693 0.0
O467 O 0.1416 0.61146 0.18231 0.0
O468 O 0.12365 0.62697 0.20239 0.0
O469 O 0.10845 0.52856 0.20735 0.0
O470 O 0.99711 0.59759 0.14578 0.0
O471 O 1.01239 0.53492 0.17207 0.0
O472 O 0.9918 0.54911 0.20588 0.0
O473 O 0.96493 0.59418 0.19042 0.0
O474 O 0.9496 0.54073 0.16995 0.0
O475 O 0.96913 0.63743 0.1605 0.0
C476 C 0.09929 0.65103 0.20064 0.0
C477 C 0.1188 0.54999 0.23518 0.0
C478 C 0.20064 0.59532 0.24769 0.0
C479 C 0.17104 0.57902 0.23387 0.0
C480 C 0.17831 0.58386 0.26286 0.0
C481 C 0.09633 0.54 0.2504 0.0
C482 C 0.12606 0.55713 0.26418 0.0
C483 C 0.15286 0.65078 0.17252 0.0
C484 C 0.08706 0.52746 0.22102 0.0
C485 C 1.01248 0.3564 0.18063 0.0
C486 C 1.04408 0.3783 0.16746 0.0
C487 C 0.96309 0.50704 0.17088 0.0
C488 C 0.961 0.6416 0.13184 0.0
C489 C 0.91539 0.64212 0.12891 0.0
C490 C 0.909 0.66275 0.1145 0.0
C491 C 0.94909 0.68527 0.1037 0.0
C492 C 0.99813 0.66034 0.1199 0.0
C493 C 0.99322 0.68392 0.10636 0.0
C494 C 0.96028 0.56658 0.20318 0.0
C495 C 0.96744 0.61732 0.14649 0.0
H496 H 0.18899 0.58617 0.22224 0.0
H497 H 0.20135 0.59485 0.27358 0.0
H498 H 1.05581 0.51795 0.25163 0.0
H499 H 0.1087 0.54858 0.27588 0.0
H500 H 0.88478 0.62525 0.13743 0.0
H501 H 0.9454 0.70228 0.09278 0.0
H502 H 1.03011 0.65494 0.12044 0.0
H503 H 1.02298 0.69938 0.09755 0.0
Eu504 Eu 0.07752 0.55923 0.45558 0.0
C505 C 1.03755 0.68332 0.49588 0.0
C506 C 1.04514 0.74624 0.47667 0.0
C507 C 0.98088 0.71771 0.49723 0.0
C508 C 0.0614 0.7135 0.48263 0.0
C509 C 0.99876 0.6872 0.50372 0.0
C510 C 1.00365 0.7467 0.48365 0.0
C511 C 1.00128 0.63434 0.52476 0.0
N512 N 1.05369 0.65185 0.50156 0.0
C513 C 1.03884 0.63038 0.5164 0.0
C514 C 0.9802 0.66169 0.51818 0.0
Eu515 Eu 0.1144 0.64602 0.48513 0.0
N516 N 0.10324 0.71438 0.47655 0.0
C517 C 0.13207 0.74963 0.46535 0.0
C518 C 0.07222 0.77914 0.46426 0.0
C519 C 0.11643 0.78155 0.45884 0.0
H520 H 1.05396 0.60784 0.52126 0.0
H521 H 0.13863 0.80812 0.44964 0.0
H522 H 0.99031 0.77111 0.47905 0.0
H523 H 0.98805 0.61572 0.53616 0.0
H524 H 0.16691 0.7535 0.46107 0.0
H525 H 1.00581 0.43737 0.50812 0.0
H526 H 0.06051 0.80436 0.45926 0.0
H527 H 0.17385 0.58008 0.43104 0.0
H528 H 1.0215 0.50927 0.49169 0.0
H529 H 0.22252 0.53903 0.42438 0.0
H530 H 0.95034 0.72026 0.50291 0.0
H531 H 1.044 0.38528 0.50079 0.0
H532 H 0.10055 0.37045 0.48252 0.0
H533 H 0.95077 0.66425 0.52461 0.0
H534 H 0.15979 0.3986 0.45993 0.0
N535 N 0.06573 0.49741 0.47441 0.0
C536 C 1.03716 0.48656 0.4879 0.0
C537 C 1.05054 0.4168 0.49333 0.0
C538 C 0.08198 0.42975 0.47995 0.0
C539 C 1.02884 0.44599 0.49749 0.0
C540 C 0.08999 0.47161 0.4708 0.0
H541 H 0.20801 0.46304 0.43905 0.0
N542 N 0.13489 0.53118 0.45059 0.0
C543 C 0.19588 0.52494 0.43416 0.0
C544 C 0.12539 0.48891 0.45854 0.0
C545 C 0.16873 0.54886 0.43828 0.0
C546 C 0.18725 0.48187 0.44237 0.0
C547 C 0.15149 0.46318 0.45465 0.0
O548 O 0.07794 0.55838 0.42904 0.0
O549 O 0.07124 0.62469 0.46174 0.0
O550 O 1.02213 0.59184 0.48805 0.0
O551 O 0.99657 0.53625 0.46679 0.0
O552 O 0.07103 0.62518 0.46168 0.0
O553 O 1.01653 0.49825 0.44276 0.0
O554 O 0.14424 0.66652 0.5095 0.0
O555 O 0.14182 0.59331 0.47409 0.0
O556 O 0.14138 0.62737 0.44244 0.0
O557 O 0.17188 0.68171 0.46424 0.0
O558 O 0.1489 0.60048 0.49763 0.0
O559 O 0.1787 0.71955 0.49002 0.0
C560 C 1.0528 0.64775 0.45326 0.0
C561 C 1.00853 0.49055 0.41425 0.0
C562 C 0.92736 0.44249 0.40122 0.0
C563 C 0.95636 0.46679 0.4147 0.0
C564 C 0.95177 0.44201 0.38701 0.0
C565 C 1.03287 0.49085 0.40003 0.0
C566 C 1.00437 0.46636 0.38644 0.0
C567 C 0.98366 0.5567 0.47903 0.0
C568 C 1.03631 0.51561 0.42876 0.0
C569 C 0.14087 0.41946 0.46301 0.0
C570 C 0.10675 0.40315 0.47576 0.0
C571 C 0.15932 0.57872 0.48598 0.0
C572 C 0.18078 0.75322 0.51556 0.0
C573 C 0.21252 0.76881 0.52898 0.0
C574 C 0.21772 0.80951 0.53813 0.0
C575 C 0.19065 0.83389 0.53413 0.0
C576 C 0.15453 0.77861 0.5116 0.0
C577 C 0.15891 0.81822 0.52093 0.0
C578 C 0.17466 0.6714 0.44881 0.0
C579 C 0.1774 0.71236 0.50543 0.0
H580 H 0.93846 0.46864 0.42566 0.0
H581 H 0.9305 0.42222 0.37647 0.0
H582 H 0.07357 0.50953 0.39948 0.0
H583 H 1.02302 0.46593 0.37549 0.0
H584 H 0.23346 0.74999 0.53215 0.0
H585 H 0.19427 0.86515 0.54125 0.0
H586 H 0.13176 0.76929 0.50113 0.0
H587 H 0.13827 0.83727 0.51775 0.0
Eu588 Eu 0.54341 1.03344 0.6252 0.0
C589 C 0.36926 1.01035 0.66041 0.0
C590 C 0.31993 1.02219 0.63957 0.0
C591 C 0.27765 0.96704 0.66194 0.0
C592 C 0.36718 1.03377 0.64615 0.0
C593 C 0.32423 0.97814 0.66859 0.0
C594 C 0.27552 0.98839 0.64742 0.0
C595 C 0.37377 0.9673 0.68925 0.0
N596 N 0.41451 1.01785 0.66616 0.0
C597 C 0.41762 0.99924 0.68087 0.0
C598 C 0.327 0.95644 0.68303 0.0
Eu599 Eu 0.48411 0.0769 0.65109 0.0
N600 N 0.41046 0.06656 0.63849 0.0
C601 C 0.40878 0.08933 0.62458 0.0
C602 C 0.31832 0.04409 0.62506 0.0
C603 C 0.36293 0.07792 0.61759 0.0
H604 H 0.45404 1.00866 0.6858 0.0
H605 H 0.36212 0.0952 0.60638 0.0
H606 H 0.23913 0.97877 0.64238 0.0
H607 H 0.37606 0.95157 0.70059 0.0
H608 H 0.44197 0.1155 0.61834 0.0
H609 H 0.58118 0.97592 0.6834 0.0
H610 H 0.28275 1.03522 0.61954 0.0
H611 H 0.62496 0.12887 0.60156 0.0
H612 H 0.52914 0.98892 0.66376 0.0
H613 H 0.71423 0.16703 0.59495 0.0
H614 H 0.2428 0.9414 0.66788 0.0
H615 H 0.67181 1.00879 0.67815 0.0
H616 H 0.74649 0.05774 0.66027 0.0
H617 H 0.29311 0.93141 0.68954 0.0
H618 H 0.78216 0.108 0.63594 0.0
N619 N 0.58845 1.02594 0.64691 0.0
C620 C 0.56794 1.00209 0.66098 0.0
C621 C 0.64887 1.01421 0.66936 0.0
C622 C 0.67019 0.04124 0.65532 0.0
C623 C 0.5977 0.99545 0.67234 0.0
C624 C 0.63881 0.04759 0.64436 0.0
H625 H 0.77022 0.14803 0.61127 0.0
N626 N 0.62951 0.0885 0.62179 0.0
C627 C 0.69949 0.14246 0.6052 0.0
C628 C 0.65961 0.0785 0.63115 0.0
C629 C 0.64874 0.12105 0.60918 0.0
C630 C 0.73082 0.13139 0.61441 0.0
C631 C 0.7114 0.10041 0.62787 0.0
O632 O 0.55581 0.04101 0.59956 0.0
O633 O 0.47746 0.04497 0.62635 0.0
O634 O 0.44515 0.98644 0.65388 0.0
O635 O 0.48413 0.95421 0.6379 0.0
O636 O 0.46663 0.97532 0.61811 0.0
O637 O 0.56932 0.9877 0.61263 0.0
O638 O 0.49612 0.10975 0.67491 0.0
O639 O 0.56406 0.09188 0.64464 0.0
O640 O 0.54232 0.09966 0.61219 0.0
O641 O 0.51652 0.1368 0.63155 0.0
O642 O 0.56003 0.12528 0.66419 0.0
O643 O 0.46359 0.13514 0.65649 0.0
C644 C 0.44537 1.0021 0.62071 0.0
C645 C 0.55376 0.97583 0.58463 0.0
C646 C 0.50306 0.89426 0.57235 0.0
C647 C 0.51442 0.92655 0.58553 0.0
C648 C 0.52893 0.91336 0.55785 0.0
C649 C 0.5789 0.99473 0.57012 0.0
C650 C 0.56601 0.96365 0.5567 0.0
C651 C 0.44656 0.94559 0.64835 0.0
C652 C 0.5705 1.00793 0.59875 0.0
C653 C 0.74222 0.09154 0.63825 0.0
C654 C 0.72185 0.06277 0.65208 0.0
C655 C 0.59404 0.12762 0.65453 0.0
C656 C 0.4462 0.14451 0.68414 0.0
C657 C 0.45569 0.19218 0.68968 0.0
C658 C 0.42844 0.19532 0.70293 0.0
C659 C 0.394 0.15142 0.71089 0.0
C660 C 0.4091 0.10169 0.69192 0.0
C661 C 0.38412 0.10491 0.70532 0.0
C662 C 0.53473 0.13664 0.61715 0.0
C663 C 0.47778 0.13936 0.6715 0.0
H664 H 0.49431 0.91293 0.59672 0.0
H665 H 0.52227 0.88921 0.54758 0.0
H666 H 0.60906 1.0333 0.56925 0.0
H667 H 0.58604 0.97805 0.54557 0.0
H668 H 0.48352 0.22608 0.68379 0.0
H669 H 0.3736 0.15318 0.72126 0.0
H670 H 0.39908 0.0654 0.68787 0.0
H671 H 0.35658 0.0711 0.71131 0.0
Eu672 Eu 0.52954 0.53404 0.78662 0.0
C673 C 0.38022 0.35791 0.8185 0.0
C674 C 0.31611 0.31695 0.79798 0.0
C675 C 0.33663 0.26689 0.81563 0.0
C676 C 0.35302 0.36138 0.80556 0.0
C677 C 0.36993 0.3103 0.82413 0.0
C678 C 0.31012 0.27026 0.8025 0.0
C679 C 0.42081 0.3508 0.84747 0.0
N680 N 0.41317 0.40034 0.8265 0.0
C681 C 0.43072 0.39715 0.84137 0.0
C682 C 0.39145 0.30731 0.8386 0.0
Eu683 Eu 0.43081 0.47634 0.81349 0.0
N684 N 0.35808 0.40691 0.80167 0.0
C685 C 0.32134 0.40847 0.79259 0.0
C686 C 0.28358 0.32007 0.78686 0.0
C687 C 0.28486 0.36568 0.78468 0.0
H688 H 0.4572 0.4309 0.8476 0.0
H689 H 0.25744 0.36791 0.77701 0.0
H690 H 0.28268 0.23608 0.79656 0.0
H691 H 0.4369 0.3488 0.8588 0.0
H692 H 0.31815 0.44173 0.79155 0.0
H693 H 0.63359 0.57781 0.84272 0.0
H694 H 0.25499 0.28686 0.78078 0.0
H695 H 0.51467 0.61152 0.76001 0.0
H696 H 0.57598 0.52238 0.822 0.0
H697 H 0.54565 0.70118 0.75698 0.0
H698 H 0.32928 0.23021 0.81958 0.0
H699 H 0.67287 0.66993 0.83989 0.0
H700 H 0.68187 0.7436 0.82432 0.0
H701 H 0.38419 0.2714 0.84329 0.0
H702 H 0.65742 0.7767 0.80133 0.0
N703 N 0.58256 0.58208 0.80742 0.0
C704 C 0.59311 0.56223 0.82046 0.0
C705 C 0.64783 0.64564 0.83062 0.0
C706 C 0.63671 0.66574 0.81719 0.0
C707 C 0.62568 0.59368 0.8323 0.0
C708 C 0.60346 0.63265 0.80555 0.0
H709 H 0.60713 0.76138 0.77631 0.0
N710 N 0.55409 0.61909 0.78203 0.0
C711 C 0.55758 0.68777 0.76715 0.0
C712 C 0.58886 0.65153 0.79258 0.0
C713 C 0.53894 0.63655 0.76924 0.0
C714 C 0.5925 0.72153 0.77802 0.0
C715 C 0.60841 0.70371 0.79093 0.0
O716 O 0.57722 0.5749 0.76658 0.0
O717 O 0.46404 0.45896 0.79175 0.0
O718 O 0.48535 0.43983 0.81756 0.0
O719 O 0.54239 0.46824 0.79695 0.0
O720 O 0.47235 0.48483 0.76844 0.0
O721 O 0.58408 0.51408 0.77658 0.0
O722 O 0.43321 0.49631 0.8385 0.0
O723 O 0.50112 0.55485 0.80916 0.0
O724 O 0.46529 0.54022 0.775 0.0
O725 O 0.39893 0.50234 0.79283 0.0
O726 O 0.44231 0.55616 0.81904 0.0
O727 O 0.36091 0.4605 0.82575 0.0
C728 C 0.44645 0.4465 0.77751 0.0
C729 C 0.59051 0.52507 0.74837 0.0
C730 C 0.62614 0.49749 0.72758 0.0
C731 C 0.62596 0.51228 0.7434 0.0
C732 C 0.59124 0.49624 0.71648 0.0
C733 C 0.55403 0.52215 0.73738 0.0
C734 C 0.55465 0.50789 0.72148 0.0
C735 C 0.52114 0.43588 0.80919 0.0
C736 C 0.59506 0.54499 0.76465 0.0
C737 C 0.6424 0.73654 0.80235 0.0
C738 C 0.6564 0.71766 0.81543 0.0
C739 C 0.48557 0.58692 0.81307 0.0
C740 C 0.35847 0.45764 0.85458 0.0
C741 C 0.31039 0.45193 0.8578 0.0
C742 C 0.28859 0.43569 0.87303 0.0
C743 C 0.31439 0.4246 0.88478 0.0
C744 C 0.38393 0.4479 0.86688 0.0
C745 C 0.36159 0.43054 0.8817 0.0
C746 C 0.41825 0.52563 0.77912 0.0
C747 C 0.38448 0.47969 0.83929 0.0
H748 H 0.65428 0.51482 0.75181 0.0
H749 H 0.59177 0.48532 0.70417 0.0
H750 H 0.5259 0.53194 0.74094 0.0
H751 H 0.52707 0.50626 0.713 0.0
H752 H 0.29071 0.4609 0.84872 0.0
H753 H 0.29812 0.41199 0.89655 0.0
H754 H 0.42204 0.45545 0.86541 0.0
H755 H 0.38156 0.4229 0.89099 0.0
Eu756 Eu 1.04173 0.52349 0.95508 0.0
C757 C 0.08454 0.39443 0.99264 0.0
C758 C 0.06596 0.32293 0.97541 0.0
C759 C 0.13387 0.35195 -0.00523 0.0
C760 C 1.05632 0.36184 0.98005 0.0
C761 C 0.12137 0.38731 0.00061 0.0
C762 C 0.10635 0.31998 0.98221 0.0
C763 C 0.12257 0.44134 0.02198 0.0
N764 N 0.0711 0.42775 -0.00134 0.0
C765 C 0.08651 0.44797 0.01376 0.0
C766 C 0.14142 0.41247 0.0151 0.0
Eu767 Eu 1.00799 0.43234 0.98348 0.0
N768 N 1.01605 0.36391 0.97378 0.0
C769 C 0.98178 0.32547 0.96426 0.0
C770 C 1.03253 0.28548 0.96496 0.0
C771 C 0.9893 0.28572 0.95989 0.0
H772 H 0.07268 0.47124 0.01896 0.0
H773 H 0.96224 0.2559 0.95227 0.0
H774 H 0.11458 0.29086 0.97852 0.0
H775 H 0.13617 0.45888 0.03355 0.0
H776 H 0.94748 0.32345 0.96019 0.0
H777 H 0.10646 0.6269 0.01165 0.0
H778 H 1.03851 0.25485 0.96133 0.0
H779 H 0.94581 0.50836 0.93071 0.0
H780 H 0.09499 0.56229 0.9923 0.0
H781 H 0.90378 0.55636 0.92451 0.0
H782 H 0.16267 0.34675 0.00059 0.0
H783 H 0.06728 0.6796 0.00677 0.0
H784 H 1.01434 0.70129 0.98914 0.0
H785 H 0.16931 0.40736 0.02157 0.0
H786 H 0.96207 0.68412 0.96505 0.0
N787 N 1.04862 0.57622 0.97657 0.0
C788 C 0.07719 0.58403 0.98996 0.0
C789 C 0.06156 0.65053 -0.00175 0.0
C790 C 1.03202 0.64212 0.98455 0.0
C791 C 0.08375 0.62091 0.00105 0.0
C792 C 1.02535 0.60358 0.97391 0.0
H793 H 0.92121 0.63065 0.94076 0.0
N794 N 0.98395 0.55192 0.95144 0.0
C795 C 0.92834 0.56641 0.93484 0.0
C796 C 0.99334 0.59199 0.96075 0.0
C797 C 0.95137 0.53832 0.93874 0.0
C798 C 0.93859 0.6085 0.944 0.0
C799 C 0.97038 0.62106 0.95736 0.0
O800 O 1.04459 0.55295 0.93132 0.0
O801 O 1.05703 0.4622 0.96123 0.0
O802 O 0.09796 0.48756 0.98654 0.0
O803 O 0.12439 0.53846 0.96448 0.0
O804 O 1.03568 0.46526 0.93786 0.0
O805 O 0.10637 0.59453 0.94777 0.0
O806 O 0.98327 0.41679 0.00839 0.0
O807 O 0.98702 0.49237 0.97576 0.0
O808 O 0.97109 0.45636 0.94336 0.0
O809 O 0.94816 0.397 0.96343 0.0
O810 O 0.96105 0.46237 -0.00332 0.0
O811 O 0.94858 0.35753 0.99049 0.0
C812 C 1.05203 0.44301 0.94721 0.0
C813 C 0.12016 0.61244 0.91994 0.0
C814 C 0.2026 0.64396 0.90806 0.0
C815 C 0.16818 0.61805 0.92032 0.0
C816 C 0.18649 0.66195 0.89501 0.0
C817 C 0.10428 0.62902 0.90672 0.0
C818 C 0.13732 0.65332 0.89421 0.0
C819 C 0.13702 0.52052 0.97753 0.0
C820 C 0.08716 0.59335 0.9337 0.0
C821 C 0.97919 0.66117 0.9675 0.0
C822 C 1.00909 0.67105 0.98121 0.0
C823 C 0.95416 0.4898 0.9864 0.0
C824 C 0.94935 0.33227 0.01735 0.0
C825 C 0.90393 0.29971 0.02511 0.0
C826 C 0.90247 0.26431 0.03611 0.0
C827 C 0.94624 0.26223 0.03962 0.0
C828 C 0.99228 0.32857 0.02092 0.0
C829 C 0.99102 0.29437 0.03204 0.0
C830 C 0.94074 0.41046 0.949 0.0
C831 C 0.95112 0.36931 0.00565 0.0
H832 H 0.17829 0.60255 0.93033 0.0
H833 H 0.2117 0.68437 0.88558 0.0
H834 H 0.06678 0.62447 0.90632 0.0
H835 H 0.12543 0.66725 0.88418 0.0
H836 H 0.87008 0.30156 0.02255 0.0
H837 H 0.94563 0.23554 0.04824 0.0
H838 H 1.02702 0.35143 0.01525 0.0
H839 H 1.02481 0.2926 0.03469 0.0
Eu840 Eu 0.57417 0.04329 0.12523 0.0
C841 C 0.7527 0.07784 0.15673 0.0
C842 C 0.80051 0.07061 0.13461 0.0
C843 C 0.84362 0.13153 0.15576 0.0
C844 C 0.75399 0.0551 0.14231 0.0
C845 C 0.79794 0.11427 0.16393 0.0
C846 C 0.8448 0.11015 0.14107 0.0
C847 C 0.75076 0.10946 0.18775 0.0
N848 N 0.70778 0.06155 0.16441 0.0
C849 C 0.7067 0.07354 0.18021 0.0
C850 C 0.79629 0.13088 0.17943 0.0
Eu851 Eu 0.63669 1.0013 0.14991 0.0
N852 N 0.71089 1.01558 0.13647 0.0
C853 C 0.71293 0.98761 0.12396 0.0
C854 C 0.80177 0.04452 0.12102 0.0
C855 C 0.75804 1.00208 0.11594 0.0
H856 H 0.67128 0.05744 0.18656 0.0
H857 H 0.75891 0.9805 0.10579 0.0
H858 H 0.88064 0.12286 0.13517 0.0
H859 H 0.7496 0.12071 0.19996 0.0
H860 H 0.68044 0.95412 0.11979 0.0
H861 H 0.53656 0.10456 0.18286 0.0
H862 H 0.83675 0.05552 0.11477 0.0
H863 H 0.49207 0.94568 0.10228 0.0
H864 H 0.58771 0.08715 0.16405 0.0
H865 H 0.40302 0.90831 0.09525 0.0
H866 H 0.87861 0.16023 0.16096 0.0
H867 H 0.44725 0.07627 0.17655 0.0
H868 H 0.3733 1.02956 0.15797 0.0
H869 H 0.83036 0.15876 0.18533 0.0
H870 H 0.33752 0.97777 0.13379 0.0
N871 N 0.52928 0.05216 0.1467 0.0
C872 C 0.5495 0.07581 0.16087 0.0
C873 C 0.4698 0.06884 0.16816 0.0
C874 C 0.44858 0.04162 0.15408 0.0
C875 C 0.52022 0.08499 0.17174 0.0
C876 C 0.47942 1.03268 0.14366 0.0
H877 H 0.34792 0.93128 0.11051 0.0
N878 N 0.48806 0.98889 0.12181 0.0
C879 C 0.41802 0.93423 0.10523 0.0
C880 C 0.45854 1.00128 0.13053 0.0
C881 C 0.46859 0.95507 0.10948 0.0
C882 C 0.38725 0.94769 0.11379 0.0
C883 C 0.40714 0.98078 0.12682 0.0
O884 O 0.56322 1.0345 0.09946 0.0
O885 O 0.64181 1.03406 0.12543 0.0
O886 O 0.67336 0.09171 0.1545 0.0
O887 O 0.63229 0.1214 0.13829 0.0
O888 O 0.6504 0.10391 0.11904 0.0
O889 O 0.54673 0.08646 0.11212 0.0
O890 O 0.62982 0.96806 0.17354 0.0
O891 O 0.5558 0.98513 0.14426 0.0
O892 O 0.57608 0.9791 0.11193 0.0
O893 O 0.60565 0.94199 0.12974 0.0
O894 O 0.56182 0.95238 0.16352 0.0
O895 O 0.65528 0.94158 0.1534 0.0
C896 C 0.67307 0.0779 0.12031 0.0
C897 C 0.56774 0.10092 0.08481 0.0
C898 C 0.62164 0.18618 0.07603 0.0
C899 C 0.61091 0.14725 0.08679 0.0
C900 C 0.59382 0.17424 0.06155 0.0
C901 C 0.54068 0.08913 0.07046 0.0
C902 C 0.55488 0.12547 0.0586 0.0
C903 C 0.67053 0.13146 0.14865 0.0
C904 C 0.54778 0.06691 0.09829 0.0
C905 C 0.37708 0.99277 0.1365 0.0
C906 C 0.39751 1.02237 0.15025 0.0
C907 C 0.52676 0.94951 0.15419 0.0
C908 C 0.68199 0.93297 0.17936 0.0
C909 C 0.66644 0.88938 0.18868 0.0
C910 C 0.70107 0.8856 0.19895 0.0
C911 C 0.75064 0.92555 0.19996 0.0
C912 C 0.73214 0.97173 0.18033 0.0
C913 C 0.76604 0.96831 0.19068 0.0
C914 C 0.58601 0.94298 0.11567 0.0
C915 C 0.6459 0.93774 0.16875 0.0
H916 H 0.63295 0.15374 0.09754 0.0
H917 H 0.59934 0.20234 0.05278 0.0
H918 H 0.50779 0.05253 0.06867 0.0
H919 H 0.53348 0.11683 0.04759 0.0
H920 H 0.62799 0.85871 0.1879 0.0
H921 H 0.77771 0.92322 0.20779 0.0
H922 H 0.74553 1.00447 0.17303 0.0
H923 H 0.80456 0.99872 0.19137 0.0
Eu924 Eu 0.59451 0.55017 0.28475 0.0
C925 C 0.72617 0.71972 0.3218 0.0
C926 C 0.78742 0.77063 0.3015 0.0
C927 C 0.76763 0.81097 0.32311 0.0
C928 C 0.7535 0.72304 0.30792 0.0
C929 C 0.73507 0.76394 0.32984 0.0
C930 C 0.79324 0.81425 0.30892 0.0
C931 C 0.68431 0.71273 0.35185 0.0
N932 N 0.69381 0.67368 0.32815 0.0
C933 C 0.67594 0.66972 0.3435 0.0
C934 C 0.71301 0.75987 0.34484 0.0
Eu935 Eu 0.68674 0.60512 0.31301 0.0
N936 N 0.74933 0.68054 0.30122 0.0
C937 C 0.77954 0.68361 0.28864 0.0
C938 C 0.81589 0.77339 0.28804 0.0
C939 C 0.81231 0.72972 0.28171 0.0
H940 H 0.65374 0.63311 0.34889 0.0
H941 H 0.83507 0.73149 0.27154 0.0
H942 H 0.81898 0.85095 0.30408 0.0
H943 H 0.66873 0.70957 0.36369 0.0
H944 H 0.779 0.65119 0.28363 0.0
H945 H 0.48501 0.50505 0.34041 0.0
H946 H 0.84189 0.80923 0.28273 0.0
H947 H 0.61735 0.47148 0.26231 0.0
H948 H 0.55339 0.55903 0.32249 0.0
H949 H 0.57131 0.38278 0.25483 0.0
H950 H 0.77434 0.84523 0.32905 0.0
H951 H 0.4304 0.41522 0.33374 0.0
H952 H 0.41096 0.34284 0.31536 0.0
H953 H 0.71964 0.79314 0.35141 0.0
H954 H 0.43315 0.31003 0.29169 0.0
N955 N 0.53596 0.5025 0.30483 0.0
C956 C 0.52897 0.52104 0.31889 0.0
C957 C 0.46008 0.43929 0.32559 0.0
C958 C 0.4696 0.4198 0.3117 0.0
C959 C 0.49065 0.48996 0.32936 0.0
C960 C 0.50907 0.45254 0.30162 0.0
H961 H 0.49286 0.3246 0.26897 0.0
N962 N 0.56565 0.46462 0.28071 0.0
C963 C 0.5575 0.39639 0.26446 0.0
C964 C 0.52353 0.43337 0.28888 0.0
C965 C 0.58381 0.44684 0.26891 0.0
C966 C 0.51309 0.36383 0.27241 0.0
C967 C 0.49641 0.38184 0.28511 0.0
O968 O 0.59963 0.54112 0.25922 0.0
O969 O 0.67011 0.61683 0.28748 0.0
O970 O 0.63198 0.64148 0.31664 0.0
O971 O 0.57115 0.60777 0.29687 0.0
O972 O 0.6116 0.62807 0.27961 0.0
O973 O 0.52903 0.52836 0.26928 0.0
O974 O 0.70667 0.59232 0.33683 0.0
O975 O 0.62504 0.52512 0.30541 0.0
O976 O 0.66506 0.55455 0.27334 0.0
O977 O 0.72028 0.57446 0.29457 0.0
O978 O 0.65686 0.52871 0.32609 0.0
O979 O 0.7647 0.62539 0.31861 0.0
C980 C 0.65959 0.64971 0.28204 0.0
C981 C 0.54927 0.55747 0.24235 0.0
C982 C 0.51656 0.60724 0.23048 0.0
C983 C 0.52895 0.58899 0.24403 0.0
C984 C 0.53009 0.59911 0.21522 0.0
C985 C 0.56292 0.5491 0.22706 0.0
C986 C 0.55419 0.57073 0.21357 0.0
C987 C 0.59346 0.64203 0.30886 0.0
C988 C 0.55399 0.53106 0.25623 0.0
C989 C 0.45469 0.34976 0.29443 0.0
C990 C 0.44191 0.3685 0.30787 0.0
C991 C 0.62852 0.49467 0.31584 0.0
C992 C 0.79003 0.64229 0.34595 0.0
C993 C 0.81956 0.62557 0.35392 0.0
C994 C 0.84942 0.65271 0.36712 0.0
C995 C 0.84702 0.69497 0.37267 0.0
C996 C 0.7921 0.68695 0.35094 0.0
C997 C 0.81923 0.71235 0.36445 0.0
C998 C 0.7072 0.55986 0.27957 0.0
C999 C 0.75437 0.61071 0.33348 0.0
H1000 H 0.51761 0.59505 0.25577 0.0
H1001 H 0.51903 0.61168 0.20464 0.0
H1002 H 0.57928 0.52502 0.22554 0.0
H1003 H 0.56371 0.56334 0.20178 0.0
H1004 H 0.81927 0.59181 0.34982 0.0
H1005 H 0.86695 0.71504 0.38336 0.0
H1006 H 0.77267 0.70234 0.3446 0.0
H1007 H 0.81877 0.74568 0.36856 0.0
H1008 H 0.0953 0.65377 0.2328 0.0
H1009 H 0.15255 0.74727 0.19081 0.0
H1010 H 0.20911 0.81938 0.20778 0.0
H1011 H 0.10684 0.74804 0.26284 0.0
H1012 H 0.13058 0.72301 0.27791 0.0
H1013 H 0.08801 0.68212 0.26277 0.0
H1014 H 0.15294 0.65552 0.25508 0.0
H1015 H 0.19584 0.69652 0.2702 0.0
H1016 H 0.21611 0.70218 0.2497 0.0
H1017 H 0.26436 0.87952 0.2292 0.0
H1018 H 0.30821 0.92537 0.25388 0.0
H1019 H 0.22181 0.79025 0.28165 0.0
C1020 C 0.11729 0.69042 0.22737 0.0
C1021 C 0.11625 0.69623 0.21058 0.0
C1022 C 0.14938 0.74326 0.20369 0.0
C1023 C 0.18277 0.78401 0.21324 0.0
C1024 C 0.18401 0.77657 0.22966 0.0
C1025 C 0.15195 0.73101 0.23672 0.0
C1026 C 0.16483 0.73136 0.25431 0.0
C1027 C 0.11987 0.72053 0.26509 0.0
C1028 C 0.18368 0.69419 0.25753 0.0
C1029 C 0.2073 0.78478 0.2562 0.0
C1030 C 0.21844 0.80998 0.24177 0.0
C1031 C 0.25599 0.86008 0.24054 0.0
C1032 C 0.28104 0.88567 0.25455 0.0
C1033 C 0.26879 0.86097 0.26951 0.0
C1034 C 0.23248 0.80956 0.27027 0.0
H1035 H 0.45059 0.15536 0.45151 0.0
H1036 H 0.46884 0.28807 0.42721 0.0
H1037 H 0.47351 0.25156 0.40118 0.0
H1038 H 0.53801 0.13775 0.42389 0.0
H1039 H 0.50175 0.07035 0.42561 0.0
H1040 H 0.50472 0.10966 0.44213 0.0
H1041 H 0.40761 0.06549 0.44247 0.0
H1042 H 0.40341 1.02696 0.42558 0.0
H1043 H 0.37411 0.06561 0.42471 0.0
H1044 H 0.46511 0.19618 0.37782 0.0
H1045 H 0.46753 0.13583 0.35882 0.0
H1046 H 0.45846 1.04012 0.39816 0.0
C1047 C 0.45702 0.17718 0.44071 0.0
C1048 C 0.45914 0.2243 0.44122 0.0
C1049 C 0.46742 0.25202 0.42697 0.0
C1050 C 0.46954 0.23133 0.41217 0.0
C1051 C 0.46405 0.1833 0.41195 0.0
C1052 C 0.46016 0.15749 0.42588 0.0
C1053 C 0.45629 0.1071 0.42235 0.0
C1054 C 0.50295 0.10612 0.42887 0.0
C1055 C 0.40744 0.06372 0.42918 0.0
C1056 C 0.4556 0.10725 0.40417 0.0
C1057 C 0.45997 0.15159 0.39846 0.0
C1058 C 0.46136 0.16122 0.38214 0.0
C1059 C 0.46138 0.12607 0.37138 0.0
C1060 C 0.46023 0.08192 0.37691 0.0
C1061 C 0.4559 0.07181 0.39353 0.0
H1062 H 0.25564 0.35741 0.60934 0.0
H1063 H 0.25738 0.49703 0.59887 0.0
H1064 H 0.32337 0.51702 0.57853 0.0
H1065 H 0.39102 0.40443 0.60268 0.0
H1066 H 0.37925 0.34562 0.59399 0.0
H1067 H 0.33729 0.34647 0.60898 0.0
H1068 H 0.26228 0.29864 0.58946 0.0
H1069 H 0.30383 0.29897 0.57412 0.0
H1070 H 0.26361 0.3253 0.57014 0.0
H1071 H 0.37876 0.51517 0.55701 0.0
H1072 H 0.43458 0.50273 0.53952 0.0
H1073 H 0.39744 0.36343 0.56347 0.0
C1074 C 0.27026 0.39247 0.60288 0.0
C1075 C 0.25073 0.42523 0.60542 0.0
C1076 C 0.27171 0.47135 0.59707 0.0
C1077 C 0.30882 0.48276 0.58541 0.0
C1078 C 0.32447 0.44774 0.58242 0.0
C1079 C 0.30691 0.40423 0.5912 0.0
C1080 C 0.32885 0.37226 0.58535 0.0
C1081 C 0.36105 0.3669 0.59853 0.0
C1082 C 0.28715 0.32073 0.57943 0.0
C1083 C 0.3607 0.404 0.57157 0.0
C1084 C 0.35708 0.44701 0.57006 0.0
C1085 C 0.38175 0.48152 0.55802 0.0
C1086 C 0.41245 0.47295 0.5476 0.0
C1087 C 0.41815 0.42982 0.54897 0.0
C1088 C 0.39172 0.39504 0.56128 0.0
H1089 H 0.94581 0.33376 0.70231 0.0
H1090 H 0.08173 0.43761 0.72759 0.0
H1091 H 1.04413 0.39388 0.75305 0.0
H1092 H 0.8638 0.3321 0.73106 0.0
H1093 H 0.81709 0.26683 0.72859 0.0
H1094 H 0.85705 0.30121 0.7121 0.0
H1095 H 0.88833 0.23712 0.70902 0.0
H1096 H 0.84667 0.20068 0.72495 0.0
H1097 H 0.91296 0.22091 0.72622 0.0
H1098 H 0.98696 0.34453 0.77606 0.0
H1099 H 0.92184 0.28216 0.79411 0.0
H1100 H 0.82355 0.21131 0.7535 0.0
C1101 C 0.96874 0.34524 0.71306 0.0
C1102 C 1.01731 0.38766 0.71295 0.0
C1103 C 1.04532 0.40377 0.72736 0.0
C1104 C 1.02372 0.37991 0.74191 0.0
C1105 C 0.97423 0.34018 0.74173 0.0
C1106 C 0.94762 0.32223 0.72761 0.0
C1107 C 0.89443 0.28055 0.73059 0.0
C1108 C 0.85583 0.29613 0.72528 0.0
C1109 C 0.88504 0.2319 0.72221 0.0
C1110 C 0.89544 0.27667 0.74861 0.0
C1111 C 0.94139 0.31229 0.75487 0.0
C1112 C 0.95101 0.31636 0.77128 0.0
C1113 C 0.91373 0.28134 0.78145 0.0
C1114 C 0.86788 0.24283 0.77511 0.0
C1115 C 0.85811 0.24118 0.75857 0.0
H1116 H 0.71325 0.05488 0.89576 0.0
H1117 H 0.57437 0.94658 0.8731 0.0
H1118 H 0.56402 0.8829 0.89213 0.0
H1119 H 0.75807 0.97021 0.90787 0.0
H1120 H 0.7798 0.99973 0.92715 0.0
H1121 H 0.77833 1.036 0.91044 0.0
H1122 H 0.72293 0.06185 0.92734 0.0
H1123 H 0.72303 1.02397 0.94381 0.0
H1124 H 0.66422 1.0135 0.93546 0.0
H1125 H 0.56676 0.83033 0.91408 0.0
H1126 H 0.58969 0.79072 0.93578 0.0
H1127 H 0.72169 0.93441 0.94645 0.0
C1128 C 0.68238 1.01692 0.89425 0.0
C1129 C 0.64766 1.00452 0.88152 0.0
C1130 C 0.60456 0.95613 0.88131 0.0
C1131 C 0.59729 0.9197 0.89257 0.0
C1132 C 0.63207 0.93307 0.9048 0.0
C1133 C 0.67383 0.98044 0.90581 0.0
C1134 C 0.70426 0.9853 0.92065 0.0
C1135 C 0.75832 0.99858 0.91627 0.0
C1136 C 0.70358 1.02346 0.9325 0.0
C1137 C 0.67449 0.93255 0.92716 0.0
C1138 C 0.63215 0.90336 0.91808 0.0
C1139 C 0.59978 0.85276 0.92136 0.0
C1140 C 0.61286 0.8307 0.93376 0.0
C1141 C 0.65789 0.85948 0.94255 0.0
C1142 C 0.68756 0.91145 0.93969 0.0
H1143 H 0.8384 0.59603 0.09396 0.0
H1144 H 0.8778 0.72945 0.12198 0.0
H1145 H 0.82022 0.746 0.10547 0.0
H1146 H 0.83956 0.64386 0.058 0.0
H1147 H 0.78588 0.59142 0.04896 0.0
H1148 H 0.81983 0.58075 0.06464 0.0
H1149 H 0.74106 0.53508 0.08283 0.0
H1150 H 0.70663 0.5392 0.06598 0.0
H1151 H 0.70089 0.56222 0.08538 0.0
H1152 H 0.76762 0.75398 0.08359 0.0
H1153 H 0.71174 0.74548 0.06117 0.0
H1154 H 0.70778 0.60816 0.04636 0.0
C1155 C 0.83252 0.62704 0.09718 0.0
C1156 C 0.86139 0.66075 0.10955 0.0
C1157 C 0.85477 0.70237 0.11293 0.0
C1158 C 0.8227 0.71239 0.10343 0.0
C1159 C 0.79727 0.68022 0.09063 0.0
C1160 C 0.80049 0.63745 0.08782 0.0
C1161 C 0.77152 0.61063 0.07278 0.0
C1162 C 0.80634 0.60642 0.06038 0.0
C1163 C 0.72732 0.5587 0.07702 0.0
C1164 C 0.75319 0.64608 0.06709 0.0
C1165 C 0.76844 0.68582 0.07766 0.0
C1166 C 0.75597 0.72327 0.07517 0.0
C1167 C 0.72538 0.71899 0.06202 0.0
C1168 C 0.70815 0.67837 0.05104 0.0
C1169 C 0.7228 0.64151 0.05369 0.0
H1170 H 0.44396 1.01745 0.58885 0.0
H1171 H 0.34943 0.95046 0.63003 0.0
H1172 H 0.28337 0.88682 0.61309 0.0
H1173 H 0.33814 0.99189 0.55996 0.0
H1174 H 0.36919 0.97881 0.54385 0.0
H1175 H 0.40599 1.02346 0.55919 0.0
H1176 H 0.45182 0.97201 0.56444 0.0
H1177 H 0.41341 0.92683 0.54944 0.0
H1178 H 0.41468 0.90643 0.56953 0.0
H1179 H 0.23442 0.8229 0.59276 0.0
H1180 H 0.19116 0.77597 0.56823 0.0
H1181 H 0.31456 0.88506 0.53945 0.0
C1182 C 0.40782 0.99168 0.59409 0.0
C1183 C 0.40112 0.98947 0.61089 0.0
C1184 C 0.35468 0.95345 0.61736 0.0
C1185 C 0.31736 0.91647 0.60778 0.0
C1186 C 0.32692 0.91679 0.59154 0.0
C1187 C 0.36995 0.95453 0.58453 0.0
C1188 C 0.37081 0.9449 0.56674 0.0
C1189 C 0.37103 0.98729 0.55686 0.0
C1190 C 0.41539 0.93716 0.56229 0.0
C1191 C 0.32145 0.89627 0.56501 0.0
C1192 C 0.29765 0.88003 0.57958 0.0
C1193 C 0.25213 0.83551 0.58121 0.0
C1194 C 0.22825 0.80877 0.56733 0.0
C1195 C 0.25007 0.82711 0.55223 0.0
C1196 C 0.29791 0.87025 0.55102 0.0
H1197 H 0.50295 0.26935 0.72123 0.0
H1198 H 0.35795 0.22262 0.69931 0.0
H1199 H 0.34368 0.27701 0.71794 0.0
H1200 H 0.47605 0.27657 0.76105 0.0
H1201 H 0.53425 0.33415 0.76462 0.0
H1202 H 0.53083 0.29293 0.74887 0.0
H1203 H 0.56295 0.37022 0.72997 0.0
H1204 H 0.56134 0.4087 0.74621 0.0
H1205 H 0.52651 0.40155 0.72802 0.0
H1206 H 0.34077 0.328 0.74113 0.0
H1207 H 0.35779 0.38867 0.7629 0.0
H1208 H 0.50545 0.40634 0.76937 0.0
C1209 C 0.46938 0.27259 0.7199 0.0
C1210 C 0.43168 0.24232 0.70877 0.0
C1211 C 0.38765 0.24648 0.70757 0.0
C1212 C 0.37883 0.2765 0.71831 0.0
C1213 C 0.41493 0.30296 0.73 0.0
C1214 C 0.46017 0.30303 0.73042 0.0
C1215 C 0.49325 0.33662 0.74377 0.0
C1216 C 0.50936 0.30815 0.75526 0.0
C1217 C 0.53892 0.38208 0.73655 0.0
C1218 C 0.45807 0.35201 0.75172 0.0
C1219 C 0.41313 0.33226 0.74345 0.0
C1220 C 0.37543 0.34285 0.74791 0.0
C1221 C 0.38461 0.37608 0.76074 0.0
C1222 C 0.43051 0.39778 0.76934 0.0
C1223 C 0.46786 0.3857 0.76452 0.0
H1224 H 0.13784 0.51203 0.93221 0.0
H1225 H 1.04479 0.35331 0.94038 0.0
H1226 H 0.08952 0.33484 0.91966 0.0
H1227 H 0.13592 0.49337 0.88725 0.0
H1228 H 0.19661 0.54941 0.88622 0.0
H1229 H 0.15239 0.54169 0.90178 0.0
H1230 H 0.22916 0.55836 0.92253 0.0
H1231 H 0.26624 0.56259 0.9052 0.0
H1232 H 0.25547 0.51757 0.92072 0.0
H1233 H 0.13675 0.3327 0.89582 0.0
H1234 H 0.20278 0.34791 0.87612 0.0
H1235 H 0.26606 0.50847 0.88221 0.0
C1236 C 0.12875 0.47355 0.93016 0.0
C1237 C 0.08996 0.43378 0.93912 0.0
C1238 C 0.07686 0.38409 0.93511 0.0
C1239 C 0.10085 0.37336 0.92269 0.0
C1240 C 0.13668 0.41295 0.91368 0.0
C1241 C 0.15119 0.46219 0.91729 0.0
C1242 C 0.19006 0.49743 0.90533 0.0
C1243 C 0.16765 0.52213 0.89453 0.0
C1244 C 0.23817 0.53638 0.91392 0.0
C1245 C 0.19855 0.46053 0.89555 0.0
C1246 C 0.16483 0.41179 0.89993 0.0
C1247 C 0.16363 0.37071 0.89236 0.0
C1248 C 0.20066 0.37966 0.88097 0.0
C1249 C 0.23915 0.42917 0.87765 0.0
C1250 C 0.23651 0.47025 0.88435 0.0
H1251 H 0.74786 0.17018 0.11536 0.0
H1252 H 0.68248 1.0183 0.09721 0.0
H1253 H 0.73151 0.05042 0.07221 0.0
H1254 H 0.72937 0.21372 0.07764 0.0
H1255 H 0.78229 0.27583 0.08038 0.0
H1256 H 0.74851 0.23914 0.09754 0.0
H1257 H 0.83122 0.2483 0.1092 0.0
H1258 H 0.86535 0.28572 0.09227 0.0
H1259 H 0.86892 0.23025 0.0973 0.0
H1260 H 0.78534 0.10136 0.04867 0.0
H1261 H 0.8443 0.1655 0.02971 0.0
H1262 H 0.86257 0.28361 0.06223 0.0
C1263 C 0.74588 0.14346 0.10645 0.0
C1264 C 0.71353 0.09145 0.10857 0.0
C1265 C 0.70911 0.05788 0.09621 0.0
C1266 C 0.73588 0.07603 0.08182 0.0
C1267 C 0.76484 0.12793 0.0798 0.0
C1268 C 0.76958 0.16105 0.09179 0.0
C1269 C 0.79765 0.21489 0.08617 0.0
C1270 C 0.76237 0.23726 0.08541 0.0
C1271 C 0.84364 0.24669 0.09685 0.0
C1272 C 0.81205 0.20746 0.06955 0.0
C1273 C 0.79164 0.15695 0.0659 0.0
C1274 C 0.80089 0.14089 0.05133 0.0
C1275 C 0.83374 0.17739 0.04057 0.0
C1276 C 0.85644 0.22898 0.04447 0.0
C1277 C 0.84423 0.24429 0.05886 0.0
H1278 H 0.67104 0.74225 0.28068 0.0
H1279 H 0.69974 0.63737 0.25453 0.0
H1280 H 0.71001 0.68455 0.22956 0.0
H1281 H 0.59323 0.74768 0.2517 0.0
H1282 H 0.6118 0.81298 0.25455 0.0
H1283 H 0.6166 0.77735 0.27085 0.0
H1284 H 0.71122 0.8399 0.27463 0.0
H1285 H 0.70697 0.87792 0.25895 0.0
H1286 H 0.75267 0.85701 0.25762 0.0
H1287 H 0.70619 0.73833 0.20676 0.0
H1288 H 0.70431 0.80267 0.18923 0.0
H1289 H 0.67378 0.86962 0.23033 0.0
C1290 C 0.68277 0.73123 0.26989 0.0
C1291 C 0.68802 0.68794 0.26978 0.0
C1292 C 0.69962 0.67247 0.25516 0.0
C1293 C 0.70369 0.6982 0.2408 0.0
C1294 C 0.69528 0.73902 0.24123 0.0
C1295 C 0.68598 0.75593 0.25547 0.0
C1296 C 0.675 0.79842 0.25269 0.0
C1297 C 0.6209 0.78316 0.25773 0.0
C1298 C 0.71379 0.84618 0.26148 0.0
C1299 C 0.6808 0.80387 0.23471 0.0
C1300 C 0.69146 0.76857 0.22822 0.0
C1301 C 0.69804 0.76616 0.21177 0.0
C1302 C 0.69626 0.80232 0.20187 0.0
C1303 C 0.688 0.84021 0.20845 0.0
C1304 C 0.67905 0.84025 0.22501 0.0
H1305 H 0.06089 0.71054 0.43044 0.0
H1306 H 0.97898 0.55302 0.44178 0.0
H1307 H 0.92741 0.53646 0.41783 0.0
H1308 H 0.94643 0.70431 0.42109 0.0
H1309 H 0.97277 0.75462 0.40676 0.0
H1310 H 1.01114 0.75325 0.42288 0.0
H1311 H 0.07663 0.75652 0.40223 0.0
H1312 H 1.03812 0.75779 0.38608 0.0
H1313 H 1.05613 0.7099 0.38653 0.0
H1314 H 0.8815 0.53581 0.39291 0.0
H1315 H 0.83197 0.55703 0.37418 0.0
H1316 H 0.94207 0.71517 0.37948 0.0
C1317 C 1.03481 0.67186 0.42724 0.0
C1318 C 1.02831 0.63226 0.43734 0.0
C1319 C 0.9893 0.58324 0.4337 0.0
C1320 C 0.95933 0.5733 0.41996 0.0
C1321 C 0.96823 0.61283 0.40995 0.0
C1322 C 1.0041 0.66156 0.41373 0.0
C1323 C 0.99733 0.6987 0.40367 0.0
C1324 C 0.981 0.72955 0.41422 0.0
C1325 C 1.04492 0.73273 0.39405 0.0
C1326 C 0.95464 0.66321 0.39295 0.0
C1327 C 0.93774 0.61368 0.3968 0.0
C1328 C 0.89472 0.57457 0.38969 0.0
C1329 C 0.86701 0.5869 0.37897 0.0
C1330 C 0.88274 0.63785 0.37556 0.0
C1331 C 0.92853 0.67589 0.38202 0.0
H1332 H 0.59643 0.7058 0.33701 0.0
H1333 H 0.55924 0.68515 0.28652 0.0
H1334 H 0.54049 0.75469 0.28769 0.0
H1335 H 0.49615 0.73687 0.34858 0.0
H1336 H 0.53384 0.78396 0.36323 0.0
H1337 H 0.54618 0.7333 0.3589 0.0
H1338 H 0.63857 0.79632 0.35182 0.0
H1339 H 0.6258 0.84553 0.35711 0.0
H1340 H 0.65178 0.84602 0.33777 0.0
H1341 H 0.52861 0.83367 0.29365 0.0
H1342 H 0.51438 0.90061 0.30374 0.0
H1343 H 0.5457 0.87135 0.35188 0.0
C1344 C 0.58434 0.71545 0.32607 0.0
C1345 C 0.57993 0.68674 0.31144 0.0
C1346 C 0.56325 0.70346 0.29796 0.0
C1347 C 0.5526 0.74431 0.2985 0.0
C1348 C 0.55732 0.77104 0.31279 0.0
C1349 C 0.57179 0.75643 0.32651 0.0
C1350 C 0.57172 0.79116 0.34039 0.0
C1351 C 0.53478 0.7594 0.35357 0.0
C1352 C 0.62521 0.82162 0.34715 0.0
C1353 C 0.55457 0.82699 0.33251 0.0
C1354 C 0.54779 0.81472 0.3164 0.0
C1355 C 0.53378 0.84244 0.3063 0.0
C1356 C 0.52575 0.88181 0.31238 0.0
C1357 C 0.52992 0.89635 0.32891 0.0
C1358 C 0.54438 0.86629 0.33911 0.0
H1359 H 0.70138 0.49642 0.52209 0.0
H1360 H 0.64428 0.47675 0.47358 0.0
H1361 H 0.72623 0.49269 0.46342 0.0
H1362 H 0.83105 0.60111 0.51199 0.0
H1363 H 0.86614 0.58241 0.52493 0.0
H1364 H 0.80313 0.56648 0.53011 0.0
H1365 H 0.77374 0.47376 0.53186 0.0
H1366 H 0.83739 0.48791 0.52774 0.0
H1367 H 0.78613 0.44292 0.51551 0.0
H1368 H 0.8192 0.50833 0.45728 0.0
H1369 H 0.90728 0.52775 0.45627 0.0
H1370 H 0.91879 0.54955 0.50763 0.0
C1371 C 0.70569 0.49615 0.50927 0.0
C1372 C 0.66212 0.48482 0.49893 0.0
C1373 C 0.67354 0.48472 0.4823 0.0
C1374 C 0.72147 0.49404 0.47621 0.0
C1375 C 0.76249 0.50519 0.48644 0.0
C1376 C 0.75545 0.5071 0.50274 0.0
C1377 C 0.80751 0.52119 0.51085 0.0
C1378 C 0.82818 0.57089 0.51999 0.0
C1379 C 0.80082 0.47894 0.52218 0.0
C1380 C 0.8443 0.5271 0.49679 0.0
C1381 C 0.81648 0.51665 0.48284 0.0
C1382 C 0.84043 0.51715 0.46833 0.0
C1383 C 0.89224 0.52862 0.46786 0.0
C1384 C 0.92467 0.54181 0.48158 0.0
C1385 C 0.89829 0.54081 0.49645 0.0
H1386 H 0.43072 0.84012 0.65327 0.0
H1387 H 0.34714 0.91934 0.65282 0.0
H1388 H 0.26859 0.8412 0.65686 0.0
H1389 H 0.33494 0.72229 0.63546 0.0
H1390 H 0.34181 0.67954 0.64868 0.0
H1391 H 0.39422 0.7416 0.64547 0.0
H1392 H 0.40455 0.76262 0.6751 0.0
H1393 H 0.35396 0.7 0.67918 0.0
H1394 H 0.35074 0.75373 0.68653 0.0
H1395 H 0.19035 0.74426 0.65807 0.0
H1396 H 0.13314 0.65304 0.6613 0.0
H1397 H 0.26107 0.63189 0.66831 0.0
C1398 C 0.39616 0.84167 0.65392 0.0
C1399 C 0.39837 0.89028 0.65194 0.0
C1400 C 0.34984 0.88613 0.65361 0.0
C1401 C 0.30346 0.84021 0.65604 0.0
C1402 C 0.30263 0.79422 0.6577 0.0
C1403 C 0.34832 0.79485 0.65724 0.0
C1404 C 0.33642 0.74001 0.66087 0.0
C1405 C 0.35275 0.71954 0.64675 0.0
C1406 C 0.36306 0.73902 0.67634 0.0
C1407 C 0.27804 0.70895 0.66304 0.0
C1408 C 0.25915 0.7411 0.6608 0.0
C1409 C 0.20614 0.72027 0.6607 0.0
C1410 C 0.17263 0.66727 0.66323 0.0
C1411 C 0.18956 0.63272 0.66712 0.0
C1412 C 0.24444 0.65554 0.66644 0.0
H1413 H 0.53136 0.38174 0.83815 0.0
H1414 H 0.54492 0.3847 0.78668 0.0
H1415 H 0.55899 0.31212 0.78783 0.0
H1416 H 0.6386 0.35291 0.84271 0.0
H1417 H 0.614 0.31541 0.86048 0.0
H1418 H 0.59983 0.36489 0.85628 0.0
H1419 H 0.50224 0.30231 0.85649 0.0
H1420 H 0.52152 0.25914 0.86334 0.0
H1421 H 0.47955 0.243 0.8463 0.0
H1422 H 0.56859 0.23272 0.79386 0.0
H1423 H 0.58731 0.16859 0.80389 0.0
H1424 H 0.58603 0.21789 0.85245 0.0
C1425 C 0.53674 0.36722 0.82696 0.0
C1426 C 0.53385 0.39061 0.81193 0.0
C1427 C 0.54376 0.36881 0.79823 0.0
C1428 C 0.55237 0.32669 0.7988 0.0
C1429 C 0.55405 0.30471 0.81338 0.0
C1430 C 0.54844 0.32557 0.82736 0.0
C1431 C 0.55836 0.29757 0.84144 0.0
C1432 C 0.60549 0.33495 0.8508 0.0
C1433 C 0.51252 0.27389 0.85251 0.0
C1434 C 0.56761 0.25624 0.83331 0.0
C1435 C 0.56447 0.26173 0.81699 0.0
C1436 C 0.5712 0.22914 0.80666 0.0
C1437 C 0.58197 0.19158 0.81268 0.0
C1438 C 0.5876 0.18373 0.82927 0.0
C1439 C 0.58035 0.21857 0.83972 0.0
H1440 H 0.23506 0.54625 0.9606 0.0
H1441 H 0.17622 0.53399 0.0084 0.0
H1442 H 0.257 0.54889 0.01964 0.0
H1443 H 0.31616 0.49 0.96872 0.0
H1444 H 0.36824 0.53335 0.95655 0.0
H1445 H 0.3052 0.52032 0.95194 0.0
H1446 H 0.33449 0.61433 0.95338 0.0
H1447 H 0.39767 0.62804 0.9581 0.0
H1448 H 0.3653 0.64953 0.97119 0.0
H1449 H 0.35438 0.5719 0.02692 0.0
H1450 H 0.4443 0.59516 0.02809 0.0
H1451 H 0.44764 0.59145 0.97649 0.0
C1452 C 0.23862 0.54696 0.97349 0.0
C1453 C 0.19451 0.53675 0.98328 0.0
C1454 C 0.20526 0.53889 7e-05 0.0
C1455 C 0.25284 0.54843 0.00677 0.0
C1456 C 0.29424 0.55752 -0.00299 0.0
C1457 C 0.28754 0.5571 0.98057 0.0
C1458 C 0.3391 0.569 0.97281 0.0
C1459 C 0.33172 0.52558 0.96185 0.0
C1460 C 0.36044 0.61815 0.9633 0.0
C1461 C 0.37507 0.57505 0.98718 0.0
C1462 C 0.34823 0.5688 0.0011 0.0
C1463 C 0.37405 0.57519 0.01584 0.0
C1464 C 0.42638 0.58746 0.0165 0.0
C1465 C 0.45595 0.59193 0.00268 0.0
C1466 C 0.42811 0.58637 0.98771 0.0
H1467 H 0.95464 0.40462 0.16053 0.0
H1468 H 0.86408 0.47039 0.17584 0.0
H1469 H 0.78794 0.39032 0.1715 0.0
H1470 H 0.86358 0.31612 0.13056 0.0
H1471 H 0.87297 0.2638 0.13531 0.0
H1472 H 0.92259 0.32727 0.13896 0.0
H1473 H 0.92499 0.3005 0.16722 0.0
H1474 H 0.87145 0.23902 0.16525 0.0
H1475 H 0.87197 0.28121 0.18044 0.0
H1476 H 0.71398 0.29987 0.16413 0.0
H1477 H 0.65562 0.21083 0.15747 0.0
H1478 H 0.78343 0.1893 0.14899 0.0
C1479 C 0.91932 0.40256 0.16355 0.0
C1480 C 0.91925 0.44833 0.16906 0.0
C1481 C 0.86913 0.43955 0.1718 0.0
C1482 C 0.82395 0.39269 0.1693 0.0
C1483 C 0.82527 0.34981 0.16406 0.0
C1484 C 0.87187 0.3537 0.16144 0.0
C1485 C 0.86041 0.29966 0.15609 0.0
C1486 C 0.88113 0.30182 0.13922 0.0
C1487 C 0.88356 0.27887 0.16801 0.0
C1488 C 0.80137 0.26591 0.15619 0.0
C1489 C 0.78234 0.29665 0.16064 0.0
C1490 C 0.72947 0.27597 0.16098 0.0
C1491 C 0.69565 0.22403 0.15711 0.0
C1492 C 0.71193 0.18902 0.15305 0.0
C1493 C 0.76716 0.21212 0.15256 0.0
H1494 H 0.17595 0.49221 0.4932 0.0
H1495 H 0.26206 0.65101 0.48298 0.0
H1496 H 0.3406 0.64817 0.48793 0.0
H1497 H 0.25923 0.48788 0.52392 0.0
H1498 H 0.25275 0.42839 0.51788 0.0
H1499 H 0.20307 0.44242 0.51365 0.0
H1500 H 0.20789 0.42151 0.48481 0.0
H1501 H 0.26141 0.41289 0.48742 0.0
H1502 H 0.26418 0.45848 0.47322 0.0
H1503 H 0.41632 0.6289 0.49692 0.0
H1504 H 0.47306 0.5957 0.50399 0.0
H1505 H 0.34474 0.44551 0.50521 0.0
C1506 C 0.211 0.52641 0.49129 0.0
C1507 C 0.20936 0.57215 0.48688 0.0
C1508 C 0.25882 0.61501 0.48574 0.0
C1509 C 0.30492 0.61369 0.48873 0.0
C1510 C 0.30476 0.56872 0.49288 0.0
C1511 C 0.25851 0.52527 0.49377 0.0
C1512 C 0.26932 0.48158 0.49827 0.0
C1513 C 0.24459 0.45865 0.51438 0.0
C1514 C 0.24956 0.44127 0.48511 0.0
C1515 C 0.32813 0.50656 0.49965 0.0
C1516 C 0.34755 0.55739 0.49688 0.0
C1517 C 0.40028 0.58888 0.49862 0.0
C1518 C 0.43325 0.56924 0.50277 0.0
C1519 C 0.4166 0.51705 0.505 0.0
C1520 C 0.3616 0.48558 0.50334 0.0
H1521 H 0.69536 0.18008 0.63572 0.0
H1522 H 0.63044 0.18175 0.68163 0.0
H1523 H 0.7099 0.25364 0.68976 0.0
H1524 H 0.8228 0.21278 0.65533 0.0
H1525 H 0.86056 0.25037 0.63886 0.0
H1526 H 0.79857 0.19905 0.63523 0.0
H1527 H 0.77285 0.25679 0.62101 0.0
H1528 H 0.83551 0.30881 0.62417 0.0
H1529 H 0.78163 0.3128 0.63103 0.0
H1530 H 0.79957 0.33211 0.69395 0.0
H1531 H 0.88773 0.39993 0.6942 0.0
H1532 H 0.90947 0.35077 0.6477 0.0
C1533 C 0.69764 0.193 0.64778 0.0
C1534 C 0.65243 0.16995 0.65789 0.0
C1535 C 0.66108 0.19468 0.67315 0.0
C1536 C 0.70754 0.23708 0.67811 0.0
C1537 C 0.75004 0.25756 0.6682 0.0
C1538 C 0.74622 0.23556 0.6534 0.0
C1539 C 0.80005 0.26502 0.64568 0.0
C1540 C 0.82178 0.22967 0.64367 0.0
C1541 C 0.79735 0.28718 0.6295 0.0
C1542 C 0.83321 0.30773 0.65798 0.0
C1543 C 0.80269 0.30195 0.6709 0.0
C1544 C 0.82315 0.336 0.68379 0.0
C1545 C 0.87465 0.37568 0.68378 0.0
C1546 C 0.90937 0.38396 0.67112 0.0
C1547 C 0.88662 0.34777 0.65791 0.0
H1548 H 0.5267 0.88582 0.81344 0.0
H1549 H 0.61013 0.91021 0.85732 0.0
H1550 H 0.59564 0.82437 0.85622 0.0
H1551 H 0.43567 0.74946 0.81784 0.0
H1552 H 0.4396 0.73215 0.79747 0.0
H1553 H 0.45236 0.79498 0.80204 0.0
H1554 H 0.53942 0.83141 0.78867 0.0
H1555 H 0.5263 0.76853 0.784 0.0
H1556 H 0.58217 0.81037 0.79516 0.0
H1557 H 0.57099 0.72659 0.85018 0.0
H1558 H 0.54361 0.64073 0.84006 0.0
H1559 H 0.48092 0.67237 0.7982 0.0
C1560 C 0.54138 0.87337 0.82311 0.0
C1561 C 0.5661 0.90789 0.83671 0.0
C1562 C 0.58618 0.8868 0.8479 0.0
C1563 C 0.57946 0.83674 0.84697 0.0
C1564 C 0.55398 0.80409 0.83406 0.0
C1565 C 0.53594 0.82224 0.82206 0.0
C1566 C 0.51247 0.77958 0.80898 0.0
C1567 C 0.45669 0.76308 0.80642 0.0
C1568 C 0.54179 0.79861 0.79325 0.0
C1569 C 0.51837 0.73468 0.81563 0.0
C1570 C 0.54315 0.75029 0.83014 0.0
C1571 C 0.5525 0.71564 0.83865 0.0
C1572 C 0.5369 0.66562 0.83257 0.0
C1573 C 0.51162 0.64666 0.81755 0.0
C1574 C 0.50185 0.68351 0.80932 0.0
H1575 H 0.73176 0.58699 0.98361 0.0
H1576 H 0.70241 0.53736 0.03287 0.0
H1577 H 0.77007 0.5159 0.03148 0.0
H1578 H 0.75863 0.48566 0.96986 0.0
H1579 H 0.80817 0.52474 0.95618 0.0
H1580 H 0.75876 0.53893 0.96064 0.0
H1581 H 0.82408 0.62841 0.96982 0.0
H1582 H 0.87206 0.61393 0.96434 0.0
H1583 H 0.87166 0.63654 0.98422 0.0
H1584 H 0.8487 0.5034 0.02563 0.0
H1585 H 0.91555 0.48924 0.01557 0.0
H1586 H 0.89282 0.5303 0.96796 0.0
C1587 C 0.73925 0.57182 0.99425 0.0
C1588 C 0.70937 0.56583 0.00871 0.0
C1589 C 0.72266 0.54426 0.02171 0.0
C1590 C 0.76215 0.53155 0.021 0.0
C1591 C 0.79059 0.53869 0.00697 0.0
C1592 C 0.77874 0.55716 0.99359 0.0
C1593 C 0.81431 0.55828 0.97979 0.0
C1594 C 0.78308 0.52492 0.96577 0.0
C1595 C 0.84757 0.61259 0.97424 0.0
C1596 C 0.84757 0.53748 0.98736 0.0
C1597 C 0.83334 0.52785 0.00326 0.0
C1598 C 0.85893 0.51074 0.01314 0.0
C1599 C 0.89828 0.5027 0.00704 0.0
C1600 C 0.91468 0.5096 0.99067 0.0
C1601 C 0.88657 0.52696 0.98067 0.0
H1602 H 0.42156 0.90554 0.13747 0.0
H1603 H 0.49456 0.88383 0.17871 0.0
H1604 H 0.41535 0.81103 0.18626 0.0
H1605 H 0.30147 0.87079 0.16092 0.0
H1606 H 0.25857 0.83955 0.14456 0.0
H1607 H 0.32104 0.89015 0.14064 0.0
H1608 H 0.33993 0.83549 0.12198 0.0
H1609 H 0.27681 0.7845 0.1251 0.0
H1610 H 0.33002 0.77558 0.12887 0.0
H1611 H 0.32494 0.73364 0.19011 0.0
H1612 H 0.23574 0.66822 0.19064 0.0
H1613 H 0.20751 0.73739 0.14969 0.0
C1614 C 0.42155 0.88787 0.14846 0.0
C1615 C 0.46884 0.90572 0.1574 0.0
C1616 C 0.46239 0.87512 0.17119 0.0
C1617 C 0.41608 0.83209 0.17579 0.0
C1618 C 0.37162 0.81681 0.16704 0.0
C1619 C 0.37338 0.8445 0.15377 0.0
C1620 C 0.318 0.81978 0.14714 0.0
C1621 C 0.2986 0.85731 0.14839 0.0
C1622 C 0.31606 0.80283 0.12973 0.0
C1623 C 0.28605 0.7735 0.1583 0.0
C1624 C 0.31869 0.77309 0.16967 0.0
C1625 C 0.2997 0.73455 0.18119 0.0
C1626 C 0.24761 0.69637 0.18135 0.0
C1627 C 0.2109 0.6943 0.17029 0.0
C1628 C 0.23207 0.73524 0.15854 0.0
H1629 H 0.58436 0.39207 0.29732 0.0
H1630 H 0.63852 0.45753 0.34416 0.0
H1631 H 0.6274 0.37754 0.3536 0.0
H1632 H 0.48388 0.26665 0.31465 0.0
H1633 H 0.48891 0.22721 0.29953 0.0
H1634 H 0.50252 0.28969 0.29459 0.0
H1635 H 0.58997 0.31392 0.28453 0.0
H1636 H 0.57712 0.25076 0.28847 0.0
H1637 H 0.63205 0.30354 0.29704 0.0
H1638 H 0.61358 0.28576 0.35922 0.0
H1639 H 0.59224 0.19707 0.36036 0.0
H1640 H 0.53354 0.17553 0.31203 0.0
C1641 C 0.59151 0.38985 0.30979 0.0
C1642 C 0.61124 0.43568 0.31974 0.0
C1643 C 0.62284 0.42672 0.33568 0.0
C1644 C 0.61662 0.37979 0.34142 0.0
C1645 C 0.59692 0.33672 0.33165 0.0
C1646 C 0.58334 0.3408 0.31614 0.0
C1647 C 0.56122 0.28666 0.30857 0.0
C1648 C 0.5058 0.26634 0.30408 0.0
C1649 C 0.5919 0.28883 0.29376 0.0
C1650 C 0.56547 0.25255 0.32195 0.0
C1651 C 0.58691 0.28329 0.33512 0.0
C1652 C 0.5964 0.26221 0.34883 0.0
C1653 C 0.58403 0.21025 0.34936 0.0
C1654 C 0.56053 0.17508 0.33653 0.0
C1655 C 0.55106 0.19847 0.32248 0.0
H1656 H 0.19086 0.68241 0.41462 0.0
H1657 H 0.25613 0.75668 0.45982 0.0
H1658 H 0.3245 0.82656 0.44541 0.0
H1659 H 0.31155 0.72214 0.39409 0.0
H1660 H 0.29203 0.73373 0.37496 0.0
H1661 H 0.24617 0.68746 0.38825 0.0
H1662 H 0.19398 0.73298 0.38714 0.0
H1663 H 0.23982 0.7792 0.37385 0.0
H1664 H 0.22368 0.79882 0.3922 0.0
H1665 H 0.38938 0.88944 0.42661 0.0
H1666 H 0.44362 0.94132 0.40468 0.0
H1667 H 0.34031 0.83352 0.37013 0.0
C1668 C 0.21969 0.71322 0.42151 0.0
C1669 C 0.21707 0.71268 0.43872 0.0
C1670 C 0.25604 0.7548 0.44688 0.0
C1671 C 0.29562 0.79529 0.43871 0.0
C1672 C 0.29722 0.79476 0.42202 0.0
C1673 C 0.26025 0.75504 0.41337 0.0
C1674 C 0.27207 0.76537 0.39535 0.0
C1675 C 0.28094 0.72471 0.38771 0.0
C1676 C 0.22984 0.76929 0.38662 0.0
C1677 C 0.32107 0.81643 0.39537 0.0
C1678 C 0.3347 0.83222 0.41099 0.0
C1679 C 0.3788 0.87719 0.41436 0.0
C1680 C 0.40984 0.9066 0.40166 0.0
C1681 C 0.39749 0.89228 0.38534 0.0
C1682 C 0.35164 0.84623 0.3823 0.0
H1683 H 0.49849 0.28553 0.54203 0.0
H1684 H 0.60395 0.42066 0.5676 0.0
H1685 H 0.61315 0.3701 0.58831 0.0
H1686 H 0.43801 0.21479 0.57863 0.0
H1687 H 0.42803 0.15568 0.57077 0.0
H1688 H 0.42985 0.20273 0.55741 0.0
H1689 H 0.50033 0.19996 0.54116 0.0
H1690 H 0.49921 0.15331 0.55453 0.0
H1691 H 0.55727 0.21101 0.55113 0.0
H1692 H 0.6107 0.30759 0.60701 0.0
H1693 H 0.59637 0.23428 0.62303 0.0
H1694 H 0.49312 0.13476 0.58685 0.0
C1695 C 0.5239 0.30455 0.5519 0.0
C1696 C 0.55118 0.35816 0.55278 0.0
C1697 C 0.58306 0.38058 0.5662 0.0
C1698 C 0.58848 0.35183 0.57822 0.0
C1699 C 0.56139 0.2998 0.57703 0.0
C1700 C 0.52937 0.27595 0.56433 0.0
C1701 C 0.5037 0.21896 0.56657 0.0
C1702 C 0.4465 0.19671 0.56845 0.0
C1703 C 0.51587 0.19433 0.55252 0.0
C1704 C 0.52777 0.21503 0.58225 0.0
C1705 C 0.56039 0.26258 0.58804 0.0
C1706 C 0.58563 0.27011 0.60257 0.0
C1707 C 0.57735 0.22824 0.61161 0.0
C1708 C 0.54464 0.17896 0.60615 0.0
C1709 C 0.51951 0.17211 0.59116 0.0
H1710 H 0.3207 0.51445 0.78082 0.0
H1711 H 0.43899 0.53794 0.74723 0.0
H1712 H 0.38724 0.53859 0.72508 0.0
H1713 H 0.21675 0.43059 0.75403 0.0
H1714 H 0.17594 0.45422 0.7604 0.0
H1715 H 0.22238 0.45529 0.77398 0.0
H1716 H 0.2591 0.55076 0.77807 0.0
H1717 H 0.21314 0.55022 0.76441 0.0
H1718 H 0.27936 0.59176 0.76095 0.0
H1719 H 0.32578 0.53749 0.70628 0.0
H1720 H 0.25471 0.5328 0.69118 0.0
H1721 H 0.17126 0.50927 0.73536 0.0
C1722 C 0.33565 0.5196 0.76882 0.0
C1723 C 0.38484 0.52697 0.76608 0.0
C1724 C 0.4024 0.53346 0.75002 0.0
C1725 C 0.37298 0.53349 0.73719 0.0
C1726 C 0.32539 0.52675 0.74031 0.0
C1727 C 0.30635 0.51957 0.75564 0.0
C1728 C 0.2533 0.51276 0.75529 0.0
C1729 C 0.21478 0.46009 0.76127 0.0
C1730 C 0.25109 0.55383 0.76527 0.0
C1731 C 0.24643 0.51859 0.73739 0.0
C1732 C 0.28876 0.52614 0.72913 0.0
C1733 C 0.29243 0.53172 0.71258 0.0
C1734 C 0.25178 0.52911 0.70408 0.0
C1735 C 0.20761 0.5213 0.71198 0.0
C1736 C 0.20494 0.51629 0.72897 0.0
H1737 H 0.78313 0.24185 0.87006 0.0
H1738 H 0.6638 0.15278 0.90365 0.0
H1739 H 0.71649 0.20539 0.92579 0.0
H1740 H 0.88852 0.26584 0.89729 0.0
H1741 H 0.9283 0.32935 0.89052 0.0
H1742 H 0.88228 0.28304 0.87716 0.0
H1743 H 0.84372 0.34016 0.87241 0.0
H1744 H 0.88936 0.38669 0.88579 0.0
H1745 H 0.823 0.36207 0.88926 0.0
H1746 H 0.78149 0.26639 0.94498 0.0
H1747 H 0.85197 0.33459 0.95969 0.0
H1748 H 0.93201 0.39282 0.91503 0.0
C1749 C 0.76793 0.23354 0.88205 0.0
C1750 C 0.71799 0.1927 0.88473 0.0
C1751 C 0.70081 0.18365 0.90085 0.0
C1752 C 0.7309 0.21344 0.91369 0.0
C1753 C 0.77902 0.25346 0.91065 0.0
C1754 C 0.79761 0.26392 0.89523 0.0
C1755 C 0.85055 0.3105 0.89552 0.0
C1756 C 0.88976 0.29636 0.88978 0.0
C1757 C 0.85174 0.35237 0.88513 0.0
C1758 C 0.85805 0.3252 0.91342 0.0
C1759 C 0.81632 0.29063 0.92182 0.0
C1760 C 0.81401 0.29392 0.93845 0.0
C1761 C 0.85459 0.33321 0.94679 0.0
C1762 C 0.8978 0.37055 0.9388 0.0
C1763 C 0.89932 0.36608 0.92168 0.0
H1764 H 0.56675 0.8436 0.11641 0.0
H1765 H 0.60257 0.9677 0.08419 0.0
H1766 H 0.6043 0.91739 0.06154 0.0
H1767 H 0.63834 0.79397 0.09734 0.0
H1768 H 0.59086 0.729 0.09981 0.0
H1769 H 0.59447 0.77572 0.11372 0.0
H1770 H 0.5014 0.74913 0.10805 0.0
H1771 H 0.4971 0.70208 0.09412 0.0
H1772 H 0.48125 0.7488 0.08776 0.0
H1773 H 0.60164 0.85485 0.04216 0.0
H1774 H 0.59353 0.78289 0.0268 0.0
H1775 H 0.55532 0.69428 0.07034 0.0
C1776 C 0.57503 0.86006 0.10459 0.0
C1777 C 0.58488 0.90996 0.10223 0.0
C1778 C 0.5949 0.92977 0.08646 0.0
C1779 C 0.59604 0.90142 0.07343 0.0
C1780 C 0.58569 0.8524 0.0761 0.0
C1781 C 0.57476 0.83148 0.0912 0.0
C1782 C 0.56223 0.77677 0.0904 0.0
C1783 C 0.59867 0.76836 0.10093 0.0
C1784 C 0.50723 0.74211 0.09538 0.0
C1785 C 0.56963 0.77086 0.07257 0.0
C1786 C 0.5828 0.81519 0.06465 0.0
C1787 C 0.59115 0.81985 0.04821 0.0
C1788 C 0.5862 0.77842 0.03954 0.0
C1789 C 0.57323 0.73228 0.04715 0.0
C1790 C 0.56456 0.72856 0.064 0.0
H1791 H 0.75581 0.61161 0.25165 0.0
H1792 H 0.7424 0.4958 0.28426 0.0
H1793 H 0.80451 0.48526 0.26823 0.0
H1794 H 0.77259 0.56065 0.21444 0.0
H1795 H 0.82096 0.61998 0.20678 0.0
H1796 H 0.77425 0.61821 0.22032 0.0
H1797 H 0.84539 0.68046 0.23913 0.0
H1798 H 0.89219 0.68172 0.2257 0.0
H1799 H 0.89165 0.66499 0.24638 0.0
H1800 H 0.86945 0.48875 0.24967 0.0
H1801 H 0.93197 0.50356 0.22918 0.0
H1802 H 0.90377 0.61524 0.20699 0.0
C1803 C 0.76514 0.58339 0.25524 0.0
C1804 C 0.74334 0.5536 0.26914 0.0
C1805 C 0.7583 0.51858 0.27368 0.0
C1806 C 0.79357 0.51243 0.26463 0.0
C1807 C 0.81448 0.54222 0.25111 0.0
C1808 C 0.80119 0.57728 0.24638 0.0
C1809 C 0.83189 0.60604 0.23174 0.0
C1810 C 0.79783 0.60087 0.21748 0.0
C1811 C 0.86735 0.6616 0.23599 0.0
C1812 C 0.86191 0.57935 0.22848 0.0
C1813 C 0.85198 0.54365 0.24009 0.0
C1814 C 0.87675 0.51591 0.24033 0.0
C1815 C 0.91213 0.52423 0.22836 0.0
C1816 C 0.92193 0.55889 0.21579 0.0
C1817 C 0.89644 0.58723 0.21604 0.0
H1818 H 0.87173 0.39463 0.4275 0.0
H1819 H 0.85748 0.42848 0.37797 0.0
H1820 H 0.76578 0.37338 0.37978 0.0
H1821 H 0.79915 0.27915 0.42697 0.0
H1822 H 0.76969 0.27025 0.44627 0.0
H1823 H 0.83031 0.32345 0.443 0.0
H1824 H 0.7979 0.3837 0.45137 0.0
H1825 H 0.73663 0.33027 0.45506 0.0
H1826 H 0.74296 0.37945 0.44181 0.0
H1827 H 0.68828 0.29665 0.38385 0.0
H1828 H 0.63392 0.20952 0.38963 0.0
H1829 H 0.68452 0.23687 0.43932 0.0
C1830 C 0.84947 0.3935 0.41729 0.0
C1831 C 0.87199 0.41603 0.40259 0.0
C1832 C 0.84121 0.41083 0.38929 0.0
C1833 C 0.78899 0.38059 0.39032 0.0
C1834 C 0.76823 0.35769 0.40491 0.0
C1835 C 0.79754 0.3651 0.41834 0.0
C1836 C 0.76814 0.32945 0.43167 0.0
C1837 C 0.79329 0.2988 0.43725 0.0
C1838 C 0.76097 0.35743 0.4458 0.0
C1839 C 0.71906 0.29719 0.42301 0.0
C1840 C 0.71967 0.31447 0.40768 0.0
C1841 C 0.68615 0.28365 0.39601 0.0
C1842 C 0.65504 0.23298 0.39956 0.0
C1843 C 0.65696 0.21356 0.41488 0.0
C1844 C 0.68416 0.24825 0.42716 0.0
H1845 H 0.49625 0.84048 0.5989 0.0
H1846 H 0.43939 0.82479 0.55038 0.0
H1847 H 0.40684 0.73375 0.55179 0.0
H1848 H 0.54582 0.77227 0.59529 0.0
H1849 H 0.53161 0.74255 0.61463 0.0
H1850 H 0.53448 0.8018 0.61227 0.0
H1851 H 0.44431 0.76577 0.62283 0.0
H1852 H 0.44102 0.70584 0.62586 0.0
H1853 H 0.39331 0.70951 0.61414 0.0
H1854 H 0.41093 0.65781 0.5546 0.0
H1855 H 0.44576 0.60378 0.55884 0.0
H1856 H 0.48046 0.65686 0.60825 0.0
C1857 C 0.47385 0.8178 0.58894 0.0
C1858 C 0.47048 0.83976 0.57451 0.0
C1859 C 0.44297 0.80873 0.56149 0.0
C1860 C 0.42367 0.75689 0.56228 0.0
C1861 C 0.43062 0.73678 0.57636 0.0
C1862 C 0.45389 0.76618 0.58965 0.0
C1863 C 0.46587 0.73798 0.60209 0.0
C1864 C 0.52274 0.76524 0.60626 0.0
C1865 C 0.43412 0.72913 0.61713 0.0
C1866 C 0.44968 0.68961 0.59312 0.0
C1867 C 0.42916 0.68948 0.57837 0.0
C1868 C 0.42487 0.65619 0.56637 0.0
C1869 C 0.44575 0.62534 0.56902 0.0
C1870 C 0.47038 0.62748 0.58374 0.0
C1871 C 0.46587 0.65555 0.59643 0.0
H1872 H 0.64436 0.42885 0.74156 0.0
H1873 H 0.69695 0.54335 0.70485 0.0
H1874 H 0.7752 0.53897 0.70248 0.0
H1875 H 0.74834 0.47041 0.76196 0.0
H1876 H 0.74516 0.41149 0.76663 0.0
H1877 H 0.68832 0.41333 0.76277 0.0
H1878 H 0.664 0.34719 0.74009 0.0
H1879 H 0.72048 0.34411 0.74411 0.0
H1880 H 0.7081 0.35794 0.72421 0.0
H1881 H 0.85097 0.53754 0.70874 0.0
H1882 H 0.92108 0.53277 0.72078 0.0
H1883 H 0.81859 0.41438 0.75265 0.0
C1884 C 0.67084 0.45051 0.7323 0.0
C1885 C 0.66457 0.48523 0.72298 0.0
C1886 C 0.70102 0.51545 0.71164 0.0
C1887 C 0.74535 0.51328 0.71029 0.0
C1888 C 0.75124 0.47988 0.72013 0.0
C1889 C 0.71465 0.44823 0.73069 0.0
C1890 C 0.7327 0.42032 0.74125 0.0
C1891 C 0.72838 0.42952 0.7592 0.0
C1892 C 0.70465 0.36403 0.73718 0.0
C1893 C 0.78666 0.44464 0.73594 0.0
C1894 C 0.796 0.47805 0.72353 0.0
C1895 C 0.84389 0.50978 0.71785 0.0
C1896 C 0.88335 0.50662 0.72481 0.0
C1897 C 0.87453 0.47133 0.73716 0.0
C1898 C 0.82571 0.44023 0.74289 0.0
H1899 H 0.44591 0.84666 0.88813 0.0
H1900 H 0.48599 0.84824 0.93806 0.0
H1901 H 0.42972 0.75735 0.93911 0.0
H1902 H 0.33451 0.78856 0.89108 0.0
H1903 H 0.31531 0.74929 0.87348 0.0
H1904 H 0.37417 0.80598 0.87358 0.0
H1905 H 0.42202 0.75859 0.86702 0.0
H1906 H 0.36256 0.70088 0.86613 0.0
H1907 H 0.4123 0.70547 0.87891 0.0
H1908 H 0.34558 0.69151 0.93898 0.0
H1909 H 0.25574 0.65033 0.93595 0.0
H1910 H 0.27301 0.66895 0.8843 0.0
C1911 C 0.44628 0.82804 0.89901 0.0
C1912 C 0.46899 0.85516 0.91319 0.0
C1913 C 0.46732 0.82859 0.92717 0.0
C1914 C 0.43598 0.77666 0.9278 0.0
C1915 C 0.40848 0.75188 0.91415 0.0
C1916 C 0.41532 0.77633 0.89969 0.0
C1917 C 0.37392 0.74507 0.88786 0.0
C1918 C 0.34803 0.77395 0.88118 0.0
C1919 C 0.39392 0.72635 0.87418 0.0
C1920 C 0.33933 0.70244 0.89864 0.0
C1921 C 0.36003 0.70696 0.91374 0.0
C1922 C 0.32979 0.68475 0.92704 0.0
C1923 C 0.27779 0.66108 0.92511 0.0
C1924 C 0.25606 0.65675 0.90974 0.0
C1925 C 0.28778 0.6729 0.89629 0.0
H1926 H 0.66697 0.27198 0.05777 0.0
H1927 H 0.64596 0.22259 0.1074 0.0
H1928 H 0.66735 0.30517 0.11613 0.0
H1929 H 0.74405 0.41665 0.06442 0.0
H1930 H 0.70374 0.42426 0.05027 0.0
H1931 H 0.71965 0.37537 0.04733 0.0
H1932 H 0.62468 0.30897 0.04581 0.0
H1933 H 0.6092 0.35747 0.0485 0.0
H1934 H 0.58396 0.30488 0.06204 0.0
H1935 H 0.65431 0.37467 0.12013 0.0
H1936 H 0.61097 0.42432 0.11827 0.0
H1937 H 0.61722 0.41796 0.06647 0.0
C1938 C 0.6677 0.27849 0.0705 0.0
C1939 C 0.65267 0.23913 0.08156 0.0
C1940 C 0.6571 0.25074 0.09821 0.0
C1941 C 0.6694 0.29851 0.1035 0.0
C1942 C 0.67541 0.33397 0.09215 0.0
C1943 C 0.6748 0.32453 0.07586 0.0
C1944 C 0.66419 0.35968 0.06613 0.0
C1945 C 0.71072 0.3962 0.05648 0.0
C1946 C 0.61777 0.33101 0.05503 0.0
C1947 C 0.65404 0.38637 0.07955 0.0
C1948 C 0.66345 0.37337 0.09443 0.0
C1949 C 0.64859 0.38685 0.10856 0.0
C1950 C 0.62304 0.41401 0.10742 0.0
C1951 C 0.61147 0.42571 0.09226 0.0
C1952 C 0.62782 0.4121 0.07828 0.0
H1953 H 0.42639 0.54661 0.24245 0.0
H1954 H 0.51766 0.69484 0.22216 0.0
H1955 H 0.44659 0.71206 0.22599 0.0
H1956 H 0.31355 0.52285 0.22415 0.0
H1957 H 0.27487 0.48746 0.24078 0.0
H1958 H 0.33354 0.48888 0.23704 0.0
H1959 H 0.36393 0.52173 0.26596 0.0
H1960 H 0.30515 0.52 0.26986 0.0
H1961 H 0.36374 0.57755 0.2728 0.0
H1962 H 0.36255 0.70834 0.23037 0.0
H1963 H 0.27365 0.68537 0.23561 0.0
H1964 H 0.24453 0.54204 0.25458 0.0
C1965 C 0.43173 0.5831 0.23906 0.0
C1966 C 0.47693 0.61995 0.23227 0.0
C1967 C 0.48274 0.66661 0.22745 0.0
C1968 C 0.443 0.67659 0.22967 0.0
C1969 C 0.39881 0.63928 0.23665 0.0
C1970 C 0.39329 0.59355 0.24127 0.0
C1971 C 0.34182 0.55829 0.24763 0.0
C1972 C 0.31434 0.51164 0.23676 0.0
C1973 C 0.34384 0.54357 0.2651 0.0
C1974 C 0.3192 0.59175 0.24633 0.0
C1975 C 0.35198 0.63801 0.23974 0.0
C1976 C 0.33699 0.67294 0.23597 0.0
C1977 C 0.28694 0.65991 0.23906 0.0
C1978 C 0.25403 0.61317 0.24617 0.0
C1979 C 0.27026 0.57897 0.24986 0.0
loop_
_geom_bond_atom_site_label_1
_geom_bond_atom_site_label_2
_geom_bond_distance
_geom_bond_site_symmetry_2
_ccdc_geom_bond_type
Eu0 N31 2.657 . S
Eu0 N38 2.609 1_545 S
Eu0 O44 2.558 . S
Eu0 O45 2.612 . S
Eu0 O47 2.339 . S
Eu0 O48 2.563 . S
Eu0 O49 2.419 . S
Eu0 O51 2.380 1_545 S
Eu0 O52 2.432 1_545 S
Eu0 C64 2.848 . S
C1 C4 1.429 . S
C1 C5 1.411 . S
C1 N8 1.377 . S
C2 C4 1.420 . S
C2 C6 1.423 . S
C2 C14 1.392 . S
C3 C5 1.420 . S
C3 C6 1.351 . S
C3 H26 0.931 . S
C4 C1 1.429 . S
C4 C2 1.420 . S
C4 N12 1.362 1_545 S
C5 C1 1.411 . S
C5 C3 1.420 . S
C5 C10 1.395 . S
C6 C2 1.423 . S
C6 C3 1.351 . S
C6 H18 0.930 . S
C7 C9 1.400 . S
C7 C10 1.386 . S
C7 H19 0.930 . S
N8 C1 1.377 . S
N8 C9 1.321 . S
N8 Eu11 2.609 1_545 S
C9 C7 1.400 . S
C9 N8 1.321 . S
C9 H16 0.930 . S
C10 C5 1.395 . S
C10 C7 1.386 . S
C10 H29 0.930 . S
Eu11 N8 2.609 1_565 S
Eu11 N12 2.657 . S
Eu11 O45 2.380 1_565 S
Eu11 O46 2.432 1_565 S
Eu11 O50 2.558 . S
Eu11 O51 2.612 . S
Eu11 O53 2.339 . S
Eu11 O54 2.563 . S
Eu11 O55 2.419 . S
Eu11 C75 2.848 . S
N12 C4 1.362 1_565 S
N12 Eu11 2.657 . S
N12 C13 1.334 . S
C13 N12 1.334 . S
C13 C15 1.413 . S
C13 H20 0.929 . S
C14 C2 1.392 . S
C14 C15 1.367 1_545 S
C14 H22 0.930 . S
C15 C13 1.413 . S
C15 C14 1.367 1_565 S
C15 H17 0.930 . S
H16 C9 0.930 . S
H17 C15 0.930 . S
H18 C6 0.930 . S
H19 C7 0.930 . S
H20 C13 0.929 . S
H21 C35 0.930 . S
H22 C14 0.930 . S
H23 C41 0.930 . S
H24 C32 0.929 . S
H25 C39 0.930 . S
H26 C3 0.931 . S
H27 C33 0.930 . S
H28 C66 0.930 . S
H29 C10 0.930 . S
H30 C65 0.931 . S
N31 Eu0 2.657 . S
N31 C32 1.334 . S
N31 C36 1.362 1_545 S
C32 H24 0.929 . S
C32 N31 1.334 . S
C32 C35 1.413 . S
C33 H27 0.930 . S
C33 C34 1.392 . S
C33 C35 1.367 1_565 S
C34 C33 1.392 . S
C34 C36 1.420 . S
C34 C66 1.423 . S
C35 H21 0.930 . S
C35 C32 1.413 . S
C35 C33 1.367 1_545 S
C36 N31 1.362 1_565 S
C36 C34 1.420 . S
C36 C40 1.429 . S
H37 C42 0.930 . S
N38 Eu0 2.609 1_565 S
N38 C40 1.377 . S
N38 C41 1.321 . S
C39 H25 0.930 . S
C39 C41 1.400 . S
C39 C42 1.386 . S
C40 C36 1.429 . S
C40 N38 1.377 . S
C40 C43 1.411 . S
C41 H23 0.930 . S
C41 N38 1.321 . S
C41 C39 1.400 . S
C42 H37 0.930 . S
C42 C39 1.386 . S
C42 C43 1.395 . S
C43 C40 1.411 . S
C43 C42 1.395 . S
C43 C65 1.420 . S
O44 Eu0 2.558 . S
O44 C64 1.257 . S
O45 Eu0 2.612 . S
O45 Eu11 2.380 1_545 S
O45 C56 1.276 . S
O46 Eu11 2.432 1_545 S
O46 C63 1.264 . S
O47 Eu0 2.339 . S
O47 C63 1.254 . S
O48 Eu0 2.563 . S
O48 C56 1.235 . S
O49 Eu0 2.419 . S
O49 C64 1.249 . S
O50 Eu11 2.558 . S
O50 C75 1.257 . S
O51 Eu0 2.380 1_565 S
O51 Eu11 2.612 . S
O51 C67 1.276 . S
O52 Eu0 2.432 1_565 S
O52 C74 1.264 . S
O53 Eu11 2.339 . S
O53 C74 1.254 . S
O54 Eu11 2.563 . S
O54 C67 1.235 . S
O55 Eu11 2.419 . S
O55 C75 1.249 . S
C56 O45 1.276 . S
C56 O48 1.235 . S
C57 C59 1.393 . S
C57 C61 1.395 . S
C57 C64 1.492 . S
C58 C59 1.392 . S
C58 C60 1.386 . S
C59 C57 1.393 . S
C59 C58 1.392 . S
C59 H76 0.930 . S
C60 C58 1.386 . S
C60 C62 1.395 . S
C60 H77 0.930 . S
C61 C57 1.395 . S
C61 C62 1.379 . S
C61 H78 0.930 . S
C62 C60 1.395 . S
C62 C61 1.379 . S
C62 H79 0.930 . S
C63 O46 1.264 . S
C63 O47 1.254 . S
C64 Eu0 2.848 . S
C64 O44 1.257 . S
C64 O49 1.249 . S
C64 C57 1.492 . S
C65 H30 0.931 . S
C65 C43 1.420 . S
C65 C66 1.351 . S
C66 H28 0.930 . S
C66 C34 1.423 . S
C66 C65 1.351 . S
C67 O51 1.276 . S
C67 O54 1.235 . S
C68 C69 1.393 . S
C68 C72 1.395 . S
C68 C75 1.492 . S
C69 C68 1.393 . S
C69 C70 1.392 . S
C69 H80 0.930 . S
C70 C69 1.392 . S
C70 C71 1.386 . S
C71 C70 1.386 . S
C71 C73 1.395 . S
C71 H81 0.930 . S
C72 C68 1.395 . S
C72 C73 1.379 . S
C72 H82 0.930 . S
C73 C71 1.395 . S
C73 C72 1.379 . S
C73 H83 0.930 . S
C74 O52 1.264 . S
C74 O53 1.254 . S
C75 Eu11 2.848 . S
C75 O50 1.257 . S
C75 O55 1.249 . S
C75 C68 1.492 . S
H76 C59 0.930 . S
H77 C60 0.930 . S
H78 C61 0.930 . S
H79 C62 0.930 . S
H80 C69 0.930 . S
H81 C71 0.930 . S
H82 C72 0.930 . S
H83 C73 0.930 . S
Eu84 N115 2.657 . S
Eu84 N122 2.609 . S
Eu84 O128 2.558 . S
Eu84 O129 2.612 . S
Eu84 O131 2.339 . S
Eu84 O132 2.563 . S
Eu84 O133 2.419 . S
Eu84 O135 2.380 . S
Eu84 O136 2.432 . S
Eu84 C148 2.848 . S
C85 C88 1.429 . S
C85 C89 1.411 . S
C85 N92 1.377 . S
C86 C88 1.420 . S
C86 C90 1.423 . S
C86 C98 1.392 . S
C87 C89 1.420 . S
C87 C90 1.351 . S
C87 H110 0.931 . S
C88 C85 1.429 . S
C88 C86 1.420 . S
C88 N96 1.362 . S
C89 C85 1.411 . S
C89 C87 1.420 . S
C89 C94 1.395 . S
C90 C86 1.423 . S
C90 C87 1.351 . S
C90 H102 0.930 . S
C91 C93 1.400 . S
C91 C94 1.386 . S
C91 H103 0.930 . S
N92 C85 1.377 . S
N92 C93 1.321 . S
N92 Eu95 2.609 . S
C93 C91 1.400 . S
C93 N92 1.321 . S
C93 H100 0.930 . S
C94 C89 1.395 . S
C94 C91 1.386 . S
C94 H113 0.930 . S
Eu95 N92 2.609 . S
Eu95 N96 2.657 . S
Eu95 O129 2.380 . S
Eu95 O130 2.432 . S
Eu95 O134 2.558 . S
Eu95 O135 2.612 . S
Eu95 O137 2.339 . S
Eu95 O138 2.563 . S
Eu95 O139 2.419 . S
Eu95 C159 2.848 . S
N96 C88 1.362 . S
N96 Eu95 2.657 . S
N96 C97 1.334 . S
C97 N96 1.334 . S
C97 C99 1.413 . S
C97 H104 0.929 . S
C98 C86 1.392 . S
C98 C99 1.367 . S
C98 H106 0.930 . S
C99 C97 1.413 . S
C99 C98 1.367 . S
C99 H101 0.930 . S
H100 C93 0.930 . S
H101 C99 0.930 . S
H102 C90 0.930 . S
H103 C91 0.930 . S
H104 C97 0.929 . S
H105 C119 0.930 . S
H106 C98 0.930 . S
H107 C125 0.930 . S
H108 C116 0.929 . S
H109 C123 0.930 . S
H110 C87 0.931 . S
H111 C117 0.930 . S
H112 C150 0.930 . S
H113 C94 0.930 . S
H114 C149 0.931 . S
N115 Eu84 2.657 . S
N115 C116 1.334 . S
N115 C120 1.362 . S
C116 H108 0.929 . S
C116 N115 1.334 . S
C116 C119 1.413 . S
C117 H111 0.930 . S
C117 C118 1.392 . S
C117 C119 1.367 . S
C118 C117 1.392 . S
C118 C120 1.420 . S
C118 C150 1.423 . S
C119 H105 0.930 . S
C119 C116 1.413 . S
C119 C117 1.367 . S
C120 N115 1.362 . S
C120 C118 1.420 . S
C120 C124 1.429 . S
H121 C126 0.930 . S
N122 Eu84 2.609 . S
N122 C124 1.377 . S
N122 C125 1.321 . S
C123 H109 0.930 . S
C123 C125 1.400 . S
C123 C126 1.386 . S
C124 C120 1.429 . S
C124 N122 1.377 . S
C124 C127 1.411 . S
C125 H107 0.930 . S
C125 N122 1.321 . S
C125 C123 1.400 . S
C126 H121 0.930 . S
C126 C123 1.386 . S
C126 C127 1.395 . S
C127 C124 1.411 . S
C127 C126 1.395 . S
C127 C149 1.420 . S
O128 Eu84 2.558 . S
O128 C148 1.257 . S
O129 Eu84 2.612 . S
O129 Eu95 2.380 . S
O129 C140 1.276 . S
O130 Eu95 2.432 . S
O130 C147 1.264 . S
O131 Eu84 2.339 . S
O131 C147 1.254 . S
O132 Eu84 2.563 . S
O132 C140 1.235 . S
O133 Eu84 2.419 . S
O133 C148 1.249 . S
O134 Eu95 2.558 . S
O134 C159 1.257 . S
O135 Eu84 2.380 . S
O135 Eu95 2.612 . S
O135 C151 1.276 . S
O136 Eu84 2.432 . S
O136 C158 1.264 . S
O137 Eu95 2.339 . S
O137 C158 1.254 . S
O138 Eu95 2.563 . S
O138 C151 1.235 . S
O139 Eu95 2.419 . S
O139 C159 1.249 . S
C140 O129 1.276 . S
C140 O132 1.235 . S
C141 C143 1.393 . S
C141 C145 1.395 . S
C141 C148 1.492 . S
C142 C143 1.392 . S
C142 C144 1.386 . S
C143 C141 1.393 . S
C143 C142 1.392 . S
C143 H160 0.930 . S
C144 C142 1.386 . S
C144 C146 1.395 . S
C144 H161 0.930 . S
C145 C141 1.395 . S
C145 C146 1.379 . S
C145 H162 0.930 . S
C146 C144 1.395 . S
C146 C145 1.379 . S
C146 H163 0.930 . S
C147 O130 1.264 . S
C147 O131 1.254 . S
C148 Eu84 2.848 . S
C148 O128 1.257 . S
C148 O133 1.249 . S
C148 C141 1.492 . S
C149 H114 0.931 . S
C149 C127 1.420 . S
C149 C150 1.351 . S
C150 H112 0.930 . S
C150 C118 1.423 . S
C150 C149 1.351 . S
C151 O135 1.276 . S
C151 O138 1.235 . S
C152 C153 1.393 . S
C152 C156 1.395 . S
C152 C159 1.492 . S
C153 C152 1.393 . S
C153 C154 1.392 . S
C153 H164 0.930 . S
C154 C153 1.392 . S
C154 C155 1.386 . S
C155 C154 1.386 . S
C155 C157 1.395 . S
C155 H165 0.930 . S
C156 C152 1.395 . S
C156 C157 1.379 . S
C156 H166 0.930 . S
C157 C155 1.395 . S
C157 C156 1.379 . S
C157 H167 0.930 . S
C158 O136 1.264 . S
C158 O137 1.254 . S
C159 Eu95 2.848 . S
C159 O134 1.257 . S
C159 O139 1.249 . S
C159 C152 1.492 . S
H160 C143 0.930 . S
H161 C144 0.930 . S
H162 C145 0.930 . S
H163 C146 0.930 . S
H164 C153 0.930 . S
H165 C155 0.930 . S
H166 C156 0.930 . S
H167 C157 0.930 . S
Eu168 N199 2.657 . S
Eu168 N206 2.609 1_655 S
Eu168 O212 2.558 . S
Eu168 O213 2.612 . S
Eu168 O215 2.339 . S
Eu168 O216 2.563 . S
Eu168 O217 2.419 . S
Eu168 O219 2.380 1_655 S
Eu168 O220 2.432 1_655 S
Eu168 C232 2.848 . S
C169 C172 1.429 . S
C169 C173 1.411 . S
C169 N176 1.377 . S
C170 C172 1.420 . S
C170 C174 1.423 . S
C170 C182 1.392 1_655 S
C171 C173 1.420 . S
C171 C174 1.351 . S
C171 H194 0.931 . S
C172 C169 1.429 . S
C172 C170 1.420 . S
C172 N180 1.362 1_655 S
C173 C169 1.411 . S
C173 C171 1.420 . S
C173 C178 1.395 . S
C174 C170 1.423 . S
C174 C171 1.351 . S
C174 H186 0.930 . S
C175 C177 1.400 . S
C175 C178 1.386 . S
C175 H187 0.930 . S
N176 C169 1.377 . S
N176 C177 1.321 . S
N176 Eu179 2.609 1_655 S
C177 C175 1.400 . S
C177 N176 1.321 . S
C177 H184 0.930 . S
C178 C173 1.395 . S
C178 C175 1.386 . S
C178 H197 0.930 . S
Eu179 N176 2.609 1_455 S
Eu179 N180 2.657 . S
Eu179 O213 2.380 1_455 S
Eu179 O214 2.432 1_455 S
Eu179 O218 2.558 . S
Eu179 O219 2.612 . S
Eu179 O221 2.339 . S
Eu179 O222 2.563 . S
Eu179 O223 2.419 . S
Eu179 C243 2.848 . S
N180 C172 1.362 1_455 S
N180 Eu179 2.657 . S
N180 C181 1.334 . S
C181 N180 1.334 . S
C181 C183 1.413 . S
C181 H188 0.929 . S
C182 C170 1.392 1_455 S
C182 C183 1.367 . S
C182 H190 0.934 1_455 S
C183 C181 1.413 . S
C183 C182 1.367 . S
C183 H185 0.930 . S
H184 C177 0.930 . S
H185 C183 0.930 . S
H186 C174 0.930 . S
H187 C175 0.930 . S
H188 C181 0.929 . S
H189 C203 0.930 . S
H190 C182 0.934 1_655 S
H191 C209 0.930 . S
H192 C200 0.929 . S
H193 C207 0.930 . S
H194 C171 0.931 . S
H195 C201 0.932 1_455 S
H196 C234 0.930 . S
H197 C178 0.930 . S
H198 C233 0.931 . S
N199 Eu168 2.657 . S
N199 C200 1.334 . S
N199 C204 1.362 1_655 S
C200 H192 0.929 . S
C200 N199 1.334 . S
C200 C203 1.413 . S
C201 H195 0.932 1_655 S
C201 C202 1.392 1_655 S
C201 C203 1.367 . S
C202 C201 1.392 1_455 S
C202 C204 1.420 . S
C202 C234 1.423 . S
C203 H189 0.930 . S
C203 C200 1.413 . S
C203 C201 1.367 . S
C204 N199 1.362 1_455 S
C204 C202 1.420 . S
C204 C208 1.429 . S
H205 C210 0.930 . S
N206 Eu168 2.609 1_455 S
N206 C208 1.377 . S
N206 C209 1.321 . S
C207 H193 0.930 . S
C207 C209 1.400 . S
C207 C210 1.386 . S
C208 C204 1.429 . S
C208 N206 1.377 . S
C208 C211 1.411 . S
C209 H191 0.930 . S
C209 N206 1.321 . S
C209 C207 1.400 . S
C210 H205 0.930 . S
C210 C207 1.386 . S
C210 C211 1.395 . S
C211 C208 1.411 . S
C211 C210 1.395 . S
C211 C233 1.420 . S
O212 Eu168 2.558 . S
O212 C232 1.257 . S
O213 Eu168 2.612 . S
O213 Eu179 2.380 1_655 S
O213 C224 1.276 . S
O214 Eu179 2.432 1_655 S
O214 C231 1.264 . S
O215 Eu168 2.339 . S
O215 C231 1.254 . S
O216 Eu168 2.563 . S
O216 C224 1.235 . S
O217 Eu168 2.419 . S
O217 C232 1.249 . S
O218 Eu179 2.558 . S
O218 C243 1.257 . S
O219 Eu168 2.380 1_455 S
O219 Eu179 2.612 . S
O219 C235 1.276 . S
O220 Eu168 2.432 1_455 S
O220 C242 1.264 . S
O221 Eu179 2.339 . S
O221 C242 1.254 . S
O222 Eu179 2.563 . S
O222 C235 1.235 . S
O223 Eu179 2.419 . S
O223 C243 1.249 . S
C224 O213 1.276 . S
C224 O216 1.235 . S
C225 C227 1.393 . S
C225 C229 1.395 . S
C225 C232 1.492 . S
C226 C227 1.392 . S
C226 C228 1.386 . S
C227 C225 1.393 . S
C227 C226 1.392 . S
C227 H244 0.930 . S
C228 C226 1.386 . S
C228 C230 1.395 . S
C228 H245 0.930 . S
C229 C225 1.395 . S
C229 C230 1.379 . S
C229 H246 0.930 . S
C230 C228 1.395 . S
C230 C229 1.379 . S
C230 H247 0.930 . S
C231 O214 1.264 . S
C231 O215 1.254 . S
C232 Eu168 2.848 . S
C232 O212 1.257 . S
C232 O217 1.249 . S
C232 C225 1.492 . S
C233 H198 0.931 . S
C233 C211 1.420 . S
C233 C234 1.351 . S
C234 H196 0.930 . S
C234 C202 1.423 . S
C234 C233 1.351 . S
C235 O219 1.276 . S
C235 O222 1.235 . S
C236 C237 1.393 . S
C236 C240 1.395 . S
C236 C243 1.492 . S
C237 C236 1.393 . S
C237 C238 1.392 . S
C237 H248 0.930 . S
C238 C237 1.392 . S
C238 C239 1.386 . S
C239 C238 1.386 . S
C239 C241 1.395 . S
C239 H249 0.930 . S
C240 C236 1.395 . S
C240 C241 1.379 . S
C240 H250 0.930 . S
C241 C239 1.395 . S
C241 C240 1.379 . S
C241 H251 0.930 . S
C242 O220 1.264 . S
C242 O221 1.254 . S
C243 Eu179 2.848 . S
C243 O218 1.257 . S
C243 O223 1.249 . S
C243 C236 1.492 . S
H244 C227 0.930 . S
H245 C228 0.930 . S
H246 C229 0.930 . S
H247 C230 0.930 . S
H248 C237 0.930 . S
H249 C239 0.930 . S
H250 C240 0.930 . S
H251 C241 0.930 . S
Eu252 N283 2.657 . S
Eu252 N290 2.609 1_565 S
Eu252 O296 2.558 . S
Eu252 O297 2.612 . S
Eu252 O299 2.339 . S
Eu252 O300 2.563 . S
Eu252 O301 2.419 . S
Eu252 O303 2.380 1_565 S
Eu252 O304 2.432 1_565 S
Eu252 C316 2.848 . S
C253 C256 1.429 . S
C253 C257 1.411 . S
C253 N260 1.377 . S
C254 C256 1.420 . S
C254 C258 1.423 . S
C254 C266 1.392 . S
C255 C257 1.420 . S
C255 C258 1.351 . S
C255 H278 0.931 . S
C256 C253 1.429 . S
C256 C254 1.420 . S
C256 N264 1.362 1_565 S
C257 C253 1.411 . S
C257 C255 1.420 . S
C257 C262 1.395 . S
C258 C254 1.423 . S
C258 C255 1.351 . S
C258 H270 0.930 . S
C259 C261 1.400 . S
C259 C262 1.386 . S
C259 H271 0.930 . S
N260 C253 1.377 . S
N260 C261 1.321 . S
N260 Eu263 2.609 1_565 S
C261 C259 1.400 . S
C261 N260 1.321 . S
C261 H268 0.930 . S
C262 C257 1.395 . S
C262 C259 1.386 . S
C262 H281 0.930 . S
Eu263 N260 2.609 1_545 S
Eu263 N264 2.657 . S
Eu263 O297 2.380 1_545 S
Eu263 O298 2.432 1_545 S
Eu263 O302 2.558 . S
Eu263 O303 2.612 . S
Eu263 O305 2.339 . S
Eu263 O306 2.563 . S
Eu263 O307 2.419 . S
Eu263 C327 2.848 . S
N264 C256 1.362 1_545 S
N264 Eu263 2.657 . S
N264 C265 1.334 . S
C265 N264 1.334 . S
C265 C267 1.413 . S
C265 H272 0.929 . S
C266 C254 1.392 . S
C266 C267 1.367 1_565 S
C266 H274 0.930 . S
C267 C265 1.413 . S
C267 C266 1.367 1_545 S
C267 H269 0.930 . S
H268 C261 0.930 . S
H269 C267 0.930 . S
H270 C258 0.930 . S
H271 C259 0.930 . S
H272 C265 0.929 . S
H273 C287 0.930 . S
H274 C266 0.930 . S
H275 C293 0.930 . S
H276 C284 0.929 . S
H277 C291 0.930 . S
H278 C255 0.931 . S
H279 C285 0.930 . S
H280 C318 0.930 . S
H281 C262 0.930 . S
H282 C317 0.931 . S
N283 Eu252 2.657 . S
N283 C284 1.334 . S
N283 C288 1.362 1_565 S
C284 H276 0.929 . S
C284 N283 1.334 . S
C284 C287 1.413 . S
C285 H279 0.930 . S
C285 C286 1.392 . S
C285 C287 1.367 1_545 S
C286 C285 1.392 . S
C286 C288 1.420 . S
C286 C318 1.423 . S
C287 H273 0.930 . S
C287 C284 1.413 . S
C287 C285 1.367 1_565 S
C288 N283 1.362 1_545 S
C288 C286 1.420 . S
C288 C292 1.429 . S
H289 C294 0.930 . S
N290 Eu252 2.609 1_545 S
N290 C292 1.377 . S
N290 C293 1.321 . S
C291 H277 0.930 . S
C291 C293 1.400 . S
C291 C294 1.386 . S
C292 C288 1.429 . S
C292 N290 1.377 . S
C292 C295 1.411 . S
C293 H275 0.930 . S
C293 N290 1.321 . S
C293 C291 1.400 . S
C294 H289 0.930 . S
C294 C291 1.386 . S
C294 C295 1.395 . S
C295 C292 1.411 . S
C295 C294 1.395 . S
C295 C317 1.420 . S
O296 Eu252 2.558 . S
O296 C316 1.257 . S
O297 Eu252 2.612 . S
O297 Eu263 2.380 1_565 S
O297 C308 1.276 . S
O298 Eu263 2.432 1_565 S
O298 C315 1.264 . S
O299 Eu252 2.339 . S
O299 C315 1.254 . S
O300 Eu252 2.563 . S
O300 C308 1.235 . S
O301 Eu252 2.419 . S
O301 C316 1.249 . S
O302 Eu263 2.558 . S
O302 C327 1.257 . S
O303 Eu252 2.380 1_545 S
O303 Eu263 2.612 . S
O303 C319 1.276 . S
O304 Eu252 2.432 1_545 S
O304 C326 1.264 . S
O305 Eu263 2.339 . S
O305 C326 1.254 . S
O306 Eu263 2.563 . S
O306 C319 1.235 . S
O307 Eu263 2.419 . S
O307 C327 1.249 . S
C308 O297 1.276 . S
C308 O300 1.235 . S
C309 C311 1.393 . S
C309 C313 1.395 . S
C309 C316 1.492 . S
C310 C311 1.392 . S
C310 C312 1.386 . S
C311 C309 1.393 . S
C311 C310 1.392 . S
C311 H328 0.930 . S
C312 C310 1.386 . S
C312 C314 1.395 . S
C312 H329 0.930 . S
C313 C309 1.395 . S
C313 C314 1.379 . S
C313 H330 0.930 . S
C314 C312 1.395 . S
C314 C313 1.379 . S
C314 H331 0.930 . S
C315 O298 1.264 . S
C315 O299 1.254 . S
C316 Eu252 2.848 . S
C316 O296 1.257 . S
C316 O301 1.249 . S
C316 C309 1.492 . S
C317 H282 0.931 . S
C317 C295 1.420 . S
C317 C318 1.351 . S
C318 H280 0.930 . S
C318 C286 1.423 . S
C318 C317 1.351 . S
C319 O303 1.276 . S
C319 O306 1.235 . S
C320 C321 1.393 . S
C320 C324 1.395 . S
C320 C327 1.492 . S
C321 C320 1.393 . S
C321 C322 1.392 . S
C321 H332 0.930 . S
C322 C321 1.392 . S
C322 C323 1.386 . S
C323 C322 1.386 . S
C323 C325 1.395 . S
C323 H333 0.930 . S
C324 C320 1.395 . S
C324 C325 1.379 . S
C324 H334 0.930 . S
C325 C323 1.395 . S
C325 C324 1.379 . S
C325 H335 0.930 . S
C326 O304 1.264 . S
C326 O305 1.254 . S
C327 Eu263 2.848 . S
C327 O302 1.257 . S
C327 O307 1.249 . S
C327 C320 1.492 . S
H328 C311 0.930 . S
H329 C312 0.930 . S
H330 C313 0.930 . S
H331 C314 0.930 . S
H332 C321 0.930 . S
H333 C323 0.930 . S
H334 C324 0.930 . S
H335 C325 0.930 . S
Eu336 N367 2.657 . S
Eu336 N374 2.609 . S
Eu336 O380 2.558 . S
Eu336 O381 2.612 . S
Eu336 O383 2.339 . S
Eu336 O384 2.563 . S
Eu336 O385 2.419 . S
Eu336 O387 2.380 . S
Eu336 O388 2.432 . S
Eu336 C400 2.848 . S
C337 C340 1.429 . S
C337 C341 1.411 . S
C337 N344 1.377 . S
C338 C340 1.420 . S
C338 C342 1.423 . S
C338 C350 1.392 . S
C339 C341 1.420 . S
C339 C342 1.351 . S
C339 H362 0.931 . S
C340 C337 1.429 . S
C340 C338 1.420 . S
C340 N348 1.362 . S
C341 C337 1.411 . S
C341 C339 1.420 . S
C341 C346 1.395 1_554 S
C342 C338 1.423 . S
C342 C339 1.351 . S
C342 H354 0.930 . S
C343 C345 1.400 . S
C343 C346 1.386 . S
C343 H355 0.930 . S
N344 C337 1.377 . S
N344 C345 1.321 1_554 S
N344 Eu347 2.609 . S
C345 C343 1.400 . S
C345 N344 1.321 1_556 S
C345 H352 0.930 . S
C346 C341 1.395 1_556 S
C346 C343 1.386 . S
C346 H365 0.930 . S
Eu347 N344 2.609 . S
Eu347 N348 2.657 . S
Eu347 O381 2.380 . S
Eu347 O382 2.432 . S
Eu347 O386 2.558 1_554 S
Eu347 O387 2.612 . S
Eu347 O389 2.339 . S
Eu347 O390 2.563 . S
Eu347 O391 2.419 . S
Eu347 C411 2.848 1_554 S
N348 C340 1.362 . S
N348 Eu347 2.657 . S
N348 C349 1.334 . S
C349 N348 1.334 . S
C349 C351 1.413 . S
C349 H356 0.929 . S
C350 C338 1.392 . S
C350 C351 1.367 . S
C350 H358 0.930 . S
C351 C349 1.413 . S
C351 C350 1.367 . S
C351 H353 0.930 . S
H352 C345 0.930 . S
H353 C351 0.930 . S
H354 C342 0.930 . S
H355 C343 0.930 . S
H356 C349 0.929 . S
H357 C371 0.930 1_556 S
H358 C350 0.930 . S
H359 C377 0.930 . S
H360 C368 0.929 . S
H361 C375 0.930 . S
H362 C339 0.931 . S
H363 C369 0.930 . S
H364 C402 0.930 . S
H365 C346 0.930 . S
H366 C401 0.931 . S
N367 Eu336 2.657 . S
N367 C368 1.334 . S
N367 C372 1.362 . S
C368 H360 0.929 . S
C368 N367 1.334 . S
C368 C371 1.413 . S
C369 H363 0.930 . S
C369 C370 1.392 . S
C369 C371 1.367 . S
C370 C369 1.392 . S
C370 C372 1.420 . S
C370 C402 1.423 . S
C371 H357 0.930 1_554 S
C371 C368 1.413 . S
C371 C369 1.367 . S
C372 N367 1.362 . S
C372 C370 1.420 . S
C372 C376 1.429 . S
H373 C378 0.930 . S
N374 Eu336 2.609 . S
N374 C376 1.377 . S
N374 C377 1.321 . S
C375 H361 0.930 . S
C375 C377 1.400 . S
C375 C378 1.386 . S
C376 C372 1.429 . S
C376 N374 1.377 . S
C376 C379 1.411 . S
C377 H359 0.930 . S
C377 N374 1.321 . S
C377 C375 1.400 . S
C378 H373 0.930 . S
C378 C375 1.386 . S
C378 C379 1.395 . S
C379 C376 1.411 . S
C379 C378 1.395 . S
C379 C401 1.420 . S
O380 Eu336 2.558 . S
O380 C400 1.257 . S
O381 Eu336 2.612 . S
O381 Eu347 2.380 . S
O381 C392 1.276 . S
O382 Eu347 2.432 . S
O382 C399 1.264 . S
O383 Eu336 2.339 . S
O383 C399 1.254 . S
O384 Eu336 2.563 . S
O384 C392 1.235 . S
O385 Eu336 2.419 . S
O385 C400 1.249 . S
O386 Eu347 2.558 1_556 S
O386 C411 1.257 . S
O387 Eu336 2.380 . S
O387 Eu347 2.612 . S
O387 C403 1.276 . S
O388 Eu336 2.432 . S
O388 C410 1.264 . S
O389 Eu347 2.339 . S
O389 C410 1.254 . S
O390 Eu347 2.563 . S
O390 C403 1.235 . S
O391 Eu347 2.419 . S
O391 C411 1.249 1_554 S
C392 O381 1.276 . S
C392 O384 1.235 . S
C393 C395 1.393 . S
C393 C397 1.395 . S
C393 C400 1.492 . S
C394 C395 1.392 . S
C394 C396 1.386 . S
C395 C393 1.393 . S
C395 C394 1.392 . S
C395 H412 0.930 . S
C396 C394 1.386 . S
C396 C398 1.395 . S
C396 H413 0.930 . S
C397 C393 1.395 . S
C397 C398 1.379 . S
C397 H414 0.930 . S
C398 C396 1.395 . S
C398 C397 1.379 . S
C398 H415 0.930 . S
C399 O382 1.264 . S
C399 O383 1.254 . S
C400 Eu336 2.848 . S
C400 O380 1.257 . S
C400 O385 1.249 . S
C400 C393 1.492 . S
C401 H366 0.931 . S
C401 C379 1.420 . S
C401 C402 1.351 . S
C402 H364 0.930 . S
C402 C370 1.423 . S
C402 C401 1.351 . S
C403 O387 1.276 . S
C403 O390 1.235 . S
C404 C405 1.393 . S
C404 C408 1.395 . S
C404 C411 1.492 . S
C405 C404 1.393 . S
C405 C406 1.392 . S
C405 H416 0.930 . S
C406 C405 1.392 . S
C406 C407 1.386 . S
C407 C406 1.386 . S
C407 C409 1.395 . S
C407 H417 0.930 . S
C408 C404 1.395 . S
C408 C409 1.379 . S
C408 H418 0.930 . S
C409 C407 1.395 . S
C409 C408 1.379 . S
C409 H419 0.930 . S
C410 O388 1.264 . S
C410 O389 1.254 . S
C411 Eu347 2.848 1_556 S
C411 O386 1.257 . S
C411 O391 1.249 1_556 S
C411 C404 1.492 . S
H412 C395 0.930 . S
H413 C396 0.930 . S
H414 C397 0.930 . S
H415 C398 0.930 . S
H416 C405 0.930 . S
H417 C407 0.930 . S
H418 C408 0.930 . S
H419 C409 0.930 . S
Eu420 N451 2.657 . S
Eu420 N458 2.609 1_455 S
Eu420 O464 2.558 . S
Eu420 O465 2.612 . S
Eu420 O467 2.339 . S
Eu420 O468 2.563 . S
Eu420 O469 2.419 . S
Eu420 O471 2.380 1_455 S
Eu420 O472 2.432 1_455 S
Eu420 C484 2.848 . S
C421 C424 1.429 . S
C421 C425 1.411 . S
C421 N428 1.377 . S
C422 C424 1.420 . S
C422 C426 1.423 . S
C422 C434 1.392 1_455 S
C423 C425 1.420 . S
C423 C426 1.351 . S
C423 H446 0.931 . S
C424 C421 1.429 . S
C424 C422 1.420 . S
C424 N432 1.362 1_455 S
C425 C421 1.411 . S
C425 C423 1.420 . S
C425 C430 1.395 . S
C426 C422 1.423 . S
C426 C423 1.351 . S
C426 H438 0.930 . S
C427 C429 1.400 . S
C427 C430 1.386 . S
C427 H439 0.930 . S
N428 C421 1.377 . S
N428 C429 1.321 . S
N428 Eu431 2.609 1_455 S
C429 C427 1.400 . S
C429 N428 1.321 . S
C429 H436 0.930 . S
C430 C425 1.395 . S
C430 C427 1.386 . S
C430 H449 0.930 . S
Eu431 N428 2.609 1_655 S
Eu431 N432 2.657 . S
Eu431 O465 2.380 1_655 S
Eu431 O466 2.432 1_655 S
Eu431 O470 2.558 . S
Eu431 O471 2.612 . S
Eu431 O473 2.339 . S
Eu431 O474 2.563 . S
Eu431 O475 2.419 . S
Eu431 C495 2.848 . S
N432 C424 1.362 1_655 S
N432 Eu431 2.657 . S
N432 C433 1.334 . S
C433 N432 1.334 . S
C433 C435 1.413 . S
C433 H440 0.929 . S
C434 C422 1.392 1_655 S
C434 C435 1.367 . S
C434 H442 0.934 1_655 S
C435 C433 1.413 . S
C435 C434 1.367 . S
C435 H437 0.930 . S
H436 C429 0.930 . S
H437 C435 0.930 . S
H438 C426 0.930 . S
H439 C427 0.930 . S
H440 C433 0.929 . S
H441 C455 0.930 . S
H442 C434 0.934 1_455 S
H443 C461 0.930 . S
H444 C452 0.929 . S
H445 C459 0.930 . S
H446 C423 0.931 . S
H447 C453 0.932 1_655 S
H448 C486 0.930 . S
H449 C430 0.930 . S
H450 C485 0.931 . S
N451 Eu420 2.657 . S
N451 C452 1.334 . S
N451 C456 1.362 1_455 S
C452 H444 0.929 . S
C452 N451 1.334 . S
C452 C455 1.413 . S
C453 H447 0.932 1_455 S
C453 C454 1.392 1_455 S
C453 C455 1.367 . S
C454 C453 1.392 1_655 S
C454 C456 1.420 . S
C454 C486 1.423 . S
C455 H441 0.930 . S
C455 C452 1.413 . S
C455 C453 1.367 . S
C456 N451 1.362 1_655 S
C456 C454 1.420 . S
C456 C460 1.429 . S
H457 C462 0.930 . S
N458 Eu420 2.609 1_655 S
N458 C460 1.377 . S
N458 C461 1.321 . S
C459 H445 0.930 . S
C459 C461 1.400 . S
C459 C462 1.386 . S
C460 C456 1.429 . S
C460 N458 1.377 . S
C460 C463 1.411 . S
C461 H443 0.930 . S
C461 N458 1.321 . S
C461 C459 1.400 . S
C462 H457 0.930 . S
C462 C459 1.386 . S
C462 C463 1.395 . S
C463 C460 1.411 . S
C463 C462 1.395 . S
C463 C485 1.420 . S
O464 Eu420 2.558 . S
O464 C484 1.257 . S
O465 Eu420 2.612 . S
O465 Eu431 2.380 1_455 S
O465 C476 1.276 . S
O466 Eu431 2.432 1_455 S
O466 C483 1.264 . S
O467 Eu420 2.339 . S
O467 C483 1.254 . S
O468 Eu420 2.563 . S
O468 C476 1.235 . S
O469 Eu420 2.419 . S
O469 C484 1.249 . S
O470 Eu431 2.558 . S
O470 C495 1.257 . S
O471 Eu420 2.380 1_655 S
O471 Eu431 2.612 . S
O471 C487 1.276 . S
O472 Eu420 2.432 1_655 S
O472 C494 1.264 . S
O473 Eu431 2.339 . S
O473 C494 1.254 . S
O474 Eu431 2.563 . S
O474 C487 1.235 . S
O475 Eu431 2.419 . S
O475 C495 1.249 . S
C476 O465 1.276 . S
C476 O468 1.235 . S
C477 C479 1.393 . S
C477 C481 1.395 . S
C477 C484 1.492 . S
C478 C479 1.392 . S
C478 C480 1.386 . S
C479 C477 1.393 . S
C479 C478 1.392 . S
C479 H496 0.930 . S
C480 C478 1.386 . S
C480 C482 1.395 . S
C480 H497 0.930 . S
C481 C477 1.395 . S
C481 C482 1.379 . S
C481 H498 0.930 . S
C482 C480 1.395 . S
C482 C481 1.379 . S
C482 H499 0.930 . S
C483 O466 1.264 . S
C483 O467 1.254 . S
C484 Eu420 2.848 . S
C484 O464 1.257 . S
C484 O469 1.249 . S
C484 C477 1.492 . S
C485 H450 0.931 . S
C485 C463 1.420 . S
C485 C486 1.351 . S
C486 H448 0.930 . S
C486 C454 1.423 . S
C486 C485 1.351 . S
C487 O471 1.276 . S
C487 O474 1.235 . S
C488 C489 1.393 . S
C488 C492 1.395 . S
C488 C495 1.492 . S
C489 C488 1.393 . S
C489 C490 1.392 . S
C489 H500 0.930 . S
C490 C489 1.392 . S
C490 C491 1.386 . S
C491 C490 1.386 . S
C491 C493 1.395 . S
C491 H501 0.930 . S
C492 C488 1.395 . S
C492 C493 1.379 . S
C492 H502 0.930 . S
C493 C491 1.395 . S
C493 C492 1.379 . S
C493 H503 0.930 . S
C494 O472 1.264 . S
C494 O473 1.254 . S
C495 Eu431 2.848 . S
C495 O470 1.257 . S
C495 O475 1.249 . S
C495 C488 1.492 . S
H496 C479 0.930 . S
H497 C480 0.930 . S
H498 C481 0.930 . S
H499 C482 0.930 . S
H500 C489 0.930 . S
H501 C491 0.930 . S
H502 C492 0.930 . S
H503 C493 0.930 . S
Eu504 N535 2.657 . S
Eu504 N542 2.609 1_655 S
Eu504 O548 2.558 . S
Eu504 O549 2.612 . S
Eu504 O551 2.339 . S
Eu504 O552 2.563 . S
Eu504 O553 2.419 . S
Eu504 O555 2.380 1_655 S
Eu504 O556 2.432 1_655 S
Eu504 C568 2.848 . S
C505 C508 1.429 . S
C505 C509 1.411 . S
C505 N512 1.377 . S
C506 C508 1.420 . S
C506 C510 1.423 . S
C506 C518 1.392 . S
C507 C509 1.420 . S
C507 C510 1.351 . S
C507 H530 0.931 . S
C508 C505 1.429 . S
C508 C506 1.420 . S
C508 N516 1.362 1_655 S
C509 C505 1.411 . S
C509 C507 1.420 . S
C509 C514 1.395 . S
C510 C506 1.423 . S
C510 C507 1.351 . S
C510 H522 0.930 . S
C511 C513 1.400 . S
C511 C514 1.386 . S
C511 H523 0.930 . S
N512 C505 1.377 . S
N512 C513 1.321 . S
N512 Eu515 2.609 1_655 S
C513 C511 1.400 . S
C513 N512 1.321 . S
C513 H520 0.930 . S
C514 C509 1.395 . S
C514 C511 1.386 . S
C514 H533 0.930 . S
Eu515 N512 2.609 1_455 S
Eu515 N516 2.657 . S
Eu515 O549 2.380 1_455 S
Eu515 O550 2.432 1_455 S
Eu515 O554 2.558 . S
Eu515 O555 2.612 . S
Eu515 O557 2.339 . S
Eu515 O558 2.563 . S
Eu515 O559 2.419 . S
Eu515 C579 2.848 . S
N516 C508 1.362 1_455 S
N516 Eu515 2.657 . S
N516 C517 1.334 . S
C517 N516 1.334 . S
C517 C519 1.413 . S
C517 H524 0.929 . S
C518 C506 1.392 . S
C518 C519 1.367 1_655 S
C518 H526 0.930 . S
C519 C517 1.413 . S
C519 C518 1.367 1_455 S
C519 H521 0.930 . S
H520 C513 0.930 . S
H521 C519 0.930 . S
H522 C510 0.930 . S
H523 C511 0.930 . S
H524 C517 0.929 . S
H525 C539 0.930 . S
H526 C518 0.930 . S
H527 C545 0.930 . S
H528 C536 0.929 . S
H529 C543 0.930 . S
H530 C507 0.931 . S
H531 C537 0.930 . S
H532 C570 0.930 . S
H533 C514 0.930 . S
H534 C569 0.931 . S
N535 Eu504 2.657 . S
N535 C536 1.334 . S
N535 C540 1.362 1_655 S
C536 H528 0.929 . S
C536 N535 1.334 . S
C536 C539 1.413 . S
C537 H531 0.930 . S
C537 C538 1.392 . S
C537 C539 1.367 1_455 S
C538 C537 1.392 . S
C538 C540 1.420 . S
C538 C570 1.423 . S
C539 H525 0.930 . S
C539 C536 1.413 . S
C539 C537 1.367 1_655 S
C540 N535 1.362 1_455 S
C540 C538 1.420 . S
C540 C544 1.429 . S
H541 C546 0.930 . S
N542 Eu504 2.609 1_455 S
N542 C544 1.377 . S
N542 C545 1.321 . S
C543 H529 0.930 . S
C543 C545 1.400 . S
C543 C546 1.386 . S
C544 C540 1.429 . S
C544 N542 1.377 . S
C544 C547 1.411 . S
C545 H527 0.930 . S
C545 N542 1.321 . S
C545 C543 1.400 . S
C546 H541 0.930 . S
C546 C543 1.386 . S
C546 C547 1.395 . S
C547 C544 1.411 . S
C547 C546 1.395 . S
C547 C569 1.420 . S
O548 Eu504 2.558 . S
O548 C568 1.257 . S
O549 Eu504 2.612 . S
O549 Eu515 2.380 1_655 S
O549 C560 1.276 . S
O550 Eu515 2.432 1_655 S
O550 C567 1.264 . S
O551 Eu504 2.339 . S
O551 C567 1.254 . S
O552 Eu504 2.563 . S
O552 C560 1.235 . S
O553 Eu504 2.419 . S
O553 C568 1.249 . S
O554 Eu515 2.558 . S
O554 C579 1.257 . S
O555 Eu504 2.380 1_455 S
O555 Eu515 2.612 . S
O555 C571 1.276 . S
O556 Eu504 2.432 1_455 S
O556 C578 1.264 . S
O557 Eu515 2.339 . S
O557 C578 1.254 . S
O558 Eu515 2.563 . S
O558 C571 1.235 . S
O559 Eu515 2.419 . S
O559 C579 1.249 . S
C560 O549 1.276 . S
C560 O552 1.235 . S
C561 C563 1.393 . S
C561 C565 1.395 . S
C561 C568 1.492 . S
C562 C563 1.392 . S
C562 C564 1.386 . S
C563 C561 1.393 . S
C563 C562 1.392 . S
C563 H580 0.930 . S
C564 C562 1.386 . S
C564 C566 1.395 . S
C564 H581 0.930 . S
C565 C561 1.395 . S
C565 C566 1.379 . S
C565 H582 0.930 . S
C566 C564 1.395 . S
C566 C565 1.379 . S
C566 H583 0.930 . S
C567 O550 1.264 . S
C567 O551 1.254 . S
C568 Eu504 2.848 . S
C568 O548 1.257 . S
C568 O553 1.249 . S
C568 C561 1.492 . S
C569 H534 0.931 . S
C569 C547 1.420 . S
C569 C570 1.351 . S
C570 H532 0.930 . S
C570 C538 1.423 . S
C570 C569 1.351 . S
C571 O555 1.276 . S
C571 O558 1.235 . S
C572 C573 1.393 . S
C572 C576 1.395 . S
C572 C579 1.492 . S
C573 C572 1.393 . S
C573 C574 1.392 . S
C573 H584 0.930 . S
C574 C573 1.392 . S
C574 C575 1.386 . S
C575 C574 1.386 . S
C575 C577 1.395 . S
C575 H585 0.930 . S
C576 C572 1.395 . S
C576 C577 1.379 . S
C576 H586 0.930 . S
C577 C575 1.395 . S
C577 C576 1.379 . S
C577 H587 0.930 . S
C578 O556 1.264 . S
C578 O557 1.254 . S
C579 Eu515 2.848 . S
C579 O554 1.257 . S
C579 O559 1.249 . S
C579 C572 1.492 . S
H580 C563 0.930 . S
H581 C564 0.930 . S
H582 C565 0.930 . S
H583 C566 0.930 . S
H584 C573 0.930 . S
H585 C575 0.930 . S
H586 C576 0.930 . S
H587 C577 0.930 . S
Eu588 N619 2.657 . S
Eu588 N626 2.609 1_565 S
Eu588 O632 2.558 . S
Eu588 O633 2.612 . S
Eu588 O635 2.339 . S
Eu588 O636 2.563 . S
Eu588 O637 2.419 . S
Eu588 O639 2.380 1_565 S
Eu588 O640 2.432 1_565 S
Eu588 C652 2.848 . S
C589 C592 1.429 . S
C589 C593 1.411 . S
C589 N596 1.377 . S
C590 C592 1.420 . S
C590 C594 1.423 . S
C590 C602 1.392 1_565 S
C591 C593 1.420 . S
C591 C594 1.351 . S
C591 H614 0.931 . S
C592 C589 1.429 . S
C592 C590 1.420 . S
C592 N600 1.362 1_565 S
C593 C589 1.411 . S
C593 C591 1.420 . S
C593 C598 1.395 . S
C594 C590 1.423 . S
C594 C591 1.351 . S
C594 H606 0.930 . S
C595 C597 1.400 . S
C595 C598 1.386 . S
C595 H607 0.930 . S
N596 C589 1.377 . S
N596 C597 1.321 . S
N596 Eu599 2.609 1_565 S
C597 C595 1.400 . S
C597 N596 1.321 . S
C597 H604 0.930 . S
C598 C593 1.395 . S
C598 C595 1.386 . S
C598 H617 0.930 . S
Eu599 N596 2.609 1_545 S
Eu599 N600 2.657 . S
Eu599 O633 2.380 1_545 S
Eu599 O634 2.432 1_545 S
Eu599 O638 2.558 . S
Eu599 O639 2.612 . S
Eu599 O641 2.339 . S
Eu599 O642 2.563 . S
Eu599 O643 2.419 . S
Eu599 C663 2.848 . S
N600 C592 1.362 1_545 S
N600 Eu599 2.657 . S
N600 C601 1.334 . S
C601 N600 1.334 . S
C601 C603 1.413 . S
C601 H608 0.929 . S
C602 C590 1.392 1_545 S
C602 C603 1.367 . S
C602 H610 0.934 1_545 S
C603 C601 1.413 . S
C603 C602 1.367 . S
C603 H605 0.930 . S
H604 C597 0.930 . S
H605 C603 0.930 . S
H606 C594 0.930 . S
H607 C595 0.930 . S
H608 C601 0.929 . S
H609 C623 0.930 . S
H610 C602 0.934 1_565 S
H611 C629 0.930 . S
H612 C620 0.929 . S
H613 C627 0.930 . S
H614 C591 0.931 . S
H615 C621 0.932 1_545 S
H616 C654 0.930 . S
H617 C598 0.930 . S
H618 C653 0.931 . S
N619 Eu588 2.657 . S
N619 C620 1.334 . S
N619 C624 1.362 1_565 S
C620 H612 0.929 . S
C620 N619 1.334 . S
C620 C623 1.413 . S
C621 H615 0.932 1_565 S
C621 C622 1.392 1_565 S
C621 C623 1.367 . S
C622 C621 1.392 1_545 S
C622 C624 1.420 . S
C622 C654 1.423 . S
C623 H609 0.930 . S
C623 C620 1.413 . S
C623 C621 1.367 . S
C624 N619 1.362 1_545 S
C624 C622 1.420 . S
C624 C628 1.429 . S
H625 C630 0.930 . S
N626 Eu588 2.609 1_545 S
N626 C628 1.377 . S
N626 C629 1.321 . S
C627 H613 0.930 . S
C627 C629 1.400 . S
C627 C630 1.386 . S
C628 C624 1.429 . S
C628 N626 1.377 . S
C628 C631 1.411 . S
C629 H611 0.930 . S
C629 N626 1.321 . S
C629 C627 1.400 . S
C630 H625 0.930 . S
C630 C627 1.386 . S
C630 C631 1.395 . S
C631 C628 1.411 . S
C631 C630 1.395 . S
C631 C653 1.420 . S
O632 Eu588 2.558 . S
O632 C652 1.257 . S
O633 Eu588 2.612 . S
O633 Eu599 2.380 1_565 S
O633 C644 1.276 . S
O634 Eu599 2.432 1_565 S
O634 C651 1.264 . S
O635 Eu588 2.339 . S
O635 C651 1.254 . S
O636 Eu588 2.563 . S
O636 C644 1.235 . S
O637 Eu588 2.419 . S
O637 C652 1.249 . S
O638 Eu599 2.558 . S
O638 C663 1.257 . S
O639 Eu588 2.380 1_545 S
O639 Eu599 2.612 . S
O639 C655 1.276 . S
O640 Eu588 2.432 1_545 S
O640 C662 1.264 . S
O641 Eu599 2.339 . S
O641 C662 1.254 . S
O642 Eu599 2.563 . S
O642 C655 1.235 . S
O643 Eu599 2.419 . S
O643 C663 1.249 . S
C644 O633 1.276 . S
C644 O636 1.235 . S
C645 C647 1.393 . S
C645 C649 1.395 . S
C645 C652 1.492 . S
C646 C647 1.392 . S
C646 C648 1.386 . S
C647 C645 1.393 . S
C647 C646 1.392 . S
C647 H664 0.930 . S
C648 C646 1.386 . S
C648 C650 1.395 . S
C648 H665 0.930 . S
C649 C645 1.395 . S
C649 C650 1.379 . S
C649 H666 0.930 . S
C650 C648 1.395 . S
C650 C649 1.379 . S
C650 H667 0.930 . S
C651 O634 1.264 . S
C651 O635 1.254 . S
C652 Eu588 2.848 . S
C652 O632 1.257 . S
C652 O637 1.249 . S
C652 C645 1.492 . S
C653 H618 0.931 . S
C653 C631 1.420 . S
C653 C654 1.351 . S
C654 H616 0.930 . S
C654 C622 1.423 . S
C654 C653 1.351 . S
C655 O639 1.276 . S
C655 O642 1.235 . S
C656 C657 1.393 . S
C656 C660 1.395 . S
C656 C663 1.492 . S
C657 C656 1.393 . S
C657 C658 1.392 . S
C657 H668 0.930 . S
C658 C657 1.392 . S
C658 C659 1.386 . S
C659 C658 1.386 . S
C659 C661 1.395 . S
C659 H669 0.930 . S
C660 C656 1.395 . S
C660 C661 1.379 . S
C660 H670 0.930 . S
C661 C659 1.395 . S
C661 C660 1.379 . S
C661 H671 0.930 . S
C662 O640 1.264 . S
C662 O641 1.254 . S
C663 Eu599 2.848 . S
C663 O638 1.257 . S
C663 O643 1.249 . S
C663 C656 1.492 . S
H664 C647 0.930 . S
H665 C648 0.930 . S
H666 C649 0.930 . S
H667 C650 0.930 . S
H668 C657 0.930 . S
H669 C659 0.930 . S
H670 C660 0.930 . S
H671 C661 0.930 . S
Eu672 N703 2.657 . S
Eu672 N710 2.609 . S
Eu672 O716 2.558 . S
Eu672 O717 2.612 . S
Eu672 O719 2.339 . S
Eu672 O720 2.563 . S
Eu672 O721 2.419 . S
Eu672 O723 2.380 . S
Eu672 O724 2.432 . S
Eu672 C736 2.848 . S
C673 C676 1.429 . S
C673 C677 1.411 . S
C673 N680 1.377 . S
C674 C676 1.420 . S
C674 C678 1.423 . S
C674 C686 1.392 . S
C675 C677 1.420 . S
C675 C678 1.351 . S
C675 H698 0.931 . S
C676 C673 1.429 . S
C676 C674 1.420 . S
C676 N684 1.362 . S
C677 C673 1.411 . S
C677 C675 1.420 . S
C677 C682 1.395 . S
C678 C674 1.423 . S
C678 C675 1.351 . S
C678 H690 0.930 . S
C679 C681 1.400 . S
C679 C682 1.386 . S
C679 H691 0.930 . S
N680 C673 1.377 . S
N680 C681 1.321 . S
N680 Eu683 2.609 . S
C681 C679 1.400 . S
C681 N680 1.321 . S
C681 H688 0.930 . S
C682 C677 1.395 . S
C682 C679 1.386 . S
C682 H701 0.930 . S
Eu683 N680 2.609 . S
Eu683 N684 2.657 . S
Eu683 O717 2.380 . S
Eu683 O718 2.432 . S
Eu683 O722 2.558 . S
Eu683 O723 2.612 . S
Eu683 O725 2.339 . S
Eu683 O726 2.563 . S
Eu683 O727 2.419 . S
Eu683 C747 2.848 . S
N684 C676 1.362 . S
N684 Eu683 2.657 . S
N684 C685 1.334 . S
C685 N684 1.334 . S
C685 C687 1.413 . S
C685 H692 0.929 . S
C686 C674 1.392 . S
C686 C687 1.367 . S
C686 H694 0.930 . S
C687 C685 1.413 . S
C687 C686 1.367 . S
C687 H689 0.930 . S
H688 C681 0.930 . S
H689 C687 0.930 . S
H690 C678 0.930 . S
H691 C679 0.930 . S
H692 C685 0.929 . S
H693 C707 0.930 . S
H694 C686 0.930 . S
H695 C713 0.930 . S
H696 C704 0.929 . S
H697 C711 0.930 . S
H698 C675 0.931 . S
H699 C705 0.930 . S
H700 C738 0.930 . S
H701 C682 0.930 . S
H702 C737 0.931 . S
N703 Eu672 2.657 . S
N703 C704 1.334 . S
N703 C708 1.362 . S
C704 H696 0.929 . S
C704 N703 1.334 . S
C704 C707 1.413 . S
C705 H699 0.930 . S
C705 C706 1.392 . S
C705 C707 1.367 . S
C706 C705 1.392 . S
C706 C708 1.420 . S
C706 C738 1.423 . S
C707 H693 0.930 . S
C707 C704 1.413 . S
C707 C705 1.367 . S
C708 N703 1.362 . S
C708 C706 1.420 . S
C708 C712 1.429 . S
H709 C714 0.930 . S
N710 Eu672 2.609 . S
N710 C712 1.377 . S
N710 C713 1.321 . S
C711 H697 0.930 . S
C711 C713 1.400 . S
C711 C714 1.386 . S
C712 C708 1.429 . S
C712 N710 1.377 . S
C712 C715 1.411 . S
C713 H695 0.930 . S
C713 N710 1.321 . S
C713 C711 1.400 . S
C714 H709 0.930 . S
C714 C711 1.386 . S
C714 C715 1.395 . S
C715 C712 1.411 . S
C715 C714 1.395 . S
C715 C737 1.420 . S
O716 Eu672 2.558 . S
O716 C736 1.257 . S
O717 Eu672 2.612 . S
O717 Eu683 2.380 . S
O717 C728 1.276 . S
O718 Eu683 2.432 . S
O718 C735 1.264 . S
O719 Eu672 2.339 . S
O719 C735 1.254 . S
O720 Eu672 2.563 . S
O720 C728 1.235 . S
O721 Eu672 2.419 . S
O721 C736 1.249 . S
O722 Eu683 2.558 . S
O722 C747 1.257 . S
O723 Eu672 2.380 . S
O723 Eu683 2.612 . S
O723 C739 1.276 . S
O724 Eu672 2.432 . S
O724 C746 1.264 . S
O725 Eu683 2.339 . S
O725 C746 1.254 . S
O726 Eu683 2.563 . S
O726 C739 1.235 . S
O727 Eu683 2.419 . S
O727 C747 1.249 . S
C728 O717 1.276 . S
C728 O720 1.235 . S
C729 C731 1.393 . S
C729 C733 1.395 . S
C729 C736 1.492 . S
C730 C731 1.392 . S
C730 C732 1.386 . S
C731 C729 1.393 . S
C731 C730 1.392 . S
C731 H748 0.930 . S
C732 C730 1.386 . S
C732 C734 1.395 . S
C732 H749 0.930 . S
C733 C729 1.395 . S
C733 C734 1.379 . S
C733 H750 0.930 . S
C734 C732 1.395 . S
C734 C733 1.379 . S
C734 H751 0.930 . S
C735 O718 1.264 . S
C735 O719 1.254 . S
C736 Eu672 2.848 . S
C736 O716 1.257 . S
C736 O721 1.249 . S
C736 C729 1.492 . S
C737 H702 0.931 . S
C737 C715 1.420 . S
C737 C738 1.351 . S
C738 H700 0.930 . S
C738 C706 1.423 . S
C738 C737 1.351 . S
C739 O723 1.276 . S
C739 O726 1.235 . S
C740 C741 1.393 . S
C740 C744 1.395 . S
C740 C747 1.492 . S
C741 C740 1.393 . S
C741 C742 1.392 . S
C741 H752 0.930 . S
C742 C741 1.392 . S
C742 C743 1.386 . S
C743 C742 1.386 . S
C743 C745 1.395 . S
C743 H753 0.930 . S
C744 C740 1.395 . S
C744 C745 1.379 . S
C744 H754 0.930 . S
C745 C743 1.395 . S
C745 C744 1.379 . S
C745 H755 0.930 . S
C746 O724 1.264 . S
C746 O725 1.254 . S
C747 Eu683 2.848 . S
C747 O722 1.257 . S
C747 O727 1.249 . S
C747 C740 1.492 . S
H748 C731 0.930 . S
H749 C732 0.930 . S
H750 C733 0.930 . S
H751 C734 0.930 . S
H752 C741 0.930 . S
H753 C743 0.930 . S
H754 C744 0.930 . S
H755 C745 0.930 . S
Eu756 N787 2.657 . S
Eu756 N794 2.609 1_455 S
Eu756 O800 2.558 . S
Eu756 O801 2.612 . S
Eu756 O803 2.339 . S
Eu756 O804 2.563 . S
Eu756 O805 2.419 . S
Eu756 O807 2.380 1_455 S
Eu756 O808 2.432 1_455 S
Eu756 C820 2.848 . S
C757 C760 1.429 . S
C757 C761 1.411 . S
C757 N764 1.377 . S
C758 C760 1.420 . S
C758 C762 1.423 . S
C758 C770 1.392 . S
C759 C761 1.420 . S
C759 C762 1.351 . S
C759 H782 0.931 . S
C760 C757 1.429 . S
C760 C758 1.420 . S
C760 N768 1.362 1_455 S
C761 C757 1.411 . S
C761 C759 1.420 . S
C761 C766 1.395 1_556 S
C762 C758 1.423 . S
C762 C759 1.351 . S
C762 H774 0.930 . S
C763 C765 1.400 . S
C763 C766 1.386 . S
C763 H775 0.930 . S
N764 C757 1.377 . S
N764 C765 1.321 1_556 S
N764 Eu767 2.609 1_455 S
C765 C763 1.400 . S
C765 N764 1.321 1_554 S
C765 H772 0.930 . S
C766 C761 1.395 1_554 S
C766 C763 1.386 . S
C766 H785 0.930 . S
Eu767 N764 2.609 1_655 S
Eu767 N768 2.657 . S
Eu767 O801 2.380 1_655 S
Eu767 O802 2.456 1_655 S
Eu767 O806 2.558 1_556 S
Eu767 O807 2.612 . S
Eu767 O809 2.339 . S
Eu767 O810 2.563 1_556 S
Eu767 O811 2.419 . S
Eu767 C831 2.848 1_556 S
N768 C760 1.362 1_655 S
N768 Eu767 2.657 . S
N768 C769 1.334 . S
C769 N768 1.334 . S
C769 C771 1.413 . S
C769 H776 0.929 . S
C770 C758 1.392 . S
C770 C771 1.367 1_455 S
C770 H778 0.930 . S
C771 C769 1.413 . S
C771 C770 1.367 1_655 S
C771 H773 0.930 . S
H772 C765 0.930 . S
H773 C771 0.930 . S
H774 C762 0.930 . S
H775 C763 0.930 . S
H776 C769 0.929 . S
H777 C791 0.929 . S
H778 C770 0.930 . S
H779 C797 0.930 . S
H780 C788 0.929 . S
H781 C795 0.930 . S
H782 C759 0.931 . S
H783 C789 0.895 1_554 S
H784 C822 0.930 . S
H785 C766 0.930 . S
H786 C821 0.931 . S
N787 Eu756 2.657 . S
N787 C788 1.334 . S
N787 C792 1.362 1_455 S
C788 H780 0.929 . S
C788 N787 1.334 . S
C788 C791 1.414 1_556 S
C789 H783 0.895 1_556 S
C789 C790 1.392 . S
C789 C791 1.368 1_656 S
C790 C789 1.392 . S
C790 C792 1.420 . S
C790 C822 1.423 . S
C791 H777 0.929 . S
C791 C788 1.414 1_554 S
C791 C789 1.368 1_454 S
C792 N787 1.362 1_655 S
C792 C790 1.420 . S
C792 C796 1.429 . S
H793 C798 0.930 . S
N794 Eu756 2.609 1_655 S
N794 C796 1.377 . S
N794 C797 1.321 . S
C795 H781 0.930 . S
C795 C797 1.400 . S
C795 C798 1.386 . S
C796 C792 1.429 . S
C796 N794 1.377 . S
C796 C799 1.411 . S
C797 H779 0.930 . S
C797 N794 1.321 . S
C797 C795 1.400 . S
C798 H793 0.930 . S
C798 C795 1.386 . S
C798 C799 1.395 . S
C799 C796 1.411 . S
C799 C798 1.395 . S
C799 C821 1.420 . S
O800 Eu756 2.558 . S
O800 C820 1.257 . S
O801 Eu756 2.612 . S
O801 Eu767 2.380 1_455 S
O801 C812 1.276 . S
O802 Eu767 2.456 1_455 S
O802 C819 1.302 . S
O803 Eu756 2.339 . S
O803 C819 1.254 . S
O804 Eu756 2.563 . S
O804 C812 1.235 . S
O805 Eu756 2.419 . S
O805 C820 1.249 . S
O806 Eu767 2.558 1_554 S
O806 C831 1.257 . S
O807 Eu756 2.380 1_655 S
O807 Eu767 2.612 . S
O807 C823 1.276 . S
O808 Eu756 2.432 1_655 S
O808 C830 1.264 . S
O809 Eu767 2.339 . S
O809 C830 1.254 . S
O810 Eu767 2.563 1_554 S
O810 C823 1.235 1_554 S
O811 Eu767 2.419 . S
O811 C831 1.249 1_556 S
C812 O801 1.276 . S
C812 O804 1.235 . S
C813 C815 1.393 . S
C813 C817 1.395 . S
C813 C820 1.492 . S
C814 C815 1.392 . S
C814 C816 1.386 . S
C815 C813 1.393 . S
C815 C814 1.392 . S
C815 H832 0.930 . S
C816 C814 1.386 . S
C816 C818 1.395 . S
C816 H833 0.930 . S
C817 C813 1.395 . S
C817 C818 1.379 . S
C817 H834 0.930 . S
C818 C816 1.395 . S
C818 C817 1.379 . S
C818 H835 0.930 . S
C819 O802 1.302 . S
C819 O803 1.254 . S
C820 Eu756 2.848 . S
C820 O800 1.257 . S
C820 O805 1.249 . S
C820 C813 1.492 . S
C821 H786 0.931 . S
C821 C799 1.420 . S
C821 C822 1.351 . S
C822 H784 0.930 . S
C822 C790 1.423 . S
C822 C821 1.351 . S
C823 O807 1.276 . S
C823 O810 1.235 1_556 S
C824 C825 1.393 . S
C824 C828 1.395 . S
C824 C831 1.492 . S
C825 C824 1.393 . S
C825 C826 1.392 . S
C825 H836 0.930 . S
C826 C825 1.392 . S
C826 C827 1.386 . S
C827 C826 1.386 . S
C827 C829 1.395 . S
C827 H837 0.930 . S
C828 C824 1.395 . S
C828 C829 1.379 . S
C828 H838 0.930 . S
C829 C827 1.395 . S
C829 C828 1.379 . S
C829 H839 0.930 . S
C830 O808 1.264 . S
C830 O809 1.254 . S
C831 Eu767 2.848 1_554 S
C831 O806 1.257 . S
C831 O811 1.249 1_554 S
C831 C824 1.492 . S
H832 C815 0.930 . S
H833 C816 0.930 . S
H834 C817 0.930 . S
H835 C818 0.930 . S
H836 C825 0.930 . S
H837 C827 0.930 . S
H838 C828 0.930 . S
H839 C829 0.930 . S
Eu840 N871 2.657 . S
Eu840 N878 2.609 1_545 S
Eu840 O884 2.558 . S
Eu840 O885 2.612 . S
Eu840 O887 2.339 . S
Eu840 O888 2.563 . S
Eu840 O889 2.419 . S
Eu840 O891 2.380 1_545 S
Eu840 O892 2.432 1_545 S
Eu840 C904 2.848 . S
C841 C844 1.429 . S
C841 C845 1.411 . S
C841 N848 1.377 . S
C842 C844 1.420 . S
C842 C846 1.423 . S
C842 C854 1.392 1_545 S
C843 C845 1.420 . S
C843 C846 1.351 . S
C843 H866 0.931 . S
C844 C841 1.429 . S
C844 C842 1.420 . S
C844 N852 1.362 1_545 S
C845 C841 1.411 . S
C845 C843 1.420 . S
C845 C850 1.395 . S
C846 C842 1.423 . S
C846 C843 1.351 . S
C846 H858 0.930 . S
C847 C849 1.400 . S
C847 C850 1.386 . S
C847 H859 0.930 . S
N848 C841 1.377 . S
N848 C849 1.321 . S
N848 Eu851 2.609 1_545 S
C849 C847 1.400 . S
C849 N848 1.321 . S
C849 H856 0.930 . S
C850 C845 1.395 . S
C850 C847 1.386 . S
C850 H869 0.930 . S
Eu851 N848 2.609 1_565 S
Eu851 N852 2.657 . S
Eu851 O885 2.380 1_565 S
Eu851 O886 2.432 1_565 S
Eu851 O890 2.558 . S
Eu851 O891 2.612 . S
Eu851 O893 2.339 . S
Eu851 O894 2.563 . S
Eu851 O895 2.419 . S
Eu851 C915 2.848 . S
N852 C844 1.362 1_565 S
N852 Eu851 2.657 . S
N852 C853 1.334 . S
C853 N852 1.334 . S
C853 C855 1.413 . S
C853 H860 0.929 . S
C854 C842 1.392 1_565 S
C854 C855 1.367 . S
C854 H862 0.934 1_565 S
C855 C853 1.413 . S
C855 C854 1.367 . S
C855 H857 0.930 . S
H856 C849 0.930 . S
H857 C855 0.930 . S
H858 C846 0.930 . S
H859 C847 0.930 . S
H860 C853 0.929 . S
H861 C875 0.930 . S
H862 C854 0.934 1_545 S
H863 C881 0.930 . S
H864 C872 0.929 . S
H865 C879 0.930 . S
H866 C843 0.931 . S
H867 C873 0.932 1_565 S
H868 C906 0.930 . S
H869 C850 0.930 . S
H870 C905 0.931 . S
N871 Eu840 2.657 . S
N871 C872 1.334 . S
N871 C876 1.362 1_545 S
C872 H864 0.929 . S
C872 N871 1.334 . S
C872 C875 1.413 . S
C873 H867 0.932 1_545 S
C873 C874 1.392 1_545 S
C873 C875 1.367 . S
C874 C873 1.392 1_565 S
C874 C876 1.420 . S
C874 C906 1.423 . S
C875 H861 0.930 . S
C875 C872 1.413 . S
C875 C873 1.367 . S
C876 N871 1.362 1_565 S
C876 C874 1.420 . S
C876 C880 1.429 . S
H877 C882 0.930 . S
N878 Eu840 2.609 1_565 S
N878 C880 1.377 . S
N878 C881 1.321 . S
C879 H865 0.930 . S
C879 C881 1.400 . S
C879 C882 1.386 . S
C880 C876 1.429 . S
C880 N878 1.377 . S
C880 C883 1.411 . S
C881 H863 0.930 . S
C881 N878 1.321 . S
C881 C879 1.400 . S
C882 H877 0.930 . S
C882 C879 1.386 . S
C882 C883 1.395 . S
C883 C880 1.411 . S
C883 C882 1.395 . S
C883 C905 1.420 . S
O884 Eu840 2.558 . S
O884 C904 1.257 . S
O885 Eu840 2.612 . S
O885 Eu851 2.380 1_545 S
O885 C896 1.276 . S
O886 Eu851 2.432 1_545 S
O886 C903 1.264 . S
O887 Eu840 2.339 . S
O887 C903 1.254 . S
O888 Eu840 2.563 . S
O888 C896 1.235 . S
O889 Eu840 2.419 . S
O889 C904 1.249 . S
O890 Eu851 2.558 . S
O890 C915 1.257 . S
O891 Eu840 2.380 1_565 S
O891 Eu851 2.612 . S
O891 C907 1.276 . S
O892 Eu840 2.432 1_565 S
O892 C914 1.264 . S
O893 Eu851 2.339 . S
O893 C914 1.254 . S
O894 Eu851 2.563 . S
O894 C907 1.235 . S
O895 Eu851 2.419 . S
O895 C915 1.249 . S
C896 O885 1.276 . S
C896 O888 1.235 . S
C897 C899 1.393 . S
C897 C901 1.395 . S
C897 C904 1.492 . S
C898 C899 1.392 . S
C898 C900 1.386 . S
C899 C897 1.393 . S
C899 C898 1.392 . S
C899 H916 0.930 . S
C900 C898 1.386 . S
C900 C902 1.395 . S
C900 H917 0.930 . S
C901 C897 1.395 . S
C901 C902 1.379 . S
C901 H918 0.930 . S
C902 C900 1.395 . S
C902 C901 1.379 . S
C902 H919 0.930 . S
C903 O886 1.264 . S
C903 O887 1.254 . S
C904 Eu840 2.848 . S
C904 O884 1.257 . S
C904 O889 1.249 . S
C904 C897 1.492 . S
C905 H870 0.931 . S
C905 C883 1.420 . S
C905 C906 1.351 . S
C906 H868 0.930 . S
C906 C874 1.423 . S
C906 C905 1.351 . S
C907 O891 1.276 . S
C907 O894 1.235 . S
C908 C909 1.393 . S
C908 C912 1.395 . S
C908 C915 1.492 . S
C909 C908 1.393 . S
C909 C910 1.392 . S
C909 H920 0.930 . S
C910 C909 1.392 . S
C910 C911 1.386 . S
C911 C910 1.386 . S
C911 C913 1.395 . S
C911 H921 0.930 . S
C912 C908 1.395 . S
C912 C913 1.379 . S
C912 H922 0.930 . S
C913 C911 1.395 . S
C913 C912 1.379 . S
C913 H923 0.930 . S
C914 O892 1.264 . S
C914 O893 1.254 . S
C915 Eu851 2.848 . S
C915 O890 1.257 . S
C915 O895 1.249 . S
C915 C908 1.492 . S
H916 C899 0.930 . S
H917 C900 0.930 . S
H918 C901 0.930 . S
H919 C902 0.930 . S
H920 C909 0.930 . S
H921 C911 0.930 . S
H922 C912 0.930 . S
H923 C913 0.930 . S
Eu924 N955 2.657 . S
Eu924 N962 2.609 . S
Eu924 O968 2.558 . S
Eu924 O969 2.612 . S
Eu924 O971 2.339 . S
Eu924 O972 2.563 . S
Eu924 O973 2.419 . S
Eu924 O975 2.380 . S
Eu924 O976 2.432 . S
Eu924 C988 2.848 . S
C925 C928 1.429 . S
C925 C929 1.411 . S
C925 N932 1.377 . S
C926 C928 1.420 . S
C926 C930 1.423 . S
C926 C938 1.392 . S
C927 C929 1.420 . S
C927 C930 1.351 . S
C927 H950 0.931 . S
C928 C925 1.429 . S
C928 C926 1.420 . S
C928 N936 1.362 . S
C929 C925 1.411 . S
C929 C927 1.420 . S
C929 C934 1.395 . S
C930 C926 1.423 . S
C930 C927 1.351 . S
C930 H942 0.930 . S
C931 C933 1.400 . S
C931 C934 1.386 . S
C931 H943 0.930 . S
N932 C925 1.377 . S
N932 C933 1.321 . S
N932 Eu935 2.609 . S
C933 C931 1.400 . S
C933 N932 1.321 . S
C933 H940 0.930 . S
C934 C929 1.395 . S
C934 C931 1.386 . S
C934 H953 0.930 . S
Eu935 N932 2.609 . S
Eu935 N936 2.657 . S
Eu935 O969 2.380 . S
Eu935 O970 2.432 . S
Eu935 O974 2.558 . S
Eu935 O975 2.612 . S
Eu935 O977 2.339 . S
Eu935 O978 2.563 . S
Eu935 O979 2.419 . S
Eu935 C999 2.848 . S
N936 C928 1.362 . S
N936 Eu935 2.657 . S
N936 C937 1.334 . S
C937 N936 1.334 . S
C937 C939 1.413 . S
C937 H944 0.929 . S
C938 C926 1.392 . S
C938 C939 1.367 . S
C938 H946 0.930 . S
C939 C937 1.413 . S
C939 C938 1.367 . S
C939 H941 0.930 . S
H940 C933 0.930 . S
H941 C939 0.930 . S
H942 C930 0.930 . S
H943 C931 0.930 . S
H944 C937 0.929 . S
H945 C959 0.930 . S
H946 C938 0.930 . S
H947 C965 0.930 . S
H948 C956 0.929 . S
H949 C963 0.930 . S
H950 C927 0.931 . S
H951 C957 0.930 . S
H952 C990 0.930 . S
H953 C934 0.930 . S
H954 C989 0.931 . S
N955 Eu924 2.657 . S
N955 C956 1.334 . S
N955 C960 1.362 . S
C956 H948 0.929 . S
C956 N955 1.334 . S
C956 C959 1.413 . S
C957 H951 0.930 . S
C957 C958 1.392 . S
C957 C959 1.367 . S
C958 C957 1.392 . S
C958 C960 1.420 . S
C958 C990 1.423 . S
C959 H945 0.930 . S
C959 C956 1.413 . S
C959 C957 1.367 . S
C960 N955 1.362 . S
C960 C958 1.420 . S
C960 C964 1.429 . S
H961 C966 0.930 . S
N962 Eu924 2.609 . S
N962 C964 1.377 . S
N962 C965 1.321 . S
C963 H949 0.930 . S
C963 C965 1.400 . S
C963 C966 1.386 . S
C964 C960 1.429 . S
C964 N962 1.377 . S
C964 C967 1.411 . S
C965 H947 0.930 . S
C965 N962 1.321 . S
C965 C963 1.400 . S
C966 H961 0.930 . S
C966 C963 1.386 . S
C966 C967 1.395 . S
C967 C964 1.411 . S
C967 C966 1.395 . S
C967 C989 1.420 . S
O968 Eu924 2.558 . S
O968 C988 1.257 . S
O969 Eu924 2.612 . S
O969 Eu935 2.380 . S
O969 C980 1.276 . S
O970 Eu935 2.432 . S
O970 C987 1.264 . S
O971 Eu924 2.339 . S
O971 C987 1.254 . S
O972 Eu924 2.563 . S
O972 C980 1.235 . S
O973 Eu924 2.419 . S
O973 C988 1.249 . S
O974 Eu935 2.558 . S
O974 C999 1.257 . S
O975 Eu924 2.380 . S
O975 Eu935 2.612 . S
O975 C991 1.276 . S
O976 Eu924 2.432 . S
O976 C998 1.264 . S
O977 Eu935 2.339 . S
O977 C998 1.254 . S
O978 Eu935 2.563 . S
O978 C991 1.235 . S
O979 Eu935 2.419 . S
O979 C999 1.249 . S
C980 O969 1.276 . S
C980 O972 1.235 . S
C981 C983 1.393 . S
C981 C985 1.395 . S
C981 C988 1.492 . S
C982 C983 1.392 . S
C982 C984 1.386 . S
C983 C981 1.393 . S
C983 C982 1.392 . S
C983 H1000 0.930 . S
C984 C982 1.386 . S
C984 C986 1.395 . S
C984 H1001 0.930 . S
C985 C981 1.395 . S
C985 C986 1.379 . S
C985 H1002 0.930 . S
C986 C984 1.395 . S
C986 C985 1.379 . S
C986 H1003 0.930 . S
C987 O970 1.264 . S
C987 O971 1.254 . S
C988 Eu924 2.848 . S
C988 O968 1.257 . S
C988 O973 1.249 . S
C988 C981 1.492 . S
C989 H954 0.931 . S
C989 C967 1.420 . S
C989 C990 1.351 . S
C990 H952 0.930 . S
C990 C958 1.423 . S
C990 C989 1.351 . S
C991 O975 1.276 . S
C991 O978 1.235 . S
C992 C993 1.393 . S
C992 C996 1.395 . S
C992 C999 1.492 . S
C993 C992 1.393 . S
C993 C994 1.392 . S
C993 H1004 0.930 . S
C994 C993 1.392 . S
C994 C995 1.386 . S
C995 C994 1.386 . S
C995 C997 1.395 . S
C995 H1005 0.930 . S
C996 C992 1.395 . S
C996 C997 1.379 . S
C996 H1006 0.930 . S
C997 C995 1.395 . S
C997 C996 1.379 . S
C997 H1007 0.930 . S
C998 O976 1.264 . S
C998 O977 1.254 . S
C999 Eu935 2.848 . S
C999 O974 1.257 . S
C999 O979 1.249 . S
C999 C992 1.492 . S
H1000 C983 0.930 . S
H1001 C984 0.930 . S
H1002 C985 0.930 . S
H1003 C986 0.930 . S
H1004 C993 0.930 . S
H1005 C995 0.930 . S
H1006 C996 0.930 . S
H1007 C997 0.930 . S
H1008 C1020 0.930 . S
H1009 C1022 0.930 . S
H1010 C1023 0.930 . S
H1011 C1027 0.959 . S
H1012 C1027 0.959 . S
H1013 C1027 0.961 . S
H1014 C1028 0.960 . S
H1015 C1028 0.961 . S
H1016 C1028 0.959 . S
H1017 C1031 0.929 . S
H1018 C1032 0.931 . S
H1019 C1034 0.930 . S
C1020 H1008 0.930 . S
C1020 C1021 1.399 . S
C1020 C1025 1.399 . S
C1021 C1020 1.399 . S
C1021 C1022 1.376 . S
C1022 H1009 0.930 . S
C1022 C1021 1.376 . S
C1022 C1023 1.388 . S
C1023 H1010 0.930 . S
C1023 C1022 1.388 . S
C1023 C1024 1.390 . S
C1024 C1023 1.390 . S
C1024 C1025 1.394 . S
C1024 C1030 1.465 . S
C1025 C1020 1.399 . S
C1025 C1024 1.394 . S
C1025 C1026 1.516 . S
C1026 C1025 1.516 . S
C1026 C1027 1.502 . S
C1026 C1028 1.561 . S
C1026 C1029 1.526 . S
C1027 H1011 0.959 . S
C1027 H1012 0.959 . S
C1027 H1013 0.961 . S
C1027 C1026 1.502 . S
C1028 H1014 0.960 . S
C1028 H1015 0.961 . S
C1028 H1016 0.959 . S
C1028 C1026 1.561 . S
C1029 C1026 1.526 . S
C1029 C1030 1.396 . S
C1029 C1034 1.390 . S
C1030 C1024 1.465 . S
C1030 C1029 1.396 . S
C1030 C1031 1.399 . S
C1031 H1017 0.929 . S
C1031 C1030 1.399 . S
C1031 C1032 1.385 . S
C1032 H1018 0.931 . S
C1032 C1031 1.385 . S
C1032 C1033 1.389 . S
C1033 C1032 1.389 . S
C1033 C1034 1.387 . S
C1034 H1019 0.930 . S
C1034 C1029 1.390 . S
C1034 C1033 1.387 . S
H1035 C1047 0.930 . S
H1036 C1049 0.930 . S
H1037 C1050 0.930 . S
H1038 C1054 0.959 . S
H1039 C1054 0.959 . S
H1040 C1054 0.961 . S
H1041 C1055 0.960 . S
H1042 C1055 0.961 . S
H1043 C1055 0.959 . S
H1044 C1058 0.929 . S
H1045 C1059 0.931 . S
H1046 C1061 0.930 . S
C1047 H1035 0.930 . S
C1047 C1048 1.399 . S
C1047 C1052 1.399 . S
C1048 C1047 1.399 . S
C1048 C1049 1.376 . S
C1049 H1036 0.930 . S
C1049 C1048 1.376 . S
C1049 C1050 1.388 . S
C1050 H1037 0.930 . S
C1050 C1049 1.388 . S
C1050 C1051 1.390 . S
C1051 C1050 1.390 . S
C1051 C1052 1.394 . S
C1051 C1057 1.465 . S
C1052 C1047 1.399 . S
C1052 C1051 1.394 . S
C1052 C1053 1.516 . S
C1053 C1052 1.516 . S
C1053 C1054 1.502 . S
C1053 C1055 1.561 . S
C1053 C1056 1.526 . S
C1054 H1038 0.959 . S
C1054 H1039 0.959 . S
C1054 H1040 0.961 . S
C1054 C1053 1.502 . S
C1055 H1041 0.960 . S
C1055 H1042 0.961 . S
C1055 H1043 0.959 . S
C1055 C1053 1.561 . S
C1056 C1053 1.526 . S
C1056 C1057 1.396 . S
C1056 C1061 1.390 . S
C1057 C1051 1.465 . S
C1057 C1056 1.396 . S
C1057 C1058 1.399 . S
C1058 H1044 0.929 . S
C1058 C1057 1.399 . S
C1058 C1059 1.385 . S
C1059 H1045 0.931 . S
C1059 C1058 1.385 . S
C1059 C1060 1.389 . S
C1060 C1059 1.389 . S
C1060 C1061 1.387 . S
C1061 H1046 0.930 . S
C1061 C1056 1.390 . S
C1061 C1060 1.387 . S
H1062 C1074 0.930 . S
H1063 C1076 0.930 . S
H1064 C1077 0.930 . S
H1065 C1081 0.959 . S
H1066 C1081 0.959 . S
H1067 C1081 0.961 . S
H1068 C1082 0.960 . S
H1069 C1082 0.961 . S
H1070 C1082 0.959 . S
H1071 C1085 0.929 . S
H1072 C1086 0.931 . S
H1073 C1088 0.930 . S
C1074 H1062 0.930 . S
C1074 C1075 1.399 . S
C1074 C1079 1.399 . S
C1075 C1074 1.399 . S
C1075 C1076 1.376 . S
C1076 H1063 0.930 . S
C1076 C1075 1.376 . S
C1076 C1077 1.388 . S
C1077 H1064 0.930 . S
C1077 C1076 1.388 . S
C1077 C1078 1.390 . S
C1078 C1077 1.390 . S
C1078 C1079 1.394 . S
C1078 C1084 1.465 . S
C1079 C1074 1.399 . S
C1079 C1078 1.394 . S
C1079 C1080 1.516 . S
C1080 C1079 1.516 . S
C1080 C1081 1.502 . S
C1080 C1082 1.561 . S
C1080 C1083 1.526 . S
C1081 H1065 0.959 . S
C1081 H1066 0.959 . S
C1081 H1067 0.961 . S
C1081 C1080 1.502 . S
C1082 H1068 0.960 . S
C1082 H1069 0.961 . S
C1082 H1070 0.959 . S
C1082 C1080 1.561 . S
C1083 C1080 1.526 . S
C1083 C1084 1.396 . S
C1083 C1088 1.390 . S
C1084 C1078 1.465 . S
C1084 C1083 1.396 . S
C1084 C1085 1.399 . S
C1085 H1071 0.929 . S
C1085 C1084 1.399 . S
C1085 C1086 1.385 . S
C1086 H1072 0.931 . S
C1086 C1085 1.385 . S
C1086 C1087 1.389 . S
C1087 C1086 1.389 . S
C1087 C1088 1.387 . S
C1088 H1073 0.930 . S
C1088 C1083 1.390 . S
C1088 C1087 1.387 . S
H1089 C1101 0.930 . S
H1090 C1103 0.930 . S
H1091 C1104 0.930 . S
H1092 C1108 0.959 . S
H1093 C1108 0.959 . S
H1094 C1108 0.961 . S
H1095 C1109 0.960 . S
H1096 C1109 0.961 . S
H1097 C1109 0.959 . S
H1098 C1112 0.929 . S
H1099 C1113 0.931 . S
H1100 C1115 0.930 . S
C1101 H1089 0.930 . S
C1101 C1102 1.399 . S
C1101 C1106 1.399 . S
C1102 C1101 1.399 . S
C1102 C1103 1.376 . S
C1103 H1090 0.930 . S
C1103 C1102 1.376 . S
C1103 C1104 1.388 . S
C1104 H1091 0.930 . S
C1104 C1103 1.388 . S
C1104 C1105 1.390 . S
C1105 C1104 1.390 . S
C1105 C1106 1.394 . S
C1105 C1111 1.465 . S
C1106 C1101 1.399 . S
C1106 C1105 1.394 . S
C1106 C1107 1.516 . S
C1107 C1106 1.516 . S
C1107 C1108 1.502 . S
C1107 C1109 1.561 . S
C1107 C1110 1.526 . S
C1108 H1092 0.959 . S
C1108 H1093 0.959 . S
C1108 H1094 0.961 . S
C1108 C1107 1.502 . S
C1109 H1095 0.960 . S
C1109 H1096 0.961 . S
C1109 H1097 0.959 . S
C1109 C1107 1.561 . S
C1110 C1107 1.526 . S
C1110 C1111 1.396 . S
C1110 C1115 1.390 . S
C1111 C1105 1.465 . S
C1111 C1110 1.396 . S
C1111 C1112 1.399 . S
C1112 H1098 0.929 . S
C1112 C1111 1.399 . S
C1112 C1113 1.385 . S
C1113 H1099 0.931 . S
C1113 C1112 1.385 . S
C1113 C1114 1.389 . S
C1114 C1113 1.389 . S
C1114 C1115 1.387 . S
C1115 H1100 0.930 . S
C1115 C1110 1.390 . S
C1115 C1114 1.387 . S
H1116 C1128 0.930 . S
H1117 C1130 0.930 . S
H1118 C1131 0.930 . S
H1119 C1135 0.959 . S
H1120 C1135 0.959 . S
H1121 C1135 0.961 . S
H1122 C1136 0.960 . S
H1123 C1136 0.961 . S
H1124 C1136 0.959 . S
H1125 C1139 0.929 . S
H1126 C1140 0.931 . S
H1127 C1142 0.930 . S
C1128 H1116 0.930 . S
C1128 C1129 1.399 . S
C1128 C1133 1.399 . S
C1129 C1128 1.399 . S
C1129 C1130 1.376 . S
C1130 H1117 0.930 . S
C1130 C1129 1.376 . S
C1130 C1131 1.388 . S
C1131 H1118 0.930 . S
C1131 C1130 1.388 . S
C1131 C1132 1.390 . S
C1132 C1131 1.390 . S
C1132 C1133 1.394 . S
C1132 C1138 1.465 . S
C1133 C1128 1.399 . S
C1133 C1132 1.394 . S
C1133 C1134 1.516 . S
C1134 C1133 1.516 . S
C1134 C1135 1.502 . S
C1134 C1136 1.561 . S
C1134 C1137 1.526 . S
C1135 H1119 0.959 . S
C1135 H1120 0.959 . S
C1135 H1121 0.961 . S
C1135 C1134 1.502 . S
C1136 H1122 0.960 . S
C1136 H1123 0.961 . S
C1136 H1124 0.959 . S
C1136 C1134 1.561 . S
C1137 C1134 1.526 . S
C1137 C1138 1.396 . S
C1137 C1142 1.390 . S
C1138 C1132 1.465 . S
C1138 C1137 1.396 . S
C1138 C1139 1.399 . S
C1139 H1125 0.929 . S
C1139 C1138 1.399 . S
C1139 C1140 1.385 . S
C1140 H1126 0.931 . S
C1140 C1139 1.385 . S
C1140 C1141 1.389 . S
C1141 C1140 1.389 . S
C1141 C1142 1.387 . S
C1142 H1127 0.930 . S
C1142 C1137 1.390 . S
C1142 C1141 1.387 . S
H1143 C1155 0.930 . S
H1144 C1157 0.930 . S
H1145 C1158 0.930 . S
H1146 C1162 0.959 . S
H1147 C1162 0.959 . S
H1148 C1162 0.961 . S
H1149 C1163 0.960 . S
H1150 C1163 0.961 . S
H1151 C1163 0.959 . S
H1152 C1166 0.929 . S
H1153 C1167 0.931 . S
H1154 C1169 0.930 . S
C1155 H1143 0.930 . S
C1155 C1156 1.399 . S
C1155 C1160 1.399 . S
C1156 C1155 1.399 . S
C1156 C1157 1.376 . S
C1157 H1144 0.930 . S
C1157 C1156 1.376 . S
C1157 C1158 1.388 . S
C1158 H1145 0.930 . S
C1158 C1157 1.388 . S
C1158 C1159 1.390 . S
C1159 C1158 1.390 . S
C1159 C1160 1.394 . S
C1159 C1165 1.465 . S
C1160 C1155 1.399 . S
C1160 C1159 1.394 . S
C1160 C1161 1.516 . S
C1161 C1160 1.516 . S
C1161 C1162 1.502 . S
C1161 C1163 1.561 . S
C1161 C1164 1.526 . S
C1162 H1146 0.959 . S
C1162 H1147 0.959 . S
C1162 H1148 0.961 . S
C1162 C1161 1.502 . S
C1163 H1149 0.960 . S
C1163 H1150 0.961 . S
C1163 H1151 0.959 . S
C1163 C1161 1.561 . S
C1164 C1161 1.526 . S
C1164 C1165 1.396 . S
C1164 C1169 1.390 . S
C1165 C1159 1.465 . S
C1165 C1164 1.396 . S
C1165 C1166 1.399 . S
C1166 H1152 0.929 . S
C1166 C1165 1.399 . S
C1166 C1167 1.385 . S
C1167 H1153 0.931 . S
C1167 C1166 1.385 . S
C1167 C1168 1.389 . S
C1168 C1167 1.389 . S
C1168 C1169 1.387 . S
C1169 H1154 0.930 . S
C1169 C1164 1.390 . S
C1169 C1168 1.387 . S
H1170 C1182 0.930 . S
H1171 C1184 0.930 . S
H1172 C1185 0.930 . S
H1173 C1189 0.959 . S
H1174 C1189 0.959 . S
H1175 C1189 0.961 . S
H1176 C1190 0.960 . S
H1177 C1190 0.961 . S
H1178 C1190 0.959 . S
H1179 C1193 0.929 . S
H1180 C1194 0.931 . S
H1181 C1196 0.930 . S
C1182 H1170 0.930 . S
C1182 C1183 1.399 . S
C1182 C1187 1.399 . S
C1183 C1182 1.399 . S
C1183 C1184 1.376 . S
C1184 H1171 0.930 . S
C1184 C1183 1.376 . S
C1184 C1185 1.388 . S
C1185 H1172 0.930 . S
C1185 C1184 1.388 . S
C1185 C1186 1.390 . S
C1186 C1185 1.390 . S
C1186 C1187 1.394 . S
C1186 C1192 1.465 . S
C1187 C1182 1.399 . S
C1187 C1186 1.394 . S
C1187 C1188 1.516 . S
C1188 C1187 1.516 . S
C1188 C1189 1.502 . S
C1188 C1190 1.561 . S
C1188 C1191 1.526 . S
C1189 H1173 0.959 . S
C1189 H1174 0.959 . S
C1189 H1175 0.961 . S
C1189 C1188 1.502 . S
C1190 H1176 0.960 . S
C1190 H1177 0.961 . S
C1190 H1178 0.959 . S
C1190 C1188 1.561 . S
C1191 C1188 1.526 . S
C1191 C1192 1.396 . S
C1191 C1196 1.390 . S
C1192 C1186 1.465 . S
C1192 C1191 1.396 . S
C1192 C1193 1.399 . S
C1193 H1179 0.929 . S
C1193 C1192 1.399 . S
C1193 C1194 1.385 . S
C1194 H1180 0.931 . S
C1194 C1193 1.385 . S
C1194 C1195 1.389 . S
C1195 C1194 1.389 . S
C1195 C1196 1.387 . S
C1196 H1181 0.930 . S
C1196 C1191 1.390 . S
C1196 C1195 1.387 . S
H1197 C1209 0.930 . S
H1198 C1211 0.930 . S
H1199 C1212 0.930 . S
H1200 C1216 0.959 . S
H1201 C1216 0.959 . S
H1202 C1216 0.961 . S
H1203 C1217 0.960 . S
H1204 C1217 0.961 . S
H1205 C1217 0.959 . S
H1206 C1220 0.929 . S
H1207 C1221 0.931 . S
H1208 C1223 0.930 . S
C1209 H1197 0.930 . S
C1209 C1210 1.399 . S
C1209 C1214 1.399 . S
C1210 C1209 1.399 . S
C1210 C1211 1.376 . S
C1211 H1198 0.930 . S
C1211 C1210 1.376 . S
C1211 C1212 1.388 . S
C1212 H1199 0.930 . S
C1212 C1211 1.388 . S
C1212 C1213 1.390 . S
C1213 C1212 1.390 . S
C1213 C1214 1.394 . S
C1213 C1219 1.465 . S
C1214 C1209 1.399 . S
C1214 C1213 1.394 . S
C1214 C1215 1.516 . S
C1215 C1214 1.516 . S
C1215 C1216 1.502 . S
C1215 C1217 1.561 . S
C1215 C1218 1.526 . S
C1216 H1200 0.959 . S
C1216 H1201 0.959 . S
C1216 H1202 0.961 . S
C1216 C1215 1.502 . S
C1217 H1203 0.960 . S
C1217 H1204 0.961 . S
C1217 H1205 0.959 . S
C1217 C1215 1.561 . S
C1218 C1215 1.526 . S
C1218 C1219 1.396 . S
C1218 C1223 1.390 . S
C1219 C1213 1.465 . S
C1219 C1218 1.396 . S
C1219 C1220 1.399 . S
C1220 H1206 0.929 . S
C1220 C1219 1.399 . S
C1220 C1221 1.385 . S
C1221 H1207 0.931 . S
C1221 C1220 1.385 . S
C1221 C1222 1.389 . S
C1222 C1221 1.389 . S
C1222 C1223 1.387 . S
C1223 H1208 0.930 . S
C1223 C1218 1.390 . S
C1223 C1222 1.387 . S
H1224 C1236 0.930 . S
H1225 C1238 0.930 . S
H1226 C1239 0.930 . S
H1227 C1243 0.959 . S
H1228 C1243 0.959 . S
H1229 C1243 0.961 . S
H1230 C1244 0.960 . S
H1231 C1244 0.961 . S
H1232 C1244 0.959 . S
H1233 C1247 0.929 . S
H1234 C1248 0.931 . S
H1235 C1250 0.930 . S
C1236 H1224 0.930 . S
C1236 C1237 1.399 . S
C1236 C1241 1.399 . S
C1237 C1236 1.399 . S
C1237 C1238 1.376 . S
C1238 H1225 0.930 . S
C1238 C1237 1.376 . S
C1238 C1239 1.388 . S
C1239 H1226 0.930 . S
C1239 C1238 1.388 . S
C1239 C1240 1.390 . S
C1240 C1239 1.390 . S
C1240 C1241 1.394 . S
C1240 C1246 1.465 . S
C1241 C1236 1.399 . S
C1241 C1240 1.394 . S
C1241 C1242 1.516 . S
C1242 C1241 1.516 . S
C1242 C1243 1.502 . S
C1242 C1244 1.561 . S
C1242 C1245 1.526 . S
C1243 H1227 0.959 . S
C1243 H1228 0.959 . S
C1243 H1229 0.961 . S
C1243 C1242 1.502 . S
C1244 H1230 0.960 . S
C1244 H1231 0.961 . S
C1244 H1232 0.959 . S
C1244 C1242 1.561 . S
C1245 C1242 1.526 . S
C1245 C1246 1.396 . S
C1245 C1250 1.390 . S
C1246 C1240 1.465 . S
C1246 C1245 1.396 . S
C1246 C1247 1.399 . S
C1247 H1233 0.929 . S
C1247 C1246 1.399 . S
C1247 C1248 1.385 . S
C1248 H1234 0.931 . S
C1248 C1247 1.385 . S
C1248 C1249 1.389 . S
C1249 C1248 1.389 . S
C1249 C1250 1.387 . S
C1250 H1235 0.930 . S
C1250 C1245 1.390 . S
C1250 C1249 1.387 . S
H1251 C1263 0.930 . S
H1252 C1265 0.930 . S
H1253 C1266 0.930 . S
H1254 C1270 0.959 . S
H1255 C1270 0.959 . S
H1256 C1270 0.961 . S
H1257 C1271 0.960 . S
H1258 C1271 0.961 . S
H1259 C1271 0.959 . S
H1260 C1274 0.929 . S
H1261 C1275 0.931 . S
H1262 C1277 0.930 . S
C1263 H1251 0.930 . S
C1263 C1264 1.399 . S
C1263 C1268 1.399 . S
C1264 C1263 1.399 . S
C1264 C1265 1.376 . S
C1265 H1252 0.930 . S
C1265 C1264 1.376 . S
C1265 C1266 1.388 . S
C1266 H1253 0.930 . S
C1266 C1265 1.388 . S
C1266 C1267 1.390 . S
C1267 C1266 1.390 . S
C1267 C1268 1.394 . S
C1267 C1273 1.465 . S
C1268 C1263 1.399 . S
C1268 C1267 1.394 . S
C1268 C1269 1.516 . S
C1269 C1268 1.516 . S
C1269 C1270 1.502 . S
C1269 C1271 1.561 . S
C1269 C1272 1.526 . S
C1270 H1254 0.959 . S
C1270 H1255 0.959 . S
C1270 H1256 0.961 . S
C1270 C1269 1.502 . S
C1271 H1257 0.960 . S
C1271 H1258 0.961 . S
C1271 H1259 0.959 . S
C1271 C1269 1.561 . S
C1272 C1269 1.526 . S
C1272 C1273 1.396 . S
C1272 C1277 1.390 . S
C1273 C1267 1.465 . S
C1273 C1272 1.396 . S
C1273 C1274 1.399 . S
C1274 H1260 0.929 . S
C1274 C1273 1.399 . S
C1274 C1275 1.385 . S
C1275 H1261 0.931 . S
C1275 C1274 1.385 . S
C1275 C1276 1.389 . S
C1276 C1275 1.389 . S
C1276 C1277 1.387 . S
C1277 H1262 0.930 . S
C1277 C1272 1.390 . S
C1277 C1276 1.387 . S
H1278 C1290 0.930 . S
H1279 C1292 0.930 . S
H1280 C1293 0.930 . S
H1281 C1297 0.959 . S
H1282 C1297 0.959 . S
H1283 C1297 0.961 . S
H1284 C1298 0.960 . S
H1285 C1298 0.961 . S
H1286 C1298 0.959 . S
H1287 C1301 0.929 . S
H1288 C1302 0.931 . S
H1289 C1304 0.930 . S
C1290 H1278 0.930 . S
C1290 C1291 1.399 . S
C1290 C1295 1.399 . S
C1291 C1290 1.399 . S
C1291 C1292 1.376 . S
C1292 H1279 0.930 . S
C1292 C1291 1.376 . S
C1292 C1293 1.388 . S
C1293 H1280 0.930 . S
C1293 C1292 1.388 . S
C1293 C1294 1.390 . S
C1294 C1293 1.390 . S
C1294 C1295 1.394 . S
C1294 C1300 1.465 . S
C1295 C1290 1.399 . S
C1295 C1294 1.394 . S
C1295 C1296 1.516 . S
C1296 C1295 1.516 . S
C1296 C1297 1.502 . S
C1296 C1298 1.561 . S
C1296 C1299 1.526 . S
C1297 H1281 0.959 . S
C1297 H1282 0.959 . S
C1297 H1283 0.961 . S
C1297 C1296 1.502 . S
C1298 H1284 0.960 . S
C1298 H1285 0.961 . S
C1298 H1286 0.959 . S
C1298 C1296 1.561 . S
C1299 C1296 1.526 . S
C1299 C1300 1.396 . S
C1299 C1304 1.390 . S
C1300 C1294 1.465 . S
C1300 C1299 1.396 . S
C1300 C1301 1.399 . S
C1301 H1287 0.929 . S
C1301 C1300 1.399 . S
C1301 C1302 1.385 . S
C1302 H1288 0.931 . S
C1302 C1301 1.385 . S
C1302 C1303 1.389 . S
C1303 C1302 1.389 . S
C1303 C1304 1.387 . S
C1304 H1289 0.930 . S
C1304 C1299 1.390 . S
C1304 C1303 1.387 . S
H1305 C1317 0.930 . S
H1306 C1319 0.930 . S
H1307 C1320 0.930 . S
H1308 C1324 0.959 . S
H1309 C1324 0.959 . S
H1310 C1324 0.961 . S
H1311 C1325 0.960 . S
H1312 C1325 0.961 . S
H1313 C1325 0.959 . S
H1314 C1328 0.929 . S
H1315 C1329 0.931 . S
H1316 C1331 0.930 . S
C1317 H1305 0.930 . S
C1317 C1318 1.399 . S
C1317 C1322 1.399 . S
C1318 C1317 1.399 . S
C1318 C1319 1.376 . S
C1319 H1306 0.930 . S
C1319 C1318 1.376 . S
C1319 C1320 1.388 . S
C1320 H1307 0.930 . S
C1320 C1319 1.388 . S
C1320 C1321 1.390 . S
C1321 C1320 1.390 . S
C1321 C1322 1.394 . S
C1321 C1327 1.465 . S
C1322 C1317 1.399 . S
C1322 C1321 1.394 . S
C1322 C1323 1.516 . S
C1323 C1322 1.516 . S
C1323 C1324 1.502 . S
C1323 C1325 1.561 . S
C1323 C1326 1.526 . S
C1324 H1308 0.959 . S
C1324 H1309 0.959 . S
C1324 H1310 0.961 . S
C1324 C1323 1.502 . S
C1325 H1311 0.960 . S
C1325 H1312 0.961 . S
C1325 H1313 0.959 . S
C1325 C1323 1.561 . S
C1326 C1323 1.526 . S
C1326 C1327 1.396 . S
C1326 C1331 1.390 . S
C1327 C1321 1.465 . S
C1327 C1326 1.396 . S
C1327 C1328 1.399 . S
C1328 H1314 0.929 . S
C1328 C1327 1.399 . S
C1328 C1329 1.385 . S
C1329 H1315 0.931 . S
C1329 C1328 1.385 . S
C1329 C1330 1.389 . S
C1330 C1329 1.389 . S
C1330 C1331 1.387 . S
C1331 H1316 0.930 . S
C1331 C1326 1.390 . S
C1331 C1330 1.387 . S
H1332 C1344 0.930 . S
H1333 C1346 0.930 . S
H1334 C1347 0.930 . S
H1335 C1351 0.959 . S
H1336 C1351 0.959 . S
H1337 C1351 0.961 . S
H1338 C1352 0.960 . S
H1339 C1352 0.961 . S
H1340 C1352 0.959 . S
H1341 C1355 0.929 . S
H1342 C1356 0.931 . S
H1343 C1358 0.930 . S
C1344 H1332 0.930 . S
C1344 C1345 1.399 . S
C1344 C1349 1.399 . S
C1345 C1344 1.399 . S
C1345 C1346 1.376 . S
C1346 H1333 0.930 . S
C1346 C1345 1.376 . S
C1346 C1347 1.388 . S
C1347 H1334 0.930 . S
C1347 C1346 1.388 . S
C1347 C1348 1.390 . S
C1348 C1347 1.390 . S
C1348 C1349 1.394 . S
C1348 C1354 1.465 . S
C1349 C1344 1.399 . S
C1349 C1348 1.394 . S
C1349 C1350 1.516 . S
C1350 C1349 1.516 . S
C1350 C1351 1.502 . S
C1350 C1352 1.561 . S
C1350 C1353 1.526 . S
C1351 H1335 0.959 . S
C1351 H1336 0.959 . S
C1351 H1337 0.961 . S
C1351 C1350 1.502 . S
C1352 H1338 0.960 . S
C1352 H1339 0.961 . S
C1352 H1340 0.959 . S
C1352 C1350 1.561 . S
C1353 C1350 1.526 . S
C1353 C1354 1.396 . S
C1353 C1358 1.390 . S
C1354 C1348 1.465 . S
C1354 C1353 1.396 . S
C1354 C1355 1.399 . S
C1355 H1341 0.929 . S
C1355 C1354 1.399 . S
C1355 C1356 1.385 . S
C1356 H1342 0.931 . S
C1356 C1355 1.385 . S
C1356 C1357 1.389 . S
C1357 C1356 1.389 . S
C1357 C1358 1.387 . S
C1358 H1343 0.930 . S
C1358 C1353 1.390 . S
C1358 C1357 1.387 . S
H1359 C1371 0.930 . S
H1360 C1373 0.930 . S
H1361 C1374 0.930 . S
H1362 C1378 0.959 . S
H1363 C1378 0.959 . S
H1364 C1378 0.961 . S
H1365 C1379 0.960 . S
H1366 C1379 0.961 . S
H1367 C1379 0.959 . S
H1368 C1382 0.929 . S
H1369 C1383 0.931 . S
H1370 C1385 0.930 . S
C1371 H1359 0.930 . S
C1371 C1372 1.399 . S
C1371 C1376 1.399 . S
C1372 C1371 1.399 . S
C1372 C1373 1.376 . S
C1373 H1360 0.930 . S
C1373 C1372 1.376 . S
C1373 C1374 1.388 . S
C1374 H1361 0.930 . S
C1374 C1373 1.388 . S
C1374 C1375 1.390 . S
C1375 C1374 1.390 . S
C1375 C1376 1.394 . S
C1375 C1381 1.465 . S
C1376 C1371 1.399 . S
C1376 C1375 1.394 . S
C1376 C1377 1.516 . S
C1377 C1376 1.516 . S
C1377 C1378 1.502 . S
C1377 C1379 1.561 . S
C1377 C1380 1.526 . S
C1378 H1362 0.959 . S
C1378 H1363 0.959 . S
C1378 H1364 0.961 . S
C1378 C1377 1.502 . S
C1379 H1365 0.960 . S
C1379 H1366 0.961 . S
C1379 H1367 0.959 . S
C1379 C1377 1.561 . S
C1380 C1377 1.526 . S
C1380 C1381 1.396 . S
C1380 C1385 1.390 . S
C1381 C1375 1.465 . S
C1381 C1380 1.396 . S
C1381 C1382 1.399 . S
C1382 H1368 0.929 . S
C1382 C1381 1.399 . S
C1382 C1383 1.385 . S
C1383 H1369 0.931 . S
C1383 C1382 1.385 . S
C1383 C1384 1.389 . S
C1384 C1383 1.389 . S
C1384 C1385 1.387 . S
C1385 H1370 0.930 . S
C1385 C1380 1.390 . S
C1385 C1384 1.387 . S
H1386 C1398 0.930 . S
H1387 C1400 0.930 . S
H1388 C1401 0.930 . S
H1389 C1405 0.959 . S
H1390 C1405 0.959 . S
H1391 C1405 0.961 . S
H1392 C1406 0.960 . S
H1393 C1406 0.961 . S
H1394 C1406 0.959 . S
H1395 C1409 0.929 . S
H1396 C1410 0.931 . S
H1397 C1412 0.930 . S
C1398 H1386 0.930 . S
C1398 C1399 1.399 . S
C1398 C1403 1.399 . S
C1399 C1398 1.399 . S
C1399 C1400 1.376 . S
C1400 H1387 0.930 . S
C1400 C1399 1.376 . S
C1400 C1401 1.388 . S
C1401 H1388 0.930 . S
C1401 C1400 1.388 . S
C1401 C1402 1.390 . S
C1402 C1401 1.390 . S
C1402 C1403 1.394 . S
C1402 C1408 1.465 . S
C1403 C1398 1.399 . S
C1403 C1402 1.394 . S
C1403 C1404 1.516 . S
C1404 C1403 1.516 . S
C1404 C1405 1.502 . S
C1404 C1406 1.561 . S
C1404 C1407 1.526 . S
C1405 H1389 0.959 . S
C1405 H1390 0.959 . S
C1405 H1391 0.961 . S
C1405 C1404 1.502 . S
C1406 H1392 0.960 . S
C1406 H1393 0.961 . S
C1406 H1394 0.959 . S
C1406 C1404 1.561 . S
C1407 C1404 1.526 . S
C1407 C1408 1.396 . S
C1407 C1412 1.390 . S
C1408 C1402 1.465 . S
C1408 C1407 1.396 . S
C1408 C1409 1.399 . S
C1409 H1395 0.929 . S
C1409 C1408 1.399 . S
C1409 C1410 1.385 . S
C1410 H1396 0.931 . S
C1410 C1409 1.385 . S
C1410 C1411 1.389 . S
C1411 C1410 1.389 . S
C1411 C1412 1.387 . S
C1412 H1397 0.930 . S
C1412 C1407 1.390 . S
C1412 C1411 1.387 . S
H1413 C1425 0.930 . S
H1414 C1427 0.930 . S
H1415 C1428 0.930 . S
H1416 C1432 0.959 . S
H1417 C1432 0.959 . S
H1418 C1432 0.961 . S
H1419 C1433 0.960 . S
H1420 C1433 0.961 . S
H1421 C1433 0.959 . S
H1422 C1436 0.929 . S
H1423 C1437 0.931 . S
H1424 C1439 0.930 . S
C1425 H1413 0.930 . S
C1425 C1426 1.399 . S
C1425 C1430 1.399 . S
C1426 C1425 1.399 . S
C1426 C1427 1.376 . S
C1427 H1414 0.930 . S
C1427 C1426 1.376 . S
C1427 C1428 1.388 . S
C1428 H1415 0.930 . S
C1428 C1427 1.388 . S
C1428 C1429 1.390 . S
C1429 C1428 1.390 . S
C1429 C1430 1.394 . S
C1429 C1435 1.465 . S
C1430 C1425 1.399 . S
C1430 C1429 1.394 . S
C1430 C1431 1.516 . S
C1431 C1430 1.516 . S
C1431 C1432 1.502 . S
C1431 C1433 1.561 . S
C1431 C1434 1.526 . S
C1432 H1416 0.959 . S
C1432 H1417 0.959 . S
C1432 H1418 0.961 . S
C1432 C1431 1.502 . S
C1433 H1419 0.960 . S
C1433 H1420 0.961 . S
C1433 H1421 0.959 . S
C1433 C1431 1.561 . S
C1434 C1431 1.526 . S
C1434 C1435 1.396 . S
C1434 C1439 1.390 . S
C1435 C1429 1.465 . S
C1435 C1434 1.396 . S
C1435 C1436 1.399 . S
C1436 H1422 0.929 . S
C1436 C1435 1.399 . S
C1436 C1437 1.385 . S
C1437 H1423 0.931 . S
C1437 C1436 1.385 . S
C1437 C1438 1.389 . S
C1438 C1437 1.389 . S
C1438 C1439 1.387 . S
C1439 H1424 0.930 . S
C1439 C1434 1.390 . S
C1439 C1438 1.387 . S
H1440 C1452 0.930 . S
H1441 C1454 0.930 . S
H1442 C1455 0.930 . S
H1443 C1459 0.959 . S
H1444 C1459 0.959 . S
H1445 C1459 0.961 . S
H1446 C1460 0.960 . S
H1447 C1460 0.961 . S
H1448 C1460 0.959 . S
H1449 C1463 0.929 . S
H1450 C1464 0.931 . S
H1451 C1466 0.930 . S
C1452 H1440 0.930 . S
C1452 C1453 1.399 . S
C1452 C1457 1.399 . S
C1453 C1452 1.399 . S
C1453 C1454 1.376 1_556 S
C1454 H1441 0.930 . S
C1454 C1453 1.376 1_554 S
C1454 C1455 1.388 . S
C1455 H1442 0.930 . S
C1455 C1454 1.388 . S
C1455 C1456 1.390 . S
C1456 C1455 1.390 . S
C1456 C1457 1.394 1_554 S
C1456 C1462 1.465 . S
C1457 C1452 1.399 . S
C1457 C1456 1.394 1_556 S
C1457 C1458 1.516 . S
C1458 C1457 1.516 . S
C1458 C1459 1.502 . S
C1458 C1460 1.561 . S
C1458 C1461 1.526 . S
C1459 H1443 0.959 . S
C1459 H1444 0.959 . S
C1459 H1445 0.961 . S
C1459 C1458 1.502 . S
C1460 H1446 0.960 . S
C1460 H1447 0.961 . S
C1460 H1448 0.959 . S
C1460 C1458 1.561 . S
C1461 C1458 1.526 . S
C1461 C1462 1.396 1_556 S
C1461 C1466 1.390 . S
C1462 C1456 1.465 . S
C1462 C1461 1.396 1_554 S
C1462 C1463 1.399 . S
C1463 H1449 0.929 . S
C1463 C1462 1.399 . S
C1463 C1464 1.385 . S
C1464 H1450 0.931 . S
C1464 C1463 1.385 . S
C1464 C1465 1.389 . S
C1465 C1464 1.389 . S
C1465 C1466 1.387 1_554 S
C1466 H1451 0.930 . S
C1466 C1461 1.390 . S
C1466 C1465 1.387 1_556 S
H1467 C1479 0.930 . S
H1468 C1481 0.930 . S
H1469 C1482 0.930 . S
H1470 C1486 0.959 . S
H1471 C1486 0.959 . S
H1472 C1486 0.961 . S
H1473 C1487 0.960 . S
H1474 C1487 0.961 . S
H1475 C1487 0.959 . S
H1476 C1490 0.929 . S
H1477 C1491 0.931 . S
H1478 C1493 0.930 . S
C1479 H1467 0.930 . S
C1479 C1480 1.399 . S
C1479 C1484 1.399 . S
C1480 C1479 1.399 . S
C1480 C1481 1.376 . S
C1481 H1468 0.930 . S
C1481 C1480 1.376 . S
C1481 C1482 1.388 . S
C1482 H1469 0.930 . S
C1482 C1481 1.388 . S
C1482 C1483 1.390 . S
C1483 C1482 1.390 . S
C1483 C1484 1.394 . S
C1483 C1489 1.465 . S
C1484 C1479 1.399 . S
C1484 C1483 1.394 . S
C1484 C1485 1.516 . S
C1485 C1484 1.516 . S
C1485 C1486 1.502 . S
C1485 C1487 1.561 . S
C1485 C1488 1.526 . S
C1486 H1470 0.959 . S
C1486 H1471 0.959 . S
C1486 H1472 0.961 . S
C1486 C1485 1.502 . S
C1487 H1473 0.960 . S
C1487 H1474 0.961 . S
C1487 H1475 0.959 . S
C1487 C1485 1.561 . S
C1488 C1485 1.526 . S
C1488 C1489 1.396 . S
C1488 C1493 1.390 . S
C1489 C1483 1.465 . S
C1489 C1488 1.396 . S
C1489 C1490 1.399 . S
C1490 H1476 0.929 . S
C1490 C1489 1.399 . S
C1490 C1491 1.385 . S
C1491 H1477 0.931 . S
C1491 C1490 1.385 . S
C1491 C1492 1.389 . S
C1492 C1491 1.389 . S
C1492 C1493 1.387 . S
C1493 H1478 0.930 . S
C1493 C1488 1.390 . S
C1493 C1492 1.387 . S
H1494 C1506 0.930 . S
H1495 C1508 0.930 . S
H1496 C1509 0.930 . S
H1497 C1513 0.959 . S
H1498 C1513 0.959 . S
H1499 C1513 0.961 . S
H1500 C1514 0.960 . S
H1501 C1514 0.961 . S
H1502 C1514 0.959 . S
H1503 C1517 0.929 . S
H1504 C1518 0.931 . S
H1505 C1520 0.930 . S
C1506 H1494 0.930 . S
C1506 C1507 1.399 . S
C1506 C1511 1.399 . S
C1507 C1506 1.399 . S
C1507 C1508 1.376 . S
C1508 H1495 0.930 . S
C1508 C1507 1.376 . S
C1508 C1509 1.388 . S
C1509 H1496 0.930 . S
C1509 C1508 1.388 . S
C1509 C1510 1.390 . S
C1510 C1509 1.390 . S
C1510 C1511 1.394 . S
C1510 C1516 1.465 . S
C1511 C1506 1.399 . S
C1511 C1510 1.394 . S
C1511 C1512 1.516 . S
C1512 C1511 1.516 . S
C1512 C1513 1.502 . S
C1512 C1514 1.561 . S
C1512 C1515 1.526 . S
C1513 H1497 0.959 . S
C1513 H1498 0.959 . S
C1513 H1499 0.961 . S
C1513 C1512 1.502 . S
C1514 H1500 0.960 . S
C1514 H1501 0.961 . S
C1514 H1502 0.959 . S
C1514 C1512 1.561 . S
C1515 C1512 1.526 . S
C1515 C1516 1.396 . S
C1515 C1520 1.390 . S
C1516 C1510 1.465 . S
C1516 C1515 1.396 . S
C1516 C1517 1.399 . S
C1517 H1503 0.929 . S
C1517 C1516 1.399 . S
C1517 C1518 1.385 . S
C1518 H1504 0.931 . S
C1518 C1517 1.385 . S
C1518 C1519 1.389 . S
C1519 C1518 1.389 . S
C1519 C1520 1.387 . S
C1520 H1505 0.930 . S
C1520 C1515 1.390 . S
C1520 C1519 1.387 . S
H1521 C1533 0.930 . S
H1522 C1535 0.930 . S
H1523 C1536 0.930 . S
H1524 C1540 0.959 . S
H1525 C1540 0.959 . S
H1526 C1540 0.961 . S
H1527 C1541 0.960 . S
H1528 C1541 0.961 . S
H1529 C1541 0.959 . S
H1530 C1544 0.929 . S
H1531 C1545 0.931 . S
H1532 C1547 0.930 . S
C1533 H1521 0.930 . S
C1533 C1534 1.399 . S
C1533 C1538 1.399 . S
C1534 C1533 1.399 . S
C1534 C1535 1.376 . S
C1535 H1522 0.930 . S
C1535 C1534 1.376 . S
C1535 C1536 1.388 . S
C1536 H1523 0.930 . S
C1536 C1535 1.388 . S
C1536 C1537 1.390 . S
C1537 C1536 1.390 . S
C1537 C1538 1.394 . S
C1537 C1543 1.465 . S
C1538 C1533 1.399 . S
C1538 C1537 1.394 . S
C1538 C1539 1.516 . S
C1539 C1538 1.516 . S
C1539 C1540 1.502 . S
C1539 C1541 1.561 . S
C1539 C1542 1.526 . S
C1540 H1524 0.959 . S
C1540 H1525 0.959 . S
C1540 H1526 0.961 . S
C1540 C1539 1.502 . S
C1541 H1527 0.960 . S
C1541 H1528 0.961 . S
C1541 H1529 0.959 . S
C1541 C1539 1.561 . S
C1542 C1539 1.526 . S
C1542 C1543 1.396 . S
C1542 C1547 1.390 . S
C1543 C1537 1.465 . S
C1543 C1542 1.396 . S
C1543 C1544 1.399 . S
C1544 H1530 0.929 . S
C1544 C1543 1.399 . S
C1544 C1545 1.385 . S
C1545 H1531 0.931 . S
C1545 C1544 1.385 . S
C1545 C1546 1.389 . S
C1546 C1545 1.389 . S
C1546 C1547 1.387 . S
C1547 H1532 0.930 . S
C1547 C1542 1.390 . S
C1547 C1546 1.387 . S
H1548 C1560 0.930 . S
H1549 C1562 0.930 . S
H1550 C1563 0.930 . S
H1551 C1567 0.959 . S
H1552 C1567 0.959 . S
H1553 C1567 0.961 . S
H1554 C1568 0.960 . S
H1555 C1568 0.961 . S
H1556 C1568 0.959 . S
H1557 C1571 0.929 . S
H1558 C1572 0.931 . S
H1559 C1574 0.930 . S
C1560 H1548 0.930 . S
C1560 C1561 1.399 . S
C1560 C1565 1.399 . S
C1561 C1560 1.399 . S
C1561 C1562 1.376 . S
C1562 H1549 0.930 . S
C1562 C1561 1.376 . S
C1562 C1563 1.388 . S
C1563 H1550 0.930 . S
C1563 C1562 1.388 . S
C1563 C1564 1.390 . S
C1564 C1563 1.390 . S
C1564 C1565 1.394 . S
C1564 C1570 1.465 . S
C1565 C1560 1.399 . S
C1565 C1564 1.394 . S
C1565 C1566 1.516 . S
C1566 C1565 1.516 . S
C1566 C1567 1.502 . S
C1566 C1568 1.561 . S
C1566 C1569 1.526 . S
C1567 H1551 0.959 . S
C1567 H1552 0.959 . S
C1567 H1553 0.961 . S
C1567 C1566 1.502 . S
C1568 H1554 0.960 . S
C1568 H1555 0.961 . S
C1568 H1556 0.959 . S
C1568 C1566 1.561 . S
C1569 C1566 1.526 . S
C1569 C1570 1.396 . S
C1569 C1574 1.390 . S
C1570 C1564 1.465 . S
C1570 C1569 1.396 . S
C1570 C1571 1.399 . S
C1571 H1557 0.929 . S
C1571 C1570 1.399 . S
C1571 C1572 1.385 . S
C1572 H1558 0.931 . S
C1572 C1571 1.385 . S
C1572 C1573 1.389 . S
C1573 C1572 1.389 . S
C1573 C1574 1.387 . S
C1574 H1559 0.930 . S
C1574 C1569 1.390 . S
C1574 C1573 1.387 . S
H1575 C1587 0.930 . S
H1576 C1589 0.930 . S
H1577 C1590 0.930 . S
H1578 C1594 0.959 . S
H1579 C1594 0.959 . S
H1580 C1594 0.961 . S
H1581 C1595 0.960 . S
H1582 C1595 0.961 . S
H1583 C1595 0.959 . S
H1584 C1598 0.929 . S
H1585 C1599 0.931 . S
H1586 C1601 0.930 . S
C1587 H1575 0.930 . S
C1587 C1588 1.399 1_556 S
C1587 C1592 1.399 . S
C1588 C1587 1.399 1_554 S
C1588 C1589 1.376 . S
C1589 H1576 0.930 . S
C1589 C1588 1.376 . S
C1589 C1590 1.388 . S
C1590 H1577 0.930 . S
C1590 C1589 1.388 . S
C1590 C1591 1.390 . S
C1591 C1590 1.390 . S
C1591 C1592 1.394 1_554 S
C1591 C1597 1.465 . S
C1592 C1587 1.399 . S
C1592 C1591 1.394 1_556 S
C1592 C1593 1.516 . S
C1593 C1592 1.516 . S
C1593 C1594 1.502 . S
C1593 C1595 1.561 . S
C1593 C1596 1.526 . S
C1594 H1578 0.959 . S
C1594 H1579 0.959 . S
C1594 H1580 0.961 . S
C1594 C1593 1.502 . S
C1595 H1581 0.960 . S
C1595 H1582 0.961 . S
C1595 H1583 0.959 . S
C1595 C1593 1.561 . S
C1596 C1593 1.526 . S
C1596 C1597 1.396 1_556 S
C1596 C1601 1.390 . S
C1597 C1591 1.465 . S
C1597 C1596 1.396 1_554 S
C1597 C1598 1.399 . S
C1598 H1584 0.929 . S
C1598 C1597 1.399 . S
C1598 C1599 1.385 . S
C1599 H1585 0.931 . S
C1599 C1598 1.385 . S
C1599 C1600 1.415 . S
C1600 C1599 1.415 . S
C1600 C1601 1.369 1_554 S
C1601 H1586 0.930 . S
C1601 C1596 1.390 . S
C1601 C1600 1.369 1_556 S
H1602 C1614 0.930 . S
H1603 C1616 0.930 . S
H1604 C1617 0.930 . S
H1605 C1621 0.959 . S
H1606 C1621 0.959 . S
H1607 C1621 0.961 . S
H1608 C1622 0.960 . S
H1609 C1622 0.961 . S
H1610 C1622 0.959 . S
H1611 C1625 0.929 . S
H1612 C1626 0.931 . S
H1613 C1628 0.930 . S
C1614 H1602 0.930 . S
C1614 C1615 1.399 . S
C1614 C1619 1.399 . S
C1615 C1614 1.399 . S
C1615 C1616 1.376 . S
C1616 H1603 0.930 . S
C1616 C1615 1.376 . S
C1616 C1617 1.388 . S
C1617 H1604 0.930 . S
C1617 C1616 1.388 . S
C1617 C1618 1.390 . S
C1618 C1617 1.390 . S
C1618 C1619 1.394 . S
C1618 C1624 1.465 . S
C1619 C1614 1.399 . S
C1619 C1618 1.394 . S
C1619 C1620 1.516 . S
C1620 C1619 1.516 . S
C1620 C1621 1.502 . S
C1620 C1622 1.561 . S
C1620 C1623 1.526 . S
C1621 H1605 0.959 . S
C1621 H1606 0.959 . S
C1621 H1607 0.961 . S
C1621 C1620 1.502 . S
C1622 H1608 0.960 . S
C1622 H1609 0.961 . S
C1622 H1610 0.959 . S
C1622 C1620 1.561 . S
C1623 C1620 1.526 . S
C1623 C1624 1.396 . S
C1623 C1628 1.390 . S
C1624 C1618 1.465 . S
C1624 C1623 1.396 . S
C1624 C1625 1.399 . S
C1625 H1611 0.929 . S
C1625 C1624 1.399 . S
C1625 C1626 1.385 . S
C1626 H1612 0.931 . S
C1626 C1625 1.385 . S
C1626 C1627 1.389 . S
C1627 C1626 1.389 . S
C1627 C1628 1.387 . S
C1628 H1613 0.930 . S
C1628 C1623 1.390 . S
C1628 C1627 1.387 . S
H1629 C1641 0.930 . S
H1630 C1643 0.930 . S
H1631 C1644 0.930 . S
H1632 C1648 0.959 . S
H1633 C1648 0.959 . S
H1634 C1648 0.961 . S
H1635 C1649 0.960 . S
H1636 C1649 0.961 . S
H1637 C1649 0.959 . S
H1638 C1652 0.929 . S
H1639 C1653 0.931 . S
H1640 C1655 0.930 . S
C1641 H1629 0.930 . S
C1641 C1642 1.399 . S
C1641 C1646 1.399 . S
C1642 C1641 1.399 . S
C1642 C1643 1.376 . S
C1643 H1630 0.930 . S
C1643 C1642 1.376 . S
C1643 C1644 1.388 . S
C1644 H1631 0.930 . S
C1644 C1643 1.388 . S
C1644 C1645 1.390 . S
C1645 C1644 1.390 . S
C1645 C1646 1.394 . S
C1645 C1651 1.465 . S
C1646 C1641 1.399 . S
C1646 C1645 1.394 . S
C1646 C1647 1.516 . S
C1647 C1646 1.516 . S
C1647 C1648 1.502 . S
C1647 C1649 1.561 . S
C1647 C1650 1.526 . S
C1648 H1632 0.959 . S
C1648 H1633 0.959 . S
C1648 H1634 0.961 . S
C1648 C1647 1.502 . S
C1649 H1635 0.960 . S
C1649 H1636 0.961 . S
C1649 H1637 0.959 . S
C1649 C1647 1.561 . S
C1650 C1647 1.526 . S
C1650 C1651 1.396 . S
C1650 C1655 1.390 . S
C1651 C1645 1.465 . S
C1651 C1650 1.396 . S
C1651 C1652 1.399 . S
C1652 H1638 0.929 . S
C1652 C1651 1.399 . S
C1652 C1653 1.385 . S
C1653 H1639 0.931 . S
C1653 C1652 1.385 . S
C1653 C1654 1.389 . S
C1654 C1653 1.389 . S
C1654 C1655 1.387 . S
C1655 H1640 0.930 . S
C1655 C1650 1.390 . S
C1655 C1654 1.387 . S
H1656 C1668 0.930 . S
H1657 C1670 0.930 . S
H1658 C1671 0.930 . S
H1659 C1675 0.959 . S
H1660 C1675 0.959 . S
H1661 C1675 0.961 . S
H1662 C1676 0.960 . S
H1663 C1676 0.961 . S
H1664 C1676 0.959 . S
H1665 C1679 0.929 . S
H1666 C1680 0.931 . S
H1667 C1682 0.930 . S
C1668 H1656 0.930 . S
C1668 C1669 1.399 . S
C1668 C1673 1.399 . S
C1669 C1668 1.399 . S
C1669 C1670 1.376 . S
C1670 H1657 0.930 . S
C1670 C1669 1.376 . S
C1670 C1671 1.388 . S
C1671 H1658 0.930 . S
C1671 C1670 1.388 . S
C1671 C1672 1.390 . S
C1672 C1671 1.390 . S
C1672 C1673 1.394 . S
C1672 C1678 1.465 . S
C1673 C1668 1.399 . S
C1673 C1672 1.394 . S
C1673 C1674 1.516 . S
C1674 C1673 1.516 . S
C1674 C1675 1.502 . S
C1674 C1676 1.561 . S
C1674 C1677 1.526 . S
C1675 H1659 0.959 . S
C1675 H1660 0.959 . S
C1675 H1661 0.961 . S
C1675 C1674 1.502 . S
C1676 H1662 0.960 . S
C1676 H1663 0.961 . S
C1676 H1664 0.959 . S
C1676 C1674 1.561 . S
C1677 C1674 1.526 . S
C1677 C1678 1.396 . S
C1677 C1682 1.390 . S
C1678 C1672 1.465 . S
C1678 C1677 1.396 . S
C1678 C1679 1.399 . S
C1679 H1665 0.929 . S
C1679 C1678 1.399 . S
C1679 C1680 1.385 . S
C1680 H1666 0.931 . S
C1680 C1679 1.385 . S
C1680 C1681 1.389 . S
C1681 C1680 1.389 . S
C1681 C1682 1.387 . S
C1682 H1667 0.930 . S
C1682 C1677 1.390 . S
C1682 C1681 1.387 . S
H1683 C1695 0.930 . S
H1684 C1697 0.930 . S
H1685 C1698 0.930 . S
H1686 C1702 0.959 . S
H1687 C1702 0.959 . S
H1688 C1702 0.961 . S
H1689 C1703 0.960 . S
H1690 C1703 0.961 . S
H1691 C1703 0.959 . S
H1692 C1706 0.929 . S
H1693 C1707 0.931 . S
H1694 C1709 0.930 . S
C1695 H1683 0.930 . S
C1695 C1696 1.399 . S
C1695 C1700 1.399 . S
C1696 C1695 1.399 . S
C1696 C1697 1.376 . S
C1697 H1684 0.930 . S
C1697 C1696 1.376 . S
C1697 C1698 1.388 . S
C1698 H1685 0.930 . S
C1698 C1697 1.388 . S
C1698 C1699 1.390 . S
C1699 C1698 1.390 . S
C1699 C1700 1.394 . S
C1699 C1705 1.465 . S
C1700 C1695 1.399 . S
C1700 C1699 1.394 . S
C1700 C1701 1.516 . S
C1701 C1700 1.516 . S
C1701 C1702 1.502 . S
C1701 C1703 1.561 . S
C1701 C1704 1.526 . S
C1702 H1686 0.959 . S
C1702 H1687 0.959 . S
C1702 H1688 0.961 . S
C1702 C1701 1.502 . S
C1703 H1689 0.960 . S
C1703 H1690 0.961 . S
C1703 H1691 0.959 . S
C1703 C1701 1.561 . S
C1704 C1701 1.526 . S
C1704 C1705 1.396 . S
C1704 C1709 1.390 . S
C1705 C1699 1.465 . S
C1705 C1704 1.396 . S
C1705 C1706 1.399 . S
C1706 H1692 0.929 . S
C1706 C1705 1.399 . S
C1706 C1707 1.385 . S
C1707 H1693 0.931 . S
C1707 C1706 1.385 . S
C1707 C1708 1.389 . S
C1708 C1707 1.389 . S
C1708 C1709 1.387 . S
C1709 H1694 0.930 . S
C1709 C1704 1.390 . S
C1709 C1708 1.387 . S
H1710 C1722 0.930 . S
H1711 C1724 0.930 . S
H1712 C1725 0.930 . S
H1713 C1729 0.959 . S
H1714 C1729 0.959 . S
H1715 C1729 0.961 . S
H1716 C1730 0.960 . S
H1717 C1730 0.961 . S
H1718 C1730 0.959 . S
H1719 C1733 0.929 . S
H1720 C1734 0.931 . S
H1721 C1736 0.930 . S
C1722 H1710 0.930 . S
C1722 C1723 1.399 . S
C1722 C1727 1.399 . S
C1723 C1722 1.399 . S
C1723 C1724 1.376 . S
C1724 H1711 0.930 . S
C1724 C1723 1.376 . S
C1724 C1725 1.388 . S
C1725 H1712 0.930 . S
C1725 C1724 1.388 . S
C1725 C1726 1.390 . S
C1726 C1725 1.390 . S
C1726 C1727 1.394 . S
C1726 C1732 1.465 . S
C1727 C1722 1.399 . S
C1727 C1726 1.394 . S
C1727 C1728 1.516 . S
C1728 C1727 1.516 . S
C1728 C1729 1.502 . S
C1728 C1730 1.561 . S
C1728 C1731 1.526 . S
C1729 H1713 0.959 . S
C1729 H1714 0.959 . S
C1729 H1715 0.961 . S
C1729 C1728 1.502 . S
C1730 H1716 0.960 . S
C1730 H1717 0.961 . S
C1730 H1718 0.959 . S
C1730 C1728 1.561 . S
C1731 C1728 1.526 . S
C1731 C1732 1.396 . S
C1731 C1736 1.390 . S
C1732 C1726 1.465 . S
C1732 C1731 1.396 . S
C1732 C1733 1.399 . S
C1733 H1719 0.929 . S
C1733 C1732 1.399 . S
C1733 C1734 1.385 . S
C1734 H1720 0.931 . S
C1734 C1733 1.385 . S
C1734 C1735 1.389 . S
C1735 C1734 1.389 . S
C1735 C1736 1.387 . S
C1736 H1721 0.930 . S
C1736 C1731 1.390 . S
C1736 C1735 1.387 . S
H1737 C1749 0.930 . S
H1738 C1751 0.930 . S
H1739 C1752 0.930 . S
H1740 C1756 0.959 . S
H1741 C1756 0.959 . S
H1742 C1756 0.961 . S
H1743 C1757 0.960 . S
H1744 C1757 0.961 . S
H1745 C1757 0.959 . S
H1746 C1760 0.929 . S
H1747 C1761 0.931 . S
H1748 C1763 0.930 . S
C1749 H1737 0.930 . S
C1749 C1750 1.399 . S
C1749 C1754 1.399 . S
C1750 C1749 1.399 . S
C1750 C1751 1.376 . S
C1751 H1738 0.930 . S
C1751 C1750 1.376 . S
C1751 C1752 1.388 . S
C1752 H1739 0.930 . S
C1752 C1751 1.388 . S
C1752 C1753 1.390 . S
C1753 C1752 1.390 . S
C1753 C1754 1.394 . S
C1753 C1759 1.465 . S
C1754 C1749 1.399 . S
C1754 C1753 1.394 . S
C1754 C1755 1.516 . S
C1755 C1754 1.516 . S
C1755 C1756 1.502 . S
C1755 C1757 1.561 . S
C1755 C1758 1.526 . S
C1756 H1740 0.959 . S
C1756 H1741 0.959 . S
C1756 H1742 0.961 . S
C1756 C1755 1.502 . S
C1757 H1743 0.960 . S
C1757 H1744 0.961 . S
C1757 H1745 0.959 . S
C1757 C1755 1.561 . S
C1758 C1755 1.526 . S
C1758 C1759 1.396 . S
C1758 C1763 1.390 . S
C1759 C1753 1.465 . S
C1759 C1758 1.396 . S
C1759 C1760 1.399 . S
C1760 H1746 0.929 . S
C1760 C1759 1.399 . S
C1760 C1761 1.385 . S
C1761 H1747 0.931 . S
C1761 C1760 1.385 . S
C1761 C1762 1.389 . S
C1762 C1761 1.389 . S
C1762 C1763 1.387 . S
C1763 H1748 0.930 . S
C1763 C1758 1.390 . S
C1763 C1762 1.387 . S
H1764 C1776 0.930 . S
H1765 C1778 0.930 . S
H1766 C1779 0.930 . S
H1767 C1783 0.959 . S
H1768 C1783 0.959 . S
H1769 C1783 0.961 . S
H1770 C1784 0.960 . S
H1771 C1784 0.961 . S
H1772 C1784 0.959 . S
H1773 C1787 0.929 . S
H1774 C1788 0.931 . S
H1775 C1790 0.930 . S
C1776 H1764 0.930 . S
C1776 C1777 1.399 . S
C1776 C1781 1.399 . S
C1777 C1776 1.399 . S
C1777 C1778 1.376 . S
C1778 H1765 0.930 . S
C1778 C1777 1.376 . S
C1778 C1779 1.388 . S
C1779 H1766 0.930 . S
C1779 C1778 1.388 . S
C1779 C1780 1.390 . S
C1780 C1779 1.390 . S
C1780 C1781 1.394 . S
C1780 C1786 1.465 . S
C1781 C1776 1.399 . S
C1781 C1780 1.394 . S
C1781 C1782 1.516 . S
C1782 C1781 1.516 . S
C1782 C1783 1.502 . S
C1782 C1784 1.561 . S
C1782 C1785 1.526 . S
C1783 H1767 0.959 . S
C1783 H1768 0.959 . S
C1783 H1769 0.961 . S
C1783 C1782 1.502 . S
C1784 H1770 0.960 . S
C1784 H1771 0.961 . S
C1784 H1772 0.959 . S
C1784 C1782 1.561 . S
C1785 C1782 1.526 . S
C1785 C1786 1.396 . S
C1785 C1790 1.390 . S
C1786 C1780 1.465 . S
C1786 C1785 1.396 . S
C1786 C1787 1.399 . S
C1787 H1773 0.929 . S
C1787 C1786 1.399 . S
C1787 C1788 1.385 . S
C1788 H1774 0.931 . S
C1788 C1787 1.385 . S
C1788 C1789 1.389 . S
C1789 C1788 1.389 . S
C1789 C1790 1.387 . S
C1790 H1775 0.930 . S
C1790 C1785 1.390 . S
C1790 C1789 1.387 . S
H1791 C1803 0.930 . S
H1792 C1805 0.930 . S
H1793 C1806 0.930 . S
H1794 C1810 0.959 . S
H1795 C1810 0.959 . S
H1796 C1810 0.961 . S
H1797 C1811 0.960 . S
H1798 C1811 0.961 . S
H1799 C1811 0.959 . S
H1800 C1814 0.929 . S
H1801 C1815 0.931 . S
H1802 C1817 0.930 . S
C1803 H1791 0.930 . S
C1803 C1804 1.399 . S
C1803 C1808 1.399 . S
C1804 C1803 1.399 . S
C1804 C1805 1.376 . S
C1805 H1792 0.930 . S
C1805 C1804 1.376 . S
C1805 C1806 1.388 . S
C1806 H1793 0.930 . S
C1806 C1805 1.388 . S
C1806 C1807 1.390 . S
C1807 C1806 1.390 . S
C1807 C1808 1.394 . S
C1807 C1813 1.465 . S
C1808 C1803 1.399 . S
C1808 C1807 1.394 . S
C1808 C1809 1.516 . S
C1809 C1808 1.516 . S
C1809 C1810 1.502 . S
C1809 C1811 1.561 . S
C1809 C1812 1.526 . S
C1810 H1794 0.959 . S
C1810 H1795 0.959 . S
C1810 H1796 0.961 . S
C1810 C1809 1.502 . S
C1811 H1797 0.960 . S
C1811 H1798 0.961 . S
C1811 H1799 0.959 . S
C1811 C1809 1.561 . S
C1812 C1809 1.526 . S
C1812 C1813 1.396 . S
C1812 C1817 1.390 . S
C1813 C1807 1.465 . S
C1813 C1812 1.396 . S
C1813 C1814 1.399 . S
C1814 H1800 0.929 . S
C1814 C1813 1.399 . S
C1814 C1815 1.385 . S
C1815 H1801 0.931 . S
C1815 C1814 1.385 . S
C1815 C1816 1.389 . S
C1816 C1815 1.389 . S
C1816 C1817 1.387 . S
C1817 H1802 0.930 . S
C1817 C1812 1.390 . S
C1817 C1816 1.387 . S
H1818 C1830 0.930 . S
H1819 C1832 0.930 . S
H1820 C1833 0.930 . S
H1821 C1837 0.959 . S
H1822 C1837 0.959 . S
H1823 C1837 0.961 . S
H1824 C1838 0.960 . S
H1825 C1838 0.961 . S
H1826 C1838 0.959 . S
H1827 C1841 0.929 . S
H1828 C1842 0.931 . S
H1829 C1844 0.930 . S
C1830 H1818 0.930 . S
C1830 C1831 1.399 . S
C1830 C1835 1.399 . S
C1831 C1830 1.399 . S
C1831 C1832 1.376 . S
C1832 H1819 0.930 . S
C1832 C1831 1.376 . S
C1832 C1833 1.388 . S
C1833 H1820 0.930 . S
C1833 C1832 1.388 . S
C1833 C1834 1.390 . S
C1834 C1833 1.390 . S
C1834 C1835 1.394 . S
C1834 C1840 1.465 . S
C1835 C1830 1.399 . S
C1835 C1834 1.394 . S
C1835 C1836 1.516 . S
C1836 C1835 1.516 . S
C1836 C1837 1.502 . S
C1836 C1838 1.561 . S
C1836 C1839 1.526 . S
C1837 H1821 0.959 . S
C1837 H1822 0.959 . S
C1837 H1823 0.961 . S
C1837 C1836 1.502 . S
C1838 H1824 0.960 . S
C1838 H1825 0.961 . S
C1838 H1826 0.959 . S
C1838 C1836 1.561 . S
C1839 C1836 1.526 . S
C1839 C1840 1.396 . S
C1839 C1844 1.390 . S
C1840 C1834 1.465 . S
C1840 C1839 1.396 . S
C1840 C1841 1.399 . S
C1841 H1827 0.929 . S
C1841 C1840 1.399 . S
C1841 C1842 1.385 . S
C1842 H1828 0.931 . S
C1842 C1841 1.385 . S
C1842 C1843 1.389 . S
C1843 C1842 1.389 . S
C1843 C1844 1.387 . S
C1844 H1829 0.930 . S
C1844 C1839 1.390 . S
C1844 C1843 1.387 . S
H1845 C1857 0.930 . S
H1846 C1859 0.930 . S
H1847 C1860 0.930 . S
H1848 C1864 0.959 . S
H1849 C1864 0.959 . S
H1850 C1864 0.961 . S
H1851 C1865 0.960 . S
H1852 C1865 0.961 . S
H1853 C1865 0.959 . S
H1854 C1868 0.929 . S
H1855 C1869 0.931 . S
H1856 C1871 0.930 . S
C1857 H1845 0.930 . S
C1857 C1858 1.399 . S
C1857 C1862 1.399 . S
C1858 C1857 1.399 . S
C1858 C1859 1.376 . S
C1859 H1846 0.930 . S
C1859 C1858 1.376 . S
C1859 C1860 1.388 . S
C1860 H1847 0.930 . S
C1860 C1859 1.388 . S
C1860 C1861 1.390 . S
C1861 C1860 1.390 . S
C1861 C1862 1.394 . S
C1861 C1867 1.465 . S
C1862 C1857 1.399 . S
C1862 C1861 1.394 . S
C1862 C1863 1.516 . S
C1863 C1862 1.516 . S
C1863 C1864 1.502 . S
C1863 C1865 1.561 . S
C1863 C1866 1.526 . S
C1864 H1848 0.959 . S
C1864 H1849 0.959 . S
C1864 H1850 0.961 . S
C1864 C1863 1.502 . S
C1865 H1851 0.960 . S
C1865 H1852 0.961 . S
C1865 H1853 0.959 . S
C1865 C1863 1.561 . S
C1866 C1863 1.526 . S
C1866 C1867 1.396 . S
C1866 C1871 1.390 . S
C1867 C1861 1.465 . S
C1867 C1866 1.396 . S
C1867 C1868 1.399 . S
C1868 H1854 0.929 . S
C1868 C1867 1.399 . S
C1868 C1869 1.385 . S
C1869 H1855 0.931 . S
C1869 C1868 1.385 . S
C1869 C1870 1.389 . S
C1870 C1869 1.389 . S
C1870 C1871 1.387 . S
C1871 H1856 0.930 . S
C1871 C1866 1.390 . S
C1871 C1870 1.387 . S
H1872 C1884 0.930 . S
H1873 C1886 0.930 . S
H1874 C1887 0.930 . S
H1875 C1891 0.959 . S
H1876 C1891 0.959 . S
H1877 C1891 0.961 . S
H1878 C1892 0.960 . S
H1879 C1892 0.961 . S
H1880 C1892 0.959 . S
H1881 C1895 0.929 . S
H1882 C1896 0.931 . S
H1883 C1898 0.930 . S
C1884 H1872 0.930 . S
C1884 C1885 1.399 . S
C1884 C1889 1.399 . S
C1885 C1884 1.399 . S
C1885 C1886 1.376 . S
C1886 H1873 0.930 . S
C1886 C1885 1.376 . S
C1886 C1887 1.388 . S
C1887 H1874 0.930 . S
C1887 C1886 1.388 . S
C1887 C1888 1.390 . S
C1888 C1887 1.390 . S
C1888 C1889 1.394 . S
C1888 C1894 1.465 . S
C1889 C1884 1.399 . S
C1889 C1888 1.394 . S
C1889 C1890 1.516 . S
C1890 C1889 1.516 . S
C1890 C1891 1.502 . S
C1890 C1892 1.561 . S
C1890 C1893 1.526 . S
C1891 H1875 0.959 . S
C1891 H1876 0.959 . S
C1891 H1877 0.961 . S
C1891 C1890 1.502 . S
C1892 H1878 0.960 . S
C1892 H1879 0.961 . S
C1892 H1880 0.959 . S
C1892 C1890 1.561 . S
C1893 C1890 1.526 . S
C1893 C1894 1.396 . S
C1893 C1898 1.390 . S
C1894 C1888 1.465 . S
C1894 C1893 1.396 . S
C1894 C1895 1.399 . S
C1895 H1881 0.929 . S
C1895 C1894 1.399 . S
C1895 C1896 1.385 . S
C1896 H1882 0.931 . S
C1896 C1895 1.385 . S
C1896 C1897 1.389 . S
C1897 C1896 1.389 . S
C1897 C1898 1.387 . S
C1898 H1883 0.930 . S
C1898 C1893 1.390 . S
C1898 C1897 1.387 . S
H1899 C1911 0.930 . S
H1900 C1913 0.930 . S
H1901 C1914 0.930 . S
H1902 C1918 0.959 . S
H1903 C1918 0.959 . S
H1904 C1918 0.961 . S
H1905 C1919 0.960 . S
H1906 C1919 0.961 . S
H1907 C1919 0.959 . S
H1908 C1922 0.929 . S
H1909 C1923 0.931 . S
H1910 C1925 0.930 . S
C1911 H1899 0.930 . S
C1911 C1912 1.399 . S
C1911 C1916 1.399 . S
C1912 C1911 1.399 . S
C1912 C1913 1.376 . S
C1913 H1900 0.930 . S
C1913 C1912 1.376 . S
C1913 C1914 1.388 . S
C1914 H1901 0.930 . S
C1914 C1913 1.388 . S
C1914 C1915 1.390 . S
C1915 C1914 1.390 . S
C1915 C1916 1.394 . S
C1915 C1921 1.465 . S
C1916 C1911 1.399 . S
C1916 C1915 1.394 . S
C1916 C1917 1.516 . S
C1917 C1916 1.516 . S
C1917 C1918 1.502 . S
C1917 C1919 1.561 . S
C1917 C1920 1.526 . S
C1918 H1902 0.959 . S
C1918 H1903 0.959 . S
C1918 H1904 0.961 . S
C1918 C1917 1.502 . S
C1919 H1905 0.960 . S
C1919 H1906 0.961 . S
C1919 H1907 0.959 . S
C1919 C1917 1.561 . S
C1920 C1917 1.526 . S
C1920 C1921 1.396 . S
C1920 C1925 1.390 . S
C1921 C1915 1.465 . S
C1921 C1920 1.396 . S
C1921 C1922 1.399 . S
C1922 H1908 0.929 . S
C1922 C1921 1.399 . S
C1922 C1923 1.385 . S
C1923 H1909 0.931 . S
C1923 C1922 1.385 . S
C1923 C1924 1.389 . S
C1924 C1923 1.389 . S
C1924 C1925 1.387 . S
C1925 H1910 0.930 . S
C1925 C1920 1.390 . S
C1925 C1924 1.387 . S
H1926 C1938 0.930 . S
H1927 C1940 0.930 . S
H1928 C1941 0.930 . S
H1929 C1945 0.959 . S
H1930 C1945 0.959 . S
H1931 C1945 0.961 . S
H1932 C1946 0.960 . S
H1933 C1946 0.961 . S
H1934 C1946 0.959 . S
H1935 C1949 0.929 . S
H1936 C1950 0.931 . S
H1937 C1952 0.930 . S
C1938 H1926 0.930 . S
C1938 C1939 1.399 . S
C1938 C1943 1.399 . S
C1939 C1938 1.399 . S
C1939 C1940 1.376 . S
C1940 H1927 0.930 . S
C1940 C1939 1.376 . S
C1940 C1941 1.388 . S
C1941 H1928 0.930 . S
C1941 C1940 1.388 . S
C1941 C1942 1.390 . S
C1942 C1941 1.390 . S
C1942 C1943 1.394 . S
C1942 C1948 1.465 . S
C1943 C1938 1.399 . S
C1943 C1942 1.394 . S
C1943 C1944 1.516 . S
C1944 C1943 1.516 . S
C1944 C1945 1.502 . S
C1944 C1946 1.561 . S
C1944 C1947 1.526 . S
C1945 H1929 0.959 . S
C1945 H1930 0.959 . S
C1945 H1931 0.961 . S
C1945 C1944 1.502 . S
C1946 H1932 0.960 . S
C1946 H1933 0.961 . S
C1946 H1934 0.959 . S
C1946 C1944 1.561 . S
C1947 C1944 1.526 . S
C1947 C1948 1.396 . S
C1947 C1952 1.390 . S
C1948 C1942 1.465 . S
C1948 C1947 1.396 . S
C1948 C1949 1.399 . S
C1949 H1935 0.929 . S
C1949 C1948 1.399 . S
C1949 C1950 1.385 . S
C1950 H1936 0.931 . S
C1950 C1949 1.385 . S
C1950 C1951 1.389 . S
C1951 C1950 1.389 . S
C1951 C1952 1.387 . S
C1952 H1937 0.930 . S
C1952 C1947 1.390 . S
C1952 C1951 1.387 . S
H1953 C1965 0.930 . S
H1954 C1967 0.930 . S
H1955 C1968 0.930 . S
H1956 C1972 0.959 . S
H1957 C1972 0.959 . S
H1958 C1972 0.961 . S
H1959 C1973 0.960 . S
H1960 C1973 0.961 . S
H1961 C1973 0.959 . S
H1962 C1976 0.929 . S
H1963 C1977 0.931 . S
H1964 C1979 0.930 . S
C1965 H1953 0.930 . S
C1965 C1966 1.399 . S
C1965 C1970 1.399 . S
C1966 C1965 1.399 . S
C1966 C1967 1.376 . S
C1967 H1954 0.930 . S
C1967 C1966 1.376 . S
C1967 C1968 1.388 . S
C1968 H1955 0.930 . S
C1968 C1967 1.388 . S
C1968 C1969 1.390 . S
C1969 C1968 1.390 . S
C1969 C1970 1.394 . S
C1969 C1975 1.465 . S
C1970 C1965 1.399 . S
C1970 C1969 1.394 . S
C1970 C1971 1.516 . S
C1971 C1970 1.516 . S
C1971 C1972 1.502 . S
C1971 C1973 1.561 . S
C1971 C1974 1.526 . S
C1972 H1956 0.959 . S
C1972 H1957 0.959 . S
C1972 H1958 0.961 . S
C1972 C1971 1.502 . S
C1973 H1959 0.960 . S
C1973 H1960 0.961 . S
C1973 H1961 0.959 . S
C1973 C1971 1.561 . S
C1974 C1971 1.526 . S
C1974 C1975 1.396 . S
C1974 C1979 1.390 . S
C1975 C1969 1.465 . S
C1975 C1974 1.396 . S
C1975 C1976 1.399 . S
C1976 H1962 0.929 . S
C1976 C1975 1.399 . S
C1976 C1977 1.385 . S
C1977 H1963 0.931 . S
C1977 C1976 1.385 . S
C1977 C1978 1.389 . S
C1978 C1977 1.389 . S
C1978 C1979 1.387 . S
C1979 H1964 0.930 . S
C1979 C1974 1.390 . S
C1979 C1978 1.387 . S
C1021 C476 1.408 . S
C1033 C70 1.158 . S
C1048 C154 1.134 . S
C1060 C56 1.408 . S
C1075 C238 1.301 . S
C1087 C140 1.417 . S
C1102 C224 1.319 . S
C1114 C322 1.293 . S
C1129 C308 1.308 . S
C1141 C406 1.245 . S
C1156 C490 1.313 . S
C1168 C392 1.442 . S
C1183 C644 1.387 . S
C1195 C574 1.178 . S
C1210 C658 1.305 . S
C1222 C728 1.447 . S
C1237 C812 1.417 . S
C1249 C742 1.137 . S
C1264 C896 1.372 . S
C1276 C826 1.233 . S
C1291 C980 1.401 . S
C1303 C910 1.357 . S
C1318 C560 1.265 . S
C1330 C994 1.305 . S
C1345 C987 3.461 . S
C1357 C67 3.456 . S
C1372 C151 2.840 . S
C1384 C567 2.858 . S
C1399 C651 3.158 . S
C1411 C235 3.161 . S
C1426 C735 3.460 . S
C1438 C319 3.459 . S
C1453 C819 2.862 . S
C1465 C403 2.846 . S
C1480 C487 3.143 . S
C1492 C903 3.171 . S
C1507 C571 3.447 . S
C1519 C147 3.475 . S
C1534 C655 3.142 . S
C1546 C231 3.168 . S
C1561 C315 2.853 . S
C1573 C739 2.849 . S
C1588 C399 3.462 . S
C1600 C823 3.451 1_554 S
C1615 C907 3.141 . S
C1627 C483 3.169 . S
C1642 C991 2.838 . S
C1654 C63 2.861 . S
C1669 C578 2.701 . S
C1681 C74 2.682 . S
C1696 C158 1.864 . S
C1708 C662 1.904 . S
C1723 C746 1.839 . S
C1735 C242 1.896 . S
C1750 C326 2.703 . S
C1762 C830 2.728 . S
C1777 C914 1.835 . S
C1789 C410 1.850 . S
C1804 C998 1.876 . S
C1816 C494 1.870 . S
C1831 C562 0.787 . S
C1843 C58 0.802 . S
C1858 C646 0.567 . S
C1870 C142 0.545 . S
C1885 C730 0.353 . S
C1897 C226 0.390 . S
C1912 C310 0.763 . S
C1924 C814 0.783 . S
C1939 C898 0.420 . S
C1951 C394 0.384 . S
C1966 C982 0.593 . S
C1978 C478 0.618 . S
