# Generated by pormake.
# Topology npo, (4)-cn, num edge types: 1
# Building blocks:
#     Node 0, Type 0, BuildingBlock: KUFVIS_clean_sbu_0, # of connection points: 4
#     Node 1, Type 0, BuildingBlock: KUFVIS_clean_sbu_0, # of connection points: 4
#     Node 2, Type 0, BuildingBlock: KUFVIS_clean_sbu_0, # of connection points: 4
#     Node 3, Type 0, BuildingBlock: KUFVIS_clean_sbu_0, # of connection points: 4
#     Node 4, Type 0, BuildingBlock: KUFVIS_clean_sbu_0, # of connection points: 4
#     Node 5, Type 0, BuildingBlock: KUFVIS_clean_sbu_0, # of connection points: 4
#     Edge 6, Type (0, 0), BuildingBlock: XUDNAN_clean_linker_2, # of connection points: 2
#     Edge 7, Type (0, 0), BuildingBlock: XUDNAN_clean_linker_2, # of connection points: 2
#     Edge 8, Type (0, 0), BuildingBlock: XUDNAN_clean_linker_2, # of connection points: 2
#     Edge 9, Type (0, 0), BuildingBlock: XUDNAN_clean_linker_2, # of connection points: 2
#     Edge 10, Type (0, 0), BuildingBlock: XUDNAN_clean_linker_2, # of connection points: 2
#     Edge 11, Type (0, 0), BuildingBlock: XUDNAN_clean_linker_2, # of connection points: 2
#     Edge 12, Type (0, 0), BuildingBlock: XUDNAN_clean_linker_2, # of connection points: 2
#     Edge 13, Type (0, 0), BuildingBlock: XUDNAN_clean_linker_2, # of connection points: 2
#     Edge 14, Type (0, 0), BuildingBlock: XUDNAN_clean_linker_2, # of connection points: 2
#     Edge 15, Type (0, 0), BuildingBlock: XUDNAN_clean_linker_2, # of connection points: 2
#     Edge 16, Type (0, 0), BuildingBlock: XUDNAN_clean_linker_2, # of connection points: 2
#     Edge 17, Type (0, 0), BuildingBlock: XUDNAN_clean_linker_2, # of connection points: 2
# Relax obj value: 0.273
# Max RMSD: 0.237
# Mean RMSD: 0.233
data_MOF--net-npo--node1-KUFVIS_clean_sbu_0--edge1-XUDNAN_clean_linker_2
_symmetry_space_group_name_H-M    P1
_symmetry_Int_Tables_number       1
_symmetry_cell_setting            triclinic
loop_
_symmetry_equiv_pos_as_xyz
'x, y, z'
_cell_length_a     42.223733
_cell_length_b     44.708024
_cell_length_c     23.810136
_cell_angle_alpha  90.088806
_cell_angle_beta   91.054538
_cell_angle_gamma 121.68318
loop_
_atom_site_label
_atom_site_type_symbol
_atom_site_fract_x
_atom_site_fract_y
_atom_site_fract_z
_atom_type_partial_charge
Mn0 Mn 0.52945 0.12094 0.26483 0.0
Mn1 Mn 0.58394 0.08777 0.2419 0.0
C2 C 0.59336 0.15679 0.27009 0.0
C3 C 0.4993 0.15017 0.23927 0.0
C4 C 0.54036 0.07473 0.34796 0.0
O5 O 0.49483 0.07601 0.21913 0.0
O6 O 0.53502 0.05802 0.20289 0.0
C7 C 0.59434 0.09658 0.11898 0.0
N8 N 0.60907 0.10359 0.17221 0.0
C9 C 0.6714 0.13793 0.13772 0.0
C10 C 0.65687 0.13103 0.08257 0.0
C11 C 0.61818 0.11023 0.07319 0.0
C12 C 0.64632 0.12312 0.18169 0.0
H13 H 0.56463 0.08076 0.11145 0.0
C14 C 0.50345 0.05547 0.19549 0.0
O15 O 0.48977 0.13042 0.28316 0.0
O16 O 0.52418 0.15067 0.20741 0.0
N17 N 0.63225 0.11599 0.27662 0.0
C18 C 0.64151 0.12295 0.33228 0.0
C19 C 0.679 0.14504 0.34878 0.0
C20 C 0.70656 0.15973 0.30798 0.0
C21 C 0.69639 0.15235 0.25095 0.0
C22 C 0.65858 0.12996 0.23699 0.0
H23 H 0.62043 0.11206 0.36384 0.0
O24 O 0.5727 0.1647 0.29836 0.0
O25 O 0.57608 0.12733 0.24208 0.0
O26 O 0.52696 0.09347 0.33462 0.0
O27 O 0.56076 0.06961 0.31555 0.0
C28 C 0.72216 0.16712 0.20739 0.0
C29 C 0.70969 0.15979 0.15081 0.0
H30 H 0.67512 0.14187 0.04714 0.0
H31 H 0.60674 0.10486 0.03075 0.0
H32 H 0.68664 0.15091 0.39284 0.0
H33 H 0.73535 0.17697 0.32098 0.0
H34 H 0.75155 0.1846 0.21689 0.0
H35 H 0.72972 0.17173 0.1177 0.0
Mn36 Mn 0.46428 0.58787 0.72813 0.0
Mn37 Mn 0.4104 0.50277 0.76533 0.0
C38 C 0.4003 0.56086 0.73101 0.0
C39 C 0.49594 0.64816 0.74729 0.0
C40 C 0.44618 0.52496 0.65156 0.0
O41 O 0.50127 0.57984 0.77199 0.0
O42 O 0.46242 0.5224 0.7929 0.0
C43 C 0.41334 0.51158 0.88909 0.0
N44 N 0.39315 0.49972 0.84006 0.0
C45 C 0.33559 0.47614 0.88902 0.0
C46 C 0.35578 0.48797 0.94 0.0
C47 C 0.39483 0.50579 0.94 0.0
C48 C 0.35554 0.48227 0.83963 0.0
H49 H 0.44334 0.52541 0.88942 0.0
C50 C 0.49425 0.55119 0.79513 0.0
O51 O 0.50283 0.63589 0.70283 0.0
O52 O 0.47264 0.62549 0.78239 0.0
N53 N 0.35927 0.48161 0.74224 0.0
C54 C 0.34419 0.47496 0.68924 0.0
C55 C 0.30551 0.45895 0.68177 0.0
C56 C 0.28278 0.44985 0.72881 0.0
C57 C 0.29891 0.45698 0.78292 0.0
C58 C 0.33759 0.47279 0.7878 0.0
H59 H 0.36159 0.4822 0.65294 0.0
O60 O 0.41931 0.58717 0.69792 0.0
O61 O 0.41901 0.5501 0.759 0.0
O62 O 0.46311 0.55802 0.66103 0.0
O63 O 0.42564 0.50223 0.68763 0.0
C64 C 0.27822 0.44993 0.83213 0.0
C65 C 0.29653 0.45942 0.88515 0.0
H66 H 0.34162 0.48388 0.97931 0.0
H67 H 0.41063 0.51516 0.97914 0.0
H68 H 0.29325 0.45381 0.63987 0.0
H69 H 0.25303 0.43781 0.72295 0.0
H70 H 0.24829 0.43781 0.82963 0.0
H71 H 0.28038 0.45441 0.9226 0.0
Mn72 Mn 0.87227 0.43091 0.2544 0.0
Mn73 Mn 0.89396 0.37221 0.29959 0.0
C74 C 0.8346 0.37165 0.23165 0.0
C75 C 0.84146 0.46126 0.2602 0.0
C76 C 0.93262 0.4218 0.20352 0.0
O77 O 0.90854 0.45774 0.31976 0.0
O78 O 0.91896 0.41525 0.3472 0.0
C79 C 0.85915 0.35536 0.4113 0.0
N80 N 0.86293 0.34469 0.3596 0.0
C81 C 0.82628 0.28387 0.38542 0.0
C82 C 0.82287 0.29424 0.43948 0.0
C83 C 0.8389 0.33013 0.45218 0.0
C84 C 0.84639 0.31019 0.34628 0.0
H85 H 0.8716 0.38289 0.42132 0.0
C86 C 0.9231 0.44564 0.3532 0.0
O87 O 0.87063 0.47242 0.22969 0.0
O88 O 0.83181 0.43385 0.29078 0.0
N89 N 0.8705 0.32905 0.25743 0.0
C90 C 0.87466 0.32349 0.2025 0.0
C91 C 0.8573 0.28893 0.18138 0.0
C92 C 0.83656 0.26049 0.21723 0.0
C93 C 0.83292 0.26691 0.27369 0.0
C94 C 0.85003 0.3019 0.29196 0.0
H95 H 0.89093 0.34525 0.17495 0.0
O96 O 0.83449 0.39523 0.2001 0.0
O97 O 0.85697 0.3833 0.27502 0.0
O98 O 0.91444 0.43714 0.2053 0.0
O99 O 0.9274 0.39769 0.23741 0.0
C100 C 0.81331 0.23998 0.3127 0.0
C101 C 0.81029 0.24845 0.36869 0.0
H102 H 0.80746 0.27485 0.47121 0.0
H103 H 0.83594 0.33834 0.49354 0.0
H104 H 0.86022 0.28421 0.13773 0.0
H105 H 0.82359 0.23385 0.20097 0.0
H106 H 0.80056 0.21269 0.30008 0.0
H107 H 0.79484 0.22749 0.39817 0.0
Mn108 Mn 0.443 0.88129 0.76908 0.0
Mn109 Mn 0.38155 0.90358 0.72491 0.0
C110 C 0.38 0.84389 0.78226 0.0
C111 C 0.47752 0.85447 0.75764 0.0
C112 C 0.42525 0.93036 0.83421 0.0
O113 O 0.47413 0.92095 0.71447 0.0
O114 O 0.43128 0.93495 0.69288 0.0
C115 C 0.37921 0.88378 0.6054 0.0
N116 N 0.36124 0.88044 0.65411 0.0
C117 C 0.30185 0.83973 0.61043 0.0
C118 C 0.3197 0.8428 0.55978 0.0
C119 C 0.35857 0.8648 0.55735 0.0
C120 C 0.32394 0.85879 0.65719 0.0
H121 H 0.40904 0.90081 0.60312 0.0
C122 C 0.46379 0.93971 0.68928 0.0
O123 O 0.48677 0.87894 0.7952 0.0
O124 O 0.44963 0.84717 0.72428 0.0
N125 N 0.33182 0.87576 0.75138 0.0
C126 C 0.31859 0.87751 0.80231 0.0
C127 C 0.28016 0.85724 0.81156 0.0
C128 C 0.25563 0.83619 0.76791 0.0
C129 C 0.26973 0.83606 0.71513 0.0
C130 C 0.30832 0.85659 0.70851 0.0
H131 H 0.33724 0.894 0.83582 0.0
O132 O 0.40412 0.84149 0.81322 0.0
O133 O 0.39317 0.86757 0.74341 0.0
O134 O 0.44462 0.91634 0.82699 0.0
O135 O 0.40046 0.92712 0.79883 0.0
C136 C 0.24692 0.81699 0.66848 0.0
C137 C 0.26298 0.81874 0.6162 0.0
H138 H 0.30383 0.82844 0.5225 0.0
H139 H 0.37258 0.8673 0.51844 0.0
H140 H 0.26946 0.85794 0.85217 0.0
H141 H 0.226 0.82066 0.77515 0.0
H142 H 0.21698 0.80087 0.67233 0.0
H143 H 0.24515 0.8038 0.58071 0.0
Mn144 Mn 0.55149 0.43671 0.22311 0.0
Mn145 Mn 0.611 0.52232 0.25754 0.0
C146 C 0.61479 0.46253 0.21098 0.0
C147 C 0.51796 0.37622 0.23929 0.0
C148 C 0.56553 0.49867 0.14929 0.0
O149 O 0.5203 0.44722 0.27522 0.0
O150 O 0.56244 0.50427 0.29427 0.0
C151 C 0.61947 0.51292 0.379 0.0
N152 N 0.63492 0.52444 0.32776 0.0
C153 C 0.69639 0.54599 0.36633 0.0
C154 C 0.68113 0.53444 0.41947 0.0
C155 C 0.64249 0.51773 0.42577 0.0
C156 C 0.67203 0.5401 0.32111 0.0
H157 H 0.58982 0.50017 0.38426 0.0
C158 C 0.53047 0.47631 0.30054 0.0
O159 O 0.50823 0.39011 0.20015 0.0
O160 O 0.54565 0.39782 0.27219 0.0
N161 N 0.65952 0.54321 0.22639 0.0
C162 C 0.67009 0.55419 0.17283 0.0
C163 C 0.70795 0.57161 0.15963 0.0
C164 C 0.7346 0.57808 0.20175 0.0
C165 C 0.7232 0.5675 0.25689 0.0
C166 C 0.68508 0.5503 0.26758 0.0
H167 H 0.64982 0.54955 0.14027 0.0
O168 O 0.59118 0.43474 0.18208 0.0
O169 O 0.60084 0.47439 0.24647 0.0
O170 O 0.54862 0.46605 0.16016 0.0
O171 O 0.58881 0.52264 0.18326 0.0
C172 C 0.74822 0.57384 0.30181 0.0
C173 C 0.73483 0.56322 0.35652 0.0
H174 H 0.69882 0.53825 0.45571 0.0
H175 H 0.63048 0.50869 0.46664 0.0
H176 H 0.71656 0.58001 0.11707 0.0
H177 H 0.76377 0.59145 0.19138 0.0
H178 H 0.77784 0.58701 0.29479 0.0
H179 H 0.75435 0.56829 0.39074 0.0
Mn180 Mn 0.1225 0.55817 0.78758 0.0
Mn181 Mn 0.09641 0.4765 0.74409 0.0
C182 C 0.16201 0.53739 0.79895 0.0
C183 C 0.1517 0.6185 0.77644 0.0
C184 C 0.0714 0.49113 0.85289 0.0
O185 O 0.08013 0.54719 0.73306 0.0
O186 O 0.06324 0.49155 0.71215 0.0
C187 C 0.11108 0.49067 0.62278 0.0
N188 N 0.11685 0.47867 0.67213 0.0
C189 C 0.15109 0.45688 0.62587 0.0
C190 C 0.14555 0.46903 0.57459 0.0
C191 C 0.12569 0.48624 0.57314 0.0
C192 C 0.1366 0.46276 0.67417 0.0
H193 H 0.09517 0.50325 0.62112 0.0
C194 C 0.05921 0.51795 0.70753 0.0
O195 O 0.12657 0.60219 0.81408 0.0
O196 O 0.1581 0.59942 0.74297 0.0
N197 N 0.12651 0.45877 0.77035 0.0
C198 C 0.13059 0.44976 0.82344 0.0
C199 C 0.15129 0.43376 0.8325 0.0
C200 C 0.1667 0.42633 0.78673 0.0
C201 C 0.16175 0.43547 0.73241 0.0
C202 C 0.14172 0.45223 0.72616 0.0
H203 H 0.11847 0.45507 0.85864 0.0
O204 O 0.16503 0.5621 0.83145 0.0
O205 O 0.1358 0.52519 0.76048 0.0
O206 O 0.08598 0.52396 0.84519 0.0
O207 O 0.07455 0.471 0.81851 0.0
C208 C 0.17552 0.42825 0.68414 0.0
C209 C 0.17022 0.43896 0.6309 0.0
H210 H 0.15639 0.46528 0.5361 0.0
H211 H 0.12122 0.49564 0.53372 0.0
H212 H 0.15501 0.42681 0.87457 0.0
H213 H 0.18215 0.41349 0.79374 0.0
H214 H 0.19041 0.41465 0.68746 0.0
H215 H 0.18138 0.43367 0.5942 0.0
H216 H 0.52359 0.20533 0.30957 0.0
H217 H 0.45764 0.15828 0.15755 0.0
H218 H 0.44799 0.20841 0.14884 0.0
H219 H 0.47461 0.24717 0.36389 0.0
H220 H 0.51729 0.28612 0.38711 0.0
H221 H 0.514 0.24426 0.38581 0.0
H222 H 0.57184 0.2702 0.32291 0.0
H223 H 0.5754 0.31208 0.32422 0.0
H224 H 0.572 0.29093 0.25795 0.0
H225 H 0.44887 0.26535 0.15461 0.0
H226 H 0.46604 0.32692 0.16625 0.0
H227 H 0.53572 0.33869 0.31119 0.0
C228 C 0.50627 0.20524 0.27534 0.0
C229 C 0.4904 0.17777 0.23497 0.0
C230 C 0.4693 0.17893 0.18931 0.0
C231 C 0.46367 0.20718 0.18428 0.0
C232 C 0.47993 0.23415 0.22478 0.0
C233 C 0.50121 0.23356 0.26907 0.0
C234 C 0.51946 0.26755 0.30301 0.0
C235 C 0.50549 0.26086 0.36355 0.0
C236 C 0.56219 0.28629 0.30192 0.0
C237 C 0.50555 0.28769 0.2706 0.0
C238 C 0.48216 0.26769 0.22637 0.0
C239 C 0.46698 0.28113 0.18926 0.0
C240 C 0.47685 0.31618 0.19639 0.0
C241 C 0.5022 0.33771 0.23976 0.0
C242 C 0.51596 0.32287 0.27806 0.0
H243 H 0.34205 0.55422 0.66723 0.0
H244 H 0.37868 0.55459 0.83845 0.0
H245 H 0.31767 0.54034 0.87292 0.0
H246 H 0.2951 0.5995 0.70698 0.0
H247 H 0.25914 0.57778 0.65345 0.0
H248 H 0.30466 0.58487 0.64242 0.0
H249 H 0.275 0.51854 0.62337 0.0
H250 H 0.22945 0.51101 0.63557 0.0
H251 H 0.24631 0.48754 0.67557 0.0
H252 H 0.25442 0.52807 0.88941 0.0
H253 H 0.19535 0.52716 0.88855 0.0
H254 H 0.19964 0.53714 0.70745 0.0
C255 C 0.33677 0.55062 0.71179 0.0
C256 C 0.3638 0.55286 0.75003 0.0
C257 C 0.35718 0.55047 0.80833 0.0
C258 C 0.32279 0.54271 0.82831 0.0
C259 C 0.29586 0.53877 0.78943 0.0
C260 C 0.30281 0.54377 0.73263 0.0
C261 C 0.27075 0.54246 0.70085 0.0
C262 C 0.28316 0.57828 0.67439 0.0
C263 C 0.25432 0.51306 0.6562 0.0
C264 C 0.24414 0.53466 0.74843 0.0
C265 C 0.25936 0.53273 0.79918 0.0
C266 C 0.24186 0.52903 0.84996 0.0
C267 C 0.20842 0.52848 0.84915 0.0
C268 C 0.1927 0.53103 0.7979 0.0
C269 C 0.21045 0.53363 0.74686 0.0
H270 H 0.64678 0.20803 0.33896 0.0
H271 H 0.6222 0.17145 0.16607 0.0
H272 H 0.68494 0.21879 0.13907 0.0
H273 H 0.69413 0.29972 0.29816 0.0
H274 H 0.72614 0.31433 0.35749 0.0
H275 H 0.68036 0.27566 0.36285 0.0
H276 H 0.70968 0.24019 0.39317 0.0
H277 H 0.7557 0.27813 0.38628 0.0
H278 H 0.74196 0.23785 0.34809 0.0
H279 H 0.74869 0.27165 0.13002 0.0
H280 H 0.80723 0.3299 0.13806 0.0
H281 H 0.78992 0.33314 0.31619 0.0
C282 C 0.65506 0.20972 0.29573 0.0
C283 C 0.631 0.18478 0.25522 0.0
C284 C 0.64149 0.18898 0.19833 0.0
C285 C 0.67683 0.21599 0.1825 0.0
C286 C 0.70068 0.23938 0.22387 0.0
C287 C 0.68986 0.23716 0.27893 0.0
C288 C 0.71903 0.26793 0.31378 0.0
C289 C 0.70401 0.29075 0.33424 0.0
C290 C 0.73251 0.25529 0.36329 0.0
C291 C 0.74878 0.28695 0.27037 0.0
C292 C 0.73739 0.27026 0.21853 0.0
C293 C 0.7583 0.28474 0.1705 0.0
C294 C 0.79138 0.31767 0.17533 0.0
C295 C 0.80333 0.33513 0.22791 0.0
C296 C 0.78202 0.31943 0.27601 0.0
H297 H 0.46957 0.80613 0.67822 0.0
H298 H 0.5216 0.85162 0.84025 0.0
H299 H 0.53958 0.80754 0.85036 0.0
H300 H 0.43044 0.71967 0.71317 0.0
H301 H 0.43856 0.70487 0.64759 0.0
H302 H 0.43448 0.7429 0.64926 0.0
H303 H 0.49901 0.78004 0.60377 0.0
H304 H 0.50321 0.74195 0.60166 0.0
H305 H 0.53895 0.78183 0.636 0.0
H306 H 0.54048 0.75165 0.85131 0.0
H307 H 0.53052 0.69226 0.83738 0.0
H308 H 0.48399 0.68623 0.67128 0.0
C309 C 0.48575 0.80748 0.71502 0.0
C310 C 0.49425 0.83242 0.75836 0.0
C311 C 0.51504 0.83301 0.80622 0.0
C312 C 0.52533 0.80799 0.81243 0.0
C313 C 0.51543 0.78299 0.76982 0.0
C314 C 0.49686 0.78306 0.7214 0.0
C315 C 0.48759 0.75213 0.68339 0.0
C316 C 0.44527 0.72851 0.67278 0.0
C317 C 0.50844 0.76475 0.62792 0.0
C318 C 0.50236 0.73382 0.71906 0.0
C319 C 0.5183 0.752 0.76885 0.0
C320 C 0.52935 0.73784 0.81165 0.0
C321 C 0.52365 0.70417 0.80351 0.0
C322 C 0.50787 0.6855 0.75255 0.0
C323 C 0.49774 0.7008 0.70956 0.0
H324 H 0.65192 0.4554 0.29848 0.0
H325 H 0.66398 0.48941 0.12603 0.0
H326 H 0.72913 0.50348 0.12797 0.0
H327 H 0.75161 0.51134 0.35297 0.0
H328 H 0.74591 0.47404 0.39036 0.0
H329 H 0.70632 0.47852 0.37803 0.0
H330 H 0.67335 0.41503 0.33269 0.0
H331 H 0.71503 0.4138 0.34165 0.0
H332 H 0.69405 0.40777 0.2727 0.0
H333 H 0.79164 0.51188 0.14771 0.0
H334 H 0.84112 0.50047 0.1732 0.0
H335 H 0.78429 0.45107 0.32706 0.0
C336 C 0.66895 0.46706 0.26201 0.0
C337 C 0.65415 0.4734 0.21309 0.0
C338 C 0.67574 0.48593 0.16448 0.0
C339 C 0.71267 0.49408 0.16539 0.0
C340 C 0.7268 0.48796 0.21454 0.0
C341 C 0.70523 0.47369 0.26143 0.0
C342 C 0.72393 0.46231 0.30395 0.0
C343 C 0.73237 0.48278 0.35964 0.0
C344 C 0.70018 0.42237 0.31325 0.0
C345 C 0.75944 0.47259 0.27376 0.0
C346 C 0.76106 0.48844 0.2232 0.0
C347 C 0.79074 0.49957 0.18724 0.0
C348 C 0.81884 0.49313 0.20229 0.0
C349 C 0.81654 0.47488 0.25213 0.0
C350 C 0.78689 0.46529 0.28892 0.0
H351 H 0.33807 0.79482 0.70271 0.0
H352 H 0.3354 0.82924 0.87152 0.0
H353 H 0.27014 0.77988 0.87983 0.0
H354 H 0.23591 0.74979 0.65833 0.0
H355 H 0.23954 0.71543 0.62616 0.0
H356 H 0.27975 0.75949 0.6302 0.0
H357 H 0.31411 0.73109 0.67922 0.0
H358 H 0.27183 0.68861 0.6786 0.0
H359 H 0.29625 0.708 0.74412 0.0
H360 H 0.20707 0.72561 0.87175 0.0
H361 H 0.15659 0.66375 0.8581 0.0
H362 H 0.20394 0.66 0.6999 0.0
C363 C 0.32301 0.79254 0.74041 0.0
C364 C 0.34051 0.81662 0.78541 0.0
C365 C 0.32154 0.81161 0.83601 0.0
C366 C 0.28455 0.78387 0.84085 0.0
C367 C 0.26769 0.76061 0.7955 0.0
C368 C 0.28666 0.76405 0.74678 0.0
C369 C 0.26558 0.7314 0.70988 0.0
C370 C 0.25463 0.73962 0.65274 0.0
C371 C 0.28829 0.71374 0.70257 0.0
C372 C 0.23168 0.70933 0.74513 0.0
C373 C 0.23296 0.72707 0.79351 0.0
C374 C 0.20561 0.7115 0.83386 0.0
C375 C 0.17693 0.67639 0.82558 0.0
C376 C 0.17636 0.6571 0.77793 0.0
C377 C 0.20348 0.67418 0.73648 0.0
H378 H 0.473 0.94133 0.92299 0.0
H379 H 0.38796 0.96235 0.86796 0.0
H380 H 0.39354 0.99116 0.95924 0.0
H381 H 0.44556 0.92288 0.06766 0.0
H382 H 0.49277 0.94424 0.09464 0.0
H383 H 0.4814 0.9244 0.0255 0.0
H384 H 0.53149 0.9836 0.98247 0.0
H385 H 0.5434 0.00333 0.05155 0.0
H386 H 0.53032 0.02265 0.99651 0.0
H387 H 0.4105 0.02005 0.05631 0.0
H388 H 0.44077 0.05001 0.14639 0.0
H389 H 0.51248 0.00757 0.13785 0.0
C390 C 0.45549 0.95195 0.9299 0.0
C391 C 0.43003 0.94947 0.88796 0.0
C392 C 0.40776 0.96388 0.89916 0.0
C393 C 0.41055 0.98015 0.9511 0.0
C394 C 0.4356 0.98171 0.99168 0.0
C395 C 0.45783 0.96817 0.98145 0.0
C396 C 0.48357 0.97437 0.03104 0.0
C397 C 0.47531 0.93938 0.05619 0.0
C398 C 0.52461 0.99735 0.01439 0.0
C399 C 0.47269 0.99386 0.07057 0.0
C400 C 0.44484 0.99773 0.04745 0.0
C401 C 0.43206 0.01686 0.07506 0.0
C402 C 0.44925 0.03359 0.12651 0.0
C403 C 0.47898 0.03116 0.14969 0.0
C404 C 0.48965 0.00985 0.12195 0.0
H405 H 0.5439 0.53359 0.36311 0.0
H406 H 0.46433 0.42167 0.34122 0.0
H407 H 0.43149 0.42284 0.42541 0.0
H408 H 0.55279 0.53279 0.50794 0.0
H409 H 0.55719 0.5746 0.52049 0.0
H410 H 0.57142 0.56603 0.45469 0.0
H411 H 0.52731 0.58041 0.40059 0.0
H412 H 0.5132 0.58945 0.46625 0.0
H413 H 0.47869 0.55756 0.41759 0.0
H414 H 0.41152 0.43526 0.51804 0.0
H415 H 0.4042 0.45797 0.60814 0.0
H416 H 0.49736 0.56187 0.56935 0.0
C417 C 0.51903 0.50936 0.37493 0.0
C418 C 0.50667 0.47751 0.34495 0.0
C419 C 0.47425 0.44647 0.36286 0.0
C420 C 0.45547 0.44687 0.41085 0.0
C421 C 0.46928 0.47853 0.44035 0.0
C422 C 0.50012 0.50928 0.42263 0.0
C423 C 0.5109 0.5394 0.46348 0.0
C424 C 0.55041 0.55405 0.4881 0.0
C425 C 0.5073 0.56842 0.43529 0.0
C426 C 0.48173 0.52073 0.50771 0.0
C427 C 0.45787 0.48567 0.4935 0.0
C428 C 0.42979 0.46275 0.52916 0.0
C429 C 0.42599 0.47595 0.58051 0.0
C430 C 0.45013 0.51183 0.59611 0.0
C431 C 0.47818 0.53444 0.55868 0.0
H432 H 0.03988 0.51681 0.92347 0.0
H433 H 0.05831 0.43062 0.90206 0.0
H434 H 0.02906 0.40649 0.99268 0.0
H435 H 0.05471 0.5274 0.07398 0.0
H436 H 0.01763 0.53535 0.08515 0.0
H437 H 0.04178 0.54729 0.01965 0.0
H438 H 0.97917 0.50948 0.96493 0.0
H439 H 0.95482 0.49772 0.0302 0.0
H440 H 0.94907 0.46383 0.98238 0.0
H441 H -0.00064 0.39222 0.08589 0.0
H442 H 0.9632 0.38396 0.17045 0.0
H443 H 0.95975 0.47695 0.12951 0.0
C444 C 0.03786 0.49293 0.93797 0.0
C445 C 0.05183 0.47587 0.90589 0.0
C446 C 0.04806 0.44433 0.92588 0.0
C447 C 0.03163 0.43046 0.9775 0.0
C448 C 0.01857 0.44811 0.00833 0.0
C449 C 0.02084 0.47829 0.98901 0.0
C450 C 0.00245 0.49077 0.02897 0.0
C451 C 0.03085 0.52737 0.05338 0.0
C452 C 0.96941 0.49041 0.99988 0.0
C453 C 0.98948 0.46281 0.0736 0.0
C454 C -0.00033 0.43885 0.06121 0.0
C455 C 0.99104 0.4107 0.096 0.0
C456 C 0.97057 0.40634 0.14414 0.0
C457 C 0.95838 0.42968 0.15666 0.0
C458 C 0.96854 0.4586 0.12116 0.0
H459 H 0.53136 0.01211 0.38429 0.0
H460 H 0.53666 0.10673 0.44224 0.0
H461 H 0.52838 0.08571 0.53963 0.0
H462 H 0.4582 0.95492 0.47321 0.0
H463 H 0.47497 0.92578 0.48569 0.0
H464 H 0.4861 0.95024 0.42162 0.0
H465 H 0.55632 0.97626 0.44305 0.0
H466 H 0.54528 0.95223 0.50777 0.0
H467 H 0.57652 0.99928 0.50866 0.0
H468 H 0.51492 0.05346 0.62867 0.0
H469 H 0.48924 0.00854 0.70249 0.0
H470 H 0.49059 0.93341 0.58916 0.0
C471 C 0.53124 0.02851 0.41772 0.0
C472 C 0.53478 0.06112 0.40584 0.0
C473 C 0.53379 0.08159 0.4504 0.0
C474 C 0.52951 0.07005 0.50593 0.0
C475 C 0.52597 0.0378 0.51637 0.0
C476 C 0.52622 0.017 0.47356 0.0
C477 C 0.51767 0.98173 0.49578 0.0
C478 C 0.48213 0.95139 0.4674 0.0
C479 C 0.55094 0.97711 0.48837 0.0
C480 C 0.51179 0.98574 0.55743 0.0
C481 C 0.51755 0.01866 0.56842 0.0
C482 C 0.511 0.02785 0.62095 0.0
C483 C 0.49669 0.00231 0.66274 0.0
C484 C 0.48916 0.96807 0.65187 0.0
C485 C 0.49772 0.95992 0.59909 0.0
H486 H 0.51864 0.58622 0.89466 0.0
H487 H 0.52565 0.51198 0.78689 0.0
H488 H 0.55257 0.49611 0.86579 0.0
H489 H 0.60333 0.6111 0.98987 0.0
H490 H 0.57926 0.61225 0.0508 0.0
H491 H 0.56976 0.62427 0.98311 0.0
H492 H 0.4997 0.57796 0.99398 0.0
H493 H 0.5089 0.56506 0.06083 0.0
H494 H 0.48511 0.53271 0.0056 0.0
H495 H 0.56543 0.47938 0.95785 0.0
H496 H 0.56992 0.46648 0.0571 0.0
H497 H 0.55511 0.55133 0.10895 0.0
C498 C 0.52817 0.56834 0.88707 0.0
C499 C 0.5216 0.55128 0.83431 0.0
C500 C 0.53182 0.52616 0.82649 0.0
C501 C 0.54682 0.51683 0.87122 0.0
C502 C 0.55113 0.53271 0.9236 0.0
C503 C 0.54271 0.55837 0.93174 0.0
C504 C 0.54518 0.56772 0.99379 0.0
C505 C 0.57624 0.60612 0.00506 0.0
C506 C 0.50749 0.56042 0.01475 0.0
C507 C 0.55504 0.54247 0.01936 0.0
C508 C 0.55845 0.5227 0.97784 0.0
C509 C 0.56373 0.49525 0.99062 0.0
C510 C 0.56585 0.4879 0.04713 0.0
C511 C 0.56292 0.50795 0.09054 0.0
C512 C 0.55796 0.53596 0.0765 0.0
H513 H 0.00438 0.45804 0.65772 0.0
H514 H 0.05489 0.57118 0.65585 0.0
H515 H 0.02037 0.56546 0.5671 0.0
H516 H 0.01853 0.45065 0.52122 0.0
H517 H 0.97653 0.4085 0.50895 0.0
H518 H 0.99722 0.42044 0.57822 0.0
H519 H 0.93555 0.40997 0.6185 0.0
H520 H 0.9142 0.39711 0.54941 0.0
H521 H 0.91387 0.4318 0.58755 0.0
H522 H 0.98514 0.54643 0.47022 0.0
H523 H 0.95404 0.51655 0.37964 0.0
H524 H 0.93558 0.41845 0.44633 0.0
C525 C 0.00738 0.48164 0.63989 0.0
C526 C 0.03227 0.51501 0.66386 0.0
C527 C 0.03557 0.54522 0.63862 0.0
C528 C 0.01621 0.54222 0.58801 0.0
C529 C 0.99372 0.50889 0.56357 0.0
C530 C 0.98912 0.47917 0.58935 0.0
C531 C 0.96792 0.44695 0.55232 0.0
C532 C 0.99147 0.43072 0.53942 0.0
C533 C 0.93067 0.41987 0.57851 0.0
C534 C 0.962 0.46311 0.50092 0.0
C535 C 0.97611 0.49862 0.50796 0.0
C536 C 0.97381 0.51855 0.46463 0.0
C537 C 0.95634 0.50148 0.41328 0.0
C538 C 0.94247 0.46517 0.40558 0.0
C539 C 0.94573 0.4462 0.45025 0.0
loop_
_geom_bond_atom_site_label_1
_geom_bond_atom_site_label_2
_geom_bond_distance
_geom_bond_site_symmetry_2
_ccdc_geom_bond_type
Mn0 O5 2.095 . S
Mn0 O15 2.162 . S
Mn0 O16 2.297 . S
Mn0 O24 2.385 . S
Mn0 O25 2.209 . S
Mn0 O26 2.094 . S
Mn1 O6 2.121 . S
Mn1 N8 2.257 . S
Mn1 N17 2.282 . S
Mn1 O25 2.215 . S
Mn1 O27 2.117 . S
C2 O24 1.234 . S
C2 O25 1.283 . S
C3 O15 1.281 . S
C3 O16 1.236 . S
C4 O26 1.240 . S
C4 O27 1.264 . S
O5 Mn0 2.095 . S
O5 C14 1.250 . S
O6 Mn1 2.121 . S
O6 C14 1.258 . S
C7 N8 1.326 . S
C7 C11 1.460 . S
C7 H13 0.929 . S
N8 Mn1 2.257 . S
N8 C7 1.326 . S
N8 C12 1.362 . S
C9 C10 1.258 . S
C9 C12 1.431 . S
C9 C29 1.449 . S
C10 C9 1.258 . S
C10 C11 1.477 . S
C10 H30 0.931 . S
C11 C7 1.460 . S
C11 C10 1.477 . S
C11 H31 0.930 . S
C12 N8 1.362 . S
C12 C9 1.431 . S
C12 C22 1.476 . S
H13 C7 0.929 . S
C14 O5 1.250 . S
C14 O6 1.258 . S
O15 Mn0 2.162 . S
O15 C3 1.281 . S
O16 Mn0 2.297 . S
O16 C3 1.236 . S
N17 Mn1 2.282 . S
N17 C18 1.328 . S
N17 C22 1.318 . S
C18 N17 1.328 . S
C18 C19 1.457 . S
C18 H23 0.929 . S
C19 C18 1.457 . S
C19 C20 1.291 . S
C19 H32 0.931 . S
C20 C19 1.291 . S
C20 C21 1.373 . S
C20 H33 0.929 . S
C21 C20 1.373 . S
C21 C22 1.396 . S
C21 C28 1.403 . S
C22 C12 1.476 . S
C22 N17 1.318 . S
C22 C21 1.396 . S
H23 C18 0.929 . S
O24 Mn0 2.385 . S
O24 C2 1.234 . S
O25 Mn0 2.209 . S
O25 Mn1 2.215 . S
O25 C2 1.283 . S
O26 Mn0 2.094 . S
O26 C4 1.240 . S
O27 Mn1 2.117 . S
O27 C4 1.264 . S
C28 C21 1.403 . S
C28 C29 1.399 . S
C28 H34 0.929 . S
C29 C9 1.449 . S
C29 C28 1.399 . S
C29 H35 0.930 . S
H30 C10 0.931 . S
H31 C11 0.930 . S
H32 C19 0.931 . S
H33 C20 0.929 . S
H34 C28 0.929 . S
H35 C29 0.930 . S
Mn36 O41 2.095 . S
Mn36 O51 2.162 . S
Mn36 O52 2.297 . S
Mn36 O60 2.385 . S
Mn36 O61 2.209 . S
Mn36 O62 2.094 . S
Mn37 O42 2.121 . S
Mn37 N44 2.257 . S
Mn37 N53 2.282 . S
Mn37 O61 2.215 . S
Mn37 O63 2.117 . S
C38 O60 1.234 . S
C38 O61 1.283 . S
C39 O51 1.281 . S
C39 O52 1.236 . S
C40 O62 1.240 . S
C40 O63 1.264 . S
O41 Mn36 2.095 . S
O41 C50 1.250 . S
O42 Mn37 2.121 . S
O42 C50 1.258 . S
C43 N44 1.326 . S
C43 C47 1.460 . S
C43 H49 0.929 . S
N44 Mn37 2.257 . S
N44 C43 1.326 . S
N44 C48 1.362 . S
C45 C46 1.258 . S
C45 C48 1.431 . S
C45 C65 1.449 . S
C46 C45 1.258 . S
C46 C47 1.477 . S
C46 H66 0.931 . S
C47 C43 1.460 . S
C47 C46 1.477 . S
C47 H67 0.930 . S
C48 N44 1.362 . S
C48 C45 1.431 . S
C48 C58 1.476 . S
H49 C43 0.929 . S
C50 O41 1.250 . S
C50 O42 1.258 . S
O51 Mn36 2.162 . S
O51 C39 1.281 . S
O52 Mn36 2.297 . S
O52 C39 1.236 . S
N53 Mn37 2.282 . S
N53 C54 1.328 . S
N53 C58 1.318 . S
C54 N53 1.328 . S
C54 C55 1.457 . S
C54 H59 0.929 . S
C55 C54 1.457 . S
C55 C56 1.291 . S
C55 H68 0.931 . S
C56 C55 1.291 . S
C56 C57 1.373 . S
C56 H69 0.929 . S
C57 C56 1.373 . S
C57 C58 1.396 . S
C57 C64 1.403 . S
C58 C48 1.476 . S
C58 N53 1.318 . S
C58 C57 1.396 . S
H59 C54 0.929 . S
O60 Mn36 2.385 . S
O60 C38 1.234 . S
O61 Mn36 2.209 . S
O61 Mn37 2.215 . S
O61 C38 1.283 . S
O62 Mn36 2.094 . S
O62 C40 1.240 . S
O63 Mn37 2.117 . S
O63 C40 1.264 . S
C64 C57 1.403 . S
C64 C65 1.399 . S
C64 H70 0.929 . S
C65 C45 1.449 . S
C65 C64 1.399 . S
C65 H71 0.930 . S
H66 C46 0.931 . S
H67 C47 0.930 . S
H68 C55 0.931 . S
H69 C56 0.929 . S
H70 C64 0.929 . S
H71 C65 0.930 . S
Mn72 O77 2.095 . S
Mn72 O87 2.162 . S
Mn72 O88 2.297 . S
Mn72 O96 2.385 . S
Mn72 O97 2.209 . S
Mn72 O98 2.094 . S
Mn73 O78 2.121 . S
Mn73 N80 2.257 . S
Mn73 N89 2.282 . S
Mn73 O97 2.215 . S
Mn73 O99 2.117 . S
C74 O96 1.234 . S
C74 O97 1.283 . S
C75 O87 1.281 . S
C75 O88 1.236 . S
C76 O98 1.240 . S
C76 O99 1.264 . S
O77 Mn72 2.095 . S
O77 C86 1.250 . S
O78 Mn73 2.121 . S
O78 C86 1.258 . S
C79 N80 1.326 . S
C79 C83 1.460 . S
C79 H85 0.929 . S
N80 Mn73 2.257 . S
N80 C79 1.326 . S
N80 C84 1.362 . S
C81 C82 1.258 . S
C81 C84 1.431 . S
C81 C101 1.449 . S
C82 C81 1.258 . S
C82 C83 1.477 . S
C82 H102 0.931 . S
C83 C79 1.460 . S
C83 C82 1.477 . S
C83 H103 0.930 . S
C84 N80 1.362 . S
C84 C81 1.431 . S
C84 C94 1.476 . S
H85 C79 0.929 . S
C86 O77 1.250 . S
C86 O78 1.258 . S
O87 Mn72 2.162 . S
O87 C75 1.281 . S
O88 Mn72 2.297 . S
O88 C75 1.236 . S
N89 Mn73 2.282 . S
N89 C90 1.328 . S
N89 C94 1.318 . S
C90 N89 1.328 . S
C90 C91 1.457 . S
C90 H95 0.929 . S
C91 C90 1.457 . S
C91 C92 1.291 . S
C91 H104 0.931 . S
C92 C91 1.291 . S
C92 C93 1.373 . S
C92 H105 0.929 . S
C93 C92 1.373 . S
C93 C94 1.396 . S
C93 C100 1.403 . S
C94 C84 1.476 . S
C94 N89 1.318 . S
C94 C93 1.396 . S
H95 C90 0.929 . S
O96 Mn72 2.385 . S
O96 C74 1.234 . S
O97 Mn72 2.209 . S
O97 Mn73 2.215 . S
O97 C74 1.283 . S
O98 Mn72 2.094 . S
O98 C76 1.240 . S
O99 Mn73 2.117 . S
O99 C76 1.264 . S
C100 C93 1.403 . S
C100 C101 1.399 . S
C100 H106 0.929 . S
C101 C81 1.449 . S
C101 C100 1.399 . S
C101 H107 0.930 . S
H102 C82 0.931 . S
H103 C83 0.930 . S
H104 C91 0.931 . S
H105 C92 0.929 . S
H106 C100 0.929 . S
H107 C101 0.930 . S
Mn108 O113 2.095 . S
Mn108 O123 2.162 . S
Mn108 O124 2.297 . S
Mn108 O132 2.385 . S
Mn108 O133 2.209 . S
Mn108 O134 2.094 . S
Mn109 O114 2.121 . S
Mn109 N116 2.257 . S
Mn109 N125 2.282 . S
Mn109 O133 2.215 . S
Mn109 O135 2.117 . S
C110 O132 1.234 . S
C110 O133 1.283 . S
C111 O123 1.281 . S
C111 O124 1.236 . S
C112 O134 1.240 . S
C112 O135 1.264 . S
O113 Mn108 2.095 . S
O113 C122 1.250 . S
O114 Mn109 2.121 . S
O114 C122 1.258 . S
C115 N116 1.326 . S
C115 C119 1.460 . S
C115 H121 0.929 . S
N116 Mn109 2.257 . S
N116 C115 1.326 . S
N116 C120 1.362 . S
C117 C118 1.258 . S
C117 C120 1.431 . S
C117 C137 1.449 . S
C118 C117 1.258 . S
C118 C119 1.477 . S
C118 H138 0.931 . S
C119 C115 1.460 . S
C119 C118 1.477 . S
C119 H139 0.930 . S
C120 N116 1.362 . S
C120 C117 1.431 . S
C120 C130 1.476 . S
H121 C115 0.929 . S
C122 O113 1.250 . S
C122 O114 1.258 . S
O123 Mn108 2.162 . S
O123 C111 1.281 . S
O124 Mn108 2.297 . S
O124 C111 1.236 . S
N125 Mn109 2.282 . S
N125 C126 1.328 . S
N125 C130 1.318 . S
C126 N125 1.328 . S
C126 C127 1.457 . S
C126 H131 0.929 . S
C127 C126 1.457 . S
C127 C128 1.291 . S
C127 H140 0.931 . S
C128 C127 1.291 . S
C128 C129 1.373 . S
C128 H141 0.929 . S
C129 C128 1.373 . S
C129 C130 1.396 . S
C129 C136 1.403 . S
C130 C120 1.476 . S
C130 N125 1.318 . S
C130 C129 1.396 . S
H131 C126 0.929 . S
O132 Mn108 2.385 . S
O132 C110 1.234 . S
O133 Mn108 2.209 . S
O133 Mn109 2.215 . S
O133 C110 1.283 . S
O134 Mn108 2.094 . S
O134 C112 1.240 . S
O135 Mn109 2.117 . S
O135 C112 1.264 . S
C136 C129 1.403 . S
C136 C137 1.399 . S
C136 H142 0.929 . S
C137 C117 1.449 . S
C137 C136 1.399 . S
C137 H143 0.930 . S
H138 C118 0.931 . S
H139 C119 0.930 . S
H140 C127 0.931 . S
H141 C128 0.929 . S
H142 C136 0.929 . S
H143 C137 0.930 . S
Mn144 O149 2.095 . S
Mn144 O159 2.162 . S
Mn144 O160 2.297 . S
Mn144 O168 2.385 . S
Mn144 O169 2.209 . S
Mn144 O170 2.094 . S
Mn145 O150 2.121 . S
Mn145 N152 2.257 . S
Mn145 N161 2.282 . S
Mn145 O169 2.215 . S
Mn145 O171 2.117 . S
C146 O168 1.234 . S
C146 O169 1.283 . S
C147 O159 1.281 . S
C147 O160 1.236 . S
C148 O170 1.240 . S
C148 O171 1.264 . S
O149 Mn144 2.095 . S
O149 C158 1.250 . S
O150 Mn145 2.121 . S
O150 C158 1.258 . S
C151 N152 1.326 . S
C151 C155 1.460 . S
C151 H157 0.929 . S
N152 Mn145 2.257 . S
N152 C151 1.326 . S
N152 C156 1.362 . S
C153 C154 1.258 . S
C153 C156 1.431 . S
C153 C173 1.449 . S
C154 C153 1.258 . S
C154 C155 1.477 . S
C154 H174 0.931 . S
C155 C151 1.460 . S
C155 C154 1.477 . S
C155 H175 0.930 . S
C156 N152 1.362 . S
C156 C153 1.431 . S
C156 C166 1.476 . S
H157 C151 0.929 . S
C158 O149 1.250 . S
C158 O150 1.258 . S
O159 Mn144 2.162 . S
O159 C147 1.281 . S
O160 Mn144 2.297 . S
O160 C147 1.236 . S
N161 Mn145 2.282 . S
N161 C162 1.328 . S
N161 C166 1.318 . S
C162 N161 1.328 . S
C162 C163 1.457 . S
C162 H167 0.929 . S
C163 C162 1.457 . S
C163 C164 1.291 . S
C163 H176 0.931 . S
C164 C163 1.291 . S
C164 C165 1.373 . S
C164 H177 0.929 . S
C165 C164 1.373 . S
C165 C166 1.396 . S
C165 C172 1.403 . S
C166 C156 1.476 . S
C166 N161 1.318 . S
C166 C165 1.396 . S
H167 C162 0.929 . S
O168 Mn144 2.385 . S
O168 C146 1.234 . S
O169 Mn144 2.209 . S
O169 Mn145 2.215 . S
O169 C146 1.283 . S
O170 Mn144 2.094 . S
O170 C148 1.240 . S
O171 Mn145 2.117 . S
O171 C148 1.264 . S
C172 C165 1.403 . S
C172 C173 1.399 . S
C172 H178 0.929 . S
C173 C153 1.449 . S
C173 C172 1.399 . S
C173 H179 0.930 . S
H174 C154 0.931 . S
H175 C155 0.930 . S
H176 C163 0.931 . S
H177 C164 0.929 . S
H178 C172 0.929 . S
H179 C173 0.930 . S
Mn180 O185 2.095 . S
Mn180 O195 2.162 . S
Mn180 O196 2.297 . S
Mn180 O204 2.385 . S
Mn180 O205 2.209 . S
Mn180 O206 2.094 . S
Mn181 O186 2.121 . S
Mn181 N188 2.257 . S
Mn181 N197 2.282 . S
Mn181 O205 2.215 . S
Mn181 O207 2.117 . S
C182 O204 1.234 . S
C182 O205 1.283 . S
C183 O195 1.281 . S
C183 O196 1.236 . S
C184 O206 1.240 . S
C184 O207 1.264 . S
O185 Mn180 2.095 . S
O185 C194 1.250 . S
O186 Mn181 2.121 . S
O186 C194 1.258 . S
C187 N188 1.326 . S
C187 C191 1.460 . S
C187 H193 0.929 . S
N188 Mn181 2.257 . S
N188 C187 1.326 . S
N188 C192 1.362 . S
C189 C190 1.258 . S
C189 C192 1.431 . S
C189 C209 1.449 . S
C190 C189 1.258 . S
C190 C191 1.477 . S
C190 H210 0.931 . S
C191 C187 1.460 . S
C191 C190 1.477 . S
C191 H211 0.930 . S
C192 N188 1.362 . S
C192 C189 1.431 . S
C192 C202 1.476 . S
H193 C187 0.929 . S
C194 O185 1.250 . S
C194 O186 1.258 . S
O195 Mn180 2.162 . S
O195 C183 1.281 . S
O196 Mn180 2.297 . S
O196 C183 1.236 . S
N197 Mn181 2.282 . S
N197 C198 1.328 . S
N197 C202 1.318 . S
C198 N197 1.328 . S
C198 C199 1.457 . S
C198 H203 0.929 . S
C199 C198 1.457 . S
C199 C200 1.291 . S
C199 H212 0.931 . S
C200 C199 1.291 . S
C200 C201 1.373 . S
C200 H213 0.929 . S
C201 C200 1.373 . S
C201 C202 1.396 . S
C201 C208 1.403 . S
C202 C192 1.476 . S
C202 N197 1.318 . S
C202 C201 1.396 . S
H203 C198 0.929 . S
O204 Mn180 2.385 . S
O204 C182 1.234 . S
O205 Mn180 2.209 . S
O205 Mn181 2.215 . S
O205 C182 1.283 . S
O206 Mn180 2.094 . S
O206 C184 1.240 . S
O207 Mn181 2.117 . S
O207 C184 1.264 . S
C208 C201 1.403 . S
C208 C209 1.399 . S
C208 H214 0.929 . S
C209 C189 1.449 . S
C209 C208 1.399 . S
C209 H215 0.930 . S
H210 C190 0.931 . S
H211 C191 0.930 . S
H212 C199 0.931 . S
H213 C200 0.929 . S
H214 C208 0.929 . S
H215 C209 0.930 . S
H216 C228 0.930 . S
H217 C230 0.930 . S
H218 C231 0.930 . S
H219 C235 0.959 . S
H220 C235 0.959 . S
H221 C235 0.961 . S
H222 C236 0.960 . S
H223 C236 0.961 . S
H224 C236 0.959 . S
H225 C239 0.929 . S
H226 C240 0.931 . S
H227 C242 0.930 . S
C228 H216 0.930 . S
C228 C229 1.399 . S
C228 C233 1.399 . S
C229 C228 1.399 . S
C229 C230 1.376 . S
C230 H217 0.930 . S
C230 C229 1.376 . S
C230 C231 1.388 . S
C231 H218 0.930 . S
C231 C230 1.388 . S
C231 C232 1.390 . S
C232 C231 1.390 . S
C232 C233 1.394 . S
C232 C238 1.465 . S
C233 C228 1.399 . S
C233 C232 1.394 . S
C233 C234 1.516 . S
C234 C233 1.516 . S
C234 C235 1.502 . S
C234 C236 1.561 . S
C234 C237 1.526 . S
C235 H219 0.959 . S
C235 H220 0.959 . S
C235 H221 0.961 . S
C235 C234 1.502 . S
C236 H222 0.960 . S
C236 H223 0.961 . S
C236 H224 0.959 . S
C236 C234 1.561 . S
C237 C234 1.526 . S
C237 C238 1.396 . S
C237 C242 1.390 . S
C238 C232 1.465 . S
C238 C237 1.396 . S
C238 C239 1.399 . S
C239 H225 0.929 . S
C239 C238 1.399 . S
C239 C240 1.385 . S
C240 H226 0.931 . S
C240 C239 1.385 . S
C240 C241 1.389 . S
C241 C240 1.389 . S
C241 C242 1.387 . S
C242 H227 0.930 . S
C242 C237 1.390 . S
C242 C241 1.387 . S
H243 C255 0.930 . S
H244 C257 0.930 . S
H245 C258 0.930 . S
H246 C262 0.959 . S
H247 C262 0.959 . S
H248 C262 0.961 . S
H249 C263 0.960 . S
H250 C263 0.961 . S
H251 C263 0.959 . S
H252 C266 0.929 . S
H253 C267 0.931 . S
H254 C269 0.930 . S
C255 H243 0.930 . S
C255 C256 1.399 . S
C255 C260 1.399 . S
C256 C255 1.399 . S
C256 C257 1.376 . S
C257 H244 0.930 . S
C257 C256 1.376 . S
C257 C258 1.388 . S
C258 H245 0.930 . S
C258 C257 1.388 . S
C258 C259 1.390 . S
C259 C258 1.390 . S
C259 C260 1.394 . S
C259 C265 1.465 . S
C260 C255 1.399 . S
C260 C259 1.394 . S
C260 C261 1.516 . S
C261 C260 1.516 . S
C261 C262 1.502 . S
C261 C263 1.561 . S
C261 C264 1.526 . S
C262 H246 0.959 . S
C262 H247 0.959 . S
C262 H248 0.961 . S
C262 C261 1.502 . S
C263 H249 0.960 . S
C263 H250 0.961 . S
C263 H251 0.959 . S
C263 C261 1.561 . S
C264 C261 1.526 . S
C264 C265 1.396 . S
C264 C269 1.390 . S
C265 C259 1.465 . S
C265 C264 1.396 . S
C265 C266 1.399 . S
C266 H252 0.929 . S
C266 C265 1.399 . S
C266 C267 1.385 . S
C267 H253 0.931 . S
C267 C266 1.385 . S
C267 C268 1.389 . S
C268 C267 1.389 . S
C268 C269 1.387 . S
C269 H254 0.930 . S
C269 C264 1.390 . S
C269 C268 1.387 . S
H270 C282 0.930 . S
H271 C284 0.930 . S
H272 C285 0.930 . S
H273 C289 0.959 . S
H274 C289 0.959 . S
H275 C289 0.961 . S
H276 C290 0.960 . S
H277 C290 0.961 . S
H278 C290 0.959 . S
H279 C293 0.929 . S
H280 C294 0.931 . S
H281 C296 0.930 . S
C282 H270 0.930 . S
C282 C283 1.399 . S
C282 C287 1.399 . S
C283 C282 1.399 . S
C283 C284 1.376 . S
C284 H271 0.930 . S
C284 C283 1.376 . S
C284 C285 1.388 . S
C285 H272 0.930 . S
C285 C284 1.388 . S
C285 C286 1.390 . S
C286 C285 1.390 . S
C286 C287 1.394 . S
C286 C292 1.465 . S
C287 C282 1.399 . S
C287 C286 1.394 . S
C287 C288 1.516 . S
C288 C287 1.516 . S
C288 C289 1.502 . S
C288 C290 1.561 . S
C288 C291 1.526 . S
C289 H273 0.959 . S
C289 H274 0.959 . S
C289 H275 0.961 . S
C289 C288 1.502 . S
C290 H276 0.960 . S
C290 H277 0.961 . S
C290 H278 0.959 . S
C290 C288 1.561 . S
C291 C288 1.526 . S
C291 C292 1.396 . S
C291 C296 1.390 . S
C292 C286 1.465 . S
C292 C291 1.396 . S
C292 C293 1.399 . S
C293 H279 0.929 . S
C293 C292 1.399 . S
C293 C294 1.385 . S
C294 H280 0.931 . S
C294 C293 1.385 . S
C294 C295 1.389 . S
C295 C294 1.389 . S
C295 C296 1.387 . S
C296 H281 0.930 . S
C296 C291 1.390 . S
C296 C295 1.387 . S
H297 C309 0.930 . S
H298 C311 0.930 . S
H299 C312 0.930 . S
H300 C316 0.959 . S
H301 C316 0.959 . S
H302 C316 0.961 . S
H303 C317 0.960 . S
H304 C317 0.961 . S
H305 C317 0.959 . S
H306 C320 0.929 . S
H307 C321 0.931 . S
H308 C323 0.930 . S
C309 H297 0.930 . S
C309 C310 1.399 . S
C309 C314 1.399 . S
C310 C309 1.399 . S
C310 C311 1.376 . S
C311 H298 0.930 . S
C311 C310 1.376 . S
C311 C312 1.388 . S
C312 H299 0.930 . S
C312 C311 1.388 . S
C312 C313 1.390 . S
C313 C312 1.390 . S
C313 C314 1.394 . S
C313 C319 1.465 . S
C314 C309 1.399 . S
C314 C313 1.394 . S
C314 C315 1.516 . S
C315 C314 1.516 . S
C315 C316 1.502 . S
C315 C317 1.561 . S
C315 C318 1.526 . S
C316 H300 0.959 . S
C316 H301 0.959 . S
C316 H302 0.961 . S
C316 C315 1.502 . S
C317 H303 0.960 . S
C317 H304 0.961 . S
C317 H305 0.959 . S
C317 C315 1.561 . S
C318 C315 1.526 . S
C318 C319 1.396 . S
C318 C323 1.390 . S
C319 C313 1.465 . S
C319 C318 1.396 . S
C319 C320 1.399 . S
C320 H306 0.929 . S
C320 C319 1.399 . S
C320 C321 1.385 . S
C321 H307 0.931 . S
C321 C320 1.385 . S
C321 C322 1.389 . S
C322 C321 1.389 . S
C322 C323 1.387 . S
C323 H308 0.930 . S
C323 C318 1.390 . S
C323 C322 1.387 . S
H324 C336 0.930 . S
H325 C338 0.930 . S
H326 C339 0.930 . S
H327 C343 0.959 . S
H328 C343 0.959 . S
H329 C343 0.961 . S
H330 C344 0.960 . S
H331 C344 0.961 . S
H332 C344 0.959 . S
H333 C347 0.929 . S
H334 C348 0.931 . S
H335 C350 0.930 . S
C336 H324 0.930 . S
C336 C337 1.399 . S
C336 C341 1.399 . S
C337 C336 1.399 . S
C337 C338 1.376 . S
C338 H325 0.930 . S
C338 C337 1.376 . S
C338 C339 1.388 . S
C339 H326 0.930 . S
C339 C338 1.388 . S
C339 C340 1.390 . S
C340 C339 1.390 . S
C340 C341 1.394 . S
C340 C346 1.465 . S
C341 C336 1.399 . S
C341 C340 1.394 . S
C341 C342 1.516 . S
C342 C341 1.516 . S
C342 C343 1.502 . S
C342 C344 1.561 . S
C342 C345 1.526 . S
C343 H327 0.959 . S
C343 H328 0.959 . S
C343 H329 0.961 . S
C343 C342 1.502 . S
C344 H330 0.960 . S
C344 H331 0.961 . S
C344 H332 0.959 . S
C344 C342 1.561 . S
C345 C342 1.526 . S
C345 C346 1.396 . S
C345 C350 1.390 . S
C346 C340 1.465 . S
C346 C345 1.396 . S
C346 C347 1.399 . S
C347 H333 0.929 . S
C347 C346 1.399 . S
C347 C348 1.385 . S
C348 H334 0.931 . S
C348 C347 1.385 . S
C348 C349 1.389 . S
C349 C348 1.389 . S
C349 C350 1.387 . S
C350 H335 0.930 . S
C350 C345 1.390 . S
C350 C349 1.387 . S
H351 C363 0.930 . S
H352 C365 0.930 . S
H353 C366 0.930 . S
H354 C370 0.959 . S
H355 C370 0.959 . S
H356 C370 0.961 . S
H357 C371 0.960 . S
H358 C371 0.961 . S
H359 C371 0.959 . S
H360 C374 0.929 . S
H361 C375 0.931 . S
H362 C377 0.930 . S
C363 H351 0.930 . S
C363 C364 1.399 . S
C363 C368 1.399 . S
C364 C363 1.399 . S
C364 C365 1.376 . S
C365 H352 0.930 . S
C365 C364 1.376 . S
C365 C366 1.388 . S
C366 H353 0.930 . S
C366 C365 1.388 . S
C366 C367 1.390 . S
C367 C366 1.390 . S
C367 C368 1.394 . S
C367 C373 1.465 . S
C368 C363 1.399 . S
C368 C367 1.394 . S
C368 C369 1.516 . S
C369 C368 1.516 . S
C369 C370 1.502 . S
C369 C371 1.561 . S
C369 C372 1.526 . S
C370 H354 0.959 . S
C370 H355 0.959 . S
C370 H356 0.961 . S
C370 C369 1.502 . S
C371 H357 0.960 . S
C371 H358 0.961 . S
C371 H359 0.959 . S
C371 C369 1.561 . S
C372 C369 1.526 . S
C372 C373 1.396 . S
C372 C377 1.390 . S
C373 C367 1.465 . S
C373 C372 1.396 . S
C373 C374 1.399 . S
C374 H360 0.929 . S
C374 C373 1.399 . S
C374 C375 1.385 . S
C375 H361 0.931 . S
C375 C374 1.385 . S
C375 C376 1.389 . S
C376 C375 1.389 . S
C376 C377 1.387 . S
C377 H362 0.930 . S
C377 C372 1.390 . S
C377 C376 1.387 . S
H378 C390 0.930 . S
H379 C392 0.924 1_545 S
H380 C393 0.930 . S
H381 C397 0.959 . S
H382 C397 0.959 . S
H383 C397 0.961 . S
H384 C398 0.960 . S
H385 C398 0.961 . S
H386 C398 0.959 . S
H387 C401 0.917 1_556 S
H388 C402 0.931 . S
H389 C404 0.930 . S
C390 H378 0.930 . S
C390 C391 1.399 . S
C390 C395 1.399 . S
C391 C390 1.399 . S
C391 C392 1.376 . S
C392 H379 0.924 1_565 S
C392 C391 1.376 . S
C392 C393 1.388 1_565 S
C393 H380 0.930 . S
C393 C392 1.388 1_545 S
C393 C394 1.390 . S
C394 C393 1.390 . S
C394 C395 1.394 1_545 S
C394 C400 1.465 1_556 S
C395 C390 1.399 . S
C395 C394 1.394 1_565 S
C395 C396 1.516 1_556 S
C396 C395 1.516 1_554 S
C396 C397 1.502 . S
C396 C398 1.561 . S
C396 C399 1.526 1_565 S
C397 H381 0.959 . S
C397 H382 0.959 . S
C397 H383 0.961 . S
C397 C396 1.502 . S
C398 H384 0.960 . S
C398 H385 0.961 . S
C398 H386 0.959 . S
C398 C396 1.561 . S
C399 C396 1.526 1_545 S
C399 C400 1.396 . S
C399 C404 1.390 . S
C400 C394 1.465 1_554 S
C400 C399 1.396 . S
C400 C401 1.399 . S
C401 H387 0.917 1_554 S
C401 C400 1.399 . S
C401 C402 1.385 . S
C402 H388 0.931 . S
C402 C401 1.385 . S
C402 C403 1.389 . S
C403 C402 1.389 . S
C403 C404 1.387 . S
C404 H389 0.930 . S
C404 C399 1.390 . S
C404 C403 1.387 . S
H405 C417 0.930 . S
H406 C419 0.930 . S
H407 C420 0.930 . S
H408 C424 0.959 . S
H409 C424 0.959 . S
H410 C424 0.961 . S
H411 C425 0.960 . S
H412 C425 0.961 . S
H413 C425 0.959 . S
H414 C428 0.929 . S
H415 C429 0.931 . S
H416 C431 0.930 . S
C417 H405 0.930 . S
C417 C418 1.399 . S
C417 C422 1.399 . S
C418 C417 1.399 . S
C418 C419 1.376 . S
C419 H406 0.930 . S
C419 C418 1.376 . S
C419 C420 1.388 . S
C420 H407 0.930 . S
C420 C419 1.388 . S
C420 C421 1.390 . S
C421 C420 1.390 . S
C421 C422 1.394 . S
C421 C427 1.465 . S
C422 C417 1.399 . S
C422 C421 1.394 . S
C422 C423 1.516 . S
C423 C422 1.516 . S
C423 C424 1.502 . S
C423 C425 1.561 . S
C423 C426 1.526 . S
C424 H408 0.959 . S
C424 H409 0.959 . S
C424 H410 0.961 . S
C424 C423 1.502 . S
C425 H411 0.960 . S
C425 H412 0.961 . S
C425 H413 0.959 . S
C425 C423 1.561 . S
C426 C423 1.526 . S
C426 C427 1.396 . S
C426 C431 1.390 . S
C427 C421 1.465 . S
C427 C426 1.396 . S
C427 C428 1.399 . S
C428 H414 0.929 . S
C428 C427 1.399 . S
C428 C429 1.385 . S
C429 H415 0.931 . S
C429 C428 1.385 . S
C429 C430 1.389 . S
C430 C429 1.389 . S
C430 C431 1.387 . S
C431 H416 0.930 . S
C431 C426 1.390 . S
C431 C430 1.387 . S
H432 C444 0.930 . S
H433 C446 0.930 . S
H434 C447 0.930 1_554 S
H435 C451 0.959 . S
H436 C451 0.959 . S
H437 C451 0.961 . S
H438 C452 0.960 . S
H439 C452 0.961 . S
H440 C452 0.959 . S
H441 C455 0.929 . S
H442 C456 0.931 . S
H443 C458 0.930 . S
C444 H432 0.930 . S
C444 C445 1.399 . S
C444 C449 1.399 . S
C445 C444 1.399 . S
C445 C446 1.376 . S
C446 H433 0.930 . S
C446 C445 1.376 . S
C446 C447 1.388 . S
C447 H434 0.930 1_556 S
C447 C446 1.388 . S
C447 C448 1.390 . S
C448 C447 1.390 . S
C448 C449 1.394 . S
C448 C454 1.465 1_556 S
C449 C444 1.399 . S
C449 C448 1.394 . S
C449 C450 1.516 1_455 S
C450 C449 1.516 1_655 S
C450 C451 1.502 . S
C450 C452 1.561 . S
C450 C453 1.526 1_556 S
C451 H435 0.959 . S
C451 H436 0.959 . S
C451 H437 0.961 . S
C451 C450 1.502 . S
C452 H438 0.960 . S
C452 H439 0.961 . S
C452 H440 0.959 . S
C452 C450 1.561 . S
C453 C450 1.526 1_554 S
C453 C454 1.396 1_655 S
C453 C458 1.390 . S
C454 C448 1.465 1_554 S
C454 C453 1.396 1_455 S
C454 C455 1.399 . S
C455 H441 0.929 . S
C455 C454 1.399 . S
C455 C456 1.385 1_455 S
C456 H442 0.931 . S
C456 C455 1.385 1_655 S
C456 C457 1.389 . S
C457 C456 1.389 . S
C457 C458 1.387 . S
C458 H443 0.930 . S
C458 C453 1.390 . S
C458 C457 1.387 . S
H459 C471 0.930 . S
H460 C473 0.930 . S
H461 C474 0.930 . S
H462 C478 0.959 . S
H463 C478 0.959 . S
H464 C478 0.961 . S
H465 C479 0.960 . S
H466 C479 0.961 . S
H467 C479 0.959 . S
H468 C482 0.929 . S
H469 C483 0.931 . S
H470 C485 0.930 . S
C471 H459 0.930 . S
C471 C472 1.399 . S
C471 C476 1.399 . S
C472 C471 1.399 . S
C472 C473 1.376 . S
C473 H460 0.930 . S
C473 C472 1.376 . S
C473 C474 1.388 . S
C474 H461 0.930 . S
C474 C473 1.388 . S
C474 C475 1.390 . S
C475 C474 1.390 . S
C475 C476 1.394 . S
C475 C481 1.465 . S
C476 C471 1.399 . S
C476 C475 1.394 . S
C476 C477 1.516 1_545 S
C477 C476 1.516 1_565 S
C477 C478 1.502 . S
C477 C479 1.561 . S
C477 C480 1.526 . S
C478 H462 0.959 . S
C478 H463 0.959 . S
C478 H464 0.961 . S
C478 C477 1.502 . S
C479 H465 0.960 . S
C479 H466 0.961 . S
C479 H467 0.959 . S
C479 C477 1.561 . S
C480 C477 1.526 . S
C480 C481 1.396 1_565 S
C480 C485 1.390 . S
C481 C475 1.465 . S
C481 C480 1.396 1_545 S
C481 C482 1.399 . S
C482 H468 0.929 . S
C482 C481 1.399 . S
C482 C483 1.385 1_545 S
C483 H469 0.931 . S
C483 C482 1.385 1_565 S
C483 C484 1.389 . S
C484 C483 1.389 . S
C484 C485 1.387 . S
C485 H470 0.930 . S
C485 C480 1.390 . S
C485 C484 1.387 . S
H486 C498 0.930 . S
H487 C500 0.930 . S
H488 C501 0.930 . S
H489 C505 0.959 . S
H490 C505 0.959 . S
H491 C505 0.961 . S
H492 C506 0.960 . S
H493 C506 0.961 . S
H494 C506 0.959 . S
H495 C509 0.929 1_556 S
H496 C510 0.931 . S
H497 C512 0.930 . S
C498 H486 0.930 . S
C498 C499 1.399 . S
C498 C503 1.399 . S
C499 C498 1.399 . S
C499 C500 1.376 . S
C500 H487 0.930 . S
C500 C499 1.376 . S
C500 C501 1.388 . S
C501 H488 0.930 . S
C501 C500 1.388 . S
C501 C502 1.390 . S
C502 C501 1.390 . S
C502 C503 1.394 . S
C502 C508 1.465 . S
C503 C498 1.399 . S
C503 C502 1.394 . S
C503 C504 1.516 1_556 S
C504 C503 1.516 1_554 S
C504 C505 1.502 . S
C504 C506 1.561 . S
C504 C507 1.526 . S
C505 H489 0.959 . S
C505 H490 0.959 . S
C505 H491 0.961 . S
C505 C504 1.502 . S
C506 H492 0.960 . S
C506 H493 0.961 . S
C506 H494 0.959 . S
C506 C504 1.561 . S
C507 C504 1.526 . S
C507 C508 1.396 1_554 S
C507 C512 1.390 . S
C508 C502 1.465 . S
C508 C507 1.396 1_556 S
C508 C509 1.399 1_556 S
C509 H495 0.929 1_554 S
C509 C508 1.399 1_554 S
C509 C510 1.385 . S
C510 H496 0.931 . S
C510 C509 1.385 . S
C510 C511 1.389 . S
C511 C510 1.389 . S
C511 C512 1.387 . S
C512 H497 0.930 . S
C512 C507 1.390 . S
C512 C511 1.387 . S
H513 C525 0.930 . S
H514 C527 0.930 . S
H515 C528 0.930 . S
H516 C532 0.959 . S
H517 C532 0.959 1_655 S
H518 C532 0.961 . S
H519 C533 0.960 . S
H520 C533 0.961 . S
H521 C533 0.959 . S
H522 C536 0.929 . S
H523 C537 0.931 . S
H524 C539 0.930 . S
C525 H513 0.930 . S
C525 C526 1.399 . S
C525 C530 1.399 . S
C526 C525 1.399 . S
C526 C527 1.376 . S
C527 H514 0.930 . S
C527 C526 1.376 . S
C527 C528 1.388 . S
C528 H515 0.930 . S
C528 C527 1.388 . S
C528 C529 1.390 . S
C529 C528 1.390 . S
C529 C530 1.394 . S
C529 C535 1.465 1_455 S
C530 C525 1.399 . S
C530 C529 1.394 . S
C530 C531 1.516 1_455 S
C531 C530 1.516 1_655 S
C531 C532 1.502 1_655 S
C531 C533 1.561 . S
C531 C534 1.526 . S
C532 H516 0.959 . S
C532 H517 0.959 1_455 S
C532 H518 0.961 . S
C532 C531 1.502 1_455 S
C533 H519 0.960 . S
C533 H520 0.961 . S
C533 H521 0.959 . S
C533 C531 1.561 . S
C534 C531 1.526 . S
C534 C535 1.396 . S
C534 C539 1.390 . S
C535 C529 1.465 1_655 S
C535 C534 1.396 . S
C535 C536 1.399 . S
C536 H522 0.929 . S
C536 C535 1.399 . S
C536 C537 1.385 . S
C537 H523 0.931 . S
C537 C536 1.385 . S
C537 C538 1.389 . S
C538 C537 1.389 . S
C538 C539 1.387 . S
C539 H524 0.930 . S
C539 C534 1.390 . S
C539 C538 1.387 . S
C229 C3 1.049 . S
C241 C147 0.990 . S
C256 C38 1.095 . S
C268 C182 1.094 . S
C283 C2 1.079 . S
C295 C74 1.076 . S
C310 C111 1.024 . S
C322 C39 1.071 . S
C337 C146 1.051 . S
C349 C75 1.024 . S
C364 C110 1.065 . S
C376 C183 1.037 . S
C391 C112 1.390 . S
C403 C14 1.338 . S
C418 C158 1.375 . S
C430 C40 1.388 . S
C445 C184 1.397 . S
C457 C76 1.407 . S
C472 C4 1.384 . S
C484 C122 1.350 . S
C499 C50 1.300 . S
C511 C148 1.374 . S
C526 C194 1.356 . S
C538 C86 1.365 . S
