# Generated by pormake.
# Topology rkf, (6)-cn, num edge types: 1
# Building blocks:
#     Node 0, Type 0, BuildingBlock: CUKXOW_clean_sbu_0, # of connection points: 6
#     Node 1, Type 0, BuildingBlock: CUKXOW_clean_sbu_0, # of connection points: 6
#     Node 2, Type 0, BuildingBlock: CUKXOW_clean_sbu_0, # of connection points: 6
#     Node 3, Type 0, BuildingBlock: CUKXOW_clean_sbu_0, # of connection points: 6
#     Node 4, Type 0, BuildingBlock: CUKXOW_clean_sbu_0, # of connection points: 6
#     Node 5, Type 0, BuildingBlock: CUKXOW_clean_sbu_0, # of connection points: 6
#     Edge 6, Type (0, 0), BuildingBlock: XUDNAN_clean_linker_2, # of connection points: 2
#     Edge 7, Type (0, 0), BuildingBlock: XUDNAN_clean_linker_2, # of connection points: 2
#     Edge 8, Type (0, 0), BuildingBlock: XUDNAN_clean_linker_2, # of connection points: 2
#     Edge 9, Type (0, 0), BuildingBlock: XUDNAN_clean_linker_2, # of connection points: 2
#     Edge 10, Type (0, 0), BuildingBlock: XUDNAN_clean_linker_2, # of connection points: 2
#     Edge 11, Type (0, 0), BuildingBlock: XUDNAN_clean_linker_2, # of connection points: 2
#     Edge 12, Type (0, 0), BuildingBlock: XUDNAN_clean_linker_2, # of connection points: 2
#     Edge 13, Type (0, 0), BuildingBlock: XUDNAN_clean_linker_2, # of connection points: 2
#     Edge 14, Type (0, 0), BuildingBlock: XUDNAN_clean_linker_2, # of connection points: 2
#     Edge 15, Type (0, 0), BuildingBlock: XUDNAN_clean_linker_2, # of connection points: 2
#     Edge 16, Type (0, 0), BuildingBlock: XUDNAN_clean_linker_2, # of connection points: 2
#     Edge 17, Type (0, 0), BuildingBlock: XUDNAN_clean_linker_2, # of connection points: 2
#     Edge 18, Type (0, 0), BuildingBlock: XUDNAN_clean_linker_2, # of connection points: 2
#     Edge 19, Type (0, 0), BuildingBlock: XUDNAN_clean_linker_2, # of connection points: 2
#     Edge 20, Type (0, 0), BuildingBlock: XUDNAN_clean_linker_2, # of connection points: 2
#     Edge 21, Type (0, 0), BuildingBlock: XUDNAN_clean_linker_2, # of connection points: 2
#     Edge 22, Type (0, 0), BuildingBlock: XUDNAN_clean_linker_2, # of connection points: 2
#     Edge 23, Type (0, 0), BuildingBlock: XUDNAN_clean_linker_2, # of connection points: 2
# Relax obj value: 0.319
# Max RMSD: 0.271
# Mean RMSD: 0.269
data_MOF--net-rkf--node1-CUKXOW_clean_sbu_0--edge1-XUDNAN_clean_linker_2
_symmetry_space_group_name_H-M    P1
_symmetry_Int_Tables_number       1
_symmetry_cell_setting            triclinic
loop_
_symmetry_equiv_pos_as_xyz
'x, y, z'
_cell_length_a     24.510259
_cell_length_b     24.272517
_cell_length_c     39.752661
_cell_angle_alpha  89.480179
_cell_angle_beta   91.488609
_cell_angle_gamma 119.91776
loop_
_atom_site_label
_atom_site_type_symbol
_atom_site_fract_x
_atom_site_fract_y
_atom_site_fract_z
_atom_type_partial_charge
Tb0 Tb 0.27123 0.01947 1.02817 0.0
C1 C 0.35258 0.97244 0.07015 0.0
Tb2 Tb 0.20325 0.88982 0.07196 0.0
O3 O 0.29873 0.07474 0.07535 0.0
O4 O 0.22063 0.98438 0.07269 0.0
O5 O 0.3508 0.00721 1.04415 0.0
C6 C 0.12961 0.83085 0.12455 0.0
O7 O 0.30211 0.92969 0.08646 0.0
C8 C 0.22647 0.87347 1.00969 0.0
C9 C 0.12431 0.9108 1.01535 0.0
O10 O 0.1699 0.81648 0.1119 0.0
O11 O 0.1314 0.87755 0.10749 0.0
O12 O 0.19218 0.82646 1.03005 0.0
O13 O 0.25125 0.92397 1.02714 0.0
O14 O 0.12542 0.87406 1.03988 0.0
O15 O 0.17478 0.96575 1.00631 0.0
C16 C 0.3116 0.12203 0.98671 0.0
O17 O 0.27422 0.10841 1.01187 0.0
O18 O 0.3265 0.0774 0.9851 0.0
C19 C 0.25514 0.0292 0.09252 0.0
Tb20 Tb 0.13768 0.19151 0.41231 0.0
C21 C 0.04013 0.08393 0.36691 0.0
Tb22 Tb 0.17507 0.1005 0.38029 0.0
O23 O 0.11812 0.22679 0.3649 0.0
O24 O 0.17381 0.18504 0.36584 0.0
O25 O 0.04679 0.11624 0.39481 0.0
C26 C 0.21761 0.05488 0.3336 0.0
O27 O 0.08442 0.07255 0.35643 0.0
C28 C 0.14225 0.06524 0.44473 0.0
C29 C 0.28199 0.23256 0.41071 0.0
O30 O 0.16188 0.02429 0.34627 0.0
O31 O 0.24948 0.10987 0.34807 0.0
O32 O 0.15903 0.03602 0.42366 0.0
O33 O 0.14536 0.11185 0.42825 0.0
O34 O 0.26796 0.18081 0.39297 0.0
O35 O 0.23847 0.24239 0.4239 0.0
C36 C 0.10996 0.25183 0.45701 0.0
O37 O 0.15645 0.27878 0.43664 0.0
O38 O 0.07919 0.19077 0.45249 0.0
C39 C 0.14587 0.20525 0.3459 0.0
Tb40 Tb 0.00181 0.25041 0.70486 0.0
C41 C 0.05271 0.39029 0.73525 0.0
Tb42 Tb 0.13486 0.32385 0.74973 0.0
O43 O 0.95183 0.23334 0.75155 0.0
O44 O 0.0421 0.24354 0.75167 0.0
O45 O 0.01476 0.34574 0.71274 0.0
C46 C 0.21001 0.33019 0.8023 0.0
O47 O 0.09678 0.38793 0.75497 0.0
C48 C 0.13931 0.35996 0.68692 0.0
C49 C 0.11178 0.21294 0.70051 0.0
O50 O 0.15224 0.31868 0.80434 0.0
O51 O 0.22594 0.34206 0.77094 0.0
O52 O 0.18937 0.38643 0.70688 0.0
O53 O 0.09566 0.31845 0.70342 0.0
O54 O 0.14265 0.24785 0.72727 0.0
O55 O 0.05994 0.21081 0.68702 0.0
C56 C 0.89974 0.17255 0.66508 0.0
O57 O 0.91496 0.15966 0.69453 0.0
O58 O 0.94359 0.23025 0.65747 0.0
C59 C -0.0017 0.23773 0.76987 0.0
Tb60 Tb 0.88175 0.97591 0.08839 0.0
C61 C 0.01355 0.1012 0.07287 0.0
Tb62 Tb 0.89147 0.0916 0.05573 0.0
O63 O 0.912 0.94365 1.04511 0.0
O64 O 0.86602 -0.00412 1.03761 0.0
O65 O -0.01678 0.04938 0.09198 0.0
C66 C 0.88743 0.15901 1.00353 0.0
O67 O -0.01567 0.11276 1.04837 0.0
C68 C 0.92427 0.10851 0.12188 0.0
C69 C 0.76171 -0.00111 0.08037 0.0
O70 O 0.92122 0.18292 1.03081 0.0
O71 O 0.85337 0.09818 1.00716 0.0
O72 O 0.93982 0.15445 0.10032 0.0
O73 O 0.88504 0.05836 0.10608 0.0
O74 O 0.79667 0.05625 0.06829 0.0
O75 O 0.78448 0.96099 0.08922 0.0
C76 C 0.83685 0.88049 0.13445 0.0
O77 O 0.81079 0.88153 0.1059 0.0
O78 O 0.89217 0.93083 0.13449 0.0
C79 C 0.89406 0.97062 1.02237 0.0
Tb80 Tb 0.80479 0.74682 0.37652 0.0
C81 C 0.67225 0.6481 0.40553 0.0
Tb82 Tb 0.73327 0.79661 0.42499 0.0
O83 O 0.83705 0.71839 0.42201 0.0
O84 O 0.81798 0.79302 0.42306 0.0
O85 O 0.71266 0.66301 0.38046 0.0
C86 C 0.72574 0.85578 0.4813 0.0
O87 O 0.67528 0.69086 0.42811 0.0
C88 C 0.69195 0.77852 0.36147 0.0
C89 C 0.83567 0.88669 0.37581 0.0
O90 O 0.71795 0.79847 0.47985 0.0
O91 O 0.7332 0.87711 0.45071 0.0
O92 O 0.67304 0.80344 0.3844 0.0
O93 O 0.72656 0.76115 0.37668 0.0
O94 O 0.80953 0.88337 0.40497 0.0
O95 O 0.85522 0.84719 0.36743 0.0
C96 C 0.87136 0.739 0.3258 0.0
O97 O 0.84059 0.76958 0.32544 0.0
O98 O 0.86164 0.70913 0.35433 0.0
C99 C 0.83284 0.7595 0.44082 0.0
Tb100 Tb 0.00264 0.89311 0.74681 0.0
C101 C 0.88115 0.90239 0.72792 0.0
Tb102 Tb 0.88915 0.78315 0.72246 0.0
O103 O 0.05204 0.94739 0.70287 0.0
O104 O 0.96815 0.8597 0.69628 0.0
O105 O 0.93296 0.92486 0.74746 0.0
C106 C 0.8059 0.6956 0.67916 0.0
O107 O 0.86491 0.85365 0.7081 0.0
C108 C 0.8838 0.80754 0.78746 0.0
C109 C -0.00259 0.75902 0.74156 0.0
O110 O 0.79288 0.71951 0.7047 0.0
O111 O 0.86558 0.71508 0.68177 0.0
O112 O 0.83589 0.78128 0.76665 0.0
O113 O 0.93108 0.8131 0.77184 0.0
O114 O 0.93698 0.73126 0.73398 0.0
O115 O 0.03229 0.82109 0.74647 0.0
C116 C 0.08992 0.95745 0.79497 0.0
O117 O 0.09912 0.93955 0.76616 0.0
O118 O 0.03273 0.94752 0.79359 0.0
C119 C 0.01504 0.90516 0.68086 0.0
H120 H 0.09953 0.18132 1.02574 0.0
H121 H 0.10178 0.1271 0.12734 0.0
H122 H 0.12407 0.04368 0.11012 0.0
H123 H 0.00243 0.06342 0.99983 0.0
H124 H 0.0215 0.04729 0.95938 0.0
H125 H 0.05712 0.12786 0.97424 0.0
H126 H 0.17383 0.14662 0.97305 0.0
H127 H 0.13004 0.07754 0.94728 0.0
H128 H 0.18102 0.07714 0.97994 0.0
H129 H 0.04096 0.93544 0.08566 0.0
H130 H 0.00767 0.84135 1.04868 0.0
H131 H 0.07934 0.96222 0.96344 0.0
C132 C 0.10989 0.15421 1.04401 0.0
C133 C 0.08275 0.1434 0.07597 0.0
C134 C 0.11028 0.12346 0.10109 0.0
C135 C 0.12263 0.07577 0.09149 0.0
C136 C 0.11636 0.06175 0.05707 0.0
C137 C 0.11864 0.10474 1.03256 0.0
C138 C 0.0956 0.0719 0.99819 0.0
C139 C 0.04098 0.07812 0.9821 0.0
C140 C 0.14858 0.09464 0.97319 0.0
C141 C 0.07347 0.00476 1.00865 0.0
C142 C 0.07798 -9e-05 1.0431 0.0
C143 C 0.04634 0.94059 0.05868 0.0
C144 C 0.02709 0.88791 1.03733 0.0
C145 C 0.06078 0.90149 1.007 0.0
C146 C 0.06377 0.95321 0.989 0.0
H147 H 0.79219 0.96968 0.37897 0.0
H148 H 0.84111 0.86876 0.30842 0.0
H149 H 0.84035 0.93552 0.2636 0.0
H150 H 0.81172 0.09955 0.28741 0.0
H151 H 0.83822 0.16123 0.31854 0.0
H152 H 0.76205 0.09063 0.32183 0.0
H153 H 0.78988 0.07398 0.38166 0.0
H154 H 0.86491 0.14548 0.37797 0.0
H155 H 0.8614 0.07305 0.39136 0.0
H156 H 0.94359 0.02488 0.26187 0.0
H157 H 0.02011 0.0328 0.30397 0.0
H158 H 0.96091 0.13177 0.37022 0.0
C159 C 0.80319 0.96321 0.35366 0.0
C160 C 0.824 0.91973 0.34794 0.0
C161 C 0.83104 0.90593 0.31455 0.0
C162 C 0.8284 0.94294 0.28854 0.0
C163 C 0.83475 0.00141 0.29743 0.0
C164 C 0.81087 0.0073 0.32822 0.0
C165 C 0.84151 0.07711 0.3366 0.0
C166 C 0.81173 0.10888 0.31475 0.0
C167 C 0.83945 0.09313 0.37412 0.0
C168 C 0.90589 0.09492 0.32411 0.0
C169 C 0.89788 0.05772 0.29555 0.0
C170 C 0.94751 0.04943 0.28521 0.0
C171 C -0.00964 0.05253 0.3097 0.0
C172 C -0.00679 0.07908 0.34141 0.0
C173 C 0.95604 0.10741 0.34673 0.0
H174 H 0.83649 0.93573 0.67019 0.0
H175 H 0.84401 0.96606 0.77536 0.0
H176 H 0.94638 0.06327 0.77157 0.0
H177 H 0.93992 0.94264 0.65594 0.0
H178 H -0.01641 -0.00735 0.62045 0.0
H179 H 0.90144 0.96276 0.62374 0.0
H180 H 0.91197 0.06692 0.62109 0.0
H181 H -0.00779 0.09782 0.61275 0.0
H182 H 0.97287 0.13407 0.64541 0.0
H183 H 0.05576 0.08071 0.76243 0.0
H184 H 0.16189 0.15255 0.74118 0.0
H185 H 0.08648 0.1363 0.64188 0.0
C186 C 0.85824 0.9669 0.69165 0.0
C187 C 0.84831 0.93972 0.724 0.0
C188 C 0.863 0.98282 0.75077 0.0
C189 C 0.92073 0.03891 0.74885 0.0
C190 C 0.94945 0.05202 0.71764 0.0
C191 C 0.91541 0.02461 0.68785 0.0
C192 C 0.96037 0.04076 0.65855 0.0
C193 C 0.94616 0.98108 0.63869 0.0
C194 C 0.95886 0.08809 0.63337 0.0
C195 C 0.02288 0.07086 0.67798 0.0
C196 C 0.01303 0.06791 0.71229 0.0
C197 C 0.06305 0.08881 0.73569 0.0
C198 C 0.12299 0.12934 0.72319 0.0
C199 C 0.12328 0.15974 0.69266 0.0
C200 C 0.08223 0.11856 0.6672 0.0
H201 H 0.27503 0.21495 0.9832 0.0
H202 H 0.37088 0.13704 0.9277 0.0
H203 H 0.36375 0.19115 0.87647 0.0
H204 H 0.16156 0.19664 0.92294 0.0
H205 H 0.16497 0.27221 0.92564 0.0
H206 H 0.18533 0.24196 0.96199 0.0
H207 H 0.2946 0.33835 0.96864 0.0
H208 H 0.27432 0.37446 0.93432 0.0
H209 H 0.3448 0.36882 0.93287 0.0
H210 H 0.33555 0.24137 0.82948 0.0
H211 H 0.29014 0.28705 0.78981 0.0
H212 H 0.20432 0.32867 0.87249 0.0
C213 C 0.29393 0.20902 0.96009 0.0
C214 C 0.32041 0.16841 0.95906 0.0
C215 C 0.34854 0.16571 0.92899 0.0
C216 C 0.34474 0.19652 0.89968 0.0
C217 C 0.31364 0.23143 0.90067 0.0
C218 C 0.28927 0.23892 0.93015 0.0
C219 C 0.25729 0.27876 0.92347 0.0
C220 C 0.18823 0.24505 0.93415 0.0
C221 C 0.295 0.34397 0.94085 0.0
C222 C 0.26196 0.28614 0.88534 0.0
C223 C 0.29715 0.2609 0.87311 0.0
C224 C 0.30842 0.26176 0.83887 0.0
C225 C 0.28242 0.28804 0.81645 0.0
C226 C 0.24376 0.31175 0.82791 0.0
C227 C 0.23385 0.31116 0.86298 0.0
H228 H 0.09005 0.25481 0.30393 0.0
H229 H 0.16062 0.12297 0.3042 0.0
H230 H 0.11039 0.08342 0.24815 0.0
H231 H 0.94243 0.16364 0.25906 0.0
H232 H 0.9513 0.23141 0.23631 0.0
H233 H -0.01019 0.24197 0.2769 0.0
H234 H 0.09395 0.32148 0.24603 0.0
H235 H 0.05255 0.30287 0.20589 0.0
H236 H 0.11985 0.29224 0.21195 0.0
H237 H 0.03596 0.046 0.19701 0.0
H238 H 0.96885 0.03078 0.14834 0.0
H239 H 0.96183 0.20025 0.17266 0.0
C240 C 0.09651 0.21881 0.29178 0.0
C241 C 0.12869 0.19113 0.30904 0.0
C242 C 0.13653 0.14487 0.29186 0.0
C243 C 0.10808 0.12225 0.25982 0.0
C244 C 0.07454 0.14866 0.24423 0.0
C245 C 0.07071 0.1977 0.25906 0.0
C246 C 0.03429 0.2197 0.236 0.0
C247 C 0.97616 0.21387 0.25318 0.0
C248 C 0.07777 0.28815 0.22426 0.0
C249 C 0.01493 0.17281 0.20677 0.0
C250 C 0.03766 0.13157 0.21264 0.0
C251 C 0.02011 0.07967 0.19168 0.0
C252 C -0.01947 0.07088 0.16361 0.0
C253 C 0.95985 0.11449 0.15495 0.0
C254 C 0.97752 0.16633 0.17748 0.0
H255 H 0.88274 0.17551 0.59501 0.0
H256 H 0.80744 0.0541 0.68203 0.0
H257 H 0.74901 0.9609 0.64474 0.0
H258 H 0.73323 0.0803 0.5398 0.0
H259 H 0.77904 0.09515 0.50262 0.0
H260 H 0.80707 0.15333 0.53607 0.0
H261 H 0.91132 0.15073 0.53933 0.0
H262 H 0.88332 0.09165 0.50651 0.0
H263 H 0.909 0.07617 0.54662 0.0
H264 H 0.71685 0.87734 0.59836 0.0
H265 H 0.69561 0.81365 0.5463 0.0
H266 H 0.78263 0.987 0.48789 0.0
C267 C 0.85173 0.12984 0.60617 0.0
C268 C 0.85071 0.1225 0.64178 0.0
C269 C 0.8099 0.06133 0.65507 0.0
C270 C 0.77653 0.00771 0.63396 0.0
C271 C 0.78234 0.01549 0.59916 0.0
C272 C 0.81693 0.07537 0.58524 0.0
C273 C 0.81664 0.06992 0.54698 0.0
C274 C 0.78194 0.10156 0.53037 0.0
C275 C 0.88408 0.09882 0.53412 0.0
C276 C 0.77958 -0.00215 0.54176 0.0
C277 C 0.76025 0.96734 0.57228 0.0
C278 C 0.72993 0.90094 0.57427 0.0
C279 C 0.71804 0.8649 0.54447 0.0
C280 C 0.73564 0.89466 0.51267 0.0
C281 C 0.7668 0.96234 0.51157 0.0
H282 H 0.93377 0.89518 0.98887 0.0
H283 H 0.82896 -0.00679 0.97131 0.0
H284 H 0.81481 0.96137 0.91131 0.0
H285 H 0.0188 0.92786 0.91486 0.0
H286 H 0.0042 0.8516 0.90048 0.0
H287 H 0.00417 0.86373 0.94422 0.0
H288 H 0.89497 0.78002 0.95693 0.0
H289 H 0.89394 0.75173 0.91499 0.0
H290 H 0.83154 0.76524 0.92778 0.0
H291 H 0.81558 0.92301 0.85115 0.0
H292 H 0.82338 0.87296 0.7989 0.0
H293 H 0.93356 0.80464 0.85212 0.0
C294 C 0.90977 0.91196 0.97218 0.0
C295 C 0.88528 0.95023 0.98522 0.0
C296 C 0.85047 0.96673 0.96241 0.0
C297 C 0.84201 0.94845 0.92804 0.0
C298 C 0.8693 0.914 0.9158 0.0
C299 C 0.90178 0.89479 0.93729 0.0
C300 C 0.92056 0.85226 0.91773 0.0
C301 C -0.0087 0.87589 0.91957 0.0
C302 C 0.88302 0.78321 0.93008 0.0
C303 C 0.90039 0.85709 0.88168 0.0
C304 C 0.8687 0.89088 0.88137 0.0
C305 C 0.84164 0.89782 0.85141 0.0
C306 C 0.84729 0.87012 0.82149 0.0
C307 C 0.88249 0.83823 0.82042 0.0
C308 C 0.909 0.83134 0.85138 0.0
H309 H 0.92805 0.83322 0.27923 0.0
H310 H 0.91651 0.65784 0.31345 0.0
H311 H -0.0146 0.66428 0.26706 0.0
H312 H 0.91466 0.79715 0.19149 0.0
H313 H 0.96759 0.87792 0.17906 0.0
H314 H 0.9229 0.8624 0.21665 0.0
H315 H 0.02555 0.93049 0.25096 0.0
H316 H 0.07175 0.94567 0.21394 0.0
H317 H 0.0875 0.91108 0.25058 0.0
H318 H 0.0524 0.6882 0.21484 0.0
H319 H 0.11053 0.72669 0.16166 0.0
H320 H 0.07064 0.8818 0.15959 0.0
C321 C 0.939 0.79545 0.27659 0.0
C322 C 0.91517 0.74375 0.29927 0.0
C323 C 0.93346 0.69728 0.29607 0.0
C324 C 0.97252 0.70063 0.26978 0.0
C325 C -0.00703 0.75085 0.24694 0.0
C326 C 0.97677 0.79751 0.25017 0.0
C327 C 0.00251 0.84514 0.22163 0.0
C328 C 0.94872 0.84563 0.20099 0.0
C329 C 0.04963 0.91204 0.23507 0.0
C330 C 0.03519 0.81752 0.20152 0.0
C331 C 0.02991 0.76365 0.21671 0.0
C332 C 0.05668 0.73025 0.20274 0.0
C333 C 0.08951 0.75228 0.1725 0.0
C334 C 0.09459 0.80668 0.15629 0.0
C335 C 0.06702 0.83957 0.17118 0.0
H336 H 0.11299 0.00711 0.64773 0.0
H337 H 0.94329 0.8271 0.62728 0.0
H338 H 0.95651 0.84972 0.56608 0.0
H339 H 0.08787 0.09709 0.58582 0.0
H340 H 0.16676 0.14393 0.57077 0.0
H341 H 0.15519 0.11626 0.6134 0.0
H342 H 0.2157 0.05787 0.60816 0.0
H343 H 0.23595 0.09002 0.56638 0.0
H344 H 0.2 0.00549 0.57285 0.0
H345 H -0.0126 0.89428 0.50559 0.0
H346 H 0.03385 0.95322 0.45317 0.0
H347 H 0.1819 0.10731 0.51155 0.0
C348 C 0.07911 0.97165 0.63042 0.0
C349 C 0.02669 0.9146 0.64301 0.0
C350 C -0.01635 0.8706 0.61892 0.0
C351 C -0.00926 0.88352 0.58388 0.0
C352 C 0.04142 0.94084 0.57253 0.0
C353 C 0.08533 0.98409 0.59517 0.0
C354 C 0.13508 0.04259 0.57628 0.0
C355 C 0.13607 0.10352 0.58726 0.0
C356 C 0.20056 0.04936 0.5812 0.0
C357 C 0.11184 0.0263 0.5397 0.0
C358 C 0.05799 0.96707 0.5381 0.0
C359 C 0.02901 0.9409 0.50697 0.0
C360 C 0.05561 0.97518 0.47711 0.0
C361 C 0.11047 0.03628 0.47776 0.0
C362 C 0.13873 0.06195 0.50986 0.0
H363 H 0.45855 0.01985 1.03278 0.0
H364 H 0.38055 0.92876 0.12795 0.0
H365 H 0.4745 0.91881 0.13986 0.0
H366 H 0.52454 0.92395 1.0122 0.0
H367 H 0.59383 -0.01213 0.99368 0.0
H368 H 0.52141 -0.01001 0.99309 0.0
H369 H 0.57741 0.09983 1.02294 0.0
H370 H 0.65031 0.09879 1.02294 0.0
H371 H 0.6206 0.10941 0.06191 0.0
H372 H 0.57608 0.91515 0.14025 0.0
H373 H 0.68301 0.93068 0.13166 0.0
H374 H 0.6914 0.02321 1.03657 0.0
C375 C 0.46164 -0.00116 0.05639 0.0
C376 C 0.4123 0.97498 0.07935 0.0
C377 C 0.41783 0.94711 0.10985 0.0
C378 C 0.47083 0.94098 0.11682 0.0
C379 C 0.5177 0.96295 0.09306 0.0
C380 C 0.51393 -0.00793 0.06368 0.0
C381 C 0.57051 0.01174 1.04225 0.0
C382 C 0.5514 0.97625 1.0083 0.0
C383 C 0.60687 0.08424 1.03724 0.0
C384 C 0.60703 -0.01015 0.06433 0.0
C385 C 0.57572 0.96107 0.09336 0.0
C386 C 0.60116 0.93765 0.11761 0.0
C387 C 0.66138 0.94604 0.11247 0.0
C388 C 0.69484 0.97812 0.08357 0.0
C389 C 0.66657 -0.00135 0.05896 0.0
H390 H 0.33347 0.34639 0.44601 0.0
H391 H 0.38025 0.24119 0.37554 0.0
H392 H 0.4849 0.335 0.36884 0.0
H393 H 0.40756 0.49315 0.40458 0.0
H394 H 0.43797 0.54193 0.44188 0.0
H395 H 0.36786 0.46517 0.4439 0.0
H396 H 0.41906 0.43132 0.49149 0.0
H397 H 0.48915 0.50838 0.4899 0.0
H398 H 0.49443 0.43746 0.485 0.0
H399 H 0.57973 0.44026 0.36569 0.0
H400 H 0.66466 0.55054 0.36886 0.0
H401 H 0.56121 0.59214 0.44217 0.0
C402 C 0.36622 0.34256 0.42977 0.0
C403 C 0.34835 0.28576 0.41151 0.0
C404 C 0.3926 0.28339 0.39019 0.0
C405 C 0.45226 0.33672 0.38603 0.0
C406 C 0.46766 0.39209 0.4037 0.0
C407 C 0.42657 0.39541 0.42555 0.0
C408 C 0.45526 0.46172 0.44085 0.0
C409 C 0.41474 0.49228 0.43227 0.0
C410 C 0.46504 0.45957 0.47908 0.0
C411 C 0.51802 0.49549 0.42331 0.0
C412 C 0.52381 0.45387 0.40217 0.0
C413 C 0.57614 0.47312 0.38247 0.0
C414 C 0.62427 0.53641 0.38448 0.0
C415 C 0.62031 0.58071 0.40598 0.0
C416 C 0.56623 0.55962 0.42579 0.0
H417 H 0.00917 0.44357 0.78031 0.0
H418 H 0.10208 0.47429 0.68513 0.0
H419 H 0.11111 0.58025 0.68055 0.0
H420 H 0.91503 0.51047 0.75557 0.0
H421 H 0.91922 0.5457 0.79597 0.0
H422 H 0.92694 0.47596 0.79345 0.0
H423 H 0.03398 0.53544 0.82601 0.0
H424 H 0.02706 0.60589 0.82814 0.0
H425 H 0.09556 0.60977 0.81005 0.0
H426 H 0.10845 0.68146 0.68579 0.0
H427 H 0.07829 0.76329 0.69547 0.0
H428 H 0.9789 0.6634 0.78454 0.0
C429 C 0.03173 0.47313 0.75874 0.0
C430 C 0.05534 0.45177 0.73311 0.0
C431 C 0.0839 0.49059 0.70493 0.0
C432 C 0.08968 0.55082 0.70229 0.0
C433 C 0.06616 0.57109 0.72799 0.0
C434 C 0.03678 0.53306 0.7554 0.0
C435 C 0.01035 0.56381 0.77781 0.0
C436 C 0.93863 0.52147 0.78085 0.0
C437 C 0.04373 0.57966 0.81257 0.0
C438 C 0.02742 0.62381 0.75811 0.0
C439 C 0.06159 0.62812 0.73009 0.0
C440 C 0.08203 0.67883 0.70772 0.0
C441 C 0.06516 0.72523 0.7135 0.0
C442 C 0.02716 0.71956 0.7409 0.0
C443 C 0.0089 0.66893 0.76375 0.0
H444 H 0.27823 0.12237 0.1387 0.0
H445 H 0.24135 0.92958 0.13031 0.0
H446 H 0.2302 0.91541 0.19087 0.0
H447 H 0.37585 0.15362 0.21772 0.0
H448 H 0.34951 0.20468 0.2348 0.0
H449 H 0.35503 0.19967 0.18991 0.0
H450 H 0.23953 0.17105 0.1828 0.0
H451 H 0.2306 0.1722 0.22751 0.0
H452 H 0.179 0.10177 0.20313 0.0
H453 H 0.21052 0.91753 0.25094 0.0
H454 H 0.19756 0.94146 0.30972 0.0
H455 H 0.26436 0.13784 0.28227 0.0
C456 C 0.26842 0.07752 0.1498 0.0
C457 C 0.25628 0.02509 0.12948 0.0
C458 C 0.24561 0.96817 0.14488 0.0
C459 C 0.24071 0.96026 0.17956 0.0
C460 C 0.24994 0.01143 0.19886 0.0
C461 C 0.26558 0.06971 0.18485 0.0
C462 C 0.27427 0.1171 0.21186 0.0
C463 C 0.34275 0.17201 0.21367 0.0
C464 C 0.22804 0.14195 0.20604 0.0
C465 C 0.25857 0.07518 0.24278 0.0
C466 C 0.24453 0.01433 0.23457 0.0
C467 C 0.22338 0.96548 0.25815 0.0
C468 C 0.21619 0.97926 0.2913 0.0
C469 C 0.23193 0.04155 0.30032 0.0
C470 C 0.25415 0.09024 0.27596 0.0
H471 H 0.20563 0.32547 0.49878 0.0
H472 H 0.00366 0.23858 0.48368 0.0
H473 H -0.00403 0.27908 0.53924 0.0
H474 H 0.19392 0.27272 0.58007 0.0
H475 H 0.2653 0.34015 0.59611 0.0
H476 H 0.25797 0.31911 0.55235 0.0
H477 H 0.2823 0.43239 0.53548 0.0
H478 H 0.29016 0.45417 0.57934 0.0
H479 H 0.23569 0.46398 0.55209 0.0
H480 H 0.0093 0.32335 0.59526 0.0
H481 H 0.03567 0.34628 0.65479 0.0
H482 H 0.22677 0.38855 0.63817 0.0
C483 C 0.16039 0.31775 0.50675 0.0
C484 C 0.10545 0.28213 0.48696 0.0
C485 C 0.04611 0.26819 0.49847 0.0
C486 C 0.04155 0.29108 0.52972 0.0
C487 C 0.09673 0.32616 0.5489 0.0
C488 C 0.1548 0.33801 0.53834 0.0
C489 C 0.2043 0.36535 0.56635 0.0
C490 C 0.23192 0.3217 0.57419 0.0
C491 C 0.2562 0.43301 0.55779 0.0
C492 C 0.16456 0.36601 0.59458 0.0
C493 C 0.10341 0.34544 0.58333 0.0
C494 C 0.05694 0.33972 0.60442 0.0
C495 C 0.07246 0.35268 0.63833 0.0
C496 C 0.13299 0.36863 0.65102 0.0
C497 C 0.18058 0.37784 0.62884 0.0
H498 H 0.94935 0.13953 0.81216 0.0
H499 H 0.04448 0.34486 0.80855 0.0
H500 H 0.03075 0.34923 0.86954 0.0
H501 H 0.83255 0.12081 0.86261 0.0
H502 H 0.82652 0.05585 0.88744 0.0
H503 H 0.85467 0.06657 0.84523 0.0
H504 H 0.95503 0.0693 0.8655 0.0
H505 H 0.93524 0.06228 0.90925 0.0
H506 H 0.00746 0.12835 0.89562 0.0
H507 H 0.00057 0.32922 0.93116 0.0
H508 H 0.95454 0.28586 0.98692 0.0
H509 H 0.86882 0.09495 0.94586 0.0
C510 C 0.96923 0.1853 0.82457 0.0
C511 C 0.00038 0.24187 0.80635 0.0
C512 C 0.02303 0.30115 0.82261 0.0
C513 C 0.01496 0.30403 0.85717 0.0
C514 C -0.01704 0.24704 0.87456 0.0
C515 C 0.96051 0.18885 0.85871 0.0
C516 C 0.92313 0.13441 0.882 0.0
C517 C 0.85526 0.09191 0.8685 0.0
C518 C 0.95713 0.09628 0.88841 0.0
C519 C 0.92508 0.17091 0.9129 0.0
C520 C 0.96133 0.23575 0.9087 0.0
C521 C 0.97156 0.27847 0.93468 0.0
C522 C 0.94478 0.25372 0.966 0.0
C523 C 0.90689 0.18737 0.97026 0.0
C524 C 0.89625 0.14598 0.94316 0.0
H525 H 0.79753 0.77502 0.17546 0.0
H526 H 0.79355 0.9503 0.16287 0.0
H527 H 0.73306 0.92867 0.21476 0.0
H528 H 0.6365 0.68397 0.21851 0.0
H529 H 0.66498 0.64418 0.24623 0.0
H530 H 0.69398 0.66452 0.20405 0.0
H531 H 0.80909 0.72759 0.22742 0.0
H532 H 0.77972 0.70526 0.26914 0.0
H533 H 0.82771 0.78843 0.25852 0.0
H534 H 0.67994 0.8926 0.26993 0.0
H535 H 0.66403 0.86127 0.32962 0.0
H536 H 0.71204 0.71534 0.31029 0.0
C537 C 0.7823 0.80767 0.18335 0.0
C538 C 0.79908 0.86368 0.16509 0.0
C539 C 0.78009 0.90655 0.17641 0.0
C540 C 0.74504 0.89428 0.20559 0.0
C541 C 0.72877 0.83851 0.22323 0.0
C542 C 0.74726 0.79615 0.21273 0.0
C543 C 0.73207 0.74512 0.239 0.0
C544 C 0.67871 0.68061 0.22617 0.0
C545 C 0.79074 0.74128 0.24915 0.0
C546 C 0.70976 0.76987 0.26743 0.0
C547 C 0.70334 0.82074 0.25675 0.0
C548 C 0.68421 0.85241 0.27845 0.0
C549 C 0.67552 0.83441 0.31242 0.0
C550 C 0.68799 0.78668 0.32462 0.0
C551 C 0.70297 0.75246 0.30159 0.0
H552 H 0.8001 0.6577 0.48254 0.0
H553 H 0.86028 0.85885 0.48087 0.0
H554 H 0.84091 0.85611 0.54155 0.0
H555 H 0.67769 0.61255 0.54501 0.0
H556 H 0.69423 0.55597 0.56572 0.0
H557 H 0.70812 0.57119 0.52137 0.0
H558 H 0.82449 0.59989 0.53086 0.0
H559 H 0.81052 0.58345 0.57497 0.0
H560 H 0.87301 0.65977 0.56161 0.0
H561 H 0.80644 0.83054 0.59951 0.0
H562 H 0.79496 0.79437 0.6578 0.0
H563 H 0.7732 0.61421 0.62522 0.0
C564 C 0.80965 0.70107 0.49519 0.0
C565 C 0.83045 0.75831 0.47738 0.0
C566 C 0.84329 0.81449 0.49437 0.0
C567 C 0.83168 0.81319 0.52857 0.0
C568 C 0.80762 0.75533 0.54515 0.0
C569 C 0.7988 0.70075 0.52953 0.0
C570 C 0.7782 0.64656 0.55433 0.0
C571 C 0.71056 0.59342 0.54609 0.0
C572 C 0.82436 0.62098 0.55553 0.0
C573 C 0.78043 0.68053 0.58653 0.0
C574 C 0.79371 0.742 0.58002 0.0
C575 C 0.79633 0.78265 0.60507 0.0
C576 C 0.78909 0.76127 0.63811 0.0
C577 C 0.78305 0.70138 0.64585 0.0
C578 C 0.77651 0.65955 0.61975 0.0
H579 H 0.18732 0.02448 0.84056 0.0
H580 H 0.03388 0.83663 0.81467 0.0
H581 H 0.063 0.79075 0.86259 0.0
H582 H 0.30068 0.98042 0.87271 0.0
H583 H 0.32556 0.03218 0.90875 0.0
H584 H 0.29975 0.05419 0.87057 0.0
H585 H 0.21912 0.06787 0.90159 0.0
H586 H 0.23297 0.04118 0.94166 0.0
H587 H 0.15621 0.0014 0.92254 0.0
H588 H 0.10152 0.76714 0.9162 0.0
H589 H 0.14364 0.76868 0.97349 0.0
H590 H 0.27336 0.97027 0.96456 0.0
C591 C 0.16085 0.97369 0.84482 0.0
C592 C 0.10866 0.93387 0.82431 0.0
C593 C 0.07407 0.86768 0.83055 0.0
C594 C 0.09063 0.84107 0.85737 0.0
C595 C 0.14206 0.88144 0.87761 0.0
C596 C 0.17673 0.94616 0.87163 0.0
C597 C 0.22375 0.97985 0.89982 0.0
C598 C 0.29145 0.01379 0.88718 0.0
C599 C 0.20728 0.02553 0.91738 0.0
C600 C 0.21144 0.92422 0.92215 0.0
C601 C 0.16386 0.86779 0.90892 0.0
C602 C 0.13986 0.81085 0.92655 0.0
C603 C 0.16432 0.81213 0.95897 0.0
C604 C 0.21203 0.86997 0.9733 0.0
C605 C 0.23734 0.92587 0.95407 0.0
loop_
_geom_bond_atom_site_label_1
_geom_bond_atom_site_label_2
_geom_bond_distance
_geom_bond_site_symmetry_2
_ccdc_geom_bond_type
Tb0 O3 2.453 1_556 S
Tb0 O4 2.596 1_556 S
Tb0 O5 2.374 . S
Tb0 O13 2.359 . S
Tb0 O15 2.353 . S
Tb0 O17 2.427 . S
Tb0 O18 2.513 . S
C1 O5 1.251 1_554 S
C1 O7 1.263 1_545 S
Tb2 O4 2.343 1_565 S
Tb2 O7 2.353 . S
Tb2 O10 2.427 . S
Tb2 O11 2.513 . S
Tb2 O12 2.453 1_554 S
Tb2 O13 2.586 1_564 S
Tb2 O14 2.374 . S
O3 Tb0 2.453 1_554 S
O3 C19 1.245 . S
O4 Tb0 2.596 1_554 S
O4 Tb2 2.343 1_545 S
O4 C19 1.259 . S
O5 Tb0 2.374 . S
O5 C1 1.251 1_556 S
C6 O10 1.275 . S
C6 O11 1.246 . S
O7 C1 1.263 1_565 S
O7 Tb2 2.353 . S
C8 O12 1.245 . S
C8 O13 1.246 1_565 S
C9 O14 1.253 1_545 S
C9 O15 1.262 1_554 S
O10 Tb2 2.427 . S
O10 C6 1.275 . S
O11 Tb2 2.513 . S
O11 C6 1.246 . S
O12 Tb2 2.453 1_556 S
O12 C8 1.245 . S
O13 Tb0 2.359 . S
O13 Tb2 2.586 1_546 S
O13 C8 1.246 1_545 S
O14 Tb2 2.374 . S
O14 C9 1.253 1_565 S
O15 Tb0 2.353 . S
O15 C9 1.262 1_556 S
C16 O17 1.275 . S
C16 O18 1.246 . S
O17 Tb0 2.427 . S
O17 C16 1.275 . S
O18 Tb0 2.513 . S
O18 C16 1.246 . S
C19 O3 1.245 . S
C19 O4 1.259 . S
Tb20 O23 2.453 . S
Tb20 O24 2.596 . S
Tb20 O25 2.374 . S
Tb20 O33 2.343 . S
Tb20 O35 2.353 . S
Tb20 O37 2.427 . S
Tb20 O38 2.513 . S
C21 O25 1.251 . S
C21 O27 1.263 . S
Tb22 O24 2.343 . S
Tb22 O27 2.353 . S
Tb22 O30 2.427 . S
Tb22 O31 2.513 . S
Tb22 O32 2.453 . S
Tb22 O33 2.596 . S
Tb22 O34 2.374 . S
O23 Tb20 2.453 . S
O23 C39 1.245 . S
O24 Tb20 2.596 . S
O24 Tb22 2.343 . S
O24 C39 1.259 . S
O25 Tb20 2.374 . S
O25 C21 1.251 . S
C26 O30 1.275 . S
C26 O31 1.246 . S
O27 C21 1.263 . S
O27 Tb22 2.353 . S
C28 O32 1.245 . S
C28 O33 1.259 . S
C29 O34 1.250 . S
C29 O35 1.263 . S
O30 Tb22 2.427 . S
O30 C26 1.275 . S
O31 Tb22 2.513 . S
O31 C26 1.246 . S
O32 Tb22 2.453 . S
O32 C28 1.245 . S
O33 Tb20 2.343 . S
O33 Tb22 2.596 . S
O33 C28 1.259 . S
O34 Tb22 2.374 . S
O34 C29 1.250 . S
O35 Tb20 2.353 . S
O35 C29 1.263 . S
C36 O37 1.275 . S
C36 O38 1.246 . S
O37 Tb20 2.427 . S
O37 C36 1.275 . S
O38 Tb20 2.513 . S
O38 C36 1.246 . S
C39 O23 1.245 . S
C39 O24 1.259 . S
Tb40 O43 2.453 . S
Tb40 O44 2.596 1_655 S
Tb40 O45 2.374 . S
Tb40 O53 2.343 1_655 S
Tb40 O55 2.353 . S
Tb40 O57 2.427 . S
Tb40 O58 2.513 . S
C41 O45 1.251 1_455 S
C41 O47 1.263 . S
Tb42 O44 2.343 . S
Tb42 O47 2.353 . S
Tb42 O50 2.427 . S
Tb42 O51 2.513 . S
Tb42 O52 2.453 . S
Tb42 O53 2.596 . S
Tb42 O54 2.374 . S
O43 Tb40 2.453 . S
O43 C59 1.245 . S
O44 Tb40 2.596 1_455 S
O44 Tb42 2.343 . S
O44 C59 1.259 1_455 S
O45 Tb40 2.374 . S
O45 C41 1.251 1_655 S
C46 O50 1.275 . S
C46 O51 1.246 . S
O47 C41 1.263 . S
O47 Tb42 2.353 . S
C48 O52 1.245 . S
C48 O53 1.259 . S
C49 O54 1.250 . S
C49 O55 1.263 1_455 S
O50 Tb42 2.427 . S
O50 C46 1.275 . S
O51 Tb42 2.513 . S
O51 C46 1.246 . S
O52 Tb42 2.453 . S
O52 C48 1.245 . S
O53 Tb40 2.343 1_455 S
O53 Tb42 2.596 . S
O53 C48 1.259 . S
O54 Tb42 2.374 . S
O54 C49 1.250 . S
O55 Tb40 2.353 . S
O55 C49 1.263 1_655 S
C56 O57 1.275 . S
C56 O58 1.246 . S
O57 Tb40 2.427 . S
O57 C56 1.275 . S
O58 Tb40 2.513 . S
O58 C56 1.246 . S
C59 O43 1.245 . S
C59 O44 1.259 1_655 S
Tb60 O63 2.453 1_554 S
Tb60 O64 2.596 1_564 S
Tb60 O65 2.374 . S
Tb60 O73 2.343 1_565 S
Tb60 O75 2.353 . S
Tb60 O77 2.427 . S
Tb60 O78 2.513 . S
C61 O65 1.255 1_545 S
C61 O67 1.261 1_554 S
Tb62 O64 2.343 . S
Tb62 O67 2.353 . S
Tb62 O70 2.427 . S
Tb62 O71 2.513 . S
Tb62 O72 2.453 1_556 S
Tb62 O73 2.596 1_556 S
Tb62 O74 2.374 . S
O63 Tb60 2.453 1_556 S
O63 C79 1.245 . S
O64 Tb60 2.596 1_546 S
O64 Tb62 2.343 . S
O64 C79 1.259 1_545 S
O65 Tb60 2.374 . S
O65 C61 1.255 1_565 S
C66 O70 1.275 . S
C66 O71 1.246 . S
O67 C61 1.261 1_556 S
O67 Tb62 2.353 . S
C68 O72 1.245 . S
C68 O73 1.259 . S
C69 O74 1.250 1_554 S
C69 O75 1.263 1_545 S
O70 Tb62 2.427 . S
O70 C66 1.275 . S
O71 Tb62 2.513 . S
O71 C66 1.246 . S
O72 Tb62 2.453 1_554 S
O72 C68 1.245 . S
O73 Tb60 2.343 1_545 S
O73 Tb62 2.596 1_554 S
O73 C68 1.259 . S
O74 Tb62 2.374 . S
O74 C69 1.250 1_556 S
O75 Tb60 2.353 . S
O75 C69 1.263 1_565 S
C76 O77 1.275 . S
C76 O78 1.246 . S
O77 Tb60 2.427 . S
O77 C76 1.275 . S
O78 Tb60 2.513 . S
O78 C76 1.246 . S
C79 O63 1.245 . S
C79 O64 1.259 1_565 S
Tb80 O83 2.453 . S
Tb80 O84 2.596 . S
Tb80 O85 2.374 . S
Tb80 O93 2.343 . S
Tb80 O95 2.353 . S
Tb80 O97 2.427 . S
Tb80 O98 2.513 . S
C81 O85 1.251 . S
C81 O87 1.263 . S
Tb82 O84 2.343 . S
Tb82 O87 2.353 . S
Tb82 O90 2.427 . S
Tb82 O91 2.513 . S
Tb82 O92 2.453 . S
Tb82 O93 2.596 . S
Tb82 O94 2.374 . S
O83 Tb80 2.453 . S
O83 C99 1.245 . S
O84 Tb80 2.596 . S
O84 Tb82 2.343 . S
O84 C99 1.259 . S
O85 Tb80 2.374 . S
O85 C81 1.251 . S
C86 O90 1.275 . S
C86 O91 1.246 . S
O87 C81 1.263 . S
O87 Tb82 2.353 . S
C88 O92 1.245 . S
C88 O93 1.259 . S
C89 O94 1.250 . S
C89 O95 1.263 . S
O90 Tb82 2.427 . S
O90 C86 1.275 . S
O91 Tb82 2.513 . S
O91 C86 1.246 . S
O92 Tb82 2.453 . S
O92 C88 1.245 . S
O93 Tb80 2.343 . S
O93 Tb82 2.596 . S
O93 C88 1.259 . S
O94 Tb82 2.374 . S
O94 C89 1.250 . S
O95 Tb80 2.353 . S
O95 C89 1.263 . S
C96 O97 1.275 . S
C96 O98 1.246 . S
O97 Tb80 2.427 . S
O97 C96 1.275 . S
O98 Tb80 2.513 . S
O98 C96 1.246 . S
C99 O83 1.245 . S
C99 O84 1.259 . S
Tb100 O103 2.453 . S
Tb100 O104 2.596 . S
Tb100 O105 2.374 . S
Tb100 O113 2.343 . S
Tb100 O115 2.353 . S
Tb100 O117 2.427 . S
Tb100 O118 2.513 . S
C101 O105 1.251 . S
C101 O107 1.263 1_455 S
Tb102 O104 2.343 1_655 S
Tb102 O107 2.353 . S
Tb102 O110 2.427 . S
Tb102 O111 2.513 . S
Tb102 O112 2.453 . S
Tb102 O113 2.596 1_655 S
Tb102 O114 2.374 . S
O103 Tb100 2.453 . S
O103 C119 1.245 . S
O104 Tb100 2.596 . S
O104 Tb102 2.343 1_455 S
O104 C119 1.259 . S
O105 Tb100 2.374 . S
O105 C101 1.251 . S
C106 O110 1.275 . S
C106 O111 1.246 . S
O107 C101 1.263 1_655 S
O107 Tb102 2.353 . S
C108 O112 1.245 . S
C108 O113 1.260 1_655 S
C109 O114 1.250 1_455 S
C109 O115 1.263 . S
O110 Tb102 2.427 . S
O110 C106 1.275 . S
O111 Tb102 2.513 . S
O111 C106 1.246 . S
O112 Tb102 2.453 . S
O112 C108 1.245 . S
O113 Tb100 2.343 . S
O113 Tb102 2.596 1_455 S
O113 C108 1.260 1_455 S
O114 Tb102 2.374 . S
O114 C109 1.250 1_655 S
O115 Tb100 2.353 . S
O115 C109 1.263 . S
C116 O117 1.275 . S
C116 O118 1.246 . S
O117 Tb100 2.427 . S
O117 C116 1.275 . S
O118 Tb100 2.513 . S
O118 C116 1.246 . S
C119 O103 1.245 . S
C119 O104 1.259 . S
H120 C132 0.930 1_565 S
H121 C134 0.930 . S
H122 C135 0.934 . S
H123 C139 0.959 . S
H124 C139 0.959 1_455 S
H125 C139 0.961 . S
H126 C140 0.960 . S
H127 C140 0.961 . S
H128 C140 0.959 . S
H129 C143 0.929 . S
H130 C144 0.931 . S
H131 C146 0.930 . S
C132 H120 0.930 1_545 S
C132 C133 1.399 . S
C132 C137 1.399 . S
C133 C132 1.399 . S
C133 C134 1.376 1_556 S
C134 H121 0.930 . S
C134 C133 1.376 1_554 S
C134 C135 1.378 1_655 S
C135 H122 0.934 . S
C135 C134 1.378 1_455 S
C135 C136 1.397 . S
C136 C135 1.397 . S
C136 C137 1.394 1_454 S
C136 C142 1.465 . S
C137 C132 1.399 . S
C137 C136 1.394 1_656 S
C137 C138 1.516 1_645 S
C138 C137 1.516 1_465 S
C138 C139 1.502 1_455 S
C138 C140 1.561 1_565 S
C138 C141 1.526 1_565 S
C139 H123 0.959 . S
C139 H124 0.959 1_655 S
C139 H125 0.961 . S
C139 C138 1.502 1_655 S
C140 H126 0.960 . S
C140 H127 0.961 . S
C140 H128 0.959 . S
C140 C138 1.561 1_545 S
C141 C138 1.526 1_545 S
C141 C142 1.396 1_556 S
C141 C146 1.390 1_545 S
C142 C136 1.465 . S
C142 C141 1.396 1_554 S
C142 C143 1.399 . S
C143 H129 0.929 . S
C143 C142 1.399 . S
C143 C144 1.385 . S
C144 H130 0.931 . S
C144 C143 1.385 . S
C144 C145 1.389 1_554 S
C145 C144 1.389 1_556 S
C145 C146 1.387 1_545 S
C146 H131 0.930 . S
C146 C141 1.390 1_565 S
C146 C145 1.387 1_565 S
H147 C159 0.930 . S
H148 C161 0.930 . S
H149 C162 0.930 . S
H150 C166 0.959 . S
H151 C166 0.959 . S
H152 C166 0.961 . S
H153 C167 0.960 . S
H154 C167 0.961 . S
H155 C167 0.959 . S
H156 C170 0.929 1_565 S
H157 C171 0.931 . S
H158 C173 0.930 . S
C159 H147 0.930 . S
C159 C160 1.399 . S
C159 C164 1.399 . S
C160 C159 1.399 . S
C160 C161 1.376 . S
C161 H148 0.930 . S
C161 C160 1.376 . S
C161 C162 1.388 . S
C162 H149 0.930 . S
C162 C161 1.388 . S
C162 C163 1.390 . S
C163 C162 1.390 . S
C163 C164 1.394 . S
C163 C169 1.465 1_665 S
C164 C159 1.399 . S
C164 C163 1.394 . S
C164 C165 1.516 1_565 S
C165 C164 1.516 1_545 S
C165 C166 1.502 . S
C165 C167 1.561 . S
C165 C168 1.526 1_655 S
C166 H150 0.959 . S
C166 H151 0.959 . S
C166 H152 0.961 . S
C166 C165 1.502 . S
C167 H153 0.960 . S
C167 H154 0.961 . S
C167 H155 0.959 . S
C167 C165 1.561 . S
C168 C165 1.526 1_455 S
C168 C169 1.396 . S
C168 C173 1.390 . S
C169 C163 1.465 1_445 S
C169 C168 1.396 . S
C169 C170 1.399 . S
C170 H156 0.929 1_545 S
C170 C169 1.399 . S
C170 C171 1.385 . S
C171 H157 0.931 . S
C171 C170 1.385 . S
C171 C172 1.389 . S
C172 C171 1.389 . S
C172 C173 1.387 . S
C173 H158 0.930 . S
C173 C168 1.390 . S
C173 C172 1.387 . S
H174 C186 0.930 . S
H175 C188 0.931 1_655 S
H176 C189 0.930 1_655 S
H177 C193 0.959 . S
H178 C193 0.959 . S
H179 C193 0.961 . S
H180 C194 0.960 1_565 S
H181 C194 0.961 . S
H182 C194 0.959 . S
H183 C197 0.929 . S
H184 C198 0.931 . S
H185 C200 0.930 . S
C186 H174 0.930 . S
C186 C187 1.399 . S
C186 C191 1.399 . S
C187 C186 1.399 . S
C187 C188 1.379 . S
C188 H175 0.931 1_455 S
C188 C187 1.379 . S
C188 C189 1.385 . S
C189 H176 0.930 1_455 S
C189 C188 1.385 . S
C189 C190 1.390 1_565 S
C190 C189 1.390 1_545 S
C190 C191 1.394 1_545 S
C190 C196 1.465 . S
C191 C186 1.399 . S
C191 C190 1.394 1_565 S
C191 C192 1.516 1_565 S
C192 C191 1.516 1_545 S
C192 C193 1.502 . S
C192 C194 1.561 1_455 S
C192 C195 1.526 . S
C193 H177 0.959 . S
C193 H178 0.959 . S
C193 H179 0.961 . S
C193 C192 1.502 . S
C194 H180 0.960 1_545 S
C194 H181 0.961 . S
C194 H182 0.959 . S
C194 C192 1.561 1_655 S
C195 C192 1.526 . S
C195 C196 1.396 . S
C195 C200 1.390 . S
C196 C190 1.465 . S
C196 C195 1.396 . S
C196 C197 1.399 . S
C197 H183 0.929 . S
C197 C196 1.399 . S
C197 C198 1.385 . S
C198 H184 0.931 . S
C198 C197 1.385 . S
C198 C199 1.389 . S
C199 C198 1.389 . S
C199 C200 1.387 . S
C200 H185 0.930 . S
C200 C195 1.390 . S
C200 C199 1.387 . S
H201 C213 0.930 . S
H202 C215 0.930 . S
H203 C216 0.930 . S
H204 C220 0.959 . S
H205 C220 0.959 . S
H206 C220 0.961 . S
H207 C221 0.960 . S
H208 C221 0.961 . S
H209 C221 0.959 . S
H210 C224 0.929 . S
H211 C225 0.931 . S
H212 C227 0.930 . S
C213 H201 0.930 . S
C213 C214 1.399 . S
C213 C218 1.399 . S
C214 C213 1.399 . S
C214 C215 1.376 . S
C215 H202 0.930 . S
C215 C214 1.376 . S
C215 C216 1.388 . S
C216 H203 0.930 . S
C216 C215 1.388 . S
C216 C217 1.390 . S
C217 C216 1.390 . S
C217 C218 1.394 . S
C217 C223 1.465 . S
C218 C213 1.399 . S
C218 C217 1.394 . S
C218 C219 1.516 . S
C219 C218 1.516 . S
C219 C220 1.502 . S
C219 C221 1.561 . S
C219 C222 1.526 . S
C220 H204 0.959 . S
C220 H205 0.959 . S
C220 H206 0.961 . S
C220 C219 1.502 . S
C221 H207 0.960 . S
C221 H208 0.961 . S
C221 H209 0.959 . S
C221 C219 1.561 . S
C222 C219 1.526 . S
C222 C223 1.396 . S
C222 C227 1.390 . S
C223 C217 1.465 . S
C223 C222 1.396 . S
C223 C224 1.399 . S
C224 H210 0.929 . S
C224 C223 1.399 . S
C224 C225 1.385 . S
C225 H211 0.931 . S
C225 C224 1.385 . S
C225 C226 1.389 . S
C226 C225 1.389 . S
C226 C227 1.387 . S
C227 H212 0.930 . S
C227 C222 1.390 . S
C227 C226 1.387 . S
H228 C240 0.930 . S
H229 C242 0.930 . S
H230 C243 0.930 . S
H231 C247 0.959 1_655 S
H232 C247 0.959 . S
H233 C247 0.961 . S
H234 C248 0.960 . S
H235 C248 0.961 . S
H236 C248 0.959 . S
H237 C251 0.929 . S
H238 C252 0.931 . S
H239 C254 0.930 . S
C240 H228 0.930 . S
C240 C241 1.399 . S
C240 C245 1.399 . S
C241 C240 1.399 . S
C241 C242 1.376 . S
C242 H229 0.930 . S
C242 C241 1.376 . S
C242 C243 1.388 . S
C243 H230 0.930 . S
C243 C242 1.388 . S
C243 C244 1.390 . S
C244 C243 1.390 . S
C244 C245 1.394 . S
C244 C250 1.465 1_455 S
C245 C240 1.399 . S
C245 C244 1.394 . S
C245 C246 1.516 . S
C246 C245 1.516 . S
C246 C247 1.502 . S
C246 C248 1.561 . S
C246 C249 1.526 1_455 S
C247 H231 0.959 1_455 S
C247 H232 0.959 . S
C247 H233 0.961 . S
C247 C246 1.502 . S
C248 H234 0.960 . S
C248 H235 0.961 . S
C248 H236 0.959 . S
C248 C246 1.561 . S
C249 C246 1.526 1_655 S
C249 C250 1.396 . S
C249 C254 1.390 . S
C250 C244 1.465 1_655 S
C250 C249 1.396 . S
C250 C251 1.399 . S
C251 H237 0.929 . S
C251 C250 1.399 . S
C251 C252 1.385 . S
C252 H238 0.931 . S
C252 C251 1.385 . S
C252 C253 1.389 . S
C253 C252 1.389 . S
C253 C254 1.387 . S
C254 H239 0.930 . S
C254 C249 1.390 . S
C254 C253 1.387 . S
H255 C267 0.930 . S
H256 C269 0.930 . S
H257 C270 0.930 1_565 S
H258 C274 0.959 . S
H259 C274 0.959 . S
H260 C274 0.961 . S
H261 C275 0.960 . S
H262 C275 0.961 . S
H263 C275 0.959 . S
H264 C278 0.929 . S
H265 C279 0.931 . S
H266 C281 0.930 . S
C267 H255 0.930 . S
C267 C268 1.399 . S
C267 C272 1.399 . S
C268 C267 1.399 . S
C268 C269 1.376 . S
C269 H256 0.930 . S
C269 C268 1.376 . S
C269 C270 1.388 . S
C270 H257 0.930 1_545 S
C270 C269 1.388 . S
C270 C271 1.390 . S
C271 C270 1.390 . S
C271 C272 1.394 . S
C271 C277 1.465 1_545 S
C272 C267 1.399 . S
C272 C271 1.394 . S
C272 C273 1.516 . S
C273 C272 1.516 . S
C273 C274 1.502 . S
C273 C275 1.561 . S
C273 C276 1.526 . S
C274 H258 0.959 . S
C274 H259 0.959 . S
C274 H260 0.961 . S
C274 C273 1.502 . S
C275 H261 0.960 . S
C275 H262 0.961 . S
C275 H263 0.959 . S
C275 C273 1.561 . S
C276 C273 1.526 . S
C276 C277 1.396 1_545 S
C276 C281 1.390 1_545 S
C277 C271 1.465 1_565 S
C277 C276 1.396 1_565 S
C277 C278 1.399 . S
C278 H264 0.929 . S
C278 C277 1.399 . S
C278 C279 1.385 . S
C279 H265 0.931 . S
C279 C278 1.385 . S
C279 C280 1.389 . S
C280 C279 1.389 . S
C280 C281 1.387 . S
C281 H266 0.930 . S
C281 C276 1.390 1_565 S
C281 C280 1.387 . S
H282 C294 0.930 . S
H283 C296 0.930 . S
H284 C297 0.930 . S
H285 C301 0.959 1_455 S
H286 C301 0.959 . S
H287 C301 0.961 . S
H288 C302 0.960 . S
H289 C302 0.961 . S
H290 C302 0.959 . S
H291 C305 0.929 . S
H292 C306 0.931 . S
H293 C308 0.930 . S
C294 H282 0.930 . S
C294 C295 1.399 . S
C294 C299 1.399 . S
C295 C294 1.399 . S
C295 C296 1.376 . S
C296 H283 0.930 . S
C296 C295 1.376 . S
C296 C297 1.388 . S
C297 H284 0.930 . S
C297 C296 1.388 . S
C297 C298 1.390 . S
C298 C297 1.390 . S
C298 C299 1.394 . S
C298 C304 1.465 . S
C299 C294 1.399 . S
C299 C298 1.394 . S
C299 C300 1.516 . S
C300 C299 1.516 . S
C300 C301 1.502 . S
C300 C302 1.561 . S
C300 C303 1.526 . S
C301 H285 0.959 1_655 S
C301 H286 0.959 . S
C301 H287 0.961 . S
C301 C300 1.502 . S
C302 H288 0.960 . S
C302 H289 0.961 . S
C302 H290 0.959 . S
C302 C300 1.561 . S
C303 C300 1.526 . S
C303 C304 1.396 . S
C303 C308 1.390 . S
C304 C298 1.465 . S
C304 C303 1.396 . S
C304 C305 1.399 . S
C305 H291 0.929 . S
C305 C304 1.399 . S
C305 C306 1.385 . S
C306 H292 0.931 . S
C306 C305 1.385 . S
C306 C307 1.389 . S
C307 C306 1.389 . S
C307 C308 1.387 . S
C308 H293 0.930 . S
C308 C303 1.390 . S
C308 C307 1.387 . S
H309 C321 0.930 . S
H310 C323 0.930 . S
H311 C324 0.930 . S
H312 C328 0.959 . S
H313 C328 0.959 1_455 S
H314 C328 0.961 . S
H315 C329 0.960 . S
H316 C329 0.961 . S
H317 C329 0.959 . S
H318 C332 0.929 . S
H319 C333 0.931 . S
H320 C335 0.930 . S
C321 H309 0.930 . S
C321 C322 1.399 . S
C321 C326 1.399 . S
C322 C321 1.399 . S
C322 C323 1.376 . S
C323 H310 0.930 . S
C323 C322 1.376 . S
C323 C324 1.388 . S
C324 H311 0.930 . S
C324 C323 1.388 . S
C324 C325 1.390 1_655 S
C325 C324 1.390 1_455 S
C325 C326 1.394 1_455 S
C325 C331 1.465 . S
C326 C321 1.399 . S
C326 C325 1.394 1_655 S
C326 C327 1.516 1_655 S
C327 C326 1.516 1_455 S
C327 C328 1.502 1_455 S
C327 C329 1.561 . S
C327 C330 1.526 . S
C328 H312 0.959 . S
C328 H313 0.959 1_655 S
C328 H314 0.961 . S
C328 C327 1.502 1_655 S
C329 H315 0.960 . S
C329 H316 0.961 . S
C329 H317 0.959 . S
C329 C327 1.561 . S
C330 C327 1.526 . S
C330 C331 1.396 . S
C330 C335 1.390 . S
C331 C325 1.465 . S
C331 C330 1.396 . S
C331 C332 1.399 . S
C332 H318 0.929 . S
C332 C331 1.399 . S
C332 C333 1.385 . S
C333 H319 0.931 . S
C333 C332 1.385 . S
C333 C334 1.389 . S
C334 C333 1.389 . S
C334 C335 1.387 . S
C335 H320 0.930 . S
C335 C330 1.390 . S
C335 C334 1.387 . S
H336 C348 0.930 . S
H337 C350 0.930 . S
H338 C351 0.930 . S
H339 C355 0.959 . S
H340 C355 0.959 . S
H341 C355 0.961 . S
H342 C356 0.960 . S
H343 C356 0.961 . S
H344 C356 0.959 . S
H345 C359 0.929 1_565 S
H346 C360 0.931 . S
H347 C362 0.930 . S
C348 H336 0.930 . S
C348 C349 1.399 1_545 S
C348 C353 1.399 . S
C349 C348 1.399 1_565 S
C349 C350 1.376 . S
C350 H337 0.930 . S
C350 C349 1.376 . S
C350 C351 1.388 . S
C351 H338 0.930 . S
C351 C350 1.388 . S
C351 C352 1.390 . S
C352 C351 1.390 . S
C352 C353 1.394 1_565 S
C352 C358 1.465 1_565 S
C353 C348 1.399 . S
C353 C352 1.394 1_545 S
C353 C354 1.516 . S
C354 C353 1.516 . S
C354 C355 1.502 . S
C354 C356 1.561 . S
C354 C357 1.526 . S
C355 H339 0.959 . S
C355 H340 0.959 . S
C355 H341 0.961 . S
C355 C354 1.502 . S
C356 H342 0.960 . S
C356 H343 0.961 . S
C356 H344 0.959 . S
C356 C354 1.561 . S
C357 C354 1.526 . S
C357 C358 1.396 . S
C357 C362 1.390 . S
C358 C352 1.465 1_545 S
C358 C357 1.396 . S
C358 C359 1.399 . S
C359 H345 0.929 1_545 S
C359 C358 1.399 . S
C359 C360 1.385 . S
C360 H346 0.931 . S
C360 C359 1.385 . S
C360 C361 1.389 . S
C361 C360 1.389 . S
C361 C362 1.387 . S
C362 H347 0.930 . S
C362 C357 1.390 . S
C362 C361 1.387 . S
H363 C375 0.930 . S
H364 C377 0.930 . S
H365 C378 0.930 . S
H366 C382 0.959 1_565 S
H367 C382 0.959 . S
H368 C382 0.961 . S
H369 C383 0.960 . S
H370 C383 0.961 . S
H371 C383 0.959 . S
H372 C386 0.929 . S
H373 C387 0.931 . S
H374 C389 0.930 . S
C375 H363 0.930 . S
C375 C376 1.399 1_556 S
C375 C380 1.395 1_556 S
C376 C375 1.399 1_554 S
C376 C377 1.376 . S
C377 H364 0.930 . S
C377 C376 1.376 . S
C377 C378 1.388 . S
C378 H365 0.930 . S
C378 C377 1.388 . S
C378 C379 1.390 . S
C379 C378 1.390 . S
C379 C380 1.413 . S
C379 C385 1.465 . S
C380 C375 1.395 1_554 S
C380 C379 1.413 . S
C380 C381 1.504 1_554 S
C381 C380 1.504 1_556 S
C381 C382 1.502 . S
C381 C383 1.561 . S
C381 C384 1.504 1_556 S
C382 H366 0.959 1_545 S
C382 H367 0.959 . S
C382 H368 0.961 . S
C382 C381 1.502 . S
C383 H369 0.960 . S
C383 H370 0.961 . S
C383 H371 0.959 . S
C383 C381 1.561 . S
C384 C381 1.504 1_554 S
C384 C385 1.429 . S
C384 C389 1.383 1_554 S
C385 C379 1.465 . S
C385 C384 1.429 . S
C385 C386 1.399 . S
C386 H372 0.929 . S
C386 C385 1.399 . S
C386 C387 1.385 . S
C387 H373 0.931 . S
C387 C386 1.385 . S
C387 C388 1.389 . S
C388 C387 1.389 . S
C388 C389 1.387 1_554 S
C389 H374 0.930 . S
C389 C384 1.383 1_556 S
C389 C388 1.387 1_556 S
H390 C402 0.930 . S
H391 C404 0.930 . S
H392 C405 0.930 . S
H393 C409 0.959 . S
H394 C409 0.959 . S
H395 C409 0.961 . S
H396 C410 0.960 . S
H397 C410 0.961 . S
H398 C410 0.959 . S
H399 C413 0.929 . S
H400 C414 0.931 . S
H401 C416 0.930 . S
C402 H390 0.930 . S
C402 C403 1.399 . S
C402 C407 1.399 . S
C403 C402 1.399 . S
C403 C404 1.376 . S
C404 H391 0.930 . S
C404 C403 1.376 . S
C404 C405 1.388 . S
C405 H392 0.930 . S
C405 C404 1.388 . S
C405 C406 1.390 . S
C406 C405 1.390 . S
C406 C407 1.394 . S
C406 C412 1.465 . S
C407 C402 1.399 . S
C407 C406 1.394 . S
C407 C408 1.516 . S
C408 C407 1.516 . S
C408 C409 1.502 . S
C408 C410 1.561 . S
C408 C411 1.526 . S
C409 H393 0.959 . S
C409 H394 0.959 . S
C409 H395 0.961 . S
C409 C408 1.502 . S
C410 H396 0.960 . S
C410 H397 0.961 . S
C410 H398 0.959 . S
C410 C408 1.561 . S
C411 C408 1.526 . S
C411 C412 1.396 . S
C411 C416 1.390 . S
C412 C406 1.465 . S
C412 C411 1.396 . S
C412 C413 1.399 . S
C413 H399 0.929 . S
C413 C412 1.399 . S
C413 C414 1.385 . S
C414 H400 0.931 . S
C414 C413 1.385 . S
C414 C415 1.389 . S
C415 C414 1.389 . S
C415 C416 1.387 . S
C416 H401 0.930 . S
C416 C411 1.390 . S
C416 C415 1.387 . S
H417 C429 0.930 1_655 S
H418 C431 0.930 . S
H419 C432 0.930 . S
H420 C436 0.959 . S
H421 C436 0.959 . S
H422 C436 0.961 . S
H423 C437 0.960 . S
H424 C437 0.961 . S
H425 C437 0.959 . S
H426 C440 0.929 . S
H427 C441 0.931 . S
H428 C443 0.930 1_655 S
C429 H417 0.930 1_455 S
C429 C430 1.399 . S
C429 C434 1.399 . S
C430 C429 1.399 . S
C430 C431 1.376 . S
C431 H418 0.930 . S
C431 C430 1.376 . S
C431 C432 1.388 . S
C432 H419 0.930 . S
C432 C431 1.388 . S
C432 C433 1.390 . S
C433 C432 1.390 . S
C433 C434 1.394 . S
C433 C439 1.465 . S
C434 C429 1.399 . S
C434 C433 1.394 . S
C434 C435 1.513 1_455 S
C435 C434 1.513 1_655 S
C435 C436 1.506 . S
C435 C437 1.558 1_655 S
C435 C438 1.527 1_655 S
C436 H420 0.959 . S
C436 H421 0.959 . S
C436 H422 0.961 . S
C436 C435 1.506 . S
C437 H423 0.960 . S
C437 H424 0.961 . S
C437 H425 0.959 . S
C437 C435 1.558 1_455 S
C438 C435 1.527 1_455 S
C438 C439 1.396 . S
C438 C443 1.390 . S
C439 C433 1.465 . S
C439 C438 1.396 . S
C439 C440 1.399 . S
C440 H426 0.929 . S
C440 C439 1.399 . S
C440 C441 1.385 . S
C441 H427 0.931 . S
C441 C440 1.385 . S
C441 C442 1.389 . S
C442 C441 1.389 . S
C442 C443 1.387 . S
C443 H428 0.930 1_455 S
C443 C438 1.390 . S
C443 C442 1.387 . S
H444 C456 0.930 . S
H445 C458 0.930 1_565 S
H446 C459 0.930 1_565 S
H447 C463 0.959 . S
H448 C463 0.959 . S
H449 C463 0.961 . S
H450 C464 0.960 . S
H451 C464 0.961 . S
H452 C464 0.959 . S
H453 C467 0.929 1_565 S
H454 C468 0.931 . S
H455 C470 0.930 . S
C456 H444 0.930 . S
C456 C457 1.399 . S
C456 C461 1.399 . S
C457 C456 1.399 . S
C457 C458 1.376 . S
C458 H445 0.930 1_545 S
C458 C457 1.376 . S
C458 C459 1.388 . S
C459 H446 0.930 1_545 S
C459 C458 1.388 . S
C459 C460 1.390 . S
C460 C459 1.390 . S
C460 C461 1.394 . S
C460 C466 1.465 . S
C461 C456 1.399 . S
C461 C460 1.394 . S
C461 C462 1.516 . S
C462 C461 1.516 . S
C462 C463 1.502 . S
C462 C464 1.561 . S
C462 C465 1.526 . S
C463 H447 0.959 . S
C463 H448 0.959 . S
C463 H449 0.961 . S
C463 C462 1.502 . S
C464 H450 0.960 . S
C464 H451 0.961 . S
C464 H452 0.959 . S
C464 C462 1.561 . S
C465 C462 1.526 . S
C465 C466 1.396 . S
C465 C470 1.390 . S
C466 C460 1.465 . S
C466 C465 1.396 . S
C466 C467 1.399 . S
C467 H453 0.929 1_545 S
C467 C466 1.399 . S
C467 C468 1.385 . S
C468 H454 0.931 . S
C468 C467 1.385 . S
C468 C469 1.389 . S
C469 C468 1.389 . S
C469 C470 1.387 . S
C470 H455 0.930 . S
C470 C465 1.390 . S
C470 C469 1.387 . S
H471 C483 0.930 . S
H472 C485 0.930 . S
H473 C486 0.930 . S
H474 C490 0.959 . S
H475 C490 0.959 . S
H476 C490 0.961 . S
H477 C491 0.960 . S
H478 C491 0.961 . S
H479 C491 0.959 . S
H480 C494 0.929 . S
H481 C495 0.931 . S
H482 C497 0.930 . S
C483 H471 0.930 . S
C483 C484 1.399 . S
C483 C488 1.399 . S
C484 C483 1.399 . S
C484 C485 1.376 . S
C485 H472 0.930 . S
C485 C484 1.376 . S
C485 C486 1.388 . S
C486 H473 0.930 . S
C486 C485 1.388 . S
C486 C487 1.390 . S
C487 C486 1.390 . S
C487 C488 1.394 . S
C487 C493 1.465 . S
C488 C483 1.399 . S
C488 C487 1.394 . S
C488 C489 1.516 . S
C489 C488 1.516 . S
C489 C490 1.502 . S
C489 C491 1.561 . S
C489 C492 1.526 . S
C490 H474 0.959 . S
C490 H475 0.959 . S
C490 H476 0.961 . S
C490 C489 1.502 . S
C491 H477 0.960 . S
C491 H478 0.961 . S
C491 H479 0.959 . S
C491 C489 1.561 . S
C492 C489 1.526 . S
C492 C493 1.396 . S
C492 C497 1.390 . S
C493 C487 1.465 . S
C493 C492 1.396 . S
C493 C494 1.399 . S
C494 H480 0.929 . S
C494 C493 1.399 . S
C494 C495 1.385 . S
C495 H481 0.931 . S
C495 C494 1.385 . S
C495 C496 1.389 . S
C496 C495 1.389 . S
C496 C497 1.387 . S
C497 H482 0.930 . S
C497 C492 1.390 . S
C497 C496 1.387 . S
H498 C510 0.930 . S
H499 C512 0.930 . S
H500 C513 0.930 . S
H501 C517 0.959 . S
H502 C517 0.959 . S
H503 C517 0.961 . S
H504 C518 0.960 . S
H505 C518 0.961 . S
H506 C518 0.959 . S
H507 C521 0.929 1_455 S
H508 C522 0.931 . S
H509 C524 0.930 . S
C510 H498 0.930 . S
C510 C511 1.399 . S
C510 C515 1.399 . S
C511 C510 1.399 . S
C511 C512 1.376 1_655 S
C512 H499 0.930 . S
C512 C511 1.376 1_455 S
C512 C513 1.388 . S
C513 H500 0.930 . S
C513 C512 1.388 . S
C513 C514 1.390 1_455 S
C514 C513 1.390 1_655 S
C514 C515 1.394 . S
C514 C520 1.465 . S
C515 C510 1.399 . S
C515 C514 1.394 . S
C515 C516 1.516 . S
C516 C515 1.516 . S
C516 C517 1.502 . S
C516 C518 1.561 . S
C516 C519 1.526 . S
C517 H501 0.959 . S
C517 H502 0.959 . S
C517 H503 0.961 . S
C517 C516 1.502 . S
C518 H504 0.960 . S
C518 H505 0.961 . S
C518 H506 0.959 . S
C518 C516 1.561 . S
C519 C516 1.526 . S
C519 C520 1.396 . S
C519 C524 1.390 . S
C520 C514 1.465 . S
C520 C519 1.396 . S
C520 C521 1.399 . S
C521 H507 0.929 1_655 S
C521 C520 1.399 . S
C521 C522 1.385 . S
C522 H508 0.931 . S
C522 C521 1.385 . S
C522 C523 1.389 . S
C523 C522 1.389 . S
C523 C524 1.387 . S
C524 H509 0.930 . S
C524 C519 1.390 . S
C524 C523 1.387 . S
H525 C537 0.930 . S
H526 C539 0.930 1_545 S
H527 C540 0.930 1_545 S
H528 C544 0.959 . S
H529 C544 0.959 . S
H530 C544 0.961 . S
H531 C545 0.960 . S
H532 C545 0.961 . S
H533 C545 0.959 . S
H534 C548 0.929 1_545 S
H535 C549 0.931 . S
H536 C551 0.930 . S
C537 H525 0.930 . S
C537 C538 1.399 . S
C537 C542 1.399 . S
C538 C537 1.399 . S
C538 C539 1.376 . S
C539 H526 0.930 1_565 S
C539 C538 1.376 . S
C539 C540 1.388 . S
C540 H527 0.930 1_565 S
C540 C539 1.388 . S
C540 C541 1.390 . S
C541 C540 1.390 . S
C541 C542 1.394 . S
C541 C547 1.465 . S
C542 C537 1.399 . S
C542 C541 1.394 . S
C542 C543 1.516 . S
C543 C542 1.516 . S
C543 C544 1.502 . S
C543 C545 1.561 . S
C543 C546 1.526 . S
C544 H528 0.959 . S
C544 H529 0.959 . S
C544 H530 0.961 . S
C544 C543 1.502 . S
C545 H531 0.960 . S
C545 H532 0.961 . S
C545 H533 0.959 . S
C545 C543 1.561 . S
C546 C543 1.526 . S
C546 C547 1.396 . S
C546 C551 1.390 . S
C547 C541 1.465 . S
C547 C546 1.396 . S
C547 C548 1.399 . S
C548 H534 0.929 1_565 S
C548 C547 1.399 . S
C548 C549 1.385 . S
C549 H535 0.931 . S
C549 C548 1.385 . S
C549 C550 1.389 . S
C550 C549 1.389 . S
C550 C551 1.387 . S
C551 H536 0.930 . S
C551 C546 1.390 . S
C551 C550 1.387 . S
H552 C564 0.930 . S
H553 C566 0.930 . S
H554 C567 0.930 . S
H555 C571 0.959 . S
H556 C571 0.959 . S
H557 C571 0.961 . S
H558 C572 0.960 . S
H559 C572 0.961 . S
H560 C572 0.959 . S
H561 C575 0.929 . S
H562 C576 0.931 . S
H563 C578 0.930 . S
C564 H552 0.930 . S
C564 C565 1.399 . S
C564 C569 1.399 . S
C565 C564 1.399 . S
C565 C566 1.376 . S
C566 H553 0.930 . S
C566 C565 1.376 . S
C566 C567 1.388 . S
C567 H554 0.930 . S
C567 C566 1.388 . S
C567 C568 1.390 . S
C568 C567 1.390 . S
C568 C569 1.394 . S
C568 C574 1.465 . S
C569 C564 1.399 . S
C569 C568 1.394 . S
C569 C570 1.516 . S
C570 C569 1.516 . S
C570 C571 1.502 . S
C570 C572 1.561 . S
C570 C573 1.526 . S
C571 H555 0.959 . S
C571 H556 0.959 . S
C571 H557 0.961 . S
C571 C570 1.502 . S
C572 H558 0.960 . S
C572 H559 0.961 . S
C572 H560 0.959 . S
C572 C570 1.561 . S
C573 C570 1.526 . S
C573 C574 1.396 . S
C573 C578 1.390 . S
C574 C568 1.465 . S
C574 C573 1.396 . S
C574 C575 1.399 . S
C575 H561 0.929 . S
C575 C574 1.399 . S
C575 C576 1.385 . S
C576 H562 0.931 . S
C576 C575 1.385 . S
C576 C577 1.389 . S
C577 C576 1.389 . S
C577 C578 1.387 . S
C578 H563 0.930 . S
C578 C573 1.390 . S
C578 C577 1.387 . S
H579 C591 0.930 . S
H580 C593 0.930 . S
H581 C594 0.930 . S
H582 C598 0.959 1_565 S
H583 C598 0.959 . S
H584 C598 0.961 . S
H585 C599 0.960 . S
H586 C599 0.961 . S
H587 C599 0.959 . S
H588 C602 0.929 . S
H589 C603 0.931 . S
H590 C605 0.930 1_545 S
C591 H579 0.930 . S
C591 C592 1.399 . S
C591 C596 1.399 . S
C592 C591 1.399 . S
C592 C593 1.376 . S
C593 H580 0.930 . S
C593 C592 1.376 . S
C593 C594 1.388 . S
C594 H581 0.930 . S
C594 C593 1.388 . S
C594 C595 1.390 . S
C595 C594 1.390 . S
C595 C596 1.394 . S
C595 C601 1.465 . S
C596 C591 1.399 . S
C596 C595 1.394 . S
C596 C597 1.516 1_565 S
C597 C596 1.516 1_545 S
C597 C598 1.502 . S
C597 C599 1.561 . S
C597 C600 1.526 1_545 S
C598 H582 0.959 1_545 S
C598 H583 0.959 . S
C598 H584 0.961 . S
C598 C597 1.502 . S
C599 H585 0.960 . S
C599 H586 0.961 . S
C599 H587 0.959 . S
C599 C597 1.561 . S
C600 C597 1.526 1_565 S
C600 C601 1.396 . S
C600 C605 1.390 . S
C601 C595 1.465 . S
C601 C600 1.396 . S
C601 C602 1.399 . S
C602 H588 0.929 . S
C602 C601 1.399 . S
C602 C603 1.385 . S
C603 H589 0.931 . S
C603 C602 1.385 . S
C603 C604 1.389 . S
C604 C603 1.389 . S
C604 C605 1.387 . S
C605 H590 0.930 1_565 S
C605 C600 1.390 . S
C605 C604 1.387 . S
C133 C61 1.634 1_556 S
C145 C9 1.641 1_556 S
C160 C89 1.642 . S
C172 C21 1.637 . S
C187 C101 1.632 . S
C199 C49 1.642 . S
C214 C16 1.625 . S
C226 C46 1.506 . S
C241 C39 2.656 . S
C253 C68 2.493 . S
C268 C56 1.552 . S
C280 C86 1.588 . S
C295 C79 2.654 . S
C307 C108 2.461 . S
C322 C96 1.574 . S
C334 C6 1.570 . S
C349 C119 2.653 . S
C361 C28 2.460 . S
C376 C1 1.194 . S
C388 C69 1.190 . S
C403 C29 1.145 . S
C415 C81 1.134 . S
C430 C41 1.131 . S
C442 C109 1.119 . S
C457 C19 1.139 . S
C469 C26 1.182 . S
C484 C36 1.125 . S
C496 C48 1.158 . S
C511 C59 1.185 . S
C523 C66 1.177 . S
C538 C76 1.128 . S
C550 C88 1.150 . S
C565 C99 1.101 . S
C577 C106 1.187 . S
C592 C116 1.141 . S
C604 C8 1.121 . S
