# Generated by pormake.
# Topology wgq, (5)-cn, num edge types: 1
# Building blocks:
#     Node 0, Type 0, BuildingBlock: BEQFEK_clean_sbu_0, # of connection points: 5
#     Node 1, Type 0, BuildingBlock: BEQFEK_clean_sbu_0, # of connection points: 5
#     Node 2, Type 0, BuildingBlock: BEQFEK_clean_sbu_0, # of connection points: 5
#     Node 3, Type 0, BuildingBlock: BEQFEK_clean_sbu_0, # of connection points: 5
#     Node 4, Type 0, BuildingBlock: BEQFEK_clean_sbu_0, # of connection points: 5
#     Node 5, Type 0, BuildingBlock: BEQFEK_clean_sbu_0, # of connection points: 5
#     Node 6, Type 0, BuildingBlock: BEQFEK_clean_sbu_0, # of connection points: 5
#     Node 7, Type 0, BuildingBlock: BEQFEK_clean_sbu_0, # of connection points: 5
#     Node 8, Type 0, BuildingBlock: BEQFEK_clean_sbu_0, # of connection points: 5
#     Node 9, Type 0, BuildingBlock: BEQFEK_clean_sbu_0, # of connection points: 5
#     Node 10, Type 0, BuildingBlock: BEQFEK_clean_sbu_0, # of connection points: 5
#     Node 11, Type 0, BuildingBlock: BEQFEK_clean_sbu_0, # of connection points: 5
#     Node 12, Type 0, BuildingBlock: BEQFEK_clean_sbu_0, # of connection points: 5
#     Node 13, Type 0, BuildingBlock: BEQFEK_clean_sbu_0, # of connection points: 5
#     Node 14, Type 0, BuildingBlock: BEQFEK_clean_sbu_0, # of connection points: 5
#     Node 15, Type 0, BuildingBlock: BEQFEK_clean_sbu_0, # of connection points: 5
#     Node 16, Type 0, BuildingBlock: BEQFEK_clean_sbu_0, # of connection points: 5
#     Node 17, Type 0, BuildingBlock: BEQFEK_clean_sbu_0, # of connection points: 5
#     Node 18, Type 0, BuildingBlock: BEQFEK_clean_sbu_0, # of connection points: 5
#     Node 19, Type 0, BuildingBlock: BEQFEK_clean_sbu_0, # of connection points: 5
#     Node 20, Type 0, BuildingBlock: BEQFEK_clean_sbu_0, # of connection points: 5
#     Node 21, Type 0, BuildingBlock: BEQFEK_clean_sbu_0, # of connection points: 5
#     Node 22, Type 0, BuildingBlock: BEQFEK_clean_sbu_0, # of connection points: 5
#     Node 23, Type 0, BuildingBlock: BEQFEK_clean_sbu_0, # of connection points: 5
#     Node 24, Type 0, BuildingBlock: BEQFEK_clean_sbu_0, # of connection points: 5
#     Node 25, Type 0, BuildingBlock: BEQFEK_clean_sbu_0, # of connection points: 5
#     Node 26, Type 0, BuildingBlock: BEQFEK_clean_sbu_0, # of connection points: 5
#     Node 27, Type 0, BuildingBlock: BEQFEK_clean_sbu_0, # of connection points: 5
#     Node 28, Type 0, BuildingBlock: BEQFEK_clean_sbu_0, # of connection points: 5
#     Node 29, Type 0, BuildingBlock: BEQFEK_clean_sbu_0, # of connection points: 5
#     Node 30, Type 0, BuildingBlock: BEQFEK_clean_sbu_0, # of connection points: 5
#     Node 31, Type 0, BuildingBlock: BEQFEK_clean_sbu_0, # of connection points: 5
#     Edge 32, Type (0, 0), None
#     Edge 33, Type (0, 0), None
#     Edge 34, Type (0, 0), None
#     Edge 35, Type (0, 0), None
#     Edge 36, Type (0, 0), None
#     Edge 37, Type (0, 0), None
#     Edge 38, Type (0, 0), None
#     Edge 39, Type (0, 0), None
#     Edge 40, Type (0, 0), None
#     Edge 41, Type (0, 0), None
#     Edge 42, Type (0, 0), None
#     Edge 43, Type (0, 0), None
#     Edge 44, Type (0, 0), None
#     Edge 45, Type (0, 0), None
#     Edge 46, Type (0, 0), None
#     Edge 47, Type (0, 0), None
#     Edge 48, Type (0, 0), None
#     Edge 49, Type (0, 0), None
#     Edge 50, Type (0, 0), None
#     Edge 51, Type (0, 0), None
#     Edge 52, Type (0, 0), None
#     Edge 53, Type (0, 0), None
#     Edge 54, Type (0, 0), None
#     Edge 55, Type (0, 0), None
#     Edge 56, Type (0, 0), None
#     Edge 57, Type (0, 0), None
#     Edge 58, Type (0, 0), None
#     Edge 59, Type (0, 0), None
#     Edge 60, Type (0, 0), None
#     Edge 61, Type (0, 0), None
#     Edge 62, Type (0, 0), None
#     Edge 63, Type (0, 0), None
#     Edge 64, Type (0, 0), None
#     Edge 65, Type (0, 0), None
#     Edge 66, Type (0, 0), None
#     Edge 67, Type (0, 0), None
#     Edge 68, Type (0, 0), None
#     Edge 69, Type (0, 0), None
#     Edge 70, Type (0, 0), None
#     Edge 71, Type (0, 0), None
#     Edge 72, Type (0, 0), None
#     Edge 73, Type (0, 0), None
#     Edge 74, Type (0, 0), None
#     Edge 75, Type (0, 0), None
#     Edge 76, Type (0, 0), None
#     Edge 77, Type (0, 0), None
#     Edge 78, Type (0, 0), None
#     Edge 79, Type (0, 0), None
#     Edge 80, Type (0, 0), None
#     Edge 81, Type (0, 0), None
#     Edge 82, Type (0, 0), None
#     Edge 83, Type (0, 0), None
#     Edge 84, Type (0, 0), None
#     Edge 85, Type (0, 0), None
#     Edge 86, Type (0, 0), None
#     Edge 87, Type (0, 0), None
#     Edge 88, Type (0, 0), None
#     Edge 89, Type (0, 0), None
#     Edge 90, Type (0, 0), None
#     Edge 91, Type (0, 0), None
#     Edge 92, Type (0, 0), None
#     Edge 93, Type (0, 0), None
#     Edge 94, Type (0, 0), None
#     Edge 95, Type (0, 0), None
#     Edge 96, Type (0, 0), None
#     Edge 97, Type (0, 0), None
#     Edge 98, Type (0, 0), None
#     Edge 99, Type (0, 0), None
#     Edge 100, Type (0, 0), None
#     Edge 101, Type (0, 0), None
#     Edge 102, Type (0, 0), None
#     Edge 103, Type (0, 0), None
#     Edge 104, Type (0, 0), None
#     Edge 105, Type (0, 0), None
#     Edge 106, Type (0, 0), None
#     Edge 107, Type (0, 0), None
#     Edge 108, Type (0, 0), None
#     Edge 109, Type (0, 0), None
#     Edge 110, Type (0, 0), None
#     Edge 111, Type (0, 0), None
# Relax obj value: 0.064
# Max RMSD: 0.125
# Mean RMSD: 0.125
data_MOF--net-wgq--node1-BEQFEK_clean_sbu_0--edge1-none
_symmetry_space_group_name_H-M    P1
_symmetry_Int_Tables_number       1
_symmetry_cell_setting            triclinic
loop_
_symmetry_equiv_pos_as_xyz
'x, y, z'
_cell_length_a     14.186339
_cell_length_b     14.184261
_cell_length_c     89.237313
_cell_angle_alpha  89.999993
_cell_angle_beta   90.000016
_cell_angle_gamma 89.999992
loop_
_atom_site_label
_atom_site_type_symbol
_atom_site_fract_x
_atom_site_fract_y
_atom_site_fract_z
_atom_type_partial_charge
Co0 Co 0.15825 0.08898 0.16077 0.0
Co1 Co 0.15757 0.0861 0.19609 0.0
C2 C 0.03053 0.95985 0.1785 0.0
O3 O 0.06563 0.98659 0.16602 0.0
O4 O 0.06794 0.98469 0.19083 0.0
C5 C 0.22547 0.03557 0.13113 0.0
O6 O 0.2647 0.96333 0.13789 0.0
C7 C 0.18187 1.01119 0.22643 0.0
C8 C 0.17227 0.13965 0.24031 0.0
C9 C 0.18184 0.04256 0.24119 0.0
N10 N 0.17228 0.08607 0.21734 0.0
N11 N 0.16709 0.16278 0.2257 0.0
C12 C 0.1898 0.91181 0.22095 0.0
H13 H 0.20156 0.9102 0.20866 0.0
H14 H 0.2491 0.87566 0.22668 0.0
H15 H 0.12395 0.87309 0.22363 0.0
C16 C 0.3686 0.10267 0.16657 0.0
N17 N 0.27795 0.09309 0.17119 0.0
N18 N 0.2772 0.08817 0.18591 0.0
C19 C 0.36707 0.09206 0.19099 0.0
C20 C 0.42929 0.09886 0.17885 0.0
C21 C 0.39805 0.12336 0.1508 0.0
H22 H 0.34177 0.16221 0.14482 0.0
H23 H 0.41399 0.05648 0.1449 0.0
H24 H 0.46303 0.16703 0.1507 0.0
O25 O 0.08072 0.19794 0.16598 0.0
O26 O 0.07982 0.19603 0.19098 0.0
H27 H 0.46518 0.11583 0.20931 0.0
H28 H 0.3849 0.01754 0.21166 0.0
C29 C 0.39247 0.0904 0.20729 0.0
H30 H 0.34418 0.13694 0.21361 0.0
H31 H 0.15816 0.23072 0.22144 0.0
O32 O 0.1766 0.09398 0.13863 0.0
C33 C 0.05033 0.22806 0.17851 0.0
Co34 Co 0.18924 0.90862 0.41077 0.0
Co35 Co 0.19204 0.90795 0.4461 0.0
C36 C 0.31835 0.78092 0.4285 0.0
O37 O 0.29168 0.81605 0.41602 0.0
O38 O 0.29339 0.81828 0.44083 0.0
C39 C 0.2425 0.97573 0.38112 0.0
O40 O 0.31481 0.01495 0.38786 0.0
C41 C 0.26706 0.93227 0.47643 0.0
C42 C 0.13868 0.92268 0.49032 0.0
C43 C 0.23576 0.93225 0.49119 0.0
N44 N 0.19215 0.92267 0.46735 0.0
N45 N 0.11549 0.91749 0.47572 0.0
C46 C 0.3664 0.94021 0.47094 0.0
H47 H 0.36796 0.95194 0.45864 0.0
H48 H 0.40256 0.99954 0.47666 0.0
H49 H 0.40514 0.87436 0.47362 0.0
C50 C 0.17559 0.11901 0.41657 0.0
N51 N 0.18513 0.02834 0.4212 0.0
N52 N 0.19 0.02758 0.43591 0.0
C53 C 0.18613 0.11747 0.44099 0.0
C54 C 0.17939 0.1797 0.42885 0.0
C55 C 0.155 0.14847 0.4008 0.0
H56 H 0.11613 0.09222 0.39482 0.0
H57 H 0.22193 0.16433 0.39491 0.0
H58 H 0.1114 0.2135 0.40069 0.0
O59 O 0.08032 0.83105 0.41599 0.0
O60 O 0.08209 0.83023 0.44099 0.0
H61 H 0.16232 0.21561 0.45931 0.0
H62 H 0.26056 0.13528 0.46167 0.0
C63 C 0.18773 0.14287 0.45729 0.0
H64 H 0.14117 0.09459 0.46361 0.0
H65 H 0.04754 0.90855 0.47147 0.0
O66 O 0.18412 0.92693 0.38863 0.0
C67 C 0.05012 0.8007 0.42852 0.0
Co68 Co 0.37021 0.93928 0.66077 0.0
Co69 Co 0.37088 0.94215 0.69609 0.0
C70 C 0.49793 0.06841 0.6785 0.0
O71 O 0.46283 0.04166 0.66602 0.0
O72 O 0.46051 0.04356 0.69083 0.0
C73 C 0.30298 0.99268 0.63113 0.0
O74 O 0.26375 0.06492 0.63789 0.0
C75 C 0.34659 0.01706 0.72643 0.0
C76 C 0.35618 0.8886 0.74031 0.0
C77 C 0.34662 0.98569 0.74119 0.0
N78 N 0.35618 0.94218 0.71734 0.0
N79 N 0.36137 0.86547 0.7257 0.0
C80 C 0.33865 0.11644 0.72095 0.0
H81 H 0.3269 0.11805 0.70866 0.0
H82 H 0.27936 0.15259 0.72668 0.0
H83 H 0.40451 0.15516 0.72363 0.0
C84 C 0.15985 0.92558 0.66657 0.0
N85 N 0.2505 0.93517 0.67119 0.0
N86 N 0.25126 0.94008 0.68591 0.0
C87 C 0.16139 0.9362 0.69099 0.0
C88 C 0.09917 0.92939 0.67885 0.0
C89 C 0.13041 0.90489 0.6508 0.0
H90 H 0.18668 0.86604 0.64482 0.0
H91 H 0.11447 0.97178 0.6449 0.0
H92 H 0.06543 0.86122 0.6507 0.0
O93 O 0.44774 0.83031 0.66598 0.0
O94 O 0.44864 0.83222 0.69098 0.0
H95 H 0.06327 0.91242 0.70931 0.0
H96 H 0.14356 1.01071 0.71166 0.0
C97 C 0.13599 0.93785 0.70729 0.0
H98 H 0.18428 0.89132 0.71361 0.0
H99 H 0.37029 0.79753 0.72144 0.0
O100 O 0.35186 0.93427 0.63863 0.0
C101 C 0.47813 0.80019 0.67851 0.0
Co102 Co 0.33922 0.11964 0.91077 0.0
Co103 Co 0.33641 0.1203 0.9461 0.0
C104 C 0.2101 0.24733 0.9285 0.0
O105 O 0.23678 0.2122 0.91602 0.0
O106 O 0.23506 0.20998 0.94083 0.0
C107 C 0.28595 0.05252 0.88112 0.0
O108 O 0.21364 1.0133 0.88786 0.0
C109 C 0.2614 0.09598 0.97643 0.0
C110 C 0.38977 0.10557 0.99032 0.0
C111 C 0.2927 0.096 0.99119 0.0
N112 N 0.3363 0.10558 0.96735 0.0
N113 N 0.41296 0.11077 0.97572 0.0
C114 C 0.16205 0.08804 0.97094 0.0
H115 H 0.1605 0.07631 0.95864 0.0
H116 H 0.1259 0.02871 0.97666 0.0
H117 H 0.12331 0.15389 0.97362 0.0
C118 C 0.35286 0.90924 0.91657 0.0
N119 N 0.34333 0.99991 0.9212 0.0
N120 N 0.33845 1.00067 0.93591 0.0
C121 C 0.34232 0.91078 0.94099 0.0
C122 C 0.34907 0.84855 0.92885 0.0
C123 C 0.37345 0.87979 0.9008 0.0
H124 H 0.41232 0.93603 0.89482 0.0
H125 H 0.30653 0.86392 0.89491 0.0
H126 H 0.41705 0.81475 0.90069 0.0
O127 O 0.44813 0.1972 0.91599 0.0
O128 O 0.44637 0.19803 0.94099 0.0
H129 H 0.36614 0.81265 0.95931 0.0
H130 H 0.26789 0.89297 0.96167 0.0
C131 C 0.34072 0.88538 0.95729 0.0
H132 H 0.38729 0.93367 0.96361 0.0
H133 H 0.48091 0.1197 0.97147 0.0
O134 O 0.34433 0.10132 0.88863 0.0
C135 C 0.47833 0.22755 0.92852 0.0
Co136 Co 0.15825 0.93926 0.33549 0.0
Co137 Co 0.15757 0.94215 0.30017 0.0
C138 C 0.03053 0.0684 0.31776 0.0
O139 O 0.06563 0.04165 0.33025 0.0
O140 O 0.06794 0.04356 0.30544 0.0
C141 C 0.22549 0.99265 0.36513 0.0
O142 O 0.26472 0.0649 0.35837 0.0
C143 C 0.18181 0.01707 0.26983 0.0
C144 C 0.17226 0.88862 0.25595 0.0
C145 C 0.18174 0.98571 0.25508 0.0
N146 N 0.17225 0.94219 0.27892 0.0
N147 N 0.16708 0.86548 0.27056 0.0
C148 C 0.18978 0.11646 0.27532 0.0
H149 H 0.20153 0.11805 0.28761 0.0
H150 H 0.2491 0.15258 0.26959 0.0
H151 H 0.12394 0.1552 0.27263 0.0
C152 C 0.3686 0.92556 0.3297 0.0
N153 N 0.27795 0.93515 0.32507 0.0
N154 N 0.27719 0.94008 0.31035 0.0
C155 C 0.36706 0.9362 0.30527 0.0
C156 C 0.42929 0.92938 0.31742 0.0
C157 C 0.39805 0.90486 0.34546 0.0
H158 H 0.34178 0.86601 0.35144 0.0
H159 H 0.414 0.97174 0.35136 0.0
H160 H 0.46303 0.86118 0.34556 0.0
O161 O 0.08072 0.8303 0.33028 0.0
O162 O 0.07981 0.83222 0.30529 0.0
H163 H 0.46517 0.91245 0.28695 0.0
H164 H 0.38489 1.01075 0.28461 0.0
C165 C 0.39246 0.93788 0.28897 0.0
H166 H 0.34416 0.89136 0.28265 0.0
H167 H 0.1582 0.79753 0.27482 0.0
O168 O 0.17661 0.93425 0.35763 0.0
C169 C 0.05033 0.80018 0.31775 0.0
Co170 Co 0.33922 0.90863 0.58549 0.0
Co171 Co 0.3364 0.90795 0.55017 0.0
C172 C 0.2101 0.78093 0.56776 0.0
O173 O 0.23678 0.81606 0.58025 0.0
O174 O 0.23505 0.81828 0.55544 0.0
C175 C 0.28597 0.97576 0.61515 0.0
O176 O 0.21366 0.01498 0.6084 0.0
C177 C 0.26137 0.93223 0.51983 0.0
C178 C 0.38975 0.92267 0.50594 0.0
C179 C 0.29266 0.93216 0.50507 0.0
N180 N 0.33628 0.92265 0.52892 0.0
N181 N 0.41294 0.91748 0.52055 0.0
C182 C 0.16202 0.94019 0.52533 0.0
H183 H 0.16048 0.95192 0.53762 0.0
H184 H 0.1259 0.99954 0.51961 0.0
H185 H 0.12326 0.87436 0.52264 0.0
C186 C 0.35287 0.11902 0.57969 0.0
N187 N 0.34333 0.02835 0.57507 0.0
N188 N 0.33845 0.02759 0.56035 0.0
C189 C 0.34231 0.11747 0.55527 0.0
C190 C 0.34906 0.17971 0.56741 0.0
C191 C 0.37348 0.14848 0.59546 0.0
H192 H 0.41235 0.09223 0.60144 0.0
H193 H 0.30656 0.16435 0.60135 0.0
H194 H 0.41708 0.21351 0.59557 0.0
O195 O 0.44814 0.83106 0.58027 0.0
O196 O 0.44636 0.83023 0.55528 0.0
H197 H 0.3661 0.2156 0.53695 0.0
H198 H 0.26784 0.13529 0.5346 0.0
C199 C 0.34068 0.14287 0.53897 0.0
H200 H 0.38723 0.09458 0.53265 0.0
H201 H 0.4809 0.9086 0.5248 0.0
O202 O 0.34434 0.92695 0.60763 0.0
C203 C 0.47833 0.80071 0.56775 0.0
Co204 Co 0.3702 0.08899 0.83549 0.0
Co205 Co 0.37089 0.0861 0.80017 0.0
C206 C 0.49793 0.95985 0.81776 0.0
O207 O 0.46283 0.9866 0.83025 0.0
O208 O 0.46051 0.98469 0.80544 0.0
C209 C 0.30296 0.0356 0.86513 0.0
O210 O 0.26373 0.96336 0.85837 0.0
C211 C 0.34664 1.01118 0.76983 0.0
C212 C 0.3562 0.13964 0.75595 0.0
C213 C 0.34671 0.04254 0.75508 0.0
N214 N 0.3562 0.08606 0.77892 0.0
N215 N 0.36137 0.16277 0.77056 0.0
C216 C 0.33867 0.9118 0.77532 0.0
H217 H 0.32692 0.9102 0.78761 0.0
H218 H 0.27936 0.87567 0.76959 0.0
H219 H 0.40451 0.87305 0.77263 0.0
C220 C 0.15985 0.10269 0.8297 0.0
N221 N 0.2505 0.0931 0.82507 0.0
N222 N 0.25126 0.08817 0.81035 0.0
C223 C 0.16139 0.09205 0.80527 0.0
C224 C 0.09917 0.09887 0.81742 0.0
C225 C 0.1304 0.1234 0.84546 0.0
H226 H 0.18668 0.16224 0.85144 0.0
H227 H 0.11445 0.05651 0.85136 0.0
H228 H 0.06543 0.16707 0.84556 0.0
O229 O 0.44773 0.19795 0.83028 0.0
O230 O 0.44864 0.19603 0.80529 0.0
H231 H 0.06328 0.1158 0.78695 0.0
H232 H 0.14356 0.0175 0.78461 0.0
C233 C 0.13599 0.09037 0.78897 0.0
H234 H 0.18429 0.1369 0.78265 0.0
H235 H 0.37026 0.23072 0.77482 0.0
O236 O 0.35185 0.094 0.85763 0.0
C237 C 0.47813 0.22807 0.81775 0.0
Co238 Co 0.18923 0.11962 0.08549 0.0
Co239 Co 0.19206 0.1203 0.05017 0.0
C240 C 0.31836 0.24732 0.06776 0.0
O241 O 0.29167 0.21219 0.08025 0.0
O242 O 0.29341 0.20997 0.05544 0.0
C243 C 0.24248 0.05249 0.11515 0.0
O244 O 0.3148 1.01327 0.1084 0.0
C245 C 0.26709 0.09603 0.01983 0.0
C246 C 0.13871 0.10558 0.00594 0.0
C247 C 0.23579 0.09609 0.00507 0.0
N248 N 0.19218 0.1056 0.02892 0.0
N249 N 0.11551 0.11077 0.02055 0.0
C250 C 0.36643 0.08806 0.02533 0.0
H251 H 0.36798 0.07633 0.03762 0.0
H252 H 0.40256 0.02871 0.01961 0.0
H253 H 0.40519 0.15389 0.02264 0.0
C254 C 0.17559 0.90923 0.07969 0.0
N255 N 0.18512 0.9999 0.07507 0.0
N256 N 0.19001 1.00066 0.06035 0.0
C257 C 0.18615 0.91078 0.05527 0.0
C258 C 0.17939 0.84854 0.06741 0.0
C259 C 0.15498 0.87977 0.09546 0.0
H260 H 0.11611 0.93602 0.10144 0.0
H261 H 0.2219 0.8639 0.10135 0.0
H262 H 0.11138 0.81475 0.09557 0.0
O263 O 0.08032 0.19719 0.08027 0.0
O264 O 0.0821 0.19803 0.05528 0.0
H265 H 0.16236 0.81265 0.03695 0.0
H266 H 0.26061 0.89296 0.0346 0.0
C267 C 0.18777 0.88538 0.03897 0.0
H268 H 0.14122 0.93367 0.03265 0.0
H269 H 0.04756 0.11966 0.0248 0.0
O270 O 0.18411 0.1013 0.10763 0.0
C271 C 0.05012 0.22754 0.06775 0.0
Co272 Co 0.87029 0.93936 0.83549 0.0
Co273 Co 0.87095 0.94219 0.80017 0.0
C274 C 0.99793 0.06854 0.81776 0.0
O275 O 0.96289 0.04177 0.83025 0.0
O276 O 0.96059 0.04359 0.80543 0.0
C277 C 0.80309 0.99277 0.86513 0.0
O278 O 0.7639 0.06504 0.85837 0.0
C279 C 0.84666 0.01708 0.76983 0.0
C280 C 0.85623 0.88861 0.75596 0.0
C281 C 0.84668 0.98569 0.75508 0.0
N282 N 0.85625 0.94221 0.77892 0.0
N283 N 0.86142 0.86549 0.77056 0.0
C284 C 0.83873 0.11647 0.77531 0.0
H285 H 0.827 0.11808 0.78761 0.0
H286 H 0.77942 0.1526 0.76959 0.0
H287 H 0.90458 0.15519 0.77262 0.0
C288 C 0.65992 0.92583 0.8297 0.0
N289 N 0.75058 0.93529 0.82507 0.0
N290 N 0.75133 0.9402 0.81036 0.0
C291 C 0.66145 0.93646 0.80527 0.0
C292 C 0.59927 0.92987 0.81742 0.0
C293 C 0.63045 0.90514 0.84547 0.0
H294 H 0.68669 0.86627 0.85145 0.0
H295 H 0.61451 0.97204 0.85137 0.0
H296 H 0.56545 0.8615 0.84556 0.0
O297 O 0.94779 0.83038 0.83028 0.0
O298 O 0.94866 0.83224 0.80529 0.0
H299 H 0.56331 0.91274 0.78696 0.0
H300 H 0.64359 1.01104 0.78461 0.0
C301 C 0.63602 0.93816 0.78897 0.0
H302 H 0.6843 0.89165 0.78265 0.0
H303 H 0.87034 0.79755 0.77482 0.0
O304 O 0.85194 0.93435 0.85764 0.0
C305 C 0.97815 0.80021 0.81776 0.0
Co306 Co 0.83924 0.11961 0.58549 0.0
Co307 Co 0.8364 0.12029 0.55017 0.0
C308 C 0.71011 0.24732 0.56777 0.0
O309 O 0.73681 0.21219 0.58025 0.0
O310 O 0.73505 0.20996 0.55544 0.0
C311 C 0.78603 0.05245 0.61515 0.0
O312 O 0.71372 1.01321 0.6084 0.0
C313 C 0.76139 0.09599 0.51983 0.0
C314 C 0.88977 0.10558 0.50594 0.0
C315 C 0.7927 0.09602 0.50507 0.0
N316 N 0.83629 0.10559 0.52892 0.0
N317 N 0.91296 0.11077 0.52055 0.0
C318 C 0.66204 0.08805 0.52533 0.0
H319 H 0.66049 0.07632 0.53762 0.0
H320 H 0.62589 0.02872 0.5196 0.0
H321 H 0.62331 0.1539 0.52264 0.0
C322 C 0.8529 0.90922 0.57969 0.0
N323 N 0.84335 0.99989 0.57507 0.0
N324 N 0.83846 1.00066 0.56035 0.0
C325 C 0.84232 0.91078 0.55527 0.0
C326 C 0.84908 0.84854 0.56741 0.0
C327 C 0.87354 0.87976 0.59546 0.0
H328 H 0.91241 0.93601 0.60144 0.0
H329 H 0.80663 0.86387 0.60135 0.0
H330 H 0.91715 0.81474 0.59556 0.0
O331 O 0.94815 0.19718 0.58027 0.0
O332 O 0.94636 0.19802 0.55528 0.0
H333 H 0.86608 0.81264 0.53695 0.0
H334 H 0.76785 0.89299 0.5346 0.0
C335 C 0.84069 0.88538 0.53897 0.0
H336 H 0.88725 0.93366 0.53265 0.0
H337 H 0.98091 0.1197 0.5248 0.0
O338 O 0.84438 0.10128 0.60763 0.0
C339 C 0.97834 0.22754 0.56775 0.0
Co340 Co 0.65816 0.08889 0.33549 0.0
Co341 Co 0.6575 0.08606 0.30017 0.0
C342 C 0.53053 0.95971 0.31776 0.0
O343 O 0.56556 0.98648 0.33025 0.0
O344 O 0.56786 0.98466 0.30543 0.0
C345 C 0.72536 0.03548 0.36513 0.0
O346 O 0.76455 0.96321 0.35837 0.0
C347 C 0.68179 1.01118 0.26983 0.0
C348 C 0.67222 0.13965 0.25596 0.0
C349 C 0.68177 0.04256 0.25508 0.0
N350 N 0.67221 0.08605 0.27892 0.0
N351 N 0.66703 0.16277 0.27056 0.0
C352 C 0.68972 0.91179 0.27531 0.0
H353 H 0.70145 0.91017 0.28761 0.0
H354 H 0.74904 0.87565 0.26959 0.0
H355 H 0.62388 0.87306 0.27262 0.0
C356 C 0.86853 0.10242 0.3297 0.0
N357 N 0.77788 0.09296 0.32507 0.0
N358 N 0.77712 0.08805 0.31036 0.0
C359 C 0.86701 0.0918 0.30527 0.0
C360 C 0.92919 0.09839 0.31742 0.0
C361 C 0.89801 0.12311 0.34547 0.0
H362 H 0.84176 0.16198 0.35145 0.0
H363 H 0.91394 0.05622 0.35137 0.0
H364 H 0.963 0.16675 0.34556 0.0
O365 O 0.58066 0.19788 0.33028 0.0
O366 O 0.5798 0.19602 0.30529 0.0
H367 H 0.96514 0.11551 0.28696 0.0
H368 H 0.88487 0.01721 0.28461 0.0
C369 C 0.89243 0.09009 0.28897 0.0
H370 H 0.84415 0.13661 0.28265 0.0
H371 H 0.65812 0.23071 0.27482 0.0
O372 O 0.67651 0.0939 0.35764 0.0
C373 C 0.55031 0.22804 0.31776 0.0
Co374 Co 0.68921 0.90864 0.08549 0.0
Co375 Co 0.69205 0.90796 0.05017 0.0
C376 C 0.81834 0.78093 0.06777 0.0
O377 O 0.79165 0.81607 0.08025 0.0
O378 O 0.79341 0.81829 0.05544 0.0
C379 C 0.74242 0.9758 0.11515 0.0
O380 O 0.81473 0.01504 0.1084 0.0
C381 C 0.76706 0.93226 0.01983 0.0
C382 C 0.63868 0.92267 0.00594 0.0
C383 C 0.73576 0.93224 0.00507 0.0
N384 N 0.69216 0.92267 0.02892 0.0
N385 N 0.6155 0.91748 0.02055 0.0
C386 C 0.86641 0.9402 0.02533 0.0
H387 H 0.86797 0.95193 0.03762 0.0
H388 H 0.90256 0.99953 0.0196 0.0
H389 H 0.90515 0.87435 0.02264 0.0
C390 C 0.67555 0.11903 0.07969 0.0
N391 N 0.6851 0.02836 0.07507 0.0
N392 N 0.69 0.02759 0.06035 0.0
C393 C 0.68614 0.11748 0.05527 0.0
C394 C 0.67937 0.17971 0.06741 0.0
C395 C 0.65492 0.14849 0.09546 0.0
H396 H 0.61605 0.09224 0.10144 0.0
H397 H 0.72182 0.16439 0.10136 0.0
H398 H 0.6113 0.21351 0.09556 0.0
O399 O 0.5803 0.83107 0.08027 0.0
O400 O 0.5821 0.83023 0.05528 0.0
H401 H 0.66237 0.21561 0.03695 0.0
H402 H 0.7606 0.13527 0.0346 0.0
C403 C 0.68777 0.14287 0.03897 0.0
H404 H 0.6412 0.09459 0.03265 0.0
H405 H 0.54755 0.90855 0.0248 0.0
O406 O 0.68407 0.92697 0.10763 0.0
C407 C 0.55012 0.80071 0.06775 0.0
Co408 Co 0.87029 0.08891 0.66077 0.0
Co409 Co 0.87096 0.08606 0.69609 0.0
C410 C 0.99793 0.95972 0.6785 0.0
O411 O 0.96289 0.9865 0.66602 0.0
O412 O 0.9606 0.98467 0.69083 0.0
C413 C 0.80307 0.03551 0.63113 0.0
O414 O 0.76388 0.96324 0.63789 0.0
C415 C 0.84671 1.01116 0.72643 0.0
C416 C 0.85625 0.13963 0.74031 0.0
C417 C 0.84677 0.04254 0.74119 0.0
N418 N 0.85627 0.08604 0.71734 0.0
N419 N 0.86143 0.16276 0.7257 0.0
C420 C 0.83875 0.91177 0.72095 0.0
H421 H 0.82703 0.91016 0.70866 0.0
H422 H 0.77942 0.87566 0.72668 0.0
H423 H 0.90458 0.87303 0.72364 0.0
C424 C 0.65992 0.10244 0.66656 0.0
N425 N 0.75058 0.09298 0.67119 0.0
N426 N 0.75133 0.08805 0.68591 0.0
C427 C 0.66145 0.09179 0.69099 0.0
C428 C 0.59927 0.09839 0.67884 0.0
C429 C 0.63044 0.12314 0.6508 0.0
H430 H 0.68669 0.16201 0.64482 0.0
H431 H 0.6145 0.05626 0.6449 0.0
H432 H 0.56545 0.16679 0.65071 0.0
O433 O 0.94779 0.19789 0.66598 0.0
O434 O 0.94866 0.19602 0.69098 0.0
H435 H 0.56332 0.11548 0.70931 0.0
H436 H 0.64359 0.01718 0.71165 0.0
C437 C 0.63603 0.09006 0.70729 0.0
H438 H 0.68432 0.13657 0.71362 0.0
H439 H 0.8703 0.2307 0.72144 0.0
O440 O 0.85193 0.09393 0.63863 0.0
C441 C 0.97815 0.22805 0.67851 0.0
Co442 Co 0.6892 0.1196 0.41077 0.0
Co443 Co 0.69206 0.12029 0.4461 0.0
C444 C 0.81835 0.24731 0.4285 0.0
O445 O 0.79164 0.21218 0.41601 0.0
O446 O 0.79342 0.20996 0.44082 0.0
C447 C 0.7424 0.05242 0.38112 0.0
O448 O 0.81471 1.01318 0.38786 0.0
C449 C 0.76709 0.09604 0.47643 0.0
C450 C 0.63871 0.1056 0.49032 0.0
C451 C 0.73579 0.09611 0.49119 0.0
N452 N 0.69218 0.10561 0.46735 0.0
N453 N 0.61552 0.11078 0.47572 0.0
C454 C 0.86644 0.08807 0.47094 0.0
H455 H 0.86799 0.07634 0.45864 0.0
H456 H 0.90256 0.02872 0.47666 0.0
H457 H 0.9052 0.1539 0.47362 0.0
C458 C 0.67555 0.90921 0.41657 0.0
N459 N 0.6851 0.99988 0.4212 0.0
N460 N 0.69001 1.00065 0.43592 0.0
C461 C 0.68615 0.91077 0.441 0.0
C462 C 0.67938 0.84853 0.42886 0.0
C463 C 0.65489 0.87974 0.40081 0.0
H464 H 0.61602 0.936 0.39483 0.0
H465 H 0.72179 0.86384 0.39491 0.0
H466 H 0.61127 0.81473 0.40071 0.0
O467 O 0.58029 0.19717 0.41599 0.0
O468 O 0.58211 0.19802 0.44099 0.0
H469 H 0.66241 0.81265 0.45932 0.0
H470 H 0.76065 0.89298 0.46167 0.0
C471 C 0.68781 0.88538 0.4573 0.0
H472 H 0.64126 0.93367 0.46362 0.0
H473 H 0.54756 0.11966 0.47147 0.0
O474 O 0.68406 0.10126 0.38863 0.0
C475 C 0.55012 0.22753 0.42852 0.0
Co476 Co 0.65817 0.93934 0.16077 0.0
Co477 Co 0.6575 0.94219 0.19609 0.0
C478 C 0.53053 0.06853 0.1785 0.0
O479 O 0.56556 0.04176 0.16602 0.0
O480 O 0.56786 0.04359 0.19083 0.0
C481 C 0.72538 0.99274 0.13113 0.0
O482 O 0.76458 0.06501 0.13789 0.0
C483 C 0.68174 0.01709 0.22643 0.0
C484 C 0.67221 0.88862 0.24031 0.0
C485 C 0.68168 0.98572 0.24119 0.0
N486 N 0.67218 0.94222 0.21734 0.0
N487 N 0.66703 0.8655 0.2257 0.0
C488 C 0.6897 0.11648 0.22095 0.0
H489 H 0.70143 0.11809 0.20866 0.0
H490 H 0.74904 0.15259 0.22668 0.0
H491 H 0.62388 0.15523 0.22364 0.0
C492 C 0.86854 0.92582 0.16656 0.0
N493 N 0.77788 0.93528 0.17119 0.0
N494 N 0.77712 0.9402 0.18591 0.0
C495 C 0.867 0.93646 0.19099 0.0
C496 C 0.92919 0.92986 0.17884 0.0
C497 C 0.89801 0.90511 0.1508 0.0
H498 H 0.84177 0.86624 0.14482 0.0
H499 H 0.91396 0.972 0.1449 0.0
H500 H 0.96301 0.86146 0.15071 0.0
O501 O 0.58066 0.83036 0.16598 0.0
O502 O 0.57979 0.83223 0.19098 0.0
H503 H 0.96513 0.91277 0.20931 0.0
H504 H 0.88486 1.01107 0.21165 0.0
C505 C 0.89242 0.93819 0.20729 0.0
H506 H 0.84414 0.89169 0.21362 0.0
H507 H 0.65815 0.79755 0.22144 0.0
O508 O 0.67653 0.93432 0.13863 0.0
C509 C 0.55031 0.8002 0.17851 0.0
Co510 Co 0.83925 0.90865 0.91077 0.0
Co511 Co 0.83639 0.90796 0.9461 0.0
C512 C 0.71011 0.78094 0.9285 0.0
O513 O 0.73681 0.81607 0.91601 0.0
O514 O 0.73504 0.8183 0.94082 0.0
C515 C 0.78605 0.97583 0.88112 0.0
O516 O 0.71374 0.01507 0.88786 0.0
C517 C 0.76136 0.93221 0.97643 0.0
C518 C 0.88975 0.92266 0.99032 0.0
C519 C 0.79266 0.93214 0.99119 0.0
N520 N 0.83627 0.92265 0.96735 0.0
N521 N 0.91293 0.91748 0.97572 0.0
C522 C 0.66202 0.94019 0.97094 0.0
H523 H 0.66047 0.95191 0.95864 0.0
H524 H 0.62589 0.99953 0.97666 0.0
H525 H 0.62326 0.87435 0.97362 0.0
C526 C 0.85291 0.11904 0.91657 0.0
N527 N 0.84336 0.02837 0.9212 0.0
N528 N 0.83845 0.0276 0.93592 0.0
C529 C 0.8423 0.11748 0.941 0.0
C530 C 0.84908 0.17972 0.92886 0.0
C531 C 0.87356 0.14851 0.90081 0.0
H532 H 0.91243 0.09225 0.89483 0.0
H533 H 0.80666 0.16441 0.89491 0.0
H534 H 0.91718 0.21352 0.90071 0.0
O535 O 0.94816 0.83109 0.91599 0.0
O536 O 0.94635 0.83023 0.94099 0.0
H537 H 0.86604 0.21561 0.95932 0.0
H538 H 0.7678 0.13527 0.96167 0.0
C539 C 0.84065 0.14287 0.9573 0.0
H540 H 0.8872 0.09459 0.96362 0.0
H541 H 0.98089 0.90859 0.97147 0.0
O542 O 0.84439 0.92699 0.88863 0.0
C543 C 0.97834 0.80072 0.92852 0.0
Co544 Co 0.65908 0.58896 0.66077 0.0
Co545 Co 0.65845 0.58628 0.6961 0.0
C546 C 0.53137 0.45994 0.67851 0.0
O547 O 0.56656 0.4865 0.66602 0.0
O548 O 0.56868 0.48499 0.69083 0.0
C549 C 0.72613 0.53566 0.63112 0.0
O550 O 0.76537 0.46335 0.63786 0.0
C551 C 0.68278 0.51128 0.72643 0.0
C552 C 0.67325 0.63969 0.74032 0.0
C553 C 0.68278 0.5426 0.74119 0.0
N554 N 0.67319 0.58619 0.71735 0.0
N555 N 0.66804 0.66287 0.72572 0.0
C556 C 0.69066 0.41191 0.72094 0.0
H557 H 0.70233 0.41034 0.70865 0.0
H558 H 0.75 0.37574 0.72666 0.0
H559 H 0.62483 0.37319 0.72363 0.0
C560 C 0.86946 0.60261 0.66656 0.0
N561 N 0.77881 0.59309 0.67119 0.0
N562 N 0.77806 0.58826 0.68591 0.0
C563 C 0.86793 0.59214 0.69099 0.0
C564 C 0.93015 0.59884 0.67884 0.0
C565 C 0.89891 0.62315 0.65079 0.0
H566 H 0.84266 0.66201 0.64481 0.0
H567 H 0.91477 0.5562 0.64491 0.0
H568 H 0.96392 0.66676 0.65068 0.0
O569 O 0.58151 0.69788 0.66599 0.0
O570 O 0.5808 0.69629 0.69099 0.0
H571 H 0.96607 0.61601 0.7093 0.0
H572 H 0.88572 0.5178 0.71167 0.0
C573 C 0.89334 0.59062 0.70729 0.0
H574 H 0.84508 0.63724 0.7136 0.0
H575 H 0.65913 0.73083 0.72146 0.0
O576 O 0.67735 0.59406 0.63863 0.0
C577 C 0.55122 0.72818 0.67852 0.0
Co578 Co 0.68954 0.40852 0.91078 0.0
Co579 Co 0.69222 0.40792 0.9461 0.0
C580 C 0.81868 0.28095 0.92852 0.0
O581 O 0.79203 0.31603 0.91603 0.0
O582 O 0.79357 0.31821 0.94084 0.0
C583 C 0.74302 0.4756 0.88113 0.0
O584 O 0.81529 0.51477 0.8879 0.0
C585 C 0.76713 0.43227 0.97643 0.0
C586 C 0.63871 0.42271 0.99032 0.0
C587 C 0.73578 0.43227 0.99119 0.0
N588 N 0.69226 0.42267 0.96734 0.0
N589 N 0.61556 0.4175 0.97571 0.0
C590 C 0.8665 0.44019 0.97095 0.0
H591 H 0.86809 0.45189 0.95865 0.0
H592 H 0.90263 0.49953 0.97667 0.0
H593 H 0.90522 0.37435 0.97364 0.0
C594 C 0.67604 0.61894 0.91656 0.0
N595 N 0.68543 0.52827 0.92119 0.0
N596 N 0.69027 0.52753 0.93591 0.0
C597 C 0.68653 0.61744 0.94099 0.0
C598 C 0.68004 0.67961 0.92883 0.0
C599 C 0.65549 0.64841 0.90079 0.0
H600 H 0.61662 0.59217 0.8948 0.0
H601 H 0.72243 0.66428 0.8949 0.0
H602 H 0.6119 0.71344 0.90068 0.0
O603 O 0.58062 0.33093 0.91599 0.0
O604 O 0.58226 0.33022 0.94099 0.0
H605 H 0.66274 0.71562 0.9593 0.0
H606 H 0.76099 0.63532 0.96166 0.0
C607 C 0.68815 0.64288 0.95729 0.0
H608 H 0.6416 0.59461 0.96361 0.0
H609 H 0.54763 0.40857 0.97145 0.0
O610 O 0.68455 0.42682 0.88863 0.0
C611 C 0.55035 0.30064 0.92852 0.0
Co612 Co 0.86937 0.43929 0.16077 0.0
Co613 Co 0.87001 0.44197 0.1961 0.0
C614 C 0.99708 0.56832 0.17851 0.0
O615 O 0.9619 0.54175 0.16602 0.0
O616 O 0.95978 0.54326 0.19083 0.0
C617 C 0.80232 0.49259 0.13112 0.0
O618 O 0.76309 0.5649 0.13786 0.0
C619 C 0.84568 0.51697 0.22643 0.0
C620 C 0.85521 0.38856 0.24032 0.0
C621 C 0.84567 0.48565 0.24119 0.0
N622 N 0.85526 0.44206 0.21735 0.0
N623 N 0.86041 0.36538 0.22572 0.0
C624 C 0.83779 0.61634 0.22094 0.0
H625 H 0.82612 0.61791 0.20865 0.0
H626 H 0.77845 0.65251 0.22666 0.0
H627 H 0.90363 0.65507 0.22363 0.0
C628 C 0.65899 0.42565 0.16656 0.0
N629 N 0.74965 0.43516 0.17119 0.0
N630 N 0.7504 0.43999 0.18591 0.0
C631 C 0.66052 0.43611 0.19099 0.0
C632 C 0.5983 0.42941 0.17884 0.0
C633 C 0.62955 0.4051 0.15079 0.0
H634 H 0.68579 0.36625 0.14481 0.0
H635 H 0.61369 0.47205 0.14491 0.0
H636 H 0.56453 0.36149 0.15068 0.0
O637 O 0.94695 0.33037 0.16599 0.0
O638 O 0.94766 0.33196 0.19099 0.0
H639 H 0.56238 0.41224 0.2093 0.0
H640 H 0.64274 0.51045 0.21167 0.0
C641 C 0.63512 0.43764 0.20729 0.0
H642 H 0.68338 0.39101 0.2136 0.0
H643 H 0.86933 0.29742 0.22146 0.0
O644 O 0.8511 0.4342 0.13863 0.0
C645 C 0.97723 0.30007 0.17852 0.0
Co646 Co 0.83891 0.61974 0.41078 0.0
Co647 Co 0.83623 0.62034 0.4461 0.0
C648 C 0.70977 0.7473 0.42852 0.0
O649 O 0.73643 0.71222 0.41603 0.0
O650 O 0.73489 0.71005 0.44084 0.0
C651 C 0.78543 0.55265 0.38113 0.0
O652 O 0.71316 0.51348 0.3879 0.0
C653 C 0.76132 0.59598 0.47643 0.0
C654 C 0.88975 0.60554 0.49032 0.0
C655 C 0.79267 0.59598 0.49119 0.0
N656 N 0.8362 0.60558 0.46734 0.0
N657 N 0.91289 0.61075 0.47571 0.0
C658 C 0.66196 0.58806 0.47095 0.0
H659 H 0.66036 0.57636 0.45865 0.0
H660 H 0.62582 0.52872 0.47667 0.0
H661 H 0.62323 0.6539 0.47364 0.0
C662 C 0.85241 0.40931 0.41656 0.0
N663 N 0.84302 0.49998 0.42119 0.0
N664 N 0.83818 0.50072 0.43591 0.0
C665 C 0.84192 0.41082 0.44099 0.0
C666 C 0.84841 0.34864 0.42883 0.0
C667 C 0.87296 0.37984 0.40079 0.0
H668 H 0.91183 0.43608 0.3948 0.0
H669 H 0.80603 0.36397 0.3949 0.0
H670 H 0.91655 0.31481 0.40068 0.0
O671 O 0.94784 0.69732 0.41599 0.0
O672 O 0.94619 0.69803 0.44099 0.0
H673 H 0.86572 0.31263 0.4593 0.0
H674 H 0.76746 0.39293 0.46166 0.0
C675 C 0.8403 0.38537 0.45729 0.0
H676 H 0.88685 0.43364 0.46361 0.0
H677 H 0.98083 0.61968 0.47145 0.0
O678 O 0.8439 0.60143 0.38863 0.0
C679 C 0.9781 0.72761 0.42852 0.0
Co680 Co 0.65909 0.43929 0.83549 0.0
Co681 Co 0.65844 0.44199 0.80017 0.0
C682 C 0.53137 0.56833 0.81776 0.0
O683 O 0.56656 0.54176 0.83025 0.0
O684 O 0.56868 0.54328 0.80543 0.0
C685 C 0.72615 0.49258 0.86515 0.0
O686 O 0.76539 0.56489 0.8584 0.0
C687 C 0.68273 0.51701 0.76983 0.0
C688 C 0.67323 0.3886 0.75594 0.0
C689 C 0.68269 0.4857 0.75507 0.0
N690 N 0.67317 0.44209 0.77892 0.0
N691 N 0.66803 0.36541 0.77055 0.0
C692 C 0.69064 0.61638 0.77533 0.0
H693 H 0.70231 0.61794 0.78762 0.0
H694 H 0.75 0.65252 0.76961 0.0
H695 H 0.62482 0.65512 0.77263 0.0
C696 C 0.86946 0.42565 0.8297 0.0
N697 N 0.77881 0.43517 0.82507 0.0
N698 N 0.77805 0.44001 0.81035 0.0
C699 C 0.86793 0.43614 0.80527 0.0
C700 C 0.93015 0.42942 0.81742 0.0
C701 C 0.89891 0.40509 0.84547 0.0
H702 H 0.84266 0.36623 0.85145 0.0
H703 H 0.91478 0.47204 0.85136 0.0
H704 H 0.96392 0.36148 0.84558 0.0
O705 O 0.58151 0.33038 0.83027 0.0
O706 O 0.58079 0.33197 0.80528 0.0
H707 H 0.96606 0.41229 0.78696 0.0
H708 H 0.88571 0.51051 0.78459 0.0
C709 C 0.89333 0.43768 0.78897 0.0
H710 H 0.84507 0.39107 0.78266 0.0
H711 H 0.65916 0.29745 0.7748 0.0
O712 O 0.67736 0.43419 0.85763 0.0
C713 C 0.55122 0.30008 0.81775 0.0
Co714 Co 0.83892 0.40851 0.08549 0.0
Co715 Co 0.83623 0.4079 0.05017 0.0
C716 C 0.70977 0.28094 0.06775 0.0
O717 O 0.73643 0.31602 0.08024 0.0
O718 O 0.73488 0.3182 0.05542 0.0
C719 C 0.78545 0.47561 0.11513 0.0
O720 O 0.71318 0.51479 0.10837 0.0
C721 C 0.7613 0.43222 0.01983 0.0
C722 C 0.88973 0.42269 0.00595 0.0
C723 C 0.79264 0.43217 0.00508 0.0
N724 N 0.83618 0.42264 0.02892 0.0
N725 N 0.91287 0.41749 0.02056 0.0
C726 C 0.66194 0.44017 0.02532 0.0
H727 H 0.66035 0.45186 0.03761 0.0
H728 H 0.62583 0.49953 0.0196 0.0
H729 H 0.62318 0.37435 0.02263 0.0
C730 C 0.85242 0.61893 0.07971 0.0
N731 N 0.84303 0.52826 0.07507 0.0
N732 N 0.83818 0.52752 0.06035 0.0
C733 C 0.84191 0.61743 0.05528 0.0
C734 C 0.84841 0.67961 0.06743 0.0
C735 C 0.87298 0.64841 0.09547 0.0
H736 H 0.91185 0.59217 0.10146 0.0
H737 H 0.80605 0.66429 0.10136 0.0
H738 H 0.91658 0.71344 0.09558 0.0
O739 O 0.94784 0.33092 0.08027 0.0
O740 O 0.94619 0.33021 0.05528 0.0
H741 H 0.86568 0.7156 0.03696 0.0
H742 H 0.76742 0.63531 0.03461 0.0
C743 C 0.84027 0.64287 0.03898 0.0
H744 H 0.88681 0.5946 0.03265 0.0
H745 H 0.98081 0.4086 0.02481 0.0
O746 O 0.84392 0.42683 0.10763 0.0
C747 C 0.9781 0.30064 0.06775 0.0
Co748 Co 0.86937 0.58896 0.33549 0.0
Co749 Co 0.87001 0.58626 0.30017 0.0
C750 C 0.99708 0.45992 0.31776 0.0
O751 O 0.96189 0.48649 0.33025 0.0
O752 O 0.95978 0.48497 0.30543 0.0
C753 C 0.8023 0.53567 0.36515 0.0
O754 O 0.76307 0.46336 0.3584 0.0
C755 C 0.84573 0.51124 0.26983 0.0
C756 C 0.85522 0.63966 0.25594 0.0
C757 C 0.84577 0.54256 0.25507 0.0
N758 N 0.85529 0.58616 0.27892 0.0
N759 N 0.86042 0.66284 0.27055 0.0
C760 C 0.83781 0.41188 0.27533 0.0
H761 H 0.82615 0.41031 0.28762 0.0
H762 H 0.77846 0.37573 0.26961 0.0
H763 H 0.90363 0.37313 0.27263 0.0
C764 C 0.65899 0.6026 0.3297 0.0
N765 N 0.74964 0.59308 0.32507 0.0
N766 N 0.7504 0.58824 0.31035 0.0
C767 C 0.66053 0.59211 0.30527 0.0
C768 C 0.5983 0.59883 0.31742 0.0
C769 C 0.62954 0.62316 0.34547 0.0
H770 H 0.68579 0.66202 0.35145 0.0
H771 H 0.61367 0.55622 0.35136 0.0
H772 H 0.56453 0.66678 0.34558 0.0
O773 O 0.94694 0.69788 0.33027 0.0
O774 O 0.94766 0.69628 0.30528 0.0
H775 H 0.56239 0.61596 0.28696 0.0
H776 H 0.64274 0.51774 0.28459 0.0
C777 C 0.63512 0.59057 0.28897 0.0
H778 H 0.68339 0.63718 0.28266 0.0
H779 H 0.86929 0.7308 0.2748 0.0
O780 O 0.85109 0.59406 0.35763 0.0
C781 C 0.97723 0.72817 0.31775 0.0
Co782 Co 0.68954 0.61974 0.58549 0.0
Co783 Co 0.69223 0.62035 0.55017 0.0
C784 C 0.81868 0.74731 0.56775 0.0
O785 O 0.79203 0.71223 0.58024 0.0
O786 O 0.79357 0.71006 0.55542 0.0
C787 C 0.74301 0.55264 0.61513 0.0
O788 O 0.81528 0.51347 0.60837 0.0
C789 C 0.76716 0.59604 0.51983 0.0
C790 C 0.63873 0.60556 0.50595 0.0
C791 C 0.73581 0.59608 0.50508 0.0
N792 N 0.69227 0.60562 0.52892 0.0
N793 N 0.61558 0.61076 0.52056 0.0
C794 C 0.86652 0.58808 0.52532 0.0
H795 H 0.8681 0.57639 0.53761 0.0
H796 H 0.90263 0.52872 0.5196 0.0
H797 H 0.90527 0.65391 0.52263 0.0
C798 C 0.67604 0.40932 0.57971 0.0
N799 N 0.68543 0.49999 0.57507 0.0
N800 N 0.69028 0.50073 0.56035 0.0
C801 C 0.68654 0.41083 0.55528 0.0
C802 C 0.68005 0.34865 0.56743 0.0
C803 C 0.65547 0.37985 0.59547 0.0
H804 H 0.6166 0.43608 0.60146 0.0
H805 H 0.72241 0.36397 0.60136 0.0
H806 H 0.61188 0.31481 0.59558 0.0
O807 O 0.58062 0.69733 0.58027 0.0
O808 O 0.58226 0.69804 0.55528 0.0
H809 H 0.66277 0.31265 0.53696 0.0
H810 H 0.76103 0.39294 0.53461 0.0
C811 C 0.68818 0.38538 0.53898 0.0
H812 H 0.64165 0.43366 0.53265 0.0
H813 H 0.54764 0.61965 0.52481 0.0
O814 O 0.68454 0.60143 0.60763 0.0
C815 C 0.55035 0.72762 0.56775 0.0
Co816 Co 0.36945 0.43936 0.33549 0.0
Co817 Co 0.37008 0.44201 0.30017 0.0
C818 C 0.49708 0.56845 0.31776 0.0
O819 O 0.46196 0.54185 0.33025 0.0
O820 O 0.45985 0.5433 0.30543 0.0
C821 C 0.30242 0.49267 0.36515 0.0
O822 O 0.26323 0.565 0.3584 0.0
C823 C 0.34575 0.51699 0.26983 0.0
C824 C 0.35527 0.38857 0.25594 0.0
C825 C 0.34574 0.48566 0.25507 0.0
N826 N 0.35534 0.44209 0.27892 0.0
N827 N 0.36047 0.3654 0.27055 0.0
C828 C 0.33787 0.61637 0.27532 0.0
H829 H 0.32622 0.61795 0.28762 0.0
H830 H 0.27852 0.65252 0.26961 0.0
H831 H 0.4037 0.65509 0.27263 0.0
C832 C 0.15906 0.42589 0.32971 0.0
N833 N 0.24972 0.43528 0.32507 0.0
N834 N 0.25047 0.44011 0.31035 0.0
C835 C 0.16059 0.43637 0.30527 0.0
C836 C 0.0984 0.42988 0.31743 0.0
C837 C 0.12958 0.40534 0.34547 0.0
H838 H 0.1858 0.36646 0.35146 0.0
H839 H 0.11372 0.47229 0.35136 0.0
H840 H 0.06455 0.36175 0.34558 0.0
O841 O 0.447 0.33042 0.33027 0.0
O842 O 0.44768 0.33198 0.30528 0.0
H843 H 0.06242 0.41257 0.28696 0.0
H844 H 0.14277 0.51079 0.2846 0.0
C845 C 0.13516 0.43795 0.28898 0.0
H846 H 0.1834 0.39134 0.28266 0.0
H847 H 0.36938 0.29744 0.2748 0.0
O848 O 0.35118 0.43426 0.35763 0.0
C849 C 0.47725 0.30009 0.31775 0.0
Co850 Co 0.33894 0.61973 0.08549 0.0
Co851 Co 0.33623 0.62035 0.05017 0.0
C852 C 0.20978 0.74731 0.06775 0.0
O853 O 0.23646 0.71223 0.08024 0.0
O854 O 0.23488 0.71005 0.05543 0.0
C855 C 0.28551 0.5526 0.11513 0.0
O856 O 0.21324 0.51341 0.10837 0.0
C857 C 0.26132 0.59601 0.01983 0.0
C858 C 0.38975 0.60557 0.00595 0.0
C859 C 0.29267 0.59602 0.00508 0.0
N860 N 0.33619 0.60561 0.02892 0.0
N861 N 0.41289 0.61078 0.02056 0.0
C862 C 0.16195 0.58809 0.02532 0.0
H863 H 0.16035 0.57639 0.03761 0.0
H864 H 0.12582 0.52874 0.0196 0.0
H865 H 0.12322 0.65393 0.02263 0.0
C866 C 0.35245 0.40931 0.07971 0.0
N867 N 0.34305 0.49998 0.07507 0.0
N868 N 0.33818 0.50073 0.06035 0.0
C869 C 0.34192 0.41083 0.05527 0.0
C870 C 0.34843 0.34865 0.06743 0.0
C871 C 0.37305 0.37984 0.09547 0.0
H872 H 0.41192 0.43608 0.10146 0.0
H873 H 0.30613 0.36394 0.10136 0.0
H874 H 0.41666 0.31481 0.09557 0.0
O875 O 0.44786 0.69732 0.08027 0.0
O876 O 0.44619 0.69805 0.05528 0.0
H877 H 0.36567 0.31265 0.03696 0.0
H878 H 0.26742 0.39297 0.03461 0.0
C879 C 0.34027 0.38539 0.03898 0.0
H880 H 0.38682 0.43365 0.03265 0.0
H881 H 0.48082 0.6197 0.02481 0.0
O882 O 0.34395 0.60141 0.10763 0.0
C883 C 0.47811 0.72762 0.06775 0.0
Co884 Co 0.159 0.5889 0.83549 0.0
Co885 Co 0.15838 0.58624 0.80017 0.0
C886 C 0.03137 0.45981 0.81776 0.0
O887 O 0.06649 0.48641 0.83025 0.0
O888 O 0.0686 0.48496 0.80543 0.0
C889 C 0.22603 0.53559 0.86515 0.0
O890 O 0.26522 0.46325 0.8584 0.0
C891 C 0.1827 0.51126 0.76983 0.0
C892 C 0.17319 0.63969 0.75594 0.0
C893 C 0.18271 0.54259 0.75507 0.0
N894 N 0.17312 0.58616 0.77892 0.0
N895 N 0.16798 0.66286 0.77055 0.0
C896 C 0.19058 0.41189 0.77532 0.0
H897 H 0.20223 0.4103 0.78762 0.0
H898 H 0.24994 0.37573 0.76961 0.0
H899 H 0.12476 0.37316 0.77263 0.0
C900 C 0.36939 0.60236 0.82971 0.0
N901 N 0.27873 0.59298 0.82507 0.0
N902 N 0.27798 0.58814 0.81035 0.0
C903 C 0.36787 0.59188 0.80527 0.0
C904 C 0.43005 0.59837 0.81743 0.0
C905 C 0.39887 0.62291 0.84547 0.0
H906 H 0.34265 0.66179 0.85146 0.0
H907 H 0.41473 0.55596 0.85136 0.0
H908 H 0.4639 0.6665 0.84558 0.0
O909 O 0.08145 0.69783 0.83027 0.0
O910 O 0.08077 0.69627 0.80528 0.0
H911 H 0.46603 0.61568 0.78696 0.0
H912 H 0.38568 0.51747 0.7846 0.0
C913 C 0.39329 0.5903 0.78898 0.0
H914 H 0.34505 0.63691 0.78266 0.0
H915 H 0.15907 0.73081 0.7748 0.0
O916 O 0.17727 0.594 0.85763 0.0
C917 C 0.0512 0.72816 0.81775 0.0
Co918 Co 0.18952 0.40852 0.58549 0.0
Co919 Co 0.19223 0.4079 0.55017 0.0
C920 C 0.31867 0.28094 0.56775 0.0
O921 O 0.292 0.31602 0.58024 0.0
O922 O 0.29358 0.3182 0.55543 0.0
C923 C 0.24295 0.47566 0.61513 0.0
O924 O 0.31521 0.51484 0.60837 0.0
C925 C 0.26714 0.43224 0.51983 0.0
C926 C 0.13871 0.42268 0.50595 0.0
C927 C 0.23578 0.43224 0.50508 0.0
N928 N 0.19226 0.42264 0.52892 0.0
N929 N 0.11557 0.41748 0.52056 0.0
C930 C 0.3665 0.44017 0.52532 0.0
H931 H 0.3681 0.45187 0.53761 0.0
H932 H 0.40263 0.49951 0.5196 0.0
H933 H 0.40523 0.37432 0.52263 0.0
C934 C 0.176 0.61894 0.57971 0.0
N935 N 0.18541 0.52827 0.57507 0.0
N936 N 0.19027 0.52752 0.56035 0.0
C937 C 0.18654 0.61742 0.55527 0.0
C938 C 0.18003 0.67961 0.56743 0.0
C939 C 0.15541 0.64842 0.59547 0.0
H940 H 0.11654 0.59218 0.60146 0.0
H941 H 0.22232 0.66432 0.60136 0.0
H942 H 0.1118 0.71344 0.59557 0.0
O943 O 0.0806 0.33093 0.58027 0.0
O944 O 0.08227 0.33021 0.55528 0.0
H945 H 0.16279 0.7156 0.53696 0.0
H946 H 0.26103 0.63528 0.53461 0.0
C947 C 0.18819 0.64286 0.53898 0.0
H948 H 0.14163 0.5946 0.53265 0.0
H949 H 0.04763 0.40855 0.52481 0.0
O950 O 0.18451 0.42684 0.60763 0.0
C951 C 0.05035 0.30064 0.56775 0.0
Co952 Co 0.36945 0.58889 0.16077 0.0
Co953 Co 0.37009 0.58622 0.1961 0.0
C954 C 0.49708 0.45979 0.17851 0.0
O955 O 0.46196 0.4864 0.16602 0.0
O956 O 0.45986 0.48494 0.19083 0.0
C957 C 0.30241 0.53559 0.13112 0.0
O958 O 0.26321 0.46326 0.13786 0.0
C959 C 0.34581 0.51122 0.22643 0.0
C960 C 0.35528 0.63965 0.24032 0.0
C961 C 0.34584 0.54255 0.24119 0.0
N962 N 0.35536 0.58613 0.21735 0.0
N963 N 0.36048 0.66282 0.22571 0.0
C964 C 0.33789 0.41185 0.22094 0.0
H965 H 0.32625 0.41028 0.20865 0.0
H966 H 0.27852 0.37572 0.22665 0.0
H967 H 0.4037 0.3731 0.22364 0.0
C968 C 0.15906 0.60236 0.16656 0.0
N969 N 0.24972 0.59297 0.17119 0.0
N970 N 0.25047 0.58812 0.18591 0.0
C971 C 0.16059 0.59186 0.19099 0.0
C972 C 0.09841 0.59836 0.17884 0.0
C973 C 0.12958 0.62292 0.15079 0.0
H974 H 0.1858 0.6618 0.14481 0.0
H975 H 0.11371 0.55597 0.14491 0.0
H976 H 0.06455 0.66651 0.15069 0.0
O977 O 0.447 0.69783 0.16599 0.0
O978 O 0.44769 0.69626 0.19099 0.0
H979 H 0.06243 0.61563 0.2093 0.0
H980 H 0.14278 0.51741 0.21167 0.0
C981 C 0.13517 0.59025 0.20729 0.0
H982 H 0.18342 0.63685 0.21361 0.0
H983 H 0.36934 0.73079 0.22146 0.0
O984 O 0.35117 0.594 0.13863 0.0
C985 C 0.47725 0.72815 0.17852 0.0
Co986 Co 0.18951 0.61973 0.91078 0.0
Co987 Co 0.19224 0.62037 0.9461 0.0
C988 C 0.31867 0.74732 0.92851 0.0
O989 O 0.292 0.71224 0.91602 0.0
O990 O 0.29358 0.71006 0.94084 0.0
C991 C 0.24293 0.55258 0.88114 0.0
O992 O 0.3152 0.5134 0.8879 0.0
C993 C 0.26716 0.59607 0.97643 0.0
C994 C 0.13873 0.60559 0.99032 0.0
C995 C 0.23581 0.59611 0.99119 0.0
N996 N 0.19228 0.60564 0.96734 0.0
N997 N 0.11559 0.61079 0.97571 0.0
C998 C 0.36652 0.58811 0.97095 0.0
H999 H 0.36811 0.57642 0.95865 0.0
H1000 H 0.40263 0.52875 0.97667 0.0
H1001 H 0.40528 0.65393 0.97364 0.0
C1002 C 0.176 0.40932 0.91656 0.0
N1003 N 0.1854 0.49999 0.92119 0.0
N1004 N 0.19028 0.50074 0.93591 0.0
C1005 C 0.18655 0.41084 0.94099 0.0
C1006 C 0.18003 0.34865 0.92884 0.0
C1007 C 0.15539 0.37984 0.9008 0.0
H1008 H 0.11652 0.43608 0.89481 0.0
H1009 H 0.2223 0.36393 0.8949 0.0
H1010 H 0.11177 0.31482 0.90069 0.0
O1011 O 0.0806 0.69732 0.91599 0.0
O1012 O 0.08227 0.69806 0.94099 0.0
H1013 H 0.16282 0.31267 0.95931 0.0
H1014 H 0.26107 0.39298 0.96166 0.0
C1015 C 0.18822 0.3854 0.95729 0.0
H1016 H 0.14168 0.43367 0.96361 0.0
H1017 H 0.04765 0.61967 0.97145 0.0
O1018 O 0.18449 0.60141 0.88863 0.0
C1019 C 0.05035 0.72762 0.92852 0.0
Co1020 Co 0.15901 0.43936 0.66077 0.0
Co1021 Co 0.15837 0.44203 0.6961 0.0
C1022 C 0.03137 0.56846 0.67851 0.0
O1023 O 0.06649 0.54185 0.66602 0.0
O1024 O 0.0686 0.54331 0.69083 0.0
C1025 C 0.22605 0.49266 0.63112 0.0
O1026 O 0.26525 0.56499 0.63786 0.0
C1027 C 0.18265 0.51703 0.72643 0.0
C1028 C 0.17317 0.3886 0.74032 0.0
C1029 C 0.18262 0.4857 0.74119 0.0
N1030 N 0.17309 0.44212 0.71735 0.0
N1031 N 0.16797 0.36543 0.72571 0.0
C1032 C 0.19056 0.6164 0.72094 0.0
H1033 H 0.2022 0.61797 0.70865 0.0
H1034 H 0.24993 0.65253 0.72665 0.0
H1035 H 0.12475 0.65515 0.72364 0.0
C1036 C 0.3694 0.42589 0.66656 0.0
N1037 N 0.27873 0.43528 0.67119 0.0
N1038 N 0.27798 0.44013 0.68591 0.0
C1039 C 0.36786 0.43639 0.69099 0.0
C1040 C 0.43005 0.42989 0.67884 0.0
C1041 C 0.39888 0.40533 0.65079 0.0
H1042 H 0.34266 0.36645 0.64481 0.0
H1043 H 0.41474 0.47228 0.64491 0.0
H1044 H 0.4639 0.36174 0.65069 0.0
O1045 O 0.08146 0.33043 0.66599 0.0
O1046 O 0.08077 0.33199 0.69099 0.0
H1047 H 0.46602 0.41262 0.7093 0.0
H1048 H 0.38568 0.51084 0.71167 0.0
C1049 C 0.39329 0.438 0.70729 0.0
H1050 H 0.34504 0.3914 0.71361 0.0
H1051 H 0.15911 0.29747 0.72146 0.0
O1052 O 0.17729 0.43425 0.63863 0.0
C1053 C 0.0512 0.3001 0.67852 0.0
Co1054 Co 0.33894 0.40852 0.41078 0.0
Co1055 Co 0.33622 0.40789 0.4461 0.0
C1056 C 0.20978 0.28093 0.42851 0.0
O1057 O 0.23646 0.31601 0.41602 0.0
O1058 O 0.23487 0.31819 0.44084 0.0
C1059 C 0.28552 0.47567 0.38114 0.0
O1060 O 0.21326 0.51486 0.3879 0.0
C1061 C 0.26129 0.43218 0.47643 0.0
C1062 C 0.38972 0.42266 0.49032 0.0
C1063 C 0.29264 0.43214 0.49119 0.0
N1064 N 0.33617 0.42261 0.46734 0.0
N1065 N 0.41287 0.41746 0.47571 0.0
C1066 C 0.16193 0.44014 0.47095 0.0
H1067 H 0.16034 0.45183 0.45865 0.0
H1068 H 0.12582 0.4995 0.47667 0.0
H1069 H 0.12318 0.37432 0.47364 0.0
C1070 C 0.35246 0.61893 0.41656 0.0
N1071 N 0.34305 0.52826 0.42119 0.0
N1072 N 0.33818 0.52751 0.43591 0.0
C1073 C 0.3419 0.61741 0.44099 0.0
C1074 C 0.34842 0.6796 0.42884 0.0
C1075 C 0.37307 0.64841 0.4008 0.0
H1076 H 0.41194 0.59217 0.39481 0.0
H1077 H 0.30615 0.66432 0.3949 0.0
H1078 H 0.41668 0.71343 0.40069 0.0
O1079 O 0.44786 0.33093 0.41599 0.0
O1080 O 0.44618 0.33019 0.44099 0.0
H1081 H 0.36563 0.71558 0.45931 0.0
H1082 H 0.26738 0.63527 0.46166 0.0
C1083 C 0.34024 0.64285 0.45729 0.0
H1084 H 0.38678 0.59458 0.46361 0.0
H1085 H 0.48081 0.40858 0.47145 0.0
O1086 O 0.34396 0.42685 0.38863 0.0
C1087 C 0.47811 0.30063 0.42852 0.0
loop_
_geom_bond_atom_site_label_1
_geom_bond_atom_site_label_2
_geom_bond_distance
_geom_bond_site_symmetry_2
_ccdc_geom_bond_type
Co0 O3 1.970 1_455 S
Co0 N17 1.989 . S
Co0 O25 1.967 . S
Co0 O32 1.920 . S
Co1 O4 1.966 1_455 S
Co1 N10 2.022 . S
Co1 N18 1.993 . S
Co1 O26 1.941 . S
C2 O3 1.258 1_565 S
C2 O4 1.262 1_565 S
O3 Co0 1.970 1_655 S
O3 C2 1.258 1_545 S
O4 Co1 1.966 1_655 S
O4 C2 1.262 1_545 S
C5 O6 1.235 1_545 S
C5 O32 1.289 . S
O6 C5 1.235 1_565 S
C7 C9 1.401 . S
C7 N10 1.351 1_565 S
C7 C12 1.501 . S
C8 C9 1.385 1_545 S
C8 N11 1.341 . S
C9 C7 1.401 . S
C9 C8 1.385 1_565 S
N10 Co1 2.022 . S
N10 C7 1.351 1_545 S
N10 N11 1.365 . S
N11 C8 1.341 . S
N11 N10 1.365 . S
N11 H31 0.862 . S
C12 C7 1.501 . S
C12 H13 0.961 1_455 S
C12 H14 0.961 . S
C12 H15 0.960 1_455 S
H13 C12 0.961 1_655 S
H14 C12 0.961 . S
H15 C12 0.960 1_655 S
C16 N17 1.342 . S
C16 C20 1.401 . S
C16 C21 1.499 . S
N17 Co0 1.989 . S
N17 C16 1.342 . S
N17 N18 1.388 . S
N18 Co1 1.993 . S
N18 N17 1.388 . S
N18 C19 1.346 . S
C19 N18 1.346 . S
C19 C20 1.396 . S
C19 C29 1.510 . S
C20 C16 1.401 . S
C20 C19 1.396 . S
C21 C16 1.499 . S
C21 H22 0.959 . S
C21 H23 0.960 1_545 S
C21 H24 0.961 . S
H22 C21 0.959 . S
H23 C21 0.960 1_565 S
H24 C21 0.961 . S
O25 Co0 1.967 . S
O25 C33 1.258 . S
O26 Co1 1.941 . S
O26 C33 1.266 . S
H27 C29 0.959 . S
H28 C29 0.961 1_565 S
C29 C19 1.510 . S
C29 H27 0.959 . S
C29 H28 0.961 1_545 S
C29 H30 0.960 . S
H30 C29 0.960 . S
H31 N11 0.862 . S
O32 Co0 1.920 . S
O32 C5 1.289 . S
C33 O25 1.258 . S
C33 O26 1.266 . S
Co34 O37 1.970 . S
Co34 N51 1.989 . S
Co34 O59 1.967 . S
Co34 O66 1.920 . S
Co35 O38 1.966 . S
Co35 N44 2.022 . S
Co35 N52 1.993 . S
Co35 O60 1.941 . S
C36 O37 1.258 . S
C36 O38 1.263 . S
O37 Co34 1.970 . S
O37 C36 1.258 . S
O38 Co35 1.966 . S
O38 C36 1.263 . S
C39 O40 1.235 . S
C39 O66 1.289 . S
O40 C39 1.235 . S
C41 C43 1.400 . S
C41 N44 1.351 . S
C41 C46 1.501 . S
C42 C43 1.387 . S
C42 N45 1.341 . S
C43 C41 1.400 . S
C43 C42 1.387 . S
N44 Co35 2.022 . S
N44 C41 1.351 . S
N44 N45 1.365 . S
N45 C42 1.341 . S
N45 N44 1.365 . S
N45 H65 0.862 . S
C46 C41 1.501 . S
C46 H47 0.961 . S
C46 H48 0.961 . S
C46 H49 0.960 . S
H47 C46 0.961 . S
H48 C46 0.961 . S
H49 C46 0.960 . S
C50 N51 1.342 1_545 S
C50 C54 1.401 . S
C50 C55 1.499 . S
N51 Co34 1.989 . S
N51 C50 1.342 1_565 S
N51 N52 1.388 . S
N52 Co35 1.993 . S
N52 N51 1.388 . S
N52 C53 1.346 1_565 S
C53 N52 1.346 1_545 S
C53 C54 1.396 . S
C53 C63 1.510 . S
C54 C50 1.401 . S
C54 C53 1.396 . S
C55 C50 1.499 . S
C55 H56 0.959 . S
C55 H57 0.960 . S
C55 H58 0.961 . S
H56 C55 0.959 . S
H57 C55 0.960 . S
H58 C55 0.961 . S
O59 Co34 1.967 . S
O59 C67 1.258 1_455 S
O60 Co35 1.941 . S
O60 C67 1.266 1_455 S
H61 C63 0.959 . S
H62 C63 0.961 . S
C63 C53 1.510 . S
C63 H61 0.959 . S
C63 H62 0.961 . S
C63 H64 0.960 . S
H64 C63 0.960 . S
H65 N45 0.862 . S
O66 Co34 1.920 . S
O66 C39 1.289 . S
C67 O59 1.258 1_655 S
C67 O60 1.266 1_655 S
Co68 O71 1.970 . S
Co68 N85 1.989 . S
Co68 O93 1.967 . S
Co68 O100 1.920 . S
Co69 O72 1.966 . S
Co69 N78 2.022 . S
Co69 N86 1.993 . S
Co69 O94 1.941 . S
C70 O71 1.258 1_545 S
C70 O72 1.262 1_545 S
O71 Co68 1.970 . S
O71 C70 1.258 1_565 S
O72 Co69 1.966 . S
O72 C70 1.262 1_565 S
C73 O74 1.235 1_565 S
C73 O100 1.289 . S
O74 C73 1.235 1_545 S
C75 C77 1.401 . S
C75 N78 1.351 1_545 S
C75 C80 1.501 . S
C76 C77 1.385 1_565 S
C76 N79 1.341 . S
C77 C75 1.401 . S
C77 C76 1.385 1_545 S
N78 Co69 2.022 . S
N78 C75 1.351 1_565 S
N78 N79 1.365 . S
N79 C76 1.341 . S
N79 N78 1.365 . S
N79 H99 0.862 . S
C80 C75 1.501 . S
C80 H81 0.961 . S
C80 H82 0.961 . S
C80 H83 0.960 . S
H81 C80 0.961 . S
H82 C80 0.961 . S
H83 C80 0.960 . S
C84 N85 1.342 . S
C84 C88 1.401 . S
C84 C89 1.499 . S
N85 Co68 1.989 . S
N85 C84 1.342 . S
N85 N86 1.388 . S
N86 Co69 1.993 . S
N86 N85 1.388 . S
N86 C87 1.346 . S
C87 N86 1.346 . S
C87 C88 1.396 . S
C87 C97 1.510 . S
C88 C84 1.401 . S
C88 C87 1.396 . S
C89 C84 1.499 . S
C89 H90 0.959 . S
C89 H91 0.960 1_565 S
C89 H92 0.961 . S
H90 C89 0.959 . S
H91 C89 0.960 1_545 S
H92 C89 0.961 . S
O93 Co68 1.967 . S
O93 C101 1.258 . S
O94 Co69 1.941 . S
O94 C101 1.266 . S
H95 C97 0.959 . S
H96 C97 0.961 1_545 S
C97 C87 1.510 . S
C97 H95 0.959 . S
C97 H96 0.961 1_565 S
C97 H98 0.960 . S
H98 C97 0.960 . S
H99 N79 0.862 . S
O100 Co68 1.920 . S
O100 C73 1.289 . S
C101 O93 1.258 . S
C101 O94 1.266 . S
Co102 O105 1.970 . S
Co102 N119 1.989 . S
Co102 O127 1.967 . S
Co102 O134 1.920 . S
Co103 O106 1.966 . S
Co103 N112 2.022 . S
Co103 N120 1.993 . S
Co103 O128 1.941 . S
C104 O105 1.258 . S
C104 O106 1.263 . S
O105 Co102 1.970 . S
O105 C104 1.258 . S
O106 Co103 1.966 . S
O106 C104 1.263 . S
C107 O108 1.235 . S
C107 O134 1.289 . S
O108 C107 1.235 . S
C109 C111 1.400 . S
C109 N112 1.351 . S
C109 C114 1.501 . S
C110 C111 1.387 . S
C110 N113 1.341 . S
C111 C109 1.400 . S
C111 C110 1.387 . S
N112 Co103 2.022 . S
N112 C109 1.351 . S
N112 N113 1.365 . S
N113 C110 1.341 . S
N113 N112 1.365 . S
N113 H133 0.862 . S
C114 C109 1.501 . S
C114 H115 0.961 . S
C114 H116 0.961 . S
C114 H117 0.960 . S
H115 C114 0.961 . S
H116 C114 0.961 . S
H117 C114 0.960 . S
C118 N119 1.342 1_565 S
C118 C122 1.401 . S
C118 C123 1.499 . S
N119 Co102 1.989 . S
N119 C118 1.342 1_545 S
N119 N120 1.388 . S
N120 Co103 1.993 . S
N120 N119 1.388 . S
N120 C121 1.346 1_545 S
C121 N120 1.346 1_565 S
C121 C122 1.396 . S
C121 C131 1.510 . S
C122 C118 1.401 . S
C122 C121 1.396 . S
C123 C118 1.499 . S
C123 H124 0.959 . S
C123 H125 0.960 . S
C123 H126 0.961 . S
H124 C123 0.959 . S
H125 C123 0.960 . S
H126 C123 0.961 . S
O127 Co102 1.967 . S
O127 C135 1.258 . S
O128 Co103 1.941 . S
O128 C135 1.266 . S
H129 C131 0.959 . S
H130 C131 0.961 . S
C131 C121 1.510 . S
C131 H129 0.959 . S
C131 H130 0.961 . S
C131 H132 0.960 . S
H132 C131 0.960 . S
H133 N113 0.862 . S
O134 Co102 1.920 . S
O134 C107 1.289 . S
C135 O127 1.258 . S
C135 O128 1.266 . S
Co136 O139 1.970 1_455 S
Co136 N153 1.989 . S
Co136 O161 1.967 . S
Co136 O168 1.920 . S
Co137 O140 1.966 1_455 S
Co137 N146 2.022 . S
Co137 N154 1.993 . S
Co137 O162 1.941 . S
C138 O139 1.258 1_545 S
C138 O140 1.262 1_545 S
O139 Co136 1.970 1_655 S
O139 C138 1.258 1_565 S
O140 Co137 1.966 1_655 S
O140 C138 1.262 1_565 S
C141 O142 1.235 1_565 S
C141 O168 1.289 . S
O142 C141 1.235 1_545 S
C143 C145 1.401 . S
C143 N146 1.351 1_545 S
C143 C148 1.501 . S
C144 C145 1.385 1_565 S
C144 N147 1.341 . S
C145 C143 1.401 . S
C145 C144 1.385 1_545 S
N146 Co137 2.022 . S
N146 C143 1.351 1_565 S
N146 N147 1.365 . S
N147 C144 1.341 . S
N147 N146 1.365 . S
N147 H167 0.862 . S
C148 C143 1.501 . S
C148 H149 0.961 1_455 S
C148 H150 0.961 . S
C148 H151 0.960 1_455 S
H149 C148 0.961 1_655 S
H150 C148 0.961 . S
H151 C148 0.960 1_655 S
C152 N153 1.342 . S
C152 C156 1.401 . S
C152 C157 1.499 . S
N153 Co136 1.989 . S
N153 C152 1.342 . S
N153 N154 1.388 . S
N154 Co137 1.993 . S
N154 N153 1.388 . S
N154 C155 1.346 . S
C155 N154 1.346 . S
C155 C156 1.396 . S
C155 C165 1.510 . S
C156 C152 1.401 . S
C156 C155 1.396 . S
C157 C152 1.499 . S
C157 H158 0.959 . S
C157 H159 0.960 1_565 S
C157 H160 0.961 . S
H158 C157 0.959 . S
H159 C157 0.960 1_545 S
H160 C157 0.961 . S
O161 Co136 1.967 . S
O161 C169 1.258 . S
O162 Co137 1.941 . S
O162 C169 1.266 . S
H163 C165 0.959 . S
H164 C165 0.961 1_545 S
C165 C155 1.510 . S
C165 H163 0.959 . S
C165 H164 0.961 1_565 S
C165 H166 0.960 . S
H166 C165 0.960 . S
H167 N147 0.862 . S
O168 Co136 1.920 . S
O168 C141 1.289 . S
C169 O161 1.258 . S
C169 O162 1.266 . S
Co170 O173 1.970 . S
Co170 N187 1.989 . S
Co170 O195 1.967 . S
Co170 O202 1.920 . S
Co171 O174 1.966 . S
Co171 N180 2.022 . S
Co171 N188 1.993 . S
Co171 O196 1.941 . S
C172 O173 1.258 . S
C172 O174 1.263 . S
O173 Co170 1.970 . S
O173 C172 1.258 . S
O174 Co171 1.966 . S
O174 C172 1.263 . S
C175 O176 1.235 . S
C175 O202 1.289 . S
O176 C175 1.235 . S
C177 C179 1.400 . S
C177 N180 1.351 . S
C177 C182 1.501 . S
C178 C179 1.387 . S
C178 N181 1.341 . S
C179 C177 1.400 . S
C179 C178 1.387 . S
N180 Co171 2.022 . S
N180 C177 1.351 . S
N180 N181 1.365 . S
N181 C178 1.341 . S
N181 N180 1.365 . S
N181 H201 0.862 . S
C182 C177 1.501 . S
C182 H183 0.961 . S
C182 H184 0.961 . S
C182 H185 0.960 . S
H183 C182 0.961 . S
H184 C182 0.961 . S
H185 C182 0.960 . S
C186 N187 1.342 1_545 S
C186 C190 1.401 . S
C186 C191 1.499 . S
N187 Co170 1.989 . S
N187 C186 1.342 1_565 S
N187 N188 1.388 . S
N188 Co171 1.993 . S
N188 N187 1.388 . S
N188 C189 1.346 1_565 S
C189 N188 1.346 1_545 S
C189 C190 1.396 . S
C189 C199 1.510 . S
C190 C186 1.401 . S
C190 C189 1.396 . S
C191 C186 1.499 . S
C191 H192 0.959 . S
C191 H193 0.960 . S
C191 H194 0.961 . S
H192 C191 0.959 . S
H193 C191 0.960 . S
H194 C191 0.961 . S
O195 Co170 1.967 . S
O195 C203 1.258 . S
O196 Co171 1.941 . S
O196 C203 1.266 . S
H197 C199 0.959 . S
H198 C199 0.961 . S
C199 C189 1.510 . S
C199 H197 0.959 . S
C199 H198 0.961 . S
C199 H200 0.960 . S
H200 C199 0.960 . S
H201 N181 0.862 . S
O202 Co170 1.920 . S
O202 C175 1.289 . S
C203 O195 1.258 . S
C203 O196 1.266 . S
Co204 O207 1.970 . S
Co204 N221 1.989 . S
Co204 O229 1.967 . S
Co204 O236 1.920 . S
Co205 O208 1.966 . S
Co205 N214 2.022 . S
Co205 N222 1.993 . S
Co205 O230 1.941 . S
C206 O207 1.258 1_565 S
C206 O208 1.262 1_565 S
O207 Co204 1.970 . S
O207 C206 1.258 1_545 S
O208 Co205 1.966 . S
O208 C206 1.262 1_545 S
C209 O210 1.235 1_545 S
C209 O236 1.289 . S
O210 C209 1.235 1_565 S
C211 C213 1.401 . S
C211 N214 1.351 1_565 S
C211 C216 1.501 . S
C212 C213 1.385 1_545 S
C212 N215 1.341 . S
C213 C211 1.401 . S
C213 C212 1.385 1_565 S
N214 Co205 2.022 . S
N214 C211 1.351 1_545 S
N214 N215 1.365 . S
N215 C212 1.341 . S
N215 N214 1.365 . S
N215 H235 0.862 . S
C216 C211 1.501 . S
C216 H217 0.961 . S
C216 H218 0.961 . S
C216 H219 0.960 . S
H217 C216 0.961 . S
H218 C216 0.961 . S
H219 C216 0.960 . S
C220 N221 1.342 . S
C220 C224 1.401 . S
C220 C225 1.499 . S
N221 Co204 1.989 . S
N221 C220 1.342 . S
N221 N222 1.388 . S
N222 Co205 1.993 . S
N222 N221 1.388 . S
N222 C223 1.346 . S
C223 N222 1.346 . S
C223 C224 1.396 . S
C223 C233 1.510 . S
C224 C220 1.401 . S
C224 C223 1.396 . S
C225 C220 1.499 . S
C225 H226 0.959 . S
C225 H227 0.960 1_545 S
C225 H228 0.961 . S
H226 C225 0.959 . S
H227 C225 0.960 1_565 S
H228 C225 0.961 . S
O229 Co204 1.967 . S
O229 C237 1.258 . S
O230 Co205 1.941 . S
O230 C237 1.266 . S
H231 C233 0.959 . S
H232 C233 0.961 1_565 S
C233 C223 1.510 . S
C233 H231 0.959 . S
C233 H232 0.961 1_545 S
C233 H234 0.960 . S
H234 C233 0.960 . S
H235 N215 0.862 . S
O236 Co204 1.920 . S
O236 C209 1.289 . S
C237 O229 1.258 . S
C237 O230 1.266 . S
Co238 O241 1.970 . S
Co238 N255 1.989 . S
Co238 O263 1.967 . S
Co238 O270 1.920 . S
Co239 O242 1.966 . S
Co239 N248 2.022 . S
Co239 N256 1.993 . S
Co239 O264 1.941 . S
C240 O241 1.258 . S
C240 O242 1.263 . S
O241 Co238 1.970 . S
O241 C240 1.258 . S
O242 Co239 1.966 . S
O242 C240 1.263 . S
C243 O244 1.235 . S
C243 O270 1.289 . S
O244 C243 1.235 . S
C245 C247 1.400 . S
C245 N248 1.351 . S
C245 C250 1.501 . S
C246 C247 1.387 . S
C246 N249 1.341 . S
C247 C245 1.400 . S
C247 C246 1.387 . S
N248 Co239 2.022 . S
N248 C245 1.351 . S
N248 N249 1.365 . S
N249 C246 1.341 . S
N249 N248 1.365 . S
N249 H269 0.862 . S
C250 C245 1.501 . S
C250 H251 0.961 . S
C250 H252 0.961 . S
C250 H253 0.960 . S
H251 C250 0.961 . S
H252 C250 0.961 . S
H253 C250 0.960 . S
C254 N255 1.342 1_565 S
C254 C258 1.401 . S
C254 C259 1.499 . S
N255 Co238 1.989 . S
N255 C254 1.342 1_545 S
N255 N256 1.388 . S
N256 Co239 1.993 . S
N256 N255 1.388 . S
N256 C257 1.346 1_545 S
C257 N256 1.346 1_565 S
C257 C258 1.396 . S
C257 C267 1.510 . S
C258 C254 1.401 . S
C258 C257 1.396 . S
C259 C254 1.499 . S
C259 H260 0.959 . S
C259 H261 0.960 . S
C259 H262 0.961 . S
H260 C259 0.959 . S
H261 C259 0.960 . S
H262 C259 0.961 . S
O263 Co238 1.967 . S
O263 C271 1.258 1_455 S
O264 Co239 1.941 . S
O264 C271 1.266 1_455 S
H265 C267 0.959 . S
H266 C267 0.961 . S
C267 C257 1.510 . S
C267 H265 0.959 . S
C267 H266 0.961 . S
C267 H268 0.960 . S
H268 C267 0.960 . S
H269 N249 0.862 . S
O270 Co238 1.920 . S
O270 C243 1.289 . S
C271 O263 1.258 1_655 S
C271 O264 1.266 1_655 S
Co272 O275 1.970 1_655 S
Co272 N289 1.989 . S
Co272 O297 1.967 . S
Co272 O304 1.920 . S
Co273 O276 1.966 1_655 S
Co273 N282 2.022 . S
Co273 N290 1.993 . S
Co273 O298 1.941 . S
C274 O275 1.258 1_545 S
C274 O276 1.262 1_545 S
O275 Co272 1.970 1_455 S
O275 C274 1.258 1_565 S
O276 Co273 1.966 1_455 S
O276 C274 1.262 1_565 S
C277 O278 1.235 1_565 S
C277 O304 1.289 . S
O278 C277 1.235 1_545 S
C279 C281 1.401 . S
C279 N282 1.351 1_545 S
C279 C284 1.501 . S
C280 C281 1.385 1_565 S
C280 N283 1.341 . S
C281 C279 1.401 . S
C281 C280 1.385 1_545 S
N282 Co273 2.022 . S
N282 C279 1.351 1_565 S
N282 N283 1.365 . S
N283 C280 1.341 . S
N283 N282 1.365 . S
N283 H303 0.862 . S
C284 C279 1.501 . S
C284 H285 0.961 1_655 S
C284 H286 0.961 . S
C284 H287 0.960 1_655 S
H285 C284 0.961 1_455 S
H286 C284 0.961 . S
H287 C284 0.960 1_455 S
C288 N289 1.342 . S
C288 C292 1.401 . S
C288 C293 1.499 . S
N289 Co272 1.989 . S
N289 C288 1.342 . S
N289 N290 1.388 . S
N290 Co273 1.993 . S
N290 N289 1.388 . S
N290 C291 1.346 . S
C291 N290 1.346 . S
C291 C292 1.396 . S
C291 C301 1.510 . S
C292 C288 1.401 . S
C292 C291 1.396 . S
C293 C288 1.499 . S
C293 H294 0.959 . S
C293 H295 0.960 1_565 S
C293 H296 0.961 . S
H294 C293 0.959 . S
H295 C293 0.960 1_545 S
H296 C293 0.961 . S
O297 Co272 1.967 . S
O297 C305 1.258 . S
O298 Co273 1.941 . S
O298 C305 1.266 . S
H299 C301 0.959 . S
H300 C301 0.961 1_545 S
C301 C291 1.510 . S
C301 H299 0.959 . S
C301 H300 0.961 1_565 S
C301 H302 0.960 . S
H302 C301 0.960 . S
H303 N283 0.862 . S
O304 Co272 1.920 . S
O304 C277 1.289 . S
C305 O297 1.258 . S
C305 O298 1.266 . S
Co306 O309 1.970 . S
Co306 N323 1.989 . S
Co306 O331 1.967 . S
Co306 O338 1.920 . S
Co307 O310 1.966 . S
Co307 N316 2.022 . S
Co307 N324 1.993 . S
Co307 O332 1.941 . S
C308 O309 1.258 . S
C308 O310 1.263 . S
O309 Co306 1.970 . S
O309 C308 1.258 . S
O310 Co307 1.966 . S
O310 C308 1.263 . S
C311 O312 1.235 . S
C311 O338 1.289 . S
O312 C311 1.235 . S
C313 C315 1.400 . S
C313 N316 1.351 . S
C313 C318 1.501 . S
C314 C315 1.387 . S
C314 N317 1.341 . S
C315 C313 1.400 . S
C315 C314 1.387 . S
N316 Co307 2.022 . S
N316 C313 1.351 . S
N316 N317 1.365 . S
N317 C314 1.341 . S
N317 N316 1.365 . S
N317 H337 0.862 . S
C318 C313 1.501 . S
C318 H319 0.961 . S
C318 H320 0.961 . S
C318 H321 0.960 . S
H319 C318 0.961 . S
H320 C318 0.961 . S
H321 C318 0.960 . S
C322 N323 1.342 1_565 S
C322 C326 1.401 . S
C322 C327 1.499 . S
N323 Co306 1.989 . S
N323 C322 1.342 1_545 S
N323 N324 1.388 . S
N324 Co307 1.993 . S
N324 N323 1.388 . S
N324 C325 1.346 1_545 S
C325 N324 1.346 1_565 S
C325 C326 1.396 . S
C325 C335 1.510 . S
C326 C322 1.401 . S
C326 C325 1.396 . S
C327 C322 1.499 . S
C327 H328 0.959 . S
C327 H329 0.960 . S
C327 H330 0.961 . S
H328 C327 0.959 . S
H329 C327 0.960 . S
H330 C327 0.961 . S
O331 Co306 1.967 . S
O331 C339 1.258 1_655 S
O332 Co307 1.941 . S
O332 C339 1.266 1_655 S
H333 C335 0.959 . S
H334 C335 0.961 . S
C335 C325 1.510 . S
C335 H333 0.959 . S
C335 H334 0.961 . S
C335 H336 0.960 . S
H336 C335 0.960 . S
H337 N317 0.862 . S
O338 Co306 1.920 . S
O338 C311 1.289 . S
C339 O331 1.258 1_455 S
C339 O332 1.266 1_455 S
Co340 O343 1.970 . S
Co340 N357 1.989 . S
Co340 O365 1.967 . S
Co340 O372 1.920 . S
Co341 O344 1.966 . S
Co341 N350 2.022 . S
Co341 N358 1.993 . S
Co341 O366 1.941 . S
C342 O343 1.258 1_565 S
C342 O344 1.262 1_565 S
O343 Co340 1.970 . S
O343 C342 1.258 1_545 S
O344 Co341 1.966 . S
O344 C342 1.262 1_545 S
C345 O346 1.235 1_545 S
C345 O372 1.289 . S
O346 C345 1.235 1_565 S
C347 C349 1.401 . S
C347 N350 1.351 1_565 S
C347 C352 1.501 . S
C348 C349 1.385 1_545 S
C348 N351 1.341 . S
C349 C347 1.401 . S
C349 C348 1.385 1_565 S
N350 Co341 2.022 . S
N350 C347 1.351 1_545 S
N350 N351 1.365 . S
N351 C348 1.341 . S
N351 N350 1.365 . S
N351 H371 0.862 . S
C352 C347 1.501 . S
C352 H353 0.961 . S
C352 H354 0.961 . S
C352 H355 0.960 . S
H353 C352 0.961 . S
H354 C352 0.961 . S
H355 C352 0.960 . S
C356 N357 1.342 . S
C356 C360 1.401 . S
C356 C361 1.499 . S
N357 Co340 1.989 . S
N357 C356 1.342 . S
N357 N358 1.388 . S
N358 Co341 1.993 . S
N358 N357 1.388 . S
N358 C359 1.346 . S
C359 N358 1.346 . S
C359 C360 1.396 . S
C359 C369 1.510 . S
C360 C356 1.401 . S
C360 C359 1.396 . S
C361 C356 1.499 . S
C361 H362 0.959 . S
C361 H363 0.960 1_545 S
C361 H364 0.961 . S
H362 C361 0.959 . S
H363 C361 0.960 1_565 S
H364 C361 0.961 . S
O365 Co340 1.967 . S
O365 C373 1.258 . S
O366 Co341 1.941 . S
O366 C373 1.266 . S
H367 C369 0.959 . S
H368 C369 0.961 1_565 S
C369 C359 1.510 . S
C369 H367 0.959 . S
C369 H368 0.961 1_545 S
C369 H370 0.960 . S
H370 C369 0.960 . S
H371 N351 0.862 . S
O372 Co340 1.920 . S
O372 C345 1.289 . S
C373 O365 1.258 . S
C373 O366 1.266 . S
Co374 O377 1.970 . S
Co374 N391 1.989 . S
Co374 O399 1.967 . S
Co374 O406 1.920 . S
Co375 O378 1.966 . S
Co375 N384 2.022 . S
Co375 N392 1.993 . S
Co375 O400 1.941 . S
C376 O377 1.258 . S
C376 O378 1.263 . S
O377 Co374 1.970 . S
O377 C376 1.258 . S
O378 Co375 1.966 . S
O378 C376 1.263 . S
C379 O380 1.235 . S
C379 O406 1.289 . S
O380 C379 1.235 . S
C381 C383 1.400 . S
C381 N384 1.351 . S
C381 C386 1.501 . S
C382 C383 1.387 . S
C382 N385 1.341 . S
C383 C381 1.400 . S
C383 C382 1.387 . S
N384 Co375 2.022 . S
N384 C381 1.351 . S
N384 N385 1.365 . S
N385 C382 1.341 . S
N385 N384 1.365 . S
N385 H405 0.862 . S
C386 C381 1.501 . S
C386 H387 0.961 . S
C386 H388 0.961 . S
C386 H389 0.960 . S
H387 C386 0.961 . S
H388 C386 0.961 . S
H389 C386 0.960 . S
C390 N391 1.342 1_545 S
C390 C394 1.401 . S
C390 C395 1.499 . S
N391 Co374 1.989 . S
N391 C390 1.342 1_565 S
N391 N392 1.388 . S
N392 Co375 1.993 . S
N392 N391 1.388 . S
N392 C393 1.346 1_565 S
C393 N392 1.346 1_545 S
C393 C394 1.396 . S
C393 C403 1.510 . S
C394 C390 1.401 . S
C394 C393 1.396 . S
C395 C390 1.499 . S
C395 H396 0.959 . S
C395 H397 0.960 . S
C395 H398 0.961 . S
H396 C395 0.959 . S
H397 C395 0.960 . S
H398 C395 0.961 . S
O399 Co374 1.967 . S
O399 C407 1.258 . S
O400 Co375 1.941 . S
O400 C407 1.266 . S
H401 C403 0.959 . S
H402 C403 0.961 . S
C403 C393 1.510 . S
C403 H401 0.959 . S
C403 H402 0.961 . S
C403 H404 0.960 . S
H404 C403 0.960 . S
H405 N385 0.862 . S
O406 Co374 1.920 . S
O406 C379 1.289 . S
C407 O399 1.258 . S
C407 O400 1.266 . S
Co408 O411 1.970 1_655 S
Co408 N425 1.989 . S
Co408 O433 1.967 . S
Co408 O440 1.920 . S
Co409 O412 1.966 1_655 S
Co409 N418 2.022 . S
Co409 N426 1.993 . S
Co409 O434 1.941 . S
C410 O411 1.258 1_565 S
C410 O412 1.262 1_565 S
O411 Co408 1.970 1_455 S
O411 C410 1.258 1_545 S
O412 Co409 1.966 1_455 S
O412 C410 1.262 1_545 S
C413 O414 1.235 1_545 S
C413 O440 1.289 . S
O414 C413 1.235 1_565 S
C415 C417 1.401 . S
C415 N418 1.351 1_565 S
C415 C420 1.501 . S
C416 C417 1.385 1_545 S
C416 N419 1.341 . S
C417 C415 1.401 . S
C417 C416 1.385 1_565 S
N418 Co409 2.022 . S
N418 C415 1.351 1_545 S
N418 N419 1.365 . S
N419 C416 1.341 . S
N419 N418 1.365 . S
N419 H439 0.862 . S
C420 C415 1.501 . S
C420 H421 0.961 1_655 S
C420 H422 0.961 . S
C420 H423 0.960 1_655 S
H421 C420 0.961 1_455 S
H422 C420 0.961 . S
H423 C420 0.960 1_455 S
C424 N425 1.342 . S
C424 C428 1.401 . S
C424 C429 1.499 . S
N425 Co408 1.989 . S
N425 C424 1.342 . S
N425 N426 1.388 . S
N426 Co409 1.993 . S
N426 N425 1.388 . S
N426 C427 1.346 . S
C427 N426 1.346 . S
C427 C428 1.396 . S
C427 C437 1.510 . S
C428 C424 1.401 . S
C428 C427 1.396 . S
C429 C424 1.499 . S
C429 H430 0.959 . S
C429 H431 0.960 1_545 S
C429 H432 0.961 . S
H430 C429 0.959 . S
H431 C429 0.960 1_565 S
H432 C429 0.961 . S
O433 Co408 1.967 . S
O433 C441 1.258 . S
O434 Co409 1.941 . S
O434 C441 1.266 . S
H435 C437 0.959 . S
H436 C437 0.961 1_565 S
C437 C427 1.510 . S
C437 H435 0.959 . S
C437 H436 0.961 1_545 S
C437 H438 0.960 . S
H438 C437 0.960 . S
H439 N419 0.862 . S
O440 Co408 1.920 . S
O440 C413 1.289 . S
C441 O433 1.258 . S
C441 O434 1.266 . S
Co442 O445 1.970 . S
Co442 N459 1.989 . S
Co442 O467 1.967 . S
Co442 O474 1.920 . S
Co443 O446 1.966 . S
Co443 N452 2.022 . S
Co443 N460 1.993 . S
Co443 O468 1.941 . S
C444 O445 1.258 . S
C444 O446 1.263 . S
O445 Co442 1.970 . S
O445 C444 1.258 . S
O446 Co443 1.966 . S
O446 C444 1.263 . S
C447 O448 1.235 . S
C447 O474 1.289 . S
O448 C447 1.235 . S
C449 C451 1.400 . S
C449 N452 1.351 . S
C449 C454 1.501 . S
C450 C451 1.387 . S
C450 N453 1.341 . S
C451 C449 1.400 . S
C451 C450 1.387 . S
N452 Co443 2.022 . S
N452 C449 1.351 . S
N452 N453 1.365 . S
N453 C450 1.341 . S
N453 N452 1.365 . S
N453 H473 0.862 . S
C454 C449 1.501 . S
C454 H455 0.961 . S
C454 H456 0.961 . S
C454 H457 0.960 . S
H455 C454 0.961 . S
H456 C454 0.961 . S
H457 C454 0.960 . S
C458 N459 1.342 1_565 S
C458 C462 1.401 . S
C458 C463 1.499 . S
N459 Co442 1.989 . S
N459 C458 1.342 1_545 S
N459 N460 1.388 . S
N460 Co443 1.993 . S
N460 N459 1.388 . S
N460 C461 1.346 1_545 S
C461 N460 1.346 1_565 S
C461 C462 1.396 . S
C461 C471 1.510 . S
C462 C458 1.401 . S
C462 C461 1.396 . S
C463 C458 1.499 . S
C463 H464 0.959 . S
C463 H465 0.960 . S
C463 H466 0.961 . S
H464 C463 0.959 . S
H465 C463 0.960 . S
H466 C463 0.961 . S
O467 Co442 1.967 . S
O467 C475 1.258 . S
O468 Co443 1.941 . S
O468 C475 1.266 . S
H469 C471 0.959 . S
H470 C471 0.961 . S
C471 C461 1.510 . S
C471 H469 0.959 . S
C471 H470 0.961 . S
C471 H472 0.960 . S
H472 C471 0.960 . S
H473 N453 0.862 . S
O474 Co442 1.920 . S
O474 C447 1.289 . S
C475 O467 1.258 . S
C475 O468 1.266 . S
Co476 O479 1.970 . S
Co476 N493 1.989 . S
Co476 O501 1.967 . S
Co476 O508 1.920 . S
Co477 O480 1.966 . S
Co477 N486 2.022 . S
Co477 N494 1.993 . S
Co477 O502 1.941 . S
C478 O479 1.258 1_545 S
C478 O480 1.262 1_545 S
O479 Co476 1.970 . S
O479 C478 1.258 1_565 S
O480 Co477 1.966 . S
O480 C478 1.262 1_565 S
C481 O482 1.235 1_565 S
C481 O508 1.289 . S
O482 C481 1.235 1_545 S
C483 C485 1.401 . S
C483 N486 1.351 1_545 S
C483 C488 1.501 . S
C484 C485 1.385 1_565 S
C484 N487 1.341 . S
C485 C483 1.401 . S
C485 C484 1.385 1_545 S
N486 Co477 2.022 . S
N486 C483 1.351 1_565 S
N486 N487 1.365 . S
N487 C484 1.341 . S
N487 N486 1.365 . S
N487 H507 0.862 . S
C488 C483 1.501 . S
C488 H489 0.961 . S
C488 H490 0.961 . S
C488 H491 0.960 . S
H489 C488 0.961 . S
H490 C488 0.961 . S
H491 C488 0.960 . S
C492 N493 1.342 . S
C492 C496 1.401 . S
C492 C497 1.499 . S
N493 Co476 1.989 . S
N493 C492 1.342 . S
N493 N494 1.388 . S
N494 Co477 1.993 . S
N494 N493 1.388 . S
N494 C495 1.346 . S
C495 N494 1.346 . S
C495 C496 1.396 . S
C495 C505 1.510 . S
C496 C492 1.401 . S
C496 C495 1.396 . S
C497 C492 1.499 . S
C497 H498 0.959 . S
C497 H499 0.960 1_565 S
C497 H500 0.961 . S
H498 C497 0.959 . S
H499 C497 0.960 1_545 S
H500 C497 0.961 . S
O501 Co476 1.967 . S
O501 C509 1.258 . S
O502 Co477 1.941 . S
O502 C509 1.266 . S
H503 C505 0.959 . S
H504 C505 0.961 1_545 S
C505 C495 1.510 . S
C505 H503 0.959 . S
C505 H504 0.961 1_565 S
C505 H506 0.960 . S
H506 C505 0.960 . S
H507 N487 0.862 . S
O508 Co476 1.920 . S
O508 C481 1.289 . S
C509 O501 1.258 . S
C509 O502 1.266 . S
Co510 O513 1.970 . S
Co510 N527 1.989 . S
Co510 O535 1.967 . S
Co510 O542 1.920 . S
Co511 O514 1.966 . S
Co511 N520 2.022 . S
Co511 N528 1.993 . S
Co511 O536 1.941 . S
C512 O513 1.258 . S
C512 O514 1.263 . S
O513 Co510 1.970 . S
O513 C512 1.258 . S
O514 Co511 1.966 . S
O514 C512 1.263 . S
C515 O516 1.235 . S
C515 O542 1.289 . S
O516 C515 1.235 . S
C517 C519 1.400 . S
C517 N520 1.351 . S
C517 C522 1.501 . S
C518 C519 1.387 . S
C518 N521 1.341 . S
C519 C517 1.400 . S
C519 C518 1.387 . S
N520 Co511 2.022 . S
N520 C517 1.351 . S
N520 N521 1.365 . S
N521 C518 1.341 . S
N521 N520 1.365 . S
N521 H541 0.862 . S
C522 C517 1.501 . S
C522 H523 0.961 . S
C522 H524 0.961 . S
C522 H525 0.960 . S
H523 C522 0.961 . S
H524 C522 0.961 . S
H525 C522 0.960 . S
C526 N527 1.342 1_545 S
C526 C530 1.401 . S
C526 C531 1.499 . S
N527 Co510 1.989 . S
N527 C526 1.342 1_565 S
N527 N528 1.388 . S
N528 Co511 1.993 . S
N528 N527 1.388 . S
N528 C529 1.346 1_565 S
C529 N528 1.346 1_545 S
C529 C530 1.396 . S
C529 C539 1.510 . S
C530 C526 1.401 . S
C530 C529 1.396 . S
C531 C526 1.499 . S
C531 H532 0.959 . S
C531 H533 0.960 . S
C531 H534 0.961 . S
H532 C531 0.959 . S
H533 C531 0.960 . S
H534 C531 0.961 . S
O535 Co510 1.967 . S
O535 C543 1.258 1_655 S
O536 Co511 1.941 . S
O536 C543 1.266 1_655 S
H537 C539 0.959 . S
H538 C539 0.961 . S
C539 C529 1.510 . S
C539 H537 0.959 . S
C539 H538 0.961 . S
C539 H540 0.960 . S
H540 C539 0.960 . S
H541 N521 0.862 . S
O542 Co510 1.920 . S
O542 C515 1.289 . S
C543 O535 1.258 1_455 S
C543 O536 1.266 1_455 S
Co544 O547 1.970 . S
Co544 N561 1.989 . S
Co544 O569 1.967 . S
Co544 O576 1.920 . S
Co545 O548 1.966 . S
Co545 N554 2.022 . S
Co545 N562 1.993 . S
Co545 O570 1.941 . S
C546 O547 1.258 . S
C546 O548 1.263 . S
O547 Co544 1.970 . S
O547 C546 1.258 . S
O548 Co545 1.966 . S
O548 C546 1.263 . S
C549 O550 1.235 . S
C549 O576 1.289 . S
O550 C549 1.235 . S
C551 C553 1.400 . S
C551 N554 1.351 . S
C551 C556 1.501 . S
C552 C553 1.387 . S
C552 N555 1.341 . S
C553 C551 1.400 . S
C553 C552 1.387 . S
N554 Co545 2.022 . S
N554 C551 1.351 . S
N554 N555 1.365 . S
N555 C552 1.341 . S
N555 N554 1.365 . S
N555 H575 0.862 . S
C556 C551 1.501 . S
C556 H557 0.961 . S
C556 H558 0.961 . S
C556 H559 0.960 . S
H557 C556 0.961 . S
H558 C556 0.961 . S
H559 C556 0.960 . S
C560 N561 1.342 . S
C560 C564 1.401 . S
C560 C565 1.499 . S
N561 Co544 1.989 . S
N561 C560 1.342 . S
N561 N562 1.388 . S
N562 Co545 1.993 . S
N562 N561 1.388 . S
N562 C563 1.346 . S
C563 N562 1.346 . S
C563 C564 1.396 . S
C563 C573 1.510 . S
C564 C560 1.401 . S
C564 C563 1.396 . S
C565 C560 1.499 . S
C565 H566 0.959 . S
C565 H567 0.960 . S
C565 H568 0.961 . S
H566 C565 0.959 . S
H567 C565 0.960 . S
H568 C565 0.961 . S
O569 Co544 1.967 . S
O569 C577 1.258 . S
O570 Co545 1.941 . S
O570 C577 1.266 . S
H571 C573 0.959 . S
H572 C573 0.961 . S
C573 C563 1.510 . S
C573 H571 0.959 . S
C573 H572 0.961 . S
C573 H574 0.960 . S
H574 C573 0.960 . S
H575 N555 0.862 . S
O576 Co544 1.920 . S
O576 C549 1.289 . S
C577 O569 1.258 . S
C577 O570 1.266 . S
Co578 O581 1.970 . S
Co578 N595 1.989 . S
Co578 O603 1.967 . S
Co578 O610 1.920 . S
Co579 O582 1.966 . S
Co579 N588 2.022 . S
Co579 N596 1.993 . S
Co579 O604 1.941 . S
C580 O581 1.258 . S
C580 O582 1.263 . S
O581 Co578 1.970 . S
O581 C580 1.258 . S
O582 Co579 1.966 . S
O582 C580 1.263 . S
C583 O584 1.235 . S
C583 O610 1.289 . S
O584 C583 1.235 . S
C585 C587 1.400 . S
C585 N588 1.351 . S
C585 C590 1.501 . S
C586 C587 1.387 . S
C586 N589 1.341 . S
C587 C585 1.400 . S
C587 C586 1.387 . S
N588 Co579 2.022 . S
N588 C585 1.351 . S
N588 N589 1.365 . S
N589 C586 1.341 . S
N589 N588 1.365 . S
N589 H609 0.862 . S
C590 C585 1.501 . S
C590 H591 0.961 . S
C590 H592 0.961 . S
C590 H593 0.960 . S
H591 C590 0.961 . S
H592 C590 0.961 . S
H593 C590 0.960 . S
C594 N595 1.342 . S
C594 C598 1.401 . S
C594 C599 1.499 . S
N595 Co578 1.989 . S
N595 C594 1.342 . S
N595 N596 1.388 . S
N596 Co579 1.993 . S
N596 N595 1.388 . S
N596 C597 1.346 . S
C597 N596 1.346 . S
C597 C598 1.396 . S
C597 C607 1.510 . S
C598 C594 1.401 . S
C598 C597 1.396 . S
C599 C594 1.499 . S
C599 H600 0.959 . S
C599 H601 0.960 . S
C599 H602 0.961 . S
H600 C599 0.959 . S
H601 C599 0.960 . S
H602 C599 0.961 . S
O603 Co578 1.967 . S
O603 C611 1.258 . S
O604 Co579 1.941 . S
O604 C611 1.266 . S
H605 C607 0.959 . S
H606 C607 0.961 . S
C607 C597 1.510 . S
C607 H605 0.959 . S
C607 H606 0.961 . S
C607 H608 0.960 . S
H608 C607 0.960 . S
H609 N589 0.862 . S
O610 Co578 1.920 . S
O610 C583 1.289 . S
C611 O603 1.258 . S
C611 O604 1.266 . S
Co612 O615 1.970 1_655 S
Co612 N629 1.989 . S
Co612 O637 1.967 . S
Co612 O644 1.920 . S
Co613 O616 1.966 1_655 S
Co613 N622 2.022 . S
Co613 N630 1.993 . S
Co613 O638 1.941 . S
C614 O615 1.258 . S
C614 O616 1.263 . S
O615 Co612 1.970 1_455 S
O615 C614 1.258 . S
O616 Co613 1.966 1_455 S
O616 C614 1.263 . S
C617 O618 1.235 . S
C617 O644 1.289 . S
O618 C617 1.235 . S
C619 C621 1.400 . S
C619 N622 1.351 . S
C619 C624 1.501 . S
C620 C621 1.387 . S
C620 N623 1.341 . S
C621 C619 1.400 . S
C621 C620 1.387 . S
N622 Co613 2.022 . S
N622 C619 1.351 . S
N622 N623 1.365 . S
N623 C620 1.341 . S
N623 N622 1.365 . S
N623 H643 0.862 . S
C624 C619 1.501 . S
C624 H625 0.961 1_655 S
C624 H626 0.961 . S
C624 H627 0.960 1_655 S
H625 C624 0.961 1_455 S
H626 C624 0.961 . S
H627 C624 0.960 1_455 S
C628 N629 1.342 . S
C628 C632 1.401 . S
C628 C633 1.499 . S
N629 Co612 1.989 . S
N629 C628 1.342 . S
N629 N630 1.388 . S
N630 Co613 1.993 . S
N630 N629 1.388 . S
N630 C631 1.346 . S
C631 N630 1.346 . S
C631 C632 1.396 . S
C631 C641 1.510 . S
C632 C628 1.401 . S
C632 C631 1.396 . S
C633 C628 1.499 . S
C633 H634 0.959 . S
C633 H635 0.960 . S
C633 H636 0.961 . S
H634 C633 0.959 . S
H635 C633 0.960 . S
H636 C633 0.961 . S
O637 Co612 1.967 . S
O637 C645 1.258 . S
O638 Co613 1.941 . S
O638 C645 1.266 . S
H639 C641 0.959 . S
H640 C641 0.961 . S
C641 C631 1.510 . S
C641 H639 0.959 . S
C641 H640 0.961 . S
C641 H642 0.960 . S
H642 C641 0.960 . S
H643 N623 0.862 . S
O644 Co612 1.920 . S
O644 C617 1.289 . S
C645 O637 1.258 . S
C645 O638 1.266 . S
Co646 O649 1.970 . S
Co646 N663 1.989 . S
Co646 O671 1.967 . S
Co646 O678 1.920 . S
Co647 O650 1.966 . S
Co647 N656 2.022 . S
Co647 N664 1.993 . S
Co647 O672 1.941 . S
C648 O649 1.258 . S
C648 O650 1.263 . S
O649 Co646 1.970 . S
O649 C648 1.258 . S
O650 Co647 1.966 . S
O650 C648 1.263 . S
C651 O652 1.235 . S
C651 O678 1.289 . S
O652 C651 1.235 . S
C653 C655 1.400 . S
C653 N656 1.351 . S
C653 C658 1.501 . S
C654 C655 1.387 . S
C654 N657 1.341 . S
C655 C653 1.400 . S
C655 C654 1.387 . S
N656 Co647 2.022 . S
N656 C653 1.351 . S
N656 N657 1.365 . S
N657 C654 1.341 . S
N657 N656 1.365 . S
N657 H677 0.862 . S
C658 C653 1.501 . S
C658 H659 0.961 . S
C658 H660 0.961 . S
C658 H661 0.960 . S
H659 C658 0.961 . S
H660 C658 0.961 . S
H661 C658 0.960 . S
C662 N663 1.342 . S
C662 C666 1.401 . S
C662 C667 1.499 . S
N663 Co646 1.989 . S
N663 C662 1.342 . S
N663 N664 1.388 . S
N664 Co647 1.993 . S
N664 N663 1.388 . S
N664 C665 1.346 . S
C665 N664 1.346 . S
C665 C666 1.396 . S
C665 C675 1.510 . S
C666 C662 1.401 . S
C666 C665 1.396 . S
C667 C662 1.499 . S
C667 H668 0.959 . S
C667 H669 0.960 . S
C667 H670 0.961 . S
H668 C667 0.959 . S
H669 C667 0.960 . S
H670 C667 0.961 . S
O671 Co646 1.967 . S
O671 C679 1.258 1_655 S
O672 Co647 1.941 . S
O672 C679 1.266 1_655 S
H673 C675 0.959 . S
H674 C675 0.961 . S
C675 C665 1.510 . S
C675 H673 0.959 . S
C675 H674 0.961 . S
C675 H676 0.960 . S
H676 C675 0.960 . S
H677 N657 0.862 . S
O678 Co646 1.920 . S
O678 C651 1.289 . S
C679 O671 1.258 1_455 S
C679 O672 1.266 1_455 S
Co680 O683 1.970 . S
Co680 N697 1.989 . S
Co680 O705 1.967 . S
Co680 O712 1.920 . S
Co681 O684 1.966 . S
Co681 N690 2.022 . S
Co681 N698 1.993 . S
Co681 O706 1.941 . S
C682 O683 1.258 . S
C682 O684 1.263 . S
O683 Co680 1.970 . S
O683 C682 1.258 . S
O684 Co681 1.966 . S
O684 C682 1.263 . S
C685 O686 1.235 . S
C685 O712 1.289 . S
O686 C685 1.235 . S
C687 C689 1.400 . S
C687 N690 1.351 . S
C687 C692 1.501 . S
C688 C689 1.387 . S
C688 N691 1.341 . S
C689 C687 1.400 . S
C689 C688 1.387 . S
N690 Co681 2.022 . S
N690 C687 1.351 . S
N690 N691 1.365 . S
N691 C688 1.341 . S
N691 N690 1.365 . S
N691 H711 0.862 . S
C692 C687 1.501 . S
C692 H693 0.961 . S
C692 H694 0.961 . S
C692 H695 0.960 . S
H693 C692 0.961 . S
H694 C692 0.961 . S
H695 C692 0.960 . S
C696 N697 1.342 . S
C696 C700 1.401 . S
C696 C701 1.499 . S
N697 Co680 1.989 . S
N697 C696 1.342 . S
N697 N698 1.388 . S
N698 Co681 1.993 . S
N698 N697 1.388 . S
N698 C699 1.346 . S
C699 N698 1.346 . S
C699 C700 1.396 . S
C699 C709 1.510 . S
C700 C696 1.401 . S
C700 C699 1.396 . S
C701 C696 1.499 . S
C701 H702 0.959 . S
C701 H703 0.960 . S
C701 H704 0.961 . S
H702 C701 0.959 . S
H703 C701 0.960 . S
H704 C701 0.961 . S
O705 Co680 1.967 . S
O705 C713 1.258 . S
O706 Co681 1.941 . S
O706 C713 1.266 . S
H707 C709 0.959 . S
H708 C709 0.961 . S
C709 C699 1.510 . S
C709 H707 0.959 . S
C709 H708 0.961 . S
C709 H710 0.960 . S
H710 C709 0.960 . S
H711 N691 0.862 . S
O712 Co680 1.920 . S
O712 C685 1.289 . S
C713 O705 1.258 . S
C713 O706 1.266 . S
Co714 O717 1.970 . S
Co714 N731 1.989 . S
Co714 O739 1.967 . S
Co714 O746 1.920 . S
Co715 O718 1.966 . S
Co715 N724 2.022 . S
Co715 N732 1.993 . S
Co715 O740 1.941 . S
C716 O717 1.258 . S
C716 O718 1.263 . S
O717 Co714 1.970 . S
O717 C716 1.258 . S
O718 Co715 1.966 . S
O718 C716 1.263 . S
C719 O720 1.235 . S
C719 O746 1.289 . S
O720 C719 1.235 . S
C721 C723 1.400 . S
C721 N724 1.351 . S
C721 C726 1.501 . S
C722 C723 1.387 . S
C722 N725 1.341 . S
C723 C721 1.400 . S
C723 C722 1.387 . S
N724 Co715 2.022 . S
N724 C721 1.351 . S
N724 N725 1.365 . S
N725 C722 1.341 . S
N725 N724 1.365 . S
N725 H745 0.862 . S
C726 C721 1.501 . S
C726 H727 0.961 . S
C726 H728 0.961 . S
C726 H729 0.960 . S
H727 C726 0.961 . S
H728 C726 0.961 . S
H729 C726 0.960 . S
C730 N731 1.342 . S
C730 C734 1.401 . S
C730 C735 1.499 . S
N731 Co714 1.989 . S
N731 C730 1.342 . S
N731 N732 1.388 . S
N732 Co715 1.993 . S
N732 N731 1.388 . S
N732 C733 1.346 . S
C733 N732 1.346 . S
C733 C734 1.396 . S
C733 C743 1.510 . S
C734 C730 1.401 . S
C734 C733 1.396 . S
C735 C730 1.499 . S
C735 H736 0.959 . S
C735 H737 0.960 . S
C735 H738 0.961 . S
H736 C735 0.959 . S
H737 C735 0.960 . S
H738 C735 0.961 . S
O739 Co714 1.967 . S
O739 C747 1.258 1_655 S
O740 Co715 1.941 . S
O740 C747 1.266 1_655 S
H741 C743 0.959 . S
H742 C743 0.961 . S
C743 C733 1.510 . S
C743 H741 0.959 . S
C743 H742 0.961 . S
C743 H744 0.960 . S
H744 C743 0.960 . S
H745 N725 0.862 . S
O746 Co714 1.920 . S
O746 C719 1.289 . S
C747 O739 1.258 1_455 S
C747 O740 1.266 1_455 S
Co748 O751 1.970 1_655 S
Co748 N765 1.989 . S
Co748 O773 1.967 . S
Co748 O780 1.920 . S
Co749 O752 1.966 1_655 S
Co749 N758 2.022 . S
Co749 N766 1.993 . S
Co749 O774 1.941 . S
C750 O751 1.258 . S
C750 O752 1.263 . S
O751 Co748 1.970 1_455 S
O751 C750 1.258 . S
O752 Co749 1.966 1_455 S
O752 C750 1.263 . S
C753 O754 1.235 . S
C753 O780 1.289 . S
O754 C753 1.235 . S
C755 C757 1.400 . S
C755 N758 1.351 . S
C755 C760 1.501 . S
C756 C757 1.387 . S
C756 N759 1.341 . S
C757 C755 1.400 . S
C757 C756 1.387 . S
N758 Co749 2.022 . S
N758 C755 1.351 . S
N758 N759 1.365 . S
N759 C756 1.341 . S
N759 N758 1.365 . S
N759 H779 0.862 . S
C760 C755 1.501 . S
C760 H761 0.961 1_655 S
C760 H762 0.961 . S
C760 H763 0.960 1_655 S
H761 C760 0.961 1_455 S
H762 C760 0.961 . S
H763 C760 0.960 1_455 S
C764 N765 1.342 . S
C764 C768 1.401 . S
C764 C769 1.499 . S
N765 Co748 1.989 . S
N765 C764 1.342 . S
N765 N766 1.388 . S
N766 Co749 1.993 . S
N766 N765 1.388 . S
N766 C767 1.346 . S
C767 N766 1.346 . S
C767 C768 1.396 . S
C767 C777 1.510 . S
C768 C764 1.401 . S
C768 C767 1.396 . S
C769 C764 1.499 . S
C769 H770 0.959 . S
C769 H771 0.960 . S
C769 H772 0.961 . S
H770 C769 0.959 . S
H771 C769 0.960 . S
H772 C769 0.961 . S
O773 Co748 1.967 . S
O773 C781 1.258 . S
O774 Co749 1.941 . S
O774 C781 1.266 . S
H775 C777 0.959 . S
H776 C777 0.961 . S
C777 C767 1.510 . S
C777 H775 0.959 . S
C777 H776 0.961 . S
C777 H778 0.960 . S
H778 C777 0.960 . S
H779 N759 0.862 . S
O780 Co748 1.920 . S
O780 C753 1.289 . S
C781 O773 1.258 . S
C781 O774 1.266 . S
Co782 O785 1.970 . S
Co782 N799 1.989 . S
Co782 O807 1.967 . S
Co782 O814 1.920 . S
Co783 O786 1.966 . S
Co783 N792 2.022 . S
Co783 N800 1.993 . S
Co783 O808 1.941 . S
C784 O785 1.258 . S
C784 O786 1.263 . S
O785 Co782 1.970 . S
O785 C784 1.258 . S
O786 Co783 1.966 . S
O786 C784 1.263 . S
C787 O788 1.235 . S
C787 O814 1.289 . S
O788 C787 1.235 . S
C789 C791 1.400 . S
C789 N792 1.351 . S
C789 C794 1.501 . S
C790 C791 1.387 . S
C790 N793 1.341 . S
C791 C789 1.400 . S
C791 C790 1.387 . S
N792 Co783 2.022 . S
N792 C789 1.351 . S
N792 N793 1.365 . S
N793 C790 1.341 . S
N793 N792 1.365 . S
N793 H813 0.862 . S
C794 C789 1.501 . S
C794 H795 0.961 . S
C794 H796 0.961 . S
C794 H797 0.960 . S
H795 C794 0.961 . S
H796 C794 0.961 . S
H797 C794 0.960 . S
C798 N799 1.342 . S
C798 C802 1.401 . S
C798 C803 1.499 . S
N799 Co782 1.989 . S
N799 C798 1.342 . S
N799 N800 1.388 . S
N800 Co783 1.993 . S
N800 N799 1.388 . S
N800 C801 1.346 . S
C801 N800 1.346 . S
C801 C802 1.396 . S
C801 C811 1.510 . S
C802 C798 1.401 . S
C802 C801 1.396 . S
C803 C798 1.499 . S
C803 H804 0.959 . S
C803 H805 0.960 . S
C803 H806 0.961 . S
H804 C803 0.959 . S
H805 C803 0.960 . S
H806 C803 0.961 . S
O807 Co782 1.967 . S
O807 C815 1.258 . S
O808 Co783 1.941 . S
O808 C815 1.266 . S
H809 C811 0.959 . S
H810 C811 0.961 . S
C811 C801 1.510 . S
C811 H809 0.959 . S
C811 H810 0.961 . S
C811 H812 0.960 . S
H812 C811 0.960 . S
H813 N793 0.862 . S
O814 Co782 1.920 . S
O814 C787 1.289 . S
C815 O807 1.258 . S
C815 O808 1.266 . S
Co816 O819 1.970 . S
Co816 N833 1.989 . S
Co816 O841 1.967 . S
Co816 O848 1.920 . S
Co817 O820 1.966 . S
Co817 N826 2.022 . S
Co817 N834 1.993 . S
Co817 O842 1.941 . S
C818 O819 1.258 . S
C818 O820 1.263 . S
O819 Co816 1.970 . S
O819 C818 1.258 . S
O820 Co817 1.966 . S
O820 C818 1.263 . S
C821 O822 1.235 . S
C821 O848 1.289 . S
O822 C821 1.235 . S
C823 C825 1.400 . S
C823 N826 1.351 . S
C823 C828 1.501 . S
C824 C825 1.387 . S
C824 N827 1.341 . S
C825 C823 1.400 . S
C825 C824 1.387 . S
N826 Co817 2.022 . S
N826 C823 1.351 . S
N826 N827 1.365 . S
N827 C824 1.341 . S
N827 N826 1.365 . S
N827 H847 0.862 . S
C828 C823 1.501 . S
C828 H829 0.961 . S
C828 H830 0.961 . S
C828 H831 0.960 . S
H829 C828 0.961 . S
H830 C828 0.961 . S
H831 C828 0.960 . S
C832 N833 1.342 . S
C832 C836 1.401 . S
C832 C837 1.499 . S
N833 Co816 1.989 . S
N833 C832 1.342 . S
N833 N834 1.388 . S
N834 Co817 1.993 . S
N834 N833 1.388 . S
N834 C835 1.346 . S
C835 N834 1.346 . S
C835 C836 1.396 . S
C835 C845 1.510 . S
C836 C832 1.401 . S
C836 C835 1.396 . S
C837 C832 1.499 . S
C837 H838 0.959 . S
C837 H839 0.960 . S
C837 H840 0.961 . S
H838 C837 0.959 . S
H839 C837 0.960 . S
H840 C837 0.961 . S
O841 Co816 1.967 . S
O841 C849 1.258 . S
O842 Co817 1.941 . S
O842 C849 1.266 . S
H843 C845 0.959 . S
H844 C845 0.961 . S
C845 C835 1.510 . S
C845 H843 0.959 . S
C845 H844 0.961 . S
C845 H846 0.960 . S
H846 C845 0.960 . S
H847 N827 0.862 . S
O848 Co816 1.920 . S
O848 C821 1.289 . S
C849 O841 1.258 . S
C849 O842 1.266 . S
Co850 O853 1.970 . S
Co850 N867 1.989 . S
Co850 O875 1.967 . S
Co850 O882 1.920 . S
Co851 O854 1.966 . S
Co851 N860 2.022 . S
Co851 N868 1.993 . S
Co851 O876 1.941 . S
C852 O853 1.258 . S
C852 O854 1.263 . S
O853 Co850 1.970 . S
O853 C852 1.258 . S
O854 Co851 1.966 . S
O854 C852 1.263 . S
C855 O856 1.235 . S
C855 O882 1.289 . S
O856 C855 1.235 . S
C857 C859 1.400 . S
C857 N860 1.351 . S
C857 C862 1.501 . S
C858 C859 1.387 . S
C858 N861 1.341 . S
C859 C857 1.400 . S
C859 C858 1.387 . S
N860 Co851 2.022 . S
N860 C857 1.351 . S
N860 N861 1.365 . S
N861 C858 1.341 . S
N861 N860 1.365 . S
N861 H881 0.862 . S
C862 C857 1.501 . S
C862 H863 0.961 . S
C862 H864 0.961 . S
C862 H865 0.960 . S
H863 C862 0.961 . S
H864 C862 0.961 . S
H865 C862 0.960 . S
C866 N867 1.342 . S
C866 C870 1.401 . S
C866 C871 1.499 . S
N867 Co850 1.989 . S
N867 C866 1.342 . S
N867 N868 1.388 . S
N868 Co851 1.993 . S
N868 N867 1.388 . S
N868 C869 1.346 . S
C869 N868 1.346 . S
C869 C870 1.396 . S
C869 C879 1.510 . S
C870 C866 1.401 . S
C870 C869 1.396 . S
C871 C866 1.499 . S
C871 H872 0.959 . S
C871 H873 0.960 . S
C871 H874 0.961 . S
H872 C871 0.959 . S
H873 C871 0.960 . S
H874 C871 0.961 . S
O875 Co850 1.967 . S
O875 C883 1.258 . S
O876 Co851 1.941 . S
O876 C883 1.266 . S
H877 C879 0.959 . S
H878 C879 0.961 . S
C879 C869 1.510 . S
C879 H877 0.959 . S
C879 H878 0.961 . S
C879 H880 0.960 . S
H880 C879 0.960 . S
H881 N861 0.862 . S
O882 Co850 1.920 . S
O882 C855 1.289 . S
C883 O875 1.258 . S
C883 O876 1.266 . S
Co884 O887 1.970 1_455 S
Co884 N901 1.989 . S
Co884 O909 1.967 . S
Co884 O916 1.920 . S
Co885 O888 1.966 1_455 S
Co885 N894 2.022 . S
Co885 N902 1.993 . S
Co885 O910 1.941 . S
C886 O887 1.258 . S
C886 O888 1.263 . S
O887 Co884 1.970 1_655 S
O887 C886 1.258 . S
O888 Co885 1.966 1_655 S
O888 C886 1.263 . S
C889 O890 1.235 . S
C889 O916 1.289 . S
O890 C889 1.235 . S
C891 C893 1.400 . S
C891 N894 1.351 . S
C891 C896 1.501 . S
C892 C893 1.387 . S
C892 N895 1.341 . S
C893 C891 1.400 . S
C893 C892 1.387 . S
N894 Co885 2.022 . S
N894 C891 1.351 . S
N894 N895 1.365 . S
N895 C892 1.341 . S
N895 N894 1.365 . S
N895 H915 0.862 . S
C896 C891 1.501 . S
C896 H897 0.961 1_455 S
C896 H898 0.961 . S
C896 H899 0.960 1_455 S
H897 C896 0.961 1_655 S
H898 C896 0.961 . S
H899 C896 0.960 1_655 S
C900 N901 1.342 . S
C900 C904 1.401 . S
C900 C905 1.499 . S
N901 Co884 1.989 . S
N901 C900 1.342 . S
N901 N902 1.388 . S
N902 Co885 1.993 . S
N902 N901 1.388 . S
N902 C903 1.346 . S
C903 N902 1.346 . S
C903 C904 1.396 . S
C903 C913 1.510 . S
C904 C900 1.401 . S
C904 C903 1.396 . S
C905 C900 1.499 . S
C905 H906 0.959 . S
C905 H907 0.960 . S
C905 H908 0.961 . S
H906 C905 0.959 . S
H907 C905 0.960 . S
H908 C905 0.961 . S
O909 Co884 1.967 . S
O909 C917 1.258 . S
O910 Co885 1.941 . S
O910 C917 1.266 . S
H911 C913 0.959 . S
H912 C913 0.961 . S
C913 C903 1.510 . S
C913 H911 0.959 . S
C913 H912 0.961 . S
C913 H914 0.960 . S
H914 C913 0.960 . S
H915 N895 0.862 . S
O916 Co884 1.920 . S
O916 C889 1.289 . S
C917 O909 1.258 . S
C917 O910 1.266 . S
Co918 O921 1.970 . S
Co918 N935 1.989 . S
Co918 O943 1.967 . S
Co918 O950 1.920 . S
Co919 O922 1.966 . S
Co919 N928 2.022 . S
Co919 N936 1.993 . S
Co919 O944 1.941 . S
C920 O921 1.258 . S
C920 O922 1.263 . S
O921 Co918 1.970 . S
O921 C920 1.258 . S
O922 Co919 1.966 . S
O922 C920 1.263 . S
C923 O924 1.235 . S
C923 O950 1.289 . S
O924 C923 1.235 . S
C925 C927 1.400 . S
C925 N928 1.351 . S
C925 C930 1.501 . S
C926 C927 1.387 . S
C926 N929 1.341 . S
C927 C925 1.400 . S
C927 C926 1.387 . S
N928 Co919 2.022 . S
N928 C925 1.351 . S
N928 N929 1.365 . S
N929 C926 1.341 . S
N929 N928 1.365 . S
N929 H949 0.862 . S
C930 C925 1.501 . S
C930 H931 0.961 . S
C930 H932 0.961 . S
C930 H933 0.960 . S
H931 C930 0.961 . S
H932 C930 0.961 . S
H933 C930 0.960 . S
C934 N935 1.342 . S
C934 C938 1.401 . S
C934 C939 1.499 . S
N935 Co918 1.989 . S
N935 C934 1.342 . S
N935 N936 1.388 . S
N936 Co919 1.993 . S
N936 N935 1.388 . S
N936 C937 1.346 . S
C937 N936 1.346 . S
C937 C938 1.396 . S
C937 C947 1.510 . S
C938 C934 1.401 . S
C938 C937 1.396 . S
C939 C934 1.499 . S
C939 H940 0.959 . S
C939 H941 0.960 . S
C939 H942 0.961 . S
H940 C939 0.959 . S
H941 C939 0.960 . S
H942 C939 0.961 . S
O943 Co918 1.967 . S
O943 C951 1.258 1_455 S
O944 Co919 1.941 . S
O944 C951 1.266 1_455 S
H945 C947 0.959 . S
H946 C947 0.961 . S
C947 C937 1.510 . S
C947 H945 0.959 . S
C947 H946 0.961 . S
C947 H948 0.960 . S
H948 C947 0.960 . S
H949 N929 0.862 . S
O950 Co918 1.920 . S
O950 C923 1.289 . S
C951 O943 1.258 1_655 S
C951 O944 1.266 1_655 S
Co952 O955 1.970 . S
Co952 N969 1.989 . S
Co952 O977 1.967 . S
Co952 O984 1.920 . S
Co953 O956 1.966 . S
Co953 N962 2.022 . S
Co953 N970 1.993 . S
Co953 O978 1.941 . S
C954 O955 1.258 . S
C954 O956 1.263 . S
O955 Co952 1.970 . S
O955 C954 1.258 . S
O956 Co953 1.966 . S
O956 C954 1.263 . S
C957 O958 1.235 . S
C957 O984 1.289 . S
O958 C957 1.235 . S
C959 C961 1.400 . S
C959 N962 1.351 . S
C959 C964 1.501 . S
C960 C961 1.387 . S
C960 N963 1.341 . S
C961 C959 1.400 . S
C961 C960 1.387 . S
N962 Co953 2.022 . S
N962 C959 1.351 . S
N962 N963 1.365 . S
N963 C960 1.341 . S
N963 N962 1.365 . S
N963 H983 0.862 . S
C964 C959 1.501 . S
C964 H965 0.961 . S
C964 H966 0.961 . S
C964 H967 0.960 . S
H965 C964 0.961 . S
H966 C964 0.961 . S
H967 C964 0.960 . S
C968 N969 1.342 . S
C968 C972 1.401 . S
C968 C973 1.499 . S
N969 Co952 1.989 . S
N969 C968 1.342 . S
N969 N970 1.388 . S
N970 Co953 1.993 . S
N970 N969 1.388 . S
N970 C971 1.346 . S
C971 N970 1.346 . S
C971 C972 1.396 . S
C971 C981 1.510 . S
C972 C968 1.401 . S
C972 C971 1.396 . S
C973 C968 1.499 . S
C973 H974 0.959 . S
C973 H975 0.960 . S
C973 H976 0.961 . S
H974 C973 0.959 . S
H975 C973 0.960 . S
H976 C973 0.961 . S
O977 Co952 1.967 . S
O977 C985 1.258 . S
O978 Co953 1.941 . S
O978 C985 1.266 . S
H979 C981 0.959 . S
H980 C981 0.961 . S
C981 C971 1.510 . S
C981 H979 0.959 . S
C981 H980 0.961 . S
C981 H982 0.960 . S
H982 C981 0.960 . S
H983 N963 0.862 . S
O984 Co952 1.920 . S
O984 C957 1.289 . S
C985 O977 1.258 . S
C985 O978 1.266 . S
Co986 O989 1.970 . S
Co986 N1003 1.989 . S
Co986 O1011 1.967 . S
Co986 O1018 1.920 . S
Co987 O990 1.966 . S
Co987 N996 2.022 . S
Co987 N1004 1.993 . S
Co987 O1012 1.941 . S
C988 O989 1.258 . S
C988 O990 1.263 . S
O989 Co986 1.970 . S
O989 C988 1.258 . S
O990 Co987 1.966 . S
O990 C988 1.263 . S
C991 O992 1.235 . S
C991 O1018 1.289 . S
O992 C991 1.235 . S
C993 C995 1.400 . S
C993 N996 1.351 . S
C993 C998 1.501 . S
C994 C995 1.387 . S
C994 N997 1.341 . S
C995 C993 1.400 . S
C995 C994 1.387 . S
N996 Co987 2.022 . S
N996 C993 1.351 . S
N996 N997 1.365 . S
N997 C994 1.341 . S
N997 N996 1.365 . S
N997 H1017 0.862 . S
C998 C993 1.501 . S
C998 H999 0.961 . S
C998 H1000 0.961 . S
C998 H1001 0.960 . S
H999 C998 0.961 . S
H1000 C998 0.961 . S
H1001 C998 0.960 . S
C1002 N1003 1.342 . S
C1002 C1006 1.401 . S
C1002 C1007 1.499 . S
N1003 Co986 1.989 . S
N1003 C1002 1.342 . S
N1003 N1004 1.388 . S
N1004 Co987 1.993 . S
N1004 N1003 1.388 . S
N1004 C1005 1.346 . S
C1005 N1004 1.346 . S
C1005 C1006 1.396 . S
C1005 C1015 1.510 . S
C1006 C1002 1.401 . S
C1006 C1005 1.396 . S
C1007 C1002 1.499 . S
C1007 H1008 0.959 . S
C1007 H1009 0.960 . S
C1007 H1010 0.961 . S
H1008 C1007 0.959 . S
H1009 C1007 0.960 . S
H1010 C1007 0.961 . S
O1011 Co986 1.967 . S
O1011 C1019 1.258 1_455 S
O1012 Co987 1.941 . S
O1012 C1019 1.266 1_455 S
H1013 C1015 0.959 . S
H1014 C1015 0.961 . S
C1015 C1005 1.510 . S
C1015 H1013 0.959 . S
C1015 H1014 0.961 . S
C1015 H1016 0.960 . S
H1016 C1015 0.960 . S
H1017 N997 0.862 . S
O1018 Co986 1.920 . S
O1018 C991 1.289 . S
C1019 O1011 1.258 1_655 S
C1019 O1012 1.266 1_655 S
Co1020 O1023 1.970 1_455 S
Co1020 N1037 1.989 . S
Co1020 O1045 1.967 . S
Co1020 O1052 1.920 . S
Co1021 O1024 1.966 1_455 S
Co1021 N1030 2.022 . S
Co1021 N1038 1.993 . S
Co1021 O1046 1.941 . S
C1022 O1023 1.258 . S
C1022 O1024 1.263 . S
O1023 Co1020 1.970 1_655 S
O1023 C1022 1.258 . S
O1024 Co1021 1.966 1_655 S
O1024 C1022 1.263 . S
C1025 O1026 1.235 . S
C1025 O1052 1.289 . S
O1026 C1025 1.235 . S
C1027 C1029 1.400 . S
C1027 N1030 1.351 . S
C1027 C1032 1.501 . S
C1028 C1029 1.387 . S
C1028 N1031 1.341 . S
C1029 C1027 1.400 . S
C1029 C1028 1.387 . S
N1030 Co1021 2.022 . S
N1030 C1027 1.351 . S
N1030 N1031 1.365 . S
N1031 C1028 1.341 . S
N1031 N1030 1.365 . S
N1031 H1051 0.862 . S
C1032 C1027 1.501 . S
C1032 H1033 0.961 1_455 S
C1032 H1034 0.961 . S
C1032 H1035 0.960 1_455 S
H1033 C1032 0.961 1_655 S
H1034 C1032 0.961 . S
H1035 C1032 0.960 1_655 S
C1036 N1037 1.342 . S
C1036 C1040 1.401 . S
C1036 C1041 1.499 . S
N1037 Co1020 1.989 . S
N1037 C1036 1.342 . S
N1037 N1038 1.388 . S
N1038 Co1021 1.993 . S
N1038 N1037 1.388 . S
N1038 C1039 1.346 . S
C1039 N1038 1.346 . S
C1039 C1040 1.396 . S
C1039 C1049 1.510 . S
C1040 C1036 1.401 . S
C1040 C1039 1.396 . S
C1041 C1036 1.499 . S
C1041 H1042 0.959 . S
C1041 H1043 0.960 . S
C1041 H1044 0.961 . S
H1042 C1041 0.959 . S
H1043 C1041 0.960 . S
H1044 C1041 0.961 . S
O1045 Co1020 1.967 . S
O1045 C1053 1.258 . S
O1046 Co1021 1.941 . S
O1046 C1053 1.266 . S
H1047 C1049 0.959 . S
H1048 C1049 0.961 . S
C1049 C1039 1.510 . S
C1049 H1047 0.959 . S
C1049 H1048 0.961 . S
C1049 H1050 0.960 . S
H1050 C1049 0.960 . S
H1051 N1031 0.862 . S
O1052 Co1020 1.920 . S
O1052 C1025 1.289 . S
C1053 O1045 1.258 . S
C1053 O1046 1.266 . S
Co1054 O1057 1.970 . S
Co1054 N1071 1.989 . S
Co1054 O1079 1.967 . S
Co1054 O1086 1.920 . S
Co1055 O1058 1.966 . S
Co1055 N1064 2.022 . S
Co1055 N1072 1.993 . S
Co1055 O1080 1.941 . S
C1056 O1057 1.258 . S
C1056 O1058 1.263 . S
O1057 Co1054 1.970 . S
O1057 C1056 1.258 . S
O1058 Co1055 1.966 . S
O1058 C1056 1.263 . S
C1059 O1060 1.235 . S
C1059 O1086 1.289 . S
O1060 C1059 1.235 . S
C1061 C1063 1.400 . S
C1061 N1064 1.351 . S
C1061 C1066 1.501 . S
C1062 C1063 1.387 . S
C1062 N1065 1.341 . S
C1063 C1061 1.400 . S
C1063 C1062 1.387 . S
N1064 Co1055 2.022 . S
N1064 C1061 1.351 . S
N1064 N1065 1.365 . S
N1065 C1062 1.341 . S
N1065 N1064 1.365 . S
N1065 H1085 0.862 . S
C1066 C1061 1.501 . S
C1066 H1067 0.961 . S
C1066 H1068 0.961 . S
C1066 H1069 0.960 . S
H1067 C1066 0.961 . S
H1068 C1066 0.961 . S
H1069 C1066 0.960 . S
C1070 N1071 1.342 . S
C1070 C1074 1.401 . S
C1070 C1075 1.499 . S
N1071 Co1054 1.989 . S
N1071 C1070 1.342 . S
N1071 N1072 1.388 . S
N1072 Co1055 1.993 . S
N1072 N1071 1.388 . S
N1072 C1073 1.346 . S
C1073 N1072 1.346 . S
C1073 C1074 1.396 . S
C1073 C1083 1.510 . S
C1074 C1070 1.401 . S
C1074 C1073 1.396 . S
C1075 C1070 1.499 . S
C1075 H1076 0.959 . S
C1075 H1077 0.960 . S
C1075 H1078 0.961 . S
H1076 C1075 0.959 . S
H1077 C1075 0.960 . S
H1078 C1075 0.961 . S
O1079 Co1054 1.967 . S
O1079 C1087 1.258 . S
O1080 Co1055 1.941 . S
O1080 C1087 1.266 . S
H1081 C1083 0.959 . S
H1082 C1083 0.961 . S
C1083 C1073 1.510 . S
C1083 H1081 0.959 . S
C1083 H1082 0.961 . S
C1083 H1084 0.960 . S
H1084 C1083 0.960 . S
H1085 N1065 0.862 . S
O1086 Co1054 1.920 . S
O1086 C1059 1.289 . S
C1087 O1079 1.258 . S
C1087 O1080 1.266 . S
C145 C9 1.228 1_545 S
C43 C179 1.228 . S
C77 C213 1.228 1_545 S
C111 C247 1.228 1_556 S
C281 C417 1.228 1_545 S
C451 C315 1.228 . S
C349 C485 1.228 1_565 S
C519 C383 1.228 1_556 S
C553 C689 1.228 . S
C587 C723 1.228 1_556 S
C757 C621 1.228 . S
C791 C655 1.228 . S
C825 C961 1.228 . S
C859 C995 1.228 1_554 S
C1029 C893 1.228 . S
C927 C1063 1.228 . S
C33 C645 1.311 1_455 S
C67 C679 1.314 1_655 S
C101 C577 1.312 . S
C135 C611 1.314 . S
C169 C781 1.311 1_455 S
C815 C203 1.314 . S
C237 C713 1.312 . S
C271 C747 1.314 1_655 S
C917 C305 1.311 1_455 S
C339 C951 1.314 1_455 S
C849 C373 1.312 . S
C407 C883 1.314 . S
C441 C1053 1.311 1_655 S
C1087 C475 1.314 . S
C509 C985 1.312 . S
C543 C1019 1.314 1_455 S
C20 C478 1.511 . S
C1056 C54 1.508 . S
C410 C88 1.509 . S
C988 C122 1.508 . S
C156 C342 1.511 . S
C190 C920 1.508 . S
C224 C274 1.509 . S
C852 C258 1.508 . S
C206 C292 1.511 . S
C784 C326 1.508 . S
C360 C138 1.509 . S
C394 C716 1.508 . S
C428 C70 1.511 . S
C648 C462 1.508 . S
C496 C2 1.509 . S
C580 C530 1.508 . S
C1022 C564 1.508 . S
C598 C512 1.508 . S
C954 C632 1.510 . S
C444 C666 1.508 . S
C700 C886 1.508 . S
C376 C734 1.508 . S
C818 C768 1.510 . S
C802 C308 1.508 . S
C836 C750 1.508 . S
C240 C870 1.508 . S
C904 C682 1.510 . S
C172 C938 1.508 . S
C972 C614 1.508 . S
C1006 C104 1.508 . S
C546 C1040 1.510 . S
C36 C1074 1.508 . S
C243 C5 2.201 . S
C141 C39 2.201 . S
C175 C73 2.201 . S
C107 C209 2.201 . S
C515 C277 2.201 . S
C311 C413 2.201 . S
C447 C345 2.201 . S
C481 C379 2.201 . S
C787 C549 2.201 . S
C583 C685 2.201 . S
C719 C617 2.201 . S
C753 C651 2.201 . S
C821 C1059 2.201 . S
C957 C855 2.201 . S
C889 C991 2.201 . S
C1025 C923 2.201 . S
