# Generated by pormake.
# Topology unc, (4)-cn, num edge types: 1
# Building blocks:
#     Node 0, Type 0, BuildingBlock: ICAMEG_clean_sbu_1, # of connection points: 4
#     Node 1, Type 0, BuildingBlock: ICAMEG_clean_sbu_1, # of connection points: 4
#     Node 2, Type 0, BuildingBlock: ICAMEG_clean_sbu_1, # of connection points: 4
#     Node 3, Type 0, BuildingBlock: ICAMEG_clean_sbu_1, # of connection points: 4
#     Edge 4, Type (0, 0), BuildingBlock: UVAHIK_clean_linker_0, # of connection points: 2
#     Edge 5, Type (0, 0), BuildingBlock: UVAHIK_clean_linker_0, # of connection points: 2
#     Edge 6, Type (0, 0), BuildingBlock: UVAHIK_clean_linker_0, # of connection points: 2
#     Edge 7, Type (0, 0), BuildingBlock: UVAHIK_clean_linker_0, # of connection points: 2
#     Edge 8, Type (0, 0), BuildingBlock: UVAHIK_clean_linker_0, # of connection points: 2
#     Edge 9, Type (0, 0), BuildingBlock: UVAHIK_clean_linker_0, # of connection points: 2
#     Edge 10, Type (0, 0), BuildingBlock: UVAHIK_clean_linker_0, # of connection points: 2
#     Edge 11, Type (0, 0), BuildingBlock: UVAHIK_clean_linker_0, # of connection points: 2
# Relax obj value: 0.022
# Max RMSD: 0.082
# Mean RMSD: 0.082
data_MOF--net-unc--node1-ICAMEG_clean_sbu_1--edge1-UVAHIK_clean_linker_0
_symmetry_space_group_name_H-M    P1
_symmetry_Int_Tables_number       1
_symmetry_cell_setting            triclinic
loop_
_symmetry_equiv_pos_as_xyz
'x, y, z'
_cell_length_a     41.601452
_cell_length_b     41.533973
_cell_length_c     28.515846
_cell_angle_alpha  89.919169
_cell_angle_beta   89.940067
_cell_angle_gamma 90.176333
loop_
_atom_site_label
_atom_site_type_symbol
_atom_site_fract_x
_atom_site_fract_y
_atom_site_fract_z
_atom_type_partial_charge
Co0 Co 0.05144 0.66279 0.98823 0.0
Co1 Co 0.97117 0.667 0.01456 0.0
O2 O 0.01235 0.68726 1.00018 0.0
C3 C 0.07288 0.70988 0.06049 0.0
O4 O 0.04964 0.69987 0.08814 0.0
C5 C 0.929 0.69952 0.94555 0.0
O6 O 0.92136 0.67081 0.92975 0.0
O7 O 0.97435 0.64034 0.95656 0.0
O8 O 0.02689 0.62845 0.95443 0.0
H9 H 0.89417 0.57419 0.03025 0.0
H10 H 0.04707 0.73144 0.96032 0.0
O11 O 0.07701 0.69708 0.02042 0.0
H12 H 0.07193 0.67271 0.81461 0.0
H13 H 0.16845 0.65069 0.94658 0.0
H14 H 0.06926 0.59385 0.99363 0.0
H15 H 0.06646 0.64368 0.88966 0.0
H16 H 0.11822 0.68074 0.95987 0.0
O17 O 0.94943 0.70243 0.9786 0.0
H18 H 0.94641 0.60008 0.01361 0.0
H19 H 0.90699 0.69185 0.04444 0.0
H20 H 0.1189 0.56282 0.98034 0.0
H21 H 0.0527 0.76151 0.8861 0.0
H22 H 0.16896 0.59128 0.95663 0.0
H23 H 0.06516 0.7321 0.81254 0.0
O24 O 0.04597 0.63892 0.04847 0.0
H25 H 0.98003 0.76949 0.1072 0.0
H26 H 0.95606 0.65328 0.11513 0.0
H27 H 0.95451 0.68567 0.18744 0.0
H28 H 0.96646 0.74426 0.18375 0.0
H29 H 0.98166 0.73611 0.03579 0.0
H30 H 0.85428 0.66698 0.06127 0.0
H31 H 0.84765 0.60772 0.05426 0.0
O32 O 0.99245 0.63192 0.05138 0.0
C33 C 0.99805 0.6244 0.94034 0.0
C34 C 0.89677 0.60002 0.0335 0.0
C35 C 0.87438 0.6521 0.0509 0.0
N36 N 0.92977 0.6474 0.02823 0.0
C37 C 0.92629 0.61481 0.02417 0.0
C38 C 0.90427 0.66605 0.04131 0.0
C39 C 0.87068 0.61886 0.04695 0.0
C40 C 0.05264 0.71848 0.9285 0.0
N41 N 0.05646 0.68582 0.92937 0.0
C42 C 0.05574 0.73564 0.88656 0.0
C43 C 0.0627 0.71912 0.84529 0.0
C44 C 0.06648 0.6858 0.84642 0.0
C45 C 0.06322 0.66946 0.88901 0.0
C46 C 0.14678 0.63801 0.95682 0.0
C47 C 0.0909 0.60637 0.98305 0.0
C48 C 0.11828 0.65491 0.9645 0.0
N49 N 0.09078 0.63902 0.97716 0.0
C50 C 0.11896 0.58869 0.9757 0.0
C51 C 0.14704 0.60468 0.96244 0.0
C52 C 0.02085 0.62567 0.06571 0.0
C53 C 0.97468 0.74401 0.10924 0.0
C54 C 0.96144 0.67871 0.11323 0.0
C55 C 0.96043 0.69696 0.15429 0.0
C56 C 0.96711 0.72983 0.15219 0.0
N57 N 0.96879 0.6928 0.07119 0.0
C58 C 0.97544 0.725 0.06889 0.0
Co59 Co 0.35247 0.96952 0.2726 0.0
Co60 Co 0.35392 0.04894 0.2403 0.0
O61 O 0.3306 0.00945 0.25589 0.0
C62 C 0.30671 0.94775 0.19908 0.0
O63 O 0.31859 0.96979 0.17084 0.0
C64 C 0.3058 0.07024 0.31057 0.0
O65 O 0.31426 0.0458 0.33701 0.0
O66 O 0.37816 0.0467 0.30049 0.0
O67 O 0.3872 0.99362 0.30629 0.0
H68 H 0.45194 0.11915 0.22511 0.0
H69 H 0.28341 0.97746 0.29555 0.0
O70 O 0.31788 0.9444 0.24032 0.0
H71 H 0.33704 0.9582 0.4471 0.0
H72 H 0.35688 0.85387 0.3254 0.0
H73 H 0.42027 0.94777 0.27288 0.0
H74 H 0.36826 0.9588 0.37358 0.0
H75 H 0.33012 0.90505 0.30578 0.0
O76 O 0.31955 0.07498 0.27126 0.0
H77 H 0.42228 0.06915 0.24331 0.0
H78 H 0.33425 0.11383 0.20588 0.0
H79 H 0.44803 0.89712 0.29248 0.0
H80 H 0.2512 0.9767 0.3682 0.0
H81 H 0.41627 0.84971 0.31897 0.0
H82 H 0.27805 0.96712 0.4447 0.0
O83 O 0.3782 0.97119 0.21352 0.0
H84 H 0.25474 0.04309 0.14024 0.0
H85 H 0.37217 0.05962 0.14011 0.0
H86 H 0.34261 0.06065 0.06523 0.0
H87 H 0.28345 0.05241 0.06499 0.0
H88 H 0.28529 0.04197 0.21431 0.0
H89 H 0.36292 0.1644 0.18764 0.0
H90 H 0.42221 0.16723 0.19705 0.0
O91 O 0.38862 0.02408 0.20808 0.0
C92 C 0.39255 0.02266 0.31876 0.0
C93 C 0.42612 0.11819 0.22074 0.0
C94 C 0.37614 0.1436 0.19977 0.0
N95 N 0.37661 0.08851 0.22535 0.0
C96 C 0.4092 0.08992 0.23088 0.0
C97 C 0.36003 0.11492 0.21026 0.0
C98 C 0.40942 0.14517 0.20504 0.0
C99 C 0.29522 0.97297 0.32865 0.0
N100 N 0.32767 0.96811 0.33027 0.0
C101 C 0.27688 0.9727 0.36969 0.0
C102 C 0.29196 0.96737 0.41261 0.0
C103 C 0.32506 0.9624 0.41399 0.0
C104 C 0.34264 0.96288 0.37224 0.0
C105 C 0.37098 0.87437 0.31398 0.0
C106 C 0.40631 0.9273 0.28463 0.0
C107 C 0.35596 0.9034 0.30273 0.0
N108 N 0.37365 0.92944 0.28854 0.0
C109 C 0.42215 0.89866 0.29557 0.0
C110 C 0.40431 0.87206 0.31038 0.0
C111 C 0.3935 0.99495 0.1958 0.0
C112 C 0.2805 0.0468 0.1399 0.0
C113 C 0.34645 0.0559 0.14031 0.0
C114 C 0.32983 0.05659 0.09779 0.0
C115 C 0.29663 0.05198 0.09769 0.0
N116 N 0.33045 0.05086 0.18158 0.0
C117 C 0.29792 0.0463 0.18175 0.0
Co118 Co 0.97237 0.35086 0.49374 0.0
Co119 Co 0.05291 0.35687 0.51825 0.0
O120 O 0.01392 0.3315 0.50811 0.0
C121 C 0.93079 0.31902 0.56457 0.0
O122 O 0.92305 0.34789 0.57943 0.0
C123 C 0.07261 0.30784 0.44834 0.0
O124 O 0.04658 0.31465 0.42433 0.0
O125 O 0.04663 0.3797 0.45747 0.0
O126 O 0.99303 0.38565 0.45519 0.0
H127 H 0.11896 0.45832 0.52131 0.0
H128 H 0.98255 0.28137 0.47522 0.0
O129 O 0.95117 0.3158 0.53147 0.0
H130 H 0.95495 0.32879 0.32189 0.0
H131 H 0.8552 0.34827 0.44899 0.0
H132 H 0.94697 0.4174 0.49265 0.0
H133 H 0.95699 0.3626 0.39279 0.0
H134 H 0.90823 0.32451 0.46584 0.0
O135 O 0.07883 0.32291 0.4861 0.0
H136 H 0.06967 0.42607 0.51014 0.0
H137 H 0.12013 0.34078 0.54599 0.0
H138 H 0.89439 0.44218 0.47596 0.0
H139 H 0.98038 0.2466 0.40528 0.0
H140 H 0.84805 0.40752 0.45395 0.0
H141 H 0.96661 0.27031 0.32788 0.0
O142 O 0.97569 0.37866 0.55059 0.0
H143 H 0.05712 0.25964 0.62312 0.0
H144 H 0.06796 0.37779 0.61598 0.0
H145 H 0.07467 0.34994 0.69172 0.0
H146 H 0.06937 0.29041 0.6956 0.0
H147 H 0.05028 0.28852 0.54815 0.0
H148 H 0.17003 0.37207 0.55718 0.0
H149 H 0.1696 0.43129 0.545 0.0
O150 O 0.02818 0.39115 0.55154 0.0
C151 C 0.02128 0.39232 0.44035 0.0
C152 C 0.11943 0.43254 0.52685 0.0
C153 C 0.1481 0.38412 0.54692 0.0
N154 N 0.09197 0.38162 0.52772 0.0
C155 C 0.09158 0.41417 0.5207 0.0
C156 C 0.11979 0.36652 0.54042 0.0
C157 C 0.14784 0.41736 0.5401 0.0
C158 C 0.97617 0.29181 0.44178 0.0
N159 N 0.96976 0.32397 0.4382 0.0
C160 C 0.97514 0.27202 0.40225 0.0
C161 C 0.96747 0.28535 0.35882 0.0
C162 C 0.96097 0.31817 0.35542 0.0
C163 C 0.96227 0.33722 0.39569 0.0
C164 C 0.87522 0.36363 0.45848 0.0
C165 C 0.92693 0.40217 0.48298 0.0
C166 C 0.90529 0.35032 0.46807 0.0
N167 N 0.93069 0.36958 0.48005 0.0
C168 C 0.89722 0.41633 0.47361 0.0
C169 C 0.87122 0.39687 0.46128 0.0
C170 C 0.99938 0.39521 0.56576 0.0
C171 C 0.05955 0.28558 0.62186 0.0
C172 C 0.06542 0.35192 0.61741 0.0
C173 C 0.06935 0.33626 0.66038 0.0
C174 C 0.06639 0.30286 0.66253 0.0
N175 N 0.05883 0.3348 0.57763 0.0
C176 C 0.05578 0.30206 0.5795 0.0
Co177 Co 0.65992 0.04926 0.77306 0.0
Co178 Co 0.65999 0.96985 0.74021 0.0
O179 O 0.68265 0.00965 0.75654 0.0
C180 C 0.7074 0.07136 0.70156 0.0
O181 O 0.69914 0.0469 0.675 0.0
C182 C 0.70763 0.94804 0.81131 0.0
O183 O 0.69934 0.97234 0.83807 0.0
O184 O 0.63512 0.97147 0.79996 0.0
O185 O 0.6255 0.02438 0.80643 0.0
H186 H 0.5629 0.89867 0.72267 0.0
H187 H 0.72888 0.04218 0.79656 0.0
O188 O 0.69394 0.07551 0.74119 0.0
H189 H 0.67432 0.06053 0.94772 0.0
H190 H 0.65254 0.16448 0.82673 0.0
H191 H 0.59171 0.06959 0.77221 0.0
H192 H 0.6435 0.0598 0.87396 0.0
H193 H 0.68056 0.11397 0.80738 0.0
O194 O 0.69417 0.9439 0.7717 0.0
H195 H 0.59184 0.94887 0.74182 0.0
H196 H 0.6807 0.90537 0.70554 0.0
H197 H 0.56268 0.11954 0.79157 0.0
H198 H 0.76073 0.04311 0.86945 0.0
H199 H 0.59315 0.16745 0.81904 0.0
H200 H 0.73341 0.05222 0.94576 0.0
O201 O 0.63485 0.04739 0.71353 0.0
H202 H 0.76046 0.97683 0.64278 0.0
H203 H 0.64321 0.95934 0.63945 0.0
H204 H 0.67378 0.95891 0.56537 0.0
H205 H 0.73288 0.96763 0.56673 0.0
H206 H 0.72886 0.97745 0.71601 0.0
H207 H 0.65276 0.85461 0.68638 0.0
H208 H 0.59342 0.85108 0.69473 0.0
O209 O 0.62538 0.9944 0.70727 0.0
C210 C 0.62053 0.9952 0.81864 0.0
C211 C 0.58876 0.89993 0.71877 0.0
C212 C 0.6392 0.87519 0.69846 0.0
N213 N 0.63789 0.93011 0.72453 0.0
C214 C 0.60526 0.92832 0.72946 0.0
C215 C 0.65489 0.90397 0.70949 0.0
C216 C 0.6059 0.87323 0.70314 0.0
C217 C 0.71686 0.04643 0.82958 0.0
N218 N 0.68435 0.05093 0.83096 0.0
C219 C 0.73501 0.04682 0.87076 0.0
C220 C 0.71966 0.05188 0.91357 0.0
C221 C 0.6865 0.05651 0.9147 0.0
C222 C 0.66914 0.05594 0.87282 0.0
C223 C 0.63899 0.14376 0.81485 0.0
C224 C 0.60511 0.09029 0.78437 0.0
C225 C 0.65474 0.11512 0.80372 0.0
N226 N 0.63776 0.0888 0.78893 0.0
C227 C 0.58855 0.11853 0.79518 0.0
C228 C 0.60567 0.1454 0.81055 0.0
C229 C 0.62028 0.02351 0.69505 0.0
C230 C 0.73473 0.97294 0.64173 0.0
C231 C 0.66886 0.96337 0.64034 0.0
C232 C 0.68608 0.96297 0.59827 0.0
C233 C 0.71923 0.96783 0.59907 0.0
N234 N 0.68422 0.96842 0.68205 0.0
C235 C 0.71673 0.97315 0.6831 0.0
C236 C 0.05462 0.59286 0.12165 0.0
C237 C 0.02424 0.60198 0.10452 0.0
C238 C 0.05722 0.5709 0.15888 0.0
C239 C 0.01042 0.53808 0.25831 0.0
H240 H 0.07006 0.46657 0.25452 0.0
C241 C 0.99668 0.43016 0.3821 0.0
C242 C 0.02438 0.41644 0.40203 0.0
C243 C 0.99916 0.4534 0.34689 0.0
C244 C 0.05359 0.48667 0.25643 0.0
H245 H 0.97282 0.5944 0.11285 0.0
H246 H 0.97744 0.55656 0.17719 0.0
H247 H 0.07022 0.50637 0.19108 0.0
H248 H 0.07654 0.41649 0.39997 0.0
H249 H 0.0808 0.4574 0.33846 0.0
H250 H 0.99358 0.51854 0.32323 0.0
C251 C 0.99925 0.56665 0.16239 0.0
C252 C 0.05369 0.50946 0.22008 0.0
C253 C 0.99665 0.58832 0.1252 0.0
C254 C 0.05468 0.42645 0.38539 0.0
C255 C 0.05715 0.44982 0.35 0.0
C256 C 0.01038 0.51546 0.29455 0.0
C257 C 0.0295 0.55781 0.17995 0.0
C258 C 0.03164 0.53506 0.2202 0.0
C259 C 0.02938 0.46376 0.33061 0.0
C260 C 0.03149 0.48909 0.29366 0.0
H261 H 0.07639 0.60277 0.10648 0.0
H262 H 0.08087 0.5646 0.17172 0.0
H263 H 0.99361 0.55792 0.25999 0.0
H264 H 0.9729 0.42308 0.39373 0.0
H265 H 0.97724 0.46312 0.33216 0.0
C266 C 0.4248 0.05923 0.37187 0.0
C267 C 0.41705 0.02811 0.35583 0.0
C268 C 0.4482 0.06365 0.40675 0.0
C269 C 0.51734 0.02178 0.46131 0.0
H270 H 0.50255 0.07741 0.56827 0.0
C271 C 0.58212 1.00251 0.63458 0.0
C272 C 0.59682 0.02905 0.65659 0.0
C273 C 0.56158 0.00684 0.59658 0.0
C274 C 0.50719 0.06217 0.53824 0.0
H275 H 0.42788 0.97727 0.36451 0.0
H276 H 0.46788 0.98497 0.42487 0.0
H277 H 0.46401 0.07692 0.50314 0.0
H278 H 0.60015 0.08121 0.65671 0.0
H279 H 0.56345 0.08873 0.59013 0.0
H280 H 0.55976 0.00614 0.49687 0.0
C281 C 0.4564 0.00606 0.41016 0.0
C282 C 0.48518 0.0619 0.50095 0.0
C283 C 0.43316 1.00164 0.37562 0.0
C284 C 0.58944 0.06023 0.64043 0.0
C285 C 0.56841 0.06457 0.60244 0.0
C286 C 0.53909 0.02192 0.49847 0.0
C287 C 0.46444 0.03706 0.42599 0.0
C288 C 0.48957 0.04096 0.46271 0.0
C289 C 0.55478 0.03782 0.57967 0.0
C290 C 0.53381 0.04141 0.53791 0.0
H291 H 0.4129 0.08017 0.35742 0.0
H292 H 0.45393 0.08787 0.41813 0.0
H293 H 0.52192 0.006 0.43185 0.0
H294 H 0.58671 0.97813 0.64623 0.0
H295 H 0.55093 0.9858 0.58032 0.0
C296 C 0.01904 0.58541 0.88101 0.0
C297 C 0.99259 0.60065 0.90218 0.0
C298 C 0.01477 0.56477 0.84305 0.0
C299 C 0.96013 0.51022 0.7845 0.0
H300 H 0.01487 0.52668 0.67685 0.0
C301 C 0.96292 0.42695 0.61947 0.0
C302 C 0.99383 0.42042 0.60181 0.0
C303 C 0.95846 0.45061 0.65399 0.0
C304 C 0.99953 0.52157 0.70668 0.0
H305 H 0.94057 0.60469 0.90108 0.0
H306 H 0.93315 0.56769 0.83478 0.0
H307 H 0.01485 0.56424 0.7423 0.0
H308 H 0.04424 0.43391 0.60687 0.0
H309 H 0.03658 0.47411 0.66688 0.0
H310 H 0.94589 0.4667 0.74965 0.0
C311 C 0.95721 0.5724 0.84759 0.0
C312 C 0.99943 0.54319 0.74404 0.0
C313 C 0.96151 0.59361 0.8854 0.0
C314 C 0.02003 0.43816 0.61936 0.0
C315 C 0.0156 0.46157 0.65367 0.0
C316 C 0.96047 0.48827 0.74713 0.0
C317 C 0.98392 0.55832 0.82555 0.0
C318 C 0.98038 0.53735 0.78382 0.0
C319 C 0.9848 0.46827 0.67137 0.0
C320 C 0.98089 0.49328 0.70835 0.0
H321 H 0.04331 0.58969 0.89321 0.0
H322 H 0.03573 0.55378 0.82723 0.0
H323 H 0.94527 0.50518 0.81486 0.0
H324 H 0.94217 0.41384 0.60669 0.0
H325 H 0.93439 0.45528 0.66669 0.0
C326 C 0.43563 0.01543 0.14063 0.0
C327 C 0.41835 0.98919 0.15928 0.0
C328 C 0.4589 0.01084 0.10617 0.0
C329 C 0.48568 0.95573 0.01333 0.0
H330 H 0.56182 0.00975 0.01853 0.0
C331 C 0.58962 0.95801 0.87283 0.0
C332 C 0.59723 0.98935 0.85732 0.0
C333 C 0.56872 0.9533 0.91097 0.0
C334 C 0.54073 0.99444 0.01664 0.0
H335 H 0.41222 0.93735 0.15586 0.0
H336 H 0.45336 0.92932 0.09529 0.0
H337 H 0.52432 0.00948 0.0841 0.0
H338 H 0.58766 0.04016 0.86904 0.0
H339 H 0.55219 0.03186 0.93536 0.0
H340 H 0.50232 0.9411 0.94519 0.0
C341 C 0.44851 0.9535 0.10751 0.0
C342 C 0.51917 0.99434 0.05411 0.0
C343 C 0.42506 0.9581 0.14231 0.0
C344 C 0.5829 0.01568 0.88018 0.0
C345 C 0.56253 0.01098 0.91838 0.0
C346 C 0.50752 0.95565 0.97576 0.0
C347 C 0.46583 0.97987 0.08928 0.0
C348 C 0.49082 0.97587 0.05231 0.0
C349 C 0.55549 0.97984 0.93459 0.0
C350 C 0.53471 0.97582 0.97654 0.0
H351 H 0.4312 0.03978 0.15247 0.0
H352 H 0.47121 0.0318 0.09226 0.0
H353 H 0.46405 0.94127 0.01079 0.0
H354 H 0.60003 0.93717 0.85588 0.0
H355 H 0.56355 0.92902 0.92274 0.0
C356 C 0.26306 0.90805 0.21687 0.0
C357 C 0.28029 0.9263 0.18361 0.0
C358 C 0.23882 0.88687 0.20279 0.0
C359 C 0.21361 0.83749 0.10386 0.0
H360 H 0.13176 0.83288 0.16881 0.0
C361 C 0.11348 0.75223 0.04095 0.0
C362 C 0.09448 0.73651 0.07481 0.0
C363 C 0.13459 0.77684 0.05378 0.0
C364 C 0.15463 0.83352 0.15068 0.0
H365 H 0.28521 0.9369 0.1095 0.0
H366 H 0.24301 0.89932 0.08476 0.0
H367 H 0.17128 0.87353 0.19154 0.0
H368 H 0.0825 0.73459 0.14871 0.0
H369 H 0.12023 0.77696 0.17154 0.0
H370 H 0.19773 0.79698 0.06404 0.0
C371 C 0.24838 0.90158 0.12177 0.0
C372 C 0.17719 0.85695 0.16356 0.0
C373 C 0.27241 0.92316 0.13593 0.0
C374 C 0.09679 0.74628 0.12182 0.0
C375 C 0.1183 0.77072 0.1348 0.0
C376 C 0.19126 0.81385 0.09135 0.0
C377 C 0.23143 0.88313 0.15509 0.0
C378 C 0.20691 0.85916 0.14028 0.0
C379 C 0.13767 0.78618 0.10094 0.0
C380 C 0.16141 0.81152 0.11452 0.0
H381 H 0.26841 0.91 0.25394 0.0
H382 H 0.22638 0.87278 0.22921 0.0
H383 H 0.23654 0.83828 0.08583 0.0
H384 H 0.11198 0.74562 0.00427 0.0
H385 H 0.14841 0.78864 0.02649 0.0
C386 C 0.27354 0.12035 0.29922 0.0
C387 C 0.27988 0.0924 0.32548 0.0
C388 C 0.24904 0.14134 0.31244 0.0
C389 C 0.18554 0.1736 0.33232 0.0
H390 H 0.17342 0.19351 0.46384 0.0
C391 C 0.08606 0.26075 0.39655 0.0
C392 C 0.09456 0.28188 0.43297 0.0
C393 C 0.10667 0.23568 0.38354 0.0
C394 C 0.17659 0.18838 0.42691 0.0
H395 H 0.26513 0.06446 0.38612 0.0
H396 H 0.22192 0.101 0.40897 0.0
H397 H 0.21331 0.15375 0.44102 0.0
H398 H 0.13163 0.29347 0.48381 0.0
H399 H 0.16765 0.25053 0.46051 0.0
H400 H 0.14978 0.20922 0.31808 0.0
C401 C 0.2363 0.1069 0.37846 0.0
C402 C 0.1992 0.16521 0.41386 0.0
C403 C 0.26101 0.08589 0.36531 0.0
C404 C 0.12419 0.27755 0.45577 0.0
C405 C 0.14479 0.25268 0.44266 0.0
C406 C 0.16304 0.19688 0.34536 0.0
C407 C 0.23001 0.1349 0.35214 0.0
C408 C 0.20431 0.15784 0.36634 0.0
C409 C 0.13628 0.23127 0.40657 0.0
C410 C 0.1586 0.20492 0.39279 0.0
H411 H 0.28768 0.12624 0.26845 0.0
H412 H 0.2454 0.16295 0.29186 0.0
H413 H 0.18842 0.16816 0.29543 0.0
H414 H 0.06331 0.2633 0.3785 0.0
H415 H 0.09919 0.21947 0.35589 0.0
C416 C 0.73813 0.12258 0.71261 0.0
C417 C 0.73263 0.09444 0.6864 0.0
C418 C 0.76204 0.14441 0.69947 0.0
C419 C 0.81236 0.17016 0.59906 0.0
H420 H 0.86022 0.2144 0.69643 0.0
C421 C 0.91447 0.26101 0.55753 0.0
C422 C 0.91269 0.29051 0.58162 0.0
C423 C 0.8951 0.23496 0.57089 0.0
C424 C 0.84697 0.20234 0.66885 0.0
H425 H 0.74813 0.06721 0.6257 0.0
H426 H 0.79042 0.10528 0.60299 0.0
H427 H 0.82178 0.17248 0.71781 0.0
H428 H 0.88989 0.31537 0.63954 0.0
H429 H 0.85637 0.26983 0.66311 0.0
H430 H 0.83772 0.20016 0.55016 0.0
C431 C 0.77582 0.1106 0.63345 0.0
C432 C 0.82485 0.17836 0.68106 0.0
C433 C 0.75166 0.08872 0.64652 0.0
C434 C 0.89186 0.29301 0.62025 0.0
C435 C 0.87274 0.26687 0.63388 0.0
C436 C 0.8347 0.19402 0.58683 0.0
C437 C 0.78138 0.13869 0.65992 0.0
C438 C 0.8068 0.16234 0.6464 0.0
C439 C 0.8738 0.2377 0.60893 0.0
C440 C 0.85187 0.21073 0.62166 0.0
H441 H 0.72381 0.12796 0.74334 0.0
H442 H 0.76504 0.16608 0.72011 0.0
H443 H 0.79869 0.15863 0.57146 0.0
H444 H 0.9302 0.25825 0.52752 0.0
H445 H 0.89668 0.2127 0.55129 0.0
C446 C 0.75157 0.93051 0.86648 0.0
C447 C 0.73281 0.92503 0.82628 0.0
C448 C 0.77559 0.90862 0.87947 0.0
C449 C 0.82477 0.84143 0.83131 0.0
H450 H 0.83626 0.81823 0.96192 0.0
C451 C 0.89033 0.72606 0.89041 0.0
C452 C 0.91096 0.72815 0.92928 0.0
C453 C 0.87145 0.75236 0.87723 0.0
C454 C 0.83362 0.82476 0.92534 0.0
H455 H 0.72435 0.89194 0.76865 0.0
H456 H 0.76533 0.85382 0.79171 0.0
H457 H 0.79771 0.86002 0.94089 0.0
H458 H 0.92831 0.75976 0.98436 0.0
H459 H 0.8952 0.80557 0.96138 0.0
H460 H 0.86002 0.80552 0.81573 0.0
C461 C 0.76223 0.8753 0.81269 0.0
C462 C 0.81156 0.84877 0.91328 0.0
C463 C 0.73846 0.89714 0.79965 0.0
C464 C 0.91273 0.75734 0.95414 0.0
C465 C 0.8936 0.78353 0.94123 0.0
C466 C 0.8466 0.81731 0.84335 0.0
C467 C 0.78127 0.88077 0.85258 0.0
C468 C 0.80649 0.85707 0.86602 0.0
C469 C 0.87255 0.78124 0.90287 0.0
C470 C 0.85098 0.8084 0.89043 0.0
H471 H 0.74792 0.95183 0.88764 0.0
H472 H 0.78998 0.91373 0.91021 0.0
H473 H 0.82208 0.84769 0.79465 0.0
H474 H 0.88838 0.70394 0.87053 0.0
H475 H 0.85526 0.74974 0.84775 0.0
loop_
_geom_bond_atom_site_label_1
_geom_bond_atom_site_label_2
_geom_bond_distance
_geom_bond_site_symmetry_2
_ccdc_geom_bond_type
Co0 O2 2.143 1_556 S
Co0 O8 2.077 . S
Co0 O11 2.089 1_556 S
Co0 O24 2.091 1_556 S
Co0 N41 2.157 . S
Co0 N49 2.214 1_556 S
Co1 O2 2.160 1_655 S
Co1 O7 2.058 1_554 S
Co1 O17 2.057 1_554 S
Co1 O32 2.037 . S
Co1 N36 2.145 . S
Co1 N57 2.257 . S
O2 Co0 2.143 1_554 S
O2 Co1 2.160 1_455 S
C3 O4 1.278 . S
C3 O11 1.224 . S
O4 C3 1.278 . S
C5 O6 1.245 . S
C5 O17 1.232 . S
O6 C5 1.245 . S
O7 Co1 2.058 1_556 S
O7 C33 1.269 . S
O8 Co0 2.077 . S
O8 C33 1.257 1_455 S
H9 C34 0.930 . S
H10 C40 0.930 . S
O11 Co0 2.089 1_554 S
O11 C3 1.224 . S
H12 C44 0.929 . S
H13 C46 0.930 . S
H14 C47 0.930 . S
H15 C45 0.929 . S
H16 C48 0.928 . S
O17 Co1 2.057 1_556 S
O17 C5 1.232 . S
H18 C37 0.929 . S
H19 C38 0.927 1_556 S
H20 C50 0.931 . S
H21 C42 0.929 . S
H22 C51 0.930 . S
H23 C43 0.931 . S
O24 Co0 2.091 1_554 S
O24 C52 1.214 . S
H25 C53 0.929 . S
H26 C54 0.929 . S
H27 C55 0.930 . S
H28 C56 0.929 . S
H29 C58 0.930 . S
H30 C35 0.930 . S
H31 C39 0.930 . S
O32 Co1 2.037 . S
O32 C52 1.234 1_655 S
C33 O7 1.269 . S
C33 O8 1.257 1_655 S
C34 H9 0.930 . S
C34 C37 1.388 . S
C34 C39 1.418 . S
C35 H30 0.930 . S
C35 C38 1.404 . S
C35 C39 1.353 . S
N36 Co1 2.145 . S
N36 C37 1.397 . S
N36 C38 1.334 . S
C37 H18 0.929 . S
C37 C34 1.388 . S
C37 N36 1.397 . S
C38 H19 0.927 1_554 S
C38 C35 1.404 . S
C38 N36 1.334 . S
C39 H31 0.930 . S
C39 C34 1.418 . S
C39 C35 1.353 . S
C40 H10 0.930 . S
C40 N41 1.330 . S
C40 C42 1.446 . S
N41 Co0 2.157 . S
N41 C40 1.330 . S
N41 C45 1.418 . S
C42 H21 0.929 . S
C42 C40 1.446 . S
C42 C43 1.332 . S
C43 H23 0.931 . S
C43 C42 1.332 . S
C43 C44 1.267 . S
C44 H12 0.929 . S
C44 C43 1.267 . S
C44 C45 1.251 . S
C45 H15 0.929 . S
C45 N41 1.418 . S
C45 C44 1.251 . S
C46 H13 0.930 . S
C46 C48 1.406 . S
C46 C51 1.260 1_556 S
C47 H14 0.930 . S
C47 N49 1.325 . S
C47 C50 1.357 . S
C48 H16 0.928 . S
C48 C46 1.406 . S
C48 N49 1.261 1_556 S
N49 Co0 2.214 1_554 S
N49 C47 1.325 . S
N49 C48 1.261 1_554 S
C50 H20 0.931 . S
C50 C47 1.357 . S
C50 C51 1.313 . S
C51 H22 0.930 . S
C51 C46 1.260 1_554 S
C51 C50 1.313 . S
C52 O24 1.214 . S
C52 O32 1.234 1_455 S
C53 H25 0.929 . S
C53 C56 1.391 . S
C53 C58 1.391 . S
C54 H26 0.929 . S
C54 C55 1.390 . S
C54 N57 1.391 . S
C55 H27 0.930 . S
C55 C54 1.390 . S
C55 C56 1.392 . S
C56 H28 0.929 . S
C56 C53 1.391 . S
C56 C55 1.392 . S
N57 Co1 2.257 . S
N57 C54 1.391 . S
N57 C58 1.388 . S
C58 H29 0.930 . S
C58 C53 1.391 . S
C58 N57 1.388 . S
Co59 O61 2.143 1_565 S
Co59 O67 2.074 . S
Co59 O70 2.093 . S
Co59 O83 2.097 . S
Co59 N100 2.151 . S
Co59 N108 2.214 . S
Co60 O61 2.160 . S
Co60 O66 2.058 . S
Co60 O76 2.057 . S
Co60 O91 2.037 . S
Co60 N95 2.145 . S
Co60 N116 2.257 . S
O61 Co59 2.143 1_545 S
O61 Co60 2.160 . S
C62 O63 1.278 . S
C62 O70 1.224 . S
O63 C62 1.278 . S
C64 O65 1.245 . S
C64 O76 1.232 . S
O65 C64 1.245 . S
O66 Co60 2.058 . S
O66 C92 1.269 . S
O67 Co59 2.074 . S
O67 C92 1.257 1_565 S
H68 C93 0.930 . S
H69 C99 0.930 . S
O70 Co59 2.093 . S
O70 C62 1.224 . S
H71 C103 0.929 . S
H72 C105 0.930 . S
H73 C106 0.930 . S
H74 C104 0.929 . S
H75 C107 0.928 . S
O76 Co60 2.057 . S
O76 C64 1.232 . S
H77 C96 0.929 . S
H78 C97 0.929 . S
H79 C109 0.931 . S
H80 C101 0.929 . S
H81 C110 0.930 . S
H82 C102 0.931 . S
O83 Co59 2.097 . S
O83 C111 1.213 . S
H84 C112 0.929 . S
H85 C113 0.929 . S
H86 C114 0.930 . S
H87 C115 0.929 . S
H88 C117 0.930 . S
H89 C94 0.930 . S
H90 C98 0.930 . S
O91 Co60 2.037 . S
O91 C111 1.234 1_545 S
C92 O66 1.269 . S
C92 O67 1.257 1_545 S
C93 H68 0.930 . S
C93 C96 1.388 . S
C93 C98 1.418 . S
C94 H89 0.930 . S
C94 C97 1.404 . S
C94 C98 1.353 . S
N95 Co60 2.145 . S
N95 C96 1.397 . S
N95 C97 1.334 . S
C96 H77 0.929 . S
C96 C93 1.388 . S
C96 N95 1.397 . S
C97 H78 0.929 . S
C97 C94 1.404 . S
C97 N95 1.334 . S
C98 H90 0.930 . S
C98 C93 1.418 . S
C98 C94 1.353 . S
C99 H69 0.930 . S
C99 N100 1.330 . S
C99 C101 1.446 . S
N100 Co59 2.151 . S
N100 C99 1.330 . S
N100 C104 1.418 . S
C101 H80 0.929 . S
C101 C99 1.446 . S
C101 C102 1.332 . S
C102 H82 0.931 . S
C102 C101 1.332 . S
C102 C103 1.267 . S
C103 H71 0.929 . S
C103 C102 1.267 . S
C103 C104 1.251 . S
C104 H74 0.929 . S
C104 N100 1.418 . S
C104 C103 1.251 . S
C105 H72 0.930 . S
C105 C107 1.406 . S
C105 C110 1.261 . S
C106 H73 0.930 . S
C106 N108 1.325 . S
C106 C109 1.357 . S
C107 H75 0.928 . S
C107 C105 1.406 . S
C107 N108 1.261 . S
N108 Co59 2.214 . S
N108 C106 1.325 . S
N108 C107 1.261 . S
C109 H79 0.931 . S
C109 C106 1.357 . S
C109 C110 1.312 . S
C110 H81 0.930 . S
C110 C105 1.261 . S
C110 C109 1.312 . S
C111 O83 1.213 . S
C111 O91 1.234 1_565 S
C112 H84 0.929 . S
C112 C115 1.391 . S
C112 C117 1.391 . S
C113 H85 0.929 . S
C113 C114 1.390 . S
C113 N116 1.391 . S
C114 H86 0.930 . S
C114 C113 1.390 . S
C114 C115 1.392 . S
C115 H87 0.929 . S
C115 C112 1.391 . S
C115 C114 1.392 . S
N116 Co60 2.257 . S
N116 C113 1.391 . S
N116 C117 1.388 . S
C117 H88 0.930 . S
C117 C112 1.391 . S
C117 N116 1.388 . S
Co118 O120 2.143 1_655 S
Co118 O126 2.074 . S
Co118 O129 2.093 . S
Co118 O142 2.097 . S
Co118 N159 2.151 . S
Co118 N167 2.214 . S
Co119 O120 2.160 . S
Co119 O125 2.058 . S
Co119 O135 2.057 . S
Co119 O150 2.037 . S
Co119 N154 2.145 . S
Co119 N175 2.257 . S
O120 Co118 2.143 1_455 S
O120 Co119 2.160 . S
C121 O122 1.278 . S
C121 O129 1.224 . S
O122 C121 1.278 . S
C123 O124 1.245 . S
C123 O135 1.232 . S
O124 C123 1.245 . S
O125 Co119 2.058 . S
O125 C151 1.269 . S
O126 Co118 2.074 . S
O126 C151 1.257 1_655 S
H127 C152 0.930 . S
H128 C158 0.930 . S
O129 Co118 2.093 . S
O129 C121 1.224 . S
H130 C162 0.929 . S
H131 C164 0.930 . S
H132 C165 0.930 . S
H133 C163 0.929 . S
H134 C166 0.928 . S
O135 Co119 2.057 . S
O135 C123 1.232 . S
H136 C155 0.929 . S
H137 C156 0.929 . S
H138 C168 0.931 . S
H139 C160 0.929 . S
H140 C169 0.930 . S
H141 C161 0.931 . S
O142 Co118 2.097 . S
O142 C170 1.244 . S
H143 C171 0.929 . S
H144 C172 0.929 . S
H145 C173 0.930 . S
H146 C174 0.929 . S
H147 C176 0.930 . S
H148 C153 0.930 . S
H149 C157 0.930 . S
O150 Co119 2.037 . S
O150 C170 1.202 1_455 S
C151 O125 1.269 . S
C151 O126 1.257 1_455 S
C152 H127 0.930 . S
C152 C155 1.388 . S
C152 C157 1.418 . S
C153 H148 0.930 . S
C153 C156 1.404 . S
C153 C157 1.353 . S
N154 Co119 2.145 . S
N154 C155 1.397 . S
N154 C156 1.334 . S
C155 H136 0.929 . S
C155 C152 1.388 . S
C155 N154 1.397 . S
C156 H137 0.929 . S
C156 C153 1.404 . S
C156 N154 1.334 . S
C157 H149 0.930 . S
C157 C152 1.418 . S
C157 C153 1.353 . S
C158 H128 0.930 . S
C158 N159 1.330 . S
C158 C160 1.446 . S
N159 Co118 2.151 . S
N159 C158 1.330 . S
N159 C163 1.418 . S
C160 H139 0.929 . S
C160 C158 1.446 . S
C160 C161 1.332 . S
C161 H141 0.931 . S
C161 C160 1.332 . S
C161 C162 1.267 . S
C162 H130 0.929 . S
C162 C161 1.267 . S
C162 C163 1.251 . S
C163 H133 0.929 . S
C163 N159 1.418 . S
C163 C162 1.251 . S
C164 H131 0.930 . S
C164 C166 1.406 . S
C164 C169 1.261 . S
C165 H132 0.930 . S
C165 N167 1.325 . S
C165 C168 1.357 . S
C166 H134 0.928 . S
C166 C164 1.406 . S
C166 N167 1.261 . S
N167 Co118 2.214 . S
N167 C165 1.325 . S
N167 C166 1.261 . S
C168 H138 0.931 . S
C168 C165 1.357 . S
C168 C169 1.312 . S
C169 H140 0.930 . S
C169 C164 1.261 . S
C169 C168 1.312 . S
C170 O142 1.244 . S
C170 O150 1.202 1_655 S
C171 H143 0.929 . S
C171 C174 1.391 . S
C171 C176 1.391 . S
C172 H144 0.929 . S
C172 C173 1.390 . S
C172 N175 1.391 . S
C173 H145 0.930 . S
C173 C172 1.390 . S
C173 C174 1.392 . S
C174 H146 0.929 . S
C174 C171 1.391 . S
C174 C173 1.392 . S
N175 Co119 2.257 . S
N175 C172 1.391 . S
N175 C176 1.388 . S
C176 H147 0.930 . S
C176 C171 1.391 . S
C176 N175 1.388 . S
Co177 O179 2.143 . S
Co177 O185 2.074 . S
Co177 O188 2.093 . S
Co177 O201 2.097 . S
Co177 N218 2.151 . S
Co177 N226 2.214 . S
Co178 O179 2.160 1_565 S
Co178 O184 2.058 . S
Co178 O194 2.057 . S
Co178 O209 2.037 . S
Co178 N213 2.145 . S
Co178 N234 2.257 . S
O179 Co177 2.143 . S
O179 Co178 2.160 1_545 S
C180 O181 1.278 . S
C180 O188 1.224 . S
O181 C180 1.278 . S
C182 O183 1.245 . S
C182 O194 1.232 . S
O183 C182 1.245 . S
O184 Co178 2.058 . S
O184 C210 1.288 . S
O185 Co177 2.074 . S
O185 C210 1.239 1_545 S
H186 C211 0.930 . S
H187 C217 0.930 . S
O188 Co177 2.093 . S
O188 C180 1.224 . S
H189 C221 0.929 . S
H190 C223 0.930 . S
H191 C224 0.930 . S
H192 C222 0.929 . S
H193 C225 0.928 . S
O194 Co178 2.057 . S
O194 C182 1.232 . S
H195 C214 0.929 . S
H196 C215 0.929 . S
H197 C227 0.931 . S
H198 C219 0.929 . S
H199 C228 0.930 . S
H200 C220 0.931 . S
O201 Co177 2.097 . S
O201 C229 1.214 . S
H202 C230 0.929 . S
H203 C231 0.929 . S
H204 C232 0.930 . S
H205 C233 0.929 . S
H206 C235 0.930 . S
H207 C212 0.930 . S
H208 C216 0.930 . S
O209 Co178 2.037 . S
O209 C229 1.234 1_565 S
C210 O184 1.288 . S
C210 O185 1.239 1_565 S
C211 H186 0.930 . S
C211 C214 1.388 . S
C211 C216 1.418 . S
C212 H207 0.930 . S
C212 C215 1.404 . S
C212 C216 1.353 . S
N213 Co178 2.145 . S
N213 C214 1.397 . S
N213 C215 1.334 . S
C214 H195 0.929 . S
C214 C211 1.388 . S
C214 N213 1.397 . S
C215 H196 0.929 . S
C215 C212 1.404 . S
C215 N213 1.334 . S
C216 H208 0.930 . S
C216 C211 1.418 . S
C216 C212 1.353 . S
C217 H187 0.930 . S
C217 N218 1.330 . S
C217 C219 1.446 . S
N218 Co177 2.151 . S
N218 C217 1.330 . S
N218 C222 1.418 . S
C219 H198 0.929 . S
C219 C217 1.446 . S
C219 C220 1.332 . S
C220 H200 0.931 . S
C220 C219 1.332 . S
C220 C221 1.267 . S
C221 H189 0.929 . S
C221 C220 1.267 . S
C221 C222 1.251 . S
C222 H192 0.929 . S
C222 N218 1.418 . S
C222 C221 1.251 . S
C223 H190 0.930 . S
C223 C225 1.406 . S
C223 C228 1.261 . S
C224 H191 0.930 . S
C224 N226 1.325 . S
C224 C227 1.357 . S
C225 H193 0.928 . S
C225 C223 1.406 . S
C225 N226 1.261 . S
N226 Co177 2.214 . S
N226 C224 1.325 . S
N226 C225 1.261 . S
C227 H197 0.931 . S
C227 C224 1.357 . S
C227 C228 1.312 . S
C228 H199 0.930 . S
C228 C223 1.261 . S
C228 C227 1.312 . S
C229 O201 1.214 . S
C229 O209 1.234 1_545 S
C230 H202 0.929 . S
C230 C233 1.391 . S
C230 C235 1.391 . S
C231 H203 0.929 . S
C231 C232 1.390 . S
C231 N234 1.391 . S
C232 H204 0.930 . S
C232 C231 1.390 . S
C232 C233 1.392 . S
C233 H205 0.929 . S
C233 C230 1.391 . S
C233 C232 1.392 . S
N234 Co178 2.257 . S
N234 C231 1.391 . S
N234 C235 1.388 . S
C235 H206 0.930 . S
C235 C230 1.391 . S
C235 N234 1.388 . S
C236 C237 1.349 . S
C236 C238 1.327 . S
C236 H261 0.950 . S
C237 C236 1.349 . S
C237 C253 1.349 1_455 S
C238 C236 1.327 . S
C238 C257 1.429 . S
C238 H262 0.950 . S
C239 C256 1.574 . S
C239 C258 1.368 1_655 S
C239 H263 0.949 . S
H240 C244 0.949 . S
C241 C242 1.349 1_655 S
C241 C243 1.327 . S
C241 H264 0.950 . S
C242 C241 1.349 1_455 S
C242 C254 1.349 . S
C243 C241 1.327 . S
C243 C259 1.429 1_655 S
C243 H265 0.950 . S
C244 H240 0.949 . S
C244 C252 1.574 . S
C244 C260 1.368 . S
H245 C253 0.950 . S
H246 C251 0.950 . S
H247 C252 0.949 . S
H248 C254 0.950 . S
H249 C255 0.950 . S
H250 C256 0.949 . S
C251 H246 0.950 . S
C251 C253 1.327 . S
C251 C257 1.429 1_655 S
C252 C244 1.574 . S
C252 H247 0.949 . S
C252 C258 1.368 . S
C253 C237 1.349 1_655 S
C253 H245 0.950 . S
C253 C251 1.327 . S
C254 C242 1.349 . S
C254 H248 0.950 . S
C254 C255 1.327 . S
C255 H249 0.950 . S
C255 C254 1.327 . S
C255 C259 1.429 . S
C256 C239 1.574 . S
C256 H250 0.949 . S
C256 C260 1.368 1_655 S
C257 C238 1.429 . S
C257 C251 1.429 1_455 S
C257 C258 1.523 . S
C258 C239 1.368 1_455 S
C258 C252 1.368 . S
C258 C257 1.523 . S
C259 C243 1.429 1_455 S
C259 C255 1.429 . S
C259 C260 1.523 . S
C260 C244 1.368 . S
C260 C256 1.368 1_455 S
C260 C259 1.523 . S
H261 C236 0.950 . S
H262 C238 0.950 . S
H263 C239 0.949 . S
H264 C241 0.950 . S
H265 C243 0.950 . S
C266 C267 1.349 . S
C266 C268 1.327 . S
C266 H291 0.950 . S
C267 C266 1.349 . S
C267 C283 1.349 1_545 S
C268 C266 1.327 . S
C268 C287 1.429 . S
C268 H292 0.950 . S
C269 C286 1.574 . S
C269 C288 1.368 1_565 S
C269 H293 0.949 . S
H270 C274 0.949 . S
C271 C272 1.349 1_565 S
C271 C273 1.327 . S
C271 H294 0.950 . S
C272 C271 1.349 1_545 S
C272 C284 1.349 . S
C273 C271 1.327 . S
C273 C289 1.429 1_565 S
C273 H295 0.950 . S
C274 H270 0.949 . S
C274 C282 1.574 . S
C274 C290 1.368 . S
H275 C283 0.950 . S
H276 C281 0.950 . S
H277 C282 0.949 . S
H278 C284 0.950 . S
H279 C285 0.950 . S
H280 C286 0.949 . S
C281 H276 0.950 . S
C281 C283 1.327 . S
C281 C287 1.429 1_565 S
C282 C274 1.574 . S
C282 H277 0.949 . S
C282 C288 1.368 . S
C283 C267 1.349 1_565 S
C283 H275 0.950 . S
C283 C281 1.327 . S
C284 C272 1.349 . S
C284 H278 0.950 . S
C284 C285 1.327 . S
C285 H279 0.950 . S
C285 C284 1.327 . S
C285 C289 1.429 . S
C286 C269 1.574 . S
C286 H280 0.949 . S
C286 C290 1.368 1_565 S
C287 C268 1.429 . S
C287 C281 1.429 1_545 S
C287 C288 1.523 . S
C288 C269 1.368 1_545 S
C288 C282 1.368 . S
C288 C287 1.523 . S
C289 C273 1.429 1_545 S
C289 C285 1.429 . S
C289 C290 1.523 . S
C290 C274 1.368 . S
C290 C286 1.368 1_545 S
C290 C289 1.523 . S
H291 C266 0.950 . S
H292 C268 0.950 . S
H293 C269 0.949 . S
H294 C271 0.950 . S
H295 C273 0.950 . S
C296 C297 1.349 1_455 S
C296 C298 1.327 . S
C296 H321 0.950 . S
C297 C296 1.349 1_655 S
C297 C313 1.349 . S
C298 C296 1.327 . S
C298 C317 1.429 1_455 S
C298 H322 0.950 . S
C299 C316 1.574 . S
C299 C318 1.368 . S
C299 H323 0.949 . S
H300 C304 0.949 . S
C301 C302 1.349 . S
C301 C303 1.327 . S
C301 H324 0.950 . S
C302 C301 1.349 . S
C302 C314 1.349 1_655 S
C303 C301 1.327 . S
C303 C319 1.429 . S
C303 H325 0.950 . S
C304 H300 0.949 . S
C304 C312 1.574 . S
C304 C320 1.368 1_455 S
H305 C313 0.950 . S
H306 C311 0.950 . S
H307 C312 0.949 . S
H308 C314 0.950 . S
H309 C315 0.950 . S
H310 C316 0.949 . S
C311 H306 0.950 . S
C311 C313 1.327 . S
C311 C317 1.429 . S
C312 C304 1.574 . S
C312 H307 0.949 . S
C312 C318 1.368 1_455 S
C313 C297 1.349 . S
C313 H305 0.950 . S
C313 C311 1.327 . S
C314 C302 1.349 1_455 S
C314 H308 0.950 . S
C314 C315 1.327 . S
C315 H309 0.950 . S
C315 C314 1.327 . S
C315 C319 1.429 1_455 S
C316 C299 1.574 . S
C316 H310 0.949 . S
C316 C320 1.368 . S
C317 C298 1.429 1_655 S
C317 C311 1.429 . S
C317 C318 1.523 . S
C318 C299 1.368 . S
C318 C312 1.368 1_655 S
C318 C317 1.523 . S
C319 C303 1.429 . S
C319 C315 1.429 1_655 S
C319 C320 1.523 . S
C320 C304 1.368 1_655 S
C320 C316 1.368 . S
C320 C319 1.523 . S
H321 C296 0.950 . S
H322 C298 0.950 . S
H323 C299 0.949 . S
H324 C301 0.950 . S
H325 C303 0.950 . S
C326 C327 1.332 1_545 S
C326 C328 1.327 . S
C326 H351 0.950 . S
C327 C326 1.332 1_565 S
C327 C343 1.366 . S
C328 C326 1.327 . S
C328 C347 1.411 1_545 S
C328 H352 0.950 . S
C329 C346 1.574 1_554 S
C329 C348 1.389 . S
C329 H353 0.949 . S
H330 C334 0.950 . S
C331 C332 1.372 . S
C331 C333 1.327 . S
C331 H354 0.950 . S
C332 C331 1.372 . S
C332 C344 1.326 1_565 S
C333 C331 1.327 . S
C333 C349 1.450 . S
C333 H355 0.950 . S
C334 H330 0.950 . S
C334 C342 1.562 1_556 S
C334 C350 1.357 1_545 S
H335 C343 0.950 . S
H336 C341 0.950 . S
H337 C342 0.949 . S
H338 C344 0.950 . S
H339 C345 0.950 . S
H340 C346 0.949 . S
C341 H336 0.950 . S
C341 C343 1.327 . S
C341 C347 1.446 . S
C342 C334 1.562 1_554 S
C342 H337 0.949 . S
C342 C348 1.348 1_545 S
C343 C327 1.366 . S
C343 H335 0.950 . S
C343 C341 1.327 . S
C344 C332 1.326 1_545 S
C344 H338 0.950 . S
C344 C345 1.327 . S
C345 H339 0.950 . S
C345 C344 1.327 . S
C345 C349 1.408 1_545 S
C346 C329 1.574 1_556 S
C346 H340 0.949 . S
C346 C350 1.390 . S
C347 C328 1.411 1_565 S
C347 C341 1.446 . S
C347 C348 1.523 . S
C348 C329 1.389 . S
C348 C342 1.348 1_565 S
C348 C347 1.523 . S
C349 C333 1.450 . S
C349 C345 1.408 1_565 S
C349 C350 1.523 . S
C350 C334 1.357 1_565 S
C350 C346 1.390 . S
C350 C349 1.523 . S
H351 C326 0.950 . S
H352 C328 0.950 . S
H353 C329 0.949 . S
H354 C331 0.950 . S
H355 C333 0.950 . S
C356 C357 1.349 . S
C356 C358 1.327 . S
C356 H381 0.950 . S
C357 C356 1.349 . S
C357 C373 1.349 . S
C358 C356 1.327 . S
C358 C377 1.429 . S
C358 H382 0.950 . S
C359 C376 1.574 . S
C359 C378 1.368 . S
C359 H383 0.949 . S
H360 C364 0.949 . S
C361 C362 1.349 . S
C361 C363 1.327 . S
C361 H384 0.950 . S
C362 C361 1.349 . S
C362 C374 1.349 . S
C363 C361 1.327 . S
C363 C379 1.429 . S
C363 H385 0.950 . S
C364 H360 0.949 . S
C364 C372 1.574 . S
C364 C380 1.368 . S
H365 C373 0.950 . S
H366 C371 0.950 . S
H367 C372 0.949 . S
H368 C374 0.950 . S
H369 C375 0.950 . S
H370 C376 0.949 . S
C371 H366 0.950 . S
C371 C373 1.327 . S
C371 C377 1.429 . S
C372 C364 1.574 . S
C372 H367 0.949 . S
C372 C378 1.368 . S
C373 C357 1.349 . S
C373 H365 0.950 . S
C373 C371 1.327 . S
C374 C362 1.349 . S
C374 H368 0.950 . S
C374 C375 1.327 . S
C375 H369 0.950 . S
C375 C374 1.327 . S
C375 C379 1.429 . S
C376 C359 1.574 . S
C376 H370 0.949 . S
C376 C380 1.368 . S
C377 C358 1.429 . S
C377 C371 1.429 . S
C377 C378 1.523 . S
C378 C359 1.368 . S
C378 C372 1.368 . S
C378 C377 1.523 . S
C379 C363 1.429 . S
C379 C375 1.429 . S
C379 C380 1.523 . S
C380 C364 1.368 . S
C380 C376 1.368 . S
C380 C379 1.523 . S
H381 C356 0.950 . S
H382 C358 0.950 . S
H383 C359 0.949 . S
H384 C361 0.950 . S
H385 C363 0.950 . S
C386 C387 1.349 . S
C386 C388 1.327 . S
C386 H411 0.950 . S
C387 C386 1.349 . S
C387 C403 1.349 . S
C388 C386 1.327 . S
C388 C407 1.429 . S
C388 H412 0.950 . S
C389 C406 1.574 . S
C389 C408 1.368 . S
C389 H413 0.949 . S
H390 C394 0.949 . S
C391 C392 1.349 . S
C391 C393 1.327 . S
C391 H414 0.950 . S
C392 C391 1.349 . S
C392 C404 1.349 . S
C393 C391 1.327 . S
C393 C409 1.429 . S
C393 H415 0.950 . S
C394 H390 0.949 . S
C394 C402 1.574 . S
C394 C410 1.368 . S
H395 C403 0.950 . S
H396 C401 0.950 . S
H397 C402 0.949 . S
H398 C404 0.950 . S
H399 C405 0.950 . S
H400 C406 0.949 . S
C401 H396 0.950 . S
C401 C403 1.327 . S
C401 C407 1.429 . S
C402 C394 1.574 . S
C402 H397 0.949 . S
C402 C408 1.368 . S
C403 C387 1.349 . S
C403 H395 0.950 . S
C403 C401 1.327 . S
C404 C392 1.349 . S
C404 H398 0.950 . S
C404 C405 1.327 . S
C405 H399 0.950 . S
C405 C404 1.327 . S
C405 C409 1.429 . S
C406 C389 1.574 . S
C406 H400 0.949 . S
C406 C410 1.368 . S
C407 C388 1.429 . S
C407 C401 1.429 . S
C407 C408 1.523 . S
C408 C389 1.368 . S
C408 C402 1.368 . S
C408 C407 1.523 . S
C409 C393 1.429 . S
C409 C405 1.429 . S
C409 C410 1.523 . S
C410 C394 1.368 . S
C410 C406 1.368 . S
C410 C409 1.523 . S
H411 C386 0.950 . S
H412 C388 0.950 . S
H413 C389 0.949 . S
H414 C391 0.950 . S
H415 C393 0.950 . S
C416 C417 1.349 . S
C416 C418 1.327 . S
C416 H441 0.950 . S
C417 C416 1.349 . S
C417 C433 1.349 . S
C418 C416 1.327 . S
C418 C437 1.429 . S
C418 H442 0.950 . S
C419 C436 1.574 . S
C419 C438 1.368 . S
C419 H443 0.949 . S
H420 C424 0.949 . S
C421 C422 1.349 . S
C421 C423 1.327 . S
C421 H444 0.950 . S
C422 C421 1.349 . S
C422 C434 1.349 . S
C423 C421 1.327 . S
C423 C439 1.429 . S
C423 H445 0.950 . S
C424 H420 0.949 . S
C424 C432 1.574 . S
C424 C440 1.368 . S
H425 C433 0.950 . S
H426 C431 0.950 . S
H427 C432 0.949 . S
H428 C434 0.950 . S
H429 C435 0.950 . S
H430 C436 0.949 . S
C431 H426 0.950 . S
C431 C433 1.327 . S
C431 C437 1.429 . S
C432 C424 1.574 . S
C432 H427 0.949 . S
C432 C438 1.368 . S
C433 C417 1.349 . S
C433 H425 0.950 . S
C433 C431 1.327 . S
C434 C422 1.349 . S
C434 H428 0.950 . S
C434 C435 1.327 . S
C435 H429 0.950 . S
C435 C434 1.327 . S
C435 C439 1.429 . S
C436 C419 1.574 . S
C436 H430 0.949 . S
C436 C440 1.368 . S
C437 C418 1.429 . S
C437 C431 1.429 . S
C437 C438 1.523 . S
C438 C419 1.368 . S
C438 C432 1.368 . S
C438 C437 1.523 . S
C439 C423 1.429 . S
C439 C435 1.429 . S
C439 C440 1.523 . S
C440 C424 1.368 . S
C440 C436 1.368 . S
C440 C439 1.523 . S
H441 C416 0.950 . S
H442 C418 0.950 . S
H443 C419 0.949 . S
H444 C421 0.950 . S
H445 C423 0.950 . S
C446 C447 1.349 . S
C446 C448 1.327 . S
C446 H471 0.950 . S
C447 C446 1.349 . S
C447 C463 1.349 . S
C448 C446 1.327 . S
C448 C467 1.429 . S
C448 H472 0.950 . S
C449 C466 1.574 . S
C449 C468 1.368 . S
C449 H473 0.949 . S
H450 C454 0.949 . S
C451 C452 1.349 . S
C451 C453 1.327 . S
C451 H474 0.950 . S
C452 C451 1.349 . S
C452 C464 1.349 . S
C453 C451 1.327 . S
C453 C469 1.429 . S
C453 H475 0.950 . S
C454 H450 0.949 . S
C454 C462 1.574 . S
C454 C470 1.368 . S
H455 C463 0.950 . S
H456 C461 0.950 . S
H457 C462 0.949 . S
H458 C464 0.950 . S
H459 C465 0.950 . S
H460 C466 0.949 . S
C461 H456 0.950 . S
C461 C463 1.327 . S
C461 C467 1.429 . S
C462 C454 1.574 . S
C462 H457 0.949 . S
C462 C468 1.368 . S
C463 C447 1.349 . S
C463 H455 0.950 . S
C463 C461 1.327 . S
C464 C452 1.349 . S
C464 H458 0.950 . S
C464 C465 1.327 . S
C465 H459 0.950 . S
C465 C464 1.327 . S
C465 C469 1.429 . S
C466 C449 1.574 . S
C466 H460 0.949 . S
C466 C470 1.368 . S
C467 C448 1.429 . S
C467 C461 1.429 . S
C467 C468 1.523 . S
C468 C449 1.368 . S
C468 C462 1.368 . S
C468 C467 1.523 . S
C469 C453 1.429 . S
C469 C465 1.429 . S
C469 C470 1.523 . S
C470 C454 1.368 . S
C470 C466 1.368 . S
C470 C469 1.523 . S
H471 C446 0.950 . S
H472 C448 0.950 . S
H473 C449 0.949 . S
H474 C451 0.950 . S
H475 C453 0.950 . S
C237 C52 1.687 . S
C242 C151 1.691 . S
C267 C92 1.691 . S
C272 C229 1.688 . S
C297 C33 1.691 . S
C302 C170 1.688 . S
C327 C111 1.687 . S
C332 C210 1.690 . S
C357 C62 1.477 . S
C362 C3 1.477 . S
C387 C64 1.480 . S
C392 C123 1.480 . S
C417 C180 1.477 . S
C422 C121 1.477 . S
C447 C182 1.480 . S
C452 C5 1.480 . S
