# Generated by pormake.
# Topology kfi, (4)-cn, num edge types: 1
# Building blocks:
#     Node 0, Type 0, BuildingBlock: QUQFOY_clean_sbu_3, # of connection points: 4
#     Node 1, Type 0, BuildingBlock: QUQFOY_clean_sbu_3, # of connection points: 4
#     Node 2, Type 0, BuildingBlock: QUQFOY_clean_sbu_3, # of connection points: 4
#     Node 3, Type 0, BuildingBlock: QUQFOY_clean_sbu_3, # of connection points: 4
#     Node 4, Type 0, BuildingBlock: QUQFOY_clean_sbu_3, # of connection points: 4
#     Node 5, Type 0, BuildingBlock: QUQFOY_clean_sbu_3, # of connection points: 4
#     Node 6, Type 0, BuildingBlock: QUQFOY_clean_sbu_3, # of connection points: 4
#     Node 7, Type 0, BuildingBlock: QUQFOY_clean_sbu_3, # of connection points: 4
#     Node 8, Type 0, BuildingBlock: QUQFOY_clean_sbu_3, # of connection points: 4
#     Node 9, Type 0, BuildingBlock: QUQFOY_clean_sbu_3, # of connection points: 4
#     Node 10, Type 0, BuildingBlock: QUQFOY_clean_sbu_3, # of connection points: 4
#     Node 11, Type 0, BuildingBlock: QUQFOY_clean_sbu_3, # of connection points: 4
#     Node 12, Type 0, BuildingBlock: QUQFOY_clean_sbu_3, # of connection points: 4
#     Node 13, Type 0, BuildingBlock: QUQFOY_clean_sbu_3, # of connection points: 4
#     Node 14, Type 0, BuildingBlock: QUQFOY_clean_sbu_3, # of connection points: 4
#     Node 15, Type 0, BuildingBlock: QUQFOY_clean_sbu_3, # of connection points: 4
#     Node 16, Type 0, BuildingBlock: QUQFOY_clean_sbu_3, # of connection points: 4
#     Node 17, Type 0, BuildingBlock: QUQFOY_clean_sbu_3, # of connection points: 4
#     Node 18, Type 0, BuildingBlock: QUQFOY_clean_sbu_3, # of connection points: 4
#     Node 19, Type 0, BuildingBlock: QUQFOY_clean_sbu_3, # of connection points: 4
#     Node 20, Type 0, BuildingBlock: QUQFOY_clean_sbu_3, # of connection points: 4
#     Node 21, Type 0, BuildingBlock: QUQFOY_clean_sbu_3, # of connection points: 4
#     Node 22, Type 0, BuildingBlock: QUQFOY_clean_sbu_3, # of connection points: 4
#     Node 23, Type 0, BuildingBlock: QUQFOY_clean_sbu_3, # of connection points: 4
#     Node 24, Type 0, BuildingBlock: QUQFOY_clean_sbu_3, # of connection points: 4
#     Node 25, Type 0, BuildingBlock: QUQFOY_clean_sbu_3, # of connection points: 4
#     Node 26, Type 0, BuildingBlock: QUQFOY_clean_sbu_3, # of connection points: 4
#     Node 27, Type 0, BuildingBlock: QUQFOY_clean_sbu_3, # of connection points: 4
#     Node 28, Type 0, BuildingBlock: QUQFOY_clean_sbu_3, # of connection points: 4
#     Node 29, Type 0, BuildingBlock: QUQFOY_clean_sbu_3, # of connection points: 4
#     Node 30, Type 0, BuildingBlock: QUQFOY_clean_sbu_3, # of connection points: 4
#     Node 31, Type 0, BuildingBlock: QUQFOY_clean_sbu_3, # of connection points: 4
#     Node 32, Type 0, BuildingBlock: QUQFOY_clean_sbu_3, # of connection points: 4
#     Node 33, Type 0, BuildingBlock: QUQFOY_clean_sbu_3, # of connection points: 4
#     Node 34, Type 0, BuildingBlock: QUQFOY_clean_sbu_3, # of connection points: 4
#     Node 35, Type 0, BuildingBlock: QUQFOY_clean_sbu_3, # of connection points: 4
#     Node 36, Type 0, BuildingBlock: QUQFOY_clean_sbu_3, # of connection points: 4
#     Node 37, Type 0, BuildingBlock: QUQFOY_clean_sbu_3, # of connection points: 4
#     Node 38, Type 0, BuildingBlock: QUQFOY_clean_sbu_3, # of connection points: 4
#     Node 39, Type 0, BuildingBlock: QUQFOY_clean_sbu_3, # of connection points: 4
#     Node 40, Type 0, BuildingBlock: QUQFOY_clean_sbu_3, # of connection points: 4
#     Node 41, Type 0, BuildingBlock: QUQFOY_clean_sbu_3, # of connection points: 4
#     Node 42, Type 0, BuildingBlock: QUQFOY_clean_sbu_3, # of connection points: 4
#     Node 43, Type 0, BuildingBlock: QUQFOY_clean_sbu_3, # of connection points: 4
#     Node 44, Type 0, BuildingBlock: QUQFOY_clean_sbu_3, # of connection points: 4
#     Node 45, Type 0, BuildingBlock: QUQFOY_clean_sbu_3, # of connection points: 4
#     Node 46, Type 0, BuildingBlock: QUQFOY_clean_sbu_3, # of connection points: 4
#     Node 47, Type 0, BuildingBlock: QUQFOY_clean_sbu_3, # of connection points: 4
#     Node 48, Type 0, BuildingBlock: QUQFOY_clean_sbu_3, # of connection points: 4
#     Node 49, Type 0, BuildingBlock: QUQFOY_clean_sbu_3, # of connection points: 4
#     Node 50, Type 0, BuildingBlock: QUQFOY_clean_sbu_3, # of connection points: 4
#     Node 51, Type 0, BuildingBlock: QUQFOY_clean_sbu_3, # of connection points: 4
#     Node 52, Type 0, BuildingBlock: QUQFOY_clean_sbu_3, # of connection points: 4
#     Node 53, Type 0, BuildingBlock: QUQFOY_clean_sbu_3, # of connection points: 4
#     Node 54, Type 0, BuildingBlock: QUQFOY_clean_sbu_3, # of connection points: 4
#     Node 55, Type 0, BuildingBlock: QUQFOY_clean_sbu_3, # of connection points: 4
#     Node 56, Type 0, BuildingBlock: QUQFOY_clean_sbu_3, # of connection points: 4
#     Node 57, Type 0, BuildingBlock: QUQFOY_clean_sbu_3, # of connection points: 4
#     Node 58, Type 0, BuildingBlock: QUQFOY_clean_sbu_3, # of connection points: 4
#     Node 59, Type 0, BuildingBlock: QUQFOY_clean_sbu_3, # of connection points: 4
#     Node 60, Type 0, BuildingBlock: QUQFOY_clean_sbu_3, # of connection points: 4
#     Node 61, Type 0, BuildingBlock: QUQFOY_clean_sbu_3, # of connection points: 4
#     Node 62, Type 0, BuildingBlock: QUQFOY_clean_sbu_3, # of connection points: 4
#     Node 63, Type 0, BuildingBlock: QUQFOY_clean_sbu_3, # of connection points: 4
#     Node 64, Type 0, BuildingBlock: QUQFOY_clean_sbu_3, # of connection points: 4
#     Node 65, Type 0, BuildingBlock: QUQFOY_clean_sbu_3, # of connection points: 4
#     Node 66, Type 0, BuildingBlock: QUQFOY_clean_sbu_3, # of connection points: 4
#     Node 67, Type 0, BuildingBlock: QUQFOY_clean_sbu_3, # of connection points: 4
#     Node 68, Type 0, BuildingBlock: QUQFOY_clean_sbu_3, # of connection points: 4
#     Node 69, Type 0, BuildingBlock: QUQFOY_clean_sbu_3, # of connection points: 4
#     Node 70, Type 0, BuildingBlock: QUQFOY_clean_sbu_3, # of connection points: 4
#     Node 71, Type 0, BuildingBlock: QUQFOY_clean_sbu_3, # of connection points: 4
#     Node 72, Type 0, BuildingBlock: QUQFOY_clean_sbu_3, # of connection points: 4
#     Node 73, Type 0, BuildingBlock: QUQFOY_clean_sbu_3, # of connection points: 4
#     Node 74, Type 0, BuildingBlock: QUQFOY_clean_sbu_3, # of connection points: 4
#     Node 75, Type 0, BuildingBlock: QUQFOY_clean_sbu_3, # of connection points: 4
#     Node 76, Type 0, BuildingBlock: QUQFOY_clean_sbu_3, # of connection points: 4
#     Node 77, Type 0, BuildingBlock: QUQFOY_clean_sbu_3, # of connection points: 4
#     Node 78, Type 0, BuildingBlock: QUQFOY_clean_sbu_3, # of connection points: 4
#     Node 79, Type 0, BuildingBlock: QUQFOY_clean_sbu_3, # of connection points: 4
#     Node 80, Type 0, BuildingBlock: QUQFOY_clean_sbu_3, # of connection points: 4
#     Node 81, Type 0, BuildingBlock: QUQFOY_clean_sbu_3, # of connection points: 4
#     Node 82, Type 0, BuildingBlock: QUQFOY_clean_sbu_3, # of connection points: 4
#     Node 83, Type 0, BuildingBlock: QUQFOY_clean_sbu_3, # of connection points: 4
#     Node 84, Type 0, BuildingBlock: QUQFOY_clean_sbu_3, # of connection points: 4
#     Node 85, Type 0, BuildingBlock: QUQFOY_clean_sbu_3, # of connection points: 4
#     Node 86, Type 0, BuildingBlock: QUQFOY_clean_sbu_3, # of connection points: 4
#     Node 87, Type 0, BuildingBlock: QUQFOY_clean_sbu_3, # of connection points: 4
#     Node 88, Type 0, BuildingBlock: QUQFOY_clean_sbu_3, # of connection points: 4
#     Node 89, Type 0, BuildingBlock: QUQFOY_clean_sbu_3, # of connection points: 4
#     Node 90, Type 0, BuildingBlock: QUQFOY_clean_sbu_3, # of connection points: 4
#     Node 91, Type 0, BuildingBlock: QUQFOY_clean_sbu_3, # of connection points: 4
#     Node 92, Type 0, BuildingBlock: QUQFOY_clean_sbu_3, # of connection points: 4
#     Node 93, Type 0, BuildingBlock: QUQFOY_clean_sbu_3, # of connection points: 4
#     Node 94, Type 0, BuildingBlock: QUQFOY_clean_sbu_3, # of connection points: 4
#     Node 95, Type 0, BuildingBlock: QUQFOY_clean_sbu_3, # of connection points: 4
#     Edge 96, Type (0, 0), BuildingBlock: KIFKEQ_clean_linker_1, # of connection points: 2
#     Edge 97, Type (0, 0), BuildingBlock: KIFKEQ_clean_linker_1, # of connection points: 2
#     Edge 98, Type (0, 0), BuildingBlock: KIFKEQ_clean_linker_1, # of connection points: 2
#     Edge 99, Type (0, 0), BuildingBlock: KIFKEQ_clean_linker_1, # of connection points: 2
#     Edge 100, Type (0, 0), BuildingBlock: KIFKEQ_clean_linker_1, # of connection points: 2
#     Edge 101, Type (0, 0), BuildingBlock: KIFKEQ_clean_linker_1, # of connection points: 2
#     Edge 102, Type (0, 0), BuildingBlock: KIFKEQ_clean_linker_1, # of connection points: 2
#     Edge 103, Type (0, 0), BuildingBlock: KIFKEQ_clean_linker_1, # of connection points: 2
#     Edge 104, Type (0, 0), BuildingBlock: KIFKEQ_clean_linker_1, # of connection points: 2
#     Edge 105, Type (0, 0), BuildingBlock: KIFKEQ_clean_linker_1, # of connection points: 2
#     Edge 106, Type (0, 0), BuildingBlock: KIFKEQ_clean_linker_1, # of connection points: 2
#     Edge 107, Type (0, 0), BuildingBlock: KIFKEQ_clean_linker_1, # of connection points: 2
#     Edge 108, Type (0, 0), BuildingBlock: KIFKEQ_clean_linker_1, # of connection points: 2
#     Edge 109, Type (0, 0), BuildingBlock: KIFKEQ_clean_linker_1, # of connection points: 2
#     Edge 110, Type (0, 0), BuildingBlock: KIFKEQ_clean_linker_1, # of connection points: 2
#     Edge 111, Type (0, 0), BuildingBlock: KIFKEQ_clean_linker_1, # of connection points: 2
#     Edge 112, Type (0, 0), BuildingBlock: KIFKEQ_clean_linker_1, # of connection points: 2
#     Edge 113, Type (0, 0), BuildingBlock: KIFKEQ_clean_linker_1, # of connection points: 2
#     Edge 114, Type (0, 0), BuildingBlock: KIFKEQ_clean_linker_1, # of connection points: 2
#     Edge 115, Type (0, 0), BuildingBlock: KIFKEQ_clean_linker_1, # of connection points: 2
#     Edge 116, Type (0, 0), BuildingBlock: KIFKEQ_clean_linker_1, # of connection points: 2
#     Edge 117, Type (0, 0), BuildingBlock: KIFKEQ_clean_linker_1, # of connection points: 2
#     Edge 118, Type (0, 0), BuildingBlock: KIFKEQ_clean_linker_1, # of connection points: 2
#     Edge 119, Type (0, 0), BuildingBlock: KIFKEQ_clean_linker_1, # of connection points: 2
#     Edge 120, Type (0, 0), BuildingBlock: KIFKEQ_clean_linker_1, # of connection points: 2
#     Edge 121, Type (0, 0), BuildingBlock: KIFKEQ_clean_linker_1, # of connection points: 2
#     Edge 122, Type (0, 0), BuildingBlock: KIFKEQ_clean_linker_1, # of connection points: 2
#     Edge 123, Type (0, 0), BuildingBlock: KIFKEQ_clean_linker_1, # of connection points: 2
#     Edge 124, Type (0, 0), BuildingBlock: KIFKEQ_clean_linker_1, # of connection points: 2
#     Edge 125, Type (0, 0), BuildingBlock: KIFKEQ_clean_linker_1, # of connection points: 2
#     Edge 126, Type (0, 0), BuildingBlock: KIFKEQ_clean_linker_1, # of connection points: 2
#     Edge 127, Type (0, 0), BuildingBlock: KIFKEQ_clean_linker_1, # of connection points: 2
#     Edge 128, Type (0, 0), BuildingBlock: KIFKEQ_clean_linker_1, # of connection points: 2
#     Edge 129, Type (0, 0), BuildingBlock: KIFKEQ_clean_linker_1, # of connection points: 2
#     Edge 130, Type (0, 0), BuildingBlock: KIFKEQ_clean_linker_1, # of connection points: 2
#     Edge 131, Type (0, 0), BuildingBlock: KIFKEQ_clean_linker_1, # of connection points: 2
#     Edge 132, Type (0, 0), BuildingBlock: KIFKEQ_clean_linker_1, # of connection points: 2
#     Edge 133, Type (0, 0), BuildingBlock: KIFKEQ_clean_linker_1, # of connection points: 2
#     Edge 134, Type (0, 0), BuildingBlock: KIFKEQ_clean_linker_1, # of connection points: 2
#     Edge 135, Type (0, 0), BuildingBlock: KIFKEQ_clean_linker_1, # of connection points: 2
#     Edge 136, Type (0, 0), BuildingBlock: KIFKEQ_clean_linker_1, # of connection points: 2
#     Edge 137, Type (0, 0), BuildingBlock: KIFKEQ_clean_linker_1, # of connection points: 2
#     Edge 138, Type (0, 0), BuildingBlock: KIFKEQ_clean_linker_1, # of connection points: 2
#     Edge 139, Type (0, 0), BuildingBlock: KIFKEQ_clean_linker_1, # of connection points: 2
#     Edge 140, Type (0, 0), BuildingBlock: KIFKEQ_clean_linker_1, # of connection points: 2
#     Edge 141, Type (0, 0), BuildingBlock: KIFKEQ_clean_linker_1, # of connection points: 2
#     Edge 142, Type (0, 0), BuildingBlock: KIFKEQ_clean_linker_1, # of connection points: 2
#     Edge 143, Type (0, 0), BuildingBlock: KIFKEQ_clean_linker_1, # of connection points: 2
#     Edge 144, Type (0, 0), BuildingBlock: KIFKEQ_clean_linker_1, # of connection points: 2
#     Edge 145, Type (0, 0), BuildingBlock: KIFKEQ_clean_linker_1, # of connection points: 2
#     Edge 146, Type (0, 0), BuildingBlock: KIFKEQ_clean_linker_1, # of connection points: 2
#     Edge 147, Type (0, 0), BuildingBlock: KIFKEQ_clean_linker_1, # of connection points: 2
#     Edge 148, Type (0, 0), BuildingBlock: KIFKEQ_clean_linker_1, # of connection points: 2
#     Edge 149, Type (0, 0), BuildingBlock: KIFKEQ_clean_linker_1, # of connection points: 2
#     Edge 150, Type (0, 0), BuildingBlock: KIFKEQ_clean_linker_1, # of connection points: 2
#     Edge 151, Type (0, 0), BuildingBlock: KIFKEQ_clean_linker_1, # of connection points: 2
#     Edge 152, Type (0, 0), BuildingBlock: KIFKEQ_clean_linker_1, # of connection points: 2
#     Edge 153, Type (0, 0), BuildingBlock: KIFKEQ_clean_linker_1, # of connection points: 2
#     Edge 154, Type (0, 0), BuildingBlock: KIFKEQ_clean_linker_1, # of connection points: 2
#     Edge 155, Type (0, 0), BuildingBlock: KIFKEQ_clean_linker_1, # of connection points: 2
#     Edge 156, Type (0, 0), BuildingBlock: KIFKEQ_clean_linker_1, # of connection points: 2
#     Edge 157, Type (0, 0), BuildingBlock: KIFKEQ_clean_linker_1, # of connection points: 2
#     Edge 158, Type (0, 0), BuildingBlock: KIFKEQ_clean_linker_1, # of connection points: 2
#     Edge 159, Type (0, 0), BuildingBlock: KIFKEQ_clean_linker_1, # of connection points: 2
#     Edge 160, Type (0, 0), BuildingBlock: KIFKEQ_clean_linker_1, # of connection points: 2
#     Edge 161, Type (0, 0), BuildingBlock: KIFKEQ_clean_linker_1, # of connection points: 2
#     Edge 162, Type (0, 0), BuildingBlock: KIFKEQ_clean_linker_1, # of connection points: 2
#     Edge 163, Type (0, 0), BuildingBlock: KIFKEQ_clean_linker_1, # of connection points: 2
#     Edge 164, Type (0, 0), BuildingBlock: KIFKEQ_clean_linker_1, # of connection points: 2
#     Edge 165, Type (0, 0), BuildingBlock: KIFKEQ_clean_linker_1, # of connection points: 2
#     Edge 166, Type (0, 0), BuildingBlock: KIFKEQ_clean_linker_1, # of connection points: 2
#     Edge 167, Type (0, 0), BuildingBlock: KIFKEQ_clean_linker_1, # of connection points: 2
#     Edge 168, Type (0, 0), BuildingBlock: KIFKEQ_clean_linker_1, # of connection points: 2
#     Edge 169, Type (0, 0), BuildingBlock: KIFKEQ_clean_linker_1, # of connection points: 2
#     Edge 170, Type (0, 0), BuildingBlock: KIFKEQ_clean_linker_1, # of connection points: 2
#     Edge 171, Type (0, 0), BuildingBlock: KIFKEQ_clean_linker_1, # of connection points: 2
#     Edge 172, Type (0, 0), BuildingBlock: KIFKEQ_clean_linker_1, # of connection points: 2
#     Edge 173, Type (0, 0), BuildingBlock: KIFKEQ_clean_linker_1, # of connection points: 2
#     Edge 174, Type (0, 0), BuildingBlock: KIFKEQ_clean_linker_1, # of connection points: 2
#     Edge 175, Type (0, 0), BuildingBlock: KIFKEQ_clean_linker_1, # of connection points: 2
#     Edge 176, Type (0, 0), BuildingBlock: KIFKEQ_clean_linker_1, # of connection points: 2
#     Edge 177, Type (0, 0), BuildingBlock: KIFKEQ_clean_linker_1, # of connection points: 2
#     Edge 178, Type (0, 0), BuildingBlock: KIFKEQ_clean_linker_1, # of connection points: 2
#     Edge 179, Type (0, 0), BuildingBlock: KIFKEQ_clean_linker_1, # of connection points: 2
#     Edge 180, Type (0, 0), BuildingBlock: KIFKEQ_clean_linker_1, # of connection points: 2
#     Edge 181, Type (0, 0), BuildingBlock: KIFKEQ_clean_linker_1, # of connection points: 2
#     Edge 182, Type (0, 0), BuildingBlock: KIFKEQ_clean_linker_1, # of connection points: 2
#     Edge 183, Type (0, 0), BuildingBlock: KIFKEQ_clean_linker_1, # of connection points: 2
#     Edge 184, Type (0, 0), BuildingBlock: KIFKEQ_clean_linker_1, # of connection points: 2
#     Edge 185, Type (0, 0), BuildingBlock: KIFKEQ_clean_linker_1, # of connection points: 2
#     Edge 186, Type (0, 0), BuildingBlock: KIFKEQ_clean_linker_1, # of connection points: 2
#     Edge 187, Type (0, 0), BuildingBlock: KIFKEQ_clean_linker_1, # of connection points: 2
#     Edge 188, Type (0, 0), BuildingBlock: KIFKEQ_clean_linker_1, # of connection points: 2
#     Edge 189, Type (0, 0), BuildingBlock: KIFKEQ_clean_linker_1, # of connection points: 2
#     Edge 190, Type (0, 0), BuildingBlock: KIFKEQ_clean_linker_1, # of connection points: 2
#     Edge 191, Type (0, 0), BuildingBlock: KIFKEQ_clean_linker_1, # of connection points: 2
#     Edge 192, Type (0, 0), BuildingBlock: KIFKEQ_clean_linker_1, # of connection points: 2
#     Edge 193, Type (0, 0), BuildingBlock: KIFKEQ_clean_linker_1, # of connection points: 2
#     Edge 194, Type (0, 0), BuildingBlock: KIFKEQ_clean_linker_1, # of connection points: 2
#     Edge 195, Type (0, 0), BuildingBlock: KIFKEQ_clean_linker_1, # of connection points: 2
#     Edge 196, Type (0, 0), BuildingBlock: KIFKEQ_clean_linker_1, # of connection points: 2
#     Edge 197, Type (0, 0), BuildingBlock: KIFKEQ_clean_linker_1, # of connection points: 2
#     Edge 198, Type (0, 0), BuildingBlock: KIFKEQ_clean_linker_1, # of connection points: 2
#     Edge 199, Type (0, 0), BuildingBlock: KIFKEQ_clean_linker_1, # of connection points: 2
#     Edge 200, Type (0, 0), BuildingBlock: KIFKEQ_clean_linker_1, # of connection points: 2
#     Edge 201, Type (0, 0), BuildingBlock: KIFKEQ_clean_linker_1, # of connection points: 2
#     Edge 202, Type (0, 0), BuildingBlock: KIFKEQ_clean_linker_1, # of connection points: 2
#     Edge 203, Type (0, 0), BuildingBlock: KIFKEQ_clean_linker_1, # of connection points: 2
#     Edge 204, Type (0, 0), BuildingBlock: KIFKEQ_clean_linker_1, # of connection points: 2
#     Edge 205, Type (0, 0), BuildingBlock: KIFKEQ_clean_linker_1, # of connection points: 2
#     Edge 206, Type (0, 0), BuildingBlock: KIFKEQ_clean_linker_1, # of connection points: 2
#     Edge 207, Type (0, 0), BuildingBlock: KIFKEQ_clean_linker_1, # of connection points: 2
#     Edge 208, Type (0, 0), BuildingBlock: KIFKEQ_clean_linker_1, # of connection points: 2
#     Edge 209, Type (0, 0), BuildingBlock: KIFKEQ_clean_linker_1, # of connection points: 2
#     Edge 210, Type (0, 0), BuildingBlock: KIFKEQ_clean_linker_1, # of connection points: 2
#     Edge 211, Type (0, 0), BuildingBlock: KIFKEQ_clean_linker_1, # of connection points: 2
#     Edge 212, Type (0, 0), BuildingBlock: KIFKEQ_clean_linker_1, # of connection points: 2
#     Edge 213, Type (0, 0), BuildingBlock: KIFKEQ_clean_linker_1, # of connection points: 2
#     Edge 214, Type (0, 0), BuildingBlock: KIFKEQ_clean_linker_1, # of connection points: 2
#     Edge 215, Type (0, 0), BuildingBlock: KIFKEQ_clean_linker_1, # of connection points: 2
#     Edge 216, Type (0, 0), BuildingBlock: KIFKEQ_clean_linker_1, # of connection points: 2
#     Edge 217, Type (0, 0), BuildingBlock: KIFKEQ_clean_linker_1, # of connection points: 2
#     Edge 218, Type (0, 0), BuildingBlock: KIFKEQ_clean_linker_1, # of connection points: 2
#     Edge 219, Type (0, 0), BuildingBlock: KIFKEQ_clean_linker_1, # of connection points: 2
#     Edge 220, Type (0, 0), BuildingBlock: KIFKEQ_clean_linker_1, # of connection points: 2
#     Edge 221, Type (0, 0), BuildingBlock: KIFKEQ_clean_linker_1, # of connection points: 2
#     Edge 222, Type (0, 0), BuildingBlock: KIFKEQ_clean_linker_1, # of connection points: 2
#     Edge 223, Type (0, 0), BuildingBlock: KIFKEQ_clean_linker_1, # of connection points: 2
#     Edge 224, Type (0, 0), BuildingBlock: KIFKEQ_clean_linker_1, # of connection points: 2
#     Edge 225, Type (0, 0), BuildingBlock: KIFKEQ_clean_linker_1, # of connection points: 2
#     Edge 226, Type (0, 0), BuildingBlock: KIFKEQ_clean_linker_1, # of connection points: 2
#     Edge 227, Type (0, 0), BuildingBlock: KIFKEQ_clean_linker_1, # of connection points: 2
#     Edge 228, Type (0, 0), BuildingBlock: KIFKEQ_clean_linker_1, # of connection points: 2
#     Edge 229, Type (0, 0), BuildingBlock: KIFKEQ_clean_linker_1, # of connection points: 2
#     Edge 230, Type (0, 0), BuildingBlock: KIFKEQ_clean_linker_1, # of connection points: 2
#     Edge 231, Type (0, 0), BuildingBlock: KIFKEQ_clean_linker_1, # of connection points: 2
#     Edge 232, Type (0, 0), BuildingBlock: KIFKEQ_clean_linker_1, # of connection points: 2
#     Edge 233, Type (0, 0), BuildingBlock: KIFKEQ_clean_linker_1, # of connection points: 2
#     Edge 234, Type (0, 0), BuildingBlock: KIFKEQ_clean_linker_1, # of connection points: 2
#     Edge 235, Type (0, 0), BuildingBlock: KIFKEQ_clean_linker_1, # of connection points: 2
#     Edge 236, Type (0, 0), BuildingBlock: KIFKEQ_clean_linker_1, # of connection points: 2
#     Edge 237, Type (0, 0), BuildingBlock: KIFKEQ_clean_linker_1, # of connection points: 2
#     Edge 238, Type (0, 0), BuildingBlock: KIFKEQ_clean_linker_1, # of connection points: 2
#     Edge 239, Type (0, 0), BuildingBlock: KIFKEQ_clean_linker_1, # of connection points: 2
#     Edge 240, Type (0, 0), BuildingBlock: KIFKEQ_clean_linker_1, # of connection points: 2
#     Edge 241, Type (0, 0), BuildingBlock: KIFKEQ_clean_linker_1, # of connection points: 2
#     Edge 242, Type (0, 0), BuildingBlock: KIFKEQ_clean_linker_1, # of connection points: 2
#     Edge 243, Type (0, 0), BuildingBlock: KIFKEQ_clean_linker_1, # of connection points: 2
#     Edge 244, Type (0, 0), BuildingBlock: KIFKEQ_clean_linker_1, # of connection points: 2
#     Edge 245, Type (0, 0), BuildingBlock: KIFKEQ_clean_linker_1, # of connection points: 2
#     Edge 246, Type (0, 0), BuildingBlock: KIFKEQ_clean_linker_1, # of connection points: 2
#     Edge 247, Type (0, 0), BuildingBlock: KIFKEQ_clean_linker_1, # of connection points: 2
#     Edge 248, Type (0, 0), BuildingBlock: KIFKEQ_clean_linker_1, # of connection points: 2
#     Edge 249, Type (0, 0), BuildingBlock: KIFKEQ_clean_linker_1, # of connection points: 2
#     Edge 250, Type (0, 0), BuildingBlock: KIFKEQ_clean_linker_1, # of connection points: 2
#     Edge 251, Type (0, 0), BuildingBlock: KIFKEQ_clean_linker_1, # of connection points: 2
#     Edge 252, Type (0, 0), BuildingBlock: KIFKEQ_clean_linker_1, # of connection points: 2
#     Edge 253, Type (0, 0), BuildingBlock: KIFKEQ_clean_linker_1, # of connection points: 2
#     Edge 254, Type (0, 0), BuildingBlock: KIFKEQ_clean_linker_1, # of connection points: 2
#     Edge 255, Type (0, 0), BuildingBlock: KIFKEQ_clean_linker_1, # of connection points: 2
#     Edge 256, Type (0, 0), BuildingBlock: KIFKEQ_clean_linker_1, # of connection points: 2
#     Edge 257, Type (0, 0), BuildingBlock: KIFKEQ_clean_linker_1, # of connection points: 2
#     Edge 258, Type (0, 0), BuildingBlock: KIFKEQ_clean_linker_1, # of connection points: 2
#     Edge 259, Type (0, 0), BuildingBlock: KIFKEQ_clean_linker_1, # of connection points: 2
#     Edge 260, Type (0, 0), BuildingBlock: KIFKEQ_clean_linker_1, # of connection points: 2
#     Edge 261, Type (0, 0), BuildingBlock: KIFKEQ_clean_linker_1, # of connection points: 2
#     Edge 262, Type (0, 0), BuildingBlock: KIFKEQ_clean_linker_1, # of connection points: 2
#     Edge 263, Type (0, 0), BuildingBlock: KIFKEQ_clean_linker_1, # of connection points: 2
#     Edge 264, Type (0, 0), BuildingBlock: KIFKEQ_clean_linker_1, # of connection points: 2
#     Edge 265, Type (0, 0), BuildingBlock: KIFKEQ_clean_linker_1, # of connection points: 2
#     Edge 266, Type (0, 0), BuildingBlock: KIFKEQ_clean_linker_1, # of connection points: 2
#     Edge 267, Type (0, 0), BuildingBlock: KIFKEQ_clean_linker_1, # of connection points: 2
#     Edge 268, Type (0, 0), BuildingBlock: KIFKEQ_clean_linker_1, # of connection points: 2
#     Edge 269, Type (0, 0), BuildingBlock: KIFKEQ_clean_linker_1, # of connection points: 2
#     Edge 270, Type (0, 0), BuildingBlock: KIFKEQ_clean_linker_1, # of connection points: 2
#     Edge 271, Type (0, 0), BuildingBlock: KIFKEQ_clean_linker_1, # of connection points: 2
#     Edge 272, Type (0, 0), BuildingBlock: KIFKEQ_clean_linker_1, # of connection points: 2
#     Edge 273, Type (0, 0), BuildingBlock: KIFKEQ_clean_linker_1, # of connection points: 2
#     Edge 274, Type (0, 0), BuildingBlock: KIFKEQ_clean_linker_1, # of connection points: 2
#     Edge 275, Type (0, 0), BuildingBlock: KIFKEQ_clean_linker_1, # of connection points: 2
#     Edge 276, Type (0, 0), BuildingBlock: KIFKEQ_clean_linker_1, # of connection points: 2
#     Edge 277, Type (0, 0), BuildingBlock: KIFKEQ_clean_linker_1, # of connection points: 2
#     Edge 278, Type (0, 0), BuildingBlock: KIFKEQ_clean_linker_1, # of connection points: 2
#     Edge 279, Type (0, 0), BuildingBlock: KIFKEQ_clean_linker_1, # of connection points: 2
#     Edge 280, Type (0, 0), BuildingBlock: KIFKEQ_clean_linker_1, # of connection points: 2
#     Edge 281, Type (0, 0), BuildingBlock: KIFKEQ_clean_linker_1, # of connection points: 2
#     Edge 282, Type (0, 0), BuildingBlock: KIFKEQ_clean_linker_1, # of connection points: 2
#     Edge 283, Type (0, 0), BuildingBlock: KIFKEQ_clean_linker_1, # of connection points: 2
#     Edge 284, Type (0, 0), BuildingBlock: KIFKEQ_clean_linker_1, # of connection points: 2
#     Edge 285, Type (0, 0), BuildingBlock: KIFKEQ_clean_linker_1, # of connection points: 2
#     Edge 286, Type (0, 0), BuildingBlock: KIFKEQ_clean_linker_1, # of connection points: 2
#     Edge 287, Type (0, 0), BuildingBlock: KIFKEQ_clean_linker_1, # of connection points: 2
# Relax obj value: 0.152
# Max RMSD: 0.095
# Mean RMSD: 0.095
data_MOF--net-kfi--node1-QUQFOY_clean_sbu_3--edge1-KIFKEQ_clean_linker_1
_symmetry_space_group_name_H-M    P1
_symmetry_Int_Tables_number       1
_symmetry_cell_setting            triclinic
loop_
_symmetry_equiv_pos_as_xyz
'x, y, z'
_cell_length_a     92.019049
_cell_length_b     92.151301
_cell_length_c     92.17228
_cell_angle_alpha  89.985088
_cell_angle_beta   90.013877
_cell_angle_gamma 89.989931
loop_
_atom_site_label
_atom_site_type_symbol
_atom_site_fract_x
_atom_site_fract_y
_atom_site_fract_z
_atom_type_partial_charge
C0 C 0.10422 0.17442 0.29724 0.0
O1 O 0.10699 0.18391 0.28765 0.0
Cd2 Cd 0.09753 0.20799 0.28727 0.0
O3 O 0.09506 0.17693 0.30732 0.0
Cd4 Cd 0.07772 0.19671 0.3137 0.0
C5 C 0.10552 0.21909 0.32225 0.0
O6 O 0.0721 0.20462 0.28928 0.0
O7 O 0.06442 0.21881 0.3061 0.0
O8 O 0.05887 0.17862 0.3165 0.0
C9 C 0.06506 0.2159 0.29268 0.0
O10 O 0.10757 0.22018 0.30862 0.0
C11 C 0.05473 0.18281 0.32895 0.0
O12 O 0.09574 0.21068 0.32727 0.0
O13 O 0.06188 0.19308 0.33475 0.0
C14 C 0.81987 0.10065 0.3034 0.0
O15 O 0.81222 0.10462 0.29265 0.0
Cd16 Cd 0.78763 0.09692 0.28973 0.0
O17 O 0.8152 0.091 0.31214 0.0
Cd18 Cd 0.7942 0.07414 0.3144 0.0
C19 C 0.77432 0.10284 0.32444 0.0
O20 O 0.78721 0.071 0.28904 0.0
O21 O 0.77111 0.06504 0.30499 0.0
O22 O 0.81097 0.05401 0.31518 0.0
C23 C 0.77492 0.0654 0.29178 0.0
O24 O 0.77515 0.10653 0.31114 0.0
C25 C 0.80633 0.0486 0.32696 0.0
O26 O 0.7806 0.09143 0.32908 0.0
O27 O 0.7962 0.05544 0.33339 0.0
C28 C 0.89374 0.81543 0.29713 0.0
O29 O 0.89098 0.80547 0.28802 0.0
Cd30 Cd 0.90182 0.7821 0.28716 0.0
O31 O 0.90364 0.81369 0.30667 0.0
Cd32 Cd 0.92155 0.79419 0.31284 0.0
C33 C 0.89446 0.77156 0.32237 0.0
O34 O 0.92728 0.78581 0.2885 0.0
O35 O 0.93319 0.77111 0.30558 0.0
O36 O 0.94085 0.81197 0.31475 0.0
C37 C 0.93348 0.77412 0.29216 0.0
O38 O 0.89262 0.76992 0.30876 0.0
C39 C 0.94535 0.80793 0.32712 0.0
O40 O 0.90381 0.78055 0.3272 0.0
O41 O 0.93821 0.7979 0.33335 0.0
C42 C 0.16969 0.89419 0.29765 0.0
O43 O 0.1782 0.89204 0.28704 0.0
Cd44 Cd 0.20284 0.89974 0.28689 0.0
O45 O 0.17342 0.90239 0.30815 0.0
Cd46 Cd 0.19395 0.91939 0.31358 0.0
C47 C 0.21373 0.89005 0.32169 0.0
O48 O 0.20246 0.92539 0.2893 0.0
O49 O 0.21766 0.92942 0.30661 0.0
O50 O 0.17684 0.93914 0.31541 0.0
C51 C 0.21459 0.93055 0.29325 0.0
O52 O 0.21387 0.88787 0.30804 0.0
C53 C 0.18103 0.94365 0.32772 0.0
O54 O 0.20693 0.90079 0.32714 0.0
O55 O 0.1909 0.93632 0.33402 0.0
C56 C 0.09753 0.81228 0.69187 0.0
O57 O 0.10035 0.80249 0.70116 0.0
Cd58 Cd 0.08962 0.77913 0.70318 0.0
O59 O 0.08768 0.81035 0.6823 0.0
Cd60 Cd 0.07012 0.79058 0.67598 0.0
C61 C 0.09789 0.76742 0.66868 0.0
O62 O 0.06449 0.78405 0.70073 0.0
O63 O 0.05588 0.76942 0.68485 0.0
O64 O 0.05257 0.80952 0.67009 0.0
C65 C 0.05698 0.77288 0.6981 0.0
O66 O 0.09952 0.76616 0.68234 0.0
C67 C 0.04791 0.80338 0.65866 0.0
O68 O 0.0885 0.77612 0.66342 0.0
O69 O 0.05415 0.79169 0.65489 0.0
C70 C 0.17035 0.09861 0.69682 0.0
O71 O 0.18017 0.10222 0.70581 0.0
Cd72 Cd 0.20443 0.09355 0.70631 0.0
O73 O 0.17269 0.08874 0.68738 0.0
Cd74 Cd 0.19277 0.07149 0.68103 0.0
C75 C 0.21326 0.09997 0.6703 0.0
O76 O 0.2019 0.06802 0.70532 0.0
O77 O 0.21556 0.05927 0.68858 0.0
O78 O 0.17513 0.05202 0.68021 0.0
C79 C 0.2133 0.06111 0.70201 0.0
O80 O 0.21434 0.10309 0.68372 0.0
C81 C 0.17882 0.04725 0.66783 0.0
O82 O 0.20584 0.08911 0.66601 0.0
O83 O 0.18864 0.05426 0.66113 0.0
C84 C 0.88989 0.1735 0.68316 0.0
O85 O 0.88552 0.18185 0.69321 0.0
Cd86 Cd 0.89396 0.20607 0.69702 0.0
O87 O 0.90004 0.17743 0.6746 0.0
Cd88 Cd 0.91666 0.19851 0.67157 0.0
C89 C 0.88819 0.21995 0.66272 0.0
O90 O 0.91973 0.20415 0.6972 0.0
O91 O 0.92835 0.21997 0.68239 0.0
O92 O 0.93583 0.1809 0.66705 0.0
C93 C 0.9266 0.21591 0.69539 0.0
O94 O 0.88501 0.21983 0.67617 0.0
C95 C 0.94131 0.18767 0.65637 0.0
O96 O 0.8988 0.2125 0.65789 0.0
O97 O 0.93484 0.19914 0.65229 0.0
C98 C 0.81472 0.88563 0.6948 0.0
O99 O 0.80501 0.88226 0.704 0.0
Cd100 Cd 0.78136 0.89259 0.70601 0.0
O101 O 0.8125 0.89573 0.68559 0.0
Cd102 Cd 0.79256 0.91313 0.67984 0.0
C103 C 0.76961 0.88564 0.67122 0.0
O104 O 0.78537 0.91798 0.70467 0.0
O105 O 0.77105 0.9267 0.68848 0.0
O106 O 0.81132 0.93127 0.67556 0.0
C107 C 0.77416 0.92538 0.7018 0.0
O108 O 0.76844 0.88344 0.68481 0.0
C109 C 0.80573 0.93611 0.66393 0.0
O110 O 0.77826 0.89526 0.66632 0.0
O111 O 0.79441 0.92971 0.65931 0.0
C112 C 0.30285 0.09959 0.17532 0.0
O113 O 0.29402 0.10286 0.18539 0.0
Cd114 Cd 0.29279 0.09265 0.20901 0.0
O115 O 0.31234 0.08964 0.17715 0.0
Cd116 Cd 0.3191 0.0724 0.19705 0.0
C117 C 0.32799 0.10005 0.21961 0.0
O118 O 0.29435 0.06746 0.2043 0.0
O119 O 0.31042 0.05851 0.21855 0.0
O120 O 0.32376 0.05466 0.17802 0.0
C121 C 0.2971 0.05991 0.2154 0.0
O122 O 0.31438 0.10205 0.22112 0.0
C123 C 0.33516 0.04952 0.18384 0.0
O124 O 0.33281 0.09045 0.21091 0.0
O125 O 0.33955 0.05562 0.19539 0.0
C126 C 0.88943 0.29319 0.17547 0.0
O127 O 0.8851 0.28463 0.18537 0.0
Cd128 Cd 0.89366 0.28385 0.20973 0.0
O129 O 0.89984 0.30202 0.17782 0.0
Cd130 Cd 0.91672 0.30777 0.19825 0.0
C131 C 0.88838 0.31995 0.21824 0.0
O132 O 0.91935 0.28342 0.20795 0.0
O133 O 0.92758 0.30037 0.22168 0.0
O134 O 0.93711 0.30835 0.18155 0.0
C135 C 0.92577 0.2869 0.21958 0.0
O136 O 0.88505 0.30665 0.22005 0.0
C137 C 0.94156 0.32087 0.18519 0.0
O138 O 0.89907 0.32357 0.21023 0.0
O139 O 0.93409 0.32762 0.19462 0.0
C140 C 0.69418 0.89091 0.17407 0.0
O141 O 0.7031 0.88837 0.18426 0.0
Cd142 Cd 0.70397 0.89997 0.2072 0.0
O143 O 0.68463 0.90089 0.17535 0.0
Cd144 Cd 0.67813 0.91914 0.19445 0.0
C145 C 0.66884 0.89257 0.21784 0.0
O146 O 0.70275 0.92515 0.2019 0.0
O147 O 0.68605 0.93187 0.21668 0.0
O148 O 0.67392 0.93702 0.17536 0.0
C149 C 0.69938 0.93203 0.21328 0.0
O150 O 0.68244 0.8909 0.21981 0.0
C151 C 0.66237 0.9421 0.18091 0.0
O152 O 0.6641 0.90155 0.20846 0.0
O153 O 0.65771 0.93592 0.19231 0.0
C154 C 0.09002 0.68969 0.16976 0.0
O155 O 0.09312 0.69987 0.1785 0.0
Cd156 Cd 0.08648 0.69988 0.20336 0.0
O157 O 0.08149 0.67944 0.17349 0.0
Cd158 Cd 0.06517 0.67407 0.1946 0.0
C159 C 0.09486 0.66439 0.21324 0.0
O160 O 0.06073 0.69859 0.20323 0.0
O161 O 0.05576 0.68162 0.21848 0.0
O162 O 0.0448 0.6726 0.17811 0.0
C163 C 0.05557 0.69504 0.21545 0.0
O164 O 0.0977 0.67793 0.21354 0.0
C165 C 0.04034 0.66027 0.18233 0.0
O166 O 0.08364 0.65959 0.20673 0.0
O167 O 0.04784 0.65393 0.19203 0.0
C168 C 0.3055 0.89002 0.81959 0.0
O169 O 0.29463 0.88608 0.81207 0.0
Cd170 Cd 0.29077 0.89393 0.78771 0.0
O171 O 0.31425 0.89964 0.81486 0.0
Cd172 Cd 0.31643 0.9163 0.79371 0.0
C173 C 0.32492 0.8874 0.77326 0.0
O174 O 0.29068 0.91984 0.78813 0.0
O175 O 0.30585 0.92632 0.77155 0.0
O176 O 0.32071 0.93565 0.81111 0.0
C177 C 0.2928 0.92572 0.77588 0.0
O178 O 0.31153 0.88402 0.77429 0.0
C179 C 0.3315 0.94106 0.80446 0.0
O180 O 0.32998 0.89854 0.77969 0.0
O181 O 0.33566 0.93461 0.79301 0.0
C182 C 0.09155 0.31732 0.82198 0.0
O183 O 0.08066 0.30907 0.82098 0.0
Cd184 Cd 0.0744 0.31858 0.79691 0.0
O185 O 0.09327 0.32644 0.81188 0.0
Cd186 Cd 0.07116 0.32373 0.79422 0.0
C187 C 0.09337 0.33959 0.77808 0.0
O188 O 0.0703 0.29742 0.78505 0.0
O189 O 0.06559 0.31393 0.7693 0.0
O190 O 0.05136 0.32043 0.81208 0.0
C191 C 0.06673 0.3005 0.77218 0.0
O192 O 0.09646 0.32721 0.78321 0.0
C193 C 0.04423 0.33147 0.80793 0.0
O194 O 0.08081 0.34445 0.78077 0.0
O195 O 0.04976 0.33899 0.79781 0.0
C196 C 0.69827 0.09721 0.81636 0.0
O197 O 0.70807 0.10024 0.80715 0.0
Cd198 Cd 0.70845 0.09209 0.78277 0.0
O199 O 0.68823 0.08818 0.81327 0.0
Cd200 Cd 0.68178 0.07187 0.79249 0.0
C201 C 0.67331 0.10171 0.77338 0.0
O202 O 0.70611 0.0664 0.78358 0.0
O203 O 0.68869 0.06167 0.76882 0.0
O204 O 0.67766 0.05269 0.8102 0.0
C205 C 0.70219 0.06128 0.77145 0.0
O206 O 0.68696 0.10382 0.77249 0.0
C207 C 0.66586 0.04826 0.80461 0.0
O208 O 0.66814 0.09102 0.78044 0.0
O209 O 0.66116 0.05516 0.79364 0.0
C210 C 0.8923 0.69235 0.81366 0.0
O211 O 0.88927 0.70118 0.80352 0.0
Cd212 Cd 0.89926 0.70162 0.77987 0.0
O213 O 0.90216 0.68272 0.81199 0.0
Cd214 Cd 0.91995 0.67564 0.79251 0.0
C215 C 0.89199 0.66595 0.77068 0.0
O216 O 0.92457 0.70011 0.78436 0.0
O217 O 0.93376 0.68365 0.77074 0.0
O218 O 0.93772 0.67183 0.8118 0.0
C219 C 0.93211 0.69704 0.77333 0.0
O220 O 0.88938 0.67945 0.76929 0.0
C221 C 0.94287 0.6602 0.80649 0.0
O222 O 0.90228 0.6614 0.77874 0.0
O223 O 0.93683 0.65537 0.79507 0.0
C224 C 0.1696 0.29685 0.09624 0.0
O225 O 0.17914 0.28748 0.09957 0.0
Cd226 Cd 0.20338 0.2869 0.09047 0.0
O227 O 0.17214 0.30645 0.08661 0.0
Cd228 Cd 0.19238 0.31161 0.06937 0.0
C229 C 0.21414 0.32222 0.09669 0.0
O230 O 0.20102 0.28703 0.06479 0.0
O231 O 0.21584 0.30408 0.05888 0.0
O232 O 0.17556 0.31347 0.04919 0.0
C233 C 0.21286 0.29065 0.05881 0.0
O234 O 0.21583 0.30875 0.09938 0.0
C235 C 0.1798 0.32588 0.04498 0.0
O236 O 0.20535 0.32642 0.08688 0.0
O237 O 0.18954 0.33203 0.05257 0.0
C238 C 0.17556 0.69521 0.88973 0.0
O239 O 0.18528 0.70395 0.88534 0.0
Cd240 Cd 0.2099 0.70449 0.89319 0.0
O241 O 0.17815 0.68618 0.89991 0.0
Cd242 Cd 0.19878 0.68119 0.91696 0.0
C243 C 0.21943 0.66844 0.88938 0.0
O244 O 0.2078 0.70597 0.91884 0.0
O245 O 0.22155 0.68977 0.92836 0.0
O246 O 0.18084 0.67892 0.93638 0.0
C247 C 0.21931 0.70307 0.92574 0.0
O248 O 0.22076 0.68155 0.88517 0.0
C249 C 0.18625 0.66739 0.94167 0.0
O250 O 0.21158 0.66525 0.9003 0.0
O251 O 0.19719 0.66207 0.93518 0.0
C252 C 0.2986 0.17527 0.89149 0.0
O253 O 0.289 0.18479 0.88877 0.0
Cd254 Cd 0.28743 0.20831 0.89918 0.0
O255 O 0.30835 0.17759 0.90106 0.0
Cd256 Cd 0.31442 0.19765 0.91831 0.0
C257 C 0.32195 0.21989 0.89024 0.0
O258 O 0.28968 0.20462 0.92457 0.0
O259 O 0.30619 0.22001 0.93042 0.0
O260 O 0.31961 0.1791 0.93641 0.0
C261 C 0.29292 0.21638 0.93087 0.0
O262 O 0.30823 0.22114 0.88882 0.0
C263 C 0.33102 0.18516 0.94123 0.0
O264 O 0.32735 0.2113 0.89965 0.0
O265 O 0.33515 0.19666 0.93485 0.0
C266 C 0.81741 0.29489 0.8965 0.0
O267 O 0.80832 0.28503 0.8933 0.0
Cd268 Cd 0.78372 0.28434 0.90103 0.0
O269 O 0.81423 0.30488 0.90556 0.0
Cd270 Cd 0.79378 0.31061 0.92252 0.0
C271 C 0.77333 0.31976 0.89349 0.0
O272 O 0.78582 0.28601 0.92658 0.0
O273 O 0.77128 0.30224 0.93485 0.0
O274 O 0.81126 0.31332 0.94197 0.0
C275 C 0.77421 0.28889 0.9333 0.0
O276 O 0.77293 0.30627 0.89048 0.0
C277 C 0.80693 0.32576 0.94602 0.0
O278 O 0.78032 0.32444 0.90446 0.0
O279 O 0.79672 0.3315 0.93872 0.0
C280 C 0.68859 0.81808 0.89741 0.0
O281 O 0.69895 0.80955 0.89428 0.0
Cd282 Cd 0.69979 0.78476 0.9011 0.0
O283 O 0.67836 0.8141 0.90586 0.0
Cd284 Cd 0.67329 0.79262 0.9218 0.0
C285 C 0.66499 0.77331 0.89214 0.0
O286 O 0.69828 0.78546 0.92686 0.0
O287 O 0.68207 0.76946 0.93192 0.0
O288 O 0.66862 0.8101 0.94099 0.0
C289 C 0.69531 0.7732 0.93229 0.0
O290 O 0.67859 0.77335 0.8895 0.0
C291 C 0.65737 0.80379 0.94584 0.0
O292 O 0.65984 0.77991 0.90311 0.0
O293 O 0.65316 0.79251 0.93914 0.0
C294 C 0.81709 0.68897 0.09452 0.0
O295 O 0.80785 0.69894 0.09679 0.0
Cd296 Cd 0.78378 0.69899 0.08757 0.0
O297 O 0.81435 0.67863 0.08572 0.0
Cd298 Cd 0.79439 0.67257 0.06821 0.0
C299 C 0.77357 0.66388 0.09671 0.0
O300 O 0.78654 0.69703 0.06206 0.0
O301 O 0.77112 0.68021 0.05728 0.0
O302 O 0.81284 0.66836 0.04975 0.0
C303 C 0.77454 0.69349 0.05636 0.0
O304 O 0.77224 0.67754 0.09849 0.0
C305 C 0.80704 0.65692 0.04473 0.0
O306 O 0.7817 0.65882 0.08675 0.0
O307 O 0.79573 0.65231 0.05114 0.0
C308 C 0.29652 0.81568 0.10449 0.0
O309 O 0.28776 0.80578 0.10839 0.0
Cd310 Cd 0.28762 0.7817 0.09926 0.0
O311 O 0.30583 0.81333 0.09451 0.0
Cd312 Cd 0.31211 0.79298 0.07782 0.0
C313 C 0.32318 0.77201 0.10571 0.0
O314 O 0.28762 0.78436 0.07347 0.0
O315 O 0.30465 0.76992 0.06651 0.0
O316 O 0.31359 0.81004 0.05787 0.0
C317 C 0.29121 0.77288 0.06684 0.0
O318 O 0.3098 0.77074 0.10897 0.0
C319 C 0.32622 0.80631 0.05379 0.0
O320 O 0.32722 0.77986 0.09509 0.0
O321 O 0.33262 0.79668 0.06131 0.0
C322 C 0.69238 0.1781 0.09859 0.0
O323 O 0.70094 0.18837 0.10197 0.0
Cd324 Cd 0.70211 0.2118 0.09121 0.0
O325 O 0.68334 0.17955 0.08818 0.0
Cd326 Cd 0.67693 0.19864 0.06999 0.0
C327 C 0.66628 0.22169 0.09662 0.0
O328 O 0.70144 0.20691 0.06605 0.0
O329 O 0.68516 0.22045 0.05633 0.0
O330 O 0.67538 0.17986 0.05167 0.0
C331 C 0.69854 0.2179 0.05837 0.0
O332 O 0.67976 0.22345 0.09925 0.0
C333 C 0.663 0.18357 0.04686 0.0
O334 O 0.66204 0.21272 0.08698 0.0
O335 O 0.65668 0.19401 0.05329 0.0
C336 C 0.8956 0.81415 0.69146 0.0
O337 O 0.89331 0.80487 0.70137 0.0
Cd338 Cd 0.90201 0.7807 0.70071 0.0
O339 O 0.9042 0.81138 0.68096 0.0
Cd340 Cd 0.9217 0.7915 0.67453 0.0
C341 C 0.89317 0.77079 0.66544 0.0
O342 O 0.92763 0.78319 0.69878 0.0
O343 O 0.93304 0.76823 0.68171 0.0
O344 O 0.94084 0.80937 0.67242 0.0
C345 C 0.93362 0.77141 0.69509 0.0
O346 O 0.89081 0.76997 0.67904 0.0
C347 C 0.9453 0.80537 0.66003 0.0
O348 O 0.90368 0.77826 0.66046 0.0
O349 O 0.93827 0.79519 0.65391 0.0
C350 C 0.17132 0.89103 0.69269 0.0
O351 O 0.18086 0.88695 0.70178 0.0
Cd352 Cd 0.20511 0.89559 0.70385 0.0
O353 O 0.17381 0.90137 0.68382 0.0
Cd354 Cd 0.19397 0.91917 0.67972 0.0
C355 C 0.21649 0.89223 0.66831 0.0
O356 O 0.20128 0.92101 0.7049 0.0
O357 O 0.21522 0.93218 0.68998 0.0
O358 O 0.17549 0.93792 0.67648 0.0
C359 C 0.21237 0.92886 0.70301 0.0
O360 O 0.21729 0.88797 0.68145 0.0
C361 C 0.18136 0.94347 0.66531 0.0
O362 O 0.20848 0.90292 0.66476 0.0
O363 O 0.19271 0.93728 0.6605 0.0
C364 C 0.09438 0.17402 0.69346 0.0
O365 O 0.09803 0.18302 0.70321 0.0
Cd366 Cd 0.09254 0.20816 0.70224 0.0
O367 O 0.08593 0.17774 0.68314 0.0
Cd368 Cd 0.07063 0.19939 0.67698 0.0
C369 C 0.10093 0.21647 0.66642 0.0
O370 O 0.06679 0.2093 0.70111 0.0
O371 O 0.06253 0.22403 0.68349 0.0
O372 O 0.04943 0.18391 0.676 0.0
C373 C 0.06228 0.22163 0.69703 0.0
O374 O 0.10397 0.21719 0.67989 0.0
C375 C 0.04535 0.18775 0.66342 0.0
O376 O 0.08944 0.21018 0.662 0.0
O377 O 0.05334 0.19685 0.6568 0.0
C378 C 0.8251 0.08756 0.67048 0.0
O379 O 0.82406 0.07739 0.67958 0.0
Cd380 Cd 0.79944 0.07152 0.67133 0.0
O381 O 0.81479 0.08885 0.66149 0.0
Cd382 Cd 0.79609 0.0678 0.66617 0.0
C383 C 0.77993 0.09084 0.65115 0.0
O384 O 0.78827 0.06825 0.69302 0.0
O385 O 0.77208 0.06172 0.67757 0.0
O386 O 0.81333 0.04745 0.66889 0.0
C387 C 0.77547 0.06384 0.69075 0.0
O388 O 0.78696 0.09416 0.66248 0.0
C389 C 0.80864 0.0405 0.65797 0.0
O390 O 0.7806 0.07777 0.64702 0.0
O391 O 0.79849 0.04638 0.65073 0.0
C392 C 0.90407 0.16657 0.32186 0.0
O393 O 0.91516 0.16738 0.31386 0.0
Cd394 Cd 0.92074 0.19195 0.32227 0.0
O395 O 0.90192 0.17706 0.33046 0.0
Cd396 Cd 0.92321 0.19569 0.32746 0.0
C397 C 0.89981 0.21147 0.34122 0.0
O398 O 0.92694 0.20244 0.30067 0.0
O399 O 0.92431 0.22018 0.31547 0.0
O400 O 0.9434 0.17789 0.32898 0.0
C401 C 0.92668 0.21601 0.30257 0.0
O402 O 0.89756 0.20515 0.32921 0.0
C403 C 0.95069 0.1853 0.33803 0.0
O404 O 0.9123 0.21007 0.34676 0.0
O405 O 0.94511 0.19717 0.34225 0.0
C406 C 0.81839 0.89301 0.29737 0.0
O407 O 0.80888 0.88929 0.2881 0.0
Cd408 Cd 0.78466 0.8981 0.28645 0.0
O409 O 0.81581 0.90297 0.30665 0.0
Cd410 Cd 0.79534 0.92035 0.31124 0.0
C411 C 0.77284 0.89302 0.32148 0.0
O412 O 0.78809 0.92368 0.28608 0.0
O413 O 0.77376 0.93325 0.30174 0.0
O414 O 0.81318 0.93952 0.31555 0.0
C415 C 0.77685 0.93118 0.28853 0.0
O416 O 0.77204 0.88934 0.30819 0.0
C417 C 0.807 0.94431 0.32691 0.0
O418 O 0.78092 0.90349 0.32549 0.0
O419 O 0.79589 0.93745 0.33134 0.0
C420 C 0.09952 0.81242 0.29934 0.0
O421 O 0.10316 0.80261 0.29037 0.0
Cd422 Cd 0.09381 0.77869 0.28903 0.0
O423 O 0.08948 0.81014 0.30864 0.0
Cd424 Cd 0.07222 0.78989 0.31468 0.0
C425 C 0.10028 0.76815 0.32444 0.0
O426 O 0.06831 0.78241 0.28979 0.0
O427 O 0.05891 0.76825 0.30569 0.0
O428 O 0.05404 0.80875 0.31867 0.0
C429 C 0.06082 0.77122 0.29241 0.0
O430 O 0.10326 0.7673 0.31097 0.0
C431 C 0.04871 0.80301 0.33001 0.0
O432 O 0.08977 0.77593 0.32896 0.0
O433 O 0.05479 0.79152 0.3346 0.0
C434 C 0.18101 0.09809 0.2969 0.0
O435 O 0.19136 0.10102 0.28827 0.0
Cd436 Cd 0.21461 0.09003 0.28803 0.0
O437 O 0.18228 0.08795 0.30625 0.0
Cd438 Cd 0.20141 0.06968 0.3128 0.0
C439 C 0.2238 0.0966 0.32362 0.0
O440 O 0.20971 0.0646 0.28831 0.0
O441 O 0.22388 0.05711 0.30525 0.0
O442 O 0.18229 0.05165 0.31659 0.0
C443 C 0.22095 0.05752 0.29183 0.0
O444 O 0.22595 0.09929 0.31023 0.0
C445 C 0.18766 0.04666 0.32827 0.0
O446 O 0.21494 0.08677 0.32758 0.0
O447 O 0.19904 0.05281 0.33304 0.0
C448 C 0.69079 0.89288 0.82073 0.0
O449 O 0.70012 0.88941 0.8112 0.0
Cd450 Cd 0.70049 0.89793 0.78701 0.0
O451 O 0.6812 0.90254 0.81805 0.0
Cd452 Cd 0.67554 0.91956 0.79752 0.0
C453 C 0.66462 0.89095 0.77782 0.0
O454 O 0.70013 0.92363 0.78899 0.0
O455 O 0.6833 0.92966 0.77396 0.0
O456 O 0.67467 0.93951 0.81456 0.0
C457 C 0.69671 0.92956 0.77709 0.0
O458 O 0.67809 0.88791 0.77688 0.0
C459 C 0.66261 0.94461 0.81026 0.0
O460 O 0.66024 0.9019 0.78503 0.0
O461 O 0.65601 0.93754 0.80043 0.0
C462 C 0.09692 0.69482 0.81543 0.0
O463 O 0.09917 0.70376 0.8052 0.0
Cd464 Cd 0.08759 0.70382 0.78217 0.0
O465 O 0.08716 0.68506 0.81423 0.0
Cd466 Cd 0.06872 0.67805 0.79553 0.0
C467 C 0.09543 0.66845 0.77247 0.0
O468 O 0.06227 0.70205 0.78677 0.0
O469 O 0.05624 0.68449 0.7727 0.0
O470 O 0.05006 0.67622 0.81398 0.0
C471 C 0.05571 0.69795 0.77544 0.0
O472 O 0.09701 0.68203 0.77041 0.0
C473 C 0.04567 0.66366 0.81039 0.0
O474 O 0.08633 0.66372 0.78176 0.0
O475 O 0.05261 0.65732 0.8003 0.0
C476 C 0.30136 0.0972 0.81717 0.0
O477 O 0.29219 0.10085 0.80755 0.0
Cd478 Cd 0.29186 0.09205 0.78337 0.0
O479 O 0.31081 0.08738 0.8147 0.0
Cd480 Cd 0.31561 0.06988 0.79444 0.0
C481 C 0.32757 0.09679 0.77286 0.0
O482 O 0.29078 0.06639 0.78626 0.0
O483 O 0.3072 0.05923 0.77129 0.0
O484 O 0.31669 0.04978 0.81143 0.0
C485 C 0.29384 0.05988 0.77458 0.0
O486 O 0.3143 0.10058 0.77169 0.0
C487 C 0.32893 0.04504 0.80722 0.0
O488 O 0.33124 0.08624 0.78099 0.0
O489 O 0.33537 0.05228 0.79742 0.0
C490 C 0.88889 0.29562 0.8162 0.0
O491 O 0.88544 0.28661 0.80637 0.0
Cd492 Cd 0.89485 0.28609 0.78245 0.0
O493 O 0.89872 0.30512 0.81396 0.0
Cd494 Cd 0.91586 0.31136 0.7938 0.0
C495 C 0.88787 0.32163 0.77259 0.0
O496 O 0.92053 0.28674 0.78553 0.0
O497 O 0.92754 0.30363 0.77106 0.0
O498 O 0.93481 0.31428 0.81202 0.0
C499 C 0.92709 0.2902 0.77398 0.0
O500 O 0.88507 0.30814 0.7714 0.0
C501 C 0.93966 0.32612 0.80692 0.0
O502 O 0.89827 0.32609 0.78053 0.0
O503 O 0.93299 0.33143 0.79608 0.0
C504 C 0.69447 0.09719 0.17015 0.0
O505 O 0.70385 0.10054 0.17969 0.0
Cd506 Cd 0.70509 0.0916 0.20383 0.0
O507 O 0.68495 0.0874 0.17254 0.0
Cd508 Cd 0.67955 0.06947 0.19226 0.0
C509 C 0.66914 0.09714 0.21408 0.0
O510 O 0.70421 0.06631 0.2003 0.0
O511 O 0.68837 0.05702 0.21459 0.0
O512 O 0.67808 0.05021 0.1744 0.0
C513 C 0.70166 0.05925 0.21177 0.0
O514 O 0.68262 0.10017 0.21519 0.0
C515 C 0.66583 0.04539 0.17851 0.0
O516 O 0.66483 0.08681 0.20596 0.0
O517 O 0.65952 0.05226 0.18867 0.0
C518 C 0.88647 0.68909 0.17746 0.0
O519 O 0.88293 0.69805 0.18731 0.0
Cd520 Cd 0.89353 0.70013 0.21079 0.0
O521 O 0.89677 0.68005 0.1795 0.0
Cd522 Cd 0.91421 0.67438 0.19951 0.0
C523 C 0.88709 0.66544 0.22281 0.0
O524 O 0.91895 0.69944 0.20623 0.0
O525 O 0.9282 0.68357 0.22056 0.0
O526 O 0.93202 0.66932 0.18058 0.0
C527 C 0.92671 0.69683 0.21724 0.0
O528 O 0.8847 0.679 0.22405 0.0
C529 C 0.93709 0.65801 0.18662 0.0
O530 O 0.89666 0.66073 0.214 0.0
O531 O 0.931 0.65393 0.19829 0.0
C532 C 0.29617 0.8978 0.17334 0.0
O533 O 0.2864 0.89463 0.18253 0.0
Cd534 Cd 0.28633 0.90206 0.20713 0.0
O535 O 0.30632 0.90673 0.17642 0.0
Cd536 Cd 0.31266 0.92367 0.19673 0.0
C537 C 0.32218 0.89417 0.21623 0.0
O538 O 0.28822 0.92754 0.20492 0.0
O539 O 0.30442 0.93581 0.21947 0.0
O540 O 0.31495 0.94305 0.17914 0.0
C541 C 0.29105 0.93416 0.21658 0.0
O542 O 0.30867 0.89118 0.21682 0.0
C543 C 0.32746 0.9472 0.1832 0.0
O544 O 0.32678 0.90535 0.20955 0.0
O545 O 0.33342 0.94002 0.19336 0.0
C546 C 0.09626 0.29762 0.17548 0.0
O547 O 0.0991 0.28831 0.18522 0.0
Cd548 Cd 0.08961 0.2881 0.20902 0.0
O549 O 0.08682 0.30754 0.17772 0.0
Cd550 Cd 0.06959 0.31411 0.1979 0.0
C551 C 0.09811 0.32345 0.21861 0.0
O552 O 0.06401 0.28969 0.20607 0.0
O553 O 0.05857 0.30659 0.22112 0.0
O554 O 0.0508 0.31731 0.17959 0.0
C555 C 0.05808 0.29323 0.21792 0.0
O556 O 0.10031 0.30985 0.21976 0.0
C557 C 0.04548 0.32876 0.1851 0.0
O558 O 0.08779 0.32841 0.21084 0.0
O559 O 0.05195 0.33392 0.19612 0.0
C560 C 0.81818 0.69451 0.89216 0.0
O561 O 0.8089 0.70422 0.88903 0.0
Cd562 Cd 0.78447 0.70503 0.89763 0.0
O563 O 0.81532 0.68463 0.90141 0.0
Cd564 Cd 0.79512 0.67876 0.91851 0.0
C565 C 0.77373 0.66981 0.89002 0.0
O566 O 0.78689 0.70329 0.92313 0.0
O567 O 0.7726 0.68661 0.93097 0.0
O568 O 0.81278 0.6762 0.93782 0.0
C569 C 0.77534 0.70004 0.92983 0.0
O570 O 0.77272 0.6834 0.88759 0.0
C571 C 0.80858 0.66375 0.94196 0.0
O572 O 0.7817 0.66501 0.90025 0.0
O573 O 0.7984 0.65788 0.93472 0.0
C574 C 0.81664 0.29941 0.0966 0.0
O575 O 0.80736 0.28953 0.09909 0.0
Cd576 Cd 0.78292 0.29022 0.09111 0.0
O577 O 0.81361 0.31006 0.08828 0.0
Cd578 Cd 0.79297 0.31682 0.07174 0.0
C579 C 0.77281 0.32515 0.10087 0.0
O580 O 0.78501 0.29243 0.06546 0.0
O581 O 0.76976 0.30938 0.06054 0.0
O582 O 0.81125 0.32132 0.05322 0.0
C583 C 0.77311 0.29608 0.05965 0.0
O584 O 0.77203 0.31151 0.10301 0.0
C585 C 0.80545 0.33286 0.04843 0.0
O586 O 0.78016 0.3303 0.09037 0.0
O587 O 0.79417 0.33737 0.05497 0.0
C588 C 0.69527 0.81449 0.09751 0.0
O589 O 0.705 0.80518 0.10048 0.0
Cd590 Cd 0.70552 0.78084 0.09177 0.0
O591 O 0.68521 0.81166 0.08842 0.0
Cd592 Cd 0.67892 0.79149 0.07147 0.0
C593 C 0.67038 0.77025 0.10011 0.0
O594 O 0.70341 0.7834 0.06629 0.0
O595 O 0.68664 0.76903 0.05881 0.0
O596 O 0.67579 0.80929 0.05242 0.0
C597 C 0.70009 0.77189 0.0596 0.0
O598 O 0.68403 0.76919 0.10227 0.0
C599 C 0.66334 0.80492 0.0484 0.0
O600 O 0.66541 0.77821 0.08996 0.0
O601 O 0.65774 0.79457 0.05561 0.0
C602 C 0.16986 0.69102 0.09825 0.0
O603 O 0.1795 0.70005 0.10223 0.0
Cd604 Cd 0.20379 0.70157 0.0939 0.0
O605 O 0.17245 0.68189 0.08815 0.0
Cd606 Cd 0.19293 0.67645 0.07099 0.0
C607 C 0.21384 0.66562 0.09916 0.0
O608 O 0.20126 0.70106 0.06843 0.0
O609 O 0.21558 0.68514 0.05923 0.0
O610 O 0.17556 0.67614 0.05131 0.0
C611 C 0.21283 0.69842 0.06153 0.0
O612 O 0.21438 0.67899 0.10263 0.0
C613 C 0.17969 0.66417 0.04589 0.0
O614 O 0.20657 0.6613 0.0882 0.0
O615 O 0.18953 0.6573 0.05273 0.0
C616 C 0.29782 0.17059 0.09462 0.0
O617 O 0.28767 0.1793 0.09799 0.0
Cd618 Cd 0.28615 0.2039 0.09047 0.0
O619 O 0.30756 0.17416 0.08543 0.0
Cd620 Cd 0.31223 0.19484 0.0684 0.0
C621 C 0.32152 0.21507 0.09747 0.0
O622 O 0.28732 0.20235 0.06488 0.0
O623 O 0.3032 0.21737 0.05674 0.0
O624 O 0.3146 0.17769 0.04865 0.0
C625 C 0.2899 0.21415 0.05836 0.0
O626 O 0.30805 0.21505 0.10069 0.0
C627 C 0.32681 0.18229 0.0442 0.0
O628 O 0.32623 0.20839 0.08633 0.0
O629 O 0.33265 0.19247 0.05145 0.0
C630 C 0.17402 0.302 0.8912 0.0
O631 O 0.18234 0.29157 0.88771 0.0
Cd632 Cd 0.20642 0.28855 0.89696 0.0
O633 O 0.17776 0.31104 0.90098 0.0
Cd634 Cd 0.198 0.31502 0.91838 0.0
C635 C 0.21932 0.3231 0.8897 0.0
O636 O 0.20418 0.28972 0.92262 0.0
O637 O 0.21953 0.30526 0.93087 0.0
O638 O 0.17929 0.31971 0.9364 0.0
C639 C 0.21583 0.29208 0.92954 0.0
O640 O 0.21944 0.30951 0.88714 0.0
C641 C 0.18553 0.3307 0.9419 0.0
O642 O 0.21188 0.32827 0.90015 0.0
O643 O 0.1973 0.33483 0.93599 0.0
C644 C 0.69204 0.17099 0.8945 0.0
O645 O 0.70145 0.18065 0.89163 0.0
Cd646 Cd 0.70142 0.20477 0.90086 0.0
O647 O 0.68189 0.1734 0.9036 0.0
Cd648 Cd 0.67561 0.19364 0.92053 0.0
C649 C 0.66641 0.21561 0.89288 0.0
O650 O 0.70016 0.2017 0.92644 0.0
O651 O 0.68315 0.21672 0.93184 0.0
O652 O 0.6714 0.1756 0.93941 0.0
C653 C 0.69651 0.21347 0.93249 0.0
O654 O 0.68002 0.21738 0.89099 0.0
C655 C 0.65972 0.18129 0.94403 0.0
O656 O 0.66171 0.20665 0.90229 0.0
O657 O 0.65504 0.19231 0.93721 0.0
C658 C 0.32287 0.82357 0.90327 0.0
O659 O 0.31479 0.8228 0.91429 0.0
Cd660 Cd 0.32254 0.7979 0.91954 0.0
O661 O 0.33119 0.81288 0.901 0.0
Cd662 Cd 0.32752 0.7942 0.92208 0.0
C663 C 0.34195 0.77856 0.899 0.0
O664 O 0.30052 0.78771 0.92485 0.0
O665 O 0.31531 0.76981 0.9232 0.0
O666 O 0.3284 0.81199 0.94228 0.0
C667 C 0.30234 0.77412 0.92496 0.0
O668 O 0.32999 0.78489 0.89648 0.0
C669 C 0.33731 0.80463 0.94978 0.0
O670 O 0.34714 0.77983 0.91163 0.0
O671 O 0.34178 0.7928 0.94432 0.0
C672 C 0.59831 0.67174 0.80058 0.0
O673 O 0.60128 0.68129 0.7911 0.0
Cd674 Cd 0.59188 0.70521 0.7904 0.0
O675 O 0.58881 0.67423 0.81035 0.0
Cd676 Cd 0.57156 0.6945 0.81626 0.0
C677 C 0.59992 0.71557 0.82555 0.0
O678 O 0.56618 0.70256 0.79167 0.0
O679 O 0.56034 0.71747 0.80864 0.0
O680 O 0.55261 0.67636 0.81951 0.0
C681 C 0.56 0.71429 0.79528 0.0
O682 O 0.60239 0.71653 0.81199 0.0
C683 C 0.54738 0.68194 0.83096 0.0
O684 O 0.58956 0.70781 0.83041 0.0
O685 O 0.55398 0.6929 0.83611 0.0
C686 C 0.32257 0.58775 0.81704 0.0
O687 O 0.32108 0.57732 0.8083 0.0
Cd688 Cd 0.2969 0.57167 0.81783 0.0
O689 O 0.31266 0.58937 0.82641 0.0
Cd690 Cd 0.29386 0.56818 0.82317 0.0
C691 C 0.27835 0.59147 0.83835 0.0
O692 O 0.2847 0.56805 0.79678 0.0
O693 O 0.26925 0.56196 0.81313 0.0
O694 O 0.31141 0.54829 0.81962 0.0
C695 C 0.27199 0.56381 0.79976 0.0
O696 O 0.28474 0.59441 0.82655 0.0
C697 C 0.30745 0.54117 0.83072 0.0
O698 O 0.27938 0.57857 0.84295 0.0
O699 O 0.29749 0.54674 0.83847 0.0
C700 C 0.38904 0.31297 0.78964 0.0
O701 O 0.38558 0.30302 0.78076 0.0
Cd702 Cd 0.39374 0.27854 0.78181 0.0
O703 O 0.39839 0.31072 0.7996 0.0
Cd704 Cd 0.41517 0.29077 0.80694 0.0
C705 C 0.38643 0.27078 0.81788 0.0
O706 O 0.41933 0.28072 0.78313 0.0
O707 O 0.42683 0.26732 0.80066 0.0
O708 O 0.43517 0.30786 0.80828 0.0
C709 C 0.42567 0.26921 0.78709 0.0
O710 O 0.38374 0.26878 0.80446 0.0
C711 C 0.43891 0.30458 0.82113 0.0
O712 O 0.39692 0.27886 0.82189 0.0
O713 O 0.43121 0.29517 0.82765 0.0
C714 C 0.67317 0.39211 0.80666 0.0
O715 O 0.68081 0.38819 0.79588 0.0
Cd716 Cd 0.70555 0.39527 0.79305 0.0
O717 O 0.67798 0.40145 0.81566 0.0
Cd718 Cd 0.69941 0.41769 0.81858 0.0
C719 C 0.71841 0.38802 0.8277 0.0
O720 O 0.70611 0.42115 0.79328 0.0
O721 O 0.72255 0.42666 0.80902 0.0
O722 O 0.68313 0.43815 0.82065 0.0
C723 C 0.71855 0.42647 0.79586 0.0
O724 O 0.7176 0.38471 0.8143 0.0
C725 C 0.68832 0.443 0.83244 0.0
O726 O 0.71243 0.39948 0.83259 0.0
O727 O 0.6985 0.4357 0.83825 0.0
C728 C 0.59742 0.31592 0.19049 0.0
O729 O 0.60091 0.30581 0.19919 0.0
Cd730 Cd 0.591 0.28201 0.20028 0.0
O731 O 0.5872 0.31413 0.18129 0.0
Cd732 Cd 0.56966 0.29427 0.17507 0.0
C733 C 0.59717 0.27219 0.16465 0.0
O734 O 0.56557 0.28565 0.19953 0.0
O735 O 0.55706 0.27178 0.18288 0.0
O736 O 0.55015 0.31189 0.1732 0.0
C737 C 0.55851 0.27434 0.19631 0.0
O738 O 0.59973 0.27053 0.17814 0.0
C739 C 0.54565 0.30769 0.16087 0.0
O740 O 0.58726 0.28082 0.16032 0.0
O741 O 0.5529 0.29771 0.15469 0.0
C742 C 0.68008 0.59928 0.19423 0.0
O743 O 0.69035 0.60262 0.20281 0.0
Cd744 Cd 0.7138 0.59188 0.20378 0.0
O745 O 0.68153 0.58891 0.18517 0.0
Cd746 Cd 0.70076 0.57078 0.17885 0.0
C747 C 0.72345 0.59774 0.16811 0.0
O748 O 0.70895 0.56663 0.20336 0.0
O749 O 0.72275 0.55733 0.18706 0.0
O750 O 0.68212 0.55226 0.17707 0.0
C751 C 0.71998 0.559 0.20042 0.0
O752 O 0.72538 0.60034 0.18155 0.0
C753 C 0.68604 0.54749 0.16476 0.0
O754 O 0.71456 0.58797 0.16399 0.0
O755 O 0.69648 0.55406 0.15857 0.0
C756 C 0.40171 0.67229 0.18923 0.0
O757 O 0.39983 0.68086 0.19985 0.0
Cd758 Cd 0.40744 0.70543 0.1999 0.0
O759 O 0.40951 0.676 0.1784 0.0
Cd760 Cd 0.42606 0.69664 0.17193 0.0
C761 C 0.39603 0.71614 0.16553 0.0
O762 O 0.43293 0.70446 0.19619 0.0
O763 O 0.4369 0.71991 0.17918 0.0
O764 O 0.44455 0.67853 0.16689 0.0
C765 C 0.43808 0.71665 0.19248 0.0
O766 O 0.39449 0.71634 0.17927 0.0
C767 C 0.44909 0.68442 0.1553 0.0
O768 O 0.40655 0.7094 0.1596 0.0
O769 O 0.44242 0.6957 0.151 0.0
C770 C 0.3215 0.40086 0.16589 0.0
O771 O 0.32088 0.41206 0.17372 0.0
Cd772 Cd 0.29594 0.41741 0.16605 0.0
O773 O 0.31072 0.39853 0.1577 0.0
Cd774 Cd 0.2927 0.42024 0.16096 0.0
C775 C 0.27651 0.39693 0.14701 0.0
O776 O 0.2857 0.42181 0.18798 0.0
O777 O 0.26841 0.42477 0.17264 0.0
O778 O 0.31136 0.43965 0.16055 0.0
C779 C 0.2724 0.42443 0.18582 0.0
O780 O 0.28221 0.39471 0.15932 0.0
C781 C 0.30468 0.44732 0.15124 0.0
O782 O 0.27871 0.40921 0.1413 0.0
O783 O 0.29284 0.44226 0.14634 0.0
C784 C 0.79989 0.59629 0.67297 0.0
O785 O 0.7906 0.60014 0.6824 0.0
Cd786 Cd 0.78913 0.59188 0.70673 0.0
O787 O 0.8092 0.5864 0.67581 0.0
Cd788 Cd 0.81464 0.56957 0.69655 0.0
C789 C 0.82477 0.59844 0.7168 0.0
O790 O 0.78971 0.56626 0.70445 0.0
O791 O 0.80578 0.55748 0.71885 0.0
O792 O 0.81809 0.55067 0.67839 0.0
C793 C 0.79245 0.55937 0.71599 0.0
O794 O 0.81132 0.60166 0.71742 0.0
C795 C 0.82943 0.54537 0.68418 0.0
O796 O 0.8292 0.58745 0.70969 0.0
O797 O 0.83429 0.55178 0.69538 0.0
C798 C 0.39106 0.80305 0.66562 0.0
O799 O 0.38698 0.79228 0.67317 0.0
Cd800 Cd 0.39435 0.78863 0.69771 0.0
O801 O 0.40079 0.8117 0.67033 0.0
Cd802 Cd 0.41751 0.81368 0.69145 0.0
C803 C 0.38853 0.82321 0.7114 0.0
O804 O 0.42023 0.78821 0.6982 0.0
O805 O 0.42647 0.80393 0.71438 0.0
O806 O 0.43839 0.81518 0.67557 0.0
C807 C 0.4257 0.79073 0.71058 0.0
O808 O 0.38481 0.80992 0.71044 0.0
C809 C 0.44323 0.82705 0.68061 0.0
O810 O 0.39995 0.82792 0.70517 0.0
O811 O 0.4357 0.83316 0.69043 0.0
C812 C 0.18645 0.39764 0.6692 0.0
O813 O 0.19631 0.3949 0.67843 0.0
Cd814 Cd 0.19733 0.40397 0.70255 0.0
O815 O 0.17632 0.40666 0.672 0.0
Cd816 Cd 0.1709 0.42371 0.69241 0.0
C817 C 0.16261 0.3958 0.71438 0.0
O818 O 0.19567 0.42949 0.69971 0.0
O819 O 0.1792 0.43468 0.71537 0.0
O820 O 0.16648 0.44278 0.67467 0.0
C821 C 0.19245 0.43532 0.71171 0.0
O822 O 0.17629 0.39396 0.7156 0.0
C823 C 0.15507 0.44759 0.68074 0.0
O824 O 0.15749 0.40532 0.70575 0.0
O825 O 0.15052 0.44071 0.69178 0.0
C826 C 0.60773 0.19809 0.6761 0.0
O827 O 0.61188 0.20715 0.68562 0.0
Cd828 Cd 0.60353 0.20862 0.71001 0.0
O829 O 0.59763 0.18903 0.67888 0.0
Cd830 Cd 0.58108 0.18351 0.69964 0.0
C831 C 0.60983 0.17317 0.7201 0.0
O832 O 0.57774 0.20826 0.70821 0.0
O833 O 0.56914 0.19165 0.72212 0.0
O834 O 0.56161 0.17978 0.68204 0.0
C835 C 0.57101 0.20505 0.71975 0.0
O836 O 0.61321 0.18654 0.72101 0.0
C837 C 0.5573 0.1679 0.68756 0.0
O838 O 0.59894 0.16901 0.71268 0.0
O839 O 0.56437 0.1631 0.69837 0.0
C840 C 0.79803 0.39227 0.31032 0.0
O841 O 0.78889 0.38998 0.30026 0.0
Cd842 Cd 0.78828 0.40173 0.27739 0.0
O843 O 0.80782 0.40198 0.3089 0.0
Cd844 Cd 0.81471 0.42009 0.28986 0.0
C845 C 0.82309 0.39311 0.26667 0.0
O846 O 0.79023 0.42691 0.28276 0.0
O847 O 0.80683 0.43322 0.26773 0.0
O848 O 0.81988 0.43711 0.30945 0.0
C849 C 0.79354 0.43367 0.2713 0.0
O850 O 0.80943 0.39186 0.26476 0.0
C851 C 0.83144 0.44209 0.30382 0.0
O852 O 0.82813 0.40205 0.27592 0.0
O853 O 0.83557 0.43637 0.29199 0.0
C854 C 0.5987 0.8046 0.31761 0.0
O855 O 0.60259 0.79413 0.30956 0.0
Cd856 Cd 0.59436 0.79139 0.2851 0.0
O857 O 0.58895 0.81348 0.31341 0.0
Cd858 Cd 0.57212 0.8166 0.29254 0.0
C859 C 0.60095 0.82622 0.27247 0.0
O860 O 0.56848 0.79144 0.28522 0.0
O861 O 0.563 0.80764 0.26925 0.0
O862 O 0.55174 0.818 0.30903 0.0
C863 C 0.56307 0.79438 0.27292 0.0
O864 O 0.60395 0.81271 0.27244 0.0
C865 C 0.54677 0.82993 0.30426 0.0
O866 O 0.59013 0.83105 0.27961 0.0
O867 O 0.55401 0.83614 0.29429 0.0
C868 C 0.18866 0.59829 0.31317 0.0
O869 O 0.19756 0.60275 0.30363 0.0
Cd870 Cd 0.19964 0.59478 0.27931 0.0
O871 O 0.17977 0.58801 0.31037 0.0
Cd872 Cd 0.17474 0.57138 0.28934 0.0
C873 C 0.1639 0.5999 0.26872 0.0
O874 O 0.19987 0.56926 0.28221 0.0
O875 O 0.18489 0.55938 0.2674 0.0
O876 O 0.17193 0.55236 0.30747 0.0
C877 C 0.19797 0.56205 0.27072 0.0
O878 O 0.17724 0.60356 0.26826 0.0
C879 C 0.16104 0.54641 0.30147 0.0
O880 O 0.15976 0.58881 0.27588 0.0
O881 O 0.156 0.55257 0.2902 0.0
C882 C 0.39127 0.19196 0.31792 0.0
O883 O 0.38674 0.20099 0.30854 0.0
Cd884 Cd 0.39679 0.20523 0.28499 0.0
O885 O 0.40245 0.18415 0.31545 0.0
Cd886 Cd 0.4202 0.18058 0.29542 0.0
C887 C 0.39323 0.17023 0.27235 0.0
O888 O 0.42235 0.20579 0.28827 0.0
O889 O 0.43265 0.19056 0.27393 0.0
O890 O 0.4402 0.17831 0.31251 0.0
C891 C 0.42981 0.20367 0.27694 0.0
O892 O 0.38968 0.18358 0.27162 0.0
C893 C 0.44458 0.1661 0.30783 0.0
O894 O 0.40342 0.16603 0.28073 0.0
O895 O 0.43717 0.16029 0.29775 0.0
C896 C 0.67046 0.79465 0.60003 0.0
O897 O 0.67943 0.78458 0.60289 0.0
Cd898 Cd 0.70402 0.78429 0.59478 0.0
O899 O 0.67378 0.80481 0.59126 0.0
Cd900 Cd 0.69438 0.81048 0.57469 0.0
C901 C 0.71461 0.8193 0.60364 0.0
O902 O 0.70299 0.78613 0.5691 0.0
O903 O 0.71803 0.80341 0.56448 0.0
O904 O 0.67764 0.8129 0.55461 0.0
C905 C 0.71504 0.79001 0.56372 0.0
O906 O 0.7156 0.80565 0.60574 0.0
C907 C 0.68182 0.82546 0.55079 0.0
O908 O 0.70685 0.82431 0.59335 0.0
O909 O 0.69157 0.83141 0.55854 0.0
C910 C 0.66949 0.19179 0.39105 0.0
O911 O 0.6783 0.20202 0.38834 0.0
Cd912 Cd 0.7027 0.20269 0.39663 0.0
O913 O 0.67281 0.18171 0.39994 0.0
Cd914 Cd 0.69315 0.17674 0.41734 0.0
C915 C 0.71389 0.16751 0.38893 0.0
O916 O 0.7011 0.2014 0.4223 0.0
O917 O 0.71642 0.18467 0.4279 0.0
O918 O 0.67602 0.17481 0.43715 0.0
C919 C 0.71311 0.19802 0.42809 0.0
O920 O 0.71418 0.18105 0.38613 0.0
C921 C 0.68036 0.16253 0.44164 0.0
O922 O 0.70667 0.16259 0.39964 0.0
O923 O 0.69033 0.15639 0.43432 0.0
C924 C 0.79565 0.67743 0.38821 0.0
O925 O 0.78734 0.68745 0.38365 0.0
Cd926 Cd 0.78642 0.71181 0.39214 0.0
O927 O 0.8044 0.67972 0.3987 0.0
Cd928 Cd 0.81039 0.70032 0.41534 0.0
C929 C 0.82258 0.72079 0.38734 0.0
O930 O 0.78592 0.70969 0.41772 0.0
O931 O 0.80253 0.72358 0.42635 0.0
O932 O 0.81087 0.68353 0.43562 0.0
C933 C 0.7891 0.72131 0.42428 0.0
O934 O 0.80925 0.72244 0.38398 0.0
C935 C 0.82329 0.68728 0.4403 0.0
O936 O 0.82627 0.71265 0.3979 0.0
O937 O 0.83007 0.69681 0.43299 0.0
C938 C 0.31806 0.79682 0.38604 0.0
O939 O 0.30923 0.78679 0.3827 0.0
Cd940 Cd 0.28453 0.78623 0.39027 0.0
O941 O 0.31448 0.80671 0.39502 0.0
Cd942 Cd 0.29343 0.81141 0.41149 0.0
C943 C 0.27307 0.82122 0.38293 0.0
O944 O 0.28537 0.78665 0.41612 0.0
O945 O 0.27003 0.80343 0.42159 0.0
O946 O 0.30971 0.81358 0.43202 0.0
C947 C 0.27335 0.79009 0.42186 0.0
O948 O 0.27283 0.80778 0.37971 0.0
C949 C 0.30533 0.82604 0.43594 0.0
O950 O 0.28018 0.82579 0.39385 0.0
O951 O 0.29571 0.83203 0.42807 0.0
C952 C 0.19802 0.31814 0.39296 0.0
O953 O 0.20776 0.30902 0.38947 0.0
Cd954 Cd 0.20835 0.2842 0.39668 0.0
O955 O 0.18806 0.31485 0.402 0.0
Cd956 Cd 0.18236 0.2939 0.41832 0.0
C957 C 0.17279 0.27407 0.38907 0.0
O958 O 0.20687 0.28499 0.42224 0.0
O959 O 0.18995 0.27043 0.42896 0.0
O960 O 0.18063 0.31045 0.43865 0.0
C961 C 0.20344 0.27301 0.428 0.0
O962 O 0.18638 0.27323 0.38648 0.0
C963 C 0.16823 0.30622 0.44294 0.0
O964 O 0.16805 0.28153 0.39971 0.0
O965 O 0.16196 0.29657 0.43533 0.0
C966 C 0.31832 0.18539 0.60363 0.0
O967 O 0.31036 0.19583 0.60786 0.0
Cd968 Cd 0.28606 0.19973 0.59951 0.0
O969 O 0.31402 0.17686 0.59362 0.0
Cd970 Cd 0.29326 0.17405 0.57665 0.0
C971 C 0.27182 0.16539 0.60508 0.0
O972 O 0.28761 0.19974 0.57369 0.0
O973 O 0.27235 0.1847 0.56429 0.0
O974 O 0.31143 0.16969 0.55803 0.0
C975 C 0.27608 0.19775 0.56643 0.0
O976 O 0.27272 0.1787 0.60872 0.0
C977 C 0.30513 0.15866 0.55271 0.0
O978 O 0.2785 0.16056 0.59399 0.0
O979 O 0.29355 0.15444 0.55893 0.0
C980 C 0.79775 0.31923 0.5916 0.0
O981 O 0.7879 0.31002 0.59447 0.0
Cd982 Cd 0.78717 0.28562 0.58606 0.0
O983 O 0.80792 0.3163 0.58267 0.0
Cd984 Cd 0.81412 0.29602 0.56575 0.0
C985 C 0.82235 0.27504 0.59462 0.0
O986 O 0.78951 0.28824 0.56067 0.0
O987 O 0.80603 0.27365 0.55314 0.0
O988 O 0.8184 0.31457 0.54749 0.0
C989 C 0.79262 0.27662 0.55408 0.0
O990 O 0.80868 0.27403 0.59665 0.0
C991 C 0.82997 0.3089 0.54258 0.0
O992 O 0.82745 0.28293 0.58447 0.0
O993 O 0.83459 0.29759 0.54896 0.0
C994 C 0.19614 0.67402 0.59997 0.0
O995 O 0.2055 0.68349 0.60357 0.0
Cd996 Cd 0.20548 0.70815 0.59591 0.0
O997 O 0.1863 0.67688 0.59064 0.0
Cd998 Cd 0.18014 0.69748 0.57407 0.0
C999 C 0.1696 0.71691 0.60322 0.0
O1000 O 0.20462 0.70666 0.57028 0.0
O1001 O 0.18757 0.72076 0.56299 0.0
O1002 O 0.17677 0.67961 0.55486 0.0
C1003 C 0.20108 0.71845 0.5642 0.0
O1004 O 0.18308 0.71849 0.606 0.0
C1005 C 0.16507 0.68513 0.55007 0.0
O1006 O 0.16542 0.70919 0.59255 0.0
O1007 O 0.16011 0.69609 0.55678 0.0
C1008 C 0.38999 0.31853 0.18279 0.0
O1009 O 0.3862 0.31096 0.19365 0.0
Cd1010 Cd 0.39424 0.28669 0.19737 0.0
O1011 O 0.39965 0.31394 0.17399 0.0
Cd1012 Cd 0.4167 0.29299 0.17183 0.0
C1013 C 0.3878 0.2726 0.16306 0.0
O1014 O 0.42015 0.28755 0.19753 0.0
O1015 O 0.42675 0.27087 0.18257 0.0
O1016 O 0.43591 0.31065 0.1677 0.0
C1017 C 0.42613 0.27533 0.19555 0.0
O1018 O 0.38437 0.27356 0.17642 0.0
C1019 C 0.44161 0.30399 0.15707 0.0
O1020 O 0.39902 0.27898 0.15809 0.0
O1021 O 0.43535 0.29243 0.1529 0.0
C1022 C 0.67107 0.3947 0.19111 0.0
O1023 O 0.67997 0.39161 0.20117 0.0
Cd1024 Cd 0.70458 0.39932 0.20213 0.0
O1025 O 0.67448 0.40361 0.18106 0.0
Cd1026 Cd 0.69538 0.42032 0.17578 0.0
C1027 C 0.71584 0.39114 0.16725 0.0
O1028 O 0.70294 0.42499 0.20067 0.0
O1029 O 0.71775 0.43241 0.18427 0.0
O1030 O 0.67752 0.43938 0.17155 0.0
C1031 C 0.71463 0.43153 0.19762 0.0
O1032 O 0.71598 0.38832 0.18078 0.0
C1033 C 0.68351 0.44422 0.16012 0.0
O1034 O 0.70891 0.40202 0.16228 0.0
O1035 O 0.69459 0.43741 0.15552 0.0
C1036 C 0.6012 0.67316 0.19367 0.0
O1037 O 0.60427 0.68266 0.20316 0.0
Cd1038 Cd 0.59549 0.70694 0.20392 0.0
O1039 O 0.59191 0.67572 0.1837 0.0
Cd1040 Cd 0.57469 0.69575 0.17735 0.0
C1041 C 0.60314 0.71737 0.16858 0.0
O1042 O 0.57013 0.70369 0.20184 0.0
O1043 O 0.56172 0.718 0.18551 0.0
O1044 O 0.55553 0.67799 0.17418 0.0
C1045 C 0.56317 0.71513 0.19888 0.0
O1046 O 0.60549 0.7185 0.18217 0.0
C1047 C 0.55154 0.68242 0.16176 0.0
O1048 O 0.59298 0.70929 0.16379 0.0
O1049 O 0.5588 0.69275 0.15621 0.0
C1050 C 0.3198 0.60249 0.19033 0.0
O1051 O 0.31008 0.60619 0.19938 0.0
Cd1052 Cd 0.28594 0.59707 0.19998 0.0
O1053 O 0.31729 0.59258 0.18099 0.0
Cd1054 Cd 0.29689 0.57568 0.17514 0.0
C1055 C 0.27558 0.60337 0.16447 0.0
O1056 O 0.28808 0.57131 0.19964 0.0
O1057 O 0.27368 0.56471 0.18245 0.0
O1058 O 0.31367 0.55545 0.17401 0.0
C1059 C 0.27642 0.56502 0.19592 0.0
O1060 O 0.27463 0.60646 0.17791 0.0
C1061 C 0.31003 0.55133 0.16139 0.0
O1062 O 0.28344 0.59287 0.1601 0.0
O1063 O 0.30064 0.55899 0.1548 0.0
C1064 C 0.38924 0.67168 0.80081 0.0
O1065 O 0.38426 0.68052 0.79147 0.0
Cd1066 Cd 0.39309 0.70458 0.7876 0.0
O1067 O 0.40032 0.67492 0.80847 0.0
Cd1068 Cd 0.41814 0.6951 0.8106 0.0
C1069 C 0.39159 0.71776 0.82257 0.0
O1070 O 0.41872 0.70192 0.78518 0.0
O1071 O 0.42994 0.71642 0.79964 0.0
O1072 O 0.4382 0.67798 0.81165 0.0
C1073 C 0.42636 0.71323 0.78675 0.0
O1074 O 0.38658 0.71779 0.80969 0.0
C1075 C 0.44323 0.68249 0.82366 0.0
O1076 O 0.40265 0.71014 0.82592 0.0
O1077 O 0.43626 0.69262 0.8299 0.0
C1078 C 0.31097 0.38738 0.78934 0.0
O1079 O 0.30034 0.38403 0.7812 0.0
Cd1080 Cd 0.27692 0.39497 0.78112 0.0
O1081 O 0.30985 0.39768 0.79852 0.0
Cd1082 Cd 0.29069 0.41537 0.80584 0.0
C1083 C 0.26814 0.38833 0.8167 0.0
O1084 O 0.28211 0.42025 0.78149 0.0
O1085 O 0.26903 0.42959 0.79834 0.0
O1086 O 0.30991 0.43322 0.80966 0.0
C1087 C 0.2714 0.42813 0.78488 0.0
O1088 O 0.26557 0.38599 0.80332 0.0
C1089 C 0.30493 0.43769 0.82171 0.0
O1090 O 0.27736 0.39787 0.82055 0.0
O1091 O 0.29375 0.4313 0.82661 0.0
C1092 C 0.58973 0.32505 0.82297 0.0
O1093 O 0.57861 0.32434 0.81501 0.0
Cd1094 Cd 0.57319 0.29947 0.82279 0.0
O1095 O 0.59204 0.31434 0.83124 0.0
Cd1096 Cd 0.57075 0.29598 0.82775 0.0
C1097 C 0.5937 0.28006 0.84213 0.0
O1098 O 0.56794 0.28939 0.80083 0.0
O1099 O 0.57001 0.27153 0.8156 0.0
O1100 O 0.55046 0.31373 0.8283 0.0
C1101 C 0.56811 0.2758 0.80265 0.0
O1102 O 0.59598 0.28568 0.82978 0.0
C1103 C 0.54273 0.30626 0.83693 0.0
O1104 O 0.58139 0.28232 0.84778 0.0
O1105 O 0.54821 0.29449 0.84155 0.0
C1106 C 0.67377 0.59511 0.80193 0.0
O1107 O 0.68242 0.59822 0.79166 0.0
Cd1108 Cd 0.70718 0.59097 0.79054 0.0
O1109 O 0.67762 0.58661 0.81215 0.0
Cd1110 Cd 0.69927 0.57098 0.81741 0.0
C1111 C 0.71882 0.6008 0.82492 0.0
O1112 O 0.70631 0.56529 0.79253 0.0
O1113 O 0.72258 0.56107 0.8087 0.0
O1114 O 0.68227 0.55149 0.82287 0.0
C1115 C 0.71868 0.56012 0.79556 0.0
O1116 O 0.71937 0.60264 0.81122 0.0
C1117 C 0.68899 0.54701 0.83403 0.0
O1118 O 0.71147 0.59042 0.83035 0.0
O1119 O 0.70017 0.55411 0.83788 0.0
C1120 C 0.19744 0.39042 0.31374 0.0
O1121 O 0.20594 0.38638 0.30368 0.0
Cd1122 Cd 0.20499 0.39414 0.2792 0.0
O1123 O 0.18794 0.40025 0.31142 0.0
Cd1124 Cd 0.18117 0.41659 0.29066 0.0
C1125 C 0.16859 0.38779 0.27215 0.0
O1126 O 0.2051 0.41993 0.27992 0.0
O1127 O 0.18705 0.42557 0.26619 0.0
O1128 O 0.18131 0.43771 0.30641 0.0
C1129 C 0.20069 0.42528 0.26806 0.0
O1130 O 0.1819 0.38439 0.27042 0.0
C1131 C 0.16861 0.442 0.30318 0.0
O1132 O 0.16493 0.3989 0.27949 0.0
O1133 O 0.1614 0.4341 0.29447 0.0
C1134 C 0.59852 0.18888 0.30979 0.0
O1135 O 0.60161 0.19794 0.29988 0.0
Cd1136 Cd 0.59119 0.19855 0.27635 0.0
O1137 O 0.5887 0.1793 0.30778 0.0
Cd1138 Cd 0.57133 0.17283 0.28789 0.0
C1139 C 0.59902 0.16335 0.26602 0.0
O1140 O 0.5657 0.19749 0.28039 0.0
O1141 O 0.55944 0.18093 0.26523 0.0
O1142 O 0.55348 0.16923 0.30703 0.0
C1143 C 0.55916 0.19421 0.26878 0.0
O1144 O 0.60087 0.17695 0.26436 0.0
C1145 C 0.54777 0.158 0.30147 0.0
O1146 O 0.58944 0.15854 0.27476 0.0
O1147 O 0.55354 0.15317 0.28992 0.0
C1148 C 0.79696 0.59311 0.32114 0.0
O1149 O 0.78703 0.59504 0.31178 0.0
Cd1150 Cd 0.78775 0.586 0.28763 0.0
O1151 O 0.80764 0.58468 0.31853 0.0
Cd1152 Cd 0.81466 0.56735 0.29883 0.0
C1153 C 0.82286 0.59602 0.27802 0.0
O1154 O 0.7908 0.56057 0.28979 0.0
O1155 O 0.80855 0.55649 0.27517 0.0
O1156 O 0.8172 0.54797 0.31634 0.0
C1157 C 0.79511 0.55519 0.2779 0.0
O1158 O 0.80915 0.59743 0.27658 0.0
C1159 C 0.82976 0.54397 0.3123 0.0
O1160 O 0.82815 0.58621 0.28621 0.0
O1161 O 0.83579 0.55146 0.3024 0.0
C1162 C 0.39272 0.7988 0.30867 0.0
O1163 O 0.38953 0.78985 0.29869 0.0
Cd1164 Cd 0.39906 0.78925 0.27487 0.0
O1165 O 0.40247 0.80847 0.30668 0.0
Cd1166 Cd 0.41974 0.81528 0.28666 0.0
C1167 C 0.39121 0.82464 0.26537 0.0
O1168 O 0.42446 0.7906 0.27913 0.0
O1169 O 0.43337 0.80678 0.26498 0.0
O1170 O 0.4378 0.81984 0.30552 0.0
C1171 C 0.43198 0.79345 0.26803 0.0
O1172 O 0.38861 0.81113 0.26416 0.0
C1173 C 0.44285 0.83126 0.29967 0.0
O1174 O 0.4017 0.82925 0.27311 0.0
O1175 O 0.4366 0.83565 0.2882 0.0
C1176 C 0.19364 0.60103 0.67909 0.0
O1177 O 0.20213 0.60427 0.68945 0.0
Cd1178 Cd 0.20134 0.59425 0.71316 0.0
O1179 O 0.184 0.5912 0.68068 0.0
Cd1180 Cd 0.17652 0.57398 0.70029 0.0
C1181 C 0.16548 0.60167 0.7214 0.0
O1182 O 0.20045 0.56868 0.70997 0.0
O1183 O 0.18275 0.56278 0.72393 0.0
O1184 O 0.17527 0.55461 0.68256 0.0
C1185 C 0.19631 0.56264 0.72157 0.0
O1186 O 0.17896 0.60384 0.72372 0.0
C1187 C 0.16255 0.55042 0.68584 0.0
O1188 O 0.16131 0.59188 0.71258 0.0
O1189 O 0.15599 0.55756 0.69564 0.0
C1190 C 0.40503 0.16823 0.66669 0.0
O1191 O 0.41566 0.17682 0.6676 0.0
Cd1192 Cd 0.42228 0.16764 0.69163 0.0
O1193 O 0.40368 0.15905 0.67681 0.0
Cd1194 Cd 0.42524 0.16244 0.69506 0.0
C1195 C 0.40272 0.14748 0.7112 0.0
O1196 O 0.42774 0.189 0.70282 0.0
O1197 O 0.42727 0.17336 0.72004 0.0
O1198 O 0.44548 0.16503 0.67766 0.0
C1199 C 0.42858 0.18653 0.71627 0.0
O1200 O 0.39983 0.15942 0.70503 0.0
C1201 C 0.453 0.15478 0.68297 0.0
O1202 O 0.41543 0.1425 0.70957 0.0
O1203 O 0.44743 0.14777 0.69344 0.0
C1204 C 0.79678 0.39029 0.67224 0.0
O1205 O 0.78787 0.38646 0.68204 0.0
Cd1206 Cd 0.78689 0.39494 0.70629 0.0
O1207 O 0.80612 0.40027 0.67461 0.0
Cd1208 Cd 0.81243 0.4173 0.69489 0.0
C1209 C 0.8229 0.38873 0.71556 0.0
O1210 O 0.78794 0.42042 0.70354 0.0
O1211 O 0.80425 0.42969 0.71736 0.0
O1212 O 0.8137 0.43692 0.67743 0.0
C1213 C 0.79089 0.42747 0.71492 0.0
O1214 O 0.80946 0.38553 0.71643 0.0
C1215 C 0.82606 0.44159 0.68141 0.0
O1216 O 0.82725 0.39963 0.70824 0.0
O1217 O 0.83254 0.43445 0.69128 0.0
C1218 C 0.59798 0.79763 0.67968 0.0
O1219 O 0.60134 0.78882 0.68973 0.0
Cd1220 Cd 0.59154 0.78751 0.71339 0.0
O1221 O 0.58792 0.80704 0.68151 0.0
Cd1222 Cd 0.57026 0.81357 0.70131 0.0
C1223 C 0.5981 0.82307 0.72352 0.0
O1224 O 0.56635 0.78876 0.70839 0.0
O1225 O 0.5562 0.8042 0.72247 0.0
O1226 O 0.55254 0.81802 0.68212 0.0
C1227 C 0.55848 0.79101 0.71937 0.0
O1228 O 0.60097 0.80959 0.72455 0.0
C1229 C 0.54712 0.82925 0.688 0.0
O1230 O 0.58773 0.82762 0.71557 0.0
O1231 O 0.55299 0.83359 0.69968 0.0
C1232 C 0.32439 0.17226 0.40146 0.0
O1233 O 0.32489 0.1791 0.4133 0.0
Cd1234 Cd 0.29971 0.17175 0.41937 0.0
O1235 O 0.31316 0.16472 0.39922 0.0
Cd1236 Cd 0.29617 0.16688 0.42182 0.0
C1237 C 0.27935 0.15261 0.39952 0.0
O1238 O 0.28905 0.19339 0.42576 0.0
O1239 O 0.27151 0.17809 0.42492 0.0
O1240 O 0.31395 0.1675 0.44209 0.0
C1241 C 0.27554 0.19114 0.42668 0.0
O1242 O 0.28549 0.16461 0.39682 0.0
C1243 C 0.30862 0.15657 0.44854 0.0
O1244 O 0.28115 0.14736 0.41206 0.0
O1245 O 0.29793 0.15034 0.44247 0.0
C1246 C 0.32096 0.82249 0.58556 0.0
O1247 O 0.31992 0.81503 0.57414 0.0
Cd1248 Cd 0.29472 0.82266 0.57008 0.0
O1249 O 0.31022 0.83048 0.58864 0.0
Cd1250 Cd 0.29111 0.82744 0.56779 0.0
C1251 C 0.27581 0.84172 0.59122 0.0
O1252 O 0.28469 0.80057 0.56467 0.0
O1253 O 0.26669 0.81514 0.56701 0.0
O1254 O 0.30883 0.8287 0.54753 0.0
C1255 C 0.27107 0.80226 0.56488 0.0
O1256 O 0.28222 0.82978 0.59358 0.0
C1257 C 0.3013 0.83748 0.54005 0.0
O1258 O 0.27688 0.84696 0.57859 0.0
O1259 O 0.28938 0.84171 0.54553 0.0
C1260 C 0.191 0.31693 0.59819 0.0
O1261 O 0.20064 0.30775 0.60178 0.0
Cd1262 Cd 0.20277 0.28377 0.59287 0.0
O1263 O 0.18172 0.31395 0.58834 0.0
Cd1264 Cd 0.17706 0.29309 0.57145 0.0
C1265 C 0.16784 0.27199 0.59989 0.0
O1266 O 0.20224 0.28617 0.5672 0.0
O1267 O 0.18635 0.27049 0.56055 0.0
O1268 O 0.17311 0.31087 0.55227 0.0
C1269 C 0.19959 0.27419 0.56105 0.0
O1270 O 0.18138 0.27164 0.60277 0.0
C1271 C 0.16205 0.30461 0.54692 0.0
O1272 O 0.16297 0.27941 0.58929 0.0
O1273 O 0.15749 0.29337 0.55346 0.0
C1274 C 0.67795 0.19179 0.59483 0.0
O1275 O 0.6877 0.2011 0.59768 0.0
Cd1276 Cd 0.71167 0.20064 0.58834 0.0
O1277 O 0.68018 0.18173 0.58558 0.0
Cd1278 Cd 0.70006 0.17563 0.56796 0.0
C1279 C 0.7217 0.16521 0.59546 0.0
O1280 O 0.70787 0.2003 0.56275 0.0
O1281 O 0.7228 0.18367 0.5561 0.0
O1282 O 0.6812 0.17172 0.54977 0.0
C1283 C 0.71942 0.19699 0.5561 0.0
O1284 O 0.72323 0.17867 0.59828 0.0
C1285 C 0.68681 0.16025 0.54461 0.0
O1286 O 0.71335 0.16101 0.5853 0.0
O1287 O 0.69827 0.1556 0.55071 0.0
C1288 C 0.80219 0.66956 0.59519 0.0
O1289 O 0.79221 0.67817 0.59923 0.0
Cd1290 Cd 0.79067 0.70309 0.59305 0.0
O1291 O 0.81183 0.67352 0.58605 0.0
Cd1292 Cd 0.81598 0.69531 0.57013 0.0
C1293 C 0.82602 0.71435 0.59972 0.0
O1294 O 0.79073 0.70248 0.56736 0.0
O1295 O 0.80625 0.71808 0.55968 0.0
O1296 O 0.81915 0.67829 0.55019 0.0
C1297 C 0.79305 0.71453 0.56123 0.0
O1298 O 0.81264 0.71411 0.60326 0.0
C1299 C 0.83011 0.68464 0.54475 0.0
O1300 O 0.83049 0.7081 0.58824 0.0
O1301 O 0.83501 0.69556 0.55159 0.0
C1302 C 0.66685 0.82153 0.40039 0.0
O1303 O 0.66781 0.81348 0.41142 0.0
Cd1304 Cd 0.69229 0.82225 0.41701 0.0
O1305 O 0.67723 0.83028 0.39825 0.0
Cd1306 Cd 0.69586 0.82745 0.41957 0.0
C1307 C 0.71161 0.84171 0.39647 0.0
O1308 O 0.7031 0.80079 0.42321 0.0
O1309 O 0.72061 0.81596 0.42089 0.0
O1310 O 0.67789 0.82841 0.43959 0.0
C1311 C 0.71665 0.80297 0.42318 0.0
O1312 O 0.7055 0.82964 0.394 0.0
C1313 C 0.68508 0.83753 0.44701 0.0
O1314 O 0.70999 0.84707 0.40899 0.0
O1315 O 0.69689 0.84208 0.44156 0.0
C1316 C 0.18969 0.66691 0.39492 0.0
O1317 O 0.19979 0.67549 0.39113 0.0
Cd1318 Cd 0.20121 0.70039 0.39751 0.0
O1319 O 0.18005 0.67076 0.40409 0.0
Cd1320 Cd 0.17592 0.69192 0.42071 0.0
C1321 C 0.1654 0.71104 0.39143 0.0
O1322 O 0.20082 0.69987 0.42309 0.0
O1323 O 0.185 0.71503 0.43108 0.0
O1324 O 0.17517 0.67524 0.44091 0.0
C1325 C 0.19827 0.71192 0.42915 0.0
O1326 O 0.17877 0.71087 0.38781 0.0
C1327 C 0.16323 0.67977 0.44612 0.0
O1328 O 0.16101 0.70481 0.40297 0.0
O1329 O 0.15667 0.68964 0.43904 0.0
C1330 C 0.79668 0.31655 0.38768 0.0
O1331 O 0.78776 0.30673 0.38396 0.0
Cd1332 Cd 0.78678 0.28273 0.39341 0.0
O1333 O 0.80575 0.31449 0.39795 0.0
Cd1334 Cd 0.81072 0.29501 0.41618 0.0
C1335 C 0.82257 0.27213 0.38988 0.0
O1336 O 0.78594 0.28674 0.41884 0.0
O1337 O 0.80181 0.27329 0.42938 0.0
O1338 O 0.81205 0.31302 0.43535 0.0
C1339 C 0.78854 0.27577 0.42666 0.0
O1340 O 0.80941 0.27094 0.38576 0.0
C1341 C 0.82451 0.30924 0.43991 0.0
O1342 O 0.82604 0.28046 0.40034 0.0
O1343 O 0.83087 0.29913 0.43302 0.0
H1344 H 0.10429 0.2201 0.352 0.0
H1345 H 0.12773 0.23741 0.31521 0.0
H1346 H 0.12017 0.23365 0.36837 0.0
H1347 H 0.14337 0.25101 0.33152 0.0
H1348 H 0.17918 0.25837 0.3648 0.0
H1349 H 0.16252 0.24533 0.34906 0.0
H1350 H 0.12638 0.25891 0.3757 0.0
H1351 H 0.14313 0.2719 0.39169 0.0
C1352 C 0.11276 0.22683 0.34739 0.0
C1353 C 0.11478 0.22759 0.33228 0.0
C1354 C 0.1218 0.23466 0.35677 0.0
C1355 C 0.13307 0.24333 0.35123 0.0
C1356 C 0.13493 0.24425 0.33613 0.0
C1357 C 0.1259 0.23648 0.32678 0.0
C1358 C 0.16769 0.25862 0.36735 0.0
C1359 C 0.1625 0.26623 0.37951 0.0
C1360 C 0.15813 0.25119 0.35826 0.0
C1361 C 0.14313 0.25116 0.36109 0.0
C1362 C 0.1379 0.25866 0.3733 0.0
C1363 C 0.14749 0.26616 0.3824 0.0
H1364 H 0.71939 0.17024 0.36014 0.0
H1365 H 0.72715 0.14224 0.39686 0.0
H1366 H 0.73353 0.15415 0.34478 0.0
H1367 H 0.74226 0.12657 0.38181 0.0
H1368 H 0.75866 0.0943 0.34811 0.0
H1369 H 0.74344 0.10943 0.36362 0.0
H1370 H 0.75675 0.14736 0.33929 0.0
H1371 H 0.771 0.13204 0.32329 0.0
C1372 C 0.72428 0.16068 0.36493 0.0
C1373 C 0.72222 0.15748 0.37966 0.0
C1374 C 0.73253 0.15149 0.35617 0.0
C1375 C 0.73929 0.13907 0.36201 0.0
C1376 C 0.7371 0.13586 0.3768 0.0
C1377 C 0.7285 0.14488 0.38548 0.0
C1378 C 0.75828 0.10589 0.34616 0.0
C1379 C 0.76589 0.11201 0.33447 0.0
C1380 C 0.74962 0.11461 0.35508 0.0
C1381 C 0.74869 0.12969 0.35272 0.0
C1382 C 0.75676 0.13578 0.34125 0.0
C1383 C 0.76508 0.12703 0.33213 0.0
H1384 H 0.81841 0.73658 0.36272 0.0
H1385 H 0.85209 0.72196 0.39201 0.0
H1386 H 0.83658 0.7484 0.34774 0.0
H1387 H 0.87039 0.73386 0.37679 0.0
H1388 H 0.89463 0.77196 0.35222 0.0
H1389 H 0.87787 0.75935 0.36858 0.0
H1390 H 0.85656 0.73982 0.3317 0.0
H1391 H 0.87307 0.75234 0.31542 0.0
C1392 C 0.82969 0.73588 0.36599 0.0
C1393 C 0.83379 0.72824 0.37855 0.0
C1394 C 0.84012 0.74261 0.35734 0.0
C1395 C 0.8549 0.74193 0.36103 0.0
C1396 C 0.85905 0.73457 0.37373 0.0
C1397 C 0.84858 0.72772 0.38238 0.0
C1398 C 0.88642 0.7649 0.34763 0.0
C1399 C 0.88511 0.76328 0.3325 0.0
C1400 C 0.87689 0.75764 0.35699 0.0
C1401 C 0.86583 0.74874 0.35138 0.0
C1402 C 0.86483 0.7468 0.33631 0.0
C1403 C 0.87435 0.75396 0.32699 0.0
H1404 H 0.21721 0.86103 0.31821 0.0
H1405 H 0.22853 0.89659 0.34645 0.0
H1406 H 0.23103 0.84445 0.33337 0.0
H1407 H 0.24339 0.88033 0.36109 0.0
H1408 H 0.2593 0.84568 0.3921 0.0
H1409 H 0.24427 0.86207 0.37783 0.0
H1410 H 0.25384 0.83693 0.3393 0.0
H1411 H 0.26785 0.82 0.35392 0.0
C1412 C 0.22282 0.86529 0.32763 0.0
C1413 C 0.22182 0.88005 0.33119 0.0
C1414 C 0.2309 0.85582 0.33627 0.0
C1415 C 0.23857 0.86097 0.34846 0.0
C1416 C 0.23748 0.87582 0.352 0.0
C1417 C 0.22903 0.8852 0.34356 0.0
C1418 C 0.25814 0.84371 0.38056 0.0
C1419 C 0.26466 0.83157 0.37409 0.0
C1420 C 0.24959 0.85317 0.37232 0.0
C1421 C 0.24771 0.85091 0.35732 0.0
C1422 C 0.25461 0.83889 0.35085 0.0
C1423 C 0.2628 0.82922 0.35918 0.0
H1424 H 0.17445 0.73223 0.62811 0.0
H1425 H 0.14005 0.71781 0.59957 0.0
H1426 H 0.15657 0.74393 0.64365 0.0
H1427 H 0.12214 0.72945 0.61528 0.0
H1428 H 0.0977 0.76691 0.63892 0.0
H1429 H 0.11472 0.75437 0.62291 0.0
H1430 H 0.13682 0.73658 0.66023 0.0
H1431 H 0.12001 0.74916 0.67623 0.0
C1432 C 0.16308 0.73153 0.62515 0.0
C1433 C 0.15869 0.72406 0.6126 0.0
C1434 C 0.15283 0.73817 0.63411 0.0
C1435 C 0.13796 0.73755 0.63071 0.0
C1436 C 0.13354 0.73019 0.61811 0.0
C1437 C 0.1438 0.72347 0.60917 0.0
C1438 C 0.10614 0.76026 0.64371 0.0
C1439 C 0.10754 0.75912 0.65886 0.0
C1440 C 0.11584 0.75303 0.63453 0.0
C1441 C 0.12716 0.74459 0.64033 0.0
C1442 C 0.12835 0.7432 0.65546 0.0
C1443 C 0.11864 0.75035 0.66461 0.0
H1444 H 0.26701 0.16725 0.63402 0.0
H1445 H 0.25707 0.14114 0.59645 0.0
H1446 H 0.25278 0.15109 0.64914 0.0
H1447 H 0.24186 0.12537 0.61137 0.0
H1448 H 0.22685 0.09196 0.64518 0.0
H1449 H 0.2411 0.10746 0.62905 0.0
H1450 H 0.22954 0.14479 0.65513 0.0
H1451 H 0.21634 0.1291 0.67165 0.0
C1452 C 0.26157 0.15812 0.62897 0.0
C1453 C 0.26308 0.15546 0.61408 0.0
C1454 C 0.25327 0.14889 0.63761 0.0
C1455 C 0.24591 0.13696 0.63151 0.0
C1456 C 0.24748 0.1343 0.61654 0.0
C1457 C 0.25612 0.14338 0.60795 0.0
C1458 C 0.22738 0.1035 0.64735 0.0
C1459 C 0.22068 0.10935 0.6597 0.0
C1460 C 0.23548 0.11243 0.63808 0.0
C1461 C 0.23671 0.12743 0.64083 0.0
C1462 C 0.22933 0.13326 0.65287 0.0
C1463 C 0.22162 0.1243 0.6623 0.0
H1464 H 0.85213 0.27407 0.59359 0.0
H1465 H 0.81522 0.25783 0.61767 0.0
H1466 H 0.86848 0.26114 0.60998 0.0
H1467 H 0.83153 0.2448 0.63382 0.0
H1468 H 0.86471 0.23684 0.6693 0.0
H1469 H 0.84931 0.25041 0.6527 0.0
H1470 H 0.87554 0.2361 0.61658 0.0
H1471 H 0.89118 0.22264 0.63323 0.0
C1472 C 0.8475 0.26772 0.60233 0.0
C1473 C 0.83236 0.26703 0.60433 0.0
C1474 C 0.85687 0.26026 0.61166 0.0
C1475 C 0.8513 0.25201 0.62322 0.0
C1476 C 0.83617 0.25125 0.62515 0.0
C1477 C 0.82682 0.25866 0.61582 0.0
C1478 C 0.86726 0.2366 0.65783 0.0
C1479 C 0.87916 0.22858 0.6526 0.0
C1480 C 0.85837 0.24433 0.64831 0.0
C1481 C 0.86115 0.24424 0.63332 0.0
C1482 C 0.87319 0.23646 0.62809 0.0
C1483 C 0.8821 0.22869 0.63762 0.0
H1484 H 0.76859 0.88725 0.64149 0.0
H1485 H 0.75123 0.86341 0.678 0.0
H1486 H 0.75514 0.87149 0.62493 0.0
H1487 H 0.73774 0.84788 0.66149 0.0
H1488 H 0.73059 0.81248 0.62766 0.0
H1489 H 0.74368 0.82893 0.64363 0.0
H1490 H 0.72974 0.86539 0.61768 0.0
H1491 H 0.71671 0.84891 0.60151 0.0
C1492 C 0.76186 0.87873 0.64599 0.0
C1493 C 0.76106 0.87656 0.66108 0.0
C1494 C 0.75411 0.86975 0.63651 0.0
C1495 C 0.74546 0.8584 0.64192 0.0
C1496 C 0.74449 0.85639 0.65699 0.0
C1497 C 0.75217 0.86537 0.66645 0.0
C1498 C 0.7303 0.824 0.62532 0.0
C1499 C 0.72256 0.82937 0.61331 0.0
C1500 C 0.73774 0.83343 0.63453 0.0
C1501 C 0.73768 0.84845 0.63194 0.0
C1502 C 0.73007 0.85385 0.61987 0.0
C1503 C 0.72254 0.84441 0.61067 0.0
H1504 H 0.32125 0.12267 0.23743 0.0
H1505 H 0.35784 0.09882 0.22014 0.0
H1506 H 0.3378 0.13902 0.24982 0.0
H1507 H 0.37446 0.11541 0.2326 0.0
H1508 H 0.39711 0.14068 0.2709 0.0
H1509 H 0.3819 0.12306 0.25808 0.0
H1510 H 0.35522 0.15797 0.24173 0.0
H1511 H 0.3702 0.1755 0.2545 0.0
C1512 C 0.33283 0.12087 0.23629 0.0
C1513 C 0.33821 0.10947 0.2277 0.0
C1514 C 0.34231 0.13031 0.24334 0.0
C1515 C 0.35741 0.12857 0.24204 0.0
C1516 C 0.36286 0.11696 0.2338 0.0
C1517 C 0.35334 0.10752 0.22664 0.0
C1518 C 0.38806 0.14459 0.26449 0.0
C1519 C 0.38481 0.1595 0.26384 0.0
C1520 C 0.3794 0.1345 0.25712 0.0
C1521 C 0.3673 0.13915 0.24906 0.0
C1522 C 0.36433 0.15406 0.24808 0.0
C1523 C 0.37298 0.16411 0.25535 0.0
H1524 H 0.89306 0.34938 0.21901 0.0
H1525 H 0.86321 0.31609 0.23334 0.0
H1526 H 0.87756 0.36789 0.23011 0.0
H1527 H 0.84791 0.33451 0.2444 0.0
H1528 H 0.81588 0.37153 0.24773 0.0
H1529 H 0.83208 0.35456 0.23563 0.0
H1530 H 0.86914 0.3757 0.25509 0.0
H1531 H 0.85292 0.39286 0.26721 0.0
C1532 C 0.88324 0.34601 0.22454 0.0
C1533 C 0.87936 0.33126 0.22525 0.0
C1534 C 0.87442 0.3566 0.23093 0.0
C1535 C 0.86149 0.35263 0.23801 0.0
C1536 C 0.8577 0.3379 0.23882 0.0
C1537 C 0.86654 0.32734 0.23255 0.0
C1538 C 0.82748 0.37267 0.24938 0.0
C1539 C 0.83308 0.3835 0.25854 0.0
C1540 C 0.83675 0.36288 0.24249 0.0
C1541 C 0.85185 0.36373 0.24454 0.0
C1542 C 0.85754 0.37484 0.25328 0.0
C1543 C 0.84824 0.38462 0.26026 0.0
H1544 H 0.67532 0.87148 0.2376 0.0
H1545 H 0.63901 0.89329 0.21728 0.0
H1546 H 0.65856 0.85601 0.25088 0.0
H1547 H 0.62221 0.8776 0.23054 0.0
H1548 H 0.5976 0.8556 0.26879 0.0
H1549 H 0.61374 0.87219 0.2558 0.0
H1550 H 0.64168 0.83624 0.24459 0.0
H1551 H 0.62575 0.81973 0.25761 0.0
C1552 C 0.66376 0.873 0.23597 0.0
C1553 C 0.65852 0.88359 0.2263 0.0
C1554 C 0.65416 0.86407 0.24353 0.0
C1555 C 0.63908 0.86551 0.24166 0.0
C1556 C 0.63379 0.8763 0.23226 0.0
C1557 C 0.64341 0.88523 0.22461 0.0
C1558 C 0.60717 0.85124 0.26354 0.0
C1559 C 0.61041 0.83634 0.2643 0.0
C1560 C 0.61637 0.86073 0.25604 0.0
C1561 C 0.62902 0.85552 0.24926 0.0
C1562 C 0.63214 0.84061 0.2499 0.0
C1563 C 0.62294 0.83114 0.25731 0.0
H1564 H 0.08787 0.63915 0.22707 0.0
H1565 H 0.12408 0.66682 0.21619 0.0
H1566 H 0.10405 0.6234 0.24093 0.0
H1567 H 0.14047 0.65065 0.22901 0.0
H1568 H 0.16479 0.62899 0.26487 0.0
H1569 H 0.14772 0.64415 0.25176 0.0
H1570 H 0.12225 0.60614 0.24101 0.0
H1571 H 0.13895 0.59116 0.25517 0.0
C1572 C 0.09936 0.64169 0.22746 0.0
C1573 C 0.10473 0.65424 0.2207 0.0
C1574 C 0.10868 0.63263 0.23533 0.0
C1575 C 0.12364 0.63574 0.23629 0.0
C1576 C 0.129 0.64807 0.22899 0.0
C1577 C 0.11963 0.6573 0.22149 0.0
C1578 C 0.15549 0.62391 0.25975 0.0
C1579 C 0.15319 0.60892 0.26097 0.0
C1580 C 0.14573 0.63258 0.25207 0.0
C1581 C 0.13363 0.62643 0.24503 0.0
C1582 C 0.1313 0.61136 0.2464 0.0
C1583 C 0.14089 0.60273 0.25444 0.0
H1584 H 0.34928 0.89566 0.75853 0.0
H1585 H 0.32242 0.85849 0.76813 0.0
H1586 H 0.36458 0.88068 0.74299 0.0
H1587 H 0.33817 0.84325 0.75349 0.0
H1588 H 0.35938 0.82163 0.71556 0.0
H1589 H 0.34418 0.83759 0.73001 0.0
H1590 H 0.38212 0.86273 0.74184 0.0
H1591 H 0.39709 0.84722 0.72648 0.0
C1592 C 0.3468 0.88422 0.75746 0.0
C1593 C 0.33463 0.87824 0.76444 0.0
C1594 C 0.35561 0.87559 0.74862 0.0
C1595 C 0.35263 0.8607 0.74684 0.0
C1596 C 0.34063 0.85472 0.75419 0.0
C1597 C 0.33164 0.86342 0.76272 0.0
C1598 C 0.36442 0.83062 0.72121 0.0
C1599 C 0.37939 0.83319 0.71995 0.0
C1600 C 0.35574 0.83973 0.72963 0.0
C1601 C 0.36188 0.85142 0.73733 0.0
C1602 C 0.37691 0.85401 0.73594 0.0
C1603 C 0.38554 0.84508 0.72721 0.0
H1604 H 0.16955 0.37731 0.73655 0.0
H1605 H 0.13296 0.39458 0.71272 0.0
H1606 H 0.153 0.36383 0.75212 0.0
H1607 H 0.11644 0.38075 0.72802 0.0
H1608 H 0.09048 0.36717 0.76772 0.0
H1609 H 0.10736 0.38054 0.75238 0.0
H1610 H 0.13646 0.34371 0.75225 0.0
H1611 H 0.11976 0.33051 0.76798 0.0
C1612 C 0.15798 0.37813 0.73453 0.0
C1613 C 0.15258 0.38707 0.72341 0.0
C1614 C 0.14849 0.37033 0.74343 0.0
C1615 C 0.13337 0.37124 0.74137 0.0
C1616 C 0.128 0.38001 0.73009 0.0
C1617 C 0.13748 0.38787 0.72124 0.0
C1618 C 0.10051 0.36195 0.76446 0.0
C1619 C 0.10379 0.34779 0.76906 0.0
C1620 C 0.11014 0.36957 0.75557 0.0
C1621 C 0.12324 0.36317 0.751 0.0
C1622 C 0.12656 0.34903 0.7557 0.0
C1623 C 0.11695 0.34144 0.76467 0.0
H1624 H 0.63899 0.17387 0.72407 0.0
H1625 H 0.60087 0.14822 0.73319 0.0
H1626 H 0.65405 0.15623 0.73659 0.0
H1627 H 0.61567 0.13101 0.74682 0.0
H1628 H 0.64786 0.0957 0.7595 0.0
H1629 H 0.63245 0.11261 0.74616 0.0
H1630 H 0.66077 0.14794 0.75883 0.0
H1631 H 0.67662 0.13079 0.77105 0.0
C1632 C 0.63384 0.1645 0.72897 0.0
C1633 C 0.61881 0.16238 0.72772 0.0
C1634 C 0.64243 0.15442 0.73629 0.0
C1635 C 0.63614 0.14218 0.74296 0.0
C1636 C 0.62102 0.14012 0.74167 0.0
C1637 C 0.61248 0.15002 0.73395 0.0
C1638 C 0.65071 0.1071 0.75936 0.0
C1639 C 0.66344 0.11198 0.76615 0.0
C1640 C 0.64184 0.11685 0.7518 0.0
C1641 C 0.64534 0.13173 0.75124 0.0
C1642 C 0.65789 0.13656 0.75855 0.0
C1643 C 0.66694 0.12677 0.76571 0.0
H1644 H 0.86305 0.66827 0.76624 0.0
H1645 H 0.89965 0.64014 0.75824 0.0
H1646 H 0.84716 0.65146 0.7537 0.0
H1647 H 0.88401 0.62368 0.74456 0.0
H1648 H 0.8495 0.59059 0.7312 0.0
H1649 H 0.86589 0.60642 0.74476 0.0
H1650 H 0.84051 0.64365 0.73132 0.0
H1651 H 0.82368 0.62767 0.7189 0.0
C1652 C 0.8677 0.65853 0.76158 0.0
C1653 C 0.88255 0.6555 0.76312 0.0
C1654 C 0.85863 0.64891 0.75424 0.0
C1655 C 0.86425 0.63623 0.74781 0.0
C1656 C 0.87917 0.63319 0.74947 0.0
C1657 C 0.88819 0.64265 0.75723 0.0
C1658 C 0.8475 0.60218 0.73123 0.0
C1659 C 0.83529 0.60794 0.72418 0.0
C1660 C 0.85694 0.61129 0.73891 0.0
C1661 C 0.85453 0.6264 0.73935 0.0
C1662 C 0.84253 0.63209 0.73174 0.0
C1663 C 0.83292 0.62295 0.72447 0.0
H1664 H 0.2368 0.3173 0.11527 0.0
H1665 H 0.21124 0.35174 0.09622 0.0
H1666 H 0.25194 0.33523 0.12743 0.0
H1667 H 0.22609 0.36965 0.10874 0.0
H1668 H 0.26521 0.39778 0.11966 0.0
H1669 H 0.25009 0.37961 0.10783 0.0
H1670 H 0.25188 0.35299 0.14642 0.0
H1671 H 0.2674 0.37098 0.15807 0.0
C1672 C 0.23431 0.32869 0.1138 0.0
C1673 C 0.22284 0.33308 0.10473 0.0
C1674 C 0.24295 0.33898 0.12083 0.0
C1675 C 0.24028 0.35389 0.11902 0.0
C1676 C 0.22863 0.35826 0.11016 0.0
C1677 C 0.22005 0.34798 0.10305 0.0
C1678 C 0.26241 0.38803 0.1256 0.0
C1679 C 0.2675 0.3858 0.13979 0.0
C1680 C 0.25364 0.37765 0.11886 0.0
C1681 C 0.2497 0.36486 0.12619 0.0
C1682 C 0.25485 0.36263 0.14039 0.0
C1683 C 0.26369 0.37297 0.14709 0.0
H1684 H 0.2274 0.64199 0.90002 0.0
H1685 H 0.22974 0.66879 0.86165 0.0
H1686 H 0.24187 0.62345 0.88802 0.0
H1687 H 0.2435 0.64994 0.84929 0.0
H1688 H 0.25694 0.58713 0.85834 0.0
H1689 H 0.24209 0.60545 0.8703 0.0
H1690 H 0.26633 0.63919 0.84838 0.0
H1691 H 0.28054 0.6208 0.83586 0.0
C1692 C 0.23083 0.64381 0.88892 0.0
C1693 C 0.22749 0.65686 0.88178 0.0
C1694 C 0.23907 0.63314 0.88199 0.0
C1695 C 0.24395 0.63515 0.86765 0.0
C1696 C 0.24027 0.64811 0.86043 0.0
C1697 C 0.23227 0.65889 0.86747 0.0
C1698 C 0.25907 0.59848 0.85612 0.0
C1699 C 0.26985 0.60256 0.84615 0.0
C1700 C 0.25061 0.60901 0.86303 0.0
C1701 C 0.25293 0.62387 0.86031 0.0
C1702 C 0.26395 0.62789 0.85051 0.0
C1703 C 0.27221 0.61735 0.84341 0.0
H1704 H 0.36173 0.25501 0.81331 0.0
H1705 H 0.39017 0.2703 0.8474 0.0
H1706 H 0.34646 0.24319 0.83131 0.0
H1707 H 0.37471 0.25852 0.86545 0.0
H1708 H 0.35176 0.22074 0.89021 0.0
H1709 H 0.36754 0.23343 0.87307 0.0
H1710 H 0.32979 0.25047 0.85103 0.0
H1711 H 0.31404 0.23776 0.86798 0.0
C1712 C 0.36473 0.25588 0.82464 0.0
C1713 C 0.37717 0.26363 0.8289 0.0
C1714 C 0.35591 0.24917 0.83496 0.0
C1715 C 0.35936 0.24999 0.84979 0.0
C1716 C 0.37185 0.25763 0.85408 0.0
C1717 C 0.38065 0.26443 0.84374 0.0
C1718 C 0.34683 0.22725 0.88175 0.0
C1719 C 0.33163 0.22815 0.88042 0.0
C1720 C 0.35587 0.23457 0.87198 0.0
C1721 C 0.34988 0.24285 0.86066 0.0
C1722 C 0.33471 0.24399 0.85952 0.0
C1723 C 0.32569 0.23675 0.86929 0.0
H1724 H 0.72088 0.35876 0.82572 0.0
H1725 H 0.73361 0.39532 0.85205 0.0
H1726 H 0.73372 0.34246 0.84196 0.0
H1727 H 0.74746 0.3792 0.86783 0.0
H1728 H 0.76044 0.34527 0.90119 0.0
H1729 H 0.74674 0.36174 0.88566 0.0
H1730 H 0.75618 0.33436 0.84868 0.0
H1731 H 0.76887 0.31748 0.86447 0.0
C1732 C 0.72662 0.3633 0.83493 0.0
C1733 C 0.72628 0.37827 0.83765 0.0
C1734 C 0.73412 0.35398 0.8442 0.0
C1735 C 0.74184 0.35943 0.85622 0.0
C1736 C 0.74148 0.37449 0.85888 0.0
C1737 C 0.73363 0.38378 0.84979 0.0
C1738 C 0.75952 0.34283 0.88973 0.0
C1739 C 0.7656 0.33008 0.88402 0.0
C1740 C 0.75175 0.35231 0.88077 0.0
C1741 C 0.75022 0.34944 0.86583 0.0
C1742 C 0.7567 0.33681 0.86015 0.0
C1743 C 0.76411 0.32716 0.86917 0.0
H1744 H 0.59207 0.72884 0.85078 0.0
H1745 H 0.62886 0.72046 0.82303 0.0
H1746 H 0.60736 0.74342 0.86668 0.0
H1747 H 0.6445 0.73395 0.83941 0.0
H1748 H 0.66728 0.76991 0.86294 0.0
H1749 H 0.65117 0.75644 0.84696 0.0
H1750 H 0.62507 0.74392 0.884 0.0
H1751 H 0.64061 0.75843 0.89967 0.0
C1752 C 0.60352 0.72994 0.84826 0.0
C1753 C 0.6093 0.72362 0.83568 0.0
C1754 C 0.61235 0.73822 0.85741 0.0
C1755 C 0.62727 0.74001 0.8544 0.0
C1756 C 0.63304 0.73327 0.84195 0.0
C1757 C 0.62412 0.72537 0.8326 0.0
C1758 C 0.65802 0.76433 0.86759 0.0
C1759 C 0.65514 0.76521 0.88249 0.0
C1760 C 0.64882 0.75645 0.85846 0.0
C1761 C 0.63677 0.74887 0.86411 0.0
C1762 C 0.634 0.74978 0.87912 0.0
C1763 C 0.64296 0.75803 0.88816 0.0
H1764 H 0.77217 0.63419 0.09525 0.0
H1765 H 0.75747 0.67084 0.1206 0.0
H1766 H 0.76014 0.61771 0.1122 0.0
H1767 H 0.74541 0.65438 0.13738 0.0
H1768 H 0.74141 0.62073 0.17324 0.0
H1769 H 0.75336 0.63625 0.15559 0.0
H1770 H 0.7351 0.61084 0.12071 0.0
H1771 H 0.72313 0.59511 0.13842 0.0
C1772 C 0.76634 0.63874 0.10438 0.0
C1773 C 0.76585 0.65384 0.10661 0.0
C1774 C 0.75939 0.6293 0.11403 0.0
C1775 C 0.75193 0.63477 0.12615 0.0
C1776 C 0.75127 0.64985 0.12825 0.0
C1777 C 0.75812 0.65928 0.11858 0.0
C1778 C 0.73995 0.61836 0.16182 0.0
C1779 C 0.73124 0.60669 0.15726 0.0
C1780 C 0.74675 0.62734 0.15171 0.0
C1781 C 0.74506 0.62483 0.13678 0.0
C1782 C 0.73664 0.61298 0.13216 0.0
C1783 C 0.72975 0.60401 0.14231 0.0
H1784 H 0.32278 0.76692 0.13471 0.0
H1785 H 0.34811 0.75939 0.09607 0.0
H1786 H 0.34068 0.75391 0.14907 0.0
H1787 H 0.36551 0.74527 0.1101 0.0
H1788 H 0.40135 0.73118 0.14068 0.0
H1789 H 0.38413 0.74526 0.12639 0.0
H1790 H 0.34946 0.73172 0.15515 0.0
H1791 H 0.36701 0.71874 0.16997 0.0
C1792 C 0.33214 0.76228 0.12929 0.0
C1793 C 0.33411 0.76415 0.11433 0.0
C1794 C 0.34237 0.75467 0.13748 0.0
C1795 C 0.3546 0.74832 0.13082 0.0
C1796 C 0.35646 0.75019 0.11575 0.0
C1797 C 0.34644 0.7582 0.10765 0.0
C1798 C 0.39002 0.73128 0.14388 0.0
C1799 C 0.38548 0.72397 0.15642 0.0
C1800 C 0.38008 0.73927 0.13565 0.0
C1801 C 0.36528 0.73976 0.13955 0.0
C1802 C 0.36076 0.73204 0.15195 0.0
C1803 C 0.37079 0.72444 0.16041 0.0
H1804 H 0.63647 0.22163 0.09419 0.0
H1805 H 0.67177 0.24005 0.11912 0.0
H1806 H 0.61898 0.23388 0.11005 0.0
H1807 H 0.65437 0.25219 0.13475 0.0
H1808 H 0.62057 0.25499 0.17033 0.0
H1809 H 0.63651 0.24303 0.1531 0.0
H1810 H 0.61075 0.25952 0.11759 0.0
H1811 H 0.59456 0.27158 0.13492 0.0
C1812 C 0.6405 0.22834 0.10295 0.0
C1813 C 0.65553 0.22975 0.10545 0.0
C1814 C 0.63049 0.23539 0.11198 0.0
C1815 C 0.63534 0.24384 0.1237 0.0
C1816 C 0.65033 0.24555 0.12593 0.0
C1817 C 0.6603 0.23863 0.11691 0.0
C1818 C 0.6182 0.25606 0.15887 0.0
C1819 C 0.60632 0.26435 0.15401 0.0
C1820 C 0.6274 0.24925 0.14899 0.0
C1821 C 0.62495 0.25049 0.13401 0.0
C1822 C 0.61285 0.25839 0.12909 0.0
C1823 C 0.60365 0.26533 0.13901 0.0
H1824 H 0.90035 0.75811 0.63968 0.0
H1825 H 0.86432 0.76563 0.66865 0.0
H1826 H 0.88467 0.74384 0.62386 0.0
H1827 H 0.84831 0.75241 0.65242 0.0
H1828 H 0.82515 0.71676 0.62904 0.0
H1829 H 0.8418 0.72988 0.6447 0.0
H1830 H 0.86632 0.7436 0.60702 0.0
H1831 H 0.85018 0.72943 0.59156 0.0
C1832 C 0.88899 0.75688 0.64251 0.0
C1833 C 0.88354 0.76287 0.65541 0.0
C1834 C 0.87994 0.74878 0.6334 0.0
C1835 C 0.86514 0.7468 0.6368 0.0
C1836 C 0.85969 0.75323 0.64957 0.0
C1837 C 0.86883 0.76096 0.65885 0.0
C1838 C 0.83417 0.72253 0.62416 0.0
C1839 C 0.83639 0.72211 0.60912 0.0
C1840 C 0.84368 0.7302 0.63312 0.0
C1841 C 0.85541 0.73806 0.62721 0.0
C1842 C 0.85761 0.73754 0.61208 0.0
C1843 C 0.84831 0.7295 0.60317 0.0
H1844 H 0.22552 0.90309 0.64234 0.0
H1845 H 0.22704 0.86455 0.66894 0.0
H1846 H 0.24027 0.8911 0.62404 0.0
H1847 H 0.24109 0.85218 0.65029 0.0
H1848 H 0.27775 0.83813 0.62055 0.0
H1849 H 0.26377 0.85054 0.63926 0.0
H1850 H 0.23993 0.87363 0.606 0.0
H1851 H 0.25454 0.86185 0.58746 0.0
C1852 C 0.22886 0.89197 0.64418 0.0
C1853 C 0.22514 0.88476 0.65706 0.0
C1854 C 0.23726 0.88503 0.63364 0.0
C1855 C 0.24189 0.8706 0.63559 0.0
C1856 C 0.23801 0.86337 0.64848 0.0
C1857 C 0.22985 0.87042 0.65915 0.0
C1858 C 0.26954 0.84591 0.61729 0.0
C1859 C 0.26726 0.84908 0.60258 0.0
C1860 C 0.26143 0.85296 0.62801 0.0
C1861 C 0.25065 0.86314 0.62421 0.0
C1862 C 0.24832 0.86614 0.60942 0.0
C1863 C 0.25663 0.8593 0.59875 0.0
H1864 H 0.13033 0.21854 0.66779 0.0
H1865 H 0.09344 0.23032 0.64141 0.0
H1866 H 0.14646 0.23101 0.65104 0.0
H1867 H 0.10932 0.24385 0.62517 0.0
H1868 H 0.14265 0.25846 0.592 0.0
H1869 H 0.12672 0.2439 0.60733 0.0
H1870 H 0.15403 0.25355 0.64436 0.0
H1871 H 0.17038 0.26705 0.62875 0.0
C1872 C 0.12569 0.22393 0.65842 0.0
C1873 C 0.11068 0.22351 0.65588 0.0
C1874 C 0.1349 0.23123 0.64886 0.0
C1875 C 0.12926 0.23871 0.63676 0.0
C1876 C 0.11418 0.23808 0.63418 0.0
C1877 C 0.10502 0.2304 0.64353 0.0
C1878 C 0.14519 0.25738 0.60342 0.0
C1879 C 0.15776 0.26378 0.6092 0.0
C1880 C 0.13602 0.24911 0.61227 0.0
C1881 C 0.13904 0.24739 0.62717 0.0
C1882 C 0.1515 0.25416 0.63291 0.0
C1883 C 0.16084 0.26206 0.624 0.0
H1884 H 0.78278 0.12026 0.65196 0.0
H1885 H 0.75759 0.08594 0.63241 0.0
H1886 H 0.76884 0.13822 0.63847 0.0
H1887 H 0.74302 0.10383 0.61957 0.0
H1888 H 0.72909 0.13786 0.58709 0.0
H1889 H 0.74333 0.12012 0.60044 0.0
H1890 H 0.74656 0.14997 0.63653 0.0
H1891 H 0.73302 0.16801 0.62272 0.0
C1892 C 0.77413 0.11659 0.64488 0.0
C1893 C 0.7713 0.10172 0.64317 0.0
C1894 C 0.76604 0.12688 0.63722 0.0
C1895 C 0.75473 0.12255 0.62788 0.0
C1896 C 0.75181 0.10763 0.62638 0.0
C1897 C 0.7601 0.09733 0.63382 0.0
C1898 C 0.73285 0.14061 0.59789 0.0
C1899 C 0.72996 0.15433 0.60386 0.0
C1900 C 0.74094 0.13039 0.60562 0.0
C1901 C 0.74611 0.13352 0.61965 0.0
C1902 C 0.74304 0.14723 0.62567 0.0
C1903 C 0.73518 0.15756 0.6178 0.0
H1904 H 0.87048 0.20985 0.33734 0.0
H1905 H 0.90365 0.233 0.361 0.0
H1906 H 0.85179 0.22428 0.34926 0.0
H1907 H 0.88515 0.24807 0.37227 0.0
H1908 H 0.84854 0.2634 0.40106 0.0
H1909 H 0.86692 0.2484 0.3895 0.0
H1910 H 0.84094 0.24698 0.35038 0.0
H1911 H 0.82219 0.26125 0.36236 0.0
C1912 C 0.87376 0.21815 0.345 0.0
C1913 C 0.88848 0.22028 0.34831 0.0
C1914 C 0.86306 0.22652 0.35176 0.0
C1915 C 0.86688 0.23742 0.36177 0.0
C1916 C 0.8817 0.2396 0.36491 0.0
C1917 C 0.89235 0.23102 0.35837 0.0
C1918 C 0.84679 0.25988 0.38998 0.0
C1919 C 0.83394 0.26347 0.38261 0.0
C1920 C 0.85738 0.25133 0.38329 0.0
C1921 C 0.85551 0.24644 0.36894 0.0
C1922 C 0.84268 0.25025 0.36153 0.0
C1923 C 0.83195 0.25854 0.36834 0.0
H1924 H 0.76229 0.86536 0.32009 0.0
H1925 H 0.76332 0.90338 0.34743 0.0
H1926 H 0.74782 0.85266 0.33823 0.0
H1927 H 0.74815 0.89112 0.36516 0.0
H1928 H 0.71045 0.83829 0.36708 0.0
H1929 H 0.72498 0.85079 0.34882 0.0
H1930 H 0.74805 0.87346 0.38289 0.0
H1931 H 0.73288 0.86164 0.40093 0.0
C1932 C 0.75929 0.87103 0.32993 0.0
C1933 C 0.76399 0.88531 0.33239 0.0
C1934 C 0.7509 0.8638 0.34031 0.0
C1935 C 0.74676 0.87081 0.35324 0.0
C1936 C 0.75137 0.8852 0.35554 0.0
C1937 C 0.76 0.89229 0.34532 0.0
C1938 C 0.7186 0.846 0.3706 0.0
C1939 C 0.72049 0.84908 0.38538 0.0
C1940 C 0.72703 0.8531 0.36015 0.0
C1941 C 0.73774 0.8632 0.36431 0.0
C1942 C 0.73971 0.86605 0.37919 0.0
C1943 C 0.73108 0.85919 0.38958 0.0
H1944 H 0.16609 0.71278 0.36213 0.0
H1945 H 0.14128 0.72638 0.39943 0.0
H1946 H 0.14969 0.72598 0.34629 0.0
H1947 H 0.12534 0.74061 0.38372 0.0
H1948 H 0.09207 0.75578 0.35013 0.0
H1949 H 0.10707 0.74121 0.36644 0.0
H1950 H 0.14431 0.74896 0.3388 0.0
H1951 H 0.12905 0.76249 0.32216 0.0
C1952 C 0.15716 0.71875 0.36693 0.0
C1953 C 0.15497 0.71864 0.38198 0.0
C1954 C 0.1478 0.72647 0.35787 0.0
C1955 C 0.13626 0.73467 0.36366 0.0
C1956 C 0.13397 0.73434 0.37878 0.0
C1957 C 0.14313 0.72625 0.38783 0.0
C1958 C 0.10347 0.75429 0.34762 0.0
C1959 C 0.10939 0.76011 0.33485 0.0
C1960 C 0.11212 0.74601 0.35699 0.0
C1961 C 0.12695 0.74369 0.35394 0.0
C1962 C 0.13288 0.75002 0.34135 0.0
C1963 C 0.12416 0.75793 0.33184 0.0
H1964 H 0.23408 0.12423 0.32138 0.0
H1965 H 0.23126 0.08793 0.35084 0.0
H1966 H 0.24668 0.13831 0.33984 0.0
H1967 H 0.2447 0.10154 0.36902 0.0
H1968 H 0.25764 0.13307 0.40392 0.0
H1969 H 0.24359 0.12015 0.38566 0.0
H1970 H 0.26847 0.14127 0.35185 0.0
H1971 H 0.28176 0.15485 0.37019 0.0
C1972 C 0.23633 0.11922 0.33178 0.0
C1973 C 0.23169 0.10502 0.33471 0.0
C1974 C 0.24365 0.12724 0.34235 0.0
C1975 C 0.24679 0.12112 0.356 0.0
C1976 C 0.24223 0.1068 0.35881 0.0
C1977 C 0.23461 0.09892 0.34835 0.0
C1978 C 0.26 0.13497 0.39256 0.0
C1979 C 0.27075 0.14494 0.38844 0.0
C1980 C 0.25204 0.12748 0.38207 0.0
C1981 C 0.2549 0.12953 0.36719 0.0
C1982 C 0.26571 0.13956 0.36314 0.0
C1983 C 0.27343 0.1473 0.37365 0.0
H1984 H 0.63968 0.89858 0.76365 0.0
H1985 H 0.66585 0.86173 0.77587 0.0
H1986 H 0.62337 0.88261 0.75016 0.0
H1987 H 0.6491 0.84559 0.76353 0.0
H1988 H 0.62702 0.82098 0.72825 0.0
H1989 H 0.64263 0.83782 0.74108 0.0
H1990 H 0.60543 0.86514 0.75019 0.0
H1991 H 0.59006 0.84865 0.73623 0.0
C1992 C 0.64176 0.88701 0.76363 0.0
C1993 C 0.65406 0.88136 0.77062 0.0
C1994 C 0.63238 0.87781 0.75599 0.0
C1995 C 0.63493 0.86273 0.75552 0.0
C1996 C 0.64697 0.85714 0.76312 0.0
C1997 C 0.65654 0.86636 0.77036 0.0
C1998 C 0.62222 0.83062 0.73298 0.0
C1999 C 0.60736 0.8335 0.73134 0.0
C2000 C 0.63114 0.84026 0.74049 0.0
C2001 C 0.62534 0.85283 0.74698 0.0
C2002 C 0.6104 0.85572 0.74523 0.0
C2003 C 0.60153 0.84624 0.73732 0.0
H2004 H 0.17071 0.62568 0.73785 0.0
H2005 H 0.13579 0.59858 0.72199 0.0
H2006 H 0.15312 0.64126 0.74986 0.0
H2007 H 0.11812 0.61435 0.73407 0.0
H2008 H 0.09442 0.63863 0.77239 0.0
H2009 H 0.11086 0.62199 0.75978 0.0
H2010 H 0.13386 0.65851 0.74153 0.0
H2011 H 0.11761 0.6751 0.75405 0.0
C2012 C 0.15928 0.62302 0.73693 0.0
C2013 C 0.15466 0.6109 0.7289 0.0
C2014 C 0.1492 0.63201 0.74376 0.0
C2015 C 0.13426 0.62907 0.74281 0.0
C2016 C 0.12959 0.61682 0.73502 0.0
C2017 C 0.1397 0.60785 0.72805 0.0
C2018 C 0.10294 0.6431 0.76563 0.0
C2019 C 0.10475 0.6582 0.76432 0.0
C2020 C 0.11229 0.63357 0.75837 0.0
C2021 C 0.12369 0.63898 0.74979 0.0
C2022 C 0.12529 0.65405 0.74824 0.0
C2023 C 0.11592 0.66354 0.75538 0.0
H2024 H 0.32654 0.12437 0.76213 0.0
H2025 H 0.35385 0.08633 0.76419 0.0
H2026 H 0.34489 0.13678 0.7477 0.0
H2027 H 0.37184 0.09831 0.74904 0.0
H2028 H 0.40759 0.1277 0.73263 0.0
H2029 H 0.38968 0.11596 0.74811 0.0
H2030 H 0.35524 0.13791 0.72482 0.0
H2031 H 0.37329 0.15028 0.71001 0.0
C2032 C 0.33644 0.11863 0.75938 0.0
C2033 C 0.33879 0.10441 0.76431 0.0
C2034 C 0.34694 0.12569 0.751 0.0
C2035 C 0.3599 0.11857 0.74708 0.0
C2036 C 0.36218 0.10429 0.75204 0.0
C2037 C 0.35181 0.09736 0.76067 0.0
C2038 C 0.39617 0.12998 0.73085 0.0
C2039 C 0.39181 0.1399 0.72015 0.0
C2040 C 0.38587 0.12319 0.73967 0.0
C2041 C 0.37093 0.12593 0.73778 0.0
C2042 C 0.36662 0.13574 0.72687 0.0
C2043 C 0.37695 0.14275 0.71827 0.0
H2044 H 0.89621 0.34728 0.76027 0.0
H2045 H 0.85906 0.31957 0.76709 0.0
H2046 H 0.88131 0.36367 0.74568 0.0
H2047 H 0.84388 0.33632 0.75358 0.0
H2048 H 0.84729 0.39678 0.73048 0.0
H2049 H 0.86322 0.38109 0.74477 0.0
H2050 H 0.83852 0.34368 0.73063 0.0
H2051 H 0.82213 0.35952 0.71745 0.0
C2052 C 0.88478 0.34485 0.75881 0.0
C2053 C 0.87878 0.33213 0.76465 0.0
C2054 C 0.8762 0.35427 0.75052 0.0
C2055 C 0.86135 0.35131 0.74822 0.0
C2056 C 0.85533 0.33879 0.75461 0.0
C2057 C 0.86399 0.32922 0.76251 0.0
C2058 C 0.84538 0.38518 0.73048 0.0
C2059 C 0.83344 0.37933 0.72304 0.0
C2060 C 0.85453 0.37615 0.7386 0.0
C2061 C 0.85211 0.36104 0.73912 0.0
C2062 C 0.8405 0.35525 0.73102 0.0
C2063 C 0.83116 0.3643 0.72329 0.0
H2064 H 0.63952 0.09362 0.21561 0.0
H2065 H 0.67454 0.12104 0.23069 0.0
H2066 H 0.622 0.10921 0.22808 0.0
H2067 H 0.6571 0.13641 0.24315 0.0
H2068 H 0.62154 0.17009 0.24802 0.0
H2069 H 0.6379 0.15359 0.23555 0.0
H2070 H 0.61467 0.11696 0.25333 0.0
H2071 H 0.59809 0.13353 0.26582 0.0
C2072 C 0.64349 0.1029 0.22162 0.0
C2073 C 0.65844 0.10612 0.22206 0.0
C2074 C 0.63346 0.11178 0.22881 0.0
C2075 C 0.63818 0.12409 0.23648 0.0
C2076 C 0.65312 0.12713 0.23712 0.0
C2077 C 0.66312 0.11826 0.23003 0.0
C2078 C 0.61984 0.15853 0.24926 0.0
C2079 C 0.60853 0.15315 0.258 0.0
C2080 C 0.62928 0.14907 0.24217 0.0
C2081 C 0.62764 0.13399 0.24357 0.0
C2082 C 0.61615 0.12854 0.25201 0.0
C2083 C 0.6067 0.13804 0.2592 0.0
H2084 H 0.88974 0.63581 0.22418 0.0
H2085 H 0.86457 0.67167 0.24105 0.0
H2086 H 0.87454 0.61886 0.23779 0.0
H2087 H 0.84957 0.65476 0.25468 0.0
H2088 H 0.8153 0.61958 0.26173 0.0
H2089 H 0.83127 0.63607 0.2487 0.0
H2090 H 0.86863 0.61176 0.26335 0.0
H2091 H 0.85261 0.59507 0.27635 0.0
C2092 C 0.88103 0.64009 0.23083 0.0
C2093 C 0.87833 0.6551 0.23146 0.0
C2094 C 0.87239 0.63039 0.23868 0.0
C2095 C 0.86083 0.63549 0.24723 0.0
C2096 C 0.85827 0.65049 0.24802 0.0
C2097 C 0.86693 0.66019 0.24025 0.0
C2098 C 0.82691 0.61771 0.26219 0.0
C2099 C 0.83267 0.606 0.27011 0.0
C2100 C 0.83607 0.62722 0.25478 0.0
C2101 C 0.8512 0.62524 0.25506 0.0
C2102 C 0.85699 0.61348 0.26286 0.0
C2103 C 0.84782 0.60398 0.27037 0.0
H2104 H 0.34739 0.90112 0.23017 0.0
H2105 H 0.32054 0.86486 0.21769 0.0
H2106 H 0.36411 0.88464 0.24241 0.0
H2107 H 0.3377 0.84821 0.22877 0.0
H2108 H 0.36217 0.82204 0.26153 0.0
H2109 H 0.3457 0.83916 0.25017 0.0
H2110 H 0.38203 0.86748 0.24061 0.0
H2111 H 0.39825 0.85071 0.25314 0.0
C2112 C 0.34521 0.88957 0.2299 0.0
C2113 C 0.33265 0.88424 0.22314 0.0
C2114 C 0.35485 0.88007 0.2368 0.0
C2115 C 0.35233 0.86498 0.23673 0.0
C2116 C 0.33988 0.85972 0.22953 0.0
C2117 C 0.33006 0.86925 0.22304 0.0
C2118 C 0.36659 0.83196 0.25699 0.0
C2119 C 0.38145 0.83506 0.25815 0.0
C2120 C 0.35717 0.84177 0.25034 0.0
C2121 C 0.36245 0.85475 0.24423 0.0
C2122 C 0.37743 0.85778 0.24536 0.0
C2123 C 0.38679 0.84812 0.25243 0.0
H2124 H 0.14353 0.39656 0.25899 0.0
H2125 H 0.1685 0.35852 0.27 0.0
H2126 H 0.12626 0.38148 0.2457 0.0
H2127 H 0.15078 0.34325 0.25787 0.0
H2128 H 0.12703 0.3202 0.22258 0.0
H2129 H 0.14355 0.33616 0.23542 0.0
H2130 H 0.10767 0.36477 0.24571 0.0
H2131 H 0.09139 0.34918 0.23174 0.0
C2132 C 0.14512 0.38491 0.25878 0.0
C2133 C 0.15737 0.37867 0.26535 0.0
C2134 C 0.13519 0.37622 0.25125 0.0
C2135 C 0.13713 0.36107 0.25047 0.0
C2136 C 0.14911 0.35487 0.2577 0.0
C2137 C 0.15923 0.36359 0.26483 0.0
C2138 C 0.12273 0.32995 0.22754 0.0
C2139 C 0.10797 0.33347 0.22623 0.0
C2140 C 0.13217 0.33907 0.23507 0.0
C2141 C 0.127 0.35173 0.24191 0.0
C2142 C 0.11216 0.35526 0.24048 0.0
C2143 C 0.10278 0.34631 0.23254 0.0
H2144 H 0.75643 0.67625 0.86679 0.0
H2145 H 0.77252 0.64015 0.89211 0.0
H2146 H 0.7431 0.6595 0.85134 0.0
H2147 H 0.7593 0.62336 0.87645 0.0
H2148 H 0.72099 0.59973 0.85455 0.0
H2149 H 0.73417 0.61632 0.87042 0.0
H2150 H 0.74823 0.64092 0.83308 0.0
H2151 H 0.73491 0.62452 0.81722 0.0
C2152 C 0.75716 0.66474 0.86906 0.0
C2153 C 0.76557 0.65955 0.8807 0.0
C2154 C 0.74957 0.65513 0.86014 0.0
C2155 C 0.75019 0.64011 0.86264 0.0
C2156 C 0.7585 0.6349 0.87433 0.0
C2157 C 0.76614 0.64452 0.88325 0.0
C2158 C 0.72687 0.60869 0.84972 0.0
C2159 C 0.72685 0.61081 0.8346 0.0
C2160 C 0.7345 0.61814 0.85882 0.0
C2161 C 0.74222 0.62994 0.85301 0.0
C2162 C 0.74223 0.63204 0.83791 0.0
C2163 C 0.73464 0.62258 0.82881 0.0
H2164 H 0.76815 0.32209 0.12982 0.0
H2165 H 0.75947 0.35047 0.09363 0.0
H2166 H 0.75494 0.33836 0.14585 0.0
H2167 H 0.74518 0.36623 0.10927 0.0
H2168 H 0.71929 0.36196 0.16925 0.0
H2169 H 0.73262 0.34609 0.15294 0.0
H2170 H 0.74498 0.38335 0.12708 0.0
H2171 H 0.73058 0.39891 0.14284 0.0
C2172 C 0.76323 0.33177 0.1253 0.0
C2173 C 0.76483 0.33507 0.11054 0.0
C2174 C 0.7555 0.34107 0.13444 0.0
C2175 C 0.74878 0.35367 0.12894 0.0
C2176 C 0.75039 0.35686 0.11407 0.0
C2177 C 0.7585 0.34777 0.10503 0.0
C2178 C 0.72482 0.36668 0.16 0.0
C2179 C 0.72391 0.38162 0.15726 0.0
C2180 C 0.73261 0.35762 0.15069 0.0
C2181 C 0.74009 0.36334 0.13864 0.0
C2182 C 0.73919 0.37839 0.13601 0.0
C2183 C 0.73101 0.38738 0.14509 0.0
H2184 H 0.64064 0.76895 0.09845 0.0
H2185 H 0.67719 0.75351 0.1236 0.0
H2186 H 0.62407 0.75628 0.11482 0.0
H2187 H 0.66065 0.74077 0.13976 0.0
H2188 H 0.62659 0.73438 0.17496 0.0
H2189 H 0.64242 0.74717 0.15815 0.0
H2190 H 0.61709 0.73123 0.12206 0.0
H2191 H 0.60105 0.71852 0.13891 0.0
C2192 C 0.64515 0.76282 0.10741 0.0
C2193 C 0.66025 0.7623 0.10974 0.0
C2194 C 0.63565 0.75551 0.11674 0.0
C2195 C 0.64106 0.74759 0.12861 0.0
C2196 C 0.65615 0.74696 0.13083 0.0
C2197 C 0.66563 0.7542 0.12151 0.0
C2198 C 0.62434 0.73361 0.16345 0.0
C2199 C 0.61256 0.72537 0.15829 0.0
C2200 C 0.63348 0.74088 0.15381 0.0
C2201 C 0.63105 0.74013 0.13878 0.0
C2202 C 0.61916 0.73209 0.1336 0.0
C2203 C 0.61003 0.72475 0.14325 0.0
H2204 H 0.26925 0.632 0.16624 0.0
H2205 H 0.26303 0.59433 0.13915 0.0
H2206 H 0.25449 0.64637 0.14984 0.0
H2207 H 0.24729 0.60843 0.1231 0.0
H2208 H 0.22947 0.64191 0.09045 0.0
H2209 H 0.245 0.62657 0.10559 0.0
H2210 H 0.23071 0.65016 0.14361 0.0
H2211 H 0.21619 0.66596 0.12833 0.0
C2212 C 0.26458 0.62679 0.15679 0.0
C2213 C 0.2672 0.61207 0.15398 0.0
C2214 C 0.25596 0.63497 0.14743 0.0
C2215 C 0.24936 0.62855 0.13523 0.0
C2216 C 0.25225 0.61383 0.13228 0.0
C2217 C 0.26122 0.60571 0.14149 0.0
C2218 C 0.22966 0.64368 0.10207 0.0
C2219 C 0.22181 0.65516 0.10825 0.0
C2220 C 0.23851 0.63488 0.11078 0.0
C2221 C 0.23938 0.63724 0.12587 0.0
C2222 C 0.23082 0.6483 0.13202 0.0
C2223 C 0.22233 0.65728 0.12329 0.0
H2224 H 0.34657 0.22888 0.08969 0.0
H2225 H 0.31949 0.21891 0.12658 0.0
H2226 H 0.36265 0.24304 0.10523 0.0
H2227 H 0.336 0.23207 0.14235 0.0
H2228 H 0.35868 0.26853 0.16522 0.0
H2229 H 0.34297 0.25488 0.14907 0.0
H2230 H 0.38029 0.24308 0.12301 0.0
H2231 H 0.39578 0.25771 0.13872 0.0
C2232 C 0.34421 0.22956 0.10119 0.0
C2233 C 0.33175 0.22294 0.10693 0.0
C2234 C 0.35348 0.23759 0.11015 0.0
C2235 C 0.35066 0.23886 0.12513 0.0
C2236 C 0.33837 0.23177 0.13086 0.0
C2237 C 0.32893 0.2241 0.12184 0.0
C2238 C 0.36349 0.26303 0.15601 0.0
C2239 C 0.37842 0.26415 0.15322 0.0
C2240 C 0.35451 0.25507 0.14678 0.0
C2241 C 0.3603 0.24766 0.13473 0.0
C2242 C 0.37532 0.24879 0.132 0.0
C2243 C 0.38425 0.25709 0.14105 0.0
H2244 H 0.24968 0.36556 0.81231 0.0
H2245 H 0.26978 0.39093 0.8463 0.0
H2246 H 0.23825 0.35022 0.8305 0.0
H2247 H 0.25837 0.37541 0.86452 0.0
H2248 H 0.22188 0.35272 0.8915 0.0
H2249 H 0.2337 0.36896 0.87417 0.0
H2250 H 0.24666 0.33203 0.84841 0.0
H2251 H 0.23482 0.31583 0.86553 0.0
C2252 C 0.25164 0.3679 0.82365 0.0
C2253 C 0.2607 0.37945 0.82783 0.0
C2254 C 0.24516 0.35904 0.83407 0.0
C2255 C 0.24752 0.36154 0.84892 0.0
C2256 C 0.25631 0.37327 0.85315 0.0
C2257 C 0.26288 0.38211 0.8427 0.0
C2258 C 0.22733 0.34806 0.88218 0.0
C2259 C 0.22731 0.33297 0.87986 0.0
C2260 C 0.23413 0.35736 0.8723 0.0
C2261 C 0.24097 0.35176 0.85987 0.0
C2262 C 0.24126 0.33667 0.85776 0.0
C2263 C 0.23454 0.32739 0.86764 0.0
H2264 H 0.63681 0.2131 0.89223 0.0
H2265 H 0.67228 0.23839 0.87473 0.0
H2266 H 0.61951 0.22852 0.87956 0.0
H2267 H 0.65492 0.25408 0.86238 0.0
H2268 H 0.61981 0.27091 0.83133 0.0
H2269 H 0.63741 0.25488 0.84295 0.0
H2270 H 0.61015 0.25278 0.88108 0.0
H2271 H 0.59241 0.26843 0.8693 0.0
C2272 C 0.64093 0.22195 0.88569 0.0
C2273 C 0.65594 0.22453 0.88454 0.0
C2274 C 0.63099 0.23087 0.87849 0.0
C2275 C 0.63581 0.24263 0.87005 0.0
C2276 C 0.65084 0.24504 0.86867 0.0
C2277 C 0.66079 0.23607 0.87581 0.0
C2278 C 0.61761 0.26704 0.84221 0.0
C2279 C 0.60471 0.27091 0.84939 0.0
C2280 C 0.62772 0.2579 0.84889 0.0
C2281 C 0.62517 0.25247 0.86293 0.0
C2282 C 0.61234 0.25653 0.87016 0.0
C2283 C 0.60221 0.2656 0.86345 0.0
H2284 H 0.36263 0.75781 0.90302 0.0
H2285 H 0.33805 0.77978 0.8697 0.0
H2286 H 0.37443 0.74297 0.88466 0.0
H2287 H 0.35042 0.76554 0.85118 0.0
H2288 H 0.36378 0.72794 0.82252 0.0
H2289 H 0.35181 0.74244 0.84104 0.0
H2290 H 0.39158 0.743 0.86609 0.0
H2291 H 0.40324 0.72781 0.84789 0.0
C2292 C 0.35989 0.75958 0.89172 0.0
C2293 C 0.34941 0.76991 0.88778 0.0
C2294 C 0.36673 0.75114 0.88116 0.0
C2295 C 0.36343 0.75302 0.86637 0.0
C2296 C 0.35305 0.76355 0.86245 0.0
C2297 C 0.34602 0.7718 0.87305 0.0
C2298 C 0.36994 0.73116 0.832 0.0
C2299 C 0.38443 0.72671 0.83378 0.0
C2300 C 0.36312 0.73957 0.8426 0.0
C2301 C 0.3707 0.74398 0.8551 0.0
C2302 C 0.38527 0.7396 0.85677 0.0
C2303 C 0.39201 0.73096 0.84629 0.0
H2304 H 0.04871 0.24047 0.29633 0.0
H2305 H 0.07106 0.21514 0.26383 0.0
H2306 H 0.04308 0.25888 0.2781 0.0
H2307 H 0.06608 0.23366 0.24586 0.0
H2308 H 0.05135 0.26493 0.21315 0.0
H2309 H 0.04922 0.24569 0.23117 0.0
H2310 H 0.05568 0.27719 0.26536 0.0
H2311 H 0.057 0.29644 0.24734 0.0
C2312 C 0.05234 0.23881 0.28528 0.0
C2313 C 0.06041 0.22643 0.28153 0.0
C2314 C 0.04919 0.24939 0.27484 0.0
C2315 C 0.05417 0.24784 0.26049 0.0
C2316 C 0.0618 0.23516 0.2567 0.0
C2317 C 0.06479 0.22456 0.26706 0.0
C2318 C 0.052 0.26774 0.22455 0.0
C2319 C 0.05451 0.28212 0.22885 0.0
C2320 C 0.0509 0.25672 0.23488 0.0
C2321 C 0.05258 0.25981 0.24974 0.0
C2322 C 0.05421 0.27437 0.25405 0.0
C2323 C 0.05505 0.28543 0.24371 0.0
H2324 H 0.7456 0.06163 0.2938 0.0
H2325 H 0.78121 0.06037 0.26332 0.0
H2326 H 0.72846 0.05779 0.2741 0.0
H2327 H 0.76415 0.05574 0.24363 0.0
H2328 H 0.72921 0.06984 0.21121 0.0
H2329 H 0.74719 0.06907 0.23037 0.0
H2330 H 0.7184 0.04252 0.25629 0.0
H2331 H 0.70002 0.04394 0.23721 0.0
C2332 C 0.74978 0.06024 0.2829 0.0
C2333 C 0.76472 0.06149 0.28005 0.0
C2334 C 0.73995 0.05791 0.27159 0.0
C2335 C 0.74486 0.05656 0.25719 0.0
C2336 C 0.75992 0.05707 0.25451 0.0
C2337 C 0.76972 0.05965 0.26579 0.0
C2338 C 0.72676 0.0637 0.22093 0.0
C2339 C 0.71314 0.05707 0.22276 0.0
C2340 C 0.73715 0.06315 0.23192 0.0
C2341 C 0.73429 0.05578 0.24497 0.0
C2342 C 0.72089 0.04855 0.24652 0.0
C2343 C 0.71039 0.04926 0.23555 0.0
H2344 H 0.94431 0.69478 0.2411 0.0
H2345 H 0.91923 0.72536 0.2159 0.0
H2346 H 0.94976 0.71379 0.25874 0.0
H2347 H 0.92409 0.74411 0.23368 0.0
H2348 H 0.93877 0.77838 0.26344 0.0
H2349 H 0.94078 0.75995 0.2446 0.0
H2350 H 0.93719 0.72638 0.27722 0.0
H2351 H 0.93592 0.74484 0.29603 0.0
C2352 C 0.94004 0.70558 0.23929 0.0
C2353 C 0.93126 0.70855 0.22718 0.0
C2354 C 0.94309 0.71646 0.24943 0.0
C2355 C 0.9373 0.7305 0.24773 0.0
C2356 C 0.92896 0.73353 0.23529 0.0
C2357 C 0.92606 0.72272 0.22511 0.0
C2358 C 0.93871 0.76705 0.26657 0.0
C2359 C 0.93701 0.76304 0.28117 0.0
C2360 C 0.93975 0.75647 0.25578 0.0
C2361 C 0.93886 0.74164 0.25932 0.0
C2362 C 0.93804 0.73766 0.27405 0.0
C2363 C 0.93723 0.74826 0.28486 0.0
H2364 H 0.244 0.93205 0.29692 0.0
H2365 H 0.21008 0.93864 0.26522 0.0
H2366 H 0.26231 0.9356 0.2782 0.0
H2367 H 0.22834 0.94296 0.24659 0.0
H2368 H 0.26268 0.92626 0.21489 0.0
H2369 H 0.24424 0.92813 0.2335 0.0
H2370 H 0.27464 0.9506 0.26137 0.0
H2371 H 0.29342 0.94811 0.24277 0.0
C2372 C 0.24047 0.93461 0.286 0.0
C2373 C 0.22562 0.93485 0.28246 0.0
C2374 C 0.25097 0.93675 0.27526 0.0
C2375 C 0.24684 0.93938 0.2608 0.0
C2376 C 0.23194 0.94057 0.25752 0.0
C2377 C 0.22146 0.93819 0.2682 0.0
C2378 C 0.26542 0.93174 0.22492 0.0
C2379 C 0.27955 0.93693 0.22741 0.0
C2380 C 0.25477 0.93294 0.2356 0.0
C2381 C 0.2579 0.93953 0.249 0.0
C2382 C 0.2719 0.94526 0.25127 0.0
C2383 C 0.28264 0.94392 0.2406 0.0
H2384 H 0.04835 0.72618 0.77971 0.0
H2385 H 0.0532 0.6938 0.74622 0.0
H2386 H 0.04466 0.74477 0.76128 0.0
H2387 H 0.05032 0.71244 0.72773 0.0
H2388 H 0.04089 0.74794 0.69603 0.0
H2389 H 0.03658 0.73 0.71508 0.0
H2390 H 0.06031 0.75685 0.74542 0.0
H2391 H 0.06398 0.77488 0.72667 0.0
C2392 C 0.04849 0.72304 0.76838 0.0
C2393 C 0.05123 0.70861 0.76437 0.0
C2394 C 0.04649 0.73369 0.7578 0.0
C2395 C 0.04749 0.73021 0.74297 0.0
C2396 C 0.04935 0.71556 0.73901 0.0
C2397 C 0.05109 0.70486 0.74961 0.0
C2398 C 0.04494 0.75007 0.70686 0.0
C2399 C 0.05286 0.76276 0.70983 0.0
C2400 C 0.04256 0.73976 0.71776 0.0
C2401 C 0.04816 0.74188 0.73181 0.0
C2402 C 0.05558 0.75489 0.73484 0.0
C2403 C 0.05781 0.76522 0.72402 0.0
H2404 H 0.26551 0.05424 0.78043 0.0
H2405 H 0.29615 0.05744 0.74512 0.0
H2406 H 0.24572 0.05132 0.76313 0.0
H2407 H 0.27631 0.05531 0.72773 0.0
H2408 H 0.23827 0.04527 0.69867 0.0
H2409 H 0.25762 0.04171 0.7165 0.0
H2410 H 0.23322 0.06702 0.74762 0.0
H2411 H 0.2138 0.06996 0.73013 0.0
C2412 C 0.268 0.05423 0.76894 0.0
C2413 C 0.28231 0.05622 0.7641 0.0
C2414 C 0.25666 0.05267 0.75901 0.0
C2415 C 0.25934 0.05337 0.744 0.0
C2416 C 0.27381 0.0546 0.73918 0.0
C2417 C 0.2852 0.0559 0.74915 0.0
C2418 C 0.23701 0.04988 0.70941 0.0
C2419 C 0.22455 0.05793 0.71299 0.0
C2420 C 0.24812 0.04793 0.71959 0.0
C2421 C 0.24704 0.0541 0.73352 0.0
C2422 C 0.23437 0.06184 0.73714 0.0
C2423 C 0.22324 0.06364 0.72704 0.0
H2424 H 0.931 0.26124 0.77835 0.0
H2425 H 0.93148 0.29413 0.74498 0.0
H2426 H 0.93418 0.2425 0.75997 0.0
H2427 H 0.93389 0.27545 0.72653 0.0
H2428 H 0.94401 0.23989 0.69536 0.0
H2429 H 0.94753 0.25725 0.71503 0.0
H2430 H 0.91938 0.23155 0.74247 0.0
H2431 H 0.9165 0.21397 0.72309 0.0
C2432 C 0.93188 0.26446 0.76707 0.0
C2433 C 0.93086 0.27912 0.76307 0.0
C2434 C 0.93359 0.25372 0.75652 0.0
C2435 C 0.93407 0.25739 0.74171 0.0
C2436 C 0.93374 0.27216 0.73781 0.0
C2437 C 0.93226 0.28291 0.74839 0.0
C2438 C 0.93877 0.23789 0.70569 0.0
C2439 C 0.92991 0.22564 0.70767 0.0
C2440 C 0.9407 0.24787 0.71694 0.0
C2441 C 0.93364 0.24592 0.73034 0.0
C2442 C 0.9252 0.23335 0.73242 0.0
C2443 C 0.92344 0.22328 0.72125 0.0
H2444 H 0.72524 0.93527 0.78206 0.0
H2445 H 0.69358 0.93154 0.74768 0.0
H2446 H 0.74453 0.93781 0.76415 0.0
H2447 H 0.7129 0.93332 0.72972 0.0
H2448 H 0.74971 0.94209 0.6992 0.0
H2449 H 0.7313 0.94665 0.71773 0.0
H2450 H 0.75646 0.92168 0.74853 0.0
H2451 H 0.775 0.91772 0.73029 0.0
C2452 C 0.72241 0.93509 0.77064 0.0
C2453 C 0.70796 0.93304 0.76624 0.0
C2454 C 0.73347 0.93645 0.76037 0.0
C2455 C 0.73034 0.93551 0.74546 0.0
C2456 C 0.71574 0.93423 0.74108 0.0
C2457 C 0.70464 0.93312 0.75138 0.0
C2458 C 0.75137 0.93779 0.71002 0.0
C2459 C 0.76374 0.92947 0.71327 0.0
C2460 C 0.74078 0.94032 0.72061 0.0
C2461 C 0.7423 0.93446 0.73463 0.0
C2462 C 0.75498 0.92659 0.73796 0.0
C2463 C 0.7656 0.92421 0.72744 0.0
H2464 H 0.21604 0.05178 0.26334 0.0
H2465 H 0.25022 0.0542 0.29533 0.0
H2466 H 0.2341 0.04854 0.24429 0.0
H2467 H 0.26836 0.0518 0.27628 0.0
H2468 H 0.29927 0.0431 0.23984 0.0
H2469 H 0.28042 0.03866 0.25798 0.0
H2470 H 0.25019 0.06412 0.23257 0.0
H2471 H 0.2687 0.06789 0.21432 0.0
C2472 C 0.22744 0.0515 0.26629 0.0
C2473 C 0.23175 0.0534 0.28076 0.0
C2474 C 0.23781 0.04976 0.25537 0.0
C2475 C 0.25275 0.05021 0.25866 0.0
C2476 C 0.25699 0.05127 0.2733 0.0
C2477 C 0.24659 0.05273 0.28425 0.0
C2478 C 0.2885 0.04752 0.23808 0.0
C2479 C 0.28548 0.05591 0.22572 0.0
C2480 C 0.27772 0.04506 0.2485 0.0
C2481 C 0.26375 0.05109 0.24684 0.0
C2482 C 0.26068 0.05905 0.23417 0.0
C2483 C 0.27137 0.06134 0.22371 0.0
H2484 H 0.93859 0.29127 0.24601 0.0
H2485 H 0.91829 0.25828 0.21958 0.0
H2486 H 0.94066 0.27397 0.26597 0.0
H2487 H 0.91993 0.24117 0.2396 0.0
H2488 H 0.93398 0.20997 0.27451 0.0
H2489 H 0.93588 0.22693 0.25428 0.0
H2490 H 0.92471 0.26232 0.28296 0.0
H2491 H 0.92328 0.24542 0.30324 0.0
C2492 C 0.93464 0.28031 0.24444 0.0
C2493 C 0.92821 0.27616 0.23125 0.0
C2494 C 0.93573 0.27042 0.25591 0.0
C2495 C 0.93037 0.2562 0.25444 0.0
C2496 C 0.92435 0.25196 0.24107 0.0
C2497 C 0.92333 0.26181 0.2296 0.0
C2498 C 0.93204 0.2214 0.2765 0.0
C2499 C 0.92842 0.22636 0.29044 0.0
C2500 C 0.93306 0.23111 0.26489 0.0
C2501 C 0.93039 0.246 0.26696 0.0
C2502 C 0.92704 0.25098 0.281 0.0
C2503 C 0.92611 0.24127 0.29261 0.0
H2504 H 0.75274 0.94846 0.29014 0.0
H2505 H 0.77751 0.92189 0.26052 0.0
H2506 H 0.73444 0.95239 0.27136 0.0
H2507 H 0.75906 0.92523 0.24204 0.0
H2508 H 0.72794 0.93728 0.20782 0.0
H2509 H 0.74735 0.94063 0.22549 0.0
H2510 H 0.71578 0.9388 0.26021 0.0
H2511 H 0.69639 0.93618 0.24246 0.0
C2512 C 0.7543 0.94353 0.27959 0.0
C2513 C 0.7665 0.93479 0.27683 0.0
C2514 C 0.74378 0.94571 0.26885 0.0
C2515 C 0.74517 0.93906 0.25518 0.0
C2516 C 0.75768 0.93074 0.25231 0.0
C2517 C 0.76825 0.92872 0.26297 0.0
C2518 C 0.72516 0.93789 0.21923 0.0
C2519 C 0.71069 0.93631 0.22379 0.0
C2520 C 0.73628 0.9397 0.22937 0.0
C2521 C 0.7332 0.93971 0.24433 0.0
C2522 C 0.71859 0.93897 0.24881 0.0
C2523 C 0.70745 0.93739 0.23863 0.0
H2524 H 0.05406 0.69137 0.24484 0.0
H2525 H 0.05058 0.72383 0.21123 0.0
H2526 H 0.05294 0.71027 0.26325 0.0
H2527 H 0.04877 0.74273 0.22961 0.0
H2528 H 0.06911 0.77222 0.2641 0.0
H2529 H 0.06524 0.754 0.24553 0.0
H2530 H 0.03974 0.72859 0.27565 0.0
H2531 H 0.04417 0.74669 0.2945 0.0
C2532 C 0.0527 0.70253 0.2414 0.0
C2533 C 0.05261 0.70616 0.2266 0.0
C2534 C 0.05197 0.71339 0.25196 0.0
C2535 C 0.05095 0.72809 0.24794 0.0
C2536 C 0.04993 0.73158 0.23311 0.0
C2537 C 0.05087 0.72074 0.22257 0.0
C2538 C 0.06255 0.76282 0.26674 0.0
C2539 C 0.05704 0.76083 0.2808 0.0
C2540 C 0.06022 0.75239 0.25602 0.0
C2541 C 0.05217 0.73976 0.25905 0.0
C2542 C 0.04618 0.73805 0.273 0.0
C2543 C 0.04864 0.74845 0.28378 0.0
H2544 H 0.21273 0.91629 0.72974 0.0
H2545 H 0.23596 0.94687 0.70285 0.0
H2546 H 0.23168 0.91786 0.74798 0.0
H2547 H 0.25471 0.949 0.72145 0.0
H2548 H 0.29412 0.93163 0.74694 0.0
H2549 H 0.27396 0.93464 0.73021 0.0
H2550 H 0.2437 0.93142 0.76596 0.0
H2551 H 0.26396 0.92772 0.78263 0.0
C2552 C 0.22175 0.9236 0.72787 0.0
C2553 C 0.22295 0.93134 0.7148 0.0
C2554 C 0.2326 0.92459 0.7384 0.0
C2555 C 0.24483 0.93349 0.7362 0.0
C2556 C 0.24562 0.9418 0.7234 0.0
C2557 C 0.23484 0.94066 0.71277 0.0
C2558 C 0.28317 0.93171 0.75125 0.0
C2559 C 0.28061 0.92927 0.76607 0.0
C2560 C 0.27157 0.93355 0.74166 0.0
C2561 C 0.25714 0.93319 0.74668 0.0
C2562 C 0.25464 0.93145 0.76165 0.0
C2563 C 0.26625 0.92942 0.77123 0.0
H2564 H 0.05607 0.219 0.72574 0.0
H2565 H 0.06379 0.25085 0.69226 0.0
H2566 H 0.05509 0.23821 0.74384 0.0
H2567 H 0.0636 0.27005 0.71041 0.0
H2568 H 0.05416 0.30322 0.74541 0.0
H2569 H 0.05069 0.28427 0.72722 0.0
H2570 H 0.07155 0.25333 0.75575 0.0
H2571 H 0.0743 0.27206 0.77405 0.0
C2572 C 0.05751 0.23014 0.72226 0.0
C2573 C 0.06009 0.23343 0.70763 0.0
C2574 C 0.05708 0.24116 0.73265 0.0
C2575 C 0.05952 0.25571 0.72868 0.0
C2576 C 0.06154 0.25902 0.7139 0.0
C2577 C 0.06171 0.248 0.70347 0.0
C2578 C 0.0579 0.29233 0.74777 0.0
C2579 C 0.06448 0.28911 0.76114 0.0
C2580 C 0.05599 0.28147 0.73733 0.0
C2581 C 0.0608 0.2672 0.73998 0.0
C2582 C 0.06738 0.26407 0.7534 0.0
C2583 C 0.06909 0.27485 0.76388 0.0
H2584 H 0.69713 0.06002 0.74232 0.0
H2585 H 0.73137 0.05686 0.77421 0.0
H2586 H 0.71504 0.05925 0.72298 0.0
H2587 H 0.74933 0.0553 0.75485 0.0
H2588 H 0.77781 0.07343 0.71857 0.0
H2589 H 0.76022 0.07091 0.73806 0.0
H2590 H 0.73222 0.04614 0.70964 0.0
H2591 H 0.74959 0.04935 0.68992 0.0
C2592 C 0.70848 0.05881 0.74519 0.0
C2593 C 0.71287 0.05864 0.75978 0.0
C2594 C 0.71878 0.05829 0.73407 0.0
C2595 C 0.73371 0.05736 0.73729 0.0
C2596 C 0.73799 0.0564 0.75193 0.0
C2597 C 0.72769 0.05715 0.76305 0.0
C2598 C 0.76791 0.06741 0.71651 0.0
C2599 C 0.76503 0.06167 0.70271 0.0
C2600 C 0.75785 0.06584 0.72774 0.0
C2601 C 0.74475 0.05828 0.7255 0.0
C2602 C 0.74205 0.05224 0.71173 0.0
C2603 C 0.75204 0.05401 0.70043 0.0
H2604 H 0.9479 0.69388 0.74831 0.0
H2605 H 0.92469 0.72558 0.7739 0.0
H2606 H 0.95195 0.7121 0.72947 0.0
H2607 H 0.92817 0.74351 0.755 0.0
H2608 H 0.93544 0.74195 0.69206 0.0
H2609 H 0.93801 0.72411 0.7114 0.0
H2610 H 0.94422 0.75876 0.74244 0.0
H2611 H 0.94092 0.77654 0.72317 0.0
C2612 C 0.94376 0.70476 0.74995 0.0
C2613 C 0.9359 0.70828 0.76254 0.0
C2614 C 0.946 0.71518 0.73913 0.0
C2615 C 0.94034 0.72929 0.74065 0.0
C2616 C 0.93293 0.73287 0.75351 0.0
C2617 C 0.93081 0.72252 0.76434 0.0
C2618 C 0.9376 0.74572 0.70298 0.0
C2619 C 0.93775 0.76062 0.70617 0.0
C2620 C 0.93915 0.73549 0.71409 0.0
C2621 C 0.94109 0.73998 0.72856 0.0
C2622 C 0.94233 0.75491 0.7315 0.0
C2623 C 0.94054 0.76511 0.72045 0.0
H2624 H 0.2422 0.29434 0.05635 0.0
H2625 H 0.20838 0.26204 0.05309 0.0
H2626 H 0.26056 0.27549 0.05391 0.0
H2627 H 0.22668 0.24321 0.04987 0.0
H2628 H 0.2618 0.21276 0.06735 0.0
H2629 H 0.24313 0.23115 0.06494 0.0
H2630 H 0.27262 0.2578 0.03992 0.0
H2631 H 0.29161 0.23952 0.04297 0.0
C2632 C 0.2387 0.28324 0.05475 0.0
C2633 C 0.22388 0.27962 0.05511 0.0
C2634 C 0.24923 0.2724 0.05326 0.0
C2635 C 0.24515 0.25774 0.05187 0.0
C2636 C 0.23025 0.25431 0.05131 0.0
C2637 C 0.21975 0.26511 0.05305 0.0
C2638 C 0.26427 0.22247 0.0612 0.0
C2639 C 0.27821 0.22474 0.05544 0.0
C2640 C 0.2535 0.23302 0.05971 0.0
C2641 C 0.25631 0.24603 0.05223 0.0
C2642 C 0.27012 0.24804 0.04597 0.0
C2643 C 0.28098 0.23753 0.04763 0.0
H2644 H 0.21933 0.73118 0.91646 0.0
H2645 H 0.24539 0.69976 0.93956 0.0
H2646 H 0.23928 0.74847 0.91748 0.0
H2647 H 0.26526 0.71723 0.94097 0.0
H2648 H 0.30299 0.74459 0.92292 0.0
H2649 H 0.28261 0.72781 0.92462 0.0
H2650 H 0.25361 0.76377 0.93288 0.0
H2651 H 0.27397 0.78059 0.93076 0.0
C2652 C 0.22924 0.72805 0.92197 0.0
C2653 C 0.23082 0.71406 0.92784 0.0
C2654 C 0.24067 0.738 0.92263 0.0
C2655 C 0.25393 0.73423 0.92923 0.0
C2656 C 0.2553 0.7204 0.93557 0.0
C2657 C 0.24388 0.71042 0.93486 0.0
C2658 C 0.29227 0.7489 0.92516 0.0
C2659 C 0.29007 0.76391 0.92662 0.0
C2660 C 0.28059 0.73927 0.92624 0.0
C2661 C 0.26645 0.74443 0.92889 0.0
C2662 C 0.26432 0.75944 0.93063 0.0
C2663 C 0.27599 0.76908 0.92947 0.0
H2664 H 0.23985 0.29341 0.94689 0.0
H2665 H 0.21469 0.26398 0.92047 0.0
H2666 H 0.25791 0.27445 0.95089 0.0
H2667 H 0.23296 0.24528 0.92384 0.0
H2668 H 0.26424 0.21092 0.93577 0.0
H2669 H 0.24481 0.2286 0.93897 0.0
H2670 H 0.27641 0.26331 0.93731 0.0
H2671 H 0.29579 0.24558 0.93485 0.0
C2672 C 0.23815 0.28285 0.94201 0.0
C2673 C 0.22593 0.2802 0.93327 0.0
C2674 C 0.24854 0.27201 0.94422 0.0
C2675 C 0.24702 0.25834 0.93758 0.0
C2676 C 0.23445 0.25556 0.92933 0.0
C2677 C 0.22398 0.26634 0.92729 0.0
C2678 C 0.26702 0.22232 0.93637 0.0
C2679 C 0.2815 0.22688 0.93491 0.0
C2680 C 0.25588 0.23248 0.9381 0.0
C2681 C 0.25896 0.24744 0.93816 0.0
C2682 C 0.27358 0.25191 0.93747 0.0
C2683 C 0.28473 0.24174 0.93597 0.0
H2684 H 0.72484 0.20847 0.93927 0.0
H2685 H 0.69323 0.24282 0.9349 0.0
H2686 H 0.74394 0.2264 0.9429 0.0
H2687 H 0.71238 0.26081 0.93775 0.0
H2688 H 0.74878 0.29132 0.94858 0.0
H2689 H 0.73014 0.27272 0.95188 0.0
H2690 H 0.75652 0.24234 0.92768 0.0
H2691 H 0.77524 0.26061 0.92501 0.0
C2692 C 0.72198 0.21988 0.93918 0.0
C2693 C 0.7076 0.22426 0.93665 0.0
C2694 C 0.73293 0.23017 0.94115 0.0
C2695 C 0.72979 0.2451 0.94035 0.0
C2696 C 0.71523 0.24944 0.93858 0.0
C2697 C 0.70424 0.23912 0.93686 0.0
C2698 C 0.75063 0.28058 0.94417 0.0
C2699 C 0.76343 0.27744 0.93648 0.0
C2700 C 0.73992 0.26994 0.94598 0.0
C2701 C 0.74174 0.256 0.94 0.0
C2702 C 0.75479 0.25282 0.93269 0.0
C2703 C 0.76552 0.26337 0.93104 0.0
H2704 H 0.69314 0.74371 0.93409 0.0
H2705 H 0.72375 0.779 0.938 0.0
H2706 H 0.71293 0.72632 0.93599 0.0
H2707 H 0.74354 0.76163 0.94067 0.0
H2708 H 0.77547 0.72845 0.92184 0.0
H2709 H 0.7563 0.74619 0.9251 0.0
H2710 H 0.73133 0.71484 0.94956 0.0
H2711 H 0.75039 0.69681 0.94566 0.0
C2712 C 0.70408 0.74774 0.93572 0.0
C2713 C 0.70694 0.7627 0.9357 0.0
C2714 C 0.71545 0.73775 0.9369 0.0
C2715 C 0.72992 0.74253 0.93831 0.0
C2716 C 0.7326 0.75754 0.93921 0.0
C2717 C 0.72126 0.76751 0.93779 0.0
C2718 C 0.76596 0.72538 0.92806 0.0
C2719 C 0.76438 0.7112 0.93339 0.0
C2720 C 0.75497 0.73561 0.93003 0.0
C2721 C 0.74218 0.73199 0.93757 0.0
C2722 C 0.74089 0.71795 0.94346 0.0
C2723 C 0.75185 0.70763 0.94132 0.0
H2724 H 0.74503 0.69061 0.05509 0.0
H2725 H 0.77964 0.72169 0.04928 0.0
H2726 H 0.72718 0.70999 0.05308 0.0
H2727 H 0.76181 0.74103 0.04649 0.0
H2728 H 0.72885 0.7726 0.06632 0.0
H2729 H 0.74679 0.75374 0.06251 0.0
H2730 H 0.71483 0.72798 0.03968 0.0
H2731 H 0.69662 0.74675 0.04414 0.0
C2732 C 0.7488 0.70155 0.05298 0.0
C2733 C 0.76372 0.70469 0.05256 0.0
C2734 C 0.73855 0.71268 0.05175 0.0
C2735 C 0.74302 0.72717 0.04984 0.0
C2736 C 0.75796 0.73009 0.04836 0.0
C2737 C 0.7682 0.71899 0.04984 0.0
C2738 C 0.72568 0.76299 0.06034 0.0
C2739 C 0.71129 0.7611 0.05565 0.0
C2740 C 0.73603 0.75218 0.05803 0.0
C2741 C 0.73231 0.73926 0.05079 0.0
C2742 C 0.71804 0.73766 0.04552 0.0
C2743 C 0.70761 0.74845 0.04799 0.0
H2744 H 0.21207 0.72618 0.07137 0.0
H2745 H 0.23837 0.69646 0.04639 0.0
H2746 H 0.23105 0.7443 0.0699 0.0
H2747 H 0.2573 0.71495 0.04433 0.0
H2748 H 0.29433 0.74363 0.06326 0.0
H2749 H 0.27506 0.72592 0.05934 0.0
H2750 H 0.24383 0.7608 0.05549 0.0
H2751 H 0.26301 0.77837 0.06021 0.0
C2752 C 0.22182 0.72362 0.06529 0.0
C2753 C 0.22379 0.70985 0.0591 0.0
C2754 C 0.2327 0.73409 0.06434 0.0
C2755 C 0.24576 0.73113 0.05698 0.0
C2756 C 0.24748 0.71752 0.05027 0.0
C2757 C 0.23662 0.70696 0.05137 0.0
C2758 C 0.28337 0.74748 0.06138 0.0
C2759 C 0.28009 0.76233 0.06226 0.0
C2760 C 0.27231 0.73734 0.05904 0.0
C2761 C 0.25781 0.7419 0.0573 0.0
C2762 C 0.25478 0.75687 0.05719 0.0
C2763 C 0.26578 0.76695 0.0598 0.0
H2764 H 0.72695 0.21712 0.06633 0.0
H2765 H 0.69579 0.24315 0.04283 0.0
H2766 H 0.74502 0.23599 0.06354 0.0
H2767 H 0.71419 0.26199 0.03946 0.0
H2768 H 0.74367 0.29908 0.05723 0.0
H2769 H 0.72589 0.2798 0.05394 0.0
H2770 H 0.76073 0.24882 0.04819 0.0
H2771 H 0.77845 0.26803 0.05223 0.0
C2772 C 0.72405 0.22678 0.06029 0.0
C2773 C 0.70989 0.2287 0.05492 0.0
C2774 C 0.73448 0.2376 0.05857 0.0
C2775 C 0.7311 0.25058 0.05128 0.0
C2776 C 0.71711 0.25223 0.04533 0.0
C2777 C 0.70659 0.24141 0.04718 0.0
C2778 C 0.74751 0.28818 0.05504 0.0
C2779 C 0.76243 0.28499 0.05522 0.0
C2780 C 0.73731 0.27711 0.05307 0.0
C2781 C 0.74184 0.26267 0.05102 0.0
C2782 C 0.75683 0.25974 0.05014 0.0
C2783 C 0.767 0.27075 0.05236 0.0
H2784 H 0.5419 0.79225 0.74405 0.0
H2785 H 0.56755 0.76301 0.71786 0.0
H2786 H 0.53858 0.77309 0.76209 0.0
H2787 H 0.56484 0.74421 0.73599 0.0
H2788 H 0.55405 0.7094 0.76677 0.0
H2789 H 0.54992 0.72744 0.74788 0.0
H2790 H 0.55293 0.76156 0.77997 0.0
H2791 H 0.55628 0.74344 0.79887 0.0
C2792 C 0.54674 0.78171 0.74211 0.0
C2793 C 0.55508 0.77917 0.72961 0.0
C2794 C 0.54492 0.77076 0.75247 0.0
C2795 C 0.55151 0.7571 0.75058 0.0
C2796 C 0.55937 0.75447 0.73776 0.0
C2797 C 0.56105 0.76532 0.72738 0.0
C2798 C 0.55357 0.72075 0.76978 0.0
C2799 C 0.55566 0.72504 0.78423 0.0
C2800 C 0.55129 0.73111 0.75896 0.0
C2801 C 0.55134 0.74601 0.76233 0.0
C2802 C 0.55267 0.75021 0.77695 0.0
C2803 C 0.5547 0.73982 0.7878 0.0
H2804 H 0.22486 0.556 0.71832 0.0
H2805 H 0.19164 0.56196 0.75084 0.0
H2806 H 0.24317 0.55382 0.73727 0.0
H2807 H 0.21 0.56058 0.76984 0.0
H2808 H 0.24557 0.55041 0.80219 0.0
H2809 H 0.22724 0.54725 0.78328 0.0
H2810 H 0.25505 0.56983 0.75292 0.0
H2811 H 0.27348 0.57231 0.77157 0.0
C2812 C 0.22148 0.55674 0.72956 0.0
C2813 C 0.20688 0.55926 0.73312 0.0
C2814 C 0.23198 0.55564 0.74043 0.0
C2815 C 0.22816 0.55732 0.75512 0.0
C2816 C 0.21338 0.55911 0.75868 0.0
C2817 C 0.20283 0.55995 0.74779 0.0
C2818 C 0.24775 0.55458 0.79143 0.0
C2819 C 0.26094 0.56161 0.78835 0.0
C2820 C 0.23723 0.55284 0.7806 0.0
C2821 C 0.23962 0.55825 0.76651 0.0
C2822 C 0.2529 0.56521 0.7635 0.0
C2823 C 0.26346 0.56677 0.77425 0.0
H2824 H 0.42496 0.18533 0.74567 0.0
H2825 H 0.43637 0.21447 0.71078 0.0
H2826 H 0.42613 0.20544 0.76284 0.0
H2827 H 0.43813 0.23444 0.72796 0.0
H2828 H 0.4194 0.26894 0.75827 0.0
H2829 H 0.42172 0.24885 0.74144 0.0
H2830 H 0.44117 0.2227 0.77522 0.0
H2831 H 0.43833 0.24279 0.79229 0.0
C2832 C 0.42793 0.196 0.74172 0.0
C2833 C 0.43041 0.19838 0.72688 0.0
C2834 C 0.42871 0.20751 0.75157 0.0
C2835 C 0.43213 0.22161 0.74678 0.0
C2836 C 0.43517 0.22381 0.73199 0.0
C2837 C 0.43423 0.21235 0.72214 0.0
C2838 C 0.4243 0.25896 0.76209 0.0
C2839 C 0.4286 0.25742 0.77663 0.0
C2840 C 0.42573 0.24744 0.7524 0.0
C2841 C 0.43163 0.23412 0.75696 0.0
C2842 C 0.43638 0.23273 0.77141 0.0
C2843 C 0.43485 0.24427 0.78116 0.0
H2844 H 0.748 0.42943 0.79753 0.0
H2845 H 0.71211 0.43107 0.76738 0.0
H2846 H 0.76504 0.43198 0.77753 0.0
H2847 H 0.7291 0.43436 0.74737 0.0
H2848 H 0.7631 0.41746 0.71525 0.0
H2849 H 0.74541 0.41959 0.7346 0.0
H2850 H 0.77534 0.44633 0.75898 0.0
H2851 H 0.79338 0.4436 0.73973 0.0
C2852 C 0.74375 0.43065 0.78664 0.0
C2853 C 0.72874 0.42985 0.78398 0.0
C2854 C 0.75352 0.43222 0.77515 0.0
C2855 C 0.74849 0.43324 0.76077 0.0
C2856 C 0.7334 0.43325 0.75825 0.0
C2857 C 0.72364 0.43145 0.76972 0.0
C2858 C 0.76587 0.42392 0.72467 0.0
C2859 C 0.77968 0.43026 0.72603 0.0
C2860 C 0.75565 0.42525 0.73576 0.0
C2861 C 0.75892 0.43311 0.74843 0.0
C2862 C 0.77254 0.43998 0.74951 0.0
C2863 C 0.78285 0.43849 0.73845 0.0
H2864 H 0.55232 0.22223 0.27487 0.0
H2865 H 0.55639 0.19197 0.23935 0.0
H2866 H 0.54854 0.24197 0.25769 0.0
H2867 H 0.5534 0.21176 0.22211 0.0
H2868 H 0.54282 0.24928 0.19301 0.0
H2869 H 0.53933 0.23005 0.21092 0.0
H2870 H 0.56381 0.25504 0.24224 0.0
H2871 H 0.56667 0.27435 0.22465 0.0
C2872 C 0.5523 0.21981 0.26336 0.0
C2873 C 0.55481 0.20562 0.25843 0.0
C2874 C 0.55024 0.23112 0.2535 0.0
C2875 C 0.55095 0.22856 0.23847 0.0
C2876 C 0.55266 0.21418 0.23357 0.0
C2877 C 0.55445 0.20281 0.24346 0.0
C2878 C 0.54724 0.25071 0.20381 0.0
C2879 C 0.55509 0.26328 0.2074 0.0
C2880 C 0.54532 0.23966 0.21405 0.0
C2881 C 0.55134 0.2409 0.22804 0.0
C2882 C 0.55877 0.25374 0.2317 0.0
C2883 C 0.56053 0.26481 0.22155 0.0
H2884 H 0.76688 0.5473 0.28152 0.0
H2885 H 0.79947 0.55442 0.24858 0.0
H2886 H 0.74843 0.54452 0.26277 0.0
H2887 H 0.78095 0.55235 0.22982 0.0
H2888 H 0.7453 0.5435 0.19763 0.0
H2889 H 0.76343 0.53879 0.21646 0.0
H2890 H 0.73649 0.56125 0.24766 0.0
H2891 H 0.71833 0.5654 0.22913 0.0
C2892 C 0.77011 0.54814 0.27024 0.0
C2893 C 0.78455 0.55126 0.26651 0.0
C2894 C 0.75953 0.54664 0.25949 0.0
C2895 C 0.76311 0.54851 0.24477 0.0
C2896 C 0.77777 0.55074 0.24102 0.0
C2897 C 0.7884 0.55201 0.25178 0.0
C2898 C 0.74321 0.54722 0.20858 0.0
C2899 C 0.73044 0.5549 0.21188 0.0
C2900 C 0.75362 0.5446 0.21935 0.0
C2901 C 0.75148 0.54967 0.2336 0.0
C2902 C 0.73845 0.55693 0.23692 0.0
C2903 C 0.72805 0.55944 0.22622 0.0
H2904 H 0.43966 0.74599 0.18876 0.0
H2905 H 0.44424 0.71236 0.22107 0.0
H2906 H 0.4411 0.76438 0.20761 0.0
H2907 H 0.4464 0.73076 0.23993 0.0
H2908 H 0.42498 0.76483 0.26936 0.0
H2909 H 0.42967 0.74625 0.25136 0.0
H2910 H 0.45406 0.77713 0.22575 0.0
H2911 H 0.44878 0.79598 0.24363 0.0
C2912 C 0.44137 0.74254 0.19986 0.0
C2913 C 0.44161 0.72774 0.20348 0.0
C2914 C 0.44229 0.75311 0.21069 0.0
C2915 C 0.44366 0.74908 0.22536 0.0
C2916 C 0.44497 0.73426 0.22881 0.0
C2917 C 0.44383 0.7237 0.21799 0.0
C2918 C 0.43148 0.76763 0.25997 0.0
C2919 C 0.43638 0.7819 0.25783 0.0
C2920 C 0.4343 0.75692 0.24967 0.0
C2921 C 0.44224 0.76015 0.23704 0.0
C2922 C 0.44771 0.77431 0.23523 0.0
C2923 C 0.44475 0.78509 0.2455 0.0
H2924 H 0.27618 0.41663 0.21401 0.0
H2925 H 0.24533 0.43654 0.18487 0.0
H2926 H 0.25878 0.41843 0.23373 0.0
H2927 H 0.22811 0.43919 0.2048 0.0
H2928 H 0.19488 0.42478 0.23904 0.0
H2929 H 0.21228 0.42584 0.21922 0.0
H2930 H 0.24693 0.43339 0.25007 0.0
H2931 H 0.22954 0.4314 0.26989 0.0
C2932 C 0.26573 0.42163 0.2119 0.0
C2933 C 0.26207 0.42638 0.19791 0.0
C2934 C 0.25576 0.42279 0.22325 0.0
C2935 C 0.24196 0.429 0.22096 0.0
C2936 C 0.23848 0.4341 0.20697 0.0
C2937 C 0.24838 0.43267 0.19554 0.0
C2938 C 0.2062 0.42681 0.24154 0.0
C2939 C 0.2109 0.42788 0.25599 0.0
C2940 C 0.21621 0.4275 0.23016 0.0
C2941 C 0.23112 0.42956 0.23297 0.0
C2942 C 0.23563 0.43139 0.24745 0.0
C2943 C 0.22566 0.43039 0.25883 0.0
H2944 H 0.71278 0.55452 0.76713 0.0
H2945 H 0.74816 0.55753 0.79778 0.0
H2946 H 0.73014 0.55126 0.74744 0.0
H2947 H 0.76555 0.55496 0.77808 0.0
H2948 H 0.79474 0.54348 0.74095 0.0
H2949 H 0.77643 0.54052 0.75988 0.0
H2950 H 0.74634 0.56631 0.73467 0.0
H2951 H 0.76437 0.56869 0.71561 0.0
C2952 C 0.72428 0.5544 0.76966 0.0
C2953 C 0.72912 0.55642 0.78396 0.0
C2954 C 0.73425 0.55263 0.75836 0.0
C2955 C 0.74929 0.55306 0.76109 0.0
C2956 C 0.75408 0.55442 0.77554 0.0
C2957 C 0.7441 0.55598 0.78685 0.0
C2958 C 0.78413 0.54832 0.7394 0.0
C2959 C 0.78102 0.55638 0.72684 0.0
C2960 C 0.77366 0.54672 0.75029 0.0
C2961 C 0.7599 0.55326 0.7489 0.0
C2962 C 0.75669 0.56091 0.73607 0.0
C2963 C 0.76709 0.56237 0.72515 0.0
H2964 H 0.43094 0.79315 0.73958 0.0
H2965 H 0.42691 0.76162 0.70515 0.0
H2966 H 0.43304 0.7737 0.75723 0.0
H2967 H 0.42966 0.74204 0.72276 0.0
H2968 H 0.41357 0.71293 0.76009 0.0
H2969 H 0.41549 0.73116 0.74113 0.0
H2970 H 0.44707 0.75455 0.76684 0.0
H2971 H 0.44461 0.73657 0.78609 0.0
C2972 C 0.43078 0.78204 0.73575 0.0
C2973 C 0.42861 0.7789 0.721 0.0
C2974 C 0.4321 0.77085 0.74587 0.0
C2975 C 0.43145 0.75625 0.74146 0.0
C2976 C 0.42992 0.75315 0.72659 0.0
C2977 C 0.42843 0.76436 0.71648 0.0
C2978 C 0.42103 0.72189 0.76162 0.0
C2979 C 0.42883 0.72341 0.77463 0.0
C2980 C 0.42222 0.73231 0.7507 0.0
C2981 C 0.43138 0.74442 0.75245 0.0
C2982 C 0.43968 0.74555 0.76523 0.0
C2983 C 0.43835 0.7352 0.77623 0.0
H2984 H 0.24737 0.44529 0.78866 0.0
H2985 H 0.27131 0.42143 0.75617 0.0
H2986 H 0.22864 0.45093 0.77072 0.0
H2987 H 0.25249 0.42648 0.73852 0.0
H2988 H 0.22084 0.4414 0.70618 0.0
H2989 H 0.24055 0.44344 0.72372 0.0
H2990 H 0.2097 0.4383 0.75873 0.0
H2991 H 0.18998 0.437 0.74119 0.0
C2992 C 0.24867 0.44133 0.77767 0.0
C2993 C 0.26075 0.43283 0.77385 0.0
C2994 C 0.23791 0.44449 0.76741 0.0
C2995 C 0.23898 0.43911 0.75316 0.0
C2996 C 0.25137 0.43105 0.74928 0.0
C2997 C 0.26215 0.42803 0.75947 0.0
C2998 C 0.21827 0.44101 0.71765 0.0
C2999 C 0.20392 0.43886 0.72233 0.0
C3000 C 0.22957 0.44207 0.7277 0.0
C3001 C 0.22679 0.44074 0.74266 0.0
C3002 C 0.21228 0.43949 0.74734 0.0
C3003 C 0.20096 0.43866 0.73727 0.0
H3004 H 0.56213 0.28218 0.77435 0.0
H3005 H 0.57105 0.24635 0.80324 0.0
H3006 H 0.56075 0.2654 0.75394 0.0
H3007 H 0.57011 0.22962 0.78281 0.0
H3008 H 0.55679 0.20119 0.74545 0.0
H3009 H 0.5543 0.21856 0.76525 0.0
H3010 H 0.57699 0.25077 0.73977 0.0
H3011 H 0.57908 0.23355 0.71986 0.0
C3012 C 0.56379 0.27071 0.77633 0.0
C3013 C 0.56675 0.26558 0.79038 0.0
C3014 C 0.56307 0.2611 0.76463 0.0
C3015 C 0.56536 0.24616 0.76671 0.0
C3016 C 0.56807 0.24102 0.78083 0.0
C3017 C 0.56872 0.25062 0.79254 0.0
C3018 C 0.56108 0.21204 0.74403 0.0
C3019 C 0.5682 0.21598 0.73114 0.0
C3020 C 0.55975 0.22197 0.75541 0.0
C3021 C 0.56557 0.23602 0.75417 0.0
C3022 C 0.57224 0.2401 0.74106 0.0
C3023 C 0.5735 0.2302 0.72965 0.0
H3024 H 0.76526 0.43989 0.27709 0.0
H3025 H 0.7961 0.43671 0.24195 0.0
H3026 H 0.74558 0.44299 0.25966 0.0
H3027 H 0.77643 0.43902 0.22447 0.0
H3028 H 0.73919 0.44796 0.19473 0.0
H3029 H 0.75792 0.45231 0.21298 0.0
H3030 H 0.73308 0.42738 0.24406 0.0
H3031 H 0.71419 0.42369 0.22608 0.0
C3032 C 0.76783 0.44 0.26562 0.0
C3033 C 0.78216 0.43791 0.26086 0.0
C3034 C 0.75655 0.44165 0.25561 0.0
C3035 C 0.75932 0.44097 0.24061 0.0
C3036 C 0.77383 0.43974 0.2359 0.0
C3037 C 0.78514 0.43834 0.24593 0.0
C3038 C 0.73768 0.44362 0.20555 0.0
C3039 C 0.72528 0.43541 0.20896 0.0
C3040 C 0.74845 0.44603 0.21599 0.0
C3041 C 0.74712 0.44012 0.23001 0.0
C3042 C 0.73443 0.43234 0.2335 0.0
C3043 C 0.7236 0.4301 0.22314 0.0
H3044 H 0.55781 0.76584 0.27859 0.0
H3045 H 0.56074 0.79675 0.24351 0.0
H3046 H 0.55457 0.74627 0.26112 0.0
H3047 H 0.5583 0.77718 0.22599 0.0
H3048 H 0.5474 0.74023 0.19639 0.0
H3049 H 0.54423 0.75909 0.21474 0.0
H3050 H 0.56944 0.73355 0.24505 0.0
H3051 H 0.57195 0.71459 0.22703 0.0
C3052 C 0.55772 0.76844 0.26713 0.0
C3053 C 0.55966 0.78278 0.2624 0.0
C3054 C 0.55596 0.75722 0.25709 0.0
C3055 C 0.55638 0.76006 0.24209 0.0
C3056 C 0.55773 0.77455 0.23742 0.0
C3057 C 0.55924 0.78579 0.24747 0.0
C3058 C 0.55205 0.73861 0.20706 0.0
C3059 C 0.55999 0.72598 0.21024 0.0
C3060 C 0.55033 0.74944 0.21756 0.0
C3061 C 0.55665 0.74794 0.2314 0.0
C3062 C 0.56418 0.73505 0.23465 0.0
C3063 C 0.56573 0.72418 0.22424 0.0
H3064 H 0.28063 0.56013 0.22472 0.0
H3065 H 0.24734 0.56098 0.19172 0.0
H3066 H 0.26216 0.55624 0.24325 0.0
H3067 H 0.22877 0.55784 0.21025 0.0
H3068 H 0.1977 0.54584 0.24582 0.0
H3069 H 0.21723 0.5434 0.22803 0.0
H3070 H 0.24464 0.5708 0.25454 0.0
H3071 H 0.22547 0.57265 0.27244 0.0
C3072 C 0.26935 0.55942 0.22144 0.0
C3073 C 0.2654 0.56101 0.20682 0.0
C3074 C 0.25874 0.55729 0.23205 0.0
C3075 C 0.24392 0.55697 0.22831 0.0
C3076 C 0.24006 0.55788 0.21356 0.0
C3077 C 0.2507 0.55978 0.20292 0.0
C3078 C 0.20799 0.55116 0.24788 0.0
C3079 C 0.21003 0.55949 0.26047 0.0
C3080 C 0.21915 0.54983 0.23767 0.0
C3081 C 0.23253 0.55695 0.23978 0.0
C3082 C 0.23463 0.56493 0.25261 0.0
C3083 C 0.22356 0.56611 0.26287 0.0
H3084 H 0.41737 0.2305 0.27642 0.0
H3085 H 0.4476 0.20316 0.25324 0.0
H3086 H 0.41876 0.24846 0.25719 0.0
H3087 H 0.44957 0.22147 0.23423 0.0
H3088 H 0.4319 0.24633 0.19467 0.0
H3089 H 0.43501 0.22992 0.21505 0.0
H3090 H 0.43218 0.2662 0.24468 0.0
H3091 H 0.42837 0.28253 0.2242 0.0
C3092 C 0.42458 0.22848 0.26735 0.0
C3093 C 0.43225 0.21536 0.26625 0.0
C3094 C 0.42546 0.23885 0.25633 0.0
C3095 C 0.4342 0.23641 0.24404 0.0
C3096 C 0.44248 0.22358 0.24336 0.0
C3097 C 0.44144 0.21313 0.2543 0.0
C3098 C 0.43209 0.25082 0.20552 0.0
C3099 C 0.42973 0.26569 0.20785 0.0
C3100 C 0.43399 0.24141 0.21725 0.0
C3101 C 0.43377 0.24668 0.23157 0.0
C3102 C 0.4321 0.2617 0.23383 0.0
C3103 C 0.43001 0.27109 0.22209 0.0
H3104 H 0.79424 0.74022 0.5464 0.0
H3105 H 0.76499 0.71244 0.5703 0.0
H3106 H 0.77498 0.75827 0.54388 0.0
H3107 H 0.74602 0.73061 0.5684 0.0
H3108 H 0.71084 0.76148 0.55732 0.0
H3109 H 0.72932 0.7429 0.55365 0.0
H3110 H 0.76288 0.7754 0.55855 0.0
H3111 H 0.74435 0.794 0.56148 0.0
C3112 C 0.78368 0.73796 0.55106 0.0
C3113 C 0.78114 0.72496 0.5586 0.0
C3114 C 0.77266 0.74833 0.54971 0.0
C3115 C 0.75893 0.74598 0.55601 0.0
C3116 C 0.75633 0.73275 0.56318 0.0
C3117 C 0.76727 0.72233 0.56437 0.0
C3118 C 0.72217 0.76465 0.55738 0.0
C3119 C 0.72616 0.77915 0.55982 0.0
C3120 C 0.73278 0.754 0.55538 0.0
C3121 C 0.74764 0.75757 0.55603 0.0
C3122 C 0.75158 0.77222 0.55782 0.0
C3123 C 0.74095 0.78291 0.55959 0.0
H3124 H 0.79058 0.25124 0.44335 0.0
H3125 H 0.76051 0.27616 0.41736 0.0
H3126 H 0.77195 0.2327 0.44702 0.0
H3127 H 0.74219 0.25754 0.42049 0.0
H3128 H 0.70801 0.22661 0.43338 0.0
H3129 H 0.72591 0.24586 0.4363 0.0
H3130 H 0.76046 0.2142 0.43318 0.0
H3131 H 0.7425 0.19492 0.43095 0.0
C3132 C 0.77998 0.25279 0.4385 0.0
C3133 C 0.77703 0.26511 0.43001 0.0
C3134 C 0.76932 0.24214 0.44052 0.0
C3135 C 0.75555 0.24356 0.43401 0.0
C3136 C 0.75255 0.25614 0.4259 0.0
C3137 C 0.76312 0.26681 0.42399 0.0
C3138 C 0.71944 0.22376 0.43357 0.0
C3139 C 0.72388 0.2093 0.43177 0.0
C3140 C 0.72971 0.23479 0.43515 0.0
C3141 C 0.74466 0.23164 0.43472 0.0
C3142 C 0.74906 0.21705 0.43369 0.0
C3143 C 0.73876 0.20598 0.43233 0.0
H3144 H 0.76057 0.72075 0.41645 0.0
H3145 H 0.79287 0.74794 0.43689 0.0
H3146 H 0.74309 0.74047 0.41762 0.0
H3147 H 0.77518 0.76763 0.43848 0.0
H3148 H 0.74613 0.80417 0.42018 0.0
H3149 H 0.76342 0.78425 0.42217 0.0
H3150 H 0.72836 0.75503 0.43317 0.0
H3151 H 0.71103 0.77489 0.43071 0.0
C3152 C 0.76387 0.73087 0.42142 0.0
C3153 C 0.77813 0.73282 0.42649 0.0
C3154 C 0.7538 0.74218 0.42217 0.0
C3155 C 0.75772 0.75568 0.42809 0.0
C3156 C 0.77187 0.75745 0.43363 0.0
C3157 C 0.78198 0.74615 0.43282 0.0
C3158 C 0.74214 0.79351 0.42309 0.0
C3159 C 0.72722 0.79106 0.42517 0.0
C3160 C 0.75206 0.7821 0.42434 0.0
C3161 C 0.74729 0.76801 0.4278 0.0
C3162 C 0.73239 0.76569 0.43026 0.0
C3163 C 0.72246 0.77708 0.42891 0.0
H3164 H 0.19674 0.73793 0.44339 0.0
H3165 H 0.22596 0.7106 0.41894 0.0
H3166 H 0.21541 0.75673 0.44458 0.0
H3167 H 0.24428 0.72948 0.41949 0.0
H3168 H 0.27879 0.76178 0.42828 0.0
H3169 H 0.26114 0.74267 0.43308 0.0
H3170 H 0.22628 0.77392 0.42909 0.0
H3171 H 0.24402 0.79308 0.42506 0.0
C3172 C 0.20717 0.73593 0.43832 0.0
C3173 C 0.20987 0.72284 0.43102 0.0
C3174 C 0.21784 0.74673 0.43892 0.0
C3175 C 0.23137 0.74471 0.43207 0.0
C3176 C 0.23414 0.73139 0.42513 0.0
C3177 C 0.22356 0.72056 0.42471 0.0
C3178 C 0.26735 0.76456 0.42864 0.0
C3179 C 0.26276 0.77887 0.42617 0.0
C3180 C 0.25722 0.75361 0.4313 0.0
C3181 C 0.24223 0.75666 0.43127 0.0
C3182 C 0.23771 0.77114 0.42937 0.0
C3183 C 0.24788 0.78214 0.42696 0.0
H3184 H 0.24601 0.19002 0.42431 0.0
H3185 H 0.28139 0.21915 0.4343 0.0
H3186 H 0.22885 0.21001 0.42646 0.0
H3187 H 0.26418 0.23907 0.43704 0.0
H3188 H 0.23212 0.27363 0.4207 0.0
H3189 H 0.24953 0.25387 0.42199 0.0
H3190 H 0.21711 0.22667 0.44232 0.0
H3191 H 0.19948 0.24638 0.4405 0.0
C3192 C 0.25009 0.20067 0.42718 0.0
C3193 C 0.26505 0.20305 0.42901 0.0
C3194 C 0.24023 0.21213 0.42853 0.0
C3195 C 0.24511 0.22621 0.43189 0.0
C3196 C 0.26006 0.22845 0.43418 0.0
C3197 C 0.26992 0.21701 0.43268 0.0
C3198 C 0.22874 0.26349 0.42559 0.0
C3199 C 0.21439 0.26153 0.4304 0.0
C3200 C 0.23877 0.25215 0.42641 0.0
C3201 C 0.23474 0.23861 0.43219 0.0
C3202 C 0.22052 0.23685 0.43755 0.0
C3203 C 0.21044 0.24818 0.43661 0.0
H3204 H 0.22868 0.27956 0.55924 0.0
H3205 H 0.19702 0.24508 0.5564 0.0
H3206 H 0.24825 0.26181 0.55746 0.0
H3207 H 0.21646 0.2273 0.55533 0.0
H3208 H 0.27662 0.22539 0.57694 0.0
H3209 H 0.25874 0.2444 0.57295 0.0
H3210 H 0.23591 0.21665 0.54274 0.0
H3211 H 0.25348 0.19739 0.54732 0.0
C3212 C 0.22591 0.26819 0.55813 0.0
C3213 C 0.21133 0.26369 0.55809 0.0
C3214 C 0.23712 0.258 0.55722 0.0
C3215 C 0.23398 0.24307 0.55645 0.0
C3216 C 0.21935 0.23868 0.55573 0.0
C3217 C 0.20816 0.24888 0.55644 0.0
C3218 C 0.26787 0.22343 0.56932 0.0
C3219 C 0.26634 0.20986 0.56257 0.0
C3220 C 0.25765 0.23437 0.56693 0.0
C3221 C 0.24577 0.23207 0.55759 0.0
C3222 C 0.24471 0.21872 0.55025 0.0
C3223 C 0.25483 0.2077 0.5528 0.0
H3224 H 0.76425 0.27712 0.56229 0.0
H3225 H 0.79556 0.25133 0.53878 0.0
H3226 H 0.74645 0.25792 0.55991 0.0
H3227 H 0.77743 0.23221 0.53572 0.0
H3228 H 0.74885 0.19458 0.55318 0.0
H3229 H 0.76622 0.21424 0.54995 0.0
H3230 H 0.7307 0.24466 0.54526 0.0
H3231 H 0.71343 0.22506 0.54934 0.0
C3232 C 0.76722 0.26745 0.55631 0.0
C3233 C 0.78134 0.26568 0.55084 0.0
C3234 C 0.75694 0.25643 0.55483 0.0
C3235 C 0.76045 0.24342 0.54764 0.0
C3236 C 0.77441 0.24195 0.54155 0.0
C3237 C 0.78478 0.25294 0.54321 0.0
C3238 C 0.74478 0.20545 0.55125 0.0
C3239 C 0.72982 0.20835 0.55171 0.0
C3240 C 0.75474 0.21674 0.5493 0.0
C3241 C 0.74991 0.23114 0.54754 0.0
C3242 C 0.73486 0.2338 0.547 0.0
C3243 C 0.72493 0.22256 0.54922 0.0
H3244 H 0.27762 0.77433 0.55752 0.0
H3245 H 0.24161 0.8024 0.5683 0.0
H3246 H 0.26097 0.75389 0.55522 0.0
H3247 H 0.22501 0.7819 0.56649 0.0
H3248 H 0.19661 0.74499 0.55172 0.0
H3249 H 0.21375 0.76513 0.55016 0.0
H3250 H 0.24673 0.73862 0.57051 0.0
H3251 H 0.22977 0.71842 0.57161 0.0
C3252 C 0.26614 0.77612 0.55943 0.0
C3253 C 0.26092 0.78995 0.56315 0.0
C3254 C 0.2566 0.76439 0.55817 0.0
C3255 C 0.24164 0.76621 0.56071 0.0
C3256 C 0.23642 0.78013 0.56423 0.0
C3257 C 0.24595 0.79187 0.56539 0.0
C3258 C 0.20758 0.74343 0.55568 0.0
C3259 C 0.21182 0.73015 0.56186 0.0
C3260 C 0.21738 0.755 0.55489 0.0
C3261 C 0.23159 0.75356 0.56033 0.0
C3262 C 0.23594 0.74009 0.56605 0.0
C3263 C 0.22618 0.72851 0.56675 0.0
H3264 H 0.03521 0.16452 0.31647 0.0
H3265 H 0.04281 0.18956 0.35535 0.0
H3266 H 0.01 0.16161 0.32313 0.0
H3267 H 0.01755 0.18599 0.36252 0.0
H3268 H 0.97086 0.20208 0.35155 0.0
H3269 H -0.00337 0.19732 0.35369 0.0
H3270 H 0.99007 0.15404 0.33671 0.0
H3271 H 0.96422 0.15921 0.33384 0.0
C3272 C 0.03161 0.16896 0.32674 0.0
C3273 C 0.04089 0.17761 0.33518 0.0
C3274 C 0.01709 0.16719 0.33065 0.0
C3275 C 0.01157 0.17386 0.34323 0.0
C3276 C 0.02132 0.18108 0.35253 0.0
C3277 C 0.03583 0.18304 0.34849 0.0
C3278 C 0.97486 0.19144 0.34854 0.0
C3279 C 0.9656 0.18115 0.34221 0.0
C3280 C 0.98969 0.18862 0.34991 0.0
C3281 C 0.99556 0.17534 0.34515 0.0
C3282 C 0.986 0.16453 0.34012 0.0
C3283 C 0.97118 0.16745 0.33853 0.0
H3284 H 0.79031 0.96177 0.34381 0.0
H3285 H 0.83266 0.95896 0.32387 0.0
H3286 H 0.79394 0.9874 0.34813 0.0
H3287 H 0.83684 0.98455 0.32911 0.0
H3288 H 0.79928 0.03414 0.35204 0.0
H3289 H 0.80374 0.00857 0.35735 0.0
H3290 H 0.82817 0.00481 0.3174 0.0
H3291 H 0.82444 0.03027 0.31268 0.0
C3292 C 0.80067 0.96653 0.34088 0.0
C3293 C 0.81106 0.95847 0.33317 0.0
C3294 C 0.80283 0.9813 0.34345 0.0
C3295 C 0.81556 0.98826 0.33862 0.0
C3296 C 0.82667 0.97971 0.3325 0.0
C3297 C 0.82436 0.965 0.32961 0.0
C3298 C 0.80594 0.02788 0.34464 0.0
C3299 C 0.81127 0.03414 0.33181 0.0
C3300 C 0.80842 0.01319 0.34762 0.0
C3301 C 0.81606 0.00442 0.33767 0.0
C3302 C 0.82236 0.01108 0.32545 0.0
C3303 C 0.82008 0.02576 0.32263 0.0
H3304 H 0.96465 0.82573 0.31367 0.0
H3305 H 0.95822 0.80136 0.35317 0.0
H3306 H 0.99009 0.82843 0.31933 0.0
H3307 H 0.98376 0.80476 0.3594 0.0
H3308 H 0.02979 0.78778 0.34676 0.0
H3309 H 0.0044 0.79335 0.35067 0.0
H3310 H 0.01072 0.83573 0.33144 0.0
H3311 H 0.03605 0.82963 0.32667 0.0
C3312 C 0.96858 0.82139 0.32387 0.0
C3313 C 0.95951 0.81299 0.33277 0.0
C3314 C 0.98326 0.82305 0.32723 0.0
C3315 C 0.9892 0.81652 0.33971 0.0
C3316 C 0.9797 0.80955 0.34946 0.0
C3317 C 0.96502 0.80769 0.34597 0.0
C3318 C 0.02585 0.79844 0.34371 0.0
C3319 C 0.03478 0.80813 0.33607 0.0
C3320 C 0.01122 0.80171 0.34605 0.0
C3321 C 0.00528 0.81488 0.34103 0.0
C3322 C 0.01475 0.82528 0.33499 0.0
C3323 C 0.02931 0.82185 0.33235 0.0
H3324 H 0.1608 0.03437 0.32518 0.0
H3325 H 0.20255 0.02799 0.34554 0.0
H3326 H 0.15422 0.00937 0.33077 0.0
H3327 H 0.19657 0.00287 0.35017 0.0
H3328 H 0.18822 0.95691 0.35343 0.0
H3329 H 0.18514 0.98257 0.35921 0.0
H3330 H 0.16089 0.98836 0.31937 0.0
H3331 H 0.16319 0.96285 0.31423 0.0
C3332 C 0.16847 0.02767 0.33107 0.0
C3333 C 0.18229 0.033 0.33465 0.0
C3334 C 0.16477 0.01329 0.33418 0.0
C3335 C 0.17502 0.00383 0.34049 0.0
C3336 C 0.1883 0.00968 0.34535 0.0
C3337 C 0.19182 0.02415 0.34258 0.0
C3338 C 0.18183 0.96363 0.34619 0.0
C3339 C 0.17625 0.95795 0.3332 0.0
C3340 C 0.18016 0.97839 0.34942 0.0
C3341 C 0.17314 0.98776 0.33958 0.0
C3342 C 0.16632 0.98165 0.32734 0.0
C3343 C 0.16777 0.96692 0.32427 0.0
H3344 H 0.03001 0.78748 0.64144 0.0
H3345 H 0.0349 0.83 0.66044 0.0
H3346 H 0.00466 0.7924 0.63667 0.0
H3347 H 0.0096 0.83545 0.65477 0.0
H3348 H 0.96393 0.82426 0.67288 0.0
H3349 H 0.98919 0.82785 0.66702 0.0
H3350 H 0.98367 0.80287 0.62764 0.0
H3351 H 0.95831 0.79859 0.63409 0.0
C3352 C 0.0258 0.79815 0.64403 0.0
C3353 C 0.03429 0.8082 0.65169 0.0
C3354 C 0.01119 0.80105 0.64119 0.0
C3355 C 0.00484 0.8142 0.64574 0.0
C3356 C 0.01394 0.82499 0.65162 0.0
C3357 C 0.02848 0.82194 0.65477 0.0
C3358 C 0.96798 0.8198 0.66279 0.0
C3359 C 0.95923 0.81078 0.65418 0.0
C3360 C 0.98256 0.82199 0.6593 0.0
C3361 C 0.98871 0.81536 0.64698 0.0
C3362 C 0.97946 0.80776 0.63746 0.0
C3363 C 0.96488 0.80538 0.64109 0.0
H3364 H 0.16137 0.0283 0.6822 0.0
H3365 H 0.18451 0.03392 0.64183 0.0
H3366 H 0.15807 0.00288 0.67693 0.0
H3367 H 0.18049 0.0084 0.63603 0.0
H3368 H 0.15524 0.95696 0.6696 0.0
H3369 H 0.14975 0.98245 0.66507 0.0
H3370 H 0.19177 0.9876 0.64463 0.0
H3371 H 0.19672 0.96208 0.64834 0.0
C3372 C 0.16532 0.0242 0.67192 0.0
C3373 C 0.17353 0.03303 0.66261 0.0
C3374 C 0.1633 0.00954 0.66879 0.0
C3375 C 0.16928 0.00338 0.65615 0.0
C3376 C 0.17611 0.01264 0.64607 0.0
C3377 C 0.17832 0.0273 0.64933 0.0
C3378 C 0.16307 0.96349 0.66373 0.0
C3379 C 0.17653 0.95764 0.65959 0.0
C3380 C 0.15999 0.97813 0.66122 0.0
C3381 C 0.17048 0.98729 0.65488 0.0
C3382 C 0.18335 0.98101 0.6495 0.0
C3383 C 0.18627 0.96631 0.65172 0.0
H3384 H 0.95992 0.20482 0.64113 0.0
H3385 H 0.95551 0.1618 0.65916 0.0
H3386 H 0.98584 0.20111 0.63843 0.0
H3387 H 0.98145 0.15768 0.65569 0.0
H3388 H 0.02562 0.17015 0.67648 0.0
H3389 H 0.0005 0.16665 0.66975 0.0
H3390 H 0.00765 0.19081 0.63013 0.0
H3391 H 0.03288 0.19487 0.63732 0.0
C3392 C 0.96441 0.19433 0.64396 0.0
C3393 C 0.95578 0.18374 0.65071 0.0
C3394 C 0.97934 0.19214 0.64233 0.0
C3395 C 0.98588 0.17922 0.64721 0.0
C3396 C 0.97687 0.16795 0.65227 0.0
C3397 C 0.96198 0.17025 0.65416 0.0
C3398 C 0.02194 0.17448 0.66618 0.0
C3399 C 0.03114 0.18306 0.65759 0.0
C3400 C 0.00749 0.17234 0.66221 0.0
C3401 C 0.0019 0.17861 0.64945 0.0
C3402 C 0.01149 0.1861 0.64019 0.0
C3403 C 0.02597 0.18836 0.64426 0.0
H3404 H 0.804 0.02463 0.63334 0.0
H3405 H 0.82409 0.0226 0.67564 0.0
H3406 H 0.80797 -0.00134 0.63021 0.0
H3407 H 0.82734 -0.00332 0.67295 0.0
H3408 H 0.83141 0.95021 0.66878 0.0
H3409 H 0.83679 0.97547 0.66306 0.0
H3410 H 0.79604 0.97862 0.63983 0.0
H3411 H 0.79118 0.95332 0.64486 0.0
C3412 C 0.80945 0.01866 0.64188 0.0
C3413 C 0.81351 0.02557 0.65484 0.0
C3414 C 0.81166 0.00375 0.64013 0.0
C3415 C 0.8177 -0.00458 0.65143 0.0
C3416 C 0.82278 0.00264 0.66391 0.0
C3417 C 0.82081 0.01756 0.66554 0.0
C3418 C 0.82385 0.95622 0.66206 0.0
C3419 C 0.81074 0.94989 0.65751 0.0
C3420 C 0.82687 0.97074 0.65887 0.0
C3421 C 0.81667 0.97928 0.65133 0.0
C3422 C 0.80423 0.97248 0.6456 0.0
C3423 C 0.80136 0.95791 0.64857 0.0
H3424 H 0.35428 0.95876 0.18911 0.0
H3425 H 0.31484 0.96664 0.16496 0.0
H3426 H 0.36215 0.98359 0.18434 0.0
H3427 H 0.32216 0.99143 0.16089 0.0
H3428 H 0.33181 0.03638 0.15747 0.0
H3429 H 0.33563 0.01072 0.15231 0.0
H3430 H 0.35492 0.00528 0.19479 0.0
H3431 H 0.35197 0.03093 0.19941 0.0
C3432 C 0.34742 0.96572 0.18257 0.0
C3433 C 0.33379 0.96087 0.1777 0.0
C3434 C 0.35188 0.97999 0.17989 0.0
C3435 C 0.34267 0.98973 0.17253 0.0
C3436 C 0.32967 0.98436 0.16651 0.0
C3437 C 0.32535 0.97008 0.16899 0.0
C3438 C 0.33736 0.02975 0.16544 0.0
C3439 C 0.34127 0.03554 0.17898 0.0
C3440 C 0.33944 0.015 0.16256 0.0
C3441 C 0.34507 0.00572 0.17333 0.0
C3442 C 0.35052 0.01195 0.18618 0.0
C3443 C 0.34875 0.02674 0.18891 0.0
H3444 H 0.96138 0.30677 0.16847 0.0
H3445 H 0.95381 0.34749 0.1904 0.0
H3446 H 0.98647 0.3134 0.16458 0.0
H3447 H 0.97897 0.35457 0.18587 0.0
H3448 H 0.03152 0.32379 0.15943 0.0
H3449 H 0.00559 0.32667 0.15489 0.0
H3450 H 0.00079 0.34751 0.19667 0.0
H3451 H 0.02672 0.34538 0.20071 0.0
C3452 C 0.96498 0.31737 0.17207 0.0
C3453 C 0.9557 0.32646 0.18003 0.0
C3454 C 0.97942 0.32128 0.16971 0.0
C3455 C 0.98492 0.33448 0.17509 0.0
C3456 C 0.97523 0.34417 0.18188 0.0
C3457 C 0.96078 0.34016 0.18441 0.0
C3458 C 0.02496 0.32944 0.16738 0.0
C3459 C 0.03106 0.33409 0.18055 0.0
C3460 C 0.01007 0.33099 0.16486 0.0
C3461 C 0.00094 0.33688 0.17561 0.0
C3462 C 0.00737 0.34292 0.18809 0.0
C3463 C 0.02231 0.34164 0.19047 0.0
H3464 H 0.66627 0.95532 0.15464 0.0
H3465 H 0.64499 0.96052 0.19604 0.0
H3466 H 0.66179 0.9808 0.14913 0.0
H3467 H 0.64136 0.98604 0.19109 0.0
H3468 H 0.63961 0.03247 0.18433 0.0
H3469 H 0.63326 0.00711 0.18013 0.0
H3470 H 0.67396 0.001 0.15741 0.0
H3471 H 0.67976 0.02628 0.16088 0.0
C3472 C 0.66037 0.96186 0.16243 0.0
C3473 C 0.65626 0.95604 0.17589 0.0
C3474 C 0.65791 0.97651 0.15935 0.0
C3475 C 0.65166 0.98571 0.16984 0.0
C3476 C 0.64618 0.97943 0.18266 0.0
C3477 C 0.64834 0.96472 0.18558 0.0
C3478 C 0.64695 0.02576 0.17805 0.0
C3479 C 0.66032 0.03128 0.1732 0.0
C3480 C 0.64337 0.01118 0.17573 0.0
C3481 C 0.65323 0.00179 0.16876 0.0
C3482 C 0.66597 0.00776 0.16275 0.0
C3483 C 0.66941 0.02234 0.16486 0.0
H3484 H 0.02095 0.67356 0.16452 0.0
H3485 H 0.02736 0.63444 0.18953 0.0
H3486 H 0.99557 0.66777 0.16171 0.0
H3487 H 0.00185 0.62809 0.18604 0.0
H3488 H 0.95561 0.64122 0.2023 0.0
H3489 H 0.98101 0.63698 0.19705 0.0
H3490 H 0.97519 0.65528 0.1542 0.0
H3491 H 0.94985 0.66039 0.15995 0.0
C3492 C 0.01702 0.66343 0.16902 0.0
C3493 C 0.02607 0.65466 0.17759 0.0
C3494 C 0.00239 0.65998 0.16727 0.0
C3495 C -0.00355 0.64756 0.17389 0.0
C3496 C 0.00592 0.63796 0.18114 0.0
C3497 C 0.02057 0.64154 0.18307 0.0
C3498 C 0.95965 0.64398 0.19161 0.0
C3499 C 0.95088 0.65151 0.18168 0.0
C3500 C 0.97428 0.64145 0.18852 0.0
C3501 C 0.98037 0.64617 0.17532 0.0
C3502 C 0.97104 0.65198 0.16468 0.0
C3503 C 0.95647 0.65482 0.16791 0.0
H3504 H 0.34707 0.95977 0.78773 0.0
H3505 H 0.32912 0.95459 0.83068 0.0
H3506 H 0.35094 0.98537 0.79234 0.0
H3507 H 0.33374 0.98014 0.83571 0.0
H3508 H 0.31531 0.02584 0.82502 0.0
H3509 H 0.32082 0.00037 0.82782 0.0
H3510 H 0.36055 0.00614 0.8034 0.0
H3511 H 0.35456 0.03172 0.80001 0.0
C3512 C 0.34447 0.96401 0.79838 0.0
C3513 C 0.33746 0.95529 0.80872 0.0
C3514 C 0.34678 0.97873 0.8011 0.0
C3515 C 0.34233 0.98498 0.81432 0.0
C3516 C 0.33687 0.97581 0.82525 0.0
C3517 C 0.3343 0.96115 0.82242 0.0
C3518 C 0.3254 0.02178 0.82052 0.0
C3519 C 0.33432 0.03071 0.81199 0.0
C3520 C 0.32866 0.00711 0.82224 0.0
C3521 C 0.34103 0.00104 0.8156 0.0
C3522 C 0.35073 0.01035 0.80833 0.0
C3523 C 0.34736 0.02504 0.80647 0.0
H3524 H 0.02664 0.31318 0.823 0.0
H3525 H 0.02839 0.35636 0.80488 0.0
H3526 H 0.00077 0.31579 0.82692 0.0
H3527 H 0.00248 0.35939 0.80956 0.0
H3528 H 0.95677 0.34568 0.79292 0.0
H3529 H 0.98222 0.35037 0.79754 0.0
H3530 H 0.97971 0.32526 0.83714 0.0
H3531 H 0.95429 0.31989 0.83196 0.0
C3532 C 0.02156 0.32344 0.82031 0.0
C3533 C 0.02945 0.33444 0.81334 0.0
C3534 C 0.00667 0.32502 0.82267 0.0
C3535 C -0.00062 0.33774 0.81832 0.0
C3536 C 0.00763 0.34929 0.81267 0.0
C3537 C 0.02249 0.3476 0.81006 0.0
C3538 C 0.96155 0.34147 0.80281 0.0
C3539 C 0.95365 0.33214 0.8119 0.0
C3540 C 0.9762 0.34423 0.80555 0.0
C3541 C 0.9832 0.33792 0.81758 0.0
C3542 C 0.97481 0.32992 0.82753 0.0
C3543 C 0.96021 0.32693 0.82464 0.0
H3544 H 0.64876 0.03017 0.78878 0.0
H3545 H 0.66806 0.03531 0.83114 0.0
H3546 H 0.64337 0.00501 0.79419 0.0
H3547 H 0.66177 0.01032 0.83709 0.0
H3548 H 0.67687 0.96329 0.82806 0.0
H3549 H 0.67283 0.98904 0.8302 0.0
H3550 H 0.63307 0.985 0.80544 0.0
H3551 H 0.63768 0.95908 0.8026 0.0
C3552 C 0.65133 0.02605 0.7995 0.0
C3553 C 0.65914 0.03455 0.80942 0.0
C3554 C 0.64813 0.01158 0.80268 0.0
C3555 C 0.65245 0.0054 0.81599 0.0
C3556 C 0.65874 0.01451 0.82654 0.0
C3557 C 0.66226 0.02888 0.8232 0.0
C3558 C 0.66707 0.96781 0.82334 0.0
C3559 C 0.6578 0.95921 0.81484 0.0
C3560 C 0.66465 0.98267 0.82468 0.0
C3561 C 0.65275 0.9893 0.81773 0.0
C3562 C 0.64259 0.98038 0.81057 0.0
C3563 C 0.64515 0.96549 0.80904 0.0
H3564 H 0.95547 0.66418 0.83306 0.0
H3565 H 0.96159 0.64267 0.79192 0.0
H3566 H 0.98077 0.65946 0.8393 0.0
H3567 H 0.98696 0.63882 0.79758 0.0
H3568 H 0.03314 0.6372 0.80494 0.0
H3569 H 0.00777 0.63072 0.809 0.0
H3570 H 0.00129 0.67138 0.83159 0.0
H3571 H 0.02658 0.67729 0.82828 0.0
C3572 C 0.96217 0.65818 0.82548 0.0
C3573 C 0.95667 0.65407 0.81188 0.0
C3574 C 0.97672 0.65558 0.82898 0.0
C3575 C 0.98615 0.6492 0.81877 0.0
C3576 C 0.98017 0.64374 0.8058 0.0
C3577 C 0.96555 0.64603 0.80247 0.0
C3578 C 0.02636 0.64448 0.81119 0.0
C3579 C 0.03176 0.65791 0.81598 0.0
C3580 C 0.01176 0.64084 0.81343 0.0
C3581 C 0.00224 0.65069 0.82024 0.0
C3582 C 0.00813 0.66341 0.82633 0.0
C3583 C 0.02273 0.66691 0.82432 0.0
H3584 H 0.16227 0.31298 0.02505 0.0
H3585 H 0.18708 0.35201 0.03274 0.0
H3586 H 0.15992 0.31934 -0.00025 0.0
H3587 H 0.18412 0.35887 0.00734 0.0
H3588 H 0.2013 0.34655 0.96118 0.0
H3589 H 0.19572 0.35009 0.9866 0.0
H3590 H 0.15264 0.33262 0.97963 0.0
H3591 H 0.15867 0.32828 0.95424 0.0
C3592 C 0.1668 0.32321 0.02143 0.0
C3593 C 0.17518 0.3318 0.03081 0.0
C3594 C 0.16534 0.32697 0.00685 0.0
C3595 C 0.17209 0.33952 0.00133 0.0
C3596 C 0.17913 0.34892 0.01111 0.0
C3597 C 0.18075 0.34505 0.0257 0.0
C3598 C 0.19049 0.34385 0.96498 0.0
C3599 C 0.18055 0.33679 0.95584 0.0
C3600 C 0.18722 0.34596 0.97961 0.0
C3601 C 0.17383 0.34128 0.98535 0.0
C3602 C 0.16324 0.3359 0.97572 0.0
C3603 C 0.16664 0.33351 0.96114 0.0
H3604 H 0.20125 0.65006 0.96023 0.0
H3605 H 0.15998 0.67165 0.95482 0.0
H3606 H 0.19552 0.64517 0.98538 0.0
H3607 H 0.15366 0.6659 0.97986 0.0
H3608 H 0.16273 0.67953 0.0273 0.0
H3609 H 0.16074 0.67611 0.00144 0.0
H3610 H 0.18359 0.63521 0.00506 0.0
H3611 H 0.18634 0.6392 0.03108 0.0
C3612 C 0.1907 0.6533 0.96431 0.0
C3613 C 0.1812 0.66152 0.95569 0.0
C3614 C 0.18732 0.65038 0.97878 0.0
C3615 C 0.1742 0.65539 0.98488 0.0
C3616 C 0.16407 0.66229 0.97573 0.0
C3617 C 0.16762 0.66551 0.96134 0.0
C3618 C 0.16705 0.66963 0.02266 0.0
C3619 C 0.17502 0.65983 0.03118 0.0
C3620 C 0.1658 0.66757 0.00773 0.0
C3621 C 0.1723 0.65551 0.00096 0.0
C3622 C 0.17886 0.64487 0.00979 0.0
C3623 C 0.18032 0.64707 0.02474 0.0
H3624 H 0.3528 0.18979 0.03168 0.0
H3625 H 0.31426 0.16394 0.02484 0.0
H3626 H 0.35978 0.18606 0.00641 0.0
H3627 H 0.32066 0.16087 -0.00034 0.0
H3628 H 0.32901 0.1586 0.95425 0.0
H3629 H 0.33375 0.1533 0.97972 0.0
H3630 H 0.35119 0.19657 0.98522 0.0
H3631 H 0.34734 0.20136 0.9597 0.0
C3632 C 0.34596 0.18309 0.02485 0.0
C3633 C 0.33282 0.17743 0.03015 0.0
C3634 C 0.3499 0.18103 0.01033 0.0
C3635 C 0.34064 0.17346 0.00079 0.0
C3636 C 0.3282 0.16668 0.00655 0.0
C3637 C 0.3244 0.16856 0.02107 0.0
C3638 C 0.33434 0.16675 0.96084 0.0
C3639 C 0.33752 0.1805 0.9551 0.0
C3640 C 0.33695 0.16378 0.97548 0.0
C3641 C 0.34237 0.17467 0.98474 0.0
C3642 C 0.34701 0.18785 0.97855 0.0
C3643 C 0.34472 0.19068 0.96384 0.0
H3644 H 0.82554 0.31371 0.96547 0.0
H3645 H 0.80001 0.35226 0.95768 0.0
H3646 H 0.82914 0.32096 0.99034 0.0
H3647 H 0.80427 0.36008 0.98261 0.0
H3648 H 0.78925 0.34902 0.02981 0.0
H3649 H 0.79389 0.35226 0.00418 0.0
H3650 H 0.83711 0.33459 0.00975 0.0
H3651 H 0.83195 0.33045 0.03536 0.0
C3652 C 0.82111 0.32403 0.96896 0.0
C3653 C 0.81216 0.33221 0.95974 0.0
C3654 C 0.8233 0.32832 0.98328 0.0
C3655 C 0.81675 0.34102 0.98871 0.0
C3656 C 0.80913 0.35002 0.97897 0.0
C3657 C 0.80676 0.34559 0.96464 0.0
C3658 C 0.7999 0.34623 0.02565 0.0
C3659 C 0.81009 0.33911 0.03446 0.0
C3660 C 0.80264 0.34817 0.01088 0.0
C3661 C 0.81575 0.34326 0.0047 0.0
C3662 C 0.82668 0.33799 0.014 0.0
C3663 C 0.8238 0.33572 0.02871 0.0
H3664 H 0.67494 0.82417 0.02932 0.0
H3665 H 0.63712 0.79736 0.03643 0.0
H3666 H 0.66792 0.82763 0.00436 0.0
H3667 H 0.62952 0.80145 0.0114 0.0
H3668 H 0.6419 0.78686 0.96438 0.0
H3669 H 0.6382 0.7913 0.99 0.0
H3670 H 0.65429 0.83511 0.98472 0.0
H3671 H 0.65888 0.83019 0.95914 0.0
C3672 C 0.66481 0.81942 0.02567 0.0
C3673 C 0.65681 0.81015 0.03473 0.0
C3674 C 0.66066 0.82152 0.01129 0.0
C3675 C 0.64827 0.81455 0.00565 0.0
C3676 C 0.63936 0.80664 0.01522 0.0
C3677 C 0.64365 0.80436 0.02961 0.0
C3678 C 0.64425 0.79757 0.96861 0.0
C3679 C 0.65105 0.80805 0.9599 0.0
C3680 C 0.64204 0.8002 0.98336 0.0
C3681 C 0.64635 0.81347 0.98962 0.0
C3682 C 0.65135 0.82458 0.98041 0.0
C3683 C 0.65388 0.82183 0.96572 0.0
H3684 H 0.79103 0.64067 0.02603 0.0
H3685 H 0.83344 0.6599 0.03152 0.0
H3686 H 0.79567 0.63755 0.00039 0.0
H3687 H 0.83861 0.65589 0.0059 0.0
H3688 H 0.82699 0.67617 0.96136 0.0
H3689 H 0.83055 0.66921 0.98633 0.0
H3690 H 0.80615 0.62975 0.9789 0.0
H3691 H 0.80191 0.63728 0.95387 0.0
C3692 C 0.80162 0.64365 0.02185 0.0
C3693 C 0.81172 0.65089 0.03066 0.0
C3694 C 0.80436 0.64178 0.00707 0.0
C3695 C 0.81739 0.64687 0.00087 0.0
C3696 C 0.82824 0.65234 0.01016 0.0
C3697 C 0.82535 0.65453 0.02488 0.0
C3698 C 0.82265 0.66584 0.96494 0.0
C3699 C 0.81384 0.65747 0.95575 0.0
C3700 C 0.82482 0.66172 0.97932 0.0
C3701 C 0.81839 0.64901 0.98485 0.0
C3702 C 0.81091 0.63983 0.97517 0.0
C3703 C 0.80856 0.64408 0.96078 0.0
H3704 H 0.31286 0.82343 0.0338 0.0
H3705 H 0.35301 0.80061 0.04217 0.0
H3706 H 0.31983 0.82665 0.00872 0.0
H3707 H 0.3604 0.80444 0.01704 0.0
H3708 H 0.35104 0.78814 0.97006 0.0
H3709 H 0.35236 0.7927 -0.00411 0.0
H3710 H 0.33383 0.83535 0.98935 0.0
H3711 H 0.33186 0.83041 0.96342 0.0
C3712 C 0.32342 0.81952 0.03039 0.0
C3713 C 0.33222 0.81144 0.03986 0.0
C3714 C 0.32751 0.82148 0.01597 0.0
C3715 C 0.34058 0.81555 0.01072 0.0
C3716 C 0.35008 0.80881 0.02062 0.0
C3717 C 0.3459 0.80668 0.03504 0.0
C3718 C 0.34753 0.79861 0.97409 0.0
C3719 C 0.34103 0.80878 0.96479 0.0
C3720 C 0.34841 0.80131 0.98894 0.0
C3721 C 0.34297 0.81432 0.99481 0.0
C3722 C 0.33777 0.82506 0.98526 0.0
C3723 C 0.3367 0.82226 0.9704 0.0
H3724 H 0.66325 0.1555 0.95824 0.0
H3725 H 0.64226 0.19725 0.96164 0.0
H3726 H 0.65849 0.151 0.98386 0.0
H3727 H 0.63837 0.19332 0.98729 0.0
H3728 H 0.63668 0.18876 0.03387 0.0
H3729 H 0.63017 0.18331 0.0088 0.0
H3730 H 0.67072 0.16007 0.00367 0.0
H3731 H 0.67668 0.1648 0.0287 0.0
C3732 C 0.65735 0.16358 0.96442 0.0
C3733 C 0.65342 0.17685 0.95806 0.0
C3734 C 0.65472 0.16108 0.97914 0.0
C3735 C 0.6485 0.17199 0.98787 0.0
C3736 C 0.64317 0.1846 0.98106 0.0
C3737 C 0.64549 0.18693 0.96627 0.0
C3738 C 0.64395 0.1821 0.02746 0.0
C3739 C 0.65734 0.17749 0.03314 0.0
C3740 C 0.64028 0.17905 0.01305 0.0
C3741 C 0.65006 0.17157 0.00398 0.0
C3742 C 0.66279 0.16578 0.01019 0.0
C3743 C 0.66632 0.16862 0.02461 0.0
H3744 H 0.45584 0.68825 0.84997 0.0
H3745 H 0.46282 0.66543 0.80966 0.0
H3746 H 0.48102 0.68368 0.8569 0.0
H3747 H 0.48798 0.66155 0.81608 0.0
H3748 H 0.53318 0.65637 0.82618 0.0
H3749 H 0.50722 0.65206 0.82919 0.0
H3750 H 0.50284 0.69408 0.84967 0.0
H3751 H 0.52878 0.69786 0.84745 0.0
C3752 C 0.4627 0.68207 0.84269 0.0
C3753 C 0.45744 0.67742 0.82916 0.0
C3754 C 0.47717 0.67952 0.84661 0.0
C3755 C 0.48672 0.67248 0.83697 0.0
C3756 C 0.48104 0.66687 0.82393 0.0
C3757 C 0.46656 0.66922 0.82014 0.0
C3758 C 0.5267 0.66442 0.83178 0.0
C3759 C 0.53292 0.67756 0.83633 0.0
C3760 C 0.51179 0.66204 0.8334 0.0
C3761 C 0.50276 0.67291 0.83923 0.0
C3762 C 0.50933 0.6854 0.84514 0.0
C3763 C 0.52427 0.68763 0.84381 0.0
H3764 H 0.32275 0.52407 0.81223 0.0
H3765 H 0.30428 0.52479 0.85528 0.0
H3766 H 0.32664 0.49822 0.81421 0.0
H3767 H 0.30898 0.49886 0.85773 0.0
H3768 H 0.29161 0.45404 0.84232 0.0
H3769 H 0.29689 0.47902 0.84821 0.0
H3770 H 0.33639 0.47674 0.82283 0.0
H3771 H 0.3305 0.45182 0.81619 0.0
C3772 C 0.31998 0.51876 0.82234 0.0
C3773 C 0.31288 0.52636 0.83345 0.0
C3774 C 0.32235 0.50387 0.82357 0.0
C3775 C 0.31788 0.49627 0.83605 0.0
C3776 C 0.31217 0.50423 0.84778 0.0
C3777 C 0.30954 0.51912 0.84643 0.0
C3778 C 0.30162 0.45874 0.83829 0.0
C3779 C 0.31043 0.45112 0.82848 0.0
C3780 C 0.30475 0.47313 0.84177 0.0
C3781 C 0.31691 0.48013 0.8357 0.0
C3782 C 0.32666 0.47188 0.8273 0.0
C3783 C 0.32336 0.45755 0.82358 0.0
H3784 H 0.52853 0.33143 0.83009 0.0
H3785 H 0.52237 0.28965 0.85043 0.0
H3786 H 0.50234 0.33548 0.83052 0.0
H3787 H 0.49632 0.29333 0.85027 0.0
H3788 H 0.44961 0.30001 0.84847 0.0
H3789 H 0.47434 0.30469 0.8568 0.0
H3790 H 0.48402 0.32544 0.81583 0.0
H3791 H 0.4593 0.32135 0.80788 0.0
C3792 C 0.5216 0.32323 0.83488 0.0
C3793 C 0.52746 0.3101 0.83996 0.0
C3794 C 0.50658 0.32551 0.83507 0.0
C3795 C 0.49714 0.31461 0.84014 0.0
C3796 C 0.50318 0.30203 0.84637 0.0
C3797 C 0.51817 0.29985 0.84635 0.0
C3798 C 0.45694 0.30593 0.84144 0.0
C3799 C 0.45262 0.31005 0.82741 0.0
C3800 C 0.47114 0.30854 0.84617 0.0
C3801 C 0.48131 0.31517 0.83689 0.0
C3802 C 0.47654 0.3204 0.82336 0.0
C3803 C 0.46233 0.31794 0.81871 0.0
H3804 H 0.66936 0.46188 0.82006 0.0
H3805 H 0.69748 0.45675 0.85723 0.0
H3806 H 0.66638 0.48726 0.82563 0.0
H3807 H 0.69388 0.48227 0.8634 0.0
H3808 H 0.70694 0.52919 0.84923 0.0
H3809 H 0.70332 0.50352 0.85359 0.0
H3810 H 0.65888 0.50726 0.83868 0.0
H3811 H 0.66295 0.53286 0.8334 0.0
C3812 C 0.67455 0.46609 0.82973 0.0
C3813 C 0.68393 0.45739 0.83801 0.0
C3814 C 0.67272 0.48072 0.83306 0.0
C3815 C 0.68008 0.48701 0.84488 0.0
C3816 C 0.68835 0.47792 0.85399 0.0
C3817 C 0.69034 0.46326 0.85053 0.0
C3818 C 0.69627 0.52461 0.84726 0.0
C3819 C 0.68533 0.5329 0.84064 0.0
C3820 C 0.69413 0.50983 0.84985 0.0
C3821 C 0.6809 0.50312 0.84611 0.0
C3822 C 0.66938 0.51192 0.8412 0.0
C3823 C 0.67165 0.52662 0.83827 0.0
H3824 H 0.46076 0.2874 0.14188 0.0
H3825 H 0.45488 0.33036 0.15959 0.0
H3826 H 0.48638 0.29229 0.1383 0.0
H3827 H 0.48046 0.33567 0.15525 0.0
H3828 H 0.53271 0.30034 0.13511 0.0
H3829 H 0.50713 0.30348 0.12886 0.0
H3830 H 0.50079 0.32823 0.16823 0.0
H3831 H 0.52627 0.3257 0.17398 0.0
C3832 C 0.46485 0.29811 0.14449 0.0
C3833 C 0.45592 0.30838 0.15133 0.0
C3834 C 0.47959 0.30099 0.14235 0.0
C3835 C 0.48566 0.3143 0.1468 0.0
C3836 C 0.47629 0.32514 0.15212 0.0
C3837 C 0.4616 0.32215 0.15452 0.0
C3838 C 0.52591 0.30684 0.14216 0.0
C3839 C 0.53142 0.31251 0.15519 0.0
C3840 C 0.51121 0.30855 0.13865 0.0
C3841 C 0.50173 0.3158 0.1482 0.0
C3842 C 0.50765 0.32264 0.16051 0.0
C3843 C 0.52233 0.32109 0.16391 0.0
H3844 H 0.65781 0.45867 0.16358 0.0
H3845 H 0.69999 0.46209 0.14339 0.0
H3846 H 0.65365 0.48444 0.15934 0.0
H3847 H 0.69636 0.48787 0.13998 0.0
H3848 H 0.6917 0.53462 0.13853 0.0
H3849 H 0.68647 0.50954 0.13183 0.0
H3850 H 0.66276 0.50402 0.17201 0.0
H3851 H 0.6673 0.52906 0.17816 0.0
C3852 C 0.66606 0.46489 0.15796 0.0
C3853 C 0.67934 0.45846 0.15409 0.0
C3854 C 0.66375 0.4797 0.15563 0.0
C3855 C 0.67485 0.48844 0.14976 0.0
C3856 C 0.6875 0.48162 0.14451 0.0
C3857 C 0.68965 0.46676 0.14654 0.0
C3858 C 0.68499 0.52812 0.14568 0.0
C3859 C 0.68017 0.53371 0.15901 0.0
C3860 C 0.68207 0.5137 0.1419 0.0
C3861 C 0.67449 0.50454 0.15151 0.0
C3862 C 0.66855 0.51063 0.1642 0.0
C3863 C 0.67127 0.52506 0.16785 0.0
H3864 H 0.53983 0.68985 0.13541 0.0
H3865 H 0.53214 0.66347 0.17337 0.0
H3866 H 0.51481 0.68586 0.1276 0.0
H3867 H 0.50718 0.66012 0.16613 0.0
H3868 H 0.46203 0.65783 0.15691 0.0
H3869 H 0.4876 0.65262 0.15244 0.0
H3870 H 0.49329 0.69616 0.13579 0.0
H3871 H 0.46766 0.70087 0.13935 0.0
C3872 C 0.53288 0.68296 0.14193 0.0
C3873 C 0.53784 0.67726 0.15518 0.0
C3874 C 0.5185 0.68075 0.13752 0.0
C3875 C 0.50876 0.67298 0.14638 0.0
C3876 C 0.51424 0.6661 0.15889 0.0
C3877 C 0.52862 0.66814 0.16317 0.0
C3878 C 0.46869 0.66605 0.15178 0.0
C3879 C 0.46298 0.67985 0.14877 0.0
C3880 C 0.48338 0.66314 0.14933 0.0
C3881 C 0.49272 0.67413 0.14426 0.0
C3882 C 0.48656 0.68737 0.13972 0.0
C3883 C 0.4718 0.69015 0.14183 0.0
H3884 H 0.28949 0.46807 0.13675 0.0
H3885 H 0.33081 0.46003 0.1575 0.0
H3886 H 0.2951 0.49369 0.13535 0.0
H3887 H 0.33684 0.48572 0.15544 0.0
H3888 H 0.32616 0.53092 0.17535 0.0
H3889 H 0.32862 0.50565 0.16877 0.0
H3890 H 0.30778 0.5143 0.12758 0.0
H3891 H 0.30466 0.53963 0.1346 0.0
C3892 C 0.3 0.47173 0.1406 0.0
C3893 C 0.30956 0.46211 0.14754 0.0
C3894 C 0.3033 0.48647 0.13967 0.0
C3895 C 0.31635 0.49189 0.1455 0.0
C3896 C 0.32653 0.48199 0.15118 0.0
C3897 C 0.32311 0.46726 0.1523 0.0
C3898 C 0.3224 0.52753 0.16474 0.0
C3899 C 0.31488 0.53718 0.15565 0.0
C3900 C 0.32393 0.51298 0.16087 0.0
C3901 C 0.31812 0.50779 0.14774 0.0
C3902 C 0.31201 0.51783 0.13796 0.0
C3903 C 0.3103 0.53237 0.14193 0.0
H3904 H 0.84602 0.52668 0.69988 0.0
H3905 H 0.82565 0.53196 0.65802 0.0
H3906 H 0.84958 0.50111 0.69504 0.0
H3907 H 0.83005 0.50644 0.65266 0.0
H3908 H 0.81216 0.46078 0.66383 0.0
H3909 H 0.81775 0.48617 0.66075 0.0
H3910 H 0.8582 0.48018 0.68396 0.0
H3911 H 0.85207 0.45469 0.68773 0.0
C3912 C 0.84283 0.52247 0.68938 0.0
C3913 C 0.83523 0.53121 0.67948 0.0
C3914 C 0.84496 0.50775 0.68652 0.0
C3915 C 0.83977 0.50151 0.67357 0.0
C3916 C 0.83374 0.51072 0.66296 0.0
C3917 C 0.83131 0.52539 0.66596 0.0
C3918 C 0.82241 0.46477 0.668 0.0
C3919 C 0.83149 0.45581 0.67634 0.0
C3920 C 0.82573 0.47941 0.66612 0.0
C3921 C 0.83833 0.48543 0.67236 0.0
C3922 C 0.84819 0.47605 0.67936 0.0
C3923 C 0.84474 0.4614 0.68144 0.0
H3924 H 0.53472 0.82635 0.66121 0.0
H3925 H 0.52801 0.8457 0.70332 0.0
H3926 H 0.50941 0.83111 0.65499 0.0
H3927 H 0.50265 0.84959 0.69762 0.0
H3928 H 0.45641 0.85253 0.6886 0.0
H3929 H 0.48213 0.85851 0.68611 0.0
H3930 H 0.48877 0.81879 0.66194 0.0
H3931 H 0.46318 0.81339 0.66373 0.0
C3932 C 0.52789 0.83187 0.66903 0.0
C3933 C 0.53323 0.83538 0.68285 0.0
C3934 C 0.51334 0.83449 0.66553 0.0
C3935 C 0.50377 0.8403 0.67595 0.0
C3936 C 0.50957 0.84513 0.68924 0.0
C3937 C 0.52418 0.84281 0.69259 0.0
C3938 C 0.46335 0.84533 0.6824 0.0
C3939 C 0.45784 0.83235 0.67661 0.0
C3940 C 0.47812 0.84869 0.68106 0.0
C3941 C 0.48771 0.839 0.67412 0.0
C3942 C 0.48185 0.82666 0.66727 0.0
C3943 C 0.4671 0.82344 0.66841 0.0
H3944 H 0.13582 0.53825 0.69091 0.0
H3945 H 0.17583 0.53172 0.66731 0.0
H3946 H 0.12831 0.51354 0.68501 0.0
H3947 H 0.16881 0.50706 0.66204 0.0
H3948 H 0.15876 0.46246 0.65536 0.0
H3949 H 0.15524 0.48845 0.6519 0.0
H3950 H 0.13565 0.49124 0.69447 0.0
H3951 H 0.13837 0.46529 0.69744 0.0
C3952 C 0.14289 0.53163 0.68425 0.0
C3953 C 0.15654 0.53682 0.67983 0.0
C3954 C 0.13863 0.51743 0.68093 0.0
C3955 C 0.14805 0.50811 0.67329 0.0
C3956 C 0.16114 0.51382 0.66783 0.0
C3957 C 0.16528 0.52802 0.67099 0.0
C3958 C 0.15322 0.46859 0.66372 0.0
C3959 C 0.14915 0.46194 0.67681 0.0
C3960 C 0.1513 0.48351 0.66181 0.0
C3961 C 0.14564 0.49211 0.67311 0.0
C3962 C 0.14006 0.4851 0.68549 0.0
C3963 C 0.14169 0.47014 0.68726 0.0
H3964 H 0.47063 0.13168 0.68918 0.0
H3965 H 0.46979 0.17286 0.66685 0.0
H3966 H 0.49691 0.13046 0.68595 0.0
H3967 H 0.49592 0.1722 0.66442 0.0
H3968 H 0.5429 0.1717 0.6619 0.0
H3969 H 0.51815 0.16409 0.6563 0.0
H3970 H 0.51587 0.14195 0.69766 0.0
H3971 H 0.54076 0.14875 0.70268 0.0
C3972 C 0.47605 0.14036 0.6834 0.0
C3973 C 0.46822 0.15248 0.6785 0.0
C3974 C 0.49113 0.13974 0.68164 0.0
C3975 C 0.49869 0.15139 0.67523 0.0
C3976 C 0.49061 0.16293 0.6693 0.0
C3977 C 0.47554 0.16339 0.6708 0.0
C3978 C 0.53718 0.16487 0.66957 0.0
C3979 C 0.54363 0.16102 0.68282 0.0
C3980 C 0.52296 0.16058 0.66643 0.0
C3981 C 0.51478 0.15269 0.67666 0.0
C3982 C 0.52173 0.1479 0.6894 0.0
C3983 C 0.53604 0.15191 0.69237 0.0
H3984 H 0.82953 0.45328 0.3312 0.0
H3985 H 0.84851 0.4611 0.28911 0.0
H3986 H 0.83526 0.47808 0.33841 0.0
H3987 H 0.85332 0.48602 0.29578 0.0
H3988 H 0.8559 0.53165 0.30495 0.0
H3989 H 0.86245 0.50614 0.30765 0.0
H3990 H 0.82312 0.49901 0.33241 0.0
H3991 H 0.81719 0.52439 0.3304 0.0
C3992 C 0.8352 0.46024 0.3236 0.0
C3993 C 0.83828 0.4554 0.3095 0.0
C3994 C 0.83839 0.4745 0.32766 0.0
C3995 C 0.84429 0.48431 0.31754 0.0
C3996 C 0.84879 0.47891 0.30396 0.0
C3997 C 0.84593 0.46456 0.30005 0.0
C3998 C 0.84896 0.52468 0.31139 0.0
C3999 C 0.83584 0.52993 0.31714 0.0
C4000 C 0.85264 0.51001 0.31285 0.0
C4001 C 0.84312 0.5003 0.31985 0.0
C4002 C 0.83083 0.506 0.32694 0.0
C4003 C 0.8273 0.52065 0.32569 0.0
H4004 H 0.52743 0.81614 0.32172 0.0
H4005 H 0.53321 0.85539 0.29677 0.0
H4006 H 0.50189 0.82136 0.32428 0.0
H4007 H 0.50754 0.8612 0.30004 0.0
H4008 H 0.46133 0.8481 0.28403 0.0
H4009 H 0.48677 0.85224 0.28912 0.0
H4010 H 0.48131 0.83339 0.33178 0.0
H4011 H 0.45592 0.82835 0.32615 0.0
C4012 C 0.52332 0.82618 0.31719 0.0
C4013 C 0.53226 0.83516 0.30874 0.0
C4014 C 0.50858 0.82929 0.31878 0.0
C4015 C 0.50244 0.84161 0.31214 0.0
C4016 C 0.51176 0.85139 0.30495 0.0
C4017 C 0.52651 0.84813 0.30316 0.0
C4018 C 0.46546 0.84519 0.29465 0.0
C4019 C 0.45675 0.83756 0.30455 0.0
C4020 C 0.48013 0.84765 0.29764 0.0
C4021 C 0.48632 0.84279 0.31074 0.0
C4022 C 0.47708 0.8368 0.32136 0.0
C4023 C 0.46249 0.83402 0.31821 0.0
H4024 H 0.1421 0.4545 0.29781 0.0
H4025 H 0.1832 0.46209 0.31913 0.0
H4026 H 0.13544 0.47986 0.30162 0.0
H4027 H 0.17694 0.48736 0.32236 0.0
H4028 H 0.16633 0.53259 0.32714 0.0
H4029 H 0.16365 0.50671 0.33192 0.0
H4030 H 0.14296 0.50133 0.29012 0.0
H4031 H 0.14496 0.5272 0.28579 0.0
C4032 C 0.1496 0.46152 0.30353 0.0
C4033 C 0.16328 0.45637 0.30794 0.0
C4034 C 0.14583 0.47608 0.30564 0.0
C4035 C 0.15572 0.4858 0.31207 0.0
C4036 C 0.16892 0.48028 0.31749 0.0
C4037 C 0.17261 0.46574 0.31552 0.0
C4038 C 0.16079 0.52591 0.31921 0.0
C4039 C 0.15611 0.53184 0.30598 0.0
C4040 C 0.15935 0.51105 0.32188 0.0
C4041 C 0.15348 0.50179 0.31124 0.0
C4042 C 0.14751 0.50803 0.29863 0.0
C4043 C 0.14872 0.52292 0.29608 0.0
H4044 H 0.53566 0.16193 0.32822 0.0
H4045 H 0.52793 0.14202 0.28654 0.0
H4046 H 0.51014 0.15869 0.3345 0.0
H4047 H 0.50239 0.13959 0.29232 0.0
H4048 H 0.45614 0.13953 0.30117 0.0
H4049 H 0.48141 0.13207 0.30416 0.0
H4050 H 0.49028 0.17215 0.32697 0.0
H4051 H 0.46507 0.17908 0.32465 0.0
C4052 C 0.52855 0.15658 0.32053 0.0
C4053 C 0.53369 0.1525 0.30678 0.0
C4054 C 0.51388 0.15483 0.32406 0.0
C4055 C 0.50402 0.14932 0.31377 0.0
C4056 C 0.50955 0.14385 0.30061 0.0
C4057 C 0.52426 0.14532 0.29721 0.0
C4058 C 0.46344 0.1465 0.3072 0.0
C4059 C 0.45871 0.16002 0.31242 0.0
C4060 C 0.47796 0.14229 0.30883 0.0
C4061 C 0.48807 0.15163 0.3155 0.0
C4062 C 0.48292 0.16454 0.32186 0.0
C4063 C 0.4684 0.16863 0.32042 0.0
H4064 H 0.70163 0.85082 0.46751 0.0
H4065 H 0.65896 0.83269 0.46029 0.0
H4066 H 0.69682 0.85207 0.4933 0.0
H4067 H 0.65374 0.83466 0.48616 0.0
H4068 H 0.68862 0.85214 0.53956 0.0
H4069 H 0.68527 0.85998 0.51449 0.0
H4070 H 0.66169 0.82038 0.50548 0.0
H4071 H 0.66441 0.81302 0.53049 0.0
C4072 C 0.69101 0.84754 0.4714 0.0
C4073 C 0.6808 0.84133 0.46195 0.0
C4074 C 0.68817 0.84838 0.48624 0.0
C4075 C 0.67495 0.84321 0.49193 0.0
C4076 C 0.66419 0.83836 0.48222 0.0
C4077 C 0.66714 0.83729 0.46739 0.0
C4078 C 0.68235 0.84535 0.53228 0.0
C4079 C 0.67705 0.83182 0.53689 0.0
C4080 C 0.6805 0.84979 0.51789 0.0
C4081 C 0.67352 0.84067 0.50781 0.0
C4082 C 0.66707 0.82778 0.51285 0.0
C4083 C 0.66874 0.82346 0.52724 0.0
H4084 H 0.66266 0.1758 0.46111 0.0
H4085 H 0.68754 0.13663 0.45446 0.0
H4086 H 0.66034 0.17015 0.48654 0.0
H4087 H 0.68451 0.13039 0.48001 0.0
H4088 H 0.70197 0.14351 0.52566 0.0
H4089 H 0.69607 0.1393 0.50044 0.0
H4090 H 0.65347 0.15804 0.50723 0.0
H4091 H 0.65992 0.16315 0.53237 0.0
C4092 C 0.6672 0.16567 0.465 0.0
C4093 C 0.67563 0.15687 0.45587 0.0
C4094 C 0.66575 0.16231 0.47967 0.0
C4095 C 0.67253 0.14993 0.48554 0.0
C4096 C 0.67954 0.14025 0.476 0.0
C4097 C 0.68119 0.14376 0.46131 0.0
C4098 C 0.69121 0.14639 0.52186 0.0
C4099 C 0.68155 0.15401 0.53084 0.0
C4100 C 0.68773 0.14387 0.50734 0.0
C4101 C 0.6744 0.14869 0.50157 0.0
C4102 C 0.66405 0.15466 0.51112 0.0
C4103 C 0.66768 0.1575 0.52557 0.0
H4104 H 0.82567 0.65948 0.52976 0.0
H4105 H 0.84583 0.70164 0.52642 0.0
H4106 H 0.8287 0.65595 0.50373 0.0
H4107 H 0.84813 0.69857 0.5004 0.0
H4108 H 0.84946 0.69314 0.45328 0.0
H4109 H 0.85608 0.68843 0.4785 0.0
H4110 H 0.81535 0.66581 0.48468 0.0
H4111 H 0.80918 0.66991 0.45953 0.0
C4112 C 0.83102 0.66787 0.52349 0.0
C4113 C 0.83527 0.68094 0.53005 0.0
C4114 C 0.83266 0.66591 0.50855 0.0
C4115 C 0.83826 0.67714 0.49982 0.0
C4116 C 0.8438 0.68963 0.50667 0.0
C4117 C 0.84242 0.69145 0.52165 0.0
C4118 C 0.84213 0.68683 0.45997 0.0
C4119 C 0.82869 0.68211 0.4545 0.0
C4120 C 0.84588 0.6842 0.47446 0.0
C4121 C 0.83616 0.67696 0.48378 0.0
C4122 C 0.82324 0.67129 0.4779 0.0
C4123 C 0.81959 0.67376 0.46343 0.0
H4124 H 0.32257 0.81355 0.45639 0.0
H4125 H 0.29793 0.85244 0.44741 0.0
H4126 H 0.32489 0.8207 0.48151 0.0
H4127 H 0.30082 0.86003 0.47261 0.0
H4128 H 0.28434 0.85019 0.51948 0.0
H4129 H 0.28915 0.85154 0.49367 0.0
H4130 H 0.33265 0.83523 0.50088 0.0
H4131 H 0.32749 0.83322 0.52675 0.0
C4132 C 0.31805 0.82389 0.45969 0.0
C4133 C 0.30976 0.83226 0.45002 0.0
C4134 C 0.31949 0.82809 0.47414 0.0
C4135 C 0.3128 0.84085 0.47922 0.0
C4136 C 0.30578 0.84995 0.46915 0.0
C4137 C 0.30419 0.84565 0.4547 0.0
C4138 C 0.29504 0.84718 0.5156 0.0
C4139 C 0.30542 0.84128 0.52506 0.0
C4140 C 0.29787 0.84808 0.50076 0.0
C4141 C 0.31123 0.84326 0.4951 0.0
C4142 C 0.32211 0.83868 0.50481 0.0
C4143 C 0.31919 0.83758 0.51964 0.0
H4144 H 0.1812 0.32402 0.46255 0.0
H4145 H 0.14223 0.29886 0.45555 0.0
H4146 H 0.17482 0.32707 0.48776 0.0
H4147 H 0.13533 0.30253 0.48086 0.0
H4148 H 0.14659 0.28791 0.52812 0.0
H4149 H 0.1437 0.29208 0.50233 0.0
H4150 H 0.16139 0.33529 0.50733 0.0
H4151 H 0.16511 0.33065 0.5331 0.0
C4152 C 0.17099 0.31952 0.4663 0.0
C4153 C 0.16239 0.31091 0.45714 0.0
C4154 C 0.16722 0.32139 0.48083 0.0
C4155 C 0.15463 0.31485 0.48653 0.0
C4156 C 0.14529 0.30741 0.47697 0.0
C4157 C 0.14919 0.30539 0.46242 0.0
C4158 C 0.14949 0.29845 0.52378 0.0
C4159 C 0.1564 0.30882 0.53253 0.0
C4160 C 0.14775 0.30091 0.50893 0.0
C4161 C 0.15267 0.31391 0.50257 0.0
C4162 C 0.15795 0.32495 0.51173 0.0
C4163 C 0.15998 0.32236 0.52653 0.0
H4164 H 0.28947 0.14141 0.53458 0.0
H4165 H 0.33129 0.16216 0.53915 0.0
H4166 H 0.29442 0.13687 0.50921 0.0
H4167 H 0.3367 0.15689 0.51381 0.0
H4168 H 0.32534 0.17227 0.4671 0.0
H4169 H 0.32827 0.16827 0.49288 0.0
H4170 H 0.30607 0.12705 0.48905 0.0
H4171 H 0.30246 0.13155 0.46323 0.0
C4172 C 0.29997 0.14451 0.53028 0.0
C4173 C 0.30984 0.15246 0.53873 0.0
C4174 C 0.3029 0.14181 0.51568 0.0
C4175 C 0.31587 0.14681 0.50928 0.0
C4176 C 0.32642 0.1533 0.51824 0.0
C4177 C 0.32337 0.15623 0.53279 0.0
C4178 C 0.32138 0.1622 0.47169 0.0
C4179 C 0.31338 0.15239 0.46324 0.0
C4180 C 0.32316 0.15981 0.48653 0.0
C4181 C 0.31717 0.14743 0.49319 0.0
C4182 C 0.31047 0.1369 0.48438 0.0
C4183 C 0.30846 0.13943 0.46957 0.0
H4184 H 0.85116 0.304 0.45213 0.0
H4185 H 0.81094 0.32715 0.45901 0.0
H4186 H 0.85823 0.30882 0.47718 0.0
H4187 H 0.81751 0.3313 0.48402 0.0
H4188 H 0.82635 0.33511 0.52921 0.0
H4189 H 0.83049 0.34024 0.5036 0.0
H4190 H 0.85048 0.29802 0.49863 0.0
H4191 H 0.84715 0.29341 0.52425 0.0
C4192 C 0.84396 0.31036 0.45892 0.0
C4193 C 0.83035 0.31492 0.45372 0.0
C4194 C 0.84796 0.31305 0.47331 0.0
C4195 C 0.83833 0.32015 0.48282 0.0
C4196 C 0.82534 0.32589 0.47713 0.0
C4197 C 0.82145 0.32338 0.46273 0.0
C4198 C 0.83211 0.32718 0.5227 0.0
C4199 C 0.83612 0.31373 0.52861 0.0
C4200 C 0.83438 0.33005 0.50799 0.0
C4201 C 0.84035 0.31936 0.49885 0.0
C4202 C 0.84584 0.30658 0.50521 0.0
C4203 C 0.84386 0.30386 0.51997 0.0
H4204 H 0.16814 0.65876 0.53692 0.0
H4205 H 0.14802 0.70075 0.53177 0.0
H4206 H 0.16236 0.65289 0.51179 0.0
H4207 H 0.14315 0.69545 0.50651 0.0
H4208 H 0.17771 0.66235 0.46499 0.0
H4209 H 0.1735 0.66009 0.49069 0.0
H4210 H 0.13336 0.6842 0.48631 0.0
H4211 H 0.13817 0.68719 0.46045 0.0
C4212 C 0.16227 0.66664 0.53045 0.0
C4213 C 0.15877 0.6803 0.53617 0.0
C4214 C 0.15905 0.66335 0.516 0.0
C4215 C 0.15268 0.67384 0.50688 0.0
C4216 C 0.148 0.68701 0.51308 0.0
C4217 C 0.15089 0.69013 0.52761 0.0
C4218 C 0.16781 0.66691 0.46942 0.0
C4219 C 0.15847 0.67527 0.46075 0.0
C4220 C 0.16528 0.6655 0.48425 0.0
C4221 C 0.1532 0.67222 0.49078 0.0
C4222 C 0.14302 0.67925 0.48178 0.0
C4223 C 0.14569 0.68087 0.46692 0.0
H4224 H 0.15613 0.09587 0.31342 0.0
H4225 H 0.17594 0.12105 0.27913 0.0
H4226 H 0.13504 0.1121 0.31301 0.0
H4227 H 0.15541 0.13731 0.27907 0.0
H4228 H 0.1146 0.1605 0.27351 0.0
H4229 H 0.13073 0.13961 0.27287 0.0
H4230 H 0.12888 0.13672 0.31966 0.0
H4231 H 0.11205 0.15726 0.32017 0.0
C4232 C 0.15596 0.10479 0.30577 0.0
C4233 C 0.16773 0.10716 0.29633 0.0
C4234 C 0.14393 0.11412 0.30558 0.0
C4235 C 0.14347 0.12597 0.29595 0.0
C4236 C 0.15517 0.12812 0.2864 0.0
C4237 C 0.16707 0.11882 0.28653 0.0
C4238 C 0.11746 0.15524 0.28363 0.0
C4239 C 0.11229 0.1606 0.2969 0.0
C4240 C 0.12675 0.14331 0.28329 0.0
C4241 C 0.1314 0.13669 0.29624 0.0
C4242 C 0.12549 0.14151 0.30948 0.0
C4243 C 0.11592 0.15332 0.30979 0.0
H4244 H 0.90337 0.14556 0.30102 0.0
H4245 H 0.88084 0.1606 0.33932 0.0
H4246 H 0.88433 0.12756 0.29695 0.0
H4247 H 0.86186 0.14253 0.33524 0.0
H4248 H 0.83592 0.1169 0.28456 0.0
H4249 H 0.85779 0.13086 0.28983 0.0
H4250 H 0.85734 0.11511 0.33395 0.0
H4251 H 0.83543 0.10103 0.32869 0.0
C4252 C 0.89448 0.14488 0.3087 0.0
C4253 C 0.89353 0.15456 0.32044 0.0
C4254 C 0.88357 0.13461 0.30632 0.0
C4255 C 0.87161 0.13372 0.31573 0.0
C4256 C 0.87102 0.14292 0.32787 0.0
C4257 C 0.88185 0.1533 0.33016 0.0
C4258 C 0.84057 0.11627 0.29534 0.0
C4259 C 0.8339 0.10792 0.30623 0.0
C4260 C 0.85314 0.12419 0.29832 0.0
C4261 C 0.85922 0.12407 0.3123 0.0
C4262 C 0.8528 0.11544 0.3231 0.0
C4263 C 0.84032 0.10734 0.32006 0.0
H4264 H 0.8958 0.83957 0.3147 0.0
H4265 H 0.87123 0.82147 0.27904 0.0
H4266 H 0.87992 0.86092 0.31461 0.0
H4267 H 0.85533 0.84227 0.27927 0.0
H4268 H 0.83468 0.88467 0.32079 0.0
H4269 H 0.85505 0.86755 0.32061 0.0
H4270 H 0.85407 0.8672 0.2737 0.0
H4271 H 0.83336 0.88358 0.27401 0.0
C4272 C 0.88709 0.84016 0.30682 0.0
C4273 C 0.88481 0.82881 0.29687 0.0
C4274 C 0.87796 0.85235 0.30682 0.0
C4275 C 0.86641 0.85339 0.29686 0.0
C4276 C 0.86431 0.84207 0.28687 0.0
C4277 C 0.8734 0.83001 0.28682 0.0
C4278 C 0.83905 0.8811 0.31048 0.0
C4279 C 0.83234 0.88519 0.29742 0.0
C4280 C 0.85074 0.87134 0.31035 0.0
C4281 C 0.85598 0.86573 0.29714 0.0
C4282 C 0.85001 0.87092 0.28409 0.0
C4283 C 0.83821 0.88038 0.28424 0.0
H4284 H 0.09656 0.83598 0.31758 0.0
H4285 H 0.12047 0.82056 0.28025 0.0
H4286 H 0.11072 0.85852 0.31715 0.0
H4287 H 0.13463 0.84258 0.28007 0.0
H4288 H 0.15333 0.88535 0.27483 0.0
H4289 H 0.13348 0.86792 0.27519 0.0
H4290 H 0.1357 0.86633 0.322 0.0
H4291 H 0.15521 0.88435 0.32162 0.0
C4292 C 0.10474 0.83741 0.30926 0.0
C4293 C 0.10739 0.82644 0.29898 0.0
C4294 C 0.11287 0.85028 0.30904 0.0
C4295 C 0.12373 0.85242 0.2985 0.0
C4296 C 0.12615 0.84151 0.28814 0.0
C4297 C 0.11808 0.82875 0.28835 0.0
C4298 C 0.14934 0.88152 0.28521 0.0
C4299 C 0.15594 0.886 0.29818 0.0
C4300 C 0.13803 0.87148 0.28542 0.0
C4301 C 0.13327 0.86543 0.2986 0.0
C4302 C 0.13909 0.87078 0.31167 0.0
C4303 C 0.1503 0.88106 0.31146 0.0
H4304 H 0.15555 0.88264 0.66898 0.0
H4305 H 0.15597 0.88161 0.71577 0.0
H4306 H 0.13543 0.86522 0.66879 0.0
H4307 H 0.13547 0.86495 0.7157 0.0
H4308 H 0.11981 0.81877 0.71006 0.0
H4309 H 0.13518 0.83994 0.71002 0.0
H4310 H 0.11051 0.85805 0.67443 0.0
H4311 H 0.09515 0.83631 0.67417 0.0
C4312 C 0.15101 0.87903 0.6792 0.0
C4313 C 0.15741 0.88319 0.69238 0.0
C4314 C 0.13947 0.86911 0.67912 0.0
C4315 C 0.13407 0.86342 0.69224 0.0
C4316 C 0.13967 0.86874 0.7054 0.0
C4317 C 0.15134 0.87835 0.70546 0.0
C4318 C 0.11751 0.82726 0.70225 0.0
C4319 C 0.10622 0.8258 0.6921 0.0
C4320 C 0.12629 0.83953 0.70233 0.0
C4321 C 0.12398 0.85083 0.69234 0.0
C4322 C 0.11259 0.84951 0.68224 0.0
C4323 C 0.10377 0.8371 0.68213 0.0
H4324 H 0.14734 0.0965 0.67779 0.0
H4325 H 0.1619 0.11913 0.71622 0.0
H4326 H 0.12553 0.11174 0.67719 0.0
H4327 H 0.14068 0.13444 0.71535 0.0
H4328 H 0.10012 0.15765 0.71716 0.0
H4329 H 0.11537 0.1361 0.71836 0.0
H4330 H 0.11977 0.1367 0.67165 0.0
H4331 H 0.10377 0.15784 0.67049 0.0
C4332 C 0.14583 0.1046 0.68617 0.0
C4333 C 0.15642 0.10665 0.697 0.0
C4334 C 0.13338 0.11337 0.68579 0.0
C4335 C 0.1313 0.12431 0.69623 0.0
C4336 C 0.14169 0.12595 0.70729 0.0
C4337 C 0.15402 0.11723 0.7077 0.0
C4338 C 0.10406 0.15292 0.70714 0.0
C4339 C 0.10099 0.15948 0.69376 0.0
C4340 C 0.11286 0.14064 0.70781 0.0
C4341 C 0.11915 0.1349 0.69514 0.0
C4342 C 0.11511 0.14079 0.68163 0.0
C4343 C 0.10598 0.15294 0.68095 0.0
H4344 H 0.8902 0.15616 0.65904 0.0
H4345 H 0.87322 0.15884 0.70269 0.0
H4346 H 0.87653 0.13369 0.6552 0.0
H4347 H 0.85971 0.13645 0.69884 0.0
H4348 H 0.8313 0.10905 0.65103 0.0
H4349 H 0.84919 0.12845 0.6537 0.0
H4350 H 0.86374 0.10959 0.69405 0.0
H4351 H 0.84591 0.09014 0.6914 0.0
C4352 C 0.88371 0.15186 0.66786 0.0
C4353 C 0.88271 0.1593 0.68114 0.0
C4354 C 0.87587 0.13905 0.66563 0.0
C4355 C 0.86709 0.13335 0.67672 0.0
C4356 C 0.86652 0.14052 0.69015 0.0
C4357 C 0.87417 0.1534 0.69231 0.0
C4358 C 0.83848 0.10891 0.66034 0.0
C4359 C 0.83713 0.09815 0.67107 0.0
C4360 C 0.84876 0.11997 0.66183 0.0
C4361 C 0.85776 0.12054 0.67413 0.0
C4362 C 0.85683 0.10945 0.68453 0.0
C4363 C 0.84667 0.0983 0.68298 0.0
H4364 H 0.88668 0.82875 0.71533 0.0
H4365 H 0.88568 0.8302 0.66853 0.0
H4366 H 0.86934 0.84864 0.7164 0.0
H4367 H 0.86773 0.84976 0.66953 0.0
H4368 H 0.83828 0.88908 0.67671 0.0
H4369 H 0.86043 0.87436 0.67609 0.0
H4370 H 0.84397 0.84849 0.71159 0.0
H4371 H 0.8223 0.86325 0.71248 0.0
C4372 C 0.88285 0.83347 0.70526 0.0
C4373 C 0.88732 0.82783 0.69185 0.0
C4374 C 0.87285 0.8448 0.70586 0.0
C4375 C 0.86685 0.85054 0.69306 0.0
C4376 C 0.87215 0.84561 0.6796 0.0
C4377 C 0.88239 0.83439 0.67901 0.0
C4378 C 0.83951 0.88033 0.68446 0.0
C4379 C 0.8285 0.87734 0.69464 0.0
C4380 C 0.85216 0.87188 0.68407 0.0
C4381 C 0.85403 0.86031 0.69385 0.0
C4382 C 0.84308 0.85751 0.70411 0.0
C4383 C 0.83054 0.86593 0.70453 0.0
H4384 H 0.27542 0.15413 0.10417 0.0
H4385 H 0.32227 0.15597 0.10303 0.0
H4386 H 0.27656 0.13411 0.12135 0.0
H4387 H 0.32348 0.13629 0.12082 0.0
H4388 H 0.32017 0.09687 0.15105 0.0
H4389 H 0.31888 0.11125 0.1287 0.0
H4390 H 0.28265 0.13524 0.14645 0.0
H4391 H 0.28368 0.12088 0.1683 0.0
C4392 C 0.28597 0.15008 0.10746 0.0
C4393 C 0.29875 0.15671 0.10249 0.0
C4394 C 0.28664 0.13867 0.11736 0.0
C4395 C 0.3001 0.13388 0.12276 0.0
C4396 C 0.31294 0.13972 0.11687 0.0
C4397 C 0.31226 0.15101 0.10672 0.0
C4398 C 0.31186 0.10513 0.15007 0.0
C4399 C 0.30205 0.10772 0.16148 0.0
C4400 C 0.31115 0.11338 0.1373 0.0
C4401 C 0.30057 0.12429 0.13571 0.0
C4402 C 0.29072 0.1267 0.1471 0.0
C4403 C 0.29141 0.11852 0.15976 0.0
H4404 H 0.86797 0.27488 0.16678 0.0
H4405 H 0.89293 0.31196 0.15247 0.0
H4406 H 0.85312 0.27643 0.14524 0.0
H4407 H 0.87813 0.31327 0.13043 0.0
H4408 H 0.83301 0.32185 0.10709 0.0
H4409 H 0.85333 0.31995 0.12411 0.0
H4410 H 0.85245 0.27325 0.11976 0.0
H4411 H 0.8318 0.27518 0.10339 0.0
C4412 C 0.87047 0.28324 0.1589 0.0
C4413 C 0.88159 0.29336 0.16143 0.0
C4414 C 0.862 0.28405 0.14642 0.0
C4415 C 0.86446 0.29494 0.13602 0.0
C4416 C 0.87589 0.30482 0.13828 0.0
C4417 C 0.88441 0.30401 0.15086 0.0
C4418 C 0.83741 0.31123 0.10956 0.0
C4419 C 0.83071 0.29865 0.10419 0.0
C4420 C 0.84908 0.31013 0.11927 0.0
C4421 C 0.85431 0.29641 0.12356 0.0
C4422 C 0.84841 0.28395 0.11703 0.0
C4423 C 0.83663 0.28505 0.1076 0.0
H4424 H 0.71208 0.868 0.16919 0.0
H4425 H 0.67752 0.89278 0.14925 0.0
H4426 H 0.71241 0.85175 0.1487 0.0
H4427 H 0.6782 0.87655 0.12821 0.0
H4428 H 0.67196 0.8313 0.10506 0.0
H4429 H 0.67198 0.85179 0.1219 0.0
H4430 H 0.71888 0.84979 0.12404 0.0
H4431 H 0.71873 0.82894 0.10787 0.0
C4432 C 0.70467 0.87013 0.16031 0.0
C4433 C 0.69475 0.88171 0.16091 0.0
C4434 C 0.70496 0.86084 0.14843 0.0
C4435 C 0.69544 0.8629 0.13669 0.0
C4436 C 0.68562 0.87461 0.13712 0.0
C4437 C 0.68528 0.88394 0.14913 0.0
C4438 C 0.68226 0.83543 0.10897 0.0
C4439 C 0.69532 0.8284 0.10542 0.0
C4440 C 0.68229 0.84721 0.11856 0.0
C4441 C 0.69542 0.85225 0.12457 0.0
C4442 C 0.70854 0.84591 0.11998 0.0
C4443 C 0.70848 0.83401 0.11066 0.0
H4444 H 0.14705 0.67179 0.0955 0.0
H4445 H 0.1607 0.71034 0.1185 0.0
H4446 H 0.12454 0.6714 0.10973 0.0
H4447 H 0.13876 0.70972 0.13275 0.0
H4448 H 0.0967 0.71274 0.15284 0.0
H4449 H 0.11324 0.71312 0.13224 0.0
H4450 H 0.11743 0.66646 0.13479 0.0
H4451 H 0.1002 0.6661 0.155 0.0
C4452 C 0.14522 0.68022 0.10347 0.0
C4453 C 0.15572 0.69105 0.1059 0.0
C4454 C 0.13236 0.67997 0.11165 0.0
C4455 C 0.12978 0.69058 0.12232 0.0
C4456 C 0.14017 0.70155 0.12442 0.0
C4457 C 0.1529 0.70181 0.11631 0.0
C4458 C 0.10087 0.70254 0.14873 0.0
C4459 C 0.0974 0.68942 0.15559 0.0
C4460 C 0.1104 0.70275 0.13699 0.0
C4461 C 0.11699 0.68986 0.13213 0.0
C4462 C 0.11256 0.67658 0.13824 0.0
C4463 C 0.10273 0.67636 0.14984 0.0
H4464 H 0.331 0.88916 0.83485 0.0
H4465 H 0.28644 0.87437 0.83593 0.0
H4466 H 0.33617 0.87507 0.85676 0.0
H4467 H 0.29162 0.86042 0.85779 0.0
H4468 H 0.34046 0.82926 0.8801 0.0
H4469 H 0.33681 0.84762 0.86132 0.0
H4470 H 0.2991 0.8636 0.88416 0.0
H4471 H 0.30274 0.84529 0.90298 0.0
C4472 C 0.32227 0.88309 0.83987 0.0
C4473 C 0.30833 0.88279 0.83362 0.0
C4474 C 0.32526 0.87499 0.85236 0.0
C4475 C 0.3143 0.86667 0.85893 0.0
C4476 C 0.30024 0.86686 0.85302 0.0
C4477 C 0.2973 0.87477 0.84045 0.0
C4478 C 0.33153 0.83684 0.88123 0.0
C4479 C 0.32181 0.83577 0.89293 0.0
C4480 C 0.3295 0.84739 0.87053 0.0
C4481 C 0.31763 0.85695 0.87128 0.0
C4482 C 0.30827 0.85627 0.88328 0.0
C4483 C 0.31039 0.84583 0.89406 0.0
H4484 H 0.15989 0.28243 0.87404 0.0
H4485 H 0.15721 0.32646 0.89 0.0
H4486 H 0.13859 0.28665 0.85889 0.0
H4487 H 0.13589 0.33065 0.87474 0.0
H4488 H 0.09296 0.29584 0.84229 0.0
H4489 H 0.11162 0.29232 0.86081 0.0
H4490 H 0.13267 0.33192 0.8472 0.0
H4491 H 0.11405 0.33545 0.82863 0.0
C4492 C 0.15466 0.29295 0.87443 0.0
C4493 C 0.16028 0.30413 0.88316 0.0
C4494 C 0.14242 0.29534 0.86582 0.0
C4495 C 0.13564 0.30899 0.86562 0.0
C4496 C 0.14099 0.32006 0.87463 0.0
C4497 C 0.15314 0.31762 0.88341 0.0
C4498 C 0.10148 0.30388 0.84335 0.0
C4499 C 0.1021 0.31588 0.83396 0.0
C4500 C 0.11217 0.30183 0.85391 0.0
C4501 C 0.12358 0.31183 0.85539 0.0
C4502 C 0.12391 0.32411 0.84637 0.0
C4503 C 0.11331 0.32608 0.83569 0.0
H4504 H 0.71633 0.15608 0.88745 0.0
H4505 H 0.6696 0.15472 0.88391 0.0
H4506 H 0.71827 0.13522 0.8714 0.0
H4507 H 0.67147 0.13434 0.86703 0.0
H4508 H 0.67881 0.09476 0.83895 0.0
H4509 H 0.67754 0.10991 0.86072 0.0
H4510 H 0.71565 0.13332 0.84635 0.0
H4511 H 0.71723 0.118 0.82523 0.0
C4512 C 0.70646 0.1512 0.88328 0.0
C4513 C 0.69284 0.15708 0.88671 0.0
C4514 C 0.70755 0.13931 0.874 0.0
C4515 C 0.69505 0.13331 0.86758 0.0
C4516 C 0.68133 0.13862 0.8718 0.0
C4517 C 0.68024 0.15034 0.88141 0.0
C4518 C 0.68704 0.10299 0.84062 0.0
C4519 C 0.69808 0.1052 0.83031 0.0
C4520 C 0.68626 0.11173 0.85305 0.0
C4521 C 0.69649 0.12286 0.85535 0.0
C4522 C 0.70775 0.12469 0.8452 0.0
C4523 C 0.70858 0.11594 0.83293 0.0
H4524 H 0.87032 0.71102 0.81978 0.0
H4525 H 0.89471 0.67541 0.83824 0.0
H4526 H 0.8549 0.7116 0.84089 0.0
H4527 H 0.87932 0.67632 0.85993 0.0
H4528 H 0.83436 0.67097 0.88413 0.0
H4529 H 0.85459 0.67074 0.86695 0.0
H4530 H 0.85382 0.71764 0.86566 0.0
H4531 H 0.83319 0.71775 0.88215 0.0
C4532 C 0.87256 0.70342 0.82846 0.0
C4533 C 0.88375 0.69312 0.82725 0.0
C4534 C 0.86375 0.70386 0.84071 0.0
C4535 C 0.86592 0.6941 0.85222 0.0
C4536 C 0.87731 0.68394 0.85121 0.0
C4537 C 0.88615 0.68345 0.83883 0.0
C4538 C 0.83873 0.6812 0.88035 0.0
C4539 C 0.83207 0.69436 0.8842 0.0
C4540 C 0.85036 0.68109 0.87055 0.0
C4541 C 0.85563 0.69416 0.86466 0.0
C4542 C 0.84974 0.70735 0.86962 0.0
C4543 C 0.83797 0.70744 0.87912 0.0
H4544 H 0.15357 0.32029 0.10481 0.0
H4545 H 0.15465 0.27349 0.10593 0.0
H4546 H 0.1335 0.32025 0.1222 0.0
H4547 H 0.13412 0.27332 0.12255 0.0
H4548 H 0.0938 0.31527 0.15139 0.0
H4549 H 0.10895 0.31477 0.12952 0.0
H4550 H 0.13312 0.27868 0.14735 0.0
H4551 H 0.11789 0.27883 0.16858 0.0
C4552 C 0.14919 0.31 0.10845 0.0
C4553 C 0.15578 0.2969 0.10429 0.0
C4554 C 0.13766 0.30995 0.11836 0.0
C4555 C 0.1324 0.29678 0.12405 0.0
C4556 C 0.13821 0.28368 0.11878 0.0
C4557 C 0.1499 0.28375 0.10918 0.0
C4558 C 0.10224 0.30713 0.15049 0.0
C4559 C 0.10462 0.29711 0.16175 0.0
C4560 C 0.11096 0.30688 0.138 0.0
C4561 C 0.12221 0.29662 0.13659 0.0
C4562 C 0.12436 0.28651 0.14781 0.0
C4563 C 0.11566 0.2867 0.16013 0.0
H4564 H 0.15814 0.67212 0.883 0.0
H4565 H 0.16109 0.71874 0.87986 0.0
H4566 H 0.13708 0.67238 0.86677 0.0
H4567 H 0.13967 0.71918 0.86442 0.0
H4568 H 0.09556 0.6782 0.84028 0.0
H4569 H 0.11234 0.67873 0.86091 0.0
H4570 H 0.13671 0.71294 0.83997 0.0
H4571 H 0.11989 0.71278 0.81992 0.0
C4572 C 0.15399 0.68244 0.87917 0.0
C4573 C 0.16134 0.69539 0.88241 0.0
C4574 C 0.1419 0.68261 0.86992 0.0
C4575 C 0.13686 0.69578 0.864 0.0
C4576 C 0.14353 0.7088 0.86837 0.0
C4577 C 0.15575 0.70859 0.8773 0.0
C4578 C 0.10442 0.68594 0.84022 0.0
C4579 C 0.10636 0.69545 0.82844 0.0
C4580 C 0.11407 0.68619 0.852 0.0
C4581 C 0.12584 0.69594 0.85218 0.0
C4582 C 0.12759 0.70553 0.84045 0.0
C4583 C 0.11796 0.70535 0.82881 0.0
H4584 H 0.31703 0.15179 0.89382 0.0
H4585 H 0.28036 0.16814 0.86944 0.0
H4586 H 0.31754 0.13018 0.87835 0.0
H4587 H 0.28119 0.14711 0.85391 0.0
H4588 H 0.32447 0.10637 0.83341 0.0
H4589 H 0.32364 0.12352 0.85368 0.0
H4590 H 0.27668 0.12203 0.8528 0.0
H4591 H 0.27761 0.10565 0.83213 0.0
C4592 C 0.30905 0.15076 0.88524 0.0
C4593 C 0.29866 0.16171 0.88288 0.0
C4594 C 0.30939 0.13842 0.87635 0.0
C4595 C 0.29935 0.13683 0.86494 0.0
C4596 C 0.28887 0.14773 0.86279 0.0
C4597 C 0.28848 0.15992 0.87166 0.0
C4598 C 0.31402 0.10954 0.83779 0.0
C4599 C 0.3011 0.10496 0.83111 0.0
C4600 C 0.31352 0.11931 0.84942 0.0
C4601 C 0.30008 0.12442 0.85465 0.0
C4602 C 0.28721 0.1187 0.84874 0.0
C4603 C 0.28772 0.10925 0.83697 0.0
H4604 H 0.89193 0.31357 0.83993 0.0
H4605 H 0.8677 0.27665 0.82401 0.0
H4606 H 0.87752 0.3132 0.86228 0.0
H4607 H 0.85325 0.27657 0.84584 0.0
H4608 H 0.8333 0.27172 0.88794 0.0
H4609 H 0.85362 0.27164 0.87105 0.0
H4610 H 0.8527 0.31853 0.86977 0.0
H4611 H 0.83277 0.31854 0.88733 0.0
C4612 C 0.88362 0.30535 0.84122 0.0
C4613 C 0.88095 0.29517 0.83016 0.0
C4614 C 0.87534 0.30517 0.85399 0.0
C4615 C 0.8643 0.29479 0.85592 0.0
C4616 C 0.86188 0.28451 0.84493 0.0
C4617 C 0.8701 0.28466 0.83228 0.0
C4618 C 0.83769 0.282 0.8843 0.0
C4619 C 0.83137 0.29512 0.88872 0.0
C4620 C 0.84927 0.28198 0.87457 0.0
C4621 C 0.85452 0.29507 0.86874 0.0
C4622 C 0.84893 0.30826 0.87405 0.0
C4623 C 0.8375 0.30828 0.88407 0.0
H4624 H 0.71084 0.87338 0.83004 0.0
H4625 H 0.67073 0.89415 0.84292 0.0
H4626 H 0.7099 0.85813 0.85126 0.0
H4627 H 0.67003 0.87897 0.86474 0.0
H4628 H 0.66506 0.83269 0.88677 0.0
H4629 H 0.66562 0.85366 0.8705 0.0
H4630 H 0.71208 0.85701 0.87668 0.0
H4631 H 0.71153 0.83564 0.89219 0.0
C4632 C 0.70191 0.87489 0.83756 0.0
C4633 C 0.69079 0.88493 0.83469 0.0
C4634 C 0.70146 0.8662 0.84988 0.0
C4635 C 0.68992 0.86735 0.85981 0.0
C4636 C 0.67901 0.87774 0.85725 0.0
C4637 C 0.67945 0.88648 0.8448 0.0
C4638 C 0.6753 0.83815 0.88486 0.0
C4639 C 0.68829 0.83245 0.89045 0.0
C4640 C 0.67564 0.8502 0.87559 0.0
C4641 C 0.68896 0.85682 0.872 0.0
C4642 C 0.70171 0.8519 0.87884 0.0
C4643 C 0.7014 0.83972 0.88779 0.0
H4644 H 0.83289 0.66558 0.10383 0.0
H4645 H 0.83143 0.71239 0.10504 0.0
H4646 H 0.85182 0.6657 0.12248 0.0
H4647 H 0.85067 0.71259 0.12314 0.0
H4648 H 0.86372 0.7065 0.17027 0.0
H4649 H 0.84948 0.70639 0.14825 0.0
H4650 H 0.8763 0.67204 0.13088 0.0
H4651 H 0.89053 0.67188 0.15335 0.0
C4652 C 0.83695 0.67589 0.10776 0.0
C4653 C 0.83054 0.68896 0.10322 0.0
C4654 C 0.8478 0.67597 0.11841 0.0
C4655 C 0.85251 0.68915 0.12454 0.0
C4656 C 0.84698 0.70224 0.11897 0.0
C4657 C 0.83602 0.70214 0.10854 0.0
C4658 C 0.8667 0.69895 0.16178 0.0
C4659 C 0.87828 0.68918 0.16362 0.0
C4660 C 0.85858 0.69898 0.14904 0.0
C4661 C 0.86184 0.68932 0.1377 0.0
C4662 C 0.87349 0.67958 0.13944 0.0
C4663 C 0.88165 0.67953 0.15228 0.0
H4664 H 0.27781 0.82395 0.12575 0.0
H4665 H 0.31403 0.83952 0.10024 0.0
H4666 H 0.27766 0.84634 0.13934 0.0
H4667 H 0.31362 0.86238 0.11378 0.0
H4668 H 0.31965 0.88858 0.15775 0.0
H4669 H 0.31941 0.87055 0.13829 0.0
H4670 H 0.27244 0.8716 0.13805 0.0
H4671 H 0.27275 0.88903 0.15789 0.0
C4672 C 0.28564 0.83224 0.12289 0.0
C4673 C 0.29599 0.82988 0.11195 0.0
C4674 C 0.28545 0.8452 0.13061 0.0
C4675 C 0.29555 0.85624 0.12757 0.0
C4676 C 0.30574 0.85405 0.11642 0.0
C4677 C 0.30595 0.84099 0.10865 0.0
C4678 C 0.30932 0.8852 0.15325 0.0
C4679 C 0.29622 0.88993 0.15945 0.0
C4680 C 0.30916 0.87491 0.14208 0.0
C4681 C 0.29589 0.86938 0.13687 0.0
C4682 C 0.28284 0.87531 0.14213 0.0
C4683 C 0.283 0.88535 0.15342 0.0
H4684 H 0.67623 0.15319 0.0949 0.0
H4685 H 0.70962 0.1723 0.12182 0.0
H4686 H 0.67702 0.13115 0.10977 0.0
H4687 H 0.71011 0.15073 0.13668 0.0
H4688 H 0.67093 0.105 0.15375 0.0
H4689 H 0.67057 0.12311 0.13431 0.0
H4690 H 0.71742 0.12594 0.1363 0.0
H4691 H 0.71766 0.10843 0.15604 0.0
C4692 C 0.68374 0.15269 0.10393 0.0
C4693 C 0.69287 0.16451 0.10714 0.0
C4694 C 0.68416 0.1401 0.11246 0.0
C4695 C 0.69374 0.13911 0.12431 0.0
C4696 C 0.70286 0.15093 0.12742 0.0
C4697 C 0.70248 0.16341 0.11894 0.0
C4698 C 0.68114 0.1093 0.14977 0.0
C4699 C 0.6943 0.10556 0.15653 0.0
C4700 C 0.68095 0.11964 0.13863 0.0
C4701 C 0.69395 0.12622 0.13399 0.0
C4702 C 0.70718 0.12141 0.13992 0.0
C4703 C 0.70734 0.11133 0.15117 0.0
H4704 H 0.61847 0.66331 0.78079 0.0
H4705 H 0.59722 0.64911 0.82014 0.0
H4706 H 0.63402 0.64227 0.78144 0.0
H4707 H 0.61271 0.62748 0.82054 0.0
H4708 H 0.65884 0.60518 0.82549 0.0
H4709 H 0.63795 0.6216 0.82511 0.0
H4710 H 0.63533 0.61696 0.7785 0.0
H4711 H 0.65662 0.6013 0.7789 0.0
C4712 C 0.61693 0.65555 0.78948 0.0
C4713 C 0.60664 0.65798 0.80047 0.0
C4714 C 0.6258 0.64333 0.78977 0.0
C4715 C 0.62458 0.63307 0.80099 0.0
C4716 C 0.61399 0.63523 0.8118 0.0
C4717 C 0.60508 0.64757 0.81153 0.0
C4718 C 0.65356 0.60747 0.81524 0.0
C4719 C 0.65945 0.60225 0.8022 0.0
C4720 C 0.64156 0.61682 0.815 0.0
C4721 C 0.63516 0.62088 0.80172 0.0
C4722 C 0.64028 0.61445 0.78886 0.0
C4723 C 0.65241 0.60541 0.78908 0.0
H4724 H 0.3302 0.60925 0.83594 0.0
H4725 H 0.34218 0.58984 0.79497 0.0
H4726 H 0.34847 0.62815 0.83226 0.0
H4727 H 0.36034 0.6088 0.79129 0.0
H4728 H 0.39049 0.65405 0.82468 0.0
H4729 H 0.37618 0.63211 0.82924 0.0
H4730 H 0.35664 0.63603 0.78683 0.0
H4731 H 0.37076 0.65794 0.78229 0.0
C4732 C 0.33687 0.60891 0.82626 0.0
C4733 C 0.33469 0.59814 0.81569 0.0
C4734 C 0.34736 0.61967 0.8242 0.0
C4735 C 0.35573 0.61994 0.81146 0.0
C4736 C 0.35394 0.60887 0.80116 0.0
C4737 C 0.34358 0.59801 0.80329 0.0
C4738 C 0.38327 0.65012 0.81627 0.0
C4739 C 0.38167 0.65775 0.80316 0.0
C4740 C 0.37506 0.63762 0.81891 0.0
C4741 C 0.36535 0.63241 0.80838 0.0
C4742 C 0.36416 0.63974 0.79508 0.0
C4743 C 0.37217 0.65233 0.79253 0.0
H4744 H 0.38224 0.33127 0.81193 0.0
H4745 H 0.37813 0.32595 0.76558 0.0
H4746 H 0.36516 0.35155 0.81111 0.0
H4747 H 0.36168 0.34661 0.76459 0.0
H4748 H 0.31599 0.36395 0.77215 0.0
H4749 H 0.33712 0.34845 0.77168 0.0
H4750 H 0.35811 0.37565 0.80365 0.0
H4751 H 0.33649 0.39109 0.80448 0.0
C4752 C 0.37802 0.33474 0.80152 0.0
C4753 C 0.38124 0.32691 0.78886 0.0
C4754 C 0.36828 0.34639 0.80103 0.0
C4755 C 0.3618 0.35051 0.78782 0.0
C4756 C 0.36612 0.34344 0.775 0.0
C4757 C 0.3756 0.33166 0.77554 0.0
C4758 C 0.32512 0.36676 0.77902 0.0
C4759 C 0.32449 0.37874 0.78842 0.0
C4760 C 0.33736 0.35791 0.77864 0.0
C4761 C 0.3494 0.36084 0.78755 0.0
C4762 C 0.34896 0.37303 0.79673 0.0
C4763 C 0.33661 0.3819 0.79716 0.0
H4764 H 0.5899 0.34684 0.80294 0.0
H4765 H 0.61296 0.33074 0.8405 0.0
H4766 H 0.60854 0.36538 0.79949 0.0
H4767 H 0.63156 0.34933 0.83704 0.0
H4768 H 0.65685 0.37689 0.78723 0.0
H4769 H 0.63501 0.36277 0.79207 0.0
H4770 H 0.63572 0.37679 0.83676 0.0
H4771 H 0.65762 0.39105 0.83193 0.0
C4772 C 0.59882 0.3474 0.81059 0.0
C4773 C 0.60004 0.33727 0.82193 0.0
C4774 C 0.6095 0.35797 0.80857 0.0
C4775 C 0.6215 0.35873 0.81796 0.0
C4776 C 0.62235 0.34906 0.82971 0.0
C4777 C 0.61176 0.33838 0.83164 0.0
C4778 C 0.65225 0.37714 0.79804 0.0
C4779 C 0.65901 0.385 0.80922 0.0
C4780 C 0.63969 0.36912 0.80078 0.0
C4781 C 0.63372 0.36867 0.8148 0.0
C4782 C 0.64018 0.3769 0.82588 0.0
C4783 C 0.65265 0.3851 0.82309 0.0
H4784 H 0.65562 0.38565 0.1674 0.0
H4785 H 0.65505 0.38621 0.21422 0.0
H4786 H 0.63538 0.36842 0.16738 0.0
H4787 H 0.63448 0.36964 0.21426 0.0
H4788 H 0.61899 0.32306 0.20932 0.0
H4789 H 0.63418 0.34439 0.20928 0.0
H4790 H 0.61026 0.36162 0.17277 0.0
H4791 H 0.59507 0.33977 0.17254 0.0
C4792 C 0.65085 0.38244 0.17765 0.0
C4793 C 0.65703 0.38701 0.19082 0.0
C4794 C 0.63923 0.37261 0.17766 0.0
C4795 C 0.63353 0.36738 0.19084 0.0
C4796 C 0.6389 0.37309 0.20393 0.0
C4797 C 0.65063 0.38265 0.20392 0.0
C4798 C 0.61681 0.3314 0.20131 0.0
C4799 C 0.60582 0.32964 0.19089 0.0
C4800 C 0.62548 0.34376 0.20139 0.0
C4801 C 0.62338 0.35483 0.19111 0.0
C4802 C 0.6122 0.35326 0.1808 0.0
C4803 C 0.60347 0.34079 0.18071 0.0
H4804 H 0.60936 0.65632 0.17062 0.0
H4805 H 0.61131 0.65898 0.21734 0.0
H4806 H 0.62677 0.63625 0.17107 0.0
H4807 H 0.62807 0.63858 0.2179 0.0
H4808 H 0.67419 0.62226 0.21173 0.0
H4809 H 0.65302 0.63771 0.21166 0.0
H4810 H 0.63375 0.61163 0.17777 0.0
H4811 H 0.65542 0.59619 0.17753 0.0
C4812 C 0.61319 0.65232 0.18099 0.0
C4813 C 0.60925 0.65934 0.19393 0.0
C4814 C 0.62311 0.64079 0.18127 0.0
C4815 C 0.62906 0.63603 0.19451 0.0
C4816 C 0.62405 0.64228 0.20749 0.0
C4817 C 0.61439 0.65391 0.20719 0.0
C4818 C 0.66544 0.61968 0.20431 0.0
C4819 C 0.66656 0.60798 0.1946 0.0
C4820 C 0.65318 0.6285 0.20436 0.0
C4821 C 0.64158 0.62585 0.19481 0.0
C4822 C 0.64253 0.61401 0.18522 0.0
C4823 C 0.65491 0.60514 0.18512 0.0
H4824 H 0.39118 0.6575 0.16577 0.0
H4825 H 0.39371 0.65618 0.21252 0.0
H4826 H 0.37317 0.638 0.1662 0.0
H4827 H 0.37625 0.63635 0.21297 0.0
H4828 H 0.343 0.59917 0.17176 0.0
H4829 H 0.36563 0.61316 0.17159 0.0
H4830 H 0.3507 0.63735 0.20888 0.0
H4831 H 0.32854 0.62332 0.20929 0.0
C4832 C 0.38824 0.6527 0.17609 0.0
C4833 C 0.39359 0.6585 0.18913 0.0
C4834 C 0.37796 0.64151 0.17635 0.0
C4835 C 0.37303 0.63585 0.18965 0.0
C4836 C 0.3795 0.64076 0.20257 0.0
C4837 C 0.38955 0.65206 0.20232 0.0
C4838 C 0.34467 0.60737 0.18001 0.0
C4839 C 0.33393 0.61016 0.19051 0.0
C4840 C 0.3576 0.6154 0.17987 0.0
C4841 C 0.36003 0.62631 0.19027 0.0
C4842 C 0.34938 0.62883 0.2009 0.0
C4843 C 0.33655 0.62085 0.20104 0.0
H4844 H 0.37455 0.33482 0.20202 0.0
H4845 H 0.38817 0.33345 0.15716 0.0
H4846 H 0.35992 0.35626 0.19694 0.0
H4847 H 0.37338 0.35495 0.15209 0.0
H4848 H 0.34361 0.40105 0.18558 0.0
H4849 H 0.36231 0.38258 0.18904 0.0
H4850 H 0.34573 0.35889 0.15218 0.0
H4851 H 0.32695 0.37732 0.14872 0.0
C4852 C 0.37455 0.3392 0.19111 0.0
C4853 C 0.38245 0.33241 0.17997 0.0
C4854 C 0.36624 0.35153 0.18823 0.0
C4855 C 0.36551 0.35722 0.17412 0.0
C4856 C 0.37372 0.3507 0.16304 0.0
C4857 C 0.38222 0.33847 0.16597 0.0
C4858 C 0.34407 0.392 0.1781 0.0
C4859 C 0.33374 0.39056 0.16695 0.0
C4860 C 0.35475 0.38143 0.18011 0.0
C4861 C 0.35541 0.3693 0.17092 0.0
C4862 C 0.34553 0.3682 0.15935 0.0
C4863 C 0.33473 0.3787 0.15743 0.0
H4864 H 0.77959 0.65153 0.59995 0.0
H4865 H 0.82591 0.65538 0.60598 0.0
H4866 H 0.77918 0.63038 0.61578 0.0
H4867 H 0.82548 0.63463 0.62257 0.0
H4868 H 0.82028 0.5946 0.6511 0.0
H4869 H 0.82121 0.60925 0.6289 0.0
H4870 H 0.78111 0.63027 0.64136 0.0
H4871 H 0.77998 0.61559 0.66298 0.0
C4872 C 0.78973 0.64764 0.6045 0.0
C4873 C 0.80275 0.65512 0.60194 0.0
C4874 C 0.78951 0.63561 0.61365 0.0
C4875 C 0.80223 0.63106 0.62079 0.0
C4876 C 0.81549 0.63782 0.61724 0.0
C4877 C 0.81575 0.64972 0.60778 0.0
C4878 C 0.81156 0.6022 0.64892 0.0
C4879 C 0.8001 0.60398 0.65886 0.0
C4880 C 0.81214 0.61063 0.63625 0.0
C4881 C 0.80121 0.6209 0.63328 0.0
C4882 C 0.78957 0.62228 0.64306 0.0
C4883 C 0.789 0.61393 0.65562 0.0
H4884 H 0.34296 0.80274 0.58397 0.0
H4885 H 0.32743 0.83903 0.60929 0.0
H4886 H 0.36225 0.79861 0.60169 0.0
H4887 H 0.34681 0.83491 0.62694 0.0
H4888 H 0.37532 0.78427 0.64907 0.0
H4889 H 0.36044 0.78999 0.62795 0.0
H4890 H 0.37464 0.8346 0.62991 0.0
H4891 H 0.38968 0.82888 0.65105 0.0
C4892 C 0.3438 0.80997 0.59319 0.0
C4893 C 0.33361 0.82114 0.59532 0.0
C4894 C 0.35482 0.80757 0.60333 0.0
C4895 C 0.35596 0.81641 0.61568 0.0
C4896 C 0.34623 0.82802 0.61744 0.0
C4897 C 0.3351 0.83032 0.60739 0.0
C4898 C 0.37545 0.79525 0.64487 0.0
C4899 C 0.3836 0.80614 0.65177 0.0
C4900 C 0.367 0.7985 0.63273 0.0
C4901 C 0.36637 0.81274 0.62736 0.0
C4902 C 0.37489 0.82355 0.63392 0.0
C4903 C 0.38354 0.82025 0.64595 0.0
H4904 H 0.17128 0.3393 0.5952 0.0
H4905 H 0.20947 0.32618 0.61921 0.0
H4906 H 0.17006 0.36164 0.60961 0.0
H4907 H 0.20799 0.34791 0.63365 0.0
H4908 H 0.21005 0.39033 0.65337 0.0
H4909 H 0.21115 0.37334 0.63321 0.0
H4910 H 0.16438 0.36894 0.6344 0.0
H4911 H 0.16331 0.38667 0.65416 0.0
C4912 C 0.17945 0.34121 0.60345 0.0
C4913 C 0.19045 0.33093 0.60606 0.0
C4914 C 0.17871 0.35395 0.61174 0.0
C4915 C 0.18899 0.35664 0.62272 0.0
C4916 C 0.20008 0.34644 0.62508 0.0
C4917 C 0.20084 0.33382 0.61684 0.0
C4918 C 0.19999 0.38598 0.64908 0.0
C4919 C 0.18662 0.3896 0.6554 0.0
C4920 C 0.2006 0.37618 0.63759 0.0
C4921 C 0.18789 0.36946 0.63245 0.0
C4922 C 0.17438 0.37392 0.63807 0.0
C4923 C 0.17375 0.38403 0.64942 0.0
H4924 H 0.66345 0.21605 0.60264 0.0
H4925 H 0.66169 0.16935 0.60546 0.0
H4926 H 0.64343 0.21795 0.61976 0.0
H4927 H 0.64206 0.17118 0.6233 0.0
H4928 H 0.62939 0.21598 0.66705 0.0
H4929 H 0.64361 0.21437 0.64512 0.0
H4930 H 0.61766 0.17801 0.63073 0.0
H4931 H 0.60351 0.17935 0.65319 0.0
C4932 C 0.65862 0.20618 0.60683 0.0
C4933 C 0.6642 0.19257 0.60294 0.0
C4934 C 0.64722 0.20725 0.6167 0.0
C4935 C 0.6414 0.19474 0.62322 0.0
C4936 C 0.64627 0.18104 0.61848 0.0
C4937 C 0.65753 0.17997 0.60831 0.0
C4938 C 0.62656 0.2077 0.6592 0.0
C4939 C 0.61534 0.19774 0.66195 0.0
C4940 C 0.63467 0.20686 0.64649 0.0
C4941 C 0.63174 0.19612 0.63606 0.0
C4942 C 0.62026 0.18635 0.63859 0.0
C4943 C 0.61212 0.18717 0.65141 0.0
H4944 H 0.81992 0.33364 0.38058 0.0
H4945 H 0.77333 0.33031 0.37637 0.0
H4946 H 0.82001 0.35388 0.36338 0.0
H4947 H 0.77324 0.35092 0.35991 0.0
H4948 H 0.78061 0.36895 0.31492 0.0
H4949 H 0.78026 0.35277 0.33548 0.0
H4950 H 0.81354 0.37837 0.35647 0.0
H4951 H 0.81428 0.39451 0.33536 0.0
C4952 C 0.80968 0.33752 0.37627 0.0
C4953 C 0.79666 0.3303 0.37953 0.0
C4954 C 0.8097 0.34915 0.36648 0.0
C4955 C 0.79666 0.35383 0.36 0.0
C4956 C 0.78353 0.3473 0.36431 0.0
C4957 C 0.78356 0.33555 0.3738 0.0
C4958 C 0.78781 0.37127 0.32392 0.0
C4959 C 0.79748 0.38305 0.32346 0.0
C4960 C 0.78751 0.36202 0.33584 0.0
C4961 C 0.79675 0.36433 0.34776 0.0
C4962 C 0.80634 0.37623 0.34743 0.0
C4963 C 0.80672 0.3855 0.33538 0.0
H4964 H 0.64609 0.80042 0.39965 0.0
H4965 H 0.66034 0.83926 0.37755 0.0
H4966 H 0.62762 0.79658 0.38101 0.0
H4967 H 0.64179 0.83542 0.35897 0.0
H4968 H 0.6154 0.78534 0.33271 0.0
H4969 H 0.63006 0.79009 0.35424 0.0
H4970 H 0.61418 0.83416 0.35539 0.0
H4971 H 0.5994 0.82943 0.33385 0.0
C4972 C 0.64514 0.80825 0.39093 0.0
C4973 C 0.65472 0.82009 0.39 0.0
C4974 C 0.63461 0.80601 0.38025 0.0
C4975 C 0.63333 0.81568 0.36855 0.0
C4976 C 0.64247 0.82787 0.36795 0.0
C4977 C 0.65313 0.83002 0.37853 0.0
C4978 C 0.61488 0.79599 0.33765 0.0
C4979 C 0.6063 0.80703 0.33154 0.0
C4980 C 0.62321 0.79868 0.35002 0.0
C4981 C 0.62327 0.81251 0.35643 0.0
C4982 C 0.61438 0.82344 0.35059 0.0
C4983 C 0.60588 0.82069 0.33832 0.0
H4984 H 0.21196 0.64901 0.38826 0.0
H4985 H 0.16541 0.65332 0.38467 0.0
H4986 H 0.2115 0.62885 0.3712 0.0
H4987 H 0.16496 0.63355 0.36693 0.0
H4988 H 0.16923 0.59507 0.33576 0.0
H4989 H 0.16915 0.60834 0.35885 0.0
H4990 H 0.20804 0.63108 0.34564 0.0
H4991 H 0.20831 0.61783 0.32311 0.0
C4992 C 0.20159 0.64541 0.384 0.0
C4993 C 0.18876 0.65278 0.38756 0.0
C4994 C 0.20132 0.63394 0.37417 0.0
C4995 C 0.18825 0.62988 0.36738 0.0
C4996 C 0.1752 0.6364 0.37196 0.0
C4997 C 0.17545 0.64774 0.38208 0.0
C4998 C 0.17784 0.60278 0.33794 0.0
C4999 C 0.18873 0.60543 0.32756 0.0
C5000 C 0.17776 0.61039 0.35112 0.0
C5001 C 0.18866 0.62067 0.35416 0.0
C5002 C 0.19966 0.62302 0.34386 0.0
C5003 C 0.19971 0.6155 0.3308 0.0
H5004 H 0.35142 0.18453 0.4041 0.0
H5005 H 0.32271 0.16381 0.3733 0.0
H5006 H 0.36892 0.18922 0.38454 0.0
H5007 H 0.34001 0.16875 0.3539 0.0
H5008 H 0.36352 0.20068 0.32312 0.0
H5009 H 0.34849 0.19519 0.34415 0.0
H5010 H 0.38442 0.17279 0.36421 0.0
H5011 H 0.3996 0.17804 0.34294 0.0
C5012 C 0.34892 0.18086 0.39322 0.0
C5013 C 0.33568 0.17387 0.3902 0.0
C5014 C 0.35893 0.18351 0.38209 0.0
C5015 C 0.35568 0.17943 0.36778 0.0
C5016 C 0.34266 0.17208 0.36486 0.0
C5017 C 0.33281 0.16922 0.37597 0.0
C5018 C 0.36832 0.19471 0.33204 0.0
C5019 C 0.38274 0.18973 0.33133 0.0
C5020 C 0.35968 0.19152 0.34403 0.0
C5021 C 0.36532 0.18351 0.35567 0.0
C5022 C 0.37988 0.179 0.35532 0.0
C5023 C 0.38851 0.18197 0.34316 0.0
H5024 H 0.65484 0.77165 0.6097 0.0
H5025 H 0.65487 0.81847 0.60833 0.0
H5026 H 0.6344 0.77209 0.62644 0.0
H5027 H 0.63483 0.819 0.62572 0.0
H5028 H 0.59519 0.81482 0.65529 0.0
H5029 H 0.60997 0.81378 0.63317 0.0
H5030 H 0.63441 0.7781 0.65139 0.0
H5031 H 0.61964 0.77882 0.67294 0.0
C5032 C 0.65034 0.78204 0.61288 0.0
C5033 C 0.65655 0.79502 0.60794 0.0
C5034 C 0.63869 0.78231 0.62252 0.0
C5035 C 0.63323 0.79559 0.62773 0.0
C5036 C 0.63874 0.80859 0.62192 0.0
C5037 C 0.65026 0.8083 0.61201 0.0
C5038 C 0.60363 0.80667 0.65444 0.0
C5039 C 0.60623 0.79693 0.66591 0.0
C5040 C 0.61211 0.80611 0.64181 0.0
C5041 C 0.62329 0.79577 0.64044 0.0
C5042 C 0.62568 0.78597 0.65186 0.0
C5043 C 0.61726 0.7865 0.66436 0.0
H5044 H 0.59568 0.17136 0.33387 0.0
H5045 H 0.62011 0.20768 0.31692 0.0
H5046 H 0.6102 0.17218 0.35615 0.0
H5047 H 0.63464 0.20823 0.33871 0.0
H5048 H 0.65367 0.21458 0.38128 0.0
H5049 H 0.63383 0.214 0.36384 0.0
H5050 H 0.63508 0.16711 0.36399 0.0
H5051 H 0.65458 0.16775 0.38203 0.0
C5052 C 0.60408 0.17953 0.3349 0.0
C5053 C 0.60673 0.18945 0.3236 0.0
C5054 C 0.61241 0.17997 0.34764 0.0
C5055 C 0.62349 0.19035 0.34929 0.0
C5056 C 0.62598 0.20031 0.33801 0.0
C5057 C 0.61769 0.1999 0.32539 0.0
C5058 C 0.64947 0.20415 0.37782 0.0
C5059 C 0.65577 0.19121 0.3828 0.0
C5060 C 0.63817 0.2038 0.36777 0.0
C5061 C 0.63314 0.19051 0.36222 0.0
C5062 C 0.63869 0.17753 0.36805 0.0
C5063 C 0.64988 0.17788 0.37835 0.0
H5064 H 0.77308 0.60334 0.33503 0.0
H5065 H 0.81994 0.60285 0.33725 0.0
H5066 H 0.7723 0.62157 0.35411 0.0
H5067 H 0.81924 0.62162 0.35597 0.0
H5068 H 0.81264 0.65336 0.39345 0.0
H5069 H 0.81254 0.63039 0.38007 0.0
H5070 H 0.77807 0.64671 0.3527 0.0
H5071 H 0.7779 0.66921 0.36611 0.0
C5072 C 0.78322 0.60701 0.33976 0.0
C5073 C 0.79658 0.60187 0.33453 0.0
C5074 C 0.78278 0.61751 0.35063 0.0
C5075 C 0.79572 0.62333 0.3563 0.0
C5076 C 0.80907 0.61736 0.35186 0.0
C5077 C 0.80949 0.60664 0.3411 0.0
C5078 C 0.80494 0.65193 0.38467 0.0
C5079 C 0.79531 0.66315 0.38083 0.0
C5080 C 0.80493 0.6388 0.37699 0.0
C5081 C 0.79523 0.63665 0.36538 0.0
C5082 C 0.78547 0.64781 0.36177 0.0
C5083 C 0.78547 0.66084 0.3694 0.0
H5084 H 0.37215 0.77903 0.31603 0.0
H5085 H 0.39436 0.817 0.33239 0.0
H5086 H 0.35682 0.77869 0.33719 0.0
H5087 H 0.37908 0.81635 0.35416 0.0
H5088 H 0.33325 0.8207 0.37721 0.0
H5089 H 0.35396 0.821 0.36058 0.0
H5090 H 0.3558 0.77414 0.36228 0.0
H5091 H 0.33467 0.7739 0.37815 0.0
C5092 C 0.37394 0.78721 0.32428 0.0
C5093 C 0.38445 0.79811 0.32243 0.0
C5094 C 0.3652 0.78691 0.33657 0.0
C5095 C 0.36676 0.79742 0.3475 0.0
C5096 C 0.37754 0.80815 0.3459 0.0
C5097 C 0.38633 0.80848 0.33347 0.0
C5098 C 0.33831 0.81052 0.37422 0.0
C5099 C 0.33224 0.79727 0.37868 0.0
C5100 C 0.35021 0.81067 0.36475 0.0
C5101 C 0.35634 0.79757 0.35982 0.0
C5102 C 0.35106 0.78441 0.36548 0.0
C5103 C 0.33901 0.78425 0.37464 0.0
H5104 H 0.17935 0.39328 0.33744 0.0
H5105 H 0.21733 0.37032 0.32209 0.0
H5106 H 0.1798 0.37883 0.35975 0.0
H5107 H 0.21748 0.35577 0.34381 0.0
H5108 H 0.22136 0.33424 0.38516 0.0
H5109 H 0.22168 0.35506 0.36891 0.0
H5110 H 0.17474 0.35411 0.36683 0.0
H5111 H 0.17449 0.33373 0.38382 0.0
C5112 C 0.18786 0.38528 0.33887 0.0
C5113 C 0.19825 0.3829 0.32793 0.0
C5114 C 0.18807 0.37695 0.35161 0.0
C5115 C 0.19869 0.36614 0.35364 0.0
C5116 C 0.20931 0.36417 0.34285 0.0
C5117 C 0.20912 0.37246 0.33024 0.0
C5118 C 0.21111 0.33874 0.3815 0.0
C5119 C 0.19791 0.3323 0.38553 0.0
C5120 C 0.21127 0.3506 0.37212 0.0
C5121 C 0.19825 0.35602 0.36622 0.0
C5122 C 0.18497 0.35026 0.37117 0.0
C5123 C 0.18481 0.33855 0.38086 0.0
H5124 H 0.40256 0.18993 0.64673 0.0
H5125 H 0.38263 0.14979 0.6606 0.0
H5126 H 0.38272 0.19381 0.62955 0.0
H5127 H 0.36284 0.15368 0.64336 0.0
H5128 H 0.33357 0.20412 0.62076 0.0
H5129 H 0.35597 0.19929 0.63404 0.0
H5130 H 0.35739 0.156 0.6162 0.0
H5131 H 0.33495 0.1608 0.6028 0.0
C5132 C 0.39407 0.18183 0.64595 0.0
C5133 C 0.39408 0.16961 0.65507 0.0
C5134 C 0.38271 0.18409 0.63617 0.0
C5135 C 0.37124 0.17408 0.63521 0.0
C5136 C 0.37161 0.1615 0.64382 0.0
C5137 C 0.38289 0.15932 0.65372 0.0
C5138 C 0.33871 0.19361 0.61956 0.0
C5139 C 0.33245 0.18282 0.61079 0.0
C5140 C 0.35159 0.19089 0.62708 0.0
C5141 C 0.35838 0.17728 0.62613 0.0
C5142 C 0.35231 0.16657 0.61715 0.0
C5143 C 0.33952 0.16935 0.60946 0.0
H5144 H 0.81497 0.39363 0.64869 0.0
H5145 H 0.7779 0.36919 0.66401 0.0
H5146 H 0.81498 0.37931 0.62628 0.0
H5147 H 0.7782 0.35483 0.64216 0.0
H5148 H 0.77423 0.33471 0.60004 0.0
H5149 H 0.77368 0.35498 0.61695 0.0
H5150 H 0.82063 0.35465 0.61883 0.0
H5151 H 0.82111 0.33479 0.60123 0.0
C5152 C 0.80678 0.38531 0.64725 0.0
C5153 C 0.79647 0.38253 0.65817 0.0
C5154 C 0.80683 0.37708 0.63446 0.0
C5155 C 0.79654 0.36597 0.63236 0.0
C5156 C 0.78609 0.36349 0.64319 0.0
C5157 C 0.78602 0.37167 0.65586 0.0
C5158 C 0.78442 0.33922 0.60383 0.0
C5159 C 0.7977 0.33309 0.59955 0.0
C5160 C 0.78413 0.35077 0.61357 0.0
C5161 C 0.7971 0.35618 0.61956 0.0
C5162 C 0.81044 0.35077 0.61441 0.0
C5163 C 0.81073 0.33936 0.60438 0.0
H5164 H 0.21231 0.62303 0.67293 0.0
H5165 H 0.17741 0.59786 0.65415 0.0
H5166 H 0.2132 0.638 0.65147 0.0
H5167 H 0.17863 0.61275 0.63218 0.0
H5168 H 0.21958 0.65937 0.6101 0.0
H5169 H 0.21963 0.63886 0.62674 0.0
H5170 H 0.17271 0.63719 0.62474 0.0
H5171 H 0.1728 0.6573 0.60744 0.0
C5172 C 0.20495 0.62052 0.66411 0.0
C5173 C 0.19473 0.60927 0.66533 0.0
C5174 C 0.20556 0.62906 0.65167 0.0
C5175 C 0.19607 0.62654 0.64 0.0
C5176 C 0.18604 0.61505 0.64102 0.0
C5177 C 0.18538 0.60649 0.65358 0.0
C5178 C 0.20931 0.65438 0.61297 0.0
C5179 C 0.19617 0.66002 0.60769 0.0
C5180 C 0.20931 0.6427 0.62257 0.0
C5181 C 0.19615 0.63662 0.6274 0.0
C5182 C 0.18305 0.64157 0.62124 0.0
C5183 C 0.18308 0.65312 0.61137 0.0
loop_
_geom_bond_atom_site_label_1
_geom_bond_atom_site_label_2
_geom_bond_distance
_geom_bond_site_symmetry_2
_ccdc_geom_bond_type
C0 O1 1.306 . S
C0 O3 1.160 . S
O1 C0 1.306 . S
O1 Cd2 2.228 . S
Cd2 O1 2.228 . S
Cd2 O6 2.273 . S
Cd2 O10 2.277 . S
O3 C0 1.160 . S
O3 Cd4 2.203 . S
Cd4 O3 2.203 . S
Cd4 O6 2.411 . S
Cd4 O7 2.333 . S
Cd4 O8 2.352 . S
Cd4 O12 2.277 . S
Cd4 O13 2.356 . S
C5 O10 1.209 . S
C5 O12 1.226 . S
O6 Cd2 2.273 . S
O6 Cd4 2.411 . S
O6 C9 1.320 . S
O7 Cd4 2.333 . S
O7 C9 1.214 . S
O8 Cd4 2.352 . S
O8 C11 1.258 . S
C9 O6 1.320 . S
C9 O7 1.214 . S
O10 Cd2 2.277 . S
O10 C5 1.209 . S
C11 O8 1.258 . S
C11 O13 1.282 . S
O12 Cd4 2.277 . S
O12 C5 1.226 . S
O13 Cd4 2.356 . S
O13 C11 1.282 . S
C14 O15 1.306 . S
C14 O17 1.160 . S
O15 C14 1.306 . S
O15 Cd16 2.228 . S
Cd16 O15 2.228 . S
Cd16 O20 2.273 . S
Cd16 O24 2.277 . S
O17 C14 1.160 . S
O17 Cd18 2.203 . S
Cd18 O17 2.203 . S
Cd18 O20 2.411 . S
Cd18 O21 2.333 . S
Cd18 O22 2.352 . S
Cd18 O26 2.277 . S
Cd18 O27 2.356 . S
C19 O24 1.209 . S
C19 O26 1.226 . S
O20 Cd16 2.273 . S
O20 Cd18 2.411 . S
O20 C23 1.320 . S
O21 Cd18 2.333 . S
O21 C23 1.214 . S
O22 Cd18 2.352 . S
O22 C25 1.258 . S
C23 O20 1.320 . S
C23 O21 1.214 . S
O24 Cd16 2.277 . S
O24 C19 1.209 . S
C25 O22 1.258 . S
C25 O27 1.282 . S
O26 Cd18 2.277 . S
O26 C19 1.226 . S
O27 Cd18 2.356 . S
O27 C25 1.282 . S
C28 O29 1.306 . S
C28 O31 1.160 . S
O29 C28 1.306 . S
O29 Cd30 2.228 . S
Cd30 O29 2.228 . S
Cd30 O34 2.273 . S
Cd30 O38 2.277 . S
O31 C28 1.160 . S
O31 Cd32 2.203 . S
Cd32 O31 2.203 . S
Cd32 O34 2.411 . S
Cd32 O35 2.333 . S
Cd32 O36 2.352 . S
Cd32 O40 2.277 . S
Cd32 O41 2.356 . S
C33 O38 1.209 . S
C33 O40 1.226 . S
O34 Cd30 2.273 . S
O34 Cd32 2.411 . S
O34 C37 1.320 . S
O35 Cd32 2.333 . S
O35 C37 1.214 . S
O36 Cd32 2.352 . S
O36 C39 1.258 . S
C37 O34 1.320 . S
C37 O35 1.214 . S
O38 Cd30 2.277 . S
O38 C33 1.209 . S
C39 O36 1.258 . S
C39 O41 1.282 . S
O40 Cd32 2.277 . S
O40 C33 1.226 . S
O41 Cd32 2.356 . S
O41 C39 1.282 . S
C42 O43 1.306 . S
C42 O45 1.160 . S
O43 C42 1.306 . S
O43 Cd44 2.228 . S
Cd44 O43 2.228 . S
Cd44 O48 2.273 . S
Cd44 O52 2.277 . S
O45 C42 1.160 . S
O45 Cd46 2.203 . S
Cd46 O45 2.203 . S
Cd46 O48 2.411 . S
Cd46 O49 2.333 . S
Cd46 O50 2.352 . S
Cd46 O54 2.277 . S
Cd46 O55 2.356 . S
C47 O52 1.209 . S
C47 O54 1.226 . S
O48 Cd44 2.273 . S
O48 Cd46 2.411 . S
O48 C51 1.320 . S
O49 Cd46 2.333 . S
O49 C51 1.214 . S
O50 Cd46 2.352 . S
O50 C53 1.258 . S
C51 O48 1.320 . S
C51 O49 1.214 . S
O52 Cd44 2.277 . S
O52 C47 1.209 . S
C53 O50 1.258 . S
C53 O55 1.282 . S
O54 Cd46 2.277 . S
O54 C47 1.226 . S
O55 Cd46 2.356 . S
O55 C53 1.282 . S
C56 O57 1.306 . S
C56 O59 1.160 . S
O57 C56 1.306 . S
O57 Cd58 2.228 . S
Cd58 O57 2.228 . S
Cd58 O62 2.273 . S
Cd58 O66 2.277 . S
O59 C56 1.160 . S
O59 Cd60 2.203 . S
Cd60 O59 2.203 . S
Cd60 O62 2.411 . S
Cd60 O63 2.333 . S
Cd60 O64 2.352 . S
Cd60 O68 2.277 . S
Cd60 O69 2.356 . S
C61 O66 1.209 . S
C61 O68 1.226 . S
O62 Cd58 2.273 . S
O62 Cd60 2.411 . S
O62 C65 1.320 . S
O63 Cd60 2.333 . S
O63 C65 1.214 . S
O64 Cd60 2.352 . S
O64 C67 1.258 . S
C65 O62 1.320 . S
C65 O63 1.214 . S
O66 Cd58 2.277 . S
O66 C61 1.209 . S
C67 O64 1.258 . S
C67 O69 1.282 . S
O68 Cd60 2.277 . S
O68 C61 1.226 . S
O69 Cd60 2.356 . S
O69 C67 1.282 . S
C70 O71 1.306 . S
C70 O73 1.160 . S
O71 C70 1.306 . S
O71 Cd72 2.228 . S
Cd72 O71 2.228 . S
Cd72 O76 2.273 . S
Cd72 O80 2.277 . S
O73 C70 1.160 . S
O73 Cd74 2.203 . S
Cd74 O73 2.203 . S
Cd74 O76 2.411 . S
Cd74 O77 2.333 . S
Cd74 O78 2.352 . S
Cd74 O82 2.277 . S
Cd74 O83 2.356 . S
C75 O80 1.209 . S
C75 O82 1.226 . S
O76 Cd72 2.273 . S
O76 Cd74 2.411 . S
O76 C79 1.320 . S
O77 Cd74 2.333 . S
O77 C79 1.214 . S
O78 Cd74 2.352 . S
O78 C81 1.258 . S
C79 O76 1.320 . S
C79 O77 1.214 . S
O80 Cd72 2.277 . S
O80 C75 1.209 . S
C81 O78 1.258 . S
C81 O83 1.282 . S
O82 Cd74 2.277 . S
O82 C75 1.226 . S
O83 Cd74 2.356 . S
O83 C81 1.282 . S
C84 O85 1.306 . S
C84 O87 1.160 . S
O85 C84 1.306 . S
O85 Cd86 2.228 . S
Cd86 O85 2.228 . S
Cd86 O90 2.273 . S
Cd86 O94 2.277 . S
O87 C84 1.160 . S
O87 Cd88 2.203 . S
Cd88 O87 2.203 . S
Cd88 O90 2.411 . S
Cd88 O91 2.333 . S
Cd88 O92 2.352 . S
Cd88 O96 2.277 . S
Cd88 O97 2.356 . S
C89 O94 1.209 . S
C89 O96 1.226 . S
O90 Cd86 2.273 . S
O90 Cd88 2.411 . S
O90 C93 1.320 . S
O91 Cd88 2.333 . S
O91 C93 1.214 . S
O92 Cd88 2.352 . S
O92 C95 1.258 . S
C93 O90 1.320 . S
C93 O91 1.214 . S
O94 Cd86 2.277 . S
O94 C89 1.209 . S
C95 O92 1.258 . S
C95 O97 1.282 . S
O96 Cd88 2.277 . S
O96 C89 1.226 . S
O97 Cd88 2.356 . S
O97 C95 1.282 . S
C98 O99 1.306 . S
C98 O101 1.160 . S
O99 C98 1.306 . S
O99 Cd100 2.228 . S
Cd100 O99 2.228 . S
Cd100 O104 2.273 . S
Cd100 O108 2.277 . S
O101 C98 1.160 . S
O101 Cd102 2.203 . S
Cd102 O101 2.203 . S
Cd102 O104 2.411 . S
Cd102 O105 2.333 . S
Cd102 O106 2.352 . S
Cd102 O110 2.277 . S
Cd102 O111 2.356 . S
C103 O108 1.209 . S
C103 O110 1.226 . S
O104 Cd100 2.273 . S
O104 Cd102 2.411 . S
O104 C107 1.320 . S
O105 Cd102 2.333 . S
O105 C107 1.214 . S
O106 Cd102 2.352 . S
O106 C109 1.258 . S
C107 O104 1.320 . S
C107 O105 1.214 . S
O108 Cd100 2.277 . S
O108 C103 1.209 . S
C109 O106 1.258 . S
C109 O111 1.282 . S
O110 Cd102 2.277 . S
O110 C103 1.226 . S
O111 Cd102 2.356 . S
O111 C109 1.282 . S
C112 O113 1.306 . S
C112 O115 1.160 . S
O113 C112 1.306 . S
O113 Cd114 2.228 . S
Cd114 O113 2.228 . S
Cd114 O118 2.273 . S
Cd114 O122 2.277 . S
O115 C112 1.160 . S
O115 Cd116 2.203 . S
Cd116 O115 2.203 . S
Cd116 O118 2.411 . S
Cd116 O119 2.333 . S
Cd116 O120 2.352 . S
Cd116 O124 2.277 . S
Cd116 O125 2.356 . S
C117 O122 1.209 . S
C117 O124 1.226 . S
O118 Cd114 2.273 . S
O118 Cd116 2.411 . S
O118 C121 1.320 . S
O119 Cd116 2.333 . S
O119 C121 1.214 . S
O120 Cd116 2.352 . S
O120 C123 1.258 . S
C121 O118 1.320 . S
C121 O119 1.214 . S
O122 Cd114 2.277 . S
O122 C117 1.209 . S
C123 O120 1.258 . S
C123 O125 1.282 . S
O124 Cd116 2.277 . S
O124 C117 1.226 . S
O125 Cd116 2.356 . S
O125 C123 1.282 . S
C126 O127 1.306 . S
C126 O129 1.160 . S
O127 C126 1.306 . S
O127 Cd128 2.228 . S
Cd128 O127 2.228 . S
Cd128 O132 2.273 . S
Cd128 O136 2.277 . S
O129 C126 1.160 . S
O129 Cd130 2.203 . S
Cd130 O129 2.203 . S
Cd130 O132 2.411 . S
Cd130 O133 2.333 . S
Cd130 O134 2.352 . S
Cd130 O138 2.277 . S
Cd130 O139 2.356 . S
C131 O136 1.209 . S
C131 O138 1.226 . S
O132 Cd128 2.273 . S
O132 Cd130 2.411 . S
O132 C135 1.320 . S
O133 Cd130 2.333 . S
O133 C135 1.214 . S
O134 Cd130 2.352 . S
O134 C137 1.258 . S
C135 O132 1.320 . S
C135 O133 1.214 . S
O136 Cd128 2.277 . S
O136 C131 1.209 . S
C137 O134 1.258 . S
C137 O139 1.282 . S
O138 Cd130 2.277 . S
O138 C131 1.226 . S
O139 Cd130 2.356 . S
O139 C137 1.282 . S
C140 O141 1.306 . S
C140 O143 1.160 . S
O141 C140 1.306 . S
O141 Cd142 2.228 . S
Cd142 O141 2.228 . S
Cd142 O146 2.273 . S
Cd142 O150 2.277 . S
O143 C140 1.160 . S
O143 Cd144 2.203 . S
Cd144 O143 2.203 . S
Cd144 O146 2.411 . S
Cd144 O147 2.333 . S
Cd144 O148 2.352 . S
Cd144 O152 2.277 . S
Cd144 O153 2.356 . S
C145 O150 1.209 . S
C145 O152 1.226 . S
O146 Cd142 2.273 . S
O146 Cd144 2.411 . S
O146 C149 1.320 . S
O147 Cd144 2.333 . S
O147 C149 1.214 . S
O148 Cd144 2.352 . S
O148 C151 1.258 . S
C149 O146 1.320 . S
C149 O147 1.214 . S
O150 Cd142 2.277 . S
O150 C145 1.209 . S
C151 O148 1.258 . S
C151 O153 1.282 . S
O152 Cd144 2.277 . S
O152 C145 1.226 . S
O153 Cd144 2.356 . S
O153 C151 1.282 . S
C154 O155 1.306 . S
C154 O157 1.160 . S
O155 C154 1.306 . S
O155 Cd156 2.228 . S
Cd156 O155 2.228 . S
Cd156 O160 2.273 . S
Cd156 O164 2.277 . S
O157 C154 1.160 . S
O157 Cd158 2.203 . S
Cd158 O157 2.203 . S
Cd158 O160 2.411 . S
Cd158 O161 2.333 . S
Cd158 O162 2.352 . S
Cd158 O166 2.277 . S
Cd158 O167 2.356 . S
C159 O164 1.209 . S
C159 O166 1.226 . S
O160 Cd156 2.273 . S
O160 Cd158 2.411 . S
O160 C163 1.320 . S
O161 Cd158 2.333 . S
O161 C163 1.214 . S
O162 Cd158 2.352 . S
O162 C165 1.258 . S
C163 O160 1.320 . S
C163 O161 1.214 . S
O164 Cd156 2.277 . S
O164 C159 1.209 . S
C165 O162 1.258 . S
C165 O167 1.282 . S
O166 Cd158 2.277 . S
O166 C159 1.226 . S
O167 Cd158 2.356 . S
O167 C165 1.282 . S
C168 O169 1.306 . S
C168 O171 1.160 . S
O169 C168 1.306 . S
O169 Cd170 2.228 . S
Cd170 O169 2.228 . S
Cd170 O174 2.273 . S
Cd170 O178 2.277 . S
O171 C168 1.160 . S
O171 Cd172 2.203 . S
Cd172 O171 2.203 . S
Cd172 O174 2.411 . S
Cd172 O175 2.333 . S
Cd172 O176 2.352 . S
Cd172 O180 2.277 . S
Cd172 O181 2.356 . S
C173 O178 1.209 . S
C173 O180 1.226 . S
O174 Cd170 2.273 . S
O174 Cd172 2.411 . S
O174 C177 1.320 . S
O175 Cd172 2.333 . S
O175 C177 1.214 . S
O176 Cd172 2.352 . S
O176 C179 1.258 . S
C177 O174 1.320 . S
C177 O175 1.214 . S
O178 Cd170 2.277 . S
O178 C173 1.209 . S
C179 O176 1.258 . S
C179 O181 1.282 . S
O180 Cd172 2.277 . S
O180 C173 1.226 . S
O181 Cd172 2.356 . S
O181 C179 1.282 . S
C182 O183 1.306 . S
C182 O185 1.160 . S
O183 C182 1.306 . S
O183 Cd184 2.228 . S
Cd184 O183 2.228 . S
Cd184 O188 2.273 . S
Cd184 O192 2.277 . S
O185 C182 1.160 . S
O185 Cd186 2.203 . S
Cd186 O185 2.203 . S
Cd186 O188 2.411 . S
Cd186 O189 2.333 . S
Cd186 O190 2.352 . S
Cd186 O194 2.277 . S
Cd186 O195 2.356 . S
C187 O192 1.209 . S
C187 O194 1.226 . S
O188 Cd184 2.273 . S
O188 Cd186 2.411 . S
O188 C191 1.320 . S
O189 Cd186 2.333 . S
O189 C191 1.214 . S
O190 Cd186 2.352 . S
O190 C193 1.258 . S
C191 O188 1.320 . S
C191 O189 1.214 . S
O192 Cd184 2.277 . S
O192 C187 1.209 . S
C193 O190 1.258 . S
C193 O195 1.282 . S
O194 Cd186 2.277 . S
O194 C187 1.226 . S
O195 Cd186 2.356 . S
O195 C193 1.282 . S
C196 O197 1.306 . S
C196 O199 1.160 . S
O197 C196 1.306 . S
O197 Cd198 2.228 . S
Cd198 O197 2.228 . S
Cd198 O202 2.273 . S
Cd198 O206 2.277 . S
O199 C196 1.160 . S
O199 Cd200 2.203 . S
Cd200 O199 2.203 . S
Cd200 O202 2.411 . S
Cd200 O203 2.333 . S
Cd200 O204 2.352 . S
Cd200 O208 2.277 . S
Cd200 O209 2.356 . S
C201 O206 1.209 . S
C201 O208 1.226 . S
O202 Cd198 2.273 . S
O202 Cd200 2.411 . S
O202 C205 1.320 . S
O203 Cd200 2.333 . S
O203 C205 1.214 . S
O204 Cd200 2.352 . S
O204 C207 1.258 . S
C205 O202 1.320 . S
C205 O203 1.214 . S
O206 Cd198 2.277 . S
O206 C201 1.209 . S
C207 O204 1.258 . S
C207 O209 1.282 . S
O208 Cd200 2.277 . S
O208 C201 1.226 . S
O209 Cd200 2.356 . S
O209 C207 1.282 . S
C210 O211 1.306 . S
C210 O213 1.160 . S
O211 C210 1.306 . S
O211 Cd212 2.228 . S
Cd212 O211 2.228 . S
Cd212 O216 2.273 . S
Cd212 O220 2.277 . S
O213 C210 1.160 . S
O213 Cd214 2.203 . S
Cd214 O213 2.203 . S
Cd214 O216 2.411 . S
Cd214 O217 2.333 . S
Cd214 O218 2.352 . S
Cd214 O222 2.277 . S
Cd214 O223 2.356 . S
C215 O220 1.209 . S
C215 O222 1.226 . S
O216 Cd212 2.273 . S
O216 Cd214 2.411 . S
O216 C219 1.320 . S
O217 Cd214 2.333 . S
O217 C219 1.214 . S
O218 Cd214 2.352 . S
O218 C221 1.258 . S
C219 O216 1.320 . S
C219 O217 1.214 . S
O220 Cd212 2.277 . S
O220 C215 1.209 . S
C221 O218 1.258 . S
C221 O223 1.282 . S
O222 Cd214 2.277 . S
O222 C215 1.226 . S
O223 Cd214 2.356 . S
O223 C221 1.282 . S
C224 O225 1.306 . S
C224 O227 1.160 . S
O225 C224 1.306 . S
O225 Cd226 2.228 . S
Cd226 O225 2.228 . S
Cd226 O230 2.273 . S
Cd226 O234 2.277 . S
O227 C224 1.160 . S
O227 Cd228 2.203 . S
Cd228 O227 2.203 . S
Cd228 O230 2.411 . S
Cd228 O231 2.333 . S
Cd228 O232 2.352 . S
Cd228 O236 2.277 . S
Cd228 O237 2.356 . S
C229 O234 1.209 . S
C229 O236 1.226 . S
O230 Cd226 2.273 . S
O230 Cd228 2.411 . S
O230 C233 1.320 . S
O231 Cd228 2.333 . S
O231 C233 1.214 . S
O232 Cd228 2.352 . S
O232 C235 1.258 . S
C233 O230 1.320 . S
C233 O231 1.214 . S
O234 Cd226 2.277 . S
O234 C229 1.209 . S
C235 O232 1.258 . S
C235 O237 1.282 . S
O236 Cd228 2.277 . S
O236 C229 1.226 . S
O237 Cd228 2.356 . S
O237 C235 1.282 . S
C238 O239 1.306 . S
C238 O241 1.160 . S
O239 C238 1.306 . S
O239 Cd240 2.228 . S
Cd240 O239 2.228 . S
Cd240 O244 2.273 . S
Cd240 O248 2.277 . S
O241 C238 1.160 . S
O241 Cd242 2.203 . S
Cd242 O241 2.203 . S
Cd242 O244 2.411 . S
Cd242 O245 2.333 . S
Cd242 O246 2.352 . S
Cd242 O250 2.277 . S
Cd242 O251 2.356 . S
C243 O248 1.209 . S
C243 O250 1.226 . S
O244 Cd240 2.273 . S
O244 Cd242 2.411 . S
O244 C247 1.320 . S
O245 Cd242 2.333 . S
O245 C247 1.214 . S
O246 Cd242 2.352 . S
O246 C249 1.258 . S
C247 O244 1.320 . S
C247 O245 1.214 . S
O248 Cd240 2.277 . S
O248 C243 1.209 . S
C249 O246 1.258 . S
C249 O251 1.282 . S
O250 Cd242 2.277 . S
O250 C243 1.226 . S
O251 Cd242 2.356 . S
O251 C249 1.282 . S
C252 O253 1.306 . S
C252 O255 1.160 . S
O253 C252 1.306 . S
O253 Cd254 2.228 . S
Cd254 O253 2.228 . S
Cd254 O258 2.273 . S
Cd254 O262 2.277 . S
O255 C252 1.160 . S
O255 Cd256 2.203 . S
Cd256 O255 2.203 . S
Cd256 O258 2.411 . S
Cd256 O259 2.333 . S
Cd256 O260 2.352 . S
Cd256 O264 2.277 . S
Cd256 O265 2.356 . S
C257 O262 1.209 . S
C257 O264 1.226 . S
O258 Cd254 2.273 . S
O258 Cd256 2.411 . S
O258 C261 1.320 . S
O259 Cd256 2.333 . S
O259 C261 1.214 . S
O260 Cd256 2.352 . S
O260 C263 1.258 . S
C261 O258 1.320 . S
C261 O259 1.214 . S
O262 Cd254 2.277 . S
O262 C257 1.209 . S
C263 O260 1.258 . S
C263 O265 1.282 . S
O264 Cd256 2.277 . S
O264 C257 1.226 . S
O265 Cd256 2.356 . S
O265 C263 1.282 . S
C266 O267 1.306 . S
C266 O269 1.160 . S
O267 C266 1.306 . S
O267 Cd268 2.228 . S
Cd268 O267 2.228 . S
Cd268 O272 2.273 . S
Cd268 O276 2.277 . S
O269 C266 1.160 . S
O269 Cd270 2.203 . S
Cd270 O269 2.203 . S
Cd270 O272 2.411 . S
Cd270 O273 2.333 . S
Cd270 O274 2.352 . S
Cd270 O278 2.277 . S
Cd270 O279 2.356 . S
C271 O276 1.209 . S
C271 O278 1.226 . S
O272 Cd268 2.273 . S
O272 Cd270 2.411 . S
O272 C275 1.320 . S
O273 Cd270 2.333 . S
O273 C275 1.214 . S
O274 Cd270 2.352 . S
O274 C277 1.258 . S
C275 O272 1.320 . S
C275 O273 1.214 . S
O276 Cd268 2.277 . S
O276 C271 1.209 . S
C277 O274 1.258 . S
C277 O279 1.282 . S
O278 Cd270 2.277 . S
O278 C271 1.226 . S
O279 Cd270 2.356 . S
O279 C277 1.282 . S
C280 O281 1.306 . S
C280 O283 1.160 . S
O281 C280 1.306 . S
O281 Cd282 2.228 . S
Cd282 O281 2.228 . S
Cd282 O286 2.273 . S
Cd282 O290 2.277 . S
O283 C280 1.160 . S
O283 Cd284 2.203 . S
Cd284 O283 2.203 . S
Cd284 O286 2.411 . S
Cd284 O287 2.333 . S
Cd284 O288 2.352 . S
Cd284 O292 2.277 . S
Cd284 O293 2.356 . S
C285 O290 1.209 . S
C285 O292 1.226 . S
O286 Cd282 2.273 . S
O286 Cd284 2.411 . S
O286 C289 1.320 . S
O287 Cd284 2.333 . S
O287 C289 1.214 . S
O288 Cd284 2.352 . S
O288 C291 1.258 . S
C289 O286 1.320 . S
C289 O287 1.214 . S
O290 Cd282 2.277 . S
O290 C285 1.209 . S
C291 O288 1.258 . S
C291 O293 1.282 . S
O292 Cd284 2.277 . S
O292 C285 1.226 . S
O293 Cd284 2.356 . S
O293 C291 1.282 . S
C294 O295 1.306 . S
C294 O297 1.160 . S
O295 C294 1.306 . S
O295 Cd296 2.228 . S
Cd296 O295 2.228 . S
Cd296 O300 2.273 . S
Cd296 O304 2.277 . S
O297 C294 1.160 . S
O297 Cd298 2.203 . S
Cd298 O297 2.203 . S
Cd298 O300 2.411 . S
Cd298 O301 2.333 . S
Cd298 O302 2.352 . S
Cd298 O306 2.277 . S
Cd298 O307 2.356 . S
C299 O304 1.209 . S
C299 O306 1.226 . S
O300 Cd296 2.273 . S
O300 Cd298 2.411 . S
O300 C303 1.320 . S
O301 Cd298 2.333 . S
O301 C303 1.214 . S
O302 Cd298 2.352 . S
O302 C305 1.258 . S
C303 O300 1.320 . S
C303 O301 1.214 . S
O304 Cd296 2.277 . S
O304 C299 1.209 . S
C305 O302 1.258 . S
C305 O307 1.282 . S
O306 Cd298 2.277 . S
O306 C299 1.226 . S
O307 Cd298 2.356 . S
O307 C305 1.282 . S
C308 O309 1.306 . S
C308 O311 1.160 . S
O309 C308 1.306 . S
O309 Cd310 2.228 . S
Cd310 O309 2.228 . S
Cd310 O314 2.273 . S
Cd310 O318 2.277 . S
O311 C308 1.160 . S
O311 Cd312 2.203 . S
Cd312 O311 2.203 . S
Cd312 O314 2.411 . S
Cd312 O315 2.333 . S
Cd312 O316 2.352 . S
Cd312 O320 2.277 . S
Cd312 O321 2.356 . S
C313 O318 1.209 . S
C313 O320 1.226 . S
O314 Cd310 2.273 . S
O314 Cd312 2.411 . S
O314 C317 1.320 . S
O315 Cd312 2.333 . S
O315 C317 1.214 . S
O316 Cd312 2.352 . S
O316 C319 1.258 . S
C317 O314 1.320 . S
C317 O315 1.214 . S
O318 Cd310 2.277 . S
O318 C313 1.209 . S
C319 O316 1.258 . S
C319 O321 1.282 . S
O320 Cd312 2.277 . S
O320 C313 1.226 . S
O321 Cd312 2.356 . S
O321 C319 1.282 . S
C322 O323 1.306 . S
C322 O325 1.160 . S
O323 C322 1.306 . S
O323 Cd324 2.228 . S
Cd324 O323 2.228 . S
Cd324 O328 2.273 . S
Cd324 O332 2.277 . S
O325 C322 1.160 . S
O325 Cd326 2.203 . S
Cd326 O325 2.203 . S
Cd326 O328 2.411 . S
Cd326 O329 2.333 . S
Cd326 O330 2.352 . S
Cd326 O334 2.277 . S
Cd326 O335 2.356 . S
C327 O332 1.209 . S
C327 O334 1.226 . S
O328 Cd324 2.273 . S
O328 Cd326 2.411 . S
O328 C331 1.320 . S
O329 Cd326 2.333 . S
O329 C331 1.214 . S
O330 Cd326 2.352 . S
O330 C333 1.258 . S
C331 O328 1.320 . S
C331 O329 1.214 . S
O332 Cd324 2.277 . S
O332 C327 1.209 . S
C333 O330 1.258 . S
C333 O335 1.282 . S
O334 Cd326 2.277 . S
O334 C327 1.226 . S
O335 Cd326 2.356 . S
O335 C333 1.282 . S
C336 O337 1.306 . S
C336 O339 1.160 . S
O337 C336 1.306 . S
O337 Cd338 2.228 . S
Cd338 O337 2.228 . S
Cd338 O342 2.273 . S
Cd338 O346 2.277 . S
O339 C336 1.160 . S
O339 Cd340 2.203 . S
Cd340 O339 2.203 . S
Cd340 O342 2.411 . S
Cd340 O343 2.333 . S
Cd340 O344 2.352 . S
Cd340 O348 2.277 . S
Cd340 O349 2.356 . S
C341 O346 1.209 . S
C341 O348 1.226 . S
O342 Cd338 2.273 . S
O342 Cd340 2.411 . S
O342 C345 1.320 . S
O343 Cd340 2.333 . S
O343 C345 1.214 . S
O344 Cd340 2.352 . S
O344 C347 1.258 . S
C345 O342 1.320 . S
C345 O343 1.214 . S
O346 Cd338 2.277 . S
O346 C341 1.209 . S
C347 O344 1.258 . S
C347 O349 1.282 . S
O348 Cd340 2.277 . S
O348 C341 1.226 . S
O349 Cd340 2.356 . S
O349 C347 1.282 . S
C350 O351 1.306 . S
C350 O353 1.160 . S
O351 C350 1.306 . S
O351 Cd352 2.228 . S
Cd352 O351 2.228 . S
Cd352 O356 2.273 . S
Cd352 O360 2.277 . S
O353 C350 1.160 . S
O353 Cd354 2.203 . S
Cd354 O353 2.203 . S
Cd354 O356 2.411 . S
Cd354 O357 2.333 . S
Cd354 O358 2.352 . S
Cd354 O362 2.277 . S
Cd354 O363 2.356 . S
C355 O360 1.209 . S
C355 O362 1.226 . S
O356 Cd352 2.273 . S
O356 Cd354 2.411 . S
O356 C359 1.320 . S
O357 Cd354 2.333 . S
O357 C359 1.214 . S
O358 Cd354 2.352 . S
O358 C361 1.258 . S
C359 O356 1.320 . S
C359 O357 1.214 . S
O360 Cd352 2.277 . S
O360 C355 1.209 . S
C361 O358 1.258 . S
C361 O363 1.282 . S
O362 Cd354 2.277 . S
O362 C355 1.226 . S
O363 Cd354 2.356 . S
O363 C361 1.282 . S
C364 O365 1.306 . S
C364 O367 1.160 . S
O365 C364 1.306 . S
O365 Cd366 2.228 . S
Cd366 O365 2.228 . S
Cd366 O370 2.273 . S
Cd366 O374 2.277 . S
O367 C364 1.160 . S
O367 Cd368 2.203 . S
Cd368 O367 2.203 . S
Cd368 O370 2.411 . S
Cd368 O371 2.333 . S
Cd368 O372 2.352 . S
Cd368 O376 2.277 . S
Cd368 O377 2.356 . S
C369 O374 1.209 . S
C369 O376 1.226 . S
O370 Cd366 2.273 . S
O370 Cd368 2.411 . S
O370 C373 1.320 . S
O371 Cd368 2.333 . S
O371 C373 1.214 . S
O372 Cd368 2.352 . S
O372 C375 1.258 . S
C373 O370 1.320 . S
C373 O371 1.214 . S
O374 Cd366 2.277 . S
O374 C369 1.209 . S
C375 O372 1.258 . S
C375 O377 1.282 . S
O376 Cd368 2.277 . S
O376 C369 1.226 . S
O377 Cd368 2.356 . S
O377 C375 1.282 . S
C378 O379 1.306 . S
C378 O381 1.160 . S
O379 C378 1.306 . S
O379 Cd380 2.228 . S
Cd380 O379 2.228 . S
Cd380 O384 2.273 . S
Cd380 O388 2.277 . S
O381 C378 1.160 . S
O381 Cd382 2.203 . S
Cd382 O381 2.203 . S
Cd382 O384 2.411 . S
Cd382 O385 2.333 . S
Cd382 O386 2.352 . S
Cd382 O390 2.277 . S
Cd382 O391 2.356 . S
C383 O388 1.209 . S
C383 O390 1.226 . S
O384 Cd380 2.273 . S
O384 Cd382 2.411 . S
O384 C387 1.320 . S
O385 Cd382 2.333 . S
O385 C387 1.214 . S
O386 Cd382 2.352 . S
O386 C389 1.258 . S
C387 O384 1.320 . S
C387 O385 1.214 . S
O388 Cd380 2.277 . S
O388 C383 1.209 . S
C389 O386 1.258 . S
C389 O391 1.282 . S
O390 Cd382 2.277 . S
O390 C383 1.226 . S
O391 Cd382 2.356 . S
O391 C389 1.282 . S
C392 O393 1.306 . S
C392 O395 1.160 . S
O393 C392 1.306 . S
O393 Cd394 2.228 . S
Cd394 O393 2.228 . S
Cd394 O398 2.273 . S
Cd394 O402 2.277 . S
O395 C392 1.160 . S
O395 Cd396 2.203 . S
Cd396 O395 2.203 . S
Cd396 O398 2.411 . S
Cd396 O399 2.333 . S
Cd396 O400 2.352 . S
Cd396 O404 2.277 . S
Cd396 O405 2.356 . S
C397 O402 1.209 . S
C397 O404 1.226 . S
O398 Cd394 2.273 . S
O398 Cd396 2.411 . S
O398 C401 1.320 . S
O399 Cd396 2.333 . S
O399 C401 1.214 . S
O400 Cd396 2.352 . S
O400 C403 1.258 . S
C401 O398 1.320 . S
C401 O399 1.214 . S
O402 Cd394 2.277 . S
O402 C397 1.209 . S
C403 O400 1.258 . S
C403 O405 1.282 . S
O404 Cd396 2.277 . S
O404 C397 1.226 . S
O405 Cd396 2.356 . S
O405 C403 1.282 . S
C406 O407 1.306 . S
C406 O409 1.160 . S
O407 C406 1.306 . S
O407 Cd408 2.228 . S
Cd408 O407 2.228 . S
Cd408 O412 2.273 . S
Cd408 O416 2.277 . S
O409 C406 1.160 . S
O409 Cd410 2.203 . S
Cd410 O409 2.203 . S
Cd410 O412 2.411 . S
Cd410 O413 2.333 . S
Cd410 O414 2.352 . S
Cd410 O418 2.277 . S
Cd410 O419 2.356 . S
C411 O416 1.209 . S
C411 O418 1.226 . S
O412 Cd408 2.273 . S
O412 Cd410 2.411 . S
O412 C415 1.320 . S
O413 Cd410 2.333 . S
O413 C415 1.214 . S
O414 Cd410 2.352 . S
O414 C417 1.258 . S
C415 O412 1.320 . S
C415 O413 1.214 . S
O416 Cd408 2.277 . S
O416 C411 1.209 . S
C417 O414 1.258 . S
C417 O419 1.282 . S
O418 Cd410 2.277 . S
O418 C411 1.226 . S
O419 Cd410 2.356 . S
O419 C417 1.282 . S
C420 O421 1.306 . S
C420 O423 1.160 . S
O421 C420 1.306 . S
O421 Cd422 2.228 . S
Cd422 O421 2.228 . S
Cd422 O426 2.273 . S
Cd422 O430 2.277 . S
O423 C420 1.160 . S
O423 Cd424 2.203 . S
Cd424 O423 2.203 . S
Cd424 O426 2.411 . S
Cd424 O427 2.333 . S
Cd424 O428 2.352 . S
Cd424 O432 2.277 . S
Cd424 O433 2.356 . S
C425 O430 1.209 . S
C425 O432 1.226 . S
O426 Cd422 2.273 . S
O426 Cd424 2.411 . S
O426 C429 1.320 . S
O427 Cd424 2.333 . S
O427 C429 1.214 . S
O428 Cd424 2.352 . S
O428 C431 1.258 . S
C429 O426 1.320 . S
C429 O427 1.214 . S
O430 Cd422 2.277 . S
O430 C425 1.209 . S
C431 O428 1.258 . S
C431 O433 1.282 . S
O432 Cd424 2.277 . S
O432 C425 1.226 . S
O433 Cd424 2.356 . S
O433 C431 1.282 . S
C434 O435 1.306 . S
C434 O437 1.160 . S
O435 C434 1.306 . S
O435 Cd436 2.228 . S
Cd436 O435 2.228 . S
Cd436 O440 2.273 . S
Cd436 O444 2.277 . S
O437 C434 1.160 . S
O437 Cd438 2.203 . S
Cd438 O437 2.203 . S
Cd438 O440 2.411 . S
Cd438 O441 2.333 . S
Cd438 O442 2.352 . S
Cd438 O446 2.277 . S
Cd438 O447 2.356 . S
C439 O444 1.209 . S
C439 O446 1.226 . S
O440 Cd436 2.273 . S
O440 Cd438 2.411 . S
O440 C443 1.320 . S
O441 Cd438 2.333 . S
O441 C443 1.214 . S
O442 Cd438 2.352 . S
O442 C445 1.258 . S
C443 O440 1.320 . S
C443 O441 1.214 . S
O444 Cd436 2.277 . S
O444 C439 1.209 . S
C445 O442 1.258 . S
C445 O447 1.282 . S
O446 Cd438 2.277 . S
O446 C439 1.226 . S
O447 Cd438 2.356 . S
O447 C445 1.282 . S
C448 O449 1.306 . S
C448 O451 1.160 . S
O449 C448 1.306 . S
O449 Cd450 2.228 . S
Cd450 O449 2.228 . S
Cd450 O454 2.273 . S
Cd450 O458 2.277 . S
O451 C448 1.160 . S
O451 Cd452 2.203 . S
Cd452 O451 2.203 . S
Cd452 O454 2.411 . S
Cd452 O455 2.333 . S
Cd452 O456 2.352 . S
Cd452 O460 2.277 . S
Cd452 O461 2.356 . S
C453 O458 1.209 . S
C453 O460 1.226 . S
O454 Cd450 2.273 . S
O454 Cd452 2.411 . S
O454 C457 1.320 . S
O455 Cd452 2.333 . S
O455 C457 1.214 . S
O456 Cd452 2.352 . S
O456 C459 1.258 . S
C457 O454 1.320 . S
C457 O455 1.214 . S
O458 Cd450 2.277 . S
O458 C453 1.209 . S
C459 O456 1.258 . S
C459 O461 1.282 . S
O460 Cd452 2.277 . S
O460 C453 1.226 . S
O461 Cd452 2.356 . S
O461 C459 1.282 . S
C462 O463 1.306 . S
C462 O465 1.160 . S
O463 C462 1.306 . S
O463 Cd464 2.228 . S
Cd464 O463 2.228 . S
Cd464 O468 2.273 . S
Cd464 O472 2.277 . S
O465 C462 1.160 . S
O465 Cd466 2.203 . S
Cd466 O465 2.203 . S
Cd466 O468 2.411 . S
Cd466 O469 2.333 . S
Cd466 O470 2.352 . S
Cd466 O474 2.277 . S
Cd466 O475 2.356 . S
C467 O472 1.209 . S
C467 O474 1.226 . S
O468 Cd464 2.273 . S
O468 Cd466 2.411 . S
O468 C471 1.320 . S
O469 Cd466 2.333 . S
O469 C471 1.214 . S
O470 Cd466 2.352 . S
O470 C473 1.258 . S
C471 O468 1.320 . S
C471 O469 1.214 . S
O472 Cd464 2.277 . S
O472 C467 1.209 . S
C473 O470 1.258 . S
C473 O475 1.282 . S
O474 Cd466 2.277 . S
O474 C467 1.226 . S
O475 Cd466 2.356 . S
O475 C473 1.282 . S
C476 O477 1.306 . S
C476 O479 1.160 . S
O477 C476 1.306 . S
O477 Cd478 2.228 . S
Cd478 O477 2.228 . S
Cd478 O482 2.273 . S
Cd478 O486 2.277 . S
O479 C476 1.160 . S
O479 Cd480 2.203 . S
Cd480 O479 2.203 . S
Cd480 O482 2.411 . S
Cd480 O483 2.333 . S
Cd480 O484 2.352 . S
Cd480 O488 2.277 . S
Cd480 O489 2.356 . S
C481 O486 1.209 . S
C481 O488 1.226 . S
O482 Cd478 2.273 . S
O482 Cd480 2.411 . S
O482 C485 1.320 . S
O483 Cd480 2.333 . S
O483 C485 1.214 . S
O484 Cd480 2.352 . S
O484 C487 1.258 . S
C485 O482 1.320 . S
C485 O483 1.214 . S
O486 Cd478 2.277 . S
O486 C481 1.209 . S
C487 O484 1.258 . S
C487 O489 1.282 . S
O488 Cd480 2.277 . S
O488 C481 1.226 . S
O489 Cd480 2.356 . S
O489 C487 1.282 . S
C490 O491 1.306 . S
C490 O493 1.160 . S
O491 C490 1.306 . S
O491 Cd492 2.228 . S
Cd492 O491 2.228 . S
Cd492 O496 2.273 . S
Cd492 O500 2.277 . S
O493 C490 1.160 . S
O493 Cd494 2.203 . S
Cd494 O493 2.203 . S
Cd494 O496 2.411 . S
Cd494 O497 2.333 . S
Cd494 O498 2.352 . S
Cd494 O502 2.277 . S
Cd494 O503 2.356 . S
C495 O500 1.209 . S
C495 O502 1.226 . S
O496 Cd492 2.273 . S
O496 Cd494 2.411 . S
O496 C499 1.320 . S
O497 Cd494 2.333 . S
O497 C499 1.214 . S
O498 Cd494 2.352 . S
O498 C501 1.258 . S
C499 O496 1.320 . S
C499 O497 1.214 . S
O500 Cd492 2.277 . S
O500 C495 1.209 . S
C501 O498 1.258 . S
C501 O503 1.282 . S
O502 Cd494 2.277 . S
O502 C495 1.226 . S
O503 Cd494 2.356 . S
O503 C501 1.282 . S
C504 O505 1.306 . S
C504 O507 1.160 . S
O505 C504 1.306 . S
O505 Cd506 2.228 . S
Cd506 O505 2.228 . S
Cd506 O510 2.273 . S
Cd506 O514 2.277 . S
O507 C504 1.160 . S
O507 Cd508 2.203 . S
Cd508 O507 2.203 . S
Cd508 O510 2.411 . S
Cd508 O511 2.333 . S
Cd508 O512 2.352 . S
Cd508 O516 2.277 . S
Cd508 O517 2.356 . S
C509 O514 1.209 . S
C509 O516 1.226 . S
O510 Cd506 2.273 . S
O510 Cd508 2.411 . S
O510 C513 1.320 . S
O511 Cd508 2.333 . S
O511 C513 1.214 . S
O512 Cd508 2.352 . S
O512 C515 1.258 . S
C513 O510 1.320 . S
C513 O511 1.214 . S
O514 Cd506 2.277 . S
O514 C509 1.209 . S
C515 O512 1.258 . S
C515 O517 1.282 . S
O516 Cd508 2.277 . S
O516 C509 1.226 . S
O517 Cd508 2.356 . S
O517 C515 1.282 . S
C518 O519 1.306 . S
C518 O521 1.160 . S
O519 C518 1.306 . S
O519 Cd520 2.228 . S
Cd520 O519 2.228 . S
Cd520 O524 2.273 . S
Cd520 O528 2.277 . S
O521 C518 1.160 . S
O521 Cd522 2.203 . S
Cd522 O521 2.203 . S
Cd522 O524 2.411 . S
Cd522 O525 2.333 . S
Cd522 O526 2.352 . S
Cd522 O530 2.277 . S
Cd522 O531 2.356 . S
C523 O528 1.209 . S
C523 O530 1.226 . S
O524 Cd520 2.273 . S
O524 Cd522 2.411 . S
O524 C527 1.320 . S
O525 Cd522 2.333 . S
O525 C527 1.214 . S
O526 Cd522 2.352 . S
O526 C529 1.258 . S
C527 O524 1.320 . S
C527 O525 1.214 . S
O528 Cd520 2.277 . S
O528 C523 1.209 . S
C529 O526 1.258 . S
C529 O531 1.282 . S
O530 Cd522 2.277 . S
O530 C523 1.226 . S
O531 Cd522 2.356 . S
O531 C529 1.282 . S
C532 O533 1.306 . S
C532 O535 1.160 . S
O533 C532 1.306 . S
O533 Cd534 2.228 . S
Cd534 O533 2.228 . S
Cd534 O538 2.273 . S
Cd534 O542 2.277 . S
O535 C532 1.160 . S
O535 Cd536 2.203 . S
Cd536 O535 2.203 . S
Cd536 O538 2.411 . S
Cd536 O539 2.333 . S
Cd536 O540 2.352 . S
Cd536 O544 2.277 . S
Cd536 O545 2.356 . S
C537 O542 1.209 . S
C537 O544 1.226 . S
O538 Cd534 2.273 . S
O538 Cd536 2.411 . S
O538 C541 1.320 . S
O539 Cd536 2.333 . S
O539 C541 1.214 . S
O540 Cd536 2.352 . S
O540 C543 1.258 . S
C541 O538 1.320 . S
C541 O539 1.214 . S
O542 Cd534 2.277 . S
O542 C537 1.209 . S
C543 O540 1.258 . S
C543 O545 1.282 . S
O544 Cd536 2.277 . S
O544 C537 1.226 . S
O545 Cd536 2.356 . S
O545 C543 1.282 . S
C546 O547 1.306 . S
C546 O549 1.160 . S
O547 C546 1.306 . S
O547 Cd548 2.228 . S
Cd548 O547 2.228 . S
Cd548 O552 2.273 . S
Cd548 O556 2.277 . S
O549 C546 1.160 . S
O549 Cd550 2.203 . S
Cd550 O549 2.203 . S
Cd550 O552 2.411 . S
Cd550 O553 2.333 . S
Cd550 O554 2.352 . S
Cd550 O558 2.277 . S
Cd550 O559 2.356 . S
C551 O556 1.209 . S
C551 O558 1.226 . S
O552 Cd548 2.273 . S
O552 Cd550 2.411 . S
O552 C555 1.320 . S
O553 Cd550 2.333 . S
O553 C555 1.214 . S
O554 Cd550 2.352 . S
O554 C557 1.258 . S
C555 O552 1.320 . S
C555 O553 1.214 . S
O556 Cd548 2.277 . S
O556 C551 1.209 . S
C557 O554 1.258 . S
C557 O559 1.282 . S
O558 Cd550 2.277 . S
O558 C551 1.226 . S
O559 Cd550 2.356 . S
O559 C557 1.282 . S
C560 O561 1.306 . S
C560 O563 1.160 . S
O561 C560 1.306 . S
O561 Cd562 2.228 . S
Cd562 O561 2.228 . S
Cd562 O566 2.273 . S
Cd562 O570 2.277 . S
O563 C560 1.160 . S
O563 Cd564 2.203 . S
Cd564 O563 2.203 . S
Cd564 O566 2.411 . S
Cd564 O567 2.333 . S
Cd564 O568 2.352 . S
Cd564 O572 2.277 . S
Cd564 O573 2.356 . S
C565 O570 1.209 . S
C565 O572 1.226 . S
O566 Cd562 2.273 . S
O566 Cd564 2.411 . S
O566 C569 1.320 . S
O567 Cd564 2.333 . S
O567 C569 1.214 . S
O568 Cd564 2.352 . S
O568 C571 1.258 . S
C569 O566 1.320 . S
C569 O567 1.214 . S
O570 Cd562 2.277 . S
O570 C565 1.209 . S
C571 O568 1.258 . S
C571 O573 1.282 . S
O572 Cd564 2.277 . S
O572 C565 1.226 . S
O573 Cd564 2.356 . S
O573 C571 1.282 . S
C574 O575 1.306 . S
C574 O577 1.160 . S
O575 C574 1.306 . S
O575 Cd576 2.228 . S
Cd576 O575 2.228 . S
Cd576 O580 2.273 . S
Cd576 O584 2.277 . S
O577 C574 1.160 . S
O577 Cd578 2.203 . S
Cd578 O577 2.203 . S
Cd578 O580 2.411 . S
Cd578 O581 2.333 . S
Cd578 O582 2.352 . S
Cd578 O586 2.277 . S
Cd578 O587 2.356 . S
C579 O584 1.209 . S
C579 O586 1.226 . S
O580 Cd576 2.273 . S
O580 Cd578 2.411 . S
O580 C583 1.320 . S
O581 Cd578 2.333 . S
O581 C583 1.214 . S
O582 Cd578 2.352 . S
O582 C585 1.258 . S
C583 O580 1.320 . S
C583 O581 1.214 . S
O584 Cd576 2.277 . S
O584 C579 1.209 . S
C585 O582 1.258 . S
C585 O587 1.282 . S
O586 Cd578 2.277 . S
O586 C579 1.226 . S
O587 Cd578 2.356 . S
O587 C585 1.282 . S
C588 O589 1.306 . S
C588 O591 1.160 . S
O589 C588 1.306 . S
O589 Cd590 2.228 . S
Cd590 O589 2.228 . S
Cd590 O594 2.273 . S
Cd590 O598 2.277 . S
O591 C588 1.160 . S
O591 Cd592 2.203 . S
Cd592 O591 2.203 . S
Cd592 O594 2.411 . S
Cd592 O595 2.333 . S
Cd592 O596 2.352 . S
Cd592 O600 2.277 . S
Cd592 O601 2.356 . S
C593 O598 1.209 . S
C593 O600 1.226 . S
O594 Cd590 2.273 . S
O594 Cd592 2.411 . S
O594 C597 1.320 . S
O595 Cd592 2.333 . S
O595 C597 1.214 . S
O596 Cd592 2.352 . S
O596 C599 1.258 . S
C597 O594 1.320 . S
C597 O595 1.214 . S
O598 Cd590 2.277 . S
O598 C593 1.209 . S
C599 O596 1.258 . S
C599 O601 1.282 . S
O600 Cd592 2.277 . S
O600 C593 1.226 . S
O601 Cd592 2.356 . S
O601 C599 1.282 . S
C602 O603 1.306 . S
C602 O605 1.160 . S
O603 C602 1.306 . S
O603 Cd604 2.228 . S
Cd604 O603 2.228 . S
Cd604 O608 2.273 . S
Cd604 O612 2.277 . S
O605 C602 1.160 . S
O605 Cd606 2.203 . S
Cd606 O605 2.203 . S
Cd606 O608 2.411 . S
Cd606 O609 2.333 . S
Cd606 O610 2.352 . S
Cd606 O614 2.277 . S
Cd606 O615 2.356 . S
C607 O612 1.209 . S
C607 O614 1.226 . S
O608 Cd604 2.273 . S
O608 Cd606 2.411 . S
O608 C611 1.320 . S
O609 Cd606 2.333 . S
O609 C611 1.214 . S
O610 Cd606 2.352 . S
O610 C613 1.258 . S
C611 O608 1.320 . S
C611 O609 1.214 . S
O612 Cd604 2.277 . S
O612 C607 1.209 . S
C613 O610 1.258 . S
C613 O615 1.282 . S
O614 Cd606 2.277 . S
O614 C607 1.226 . S
O615 Cd606 2.356 . S
O615 C613 1.282 . S
C616 O617 1.306 . S
C616 O619 1.160 . S
O617 C616 1.306 . S
O617 Cd618 2.228 . S
Cd618 O617 2.228 . S
Cd618 O622 2.273 . S
Cd618 O626 2.277 . S
O619 C616 1.160 . S
O619 Cd620 2.203 . S
Cd620 O619 2.203 . S
Cd620 O622 2.411 . S
Cd620 O623 2.333 . S
Cd620 O624 2.352 . S
Cd620 O628 2.277 . S
Cd620 O629 2.356 . S
C621 O626 1.209 . S
C621 O628 1.226 . S
O622 Cd618 2.273 . S
O622 Cd620 2.411 . S
O622 C625 1.320 . S
O623 Cd620 2.333 . S
O623 C625 1.214 . S
O624 Cd620 2.352 . S
O624 C627 1.258 . S
C625 O622 1.320 . S
C625 O623 1.214 . S
O626 Cd618 2.277 . S
O626 C621 1.209 . S
C627 O624 1.258 . S
C627 O629 1.282 . S
O628 Cd620 2.277 . S
O628 C621 1.226 . S
O629 Cd620 2.356 . S
O629 C627 1.282 . S
C630 O631 1.306 . S
C630 O633 1.160 . S
O631 C630 1.306 . S
O631 Cd632 2.228 . S
Cd632 O631 2.228 . S
Cd632 O636 2.273 . S
Cd632 O640 2.277 . S
O633 C630 1.160 . S
O633 Cd634 2.203 . S
Cd634 O633 2.203 . S
Cd634 O636 2.411 . S
Cd634 O637 2.333 . S
Cd634 O638 2.352 . S
Cd634 O642 2.277 . S
Cd634 O643 2.356 . S
C635 O640 1.209 . S
C635 O642 1.226 . S
O636 Cd632 2.273 . S
O636 Cd634 2.411 . S
O636 C639 1.320 . S
O637 Cd634 2.333 . S
O637 C639 1.214 . S
O638 Cd634 2.352 . S
O638 C641 1.258 . S
C639 O636 1.320 . S
C639 O637 1.214 . S
O640 Cd632 2.277 . S
O640 C635 1.209 . S
C641 O638 1.258 . S
C641 O643 1.282 . S
O642 Cd634 2.277 . S
O642 C635 1.226 . S
O643 Cd634 2.356 . S
O643 C641 1.282 . S
C644 O645 1.306 . S
C644 O647 1.160 . S
O645 C644 1.306 . S
O645 Cd646 2.228 . S
Cd646 O645 2.228 . S
Cd646 O650 2.273 . S
Cd646 O654 2.277 . S
O647 C644 1.160 . S
O647 Cd648 2.203 . S
Cd648 O647 2.203 . S
Cd648 O650 2.411 . S
Cd648 O651 2.333 . S
Cd648 O652 2.352 . S
Cd648 O656 2.277 . S
Cd648 O657 2.356 . S
C649 O654 1.209 . S
C649 O656 1.226 . S
O650 Cd646 2.273 . S
O650 Cd648 2.411 . S
O650 C653 1.320 . S
O651 Cd648 2.333 . S
O651 C653 1.214 . S
O652 Cd648 2.352 . S
O652 C655 1.258 . S
C653 O650 1.320 . S
C653 O651 1.214 . S
O654 Cd646 2.277 . S
O654 C649 1.209 . S
C655 O652 1.258 . S
C655 O657 1.282 . S
O656 Cd648 2.277 . S
O656 C649 1.226 . S
O657 Cd648 2.356 . S
O657 C655 1.282 . S
C658 O659 1.306 . S
C658 O661 1.160 . S
O659 C658 1.306 . S
O659 Cd660 2.228 . S
Cd660 O659 2.228 . S
Cd660 O664 2.273 . S
Cd660 O668 2.277 . S
O661 C658 1.160 . S
O661 Cd662 2.203 . S
Cd662 O661 2.203 . S
Cd662 O664 2.411 . S
Cd662 O665 2.333 . S
Cd662 O666 2.352 . S
Cd662 O670 2.277 . S
Cd662 O671 2.356 . S
C663 O668 1.209 . S
C663 O670 1.226 . S
O664 Cd660 2.273 . S
O664 Cd662 2.411 . S
O664 C667 1.320 . S
O665 Cd662 2.333 . S
O665 C667 1.214 . S
O666 Cd662 2.352 . S
O666 C669 1.258 . S
C667 O664 1.320 . S
C667 O665 1.214 . S
O668 Cd660 2.277 . S
O668 C663 1.209 . S
C669 O666 1.258 . S
C669 O671 1.282 . S
O670 Cd662 2.277 . S
O670 C663 1.226 . S
O671 Cd662 2.356 . S
O671 C669 1.282 . S
C672 O673 1.306 . S
C672 O675 1.160 . S
O673 C672 1.306 . S
O673 Cd674 2.228 . S
Cd674 O673 2.228 . S
Cd674 O678 2.273 . S
Cd674 O682 2.277 . S
O675 C672 1.160 . S
O675 Cd676 2.203 . S
Cd676 O675 2.203 . S
Cd676 O678 2.411 . S
Cd676 O679 2.333 . S
Cd676 O680 2.352 . S
Cd676 O684 2.277 . S
Cd676 O685 2.356 . S
C677 O682 1.209 . S
C677 O684 1.226 . S
O678 Cd674 2.273 . S
O678 Cd676 2.411 . S
O678 C681 1.320 . S
O679 Cd676 2.333 . S
O679 C681 1.214 . S
O680 Cd676 2.352 . S
O680 C683 1.258 . S
C681 O678 1.320 . S
C681 O679 1.214 . S
O682 Cd674 2.277 . S
O682 C677 1.209 . S
C683 O680 1.258 . S
C683 O685 1.282 . S
O684 Cd676 2.277 . S
O684 C677 1.226 . S
O685 Cd676 2.356 . S
O685 C683 1.282 . S
C686 O687 1.306 . S
C686 O689 1.160 . S
O687 C686 1.306 . S
O687 Cd688 2.228 . S
Cd688 O687 2.228 . S
Cd688 O692 2.273 . S
Cd688 O696 2.277 . S
O689 C686 1.160 . S
O689 Cd690 2.203 . S
Cd690 O689 2.203 . S
Cd690 O692 2.411 . S
Cd690 O693 2.333 . S
Cd690 O694 2.352 . S
Cd690 O698 2.277 . S
Cd690 O699 2.356 . S
C691 O696 1.209 . S
C691 O698 1.226 . S
O692 Cd688 2.273 . S
O692 Cd690 2.411 . S
O692 C695 1.320 . S
O693 Cd690 2.333 . S
O693 C695 1.214 . S
O694 Cd690 2.352 . S
O694 C697 1.258 . S
C695 O692 1.320 . S
C695 O693 1.214 . S
O696 Cd688 2.277 . S
O696 C691 1.209 . S
C697 O694 1.258 . S
C697 O699 1.282 . S
O698 Cd690 2.277 . S
O698 C691 1.226 . S
O699 Cd690 2.356 . S
O699 C697 1.282 . S
C700 O701 1.306 . S
C700 O703 1.160 . S
O701 C700 1.306 . S
O701 Cd702 2.228 . S
Cd702 O701 2.228 . S
Cd702 O706 2.273 . S
Cd702 O710 2.277 . S
O703 C700 1.160 . S
O703 Cd704 2.203 . S
Cd704 O703 2.203 . S
Cd704 O706 2.411 . S
Cd704 O707 2.333 . S
Cd704 O708 2.352 . S
Cd704 O712 2.277 . S
Cd704 O713 2.356 . S
C705 O710 1.209 . S
C705 O712 1.226 . S
O706 Cd702 2.273 . S
O706 Cd704 2.411 . S
O706 C709 1.320 . S
O707 Cd704 2.333 . S
O707 C709 1.214 . S
O708 Cd704 2.352 . S
O708 C711 1.258 . S
C709 O706 1.320 . S
C709 O707 1.214 . S
O710 Cd702 2.277 . S
O710 C705 1.209 . S
C711 O708 1.258 . S
C711 O713 1.282 . S
O712 Cd704 2.277 . S
O712 C705 1.226 . S
O713 Cd704 2.356 . S
O713 C711 1.282 . S
C714 O715 1.306 . S
C714 O717 1.160 . S
O715 C714 1.306 . S
O715 Cd716 2.228 . S
Cd716 O715 2.228 . S
Cd716 O720 2.273 . S
Cd716 O724 2.277 . S
O717 C714 1.160 . S
O717 Cd718 2.203 . S
Cd718 O717 2.203 . S
Cd718 O720 2.411 . S
Cd718 O721 2.333 . S
Cd718 O722 2.352 . S
Cd718 O726 2.277 . S
Cd718 O727 2.356 . S
C719 O724 1.209 . S
C719 O726 1.226 . S
O720 Cd716 2.273 . S
O720 Cd718 2.411 . S
O720 C723 1.320 . S
O721 Cd718 2.333 . S
O721 C723 1.214 . S
O722 Cd718 2.352 . S
O722 C725 1.258 . S
C723 O720 1.320 . S
C723 O721 1.214 . S
O724 Cd716 2.277 . S
O724 C719 1.209 . S
C725 O722 1.258 . S
C725 O727 1.282 . S
O726 Cd718 2.277 . S
O726 C719 1.226 . S
O727 Cd718 2.356 . S
O727 C725 1.282 . S
C728 O729 1.306 . S
C728 O731 1.160 . S
O729 C728 1.306 . S
O729 Cd730 2.228 . S
Cd730 O729 2.228 . S
Cd730 O734 2.273 . S
Cd730 O738 2.277 . S
O731 C728 1.160 . S
O731 Cd732 2.203 . S
Cd732 O731 2.203 . S
Cd732 O734 2.411 . S
Cd732 O735 2.333 . S
Cd732 O736 2.352 . S
Cd732 O740 2.277 . S
Cd732 O741 2.356 . S
C733 O738 1.209 . S
C733 O740 1.226 . S
O734 Cd730 2.273 . S
O734 Cd732 2.411 . S
O734 C737 1.320 . S
O735 Cd732 2.333 . S
O735 C737 1.214 . S
O736 Cd732 2.352 . S
O736 C739 1.258 . S
C737 O734 1.320 . S
C737 O735 1.214 . S
O738 Cd730 2.277 . S
O738 C733 1.209 . S
C739 O736 1.258 . S
C739 O741 1.282 . S
O740 Cd732 2.277 . S
O740 C733 1.226 . S
O741 Cd732 2.356 . S
O741 C739 1.282 . S
C742 O743 1.306 . S
C742 O745 1.160 . S
O743 C742 1.306 . S
O743 Cd744 2.228 . S
Cd744 O743 2.228 . S
Cd744 O748 2.273 . S
Cd744 O752 2.277 . S
O745 C742 1.160 . S
O745 Cd746 2.203 . S
Cd746 O745 2.203 . S
Cd746 O748 2.411 . S
Cd746 O749 2.333 . S
Cd746 O750 2.352 . S
Cd746 O754 2.277 . S
Cd746 O755 2.356 . S
C747 O752 1.209 . S
C747 O754 1.226 . S
O748 Cd744 2.273 . S
O748 Cd746 2.411 . S
O748 C751 1.320 . S
O749 Cd746 2.333 . S
O749 C751 1.214 . S
O750 Cd746 2.352 . S
O750 C753 1.258 . S
C751 O748 1.320 . S
C751 O749 1.214 . S
O752 Cd744 2.277 . S
O752 C747 1.209 . S
C753 O750 1.258 . S
C753 O755 1.282 . S
O754 Cd746 2.277 . S
O754 C747 1.226 . S
O755 Cd746 2.356 . S
O755 C753 1.282 . S
C756 O757 1.306 . S
C756 O759 1.160 . S
O757 C756 1.306 . S
O757 Cd758 2.228 . S
Cd758 O757 2.228 . S
Cd758 O762 2.273 . S
Cd758 O766 2.277 . S
O759 C756 1.160 . S
O759 Cd760 2.203 . S
Cd760 O759 2.203 . S
Cd760 O762 2.411 . S
Cd760 O763 2.333 . S
Cd760 O764 2.352 . S
Cd760 O768 2.277 . S
Cd760 O769 2.356 . S
C761 O766 1.209 . S
C761 O768 1.226 . S
O762 Cd758 2.273 . S
O762 Cd760 2.411 . S
O762 C765 1.320 . S
O763 Cd760 2.333 . S
O763 C765 1.214 . S
O764 Cd760 2.352 . S
O764 C767 1.258 . S
C765 O762 1.320 . S
C765 O763 1.214 . S
O766 Cd758 2.277 . S
O766 C761 1.209 . S
C767 O764 1.258 . S
C767 O769 1.282 . S
O768 Cd760 2.277 . S
O768 C761 1.226 . S
O769 Cd760 2.356 . S
O769 C767 1.282 . S
C770 O771 1.306 . S
C770 O773 1.160 . S
O771 C770 1.306 . S
O771 Cd772 2.228 . S
Cd772 O771 2.228 . S
Cd772 O776 2.273 . S
Cd772 O780 2.277 . S
O773 C770 1.160 . S
O773 Cd774 2.203 . S
Cd774 O773 2.203 . S
Cd774 O776 2.411 . S
Cd774 O777 2.333 . S
Cd774 O778 2.352 . S
Cd774 O782 2.277 . S
Cd774 O783 2.356 . S
C775 O780 1.209 . S
C775 O782 1.226 . S
O776 Cd772 2.273 . S
O776 Cd774 2.411 . S
O776 C779 1.320 . S
O777 Cd774 2.333 . S
O777 C779 1.214 . S
O778 Cd774 2.352 . S
O778 C781 1.258 . S
C779 O776 1.320 . S
C779 O777 1.214 . S
O780 Cd772 2.277 . S
O780 C775 1.209 . S
C781 O778 1.258 . S
C781 O783 1.282 . S
O782 Cd774 2.277 . S
O782 C775 1.226 . S
O783 Cd774 2.356 . S
O783 C781 1.282 . S
C784 O785 1.306 . S
C784 O787 1.160 . S
O785 C784 1.306 . S
O785 Cd786 2.228 . S
Cd786 O785 2.228 . S
Cd786 O790 2.273 . S
Cd786 O794 2.277 . S
O787 C784 1.160 . S
O787 Cd788 2.203 . S
Cd788 O787 2.203 . S
Cd788 O790 2.411 . S
Cd788 O791 2.333 . S
Cd788 O792 2.352 . S
Cd788 O796 2.277 . S
Cd788 O797 2.356 . S
C789 O794 1.209 . S
C789 O796 1.226 . S
O790 Cd786 2.273 . S
O790 Cd788 2.411 . S
O790 C793 1.320 . S
O791 Cd788 2.333 . S
O791 C793 1.214 . S
O792 Cd788 2.352 . S
O792 C795 1.258 . S
C793 O790 1.320 . S
C793 O791 1.214 . S
O794 Cd786 2.277 . S
O794 C789 1.209 . S
C795 O792 1.258 . S
C795 O797 1.282 . S
O796 Cd788 2.277 . S
O796 C789 1.226 . S
O797 Cd788 2.356 . S
O797 C795 1.282 . S
C798 O799 1.306 . S
C798 O801 1.160 . S
O799 C798 1.306 . S
O799 Cd800 2.228 . S
Cd800 O799 2.228 . S
Cd800 O804 2.273 . S
Cd800 O808 2.277 . S
O801 C798 1.160 . S
O801 Cd802 2.203 . S
Cd802 O801 2.203 . S
Cd802 O804 2.411 . S
Cd802 O805 2.333 . S
Cd802 O806 2.352 . S
Cd802 O810 2.277 . S
Cd802 O811 2.356 . S
C803 O808 1.209 . S
C803 O810 1.226 . S
O804 Cd800 2.273 . S
O804 Cd802 2.411 . S
O804 C807 1.320 . S
O805 Cd802 2.333 . S
O805 C807 1.214 . S
O806 Cd802 2.352 . S
O806 C809 1.258 . S
C807 O804 1.320 . S
C807 O805 1.214 . S
O808 Cd800 2.277 . S
O808 C803 1.209 . S
C809 O806 1.258 . S
C809 O811 1.282 . S
O810 Cd802 2.277 . S
O810 C803 1.226 . S
O811 Cd802 2.356 . S
O811 C809 1.282 . S
C812 O813 1.306 . S
C812 O815 1.160 . S
O813 C812 1.306 . S
O813 Cd814 2.228 . S
Cd814 O813 2.228 . S
Cd814 O818 2.273 . S
Cd814 O822 2.277 . S
O815 C812 1.160 . S
O815 Cd816 2.203 . S
Cd816 O815 2.203 . S
Cd816 O818 2.411 . S
Cd816 O819 2.333 . S
Cd816 O820 2.352 . S
Cd816 O824 2.277 . S
Cd816 O825 2.356 . S
C817 O822 1.209 . S
C817 O824 1.226 . S
O818 Cd814 2.273 . S
O818 Cd816 2.411 . S
O818 C821 1.320 . S
O819 Cd816 2.333 . S
O819 C821 1.214 . S
O820 Cd816 2.352 . S
O820 C823 1.258 . S
C821 O818 1.320 . S
C821 O819 1.214 . S
O822 Cd814 2.277 . S
O822 C817 1.209 . S
C823 O820 1.258 . S
C823 O825 1.282 . S
O824 Cd816 2.277 . S
O824 C817 1.226 . S
O825 Cd816 2.356 . S
O825 C823 1.282 . S
C826 O827 1.306 . S
C826 O829 1.160 . S
O827 C826 1.306 . S
O827 Cd828 2.228 . S
Cd828 O827 2.228 . S
Cd828 O832 2.273 . S
Cd828 O836 2.277 . S
O829 C826 1.160 . S
O829 Cd830 2.203 . S
Cd830 O829 2.203 . S
Cd830 O832 2.411 . S
Cd830 O833 2.333 . S
Cd830 O834 2.352 . S
Cd830 O838 2.277 . S
Cd830 O839 2.356 . S
C831 O836 1.209 . S
C831 O838 1.226 . S
O832 Cd828 2.273 . S
O832 Cd830 2.411 . S
O832 C835 1.320 . S
O833 Cd830 2.333 . S
O833 C835 1.214 . S
O834 Cd830 2.352 . S
O834 C837 1.258 . S
C835 O832 1.320 . S
C835 O833 1.214 . S
O836 Cd828 2.277 . S
O836 C831 1.209 . S
C837 O834 1.258 . S
C837 O839 1.282 . S
O838 Cd830 2.277 . S
O838 C831 1.226 . S
O839 Cd830 2.356 . S
O839 C837 1.282 . S
C840 O841 1.306 . S
C840 O843 1.160 . S
O841 C840 1.306 . S
O841 Cd842 2.228 . S
Cd842 O841 2.228 . S
Cd842 O846 2.273 . S
Cd842 O850 2.277 . S
O843 C840 1.160 . S
O843 Cd844 2.203 . S
Cd844 O843 2.203 . S
Cd844 O846 2.411 . S
Cd844 O847 2.333 . S
Cd844 O848 2.352 . S
Cd844 O852 2.277 . S
Cd844 O853 2.356 . S
C845 O850 1.209 . S
C845 O852 1.226 . S
O846 Cd842 2.273 . S
O846 Cd844 2.411 . S
O846 C849 1.320 . S
O847 Cd844 2.333 . S
O847 C849 1.214 . S
O848 Cd844 2.352 . S
O848 C851 1.258 . S
C849 O846 1.320 . S
C849 O847 1.214 . S
O850 Cd842 2.277 . S
O850 C845 1.209 . S
C851 O848 1.258 . S
C851 O853 1.282 . S
O852 Cd844 2.277 . S
O852 C845 1.226 . S
O853 Cd844 2.356 . S
O853 C851 1.282 . S
C854 O855 1.306 . S
C854 O857 1.160 . S
O855 C854 1.306 . S
O855 Cd856 2.228 . S
Cd856 O855 2.228 . S
Cd856 O860 2.273 . S
Cd856 O864 2.277 . S
O857 C854 1.160 . S
O857 Cd858 2.203 . S
Cd858 O857 2.203 . S
Cd858 O860 2.411 . S
Cd858 O861 2.333 . S
Cd858 O862 2.352 . S
Cd858 O866 2.277 . S
Cd858 O867 2.356 . S
C859 O864 1.209 . S
C859 O866 1.226 . S
O860 Cd856 2.273 . S
O860 Cd858 2.411 . S
O860 C863 1.320 . S
O861 Cd858 2.333 . S
O861 C863 1.214 . S
O862 Cd858 2.352 . S
O862 C865 1.258 . S
C863 O860 1.320 . S
C863 O861 1.214 . S
O864 Cd856 2.277 . S
O864 C859 1.209 . S
C865 O862 1.258 . S
C865 O867 1.282 . S
O866 Cd858 2.277 . S
O866 C859 1.226 . S
O867 Cd858 2.356 . S
O867 C865 1.282 . S
C868 O869 1.306 . S
C868 O871 1.160 . S
O869 C868 1.306 . S
O869 Cd870 2.228 . S
Cd870 O869 2.228 . S
Cd870 O874 2.273 . S
Cd870 O878 2.277 . S
O871 C868 1.160 . S
O871 Cd872 2.203 . S
Cd872 O871 2.203 . S
Cd872 O874 2.411 . S
Cd872 O875 2.333 . S
Cd872 O876 2.352 . S
Cd872 O880 2.277 . S
Cd872 O881 2.356 . S
C873 O878 1.209 . S
C873 O880 1.226 . S
O874 Cd870 2.273 . S
O874 Cd872 2.411 . S
O874 C877 1.320 . S
O875 Cd872 2.333 . S
O875 C877 1.214 . S
O876 Cd872 2.352 . S
O876 C879 1.258 . S
C877 O874 1.320 . S
C877 O875 1.214 . S
O878 Cd870 2.277 . S
O878 C873 1.209 . S
C879 O876 1.258 . S
C879 O881 1.282 . S
O880 Cd872 2.277 . S
O880 C873 1.226 . S
O881 Cd872 2.356 . S
O881 C879 1.282 . S
C882 O883 1.306 . S
C882 O885 1.160 . S
O883 C882 1.306 . S
O883 Cd884 2.228 . S
Cd884 O883 2.228 . S
Cd884 O888 2.273 . S
Cd884 O892 2.277 . S
O885 C882 1.160 . S
O885 Cd886 2.203 . S
Cd886 O885 2.203 . S
Cd886 O888 2.411 . S
Cd886 O889 2.333 . S
Cd886 O890 2.352 . S
Cd886 O894 2.277 . S
Cd886 O895 2.356 . S
C887 O892 1.209 . S
C887 O894 1.226 . S
O888 Cd884 2.273 . S
O888 Cd886 2.411 . S
O888 C891 1.320 . S
O889 Cd886 2.333 . S
O889 C891 1.214 . S
O890 Cd886 2.352 . S
O890 C893 1.258 . S
C891 O888 1.320 . S
C891 O889 1.214 . S
O892 Cd884 2.277 . S
O892 C887 1.209 . S
C893 O890 1.258 . S
C893 O895 1.282 . S
O894 Cd886 2.277 . S
O894 C887 1.226 . S
O895 Cd886 2.356 . S
O895 C893 1.282 . S
C896 O897 1.306 . S
C896 O899 1.160 . S
O897 C896 1.306 . S
O897 Cd898 2.228 . S
Cd898 O897 2.228 . S
Cd898 O902 2.273 . S
Cd898 O906 2.277 . S
O899 C896 1.160 . S
O899 Cd900 2.203 . S
Cd900 O899 2.203 . S
Cd900 O902 2.411 . S
Cd900 O903 2.333 . S
Cd900 O904 2.352 . S
Cd900 O908 2.277 . S
Cd900 O909 2.356 . S
C901 O906 1.209 . S
C901 O908 1.226 . S
O902 Cd898 2.273 . S
O902 Cd900 2.411 . S
O902 C905 1.320 . S
O903 Cd900 2.333 . S
O903 C905 1.214 . S
O904 Cd900 2.352 . S
O904 C907 1.258 . S
C905 O902 1.320 . S
C905 O903 1.214 . S
O906 Cd898 2.277 . S
O906 C901 1.209 . S
C907 O904 1.258 . S
C907 O909 1.282 . S
O908 Cd900 2.277 . S
O908 C901 1.226 . S
O909 Cd900 2.356 . S
O909 C907 1.282 . S
C910 O911 1.306 . S
C910 O913 1.160 . S
O911 C910 1.306 . S
O911 Cd912 2.228 . S
Cd912 O911 2.228 . S
Cd912 O916 2.273 . S
Cd912 O920 2.277 . S
O913 C910 1.160 . S
O913 Cd914 2.203 . S
Cd914 O913 2.203 . S
Cd914 O916 2.411 . S
Cd914 O917 2.333 . S
Cd914 O918 2.352 . S
Cd914 O922 2.277 . S
Cd914 O923 2.356 . S
C915 O920 1.209 . S
C915 O922 1.226 . S
O916 Cd912 2.273 . S
O916 Cd914 2.411 . S
O916 C919 1.320 . S
O917 Cd914 2.333 . S
O917 C919 1.214 . S
O918 Cd914 2.352 . S
O918 C921 1.258 . S
C919 O916 1.320 . S
C919 O917 1.214 . S
O920 Cd912 2.277 . S
O920 C915 1.209 . S
C921 O918 1.258 . S
C921 O923 1.282 . S
O922 Cd914 2.277 . S
O922 C915 1.226 . S
O923 Cd914 2.356 . S
O923 C921 1.282 . S
C924 O925 1.306 . S
C924 O927 1.160 . S
O925 C924 1.306 . S
O925 Cd926 2.228 . S
Cd926 O925 2.228 . S
Cd926 O930 2.273 . S
Cd926 O934 2.277 . S
O927 C924 1.160 . S
O927 Cd928 2.203 . S
Cd928 O927 2.203 . S
Cd928 O930 2.411 . S
Cd928 O931 2.333 . S
Cd928 O932 2.352 . S
Cd928 O936 2.277 . S
Cd928 O937 2.356 . S
C929 O934 1.209 . S
C929 O936 1.226 . S
O930 Cd926 2.273 . S
O930 Cd928 2.411 . S
O930 C933 1.320 . S
O931 Cd928 2.333 . S
O931 C933 1.214 . S
O932 Cd928 2.352 . S
O932 C935 1.258 . S
C933 O930 1.320 . S
C933 O931 1.214 . S
O934 Cd926 2.277 . S
O934 C929 1.209 . S
C935 O932 1.258 . S
C935 O937 1.282 . S
O936 Cd928 2.277 . S
O936 C929 1.226 . S
O937 Cd928 2.356 . S
O937 C935 1.282 . S
C938 O939 1.306 . S
C938 O941 1.160 . S
O939 C938 1.306 . S
O939 Cd940 2.228 . S
Cd940 O939 2.228 . S
Cd940 O944 2.273 . S
Cd940 O948 2.277 . S
O941 C938 1.160 . S
O941 Cd942 2.203 . S
Cd942 O941 2.203 . S
Cd942 O944 2.411 . S
Cd942 O945 2.333 . S
Cd942 O946 2.352 . S
Cd942 O950 2.277 . S
Cd942 O951 2.356 . S
C943 O948 1.209 . S
C943 O950 1.226 . S
O944 Cd940 2.273 . S
O944 Cd942 2.411 . S
O944 C947 1.320 . S
O945 Cd942 2.333 . S
O945 C947 1.214 . S
O946 Cd942 2.352 . S
O946 C949 1.258 . S
C947 O944 1.320 . S
C947 O945 1.214 . S
O948 Cd940 2.277 . S
O948 C943 1.209 . S
C949 O946 1.258 . S
C949 O951 1.282 . S
O950 Cd942 2.277 . S
O950 C943 1.226 . S
O951 Cd942 2.356 . S
O951 C949 1.282 . S
C952 O953 1.306 . S
C952 O955 1.160 . S
O953 C952 1.306 . S
O953 Cd954 2.228 . S
Cd954 O953 2.228 . S
Cd954 O958 2.273 . S
Cd954 O962 2.277 . S
O955 C952 1.160 . S
O955 Cd956 2.203 . S
Cd956 O955 2.203 . S
Cd956 O958 2.411 . S
Cd956 O959 2.333 . S
Cd956 O960 2.352 . S
Cd956 O964 2.277 . S
Cd956 O965 2.356 . S
C957 O962 1.209 . S
C957 O964 1.226 . S
O958 Cd954 2.273 . S
O958 Cd956 2.411 . S
O958 C961 1.320 . S
O959 Cd956 2.333 . S
O959 C961 1.214 . S
O960 Cd956 2.352 . S
O960 C963 1.258 . S
C961 O958 1.320 . S
C961 O959 1.214 . S
O962 Cd954 2.277 . S
O962 C957 1.209 . S
C963 O960 1.258 . S
C963 O965 1.282 . S
O964 Cd956 2.277 . S
O964 C957 1.226 . S
O965 Cd956 2.356 . S
O965 C963 1.282 . S
C966 O967 1.306 . S
C966 O969 1.160 . S
O967 C966 1.306 . S
O967 Cd968 2.228 . S
Cd968 O967 2.228 . S
Cd968 O972 2.273 . S
Cd968 O976 2.277 . S
O969 C966 1.160 . S
O969 Cd970 2.203 . S
Cd970 O969 2.203 . S
Cd970 O972 2.411 . S
Cd970 O973 2.333 . S
Cd970 O974 2.352 . S
Cd970 O978 2.277 . S
Cd970 O979 2.356 . S
C971 O976 1.209 . S
C971 O978 1.226 . S
O972 Cd968 2.273 . S
O972 Cd970 2.411 . S
O972 C975 1.320 . S
O973 Cd970 2.333 . S
O973 C975 1.214 . S
O974 Cd970 2.352 . S
O974 C977 1.258 . S
C975 O972 1.320 . S
C975 O973 1.214 . S
O976 Cd968 2.277 . S
O976 C971 1.209 . S
C977 O974 1.258 . S
C977 O979 1.282 . S
O978 Cd970 2.277 . S
O978 C971 1.226 . S
O979 Cd970 2.356 . S
O979 C977 1.282 . S
C980 O981 1.306 . S
C980 O983 1.160 . S
O981 C980 1.306 . S
O981 Cd982 2.228 . S
Cd982 O981 2.228 . S
Cd982 O986 2.273 . S
Cd982 O990 2.277 . S
O983 C980 1.160 . S
O983 Cd984 2.203 . S
Cd984 O983 2.203 . S
Cd984 O986 2.411 . S
Cd984 O987 2.333 . S
Cd984 O988 2.352 . S
Cd984 O992 2.277 . S
Cd984 O993 2.356 . S
C985 O990 1.209 . S
C985 O992 1.226 . S
O986 Cd982 2.273 . S
O986 Cd984 2.411 . S
O986 C989 1.320 . S
O987 Cd984 2.333 . S
O987 C989 1.214 . S
O988 Cd984 2.352 . S
O988 C991 1.258 . S
C989 O986 1.320 . S
C989 O987 1.214 . S
O990 Cd982 2.277 . S
O990 C985 1.209 . S
C991 O988 1.258 . S
C991 O993 1.282 . S
O992 Cd984 2.277 . S
O992 C985 1.226 . S
O993 Cd984 2.356 . S
O993 C991 1.282 . S
C994 O995 1.306 . S
C994 O997 1.160 . S
O995 C994 1.306 . S
O995 Cd996 2.228 . S
Cd996 O995 2.228 . S
Cd996 O1000 2.273 . S
Cd996 O1004 2.277 . S
O997 C994 1.160 . S
O997 Cd998 2.203 . S
Cd998 O997 2.203 . S
Cd998 O1000 2.411 . S
Cd998 O1001 2.333 . S
Cd998 O1002 2.352 . S
Cd998 O1006 2.277 . S
Cd998 O1007 2.356 . S
C999 O1004 1.209 . S
C999 O1006 1.226 . S
O1000 Cd996 2.273 . S
O1000 Cd998 2.411 . S
O1000 C1003 1.320 . S
O1001 Cd998 2.333 . S
O1001 C1003 1.214 . S
O1002 Cd998 2.352 . S
O1002 C1005 1.258 . S
C1003 O1000 1.320 . S
C1003 O1001 1.214 . S
O1004 Cd996 2.277 . S
O1004 C999 1.209 . S
C1005 O1002 1.258 . S
C1005 O1007 1.282 . S
O1006 Cd998 2.277 . S
O1006 C999 1.226 . S
O1007 Cd998 2.356 . S
O1007 C1005 1.282 . S
C1008 O1009 1.306 . S
C1008 O1011 1.160 . S
O1009 C1008 1.306 . S
O1009 Cd1010 2.228 . S
Cd1010 O1009 2.228 . S
Cd1010 O1014 2.273 . S
Cd1010 O1018 2.277 . S
O1011 C1008 1.160 . S
O1011 Cd1012 2.203 . S
Cd1012 O1011 2.203 . S
Cd1012 O1014 2.411 . S
Cd1012 O1015 2.333 . S
Cd1012 O1016 2.352 . S
Cd1012 O1020 2.277 . S
Cd1012 O1021 2.356 . S
C1013 O1018 1.209 . S
C1013 O1020 1.226 . S
O1014 Cd1010 2.273 . S
O1014 Cd1012 2.411 . S
O1014 C1017 1.320 . S
O1015 Cd1012 2.333 . S
O1015 C1017 1.214 . S
O1016 Cd1012 2.352 . S
O1016 C1019 1.258 . S
C1017 O1014 1.320 . S
C1017 O1015 1.214 . S
O1018 Cd1010 2.277 . S
O1018 C1013 1.209 . S
C1019 O1016 1.258 . S
C1019 O1021 1.282 . S
O1020 Cd1012 2.277 . S
O1020 C1013 1.226 . S
O1021 Cd1012 2.356 . S
O1021 C1019 1.282 . S
C1022 O1023 1.306 . S
C1022 O1025 1.160 . S
O1023 C1022 1.306 . S
O1023 Cd1024 2.228 . S
Cd1024 O1023 2.228 . S
Cd1024 O1028 2.273 . S
Cd1024 O1032 2.277 . S
O1025 C1022 1.160 . S
O1025 Cd1026 2.203 . S
Cd1026 O1025 2.203 . S
Cd1026 O1028 2.411 . S
Cd1026 O1029 2.333 . S
Cd1026 O1030 2.352 . S
Cd1026 O1034 2.277 . S
Cd1026 O1035 2.356 . S
C1027 O1032 1.209 . S
C1027 O1034 1.226 . S
O1028 Cd1024 2.273 . S
O1028 Cd1026 2.411 . S
O1028 C1031 1.320 . S
O1029 Cd1026 2.333 . S
O1029 C1031 1.214 . S
O1030 Cd1026 2.352 . S
O1030 C1033 1.258 . S
C1031 O1028 1.320 . S
C1031 O1029 1.214 . S
O1032 Cd1024 2.277 . S
O1032 C1027 1.209 . S
C1033 O1030 1.258 . S
C1033 O1035 1.282 . S
O1034 Cd1026 2.277 . S
O1034 C1027 1.226 . S
O1035 Cd1026 2.356 . S
O1035 C1033 1.282 . S
C1036 O1037 1.306 . S
C1036 O1039 1.160 . S
O1037 C1036 1.306 . S
O1037 Cd1038 2.228 . S
Cd1038 O1037 2.228 . S
Cd1038 O1042 2.273 . S
Cd1038 O1046 2.277 . S
O1039 C1036 1.160 . S
O1039 Cd1040 2.203 . S
Cd1040 O1039 2.203 . S
Cd1040 O1042 2.411 . S
Cd1040 O1043 2.333 . S
Cd1040 O1044 2.352 . S
Cd1040 O1048 2.277 . S
Cd1040 O1049 2.356 . S
C1041 O1046 1.209 . S
C1041 O1048 1.226 . S
O1042 Cd1038 2.273 . S
O1042 Cd1040 2.411 . S
O1042 C1045 1.320 . S
O1043 Cd1040 2.333 . S
O1043 C1045 1.214 . S
O1044 Cd1040 2.352 . S
O1044 C1047 1.258 . S
C1045 O1042 1.320 . S
C1045 O1043 1.214 . S
O1046 Cd1038 2.277 . S
O1046 C1041 1.209 . S
C1047 O1044 1.258 . S
C1047 O1049 1.282 . S
O1048 Cd1040 2.277 . S
O1048 C1041 1.226 . S
O1049 Cd1040 2.356 . S
O1049 C1047 1.282 . S
C1050 O1051 1.306 . S
C1050 O1053 1.160 . S
O1051 C1050 1.306 . S
O1051 Cd1052 2.228 . S
Cd1052 O1051 2.228 . S
Cd1052 O1056 2.273 . S
Cd1052 O1060 2.277 . S
O1053 C1050 1.160 . S
O1053 Cd1054 2.203 . S
Cd1054 O1053 2.203 . S
Cd1054 O1056 2.411 . S
Cd1054 O1057 2.333 . S
Cd1054 O1058 2.352 . S
Cd1054 O1062 2.277 . S
Cd1054 O1063 2.356 . S
C1055 O1060 1.209 . S
C1055 O1062 1.226 . S
O1056 Cd1052 2.273 . S
O1056 Cd1054 2.411 . S
O1056 C1059 1.320 . S
O1057 Cd1054 2.333 . S
O1057 C1059 1.214 . S
O1058 Cd1054 2.352 . S
O1058 C1061 1.258 . S
C1059 O1056 1.320 . S
C1059 O1057 1.214 . S
O1060 Cd1052 2.277 . S
O1060 C1055 1.209 . S
C1061 O1058 1.258 . S
C1061 O1063 1.282 . S
O1062 Cd1054 2.277 . S
O1062 C1055 1.226 . S
O1063 Cd1054 2.356 . S
O1063 C1061 1.282 . S
C1064 O1065 1.306 . S
C1064 O1067 1.160 . S
O1065 C1064 1.306 . S
O1065 Cd1066 2.228 . S
Cd1066 O1065 2.228 . S
Cd1066 O1070 2.273 . S
Cd1066 O1074 2.277 . S
O1067 C1064 1.160 . S
O1067 Cd1068 2.203 . S
Cd1068 O1067 2.203 . S
Cd1068 O1070 2.411 . S
Cd1068 O1071 2.333 . S
Cd1068 O1072 2.352 . S
Cd1068 O1076 2.277 . S
Cd1068 O1077 2.356 . S
C1069 O1074 1.209 . S
C1069 O1076 1.226 . S
O1070 Cd1066 2.273 . S
O1070 Cd1068 2.411 . S
O1070 C1073 1.320 . S
O1071 Cd1068 2.333 . S
O1071 C1073 1.214 . S
O1072 Cd1068 2.352 . S
O1072 C1075 1.258 . S
C1073 O1070 1.320 . S
C1073 O1071 1.214 . S
O1074 Cd1066 2.277 . S
O1074 C1069 1.209 . S
C1075 O1072 1.258 . S
C1075 O1077 1.282 . S
O1076 Cd1068 2.277 . S
O1076 C1069 1.226 . S
O1077 Cd1068 2.356 . S
O1077 C1075 1.282 . S
C1078 O1079 1.306 . S
C1078 O1081 1.160 . S
O1079 C1078 1.306 . S
O1079 Cd1080 2.228 . S
Cd1080 O1079 2.228 . S
Cd1080 O1084 2.273 . S
Cd1080 O1088 2.277 . S
O1081 C1078 1.160 . S
O1081 Cd1082 2.203 . S
Cd1082 O1081 2.203 . S
Cd1082 O1084 2.411 . S
Cd1082 O1085 2.333 . S
Cd1082 O1086 2.352 . S
Cd1082 O1090 2.277 . S
Cd1082 O1091 2.356 . S
C1083 O1088 1.209 . S
C1083 O1090 1.226 . S
O1084 Cd1080 2.273 . S
O1084 Cd1082 2.411 . S
O1084 C1087 1.320 . S
O1085 Cd1082 2.333 . S
O1085 C1087 1.214 . S
O1086 Cd1082 2.352 . S
O1086 C1089 1.258 . S
C1087 O1084 1.320 . S
C1087 O1085 1.214 . S
O1088 Cd1080 2.277 . S
O1088 C1083 1.209 . S
C1089 O1086 1.258 . S
C1089 O1091 1.282 . S
O1090 Cd1082 2.277 . S
O1090 C1083 1.226 . S
O1091 Cd1082 2.356 . S
O1091 C1089 1.282 . S
C1092 O1093 1.306 . S
C1092 O1095 1.160 . S
O1093 C1092 1.306 . S
O1093 Cd1094 2.228 . S
Cd1094 O1093 2.228 . S
Cd1094 O1098 2.273 . S
Cd1094 O1102 2.277 . S
O1095 C1092 1.160 . S
O1095 Cd1096 2.203 . S
Cd1096 O1095 2.203 . S
Cd1096 O1098 2.411 . S
Cd1096 O1099 2.333 . S
Cd1096 O1100 2.352 . S
Cd1096 O1104 2.277 . S
Cd1096 O1105 2.356 . S
C1097 O1102 1.209 . S
C1097 O1104 1.226 . S
O1098 Cd1094 2.273 . S
O1098 Cd1096 2.411 . S
O1098 C1101 1.320 . S
O1099 Cd1096 2.333 . S
O1099 C1101 1.214 . S
O1100 Cd1096 2.352 . S
O1100 C1103 1.258 . S
C1101 O1098 1.320 . S
C1101 O1099 1.214 . S
O1102 Cd1094 2.277 . S
O1102 C1097 1.209 . S
C1103 O1100 1.258 . S
C1103 O1105 1.282 . S
O1104 Cd1096 2.277 . S
O1104 C1097 1.226 . S
O1105 Cd1096 2.356 . S
O1105 C1103 1.282 . S
C1106 O1107 1.306 . S
C1106 O1109 1.160 . S
O1107 C1106 1.306 . S
O1107 Cd1108 2.228 . S
Cd1108 O1107 2.228 . S
Cd1108 O1112 2.273 . S
Cd1108 O1116 2.277 . S
O1109 C1106 1.160 . S
O1109 Cd1110 2.203 . S
Cd1110 O1109 2.203 . S
Cd1110 O1112 2.411 . S
Cd1110 O1113 2.333 . S
Cd1110 O1114 2.352 . S
Cd1110 O1118 2.277 . S
Cd1110 O1119 2.356 . S
C1111 O1116 1.209 . S
C1111 O1118 1.226 . S
O1112 Cd1108 2.273 . S
O1112 Cd1110 2.411 . S
O1112 C1115 1.320 . S
O1113 Cd1110 2.333 . S
O1113 C1115 1.214 . S
O1114 Cd1110 2.352 . S
O1114 C1117 1.258 . S
C1115 O1112 1.320 . S
C1115 O1113 1.214 . S
O1116 Cd1108 2.277 . S
O1116 C1111 1.209 . S
C1117 O1114 1.258 . S
C1117 O1119 1.282 . S
O1118 Cd1110 2.277 . S
O1118 C1111 1.226 . S
O1119 Cd1110 2.356 . S
O1119 C1117 1.282 . S
C1120 O1121 1.306 . S
C1120 O1123 1.160 . S
O1121 C1120 1.306 . S
O1121 Cd1122 2.228 . S
Cd1122 O1121 2.228 . S
Cd1122 O1126 2.273 . S
Cd1122 O1130 2.277 . S
O1123 C1120 1.160 . S
O1123 Cd1124 2.203 . S
Cd1124 O1123 2.203 . S
Cd1124 O1126 2.411 . S
Cd1124 O1127 2.333 . S
Cd1124 O1128 2.352 . S
Cd1124 O1132 2.277 . S
Cd1124 O1133 2.356 . S
C1125 O1130 1.209 . S
C1125 O1132 1.226 . S
O1126 Cd1122 2.273 . S
O1126 Cd1124 2.411 . S
O1126 C1129 1.320 . S
O1127 Cd1124 2.333 . S
O1127 C1129 1.214 . S
O1128 Cd1124 2.352 . S
O1128 C1131 1.258 . S
C1129 O1126 1.320 . S
C1129 O1127 1.214 . S
O1130 Cd1122 2.277 . S
O1130 C1125 1.209 . S
C1131 O1128 1.258 . S
C1131 O1133 1.282 . S
O1132 Cd1124 2.277 . S
O1132 C1125 1.226 . S
O1133 Cd1124 2.356 . S
O1133 C1131 1.282 . S
C1134 O1135 1.306 . S
C1134 O1137 1.160 . S
O1135 C1134 1.306 . S
O1135 Cd1136 2.228 . S
Cd1136 O1135 2.228 . S
Cd1136 O1140 2.273 . S
Cd1136 O1144 2.277 . S
O1137 C1134 1.160 . S
O1137 Cd1138 2.203 . S
Cd1138 O1137 2.203 . S
Cd1138 O1140 2.411 . S
Cd1138 O1141 2.333 . S
Cd1138 O1142 2.352 . S
Cd1138 O1146 2.277 . S
Cd1138 O1147 2.356 . S
C1139 O1144 1.209 . S
C1139 O1146 1.226 . S
O1140 Cd1136 2.273 . S
O1140 Cd1138 2.411 . S
O1140 C1143 1.320 . S
O1141 Cd1138 2.333 . S
O1141 C1143 1.214 . S
O1142 Cd1138 2.352 . S
O1142 C1145 1.258 . S
C1143 O1140 1.320 . S
C1143 O1141 1.214 . S
O1144 Cd1136 2.277 . S
O1144 C1139 1.209 . S
C1145 O1142 1.258 . S
C1145 O1147 1.282 . S
O1146 Cd1138 2.277 . S
O1146 C1139 1.226 . S
O1147 Cd1138 2.356 . S
O1147 C1145 1.282 . S
C1148 O1149 1.306 . S
C1148 O1151 1.160 . S
O1149 C1148 1.306 . S
O1149 Cd1150 2.228 . S
Cd1150 O1149 2.228 . S
Cd1150 O1154 2.273 . S
Cd1150 O1158 2.277 . S
O1151 C1148 1.160 . S
O1151 Cd1152 2.203 . S
Cd1152 O1151 2.203 . S
Cd1152 O1154 2.411 . S
Cd1152 O1155 2.333 . S
Cd1152 O1156 2.352 . S
Cd1152 O1160 2.277 . S
Cd1152 O1161 2.356 . S
C1153 O1158 1.209 . S
C1153 O1160 1.226 . S
O1154 Cd1150 2.273 . S
O1154 Cd1152 2.411 . S
O1154 C1157 1.320 . S
O1155 Cd1152 2.333 . S
O1155 C1157 1.214 . S
O1156 Cd1152 2.352 . S
O1156 C1159 1.258 . S
C1157 O1154 1.320 . S
C1157 O1155 1.214 . S
O1158 Cd1150 2.277 . S
O1158 C1153 1.209 . S
C1159 O1156 1.258 . S
C1159 O1161 1.282 . S
O1160 Cd1152 2.277 . S
O1160 C1153 1.226 . S
O1161 Cd1152 2.356 . S
O1161 C1159 1.282 . S
C1162 O1163 1.306 . S
C1162 O1165 1.160 . S
O1163 C1162 1.306 . S
O1163 Cd1164 2.228 . S
Cd1164 O1163 2.228 . S
Cd1164 O1168 2.273 . S
Cd1164 O1172 2.277 . S
O1165 C1162 1.160 . S
O1165 Cd1166 2.203 . S
Cd1166 O1165 2.203 . S
Cd1166 O1168 2.411 . S
Cd1166 O1169 2.333 . S
Cd1166 O1170 2.352 . S
Cd1166 O1174 2.277 . S
Cd1166 O1175 2.356 . S
C1167 O1172 1.209 . S
C1167 O1174 1.226 . S
O1168 Cd1164 2.273 . S
O1168 Cd1166 2.411 . S
O1168 C1171 1.320 . S
O1169 Cd1166 2.333 . S
O1169 C1171 1.214 . S
O1170 Cd1166 2.352 . S
O1170 C1173 1.258 . S
C1171 O1168 1.320 . S
C1171 O1169 1.214 . S
O1172 Cd1164 2.277 . S
O1172 C1167 1.209 . S
C1173 O1170 1.258 . S
C1173 O1175 1.282 . S
O1174 Cd1166 2.277 . S
O1174 C1167 1.226 . S
O1175 Cd1166 2.356 . S
O1175 C1173 1.282 . S
C1176 O1177 1.306 . S
C1176 O1179 1.160 . S
O1177 C1176 1.306 . S
O1177 Cd1178 2.228 . S
Cd1178 O1177 2.228 . S
Cd1178 O1182 2.273 . S
Cd1178 O1186 2.277 . S
O1179 C1176 1.160 . S
O1179 Cd1180 2.203 . S
Cd1180 O1179 2.203 . S
Cd1180 O1182 2.411 . S
Cd1180 O1183 2.333 . S
Cd1180 O1184 2.352 . S
Cd1180 O1188 2.277 . S
Cd1180 O1189 2.356 . S
C1181 O1186 1.209 . S
C1181 O1188 1.226 . S
O1182 Cd1178 2.273 . S
O1182 Cd1180 2.411 . S
O1182 C1185 1.320 . S
O1183 Cd1180 2.333 . S
O1183 C1185 1.214 . S
O1184 Cd1180 2.352 . S
O1184 C1187 1.258 . S
C1185 O1182 1.320 . S
C1185 O1183 1.214 . S
O1186 Cd1178 2.277 . S
O1186 C1181 1.209 . S
C1187 O1184 1.258 . S
C1187 O1189 1.282 . S
O1188 Cd1180 2.277 . S
O1188 C1181 1.226 . S
O1189 Cd1180 2.356 . S
O1189 C1187 1.282 . S
C1190 O1191 1.306 . S
C1190 O1193 1.160 . S
O1191 C1190 1.306 . S
O1191 Cd1192 2.228 . S
Cd1192 O1191 2.228 . S
Cd1192 O1196 2.273 . S
Cd1192 O1200 2.277 . S
O1193 C1190 1.160 . S
O1193 Cd1194 2.203 . S
Cd1194 O1193 2.203 . S
Cd1194 O1196 2.411 . S
Cd1194 O1197 2.333 . S
Cd1194 O1198 2.352 . S
Cd1194 O1202 2.277 . S
Cd1194 O1203 2.356 . S
C1195 O1200 1.209 . S
C1195 O1202 1.226 . S
O1196 Cd1192 2.273 . S
O1196 Cd1194 2.411 . S
O1196 C1199 1.320 . S
O1197 Cd1194 2.333 . S
O1197 C1199 1.214 . S
O1198 Cd1194 2.352 . S
O1198 C1201 1.258 . S
C1199 O1196 1.320 . S
C1199 O1197 1.214 . S
O1200 Cd1192 2.277 . S
O1200 C1195 1.209 . S
C1201 O1198 1.258 . S
C1201 O1203 1.282 . S
O1202 Cd1194 2.277 . S
O1202 C1195 1.226 . S
O1203 Cd1194 2.356 . S
O1203 C1201 1.282 . S
C1204 O1205 1.306 . S
C1204 O1207 1.160 . S
O1205 C1204 1.306 . S
O1205 Cd1206 2.228 . S
Cd1206 O1205 2.228 . S
Cd1206 O1210 2.273 . S
Cd1206 O1214 2.277 . S
O1207 C1204 1.160 . S
O1207 Cd1208 2.203 . S
Cd1208 O1207 2.203 . S
Cd1208 O1210 2.411 . S
Cd1208 O1211 2.333 . S
Cd1208 O1212 2.352 . S
Cd1208 O1216 2.277 . S
Cd1208 O1217 2.356 . S
C1209 O1214 1.209 . S
C1209 O1216 1.226 . S
O1210 Cd1206 2.273 . S
O1210 Cd1208 2.411 . S
O1210 C1213 1.320 . S
O1211 Cd1208 2.333 . S
O1211 C1213 1.214 . S
O1212 Cd1208 2.352 . S
O1212 C1215 1.258 . S
C1213 O1210 1.320 . S
C1213 O1211 1.214 . S
O1214 Cd1206 2.277 . S
O1214 C1209 1.209 . S
C1215 O1212 1.258 . S
C1215 O1217 1.282 . S
O1216 Cd1208 2.277 . S
O1216 C1209 1.226 . S
O1217 Cd1208 2.356 . S
O1217 C1215 1.282 . S
C1218 O1219 1.306 . S
C1218 O1221 1.160 . S
O1219 C1218 1.306 . S
O1219 Cd1220 2.228 . S
Cd1220 O1219 2.228 . S
Cd1220 O1224 2.273 . S
Cd1220 O1228 2.277 . S
O1221 C1218 1.160 . S
O1221 Cd1222 2.203 . S
Cd1222 O1221 2.203 . S
Cd1222 O1224 2.411 . S
Cd1222 O1225 2.333 . S
Cd1222 O1226 2.352 . S
Cd1222 O1230 2.277 . S
Cd1222 O1231 2.356 . S
C1223 O1228 1.209 . S
C1223 O1230 1.226 . S
O1224 Cd1220 2.273 . S
O1224 Cd1222 2.411 . S
O1224 C1227 1.320 . S
O1225 Cd1222 2.333 . S
O1225 C1227 1.214 . S
O1226 Cd1222 2.352 . S
O1226 C1229 1.258 . S
C1227 O1224 1.320 . S
C1227 O1225 1.214 . S
O1228 Cd1220 2.277 . S
O1228 C1223 1.209 . S
C1229 O1226 1.258 . S
C1229 O1231 1.282 . S
O1230 Cd1222 2.277 . S
O1230 C1223 1.226 . S
O1231 Cd1222 2.356 . S
O1231 C1229 1.282 . S
C1232 O1233 1.306 . S
C1232 O1235 1.160 . S
O1233 C1232 1.306 . S
O1233 Cd1234 2.228 . S
Cd1234 O1233 2.228 . S
Cd1234 O1238 2.273 . S
Cd1234 O1242 2.277 . S
O1235 C1232 1.160 . S
O1235 Cd1236 2.203 . S
Cd1236 O1235 2.203 . S
Cd1236 O1238 2.411 . S
Cd1236 O1239 2.333 . S
Cd1236 O1240 2.352 . S
Cd1236 O1244 2.277 . S
Cd1236 O1245 2.356 . S
C1237 O1242 1.209 . S
C1237 O1244 1.226 . S
O1238 Cd1234 2.273 . S
O1238 Cd1236 2.411 . S
O1238 C1241 1.320 . S
O1239 Cd1236 2.333 . S
O1239 C1241 1.214 . S
O1240 Cd1236 2.352 . S
O1240 C1243 1.258 . S
C1241 O1238 1.320 . S
C1241 O1239 1.214 . S
O1242 Cd1234 2.277 . S
O1242 C1237 1.209 . S
C1243 O1240 1.258 . S
C1243 O1245 1.282 . S
O1244 Cd1236 2.277 . S
O1244 C1237 1.226 . S
O1245 Cd1236 2.356 . S
O1245 C1243 1.282 . S
C1246 O1247 1.306 . S
C1246 O1249 1.160 . S
O1247 C1246 1.306 . S
O1247 Cd1248 2.228 . S
Cd1248 O1247 2.228 . S
Cd1248 O1252 2.273 . S
Cd1248 O1256 2.277 . S
O1249 C1246 1.160 . S
O1249 Cd1250 2.203 . S
Cd1250 O1249 2.203 . S
Cd1250 O1252 2.411 . S
Cd1250 O1253 2.333 . S
Cd1250 O1254 2.352 . S
Cd1250 O1258 2.277 . S
Cd1250 O1259 2.356 . S
C1251 O1256 1.209 . S
C1251 O1258 1.226 . S
O1252 Cd1248 2.273 . S
O1252 Cd1250 2.411 . S
O1252 C1255 1.320 . S
O1253 Cd1250 2.333 . S
O1253 C1255 1.214 . S
O1254 Cd1250 2.352 . S
O1254 C1257 1.258 . S
C1255 O1252 1.320 . S
C1255 O1253 1.214 . S
O1256 Cd1248 2.277 . S
O1256 C1251 1.209 . S
C1257 O1254 1.258 . S
C1257 O1259 1.282 . S
O1258 Cd1250 2.277 . S
O1258 C1251 1.226 . S
O1259 Cd1250 2.356 . S
O1259 C1257 1.282 . S
C1260 O1261 1.306 . S
C1260 O1263 1.160 . S
O1261 C1260 1.306 . S
O1261 Cd1262 2.228 . S
Cd1262 O1261 2.228 . S
Cd1262 O1266 2.273 . S
Cd1262 O1270 2.277 . S
O1263 C1260 1.160 . S
O1263 Cd1264 2.203 . S
Cd1264 O1263 2.203 . S
Cd1264 O1266 2.411 . S
Cd1264 O1267 2.333 . S
Cd1264 O1268 2.352 . S
Cd1264 O1272 2.277 . S
Cd1264 O1273 2.356 . S
C1265 O1270 1.209 . S
C1265 O1272 1.226 . S
O1266 Cd1262 2.273 . S
O1266 Cd1264 2.411 . S
O1266 C1269 1.320 . S
O1267 Cd1264 2.333 . S
O1267 C1269 1.214 . S
O1268 Cd1264 2.352 . S
O1268 C1271 1.258 . S
C1269 O1266 1.320 . S
C1269 O1267 1.214 . S
O1270 Cd1262 2.277 . S
O1270 C1265 1.209 . S
C1271 O1268 1.258 . S
C1271 O1273 1.282 . S
O1272 Cd1264 2.277 . S
O1272 C1265 1.226 . S
O1273 Cd1264 2.356 . S
O1273 C1271 1.282 . S
C1274 O1275 1.306 . S
C1274 O1277 1.160 . S
O1275 C1274 1.306 . S
O1275 Cd1276 2.228 . S
Cd1276 O1275 2.228 . S
Cd1276 O1280 2.273 . S
Cd1276 O1284 2.277 . S
O1277 C1274 1.160 . S
O1277 Cd1278 2.203 . S
Cd1278 O1277 2.203 . S
Cd1278 O1280 2.411 . S
Cd1278 O1281 2.333 . S
Cd1278 O1282 2.352 . S
Cd1278 O1286 2.277 . S
Cd1278 O1287 2.356 . S
C1279 O1284 1.209 . S
C1279 O1286 1.226 . S
O1280 Cd1276 2.273 . S
O1280 Cd1278 2.411 . S
O1280 C1283 1.320 . S
O1281 Cd1278 2.333 . S
O1281 C1283 1.214 . S
O1282 Cd1278 2.352 . S
O1282 C1285 1.258 . S
C1283 O1280 1.320 . S
C1283 O1281 1.214 . S
O1284 Cd1276 2.277 . S
O1284 C1279 1.209 . S
C1285 O1282 1.258 . S
C1285 O1287 1.282 . S
O1286 Cd1278 2.277 . S
O1286 C1279 1.226 . S
O1287 Cd1278 2.356 . S
O1287 C1285 1.282 . S
C1288 O1289 1.306 . S
C1288 O1291 1.160 . S
O1289 C1288 1.306 . S
O1289 Cd1290 2.228 . S
Cd1290 O1289 2.228 . S
Cd1290 O1294 2.273 . S
Cd1290 O1298 2.277 . S
O1291 C1288 1.160 . S
O1291 Cd1292 2.203 . S
Cd1292 O1291 2.203 . S
Cd1292 O1294 2.411 . S
Cd1292 O1295 2.333 . S
Cd1292 O1296 2.352 . S
Cd1292 O1300 2.277 . S
Cd1292 O1301 2.356 . S
C1293 O1298 1.209 . S
C1293 O1300 1.226 . S
O1294 Cd1290 2.273 . S
O1294 Cd1292 2.411 . S
O1294 C1297 1.320 . S
O1295 Cd1292 2.333 . S
O1295 C1297 1.214 . S
O1296 Cd1292 2.352 . S
O1296 C1299 1.258 . S
C1297 O1294 1.320 . S
C1297 O1295 1.214 . S
O1298 Cd1290 2.277 . S
O1298 C1293 1.209 . S
C1299 O1296 1.258 . S
C1299 O1301 1.282 . S
O1300 Cd1292 2.277 . S
O1300 C1293 1.226 . S
O1301 Cd1292 2.356 . S
O1301 C1299 1.282 . S
C1302 O1303 1.306 . S
C1302 O1305 1.160 . S
O1303 C1302 1.306 . S
O1303 Cd1304 2.228 . S
Cd1304 O1303 2.228 . S
Cd1304 O1308 2.273 . S
Cd1304 O1312 2.277 . S
O1305 C1302 1.160 . S
O1305 Cd1306 2.203 . S
Cd1306 O1305 2.203 . S
Cd1306 O1308 2.411 . S
Cd1306 O1309 2.333 . S
Cd1306 O1310 2.352 . S
Cd1306 O1314 2.277 . S
Cd1306 O1315 2.356 . S
C1307 O1312 1.209 . S
C1307 O1314 1.226 . S
O1308 Cd1304 2.273 . S
O1308 Cd1306 2.411 . S
O1308 C1311 1.320 . S
O1309 Cd1306 2.333 . S
O1309 C1311 1.214 . S
O1310 Cd1306 2.352 . S
O1310 C1313 1.258 . S
C1311 O1308 1.320 . S
C1311 O1309 1.214 . S
O1312 Cd1304 2.277 . S
O1312 C1307 1.209 . S
C1313 O1310 1.258 . S
C1313 O1315 1.282 . S
O1314 Cd1306 2.277 . S
O1314 C1307 1.226 . S
O1315 Cd1306 2.356 . S
O1315 C1313 1.282 . S
C1316 O1317 1.306 . S
C1316 O1319 1.160 . S
O1317 C1316 1.306 . S
O1317 Cd1318 2.228 . S
Cd1318 O1317 2.228 . S
Cd1318 O1322 2.273 . S
Cd1318 O1326 2.277 . S
O1319 C1316 1.160 . S
O1319 Cd1320 2.203 . S
Cd1320 O1319 2.203 . S
Cd1320 O1322 2.411 . S
Cd1320 O1323 2.333 . S
Cd1320 O1324 2.352 . S
Cd1320 O1328 2.277 . S
Cd1320 O1329 2.356 . S
C1321 O1326 1.209 . S
C1321 O1328 1.226 . S
O1322 Cd1318 2.273 . S
O1322 Cd1320 2.411 . S
O1322 C1325 1.320 . S
O1323 Cd1320 2.333 . S
O1323 C1325 1.214 . S
O1324 Cd1320 2.352 . S
O1324 C1327 1.258 . S
C1325 O1322 1.320 . S
C1325 O1323 1.214 . S
O1326 Cd1318 2.277 . S
O1326 C1321 1.209 . S
C1327 O1324 1.258 . S
C1327 O1329 1.282 . S
O1328 Cd1320 2.277 . S
O1328 C1321 1.226 . S
O1329 Cd1320 2.356 . S
O1329 C1327 1.282 . S
C1330 O1331 1.306 . S
C1330 O1333 1.160 . S
O1331 C1330 1.306 . S
O1331 Cd1332 2.228 . S
Cd1332 O1331 2.228 . S
Cd1332 O1336 2.273 . S
Cd1332 O1340 2.277 . S
O1333 C1330 1.160 . S
O1333 Cd1334 2.203 . S
Cd1334 O1333 2.203 . S
Cd1334 O1336 2.411 . S
Cd1334 O1337 2.333 . S
Cd1334 O1338 2.352 . S
Cd1334 O1342 2.277 . S
Cd1334 O1343 2.356 . S
C1335 O1340 1.209 . S
C1335 O1342 1.226 . S
O1336 Cd1332 2.273 . S
O1336 Cd1334 2.411 . S
O1336 C1339 1.320 . S
O1337 Cd1334 2.333 . S
O1337 C1339 1.214 . S
O1338 Cd1334 2.352 . S
O1338 C1341 1.258 . S
C1339 O1336 1.320 . S
C1339 O1337 1.214 . S
O1340 Cd1332 2.277 . S
O1340 C1335 1.209 . S
C1341 O1338 1.258 . S
C1341 O1343 1.282 . S
O1342 Cd1334 2.277 . S
O1342 C1335 1.226 . S
O1343 Cd1334 2.356 . S
O1343 C1341 1.282 . S
H1344 C1352 0.950 . S
H1345 C1357 0.950 . S
H1346 C1354 0.950 . S
H1347 C1356 0.950 . S
H1348 C1358 0.950 . S
H1349 C1360 0.950 . S
H1350 C1362 0.950 . S
H1351 C1363 0.950 . S
C1352 H1344 0.950 . S
C1352 C1353 1.386 . S
C1352 C1354 1.391 . S
C1353 C1352 1.386 . S
C1353 C1357 1.393 . S
C1354 H1346 0.950 . S
C1354 C1352 1.391 . S
C1354 C1355 1.400 . S
C1355 C1354 1.400 . S
C1355 C1356 1.398 . S
C1355 C1361 1.491 . S
C1356 H1347 0.950 . S
C1356 C1355 1.398 . S
C1356 C1357 1.391 . S
C1357 H1345 0.950 . S
C1357 C1353 1.393 . S
C1357 C1356 1.391 . S
C1358 H1348 0.950 . S
C1358 C1359 1.386 . S
C1358 C1360 1.391 . S
C1359 C1358 1.386 . S
C1359 C1363 1.393 . S
C1360 H1349 0.950 . S
C1360 C1358 1.391 . S
C1360 C1361 1.400 . S
C1361 C1355 1.491 . S
C1361 C1360 1.400 . S
C1361 C1362 1.398 . S
C1362 H1350 0.950 . S
C1362 C1361 1.398 . S
C1362 C1363 1.391 . S
C1363 H1351 0.950 . S
C1363 C1359 1.393 . S
C1363 C1362 1.391 . S
H1364 C1372 0.950 . S
H1365 C1377 0.950 . S
H1366 C1374 0.950 . S
H1367 C1376 0.950 . S
H1368 C1378 0.950 . S
H1369 C1380 0.950 . S
H1370 C1382 0.950 . S
H1371 C1383 0.950 . S
C1372 H1364 0.950 . S
C1372 C1373 1.386 . S
C1372 C1374 1.391 . S
C1373 C1372 1.386 . S
C1373 C1377 1.393 . S
C1374 H1366 0.950 . S
C1374 C1372 1.391 . S
C1374 C1375 1.400 . S
C1375 C1374 1.400 . S
C1375 C1376 1.398 . S
C1375 C1381 1.491 . S
C1376 H1367 0.950 . S
C1376 C1375 1.398 . S
C1376 C1377 1.391 . S
C1377 H1365 0.950 . S
C1377 C1373 1.393 . S
C1377 C1376 1.391 . S
C1378 H1368 0.950 . S
C1378 C1379 1.386 . S
C1378 C1380 1.391 . S
C1379 C1378 1.386 . S
C1379 C1383 1.393 . S
C1380 H1369 0.950 . S
C1380 C1378 1.391 . S
C1380 C1381 1.400 . S
C1381 C1375 1.491 . S
C1381 C1380 1.400 . S
C1381 C1382 1.398 . S
C1382 H1370 0.950 . S
C1382 C1381 1.398 . S
C1382 C1383 1.391 . S
C1383 H1371 0.950 . S
C1383 C1379 1.393 . S
C1383 C1382 1.391 . S
H1384 C1392 0.950 . S
H1385 C1397 0.950 . S
H1386 C1394 0.950 . S
H1387 C1396 0.950 . S
H1388 C1398 0.950 . S
H1389 C1400 0.950 . S
H1390 C1402 0.950 . S
H1391 C1403 0.950 . S
C1392 H1384 0.950 . S
C1392 C1393 1.386 . S
C1392 C1394 1.391 . S
C1393 C1392 1.386 . S
C1393 C1397 1.393 . S
C1394 H1386 0.950 . S
C1394 C1392 1.391 . S
C1394 C1395 1.400 . S
C1395 C1394 1.400 . S
C1395 C1396 1.398 . S
C1395 C1401 1.491 . S
C1396 H1387 0.950 . S
C1396 C1395 1.398 . S
C1396 C1397 1.391 . S
C1397 H1385 0.950 . S
C1397 C1393 1.393 . S
C1397 C1396 1.391 . S
C1398 H1388 0.950 . S
C1398 C1399 1.386 . S
C1398 C1400 1.391 . S
C1399 C1398 1.386 . S
C1399 C1403 1.393 . S
C1400 H1389 0.950 . S
C1400 C1398 1.391 . S
C1400 C1401 1.400 . S
C1401 C1395 1.491 . S
C1401 C1400 1.400 . S
C1401 C1402 1.398 . S
C1402 H1390 0.950 . S
C1402 C1401 1.398 . S
C1402 C1403 1.391 . S
C1403 H1391 0.950 . S
C1403 C1399 1.393 . S
C1403 C1402 1.391 . S
H1404 C1412 0.950 . S
H1405 C1417 0.950 . S
H1406 C1414 0.950 . S
H1407 C1416 0.950 . S
H1408 C1418 0.950 . S
H1409 C1420 0.950 . S
H1410 C1422 0.950 . S
H1411 C1423 0.950 . S
C1412 H1404 0.950 . S
C1412 C1413 1.386 . S
C1412 C1414 1.391 . S
C1413 C1412 1.386 . S
C1413 C1417 1.393 . S
C1414 H1406 0.950 . S
C1414 C1412 1.391 . S
C1414 C1415 1.400 . S
C1415 C1414 1.400 . S
C1415 C1416 1.398 . S
C1415 C1421 1.491 . S
C1416 H1407 0.950 . S
C1416 C1415 1.398 . S
C1416 C1417 1.391 . S
C1417 H1405 0.950 . S
C1417 C1413 1.393 . S
C1417 C1416 1.391 . S
C1418 H1408 0.950 . S
C1418 C1419 1.386 . S
C1418 C1420 1.391 . S
C1419 C1418 1.386 . S
C1419 C1423 1.393 . S
C1420 H1409 0.950 . S
C1420 C1418 1.391 . S
C1420 C1421 1.400 . S
C1421 C1415 1.491 . S
C1421 C1420 1.400 . S
C1421 C1422 1.398 . S
C1422 H1410 0.950 . S
C1422 C1421 1.398 . S
C1422 C1423 1.391 . S
C1423 H1411 0.950 . S
C1423 C1419 1.393 . S
C1423 C1422 1.391 . S
H1424 C1432 0.950 . S
H1425 C1437 0.950 . S
H1426 C1434 0.950 . S
H1427 C1436 0.950 . S
H1428 C1438 0.950 . S
H1429 C1440 0.950 . S
H1430 C1442 0.950 . S
H1431 C1443 0.950 . S
C1432 H1424 0.950 . S
C1432 C1433 1.386 . S
C1432 C1434 1.391 . S
C1433 C1432 1.386 . S
C1433 C1437 1.393 . S
C1434 H1426 0.950 . S
C1434 C1432 1.391 . S
C1434 C1435 1.400 . S
C1435 C1434 1.400 . S
C1435 C1436 1.398 . S
C1435 C1441 1.491 . S
C1436 H1427 0.950 . S
C1436 C1435 1.398 . S
C1436 C1437 1.391 . S
C1437 H1425 0.950 . S
C1437 C1433 1.393 . S
C1437 C1436 1.391 . S
C1438 H1428 0.950 . S
C1438 C1439 1.386 . S
C1438 C1440 1.391 . S
C1439 C1438 1.386 . S
C1439 C1443 1.393 . S
C1440 H1429 0.950 . S
C1440 C1438 1.391 . S
C1440 C1441 1.400 . S
C1441 C1435 1.491 . S
C1441 C1440 1.400 . S
C1441 C1442 1.398 . S
C1442 H1430 0.950 . S
C1442 C1441 1.398 . S
C1442 C1443 1.391 . S
C1443 H1431 0.950 . S
C1443 C1439 1.393 . S
C1443 C1442 1.391 . S
H1444 C1452 0.950 . S
H1445 C1457 0.950 . S
H1446 C1454 0.950 . S
H1447 C1456 0.950 . S
H1448 C1458 0.950 . S
H1449 C1460 0.950 . S
H1450 C1462 0.950 . S
H1451 C1463 0.950 . S
C1452 H1444 0.950 . S
C1452 C1453 1.386 . S
C1452 C1454 1.391 . S
C1453 C1452 1.386 . S
C1453 C1457 1.393 . S
C1454 H1446 0.950 . S
C1454 C1452 1.391 . S
C1454 C1455 1.400 . S
C1455 C1454 1.400 . S
C1455 C1456 1.398 . S
C1455 C1461 1.491 . S
C1456 H1447 0.950 . S
C1456 C1455 1.398 . S
C1456 C1457 1.391 . S
C1457 H1445 0.950 . S
C1457 C1453 1.393 . S
C1457 C1456 1.391 . S
C1458 H1448 0.950 . S
C1458 C1459 1.386 . S
C1458 C1460 1.391 . S
C1459 C1458 1.386 . S
C1459 C1463 1.393 . S
C1460 H1449 0.950 . S
C1460 C1458 1.391 . S
C1460 C1461 1.400 . S
C1461 C1455 1.491 . S
C1461 C1460 1.400 . S
C1461 C1462 1.398 . S
C1462 H1450 0.950 . S
C1462 C1461 1.398 . S
C1462 C1463 1.391 . S
C1463 H1451 0.950 . S
C1463 C1459 1.393 . S
C1463 C1462 1.391 . S
H1464 C1472 0.950 . S
H1465 C1477 0.950 . S
H1466 C1474 0.950 . S
H1467 C1476 0.950 . S
H1468 C1478 0.950 . S
H1469 C1480 0.950 . S
H1470 C1482 0.950 . S
H1471 C1483 0.950 . S
C1472 H1464 0.950 . S
C1472 C1473 1.386 . S
C1472 C1474 1.391 . S
C1473 C1472 1.386 . S
C1473 C1477 1.393 . S
C1474 H1466 0.950 . S
C1474 C1472 1.391 . S
C1474 C1475 1.400 . S
C1475 C1474 1.400 . S
C1475 C1476 1.398 . S
C1475 C1481 1.491 . S
C1476 H1467 0.950 . S
C1476 C1475 1.398 . S
C1476 C1477 1.391 . S
C1477 H1465 0.950 . S
C1477 C1473 1.393 . S
C1477 C1476 1.391 . S
C1478 H1468 0.950 . S
C1478 C1479 1.386 . S
C1478 C1480 1.391 . S
C1479 C1478 1.386 . S
C1479 C1483 1.393 . S
C1480 H1469 0.950 . S
C1480 C1478 1.391 . S
C1480 C1481 1.400 . S
C1481 C1475 1.491 . S
C1481 C1480 1.400 . S
C1481 C1482 1.398 . S
C1482 H1470 0.950 . S
C1482 C1481 1.398 . S
C1482 C1483 1.391 . S
C1483 H1471 0.950 . S
C1483 C1479 1.393 . S
C1483 C1482 1.391 . S
H1484 C1492 0.950 . S
H1485 C1497 0.950 . S
H1486 C1494 0.950 . S
H1487 C1496 0.950 . S
H1488 C1498 0.950 . S
H1489 C1500 0.950 . S
H1490 C1502 0.950 . S
H1491 C1503 0.950 . S
C1492 H1484 0.950 . S
C1492 C1493 1.386 . S
C1492 C1494 1.391 . S
C1493 C1492 1.386 . S
C1493 C1497 1.393 . S
C1494 H1486 0.950 . S
C1494 C1492 1.391 . S
C1494 C1495 1.400 . S
C1495 C1494 1.400 . S
C1495 C1496 1.398 . S
C1495 C1501 1.491 . S
C1496 H1487 0.950 . S
C1496 C1495 1.398 . S
C1496 C1497 1.391 . S
C1497 H1485 0.950 . S
C1497 C1493 1.393 . S
C1497 C1496 1.391 . S
C1498 H1488 0.950 . S
C1498 C1499 1.386 . S
C1498 C1500 1.391 . S
C1499 C1498 1.386 . S
C1499 C1503 1.393 . S
C1500 H1489 0.950 . S
C1500 C1498 1.391 . S
C1500 C1501 1.400 . S
C1501 C1495 1.491 . S
C1501 C1500 1.400 . S
C1501 C1502 1.398 . S
C1502 H1490 0.950 . S
C1502 C1501 1.398 . S
C1502 C1503 1.391 . S
C1503 H1491 0.950 . S
C1503 C1499 1.393 . S
C1503 C1502 1.391 . S
H1504 C1512 0.950 . S
H1505 C1517 0.950 . S
H1506 C1514 0.950 . S
H1507 C1516 0.950 . S
H1508 C1518 0.950 . S
H1509 C1520 0.950 . S
H1510 C1522 0.950 . S
H1511 C1523 0.950 . S
C1512 H1504 0.950 . S
C1512 C1513 1.386 . S
C1512 C1514 1.391 . S
C1513 C1512 1.386 . S
C1513 C1517 1.393 . S
C1514 H1506 0.950 . S
C1514 C1512 1.391 . S
C1514 C1515 1.400 . S
C1515 C1514 1.400 . S
C1515 C1516 1.398 . S
C1515 C1521 1.491 . S
C1516 H1507 0.950 . S
C1516 C1515 1.398 . S
C1516 C1517 1.391 . S
C1517 H1505 0.950 . S
C1517 C1513 1.393 . S
C1517 C1516 1.391 . S
C1518 H1508 0.950 . S
C1518 C1519 1.386 . S
C1518 C1520 1.391 . S
C1519 C1518 1.386 . S
C1519 C1523 1.393 . S
C1520 H1509 0.950 . S
C1520 C1518 1.391 . S
C1520 C1521 1.400 . S
C1521 C1515 1.491 . S
C1521 C1520 1.400 . S
C1521 C1522 1.398 . S
C1522 H1510 0.950 . S
C1522 C1521 1.398 . S
C1522 C1523 1.391 . S
C1523 H1511 0.950 . S
C1523 C1519 1.393 . S
C1523 C1522 1.391 . S
H1524 C1532 0.950 . S
H1525 C1537 0.950 . S
H1526 C1534 0.950 . S
H1527 C1536 0.950 . S
H1528 C1538 0.950 . S
H1529 C1540 0.950 . S
H1530 C1542 0.950 . S
H1531 C1543 0.950 . S
C1532 H1524 0.950 . S
C1532 C1533 1.386 . S
C1532 C1534 1.391 . S
C1533 C1532 1.386 . S
C1533 C1537 1.393 . S
C1534 H1526 0.950 . S
C1534 C1532 1.391 . S
C1534 C1535 1.400 . S
C1535 C1534 1.400 . S
C1535 C1536 1.398 . S
C1535 C1541 1.491 . S
C1536 H1527 0.950 . S
C1536 C1535 1.398 . S
C1536 C1537 1.391 . S
C1537 H1525 0.950 . S
C1537 C1533 1.393 . S
C1537 C1536 1.391 . S
C1538 H1528 0.950 . S
C1538 C1539 1.386 . S
C1538 C1540 1.391 . S
C1539 C1538 1.386 . S
C1539 C1543 1.393 . S
C1540 H1529 0.950 . S
C1540 C1538 1.391 . S
C1540 C1541 1.400 . S
C1541 C1535 1.491 . S
C1541 C1540 1.400 . S
C1541 C1542 1.398 . S
C1542 H1530 0.950 . S
C1542 C1541 1.398 . S
C1542 C1543 1.391 . S
C1543 H1531 0.950 . S
C1543 C1539 1.393 . S
C1543 C1542 1.391 . S
H1544 C1552 0.950 . S
H1545 C1557 0.950 . S
H1546 C1554 0.950 . S
H1547 C1556 0.950 . S
H1548 C1558 0.950 . S
H1549 C1560 0.950 . S
H1550 C1562 0.950 . S
H1551 C1563 0.950 . S
C1552 H1544 0.950 . S
C1552 C1553 1.386 . S
C1552 C1554 1.391 . S
C1553 C1552 1.386 . S
C1553 C1557 1.393 . S
C1554 H1546 0.950 . S
C1554 C1552 1.391 . S
C1554 C1555 1.400 . S
C1555 C1554 1.400 . S
C1555 C1556 1.398 . S
C1555 C1561 1.491 . S
C1556 H1547 0.950 . S
C1556 C1555 1.398 . S
C1556 C1557 1.391 . S
C1557 H1545 0.950 . S
C1557 C1553 1.393 . S
C1557 C1556 1.391 . S
C1558 H1548 0.950 . S
C1558 C1559 1.386 . S
C1558 C1560 1.391 . S
C1559 C1558 1.386 . S
C1559 C1563 1.393 . S
C1560 H1549 0.950 . S
C1560 C1558 1.391 . S
C1560 C1561 1.400 . S
C1561 C1555 1.491 . S
C1561 C1560 1.400 . S
C1561 C1562 1.398 . S
C1562 H1550 0.950 . S
C1562 C1561 1.398 . S
C1562 C1563 1.391 . S
C1563 H1551 0.950 . S
C1563 C1559 1.393 . S
C1563 C1562 1.391 . S
H1564 C1572 0.950 . S
H1565 C1577 0.950 . S
H1566 C1574 0.950 . S
H1567 C1576 0.950 . S
H1568 C1578 0.950 . S
H1569 C1580 0.950 . S
H1570 C1582 0.950 . S
H1571 C1583 0.950 . S
C1572 H1564 0.950 . S
C1572 C1573 1.386 . S
C1572 C1574 1.391 . S
C1573 C1572 1.386 . S
C1573 C1577 1.393 . S
C1574 H1566 0.950 . S
C1574 C1572 1.391 . S
C1574 C1575 1.400 . S
C1575 C1574 1.400 . S
C1575 C1576 1.398 . S
C1575 C1581 1.491 . S
C1576 H1567 0.950 . S
C1576 C1575 1.398 . S
C1576 C1577 1.391 . S
C1577 H1565 0.950 . S
C1577 C1573 1.393 . S
C1577 C1576 1.391 . S
C1578 H1568 0.950 . S
C1578 C1579 1.386 . S
C1578 C1580 1.391 . S
C1579 C1578 1.386 . S
C1579 C1583 1.393 . S
C1580 H1569 0.950 . S
C1580 C1578 1.391 . S
C1580 C1581 1.400 . S
C1581 C1575 1.491 . S
C1581 C1580 1.400 . S
C1581 C1582 1.398 . S
C1582 H1570 0.950 . S
C1582 C1581 1.398 . S
C1582 C1583 1.391 . S
C1583 H1571 0.950 . S
C1583 C1579 1.393 . S
C1583 C1582 1.391 . S
H1584 C1592 0.950 . S
H1585 C1597 0.950 . S
H1586 C1594 0.950 . S
H1587 C1596 0.950 . S
H1588 C1598 0.950 . S
H1589 C1600 0.950 . S
H1590 C1602 0.950 . S
H1591 C1603 0.950 . S
C1592 H1584 0.950 . S
C1592 C1593 1.386 . S
C1592 C1594 1.391 . S
C1593 C1592 1.386 . S
C1593 C1597 1.393 . S
C1594 H1586 0.950 . S
C1594 C1592 1.391 . S
C1594 C1595 1.400 . S
C1595 C1594 1.400 . S
C1595 C1596 1.398 . S
C1595 C1601 1.491 . S
C1596 H1587 0.950 . S
C1596 C1595 1.398 . S
C1596 C1597 1.391 . S
C1597 H1585 0.950 . S
C1597 C1593 1.393 . S
C1597 C1596 1.391 . S
C1598 H1588 0.950 . S
C1598 C1599 1.386 . S
C1598 C1600 1.391 . S
C1599 C1598 1.386 . S
C1599 C1603 1.393 . S
C1600 H1589 0.950 . S
C1600 C1598 1.391 . S
C1600 C1601 1.400 . S
C1601 C1595 1.491 . S
C1601 C1600 1.400 . S
C1601 C1602 1.398 . S
C1602 H1590 0.950 . S
C1602 C1601 1.398 . S
C1602 C1603 1.391 . S
C1603 H1591 0.950 . S
C1603 C1599 1.393 . S
C1603 C1602 1.391 . S
H1604 C1612 0.950 . S
H1605 C1617 0.950 . S
H1606 C1614 0.950 . S
H1607 C1616 0.950 . S
H1608 C1618 0.950 . S
H1609 C1620 0.950 . S
H1610 C1622 0.950 . S
H1611 C1623 0.950 . S
C1612 H1604 0.950 . S
C1612 C1613 1.386 . S
C1612 C1614 1.391 . S
C1613 C1612 1.386 . S
C1613 C1617 1.393 . S
C1614 H1606 0.950 . S
C1614 C1612 1.391 . S
C1614 C1615 1.400 . S
C1615 C1614 1.400 . S
C1615 C1616 1.398 . S
C1615 C1621 1.491 . S
C1616 H1607 0.950 . S
C1616 C1615 1.398 . S
C1616 C1617 1.391 . S
C1617 H1605 0.950 . S
C1617 C1613 1.393 . S
C1617 C1616 1.391 . S
C1618 H1608 0.950 . S
C1618 C1619 1.386 . S
C1618 C1620 1.391 . S
C1619 C1618 1.386 . S
C1619 C1623 1.393 . S
C1620 H1609 0.950 . S
C1620 C1618 1.391 . S
C1620 C1621 1.400 . S
C1621 C1615 1.491 . S
C1621 C1620 1.400 . S
C1621 C1622 1.398 . S
C1622 H1610 0.950 . S
C1622 C1621 1.398 . S
C1622 C1623 1.391 . S
C1623 H1611 0.950 . S
C1623 C1619 1.393 . S
C1623 C1622 1.391 . S
H1624 C1632 0.950 . S
H1625 C1637 0.950 . S
H1626 C1634 0.950 . S
H1627 C1636 0.950 . S
H1628 C1638 0.950 . S
H1629 C1640 0.950 . S
H1630 C1642 0.950 . S
H1631 C1643 0.950 . S
C1632 H1624 0.950 . S
C1632 C1633 1.386 . S
C1632 C1634 1.391 . S
C1633 C1632 1.386 . S
C1633 C1637 1.393 . S
C1634 H1626 0.950 . S
C1634 C1632 1.391 . S
C1634 C1635 1.400 . S
C1635 C1634 1.400 . S
C1635 C1636 1.398 . S
C1635 C1641 1.491 . S
C1636 H1627 0.950 . S
C1636 C1635 1.398 . S
C1636 C1637 1.391 . S
C1637 H1625 0.950 . S
C1637 C1633 1.393 . S
C1637 C1636 1.391 . S
C1638 H1628 0.950 . S
C1638 C1639 1.386 . S
C1638 C1640 1.391 . S
C1639 C1638 1.386 . S
C1639 C1643 1.393 . S
C1640 H1629 0.950 . S
C1640 C1638 1.391 . S
C1640 C1641 1.400 . S
C1641 C1635 1.491 . S
C1641 C1640 1.400 . S
C1641 C1642 1.398 . S
C1642 H1630 0.950 . S
C1642 C1641 1.398 . S
C1642 C1643 1.391 . S
C1643 H1631 0.950 . S
C1643 C1639 1.393 . S
C1643 C1642 1.391 . S
H1644 C1652 0.950 . S
H1645 C1657 0.950 . S
H1646 C1654 0.950 . S
H1647 C1656 0.950 . S
H1648 C1658 0.950 . S
H1649 C1660 0.950 . S
H1650 C1662 0.950 . S
H1651 C1663 0.950 . S
C1652 H1644 0.950 . S
C1652 C1653 1.386 . S
C1652 C1654 1.391 . S
C1653 C1652 1.386 . S
C1653 C1657 1.393 . S
C1654 H1646 0.950 . S
C1654 C1652 1.391 . S
C1654 C1655 1.400 . S
C1655 C1654 1.400 . S
C1655 C1656 1.398 . S
C1655 C1661 1.491 . S
C1656 H1647 0.950 . S
C1656 C1655 1.398 . S
C1656 C1657 1.391 . S
C1657 H1645 0.950 . S
C1657 C1653 1.393 . S
C1657 C1656 1.391 . S
C1658 H1648 0.950 . S
C1658 C1659 1.386 . S
C1658 C1660 1.391 . S
C1659 C1658 1.386 . S
C1659 C1663 1.393 . S
C1660 H1649 0.950 . S
C1660 C1658 1.391 . S
C1660 C1661 1.400 . S
C1661 C1655 1.491 . S
C1661 C1660 1.400 . S
C1661 C1662 1.398 . S
C1662 H1650 0.950 . S
C1662 C1661 1.398 . S
C1662 C1663 1.391 . S
C1663 H1651 0.950 . S
C1663 C1659 1.393 . S
C1663 C1662 1.391 . S
H1664 C1672 0.950 . S
H1665 C1677 0.950 . S
H1666 C1674 0.950 . S
H1667 C1676 0.950 . S
H1668 C1678 0.950 . S
H1669 C1680 0.950 . S
H1670 C1682 0.950 . S
H1671 C1683 0.950 . S
C1672 H1664 0.950 . S
C1672 C1673 1.386 . S
C1672 C1674 1.391 . S
C1673 C1672 1.386 . S
C1673 C1677 1.393 . S
C1674 H1666 0.950 . S
C1674 C1672 1.391 . S
C1674 C1675 1.400 . S
C1675 C1674 1.400 . S
C1675 C1676 1.398 . S
C1675 C1681 1.491 . S
C1676 H1667 0.950 . S
C1676 C1675 1.398 . S
C1676 C1677 1.391 . S
C1677 H1665 0.950 . S
C1677 C1673 1.393 . S
C1677 C1676 1.391 . S
C1678 H1668 0.950 . S
C1678 C1679 1.386 . S
C1678 C1680 1.391 . S
C1679 C1678 1.386 . S
C1679 C1683 1.393 . S
C1680 H1669 0.950 . S
C1680 C1678 1.391 . S
C1680 C1681 1.400 . S
C1681 C1675 1.491 . S
C1681 C1680 1.400 . S
C1681 C1682 1.398 . S
C1682 H1670 0.950 . S
C1682 C1681 1.398 . S
C1682 C1683 1.391 . S
C1683 H1671 0.950 . S
C1683 C1679 1.393 . S
C1683 C1682 1.391 . S
H1684 C1692 0.950 . S
H1685 C1697 0.950 . S
H1686 C1694 0.950 . S
H1687 C1696 0.950 . S
H1688 C1698 0.950 . S
H1689 C1700 0.950 . S
H1690 C1702 0.950 . S
H1691 C1703 0.950 . S
C1692 H1684 0.950 . S
C1692 C1693 1.386 . S
C1692 C1694 1.391 . S
C1693 C1692 1.386 . S
C1693 C1697 1.393 . S
C1694 H1686 0.950 . S
C1694 C1692 1.391 . S
C1694 C1695 1.400 . S
C1695 C1694 1.400 . S
C1695 C1696 1.398 . S
C1695 C1701 1.491 . S
C1696 H1687 0.950 . S
C1696 C1695 1.398 . S
C1696 C1697 1.391 . S
C1697 H1685 0.950 . S
C1697 C1693 1.393 . S
C1697 C1696 1.391 . S
C1698 H1688 0.950 . S
C1698 C1699 1.386 . S
C1698 C1700 1.391 . S
C1699 C1698 1.386 . S
C1699 C1703 1.393 . S
C1700 H1689 0.950 . S
C1700 C1698 1.391 . S
C1700 C1701 1.400 . S
C1701 C1695 1.491 . S
C1701 C1700 1.400 . S
C1701 C1702 1.398 . S
C1702 H1690 0.950 . S
C1702 C1701 1.398 . S
C1702 C1703 1.391 . S
C1703 H1691 0.950 . S
C1703 C1699 1.393 . S
C1703 C1702 1.391 . S
H1704 C1712 0.950 . S
H1705 C1717 0.950 . S
H1706 C1714 0.950 . S
H1707 C1716 0.950 . S
H1708 C1718 0.950 . S
H1709 C1720 0.950 . S
H1710 C1722 0.950 . S
H1711 C1723 0.950 . S
C1712 H1704 0.950 . S
C1712 C1713 1.386 . S
C1712 C1714 1.391 . S
C1713 C1712 1.386 . S
C1713 C1717 1.393 . S
C1714 H1706 0.950 . S
C1714 C1712 1.391 . S
C1714 C1715 1.400 . S
C1715 C1714 1.400 . S
C1715 C1716 1.398 . S
C1715 C1721 1.491 . S
C1716 H1707 0.950 . S
C1716 C1715 1.398 . S
C1716 C1717 1.391 . S
C1717 H1705 0.950 . S
C1717 C1713 1.393 . S
C1717 C1716 1.391 . S
C1718 H1708 0.950 . S
C1718 C1719 1.386 . S
C1718 C1720 1.391 . S
C1719 C1718 1.386 . S
C1719 C1723 1.393 . S
C1720 H1709 0.950 . S
C1720 C1718 1.391 . S
C1720 C1721 1.400 . S
C1721 C1715 1.491 . S
C1721 C1720 1.400 . S
C1721 C1722 1.398 . S
C1722 H1710 0.950 . S
C1722 C1721 1.398 . S
C1722 C1723 1.391 . S
C1723 H1711 0.950 . S
C1723 C1719 1.393 . S
C1723 C1722 1.391 . S
H1724 C1732 0.950 . S
H1725 C1737 0.950 . S
H1726 C1734 0.950 . S
H1727 C1736 0.950 . S
H1728 C1738 0.950 . S
H1729 C1740 0.950 . S
H1730 C1742 0.950 . S
H1731 C1743 0.950 . S
C1732 H1724 0.950 . S
C1732 C1733 1.386 . S
C1732 C1734 1.391 . S
C1733 C1732 1.386 . S
C1733 C1737 1.393 . S
C1734 H1726 0.950 . S
C1734 C1732 1.391 . S
C1734 C1735 1.400 . S
C1735 C1734 1.400 . S
C1735 C1736 1.398 . S
C1735 C1741 1.491 . S
C1736 H1727 0.950 . S
C1736 C1735 1.398 . S
C1736 C1737 1.391 . S
C1737 H1725 0.950 . S
C1737 C1733 1.393 . S
C1737 C1736 1.391 . S
C1738 H1728 0.950 . S
C1738 C1739 1.386 . S
C1738 C1740 1.391 . S
C1739 C1738 1.386 . S
C1739 C1743 1.393 . S
C1740 H1729 0.950 . S
C1740 C1738 1.391 . S
C1740 C1741 1.400 . S
C1741 C1735 1.491 . S
C1741 C1740 1.400 . S
C1741 C1742 1.398 . S
C1742 H1730 0.950 . S
C1742 C1741 1.398 . S
C1742 C1743 1.391 . S
C1743 H1731 0.950 . S
C1743 C1739 1.393 . S
C1743 C1742 1.391 . S
H1744 C1752 0.950 . S
H1745 C1757 0.950 . S
H1746 C1754 0.950 . S
H1747 C1756 0.950 . S
H1748 C1758 0.950 . S
H1749 C1760 0.950 . S
H1750 C1762 0.950 . S
H1751 C1763 0.950 . S
C1752 H1744 0.950 . S
C1752 C1753 1.386 . S
C1752 C1754 1.391 . S
C1753 C1752 1.386 . S
C1753 C1757 1.393 . S
C1754 H1746 0.950 . S
C1754 C1752 1.391 . S
C1754 C1755 1.400 . S
C1755 C1754 1.400 . S
C1755 C1756 1.398 . S
C1755 C1761 1.491 . S
C1756 H1747 0.950 . S
C1756 C1755 1.398 . S
C1756 C1757 1.391 . S
C1757 H1745 0.950 . S
C1757 C1753 1.393 . S
C1757 C1756 1.391 . S
C1758 H1748 0.950 . S
C1758 C1759 1.386 . S
C1758 C1760 1.391 . S
C1759 C1758 1.386 . S
C1759 C1763 1.393 . S
C1760 H1749 0.950 . S
C1760 C1758 1.391 . S
C1760 C1761 1.400 . S
C1761 C1755 1.491 . S
C1761 C1760 1.400 . S
C1761 C1762 1.398 . S
C1762 H1750 0.950 . S
C1762 C1761 1.398 . S
C1762 C1763 1.391 . S
C1763 H1751 0.950 . S
C1763 C1759 1.393 . S
C1763 C1762 1.391 . S
H1764 C1772 0.950 . S
H1765 C1777 0.950 . S
H1766 C1774 0.950 . S
H1767 C1776 0.950 . S
H1768 C1778 0.950 . S
H1769 C1780 0.950 . S
H1770 C1782 0.950 . S
H1771 C1783 0.950 . S
C1772 H1764 0.950 . S
C1772 C1773 1.386 . S
C1772 C1774 1.391 . S
C1773 C1772 1.386 . S
C1773 C1777 1.393 . S
C1774 H1766 0.950 . S
C1774 C1772 1.391 . S
C1774 C1775 1.400 . S
C1775 C1774 1.400 . S
C1775 C1776 1.398 . S
C1775 C1781 1.491 . S
C1776 H1767 0.950 . S
C1776 C1775 1.398 . S
C1776 C1777 1.391 . S
C1777 H1765 0.950 . S
C1777 C1773 1.393 . S
C1777 C1776 1.391 . S
C1778 H1768 0.950 . S
C1778 C1779 1.386 . S
C1778 C1780 1.391 . S
C1779 C1778 1.386 . S
C1779 C1783 1.393 . S
C1780 H1769 0.950 . S
C1780 C1778 1.391 . S
C1780 C1781 1.400 . S
C1781 C1775 1.491 . S
C1781 C1780 1.400 . S
C1781 C1782 1.398 . S
C1782 H1770 0.950 . S
C1782 C1781 1.398 . S
C1782 C1783 1.391 . S
C1783 H1771 0.950 . S
C1783 C1779 1.393 . S
C1783 C1782 1.391 . S
H1784 C1792 0.950 . S
H1785 C1797 0.950 . S
H1786 C1794 0.950 . S
H1787 C1796 0.950 . S
H1788 C1798 0.950 . S
H1789 C1800 0.950 . S
H1790 C1802 0.950 . S
H1791 C1803 0.950 . S
C1792 H1784 0.950 . S
C1792 C1793 1.386 . S
C1792 C1794 1.391 . S
C1793 C1792 1.386 . S
C1793 C1797 1.393 . S
C1794 H1786 0.950 . S
C1794 C1792 1.391 . S
C1794 C1795 1.400 . S
C1795 C1794 1.400 . S
C1795 C1796 1.398 . S
C1795 C1801 1.491 . S
C1796 H1787 0.950 . S
C1796 C1795 1.398 . S
C1796 C1797 1.391 . S
C1797 H1785 0.950 . S
C1797 C1793 1.393 . S
C1797 C1796 1.391 . S
C1798 H1788 0.950 . S
C1798 C1799 1.386 . S
C1798 C1800 1.391 . S
C1799 C1798 1.386 . S
C1799 C1803 1.393 . S
C1800 H1789 0.950 . S
C1800 C1798 1.391 . S
C1800 C1801 1.400 . S
C1801 C1795 1.491 . S
C1801 C1800 1.400 . S
C1801 C1802 1.398 . S
C1802 H1790 0.950 . S
C1802 C1801 1.398 . S
C1802 C1803 1.391 . S
C1803 H1791 0.950 . S
C1803 C1799 1.393 . S
C1803 C1802 1.391 . S
H1804 C1812 0.950 . S
H1805 C1817 0.950 . S
H1806 C1814 0.950 . S
H1807 C1816 0.950 . S
H1808 C1818 0.950 . S
H1809 C1820 0.950 . S
H1810 C1822 0.950 . S
H1811 C1823 0.950 . S
C1812 H1804 0.950 . S
C1812 C1813 1.386 . S
C1812 C1814 1.391 . S
C1813 C1812 1.386 . S
C1813 C1817 1.393 . S
C1814 H1806 0.950 . S
C1814 C1812 1.391 . S
C1814 C1815 1.400 . S
C1815 C1814 1.400 . S
C1815 C1816 1.398 . S
C1815 C1821 1.491 . S
C1816 H1807 0.950 . S
C1816 C1815 1.398 . S
C1816 C1817 1.391 . S
C1817 H1805 0.950 . S
C1817 C1813 1.393 . S
C1817 C1816 1.391 . S
C1818 H1808 0.950 . S
C1818 C1819 1.386 . S
C1818 C1820 1.391 . S
C1819 C1818 1.386 . S
C1819 C1823 1.393 . S
C1820 H1809 0.950 . S
C1820 C1818 1.391 . S
C1820 C1821 1.400 . S
C1821 C1815 1.491 . S
C1821 C1820 1.400 . S
C1821 C1822 1.398 . S
C1822 H1810 0.950 . S
C1822 C1821 1.398 . S
C1822 C1823 1.391 . S
C1823 H1811 0.950 . S
C1823 C1819 1.393 . S
C1823 C1822 1.391 . S
H1824 C1832 0.950 . S
H1825 C1837 0.950 . S
H1826 C1834 0.950 . S
H1827 C1836 0.950 . S
H1828 C1838 0.950 . S
H1829 C1840 0.950 . S
H1830 C1842 0.950 . S
H1831 C1843 0.950 . S
C1832 H1824 0.950 . S
C1832 C1833 1.386 . S
C1832 C1834 1.391 . S
C1833 C1832 1.386 . S
C1833 C1837 1.393 . S
C1834 H1826 0.950 . S
C1834 C1832 1.391 . S
C1834 C1835 1.400 . S
C1835 C1834 1.400 . S
C1835 C1836 1.398 . S
C1835 C1841 1.491 . S
C1836 H1827 0.950 . S
C1836 C1835 1.398 . S
C1836 C1837 1.391 . S
C1837 H1825 0.950 . S
C1837 C1833 1.393 . S
C1837 C1836 1.391 . S
C1838 H1828 0.950 . S
C1838 C1839 1.386 . S
C1838 C1840 1.391 . S
C1839 C1838 1.386 . S
C1839 C1843 1.393 . S
C1840 H1829 0.950 . S
C1840 C1838 1.391 . S
C1840 C1841 1.400 . S
C1841 C1835 1.491 . S
C1841 C1840 1.400 . S
C1841 C1842 1.398 . S
C1842 H1830 0.950 . S
C1842 C1841 1.398 . S
C1842 C1843 1.391 . S
C1843 H1831 0.950 . S
C1843 C1839 1.393 . S
C1843 C1842 1.391 . S
H1844 C1852 0.950 . S
H1845 C1857 0.950 . S
H1846 C1854 0.950 . S
H1847 C1856 0.950 . S
H1848 C1858 0.950 . S
H1849 C1860 0.950 . S
H1850 C1862 0.950 . S
H1851 C1863 0.950 . S
C1852 H1844 0.950 . S
C1852 C1853 1.386 . S
C1852 C1854 1.391 . S
C1853 C1852 1.386 . S
C1853 C1857 1.393 . S
C1854 H1846 0.950 . S
C1854 C1852 1.391 . S
C1854 C1855 1.400 . S
C1855 C1854 1.400 . S
C1855 C1856 1.398 . S
C1855 C1861 1.491 . S
C1856 H1847 0.950 . S
C1856 C1855 1.398 . S
C1856 C1857 1.391 . S
C1857 H1845 0.950 . S
C1857 C1853 1.393 . S
C1857 C1856 1.391 . S
C1858 H1848 0.950 . S
C1858 C1859 1.386 . S
C1858 C1860 1.391 . S
C1859 C1858 1.386 . S
C1859 C1863 1.393 . S
C1860 H1849 0.950 . S
C1860 C1858 1.391 . S
C1860 C1861 1.400 . S
C1861 C1855 1.491 . S
C1861 C1860 1.400 . S
C1861 C1862 1.398 . S
C1862 H1850 0.950 . S
C1862 C1861 1.398 . S
C1862 C1863 1.391 . S
C1863 H1851 0.950 . S
C1863 C1859 1.393 . S
C1863 C1862 1.391 . S
H1864 C1872 0.950 . S
H1865 C1877 0.950 . S
H1866 C1874 0.950 . S
H1867 C1876 0.950 . S
H1868 C1878 0.950 . S
H1869 C1880 0.950 . S
H1870 C1882 0.950 . S
H1871 C1883 0.950 . S
C1872 H1864 0.950 . S
C1872 C1873 1.386 . S
C1872 C1874 1.391 . S
C1873 C1872 1.386 . S
C1873 C1877 1.393 . S
C1874 H1866 0.950 . S
C1874 C1872 1.391 . S
C1874 C1875 1.400 . S
C1875 C1874 1.400 . S
C1875 C1876 1.398 . S
C1875 C1881 1.491 . S
C1876 H1867 0.950 . S
C1876 C1875 1.398 . S
C1876 C1877 1.391 . S
C1877 H1865 0.950 . S
C1877 C1873 1.393 . S
C1877 C1876 1.391 . S
C1878 H1868 0.950 . S
C1878 C1879 1.386 . S
C1878 C1880 1.391 . S
C1879 C1878 1.386 . S
C1879 C1883 1.393 . S
C1880 H1869 0.950 . S
C1880 C1878 1.391 . S
C1880 C1881 1.400 . S
C1881 C1875 1.491 . S
C1881 C1880 1.400 . S
C1881 C1882 1.398 . S
C1882 H1870 0.950 . S
C1882 C1881 1.398 . S
C1882 C1883 1.391 . S
C1883 H1871 0.950 . S
C1883 C1879 1.393 . S
C1883 C1882 1.391 . S
H1884 C1892 0.950 . S
H1885 C1897 0.950 . S
H1886 C1894 0.950 . S
H1887 C1896 0.950 . S
H1888 C1898 0.950 . S
H1889 C1900 0.950 . S
H1890 C1902 0.950 . S
H1891 C1903 0.950 . S
C1892 H1884 0.950 . S
C1892 C1893 1.386 . S
C1892 C1894 1.391 . S
C1893 C1892 1.386 . S
C1893 C1897 1.393 . S
C1894 H1886 0.950 . S
C1894 C1892 1.391 . S
C1894 C1895 1.400 . S
C1895 C1894 1.400 . S
C1895 C1896 1.398 . S
C1895 C1901 1.491 . S
C1896 H1887 0.950 . S
C1896 C1895 1.398 . S
C1896 C1897 1.391 . S
C1897 H1885 0.950 . S
C1897 C1893 1.393 . S
C1897 C1896 1.391 . S
C1898 H1888 0.950 . S
C1898 C1899 1.386 . S
C1898 C1900 1.391 . S
C1899 C1898 1.386 . S
C1899 C1903 1.393 . S
C1900 H1889 0.950 . S
C1900 C1898 1.391 . S
C1900 C1901 1.400 . S
C1901 C1895 1.491 . S
C1901 C1900 1.400 . S
C1901 C1902 1.398 . S
C1902 H1890 0.950 . S
C1902 C1901 1.398 . S
C1902 C1903 1.391 . S
C1903 H1891 0.950 . S
C1903 C1899 1.393 . S
C1903 C1902 1.391 . S
H1904 C1912 0.950 . S
H1905 C1917 0.950 . S
H1906 C1914 0.950 . S
H1907 C1916 0.950 . S
H1908 C1918 0.950 . S
H1909 C1920 0.950 . S
H1910 C1922 0.950 . S
H1911 C1923 0.950 . S
C1912 H1904 0.950 . S
C1912 C1913 1.386 . S
C1912 C1914 1.391 . S
C1913 C1912 1.386 . S
C1913 C1917 1.393 . S
C1914 H1906 0.950 . S
C1914 C1912 1.391 . S
C1914 C1915 1.400 . S
C1915 C1914 1.400 . S
C1915 C1916 1.398 . S
C1915 C1921 1.491 . S
C1916 H1907 0.950 . S
C1916 C1915 1.398 . S
C1916 C1917 1.391 . S
C1917 H1905 0.950 . S
C1917 C1913 1.393 . S
C1917 C1916 1.391 . S
C1918 H1908 0.950 . S
C1918 C1919 1.386 . S
C1918 C1920 1.391 . S
C1919 C1918 1.386 . S
C1919 C1923 1.393 . S
C1920 H1909 0.950 . S
C1920 C1918 1.391 . S
C1920 C1921 1.400 . S
C1921 C1915 1.491 . S
C1921 C1920 1.400 . S
C1921 C1922 1.398 . S
C1922 H1910 0.950 . S
C1922 C1921 1.398 . S
C1922 C1923 1.391 . S
C1923 H1911 0.950 . S
C1923 C1919 1.393 . S
C1923 C1922 1.391 . S
H1924 C1932 0.950 . S
H1925 C1937 0.950 . S
H1926 C1934 0.950 . S
H1927 C1936 0.950 . S
H1928 C1938 0.950 . S
H1929 C1940 0.950 . S
H1930 C1942 0.950 . S
H1931 C1943 0.950 . S
C1932 H1924 0.950 . S
C1932 C1933 1.386 . S
C1932 C1934 1.391 . S
C1933 C1932 1.386 . S
C1933 C1937 1.393 . S
C1934 H1926 0.950 . S
C1934 C1932 1.391 . S
C1934 C1935 1.400 . S
C1935 C1934 1.400 . S
C1935 C1936 1.398 . S
C1935 C1941 1.491 . S
C1936 H1927 0.950 . S
C1936 C1935 1.398 . S
C1936 C1937 1.391 . S
C1937 H1925 0.950 . S
C1937 C1933 1.393 . S
C1937 C1936 1.391 . S
C1938 H1928 0.950 . S
C1938 C1939 1.386 . S
C1938 C1940 1.391 . S
C1939 C1938 1.386 . S
C1939 C1943 1.393 . S
C1940 H1929 0.950 . S
C1940 C1938 1.391 . S
C1940 C1941 1.400 . S
C1941 C1935 1.491 . S
C1941 C1940 1.400 . S
C1941 C1942 1.398 . S
C1942 H1930 0.950 . S
C1942 C1941 1.398 . S
C1942 C1943 1.391 . S
C1943 H1931 0.950 . S
C1943 C1939 1.393 . S
C1943 C1942 1.391 . S
H1944 C1952 0.950 . S
H1945 C1957 0.950 . S
H1946 C1954 0.950 . S
H1947 C1956 0.950 . S
H1948 C1958 0.950 . S
H1949 C1960 0.950 . S
H1950 C1962 0.950 . S
H1951 C1963 0.950 . S
C1952 H1944 0.950 . S
C1952 C1953 1.386 . S
C1952 C1954 1.391 . S
C1953 C1952 1.386 . S
C1953 C1957 1.393 . S
C1954 H1946 0.950 . S
C1954 C1952 1.391 . S
C1954 C1955 1.400 . S
C1955 C1954 1.400 . S
C1955 C1956 1.398 . S
C1955 C1961 1.491 . S
C1956 H1947 0.950 . S
C1956 C1955 1.398 . S
C1956 C1957 1.391 . S
C1957 H1945 0.950 . S
C1957 C1953 1.393 . S
C1957 C1956 1.391 . S
C1958 H1948 0.950 . S
C1958 C1959 1.386 . S
C1958 C1960 1.391 . S
C1959 C1958 1.386 . S
C1959 C1963 1.393 . S
C1960 H1949 0.950 . S
C1960 C1958 1.391 . S
C1960 C1961 1.400 . S
C1961 C1955 1.491 . S
C1961 C1960 1.400 . S
C1961 C1962 1.398 . S
C1962 H1950 0.950 . S
C1962 C1961 1.398 . S
C1962 C1963 1.391 . S
C1963 H1951 0.950 . S
C1963 C1959 1.393 . S
C1963 C1962 1.391 . S
H1964 C1972 0.950 . S
H1965 C1977 0.950 . S
H1966 C1974 0.950 . S
H1967 C1976 0.950 . S
H1968 C1978 0.950 . S
H1969 C1980 0.950 . S
H1970 C1982 0.950 . S
H1971 C1983 0.950 . S
C1972 H1964 0.950 . S
C1972 C1973 1.386 . S
C1972 C1974 1.391 . S
C1973 C1972 1.386 . S
C1973 C1977 1.393 . S
C1974 H1966 0.950 . S
C1974 C1972 1.391 . S
C1974 C1975 1.400 . S
C1975 C1974 1.400 . S
C1975 C1976 1.398 . S
C1975 C1981 1.491 . S
C1976 H1967 0.950 . S
C1976 C1975 1.398 . S
C1976 C1977 1.391 . S
C1977 H1965 0.950 . S
C1977 C1973 1.393 . S
C1977 C1976 1.391 . S
C1978 H1968 0.950 . S
C1978 C1979 1.386 . S
C1978 C1980 1.391 . S
C1979 C1978 1.386 . S
C1979 C1983 1.393 . S
C1980 H1969 0.950 . S
C1980 C1978 1.391 . S
C1980 C1981 1.400 . S
C1981 C1975 1.491 . S
C1981 C1980 1.400 . S
C1981 C1982 1.398 . S
C1982 H1970 0.950 . S
C1982 C1981 1.398 . S
C1982 C1983 1.391 . S
C1983 H1971 0.950 . S
C1983 C1979 1.393 . S
C1983 C1982 1.391 . S
H1984 C1992 0.950 . S
H1985 C1997 0.950 . S
H1986 C1994 0.950 . S
H1987 C1996 0.950 . S
H1988 C1998 0.950 . S
H1989 C2000 0.950 . S
H1990 C2002 0.950 . S
H1991 C2003 0.950 . S
C1992 H1984 0.950 . S
C1992 C1993 1.386 . S
C1992 C1994 1.391 . S
C1993 C1992 1.386 . S
C1993 C1997 1.393 . S
C1994 H1986 0.950 . S
C1994 C1992 1.391 . S
C1994 C1995 1.400 . S
C1995 C1994 1.400 . S
C1995 C1996 1.398 . S
C1995 C2001 1.491 . S
C1996 H1987 0.950 . S
C1996 C1995 1.398 . S
C1996 C1997 1.391 . S
C1997 H1985 0.950 . S
C1997 C1993 1.393 . S
C1997 C1996 1.391 . S
C1998 H1988 0.950 . S
C1998 C1999 1.386 . S
C1998 C2000 1.391 . S
C1999 C1998 1.386 . S
C1999 C2003 1.393 . S
C2000 H1989 0.950 . S
C2000 C1998 1.391 . S
C2000 C2001 1.400 . S
C2001 C1995 1.491 . S
C2001 C2000 1.400 . S
C2001 C2002 1.398 . S
C2002 H1990 0.950 . S
C2002 C2001 1.398 . S
C2002 C2003 1.391 . S
C2003 H1991 0.950 . S
C2003 C1999 1.393 . S
C2003 C2002 1.391 . S
H2004 C2012 0.950 . S
H2005 C2017 0.950 . S
H2006 C2014 0.950 . S
H2007 C2016 0.950 . S
H2008 C2018 0.950 . S
H2009 C2020 0.950 . S
H2010 C2022 0.950 . S
H2011 C2023 0.950 . S
C2012 H2004 0.950 . S
C2012 C2013 1.386 . S
C2012 C2014 1.391 . S
C2013 C2012 1.386 . S
C2013 C2017 1.393 . S
C2014 H2006 0.950 . S
C2014 C2012 1.391 . S
C2014 C2015 1.400 . S
C2015 C2014 1.400 . S
C2015 C2016 1.398 . S
C2015 C2021 1.491 . S
C2016 H2007 0.950 . S
C2016 C2015 1.398 . S
C2016 C2017 1.391 . S
C2017 H2005 0.950 . S
C2017 C2013 1.393 . S
C2017 C2016 1.391 . S
C2018 H2008 0.950 . S
C2018 C2019 1.386 . S
C2018 C2020 1.391 . S
C2019 C2018 1.386 . S
C2019 C2023 1.393 . S
C2020 H2009 0.950 . S
C2020 C2018 1.391 . S
C2020 C2021 1.400 . S
C2021 C2015 1.491 . S
C2021 C2020 1.400 . S
C2021 C2022 1.398 . S
C2022 H2010 0.950 . S
C2022 C2021 1.398 . S
C2022 C2023 1.391 . S
C2023 H2011 0.950 . S
C2023 C2019 1.393 . S
C2023 C2022 1.391 . S
H2024 C2032 0.950 . S
H2025 C2037 0.950 . S
H2026 C2034 0.950 . S
H2027 C2036 0.950 . S
H2028 C2038 0.950 . S
H2029 C2040 0.950 . S
H2030 C2042 0.950 . S
H2031 C2043 0.950 . S
C2032 H2024 0.950 . S
C2032 C2033 1.386 . S
C2032 C2034 1.391 . S
C2033 C2032 1.386 . S
C2033 C2037 1.393 . S
C2034 H2026 0.950 . S
C2034 C2032 1.391 . S
C2034 C2035 1.400 . S
C2035 C2034 1.400 . S
C2035 C2036 1.398 . S
C2035 C2041 1.491 . S
C2036 H2027 0.950 . S
C2036 C2035 1.398 . S
C2036 C2037 1.391 . S
C2037 H2025 0.950 . S
C2037 C2033 1.393 . S
C2037 C2036 1.391 . S
C2038 H2028 0.950 . S
C2038 C2039 1.386 . S
C2038 C2040 1.391 . S
C2039 C2038 1.386 . S
C2039 C2043 1.393 . S
C2040 H2029 0.950 . S
C2040 C2038 1.391 . S
C2040 C2041 1.400 . S
C2041 C2035 1.491 . S
C2041 C2040 1.400 . S
C2041 C2042 1.398 . S
C2042 H2030 0.950 . S
C2042 C2041 1.398 . S
C2042 C2043 1.391 . S
C2043 H2031 0.950 . S
C2043 C2039 1.393 . S
C2043 C2042 1.391 . S
H2044 C2052 0.950 . S
H2045 C2057 0.950 . S
H2046 C2054 0.950 . S
H2047 C2056 0.950 . S
H2048 C2058 0.950 . S
H2049 C2060 0.950 . S
H2050 C2062 0.950 . S
H2051 C2063 0.950 . S
C2052 H2044 0.950 . S
C2052 C2053 1.386 . S
C2052 C2054 1.391 . S
C2053 C2052 1.386 . S
C2053 C2057 1.393 . S
C2054 H2046 0.950 . S
C2054 C2052 1.391 . S
C2054 C2055 1.400 . S
C2055 C2054 1.400 . S
C2055 C2056 1.398 . S
C2055 C2061 1.491 . S
C2056 H2047 0.950 . S
C2056 C2055 1.398 . S
C2056 C2057 1.391 . S
C2057 H2045 0.950 . S
C2057 C2053 1.393 . S
C2057 C2056 1.391 . S
C2058 H2048 0.950 . S
C2058 C2059 1.386 . S
C2058 C2060 1.391 . S
C2059 C2058 1.386 . S
C2059 C2063 1.393 . S
C2060 H2049 0.950 . S
C2060 C2058 1.391 . S
C2060 C2061 1.400 . S
C2061 C2055 1.491 . S
C2061 C2060 1.400 . S
C2061 C2062 1.398 . S
C2062 H2050 0.950 . S
C2062 C2061 1.398 . S
C2062 C2063 1.391 . S
C2063 H2051 0.950 . S
C2063 C2059 1.393 . S
C2063 C2062 1.391 . S
H2064 C2072 0.950 . S
H2065 C2077 0.950 . S
H2066 C2074 0.950 . S
H2067 C2076 0.950 . S
H2068 C2078 0.950 . S
H2069 C2080 0.950 . S
H2070 C2082 0.950 . S
H2071 C2083 0.950 . S
C2072 H2064 0.950 . S
C2072 C2073 1.386 . S
C2072 C2074 1.391 . S
C2073 C2072 1.386 . S
C2073 C2077 1.393 . S
C2074 H2066 0.950 . S
C2074 C2072 1.391 . S
C2074 C2075 1.400 . S
C2075 C2074 1.400 . S
C2075 C2076 1.398 . S
C2075 C2081 1.491 . S
C2076 H2067 0.950 . S
C2076 C2075 1.398 . S
C2076 C2077 1.391 . S
C2077 H2065 0.950 . S
C2077 C2073 1.393 . S
C2077 C2076 1.391 . S
C2078 H2068 0.950 . S
C2078 C2079 1.386 . S
C2078 C2080 1.391 . S
C2079 C2078 1.386 . S
C2079 C2083 1.393 . S
C2080 H2069 0.950 . S
C2080 C2078 1.391 . S
C2080 C2081 1.400 . S
C2081 C2075 1.491 . S
C2081 C2080 1.400 . S
C2081 C2082 1.398 . S
C2082 H2070 0.950 . S
C2082 C2081 1.398 . S
C2082 C2083 1.391 . S
C2083 H2071 0.950 . S
C2083 C2079 1.393 . S
C2083 C2082 1.391 . S
H2084 C2092 0.950 . S
H2085 C2097 0.950 . S
H2086 C2094 0.950 . S
H2087 C2096 0.950 . S
H2088 C2098 0.950 . S
H2089 C2100 0.950 . S
H2090 C2102 0.950 . S
H2091 C2103 0.950 . S
C2092 H2084 0.950 . S
C2092 C2093 1.386 . S
C2092 C2094 1.391 . S
C2093 C2092 1.386 . S
C2093 C2097 1.393 . S
C2094 H2086 0.950 . S
C2094 C2092 1.391 . S
C2094 C2095 1.400 . S
C2095 C2094 1.400 . S
C2095 C2096 1.398 . S
C2095 C2101 1.491 . S
C2096 H2087 0.950 . S
C2096 C2095 1.398 . S
C2096 C2097 1.391 . S
C2097 H2085 0.950 . S
C2097 C2093 1.393 . S
C2097 C2096 1.391 . S
C2098 H2088 0.950 . S
C2098 C2099 1.386 . S
C2098 C2100 1.391 . S
C2099 C2098 1.386 . S
C2099 C2103 1.393 . S
C2100 H2089 0.950 . S
C2100 C2098 1.391 . S
C2100 C2101 1.400 . S
C2101 C2095 1.491 . S
C2101 C2100 1.400 . S
C2101 C2102 1.398 . S
C2102 H2090 0.950 . S
C2102 C2101 1.398 . S
C2102 C2103 1.391 . S
C2103 H2091 0.950 . S
C2103 C2099 1.393 . S
C2103 C2102 1.391 . S
H2104 C2112 0.950 . S
H2105 C2117 0.950 . S
H2106 C2114 0.950 . S
H2107 C2116 0.950 . S
H2108 C2118 0.950 . S
H2109 C2120 0.950 . S
H2110 C2122 0.950 . S
H2111 C2123 0.950 . S
C2112 H2104 0.950 . S
C2112 C2113 1.386 . S
C2112 C2114 1.391 . S
C2113 C2112 1.386 . S
C2113 C2117 1.393 . S
C2114 H2106 0.950 . S
C2114 C2112 1.391 . S
C2114 C2115 1.400 . S
C2115 C2114 1.400 . S
C2115 C2116 1.398 . S
C2115 C2121 1.491 . S
C2116 H2107 0.950 . S
C2116 C2115 1.398 . S
C2116 C2117 1.391 . S
C2117 H2105 0.950 . S
C2117 C2113 1.393 . S
C2117 C2116 1.391 . S
C2118 H2108 0.950 . S
C2118 C2119 1.386 . S
C2118 C2120 1.391 . S
C2119 C2118 1.386 . S
C2119 C2123 1.393 . S
C2120 H2109 0.950 . S
C2120 C2118 1.391 . S
C2120 C2121 1.400 . S
C2121 C2115 1.491 . S
C2121 C2120 1.400 . S
C2121 C2122 1.398 . S
C2122 H2110 0.950 . S
C2122 C2121 1.398 . S
C2122 C2123 1.391 . S
C2123 H2111 0.950 . S
C2123 C2119 1.393 . S
C2123 C2122 1.391 . S
H2124 C2132 0.950 . S
H2125 C2137 0.950 . S
H2126 C2134 0.950 . S
H2127 C2136 0.950 . S
H2128 C2138 0.950 . S
H2129 C2140 0.950 . S
H2130 C2142 0.950 . S
H2131 C2143 0.950 . S
C2132 H2124 0.950 . S
C2132 C2133 1.386 . S
C2132 C2134 1.391 . S
C2133 C2132 1.386 . S
C2133 C2137 1.393 . S
C2134 H2126 0.950 . S
C2134 C2132 1.391 . S
C2134 C2135 1.400 . S
C2135 C2134 1.400 . S
C2135 C2136 1.398 . S
C2135 C2141 1.491 . S
C2136 H2127 0.950 . S
C2136 C2135 1.398 . S
C2136 C2137 1.391 . S
C2137 H2125 0.950 . S
C2137 C2133 1.393 . S
C2137 C2136 1.391 . S
C2138 H2128 0.950 . S
C2138 C2139 1.386 . S
C2138 C2140 1.391 . S
C2139 C2138 1.386 . S
C2139 C2143 1.393 . S
C2140 H2129 0.950 . S
C2140 C2138 1.391 . S
C2140 C2141 1.400 . S
C2141 C2135 1.491 . S
C2141 C2140 1.400 . S
C2141 C2142 1.398 . S
C2142 H2130 0.950 . S
C2142 C2141 1.398 . S
C2142 C2143 1.391 . S
C2143 H2131 0.950 . S
C2143 C2139 1.393 . S
C2143 C2142 1.391 . S
H2144 C2152 0.950 . S
H2145 C2157 0.950 . S
H2146 C2154 0.950 . S
H2147 C2156 0.950 . S
H2148 C2158 0.950 . S
H2149 C2160 0.950 . S
H2150 C2162 0.950 . S
H2151 C2163 0.950 . S
C2152 H2144 0.950 . S
C2152 C2153 1.386 . S
C2152 C2154 1.391 . S
C2153 C2152 1.386 . S
C2153 C2157 1.393 . S
C2154 H2146 0.950 . S
C2154 C2152 1.391 . S
C2154 C2155 1.400 . S
C2155 C2154 1.400 . S
C2155 C2156 1.398 . S
C2155 C2161 1.491 . S
C2156 H2147 0.950 . S
C2156 C2155 1.398 . S
C2156 C2157 1.391 . S
C2157 H2145 0.950 . S
C2157 C2153 1.393 . S
C2157 C2156 1.391 . S
C2158 H2148 0.950 . S
C2158 C2159 1.386 . S
C2158 C2160 1.391 . S
C2159 C2158 1.386 . S
C2159 C2163 1.393 . S
C2160 H2149 0.950 . S
C2160 C2158 1.391 . S
C2160 C2161 1.400 . S
C2161 C2155 1.491 . S
C2161 C2160 1.400 . S
C2161 C2162 1.398 . S
C2162 H2150 0.950 . S
C2162 C2161 1.398 . S
C2162 C2163 1.391 . S
C2163 H2151 0.950 . S
C2163 C2159 1.393 . S
C2163 C2162 1.391 . S
H2164 C2172 0.950 . S
H2165 C2177 0.950 . S
H2166 C2174 0.950 . S
H2167 C2176 0.950 . S
H2168 C2178 0.950 . S
H2169 C2180 0.950 . S
H2170 C2182 0.950 . S
H2171 C2183 0.950 . S
C2172 H2164 0.950 . S
C2172 C2173 1.386 . S
C2172 C2174 1.391 . S
C2173 C2172 1.386 . S
C2173 C2177 1.393 . S
C2174 H2166 0.950 . S
C2174 C2172 1.391 . S
C2174 C2175 1.400 . S
C2175 C2174 1.400 . S
C2175 C2176 1.398 . S
C2175 C2181 1.491 . S
C2176 H2167 0.950 . S
C2176 C2175 1.398 . S
C2176 C2177 1.391 . S
C2177 H2165 0.950 . S
C2177 C2173 1.393 . S
C2177 C2176 1.391 . S
C2178 H2168 0.950 . S
C2178 C2179 1.386 . S
C2178 C2180 1.391 . S
C2179 C2178 1.386 . S
C2179 C2183 1.393 . S
C2180 H2169 0.950 . S
C2180 C2178 1.391 . S
C2180 C2181 1.400 . S
C2181 C2175 1.491 . S
C2181 C2180 1.400 . S
C2181 C2182 1.398 . S
C2182 H2170 0.950 . S
C2182 C2181 1.398 . S
C2182 C2183 1.391 . S
C2183 H2171 0.950 . S
C2183 C2179 1.393 . S
C2183 C2182 1.391 . S
H2184 C2192 0.950 . S
H2185 C2197 0.950 . S
H2186 C2194 0.950 . S
H2187 C2196 0.950 . S
H2188 C2198 0.950 . S
H2189 C2200 0.950 . S
H2190 C2202 0.950 . S
H2191 C2203 0.950 . S
C2192 H2184 0.950 . S
C2192 C2193 1.386 . S
C2192 C2194 1.391 . S
C2193 C2192 1.386 . S
C2193 C2197 1.393 . S
C2194 H2186 0.950 . S
C2194 C2192 1.391 . S
C2194 C2195 1.400 . S
C2195 C2194 1.400 . S
C2195 C2196 1.398 . S
C2195 C2201 1.491 . S
C2196 H2187 0.950 . S
C2196 C2195 1.398 . S
C2196 C2197 1.391 . S
C2197 H2185 0.950 . S
C2197 C2193 1.393 . S
C2197 C2196 1.391 . S
C2198 H2188 0.950 . S
C2198 C2199 1.386 . S
C2198 C2200 1.391 . S
C2199 C2198 1.386 . S
C2199 C2203 1.393 . S
C2200 H2189 0.950 . S
C2200 C2198 1.391 . S
C2200 C2201 1.400 . S
C2201 C2195 1.491 . S
C2201 C2200 1.400 . S
C2201 C2202 1.398 . S
C2202 H2190 0.950 . S
C2202 C2201 1.398 . S
C2202 C2203 1.391 . S
C2203 H2191 0.950 . S
C2203 C2199 1.393 . S
C2203 C2202 1.391 . S
H2204 C2212 0.950 . S
H2205 C2217 0.950 . S
H2206 C2214 0.950 . S
H2207 C2216 0.950 . S
H2208 C2218 0.950 . S
H2209 C2220 0.950 . S
H2210 C2222 0.950 . S
H2211 C2223 0.950 . S
C2212 H2204 0.950 . S
C2212 C2213 1.386 . S
C2212 C2214 1.391 . S
C2213 C2212 1.386 . S
C2213 C2217 1.393 . S
C2214 H2206 0.950 . S
C2214 C2212 1.391 . S
C2214 C2215 1.400 . S
C2215 C2214 1.400 . S
C2215 C2216 1.398 . S
C2215 C2221 1.491 . S
C2216 H2207 0.950 . S
C2216 C2215 1.398 . S
C2216 C2217 1.391 . S
C2217 H2205 0.950 . S
C2217 C2213 1.393 . S
C2217 C2216 1.391 . S
C2218 H2208 0.950 . S
C2218 C2219 1.386 . S
C2218 C2220 1.391 . S
C2219 C2218 1.386 . S
C2219 C2223 1.393 . S
C2220 H2209 0.950 . S
C2220 C2218 1.391 . S
C2220 C2221 1.400 . S
C2221 C2215 1.491 . S
C2221 C2220 1.400 . S
C2221 C2222 1.398 . S
C2222 H2210 0.950 . S
C2222 C2221 1.398 . S
C2222 C2223 1.391 . S
C2223 H2211 0.950 . S
C2223 C2219 1.393 . S
C2223 C2222 1.391 . S
H2224 C2232 0.950 . S
H2225 C2237 0.950 . S
H2226 C2234 0.950 . S
H2227 C2236 0.950 . S
H2228 C2238 0.950 . S
H2229 C2240 0.950 . S
H2230 C2242 0.950 . S
H2231 C2243 0.950 . S
C2232 H2224 0.950 . S
C2232 C2233 1.386 . S
C2232 C2234 1.391 . S
C2233 C2232 1.386 . S
C2233 C2237 1.393 . S
C2234 H2226 0.950 . S
C2234 C2232 1.391 . S
C2234 C2235 1.400 . S
C2235 C2234 1.400 . S
C2235 C2236 1.398 . S
C2235 C2241 1.491 . S
C2236 H2227 0.950 . S
C2236 C2235 1.398 . S
C2236 C2237 1.391 . S
C2237 H2225 0.950 . S
C2237 C2233 1.393 . S
C2237 C2236 1.391 . S
C2238 H2228 0.950 . S
C2238 C2239 1.386 . S
C2238 C2240 1.391 . S
C2239 C2238 1.386 . S
C2239 C2243 1.393 . S
C2240 H2229 0.950 . S
C2240 C2238 1.391 . S
C2240 C2241 1.400 . S
C2241 C2235 1.491 . S
C2241 C2240 1.400 . S
C2241 C2242 1.398 . S
C2242 H2230 0.950 . S
C2242 C2241 1.398 . S
C2242 C2243 1.391 . S
C2243 H2231 0.950 . S
C2243 C2239 1.393 . S
C2243 C2242 1.391 . S
H2244 C2252 0.950 . S
H2245 C2257 0.950 . S
H2246 C2254 0.950 . S
H2247 C2256 0.950 . S
H2248 C2258 0.950 . S
H2249 C2260 0.950 . S
H2250 C2262 0.950 . S
H2251 C2263 0.950 . S
C2252 H2244 0.950 . S
C2252 C2253 1.386 . S
C2252 C2254 1.391 . S
C2253 C2252 1.386 . S
C2253 C2257 1.393 . S
C2254 H2246 0.950 . S
C2254 C2252 1.391 . S
C2254 C2255 1.400 . S
C2255 C2254 1.400 . S
C2255 C2256 1.398 . S
C2255 C2261 1.491 . S
C2256 H2247 0.950 . S
C2256 C2255 1.398 . S
C2256 C2257 1.391 . S
C2257 H2245 0.950 . S
C2257 C2253 1.393 . S
C2257 C2256 1.391 . S
C2258 H2248 0.950 . S
C2258 C2259 1.386 . S
C2258 C2260 1.391 . S
C2259 C2258 1.386 . S
C2259 C2263 1.393 . S
C2260 H2249 0.950 . S
C2260 C2258 1.391 . S
C2260 C2261 1.400 . S
C2261 C2255 1.491 . S
C2261 C2260 1.400 . S
C2261 C2262 1.398 . S
C2262 H2250 0.950 . S
C2262 C2261 1.398 . S
C2262 C2263 1.391 . S
C2263 H2251 0.950 . S
C2263 C2259 1.393 . S
C2263 C2262 1.391 . S
H2264 C2272 0.950 . S
H2265 C2277 0.950 . S
H2266 C2274 0.950 . S
H2267 C2276 0.950 . S
H2268 C2278 0.950 . S
H2269 C2280 0.950 . S
H2270 C2282 0.950 . S
H2271 C2283 0.950 . S
C2272 H2264 0.950 . S
C2272 C2273 1.386 . S
C2272 C2274 1.391 . S
C2273 C2272 1.386 . S
C2273 C2277 1.393 . S
C2274 H2266 0.950 . S
C2274 C2272 1.391 . S
C2274 C2275 1.400 . S
C2275 C2274 1.400 . S
C2275 C2276 1.398 . S
C2275 C2281 1.491 . S
C2276 H2267 0.950 . S
C2276 C2275 1.398 . S
C2276 C2277 1.391 . S
C2277 H2265 0.950 . S
C2277 C2273 1.393 . S
C2277 C2276 1.391 . S
C2278 H2268 0.950 . S
C2278 C2279 1.386 . S
C2278 C2280 1.391 . S
C2279 C2278 1.386 . S
C2279 C2283 1.393 . S
C2280 H2269 0.950 . S
C2280 C2278 1.391 . S
C2280 C2281 1.400 . S
C2281 C2275 1.491 . S
C2281 C2280 1.400 . S
C2281 C2282 1.398 . S
C2282 H2270 0.950 . S
C2282 C2281 1.398 . S
C2282 C2283 1.391 . S
C2283 H2271 0.950 . S
C2283 C2279 1.393 . S
C2283 C2282 1.391 . S
H2284 C2292 0.950 . S
H2285 C2297 0.950 . S
H2286 C2294 0.950 . S
H2287 C2296 0.950 . S
H2288 C2298 0.950 . S
H2289 C2300 0.950 . S
H2290 C2302 0.950 . S
H2291 C2303 0.950 . S
C2292 H2284 0.950 . S
C2292 C2293 1.386 . S
C2292 C2294 1.391 . S
C2293 C2292 1.386 . S
C2293 C2297 1.393 . S
C2294 H2286 0.950 . S
C2294 C2292 1.391 . S
C2294 C2295 1.400 . S
C2295 C2294 1.400 . S
C2295 C2296 1.398 . S
C2295 C2301 1.491 . S
C2296 H2287 0.950 . S
C2296 C2295 1.398 . S
C2296 C2297 1.391 . S
C2297 H2285 0.950 . S
C2297 C2293 1.393 . S
C2297 C2296 1.391 . S
C2298 H2288 0.950 . S
C2298 C2299 1.386 . S
C2298 C2300 1.391 . S
C2299 C2298 1.386 . S
C2299 C2303 1.393 . S
C2300 H2289 0.950 . S
C2300 C2298 1.391 . S
C2300 C2301 1.400 . S
C2301 C2295 1.491 . S
C2301 C2300 1.400 . S
C2301 C2302 1.398 . S
C2302 H2290 0.950 . S
C2302 C2301 1.398 . S
C2302 C2303 1.391 . S
C2303 H2291 0.950 . S
C2303 C2299 1.393 . S
C2303 C2302 1.391 . S
H2304 C2312 0.950 . S
H2305 C2317 0.950 . S
H2306 C2314 0.950 . S
H2307 C2316 0.950 . S
H2308 C2318 0.950 . S
H2309 C2320 0.950 . S
H2310 C2322 0.950 . S
H2311 C2323 0.950 . S
C2312 H2304 0.950 . S
C2312 C2313 1.386 . S
C2312 C2314 1.391 . S
C2313 C2312 1.386 . S
C2313 C2317 1.393 . S
C2314 H2306 0.950 . S
C2314 C2312 1.391 . S
C2314 C2315 1.400 . S
C2315 C2314 1.400 . S
C2315 C2316 1.398 . S
C2315 C2321 1.491 . S
C2316 H2307 0.950 . S
C2316 C2315 1.398 . S
C2316 C2317 1.391 . S
C2317 H2305 0.950 . S
C2317 C2313 1.393 . S
C2317 C2316 1.391 . S
C2318 H2308 0.950 . S
C2318 C2319 1.386 . S
C2318 C2320 1.391 . S
C2319 C2318 1.386 . S
C2319 C2323 1.393 . S
C2320 H2309 0.950 . S
C2320 C2318 1.391 . S
C2320 C2321 1.400 . S
C2321 C2315 1.491 . S
C2321 C2320 1.400 . S
C2321 C2322 1.398 . S
C2322 H2310 0.950 . S
C2322 C2321 1.398 . S
C2322 C2323 1.391 . S
C2323 H2311 0.950 . S
C2323 C2319 1.393 . S
C2323 C2322 1.391 . S
H2324 C2332 0.950 . S
H2325 C2337 0.950 . S
H2326 C2334 0.950 . S
H2327 C2336 0.950 . S
H2328 C2338 0.950 . S
H2329 C2340 0.950 . S
H2330 C2342 0.950 . S
H2331 C2343 0.950 . S
C2332 H2324 0.950 . S
C2332 C2333 1.386 . S
C2332 C2334 1.391 . S
C2333 C2332 1.386 . S
C2333 C2337 1.393 . S
C2334 H2326 0.950 . S
C2334 C2332 1.391 . S
C2334 C2335 1.400 . S
C2335 C2334 1.400 . S
C2335 C2336 1.398 . S
C2335 C2341 1.491 . S
C2336 H2327 0.950 . S
C2336 C2335 1.398 . S
C2336 C2337 1.391 . S
C2337 H2325 0.950 . S
C2337 C2333 1.393 . S
C2337 C2336 1.391 . S
C2338 H2328 0.950 . S
C2338 C2339 1.386 . S
C2338 C2340 1.391 . S
C2339 C2338 1.386 . S
C2339 C2343 1.393 . S
C2340 H2329 0.950 . S
C2340 C2338 1.391 . S
C2340 C2341 1.400 . S
C2341 C2335 1.491 . S
C2341 C2340 1.400 . S
C2341 C2342 1.398 . S
C2342 H2330 0.950 . S
C2342 C2341 1.398 . S
C2342 C2343 1.391 . S
C2343 H2331 0.950 . S
C2343 C2339 1.393 . S
C2343 C2342 1.391 . S
H2344 C2352 0.950 . S
H2345 C2357 0.950 . S
H2346 C2354 0.950 . S
H2347 C2356 0.950 . S
H2348 C2358 0.950 . S
H2349 C2360 0.950 . S
H2350 C2362 0.950 . S
H2351 C2363 0.950 . S
C2352 H2344 0.950 . S
C2352 C2353 1.386 . S
C2352 C2354 1.391 . S
C2353 C2352 1.386 . S
C2353 C2357 1.393 . S
C2354 H2346 0.950 . S
C2354 C2352 1.391 . S
C2354 C2355 1.400 . S
C2355 C2354 1.400 . S
C2355 C2356 1.398 . S
C2355 C2361 1.491 . S
C2356 H2347 0.950 . S
C2356 C2355 1.398 . S
C2356 C2357 1.391 . S
C2357 H2345 0.950 . S
C2357 C2353 1.393 . S
C2357 C2356 1.391 . S
C2358 H2348 0.950 . S
C2358 C2359 1.386 . S
C2358 C2360 1.391 . S
C2359 C2358 1.386 . S
C2359 C2363 1.393 . S
C2360 H2349 0.950 . S
C2360 C2358 1.391 . S
C2360 C2361 1.400 . S
C2361 C2355 1.491 . S
C2361 C2360 1.400 . S
C2361 C2362 1.398 . S
C2362 H2350 0.950 . S
C2362 C2361 1.398 . S
C2362 C2363 1.391 . S
C2363 H2351 0.950 . S
C2363 C2359 1.393 . S
C2363 C2362 1.391 . S
H2364 C2372 0.950 . S
H2365 C2377 0.950 . S
H2366 C2374 0.950 . S
H2367 C2376 0.950 . S
H2368 C2378 0.950 . S
H2369 C2380 0.950 . S
H2370 C2382 0.950 . S
H2371 C2383 0.950 . S
C2372 H2364 0.950 . S
C2372 C2373 1.386 . S
C2372 C2374 1.391 . S
C2373 C2372 1.386 . S
C2373 C2377 1.393 . S
C2374 H2366 0.950 . S
C2374 C2372 1.391 . S
C2374 C2375 1.400 . S
C2375 C2374 1.400 . S
C2375 C2376 1.398 . S
C2375 C2381 1.491 . S
C2376 H2367 0.950 . S
C2376 C2375 1.398 . S
C2376 C2377 1.391 . S
C2377 H2365 0.950 . S
C2377 C2373 1.393 . S
C2377 C2376 1.391 . S
C2378 H2368 0.950 . S
C2378 C2379 1.386 . S
C2378 C2380 1.391 . S
C2379 C2378 1.386 . S
C2379 C2383 1.393 . S
C2380 H2369 0.950 . S
C2380 C2378 1.391 . S
C2380 C2381 1.400 . S
C2381 C2375 1.491 . S
C2381 C2380 1.400 . S
C2381 C2382 1.398 . S
C2382 H2370 0.950 . S
C2382 C2381 1.398 . S
C2382 C2383 1.391 . S
C2383 H2371 0.950 . S
C2383 C2379 1.393 . S
C2383 C2382 1.391 . S
H2384 C2392 0.950 . S
H2385 C2397 0.950 . S
H2386 C2394 0.950 . S
H2387 C2396 0.950 . S
H2388 C2398 0.950 . S
H2389 C2400 0.950 . S
H2390 C2402 0.950 . S
H2391 C2403 0.950 . S
C2392 H2384 0.950 . S
C2392 C2393 1.386 . S
C2392 C2394 1.391 . S
C2393 C2392 1.386 . S
C2393 C2397 1.393 . S
C2394 H2386 0.950 . S
C2394 C2392 1.391 . S
C2394 C2395 1.400 . S
C2395 C2394 1.400 . S
C2395 C2396 1.398 . S
C2395 C2401 1.491 . S
C2396 H2387 0.950 . S
C2396 C2395 1.398 . S
C2396 C2397 1.391 . S
C2397 H2385 0.950 . S
C2397 C2393 1.393 . S
C2397 C2396 1.391 . S
C2398 H2388 0.950 . S
C2398 C2399 1.386 . S
C2398 C2400 1.391 . S
C2399 C2398 1.386 . S
C2399 C2403 1.393 . S
C2400 H2389 0.950 . S
C2400 C2398 1.391 . S
C2400 C2401 1.400 . S
C2401 C2395 1.491 . S
C2401 C2400 1.400 . S
C2401 C2402 1.398 . S
C2402 H2390 0.950 . S
C2402 C2401 1.398 . S
C2402 C2403 1.391 . S
C2403 H2391 0.950 . S
C2403 C2399 1.393 . S
C2403 C2402 1.391 . S
H2404 C2412 0.950 . S
H2405 C2417 0.950 . S
H2406 C2414 0.950 . S
H2407 C2416 0.950 . S
H2408 C2418 0.950 . S
H2409 C2420 0.950 . S
H2410 C2422 0.950 . S
H2411 C2423 0.950 . S
C2412 H2404 0.950 . S
C2412 C2413 1.386 . S
C2412 C2414 1.391 . S
C2413 C2412 1.386 . S
C2413 C2417 1.393 . S
C2414 H2406 0.950 . S
C2414 C2412 1.391 . S
C2414 C2415 1.400 . S
C2415 C2414 1.400 . S
C2415 C2416 1.398 . S
C2415 C2421 1.491 . S
C2416 H2407 0.950 . S
C2416 C2415 1.398 . S
C2416 C2417 1.391 . S
C2417 H2405 0.950 . S
C2417 C2413 1.393 . S
C2417 C2416 1.391 . S
C2418 H2408 0.950 . S
C2418 C2419 1.386 . S
C2418 C2420 1.391 . S
C2419 C2418 1.386 . S
C2419 C2423 1.393 . S
C2420 H2409 0.950 . S
C2420 C2418 1.391 . S
C2420 C2421 1.400 . S
C2421 C2415 1.491 . S
C2421 C2420 1.400 . S
C2421 C2422 1.398 . S
C2422 H2410 0.950 . S
C2422 C2421 1.398 . S
C2422 C2423 1.391 . S
C2423 H2411 0.950 . S
C2423 C2419 1.393 . S
C2423 C2422 1.391 . S
H2424 C2432 0.950 . S
H2425 C2437 0.950 . S
H2426 C2434 0.950 . S
H2427 C2436 0.950 . S
H2428 C2438 0.950 . S
H2429 C2440 0.950 . S
H2430 C2442 0.950 . S
H2431 C2443 0.950 . S
C2432 H2424 0.950 . S
C2432 C2433 1.386 . S
C2432 C2434 1.391 . S
C2433 C2432 1.386 . S
C2433 C2437 1.393 . S
C2434 H2426 0.950 . S
C2434 C2432 1.391 . S
C2434 C2435 1.400 . S
C2435 C2434 1.400 . S
C2435 C2436 1.398 . S
C2435 C2441 1.491 . S
C2436 H2427 0.950 . S
C2436 C2435 1.398 . S
C2436 C2437 1.391 . S
C2437 H2425 0.950 . S
C2437 C2433 1.393 . S
C2437 C2436 1.391 . S
C2438 H2428 0.950 . S
C2438 C2439 1.386 . S
C2438 C2440 1.391 . S
C2439 C2438 1.386 . S
C2439 C2443 1.393 . S
C2440 H2429 0.950 . S
C2440 C2438 1.391 . S
C2440 C2441 1.400 . S
C2441 C2435 1.491 . S
C2441 C2440 1.400 . S
C2441 C2442 1.398 . S
C2442 H2430 0.950 . S
C2442 C2441 1.398 . S
C2442 C2443 1.391 . S
C2443 H2431 0.950 . S
C2443 C2439 1.393 . S
C2443 C2442 1.391 . S
H2444 C2452 0.950 . S
H2445 C2457 0.950 . S
H2446 C2454 0.950 . S
H2447 C2456 0.950 . S
H2448 C2458 0.950 . S
H2449 C2460 0.950 . S
H2450 C2462 0.950 . S
H2451 C2463 0.950 . S
C2452 H2444 0.950 . S
C2452 C2453 1.386 . S
C2452 C2454 1.391 . S
C2453 C2452 1.386 . S
C2453 C2457 1.393 . S
C2454 H2446 0.950 . S
C2454 C2452 1.391 . S
C2454 C2455 1.400 . S
C2455 C2454 1.400 . S
C2455 C2456 1.398 . S
C2455 C2461 1.491 . S
C2456 H2447 0.950 . S
C2456 C2455 1.398 . S
C2456 C2457 1.391 . S
C2457 H2445 0.950 . S
C2457 C2453 1.393 . S
C2457 C2456 1.391 . S
C2458 H2448 0.950 . S
C2458 C2459 1.386 . S
C2458 C2460 1.391 . S
C2459 C2458 1.386 . S
C2459 C2463 1.393 . S
C2460 H2449 0.950 . S
C2460 C2458 1.391 . S
C2460 C2461 1.400 . S
C2461 C2455 1.491 . S
C2461 C2460 1.400 . S
C2461 C2462 1.398 . S
C2462 H2450 0.950 . S
C2462 C2461 1.398 . S
C2462 C2463 1.391 . S
C2463 H2451 0.950 . S
C2463 C2459 1.393 . S
C2463 C2462 1.391 . S
H2464 C2472 0.950 . S
H2465 C2477 0.950 . S
H2466 C2474 0.950 . S
H2467 C2476 0.950 . S
H2468 C2478 0.950 . S
H2469 C2480 0.950 . S
H2470 C2482 0.950 . S
H2471 C2483 0.950 . S
C2472 H2464 0.950 . S
C2472 C2473 1.386 . S
C2472 C2474 1.391 . S
C2473 C2472 1.386 . S
C2473 C2477 1.393 . S
C2474 H2466 0.950 . S
C2474 C2472 1.391 . S
C2474 C2475 1.400 . S
C2475 C2474 1.400 . S
C2475 C2476 1.398 . S
C2475 C2481 1.491 . S
C2476 H2467 0.950 . S
C2476 C2475 1.398 . S
C2476 C2477 1.391 . S
C2477 H2465 0.950 . S
C2477 C2473 1.393 . S
C2477 C2476 1.391 . S
C2478 H2468 0.950 . S
C2478 C2479 1.386 . S
C2478 C2480 1.391 . S
C2479 C2478 1.386 . S
C2479 C2483 1.393 . S
C2480 H2469 0.950 . S
C2480 C2478 1.391 . S
C2480 C2481 1.400 . S
C2481 C2475 1.491 . S
C2481 C2480 1.400 . S
C2481 C2482 1.398 . S
C2482 H2470 0.950 . S
C2482 C2481 1.398 . S
C2482 C2483 1.391 . S
C2483 H2471 0.950 . S
C2483 C2479 1.393 . S
C2483 C2482 1.391 . S
H2484 C2492 0.950 . S
H2485 C2497 0.950 . S
H2486 C2494 0.950 . S
H2487 C2496 0.950 . S
H2488 C2498 0.950 . S
H2489 C2500 0.950 . S
H2490 C2502 0.950 . S
H2491 C2503 0.950 . S
C2492 H2484 0.950 . S
C2492 C2493 1.386 . S
C2492 C2494 1.391 . S
C2493 C2492 1.386 . S
C2493 C2497 1.393 . S
C2494 H2486 0.950 . S
C2494 C2492 1.391 . S
C2494 C2495 1.400 . S
C2495 C2494 1.400 . S
C2495 C2496 1.398 . S
C2495 C2501 1.491 . S
C2496 H2487 0.950 . S
C2496 C2495 1.398 . S
C2496 C2497 1.391 . S
C2497 H2485 0.950 . S
C2497 C2493 1.393 . S
C2497 C2496 1.391 . S
C2498 H2488 0.950 . S
C2498 C2499 1.386 . S
C2498 C2500 1.391 . S
C2499 C2498 1.386 . S
C2499 C2503 1.393 . S
C2500 H2489 0.950 . S
C2500 C2498 1.391 . S
C2500 C2501 1.400 . S
C2501 C2495 1.491 . S
C2501 C2500 1.400 . S
C2501 C2502 1.398 . S
C2502 H2490 0.950 . S
C2502 C2501 1.398 . S
C2502 C2503 1.391 . S
C2503 H2491 0.950 . S
C2503 C2499 1.393 . S
C2503 C2502 1.391 . S
H2504 C2512 0.950 . S
H2505 C2517 0.950 . S
H2506 C2514 0.950 . S
H2507 C2516 0.950 . S
H2508 C2518 0.950 . S
H2509 C2520 0.950 . S
H2510 C2522 0.950 . S
H2511 C2523 0.950 . S
C2512 H2504 0.950 . S
C2512 C2513 1.386 . S
C2512 C2514 1.391 . S
C2513 C2512 1.386 . S
C2513 C2517 1.393 . S
C2514 H2506 0.950 . S
C2514 C2512 1.391 . S
C2514 C2515 1.400 . S
C2515 C2514 1.400 . S
C2515 C2516 1.398 . S
C2515 C2521 1.491 . S
C2516 H2507 0.950 . S
C2516 C2515 1.398 . S
C2516 C2517 1.391 . S
C2517 H2505 0.950 . S
C2517 C2513 1.393 . S
C2517 C2516 1.391 . S
C2518 H2508 0.950 . S
C2518 C2519 1.386 . S
C2518 C2520 1.391 . S
C2519 C2518 1.386 . S
C2519 C2523 1.393 . S
C2520 H2509 0.950 . S
C2520 C2518 1.391 . S
C2520 C2521 1.400 . S
C2521 C2515 1.491 . S
C2521 C2520 1.400 . S
C2521 C2522 1.398 . S
C2522 H2510 0.950 . S
C2522 C2521 1.398 . S
C2522 C2523 1.391 . S
C2523 H2511 0.950 . S
C2523 C2519 1.393 . S
C2523 C2522 1.391 . S
H2524 C2532 0.950 . S
H2525 C2537 0.950 . S
H2526 C2534 0.950 . S
H2527 C2536 0.950 . S
H2528 C2538 0.950 . S
H2529 C2540 0.950 . S
H2530 C2542 0.950 . S
H2531 C2543 0.950 . S
C2532 H2524 0.950 . S
C2532 C2533 1.386 . S
C2532 C2534 1.391 . S
C2533 C2532 1.386 . S
C2533 C2537 1.393 . S
C2534 H2526 0.950 . S
C2534 C2532 1.391 . S
C2534 C2535 1.400 . S
C2535 C2534 1.400 . S
C2535 C2536 1.398 . S
C2535 C2541 1.491 . S
C2536 H2527 0.950 . S
C2536 C2535 1.398 . S
C2536 C2537 1.391 . S
C2537 H2525 0.950 . S
C2537 C2533 1.393 . S
C2537 C2536 1.391 . S
C2538 H2528 0.950 . S
C2538 C2539 1.386 . S
C2538 C2540 1.391 . S
C2539 C2538 1.386 . S
C2539 C2543 1.393 . S
C2540 H2529 0.950 . S
C2540 C2538 1.391 . S
C2540 C2541 1.400 . S
C2541 C2535 1.491 . S
C2541 C2540 1.400 . S
C2541 C2542 1.398 . S
C2542 H2530 0.950 . S
C2542 C2541 1.398 . S
C2542 C2543 1.391 . S
C2543 H2531 0.950 . S
C2543 C2539 1.393 . S
C2543 C2542 1.391 . S
H2544 C2552 0.950 . S
H2545 C2557 0.950 . S
H2546 C2554 0.950 . S
H2547 C2556 0.950 . S
H2548 C2558 0.950 . S
H2549 C2560 0.950 . S
H2550 C2562 0.950 . S
H2551 C2563 0.950 . S
C2552 H2544 0.950 . S
C2552 C2553 1.386 . S
C2552 C2554 1.391 . S
C2553 C2552 1.386 . S
C2553 C2557 1.393 . S
C2554 H2546 0.950 . S
C2554 C2552 1.391 . S
C2554 C2555 1.400 . S
C2555 C2554 1.400 . S
C2555 C2556 1.398 . S
C2555 C2561 1.491 . S
C2556 H2547 0.950 . S
C2556 C2555 1.398 . S
C2556 C2557 1.391 . S
C2557 H2545 0.950 . S
C2557 C2553 1.393 . S
C2557 C2556 1.391 . S
C2558 H2548 0.950 . S
C2558 C2559 1.386 . S
C2558 C2560 1.391 . S
C2559 C2558 1.386 . S
C2559 C2563 1.393 . S
C2560 H2549 0.950 . S
C2560 C2558 1.391 . S
C2560 C2561 1.400 . S
C2561 C2555 1.491 . S
C2561 C2560 1.400 . S
C2561 C2562 1.398 . S
C2562 H2550 0.950 . S
C2562 C2561 1.398 . S
C2562 C2563 1.391 . S
C2563 H2551 0.950 . S
C2563 C2559 1.393 . S
C2563 C2562 1.391 . S
H2564 C2572 0.950 . S
H2565 C2577 0.950 . S
H2566 C2574 0.950 . S
H2567 C2576 0.950 . S
H2568 C2578 0.950 . S
H2569 C2580 0.950 . S
H2570 C2582 0.950 . S
H2571 C2583 0.950 . S
C2572 H2564 0.950 . S
C2572 C2573 1.386 . S
C2572 C2574 1.391 . S
C2573 C2572 1.386 . S
C2573 C2577 1.393 . S
C2574 H2566 0.950 . S
C2574 C2572 1.391 . S
C2574 C2575 1.400 . S
C2575 C2574 1.400 . S
C2575 C2576 1.398 . S
C2575 C2581 1.491 . S
C2576 H2567 0.950 . S
C2576 C2575 1.398 . S
C2576 C2577 1.391 . S
C2577 H2565 0.950 . S
C2577 C2573 1.393 . S
C2577 C2576 1.391 . S
C2578 H2568 0.950 . S
C2578 C2579 1.386 . S
C2578 C2580 1.391 . S
C2579 C2578 1.386 . S
C2579 C2583 1.393 . S
C2580 H2569 0.950 . S
C2580 C2578 1.391 . S
C2580 C2581 1.400 . S
C2581 C2575 1.491 . S
C2581 C2580 1.400 . S
C2581 C2582 1.398 . S
C2582 H2570 0.950 . S
C2582 C2581 1.398 . S
C2582 C2583 1.391 . S
C2583 H2571 0.950 . S
C2583 C2579 1.393 . S
C2583 C2582 1.391 . S
H2584 C2592 0.950 . S
H2585 C2597 0.950 . S
H2586 C2594 0.950 . S
H2587 C2596 0.950 . S
H2588 C2598 0.950 . S
H2589 C2600 0.950 . S
H2590 C2602 0.950 . S
H2591 C2603 0.950 . S
C2592 H2584 0.950 . S
C2592 C2593 1.386 . S
C2592 C2594 1.391 . S
C2593 C2592 1.386 . S
C2593 C2597 1.393 . S
C2594 H2586 0.950 . S
C2594 C2592 1.391 . S
C2594 C2595 1.400 . S
C2595 C2594 1.400 . S
C2595 C2596 1.398 . S
C2595 C2601 1.491 . S
C2596 H2587 0.950 . S
C2596 C2595 1.398 . S
C2596 C2597 1.391 . S
C2597 H2585 0.950 . S
C2597 C2593 1.393 . S
C2597 C2596 1.391 . S
C2598 H2588 0.950 . S
C2598 C2599 1.386 . S
C2598 C2600 1.391 . S
C2599 C2598 1.386 . S
C2599 C2603 1.393 . S
C2600 H2589 0.950 . S
C2600 C2598 1.391 . S
C2600 C2601 1.400 . S
C2601 C2595 1.491 . S
C2601 C2600 1.400 . S
C2601 C2602 1.398 . S
C2602 H2590 0.950 . S
C2602 C2601 1.398 . S
C2602 C2603 1.391 . S
C2603 H2591 0.950 . S
C2603 C2599 1.393 . S
C2603 C2602 1.391 . S
H2604 C2612 0.950 . S
H2605 C2617 0.950 . S
H2606 C2614 0.950 . S
H2607 C2616 0.950 . S
H2608 C2618 0.950 . S
H2609 C2620 0.950 . S
H2610 C2622 0.950 . S
H2611 C2623 0.950 . S
C2612 H2604 0.950 . S
C2612 C2613 1.386 . S
C2612 C2614 1.391 . S
C2613 C2612 1.386 . S
C2613 C2617 1.393 . S
C2614 H2606 0.950 . S
C2614 C2612 1.391 . S
C2614 C2615 1.400 . S
C2615 C2614 1.400 . S
C2615 C2616 1.398 . S
C2615 C2621 1.491 . S
C2616 H2607 0.950 . S
C2616 C2615 1.398 . S
C2616 C2617 1.391 . S
C2617 H2605 0.950 . S
C2617 C2613 1.393 . S
C2617 C2616 1.391 . S
C2618 H2608 0.950 . S
C2618 C2619 1.386 . S
C2618 C2620 1.391 . S
C2619 C2618 1.386 . S
C2619 C2623 1.393 . S
C2620 H2609 0.950 . S
C2620 C2618 1.391 . S
C2620 C2621 1.400 . S
C2621 C2615 1.491 . S
C2621 C2620 1.400 . S
C2621 C2622 1.398 . S
C2622 H2610 0.950 . S
C2622 C2621 1.398 . S
C2622 C2623 1.391 . S
C2623 H2611 0.950 . S
C2623 C2619 1.393 . S
C2623 C2622 1.391 . S
H2624 C2632 0.950 . S
H2625 C2637 0.950 . S
H2626 C2634 0.950 . S
H2627 C2636 0.950 . S
H2628 C2638 0.950 . S
H2629 C2640 0.950 . S
H2630 C2642 0.950 . S
H2631 C2643 0.950 . S
C2632 H2624 0.950 . S
C2632 C2633 1.386 . S
C2632 C2634 1.391 . S
C2633 C2632 1.386 . S
C2633 C2637 1.393 . S
C2634 H2626 0.950 . S
C2634 C2632 1.391 . S
C2634 C2635 1.400 . S
C2635 C2634 1.400 . S
C2635 C2636 1.398 . S
C2635 C2641 1.491 . S
C2636 H2627 0.950 . S
C2636 C2635 1.398 . S
C2636 C2637 1.391 . S
C2637 H2625 0.950 . S
C2637 C2633 1.393 . S
C2637 C2636 1.391 . S
C2638 H2628 0.950 . S
C2638 C2639 1.386 . S
C2638 C2640 1.391 . S
C2639 C2638 1.386 . S
C2639 C2643 1.393 . S
C2640 H2629 0.950 . S
C2640 C2638 1.391 . S
C2640 C2641 1.400 . S
C2641 C2635 1.491 . S
C2641 C2640 1.400 . S
C2641 C2642 1.398 . S
C2642 H2630 0.950 . S
C2642 C2641 1.398 . S
C2642 C2643 1.391 . S
C2643 H2631 0.950 . S
C2643 C2639 1.393 . S
C2643 C2642 1.391 . S
H2644 C2652 0.950 . S
H2645 C2657 0.950 . S
H2646 C2654 0.950 . S
H2647 C2656 0.950 . S
H2648 C2658 0.950 . S
H2649 C2660 0.950 . S
H2650 C2662 0.950 . S
H2651 C2663 0.950 . S
C2652 H2644 0.950 . S
C2652 C2653 1.386 . S
C2652 C2654 1.391 . S
C2653 C2652 1.386 . S
C2653 C2657 1.393 . S
C2654 H2646 0.950 . S
C2654 C2652 1.391 . S
C2654 C2655 1.400 . S
C2655 C2654 1.400 . S
C2655 C2656 1.398 . S
C2655 C2661 1.491 . S
C2656 H2647 0.950 . S
C2656 C2655 1.398 . S
C2656 C2657 1.391 . S
C2657 H2645 0.950 . S
C2657 C2653 1.393 . S
C2657 C2656 1.391 . S
C2658 H2648 0.950 . S
C2658 C2659 1.386 . S
C2658 C2660 1.391 . S
C2659 C2658 1.386 . S
C2659 C2663 1.393 . S
C2660 H2649 0.950 . S
C2660 C2658 1.391 . S
C2660 C2661 1.400 . S
C2661 C2655 1.491 . S
C2661 C2660 1.400 . S
C2661 C2662 1.398 . S
C2662 H2650 0.950 . S
C2662 C2661 1.398 . S
C2662 C2663 1.391 . S
C2663 H2651 0.950 . S
C2663 C2659 1.393 . S
C2663 C2662 1.391 . S
H2664 C2672 0.950 . S
H2665 C2677 0.950 . S
H2666 C2674 0.950 . S
H2667 C2676 0.950 . S
H2668 C2678 0.950 . S
H2669 C2680 0.950 . S
H2670 C2682 0.950 . S
H2671 C2683 0.950 . S
C2672 H2664 0.950 . S
C2672 C2673 1.386 . S
C2672 C2674 1.391 . S
C2673 C2672 1.386 . S
C2673 C2677 1.393 . S
C2674 H2666 0.950 . S
C2674 C2672 1.391 . S
C2674 C2675 1.400 . S
C2675 C2674 1.400 . S
C2675 C2676 1.398 . S
C2675 C2681 1.491 . S
C2676 H2667 0.950 . S
C2676 C2675 1.398 . S
C2676 C2677 1.391 . S
C2677 H2665 0.950 . S
C2677 C2673 1.393 . S
C2677 C2676 1.391 . S
C2678 H2668 0.950 . S
C2678 C2679 1.386 . S
C2678 C2680 1.391 . S
C2679 C2678 1.386 . S
C2679 C2683 1.393 . S
C2680 H2669 0.950 . S
C2680 C2678 1.391 . S
C2680 C2681 1.400 . S
C2681 C2675 1.491 . S
C2681 C2680 1.400 . S
C2681 C2682 1.398 . S
C2682 H2670 0.950 . S
C2682 C2681 1.398 . S
C2682 C2683 1.391 . S
C2683 H2671 0.950 . S
C2683 C2679 1.393 . S
C2683 C2682 1.391 . S
H2684 C2692 0.950 . S
H2685 C2697 0.950 . S
H2686 C2694 0.950 . S
H2687 C2696 0.950 . S
H2688 C2698 0.950 . S
H2689 C2700 0.950 . S
H2690 C2702 0.950 . S
H2691 C2703 0.950 . S
C2692 H2684 0.950 . S
C2692 C2693 1.386 . S
C2692 C2694 1.391 . S
C2693 C2692 1.386 . S
C2693 C2697 1.393 . S
C2694 H2686 0.950 . S
C2694 C2692 1.391 . S
C2694 C2695 1.400 . S
C2695 C2694 1.400 . S
C2695 C2696 1.398 . S
C2695 C2701 1.491 . S
C2696 H2687 0.950 . S
C2696 C2695 1.398 . S
C2696 C2697 1.391 . S
C2697 H2685 0.950 . S
C2697 C2693 1.393 . S
C2697 C2696 1.391 . S
C2698 H2688 0.950 . S
C2698 C2699 1.386 . S
C2698 C2700 1.391 . S
C2699 C2698 1.386 . S
C2699 C2703 1.393 . S
C2700 H2689 0.950 . S
C2700 C2698 1.391 . S
C2700 C2701 1.400 . S
C2701 C2695 1.491 . S
C2701 C2700 1.400 . S
C2701 C2702 1.398 . S
C2702 H2690 0.950 . S
C2702 C2701 1.398 . S
C2702 C2703 1.391 . S
C2703 H2691 0.950 . S
C2703 C2699 1.393 . S
C2703 C2702 1.391 . S
H2704 C2712 0.950 . S
H2705 C2717 0.950 . S
H2706 C2714 0.950 . S
H2707 C2716 0.950 . S
H2708 C2718 0.950 . S
H2709 C2720 0.950 . S
H2710 C2722 0.950 . S
H2711 C2723 0.950 . S
C2712 H2704 0.950 . S
C2712 C2713 1.386 . S
C2712 C2714 1.391 . S
C2713 C2712 1.386 . S
C2713 C2717 1.393 . S
C2714 H2706 0.950 . S
C2714 C2712 1.391 . S
C2714 C2715 1.400 . S
C2715 C2714 1.400 . S
C2715 C2716 1.398 . S
C2715 C2721 1.491 . S
C2716 H2707 0.950 . S
C2716 C2715 1.398 . S
C2716 C2717 1.391 . S
C2717 H2705 0.950 . S
C2717 C2713 1.393 . S
C2717 C2716 1.391 . S
C2718 H2708 0.950 . S
C2718 C2719 1.386 . S
C2718 C2720 1.391 . S
C2719 C2718 1.386 . S
C2719 C2723 1.393 . S
C2720 H2709 0.950 . S
C2720 C2718 1.391 . S
C2720 C2721 1.400 . S
C2721 C2715 1.491 . S
C2721 C2720 1.400 . S
C2721 C2722 1.398 . S
C2722 H2710 0.950 . S
C2722 C2721 1.398 . S
C2722 C2723 1.391 . S
C2723 H2711 0.950 . S
C2723 C2719 1.393 . S
C2723 C2722 1.391 . S
H2724 C2732 0.950 . S
H2725 C2737 0.950 . S
H2726 C2734 0.950 . S
H2727 C2736 0.950 . S
H2728 C2738 0.950 . S
H2729 C2740 0.950 . S
H2730 C2742 0.950 . S
H2731 C2743 0.950 . S
C2732 H2724 0.950 . S
C2732 C2733 1.386 . S
C2732 C2734 1.391 . S
C2733 C2732 1.386 . S
C2733 C2737 1.393 . S
C2734 H2726 0.950 . S
C2734 C2732 1.391 . S
C2734 C2735 1.400 . S
C2735 C2734 1.400 . S
C2735 C2736 1.398 . S
C2735 C2741 1.491 . S
C2736 H2727 0.950 . S
C2736 C2735 1.398 . S
C2736 C2737 1.391 . S
C2737 H2725 0.950 . S
C2737 C2733 1.393 . S
C2737 C2736 1.391 . S
C2738 H2728 0.950 . S
C2738 C2739 1.386 . S
C2738 C2740 1.391 . S
C2739 C2738 1.386 . S
C2739 C2743 1.393 . S
C2740 H2729 0.950 . S
C2740 C2738 1.391 . S
C2740 C2741 1.400 . S
C2741 C2735 1.491 . S
C2741 C2740 1.400 . S
C2741 C2742 1.398 . S
C2742 H2730 0.950 . S
C2742 C2741 1.398 . S
C2742 C2743 1.391 . S
C2743 H2731 0.950 . S
C2743 C2739 1.393 . S
C2743 C2742 1.391 . S
H2744 C2752 0.950 . S
H2745 C2757 0.950 . S
H2746 C2754 0.950 . S
H2747 C2756 0.950 . S
H2748 C2758 0.950 . S
H2749 C2760 0.950 . S
H2750 C2762 0.950 . S
H2751 C2763 0.950 . S
C2752 H2744 0.950 . S
C2752 C2753 1.386 . S
C2752 C2754 1.391 . S
C2753 C2752 1.386 . S
C2753 C2757 1.393 . S
C2754 H2746 0.950 . S
C2754 C2752 1.391 . S
C2754 C2755 1.400 . S
C2755 C2754 1.400 . S
C2755 C2756 1.398 . S
C2755 C2761 1.491 . S
C2756 H2747 0.950 . S
C2756 C2755 1.398 . S
C2756 C2757 1.391 . S
C2757 H2745 0.950 . S
C2757 C2753 1.393 . S
C2757 C2756 1.391 . S
C2758 H2748 0.950 . S
C2758 C2759 1.386 . S
C2758 C2760 1.391 . S
C2759 C2758 1.386 . S
C2759 C2763 1.393 . S
C2760 H2749 0.950 . S
C2760 C2758 1.391 . S
C2760 C2761 1.400 . S
C2761 C2755 1.491 . S
C2761 C2760 1.400 . S
C2761 C2762 1.398 . S
C2762 H2750 0.950 . S
C2762 C2761 1.398 . S
C2762 C2763 1.391 . S
C2763 H2751 0.950 . S
C2763 C2759 1.393 . S
C2763 C2762 1.391 . S
H2764 C2772 0.950 . S
H2765 C2777 0.950 . S
H2766 C2774 0.950 . S
H2767 C2776 0.950 . S
H2768 C2778 0.950 . S
H2769 C2780 0.950 . S
H2770 C2782 0.950 . S
H2771 C2783 0.950 . S
C2772 H2764 0.950 . S
C2772 C2773 1.386 . S
C2772 C2774 1.391 . S
C2773 C2772 1.386 . S
C2773 C2777 1.393 . S
C2774 H2766 0.950 . S
C2774 C2772 1.391 . S
C2774 C2775 1.400 . S
C2775 C2774 1.400 . S
C2775 C2776 1.398 . S
C2775 C2781 1.491 . S
C2776 H2767 0.950 . S
C2776 C2775 1.398 . S
C2776 C2777 1.391 . S
C2777 H2765 0.950 . S
C2777 C2773 1.393 . S
C2777 C2776 1.391 . S
C2778 H2768 0.950 . S
C2778 C2779 1.386 . S
C2778 C2780 1.391 . S
C2779 C2778 1.386 . S
C2779 C2783 1.393 . S
C2780 H2769 0.950 . S
C2780 C2778 1.391 . S
C2780 C2781 1.400 . S
C2781 C2775 1.491 . S
C2781 C2780 1.400 . S
C2781 C2782 1.398 . S
C2782 H2770 0.950 . S
C2782 C2781 1.398 . S
C2782 C2783 1.391 . S
C2783 H2771 0.950 . S
C2783 C2779 1.393 . S
C2783 C2782 1.391 . S
H2784 C2792 0.950 . S
H2785 C2797 0.950 . S
H2786 C2794 0.950 . S
H2787 C2796 0.950 . S
H2788 C2798 0.950 . S
H2789 C2800 0.950 . S
H2790 C2802 0.950 . S
H2791 C2803 0.950 . S
C2792 H2784 0.950 . S
C2792 C2793 1.386 . S
C2792 C2794 1.391 . S
C2793 C2792 1.386 . S
C2793 C2797 1.393 . S
C2794 H2786 0.950 . S
C2794 C2792 1.391 . S
C2794 C2795 1.400 . S
C2795 C2794 1.400 . S
C2795 C2796 1.398 . S
C2795 C2801 1.491 . S
C2796 H2787 0.950 . S
C2796 C2795 1.398 . S
C2796 C2797 1.391 . S
C2797 H2785 0.950 . S
C2797 C2793 1.393 . S
C2797 C2796 1.391 . S
C2798 H2788 0.950 . S
C2798 C2799 1.386 . S
C2798 C2800 1.391 . S
C2799 C2798 1.386 . S
C2799 C2803 1.393 . S
C2800 H2789 0.950 . S
C2800 C2798 1.391 . S
C2800 C2801 1.400 . S
C2801 C2795 1.491 . S
C2801 C2800 1.400 . S
C2801 C2802 1.398 . S
C2802 H2790 0.950 . S
C2802 C2801 1.398 . S
C2802 C2803 1.391 . S
C2803 H2791 0.950 . S
C2803 C2799 1.393 . S
C2803 C2802 1.391 . S
H2804 C2812 0.950 . S
H2805 C2817 0.950 . S
H2806 C2814 0.950 . S
H2807 C2816 0.950 . S
H2808 C2818 0.950 . S
H2809 C2820 0.950 . S
H2810 C2822 0.950 . S
H2811 C2823 0.950 . S
C2812 H2804 0.950 . S
C2812 C2813 1.386 . S
C2812 C2814 1.391 . S
C2813 C2812 1.386 . S
C2813 C2817 1.393 . S
C2814 H2806 0.950 . S
C2814 C2812 1.391 . S
C2814 C2815 1.400 . S
C2815 C2814 1.400 . S
C2815 C2816 1.398 . S
C2815 C2821 1.491 . S
C2816 H2807 0.950 . S
C2816 C2815 1.398 . S
C2816 C2817 1.391 . S
C2817 H2805 0.950 . S
C2817 C2813 1.393 . S
C2817 C2816 1.391 . S
C2818 H2808 0.950 . S
C2818 C2819 1.386 . S
C2818 C2820 1.391 . S
C2819 C2818 1.386 . S
C2819 C2823 1.393 . S
C2820 H2809 0.950 . S
C2820 C2818 1.391 . S
C2820 C2821 1.400 . S
C2821 C2815 1.491 . S
C2821 C2820 1.400 . S
C2821 C2822 1.398 . S
C2822 H2810 0.950 . S
C2822 C2821 1.398 . S
C2822 C2823 1.391 . S
C2823 H2811 0.950 . S
C2823 C2819 1.393 . S
C2823 C2822 1.391 . S
H2824 C2832 0.950 . S
H2825 C2837 0.950 . S
H2826 C2834 0.950 . S
H2827 C2836 0.950 . S
H2828 C2838 0.950 . S
H2829 C2840 0.950 . S
H2830 C2842 0.950 . S
H2831 C2843 0.950 . S
C2832 H2824 0.950 . S
C2832 C2833 1.386 . S
C2832 C2834 1.391 . S
C2833 C2832 1.386 . S
C2833 C2837 1.393 . S
C2834 H2826 0.950 . S
C2834 C2832 1.391 . S
C2834 C2835 1.400 . S
C2835 C2834 1.400 . S
C2835 C2836 1.398 . S
C2835 C2841 1.491 . S
C2836 H2827 0.950 . S
C2836 C2835 1.398 . S
C2836 C2837 1.391 . S
C2837 H2825 0.950 . S
C2837 C2833 1.393 . S
C2837 C2836 1.391 . S
C2838 H2828 0.950 . S
C2838 C2839 1.386 . S
C2838 C2840 1.391 . S
C2839 C2838 1.386 . S
C2839 C2843 1.393 . S
C2840 H2829 0.950 . S
C2840 C2838 1.391 . S
C2840 C2841 1.400 . S
C2841 C2835 1.491 . S
C2841 C2840 1.400 . S
C2841 C2842 1.398 . S
C2842 H2830 0.950 . S
C2842 C2841 1.398 . S
C2842 C2843 1.391 . S
C2843 H2831 0.950 . S
C2843 C2839 1.393 . S
C2843 C2842 1.391 . S
H2844 C2852 0.950 . S
H2845 C2857 0.950 . S
H2846 C2854 0.950 . S
H2847 C2856 0.950 . S
H2848 C2858 0.950 . S
H2849 C2860 0.950 . S
H2850 C2862 0.950 . S
H2851 C2863 0.950 . S
C2852 H2844 0.950 . S
C2852 C2853 1.386 . S
C2852 C2854 1.391 . S
C2853 C2852 1.386 . S
C2853 C2857 1.393 . S
C2854 H2846 0.950 . S
C2854 C2852 1.391 . S
C2854 C2855 1.400 . S
C2855 C2854 1.400 . S
C2855 C2856 1.398 . S
C2855 C2861 1.491 . S
C2856 H2847 0.950 . S
C2856 C2855 1.398 . S
C2856 C2857 1.391 . S
C2857 H2845 0.950 . S
C2857 C2853 1.393 . S
C2857 C2856 1.391 . S
C2858 H2848 0.950 . S
C2858 C2859 1.386 . S
C2858 C2860 1.391 . S
C2859 C2858 1.386 . S
C2859 C2863 1.393 . S
C2860 H2849 0.950 . S
C2860 C2858 1.391 . S
C2860 C2861 1.400 . S
C2861 C2855 1.491 . S
C2861 C2860 1.400 . S
C2861 C2862 1.398 . S
C2862 H2850 0.950 . S
C2862 C2861 1.398 . S
C2862 C2863 1.391 . S
C2863 H2851 0.950 . S
C2863 C2859 1.393 . S
C2863 C2862 1.391 . S
H2864 C2872 0.950 . S
H2865 C2877 0.950 . S
H2866 C2874 0.950 . S
H2867 C2876 0.950 . S
H2868 C2878 0.950 . S
H2869 C2880 0.950 . S
H2870 C2882 0.950 . S
H2871 C2883 0.950 . S
C2872 H2864 0.950 . S
C2872 C2873 1.386 . S
C2872 C2874 1.391 . S
C2873 C2872 1.386 . S
C2873 C2877 1.393 . S
C2874 H2866 0.950 . S
C2874 C2872 1.391 . S
C2874 C2875 1.400 . S
C2875 C2874 1.400 . S
C2875 C2876 1.398 . S
C2875 C2881 1.491 . S
C2876 H2867 0.950 . S
C2876 C2875 1.398 . S
C2876 C2877 1.391 . S
C2877 H2865 0.950 . S
C2877 C2873 1.393 . S
C2877 C2876 1.391 . S
C2878 H2868 0.950 . S
C2878 C2879 1.386 . S
C2878 C2880 1.391 . S
C2879 C2878 1.386 . S
C2879 C2883 1.393 . S
C2880 H2869 0.950 . S
C2880 C2878 1.391 . S
C2880 C2881 1.400 . S
C2881 C2875 1.491 . S
C2881 C2880 1.400 . S
C2881 C2882 1.398 . S
C2882 H2870 0.950 . S
C2882 C2881 1.398 . S
C2882 C2883 1.391 . S
C2883 H2871 0.950 . S
C2883 C2879 1.393 . S
C2883 C2882 1.391 . S
H2884 C2892 0.950 . S
H2885 C2897 0.950 . S
H2886 C2894 0.950 . S
H2887 C2896 0.950 . S
H2888 C2898 0.950 . S
H2889 C2900 0.950 . S
H2890 C2902 0.950 . S
H2891 C2903 0.950 . S
C2892 H2884 0.950 . S
C2892 C2893 1.386 . S
C2892 C2894 1.391 . S
C2893 C2892 1.386 . S
C2893 C2897 1.393 . S
C2894 H2886 0.950 . S
C2894 C2892 1.391 . S
C2894 C2895 1.400 . S
C2895 C2894 1.400 . S
C2895 C2896 1.398 . S
C2895 C2901 1.491 . S
C2896 H2887 0.950 . S
C2896 C2895 1.398 . S
C2896 C2897 1.391 . S
C2897 H2885 0.950 . S
C2897 C2893 1.393 . S
C2897 C2896 1.391 . S
C2898 H2888 0.950 . S
C2898 C2899 1.386 . S
C2898 C2900 1.391 . S
C2899 C2898 1.386 . S
C2899 C2903 1.393 . S
C2900 H2889 0.950 . S
C2900 C2898 1.391 . S
C2900 C2901 1.400 . S
C2901 C2895 1.491 . S
C2901 C2900 1.400 . S
C2901 C2902 1.398 . S
C2902 H2890 0.950 . S
C2902 C2901 1.398 . S
C2902 C2903 1.391 . S
C2903 H2891 0.950 . S
C2903 C2899 1.393 . S
C2903 C2902 1.391 . S
H2904 C2912 0.950 . S
H2905 C2917 0.950 . S
H2906 C2914 0.950 . S
H2907 C2916 0.950 . S
H2908 C2918 0.950 . S
H2909 C2920 0.950 . S
H2910 C2922 0.950 . S
H2911 C2923 0.950 . S
C2912 H2904 0.950 . S
C2912 C2913 1.386 . S
C2912 C2914 1.391 . S
C2913 C2912 1.386 . S
C2913 C2917 1.393 . S
C2914 H2906 0.950 . S
C2914 C2912 1.391 . S
C2914 C2915 1.400 . S
C2915 C2914 1.400 . S
C2915 C2916 1.398 . S
C2915 C2921 1.491 . S
C2916 H2907 0.950 . S
C2916 C2915 1.398 . S
C2916 C2917 1.391 . S
C2917 H2905 0.950 . S
C2917 C2913 1.393 . S
C2917 C2916 1.391 . S
C2918 H2908 0.950 . S
C2918 C2919 1.386 . S
C2918 C2920 1.391 . S
C2919 C2918 1.386 . S
C2919 C2923 1.393 . S
C2920 H2909 0.950 . S
C2920 C2918 1.391 . S
C2920 C2921 1.400 . S
C2921 C2915 1.491 . S
C2921 C2920 1.400 . S
C2921 C2922 1.398 . S
C2922 H2910 0.950 . S
C2922 C2921 1.398 . S
C2922 C2923 1.391 . S
C2923 H2911 0.950 . S
C2923 C2919 1.393 . S
C2923 C2922 1.391 . S
H2924 C2932 0.950 . S
H2925 C2937 0.950 . S
H2926 C2934 0.950 . S
H2927 C2936 0.950 . S
H2928 C2938 0.950 . S
H2929 C2940 0.950 . S
H2930 C2942 0.950 . S
H2931 C2943 0.950 . S
C2932 H2924 0.950 . S
C2932 C2933 1.386 . S
C2932 C2934 1.391 . S
C2933 C2932 1.386 . S
C2933 C2937 1.393 . S
C2934 H2926 0.950 . S
C2934 C2932 1.391 . S
C2934 C2935 1.400 . S
C2935 C2934 1.400 . S
C2935 C2936 1.398 . S
C2935 C2941 1.491 . S
C2936 H2927 0.950 . S
C2936 C2935 1.398 . S
C2936 C2937 1.391 . S
C2937 H2925 0.950 . S
C2937 C2933 1.393 . S
C2937 C2936 1.391 . S
C2938 H2928 0.950 . S
C2938 C2939 1.386 . S
C2938 C2940 1.391 . S
C2939 C2938 1.386 . S
C2939 C2943 1.393 . S
C2940 H2929 0.950 . S
C2940 C2938 1.391 . S
C2940 C2941 1.400 . S
C2941 C2935 1.491 . S
C2941 C2940 1.400 . S
C2941 C2942 1.398 . S
C2942 H2930 0.950 . S
C2942 C2941 1.398 . S
C2942 C2943 1.391 . S
C2943 H2931 0.950 . S
C2943 C2939 1.393 . S
C2943 C2942 1.391 . S
H2944 C2952 0.950 . S
H2945 C2957 0.950 . S
H2946 C2954 0.950 . S
H2947 C2956 0.950 . S
H2948 C2958 0.950 . S
H2949 C2960 0.950 . S
H2950 C2962 0.950 . S
H2951 C2963 0.950 . S
C2952 H2944 0.950 . S
C2952 C2953 1.386 . S
C2952 C2954 1.391 . S
C2953 C2952 1.386 . S
C2953 C2957 1.393 . S
C2954 H2946 0.950 . S
C2954 C2952 1.391 . S
C2954 C2955 1.400 . S
C2955 C2954 1.400 . S
C2955 C2956 1.398 . S
C2955 C2961 1.491 . S
C2956 H2947 0.950 . S
C2956 C2955 1.398 . S
C2956 C2957 1.391 . S
C2957 H2945 0.950 . S
C2957 C2953 1.393 . S
C2957 C2956 1.391 . S
C2958 H2948 0.950 . S
C2958 C2959 1.386 . S
C2958 C2960 1.391 . S
C2959 C2958 1.386 . S
C2959 C2963 1.393 . S
C2960 H2949 0.950 . S
C2960 C2958 1.391 . S
C2960 C2961 1.400 . S
C2961 C2955 1.491 . S
C2961 C2960 1.400 . S
C2961 C2962 1.398 . S
C2962 H2950 0.950 . S
C2962 C2961 1.398 . S
C2962 C2963 1.391 . S
C2963 H2951 0.950 . S
C2963 C2959 1.393 . S
C2963 C2962 1.391 . S
H2964 C2972 0.950 . S
H2965 C2977 0.950 . S
H2966 C2974 0.950 . S
H2967 C2976 0.950 . S
H2968 C2978 0.950 . S
H2969 C2980 0.950 . S
H2970 C2982 0.950 . S
H2971 C2983 0.950 . S
C2972 H2964 0.950 . S
C2972 C2973 1.386 . S
C2972 C2974 1.391 . S
C2973 C2972 1.386 . S
C2973 C2977 1.393 . S
C2974 H2966 0.950 . S
C2974 C2972 1.391 . S
C2974 C2975 1.400 . S
C2975 C2974 1.400 . S
C2975 C2976 1.398 . S
C2975 C2981 1.491 . S
C2976 H2967 0.950 . S
C2976 C2975 1.398 . S
C2976 C2977 1.391 . S
C2977 H2965 0.950 . S
C2977 C2973 1.393 . S
C2977 C2976 1.391 . S
C2978 H2968 0.950 . S
C2978 C2979 1.386 . S
C2978 C2980 1.391 . S
C2979 C2978 1.386 . S
C2979 C2983 1.393 . S
C2980 H2969 0.950 . S
C2980 C2978 1.391 . S
C2980 C2981 1.400 . S
C2981 C2975 1.491 . S
C2981 C2980 1.400 . S
C2981 C2982 1.398 . S
C2982 H2970 0.950 . S
C2982 C2981 1.398 . S
C2982 C2983 1.391 . S
C2983 H2971 0.950 . S
C2983 C2979 1.393 . S
C2983 C2982 1.391 . S
H2984 C2992 0.950 . S
H2985 C2997 0.950 . S
H2986 C2994 0.950 . S
H2987 C2996 0.950 . S
H2988 C2998 0.950 . S
H2989 C3000 0.950 . S
H2990 C3002 0.950 . S
H2991 C3003 0.950 . S
C2992 H2984 0.950 . S
C2992 C2993 1.386 . S
C2992 C2994 1.391 . S
C2993 C2992 1.386 . S
C2993 C2997 1.393 . S
C2994 H2986 0.950 . S
C2994 C2992 1.391 . S
C2994 C2995 1.400 . S
C2995 C2994 1.400 . S
C2995 C2996 1.398 . S
C2995 C3001 1.491 . S
C2996 H2987 0.950 . S
C2996 C2995 1.398 . S
C2996 C2997 1.391 . S
C2997 H2985 0.950 . S
C2997 C2993 1.393 . S
C2997 C2996 1.391 . S
C2998 H2988 0.950 . S
C2998 C2999 1.386 . S
C2998 C3000 1.391 . S
C2999 C2998 1.386 . S
C2999 C3003 1.393 . S
C3000 H2989 0.950 . S
C3000 C2998 1.391 . S
C3000 C3001 1.400 . S
C3001 C2995 1.491 . S
C3001 C3000 1.400 . S
C3001 C3002 1.398 . S
C3002 H2990 0.950 . S
C3002 C3001 1.398 . S
C3002 C3003 1.391 . S
C3003 H2991 0.950 . S
C3003 C2999 1.393 . S
C3003 C3002 1.391 . S
H3004 C3012 0.950 . S
H3005 C3017 0.950 . S
H3006 C3014 0.950 . S
H3007 C3016 0.950 . S
H3008 C3018 0.950 . S
H3009 C3020 0.950 . S
H3010 C3022 0.950 . S
H3011 C3023 0.950 . S
C3012 H3004 0.950 . S
C3012 C3013 1.386 . S
C3012 C3014 1.391 . S
C3013 C3012 1.386 . S
C3013 C3017 1.393 . S
C3014 H3006 0.950 . S
C3014 C3012 1.391 . S
C3014 C3015 1.400 . S
C3015 C3014 1.400 . S
C3015 C3016 1.398 . S
C3015 C3021 1.491 . S
C3016 H3007 0.950 . S
C3016 C3015 1.398 . S
C3016 C3017 1.391 . S
C3017 H3005 0.950 . S
C3017 C3013 1.393 . S
C3017 C3016 1.391 . S
C3018 H3008 0.950 . S
C3018 C3019 1.386 . S
C3018 C3020 1.391 . S
C3019 C3018 1.386 . S
C3019 C3023 1.393 . S
C3020 H3009 0.950 . S
C3020 C3018 1.391 . S
C3020 C3021 1.400 . S
C3021 C3015 1.491 . S
C3021 C3020 1.400 . S
C3021 C3022 1.398 . S
C3022 H3010 0.950 . S
C3022 C3021 1.398 . S
C3022 C3023 1.391 . S
C3023 H3011 0.950 . S
C3023 C3019 1.393 . S
C3023 C3022 1.391 . S
H3024 C3032 0.950 . S
H3025 C3037 0.950 . S
H3026 C3034 0.950 . S
H3027 C3036 0.950 . S
H3028 C3038 0.950 . S
H3029 C3040 0.950 . S
H3030 C3042 0.950 . S
H3031 C3043 0.950 . S
C3032 H3024 0.950 . S
C3032 C3033 1.386 . S
C3032 C3034 1.391 . S
C3033 C3032 1.386 . S
C3033 C3037 1.393 . S
C3034 H3026 0.950 . S
C3034 C3032 1.391 . S
C3034 C3035 1.400 . S
C3035 C3034 1.400 . S
C3035 C3036 1.398 . S
C3035 C3041 1.491 . S
C3036 H3027 0.950 . S
C3036 C3035 1.398 . S
C3036 C3037 1.391 . S
C3037 H3025 0.950 . S
C3037 C3033 1.393 . S
C3037 C3036 1.391 . S
C3038 H3028 0.950 . S
C3038 C3039 1.386 . S
C3038 C3040 1.391 . S
C3039 C3038 1.386 . S
C3039 C3043 1.393 . S
C3040 H3029 0.950 . S
C3040 C3038 1.391 . S
C3040 C3041 1.400 . S
C3041 C3035 1.491 . S
C3041 C3040 1.400 . S
C3041 C3042 1.398 . S
C3042 H3030 0.950 . S
C3042 C3041 1.398 . S
C3042 C3043 1.391 . S
C3043 H3031 0.950 . S
C3043 C3039 1.393 . S
C3043 C3042 1.391 . S
H3044 C3052 0.950 . S
H3045 C3057 0.950 . S
H3046 C3054 0.950 . S
H3047 C3056 0.950 . S
H3048 C3058 0.950 . S
H3049 C3060 0.950 . S
H3050 C3062 0.950 . S
H3051 C3063 0.950 . S
C3052 H3044 0.950 . S
C3052 C3053 1.386 . S
C3052 C3054 1.391 . S
C3053 C3052 1.386 . S
C3053 C3057 1.393 . S
C3054 H3046 0.950 . S
C3054 C3052 1.391 . S
C3054 C3055 1.400 . S
C3055 C3054 1.400 . S
C3055 C3056 1.398 . S
C3055 C3061 1.491 . S
C3056 H3047 0.950 . S
C3056 C3055 1.398 . S
C3056 C3057 1.391 . S
C3057 H3045 0.950 . S
C3057 C3053 1.393 . S
C3057 C3056 1.391 . S
C3058 H3048 0.950 . S
C3058 C3059 1.386 . S
C3058 C3060 1.391 . S
C3059 C3058 1.386 . S
C3059 C3063 1.393 . S
C3060 H3049 0.950 . S
C3060 C3058 1.391 . S
C3060 C3061 1.400 . S
C3061 C3055 1.491 . S
C3061 C3060 1.400 . S
C3061 C3062 1.398 . S
C3062 H3050 0.950 . S
C3062 C3061 1.398 . S
C3062 C3063 1.391 . S
C3063 H3051 0.950 . S
C3063 C3059 1.393 . S
C3063 C3062 1.391 . S
H3064 C3072 0.950 . S
H3065 C3077 0.950 . S
H3066 C3074 0.950 . S
H3067 C3076 0.950 . S
H3068 C3078 0.950 . S
H3069 C3080 0.950 . S
H3070 C3082 0.950 . S
H3071 C3083 0.950 . S
C3072 H3064 0.950 . S
C3072 C3073 1.386 . S
C3072 C3074 1.391 . S
C3073 C3072 1.386 . S
C3073 C3077 1.393 . S
C3074 H3066 0.950 . S
C3074 C3072 1.391 . S
C3074 C3075 1.400 . S
C3075 C3074 1.400 . S
C3075 C3076 1.398 . S
C3075 C3081 1.491 . S
C3076 H3067 0.950 . S
C3076 C3075 1.398 . S
C3076 C3077 1.391 . S
C3077 H3065 0.950 . S
C3077 C3073 1.393 . S
C3077 C3076 1.391 . S
C3078 H3068 0.950 . S
C3078 C3079 1.386 . S
C3078 C3080 1.391 . S
C3079 C3078 1.386 . S
C3079 C3083 1.393 . S
C3080 H3069 0.950 . S
C3080 C3078 1.391 . S
C3080 C3081 1.400 . S
C3081 C3075 1.491 . S
C3081 C3080 1.400 . S
C3081 C3082 1.398 . S
C3082 H3070 0.950 . S
C3082 C3081 1.398 . S
C3082 C3083 1.391 . S
C3083 H3071 0.950 . S
C3083 C3079 1.393 . S
C3083 C3082 1.391 . S
H3084 C3092 0.950 . S
H3085 C3097 0.950 . S
H3086 C3094 0.950 . S
H3087 C3096 0.950 . S
H3088 C3098 0.950 . S
H3089 C3100 0.950 . S
H3090 C3102 0.950 . S
H3091 C3103 0.950 . S
C3092 H3084 0.950 . S
C3092 C3093 1.386 . S
C3092 C3094 1.391 . S
C3093 C3092 1.386 . S
C3093 C3097 1.393 . S
C3094 H3086 0.950 . S
C3094 C3092 1.391 . S
C3094 C3095 1.400 . S
C3095 C3094 1.400 . S
C3095 C3096 1.398 . S
C3095 C3101 1.491 . S
C3096 H3087 0.950 . S
C3096 C3095 1.398 . S
C3096 C3097 1.391 . S
C3097 H3085 0.950 . S
C3097 C3093 1.393 . S
C3097 C3096 1.391 . S
C3098 H3088 0.950 . S
C3098 C3099 1.386 . S
C3098 C3100 1.391 . S
C3099 C3098 1.386 . S
C3099 C3103 1.393 . S
C3100 H3089 0.950 . S
C3100 C3098 1.391 . S
C3100 C3101 1.400 . S
C3101 C3095 1.491 . S
C3101 C3100 1.400 . S
C3101 C3102 1.398 . S
C3102 H3090 0.950 . S
C3102 C3101 1.398 . S
C3102 C3103 1.391 . S
C3103 H3091 0.950 . S
C3103 C3099 1.393 . S
C3103 C3102 1.391 . S
H3104 C3112 0.950 . S
H3105 C3117 0.950 . S
H3106 C3114 0.950 . S
H3107 C3116 0.950 . S
H3108 C3118 0.950 . S
H3109 C3120 0.950 . S
H3110 C3122 0.950 . S
H3111 C3123 0.950 . S
C3112 H3104 0.950 . S
C3112 C3113 1.386 . S
C3112 C3114 1.391 . S
C3113 C3112 1.386 . S
C3113 C3117 1.393 . S
C3114 H3106 0.950 . S
C3114 C3112 1.391 . S
C3114 C3115 1.400 . S
C3115 C3114 1.400 . S
C3115 C3116 1.398 . S
C3115 C3121 1.491 . S
C3116 H3107 0.950 . S
C3116 C3115 1.398 . S
C3116 C3117 1.391 . S
C3117 H3105 0.950 . S
C3117 C3113 1.393 . S
C3117 C3116 1.391 . S
C3118 H3108 0.950 . S
C3118 C3119 1.386 . S
C3118 C3120 1.391 . S
C3119 C3118 1.386 . S
C3119 C3123 1.393 . S
C3120 H3109 0.950 . S
C3120 C3118 1.391 . S
C3120 C3121 1.400 . S
C3121 C3115 1.491 . S
C3121 C3120 1.400 . S
C3121 C3122 1.398 . S
C3122 H3110 0.950 . S
C3122 C3121 1.398 . S
C3122 C3123 1.391 . S
C3123 H3111 0.950 . S
C3123 C3119 1.393 . S
C3123 C3122 1.391 . S
H3124 C3132 0.950 . S
H3125 C3137 0.950 . S
H3126 C3134 0.950 . S
H3127 C3136 0.950 . S
H3128 C3138 0.950 . S
H3129 C3140 0.950 . S
H3130 C3142 0.950 . S
H3131 C3143 0.950 . S
C3132 H3124 0.950 . S
C3132 C3133 1.386 . S
C3132 C3134 1.391 . S
C3133 C3132 1.386 . S
C3133 C3137 1.393 . S
C3134 H3126 0.950 . S
C3134 C3132 1.391 . S
C3134 C3135 1.400 . S
C3135 C3134 1.400 . S
C3135 C3136 1.398 . S
C3135 C3141 1.491 . S
C3136 H3127 0.950 . S
C3136 C3135 1.398 . S
C3136 C3137 1.391 . S
C3137 H3125 0.950 . S
C3137 C3133 1.393 . S
C3137 C3136 1.391 . S
C3138 H3128 0.950 . S
C3138 C3139 1.386 . S
C3138 C3140 1.391 . S
C3139 C3138 1.386 . S
C3139 C3143 1.393 . S
C3140 H3129 0.950 . S
C3140 C3138 1.391 . S
C3140 C3141 1.400 . S
C3141 C3135 1.491 . S
C3141 C3140 1.400 . S
C3141 C3142 1.398 . S
C3142 H3130 0.950 . S
C3142 C3141 1.398 . S
C3142 C3143 1.391 . S
C3143 H3131 0.950 . S
C3143 C3139 1.393 . S
C3143 C3142 1.391 . S
H3144 C3152 0.950 . S
H3145 C3157 0.950 . S
H3146 C3154 0.950 . S
H3147 C3156 0.950 . S
H3148 C3158 0.950 . S
H3149 C3160 0.950 . S
H3150 C3162 0.950 . S
H3151 C3163 0.950 . S
C3152 H3144 0.950 . S
C3152 C3153 1.386 . S
C3152 C3154 1.391 . S
C3153 C3152 1.386 . S
C3153 C3157 1.393 . S
C3154 H3146 0.950 . S
C3154 C3152 1.391 . S
C3154 C3155 1.400 . S
C3155 C3154 1.400 . S
C3155 C3156 1.398 . S
C3155 C3161 1.491 . S
C3156 H3147 0.950 . S
C3156 C3155 1.398 . S
C3156 C3157 1.391 . S
C3157 H3145 0.950 . S
C3157 C3153 1.393 . S
C3157 C3156 1.391 . S
C3158 H3148 0.950 . S
C3158 C3159 1.386 . S
C3158 C3160 1.391 . S
C3159 C3158 1.386 . S
C3159 C3163 1.393 . S
C3160 H3149 0.950 . S
C3160 C3158 1.391 . S
C3160 C3161 1.400 . S
C3161 C3155 1.491 . S
C3161 C3160 1.400 . S
C3161 C3162 1.398 . S
C3162 H3150 0.950 . S
C3162 C3161 1.398 . S
C3162 C3163 1.391 . S
C3163 H3151 0.950 . S
C3163 C3159 1.393 . S
C3163 C3162 1.391 . S
H3164 C3172 0.950 . S
H3165 C3177 0.950 . S
H3166 C3174 0.950 . S
H3167 C3176 0.950 . S
H3168 C3178 0.950 . S
H3169 C3180 0.950 . S
H3170 C3182 0.950 . S
H3171 C3183 0.950 . S
C3172 H3164 0.950 . S
C3172 C3173 1.386 . S
C3172 C3174 1.391 . S
C3173 C3172 1.386 . S
C3173 C3177 1.393 . S
C3174 H3166 0.950 . S
C3174 C3172 1.391 . S
C3174 C3175 1.400 . S
C3175 C3174 1.400 . S
C3175 C3176 1.398 . S
C3175 C3181 1.491 . S
C3176 H3167 0.950 . S
C3176 C3175 1.398 . S
C3176 C3177 1.391 . S
C3177 H3165 0.950 . S
C3177 C3173 1.393 . S
C3177 C3176 1.391 . S
C3178 H3168 0.950 . S
C3178 C3179 1.386 . S
C3178 C3180 1.391 . S
C3179 C3178 1.386 . S
C3179 C3183 1.393 . S
C3180 H3169 0.950 . S
C3180 C3178 1.391 . S
C3180 C3181 1.400 . S
C3181 C3175 1.491 . S
C3181 C3180 1.400 . S
C3181 C3182 1.398 . S
C3182 H3170 0.950 . S
C3182 C3181 1.398 . S
C3182 C3183 1.391 . S
C3183 H3171 0.950 . S
C3183 C3179 1.393 . S
C3183 C3182 1.391 . S
H3184 C3192 0.950 . S
H3185 C3197 0.950 . S
H3186 C3194 0.950 . S
H3187 C3196 0.950 . S
H3188 C3198 0.950 . S
H3189 C3200 0.950 . S
H3190 C3202 0.950 . S
H3191 C3203 0.950 . S
C3192 H3184 0.950 . S
C3192 C3193 1.386 . S
C3192 C3194 1.391 . S
C3193 C3192 1.386 . S
C3193 C3197 1.393 . S
C3194 H3186 0.950 . S
C3194 C3192 1.391 . S
C3194 C3195 1.400 . S
C3195 C3194 1.400 . S
C3195 C3196 1.398 . S
C3195 C3201 1.491 . S
C3196 H3187 0.950 . S
C3196 C3195 1.398 . S
C3196 C3197 1.391 . S
C3197 H3185 0.950 . S
C3197 C3193 1.393 . S
C3197 C3196 1.391 . S
C3198 H3188 0.950 . S
C3198 C3199 1.386 . S
C3198 C3200 1.391 . S
C3199 C3198 1.386 . S
C3199 C3203 1.393 . S
C3200 H3189 0.950 . S
C3200 C3198 1.391 . S
C3200 C3201 1.400 . S
C3201 C3195 1.491 . S
C3201 C3200 1.400 . S
C3201 C3202 1.398 . S
C3202 H3190 0.950 . S
C3202 C3201 1.398 . S
C3202 C3203 1.391 . S
C3203 H3191 0.950 . S
C3203 C3199 1.393 . S
C3203 C3202 1.391 . S
H3204 C3212 0.950 . S
H3205 C3217 0.950 . S
H3206 C3214 0.950 . S
H3207 C3216 0.950 . S
H3208 C3218 0.950 . S
H3209 C3220 0.950 . S
H3210 C3222 0.950 . S
H3211 C3223 0.950 . S
C3212 H3204 0.950 . S
C3212 C3213 1.386 . S
C3212 C3214 1.391 . S
C3213 C3212 1.386 . S
C3213 C3217 1.393 . S
C3214 H3206 0.950 . S
C3214 C3212 1.391 . S
C3214 C3215 1.400 . S
C3215 C3214 1.400 . S
C3215 C3216 1.398 . S
C3215 C3221 1.491 . S
C3216 H3207 0.950 . S
C3216 C3215 1.398 . S
C3216 C3217 1.391 . S
C3217 H3205 0.950 . S
C3217 C3213 1.393 . S
C3217 C3216 1.391 . S
C3218 H3208 0.950 . S
C3218 C3219 1.386 . S
C3218 C3220 1.391 . S
C3219 C3218 1.386 . S
C3219 C3223 1.393 . S
C3220 H3209 0.950 . S
C3220 C3218 1.391 . S
C3220 C3221 1.400 . S
C3221 C3215 1.491 . S
C3221 C3220 1.400 . S
C3221 C3222 1.398 . S
C3222 H3210 0.950 . S
C3222 C3221 1.398 . S
C3222 C3223 1.391 . S
C3223 H3211 0.950 . S
C3223 C3219 1.393 . S
C3223 C3222 1.391 . S
H3224 C3232 0.950 . S
H3225 C3237 0.950 . S
H3226 C3234 0.950 . S
H3227 C3236 0.950 . S
H3228 C3238 0.950 . S
H3229 C3240 0.950 . S
H3230 C3242 0.950 . S
H3231 C3243 0.950 . S
C3232 H3224 0.950 . S
C3232 C3233 1.386 . S
C3232 C3234 1.391 . S
C3233 C3232 1.386 . S
C3233 C3237 1.393 . S
C3234 H3226 0.950 . S
C3234 C3232 1.391 . S
C3234 C3235 1.400 . S
C3235 C3234 1.400 . S
C3235 C3236 1.398 . S
C3235 C3241 1.491 . S
C3236 H3227 0.950 . S
C3236 C3235 1.398 . S
C3236 C3237 1.391 . S
C3237 H3225 0.950 . S
C3237 C3233 1.393 . S
C3237 C3236 1.391 . S
C3238 H3228 0.950 . S
C3238 C3239 1.386 . S
C3238 C3240 1.391 . S
C3239 C3238 1.386 . S
C3239 C3243 1.393 . S
C3240 H3229 0.950 . S
C3240 C3238 1.391 . S
C3240 C3241 1.400 . S
C3241 C3235 1.491 . S
C3241 C3240 1.400 . S
C3241 C3242 1.398 . S
C3242 H3230 0.950 . S
C3242 C3241 1.398 . S
C3242 C3243 1.391 . S
C3243 H3231 0.950 . S
C3243 C3239 1.393 . S
C3243 C3242 1.391 . S
H3244 C3252 0.950 . S
H3245 C3257 0.950 . S
H3246 C3254 0.950 . S
H3247 C3256 0.950 . S
H3248 C3258 0.950 . S
H3249 C3260 0.950 . S
H3250 C3262 0.950 . S
H3251 C3263 0.950 . S
C3252 H3244 0.950 . S
C3252 C3253 1.386 . S
C3252 C3254 1.391 . S
C3253 C3252 1.386 . S
C3253 C3257 1.393 . S
C3254 H3246 0.950 . S
C3254 C3252 1.391 . S
C3254 C3255 1.400 . S
C3255 C3254 1.400 . S
C3255 C3256 1.398 . S
C3255 C3261 1.491 . S
C3256 H3247 0.950 . S
C3256 C3255 1.398 . S
C3256 C3257 1.391 . S
C3257 H3245 0.950 . S
C3257 C3253 1.393 . S
C3257 C3256 1.391 . S
C3258 H3248 0.950 . S
C3258 C3259 1.386 . S
C3258 C3260 1.391 . S
C3259 C3258 1.386 . S
C3259 C3263 1.393 . S
C3260 H3249 0.950 . S
C3260 C3258 1.391 . S
C3260 C3261 1.400 . S
C3261 C3255 1.491 . S
C3261 C3260 1.400 . S
C3261 C3262 1.398 . S
C3262 H3250 0.950 . S
C3262 C3261 1.398 . S
C3262 C3263 1.391 . S
C3263 H3251 0.950 . S
C3263 C3259 1.393 . S
C3263 C3262 1.391 . S
H3264 C3272 0.950 . S
H3265 C3277 0.950 . S
H3266 C3274 0.950 . S
H3267 C3276 0.950 . S
H3268 C3278 0.950 . S
H3269 C3280 0.950 . S
H3270 C3282 0.950 . S
H3271 C3283 0.950 . S
C3272 H3264 0.950 . S
C3272 C3273 1.386 . S
C3272 C3274 1.391 . S
C3273 C3272 1.386 . S
C3273 C3277 1.393 . S
C3274 H3266 0.950 . S
C3274 C3272 1.391 . S
C3274 C3275 1.400 . S
C3275 C3274 1.400 . S
C3275 C3276 1.398 . S
C3275 C3281 1.491 1_455 S
C3276 H3267 0.950 . S
C3276 C3275 1.398 . S
C3276 C3277 1.391 . S
C3277 H3265 0.950 . S
C3277 C3273 1.393 . S
C3277 C3276 1.391 . S
C3278 H3268 0.950 . S
C3278 C3279 1.386 . S
C3278 C3280 1.391 . S
C3279 C3278 1.386 . S
C3279 C3283 1.393 . S
C3280 H3269 0.950 . S
C3280 C3278 1.391 . S
C3280 C3281 1.400 . S
C3281 C3275 1.491 1_655 S
C3281 C3280 1.400 . S
C3281 C3282 1.398 . S
C3282 H3270 0.950 . S
C3282 C3281 1.398 . S
C3282 C3283 1.391 . S
C3283 H3271 0.950 . S
C3283 C3279 1.393 . S
C3283 C3282 1.391 . S
H3284 C3292 0.950 . S
H3285 C3297 0.950 . S
H3286 C3294 0.950 . S
H3287 C3296 0.950 . S
H3288 C3298 0.950 . S
H3289 C3300 0.950 . S
H3290 C3302 0.950 . S
H3291 C3303 0.950 . S
C3292 H3284 0.950 . S
C3292 C3293 1.386 . S
C3292 C3294 1.391 . S
C3293 C3292 1.386 . S
C3293 C3297 1.393 . S
C3294 H3286 0.950 . S
C3294 C3292 1.391 . S
C3294 C3295 1.400 . S
C3295 C3294 1.400 . S
C3295 C3296 1.398 . S
C3295 C3301 1.491 1_565 S
C3296 H3287 0.950 . S
C3296 C3295 1.398 . S
C3296 C3297 1.391 . S
C3297 H3285 0.950 . S
C3297 C3293 1.393 . S
C3297 C3296 1.391 . S
C3298 H3288 0.950 . S
C3298 C3299 1.386 . S
C3298 C3300 1.391 . S
C3299 C3298 1.386 . S
C3299 C3303 1.393 . S
C3300 H3289 0.950 . S
C3300 C3298 1.391 . S
C3300 C3301 1.400 . S
C3301 C3295 1.491 1_545 S
C3301 C3300 1.400 . S
C3301 C3302 1.398 . S
C3302 H3290 0.950 . S
C3302 C3301 1.398 . S
C3302 C3303 1.391 . S
C3303 H3291 0.950 . S
C3303 C3299 1.393 . S
C3303 C3302 1.391 . S
H3304 C3312 0.950 . S
H3305 C3317 0.950 . S
H3306 C3314 0.950 . S
H3307 C3316 0.950 . S
H3308 C3318 0.950 . S
H3309 C3320 0.950 . S
H3310 C3322 0.950 . S
H3311 C3323 0.950 . S
C3312 H3304 0.950 . S
C3312 C3313 1.386 . S
C3312 C3314 1.391 . S
C3313 C3312 1.386 . S
C3313 C3317 1.393 . S
C3314 H3306 0.950 . S
C3314 C3312 1.391 . S
C3314 C3315 1.400 . S
C3315 C3314 1.400 . S
C3315 C3316 1.398 . S
C3315 C3321 1.491 1_655 S
C3316 H3307 0.950 . S
C3316 C3315 1.398 . S
C3316 C3317 1.391 . S
C3317 H3305 0.950 . S
C3317 C3313 1.393 . S
C3317 C3316 1.391 . S
C3318 H3308 0.950 . S
C3318 C3319 1.386 . S
C3318 C3320 1.391 . S
C3319 C3318 1.386 . S
C3319 C3323 1.393 . S
C3320 H3309 0.950 . S
C3320 C3318 1.391 . S
C3320 C3321 1.400 . S
C3321 C3315 1.491 1_455 S
C3321 C3320 1.400 . S
C3321 C3322 1.398 . S
C3322 H3310 0.950 . S
C3322 C3321 1.398 . S
C3322 C3323 1.391 . S
C3323 H3311 0.950 . S
C3323 C3319 1.393 . S
C3323 C3322 1.391 . S
H3324 C3332 0.950 . S
H3325 C3337 0.950 . S
H3326 C3334 0.950 . S
H3327 C3336 0.950 . S
H3328 C3338 0.950 . S
H3329 C3340 0.950 . S
H3330 C3342 0.950 . S
H3331 C3343 0.950 . S
C3332 H3324 0.950 . S
C3332 C3333 1.386 . S
C3332 C3334 1.391 . S
C3333 C3332 1.386 . S
C3333 C3337 1.393 . S
C3334 H3326 0.950 . S
C3334 C3332 1.391 . S
C3334 C3335 1.400 . S
C3335 C3334 1.400 . S
C3335 C3336 1.398 . S
C3335 C3341 1.491 1_545 S
C3336 H3327 0.950 . S
C3336 C3335 1.398 . S
C3336 C3337 1.391 . S
C3337 H3325 0.950 . S
C3337 C3333 1.393 . S
C3337 C3336 1.391 . S
C3338 H3328 0.950 . S
C3338 C3339 1.386 . S
C3338 C3340 1.391 . S
C3339 C3338 1.386 . S
C3339 C3343 1.393 . S
C3340 H3329 0.950 . S
C3340 C3338 1.391 . S
C3340 C3341 1.400 . S
C3341 C3335 1.491 1_565 S
C3341 C3340 1.400 . S
C3341 C3342 1.398 . S
C3342 H3330 0.950 . S
C3342 C3341 1.398 . S
C3342 C3343 1.391 . S
C3343 H3331 0.950 . S
C3343 C3339 1.393 . S
C3343 C3342 1.391 . S
H3344 C3352 0.950 . S
H3345 C3357 0.950 . S
H3346 C3354 0.950 . S
H3347 C3356 0.950 . S
H3348 C3358 0.950 . S
H3349 C3360 0.950 . S
H3350 C3362 0.950 . S
H3351 C3363 0.950 . S
C3352 H3344 0.950 . S
C3352 C3353 1.386 . S
C3352 C3354 1.391 . S
C3353 C3352 1.386 . S
C3353 C3357 1.393 . S
C3354 H3346 0.950 . S
C3354 C3352 1.391 . S
C3354 C3355 1.400 . S
C3355 C3354 1.400 . S
C3355 C3356 1.398 . S
C3355 C3361 1.491 1_455 S
C3356 H3347 0.950 . S
C3356 C3355 1.398 . S
C3356 C3357 1.391 . S
C3357 H3345 0.950 . S
C3357 C3353 1.393 . S
C3357 C3356 1.391 . S
C3358 H3348 0.950 . S
C3358 C3359 1.386 . S
C3358 C3360 1.391 . S
C3359 C3358 1.386 . S
C3359 C3363 1.393 . S
C3360 H3349 0.950 . S
C3360 C3358 1.391 . S
C3360 C3361 1.400 . S
C3361 C3355 1.491 1_655 S
C3361 C3360 1.400 . S
C3361 C3362 1.398 . S
C3362 H3350 0.950 . S
C3362 C3361 1.398 . S
C3362 C3363 1.391 . S
C3363 H3351 0.950 . S
C3363 C3359 1.393 . S
C3363 C3362 1.391 . S
H3364 C3372 0.950 . S
H3365 C3377 0.950 . S
H3366 C3374 0.950 . S
H3367 C3376 0.950 . S
H3368 C3378 0.950 . S
H3369 C3380 0.950 . S
H3370 C3382 0.950 . S
H3371 C3383 0.950 . S
C3372 H3364 0.950 . S
C3372 C3373 1.386 . S
C3372 C3374 1.391 . S
C3373 C3372 1.386 . S
C3373 C3377 1.393 . S
C3374 H3366 0.950 . S
C3374 C3372 1.391 . S
C3374 C3375 1.400 . S
C3375 C3374 1.400 . S
C3375 C3376 1.398 . S
C3375 C3381 1.491 1_545 S
C3376 H3367 0.950 . S
C3376 C3375 1.398 . S
C3376 C3377 1.391 . S
C3377 H3365 0.950 . S
C3377 C3373 1.393 . S
C3377 C3376 1.391 . S
C3378 H3368 0.950 . S
C3378 C3379 1.386 . S
C3378 C3380 1.391 . S
C3379 C3378 1.386 . S
C3379 C3383 1.393 . S
C3380 H3369 0.950 . S
C3380 C3378 1.391 . S
C3380 C3381 1.400 . S
C3381 C3375 1.491 1_565 S
C3381 C3380 1.400 . S
C3381 C3382 1.398 . S
C3382 H3370 0.950 . S
C3382 C3381 1.398 . S
C3382 C3383 1.391 . S
C3383 H3371 0.950 . S
C3383 C3379 1.393 . S
C3383 C3382 1.391 . S
H3384 C3392 0.950 . S
H3385 C3397 0.950 . S
H3386 C3394 0.950 . S
H3387 C3396 0.950 . S
H3388 C3398 0.950 . S
H3389 C3400 0.950 . S
H3390 C3402 0.950 . S
H3391 C3403 0.950 . S
C3392 H3384 0.950 . S
C3392 C3393 1.386 . S
C3392 C3394 1.391 . S
C3393 C3392 1.386 . S
C3393 C3397 1.393 . S
C3394 H3386 0.950 . S
C3394 C3392 1.391 . S
C3394 C3395 1.400 . S
C3395 C3394 1.400 . S
C3395 C3396 1.398 . S
C3395 C3401 1.491 1_655 S
C3396 H3387 0.950 . S
C3396 C3395 1.398 . S
C3396 C3397 1.391 . S
C3397 H3385 0.950 . S
C3397 C3393 1.393 . S
C3397 C3396 1.391 . S
C3398 H3388 0.950 . S
C3398 C3399 1.386 . S
C3398 C3400 1.391 . S
C3399 C3398 1.386 . S
C3399 C3403 1.393 . S
C3400 H3389 0.950 . S
C3400 C3398 1.391 . S
C3400 C3401 1.400 . S
C3401 C3395 1.491 1_455 S
C3401 C3400 1.400 . S
C3401 C3402 1.398 . S
C3402 H3390 0.950 . S
C3402 C3401 1.398 . S
C3402 C3403 1.391 . S
C3403 H3391 0.950 . S
C3403 C3399 1.393 . S
C3403 C3402 1.391 . S
H3404 C3412 0.950 . S
H3405 C3417 0.950 . S
H3406 C3414 0.950 . S
H3407 C3416 0.950 . S
H3408 C3418 0.950 . S
H3409 C3420 0.950 . S
H3410 C3422 0.950 . S
H3411 C3423 0.950 . S
C3412 H3404 0.950 . S
C3412 C3413 1.386 . S
C3412 C3414 1.391 . S
C3413 C3412 1.386 . S
C3413 C3417 1.393 . S
C3414 H3406 0.950 . S
C3414 C3412 1.391 . S
C3414 C3415 1.400 . S
C3415 C3414 1.400 . S
C3415 C3416 1.398 . S
C3415 C3421 1.491 1_545 S
C3416 H3407 0.950 . S
C3416 C3415 1.398 . S
C3416 C3417 1.391 . S
C3417 H3405 0.950 . S
C3417 C3413 1.393 . S
C3417 C3416 1.391 . S
C3418 H3408 0.950 . S
C3418 C3419 1.386 . S
C3418 C3420 1.391 . S
C3419 C3418 1.386 . S
C3419 C3423 1.393 . S
C3420 H3409 0.950 . S
C3420 C3418 1.391 . S
C3420 C3421 1.400 . S
C3421 C3415 1.491 1_565 S
C3421 C3420 1.400 . S
C3421 C3422 1.398 . S
C3422 H3410 0.950 . S
C3422 C3421 1.398 . S
C3422 C3423 1.391 . S
C3423 H3411 0.950 . S
C3423 C3419 1.393 . S
C3423 C3422 1.391 . S
H3424 C3432 0.950 . S
H3425 C3437 0.950 . S
H3426 C3434 0.950 . S
H3427 C3436 0.950 . S
H3428 C3438 0.950 . S
H3429 C3440 0.950 . S
H3430 C3442 0.950 . S
H3431 C3443 0.950 . S
C3432 H3424 0.950 . S
C3432 C3433 1.386 . S
C3432 C3434 1.391 . S
C3433 C3432 1.386 . S
C3433 C3437 1.393 . S
C3434 H3426 0.950 . S
C3434 C3432 1.391 . S
C3434 C3435 1.400 . S
C3435 C3434 1.400 . S
C3435 C3436 1.398 . S
C3435 C3441 1.491 1_565 S
C3436 H3427 0.950 . S
C3436 C3435 1.398 . S
C3436 C3437 1.391 . S
C3437 H3425 0.950 . S
C3437 C3433 1.393 . S
C3437 C3436 1.391 . S
C3438 H3428 0.950 . S
C3438 C3439 1.386 . S
C3438 C3440 1.391 . S
C3439 C3438 1.386 . S
C3439 C3443 1.393 . S
C3440 H3429 0.950 . S
C3440 C3438 1.391 . S
C3440 C3441 1.400 . S
C3441 C3435 1.491 1_545 S
C3441 C3440 1.400 . S
C3441 C3442 1.398 . S
C3442 H3430 0.950 . S
C3442 C3441 1.398 . S
C3442 C3443 1.391 . S
C3443 H3431 0.950 . S
C3443 C3439 1.393 . S
C3443 C3442 1.391 . S
H3444 C3452 0.950 . S
H3445 C3457 0.950 . S
H3446 C3454 0.950 . S
H3447 C3456 0.950 . S
H3448 C3458 0.950 . S
H3449 C3460 0.950 . S
H3450 C3462 0.950 . S
H3451 C3463 0.950 . S
C3452 H3444 0.950 . S
C3452 C3453 1.386 . S
C3452 C3454 1.391 . S
C3453 C3452 1.386 . S
C3453 C3457 1.393 . S
C3454 H3446 0.950 . S
C3454 C3452 1.391 . S
C3454 C3455 1.400 . S
C3455 C3454 1.400 . S
C3455 C3456 1.398 . S
C3455 C3461 1.491 1_655 S
C3456 H3447 0.950 . S
C3456 C3455 1.398 . S
C3456 C3457 1.391 . S
C3457 H3445 0.950 . S
C3457 C3453 1.393 . S
C3457 C3456 1.391 . S
C3458 H3448 0.950 . S
C3458 C3459 1.386 . S
C3458 C3460 1.391 . S
C3459 C3458 1.386 . S
C3459 C3463 1.393 . S
C3460 H3449 0.950 . S
C3460 C3458 1.391 . S
C3460 C3461 1.400 . S
C3461 C3455 1.491 1_455 S
C3461 C3460 1.400 . S
C3461 C3462 1.398 . S
C3462 H3450 0.950 . S
C3462 C3461 1.398 . S
C3462 C3463 1.391 . S
C3463 H3451 0.950 . S
C3463 C3459 1.393 . S
C3463 C3462 1.391 . S
H3464 C3472 0.950 . S
H3465 C3477 0.950 . S
H3466 C3474 0.950 . S
H3467 C3476 0.950 . S
H3468 C3478 0.950 . S
H3469 C3480 0.950 . S
H3470 C3482 0.950 . S
H3471 C3483 0.950 . S
C3472 H3464 0.950 . S
C3472 C3473 1.386 . S
C3472 C3474 1.391 . S
C3473 C3472 1.386 . S
C3473 C3477 1.393 . S
C3474 H3466 0.950 . S
C3474 C3472 1.391 . S
C3474 C3475 1.400 . S
C3475 C3474 1.400 . S
C3475 C3476 1.398 . S
C3475 C3481 1.491 1_565 S
C3476 H3467 0.950 . S
C3476 C3475 1.398 . S
C3476 C3477 1.391 . S
C3477 H3465 0.950 . S
C3477 C3473 1.393 . S
C3477 C3476 1.391 . S
C3478 H3468 0.950 . S
C3478 C3479 1.386 . S
C3478 C3480 1.391 . S
C3479 C3478 1.386 . S
C3479 C3483 1.393 . S
C3480 H3469 0.950 . S
C3480 C3478 1.391 . S
C3480 C3481 1.400 . S
C3481 C3475 1.491 1_545 S
C3481 C3480 1.400 . S
C3481 C3482 1.398 . S
C3482 H3470 0.950 . S
C3482 C3481 1.398 . S
C3482 C3483 1.391 . S
C3483 H3471 0.950 . S
C3483 C3479 1.393 . S
C3483 C3482 1.391 . S
H3484 C3492 0.950 . S
H3485 C3497 0.950 . S
H3486 C3494 0.950 . S
H3487 C3496 0.950 . S
H3488 C3498 0.950 . S
H3489 C3500 0.950 . S
H3490 C3502 0.950 . S
H3491 C3503 0.950 . S
C3492 H3484 0.950 . S
C3492 C3493 1.386 . S
C3492 C3494 1.391 . S
C3493 C3492 1.386 . S
C3493 C3497 1.393 . S
C3494 H3486 0.950 . S
C3494 C3492 1.391 . S
C3494 C3495 1.400 . S
C3495 C3494 1.400 . S
C3495 C3496 1.398 . S
C3495 C3501 1.491 1_455 S
C3496 H3487 0.950 . S
C3496 C3495 1.398 . S
C3496 C3497 1.391 . S
C3497 H3485 0.950 . S
C3497 C3493 1.393 . S
C3497 C3496 1.391 . S
C3498 H3488 0.950 . S
C3498 C3499 1.386 . S
C3498 C3500 1.391 . S
C3499 C3498 1.386 . S
C3499 C3503 1.393 . S
C3500 H3489 0.950 . S
C3500 C3498 1.391 . S
C3500 C3501 1.400 . S
C3501 C3495 1.491 1_655 S
C3501 C3500 1.400 . S
C3501 C3502 1.398 . S
C3502 H3490 0.950 . S
C3502 C3501 1.398 . S
C3502 C3503 1.391 . S
C3503 H3491 0.950 . S
C3503 C3499 1.393 . S
C3503 C3502 1.391 . S
H3504 C3512 0.950 . S
H3505 C3517 0.950 . S
H3506 C3514 0.950 . S
H3507 C3516 0.950 . S
H3508 C3518 0.950 . S
H3509 C3520 0.950 . S
H3510 C3522 0.950 . S
H3511 C3523 0.950 . S
C3512 H3504 0.950 . S
C3512 C3513 1.386 . S
C3512 C3514 1.391 . S
C3513 C3512 1.386 . S
C3513 C3517 1.393 . S
C3514 H3506 0.950 . S
C3514 C3512 1.391 . S
C3514 C3515 1.400 . S
C3515 C3514 1.400 . S
C3515 C3516 1.398 . S
C3515 C3521 1.491 1_565 S
C3516 H3507 0.950 . S
C3516 C3515 1.398 . S
C3516 C3517 1.391 . S
C3517 H3505 0.950 . S
C3517 C3513 1.393 . S
C3517 C3516 1.391 . S
C3518 H3508 0.950 . S
C3518 C3519 1.386 . S
C3518 C3520 1.391 . S
C3519 C3518 1.386 . S
C3519 C3523 1.393 . S
C3520 H3509 0.950 . S
C3520 C3518 1.391 . S
C3520 C3521 1.400 . S
C3521 C3515 1.491 1_545 S
C3521 C3520 1.400 . S
C3521 C3522 1.398 . S
C3522 H3510 0.950 . S
C3522 C3521 1.398 . S
C3522 C3523 1.391 . S
C3523 H3511 0.950 . S
C3523 C3519 1.393 . S
C3523 C3522 1.391 . S
H3524 C3532 0.950 . S
H3525 C3537 0.950 . S
H3526 C3534 0.950 . S
H3527 C3536 0.950 . S
H3528 C3538 0.950 . S
H3529 C3540 0.950 . S
H3530 C3542 0.950 . S
H3531 C3543 0.950 . S
C3532 H3524 0.950 . S
C3532 C3533 1.386 . S
C3532 C3534 1.391 . S
C3533 C3532 1.386 . S
C3533 C3537 1.393 . S
C3534 H3526 0.950 . S
C3534 C3532 1.391 . S
C3534 C3535 1.400 . S
C3535 C3534 1.400 . S
C3535 C3536 1.398 . S
C3535 C3541 1.491 1_455 S
C3536 H3527 0.950 . S
C3536 C3535 1.398 . S
C3536 C3537 1.391 . S
C3537 H3525 0.950 . S
C3537 C3533 1.393 . S
C3537 C3536 1.391 . S
C3538 H3528 0.950 . S
C3538 C3539 1.386 . S
C3538 C3540 1.391 . S
C3539 C3538 1.386 . S
C3539 C3543 1.393 . S
C3540 H3529 0.950 . S
C3540 C3538 1.391 . S
C3540 C3541 1.400 . S
C3541 C3535 1.491 1_655 S
C3541 C3540 1.400 . S
C3541 C3542 1.398 . S
C3542 H3530 0.950 . S
C3542 C3541 1.398 . S
C3542 C3543 1.391 . S
C3543 H3531 0.950 . S
C3543 C3539 1.393 . S
C3543 C3542 1.391 . S
H3544 C3552 0.950 . S
H3545 C3557 0.950 . S
H3546 C3554 0.950 . S
H3547 C3556 0.950 . S
H3548 C3558 0.950 . S
H3549 C3560 0.950 . S
H3550 C3562 0.950 . S
H3551 C3563 0.950 . S
C3552 H3544 0.950 . S
C3552 C3553 1.386 . S
C3552 C3554 1.391 . S
C3553 C3552 1.386 . S
C3553 C3557 1.393 . S
C3554 H3546 0.950 . S
C3554 C3552 1.391 . S
C3554 C3555 1.400 . S
C3555 C3554 1.400 . S
C3555 C3556 1.398 . S
C3555 C3561 1.491 1_545 S
C3556 H3547 0.950 . S
C3556 C3555 1.398 . S
C3556 C3557 1.391 . S
C3557 H3545 0.950 . S
C3557 C3553 1.393 . S
C3557 C3556 1.391 . S
C3558 H3548 0.950 . S
C3558 C3559 1.386 . S
C3558 C3560 1.391 . S
C3559 C3558 1.386 . S
C3559 C3563 1.393 . S
C3560 H3549 0.950 . S
C3560 C3558 1.391 . S
C3560 C3561 1.400 . S
C3561 C3555 1.491 1_565 S
C3561 C3560 1.400 . S
C3561 C3562 1.398 . S
C3562 H3550 0.950 . S
C3562 C3561 1.398 . S
C3562 C3563 1.391 . S
C3563 H3551 0.950 . S
C3563 C3559 1.393 . S
C3563 C3562 1.391 . S
H3564 C3572 0.950 . S
H3565 C3577 0.950 . S
H3566 C3574 0.950 . S
H3567 C3576 0.950 . S
H3568 C3578 0.950 . S
H3569 C3580 0.950 . S
H3570 C3582 0.950 . S
H3571 C3583 0.950 . S
C3572 H3564 0.950 . S
C3572 C3573 1.386 . S
C3572 C3574 1.391 . S
C3573 C3572 1.386 . S
C3573 C3577 1.393 . S
C3574 H3566 0.950 . S
C3574 C3572 1.391 . S
C3574 C3575 1.400 . S
C3575 C3574 1.400 . S
C3575 C3576 1.398 . S
C3575 C3581 1.491 1_655 S
C3576 H3567 0.950 . S
C3576 C3575 1.398 . S
C3576 C3577 1.391 . S
C3577 H3565 0.950 . S
C3577 C3573 1.393 . S
C3577 C3576 1.391 . S
C3578 H3568 0.950 . S
C3578 C3579 1.386 . S
C3578 C3580 1.391 . S
C3579 C3578 1.386 . S
C3579 C3583 1.393 . S
C3580 H3569 0.950 . S
C3580 C3578 1.391 . S
C3580 C3581 1.400 . S
C3581 C3575 1.491 1_455 S
C3581 C3580 1.400 . S
C3581 C3582 1.398 . S
C3582 H3570 0.950 . S
C3582 C3581 1.398 . S
C3582 C3583 1.391 . S
C3583 H3571 0.950 . S
C3583 C3579 1.393 . S
C3583 C3582 1.391 . S
H3584 C3592 0.950 . S
H3585 C3597 0.950 . S
H3586 C3594 0.950 . S
H3587 C3596 0.950 . S
H3588 C3598 0.950 . S
H3589 C3600 0.950 . S
H3590 C3602 0.950 . S
H3591 C3603 0.950 . S
C3592 H3584 0.950 . S
C3592 C3593 1.386 . S
C3592 C3594 1.391 . S
C3593 C3592 1.386 . S
C3593 C3597 1.393 . S
C3594 H3586 0.950 . S
C3594 C3592 1.391 . S
C3594 C3595 1.400 . S
C3595 C3594 1.400 . S
C3595 C3596 1.398 . S
C3595 C3601 1.491 1_554 S
C3596 H3587 0.950 . S
C3596 C3595 1.398 . S
C3596 C3597 1.391 . S
C3597 H3585 0.950 . S
C3597 C3593 1.393 . S
C3597 C3596 1.391 . S
C3598 H3588 0.950 . S
C3598 C3599 1.386 . S
C3598 C3600 1.391 . S
C3599 C3598 1.386 . S
C3599 C3603 1.393 . S
C3600 H3589 0.950 . S
C3600 C3598 1.391 . S
C3600 C3601 1.400 . S
C3601 C3595 1.491 1_556 S
C3601 C3600 1.400 . S
C3601 C3602 1.398 . S
C3602 H3590 0.950 . S
C3602 C3601 1.398 . S
C3602 C3603 1.391 . S
C3603 H3591 0.950 . S
C3603 C3599 1.393 . S
C3603 C3602 1.391 . S
H3604 C3612 0.950 . S
H3605 C3617 0.950 . S
H3606 C3614 0.950 . S
H3607 C3616 0.950 . S
H3608 C3618 0.950 . S
H3609 C3620 0.950 . S
H3610 C3622 0.950 . S
H3611 C3623 0.950 . S
C3612 H3604 0.950 . S
C3612 C3613 1.386 . S
C3612 C3614 1.391 . S
C3613 C3612 1.386 . S
C3613 C3617 1.393 . S
C3614 H3606 0.950 . S
C3614 C3612 1.391 . S
C3614 C3615 1.400 . S
C3615 C3614 1.400 . S
C3615 C3616 1.398 . S
C3615 C3621 1.491 1_556 S
C3616 H3607 0.950 . S
C3616 C3615 1.398 . S
C3616 C3617 1.391 . S
C3617 H3605 0.950 . S
C3617 C3613 1.393 . S
C3617 C3616 1.391 . S
C3618 H3608 0.950 . S
C3618 C3619 1.386 . S
C3618 C3620 1.391 . S
C3619 C3618 1.386 . S
C3619 C3623 1.393 . S
C3620 H3609 0.950 . S
C3620 C3618 1.391 . S
C3620 C3621 1.400 . S
C3621 C3615 1.491 1_554 S
C3621 C3620 1.400 . S
C3621 C3622 1.398 . S
C3622 H3610 0.950 . S
C3622 C3621 1.398 . S
C3622 C3623 1.391 . S
C3623 H3611 0.950 . S
C3623 C3619 1.393 . S
C3623 C3622 1.391 . S
H3624 C3632 0.950 . S
H3625 C3637 0.950 . S
H3626 C3634 0.950 . S
H3627 C3636 0.950 . S
H3628 C3638 0.950 . S
H3629 C3640 0.950 . S
H3630 C3642 0.950 . S
H3631 C3643 0.950 . S
C3632 H3624 0.950 . S
C3632 C3633 1.386 . S
C3632 C3634 1.391 . S
C3633 C3632 1.386 . S
C3633 C3637 1.393 . S
C3634 H3626 0.950 . S
C3634 C3632 1.391 . S
C3634 C3635 1.400 . S
C3635 C3634 1.400 . S
C3635 C3636 1.398 . S
C3635 C3641 1.491 1_554 S
C3636 H3627 0.950 . S
C3636 C3635 1.398 . S
C3636 C3637 1.391 . S
C3637 H3625 0.950 . S
C3637 C3633 1.393 . S
C3637 C3636 1.391 . S
C3638 H3628 0.950 . S
C3638 C3639 1.386 . S
C3638 C3640 1.391 . S
C3639 C3638 1.386 . S
C3639 C3643 1.393 . S
C3640 H3629 0.950 . S
C3640 C3638 1.391 . S
C3640 C3641 1.400 . S
C3641 C3635 1.491 1_556 S
C3641 C3640 1.400 . S
C3641 C3642 1.398 . S
C3642 H3630 0.950 . S
C3642 C3641 1.398 . S
C3642 C3643 1.391 . S
C3643 H3631 0.950 . S
C3643 C3639 1.393 . S
C3643 C3642 1.391 . S
H3644 C3652 0.950 . S
H3645 C3657 0.950 . S
H3646 C3654 0.950 . S
H3647 C3656 0.950 . S
H3648 C3658 0.950 . S
H3649 C3660 0.950 . S
H3650 C3662 0.950 . S
H3651 C3663 0.950 . S
C3652 H3644 0.950 . S
C3652 C3653 1.386 . S
C3652 C3654 1.391 . S
C3653 C3652 1.386 . S
C3653 C3657 1.393 . S
C3654 H3646 0.950 . S
C3654 C3652 1.391 . S
C3654 C3655 1.400 . S
C3655 C3654 1.400 . S
C3655 C3656 1.398 . S
C3655 C3661 1.491 1_556 S
C3656 H3647 0.950 . S
C3656 C3655 1.398 . S
C3656 C3657 1.391 . S
C3657 H3645 0.950 . S
C3657 C3653 1.393 . S
C3657 C3656 1.391 . S
C3658 H3648 0.950 . S
C3658 C3659 1.386 . S
C3658 C3660 1.391 . S
C3659 C3658 1.386 . S
C3659 C3663 1.393 . S
C3660 H3649 0.950 . S
C3660 C3658 1.391 . S
C3660 C3661 1.400 . S
C3661 C3655 1.491 1_554 S
C3661 C3660 1.400 . S
C3661 C3662 1.398 . S
C3662 H3650 0.950 . S
C3662 C3661 1.398 . S
C3662 C3663 1.391 . S
C3663 H3651 0.950 . S
C3663 C3659 1.393 . S
C3663 C3662 1.391 . S
H3664 C3672 0.950 . S
H3665 C3677 0.950 . S
H3666 C3674 0.950 . S
H3667 C3676 0.950 . S
H3668 C3678 0.950 . S
H3669 C3680 0.950 . S
H3670 C3682 0.950 . S
H3671 C3683 0.950 . S
C3672 H3664 0.950 . S
C3672 C3673 1.386 . S
C3672 C3674 1.391 . S
C3673 C3672 1.386 . S
C3673 C3677 1.393 . S
C3674 H3666 0.950 . S
C3674 C3672 1.391 . S
C3674 C3675 1.400 . S
C3675 C3674 1.400 . S
C3675 C3676 1.398 . S
C3675 C3681 1.491 1_554 S
C3676 H3667 0.950 . S
C3676 C3675 1.398 . S
C3676 C3677 1.391 . S
C3677 H3665 0.950 . S
C3677 C3673 1.393 . S
C3677 C3676 1.391 . S
C3678 H3668 0.950 . S
C3678 C3679 1.386 . S
C3678 C3680 1.391 . S
C3679 C3678 1.386 . S
C3679 C3683 1.393 . S
C3680 H3669 0.950 . S
C3680 C3678 1.391 . S
C3680 C3681 1.400 . S
C3681 C3675 1.491 1_556 S
C3681 C3680 1.400 . S
C3681 C3682 1.398 . S
C3682 H3670 0.950 . S
C3682 C3681 1.398 . S
C3682 C3683 1.391 . S
C3683 H3671 0.950 . S
C3683 C3679 1.393 . S
C3683 C3682 1.391 . S
H3684 C3692 0.950 . S
H3685 C3697 0.950 . S
H3686 C3694 0.950 . S
H3687 C3696 0.950 . S
H3688 C3698 0.950 . S
H3689 C3700 0.950 . S
H3690 C3702 0.950 . S
H3691 C3703 0.950 . S
C3692 H3684 0.950 . S
C3692 C3693 1.386 . S
C3692 C3694 1.391 . S
C3693 C3692 1.386 . S
C3693 C3697 1.393 . S
C3694 H3686 0.950 . S
C3694 C3692 1.391 . S
C3694 C3695 1.400 . S
C3695 C3694 1.400 . S
C3695 C3696 1.398 . S
C3695 C3701 1.491 1_554 S
C3696 H3687 0.950 . S
C3696 C3695 1.398 . S
C3696 C3697 1.391 . S
C3697 H3685 0.950 . S
C3697 C3693 1.393 . S
C3697 C3696 1.391 . S
C3698 H3688 0.950 . S
C3698 C3699 1.386 . S
C3698 C3700 1.391 . S
C3699 C3698 1.386 . S
C3699 C3703 1.393 . S
C3700 H3689 0.950 . S
C3700 C3698 1.391 . S
C3700 C3701 1.400 . S
C3701 C3695 1.491 1_556 S
C3701 C3700 1.400 . S
C3701 C3702 1.398 . S
C3702 H3690 0.950 . S
C3702 C3701 1.398 . S
C3702 C3703 1.391 . S
C3703 H3691 0.950 . S
C3703 C3699 1.393 . S
C3703 C3702 1.391 . S
H3704 C3712 0.950 . S
H3705 C3717 0.950 . S
H3706 C3714 0.950 . S
H3707 C3716 0.950 . S
H3708 C3718 0.950 . S
H3709 C3720 0.950 . S
H3710 C3722 0.950 . S
H3711 C3723 0.950 . S
C3712 H3704 0.950 . S
C3712 C3713 1.386 . S
C3712 C3714 1.391 . S
C3713 C3712 1.386 . S
C3713 C3717 1.393 . S
C3714 H3706 0.950 . S
C3714 C3712 1.391 . S
C3714 C3715 1.400 . S
C3715 C3714 1.400 . S
C3715 C3716 1.398 . S
C3715 C3721 1.491 1_554 S
C3716 H3707 0.950 . S
C3716 C3715 1.398 . S
C3716 C3717 1.391 . S
C3717 H3705 0.950 . S
C3717 C3713 1.393 . S
C3717 C3716 1.391 . S
C3718 H3708 0.950 . S
C3718 C3719 1.386 . S
C3718 C3720 1.391 . S
C3719 C3718 1.386 . S
C3719 C3723 1.393 . S
C3720 H3709 0.950 . S
C3720 C3718 1.391 . S
C3720 C3721 1.400 . S
C3721 C3715 1.491 1_556 S
C3721 C3720 1.400 . S
C3721 C3722 1.398 . S
C3722 H3710 0.950 . S
C3722 C3721 1.398 . S
C3722 C3723 1.391 . S
C3723 H3711 0.950 . S
C3723 C3719 1.393 . S
C3723 C3722 1.391 . S
H3724 C3732 0.950 . S
H3725 C3737 0.950 . S
H3726 C3734 0.950 . S
H3727 C3736 0.950 . S
H3728 C3738 0.950 . S
H3729 C3740 0.950 . S
H3730 C3742 0.950 . S
H3731 C3743 0.950 . S
C3732 H3724 0.950 . S
C3732 C3733 1.386 . S
C3732 C3734 1.391 . S
C3733 C3732 1.386 . S
C3733 C3737 1.393 . S
C3734 H3726 0.950 . S
C3734 C3732 1.391 . S
C3734 C3735 1.400 . S
C3735 C3734 1.400 . S
C3735 C3736 1.398 . S
C3735 C3741 1.491 1_556 S
C3736 H3727 0.950 . S
C3736 C3735 1.398 . S
C3736 C3737 1.391 . S
C3737 H3725 0.950 . S
C3737 C3733 1.393 . S
C3737 C3736 1.391 . S
C3738 H3728 0.950 . S
C3738 C3739 1.386 . S
C3738 C3740 1.391 . S
C3739 C3738 1.386 . S
C3739 C3743 1.393 . S
C3740 H3729 0.950 . S
C3740 C3738 1.391 . S
C3740 C3741 1.400 . S
C3741 C3735 1.491 1_554 S
C3741 C3740 1.400 . S
C3741 C3742 1.398 . S
C3742 H3730 0.950 . S
C3742 C3741 1.398 . S
C3742 C3743 1.391 . S
C3743 H3731 0.950 . S
C3743 C3739 1.393 . S
C3743 C3742 1.391 . S
H3744 C3752 0.950 . S
H3745 C3757 0.950 . S
H3746 C3754 0.950 . S
H3747 C3756 0.950 . S
H3748 C3758 0.950 . S
H3749 C3760 0.950 . S
H3750 C3762 0.950 . S
H3751 C3763 0.950 . S
C3752 H3744 0.950 . S
C3752 C3753 1.386 . S
C3752 C3754 1.391 . S
C3753 C3752 1.386 . S
C3753 C3757 1.393 . S
C3754 H3746 0.950 . S
C3754 C3752 1.391 . S
C3754 C3755 1.400 . S
C3755 C3754 1.400 . S
C3755 C3756 1.398 . S
C3755 C3761 1.491 . S
C3756 H3747 0.950 . S
C3756 C3755 1.398 . S
C3756 C3757 1.391 . S
C3757 H3745 0.950 . S
C3757 C3753 1.393 . S
C3757 C3756 1.391 . S
C3758 H3748 0.950 . S
C3758 C3759 1.386 . S
C3758 C3760 1.391 . S
C3759 C3758 1.386 . S
C3759 C3763 1.393 . S
C3760 H3749 0.950 . S
C3760 C3758 1.391 . S
C3760 C3761 1.400 . S
C3761 C3755 1.491 . S
C3761 C3760 1.400 . S
C3761 C3762 1.398 . S
C3762 H3750 0.950 . S
C3762 C3761 1.398 . S
C3762 C3763 1.391 . S
C3763 H3751 0.950 . S
C3763 C3759 1.393 . S
C3763 C3762 1.391 . S
H3764 C3772 0.950 . S
H3765 C3777 0.950 . S
H3766 C3774 0.950 . S
H3767 C3776 0.950 . S
H3768 C3778 0.950 . S
H3769 C3780 0.950 . S
H3770 C3782 0.950 . S
H3771 C3783 0.950 . S
C3772 H3764 0.950 . S
C3772 C3773 1.386 . S
C3772 C3774 1.391 . S
C3773 C3772 1.386 . S
C3773 C3777 1.393 . S
C3774 H3766 0.950 . S
C3774 C3772 1.391 . S
C3774 C3775 1.400 . S
C3775 C3774 1.400 . S
C3775 C3776 1.398 . S
C3775 C3781 1.491 . S
C3776 H3767 0.950 . S
C3776 C3775 1.398 . S
C3776 C3777 1.391 . S
C3777 H3765 0.950 . S
C3777 C3773 1.393 . S
C3777 C3776 1.391 . S
C3778 H3768 0.950 . S
C3778 C3779 1.386 . S
C3778 C3780 1.391 . S
C3779 C3778 1.386 . S
C3779 C3783 1.393 . S
C3780 H3769 0.950 . S
C3780 C3778 1.391 . S
C3780 C3781 1.400 . S
C3781 C3775 1.491 . S
C3781 C3780 1.400 . S
C3781 C3782 1.398 . S
C3782 H3770 0.950 . S
C3782 C3781 1.398 . S
C3782 C3783 1.391 . S
C3783 H3771 0.950 . S
C3783 C3779 1.393 . S
C3783 C3782 1.391 . S
H3784 C3792 0.950 . S
H3785 C3797 0.950 . S
H3786 C3794 0.950 . S
H3787 C3796 0.950 . S
H3788 C3798 0.950 . S
H3789 C3800 0.950 . S
H3790 C3802 0.950 . S
H3791 C3803 0.950 . S
C3792 H3784 0.950 . S
C3792 C3793 1.386 . S
C3792 C3794 1.391 . S
C3793 C3792 1.386 . S
C3793 C3797 1.393 . S
C3794 H3786 0.950 . S
C3794 C3792 1.391 . S
C3794 C3795 1.400 . S
C3795 C3794 1.400 . S
C3795 C3796 1.398 . S
C3795 C3801 1.491 . S
C3796 H3787 0.950 . S
C3796 C3795 1.398 . S
C3796 C3797 1.391 . S
C3797 H3785 0.950 . S
C3797 C3793 1.393 . S
C3797 C3796 1.391 . S
C3798 H3788 0.950 . S
C3798 C3799 1.386 . S
C3798 C3800 1.391 . S
C3799 C3798 1.386 . S
C3799 C3803 1.393 . S
C3800 H3789 0.950 . S
C3800 C3798 1.391 . S
C3800 C3801 1.400 . S
C3801 C3795 1.491 . S
C3801 C3800 1.400 . S
C3801 C3802 1.398 . S
C3802 H3790 0.950 . S
C3802 C3801 1.398 . S
C3802 C3803 1.391 . S
C3803 H3791 0.950 . S
C3803 C3799 1.393 . S
C3803 C3802 1.391 . S
H3804 C3812 0.950 . S
H3805 C3817 0.950 . S
H3806 C3814 0.950 . S
H3807 C3816 0.950 . S
H3808 C3818 0.950 . S
H3809 C3820 0.950 . S
H3810 C3822 0.950 . S
H3811 C3823 0.950 . S
C3812 H3804 0.950 . S
C3812 C3813 1.386 . S
C3812 C3814 1.391 . S
C3813 C3812 1.386 . S
C3813 C3817 1.393 . S
C3814 H3806 0.950 . S
C3814 C3812 1.391 . S
C3814 C3815 1.400 . S
C3815 C3814 1.400 . S
C3815 C3816 1.398 . S
C3815 C3821 1.491 . S
C3816 H3807 0.950 . S
C3816 C3815 1.398 . S
C3816 C3817 1.391 . S
C3817 H3805 0.950 . S
C3817 C3813 1.393 . S
C3817 C3816 1.391 . S
C3818 H3808 0.950 . S
C3818 C3819 1.386 . S
C3818 C3820 1.391 . S
C3819 C3818 1.386 . S
C3819 C3823 1.393 . S
C3820 H3809 0.950 . S
C3820 C3818 1.391 . S
C3820 C3821 1.400 . S
C3821 C3815 1.491 . S
C3821 C3820 1.400 . S
C3821 C3822 1.398 . S
C3822 H3810 0.950 . S
C3822 C3821 1.398 . S
C3822 C3823 1.391 . S
C3823 H3811 0.950 . S
C3823 C3819 1.393 . S
C3823 C3822 1.391 . S
H3824 C3832 0.950 . S
H3825 C3837 0.950 . S
H3826 C3834 0.950 . S
H3827 C3836 0.950 . S
H3828 C3838 0.950 . S
H3829 C3840 0.950 . S
H3830 C3842 0.950 . S
H3831 C3843 0.950 . S
C3832 H3824 0.950 . S
C3832 C3833 1.386 . S
C3832 C3834 1.391 . S
C3833 C3832 1.386 . S
C3833 C3837 1.393 . S
C3834 H3826 0.950 . S
C3834 C3832 1.391 . S
C3834 C3835 1.400 . S
C3835 C3834 1.400 . S
C3835 C3836 1.398 . S
C3835 C3841 1.491 . S
C3836 H3827 0.950 . S
C3836 C3835 1.398 . S
C3836 C3837 1.391 . S
C3837 H3825 0.950 . S
C3837 C3833 1.393 . S
C3837 C3836 1.391 . S
C3838 H3828 0.950 . S
C3838 C3839 1.386 . S
C3838 C3840 1.391 . S
C3839 C3838 1.386 . S
C3839 C3843 1.393 . S
C3840 H3829 0.950 . S
C3840 C3838 1.391 . S
C3840 C3841 1.400 . S
C3841 C3835 1.491 . S
C3841 C3840 1.400 . S
C3841 C3842 1.398 . S
C3842 H3830 0.950 . S
C3842 C3841 1.398 . S
C3842 C3843 1.391 . S
C3843 H3831 0.950 . S
C3843 C3839 1.393 . S
C3843 C3842 1.391 . S
H3844 C3852 0.950 . S
H3845 C3857 0.950 . S
H3846 C3854 0.950 . S
H3847 C3856 0.950 . S
H3848 C3858 0.950 . S
H3849 C3860 0.950 . S
H3850 C3862 0.950 . S
H3851 C3863 0.950 . S
C3852 H3844 0.950 . S
C3852 C3853 1.386 . S
C3852 C3854 1.391 . S
C3853 C3852 1.386 . S
C3853 C3857 1.393 . S
C3854 H3846 0.950 . S
C3854 C3852 1.391 . S
C3854 C3855 1.400 . S
C3855 C3854 1.400 . S
C3855 C3856 1.398 . S
C3855 C3861 1.491 . S
C3856 H3847 0.950 . S
C3856 C3855 1.398 . S
C3856 C3857 1.391 . S
C3857 H3845 0.950 . S
C3857 C3853 1.393 . S
C3857 C3856 1.391 . S
C3858 H3848 0.950 . S
C3858 C3859 1.386 . S
C3858 C3860 1.391 . S
C3859 C3858 1.386 . S
C3859 C3863 1.393 . S
C3860 H3849 0.950 . S
C3860 C3858 1.391 . S
C3860 C3861 1.400 . S
C3861 C3855 1.491 . S
C3861 C3860 1.400 . S
C3861 C3862 1.398 . S
C3862 H3850 0.950 . S
C3862 C3861 1.398 . S
C3862 C3863 1.391 . S
C3863 H3851 0.950 . S
C3863 C3859 1.393 . S
C3863 C3862 1.391 . S
H3864 C3872 0.950 . S
H3865 C3877 0.950 . S
H3866 C3874 0.950 . S
H3867 C3876 0.950 . S
H3868 C3878 0.950 . S
H3869 C3880 0.950 . S
H3870 C3882 0.950 . S
H3871 C3883 0.950 . S
C3872 H3864 0.950 . S
C3872 C3873 1.386 . S
C3872 C3874 1.391 . S
C3873 C3872 1.386 . S
C3873 C3877 1.393 . S
C3874 H3866 0.950 . S
C3874 C3872 1.391 . S
C3874 C3875 1.400 . S
C3875 C3874 1.400 . S
C3875 C3876 1.398 . S
C3875 C3881 1.491 . S
C3876 H3867 0.950 . S
C3876 C3875 1.398 . S
C3876 C3877 1.391 . S
C3877 H3865 0.950 . S
C3877 C3873 1.393 . S
C3877 C3876 1.391 . S
C3878 H3868 0.950 . S
C3878 C3879 1.386 . S
C3878 C3880 1.391 . S
C3879 C3878 1.386 . S
C3879 C3883 1.393 . S
C3880 H3869 0.950 . S
C3880 C3878 1.391 . S
C3880 C3881 1.400 . S
C3881 C3875 1.491 . S
C3881 C3880 1.400 . S
C3881 C3882 1.398 . S
C3882 H3870 0.950 . S
C3882 C3881 1.398 . S
C3882 C3883 1.391 . S
C3883 H3871 0.950 . S
C3883 C3879 1.393 . S
C3883 C3882 1.391 . S
H3884 C3892 0.950 . S
H3885 C3897 0.950 . S
H3886 C3894 0.950 . S
H3887 C3896 0.950 . S
H3888 C3898 0.950 . S
H3889 C3900 0.950 . S
H3890 C3902 0.950 . S
H3891 C3903 0.950 . S
C3892 H3884 0.950 . S
C3892 C3893 1.386 . S
C3892 C3894 1.391 . S
C3893 C3892 1.386 . S
C3893 C3897 1.393 . S
C3894 H3886 0.950 . S
C3894 C3892 1.391 . S
C3894 C3895 1.400 . S
C3895 C3894 1.400 . S
C3895 C3896 1.398 . S
C3895 C3901 1.491 . S
C3896 H3887 0.950 . S
C3896 C3895 1.398 . S
C3896 C3897 1.391 . S
C3897 H3885 0.950 . S
C3897 C3893 1.393 . S
C3897 C3896 1.391 . S
C3898 H3888 0.950 . S
C3898 C3899 1.386 . S
C3898 C3900 1.391 . S
C3899 C3898 1.386 . S
C3899 C3903 1.393 . S
C3900 H3889 0.950 . S
C3900 C3898 1.391 . S
C3900 C3901 1.400 . S
C3901 C3895 1.491 . S
C3901 C3900 1.400 . S
C3901 C3902 1.398 . S
C3902 H3890 0.950 . S
C3902 C3901 1.398 . S
C3902 C3903 1.391 . S
C3903 H3891 0.950 . S
C3903 C3899 1.393 . S
C3903 C3902 1.391 . S
H3904 C3912 0.950 . S
H3905 C3917 0.950 . S
H3906 C3914 0.950 . S
H3907 C3916 0.950 . S
H3908 C3918 0.950 . S
H3909 C3920 0.950 . S
H3910 C3922 0.950 . S
H3911 C3923 0.950 . S
C3912 H3904 0.950 . S
C3912 C3913 1.386 . S
C3912 C3914 1.391 . S
C3913 C3912 1.386 . S
C3913 C3917 1.393 . S
C3914 H3906 0.950 . S
C3914 C3912 1.391 . S
C3914 C3915 1.400 . S
C3915 C3914 1.400 . S
C3915 C3916 1.398 . S
C3915 C3921 1.491 . S
C3916 H3907 0.950 . S
C3916 C3915 1.398 . S
C3916 C3917 1.391 . S
C3917 H3905 0.950 . S
C3917 C3913 1.393 . S
C3917 C3916 1.391 . S
C3918 H3908 0.950 . S
C3918 C3919 1.386 . S
C3918 C3920 1.391 . S
C3919 C3918 1.386 . S
C3919 C3923 1.393 . S
C3920 H3909 0.950 . S
C3920 C3918 1.391 . S
C3920 C3921 1.400 . S
C3921 C3915 1.491 . S
C3921 C3920 1.400 . S
C3921 C3922 1.398 . S
C3922 H3910 0.950 . S
C3922 C3921 1.398 . S
C3922 C3923 1.391 . S
C3923 H3911 0.950 . S
C3923 C3919 1.393 . S
C3923 C3922 1.391 . S
H3924 C3932 0.950 . S
H3925 C3937 0.950 . S
H3926 C3934 0.950 . S
H3927 C3936 0.950 . S
H3928 C3938 0.950 . S
H3929 C3940 0.950 . S
H3930 C3942 0.950 . S
H3931 C3943 0.950 . S
C3932 H3924 0.950 . S
C3932 C3933 1.386 . S
C3932 C3934 1.391 . S
C3933 C3932 1.386 . S
C3933 C3937 1.393 . S
C3934 H3926 0.950 . S
C3934 C3932 1.391 . S
C3934 C3935 1.400 . S
C3935 C3934 1.400 . S
C3935 C3936 1.398 . S
C3935 C3941 1.491 . S
C3936 H3927 0.950 . S
C3936 C3935 1.398 . S
C3936 C3937 1.391 . S
C3937 H3925 0.950 . S
C3937 C3933 1.393 . S
C3937 C3936 1.391 . S
C3938 H3928 0.950 . S
C3938 C3939 1.386 . S
C3938 C3940 1.391 . S
C3939 C3938 1.386 . S
C3939 C3943 1.393 . S
C3940 H3929 0.950 . S
C3940 C3938 1.391 . S
C3940 C3941 1.400 . S
C3941 C3935 1.491 . S
C3941 C3940 1.400 . S
C3941 C3942 1.398 . S
C3942 H3930 0.950 . S
C3942 C3941 1.398 . S
C3942 C3943 1.391 . S
C3943 H3931 0.950 . S
C3943 C3939 1.393 . S
C3943 C3942 1.391 . S
H3944 C3952 0.950 . S
H3945 C3957 0.950 . S
H3946 C3954 0.950 . S
H3947 C3956 0.950 . S
H3948 C3958 0.950 . S
H3949 C3960 0.950 . S
H3950 C3962 0.950 . S
H3951 C3963 0.950 . S
C3952 H3944 0.950 . S
C3952 C3953 1.386 . S
C3952 C3954 1.391 . S
C3953 C3952 1.386 . S
C3953 C3957 1.393 . S
C3954 H3946 0.950 . S
C3954 C3952 1.391 . S
C3954 C3955 1.400 . S
C3955 C3954 1.400 . S
C3955 C3956 1.398 . S
C3955 C3961 1.491 . S
C3956 H3947 0.950 . S
C3956 C3955 1.398 . S
C3956 C3957 1.391 . S
C3957 H3945 0.950 . S
C3957 C3953 1.393 . S
C3957 C3956 1.391 . S
C3958 H3948 0.950 . S
C3958 C3959 1.386 . S
C3958 C3960 1.391 . S
C3959 C3958 1.386 . S
C3959 C3963 1.393 . S
C3960 H3949 0.950 . S
C3960 C3958 1.391 . S
C3960 C3961 1.400 . S
C3961 C3955 1.491 . S
C3961 C3960 1.400 . S
C3961 C3962 1.398 . S
C3962 H3950 0.950 . S
C3962 C3961 1.398 . S
C3962 C3963 1.391 . S
C3963 H3951 0.950 . S
C3963 C3959 1.393 . S
C3963 C3962 1.391 . S
H3964 C3972 0.950 . S
H3965 C3977 0.950 . S
H3966 C3974 0.950 . S
H3967 C3976 0.950 . S
H3968 C3978 0.950 . S
H3969 C3980 0.950 . S
H3970 C3982 0.950 . S
H3971 C3983 0.950 . S
C3972 H3964 0.950 . S
C3972 C3973 1.386 . S
C3972 C3974 1.391 . S
C3973 C3972 1.386 . S
C3973 C3977 1.393 . S
C3974 H3966 0.950 . S
C3974 C3972 1.391 . S
C3974 C3975 1.400 . S
C3975 C3974 1.400 . S
C3975 C3976 1.398 . S
C3975 C3981 1.491 . S
C3976 H3967 0.950 . S
C3976 C3975 1.398 . S
C3976 C3977 1.391 . S
C3977 H3965 0.950 . S
C3977 C3973 1.393 . S
C3977 C3976 1.391 . S
C3978 H3968 0.950 . S
C3978 C3979 1.386 . S
C3978 C3980 1.391 . S
C3979 C3978 1.386 . S
C3979 C3983 1.393 . S
C3980 H3969 0.950 . S
C3980 C3978 1.391 . S
C3980 C3981 1.400 . S
C3981 C3975 1.491 . S
C3981 C3980 1.400 . S
C3981 C3982 1.398 . S
C3982 H3970 0.950 . S
C3982 C3981 1.398 . S
C3982 C3983 1.391 . S
C3983 H3971 0.950 . S
C3983 C3979 1.393 . S
C3983 C3982 1.391 . S
H3984 C3992 0.950 . S
H3985 C3997 0.950 . S
H3986 C3994 0.950 . S
H3987 C3996 0.950 . S
H3988 C3998 0.950 . S
H3989 C4000 0.950 . S
H3990 C4002 0.950 . S
H3991 C4003 0.950 . S
C3992 H3984 0.950 . S
C3992 C3993 1.386 . S
C3992 C3994 1.391 . S
C3993 C3992 1.386 . S
C3993 C3997 1.393 . S
C3994 H3986 0.950 . S
C3994 C3992 1.391 . S
C3994 C3995 1.400 . S
C3995 C3994 1.400 . S
C3995 C3996 1.398 . S
C3995 C4001 1.491 . S
C3996 H3987 0.950 . S
C3996 C3995 1.398 . S
C3996 C3997 1.391 . S
C3997 H3985 0.950 . S
C3997 C3993 1.393 . S
C3997 C3996 1.391 . S
C3998 H3988 0.950 . S
C3998 C3999 1.386 . S
C3998 C4000 1.391 . S
C3999 C3998 1.386 . S
C3999 C4003 1.393 . S
C4000 H3989 0.950 . S
C4000 C3998 1.391 . S
C4000 C4001 1.400 . S
C4001 C3995 1.491 . S
C4001 C4000 1.400 . S
C4001 C4002 1.398 . S
C4002 H3990 0.950 . S
C4002 C4001 1.398 . S
C4002 C4003 1.391 . S
C4003 H3991 0.950 . S
C4003 C3999 1.393 . S
C4003 C4002 1.391 . S
H4004 C4012 0.950 . S
H4005 C4017 0.950 . S
H4006 C4014 0.950 . S
H4007 C4016 0.950 . S
H4008 C4018 0.950 . S
H4009 C4020 0.950 . S
H4010 C4022 0.950 . S
H4011 C4023 0.950 . S
C4012 H4004 0.950 . S
C4012 C4013 1.386 . S
C4012 C4014 1.391 . S
C4013 C4012 1.386 . S
C4013 C4017 1.393 . S
C4014 H4006 0.950 . S
C4014 C4012 1.391 . S
C4014 C4015 1.400 . S
C4015 C4014 1.400 . S
C4015 C4016 1.398 . S
C4015 C4021 1.491 . S
C4016 H4007 0.950 . S
C4016 C4015 1.398 . S
C4016 C4017 1.391 . S
C4017 H4005 0.950 . S
C4017 C4013 1.393 . S
C4017 C4016 1.391 . S
C4018 H4008 0.950 . S
C4018 C4019 1.386 . S
C4018 C4020 1.391 . S
C4019 C4018 1.386 . S
C4019 C4023 1.393 . S
C4020 H4009 0.950 . S
C4020 C4018 1.391 . S
C4020 C4021 1.400 . S
C4021 C4015 1.491 . S
C4021 C4020 1.400 . S
C4021 C4022 1.398 . S
C4022 H4010 0.950 . S
C4022 C4021 1.398 . S
C4022 C4023 1.391 . S
C4023 H4011 0.950 . S
C4023 C4019 1.393 . S
C4023 C4022 1.391 . S
H4024 C4032 0.950 . S
H4025 C4037 0.950 . S
H4026 C4034 0.950 . S
H4027 C4036 0.950 . S
H4028 C4038 0.950 . S
H4029 C4040 0.950 . S
H4030 C4042 0.950 . S
H4031 C4043 0.950 . S
C4032 H4024 0.950 . S
C4032 C4033 1.386 . S
C4032 C4034 1.391 . S
C4033 C4032 1.386 . S
C4033 C4037 1.393 . S
C4034 H4026 0.950 . S
C4034 C4032 1.391 . S
C4034 C4035 1.400 . S
C4035 C4034 1.400 . S
C4035 C4036 1.398 . S
C4035 C4041 1.491 . S
C4036 H4027 0.950 . S
C4036 C4035 1.398 . S
C4036 C4037 1.391 . S
C4037 H4025 0.950 . S
C4037 C4033 1.393 . S
C4037 C4036 1.391 . S
C4038 H4028 0.950 . S
C4038 C4039 1.386 . S
C4038 C4040 1.391 . S
C4039 C4038 1.386 . S
C4039 C4043 1.393 . S
C4040 H4029 0.950 . S
C4040 C4038 1.391 . S
C4040 C4041 1.400 . S
C4041 C4035 1.491 . S
C4041 C4040 1.400 . S
C4041 C4042 1.398 . S
C4042 H4030 0.950 . S
C4042 C4041 1.398 . S
C4042 C4043 1.391 . S
C4043 H4031 0.950 . S
C4043 C4039 1.393 . S
C4043 C4042 1.391 . S
H4044 C4052 0.950 . S
H4045 C4057 0.950 . S
H4046 C4054 0.950 . S
H4047 C4056 0.950 . S
H4048 C4058 0.950 . S
H4049 C4060 0.950 . S
H4050 C4062 0.950 . S
H4051 C4063 0.950 . S
C4052 H4044 0.950 . S
C4052 C4053 1.386 . S
C4052 C4054 1.391 . S
C4053 C4052 1.386 . S
C4053 C4057 1.393 . S
C4054 H4046 0.950 . S
C4054 C4052 1.391 . S
C4054 C4055 1.400 . S
C4055 C4054 1.400 . S
C4055 C4056 1.398 . S
C4055 C4061 1.491 . S
C4056 H4047 0.950 . S
C4056 C4055 1.398 . S
C4056 C4057 1.391 . S
C4057 H4045 0.950 . S
C4057 C4053 1.393 . S
C4057 C4056 1.391 . S
C4058 H4048 0.950 . S
C4058 C4059 1.386 . S
C4058 C4060 1.391 . S
C4059 C4058 1.386 . S
C4059 C4063 1.393 . S
C4060 H4049 0.950 . S
C4060 C4058 1.391 . S
C4060 C4061 1.400 . S
C4061 C4055 1.491 . S
C4061 C4060 1.400 . S
C4061 C4062 1.398 . S
C4062 H4050 0.950 . S
C4062 C4061 1.398 . S
C4062 C4063 1.391 . S
C4063 H4051 0.950 . S
C4063 C4059 1.393 . S
C4063 C4062 1.391 . S
H4064 C4072 0.950 . S
H4065 C4077 0.950 . S
H4066 C4074 0.950 . S
H4067 C4076 0.950 . S
H4068 C4078 0.950 . S
H4069 C4080 0.950 . S
H4070 C4082 0.950 . S
H4071 C4083 0.950 . S
C4072 H4064 0.950 . S
C4072 C4073 1.386 . S
C4072 C4074 1.391 . S
C4073 C4072 1.386 . S
C4073 C4077 1.393 . S
C4074 H4066 0.950 . S
C4074 C4072 1.391 . S
C4074 C4075 1.400 . S
C4075 C4074 1.400 . S
C4075 C4076 1.398 . S
C4075 C4081 1.491 . S
C4076 H4067 0.950 . S
C4076 C4075 1.398 . S
C4076 C4077 1.391 . S
C4077 H4065 0.950 . S
C4077 C4073 1.393 . S
C4077 C4076 1.391 . S
C4078 H4068 0.950 . S
C4078 C4079 1.386 . S
C4078 C4080 1.391 . S
C4079 C4078 1.386 . S
C4079 C4083 1.393 . S
C4080 H4069 0.950 . S
C4080 C4078 1.391 . S
C4080 C4081 1.400 . S
C4081 C4075 1.491 . S
C4081 C4080 1.400 . S
C4081 C4082 1.398 . S
C4082 H4070 0.950 . S
C4082 C4081 1.398 . S
C4082 C4083 1.391 . S
C4083 H4071 0.950 . S
C4083 C4079 1.393 . S
C4083 C4082 1.391 . S
H4084 C4092 0.950 . S
H4085 C4097 0.950 . S
H4086 C4094 0.950 . S
H4087 C4096 0.950 . S
H4088 C4098 0.950 . S
H4089 C4100 0.950 . S
H4090 C4102 0.950 . S
H4091 C4103 0.950 . S
C4092 H4084 0.950 . S
C4092 C4093 1.386 . S
C4092 C4094 1.391 . S
C4093 C4092 1.386 . S
C4093 C4097 1.393 . S
C4094 H4086 0.950 . S
C4094 C4092 1.391 . S
C4094 C4095 1.400 . S
C4095 C4094 1.400 . S
C4095 C4096 1.398 . S
C4095 C4101 1.491 . S
C4096 H4087 0.950 . S
C4096 C4095 1.398 . S
C4096 C4097 1.391 . S
C4097 H4085 0.950 . S
C4097 C4093 1.393 . S
C4097 C4096 1.391 . S
C4098 H4088 0.950 . S
C4098 C4099 1.386 . S
C4098 C4100 1.391 . S
C4099 C4098 1.386 . S
C4099 C4103 1.393 . S
C4100 H4089 0.950 . S
C4100 C4098 1.391 . S
C4100 C4101 1.400 . S
C4101 C4095 1.491 . S
C4101 C4100 1.400 . S
C4101 C4102 1.398 . S
C4102 H4090 0.950 . S
C4102 C4101 1.398 . S
C4102 C4103 1.391 . S
C4103 H4091 0.950 . S
C4103 C4099 1.393 . S
C4103 C4102 1.391 . S
H4104 C4112 0.950 . S
H4105 C4117 0.950 . S
H4106 C4114 0.950 . S
H4107 C4116 0.950 . S
H4108 C4118 0.950 . S
H4109 C4120 0.950 . S
H4110 C4122 0.950 . S
H4111 C4123 0.950 . S
C4112 H4104 0.950 . S
C4112 C4113 1.386 . S
C4112 C4114 1.391 . S
C4113 C4112 1.386 . S
C4113 C4117 1.393 . S
C4114 H4106 0.950 . S
C4114 C4112 1.391 . S
C4114 C4115 1.400 . S
C4115 C4114 1.400 . S
C4115 C4116 1.398 . S
C4115 C4121 1.491 . S
C4116 H4107 0.950 . S
C4116 C4115 1.398 . S
C4116 C4117 1.391 . S
C4117 H4105 0.950 . S
C4117 C4113 1.393 . S
C4117 C4116 1.391 . S
C4118 H4108 0.950 . S
C4118 C4119 1.386 . S
C4118 C4120 1.391 . S
C4119 C4118 1.386 . S
C4119 C4123 1.393 . S
C4120 H4109 0.950 . S
C4120 C4118 1.391 . S
C4120 C4121 1.400 . S
C4121 C4115 1.491 . S
C4121 C4120 1.400 . S
C4121 C4122 1.398 . S
C4122 H4110 0.950 . S
C4122 C4121 1.398 . S
C4122 C4123 1.391 . S
C4123 H4111 0.950 . S
C4123 C4119 1.393 . S
C4123 C4122 1.391 . S
H4124 C4132 0.950 . S
H4125 C4137 0.950 . S
H4126 C4134 0.950 . S
H4127 C4136 0.950 . S
H4128 C4138 0.950 . S
H4129 C4140 0.950 . S
H4130 C4142 0.950 . S
H4131 C4143 0.950 . S
C4132 H4124 0.950 . S
C4132 C4133 1.386 . S
C4132 C4134 1.391 . S
C4133 C4132 1.386 . S
C4133 C4137 1.393 . S
C4134 H4126 0.950 . S
C4134 C4132 1.391 . S
C4134 C4135 1.400 . S
C4135 C4134 1.400 . S
C4135 C4136 1.398 . S
C4135 C4141 1.491 . S
C4136 H4127 0.950 . S
C4136 C4135 1.398 . S
C4136 C4137 1.391 . S
C4137 H4125 0.950 . S
C4137 C4133 1.393 . S
C4137 C4136 1.391 . S
C4138 H4128 0.950 . S
C4138 C4139 1.386 . S
C4138 C4140 1.391 . S
C4139 C4138 1.386 . S
C4139 C4143 1.393 . S
C4140 H4129 0.950 . S
C4140 C4138 1.391 . S
C4140 C4141 1.400 . S
C4141 C4135 1.491 . S
C4141 C4140 1.400 . S
C4141 C4142 1.398 . S
C4142 H4130 0.950 . S
C4142 C4141 1.398 . S
C4142 C4143 1.391 . S
C4143 H4131 0.950 . S
C4143 C4139 1.393 . S
C4143 C4142 1.391 . S
H4144 C4152 0.950 . S
H4145 C4157 0.950 . S
H4146 C4154 0.950 . S
H4147 C4156 0.950 . S
H4148 C4158 0.950 . S
H4149 C4160 0.950 . S
H4150 C4162 0.950 . S
H4151 C4163 0.950 . S
C4152 H4144 0.950 . S
C4152 C4153 1.386 . S
C4152 C4154 1.391 . S
C4153 C4152 1.386 . S
C4153 C4157 1.393 . S
C4154 H4146 0.950 . S
C4154 C4152 1.391 . S
C4154 C4155 1.400 . S
C4155 C4154 1.400 . S
C4155 C4156 1.398 . S
C4155 C4161 1.491 . S
C4156 H4147 0.950 . S
C4156 C4155 1.398 . S
C4156 C4157 1.391 . S
C4157 H4145 0.950 . S
C4157 C4153 1.393 . S
C4157 C4156 1.391 . S
C4158 H4148 0.950 . S
C4158 C4159 1.386 . S
C4158 C4160 1.391 . S
C4159 C4158 1.386 . S
C4159 C4163 1.393 . S
C4160 H4149 0.950 . S
C4160 C4158 1.391 . S
C4160 C4161 1.400 . S
C4161 C4155 1.491 . S
C4161 C4160 1.400 . S
C4161 C4162 1.398 . S
C4162 H4150 0.950 . S
C4162 C4161 1.398 . S
C4162 C4163 1.391 . S
C4163 H4151 0.950 . S
C4163 C4159 1.393 . S
C4163 C4162 1.391 . S
H4164 C4172 0.950 . S
H4165 C4177 0.950 . S
H4166 C4174 0.950 . S
H4167 C4176 0.950 . S
H4168 C4178 0.950 . S
H4169 C4180 0.950 . S
H4170 C4182 0.950 . S
H4171 C4183 0.950 . S
C4172 H4164 0.950 . S
C4172 C4173 1.386 . S
C4172 C4174 1.391 . S
C4173 C4172 1.386 . S
C4173 C4177 1.393 . S
C4174 H4166 0.950 . S
C4174 C4172 1.391 . S
C4174 C4175 1.400 . S
C4175 C4174 1.400 . S
C4175 C4176 1.398 . S
C4175 C4181 1.491 . S
C4176 H4167 0.950 . S
C4176 C4175 1.398 . S
C4176 C4177 1.391 . S
C4177 H4165 0.950 . S
C4177 C4173 1.393 . S
C4177 C4176 1.391 . S
C4178 H4168 0.950 . S
C4178 C4179 1.386 . S
C4178 C4180 1.391 . S
C4179 C4178 1.386 . S
C4179 C4183 1.393 . S
C4180 H4169 0.950 . S
C4180 C4178 1.391 . S
C4180 C4181 1.400 . S
C4181 C4175 1.491 . S
C4181 C4180 1.400 . S
C4181 C4182 1.398 . S
C4182 H4170 0.950 . S
C4182 C4181 1.398 . S
C4182 C4183 1.391 . S
C4183 H4171 0.950 . S
C4183 C4179 1.393 . S
C4183 C4182 1.391 . S
H4184 C4192 0.950 . S
H4185 C4197 0.950 . S
H4186 C4194 0.950 . S
H4187 C4196 0.950 . S
H4188 C4198 0.950 . S
H4189 C4200 0.950 . S
H4190 C4202 0.950 . S
H4191 C4203 0.950 . S
C4192 H4184 0.950 . S
C4192 C4193 1.386 . S
C4192 C4194 1.391 . S
C4193 C4192 1.386 . S
C4193 C4197 1.393 . S
C4194 H4186 0.950 . S
C4194 C4192 1.391 . S
C4194 C4195 1.400 . S
C4195 C4194 1.400 . S
C4195 C4196 1.398 . S
C4195 C4201 1.491 . S
C4196 H4187 0.950 . S
C4196 C4195 1.398 . S
C4196 C4197 1.391 . S
C4197 H4185 0.950 . S
C4197 C4193 1.393 . S
C4197 C4196 1.391 . S
C4198 H4188 0.950 . S
C4198 C4199 1.386 . S
C4198 C4200 1.391 . S
C4199 C4198 1.386 . S
C4199 C4203 1.393 . S
C4200 H4189 0.950 . S
C4200 C4198 1.391 . S
C4200 C4201 1.400 . S
C4201 C4195 1.491 . S
C4201 C4200 1.400 . S
C4201 C4202 1.398 . S
C4202 H4190 0.950 . S
C4202 C4201 1.398 . S
C4202 C4203 1.391 . S
C4203 H4191 0.950 . S
C4203 C4199 1.393 . S
C4203 C4202 1.391 . S
H4204 C4212 0.950 . S
H4205 C4217 0.950 . S
H4206 C4214 0.950 . S
H4207 C4216 0.950 . S
H4208 C4218 0.950 . S
H4209 C4220 0.950 . S
H4210 C4222 0.950 . S
H4211 C4223 0.950 . S
C4212 H4204 0.950 . S
C4212 C4213 1.386 . S
C4212 C4214 1.391 . S
C4213 C4212 1.386 . S
C4213 C4217 1.393 . S
C4214 H4206 0.950 . S
C4214 C4212 1.391 . S
C4214 C4215 1.400 . S
C4215 C4214 1.400 . S
C4215 C4216 1.398 . S
C4215 C4221 1.491 . S
C4216 H4207 0.950 . S
C4216 C4215 1.398 . S
C4216 C4217 1.391 . S
C4217 H4205 0.950 . S
C4217 C4213 1.393 . S
C4217 C4216 1.391 . S
C4218 H4208 0.950 . S
C4218 C4219 1.386 . S
C4218 C4220 1.391 . S
C4219 C4218 1.386 . S
C4219 C4223 1.393 . S
C4220 H4209 0.950 . S
C4220 C4218 1.391 . S
C4220 C4221 1.400 . S
C4221 C4215 1.491 . S
C4221 C4220 1.400 . S
C4221 C4222 1.398 . S
C4222 H4210 0.950 . S
C4222 C4221 1.398 . S
C4222 C4223 1.391 . S
C4223 H4211 0.950 . S
C4223 C4219 1.393 . S
C4223 C4222 1.391 . S
H4224 C4232 0.950 . S
H4225 C4237 0.950 . S
H4226 C4234 0.950 . S
H4227 C4236 0.950 . S
H4228 C4238 0.950 . S
H4229 C4240 0.950 . S
H4230 C4242 0.950 . S
H4231 C4243 0.950 . S
C4232 H4224 0.950 . S
C4232 C4233 1.386 . S
C4232 C4234 1.391 . S
C4233 C4232 1.386 . S
C4233 C4237 1.393 . S
C4234 H4226 0.950 . S
C4234 C4232 1.391 . S
C4234 C4235 1.400 . S
C4235 C4234 1.400 . S
C4235 C4236 1.398 . S
C4235 C4241 1.491 . S
C4236 H4227 0.950 . S
C4236 C4235 1.398 . S
C4236 C4237 1.391 . S
C4237 H4225 0.950 . S
C4237 C4233 1.393 . S
C4237 C4236 1.391 . S
C4238 H4228 0.950 . S
C4238 C4239 1.386 . S
C4238 C4240 1.391 . S
C4239 C4238 1.386 . S
C4239 C4243 1.393 . S
C4240 H4229 0.950 . S
C4240 C4238 1.391 . S
C4240 C4241 1.400 . S
C4241 C4235 1.491 . S
C4241 C4240 1.400 . S
C4241 C4242 1.398 . S
C4242 H4230 0.950 . S
C4242 C4241 1.398 . S
C4242 C4243 1.391 . S
C4243 H4231 0.950 . S
C4243 C4239 1.393 . S
C4243 C4242 1.391 . S
H4244 C4252 0.950 . S
H4245 C4257 0.950 . S
H4246 C4254 0.950 . S
H4247 C4256 0.950 . S
H4248 C4258 0.950 . S
H4249 C4260 0.950 . S
H4250 C4262 0.950 . S
H4251 C4263 0.950 . S
C4252 H4244 0.950 . S
C4252 C4253 1.386 . S
C4252 C4254 1.391 . S
C4253 C4252 1.386 . S
C4253 C4257 1.393 . S
C4254 H4246 0.950 . S
C4254 C4252 1.391 . S
C4254 C4255 1.400 . S
C4255 C4254 1.400 . S
C4255 C4256 1.398 . S
C4255 C4261 1.491 . S
C4256 H4247 0.950 . S
C4256 C4255 1.398 . S
C4256 C4257 1.391 . S
C4257 H4245 0.950 . S
C4257 C4253 1.393 . S
C4257 C4256 1.391 . S
C4258 H4248 0.950 . S
C4258 C4259 1.386 . S
C4258 C4260 1.391 . S
C4259 C4258 1.386 . S
C4259 C4263 1.393 . S
C4260 H4249 0.950 . S
C4260 C4258 1.391 . S
C4260 C4261 1.400 . S
C4261 C4255 1.491 . S
C4261 C4260 1.400 . S
C4261 C4262 1.398 . S
C4262 H4250 0.950 . S
C4262 C4261 1.398 . S
C4262 C4263 1.391 . S
C4263 H4251 0.950 . S
C4263 C4259 1.393 . S
C4263 C4262 1.391 . S
H4264 C4272 0.950 . S
H4265 C4277 0.950 . S
H4266 C4274 0.950 . S
H4267 C4276 0.950 . S
H4268 C4278 0.950 . S
H4269 C4280 0.950 . S
H4270 C4282 0.950 . S
H4271 C4283 0.950 . S
C4272 H4264 0.950 . S
C4272 C4273 1.386 . S
C4272 C4274 1.391 . S
C4273 C4272 1.386 . S
C4273 C4277 1.393 . S
C4274 H4266 0.950 . S
C4274 C4272 1.391 . S
C4274 C4275 1.400 . S
C4275 C4274 1.400 . S
C4275 C4276 1.398 . S
C4275 C4281 1.491 . S
C4276 H4267 0.950 . S
C4276 C4275 1.398 . S
C4276 C4277 1.391 . S
C4277 H4265 0.950 . S
C4277 C4273 1.393 . S
C4277 C4276 1.391 . S
C4278 H4268 0.950 . S
C4278 C4279 1.386 . S
C4278 C4280 1.391 . S
C4279 C4278 1.386 . S
C4279 C4283 1.393 . S
C4280 H4269 0.950 . S
C4280 C4278 1.391 . S
C4280 C4281 1.400 . S
C4281 C4275 1.491 . S
C4281 C4280 1.400 . S
C4281 C4282 1.398 . S
C4282 H4270 0.950 . S
C4282 C4281 1.398 . S
C4282 C4283 1.391 . S
C4283 H4271 0.950 . S
C4283 C4279 1.393 . S
C4283 C4282 1.391 . S
H4284 C4292 0.950 . S
H4285 C4297 0.950 . S
H4286 C4294 0.950 . S
H4287 C4296 0.950 . S
H4288 C4298 0.950 . S
H4289 C4300 0.950 . S
H4290 C4302 0.950 . S
H4291 C4303 0.950 . S
C4292 H4284 0.950 . S
C4292 C4293 1.386 . S
C4292 C4294 1.391 . S
C4293 C4292 1.386 . S
C4293 C4297 1.393 . S
C4294 H4286 0.950 . S
C4294 C4292 1.391 . S
C4294 C4295 1.400 . S
C4295 C4294 1.400 . S
C4295 C4296 1.398 . S
C4295 C4301 1.491 . S
C4296 H4287 0.950 . S
C4296 C4295 1.398 . S
C4296 C4297 1.391 . S
C4297 H4285 0.950 . S
C4297 C4293 1.393 . S
C4297 C4296 1.391 . S
C4298 H4288 0.950 . S
C4298 C4299 1.386 . S
C4298 C4300 1.391 . S
C4299 C4298 1.386 . S
C4299 C4303 1.393 . S
C4300 H4289 0.950 . S
C4300 C4298 1.391 . S
C4300 C4301 1.400 . S
C4301 C4295 1.491 . S
C4301 C4300 1.400 . S
C4301 C4302 1.398 . S
C4302 H4290 0.950 . S
C4302 C4301 1.398 . S
C4302 C4303 1.391 . S
C4303 H4291 0.950 . S
C4303 C4299 1.393 . S
C4303 C4302 1.391 . S
H4304 C4312 0.950 . S
H4305 C4317 0.950 . S
H4306 C4314 0.950 . S
H4307 C4316 0.950 . S
H4308 C4318 0.950 . S
H4309 C4320 0.950 . S
H4310 C4322 0.950 . S
H4311 C4323 0.950 . S
C4312 H4304 0.950 . S
C4312 C4313 1.386 . S
C4312 C4314 1.391 . S
C4313 C4312 1.386 . S
C4313 C4317 1.393 . S
C4314 H4306 0.950 . S
C4314 C4312 1.391 . S
C4314 C4315 1.400 . S
C4315 C4314 1.400 . S
C4315 C4316 1.398 . S
C4315 C4321 1.491 . S
C4316 H4307 0.950 . S
C4316 C4315 1.398 . S
C4316 C4317 1.391 . S
C4317 H4305 0.950 . S
C4317 C4313 1.393 . S
C4317 C4316 1.391 . S
C4318 H4308 0.950 . S
C4318 C4319 1.386 . S
C4318 C4320 1.391 . S
C4319 C4318 1.386 . S
C4319 C4323 1.393 . S
C4320 H4309 0.950 . S
C4320 C4318 1.391 . S
C4320 C4321 1.400 . S
C4321 C4315 1.491 . S
C4321 C4320 1.400 . S
C4321 C4322 1.398 . S
C4322 H4310 0.950 . S
C4322 C4321 1.398 . S
C4322 C4323 1.391 . S
C4323 H4311 0.950 . S
C4323 C4319 1.393 . S
C4323 C4322 1.391 . S
H4324 C4332 0.950 . S
H4325 C4337 0.950 . S
H4326 C4334 0.950 . S
H4327 C4336 0.950 . S
H4328 C4338 0.950 . S
H4329 C4340 0.950 . S
H4330 C4342 0.950 . S
H4331 C4343 0.950 . S
C4332 H4324 0.950 . S
C4332 C4333 1.386 . S
C4332 C4334 1.391 . S
C4333 C4332 1.386 . S
C4333 C4337 1.393 . S
C4334 H4326 0.950 . S
C4334 C4332 1.391 . S
C4334 C4335 1.400 . S
C4335 C4334 1.400 . S
C4335 C4336 1.398 . S
C4335 C4341 1.491 . S
C4336 H4327 0.950 . S
C4336 C4335 1.398 . S
C4336 C4337 1.391 . S
C4337 H4325 0.950 . S
C4337 C4333 1.393 . S
C4337 C4336 1.391 . S
C4338 H4328 0.950 . S
C4338 C4339 1.386 . S
C4338 C4340 1.391 . S
C4339 C4338 1.386 . S
C4339 C4343 1.393 . S
C4340 H4329 0.950 . S
C4340 C4338 1.391 . S
C4340 C4341 1.400 . S
C4341 C4335 1.491 . S
C4341 C4340 1.400 . S
C4341 C4342 1.398 . S
C4342 H4330 0.950 . S
C4342 C4341 1.398 . S
C4342 C4343 1.391 . S
C4343 H4331 0.950 . S
C4343 C4339 1.393 . S
C4343 C4342 1.391 . S
H4344 C4352 0.950 . S
H4345 C4357 0.950 . S
H4346 C4354 0.950 . S
H4347 C4356 0.950 . S
H4348 C4358 0.950 . S
H4349 C4360 0.950 . S
H4350 C4362 0.950 . S
H4351 C4363 0.950 . S
C4352 H4344 0.950 . S
C4352 C4353 1.386 . S
C4352 C4354 1.391 . S
C4353 C4352 1.386 . S
C4353 C4357 1.393 . S
C4354 H4346 0.950 . S
C4354 C4352 1.391 . S
C4354 C4355 1.400 . S
C4355 C4354 1.400 . S
C4355 C4356 1.398 . S
C4355 C4361 1.491 . S
C4356 H4347 0.950 . S
C4356 C4355 1.398 . S
C4356 C4357 1.391 . S
C4357 H4345 0.950 . S
C4357 C4353 1.393 . S
C4357 C4356 1.391 . S
C4358 H4348 0.950 . S
C4358 C4359 1.386 . S
C4358 C4360 1.391 . S
C4359 C4358 1.386 . S
C4359 C4363 1.393 . S
C4360 H4349 0.950 . S
C4360 C4358 1.391 . S
C4360 C4361 1.400 . S
C4361 C4355 1.491 . S
C4361 C4360 1.400 . S
C4361 C4362 1.398 . S
C4362 H4350 0.950 . S
C4362 C4361 1.398 . S
C4362 C4363 1.391 . S
C4363 H4351 0.950 . S
C4363 C4359 1.393 . S
C4363 C4362 1.391 . S
H4364 C4372 0.950 . S
H4365 C4377 0.950 . S
H4366 C4374 0.950 . S
H4367 C4376 0.950 . S
H4368 C4378 0.950 . S
H4369 C4380 0.950 . S
H4370 C4382 0.950 . S
H4371 C4383 0.950 . S
C4372 H4364 0.950 . S
C4372 C4373 1.386 . S
C4372 C4374 1.391 . S
C4373 C4372 1.386 . S
C4373 C4377 1.393 . S
C4374 H4366 0.950 . S
C4374 C4372 1.391 . S
C4374 C4375 1.400 . S
C4375 C4374 1.400 . S
C4375 C4376 1.398 . S
C4375 C4381 1.491 . S
C4376 H4367 0.950 . S
C4376 C4375 1.398 . S
C4376 C4377 1.391 . S
C4377 H4365 0.950 . S
C4377 C4373 1.393 . S
C4377 C4376 1.391 . S
C4378 H4368 0.950 . S
C4378 C4379 1.386 . S
C4378 C4380 1.391 . S
C4379 C4378 1.386 . S
C4379 C4383 1.393 . S
C4380 H4369 0.950 . S
C4380 C4378 1.391 . S
C4380 C4381 1.400 . S
C4381 C4375 1.491 . S
C4381 C4380 1.400 . S
C4381 C4382 1.398 . S
C4382 H4370 0.950 . S
C4382 C4381 1.398 . S
C4382 C4383 1.391 . S
C4383 H4371 0.950 . S
C4383 C4379 1.393 . S
C4383 C4382 1.391 . S
H4384 C4392 0.950 . S
H4385 C4397 0.950 . S
H4386 C4394 0.950 . S
H4387 C4396 0.950 . S
H4388 C4398 0.950 . S
H4389 C4400 0.950 . S
H4390 C4402 0.950 . S
H4391 C4403 0.950 . S
C4392 H4384 0.950 . S
C4392 C4393 1.386 . S
C4392 C4394 1.391 . S
C4393 C4392 1.386 . S
C4393 C4397 1.393 . S
C4394 H4386 0.950 . S
C4394 C4392 1.391 . S
C4394 C4395 1.400 . S
C4395 C4394 1.400 . S
C4395 C4396 1.398 . S
C4395 C4401 1.491 . S
C4396 H4387 0.950 . S
C4396 C4395 1.398 . S
C4396 C4397 1.391 . S
C4397 H4385 0.950 . S
C4397 C4393 1.393 . S
C4397 C4396 1.391 . S
C4398 H4388 0.950 . S
C4398 C4399 1.386 . S
C4398 C4400 1.391 . S
C4399 C4398 1.386 . S
C4399 C4403 1.393 . S
C4400 H4389 0.950 . S
C4400 C4398 1.391 . S
C4400 C4401 1.400 . S
C4401 C4395 1.491 . S
C4401 C4400 1.400 . S
C4401 C4402 1.398 . S
C4402 H4390 0.950 . S
C4402 C4401 1.398 . S
C4402 C4403 1.391 . S
C4403 H4391 0.950 . S
C4403 C4399 1.393 . S
C4403 C4402 1.391 . S
H4404 C4412 0.950 . S
H4405 C4417 0.950 . S
H4406 C4414 0.950 . S
H4407 C4416 0.950 . S
H4408 C4418 0.950 . S
H4409 C4420 0.950 . S
H4410 C4422 0.950 . S
H4411 C4423 0.950 . S
C4412 H4404 0.950 . S
C4412 C4413 1.386 . S
C4412 C4414 1.391 . S
C4413 C4412 1.386 . S
C4413 C4417 1.393 . S
C4414 H4406 0.950 . S
C4414 C4412 1.391 . S
C4414 C4415 1.400 . S
C4415 C4414 1.400 . S
C4415 C4416 1.398 . S
C4415 C4421 1.491 . S
C4416 H4407 0.950 . S
C4416 C4415 1.398 . S
C4416 C4417 1.391 . S
C4417 H4405 0.950 . S
C4417 C4413 1.393 . S
C4417 C4416 1.391 . S
C4418 H4408 0.950 . S
C4418 C4419 1.386 . S
C4418 C4420 1.391 . S
C4419 C4418 1.386 . S
C4419 C4423 1.393 . S
C4420 H4409 0.950 . S
C4420 C4418 1.391 . S
C4420 C4421 1.400 . S
C4421 C4415 1.491 . S
C4421 C4420 1.400 . S
C4421 C4422 1.398 . S
C4422 H4410 0.950 . S
C4422 C4421 1.398 . S
C4422 C4423 1.391 . S
C4423 H4411 0.950 . S
C4423 C4419 1.393 . S
C4423 C4422 1.391 . S
H4424 C4432 0.950 . S
H4425 C4437 0.950 . S
H4426 C4434 0.950 . S
H4427 C4436 0.950 . S
H4428 C4438 0.950 . S
H4429 C4440 0.950 . S
H4430 C4442 0.950 . S
H4431 C4443 0.950 . S
C4432 H4424 0.950 . S
C4432 C4433 1.386 . S
C4432 C4434 1.391 . S
C4433 C4432 1.386 . S
C4433 C4437 1.393 . S
C4434 H4426 0.950 . S
C4434 C4432 1.391 . S
C4434 C4435 1.400 . S
C4435 C4434 1.400 . S
C4435 C4436 1.398 . S
C4435 C4441 1.491 . S
C4436 H4427 0.950 . S
C4436 C4435 1.398 . S
C4436 C4437 1.391 . S
C4437 H4425 0.950 . S
C4437 C4433 1.393 . S
C4437 C4436 1.391 . S
C4438 H4428 0.950 . S
C4438 C4439 1.386 . S
C4438 C4440 1.391 . S
C4439 C4438 1.386 . S
C4439 C4443 1.393 . S
C4440 H4429 0.950 . S
C4440 C4438 1.391 . S
C4440 C4441 1.400 . S
C4441 C4435 1.491 . S
C4441 C4440 1.400 . S
C4441 C4442 1.398 . S
C4442 H4430 0.950 . S
C4442 C4441 1.398 . S
C4442 C4443 1.391 . S
C4443 H4431 0.950 . S
C4443 C4439 1.393 . S
C4443 C4442 1.391 . S
H4444 C4452 0.950 . S
H4445 C4457 0.950 . S
H4446 C4454 0.950 . S
H4447 C4456 0.950 . S
H4448 C4458 0.950 . S
H4449 C4460 0.950 . S
H4450 C4462 0.950 . S
H4451 C4463 0.950 . S
C4452 H4444 0.950 . S
C4452 C4453 1.386 . S
C4452 C4454 1.391 . S
C4453 C4452 1.386 . S
C4453 C4457 1.393 . S
C4454 H4446 0.950 . S
C4454 C4452 1.391 . S
C4454 C4455 1.400 . S
C4455 C4454 1.400 . S
C4455 C4456 1.398 . S
C4455 C4461 1.491 . S
C4456 H4447 0.950 . S
C4456 C4455 1.398 . S
C4456 C4457 1.391 . S
C4457 H4445 0.950 . S
C4457 C4453 1.393 . S
C4457 C4456 1.391 . S
C4458 H4448 0.950 . S
C4458 C4459 1.386 . S
C4458 C4460 1.391 . S
C4459 C4458 1.386 . S
C4459 C4463 1.393 . S
C4460 H4449 0.950 . S
C4460 C4458 1.391 . S
C4460 C4461 1.400 . S
C4461 C4455 1.491 . S
C4461 C4460 1.400 . S
C4461 C4462 1.398 . S
C4462 H4450 0.950 . S
C4462 C4461 1.398 . S
C4462 C4463 1.391 . S
C4463 H4451 0.950 . S
C4463 C4459 1.393 . S
C4463 C4462 1.391 . S
H4464 C4472 0.950 . S
H4465 C4477 0.950 . S
H4466 C4474 0.950 . S
H4467 C4476 0.950 . S
H4468 C4478 0.950 . S
H4469 C4480 0.950 . S
H4470 C4482 0.950 . S
H4471 C4483 0.950 . S
C4472 H4464 0.950 . S
C4472 C4473 1.386 . S
C4472 C4474 1.391 . S
C4473 C4472 1.386 . S
C4473 C4477 1.393 . S
C4474 H4466 0.950 . S
C4474 C4472 1.391 . S
C4474 C4475 1.400 . S
C4475 C4474 1.400 . S
C4475 C4476 1.398 . S
C4475 C4481 1.491 . S
C4476 H4467 0.950 . S
C4476 C4475 1.398 . S
C4476 C4477 1.391 . S
C4477 H4465 0.950 . S
C4477 C4473 1.393 . S
C4477 C4476 1.391 . S
C4478 H4468 0.950 . S
C4478 C4479 1.386 . S
C4478 C4480 1.391 . S
C4479 C4478 1.386 . S
C4479 C4483 1.393 . S
C4480 H4469 0.950 . S
C4480 C4478 1.391 . S
C4480 C4481 1.400 . S
C4481 C4475 1.491 . S
C4481 C4480 1.400 . S
C4481 C4482 1.398 . S
C4482 H4470 0.950 . S
C4482 C4481 1.398 . S
C4482 C4483 1.391 . S
C4483 H4471 0.950 . S
C4483 C4479 1.393 . S
C4483 C4482 1.391 . S
H4484 C4492 0.950 . S
H4485 C4497 0.950 . S
H4486 C4494 0.950 . S
H4487 C4496 0.950 . S
H4488 C4498 0.950 . S
H4489 C4500 0.950 . S
H4490 C4502 0.950 . S
H4491 C4503 0.950 . S
C4492 H4484 0.950 . S
C4492 C4493 1.386 . S
C4492 C4494 1.391 . S
C4493 C4492 1.386 . S
C4493 C4497 1.393 . S
C4494 H4486 0.950 . S
C4494 C4492 1.391 . S
C4494 C4495 1.400 . S
C4495 C4494 1.400 . S
C4495 C4496 1.398 . S
C4495 C4501 1.491 . S
C4496 H4487 0.950 . S
C4496 C4495 1.398 . S
C4496 C4497 1.391 . S
C4497 H4485 0.950 . S
C4497 C4493 1.393 . S
C4497 C4496 1.391 . S
C4498 H4488 0.950 . S
C4498 C4499 1.386 . S
C4498 C4500 1.391 . S
C4499 C4498 1.386 . S
C4499 C4503 1.393 . S
C4500 H4489 0.950 . S
C4500 C4498 1.391 . S
C4500 C4501 1.400 . S
C4501 C4495 1.491 . S
C4501 C4500 1.400 . S
C4501 C4502 1.398 . S
C4502 H4490 0.950 . S
C4502 C4501 1.398 . S
C4502 C4503 1.391 . S
C4503 H4491 0.950 . S
C4503 C4499 1.393 . S
C4503 C4502 1.391 . S
H4504 C4512 0.950 . S
H4505 C4517 0.950 . S
H4506 C4514 0.950 . S
H4507 C4516 0.950 . S
H4508 C4518 0.950 . S
H4509 C4520 0.950 . S
H4510 C4522 0.950 . S
H4511 C4523 0.950 . S
C4512 H4504 0.950 . S
C4512 C4513 1.386 . S
C4512 C4514 1.391 . S
C4513 C4512 1.386 . S
C4513 C4517 1.393 . S
C4514 H4506 0.950 . S
C4514 C4512 1.391 . S
C4514 C4515 1.400 . S
C4515 C4514 1.400 . S
C4515 C4516 1.398 . S
C4515 C4521 1.491 . S
C4516 H4507 0.950 . S
C4516 C4515 1.398 . S
C4516 C4517 1.391 . S
C4517 H4505 0.950 . S
C4517 C4513 1.393 . S
C4517 C4516 1.391 . S
C4518 H4508 0.950 . S
C4518 C4519 1.386 . S
C4518 C4520 1.391 . S
C4519 C4518 1.386 . S
C4519 C4523 1.393 . S
C4520 H4509 0.950 . S
C4520 C4518 1.391 . S
C4520 C4521 1.400 . S
C4521 C4515 1.491 . S
C4521 C4520 1.400 . S
C4521 C4522 1.398 . S
C4522 H4510 0.950 . S
C4522 C4521 1.398 . S
C4522 C4523 1.391 . S
C4523 H4511 0.950 . S
C4523 C4519 1.393 . S
C4523 C4522 1.391 . S
H4524 C4532 0.950 . S
H4525 C4537 0.950 . S
H4526 C4534 0.950 . S
H4527 C4536 0.950 . S
H4528 C4538 0.950 . S
H4529 C4540 0.950 . S
H4530 C4542 0.950 . S
H4531 C4543 0.950 . S
C4532 H4524 0.950 . S
C4532 C4533 1.386 . S
C4532 C4534 1.391 . S
C4533 C4532 1.386 . S
C4533 C4537 1.393 . S
C4534 H4526 0.950 . S
C4534 C4532 1.391 . S
C4534 C4535 1.400 . S
C4535 C4534 1.400 . S
C4535 C4536 1.398 . S
C4535 C4541 1.491 . S
C4536 H4527 0.950 . S
C4536 C4535 1.398 . S
C4536 C4537 1.391 . S
C4537 H4525 0.950 . S
C4537 C4533 1.393 . S
C4537 C4536 1.391 . S
C4538 H4528 0.950 . S
C4538 C4539 1.386 . S
C4538 C4540 1.391 . S
C4539 C4538 1.386 . S
C4539 C4543 1.393 . S
C4540 H4529 0.950 . S
C4540 C4538 1.391 . S
C4540 C4541 1.400 . S
C4541 C4535 1.491 . S
C4541 C4540 1.400 . S
C4541 C4542 1.398 . S
C4542 H4530 0.950 . S
C4542 C4541 1.398 . S
C4542 C4543 1.391 . S
C4543 H4531 0.950 . S
C4543 C4539 1.393 . S
C4543 C4542 1.391 . S
H4544 C4552 0.950 . S
H4545 C4557 0.950 . S
H4546 C4554 0.950 . S
H4547 C4556 0.950 . S
H4548 C4558 0.950 . S
H4549 C4560 0.950 . S
H4550 C4562 0.950 . S
H4551 C4563 0.950 . S
C4552 H4544 0.950 . S
C4552 C4553 1.386 . S
C4552 C4554 1.391 . S
C4553 C4552 1.386 . S
C4553 C4557 1.393 . S
C4554 H4546 0.950 . S
C4554 C4552 1.391 . S
C4554 C4555 1.400 . S
C4555 C4554 1.400 . S
C4555 C4556 1.398 . S
C4555 C4561 1.491 . S
C4556 H4547 0.950 . S
C4556 C4555 1.398 . S
C4556 C4557 1.391 . S
C4557 H4545 0.950 . S
C4557 C4553 1.393 . S
C4557 C4556 1.391 . S
C4558 H4548 0.950 . S
C4558 C4559 1.386 . S
C4558 C4560 1.391 . S
C4559 C4558 1.386 . S
C4559 C4563 1.393 . S
C4560 H4549 0.950 . S
C4560 C4558 1.391 . S
C4560 C4561 1.400 . S
C4561 C4555 1.491 . S
C4561 C4560 1.400 . S
C4561 C4562 1.398 . S
C4562 H4550 0.950 . S
C4562 C4561 1.398 . S
C4562 C4563 1.391 . S
C4563 H4551 0.950 . S
C4563 C4559 1.393 . S
C4563 C4562 1.391 . S
H4564 C4572 0.950 . S
H4565 C4577 0.950 . S
H4566 C4574 0.950 . S
H4567 C4576 0.950 . S
H4568 C4578 0.950 . S
H4569 C4580 0.950 . S
H4570 C4582 0.950 . S
H4571 C4583 0.950 . S
C4572 H4564 0.950 . S
C4572 C4573 1.386 . S
C4572 C4574 1.391 . S
C4573 C4572 1.386 . S
C4573 C4577 1.393 . S
C4574 H4566 0.950 . S
C4574 C4572 1.391 . S
C4574 C4575 1.400 . S
C4575 C4574 1.400 . S
C4575 C4576 1.398 . S
C4575 C4581 1.491 . S
C4576 H4567 0.950 . S
C4576 C4575 1.398 . S
C4576 C4577 1.391 . S
C4577 H4565 0.950 . S
C4577 C4573 1.393 . S
C4577 C4576 1.391 . S
C4578 H4568 0.950 . S
C4578 C4579 1.386 . S
C4578 C4580 1.391 . S
C4579 C4578 1.386 . S
C4579 C4583 1.393 . S
C4580 H4569 0.950 . S
C4580 C4578 1.391 . S
C4580 C4581 1.400 . S
C4581 C4575 1.491 . S
C4581 C4580 1.400 . S
C4581 C4582 1.398 . S
C4582 H4570 0.950 . S
C4582 C4581 1.398 . S
C4582 C4583 1.391 . S
C4583 H4571 0.950 . S
C4583 C4579 1.393 . S
C4583 C4582 1.391 . S
H4584 C4592 0.950 . S
H4585 C4597 0.950 . S
H4586 C4594 0.950 . S
H4587 C4596 0.950 . S
H4588 C4598 0.950 . S
H4589 C4600 0.950 . S
H4590 C4602 0.950 . S
H4591 C4603 0.950 . S
C4592 H4584 0.950 . S
C4592 C4593 1.386 . S
C4592 C4594 1.391 . S
C4593 C4592 1.386 . S
C4593 C4597 1.393 . S
C4594 H4586 0.950 . S
C4594 C4592 1.391 . S
C4594 C4595 1.400 . S
C4595 C4594 1.400 . S
C4595 C4596 1.398 . S
C4595 C4601 1.491 . S
C4596 H4587 0.950 . S
C4596 C4595 1.398 . S
C4596 C4597 1.391 . S
C4597 H4585 0.950 . S
C4597 C4593 1.393 . S
C4597 C4596 1.391 . S
C4598 H4588 0.950 . S
C4598 C4599 1.386 . S
C4598 C4600 1.391 . S
C4599 C4598 1.386 . S
C4599 C4603 1.393 . S
C4600 H4589 0.950 . S
C4600 C4598 1.391 . S
C4600 C4601 1.400 . S
C4601 C4595 1.491 . S
C4601 C4600 1.400 . S
C4601 C4602 1.398 . S
C4602 H4590 0.950 . S
C4602 C4601 1.398 . S
C4602 C4603 1.391 . S
C4603 H4591 0.950 . S
C4603 C4599 1.393 . S
C4603 C4602 1.391 . S
H4604 C4612 0.950 . S
H4605 C4617 0.950 . S
H4606 C4614 0.950 . S
H4607 C4616 0.950 . S
H4608 C4618 0.950 . S
H4609 C4620 0.950 . S
H4610 C4622 0.950 . S
H4611 C4623 0.950 . S
C4612 H4604 0.950 . S
C4612 C4613 1.386 . S
C4612 C4614 1.391 . S
C4613 C4612 1.386 . S
C4613 C4617 1.393 . S
C4614 H4606 0.950 . S
C4614 C4612 1.391 . S
C4614 C4615 1.400 . S
C4615 C4614 1.400 . S
C4615 C4616 1.398 . S
C4615 C4621 1.491 . S
C4616 H4607 0.950 . S
C4616 C4615 1.398 . S
C4616 C4617 1.391 . S
C4617 H4605 0.950 . S
C4617 C4613 1.393 . S
C4617 C4616 1.391 . S
C4618 H4608 0.950 . S
C4618 C4619 1.386 . S
C4618 C4620 1.391 . S
C4619 C4618 1.386 . S
C4619 C4623 1.393 . S
C4620 H4609 0.950 . S
C4620 C4618 1.391 . S
C4620 C4621 1.400 . S
C4621 C4615 1.491 . S
C4621 C4620 1.400 . S
C4621 C4622 1.398 . S
C4622 H4610 0.950 . S
C4622 C4621 1.398 . S
C4622 C4623 1.391 . S
C4623 H4611 0.950 . S
C4623 C4619 1.393 . S
C4623 C4622 1.391 . S
H4624 C4632 0.950 . S
H4625 C4637 0.950 . S
H4626 C4634 0.950 . S
H4627 C4636 0.950 . S
H4628 C4638 0.950 . S
H4629 C4640 0.950 . S
H4630 C4642 0.950 . S
H4631 C4643 0.950 . S
C4632 H4624 0.950 . S
C4632 C4633 1.386 . S
C4632 C4634 1.391 . S
C4633 C4632 1.386 . S
C4633 C4637 1.393 . S
C4634 H4626 0.950 . S
C4634 C4632 1.391 . S
C4634 C4635 1.400 . S
C4635 C4634 1.400 . S
C4635 C4636 1.398 . S
C4635 C4641 1.491 . S
C4636 H4627 0.950 . S
C4636 C4635 1.398 . S
C4636 C4637 1.391 . S
C4637 H4625 0.950 . S
C4637 C4633 1.393 . S
C4637 C4636 1.391 . S
C4638 H4628 0.950 . S
C4638 C4639 1.386 . S
C4638 C4640 1.391 . S
C4639 C4638 1.386 . S
C4639 C4643 1.393 . S
C4640 H4629 0.950 . S
C4640 C4638 1.391 . S
C4640 C4641 1.400 . S
C4641 C4635 1.491 . S
C4641 C4640 1.400 . S
C4641 C4642 1.398 . S
C4642 H4630 0.950 . S
C4642 C4641 1.398 . S
C4642 C4643 1.391 . S
C4643 H4631 0.950 . S
C4643 C4639 1.393 . S
C4643 C4642 1.391 . S
H4644 C4652 0.950 . S
H4645 C4657 0.950 . S
H4646 C4654 0.950 . S
H4647 C4656 0.950 . S
H4648 C4658 0.950 . S
H4649 C4660 0.950 . S
H4650 C4662 0.950 . S
H4651 C4663 0.950 . S
C4652 H4644 0.950 . S
C4652 C4653 1.386 . S
C4652 C4654 1.391 . S
C4653 C4652 1.386 . S
C4653 C4657 1.393 . S
C4654 H4646 0.950 . S
C4654 C4652 1.391 . S
C4654 C4655 1.400 . S
C4655 C4654 1.400 . S
C4655 C4656 1.398 . S
C4655 C4661 1.491 . S
C4656 H4647 0.950 . S
C4656 C4655 1.398 . S
C4656 C4657 1.391 . S
C4657 H4645 0.950 . S
C4657 C4653 1.393 . S
C4657 C4656 1.391 . S
C4658 H4648 0.950 . S
C4658 C4659 1.386 . S
C4658 C4660 1.391 . S
C4659 C4658 1.386 . S
C4659 C4663 1.393 . S
C4660 H4649 0.950 . S
C4660 C4658 1.391 . S
C4660 C4661 1.400 . S
C4661 C4655 1.491 . S
C4661 C4660 1.400 . S
C4661 C4662 1.398 . S
C4662 H4650 0.950 . S
C4662 C4661 1.398 . S
C4662 C4663 1.391 . S
C4663 H4651 0.950 . S
C4663 C4659 1.393 . S
C4663 C4662 1.391 . S
H4664 C4672 0.950 . S
H4665 C4677 0.950 . S
H4666 C4674 0.950 . S
H4667 C4676 0.950 . S
H4668 C4678 0.950 . S
H4669 C4680 0.950 . S
H4670 C4682 0.950 . S
H4671 C4683 0.950 . S
C4672 H4664 0.950 . S
C4672 C4673 1.386 . S
C4672 C4674 1.391 . S
C4673 C4672 1.386 . S
C4673 C4677 1.393 . S
C4674 H4666 0.950 . S
C4674 C4672 1.391 . S
C4674 C4675 1.400 . S
C4675 C4674 1.400 . S
C4675 C4676 1.398 . S
C4675 C4681 1.491 . S
C4676 H4667 0.950 . S
C4676 C4675 1.398 . S
C4676 C4677 1.391 . S
C4677 H4665 0.950 . S
C4677 C4673 1.393 . S
C4677 C4676 1.391 . S
C4678 H4668 0.950 . S
C4678 C4679 1.386 . S
C4678 C4680 1.391 . S
C4679 C4678 1.386 . S
C4679 C4683 1.393 . S
C4680 H4669 0.950 . S
C4680 C4678 1.391 . S
C4680 C4681 1.400 . S
C4681 C4675 1.491 . S
C4681 C4680 1.400 . S
C4681 C4682 1.398 . S
C4682 H4670 0.950 . S
C4682 C4681 1.398 . S
C4682 C4683 1.391 . S
C4683 H4671 0.950 . S
C4683 C4679 1.393 . S
C4683 C4682 1.391 . S
H4684 C4692 0.950 . S
H4685 C4697 0.950 . S
H4686 C4694 0.950 . S
H4687 C4696 0.950 . S
H4688 C4698 0.950 . S
H4689 C4700 0.950 . S
H4690 C4702 0.950 . S
H4691 C4703 0.950 . S
C4692 H4684 0.950 . S
C4692 C4693 1.386 . S
C4692 C4694 1.391 . S
C4693 C4692 1.386 . S
C4693 C4697 1.393 . S
C4694 H4686 0.950 . S
C4694 C4692 1.391 . S
C4694 C4695 1.400 . S
C4695 C4694 1.400 . S
C4695 C4696 1.398 . S
C4695 C4701 1.491 . S
C4696 H4687 0.950 . S
C4696 C4695 1.398 . S
C4696 C4697 1.391 . S
C4697 H4685 0.950 . S
C4697 C4693 1.393 . S
C4697 C4696 1.391 . S
C4698 H4688 0.950 . S
C4698 C4699 1.386 . S
C4698 C4700 1.391 . S
C4699 C4698 1.386 . S
C4699 C4703 1.393 . S
C4700 H4689 0.950 . S
C4700 C4698 1.391 . S
C4700 C4701 1.400 . S
C4701 C4695 1.491 . S
C4701 C4700 1.400 . S
C4701 C4702 1.398 . S
C4702 H4690 0.950 . S
C4702 C4701 1.398 . S
C4702 C4703 1.391 . S
C4703 H4691 0.950 . S
C4703 C4699 1.393 . S
C4703 C4702 1.391 . S
H4704 C4712 0.950 . S
H4705 C4717 0.950 . S
H4706 C4714 0.950 . S
H4707 C4716 0.950 . S
H4708 C4718 0.950 . S
H4709 C4720 0.950 . S
H4710 C4722 0.950 . S
H4711 C4723 0.950 . S
C4712 H4704 0.950 . S
C4712 C4713 1.386 . S
C4712 C4714 1.391 . S
C4713 C4712 1.386 . S
C4713 C4717 1.393 . S
C4714 H4706 0.950 . S
C4714 C4712 1.391 . S
C4714 C4715 1.400 . S
C4715 C4714 1.400 . S
C4715 C4716 1.398 . S
C4715 C4721 1.491 . S
C4716 H4707 0.950 . S
C4716 C4715 1.398 . S
C4716 C4717 1.391 . S
C4717 H4705 0.950 . S
C4717 C4713 1.393 . S
C4717 C4716 1.391 . S
C4718 H4708 0.950 . S
C4718 C4719 1.386 . S
C4718 C4720 1.391 . S
C4719 C4718 1.386 . S
C4719 C4723 1.393 . S
C4720 H4709 0.950 . S
C4720 C4718 1.391 . S
C4720 C4721 1.400 . S
C4721 C4715 1.491 . S
C4721 C4720 1.400 . S
C4721 C4722 1.398 . S
C4722 H4710 0.950 . S
C4722 C4721 1.398 . S
C4722 C4723 1.391 . S
C4723 H4711 0.950 . S
C4723 C4719 1.393 . S
C4723 C4722 1.391 . S
H4724 C4732 0.950 . S
H4725 C4737 0.950 . S
H4726 C4734 0.950 . S
H4727 C4736 0.950 . S
H4728 C4738 0.950 . S
H4729 C4740 0.950 . S
H4730 C4742 0.950 . S
H4731 C4743 0.950 . S
C4732 H4724 0.950 . S
C4732 C4733 1.386 . S
C4732 C4734 1.391 . S
C4733 C4732 1.386 . S
C4733 C4737 1.393 . S
C4734 H4726 0.950 . S
C4734 C4732 1.391 . S
C4734 C4735 1.400 . S
C4735 C4734 1.400 . S
C4735 C4736 1.398 . S
C4735 C4741 1.491 . S
C4736 H4727 0.950 . S
C4736 C4735 1.398 . S
C4736 C4737 1.391 . S
C4737 H4725 0.950 . S
C4737 C4733 1.393 . S
C4737 C4736 1.391 . S
C4738 H4728 0.950 . S
C4738 C4739 1.386 . S
C4738 C4740 1.391 . S
C4739 C4738 1.386 . S
C4739 C4743 1.393 . S
C4740 H4729 0.950 . S
C4740 C4738 1.391 . S
C4740 C4741 1.400 . S
C4741 C4735 1.491 . S
C4741 C4740 1.400 . S
C4741 C4742 1.398 . S
C4742 H4730 0.950 . S
C4742 C4741 1.398 . S
C4742 C4743 1.391 . S
C4743 H4731 0.950 . S
C4743 C4739 1.393 . S
C4743 C4742 1.391 . S
H4744 C4752 0.950 . S
H4745 C4757 0.950 . S
H4746 C4754 0.950 . S
H4747 C4756 0.950 . S
H4748 C4758 0.950 . S
H4749 C4760 0.950 . S
H4750 C4762 0.950 . S
H4751 C4763 0.950 . S
C4752 H4744 0.950 . S
C4752 C4753 1.386 . S
C4752 C4754 1.391 . S
C4753 C4752 1.386 . S
C4753 C4757 1.393 . S
C4754 H4746 0.950 . S
C4754 C4752 1.391 . S
C4754 C4755 1.400 . S
C4755 C4754 1.400 . S
C4755 C4756 1.398 . S
C4755 C4761 1.491 . S
C4756 H4747 0.950 . S
C4756 C4755 1.398 . S
C4756 C4757 1.391 . S
C4757 H4745 0.950 . S
C4757 C4753 1.393 . S
C4757 C4756 1.391 . S
C4758 H4748 0.950 . S
C4758 C4759 1.386 . S
C4758 C4760 1.391 . S
C4759 C4758 1.386 . S
C4759 C4763 1.393 . S
C4760 H4749 0.950 . S
C4760 C4758 1.391 . S
C4760 C4761 1.400 . S
C4761 C4755 1.491 . S
C4761 C4760 1.400 . S
C4761 C4762 1.398 . S
C4762 H4750 0.950 . S
C4762 C4761 1.398 . S
C4762 C4763 1.391 . S
C4763 H4751 0.950 . S
C4763 C4759 1.393 . S
C4763 C4762 1.391 . S
H4764 C4772 0.950 . S
H4765 C4777 0.950 . S
H4766 C4774 0.950 . S
H4767 C4776 0.950 . S
H4768 C4778 0.950 . S
H4769 C4780 0.950 . S
H4770 C4782 0.950 . S
H4771 C4783 0.950 . S
C4772 H4764 0.950 . S
C4772 C4773 1.386 . S
C4772 C4774 1.391 . S
C4773 C4772 1.386 . S
C4773 C4777 1.393 . S
C4774 H4766 0.950 . S
C4774 C4772 1.391 . S
C4774 C4775 1.400 . S
C4775 C4774 1.400 . S
C4775 C4776 1.398 . S
C4775 C4781 1.491 . S
C4776 H4767 0.950 . S
C4776 C4775 1.398 . S
C4776 C4777 1.391 . S
C4777 H4765 0.950 . S
C4777 C4773 1.393 . S
C4777 C4776 1.391 . S
C4778 H4768 0.950 . S
C4778 C4779 1.386 . S
C4778 C4780 1.391 . S
C4779 C4778 1.386 . S
C4779 C4783 1.393 . S
C4780 H4769 0.950 . S
C4780 C4778 1.391 . S
C4780 C4781 1.400 . S
C4781 C4775 1.491 . S
C4781 C4780 1.400 . S
C4781 C4782 1.398 . S
C4782 H4770 0.950 . S
C4782 C4781 1.398 . S
C4782 C4783 1.391 . S
C4783 H4771 0.950 . S
C4783 C4779 1.393 . S
C4783 C4782 1.391 . S
H4784 C4792 0.950 . S
H4785 C4797 0.950 . S
H4786 C4794 0.950 . S
H4787 C4796 0.950 . S
H4788 C4798 0.950 . S
H4789 C4800 0.950 . S
H4790 C4802 0.950 . S
H4791 C4803 0.950 . S
C4792 H4784 0.950 . S
C4792 C4793 1.386 . S
C4792 C4794 1.391 . S
C4793 C4792 1.386 . S
C4793 C4797 1.393 . S
C4794 H4786 0.950 . S
C4794 C4792 1.391 . S
C4794 C4795 1.400 . S
C4795 C4794 1.400 . S
C4795 C4796 1.398 . S
C4795 C4801 1.491 . S
C4796 H4787 0.950 . S
C4796 C4795 1.398 . S
C4796 C4797 1.391 . S
C4797 H4785 0.950 . S
C4797 C4793 1.393 . S
C4797 C4796 1.391 . S
C4798 H4788 0.950 . S
C4798 C4799 1.386 . S
C4798 C4800 1.391 . S
C4799 C4798 1.386 . S
C4799 C4803 1.393 . S
C4800 H4789 0.950 . S
C4800 C4798 1.391 . S
C4800 C4801 1.400 . S
C4801 C4795 1.491 . S
C4801 C4800 1.400 . S
C4801 C4802 1.398 . S
C4802 H4790 0.950 . S
C4802 C4801 1.398 . S
C4802 C4803 1.391 . S
C4803 H4791 0.950 . S
C4803 C4799 1.393 . S
C4803 C4802 1.391 . S
H4804 C4812 0.950 . S
H4805 C4817 0.950 . S
H4806 C4814 0.950 . S
H4807 C4816 0.950 . S
H4808 C4818 0.950 . S
H4809 C4820 0.950 . S
H4810 C4822 0.950 . S
H4811 C4823 0.950 . S
C4812 H4804 0.950 . S
C4812 C4813 1.386 . S
C4812 C4814 1.391 . S
C4813 C4812 1.386 . S
C4813 C4817 1.393 . S
C4814 H4806 0.950 . S
C4814 C4812 1.391 . S
C4814 C4815 1.400 . S
C4815 C4814 1.400 . S
C4815 C4816 1.398 . S
C4815 C4821 1.491 . S
C4816 H4807 0.950 . S
C4816 C4815 1.398 . S
C4816 C4817 1.391 . S
C4817 H4805 0.950 . S
C4817 C4813 1.393 . S
C4817 C4816 1.391 . S
C4818 H4808 0.950 . S
C4818 C4819 1.386 . S
C4818 C4820 1.391 . S
C4819 C4818 1.386 . S
C4819 C4823 1.393 . S
C4820 H4809 0.950 . S
C4820 C4818 1.391 . S
C4820 C4821 1.400 . S
C4821 C4815 1.491 . S
C4821 C4820 1.400 . S
C4821 C4822 1.398 . S
C4822 H4810 0.950 . S
C4822 C4821 1.398 . S
C4822 C4823 1.391 . S
C4823 H4811 0.950 . S
C4823 C4819 1.393 . S
C4823 C4822 1.391 . S
H4824 C4832 0.950 . S
H4825 C4837 0.950 . S
H4826 C4834 0.950 . S
H4827 C4836 0.950 . S
H4828 C4838 0.950 . S
H4829 C4840 0.950 . S
H4830 C4842 0.950 . S
H4831 C4843 0.950 . S
C4832 H4824 0.950 . S
C4832 C4833 1.386 . S
C4832 C4834 1.391 . S
C4833 C4832 1.386 . S
C4833 C4837 1.393 . S
C4834 H4826 0.950 . S
C4834 C4832 1.391 . S
C4834 C4835 1.400 . S
C4835 C4834 1.400 . S
C4835 C4836 1.398 . S
C4835 C4841 1.491 . S
C4836 H4827 0.950 . S
C4836 C4835 1.398 . S
C4836 C4837 1.391 . S
C4837 H4825 0.950 . S
C4837 C4833 1.393 . S
C4837 C4836 1.391 . S
C4838 H4828 0.950 . S
C4838 C4839 1.386 . S
C4838 C4840 1.391 . S
C4839 C4838 1.386 . S
C4839 C4843 1.393 . S
C4840 H4829 0.950 . S
C4840 C4838 1.391 . S
C4840 C4841 1.400 . S
C4841 C4835 1.491 . S
C4841 C4840 1.400 . S
C4841 C4842 1.398 . S
C4842 H4830 0.950 . S
C4842 C4841 1.398 . S
C4842 C4843 1.391 . S
C4843 H4831 0.950 . S
C4843 C4839 1.393 . S
C4843 C4842 1.391 . S
H4844 C4852 0.950 . S
H4845 C4857 0.950 . S
H4846 C4854 0.950 . S
H4847 C4856 0.950 . S
H4848 C4858 0.950 . S
H4849 C4860 0.950 . S
H4850 C4862 0.950 . S
H4851 C4863 0.950 . S
C4852 H4844 0.950 . S
C4852 C4853 1.386 . S
C4852 C4854 1.391 . S
C4853 C4852 1.386 . S
C4853 C4857 1.393 . S
C4854 H4846 0.950 . S
C4854 C4852 1.391 . S
C4854 C4855 1.400 . S
C4855 C4854 1.400 . S
C4855 C4856 1.398 . S
C4855 C4861 1.491 . S
C4856 H4847 0.950 . S
C4856 C4855 1.398 . S
C4856 C4857 1.391 . S
C4857 H4845 0.950 . S
C4857 C4853 1.393 . S
C4857 C4856 1.391 . S
C4858 H4848 0.950 . S
C4858 C4859 1.386 . S
C4858 C4860 1.391 . S
C4859 C4858 1.386 . S
C4859 C4863 1.393 . S
C4860 H4849 0.950 . S
C4860 C4858 1.391 . S
C4860 C4861 1.400 . S
C4861 C4855 1.491 . S
C4861 C4860 1.400 . S
C4861 C4862 1.398 . S
C4862 H4850 0.950 . S
C4862 C4861 1.398 . S
C4862 C4863 1.391 . S
C4863 H4851 0.950 . S
C4863 C4859 1.393 . S
C4863 C4862 1.391 . S
H4864 C4872 0.950 . S
H4865 C4877 0.950 . S
H4866 C4874 0.950 . S
H4867 C4876 0.950 . S
H4868 C4878 0.950 . S
H4869 C4880 0.950 . S
H4870 C4882 0.950 . S
H4871 C4883 0.950 . S
C4872 H4864 0.950 . S
C4872 C4873 1.386 . S
C4872 C4874 1.391 . S
C4873 C4872 1.386 . S
C4873 C4877 1.393 . S
C4874 H4866 0.950 . S
C4874 C4872 1.391 . S
C4874 C4875 1.400 . S
C4875 C4874 1.400 . S
C4875 C4876 1.398 . S
C4875 C4881 1.491 . S
C4876 H4867 0.950 . S
C4876 C4875 1.398 . S
C4876 C4877 1.391 . S
C4877 H4865 0.950 . S
C4877 C4873 1.393 . S
C4877 C4876 1.391 . S
C4878 H4868 0.950 . S
C4878 C4879 1.386 . S
C4878 C4880 1.391 . S
C4879 C4878 1.386 . S
C4879 C4883 1.393 . S
C4880 H4869 0.950 . S
C4880 C4878 1.391 . S
C4880 C4881 1.400 . S
C4881 C4875 1.491 . S
C4881 C4880 1.400 . S
C4881 C4882 1.398 . S
C4882 H4870 0.950 . S
C4882 C4881 1.398 . S
C4882 C4883 1.391 . S
C4883 H4871 0.950 . S
C4883 C4879 1.393 . S
C4883 C4882 1.391 . S
H4884 C4892 0.950 . S
H4885 C4897 0.950 . S
H4886 C4894 0.950 . S
H4887 C4896 0.950 . S
H4888 C4898 0.950 . S
H4889 C4900 0.950 . S
H4890 C4902 0.950 . S
H4891 C4903 0.950 . S
C4892 H4884 0.950 . S
C4892 C4893 1.386 . S
C4892 C4894 1.391 . S
C4893 C4892 1.386 . S
C4893 C4897 1.393 . S
C4894 H4886 0.950 . S
C4894 C4892 1.391 . S
C4894 C4895 1.400 . S
C4895 C4894 1.400 . S
C4895 C4896 1.398 . S
C4895 C4901 1.491 . S
C4896 H4887 0.950 . S
C4896 C4895 1.398 . S
C4896 C4897 1.391 . S
C4897 H4885 0.950 . S
C4897 C4893 1.393 . S
C4897 C4896 1.391 . S
C4898 H4888 0.950 . S
C4898 C4899 1.386 . S
C4898 C4900 1.391 . S
C4899 C4898 1.386 . S
C4899 C4903 1.393 . S
C4900 H4889 0.950 . S
C4900 C4898 1.391 . S
C4900 C4901 1.400 . S
C4901 C4895 1.491 . S
C4901 C4900 1.400 . S
C4901 C4902 1.398 . S
C4902 H4890 0.950 . S
C4902 C4901 1.398 . S
C4902 C4903 1.391 . S
C4903 H4891 0.950 . S
C4903 C4899 1.393 . S
C4903 C4902 1.391 . S
H4904 C4912 0.950 . S
H4905 C4917 0.950 . S
H4906 C4914 0.950 . S
H4907 C4916 0.950 . S
H4908 C4918 0.950 . S
H4909 C4920 0.950 . S
H4910 C4922 0.950 . S
H4911 C4923 0.950 . S
C4912 H4904 0.950 . S
C4912 C4913 1.386 . S
C4912 C4914 1.391 . S
C4913 C4912 1.386 . S
C4913 C4917 1.393 . S
C4914 H4906 0.950 . S
C4914 C4912 1.391 . S
C4914 C4915 1.400 . S
C4915 C4914 1.400 . S
C4915 C4916 1.398 . S
C4915 C4921 1.491 . S
C4916 H4907 0.950 . S
C4916 C4915 1.398 . S
C4916 C4917 1.391 . S
C4917 H4905 0.950 . S
C4917 C4913 1.393 . S
C4917 C4916 1.391 . S
C4918 H4908 0.950 . S
C4918 C4919 1.386 . S
C4918 C4920 1.391 . S
C4919 C4918 1.386 . S
C4919 C4923 1.393 . S
C4920 H4909 0.950 . S
C4920 C4918 1.391 . S
C4920 C4921 1.400 . S
C4921 C4915 1.491 . S
C4921 C4920 1.400 . S
C4921 C4922 1.398 . S
C4922 H4910 0.950 . S
C4922 C4921 1.398 . S
C4922 C4923 1.391 . S
C4923 H4911 0.950 . S
C4923 C4919 1.393 . S
C4923 C4922 1.391 . S
H4924 C4932 0.950 . S
H4925 C4937 0.950 . S
H4926 C4934 0.950 . S
H4927 C4936 0.950 . S
H4928 C4938 0.950 . S
H4929 C4940 0.950 . S
H4930 C4942 0.950 . S
H4931 C4943 0.950 . S
C4932 H4924 0.950 . S
C4932 C4933 1.386 . S
C4932 C4934 1.391 . S
C4933 C4932 1.386 . S
C4933 C4937 1.393 . S
C4934 H4926 0.950 . S
C4934 C4932 1.391 . S
C4934 C4935 1.400 . S
C4935 C4934 1.400 . S
C4935 C4936 1.398 . S
C4935 C4941 1.491 . S
C4936 H4927 0.950 . S
C4936 C4935 1.398 . S
C4936 C4937 1.391 . S
C4937 H4925 0.950 . S
C4937 C4933 1.393 . S
C4937 C4936 1.391 . S
C4938 H4928 0.950 . S
C4938 C4939 1.386 . S
C4938 C4940 1.391 . S
C4939 C4938 1.386 . S
C4939 C4943 1.393 . S
C4940 H4929 0.950 . S
C4940 C4938 1.391 . S
C4940 C4941 1.400 . S
C4941 C4935 1.491 . S
C4941 C4940 1.400 . S
C4941 C4942 1.398 . S
C4942 H4930 0.950 . S
C4942 C4941 1.398 . S
C4942 C4943 1.391 . S
C4943 H4931 0.950 . S
C4943 C4939 1.393 . S
C4943 C4942 1.391 . S
H4944 C4952 0.950 . S
H4945 C4957 0.950 . S
H4946 C4954 0.950 . S
H4947 C4956 0.950 . S
H4948 C4958 0.950 . S
H4949 C4960 0.950 . S
H4950 C4962 0.950 . S
H4951 C4963 0.950 . S
C4952 H4944 0.950 . S
C4952 C4953 1.386 . S
C4952 C4954 1.391 . S
C4953 C4952 1.386 . S
C4953 C4957 1.393 . S
C4954 H4946 0.950 . S
C4954 C4952 1.391 . S
C4954 C4955 1.400 . S
C4955 C4954 1.400 . S
C4955 C4956 1.398 . S
C4955 C4961 1.491 . S
C4956 H4947 0.950 . S
C4956 C4955 1.398 . S
C4956 C4957 1.391 . S
C4957 H4945 0.950 . S
C4957 C4953 1.393 . S
C4957 C4956 1.391 . S
C4958 H4948 0.950 . S
C4958 C4959 1.386 . S
C4958 C4960 1.391 . S
C4959 C4958 1.386 . S
C4959 C4963 1.393 . S
C4960 H4949 0.950 . S
C4960 C4958 1.391 . S
C4960 C4961 1.400 . S
C4961 C4955 1.491 . S
C4961 C4960 1.400 . S
C4961 C4962 1.398 . S
C4962 H4950 0.950 . S
C4962 C4961 1.398 . S
C4962 C4963 1.391 . S
C4963 H4951 0.950 . S
C4963 C4959 1.393 . S
C4963 C4962 1.391 . S
H4964 C4972 0.950 . S
H4965 C4977 0.950 . S
H4966 C4974 0.950 . S
H4967 C4976 0.950 . S
H4968 C4978 0.950 . S
H4969 C4980 0.950 . S
H4970 C4982 0.950 . S
H4971 C4983 0.950 . S
C4972 H4964 0.950 . S
C4972 C4973 1.386 . S
C4972 C4974 1.391 . S
C4973 C4972 1.386 . S
C4973 C4977 1.393 . S
C4974 H4966 0.950 . S
C4974 C4972 1.391 . S
C4974 C4975 1.400 . S
C4975 C4974 1.400 . S
C4975 C4976 1.398 . S
C4975 C4981 1.491 . S
C4976 H4967 0.950 . S
C4976 C4975 1.398 . S
C4976 C4977 1.391 . S
C4977 H4965 0.950 . S
C4977 C4973 1.393 . S
C4977 C4976 1.391 . S
C4978 H4968 0.950 . S
C4978 C4979 1.386 . S
C4978 C4980 1.391 . S
C4979 C4978 1.386 . S
C4979 C4983 1.393 . S
C4980 H4969 0.950 . S
C4980 C4978 1.391 . S
C4980 C4981 1.400 . S
C4981 C4975 1.491 . S
C4981 C4980 1.400 . S
C4981 C4982 1.398 . S
C4982 H4970 0.950 . S
C4982 C4981 1.398 . S
C4982 C4983 1.391 . S
C4983 H4971 0.950 . S
C4983 C4979 1.393 . S
C4983 C4982 1.391 . S
H4984 C4992 0.950 . S
H4985 C4997 0.950 . S
H4986 C4994 0.950 . S
H4987 C4996 0.950 . S
H4988 C4998 0.950 . S
H4989 C5000 0.950 . S
H4990 C5002 0.950 . S
H4991 C5003 0.950 . S
C4992 H4984 0.950 . S
C4992 C4993 1.386 . S
C4992 C4994 1.391 . S
C4993 C4992 1.386 . S
C4993 C4997 1.393 . S
C4994 H4986 0.950 . S
C4994 C4992 1.391 . S
C4994 C4995 1.400 . S
C4995 C4994 1.400 . S
C4995 C4996 1.398 . S
C4995 C5001 1.491 . S
C4996 H4987 0.950 . S
C4996 C4995 1.398 . S
C4996 C4997 1.391 . S
C4997 H4985 0.950 . S
C4997 C4993 1.393 . S
C4997 C4996 1.391 . S
C4998 H4988 0.950 . S
C4998 C4999 1.386 . S
C4998 C5000 1.391 . S
C4999 C4998 1.386 . S
C4999 C5003 1.393 . S
C5000 H4989 0.950 . S
C5000 C4998 1.391 . S
C5000 C5001 1.400 . S
C5001 C4995 1.491 . S
C5001 C5000 1.400 . S
C5001 C5002 1.398 . S
C5002 H4990 0.950 . S
C5002 C5001 1.398 . S
C5002 C5003 1.391 . S
C5003 H4991 0.950 . S
C5003 C4999 1.393 . S
C5003 C5002 1.391 . S
H5004 C5012 0.950 . S
H5005 C5017 0.950 . S
H5006 C5014 0.950 . S
H5007 C5016 0.950 . S
H5008 C5018 0.950 . S
H5009 C5020 0.950 . S
H5010 C5022 0.950 . S
H5011 C5023 0.950 . S
C5012 H5004 0.950 . S
C5012 C5013 1.386 . S
C5012 C5014 1.391 . S
C5013 C5012 1.386 . S
C5013 C5017 1.393 . S
C5014 H5006 0.950 . S
C5014 C5012 1.391 . S
C5014 C5015 1.400 . S
C5015 C5014 1.400 . S
C5015 C5016 1.398 . S
C5015 C5021 1.491 . S
C5016 H5007 0.950 . S
C5016 C5015 1.398 . S
C5016 C5017 1.391 . S
C5017 H5005 0.950 . S
C5017 C5013 1.393 . S
C5017 C5016 1.391 . S
C5018 H5008 0.950 . S
C5018 C5019 1.386 . S
C5018 C5020 1.391 . S
C5019 C5018 1.386 . S
C5019 C5023 1.393 . S
C5020 H5009 0.950 . S
C5020 C5018 1.391 . S
C5020 C5021 1.400 . S
C5021 C5015 1.491 . S
C5021 C5020 1.400 . S
C5021 C5022 1.398 . S
C5022 H5010 0.950 . S
C5022 C5021 1.398 . S
C5022 C5023 1.391 . S
C5023 H5011 0.950 . S
C5023 C5019 1.393 . S
C5023 C5022 1.391 . S
H5024 C5032 0.950 . S
H5025 C5037 0.950 . S
H5026 C5034 0.950 . S
H5027 C5036 0.950 . S
H5028 C5038 0.950 . S
H5029 C5040 0.950 . S
H5030 C5042 0.950 . S
H5031 C5043 0.950 . S
C5032 H5024 0.950 . S
C5032 C5033 1.386 . S
C5032 C5034 1.391 . S
C5033 C5032 1.386 . S
C5033 C5037 1.393 . S
C5034 H5026 0.950 . S
C5034 C5032 1.391 . S
C5034 C5035 1.400 . S
C5035 C5034 1.400 . S
C5035 C5036 1.398 . S
C5035 C5041 1.491 . S
C5036 H5027 0.950 . S
C5036 C5035 1.398 . S
C5036 C5037 1.391 . S
C5037 H5025 0.950 . S
C5037 C5033 1.393 . S
C5037 C5036 1.391 . S
C5038 H5028 0.950 . S
C5038 C5039 1.386 . S
C5038 C5040 1.391 . S
C5039 C5038 1.386 . S
C5039 C5043 1.393 . S
C5040 H5029 0.950 . S
C5040 C5038 1.391 . S
C5040 C5041 1.400 . S
C5041 C5035 1.491 . S
C5041 C5040 1.400 . S
C5041 C5042 1.398 . S
C5042 H5030 0.950 . S
C5042 C5041 1.398 . S
C5042 C5043 1.391 . S
C5043 H5031 0.950 . S
C5043 C5039 1.393 . S
C5043 C5042 1.391 . S
H5044 C5052 0.950 . S
H5045 C5057 0.950 . S
H5046 C5054 0.950 . S
H5047 C5056 0.950 . S
H5048 C5058 0.950 . S
H5049 C5060 0.950 . S
H5050 C5062 0.950 . S
H5051 C5063 0.950 . S
C5052 H5044 0.950 . S
C5052 C5053 1.386 . S
C5052 C5054 1.391 . S
C5053 C5052 1.386 . S
C5053 C5057 1.393 . S
C5054 H5046 0.950 . S
C5054 C5052 1.391 . S
C5054 C5055 1.400 . S
C5055 C5054 1.400 . S
C5055 C5056 1.398 . S
C5055 C5061 1.491 . S
C5056 H5047 0.950 . S
C5056 C5055 1.398 . S
C5056 C5057 1.391 . S
C5057 H5045 0.950 . S
C5057 C5053 1.393 . S
C5057 C5056 1.391 . S
C5058 H5048 0.950 . S
C5058 C5059 1.386 . S
C5058 C5060 1.391 . S
C5059 C5058 1.386 . S
C5059 C5063 1.393 . S
C5060 H5049 0.950 . S
C5060 C5058 1.391 . S
C5060 C5061 1.400 . S
C5061 C5055 1.491 . S
C5061 C5060 1.400 . S
C5061 C5062 1.398 . S
C5062 H5050 0.950 . S
C5062 C5061 1.398 . S
C5062 C5063 1.391 . S
C5063 H5051 0.950 . S
C5063 C5059 1.393 . S
C5063 C5062 1.391 . S
H5064 C5072 0.950 . S
H5065 C5077 0.950 . S
H5066 C5074 0.950 . S
H5067 C5076 0.950 . S
H5068 C5078 0.950 . S
H5069 C5080 0.950 . S
H5070 C5082 0.950 . S
H5071 C5083 0.950 . S
C5072 H5064 0.950 . S
C5072 C5073 1.386 . S
C5072 C5074 1.391 . S
C5073 C5072 1.386 . S
C5073 C5077 1.393 . S
C5074 H5066 0.950 . S
C5074 C5072 1.391 . S
C5074 C5075 1.400 . S
C5075 C5074 1.400 . S
C5075 C5076 1.398 . S
C5075 C5081 1.491 . S
C5076 H5067 0.950 . S
C5076 C5075 1.398 . S
C5076 C5077 1.391 . S
C5077 H5065 0.950 . S
C5077 C5073 1.393 . S
C5077 C5076 1.391 . S
C5078 H5068 0.950 . S
C5078 C5079 1.386 . S
C5078 C5080 1.391 . S
C5079 C5078 1.386 . S
C5079 C5083 1.393 . S
C5080 H5069 0.950 . S
C5080 C5078 1.391 . S
C5080 C5081 1.400 . S
C5081 C5075 1.491 . S
C5081 C5080 1.400 . S
C5081 C5082 1.398 . S
C5082 H5070 0.950 . S
C5082 C5081 1.398 . S
C5082 C5083 1.391 . S
C5083 H5071 0.950 . S
C5083 C5079 1.393 . S
C5083 C5082 1.391 . S
H5084 C5092 0.950 . S
H5085 C5097 0.950 . S
H5086 C5094 0.950 . S
H5087 C5096 0.950 . S
H5088 C5098 0.950 . S
H5089 C5100 0.950 . S
H5090 C5102 0.950 . S
H5091 C5103 0.950 . S
C5092 H5084 0.950 . S
C5092 C5093 1.386 . S
C5092 C5094 1.391 . S
C5093 C5092 1.386 . S
C5093 C5097 1.393 . S
C5094 H5086 0.950 . S
C5094 C5092 1.391 . S
C5094 C5095 1.400 . S
C5095 C5094 1.400 . S
C5095 C5096 1.398 . S
C5095 C5101 1.491 . S
C5096 H5087 0.950 . S
C5096 C5095 1.398 . S
C5096 C5097 1.391 . S
C5097 H5085 0.950 . S
C5097 C5093 1.393 . S
C5097 C5096 1.391 . S
C5098 H5088 0.950 . S
C5098 C5099 1.386 . S
C5098 C5100 1.391 . S
C5099 C5098 1.386 . S
C5099 C5103 1.393 . S
C5100 H5089 0.950 . S
C5100 C5098 1.391 . S
C5100 C5101 1.400 . S
C5101 C5095 1.491 . S
C5101 C5100 1.400 . S
C5101 C5102 1.398 . S
C5102 H5090 0.950 . S
C5102 C5101 1.398 . S
C5102 C5103 1.391 . S
C5103 H5091 0.950 . S
C5103 C5099 1.393 . S
C5103 C5102 1.391 . S
H5104 C5112 0.950 . S
H5105 C5117 0.950 . S
H5106 C5114 0.950 . S
H5107 C5116 0.950 . S
H5108 C5118 0.950 . S
H5109 C5120 0.950 . S
H5110 C5122 0.950 . S
H5111 C5123 0.950 . S
C5112 H5104 0.950 . S
C5112 C5113 1.386 . S
C5112 C5114 1.391 . S
C5113 C5112 1.386 . S
C5113 C5117 1.393 . S
C5114 H5106 0.950 . S
C5114 C5112 1.391 . S
C5114 C5115 1.400 . S
C5115 C5114 1.400 . S
C5115 C5116 1.398 . S
C5115 C5121 1.491 . S
C5116 H5107 0.950 . S
C5116 C5115 1.398 . S
C5116 C5117 1.391 . S
C5117 H5105 0.950 . S
C5117 C5113 1.393 . S
C5117 C5116 1.391 . S
C5118 H5108 0.950 . S
C5118 C5119 1.386 . S
C5118 C5120 1.391 . S
C5119 C5118 1.386 . S
C5119 C5123 1.393 . S
C5120 H5109 0.950 . S
C5120 C5118 1.391 . S
C5120 C5121 1.400 . S
C5121 C5115 1.491 . S
C5121 C5120 1.400 . S
C5121 C5122 1.398 . S
C5122 H5110 0.950 . S
C5122 C5121 1.398 . S
C5122 C5123 1.391 . S
C5123 H5111 0.950 . S
C5123 C5119 1.393 . S
C5123 C5122 1.391 . S
H5124 C5132 0.950 . S
H5125 C5137 0.950 . S
H5126 C5134 0.950 . S
H5127 C5136 0.950 . S
H5128 C5138 0.950 . S
H5129 C5140 0.950 . S
H5130 C5142 0.950 . S
H5131 C5143 0.950 . S
C5132 H5124 0.950 . S
C5132 C5133 1.386 . S
C5132 C5134 1.391 . S
C5133 C5132 1.386 . S
C5133 C5137 1.393 . S
C5134 H5126 0.950 . S
C5134 C5132 1.391 . S
C5134 C5135 1.400 . S
C5135 C5134 1.400 . S
C5135 C5136 1.398 . S
C5135 C5141 1.491 . S
C5136 H5127 0.950 . S
C5136 C5135 1.398 . S
C5136 C5137 1.391 . S
C5137 H5125 0.950 . S
C5137 C5133 1.393 . S
C5137 C5136 1.391 . S
C5138 H5128 0.950 . S
C5138 C5139 1.386 . S
C5138 C5140 1.391 . S
C5139 C5138 1.386 . S
C5139 C5143 1.393 . S
C5140 H5129 0.950 . S
C5140 C5138 1.391 . S
C5140 C5141 1.400 . S
C5141 C5135 1.491 . S
C5141 C5140 1.400 . S
C5141 C5142 1.398 . S
C5142 H5130 0.950 . S
C5142 C5141 1.398 . S
C5142 C5143 1.391 . S
C5143 H5131 0.950 . S
C5143 C5139 1.393 . S
C5143 C5142 1.391 . S
H5144 C5152 0.950 . S
H5145 C5157 0.950 . S
H5146 C5154 0.950 . S
H5147 C5156 0.950 . S
H5148 C5158 0.950 . S
H5149 C5160 0.950 . S
H5150 C5162 0.950 . S
H5151 C5163 0.950 . S
C5152 H5144 0.950 . S
C5152 C5153 1.386 . S
C5152 C5154 1.391 . S
C5153 C5152 1.386 . S
C5153 C5157 1.393 . S
C5154 H5146 0.950 . S
C5154 C5152 1.391 . S
C5154 C5155 1.400 . S
C5155 C5154 1.400 . S
C5155 C5156 1.398 . S
C5155 C5161 1.491 . S
C5156 H5147 0.950 . S
C5156 C5155 1.398 . S
C5156 C5157 1.391 . S
C5157 H5145 0.950 . S
C5157 C5153 1.393 . S
C5157 C5156 1.391 . S
C5158 H5148 0.950 . S
C5158 C5159 1.386 . S
C5158 C5160 1.391 . S
C5159 C5158 1.386 . S
C5159 C5163 1.393 . S
C5160 H5149 0.950 . S
C5160 C5158 1.391 . S
C5160 C5161 1.400 . S
C5161 C5155 1.491 . S
C5161 C5160 1.400 . S
C5161 C5162 1.398 . S
C5162 H5150 0.950 . S
C5162 C5161 1.398 . S
C5162 C5163 1.391 . S
C5163 H5151 0.950 . S
C5163 C5159 1.393 . S
C5163 C5162 1.391 . S
H5164 C5172 0.950 . S
H5165 C5177 0.950 . S
H5166 C5174 0.950 . S
H5167 C5176 0.950 . S
H5168 C5178 0.950 . S
H5169 C5180 0.950 . S
H5170 C5182 0.950 . S
H5171 C5183 0.950 . S
C5172 H5164 0.950 . S
C5172 C5173 1.386 . S
C5172 C5174 1.391 . S
C5173 C5172 1.386 . S
C5173 C5177 1.393 . S
C5174 H5166 0.950 . S
C5174 C5172 1.391 . S
C5174 C5175 1.400 . S
C5175 C5174 1.400 . S
C5175 C5176 1.398 . S
C5175 C5181 1.491 . S
C5176 H5167 0.950 . S
C5176 C5175 1.398 . S
C5176 C5177 1.391 . S
C5177 H5165 0.950 . S
C5177 C5173 1.393 . S
C5177 C5176 1.391 . S
C5178 H5168 0.950 . S
C5178 C5179 1.386 . S
C5178 C5180 1.391 . S
C5179 C5178 1.386 . S
C5179 C5183 1.393 . S
C5180 H5169 0.950 . S
C5180 C5178 1.391 . S
C5180 C5181 1.400 . S
C5181 C5175 1.491 . S
C5181 C5180 1.400 . S
C5181 C5182 1.398 . S
C5182 H5170 0.950 . S
C5182 C5181 1.398 . S
C5182 C5183 1.391 . S
C5183 H5171 0.950 . S
C5183 C5179 1.393 . S
C5183 C5182 1.391 . S
C1353 C5 1.658 . S
C1359 C957 1.655 . S
C1373 C915 1.652 . S
C1379 C19 1.651 . S
C1393 C929 1.652 . S
C1399 C33 1.655 . S
C1413 C47 1.651 . S
C1419 C943 1.653 . S
C1433 C999 1.652 . S
C1439 C61 1.655 . S
C1453 C971 1.651 . S
C1459 C75 1.653 . S
C1473 C985 1.653 . S
C1479 C89 1.657 . S
C1493 C103 1.654 . S
C1499 C901 1.658 . S
C1513 C117 1.657 . S
C1519 C887 1.653 . S
C1533 C131 1.654 . S
C1539 C845 1.658 . S
C1553 C145 1.655 . S
C1559 C859 1.651 . S
C1573 C159 1.659 . S
C1579 C873 1.657 . S
C1593 C173 1.658 . S
C1599 C803 1.659 . S
C1613 C817 1.654 . S
C1619 C187 1.651 . S
C1633 C831 1.652 . S
C1639 C201 1.651 . S
C1653 C215 1.652 . S
C1659 C789 1.651 . S
C1673 C229 1.655 . S
C1679 C775 1.652 . S
C1693 C243 1.658 . S
C1699 C691 1.654 . S
C1713 C705 1.652 . S
C1719 C257 1.656 . S
C1733 C719 1.651 . S
C1739 C271 1.652 . S
C1753 C677 1.659 . S
C1759 C285 1.657 . S
C1773 C299 1.654 . S
C1779 C747 1.658 . S
C1793 C313 1.652 . S
C1799 C761 1.651 . S
C1813 C327 1.654 . S
C1819 C733 1.658 . S
C1833 C341 1.651 . S
C1839 C1293 1.654 . S
C1853 C355 1.651 . S
C1859 C1251 1.654 . S
C1873 C369 1.659 . S
C1879 C1265 1.657 . S
C1893 C383 1.659 . S
C1899 C1279 1.656 . S
C1913 C397 1.659 . S
C1919 C1335 1.658 . S
C1933 C411 1.656 . S
C1939 C1307 1.653 . S
C1953 C1321 1.659 . S
C1959 C425 1.658 . S
C1973 C439 1.657 . S
C1979 C1237 1.659 . S
C1993 C453 1.652 . S
C1999 C1223 1.651 . S
C2013 C1181 1.655 . S
C2019 C467 1.658 . S
C2033 C481 1.658 . S
C2039 C1195 1.659 . S
C2053 C495 1.653 . S
C2059 C1209 1.657 . S
C2073 C509 1.651 . S
C2079 C1139 1.654 . S
C2093 C523 1.652 . S
C2099 C1153 1.656 . S
C2113 C537 1.651 . S
C2119 C1167 1.651 . S
C2133 C1125 1.652 . S
C2139 C551 1.651 . S
C2153 C565 1.655 . S
C2159 C1111 1.659 . S
C2173 C579 1.656 . S
C2179 C1027 1.652 . S
C2193 C593 1.655 . S
C2199 C1041 1.651 . S
C2213 C1055 1.659 . S
C2219 C607 1.656 . S
C2233 C621 1.651 . S
C2239 C1013 1.652 . S
C2253 C1083 1.657 . S
C2259 C635 1.653 . S
C2273 C649 1.654 . S
C2279 C1097 1.651 . S
C2293 C663 1.651 . S
C2299 C1069 1.652 . S
C2313 C9 1.519 . S
C2319 C555 1.511 . S
C2333 C23 1.519 . S
C2339 C513 1.511 . S
C2353 C527 1.516 . S
C2359 C37 1.514 . S
C2373 C51 1.518 . S
C2379 C541 1.512 . S
C2393 C471 1.516 . S
C2399 C65 1.514 . S
C2413 C485 1.515 . S
C2419 C79 1.514 . S
C2433 C499 1.511 . S
C2439 C93 1.518 . S
C2453 C457 1.518 . S
C2459 C107 1.511 . S
C2473 C443 1.518 . S
C2479 C121 1.512 . S
C2493 C135 1.518 . S
C2499 C401 1.511 . S
C2513 C415 1.513 . S
C2519 C149 1.516 . S
C2533 C163 1.518 . S
C2539 C429 1.511 . S
C2553 C359 1.519 . S
C2559 C177 1.511 . S
C2573 C373 1.518 . S
C2579 C191 1.511 . S
C2593 C205 1.518 . S
C2599 C387 1.511 . S
C2613 C219 1.511 . S
C2619 C345 1.518 . S
C2633 C233 1.517 . S
C2639 C625 1.512 . S
C2653 C247 1.517 . S
C2659 C667 1.513 . S
C2673 C639 1.515 . S
C2679 C261 1.514 . S
C2693 C653 1.512 . S
C2699 C275 1.517 . S
C2713 C289 1.512 . S
C2719 C569 1.517 . S
C2733 C303 1.519 . S
C2739 C597 1.511 . S
C2753 C611 1.518 . S
C2759 C317 1.511 . S
C2773 C331 1.518 . S
C2779 C583 1.511 . S
C2793 C1227 1.517 . S
C2799 C681 1.512 . S
C2813 C1185 1.513 . S
C2819 C695 1.517 . S
C2833 C1199 1.511 . S
C2839 C709 1.519 . S
C2853 C723 1.519 . S
C2859 C1213 1.511 . S
C2873 C1143 1.516 . S
C2879 C737 1.514 . S
C2893 C1157 1.514 . S
C2899 C751 1.516 . S
C2913 C765 1.513 . S
C2919 C1171 1.516 . S
C2933 C779 1.512 . S
C2939 C1129 1.518 . S
C2953 C1115 1.515 . S
C2959 C793 1.514 . S
C2973 C807 1.518 . S
C2979 C1073 1.511 . S
C2993 C1087 1.512 . S
C2999 C821 1.517 . S
C3013 C1101 1.516 . S
C3019 C835 1.513 . S
C3033 C849 1.511 . S
C3039 C1031 1.519 . S
C3053 C863 1.511 . S
C3059 C1045 1.519 . S
C3073 C1059 1.515 . S
C3079 C877 1.515 . S
C3093 C891 1.511 . S
C3099 C1017 1.518 . S
C3113 C1297 1.513 . S
C3119 C905 1.516 . S
C3133 C1339 1.515 . S
C3139 C919 1.515 . S
C3153 C933 1.515 . S
C3159 C1311 1.515 . S
C3173 C1325 1.512 . S
C3179 C947 1.517 . S
C3193 C1241 1.512 . S
C3199 C961 1.518 . S
C3213 C1269 1.518 . S
C3219 C975 1.511 . S
C3233 C989 1.514 . S
C3239 C1283 1.516 . S
C3253 C1255 1.516 . S
C3259 C1003 1.513 . S
C3273 C11 1.218 . S
C3279 C403 1.219 . S
C3293 C417 1.215 . S
C3299 C25 1.223 . S
C3313 C39 1.229 . S
C3319 C431 1.208 . S
C3333 C445 1.219 . S
C3339 C53 1.218 . S
C3353 C67 1.221 . S
C3359 C347 1.217 . S
C3373 C81 1.223 . S
C3379 C361 1.215 . S
C3393 C95 1.208 . S
C3399 C375 1.230 . S
C3413 C389 1.230 . S
C3419 C109 1.208 . S
C3433 C543 1.223 . S
C3439 C123 1.215 . S
C3453 C137 1.225 . S
C3459 C557 1.212 . S
C3473 C151 1.228 . S
C3479 C515 1.209 . S
C3493 C165 1.225 . S
C3499 C529 1.213 . S
C3513 C179 1.208 . S
C3519 C487 1.229 . S
C3533 C193 1.225 . S
C3539 C501 1.212 . S
C3553 C207 1.216 . S
C3559 C459 1.221 . S
C3573 C221 1.228 . S
C3579 C473 1.209 . S
C3593 C235 1.218 . S
C3599 C641 1.219 . S
C3613 C249 1.218 . S
C3619 C613 1.220 . S
C3633 C627 1.230 . S
C3639 C263 1.208 . S
C3653 C277 1.218 . S
C3659 C585 1.220 . S
C3673 C599 1.210 . S
C3679 C291 1.228 . S
C3693 C305 1.208 . S
C3699 C571 1.229 . S
C3713 C319 1.230 . S
C3719 C669 1.208 . S
C3733 C655 1.208 . S
C3739 C333 1.230 . S
C3753 C1075 1.228 . S
C3759 C683 1.209 . S
C3773 C697 1.225 . S
C3779 C1089 1.212 . S
C3793 C1103 1.214 . S
C3799 C711 1.224 . S
C3813 C725 1.228 . S
C3819 C1117 1.209 . S
C3833 C1019 1.213 . S
C3839 C739 1.225 . S
C3853 C1033 1.211 . S
C3859 C753 1.226 . S
C3873 C1047 1.221 . S
C3879 C767 1.216 . S
C3893 C781 1.209 . S
C3899 C1061 1.228 . S
C3913 C795 1.210 . S
C3919 C1215 1.228 . S
C3933 C1229 1.208 . S
C3939 C809 1.229 . S
C3953 C1187 1.229 . S
C3959 C823 1.208 . S
C3973 C1201 1.222 . S
C3979 C837 1.216 . S
C3993 C851 1.229 . S
C3999 C1159 1.208 . S
C4013 C865 1.228 . S
C4019 C1173 1.209 . S
C4033 C1131 1.218 . S
C4039 C879 1.220 . S
C4053 C1145 1.217 . S
C4059 C893 1.220 . S
C4073 C1313 1.216 . S
C4079 C907 1.222 . S
C4093 C921 1.217 . S
C4099 C1285 1.220 . S
C4113 C1299 1.219 . S
C4119 C935 1.219 . S
C4133 C949 1.221 . S
C4139 C1257 1.216 . S
C4153 C963 1.218 . S
C4159 C1271 1.220 . S
C4173 C977 1.212 . S
C4179 C1243 1.225 . S
C4193 C1341 1.229 . S
C4199 C991 1.208 . S
C4213 C1005 1.213 . S
C4219 C1327 1.225 . S
C4233 C434 1.232 . S
C4239 C0 1.257 . S
C4253 C392 1.238 . S
C4259 C14 1.252 . S
C4273 C28 1.238 . S
C4279 C406 1.252 . S
C4293 C420 1.233 . S
C4299 C42 1.257 . S
C4313 C350 1.238 . S
C4319 C56 1.251 . S
C4333 C70 1.256 . S
C4339 C364 1.233 . S
C4353 C84 1.250 . S
C4359 C378 1.240 . S
C4373 C336 1.255 . S
C4379 C98 1.234 . S
C4393 C616 1.258 . S
C4399 C112 1.232 . S
C4413 C126 1.232 . S
C4419 C574 1.258 . S
C4433 C140 1.232 . S
C4439 C588 1.257 . S
C4453 C602 1.234 . S
C4459 C154 1.255 . S
C4473 C168 1.249 . S
C4479 C658 1.240 . S
C4493 C630 1.252 . S
C4499 C182 1.237 . S
C4513 C644 1.257 . S
C4519 C196 1.233 . S
C4533 C210 1.235 . S
C4539 C560 1.254 . S
C4553 C224 1.245 . S
C4559 C546 1.245 . S
C4573 C238 1.252 . S
C4579 C462 1.238 . S
C4593 C252 1.249 . S
C4599 C476 1.240 . S
C4613 C490 1.233 . S
C4619 C266 1.256 . S
C4633 C448 1.252 . S
C4639 C280 1.237 . S
C4653 C294 1.255 . S
C4659 C518 1.234 . S
C4673 C308 1.235 . S
C4679 C532 1.255 . S
C4693 C322 1.233 . S
C4699 C504 1.256 . S
C4713 C672 1.232 . S
C4719 C1106 1.258 . S
C4733 C686 1.245 . S
C4739 C1064 1.245 . S
C4753 C700 1.256 . S
C4759 C1078 1.233 . S
C4773 C1092 1.238 . S
C4779 C714 1.252 . S
C4793 C1022 1.240 . S
C4799 C728 1.249 . S
C4813 C1036 1.239 . S
C4819 C742 1.250 . S
C4833 C756 1.252 . S
C4839 C1050 1.237 . S
C4853 C1008 1.251 . S
C4859 C770 1.239 . S
C4873 C1288 1.257 . S
C4879 C784 1.233 . S
C4893 C1246 1.237 . S
C4899 C798 1.252 . S
C4913 C1260 1.232 . S
C4919 C812 1.257 . S
C4933 C1274 1.243 . S
C4939 C826 1.246 . S
C4953 C1330 1.236 . S
C4959 C840 1.254 . S
C4973 C1302 1.241 . S
C4979 C854 1.249 . S
C4993 C1316 1.257 . S
C4999 C868 1.233 . S
C5013 C1232 1.245 . S
C5019 C882 1.244 . S
C5033 C896 1.234 . S
C5039 C1218 1.255 . S
C5053 C1134 1.234 . S
C5059 C910 1.255 . S
C5073 C1148 1.257 . S
C5079 C924 1.232 . S
C5093 C1162 1.254 . S
C5099 C938 1.236 . S
C5113 C1120 1.235 . S
C5119 C952 1.254 . S
C5133 C1190 1.238 . S
C5139 C966 1.252 . S
C5153 C1204 1.233 . S
C5159 C980 1.256 . S
C5173 C1176 1.245 . S
C5179 C994 1.244 . S
