# Generated by pormake.
# Topology wfa, (4)-cn, num edge types: 1
# Building blocks:
#     Node 0, Type 0, BuildingBlock: QUQFOY_clean_sbu_1, # of connection points: 4
#     Node 1, Type 0, BuildingBlock: QUQFOY_clean_sbu_1, # of connection points: 4
#     Node 2, Type 0, BuildingBlock: QUQFOY_clean_sbu_1, # of connection points: 4
#     Node 3, Type 0, BuildingBlock: QUQFOY_clean_sbu_1, # of connection points: 4
#     Node 4, Type 0, BuildingBlock: QUQFOY_clean_sbu_1, # of connection points: 4
#     Node 5, Type 0, BuildingBlock: QUQFOY_clean_sbu_1, # of connection points: 4
#     Node 6, Type 0, BuildingBlock: QUQFOY_clean_sbu_1, # of connection points: 4
#     Node 7, Type 0, BuildingBlock: QUQFOY_clean_sbu_1, # of connection points: 4
#     Node 8, Type 0, BuildingBlock: QUQFOY_clean_sbu_1, # of connection points: 4
#     Node 9, Type 0, BuildingBlock: QUQFOY_clean_sbu_1, # of connection points: 4
#     Node 10, Type 0, BuildingBlock: QUQFOY_clean_sbu_1, # of connection points: 4
#     Node 11, Type 0, BuildingBlock: QUQFOY_clean_sbu_1, # of connection points: 4
#     Node 12, Type 0, BuildingBlock: QUQFOY_clean_sbu_1, # of connection points: 4
#     Node 13, Type 0, BuildingBlock: QUQFOY_clean_sbu_1, # of connection points: 4
#     Node 14, Type 0, BuildingBlock: QUQFOY_clean_sbu_1, # of connection points: 4
#     Node 15, Type 0, BuildingBlock: QUQFOY_clean_sbu_1, # of connection points: 4
#     Edge 16, Type (0, 0), BuildingBlock: ZUJKAS_clean_linker_0, # of connection points: 2
#     Edge 17, Type (0, 0), BuildingBlock: ZUJKAS_clean_linker_0, # of connection points: 2
#     Edge 18, Type (0, 0), BuildingBlock: ZUJKAS_clean_linker_0, # of connection points: 2
#     Edge 19, Type (0, 0), BuildingBlock: ZUJKAS_clean_linker_0, # of connection points: 2
#     Edge 20, Type (0, 0), BuildingBlock: ZUJKAS_clean_linker_0, # of connection points: 2
#     Edge 21, Type (0, 0), BuildingBlock: ZUJKAS_clean_linker_0, # of connection points: 2
#     Edge 22, Type (0, 0), BuildingBlock: ZUJKAS_clean_linker_0, # of connection points: 2
#     Edge 23, Type (0, 0), BuildingBlock: ZUJKAS_clean_linker_0, # of connection points: 2
#     Edge 24, Type (0, 0), BuildingBlock: ZUJKAS_clean_linker_0, # of connection points: 2
#     Edge 25, Type (0, 0), BuildingBlock: ZUJKAS_clean_linker_0, # of connection points: 2
#     Edge 26, Type (0, 0), BuildingBlock: ZUJKAS_clean_linker_0, # of connection points: 2
#     Edge 27, Type (0, 0), BuildingBlock: ZUJKAS_clean_linker_0, # of connection points: 2
#     Edge 28, Type (0, 0), BuildingBlock: ZUJKAS_clean_linker_0, # of connection points: 2
#     Edge 29, Type (0, 0), BuildingBlock: ZUJKAS_clean_linker_0, # of connection points: 2
#     Edge 30, Type (0, 0), BuildingBlock: ZUJKAS_clean_linker_0, # of connection points: 2
#     Edge 31, Type (0, 0), BuildingBlock: ZUJKAS_clean_linker_0, # of connection points: 2
#     Edge 32, Type (0, 0), BuildingBlock: ZUJKAS_clean_linker_0, # of connection points: 2
#     Edge 33, Type (0, 0), BuildingBlock: ZUJKAS_clean_linker_0, # of connection points: 2
#     Edge 34, Type (0, 0), BuildingBlock: ZUJKAS_clean_linker_0, # of connection points: 2
#     Edge 35, Type (0, 0), BuildingBlock: ZUJKAS_clean_linker_0, # of connection points: 2
#     Edge 36, Type (0, 0), BuildingBlock: ZUJKAS_clean_linker_0, # of connection points: 2
#     Edge 37, Type (0, 0), BuildingBlock: ZUJKAS_clean_linker_0, # of connection points: 2
#     Edge 38, Type (0, 0), BuildingBlock: ZUJKAS_clean_linker_0, # of connection points: 2
#     Edge 39, Type (0, 0), BuildingBlock: ZUJKAS_clean_linker_0, # of connection points: 2
#     Edge 40, Type (0, 0), BuildingBlock: ZUJKAS_clean_linker_0, # of connection points: 2
#     Edge 41, Type (0, 0), BuildingBlock: ZUJKAS_clean_linker_0, # of connection points: 2
#     Edge 42, Type (0, 0), BuildingBlock: ZUJKAS_clean_linker_0, # of connection points: 2
#     Edge 43, Type (0, 0), BuildingBlock: ZUJKAS_clean_linker_0, # of connection points: 2
#     Edge 44, Type (0, 0), BuildingBlock: ZUJKAS_clean_linker_0, # of connection points: 2
#     Edge 45, Type (0, 0), BuildingBlock: ZUJKAS_clean_linker_0, # of connection points: 2
#     Edge 46, Type (0, 0), BuildingBlock: ZUJKAS_clean_linker_0, # of connection points: 2
#     Edge 47, Type (0, 0), BuildingBlock: ZUJKAS_clean_linker_0, # of connection points: 2
# Relax obj value: 0.088
# Max RMSD: 0.152
# Mean RMSD: 0.152
data_MOF--net-wfa--node1-QUQFOY_clean_sbu_1--edge1-ZUJKAS_clean_linker_0
_symmetry_space_group_name_H-M    P1
_symmetry_Int_Tables_number       1
_symmetry_cell_setting            triclinic
loop_
_symmetry_equiv_pos_as_xyz
'x, y, z'
_cell_length_a     65.726974
_cell_length_b     65.810865
_cell_length_c     30.978036
_cell_angle_alpha  90.063558
_cell_angle_beta   89.955142
_cell_angle_gamma 90.038239
loop_
_atom_site_label
_atom_site_type_symbol
_atom_site_fract_x
_atom_site_fract_y
_atom_site_fract_z
_atom_type_partial_charge
O0 O 0.69394 0.02605 0.08765 0.0
Cd1 Cd 0.67827 0.04171 0.04127 0.0
Cd2 Cd 0.64628 0.02531 0.08517 0.0
O3 O 0.66872 0.0091 0.11804 0.0
O4 O 0.69975 0.0489 0.99838 0.0
O5 O 0.6746 0.02768 0.98373 0.0
C6 C 0.69133 0.03636 0.97189 0.0
C7 C 0.61605 0.01232 0.05612 0.0
C8 C 0.68762 0.01326 0.11525 0.0
C9 C 0.65267 0.07066 0.09114 0.0
O10 O 0.6435 0.05494 0.1049 0.0
O11 O 0.66645 0.06919 0.06244 0.0
O12 O 0.61915 0.01255 0.09723 0.0
O13 O 0.63074 0.01806 0.03117 0.0
O14 O 0.48416 0.69421 0.08648 0.0
Cd15 Cd 0.47087 0.67903 0.03611 0.0
Cd16 Cd 0.48579 0.64684 0.08438 0.0
O17 O 0.50052 0.66953 0.11988 0.0
O18 O 0.46475 0.70131 0.99453 0.0
O19 O 0.48663 0.67676 0.9801 0.0
C20 C 0.47797 0.69352 0.96869 0.0
C21 C 0.49971 0.61523 0.0646 0.0
C22 C 0.49585 0.68827 0.11657 0.0
C23 C 0.44003 0.65374 0.07956 0.0
O24 O 0.45512 0.64486 0.09673 0.0
O25 O 0.44255 0.66739 0.05111 0.0
O26 O 0.49601 0.61974 0.10435 0.0
O27 O 0.497 0.62932 0.03613 0.0
O28 O 0.81984 0.48293 0.08402 0.0
Cd29 Cd 0.83316 0.46618 0.03615 0.0
Cd30 Cd 0.86762 0.48192 0.07933 0.0
O31 O 0.84599 0.49858 0.11398 0.0
O32 O 0.80929 0.45952 0.99904 0.0
O33 O 0.83497 0.47824 0.97615 0.0
C34 C 0.81723 0.47048 0.96905 0.0
C35 C 0.89976 0.49452 0.05888 0.0
C36 C 0.82691 0.49521 0.11188 0.0
C37 C 0.8585 0.43627 0.08278 0.0
O38 O 0.86886 0.45155 0.09491 0.0
O39 O 0.84371 0.43828 0.05676 0.0
O40 O 0.89502 0.49168 0.09878 0.0
O41 O 0.88569 0.49159 0.03041 0.0
O42 O 0.02149 0.82095 0.09564 0.0
Cd43 Cd 0.03931 0.83313 0.04795 0.0
Cd44 Cd 0.02639 0.86867 0.09126 0.0
O45 O 0.00939 0.84833 0.12802 0.0
O46 O 0.04481 0.80872 0.01159 0.0
O47 O 0.02775 0.83524 0.98751 0.0
C48 C 0.03458 0.8171 0.98101 0.0
C49 C 0.0145 0.90081 0.0697 0.0
C50 C 0.01061 0.82907 0.12482 0.0
C51 C 0.07133 0.85715 0.09319 0.0
O52 O 0.05694 0.86876 0.1051 0.0
O53 O 0.06794 0.84217 0.06824 0.0
O54 O 0.01792 0.8966 0.10964 0.0
O55 O 0.01656 0.88629 0.04191 0.0
O56 O 0.18824 0.99306 0.41136 0.0
Cd57 Cd 0.17955 0.97442 0.46108 0.0
Cd58 Cd 0.14047 0.98438 0.42096 0.0
O59 O 0.15912 1.00148 0.38036 0.0
O60 O 0.20641 0.97021 0.48987 0.0
O61 O 0.18057 0.98479 0.5229 0.0
C62 C 0.19938 0.97917 0.52363 0.0
C63 C 0.10736 0.99475 0.44093 0.0
C64 C 0.17848 1.00226 0.38191 0.0
C65 C 0.15571 0.94039 0.42084 0.0
O66 O 0.14241 0.9536 0.41091 0.0
O67 O 0.17152 0.94529 0.44209 0.0
O68 O 0.11191 0.99023 0.40165 0.0
O69 O 0.12194 0.99456 0.46887 0.0
O70 O 0.51802 0.19079 0.41374 0.0
Cd71 Cd 0.53661 0.18186 0.46331 0.0
Cd72 Cd 0.5265 0.14306 0.42362 0.0
O73 O 0.50977 0.16169 0.38243 0.0
O74 O 0.54048 0.20837 0.4938 0.0
O75 O 0.52604 0.18195 0.52492 0.0
C76 C 0.53144 0.20079 0.52692 0.0
C77 C 0.51561 0.11015 0.44354 0.0
C78 C 0.50898 0.18103 0.38401 0.0
C79 C 0.5706 0.15801 0.42312 0.0
O80 O 0.55735 0.14464 0.4138 0.0
O81 O 0.56576 0.17398 0.4439 0.0
O82 O 0.52036 0.11457 0.40433 0.0
O83 O 0.5159 0.12475 0.47143 0.0
O84 O 0.31934 0.51816 0.42185 0.0
Cd85 Cd 0.33237 0.53473 0.47041 0.0
Cd86 Cd 0.36751 0.52194 0.42644 0.0
O87 O 0.34655 0.50603 0.38865 0.0
O88 O 0.30913 0.54023 0.51014 0.0
O89 O 0.33545 0.5213 0.52877 0.0
C90 C 0.31785 0.5288 0.53826 0.0
C91 C 0.39988 0.50967 0.44587 0.0
C92 C 0.32727 0.50766 0.3918 0.0
C93 C 0.35653 0.5669 0.42673 0.0
O94 O 0.36805 0.55256 0.41432 0.0
O95 O 0.34143 0.56345 0.45127 0.0
O96 O 0.39524 0.51351 0.40632 0.0
O97 O 0.38561 0.51135 0.47437 0.0
O98 O 0.99802 0.32256 0.41324 0.0
Cd99 Cd 0.97923 0.32962 0.46375 0.0
Cd100 Cd 0.98521 0.36933 0.42715 0.0
O101 O 1.00227 0.35263 0.38282 0.0
O102 O 0.97809 0.30293 0.49411 0.0
O103 O 0.99006 0.33067 0.52498 0.0
C104 C 0.98643 0.31141 0.52708 0.0
C105 C 0.99461 0.4027 0.44691 0.0
C106 C 1.00517 0.33348 0.38308 0.0
C107 C 0.94263 0.35082 0.42827 0.0
O108 O 0.95428 0.3658 0.42057 0.0
O109 O 0.94941 0.33467 0.44549 0.0
O110 O 0.98889 0.39825 0.40833 0.0
O111 O 0.996 0.38796 0.47423 0.0
O112 O 0.32268 0.99486 0.91046 0.0
Cd113 Cd 0.33002 0.97672 0.96193 0.0
Cd114 Cd 0.3701 0.98386 0.92311 0.0
O115 O 0.35244 0.99971 0.87853 0.0
O116 O 0.3031 0.97475 0.99177 0.0
O117 O 0.33018 0.98784 0.02312 0.0
C118 C 0.31106 0.98343 0.02493 0.0
C119 C 0.40406 0.99335 0.9383 0.0
C120 C 0.33317 1.00199 0.87951 0.0
C121 C 0.35247 0.94067 0.92705 0.0
O122 O 0.36694 0.95287 0.91881 0.0
O123 O 0.33618 0.94693 0.9448 0.0
O124 O 0.39881 0.98606 0.90143 0.0
O125 O 0.38983 0.99652 0.96625 0.0
O126 O 0.51738 0.32344 0.9136 0.0
Cd127 Cd 0.53665 0.33142 0.96269 0.0
Cd128 Cd 0.52853 0.37086 0.92473 0.0
O129 O 0.51177 0.353 0.88179 0.0
O130 O 0.53939 0.30474 0.99286 0.0
O131 O 0.52666 0.33185 0.02472 0.0
C132 C 0.5311 0.31276 0.02641 0.0
C133 C 0.51829 0.40407 0.94441 0.0
C134 C 0.50955 0.33376 0.88327 0.0
C135 C 0.5718 0.35397 0.92356 0.0
O136 O 0.55944 0.36841 0.91634 0.0
O137 O 0.56597 0.33772 0.942 0.0
O138 O 0.52357 0.39958 0.90553 0.0
O139 O 0.51774 0.38941 0.97208 0.0
O140 O 0.19164 0.52378 0.92302 0.0
Cd141 Cd 0.17762 0.53966 0.97143 0.0
Cd142 Cd 0.14423 0.52328 0.92655 0.0
O143 O 0.16634 0.5069 0.89288 0.0
O144 O 0.20122 0.5467 0.00903 0.0
O145 O 0.17611 0.52696 0.03089 0.0
C146 C 0.1936 0.53518 0.03846 0.0
C147 C 0.11221 0.51048 0.94702 0.0
C148 C 0.18523 0.51115 0.89516 0.0
C149 C 0.15216 0.56911 0.92404 0.0
O150 O 0.14273 0.55353 0.91032 0.0
O151 O 0.1662 0.56743 0.95201 0.0
O152 O 0.11701 0.51306 0.90707 0.0
O153 O 0.12619 0.51372 0.97554 0.0
O154 O 0.99909 0.19148 0.91274 0.0
Cd155 Cd 0.97962 0.18278 0.961 0.0
Cd156 Cd 0.99045 0.14405 0.92296 0.0
O157 O 0.00818 0.16229 0.88303 0.0
O158 O 0.97518 0.20951 0.98996 0.0
O159 O 0.98923 0.18349 0.02324 0.0
C160 C 0.98376 0.20232 0.02397 0.0
C161 C 1.00078 0.11131 0.94458 0.0
C162 C 0.00888 0.18162 0.88427 0.0
C163 C 0.94635 0.15887 0.91881 0.0
O164 O 0.95984 0.14563 0.91037 0.0
O165 O 0.95076 0.17482 0.94005 0.0
O166 O 0.99679 0.1155 0.90491 0.0
O167 O 1.00004 0.12606 0.97207 0.0
O168 O 0.81724 0.02738 0.5883 0.0
Cd169 Cd 0.83271 0.04255 0.5408 0.0
Cd170 Cd 0.8646 0.02483 0.58542 0.0
O171 O 0.84165 0.00921 0.61826 0.0
O172 O 0.81059 0.04992 0.49968 0.0
O173 O 0.83567 0.02914 0.48234 0.0
C174 C 0.81877 0.03785 0.47189 0.0
C175 C 0.89595 0.01111 0.56315 0.0
C176 C 0.82297 0.01432 0.61589 0.0
C177 C 0.85899 0.07085 0.5893 0.0
O178 O 0.86753 0.0548 0.60307 0.0
O179 O 0.84512 0.06987 0.56077 0.0
O180 O 0.89147 0.01325 0.60342 0.0
O181 O 0.88191 0.01522 0.53528 0.0
O182 O 0.48293 0.82034 0.59009 0.0
Cd183 Cd 0.46747 0.83566 0.54293 0.0
Cd184 Cd 0.48455 0.86783 0.58751 0.0
O185 O 0.50092 0.84514 0.61926 0.0
O186 O 0.46007 0.81385 0.50092 0.0
O187 O 0.4815 0.83866 0.48517 0.0
C188 C 0.4726 0.82196 0.47398 0.0
C189 C 0.49785 0.89928 0.56497 0.0
C190 C 0.49617 0.82637 0.61708 0.0
C191 C 0.43872 0.8612 0.59242 0.0
O192 O 0.4546 0.8701 0.60623 0.0
O193 O 0.43998 0.84757 0.56343 0.0
O194 O 0.49593 0.89483 0.60528 0.0
O195 O 0.49365 0.88522 0.53717 0.0
O196 O 0.69281 0.48597 0.58323 0.0
Cd197 Cd 0.68026 0.46974 0.53354 0.0
Cd198 Cd 0.64463 0.48184 0.57802 0.0
O199 O 0.6654 0.49764 0.61645 0.0
O200 O 0.70398 0.46476 0.49468 0.0
O201 O 0.67778 0.48375 0.47561 0.0
C202 C 0.69554 0.47647 0.4667 0.0
C203 C 0.61223 0.49421 0.55902 0.0
C204 C 0.6847 0.49621 0.61346 0.0
C205 C 0.65593 0.43693 0.57507 0.0
O206 O 0.64434 0.45103 0.58841 0.0
O207 O 0.67108 0.44077 0.5509 0.0
O208 O 0.61682 0.48989 0.59837 0.0
O209 O 0.62654 0.49288 0.53053 0.0
O210 O 0.01932 0.69359 0.59527 0.0
Cd211 Cd 0.0366 0.68095 0.54721 0.0
Cd212 Cd 0.02252 0.6458 0.58993 0.0
O213 O 1.00618 0.66655 0.6271 0.0
O214 O 0.04268 0.70513 0.51076 0.0
O215 O 0.0248 0.67905 0.48696 0.0
C216 C 0.03214 0.69698 0.48033 0.0
C217 C 0.01002 0.61381 0.56864 0.0
C218 C 0.00817 0.68577 0.62433 0.0
C219 C 0.06783 0.65605 0.59201 0.0
O220 O 0.05303 0.64493 0.60375 0.0
O221 O 0.06499 0.67114 0.56714 0.0
O222 O 0.01354 0.61808 0.60853 0.0
O223 O 0.01222 0.62825 0.54077 0.0
H224 H 0.59107 0.12344 0.40363 0.0
H225 H 0.61683 0.11985 0.34776 0.0
H226 H 0.62037 0.18505 0.33557 0.0
H227 H 0.5944 0.18871 0.39189 0.0
H228 H 0.60857 0.16674 0.26128 0.0
H229 H 0.67656 0.1271 0.32127 0.0
H230 H 0.65416 0.11476 0.3413 0.0
H231 H 0.65946 0.14064 0.35689 0.0
C232 C 0.59801 0.13703 0.39049 0.0
C233 C 0.59065 0.15633 0.40191 0.0
C234 C 0.61286 0.13498 0.35862 0.0
C235 C 0.62063 0.15218 0.33748 0.0
C236 C 0.61469 0.17158 0.35166 0.0
H237 H 0.68002 0.1009 0.1086 0.0
H238 H 0.67578 0.12809 0.16231 0.0
C239 C 0.59993 0.17365 0.38404 0.0
C240 C 0.63124 0.14941 0.29559 0.0
H241 H 0.66559 0.11788 0.24748 0.0
C242 C 0.62153 0.15664 0.25823 0.0
C243 C 0.64833 0.13653 0.29131 0.0
C244 C 0.66033 0.12952 0.32996 0.0
C245 C 0.62693 0.14939 0.21719 0.0
C246 C 0.64227 0.13446 0.21357 0.0
C247 C 0.65359 0.12912 0.25029 0.0
C248 C 0.64407 0.12145 0.17469 0.0
C249 C 0.61526 0.15677 0.17837 0.0
C250 C 0.62752 0.1091 0.16311 0.0
C251 C 0.62995 0.09355 0.13298 0.0
C252 C 0.64895 0.09009 0.1136 0.0
C253 C 0.66514 0.10341 0.12268 0.0
C254 C 0.66278 0.11885 0.15348 0.0
H255 H 0.60987 0.17261 0.18321 0.0
H256 H 0.6247 0.15611 0.14865 0.0
H257 H 0.60167 0.147 0.17363 0.0
H258 H 0.61306 0.11055 0.17963 0.0
H259 H 0.61725 0.08346 0.12671 0.0
H260 H 0.32725 0.58604 0.38104 0.0
H261 H 0.33395 0.60776 0.31852 0.0
H262 H 0.39683 0.61282 0.35674 0.0
H263 H 0.39042 0.59009 0.4177 0.0
H264 H 0.35153 0.64412 0.29007 0.0
H265 H 0.3989 0.57725 0.24917 0.0
H266 H 0.38218 0.57766 0.29525 0.0
H267 H 0.40699 0.58923 0.29825 0.0
C268 C 0.34227 0.59261 0.37724 0.0
C269 C 0.3584 0.58632 0.40379 0.0
C270 C 0.3461 0.60493 0.34135 0.0
C271 C 0.36603 0.6113 0.33227 0.0
C272 C 0.38145 0.60759 0.36264 0.0
H273 H 0.4221 0.67975 0.13419 0.0
H274 H 0.39816 0.67025 0.19067 0.0
C275 C 0.37776 0.59482 0.39772 0.0
C276 C 0.37148 0.61819 0.2882 0.0
H277 H 0.40244 0.60598 0.20397 0.0
C278 C 0.36255 0.63577 0.27096 0.0
C279 C 0.38514 0.60676 0.2625 0.0
C280 C 0.39367 0.58656 0.27699 0.0
C281 C 0.36783 0.64282 0.2295 0.0
C282 C 0.38282 0.63227 0.20534 0.0
C283 C 0.39097 0.61421 0.22212 0.0
C284 C 0.39197 0.64026 0.16476 0.0
C285 C 0.35715 0.66134 0.2121 0.0
C286 C 0.39612 0.62693 0.13023 0.0
C287 C 0.41047 0.63213 0.09879 0.0
C288 C 0.42021 0.65104 0.10044 0.0
C289 C 0.41433 0.66526 0.13179 0.0
C290 C 0.40052 0.65983 0.16409 0.0
H291 H 0.34128 0.66218 0.22437 0.0
H292 H 0.3652 0.67518 0.22341 0.0
H293 H 0.35678 0.66139 0.17627 0.0
H294 H 0.3897 0.61177 0.12983 0.0
H295 H 0.41509 0.62084 0.07529 0.0
H296 H 0.82989 0.41361 0.12358 0.0
H297 H 0.83662 0.39117 0.18507 0.0
H298 H 0.90088 0.39383 0.15748 0.0
H299 H 0.89429 0.41707 0.09754 0.0
H300 H 0.858 0.35537 0.21104 0.0
H301 H 0.89407 0.42625 0.26975 0.0
H302 H 0.87909 0.42534 0.22109 0.0
H303 H 0.9053 0.41734 0.22046 0.0
C304 C 0.84535 0.40863 0.1295 0.0
C305 C 0.86163 0.41713 0.10624 0.0
C306 C 0.84918 0.39589 0.16474 0.0
C307 C 0.86928 0.39134 0.17647 0.0
C308 C 0.88528 0.39753 0.14942 0.0
H309 H 0.92932 0.32403 0.36902 0.0
H310 H 0.90504 0.33191 0.31225 0.0
C311 C 0.88152 0.41066 0.11501 0.0
C312 C 0.8739 0.38365 0.22033 0.0
H313 H 0.90029 0.39654 0.31073 0.0
C314 C 0.86708 0.36436 0.23317 0.0
C315 C 0.88499 0.39576 0.24984 0.0
C316 C 0.89109 0.41741 0.23983 0.0
C317 C 0.87215 0.35641 0.274 0.0
C318 C 0.88476 0.36789 0.30203 0.0
C319 C 0.89064 0.38757 0.28964 0.0
C320 C 0.89397 0.35956 0.34224 0.0
C321 C 0.86384 0.33588 0.28652 0.0
C322 C 0.89539 0.37191 0.37928 0.0
C323 C 0.90996 0.36781 0.41093 0.0
C324 C 0.92269 0.35084 0.40695 0.0
C325 C 0.91936 0.337 0.37319 0.0
C326 C 0.90535 0.3415 0.34064 0.0
H327 H 0.8486 0.33337 0.272 0.0
H328 H 0.87408 0.32387 0.27388 0.0
H329 H 0.8626 0.33421 0.32208 0.0
H330 H 0.8867 0.38585 0.38158 0.0
H331 H 0.91243 0.37879 0.43649 0.0
H332 H 0.08825 0.8922 0.12186 0.0
H333 H 0.11531 0.89537 0.17492 0.0
H334 H 0.1259 0.83075 0.16865 0.0
H335 H 0.09858 0.82749 0.11507 0.0
H336 H 0.11654 0.84352 0.24983 0.0
H337 H 0.1765 0.89336 0.18568 0.0
H338 H 0.15212 0.90408 0.17361 0.0
H339 H 0.15908 0.87981 0.15083 0.0
C340 C 0.09686 0.87877 0.13048 0.0
C341 C 0.09127 0.8596 0.11448 0.0
C342 C 0.11246 0.88061 0.16068 0.0
C343 C 0.12278 0.86332 0.1756 0.0
C344 C 0.11826 0.8443 0.1573 0.0
H345 H 0.1866 0.91541 0.39454 0.0
H346 H 0.18367 0.88834 0.34043 0.0
C347 C 0.10273 0.84248 0.12653 0.0
C348 C 0.13524 0.86504 0.21534 0.0
H349 H 0.1683 0.89799 0.26299 0.0
C350 C 0.12841 0.85492 0.25254 0.0
C351 C 0.15106 0.87949 0.21902 0.0
C352 C 0.16024 0.88961 0.17995 0.0
C353 C 0.13514 0.86076 0.29373 0.0
C354 C 0.14876 0.87729 0.29766 0.0
C355 C 0.15755 0.88555 0.26021 0.0
C356 C 0.15077 0.88894 0.33848 0.0
C357 C 0.12657 0.85004 0.3327 0.0
C358 C 0.13325 0.89764 0.35672 0.0
C359 C 0.13488 0.91308 0.38736 0.0
C360 C 0.15407 0.92017 0.40037 0.0
C361 C 0.1716 0.91013 0.38537 0.0
C362 C 0.16996 0.89473 0.35427 0.0
H363 H 0.12392 0.8337 0.32559 0.0
H364 H 0.13687 0.85133 0.36098 0.0
H365 H 0.11165 0.85687 0.3412 0.0
H366 H 0.11829 0.89381 0.34453 0.0
H367 H 0.12113 0.92055 0.39833 0.0
H368 H 0.32093 0.91854 0.89398 0.0
H369 H 0.32409 0.893 0.83684 0.0
H370 H 0.38923 0.8928 0.85387 0.0
H371 H 0.38612 0.91803 0.91081 0.0
H372 H 0.34336 0.90487 0.76528 0.0
H373 H 0.38014 0.83459 0.82047 0.0
H374 H 0.3673 0.8516 0.85738 0.0
H375 H 0.3935 0.85593 0.84251 0.0
C376 C 0.3358 0.91222 0.88713 0.0
C377 C 0.35332 0.92041 0.90655 0.0
C378 C 0.33759 0.89771 0.85421 0.0
C379 C 0.35689 0.89095 0.84093 0.0
C380 C 0.37413 0.89742 0.86389 0.0
H381 H 0.42668 0.89627 0.63055 0.0
H382 H 0.39972 0.90024 0.68387 0.0
C383 C 0.37236 0.91198 0.89643 0.0
C384 C 0.35976 0.88108 0.7982 0.0
H385 H 0.39064 0.84676 0.74808 0.0
C386 C 0.35311 0.89169 0.76147 0.0
C387 C 0.37217 0.86372 0.79281 0.0
C388 C 0.37847 0.85072 0.83052 0.0
C389 C 0.36047 0.88685 0.72021 0.0
C390 C 0.37499 0.87117 0.7157 0.0
C391 C 0.37975 0.85904 0.75159 0.0
C392 C 0.38812 0.86961 0.67689 0.0
C393 C 0.35363 0.8994 0.68221 0.0
C394 C 0.39031 0.85119 0.65442 0.0
C395 C 0.40571 0.84896 0.62341 0.0
C396 C 0.41937 0.86497 0.61531 0.0
C397 C 0.41633 0.88372 0.63601 0.0
C398 C 0.40084 0.88602 0.6664 0.0
H399 H 0.33787 0.90506 0.68705 0.0
H400 H 0.36375 0.91282 0.67896 0.0
H401 H 0.35426 0.89054 0.65171 0.0
H402 H 0.38078 0.8383 0.66235 0.0
H403 H 0.40787 0.83426 0.60832 0.0
H404 H 0.68339 0.41869 0.62652 0.0
H405 H 0.67502 0.39479 0.68392 0.0
H406 H 0.6151 0.38675 0.62946 0.0
H407 H 0.62306 0.41197 0.57405 0.0
H408 H 0.61159 0.40058 0.70453 0.0
H409 H 0.66654 0.33767 0.71818 0.0
H410 H 0.67971 0.36147 0.71567 0.0
H411 H 0.66476 0.35311 0.6702 0.0
C412 C 0.66881 0.411 0.62562 0.0
C413 C 0.65386 0.41703 0.59595 0.0
C414 C 0.66402 0.39725 0.65849 0.0
C415 C 0.64437 0.38889 0.66132 0.0
C416 C 0.63032 0.39305 0.62822 0.0
H417 H 0.58834 0.32432 0.8739 0.0
H418 H 0.61052 0.33072 0.8119 0.0
C419 C 0.63489 0.40732 0.59628 0.0
C420 C 0.63709 0.37996 0.70272 0.0
H421 H 0.64898 0.34714 0.78457 0.0
C422 C 0.61966 0.38862 0.72142 0.0
C423 C 0.64753 0.3644 0.72527 0.0
C424 C 0.66554 0.35351 0.70599 0.0
C425 C 0.61258 0.38253 0.76194 0.0
C426 C 0.62373 0.36797 0.78574 0.0
C427 C 0.64081 0.35874 0.76679 0.0
C428 C 0.61695 0.36188 0.82951 0.0
C429 C 0.59302 0.39173 0.77862 0.0
C430 C 0.61468 0.37671 0.86179 0.0
C431 C 0.60168 0.37324 0.89668 0.0
C432 C 0.59137 0.35464 0.90044 0.0
C433 C 0.59623 0.33875 0.87189 0.0
C434 C 0.60885 0.34241 0.83629 0.0
H435 H 0.58372 0.39826 0.75211 0.0
H436 H 0.58367 0.38024 0.79583 0.0
H437 H 0.59665 0.40419 0.80151 0.0
H438 H 0.62116 0.39172 0.85753 0.0
H439 H 0.59816 0.38572 0.91828 0.0
H440 H 0.08338 0.62055 0.62124 0.0
H441 H 0.10931 0.6168 0.67673 0.0
H442 H 0.12233 0.68097 0.66997 0.0
H443 H 0.09609 0.68486 0.61417 0.0
H444 H 0.15108 0.62686 0.69092 0.0
H445 H 0.09752 0.67258 0.79162 0.0
H446 H 0.09007 0.66291 0.73948 0.0
H447 H 0.10777 0.68362 0.74315 0.0
C448 C 0.09224 0.63375 0.63045 0.0
C449 C 0.08754 0.65303 0.61387 0.0
C450 C 0.10709 0.6316 0.66216 0.0
C451 C 0.11742 0.64869 0.67812 0.0
C452 C 0.1143 0.66765 0.65848 0.0
H453 H 0.17947 0.59966 0.90768 0.0
H454 H 0.17552 0.62643 0.85304 0.0
C455 C 0.09945 0.66981 0.62634 0.0
C456 C 0.1287 0.6466 0.71926 0.0
H457 H 0.12042 0.65153 0.82759 0.0
C458 C 0.14495 0.63281 0.72089 0.0
C459 C 0.12055 0.65439 0.75825 0.0
C460 C 0.10298 0.66915 0.75845 0.0
C461 C 0.1519 0.62504 0.76041 0.0
C462 C 0.14244 0.63143 0.79918 0.0
C463 C 0.12763 0.64674 0.79776 0.0
C464 C 0.14411 0.61911 0.839 0.0
C465 C 0.16785 0.60855 0.76008 0.0
C466 C 0.12743 0.60707 0.85096 0.0
C467 C 0.12962 0.5919 0.88191 0.0
C468 C 0.14851 0.58858 0.90179 0.0
C469 C 0.1647 0.60195 0.89297 0.0
C470 C 0.16253 0.61711 0.86152 0.0
H471 H 0.1728 0.60451 0.72686 0.0
H472 H 0.18139 0.6137 0.77848 0.0
H473 H 0.16188 0.59467 0.77602 0.0
H474 H 0.11306 0.6084 0.83406 0.0
H475 H 0.11687 0.58188 0.88823 0.0
H476 H 0.92746 0.12403 0.89474 0.0
H477 H 0.90186 0.12076 0.83843 0.0
H478 H 0.89519 0.18592 0.8344 0.0
H479 H 0.92118 0.18933 0.89085 0.0
H480 H 0.8618 0.13369 0.8192 0.0
H481 H 0.92043 0.17147 0.71645 0.0
H482 H 0.92619 0.16313 0.77048 0.0
H483 H 0.91046 0.18507 0.76217 0.0
C484 C 0.92006 0.13765 0.88297 0.0
C485 C 0.92655 0.15694 0.89665 0.0
C486 C 0.90539 0.13576 0.85078 0.0
C487 C 0.897 0.15312 0.8315 0.0
C488 C 0.90176 0.17236 0.84839 0.0
H489 H 0.8337 0.10338 0.60316 0.0
H490 H 0.83906 0.13067 0.65628 0.0
C491 C 0.91646 0.17426 0.88093 0.0
C492 C 0.88611 0.15065 0.78993 0.0
H493 H 0.89595 0.15178 0.6817 0.0
C494 C 0.86877 0.13822 0.78896 0.0
C495 C 0.89535 0.15657 0.75056 0.0
C496 C 0.91418 0.16973 0.74957 0.0
C497 C 0.86161 0.12993 0.75002 0.0
C498 C 0.87199 0.13442 0.71112 0.0
C499 C 0.88804 0.14845 0.71162 0.0
C500 C 0.86964 0.12127 0.6726 0.0
C501 C 0.8443 0.11485 0.75134 0.0
C502 C 0.88546 0.10778 0.6625 0.0
C503 C 0.88247 0.09233 0.6324 0.0
C504 C 0.86365 0.09015 0.61153 0.0
C505 C 0.8484 0.10477 0.61868 0.0
C506 C 0.85136 0.12023 0.64926 0.0
H507 H 0.83874 0.1121 0.7847 0.0
H508 H 0.83143 0.12063 0.73175 0.0
H509 H 0.84921 0.10013 0.73723 0.0
H510 H 0.89971 0.10834 0.68004 0.0
H511 H 0.89453 0.08135 0.62736 0.0
H512 H 0.68882 1.00061 0.927 0.0
H513 H 0.71065 0.98961 0.86712 0.0
H514 H 0.73891 0.0488 0.86474 0.0
H515 H 0.71795 0.05942 0.92582 0.0
H516 H 0.71702 0.99981 0.78759 0.0
H517 H 0.7883 0.01467 0.87548 0.0
H518 H 0.76382 0.01582 0.90164 0.0
H519 H 0.77361 0.03753 0.87274 0.0
C520 C 0.69957 0.01131 0.91334 0.0
C521 C 0.70183 0.03081 0.9313 0.0
C522 C 0.71211 1.00498 0.87927 0.0
C523 C 0.72698 0.01812 0.8623 0.0
C524 C 0.72821 0.03806 0.87837 0.0
H525 H 0.78261 0.02335 0.61858 0.0
H526 H 0.75947 0.01918 0.67856 0.0
C527 C 0.71601 0.04423 0.91294 0.0
C528 C 0.74123 0.01117 0.82786 0.0
H529 H 0.79118 0.0129 0.79778 0.0
C530 C 0.73328 1.00239 0.79011 0.0
C531 C 0.76259 0.01368 0.83149 0.0
C532 C 0.77257 0.0207 0.87278 0.0
C533 C 0.74589 0.99745 0.75494 0.0
C534 C 0.76693 1.00216 0.75682 0.0
C535 C 0.77504 0.00958 0.79569 0.0
C536 C 0.78032 1.00173 0.71792 0.0
C537 C 0.7364 0.98731 0.71616 0.0
C538 C 0.80008 0.99347 0.71961 0.0
C539 C 0.81376 0.99634 0.6853 0.0
C540 C 0.8079 0.00749 0.64866 0.0
C541 C 0.78775 0.01465 0.64615 0.0
C542 C 0.77428 0.01205 0.68047 0.0
H543 H 0.72376 0.97713 0.72614 0.0
H544 H 0.72983 0.99908 0.69468 0.0
H545 H 0.74768 0.97826 0.69762 0.0
H546 H 0.80518 0.98551 0.74819 0.0
H547 H 0.82915 0.99067 0.6884 0.0
H548 H 0.52064 0.83317 0.68814 0.0
H549 H 0.52733 0.80934 0.74731 0.0
H550 H 0.49394 0.76278 0.67937 0.0
H551 H 0.48821 0.78584 0.61996 0.0
H552 H 0.5008 0.79463 0.7982 0.0
H553 H 0.53761 0.72832 0.72459 0.0
H554 H 0.53559 0.75219 0.69629 0.0
H555 H 0.5152 0.73379 0.69403 0.0
C556 C 0.51535 0.81765 0.68524 0.0
C557 C 0.5038 0.81151 0.64931 0.0
C558 C 0.5191 0.80404 0.71918 0.0
C559 C 0.51137 0.78408 0.7178 0.0
C560 C 0.50067 0.77778 0.68097 0.0
H561 H 0.45507 0.72023 0.92296 0.0
H562 H 0.46591 0.74173 0.86309 0.0
C563 C 0.49717 0.79119 0.64701 0.0
C564 C 0.51176 0.77071 0.75661 0.0
H565 H 0.51534 0.72088 0.78662 0.0
C566 C 0.50446 0.7786 0.79582 0.0
C567 C 0.51694 0.74983 0.75433 0.0
C568 C 0.527 0.74067 0.71509 0.0
C569 C 0.50081 0.76599 0.83151 0.0
C570 C 0.5037 0.74474 0.82744 0.0
C571 C 0.51248 0.73706 0.78945 0.0
C572 C 0.4968 0.73029 0.86142 0.0
C573 C 0.49374 0.77569 0.87307 0.0
C574 C 0.51005 0.71557 0.87843 0.0
C575 C 0.50362 0.70273 0.91189 0.0
C576 C 0.48391 0.70457 0.92909 0.0
C577 C 0.47043 0.71865 0.9107 0.0
C578 C 0.47671 0.73113 0.87681 0.0
H579 H 0.49959 0.79147 0.87608 0.0
H580 H 0.47687 0.77652 0.87316 0.0
H581 H 0.49877 0.76689 0.9017 0.0
H582 H 0.52554 0.71441 0.86673 0.0
H583 H 0.51436 0.69205 0.92557 0.0
H584 H 0.82599 0.49834 0.90563 0.0
H585 H 0.80457 0.50764 0.84378 0.0
H586 H 0.76043 0.46258 0.8818 0.0
H587 H 0.78163 0.45317 0.94321 0.0
H588 H 0.77055 0.46214 0.79295 0.0
H589 H 0.74977 0.53946 0.85085 0.0
H590 H 0.7765 0.53363 0.84906 0.0
H591 H 0.76029 0.52031 0.8861 0.0
C592 C 0.81181 0.49031 0.90056 0.0
C593 C 0.80551 0.47503 0.92937 0.0
C594 C 0.7995 0.49578 0.86549 0.0
C595 C 0.78076 0.48603 0.85868 0.0
C596 C 0.77476 0.4704 0.88667 0.0
H597 H 0.6749 0.50256 0.69853 0.0
H598 H 0.69905 0.50365 0.75886 0.0
C599 C 0.78694 0.46501 0.92172 0.0
C600 C 0.76739 0.49166 0.82204 0.0
H601 H 0.73685 0.52945 0.78275 0.0
C602 C 0.76329 0.47689 0.79058 0.0
C603 C 0.75774 0.51085 0.81938 0.0
C604 C 0.7611 0.52699 0.85324 0.0
C605 C 0.7498 0.48075 0.75652 0.0
C606 C 0.74029 0.49998 0.75357 0.0
C607 C 0.74431 0.5148 0.785 0.0
C608 C 0.72581 0.50445 0.7182 0.0
C609 C 0.74548 0.46406 0.72431 0.0
C610 C 0.73287 0.50571 0.67561 0.0
C611 C 0.71917 0.50509 0.64123 0.0
C612 C 0.69813 0.50324 0.64883 0.0
C613 C 0.69098 0.50407 0.6916 0.0
C614 C 0.70477 0.5046 0.72611 0.0
H615 H 0.75115 0.44907 0.73549 0.0
H616 H 0.72889 0.46284 0.71808 0.0
H617 H 0.75308 0.46771 0.69327 0.0
H618 H 0.74906 0.50579 0.66892 0.0
H619 H 0.72516 0.50464 0.60864 0.0
H620 H 0.008 0.8271 0.91595 0.0
H621 H 0.99843 0.80609 0.85357 0.0
H622 H 0.04056 0.7598 0.8946 0.0
H623 H 0.05023 0.78058 0.95652 0.0
H624 H 0.04287 0.76987 0.80577 0.0
H625 H 0.96368 0.75298 0.85846 0.0
H626 H 0.97095 0.77934 0.85723 0.0
H627 H 0.98286 0.76249 0.89504 0.0
C628 C 0.01532 0.81251 0.91145 0.0
C629 C 0.02986 0.8055 0.94123 0.0
C630 C 0.0097 0.80045 0.87607 0.0
C631 C 0.01855 0.78125 0.86992 0.0
C632 C 0.03343 0.7745 0.89894 0.0
H633 H 1.00012 0.6762 0.70879 0.0
H634 H 0.99896 0.7004 0.76904 0.0
C635 C 0.03897 0.78644 0.93429 0.0
C636 C 0.01278 0.76816 0.83289 0.0
H637 H 0.97408 0.73942 0.79116 0.0
C638 C 0.0278 0.76332 0.80243 0.0
C639 C 0.99316 0.75945 0.82898 0.0
C640 C 0.97671 0.76364 0.86175 0.0
C641 C 0.02377 0.74999 0.76814 0.0
C642 C 1.00413 0.74141 0.76395 0.0
C643 C 0.98905 0.74618 0.79437 0.0
C644 C 0.9995 0.72709 0.72838 0.0
C645 C 0.0407 0.74484 0.73702 0.0
C646 C 0.99899 0.73414 0.68575 0.0
C647 C 0.99964 0.72041 0.6514 0.0
C648 C 1.00079 0.69937 0.6591 0.0
C649 C 0.99915 0.69229 0.70179 0.0
C650 C 0.99858 0.7061 0.73626 0.0
H651 H 0.05579 0.74995 0.74899 0.0
H652 H 0.0413 0.7282 0.73116 0.0
H653 H 0.03777 0.7524 0.70563 0.0
H654 H 0.99953 0.75029 0.67908 0.0
H655 H 1.00075 0.72634 0.61887 0.0
H656 H 0.1899 0.99793 0.60053 0.0
H657 H 0.2132 0.00625 0.65986 0.0
H658 H 0.2629 0.9794 0.58899 0.0
H659 H 0.23979 0.97067 0.53038 0.0
H660 H 0.26251 0.96721 0.67182 0.0
H661 H 0.25547 0.05119 0.66523 0.0
H662 H 0.23171 0.03811 0.67205 0.0
H663 H 0.24597 0.03484 0.62298 0.0
C664 C 0.20578 0.99377 0.59769 0.0
C665 C 0.21296 0.98364 0.56069 0.0
C666 C 0.21913 0.99873 0.63142 0.0
C667 C 0.23991 0.99382 0.62853 0.0
C668 C 0.24698 0.98347 0.59187 0.0
H669 H 0.34613 1.00204 0.79542 0.0
H670 H 0.32417 1.00318 0.73158 0.0
C671 C 0.2337 0.97845 0.55838 0.0
C672 C 0.25429 0.99866 0.66415 0.0
H673 H 0.27436 0.03755 0.724 0.0
C674 C 0.26518 0.98261 0.68297 0.0
C675 C 0.2578 0.01878 0.67873 0.0
C676 C 0.24728 0.03676 0.65848 0.0
C677 C 0.27923 0.98605 0.71628 0.0
C678 C 0.28268 0.00612 0.73094 0.0
C679 C 0.27179 0.02221 0.71237 0.0
C680 C 0.29677 0.01023 0.76729 0.0
C681 C 0.28996 0.9681 0.73628 0.0
C682 C 0.28884 0.01508 0.80801 0.0
C683 C 0.30133 0.01447 0.84448 0.0
C684 C 0.322 0.0091 0.84082 0.0
C685 C 0.33032 0.00631 0.79939 0.0
C686 C 0.31776 0.00678 0.76289 0.0
H687 H 0.28306 0.9534 0.72638 0.0
H688 H 0.30614 0.9681 0.726 0.0
H689 H 0.28959 0.96916 0.77205 0.0
H690 H 0.27271 0.01787 0.81203 0.0
H691 H 0.29447 0.01679 0.87591 0.0
H692 H 0.51347 0.18975 0.60364 0.0
H693 H 0.50411 0.21212 0.66403 0.0
H694 H 0.52873 0.26354 0.59551 0.0
H695 H 0.53814 0.24147 0.5354 0.0
H696 H 0.53105 0.23836 0.71296 0.0
H697 H 0.47031 0.28178 0.62966 0.0
H698 H 0.47934 0.25745 0.61048 0.0
H699 H 0.49393 0.28007 0.60062 0.0
C700 C 0.51692 0.20581 0.60151 0.0
C701 C 0.52654 0.21381 0.56466 0.0
C702 C 0.5115 0.21857 0.63594 0.0
C703 C 0.51536 0.23955 0.63383 0.0
C704 C 0.52521 0.24748 0.59741 0.0
H705 H 0.5115 0.34457 0.79818 0.0
H706 H 0.50961 0.32116 0.7368 0.0
C707 C 0.53074 0.23478 0.56321 0.0
C708 C 0.50995 0.25314 0.67034 0.0
H709 H 0.48188 0.29507 0.69691 0.0
C710 C 0.5201 0.2506 0.70972 0.0
C711 C 0.4958 0.2692 0.66578 0.0
C712 C 0.48406 0.27226 0.62449 0.0
C713 C 0.51705 0.2641 0.74425 0.0
C714 C 0.50296 0.28028 0.73971 0.0
C715 C 0.49256 0.28263 0.70047 0.0
C716 C 0.49974 0.29539 0.77479 0.0
C717 C 0.52965 0.26141 0.78459 0.0
C718 C 0.49344 0.28907 0.81594 0.0
C719 C 0.49462 0.30237 0.85105 0.0
C720 C 0.50176 0.32236 0.84551 0.0
C721 C 0.50582 0.32932 0.80347 0.0
C722 C 0.5049 0.31589 0.76838 0.0
H723 H 0.54315 0.25164 0.77877 0.0
H724 H 0.53495 0.2763 0.7972 0.0
H725 H 0.52023 0.25404 0.80986 0.0
H726 H 0.48884 0.27348 0.82142 0.0
H727 H 0.49127 0.29661 0.88302 0.0
H728 H 0.29219 0.55274 0.58423 0.0
H729 H 0.27119 0.54308 0.64594 0.0
H730 H 0.29644 0.48256 0.64172 0.0
H731 H 0.31851 0.49271 0.58166 0.0
H732 H 0.24209 0.51749 0.64895 0.0
H733 H 0.29976 0.49159 0.76725 0.0
H734 H 0.30666 0.50459 0.71823 0.0
H735 H 0.3007 0.47787 0.71729 0.0
C736 C 0.29359 0.53752 0.59719 0.0
C737 C 0.3071 0.52353 0.57857 0.0
C738 C 0.28149 0.53194 0.63229 0.0
C739 C 0.28225 0.51209 0.64896 0.0
C740 C 0.29591 0.49811 0.63048 0.0
H741 H 0.17804 0.48727 0.8231 0.0
H742 H 0.20144 0.48174 0.76237 0.0
C743 C 0.30849 0.50389 0.59604 0.0
C744 C 0.26793 0.50609 0.68408 0.0
H745 H 0.26532 0.48671 0.7862 0.0
C746 C 0.2472 0.51076 0.679 0.0
C747 C 0.27451 0.49716 0.72324 0.0
C748 C 0.29663 0.49268 0.73209 0.0
C749 C 0.23312 0.50789 0.71255 0.0
C750 C 0.23969 0.49905 0.75184 0.0
C751 C 0.26021 0.49333 0.75605 0.0
C752 C 0.22644 0.49851 0.79092 0.0
C753 C 0.21169 0.51563 0.7063 0.0
C754 C 0.23318 0.50821 0.82862 0.0
C755 C 0.22015 0.51078 0.86366 0.0
C756 C 0.19984 0.504 0.86182 0.0
C757 C 0.19349 0.49289 0.82541 0.0
C758 C 0.20679 0.48996 0.79043 0.0
H759 H 0.21052 0.52609 0.67829 0.0
H760 H 0.20137 0.5026 0.70022 0.0
H761 H 0.20626 0.52383 0.73546 0.0
H762 H 0.24827 0.51482 0.83022 0.0
H763 H 0.22576 0.51918 0.89129 0.0
H764 H 1.00253 0.32437 0.60426 0.0
H765 H 0.01305 0.3032 0.6656 0.0
H766 H 0.9944 0.24945 0.59649 0.0
H767 H 0.98386 0.2703 0.53546 0.0
H768 H 0.98737 0.2752 0.7125 0.0
H769 H 0.05322 0.23629 0.63673 0.0
H770 H 0.04271 0.25967 0.61586 0.0
H771 H 0.03029 0.23586 0.60518 0.0
C772 C 1.0007 0.30804 0.60216 0.0
C773 C 0.99236 0.29903 0.56498 0.0
C774 C 0.00678 0.29598 0.63712 0.0
C775 C 1.00487 0.27474 0.63517 0.0
C776 C 0.99642 0.26577 0.59826 0.0
H777 H 0.01053 0.17073 0.79927 0.0
H778 H 0.01338 0.19429 0.73842 0.0
C779 C 0.99023 0.27776 0.56355 0.0
C780 C 0.01055 0.26188 0.67252 0.0
H781 H 0.04078 0.2221 0.70257 0.0
C782 C 0.99925 0.2638 0.71067 0.0
C783 C 0.02593 0.2469 0.66972 0.0
C784 C 0.03888 0.2446 0.62981 0.0
C785 C 1.00233 0.25059 0.74558 0.0
C786 C 0.01759 0.23541 0.74273 0.0
C787 C 0.0292 0.23378 0.70483 0.0
C788 C 0.02069 0.22043 0.77793 0.0
C789 C 0.9885 0.2524 0.78436 0.0
C790 C 0.0253 0.227 0.8199 0.0
C791 C 0.02352 0.21363 0.85468 0.0
C792 C 0.01751 0.19336 0.84796 0.0
C793 C 0.0153 0.18623 0.80543 0.0
C794 C 0.01679 0.19972 0.77064 0.0
H795 H 0.9746 0.26136 0.77703 0.0
H796 H 0.98376 0.23718 0.79611 0.0
H797 H 0.99674 0.26024 0.81082 0.0
H798 H 0.02891 0.2428 0.82611 0.0
H799 H 0.02544 0.2195 0.88712 0.0
H800 H 0.21691 0.01761 0.38426 0.0
H801 H 0.24002 0.02143 0.32304 0.0
H802 H 0.19092 0.0073 0.23568 0.0
H803 H 0.1676 1.00407 0.29682 0.0
H804 H 0.2491 0.98962 0.27429 0.0
H805 H 0.22001 0.05042 0.1678 0.0
H806 H 0.21159 0.04756 0.22295 0.0
H807 H 0.20077 0.03209 0.18082 0.0
C808 C 0.21085 0.01612 0.35188 0.0
C809 C 0.19043 0.01053 0.34536 0.0
C810 C 0.22412 0.0182 0.3169 0.0
C811 C 0.21729 0.01464 0.27464 0.0
C812 C 0.19653 0.01053 0.26781 0.0
H813 H 0.27016 0.97799 0.03389 0.0
H814 H 0.24868 0.98705 0.09527 0.0
C815 C 0.18316 0.0087 0.30287 0.0
C816 C 0.23231 0.01227 0.23896 0.0
H817 H 0.24324 0.02656 0.13546 0.0
C818 C 0.248 0.99797 0.24421 0.0
C819 C 0.23083 0.02303 0.19956 0.0
C820 C 0.21501 0.03928 0.19255 0.0
C821 C 0.26179 0.99366 0.21082 0.0
C822 C 0.26 1.00405 0.17112 0.0
C823 C 0.24457 0.01861 0.16598 0.0
C824 C 0.2733 0.99913 0.13379 0.0
C825 C 0.27769 0.97744 0.21765 0.0
C826 C 0.29432 1.00298 0.135 0.0
C827 C 0.30673 0.99779 0.09984 0.0
C828 C 0.29829 0.98863 0.0629 0.0
C829 C 0.2772 0.98491 0.06186 0.0
C830 C 0.26485 0.99018 0.09685 0.0
H831 H 0.27468 0.9683 0.24711 0.0
H832 H 0.27836 0.96705 0.18941 0.0
H833 H 0.29283 0.98471 0.22117 0.0
H834 H 0.30112 0.01007 0.16309 0.0
H835 H 0.32287 1.00097 0.10156 0.0
H836 H 0.50862 0.17024 0.29878 0.0
H837 H 0.50669 0.19376 0.23768 0.0
H838 H 0.49051 0.24245 0.32439 0.0
H839 H 0.49302 0.21918 0.38563 0.0
H840 H 0.47958 0.22129 0.20069 0.0
H841 H 0.54489 0.26139 0.27636 0.0
H842 H 0.53576 0.2372 0.29559 0.0
H843 H 0.52259 0.26022 0.30972 0.0
C844 C 0.50394 0.18578 0.30465 0.0
C845 C 0.5012 0.19293 0.34704 0.0
C846 C 0.50299 0.19926 0.26972 0.0
C847 C 0.49912 0.22001 0.27668 0.0
C848 C 0.49412 0.22663 0.31842 0.0
H849 H 0.515 0.32476 0.10437 0.0
H850 H 0.50548 0.30294 0.16547 0.0
C851 C 0.49535 0.21327 0.35334 0.0
C852 C 0.50237 0.23494 0.24135 0.0
H853 H 0.53206 0.27532 0.21188 0.0
C854 C 0.49099 0.23315 0.2032 0.0
C855 C 0.51739 0.25035 0.2445 0.0
C856 C 0.53101 0.25235 0.28353 0.0
C857 C 0.49418 0.2464 0.16824 0.0
C858 C 0.50927 0.26169 0.17141 0.0
C859 C 0.5204 0.26368 0.20973 0.0
C860 C 0.51464 0.27494 0.1344 0.0
C861 C 0.48141 0.24397 0.12813 0.0
C862 C 0.52335 0.26647 0.0972 0.0
C863 C 0.52897 0.27885 0.06259 0.0
C864 C 0.526 0.30002 0.0644 0.0
C865 C 0.51748 0.30853 0.10195 0.0
C866 C 0.51197 0.29609 0.13679 0.0
H867 H 0.46731 0.23517 0.13463 0.0
H868 H 0.47718 0.25901 0.11463 0.0
H869 H 0.49033 0.23567 0.10331 0.0
H870 H 0.52594 0.25025 0.09504 0.0
H871 H 0.53551 0.27176 0.03423 0.0
H872 H 0.33682 0.5012 0.30666 0.0
H873 H 0.31254 0.50056 0.24655 0.0
H874 H 0.26269 0.49895 0.33692 0.0
H875 H 0.28672 0.49965 0.39699 0.0
H876 H 0.27451 0.47538 0.22258 0.0
H877 H 0.26104 0.55576 0.27088 0.0
H878 H 0.28317 0.5417 0.28806 0.0
H879 H 0.25895 0.53706 0.31297 0.0
C880 C 0.32074 0.49988 0.31372 0.0
C881 C 0.31368 0.50073 0.35658 0.0
C882 C 0.30687 0.49962 0.27933 0.0
C883 C 0.28585 0.50007 0.28742 0.0
C884 C 0.27886 0.49881 0.33008 0.0
H885 H 0.18531 0.50681 0.10114 0.0
H886 H 0.20697 0.49733 0.16245 0.0
C887 C 0.29264 0.49916 0.36435 0.0
C888 C 0.27136 0.50478 0.25221 0.0
H889 H 0.24123 0.54295 0.21376 0.0
C890 C 0.26715 0.49009 0.22061 0.0
C891 C 0.26199 0.5241 0.2496 0.0
C892 C 0.26655 0.54068 0.28192 0.0
C893 C 0.25365 0.49423 0.18645 0.0
C894 C 0.24409 0.51349 0.18422 0.0
C895 C 0.24841 0.52814 0.2158 0.0
C896 C 0.23054 0.51928 0.14796 0.0
C897 C 0.25013 0.47822 0.15241 0.0
C898 C 0.23627 0.53518 0.12041 0.0
C899 C 0.22393 0.54069 0.0857 0.0
C900 C 0.20546 0.53052 0.07791 0.0
C901 C 0.19942 0.51496 0.1063 0.0
C902 C 0.21187 0.50939 0.14106 0.0
H903 H 0.26158 0.46584 0.15413 0.0
H904 H 0.23483 0.47142 0.15709 0.0
H905 H 0.2506 0.48503 0.11964 0.0
H906 H 0.25054 0.54312 0.12534 0.0
H907 H 0.22906 0.55275 0.06454 0.0
H908 H 0.97624 0.24288 0.03024 0.0
H909 H 0.98505 0.26582 0.08909 0.0
H910 H 0.00975 0.21557 0.16129 0.0
H911 H 1.00138 0.19243 0.1017 0.0
H912 H 0.97197 0.26591 0.17123 0.0
H913 H 0.05586 0.25648 0.16853 0.0
H914 H 0.03968 0.24736 0.12559 0.0
H915 H 0.04205 0.23312 0.17484 0.0
C916 C 0.98355 0.23664 0.05859 0.0
C917 C 0.98813 0.2158 0.06122 0.0
C918 C 0.98863 0.24982 0.0922 0.0
C919 C 0.99842 0.24253 0.12929 0.0
C920 C 1.00269 0.22165 0.13251 0.0
H921 H 0.02047 0.29505 0.37809 0.0
H922 H 0.02215 0.27404 0.31316 0.0
C923 C 0.99769 0.2084 0.09864 0.0
C924 C 1.00329 0.2568 0.16505 0.0
H925 H 0.04207 0.27563 0.22696 0.0
C926 C 0.98733 0.26813 0.18314 0.0
C927 C 0.02335 0.25971 0.1806 0.0
C928 C 0.04127 0.24868 0.16117 0.0
C929 C 0.99077 0.282 0.21676 0.0
C930 C 0.01078 0.28484 0.23244 0.0
C931 C 0.02679 0.27353 0.21452 0.0
C932 C 0.01483 0.29854 0.26945 0.0
C933 C 0.97284 0.29313 0.23607 0.0
C934 C 0.01148 0.31955 0.26601 0.0
C935 C 0.01061 0.33169 0.30314 0.0
C936 C 0.01295 0.32289 0.3442 0.0
C937 C 0.01844 0.30226 0.34696 0.0
C938 C 0.0194 0.2902 0.30988 0.0
H939 H 0.95808 0.28652 0.22565 0.0
H940 H 0.97355 0.29281 0.27188 0.0
H941 H 0.97326 0.30926 0.2257 0.0
H942 H 0.00815 0.3263 0.23492 0.0
H943 H 1.00632 0.3475 0.29985 0.0
H944 H 0.72849 0.00888 0.10596 0.0
H945 H 0.75358 0.00663 0.16378 0.0
H946 H 0.70528 1.00087 0.25729 0.0
H947 H 0.68005 1.00268 0.19928 0.0
H948 H 0.75495 0.03621 0.22368 0.0
H949 H 0.74739 0.96177 0.30547 0.0
H950 H 0.73726 0.96648 0.25221 0.0
H951 H 0.72357 0.97479 0.29933 0.0
C952 C 0.72322 0.00639 0.13868 0.0
C953 C 0.70228 0.00605 0.1481 0.0
C954 C 0.73759 1.00517 0.17174 0.0
C955 C 0.73137 1.00362 0.21494 0.0
C956 C 0.7105 1.00171 0.22418 0.0
H957 H 0.78537 0.0568 0.43905 0.0
H958 H 0.76588 0.04759 0.37495 0.0
C959 C 0.69606 1.00275 0.19095 0.0
C960 C 0.74637 0.00714 0.25009 0.0
H961 H 0.76491 0.98799 0.34473 0.0
C962 C 0.75729 0.02551 0.24981 0.0
C963 C 0.74955 0.99319 0.28413 0.0
C964 C 0.73897 0.97286 0.2852 0.0
C965 C 0.77078 0.03058 0.2832 0.0
C966 C 0.77323 0.01708 0.31823 0.0
C967 C 0.76289 0.99839 0.31792 0.0
C968 C 0.78556 0.02272 0.35652 0.0
C969 C 0.78216 0.05047 0.2809 0.0
C970 C 0.8031 0.01172 0.36757 0.0
C971 C 0.81441 0.01703 0.40428 0.0
C972 C 0.80818 0.03327 0.43076 0.0
C973 C 0.79067 0.04428 0.41929 0.0
C974 C 0.7795 0.03905 0.38261 0.0
H975 H 0.78285 0.0564 0.24736 0.0
H976 H 0.77423 0.06191 0.30115 0.0
H977 H 0.79792 0.04878 0.2933 0.0
H978 H 0.808 0.99903 0.34786 0.0
H979 H 0.82772 0.00814 0.41243 0.0
H980 H 0.50877 0.82222 0.43043 0.0
H981 H 0.51868 0.80023 0.37014 0.0
H982 H 0.45777 0.77574 0.36555 0.0
H983 H 0.44826 0.79677 0.42738 0.0
H984 H 0.48317 0.74631 0.36245 0.0
H985 H 0.50971 0.80376 0.24444 0.0
H986 H 0.52339 0.80476 0.29443 0.0
H987 H 0.49664 0.8107 0.29341 0.0
C988 C 0.49743 0.81241 0.41593 0.0
C989 C 0.47771 0.81127 0.43338 0.0
C990 C 0.50308 0.79987 0.38134 0.0
C991 C 0.48894 0.78642 0.36269 0.0
C992 C 0.46903 0.78588 0.37931 0.0
H993 H 0.48585 0.72835 0.11945 0.0
H994 H 0.48802 0.75121 0.18051 0.0
C995 C 0.46354 0.79801 0.41449 0.0
C996 C 0.49488 0.77207 0.32753 0.0
H997 H 0.51514 0.7693 0.22606 0.0
C998 C 0.49014 0.75137 0.33259 0.0
C999 C 0.50406 0.77858 0.28853 0.0
C1000 C 0.50857 0.80068 0.27962 0.0
C1001 C 0.49344 0.73721 0.29934 0.0
C1002 C 0.50269 0.74369 0.26036 0.0
C1003 C 0.50823 0.76424 0.256 0.0
C1004 C 0.50417 0.73017 0.22178 0.0
C1005 C 0.48583 0.71576 0.30559 0.0
C1006 C 0.51331 0.71083 0.22354 0.0
C1007 C 0.5117 0.69735 0.18851 0.0
C1008 C 0.50133 0.70317 0.15079 0.0
C1009 C 0.49378 0.72316 0.14801 0.0
C1010 C 0.49507 0.73638 0.18306 0.0
H1011 H 0.47487 0.71464 0.33282 0.0
H1012 H 0.47824 0.71003 0.27598 0.0
H1013 H 0.49889 0.70567 0.313 0.0
H1014 H 0.52108 0.70589 0.25247 0.0
H1015 H 0.51786 0.68216 0.19162 0.0
H1016 H 0.72288 0.45379 0.42203 0.0
H1017 H 0.74455 0.46465 0.36232 0.0
H1018 H 0.71666 0.52399 0.36532 0.0
H1019 H 0.69397 0.51264 0.42347 0.0
H1020 H 0.72348 0.515 0.28681 0.0
H1021 H 0.79431 0.49753 0.37341 0.0
H1022 H 0.77942 0.47483 0.36966 0.0
H1023 H 0.76984 0.49636 0.39961 0.0
C1024 C 0.72122 0.46907 0.40958 0.0
C1025 C 0.70682 0.4824 0.42741 0.0
C1026 C 0.73383 0.47539 0.37585 0.0
C1027 C 0.73289 0.49543 0.36034 0.0
C1028 C 0.71792 0.50854 0.37702 0.0
H1029 H 0.83548 0.51811 0.18458 0.0
H1030 H 0.81243 0.52482 0.24532 0.0
C1031 C 0.70489 0.50203 0.4101 0.0
C1032 C 0.74735 0.5024 0.32629 0.0
H1033 H 0.79706 0.49891 0.29528 0.0
C1034 C 0.73963 0.5118 0.28905 0.0
C1035 C 0.76862 0.49915 0.32954 0.0
C1036 C 0.77851 0.49166 0.3705 0.0
C1037 C 0.7523 0.51652 0.25388 0.0
C1038 C 0.7731 0.51083 0.25508 0.0
C1039 C 0.78108 0.50292 0.29361 0.0
C1040 C 0.78618 0.51055 0.21569 0.0
C1041 C 0.74312 0.52744 0.21581 0.0
C1042 C 0.7791 0.50084 0.17827 0.0
C1043 C 0.79205 0.49745 0.14339 0.0
C1044 C 0.8127 0.50307 0.14531 0.0
C1045 C 0.81968 0.51362 0.18193 0.0
C1046 C 0.80651 0.51736 0.21679 0.0
H1047 H 0.73129 0.53836 0.2267 0.0
H1048 H 0.75475 0.53586 0.19695 0.0
H1049 H 0.73553 0.51624 0.1944 0.0
H1050 H 0.76382 0.49476 0.17677 0.0
H1051 H 0.78604 0.48925 0.11586 0.0
H1052 H 1.00275 0.83861 0.20938 0.0
H1053 H 1.00045 0.81425 0.26905 0.0
H1054 H 0.99917 0.76473 0.17796 0.0
H1055 H 1.00154 0.78885 0.11831 0.0
H1056 H 0.97424 0.77654 0.29089 0.0
H1057 H 0.05519 0.76222 0.24729 0.0
H1058 H 0.04163 0.78452 0.22947 0.0
H1059 H 0.03694 0.76042 0.20421 0.0
C1060 C 1.00114 0.8226 0.202 0.0
C1061 C 1.00261 0.81563 0.15918 0.0
C1062 C 0.99991 0.80869 0.23614 0.0
C1063 C 1.0 0.78772 0.2278 0.0
C1064 C 0.99928 0.78086 0.185 0.0
H1065 H 1.00501 0.68768 0.41574 0.0
H1066 H 0.99602 0.7088 0.35324 0.0
C1067 C 1.0006 0.79468 0.15097 0.0
C1068 C 1.00404 0.77311 0.26309 0.0
H1069 H 0.04155 0.74295 0.30425 0.0
C1070 C 0.98888 0.76908 0.2938 0.0
C1071 C 0.02326 0.76362 0.26689 0.0
C1072 C 0.0403 0.76794 0.23548 0.0
C1073 C 0.9925 0.75569 0.32837 0.0
C1074 C 0.01171 0.74612 0.33196 0.0
C1075 C 0.0268 0.75018 0.30114 0.0
C1076 C 0.01707 0.73298 0.36909 0.0
C1077 C 0.97602 0.75231 0.36149 0.0
C1078 C 0.03225 0.73932 0.39787 0.0
C1079 C 0.03745 0.72733 0.43328 0.0
C1080 C 0.02769 0.70861 0.44052 0.0
C1081 C 0.01283 0.70199 0.411 0.0
C1082 C 0.00754 0.71412 0.37555 0.0
H1083 H 0.96338 0.7634 0.35813 0.0
H1084 H 0.96968 0.73678 0.3575 0.0
H1085 H 0.98235 0.75347 0.39464 0.0
H1086 H 0.03988 0.75376 0.39327 0.0
H1087 H 0.04898 0.73288 0.45532 0.0
H1088 H 0.43583 0.97142 0.90777 0.0
H1089 H 0.4716 0.97392 0.92765 0.0
H1090 H 0.45781 0.025 0.01022 0.0
H1091 H 0.42156 0.02135 0.9929 0.0
H1092 H 0.49919 0.99883 0.91633 0.0
H1093 H 0.49015 0.99456 0.09344 0.0
H1094 H 0.46909 0.99058 0.05727 0.0
H1095 H 0.47681 0.01599 0.07199 0.0
C1096 C 0.44042 0.98315 0.93033 0.0
C1097 C 0.42588 0.99613 0.94897 0.0
C1098 C 0.46095 0.9846 0.9417 0.0
C1099 C 0.46763 0.99939 0.97128 0.0
C1100 C 0.45315 0.01292 0.98869 0.0
H1101 H 0.59743 0.02983 0.98713 0.0
H1102 H 0.5618 0.02672 0.96586 0.0
C1103 C 0.43242 0.01101 0.97838 0.0
C1104 C 0.48975 1.00064 0.9829 0.0
H1105 H 0.52282 1.00435 0.06769 0.0
C1106 C 0.50429 0.99984 0.94955 0.0
C1107 C 0.4967 1.00159 0.0262 0.0
C1108 C 0.48237 1.0005 0.06423 0.0
C1109 C 0.52532 0.9999 0.95808 0.0
C1110 C 0.53225 1.00206 1.00119 0.0
C1111 C 0.51772 1.00287 0.03455 0.0
C1112 C 0.55437 1.0034 0.01272 0.0
C1113 C 0.53972 0.99685 0.92065 0.0
C1114 C 0.56225 0.99189 0.04716 0.0
C1115 C 0.58249 0.99427 0.06043 0.0
C1116 C 0.59551 0.00782 0.03887 0.0
C1117 C 0.58789 0.01889 0.00367 0.0
C1118 C 0.56746 0.01701 0.99131 0.0
H1119 H 0.53238 0.9881 0.8942 0.0
H1120 H 0.54408 0.01187 0.90729 0.0
H1121 H 0.5537 0.98866 0.93061 0.0
H1122 H 0.55263 0.98127 0.0644 0.0
H1123 H 0.58791 0.98568 0.08792 0.0
H1124 H 0.512 0.41974 0.02567 0.0
H1125 H 0.50884 0.45566 0.04609 0.0
H1126 H 0.51359 0.47295 0.91229 0.0
H1127 H 0.51659 0.43725 0.89163 0.0
H1128 H 0.53759 0.48682 0.03025 0.0
H1129 H 0.4636 0.50475 0.95319 0.0
H1130 H 0.47192 0.47901 0.96282 0.0
H1131 H 0.48174 0.49306 0.91763 0.0
C1132 C 0.51205 0.43117 1.00054 0.0
C1133 C 0.51445 0.42556 0.95698 0.0
C1134 C 0.51034 0.45171 0.01228 0.0
C1135 C 0.51076 0.46703 0.98071 0.0
C1136 C 0.51285 0.46143 0.9372 0.0
H1137 H 0.50528 0.59963 0.98309 0.0
H1138 H 0.50952 0.56386 0.96279 0.0
C1139 C 0.51463 0.44096 0.92546 0.0
C1140 C 0.50998 0.4889 0.99321 0.0
H1141 H 0.48291 0.53273 0.97895 0.0
C1142 C 0.52557 0.49684 0.01927 0.0
C1143 C 0.49439 0.50203 0.97861 0.0
C1144 C 0.47685 0.49429 0.95183 0.0
C1145 C 0.52618 0.51757 0.03047 0.0
C1146 C 0.51055 0.53071 0.01597 0.0
C1147 C 0.49496 0.52274 0.98992 0.0
C1148 C 0.50969 0.55262 0.02842 0.0
C1149 C 0.54386 0.52528 0.05687 0.0
C1150 C 0.50855 0.55831 0.07206 0.0
C1151 C 0.50626 0.57875 0.08374 0.0
C1152 C 0.50487 0.594 0.05204 0.0
C1153 C 0.50644 0.58833 0.00835 0.0
C1154 C 0.50876 0.56785 0.99669 0.0
H1155 H 0.55728 0.5151 0.05412 0.0
H1156 H 0.54842 0.54081 0.04671 0.0
H1157 H 0.53936 0.52586 0.09138 0.0
H1158 H 0.50876 0.54688 0.09717 0.0
H1159 H 0.50492 0.58249 0.11767 0.0
H1160 H 0.93201 0.50188 0.11227 0.0
H1161 H 0.96789 0.50505 0.0927 0.0
H1162 H 0.95223 0.49945 0.95808 0.0
H1163 H 0.91619 0.49653 0.97739 0.0
H1164 H 0.99102 0.47627 0.0507 0.0
H1165 H 0.99051 0.54813 0.95726 0.0
H1166 H 0.96962 0.5406 0.99158 0.0
H1167 H 0.97244 0.52961 0.93875 0.0
C1168 C 0.93611 0.50168 0.0784 0.0
C1169 C 0.92115 0.49902 0.04639 0.0
C1170 C 0.95668 0.50341 0.06729 0.0
C1171 C 0.96282 0.50264 0.0239 0.0
C1172 C 0.94789 0.50047 0.99174 0.0
H1173 H 0.08001 0.5029 0.89358 0.0
H1174 H 0.04412 0.49976 0.91307 0.0
C1175 C 0.92726 0.49876 0.00284 0.0
C1176 C 0.98489 0.50296 0.01273 0.0
H1177 H 0.02093 0.52873 0.95497 0.0
C1178 C 0.99758 0.48781 0.02994 0.0
C1179 C 0.99347 0.51796 0.98553 0.0
C1180 C 0.98087 0.53512 0.96748 0.0
C1181 C 0.01848 0.48705 0.02016 0.0
C1182 C 0.02706 0.50205 0.99296 0.0
C1183 C 0.01437 0.5172 0.97574 0.0
C1184 C 0.04913 0.50237 0.98184 0.0
C1185 C 0.03108 0.46991 0.03824 0.0
C1186 C 0.06403 0.50464 0.01404 0.0
C1187 C 0.08467 0.50634 0.003 0.0
C1188 C 0.09081 0.50595 0.95948 0.0
C1189 C 0.07588 0.50319 0.92743 0.0
C1190 C 0.0553 0.50148 0.93849 0.0
H1191 H 0.02145 0.45691 0.04857 0.0
H1192 H 0.04231 0.4644 0.01412 0.0
H1193 H 0.03955 0.47544 0.06691 0.0
H1194 H 0.05966 0.50574 0.04767 0.0
H1195 H 0.09571 0.50866 0.02847 0.0
H1196 H 1.00468 0.09621 0.02684 0.0
H1197 H 0.00693 0.06047 0.04848 0.0
H1198 H 0.00703 0.04234 0.91469 0.0
H1199 H 1.00449 0.07789 0.89285 0.0
H1200 H 0.97939 0.02076 0.96285 0.0
H1201 H 0.05454 0.02107 0.04427 0.0
H1202 H 0.03715 0.03984 0.06447 0.0
H1203 H 0.04623 0.04155 0.00982 0.0
C1204 C 1.00551 0.08464 0.00201 0.0
C1205 C 1.00446 0.08996 0.9581 0.0
C1206 C 0.00685 0.06419 0.01444 0.0
C1207 C 0.00735 0.04868 0.98321 0.0
C1208 C 0.0067 0.05401 0.93938 0.0
H1209 H 0.01069 0.91594 0.98746 0.0
H1210 H 0.00785 0.95167 0.96604 0.0
C1211 C 1.00532 0.07439 0.92695 0.0
C1212 C 0.00753 0.02686 0.99599 0.0
H1213 H 0.03458 0.99122 0.05191 0.0
C1214 C 0.99151 0.01428 0.98217 0.0
C1215 C 0.02332 0.01839 0.02126 0.0
C1216 C 0.04139 0.03084 0.03553 0.0
C1217 C 0.99068 0.99359 0.99346 0.0
C1218 C 1.00645 0.98514 0.01875 0.0
C1219 C 0.02246 0.99771 0.0326 0.0
C1220 C 0.00669 0.96331 0.03138 0.0
C1221 C 0.97268 0.98108 0.97901 0.0
C1222 C 0.00702 0.95791 0.07519 0.0
C1223 C 0.00868 0.93753 0.0875 0.0
C1224 C 0.01019 0.92205 0.05626 0.0
C1225 C 0.00938 0.92744 0.01235 0.0
C1226 C 0.00771 0.94787 1.00005 0.0
H1227 H 0.95957 0.9908 0.96978 0.0
H1228 H 0.97708 0.97193 0.95038 0.0
H1229 H 0.96773 0.97048 0.00483 0.0
H1230 H 1.00628 0.96953 0.09994 0.0
H1231 H 0.00931 0.93398 0.1216 0.0
H1232 H 0.09141 0.99865 0.52259 0.0
H1233 H 0.05538 1.00071 0.54286 0.0
H1234 H 0.03857 1.00111 0.40837 0.0
H1235 H 0.07438 0.99867 0.38792 0.0
H1236 H 0.02531 0.02858 0.52546 0.0
H1237 H 1.00486 0.95415 0.45352 0.0
H1238 H 0.03091 0.96206 0.46109 0.0
H1239 H 0.01649 0.97128 0.41583 0.0
C1240 C 0.08005 0.99934 0.49733 0.0
C1241 C 0.08581 0.99835 0.45362 0.0
C1242 C 0.05943 1.00045 0.50896 0.0
C1243 C 0.04417 1.00055 0.47717 0.0
C1244 C 0.04997 1.00046 0.43354 0.0
H1245 H 0.91163 0.00891 0.48093 0.0
H1246 H 0.94754 1.00574 0.46021 0.0
C1247 C 0.07052 0.99925 0.42189 0.0
C1248 C 0.02222 1.00074 0.48954 0.0
H1249 H 0.9774 0.97481 0.47744 0.0
C1250 C 0.01488 0.01675 0.51516 0.0
C1251 C 0.00854 0.98531 0.47612 0.0
C1252 C 0.0156 0.96712 0.45048 0.0
C1253 C 0.99423 0.01798 0.52697 0.0
C1254 C 0.98055 1.00262 0.51335 0.0
C1255 C 0.98787 0.9866 0.48776 0.0
C1256 C 0.95863 1.00293 0.52566 0.0
C1257 C 0.98713 0.03597 0.5532 0.0
C1258 C 0.95284 1.00165 0.56919 0.0
C1259 C 0.93236 1.00335 0.5811 0.0
C1260 C 0.91716 0.0063 0.54972 0.0
C1261 C 0.92291 0.00664 0.50594 0.0
C1262 C 0.94344 1.00489 0.49404 0.0
H1263 H 0.99821 0.04871 0.55207 0.0
H1264 H 0.97217 0.04153 0.5415 0.0
H1265 H 0.98534 0.0313 0.5874 0.0
H1266 H 0.96423 0.99971 0.5941 0.0
H1267 H 0.92853 1.00294 0.6151 0.0
H1268 H 0.50032 0.91471 0.48269 0.0
H1269 H 0.50433 0.9504 0.46161 0.0
H1270 H 0.5092 0.96751 0.5956 0.0
H1271 H 0.50563 0.932 0.6168 0.0
H1272 H 0.47913 0.98194 0.48198 0.0
H1273 H 0.55635 0.99846 0.54434 0.0
H1274 H 0.54677 0.97289 0.5387 0.0
H1275 H 0.53976 0.98809 0.5847 0.0
C1276 C 0.50267 0.92602 0.50762 0.0
C1277 C 0.50276 0.92042 0.55145 0.0
C1278 C 0.50486 0.94645 0.49553 0.0
C1279 C 0.50731 0.96169 0.52694 0.0
C1280 C 0.5078 0.95606 0.57064 0.0
H1281 H 0.5112 0.0944 0.52516 0.0
H1282 H 0.50807 0.05848 0.54544 0.0
C1283 C 0.50566 0.93568 0.58273 0.0
C1284 C 0.50807 0.98357 0.51435 0.0
H1285 H 0.5362 0.02707 0.5244 0.0
C1286 C 0.4917 0.99176 0.49097 0.0
C1287 C 0.5244 0.99647 0.52626 0.0
C1288 C 0.54291 0.98851 0.54951 0.0
C1289 C 0.49103 0.01248 0.4799 0.0
C1290 C 0.50729 0.02539 0.49205 0.0
C1291 C 0.52367 0.01722 0.51536 0.0
C1292 C 0.5079 0.04726 0.47976 0.0
C1293 C 0.47272 0.02049 0.45603 0.0
C1294 C 0.50877 0.05294 0.43614 0.0
C1295 C 0.51056 0.07341 0.42448 0.0
C1296 C 0.51157 0.08872 0.4562 0.0
C1297 C 0.51031 0.08304 0.49991 0.0
C1298 C 0.50862 0.0625 0.51155 0.0
H1299 H 0.45944 0.01012 0.45904 0.0
H1300 H 0.46832 0.03574 0.46821 0.0
H1301 H 0.47649 0.02191 0.42125 0.0
H1302 H 0.5086 0.04147 0.41103 0.0
H1303 H 0.51161 0.07718 0.39053 0.0
H1304 H 0.57944 0.49826 0.61264 0.0
H1305 H 0.54359 0.50094 0.59264 0.0
H1306 H 0.56028 0.5025 0.45807 0.0
H1307 H 0.59629 0.49955 0.47781 0.0
H1308 H 0.5218 0.52975 0.5459 0.0
H1309 H 0.52032 0.45481 0.46341 0.0
H1310 H 0.5411 0.46266 0.49765 0.0
H1311 H 0.53923 0.47212 0.44339 0.0
C1312 C 0.57556 0.49937 0.57875 0.0
C1313 C 0.59079 0.49856 0.54681 0.0
C1314 C 0.55501 0.50087 0.56738 0.0
C1315 C 0.54917 0.50149 0.52383 0.0
C1316 C 0.56437 0.50158 0.49187 0.0
H1317 H 0.43268 0.50544 0.39235 0.0
H1318 H 0.46854 0.50304 0.41238 0.0
C1319 C 0.58498 0.50009 0.50323 0.0
C1320 C 0.52718 0.50167 0.51215 0.0
H1321 H 0.49038 0.47467 0.45911 0.0
C1322 C 0.51491 0.51768 0.52702 0.0
C1323 C 0.51816 0.48588 0.48762 0.0
C1324 C 0.5303 0.46778 0.47236 0.0
C1325 C 0.49401 0.51856 0.51735 0.0
C1326 C 0.48499 0.50275 0.49285 0.0
C1327 C 0.49726 0.48674 0.47798 0.0
C1328 C 0.46299 0.50289 0.4812 0.0
C1329 C 0.4819 0.53667 0.53254 0.0
C1330 C 0.44779 0.50294 0.51318 0.0
C1331 C 0.42718 0.50428 0.50181 0.0
C1332 C 0.42135 0.5055 0.45819 0.0
C1333 C 0.43658 0.50456 0.42626 0.0
C1334 C 0.45714 0.50322 0.43765 0.0
H1335 H 0.49189 0.54968 0.54122 0.0
H1336 H 0.47102 0.54172 0.50734 0.0
H1337 H 0.47306 0.5324 0.56169 0.0
H1338 H 0.45189 0.50222 0.547 0.0
H1339 H 0.41587 0.50493 0.52722 0.0
H1340 H 1.00603 0.58051 0.62051 0.0
H1341 H 1.00319 0.54497 0.59868 0.0
H1342 H 1.00108 0.5631 0.46506 0.0
H1343 H 1.00436 0.59881 0.48663 0.0
H1344 H 0.97462 0.52359 0.55342 0.0
H1345 H 0.04814 0.52312 0.46516 0.0
H1346 H 0.04067 0.54375 0.50013 0.0
H1347 H 0.03047 0.54193 0.44641 0.0
C1348 C 1.00479 0.57701 0.58644 0.0
C1349 C 1.00557 0.59256 0.5553 0.0
C1350 C 1.00319 0.55663 0.57402 0.0
C1351 C 1.00238 0.55127 0.53019 0.0
C1352 C 1.00221 0.5668 0.49904 0.0
H1353 H 0.99499 0.43605 0.39455 0.0
H1354 H 0.99723 0.47176 0.41568 0.0
C1355 C 1.00388 0.58724 0.51144 0.0
C1356 C 1.00203 0.52943 0.51741 0.0
H1357 H 0.02806 0.49329 0.46033 0.0
C1358 C 0.98634 0.51696 0.53316 0.0
C1359 C 0.01738 0.52072 0.49114 0.0
C1360 C 0.03524 0.53299 0.47502 0.0
C1361 C 0.98538 0.49617 0.52278 0.0
C1362 C 1.00069 0.48749 0.49641 0.0
C1363 C 0.01636 0.49994 0.4806 0.0
C1364 C 1.00039 0.46565 0.48392 0.0
C1365 C 0.96774 0.48373 0.53934 0.0
C1366 C 1.00196 0.45025 0.51514 0.0
C1367 C 1.00078 0.42972 0.50313 0.0
C1368 C 0.998 0.42422 0.45963 0.0
C1369 C 0.99708 0.4397 0.42836 0.0
C1370 C 0.99835 0.46017 0.44036 0.0
H1371 H 0.95501 0.49348 0.55069 0.0
H1372 H 0.96194 0.47334 0.51388 0.0
H1373 H 0.97291 0.47433 0.56694 0.0
H1374 H 1.00393 0.45411 0.54888 0.0
H1375 H 1.00156 0.4182 0.52802 0.0
loop_
_geom_bond_atom_site_label_1
_geom_bond_atom_site_label_2
_geom_bond_distance
_geom_bond_site_symmetry_2
_ccdc_geom_bond_type
O0 Cd1 2.223 . S
O0 C8 1.315 . S
Cd1 O0 2.223 . S
Cd1 O4 2.297 . S
Cd1 O5 2.439 1_554 S
Cd1 O11 2.240 . S
Cd2 O3 2.240 . S
Cd2 O10 2.223 . S
Cd2 O12 2.297 . S
Cd2 O13 2.439 . S
O3 Cd2 2.240 . S
O3 C8 1.279 . S
O4 Cd1 2.297 . S
O4 C6 1.247 1_554 S
O5 Cd1 2.439 1_556 S
O5 C6 1.208 . S
C6 O4 1.247 1_556 S
C6 O5 1.208 . S
C7 O12 1.247 . S
C7 O13 1.208 . S
C8 O0 1.315 . S
C8 O3 1.279 . S
C9 O10 1.315 . S
C9 O11 1.279 . S
O10 Cd2 2.223 . S
O10 C9 1.315 . S
O11 Cd1 2.240 . S
O11 C9 1.279 . S
O12 Cd2 2.297 . S
O12 C7 1.247 . S
O13 Cd2 2.439 . S
O13 C7 1.208 . S
O14 Cd15 2.223 . S
O14 C22 1.315 . S
Cd15 O14 2.223 . S
Cd15 O18 2.297 . S
Cd15 O19 2.439 1_554 S
Cd15 O25 2.240 . S
Cd16 O17 2.240 . S
Cd16 O24 2.223 . S
Cd16 O26 2.297 . S
Cd16 O27 2.439 . S
O17 Cd16 2.240 . S
O17 C22 1.279 . S
O18 Cd15 2.297 . S
O18 C20 1.247 1_554 S
O19 Cd15 2.439 1_556 S
O19 C20 1.208 . S
C20 O18 1.247 1_556 S
C20 O19 1.208 . S
C21 O26 1.247 . S
C21 O27 1.208 . S
C22 O14 1.315 . S
C22 O17 1.279 . S
C23 O24 1.315 . S
C23 O25 1.279 . S
O24 Cd16 2.223 . S
O24 C23 1.315 . S
O25 Cd15 2.240 . S
O25 C23 1.279 . S
O26 Cd16 2.297 . S
O26 C21 1.247 . S
O27 Cd16 2.439 . S
O27 C21 1.208 . S
O28 Cd29 2.223 . S
O28 C36 1.315 . S
Cd29 O28 2.223 . S
Cd29 O32 2.297 . S
Cd29 O33 2.439 1_554 S
Cd29 O39 2.240 . S
Cd30 O31 2.240 . S
Cd30 O38 2.223 . S
Cd30 O40 2.297 . S
Cd30 O41 2.439 . S
O31 Cd30 2.240 . S
O31 C36 1.279 . S
O32 Cd29 2.297 . S
O32 C34 1.247 1_554 S
O33 Cd29 2.439 1_556 S
O33 C34 1.208 . S
C34 O32 1.247 1_556 S
C34 O33 1.208 . S
C35 O40 1.247 . S
C35 O41 1.208 . S
C36 O28 1.315 . S
C36 O31 1.279 . S
C37 O38 1.315 . S
C37 O39 1.279 . S
O38 Cd30 2.223 . S
O38 C37 1.315 . S
O39 Cd29 2.240 . S
O39 C37 1.279 . S
O40 Cd30 2.297 . S
O40 C35 1.247 . S
O41 Cd30 2.439 . S
O41 C35 1.208 . S
O42 Cd43 2.223 . S
O42 C50 1.315 . S
Cd43 O42 2.223 . S
Cd43 O46 2.297 . S
Cd43 O47 2.439 1_554 S
Cd43 O53 2.240 . S
Cd44 O45 2.240 . S
Cd44 O52 2.223 . S
Cd44 O54 2.297 . S
Cd44 O55 2.439 . S
O45 Cd44 2.240 . S
O45 C50 1.279 . S
O46 Cd43 2.297 . S
O46 C48 1.247 1_554 S
O47 Cd43 2.439 1_556 S
O47 C48 1.208 . S
C48 O46 1.247 1_556 S
C48 O47 1.208 . S
C49 O54 1.247 . S
C49 O55 1.208 . S
C50 O42 1.315 . S
C50 O45 1.279 . S
C51 O52 1.315 . S
C51 O53 1.279 . S
O52 Cd44 2.223 . S
O52 C51 1.315 . S
O53 Cd43 2.240 . S
O53 C51 1.279 . S
O54 Cd44 2.297 . S
O54 C49 1.247 . S
O55 Cd44 2.439 . S
O55 C49 1.208 . S
O56 Cd57 2.223 . S
O56 C64 1.315 . S
Cd57 O56 2.223 . S
Cd57 O60 2.297 . S
Cd57 O61 2.439 . S
Cd57 O67 2.240 . S
Cd58 O59 2.240 . S
Cd58 O66 2.223 . S
Cd58 O68 2.297 . S
Cd58 O69 2.439 . S
O59 Cd58 2.240 . S
O59 C64 1.279 . S
O60 Cd57 2.297 . S
O60 C62 1.247 . S
O61 Cd57 2.439 . S
O61 C62 1.208 . S
C62 O60 1.247 . S
C62 O61 1.208 . S
C63 O68 1.247 . S
C63 O69 1.208 . S
C64 O56 1.315 . S
C64 O59 1.279 . S
C65 O66 1.315 . S
C65 O67 1.279 . S
O66 Cd58 2.223 . S
O66 C65 1.315 . S
O67 Cd57 2.240 . S
O67 C65 1.279 . S
O68 Cd58 2.297 . S
O68 C63 1.247 . S
O69 Cd58 2.439 . S
O69 C63 1.208 . S
O70 Cd71 2.223 . S
O70 C78 1.315 . S
Cd71 O70 2.223 . S
Cd71 O74 2.297 . S
Cd71 O75 2.439 . S
Cd71 O81 2.240 . S
Cd72 O73 2.240 . S
Cd72 O80 2.223 . S
Cd72 O82 2.297 . S
Cd72 O83 2.439 . S
O73 Cd72 2.240 . S
O73 C78 1.279 . S
O74 Cd71 2.297 . S
O74 C76 1.247 . S
O75 Cd71 2.439 . S
O75 C76 1.208 . S
C76 O74 1.247 . S
C76 O75 1.208 . S
C77 O82 1.247 . S
C77 O83 1.208 . S
C78 O70 1.315 . S
C78 O73 1.279 . S
C79 O80 1.315 . S
C79 O81 1.279 . S
O80 Cd72 2.223 . S
O80 C79 1.315 . S
O81 Cd71 2.240 . S
O81 C79 1.279 . S
O82 Cd72 2.297 . S
O82 C77 1.247 . S
O83 Cd72 2.439 . S
O83 C77 1.208 . S
O84 Cd85 2.223 . S
O84 C92 1.315 . S
Cd85 O84 2.223 . S
Cd85 O88 2.297 . S
Cd85 O89 2.439 . S
Cd85 O95 2.240 . S
Cd86 O87 2.240 . S
Cd86 O94 2.223 . S
Cd86 O96 2.297 . S
Cd86 O97 2.439 . S
O87 Cd86 2.240 . S
O87 C92 1.279 . S
O88 Cd85 2.297 . S
O88 C90 1.247 . S
O89 Cd85 2.439 . S
O89 C90 1.208 . S
C90 O88 1.247 . S
C90 O89 1.208 . S
C91 O96 1.247 . S
C91 O97 1.208 . S
C92 O84 1.315 . S
C92 O87 1.279 . S
C93 O94 1.315 . S
C93 O95 1.279 . S
O94 Cd86 2.223 . S
O94 C93 1.315 . S
O95 Cd85 2.240 . S
O95 C93 1.279 . S
O96 Cd86 2.297 . S
O96 C91 1.247 . S
O97 Cd86 2.439 . S
O97 C91 1.208 . S
O98 Cd99 2.223 . S
O98 C106 1.315 . S
Cd99 O98 2.223 . S
Cd99 O102 2.297 . S
Cd99 O103 2.439 . S
Cd99 O109 2.240 . S
Cd100 O101 2.240 . S
Cd100 O108 2.223 . S
Cd100 O110 2.297 . S
Cd100 O111 2.439 . S
O101 Cd100 2.240 . S
O101 C106 1.279 . S
O102 Cd99 2.297 . S
O102 C104 1.247 . S
O103 Cd99 2.439 . S
O103 C104 1.208 . S
C104 O102 1.247 . S
C104 O103 1.208 . S
C105 O110 1.247 . S
C105 O111 1.208 . S
C106 O98 1.315 . S
C106 O101 1.279 . S
C107 O108 1.315 . S
C107 O109 1.279 . S
O108 Cd100 2.223 . S
O108 C107 1.315 . S
O109 Cd99 2.240 . S
O109 C107 1.279 . S
O110 Cd100 2.297 . S
O110 C105 1.247 . S
O111 Cd100 2.439 . S
O111 C105 1.208 . S
O112 Cd113 2.223 . S
O112 C120 1.315 . S
Cd113 O112 2.223 . S
Cd113 O116 2.297 . S
Cd113 O117 2.439 1_556 S
Cd113 O123 2.240 . S
Cd114 O115 2.240 . S
Cd114 O122 2.223 . S
Cd114 O124 2.297 . S
Cd114 O125 2.439 . S
O115 Cd114 2.240 . S
O115 C120 1.279 . S
O116 Cd113 2.297 . S
O116 C118 1.247 1_556 S
O117 Cd113 2.439 1_554 S
O117 C118 1.208 . S
C118 O116 1.247 1_554 S
C118 O117 1.208 . S
C119 O124 1.247 . S
C119 O125 1.208 . S
C120 O112 1.315 . S
C120 O115 1.279 . S
C121 O122 1.315 . S
C121 O123 1.279 . S
O122 Cd114 2.223 . S
O122 C121 1.315 . S
O123 Cd113 2.240 . S
O123 C121 1.279 . S
O124 Cd114 2.297 . S
O124 C119 1.247 . S
O125 Cd114 2.439 . S
O125 C119 1.208 . S
O126 Cd127 2.223 . S
O126 C134 1.315 . S
Cd127 O126 2.223 . S
Cd127 O130 2.297 . S
Cd127 O131 2.439 1_556 S
Cd127 O137 2.240 . S
Cd128 O129 2.240 . S
Cd128 O136 2.223 . S
Cd128 O138 2.297 . S
Cd128 O139 2.439 . S
O129 Cd128 2.240 . S
O129 C134 1.279 . S
O130 Cd127 2.297 . S
O130 C132 1.247 1_556 S
O131 Cd127 2.439 1_554 S
O131 C132 1.208 . S
C132 O130 1.247 1_554 S
C132 O131 1.208 . S
C133 O138 1.247 . S
C133 O139 1.208 . S
C134 O126 1.315 . S
C134 O129 1.279 . S
C135 O136 1.315 . S
C135 O137 1.279 . S
O136 Cd128 2.223 . S
O136 C135 1.315 . S
O137 Cd127 2.240 . S
O137 C135 1.279 . S
O138 Cd128 2.297 . S
O138 C133 1.247 . S
O139 Cd128 2.439 . S
O139 C133 1.208 . S
O140 Cd141 2.223 . S
O140 C148 1.315 . S
Cd141 O140 2.223 . S
Cd141 O144 2.297 . S
Cd141 O145 2.439 1_556 S
Cd141 O151 2.240 . S
Cd142 O143 2.240 . S
Cd142 O150 2.223 . S
Cd142 O152 2.297 . S
Cd142 O153 2.439 . S
O143 Cd142 2.240 . S
O143 C148 1.279 . S
O144 Cd141 2.297 . S
O144 C146 1.247 1_556 S
O145 Cd141 2.439 1_554 S
O145 C146 1.208 . S
C146 O144 1.247 1_554 S
C146 O145 1.208 . S
C147 O152 1.247 . S
C147 O153 1.208 . S
C148 O140 1.315 . S
C148 O143 1.279 . S
C149 O150 1.315 . S
C149 O151 1.279 . S
O150 Cd142 2.223 . S
O150 C149 1.315 . S
O151 Cd141 2.240 . S
O151 C149 1.279 . S
O152 Cd142 2.297 . S
O152 C147 1.247 . S
O153 Cd142 2.439 . S
O153 C147 1.208 . S
O154 Cd155 2.223 . S
O154 C162 1.315 . S
Cd155 O154 2.223 . S
Cd155 O158 2.297 . S
Cd155 O159 2.439 1_556 S
Cd155 O165 2.240 . S
Cd156 O157 2.240 . S
Cd156 O164 2.223 . S
Cd156 O166 2.297 . S
Cd156 O167 2.439 . S
O157 Cd156 2.240 . S
O157 C162 1.279 . S
O158 Cd155 2.297 . S
O158 C160 1.247 1_556 S
O159 Cd155 2.439 1_554 S
O159 C160 1.208 . S
C160 O158 1.247 1_554 S
C160 O159 1.208 . S
C161 O166 1.247 . S
C161 O167 1.208 . S
C162 O154 1.315 . S
C162 O157 1.279 . S
C163 O164 1.315 . S
C163 O165 1.279 . S
O164 Cd156 2.223 . S
O164 C163 1.315 . S
O165 Cd155 2.240 . S
O165 C163 1.279 . S
O166 Cd156 2.297 . S
O166 C161 1.247 . S
O167 Cd156 2.439 . S
O167 C161 1.208 . S
O168 Cd169 2.223 . S
O168 C176 1.315 . S
Cd169 O168 2.223 . S
Cd169 O172 2.297 . S
Cd169 O173 2.439 . S
Cd169 O179 2.240 . S
Cd170 O171 2.240 . S
Cd170 O178 2.223 . S
Cd170 O180 2.297 . S
Cd170 O181 2.439 . S
O171 Cd170 2.240 . S
O171 C176 1.279 . S
O172 Cd169 2.297 . S
O172 C174 1.247 . S
O173 Cd169 2.439 . S
O173 C174 1.208 . S
C174 O172 1.247 . S
C174 O173 1.208 . S
C175 O180 1.247 . S
C175 O181 1.208 . S
C176 O168 1.315 . S
C176 O171 1.279 . S
C177 O178 1.315 . S
C177 O179 1.279 . S
O178 Cd170 2.223 . S
O178 C177 1.315 . S
O179 Cd169 2.240 . S
O179 C177 1.279 . S
O180 Cd170 2.297 . S
O180 C175 1.247 . S
O181 Cd170 2.439 . S
O181 C175 1.208 . S
O182 Cd183 2.223 . S
O182 C190 1.315 . S
Cd183 O182 2.223 . S
Cd183 O186 2.297 . S
Cd183 O187 2.439 . S
Cd183 O193 2.240 . S
Cd184 O185 2.240 . S
Cd184 O192 2.223 . S
Cd184 O194 2.297 . S
Cd184 O195 2.439 . S
O185 Cd184 2.240 . S
O185 C190 1.279 . S
O186 Cd183 2.297 . S
O186 C188 1.247 . S
O187 Cd183 2.439 . S
O187 C188 1.208 . S
C188 O186 1.247 . S
C188 O187 1.208 . S
C189 O194 1.247 . S
C189 O195 1.208 . S
C190 O182 1.315 . S
C190 O185 1.279 . S
C191 O192 1.315 . S
C191 O193 1.279 . S
O192 Cd184 2.223 . S
O192 C191 1.315 . S
O193 Cd183 2.240 . S
O193 C191 1.279 . S
O194 Cd184 2.297 . S
O194 C189 1.247 . S
O195 Cd184 2.439 . S
O195 C189 1.208 . S
O196 Cd197 2.223 . S
O196 C204 1.315 . S
Cd197 O196 2.223 . S
Cd197 O200 2.297 . S
Cd197 O201 2.439 . S
Cd197 O207 2.240 . S
Cd198 O199 2.240 . S
Cd198 O206 2.223 . S
Cd198 O208 2.297 . S
Cd198 O209 2.439 . S
O199 Cd198 2.240 . S
O199 C204 1.279 . S
O200 Cd197 2.297 . S
O200 C202 1.247 . S
O201 Cd197 2.439 . S
O201 C202 1.208 . S
C202 O200 1.247 . S
C202 O201 1.208 . S
C203 O208 1.247 . S
C203 O209 1.208 . S
C204 O196 1.315 . S
C204 O199 1.279 . S
C205 O206 1.315 . S
C205 O207 1.279 . S
O206 Cd198 2.223 . S
O206 C205 1.315 . S
O207 Cd197 2.240 . S
O207 C205 1.279 . S
O208 Cd198 2.297 . S
O208 C203 1.247 . S
O209 Cd198 2.439 . S
O209 C203 1.208 . S
O210 Cd211 2.223 . S
O210 C218 1.315 . S
Cd211 O210 2.223 . S
Cd211 O214 2.297 . S
Cd211 O215 2.439 . S
Cd211 O221 2.240 . S
Cd212 O213 2.240 . S
Cd212 O220 2.223 . S
Cd212 O222 2.297 . S
Cd212 O223 2.439 . S
O213 Cd212 2.240 . S
O213 C218 1.279 . S
O214 Cd211 2.297 . S
O214 C216 1.247 . S
O215 Cd211 2.439 . S
O215 C216 1.208 . S
C216 O214 1.247 . S
C216 O215 1.208 . S
C217 O222 1.247 . S
C217 O223 1.208 . S
C218 O210 1.315 . S
C218 O213 1.279 . S
C219 O220 1.315 . S
C219 O221 1.279 . S
O220 Cd212 2.223 . S
O220 C219 1.315 . S
O221 Cd211 2.240 . S
O221 C219 1.279 . S
O222 Cd212 2.297 . S
O222 C217 1.247 . S
O223 Cd212 2.439 . S
O223 C217 1.208 . S
H224 C232 0.929 . S
H225 C234 0.930 . S
H226 C236 0.930 . S
H227 C239 0.929 . S
H228 C242 0.930 . S
H229 C244 0.960 . S
H230 C244 0.960 . S
H231 C244 0.960 . S
C232 H224 0.929 . S
C232 C233 1.377 . S
C232 C234 1.384 . S
C233 C232 1.377 . S
C233 C239 1.390 . S
C234 H225 0.930 . S
C234 C232 1.384 . S
C234 C235 1.372 . S
C235 C234 1.372 . S
C235 C236 1.400 . S
C235 C240 1.490 . S
C236 H226 0.930 . S
C236 C235 1.400 . S
C236 C239 1.386 . S
H237 C253 0.930 . S
H238 C254 0.931 . S
C239 H227 0.929 . S
C239 C233 1.390 . S
C239 C236 1.386 . S
C240 C235 1.490 . S
C240 C242 1.395 . S
C240 C243 1.403 . S
H241 C247 0.930 . S
C242 H228 0.930 . S
C242 C240 1.395 . S
C242 C245 1.403 . S
C243 C240 1.403 . S
C243 C244 1.524 . S
C243 C247 1.400 . S
C244 H229 0.960 . S
C244 H230 0.960 . S
C244 H231 0.960 . S
C244 C243 1.524 . S
C245 C242 1.403 . S
C245 C246 1.392 . S
C245 C249 1.495 . S
C246 C245 1.392 . S
C246 C247 1.385 . S
C246 C248 1.478 . S
C247 H241 0.930 . S
C247 C243 1.400 . S
C247 C246 1.385 . S
C248 C246 1.478 . S
C248 C250 1.381 . S
C248 C254 1.383 . S
C249 C245 1.495 . S
C249 H255 0.959 . S
C249 H256 0.961 . S
C249 H257 0.960 . S
C250 C248 1.381 . S
C250 C251 1.394 . S
C250 H258 0.930 . S
C251 C250 1.394 . S
C251 C252 1.383 . S
C251 H259 0.929 . S
C252 C251 1.383 . S
C252 C253 1.377 . S
C253 H237 0.930 . S
C253 C252 1.377 . S
C253 C254 1.379 . S
C254 H238 0.931 . S
C254 C248 1.383 . S
C254 C253 1.379 . S
H255 C249 0.959 . S
H256 C249 0.961 . S
H257 C249 0.960 . S
H258 C250 0.930 . S
H259 C251 0.929 . S
H260 C268 0.929 . S
H261 C270 0.930 . S
H262 C272 0.930 . S
H263 C275 0.929 . S
H264 C278 0.930 . S
H265 C280 0.960 . S
H266 C280 0.960 . S
H267 C280 0.960 . S
C268 H260 0.929 . S
C268 C269 1.377 . S
C268 C270 1.384 . S
C269 C268 1.377 . S
C269 C275 1.390 . S
C270 H261 0.930 . S
C270 C268 1.384 . S
C270 C271 1.372 . S
C271 C270 1.372 . S
C271 C272 1.400 . S
C271 C276 1.490 . S
C272 H262 0.930 . S
C272 C271 1.400 . S
C272 C275 1.386 . S
H273 C289 0.930 . S
H274 C290 0.931 . S
C275 H263 0.929 . S
C275 C269 1.390 . S
C275 C272 1.386 . S
C276 C271 1.490 . S
C276 C278 1.395 . S
C276 C279 1.403 . S
H277 C283 0.930 . S
C278 H264 0.930 . S
C278 C276 1.395 . S
C278 C281 1.403 . S
C279 C276 1.403 . S
C279 C280 1.524 . S
C279 C283 1.400 . S
C280 H265 0.960 . S
C280 H266 0.960 . S
C280 H267 0.960 . S
C280 C279 1.524 . S
C281 C278 1.403 . S
C281 C282 1.392 . S
C281 C285 1.495 . S
C282 C281 1.392 . S
C282 C283 1.385 . S
C282 C284 1.478 . S
C283 H277 0.930 . S
C283 C279 1.400 . S
C283 C282 1.385 . S
C284 C282 1.478 . S
C284 C286 1.381 . S
C284 C290 1.383 . S
C285 C281 1.495 . S
C285 H291 0.959 . S
C285 H292 0.961 . S
C285 H293 0.960 . S
C286 C284 1.381 . S
C286 C287 1.394 . S
C286 H294 0.930 . S
C287 C286 1.394 . S
C287 C288 1.383 . S
C287 H295 0.929 . S
C288 C287 1.383 . S
C288 C289 1.377 . S
C289 H273 0.930 . S
C289 C288 1.377 . S
C289 C290 1.379 . S
C290 H274 0.931 . S
C290 C284 1.383 . S
C290 C289 1.379 . S
H291 C285 0.959 . S
H292 C285 0.961 . S
H293 C285 0.960 . S
H294 C286 0.930 . S
H295 C287 0.929 . S
H296 C304 0.929 . S
H297 C306 0.930 . S
H298 C308 0.930 . S
H299 C311 0.929 . S
H300 C314 0.930 . S
H301 C316 0.960 . S
H302 C316 0.960 . S
H303 C316 0.960 . S
C304 H296 0.929 . S
C304 C305 1.377 . S
C304 C306 1.384 . S
C305 C304 1.377 . S
C305 C311 1.390 . S
C306 H297 0.930 . S
C306 C304 1.384 . S
C306 C307 1.372 . S
C307 C306 1.372 . S
C307 C308 1.400 . S
C307 C312 1.490 . S
C308 H298 0.930 . S
C308 C307 1.400 . S
C308 C311 1.386 . S
H309 C325 0.930 . S
H310 C326 0.931 . S
C311 H299 0.929 . S
C311 C305 1.390 . S
C311 C308 1.386 . S
C312 C307 1.490 . S
C312 C314 1.395 . S
C312 C315 1.403 . S
H313 C319 0.930 . S
C314 H300 0.930 . S
C314 C312 1.395 . S
C314 C317 1.403 . S
C315 C312 1.403 . S
C315 C316 1.524 . S
C315 C319 1.400 . S
C316 H301 0.960 . S
C316 H302 0.960 . S
C316 H303 0.960 . S
C316 C315 1.524 . S
C317 C314 1.403 . S
C317 C318 1.392 . S
C317 C321 1.495 . S
C318 C317 1.392 . S
C318 C319 1.385 . S
C318 C320 1.478 . S
C319 H313 0.930 . S
C319 C315 1.400 . S
C319 C318 1.385 . S
C320 C318 1.478 . S
C320 C322 1.381 . S
C320 C326 1.383 . S
C321 C317 1.495 . S
C321 H327 0.959 . S
C321 H328 0.961 . S
C321 H329 0.960 . S
C322 C320 1.381 . S
C322 C323 1.394 . S
C322 H330 0.930 . S
C323 C322 1.394 . S
C323 C324 1.383 . S
C323 H331 0.929 . S
C324 C323 1.383 . S
C324 C325 1.377 . S
C325 H309 0.930 . S
C325 C324 1.377 . S
C325 C326 1.379 . S
C326 H310 0.931 . S
C326 C320 1.383 . S
C326 C325 1.379 . S
H327 C321 0.959 . S
H328 C321 0.961 . S
H329 C321 0.960 . S
H330 C322 0.930 . S
H331 C323 0.929 . S
H332 C340 0.929 . S
H333 C342 0.930 . S
H334 C344 0.930 . S
H335 C347 0.929 . S
H336 C350 0.930 . S
H337 C352 0.960 . S
H338 C352 0.960 . S
H339 C352 0.960 . S
C340 H332 0.929 . S
C340 C341 1.377 . S
C340 C342 1.384 . S
C341 C340 1.377 . S
C341 C347 1.390 . S
C342 H333 0.930 . S
C342 C340 1.384 . S
C342 C343 1.372 . S
C343 C342 1.372 . S
C343 C344 1.400 . S
C343 C348 1.490 . S
C344 H334 0.930 . S
C344 C343 1.400 . S
C344 C347 1.386 . S
H345 C361 0.930 . S
H346 C362 0.931 . S
C347 H335 0.929 . S
C347 C341 1.390 . S
C347 C344 1.386 . S
C348 C343 1.490 . S
C348 C350 1.395 . S
C348 C351 1.403 . S
H349 C355 0.930 . S
C350 H336 0.930 . S
C350 C348 1.395 . S
C350 C353 1.403 . S
C351 C348 1.403 . S
C351 C352 1.524 . S
C351 C355 1.400 . S
C352 H337 0.960 . S
C352 H338 0.960 . S
C352 H339 0.960 . S
C352 C351 1.524 . S
C353 C350 1.403 . S
C353 C354 1.392 . S
C353 C357 1.495 . S
C354 C353 1.392 . S
C354 C355 1.385 . S
C354 C356 1.478 . S
C355 H349 0.930 . S
C355 C351 1.400 . S
C355 C354 1.385 . S
C356 C354 1.478 . S
C356 C358 1.381 . S
C356 C362 1.383 . S
C357 C353 1.495 . S
C357 H363 0.959 . S
C357 H364 0.961 . S
C357 H365 0.960 . S
C358 C356 1.381 . S
C358 C359 1.394 . S
C358 H366 0.930 . S
C359 C358 1.394 . S
C359 C360 1.383 . S
C359 H367 0.929 . S
C360 C359 1.383 . S
C360 C361 1.377 . S
C361 H345 0.930 . S
C361 C360 1.377 . S
C361 C362 1.379 . S
C362 H346 0.931 . S
C362 C356 1.383 . S
C362 C361 1.379 . S
H363 C357 0.959 . S
H364 C357 0.961 . S
H365 C357 0.960 . S
H366 C358 0.930 . S
H367 C359 0.929 . S
H368 C376 0.929 . S
H369 C378 0.930 . S
H370 C380 0.930 . S
H371 C383 0.929 . S
H372 C386 0.930 . S
H373 C388 0.960 . S
H374 C388 0.960 . S
H375 C388 0.960 . S
C376 H368 0.929 . S
C376 C377 1.377 . S
C376 C378 1.384 . S
C377 C376 1.377 . S
C377 C383 1.390 . S
C378 H369 0.930 . S
C378 C376 1.384 . S
C378 C379 1.372 . S
C379 C378 1.372 . S
C379 C380 1.400 . S
C379 C384 1.490 . S
C380 H370 0.930 . S
C380 C379 1.400 . S
C380 C383 1.386 . S
H381 C397 0.930 . S
H382 C398 0.931 . S
C383 H371 0.929 . S
C383 C377 1.390 . S
C383 C380 1.386 . S
C384 C379 1.490 . S
C384 C386 1.395 . S
C384 C387 1.403 . S
H385 C391 0.930 . S
C386 H372 0.930 . S
C386 C384 1.395 . S
C386 C389 1.403 . S
C387 C384 1.403 . S
C387 C388 1.524 . S
C387 C391 1.400 . S
C388 H373 0.960 . S
C388 H374 0.960 . S
C388 H375 0.960 . S
C388 C387 1.524 . S
C389 C386 1.403 . S
C389 C390 1.392 . S
C389 C393 1.495 . S
C390 C389 1.392 . S
C390 C391 1.385 . S
C390 C392 1.478 . S
C391 H385 0.930 . S
C391 C387 1.400 . S
C391 C390 1.385 . S
C392 C390 1.478 . S
C392 C394 1.381 . S
C392 C398 1.383 . S
C393 C389 1.495 . S
C393 H399 0.959 . S
C393 H400 0.961 . S
C393 H401 0.960 . S
C394 C392 1.381 . S
C394 C395 1.394 . S
C394 H402 0.930 . S
C395 C394 1.394 . S
C395 C396 1.383 . S
C395 H403 0.929 . S
C396 C395 1.383 . S
C396 C397 1.377 . S
C397 H381 0.930 . S
C397 C396 1.377 . S
C397 C398 1.379 . S
C398 H382 0.931 . S
C398 C392 1.383 . S
C398 C397 1.379 . S
H399 C393 0.959 . S
H400 C393 0.961 . S
H401 C393 0.960 . S
H402 C394 0.930 . S
H403 C395 0.929 . S
H404 C412 0.929 . S
H405 C414 0.930 . S
H406 C416 0.930 . S
H407 C419 0.929 . S
H408 C422 0.930 . S
H409 C424 0.960 . S
H410 C424 0.960 . S
H411 C424 0.960 . S
C412 H404 0.929 . S
C412 C413 1.377 . S
C412 C414 1.384 . S
C413 C412 1.377 . S
C413 C419 1.390 . S
C414 H405 0.930 . S
C414 C412 1.384 . S
C414 C415 1.372 . S
C415 C414 1.372 . S
C415 C416 1.400 . S
C415 C420 1.490 . S
C416 H406 0.930 . S
C416 C415 1.400 . S
C416 C419 1.386 . S
H417 C433 0.930 . S
H418 C434 0.931 . S
C419 H407 0.929 . S
C419 C413 1.390 . S
C419 C416 1.386 . S
C420 C415 1.490 . S
C420 C422 1.395 . S
C420 C423 1.403 . S
H421 C427 0.930 . S
C422 H408 0.930 . S
C422 C420 1.395 . S
C422 C425 1.403 . S
C423 C420 1.403 . S
C423 C424 1.524 . S
C423 C427 1.400 . S
C424 H409 0.960 . S
C424 H410 0.960 . S
C424 H411 0.960 . S
C424 C423 1.524 . S
C425 C422 1.403 . S
C425 C426 1.392 . S
C425 C429 1.495 . S
C426 C425 1.392 . S
C426 C427 1.385 . S
C426 C428 1.478 . S
C427 H421 0.930 . S
C427 C423 1.400 . S
C427 C426 1.385 . S
C428 C426 1.478 . S
C428 C430 1.381 . S
C428 C434 1.383 . S
C429 C425 1.495 . S
C429 H435 0.959 . S
C429 H436 0.961 . S
C429 H437 0.960 . S
C430 C428 1.381 . S
C430 C431 1.394 . S
C430 H438 0.930 . S
C431 C430 1.394 . S
C431 C432 1.383 . S
C431 H439 0.929 . S
C432 C431 1.383 . S
C432 C433 1.377 . S
C433 H417 0.930 . S
C433 C432 1.377 . S
C433 C434 1.379 . S
C434 H418 0.931 . S
C434 C428 1.383 . S
C434 C433 1.379 . S
H435 C429 0.959 . S
H436 C429 0.961 . S
H437 C429 0.960 . S
H438 C430 0.930 . S
H439 C431 0.929 . S
H440 C448 0.929 . S
H441 C450 0.930 . S
H442 C452 0.930 . S
H443 C455 0.929 . S
H444 C458 0.930 . S
H445 C460 0.960 . S
H446 C460 0.960 . S
H447 C460 0.960 . S
C448 H440 0.929 . S
C448 C449 1.377 . S
C448 C450 1.384 . S
C449 C448 1.377 . S
C449 C455 1.390 . S
C450 H441 0.930 . S
C450 C448 1.384 . S
C450 C451 1.372 . S
C451 C450 1.372 . S
C451 C452 1.400 . S
C451 C456 1.490 . S
C452 H442 0.930 . S
C452 C451 1.400 . S
C452 C455 1.386 . S
H453 C469 0.930 . S
H454 C470 0.931 . S
C455 H443 0.929 . S
C455 C449 1.390 . S
C455 C452 1.386 . S
C456 C451 1.490 . S
C456 C458 1.395 . S
C456 C459 1.403 . S
H457 C463 0.930 . S
C458 H444 0.930 . S
C458 C456 1.395 . S
C458 C461 1.403 . S
C459 C456 1.403 . S
C459 C460 1.524 . S
C459 C463 1.400 . S
C460 H445 0.960 . S
C460 H446 0.960 . S
C460 H447 0.960 . S
C460 C459 1.524 . S
C461 C458 1.403 . S
C461 C462 1.392 . S
C461 C465 1.495 . S
C462 C461 1.392 . S
C462 C463 1.385 . S
C462 C464 1.478 . S
C463 H457 0.930 . S
C463 C459 1.400 . S
C463 C462 1.385 . S
C464 C462 1.478 . S
C464 C466 1.381 . S
C464 C470 1.383 . S
C465 C461 1.495 . S
C465 H471 0.959 . S
C465 H472 0.961 . S
C465 H473 0.960 . S
C466 C464 1.381 . S
C466 C467 1.394 . S
C466 H474 0.930 . S
C467 C466 1.394 . S
C467 C468 1.383 . S
C467 H475 0.929 . S
C468 C467 1.383 . S
C468 C469 1.377 . S
C469 H453 0.930 . S
C469 C468 1.377 . S
C469 C470 1.379 . S
C470 H454 0.931 . S
C470 C464 1.383 . S
C470 C469 1.379 . S
H471 C465 0.959 . S
H472 C465 0.961 . S
H473 C465 0.960 . S
H474 C466 0.930 . S
H475 C467 0.929 . S
H476 C484 0.929 . S
H477 C486 0.930 . S
H478 C488 0.930 . S
H479 C491 0.929 . S
H480 C494 0.930 . S
H481 C496 0.960 . S
H482 C496 0.960 . S
H483 C496 0.960 . S
C484 H476 0.929 . S
C484 C485 1.377 . S
C484 C486 1.384 . S
C485 C484 1.377 . S
C485 C491 1.390 . S
C486 H477 0.930 . S
C486 C484 1.384 . S
C486 C487 1.372 . S
C487 C486 1.372 . S
C487 C488 1.400 . S
C487 C492 1.490 . S
C488 H478 0.930 . S
C488 C487 1.400 . S
C488 C491 1.386 . S
H489 C505 0.930 . S
H490 C506 0.931 . S
C491 H479 0.929 . S
C491 C485 1.390 . S
C491 C488 1.386 . S
C492 C487 1.490 . S
C492 C494 1.395 . S
C492 C495 1.403 . S
H493 C499 0.930 . S
C494 H480 0.930 . S
C494 C492 1.395 . S
C494 C497 1.403 . S
C495 C492 1.403 . S
C495 C496 1.524 . S
C495 C499 1.400 . S
C496 H481 0.960 . S
C496 H482 0.960 . S
C496 H483 0.960 . S
C496 C495 1.524 . S
C497 C494 1.403 . S
C497 C498 1.392 . S
C497 C501 1.495 . S
C498 C497 1.392 . S
C498 C499 1.385 . S
C498 C500 1.478 . S
C499 H493 0.930 . S
C499 C495 1.400 . S
C499 C498 1.385 . S
C500 C498 1.478 . S
C500 C502 1.381 . S
C500 C506 1.383 . S
C501 C497 1.495 . S
C501 H507 0.959 . S
C501 H508 0.961 . S
C501 H509 0.960 . S
C502 C500 1.381 . S
C502 C503 1.394 . S
C502 H510 0.930 . S
C503 C502 1.394 . S
C503 C504 1.383 . S
C503 H511 0.929 . S
C504 C503 1.383 . S
C504 C505 1.377 . S
C505 H489 0.930 . S
C505 C504 1.377 . S
C505 C506 1.379 . S
C506 H490 0.931 . S
C506 C500 1.383 . S
C506 C505 1.379 . S
H507 C501 0.959 . S
H508 C501 0.961 . S
H509 C501 0.960 . S
H510 C502 0.930 . S
H511 C503 0.929 . S
H512 C520 0.929 . S
H513 C522 0.930 . S
H514 C524 0.930 . S
H515 C527 0.929 . S
H516 C530 0.930 . S
H517 C532 0.960 . S
H518 C532 0.960 . S
H519 C532 0.960 . S
C520 H512 0.929 . S
C520 C521 1.377 . S
C520 C522 1.384 . S
C521 C520 1.377 . S
C521 C527 1.390 . S
C522 H513 0.930 . S
C522 C520 1.384 . S
C522 C523 1.372 . S
C523 C522 1.372 . S
C523 C524 1.400 . S
C523 C528 1.490 . S
C524 H514 0.930 . S
C524 C523 1.400 . S
C524 C527 1.386 . S
H525 C541 0.930 . S
H526 C542 0.931 . S
C527 H515 0.929 . S
C527 C521 1.390 . S
C527 C524 1.386 . S
C528 C523 1.490 . S
C528 C530 1.395 . S
C528 C531 1.403 . S
H529 C535 0.930 . S
C530 H516 0.930 . S
C530 C528 1.395 . S
C530 C533 1.403 . S
C531 C528 1.403 . S
C531 C532 1.524 . S
C531 C535 1.400 . S
C532 H517 0.960 . S
C532 H518 0.960 . S
C532 H519 0.960 . S
C532 C531 1.524 . S
C533 C530 1.403 . S
C533 C534 1.392 . S
C533 C537 1.495 . S
C534 C533 1.392 . S
C534 C535 1.385 . S
C534 C536 1.478 . S
C535 H529 0.930 . S
C535 C531 1.400 . S
C535 C534 1.385 . S
C536 C534 1.478 . S
C536 C538 1.381 . S
C536 C542 1.383 . S
C537 C533 1.495 . S
C537 H543 0.959 . S
C537 H544 0.961 . S
C537 H545 0.960 . S
C538 C536 1.381 . S
C538 C539 1.394 . S
C538 H546 0.930 1_545 S
C539 C538 1.394 . S
C539 C540 1.383 . S
C539 H547 0.929 1_545 S
C540 C539 1.383 . S
C540 C541 1.377 . S
C541 H525 0.930 . S
C541 C540 1.377 . S
C541 C542 1.379 . S
C542 H526 0.931 . S
C542 C536 1.383 . S
C542 C541 1.379 . S
H543 C537 0.959 . S
H544 C537 0.961 . S
H545 C537 0.960 . S
H546 C538 0.930 1_565 S
H547 C539 0.929 1_565 S
H548 C556 0.929 . S
H549 C558 0.930 . S
H550 C560 0.930 . S
H551 C563 0.929 . S
H552 C566 0.930 . S
H553 C568 0.960 . S
H554 C568 0.960 . S
H555 C568 0.960 . S
C556 H548 0.929 . S
C556 C557 1.377 . S
C556 C558 1.384 . S
C557 C556 1.377 . S
C557 C563 1.390 . S
C558 H549 0.930 . S
C558 C556 1.384 . S
C558 C559 1.372 . S
C559 C558 1.372 . S
C559 C560 1.400 . S
C559 C564 1.490 . S
C560 H550 0.930 . S
C560 C559 1.400 . S
C560 C563 1.386 . S
H561 C577 0.930 . S
H562 C578 0.931 . S
C563 H551 0.929 . S
C563 C557 1.390 . S
C563 C560 1.386 . S
C564 C559 1.490 . S
C564 C566 1.395 . S
C564 C567 1.403 . S
H565 C571 0.930 . S
C566 H552 0.930 . S
C566 C564 1.395 . S
C566 C569 1.403 . S
C567 C564 1.403 . S
C567 C568 1.524 . S
C567 C571 1.400 . S
C568 H553 0.960 . S
C568 H554 0.960 . S
C568 H555 0.960 . S
C568 C567 1.524 . S
C569 C566 1.403 . S
C569 C570 1.392 . S
C569 C573 1.495 . S
C570 C569 1.392 . S
C570 C571 1.385 . S
C570 C572 1.478 . S
C571 H565 0.930 . S
C571 C567 1.400 . S
C571 C570 1.385 . S
C572 C570 1.478 . S
C572 C574 1.381 . S
C572 C578 1.383 . S
C573 C569 1.495 . S
C573 H579 0.959 . S
C573 H580 0.961 . S
C573 H581 0.960 . S
C574 C572 1.381 . S
C574 C575 1.394 . S
C574 H582 0.930 . S
C575 C574 1.394 . S
C575 C576 1.383 . S
C575 H583 0.929 . S
C576 C575 1.383 . S
C576 C577 1.377 . S
C577 H561 0.930 . S
C577 C576 1.377 . S
C577 C578 1.379 . S
C578 H562 0.931 . S
C578 C572 1.383 . S
C578 C577 1.379 . S
H579 C573 0.959 . S
H580 C573 0.961 . S
H581 C573 0.960 . S
H582 C574 0.930 . S
H583 C575 0.929 . S
H584 C592 0.929 . S
H585 C594 0.930 . S
H586 C596 0.930 . S
H587 C599 0.929 . S
H588 C602 0.930 . S
H589 C604 0.960 . S
H590 C604 0.960 . S
H591 C604 0.960 . S
C592 H584 0.929 . S
C592 C593 1.377 . S
C592 C594 1.384 . S
C593 C592 1.377 . S
C593 C599 1.390 . S
C594 H585 0.930 . S
C594 C592 1.384 . S
C594 C595 1.372 . S
C595 C594 1.372 . S
C595 C596 1.400 . S
C595 C600 1.490 . S
C596 H586 0.930 . S
C596 C595 1.400 . S
C596 C599 1.386 . S
H597 C613 0.930 . S
H598 C614 0.931 . S
C599 H587 0.929 . S
C599 C593 1.390 . S
C599 C596 1.386 . S
C600 C595 1.490 . S
C600 C602 1.395 . S
C600 C603 1.403 . S
H601 C607 0.930 . S
C602 H588 0.930 . S
C602 C600 1.395 . S
C602 C605 1.403 . S
C603 C600 1.403 . S
C603 C604 1.524 . S
C603 C607 1.400 . S
C604 H589 0.960 . S
C604 H590 0.960 . S
C604 H591 0.960 . S
C604 C603 1.524 . S
C605 C602 1.403 . S
C605 C606 1.392 . S
C605 C609 1.495 . S
C606 C605 1.392 . S
C606 C607 1.385 . S
C606 C608 1.478 . S
C607 H601 0.930 . S
C607 C603 1.400 . S
C607 C606 1.385 . S
C608 C606 1.478 . S
C608 C610 1.381 . S
C608 C614 1.383 . S
C609 C605 1.495 . S
C609 H615 0.959 . S
C609 H616 0.961 . S
C609 H617 0.960 . S
C610 C608 1.381 . S
C610 C611 1.394 . S
C610 H618 0.930 . S
C611 C610 1.394 . S
C611 C612 1.383 . S
C611 H619 0.929 . S
C612 C611 1.383 . S
C612 C613 1.377 . S
C613 H597 0.930 . S
C613 C612 1.377 . S
C613 C614 1.379 . S
C614 H598 0.931 . S
C614 C608 1.383 . S
C614 C613 1.379 . S
H615 C609 0.959 . S
H616 C609 0.961 . S
H617 C609 0.960 . S
H618 C610 0.930 . S
H619 C611 0.929 . S
H620 C628 0.929 . S
H621 C630 0.930 . S
H622 C632 0.930 . S
H623 C635 0.929 . S
H624 C638 0.930 . S
H625 C640 0.960 . S
H626 C640 0.948 1_655 S
H627 C640 0.960 . S
C628 H620 0.929 . S
C628 C629 1.377 . S
C628 C630 1.384 . S
C629 C628 1.377 . S
C629 C635 1.390 . S
C630 H621 0.930 . S
C630 C628 1.384 . S
C630 C631 1.372 . S
C631 C630 1.372 . S
C631 C632 1.400 . S
C631 C636 1.490 . S
C632 H622 0.930 . S
C632 C631 1.400 . S
C632 C635 1.386 . S
H633 C649 0.930 . S
H634 C650 0.931 . S
C635 H623 0.929 . S
C635 C629 1.390 . S
C635 C632 1.386 . S
C636 C631 1.490 . S
C636 C638 1.395 . S
C636 C639 1.403 . S
H637 C643 0.930 . S
C638 H624 0.930 . S
C638 C636 1.395 . S
C638 C641 1.403 . S
C639 C636 1.403 . S
C639 C640 1.524 . S
C639 C643 1.400 . S
C640 H625 0.960 . S
C640 H626 0.948 1_455 S
C640 H627 0.960 . S
C640 C639 1.524 . S
C641 C638 1.403 . S
C641 C642 1.392 . S
C641 C645 1.495 . S
C642 C641 1.392 . S
C642 C643 1.385 . S
C642 C644 1.478 . S
C643 H637 0.930 . S
C643 C639 1.400 . S
C643 C642 1.385 . S
C644 C642 1.478 . S
C644 C646 1.381 . S
C644 C650 1.383 . S
C645 C641 1.495 . S
C645 H651 0.959 . S
C645 H652 0.961 . S
C645 H653 0.960 . S
C646 C644 1.381 . S
C646 C647 1.394 . S
C646 H654 0.930 . S
C647 C646 1.394 . S
C647 C648 1.383 . S
C647 H655 0.929 . S
C648 C647 1.383 . S
C648 C649 1.377 . S
C649 H633 0.930 . S
C649 C648 1.377 . S
C649 C650 1.379 . S
C650 H634 0.931 . S
C650 C644 1.383 . S
C650 C649 1.379 . S
H651 C645 0.959 . S
H652 C645 0.961 . S
H653 C645 0.960 . S
H654 C646 0.930 . S
H655 C647 0.929 . S
H656 C664 0.929 . S
H657 C666 0.930 . S
H658 C668 0.930 . S
H659 C671 0.929 . S
H660 C674 0.930 . S
H661 C676 0.982 . S
H662 C676 0.984 . S
H663 C676 0.944 1_565 S
C664 H656 0.929 . S
C664 C665 1.377 . S
C664 C666 1.384 . S
C665 C664 1.377 . S
C665 C671 1.390 . S
C666 H657 0.930 . S
C666 C664 1.384 . S
C666 C667 1.372 . S
C667 C666 1.372 . S
C667 C668 1.400 . S
C667 C672 1.490 . S
C668 H658 0.930 . S
C668 C667 1.400 . S
C668 C671 1.386 . S
H669 C685 0.930 . S
H670 C686 0.931 . S
C671 H659 0.929 . S
C671 C665 1.390 . S
C671 C668 1.386 . S
C672 C667 1.490 . S
C672 C674 1.395 . S
C672 C675 1.403 . S
H673 C679 0.930 . S
C674 H660 0.930 . S
C674 C672 1.395 . S
C674 C677 1.403 . S
C675 C672 1.403 . S
C675 C676 1.496 1_565 S
C675 C679 1.400 . S
C676 H661 0.982 . S
C676 H662 0.984 . S
C676 H663 0.944 1_545 S
C676 C675 1.496 1_545 S
C677 C674 1.403 . S
C677 C678 1.392 . S
C677 C681 1.495 . S
C678 C677 1.392 . S
C678 C679 1.385 . S
C678 C680 1.478 . S
C679 H673 0.930 . S
C679 C675 1.400 . S
C679 C678 1.385 . S
C680 C678 1.478 . S
C680 C682 1.381 . S
C680 C686 1.383 . S
C681 C677 1.495 . S
C681 H687 0.959 . S
C681 H688 0.961 . S
C681 H689 0.960 . S
C682 C680 1.381 . S
C682 C683 1.394 . S
C682 H690 0.930 . S
C683 C682 1.394 . S
C683 C684 1.383 . S
C683 H691 0.929 . S
C684 C683 1.383 . S
C684 C685 1.377 . S
C685 H669 0.930 . S
C685 C684 1.377 . S
C685 C686 1.379 . S
C686 H670 0.931 . S
C686 C680 1.383 . S
C686 C685 1.379 . S
H687 C681 0.959 . S
H688 C681 0.961 . S
H689 C681 0.960 . S
H690 C682 0.930 . S
H691 C683 0.929 . S
H692 C700 0.929 . S
H693 C702 0.930 . S
H694 C704 0.930 . S
H695 C707 0.929 . S
H696 C710 0.930 . S
H697 C712 0.960 . S
H698 C712 0.960 . S
H699 C712 0.960 . S
C700 H692 0.929 . S
C700 C701 1.377 . S
C700 C702 1.384 . S
C701 C700 1.377 . S
C701 C707 1.390 . S
C702 H693 0.930 . S
C702 C700 1.384 . S
C702 C703 1.372 . S
C703 C702 1.372 . S
C703 C704 1.400 . S
C703 C708 1.490 . S
C704 H694 0.930 . S
C704 C703 1.400 . S
C704 C707 1.386 . S
H705 C721 0.930 . S
H706 C722 0.931 . S
C707 H695 0.929 . S
C707 C701 1.390 . S
C707 C704 1.386 . S
C708 C703 1.490 . S
C708 C710 1.395 . S
C708 C711 1.403 . S
H709 C715 0.930 . S
C710 H696 0.930 . S
C710 C708 1.395 . S
C710 C713 1.403 . S
C711 C708 1.403 . S
C711 C712 1.524 . S
C711 C715 1.400 . S
C712 H697 0.960 . S
C712 H698 0.960 . S
C712 H699 0.960 . S
C712 C711 1.524 . S
C713 C710 1.403 . S
C713 C714 1.392 . S
C713 C717 1.495 . S
C714 C713 1.392 . S
C714 C715 1.385 . S
C714 C716 1.478 . S
C715 H709 0.930 . S
C715 C711 1.400 . S
C715 C714 1.385 . S
C716 C714 1.478 . S
C716 C718 1.381 . S
C716 C722 1.383 . S
C717 C713 1.495 . S
C717 H723 0.959 . S
C717 H724 0.961 . S
C717 H725 0.960 . S
C718 C716 1.381 . S
C718 C719 1.394 . S
C718 H726 0.930 . S
C719 C718 1.394 . S
C719 C720 1.383 . S
C719 H727 0.929 . S
C720 C719 1.383 . S
C720 C721 1.377 . S
C721 H705 0.930 . S
C721 C720 1.377 . S
C721 C722 1.379 . S
C722 H706 0.931 . S
C722 C716 1.383 . S
C722 C721 1.379 . S
H723 C717 0.959 . S
H724 C717 0.961 . S
H725 C717 0.960 . S
H726 C718 0.930 . S
H727 C719 0.929 . S
H728 C736 0.929 . S
H729 C738 0.930 . S
H730 C740 0.930 . S
H731 C743 0.929 . S
H732 C746 0.930 . S
H733 C748 0.960 . S
H734 C748 0.960 . S
H735 C748 0.960 . S
C736 H728 0.929 . S
C736 C737 1.377 . S
C736 C738 1.384 . S
C737 C736 1.377 . S
C737 C743 1.390 . S
C738 H729 0.930 . S
C738 C736 1.384 . S
C738 C739 1.372 . S
C739 C738 1.372 . S
C739 C740 1.400 . S
C739 C744 1.490 . S
C740 H730 0.930 . S
C740 C739 1.400 . S
C740 C743 1.386 . S
H741 C757 0.930 . S
H742 C758 0.931 . S
C743 H731 0.929 . S
C743 C737 1.390 . S
C743 C740 1.386 . S
C744 C739 1.490 . S
C744 C746 1.395 . S
C744 C747 1.403 . S
H745 C751 0.930 . S
C746 H732 0.930 . S
C746 C744 1.395 . S
C746 C749 1.403 . S
C747 C744 1.403 . S
C747 C748 1.524 . S
C747 C751 1.400 . S
C748 H733 0.960 . S
C748 H734 0.960 . S
C748 H735 0.960 . S
C748 C747 1.524 . S
C749 C746 1.403 . S
C749 C750 1.392 . S
C749 C753 1.495 . S
C750 C749 1.392 . S
C750 C751 1.385 . S
C750 C752 1.478 . S
C751 H745 0.930 . S
C751 C747 1.400 . S
C751 C750 1.385 . S
C752 C750 1.478 . S
C752 C754 1.381 . S
C752 C758 1.383 . S
C753 C749 1.495 . S
C753 H759 0.959 . S
C753 H760 0.961 . S
C753 H761 0.960 . S
C754 C752 1.381 . S
C754 C755 1.394 . S
C754 H762 0.930 . S
C755 C754 1.394 . S
C755 C756 1.383 . S
C755 H763 0.929 . S
C756 C755 1.383 . S
C756 C757 1.377 . S
C757 H741 0.930 . S
C757 C756 1.377 . S
C757 C758 1.379 . S
C758 H742 0.931 . S
C758 C752 1.383 . S
C758 C757 1.379 . S
H759 C753 0.959 . S
H760 C753 0.961 . S
H761 C753 0.960 . S
H762 C754 0.930 . S
H763 C755 0.929 . S
H764 C772 0.929 . S
H765 C774 0.930 . S
H766 C776 0.930 . S
H767 C779 0.929 . S
H768 C782 0.930 . S
H769 C784 0.941 1_455 S
H770 C784 0.937 1_455 S
H771 C784 0.979 . S
C772 H764 0.929 . S
C772 C773 1.377 . S
C772 C774 1.384 . S
C773 C772 1.377 . S
C773 C779 1.390 . S
C774 H765 0.930 . S
C774 C772 1.384 . S
C774 C775 1.372 . S
C775 C774 1.372 . S
C775 C776 1.400 . S
C775 C780 1.490 . S
C776 H766 0.930 . S
C776 C775 1.400 . S
C776 C779 1.386 . S
H777 C793 0.930 . S
H778 C794 0.931 . S
C779 H767 0.929 . S
C779 C773 1.390 . S
C779 C776 1.386 . S
C780 C775 1.490 . S
C780 C782 1.395 . S
C780 C783 1.403 . S
H781 C787 0.930 . S
C782 H768 0.930 . S
C782 C780 1.395 . S
C782 C785 1.403 . S
C783 C780 1.403 . S
C783 C784 1.549 . S
C783 C787 1.400 . S
C784 H769 0.941 1_655 S
C784 H770 0.937 1_655 S
C784 H771 0.979 . S
C784 C783 1.549 . S
C785 C782 1.403 . S
C785 C786 1.392 . S
C785 C789 1.495 . S
C786 C785 1.392 . S
C786 C787 1.385 . S
C786 C788 1.478 . S
C787 H781 0.930 . S
C787 C783 1.400 . S
C787 C786 1.385 . S
C788 C786 1.478 . S
C788 C790 1.381 . S
C788 C794 1.383 . S
C789 C785 1.495 . S
C789 H795 0.959 . S
C789 H796 0.961 . S
C789 H797 0.960 . S
C790 C788 1.381 . S
C790 C791 1.394 . S
C790 H798 0.930 . S
C791 C790 1.394 . S
C791 C792 1.383 . S
C791 H799 0.929 . S
C792 C791 1.383 . S
C792 C793 1.377 . S
C793 H777 0.930 . S
C793 C792 1.377 . S
C793 C794 1.379 . S
C794 H778 0.931 . S
C794 C788 1.383 . S
C794 C793 1.379 . S
H795 C789 0.959 . S
H796 C789 0.961 . S
H797 C789 0.960 . S
H798 C790 0.930 . S
H799 C791 0.929 . S
H800 C808 0.929 . S
H801 C810 0.930 . S
H802 C812 0.930 . S
H803 C815 0.929 . S
H804 C818 0.930 . S
H805 C820 0.960 1_545 S
H806 C820 0.960 1_545 S
H807 C820 0.960 . S
C808 H800 0.929 . S
C808 C809 1.377 . S
C808 C810 1.384 . S
C809 C808 1.377 . S
C809 C815 1.390 . S
C810 H801 0.930 . S
C810 C808 1.384 . S
C810 C811 1.372 . S
C811 C810 1.372 . S
C811 C812 1.400 . S
C811 C816 1.490 . S
C812 H802 0.930 . S
C812 C811 1.400 . S
C812 C815 1.386 . S
H813 C829 0.930 . S
H814 C830 0.931 . S
C815 H803 0.929 . S
C815 C809 1.390 . S
C815 C812 1.386 . S
C816 C811 1.490 . S
C816 C818 1.395 . S
C816 C819 1.403 . S
H817 C823 0.930 . S
C818 H804 0.930 . S
C818 C816 1.395 . S
C818 C821 1.403 . S
C819 C816 1.403 . S
C819 C820 1.524 . S
C819 C823 1.400 . S
C820 H805 0.960 1_565 S
C820 H806 0.960 1_565 S
C820 H807 0.960 . S
C820 C819 1.524 . S
C821 C818 1.403 . S
C821 C822 1.392 . S
C821 C825 1.495 . S
C822 C821 1.392 . S
C822 C823 1.385 . S
C822 C824 1.478 . S
C823 H817 0.930 . S
C823 C819 1.400 . S
C823 C822 1.385 . S
C824 C822 1.478 . S
C824 C826 1.381 . S
C824 C830 1.383 . S
C825 C821 1.495 . S
C825 H831 0.959 . S
C825 H832 0.961 . S
C825 H833 0.960 . S
C826 C824 1.381 . S
C826 C827 1.394 . S
C826 H834 0.930 . S
C827 C826 1.394 . S
C827 C828 1.383 . S
C827 H835 0.929 . S
C828 C827 1.383 . S
C828 C829 1.377 . S
C829 H813 0.930 . S
C829 C828 1.377 . S
C829 C830 1.379 . S
C830 H814 0.931 . S
C830 C824 1.383 . S
C830 C829 1.379 . S
H831 C825 0.959 . S
H832 C825 0.961 . S
H833 C825 0.960 . S
H834 C826 0.930 . S
H835 C827 0.929 . S
H836 C844 0.929 . S
H837 C846 0.930 . S
H838 C848 0.930 . S
H839 C851 0.929 . S
H840 C854 0.930 . S
H841 C856 0.960 . S
H842 C856 0.960 . S
H843 C856 0.960 . S
C844 H836 0.929 . S
C844 C845 1.377 . S
C844 C846 1.384 . S
C845 C844 1.377 . S
C845 C851 1.390 . S
C846 H837 0.930 . S
C846 C844 1.384 . S
C846 C847 1.372 . S
C847 C846 1.372 . S
C847 C848 1.400 . S
C847 C852 1.490 . S
C848 H838 0.930 . S
C848 C847 1.400 . S
C848 C851 1.386 . S
H849 C865 0.930 . S
H850 C866 0.931 . S
C851 H839 0.929 . S
C851 C845 1.390 . S
C851 C848 1.386 . S
C852 C847 1.490 . S
C852 C854 1.395 . S
C852 C855 1.403 . S
H853 C859 0.930 . S
C854 H840 0.930 . S
C854 C852 1.395 . S
C854 C857 1.403 . S
C855 C852 1.403 . S
C855 C856 1.524 . S
C855 C859 1.400 . S
C856 H841 0.960 . S
C856 H842 0.960 . S
C856 H843 0.960 . S
C856 C855 1.524 . S
C857 C854 1.403 . S
C857 C858 1.392 . S
C857 C861 1.495 . S
C858 C857 1.392 . S
C858 C859 1.385 . S
C858 C860 1.478 . S
C859 H853 0.930 . S
C859 C855 1.400 . S
C859 C858 1.385 . S
C860 C858 1.478 . S
C860 C862 1.381 . S
C860 C866 1.383 . S
C861 C857 1.495 . S
C861 H867 0.959 . S
C861 H868 0.961 . S
C861 H869 0.960 . S
C862 C860 1.381 . S
C862 C863 1.394 . S
C862 H870 0.930 . S
C863 C862 1.394 . S
C863 C864 1.383 . S
C863 H871 0.929 . S
C864 C863 1.383 . S
C864 C865 1.377 . S
C865 H849 0.930 . S
C865 C864 1.377 . S
C865 C866 1.379 . S
C866 H850 0.931 . S
C866 C860 1.383 . S
C866 C865 1.379 . S
H867 C861 0.959 . S
H868 C861 0.961 . S
H869 C861 0.960 . S
H870 C862 0.930 . S
H871 C863 0.929 . S
H872 C880 0.929 . S
H873 C882 0.930 . S
H874 C884 0.930 . S
H875 C887 0.929 . S
H876 C890 0.930 . S
H877 C892 0.960 . S
H878 C892 0.960 . S
H879 C892 0.960 . S
C880 H872 0.929 . S
C880 C881 1.377 . S
C880 C882 1.384 . S
C881 C880 1.377 . S
C881 C887 1.390 . S
C882 H873 0.930 . S
C882 C880 1.384 . S
C882 C883 1.372 . S
C883 C882 1.372 . S
C883 C884 1.400 . S
C883 C888 1.490 . S
C884 H874 0.930 . S
C884 C883 1.400 . S
C884 C887 1.386 . S
H885 C901 0.930 . S
H886 C902 0.931 . S
C887 H875 0.929 . S
C887 C881 1.390 . S
C887 C884 1.386 . S
C888 C883 1.490 . S
C888 C890 1.395 . S
C888 C891 1.403 . S
H889 C895 0.930 . S
C890 H876 0.930 . S
C890 C888 1.395 . S
C890 C893 1.403 . S
C891 C888 1.403 . S
C891 C892 1.524 . S
C891 C895 1.400 . S
C892 H877 0.960 . S
C892 H878 0.960 . S
C892 H879 0.960 . S
C892 C891 1.524 . S
C893 C890 1.403 . S
C893 C894 1.392 . S
C893 C897 1.495 . S
C894 C893 1.392 . S
C894 C895 1.385 . S
C894 C896 1.478 . S
C895 H889 0.930 . S
C895 C891 1.400 . S
C895 C894 1.385 . S
C896 C894 1.478 . S
C896 C898 1.381 . S
C896 C902 1.383 . S
C897 C893 1.495 . S
C897 H903 0.959 . S
C897 H904 0.961 . S
C897 H905 0.960 . S
C898 C896 1.381 . S
C898 C899 1.394 . S
C898 H906 0.930 . S
C899 C898 1.394 . S
C899 C900 1.383 . S
C899 H907 0.929 . S
C900 C899 1.383 . S
C900 C901 1.377 . S
C901 H885 0.930 . S
C901 C900 1.377 . S
C901 C902 1.379 . S
C902 H886 0.931 . S
C902 C896 1.383 . S
C902 C901 1.379 . S
H903 C897 0.959 . S
H904 C897 0.961 . S
H905 C897 0.960 . S
H906 C898 0.930 . S
H907 C899 0.929 . S
H908 C916 0.929 . S
H909 C918 0.930 . S
H910 C920 0.930 . S
H911 C923 0.929 . S
H912 C926 0.930 . S
H913 C928 0.960 . S
H914 C928 0.960 . S
H915 C928 0.960 . S
C916 H908 0.929 . S
C916 C917 1.377 . S
C916 C918 1.384 . S
C917 C916 1.377 . S
C917 C923 1.390 . S
C918 H909 0.930 . S
C918 C916 1.384 . S
C918 C919 1.372 . S
C919 C918 1.372 . S
C919 C920 1.400 . S
C919 C924 1.490 . S
C920 H910 0.930 . S
C920 C919 1.400 . S
C920 C923 1.386 . S
H921 C937 0.930 . S
H922 C938 0.931 . S
C923 H911 0.929 . S
C923 C917 1.390 . S
C923 C920 1.386 . S
C924 C919 1.490 . S
C924 C926 1.395 . S
C924 C927 1.403 . S
H925 C931 0.930 . S
C926 H912 0.930 . S
C926 C924 1.395 . S
C926 C929 1.403 . S
C927 C924 1.403 . S
C927 C928 1.524 1_655 S
C927 C931 1.400 . S
C928 H913 0.960 . S
C928 H914 0.960 . S
C928 H915 0.960 . S
C928 C927 1.524 1_455 S
C929 C926 1.403 . S
C929 C930 1.392 . S
C929 C933 1.495 . S
C930 C929 1.392 . S
C930 C931 1.385 . S
C930 C932 1.478 . S
C931 H925 0.930 . S
C931 C927 1.400 . S
C931 C930 1.385 . S
C932 C930 1.478 . S
C932 C934 1.381 . S
C932 C938 1.383 . S
C933 C929 1.495 . S
C933 H939 0.959 . S
C933 H940 0.961 . S
C933 H941 0.960 . S
C934 C932 1.381 . S
C934 C935 1.394 . S
C934 H942 0.930 . S
C935 C934 1.394 . S
C935 C936 1.383 . S
C935 H943 0.929 . S
C936 C935 1.383 . S
C936 C937 1.377 . S
C937 H921 0.930 . S
C937 C936 1.377 . S
C937 C938 1.379 . S
C938 H922 0.931 . S
C938 C932 1.383 . S
C938 C937 1.379 . S
H939 C933 0.959 . S
H940 C933 0.961 . S
H941 C933 0.960 . S
H942 C934 0.930 . S
H943 C935 0.929 . S
H944 C952 0.929 . S
H945 C954 0.930 . S
H946 C956 0.930 . S
H947 C959 0.929 . S
H948 C962 0.930 . S
H949 C964 0.960 . S
H950 C964 0.960 . S
H951 C964 0.960 . S
C952 H944 0.929 . S
C952 C953 1.377 . S
C952 C954 1.384 . S
C953 C952 1.377 . S
C953 C959 1.390 . S
C954 H945 0.930 . S
C954 C952 1.384 . S
C954 C955 1.372 . S
C955 C954 1.372 . S
C955 C956 1.400 . S
C955 C960 1.490 . S
C956 H946 0.930 . S
C956 C955 1.400 . S
C956 C959 1.386 . S
H957 C973 0.930 . S
H958 C974 0.931 . S
C959 H947 0.929 . S
C959 C953 1.390 . S
C959 C956 1.386 . S
C960 C955 1.490 . S
C960 C962 1.395 . S
C960 C963 1.403 . S
H961 C967 0.930 . S
C962 H948 0.930 . S
C962 C960 1.395 . S
C962 C965 1.403 . S
C963 C960 1.403 . S
C963 C964 1.524 . S
C963 C967 1.400 . S
C964 H949 0.960 . S
C964 H950 0.960 . S
C964 H951 0.960 . S
C964 C963 1.524 . S
C965 C962 1.403 . S
C965 C966 1.392 . S
C965 C969 1.495 . S
C966 C965 1.392 . S
C966 C967 1.385 . S
C966 C968 1.478 . S
C967 H961 0.930 . S
C967 C963 1.400 . S
C967 C966 1.385 . S
C968 C966 1.478 . S
C968 C970 1.381 . S
C968 C974 1.383 . S
C969 C965 1.495 . S
C969 H975 0.959 . S
C969 H976 0.961 . S
C969 H977 0.960 . S
C970 C968 1.381 . S
C970 C971 1.394 . S
C970 H978 0.930 . S
C971 C970 1.394 . S
C971 C972 1.383 . S
C971 H979 0.929 . S
C972 C971 1.383 . S
C972 C973 1.377 . S
C973 H957 0.930 . S
C973 C972 1.377 . S
C973 C974 1.379 . S
C974 H958 0.931 . S
C974 C968 1.383 . S
C974 C973 1.379 . S
H975 C969 0.959 . S
H976 C969 0.961 . S
H977 C969 0.960 . S
H978 C970 0.930 . S
H979 C971 0.929 . S
H980 C988 0.929 . S
H981 C990 0.930 . S
H982 C992 0.930 . S
H983 C995 0.929 . S
H984 C998 0.930 . S
H985 C1000 0.960 . S
H986 C1000 0.960 . S
H987 C1000 0.960 . S
C988 H980 0.929 . S
C988 C989 1.377 . S
C988 C990 1.384 . S
C989 C988 1.377 . S
C989 C995 1.390 . S
C990 H981 0.930 . S
C990 C988 1.384 . S
C990 C991 1.372 . S
C991 C990 1.372 . S
C991 C992 1.400 . S
C991 C996 1.490 . S
C992 H982 0.930 . S
C992 C991 1.400 . S
C992 C995 1.386 . S
H993 C1009 0.930 . S
H994 C1010 0.931 . S
C995 H983 0.929 . S
C995 C989 1.390 . S
C995 C992 1.386 . S
C996 C991 1.490 . S
C996 C998 1.395 . S
C996 C999 1.403 . S
H997 C1003 0.930 . S
C998 H984 0.930 . S
C998 C996 1.395 . S
C998 C1001 1.403 . S
C999 C996 1.403 . S
C999 C1000 1.524 . S
C999 C1003 1.400 . S
C1000 H985 0.960 . S
C1000 H986 0.960 . S
C1000 H987 0.960 . S
C1000 C999 1.524 . S
C1001 C998 1.403 . S
C1001 C1002 1.392 . S
C1001 C1005 1.495 . S
C1002 C1001 1.392 . S
C1002 C1003 1.385 . S
C1002 C1004 1.478 . S
C1003 H997 0.930 . S
C1003 C999 1.400 . S
C1003 C1002 1.385 . S
C1004 C1002 1.478 . S
C1004 C1006 1.381 . S
C1004 C1010 1.383 . S
C1005 C1001 1.495 . S
C1005 H1011 0.959 . S
C1005 H1012 0.961 . S
C1005 H1013 0.960 . S
C1006 C1004 1.381 . S
C1006 C1007 1.394 . S
C1006 H1014 0.930 . S
C1007 C1006 1.394 . S
C1007 C1008 1.383 . S
C1007 H1015 0.929 . S
C1008 C1007 1.383 . S
C1008 C1009 1.377 . S
C1009 H993 0.930 . S
C1009 C1008 1.377 . S
C1009 C1010 1.379 . S
C1010 H994 0.931 . S
C1010 C1004 1.383 . S
C1010 C1009 1.379 . S
H1011 C1005 0.959 . S
H1012 C1005 0.961 . S
H1013 C1005 0.960 . S
H1014 C1006 0.930 . S
H1015 C1007 0.929 . S
H1016 C1024 0.929 . S
H1017 C1026 0.930 . S
H1018 C1028 0.930 . S
H1019 C1031 0.929 . S
H1020 C1034 0.930 . S
H1021 C1036 0.960 . S
H1022 C1036 0.960 . S
H1023 C1036 0.960 . S
C1024 H1016 0.929 . S
C1024 C1025 1.377 . S
C1024 C1026 1.384 . S
C1025 C1024 1.377 . S
C1025 C1031 1.390 . S
C1026 H1017 0.930 . S
C1026 C1024 1.384 . S
C1026 C1027 1.372 . S
C1027 C1026 1.372 . S
C1027 C1028 1.400 . S
C1027 C1032 1.490 . S
C1028 H1018 0.930 . S
C1028 C1027 1.400 . S
C1028 C1031 1.386 . S
H1029 C1045 0.930 . S
H1030 C1046 0.931 . S
C1031 H1019 0.929 . S
C1031 C1025 1.390 . S
C1031 C1028 1.386 . S
C1032 C1027 1.490 . S
C1032 C1034 1.395 . S
C1032 C1035 1.403 . S
H1033 C1039 0.930 . S
C1034 H1020 0.930 . S
C1034 C1032 1.395 . S
C1034 C1037 1.403 . S
C1035 C1032 1.403 . S
C1035 C1036 1.524 . S
C1035 C1039 1.400 . S
C1036 H1021 0.960 . S
C1036 H1022 0.960 . S
C1036 H1023 0.960 . S
C1036 C1035 1.524 . S
C1037 C1034 1.403 . S
C1037 C1038 1.392 . S
C1037 C1041 1.495 . S
C1038 C1037 1.392 . S
C1038 C1039 1.385 . S
C1038 C1040 1.478 . S
C1039 H1033 0.930 . S
C1039 C1035 1.400 . S
C1039 C1038 1.385 . S
C1040 C1038 1.478 . S
C1040 C1042 1.381 . S
C1040 C1046 1.383 . S
C1041 C1037 1.495 . S
C1041 H1047 0.959 . S
C1041 H1048 0.961 . S
C1041 H1049 0.960 . S
C1042 C1040 1.381 . S
C1042 C1043 1.394 . S
C1042 H1050 0.930 . S
C1043 C1042 1.394 . S
C1043 C1044 1.383 . S
C1043 H1051 0.929 . S
C1044 C1043 1.383 . S
C1044 C1045 1.377 . S
C1045 H1029 0.930 . S
C1045 C1044 1.377 . S
C1045 C1046 1.379 . S
C1046 H1030 0.931 . S
C1046 C1040 1.383 . S
C1046 C1045 1.379 . S
H1047 C1041 0.959 . S
H1048 C1041 0.961 . S
H1049 C1041 0.960 . S
H1050 C1042 0.930 . S
H1051 C1043 0.929 . S
H1052 C1060 0.929 . S
H1053 C1062 0.930 . S
H1054 C1064 0.930 . S
H1055 C1067 0.929 . S
H1056 C1070 0.930 . S
H1057 C1072 0.960 . S
H1058 C1072 0.960 . S
H1059 C1072 0.960 . S
C1060 H1052 0.929 . S
C1060 C1061 1.377 . S
C1060 C1062 1.384 . S
C1061 C1060 1.377 . S
C1061 C1067 1.390 . S
C1062 H1053 0.930 . S
C1062 C1060 1.384 . S
C1062 C1063 1.372 . S
C1063 C1062 1.372 . S
C1063 C1064 1.400 . S
C1063 C1068 1.490 . S
C1064 H1054 0.930 . S
C1064 C1063 1.400 . S
C1064 C1067 1.386 . S
H1065 C1081 0.930 . S
H1066 C1082 0.931 . S
C1067 H1055 0.929 . S
C1067 C1061 1.390 . S
C1067 C1064 1.386 . S
C1068 C1063 1.490 . S
C1068 C1070 1.395 . S
C1068 C1071 1.403 . S
H1069 C1075 0.930 . S
C1070 H1056 0.930 . S
C1070 C1068 1.395 . S
C1070 C1073 1.403 . S
C1071 C1068 1.403 . S
C1071 C1072 1.524 . S
C1071 C1075 1.400 . S
C1072 H1057 0.960 . S
C1072 H1058 0.960 . S
C1072 H1059 0.960 . S
C1072 C1071 1.524 . S
C1073 C1070 1.403 . S
C1073 C1074 1.392 . S
C1073 C1077 1.495 . S
C1074 C1073 1.392 . S
C1074 C1075 1.385 . S
C1074 C1076 1.478 . S
C1075 H1069 0.930 . S
C1075 C1071 1.400 . S
C1075 C1074 1.385 . S
C1076 C1074 1.478 . S
C1076 C1078 1.381 . S
C1076 C1082 1.383 . S
C1077 C1073 1.495 . S
C1077 H1083 0.959 . S
C1077 H1084 0.997 . S
C1077 H1085 0.960 . S
C1078 C1076 1.381 . S
C1078 C1079 1.394 . S
C1078 H1086 0.930 . S
C1079 C1078 1.394 . S
C1079 C1080 1.383 . S
C1079 H1087 0.929 . S
C1080 C1079 1.383 . S
C1080 C1081 1.377 . S
C1081 H1065 0.930 . S
C1081 C1080 1.377 . S
C1081 C1082 1.379 . S
C1082 H1066 0.931 . S
C1082 C1076 1.383 . S
C1082 C1081 1.379 . S
H1083 C1077 0.959 . S
H1084 C1077 0.997 . S
H1085 C1077 0.960 . S
H1086 C1078 0.930 . S
H1087 C1079 0.929 . S
H1088 C1096 0.929 . S
H1089 C1098 0.930 . S
H1090 C1100 0.930 . S
H1091 C1103 0.929 . S
H1092 C1106 0.930 . S
H1093 C1108 0.960 . S
H1094 C1108 0.923 1_565 S
H1095 C1108 0.960 . S
C1096 H1088 0.929 . S
C1096 C1097 1.377 . S
C1096 C1098 1.384 . S
C1097 C1096 1.377 . S
C1097 C1103 1.390 1_565 S
C1098 H1089 0.930 . S
C1098 C1096 1.384 . S
C1098 C1099 1.372 . S
C1099 C1098 1.372 . S
C1099 C1100 1.400 1_565 S
C1099 C1104 1.490 . S
C1100 H1090 0.930 . S
C1100 C1099 1.400 1_545 S
C1100 C1103 1.386 . S
H1101 C1117 0.930 . S
H1102 C1118 0.931 . S
C1103 H1091 0.929 . S
C1103 C1097 1.390 1_545 S
C1103 C1100 1.386 . S
C1104 C1099 1.490 . S
C1104 C1106 1.395 . S
C1104 C1107 1.403 1_566 S
H1105 C1111 0.930 . S
C1106 H1092 0.930 . S
C1106 C1104 1.395 . S
C1106 C1109 1.403 . S
C1107 C1104 1.403 1_544 S
C1107 C1108 1.524 . S
C1107 C1111 1.400 . S
C1108 H1093 0.960 . S
C1108 H1094 0.923 1_545 S
C1108 H1095 0.960 . S
C1108 C1107 1.524 . S
C1109 C1106 1.403 . S
C1109 C1110 1.410 . S
C1109 C1113 1.495 . S
C1110 C1109 1.410 . S
C1110 C1111 1.372 1_566 S
C1110 C1112 1.473 1_566 S
C1111 H1105 0.930 . S
C1111 C1107 1.400 . S
C1111 C1110 1.372 1_544 S
C1112 C1110 1.473 1_544 S
C1112 C1114 1.339 1_545 S
C1112 C1118 1.429 . S
C1113 C1109 1.495 . S
C1113 H1119 0.959 . S
C1113 H1120 0.961 . S
C1113 H1121 0.960 . S
C1114 C1112 1.339 1_565 S
C1114 C1115 1.394 . S
C1114 H1122 0.930 . S
C1115 C1114 1.394 . S
C1115 C1116 1.383 1_565 S
C1115 H1123 0.929 . S
C1116 C1115 1.383 1_545 S
C1116 C1117 1.377 . S
C1117 H1101 0.930 . S
C1117 C1116 1.377 . S
C1117 C1118 1.379 . S
C1118 H1102 0.931 . S
C1118 C1112 1.429 . S
C1118 C1117 1.379 . S
H1119 C1113 0.959 . S
H1120 C1113 0.961 . S
H1121 C1113 0.960 . S
H1122 C1114 0.930 . S
H1123 C1115 0.929 . S
H1124 C1132 0.929 . S
H1125 C1134 0.930 . S
H1126 C1136 0.930 . S
H1127 C1139 0.929 . S
H1128 C1142 0.930 . S
H1129 C1144 0.960 . S
H1130 C1144 0.960 . S
H1131 C1144 0.960 . S
C1132 H1124 0.929 . S
C1132 C1133 1.377 1_554 S
C1132 C1134 1.384 . S
C1133 C1132 1.377 1_556 S
C1133 C1139 1.390 . S
C1134 H1125 0.930 . S
C1134 C1132 1.384 . S
C1134 C1135 1.372 1_554 S
C1135 C1134 1.372 1_556 S
C1135 C1136 1.400 . S
C1135 C1140 1.490 . S
C1136 H1126 0.930 . S
C1136 C1135 1.400 . S
C1136 C1139 1.386 . S
H1137 C1153 0.930 . S
H1138 C1154 0.931 . S
C1139 H1127 0.929 . S
C1139 C1133 1.390 . S
C1139 C1136 1.386 . S
C1140 C1135 1.490 . S
C1140 C1142 1.395 1_556 S
C1140 C1143 1.403 . S
H1141 C1147 0.930 . S
C1142 H1128 0.930 . S
C1142 C1140 1.395 1_554 S
C1142 C1145 1.403 . S
C1143 C1140 1.403 . S
C1143 C1144 1.524 . S
C1143 C1147 1.400 . S
C1144 H1129 0.960 . S
C1144 H1130 0.960 . S
C1144 H1131 0.960 . S
C1144 C1143 1.524 . S
C1145 C1142 1.403 . S
C1145 C1146 1.392 . S
C1145 C1149 1.495 . S
C1146 C1145 1.392 . S
C1146 C1147 1.385 1_554 S
C1146 C1148 1.478 . S
C1147 H1141 0.930 . S
C1147 C1143 1.400 . S
C1147 C1146 1.385 1_556 S
C1148 C1146 1.478 . S
C1148 C1150 1.381 . S
C1148 C1154 1.383 1_554 S
C1149 C1145 1.495 . S
C1149 H1155 0.959 . S
C1149 H1156 0.961 . S
C1149 H1157 0.960 . S
C1150 C1148 1.381 . S
C1150 C1151 1.394 . S
C1150 H1158 0.930 . S
C1151 C1150 1.394 . S
C1151 C1152 1.383 . S
C1151 H1159 0.929 . S
C1152 C1151 1.383 . S
C1152 C1153 1.377 1_554 S
C1153 H1137 0.930 . S
C1153 C1152 1.377 1_556 S
C1153 C1154 1.379 . S
C1154 H1138 0.931 . S
C1154 C1148 1.383 1_556 S
C1154 C1153 1.379 . S
H1155 C1149 0.959 . S
H1156 C1149 0.961 . S
H1157 C1149 0.960 . S
H1158 C1150 0.930 . S
H1159 C1151 0.929 . S
H1160 C1168 0.929 . S
H1161 C1170 0.930 . S
H1162 C1172 0.930 . S
H1163 C1175 0.929 . S
H1164 C1178 0.930 . S
H1165 C1180 0.960 . S
H1166 C1180 0.960 . S
H1167 C1180 0.960 . S
C1168 H1160 0.929 . S
C1168 C1169 1.377 . S
C1168 C1170 1.384 . S
C1169 C1168 1.377 . S
C1169 C1175 1.390 1_554 S
C1170 H1161 0.930 . S
C1170 C1168 1.384 . S
C1170 C1171 1.372 . S
C1171 C1170 1.372 . S
C1171 C1172 1.400 1_554 S
C1171 C1176 1.490 . S
C1172 H1162 0.930 . S
C1172 C1171 1.400 1_556 S
C1172 C1175 1.386 . S
H1173 C1189 0.930 . S
H1174 C1190 0.931 . S
C1175 H1163 0.929 . S
C1175 C1169 1.390 1_556 S
C1175 C1172 1.386 . S
C1176 C1171 1.490 . S
C1176 C1178 1.395 . S
C1176 C1179 1.403 1_554 S
H1177 C1183 0.930 . S
C1178 H1164 0.930 . S
C1178 C1176 1.395 . S
C1178 C1181 1.403 1_655 S
C1179 C1176 1.403 1_556 S
C1179 C1180 1.524 . S
C1179 C1183 1.400 1_655 S
C1180 H1165 0.960 . S
C1180 H1166 0.960 . S
C1180 H1167 0.960 . S
C1180 C1179 1.524 . S
C1181 C1178 1.403 1_455 S
C1181 C1182 1.392 . S
C1181 C1185 1.495 . S
C1182 C1181 1.392 . S
C1182 C1183 1.385 1_554 S
C1182 C1184 1.478 1_554 S
C1183 H1177 0.930 . S
C1183 C1179 1.400 1_455 S
C1183 C1182 1.385 1_556 S
C1184 C1182 1.478 1_556 S
C1184 C1186 1.381 1_556 S
C1184 C1190 1.383 . S
C1185 C1181 1.495 . S
C1185 H1191 0.959 . S
C1185 H1192 0.961 . S
C1185 H1193 0.960 . S
C1186 C1184 1.381 1_554 S
C1186 C1187 1.394 . S
C1186 H1194 0.930 . S
C1187 C1186 1.394 . S
C1187 C1188 1.383 1_554 S
C1187 H1195 0.929 . S
C1188 C1187 1.383 1_556 S
C1188 C1189 1.377 . S
C1189 H1173 0.930 . S
C1189 C1188 1.377 . S
C1189 C1190 1.379 . S
C1190 H1174 0.931 . S
C1190 C1184 1.383 . S
C1190 C1189 1.379 . S
H1191 C1185 0.959 . S
H1192 C1185 0.961 . S
H1193 C1185 0.960 . S
H1194 C1186 0.930 . S
H1195 C1187 0.929 . S
H1196 C1204 0.929 . S
H1197 C1206 0.930 1_554 S
H1198 C1208 0.930 . S
H1199 C1211 0.929 . S
H1200 C1214 0.930 . S
H1201 C1216 0.960 . S
H1202 C1216 0.960 . S
H1203 C1216 0.960 . S
C1204 H1196 0.929 . S
C1204 C1205 1.377 . S
C1204 C1206 1.384 . S
C1205 C1204 1.377 . S
C1205 C1211 1.390 1_655 S
C1206 H1197 0.930 1_556 S
C1206 C1204 1.384 . S
C1206 C1207 1.372 . S
C1207 C1206 1.372 . S
C1207 C1208 1.400 1_655 S
C1207 C1212 1.490 . S
C1208 H1198 0.930 . S
C1208 C1207 1.400 1_455 S
C1208 C1211 1.386 . S
H1209 C1225 0.930 1_556 S
H1210 C1226 0.931 . S
C1211 H1199 0.929 . S
C1211 C1205 1.390 1_455 S
C1211 C1208 1.386 . S
C1212 C1207 1.490 . S
C1212 C1214 1.395 . S
C1212 C1215 1.403 1_656 S
H1213 C1219 0.930 . S
C1214 H1200 0.930 . S
C1214 C1212 1.395 . S
C1214 C1217 1.403 1_545 S
C1215 C1212 1.403 1_454 S
C1215 C1216 1.524 . S
C1215 C1219 1.400 1_545 S
C1216 H1201 0.960 . S
C1216 H1202 0.960 . S
C1216 H1203 0.960 . S
C1216 C1215 1.524 . S
C1217 C1214 1.403 1_565 S
C1217 C1218 1.392 . S
C1217 C1221 1.495 . S
C1218 C1217 1.392 . S
C1218 C1219 1.385 1_656 S
C1218 C1220 1.480 1_556 S
C1219 H1213 0.930 . S
C1219 C1215 1.400 1_565 S
C1219 C1218 1.385 1_454 S
C1220 C1218 1.480 1_554 S
C1220 C1222 1.400 . S
C1220 C1226 1.361 1_654 S
C1221 C1217 1.495 . S
C1221 H1227 0.959 . S
C1221 H1228 0.961 . S
C1221 H1229 0.960 . S
C1222 C1220 1.400 . S
C1222 C1223 1.394 . S
C1222 H1230 0.930 . S
C1223 C1222 1.394 . S
C1223 C1224 1.383 1_655 S
C1223 H1231 0.929 . S
C1224 C1223 1.383 1_455 S
C1224 C1225 1.377 . S
C1225 H1209 0.930 1_554 S
C1225 C1224 1.377 . S
C1225 C1226 1.379 1_554 S
C1226 H1210 0.931 . S
C1226 C1220 1.361 1_456 S
C1226 C1225 1.379 1_556 S
H1227 C1221 0.959 . S
H1228 C1221 0.961 . S
H1229 C1221 0.960 . S
H1230 C1222 0.930 . S
H1231 C1223 0.929 . S
H1232 C1240 0.929 . S
H1233 C1242 0.930 . S
H1234 C1244 0.930 . S
H1235 C1247 0.929 . S
H1236 C1250 0.930 . S
H1237 C1252 0.960 . S
H1238 C1252 0.960 1_565 S
H1239 C1252 0.960 . S
C1240 H1232 0.929 . S
C1240 C1241 1.377 . S
C1240 C1242 1.384 . S
C1241 C1240 1.377 . S
C1241 C1247 1.390 1_565 S
C1242 H1233 0.930 . S
C1242 C1240 1.384 . S
C1242 C1243 1.372 . S
C1243 C1242 1.372 . S
C1243 C1244 1.400 1_565 S
C1243 C1248 1.490 . S
C1244 H1234 0.930 . S
C1244 C1243 1.400 1_545 S
C1244 C1247 1.386 . S
H1245 C1261 0.930 . S
H1246 C1262 0.931 . S
C1247 H1235 0.929 . S
C1247 C1241 1.390 1_545 S
C1247 C1244 1.386 . S
C1248 C1243 1.490 . S
C1248 C1250 1.395 . S
C1248 C1251 1.403 1_565 S
H1249 C1255 0.930 . S
C1250 H1236 0.930 . S
C1250 C1248 1.395 . S
C1250 C1253 1.403 1_455 S
C1251 C1248 1.403 1_545 S
C1251 C1252 1.524 . S
C1251 C1255 1.400 1_455 S
C1252 H1237 0.960 . S
C1252 H1238 0.960 1_545 S
C1252 H1239 0.960 . S
C1252 C1251 1.524 . S
C1253 C1250 1.403 1_655 S
C1253 C1254 1.399 . S
C1253 C1257 1.495 . S
C1254 C1253 1.399 . S
C1254 C1255 1.380 1_565 S
C1254 C1256 1.476 1_565 S
C1255 H1249 0.930 . S
C1255 C1251 1.400 1_655 S
C1255 C1254 1.380 1_545 S
C1256 C1254 1.476 1_545 S
C1256 C1258 1.381 1_545 S
C1256 C1262 1.383 . S
C1257 C1253 1.495 . S
C1257 H1263 0.959 . S
C1257 H1264 0.961 1_565 S
C1257 H1265 0.960 . S
C1258 C1256 1.381 1_565 S
C1258 C1259 1.394 . S
C1258 H1266 0.930 . S
C1259 C1258 1.394 . S
C1259 C1260 1.383 1_565 S
C1259 H1267 0.929 . S
C1260 C1259 1.383 1_545 S
C1260 C1261 1.377 . S
C1261 H1245 0.930 . S
C1261 C1260 1.377 . S
C1261 C1262 1.379 . S
C1262 H1246 0.931 . S
C1262 C1256 1.383 . S
C1262 C1261 1.379 . S
H1263 C1257 0.959 . S
H1264 C1257 0.961 1_545 S
H1265 C1257 0.960 . S
H1266 C1258 0.930 . S
H1267 C1259 0.929 . S
H1268 C1276 0.929 . S
H1269 C1278 0.930 . S
H1270 C1280 0.930 . S
H1271 C1283 0.929 . S
H1272 C1286 0.930 . S
H1273 C1288 0.960 . S
H1274 C1288 0.960 . S
H1275 C1288 0.960 . S
C1276 H1268 0.929 . S
C1276 C1277 1.377 . S
C1276 C1278 1.384 . S
C1277 C1276 1.377 . S
C1277 C1283 1.390 . S
C1278 H1269 0.930 . S
C1278 C1276 1.384 . S
C1278 C1279 1.372 . S
C1279 C1278 1.372 . S
C1279 C1280 1.400 . S
C1279 C1284 1.490 . S
C1280 H1270 0.930 . S
C1280 C1279 1.400 . S
C1280 C1283 1.386 . S
H1281 C1297 0.930 . S
H1282 C1298 0.931 . S
C1283 H1271 0.929 . S
C1283 C1277 1.390 . S
C1283 C1280 1.386 . S
C1284 C1279 1.490 . S
C1284 C1286 1.395 . S
C1284 C1287 1.403 . S
H1285 C1291 0.930 . S
C1286 H1272 0.930 . S
C1286 C1284 1.395 . S
C1286 C1289 1.403 1_565 S
C1287 C1284 1.403 . S
C1287 C1288 1.524 . S
C1287 C1291 1.400 1_565 S
C1288 H1273 0.960 . S
C1288 H1274 0.960 . S
C1288 H1275 0.960 . S
C1288 C1287 1.524 . S
C1289 C1286 1.403 1_545 S
C1289 C1290 1.392 . S
C1289 C1293 1.495 . S
C1290 C1289 1.392 . S
C1290 C1291 1.385 . S
C1290 C1292 1.478 . S
C1291 H1285 0.930 . S
C1291 C1287 1.400 1_545 S
C1291 C1290 1.385 . S
C1292 C1290 1.478 . S
C1292 C1294 1.381 . S
C1292 C1298 1.383 . S
C1293 C1289 1.495 . S
C1293 H1299 0.959 . S
C1293 H1300 0.961 . S
C1293 H1301 0.960 . S
C1294 C1292 1.381 . S
C1294 C1295 1.394 . S
C1294 H1302 0.930 . S
C1295 C1294 1.394 . S
C1295 C1296 1.383 . S
C1295 H1303 0.929 . S
C1296 C1295 1.383 . S
C1296 C1297 1.377 . S
C1297 H1281 0.930 . S
C1297 C1296 1.377 . S
C1297 C1298 1.379 . S
C1298 H1282 0.931 . S
C1298 C1292 1.383 . S
C1298 C1297 1.379 . S
H1299 C1293 0.959 . S
H1300 C1293 0.961 . S
H1301 C1293 0.960 . S
H1302 C1294 0.930 . S
H1303 C1295 0.929 . S
H1304 C1312 0.929 . S
H1305 C1314 0.930 . S
H1306 C1316 0.930 . S
H1307 C1319 0.929 . S
H1308 C1322 0.930 . S
H1309 C1324 0.960 . S
H1310 C1324 0.960 . S
H1311 C1324 0.960 . S
C1312 H1304 0.929 . S
C1312 C1313 1.377 . S
C1312 C1314 1.384 . S
C1313 C1312 1.377 . S
C1313 C1319 1.390 . S
C1314 H1305 0.930 . S
C1314 C1312 1.384 . S
C1314 C1315 1.372 . S
C1315 C1314 1.372 . S
C1315 C1316 1.400 . S
C1315 C1320 1.490 . S
C1316 H1306 0.930 . S
C1316 C1315 1.400 . S
C1316 C1319 1.386 . S
H1317 C1333 0.930 . S
H1318 C1334 0.931 . S
C1319 H1307 0.929 . S
C1319 C1313 1.390 . S
C1319 C1316 1.386 . S
C1320 C1315 1.490 . S
C1320 C1322 1.395 . S
C1320 C1323 1.403 . S
H1321 C1327 0.930 . S
C1322 H1308 0.930 . S
C1322 C1320 1.395 . S
C1322 C1325 1.403 . S
C1323 C1320 1.403 . S
C1323 C1324 1.524 . S
C1323 C1327 1.400 . S
C1324 H1309 0.960 . S
C1324 H1310 0.960 . S
C1324 H1311 0.960 . S
C1324 C1323 1.524 . S
C1325 C1322 1.403 . S
C1325 C1326 1.392 . S
C1325 C1329 1.495 . S
C1326 C1325 1.392 . S
C1326 C1327 1.385 . S
C1326 C1328 1.478 . S
C1327 H1321 0.930 . S
C1327 C1323 1.400 . S
C1327 C1326 1.385 . S
C1328 C1326 1.478 . S
C1328 C1330 1.381 . S
C1328 C1334 1.383 . S
C1329 C1325 1.495 . S
C1329 H1335 0.959 . S
C1329 H1336 0.961 . S
C1329 H1337 0.960 . S
C1330 C1328 1.381 . S
C1330 C1331 1.394 . S
C1330 H1338 0.930 . S
C1331 C1330 1.394 . S
C1331 C1332 1.383 . S
C1331 H1339 0.929 . S
C1332 C1331 1.383 . S
C1332 C1333 1.377 . S
C1333 H1317 0.930 . S
C1333 C1332 1.377 . S
C1333 C1334 1.379 . S
C1334 H1318 0.931 . S
C1334 C1328 1.383 . S
C1334 C1333 1.379 . S
H1335 C1329 0.959 . S
H1336 C1329 0.961 . S
H1337 C1329 0.960 . S
H1338 C1330 0.930 . S
H1339 C1331 0.929 . S
H1340 C1348 0.931 . S
H1341 C1350 0.928 1_655 S
H1342 C1352 0.930 . S
H1343 C1355 0.929 . S
H1344 C1358 0.930 . S
H1345 C1360 0.960 . S
H1346 C1360 0.960 . S
H1347 C1360 0.960 . S
C1348 H1340 0.931 . S
C1348 C1349 1.377 . S
C1348 C1350 1.385 . S
C1349 C1348 1.377 . S
C1349 C1355 1.390 . S
C1350 H1341 0.928 1_455 S
C1350 C1348 1.385 . S
C1350 C1351 1.373 . S
C1351 C1350 1.373 . S
C1351 C1352 1.400 . S
C1351 C1356 1.492 . S
C1352 H1342 0.930 . S
C1352 C1351 1.400 . S
C1352 C1355 1.386 . S
H1353 C1369 0.930 . S
H1354 C1370 0.931 . S
C1355 H1343 0.929 . S
C1355 C1349 1.390 . S
C1355 C1352 1.386 . S
C1356 C1351 1.492 . S
C1356 C1358 1.372 1_455 S
C1356 C1359 1.422 . S
H1357 C1363 0.930 . S
C1358 H1344 0.930 . S
C1358 C1356 1.372 1_655 S
C1358 C1361 1.403 . S
C1359 C1356 1.422 . S
C1359 C1360 1.524 . S
C1359 C1363 1.400 . S
C1360 H1345 0.960 . S
C1360 H1346 0.960 . S
C1360 H1347 0.960 . S
C1360 C1359 1.524 . S
C1361 C1358 1.403 . S
C1361 C1362 1.392 . S
C1361 C1365 1.495 . S
C1362 C1361 1.392 . S
C1362 C1363 1.385 1_655 S
C1362 C1364 1.478 . S
C1363 H1357 0.930 . S
C1363 C1359 1.400 . S
C1363 C1362 1.385 1_455 S
C1364 C1362 1.478 . S
C1364 C1366 1.381 . S
C1364 C1370 1.383 . S
C1365 C1361 1.495 . S
C1365 H1371 0.959 . S
C1365 H1372 0.961 . S
C1365 H1373 0.960 . S
C1366 C1364 1.381 . S
C1366 C1367 1.394 . S
C1366 H1374 0.930 . S
C1367 C1366 1.394 . S
C1367 C1368 1.383 . S
C1367 H1375 0.929 . S
C1368 C1367 1.383 . S
C1368 C1369 1.377 . S
C1369 H1353 0.930 . S
C1369 C1368 1.377 . S
C1369 C1370 1.379 . S
C1370 H1354 0.931 . S
C1370 C1364 1.383 . S
C1370 C1369 1.379 . S
H1371 C1365 0.959 . S
H1372 C1365 0.961 . S
H1373 C1365 0.960 . S
H1374 C1366 0.930 . S
H1375 C1367 0.929 . S
C233 C79 0.402 . S
C252 C9 0.396 . S
C269 C93 0.384 . S
C288 C23 0.498 . S
C305 C37 0.391 . S
C324 C107 0.477 . S
C341 C51 0.383 . S
C360 C65 0.487 . S
C377 C121 0.423 . S
C396 C191 0.435 . S
C413 C205 0.417 . S
C432 C135 0.374 . S
C449 C219 0.393 . S
C468 C149 0.302 . S
C485 C163 0.388 . S
C504 C177 0.455 . S
C521 C6 1.596 . S
C540 C176 1.546 . S
C557 C190 1.562 . S
C576 C20 1.580 . S
C593 C34 1.597 . S
C612 C204 1.531 . S
C629 C48 1.597 . S
C648 C218 1.536 . S
C665 C62 1.598 . S
C684 C120 1.531 . S
C701 C76 1.597 . S
C720 C134 1.540 . S
C737 C90 1.596 . S
C756 C148 1.537 . S
C773 C104 1.598 . S
C792 C162 1.532 . S
C809 C64 1.561 . S
C828 C118 1.589 . S
C845 C78 1.552 . S
C864 C132 1.585 . S
C881 C92 1.558 . S
C900 C146 1.604 . S
C917 C160 1.596 . S
C936 C106 1.536 . S
C953 C8 1.562 . S
C972 C174 1.594 . S
C989 C188 1.597 . S
C1008 C22 1.571 . S
C1025 C202 1.592 . S
C1044 C36 1.544 . S
C1061 C50 1.553 . S
C1080 C216 1.591 . S
C1097 C119 1.482 . S
C1116 C7 1.503 . S
C1133 C133 1.482 . S
C1152 C21 1.461 . S
C1169 C35 1.479 . S
C1188 C147 1.499 . S
C1205 C161 1.484 . S
C1224 C49 1.501 . S
C1241 C63 1.475 . S
C1260 C175 1.453 . S
C1277 C189 1.485 . S
C1296 C77 1.489 . S
C1313 C203 1.474 . S
C1332 C91 1.471 . S
C1349 C217 1.475 . S
C1368 C105 1.476 . S
