# Generated by pormake.
# Topology unc, (4)-cn, num edge types: 1
# Building blocks:
#     Node 0, Type 0, BuildingBlock: CEKHIL_clean_sbu_0, # of connection points: 4
#     Node 1, Type 0, BuildingBlock: CEKHIL_clean_sbu_0, # of connection points: 4
#     Node 2, Type 0, BuildingBlock: CEKHIL_clean_sbu_0, # of connection points: 4
#     Node 3, Type 0, BuildingBlock: CEKHIL_clean_sbu_0, # of connection points: 4
#     Edge 4, Type (0, 0), BuildingBlock: TEMPAE_clean_linker_10, # of connection points: 2
#     Edge 5, Type (0, 0), BuildingBlock: TEMPAE_clean_linker_10, # of connection points: 2
#     Edge 6, Type (0, 0), BuildingBlock: TEMPAE_clean_linker_10, # of connection points: 2
#     Edge 7, Type (0, 0), BuildingBlock: TEMPAE_clean_linker_10, # of connection points: 2
#     Edge 8, Type (0, 0), BuildingBlock: TEMPAE_clean_linker_10, # of connection points: 2
#     Edge 9, Type (0, 0), BuildingBlock: TEMPAE_clean_linker_10, # of connection points: 2
#     Edge 10, Type (0, 0), BuildingBlock: TEMPAE_clean_linker_10, # of connection points: 2
#     Edge 11, Type (0, 0), BuildingBlock: TEMPAE_clean_linker_10, # of connection points: 2
# Relax obj value: 0.004
# Max RMSD: 0.040
# Mean RMSD: 0.040
data_MOF--net-unc--node1-CEKHIL_clean_sbu_0--edge1-TEMPAE_clean_linker_10
_symmetry_space_group_name_H-M    P1
_symmetry_Int_Tables_number       1
_symmetry_cell_setting            triclinic
loop_
_symmetry_equiv_pos_as_xyz
'x, y, z'
_cell_length_a     30.047365
_cell_length_b     30.035666
_cell_length_c     22.285515
_cell_angle_alpha  89.959837
_cell_angle_beta   89.993607
_cell_angle_gamma 93.286394
loop_
_atom_site_label
_atom_site_type_symbol
_atom_site_fract_x
_atom_site_fract_y
_atom_site_fract_z
_atom_type_partial_charge
Co0 Co 0.00933 0.68716 0.96204 0.0
O1 O 0.99489 0.73383 0.90737 0.0
O2 O 0.95952 0.71868 0.99275 0.0
C3 C 0.01354 0.63375 0.89102 0.0
O4 O 0.01387 0.64081 0.02872 0.0
Co5 Co 0.09933 0.64261 0.95211 0.0
O6 O 0.07048 0.59768 0.00712 0.0
C7 C 0.09669 0.73249 0.0057 0.0
C8 C 0.96305 0.74256 0.94402 0.0
C9 C 0.03653 0.60635 0.03838 0.0
O10 O 0.05375 0.72938 0.0046 0.0
O11 O 0.12074 0.70309 0.98255 0.0
O12 O 0.97537 0.64307 0.91363 0.0
O13 O 0.04728 0.65914 0.90832 0.0
Co14 Co 0.34613 0.01971 0.29616 0.0
O15 O 0.30164 0.03502 0.35343 0.0
O16 O 0.31375 0.06947 0.26676 0.0
C17 C 0.40171 0.01563 0.36402 0.0
O18 O 0.39026 0.01434 0.22703 0.0
Co19 Co 0.3898 0.92926 0.30463 0.0
O20 O 0.4334 0.95747 0.24727 0.0
C21 C 0.29865 0.93237 0.25572 0.0
C22 C 0.29167 0.06661 0.31705 0.0
C23 C 0.42429 0.99136 0.21612 0.0
O24 O 0.30223 0.97532 0.25652 0.0
O25 O 0.32842 0.90808 0.27745 0.0
O26 O 0.39205 0.05372 0.34141 0.0
O27 O 0.37548 0.98193 0.34879 0.0
Co28 Co 0.02459 0.34528 0.46256 0.0
O29 O 0.03929 0.29861 0.4082 0.0
O30 O 0.07422 0.31365 0.49383 0.0
C31 C 0.02072 0.39868 0.3913 0.0
O32 O 0.01961 0.39179 0.52889 0.0
Co33 Co 0.93425 0.38915 0.45119 0.0
O34 O 0.96211 0.43379 0.50731 0.0
C35 C 0.93709 0.29954 0.50532 0.0
C36 C 0.07092 0.28977 0.44512 0.0
C37 C 0.99621 0.42573 0.53864 0.0
O38 O 0.98003 0.3031 0.50499 0.0
O39 O 0.91296 0.32853 0.48135 0.0
O40 O 0.05879 0.38927 0.41419 0.0
O41 O 0.98694 0.37323 0.40839 0.0
Co42 Co 0.68751 0.01246 0.79576 0.0
O43 O 0.73215 0.99699 0.85267 0.0
O44 O 0.72043 0.96333 0.76547 0.0
C45 C 0.63185 0.01533 0.86386 0.0
O46 O 0.64311 0.01823 0.72694 0.0
Co47 Co 0.6437 0.10278 0.80644 0.0
O48 O 0.60101 0.07591 0.74705 0.0
C49 C 0.73454 0.10053 0.75655 0.0
C50 C 0.74243 0.96584 0.81584 0.0
C51 C 0.60966 0.042 0.71568 0.0
O52 O 0.73104 0.05756 0.75668 0.0
O53 O 0.70484 0.1245 0.77906 0.0
O54 O 0.642 0.97759 0.84068 0.0
O55 O 0.65783 0.04936 0.84909 0.0
C56 C 0.036 0.53208 0.08864 0.0
C57 C 0.02519 0.57686 0.09017 0.0
C58 C 0.03034 0.50461 0.1393 0.0
C59 C 0.01427 0.52253 0.19338 0.0
C60 C 1.00186 0.56733 0.19473 0.0
C61 C 0.00707 0.5939 0.14285 0.0
C62 C 0.04313 0.45679 0.1355 0.0
C63 C 0.98516 0.58781 0.25169 0.0
C64 C 0.97765 0.43708 0.31225 0.0
C65 C 0.01707 0.43388 0.3453 0.0
C66 C 0.97552 0.46717 0.26409 0.0
C67 C 0.01358 0.49495 0.24908 0.0
C68 C 0.05268 0.49342 0.28437 0.0
C69 C 0.05402 0.46276 0.33182 0.0
C70 C 0.93328 0.46764 0.22751 0.0
C71 C 0.09381 0.52289 0.27048 0.0
H72 H 0.04961 0.51863 0.04787 0.0
H73 H 0.99896 0.62859 0.1444 0.0
H74 H 0.07243 0.45203 0.16461 0.0
H75 H 0.01546 0.43397 0.15203 0.0
H76 H 0.05155 0.44699 0.08899 0.0
H77 H 0.97308 0.62162 0.24403 0.0
H78 H 0.95772 0.5663 0.27148 0.0
H79 H 0.0125 0.59043 0.28519 0.0
H80 H 0.94892 0.41492 0.32258 0.0
H81 H 0.08445 0.46074 0.35755 0.0
H82 H 0.93937 0.45415 0.18209 0.0
H83 H 0.92304 0.50228 0.22172 0.0
H84 H 0.90534 0.44735 0.24845 0.0
H85 H 0.10799 0.51294 0.22685 0.0
H86 H 0.11992 0.52071 0.3055 0.0
H87 H 0.08512 0.55816 0.26629 0.0
C88 C 0.43516 0.97792 0.4517 0.0
C89 C 0.43766 0.01206 0.40872 0.0
C90 C 0.4656 0.97778 0.49957 0.0
C91 C 0.49993 0.01201 0.50361 0.0
C92 C 0.50439 0.04471 0.45782 0.0
C93 C 0.47281 0.0447 0.41137 0.0
C94 C 0.45918 0.94274 0.54787 0.0
C95 C 0.54116 0.08112 0.45951 0.0
C96 C 0.53973 0.05108 0.65731 0.0
C97 C 0.58077 0.03132 0.66285 0.0
C98 C 0.51292 0.0442 0.60633 0.0
C99 C 0.52744 0.01706 0.55914 0.0
C100 C 0.56837 0.9962 0.56471 0.0
C101 C 0.59449 0.0034 0.61668 0.0
C102 C 0.46932 0.06675 0.60258 0.0
C103 C 0.5851 0.96735 0.5151 0.0
H104 H 0.40794 0.95265 0.44979 0.0
H105 H 0.47511 0.07083 0.37772 0.0
H106 H 0.49116 0.92766 0.55808 0.0
H107 H 0.44778 0.95852 0.58973 0.0
H108 H 0.43414 0.91579 0.53496 0.0
H109 H 0.54371 0.1001 0.41672 0.0
H110 H 0.53468 0.10474 0.49632 0.0
H111 H 0.57371 0.06685 0.46878 0.0
H112 H 0.52855 0.07242 0.69281 0.0
H113 H 0.62618 0.98811 0.62039 0.0
H114 H 0.44152 0.04169 0.59373 0.0
H115 H 0.47043 0.09075 0.56467 0.0
H116 H 0.46182 0.08505 0.64435 0.0
H117 H 0.55953 0.94063 0.50354 0.0
H118 H 0.61645 0.95173 0.5275 0.0
H119 H 0.59125 0.98778 0.47411 0.0
C120 C 0.05508 0.59834 0.80805 0.0
C121 C 0.01743 0.59855 0.8452 0.0
C122 C 0.05682 0.56833 0.75983 0.0
C123 C 0.02033 0.53736 0.74922 0.0
C124 C 0.98338 0.53578 0.78884 0.0
C125 C 0.9822 0.56667 0.83599 0.0
C126 C 0.0966 0.57142 0.71837 0.0
C127 C 0.94417 0.50273 0.77989 0.0
C128 C 0.99192 0.49882 0.59103 0.0
C129 C 0.00707 0.45549 0.59039 0.0
C130 C 0.99761 0.52624 0.64166 0.0
C131 C 0.01845 0.50985 0.6935 0.0
C132 C 0.03511 0.46665 0.69265 0.0
C133 C 0.02951 0.44006 0.64087 0.0
C134 C 0.97998 0.57234 0.64025 0.0
C135 C 0.05713 0.44784 0.74722 0.0
H136 H 0.08243 0.62293 0.81502 0.0
H137 H 0.95323 0.56639 0.86502 0.0
H138 H 0.10949 0.53798 0.71111 0.0
H139 H 0.08636 0.58407 0.67396 0.0
H140 H 0.12403 0.59409 0.73605 0.0
H141 H 0.92044 0.50256 0.81814 0.0
H142 H 0.92603 0.51117 0.73842 0.0
H143 H 0.95579 0.46859 0.77414 0.0
H144 H 0.97494 0.51118 0.55202 0.0
H145 H 0.04109 0.40654 0.64085 0.0
H146 H 0.0065 0.5976 0.65366 0.0
H147 H 0.9523 0.57424 0.67294 0.0
H148 H 0.96746 0.58123 0.59515 0.0
H149 H 0.08399 0.47152 0.76391 0.0
H150 H 0.0715 0.41531 0.73782 0.0
H151 H 0.03225 0.44308 0.7838 0.0
C152 C 0.43607 0.02331 0.11265 0.0
C153 C 0.4531 0.00276 0.16365 0.0
C154 C 0.46218 0.02971 0.06054 0.0
C155 C 0.50651 0.01594 0.05995 0.0
C156 C 0.52437 0.99701 0.11227 0.0
C157 C 0.49738 0.99033 0.16317 0.0
C158 C 0.44179 0.04949 0.00543 0.0
C159 C 0.5717 0.98257 0.11399 0.0
C160 C 0.56578 0.98137 0.91859 0.0
C161 C 0.59579 0.0181 0.90873 0.0
C162 C 0.53463 0.98137 0.96554 0.0
C163 C 0.53386 0.01879 0.0041 0.0
C164 C 0.56264 0.05685 0.99254 0.0
C165 C 0.59312 0.05614 0.94471 0.0
C166 C 0.50403 0.94039 0.97562 0.0
C167 C 0.56303 0.09732 0.03268 0.0
H168 H 0.40179 0.03275 0.11262 0.0
H169 H 0.5109 0.97486 0.20264 0.0
H170 H 0.46366 0.07752 0.98787 0.0
H171 H 0.43863 0.02388 0.96958 0.0
H172 H 0.40825 0.06173 0.01454 0.0
H173 H 0.58146 0.97127 0.15935 0.0
H174 H 0.57544 0.95479 0.08193 0.0
H175 H 0.59521 0.01047 0.09994 0.0
H176 H 0.56737 0.95204 0.89051 0.0
H177 H 0.61616 0.0847 0.93718 0.0
H178 H 0.46912 0.94985 0.98128 0.0
H179 H 0.51374 0.92344 0.01748 0.0
H180 H 0.50529 0.91627 0.93797 0.0
H181 H 0.52866 0.1079 0.03978 0.0
H182 H 0.58373 0.12586 0.01395 0.0
H183 H 0.57657 0.08881 0.07731 0.0
C184 C 0.24896 0.86427 0.23646 0.0
C185 C 0.26014 0.90941 0.22457 0.0
C186 C 0.21696 0.84 0.20197 0.0
C187 C 0.19584 0.86115 0.15378 0.0
C188 C 0.20507 0.90733 0.1436 0.0
C189 C 0.23697 0.93101 0.17935 0.0
C190 C 0.20761 0.79101 0.21511 0.0
C191 C 0.1833 0.93113 0.09272 0.0
C192 C 0.16534 0.78074 0.02742 0.0
C193 C 0.11997 0.77015 0.03833 0.0
C194 C 0.18967 0.81224 0.06261 0.0
C195 C 0.16834 0.83352 0.11048 0.0
C196 C 0.12203 0.82474 0.1199 0.0
C197 C 0.0983 0.79327 0.0835 0.0
C198 C 0.23883 0.82107 0.05032 0.0
C199 C 0.09806 0.8467 0.17043 0.0
H200 H 0.26621 0.84743 0.27183 0.0
H201 H 0.24537 0.96588 0.16982 0.0
H202 H 0.17117 0.78298 0.21786 0.0
H203 H 0.22074 0.7709 0.17803 0.0
H204 H 0.22323 0.78071 0.25773 0.0
H205 H 0.18907 0.96792 0.0959 0.0
H206 H 0.19708 0.92 0.0494 0.0
H207 H 0.14687 0.92273 0.09195 0.0
H208 H 0.18226 0.76354 0.99212 0.0
H209 H 0.06326 0.78533 0.09229 0.0
H210 H 0.25845 0.80811 0.08804 0.0
H211 H 0.24716 0.85745 0.04709 0.0
H212 H 0.24945 0.805 0.0082 0.0
H213 H 0.10888 0.83294 0.21393 0.0
H214 H 0.06128 0.84109 0.16686 0.0
H215 H 0.10662 0.88311 0.17113 0.0
C216 C 0.25424 0.13855 0.30245 0.0
C217 C 0.25818 0.09869 0.33428 0.0
C218 C 0.22435 0.17015 0.32129 0.0
C219 C 0.19742 0.16138 0.37269 0.0
C220 C 0.20089 0.1209 0.40441 0.0
C221 C 0.23134 0.09023 0.38503 0.0
C222 C 0.22188 0.21311 0.28658 0.0
C223 C 0.17239 0.10993 0.45887 0.0
C224 C 0.14562 0.25715 0.45459 0.0
C225 C 0.10265 0.25555 0.42994 0.0
C226 C 0.17704 0.22701 0.43594 0.0
C227 C 0.16481 0.19397 0.39263 0.0
C228 C 0.12106 0.1916 0.36884 0.0
C229 C 0.09072 0.22267 0.38731 0.0
C230 C 0.22355 0.23101 0.46173 0.0
C231 C 0.10632 0.15632 0.32365 0.0
H232 H 0.2751 0.14544 0.26348 0.0
H233 H 0.23412 0.05947 0.40988 0.0
H234 H 0.18765 0.21608 0.26897 0.0
H235 H 0.22925 0.24197 0.31675 0.0
H236 H 0.24563 0.21527 0.24833 0.0
H237 H 0.17884 0.07681 0.4782 0.0
H238 H 0.1788 0.13566 0.49398 0.0
H239 H 0.13659 0.11019 0.44675 0.0
H240 H 0.15512 0.2828 0.48708 0.0
H241 H 0.05747 0.2212 0.36827 0.0
H242 H 0.24821 0.23671 0.42505 0.0
H243 H 0.23126 0.19947 0.48436 0.0
H244 H 0.22793 0.25875 0.49454 0.0
H245 H 0.12716 0.15988 0.28265 0.0
H246 H 0.0708 0.15832 0.31064 0.0
H247 H 0.11098 0.12266 0.34237 0.0
C248 C 0.79758 0.1018 0.68208 0.0
C249 C 0.77284 0.12386 0.7252 0.0
C250 C 0.82957 0.12539 0.64629 0.0
C251 C 0.83718 0.172 0.65418 0.0
C252 C 0.8143 0.19382 0.70016 0.0
C253 C 0.78238 0.16959 0.73485 0.0
C254 C 0.85331 0.10087 0.59786 0.0
C255 C 0.82182 0.24336 0.71074 0.0
C256 C 0.93494 0.24058 0.5856 0.0
C257 C 0.91392 0.26195 0.53822 0.0
C258 C 0.911 0.20944 0.62229 0.0
C259 C 0.86519 0.19913 0.61083 0.0
C260 C 0.84467 0.21852 0.56075 0.0
C261 C 0.86916 0.24983 0.52538 0.0
C262 C 0.93408 0.18957 0.67526 0.0
C263 C 0.79611 0.20793 0.54623 0.0
H264 H 0.79054 0.06648 0.67426 0.0
H265 H 0.76393 0.18687 0.76858 0.0
H266 H 0.84043 0.11045 0.5533 0.0
H267 H 0.88957 0.1102 0.59848 0.0
H268 H 0.84839 0.0641 0.60275 0.0
H269 H 0.80463 0.25446 0.75177 0.0
H270 H 0.85796 0.25257 0.71499 0.0
H271 H 0.80921 0.26187 0.67175 0.0
H272 H 0.96951 0.24977 0.59589 0.0
H273 H 0.85281 0.26571 0.48837 0.0
H274 H 0.92653 0.15302 0.67745 0.0
H275 H 0.92156 0.20411 0.71735 0.0
H276 H 0.97082 0.19617 0.67344 0.0
H277 H 0.78886 0.17132 0.5447 0.0
H278 H 0.78634 0.22243 0.50261 0.0
H279 H 0.77499 0.22139 0.582 0.0
C280 C 0.78377 0.8967 0.79686 0.0
C281 C 0.77606 0.93378 0.8328 0.0
C282 C 0.81394 0.86512 0.81501 0.0
C283 C 0.83705 0.87093 0.87018 0.0
C284 C 0.8297 0.90856 0.90621 0.0
C285 C 0.79931 0.9394 0.88717 0.0
C286 C 0.82076 0.8253 0.77547 0.0
C287 C 0.85388 0.91625 0.96505 0.0
C288 C 0.88675 0.77189 0.94731 0.0
C289 C 0.93127 0.77658 0.92855 0.0
C290 C 0.85548 0.80189 0.9278 0.0
C291 C 0.86945 0.83809 0.89009 0.0
C292 C 0.9147 0.84353 0.87241 0.0
C293 C 0.94489 0.81236 0.89116 0.0
C294 C 0.80737 0.79444 0.94666 0.0
C295 C 0.93125 0.8823 0.83368 0.0
H296 H 0.76581 0.89203 0.75496 0.0
H297 H 0.79358 0.96792 0.91533 0.0
H298 H 0.85629 0.82482 0.76211 0.0
H299 H 0.81241 0.79407 0.80071 0.0
H300 H 0.79999 0.82538 0.73423 0.0
H301 H 0.84487 0.94753 0.98741 0.0
H302 H 0.84595 0.88794 0.99596 0.0
H303 H 0.89044 0.91788 0.95748 0.0
H304 H 0.87604 0.74389 0.97556 0.0
H305 H 0.97936 0.81609 0.87671 0.0
H306 H 0.78576 0.7909 0.90637 0.0
H307 H 0.79672 0.82372 0.9721 0.0
H308 H 0.80171 0.7642 0.975 0.0
H309 H 0.91349 0.88119 0.79002 0.0
H310 H 0.96766 0.8823 0.825 0.0
H311 H 0.924 0.91421 0.8557 0.0
loop_
_geom_bond_atom_site_label_1
_geom_bond_atom_site_label_2
_geom_bond_distance
_geom_bond_site_symmetry_2
_ccdc_geom_bond_type
Co0 O1 2.216 1_554 S
Co0 O2 2.091 . S
Co0 O4 2.004 . S
Co0 O10 2.021 1_655 S
Co0 O12 2.137 1_554 S
Co0 O13 2.244 1_654 S
O1 Co0 2.216 1_556 S
O1 C8 1.247 . S
O2 Co0 2.091 . S
O2 C8 1.261 1_554 S
C3 O12 1.247 1_455 S
C3 O13 1.272 . S
O4 Co0 2.004 . S
O4 C9 1.259 1_655 S
Co5 O6 2.061 . S
Co5 O11 2.052 . S
Co5 O13 2.135 1_554 S
O6 Co5 2.061 . S
O6 C9 1.235 . S
C7 O10 1.238 . S
C7 O11 1.241 . S
C8 O1 1.247 . S
C8 O2 1.261 1_556 S
C9 O4 1.259 1_455 S
C9 O6 1.235 . S
O10 Co0 2.021 1_455 S
O10 C7 1.238 . S
O11 Co5 2.052 . S
O11 C7 1.241 . S
O12 Co0 2.137 1_556 S
O12 C3 1.247 1_655 S
O13 Co0 2.244 1_456 S
O13 C3 1.272 . S
O13 Co5 2.135 1_556 S
Co14 O15 2.216 . S
Co14 O16 2.091 . S
Co14 O18 2.004 . S
Co14 O24 2.021 1_545 S
Co14 O26 2.137 . S
Co14 O27 2.244 1_545 S
O15 Co14 2.216 . S
O15 C22 1.247 . S
O16 Co14 2.091 . S
O16 C22 1.261 . S
C17 O26 1.247 . S
C17 O27 1.272 1_545 S
O18 Co14 2.004 . S
O18 C23 1.259 . S
Co19 O20 2.061 . S
Co19 O25 2.052 . S
Co19 O27 2.135 . S
O20 Co19 2.061 . S
O20 C23 1.235 1_565 S
C21 O24 1.238 . S
C21 O25 1.241 . S
C22 O15 1.247 . S
C22 O16 1.261 . S
C23 O18 1.259 . S
C23 O20 1.235 1_545 S
O24 Co14 2.021 1_565 S
O24 C21 1.238 . S
O25 Co19 2.052 . S
O25 C21 1.241 . S
O26 Co14 2.137 . S
O26 C17 1.247 . S
O27 Co14 2.244 1_565 S
O27 C17 1.272 1_565 S
O27 Co19 2.135 . S
Co28 O29 2.216 . S
Co28 O30 2.091 . S
Co28 O32 2.004 . S
Co28 O38 2.021 1_455 S
Co28 O40 2.137 . S
Co28 O41 2.244 1_455 S
O29 Co28 2.216 . S
O29 C36 1.247 . S
O30 Co28 2.091 . S
O30 C36 1.261 . S
C31 O40 1.247 . S
C31 O41 1.272 1_455 S
O32 Co28 2.004 . S
O32 C37 1.259 . S
Co33 O34 2.061 . S
Co33 O39 2.052 . S
Co33 O41 2.135 . S
O34 Co33 2.061 . S
O34 C37 1.235 1_655 S
C35 O38 1.238 . S
C35 O39 1.241 . S
C36 O29 1.247 . S
C36 O30 1.261 . S
C37 O32 1.259 . S
C37 O34 1.235 1_455 S
O38 Co28 2.021 1_655 S
O38 C35 1.238 . S
O39 Co33 2.052 . S
O39 C35 1.241 . S
O40 Co28 2.137 . S
O40 C31 1.247 . S
O41 Co28 2.244 1_655 S
O41 C31 1.272 1_655 S
O41 Co33 2.135 . S
Co42 O43 2.216 . S
Co42 O44 2.091 . S
Co42 O46 2.004 . S
Co42 O52 2.021 1_565 S
Co42 O54 2.137 . S
Co42 O55 2.244 1_565 S
O43 Co42 2.216 . S
O43 C50 1.247 . S
O44 Co42 2.091 . S
O44 C50 1.261 . S
C45 O54 1.247 1_545 S
C45 O55 1.272 . S
O46 Co42 2.004 . S
O46 C51 1.259 1_565 S
Co47 O48 2.061 . S
Co47 O53 2.052 . S
Co47 O55 2.135 . S
O48 Co47 2.061 . S
O48 C51 1.235 . S
C49 O52 1.238 . S
C49 O53 1.241 . S
C50 O43 1.247 . S
C50 O44 1.261 . S
C51 O46 1.259 1_545 S
C51 O48 1.235 . S
O52 Co42 2.021 1_545 S
O52 C49 1.238 . S
O53 Co47 2.052 . S
O53 C49 1.241 . S
O54 Co42 2.137 . S
O54 C45 1.247 1_565 S
O55 Co42 2.244 1_545 S
O55 C45 1.272 . S
O55 Co47 2.135 . S
C56 C57 1.391 . S
C56 C58 1.394 . S
C56 H72 0.931 1_455 S
C57 C56 1.391 . S
C57 C61 1.376 . S
C58 C56 1.394 . S
C58 C59 1.369 . S
C58 C62 1.531 1_455 S
C59 C58 1.369 . S
C59 C60 1.410 . S
C59 C67 1.503 . S
C60 C59 1.410 . S
C60 C61 1.392 . S
C60 C63 1.511 . S
C61 C57 1.376 . S
C61 C60 1.392 . S
C61 H73 0.929 . S
C62 C58 1.531 1_655 S
C62 H74 0.960 1_655 S
C62 H75 0.962 . S
C62 H76 0.960 1_655 S
C63 C60 1.511 . S
C63 H77 0.961 . S
C63 H78 0.961 . S
C63 H79 0.961 . S
C64 C65 1.370 1_655 S
C64 C66 1.363 . S
C64 H80 0.931 . S
C65 C64 1.370 1_455 S
C65 C69 1.408 . S
C66 C64 1.363 . S
C66 C67 1.370 1_655 S
C66 C70 1.524 . S
C67 C59 1.503 . S
C67 C66 1.370 1_455 S
C67 C68 1.403 . S
C68 C67 1.403 . S
C68 C69 1.404 . S
C68 C71 1.539 . S
C69 C65 1.408 . S
C69 C68 1.404 . S
C69 H81 0.930 . S
C70 C66 1.524 . S
C70 H82 0.956 . S
C70 H83 0.961 . S
C70 H84 0.961 . S
C71 C68 1.539 . S
C71 H85 0.958 . S
C71 H86 0.961 . S
C71 H87 0.960 . S
H72 C56 0.931 1_655 S
H73 C61 0.929 . S
H74 C62 0.960 1_455 S
H75 C62 0.962 . S
H76 C62 0.960 1_455 S
H77 C63 0.961 . S
H78 C63 0.961 . S
H79 C63 0.961 . S
H80 C64 0.931 . S
H81 C69 0.930 . S
H82 C70 0.956 . S
H83 C70 0.961 . S
H84 C70 0.961 . S
H85 C71 0.958 . S
H86 C71 0.961 . S
H87 C71 0.960 . S
C88 C89 1.391 1_565 S
C88 C90 1.394 . S
C88 H104 0.931 . S
C89 C88 1.391 1_545 S
C89 C93 1.376 . S
C90 C88 1.394 . S
C90 C91 1.368 1_565 S
C90 C94 1.531 . S
C91 C90 1.368 1_545 S
C91 C92 1.411 . S
C91 C99 1.503 . S
C92 C91 1.411 . S
C92 C93 1.392 . S
C92 C95 1.511 . S
C93 C89 1.376 . S
C93 C92 1.392 . S
C93 H105 0.929 . S
C94 C90 1.531 . S
C94 H106 0.960 . S
C94 H107 0.962 1_565 S
C94 H108 0.960 . S
C95 C92 1.511 . S
C95 H109 0.961 . S
C95 H110 0.961 . S
C95 H111 0.961 1_545 S
C96 C97 1.370 . S
C96 C98 1.363 . S
C96 H112 0.931 . S
C97 C96 1.370 . S
C97 C101 1.408 1_545 S
C98 C96 1.363 . S
C98 C99 1.370 . S
C98 C102 1.524 . S
C99 C91 1.503 . S
C99 C98 1.370 . S
C99 C100 1.403 1_545 S
C100 C99 1.403 1_565 S
C100 C101 1.404 . S
C100 C103 1.539 . S
C101 C97 1.408 1_565 S
C101 C100 1.404 . S
C101 H113 0.930 . S
C102 C98 1.524 . S
C102 H114 0.956 . S
C102 H115 0.961 . S
C102 H116 0.961 . S
C103 C100 1.539 . S
C103 H117 0.958 . S
C103 H118 0.961 . S
C103 H119 0.960 . S
H104 C88 0.931 . S
H105 C93 0.929 . S
H106 C94 0.960 . S
H107 C94 0.962 1_545 S
H108 C94 0.960 . S
H109 C95 0.961 . S
H110 C95 0.961 . S
H111 C95 0.961 1_565 S
H112 C96 0.931 . S
H113 C101 0.930 . S
H114 C102 0.956 . S
H115 C102 0.961 . S
H116 C102 0.961 . S
H117 C103 0.958 . S
H118 C103 0.961 . S
H119 C103 0.960 . S
C120 C121 1.391 . S
C120 C122 1.394 . S
C120 H136 0.931 . S
C121 C120 1.391 . S
C121 C125 1.376 1_455 S
C122 C120 1.394 . S
C122 C123 1.369 . S
C122 C126 1.531 . S
C123 C122 1.369 . S
C123 C124 1.418 . S
C123 C131 1.503 . S
C124 C123 1.418 . S
C124 C125 1.391 1_455 S
C124 C127 1.504 1_455 S
C125 C121 1.376 1_655 S
C125 C124 1.391 1_655 S
C125 H137 0.929 . S
C126 C122 1.531 . S
C126 H138 0.960 . S
C126 H139 0.962 . S
C126 H140 0.960 . S
C127 C124 1.504 1_655 S
C127 H141 0.961 . S
C127 H142 0.961 . S
C127 H143 0.961 . S
C128 C129 1.370 1_655 S
C128 C130 1.363 . S
C128 H144 0.931 . S
C129 C128 1.370 1_455 S
C129 C133 1.408 . S
C130 C128 1.363 . S
C130 C131 1.370 1_655 S
C130 C134 1.524 . S
C131 C123 1.503 . S
C131 C130 1.370 1_455 S
C131 C132 1.403 . S
C132 C131 1.403 . S
C132 C133 1.404 . S
C132 C135 1.539 . S
C133 C129 1.408 . S
C133 C132 1.404 . S
C133 H145 0.930 . S
C134 C130 1.524 . S
C134 H146 0.956 . S
C134 H147 0.961 . S
C134 H148 0.961 . S
C135 C132 1.539 . S
C135 H149 0.958 . S
C135 H150 0.961 . S
C135 H151 0.960 . S
H136 C120 0.931 . S
H137 C125 0.929 . S
H138 C126 0.960 . S
H139 C126 0.962 . S
H140 C126 0.960 . S
H141 C127 0.961 . S
H142 C127 0.961 . S
H143 C127 0.961 . S
H144 C128 0.931 . S
H145 C133 0.930 . S
H146 C134 0.956 . S
H147 C134 0.961 . S
H148 C134 0.961 . S
H149 C135 0.958 . S
H150 C135 0.961 . S
H151 C135 0.960 . S
C152 C153 1.391 . S
C152 C154 1.394 . S
C152 H168 0.931 . S
C153 C152 1.391 . S
C153 C157 1.376 . S
C154 C152 1.394 . S
C154 C155 1.369 . S
C154 C158 1.531 1_554 S
C155 C154 1.369 . S
C155 C156 1.410 . S
C155 C163 1.503 1_554 S
C156 C155 1.410 . S
C156 C157 1.392 . S
C156 C159 1.511 . S
C157 C153 1.376 . S
C157 C156 1.392 . S
C157 H169 0.929 . S
C158 C154 1.531 1_556 S
C158 H170 0.960 . S
C158 H171 0.962 . S
C158 H172 0.960 . S
C159 C156 1.511 . S
C159 H173 0.961 1_545 S
C159 H174 0.970 . S
C159 H175 0.961 . S
C160 C161 1.370 1_565 S
C160 C162 1.363 . S
C160 H176 0.931 . S
C161 C160 1.370 1_545 S
C161 C165 1.408 . S
C162 C160 1.363 . S
C162 C163 1.370 1_565 S
C162 C166 1.524 . S
C163 C155 1.503 1_556 S
C163 C162 1.370 1_545 S
C163 C164 1.403 . S
C164 C163 1.403 . S
C164 C165 1.404 . S
C164 C167 1.539 . S
C165 C161 1.408 . S
C165 C164 1.404 . S
C165 H177 0.930 . S
C166 C162 1.524 . S
C166 H178 0.956 . S
C166 H179 0.961 1_556 S
C166 H180 0.961 . S
C167 C164 1.539 . S
C167 H181 0.958 . S
C167 H182 0.961 . S
C167 H183 0.960 1_556 S
H168 C152 0.931 . S
H169 C157 0.929 . S
H170 C158 0.960 . S
H171 C158 0.962 . S
H172 C158 0.960 . S
H173 C159 0.961 1_565 S
H174 C159 0.970 . S
H175 C159 0.961 . S
H176 C160 0.931 . S
H177 C165 0.930 . S
H178 C166 0.956 . S
H179 C166 0.961 1_554 S
H180 C166 0.961 . S
H181 C167 0.958 . S
H182 C167 0.961 . S
H183 C167 0.960 1_554 S
C184 C185 1.391 . S
C184 C186 1.394 . S
C184 H200 0.931 . S
C185 C184 1.391 . S
C185 C189 1.376 . S
C186 C184 1.394 . S
C186 C187 1.369 . S
C186 C190 1.531 . S
C187 C186 1.369 . S
C187 C188 1.410 . S
C187 C195 1.503 . S
C188 C187 1.410 . S
C188 C189 1.392 . S
C188 C191 1.511 . S
C189 C185 1.376 . S
C189 C188 1.392 . S
C189 H201 0.929 . S
C190 C186 1.531 . S
C190 H202 0.960 . S
C190 H203 0.962 . S
C190 H204 0.960 . S
C191 C188 1.511 . S
C191 H205 0.961 . S
C191 H206 0.961 . S
C191 H207 0.961 . S
C192 C193 1.370 . S
C192 C194 1.363 . S
C192 H208 0.931 . S
C193 C192 1.370 . S
C193 C197 1.408 . S
C194 C192 1.363 . S
C194 C195 1.370 . S
C194 C198 1.524 . S
C195 C187 1.503 . S
C195 C194 1.370 . S
C195 C196 1.403 . S
C196 C195 1.403 . S
C196 C197 1.404 . S
C196 C199 1.539 . S
C197 C193 1.408 . S
C197 C196 1.404 . S
C197 H209 0.930 . S
C198 C194 1.524 . S
C198 H210 0.956 . S
C198 H211 0.961 . S
C198 H212 0.961 . S
C199 C196 1.539 . S
C199 H213 0.958 . S
C199 H214 0.961 . S
C199 H215 0.960 . S
H200 C184 0.931 . S
H201 C189 0.929 . S
H202 C190 0.960 . S
H203 C190 0.962 . S
H204 C190 0.960 . S
H205 C191 0.961 . S
H206 C191 0.961 . S
H207 C191 0.961 . S
H208 C192 0.931 . S
H209 C197 0.930 . S
H210 C198 0.956 . S
H211 C198 0.961 . S
H212 C198 0.961 . S
H213 C199 0.958 . S
H214 C199 0.961 . S
H215 C199 0.960 . S
C216 C217 1.391 . S
C216 C218 1.394 . S
C216 H232 0.931 . S
C217 C216 1.391 . S
C217 C221 1.376 . S
C218 C216 1.394 . S
C218 C219 1.369 . S
C218 C222 1.531 . S
C219 C218 1.369 . S
C219 C220 1.410 . S
C219 C227 1.503 . S
C220 C219 1.410 . S
C220 C221 1.392 . S
C220 C223 1.511 . S
C221 C217 1.376 . S
C221 C220 1.392 . S
C221 H233 0.929 . S
C222 C218 1.531 . S
C222 H234 0.960 . S
C222 H235 0.962 . S
C222 H236 0.960 . S
C223 C220 1.511 . S
C223 H237 0.961 . S
C223 H238 0.961 . S
C223 H239 0.961 . S
C224 C225 1.370 . S
C224 C226 1.363 . S
C224 H240 0.931 . S
C225 C224 1.370 . S
C225 C229 1.408 . S
C226 C224 1.363 . S
C226 C227 1.370 . S
C226 C230 1.524 . S
C227 C219 1.503 . S
C227 C226 1.370 . S
C227 C228 1.403 . S
C228 C227 1.403 . S
C228 C229 1.404 . S
C228 C231 1.539 . S
C229 C225 1.408 . S
C229 C228 1.404 . S
C229 H241 0.930 . S
C230 C226 1.524 . S
C230 H242 0.956 . S
C230 H243 0.961 . S
C230 H244 0.961 . S
C231 C228 1.539 . S
C231 H245 0.958 . S
C231 H246 0.961 . S
C231 H247 0.960 . S
H232 C216 0.931 . S
H233 C221 0.929 . S
H234 C222 0.960 . S
H235 C222 0.962 . S
H236 C222 0.960 . S
H237 C223 0.961 . S
H238 C223 0.961 . S
H239 C223 0.961 . S
H240 C224 0.931 . S
H241 C229 0.930 . S
H242 C230 0.956 . S
H243 C230 0.961 . S
H244 C230 0.961 . S
H245 C231 0.958 . S
H246 C231 0.961 . S
H247 C231 0.960 . S
C248 C249 1.391 . S
C248 C250 1.394 . S
C248 H264 0.931 . S
C249 C248 1.391 . S
C249 C253 1.376 . S
C250 C248 1.394 . S
C250 C251 1.369 . S
C250 C254 1.531 . S
C251 C250 1.369 . S
C251 C252 1.410 . S
C251 C259 1.503 . S
C252 C251 1.410 . S
C252 C253 1.392 . S
C252 C255 1.511 . S
C253 C249 1.376 . S
C253 C252 1.392 . S
C253 H265 0.929 . S
C254 C250 1.531 . S
C254 H266 0.960 . S
C254 H267 0.962 . S
C254 H268 0.960 . S
C255 C252 1.511 . S
C255 H269 0.961 . S
C255 H270 0.961 . S
C255 H271 0.961 . S
C256 C257 1.370 . S
C256 C258 1.363 . S
C256 H272 0.931 . S
C257 C256 1.370 . S
C257 C261 1.408 . S
C258 C256 1.363 . S
C258 C259 1.370 . S
C258 C262 1.524 . S
C259 C251 1.503 . S
C259 C258 1.370 . S
C259 C260 1.403 . S
C260 C259 1.403 . S
C260 C261 1.404 . S
C260 C263 1.539 . S
C261 C257 1.408 . S
C261 C260 1.404 . S
C261 H273 0.930 . S
C262 C258 1.524 . S
C262 H274 0.956 . S
C262 H275 0.961 . S
C262 H276 0.961 . S
C263 C260 1.539 . S
C263 H277 0.958 . S
C263 H278 0.961 . S
C263 H279 0.960 . S
H264 C248 0.931 . S
H265 C253 0.929 . S
H266 C254 0.960 . S
H267 C254 0.962 . S
H268 C254 0.960 . S
H269 C255 0.961 . S
H270 C255 0.961 . S
H271 C255 0.961 . S
H272 C256 0.931 . S
H273 C261 0.930 . S
H274 C262 0.956 . S
H275 C262 0.961 . S
H276 C262 0.961 . S
H277 C263 0.958 . S
H278 C263 0.961 . S
H279 C263 0.960 . S
C280 C281 1.391 . S
C280 C282 1.394 . S
C280 H296 0.931 . S
C281 C280 1.391 . S
C281 C285 1.376 . S
C282 C280 1.394 . S
C282 C283 1.369 . S
C282 C286 1.531 . S
C283 C282 1.369 . S
C283 C284 1.410 . S
C283 C291 1.503 . S
C284 C283 1.410 . S
C284 C285 1.392 . S
C284 C287 1.511 . S
C285 C281 1.376 . S
C285 C284 1.392 . S
C285 H297 0.929 . S
C286 C282 1.531 . S
C286 H298 0.960 . S
C286 H299 0.962 . S
C286 H300 0.960 . S
C287 C284 1.511 . S
C287 H301 0.961 . S
C287 H302 0.961 . S
C287 H303 0.961 . S
C288 C289 1.370 . S
C288 C290 1.363 . S
C288 H304 0.931 . S
C289 C288 1.370 . S
C289 C293 1.408 . S
C290 C288 1.363 . S
C290 C291 1.370 . S
C290 C294 1.524 . S
C291 C283 1.503 . S
C291 C290 1.370 . S
C291 C292 1.403 . S
C292 C291 1.403 . S
C292 C293 1.404 . S
C292 C295 1.539 . S
C293 C289 1.408 . S
C293 C292 1.404 . S
C293 H305 0.930 . S
C294 C290 1.524 . S
C294 H306 0.956 . S
C294 H307 0.961 . S
C294 H308 0.961 . S
C295 C292 1.539 . S
C295 H309 0.958 . S
C295 H310 0.961 . S
C295 H311 0.960 . S
H296 C280 0.931 . S
H297 C285 0.929 . S
H298 C286 0.960 . S
H299 C286 0.962 . S
H300 C286 0.960 . S
H301 C287 0.961 . S
H302 C287 0.961 . S
H303 C287 0.961 . S
H304 C288 0.931 . S
H305 C293 0.930 . S
H306 C294 0.956 . S
H307 C294 0.961 . S
H308 C294 0.961 . S
H309 C295 0.958 . S
H310 C295 0.961 . S
H311 C295 0.960 . S
C57 C9 1.378 . S
C65 C31 1.413 . S
C89 C17 1.422 . S
C97 C51 1.410 . S
C121 C3 1.419 . S
C129 C37 1.410 . S
C153 C23 1.413 . S
C161 C45 1.421 . S
C185 C21 1.480 . S
C193 C7 1.472 . S
C217 C22 1.488 . S
C225 C36 1.489 . S
C249 C49 1.449 . S
C257 C35 1.462 . S
C281 C50 1.486 . S
C289 C8 1.490 . S
