# Generated by pormake.
# Topology neb, (4)-cn, num edge types: 1
# Building blocks:
#     Node 0, Type 0, BuildingBlock: AZAVOO_clean_sbu_0, # of connection points: 4
#     Node 1, Type 0, BuildingBlock: AZAVOO_clean_sbu_0, # of connection points: 4
#     Node 2, Type 0, BuildingBlock: AZAVOO_clean_sbu_0, # of connection points: 4
#     Node 3, Type 0, BuildingBlock: AZAVOO_clean_sbu_0, # of connection points: 4
#     Node 4, Type 0, BuildingBlock: AZAVOO_clean_sbu_0, # of connection points: 4
#     Node 5, Type 0, BuildingBlock: AZAVOO_clean_sbu_0, # of connection points: 4
#     Node 6, Type 0, BuildingBlock: AZAVOO_clean_sbu_0, # of connection points: 4
#     Node 7, Type 0, BuildingBlock: AZAVOO_clean_sbu_0, # of connection points: 4
#     Node 8, Type 0, BuildingBlock: AZAVOO_clean_sbu_0, # of connection points: 4
#     Node 9, Type 0, BuildingBlock: AZAVOO_clean_sbu_0, # of connection points: 4
#     Node 10, Type 0, BuildingBlock: AZAVOO_clean_sbu_0, # of connection points: 4
#     Node 11, Type 0, BuildingBlock: AZAVOO_clean_sbu_0, # of connection points: 4
#     Node 12, Type 0, BuildingBlock: AZAVOO_clean_sbu_0, # of connection points: 4
#     Node 13, Type 0, BuildingBlock: AZAVOO_clean_sbu_0, # of connection points: 4
#     Node 14, Type 0, BuildingBlock: AZAVOO_clean_sbu_0, # of connection points: 4
#     Node 15, Type 0, BuildingBlock: AZAVOO_clean_sbu_0, # of connection points: 4
#     Edge 16, Type (0, 0), BuildingBlock: TEMPAE_clean_linker_10, # of connection points: 2
#     Edge 17, Type (0, 0), BuildingBlock: TEMPAE_clean_linker_10, # of connection points: 2
#     Edge 18, Type (0, 0), BuildingBlock: TEMPAE_clean_linker_10, # of connection points: 2
#     Edge 19, Type (0, 0), BuildingBlock: TEMPAE_clean_linker_10, # of connection points: 2
#     Edge 20, Type (0, 0), BuildingBlock: TEMPAE_clean_linker_10, # of connection points: 2
#     Edge 21, Type (0, 0), BuildingBlock: TEMPAE_clean_linker_10, # of connection points: 2
#     Edge 22, Type (0, 0), BuildingBlock: TEMPAE_clean_linker_10, # of connection points: 2
#     Edge 23, Type (0, 0), BuildingBlock: TEMPAE_clean_linker_10, # of connection points: 2
#     Edge 24, Type (0, 0), BuildingBlock: TEMPAE_clean_linker_10, # of connection points: 2
#     Edge 25, Type (0, 0), BuildingBlock: TEMPAE_clean_linker_10, # of connection points: 2
#     Edge 26, Type (0, 0), BuildingBlock: TEMPAE_clean_linker_10, # of connection points: 2
#     Edge 27, Type (0, 0), BuildingBlock: TEMPAE_clean_linker_10, # of connection points: 2
#     Edge 28, Type (0, 0), BuildingBlock: TEMPAE_clean_linker_10, # of connection points: 2
#     Edge 29, Type (0, 0), BuildingBlock: TEMPAE_clean_linker_10, # of connection points: 2
#     Edge 30, Type (0, 0), BuildingBlock: TEMPAE_clean_linker_10, # of connection points: 2
#     Edge 31, Type (0, 0), BuildingBlock: TEMPAE_clean_linker_10, # of connection points: 2
#     Edge 32, Type (0, 0), BuildingBlock: TEMPAE_clean_linker_10, # of connection points: 2
#     Edge 33, Type (0, 0), BuildingBlock: TEMPAE_clean_linker_10, # of connection points: 2
#     Edge 34, Type (0, 0), BuildingBlock: TEMPAE_clean_linker_10, # of connection points: 2
#     Edge 35, Type (0, 0), BuildingBlock: TEMPAE_clean_linker_10, # of connection points: 2
#     Edge 36, Type (0, 0), BuildingBlock: TEMPAE_clean_linker_10, # of connection points: 2
#     Edge 37, Type (0, 0), BuildingBlock: TEMPAE_clean_linker_10, # of connection points: 2
#     Edge 38, Type (0, 0), BuildingBlock: TEMPAE_clean_linker_10, # of connection points: 2
#     Edge 39, Type (0, 0), BuildingBlock: TEMPAE_clean_linker_10, # of connection points: 2
#     Edge 40, Type (0, 0), BuildingBlock: TEMPAE_clean_linker_10, # of connection points: 2
#     Edge 41, Type (0, 0), BuildingBlock: TEMPAE_clean_linker_10, # of connection points: 2
#     Edge 42, Type (0, 0), BuildingBlock: TEMPAE_clean_linker_10, # of connection points: 2
#     Edge 43, Type (0, 0), BuildingBlock: TEMPAE_clean_linker_10, # of connection points: 2
#     Edge 44, Type (0, 0), BuildingBlock: TEMPAE_clean_linker_10, # of connection points: 2
#     Edge 45, Type (0, 0), BuildingBlock: TEMPAE_clean_linker_10, # of connection points: 2
#     Edge 46, Type (0, 0), BuildingBlock: TEMPAE_clean_linker_10, # of connection points: 2
#     Edge 47, Type (0, 0), BuildingBlock: TEMPAE_clean_linker_10, # of connection points: 2
# Relax obj value: 0.097
# Max RMSD: 0.145
# Mean RMSD: 0.145
data_MOF--net-neb--node1-AZAVOO_clean_sbu_0--edge1-TEMPAE_clean_linker_10
_symmetry_space_group_name_H-M    P1
_symmetry_Int_Tables_number       1
_symmetry_cell_setting            triclinic
loop_
_symmetry_equiv_pos_as_xyz
'x, y, z'
_cell_length_a     49.627138
_cell_length_b     20.604982
_cell_length_c     73.606906
_cell_angle_alpha  98.436152
_cell_angle_beta   89.978075
_cell_angle_gamma 90.091685
loop_
_atom_site_label
_atom_site_type_symbol
_atom_site_fract_x
_atom_site_fract_y
_atom_site_fract_z
_atom_type_partial_charge
Mg0 Mg 0.08938 0.22494 0.44626 0.0
O1 O 0.10171 0.15323 0.42096 0.0
O2 O 0.1229 0.20543 0.40068 0.0
Mg3 Mg 0.12291 0.31479 0.41327 0.0
C4 C 0.11376 0.1528 0.40566 0.0
C5 C 0.06165 0.09916 0.45198 0.0
O6 O 0.05493 0.10775 0.43524 0.0
O7 O 0.13331 0.23084 0.45599 0.0
O8 O 0.15088 0.29341 0.43643 0.0
O9 O 0.05048 0.24606 0.43283 0.0
O10 O 0.08848 0.30155 0.43121 0.0
C11 C 0.15289 0.26321 0.45035 0.0
C12 C 0.06365 0.29241 0.42665 0.0
O13 O 0.0782 0.13902 0.46086 0.0
Mg14 Mg 0.10235 0.01728 0.78803 0.0
O15 O 0.11176 0.09748 0.81226 0.0
O16 O 0.13479 0.05208 0.83316 0.0
Mg17 Mg 0.13844 0.94157 0.82269 0.0
C18 C 0.12405 0.10199 0.82763 0.0
C19 C 0.0663 0.07241 0.76307 0.0
O20 O 0.05923 0.01124 0.76365 0.0
O21 O 0.14626 0.01742 0.77834 0.0
O22 O 0.16547 0.96189 0.79894 0.0
O23 O 0.06422 0.99242 0.80181 0.0
O24 O 0.10373 0.9449 0.80448 0.0
C25 C 0.16663 0.98926 0.78446 0.0
C26 C 0.07866 0.95004 0.80876 0.0
O27 O 0.08777 0.09386 0.77127 0.0
Mg28 Mg 0.88551 0.82348 0.54312 0.0
O29 O 0.87607 0.91783 0.56326 0.0
O30 O 0.84644 0.89024 0.58365 0.0
Mg31 Mg 0.83686 0.78085 0.57669 0.0
C32 C 0.86123 0.9328 0.57746 0.0
C33 C 0.92872 0.85059 0.51767 0.0
O34 O 0.93309 0.79159 0.52181 0.0
O35 O 0.84519 0.82747 0.5286 0.0
O36 O 0.81682 0.7976 0.5496 0.0
O37 O 0.91816 0.79958 0.56158 0.0
O38 O 0.87591 0.76554 0.56273 0.0
C39 C 0.82153 0.81384 0.53379 0.0
C40 C 0.89993 0.7681 0.56938 0.0
O41 O 0.90779 0.88134 0.52405 0.0
Mg42 Mg 0.90317 0.92821 0.1887 0.0
O43 O 0.8897 0.84221 0.16709 0.0
O44 O 0.85961 0.87847 0.14849 0.0
Mg45 Mg 0.85408 0.98851 0.15826 0.0
C46 C 0.87368 0.83222 0.15339 0.0
C47 C 0.93463 0.87467 0.21963 0.0
O48 O 0.93074 0.93518 0.22768 0.0
O49 O 0.86359 0.92666 0.20436 0.0
O50 O 0.83503 0.96709 0.18524 0.0
O51 O 0.93533 0.95381 0.16997 0.0
O52 O 0.89409 -0.0048 0.17142 0.0
C53 C 0.84011 0.94555 0.20029 0.0
C54 C 0.91762 0.9916 0.16398 0.0
O55 O 0.92393 0.85579 0.20411 0.0
Mg56 Mg 0.11492 0.66233 0.93781 0.0
O57 O 0.12294 0.56932 0.91714 0.0
O58 O 0.14934 0.59843 0.89514 0.0
Mg59 Mg 0.15603 0.70996 0.90073 0.0
C60 C 0.13633 0.55494 0.90227 0.0
C61 C 0.07538 0.63185 0.96452 0.0
O62 O 0.07109 0.69178 0.96107 0.0
O63 O 0.15787 0.6619 0.94923 0.0
O64 O 0.18006 0.70309 0.92694 0.0
O65 O 0.07859 0.68458 0.92194 0.0
O66 O 0.11959 0.7212 0.91765 0.0
C67 C 0.17927 0.68481 0.94279 0.0
C68 C 0.09461 0.71797 0.91299 0.0
O69 O 0.0964 0.60202 0.95793 0.0
Mg70 Mg 0.11442 0.58278 0.3009 0.0
O71 O 0.12244 0.68009 0.31965 0.0
O72 O 0.14833 0.65769 0.34272 0.0
Mg73 Mg 0.15399 0.5459 0.3399 0.0
C74 C 0.1357 0.69855 0.33437 0.0
C75 C 0.07649 0.60884 0.27231 0.0
O76 O 0.0702 0.5517 0.2771 0.0
O77 O 0.15767 0.57851 0.29009 0.0
O78 O 0.17893 0.54236 0.31354 0.0
O79 O 0.07722 0.56667 0.31665 0.0
O80 O 0.11763 0.53102 0.32285 0.0
C81 C 0.17861 0.55624 0.29718 0.0
C82 C 0.09243 0.53627 0.3269 0.0
O83 O 0.09783 0.63733 0.27888 0.0
Mg84 Mg 0.89553 0.30019 0.03604 0.0
O85 O 0.88477 0.37952 0.05997 0.0
O86 O 0.85891 0.33646 0.07988 0.0
Mg87 Mg 0.85459 0.22627 0.06884 0.0
C88 C 0.87118 0.38531 0.07482 0.0
C89 C 0.92489 0.36239 0.0062 0.0
O90 O 0.92422 0.3007 -0.00149 0.0
O91 O 0.85289 0.30238 0.02413 0.0
O92 O 0.83093 0.24691 0.04363 0.0
O93 O 0.93158 0.27274 0.05146 0.0
O94 O 0.89125 0.2272 0.0522 0.0
C95 C 0.83171 0.27414 0.02911 0.0
C96 C 0.9158 0.23121 0.05776 0.0
O97 O 0.91213 0.37936 0.02108 0.0
Mg98 Mg 0.89731 0.45409 0.69725 0.0
O99 O 0.88619 0.37868 0.67216 0.0
O100 O 0.85796 0.42403 0.65414 0.0
Mg101 Mg 0.85026 0.52902 0.66835 0.0
C102 C 0.87182 0.37527 0.65767 0.0
C103 C 0.92833 0.3835 0.72527 0.0
O104 O 0.92456 0.44035 0.73561 0.0
O105 O 0.85655 0.44078 0.71056 0.0
O106 O 0.82933 0.48921 0.69227 0.0
O107 O 0.93037 0.49154 0.68128 0.0
O108 O 0.88877 0.53115 0.68329 0.0
C109 C 0.83322 0.45951 0.70611 0.0
C110 C 0.91267 0.53204 0.67657 0.0
O111 O 0.91767 0.37287 0.70945 0.0
Mg112 Mg 0.60792 0.17346 0.93726 0.0
O113 O 0.6178 0.08161 0.91656 0.0
O114 O 0.64544 0.11072 0.89526 0.0
Mg115 Mg 0.65225 0.22178 0.902 0.0
C116 C 0.63195 0.06721 0.90204 0.0
C117 C 0.57664 0.13485 0.96999 0.0
O118 O 0.57628 0.19915 0.97391 0.0
O119 O 0.64965 0.17444 0.95009 0.0
O120 O 0.67536 0.20877 0.92832 0.0
O121 O 0.57292 0.19528 0.92034 0.0
O122 O 0.61421 0.23354 0.91765 0.0
C123 C 0.67241 0.19178 0.94422 0.0
C124 C 0.5896 0.2295 0.91206 0.0
O125 O 0.58997 0.1083 0.95616 0.0
Mg126 Mg 0.62186 0.06901 0.29325 0.0
O127 O 0.62952 0.16308 0.31355 0.0
O128 O 0.65604 0.13616 0.33575 0.0
Mg129 Mg 0.66292 0.02461 0.33067 0.0
C130 C 0.64289 0.17875 0.32838 0.0
C131 C 0.58294 0.09756 0.26577 0.0
O132 O 0.57872 0.03739 0.26907 0.0
O133 O 0.66481 0.07006 0.28199 0.0
O134 O 0.68716 0.03006 0.30437 0.0
O135 O 0.58541 0.04703 0.30898 0.0
O136 O 0.62636 0.01154 0.31385 0.0
C137 C 0.68627 0.04782 0.28846 0.0
C138 C 0.60128 0.01471 0.31831 0.0
O139 O 0.60362 0.12799 0.27278 0.0
Mg140 Mg 0.39368 0.80997 0.04507 0.0
O141 O 0.38024 0.89941 0.06562 0.0
O142 O 0.34906 0.86581 0.08402 0.0
Mg143 Mg 0.34179 0.75622 0.07494 0.0
C144 C 0.36387 0.91089 0.07911 0.0
C145 C 0.44191 0.86255 0.02771 0.0
O146 O 0.45034 0.81074 0.03452 0.0
O147 O 0.3552 0.81147 0.02821 0.0
O148 O 0.32501 0.7759 0.0472 0.0
O149 O 0.42389 0.78613 0.06537 0.0
O150 O 0.38241 0.74632 0.06301 0.0
C151 C 0.33123 0.79488 0.03197 0.0
C152 C 0.40531 0.75045 0.07127 0.0
O153 O 0.41702 0.87704 0.02884 0.0
Mg154 Mg 0.39289 0.9348 0.69188 0.0
O155 O 0.38172 0.84838 0.66946 0.0
O156 O 0.35107 0.88416 0.65109 0.0
Mg157 Mg 0.34156 0.99115 0.66212 0.0
C158 C 0.36621 0.83884 0.65545 0.0
C159 C 0.44089 0.888 0.71022 0.0
O160 O 0.44717 0.94588 0.70597 0.0
O161 O 0.35371 0.92337 0.70739 0.0
O162 O 0.32397 0.96008 0.68834 0.0
O163 O 0.42347 0.96725 0.67304 0.0
O164 O 0.38126 0.00223 0.67523 0.0
C165 C 0.32965 0.93736 0.70312 0.0
C166 C 0.40445 0.0023 0.66745 0.0
O167 O 0.41708 0.86641 0.70706 0.0
Mg168 Mg 0.59899 0.7086 0.44213 0.0
O169 O 0.61117 0.63262 0.41769 0.0
O170 O 0.63528 0.68151 0.39802 0.0
Mg171 Mg 0.63678 0.7916 0.40969 0.0
C172 C 0.62456 0.63023 0.40281 0.0
C173 C 0.5739 0.64139 0.47248 0.0
O174 O 0.57424 0.7029 0.48035 0.0
O175 O 0.64206 0.71157 0.45345 0.0
O176 O 0.66222 0.77124 0.43419 0.0
O177 O 0.5617 0.73184 0.4272 0.0
O178 O 0.6008 0.78358 0.4266 0.0
C179 C 0.66254 0.74238 0.44842 0.0
C180 C 0.57621 0.77649 0.42124 0.0
O181 O 0.58522 0.62628 0.45698 0.0
Mg182 Mg 0.60286 0.53221 0.78751 0.0
O183 O 0.61191 0.60931 0.81236 0.0
O184 O 0.63427 0.56281 0.83329 0.0
Mg185 Mg 0.63745 0.45253 0.82198 0.0
C186 C 0.62372 0.6131 0.82785 0.0
C187 C 0.57978 0.59757 0.75622 0.0
O188 O 0.57967 0.53552 0.74883 0.0
O189 O 0.64704 0.5318 0.77852 0.0
O190 O 0.66548 0.47341 0.79876 0.0
O191 O 0.56414 0.50705 0.80049 0.0
O192 O 0.60327 0.45779 0.80327 0.0
C193 C 0.66708 0.50226 0.78456 0.0
C194 C 0.57813 0.46353 0.80733 0.0
O195 O 0.59061 0.61356 0.77185 0.0
Mg196 Mg 0.38521 0.30512 0.53514 0.0
O197 O 0.37654 0.39008 0.55854 0.0
O198 O 0.34765 0.35365 0.578 0.0
Mg199 Mg 0.33676 0.24756 0.56673 0.0
C200 C 0.36247 0.39899 0.57325 0.0
C201 C 0.43137 0.35089 0.51496 0.0
O202 O 0.43703 0.29114 0.51798 0.0
O203 O 0.34467 0.3195 0.52166 0.0
O204 O 0.31675 0.28165 0.54168 0.0
O205 O 0.41749 0.26998 0.55215 0.0
O206 O 0.37509 0.23621 0.55179 0.0
C207 C 0.32103 0.30572 0.52689 0.0
C208 C 0.39902 0.23489 0.55842 0.0
O209 O 0.40826 0.37441 0.51954 0.0
Mg210 Mg 0.39646 0.4314 0.19997 0.0
O211 O 0.38352 0.35348 0.17597 0.0
O212 O 0.35387 0.39701 0.15852 0.0
Mg213 Mg 0.34723 0.5034 0.1719 0.0
C214 C 0.36805 0.34871 0.16199 0.0
C215 C 0.42986 0.36586 0.22769 0.0
O216 O 0.42658 0.42422 0.23733 0.0
O217 O 0.35687 0.42179 0.21508 0.0
O218 O 0.32837 0.46914 0.19735 0.0
O219 O 0.42827 0.46582 0.18243 0.0
O220 O 0.38687 0.50629 0.18542 0.0
C221 C 0.33332 0.44143 0.21142 0.0
C222 C 0.41026 0.50588 0.17788 0.0
O223 O 0.41784 0.35206 0.2124 0.0
C224 C 0.27253 0.32842 0.52244 0.0
C225 C 0.29778 0.31075 0.51477 0.0
C226 C 0.24929 0.32363 0.51152 0.0
C227 C 0.2513 0.29856 0.49261 0.0
C228 C 0.27688 0.28225 0.4847 0.0
C229 C 0.29994 0.28946 0.49587 0.0
C230 C 0.2225 0.34366 0.52033 0.0
C231 C 0.27973 0.25421 0.46466 0.0
C232 C 0.18742 0.22129 0.47057 0.0
C233 C 0.17835 0.27048 0.46083 0.0
C234 C 0.2116 0.22901 0.48058 0.0
C235 C 0.22651 0.2881 0.48126 0.0
C236 C 0.21728 0.33803 0.47154 0.0
C237 C 0.19351 0.32824 0.46125 0.0
C238 C 0.22119 0.17409 0.49046 0.0
C239 C 0.23216 0.40243 0.47236 0.0
H240 H 0.27093 0.34492 0.53708 0.0
H241 H 0.31944 0.27482 0.49002 0.0
H242 H 0.21207 0.37835 0.51252 0.0
H243 H 0.20935 0.29993 0.52002 0.0
H244 H 0.22472 0.36722 0.53483 0.0
H245 H 0.30113 0.24604 0.46051 0.0
H246 H 0.26885 0.20669 0.46189 0.0
H247 H 0.27046 0.28753 0.45591 0.0
H248 H 0.17579 0.17652 0.47017 0.0
H249 H 0.18639 0.36677 0.4539 0.0
H250 H 0.22149 0.19079 0.50548 0.0
H251 H 0.2421 0.16016 0.48622 0.0
H252 H 0.20814 0.12989 0.48767 0.0
H253 H 0.23323 0.42712 0.48679 0.0
H254 H 0.22232 0.43616 0.46393 0.0
H255 H 0.25317 0.39368 0.46747 0.0
C256 C 0.94501 0.94546 0.503 0.0
C257 C 0.94903 0.88191 0.5071 0.0
C258 C 0.96486 0.97666 0.49381 0.0
C259 C 0.98929 0.9435 0.48869 0.0
C260 C 0.99337 0.87913 0.49261 0.0
C261 C 0.97315 0.84903 0.50175 0.0
C262 C 0.95978 0.04531 0.48972 0.0
C263 C 0.01919 0.84237 0.48735 0.0
C264 C 0.02818 0.00863 0.451 0.0
C265 C 0.04643 0.05162 0.46117 0.0
C266 C 0.01015 0.97101 0.45975 0.0
C267 C 0.01048 0.97642 0.47913 0.0
C268 C 0.02994 0.0166 0.48939 0.0
C269 C 0.04776 0.05378 0.48027 0.0
C270 C 0.98984 0.92818 0.44833 0.0
C271 C 0.03103 0.02295 0.51008 0.0
H272 H 0.92643 0.97111 0.5071 0.0
H273 H 0.97645 0.7999 0.50489 0.0
H274 H 0.97537 0.07923 0.49648 0.0
H275 H 0.96128 0.04626 0.47472 0.0
H276 H 0.93962 0.06403 0.4945 0.0
H277 H 0.01907 0.79229 0.49124 0.0
H278 H 0.02247 0.83821 0.47231 0.0
H279 H 0.03657 0.86988 0.49414 0.0
H280 H 0.02723 0.00619 0.4362 0.0
H281 H 0.06188 0.08672 0.4882 0.0
H282 H 0.96931 0.94836 0.45121 0.0
H283 H 0.98997 0.87788 0.45202 0.0
H284 H 0.99379 0.92501 0.43337 0.0
H285 H 0.01257 0.04796 0.51602 0.0
H286 H 0.04886 0.05147 0.51587 0.0
H287 H 0.03159 0.97376 0.51449 0.0
C288 C 0.28202 0.91342 0.70999 0.0
C289 C 0.30763 0.93439 0.71635 0.0
C290 C 0.25969 0.92021 0.72177 0.0
C291 C 0.26298 0.9508 0.74015 0.0
C292 C 0.28897 0.97063 0.74676 0.0
C293 C 0.31113 0.96125 0.7348 0.0
C294 C 0.23248 0.89628 0.7144 0.0
C295 C 0.29314 0.00465 0.76616 0.0
C296 C 0.19955 0.0286 0.76261 0.0
C297 C 0.1919 0.98221 0.77375 0.0
C298 C 0.22324 0.02016 0.75207 0.0
C299 C 0.23906 0.96302 0.75229 0.0
C300 C 0.23137 0.91612 0.76353 0.0
C301 C 0.2081 0.92674 0.77431 0.0
C302 C 0.23122 0.07199 0.74056 0.0
C303 C 0.24723 0.8537 0.76374 0.0
H304 H 0.2794 0.89277 0.69568 0.0
H305 H 0.3309 0.9785 0.73958 0.0
H306 H 0.22323 0.86396 0.72348 0.0
H307 H 0.21878 0.93864 0.71418 0.0
H308 H 0.23379 0.8688 0.70026 0.0
H309 H 0.31474 0.015 0.76934 0.0
H310 H 0.28193 0.05172 0.76819 0.0
H311 H 0.28501 0.97424 0.77614 0.0
H312 H 0.18713 0.07162 0.76224 0.0
H313 H 0.20208 0.89027 0.78274 0.0
H314 H 0.23035 0.05133 0.72578 0.0
H315 H 0.2523 0.08793 0.74366 0.0
H316 H 0.21789 0.11567 0.74295 0.0
H317 H 0.2473 0.82468 0.74979 0.0
H318 H 0.23879 0.82275 0.77352 0.0
H319 H 0.26851 0.86533 0.76752 0.0
C320 C 0.02017 0.098 0.75313 0.0
C321 C 0.04717 0.1172 0.7559 0.0
C322 C 0.00085 0.14142 0.74812 0.0
C323 C 0.00882 0.20516 0.74539 0.0
C324 C 0.03619 0.22432 0.74758 0.0
C325 C 0.05506 0.18022 0.75302 0.0
C326 C 0.97177 0.11957 0.74619 0.0
C327 C 0.04546 0.29149 0.74434 0.0
C328 C 0.96119 0.29283 0.71704 0.0
C329 C 0.94809 0.33642 0.73063 0.0
C330 C 0.98148 0.25099 0.72163 0.0
C331 C 0.98833 0.25161 0.7403 0.0
C332 C 0.97489 0.29475 0.75412 0.0
C333 C 0.95511 0.33735 0.74909 0.0
C334 C 0.99573 0.2065 0.7065 0.0
C335 C 0.98124 0.29547 0.77421 0.0
H336 H 0.01387 0.04952 0.75547 0.0
H337 H 0.07592 0.19516 0.75512 0.0
H338 H 0.959 0.1526 0.75587 0.0
H339 H 0.96442 0.12279 0.73212 0.0
H340 H 0.9689 0.06844 0.74895 0.0
H341 H 0.06763 0.29763 0.74579 0.0
H342 H 0.03953 0.30017 0.73036 0.0
H343 H 0.0355 0.32971 0.75426 0.0
H344 H 0.95608 0.29259 0.70271 0.0
H345 H 0.945 0.37103 0.7596 0.0
H346 H 0.99226 0.15445 0.70809 0.0
H347 H 0.01778 0.21528 0.70742 0.0
H348 H 0.98877 0.21406 0.69262 0.0
H349 H 0.97768 0.24605 0.77806 0.0
H350 H 0.96881 0.33164 0.78326 0.0
H351 H 0.00281 0.30743 0.77684 0.0
C352 C 0.80334 0.7837 0.50214 0.0
C353 C 0.79906 0.80971 0.52059 0.0
C354 C 0.78159 0.77072 0.48997 0.0
C355 C 0.75509 0.78607 0.49631 0.0
C356 C 0.7508 0.81473 0.51477 0.0
C357 C 0.77283 0.8252 0.52677 0.0
C358 C 0.78686 0.73882 0.47049 0.0
C359 C 0.72294 0.83386 0.52188 0.0
C360 C 0.7019 0.80895 0.46094 0.0
C361 C 0.68671 0.75112 0.46022 0.0
C362 C 0.72412 0.82096 0.47267 0.0
C363 C 0.73183 0.77313 0.48359 0.0
C364 C 0.71698 0.71388 0.48264 0.0
C365 C 0.69426 0.70399 0.47115 0.0
C366 C 0.73892 0.88553 0.47369 0.0
C367 C 0.72507 0.66108 0.49376 0.0
H368 H 0.8236 0.7707 0.49743 0.0
H369 H 0.76955 0.84532 0.54106 0.0
H370 H 0.77576 0.69161 0.46769 0.0
H371 H 0.77933 0.77053 0.46066 0.0
H372 H 0.80863 0.72921 0.46779 0.0
H373 H 0.72325 0.85855 0.53635 0.0
H374 H 0.71349 0.86733 0.51323 0.0
H375 H 0.70997 0.78964 0.52104 0.0
H376 H 0.69591 0.84599 0.4527 0.0
H377 H 0.68259 0.65921 0.47056 0.0
H378 H 0.76043 0.87683 0.47004 0.0
H379 H 0.73828 0.91193 0.48795 0.0
H380 H 0.73018 0.91774 0.46437 0.0
H381 H 0.74644 0.64723 0.49097 0.0
H382 H 0.71235 0.61641 0.49068 0.0
H383 H 0.72341 0.67989 0.50863 0.0
C384 C 0.71734 0.07545 0.26384 0.0
C385 C 0.71001 0.03396 0.27647 0.0
C386 C 0.73947 0.06024 0.25207 0.0
C387 C 0.75379 0.00095 0.2525 0.0
C388 C 0.74623 0.95873 0.26514 0.0
C389 C 0.72473 0.97634 0.27717 0.0
C390 C 0.74751 0.10744 0.23915 0.0
C391 C 0.76033 0.89405 0.26559 0.0
C392 C 0.79208 0.93496 0.20908 0.0
C393 C 0.81867 0.95121 0.21424 0.0
C394 C 0.77084 0.94885 0.22162 0.0
C395 C 0.7763 0.98222 0.23947 0.0
C396 C 0.80322 -0.00199 0.24479 0.0
C397 C 0.82418 0.98121 0.23218 0.0
C398 C 0.74254 0.92888 0.21567 0.0
C399 C 0.80976 0.03518 0.26352 0.0
H400 H 0.70596 0.12002 0.26333 0.0
H401 H 0.7188 0.94364 0.28675 0.0
H402 H 0.76918 0.12018 0.24096 0.0
H403 H 0.74473 0.08398 0.22472 0.0
H404 H 0.7355 0.15338 0.2414 0.0
H405 H 0.75177 0.86654 0.27615 0.0
H406 H 0.75866 0.86307 0.25197 0.0
H407 H 0.7821 0.90231 0.26846 0.0
H408 H 0.7879 0.91197 0.19515 0.0
H409 H 0.84474 0.99491 0.23601 0.0
H410 H 0.73002 0.97319 0.21529 0.0
H411 H 0.73314 0.9005 0.22571 0.0
H412 H 0.74203 0.89868 0.20187 0.0
H413 H 0.79951 0.08354 0.2653 0.0
H414 H 0.83176 0.04336 0.26554 0.0
H415 H 0.80214 0.00815 0.27443 0.0
C416 C 0.96689 0.78118 0.21534 0.0
C417 C 0.95447 0.83226 0.22707 0.0
C418 C 0.98746 0.74387 0.2217 0.0
C419 C 0.99535 0.75703 0.24033 0.0
C420 C 0.98248 0.80755 0.25236 0.0
C421 C 0.96235 0.84513 0.24552 0.0
C422 C 0.00105 0.69109 0.20842 0.0
C423 C 0.98997 0.82187 0.27243 0.0
C424 C 0.02976 0.6219 0.26124 0.0
C425 C 0.05658 0.64378 0.26245 0.0
C426 C 0.00968 0.65815 0.25397 0.0
C427 C 0.01668 0.71697 0.24736 0.0
C428 C 0.04389 0.73804 0.24783 0.0
C429 C 0.06353 0.70146 0.25557 0.0
C430 C 0.98082 0.63463 0.25394 0.0
C431 C 0.05214 0.79981 0.24049 0.0
H432 H 0.96108 0.7715 0.201 0.0
H433 H 0.95276 0.88454 0.25461 0.0
H434 H 0.02302 0.70091 0.20802 0.0
H435 H 0.99846 0.64268 0.21309 0.0
H436 H 0.99288 0.68798 0.19427 0.0
H437 H 0.97761 0.86185 0.28003 0.0
H438 H 0.98734 0.77707 0.27898 0.0
H439 H 0.01152 0.83614 0.27386 0.0
H440 H 0.02419 0.57756 0.26664 0.0
H441 H 0.08425 0.71841 0.25643 0.0
H442 H 0.97252 0.62849 0.2398 0.0
H443 H 0.96825 0.67186 0.26247 0.0
H444 H 0.97882 0.58727 0.25935 0.0
H445 H 0.04501 0.79809 0.22614 0.0
H446 H 0.07433 0.80713 0.2408 0.0
H447 H 0.04257 0.84299 0.24877 0.0
C448 C 0.28387 0.80672 0.02203 0.0
C449 C 0.31047 0.78836 0.01756 0.0
C450 C 0.26301 0.7913 0.00926 0.0
C451 C 0.26885 0.75437 -0.00807 0.0
C452 C 0.29581 0.73664 0.98727 0.0
C453 C 0.31642 0.75487 7e-05 0.0
C454 C 0.23468 0.81331 0.01448 0.0
C455 C 0.30272 0.69584 0.96911 0.0
C456 C 0.20969 0.65988 0.96809 0.0
C457 C 0.20305 0.69912 0.95477 0.0
C458 C 0.23171 0.67607 0.97992 0.0
C459 C 0.24666 0.73406 0.97876 0.0
C460 C 0.2399 0.77384 0.96535 0.0
C461 C 0.21847 0.75532 0.95334 0.0
C462 C 0.23888 0.63145 -0.00628 0.0
C463 C 0.25474 0.83712 0.96407 0.0
H464 H 0.27935 0.83234 0.03562 0.0
H465 H 0.33696 0.73954 -0.0032 0.0
H466 H 0.22595 0.8397 0.00377 0.0
H467 H 0.22173 0.76996 0.01536 0.0
H468 H 0.23392 0.84603 0.02788 0.0
H469 H 0.32472 0.68691 0.96751 0.0
H470 H 0.29223 0.6478 0.96797 0.0
H471 H 0.29562 0.72045 0.95758 0.0
H472 H 0.19781 0.61641 0.96917 0.0
H473 H 0.21312 0.78639 0.94322 0.0
H474 H 0.23577 0.6575 0.00785 0.0
H475 H 0.26049 0.61779 -0.00758 0.0
H476 H 0.22655 0.5859 -0.00806 0.0
H477 H 0.25277 0.8708 0.97723 0.0
H478 H 0.24697 0.86239 0.95281 0.0
H479 H 0.27653 0.82745 0.96175 0.0
C480 C 0.05851 0.53707 0.97909 0.0
C481 C 0.05358 0.59647 0.97258 0.0
C482 C 0.03722 0.50082 0.98521 0.0
C483 C 0.01044 0.52388 0.98429 0.0
C484 C 0.00543 0.5842 0.97794 0.0
C485 C 0.0271 0.62015 0.97238 0.0
C486 C 0.04332 0.43744 -0.00763 0.0
C487 C 0.97711 0.60973 0.97642 0.0
C488 C 0.95467 0.39679 0.982 0.0
C489 C 0.94476 0.40768 0.0 0.0
C490 C 0.97572 0.43526 0.97658 0.0
C491 C 0.98753 0.48441 0.98964 0.0
C492 C 0.97738 0.49609 0.00778 0.0
C493 C 0.95585 0.45813 0.01268 0.0
C494 C 0.98553 0.42282 0.95696 0.0
C495 C 0.9898 0.54724 0.02217 0.0
H496 H 0.07896 0.51875 0.97929 0.0
H497 H 0.02309 0.66577 0.96719 0.0
H498 H 0.0343 0.43818 0.0062 0.0
H499 H 0.03415 0.39568 0.98322 0.0
H500 H 0.06532 0.4285 -0.00672 0.0
H501 H 0.97671 0.6579 0.97134 0.0
H502 H 0.96518 0.57405 0.96688 0.0
H503 H 0.96696 0.61508 0.98998 0.0
H504 H 0.9461 0.35782 0.9722 0.0
H505 H 0.94849 0.46617 0.0267 0.0
H506 H 0.00681 0.40629 0.95658 0.0
H507 H 0.98488 0.46892 0.95085 0.0
H508 H 0.9733 0.38502 0.9483 0.0
H509 H 0.01136 0.53559 0.02401 0.0
H510 H 0.97948 0.55022 0.03566 0.0
H511 H 0.98899 0.59619 0.01763 0.0
C512 C 0.31703 0.47054 0.24339 0.0
C513 C 0.31182 0.44285 0.2252 0.0
C514 C 0.29582 0.48741 0.25578 0.0
C515 C 0.26893 0.47406 0.24994 0.0
C516 C 0.26377 0.44177 0.23193 0.0
C517 C 0.2853 0.42781 0.21964 0.0
C518 C 0.30208 0.5233 0.2747 0.0
C519 C 0.23547 0.42428 0.22543 0.0
C520 C 0.21522 0.47791 0.28669 0.0
C521 C 0.20228 0.53761 0.2855 0.0
C522 C 0.23672 0.45622 0.27505 0.0
C523 C 0.24613 0.49637 0.26238 0.0
C524 C 0.23353 0.55755 0.26142 0.0
C525 C 0.21132 0.57687 0.27277 0.0
C526 C 0.24892 0.38966 0.276 0.0
C527 C 0.24355 0.60256 0.24843 0.0
H528 H 0.33755 0.48336 0.24754 0.0
H529 H 0.28136 0.40671 0.2055 0.0
H530 H 0.29346 0.57347 0.27617 0.0
H531 H 0.29264 0.498 0.28539 0.0
H532 H 0.32409 0.52734 0.27738 0.0
H533 H 0.23523 0.39257 0.21185 0.0
H534 H 0.22476 0.3985 0.23553 0.0
H535 H 0.22404 0.46967 0.22426 0.0
H536 H 0.20789 0.447 0.29636 0.0
H537 H 0.20128 0.623 0.27189 0.0
H538 H 0.27068 0.3947 0.27931 0.0
H539 H 0.24719 0.35843 0.26242 0.0
H540 H 0.23896 0.36407 0.28647 0.0
H541 H 0.26538 0.6124 0.25068 0.0
H542 H 0.23264 0.6501 0.25019 0.0
H543 H 0.24104 0.57861 0.23403 0.0
C544 C 0.69179 0.22453 0.9754 0.0
C545 C 0.69564 0.19969 0.95683 0.0
C546 C 0.71387 0.24001 0.98715 0.0
C547 C 0.74033 0.22827 0.98026 0.0
C548 C 0.74427 0.20146 0.96161 0.0
C549 C 0.72185 0.18854 0.95003 0.0
C550 C 0.70889 0.26994 0.00685 0.0
C551 C 0.77213 0.18607 0.95393 0.0
C552 C 0.80026 0.31242 0.00616 0.0
C553 C 0.8082 0.26459 0.01674 0.0
C554 C 0.77784 0.30186 -0.0056 0.0
C555 C 0.76382 0.24122 -0.00721 0.0
C556 C 0.77219 0.19245 0.0032 0.0
C557 C 0.79398 0.20515 0.01524 0.0
C558 C 0.76897 0.35564 0.98386 0.0
C559 C 0.75835 0.12642 0.00145 0.0
H560 H 0.67152 0.23431 0.98059 0.0
H561 H 0.7248 0.16944 0.93564 0.0
H562 H 0.71668 0.23702 0.01627 0.0
H563 H 0.71991 0.31717 0.00997 0.0
H564 H 0.68715 0.27895 0.0098 0.0
H565 H 0.77167 0.16395 0.93923 0.0
H566 H 0.78446 0.23145 0.95528 0.0
H567 H 0.7824 0.15154 0.96188 0.0
H568 H 0.81126 0.35835 0.00735 0.0
H569 H 0.80038 0.16759 0.02319 0.0
H570 H 0.74761 0.36842 0.98708 0.0
H571 H 0.7702 0.33837 0.96889 0.0
H572 H 0.78146 0.40064 0.98711 0.0
H573 H 0.73694 0.13275 0.00563 0.0
H574 H 0.76806 0.09295 0.01002 0.0
H575 H 0.75863 0.10264 0.98691 0.0
C576 C 0.70716 0.43683 0.77302 0.0
C577 C 0.6924 0.49525 0.77396 0.0
C578 C 0.73054 0.42676 0.76233 0.0
C579 C 0.73985 0.47718 0.75279 0.0
C580 C 0.72541 0.53702 0.75405 0.0
C581 C 0.70151 0.54491 0.76438 0.0
C582 C 0.74484 0.36153 0.76085 0.0
C583 C 0.73516 0.59255 0.74444 0.0
C584 C 0.81291 0.47336 0.7373 0.0
C585 C 0.81015 0.45414 0.71834 0.0
C586 C 0.79016 0.4808 0.74876 0.0
C587 C 0.76428 0.46658 0.74108 0.0
C588 C 0.76164 0.4435 0.72207 0.0
C589 C 0.7846 0.43875 0.71087 0.0
C590 C 0.7937 0.50698 0.76887 0.0
C591 C 0.7345 0.4255 0.71349 0.0
H592 H 0.69992 0.39795 0.78023 0.0
H593 H 0.69015 0.59013 0.76517 0.0
H594 H 0.74533 0.33802 0.74629 0.0
H595 H 0.76604 0.36883 0.76547 0.0
H596 H 0.73493 0.32739 0.76915 0.0
H597 H 0.72262 0.63732 0.74778 0.0
H598 H 0.75634 0.60501 0.74838 0.0
H599 H 0.73481 0.57722 0.72936 0.0
H600 H 0.83267 0.48636 0.74299 0.0
H601 H 0.78256 0.42401 0.69617 0.0
H602 H 0.78438 0.47316 0.77748 0.0
H603 H 0.78325 0.55487 0.77211 0.0
H604 H 0.81525 0.51391 0.77278 0.0
H605 H 0.7239 0.39065 0.72119 0.0
H606 H 0.73623 0.4029 0.69888 0.0
H607 H 0.72177 0.47 0.71421 0.0
C608 C 0.55197 0.03051 0.97172 0.0
C609 C 0.55858 0.09455 0.97973 0.0
C610 C 0.53278 0.99373 0.97976 0.0
C611 C 0.52028 0.02125 -0.00361 0.0
C612 C 0.52743 0.08513 0.00484 0.0
C613 C 0.54637 0.12131 -0.00369 0.0
C614 C 0.52548 0.92595 0.97026 0.0
C615 C 0.5149 0.11538 0.02279 0.0
C616 C 0.4533 0.94889 0.00831 0.0
C617 C 0.46158 0.90449 0.01988 0.0
C618 C 0.47221 0.98771 0.00062 0.0
C619 C 0.49988 0.9827 0.00495 0.0
C620 C 0.50822 0.93905 0.01697 0.0
C621 C 0.48899 0.90002 0.02415 0.0
C622 C 0.46269 0.03311 0.98761 0.0
C623 C 0.53749 0.93321 0.02214 0.0
H624 H 0.56119 0.00969 0.95882 0.0
H625 H 0.55147 0.17074 0.00257 0.0
H626 H 0.52953 0.88908 0.97948 0.0
H627 H 0.50362 0.92366 0.96706 0.0
H628 H 0.53691 0.912 0.9573 0.0
H629 H 0.5233 0.16471 0.02786 0.0
H630 H 0.4928 0.11996 0.0211 0.0
H631 H 0.5182 0.08315 0.03341 0.0
H632 H 0.43212 0.95235 0.00498 0.0
H633 H 0.49547 0.86629 0.03327 0.0
H634 H 0.47221 0.0191 0.97396 0.0
H635 H 0.46894 0.08423 -0.00728 0.0
H636 H 0.44045 0.03188 0.98587 0.0
H637 H 0.54951 0.91497 0.00973 0.0
H638 H 0.54043 0.89933 0.0324 0.0
H639 H 0.54563 0.98212 0.02787 0.0
C640 C 0.46327 0.27648 0.21919 0.0
C641 C 0.45093 0.32148 0.23281 0.0
C642 C 0.48529 0.23882 0.22334 0.0
C643 C 0.49472 0.24518 0.24164 0.0
C644 C 0.48183 0.28907 0.25557 0.0
C645 C 0.46025 0.32738 0.25093 0.0
C646 C 0.49885 0.19342 0.20809 0.0
C647 C 0.49093 0.2958 0.27533 0.0
C648 C 0.53514 0.10621 0.25631 0.0
C649 C 0.56127 0.13265 0.25752 0.0
C650 C 0.51335 0.14208 0.25097 0.0
C651 C 0.51789 0.20533 0.2463 0.0
C652 C 0.54439 0.23113 0.24664 0.0
C653 C 0.56579 0.1947 0.25245 0.0
C654 C 0.48532 0.11334 0.25105 0.0
C655 C 0.55003 0.29782 0.24129 0.0
H656 H 0.45634 0.27233 0.2051 0.0
H657 H 0.45072 0.36208 0.26147 0.0
H658 H 0.52034 0.20745 0.20711 0.0
H659 H 0.49839 0.14229 0.21113 0.0
H660 H 0.48912 0.19456 0.19455 0.0
H661 H 0.47812 0.33037 0.28459 0.0
H662 H 0.49044 0.24722 0.28014 0.0
H663 H 0.51205 0.31357 0.27651 0.0
H664 H 0.53144 0.05841 0.26031 0.0
H665 H 0.58596 0.2152 0.25331 0.0
H666 H 0.47572 0.1123 0.23741 0.0
H667 H 0.47262 0.14471 0.26119 0.0
H668 H 0.48533 0.06274 0.25458 0.0
H669 H 0.54133 0.30105 0.22756 0.0
H670 H 0.57195 0.30861 0.24094 0.0
H671 H 0.54025 0.33631 0.25123 0.0
C672 C 0.45525 0.79228 0.72524 0.0
C673 C 0.46199 0.84728 0.71703 0.0
C674 C 0.47542 0.75306 0.73139 0.0
C675 C 0.50287 0.76869 0.72891 0.0
C676 C 0.50975 0.82384 0.72049 0.0
C677 C 0.48921 0.86283 0.71481 0.0
C678 C 0.46738 0.69513 0.74061 0.0
C679 C 0.53878 0.84134 0.71735 0.0
C680 C 0.5543 0.7028 0.75951 0.0
C681 C 0.56284 0.64537 0.74838 0.0
C682 C 0.53499 0.74384 0.75326 0.0
C683 C 0.5244 0.72768 0.73532 0.0
C684 C 0.53393 0.67157 0.72369 0.0
C685 C 0.5529 0.63068 0.73043 0.0
C686 C 0.52513 0.80298 0.76611 0.0
C687 C 0.52354 0.65378 0.70432 0.0
H688 H 0.43423 0.78023 0.727 0.0
H689 H 0.49456 0.90497 0.7083 0.0
H690 H 0.47541 0.64919 0.73274 0.0
H691 H 0.47626 0.70013 0.75458 0.0
H692 H 0.44517 0.69035 0.74177 0.0
H693 H 0.54069 0.88514 0.71026 0.0
H694 H 0.54958 0.85123 0.73066 0.0
H695 H 0.54906 0.79943 0.70897 0.0
H696 H 0.56179 0.71428 0.77345 0.0
H697 H 0.55954 0.58649 0.72176 0.0
H698 H 0.5033 0.79752 0.76882 0.0
H699 H 0.5276 0.84805 0.75968 0.0
H700 H 0.53601 0.80976 0.77944 0.0
H701 H 0.50178 0.64161 0.70462 0.0
H702 H 0.53437 0.61118 0.69664 0.0
H703 H 0.52564 0.69619 0.69671 0.0
C704 C 0.47979 0.37378 0.50993 0.0
C705 C 0.4527 0.39163 0.50839 0.0
C706 C 0.50063 0.41297 0.50468 0.0
C707 C 0.4942 0.47067 0.49734 0.0
C708 C 0.46689 0.48857 0.49549 0.0
C709 C 0.44641 0.4491 0.50124 0.0
C710 C 0.52952 0.393 0.50719 0.0
C711 C 0.45933 0.54921 0.48737 0.0
C712 C 0.54615 0.60605 0.4976 0.0
C713 C 0.55596 0.59369 0.47957 0.0
C714 C 0.5265 0.56532 0.50374 0.0
C715 C 0.5161 0.51194 0.49142 0.0
C716 C 0.52639 0.49834 0.47334 0.0
C717 C 0.54643 0.53898 0.46769 0.0
C718 C 0.51647 0.58018 0.52328 0.0
C719 C 0.51555 0.4423 0.45975 0.0
H720 H 0.48479 0.32974 0.51565 0.0
H721 H 0.42549 0.46293 0.50002 0.0
H722 H 0.54 0.38516 0.49373 0.0
H723 H 0.54037 0.43286 0.51605 0.0
H724 H 0.53107 0.34735 0.51349 0.0
H725 H 0.43715 0.55544 0.48651 0.0
H726 H 0.4679 0.59339 0.49583 0.0
H727 H 0.46799 0.54661 0.47338 0.0
H728 H 0.55354 0.64817 0.50682 0.0
H729 H 0.55376 0.52945 0.45368 0.0
H730 H 0.51823 0.53597 0.53018 0.0
H731 H 0.49484 0.59363 0.52334 0.0
H732 H 0.5278 0.62102 0.53142 0.0
H733 H 0.51768 0.39533 0.46529 0.0
H734 H 0.52603 0.43776 0.44629 0.0
H735 H 0.49373 0.44972 0.4575 0.0
C736 C 0.1519 0.79222 0.35752 0.0
C737 C 0.13499 0.76883 0.34271 0.0
C738 C 0.1498 0.85695 0.36659 0.0
C739 C 0.13012 0.89934 0.36085 0.0
C740 C 0.11362 0.87683 0.34552 0.0
C741 C 0.11633 0.81203 0.33658 0.0
C742 C 0.168 0.87923 0.38275 0.0
C743 C 0.09228 0.92029 0.33904 0.0
C744 C 0.10369 0.03291 0.39759 0.0
C745 C 0.11743 0.08882 0.39362 0.0
C746 C 0.10735 0.97146 0.38685 0.0
C747 C 0.1254 0.96522 0.37181 0.0
C748 C 0.13917 0.02141 0.36757 0.0
C749 C 0.13492 0.08263 0.37847 0.0
C750 C 0.09204 0.91301 0.39176 0.0
C751 C 0.15871 0.01662 0.35172 0.0
H752 H 0.16654 0.75955 0.36229 0.0
H753 H 0.10314 0.79461 0.32517 0.0
H754 H 0.17797 0.9262 0.38105 0.0
H755 H 0.15585 0.88816 0.39552 0.0
H756 H 0.18377 0.84242 0.38448 0.0
H757 H 0.08253 0.8973 0.32609 0.0
H758 H 0.07651 0.93085 0.34975 0.0
H759 H 0.10113 0.96796 0.33683 0.0
H760 H 0.09001 0.03697 0.40917 0.0
H761 H 0.14568 0.12539 0.3753 0.0
H762 H 0.1064 0.87571 0.39538 0.0
H763 H 0.08019 0.8897 0.37977 0.0
H764 H 0.07809 0.92653 0.40352 0.0
H765 H 0.17547 0.98312 0.35397 0.0
H766 H 0.16733 0.06509 0.34993 0.0
H767 H 0.14852 -0.00456 0.33878 0.0
C768 C 0.05334 0.39884 0.41725 0.0
C769 C 0.05213 0.33046 0.41336 0.0
C770 C 0.05179 0.43716 0.40312 0.0
C771 C 0.04981 0.40562 0.38476 0.0
C772 C 0.0451 0.33707 0.38109 0.0
C773 C 0.04629 0.29994 0.39559 0.0
C774 C 0.05622 0.51024 0.40766 0.0
C775 C 0.04262 0.30182 0.36171 0.0
C776 C 0.05352 0.50851 0.34603 0.0
C777 C 0.08126 0.50634 0.34227 0.0
C778 C 0.04269 0.47582 0.35982 0.0
C779 C 0.06009 0.44031 0.36994 0.0
C780 C 0.08813 0.43864 0.3663 0.0
C781 C 0.09831 0.47157 0.35251 0.0
C782 C 0.01271 0.47828 0.36332 0.0
C783 C 0.10751 0.40174 0.37692 0.0
H784 H 0.0578 0.42198 0.43113 0.0
H785 H 0.04555 0.2468 0.39272 0.0
H786 H 0.0777 0.52153 0.4053 0.0
H787 H 0.04382 0.53727 0.39873 0.0
H788 H 0.05134 0.52846 0.42225 0.0
H789 H 0.03319 0.2527 0.36134 0.0
H790 H 0.03058 0.33087 0.3531 0.0
H791 H 0.06302 0.29498 0.35553 0.0
H792 H 0.0402 0.53488 0.33802 0.0
H793 H 0.11969 0.46901 0.34957 0.0
H794 H 0.00847 0.49117 0.37821 0.0
H795 H 0.00384 0.42912 0.3588 0.0
H796 H 0.00246 0.51428 0.35583 0.0
H797 H 0.10662 0.42163 0.39175 0.0
H798 H 0.12867 0.40503 0.37222 0.0
H799 H 0.10175 0.34917 0.37544 0.0
C800 C 0.11111 0.22074 0.83493 0.0
C801 C 0.12596 0.16721 0.83933 0.0
C802 C 0.11286 0.2828 0.84571 0.0
C803 C 0.13006 0.292 0.86122 0.0
C804 C 0.14505 0.23825 0.8658 0.0
C805 C 0.14274 0.17652 0.85487 0.0
C806 C 0.09636 0.33867 0.84043 0.0
C807 C 0.16376 0.24615 0.88215 0.0
C808 C 0.15313 0.46707 0.8776 0.0
C809 C 0.13579 0.48637 0.8925 0.0
C810 C 0.15188 0.40359 0.86759 0.0
C811 C 0.13265 0.35823 0.87244 0.0
C812 C 0.11538 0.37694 0.88762 0.0
C813 C 0.11724 0.44059 0.89751 0.0
C814 C 0.17086 0.3854 0.85162 0.0
C815 C 0.09448 0.33022 0.89316 0.0
H816 H 0.09798 0.21421 0.82303 0.0
H817 H 0.15436 0.13567 0.8584 0.0
H818 H 0.0833 0.35947 0.85207 0.0
H819 H 0.10988 0.37857 0.83735 0.0
H820 H 0.08344 0.3231 0.82824 0.0
H821 H 0.17381 0.19941 0.88399 0.0
H822 H 0.17949 0.28315 0.88048 0.0
H823 H 0.15241 0.26447 0.89485 0.0
H824 H 0.16764 0.50179 0.87365 0.0
H825 H 0.10368 0.45491 0.90894 0.0
H826 H 0.15917 0.37433 0.83869 0.0
H827 H 0.18224 0.34044 0.85338 0.0
H828 H 0.18546 0.4252 0.85014 0.0
H829 H 0.07994 0.31703 0.88176 0.0
H830 H 0.08316 0.35151 0.90564 0.0
H831 H 0.10422 0.28411 0.89581 0.0
C832 C 0.10175 0.79675 0.89111 0.0
C833 C 0.08493 0.75129 0.89789 0.0
C834 C 0.09351 0.82885 0.87666 0.0
C835 C 0.0678 0.81486 0.86869 0.0
C836 C 0.05025 0.77074 0.87586 0.0
C837 C 0.05907 0.7393 0.89047 0.0
C838 C 0.11284 0.87603 0.86949 0.0
C839 C 0.02272 0.75478 0.86771 0.0
C840 C 0.05432 0.9404 0.83775 0.0
C841 C 0.06786 0.91077 0.82205 0.0
C842 C 0.05093 0.90636 0.85277 0.0
C843 C 0.06117 0.84174 0.8517 0.0
C844 C 0.07151 0.80923 0.83489 0.0
C845 C 0.07509 0.84465 0.82031 0.0
C846 C 0.03945 0.94218 0.87041 0.0
C847 C 0.08208 0.73988 0.83303 0.0
H848 H 0.12155 0.80718 0.89706 0.0
H849 H 0.04592 0.70452 0.89582 0.0
H850 H 0.11899 0.85631 0.85526 0.0
H851 H 0.1029 0.92397 0.86909 0.0
H852 H 0.13131 0.88457 0.87804 0.0
H853 H 0.00959 0.73141 0.87713 0.0
H854 H 0.01262 0.79954 0.86436 0.0
H855 H 0.02486 0.72028 0.85473 0.0
H856 H 0.04867 0.99167 0.83894 0.0
H857 H 0.08522 0.82186 0.80794 0.0
H858 H 0.05624 0.9611 0.87967 0.0
H859 H 0.02716 0.90883 0.87761 0.0
H860 H 0.02685 0.98449 0.86789 0.0
H861 H 0.10203 0.74006 0.83986 0.0
H862 H 0.08457 0.71798 0.81841 0.0
H863 H 0.0684 0.70824 0.83981 0.0
C864 C 0.85434 0.30586 0.62911 0.0
C865 C 0.87096 0.31256 0.64472 0.0
C866 C 0.85273 0.24619 0.61712 0.0
C867 C 0.86814 0.19178 0.62078 0.0
C868 C 0.88531 0.1985 0.6363 0.0
C869 C 0.8865 0.25864 0.64807 0.0
C870 C 0.83415 0.24101 0.60073 0.0
C871 C 0.90211 0.14174 0.64068 0.0
C872 C 0.8446 0.01871 0.60265 0.0
C873 C 0.86198 0.00072 0.58769 0.0
C874 C 0.84607 0.08106 0.61326 0.0
C875 C 0.86542 0.12689 0.60889 0.0
C876 C 0.88264 0.10977 0.59358 0.0
C877 C 0.88069 0.04698 0.58315 0.0
C878 C 0.82722 0.0974 0.6294 0.0
C879 C 0.90353 0.15728 0.58848 0.0
H880 H 0.84227 0.34708 0.62633 0.0
H881 H 0.8995 0.26311 0.66002 0.0
H882 H 0.84548 0.2237 0.58795 0.0
H883 H 0.81815 0.20429 0.60202 0.0
H884 H 0.82444 0.28857 0.59934 0.0
H885 H 0.91529 0.15569 0.65283 0.0
H886 H 0.88875 0.10106 0.64342 0.0
H887 H 0.91493 0.12267 0.62874 0.0
H888 H 0.82997 0.98368 0.60628 0.0
H889 H 0.89424 0.03375 0.57166 0.0
H890 H 0.81583 0.14281 0.62814 0.0
H891 H 0.83902 0.10686 0.64232 0.0
H892 H 0.81261 0.0573 0.63055 0.0
H893 H 0.89385 0.20425 0.58652 0.0
H894 H 0.91456 0.13765 0.57572 0.0
H895 H 0.91832 0.16846 0.59981 0.0
C896 C 0.90493 0.63386 0.66345 0.0
C897 C 0.91836 0.57386 0.66258 0.0
C898 C 0.90656 0.67052 0.64897 0.0
C899 C 0.92141 0.64538 0.6331 0.0
C900 C 0.93647 0.58684 0.63265 0.0
C901 C 0.93498 0.55186 0.64759 0.0
C902 C 0.89068 0.73348 0.6501 0.0
C903 C 0.95223 0.55825 0.61584 0.0
C904 C 0.88944 0.68612 0.58977 0.0
C905 C 0.9062 0.73638 0.58546 0.0
C906 C 0.89491 0.65443 0.60486 0.0
C907 C 0.9174 0.67456 0.61613 0.0
C908 C 0.93458 0.72494 0.61179 0.0
C909 C 0.92889 0.755 0.59632 0.0
C910 C 0.87631 0.60019 0.60893 0.0
C911 C 0.9584 0.74825 0.62375 0.0
H912 H 0.89237 0.6511 0.67524 0.0
H913 H 0.94532 0.50528 0.647 0.0
H914 H 0.90293 0.77246 0.64516 0.0
H915 H 0.87265 0.7252 0.64114 0.0
H916 H 0.88383 0.75131 0.66433 0.0
H917 H 0.96612 0.51878 0.61873 0.0
H918 H 0.93801 0.53722 0.60489 0.0
H919 H 0.9641 0.59683 0.61041 0.0
H920 H 0.87209 0.6711 0.58122 0.0
H921 H 0.94185 0.79395 0.59295 0.0
H922 H 0.86576 0.6155 0.62216 0.0
H923 H 0.88807 0.55546 0.61036 0.0
H924 H 0.86091 0.58738 0.59804 0.0
H925 H 0.95119 0.77105 0.63748 0.0
H926 H 0.97082 0.78474 0.61777 0.0
H927 H 0.97135 0.70616 0.62585 0.0
C928 C 0.88587 0.50282 0.08211 0.0
C929 C 0.87027 0.45049 0.08661 0.0
C930 C 0.88583 0.56433 0.09322 0.0
C931 C 0.86968 0.57424 0.10924 0.0
C932 C 0.8537 0.52195 0.11383 0.0
C933 C 0.85424 0.46069 0.10251 0.0
C934 C 0.90325 0.61866 0.08787 0.0
C935 C 0.8361 0.5307 0.13074 0.0
C936 C 0.88941 0.71536 0.14623 0.0
C937 C 0.87185 0.76532 0.14261 0.0
C938 C 0.88862 0.65272 0.13569 0.0
C939 C 0.86972 0.63935 0.1212 0.0
C940 C 0.85159 0.68904 0.1177 0.0
C941 C 0.85292 0.75137 0.12839 0.0
C942 C 0.9084 0.60122 0.13981 0.0
C943 C 0.83104 0.67667 0.10245 0.0
H944 H 0.89841 0.4957 0.06992 0.0
H945 H 0.84208 0.42078 0.10613 0.0
H946 H 0.89059 0.66151 0.086 0.0
H947 H 0.91784 0.63529 0.09901 0.0
H948 H 0.91464 0.60306 0.07498 0.0
H949 H 0.82457 0.48556 0.13227 0.0
H950 H 0.84868 0.5443 0.14318 0.0
H951 H 0.82166 0.57138 0.13015 0.0
H952 H 0.90413 0.72541 0.15716 0.0
H953 H 0.83916 0.78934 0.12549 0.0
H954 H 0.92167 0.58692 0.12776 0.0
H955 H 0.89749 0.55646 0.1424 0.0
H956 H 0.92122 0.61865 0.15193 0.0
H957 H 0.84145 0.66542 0.08902 0.0
H958 H 0.81758 0.71944 0.10202 0.0
H959 H 0.8185 0.63338 0.10418 0.0
C960 C 0.90698 0.08085 0.14602 0.0
C961 C 0.92362 0.02839 0.14879 0.0
C962 C 0.91126 0.11512 0.13125 0.0
C963 C 0.9325 0.09579 0.11881 0.0
C964 C 0.95013 0.04468 0.12195 0.0
C965 C 0.94554 0.0116 0.13704 0.0
C966 C 0.89216 0.16991 0.12848 0.0
C967 C 0.97289 0.02273 0.10889 0.0
C968 C 0.91225 0.13101 0.07219 0.0
C969 C 0.9245 0.19195 0.07175 0.0
C970 C 0.91678 0.0961 0.08677 0.0
C971 C 0.93357 0.12365 0.10142 0.0
C972 C 0.94756 0.18303 0.10042 0.0
C973 C 0.94298 0.21651 0.08541 0.0
C974 C 0.90182 0.03238 0.08716 0.0
C975 C 0.96557 0.21379 0.11584 0.0
H976 H 0.89032 0.09476 0.1553 0.0
H977 H 0.95855 0.97129 0.13926 0.0
H978 H 0.90359 0.21435 0.12623 0.0
H979 H 0.87968 0.15472 0.11607 0.0
H980 H 0.87846 0.1831 0.14039 0.0
H981 H 0.98713 0.9897 0.11472 0.0
H982 H 0.9645 -0.00398 0.09594 0.0
H983 H 0.9842 0.06562 0.10534 0.0
H984 H 0.8983 0.11162 0.06139 0.0
H985 H 0.95249 0.26367 0.08498 0.0
H986 H 0.88548 0.04018 0.09755 0.0
H987 H 0.91551 0.99443 0.09117 0.0
H988 H 0.89265 0.01339 0.07365 0.0
H989 H 0.95292 0.23653 0.12749 0.0
H990 H 0.97873 0.25243 0.11151 0.0
H991 H 0.97838 0.17622 0.12092 0.0
C992 C 0.61028 0.73133 0.83518 0.0
C993 C 0.62519 0.67807 0.83972 0.0
C994 C 0.61161 0.79337 0.84597 0.0
C995 C 0.62842 0.80291 0.86167 0.0
C996 C 0.64343 0.74944 0.86642 0.0
C997 C 0.64156 0.68761 0.85545 0.0
C998 C 0.59508 0.84887 0.84049 0.0
C999 C 0.66173 0.75775 0.88299 0.0
C1000 C 0.65004 0.97919 0.87789 0.0
C1001 C 0.63208 -0.0016 0.89243 0.0
C1002 C 0.64958 0.91524 0.86813 0.0
C1003 C 0.63052 0.86928 0.87287 0.0
C1004 C 0.61266 0.88788 0.88773 0.0
C1005 C 0.61372 0.95203 0.89737 0.0
C1006 C 0.66914 0.89724 0.85249 0.0
C1007 C 0.59192 0.84054 0.89313 0.0
H1008 H 0.59744 0.72463 0.82313 0.0
H1009 H 0.6532 0.64696 0.85908 0.0
H1010 H 0.58169 0.86941 0.85197 0.0
H1011 H 0.60857 0.88905 0.83755 0.0
H1012 H 0.58249 0.83301 0.82815 0.0
H1013 H 0.67179 0.71118 0.88498 0.0
H1014 H 0.67744 0.79495 0.88146 0.0
H1015 H 0.65005 0.77603 0.89554 0.0
H1016 H 0.66443 0.01433 0.87401 0.0
H1017 H 0.59972 0.9662 0.90854 0.0
H1018 H 0.65793 0.88577 0.83938 0.0
H1019 H 0.68056 0.85257 0.85449 0.0
H1020 H 0.68371 0.93732 0.85121 0.0
H1021 H 0.5776 0.82684 0.88163 0.0
H1022 H 0.58031 0.86157 0.90551 0.0
H1023 H 0.60183 0.79477 0.89589 0.0
C1024 C 0.55544 0.25173 0.88869 0.0
C1025 C 0.58102 0.26287 0.89666 0.0
C1026 C 0.54757 0.28348 0.87391 0.0
C1027 C 0.56575 0.32708 0.86711 0.0
C1028 C 0.59122 0.33996 0.87554 0.0
C1029 C 0.59853 0.3076 0.89018 0.0
C1030 C 0.52028 0.26871 0.86524 0.0
C1031 C 0.61122 0.38645 0.86876 0.0
C1032 C 0.57408 0.35797 0.81877 0.0
C1033 C 0.56694 0.42417 0.8205 0.0
C1034 C 0.57037 0.3225 0.83335 0.0
C1035 C 0.5599 0.35493 0.85012 0.0
C1036 C 0.54988 0.41977 0.85121 0.0
C1037 C 0.55344 0.45389 0.83621 0.0
C1038 C 0.58083 0.25305 0.83148 0.0
C1039 C 0.53836 0.45564 0.86883 0.0
H1040 H 0.54176 0.21752 0.89378 0.0
H1041 H 0.61812 0.31733 0.8965 0.0
H1042 H 0.51024 0.31449 0.8626 0.0
H1043 H 0.52279 0.23707 0.85179 0.0
H1044 H 0.50691 0.24292 0.87397 0.0
H1045 H 0.62946 0.39396 0.87757 0.0
H1046 H 0.61768 0.36678 0.85458 0.0
H1047 H 0.60172 0.43488 0.8683 0.0
H1048 H 0.58427 0.33515 0.80643 0.0
H1049 H 0.54796 0.50527 0.83742 0.0
H1050 H 0.56698 0.22138 0.83812 0.0
H1051 H 0.60067 0.25296 0.83844 0.0
H1052 H 0.58352 0.23132 0.81686 0.0
H1053 H 0.52577 0.42252 0.8759 0.0
H1054 H 0.52605 0.49844 0.86632 0.0
H1055 H 0.55512 0.47382 0.8782 0.0
C1056 C 0.62367 0.29279 0.3323 0.0
C1057 C 0.64204 0.24774 0.33784 0.0
C1058 C 0.62129 0.35665 0.34197 0.0
C1059 C 0.63781 0.37631 0.35749 0.0
C1060 C 0.65697 0.33183 0.36281 0.0
C1061 C 0.65878 0.26813 0.35299 0.0
C1062 C 0.60049 0.40241 0.33591 0.0
C1063 C 0.67515 0.35101 0.37918 0.0
C1064 C 0.6454 0.55839 0.37583 0.0
C1065 C 0.62771 0.56577 0.39089 0.0
C1066 C 0.64883 0.49717 0.36478 0.0
C1067 C 0.63409 0.44205 0.36878 0.0
C1068 C 0.61599 0.44935 0.3838 0.0
C1069 C 0.6131 0.51087 0.39469 0.0
C1070 C 0.66846 0.4913 0.34895 0.0
C1071 C 0.59971 0.392 0.38847 0.0
H1072 H 0.61059 0.2777 0.32065 0.0
H1073 H 0.67316 0.23402 0.35735 0.0
H1074 H 0.58509 0.41409 0.34683 0.0
H1075 H 0.61006 0.44936 0.33375 0.0
H1076 H 0.59018 0.38094 0.32302 0.0
H1077 H 0.69011 0.31227 0.38084 0.0
H1078 H 0.68611 0.39699 0.37778 0.0
H1079 H 0.66285 0.36065 0.39188 0.0
H1080 H 0.65683 0.60032 0.37277 0.0
H1081 H 0.59927 0.51587 0.40621 0.0
H1082 H 0.65796 0.47249 0.33593 0.0
H1083 H 0.68444 0.45544 0.35095 0.0
H1084 H 0.67812 0.53893 0.34749 0.0
H1085 H 0.58745 0.37072 0.37645 0.0
H1086 H 0.58603 0.40614 0.40033 0.0
H1087 H 0.61342 0.3529 0.39178 0.0
C1088 C 0.55632 0.78531 0.39076 0.0
C1089 C 0.5664 0.81563 0.40762 0.0
C1090 C 0.555 0.8202 0.37578 0.0
C1091 C 0.56378 0.88641 0.37804 0.0
C1092 C 0.5706 0.91898 0.3957 0.0
C1093 C 0.57215 0.88277 0.41028 0.0
C1094 C 0.54739 0.78404 0.35716 0.0
C1095 C 0.57964 0.98976 0.39879 0.0
C1096 C 0.6082 0.94017 0.34146 0.0
C1097 C 0.59112 0.98191 0.33343 0.0
C1098 C 0.5991 0.90722 0.35557 0.0
C1099 C 0.5722 0.91636 0.36186 0.0
C1100 C 0.55462 0.95746 0.35361 0.0
C1101 C 0.56433 0.9899 0.33943 0.0
C1102 C 0.61853 0.8636 0.36399 0.0
C1103 C 0.52588 0.96824 0.36003 0.0
H1104 H 0.55198 0.73315 0.38882 0.0
H1105 H 0.57975 0.90594 0.42348 0.0
H1106 H 0.53572 0.81599 0.34917 0.0
H1107 H 0.56601 0.76886 0.34933 0.0
H1108 H 0.53539 0.73929 0.35835 0.0
H1109 H 0.57909 0.01087 0.41357 0.0
H1110 H 0.60066 0.99288 0.39382 0.0
H1111 H 0.56685 0.02013 0.39101 0.0
H1112 H 0.62878 0.93293 0.33668 0.0
H1113 H 0.55099 0.02181 0.33315 0.0
H1114 H 0.60992 0.81365 0.36349 0.0
H1115 H 0.62197 0.88354 0.37865 0.0
H1116 H 0.63834 0.85943 0.35688 0.0
H1117 H 0.51585 0.92063 0.36089 0.0
H1118 H 0.51396 -0.00474 0.35079 0.0
H1119 H 0.52565 -0.00315 0.37402 0.0
C1120 C 0.38274 0.23204 0.15256 0.0
C1121 C 0.36685 0.28549 0.1493 0.0
C1122 C 0.382 0.17219 0.14065 0.0
C1123 C 0.36494 0.16533 0.12507 0.0
C1124 C 0.3489 0.21899 0.12164 0.0
C1125 C 0.35004 0.27836 0.13378 0.0
C1126 C 0.39943 0.11616 0.14479 0.0
C1127 C 0.33043 0.21359 0.10519 0.0
C1128 C 0.38092 0.02684 0.08637 0.0
C1129 C 0.363 0.97758 0.09007 0.0
C1130 C 0.38145 0.08856 0.09744 0.0
C1131 C 0.36361 0.10153 0.11256 0.0
C1132 C 0.34505 0.05269 0.1161 0.0
C1133 C 0.34497 0.99143 0.10484 0.0
C1134 C 0.40153 0.13939 0.0932 0.0
C1135 C 0.32562 0.06463 0.13203 0.0
H1136 H 0.39585 0.23684 0.16446 0.0
H1137 H 0.3377 0.31921 0.13107 0.0
H1138 H 0.38661 0.07352 0.14671 0.0
H1139 H 0.41305 0.10012 0.13304 0.0
H1140 H 0.41187 0.12966 0.15733 0.0
H1141 H 0.3195 0.26004 0.10433 0.0
H1142 H 0.34221 0.20014 0.09238 0.0
H1143 H 0.31544 0.174 0.10584 0.0
H1144 H 0.39494 0.01685 0.07502 0.0
H1145 H 0.33096 0.954 0.10784 0.0
H1146 H 0.41581 0.15089 0.10482 0.0
H1147 H 0.391 0.18562 0.09155 0.0
H1148 H 0.41324 0.12269 0.08051 0.0
H1149 H 0.33699 0.0735 0.14514 0.0
H1150 H 0.31172 0.02258 0.1325 0.0
H1151 H 0.31346 0.10918 0.13114 0.0
C1152 C 0.40054 0.60482 0.16375 0.0
C1153 C 0.41525 0.54683 0.16354 0.0
C1154 C 0.40269 0.64176 0.14936 0.0
C1155 C 0.41951 0.61912 0.13426 0.0
C1156 C 0.43544 0.56224 0.13438 0.0
C1157 C 0.43331 0.52688 0.14921 0.0
C1158 C 0.38576 0.70289 0.14985 0.0
C1159 C 0.4533 0.53636 0.11835 0.0
C1160 C 0.39312 0.66358 0.08972 0.0
C1161 C 0.40981 0.71628 0.08715 0.0
C1162 C 0.39688 0.62986 0.10465 0.0
C1163 C 0.41753 0.65028 0.11747 0.0
C1164 C 0.43471 0.70299 0.11486 0.0
C1165 C 0.43078 0.73517 0.09956 0.0
C1166 C 0.37837 0.57323 0.10689 0.0
C1167 C 0.4566 0.72656 0.12849 0.0
H1168 H 0.38688 0.62066 0.17503 0.0
H1169 H 0.44467 0.48194 0.14912 0.0
H1170 H 0.39812 0.74402 0.14622 0.0
H1171 H 0.36936 0.69368 0.13956 0.0
H1172 H 0.37653 0.71825 0.16356 0.0
H1173 H 0.46687 0.49676 0.12158 0.0
H1174 H 0.44057 0.51643 0.10643 0.0
H1175 H 0.46572 0.57638 0.11413 0.0
H1176 H 0.37714 0.64836 0.07998 0.0
H1177 H 0.4437 0.77597 0.09753 0.0
H1178 H 0.36591 0.58587 0.11942 0.0
H1179 H 0.39034 0.52913 0.10864 0.0
H1180 H 0.36467 0.56058 0.09495 0.0
H1181 H 0.44738 0.74671 0.14186 0.0
H1182 H 0.46937 0.76522 0.1238 0.0
H1183 H 0.46965 0.68504 0.13092 0.0
C1184 C 0.34824 0.76152 0.62865 0.0
C1185 C 0.36601 0.7737 0.64363 0.0
C1186 C 0.34796 0.70079 0.61715 0.0
C1187 C 0.36592 0.65076 0.62062 0.0
C1188 C 0.38393 0.66255 0.63568 0.0
C1189 C 0.38373 0.72378 0.64701 0.0
C1190 C 0.32836 0.69012 0.6013 0.0
C1191 C 0.40341 0.61045 0.63982 0.0
C1192 C 0.34755 0.47491 0.60126 0.0
C1193 C 0.36354 0.4635 0.58535 0.0
C1194 C 0.34831 0.53532 0.6129 0.0
C1195 C 0.36552 0.58579 0.60862 0.0
C1196 C 0.38183 0.57465 0.59268 0.0
C1197 C 0.38062 0.51375 0.58123 0.0
C1198 C 0.33053 0.54527 0.62974 0.0
C1199 C 0.40047 0.62723 0.58766 0.0
H1200 H 0.33442 0.79953 0.62586 0.0
H1201 H 0.3976 0.73255 0.65848 0.0
H1202 H 0.33947 0.67733 0.58818 0.0
H1203 H 0.31483 0.6483 0.60277 0.0
H1204 H 0.31581 0.73413 0.60039 0.0
H1205 H 0.41631 0.62752 0.65192 0.0
H1206 H 0.39216 0.56622 0.64247 0.0
H1207 H 0.41659 0.59538 0.62776 0.0
H1208 H 0.33427 0.43662 0.60464 0.0
H1209 H 0.39313 0.50557 0.56904 0.0
H1210 H 0.31644 0.58652 0.62896 0.0
H1211 H 0.343 0.5586 0.64224 0.0
H1212 H 0.31858 0.50079 0.63129 0.0
H1213 H 0.38864 0.67109 0.58549 0.0
H1214 H 0.41225 0.61042 0.57501 0.0
H1215 H 0.41471 0.64277 0.59909 0.0
C1216 C 0.42488 0.2177 0.58629 0.0
C1217 C 0.40446 0.19789 0.57355 0.0
C1218 C 0.42853 0.18551 0.60161 0.0
C1219 C 0.41171 0.13171 0.60384 0.0
C1220 C 0.39207 0.10945 0.59044 0.0
C1221 C 0.38846 0.14344 0.57554 0.0
C1222 C 0.4493 0.21118 0.61586 0.0
C1223 C 0.3741 0.05142 0.59221 0.0
C1224 C 0.42716 0.01683 0.63812 0.0
C1225 C 0.40836 0.03817 0.65188 0.0
C1226 C 0.42922 0.04821 0.62251 0.0
C1227 C 0.41248 0.10272 0.62102 0.0
C1228 C 0.39448 0.12634 0.63537 0.0
C1229 C 0.3924 0.09318 0.65055 0.0
C1230 C 0.44824 0.02114 0.60727 0.0
C1231 C 0.37666 0.18517 0.6344 0.0
H1232 H 0.43721 0.25998 0.5847 0.0
H1233 H 0.37291 0.12768 0.5655 0.0
H1234 H 0.43897 0.23318 0.62867 0.0
H1235 H 0.46205 0.17058 0.61933 0.0
H1236 H 0.46251 0.24905 0.61119 0.0
H1237 H 0.36196 0.03615 0.57962 0.0
H1238 H 0.38634 0.00902 0.59505 0.0
H1239 H 0.36011 0.06414 0.60394 0.0
H1240 H 0.43944 0.9741 0.6392 0.0
H1241 H 0.37811 0.11007 0.66135 0.0
H1242 H 0.4609 0.06089 0.60313 0.0
H1243 H 0.43643 -0.00024 0.59504 0.0
H1244 H 0.46161 0.98247 0.6113 0.0
H1245 H 0.38882 0.22697 0.63097 0.0
H1246 H 0.36584 0.20106 0.6475 0.0
H1247 H 0.36151 0.17305 0.62334 0.0
loop_
_geom_bond_atom_site_label_1
_geom_bond_atom_site_label_2
_geom_bond_distance
_geom_bond_site_symmetry_2
_ccdc_geom_bond_type
Mg0 O1 2.028 . S
Mg0 O7 1.986 . S
Mg0 O9 2.114 . S
Mg0 O10 2.251 . S
Mg0 O13 2.010 . S
O1 Mg0 2.028 . S
O1 C4 1.250 . S
O2 Mg3 2.028 . S
O2 C4 1.248 . S
Mg3 O2 2.028 . S
Mg3 O8 2.032 . S
Mg3 O10 2.079 . S
C4 O1 1.250 . S
C4 O2 1.248 . S
C5 O6 1.264 . S
C5 O13 1.249 . S
O6 C5 1.264 . S
O7 Mg0 1.986 . S
O7 C11 1.246 . S
O8 Mg3 2.032 . S
O8 C11 1.259 . S
O9 Mg0 2.114 . S
O9 C12 1.252 . S
O10 Mg0 2.251 . S
O10 Mg3 2.079 . S
O10 C12 1.273 . S
C11 O7 1.246 . S
C11 O8 1.259 . S
C12 O9 1.252 . S
C12 O10 1.273 . S
O13 Mg0 2.010 . S
O13 C5 1.249 . S
Mg14 O15 2.028 . S
Mg14 O21 1.986 . S
Mg14 O23 2.114 . S
Mg14 O24 2.251 . S
Mg14 O27 2.010 . S
O15 Mg14 2.028 . S
O15 C18 1.250 . S
O16 Mg17 2.028 . S
O16 C18 1.248 . S
Mg17 O16 2.028 . S
Mg17 O22 2.032 . S
Mg17 O24 2.079 . S
C18 O15 1.250 . S
C18 O16 1.248 . S
C19 O20 1.264 . S
C19 O27 1.249 . S
O20 C19 1.264 . S
O21 Mg14 1.986 . S
O21 C25 1.246 . S
O22 Mg17 2.032 . S
O22 C25 1.259 . S
O23 Mg14 2.114 . S
O23 C26 1.252 . S
O24 Mg14 2.251 . S
O24 Mg17 2.079 . S
O24 C26 1.273 . S
C25 O21 1.246 . S
C25 O22 1.259 . S
C26 O23 1.252 . S
C26 O24 1.273 . S
O27 Mg14 2.010 . S
O27 C19 1.249 . S
Mg28 O29 2.028 . S
Mg28 O35 1.986 . S
Mg28 O37 2.114 . S
Mg28 O38 2.251 . S
Mg28 O41 2.010 . S
O29 Mg28 2.028 . S
O29 C32 1.250 . S
O30 Mg31 2.028 . S
O30 C32 1.248 . S
Mg31 O30 2.028 . S
Mg31 O36 2.032 . S
Mg31 O38 2.079 . S
C32 O29 1.250 . S
C32 O30 1.248 . S
C33 O34 1.264 . S
C33 O41 1.249 . S
O34 C33 1.264 . S
O35 Mg28 1.986 . S
O35 C39 1.246 . S
O36 Mg31 2.032 . S
O36 C39 1.259 . S
O37 Mg28 2.114 . S
O37 C40 1.252 . S
O38 Mg28 2.251 . S
O38 Mg31 2.079 . S
O38 C40 1.273 . S
C39 O35 1.246 . S
C39 O36 1.259 . S
C40 O37 1.252 . S
C40 O38 1.273 . S
O41 Mg28 2.010 . S
O41 C33 1.249 . S
Mg42 O43 2.028 . S
Mg42 O49 1.986 . S
Mg42 O51 2.114 . S
Mg42 O52 2.251 . S
Mg42 O55 2.010 . S
O43 Mg42 2.028 . S
O43 C46 1.250 . S
O44 Mg45 2.028 . S
O44 C46 1.248 . S
Mg45 O44 2.028 . S
Mg45 O50 2.032 . S
Mg45 O52 2.079 . S
C46 O43 1.250 . S
C46 O44 1.248 . S
C47 O48 1.264 . S
C47 O55 1.249 . S
O48 C47 1.264 . S
O49 Mg42 1.986 . S
O49 C53 1.246 . S
O50 Mg45 2.032 . S
O50 C53 1.259 . S
O51 Mg42 2.114 . S
O51 C54 1.252 . S
O52 Mg42 2.251 . S
O52 Mg45 2.079 . S
O52 C54 1.273 . S
C53 O49 1.246 . S
C53 O50 1.259 . S
C54 O51 1.252 . S
C54 O52 1.273 . S
O55 Mg42 2.010 . S
O55 C47 1.249 . S
Mg56 O57 2.028 . S
Mg56 O63 1.986 . S
Mg56 O65 2.114 . S
Mg56 O66 2.251 . S
Mg56 O69 2.010 . S
O57 Mg56 2.028 . S
O57 C60 1.250 . S
O58 Mg59 2.028 . S
O58 C60 1.248 . S
Mg59 O58 2.028 . S
Mg59 O64 2.032 . S
Mg59 O66 2.079 . S
C60 O57 1.250 . S
C60 O58 1.248 . S
C61 O62 1.264 . S
C61 O69 1.249 . S
O62 C61 1.264 . S
O63 Mg56 1.986 . S
O63 C67 1.246 . S
O64 Mg59 2.032 . S
O64 C67 1.259 . S
O65 Mg56 2.114 . S
O65 C68 1.252 . S
O66 Mg56 2.251 . S
O66 Mg59 2.079 . S
O66 C68 1.273 . S
C67 O63 1.246 . S
C67 O64 1.259 . S
C68 O65 1.252 . S
C68 O66 1.273 . S
O69 Mg56 2.010 . S
O69 C61 1.249 . S
Mg70 O71 2.028 . S
Mg70 O77 1.986 . S
Mg70 O79 2.114 . S
Mg70 O80 2.251 . S
Mg70 O83 2.010 . S
O71 Mg70 2.028 . S
O71 C74 1.250 . S
O72 Mg73 2.028 . S
O72 C74 1.248 . S
Mg73 O72 2.028 . S
Mg73 O78 2.032 . S
Mg73 O80 2.079 . S
C74 O71 1.250 . S
C74 O72 1.248 . S
C75 O76 1.264 . S
C75 O83 1.249 . S
O76 C75 1.264 . S
O77 Mg70 1.986 . S
O77 C81 1.246 . S
O78 Mg73 2.032 . S
O78 C81 1.259 . S
O79 Mg70 2.114 . S
O79 C82 1.252 . S
O80 Mg70 2.251 . S
O80 Mg73 2.079 . S
O80 C82 1.273 . S
C81 O77 1.246 . S
C81 O78 1.259 . S
C82 O79 1.252 . S
C82 O80 1.273 . S
O83 Mg70 2.010 . S
O83 C75 1.249 . S
Mg84 O85 2.028 . S
Mg84 O91 1.986 . S
Mg84 O93 2.114 . S
Mg84 O94 2.251 . S
Mg84 O97 2.010 . S
O85 Mg84 2.028 . S
O85 C88 1.250 . S
O86 Mg87 2.028 . S
O86 C88 1.248 . S
Mg87 O86 2.028 . S
Mg87 O92 2.032 . S
Mg87 O94 2.079 . S
C88 O85 1.250 . S
C88 O86 1.248 . S
C89 O90 1.264 . S
C89 O97 1.249 . S
O90 C89 1.264 . S
O91 Mg84 1.986 . S
O91 C95 1.246 . S
O92 Mg87 2.032 . S
O92 C95 1.259 . S
O93 Mg84 2.114 . S
O93 C96 1.252 . S
O94 Mg84 2.251 . S
O94 Mg87 2.079 . S
O94 C96 1.273 . S
C95 O91 1.246 . S
C95 O92 1.259 . S
C96 O93 1.252 . S
C96 O94 1.273 . S
O97 Mg84 2.010 . S
O97 C89 1.249 . S
Mg98 O99 2.028 . S
Mg98 O105 1.986 . S
Mg98 O107 2.114 . S
Mg98 O108 2.251 . S
Mg98 O111 2.010 . S
O99 Mg98 2.028 . S
O99 C102 1.250 . S
O100 Mg101 2.028 . S
O100 C102 1.248 . S
Mg101 O100 2.028 . S
Mg101 O106 2.032 . S
Mg101 O108 2.079 . S
C102 O99 1.250 . S
C102 O100 1.248 . S
C103 O104 1.264 . S
C103 O111 1.249 . S
O104 C103 1.264 . S
O105 Mg98 1.986 . S
O105 C109 1.246 . S
O106 Mg101 2.032 . S
O106 C109 1.259 . S
O107 Mg98 2.114 . S
O107 C110 1.252 . S
O108 Mg98 2.251 . S
O108 Mg101 2.079 . S
O108 C110 1.273 . S
C109 O105 1.246 . S
C109 O106 1.259 . S
C110 O107 1.252 . S
C110 O108 1.273 . S
O111 Mg98 2.010 . S
O111 C103 1.249 . S
Mg112 O113 2.028 . S
Mg112 O119 1.986 . S
Mg112 O121 2.114 . S
Mg112 O122 2.251 . S
Mg112 O125 2.010 . S
O113 Mg112 2.028 . S
O113 C116 1.250 . S
O114 Mg115 2.028 . S
O114 C116 1.248 . S
Mg115 O114 2.028 . S
Mg115 O120 2.032 . S
Mg115 O122 2.079 . S
C116 O113 1.250 . S
C116 O114 1.248 . S
C117 O118 1.264 . S
C117 O125 1.249 . S
O118 C117 1.264 . S
O119 Mg112 1.986 . S
O119 C123 1.246 . S
O120 Mg115 2.032 . S
O120 C123 1.259 . S
O121 Mg112 2.114 . S
O121 C124 1.252 . S
O122 Mg112 2.251 . S
O122 Mg115 2.079 . S
O122 C124 1.273 . S
C123 O119 1.246 . S
C123 O120 1.259 . S
C124 O121 1.252 . S
C124 O122 1.273 . S
O125 Mg112 2.010 . S
O125 C117 1.249 . S
Mg126 O127 2.028 . S
Mg126 O133 1.986 . S
Mg126 O135 2.114 . S
Mg126 O136 2.251 . S
Mg126 O139 2.010 . S
O127 Mg126 2.028 . S
O127 C130 1.250 . S
O128 Mg129 2.028 . S
O128 C130 1.248 . S
Mg129 O128 2.028 . S
Mg129 O134 2.032 . S
Mg129 O136 2.079 . S
C130 O127 1.250 . S
C130 O128 1.248 . S
C131 O132 1.264 . S
C131 O139 1.249 . S
O132 C131 1.264 . S
O133 Mg126 1.986 . S
O133 C137 1.246 . S
O134 Mg129 2.032 . S
O134 C137 1.259 . S
O135 Mg126 2.114 . S
O135 C138 1.252 . S
O136 Mg126 2.251 . S
O136 Mg129 2.079 . S
O136 C138 1.273 . S
C137 O133 1.246 . S
C137 O134 1.259 . S
C138 O135 1.252 . S
C138 O136 1.273 . S
O139 Mg126 2.010 . S
O139 C131 1.249 . S
Mg140 O141 2.028 . S
Mg140 O147 1.986 . S
Mg140 O149 2.114 . S
Mg140 O150 2.251 . S
Mg140 O153 2.010 . S
O141 Mg140 2.028 . S
O141 C144 1.250 . S
O142 Mg143 2.028 . S
O142 C144 1.248 . S
Mg143 O142 2.028 . S
Mg143 O148 2.032 . S
Mg143 O150 2.079 . S
C144 O141 1.250 . S
C144 O142 1.248 . S
C145 O146 1.264 . S
C145 O153 1.249 . S
O146 C145 1.264 . S
O147 Mg140 1.986 . S
O147 C151 1.246 . S
O148 Mg143 2.032 . S
O148 C151 1.259 . S
O149 Mg140 2.114 . S
O149 C152 1.252 . S
O150 Mg140 2.251 . S
O150 Mg143 2.079 . S
O150 C152 1.273 . S
C151 O147 1.246 . S
C151 O148 1.259 . S
C152 O149 1.252 . S
C152 O150 1.273 . S
O153 Mg140 2.010 . S
O153 C145 1.249 . S
Mg154 O155 2.028 . S
Mg154 O161 1.986 . S
Mg154 O163 2.114 . S
Mg154 O164 2.251 . S
Mg154 O167 2.010 . S
O155 Mg154 2.028 . S
O155 C158 1.250 . S
O156 Mg157 2.028 . S
O156 C158 1.248 . S
Mg157 O156 2.028 . S
Mg157 O162 2.032 . S
Mg157 O164 2.079 . S
C158 O155 1.250 . S
C158 O156 1.248 . S
C159 O160 1.264 . S
C159 O167 1.249 . S
O160 C159 1.264 . S
O161 Mg154 1.986 . S
O161 C165 1.246 . S
O162 Mg157 2.032 . S
O162 C165 1.259 . S
O163 Mg154 2.114 . S
O163 C166 1.252 . S
O164 Mg154 2.251 . S
O164 Mg157 2.079 . S
O164 C166 1.273 . S
C165 O161 1.246 . S
C165 O162 1.259 . S
C166 O163 1.252 . S
C166 O164 1.273 . S
O167 Mg154 2.010 . S
O167 C159 1.249 . S
Mg168 O169 2.028 . S
Mg168 O175 1.986 . S
Mg168 O177 2.114 . S
Mg168 O178 2.251 . S
Mg168 O181 2.010 . S
O169 Mg168 2.028 . S
O169 C172 1.250 . S
O170 Mg171 2.028 . S
O170 C172 1.248 . S
Mg171 O170 2.028 . S
Mg171 O176 2.032 . S
Mg171 O178 2.079 . S
C172 O169 1.250 . S
C172 O170 1.248 . S
C173 O174 1.264 . S
C173 O181 1.249 . S
O174 C173 1.264 . S
O175 Mg168 1.986 . S
O175 C179 1.246 . S
O176 Mg171 2.032 . S
O176 C179 1.259 . S
O177 Mg168 2.114 . S
O177 C180 1.252 . S
O178 Mg168 2.251 . S
O178 Mg171 2.079 . S
O178 C180 1.273 . S
C179 O175 1.246 . S
C179 O176 1.259 . S
C180 O177 1.252 . S
C180 O178 1.273 . S
O181 Mg168 2.010 . S
O181 C173 1.249 . S
Mg182 O183 2.028 . S
Mg182 O189 1.986 . S
Mg182 O191 2.114 . S
Mg182 O192 2.251 . S
Mg182 O195 2.010 . S
O183 Mg182 2.028 . S
O183 C186 1.250 . S
O184 Mg185 2.028 . S
O184 C186 1.248 . S
Mg185 O184 2.028 . S
Mg185 O190 2.032 . S
Mg185 O192 2.079 . S
C186 O183 1.250 . S
C186 O184 1.248 . S
C187 O188 1.264 . S
C187 O195 1.249 . S
O188 C187 1.264 . S
O189 Mg182 1.986 . S
O189 C193 1.246 . S
O190 Mg185 2.032 . S
O190 C193 1.259 . S
O191 Mg182 2.114 . S
O191 C194 1.252 . S
O192 Mg182 2.251 . S
O192 Mg185 2.079 . S
O192 C194 1.273 . S
C193 O189 1.246 . S
C193 O190 1.259 . S
C194 O191 1.252 . S
C194 O192 1.273 . S
O195 Mg182 2.010 . S
O195 C187 1.249 . S
Mg196 O197 2.028 . S
Mg196 O203 1.986 . S
Mg196 O205 2.114 . S
Mg196 O206 2.251 . S
Mg196 O209 2.010 . S
O197 Mg196 2.028 . S
O197 C200 1.250 . S
O198 Mg199 2.028 . S
O198 C200 1.248 . S
Mg199 O198 2.028 . S
Mg199 O204 2.032 . S
Mg199 O206 2.079 . S
C200 O197 1.250 . S
C200 O198 1.248 . S
C201 O202 1.264 . S
C201 O209 1.249 . S
O202 C201 1.264 . S
O203 Mg196 1.986 . S
O203 C207 1.246 . S
O204 Mg199 2.032 . S
O204 C207 1.259 . S
O205 Mg196 2.114 . S
O205 C208 1.252 . S
O206 Mg196 2.251 . S
O206 Mg199 2.079 . S
O206 C208 1.273 . S
C207 O203 1.246 . S
C207 O204 1.259 . S
C208 O205 1.252 . S
C208 O206 1.273 . S
O209 Mg196 2.010 . S
O209 C201 1.249 . S
Mg210 O211 2.028 . S
Mg210 O217 1.986 . S
Mg210 O219 2.114 . S
Mg210 O220 2.251 . S
Mg210 O223 2.010 . S
O211 Mg210 2.028 . S
O211 C214 1.250 . S
O212 Mg213 2.028 . S
O212 C214 1.248 . S
Mg213 O212 2.028 . S
Mg213 O218 2.032 . S
Mg213 O220 2.079 . S
C214 O211 1.250 . S
C214 O212 1.248 . S
C215 O216 1.264 . S
C215 O223 1.249 . S
O216 C215 1.264 . S
O217 Mg210 1.986 . S
O217 C221 1.246 . S
O218 Mg213 2.032 . S
O218 C221 1.259 . S
O219 Mg210 2.114 . S
O219 C222 1.252 . S
O220 Mg210 2.251 . S
O220 Mg213 2.079 . S
O220 C222 1.273 . S
C221 O217 1.246 . S
C221 O218 1.259 . S
C222 O219 1.252 . S
C222 O220 1.273 . S
O223 Mg210 2.010 . S
O223 C215 1.249 . S
C224 C225 1.391 . S
C224 C226 1.394 . S
C224 H240 0.931 . S
C225 C224 1.391 . S
C225 C229 1.376 . S
C226 C224 1.394 . S
C226 C227 1.369 . S
C226 C230 1.531 . S
C227 C226 1.369 . S
C227 C228 1.410 . S
C227 C235 1.503 . S
C228 C227 1.410 . S
C228 C229 1.392 . S
C228 C231 1.511 . S
C229 C225 1.376 . S
C229 C228 1.392 . S
C229 H241 0.929 . S
C230 C226 1.531 . S
C230 H242 0.960 . S
C230 H243 0.962 . S
C230 H244 0.960 . S
C231 C228 1.511 . S
C231 H245 0.961 . S
C231 H246 0.961 . S
C231 H247 0.961 . S
C232 C233 1.370 . S
C232 C234 1.363 . S
C232 H248 0.931 . S
C233 C232 1.370 . S
C233 C237 1.408 . S
C234 C232 1.363 . S
C234 C235 1.370 . S
C234 C238 1.524 . S
C235 C227 1.503 . S
C235 C234 1.370 . S
C235 C236 1.403 . S
C236 C235 1.403 . S
C236 C237 1.404 . S
C236 C239 1.539 . S
C237 C233 1.408 . S
C237 C236 1.404 . S
C237 H249 0.930 . S
C238 C234 1.524 . S
C238 H250 0.956 . S
C238 H251 0.961 . S
C238 H252 0.961 . S
C239 C236 1.539 . S
C239 H253 0.958 . S
C239 H254 0.961 . S
C239 H255 0.960 . S
H240 C224 0.931 . S
H241 C229 0.929 . S
H242 C230 0.960 . S
H243 C230 0.962 . S
H244 C230 0.960 . S
H245 C231 0.961 . S
H246 C231 0.961 . S
H247 C231 0.961 . S
H248 C232 0.931 . S
H249 C237 0.930 . S
H250 C238 0.956 . S
H251 C238 0.961 . S
H252 C238 0.961 . S
H253 C239 0.958 . S
H254 C239 0.961 . S
H255 C239 0.960 . S
C256 C257 1.391 . S
C256 C258 1.394 1_565 S
C256 H272 0.931 1_565 S
C257 C256 1.391 . S
C257 C261 1.376 . S
C258 C256 1.394 1_545 S
C258 C259 1.369 1_545 S
C258 C262 1.531 . S
C259 C258 1.369 1_565 S
C259 C260 1.410 . S
C259 C267 1.503 1_665 S
C260 C259 1.410 . S
C260 C261 1.392 . S
C260 C263 1.511 1_655 S
C261 C257 1.376 . S
C261 C260 1.392 . S
C261 H273 0.929 . S
C262 C258 1.531 . S
C262 H274 0.960 . S
C262 H275 0.962 . S
C262 H276 0.960 . S
C263 C260 1.511 1_455 S
C263 H277 0.961 . S
C263 H278 0.961 . S
C263 H279 0.961 . S
C264 C265 1.370 . S
C264 C266 1.363 . S
C264 H280 0.931 . S
C265 C264 1.370 . S
C265 C269 1.408 . S
C266 C264 1.363 . S
C266 C267 1.370 . S
C266 C270 1.524 1_445 S
C267 C259 1.503 1_445 S
C267 C266 1.370 . S
C267 C268 1.403 . S
C268 C267 1.403 . S
C268 C269 1.404 . S
C268 C271 1.539 . S
C269 C265 1.408 . S
C269 C268 1.404 . S
C269 H281 0.930 . S
C270 C266 1.524 1_665 S
C270 H282 0.956 1_565 S
C270 H283 0.961 . S
C270 H284 0.962 . S
C271 C268 1.539 . S
C271 H285 0.958 . S
C271 H286 0.961 . S
C271 H287 0.960 1_545 S
H272 C256 0.931 1_545 S
H273 C261 0.929 . S
H274 C262 0.960 . S
H275 C262 0.962 . S
H276 C262 0.960 . S
H277 C263 0.961 . S
H278 C263 0.961 . S
H279 C263 0.961 . S
H280 C264 0.931 . S
H281 C269 0.930 . S
H282 C270 0.956 1_545 S
H283 C270 0.961 . S
H284 C270 0.962 . S
H285 C271 0.958 . S
H286 C271 0.961 . S
H287 C271 0.960 1_565 S
C288 C289 1.391 . S
C288 C290 1.394 . S
C288 H304 0.931 . S
C289 C288 1.391 . S
C289 C293 1.376 . S
C290 C288 1.394 . S
C290 C291 1.369 . S
C290 C294 1.531 . S
C291 C290 1.369 . S
C291 C292 1.410 . S
C291 C299 1.503 1_565 S
C292 C291 1.410 . S
C292 C293 1.392 . S
C292 C295 1.511 . S
C293 C289 1.376 . S
C293 C292 1.392 . S
C293 H305 0.929 . S
C294 C290 1.531 . S
C294 H306 0.960 . S
C294 H307 0.962 1_565 S
C294 H308 0.960 . S
C295 C292 1.511 . S
C295 H309 0.961 . S
C295 H310 0.961 1_565 S
C295 H311 0.961 . S
C296 C297 1.370 . S
C296 C298 1.363 . S
C296 H312 0.931 . S
C297 C296 1.370 . S
C297 C301 1.408 1_545 S
C298 C296 1.363 . S
C298 C299 1.370 . S
C298 C302 1.524 . S
C299 C291 1.503 1_545 S
C299 C298 1.370 . S
C299 C300 1.403 1_545 S
C300 C299 1.403 1_565 S
C300 C301 1.404 . S
C300 C303 1.539 . S
C301 C297 1.408 1_565 S
C301 C300 1.404 . S
C301 H313 0.930 . S
C302 C298 1.524 . S
C302 H314 0.956 . S
C302 H315 0.961 . S
C302 H316 0.961 . S
C303 C300 1.539 . S
C303 H317 0.958 . S
C303 H318 0.961 . S
C303 H319 0.960 . S
H304 C288 0.931 . S
H305 C293 0.929 . S
H306 C294 0.960 . S
H307 C294 0.962 1_545 S
H308 C294 0.960 . S
H309 C295 0.961 . S
H310 C295 0.961 1_545 S
H311 C295 0.961 . S
H312 C296 0.931 . S
H313 C301 0.930 . S
H314 C302 0.956 . S
H315 C302 0.961 . S
H316 C302 0.961 . S
H317 C303 0.958 . S
H318 C303 0.961 . S
H319 C303 0.960 . S
C320 C321 1.391 . S
C320 C322 1.394 . S
C320 H336 0.931 . S
C321 C320 1.391 . S
C321 C325 1.376 . S
C322 C320 1.394 . S
C322 C323 1.369 . S
C322 C326 1.531 1_455 S
C323 C322 1.369 . S
C323 C324 1.410 . S
C323 C331 1.503 1_455 S
C324 C323 1.410 . S
C324 C325 1.392 . S
C324 C327 1.511 . S
C325 C321 1.376 . S
C325 C324 1.392 . S
C325 H337 0.929 . S
C326 C322 1.531 1_655 S
C326 H338 0.960 . S
C326 H339 0.962 . S
C326 H340 0.960 . S
C327 C324 1.511 . S
C327 H341 0.961 . S
C327 H342 0.961 . S
C327 H343 0.961 . S
C328 C329 1.370 . S
C328 C330 1.363 . S
C328 H344 0.931 . S
C329 C328 1.370 . S
C329 C333 1.408 . S
C330 C328 1.363 . S
C330 C331 1.370 . S
C330 C334 1.524 . S
C331 C323 1.503 1_655 S
C331 C330 1.370 . S
C331 C332 1.403 . S
C332 C331 1.403 . S
C332 C333 1.404 . S
C332 C335 1.539 . S
C333 C329 1.408 . S
C333 C332 1.404 . S
C333 H345 0.930 . S
C334 C330 1.524 . S
C334 H346 0.956 . S
C334 H347 0.961 1_655 S
C334 H348 0.961 . S
C335 C332 1.539 . S
C335 H349 0.958 . S
C335 H350 0.961 . S
C335 H351 0.960 1_655 S
H336 C320 0.931 . S
H337 C325 0.929 . S
H338 C326 0.960 . S
H339 C326 0.962 . S
H340 C326 0.960 . S
H341 C327 0.961 . S
H342 C327 0.961 . S
H343 C327 0.961 . S
H344 C328 0.931 . S
H345 C333 0.930 . S
H346 C334 0.956 . S
H347 C334 0.961 1_455 S
H348 C334 0.961 . S
H349 C335 0.958 . S
H350 C335 0.961 . S
H351 C335 0.960 1_455 S
C352 C353 1.391 . S
C352 C354 1.394 . S
C352 H368 0.931 . S
C353 C352 1.391 . S
C353 C357 1.376 . S
C354 C352 1.394 . S
C354 C355 1.369 . S
C354 C358 1.531 . S
C355 C354 1.369 . S
C355 C356 1.410 . S
C355 C363 1.503 . S
C356 C355 1.410 . S
C356 C357 1.392 . S
C356 C359 1.511 . S
C357 C353 1.376 . S
C357 C356 1.392 . S
C357 H369 0.929 . S
C358 C354 1.531 . S
C358 H370 0.960 . S
C358 H371 0.962 . S
C358 H372 0.960 . S
C359 C356 1.511 . S
C359 H373 0.961 . S
C359 H374 0.961 . S
C359 H375 0.961 . S
C360 C361 1.370 . S
C360 C362 1.363 . S
C360 H376 0.931 . S
C361 C360 1.370 . S
C361 C365 1.408 . S
C362 C360 1.363 . S
C362 C363 1.370 . S
C362 C366 1.524 . S
C363 C355 1.503 . S
C363 C362 1.370 . S
C363 C364 1.403 . S
C364 C363 1.403 . S
C364 C365 1.404 . S
C364 C367 1.539 . S
C365 C361 1.408 . S
C365 C364 1.404 . S
C365 H377 0.930 . S
C366 C362 1.524 . S
C366 H378 0.956 . S
C366 H379 0.961 . S
C366 H380 0.961 . S
C367 C364 1.539 . S
C367 H381 0.958 . S
C367 H382 0.961 . S
C367 H383 0.960 . S
H368 C352 0.931 . S
H369 C357 0.929 . S
H370 C358 0.960 . S
H371 C358 0.962 . S
H372 C358 0.960 . S
H373 C359 0.961 . S
H374 C359 0.961 . S
H375 C359 0.961 . S
H376 C360 0.931 . S
H377 C365 0.930 . S
H378 C366 0.956 . S
H379 C366 0.961 . S
H380 C366 0.961 . S
H381 C367 0.958 . S
H382 C367 0.961 . S
H383 C367 0.960 . S
C384 C385 1.391 . S
C384 C386 1.394 . S
C384 H400 0.931 . S
C385 C384 1.391 . S
C385 C389 1.376 . S
C386 C384 1.394 . S
C386 C387 1.369 . S
C386 C390 1.531 . S
C387 C386 1.369 . S
C387 C388 1.410 1_545 S
C387 C395 1.503 1_545 S
C388 C387 1.410 1_565 S
C388 C389 1.392 1_565 S
C388 C391 1.511 . S
C389 C385 1.376 . S
C389 C388 1.392 1_545 S
C389 H401 0.929 1_545 S
C390 C386 1.531 . S
C390 H402 0.960 . S
C390 H403 0.962 . S
C390 H404 0.960 . S
C391 C388 1.511 . S
C391 H405 0.961 . S
C391 H406 0.961 . S
C391 H407 0.961 . S
C392 C393 1.370 . S
C392 C394 1.363 . S
C392 H408 0.931 . S
C393 C392 1.370 . S
C393 C397 1.408 . S
C394 C392 1.363 . S
C394 C395 1.370 . S
C394 C398 1.524 . S
C395 C387 1.503 1_565 S
C395 C394 1.370 . S
C395 C396 1.403 . S
C396 C395 1.403 . S
C396 C397 1.404 . S
C396 C399 1.539 1_565 S
C397 C393 1.408 . S
C397 C396 1.404 . S
C397 H409 0.930 . S
C398 C394 1.524 . S
C398 H410 0.956 . S
C398 H411 0.961 . S
C398 H412 0.961 . S
C399 C396 1.539 1_545 S
C399 H413 0.958 . S
C399 H414 0.961 . S
C399 H415 0.960 . S
H400 C384 0.931 . S
H401 C389 0.929 1_565 S
H402 C390 0.960 . S
H403 C390 0.962 . S
H404 C390 0.960 . S
H405 C391 0.961 . S
H406 C391 0.961 . S
H407 C391 0.961 . S
H408 C392 0.931 . S
H409 C397 0.930 . S
H410 C398 0.956 . S
H411 C398 0.961 . S
H412 C398 0.961 . S
H413 C399 0.958 . S
H414 C399 0.961 . S
H415 C399 0.960 . S
C416 C417 1.391 . S
C416 C418 1.394 . S
C416 H432 0.931 . S
C417 C416 1.391 . S
C417 C421 1.376 . S
C418 C416 1.394 . S
C418 C419 1.369 . S
C418 C422 1.531 . S
C419 C418 1.369 . S
C419 C420 1.410 . S
C419 C427 1.503 1_655 S
C420 C419 1.410 . S
C420 C421 1.392 . S
C420 C423 1.511 . S
C421 C417 1.376 . S
C421 C420 1.392 . S
C421 H433 0.929 . S
C422 C418 1.531 . S
C422 H434 0.960 1_655 S
C422 H435 0.962 . S
C422 H436 0.960 . S
C423 C420 1.511 . S
C423 H437 0.961 . S
C423 H438 0.955 1_655 S
C423 H439 0.961 1_655 S
C424 C425 1.370 . S
C424 C426 1.363 . S
C424 H440 0.931 . S
C425 C424 1.370 . S
C425 C429 1.408 . S
C426 C424 1.363 . S
C426 C427 1.370 . S
C426 C430 1.524 1_455 S
C427 C419 1.503 1_455 S
C427 C426 1.370 . S
C427 C428 1.403 . S
C428 C427 1.403 . S
C428 C429 1.404 . S
C428 C431 1.539 . S
C429 C425 1.408 . S
C429 C428 1.404 . S
C429 H441 0.930 . S
C430 C426 1.524 1_655 S
C430 H442 0.956 . S
C430 H443 0.961 . S
C430 H444 0.961 . S
C431 C428 1.539 . S
C431 H445 0.958 . S
C431 H446 0.961 . S
C431 H447 0.960 . S
H432 C416 0.931 . S
H433 C421 0.929 . S
H434 C422 0.960 1_455 S
H435 C422 0.962 . S
H436 C422 0.960 . S
H437 C423 0.961 . S
H438 C423 0.955 1_455 S
H439 C423 0.961 1_455 S
H440 C424 0.931 . S
H441 C429 0.930 . S
H442 C430 0.956 . S
H443 C430 0.961 . S
H444 C430 0.961 . S
H445 C431 0.958 . S
H446 C431 0.961 . S
H447 C431 0.960 . S
C448 C449 1.391 . S
C448 C450 1.394 . S
C448 H464 0.931 . S
C449 C448 1.391 . S
C449 C453 1.376 . S
C450 C448 1.394 . S
C450 C451 1.369 . S
C450 C454 1.531 . S
C451 C450 1.369 . S
C451 C452 1.410 . S
C451 C459 1.503 1_554 S
C452 C451 1.410 . S
C452 C453 1.392 . S
C452 C455 1.511 1_554 S
C453 C449 1.376 . S
C453 C452 1.392 . S
C453 H465 0.929 . S
C454 C450 1.531 . S
C454 H466 0.980 . S
C454 H467 0.962 . S
C454 H468 0.960 . S
C455 C452 1.511 1_556 S
C455 H469 0.961 . S
C455 H470 0.961 . S
C455 H471 0.961 . S
C456 C457 1.370 . S
C456 C458 1.337 1_556 S
C456 H472 0.931 . S
C457 C456 1.370 . S
C457 C461 1.408 . S
C458 C456 1.337 1_554 S
C458 C459 1.338 1_554 S
C458 C462 1.586 . S
C459 C451 1.503 1_556 S
C459 C458 1.338 1_556 S
C459 C460 1.403 . S
C460 C459 1.403 . S
C460 C461 1.404 . S
C460 C463 1.539 . S
C461 C457 1.408 . S
C461 C460 1.404 . S
C461 H473 0.930 . S
C462 C458 1.586 . S
C462 H474 0.956 . S
C462 H475 0.961 . S
C462 H476 0.961 . S
C463 C460 1.539 . S
C463 H477 0.958 . S
C463 H478 0.961 . S
C463 H479 0.960 . S
H464 C448 0.931 . S
H465 C453 0.929 . S
H466 C454 0.980 . S
H467 C454 0.962 . S
H468 C454 0.960 . S
H469 C455 0.961 . S
H470 C455 0.961 . S
H471 C455 0.961 . S
H472 C456 0.931 . S
H473 C461 0.930 . S
H474 C462 0.956 . S
H475 C462 0.961 . S
H476 C462 0.961 . S
H477 C463 0.958 . S
H478 C463 0.961 . S
H479 C463 0.960 . S
C480 C481 1.391 . S
C480 C482 1.394 . S
C480 H496 0.931 . S
C481 C480 1.391 . S
C481 C485 1.376 . S
C482 C480 1.394 . S
C482 C483 1.369 . S
C482 C486 1.531 1_556 S
C483 C482 1.369 . S
C483 C484 1.410 . S
C483 C491 1.503 1_456 S
C484 C483 1.410 . S
C484 C485 1.392 . S
C484 C487 1.511 1_455 S
C485 C481 1.376 . S
C485 C484 1.392 . S
C485 H497 0.929 . S
C486 C482 1.531 1_554 S
C486 H498 0.960 . S
C486 H499 0.962 . S
C486 H500 0.960 . S
C487 C484 1.511 1_655 S
C487 H501 0.961 . S
C487 H502 0.961 . S
C487 H503 0.961 . S
C488 C489 1.370 . S
C488 C490 1.363 1_554 S
C488 H504 0.932 . S
C489 C488 1.370 . S
C489 C493 1.408 . S
C490 C488 1.363 1_556 S
C490 C491 1.370 1_556 S
C490 C494 1.524 . S
C491 C483 1.503 1_654 S
C491 C490 1.370 1_554 S
C491 C492 1.403 . S
C492 C491 1.403 . S
C492 C493 1.404 . S
C492 C495 1.539 . S
C493 C489 1.408 . S
C493 C492 1.404 . S
C493 H505 0.930 . S
C494 C490 1.524 . S
C494 H506 0.956 1_655 S
C494 H507 0.961 . S
C494 H508 0.961 . S
C495 C492 1.539 . S
C495 H509 0.958 1_655 S
C495 H510 0.961 . S
C495 H511 0.960 1_655 S
H496 C480 0.931 . S
H497 C485 0.929 . S
H498 C486 0.960 . S
H499 C486 0.962 . S
H500 C486 0.960 . S
H501 C487 0.961 . S
H502 C487 0.961 . S
H503 C487 0.961 . S
H504 C488 0.932 . S
H505 C493 0.930 . S
H506 C494 0.956 1_455 S
H507 C494 0.961 . S
H508 C494 0.961 . S
H509 C495 0.958 1_455 S
H510 C495 0.961 . S
H511 C495 0.960 1_455 S
C512 C513 1.391 . S
C512 C514 1.394 . S
C512 H528 0.931 . S
C513 C512 1.391 . S
C513 C517 1.376 . S
C514 C512 1.394 . S
C514 C515 1.369 . S
C514 C518 1.531 . S
C515 C514 1.369 . S
C515 C516 1.410 . S
C515 C523 1.503 . S
C516 C515 1.410 . S
C516 C517 1.392 . S
C516 C519 1.511 . S
C517 C513 1.376 . S
C517 C516 1.392 . S
C517 H529 0.929 . S
C518 C514 1.531 . S
C518 H530 0.960 . S
C518 H531 0.962 . S
C518 H532 0.960 . S
C519 C516 1.511 . S
C519 H533 0.961 . S
C519 H534 0.961 . S
C519 H535 0.961 . S
C520 C521 1.370 . S
C520 C522 1.363 . S
C520 H536 0.931 . S
C521 C520 1.370 . S
C521 C525 1.408 . S
C522 C520 1.363 . S
C522 C523 1.370 . S
C522 C526 1.524 . S
C523 C515 1.503 . S
C523 C522 1.370 . S
C523 C524 1.403 . S
C524 C523 1.403 . S
C524 C525 1.404 . S
C524 C527 1.539 . S
C525 C521 1.408 . S
C525 C524 1.404 . S
C525 H537 0.930 . S
C526 C522 1.524 . S
C526 H538 0.956 . S
C526 H539 0.961 . S
C526 H540 0.961 . S
C527 C524 1.539 . S
C527 H541 0.958 . S
C527 H542 0.961 . S
C527 H543 0.960 . S
H528 C512 0.931 . S
H529 C517 0.929 . S
H530 C518 0.960 . S
H531 C518 0.962 . S
H532 C518 0.960 . S
H533 C519 0.961 . S
H534 C519 0.961 . S
H535 C519 0.961 . S
H536 C520 0.931 . S
H537 C525 0.930 . S
H538 C526 0.956 . S
H539 C526 0.961 . S
H540 C526 0.961 . S
H541 C527 0.958 . S
H542 C527 0.961 . S
H543 C527 0.960 . S
C544 C545 1.391 . S
C544 C546 1.419 . S
C544 H560 0.931 . S
C545 C544 1.391 . S
C545 C549 1.376 . S
C546 C544 1.419 . S
C546 C547 1.371 . S
C546 C550 1.505 1_556 S
C547 C546 1.371 . S
C547 C548 1.410 . S
C547 C555 1.503 1_556 S
C548 C547 1.410 . S
C548 C549 1.392 . S
C548 C551 1.511 . S
C549 C545 1.376 . S
C549 C548 1.392 . S
C549 H561 0.929 . S
C550 C546 1.505 1_554 S
C550 H562 0.960 . S
C550 H563 0.962 . S
C550 H564 0.960 . S
C551 C548 1.511 . S
C551 H565 0.961 . S
C551 H566 0.961 . S
C551 H567 0.961 . S
C552 C553 1.370 . S
C552 C554 1.360 1_554 S
C552 H568 0.931 . S
C553 C552 1.370 . S
C553 C557 1.408 . S
C554 C552 1.360 1_556 S
C554 C555 1.367 1_556 S
C554 C558 1.530 . S
C555 C547 1.503 1_554 S
C555 C554 1.367 1_554 S
C555 C556 1.403 . S
C556 C555 1.403 . S
C556 C557 1.404 . S
C556 C559 1.539 . S
C557 C553 1.408 . S
C557 C556 1.404 . S
C557 H569 0.930 . S
C558 C554 1.530 . S
C558 H570 0.956 . S
C558 H571 0.961 . S
C558 H572 0.961 . S
C559 C556 1.539 . S
C559 H573 0.958 . S
C559 H574 0.961 . S
C559 H575 0.960 . S
H560 C544 0.931 . S
H561 C549 0.929 . S
H562 C550 0.960 . S
H563 C550 0.962 . S
H564 C550 0.960 . S
H565 C551 0.961 . S
H566 C551 0.961 . S
H567 C551 0.961 . S
H568 C552 0.931 . S
H569 C557 0.930 . S
H570 C558 0.956 . S
H571 C558 0.961 . S
H572 C558 0.961 . S
H573 C559 0.958 . S
H574 C559 0.961 . S
H575 C559 0.960 . S
C576 C577 1.391 . S
C576 C578 1.394 . S
C576 H592 0.931 . S
C577 C576 1.391 . S
C577 C581 1.376 . S
C578 C576 1.394 . S
C578 C579 1.369 . S
C578 C582 1.531 . S
C579 C578 1.369 . S
C579 C580 1.410 . S
C579 C587 1.503 . S
C580 C579 1.410 . S
C580 C581 1.392 . S
C580 C583 1.511 . S
C581 C577 1.376 . S
C581 C580 1.392 . S
C581 H593 0.929 . S
C582 C578 1.531 . S
C582 H594 0.960 . S
C582 H595 0.962 . S
C582 H596 0.960 . S
C583 C580 1.511 . S
C583 H597 0.961 . S
C583 H598 0.961 . S
C583 H599 0.961 . S
C584 C585 1.370 . S
C584 C586 1.363 . S
C584 H600 0.931 . S
C585 C584 1.370 . S
C585 C589 1.408 . S
C586 C584 1.363 . S
C586 C587 1.370 . S
C586 C590 1.524 . S
C587 C579 1.503 . S
C587 C586 1.370 . S
C587 C588 1.403 . S
C588 C587 1.403 . S
C588 C589 1.404 . S
C588 C591 1.539 . S
C589 C585 1.408 . S
C589 C588 1.404 . S
C589 H601 0.930 . S
C590 C586 1.524 . S
C590 H602 0.956 . S
C590 H603 0.961 . S
C590 H604 0.961 . S
C591 C588 1.539 . S
C591 H605 0.958 . S
C591 H606 0.961 . S
C591 H607 0.960 . S
H592 C576 0.931 . S
H593 C581 0.929 . S
H594 C582 0.960 . S
H595 C582 0.962 . S
H596 C582 0.960 . S
H597 C583 0.961 . S
H598 C583 0.961 . S
H599 C583 0.961 . S
H600 C584 0.931 . S
H601 C589 0.930 . S
H602 C590 0.956 . S
H603 C590 0.961 . S
H604 C590 0.961 . S
H605 C591 0.958 . S
H606 C591 0.961 . S
H607 C591 0.960 . S
C608 C609 1.391 . S
C608 C610 1.394 1_545 S
C608 H624 0.930 . S
C609 C608 1.391 . S
C609 C613 1.376 . S
C610 C608 1.394 1_565 S
C610 C611 1.369 1_565 S
C610 C614 1.531 . S
C611 C610 1.369 1_545 S
C611 C612 1.410 1_556 S
C611 C619 1.503 1_546 S
C612 C611 1.410 1_554 S
C612 C613 1.392 1_554 S
C612 C615 1.511 . S
C613 C609 1.376 . S
C613 C612 1.392 1_556 S
C613 H625 0.925 1_556 S
C614 C610 1.531 . S
C614 H626 0.960 . S
C614 H627 0.962 . S
C614 H628 0.960 . S
C615 C612 1.511 . S
C615 H629 0.961 . S
C615 H630 0.961 . S
C615 H631 0.961 . S
C616 C617 1.370 . S
C616 C618 1.363 . S
C616 H632 0.931 . S
C617 C616 1.370 . S
C617 C621 1.408 . S
C618 C616 1.363 . S
C618 C619 1.370 . S
C618 C622 1.524 1_564 S
C619 C611 1.503 1_564 S
C619 C618 1.370 . S
C619 C620 1.403 . S
C620 C619 1.403 . S
C620 C621 1.404 . S
C620 C623 1.539 . S
C621 C617 1.408 . S
C621 C620 1.404 . S
C621 H633 0.930 . S
C622 C618 1.524 1_546 S
C622 H634 0.956 . S
C622 H635 0.961 . S
C622 H636 0.961 . S
C623 C620 1.539 . S
C623 H637 0.958 . S
C623 H638 0.961 . S
C623 H639 0.960 . S
H624 C608 0.930 . S
H625 C613 0.925 1_554 S
H626 C614 0.960 . S
H627 C614 0.962 . S
H628 C614 0.960 . S
H629 C615 0.961 . S
H630 C615 0.961 . S
H631 C615 0.961 . S
H632 C616 0.931 . S
H633 C621 0.930 . S
H634 C622 0.956 . S
H635 C622 0.961 . S
H636 C622 0.961 . S
H637 C623 0.958 . S
H638 C623 0.961 . S
H639 C623 0.960 . S
C640 C641 1.391 . S
C640 C642 1.394 . S
C640 H656 0.931 . S
C641 C640 1.391 . S
C641 C645 1.376 . S
C642 C640 1.394 . S
C642 C643 1.369 . S
C642 C646 1.531 . S
C643 C642 1.369 . S
C643 C644 1.410 . S
C643 C651 1.503 . S
C644 C643 1.410 . S
C644 C645 1.392 . S
C644 C647 1.511 . S
C645 C641 1.376 . S
C645 C644 1.392 . S
C645 H657 0.929 . S
C646 C642 1.531 . S
C646 H658 0.960 . S
C646 H659 0.962 . S
C646 H660 0.960 . S
C647 C644 1.511 . S
C647 H661 0.961 . S
C647 H662 0.961 . S
C647 H663 0.961 . S
C648 C649 1.370 . S
C648 C650 1.363 . S
C648 H664 0.931 . S
C649 C648 1.370 . S
C649 C653 1.408 . S
C650 C648 1.363 . S
C650 C651 1.370 . S
C650 C654 1.524 . S
C651 C643 1.503 . S
C651 C650 1.370 . S
C651 C652 1.403 . S
C652 C651 1.403 . S
C652 C653 1.404 . S
C652 C655 1.539 . S
C653 C649 1.408 . S
C653 C652 1.404 . S
C653 H665 0.930 . S
C654 C650 1.524 . S
C654 H666 0.956 . S
C654 H667 0.961 . S
C654 H668 0.961 . S
C655 C652 1.539 . S
C655 H669 0.958 . S
C655 H670 0.961 . S
C655 H671 0.960 . S
H656 C640 0.931 . S
H657 C645 0.929 . S
H658 C646 0.960 . S
H659 C646 0.962 . S
H660 C646 0.960 . S
H661 C647 0.961 . S
H662 C647 0.961 . S
H663 C647 0.961 . S
H664 C648 0.931 . S
H665 C653 0.930 . S
H666 C654 0.956 . S
H667 C654 0.961 . S
H668 C654 0.961 . S
H669 C655 0.958 . S
H670 C655 0.961 . S
H671 C655 0.960 . S
C672 C673 1.391 . S
C672 C674 1.394 . S
C672 H688 0.931 . S
C673 C672 1.391 . S
C673 C677 1.376 . S
C674 C672 1.394 . S
C674 C675 1.369 . S
C674 C678 1.531 . S
C675 C674 1.369 . S
C675 C676 1.410 . S
C675 C683 1.503 . S
C676 C675 1.410 . S
C676 C677 1.392 . S
C676 C679 1.511 . S
C677 C673 1.376 . S
C677 C676 1.392 . S
C677 H689 0.929 . S
C678 C674 1.531 . S
C678 H690 0.960 . S
C678 H691 0.962 . S
C678 H692 0.960 . S
C679 C676 1.511 . S
C679 H693 0.961 . S
C679 H694 0.961 . S
C679 H695 0.961 . S
C680 C681 1.370 . S
C680 C682 1.363 . S
C680 H696 0.931 . S
C681 C680 1.370 . S
C681 C685 1.408 . S
C682 C680 1.363 . S
C682 C683 1.370 . S
C682 C686 1.524 . S
C683 C675 1.503 . S
C683 C682 1.370 . S
C683 C684 1.403 . S
C684 C683 1.403 . S
C684 C685 1.404 . S
C684 C687 1.539 . S
C685 C681 1.408 . S
C685 C684 1.404 . S
C685 H697 0.930 . S
C686 C682 1.524 . S
C686 H698 0.956 . S
C686 H699 0.961 . S
C686 H700 0.961 . S
C687 C684 1.539 . S
C687 H701 0.958 . S
C687 H702 0.961 . S
C687 H703 0.960 . S
H688 C672 0.931 . S
H689 C677 0.929 . S
H690 C678 0.960 . S
H691 C678 0.962 . S
H692 C678 0.960 . S
H693 C679 0.961 . S
H694 C679 0.961 . S
H695 C679 0.961 . S
H696 C680 0.931 . S
H697 C685 0.930 . S
H698 C686 0.956 . S
H699 C686 0.961 . S
H700 C686 0.961 . S
H701 C687 0.958 . S
H702 C687 0.961 . S
H703 C687 0.960 . S
C704 C705 1.391 . S
C704 C706 1.394 . S
C704 H720 0.931 . S
C705 C704 1.391 . S
C705 C709 1.376 . S
C706 C704 1.394 . S
C706 C707 1.369 . S
C706 C710 1.531 . S
C707 C706 1.369 . S
C707 C708 1.410 . S
C707 C715 1.503 . S
C708 C707 1.410 . S
C708 C709 1.392 . S
C708 C711 1.511 . S
C709 C705 1.376 . S
C709 C708 1.392 . S
C709 H721 0.929 . S
C710 C706 1.531 . S
C710 H722 0.960 . S
C710 H723 0.962 . S
C710 H724 0.960 . S
C711 C708 1.511 . S
C711 H725 0.961 . S
C711 H726 0.961 . S
C711 H727 0.961 . S
C712 C713 1.370 . S
C712 C714 1.363 . S
C712 H728 0.931 . S
C713 C712 1.370 . S
C713 C717 1.408 . S
C714 C712 1.363 . S
C714 C715 1.370 . S
C714 C718 1.524 . S
C715 C707 1.503 . S
C715 C714 1.370 . S
C715 C716 1.403 . S
C716 C715 1.403 . S
C716 C717 1.404 . S
C716 C719 1.539 . S
C717 C713 1.408 . S
C717 C716 1.404 . S
C717 H729 0.930 . S
C718 C714 1.524 . S
C718 H730 0.956 . S
C718 H731 0.961 . S
C718 H732 0.961 . S
C719 C716 1.539 . S
C719 H733 0.958 . S
C719 H734 0.961 . S
C719 H735 0.960 . S
H720 C704 0.931 . S
H721 C709 0.929 . S
H722 C710 0.960 . S
H723 C710 0.962 . S
H724 C710 0.960 . S
H725 C711 0.961 . S
H726 C711 0.961 . S
H727 C711 0.961 . S
H728 C712 0.931 . S
H729 C717 0.930 . S
H730 C718 0.956 . S
H731 C718 0.961 . S
H732 C718 0.961 . S
H733 C719 0.958 . S
H734 C719 0.961 . S
H735 C719 0.960 . S
C736 C737 1.391 . S
C736 C738 1.394 . S
C736 H752 0.931 . S
C737 C736 1.391 . S
C737 C741 1.376 . S
C738 C736 1.394 . S
C738 C739 1.369 . S
C738 C742 1.531 . S
C739 C738 1.369 . S
C739 C740 1.410 . S
C739 C747 1.503 . S
C740 C739 1.410 . S
C740 C741 1.392 . S
C740 C743 1.511 . S
C741 C737 1.376 . S
C741 C740 1.392 . S
C741 H753 0.929 . S
C742 C738 1.531 . S
C742 H754 0.960 . S
C742 H755 0.962 . S
C742 H756 0.960 . S
C743 C740 1.511 . S
C743 H757 0.961 . S
C743 H758 0.961 . S
C743 H759 0.961 . S
C744 C745 1.370 1_565 S
C744 C746 1.363 . S
C744 H760 0.931 . S
C745 C744 1.370 1_545 S
C745 C749 1.408 . S
C746 C744 1.363 . S
C746 C747 1.370 . S
C746 C750 1.524 . S
C747 C739 1.503 . S
C747 C746 1.370 . S
C747 C748 1.403 . S
C748 C747 1.403 . S
C748 C749 1.404 1_565 S
C748 C751 1.539 . S
C749 C745 1.408 . S
C749 C748 1.404 1_545 S
C749 H761 0.930 . S
C750 C746 1.524 . S
C750 H762 0.956 . S
C750 H763 0.961 . S
C750 H764 0.961 . S
C751 C748 1.539 . S
C751 H765 0.958 1_565 S
C751 H766 0.961 1_565 S
C751 H767 0.960 . S
H752 C736 0.931 . S
H753 C741 0.929 . S
H754 C742 0.960 . S
H755 C742 0.962 . S
H756 C742 0.960 . S
H757 C743 0.961 . S
H758 C743 0.961 . S
H759 C743 0.961 . S
H760 C744 0.931 . S
H761 C749 0.930 . S
H762 C750 0.956 . S
H763 C750 0.961 . S
H764 C750 0.961 . S
H765 C751 0.958 1_545 S
H766 C751 0.961 1_545 S
H767 C751 0.960 . S
C768 C769 1.391 . S
C768 C770 1.394 . S
C768 H784 0.931 . S
C769 C768 1.391 . S
C769 C773 1.376 . S
C770 C768 1.394 . S
C770 C771 1.369 . S
C770 C774 1.531 . S
C771 C770 1.369 . S
C771 C772 1.410 . S
C771 C779 1.503 . S
C772 C771 1.410 . S
C772 C773 1.392 . S
C772 C775 1.511 . S
C773 C769 1.376 . S
C773 C772 1.392 . S
C773 H785 0.929 . S
C774 C770 1.531 . S
C774 H786 0.960 . S
C774 H787 0.962 . S
C774 H788 0.960 . S
C775 C772 1.511 . S
C775 H789 0.961 . S
C775 H790 0.961 . S
C775 H791 0.961 . S
C776 C777 1.370 . S
C776 C778 1.363 . S
C776 H792 0.931 . S
C777 C776 1.370 . S
C777 C781 1.408 . S
C778 C776 1.363 . S
C778 C779 1.370 . S
C778 C782 1.524 . S
C779 C771 1.503 . S
C779 C778 1.370 . S
C779 C780 1.403 . S
C780 C779 1.403 . S
C780 C781 1.404 . S
C780 C783 1.539 . S
C781 C777 1.408 . S
C781 C780 1.404 . S
C781 H793 0.930 . S
C782 C778 1.524 . S
C782 H794 0.956 . S
C782 H795 0.961 . S
C782 H796 0.961 . S
C783 C780 1.539 . S
C783 H797 0.958 . S
C783 H798 0.961 . S
C783 H799 0.960 . S
H784 C768 0.931 . S
H785 C773 0.929 . S
H786 C774 0.960 . S
H787 C774 0.962 . S
H788 C774 0.960 . S
H789 C775 0.961 . S
H790 C775 0.961 . S
H791 C775 0.961 . S
H792 C776 0.931 . S
H793 C781 0.930 . S
H794 C782 0.956 . S
H795 C782 0.961 . S
H796 C782 0.961 . S
H797 C783 0.958 . S
H798 C783 0.961 . S
H799 C783 0.960 . S
C800 C801 1.391 . S
C800 C802 1.394 . S
C800 H816 0.931 . S
C801 C800 1.391 . S
C801 C805 1.376 . S
C802 C800 1.394 . S
C802 C803 1.369 . S
C802 C806 1.531 . S
C803 C802 1.369 . S
C803 C804 1.410 . S
C803 C811 1.503 . S
C804 C803 1.410 . S
C804 C805 1.392 . S
C804 C807 1.511 . S
C805 C801 1.376 . S
C805 C804 1.392 . S
C805 H817 0.929 . S
C806 C802 1.531 . S
C806 H818 0.960 . S
C806 H819 0.962 . S
C806 H820 0.960 . S
C807 C804 1.511 . S
C807 H821 0.961 . S
C807 H822 0.961 . S
C807 H823 0.961 . S
C808 C809 1.370 . S
C808 C810 1.363 . S
C808 H824 0.931 . S
C809 C808 1.370 . S
C809 C813 1.408 . S
C810 C808 1.363 . S
C810 C811 1.370 . S
C810 C814 1.524 . S
C811 C803 1.503 . S
C811 C810 1.370 . S
C811 C812 1.403 . S
C812 C811 1.403 . S
C812 C813 1.404 . S
C812 C815 1.539 . S
C813 C809 1.408 . S
C813 C812 1.404 . S
C813 H825 0.930 . S
C814 C810 1.524 . S
C814 H826 0.956 . S
C814 H827 0.961 . S
C814 H828 0.961 . S
C815 C812 1.539 . S
C815 H829 0.958 . S
C815 H830 0.961 . S
C815 H831 0.960 . S
H816 C800 0.931 . S
H817 C805 0.929 . S
H818 C806 0.960 . S
H819 C806 0.962 . S
H820 C806 0.960 . S
H821 C807 0.961 . S
H822 C807 0.961 . S
H823 C807 0.961 . S
H824 C808 0.931 . S
H825 C813 0.930 . S
H826 C814 0.956 . S
H827 C814 0.961 . S
H828 C814 0.961 . S
H829 C815 0.958 . S
H830 C815 0.961 . S
H831 C815 0.960 . S
C832 C833 1.391 . S
C832 C834 1.394 . S
C832 H848 0.931 . S
C833 C832 1.391 . S
C833 C837 1.376 . S
C834 C832 1.394 . S
C834 C835 1.369 . S
C834 C838 1.531 . S
C835 C834 1.369 . S
C835 C836 1.410 . S
C835 C843 1.503 . S
C836 C835 1.410 . S
C836 C837 1.392 . S
C836 C839 1.511 . S
C837 C833 1.376 . S
C837 C836 1.392 . S
C837 H849 0.929 . S
C838 C834 1.531 . S
C838 H850 0.960 . S
C838 H851 0.962 . S
C838 H852 0.960 . S
C839 C836 1.511 . S
C839 H853 0.961 . S
C839 H854 0.961 . S
C839 H855 0.961 . S
C840 C841 1.370 . S
C840 C842 1.363 . S
C840 H856 0.931 1_565 S
C841 C840 1.370 . S
C841 C845 1.408 . S
C842 C840 1.363 . S
C842 C843 1.370 . S
C842 C846 1.524 . S
C843 C835 1.503 . S
C843 C842 1.370 . S
C843 C844 1.403 . S
C844 C843 1.403 . S
C844 C845 1.404 . S
C844 C847 1.539 . S
C845 C841 1.408 . S
C845 C844 1.404 . S
C845 H857 0.930 . S
C846 C842 1.524 . S
C846 H858 0.956 . S
C846 H859 0.961 . S
C846 H860 0.961 1_565 S
C847 C844 1.539 . S
C847 H861 0.958 . S
C847 H862 0.961 . S
C847 H863 0.960 . S
H848 C832 0.931 . S
H849 C837 0.929 . S
H850 C838 0.960 . S
H851 C838 0.962 . S
H852 C838 0.960 . S
H853 C839 0.961 . S
H854 C839 0.961 . S
H855 C839 0.961 . S
H856 C840 0.931 1_545 S
H857 C845 0.930 . S
H858 C846 0.956 . S
H859 C846 0.961 . S
H860 C846 0.961 1_545 S
H861 C847 0.958 . S
H862 C847 0.961 . S
H863 C847 0.960 . S
C864 C865 1.391 . S
C864 C866 1.394 . S
C864 H880 0.931 . S
C865 C864 1.391 . S
C865 C869 1.376 . S
C866 C864 1.394 . S
C866 C867 1.369 . S
C866 C870 1.531 . S
C867 C866 1.369 . S
C867 C868 1.410 . S
C867 C875 1.503 . S
C868 C867 1.410 . S
C868 C869 1.392 . S
C868 C871 1.511 . S
C869 C865 1.376 . S
C869 C868 1.392 . S
C869 H881 0.929 . S
C870 C866 1.531 . S
C870 H882 0.960 . S
C870 H883 0.962 . S
C870 H884 0.960 . S
C871 C868 1.511 . S
C871 H885 0.961 . S
C871 H886 0.961 . S
C871 H887 0.961 . S
C872 C873 1.372 . S
C872 C874 1.363 1_565 S
C872 H888 0.931 . S
C873 C872 1.372 . S
C873 C877 1.399 1_565 S
C874 C872 1.363 1_545 S
C874 C875 1.370 . S
C874 C878 1.524 . S
C875 C867 1.503 . S
C875 C874 1.370 . S
C875 C876 1.403 . S
C876 C875 1.403 . S
C876 C877 1.404 . S
C876 C879 1.539 . S
C877 C873 1.399 1_545 S
C877 C876 1.404 . S
C877 H889 0.930 . S
C878 C874 1.524 . S
C878 H890 0.956 . S
C878 H891 0.961 . S
C878 H892 0.961 1_545 S
C879 C876 1.539 . S
C879 H893 0.958 . S
C879 H894 0.961 . S
C879 H895 0.960 . S
H880 C864 0.931 . S
H881 C869 0.929 . S
H882 C870 0.960 . S
H883 C870 0.962 . S
H884 C870 0.960 . S
H885 C871 0.961 . S
H886 C871 0.961 . S
H887 C871 0.961 . S
H888 C872 0.931 . S
H889 C877 0.930 . S
H890 C878 0.956 . S
H891 C878 0.961 . S
H892 C878 0.961 1_565 S
H893 C879 0.958 . S
H894 C879 0.961 . S
H895 C879 0.960 . S
C896 C897 1.391 . S
C896 C898 1.394 . S
C896 H912 0.931 . S
C897 C896 1.391 . S
C897 C901 1.376 . S
C898 C896 1.394 . S
C898 C899 1.369 . S
C898 C902 1.531 . S
C899 C898 1.369 . S
C899 C900 1.410 . S
C899 C907 1.503 . S
C900 C899 1.410 . S
C900 C901 1.392 . S
C900 C903 1.511 . S
C901 C897 1.376 . S
C901 C900 1.392 . S
C901 H913 0.929 . S
C902 C898 1.531 . S
C902 H914 0.960 . S
C902 H915 0.962 . S
C902 H916 0.960 . S
C903 C900 1.511 . S
C903 H917 0.961 . S
C903 H918 0.961 . S
C903 H919 0.961 . S
C904 C905 1.370 . S
C904 C906 1.363 . S
C904 H920 0.931 . S
C905 C904 1.370 . S
C905 C909 1.408 . S
C906 C904 1.363 . S
C906 C907 1.370 . S
C906 C910 1.524 . S
C907 C899 1.503 . S
C907 C906 1.370 . S
C907 C908 1.403 . S
C908 C907 1.403 . S
C908 C909 1.404 . S
C908 C911 1.539 . S
C909 C905 1.408 . S
C909 C908 1.404 . S
C909 H921 0.930 . S
C910 C906 1.524 . S
C910 H922 0.956 . S
C910 H923 0.961 . S
C910 H924 0.961 . S
C911 C908 1.539 . S
C911 H925 0.958 . S
C911 H926 0.961 . S
C911 H927 0.960 . S
H912 C896 0.931 . S
H913 C901 0.929 . S
H914 C902 0.960 . S
H915 C902 0.962 . S
H916 C902 0.960 . S
H917 C903 0.961 . S
H918 C903 0.961 . S
H919 C903 0.961 . S
H920 C904 0.931 . S
H921 C909 0.930 . S
H922 C910 0.956 . S
H923 C910 0.961 . S
H924 C910 0.961 . S
H925 C911 0.958 . S
H926 C911 0.961 . S
H927 C911 0.960 . S
C928 C929 1.391 . S
C928 C930 1.394 . S
C928 H944 0.931 . S
C929 C928 1.391 . S
C929 C933 1.376 . S
C930 C928 1.394 . S
C930 C931 1.369 . S
C930 C934 1.531 . S
C931 C930 1.369 . S
C931 C932 1.410 . S
C931 C939 1.503 . S
C932 C931 1.410 . S
C932 C933 1.392 . S
C932 C935 1.511 . S
C933 C929 1.376 . S
C933 C932 1.392 . S
C933 H945 0.929 . S
C934 C930 1.531 . S
C934 H946 0.960 . S
C934 H947 0.962 . S
C934 H948 0.960 . S
C935 C932 1.511 . S
C935 H949 0.961 . S
C935 H950 0.961 . S
C935 H951 0.961 . S
C936 C937 1.370 . S
C936 C938 1.363 . S
C936 H952 0.931 . S
C937 C936 1.370 . S
C937 C941 1.408 . S
C938 C936 1.363 . S
C938 C939 1.370 . S
C938 C942 1.524 . S
C939 C931 1.503 . S
C939 C938 1.370 . S
C939 C940 1.403 . S
C940 C939 1.403 . S
C940 C941 1.404 . S
C940 C943 1.539 . S
C941 C937 1.408 . S
C941 C940 1.404 . S
C941 H953 0.930 . S
C942 C938 1.524 . S
C942 H954 0.956 . S
C942 H955 0.961 . S
C942 H956 0.961 . S
C943 C940 1.539 . S
C943 H957 0.958 . S
C943 H958 0.961 . S
C943 H959 0.960 . S
H944 C928 0.931 . S
H945 C933 0.929 . S
H946 C934 0.960 . S
H947 C934 0.962 . S
H948 C934 0.960 . S
H949 C935 0.961 . S
H950 C935 0.961 . S
H951 C935 0.961 . S
H952 C936 0.931 . S
H953 C941 0.930 . S
H954 C942 0.956 . S
H955 C942 0.961 . S
H956 C942 0.961 . S
H957 C943 0.958 . S
H958 C943 0.961 . S
H959 C943 0.960 . S
C960 C961 1.391 . S
C960 C962 1.394 . S
C960 H976 0.931 . S
C961 C960 1.391 . S
C961 C965 1.376 . S
C962 C960 1.394 . S
C962 C963 1.369 . S
C962 C966 1.531 . S
C963 C962 1.369 . S
C963 C964 1.410 . S
C963 C971 1.503 . S
C964 C963 1.410 . S
C964 C965 1.392 . S
C964 C967 1.511 . S
C965 C961 1.376 . S
C965 C964 1.392 . S
C965 H977 0.929 1_545 S
C966 C962 1.531 . S
C966 H978 0.960 . S
C966 H979 0.962 . S
C966 H980 0.960 . S
C967 C964 1.511 . S
C967 H981 0.961 . S
C967 H982 0.961 . S
C967 H983 0.961 . S
C968 C969 1.370 . S
C968 C970 1.363 . S
C968 H984 0.931 . S
C969 C968 1.370 . S
C969 C973 1.408 . S
C970 C968 1.363 . S
C970 C971 1.370 . S
C970 C974 1.524 . S
C971 C963 1.503 . S
C971 C970 1.370 . S
C971 C972 1.403 . S
C972 C971 1.403 . S
C972 C973 1.404 . S
C972 C975 1.539 . S
C973 C969 1.408 . S
C973 C972 1.404 . S
C973 H985 0.930 . S
C974 C970 1.524 . S
C974 H986 0.956 . S
C974 H987 0.961 . S
C974 H988 0.961 . S
C975 C972 1.539 . S
C975 H989 0.958 . S
C975 H990 0.961 . S
C975 H991 0.960 . S
H976 C960 0.931 . S
H977 C965 0.929 1_565 S
H978 C966 0.960 . S
H979 C966 0.962 . S
H980 C966 0.960 . S
H981 C967 0.961 . S
H982 C967 0.961 . S
H983 C967 0.961 . S
H984 C968 0.931 . S
H985 C973 0.930 . S
H986 C974 0.956 . S
H987 C974 0.961 . S
H988 C974 0.961 . S
H989 C975 0.958 . S
H990 C975 0.961 . S
H991 C975 0.960 . S
C992 C993 1.391 . S
C992 C994 1.394 . S
C992 H1008 0.931 . S
C993 C992 1.391 . S
C993 C997 1.376 . S
C994 C992 1.394 . S
C994 C995 1.369 . S
C994 C998 1.531 . S
C995 C994 1.369 . S
C995 C996 1.410 . S
C995 C1003 1.503 . S
C996 C995 1.410 . S
C996 C997 1.392 . S
C996 C999 1.511 . S
C997 C993 1.376 . S
C997 C996 1.392 . S
C997 H1009 0.929 . S
C998 C994 1.531 . S
C998 H1010 0.960 . S
C998 H1011 0.962 . S
C998 H1012 0.960 . S
C999 C996 1.511 . S
C999 H1013 0.961 . S
C999 H1014 0.961 . S
C999 H1015 0.961 . S
C1000 C1001 1.370 1_565 S
C1000 C1002 1.363 . S
C1000 H1016 0.931 1_565 S
C1001 C1000 1.370 1_545 S
C1001 C1005 1.408 1_545 S
C1002 C1000 1.363 . S
C1002 C1003 1.370 . S
C1002 C1006 1.524 . S
C1003 C995 1.503 . S
C1003 C1002 1.370 . S
C1003 C1004 1.403 . S
C1004 C1003 1.403 . S
C1004 C1005 1.404 . S
C1004 C1007 1.539 . S
C1005 C1001 1.408 1_565 S
C1005 C1004 1.404 . S
C1005 H1017 0.930 . S
C1006 C1002 1.524 . S
C1006 H1018 0.956 . S
C1006 H1019 0.961 . S
C1006 H1020 0.961 . S
C1007 C1004 1.539 . S
C1007 H1021 0.958 . S
C1007 H1022 0.961 . S
C1007 H1023 0.960 . S
H1008 C992 0.931 . S
H1009 C997 0.929 . S
H1010 C998 0.960 . S
H1011 C998 0.962 . S
H1012 C998 0.960 . S
H1013 C999 0.961 . S
H1014 C999 0.961 . S
H1015 C999 0.961 . S
H1016 C1000 0.931 1_545 S
H1017 C1005 0.930 . S
H1018 C1006 0.956 . S
H1019 C1006 0.961 . S
H1020 C1006 0.961 . S
H1021 C1007 0.958 . S
H1022 C1007 0.961 . S
H1023 C1007 0.960 . S
C1024 C1025 1.391 . S
C1024 C1026 1.394 . S
C1024 H1040 0.931 . S
C1025 C1024 1.391 . S
C1025 C1029 1.376 . S
C1026 C1024 1.394 . S
C1026 C1027 1.369 . S
C1026 C1030 1.531 . S
C1027 C1026 1.369 . S
C1027 C1028 1.410 . S
C1027 C1035 1.503 . S
C1028 C1027 1.410 . S
C1028 C1029 1.392 . S
C1028 C1031 1.511 . S
C1029 C1025 1.376 . S
C1029 C1028 1.392 . S
C1029 H1041 0.929 . S
C1030 C1026 1.531 . S
C1030 H1042 0.960 . S
C1030 H1043 0.962 . S
C1030 H1044 0.960 . S
C1031 C1028 1.511 . S
C1031 H1045 0.961 . S
C1031 H1046 0.961 . S
C1031 H1047 0.961 . S
C1032 C1033 1.370 . S
C1032 C1034 1.363 . S
C1032 H1048 0.931 . S
C1033 C1032 1.370 . S
C1033 C1037 1.408 . S
C1034 C1032 1.363 . S
C1034 C1035 1.370 . S
C1034 C1038 1.524 . S
C1035 C1027 1.503 . S
C1035 C1034 1.370 . S
C1035 C1036 1.403 . S
C1036 C1035 1.403 . S
C1036 C1037 1.404 . S
C1036 C1039 1.539 . S
C1037 C1033 1.408 . S
C1037 C1036 1.404 . S
C1037 H1049 0.930 . S
C1038 C1034 1.524 . S
C1038 H1050 0.956 . S
C1038 H1051 0.961 . S
C1038 H1052 0.961 . S
C1039 C1036 1.539 . S
C1039 H1053 0.958 . S
C1039 H1054 0.961 . S
C1039 H1055 0.960 . S
H1040 C1024 0.931 . S
H1041 C1029 0.929 . S
H1042 C1030 0.960 . S
H1043 C1030 0.962 . S
H1044 C1030 0.960 . S
H1045 C1031 0.961 . S
H1046 C1031 0.961 . S
H1047 C1031 0.961 . S
H1048 C1032 0.931 . S
H1049 C1037 0.930 . S
H1050 C1038 0.956 . S
H1051 C1038 0.961 . S
H1052 C1038 0.961 . S
H1053 C1039 0.958 . S
H1054 C1039 0.961 . S
H1055 C1039 0.960 . S
C1056 C1057 1.391 . S
C1056 C1058 1.394 . S
C1056 H1072 0.931 . S
C1057 C1056 1.391 . S
C1057 C1061 1.376 . S
C1058 C1056 1.394 . S
C1058 C1059 1.369 . S
C1058 C1062 1.531 . S
C1059 C1058 1.369 . S
C1059 C1060 1.410 . S
C1059 C1067 1.503 . S
C1060 C1059 1.410 . S
C1060 C1061 1.392 . S
C1060 C1063 1.511 . S
C1061 C1057 1.376 . S
C1061 C1060 1.392 . S
C1061 H1073 0.929 . S
C1062 C1058 1.531 . S
C1062 H1074 0.960 . S
C1062 H1075 0.962 . S
C1062 H1076 0.960 . S
C1063 C1060 1.511 . S
C1063 H1077 0.961 . S
C1063 H1078 0.961 . S
C1063 H1079 0.961 . S
C1064 C1065 1.370 . S
C1064 C1066 1.363 . S
C1064 H1080 0.931 . S
C1065 C1064 1.370 . S
C1065 C1069 1.408 . S
C1066 C1064 1.363 . S
C1066 C1067 1.370 . S
C1066 C1070 1.524 . S
C1067 C1059 1.503 . S
C1067 C1066 1.370 . S
C1067 C1068 1.403 . S
C1068 C1067 1.403 . S
C1068 C1069 1.404 . S
C1068 C1071 1.539 . S
C1069 C1065 1.408 . S
C1069 C1068 1.404 . S
C1069 H1081 0.930 . S
C1070 C1066 1.524 . S
C1070 H1082 0.956 . S
C1070 H1083 0.961 . S
C1070 H1084 0.961 . S
C1071 C1068 1.539 . S
C1071 H1085 0.958 . S
C1071 H1086 0.961 . S
C1071 H1087 0.960 . S
H1072 C1056 0.931 . S
H1073 C1061 0.929 . S
H1074 C1062 0.960 . S
H1075 C1062 0.962 . S
H1076 C1062 0.960 . S
H1077 C1063 0.961 . S
H1078 C1063 0.961 . S
H1079 C1063 0.961 . S
H1080 C1064 0.931 . S
H1081 C1069 0.930 . S
H1082 C1070 0.956 . S
H1083 C1070 0.961 . S
H1084 C1070 0.961 . S
H1085 C1071 0.958 . S
H1086 C1071 0.961 . S
H1087 C1071 0.960 . S
C1088 C1089 1.391 . S
C1088 C1090 1.394 . S
C1088 H1104 0.931 . S
C1089 C1088 1.391 . S
C1089 C1093 1.376 . S
C1090 C1088 1.394 . S
C1090 C1091 1.369 . S
C1090 C1094 1.531 . S
C1091 C1090 1.369 . S
C1091 C1092 1.410 . S
C1091 C1099 1.503 . S
C1092 C1091 1.410 . S
C1092 C1093 1.392 . S
C1092 C1095 1.511 . S
C1093 C1089 1.376 . S
C1093 C1092 1.392 . S
C1093 H1105 0.929 . S
C1094 C1090 1.531 . S
C1094 H1106 0.960 . S
C1094 H1107 0.962 . S
C1094 H1108 0.960 . S
C1095 C1092 1.511 . S
C1095 H1109 0.961 . S
C1095 H1110 0.961 . S
C1095 H1111 0.961 . S
C1096 C1097 1.370 . S
C1096 C1098 1.363 . S
C1096 H1112 0.931 . S
C1097 C1096 1.370 . S
C1097 C1101 1.408 . S
C1098 C1096 1.363 . S
C1098 C1099 1.370 . S
C1098 C1102 1.524 . S
C1099 C1091 1.503 . S
C1099 C1098 1.370 . S
C1099 C1100 1.403 . S
C1100 C1099 1.403 . S
C1100 C1101 1.404 . S
C1100 C1103 1.539 . S
C1101 C1097 1.408 . S
C1101 C1100 1.404 . S
C1101 H1113 0.930 . S
C1102 C1098 1.524 . S
C1102 H1114 0.956 . S
C1102 H1115 0.961 . S
C1102 H1116 0.961 . S
C1103 C1100 1.539 . S
C1103 H1117 0.958 . S
C1103 H1118 0.961 . S
C1103 H1119 0.960 . S
H1104 C1088 0.931 . S
H1105 C1093 0.929 . S
H1106 C1094 0.960 . S
H1107 C1094 0.962 . S
H1108 C1094 0.960 . S
H1109 C1095 0.961 . S
H1110 C1095 0.961 . S
H1111 C1095 0.961 . S
H1112 C1096 0.931 . S
H1113 C1101 0.930 . S
H1114 C1102 0.956 . S
H1115 C1102 0.961 . S
H1116 C1102 0.961 . S
H1117 C1103 0.958 . S
H1118 C1103 0.961 . S
H1119 C1103 0.960 . S
C1120 C1121 1.391 . S
C1120 C1122 1.394 . S
C1120 H1136 0.931 . S
C1121 C1120 1.391 . S
C1121 C1125 1.376 . S
C1122 C1120 1.394 . S
C1122 C1123 1.369 . S
C1122 C1126 1.531 . S
C1123 C1122 1.369 . S
C1123 C1124 1.410 . S
C1123 C1131 1.503 . S
C1124 C1123 1.410 . S
C1124 C1125 1.392 . S
C1124 C1127 1.511 . S
C1125 C1121 1.376 . S
C1125 C1124 1.392 . S
C1125 H1137 0.929 . S
C1126 C1122 1.531 . S
C1126 H1138 0.960 . S
C1126 H1139 0.962 . S
C1126 H1140 0.960 . S
C1127 C1124 1.511 . S
C1127 H1141 0.961 . S
C1127 H1142 0.961 . S
C1127 H1143 0.961 . S
C1128 C1129 1.370 1_545 S
C1128 C1130 1.363 . S
C1128 H1144 0.931 . S
C1129 C1128 1.370 1_565 S
C1129 C1133 1.408 . S
C1130 C1128 1.363 . S
C1130 C1131 1.370 . S
C1130 C1134 1.524 . S
C1131 C1123 1.503 . S
C1131 C1130 1.370 . S
C1131 C1132 1.403 . S
C1132 C1131 1.403 . S
C1132 C1133 1.404 1_545 S
C1132 C1135 1.539 . S
C1133 C1129 1.408 . S
C1133 C1132 1.404 1_565 S
C1133 H1145 0.930 . S
C1134 C1130 1.524 . S
C1134 H1146 0.956 . S
C1134 H1147 0.961 . S
C1134 H1148 0.961 . S
C1135 C1132 1.539 . S
C1135 H1149 0.958 1_545 S
C1135 H1150 0.961 1_545 S
C1135 H1151 0.960 . S
H1136 C1120 0.931 . S
H1137 C1125 0.929 . S
H1138 C1126 0.960 . S
H1139 C1126 0.962 . S
H1140 C1126 0.960 . S
H1141 C1127 0.961 . S
H1142 C1127 0.961 . S
H1143 C1127 0.961 . S
H1144 C1128 0.931 . S
H1145 C1133 0.930 . S
H1146 C1134 0.956 . S
H1147 C1134 0.961 . S
H1148 C1134 0.961 . S
H1149 C1135 0.958 1_565 S
H1150 C1135 0.961 1_565 S
H1151 C1135 0.960 . S
C1152 C1153 1.391 . S
C1152 C1154 1.394 . S
C1152 H1168 0.931 . S
C1153 C1152 1.391 . S
C1153 C1157 1.376 . S
C1154 C1152 1.394 . S
C1154 C1155 1.369 . S
C1154 C1158 1.531 . S
C1155 C1154 1.369 . S
C1155 C1156 1.410 . S
C1155 C1163 1.503 . S
C1156 C1155 1.410 . S
C1156 C1157 1.392 . S
C1156 C1159 1.511 . S
C1157 C1153 1.376 . S
C1157 C1156 1.392 . S
C1157 H1169 0.929 . S
C1158 C1154 1.531 . S
C1158 H1170 0.960 . S
C1158 H1171 0.962 . S
C1158 H1172 0.960 . S
C1159 C1156 1.511 . S
C1159 H1173 0.961 . S
C1159 H1174 0.961 . S
C1159 H1175 0.961 . S
C1160 C1161 1.370 . S
C1160 C1162 1.363 . S
C1160 H1176 0.931 . S
C1161 C1160 1.370 . S
C1161 C1165 1.408 . S
C1162 C1160 1.363 . S
C1162 C1163 1.370 . S
C1162 C1166 1.524 . S
C1163 C1155 1.503 . S
C1163 C1162 1.370 . S
C1163 C1164 1.403 . S
C1164 C1163 1.403 . S
C1164 C1165 1.404 . S
C1164 C1167 1.539 . S
C1165 C1161 1.408 . S
C1165 C1164 1.404 . S
C1165 H1177 0.930 . S
C1166 C1162 1.524 . S
C1166 H1178 0.956 . S
C1166 H1179 0.961 . S
C1166 H1180 0.961 . S
C1167 C1164 1.539 . S
C1167 H1181 0.958 . S
C1167 H1182 0.961 . S
C1167 H1183 0.960 . S
H1168 C1152 0.931 . S
H1169 C1157 0.929 . S
H1170 C1158 0.960 . S
H1171 C1158 0.962 . S
H1172 C1158 0.960 . S
H1173 C1159 0.961 . S
H1174 C1159 0.961 . S
H1175 C1159 0.961 . S
H1176 C1160 0.931 . S
H1177 C1165 0.930 . S
H1178 C1166 0.956 . S
H1179 C1166 0.961 . S
H1180 C1166 0.961 . S
H1181 C1167 0.958 . S
H1182 C1167 0.961 . S
H1183 C1167 0.960 . S
C1184 C1185 1.391 . S
C1184 C1186 1.394 . S
C1184 H1200 0.931 . S
C1185 C1184 1.391 . S
C1185 C1189 1.376 . S
C1186 C1184 1.394 . S
C1186 C1187 1.369 . S
C1186 C1190 1.531 . S
C1187 C1186 1.369 . S
C1187 C1188 1.410 . S
C1187 C1195 1.503 . S
C1188 C1187 1.410 . S
C1188 C1189 1.392 . S
C1188 C1191 1.511 . S
C1189 C1185 1.376 . S
C1189 C1188 1.392 . S
C1189 H1201 0.929 . S
C1190 C1186 1.531 . S
C1190 H1202 0.960 . S
C1190 H1203 0.962 . S
C1190 H1204 0.960 . S
C1191 C1188 1.511 . S
C1191 H1205 0.961 . S
C1191 H1206 0.961 . S
C1191 H1207 0.961 . S
C1192 C1193 1.370 . S
C1192 C1194 1.363 . S
C1192 H1208 0.931 . S
C1193 C1192 1.370 . S
C1193 C1197 1.408 . S
C1194 C1192 1.363 . S
C1194 C1195 1.370 . S
C1194 C1198 1.524 . S
C1195 C1187 1.503 . S
C1195 C1194 1.370 . S
C1195 C1196 1.403 . S
C1196 C1195 1.403 . S
C1196 C1197 1.404 . S
C1196 C1199 1.539 . S
C1197 C1193 1.408 . S
C1197 C1196 1.404 . S
C1197 H1209 0.930 . S
C1198 C1194 1.524 . S
C1198 H1210 0.956 . S
C1198 H1211 0.961 . S
C1198 H1212 0.961 . S
C1199 C1196 1.539 . S
C1199 H1213 0.958 . S
C1199 H1214 0.961 . S
C1199 H1215 0.960 . S
H1200 C1184 0.931 . S
H1201 C1189 0.929 . S
H1202 C1190 0.960 . S
H1203 C1190 0.962 . S
H1204 C1190 0.960 . S
H1205 C1191 0.961 . S
H1206 C1191 0.961 . S
H1207 C1191 0.961 . S
H1208 C1192 0.931 . S
H1209 C1197 0.930 . S
H1210 C1198 0.956 . S
H1211 C1198 0.961 . S
H1212 C1198 0.961 . S
H1213 C1199 0.958 . S
H1214 C1199 0.961 . S
H1215 C1199 0.960 . S
C1216 C1217 1.391 . S
C1216 C1218 1.394 . S
C1216 H1232 0.931 . S
C1217 C1216 1.391 . S
C1217 C1221 1.376 . S
C1218 C1216 1.394 . S
C1218 C1219 1.369 . S
C1218 C1222 1.531 . S
C1219 C1218 1.369 . S
C1219 C1220 1.410 . S
C1219 C1227 1.503 . S
C1220 C1219 1.410 . S
C1220 C1221 1.392 . S
C1220 C1223 1.511 . S
C1221 C1217 1.376 . S
C1221 C1220 1.392 . S
C1221 H1233 0.929 . S
C1222 C1218 1.531 . S
C1222 H1234 0.960 . S
C1222 H1235 0.962 . S
C1222 H1236 0.960 . S
C1223 C1220 1.511 . S
C1223 H1237 0.961 . S
C1223 H1238 0.961 . S
C1223 H1239 0.961 . S
C1224 C1225 1.370 . S
C1224 C1226 1.363 . S
C1224 H1240 0.931 . S
C1225 C1224 1.370 . S
C1225 C1229 1.408 . S
C1226 C1224 1.363 . S
C1226 C1227 1.370 . S
C1226 C1230 1.524 . S
C1227 C1219 1.503 . S
C1227 C1226 1.370 . S
C1227 C1228 1.403 . S
C1228 C1227 1.403 . S
C1228 C1229 1.404 . S
C1228 C1231 1.539 . S
C1229 C1225 1.408 . S
C1229 C1228 1.404 . S
C1229 H1241 0.930 . S
C1230 C1226 1.524 . S
C1230 H1242 0.956 . S
C1230 H1243 0.961 . S
C1230 H1244 0.961 . S
C1231 C1228 1.539 . S
C1231 H1245 0.958 . S
C1231 H1246 0.961 . S
C1231 H1247 0.960 . S
H1232 C1216 0.931 . S
H1233 C1221 0.929 . S
H1234 C1222 0.960 . S
H1235 C1222 0.962 . S
H1236 C1222 0.960 . S
H1237 C1223 0.961 . S
H1238 C1223 0.961 . S
H1239 C1223 0.961 . S
H1240 C1224 0.931 . S
H1241 C1229 0.930 . S
H1242 C1230 0.956 . S
H1243 C1230 0.961 . S
H1244 C1230 0.961 . S
H1245 C1231 0.958 . S
H1246 C1231 0.961 . S
H1247 C1231 0.960 . S
C225 C207 1.496 . S
C233 C11 1.489 . S
C257 C33 1.407 . S
C265 C5 1.376 . S
C289 C165 1.504 . S
C297 C25 1.486 . S
C321 C19 1.430 . S
C329 C103 1.363 . S
C353 C39 1.471 . S
C361 C179 1.502 . S
C385 C137 1.476 . S
C393 C53 1.500 . S
C417 C47 1.373 . S
C425 C75 1.391 . S
C449 C151 1.514 . S
C457 C67 1.483 . S
C481 C61 1.332 . S
C489 C89 1.405 . S
C513 C221 1.465 . S
C521 C81 1.504 . S
C545 C123 1.514 . S
C553 C95 1.483 . S
C577 C193 1.502 . S
C585 C109 1.487 . S
C609 C117 1.396 . S
C617 C145 1.381 . S
C641 C215 1.369 . S
C649 C131 1.392 . S
C673 C159 1.430 . S
C681 C187 1.364 . S
C705 C201 1.347 . S
C713 C173 1.395 . S
C737 C74 1.131 . S
C745 C4 1.090 . S
C769 C12 1.170 . S
C777 C82 1.163 . S
C801 C18 1.120 . S
C809 C60 1.102 . S
C833 C68 1.157 . S
C841 C26 1.175 1_565 S
C865 C102 1.072 . S
C873 C32 1.121 . S
C897 C110 1.181 . S
C905 C40 1.168 . S
C929 C88 1.113 . S
C937 C46 1.082 . S
C961 C54 1.181 1_545 S
C969 C96 1.168 . S
C993 C186 1.102 . S
C1001 C116 1.109 . S
C1025 C124 1.167 . S
C1033 C194 1.163 . S
C1057 C130 1.102 . S
C1065 C172 1.109 . S
C1089 C180 1.172 . S
C1097 C138 1.174 1_565 S
C1121 C214 1.115 . S
C1129 C144 1.082 . S
C1153 C222 1.181 . S
C1161 C152 1.168 . S
C1185 C158 1.076 . S
C1193 C200 1.112 . S
C1217 C208 1.154 . S
C1225 C166 1.166 1_545 S
