# Generated by pormake.
# Topology smu, (6)-cn, num edge types: 1
# Building blocks:
#     Node 0, Type 0, BuildingBlock: LEVNOQ01_clean_sbu_1, # of connection points: 6
#     Node 1, Type 0, BuildingBlock: LEVNOQ01_clean_sbu_1, # of connection points: 6
#     Node 2, Type 0, BuildingBlock: LEVNOQ01_clean_sbu_1, # of connection points: 6
#     Node 3, Type 0, BuildingBlock: LEVNOQ01_clean_sbu_1, # of connection points: 6
#     Node 4, Type 0, BuildingBlock: LEVNOQ01_clean_sbu_1, # of connection points: 6
#     Node 5, Type 0, BuildingBlock: LEVNOQ01_clean_sbu_1, # of connection points: 6
#     Edge 6, Type (0, 0), BuildingBlock: TEMPAE_clean_linker_10, # of connection points: 2
#     Edge 7, Type (0, 0), BuildingBlock: TEMPAE_clean_linker_10, # of connection points: 2
#     Edge 8, Type (0, 0), BuildingBlock: TEMPAE_clean_linker_10, # of connection points: 2
#     Edge 9, Type (0, 0), BuildingBlock: TEMPAE_clean_linker_10, # of connection points: 2
#     Edge 10, Type (0, 0), BuildingBlock: TEMPAE_clean_linker_10, # of connection points: 2
#     Edge 11, Type (0, 0), BuildingBlock: TEMPAE_clean_linker_10, # of connection points: 2
#     Edge 12, Type (0, 0), BuildingBlock: TEMPAE_clean_linker_10, # of connection points: 2
#     Edge 13, Type (0, 0), BuildingBlock: TEMPAE_clean_linker_10, # of connection points: 2
#     Edge 14, Type (0, 0), BuildingBlock: TEMPAE_clean_linker_10, # of connection points: 2
#     Edge 15, Type (0, 0), BuildingBlock: TEMPAE_clean_linker_10, # of connection points: 2
#     Edge 16, Type (0, 0), BuildingBlock: TEMPAE_clean_linker_10, # of connection points: 2
#     Edge 17, Type (0, 0), BuildingBlock: TEMPAE_clean_linker_10, # of connection points: 2
#     Edge 18, Type (0, 0), BuildingBlock: TEMPAE_clean_linker_10, # of connection points: 2
#     Edge 19, Type (0, 0), BuildingBlock: TEMPAE_clean_linker_10, # of connection points: 2
#     Edge 20, Type (0, 0), BuildingBlock: TEMPAE_clean_linker_10, # of connection points: 2
#     Edge 21, Type (0, 0), BuildingBlock: TEMPAE_clean_linker_10, # of connection points: 2
#     Edge 22, Type (0, 0), BuildingBlock: TEMPAE_clean_linker_10, # of connection points: 2
#     Edge 23, Type (0, 0), BuildingBlock: TEMPAE_clean_linker_10, # of connection points: 2
# Relax obj value: 0.256
# Max RMSD: 0.254
# Mean RMSD: 0.254
data_MOF--net-smu--node1-LEVNOQ01_clean_sbu_1--edge1-TEMPAE_clean_linker_10
_symmetry_space_group_name_H-M    P1
_symmetry_Int_Tables_number       1
_symmetry_cell_setting            triclinic
loop_
_symmetry_equiv_pos_as_xyz
'x, y, z'
_cell_length_a     29.684011
_cell_length_b     29.769181
_cell_length_c     30.345054
_cell_angle_alpha  90.174887
_cell_angle_beta   89.916884
_cell_angle_gamma 119.97044
loop_
_atom_site_label
_atom_site_type_symbol
_atom_site_fract_x
_atom_site_fract_y
_atom_site_fract_z
_atom_type_partial_charge
O0 O 0.40325 0.03669 0.28899 0.0
Mg1 Mg 0.39216 0.09955 0.30384 0.0
O2 O 0.38276 0.06124 0.22905 0.0
Mg3 Mg 0.31611 0.07621 0.24815 0.0
O4 O 0.31957 0.07768 0.32712 0.0
O5 O 0.39112 0.10836 0.36921 0.0
O6 O 0.24986 0.0925 0.25786 0.0
O7 O 0.2645 0.98985 0.26333 0.0
Mg8 Mg 0.22805 0.0166 0.17271 0.0
O9 O 0.3071 0.07243 0.17249 0.0
O10 O 0.2074 0.07219 0.1939 0.0
O11 O 0.19553 0.96048 0.22052 0.0
O12 O 0.28068 -0.00625 0.15123 0.0
C13 C 0.41713 0.19173 0.24937 0.0
C14 C 0.40658 0.0412 0.24775 0.0
C15 C 0.34129 0.08716 0.36598 0.0
C16 C 0.21705 0.09378 0.23166 0.0
C17 C 0.21903 0.95492 0.25277 0.0
C18 C 0.31524 0.04139 0.14888 0.0
O19 O 0.43851 0.17265 0.27294 0.0
O20 O 0.36941 0.1643 0.23886 0.0
O21 O 0.62508 0.5897 0.30011 0.0
Mg22 Mg 0.69596 0.59364 0.31552 0.0
O23 O 0.66323 0.59369 0.23862 0.0
Mg24 Mg 0.74836 0.65866 0.25185 0.0
O25 O 0.75154 0.66739 0.33072 0.0
O26 O 0.70984 0.60331 0.38012 0.0
O27 O 0.83482 0.71686 0.26312 0.0
O28 O 0.72205 0.7211 0.25773 0.0
Mg29 Mg 0.77726 0.72239 0.19708 0.0
O30 O 0.74698 0.65013 0.17282 0.0
O31 O 0.84434 0.78317 0.22577 0.0
O32 O 0.71596 0.73636 0.18881 0.0
O33 O 0.81158 0.71869 0.13998 0.0
C34 C 0.75533 0.55531 0.26576 0.0
C35 C 0.62162 0.57461 0.26093 0.0
C36 C 0.74167 0.65141 0.37147 0.0
C37 C 0.86221 0.764 0.25252 0.0
C38 C 0.70975 0.74377 0.22858 0.0
C39 C 0.7714 0.67333 0.13705 0.0
O40 O 0.71782 0.53957 0.29258 0.0
O41 O 0.77492 0.60002 0.24897 0.0
O42 O 0.92514 0.35373 0.30619 0.0
Mg43 Mg 0.86181 0.28426 0.33078 0.0
O44 O 0.92047 0.31452 0.24356 0.0
Mg45 Mg 0.89509 0.22998 0.2569 0.0
O46 O 0.8885 0.2338 0.33223 0.0
O47 O 0.86644 0.25926 0.39331 0.0
O48 O 0.86184 0.14417 0.26996 0.0
O49 O 0.97951 0.25272 0.27526 0.0
Mg50 Mg 0.94468 0.19581 0.20619 0.0
O51 O 0.90356 0.22694 0.17868 0.0
O52 O 0.9217 0.1288 0.2449 0.0
O53 O 0.02021 0.2577 0.21417 0.0
O54 O 0.92158 0.17127 0.14383 0.0
C55 C 0.77788 0.21892 0.26252 0.0
C56 C 0.93123 0.35548 0.26483 0.0
C57 C 0.88655 0.2343 0.37487 0.0
C58 C 0.88046 0.11435 0.26641 0.0
C59 C 0.02184 0.26592 0.25503 0.0
C60 C 0.90872 0.20661 0.14217 0.0
O61 O 0.78998 0.24832 0.29613 0.0
O62 O 0.81042 0.20849 0.24446 0.0
O63 O 0.93766 0.22458 0.76767 0.0
Mg64 Mg -0.00188 0.24038 0.81146 0.0
O65 O -0.00045 0.26261 0.7199 0.0
Mg66 Mg 0.07966 0.32189 0.7452 0.0
O67 O 0.06752 0.31022 0.82138 0.0
O68 O -0.00589 0.30234 0.84145 0.0
O69 O 0.16517 0.37888 0.7634 0.0
O70 O 0.06085 0.38683 0.75448 0.0
Mg71 Mg 0.1274 0.409 0.67341 0.0
O72 O 0.09094 0.3309 0.66924 0.0
O73 O 0.19568 0.44004 0.71205 0.0
O74 O 0.06766 0.42465 0.69112 0.0
O75 O 0.12706 0.38176 0.61114 0.0
C76 C 0.08022 0.21734 0.76366 0.0
C77 C 0.95215 0.23199 0.72826 0.0
C78 C 0.04269 0.32374 0.84802 0.0
C79 C 0.20159 0.42088 0.74734 0.0
C80 C 0.05706 0.42047 0.73183 0.0
C81 C 0.09729 0.33598 0.6268 0.0
O82 O 0.04254 0.20268 0.79098 0.0
O83 O 0.09916 0.25969 0.74266 0.0
O84 O 0.28185 0.01687 0.79312 0.0
Mg85 Mg 0.20557 0.95169 0.79747 0.0
O86 O 0.24913 0.98644 0.72976 0.0
Mg87 Mg 0.22263 0.8997 0.74731 0.0
O88 O 0.21878 0.89949 0.8272 0.0
O89 O 0.17966 0.93892 0.85971 0.0
O90 O 0.19481 0.8153 0.75921 0.0
O91 O 0.30775 0.92033 0.76209 0.0
Mg92 Mg 0.27435 0.8747 0.68551 0.0
O93 O 0.22123 0.89564 0.66908 0.0
O94 O 0.24948 0.80322 0.71874 0.0
O95 O 0.34527 0.9419 0.69846 0.0
O96 O 0.25625 0.86402 0.62113 0.0
C97 C 0.11591 0.90007 0.7408 0.0
C98 C 0.27224 0.02553 0.75492 0.0
C99 C 0.20314 0.91261 0.86266 0.0
C100 C 0.21346 0.78729 0.74706 0.0
C101 C 0.3491 0.93817 0.73936 0.0
C102 C 0.22809 0.88504 0.62874 0.0
O103 O 0.13907 0.94226 0.76176 0.0
O104 O 0.13815 0.87366 0.73591 0.0
O105 O 0.75296 0.73188 0.80935 0.0
Mg106 Mg 0.7321 0.78883 0.81172 0.0
O107 O 0.71515 0.72451 0.74577 0.0
Mg108 Mg 0.65481 0.75143 0.7546 0.0
O109 O 0.65708 0.752 0.83225 0.0
O110 O 0.72205 0.81584 0.87016 0.0
O111 O 0.59725 0.7798 0.76186 0.0
O112 O 0.59137 0.66703 0.77376 0.0
Mg113 Mg 0.58788 0.69801 0.70018 0.0
O114 O 0.65698 0.75242 0.67471 0.0
O115 O 0.53193 0.71624 0.72727 0.0
O116 O 0.58984 0.62946 0.7129 0.0
O117 O 0.58499 0.7038 0.63485 0.0
C118 C 0.75938 0.86776 0.74907 0.0
C119 C 0.74664 0.71768 0.76947 0.0
C120 C 0.67812 0.7733 0.86972 0.0
C121 C 0.54993 0.75707 0.75039 0.0
C122 C 0.57566 0.62528 0.75231 0.0
C123 C 0.63406 0.73679 0.63656 0.0
O124 O 0.78171 0.85659 0.77846 0.0
O125 O 0.7127 0.83626 0.73901 0.0
C126 C 0.28418 0.96367 0.90166 0.0
C127 C 0.23289 0.92236 0.90335 0.0
C128 C 0.3081 -0.00604 0.93898 0.0
C129 C 0.28194 0.97957 0.97983 0.0
C130 C 0.23195 0.93449 0.98265 0.0
C131 C 0.2072 0.90745 0.94391 0.0
C132 C 0.35909 0.04399 0.93379 0.0
C133 C 0.20282 0.91693 0.02576 0.0
C134 C 0.35738 0.02777 0.08621 0.0
C135 C 0.33496 0.05546 0.10391 0.0
C136 C 0.34187 0.00412 0.04476 0.0
C137 C 0.30651 0.01212 0.01943 0.0
C138 C 0.2917 0.04819 0.03394 0.0
C139 C 0.30688 0.07021 0.07611 0.0
C140 C 0.35731 0.96485 0.03117 0.0
C141 C 0.25623 0.05997 0.00676 0.0
H142 H 0.30319 0.97643 0.86991 0.0
H143 H 0.16686 0.87676 0.94492 0.0
H144 H 0.35432 0.07708 0.94448 0.0
H145 H 0.38931 0.04392 0.95511 0.0
H146 H 0.37324 0.05077 0.89921 0.0
H147 H 0.17212 0.87539 0.02445 0.0
H148 H 0.22948 0.92265 0.05353 0.0
H149 H 0.18363 0.93999 0.0328 0.0
H150 H 0.37932 0.01677 0.10783 0.0
H151 H 0.2899 0.09217 0.08967 0.0
H152 H 0.37231 0.97188 0.99695 0.0
H153 H 0.32248 0.92547 0.03203 0.0
H154 H 0.3874 0.96542 0.05326 0.0
H155 H 0.2749 0.07663 0.97462 0.0
H156 H 0.24705 0.08766 0.02355 0.0
H157 H 0.21917 0.02389 0.99963 0.0
C158 C 0.63825 0.72124 0.55672 0.0
C159 C 0.66435 0.74827 0.59501 0.0
C160 C 0.66542 0.71952 0.51976 0.0
C161 C 0.72044 0.74746 0.52001 0.0
C162 C 0.74713 0.77981 0.55636 0.0
C163 C 0.71884 0.77899 0.59409 0.0
C164 C 0.63494 0.68427 0.48185 0.0
C165 C 0.80552 0.81317 0.55614 0.0
C166 C 0.76069 0.66946 0.45088 0.0
C167 C 0.75904 0.68804 0.40888 0.0
C168 C 0.75531 0.69323 0.48884 0.0
C169 C 0.74849 0.73678 0.48446 0.0
C170 C 0.75561 0.76055 0.44271 0.0
C171 C 0.76054 0.73565 0.40505 0.0
C172 C 0.74935 0.66713 0.53275 0.0
C173 C 0.75126 0.8084 0.43687 0.0
H174 H 0.59619 0.69801 0.55655 0.0
H175 H 0.73948 0.80067 0.62321 0.0
H176 H 0.64657 0.70587 0.45033 0.0
H177 H 0.64344 0.65203 0.47925 0.0
H178 H 0.59229 0.66725 0.48595 0.0
H179 H 0.8189 0.84564 0.5801 0.0
H180 H 0.82312 0.78917 0.56496 0.0
H181 H 0.82004 0.82952 0.52292 0.0
H182 H 0.7607 0.63317 0.45392 0.0
H183 H 0.75982 0.75057 0.37264 0.0
H184 H 0.70756 0.64546 0.5419 0.0
H185 H 0.7704 0.69622 0.55895 0.0
H186 H 0.76404 0.63935 0.53175 0.0
H187 H 0.71034 0.79662 0.429 0.0
H188 H 0.77625 0.83207 0.40921 0.0
H189 H 0.76254 0.83261 0.46713 0.0
C190 C 0.98395 0.27227 0.10269 0.0
C191 C 0.92981 0.24009 0.10336 0.0
C192 C 0.01092 0.292 0.06324 0.0
C193 C 0.98277 0.28225 0.02357 0.0
C194 C 0.92746 0.25321 0.02441 0.0
C195 C 0.90154 0.23089 0.06431 0.0
C196 C 0.06965 0.31994 0.06372 0.0
C197 C 0.89589 0.24287 0.98283 0.0
C198 C 0.04669 0.3617 0.92096 0.0
C199 C 0.05323 0.32611 0.89545 0.0
C200 C 0.0265 0.34914 0.96393 0.0
C201 C 0.0115 0.29942 0.98107 0.0
C202 C 0.02279 0.2654 0.95699 0.0
C203 C 0.04503 0.27991 0.91492 0.0
C204 C 0.01646 0.387 0.98916 0.0
C205 C 0.00762 0.21203 0.97407 0.0
H206 H 0.00581 0.27807 0.13279 0.0
H207 H 0.85982 0.20483 0.06461 0.0
H208 H 0.08369 0.2989 0.04267 0.0
H209 H 0.0856 0.35942 0.04986 0.0
H210 H 0.08559 0.32322 0.09744 0.0
H211 H 0.85449 0.22987 0.9902 0.0
H212 H 0.91194 0.2781 0.96196 0.0
H213 H 0.89745 0.21202 0.96345 0.0
H214 H 0.05221 0.397 0.90571 0.0
H215 H 0.04915 0.25188 0.89494 0.0
H216 H 0.03086 0.3913 0.02349 0.0
H217 H 0.97393 0.37192 0.99085 0.0
H218 H 0.03532 0.42585 0.97345 0.0
H219 H 0.02759 0.21539 0.0058 0.0
H220 H 0.01749 0.18959 0.95053 0.0
H221 H 0.96517 0.18971 0.98051 0.0
C222 C 0.25515 0.03753 0.40563 0.0
C223 C 0.30976 0.06491 0.4065 0.0
C224 C 0.22631 0.00746 0.44204 0.0
C225 C 0.25286 0.00392 0.4795 0.0
C226 C 0.30786 0.03352 0.48115 0.0
C227 C 0.33529 0.06445 0.44524 0.0
C228 C 0.16773 0.97806 0.43984 0.0
C229 C 0.33841 0.02906 0.51912 0.0
C230 C 0.21159 0.95165 0.59425 0.0
C231 C 0.21311 0.90547 0.59057 0.0
C232 C 0.21723 0.98159 0.55665 0.0
C233 C 0.22525 0.96508 0.51494 0.0
C234 C 0.21957 0.91507 0.51066 0.0
C235 C 0.21278 0.8856 0.54857 0.0
C236 C 0.2208 0.03362 0.56232 0.0
C237 C 0.22601 0.89459 0.46682 0.0
H238 H 0.23508 0.03809 0.37603 0.0
H239 H 0.37741 0.08543 0.44655 0.0
H240 H 0.15302 0.93577 0.44067 0.0
H241 H 0.15151 0.98761 0.46904 0.0
H242 H 0.1529 0.98707 0.40949 0.0
H243 H 0.38096 0.05567 0.51568 0.0
H244 H 0.32575 0.03776 0.55081 0.0
H245 H 0.3312 0.98875 0.52095 0.0
H246 H 0.2112 0.96696 0.62663 0.0
H247 H 0.2123 0.84904 0.54563 0.0
H248 H 0.20109 0.04122 0.53468 0.0
H249 H 0.26223 0.06466 0.56212 0.0
H250 H 0.20329 0.03612 0.59398 0.0
H251 H 0.19158 0.88419 0.44589 0.0
H252 H 0.22963 0.85941 0.47059 0.0
H253 H 0.26084 0.92429 0.449 0.0
C254 C 0.62847 0.7071 0.929 0.0
C255 C 0.67385 0.73761 0.90491 0.0
C256 C 0.62948 0.67764 0.96493 0.0
C257 C 0.6769 0.67981 0.97654 0.0
C258 C 0.72094 0.70638 0.94908 0.0
C259 C 0.7186 0.73452 0.91368 0.0
C260 C 0.5811 0.64758 0.99227 0.0
C261 C 0.77267 0.71044 0.9598 0.0
C262 C 0.73065 0.70909 0.08991 0.0
C263 C 0.73902 0.66759 0.0985 0.0
C264 C 0.70424 0.71016 0.05263 0.0
C265 C 0.68638 0.66886 0.02208 0.0
C266 C 0.69119 0.62478 0.03187 0.0
C267 C 0.71742 0.62442 0.07056 0.0
C268 C 0.70104 0.75856 0.04383 0.0
C269 C 0.67059 0.57936 1.00056 0.0
H270 H 0.59335 0.70805 0.92116 0.0
H271 H 0.75327 0.75661 0.89389 0.0
H272 H 0.58021 0.61358 0.0081 0.0
H273 H 0.58013 0.67299 0.01861 0.0
H274 H 0.54562 0.63411 0.9718 0.0
H275 H 0.80214 0.73058 0.93357 0.0
H276 H 0.78824 0.73235 0.99102 0.0
H277 H 0.76786 0.67138 0.96442 0.0
H278 H 0.74728 0.74257 0.11153 0.0
H279 H 0.72303 0.59192 0.07779 0.0
H280 H 0.6608 0.74828 0.03508 0.0
H281 H 0.72656 0.78005 0.01563 0.0
H282 H 0.71332 0.78511 0.07273 0.0
H283 H 0.62798 0.56256 0.99677 0.0
H284 H 0.67853 0.54868 0.01228 0.0
H285 H 0.68807 0.59218 0.9674 0.0
C286 C 0.88917 0.18669 0.44064 0.0
C287 C 0.9143 0.216 0.40318 0.0
C288 C 0.91772 0.18824 0.47808 0.0
C289 C 0.97225 0.22201 0.4786 0.0
C290 C -0.00191 0.24599 0.43872 0.0
C291 C 0.96862 0.24191 0.40111 0.0
C292 C 0.88871 0.15953 0.5189 0.0
C293 C 0.05612 0.28235 0.43746 0.0
C294 C 0.02429 0.31189 0.57699 0.0
C295 C 0.05836 0.298 0.59618 0.0
C296 C -0.00493 0.28626 0.53972 0.0
C297 C -0.00116 0.24435 0.5215 0.0
C298 C 0.03035 0.22744 0.54277 0.0
C299 C 0.06051 0.25506 0.57981 0.0
C300 C 0.96268 0.3065 0.51837 0.0
C301 C 0.03273 0.18094 0.52602 0.0
H302 H 0.84704 0.16649 0.4422 0.0
H303 H -0.01199 0.26481 0.37218 0.0
H304 H 0.91223 0.14774 0.53903 0.0
H305 H 0.88 0.18519 0.53941 0.0
H306 H 0.8512 0.12452 0.51028 0.0
H307 H 0.07079 0.29361 0.40324 0.0
H308 H 0.06586 0.31808 0.45636 0.0
H309 H 0.07684 0.26426 0.45315 0.0
H310 H 0.02297 0.34532 0.58975 0.0
H311 H 0.08708 0.24449 0.59469 0.0
H312 H 0.92124 0.27567 0.51737 0.0
H313 H 0.97565 0.31827 0.48389 0.0
H314 H 0.96534 0.3404 0.53619 0.0
H315 H -0.00599 0.14571 0.52995 0.0
H316 H 0.06195 0.1751 0.54404 0.0
H317 H 0.04212 0.18487 0.49036 0.0
C318 C 0.48106 0.02624 0.24783 0.0
C319 C 0.45376 0.04706 0.22685 0.0
C320 C 0.5351 0.05041 0.24391 0.0
C321 C 0.56161 0.09605 0.21832 0.0
C322 C 0.53333 0.11247 0.19196 0.0
C323 C 0.47917 0.08662 0.19562 0.0
C324 C 0.56388 0.03141 0.27225 0.0
C325 C 0.56043 0.16112 0.16443 0.0
C326 C 0.68611 0.19829 0.27064 0.0
C327 C 0.72349 0.19235 0.24709 0.0
C328 C 0.63329 0.16805 0.26068 0.0
C329 C 0.61761 0.13145 0.22591 0.0
C330 C 0.65509 0.12715 0.20043 0.0
C331 C 0.70781 0.15763 0.21141 0.0
C332 C 0.5942 0.17397 0.28849 0.0
C333 C 0.63926 0.08879 0.16292 0.0
H334 H 0.4611 -0.00498 0.27135 0.0
H335 H 0.4579 0.10219 0.17856 0.0
H336 H 0.59813 0.03458 0.2547 0.0
H337 H 0.57807 0.05574 0.30242 0.0
H338 H 0.53833 0.99048 0.28252 0.0
H339 H 0.53259 0.16843 0.14573 0.0
H340 H 0.58404 0.19517 0.18594 0.0
H341 H 0.58744 0.15822 0.14086 0.0
H342 H 0.69786 0.22523 0.29807 0.0
H343 H 0.73651 0.15305 0.19288 0.0
H344 H 0.5683 0.13703 0.30573 0.0
H345 H 0.56932 0.18294 0.26725 0.0
H346 H 0.61311 0.20517 0.31362 0.0
H347 H 0.61731 0.04872 0.17604 0.0
H348 H 0.6733 0.09302 0.14412 0.0
H349 H 0.61299 0.09371 0.13998 0.0
C350 C 0.57557 0.50056 0.20847 0.0
C351 C 0.58321 0.52012 0.25159 0.0
C352 C 0.55007 0.44683 0.20077 0.0
C353 C 0.53292 0.4125 0.23708 0.0
C354 C 0.54087 0.4322 0.28054 0.0
C355 C 0.56457 0.48552 0.28717 0.0
C356 C 0.54244 0.42685 0.15406 0.0
C357 C 0.52655 0.39713 0.32028 0.0
C358 C 0.42086 0.27546 0.23373 0.0
C359 C 0.44667 0.24716 0.23806 0.0
C360 C 0.44892 0.32958 0.23044 0.0
C361 C 0.50391 0.35566 0.23064 0.0
C362 C 0.53022 0.32701 0.23206 0.0
C363 C 0.50113 0.2729 0.23595 0.0
C364 C 0.41982 0.35918 0.23046 0.0
C365 C 0.58891 0.35341 0.23124 0.0
H366 H 0.59115 0.52727 0.18101 0.0
H367 H 0.57187 0.50012 0.3207 0.0
H368 H 0.55606 0.39845 0.15053 0.0
H369 H 0.50038 0.40632 0.14593 0.0
H370 H 0.56342 0.45855 0.12984 0.0
H371 H 0.53519 0.41888 0.35187 0.0
H372 H 0.48457 0.36771 0.3195 0.0
H373 H 0.54865 0.37612 0.31964 0.0
H374 H 0.37878 0.25564 0.23572 0.0
H375 H 0.52102 0.25081 0.23865 0.0
H376 H 0.4341 0.38815 0.2035 0.0
H377 H 0.42706 0.38073 0.26201 0.0
H378 H 0.37721 0.33325 0.22665 0.0
H379 H 0.60312 0.36979 0.19798 0.0
H380 H 0.60318 0.32617 0.23889 0.0
H381 H 0.60646 0.38606 0.2551 0.0
C382 C 0.86905 0.36949 0.2243 0.0
C383 C 0.91902 0.39139 0.24264 0.0
C384 C 0.84295 0.39746 0.22307 0.0
C385 C 0.8693 0.44968 0.23707 0.0
C386 C 0.92234 0.47409 0.24955 0.0
C387 C 0.94637 0.44403 0.25337 0.0
C388 C 0.78563 0.36942 0.21179 0.0
C389 C 0.95174 0.53013 0.26381 0.0
C390 C 0.80349 0.52797 0.2162 0.0
C391 C 0.78024 0.52455 0.25716 0.0
C392 C 0.83269 0.50358 0.20907 0.0
C393 C 0.83939 0.47634 0.24408 0.0
C394 C 0.81579 0.4727 0.28556 0.0
C395 C 0.78565 0.49629 0.29134 0.0
C396 C 0.85684 0.50736 0.16441 0.0
C397 C 0.82166 0.44356 0.32377 0.0
H398 H 0.84757 0.32834 0.21677 0.0
H399 H 0.98465 0.46046 0.26813 0.0
H400 H 0.76285 0.36989 0.24066 0.0
H401 H 0.77812 0.38945 0.18447 0.0
H402 H 0.77088 0.32836 0.20215 0.0
H403 H -0.00558 0.54559 0.26388 0.0
H404 H 0.94287 0.55447 0.24187 0.0
H405 H 0.93963 0.53353 0.29771 0.0
H406 H 0.79907 0.55003 0.18987 0.0
H407 H 0.76802 0.49436 0.32313 0.0
H408 H 0.84085 0.46809 0.14984 0.0
H409 H 0.89944 0.52379 0.16788 0.0
H410 H 0.84957 0.53182 0.14119 0.0
H411 H 0.79593 0.40131 0.31841 0.0
H412 H 0.81078 0.45411 0.35562 0.0
H413 H 0.86211 0.45114 0.32652 0.0
C414 C 0.04221 0.48358 0.77551 0.0
C415 C 0.07521 0.46967 0.75434 0.0
C416 C 0.06203 0.53491 0.7901 0.0
C417 C 0.11482 0.57192 0.78153 0.0
C418 C 0.14897 0.55593 0.76461 0.0
C419 C 0.12859 0.50461 0.75198 0.0
C420 C 0.02563 0.55041 0.81081 0.0
C421 C 0.20578 0.59369 0.75505 0.0
C422 C 0.15145 0.69794 0.72768 0.0
C423 C 0.18559 0.73289 0.75867 0.0
C424 C 0.12386 0.64511 0.73678 0.0
C425 C 0.13136 0.62726 0.77788 0.0
C426 C 0.164 0.66297 0.81027 0.0
C427 C 0.19082 0.71603 0.80027 0.0
C428 C 0.09016 0.6083 0.70088 0.0
C429 C 0.17176 0.64492 0.85456 0.0
H430 H 0.00115 0.45556 0.77863 0.0
H431 H 0.15397 0.49261 0.73691 0.0
H432 H 0.04654 0.58325 0.83411 0.0
H433 H 0.0081 0.5628 0.78467 0.0
H434 H -0.00646 0.51726 0.82857 0.0
H435 H 0.22476 0.57532 0.73665 0.0
H436 H 0.21023 0.62695 0.73528 0.0
H437 H 0.22715 0.60929 0.7864 0.0
H438 H 0.14715 0.71203 0.69591 0.0
H439 H 0.21677 0.74406 0.82428 0.0
H440 H 0.05064 0.58156 0.71367 0.0
H441 H 0.10711 0.58443 0.68954 0.0
H442 H 0.08647 0.62902 0.67194 0.0
H443 H 0.13353 0.62095 0.87079 0.0
H444 H 0.19715 0.67783 0.87658 0.0
H445 H 0.18943 0.62 0.85041 0.0
C446 C 0.38238 0.89833 0.79298 0.0
C447 C 0.38971 0.92687 0.75419 0.0
C448 C 0.40718 0.86913 0.79867 0.0
C449 C 0.44002 0.86897 0.76496 0.0
C450 C 0.45058 0.90081 0.72747 0.0
C451 C 0.42664 0.93071 0.72331 0.0
C452 C 0.39613 0.83636 0.83947 0.0
C453 C 0.48364 0.89999 0.68988 0.0
C454 C 0.54164 0.83026 0.78086 0.0
C455 C 0.5183 0.78143 0.76034 0.0
C456 C 0.51512 0.85781 0.78499 0.0
C457 C 0.46406 0.83599 0.76832 0.0
C458 C 0.43899 0.7854 0.7499 0.0
C459 C 0.46647 0.75853 0.74634 0.0
C460 C 0.54295 0.91173 0.8046 0.0
C461 C 0.3839 0.76022 0.73267 0.0
H462 H 0.35421 0.89544 0.81724 0.0
H463 H 0.4329 0.95303 0.69346 0.0
H464 H 0.38063 0.79515 0.83017 0.0
H465 H 0.4328 0.84898 0.8579 0.0
H466 H 0.36772 0.83895 0.86167 0.0
H467 H 0.48889 0.928 0.66349 0.0
H468 H 0.52251 0.90909 0.70206 0.0
H469 H 0.46495 0.86052 0.6752 0.0
H470 H 0.58159 0.84814 0.79208 0.0
H471 H 0.44799 0.72044 0.73113 0.0
H472 H 0.51832 0.91579 0.83004 0.0
H473 H 0.55031 0.94066 0.77851 0.0
H474 H 0.58078 0.92126 0.81969 0.0
H475 H 0.35652 0.74822 0.76089 0.0
H476 H 0.37373 0.72527 0.7124 0.0
H477 H 0.3778 0.78778 0.71251 0.0
C478 C 0.2811 0.50083 0.76997 0.0
C479 C 0.25311 0.44666 0.76776 0.0
C480 C 0.33436 0.52721 0.77912 0.0
C481 C 0.35996 0.4983 0.78503 0.0
C482 C 0.33088 0.44349 0.7867 0.0
C483 C 0.27731 0.41811 0.77839 0.0
C484 C 0.36361 0.58576 0.77718 0.0
C485 C 0.35731 0.41175 0.7923 0.0
C486 C 0.4898 0.55539 0.72881 0.0
C487 C 0.52421 0.58161 0.76356 0.0
C488 C 0.43632 0.52842 0.73564 0.0
C489 C 0.41681 0.52411 0.77888 0.0
C490 C 0.4514 0.54602 0.81487 0.0
C491 C 0.50502 0.5755 0.80668 0.0
C492 C 0.40081 0.50836 0.69592 0.0
C493 C 0.43164 0.54163 0.86137 0.0
H494 H 0.2619 0.52262 0.76204 0.0
H495 H 0.25542 0.37613 0.77634 0.0
H496 H 0.39793 0.6029 0.79929 0.0
H497 H 0.37753 0.59823 0.74301 0.0
H498 H 0.33805 0.60172 0.78624 0.0
H499 H 0.32898 0.37015 0.79825 0.0
H500 H 0.3797 0.41471 0.76204 0.0
H501 H 0.38534 0.42705 0.82008 0.0
H502 H 0.50412 0.56029 0.69527 0.0
H503 H 0.53155 0.59618 0.83352 0.0
H504 H 0.37849 0.52903 0.69312 0.0
H505 H 0.37239 0.46648 0.69963 0.0
H506 H 0.42253 0.51404 0.66464 0.0
H507 H 0.41433 0.56693 0.86533 0.0
H508 H 0.46325 0.55356 0.88604 0.0
H509 H 0.40068 0.50128 0.86841 0.0
C510 C 0.19649 0.14212 0.2877 0.0
C511 C 0.193 0.12468 0.24417 0.0
C512 C 0.17629 0.17401 0.2994 0.0
C513 C 0.15164 0.18802 0.2669 0.0
C514 C 0.1478 0.17038 0.2229 0.0
C515 C 0.16881 0.13904 0.21206 0.0
C516 C 0.17921 0.19086 0.34677 0.0
C517 C 0.12063 0.18363 0.18739 0.0
C518 C 0.04322 0.2116 0.29811 0.0
C519 C 0.06113 0.26014 0.2786 0.0
C520 C 0.07307 0.18758 0.29604 0.0
C521 C 0.12441 0.21596 0.27951 0.0
C522 C 0.14609 0.26901 0.26853 0.0
C523 C 0.11327 0.29012 0.26645 0.0
C524 C 0.04583 0.13005 0.30568 0.0
C525 C 0.2025 0.30185 0.25564 0.0
H526 H 0.21475 0.13065 0.31274 0.0
H527 H 0.16649 0.12601 0.17831 0.0
H528 H 0.19148 0.23269 0.34861 0.0
H529 H 0.14006 0.16889 0.36198 0.0
H530 H 0.20657 0.18378 0.36644 0.0
H531 H 0.11761 0.16328 0.15583 0.0
H532 H 0.08089 0.17328 0.19827 0.0
H533 H 0.1423 0.22594 0.181 0.0
H534 H 0.00263 0.18843 0.30755 0.0
H535 H 0.12692 0.3279 0.25173 0.0
H536 H 0.02878 0.12282 0.33928 0.0
H537 H 0.07097 0.1125 0.30313 0.0
H538 H 0.01297 0.1094 0.28226 0.0
H539 H 0.22734 0.3029 0.28338 0.0
H540 H 0.21283 0.34221 0.24737 0.0
H541 H 0.21174 0.28473 0.22695 0.0
C542 C 0.93181 0.7892 0.30794 0.0
C543 C 0.91677 0.79245 0.26498 0.0
C544 C 0.9845 0.81142 0.3187 0.0
C545 C 0.02217 0.83627 0.28538 0.0
C546 C 0.00686 0.8395 0.24179 0.0
C547 C 0.95408 0.81789 0.23227 0.0
C548 C -7e-05 0.8079 0.36537 0.0
C549 C 0.04592 0.86466 0.20494 0.0
C550 C 0.1583 0.94125 0.30891 0.0
C551 C 0.18497 0.92044 0.28657 0.0
C552 C 0.10411 0.91362 0.30999 0.0
C553 C 0.07791 0.8613 0.29601 0.0
C554 C 0.10647 0.83662 0.28424 0.0
C555 C 0.16029 0.86723 0.27824 0.0
C556 C 0.07561 0.94319 0.31775 0.0
C557 C 0.07964 0.77959 0.27303 0.0
H558 H 0.90234 0.76904 0.33291 0.0
H559 H 0.94181 0.81896 0.19881 0.0
H560 H 0.02689 0.79222 0.36557 0.0
H561 H 0.02096 0.84716 0.38031 0.0
H562 H 0.96576 0.78303 0.38636 0.0
H563 H 0.02754 0.86747 0.17397 0.0
H564 H 0.07669 0.90416 0.21473 0.0
H565 H 0.06508 0.84158 0.19791 0.0
H566 H 0.17816 0.98271 0.31521 0.0
H567 H 0.18152 0.85118 0.26168 0.0
H568 H 0.04212 0.92176 0.34018 0.0
H569 H 0.06001 0.94775 0.28585 0.0
H570 H 0.10141 0.9825 0.33159 0.0
H571 H 0.05706 0.75677 0.30202 0.0
H572 H 0.10766 0.76684 0.26347 0.0
H573 H 0.05165 0.77045 0.24564 0.0
C574 C 0.87257 0.03117 0.2905 0.0
C575 C 0.84895 0.06009 0.2793 0.0
C576 C 0.84312 0.97707 0.2926 0.0
C577 C 0.78965 0.9522 0.28151 0.0
C578 C 0.76501 0.98157 0.27393 0.0
C579 C 0.79499 0.03551 0.27374 0.0
C580 C 0.8705 0.94685 0.30183 0.0
C581 C 0.70851 0.95615 0.26041 0.0
C582 C 0.74197 0.83467 0.20954 0.0
C583 C 0.71581 0.7943 0.23993 0.0
C584 C 0.76721 0.8861 0.22319 0.0
C585 C 0.76277 0.8976 0.26762 0.0
C586 C 0.73221 0.85752 0.29756 0.0
C587 C 0.70976 0.80584 0.28356 0.0
C588 C 0.80109 0.9278 0.19051 0.0
C589 C 0.72574 0.86935 0.34468 0.0
H590 H 0.91433 0.05058 0.29531 0.0
H591 H 0.77688 0.05812 0.26493 0.0
H592 H 0.84469 0.91014 0.31939 0.0
H593 H 0.88224 0.93693 0.27018 0.0
H594 H 0.9062 0.97003 0.32181 0.0
H595 H 0.69411 0.98414 0.25951 0.0
H596 H 0.7037 0.93889 0.22705 0.0
H597 H 0.68383 0.92421 0.28328 0.0
H598 H 0.74736 0.82624 0.17578 0.0
H599 H 0.68999 0.77463 0.30711 0.0
H600 H 0.84213 0.94772 0.20179 0.0
H601 H 0.78893 0.9574 0.18826 0.0
H602 H 0.79959 0.91198 0.15698 0.0
H603 H 0.7641 0.88828 0.36139 0.0
H604 H 0.69826 0.83389 0.36302 0.0
H605 H 0.71118 0.89713 0.34595 0.0
C606 C 0.15659 0.20886 0.7784 0.0
C607 C 0.1075 0.1885 0.75923 0.0
C608 C 0.18665 0.18556 0.77101 0.0
C609 C 0.16622 0.14029 0.74464 0.0
C610 C 0.11695 0.12029 0.72435 0.0
C611 C 0.08865 0.14571 0.73121 0.0
C612 C 0.23944 0.2083 0.79266 0.0
C613 C 0.09235 0.07062 0.69783 0.0
C614 C 0.25636 0.08924 0.71472 0.0
C615 C 0.25166 0.06085 0.75269 0.0
C616 C 0.22848 0.1157 0.71109 0.0
C617 C 0.19294 0.11005 0.74484 0.0
C618 C 0.18609 0.07885 0.78186 0.0
C619 C 0.21764 0.0572 0.78646 0.0
C620 C 0.23702 0.14963 0.67159 0.0
C621 C 0.14537 0.06795 0.81671 0.0
H622 H 0.17157 0.2433 0.7989 0.0
H623 H 0.05226 0.1326 0.71437 0.0
H624 H 0.23749 0.18323 0.82043 0.0
H625 H 0.26867 0.20996 0.76887 0.0
H626 H 0.25303 0.24789 0.80582 0.0
H627 H 0.06517 0.07061 0.67269 0.0
H628 H 0.12163 0.06378 0.68114 0.0
H629 H 0.06957 0.03756 0.7204 0.0
H630 H 0.28165 0.09071 0.68827 0.0
H631 H 0.21299 0.03443 0.81568 0.0
H632 H 0.25298 0.19039 0.68261 0.0
H633 H 0.19951 0.13776 0.65484 0.0
H634 H 0.2643 0.14797 0.64742 0.0
H635 H 0.15891 0.10216 0.83865 0.0
H636 H 0.13746 0.034 0.83737 0.0
H637 H 0.10823 0.06024 0.80141 0.0
C638 C 0.02942 0.89354 0.74859 0.0
C639 C 0.06105 0.87708 0.72823 0.0
C640 C 0.97523 0.86322 0.74586 0.0
C641 C 0.95295 0.81578 0.72219 0.0
C642 C 0.98472 0.80196 0.69788 0.0
C643 C 0.03865 0.83303 0.70104 0.0
C644 C 0.94228 0.87976 0.77155 0.0
C645 C 0.96184 0.75225 0.67151 0.0
C646 C 0.82769 0.71437 0.77329 0.0
C647 C 0.79162 0.71975 0.74753 0.0
C648 C 0.88074 0.74331 0.76364 0.0
C649 C 0.89729 0.77776 0.72739 0.0
C650 C 0.86056 0.7782 0.69827 0.0
C651 C 0.8077 0.74714 0.70766 0.0
C652 C 0.91916 0.74132 0.795 0.0
C653 C 0.87697 0.81599 0.66047 0.0
H654 H 0.04674 0.92792 0.76926 0.0
H655 H 0.06324 0.82096 0.68444 0.0
H656 H 0.90665 0.87124 0.75307 0.0
H657 H 0.92993 0.85787 0.80296 0.0
H658 H 0.96416 0.92183 0.77957 0.0
H659 H -0.00794 0.7476 0.65383 0.0
H660 H 0.9402 0.71853 0.6937 0.0
H661 H 0.93364 0.75128 0.64706 0.0
H662 H 0.81511 0.69269 0.80384 0.0
H663 H 0.7798 0.75078 0.68716 0.0
H664 H 0.93985 0.77838 0.81356 0.0
H665 H 0.94878 0.73657 0.77648 0.0
H666 H 0.89991 0.70912 0.81907 0.0
H667 H 0.89954 0.85633 0.67309 0.0
H668 H 0.84306 0.81221 0.64207 0.0
H669 H 0.90251 0.80989 0.63752 0.0
C670 C 0.87218 0.16364 0.69313 0.0
C671 C 0.92552 0.18602 0.70063 0.0
C672 C 0.84132 0.10978 0.68842 0.0
C673 C 0.86418 0.07852 0.69528 0.0
C674 C 0.91867 0.10141 0.69918 0.0
C675 C 0.94902 0.15526 0.69884 0.0
C676 C 0.7836 0.08624 0.68148 0.0
C677 C 0.94525 0.07061 0.70989 0.0
C678 C 0.79231 0.95916 0.76435 0.0
C679 C 0.78342 0.92061 0.73374 0.0
C680 C 0.81618 0.01086 0.75157 0.0
C681 C 0.83136 0.02366 0.70699 0.0
C682 C 0.82225 0.98447 0.6759 0.0
C683 C 0.7976 0.93275 0.68967 0.0
C684 C 0.82819 0.05176 0.78642 0.0
C685 C 0.84176 -0.00234 0.62916 0.0
H686 H 0.85411 0.18751 0.6949 0.0
H687 H -0.00959 0.17269 0.705 0.0
H688 H 0.768 0.05045 0.66118 0.0
H689 H 0.76346 0.07568 0.7138 0.0
H690 H 0.77442 0.11405 0.66514 0.0
H691 H 0.96846 0.08622 0.74053 0.0
H692 H 0.91869 0.02862 0.71505 0.0
H693 H 0.9722 0.07515 0.68269 0.0
H694 H 0.78103 0.94872 0.79848 0.0
H695 H 0.79103 0.90217 0.66658 0.0
H696 H 0.81166 0.0765 0.77701 0.0
H697 H 0.87094 0.07725 0.78944 0.0
H698 H 0.81241 0.03464 0.81927 0.0
H699 H 0.83078 0.02513 0.61485 0.0
H700 H 0.82645 0.96264 0.60788 0.0
H701 H 0.88488 0.01715 0.6291 0.0
loop_
_geom_bond_atom_site_label_1
_geom_bond_atom_site_label_2
_geom_bond_distance
_geom_bond_site_symmetry_2
_ccdc_geom_bond_type
O0 Mg1 1.990 . S
O0 C14 1.253 . S
Mg1 O0 1.990 . S
Mg1 O4 2.180 . S
Mg1 O5 2.117 . S
Mg1 O19 2.030 . S
O2 Mg3 2.072 . S
O2 C14 1.260 . S
Mg3 O2 2.072 . S
Mg3 O4 2.099 . S
Mg3 O6 2.079 . S
Mg3 O7 2.072 . S
Mg3 O9 2.099 . S
Mg3 O20 2.079 . S
O4 Mg1 2.180 . S
O4 Mg3 2.099 . S
O4 C15 1.279 . S
O5 Mg1 2.117 . S
O5 C15 1.250 . S
O6 Mg3 2.079 . S
O6 C16 1.264 . S
O7 Mg3 2.072 . S
O7 C17 1.260 1_545 S
Mg8 O9 2.180 . S
Mg8 O10 2.030 . S
Mg8 O11 1.990 1_545 S
Mg8 O12 2.117 . S
O9 Mg3 2.099 . S
O9 Mg8 2.180 . S
O9 C18 1.279 . S
O10 Mg8 2.030 . S
O10 C16 1.248 . S
O11 Mg8 1.990 1_565 S
O11 C17 1.253 . S
O12 Mg8 2.117 . S
O12 C18 1.250 . S
C13 O19 1.248 . S
C13 O20 1.264 . S
C14 O0 1.253 . S
C14 O2 1.260 . S
C15 O4 1.279 . S
C15 O5 1.250 . S
C16 O6 1.264 . S
C16 O10 1.248 . S
C17 O7 1.260 1_565 S
C17 O11 1.253 . S
C18 O9 1.279 . S
C18 O12 1.250 . S
O19 Mg1 2.030 . S
O19 C13 1.248 . S
O20 Mg3 2.079 . S
O20 C13 1.264 . S
O21 Mg22 1.990 . S
O21 C35 1.253 . S
Mg22 O21 1.990 . S
Mg22 O25 2.180 . S
Mg22 O26 2.117 . S
Mg22 O40 2.030 . S
O23 Mg24 2.072 . S
O23 C35 1.260 . S
Mg24 O23 2.072 . S
Mg24 O25 2.099 . S
Mg24 O27 2.079 . S
Mg24 O28 2.072 . S
Mg24 O30 2.099 . S
Mg24 O41 2.079 . S
O25 Mg22 2.180 . S
O25 Mg24 2.099 . S
O25 C36 1.279 . S
O26 Mg22 2.117 . S
O26 C36 1.250 . S
O27 Mg24 2.079 . S
O27 C37 1.264 . S
O28 Mg24 2.072 . S
O28 C38 1.260 . S
Mg29 O30 2.180 . S
Mg29 O31 2.030 . S
Mg29 O32 1.990 . S
Mg29 O33 2.117 . S
O30 Mg24 2.099 . S
O30 Mg29 2.180 . S
O30 C39 1.279 . S
O31 Mg29 2.030 . S
O31 C37 1.248 . S
O32 Mg29 1.990 . S
O32 C38 1.253 . S
O33 Mg29 2.117 . S
O33 C39 1.250 . S
C34 O40 1.248 . S
C34 O41 1.264 . S
C35 O21 1.253 . S
C35 O23 1.260 . S
C36 O25 1.279 . S
C36 O26 1.250 . S
C37 O27 1.264 . S
C37 O31 1.248 . S
C38 O28 1.260 . S
C38 O32 1.253 . S
C39 O30 1.279 . S
C39 O33 1.250 . S
O40 Mg22 2.030 . S
O40 C34 1.248 . S
O41 Mg24 2.079 . S
O41 C34 1.264 . S
O42 Mg43 1.990 . S
O42 C56 1.253 . S
Mg43 O42 1.990 . S
Mg43 O46 2.180 . S
Mg43 O47 2.117 . S
Mg43 O61 2.030 . S
O44 Mg45 2.072 . S
O44 C56 1.260 . S
Mg45 O44 2.072 . S
Mg45 O46 2.099 . S
Mg45 O48 2.079 . S
Mg45 O49 2.072 . S
Mg45 O51 2.099 . S
Mg45 O62 2.079 . S
O46 Mg43 2.180 . S
O46 Mg45 2.099 . S
O46 C57 1.279 . S
O47 Mg43 2.117 . S
O47 C57 1.250 . S
O48 Mg45 2.079 . S
O48 C58 1.264 . S
O49 Mg45 2.072 . S
O49 C59 1.260 1_655 S
Mg50 O51 2.180 . S
Mg50 O52 2.030 . S
Mg50 O53 1.990 1_655 S
Mg50 O54 2.117 . S
O51 Mg45 2.099 . S
O51 Mg50 2.180 . S
O51 C60 1.279 . S
O52 Mg50 2.030 . S
O52 C58 1.248 . S
O53 Mg50 1.990 1_455 S
O53 C59 1.253 . S
O54 Mg50 2.117 . S
O54 C60 1.250 . S
C55 O61 1.248 . S
C55 O62 1.264 . S
C56 O42 1.253 . S
C56 O44 1.260 . S
C57 O46 1.279 . S
C57 O47 1.250 . S
C58 O48 1.264 . S
C58 O52 1.248 . S
C59 O49 1.260 1_455 S
C59 O53 1.253 . S
C60 O51 1.279 . S
C60 O54 1.250 . S
O61 Mg43 2.030 . S
O61 C55 1.248 . S
O62 Mg45 2.079 . S
O62 C55 1.264 . S
O63 Mg64 1.990 1_655 S
O63 C77 1.253 . S
Mg64 O63 1.990 1_455 S
Mg64 O67 2.180 . S
Mg64 O68 2.117 . S
Mg64 O82 2.030 . S
O65 Mg66 2.072 . S
O65 C77 1.260 1_455 S
Mg66 O65 2.072 . S
Mg66 O67 2.099 . S
Mg66 O69 2.079 . S
Mg66 O70 2.072 . S
Mg66 O72 2.099 . S
Mg66 O83 2.079 . S
O67 Mg64 2.180 . S
O67 Mg66 2.099 . S
O67 C78 1.279 . S
O68 Mg64 2.117 . S
O68 C78 1.250 . S
O69 Mg66 2.079 . S
O69 C79 1.264 . S
O70 Mg66 2.072 . S
O70 C80 1.260 . S
Mg71 O72 2.180 . S
Mg71 O73 2.030 . S
Mg71 O74 1.990 . S
Mg71 O75 2.117 . S
O72 Mg66 2.099 . S
O72 Mg71 2.180 . S
O72 C81 1.279 . S
O73 Mg71 2.030 . S
O73 C79 1.248 . S
O74 Mg71 1.990 . S
O74 C80 1.253 . S
O75 Mg71 2.117 . S
O75 C81 1.250 . S
C76 O82 1.248 . S
C76 O83 1.264 . S
C77 O63 1.253 . S
C77 O65 1.260 1_655 S
C78 O67 1.279 . S
C78 O68 1.250 . S
C79 O69 1.264 . S
C79 O73 1.248 . S
C80 O70 1.260 . S
C80 O74 1.253 . S
C81 O72 1.279 . S
C81 O75 1.250 . S
O82 Mg64 2.030 . S
O82 C76 1.248 . S
O83 Mg66 2.079 . S
O83 C76 1.264 . S
O84 Mg85 1.990 1_545 S
O84 C98 1.253 . S
Mg85 O84 1.990 1_565 S
Mg85 O88 2.180 . S
Mg85 O89 2.117 . S
Mg85 O103 2.030 . S
O86 Mg87 2.072 . S
O86 C98 1.260 1_565 S
Mg87 O86 2.072 . S
Mg87 O88 2.099 . S
Mg87 O90 2.079 . S
Mg87 O91 2.072 . S
Mg87 O93 2.099 . S
Mg87 O104 2.079 . S
O88 Mg85 2.180 . S
O88 Mg87 2.099 . S
O88 C99 1.279 . S
O89 Mg85 2.117 . S
O89 C99 1.250 . S
O90 Mg87 2.079 . S
O90 C100 1.264 . S
O91 Mg87 2.072 . S
O91 C101 1.260 . S
Mg92 O93 2.180 . S
Mg92 O94 2.030 . S
Mg92 O95 1.990 . S
Mg92 O96 2.117 . S
O93 Mg87 2.099 . S
O93 Mg92 2.180 . S
O93 C102 1.279 . S
O94 Mg92 2.030 . S
O94 C100 1.248 . S
O95 Mg92 1.990 . S
O95 C101 1.253 . S
O96 Mg92 2.117 . S
O96 C102 1.250 . S
C97 O103 1.248 . S
C97 O104 1.264 . S
C98 O84 1.253 . S
C98 O86 1.260 1_545 S
C99 O88 1.279 . S
C99 O89 1.250 . S
C100 O90 1.264 . S
C100 O94 1.248 . S
C101 O91 1.260 . S
C101 O95 1.253 . S
C102 O93 1.279 . S
C102 O96 1.250 . S
O103 Mg85 2.030 . S
O103 C97 1.248 . S
O104 Mg87 2.079 . S
O104 C97 1.264 . S
O105 Mg106 1.990 . S
O105 C119 1.253 . S
Mg106 O105 1.990 . S
Mg106 O109 2.180 . S
Mg106 O110 2.117 . S
Mg106 O124 2.030 . S
O107 Mg108 2.072 . S
O107 C119 1.260 . S
Mg108 O107 2.072 . S
Mg108 O109 2.099 . S
Mg108 O111 2.079 . S
Mg108 O112 2.072 . S
Mg108 O114 2.099 . S
Mg108 O125 2.079 . S
O109 Mg106 2.180 . S
O109 Mg108 2.099 . S
O109 C120 1.279 . S
O110 Mg106 2.117 . S
O110 C120 1.250 . S
O111 Mg108 2.079 . S
O111 C121 1.264 . S
O112 Mg108 2.072 . S
O112 C122 1.260 . S
Mg113 O114 2.180 . S
Mg113 O115 2.030 . S
Mg113 O116 1.990 . S
Mg113 O117 2.117 . S
O114 Mg108 2.099 . S
O114 Mg113 2.180 . S
O114 C123 1.279 . S
O115 Mg113 2.030 . S
O115 C121 1.248 . S
O116 Mg113 1.990 . S
O116 C122 1.253 . S
O117 Mg113 2.117 . S
O117 C123 1.250 . S
C118 O124 1.248 . S
C118 O125 1.264 . S
C119 O105 1.253 . S
C119 O107 1.260 . S
C120 O109 1.279 . S
C120 O110 1.250 . S
C121 O111 1.264 . S
C121 O115 1.248 . S
C122 O112 1.260 . S
C122 O116 1.253 . S
C123 O114 1.279 . S
C123 O117 1.250 . S
O124 Mg106 2.030 . S
O124 C118 1.248 . S
O125 Mg108 2.079 . S
O125 C118 1.264 . S
C126 C127 1.391 . S
C126 C128 1.394 1_565 S
C126 H142 0.931 . S
C127 C126 1.391 . S
C127 C131 1.376 . S
C128 C126 1.394 1_545 S
C128 C129 1.369 1_545 S
C128 C132 1.531 . S
C129 C128 1.369 1_565 S
C129 C130 1.410 . S
C129 C137 1.503 1_566 S
C130 C129 1.410 . S
C130 C131 1.392 . S
C130 C133 1.511 1_556 S
C131 C127 1.376 . S
C131 C130 1.392 . S
C131 H143 0.929 . S
C132 C128 1.531 . S
C132 H144 0.960 . S
C132 H145 0.962 . S
C132 H146 0.960 . S
C133 C130 1.511 1_554 S
C133 H147 0.961 . S
C133 H148 0.961 . S
C133 H149 0.961 . S
C134 C135 1.370 . S
C134 C136 1.363 . S
C134 H150 0.931 . S
C135 C134 1.370 . S
C135 C139 1.408 . S
C136 C134 1.363 . S
C136 C137 1.370 . S
C136 C140 1.524 1_545 S
C137 C129 1.503 1_544 S
C137 C136 1.370 . S
C137 C138 1.403 . S
C138 C137 1.403 . S
C138 C139 1.404 . S
C138 C141 1.535 1_554 S
C139 C135 1.408 . S
C139 C138 1.404 . S
C139 H151 0.930 . S
C140 C136 1.524 1_565 S
C140 H152 0.956 . S
C140 H153 0.961 . S
C140 H154 0.961 . S
C141 C138 1.535 1_556 S
C141 H155 0.963 . S
C141 H156 0.957 1_556 S
C141 H157 0.963 . S
H142 C126 0.931 . S
H143 C131 0.929 . S
H144 C132 0.960 . S
H145 C132 0.962 . S
H146 C132 0.960 . S
H147 C133 0.961 . S
H148 C133 0.961 . S
H149 C133 0.961 . S
H150 C134 0.931 . S
H151 C139 0.930 . S
H152 C140 0.956 . S
H153 C140 0.961 . S
H154 C140 0.961 . S
H155 C141 0.963 . S
H156 C141 0.957 1_554 S
H157 C141 0.963 . S
C158 C159 1.391 . S
C158 C160 1.394 . S
C158 H174 0.931 . S
C159 C158 1.391 . S
C159 C163 1.376 . S
C160 C158 1.394 . S
C160 C161 1.369 . S
C160 C164 1.531 . S
C161 C160 1.369 . S
C161 C162 1.410 . S
C161 C169 1.503 . S
C162 C161 1.410 . S
C162 C163 1.392 . S
C162 C165 1.511 . S
C163 C159 1.376 . S
C163 C162 1.392 . S
C163 H175 0.929 . S
C164 C160 1.531 . S
C164 H176 0.960 . S
C164 H177 0.962 . S
C164 H178 0.960 . S
C165 C162 1.511 . S
C165 H179 0.961 . S
C165 H180 0.961 . S
C165 H181 0.961 . S
C166 C167 1.370 . S
C166 C168 1.363 . S
C166 H182 0.931 . S
C167 C166 1.370 . S
C167 C171 1.408 . S
C168 C166 1.363 . S
C168 C169 1.370 . S
C168 C172 1.524 . S
C169 C161 1.503 . S
C169 C168 1.370 . S
C169 C170 1.403 . S
C170 C169 1.403 . S
C170 C171 1.404 . S
C170 C173 1.539 . S
C171 C167 1.408 . S
C171 C170 1.404 . S
C171 H183 0.930 . S
C172 C168 1.524 . S
C172 H184 0.956 . S
C172 H185 0.961 . S
C172 H186 0.961 . S
C173 C170 1.539 . S
C173 H187 0.958 . S
C173 H188 0.961 . S
C173 H189 0.960 . S
H174 C158 0.931 . S
H175 C163 0.929 . S
H176 C164 0.960 . S
H177 C164 0.962 . S
H178 C164 0.960 . S
H179 C165 0.961 . S
H180 C165 0.961 . S
H181 C165 0.961 . S
H182 C166 0.931 . S
H183 C171 0.930 . S
H184 C172 0.956 . S
H185 C172 0.961 . S
H186 C172 0.961 . S
H187 C173 0.958 . S
H188 C173 0.961 . S
H189 C173 0.960 . S
C190 C191 1.391 . S
C190 C192 1.394 1_655 S
C190 H206 0.931 . S
C191 C190 1.391 . S
C191 C195 1.376 . S
C192 C190 1.394 1_455 S
C192 C193 1.369 1_455 S
C192 C196 1.531 . S
C193 C192 1.369 1_655 S
C193 C194 1.410 . S
C193 C201 1.503 1_654 S
C194 C193 1.410 . S
C194 C195 1.392 . S
C194 C197 1.511 1_554 S
C195 C191 1.376 . S
C195 C194 1.392 . S
C195 H207 0.929 . S
C196 C192 1.531 . S
C196 H208 0.960 . S
C196 H209 0.962 . S
C196 H210 0.960 . S
C197 C194 1.511 1_556 S
C197 H211 0.961 . S
C197 H212 0.961 . S
C197 H213 0.961 . S
C198 C199 1.370 . S
C198 C200 1.363 . S
C198 H214 0.931 . S
C199 C198 1.370 . S
C199 C203 1.408 . S
C200 C198 1.363 . S
C200 C201 1.370 . S
C200 C204 1.524 . S
C201 C193 1.503 1_456 S
C201 C200 1.370 . S
C201 C202 1.403 . S
C202 C201 1.403 . S
C202 C203 1.404 . S
C202 C205 1.539 1_455 S
C203 C199 1.408 . S
C203 C202 1.404 . S
C203 H215 0.930 . S
C204 C200 1.524 . S
C204 H216 0.956 1_556 S
C204 H217 0.960 1_455 S
C204 H218 0.961 . S
C205 C202 1.539 1_655 S
C205 H219 0.958 1_655 S
C205 H220 0.961 . S
C205 H221 0.960 . S
H206 C190 0.931 . S
H207 C195 0.929 . S
H208 C196 0.960 . S
H209 C196 0.962 . S
H210 C196 0.960 . S
H211 C197 0.961 . S
H212 C197 0.961 . S
H213 C197 0.961 . S
H214 C198 0.931 . S
H215 C203 0.930 . S
H216 C204 0.956 1_554 S
H217 C204 0.960 1_655 S
H218 C204 0.961 . S
H219 C205 0.958 1_455 S
H220 C205 0.961 . S
H221 C205 0.960 . S
C222 C223 1.391 . S
C222 C224 1.391 1_545 S
C222 H238 0.931 . S
C223 C222 1.391 . S
C223 C227 1.376 . S
C224 C222 1.391 1_565 S
C224 C225 1.371 1_565 S
C224 C228 1.531 . S
C225 C224 1.371 1_545 S
C225 C226 1.410 . S
C225 C233 1.503 1_545 S
C226 C225 1.410 . S
C226 C227 1.392 . S
C226 C229 1.511 . S
C227 C223 1.376 . S
C227 C226 1.392 . S
C227 H239 0.929 . S
C228 C224 1.531 . S
C228 H240 0.960 . S
C228 H241 0.962 . S
C228 H242 0.960 . S
C229 C226 1.511 . S
C229 H243 0.961 . S
C229 H244 0.961 . S
C229 H245 0.961 . S
C230 C231 1.370 . S
C230 C232 1.363 1_565 S
C230 H246 0.931 1_565 S
C231 C230 1.370 . S
C231 C235 1.408 . S
C232 C230 1.363 1_545 S
C232 C233 1.370 1_545 S
C232 C236 1.524 . S
C233 C225 1.503 1_565 S
C233 C232 1.370 1_565 S
C233 C234 1.403 . S
C234 C233 1.403 . S
C234 C235 1.404 . S
C234 C237 1.539 . S
C235 C231 1.408 . S
C235 C234 1.404 . S
C235 H247 0.930 . S
C236 C232 1.524 . S
C236 H248 0.956 . S
C236 H249 0.961 . S
C236 H250 0.961 . S
C237 C234 1.539 . S
C237 H251 0.958 . S
C237 H252 0.961 . S
C237 H253 0.960 . S
H238 C222 0.931 . S
H239 C227 0.929 . S
H240 C228 0.960 . S
H241 C228 0.962 . S
H242 C228 0.960 . S
H243 C229 0.961 . S
H244 C229 0.961 . S
H245 C229 0.961 . S
H246 C230 0.931 1_545 S
H247 C235 0.930 . S
H248 C236 0.956 . S
H249 C236 0.961 . S
H250 C236 0.961 . S
H251 C237 0.958 . S
H252 C237 0.961 . S
H253 C237 0.960 . S
C254 C255 1.391 . S
C254 C256 1.394 . S
C254 H270 0.931 . S
C255 C254 1.391 . S
C255 C259 1.376 . S
C256 C254 1.394 . S
C256 C257 1.369 . S
C256 C260 1.531 1_556 S
C257 C256 1.369 . S
C257 C258 1.410 . S
C257 C265 1.503 1_556 S
C258 C257 1.410 . S
C258 C259 1.392 . S
C258 C261 1.511 . S
C259 C255 1.376 . S
C259 C258 1.392 . S
C259 H271 0.929 . S
C260 C256 1.531 1_554 S
C260 H272 0.960 . S
C260 H273 0.962 . S
C260 H274 0.960 1_554 S
C261 C258 1.511 . S
C261 H275 0.961 . S
C261 H276 0.961 . S
C261 H277 0.961 . S
C262 C263 1.370 . S
C262 C264 1.363 . S
C262 H278 0.931 . S
C263 C262 1.370 . S
C263 C267 1.408 . S
C264 C262 1.363 . S
C264 C265 1.370 . S
C264 C268 1.524 . S
C265 C257 1.503 1_554 S
C265 C264 1.370 . S
C265 C266 1.403 . S
C266 C265 1.403 . S
C266 C267 1.404 . S
C266 C269 1.539 1_554 S
C267 C263 1.408 . S
C267 C266 1.404 . S
C267 H279 0.930 . S
C268 C264 1.524 . S
C268 H280 0.956 . S
C268 H281 0.961 . S
C268 H282 0.961 . S
C269 C266 1.539 1_556 S
C269 H283 0.958 . S
C269 H284 0.961 . S
C269 H285 0.960 . S
H270 C254 0.931 . S
H271 C259 0.929 . S
H272 C260 0.960 . S
H273 C260 0.962 . S
H274 C260 0.960 1_556 S
H275 C261 0.961 . S
H276 C261 0.961 . S
H277 C261 0.961 . S
H278 C262 0.931 . S
H279 C267 0.930 . S
H280 C268 0.956 . S
H281 C268 0.961 . S
H282 C268 0.961 . S
H283 C269 0.958 . S
H284 C269 0.961 . S
H285 C269 0.960 . S
C286 C287 1.391 . S
C286 C288 1.394 . S
C286 H302 0.931 . S
C287 C286 1.391 . S
C287 C291 1.376 . S
C288 C286 1.394 . S
C288 C289 1.369 . S
C288 C292 1.531 . S
C289 C288 1.369 . S
C289 C290 1.410 1_655 S
C289 C297 1.503 1_655 S
C290 C289 1.410 1_455 S
C290 C291 1.392 1_455 S
C290 C293 1.511 . S
C291 C287 1.376 . S
C291 C290 1.392 1_655 S
C291 H303 0.929 1_655 S
C292 C288 1.531 . S
C292 H304 0.960 . S
C292 H305 0.962 . S
C292 H306 0.960 . S
C293 C290 1.511 . S
C293 H307 0.961 . S
C293 H308 0.961 . S
C293 H309 0.961 . S
C294 C295 1.370 . S
C294 C296 1.363 . S
C294 H310 0.931 . S
C295 C294 1.370 . S
C295 C299 1.408 . S
C296 C294 1.363 . S
C296 C297 1.370 . S
C296 C300 1.524 1_455 S
C297 C289 1.503 1_455 S
C297 C296 1.370 . S
C297 C298 1.403 . S
C298 C297 1.403 . S
C298 C299 1.404 . S
C298 C301 1.539 . S
C299 C295 1.408 . S
C299 C298 1.404 . S
C299 H311 0.930 . S
C300 C296 1.524 1_655 S
C300 H312 0.956 . S
C300 H313 0.961 1_655 S
C300 H314 0.958 . S
C301 C298 1.539 . S
C301 H315 0.958 . S
C301 H316 0.961 . S
C301 H317 0.960 . S
H302 C286 0.931 . S
H303 C291 0.929 1_455 S
H304 C292 0.960 . S
H305 C292 0.962 . S
H306 C292 0.960 . S
H307 C293 0.961 . S
H308 C293 0.961 . S
H309 C293 0.961 . S
H310 C294 0.931 . S
H311 C299 0.930 . S
H312 C300 0.956 . S
H313 C300 0.961 1_455 S
H314 C300 0.958 . S
H315 C301 0.958 . S
H316 C301 0.961 . S
H317 C301 0.960 . S
C318 C319 1.391 . S
C318 C320 1.394 . S
C318 H334 0.931 . S
C319 C318 1.391 . S
C319 C323 1.376 . S
C320 C318 1.394 . S
C320 C321 1.369 . S
C320 C324 1.531 . S
C321 C320 1.369 . S
C321 C322 1.410 . S
C321 C329 1.503 . S
C322 C321 1.410 . S
C322 C323 1.392 . S
C322 C325 1.511 . S
C323 C319 1.376 . S
C323 C322 1.392 . S
C323 H335 0.929 . S
C324 C320 1.531 . S
C324 H336 0.960 . S
C324 H337 0.962 . S
C324 H338 0.960 . S
C325 C322 1.511 . S
C325 H339 0.961 . S
C325 H340 0.961 . S
C325 H341 0.961 . S
C326 C327 1.370 . S
C326 C328 1.363 . S
C326 H342 0.931 . S
C327 C326 1.370 . S
C327 C331 1.408 . S
C328 C326 1.363 . S
C328 C329 1.370 . S
C328 C332 1.524 . S
C329 C321 1.503 . S
C329 C328 1.370 . S
C329 C330 1.403 . S
C330 C329 1.403 . S
C330 C331 1.404 . S
C330 C333 1.539 . S
C331 C327 1.408 . S
C331 C330 1.404 . S
C331 H343 0.930 . S
C332 C328 1.524 . S
C332 H344 0.956 . S
C332 H345 0.961 . S
C332 H346 0.961 . S
C333 C330 1.539 . S
C333 H347 0.958 . S
C333 H348 0.961 . S
C333 H349 0.960 . S
H334 C318 0.931 . S
H335 C323 0.929 . S
H336 C324 0.960 . S
H337 C324 0.962 . S
H338 C324 0.960 . S
H339 C325 0.961 . S
H340 C325 0.961 . S
H341 C325 0.961 . S
H342 C326 0.931 . S
H343 C331 0.930 . S
H344 C332 0.956 . S
H345 C332 0.961 . S
H346 C332 0.961 . S
H347 C333 0.958 . S
H348 C333 0.961 . S
H349 C333 0.960 . S
C350 C351 1.391 . S
C350 C352 1.394 . S
C350 H366 0.931 . S
C351 C350 1.391 . S
C351 C355 1.376 . S
C352 C350 1.394 . S
C352 C353 1.369 . S
C352 C356 1.531 . S
C353 C352 1.369 . S
C353 C354 1.410 . S
C353 C361 1.503 . S
C354 C353 1.410 . S
C354 C355 1.392 . S
C354 C357 1.511 . S
C355 C351 1.376 . S
C355 C354 1.392 . S
C355 H367 0.929 . S
C356 C352 1.531 . S
C356 H368 0.960 . S
C356 H369 0.962 . S
C356 H370 0.960 . S
C357 C354 1.511 . S
C357 H371 0.961 . S
C357 H372 0.961 . S
C357 H373 0.961 . S
C358 C359 1.370 . S
C358 C360 1.363 . S
C358 H374 0.931 . S
C359 C358 1.370 . S
C359 C363 1.408 . S
C360 C358 1.363 . S
C360 C361 1.370 . S
C360 C364 1.524 . S
C361 C353 1.503 . S
C361 C360 1.370 . S
C361 C362 1.403 . S
C362 C361 1.403 . S
C362 C363 1.404 . S
C362 C365 1.539 . S
C363 C359 1.408 . S
C363 C362 1.404 . S
C363 H375 0.930 . S
C364 C360 1.524 . S
C364 H376 0.956 . S
C364 H377 0.961 . S
C364 H378 0.961 . S
C365 C362 1.539 . S
C365 H379 0.958 . S
C365 H380 0.961 . S
C365 H381 0.960 . S
H366 C350 0.931 . S
H367 C355 0.929 . S
H368 C356 0.960 . S
H369 C356 0.962 . S
H370 C356 0.960 . S
H371 C357 0.961 . S
H372 C357 0.961 . S
H373 C357 0.961 . S
H374 C358 0.931 . S
H375 C363 0.930 . S
H376 C364 0.956 . S
H377 C364 0.961 . S
H378 C364 0.961 . S
H379 C365 0.958 . S
H380 C365 0.961 . S
H381 C365 0.960 . S
C382 C383 1.391 . S
C382 C384 1.394 . S
C382 H398 0.931 . S
C383 C382 1.391 . S
C383 C387 1.376 . S
C384 C382 1.394 . S
C384 C385 1.369 . S
C384 C388 1.531 . S
C385 C384 1.369 . S
C385 C386 1.410 . S
C385 C393 1.503 . S
C386 C385 1.410 . S
C386 C387 1.392 . S
C386 C389 1.511 . S
C387 C383 1.376 . S
C387 C386 1.392 . S
C387 H399 0.929 . S
C388 C384 1.531 . S
C388 H400 0.960 . S
C388 H401 0.962 . S
C388 H402 0.960 . S
C389 C386 1.511 . S
C389 H403 0.961 . S
C389 H404 0.961 . S
C389 H405 0.961 . S
C390 C391 1.370 . S
C390 C392 1.363 . S
C390 H406 0.931 . S
C391 C390 1.370 . S
C391 C395 1.408 . S
C392 C390 1.363 . S
C392 C393 1.370 . S
C392 C396 1.524 . S
C393 C385 1.503 . S
C393 C392 1.370 . S
C393 C394 1.403 . S
C394 C393 1.403 . S
C394 C395 1.404 . S
C394 C397 1.539 . S
C395 C391 1.408 . S
C395 C394 1.404 . S
C395 H407 0.930 . S
C396 C392 1.524 . S
C396 H408 0.956 . S
C396 H409 0.961 . S
C396 H410 0.961 . S
C397 C394 1.539 . S
C397 H411 0.958 . S
C397 H412 0.961 . S
C397 H413 0.960 . S
H398 C382 0.931 . S
H399 C387 0.929 . S
H400 C388 0.960 . S
H401 C388 0.962 . S
H402 C388 0.960 . S
H403 C389 0.961 . S
H404 C389 0.961 . S
H405 C389 0.961 . S
H406 C390 0.931 . S
H407 C395 0.930 . S
H408 C396 0.956 . S
H409 C396 0.961 . S
H410 C396 0.961 . S
H411 C397 0.958 . S
H412 C397 0.961 . S
H413 C397 0.960 . S
C414 C415 1.391 . S
C414 C416 1.394 . S
C414 H430 0.931 . S
C415 C414 1.391 . S
C415 C419 1.376 . S
C416 C414 1.394 . S
C416 C417 1.369 . S
C416 C420 1.531 . S
C417 C416 1.369 . S
C417 C418 1.410 . S
C417 C425 1.503 . S
C418 C417 1.410 . S
C418 C419 1.392 . S
C418 C421 1.511 . S
C419 C415 1.376 . S
C419 C418 1.392 . S
C419 H431 0.929 . S
C420 C416 1.531 . S
C420 H432 0.960 . S
C420 H433 0.962 . S
C420 H434 0.960 . S
C421 C418 1.511 . S
C421 H435 0.961 . S
C421 H436 0.961 . S
C421 H437 0.961 . S
C422 C423 1.370 . S
C422 C424 1.363 . S
C422 H438 0.931 . S
C423 C422 1.370 . S
C423 C427 1.408 . S
C424 C422 1.363 . S
C424 C425 1.370 . S
C424 C428 1.524 . S
C425 C417 1.503 . S
C425 C424 1.370 . S
C425 C426 1.403 . S
C426 C425 1.403 . S
C426 C427 1.404 . S
C426 C429 1.539 . S
C427 C423 1.408 . S
C427 C426 1.404 . S
C427 H439 0.930 . S
C428 C424 1.524 . S
C428 H440 0.956 . S
C428 H441 0.961 . S
C428 H442 0.961 . S
C429 C426 1.539 . S
C429 H443 0.958 . S
C429 H444 0.961 . S
C429 H445 0.960 . S
H430 C414 0.931 . S
H431 C419 0.929 . S
H432 C420 0.960 . S
H433 C420 0.962 . S
H434 C420 0.960 . S
H435 C421 0.961 . S
H436 C421 0.961 . S
H437 C421 0.961 . S
H438 C422 0.931 . S
H439 C427 0.930 . S
H440 C428 0.956 . S
H441 C428 0.961 . S
H442 C428 0.961 . S
H443 C429 0.958 . S
H444 C429 0.961 . S
H445 C429 0.960 . S
C446 C447 1.391 . S
C446 C448 1.394 . S
C446 H462 0.931 . S
C447 C446 1.391 . S
C447 C451 1.376 . S
C448 C446 1.394 . S
C448 C449 1.369 . S
C448 C452 1.531 . S
C449 C448 1.369 . S
C449 C450 1.410 . S
C449 C457 1.503 . S
C450 C449 1.410 . S
C450 C451 1.392 . S
C450 C453 1.511 . S
C451 C447 1.376 . S
C451 C450 1.392 . S
C451 H463 0.929 . S
C452 C448 1.531 . S
C452 H464 0.960 . S
C452 H465 0.962 . S
C452 H466 0.960 . S
C453 C450 1.511 . S
C453 H467 0.961 . S
C453 H468 0.961 . S
C453 H469 0.961 . S
C454 C455 1.370 . S
C454 C456 1.363 . S
C454 H470 0.931 . S
C455 C454 1.370 . S
C455 C459 1.408 . S
C456 C454 1.363 . S
C456 C457 1.370 . S
C456 C460 1.524 . S
C457 C449 1.503 . S
C457 C456 1.370 . S
C457 C458 1.403 . S
C458 C457 1.403 . S
C458 C459 1.404 . S
C458 C461 1.539 . S
C459 C455 1.408 . S
C459 C458 1.404 . S
C459 H471 0.930 . S
C460 C456 1.524 . S
C460 H472 0.956 . S
C460 H473 0.961 . S
C460 H474 0.961 . S
C461 C458 1.539 . S
C461 H475 0.958 . S
C461 H476 0.961 . S
C461 H477 0.960 . S
H462 C446 0.931 . S
H463 C451 0.929 . S
H464 C452 0.960 . S
H465 C452 0.962 . S
H466 C452 0.960 . S
H467 C453 0.961 . S
H468 C453 0.961 . S
H469 C453 0.961 . S
H470 C454 0.931 . S
H471 C459 0.930 . S
H472 C460 0.956 . S
H473 C460 0.961 . S
H474 C460 0.961 . S
H475 C461 0.958 . S
H476 C461 0.961 . S
H477 C461 0.960 . S
C478 C479 1.391 . S
C478 C480 1.394 . S
C478 H494 0.931 . S
C479 C478 1.391 . S
C479 C483 1.376 . S
C480 C478 1.394 . S
C480 C481 1.369 . S
C480 C484 1.531 . S
C481 C480 1.369 . S
C481 C482 1.410 . S
C481 C489 1.503 . S
C482 C481 1.410 . S
C482 C483 1.392 . S
C482 C485 1.511 . S
C483 C479 1.376 . S
C483 C482 1.392 . S
C483 H495 0.929 . S
C484 C480 1.531 . S
C484 H496 0.960 . S
C484 H497 0.962 . S
C484 H498 0.960 . S
C485 C482 1.511 . S
C485 H499 0.961 . S
C485 H500 0.961 . S
C485 H501 0.961 . S
C486 C487 1.370 . S
C486 C488 1.363 . S
C486 H502 0.931 . S
C487 C486 1.370 . S
C487 C491 1.408 . S
C488 C486 1.363 . S
C488 C489 1.370 . S
C488 C492 1.524 . S
C489 C481 1.503 . S
C489 C488 1.370 . S
C489 C490 1.403 . S
C490 C489 1.403 . S
C490 C491 1.404 . S
C490 C493 1.539 . S
C491 C487 1.408 . S
C491 C490 1.404 . S
C491 H503 0.930 . S
C492 C488 1.524 . S
C492 H504 0.956 . S
C492 H505 0.961 . S
C492 H506 0.961 . S
C493 C490 1.539 . S
C493 H507 0.958 . S
C493 H508 0.961 . S
C493 H509 0.960 . S
H494 C478 0.931 . S
H495 C483 0.929 . S
H496 C484 0.960 . S
H497 C484 0.962 . S
H498 C484 0.960 . S
H499 C485 0.961 . S
H500 C485 0.961 . S
H501 C485 0.961 . S
H502 C486 0.931 . S
H503 C491 0.930 . S
H504 C492 0.956 . S
H505 C492 0.961 . S
H506 C492 0.961 . S
H507 C493 0.958 . S
H508 C493 0.961 . S
H509 C493 0.960 . S
C510 C511 1.391 . S
C510 C512 1.394 . S
C510 H526 0.931 . S
C511 C510 1.391 . S
C511 C515 1.376 . S
C512 C510 1.394 . S
C512 C513 1.369 . S
C512 C516 1.531 . S
C513 C512 1.369 . S
C513 C514 1.410 . S
C513 C521 1.503 . S
C514 C513 1.410 . S
C514 C515 1.392 . S
C514 C517 1.511 . S
C515 C511 1.376 . S
C515 C514 1.392 . S
C515 H527 0.929 . S
C516 C512 1.531 . S
C516 H528 0.960 . S
C516 H529 0.962 . S
C516 H530 0.960 . S
C517 C514 1.511 . S
C517 H531 0.961 . S
C517 H532 0.961 . S
C517 H533 0.961 . S
C518 C519 1.370 . S
C518 C520 1.363 . S
C518 H534 0.931 1_455 S
C519 C518 1.370 . S
C519 C523 1.408 . S
C520 C518 1.363 . S
C520 C521 1.370 . S
C520 C524 1.524 . S
C521 C513 1.503 . S
C521 C520 1.370 . S
C521 C522 1.403 . S
C522 C521 1.403 . S
C522 C523 1.404 . S
C522 C525 1.539 . S
C523 C519 1.408 . S
C523 C522 1.404 . S
C523 H535 0.930 . S
C524 C520 1.524 . S
C524 H536 0.956 . S
C524 H537 0.961 . S
C524 H538 0.961 1_455 S
C525 C522 1.539 . S
C525 H539 0.958 . S
C525 H540 0.961 . S
C525 H541 0.960 . S
H526 C510 0.931 . S
H527 C515 0.929 . S
H528 C516 0.960 . S
H529 C516 0.962 . S
H530 C516 0.960 . S
H531 C517 0.961 . S
H532 C517 0.961 . S
H533 C517 0.961 . S
H534 C518 0.931 1_655 S
H535 C523 0.930 . S
H536 C524 0.956 . S
H537 C524 0.961 . S
H538 C524 0.961 1_655 S
H539 C525 0.958 . S
H540 C525 0.961 . S
H541 C525 0.960 . S
C542 C543 1.391 . S
C542 C544 1.394 1_655 S
C542 H558 0.931 . S
C543 C542 1.391 . S
C543 C547 1.376 . S
C544 C542 1.394 1_455 S
C544 C545 1.369 . S
C544 C548 1.531 . S
C545 C544 1.369 . S
C545 C546 1.410 . S
C545 C553 1.503 . S
C546 C545 1.410 . S
C546 C547 1.392 1_455 S
C546 C549 1.511 . S
C547 C543 1.376 . S
C547 C546 1.392 1_655 S
C547 H559 0.929 . S
C548 C544 1.531 . S
C548 H560 0.960 . S
C548 H561 0.962 . S
C548 H562 0.960 . S
C549 C546 1.511 . S
C549 H563 0.961 . S
C549 H564 0.961 . S
C549 H565 0.961 . S
C550 C551 1.370 . S
C550 C552 1.363 . S
C550 H566 0.931 1_565 S
C551 C550 1.370 . S
C551 C555 1.408 . S
C552 C550 1.363 . S
C552 C553 1.370 . S
C552 C556 1.524 . S
C553 C545 1.503 . S
C553 C552 1.370 . S
C553 C554 1.403 . S
C554 C553 1.403 . S
C554 C555 1.404 . S
C554 C557 1.539 . S
C555 C551 1.408 . S
C555 C554 1.404 . S
C555 H567 0.930 . S
C556 C552 1.524 . S
C556 H568 0.956 . S
C556 H569 0.961 . S
C556 H570 0.961 1_565 S
C557 C554 1.539 . S
C557 H571 0.958 . S
C557 H572 0.961 . S
C557 H573 0.960 . S
H558 C542 0.931 . S
H559 C547 0.929 . S
H560 C548 0.960 . S
H561 C548 0.962 . S
H562 C548 0.960 . S
H563 C549 0.961 . S
H564 C549 0.961 . S
H565 C549 0.961 . S
H566 C550 0.931 1_545 S
H567 C555 0.930 . S
H568 C556 0.956 . S
H569 C556 0.961 . S
H570 C556 0.961 1_545 S
H571 C557 0.958 . S
H572 C557 0.961 . S
H573 C557 0.960 . S
C574 C575 1.391 . S
C574 C576 1.394 1_545 S
C574 H590 0.931 . S
C575 C574 1.391 . S
C575 C579 1.376 . S
C576 C574 1.394 1_565 S
C576 C577 1.369 . S
C576 C580 1.531 . S
C577 C576 1.369 . S
C577 C578 1.410 . S
C577 C585 1.503 . S
C578 C577 1.410 . S
C578 C579 1.392 1_565 S
C578 C581 1.511 . S
C579 C575 1.376 . S
C579 C578 1.392 1_545 S
C579 H591 0.929 . S
C580 C576 1.531 . S
C580 H592 0.960 . S
C580 H593 0.962 . S
C580 H594 0.970 . S
C581 C578 1.511 . S
C581 H595 0.961 . S
C581 H596 0.961 . S
C581 H597 0.961 . S
C582 C583 1.370 . S
C582 C584 1.363 . S
C582 H598 0.931 . S
C583 C582 1.370 . S
C583 C587 1.408 . S
C584 C582 1.363 . S
C584 C585 1.370 . S
C584 C588 1.524 . S
C585 C577 1.503 . S
C585 C584 1.370 . S
C585 C586 1.403 . S
C586 C585 1.403 . S
C586 C587 1.404 . S
C586 C589 1.539 . S
C587 C583 1.408 . S
C587 C586 1.404 . S
C587 H599 0.930 . S
C588 C584 1.524 . S
C588 H600 0.956 . S
C588 H601 0.961 . S
C588 H602 0.961 . S
C589 C586 1.539 . S
C589 H603 0.958 . S
C589 H604 0.961 . S
C589 H605 0.960 . S
H590 C574 0.931 . S
H591 C579 0.929 . S
H592 C580 0.960 . S
H593 C580 0.962 . S
H594 C580 0.970 . S
H595 C581 0.961 . S
H596 C581 0.961 . S
H597 C581 0.961 . S
H598 C582 0.931 . S
H599 C587 0.930 . S
H600 C588 0.956 . S
H601 C588 0.961 . S
H602 C588 0.961 . S
H603 C589 0.958 . S
H604 C589 0.961 . S
H605 C589 0.960 . S
C606 C607 1.391 . S
C606 C608 1.394 . S
C606 H622 0.931 . S
C607 C606 1.391 . S
C607 C611 1.376 . S
C608 C606 1.394 . S
C608 C609 1.369 . S
C608 C612 1.531 . S
C609 C608 1.369 . S
C609 C610 1.410 . S
C609 C617 1.503 . S
C610 C609 1.410 . S
C610 C611 1.392 . S
C610 C613 1.511 . S
C611 C607 1.376 . S
C611 C610 1.392 . S
C611 H623 0.929 . S
C612 C608 1.531 . S
C612 H624 0.960 . S
C612 H625 0.962 . S
C612 H626 0.960 . S
C613 C610 1.511 . S
C613 H627 0.961 . S
C613 H628 0.961 . S
C613 H629 0.961 . S
C614 C615 1.370 . S
C614 C616 1.363 . S
C614 H630 0.931 . S
C615 C614 1.370 . S
C615 C619 1.408 . S
C616 C614 1.363 . S
C616 C617 1.370 . S
C616 C620 1.524 . S
C617 C609 1.503 . S
C617 C616 1.370 . S
C617 C618 1.403 . S
C618 C617 1.403 . S
C618 C619 1.404 . S
C618 C621 1.539 . S
C619 C615 1.408 . S
C619 C618 1.404 . S
C619 H631 0.930 1_545 S
C620 C616 1.524 . S
C620 H632 0.956 . S
C620 H633 0.961 . S
C620 H634 0.961 . S
C621 C618 1.539 . S
C621 H635 0.958 . S
C621 H636 0.961 . S
C621 H637 0.960 . S
H622 C606 0.931 . S
H623 C611 0.929 . S
H624 C612 0.960 . S
H625 C612 0.962 . S
H626 C612 0.960 . S
H627 C613 0.961 . S
H628 C613 0.961 . S
H629 C613 0.961 . S
H630 C614 0.931 . S
H631 C619 0.930 1_565 S
H632 C620 0.956 . S
H633 C620 0.961 . S
H634 C620 0.961 . S
H635 C621 0.958 . S
H636 C621 0.961 . S
H637 C621 0.960 . S
C638 C639 1.391 . S
C638 C640 1.394 1_455 S
C638 H654 0.931 . S
C639 C638 1.391 . S
C639 C643 1.376 . S
C640 C638 1.394 1_655 S
C640 C641 1.369 . S
C640 C644 1.531 . S
C641 C640 1.369 . S
C641 C642 1.410 . S
C641 C649 1.503 . S
C642 C641 1.410 . S
C642 C643 1.392 1_655 S
C642 C645 1.511 . S
C643 C639 1.376 . S
C643 C642 1.392 1_455 S
C643 H655 0.929 . S
C644 C640 1.531 . S
C644 H656 0.960 . S
C644 H657 0.962 . S
C644 H658 0.960 . S
C645 C642 1.511 . S
C645 H659 0.961 . S
C645 H660 0.961 . S
C645 H661 0.961 . S
C646 C647 1.370 . S
C646 C648 1.363 . S
C646 H662 0.931 . S
C647 C646 1.370 . S
C647 C651 1.408 . S
C648 C646 1.363 . S
C648 C649 1.370 . S
C648 C652 1.524 . S
C649 C641 1.503 . S
C649 C648 1.370 . S
C649 C650 1.403 . S
C650 C649 1.403 . S
C650 C651 1.404 . S
C650 C653 1.539 . S
C651 C647 1.408 . S
C651 C650 1.404 . S
C651 H663 0.930 . S
C652 C648 1.524 . S
C652 H664 0.956 . S
C652 H665 0.961 . S
C652 H666 0.961 . S
C653 C650 1.539 . S
C653 H667 0.958 . S
C653 H668 0.961 . S
C653 H669 0.960 . S
H654 C638 0.931 . S
H655 C643 0.929 . S
H656 C644 0.960 . S
H657 C644 0.962 . S
H658 C644 0.960 . S
H659 C645 0.961 . S
H660 C645 0.961 . S
H661 C645 0.961 . S
H662 C646 0.931 . S
H663 C651 0.930 . S
H664 C652 0.956 . S
H665 C652 0.961 . S
H666 C652 0.961 . S
H667 C653 0.958 . S
H668 C653 0.961 . S
H669 C653 0.960 . S
C670 C671 1.391 . S
C670 C672 1.394 . S
C670 H686 0.931 . S
C671 C670 1.391 . S
C671 C675 1.376 . S
C672 C670 1.394 . S
C672 C673 1.369 . S
C672 C676 1.531 . S
C673 C672 1.369 . S
C673 C674 1.410 . S
C673 C681 1.503 . S
C674 C673 1.410 . S
C674 C675 1.392 . S
C674 C677 1.511 . S
C675 C671 1.376 . S
C675 C674 1.392 . S
C675 H687 0.929 1_655 S
C676 C672 1.531 . S
C676 H688 0.960 . S
C676 H689 0.962 . S
C676 H690 0.960 . S
C677 C674 1.511 . S
C677 H691 0.961 1_655 S
C677 H692 0.961 . S
C677 H693 0.961 . S
C678 C679 1.370 . S
C678 C680 1.363 1_565 S
C678 H694 0.931 . S
C679 C678 1.370 . S
C679 C683 1.408 . S
C680 C678 1.363 1_545 S
C680 C681 1.370 . S
C680 C684 1.524 . S
C681 C673 1.503 . S
C681 C680 1.370 . S
C681 C682 1.403 . S
C682 C681 1.403 . S
C682 C683 1.404 1_545 S
C682 C685 1.539 . S
C683 C679 1.408 . S
C683 C682 1.404 1_565 S
C683 H695 0.930 . S
C684 C680 1.524 . S
C684 H696 0.956 . S
C684 H697 0.961 . S
C684 H698 0.961 . S
C685 C682 1.539 . S
C685 H699 0.958 . S
C685 H700 0.950 1_545 S
C685 H701 0.960 . S
H686 C670 0.931 . S
H687 C675 0.929 1_455 S
H688 C676 0.960 . S
H689 C676 0.962 . S
H690 C676 0.960 . S
H691 C677 0.961 1_455 S
H692 C677 0.961 . S
H693 C677 0.961 . S
H694 C678 0.931 . S
H695 C683 0.930 . S
H696 C684 0.956 . S
H697 C684 0.961 . S
H698 C684 0.961 . S
H699 C685 0.958 . S
H700 C685 0.950 1_565 S
H701 C685 0.960 . S
C127 C99 1.559 . S
C135 C18 1.605 . S
C159 C123 1.683 . S
C167 C36 1.696 . S
C191 C60 1.580 . S
C199 C78 1.595 . S
C223 C15 1.671 . S
C231 C102 1.669 . S
C255 C120 1.617 . S
C263 C39 1.638 . S
C287 C57 1.723 . S
C295 C81 1.697 . S
C319 C14 1.301 . S
C327 C55 1.356 . S
C351 C35 1.212 . S
C359 C13 1.339 . S
C383 C56 1.200 . S
C391 C34 1.331 . S
C415 C80 1.268 . S
C423 C100 1.352 . S
C447 C101 1.196 . S
C455 C121 1.335 . S
C479 C79 1.369 . S
C487 C122 1.268 . S
C511 C16 0.861 . S
C519 C59 0.844 . S
C543 C37 0.866 . S
C551 C17 0.847 . S
C575 C58 0.898 . S
C583 C38 0.860 . S
C607 C76 0.806 . S
C615 C98 0.793 . S
C639 C97 0.881 . S
C647 C119 0.840 . S
C671 C77 0.864 . S
C679 C118 0.866 . S
