# Generated by pormake.
# Topology und, (4)-cn, num edge types: 1
# Building blocks:
#     Node 0, Type 0, BuildingBlock: ICAMEG_clean_sbu_1, # of connection points: 4
#     Node 1, Type 0, BuildingBlock: ICAMEG_clean_sbu_1, # of connection points: 4
#     Node 2, Type 0, BuildingBlock: ICAMEG_clean_sbu_1, # of connection points: 4
#     Node 3, Type 0, BuildingBlock: ICAMEG_clean_sbu_1, # of connection points: 4
#     Node 4, Type 0, BuildingBlock: ICAMEG_clean_sbu_1, # of connection points: 4
#     Node 5, Type 0, BuildingBlock: ICAMEG_clean_sbu_1, # of connection points: 4
#     Node 6, Type 0, BuildingBlock: ICAMEG_clean_sbu_1, # of connection points: 4
#     Node 7, Type 0, BuildingBlock: ICAMEG_clean_sbu_1, # of connection points: 4
#     Node 8, Type 0, BuildingBlock: ICAMEG_clean_sbu_1, # of connection points: 4
#     Node 9, Type 0, BuildingBlock: ICAMEG_clean_sbu_1, # of connection points: 4
#     Node 10, Type 0, BuildingBlock: ICAMEG_clean_sbu_1, # of connection points: 4
#     Node 11, Type 0, BuildingBlock: ICAMEG_clean_sbu_1, # of connection points: 4
#     Node 12, Type 0, BuildingBlock: ICAMEG_clean_sbu_1, # of connection points: 4
#     Node 13, Type 0, BuildingBlock: ICAMEG_clean_sbu_1, # of connection points: 4
#     Node 14, Type 0, BuildingBlock: ICAMEG_clean_sbu_1, # of connection points: 4
#     Node 15, Type 0, BuildingBlock: ICAMEG_clean_sbu_1, # of connection points: 4
#     Edge 16, Type (0, 0), None
#     Edge 17, Type (0, 0), None
#     Edge 18, Type (0, 0), None
#     Edge 19, Type (0, 0), None
#     Edge 20, Type (0, 0), None
#     Edge 21, Type (0, 0), None
#     Edge 22, Type (0, 0), None
#     Edge 23, Type (0, 0), None
#     Edge 24, Type (0, 0), None
#     Edge 25, Type (0, 0), None
#     Edge 26, Type (0, 0), None
#     Edge 27, Type (0, 0), None
#     Edge 28, Type (0, 0), None
#     Edge 29, Type (0, 0), None
#     Edge 30, Type (0, 0), None
#     Edge 31, Type (0, 0), None
#     Edge 32, Type (0, 0), None
#     Edge 33, Type (0, 0), None
#     Edge 34, Type (0, 0), None
#     Edge 35, Type (0, 0), None
#     Edge 36, Type (0, 0), None
#     Edge 37, Type (0, 0), None
#     Edge 38, Type (0, 0), None
#     Edge 39, Type (0, 0), None
#     Edge 40, Type (0, 0), None
#     Edge 41, Type (0, 0), None
#     Edge 42, Type (0, 0), None
#     Edge 43, Type (0, 0), None
#     Edge 44, Type (0, 0), None
#     Edge 45, Type (0, 0), None
#     Edge 46, Type (0, 0), None
#     Edge 47, Type (0, 0), None
# Relax obj value: 0.033
# Max RMSD: 0.081
# Mean RMSD: 0.081
data_MOF--net-und--node1-ICAMEG_clean_sbu_1--edge1-none
_symmetry_space_group_name_H-M    P1
_symmetry_Int_Tables_number       1
_symmetry_cell_setting            triclinic
loop_
_symmetry_equiv_pos_as_xyz
'x, y, z'
_cell_length_a     32.490691
_cell_length_b     32.485246
_cell_length_c     10.086911
_cell_angle_alpha  90.025147
_cell_angle_beta   90.236131
_cell_angle_gamma 89.98747
loop_
_atom_site_label
_atom_site_type_symbol
_atom_site_fract_x
_atom_site_fract_y
_atom_site_fract_z
_atom_type_partial_charge
Co0 Co 0.29855 0.30213 0.02421 0.0
Co1 Co 0.19491 0.31148 1.00767 0.0
O2 O 0.24947 0.3349 0.02017 0.0
C3 C 0.32869 0.3872 0.97595 0.0
O4 O 0.30071 0.39801 0.06258 0.0
C5 C 0.17989 0.3988 0.10191 0.0
O6 O 0.21498 0.41132 0.05349 0.0
O7 O 0.2081 0.27861 0.17917 0.0
O8 O 0.2707 0.25598 0.12081 0.0
H9 H 0.09163 0.19874 0.06065 0.0
H10 H 0.2511 0.33405 0.25856 0.0
O11 O 0.33004 0.34959 0.93441 0.0
H12 H 0.39649 0.35306 0.37428 0.0
H13 H 0.43131 0.24707 0.84387 0.0
H14 H 0.33847 0.24822 0.22568 0.0
H15 H 0.37722 0.33039 0.15072 0.0
H16 H 0.36504 0.28472 0.8313 0.0
O17 O 0.17167 0.36028 0.11054 0.0
H18 H 0.16144 0.22958 0.0379 0.0
H19 H 0.10934 0.34719 0.97864 0.0
H20 H 0.40477 0.2132 0.24388 0.0
H21 H 0.2693 0.35614 0.4808 0.0
H22 H 0.45361 0.21636 0.05612 0.0
H23 H 0.34191 0.36437 0.54326 0.0
O24 O 0.27974 0.276 0.84832 0.0
H25 H 0.23954 0.40594 0.63589 0.0
H26 H 0.13902 0.30089 0.76669 0.0
H27 H 0.13746 0.32951 0.54085 0.0
H28 H 0.18985 0.3787 0.47089 0.0
H29 H 0.23897 0.38127 0.85837 0.0
H30 H 0.03962 0.31837 0.99847 0.0
H31 H 0.03052 0.24346 0.03789 0.0
O32 O 0.21358 0.26313 0.89784 0.0
C33 C 0.24057 0.25599 0.20096 0.0
C34 C 0.09538 0.23127 0.04122 0.0
C35 C 0.0661 0.29835 1.00506 0.0
N36 N 0.13942 0.28941 1.00618 0.0
C37 C 0.13454 0.24846 0.02797 0.0
C38 C 0.10575 0.31456 0.99597 0.0
C39 C 0.06097 0.25644 0.02856 0.0
C40 C 0.28314 0.33647 0.28328 0.0
N41 N 0.31326 0.32661 0.19424 0.0
C42 C 0.29305 0.35033 0.40937 0.0
C43 C 0.33394 0.35561 0.4432 0.0
C44 C 0.36444 0.34892 0.34892 0.0
C45 C 0.35343 0.33516 0.22353 0.0
C46 C 0.41144 0.24844 0.92848 0.0
C47 C 0.3584 0.24784 0.14055 0.0
C48 C 0.3737 0.2688 0.92121 0.0
N49 N 0.34804 0.2689 0.02755 0.0
C50 C 0.39633 0.22838 0.15241 0.0
C51 C 0.42341 0.22966 0.04648 0.0
C52 C 0.24457 0.25856 0.82222 0.0
C53 C 0.21653 0.38365 0.66525 0.0
C54 C 0.15941 0.32594 0.74399 0.0
C55 C 0.15927 0.34057 0.6132 0.0
C56 C 0.18883 0.36844 0.57294 0.0
N57 N 0.18683 0.34068 0.83633 0.0
C58 C 0.21506 0.36965 0.79556 0.0
Co59 Co 0.93515 0.94715 0.27438 0.0
Co60 Co 0.92597 0.05062 0.28751 0.0
O61 O 0.90244 0.99619 0.2646 0.0
C62 C 0.85097 0.9114 0.30156 0.0
O63 O 0.83906 0.93503 0.20318 0.0
C64 C 0.83956 0.07005 0.19344 0.0
O65 O 0.82486 0.03678 0.24882 0.0
O66 O 0.95967 0.03871 0.11982 0.0
O67 O 0.98219 0.97578 0.18065 0.0
H68 H 0.0324 0.159 0.20524 0.0
H69 H 0.908 0.99213 0.0268 0.0
O70 O 0.88581 0.91814 0.35856 0.0
H71 H 0.89862 0.84663 0.90651 0.0
H72 H 0.95273 0.79541 0.35881 0.0
H73 H 0.02382 0.92075 0.21327 0.0
H74 H 0.9107 0.86623 0.13627 0.0
H75 H 0.92104 0.86122 0.3916 0.0
O76 O 0.87842 0.07504 0.18103 0.0
H77 H 0.00765 0.08732 0.24797 0.0
H78 H 0.88867 0.13345 0.33152 0.0
H79 H 0.05773 0.85449 0.19499 0.0
H80 H 0.90161 0.9731 0.79409 0.0
H81 H 0.0196 0.79073 0.25297 0.0
H82 H 0.89804 0.89971 0.73054 0.0
O83 O 0.95775 0.96681 0.4542 0.0
H84 H 0.83329 -0.00088 0.65347 0.0
H85 H 0.93547 0.10387 0.53415 0.0
H86 H 0.9076 0.10178 0.76014 0.0
H87 H 0.85978 0.04714 0.82414 0.0
H88 H 0.85672 0.00379 0.42961 0.0
H89 H 0.91199 0.20396 0.28877 0.0
H90 H 0.98466 0.21669 0.22991 0.0
O91 O 0.974 0.03146 0.39893 0.0
C92 C 0.98287 0.00658 0.10127 0.0
C93 C 0.00126 0.15309 0.23685 0.0
C94 C 0.93372 0.17882 0.28574 0.0
N95 N 0.94732 0.10626 0.29456 0.0
C96 C 0.98728 0.11312 0.26131 0.0
C97 C 0.92061 0.13864 0.30734 0.0
C98 C 0.97439 0.18596 0.2512 0.0
C99 C 0.90885 0.96 1.0021 0.0
N100 N 0.91548 0.93048 0.09705 0.0
C101 C 0.90389 0.94952 0.86896 0.0
C102 C 0.90193 0.9084 0.83341 0.0
C103 C 0.90282 0.87861 0.93201 0.0
C104 C 0.91011 0.89007 0.06324 0.0
C105 C 0.96865 0.82309 0.32971 0.0
C106 C 0.00731 0.89407 0.24647 0.0
C107 C 0.95044 0.86143 0.34498 0.0
N108 N 0.9678 0.8963 0.29211 0.0
C109 C 0.02732 0.85622 0.23645 0.0
C110 C 0.00686 0.82051 0.27229 0.0
C111 C 0.97647 0.00123 0.479 0.0
C112 C 0.85467 0.02322 0.62642 0.0
C113 C 0.91078 0.08277 0.55425 0.0
C114 C 0.89676 0.08064 0.68535 0.0
C115 C 0.86966 0.04988 0.72214 0.0
N116 N 0.89604 0.05661 0.45815 0.0
C117 C 0.86798 0.02704 0.49579 0.0
Co118 Co 0.19494 0.6931 0.51363 0.0
Co119 Co 0.29854 0.68505 0.50115 0.0
O120 O 0.2443 0.66119 0.51213 0.0
C121 C 0.16745 0.60759 0.45784 0.0
O122 O 0.19541 0.59723 0.54581 0.0
C123 C 0.31282 0.597 0.58476 0.0
O124 O 0.27965 0.58514 0.52186 0.0
O125 O 0.28515 0.71721 0.67261 0.0
O126 O 0.22179 0.73903 0.61598 0.0
H127 H 0.40064 0.79855 0.56554 0.0
H128 H 0.24031 0.66327 0.75583 0.0
O129 O 0.16494 0.64543 0.41863 0.0
H130 H 0.09479 0.63419 0.84112 0.0
H131 H 0.07257 0.75786 0.304 0.0
H132 H 0.15117 0.744 0.71638 0.0
H133 H 0.11585 0.66153 0.62569 0.0
H134 H 0.13301 0.71327 0.3117 0.0
O135 O 0.32067 0.6354 0.60226 0.0
H136 H 0.33141 0.76756 0.53104 0.0
H137 H 0.3846 0.64971 0.48767 0.0
H138 H 0.08706 0.78447 0.71746 0.0
H139 H 0.2199 0.63851 0.97289 0.0
H140 H 0.0462 0.7909 0.51035 0.0
H141 H 0.14694 0.6245 0.01954 0.0
O142 O 0.21417 0.72021 0.33973 0.0
H143 H 0.25413 0.59539 0.11544 0.0
H144 H 0.35852 0.6938 0.26891 0.0
H145 H 0.36161 0.66611 0.04302 0.0
H146 H 0.30723 0.62096 0.96026 0.0
H147 H 0.25199 0.61994 0.33714 0.0
H148 H 0.4538 0.6789 0.51947 0.0
H149 H 0.46219 0.75387 0.55573 0.0
O150 O 0.27999 0.73376 0.39194 0.0
C151 C 0.25282 0.7399 0.6938 0.0
C152 C 0.39726 0.76593 0.54684 0.0
C153 C 0.42716 0.69884 0.51989 0.0
N154 N 0.35392 0.70751 0.50516 0.0
C155 C 0.3584 0.7486 0.52627 0.0
C156 C 0.38777 0.68244 0.50367 0.0
C157 C 0.43188 0.74085 0.54181 0.0
C158 C 0.20815 0.65874 0.77443 0.0
N159 N 0.17899 0.66758 0.68054 0.0
C160 C 0.19704 0.64309 0.89715 0.0
C161 C 0.15609 0.63448 0.922 0.0
C162 C 0.12685 0.6403 0.82245 0.0
C163 C 0.13887 0.65683 0.70175 0.0
C164 C 0.08792 0.7534 0.39674 0.0
C165 C 0.13318 0.74612 0.62646 0.0
C166 C 0.12288 0.72875 0.40072 0.0
N167 N 0.1453 0.72578 0.51407 0.0
C168 C 0.09689 0.76905 0.6279 0.0
C169 C 0.07394 0.77248 0.51184 0.0
C170 C 0.24912 0.73797 0.31469 0.0
C171 C 0.27759 0.61663 0.14936 0.0
C172 C 0.33687 0.67024 0.24184 0.0
C173 C 0.33803 0.65625 0.11041 0.0
C174 C 0.3074 0.63061 0.06299 0.0
N175 N 0.30719 0.65687 0.32827 0.0
C176 C 0.27767 0.63023 0.28008 0.0
Co177 Co 0.5575 0.04485 0.78509 0.0
Co178 Co 0.56901 0.94234 0.79689 0.0
O179 O 0.59195 -0.00273 0.78489 0.0
C180 C 0.64121 0.07878 0.8285 0.0
O181 O 0.65304 0.05072 0.7432 0.0
C182 C 0.65704 0.92866 0.71001 0.0
O183 O 0.66976 0.96251 0.76724 0.0
O184 O 0.53703 0.9545 0.62357 0.0
O185 O 0.51178 0.01502 0.68956 0.0
H186 H 0.46394 0.83335 0.70013 0.0
H187 H 0.59054 0.00096 0.54572 0.0
O188 O 0.60397 0.07825 0.87269 0.0
H189 H 0.60403 0.14816 0.44468 0.0
H190 H 0.48424 0.15858 1.01065 0.0
H191 H 0.49969 0.08255 0.59385 0.0
H192 H 0.57859 0.12628 0.66178 0.0
H193 H 0.5378 0.10528 0.98828 0.0
O194 O 0.61858 0.921 0.69602 0.0
H195 H 0.48816 0.90481 0.74838 0.0
H196 H 0.60775 0.85951 0.82944 0.0
H197 H 0.44584 0.1333 0.61288 0.0
H198 H 0.6152 0.02188 0.3294 0.0
H199 H 0.44066 0.17641 0.8154 0.0
H200 H 0.62187 0.09506 0.27536 0.0
O201 O 0.53403 0.02512 0.96118 0.0
H202 H 0.65904 0.98841 0.17978 0.0
H203 H 0.55773 0.88575 0.0338 0.0
H204 H 0.58405 0.88419 0.26215 0.0
H205 H 0.63139 0.93773 0.34009 0.0
H206 H 0.63608 0.98812 0.95485 0.0
H207 H 0.58547 0.78912 0.7785 0.0
H208 H 0.51283 0.77564 0.71906 0.0
O209 O 0.51951 0.95992 0.90585 0.0
C210 C 0.51311 0.986 0.60483 0.0
C211 C 0.49524 0.83919 0.73138 0.0
C212 C 0.56336 0.81402 0.77705 0.0
N213 N 0.54872 0.88623 0.79394 0.0
C214 C 0.50883 0.87914 0.75931 0.0
C215 C 0.57591 0.85415 0.80336 0.0
C216 C 0.52264 0.80651 0.74235 0.0
C217 C 0.59167 0.03328 0.52394 0.0
N218 N 0.57965 0.06218 0.61453 0.0
C219 C 0.60691 0.04483 0.4013 0.0
C220 C 0.61118 0.08618 0.37217 0.0
C221 C 0.60093 0.11573 0.46651 0.0
C222 C 0.58556 0.10311 0.58833 0.0
C223 C 0.48898 0.14379 0.91663 0.0
C224 C 0.49691 0.09964 0.68488 0.0
C225 C 0.51847 0.11304 0.90508 0.0
N226 N 0.5219 0.09152 0.79035 0.0
C227 C 0.46713 0.12971 0.69338 0.0
C228 C 0.46411 0.15313 0.80811 0.0
C229 C 0.51584 0.99055 0.98482 0.0
C230 C 0.6374 0.96511 0.14743 0.0
C231 C 0.58206 0.90669 0.06003 0.0
C232 C 0.59531 0.9066 0.19241 0.0
C233 C 0.62204 0.93677 0.23698 0.0
N234 N 0.59711 0.93463 0.97033 0.0
C235 C 0.62469 0.96367 1.01554 0.0
Co236 Co 0.69235 0.68401 1.01051 0.0
Co237 Co 0.79755 0.67955 0.03083 0.0
O238 O 0.74412 0.6533 1.01343 0.0
C239 C 0.67225 0.61348 0.19723 0.0
O240 O 0.70909 0.61461 0.25012 0.0
C241 C 0.81936 0.60471 0.85266 0.0
O242 O 0.78078 0.59567 0.8277 0.0
O243 O 0.78332 0.71584 0.86579 0.0
O244 O 0.71651 0.72997 0.90393 0.0
H245 H 0.89546 0.79786 0.0774 0.0
H246 H 0.69159 0.59574 0.9387 0.0
O247 O 0.66198 0.63959 0.10987 0.0
H248 H 0.68202 0.6694 0.51462 0.0
H249 H 0.53895 0.69682 0.96349 0.0
H250 H 0.66856 0.76884 0.05515 0.0
H251 H 0.67078 0.70679 0.72754 0.0
H252 H 0.60529 0.66053 0.94798 0.0
O253 O 0.82818 0.63688 0.91901 0.0
H254 H 0.82843 0.76435 0.02948 0.0
H255 H 0.88067 0.64733 0.09523 0.0
H256 H 0.60192 0.80664 0.07694 0.0
H257 H 0.69804 0.55755 0.73108 0.0
H258 H 0.5371 0.77017 0.02899 0.0
H259 H 0.69653 0.5951 0.51759 0.0
O260 O 0.70826 0.71483 0.18391 0.0
H261 H 0.78563 0.5456 0.27638 0.0
H262 H 0.81763 0.69319 0.32006 0.0
H263 H 0.80509 0.65085 0.52187 0.0
H264 H 0.79021 0.57701 0.50006 0.0
H265 H 0.79092 0.58918 0.0811 0.0
H266 H 0.94684 0.67836 0.14788 0.0
H267 H 0.95584 0.75435 0.13505 0.0
O268 O 0.77551 0.72391 0.14841 0.0
C269 C 0.74881 0.73457 0.83532 0.0
C270 C 0.89266 0.76482 0.07918 0.0
C271 C 0.92163 0.69792 0.11956 0.0
N272 N 0.85098 0.70445 0.05538 0.0
C273 C 0.85498 0.74604 0.05091 0.0
C274 C 0.8838 0.68034 0.08893 0.0
C275 C 0.92636 0.74044 0.113 0.0
C276 C 0.68719 0.61222 0.84701 0.0
N277 N 0.68099 0.65396 0.84658 0.0
C278 C 0.69208 0.59033 0.72904 0.0
C279 C 0.69122 0.61137 0.60931 0.0
C280 C 0.68325 0.65343 0.60837 0.0
C281 C 0.67704 0.67422 0.72861 0.0
C282 C 0.56721 0.7132 0.9805 0.0
C283 C 0.6399 0.75349 0.03574 0.0
C284 C 0.60487 0.69278 0.97314 0.0
N285 N 0.64054 0.71296 1.00276 0.0
C286 C 0.60268 0.77467 0.04751 0.0
C287 C 0.56612 0.7542 0.02002 0.0
C288 C 0.74345 0.73123 0.21519 0.0
C289 C 0.79268 0.578 0.28727 0.0
C290 C 0.81018 0.66105 0.30999 0.0
C291 C 0.80352 0.63738 0.42426 0.0
C292 C 0.79496 0.59562 0.41248 0.0
N293 N 0.80542 0.64422 0.18679 0.0
C294 C 0.79722 0.60295 0.17556 0.0
Co295 Co 0.05991 0.0515 0.78925 0.0
Co296 Co 0.05207 0.94838 0.77777 0.0
O297 O 0.08415 -0.00251 0.77432 0.0
C298 C 0.14696 0.06613 0.6961 0.0
O299 O 0.15952 0.03181 0.75031 0.0
C300 C 0.13801 0.92137 0.8277 0.0
O301 O 0.14777 0.9477 0.73459 0.0
O302 O 0.02788 0.96787 0.95449 0.0
O303 O 0.01179 0.03257 0.89945 0.0
H304 H 0.95949 0.84028 0.59529 0.0
H305 H 0.12873 0.0069 0.94295 0.0
O306 O 0.10849 0.07458 0.68647 0.0
H307 H 0.07724 0.10964 0.25487 0.0
H308 H 0.06751 0.20622 0.79779 0.0
H309 H 0.9776 0.08543 0.74664 0.0
H310 H 0.04859 0.10725 0.02952 0.0
H311 H 0.09525 0.13625 0.82292 0.0
O312 O 0.10043 0.91876 0.86792 0.0
H313 H -0.00125 0.90351 0.58586 0.0
H314 H 0.03242 0.89027 0.98889 0.0
H315 H 0.94866 0.15596 0.71559 0.0
H316 H 0.15325 0.0068 0.16618 0.0
H317 H 0.99323 0.21597 0.74691 0.0
H318 H 0.12631 0.05721 0.3283 0.0
O319 O 0.02702 0.03797 0.61893 0.0
H320 H 0.10233 0.97277 0.31238 0.0
H321 H 0.07945 0.86795 0.65636 0.0
H322 H 0.10005 0.84677 0.43199 0.0
H323 H 0.11163 0.89934 0.25844 0.0
H324 H 0.08113 0.99307 0.53394 0.0
H325 H 0.98484 0.83006 1.00809 0.0
H326 H 0.9532 0.80149 0.80837 0.0
O327 O 0.00488 0.97523 0.67996 0.0
C328 C 0.00968 0.00237 0.97982 0.0
C329 C 0.97504 0.85042 0.68249 0.0
C330 C 0.99074 0.84445 0.91378 0.0
N331 N 0.0191 0.89942 0.78637 0.0
C332 C -0.00251 0.88658 0.67793 0.0
C333 C 0.01588 0.8791 0.90362 0.0
C334 C 0.97203 0.82879 0.80091 0.0
C335 C 0.11746 0.03123 1.0043 0.0
N336 N 0.08892 0.05971 0.96138 0.0
C337 C 0.13127 0.02997 0.13517 0.0
C338 C 0.11619 0.05807 0.22594 0.0
C339 C 0.08841 0.0876 0.18385 0.0
C340 C 0.07387 0.08713 0.05286 0.0
C341 C 0.04728 0.17998 0.78912 0.0
C342 C -0.0031 0.11203 0.75972 0.0
C343 C 0.06286 0.1402 0.80162 0.0
N344 N 0.03746 0.10678 0.78927 0.0
C345 C 0.9806 0.15144 0.74182 0.0
C346 C 0.00586 0.1855 0.7588 0.0
C347 C 0.00401 0.00566 0.5999 0.0
C348 C 0.09685 0.94962 0.3867 0.0
C349 C 0.08339 0.89113 0.58064 0.0
C350 C 0.09577 0.87887 0.45456 0.0
C351 C 0.10229 0.90837 0.35699 0.0
N352 N 0.0751 0.93164 0.60669 0.0
C353 C 0.08376 0.96079 0.51279 0.0
Co354 Co 0.79881 0.31618 0.497 0.0
Co355 Co 0.69482 0.31216 0.51267 0.0
O356 O 0.74556 0.34262 0.51265 0.0
C357 C 0.81601 0.39751 0.63934 0.0
O358 O 0.77728 0.40865 0.63572 0.0
C359 C 0.66696 0.39983 0.47658 0.0
O360 O 0.69489 0.40941 0.56548 0.0
O361 O 0.7114 0.2874 0.3312 0.0
O362 O 0.77685 0.27078 0.37996 0.0
H363 H 0.58938 0.21322 0.69211 0.0
H364 H 0.77269 0.40032 0.4007 0.0
O365 O 0.82658 0.36106 0.60666 0.0
H366 H 0.83851 0.33613 1.0164 0.0
H367 H 0.95309 0.3172 0.4719 0.0
H368 H 0.82903 0.23266 0.52871 0.0
H369 H 0.84079 0.30117 0.23634 0.0
H370 H 0.8841 0.34762 0.44848 0.0
O371 O 0.66519 0.36261 0.43109 0.0
H372 H 0.65392 0.25265 0.69374 0.0
H373 H 0.6255 0.30441 0.31955 0.0
H374 H 0.89844 0.20059 0.55758 0.0
H375 H 0.76698 0.43265 0.1849 0.0
H376 H 0.96018 0.24286 0.52436 0.0
H377 H 0.79991 0.40032 0.98957 0.0
O378 O 0.78453 0.28132 0.6626 0.0
H379 H 0.73115 0.36065 0.97541 0.0
H380 H 0.61935 0.34071 0.65207 0.0
H381 H 0.6037 0.36707 0.87762 0.0
H382 H 0.65957 0.37593 0.04103 0.0
H383 H 0.74586 0.33767 0.75141 0.0
H384 H 0.5591 0.26637 0.31733 0.0
H385 H 0.54048 0.22188 0.50608 0.0
O386 O 0.72068 0.26295 0.6019 0.0
C387 C 0.74565 0.26845 0.30322 0.0
C388 C 0.59666 0.23375 0.61108 0.0
C389 C 0.57986 0.26378 0.40033 0.0
N390 N 0.64327 0.28154 0.50861 0.0
C391 C 0.63331 0.25607 0.61134 0.0
C392 C 0.61725 0.28519 0.40273 0.0
C393 C 0.56943 0.2383 0.50588 0.0
C394 C 0.78786 0.38549 0.31955 0.0
N395 N 0.8078 0.34854 0.33493 0.0
C396 C 0.7839 0.40412 0.1956 0.0
C397 C 0.8022 0.38597 0.08619 0.0
C398 C 0.82404 0.34959 0.10206 0.0
C399 C 0.82607 0.3308 0.22715 0.0
C400 C 0.92616 0.29799 0.48059 0.0
C401 C 0.85646 0.2506 0.515 0.0
C402 C 0.88697 0.31508 0.46883 0.0
N403 N 0.85273 0.2913 0.48702 0.0
C404 C 0.89522 0.23267 0.53119 0.0
C405 C 0.93019 0.25652 0.51238 0.0
C406 C 0.751 0.26021 0.68184 0.0
C407 C 0.70638 0.35652 0.90531 0.0
C408 C 0.64381 0.34523 0.7227 0.0
C409 C 0.63502 0.3608 0.84894 0.0
C410 C 0.66632 0.36536 0.94173 0.0
N411 N 0.68294 0.33476 0.68909 0.0
C412 C 0.71426 0.34215 0.77766 0.0
Co413 Co 0.43297 0.94278 0.29485 0.0
Co414 Co 0.44168 0.04663 0.28638 0.0
O415 O 0.40944 -0.0025 0.28106 0.0
C416 C 0.34538 0.92944 0.20246 0.0
O417 O 0.33287 0.96309 0.2609 0.0
C418 C 0.35616 0.07431 0.34197 0.0
O419 O 0.34546 0.04898 0.24663 0.0
O420 O 0.46773 0.02566 0.45955 0.0
O421 O 0.48243 0.9606 0.40295 0.0
H422 H 0.56793 0.13152 0.20066 0.0
H423 H 0.36573 0.98821 0.45185 0.0
O424 O 0.38373 0.92091 0.19293 0.0
H425 H 0.41892 0.88453 0.75944 0.0
H426 H 0.42045 0.78853 0.30259 0.0
H427 H 0.5137 0.90617 0.24137 0.0
H428 H 0.44565 0.88719 0.53345 0.0
H429 H 0.39556 0.85939 0.33234 0.0
O430 O 0.3938 0.07495 0.38334 0.0
H431 H 0.53085 0.06856 0.22704 0.0
H432 H 0.42901 0.13574 0.38263 0.0
H433 H 0.53928 0.83468 0.20387 0.0
H434 H 0.34325 0.98858 0.67729 0.0
H435 H 0.49362 0.77621 0.24548 0.0
H436 H 0.37073 0.93747 0.837 0.0
O437 O 0.46482 0.95509 0.12388 0.0
H438 H 0.39457 0.02496 0.8151 0.0
H439 H 0.40785 0.12753 0.16906 0.0
H440 H 0.38796 0.14953 0.95015 0.0
H441 H 0.38222 0.09859 0.76702 0.0
H442 H 0.41337 0.0036 0.03848 0.0
H443 H 0.46819 0.19943 0.35658 0.0
H444 H 0.53846 0.19749 0.27378 0.0
O445 O 0.48637 0.01864 0.17965 0.0
C446 C 0.48599 0.99088 0.48282 0.0
C447 C 0.5378 0.13244 0.24292 0.0
C448 C 0.48172 0.17016 0.33265 0.0
N449 N 0.47541 0.09696 0.29784 0.0
C450 C 0.51528 0.09635 0.25472 0.0
C451 C 0.4597 0.13344 0.34445 0.0
C452 C 0.52115 0.1694 0.28333 0.0
C453 C 0.3773 0.96384 0.51281 0.0
N454 N 0.40509 0.93504 0.46807 0.0
C455 C 0.3647 0.96519 0.64468 0.0
C456 C 0.38007 0.93668 0.73412 0.0
C457 C 0.4072 0.90688 0.68998 0.0
C458 C 0.42068 0.90745 0.55837 0.0
C459 C 0.44149 0.81406 0.29307 0.0
C460 C 0.49367 0.88027 0.25718 0.0
C461 C 0.42753 0.85434 0.30784 0.0
N462 N 0.4539 0.88689 0.29311 0.0
C463 C 0.50815 0.84032 0.23598 0.0
C464 C 0.48227 0.80713 0.25865 0.0
C465 C 0.48786 0.98708 0.10381 0.0
C466 C 0.39818 0.04767 0.89227 0.0
C467 C 0.40728 0.10473 0.09281 0.0
C468 C 0.39423 0.1174 0.96792 0.0
C469 C 0.3909 0.08887 0.86578 0.0
N470 N 0.41753 0.06455 0.11667 0.0
C471 C 0.41031 0.03593 0.01941 0.0
Co472 Co 0.80387 0.80733 0.53011 0.0
Co473 Co 0.69915 0.81739 0.51321 0.0
O474 O 0.75447 0.84064 0.52042 0.0
C475 C 0.82518 0.87497 0.33654 0.0
O476 O 0.79068 0.86828 0.27298 0.0
C477 C 0.68764 0.89871 0.66233 0.0
O478 O 0.72664 0.90864 0.65905 0.0
O479 O 0.7114 0.78282 0.6835 0.0
O480 O 0.77673 0.76591 0.6454 0.0
H481 H 0.59291 0.70554 0.49184 0.0
H482 H 0.80983 0.89654 0.58888 0.0
O483 O 0.83679 0.84965 0.42544 0.0
H484 H 0.81239 0.82844 0.02251 0.0
H485 H 0.95528 0.77246 0.59492 0.0
H486 H 0.81585 0.71893 0.53367 0.0
H487 H 0.82576 0.78782 0.81598 0.0
H488 H 0.89536 0.82114 0.56222 0.0
O489 O 0.67534 0.86352 0.62337 0.0
H490 H 0.66288 0.73431 0.5185 0.0
H491 H 0.61607 0.8551 0.47796 0.0
H492 H 0.86958 0.67334 0.60829 0.0
H493 H 0.8013 0.93728 0.78969 0.0
H494 H 0.94174 0.69923 0.63029 0.0
H495 H 0.79868 0.90246 1.0075 0.0
O496 O 0.7852 0.77519 0.36297 0.0
H497 H 0.72874 0.93728 0.2127 0.0
H498 H 0.66027 0.80264 0.2489 0.0
H499 H 0.66579 0.83743 0.02782 0.0
H500 H 0.70206 0.90327 1.00971 0.0
H501 H 0.72245 0.90315 0.42558 0.0
H502 H 0.54585 0.82831 0.46202 0.0
H503 H 0.53371 0.7527 0.46168 0.0
O504 O 0.71703 0.77034 0.39654 0.0
C505 C 0.74497 0.76324 0.71564 0.0
C506 C 0.59772 0.73832 0.49 0.0
C507 C 0.57133 0.80715 0.46947 0.0
N508 N 0.64359 0.79596 0.50213 0.0
C509 C 0.63718 0.7546 0.50587 0.0
C510 C 0.61123 0.82224 0.48336 0.0
C511 C 0.56456 0.76484 0.47181 0.0
C512 C 0.81287 0.88101 0.68267 0.0
N513 N 0.81765 0.83911 0.68902 0.0
C514 C 0.8066 0.90445 0.79679 0.0
C515 C 0.80514 0.88496 0.91891 0.0
C516 C 0.81276 0.84294 0.92646 0.0
C517 C 0.82036 0.82049 0.81004 0.0
C518 C 0.92407 0.76156 0.5871 0.0
C519 C 0.84595 0.73151 0.55114 0.0
C520 C 0.89082 0.78835 0.56351 0.0
N521 N 0.8523 0.77291 0.54517 0.0
C522 C 0.87707 0.70494 0.58948 0.0
C523 C 0.91679 0.7198 0.60456 0.0
C524 C 0.74908 0.76067 0.33173 0.0
C525 C 0.71315 0.9079 0.21931 0.0
C526 C 0.67454 0.83243 0.24111 0.0
C527 C 0.67808 0.85141 0.11655 0.0
C528 C 0.69848 0.88876 0.10558 0.0
N529 N 0.69087 0.8503 0.35187 0.0
C530 C 0.70845 0.88851 0.34185 0.0
Co531 Co 0.43229 0.4462 0.76739 0.0
Co532 Co 0.42295 0.55112 0.78418 0.0
O533 O 0.39923 0.49587 0.77899 0.0
C534 C 0.35772 0.41984 0.93195 0.0
O535 O 0.34704 0.45817 0.94891 0.0
C536 C 0.34163 0.56524 0.63262 0.0
O537 O 0.33069 0.52651 0.63195 0.0
O538 O 0.45563 0.53908 0.61122 0.0
O539 O 0.47284 0.47387 0.65034 0.0
H540 H 0.53159 0.66093 0.75615 0.0
H541 H 0.34267 0.44579 0.70124 0.0
O542 O 0.3919 0.41146 0.87656 0.0
H543 H 0.41288 0.43668 0.27426 0.0
H544 H 0.46488 0.29399 0.74677 0.0
H545 H 0.52103 0.43305 0.74624 0.0
H546 H 0.45155 0.42151 0.48466 0.0
H547 H 0.41772 0.35317 0.76181 0.0
O548 O 0.37657 0.57619 0.67705 0.0
H549 H 0.50558 0.58893 0.74811 0.0
H550 H 0.38542 0.63206 0.83533 0.0
H551 H 0.5649 0.37644 0.68597 0.0
H552 H 0.30396 0.45614 0.49758 0.0
H553 H 0.53783 0.30452 0.69308 0.0
H554 H 0.34003 0.45466 0.28186 0.0
O555 O 0.46552 0.46493 0.93302 0.0
H556 H 0.30075 0.52491 0.07366 0.0
H557 H 0.44023 0.58421 0.06016 0.0
H558 H 0.40215 0.57789 0.27695 0.0
H559 H 0.33466 0.54603 0.28314 0.0
H560 H 0.33652 0.53324 0.86521 0.0
H561 H 0.40937 0.70316 0.82894 0.0
H562 H 0.4836 0.71791 0.8001 0.0
O563 O 0.47127 0.53302 0.89628 0.0
C564 C 0.47462 0.50541 0.57822 0.0
C565 C 0.49965 0.65433 0.7733 0.0
C566 C 0.43125 0.67841 0.8191 0.0
N567 N 0.44433 0.60635 0.79308 0.0
C568 C 0.48486 0.614 0.7698 0.0
C569 C 0.41768 0.63793 0.81836 0.0
C570 C 0.47267 0.68659 0.79898 0.0
C571 C 0.35867 0.44133 0.60983 0.0
N572 N 0.40008 0.43314 0.60775 0.0
C573 C 0.33644 0.4488 0.49343 0.0
C574 C 0.35662 0.44817 0.37277 0.0
C575 C 0.39806 0.43785 0.36943 0.0
C576 C 0.41921 0.42894 0.48806 0.0
C577 C 0.47651 0.32461 0.73915 0.0
C578 C 0.50761 0.40296 0.73826 0.0
C579 C 0.45036 0.35849 0.75207 0.0
N580 N 0.46625 0.3974 0.75187 0.0
C581 C 0.53339 0.37026 0.70952 0.0
C582 C 0.51794 0.33053 0.71189 0.0
C583 C 0.4809 0.50096 0.96191 0.0
C584 C 0.33121 0.5384 0.07215 0.0
C585 C 0.40938 0.57201 0.06261 0.0
C586 C 0.38888 0.56794 0.18467 0.0
C587 C 0.35023 0.54998 0.1893 0.0
N588 N 0.39109 0.55904 0.94774 0.0
C589 C 0.35168 0.54421 0.95232 0.0
Co590 Co 0.69286 0.1908 1.01016 0.0
Co591 Co 0.79722 0.18352 0.99825 0.0
O592 O 0.74332 0.15874 1.00676 0.0
C593 C 0.6703 0.11313 0.8562 0.0
O594 O 0.70579 0.11382 0.79632 0.0
C595 C 0.81031 0.10136 0.14296 0.0
O596 O 0.77141 0.09155 0.13378 0.0
O597 O 0.78208 0.21754 0.16478 0.0
O598 O 0.71963 0.23949 0.10052 0.0
H599 H 0.89848 0.29932 0.04046 0.0
H600 H 0.69708 0.1069 0.12296 0.0
O601 O 0.66047 0.14274 0.93154 0.0
H602 H 0.67913 0.19949 0.5029 0.0
H603 H 0.54108 0.19441 0.04298 0.0
H604 H 0.66311 0.27412 0.91757 0.0
H605 H 0.66459 0.22389 0.27456 0.0
H606 H 0.61043 0.1689 0.09376 0.0
O607 O 0.82279 0.13725 0.1093 0.0
H608 H 0.82862 0.26735 0.02654 0.0
H609 H 0.88223 0.15066 0.95939 0.0
H610 H 0.59192 0.29806 0.85606 0.0
H611 H 0.71227 0.08169 0.34834 0.0
H612 H 0.53186 0.25882 0.92015 0.0
H613 H 0.7047 0.12898 0.53969 0.0
O614 O 0.71016 0.21552 0.82973 0.0
H615 H 0.77285 0.06488 0.68784 0.0
H616 H 0.83863 0.20049 0.73797 0.0
H617 H 0.83804 0.16512 0.51729 0.0
H618 H 0.80258 0.09927 0.4911 0.0
H619 H 0.77695 0.09792 0.90316 0.0
H620 H 0.95152 0.18075 0.97271 0.0
H621 H 0.95982 0.25574 1.01142 0.0
O622 O 0.77646 0.22943 0.88051 0.0
C623 C 0.74957 0.24025 0.18292 0.0
C624 C 0.89482 0.26678 0.02147 0.0
C625 C 0.92484 0.20032 0.98102 0.0
N626 N 0.85156 0.20769 0.99315 0.0
C627 C 0.85577 0.24882 1.01393 0.0
C628 C 0.88546 0.18339 0.97581 0.0
C629 C 0.92949 0.24224 1.005 0.0
C630 C 0.6931 0.12746 0.20587 0.0
N631 N 0.68236 0.16759 0.18498 0.0
C632 C 0.70205 0.11307 0.33326 0.0
C633 C 0.69764 0.13951 0.44057 0.0
C634 C 0.68292 0.1792 0.41971 0.0
C635 C 0.67447 0.19259 0.29065 0.0
C636 C 0.56746 0.21228 0.01762 0.0
C637 C 0.6363 0.2571 0.94856 0.0
C638 C 0.60688 0.19848 0.04804 0.0
N639 N 0.64083 0.22001 1.00952 0.0
C640 C 0.5968 0.27117 0.91433 0.0
C641 C 0.56236 0.24844 0.94804 0.0
C642 C 0.74551 0.23269 0.80255 0.0
C643 C 0.78805 0.09438 0.69794 0.0
C644 C 0.82539 0.17019 0.72838 0.0
C645 C 0.8244 0.15112 0.60335 0.0
C646 C 0.80449 0.11368 0.58774 0.0
N647 N 0.80794 0.15168 0.83613 0.0
C648 C 0.79128 0.11325 0.82192 0.0
Co649 Co 0.05986 0.54922 0.26717 0.0
Co650 Co 0.06745 0.44517 0.28729 0.0
O651 O 0.09195 0.49913 0.27716 0.0
C652 C 0.13637 0.57565 0.42312 0.0
O653 O 0.13878 0.53949 0.47888 0.0
C654 C 0.15005 0.43004 0.1478 0.0
O655 O 0.16143 0.46863 0.15437 0.0
O656 O 0.03385 0.45895 0.11779 0.0
O657 O 0.01178 0.52157 0.17801 0.0
H658 H 0.95934 0.33628 0.21644 0.0
H659 H 0.14479 0.54478 0.16321 0.0
O660 O 0.10638 0.58358 0.34666 0.0
H661 H 0.0554 0.55717 0.77112 0.0
H662 H 0.05868 0.69914 0.20902 0.0
H663 H 0.97986 0.5816 0.37355 0.0
H664 H 0.02862 0.573 0.99528 0.0
H665 H 0.07986 0.63028 0.15533 0.0
O666 O 0.11369 0.41922 0.18002 0.0
H667 H 0.98528 0.40882 0.23689 0.0
H668 H 0.10289 0.36339 0.34412 0.0
H669 H 0.96104 0.65365 0.44024 0.0
H670 H 0.17308 0.53043 0.94181 0.0
H671 H -0.00069 0.71203 0.35467 0.0
H672 H 0.12755 0.53499 0.74435 0.0
O673 O 0.03415 0.53266 0.4477 0.0
H674 H 0.18526 0.47232 0.60046 0.0
H675 H 0.04978 0.40614 0.551 0.0
H676 H 0.08468 0.40821 0.77292 0.0
H677 H 0.1504 0.44399 0.79847 0.0
H678 H 0.15264 0.46675 0.38431 0.0
H679 H 0.07831 0.29247 0.32631 0.0
H680 H 0.00529 0.27902 0.27166 0.0
O681 O 0.02068 0.46592 0.40051 0.0
C682 C 0.01109 0.49133 0.09754 0.0
C683 C 0.99035 0.34279 0.24872 0.0
C684 C 0.05706 0.31764 0.31277 0.0
N685 N 0.04491 0.39021 0.29455 0.0
C686 C 0.00507 0.38315 0.25945 0.0
C687 C 0.07087 0.35802 0.32058 0.0
C688 C 0.01634 0.31011 0.27872 0.0
C689 C 0.12503 0.548 0.07762 0.0
N690 N 0.0844 0.55779 0.09292 0.0
C691 C 0.14117 0.53933 0.95247 0.0
C692 C 0.11565 0.54185 0.84179 0.0
C693 C 0.07503 0.55452 0.857 0.0
C694 C 0.06018 0.56364 0.98366 0.0
C695 C 0.04023 0.67413 0.24145 0.0
C696 C 0.99637 0.60755 0.33384 0.0
C697 C 0.05162 0.63425 0.20954 0.0
N698 N 0.03078 0.60125 0.25997 0.0
C699 C 0.98503 0.64768 0.37047 0.0
C700 C 0.00732 0.68103 0.32472 0.0
C701 C 0.01692 0.49731 0.47615 0.0
C702 C 0.15573 0.45715 0.59064 0.0
C703 C 0.08 0.41957 0.56076 0.0
C704 C 0.09877 0.42145 0.68635 0.0
C705 C 0.13616 0.44149 0.70155 0.0
N706 N 0.09881 0.43612 0.45209 0.0
C707 C 0.13712 0.45309 0.46634 0.0
Co708 Co 0.19311 0.17742 0.50778 0.0
Co709 Co 0.29772 0.18383 0.52605 0.0
O710 O 0.24735 0.15188 0.51667 0.0
C711 C 0.17808 0.09546 0.64831 0.0
O712 O 0.21686 0.08458 0.64509 0.0
C713 C 0.32352 0.10142 0.39683 0.0
O714 O 0.28588 0.08732 0.39962 0.0
O715 O 0.28046 0.21164 0.35099 0.0
O716 O 0.21393 0.22501 0.39782 0.0
H717 H 0.38706 0.31123 0.56308 0.0
H718 H 0.21185 0.09241 0.40999 0.0
O719 O 0.16677 0.13112 0.61096 0.0
H720 H 0.15565 0.16275 0.0208 0.0
H721 H 0.03961 0.17153 0.46068 0.0
H722 H 0.15868 0.25889 0.56887 0.0
H723 H 0.15373 0.19685 0.24384 0.0
H724 H 0.11001 0.1445 0.44448 0.0
O725 O 0.33094 0.13872 0.4302 0.0
H726 H 0.32041 0.2741 0.52717 0.0
H727 H 0.3845 0.16144 0.57115 0.0
H728 H 0.08712 0.28669 0.5935 0.0
H729 H 0.22063 0.06182 0.19119 0.0
H730 H 0.02847 0.24401 0.52865 0.0
H731 H 0.19255 0.09759 0.99342 0.0
O732 O 0.2069 0.20905 0.68024 0.0
H733 H 0.28378 0.07034 0.85967 0.0
H734 H 0.32583 0.21411 0.79003 0.0
H735 H 0.31303 0.18904 0.01726 0.0
H736 H 0.29119 0.11704 0.05317 0.0
H737 H 0.29375 0.0973 0.63612 0.0
H738 H 0.45098 0.19953 0.57238 0.0
H739 H 0.45165 0.27348 0.5432 0.0
O740 O 0.26993 0.22976 0.62353 0.0
C741 C 0.24527 0.22893 0.32274 0.0
C742 C 0.38591 0.27859 0.54894 0.0
C743 C 0.42213 0.21519 0.56027 0.0
N744 N 0.34863 0.21507 0.53682 0.0
C745 C 0.34879 0.2571 0.53557 0.0
C746 C 0.38467 0.19427 0.55687 0.0
C747 C 0.42268 0.25736 0.54827 0.0
C748 C 0.20053 0.10909 0.32634 0.0
N749 N 0.18374 0.14738 0.34127 0.0
C750 C 0.20556 0.09137 0.20141 0.0
C751 C 0.18988 0.11139 0.09074 0.0
C752 C 0.16929 0.14848 0.10688 0.0
C753 C 0.16733 0.16675 0.23301 0.0
C754 C 0.06549 0.19149 0.4795 0.0
C755 C 0.13245 0.24029 0.54325 0.0
C756 C 0.1055 0.17635 0.4717 0.0
N757 N 0.13843 0.20091 0.50198 0.0
C758 C 0.0926 0.25603 0.55635 0.0
C759 C 0.05917 0.23181 0.52048 0.0
C760 C 0.23984 0.23048 0.70313 0.0
C761 C 0.2928 0.1021 0.84549 0.0
C762 C 0.31695 0.18256 0.80474 0.0
C763 C 0.30931 0.16871 0.93361 0.0
C764 C 0.29684 0.12826 0.95385 0.0
N765 N 0.30924 0.15794 0.69772 0.0
C766 C 0.29929 0.11753 0.7179 0.0
Co767 Co 0.55459 0.55866 0.28738 0.0
Co768 Co 0.55976 0.45415 0.26936 0.0
O769 O 0.58507 0.5074 0.29805 0.0
C770 C 0.64131 0.58335 0.24351 0.0
O771 O 0.65099 0.55844 0.34106 0.0
C772 C 0.63744 0.43282 0.43541 0.0
O773 O 0.64683 0.47152 0.45773 0.0
O774 O 0.52225 0.46708 0.43127 0.0
O775 O 0.50689 0.53389 0.38737 0.0
H776 H 0.44369 0.3552 0.19946 0.0
H777 H 0.57792 0.51094 0.53101 0.0
O778 O 0.60434 0.58409 0.19761 0.0
H779 H 0.59681 0.65464 0.66451 0.0
H780 H 0.53783 0.71348 0.23273 0.0
H781 H 0.46684 0.58211 0.292 0.0
H782 H 0.58716 0.63747 0.43301 0.0
H783 H 0.57623 0.64931 0.22289 0.0
O784 O 0.60343 0.42361 0.37898 0.0
H785 H 0.47598 0.42105 0.26792 0.0
H786 H 0.59409 0.37244 0.19718 0.0
H787 H 0.42629 0.64561 0.27213 0.0
H788 H 0.58991 0.52708 0.76262 0.0
H789 H 0.46196 0.71214 0.24986 0.0
H790 H 0.59758 0.59921 0.83373 0.0
O791 O 0.52869 0.54107 0.10689 0.0
H792 H 0.69005 0.47994 1.01645 0.0
H793 H 0.54684 0.43091 0.98188 0.0
H794 H 0.58738 0.44447 0.77782 0.0
H795 H 0.65881 0.46854 0.7948 0.0
H796 H 0.64855 0.47063 0.2141 0.0
H797 H 0.56438 0.30667 0.1316 0.0
H798 H 0.48831 0.29698 0.1305 0.0
O799 O 0.51468 0.47585 0.15397 0.0
C800 C 0.50234 0.50142 0.45722 0.0
C801 C 0.47668 0.35838 0.20156 0.0
C802 C 0.54426 0.33119 0.16141 0.0
N803 N 0.53621 0.40038 0.2384 0.0
C804 C 0.49473 0.39546 0.24073 0.0
C805 C 0.56108 0.3686 0.20098 0.0
C806 C 0.50173 0.32593 0.16165 0.0
C807 C 0.58102 0.5428 0.55715 0.0
N808 N 0.57674 0.5735 0.46444 0.0
C809 C 0.58834 0.55155 0.69044 0.0
C810 C 0.5927 0.59207 0.73026 0.0
C811 C 0.59195 0.623 0.63538 0.0
C812 C 0.58495 0.61308 0.50259 0.0
C813 C 0.52184 0.68453 0.24079 0.0
C814 C 0.48268 0.61054 0.27933 0.0
C815 C 0.54361 0.64751 0.24004 0.0
N816 N 0.52453 0.61105 0.27046 0.0
C817 C 0.45945 0.64649 0.26671 0.0
C818 C 0.47939 0.68387 0.25163 0.0
C819 C 0.51027 0.50668 0.07937 0.0
C820 C 0.6587 0.46895 1.00772 0.0
C821 C 0.57822 0.44151 0.99043 0.0
C822 C 0.60068 0.44929 0.87465 0.0
C823 C 0.64115 0.46286 0.88369 0.0
N824 N 0.59504 0.4491 0.11252 0.0
C825 C 0.63505 0.46233 0.12086 0.0
Co826 Co 0.3009 0.81937 1.00212 0.0
Co827 Co 0.19675 0.81321 1.01321 0.0
O828 O 0.24696 0.84479 1.00942 0.0
C829 C 0.3146 0.90057 0.14972 0.0
O830 O 0.27585 0.91138 0.14433 0.0
C831 C 0.17152 0.8954 0.88197 0.0
O832 O 0.20864 0.91074 0.88918 0.0
O833 O 0.21421 0.78539 0.84014 0.0
O834 O 0.28057 0.77188 0.88907 0.0
H835 H 0.10478 0.68803 1.00813 0.0
H836 H 0.28306 0.9051 0.90808 0.0
O837 O 0.32641 0.86544 0.1089 0.0
H838 H 0.3369 0.83482 0.51615 0.0
H839 H 0.45395 0.8274 0.95422 0.0
H840 H 0.33674 0.73819 0.06583 0.0
H841 H 0.33937 0.80043 0.73843 0.0
H842 H 0.38315 0.85346 0.94201 0.0
O843 O 0.16485 0.85801 0.9137 0.0
H844 H 0.1728 0.72367 0.99664 0.0
H845 H 0.11064 0.83743 0.04954 0.0
H846 H 0.40863 0.71167 0.08825 0.0
H847 H 0.27424 0.93649 0.69012 0.0
H848 H 0.4666 0.75491 0.01989 0.0
H849 H 0.30103 0.90076 0.49103 0.0
O850 O 0.28682 0.78714 0.17273 0.0
H851 H 0.2077 0.92669 0.34953 0.0
H852 H 0.16712 0.78289 0.2725 0.0
H853 H 0.17653 0.80788 0.50201 0.0
H854 H 0.19812 0.87992 0.54155 0.0
H855 H 0.1997 0.89993 0.1244 0.0
H856 H 0.04482 0.80231 0.03161 0.0
H857 H 0.04114 0.72826 1.00336 0.0
O858 O 0.22341 0.76697 0.11477 0.0
C859 C 0.24906 0.76766 0.81381 0.0
C860 C 0.10685 0.72081 1.00344 0.0
C861 C 0.07244 0.78534 0.02086 0.0
N862 N 0.14578 0.78301 1.01604 0.0
C863 C 0.14469 0.74121 1.00396 0.0
C864 C 0.11017 0.80477 0.03038 0.0
C865 C 0.07066 0.74335 1.00484 0.0
C866 C 0.29405 0.88859 0.82378 0.0
N867 N 0.31036 0.85002 0.83729 0.0
C868 C 0.28892 0.90671 0.69938 0.0
C869 C 0.30389 0.88672 0.58795 0.0
C870 C 0.32393 0.84924 0.60276 0.0
C871 C 0.32615 0.83072 0.72839 0.0
C872 C 0.42848 0.80703 0.97383 0.0
C873 C 0.36251 0.75728 0.03953 0.0
C874 C 0.38823 0.82161 0.9679 0.0
N875 N 0.35579 0.79649 0.99794 0.0
C876 C 0.40265 0.74222 0.05155 0.0
C877 C 0.43559 0.76673 1.01353 0.0
C878 C 0.25372 0.76593 0.19492 0.0
C879 C 0.19886 0.89493 0.33386 0.0
C880 C 0.17533 0.81448 0.28916 0.0
C881 C 0.18119 0.82832 0.41917 0.0
C882 C 0.19354 0.86874 0.44143 0.0
N883 N 0.18401 0.83919 0.18355 0.0
C884 C 0.19358 0.87961 0.20532 0.0
Co885 Co 0.93387 0.44458 0.78416 0.0
Co886 Co 0.93995 0.54812 0.77052 0.0
O887 O 0.90862 0.49823 0.76886 0.0
C888 C 0.84726 0.42742 0.6866 0.0
O889 O 0.83434 0.46226 0.73628 0.0
C890 C 0.85267 0.57628 0.80731 0.0
O891 O 0.84324 0.54928 0.71543 0.0
O892 O 0.96415 0.52993 0.95095 0.0
O893 O 0.98091 0.46502 0.89766 0.0
H894 H 0.0407 0.65255 0.59634 0.0
H895 H 0.86341 0.4876 0.93274 0.0
O896 O 0.88596 0.41975 0.67843 0.0
H897 H 0.91471 0.38543 0.24781 0.0
H898 H 0.9325 0.2893 0.77826 0.0
H899 H 0.01746 0.41426 0.76245 0.0
H900 H 0.94442 0.38798 0.02416 0.0
H901 H 0.90121 0.35768 0.80559 0.0
O902 O 0.88995 0.57795 0.8529 0.0
H903 H 0.00058 0.58861 0.59235 0.0
H904 H 0.94954 0.61575 0.96767 0.0
H905 H 0.05065 0.34567 0.73482 0.0
H906 H 0.83759 0.48694 0.1536 0.0
H907 H 0.00801 0.2833 0.74346 0.0
H908 H 0.8643 0.43668 0.3171 0.0
O909 O 0.96732 0.45894 0.61542 0.0
H910 H 0.89293 0.51562 0.30472 0.0
H911 H 0.91493 0.62545 0.63183 0.0
H912 H 0.89125 0.64305 0.40376 0.0
H913 H 0.88316 0.58796 0.23728 0.0
H914 H 0.91106 0.49909 0.53184 0.0
H915 H 0.98993 0.68054 0.97556 0.0
H916 H 0.0344 0.69975 0.78682 0.0
O917 O 0.98835 0.52154 0.6799 0.0
C918 C 0.98307 0.49551 0.97696 0.0
C919 C 0.02052 0.64498 0.67779 0.0
C920 C 0.99166 0.66067 0.89057 0.0
N921 N 0.97185 0.59878 0.77768 0.0
C922 C -0.0023 0.60868 0.67604 0.0
C923 C 0.96897 0.62409 0.88519 0.0
C924 C 0.01705 0.67137 0.78524 0.0
C925 C 0.8749 0.46346 0.99473 0.0
N926 N 0.90424 0.43557 0.95396 0.0
C927 C 0.86018 0.46421 0.12418 0.0
C928 C 0.87517 0.43624 0.21578 0.0
C929 C 0.90378 0.40733 0.17585 0.0
C930 C 0.91901 0.40807 0.04598 0.0
C931 C 0.95164 0.31646 0.77697 0.0
C932 C -0.00067 0.3867 0.76808 0.0
C933 C 0.93404 0.3554 0.79054 0.0
N934 N 0.95804 0.38999 0.78628 0.0
C935 C 0.01791 0.34829 0.75152 0.0
C936 C 0.99382 0.31303 0.7562 0.0
C937 C 0.98949 0.49192 0.5972 0.0
C938 C 0.89736 0.53997 0.37554 0.0
C939 C 0.9097 0.60141 0.56047 0.0
C940 C 0.8962 0.61139 0.43232 0.0
C941 C 0.89167 0.58056 0.33816 0.0
N942 N 0.91774 0.56167 0.59451 0.0
C943 C 0.9091 0.53099 0.50518 0.0
loop_
_geom_bond_atom_site_label_1
_geom_bond_atom_site_label_2
_geom_bond_distance
_geom_bond_site_symmetry_2
_ccdc_geom_bond_type
Co0 O2 2.143 . S
Co0 O8 2.074 . S
Co0 O11 2.093 1_554 S
Co0 O24 2.097 1_554 S
Co0 N41 2.151 . S
Co0 N49 2.214 . S
Co1 O2 2.160 1_556 S
Co1 O7 2.058 1_556 S
Co1 O17 2.057 1_556 S
Co1 O32 2.037 . S
Co1 N36 2.145 . S
Co1 N57 2.257 . S
O2 Co0 2.143 . S
O2 Co1 2.160 1_554 S
C3 O4 1.278 . S
C3 O11 1.224 . S
O4 C3 1.278 . S
C5 O6 1.245 . S
C5 O17 1.232 . S
O6 C5 1.245 . S
O7 Co1 2.058 1_554 S
O7 C33 1.269 . S
O8 Co0 2.074 . S
O8 C33 1.257 . S
H9 C34 0.930 . S
H10 C40 0.930 . S
O11 Co0 2.093 1_556 S
O11 C3 1.224 . S
H12 C44 0.929 . S
H13 C46 0.930 . S
H14 C47 0.930 1_556 S
H15 C45 0.929 . S
H16 C48 0.928 . S
O17 Co1 2.057 1_554 S
O17 C5 1.232 . S
H18 C37 0.929 . S
H19 C38 0.929 1_554 S
H20 C50 0.931 1_556 S
H21 C42 0.929 . S
H22 C51 0.930 . S
H23 C43 0.931 . S
O24 Co0 2.097 1_556 S
O24 C52 1.214 . S
H25 C53 0.929 . S
H26 C54 0.929 . S
H27 C55 0.930 . S
H28 C56 0.929 . S
H29 C58 0.930 . S
H30 C35 0.930 . S
H31 C39 0.930 . S
O32 Co1 2.037 . S
O32 C52 1.234 . S
C33 O7 1.269 . S
C33 O8 1.257 . S
C34 H9 0.930 . S
C34 C37 1.388 . S
C34 C39 1.418 . S
C35 H30 0.930 . S
C35 C38 1.404 . S
C35 C39 1.353 . S
N36 Co1 2.145 . S
N36 C37 1.397 . S
N36 C38 1.334 . S
C37 H18 0.929 . S
C37 C34 1.388 . S
C37 N36 1.397 . S
C38 H19 0.929 1_556 S
C38 C35 1.404 . S
C38 N36 1.334 . S
C39 H31 0.930 . S
C39 C34 1.418 . S
C39 C35 1.353 . S
C40 H10 0.930 . S
C40 N41 1.330 . S
C40 C42 1.446 . S
N41 Co0 2.151 . S
N41 C40 1.330 . S
N41 C45 1.418 . S
C42 H21 0.929 . S
C42 C40 1.446 . S
C42 C43 1.332 . S
C43 H23 0.931 . S
C43 C42 1.332 . S
C43 C44 1.267 . S
C44 H12 0.929 . S
C44 C43 1.267 . S
C44 C45 1.251 . S
C45 H15 0.929 . S
C45 N41 1.418 . S
C45 C44 1.251 . S
C46 H13 0.930 . S
C46 C48 1.406 . S
C46 C51 1.261 . S
C47 H14 0.930 1_554 S
C47 N49 1.325 . S
C47 C50 1.357 . S
C48 H16 0.928 . S
C48 C46 1.406 . S
C48 N49 1.261 . S
N49 Co0 2.214 . S
N49 C47 1.325 . S
N49 C48 1.261 . S
C50 H20 0.931 1_554 S
C50 C47 1.357 . S
C50 C51 1.312 . S
C51 H22 0.930 . S
C51 C46 1.261 . S
C51 C50 1.312 . S
C52 O24 1.214 . S
C52 O32 1.234 . S
C53 H25 0.929 . S
C53 C56 1.391 . S
C53 C58 1.391 . S
C54 H26 0.929 . S
C54 C55 1.390 . S
C54 N57 1.391 . S
C55 H27 0.930 . S
C55 C54 1.390 . S
C55 C56 1.392 . S
C56 H28 0.929 . S
C56 C53 1.391 . S
C56 C55 1.392 . S
N57 Co1 2.257 . S
N57 C54 1.391 . S
N57 C58 1.388 . S
C58 H29 0.930 . S
C58 C53 1.391 . S
C58 N57 1.388 . S
Co59 O61 2.162 . S
Co59 O67 2.074 . S
Co59 O70 2.093 . S
Co59 O83 2.097 . S
Co59 N100 2.151 . S
Co59 N108 2.214 . S
Co60 O61 2.140 1_545 S
Co60 O66 2.058 . S
Co60 O76 2.057 . S
Co60 O91 2.037 . S
Co60 N95 2.145 . S
Co60 N116 2.257 . S
O61 Co59 2.162 . S
O61 Co60 2.140 1_565 S
C62 O63 1.278 . S
C62 O70 1.224 . S
O63 C62 1.278 . S
C64 O65 1.245 . S
C64 O76 1.232 . S
O65 C64 1.245 . S
O66 Co60 2.058 . S
O66 C92 1.269 . S
O67 Co59 2.074 . S
O67 C92 1.257 1_565 S
H68 C93 0.930 . S
H69 C99 0.930 . S
O70 Co59 2.093 . S
O70 C62 1.224 . S
H71 C103 0.929 . S
H72 C105 0.930 . S
H73 C106 0.930 . S
H74 C104 0.929 . S
H75 C107 0.928 . S
O76 Co60 2.057 . S
O76 C64 1.232 . S
H77 C96 0.929 . S
H78 C97 0.929 . S
H79 C109 0.931 . S
H80 C101 0.929 . S
H81 C110 0.930 . S
H82 C102 0.931 . S
O83 Co59 2.097 . S
O83 C111 1.214 . S
H84 C112 0.929 . S
H85 C113 0.929 . S
H86 C114 0.930 . S
H87 C115 0.929 . S
H88 C117 0.930 . S
H89 C94 0.930 . S
H90 C98 0.930 . S
O91 Co60 2.037 . S
O91 C111 1.234 1_545 S
C92 O66 1.269 . S
C92 O67 1.257 1_545 S
C93 H68 0.930 . S
C93 C96 1.388 . S
C93 C98 1.418 . S
C94 H89 0.930 . S
C94 C97 1.404 . S
C94 C98 1.353 1_655 S
N95 Co60 2.145 . S
N95 C96 1.397 1_655 S
N95 C97 1.334 . S
C96 H77 0.929 . S
C96 C93 1.388 . S
C96 N95 1.397 1_455 S
C97 H78 0.929 . S
C97 C94 1.404 . S
C97 N95 1.334 . S
C98 H90 0.930 . S
C98 C93 1.418 . S
C98 C94 1.353 1_455 S
C99 H69 0.930 . S
C99 N100 1.330 . S
C99 C101 1.446 1_554 S
N100 Co59 2.151 . S
N100 C99 1.330 . S
N100 C104 1.418 1_554 S
C101 H80 0.929 . S
C101 C99 1.446 1_556 S
C101 C102 1.332 . S
C102 H82 0.931 . S
C102 C101 1.332 . S
C102 C103 1.267 . S
C103 H71 0.929 . S
C103 C102 1.267 . S
C103 C104 1.251 . S
C104 H74 0.929 . S
C104 N100 1.418 1_556 S
C104 C103 1.251 . S
C105 H72 0.930 . S
C105 C107 1.406 . S
C105 C110 1.261 1_655 S
C106 H73 0.930 . S
C106 N108 1.325 1_455 S
C106 C109 1.357 . S
C107 H75 0.928 . S
C107 C105 1.406 . S
C107 N108 1.261 . S
N108 Co59 2.214 . S
N108 C106 1.325 1_655 S
N108 C107 1.261 . S
C109 H79 0.931 . S
C109 C106 1.357 . S
C109 C110 1.312 . S
C110 H81 0.930 . S
C110 C105 1.261 1_455 S
C110 C109 1.312 . S
C111 O83 1.214 . S
C111 O91 1.234 1_565 S
C112 H84 0.929 . S
C112 C115 1.391 . S
C112 C117 1.391 . S
C113 H85 0.929 . S
C113 C114 1.390 . S
C113 N116 1.391 . S
C114 H86 0.930 . S
C114 C113 1.390 . S
C114 C115 1.392 . S
C115 H87 0.929 . S
C115 C112 1.391 . S
C115 C114 1.392 . S
N116 Co60 2.257 . S
N116 C113 1.391 . S
N116 C117 1.388 . S
C117 H88 0.930 . S
C117 C112 1.391 . S
C117 N116 1.388 . S
Co118 O120 2.143 . S
Co118 O126 2.074 . S
Co118 O129 2.093 . S
Co118 O142 2.097 . S
Co118 N159 2.151 . S
Co118 N167 2.214 . S
Co119 O120 2.160 . S
Co119 O125 2.058 . S
Co119 O135 2.057 . S
Co119 O150 2.037 . S
Co119 N154 2.145 . S
Co119 N175 2.257 . S
O120 Co118 2.143 . S
O120 Co119 2.160 . S
C121 O122 1.278 . S
C121 O129 1.224 . S
O122 C121 1.278 . S
C123 O124 1.245 . S
C123 O135 1.232 . S
O124 C123 1.245 . S
O125 Co119 2.058 . S
O125 C151 1.269 . S
O126 Co118 2.074 . S
O126 C151 1.257 . S
H127 C152 0.930 . S
H128 C158 0.930 . S
O129 Co118 2.093 . S
O129 C121 1.224 . S
H130 C162 0.929 . S
H131 C164 0.930 . S
H132 C165 0.930 . S
H133 C163 0.929 . S
H134 C166 0.928 . S
O135 Co119 2.057 . S
O135 C123 1.232 . S
H136 C155 0.929 . S
H137 C156 0.929 . S
H138 C168 0.931 . S
H139 C160 0.929 . S
H140 C169 0.930 . S
H141 C161 0.931 . S
O142 Co118 2.097 . S
O142 C170 1.214 . S
H143 C171 0.929 . S
H144 C172 0.929 . S
H145 C173 0.930 . S
H146 C174 0.929 1_556 S
H147 C176 0.930 . S
H148 C153 0.930 . S
H149 C157 0.930 . S
O150 Co119 2.037 . S
O150 C170 1.234 . S
C151 O125 1.269 . S
C151 O126 1.257 . S
C152 H127 0.930 . S
C152 C155 1.388 . S
C152 C157 1.418 . S
C153 H148 0.930 . S
C153 C156 1.404 . S
C153 C157 1.353 . S
N154 Co119 2.145 . S
N154 C155 1.397 . S
N154 C156 1.334 . S
C155 H136 0.929 . S
C155 C152 1.388 . S
C155 N154 1.397 . S
C156 H137 0.929 . S
C156 C153 1.404 . S
C156 N154 1.334 . S
C157 H149 0.930 . S
C157 C152 1.418 . S
C157 C153 1.353 . S
C158 H128 0.930 . S
C158 N159 1.330 . S
C158 C160 1.446 . S
N159 Co118 2.151 . S
N159 C158 1.330 . S
N159 C163 1.418 . S
C160 H139 0.929 . S
C160 C158 1.446 . S
C160 C161 1.332 . S
C161 H141 0.931 . S
C161 C160 1.332 . S
C161 C162 1.267 . S
C162 H130 0.929 . S
C162 C161 1.267 . S
C162 C163 1.251 . S
C163 H133 0.929 . S
C163 N159 1.418 . S
C163 C162 1.251 . S
C164 H131 0.930 . S
C164 C166 1.406 . S
C164 C169 1.261 . S
C165 H132 0.930 . S
C165 N167 1.325 . S
C165 C168 1.357 . S
C166 H134 0.928 . S
C166 C164 1.406 . S
C166 N167 1.261 . S
N167 Co118 2.214 . S
N167 C165 1.325 . S
N167 C166 1.261 . S
C168 H138 0.931 . S
C168 C165 1.357 . S
C168 C169 1.312 . S
C169 H140 0.930 . S
C169 C164 1.261 . S
C169 C168 1.312 . S
C170 O142 1.214 . S
C170 O150 1.234 . S
C171 H143 0.929 . S
C171 C174 1.391 . S
C171 C176 1.391 . S
C172 H144 0.929 . S
C172 C173 1.390 . S
C172 N175 1.391 . S
C173 H145 0.930 . S
C173 C172 1.390 . S
C173 C174 1.392 . S
C174 H146 0.929 1_554 S
C174 C171 1.391 . S
C174 C173 1.392 . S
N175 Co119 2.257 . S
N175 C172 1.391 . S
N175 C176 1.388 . S
C176 H147 0.930 . S
C176 C171 1.391 . S
C176 N175 1.388 . S
Co177 O179 2.143 . S
Co177 O185 2.074 . S
Co177 O188 2.093 . S
Co177 O201 2.097 . S
Co177 N218 2.151 . S
Co177 N226 2.214 . S
Co178 O179 2.160 1_565 S
Co178 O184 2.058 . S
Co178 O194 2.057 . S
Co178 O209 2.037 . S
Co178 N213 2.145 . S
Co178 N234 2.257 . S
O179 Co177 2.143 . S
O179 Co178 2.160 1_545 S
C180 O181 1.278 . S
C180 O188 1.224 . S
O181 C180 1.278 . S
C182 O183 1.245 . S
C182 O194 1.232 . S
O183 C182 1.245 . S
O184 Co178 2.058 . S
O184 C210 1.269 . S
O185 Co177 2.074 . S
O185 C210 1.257 1_545 S
H186 C211 0.930 . S
H187 C217 0.930 . S
O188 Co177 2.093 . S
O188 C180 1.224 . S
H189 C221 0.929 . S
H190 C223 0.930 . S
H191 C224 0.930 . S
H192 C222 0.929 . S
H193 C225 0.928 . S
O194 Co178 2.057 . S
O194 C182 1.232 . S
H195 C214 0.929 . S
H196 C215 0.929 . S
H197 C227 0.931 . S
H198 C219 0.929 . S
H199 C228 0.930 . S
H200 C220 0.931 . S
O201 Co177 2.097 . S
O201 C229 1.214 . S
H202 C230 0.929 . S
H203 C231 0.929 . S
H204 C232 0.930 . S
H205 C233 0.929 . S
H206 C235 0.930 . S
H207 C212 0.930 . S
H208 C216 0.930 . S
O209 Co178 2.037 . S
O209 C229 1.234 1_565 S
C210 O184 1.269 . S
C210 O185 1.257 1_565 S
C211 H186 0.930 . S
C211 C214 1.388 . S
C211 C216 1.418 . S
C212 H207 0.930 . S
C212 C215 1.404 . S
C212 C216 1.353 . S
N213 Co178 2.145 . S
N213 C214 1.397 . S
N213 C215 1.334 . S
C214 H195 0.929 . S
C214 C211 1.388 . S
C214 N213 1.397 . S
C215 H196 0.929 . S
C215 C212 1.404 . S
C215 N213 1.334 . S
C216 H208 0.930 . S
C216 C211 1.418 . S
C216 C212 1.353 . S
C217 H187 0.930 . S
C217 N218 1.330 . S
C217 C219 1.446 . S
N218 Co177 2.151 . S
N218 C217 1.330 . S
N218 C222 1.418 . S
C219 H198 0.929 . S
C219 C217 1.446 . S
C219 C220 1.332 . S
C220 H200 0.931 . S
C220 C219 1.332 . S
C220 C221 1.267 . S
C221 H189 0.929 . S
C221 C220 1.267 . S
C221 C222 1.251 . S
C222 H192 0.929 . S
C222 N218 1.418 . S
C222 C221 1.251 . S
C223 H190 0.930 . S
C223 C225 1.406 . S
C223 C228 1.261 . S
C224 H191 0.930 . S
C224 N226 1.325 . S
C224 C227 1.357 . S
C225 H193 0.928 . S
C225 C223 1.406 . S
C225 N226 1.261 . S
N226 Co177 2.214 . S
N226 C224 1.325 . S
N226 C225 1.261 . S
C227 H197 0.931 . S
C227 C224 1.357 . S
C227 C228 1.312 . S
C228 H199 0.930 . S
C228 C223 1.261 . S
C228 C227 1.312 . S
C229 O201 1.214 . S
C229 O209 1.234 1_545 S
C230 H202 0.929 . S
C230 C233 1.391 . S
C230 C235 1.391 1_554 S
C231 H203 0.929 . S
C231 C232 1.390 . S
C231 N234 1.391 1_554 S
C232 H204 0.930 . S
C232 C231 1.390 . S
C232 C233 1.392 . S
C233 H205 0.929 . S
C233 C230 1.391 . S
C233 C232 1.392 . S
N234 Co178 2.257 . S
N234 C231 1.391 1_556 S
N234 C235 1.388 . S
C235 H206 0.930 . S
C235 C230 1.391 1_556 S
C235 N234 1.388 . S
Co236 O238 2.143 . S
Co236 O244 2.074 . S
Co236 O247 2.093 1_556 S
Co236 O260 2.097 1_556 S
Co236 N277 2.151 . S
Co236 N285 2.214 . S
Co237 O238 2.159 1_554 S
Co237 O243 2.058 1_554 S
Co237 O253 2.057 1_554 S
Co237 O268 2.037 . S
Co237 N272 2.145 . S
Co237 N293 2.257 . S
O238 Co236 2.143 . S
O238 Co237 2.159 1_556 S
C239 O240 1.278 . S
C239 O247 1.224 . S
O240 C239 1.278 . S
C241 O242 1.245 . S
C241 O253 1.232 . S
O242 C241 1.245 . S
O243 Co237 2.058 1_556 S
O243 C269 1.269 . S
O244 Co236 2.074 . S
O244 C269 1.257 . S
H245 C270 0.930 . S
H246 C276 0.930 . S
O247 Co236 2.093 1_554 S
O247 C239 1.224 . S
H248 C280 0.929 . S
H249 C282 0.930 . S
H250 C283 0.930 . S
H251 C281 0.929 . S
H252 C284 0.928 . S
O253 Co237 2.057 1_556 S
O253 C241 1.232 . S
H254 C273 0.929 . S
H255 C274 0.929 . S
H256 C286 0.931 . S
H257 C278 0.929 . S
H258 C287 0.930 . S
H259 C279 0.931 . S
O260 Co236 2.097 1_554 S
O260 C288 1.214 . S
H261 C289 0.929 . S
H262 C290 0.929 . S
H263 C291 0.930 . S
H264 C292 0.929 . S
H265 C294 0.930 . S
H266 C271 0.930 . S
H267 C275 0.930 . S
O268 Co237 2.037 . S
O268 C288 1.234 . S
C269 O243 1.269 . S
C269 O244 1.257 . S
C270 H245 0.930 . S
C270 C273 1.388 . S
C270 C275 1.418 . S
C271 H266 0.930 . S
C271 C274 1.404 . S
C271 C275 1.353 . S
N272 Co237 2.145 . S
N272 C273 1.397 . S
N272 C274 1.334 . S
C273 H254 0.929 . S
C273 C270 1.388 . S
C273 N272 1.397 . S
C274 H255 0.929 . S
C274 C271 1.404 . S
C274 N272 1.334 . S
C275 H267 0.930 . S
C275 C270 1.418 . S
C275 C271 1.353 . S
C276 H246 0.930 . S
C276 N277 1.330 . S
C276 C278 1.446 . S
N277 Co236 2.151 . S
N277 C276 1.330 . S
N277 C281 1.418 . S
C278 H257 0.929 . S
C278 C276 1.446 . S
C278 C279 1.332 . S
C279 H259 0.931 . S
C279 C278 1.332 . S
C279 C280 1.267 . S
C280 H248 0.929 . S
C280 C279 1.267 . S
C280 C281 1.251 . S
C281 H251 0.929 . S
C281 N277 1.418 . S
C281 C280 1.251 . S
C282 H249 0.930 . S
C282 C284 1.406 . S
C282 C287 1.261 . S
C283 H250 0.930 . S
C283 N285 1.325 1_554 S
C283 C286 1.357 . S
C284 H252 0.928 . S
C284 C282 1.406 . S
C284 N285 1.261 . S
N285 Co236 2.214 . S
N285 C283 1.325 1_556 S
N285 C284 1.261 . S
C286 H256 0.931 . S
C286 C283 1.357 . S
C286 C287 1.312 1_554 S
C287 H258 0.930 . S
C287 C282 1.261 . S
C287 C286 1.312 1_556 S
C288 O260 1.214 . S
C288 O268 1.234 . S
C289 H261 0.929 . S
C289 C292 1.391 . S
C289 C294 1.391 . S
C290 H262 0.929 . S
C290 C291 1.390 . S
C290 N293 1.391 . S
C291 H263 0.930 . S
C291 C290 1.390 . S
C291 C292 1.392 . S
C292 H264 0.929 . S
C292 C289 1.391 . S
C292 C291 1.392 . S
N293 Co237 2.257 . S
N293 C290 1.391 . S
N293 C294 1.388 . S
C294 H265 0.930 . S
C294 C289 1.391 . S
C294 N293 1.388 . S
Co295 O297 2.143 . S
Co295 O303 2.074 . S
Co295 O306 2.093 . S
Co295 O319 2.097 . S
Co295 N336 2.151 . S
Co295 N344 2.214 . S
Co296 O297 2.160 1_565 S
Co296 O302 2.058 . S
Co296 O312 2.057 . S
Co296 O327 2.037 . S
Co296 N331 2.145 . S
Co296 N352 2.257 . S
O297 Co295 2.143 . S
O297 Co296 2.160 1_545 S
C298 O299 1.278 . S
C298 O306 1.224 . S
O299 C298 1.278 . S
C300 O301 1.245 . S
C300 O312 1.232 . S
O301 C300 1.245 . S
O302 Co296 2.058 . S
O302 C328 1.269 . S
O303 Co295 2.074 . S
O303 C328 1.257 1_545 S
H304 C329 0.930 . S
H305 C335 0.930 . S
O306 Co295 2.093 . S
O306 C298 1.224 . S
H307 C339 0.929 . S
H308 C341 0.930 . S
H309 C342 0.930 . S
H310 C340 0.929 . S
H311 C343 0.928 . S
O312 Co296 2.057 . S
O312 C300 1.232 . S
H313 C332 0.929 . S
H314 C333 0.929 . S
H315 C345 0.931 . S
H316 C337 0.929 . S
H317 C346 0.930 . S
H318 C338 0.931 . S
O319 Co295 2.097 . S
O319 C347 1.214 . S
H320 C348 0.929 . S
H321 C349 0.929 . S
H322 C350 0.930 . S
H323 C351 0.929 . S
H324 C353 0.930 . S
H325 C330 0.930 . S
H326 C334 0.930 . S
O327 Co296 2.037 . S
O327 C347 1.234 1_565 S
C328 O302 1.269 . S
C328 O303 1.257 1_565 S
C329 H304 0.930 . S
C329 C332 1.388 . S
C329 C334 1.418 . S
C330 H325 0.930 . S
C330 C333 1.404 . S
C330 C334 1.353 1_455 S
N331 Co296 2.145 . S
N331 C332 1.397 1_455 S
N331 C333 1.334 . S
C332 H313 0.929 . S
C332 C329 1.388 . S
C332 N331 1.397 1_655 S
C333 H314 0.929 . S
C333 C330 1.404 . S
C333 N331 1.334 . S
C334 H326 0.930 . S
C334 C329 1.418 . S
C334 C330 1.353 1_655 S
C335 H305 0.930 . S
C335 N336 1.330 . S
C335 C337 1.446 1_556 S
N336 Co295 2.151 . S
N336 C335 1.330 . S
N336 C340 1.418 1_556 S
C337 H316 0.929 . S
C337 C335 1.446 1_554 S
C337 C338 1.332 . S
C338 H318 0.931 . S
C338 C337 1.332 . S
C338 C339 1.267 . S
C339 H307 0.929 . S
C339 C338 1.267 . S
C339 C340 1.251 . S
C340 H310 0.929 . S
C340 N336 1.418 1_554 S
C340 C339 1.251 . S
C341 H308 0.930 . S
C341 C343 1.406 . S
C341 C346 1.261 1_455 S
C342 H309 0.930 . S
C342 N344 1.325 1_655 S
C342 C345 1.357 . S
C343 H311 0.928 . S
C343 C341 1.406 . S
C343 N344 1.261 . S
N344 Co295 2.214 . S
N344 C342 1.325 1_455 S
N344 C343 1.261 . S
C345 H315 0.931 . S
C345 C342 1.357 . S
C345 C346 1.312 . S
C346 H317 0.930 . S
C346 C341 1.261 1_655 S
C346 C345 1.312 . S
C347 O319 1.214 . S
C347 O327 1.234 1_545 S
C348 H320 0.929 . S
C348 C351 1.391 . S
C348 C353 1.391 . S
C349 H321 0.929 . S
C349 C350 1.390 . S
C349 N352 1.391 . S
C350 H322 0.930 . S
C350 C349 1.390 . S
C350 C351 1.392 . S
C351 H323 0.929 . S
C351 C348 1.391 . S
C351 C350 1.392 . S
N352 Co296 2.257 . S
N352 C349 1.391 . S
N352 C353 1.388 . S
C353 H324 0.930 . S
C353 C348 1.391 . S
C353 N352 1.388 . S
Co354 O356 2.143 . S
Co354 O362 2.074 . S
Co354 O365 2.093 . S
Co354 O378 2.097 . S
Co354 N395 2.151 . S
Co354 N403 2.214 . S
Co355 O356 2.160 . S
Co355 O361 2.058 . S
Co355 O371 2.057 . S
Co355 O386 2.037 . S
Co355 N390 2.145 . S
Co355 N411 2.257 . S
O356 Co354 2.143 . S
O356 Co355 2.160 . S
C357 O358 1.278 . S
C357 O365 1.224 . S
O358 C357 1.278 . S
C359 O360 1.245 . S
C359 O371 1.232 . S
O360 C359 1.245 . S
O361 Co355 2.058 . S
O361 C387 1.269 . S
O362 Co354 2.074 . S
O362 C387 1.257 . S
H363 C388 0.930 . S
H364 C394 0.930 . S
O365 Co354 2.093 . S
O365 C357 1.224 . S
H366 C398 0.929 . S
H367 C400 0.930 . S
H368 C401 0.930 . S
H369 C399 0.929 . S
H370 C402 0.928 . S
O371 Co355 2.057 . S
O371 C359 1.232 . S
H372 C391 0.929 . S
H373 C392 0.929 . S
H374 C404 0.931 . S
H375 C396 0.929 . S
H376 C405 0.930 . S
H377 C397 0.931 . S
O378 Co354 2.097 . S
O378 C406 1.214 . S
H379 C407 0.929 . S
H380 C408 0.929 . S
H381 C409 0.930 1_554 S
H382 C410 0.929 1_554 S
H383 C412 0.930 . S
H384 C389 0.930 . S
H385 C393 0.930 . S
O386 Co355 2.037 . S
O386 C406 1.234 . S
C387 O361 1.269 . S
C387 O362 1.257 . S
C388 H363 0.930 . S
C388 C391 1.388 . S
C388 C393 1.418 . S
C389 H384 0.930 . S
C389 C392 1.404 . S
C389 C393 1.353 . S
N390 Co355 2.145 . S
N390 C391 1.397 . S
N390 C392 1.334 . S
C391 H372 0.929 . S
C391 C388 1.388 . S
C391 N390 1.397 . S
C392 H373 0.929 . S
C392 C389 1.404 . S
C392 N390 1.334 . S
C393 H385 0.930 . S
C393 C388 1.418 . S
C393 C389 1.353 . S
C394 H364 0.930 . S
C394 N395 1.330 . S
C394 C396 1.446 . S
N395 Co354 2.151 . S
N395 C394 1.330 . S
N395 C399 1.418 . S
C396 H375 0.929 . S
C396 C394 1.446 . S
C396 C397 1.332 . S
C397 H377 0.931 . S
C397 C396 1.332 . S
C397 C398 1.267 . S
C398 H366 0.929 . S
C398 C397 1.267 . S
C398 C399 1.251 . S
C399 H369 0.929 . S
C399 N395 1.418 . S
C399 C398 1.251 . S
C400 H367 0.930 . S
C400 C402 1.406 . S
C400 C405 1.261 . S
C401 H368 0.930 . S
C401 N403 1.325 . S
C401 C404 1.357 . S
C402 H370 0.928 . S
C402 C400 1.406 . S
C402 N403 1.261 . S
N403 Co354 2.214 . S
N403 C401 1.325 . S
N403 C402 1.261 . S
C404 H374 0.931 . S
C404 C401 1.357 . S
C404 C405 1.312 . S
C405 H376 0.930 . S
C405 C400 1.261 . S
C405 C404 1.312 . S
C406 O378 1.214 . S
C406 O386 1.234 . S
C407 H379 0.929 . S
C407 C410 1.391 . S
C407 C412 1.391 . S
C408 H380 0.929 . S
C408 C409 1.390 . S
C408 N411 1.391 . S
C409 H381 0.930 1_556 S
C409 C408 1.390 . S
C409 C410 1.392 . S
C410 H382 0.929 1_556 S
C410 C407 1.391 . S
C410 C409 1.392 . S
N411 Co355 2.257 . S
N411 C408 1.391 . S
N411 C412 1.388 . S
C412 H383 0.930 . S
C412 C407 1.391 . S
C412 N411 1.388 . S
Co413 O415 2.162 . S
Co413 O421 2.074 . S
Co413 O424 2.093 . S
Co413 O437 2.097 . S
Co413 N454 2.151 . S
Co413 N462 2.214 . S
Co414 O415 2.140 1_545 S
Co414 O420 2.058 . S
Co414 O430 2.057 . S
Co414 O445 2.037 . S
Co414 N449 2.145 . S
Co414 N470 2.257 . S
O415 Co413 2.162 . S
O415 Co414 2.140 1_565 S
C416 O417 1.278 . S
C416 O424 1.224 . S
O417 C416 1.278 . S
C418 O419 1.245 . S
C418 O430 1.232 . S
O419 C418 1.245 . S
O420 Co414 2.058 . S
O420 C446 1.269 . S
O421 Co413 2.074 . S
O421 C446 1.257 1_565 S
H422 C447 0.930 . S
H423 C453 0.930 . S
O424 Co413 2.093 . S
O424 C416 1.224 . S
H425 C457 0.929 . S
H426 C459 0.930 . S
H427 C460 0.930 . S
H428 C458 0.929 . S
H429 C461 0.928 . S
O430 Co414 2.057 . S
O430 C418 1.232 . S
H431 C450 0.929 . S
H432 C451 0.929 . S
H433 C463 0.931 . S
H434 C455 0.929 . S
H435 C464 0.930 . S
H436 C456 0.931 . S
O437 Co413 2.097 . S
O437 C465 1.214 . S
H438 C466 0.929 . S
H439 C467 0.929 . S
H440 C468 0.930 . S
H441 C469 0.929 . S
H442 C471 0.930 . S
H443 C448 0.930 . S
H444 C452 0.930 . S
O445 Co414 2.037 . S
O445 C465 1.234 1_545 S
C446 O420 1.269 . S
C446 O421 1.257 1_545 S
C447 H422 0.930 . S
C447 C450 1.388 . S
C447 C452 1.418 . S
C448 H443 0.930 . S
C448 C451 1.404 . S
C448 C452 1.353 . S
N449 Co414 2.145 . S
N449 C450 1.397 . S
N449 C451 1.334 . S
C450 H431 0.929 . S
C450 C447 1.388 . S
C450 N449 1.397 . S
C451 H432 0.929 . S
C451 C448 1.404 . S
C451 N449 1.334 . S
C452 H444 0.930 . S
C452 C447 1.418 . S
C452 C448 1.353 . S
C453 H423 0.930 . S
C453 N454 1.330 . S
C453 C455 1.446 . S
N454 Co413 2.151 . S
N454 C453 1.330 . S
N454 C458 1.418 . S
C455 H434 0.929 . S
C455 C453 1.446 . S
C455 C456 1.332 . S
C456 H436 0.931 . S
C456 C455 1.332 . S
C456 C457 1.267 . S
C457 H425 0.929 . S
C457 C456 1.267 . S
C457 C458 1.251 . S
C458 H428 0.929 . S
C458 N454 1.418 . S
C458 C457 1.251 . S
C459 H426 0.930 . S
C459 C461 1.406 . S
C459 C464 1.261 . S
C460 H427 0.930 . S
C460 N462 1.325 . S
C460 C463 1.357 . S
C461 H429 0.928 . S
C461 C459 1.406 . S
C461 N462 1.261 . S
N462 Co413 2.214 . S
N462 C460 1.325 . S
N462 C461 1.261 . S
C463 H433 0.931 . S
C463 C460 1.357 . S
C463 C464 1.312 . S
C464 H435 0.930 . S
C464 C459 1.261 . S
C464 C463 1.312 . S
C465 O437 1.214 . S
C465 O445 1.234 1_565 S
C466 H438 0.929 . S
C466 C469 1.391 . S
C466 C471 1.391 1_556 S
C467 H439 0.929 . S
C467 C468 1.390 . S
C467 N470 1.391 1_556 S
C468 H440 0.930 . S
C468 C467 1.390 . S
C468 C469 1.392 . S
C469 H441 0.929 . S
C469 C466 1.391 . S
C469 C468 1.392 . S
N470 Co414 2.257 . S
N470 C467 1.391 1_554 S
N470 C471 1.388 . S
C471 H442 0.930 . S
C471 C466 1.391 1_554 S
C471 N470 1.388 . S
Co472 O474 2.143 . S
Co472 O480 2.074 . S
Co472 O483 2.093 . S
Co472 O496 2.097 . S
Co472 N513 2.151 . S
Co472 N521 2.214 . S
Co473 O474 2.160 . S
Co473 O479 2.058 . S
Co473 O489 2.057 . S
Co473 O504 2.037 . S
Co473 N508 2.145 . S
Co473 N529 2.257 . S
O474 Co472 2.143 . S
O474 Co473 2.160 . S
C475 O476 1.278 . S
C475 O483 1.224 . S
O476 C475 1.278 . S
C477 O478 1.245 . S
C477 O489 1.232 . S
O478 C477 1.245 . S
O479 Co473 2.058 . S
O479 C505 1.269 . S
O480 Co472 2.074 . S
O480 C505 1.257 . S
H481 C506 0.930 . S
H482 C512 0.930 . S
O483 Co472 2.093 . S
O483 C475 1.224 . S
H484 C516 0.929 . S
H485 C518 0.930 . S
H486 C519 0.930 . S
H487 C517 0.929 . S
H488 C520 0.928 . S
O489 Co473 2.057 . S
O489 C477 1.232 . S
H490 C509 0.929 . S
H491 C510 0.929 . S
H492 C522 0.931 . S
H493 C514 0.929 . S
H494 C523 0.930 . S
H495 C515 0.931 . S
O496 Co472 2.097 . S
O496 C524 1.214 . S
H497 C525 0.929 . S
H498 C526 0.929 . S
H499 C527 0.930 . S
H500 C528 0.929 1_556 S
H501 C530 0.930 . S
H502 C507 0.930 . S
H503 C511 0.930 . S
O504 Co473 2.037 . S
O504 C524 1.234 . S
C505 O479 1.269 . S
C505 O480 1.257 . S
C506 H481 0.930 . S
C506 C509 1.388 . S
C506 C511 1.418 . S
C507 H502 0.930 . S
C507 C510 1.404 . S
C507 C511 1.353 . S
N508 Co473 2.145 . S
N508 C509 1.397 . S
N508 C510 1.334 . S
C509 H490 0.929 . S
C509 C506 1.388 . S
C509 N508 1.397 . S
C510 H491 0.929 . S
C510 C507 1.404 . S
C510 N508 1.334 . S
C511 H503 0.930 . S
C511 C506 1.418 . S
C511 C507 1.353 . S
C512 H482 0.930 . S
C512 N513 1.330 . S
C512 C514 1.446 . S
N513 Co472 2.151 . S
N513 C512 1.330 . S
N513 C517 1.418 . S
C514 H493 0.929 . S
C514 C512 1.446 . S
C514 C515 1.332 . S
C515 H495 0.931 . S
C515 C514 1.332 . S
C515 C516 1.267 . S
C516 H484 0.929 . S
C516 C515 1.267 . S
C516 C517 1.251 . S
C517 H487 0.929 . S
C517 N513 1.418 . S
C517 C516 1.251 . S
C518 H485 0.930 . S
C518 C520 1.406 . S
C518 C523 1.261 . S
C519 H486 0.930 . S
C519 N521 1.325 . S
C519 C522 1.357 . S
C520 H488 0.928 . S
C520 C518 1.406 . S
C520 N521 1.261 . S
N521 Co472 2.214 . S
N521 C519 1.325 . S
N521 C520 1.261 . S
C522 H492 0.931 . S
C522 C519 1.357 . S
C522 C523 1.312 . S
C523 H494 0.930 . S
C523 C518 1.261 . S
C523 C522 1.312 . S
C524 O496 1.214 . S
C524 O504 1.234 . S
C525 H497 0.929 . S
C525 C528 1.391 . S
C525 C530 1.391 . S
C526 H498 0.929 . S
C526 C527 1.390 . S
C526 N529 1.391 . S
C527 H499 0.930 . S
C527 C526 1.390 . S
C527 C528 1.392 . S
C528 H500 0.929 1_554 S
C528 C525 1.391 . S
C528 C527 1.392 . S
N529 Co473 2.257 . S
N529 C526 1.391 . S
N529 C530 1.388 . S
C530 H501 0.930 . S
C530 C525 1.391 . S
C530 N529 1.388 . S
Co531 O533 2.143 . S
Co531 O539 2.074 . S
Co531 O542 2.093 . S
Co531 O555 2.097 . S
Co531 N572 2.151 . S
Co531 N580 2.214 . S
Co532 O533 2.160 . S
Co532 O538 2.058 . S
Co532 O548 2.057 . S
Co532 O563 2.037 . S
Co532 N567 2.145 . S
Co532 N588 2.257 . S
O533 Co531 2.143 . S
O533 Co532 2.160 . S
C534 O535 1.278 . S
C534 O542 1.224 . S
O535 C534 1.278 . S
C536 O537 1.245 . S
C536 O548 1.232 . S
O537 C536 1.245 . S
O538 Co532 2.058 . S
O538 C564 1.269 . S
O539 Co531 2.074 . S
O539 C564 1.257 . S
H540 C565 0.930 . S
H541 C571 0.930 . S
O542 Co531 2.093 . S
O542 C534 1.224 . S
H543 C575 0.929 . S
H544 C577 0.930 . S
H545 C578 0.930 . S
H546 C576 0.929 . S
H547 C579 0.928 . S
O548 Co532 2.057 . S
O548 C536 1.232 . S
H549 C568 0.929 . S
H550 C569 0.929 . S
H551 C581 0.931 . S
H552 C573 0.929 . S
H553 C582 0.930 . S
H554 C574 0.931 . S
O555 Co531 2.097 . S
O555 C583 1.214 . S
H556 C584 0.929 . S
H557 C585 0.929 . S
H558 C586 0.930 . S
H559 C587 0.929 . S
H560 C589 0.930 . S
H561 C566 0.930 . S
H562 C570 0.930 . S
O563 Co532 2.037 . S
O563 C583 1.234 . S
C564 O538 1.269 . S
C564 O539 1.257 . S
C565 H540 0.930 . S
C565 C568 1.388 . S
C565 C570 1.418 . S
C566 H561 0.930 . S
C566 C569 1.404 . S
C566 C570 1.353 . S
N567 Co532 2.145 . S
N567 C568 1.397 . S
N567 C569 1.334 . S
C568 H549 0.929 . S
C568 C565 1.388 . S
C568 N567 1.397 . S
C569 H550 0.929 . S
C569 C566 1.404 . S
C569 N567 1.334 . S
C570 H562 0.930 . S
C570 C565 1.418 . S
C570 C566 1.353 . S
C571 H541 0.930 . S
C571 N572 1.330 . S
C571 C573 1.446 . S
N572 Co531 2.151 . S
N572 C571 1.330 . S
N572 C576 1.418 . S
C573 H552 0.929 . S
C573 C571 1.446 . S
C573 C574 1.332 . S
C574 H554 0.931 . S
C574 C573 1.332 . S
C574 C575 1.267 . S
C575 H543 0.929 . S
C575 C574 1.267 . S
C575 C576 1.251 . S
C576 H546 0.929 . S
C576 N572 1.418 . S
C576 C575 1.251 . S
C577 H544 0.930 . S
C577 C579 1.406 . S
C577 C582 1.261 . S
C578 H545 0.930 . S
C578 N580 1.325 . S
C578 C581 1.357 . S
C579 H547 0.928 . S
C579 C577 1.406 . S
C579 N580 1.261 . S
N580 Co531 2.214 . S
N580 C578 1.325 . S
N580 C579 1.261 . S
C581 H551 0.931 . S
C581 C578 1.357 . S
C581 C582 1.312 . S
C582 H553 0.930 . S
C582 C577 1.261 . S
C582 C581 1.312 . S
C583 O555 1.214 . S
C583 O563 1.234 . S
C584 H556 0.929 . S
C584 C587 1.391 . S
C584 C589 1.391 1_554 S
C585 H557 0.929 . S
C585 C586 1.390 . S
C585 N588 1.391 1_554 S
C586 H558 0.930 . S
C586 C585 1.390 . S
C586 C587 1.392 . S
C587 H559 0.929 . S
C587 C584 1.391 . S
C587 C586 1.392 . S
N588 Co532 2.257 . S
N588 C585 1.391 1_556 S
N588 C589 1.388 . S
C589 H560 0.930 . S
C589 C584 1.391 1_556 S
C589 N588 1.388 . S
Co590 O592 2.143 . S
Co590 O598 2.074 . S
Co590 O601 2.093 1_554 S
Co590 O614 2.097 1_554 S
Co590 N631 2.151 . S
Co590 N639 2.214 . S
Co591 O592 2.160 1_556 S
Co591 O597 2.058 1_556 S
Co591 O607 2.057 1_556 S
Co591 O622 2.037 . S
Co591 N626 2.145 . S
Co591 N647 2.257 . S
O592 Co590 2.143 . S
O592 Co591 2.160 1_554 S
C593 O594 1.278 . S
C593 O601 1.224 . S
O594 C593 1.278 . S
C595 O596 1.245 . S
C595 O607 1.232 . S
O596 C595 1.245 . S
O597 Co591 2.058 1_554 S
O597 C623 1.269 . S
O598 Co590 2.074 . S
O598 C623 1.257 . S
H599 C624 0.930 . S
H600 C630 0.930 . S
O601 Co590 2.093 1_556 S
O601 C593 1.224 . S
H602 C634 0.929 . S
H603 C636 0.930 . S
H604 C637 0.930 . S
H605 C635 0.929 . S
H606 C638 0.928 . S
O607 Co591 2.057 1_554 S
O607 C595 1.232 . S
H608 C627 0.929 . S
H609 C628 0.929 1_554 S
H610 C640 0.931 1_556 S
H611 C632 0.929 . S
H612 C641 0.930 . S
H613 C633 0.931 . S
O614 Co590 2.097 1_556 S
O614 C642 1.214 . S
H615 C643 0.929 . S
H616 C644 0.929 . S
H617 C645 0.930 . S
H618 C646 0.929 . S
H619 C648 0.930 . S
H620 C625 0.930 . S
H621 C629 0.930 . S
O622 Co591 2.037 . S
O622 C642 1.234 . S
C623 O597 1.269 . S
C623 O598 1.257 . S
C624 H599 0.930 . S
C624 C627 1.388 . S
C624 C629 1.418 . S
C625 H620 0.930 . S
C625 C628 1.404 . S
C625 C629 1.353 . S
N626 Co591 2.145 . S
N626 C627 1.397 . S
N626 C628 1.334 . S
C627 H608 0.929 . S
C627 C624 1.388 . S
C627 N626 1.397 . S
C628 H609 0.929 1_556 S
C628 C625 1.404 . S
C628 N626 1.334 . S
C629 H621 0.930 . S
C629 C624 1.418 . S
C629 C625 1.353 . S
C630 H600 0.930 . S
C630 N631 1.330 . S
C630 C632 1.446 . S
N631 Co590 2.151 . S
N631 C630 1.330 . S
N631 C635 1.418 . S
C632 H611 0.929 . S
C632 C630 1.446 . S
C632 C633 1.332 . S
C633 H613 0.931 . S
C633 C632 1.332 . S
C633 C634 1.267 . S
C634 H602 0.929 . S
C634 C633 1.267 . S
C634 C635 1.251 . S
C635 H605 0.929 . S
C635 N631 1.418 . S
C635 C634 1.251 . S
C636 H603 0.930 . S
C636 C638 1.406 . S
C636 C641 1.261 . S
C637 H604 0.930 . S
C637 N639 1.325 1_556 S
C637 C640 1.357 1_556 S
C638 H606 0.928 . S
C638 C636 1.406 . S
C638 N639 1.261 . S
N639 Co590 2.214 . S
N639 C637 1.325 1_554 S
N639 C638 1.261 . S
C640 H610 0.931 1_554 S
C640 C637 1.357 1_554 S
C640 C641 1.312 . S
C641 H612 0.930 . S
C641 C636 1.261 . S
C641 C640 1.312 . S
C642 O614 1.214 . S
C642 O622 1.234 . S
C643 H615 0.929 . S
C643 C646 1.391 . S
C643 C648 1.391 . S
C644 H616 0.929 . S
C644 C645 1.390 . S
C644 N647 1.391 . S
C645 H617 0.930 . S
C645 C644 1.390 . S
C645 C646 1.392 . S
C646 H618 0.929 . S
C646 C643 1.391 . S
C646 C645 1.392 . S
N647 Co591 2.257 . S
N647 C644 1.391 . S
N647 C648 1.388 . S
C648 H619 0.930 . S
C648 C643 1.391 . S
C648 N647 1.388 . S
Co649 O651 2.143 . S
Co649 O657 2.074 . S
Co649 O660 2.093 . S
Co649 O673 2.097 . S
Co649 N690 2.151 . S
Co649 N698 2.214 . S
Co650 O651 2.160 . S
Co650 O656 2.058 . S
Co650 O666 2.057 . S
Co650 O681 2.037 . S
Co650 N685 2.145 . S
Co650 N706 2.257 . S
O651 Co649 2.143 . S
O651 Co650 2.160 . S
C652 O653 1.278 . S
C652 O660 1.224 . S
O653 C652 1.278 . S
C654 O655 1.245 . S
C654 O666 1.232 . S
O655 C654 1.245 . S
O656 Co650 2.058 . S
O656 C682 1.269 . S
O657 Co649 2.074 . S
O657 C682 1.257 . S
H658 C683 0.930 . S
H659 C689 0.930 . S
O660 Co649 2.093 . S
O660 C652 1.224 . S
H661 C693 0.929 . S
H662 C695 0.930 . S
H663 C696 0.930 . S
H664 C694 0.929 . S
H665 C697 0.928 . S
O666 Co650 2.057 . S
O666 C654 1.232 . S
H667 C686 0.929 . S
H668 C687 0.929 . S
H669 C699 0.931 . S
H670 C691 0.929 . S
H671 C700 0.930 . S
H672 C692 0.931 . S
O673 Co649 2.097 . S
O673 C701 1.214 . S
H674 C702 0.929 . S
H675 C703 0.929 . S
H676 C704 0.930 . S
H677 C705 0.929 . S
H678 C707 0.930 . S
H679 C684 0.930 . S
H680 C688 0.930 . S
O681 Co650 2.037 . S
O681 C701 1.234 . S
C682 O656 1.269 . S
C682 O657 1.257 . S
C683 H658 0.930 . S
C683 C686 1.388 . S
C683 C688 1.418 . S
C684 H679 0.930 . S
C684 C687 1.404 . S
C684 C688 1.353 1_455 S
N685 Co650 2.145 . S
N685 C686 1.397 1_455 S
N685 C687 1.334 . S
C686 H667 0.929 . S
C686 C683 1.388 . S
C686 N685 1.397 1_655 S
C687 H668 0.929 . S
C687 C684 1.404 . S
C687 N685 1.334 . S
C688 H680 0.930 . S
C688 C683 1.418 . S
C688 C684 1.353 1_655 S
C689 H659 0.930 . S
C689 N690 1.330 . S
C689 C691 1.446 1_554 S
N690 Co649 2.151 . S
N690 C689 1.330 . S
N690 C694 1.418 1_554 S
C691 H670 0.929 . S
C691 C689 1.446 1_556 S
C691 C692 1.332 . S
C692 H672 0.931 . S
C692 C691 1.332 . S
C692 C693 1.267 . S
C693 H661 0.929 . S
C693 C692 1.267 . S
C693 C694 1.251 . S
C694 H664 0.929 . S
C694 N690 1.418 1_556 S
C694 C693 1.251 . S
C695 H662 0.930 . S
C695 C697 1.406 . S
C695 C700 1.261 1_455 S
C696 H663 0.930 . S
C696 N698 1.325 1_655 S
C696 C699 1.357 . S
C697 H665 0.928 . S
C697 C695 1.406 . S
C697 N698 1.261 . S
N698 Co649 2.214 . S
N698 C696 1.325 1_455 S
N698 C697 1.261 . S
C699 H669 0.931 . S
C699 C696 1.357 . S
C699 C700 1.312 . S
C700 H671 0.930 . S
C700 C695 1.261 1_655 S
C700 C699 1.312 . S
C701 O673 1.214 . S
C701 O681 1.234 . S
C702 H674 0.929 . S
C702 C705 1.391 . S
C702 C707 1.391 . S
C703 H675 0.929 . S
C703 C704 1.390 . S
C703 N706 1.391 . S
C704 H676 0.930 . S
C704 C703 1.390 . S
C704 C705 1.392 . S
C705 H677 0.929 . S
C705 C702 1.391 . S
C705 C704 1.392 . S
N706 Co650 2.257 . S
N706 C703 1.391 . S
N706 C707 1.388 . S
C707 H678 0.930 . S
C707 C702 1.391 . S
C707 N706 1.388 . S
Co708 O710 2.143 . S
Co708 O716 2.074 . S
Co708 O719 2.093 . S
Co708 O732 2.097 . S
Co708 N749 2.151 . S
Co708 N757 2.214 . S
Co709 O710 2.160 . S
Co709 O715 2.058 . S
Co709 O725 2.057 . S
Co709 O740 2.037 . S
Co709 N744 2.145 . S
Co709 N765 2.257 . S
O710 Co708 2.143 . S
O710 Co709 2.160 . S
C711 O712 1.278 . S
C711 O719 1.224 . S
O712 C711 1.278 . S
C713 O714 1.245 . S
C713 O725 1.232 . S
O714 C713 1.245 . S
O715 Co709 2.058 . S
O715 C741 1.269 . S
O716 Co708 2.074 . S
O716 C741 1.257 . S
H717 C742 0.930 . S
H718 C748 0.930 . S
O719 Co708 2.093 . S
O719 C711 1.224 . S
H720 C752 0.929 . S
H721 C754 0.930 . S
H722 C755 0.930 . S
H723 C753 0.929 . S
H724 C756 0.928 . S
O725 Co709 2.057 . S
O725 C713 1.232 . S
H726 C745 0.929 . S
H727 C746 0.929 . S
H728 C758 0.931 . S
H729 C750 0.929 . S
H730 C759 0.930 . S
H731 C751 0.931 . S
O732 Co708 2.097 . S
O732 C760 1.214 . S
H733 C761 0.929 . S
H734 C762 0.929 . S
H735 C763 0.930 1_554 S
H736 C764 0.929 1_554 S
H737 C766 0.930 . S
H738 C743 0.930 . S
H739 C747 0.930 . S
O740 Co709 2.037 . S
O740 C760 1.234 . S
C741 O715 1.269 . S
C741 O716 1.257 . S
C742 H717 0.930 . S
C742 C745 1.388 . S
C742 C747 1.418 . S
C743 H738 0.930 . S
C743 C746 1.404 . S
C743 C747 1.353 . S
N744 Co709 2.145 . S
N744 C745 1.397 . S
N744 C746 1.334 . S
C745 H726 0.929 . S
C745 C742 1.388 . S
C745 N744 1.397 . S
C746 H727 0.929 . S
C746 C743 1.404 . S
C746 N744 1.334 . S
C747 H739 0.930 . S
C747 C742 1.418 . S
C747 C743 1.353 . S
C748 H718 0.930 . S
C748 N749 1.330 . S
C748 C750 1.446 . S
N749 Co708 2.151 . S
N749 C748 1.330 . S
N749 C753 1.418 . S
C750 H729 0.929 . S
C750 C748 1.446 . S
C750 C751 1.332 . S
C751 H731 0.931 . S
C751 C750 1.332 . S
C751 C752 1.267 . S
C752 H720 0.929 . S
C752 C751 1.267 . S
C752 C753 1.251 . S
C753 H723 0.929 . S
C753 N749 1.418 . S
C753 C752 1.251 . S
C754 H721 0.930 . S
C754 C756 1.406 . S
C754 C759 1.261 . S
C755 H722 0.930 . S
C755 N757 1.325 . S
C755 C758 1.357 . S
C756 H724 0.928 . S
C756 C754 1.406 . S
C756 N757 1.261 . S
N757 Co708 2.214 . S
N757 C755 1.325 . S
N757 C756 1.261 . S
C758 H728 0.931 . S
C758 C755 1.357 . S
C758 C759 1.312 . S
C759 H730 0.930 . S
C759 C754 1.261 . S
C759 C758 1.312 . S
C760 O732 1.214 . S
C760 O740 1.234 . S
C761 H733 0.929 . S
C761 C764 1.391 . S
C761 C766 1.391 . S
C762 H734 0.929 . S
C762 C763 1.390 . S
C762 N765 1.391 . S
C763 H735 0.930 1_556 S
C763 C762 1.390 . S
C763 C764 1.392 . S
C764 H736 0.929 1_556 S
C764 C761 1.391 . S
C764 C763 1.392 . S
N765 Co709 2.257 . S
N765 C762 1.391 . S
N765 C766 1.388 . S
C766 H737 0.930 . S
C766 C761 1.391 . S
C766 N765 1.388 . S
Co767 O769 2.143 . S
Co767 O775 2.074 . S
Co767 O778 2.093 . S
Co767 O791 2.097 . S
Co767 N808 2.151 . S
Co767 N816 2.214 . S
Co768 O769 2.160 . S
Co768 O774 2.058 . S
Co768 O784 2.057 . S
Co768 O799 2.037 . S
Co768 N803 2.145 . S
Co768 N824 2.257 . S
O769 Co767 2.143 . S
O769 Co768 2.160 . S
C770 O771 1.278 . S
C770 O778 1.224 . S
O771 C770 1.278 . S
C772 O773 1.245 . S
C772 O784 1.232 . S
O773 C772 1.245 . S
O774 Co768 2.058 . S
O774 C800 1.269 . S
O775 Co767 2.074 . S
O775 C800 1.257 . S
H776 C801 0.930 . S
H777 C807 0.930 . S
O778 Co767 2.093 . S
O778 C770 1.224 . S
H779 C811 0.929 . S
H780 C813 0.930 . S
H781 C814 0.930 . S
H782 C812 0.929 . S
H783 C815 0.928 . S
O784 Co768 2.057 . S
O784 C772 1.232 . S
H785 C804 0.929 . S
H786 C805 0.929 . S
H787 C817 0.931 . S
H788 C809 0.929 . S
H789 C818 0.930 . S
H790 C810 0.931 . S
O791 Co767 2.097 . S
O791 C819 1.214 . S
H792 C820 0.929 . S
H793 C821 0.929 . S
H794 C822 0.930 . S
H795 C823 0.929 . S
H796 C825 0.930 . S
H797 C802 0.930 . S
H798 C806 0.930 . S
O799 Co768 2.037 . S
O799 C819 1.234 . S
C800 O774 1.269 . S
C800 O775 1.257 . S
C801 H776 0.930 . S
C801 C804 1.388 . S
C801 C806 1.418 . S
C802 H797 0.930 . S
C802 C805 1.404 . S
C802 C806 1.353 . S
N803 Co768 2.145 . S
N803 C804 1.397 . S
N803 C805 1.334 . S
C804 H785 0.929 . S
C804 C801 1.388 . S
C804 N803 1.397 . S
C805 H786 0.929 . S
C805 C802 1.404 . S
C805 N803 1.334 . S
C806 H798 0.930 . S
C806 C801 1.418 . S
C806 C802 1.353 . S
C807 H777 0.930 . S
C807 N808 1.330 . S
C807 C809 1.446 . S
N808 Co767 2.151 . S
N808 C807 1.330 . S
N808 C812 1.418 . S
C809 H788 0.929 . S
C809 C807 1.446 . S
C809 C810 1.332 . S
C810 H790 0.931 . S
C810 C809 1.332 . S
C810 C811 1.267 . S
C811 H779 0.929 . S
C811 C810 1.267 . S
C811 C812 1.251 . S
C812 H782 0.929 . S
C812 N808 1.418 . S
C812 C811 1.251 . S
C813 H780 0.930 . S
C813 C815 1.406 . S
C813 C818 1.261 . S
C814 H781 0.930 . S
C814 N816 1.325 . S
C814 C817 1.357 . S
C815 H783 0.928 . S
C815 C813 1.406 . S
C815 N816 1.261 . S
N816 Co767 2.214 . S
N816 C814 1.325 . S
N816 C815 1.261 . S
C817 H787 0.931 . S
C817 C814 1.357 . S
C817 C818 1.312 . S
C818 H789 0.930 . S
C818 C813 1.261 . S
C818 C817 1.312 . S
C819 O791 1.214 . S
C819 O799 1.234 . S
C820 H792 0.929 . S
C820 C823 1.391 . S
C820 C825 1.391 1_556 S
C821 H793 0.929 . S
C821 C822 1.390 . S
C821 N824 1.391 1_556 S
C822 H794 0.930 . S
C822 C821 1.390 . S
C822 C823 1.392 . S
C823 H795 0.929 . S
C823 C820 1.391 . S
C823 C822 1.392 . S
N824 Co768 2.257 . S
N824 C821 1.391 1_554 S
N824 C825 1.388 . S
C825 H796 0.930 . S
C825 C820 1.391 1_554 S
C825 N824 1.388 . S
Co826 O828 2.143 . S
Co826 O834 2.074 . S
Co826 O837 2.093 1_556 S
Co826 O850 2.097 1_556 S
Co826 N867 2.151 . S
Co826 N875 2.214 . S
Co827 O828 2.159 1_554 S
Co827 O833 2.058 1_554 S
Co827 O843 2.057 1_554 S
Co827 O858 2.037 . S
Co827 N862 2.145 . S
Co827 N883 2.257 . S
O828 Co826 2.143 . S
O828 Co827 2.159 1_556 S
C829 O830 1.278 . S
C829 O837 1.224 . S
O830 C829 1.278 . S
C831 O832 1.245 . S
C831 O843 1.232 . S
O832 C831 1.245 . S
O833 Co827 2.058 1_556 S
O833 C859 1.269 . S
O834 Co826 2.074 . S
O834 C859 1.257 . S
H835 C860 0.930 . S
H836 C866 0.930 . S
O837 Co826 2.093 1_554 S
O837 C829 1.224 . S
H838 C870 0.929 . S
H839 C872 0.930 . S
H840 C873 0.930 . S
H841 C871 0.929 . S
H842 C874 0.928 . S
O843 Co827 2.057 1_556 S
O843 C831 1.232 . S
H844 C863 0.929 . S
H845 C864 0.929 . S
H846 C876 0.931 . S
H847 C868 0.929 . S
H848 C877 0.930 . S
H849 C869 0.931 . S
O850 Co826 2.097 1_554 S
O850 C878 1.214 . S
H851 C879 0.929 . S
H852 C880 0.929 . S
H853 C881 0.930 . S
H854 C882 0.929 . S
H855 C884 0.930 . S
H856 C861 0.930 . S
H857 C865 0.930 . S
O858 Co827 2.037 . S
O858 C878 1.234 . S
C859 O833 1.269 . S
C859 O834 1.257 . S
C860 H835 0.930 . S
C860 C863 1.388 . S
C860 C865 1.418 . S
C861 H856 0.930 . S
C861 C864 1.404 . S
C861 C865 1.353 . S
N862 Co827 2.145 . S
N862 C863 1.397 . S
N862 C864 1.334 . S
C863 H844 0.929 . S
C863 C860 1.388 . S
C863 N862 1.397 . S
C864 H845 0.929 . S
C864 C861 1.404 . S
C864 N862 1.334 . S
C865 H857 0.930 . S
C865 C860 1.418 . S
C865 C861 1.353 . S
C866 H836 0.930 . S
C866 N867 1.330 . S
C866 C868 1.446 . S
N867 Co826 2.151 . S
N867 C866 1.330 . S
N867 C871 1.418 . S
C868 H847 0.929 . S
C868 C866 1.446 . S
C868 C869 1.332 . S
C869 H849 0.931 . S
C869 C868 1.332 . S
C869 C870 1.267 . S
C870 H838 0.929 . S
C870 C869 1.267 . S
C870 C871 1.251 . S
C871 H841 0.929 . S
C871 N867 1.418 . S
C871 C870 1.251 . S
C872 H839 0.930 . S
C872 C874 1.406 . S
C872 C877 1.261 . S
C873 H840 0.930 . S
C873 N875 1.325 1_554 S
C873 C876 1.357 . S
C874 H842 0.928 . S
C874 C872 1.406 . S
C874 N875 1.261 . S
N875 Co826 2.214 . S
N875 C873 1.325 1_556 S
N875 C874 1.261 . S
C876 H846 0.931 . S
C876 C873 1.357 . S
C876 C877 1.312 1_554 S
C877 H848 0.930 . S
C877 C872 1.261 . S
C877 C876 1.312 1_556 S
C878 O850 1.214 . S
C878 O858 1.234 . S
C879 H851 0.929 . S
C879 C882 1.391 . S
C879 C884 1.391 . S
C880 H852 0.929 . S
C880 C881 1.390 . S
C880 N883 1.391 . S
C881 H853 0.930 . S
C881 C880 1.390 . S
C881 C882 1.392 . S
C882 H854 0.929 . S
C882 C879 1.391 . S
C882 C881 1.392 . S
N883 Co827 2.257 . S
N883 C880 1.391 . S
N883 C884 1.388 . S
C884 H855 0.930 . S
C884 C879 1.391 . S
C884 N883 1.388 . S
Co885 O887 2.143 . S
Co885 O893 2.074 . S
Co885 O896 2.093 . S
Co885 O909 2.097 . S
Co885 N926 2.151 . S
Co885 N934 2.214 . S
Co886 O887 2.160 . S
Co886 O892 2.058 . S
Co886 O902 2.057 . S
Co886 O917 2.037 . S
Co886 N921 2.145 . S
Co886 N942 2.257 . S
O887 Co885 2.143 . S
O887 Co886 2.160 . S
C888 O889 1.278 . S
C888 O896 1.224 . S
O889 C888 1.278 . S
C890 O891 1.245 . S
C890 O902 1.232 . S
O891 C890 1.245 . S
O892 Co886 2.058 . S
O892 C918 1.269 . S
O893 Co885 2.074 . S
O893 C918 1.257 . S
H894 C919 0.930 . S
H895 C925 0.930 . S
O896 Co885 2.093 . S
O896 C888 1.224 . S
H897 C929 0.929 . S
H898 C931 0.930 . S
H899 C932 0.930 . S
H900 C930 0.929 . S
H901 C933 0.928 . S
O902 Co886 2.057 . S
O902 C890 1.232 . S
H903 C922 0.929 . S
H904 C923 0.929 . S
H905 C935 0.931 . S
H906 C927 0.929 . S
H907 C936 0.930 . S
H908 C928 0.931 . S
O909 Co885 2.097 . S
O909 C937 1.214 . S
H910 C938 0.929 . S
H911 C939 0.929 . S
H912 C940 0.930 . S
H913 C941 0.929 . S
H914 C943 0.930 . S
H915 C920 0.930 . S
H916 C924 0.930 . S
O917 Co886 2.037 . S
O917 C937 1.234 . S
C918 O892 1.269 . S
C918 O893 1.257 . S
C919 H894 0.930 . S
C919 C922 1.388 . S
C919 C924 1.418 . S
C920 H915 0.930 . S
C920 C923 1.404 . S
C920 C924 1.353 1_655 S
N921 Co886 2.145 . S
N921 C922 1.397 1_655 S
N921 C923 1.334 . S
C922 H903 0.929 . S
C922 C919 1.388 . S
C922 N921 1.397 1_455 S
C923 H904 0.929 . S
C923 C920 1.404 . S
C923 N921 1.334 . S
C924 H916 0.930 . S
C924 C919 1.418 . S
C924 C920 1.353 1_455 S
C925 H895 0.930 . S
C925 N926 1.330 . S
C925 C927 1.446 1_556 S
N926 Co885 2.151 . S
N926 C925 1.330 . S
N926 C930 1.418 1_556 S
C927 H906 0.929 . S
C927 C925 1.446 1_554 S
C927 C928 1.332 . S
C928 H908 0.931 . S
C928 C927 1.332 . S
C928 C929 1.267 . S
C929 H897 0.929 . S
C929 C928 1.267 . S
C929 C930 1.251 . S
C930 H900 0.929 . S
C930 N926 1.418 1_554 S
C930 C929 1.251 . S
C931 H898 0.930 . S
C931 C933 1.406 . S
C931 C936 1.261 1_655 S
C932 H899 0.930 . S
C932 N934 1.325 1_455 S
C932 C935 1.357 . S
C933 H901 0.928 . S
C933 C931 1.406 . S
C933 N934 1.261 . S
N934 Co885 2.214 . S
N934 C932 1.325 1_655 S
N934 C933 1.261 . S
C935 H905 0.931 . S
C935 C932 1.357 . S
C935 C936 1.312 . S
C936 H907 0.930 . S
C936 C931 1.261 1_455 S
C936 C935 1.312 . S
C937 O909 1.214 . S
C937 O917 1.234 . S
C938 H910 0.929 . S
C938 C941 1.391 . S
C938 C943 1.391 . S
C939 H911 0.929 . S
C939 C940 1.390 . S
C939 N942 1.391 . S
C940 H912 0.930 . S
C940 C939 1.390 . S
C940 C941 1.392 . S
C941 H913 0.929 . S
C941 C938 1.391 . S
C941 C940 1.392 . S
N942 Co886 2.257 . S
N942 C939 1.391 . S
N942 C943 1.388 . S
C943 H914 0.930 . S
C943 C938 1.391 . S
C943 N942 1.388 . S
C33 C741 1.844 . S
C111 C347 1.788 1_665 S
C151 C859 1.844 . S
C465 C229 1.788 1_564 S
C878 C170 1.788 . S
C446 C210 1.844 1_545 S
C760 C52 1.788 . S
C328 C92 1.844 1_466 S
C269 C505 1.844 . S
C387 C623 1.844 . S
C642 C406 1.788 . S
C288 C524 1.788 . S
C819 C583 1.788 1_554 S
C701 C937 1.788 1_455 S
C682 C918 1.845 1_454 S
C564 C800 1.845 . S
C654 C5 1.672 . S
C475 C62 1.710 . S
C123 C536 1.672 . S
C593 C180 1.710 . S
C652 C121 1.710 . S
C182 C477 1.672 . S
C534 C3 1.710 . S
C595 C64 1.672 . S
C241 C890 1.672 . S
C711 C298 1.711 . S
C359 C772 1.672 . S
C416 C829 1.711 . S
C357 C888 1.710 . S
C713 C418 1.672 . S
C770 C239 1.710 . S
C831 C300 1.672 . S
