# Generated by pormake.
# Topology yfy, (5)-cn, num edge types: 1
# Building blocks:
#     Node 0, Type 0, BuildingBlock: BEQFEK_clean_sbu_0, # of connection points: 5
#     Node 1, Type 0, BuildingBlock: BEQFEK_clean_sbu_0, # of connection points: 5
#     Node 2, Type 0, BuildingBlock: BEQFEK_clean_sbu_0, # of connection points: 5
#     Node 3, Type 0, BuildingBlock: BEQFEK_clean_sbu_0, # of connection points: 5
#     Node 4, Type 0, BuildingBlock: BEQFEK_clean_sbu_0, # of connection points: 5
#     Node 5, Type 0, BuildingBlock: BEQFEK_clean_sbu_0, # of connection points: 5
#     Node 6, Type 0, BuildingBlock: BEQFEK_clean_sbu_0, # of connection points: 5
#     Node 7, Type 0, BuildingBlock: BEQFEK_clean_sbu_0, # of connection points: 5
#     Node 8, Type 0, BuildingBlock: BEQFEK_clean_sbu_0, # of connection points: 5
#     Node 9, Type 0, BuildingBlock: BEQFEK_clean_sbu_0, # of connection points: 5
#     Node 10, Type 0, BuildingBlock: BEQFEK_clean_sbu_0, # of connection points: 5
#     Node 11, Type 0, BuildingBlock: BEQFEK_clean_sbu_0, # of connection points: 5
#     Node 12, Type 0, BuildingBlock: BEQFEK_clean_sbu_0, # of connection points: 5
#     Node 13, Type 0, BuildingBlock: BEQFEK_clean_sbu_0, # of connection points: 5
#     Node 14, Type 0, BuildingBlock: BEQFEK_clean_sbu_0, # of connection points: 5
#     Node 15, Type 0, BuildingBlock: BEQFEK_clean_sbu_0, # of connection points: 5
#     Edge 16, Type (0, 0), BuildingBlock: ZUJKAS_clean_linker_0, # of connection points: 2
#     Edge 17, Type (0, 0), BuildingBlock: ZUJKAS_clean_linker_0, # of connection points: 2
#     Edge 18, Type (0, 0), BuildingBlock: ZUJKAS_clean_linker_0, # of connection points: 2
#     Edge 19, Type (0, 0), BuildingBlock: ZUJKAS_clean_linker_0, # of connection points: 2
#     Edge 20, Type (0, 0), BuildingBlock: ZUJKAS_clean_linker_0, # of connection points: 2
#     Edge 21, Type (0, 0), BuildingBlock: ZUJKAS_clean_linker_0, # of connection points: 2
#     Edge 22, Type (0, 0), BuildingBlock: ZUJKAS_clean_linker_0, # of connection points: 2
#     Edge 23, Type (0, 0), BuildingBlock: ZUJKAS_clean_linker_0, # of connection points: 2
#     Edge 24, Type (0, 0), BuildingBlock: ZUJKAS_clean_linker_0, # of connection points: 2
#     Edge 25, Type (0, 0), BuildingBlock: ZUJKAS_clean_linker_0, # of connection points: 2
#     Edge 26, Type (0, 0), BuildingBlock: ZUJKAS_clean_linker_0, # of connection points: 2
#     Edge 27, Type (0, 0), BuildingBlock: ZUJKAS_clean_linker_0, # of connection points: 2
#     Edge 28, Type (0, 0), BuildingBlock: ZUJKAS_clean_linker_0, # of connection points: 2
#     Edge 29, Type (0, 0), BuildingBlock: ZUJKAS_clean_linker_0, # of connection points: 2
#     Edge 30, Type (0, 0), BuildingBlock: ZUJKAS_clean_linker_0, # of connection points: 2
#     Edge 31, Type (0, 0), BuildingBlock: ZUJKAS_clean_linker_0, # of connection points: 2
#     Edge 32, Type (0, 0), BuildingBlock: ZUJKAS_clean_linker_0, # of connection points: 2
#     Edge 33, Type (0, 0), BuildingBlock: ZUJKAS_clean_linker_0, # of connection points: 2
#     Edge 34, Type (0, 0), BuildingBlock: ZUJKAS_clean_linker_0, # of connection points: 2
#     Edge 35, Type (0, 0), BuildingBlock: ZUJKAS_clean_linker_0, # of connection points: 2
#     Edge 36, Type (0, 0), BuildingBlock: ZUJKAS_clean_linker_0, # of connection points: 2
#     Edge 37, Type (0, 0), BuildingBlock: ZUJKAS_clean_linker_0, # of connection points: 2
#     Edge 38, Type (0, 0), BuildingBlock: ZUJKAS_clean_linker_0, # of connection points: 2
#     Edge 39, Type (0, 0), BuildingBlock: ZUJKAS_clean_linker_0, # of connection points: 2
#     Edge 40, Type (0, 0), BuildingBlock: ZUJKAS_clean_linker_0, # of connection points: 2
#     Edge 41, Type (0, 0), BuildingBlock: ZUJKAS_clean_linker_0, # of connection points: 2
#     Edge 42, Type (0, 0), BuildingBlock: ZUJKAS_clean_linker_0, # of connection points: 2
#     Edge 43, Type (0, 0), BuildingBlock: ZUJKAS_clean_linker_0, # of connection points: 2
#     Edge 44, Type (0, 0), BuildingBlock: ZUJKAS_clean_linker_0, # of connection points: 2
#     Edge 45, Type (0, 0), BuildingBlock: ZUJKAS_clean_linker_0, # of connection points: 2
#     Edge 46, Type (0, 0), BuildingBlock: ZUJKAS_clean_linker_0, # of connection points: 2
#     Edge 47, Type (0, 0), BuildingBlock: ZUJKAS_clean_linker_0, # of connection points: 2
#     Edge 48, Type (0, 0), BuildingBlock: ZUJKAS_clean_linker_0, # of connection points: 2
#     Edge 49, Type (0, 0), BuildingBlock: ZUJKAS_clean_linker_0, # of connection points: 2
#     Edge 50, Type (0, 0), BuildingBlock: ZUJKAS_clean_linker_0, # of connection points: 2
#     Edge 51, Type (0, 0), BuildingBlock: ZUJKAS_clean_linker_0, # of connection points: 2
#     Edge 52, Type (0, 0), BuildingBlock: ZUJKAS_clean_linker_0, # of connection points: 2
#     Edge 53, Type (0, 0), BuildingBlock: ZUJKAS_clean_linker_0, # of connection points: 2
#     Edge 54, Type (0, 0), BuildingBlock: ZUJKAS_clean_linker_0, # of connection points: 2
#     Edge 55, Type (0, 0), BuildingBlock: ZUJKAS_clean_linker_0, # of connection points: 2
# Relax obj value: 0.032
# Max RMSD: 0.078
# Mean RMSD: 0.078
data_MOF--net-yfy--node1-BEQFEK_clean_sbu_0--edge1-ZUJKAS_clean_linker_0
_symmetry_space_group_name_H-M    P1
_symmetry_Int_Tables_number       1
_symmetry_cell_setting            triclinic
loop_
_symmetry_equiv_pos_as_xyz
'x, y, z'
_cell_length_a     60.337041
_cell_length_b     60.321166
_cell_length_c     56.110146
_cell_angle_alpha  89.988739
_cell_angle_beta   90.018159
_cell_angle_gamma 90.051041
loop_
_atom_site_label
_atom_site_type_symbol
_atom_site_fract_x
_atom_site_fract_y
_atom_site_fract_z
_atom_type_partial_charge
Co0 Co 0.0982 0.28406 0.33242 0.0
Co1 Co 0.06438 0.32328 0.32602 0.0
C2 C 0.05167 0.27756 0.31266 0.0
O3 O 0.07055 0.2705 0.31942 0.0
O4 O 0.04694 0.29811 0.31337 0.0
C5 C 0.12591 0.2521 0.31045 0.0
O6 O 0.11584 0.25963 0.29132 0.0
C7 C 0.03172 0.3558 0.30776 0.0
C8 C 0.03933 0.38489 0.3303 0.0
C9 C 0.02567 0.3777 0.31202 0.0
N10 N 0.04841 0.35051 0.32263 0.0
N11 N 0.05277 0.36794 0.3361 0.0
C12 C 0.02086 0.3395 0.29139 0.0
H13 H 0.01552 0.32487 0.30186 0.0
H14 H 0.03307 0.33376 0.27795 0.0
H15 H 0.00609 0.34647 0.28238 0.0
C16 C 0.12717 0.31644 0.30686 0.0
N17 N 0.10726 0.30979 0.3152 0.0
N18 N 0.09262 0.3255 0.31119 0.0
C19 C 0.10252 0.34225 0.29936 0.0
C20 C 0.12487 0.33727 0.29645 0.0
C21 C 0.14839 0.30433 0.31146 0.0
H22 H 0.14717 0.29458 0.32815 0.0
H23 H 0.15166 0.29282 0.29645 0.0
H24 H 0.16253 0.31603 0.3129 0.0
O25 O 0.0925 0.29177 0.36614 0.0
O26 O 0.06809 0.31892 0.36097 0.0
H27 H 0.08888 0.37443 0.30551 0.0
H28 H 0.09983 0.37053 0.27587 0.0
C29 C 0.09063 0.36245 0.29063 0.0
H30 H 0.07388 0.35786 0.28422 0.0
H31 H 0.06498 0.36827 0.34927 0.0
O32 O 0.12122 0.26054 0.3306 0.0
C33 C 0.07937 0.30633 0.3746 0.0
Co34 Co 0.83626 0.09835 0.33169 0.0
Co35 Co 0.79598 0.0652 0.32909 0.0
C36 C 0.84176 0.05138 0.31476 0.0
O37 O 0.84953 0.07057 0.31919 0.0
O38 O 0.82126 0.04714 0.31758 0.0
C39 C 0.87115 0.1231 0.31039 0.0
O40 O 0.86679 0.10974 0.29249 0.0
C41 C 0.7623 0.03602 0.30709 0.0
C42 C 0.73829 0.03251 0.33657 0.0
C43 C 0.74239 0.02587 0.31334 0.0
N44 N 0.76941 0.04815 0.32574 0.0
N45 N 0.75495 0.04598 0.34326 0.0
C46 C 0.77504 0.03342 0.28437 0.0
H47 H 0.79254 0.03845 0.28674 0.0
H48 H 0.76771 0.04426 0.2705 0.0
H49 H 0.77422 0.016 0.27805 0.0
C50 C 0.80437 0.12626 0.30421 0.0
N51 N 0.81035 0.1069 0.3144 0.0
N52 N 0.79355 0.09298 0.31327 0.0
C53 C 0.77633 0.10309 0.30245 0.0
C54 C 0.78262 0.12448 0.29621 0.0
C55 C 0.81923 0.14607 0.3024 0.0
H56 H 0.82604 0.15011 0.32025 0.0
H57 H 0.83329 0.14206 0.29048 0.0
H58 H 0.81056 0.16072 0.29499 0.0
O59 O 0.82896 0.09347 0.36601 0.0
O60 O 0.80046 0.0702 0.36354 0.0
H61 H 0.74877 0.08623 0.3183 0.0
H62 H 0.74098 0.10603 0.29582 0.0
C63 C 0.7535 0.09343 0.30086 0.0
H64 H 0.7534 0.08001 0.28738 0.0
H65 H 0.75655 0.05355 0.35989 0.0
O66 O 0.85968 0.12153 0.32934 0.0
C67 C 0.8141 0.08152 0.37589 0.0
Co68 Co 0.0209 0.83572 0.33182 0.0
Co69 Co 0.05542 0.79685 0.32678 0.0
C70 C 0.06781 0.84318 0.31434 0.0
O71 O 0.04858 0.85009 0.32001 0.0
O72 O 0.07266 0.82268 0.31546 0.0
C73 C 0.99586 0.87057 0.31126 0.0
O74 O 0.00991 0.86722 0.29374 0.0
C75 C 0.0864 0.76386 0.30588 0.0
C76 C 0.0859 0.73804 0.33382 0.0
C77 C 0.09509 0.74324 0.3119 0.0
N78 N 0.07253 0.77032 0.32336 0.0
N79 N 0.07237 0.75479 0.33997 0.0
C80 C 0.09176 0.77755 0.28437 0.0
H81 H 0.08128 0.77206 0.26924 0.0
H82 H 0.10941 0.77547 0.2793 0.0
H83 H 0.08828 0.79528 0.28761 0.0
C84 C 0.99341 0.80366 0.30441 0.0
N85 N 0.01294 0.81018 0.3138 0.0
N86 N 0.02746 0.79406 0.31139 0.0
C87 C 0.01764 0.77683 0.30029 0.0
C88 C 0.99571 0.78227 0.29554 0.0
C89 C 0.97238 0.81667 0.30647 0.0
H90 H 0.97119 0.82414 0.32449 0.0
H91 H 0.97263 0.83031 0.29321 0.0
H92 H 0.95758 0.80617 0.30321 0.0
O93 O 0.02581 0.82754 0.36578 0.0
O94 O 0.05101 0.80099 0.36145 0.0
H95 H 0.03275 0.74665 0.31189 0.0
H96 H 0.01853 0.74441 0.28357 0.0
C97 C 0.02891 0.7553 0.29494 0.0
H98 H 0.04469 0.7586 0.28553 0.0
H99 H 0.06306 0.75567 0.35561 0.0
O100 O 0.99718 0.85852 0.32982 0.0
C101 C 0.0391 0.81333 0.37468 0.0
Co102 Co 0.28465 0.02333 0.32968 0.0
Co103 Co 0.32408 0.05717 0.32619 0.0
C104 C 0.27863 0.06994 0.3109 0.0
O105 O 0.27114 0.05096 0.31678 0.0
O106 O 0.29916 0.0745 0.31276 0.0
C107 C 0.24172 0.00356 0.33107 0.0
O108 O 0.236 0.02359 0.33791 0.0
C109 C 0.35686 0.08728 0.30516 0.0
C110 C 0.38196 0.08941 0.33375 0.0
C111 C 0.37692 0.09723 0.31114 0.0
N112 N 0.35044 0.07437 0.32342 0.0
N113 N 0.36547 0.07576 0.34047 0.0
C114 C 0.34447 0.08872 0.28211 0.0
H115 H 0.3333 0.10332 0.28261 0.0
H116 H 0.33414 0.07367 0.27952 0.0
H117 H 0.35611 0.09062 0.26693 0.0
C118 C 0.31668 0.99564 0.30268 0.0
N119 N 0.31064 0.01502 0.31268 0.0
N120 N 0.3273 0.02905 0.31135 0.0
C121 C 0.34459 0.01896 0.30066 0.0
C122 C 0.33845 0.99741 0.29474 0.0
C123 C 0.3018 0.97584 0.30095 0.0
H124 H 0.29886 0.96909 0.31908 0.0
H125 H 0.28555 0.98095 0.2935 0.0
H126 H 0.30898 0.96273 0.28946 0.0
O127 O 0.29161 0.02846 0.36397 0.0
O128 O 0.3185 0.05346 0.36063 0.0
H129 H 0.37214 0.03614 0.31605 0.0
H130 H 0.37986 0.01667 0.29324 0.0
C131 C 0.36722 0.029 0.29864 0.0
H132 H 0.3668 0.04261 0.28535 0.0
H133 H 0.36447 0.06736 0.3567 0.0
O134 O 0.26204 0.99947 0.32702 0.0
C135 C 0.30553 0.04176 0.37339 0.0
Co136 Co 0.09955 0.83473 0.67025 0.0
Co137 Co 0.06447 0.79625 0.67518 0.0
C138 C 0.05277 0.84255 0.68811 0.0
O139 O 0.07209 0.84916 0.68235 0.0
O140 O 0.04754 0.82214 0.68692 0.0
C141 C 0.12492 0.86915 0.69125 0.0
O142 O 0.11097 0.86552 0.7088 0.0
C143 C 0.0333 0.76317 0.69569 0.0
C144 C 0.03227 0.73849 0.66661 0.0
C145 C 0.02377 0.74312 0.68898 0.0
N146 N 0.04696 0.7699 0.67813 0.0
N147 N 0.04623 0.75503 0.66085 0.0
C148 C 0.02875 0.7762 0.71787 0.0
H149 H 0.03325 0.79383 0.71548 0.0
H150 H 0.03887 0.76948 0.7327 0.0
H151 H 0.01101 0.7748 0.72289 0.0
C152 C 0.12671 0.80214 0.69722 0.0
N153 N 0.10723 0.80892 0.68795 0.0
N154 N 0.09251 0.79295 0.69031 0.0
C155 C 0.10216 0.77552 0.70122 0.0
C156 C 0.12417 0.78072 0.70594 0.0
C157 C 0.14787 0.81497 0.69523 0.0
H158 H 0.14902 0.82275 0.67736 0.0
H159 H 0.14789 0.82837 0.70877 0.0
H160 H 0.16257 0.80426 0.69814 0.0
O161 O 0.09437 0.82701 0.63619 0.0
O162 O 0.06877 0.80082 0.64058 0.0
H163 H 0.08639 0.74573 0.6894 0.0
H164 H 0.10096 0.74289 0.71746 0.0
C165 C 0.09063 0.75409 0.70642 0.0
H166 H 0.07504 0.75749 0.71612 0.0
H167 H 0.05516 0.75627 0.64498 0.0
O168 O 0.12347 0.85739 0.67249 0.0
C169 C 0.08076 0.81308 0.62732 0.0
Co170 Co 0.28471 0.09697 0.67095 0.0
Co171 Co 0.32474 0.06366 0.67375 0.0
C172 C 0.27906 0.05021 0.68877 0.0
O173 O 0.27134 0.06934 0.68398 0.0
O174 O 0.29954 0.04588 0.68601 0.0
C175 C 0.24162 0.11625 0.67028 0.0
O176 O 0.23593 0.0959 0.66456 0.0
C177 C 0.35871 0.03473 0.69539 0.0
C178 C 0.38202 0.03069 0.66534 0.0
C179 C 0.37837 0.02435 0.68876 0.0
N180 N 0.3513 0.04668 0.67676 0.0
N181 N 0.36536 0.04422 0.65891 0.0
C182 C 0.34643 0.03246 0.71844 0.0
H183 H 0.32896 0.03771 0.71645 0.0
H184 H 0.35424 0.04329 0.73203 0.0
H185 H 0.34712 0.01507 0.72489 0.0
C186 C 0.31639 0.12475 0.69836 0.0
N187 N 0.31061 0.10541 0.68805 0.0
N188 N 0.32751 0.09166 0.68902 0.0
C189 C 0.34473 0.10197 0.69965 0.0
C190 C 0.33825 0.12329 0.70604 0.0
C191 C 0.30118 0.14422 0.70058 0.0
H192 H 0.2983 0.15145 0.68266 0.0
H193 H 0.28496 0.13864 0.7077 0.0
H194 H 0.30809 0.15711 0.71258 0.0
O195 O 0.29174 0.09188 0.63657 0.0
O196 O 0.31957 0.06791 0.63938 0.0
H197 H 0.372 0.08475 0.6837 0.0
H198 H 0.3802 0.1054 0.7051 0.0
C199 C 0.36765 0.09253 0.70096 0.0
H200 H 0.36817 0.07959 0.71497 0.0
H201 H 0.36343 0.05159 0.64221 0.0
O202 O 0.262 0.12074 0.67342 0.0
C203 C 0.30613 0.07929 0.62687 0.0
Co204 Co 0.02106 0.28532 0.6702 0.0
Co205 Co 0.05545 0.32461 0.67393 0.0
C206 C 0.06847 0.27813 0.68568 0.0
O207 O 0.04899 0.27115 0.68118 0.0
O208 O 0.07328 0.29863 0.68399 0.0
C209 C 0.99638 0.25037 0.69142 0.0
O210 O 0.01065 0.25383 0.70872 0.0
C211 C 0.08704 0.35751 0.6942 0.0
C212 C 0.08551 0.38374 0.66676 0.0
C213 C 0.09545 0.37829 0.68823 0.0
N214 N 0.07262 0.35121 0.67713 0.0
N215 N 0.07186 0.36699 0.66081 0.0
C216 C 0.09311 0.34352 0.71525 0.0
H217 H 0.0896 0.32583 0.7118 0.0
H218 H 0.08306 0.3487 0.73083 0.0
H219 H 0.1109 0.34562 0.71974 0.0
C220 C 0.99423 0.31718 0.69842 0.0
N221 N 0.01357 0.31078 0.68852 0.0
N222 N 0.02808 0.32698 0.69056 0.0
C223 C 0.01846 0.34414 0.70196 0.0
C224 C 0.99666 0.33856 0.70727 0.0
C225 C 0.97318 0.30413 0.6967 0.0
H226 H 0.97175 0.29661 0.67873 0.0
H227 H 0.97358 0.29054 0.71001 0.0
H228 H 0.95841 0.31461 0.70011 0.0
O229 O 0.02512 0.29357 0.63615 0.0
O230 O 0.04944 0.32112 0.63942 0.0
H231 H 0.03288 0.3745 0.68983 0.0
H232 H 0.01962 0.37654 0.71868 0.0
C233 C 0.02971 0.36577 0.7069 0.0
H234 H 0.04583 0.36264 0.71569 0.0
H235 H 0.06203 0.36629 0.64552 0.0
O236 O 0.99744 0.26236 0.6728 0.0
C237 C 0.03741 0.30839 0.62671 0.0
Co238 Co 0.83643 0.02295 0.67219 0.0
Co239 Co 0.79624 0.0559 0.67553 0.0
C240 C 0.84135 0.07006 0.6904 0.0
O241 O 0.84908 0.05096 0.6854 0.0
O242 O 0.82084 0.07436 0.68782 0.0
C243 C 0.88002 0.00459 0.67268 0.0
O244 O 0.88544 0.02499 0.66685 0.0
C245 C 0.76338 0.08768 0.69374 0.0
C246 C 0.73504 0.08162 0.66964 0.0
C247 C 0.74181 0.09433 0.68888 0.0
N248 N 0.76907 0.07187 0.67801 0.0
N249 N 0.7521 0.06842 0.66358 0.0
C250 C 0.77775 0.09473 0.71412 0.0
H251 H 0.78889 0.08097 0.71948 0.0
H252 H 0.76757 0.0999 0.72961 0.0
H253 H 0.78815 0.10895 0.70842 0.0
C254 C 0.80426 0.99411 0.69771 0.0
N255 N 0.81043 0.0139 0.68869 0.0
N256 N 0.79407 0.02809 0.69127 0.0
C257 C 0.77717 0.01795 0.70262 0.0
C258 C 0.7829 0.99595 0.70689 0.0
C259 C 0.8177 0.97341 0.69504 0.0
H260 H 0.82597 0.97327 0.67739 0.0
H261 H 0.83075 0.97313 0.70898 0.0
H262 H 0.80732 0.95831 0.69674 0.0
O263 O 0.82977 0.02796 0.63791 0.0
O264 O 0.80139 0.05125 0.64099 0.0
H265 H 0.7453 0.03084 0.69347 0.0
H266 H 0.74701 0.01987 0.7234 0.0
C267 C 0.75603 0.02926 0.70944 0.0
H268 H 0.75968 0.04608 0.71629 0.0
H269 H 0.7521 0.05685 0.64975 0.0
O270 O 0.85967 0.99975 0.67546 0.0
C271 C 0.81498 0.04016 0.62834 0.0
Co272 Co 0.599 0.78364 0.83262 0.0
Co273 Co 0.5653 0.82309 0.82675 0.0
C274 C 0.55248 0.77715 0.81339 0.0
O275 O 0.57148 0.76993 0.81952 0.0
O276 O 0.54782 0.79767 0.8147 0.0
C277 C 0.6269 0.7517 0.81087 0.0
O278 O 0.61695 0.75911 0.79162 0.0
C279 C 0.5345 0.85686 0.80651 0.0
C280 C 0.53733 0.88314 0.83377 0.0
C281 C 0.52689 0.87791 0.81252 0.0
N282 N 0.54895 0.85017 0.82335 0.0
N283 N 0.55051 0.86599 0.83956 0.0
C284 C 0.52757 0.84306 0.78561 0.0
H285 H 0.53035 0.82527 0.78907 0.0
H286 H 0.53763 0.84779 0.76986 0.0
H287 H 0.50983 0.84585 0.78136 0.0
C288 C 0.62806 0.81615 0.80742 0.0
N289 N 0.60809 0.80948 0.81557 0.0
N290 N 0.59356 0.82538 0.81192 0.0
C291 C 0.60365 0.84237 0.80066 0.0
C292 C 0.62596 0.83724 0.7976 0.0
C293 C 0.6492 0.80383 0.8118 0.0
H294 H 0.64801 0.79408 0.82849 0.0
H295 H 0.65223 0.7923 0.79675 0.0
H296 H 0.66348 0.81537 0.81314 0.0
O297 O 0.59318 0.7912 0.86636 0.0
O298 O 0.56916 0.81877 0.86168 0.0
H299 H 0.58895 0.87373 0.80864 0.0
H300 H 0.60187 0.8724 0.77957 0.0
C301 C 0.59203 0.86305 0.7929 0.0
H302 H 0.57587 0.85868 0.78482 0.0
H303 H 0.56054 0.86504 0.85467 0.0
O304 O 0.62206 0.76022 0.83094 0.0
C305 C 0.58033 0.80587 0.87508 0.0
Co306 Co 0.3368 0.5979 0.83138 0.0
Co307 Co 0.29657 0.56468 0.82881 0.0
C308 C 0.34233 0.55101 0.8142 0.0
O309 O 0.35009 0.57021 0.81862 0.0
O310 O 0.32187 0.54671 0.81717 0.0
C311 C 0.37147 0.62308 0.81008 0.0
O312 O 0.36693 0.61009 0.79192 0.0
C313 C 0.26294 0.53528 0.807 0.0
C314 C 0.23911 0.53165 0.83662 0.0
C315 C 0.24317 0.52495 0.8134 0.0
N316 N 0.27002 0.54755 0.82555 0.0
N317 N 0.25565 0.54532 0.84315 0.0
C318 C 0.2756 0.53269 0.78422 0.0
H319 H 0.29303 0.53802 0.78643 0.0
H320 H 0.26801 0.54328 0.77029 0.0
H321 H 0.27501 0.5152 0.77808 0.0
C322 C 0.30468 0.6259 0.80427 0.0
N323 N 0.31079 0.60649 0.81427 0.0
N324 N 0.29405 0.5925 0.81307 0.0
C325 C 0.27676 0.60259 0.80237 0.0
C326 C 0.28293 0.62406 0.79629 0.0
C327 C 0.31941 0.64582 0.80266 0.0
H328 H 0.33336 0.64209 0.79046 0.0
H329 H 0.31058 0.66054 0.79566 0.0
H330 H 0.32642 0.64959 0.82049 0.0
O331 O 0.32964 0.59286 0.86572 0.0
O332 O 0.3011 0.56964 0.86326 0.0
H333 H 0.24142 0.60532 0.79554 0.0
H334 H 0.25403 0.57931 0.78734 0.0
C335 C 0.25399 0.59281 0.80072 0.0
H336 H 0.24923 0.58568 0.81818 0.0
H337 H 0.25727 0.55295 0.85975 0.0
O338 O 0.3602 0.62113 0.82913 0.0
C339 C 0.31478 0.58092 0.8756 0.0
Co340 Co 0.52191 0.33577 0.82956 0.0
Co341 Co 0.55599 0.2966 0.82545 0.0
C342 C 0.56878 0.3422 0.81114 0.0
O343 O 0.54965 0.34944 0.81683 0.0
O344 O 0.5735 0.32171 0.81293 0.0
C345 C 0.49667 0.37044 0.80854 0.0
O346 O 0.51032 0.36673 0.79074 0.0
C347 C 0.58766 0.26443 0.80575 0.0
C348 C 0.58405 0.23642 0.83085 0.0
C349 C 0.59524 0.24314 0.81052 0.0
N350 N 0.57274 0.26996 0.82251 0.0
N351 N 0.57079 0.25322 0.83755 0.0
C352 C 0.59288 0.27859 0.78458 0.0
H353 H 0.57866 0.28959 0.78041 0.0
H354 H 0.59683 0.26823 0.76881 0.0
H355 H 0.60745 0.28914 0.78875 0.0
C356 C 0.49392 0.30324 0.80326 0.0
N357 N 0.51351 0.30985 0.81244 0.0
N358 N 0.52799 0.29368 0.8102 0.0
C359 C 0.51815 0.27639 0.79925 0.0
C360 C 0.49618 0.28176 0.79462 0.0
C361 C 0.47294 0.31635 0.80518 0.0
H362 H 0.47204 0.32446 0.82289 0.0
H363 H 0.47298 0.3295 0.79136 0.0
H364 H 0.4581 0.30574 0.80263 0.0
O365 O 0.52702 0.32844 0.8637 0.0
O366 O 0.5519 0.30153 0.86002 0.0
H367 H 0.53223 0.24558 0.81035 0.0
H368 H 0.51958 0.24468 0.78116 0.0
C369 C 0.52949 0.25497 0.79361 0.0
H370 H 0.5458 0.25838 0.78535 0.0
H371 H 0.56015 0.25315 0.85221 0.0
O372 O 0.49836 0.35872 0.8273 0.0
C373 C 0.54019 0.31432 0.87295 0.0
Co374 Co 0.78432 0.52184 0.831 0.0
Co375 Co 0.82452 0.55507 0.82818 0.0
C376 C 0.77883 0.5689 0.81402 0.0
O377 O 0.77105 0.54986 0.8191 0.0
O378 O 0.79941 0.57307 0.81616 0.0
C379 C 0.74764 0.49878 0.81086 0.0
O380 O 0.74989 0.51418 0.79448 0.0
C381 C 0.85838 0.58404 0.80641 0.0
C382 C 0.88106 0.58939 0.83681 0.0
C383 C 0.87757 0.59515 0.8132 0.0
N384 N 0.851 0.57223 0.82516 0.0
N385 N 0.8647 0.57544 0.84321 0.0
C386 C 0.84638 0.58571 0.78313 0.0
H387 H 0.82916 0.57953 0.78477 0.0
H388 H 0.85498 0.57541 0.76964 0.0
H389 H 0.84635 0.60313 0.77674 0.0
C390 C 0.81604 0.49407 0.80347 0.0
N391 N 0.81014 0.51349 0.81355 0.0
N392 N 0.82704 0.52728 0.81252 0.0
C393 C 0.8443 0.51699 0.80201 0.0
C394 C 0.8379 0.49562 0.79579 0.0
C395 C 0.80102 0.47439 0.80167 0.0
H396 H 0.79601 0.46906 0.81981 0.0
H397 H 0.78583 0.47917 0.79183 0.0
H398 H 0.80894 0.46037 0.79217 0.0
O399 O 0.79173 0.52637 0.86531 0.0
O400 O 0.81978 0.55015 0.86262 0.0
H401 H 0.87154 0.5342 0.81814 0.0
H402 H 0.87979 0.51355 0.79676 0.0
C403 C 0.86725 0.52642 0.80085 0.0
H404 H 0.86787 0.53935 0.78684 0.0
H405 H 0.86267 0.56842 0.86007 0.0
O406 O 0.76103 0.49851 0.8284 0.0
C407 C 0.80642 0.53861 0.87507 0.0
Co408 Co 0.59982 0.33556 0.16889 0.0
Co409 Co 0.56519 0.29687 0.17355 0.0
C410 C 0.55312 0.3425 0.18782 0.0
O411 O 0.5723 0.34937 0.18176 0.0
O412 O 0.54804 0.32206 0.18639 0.0
C413 C 0.62729 0.3677 0.19123 0.0
O414 O 0.61629 0.36105 0.21013 0.0
C415 C 0.53328 0.26466 0.19299 0.0
C416 C 0.5354 0.23767 0.16646 0.0
C417 C 0.52479 0.24385 0.18734 0.0
N418 N 0.54809 0.27039 0.17617 0.0
N419 N 0.5492 0.25424 0.16033 0.0
C420 C 0.52892 0.27826 0.21478 0.0
H421 H 0.54332 0.28912 0.21869 0.0
H422 H 0.52553 0.26744 0.23037 0.0
H423 H 0.51426 0.28895 0.21159 0.0
C424 C 0.62763 0.30254 0.19489 0.0
N425 N 0.60808 0.30946 0.18588 0.0
N426 N 0.59331 0.29356 0.18843 0.0
C427 C 0.60292 0.27616 0.19942 0.0
C428 C 0.62502 0.2812 0.20381 0.0
C429 C 0.64894 0.31507 0.19254 0.0
H430 H 0.64914 0.32453 0.1756 0.0
H431 H 0.65041 0.32692 0.20757 0.0
H432 H 0.66342 0.30374 0.19302 0.0
O433 O 0.59439 0.32847 0.13476 0.0
O434 O 0.56897 0.3021 0.13898 0.0
H435 H 0.58789 0.24567 0.18866 0.0
H436 H 0.60107 0.24449 0.21759 0.0
C437 C 0.59118 0.25499 0.20533 0.0
H438 H 0.57511 0.25878 0.21391 0.0
H439 H 0.55949 0.25448 0.14538 0.0
O440 O 0.62326 0.35865 0.17121 0.0
C441 C 0.58074 0.31464 0.1258 0.0
Co442 Co 0.78351 0.59802 0.17097 0.0
Co443 Co 0.82379 0.56502 0.17458 0.0
C444 C 0.77802 0.55125 0.18882 0.0
O445 O 0.77018 0.57024 0.18362 0.0
O446 O 0.79859 0.54712 0.18659 0.0
C447 C 0.74875 0.62329 0.19179 0.0
O448 O 0.75329 0.61055 0.21016 0.0
C449 C 0.85753 0.53594 0.19669 0.0
C450 C 0.88143 0.5324 0.16711 0.0
C451 C 0.87735 0.52571 0.19033 0.0
N452 N 0.85043 0.54813 0.17809 0.0
N453 N 0.86484 0.54596 0.16052 0.0
C454 C 0.84487 0.5333 0.21945 0.0
H455 H 0.82743 0.53857 0.21724 0.0
H456 H 0.85244 0.54393 0.23338 0.0
H457 H 0.84548 0.51582 0.22561 0.0
C458 C 0.81535 0.62652 0.19797 0.0
N459 N 0.80936 0.60693 0.18825 0.0
N460 N 0.82613 0.59304 0.18985 0.0
C461 C 0.84329 0.60335 0.20057 0.0
C462 C 0.83703 0.62488 0.2062 0.0
C463 C 0.80059 0.64643 0.19902 0.0
H464 H 0.79363 0.6498 0.18108 0.0
H465 H 0.78663 0.64292 0.21128 0.0
H466 H 0.8094 0.66132 0.20567 0.0
O467 O 0.79098 0.5928 0.13683 0.0
O468 O 0.81929 0.56943 0.13999 0.0
H469 H 0.87107 0.58645 0.18531 0.0
H470 H 0.87853 0.60621 0.20798 0.0
C471 C 0.86605 0.59365 0.20266 0.0
H472 H 0.86584 0.5802 0.21611 0.0
H473 H 0.86321 0.55354 0.1439 0.0
O474 O 0.76004 0.62113 0.17279 0.0
C475 C 0.80581 0.58061 0.12731 0.0
Co476 Co 0.52131 0.78489 0.171 0.0
Co477 Co 0.55558 0.82426 0.17477 0.0
C478 C 0.56841 0.77807 0.18785 0.0
O479 O 0.54915 0.77086 0.18268 0.0
O480 O 0.57311 0.79858 0.18614 0.0
C481 C 0.49659 0.74993 0.19213 0.0
O482 O 0.51083 0.75337 0.20946 0.0
C483 C 0.58685 0.85756 0.19486 0.0
C484 C 0.58569 0.88328 0.16686 0.0
C485 C 0.59535 0.87822 0.18859 0.0
N486 N 0.57266 0.85095 0.17772 0.0
N487 N 0.57212 0.86643 0.16106 0.0
C488 C 0.59262 0.84397 0.21632 0.0
H489 H 0.58892 0.82625 0.21333 0.0
H490 H 0.58253 0.84961 0.23169 0.0
H491 H 0.61041 0.84597 0.22089 0.0
C492 C 0.49396 0.81726 0.19819 0.0
N493 N 0.51343 0.8107 0.18871 0.0
N494 N 0.52791 0.82694 0.19067 0.0
C495 C 0.51815 0.84427 0.20161 0.0
C496 C 0.49627 0.8388 0.20665 0.0
C497 C 0.47296 0.80411 0.19654 0.0
H498 H 0.47161 0.79645 0.17863 0.0
H499 H 0.47343 0.7906 0.20994 0.0
H500 H 0.45816 0.81455 0.19987 0.0
O501 O 0.52588 0.7926 0.1369 0.0
O502 O 0.55032 0.82003 0.14018 0.0
H503 H 0.53283 0.87447 0.18939 0.0
H504 H 0.51921 0.87682 0.21801 0.0
C505 C 0.52941 0.86591 0.2065 0.0
H506 H 0.54539 0.8628 0.21557 0.0
H507 H 0.5625 0.86545 0.14563 0.0
O508 O 0.49766 0.76196 0.17354 0.0
C509 C 0.53844 0.80717 0.12745 0.0
Co510 Co 0.33637 0.52218 0.17182 0.0
Co511 Co 0.29646 0.55569 0.17548 0.0
C512 C 0.34218 0.56904 0.18987 0.0
O513 O 0.34968 0.54982 0.18506 0.0
O514 O 0.32173 0.57355 0.18722 0.0
C515 C 0.3796 0.50328 0.17145 0.0
O516 O 0.38505 0.52355 0.16518 0.0
C517 C 0.26268 0.58645 0.19535 0.0
C518 C 0.23669 0.5842 0.1677 0.0
C519 C 0.24175 0.59426 0.18921 0.0
N520 N 0.26946 0.57221 0.17835 0.0
N521 N 0.25383 0.57102 0.1619 0.0
C522 C 0.27629 0.59297 0.21655 0.0
H523 H 0.29414 0.5906 0.21308 0.0
H524 H 0.27168 0.58237 0.23193 0.0
H525 H 0.27322 0.61055 0.22138 0.0
C526 C 0.30399 0.49366 0.19728 0.0
N527 N 0.31033 0.51347 0.18846 0.0
N528 N 0.29401 0.52773 0.19097 0.0
C529 C 0.27691 0.51756 0.20193 0.0
C530 C 0.28253 0.49552 0.20616 0.0
C531 C 0.31735 0.47291 0.19457 0.0
H532 H 0.32514 0.47253 0.17667 0.0
H533 H 0.33078 0.47285 0.20808 0.0
H534 H 0.30704 0.45782 0.19682 0.0
O535 O 0.32948 0.52752 0.13764 0.0
O536 O 0.30127 0.55102 0.14086 0.0
H537 H 0.24583 0.53167 0.19173 0.0
H538 H 0.24564 0.51887 0.22092 0.0
C539 C 0.2556 0.52881 0.2082 0.0
H540 H 0.25919 0.54508 0.21646 0.0
H541 H 0.25489 0.5612 0.14663 0.0
O542 O 0.35928 0.49864 0.17477 0.0
C543 C 0.31475 0.53984 0.12815 0.0
H544 H 0.05662 0.33821 0.39909 0.0
H545 H 0.04956 0.33994 0.4419 0.0
H546 H 0.08704 0.27983 0.45207 0.0
H547 H 0.09461 0.27818 0.40931 0.0
H548 H 0.02753 0.3102 0.46949 0.0
H549 H 0.1137 0.3202 0.50215 0.0
H550 H 0.1063 0.32371 0.47122 0.0
H551 H 0.11004 0.29637 0.48341 0.0
C552 C 0.06357 0.32545 0.41043 0.0
C553 C 0.07625 0.30808 0.40074 0.0
C554 C 0.05947 0.32646 0.4349 0.0
C555 C 0.06797 0.31016 0.45022 0.0
C556 C 0.08072 0.29286 0.44066 0.0
H557 H 0.02148 0.27937 0.59316 0.0
H558 H 0.02779 0.28041 0.55011 0.0
C559 C 0.08496 0.2919 0.41618 0.0
C560 C 0.06271 0.31085 0.47603 0.0
H561 H 0.08623 0.31219 0.53134 0.0
C562 C 0.04036 0.31074 0.48303 0.0
C563 C 0.07945 0.31183 0.49365 0.0
C564 C 0.10371 0.31326 0.48727 0.0
C565 C 0.03429 0.31126 0.50718 0.0
C566 C 0.05105 0.31144 0.5248 0.0
C567 C 0.07339 0.31186 0.5178 0.0
C568 C 0.04589 0.31142 0.55065 0.0
C569 C 0.01001 0.31203 0.51355 0.0
C570 C 0.0541 0.32839 0.56529 0.0
C571 C 0.05072 0.32773 0.58989 0.0
C572 C 0.03905 0.31005 0.60041 0.0
C573 C 0.03037 0.29332 0.58564 0.0
C574 C 0.03389 0.29393 0.561 0.0
H575 H 0.99978 0.31809 0.49843 0.0
H576 H 0.00428 0.29507 0.51811 0.0
H577 H 0.00708 0.32291 0.52919 0.0
H578 H 0.06341 0.34203 0.55769 0.0
H579 H 0.0576 0.34093 0.60071 0.0
H580 H 0.78326 0.06112 0.60192 0.0
H581 H 0.78312 0.06771 0.55902 0.0
H582 H 0.8449 0.03236 0.55231 0.0
H583 H 0.84503 0.02532 0.59527 0.0
H584 H 0.81392 0.09074 0.53301 0.0
H585 H 0.80709 0.00412 0.50041 0.0
H586 H 0.80186 0.01163 0.53103 0.0
H587 H 0.82984 0.00875 0.52045 0.0
C588 C 0.79674 0.05452 0.59133 0.0
C589 C 0.81416 0.04264 0.60207 0.0
C590 C 0.79664 0.05836 0.5668 0.0
C591 C 0.81389 0.05039 0.55244 0.0
C592 C 0.8312 0.03831 0.56299 0.0
H593 H 0.84416 0.09707 0.40866 0.0
H594 H 0.84429 0.09042 0.45171 0.0
C595 C 0.83127 0.03436 0.58757 0.0
C596 C 0.8141 0.05553 0.52659 0.0
H597 H 0.81399 0.03184 0.47135 0.0
C598 C 0.81391 0.07787 0.5195 0.0
C599 C 0.81386 0.03872 0.50903 0.0
C600 C 0.81296 0.01445 0.51554 0.0
C601 C 0.81359 0.08386 0.49533 0.0
C602 C 0.81386 0.06705 0.47777 0.0
C603 C 0.81396 0.04471 0.48486 0.0
C604 C 0.81339 0.07216 0.45192 0.0
C605 C 0.81242 0.1081 0.48881 0.0
C606 C 0.79607 0.064 0.43775 0.0
C607 C 0.79602 0.06763 0.41318 0.0
C608 C 0.81335 0.07947 0.40221 0.0
C609 C 0.83048 0.08803 0.41653 0.0
C610 C 0.83056 0.0843 0.44116 0.0
H611 H 0.80664 0.1184 0.504 0.0
H612 H 0.82918 0.11397 0.48366 0.0
H613 H 0.80111 0.11079 0.47346 0.0
H614 H 0.78266 0.0546 0.44569 0.0
H615 H 0.78253 0.06081 0.40275 0.0
H616 H 0.10573 0.83256 0.59204 0.0
H617 H 0.09865 0.83187 0.54904 0.0
H618 H 0.04086 0.79113 0.56067 0.0
H619 H 0.04819 0.79105 0.60331 0.0
H620 H 0.06359 0.77635 0.52393 0.0
H621 H 0.05226 0.86709 0.51432 0.0
H622 H 0.07883 0.85977 0.5263 0.0
H623 H 0.05409 0.85371 0.543 0.0
C624 C 0.09158 0.82338 0.58541 0.0
C625 C 0.07749 0.81195 0.60116 0.0
C626 C 0.08743 0.82317 0.56085 0.0
C627 C 0.06892 0.81186 0.55167 0.0
C628 C 0.05517 0.80006 0.56732 0.0
H629 H 0.01346 0.83221 0.40968 0.0
H630 H 0.01966 0.83089 0.45282 0.0
C631 C 0.05942 0.80004 0.59176 0.0
C632 C 0.06383 0.81202 0.52577 0.0
H633 H 0.05362 0.84614 0.47846 0.0
C634 C 0.06134 0.79162 0.51401 0.0
C635 C 0.06044 0.83193 0.51292 0.0
C636 C 0.06131 0.85436 0.52481 0.0
C637 C 0.05583 0.79056 0.48974 0.0
C638 C 0.05345 0.81048 0.47664 0.0
C639 C 0.05563 0.83088 0.48846 0.0
C640 C 0.04912 0.81053 0.45059 0.0
C641 C 0.05217 0.76809 0.47857 0.0
C642 C 0.06364 0.79962 0.43501 0.0
C643 C 0.05997 0.80007 0.41046 0.0
C644 C 0.04193 0.81187 0.40087 0.0
C645 C 0.02746 0.82293 0.41648 0.0
C646 C 0.03101 0.82223 0.44113 0.0
H647 H 0.04739 0.75554 0.49213 0.0
H648 H 0.03906 0.7687 0.46469 0.0
H649 H 0.06781 0.76244 0.47015 0.0
H650 H 0.07808 0.79103 0.44179 0.0
H651 H 0.07164 0.79159 0.39898 0.0
H652 H 0.28481 0.10419 0.59279 0.0
H653 H 0.28478 0.09811 0.5496 0.0
H654 H 0.32761 0.04151 0.55872 0.0
H655 H 0.32841 0.0479 0.60151 0.0
H656 H 0.34112 0.06556 0.52266 0.0
H657 H 0.25066 0.05173 0.51372 0.0
H658 H 0.25736 0.07822 0.52633 0.0
H659 H 0.26426 0.05328 0.54229 0.0
C660 C 0.29426 0.0905 0.58555 0.0
C661 C 0.30655 0.07651 0.60063 0.0
C662 C 0.29407 0.08692 0.56089 0.0
C663 C 0.3058 0.06905 0.55094 0.0
C664 C 0.31834 0.05534 0.56596 0.0
H665 H 0.28653 0.01555 0.40788 0.0
H666 H 0.28723 0.02144 0.45112 0.0
C667 C 0.31879 0.05905 0.59048 0.0
C668 C 0.30548 0.06466 0.5249 0.0
H669 H 0.27121 0.05448 0.47768 0.0
C670 C 0.32582 0.06307 0.51286 0.0
C671 C 0.28555 0.06098 0.51217 0.0
C672 C 0.26324 0.0609 0.52431 0.0
C673 C 0.3268 0.05812 0.48846 0.0
C674 C 0.30684 0.05542 0.4755 0.0
C675 C 0.2865 0.05674 0.48757 0.0
C676 C 0.30671 0.05156 0.44937 0.0
C677 C 0.34926 0.05533 0.477 0.0
C678 C 0.31723 0.06662 0.43403 0.0
C679 C 0.31715 0.06312 0.40947 0.0
C680 C 0.30611 0.04472 0.39959 0.0
C681 C 0.29524 0.02983 0.41493 0.0
C682 C 0.29559 0.0332 0.43962 0.0
H683 H 0.36206 0.05067 0.49034 0.0
H684 H 0.3489 0.04246 0.46286 0.0
H685 H 0.35441 0.07129 0.46886 0.0
H686 H 0.32533 0.08126 0.44104 0.0
H687 H 0.32542 0.07512 0.39818 0.0
H688 H 0.59521 0.77693 0.90917 0.0
H689 H 0.58727 0.77763 0.9519 0.0
H690 H 0.55084 0.83856 0.94306 0.0
H691 H 0.55824 0.83778 0.90028 0.0
H692 H 0.59706 0.80767 0.98645 0.0
H693 H 0.50593 0.79968 0.97692 0.0
H694 H 0.52474 0.79524 0.95239 0.0
H695 H 0.51722 0.82294 0.96108 0.0
C696 C 0.58558 0.79054 0.91631 0.0
C697 C 0.57719 0.80719 0.90124 0.0
C698 C 0.58103 0.79089 0.94074 0.0
C699 C 0.56804 0.80788 0.95057 0.0
C700 C 0.56037 0.82496 0.93575 0.0
H701 H 0.55916 0.83923 0.10119 0.0
H702 H 0.56562 0.8396 0.05826 0.0
C703 C 0.56477 0.82456 0.91131 0.0
C704 C 0.56264 0.80775 0.97636 0.0
H705 H 0.51948 0.80787 0.01576 0.0
C706 C 0.5801 0.80765 0.99287 0.0
C707 C 0.54049 0.80736 0.98469 0.0
C708 C 0.52101 0.80609 0.96786 0.0
C709 C 0.57605 0.80755 0.01749 0.0
C710 C 0.55391 0.80806 0.02583 0.0
C711 C 0.53643 0.80776 0.00933 0.0
C712 C 0.54859 0.80862 0.05162 0.0
C713 C 0.59553 0.80645 0.03434 0.0
C714 C 0.53594 0.79162 0.06199 0.0
C715 C 0.53194 0.79149 0.08655 0.0
C716 C 0.54057 0.80837 0.10117 0.0
C717 C 0.55249 0.82582 0.09053 0.0
C718 C 0.55633 0.826 0.06599 0.0
H719 H 0.6106 0.79995 0.02536 0.0
H720 H 0.59936 0.82338 0.0409 0.0
H721 H 0.59178 0.79577 0.04995 0.0
H722 H 0.52965 0.77814 0.05117 0.0
H723 H 0.52267 0.77783 0.09414 0.0
H724 H 0.28268 0.5611 0.9025 0.0
H725 H 0.28262 0.555 0.94546 0.0
H726 H 0.34525 0.58908 0.95138 0.0
H727 H 0.34529 0.59565 0.90833 0.0
H728 H 0.31297 0.53145 0.97121 0.0
H729 H 0.30874 0.61827 0.00364 0.0
H730 H 0.30308 0.61083 0.97308 0.0
H731 H 0.3312 0.61303 0.98343 0.0
C732 C 0.29635 0.56755 0.91292 0.0
C733 C 0.314 0.5789 0.90193 0.0
C734 C 0.2963 0.56399 0.9375 0.0
C735 C 0.31383 0.57171 0.95166 0.0
C736 C 0.33134 0.58333 0.94086 0.0
H737 H 0.34419 0.52407 0.09494 0.0
H738 H 0.34414 0.5311 0.05199 0.0
C739 C 0.33136 0.58702 0.91622 0.0
C740 C 0.31414 0.56665 0.97753 0.0
H741 H 0.31517 0.59043 0.03272 0.0
C742 C 0.31343 0.54434 0.98468 0.0
C743 C 0.31451 0.5835 0.99505 0.0
C744 C 0.31422 0.60776 0.98849 0.0
C745 C 0.31314 0.5384 0.00887 0.0
C746 C 0.31403 0.55523 0.02638 0.0
C747 C 0.31466 0.57755 0.01924 0.0
C748 C 0.31375 0.55014 0.05224 0.0
C749 C 0.31136 0.5142 0.01543 0.0
C750 C 0.29681 0.55868 0.06666 0.0
C751 C 0.29686 0.55483 0.0912 0.0
C752 C 0.31391 0.54239 0.10187 0.0
C753 C 0.33071 0.53356 0.08731 0.0
C754 C 0.33068 0.53751 0.06273 0.0
H755 H 0.30508 0.50406 0.00034 0.0
H756 H 0.32802 0.50789 0.02033 0.0
H757 H 0.30019 0.51183 0.03095 0.0
H758 H 0.28359 0.56847 0.05893 0.0
H759 H 0.28364 0.56187 0.10183 0.0
H760 H 0.57225 0.29243 0.89783 0.0
H761 H 0.57837 0.29228 0.9407 0.0
H762 H 0.52074 0.33351 0.95064 0.0
H763 H 0.51486 0.33438 0.90744 0.0
H764 H 0.55498 0.34821 0.97654 0.0
H765 H 0.54606 0.25791 0.99094 0.0
H766 H 0.56683 0.2641 0.96908 0.0
H767 H 0.53831 0.27111 0.96332 0.0
C768 C 0.5607 0.30133 0.90908 0.0
C769 C 0.54296 0.31333 0.89917 0.0
C770 C 0.56418 0.3011 0.93366 0.0
C771 C 0.54977 0.3125 0.94895 0.0
C772 C 0.532 0.32448 0.93917 0.0
H773 H 0.54741 0.2938 0.10183 0.0
H774 H 0.54007 0.29412 0.05918 0.0
C775 C 0.52863 0.32493 0.91449 0.0
C776 C 0.55382 0.31255 0.97504 0.0
H777 H 0.56251 0.27851 0.02273 0.0
C778 C 0.55646 0.33298 0.9867 0.0
C779 C 0.55549 0.29268 0.98834 0.0
C780 C 0.55129 0.27023 0.97732 0.0
C781 C 0.56107 0.33408 0.01121 0.0
C782 C 0.56377 0.31418 0.02426 0.0
C783 C 0.56078 0.29377 0.01266 0.0
C784 C 0.56871 0.31406 0.05019 0.0
C785 C 0.56248 0.35657 0.02291 0.0
C786 C 0.5875 0.32488 0.05938 0.0
C787 C 0.59164 0.32496 0.08394 0.0
C788 C 0.57728 0.31385 0.09967 0.0
C789 C 0.55886 0.3025 0.09027 0.0
C790 C 0.55461 0.30267 0.06584 0.0
H791 H 0.55383 0.36945 0.01225 0.0
H792 H 0.55517 0.35626 0.04106 0.0
H793 H 0.58014 0.36152 0.02444 0.0
H794 H 0.59897 0.33325 0.04759 0.0
H795 H 0.60606 0.3337 0.09058 0.0
H796 H 0.83771 0.55982 0.10101 0.0
H797 H 0.83796 0.55321 0.05812 0.0
H798 H 0.77608 0.58835 0.05117 0.0
H799 H 0.77585 0.59544 0.09412 0.0
H800 H 0.80733 0.52999 0.03223 0.0
H801 H 0.81369 0.61648 0.99913 0.0
H802 H 0.81892 0.60915 0.02981 0.0
H803 H 0.79094 0.61187 0.01915 0.0
C804 C 0.82424 0.56639 0.09037 0.0
C805 C 0.80676 0.57821 0.10104 0.0
C806 C 0.82441 0.56254 0.06584 0.0
C807 C 0.80714 0.57042 0.05142 0.0
C808 C 0.78979 0.58247 0.0619 0.0
H809 H 0.77665 0.52291 0.90806 0.0
H810 H 0.77669 0.52972 0.95108 0.0
C811 C 0.78965 0.58645 0.08647 0.0
C812 C 0.80695 0.56517 0.02561 0.0
H813 H 0.80673 0.58861 0.97024 0.0
C814 C 0.80723 0.5428 0.01865 0.0
C815 C 0.80705 0.58191 0.00796 0.0
C816 C 0.80784 0.6062 0.01432 0.0
C817 C 0.80752 0.5367 0.99451 0.0
C818 C 0.80708 0.55343 0.97686 0.0
C819 C 0.80689 0.5758 0.98382 0.0
C820 C 0.80746 0.5482 0.95105 0.0
C821 C 0.80881 0.51244 0.98813 0.0
C822 C 0.82464 0.55644 0.93675 0.0
C823 C 0.8246 0.55273 0.9122 0.0
C824 C 0.8073 0.54072 0.90138 0.0
C825 C 0.7903 0.53207 0.91582 0.0
C826 C 0.79033 0.5359 0.94043 0.0
H827 H 0.81474 0.50225 0.00335 0.0
H828 H 0.79206 0.50643 0.98311 0.0
H829 H 0.82005 0.50975 0.97273 0.0
H830 H 0.83803 0.56597 0.94458 0.0
H831 H 0.83798 0.55961 0.90167 0.0
H832 H 0.14461 0.23531 0.26994 0.0
H833 H 0.1711 0.20483 0.26666 0.0
H834 H 0.17032 0.19688 0.34306 0.0
H835 H 0.14436 0.22781 0.34654 0.0
H836 H 0.21158 0.19486 0.32615 0.0
H837 H 0.15775 0.13971 0.27229 0.0
H838 H 0.16238 0.16621 0.25865 0.0
H839 H 0.1475 0.16453 0.28639 0.0
C840 C 0.15006 0.22706 0.28605 0.0
C841 C 0.14227 0.2339 0.3085 0.0
C842 C 0.16509 0.20952 0.28412 0.0
C843 C 0.17235 0.19822 0.30455 0.0
C844 C 0.16486 0.20525 0.32702 0.0
H845 H 0.23357 0.06973 0.31599 0.0
H846 H 0.20843 0.10119 0.31244 0.0
C847 C 0.15001 0.22294 0.32898 0.0
C848 C 0.18802 0.1793 0.30267 0.0
H849 H 0.19503 0.12819 0.27755 0.0
C850 C 0.20796 0.18027 0.31552 0.0
C851 C 0.18317 0.16015 0.28903 0.0
C852 C 0.16145 0.15742 0.276 0.0
C853 C 0.22314 0.16265 0.3152 0.0
C854 C 0.2186 0.14376 0.30101 0.0
C855 C 0.19866 0.14279 0.28813 0.0
C856 C 0.23363 0.12425 0.30058 0.0
C857 C 0.2435 0.16416 0.33078 0.0
C858 C 0.25602 0.12646 0.29416 0.0
C859 C 0.27055 0.10852 0.29643 0.0
C860 C 0.26285 0.08789 0.30475 0.0
C861 C 0.2401 0.08535 0.30957 0.0
C862 C 0.22567 0.10337 0.30758 0.0
H863 H 0.24151 0.17674 0.34509 0.0
H864 H 0.24728 0.14794 0.3392 0.0
H865 H 0.25791 0.16914 0.31972 0.0
H866 H 0.2624 0.14224 0.288 0.0
H867 H 0.28791 0.11098 0.29231 0.0
H868 H 0.89024 0.14748 0.34603 0.0
H869 H 0.92048 0.17429 0.34252 0.0
H870 H 0.92219 0.16392 0.26646 0.0
H871 H 0.89252 0.1365 0.26997 0.0
H872 H 0.9627 0.16407 0.28375 0.0
H873 H 0.91854 0.23703 0.31973 0.0
H874 H 0.91838 0.21439 0.34042 0.0
H875 H 0.9044 0.21162 0.31219 0.0
C876 C 0.89697 0.15102 0.32854 0.0
C877 C 0.88894 0.13991 0.30828 0.0
C878 C 0.91416 0.16648 0.32652 0.0
C879 C 0.92335 0.1715 0.30415 0.0
C880 C 0.91532 0.16042 0.2839 0.0
H881 H 0.01233 0.28527 0.28958 0.0
H882 H 0.98159 0.2593 0.28408 0.0
C883 C 0.89834 0.14475 0.28594 0.0
C884 C 0.9419 0.18763 0.30197 0.0
H885 H 0.95807 0.23997 0.31729 0.0
C886 C 0.9616 0.18075 0.29087 0.0
C887 C 0.94038 0.20956 0.3108 0.0
C888 C 0.91919 0.21867 0.32121 0.0
C889 C 0.98001 0.19492 0.28905 0.0
C890 C 0.97896 0.21635 0.29927 0.0
C891 C 0.95902 0.22347 0.30967 0.0
C892 C 0.99848 0.23142 0.3002 0.0
C893 C 1.00028 0.18677 0.27597 0.0
C894 C 0.01836 0.22437 0.31077 0.0
C895 C 0.03607 0.23909 0.31361 0.0
C896 C 0.03411 0.26135 0.30643 0.0
C897 C 0.01437 0.26828 0.29538 0.0
C898 C 0.99676 0.25345 0.29225 0.0
H899 H 0.99585 0.17407 0.26245 0.0
H900 H 0.0091 0.20056 0.26692 0.0
H901 H 0.01178 0.17892 0.28889 0.0
H902 H 0.01994 0.20769 0.31768 0.0
H903 H 0.05091 0.23324 0.32246 0.0
H904 H 0.88666 0.05381 0.30806 0.0
H905 H 0.91259 0.02302 0.30345 0.0
H906 H 0.85807 0.97675 0.30409 0.0
H907 H 0.83196 0.00741 0.30829 0.0
H908 H 0.91812 0.98992 0.33618 0.0
H909 H 0.89509 0.95414 0.24859 0.0
H910 H 0.88637 0.98143 0.2579 0.0
H911 H 0.87204 0.95721 0.26853 0.0
C912 C 0.88011 0.03713 0.30675 0.0
C913 C 0.8572 0.03311 0.30863 0.0
C914 C 0.89498 0.01954 0.30417 0.0
C915 C 0.88728 0.99759 0.30327 0.0
C916 C 0.86438 0.99356 0.3043 0.0
H917 H 0.9629 0.88068 0.34302 0.0
H918 H 0.93629 0.9112 0.34067 0.0
C919 C 0.84947 0.01114 0.30682 0.0
C920 C 0.90326 0.97891 0.30334 0.0
H921 H 0.91862 0.93214 0.27328 0.0
C922 C 0.91832 0.97736 0.32234 0.0
C923 C 0.9036 0.96262 0.2852 0.0
C924 C 0.88856 0.96399 0.26377 0.0
C925 C 0.93349 0.95981 0.32392 0.0
C926 C 0.93332 0.94309 0.30623 0.0
C927 C 0.91854 0.94483 0.28698 0.0
C928 C 0.94871 0.92394 0.30717 0.0
C929 C 0.94981 0.95953 0.34432 0.0
C930 C 0.96403 0.92053 0.28874 0.0
C931 C 0.97914 0.90301 0.28994 0.0
C932 C 0.97919 0.88852 0.30959 0.0
C933 C 0.96345 0.89166 0.32776 0.0
C934 C 0.94829 0.90915 0.3265 0.0
H935 H 0.95167 0.97618 0.35254 0.0
H936 H 0.94378 0.94798 0.35828 0.0
H937 H 0.96636 0.95376 0.3383 0.0
H938 H 0.96457 0.93169 0.27362 0.0
H939 H 0.99099 0.90104 0.2756 0.0
H940 H 0.1969 0.00753 0.33659 0.0
H941 H 0.16856 0.97924 0.32975 0.0
H942 H 0.21918 0.93241 0.30972 0.0
H943 H 0.24773 0.96055 0.31669 0.0
H944 H 0.15958 0.95523 0.28684 0.0
H945 H 0.18339 0.89982 0.36184 0.0
H946 H 0.1927 0.92821 0.35984 0.0
H947 H 0.20535 0.90721 0.34171 0.0
C948 C 0.20206 0.99119 0.33084 0.0
C949 C 0.22461 0.98628 0.32732 0.0
C950 C 0.18582 0.97507 0.32686 0.0
C951 C 0.19179 0.9537 0.31945 0.0
C952 C 0.21425 0.94873 0.31578 0.0
H953 H 0.11099 0.83486 0.30207 0.0
H954 H 0.1414 0.86157 0.2997 0.0
C955 C 0.23053 0.96485 0.31971 0.0
C956 C 0.17442 0.9367 0.3155 0.0
H957 H 0.15459 0.88752 0.33674 0.0
C958 C 0.15849 0.94038 0.29769 0.0
C959 C 0.17313 0.91733 0.32961 0.0
C960 C 0.18942 0.91288 0.34946 0.0
C961 C 0.14125 0.92517 0.29363 0.0
C962 C 0.13968 0.90602 0.30809 0.0
C963 C 0.15586 0.90217 0.32561 0.0
C964 C 0.12082 0.89027 0.30631 0.0
C965 C 0.12501 0.92968 0.27376 0.0
C966 C 0.09906 0.89756 0.31038 0.0
C967 C 0.0816 0.88236 0.31162 0.0
C968 C 0.08559 0.85949 0.30912 0.0
C969 C 0.10729 0.85233 0.30411 0.0
C970 C 0.12473 0.86757 0.3028 0.0
H971 H 0.13231 0.9407 0.25996 0.0
H972 H 0.11951 0.91405 0.26512 0.0
H973 H 0.11022 0.93814 0.28118 0.0
H974 H 0.09569 0.91493 0.31365 0.0
H975 H 0.06514 0.88848 0.31561 0.0
H976 H 0.23416 0.05278 0.69564 0.0
H977 H 0.20811 0.02204 0.70025 0.0
H978 H 0.26244 0.97565 0.69948 0.0
H979 H 0.28866 0.00624 0.69535 0.0
H980 H 0.20208 0.98932 0.66774 0.0
H981 H 0.22567 0.95252 0.75459 0.0
H982 H 0.23469 0.97977 0.74544 0.0
H983 H 0.24865 0.95547 0.73453 0.0
C984 C 0.24064 0.03608 0.69695 0.0
C985 C 0.26354 0.03201 0.69506 0.0
C986 C 0.2257 0.01852 0.69953 0.0
C987 C 0.23331 0.99655 0.70038 0.0
C988 C 0.25618 0.99247 0.69934 0.0
H989 H 0.15749 0.88006 0.65927 0.0
H990 H 0.18398 0.91071 0.66192 0.0
C991 C 0.27117 0.01002 0.69686 0.0
C992 C 0.21725 0.97787 0.70023 0.0
H993 H 0.20222 0.93059 0.72962 0.0
C994 C 0.20202 0.97656 0.68136 0.0
C995 C 0.21706 0.96132 0.7181 0.0
C996 C 0.23225 0.9624 0.73944 0.0
C997 C 0.18685 0.95898 0.67964 0.0
C998 C 0.18722 0.94198 0.69701 0.0
C999 C 0.20216 0.94349 0.71615 0.0
C1000 C 0.1719 0.92274 0.69585 0.0
C1001 C 0.17034 0.95898 0.65942 0.0
C1002 C 0.15682 0.91887 0.71442 0.0
C1003 C 0.14179 0.90126 0.71305 0.0
C1004 C 0.14157 0.88715 0.69309 0.0
C1005 C 0.15707 0.89074 0.67478 0.0
C1006 C 0.17216 0.90832 0.67621 0.0
H1007 H 0.16832 0.97578 0.65159 0.0
H1008 H 0.1763 0.94775 0.64514 0.0
H1009 H 0.15388 0.95298 0.66549 0.0
H1010 H 0.15641 0.92972 0.72979 0.0
H1011 H 0.13013 0.89894 0.72751 0.0
H1012 H 0.11274 0.28623 0.69296 0.0
H1013 H 0.14279 0.25899 0.69357 0.0
H1014 H 0.09508 0.20597 0.68876 0.0
H1015 H 0.06492 0.23294 0.68804 0.0
H1016 H 0.15145 0.21964 0.72359 0.0
H1017 H 0.13535 0.20007 0.62833 0.0
H1018 H 0.1247 0.22469 0.64258 0.0
H1019 H 0.11165 0.19833 0.64764 0.0
C1020 C 0.10857 0.26877 0.69242 0.0
C1021 C 0.08639 0.26181 0.69012 0.0
C1022 C 0.12579 0.25324 0.69277 0.0
C1023 C 0.12113 0.23054 0.69077 0.0
C1024 C 0.099 0.22346 0.68995 0.0
H1025 H 0.19674 0.11129 0.66712 0.0
H1026 H 0.16825 0.13944 0.67327 0.0
C1027 C 0.08178 0.23893 0.68963 0.0
C1028 C 0.13935 0.21432 0.68798 0.0
H1029 H 0.16181 0.17791 0.6482 0.0
C1030 C 0.15383 0.21054 0.70712 0.0
C1031 C 0.14239 0.2026 0.6664 0.0
C1032 C 0.12785 0.20669 0.64495 0.0
C1033 C 0.17094 0.1948 0.70546 0.0
C1034 C 0.17386 0.18294 0.68392 0.0
C1035 C 0.15951 0.18696 0.66472 0.0
C1036 C 0.19139 0.16592 0.68092 0.0
C1037 C 0.18533 0.19058 0.72698 0.0
C1038 C 0.21391 0.17151 0.68293 0.0
C1039 C 0.23029 0.15541 0.67946 0.0
C1040 C 0.22442 0.13347 0.67371 0.0
C1041 C 0.20185 0.12801 0.67152 0.0
C1042 C 0.18553 0.14408 0.67505 0.0
H1043 H 0.17748 0.19672 0.74363 0.0
H1044 H 0.18887 0.17262 0.72902 0.0
H1045 H 0.20134 0.19939 0.72472 0.0
H1046 H 0.21884 0.18838 0.6869 0.0
H1047 H 0.24752 0.16018 0.6812 0.0
H1048 H 0.88621 0.06738 0.69744 0.0
H1049 H 0.91237 0.09804 0.70185 0.0
H1050 H 0.85822 0.14463 0.70069 0.0
H1051 H 0.83188 0.11411 0.69671 0.0
H1052 H 0.9184 0.13054 0.66896 0.0
H1053 H 0.89524 0.16798 0.75562 0.0
H1054 H 0.88614 0.14068 0.74673 0.0
H1055 H 0.87222 0.16494 0.73561 0.0
C1056 C 0.87978 0.08411 0.69862 0.0
C1057 C 0.8569 0.08824 0.69666 0.0
C1058 C 0.89479 0.10163 0.70109 0.0
C1059 C 0.88727 0.12364 0.70176 0.0
C1060 C 0.8644 0.12778 0.70068 0.0
H1061 H 0.96345 0.2396 0.6598 0.0
H1062 H 0.9368 0.20911 0.66277 0.0
C1063 C 0.84935 0.11027 0.6983 0.0
C1064 C 0.90341 0.14224 0.70143 0.0
H1065 H 0.91888 0.18955 0.73051 0.0
C1066 C 0.91859 0.14336 0.68251 0.0
C1067 C 0.90376 0.15888 0.7192 0.0
C1068 C 0.88862 0.15801 0.74057 0.0
C1069 C 0.93387 0.16083 0.68064 0.0
C1070 C 0.93369 0.17791 0.69792 0.0
C1071 C 0.9188 0.17659 0.71711 0.0
C1072 C 0.94914 0.19703 0.69658 0.0
C1073 C 0.95029 0.16065 0.66035 0.0
C1074 C 0.96444 0.20081 0.71497 0.0
C1075 C 0.97959 0.2183 0.71341 0.0
C1076 C 0.97969 0.23242 0.69344 0.0
C1077 C 0.96397 0.22892 0.67531 0.0
C1078 C 0.94878 0.21144 0.67693 0.0
H1079 H 0.95212 0.14383 0.65253 0.0
H1080 H 0.94439 0.17193 0.64608 0.0
H1081 H 0.96684 0.1665 0.66635 0.0
H1082 H 0.96493 0.18995 0.73034 0.0
H1083 H 0.99141 0.22056 0.72773 0.0
H1084 H 0.0086 0.83531 0.6968 0.0
H1085 H 0.97907 0.86307 0.69787 0.0
H1086 H 0.02764 0.91521 0.69177 0.0
H1087 H 0.05728 0.88768 0.6905 0.0
H1088 H 0.97088 0.90217 0.72719 0.0
H1089 H 0.98727 0.92198 0.63206 0.0
H1090 H 0.99798 0.89739 0.64631 0.0
H1091 H 0.01096 0.92378 0.65138 0.0
C1092 C 0.01308 0.85269 0.6961 0.0
C1093 C 0.03533 0.85922 0.69321 0.0
C1094 C 0.99615 0.86852 0.69671 0.0
C1095 C 1.00118 0.89113 0.6944 0.0
C1096 C 0.02342 0.8978 0.69314 0.0
H1097 H 0.92487 0.01027 0.67027 0.0
H1098 H 0.95372 0.98257 0.67692 0.0
C1099 C 0.04035 0.88201 0.69253 0.0
C1100 C 0.98316 0.90761 0.69167 0.0
H1101 H 0.96085 0.94415 0.6519 0.0
C1102 C 0.96861 0.91135 0.71075 0.0
C1103 C 0.98022 0.91943 0.67013 0.0
C1104 C 0.99478 0.91538 0.64869 0.0
C1105 C 0.95147 0.92706 0.70903 0.0
C1106 C 0.94862 0.93897 0.6875 0.0
C1107 C 0.96311 0.93507 0.6684 0.0
C1108 C 0.9309 0.95576 0.68434 0.0
C1109 C 0.93694 0.93115 0.73045 0.0
C1110 C 0.90844 0.94984 0.68607 0.0
C1111 C 0.89186 0.96568 0.68231 0.0
C1112 C 0.89746 0.98769 0.67654 0.0
C1113 C 0.91997 0.99349 0.67467 0.0
C1114 C 0.9365 0.97768 0.67849 0.0
H1115 H 0.94478 0.9251 0.74715 0.0
H1116 H 0.93321 0.94908 0.73245 0.0
H1117 H 0.92103 0.92217 0.72811 0.0
H1118 H 0.90372 0.93291 0.69001 0.0
H1119 H 0.87468 0.96063 0.6838 0.0
H1120 H 0.64636 0.73506 0.7707 0.0
H1121 H 0.67296 0.70461 0.76791 0.0
H1122 H 0.67071 0.69646 0.84426 0.0
H1123 H 0.64467 0.72736 0.84726 0.0
H1124 H 0.71223 0.6945 0.82834 0.0
H1125 H 0.6595 0.63951 0.77302 0.0
H1126 H 0.66449 0.66604 0.75958 0.0
H1127 H 0.64898 0.66432 0.78692 0.0
C1128 C 0.65151 0.72677 0.7869 0.0
C1129 C 0.6433 0.73353 0.80919 0.0
C1130 C 0.66661 0.70926 0.78525 0.0
C1131 C 0.67348 0.69791 0.80582 0.0
C1132 C 0.66556 0.70488 0.82813 0.0
H1133 H 0.73373 0.56917 0.81852 0.0
H1134 H 0.70893 0.60088 0.81461 0.0
C1135 C 0.65066 0.72254 0.82982 0.0
C1136 C 0.68917 0.67901 0.80425 0.0
H1137 H 0.69658 0.62787 0.77934 0.0
C1138 C 0.70882 0.67993 0.81763 0.0
C1139 C 0.68457 0.65987 0.79048 0.0
C1140 C 0.66315 0.65721 0.77687 0.0
C1141 C 0.72392 0.66224 0.81775 0.0
C1142 C 0.71963 0.64336 0.80346 0.0
C1143 C 0.70002 0.64247 0.79001 0.0
C1144 C 0.73455 0.62378 0.80348 0.0
C1145 C 0.74391 0.66369 0.83388 0.0
C1146 C 0.7571 0.62587 0.79767 0.0
C1147 C 0.77142 0.60779 0.80016 0.0
C1148 C 0.76337 0.58717 0.8081 0.0
C1149 C 0.74052 0.5848 0.81242 0.0
C1150 C 0.72629 0.60294 0.81021 0.0
H1151 H 0.74162 0.67628 0.84812 0.0
H1152 H 0.74742 0.64746 0.84242 0.0
H1153 H 0.75859 0.6686 0.82322 0.0
H1154 H 0.76373 0.64161 0.79173 0.0
H1155 H 0.78888 0.61011 0.79642 0.0
H1156 H 0.55215 0.7324 0.82095 0.0
H1157 H 0.52105 0.70699 0.81617 0.0
H1158 H 0.48144 0.75994 0.78693 0.0
H1159 H 0.51229 0.78574 0.79257 0.0
H1160 H 0.45912 0.7392 0.81985 0.0
H1161 H 0.495 0.67568 0.76048 0.0
H1162 H 0.51177 0.67939 0.78652 0.0
H1163 H 0.50844 0.70195 0.76575 0.0
C1164 C 0.53698 0.73858 0.81306 0.0
C1165 C 0.53474 0.76113 0.80713 0.0
C1166 C 0.5192 0.72396 0.81021 0.0
C1167 C 0.49894 0.73141 0.80085 0.0
C1168 C 0.49691 0.75376 0.79414 0.0
H1169 H 0.39192 0.63791 0.7697 0.0
H1170 H 0.42164 0.66533 0.76655 0.0
C1171 C 0.51459 0.76849 0.79731 0.0
C1172 C 0.47939 0.71636 0.79995 0.0
H1173 H 0.4625 0.66483 0.78244 0.0
C1174 C 0.45979 0.72305 0.8114 0.0
C1175 C 0.48006 0.69539 0.78865 0.0
C1176 C 0.49988 0.68779 0.77444 0.0
C1177 C 0.44114 0.70915 0.81246 0.0
C1178 C 0.44232 0.68761 0.80251 0.0
C1179 C 0.46167 0.68118 0.79041 0.0
C1180 C 0.42377 0.67145 0.8045 0.0
C1181 C 0.4203 0.71787 0.824 0.0
C1182 C 0.41511 0.6656 0.82688 0.0
C1183 C 0.39787 0.65016 0.8287 0.0
C1184 C 0.38929 0.63988 0.8082 0.0
C1185 C 0.39818 0.64552 0.78584 0.0
C1186 C 0.41519 0.66119 0.78401 0.0
H1187 H 0.41967 0.73627 0.82339 0.0
H1188 H 0.40522 0.71122 0.81518 0.0
H1189 H 0.42004 0.71283 0.84302 0.0
H1190 H 0.42186 0.67275 0.84303 0.0
H1191 H 0.39156 0.64599 0.84621 0.0
H1192 H 0.49077 0.40009 0.77222 0.0
H1193 H 0.46445 0.43084 0.77041 0.0
H1194 H 0.43831 0.4121 0.83904 0.0
H1195 H 0.46481 0.38149 0.8412 0.0
H1196 H 0.41845 0.43156 0.77189 0.0
H1197 H 0.45445 0.47728 0.84849 0.0
H1198 H 0.46854 0.45447 0.83426 0.0
H1199 H 0.44672 0.44925 0.85537 0.0
C1200 C 0.47942 0.40247 0.78694 0.0
C1201 C 0.48004 0.38844 0.80697 0.0
C1202 C 0.46436 0.42005 0.78585 0.0
C1203 C 0.44968 0.42398 0.80476 0.0
C1204 C 0.44983 0.40965 0.82448 0.0
H1205 H 0.33276 0.5069 0.80861 0.0
H1206 H 0.35897 0.47642 0.80389 0.0
C1207 C 0.46492 0.3921 0.82563 0.0
C1208 C 0.43435 0.44319 0.80392 0.0
H1209 H 0.42018 0.49058 0.83341 0.0
C1210 C 0.41886 0.44453 0.78528 0.0
C1211 C 0.43517 0.46027 0.82116 0.0
C1212 C 0.45224 0.46044 0.84083 0.0
C1213 C 0.40383 0.46226 0.78373 0.0
C1214 C 0.4041 0.47889 0.80152 0.0
C1215 C 0.41989 0.47776 0.81986 0.0
C1216 C 0.38797 0.49747 0.80182 0.0
C1217 C 0.38802 0.46316 0.76293 0.0
C1218 C 0.39552 0.51949 0.80225 0.0
C1219 C 0.38059 0.53699 0.80516 0.0
C1220 C 0.35777 0.53281 0.80783 0.0
C1221 C 0.35018 0.51076 0.80651 0.0
C1222 C 0.36515 0.49328 0.80368 0.0
H1223 H 0.39417 0.45324 0.74762 0.0
H1224 H 0.37179 0.45618 0.76845 0.0
H1225 H 0.38534 0.48049 0.75691 0.0
H1226 H 0.41307 0.5231 0.80088 0.0
H1227 H 0.38703 0.55373 0.80607 0.0
H1228 H 0.71583 0.49583 0.77634 0.0
H1229 H 0.68539 0.46919 0.77371 0.0
H1230 H 0.70844 0.43712 0.83777 0.0
H1231 H 0.73883 0.46389 0.84075 0.0
H1232 H 0.68578 0.42301 0.7703 0.0
H1233 H 0.64347 0.45104 0.85279 0.0
H1234 H 0.66516 0.46693 0.83868 0.0
H1235 H 0.67198 0.44345 0.85699 0.0
C1236 C 0.71446 0.48312 0.7899 0.0
C1237 C 0.72967 0.48211 0.80888 0.0
C1238 C 0.69706 0.46788 0.78832 0.0
C1239 C 0.69446 0.45139 0.80573 0.0
C1240 C 0.70989 0.44999 0.8244 0.0
H1241 H 0.61261 0.3335 0.80245 0.0
H1242 H 0.64273 0.36031 0.79867 0.0
C1243 C 0.72731 0.46525 0.82602 0.0
C1244 C 0.67548 0.43578 0.80438 0.0
H1245 H 0.62958 0.41837 0.83461 0.0
C1246 C 0.67344 0.42202 0.78431 0.0
C1247 C 0.65922 0.43478 0.8225 0.0
C1248 C 0.65987 0.44997 0.84386 0.0
C1249 C 0.65578 0.40694 0.78212 0.0
C1250 C 0.63994 0.40542 0.80063 0.0
C1251 C 0.64179 0.41948 0.82047 0.0
C1252 C 0.62147 0.38915 0.80014 0.0
C1253 C 0.65408 0.393 0.75987 0.0
C1254 C 0.59946 0.39642 0.80213 0.0
C1255 C 0.58216 0.38113 0.80445 0.0
C1256 C 0.58656 0.35823 0.80499 0.0
C1257 C 0.60857 0.35099 0.80201 0.0
C1258 C 0.62585 0.36631 0.79974 0.0
H1259 H 0.66346 0.40047 0.74484 0.0
H1260 H 0.66119 0.37637 0.76346 0.0
H1261 H 0.63654 0.39082 0.75435 0.0
H1262 H 0.59571 0.41398 0.80251 0.0
H1263 H 0.56544 0.38732 0.80668 0.0
H1264 H 0.64714 0.39084 0.15513 0.0
H1265 H 0.67366 0.42131 0.15862 0.0
H1266 H 0.67208 0.41533 0.23522 0.0
H1267 H 0.64497 0.38532 0.23189 0.0
H1268 H 0.66944 0.45754 0.22235 0.0
H1269 H 0.73861 0.41867 0.1731 0.0
H1270 H 0.71381 0.41966 0.15555 0.0
H1271 H 0.71448 0.40324 0.18236 0.0
C1272 C 0.65255 0.3959 0.17272 0.0
C1273 C 0.64401 0.3856 0.19323 0.0
C1274 C 0.66784 0.41324 0.17469 0.0
C1275 C 0.67523 0.42035 0.19717 0.0
C1276 C 0.66672 0.41008 0.21767 0.0
H1277 H 0.7884 0.51042 0.20704 0.0
H1278 H 0.76351 0.47883 0.21262 0.0
C1279 C 0.65123 0.3929 0.21574 0.0
C1280 C 0.69119 0.43904 0.19931 0.0
H1281 H 0.74122 0.45785 0.17934 0.0
C1282 C 0.68524 0.45752 0.21314 0.0
C1283 C 0.71201 0.43888 0.1877 0.0
C1284 C 0.72022 0.41894 0.17407 0.0
C1285 C 0.69919 0.47609 0.21503 0.0
C1286 C 0.71939 0.47648 0.20219 0.0
C1287 C 0.72565 0.45771 0.189 0.0
C1288 C 0.73398 0.49635 0.20145 0.0
C1289 C 0.69219 0.49499 0.23095 0.0
C1290 C 0.72566 0.51685 0.19366 0.0
C1291 C 0.7398 0.53503 0.19079 0.0
C1292 C 0.76266 0.53297 0.19516 0.0
C1293 C 0.77089 0.51258 0.2035 0.0
C1294 C 0.75668 0.49447 0.20664 0.0
H1295 H 0.68097 0.48916 0.24535 0.0
H1296 H 0.70671 0.50329 0.23921 0.0
H1297 H 0.68298 0.50738 0.22022 0.0
H1298 H 0.70836 0.51861 0.18891 0.0
H1299 H 0.73292 0.5504 0.1841 0.0
H1300 H 0.72878 0.64582 0.15534 0.0
H1301 H 0.69863 0.67274 0.15814 0.0
H1302 H 0.69877 0.66619 0.23471 0.0
H1303 H 0.72833 0.63862 0.23196 0.0
H1304 H 0.65794 0.66568 0.21881 0.0
H1305 H 0.70121 0.73647 0.17691 0.0
H1306 H 0.70069 0.71281 0.1576 0.0
H1307 H 0.7155 0.71145 0.18546 0.0
C1308 C 0.72248 0.65022 0.17279 0.0
C1309 C 0.73099 0.64014 0.19344 0.0
C1310 C 0.70534 0.66575 0.17438 0.0
C1311 C 0.6967 0.67189 0.19668 0.0
C1312 C 0.70521 0.66182 0.21731 0.0
H1313 H 0.609 0.78671 0.20772 0.0
H1314 H 0.63978 0.76083 0.21314 0.0
C1315 C 0.72212 0.64607 0.21571 0.0
C1316 C 0.67825 0.68815 0.19844 0.0
H1317 H 0.66179 0.73963 0.18046 0.0
C1318 C 0.65887 0.68194 0.21062 0.0
C1319 C 0.67957 0.70957 0.1882 0.0
C1320 C 0.70046 0.71806 0.17655 0.0
C1321 C 0.64058 0.69625 0.21223 0.0
C1322 C 0.64138 0.71711 0.20067 0.0
C1323 C 0.66101 0.72357 0.18911 0.0
C1324 C 0.62196 0.73227 0.1997 0.0
C1325 C 0.62074 0.68891 0.22659 0.0
C1326 C 0.60157 0.72485 0.19061 0.0
C1327 C 0.58383 0.73952 0.18791 0.0
C1328 C 0.58625 0.76208 0.19368 0.0
C1329 C 0.60657 0.76944 0.20311 0.0
C1330 C 0.6242 0.75467 0.20616 0.0
H1331 H 0.62557 0.67691 0.24069 0.0
H1332 H 0.61231 0.7032 0.23515 0.0
H1333 H 0.60876 0.68046 0.21465 0.0
H1334 H 0.59955 0.70785 0.18482 0.0
H1335 H 0.56852 0.73334 0.1803 0.0
H1336 H 0.49224 0.71947 0.22789 0.0
H1337 H 0.46606 0.68859 0.23019 0.0
H1338 H 0.437 0.70874 0.16339 0.0
H1339 H 0.46339 0.73948 0.16072 0.0
H1340 H 0.42027 0.6877 0.23114 0.0
H1341 H 0.45237 0.64387 0.1514 0.0
H1342 H 0.46713 0.66643 0.16536 0.0
H1343 H 0.44426 0.672 0.14569 0.0
C1344 C 0.48028 0.71737 0.21367 0.0
C1345 C 0.48004 0.73184 0.194 0.0
C1346 C 0.4653 0.69971 0.21505 0.0
C1347 C 0.44983 0.69614 0.19678 0.0
C1348 C 0.44913 0.7109 0.17744 0.0
H1349 H 0.3329 0.61297 0.19723 0.0
H1350 H 0.35931 0.64339 0.20132 0.0
C1351 C 0.46416 0.72853 0.176 0.0
C1352 C 0.43452 0.67688 0.19794 0.0
H1353 H 0.41892 0.6301 0.16808 0.0
C1354 C 0.42001 0.67505 0.21741 0.0
C1355 C 0.43448 0.66019 0.18023 0.0
C1356 C 0.45053 0.66054 0.1596 0.0
C1357 C 0.4051 0.65722 0.21936 0.0
C1358 C 0.40448 0.64099 0.20117 0.0
C1359 C 0.41931 0.64261 0.18196 0.0
C1360 C 0.38836 0.62237 0.20131 0.0
C1361 C 0.39037 0.65578 0.24103 0.0
C1362 C 0.39587 0.60039 0.19997 0.0
C1363 C 0.3808 0.58291 0.19744 0.0
C1364 C 0.35789 0.58709 0.19607 0.0
C1365 C 0.35039 0.60909 0.19833 0.0
C1366 C 0.36549 0.62655 0.20079 0.0
H1367 H 0.39726 0.66541 0.2562 0.0
H1368 H 0.37387 0.66277 0.23663 0.0
H1369 H 0.38806 0.63831 0.24676 0.0
H1370 H 0.41346 0.59679 0.20029 0.0
H1371 H 0.38719 0.56622 0.19576 0.0
H1372 H 0.50915 0.33473 0.19714 0.0
H1373 H 0.47931 0.36216 0.1983 0.0
H1374 H 0.52722 0.41483 0.19173 0.0
H1375 H 0.55718 0.38765 0.19041 0.0
H1376 H 0.47088 0.40194 0.22736 0.0
H1377 H 0.48657 0.41982 0.13164 0.0
H1378 H 0.49739 0.39552 0.14637 0.0
H1379 H 0.51035 0.42202 0.1508 0.0
C1380 C 0.51342 0.35216 0.19641 0.0
C1381 C 0.53558 0.35895 0.19332 0.0
C1382 C 0.49632 0.3678 0.19707 0.0
C1383 C 0.50107 0.39045 0.19461 0.0
C1384 C 0.52323 0.39738 0.19324 0.0
H1385 H 0.42442 0.50872 0.16827 0.0
H1386 H 0.45324 0.48108 0.17523 0.0
C1387 C 0.54033 0.38179 0.19259 0.0
C1388 C 0.48288 0.40668 0.19162 0.0
H1389 H 0.46008 0.44219 0.1511 0.0
C1390 C 0.46844 0.41074 0.21071 0.0
C1391 C 0.47971 0.41798 0.16979 0.0
C1392 C 0.49417 0.41355 0.14837 0.0
C1393 C 0.4512 0.42632 0.20874 0.0
C1394 C 0.44815 0.43774 0.18693 0.0
C1395 C 0.4625 0.43347 0.16781 0.0
C1396 C 0.43042 0.45449 0.18354 0.0
C1397 C 0.43681 0.43083 0.23017 0.0
C1398 C 0.40797 0.44867 0.18564 0.0
C1399 C 0.3914 0.46448 0.1817 0.0
C1400 C 0.397 0.48635 0.17537 0.0
C1401 C 0.41951 0.49204 0.1731 0.0
C1402 C 0.43603 0.47626 0.1771 0.0
H1403 H 0.44476 0.42511 0.24694 0.0
H1404 H 0.43309 0.44879 0.23179 0.0
H1405 H 0.42089 0.4218 0.22815 0.0
H1406 H 0.40324 0.43184 0.19004 0.0
H1407 H 0.37422 0.45953 0.18351 0.0
H1408 H 0.29232 0.46393 0.23949 0.0
H1409 H 0.26827 0.43401 0.25398 0.0
H1410 H 0.21548 0.45764 0.20873 0.0
H1411 H 0.23991 0.48645 0.1931 0.0
H1412 H 0.23148 0.43495 0.27807 0.0
H1413 H 0.21341 0.39367 0.19247 0.0
H1414 H 0.23458 0.41463 0.19528 0.0
H1415 H 0.20597 0.42238 0.19117 0.0
C1416 C 0.27569 0.46246 0.2324 0.0
C1417 C 0.26797 0.47753 0.21521 0.0
C1418 C 0.26192 0.44545 0.24076 0.0
C1419 C 0.24014 0.44324 0.23215 0.0
C1420 C 0.23237 0.45852 0.2152 0.0
H1421 H 0.13084 0.38136 0.30549 0.0
H1422 H 0.15951 0.40584 0.28982 0.0
C1423 C 0.24623 0.47527 0.20658 0.0
C1424 C 0.22519 0.42564 0.24161 0.0
H1425 H 0.18841 0.38551 0.22472 0.0
C1426 C 0.22227 0.42397 0.26638 0.0
C1427 C 0.21347 0.41091 0.2265 0.0
C1428 C 0.21722 0.41031 0.19991 0.0
C1429 C 0.20741 0.40862 0.27637 0.0
C1430 C 0.19445 0.39507 0.26114 0.0
C1431 C 0.19801 0.39613 0.23643 0.0
C1432 C 0.17679 0.3801 0.27039 0.0
C1433 C 0.206 0.40698 0.30317 0.0
C1434 C 0.17626 0.35759 0.2639 0.0
C1435 C 0.15934 0.34368 0.27222 0.0
C1436 C 0.14267 0.352 0.28722 0.0
C1437 C 0.14322 0.37451 0.29365 0.0
C1438 C 0.1599 0.38845 0.28506 0.0
H1439 H 0.22179 0.41219 0.3117 0.0
H1440 H 0.19279 0.41824 0.30969 0.0
H1441 H 0.20208 0.38984 0.30902 0.0
H1442 H 0.18898 0.35075 0.25244 0.0
H1443 H 0.15922 0.32646 0.26678 0.0
H1444 H 0.77372 0.16555 0.31424 0.0
H1445 H 0.74814 0.19342 0.29807 0.0
H1446 H 0.73314 0.15008 0.2391 0.0
H1447 H 0.75891 0.12232 0.25508 0.0
H1448 H 0.74728 0.21431 0.25084 0.0
H1449 H 0.67213 0.16423 0.27059 0.0
H1450 H 0.69866 0.15872 0.28425 0.0
H1451 H 0.69344 0.15015 0.25412 0.0
C1452 C 0.76523 0.16219 0.29761 0.0
C1453 C 0.76834 0.14191 0.28577 0.0
C1454 C 0.75057 0.17802 0.28848 0.0
C1455 C 0.7386 0.1737 0.26754 0.0
C1456 C 0.74202 0.15362 0.25545 0.0
H1457 H 0.63491 0.23965 0.18828 0.0
H1458 H 0.66326 0.21443 0.20376 0.0
C1459 C 0.75675 0.13784 0.26452 0.0
C1460 C 0.7222 0.18997 0.25856 0.0
H1461 H 0.66689 0.19709 0.2483 0.0
C1462 C 0.72968 0.21064 0.25035 0.0
C1463 C 0.69928 0.18508 0.25799 0.0
C1464 C 0.69028 0.16343 0.26737 0.0
C1465 C 0.71487 0.22637 0.24096 0.0
C1466 C 0.69192 0.22146 0.24032 0.0
C1467 C 0.68447 0.20084 0.24876 0.0
C1468 C 0.6753 0.23723 0.2306 0.0
C1469 C 0.72402 0.24782 0.23121 0.0
C1470 C 0.67256 0.25842 0.24059 0.0
C1471 C 0.65637 0.27286 0.23171 0.0
C1472 C 0.64246 0.26619 0.21297 0.0
C1473 C 0.64524 0.24505 0.20297 0.0
C1474 C 0.66147 0.23068 0.21174 0.0
H1475 H 0.74198 0.2465 0.22708 0.0
H1476 H 0.71509 0.25289 0.21478 0.0
H1477 H 0.72191 0.26109 0.24471 0.0
H1478 H 0.68269 0.26367 0.25549 0.0
H1479 H 0.65443 0.28906 0.23976 0.0
H1480 H 0.84659 0.66527 0.18679 0.0
H1481 H 0.87231 0.6934 0.20226 0.0
H1482 H 0.88598 0.65191 0.2631 0.0
H1483 H 0.86011 0.62388 0.24778 0.0
H1484 H 0.87298 0.71604 0.24817 0.0
H1485 H 0.94756 0.66409 0.23248 0.0
H1486 H 0.92113 0.65829 0.2187 0.0
H1487 H 0.92587 0.65097 0.24931 0.0
C1488 C 0.85482 0.66238 0.20366 0.0
C1489 C 0.85133 0.64254 0.21622 0.0
C1490 C 0.86956 0.67836 0.2124 0.0
C1491 C 0.88121 0.67461 0.23368 0.0
C1492 C 0.87737 0.65498 0.24649 0.0
H1493 H 0.98427 0.74173 0.31273 0.0
H1494 H 0.95567 0.71656 0.29759 0.0
C1495 C 0.86258 0.63906 0.2378 0.0
C1496 C 0.89774 0.69099 0.24226 0.0
H1497 H 0.95294 0.6976 0.25362 0.0
C1498 C 0.89049 0.7121 0.24929 0.0
C1499 C 0.92055 0.68576 0.24363 0.0
C1500 C 0.92936 0.66363 0.23546 0.0
C1501 C 0.9054 0.72795 0.25831 0.0
C1502 C 0.92823 0.72268 0.25982 0.0
C1503 C 0.93545 0.70162 0.25252 0.0
C1504 C 0.94492 0.7385 0.26933 0.0
C1505 C 0.89648 0.74994 0.26678 0.0
C1506 C 0.94845 0.75921 0.25847 0.0
C1507 C 0.96479 0.77362 0.26715 0.0
C1508 C 0.97803 0.7674 0.28661 0.0
C1509 C 0.97443 0.74676 0.29751 0.0
C1510 C 0.95807 0.73243 0.28893 0.0
H1511 H 0.87839 0.74914 0.27035 0.0
H1512 H 0.90506 0.75545 0.28327 0.0
H1513 H 0.89929 0.76263 0.25279 0.0
H1514 H 0.93885 0.76407 0.24302 0.0
H1515 H 0.96736 0.78943 0.25843 0.0
H1516 H 0.36366 0.99908 0.25451 0.0
H1517 H 0.38901 0.97057 0.23932 0.0
H1518 H 0.37102 0.92762 0.29767 0.0
H1519 H 0.34579 0.95614 0.31295 0.0
H1520 H 0.4254 0.95235 0.26424 0.0
H1521 H 0.3647 0.88715 0.23891 0.0
H1522 H 0.35675 0.91563 0.24395 0.0
H1523 H 0.36199 0.89757 0.26877 0.0
C1524 C 0.36506 0.98347 0.26396 0.0
C1525 C 0.35274 0.97971 0.2848 0.0
C1526 C 0.37948 0.96722 0.25528 0.0
C1527 C 0.38169 0.94686 0.26719 0.0
C1528 C 0.36923 0.94301 0.28792 0.0
H1529 H 0.46776 0.83221 0.24381 0.0
H1530 H 0.43967 0.85815 0.25906 0.0
C1531 C 0.35485 0.95929 0.29663 0.0
C1532 C 0.39792 0.93019 0.25862 0.0
H1533 H 0.40272 0.87743 0.23702 0.0
C1534 C 0.42044 0.936 0.2582 0.0
C1535 C 0.39142 0.9088 0.25098 0.0
C1536 C 0.36739 0.90188 0.25044 0.0
C1537 C 0.43668 0.92097 0.2505 0.0
C1538 C 0.43017 0.89968 0.24248 0.0
C1539 C 0.40767 0.89376 0.24314 0.0
C1540 C 0.44649 0.88359 0.23284 0.0
C1541 C 0.46071 0.9279 0.25142 0.0
C1542 C 0.45921 0.88905 0.21272 0.0
C1543 C 0.47518 0.87435 0.20411 0.0
C1544 C 0.47865 0.85384 0.21535 0.0
C1545 C 0.46543 0.848 0.23496 0.0
C1546 C 0.44944 0.86278 0.24364 0.0
H1547 H 0.46337 0.9418 0.26411 0.0
H1548 H 0.4715 0.91384 0.25673 0.0
H1549 H 0.46595 0.93362 0.23348 0.0
H1550 H 0.45682 0.90475 0.20371 0.0
H1551 H 0.48486 0.87901 0.18865 0.0
H1552 H 0.27361 0.66479 0.81496 0.0
H1553 H 0.24778 0.69263 0.7992 0.0
H1554 H 0.23341 0.65004 0.73943 0.0
H1555 H 0.25938 0.62228 0.75505 0.0
H1556 H 0.24674 0.71446 0.75302 0.0
H1557 H 0.17213 0.66283 0.77021 0.0
H1558 H 0.19866 0.65717 0.78382 0.0
H1559 H 0.19363 0.64945 0.75337 0.0
C1560 C 0.26519 0.66159 0.79826 0.0
C1561 C 0.26852 0.64152 0.78609 0.0
C1562 C 0.25039 0.67741 0.78936 0.0
C1563 C 0.23851 0.67327 0.7683 0.0
C1564 C 0.24218 0.65341 0.75588 0.0
H1565 H 0.13518 0.73993 0.68906 0.0
H1566 H 0.16368 0.71471 0.70427 0.0
C1567 C 0.25703 0.63764 0.76473 0.0
C1568 C 0.22196 0.68952 0.75955 0.0
H1569 H 0.16669 0.69606 0.74856 0.0
C1570 C 0.22922 0.71053 0.75212 0.0
C1571 C 0.19913 0.6843 0.75845 0.0
C1572 C 0.19031 0.6623 0.76706 0.0
C1573 C 0.21428 0.72628 0.743 0.0
C1574 C 0.19143 0.72102 0.74178 0.0
C1575 C 0.1842 0.70006 0.74944 0.0
C1576 C 0.17471 0.73679 0.73228 0.0
C1577 C 0.2232 0.74815 0.73412 0.0
C1578 C 0.17134 0.75757 0.74302 0.0
C1579 C 0.15505 0.77199 0.73432 0.0
C1580 C 0.14169 0.76572 0.71497 0.0
C1581 C 0.1451 0.745 0.70421 0.0
C1582 C 0.16141 0.73064 0.71283 0.0
H1583 H 0.24126 0.74729 0.73039 0.0
H1584 H 0.2145 0.75347 0.71764 0.0
H1585 H 0.22054 0.76101 0.74796 0.0
H1586 H 0.18107 0.7625 0.75836 0.0
H1587 H 0.15263 0.78787 0.74293 0.0
H1588 H 0.36431 0.12112 0.74559 0.0
H1589 H 0.38957 0.14966 0.76095 0.0
H1590 H 0.36953 0.19377 0.70442 0.0
H1591 H 0.34439 0.1652 0.68896 0.0
H1592 H 0.42503 0.16893 0.73548 0.0
H1593 H 0.36437 0.23272 0.76448 0.0
H1594 H 0.35658 0.20427 0.75889 0.0
H1595 H 0.36098 0.22298 0.73443 0.0
C1596 C 0.36521 0.13699 0.7366 0.0
C1597 C 0.35235 0.14105 0.71621 0.0
C1598 C 0.37959 0.15326 0.74537 0.0
C1599 C 0.38122 0.17394 0.73401 0.0
C1600 C 0.36819 0.17811 0.71376 0.0
H1601 H 0.46676 0.28897 0.7584 0.0
H1602 H 0.43855 0.26312 0.74312 0.0
C1603 C 0.35385 0.16181 0.70495 0.0
C1604 C 0.39749 0.1906 0.74257 0.0
H1605 H 0.40233 0.24283 0.7656 0.0
C1606 C 0.42007 0.18506 0.74214 0.0
C1607 C 0.39098 0.21171 0.75103 0.0
C1608 C 0.36691 0.2183 0.75247 0.0
C1609 C 0.43635 0.20009 0.74983 0.0
C1610 C 0.42984 0.22107 0.75868 0.0
C1611 C 0.40727 0.22674 0.75884 0.0
C1612 C 0.44625 0.23708 0.76835 0.0
C1613 C 0.46041 0.19347 0.748 0.0
C1614 C 0.45951 0.23123 0.78792 0.0
C1615 C 0.47555 0.24589 0.79655 0.0
C1616 C 0.47854 0.26673 0.78588 0.0
C1617 C 0.46479 0.27293 0.76682 0.0
C1618 C 0.44874 0.25821 0.75812 0.0
H1619 H 0.46288 0.17996 0.73481 0.0
H1620 H 0.47093 0.2078 0.74283 0.0
H1621 H 0.46616 0.18734 0.76559 0.0
H1622 H 0.45749 0.21528 0.79651 0.0
H1623 H 0.48563 0.24093 0.81161 0.0
H1624 H 0.9686 0.33123 0.74456 0.0
H1625 H 0.93945 0.35609 0.75958 0.0
H1626 H 0.95619 0.40396 0.70536 0.0
H1627 H 0.98499 0.37909 0.69019 0.0
H1628 H 0.94493 0.40048 0.77644 0.0
H1629 H 0.88855 0.39664 0.6984 0.0
H1630 H 0.91015 0.37647 0.70349 0.0
H1631 H 0.9168 0.40315 0.69114 0.0
C1632 C 0.9659 0.34703 0.73585 0.0
C1633 C 0.97904 0.35337 0.71637 0.0
C1634 C 0.94933 0.36119 0.74442 0.0
C1635 C 0.9455 0.38174 0.7334 0.0
C1636 C 0.95863 0.38803 0.71389 0.0
H1637 H 0.86324 0.49697 0.75573 0.0
H1638 H 0.88888 0.46848 0.74109 0.0
C1639 C 0.97521 0.37394 0.7054 0.0
C1640 C 0.92832 0.39702 0.74271 0.0
H1641 H 0.88115 0.42473 0.72709 0.0
C1642 C 0.93085 0.40563 0.76578 0.0
C1643 C 0.91003 0.40376 0.72869 0.0
C1644 C 0.90603 0.3944 0.70413 0.0
C1645 C 0.91596 0.42136 0.77495 0.0
C1646 C 0.89778 0.42829 0.76083 0.0
C1647 C 0.89509 0.41943 0.73788 0.0
C1648 C 0.88169 0.44512 0.76935 0.0
C1649 C 0.92026 0.43098 0.79935 0.0
C1650 C 0.86886 0.44128 0.78982 0.0
C1651 C 0.85433 0.45755 0.79822 0.0
C1652 C 0.85221 0.47783 0.78613 0.0
C1653 C 0.86465 0.48146 0.76535 0.0
C1654 C 0.87922 0.46521 0.75698 0.0
H1655 H 0.93762 0.42818 0.80522 0.0
H1656 H 0.91688 0.44907 0.7996 0.0
H1657 H 0.90912 0.4229 0.81246 0.0
H1658 H 0.87021 0.42575 0.7994 0.0
H1659 H 0.84508 0.45447 0.81442 0.0
H1660 H 0.65974 0.82678 0.76713 0.0
H1661 H 0.68958 0.85106 0.75297 0.0
H1662 H 0.6616 0.90544 0.7928 0.0
H1663 H 0.63286 0.88089 0.80827 0.0
H1664 H 0.6888 0.88624 0.7263 0.0
H1665 H 0.72434 0.91104 0.8129 0.0
H1666 H 0.70433 0.88895 0.8103 0.0
H1667 H 0.69538 0.91743 0.81184 0.0
C1668 C 0.66022 0.84383 0.77314 0.0
C1669 C 0.64391 0.85195 0.78872 0.0
C1670 C 0.67719 0.85774 0.76494 0.0
C1671 C 0.67815 0.88005 0.77212 0.0
C1672 C 0.66167 0.88819 0.78748 0.0
H1673 H 0.73987 0.98728 0.69514 0.0
H1674 H 0.71573 0.95843 0.71111 0.0
C1675 C 0.64495 0.87423 0.79596 0.0
C1676 C 0.69571 0.89509 0.76276 0.0
H1677 H 0.73332 0.93449 0.77953 0.0
C1678 C 0.69871 0.89659 0.73798 0.0
C1679 C 0.70908 0.9083 0.77792 0.0
C1680 C 0.70829 0.90616 0.80471 0.0
C1681 C 0.71404 0.91146 0.72796 0.0
C1682 C 0.72615 0.92588 0.74307 0.0
C1683 C 0.72379 0.92377 0.76787 0.0
C1684 C 0.7409 0.94361 0.73355 0.0
C1685 C 0.7172 0.91129 0.70128 0.0
C1686 C 0.7629 0.94563 0.74157 0.0
C1687 C 0.77654 0.96268 0.73303 0.0
C1688 C 0.76847 0.97797 0.71626 0.0
C1689 C 0.74649 0.97594 0.70829 0.0
C1690 C 0.73277 0.95916 0.71709 0.0
H1691 H 0.71319 0.89478 0.69363 0.0
H1692 H 0.70579 0.92352 0.69306 0.0
H1693 H 0.73447 0.91565 0.69629 0.0
H1694 H 0.76954 0.93399 0.75442 0.0
H1695 H 0.79335 0.96399 0.73966 0.0
H1696 H 0.02251 0.73374 0.73688 0.0
H1697 H 0.9965 0.70932 0.75761 0.0
H1698 H 0.96364 0.69516 0.69108 0.0
H1699 H 0.98933 0.71998 0.67026 0.0
H1700 H 0.93453 0.70493 0.731 0.0
H1701 H 0.99767 0.64052 0.75132 0.0
H1702 H 0.00485 0.66828 0.76008 0.0
H1703 H 1.00194 0.66169 0.72902 0.0
C1704 C 0.00946 0.72587 0.72673 0.0
C1705 C 0.0077 0.7291 0.702 0.0
C1706 C 0.99481 0.71166 0.73855 0.0
C1707 C 0.97828 0.70035 0.72582 0.0
C1708 C 0.97631 0.70374 0.70119 0.0
H1709 H 0.88953 0.59311 0.76594 0.0
H1710 H 0.913 0.61928 0.74404 0.0
C1711 C 0.99101 0.71786 0.68935 0.0
C1712 C 0.96321 0.68474 0.73811 0.0
H1713 H 0.96205 0.63562 0.76838 0.0
C1714 C 0.94051 0.68975 0.73913 0.0
C1715 C 0.9711 0.66489 0.7485 0.0
C1716 C 0.99519 0.65833 0.74708 0.0
C1717 C 0.92554 0.67557 0.75074 0.0
C1718 C 0.93352 0.65595 0.76142 0.0
C1719 C 0.95612 0.65077 0.76017 0.0
C1720 C 0.91861 0.64072 0.77431 0.0
C1721 C 0.9013 0.68153 0.75171 0.0
C1722 C 0.91414 0.64422 0.7985 0.0
C1723 C 0.90065 0.62942 0.811 0.0
C1724 C 0.89127 0.61098 0.79944 0.0
C1725 C 0.89585 0.60752 0.77516 0.0
C1726 C 0.90944 0.62231 0.76268 0.0
H1727 H 0.89757 0.69699 0.74173 0.0
H1728 H 0.89123 0.66778 0.74419 0.0
H1729 H 0.89617 0.68375 0.77056 0.0
H1730 H 0.92124 0.65832 0.80773 0.0
H1731 H 0.89749 0.63245 0.82972 0.0
H1732 H 0.40231 0.98997 0.67117 0.0
H1733 H 0.42654 0.9646 0.69285 0.0
H1734 H 0.41092 0.99801 0.75866 0.0
H1735 H 0.3876 0.02416 0.73695 0.0
H1736 H 0.45498 0.99072 0.75376 0.0
H1737 H 0.40918 0.91297 0.73486 0.0
H1738 H 0.41651 0.92797 0.70839 0.0
H1739 H 0.39746 0.94001 0.72938 0.0
C1740 C 0.40393 0.99187 0.69029 0.0
C1741 C 0.39246 0.00873 0.7024 0.0
C1742 C 0.41763 0.9772 0.70268 0.0
C1743 C 0.42005 0.97901 0.72746 0.0
C1744 C 0.40895 0.99606 0.73958 0.0
H1745 H 0.49703 0.90595 0.83251 0.0
H1746 H 0.47092 0.93065 0.81227 0.0
C1747 C 0.39533 0.01083 0.72716 0.0
C1748 C 0.43499 0.96377 0.74055 0.0
H1749 H 0.44543 0.90903 0.75138 0.0
C1750 C 0.45277 0.97287 0.75341 0.0
C1751 C 0.43209 0.94048 0.74006 0.0
C1752 C 0.41265 0.92977 0.72763 0.0
C1753 C 0.46802 0.95928 0.76536 0.0
C1754 C 0.46529 0.93602 0.76453 0.0
C1755 C 0.44747 0.92689 0.75183 0.0
C1756 C 0.48084 0.9209 0.77676 0.0
C1757 C 0.48722 0.96981 0.77837 0.0
C1758 C 0.49487 0.90714 0.76344 0.0
C1759 C 0.50986 0.89308 0.77494 0.0
C1760 C 0.51078 0.89229 0.79996 0.0
C1761 C 0.49666 0.90613 0.81321 0.0
C1762 C 0.48176 0.92025 0.80171 0.0
H1763 H 0.48932 0.98755 0.77356 0.0
H1764 H 0.48426 0.96876 0.79786 0.0
H1765 H 0.50287 0.96087 0.77441 0.0
H1766 H 0.49448 0.90758 0.74414 0.0
H1767 H 0.52106 0.88335 0.76416 0.0
H1768 H 0.10091 0.38349 0.73673 0.0
H1769 H 0.12743 0.40754 0.75714 0.0
H1770 H 0.15211 0.43041 0.68937 0.0
H1771 H 0.12605 0.4059 0.66874 0.0
H1772 H 0.17658 0.40903 0.75093 0.0
H1773 H 0.13324 0.48744 0.72741 0.0
H1774 H 0.11968 0.46074 0.72638 0.0
H1775 H 0.13869 0.46859 0.70328 0.0
C1776 C 0.11235 0.39311 0.72611 0.0
C1777 C 0.11171 0.39234 0.70107 0.0
C1778 C 0.12732 0.40707 0.73783 0.0
C1779 C 0.14162 0.42076 0.72473 0.0
C1780 C 0.14105 0.42007 0.69977 0.0
H1781 H 0.23466 0.52419 0.76506 0.0
H1782 H 0.21155 0.49785 0.74331 0.0
C1783 C 0.12618 0.40605 0.68805 0.0
C1784 C 0.15702 0.43595 0.73718 0.0
H1785 H 0.16737 0.49071 0.74764 0.0
C1786 C 0.1746 0.4269 0.75029 0.0
C1787 C 0.15438 0.4592 0.73612 0.0
C1788 C 0.13541 0.46968 0.7227 0.0
C1789 C 0.18986 0.44056 0.7622 0.0
C1790 C 0.18707 0.46385 0.76144 0.0
C1791 C 0.1695 0.47287 0.7482 0.0
C1792 C 0.20192 0.47919 0.77458 0.0
C1793 C 0.20907 0.42991 0.77507 0.0
C1794 C 0.20401 0.47763 0.79942 0.0
C1795 C 0.21757 0.49242 0.81185 0.0
C1796 C 0.22927 0.50915 0.79972 0.0
C1797 C 0.22675 0.51098 0.77489 0.0
C1798 C 0.21325 0.49609 0.76244 0.0
H1799 H 0.21255 0.41303 0.76811 0.0
H1800 H 0.22434 0.44009 0.77343 0.0
H1801 H 0.20495 0.42833 0.79427 0.0
H1802 H 0.19492 0.46514 0.80927 0.0
H1803 H 0.21892 0.49073 0.83102 0.0
H1804 H 0.63391 0.25621 0.78892 0.0
H1805 H 0.66015 0.23278 0.76696 0.0
H1806 H 0.61899 0.17568 0.7803 0.0
H1807 H 0.59265 0.19895 0.80215 0.0
H1808 H 0.67923 0.18671 0.78918 0.0
H1809 H 0.63316 0.1836 0.70319 0.0
H1810 H 0.63126 0.20702 0.72319 0.0
H1811 H 0.61767 0.18151 0.73057 0.0
C1812 C 0.63027 0.23875 0.78681 0.0
C1813 C 0.61105 0.22944 0.79684 0.0
C1814 C 0.64535 0.22539 0.77448 0.0
C1815 C 0.64132 0.20263 0.77193 0.0
C1816 C 0.62223 0.19328 0.78201 0.0
H1817 H 0.69794 0.0913 0.69882 0.0
H1818 H 0.67462 0.11848 0.71925 0.0
C1819 C 0.60727 0.20656 0.79449 0.0
C1820 C 0.65719 0.18836 0.75912 0.0
H1821 H 0.6645 0.16051 0.70686 0.0
C1822 C 0.67621 0.18108 0.77111 0.0
C1823 C 0.65295 0.18104 0.73569 0.0
C1824 C 0.63272 0.18869 0.72221 0.0
C1825 C 0.69092 0.16604 0.76042 0.0
C1826 C 0.68666 0.15858 0.73692 0.0
C1827 C 0.66775 0.16624 0.72485 0.0
C1828 C 0.70108 0.14218 0.72482 0.0
C1829 C 0.71037 0.15764 0.77473 0.0
C1830 C 0.72365 0.14657 0.72094 0.0
C1831 C 0.73705 0.13095 0.70947 0.0
C1832 C 0.72802 0.11079 0.70152 0.0
C1833 C 0.70534 0.10666 0.70493 0.0
C1834 C 0.69202 0.12216 0.71657 0.0
H1835 H 0.70798 0.16034 0.79414 0.0
H1836 H 0.71312 0.13968 0.77157 0.0
H1837 H 0.72554 0.16671 0.76925 0.0
H1838 H 0.73085 0.16219 0.72648 0.0
H1839 H 0.75431 0.13489 0.70636 0.0
H1840 H 0.99762 0.40721 0.33253 0.0
H1841 H 0.97081 0.43154 0.31271 0.0
H1842 H 0.98963 0.40442 0.24457 0.0
H1843 H 0.01674 0.38038 0.26423 0.0
H1844 H 0.98069 0.46348 0.27677 0.0
H1845 H 0.92099 0.39986 0.24489 0.0
H1846 H 0.94091 0.39443 0.26821 0.0
H1847 H 0.94952 0.39467 0.23757 0.0
C1848 C 0.99586 0.4063 0.31334 0.0
C1849 C 0.00875 0.39143 0.29998 0.0
C1850 C 0.98056 0.42017 0.30207 0.0
C1851 C 0.97793 0.41943 0.27725 0.0
C1852 C 0.99098 0.40478 0.26382 0.0
H1853 H 0.90143 0.49141 0.17279 0.0
H1854 H 0.92562 0.46599 0.19455 0.0
C1855 C 0.00633 0.39095 0.27508 0.0
C1856 C 0.96236 0.43478 0.2653 0.0
H1857 H 0.91592 0.43652 0.2306 0.0
C1858 C 0.96643 0.45764 0.26679 0.0
C1859 C 0.94386 0.42704 0.25225 0.0
C1860 C 0.93836 0.40268 0.25073 0.0
C1861 C 0.95278 0.473 0.25508 0.0
C1862 C 0.93426 0.46528 0.242 0.0
C1863 C 0.93011 0.4424 0.24066 0.0
C1864 C 0.91929 0.48062 0.22908 0.0
C1865 C 0.95872 0.49729 0.25623 0.0
C1866 C 0.90755 0.49718 0.2413 0.0
C1867 C 0.89385 0.51187 0.22887 0.0
C1868 C 0.89131 0.51 0.20404 0.0
C1869 C 0.90298 0.49327 0.19192 0.0
C1870 C 0.91674 0.47867 0.20433 0.0
H1871 H 0.97631 0.49982 0.26145 0.0
H1872 H 0.95586 0.50553 0.2388 0.0
H1873 H 0.94817 0.50554 0.26977 0.0
H1874 H 0.90908 0.49882 0.26045 0.0
H1875 H 0.88577 0.52495 0.23872 0.0
H1876 H 0.62594 0.90578 0.16894 0.0
H1877 H 0.65202 0.93037 0.18944 0.0
H1878 H 0.62705 0.9081 0.25731 0.0
H1879 H 0.60046 0.8841 0.23705 0.0
H1880 H 0.63965 0.96478 0.22468 0.0
H1881 H 0.69663 0.90039 0.26043 0.0
H1882 H 0.67855 0.89539 0.23532 0.0
H1883 H 0.66747 0.89581 0.26499 0.0
C1884 C 0.62606 0.90603 0.18824 0.0
C1885 C 0.61153 0.89245 0.20134 0.0
C1886 C 0.64099 0.92005 0.19989 0.0
C1887 C 0.6417 0.9207 0.22484 0.0
C1888 C 0.62709 0.90739 0.23801 0.0
H1889 H 0.71754 0.99194 0.33058 0.0
H1890 H 0.69316 0.9669 0.30854 0.0
C1891 C 0.61204 0.89347 0.22637 0.0
C1892 C 0.65712 0.93595 0.23713 0.0
H1893 H 0.70259 0.93725 0.27326 0.0
C1894 C 0.6535 0.95884 0.23522 0.0
C1895 C 0.67504 0.92803 0.2509 0.0
C1896 C 0.67987 0.90357 0.253 0.0
C1897 C 0.66709 0.9741 0.2472 0.0
C1898 C 0.68512 0.96621 0.26094 0.0
C1899 C 0.68879 0.94327 0.2627 0.0
C1900 C 0.7001 0.98142 0.27407 0.0
C1901 C 0.66156 0.99845 0.24563 0.0
C1902 C 0.71223 0.99781 0.26201 0.0
C1903 C 0.72602 0.01232 0.27461 0.0
C1904 C 0.72829 0.01039 0.29947 0.0
C1905 C 0.71621 0.99384 0.31144 0.0
C1906 C 0.70234 0.97945 0.29886 0.0
H1907 H 0.64408 1.00116 0.24012 0.0
H1908 H 0.66432 0.00687 0.26298 0.0
H1909 H 0.6724 0.00639 0.23213 0.0
H1910 H 0.71098 0.99945 0.24284 0.0
H1911 H 0.73439 0.02528 0.26485 0.0
H1912 H 0.12676 0.7165 0.33067 0.0
H1913 H 0.15234 0.69198 0.30946 0.0
H1914 H 0.12448 0.71287 0.24237 0.0
H1915 H 0.09853 0.73698 0.2634 0.0
H1916 H 0.13989 0.65694 0.27723 0.0
H1917 H 0.19269 0.72093 0.23393 0.0
H1918 H 0.1753 0.72693 0.25932 0.0
H1919 H 0.16327 0.72425 0.2302 0.0
C1920 C 0.12618 0.71598 0.31138 0.0
C1921 C 0.11101 0.72917 0.2987 0.0
C1922 C 0.14081 0.70201 0.29932 0.0
C1923 C 0.14056 0.70097 0.27436 0.0
C1924 C 0.12531 0.71391 0.26162 0.0
H1925 H 0.21419 0.62493 0.16981 0.0
H1926 H 0.18931 0.6505 0.19056 0.0
C1927 C 0.1106 0.72785 0.27368 0.0
C1928 C 0.15558 0.68557 0.26175 0.0
H1929 H 0.199 0.68362 0.22284 0.0
C1930 C 0.15288 0.66273 0.26539 0.0
C1931 C 0.17237 0.69325 0.24625 0.0
C1932 C 0.17629 0.71768 0.24225 0.0
C1933 C 0.16637 0.64726 0.25366 0.0
C1934 C 0.18335 0.65493 0.23833 0.0
C1935 C 0.186 0.6778 0.23464 0.0
C1936 C 0.19852 0.63947 0.22589 0.0
C1937 C 0.16196 0.62287 0.25737 0.0
C1938 C 0.21205 0.62492 0.23888 0.0
C1939 C 0.22613 0.61019 0.22708 0.0
C1940 C 0.22727 0.61006 0.20206 0.0
C1941 C 0.21375 0.62472 0.18911 0.0
C1942 C 0.1996 0.63938 0.20092 0.0
H1943 H 0.14487 0.61984 0.264 0.0
H1944 H 0.16432 0.61342 0.24058 0.0
H1945 H 0.17371 0.61632 0.27085 0.0
H1946 H 0.21168 0.6249 0.25818 0.0
H1947 H 0.2357 0.59863 0.2376 0.0
H1948 H 0.42175 0.10065 0.31164 0.0
H1949 H 0.44496 0.12742 0.29046 0.0
H1950 H 0.38673 0.15656 0.25885 0.0
H1951 H 0.36335 0.13014 0.28032 0.0
H1952 H 0.4223 0.14798 0.2262 0.0
H1953 H 0.44999 0.19429 0.30634 0.0
H1954 H 0.45386 0.16481 0.30822 0.0
H1955 H 0.42629 0.17597 0.30656 0.0
C1956 C 0.41387 0.11274 0.30016 0.0
C1957 C 0.39072 0.11296 0.29732 0.0
C1958 C 0.42715 0.12807 0.28816 0.0
C1959 C 0.41752 0.14406 0.27328 0.0
C1960 C 0.39445 0.14427 0.27022 0.0
H1961 H 0.48831 0.25752 0.21302 0.0
H1962 H 0.46133 0.23412 0.2337 0.0
C1963 C 0.38113 0.12896 0.28229 0.0
C1964 C 0.43165 0.16039 0.26074 0.0
H1965 H 0.46931 0.20174 0.27017 0.0
C1966 C 0.43246 0.15985 0.23577 0.0
C1967 C 0.44463 0.17604 0.2733 0.0
C1968 C 0.44356 0.17803 0.30008 0.0
C1969 C 0.44656 0.17408 0.22302 0.0
C1970 C 0.4603 0.18902 0.23565 0.0
C1971 C 0.4589 0.1901 0.26057 0.0
C1972 C 0.47672 0.20322 0.22334 0.0
C1973 C 0.44665 0.17301 0.19616 0.0
C1974 C 0.49444 0.19357 0.21099 0.0
C1975 C 0.51006 0.20688 0.19948 0.0
C1976 C 0.50839 0.23011 0.20031 0.0
C1977 C 0.49057 0.23974 0.21271 0.0
C1978 C 0.47497 0.22639 0.22429 0.0
H1979 H 0.43138 0.16505 0.18913 0.0
H1980 H 0.44817 0.18985 0.18831 0.0
H1981 H 0.46108 0.16306 0.19018 0.0
H1982 H 0.49627 0.17571 0.21036 0.0
H1983 H 0.52358 0.19896 0.19006 0.0
loop_
_geom_bond_atom_site_label_1
_geom_bond_atom_site_label_2
_geom_bond_distance
_geom_bond_site_symmetry_2
_ccdc_geom_bond_type
Co0 O3 1.970 . S
Co0 N17 1.989 . S
Co0 O25 1.967 . S
Co0 O32 1.920 . S
Co1 O4 1.966 . S
Co1 N10 2.022 . S
Co1 N18 1.993 . S
Co1 O26 1.941 . S
C2 O3 1.258 . S
C2 O4 1.263 . S
O3 Co0 1.970 . S
O3 C2 1.258 . S
O4 Co1 1.966 . S
O4 C2 1.263 . S
C5 O6 1.235 . S
C5 O32 1.289 . S
O6 C5 1.235 . S
C7 C9 1.400 . S
C7 N10 1.351 . S
C7 C12 1.501 . S
C8 C9 1.387 . S
C8 N11 1.341 . S
C9 C7 1.400 . S
C9 C8 1.387 . S
N10 Co1 2.022 . S
N10 C7 1.351 . S
N10 N11 1.365 . S
N11 C8 1.341 . S
N11 N10 1.365 . S
N11 H31 0.862 . S
C12 C7 1.501 . S
C12 H13 0.961 . S
C12 H14 0.961 . S
C12 H15 0.960 1_455 S
H13 C12 0.961 . S
H14 C12 0.961 . S
H15 C12 0.960 1_655 S
C16 N17 1.342 . S
C16 C20 1.401 . S
C16 C21 1.499 . S
N17 Co0 1.989 . S
N17 C16 1.342 . S
N17 N18 1.388 . S
N18 Co1 1.993 . S
N18 N17 1.388 . S
N18 C19 1.346 . S
C19 N18 1.346 . S
C19 C20 1.396 . S
C19 C29 1.510 . S
C20 C16 1.401 . S
C20 C19 1.396 . S
C21 C16 1.499 . S
C21 H22 0.959 . S
C21 H23 0.960 . S
C21 H24 0.961 . S
H22 C21 0.959 . S
H23 C21 0.960 . S
H24 C21 0.961 . S
O25 Co0 1.967 . S
O25 C33 1.258 . S
O26 Co1 1.941 . S
O26 C33 1.266 . S
H27 C29 0.959 . S
H28 C29 0.961 . S
C29 C19 1.510 . S
C29 H27 0.959 . S
C29 H28 0.961 . S
C29 H30 0.960 . S
H30 C29 0.960 . S
H31 N11 0.862 . S
O32 Co0 1.920 . S
O32 C5 1.289 . S
C33 O25 1.258 . S
C33 O26 1.266 . S
Co34 O37 1.970 . S
Co34 N51 1.989 . S
Co34 O59 1.967 . S
Co34 O66 1.920 . S
Co35 O38 1.966 . S
Co35 N44 2.022 . S
Co35 N52 1.993 . S
Co35 O60 1.941 . S
C36 O37 1.258 . S
C36 O38 1.263 . S
O37 Co34 1.970 . S
O37 C36 1.258 . S
O38 Co35 1.966 . S
O38 C36 1.263 . S
C39 O40 1.235 . S
C39 O66 1.289 . S
O40 C39 1.235 . S
C41 C43 1.400 . S
C41 N44 1.351 . S
C41 C46 1.501 . S
C42 C43 1.387 . S
C42 N45 1.341 . S
C43 C41 1.400 . S
C43 C42 1.387 . S
N44 Co35 2.022 . S
N44 C41 1.351 . S
N44 N45 1.365 . S
N45 C42 1.341 . S
N45 N44 1.365 . S
N45 H65 0.862 . S
C46 C41 1.501 . S
C46 H47 0.961 . S
C46 H48 0.961 . S
C46 H49 0.960 1_545 S
H47 C46 0.961 . S
H48 C46 0.961 . S
H49 C46 0.960 1_565 S
C50 N51 1.342 . S
C50 C54 1.401 . S
C50 C55 1.499 . S
N51 Co34 1.989 . S
N51 C50 1.342 . S
N51 N52 1.388 . S
N52 Co35 1.993 . S
N52 N51 1.388 . S
N52 C53 1.346 . S
C53 N52 1.346 . S
C53 C54 1.396 . S
C53 C63 1.510 . S
C54 C50 1.401 . S
C54 C53 1.396 . S
C55 C50 1.499 . S
C55 H56 0.959 . S
C55 H57 0.960 . S
C55 H58 0.961 . S
H56 C55 0.959 . S
H57 C55 0.960 . S
H58 C55 0.961 . S
O59 Co34 1.967 . S
O59 C67 1.258 . S
O60 Co35 1.941 . S
O60 C67 1.266 . S
H61 C63 0.959 . S
H62 C63 0.961 . S
C63 C53 1.510 . S
C63 H61 0.959 . S
C63 H62 0.961 . S
C63 H64 0.960 . S
H64 C63 0.960 . S
H65 N45 0.862 . S
O66 Co34 1.920 . S
O66 C39 1.289 . S
C67 O59 1.258 . S
C67 O60 1.266 . S
Co68 O71 1.970 . S
Co68 N85 1.989 . S
Co68 O93 1.967 . S
Co68 O100 1.890 1_455 S
Co69 O72 1.966 . S
Co69 N78 2.022 . S
Co69 N86 1.993 . S
Co69 O94 1.941 . S
C70 O71 1.258 . S
C70 O72 1.263 . S
O71 Co68 1.970 . S
O71 C70 1.258 . S
O72 Co69 1.966 . S
O72 C70 1.263 . S
C73 O74 1.235 . S
C73 O100 1.303 . S
O74 C73 1.235 . S
C75 C77 1.400 . S
C75 N78 1.351 . S
C75 C80 1.501 . S
C76 C77 1.387 . S
C76 N79 1.341 . S
C77 C75 1.400 . S
C77 C76 1.387 . S
N78 Co69 2.022 . S
N78 C75 1.351 . S
N78 N79 1.365 . S
N79 C76 1.341 . S
N79 N78 1.365 . S
N79 H99 0.862 . S
C80 C75 1.501 . S
C80 H81 0.961 . S
C80 H82 0.961 . S
C80 H83 0.960 . S
H81 C80 0.961 . S
H82 C80 0.961 . S
H83 C80 0.960 . S
C84 N85 1.342 1_655 S
C84 C88 1.405 . S
C84 C89 1.499 . S
N85 Co68 1.989 . S
N85 C84 1.342 1_455 S
N85 N86 1.388 . S
N86 Co69 1.993 . S
N86 N85 1.388 . S
N86 C87 1.346 . S
C87 N86 1.346 . S
C87 C88 1.378 1_455 S
C87 C97 1.510 . S
C88 C84 1.405 . S
C88 C87 1.378 1_655 S
C89 C84 1.499 . S
C89 H90 0.959 . S
C89 H91 0.960 . S
C89 H92 0.961 . S
H90 C89 0.959 . S
H91 C89 0.960 . S
H92 C89 0.961 . S
O93 Co68 1.967 . S
O93 C101 1.258 . S
O94 Co69 1.941 . S
O94 C101 1.266 . S
H95 C97 0.959 . S
H96 C97 0.961 . S
C97 C87 1.510 . S
C97 H95 0.959 . S
C97 H96 0.961 . S
C97 H98 0.960 . S
H98 C97 0.960 . S
H99 N79 0.862 . S
O100 Co68 1.890 1_655 S
O100 C73 1.303 . S
C101 O93 1.258 . S
C101 O94 1.266 . S
Co102 O105 1.970 . S
Co102 N119 1.989 . S
Co102 O127 1.967 . S
Co102 O134 1.890 1_545 S
Co103 O106 1.966 . S
Co103 N112 2.022 . S
Co103 N120 1.993 . S
Co103 O128 1.941 . S
C104 O105 1.258 . S
C104 O106 1.263 . S
O105 Co102 1.970 . S
O105 C104 1.258 . S
O106 Co103 1.966 . S
O106 C104 1.263 . S
C107 O108 1.235 . S
C107 O134 1.303 . S
O108 C107 1.235 . S
C109 C111 1.400 . S
C109 N112 1.351 . S
C109 C114 1.501 . S
C110 C111 1.387 . S
C110 N113 1.341 . S
C111 C109 1.400 . S
C111 C110 1.387 . S
N112 Co103 2.022 . S
N112 C109 1.351 . S
N112 N113 1.365 . S
N113 C110 1.341 . S
N113 N112 1.365 . S
N113 H133 0.862 . S
C114 C109 1.501 . S
C114 H115 0.961 . S
C114 H116 0.961 . S
C114 H117 0.960 . S
H115 C114 0.961 . S
H116 C114 0.961 . S
H117 C114 0.960 . S
C118 N119 1.342 1_565 S
C118 C122 1.405 . S
C118 C123 1.499 . S
N119 Co102 1.989 . S
N119 C118 1.342 1_545 S
N119 N120 1.388 . S
N120 Co103 1.993 . S
N120 N119 1.388 . S
N120 C121 1.346 . S
C121 N120 1.346 . S
C121 C122 1.377 1_545 S
C121 C131 1.510 . S
C122 C118 1.405 . S
C122 C121 1.377 1_565 S
C123 C118 1.499 . S
C123 H124 0.959 . S
C123 H125 0.960 . S
C123 H126 0.961 . S
H124 C123 0.959 . S
H125 C123 0.960 . S
H126 C123 0.961 . S
O127 Co102 1.967 . S
O127 C135 1.258 . S
O128 Co103 1.941 . S
O128 C135 1.266 . S
H129 C131 0.959 . S
H130 C131 0.961 . S
C131 C121 1.510 . S
C131 H129 0.959 . S
C131 H130 0.961 . S
C131 H132 0.960 . S
H132 C131 0.960 . S
H133 N113 0.862 . S
O134 Co102 1.890 1_565 S
O134 C107 1.303 . S
C135 O127 1.258 . S
C135 O128 1.266 . S
Co136 O139 1.970 . S
Co136 N153 1.989 . S
Co136 O161 1.967 . S
Co136 O168 1.920 . S
Co137 O140 1.966 . S
Co137 N146 2.022 . S
Co137 N154 1.993 . S
Co137 O162 1.941 . S
C138 O139 1.258 . S
C138 O140 1.263 . S
O139 Co136 1.970 . S
O139 C138 1.258 . S
O140 Co137 1.966 . S
O140 C138 1.263 . S
C141 O142 1.235 . S
C141 O168 1.289 . S
O142 C141 1.235 . S
C143 C145 1.400 . S
C143 N146 1.351 . S
C143 C148 1.501 . S
C144 C145 1.387 . S
C144 N147 1.341 . S
C145 C143 1.400 . S
C145 C144 1.387 . S
N146 Co137 2.022 . S
N146 C143 1.351 . S
N146 N147 1.365 . S
N147 C144 1.341 . S
N147 N146 1.365 . S
N147 H167 0.862 . S
C148 C143 1.501 . S
C148 H149 0.961 . S
C148 H150 0.961 . S
C148 H151 0.960 1_455 S
H149 C148 0.961 . S
H150 C148 0.961 . S
H151 C148 0.960 1_655 S
C152 N153 1.342 . S
C152 C156 1.401 . S
C152 C157 1.499 . S
N153 Co136 1.989 . S
N153 C152 1.342 . S
N153 N154 1.388 . S
N154 Co137 1.993 . S
N154 N153 1.388 . S
N154 C155 1.346 . S
C155 N154 1.346 . S
C155 C156 1.396 . S
C155 C165 1.510 . S
C156 C152 1.401 . S
C156 C155 1.396 . S
C157 C152 1.499 . S
C157 H158 0.959 . S
C157 H159 0.960 . S
C157 H160 0.961 . S
H158 C157 0.959 . S
H159 C157 0.960 . S
H160 C157 0.961 . S
O161 Co136 1.967 . S
O161 C169 1.258 . S
O162 Co137 1.941 . S
O162 C169 1.266 . S
H163 C165 0.959 . S
H164 C165 0.961 . S
C165 C155 1.510 . S
C165 H163 0.959 . S
C165 H164 0.961 . S
C165 H166 0.960 . S
H166 C165 0.960 . S
H167 N147 0.862 . S
O168 Co136 1.920 . S
O168 C141 1.289 . S
C169 O161 1.258 . S
C169 O162 1.266 . S
Co170 O173 1.970 . S
Co170 N187 1.989 . S
Co170 O195 1.967 . S
Co170 O202 1.920 . S
Co171 O174 1.966 . S
Co171 N180 2.022 . S
Co171 N188 1.993 . S
Co171 O196 1.941 . S
C172 O173 1.258 . S
C172 O174 1.263 . S
O173 Co170 1.970 . S
O173 C172 1.258 . S
O174 Co171 1.966 . S
O174 C172 1.263 . S
C175 O176 1.235 . S
C175 O202 1.289 . S
O176 C175 1.235 . S
C177 C179 1.400 . S
C177 N180 1.351 . S
C177 C182 1.501 . S
C178 C179 1.387 . S
C178 N181 1.341 . S
C179 C177 1.400 . S
C179 C178 1.387 . S
N180 Co171 2.022 . S
N180 C177 1.351 . S
N180 N181 1.365 . S
N181 C178 1.341 . S
N181 N180 1.365 . S
N181 H201 0.862 . S
C182 C177 1.501 . S
C182 H183 0.961 . S
C182 H184 0.961 . S
C182 H185 0.960 1_545 S
H183 C182 0.961 . S
H184 C182 0.961 . S
H185 C182 0.960 1_565 S
C186 N187 1.342 . S
C186 C190 1.401 . S
C186 C191 1.499 . S
N187 Co170 1.989 . S
N187 C186 1.342 . S
N187 N188 1.388 . S
N188 Co171 1.993 . S
N188 N187 1.388 . S
N188 C189 1.346 . S
C189 N188 1.346 . S
C189 C190 1.396 . S
C189 C199 1.510 . S
C190 C186 1.401 . S
C190 C189 1.396 . S
C191 C186 1.499 . S
C191 H192 0.959 . S
C191 H193 0.960 . S
C191 H194 0.961 . S
H192 C191 0.959 . S
H193 C191 0.960 . S
H194 C191 0.961 . S
O195 Co170 1.967 . S
O195 C203 1.258 . S
O196 Co171 1.941 . S
O196 C203 1.266 . S
H197 C199 0.959 . S
H198 C199 0.961 . S
C199 C189 1.510 . S
C199 H197 0.959 . S
C199 H198 0.961 . S
C199 H200 0.960 . S
H200 C199 0.960 . S
H201 N181 0.862 . S
O202 Co170 1.920 . S
O202 C175 1.289 . S
C203 O195 1.258 . S
C203 O196 1.266 . S
Co204 O207 1.970 . S
Co204 N221 1.989 . S
Co204 O229 1.967 . S
Co204 O236 1.890 1_455 S
Co205 O208 1.966 . S
Co205 N214 2.022 . S
Co205 N222 1.993 . S
Co205 O230 1.941 . S
C206 O207 1.258 . S
C206 O208 1.263 . S
O207 Co204 1.970 . S
O207 C206 1.258 . S
O208 Co205 1.966 . S
O208 C206 1.263 . S
C209 O210 1.235 . S
C209 O236 1.303 . S
O210 C209 1.235 . S
C211 C213 1.400 . S
C211 N214 1.351 . S
C211 C216 1.501 . S
C212 C213 1.387 . S
C212 N215 1.341 . S
C213 C211 1.400 . S
C213 C212 1.387 . S
N214 Co205 2.022 . S
N214 C211 1.351 . S
N214 N215 1.365 . S
N215 C212 1.341 . S
N215 N214 1.365 . S
N215 H235 0.862 . S
C216 C211 1.501 . S
C216 H217 0.961 . S
C216 H218 0.961 . S
C216 H219 0.960 . S
H217 C216 0.961 . S
H218 C216 0.961 . S
H219 C216 0.960 . S
C220 N221 1.342 1_655 S
C220 C224 1.405 . S
C220 C225 1.499 . S
N221 Co204 1.989 . S
N221 C220 1.342 1_455 S
N221 N222 1.388 . S
N222 Co205 1.993 . S
N222 N221 1.388 . S
N222 C223 1.346 . S
C223 N222 1.346 . S
C223 C224 1.377 1_455 S
C223 C233 1.510 . S
C224 C220 1.405 . S
C224 C223 1.377 1_655 S
C225 C220 1.499 . S
C225 H226 0.959 . S
C225 H227 0.960 . S
C225 H228 0.961 . S
H226 C225 0.959 . S
H227 C225 0.960 . S
H228 C225 0.961 . S
O229 Co204 1.967 . S
O229 C237 1.258 . S
O230 Co205 1.941 . S
O230 C237 1.266 . S
H231 C233 0.959 . S
H232 C233 0.961 . S
C233 C223 1.510 . S
C233 H231 0.959 . S
C233 H232 0.961 . S
C233 H234 0.960 . S
H234 C233 0.960 . S
H235 N215 0.862 . S
O236 Co204 1.890 1_655 S
O236 C209 1.303 . S
C237 O229 1.258 . S
C237 O230 1.266 . S
Co238 O241 1.970 . S
Co238 N255 1.989 . S
Co238 O263 1.967 . S
Co238 O270 1.890 1_545 S
Co239 O242 1.966 . S
Co239 N248 2.022 . S
Co239 N256 1.993 . S
Co239 O264 1.941 . S
C240 O241 1.258 . S
C240 O242 1.263 . S
O241 Co238 1.970 . S
O241 C240 1.258 . S
O242 Co239 1.966 . S
O242 C240 1.263 . S
C243 O244 1.235 . S
C243 O270 1.303 . S
O244 C243 1.235 . S
C245 C247 1.400 . S
C245 N248 1.351 . S
C245 C250 1.501 . S
C246 C247 1.387 . S
C246 N249 1.341 . S
C247 C245 1.400 . S
C247 C246 1.387 . S
N248 Co239 2.022 . S
N248 C245 1.351 . S
N248 N249 1.365 . S
N249 C246 1.341 . S
N249 N248 1.365 . S
N249 H269 0.862 . S
C250 C245 1.501 . S
C250 H251 0.961 . S
C250 H252 0.961 . S
C250 H253 0.960 . S
H251 C250 0.961 . S
H252 C250 0.961 . S
H253 C250 0.960 . S
C254 N255 1.342 1_565 S
C254 C258 1.405 . S
C254 C259 1.499 . S
N255 Co238 1.989 . S
N255 C254 1.342 1_545 S
N255 N256 1.388 . S
N256 Co239 1.993 . S
N256 N255 1.388 . S
N256 C257 1.346 . S
C257 N256 1.346 . S
C257 C258 1.378 1_545 S
C257 C267 1.510 . S
C258 C254 1.405 . S
C258 C257 1.378 1_565 S
C259 C254 1.499 . S
C259 H260 0.959 . S
C259 H261 0.960 . S
C259 H262 0.961 . S
H260 C259 0.959 . S
H261 C259 0.960 . S
H262 C259 0.961 . S
O263 Co238 1.967 . S
O263 C271 1.258 . S
O264 Co239 1.941 . S
O264 C271 1.266 . S
H265 C267 0.959 . S
H266 C267 0.961 . S
C267 C257 1.510 . S
C267 H265 0.959 . S
C267 H266 0.961 . S
C267 H268 0.960 . S
H268 C267 0.960 . S
H269 N249 0.862 . S
O270 Co238 1.890 1_565 S
O270 C243 1.303 . S
C271 O263 1.258 . S
C271 O264 1.266 . S
Co272 O275 1.970 . S
Co272 N289 1.989 . S
Co272 O297 1.967 . S
Co272 O304 1.920 . S
Co273 O276 1.966 . S
Co273 N282 2.022 . S
Co273 N290 1.993 . S
Co273 O298 1.941 . S
C274 O275 1.258 . S
C274 O276 1.263 . S
O275 Co272 1.970 . S
O275 C274 1.258 . S
O276 Co273 1.966 . S
O276 C274 1.263 . S
C277 O278 1.235 . S
C277 O304 1.289 . S
O278 C277 1.235 . S
C279 C281 1.400 . S
C279 N282 1.351 . S
C279 C284 1.501 . S
C280 C281 1.387 . S
C280 N283 1.341 . S
C281 C279 1.400 . S
C281 C280 1.387 . S
N282 Co273 2.022 . S
N282 C279 1.351 . S
N282 N283 1.365 . S
N283 C280 1.341 . S
N283 N282 1.365 . S
N283 H303 0.862 . S
C284 C279 1.501 . S
C284 H285 0.961 . S
C284 H286 0.961 . S
C284 H287 0.960 . S
H285 C284 0.961 . S
H286 C284 0.961 . S
H287 C284 0.960 . S
C288 N289 1.342 . S
C288 C292 1.401 . S
C288 C293 1.499 . S
N289 Co272 1.989 . S
N289 C288 1.342 . S
N289 N290 1.388 . S
N290 Co273 1.993 . S
N290 N289 1.388 . S
N290 C291 1.346 . S
C291 N290 1.346 . S
C291 C292 1.396 . S
C291 C301 1.510 . S
C292 C288 1.401 . S
C292 C291 1.396 . S
C293 C288 1.499 . S
C293 H294 0.959 . S
C293 H295 0.960 . S
C293 H296 0.961 . S
H294 C293 0.959 . S
H295 C293 0.960 . S
H296 C293 0.961 . S
O297 Co272 1.967 . S
O297 C305 1.258 . S
O298 Co273 1.941 . S
O298 C305 1.266 . S
H299 C301 0.959 . S
H300 C301 0.961 . S
C301 C291 1.510 . S
C301 H299 0.959 . S
C301 H300 0.961 . S
C301 H302 0.960 . S
H302 C301 0.960 . S
H303 N283 0.862 . S
O304 Co272 1.920 . S
O304 C277 1.289 . S
C305 O297 1.258 . S
C305 O298 1.266 . S
Co306 O309 1.970 . S
Co306 N323 1.989 . S
Co306 O331 1.967 . S
Co306 O338 1.920 . S
Co307 O310 1.966 . S
Co307 N316 2.022 . S
Co307 N324 1.993 . S
Co307 O332 1.941 . S
C308 O309 1.258 . S
C308 O310 1.263 . S
O309 Co306 1.970 . S
O309 C308 1.258 . S
O310 Co307 1.966 . S
O310 C308 1.263 . S
C311 O312 1.235 . S
C311 O338 1.289 . S
O312 C311 1.235 . S
C313 C315 1.400 . S
C313 N316 1.351 . S
C313 C318 1.501 . S
C314 C315 1.387 . S
C314 N317 1.341 . S
C315 C313 1.400 . S
C315 C314 1.387 . S
N316 Co307 2.022 . S
N316 C313 1.351 . S
N316 N317 1.365 . S
N317 C314 1.341 . S
N317 N316 1.365 . S
N317 H337 0.862 . S
C318 C313 1.501 . S
C318 H319 0.961 . S
C318 H320 0.961 . S
C318 H321 0.960 . S
H319 C318 0.961 . S
H320 C318 0.961 . S
H321 C318 0.960 . S
C322 N323 1.342 . S
C322 C326 1.401 . S
C322 C327 1.499 . S
N323 Co306 1.989 . S
N323 C322 1.342 . S
N323 N324 1.388 . S
N324 Co307 1.993 . S
N324 N323 1.388 . S
N324 C325 1.346 . S
C325 N324 1.346 . S
C325 C326 1.396 . S
C325 C335 1.510 . S
C326 C322 1.401 . S
C326 C325 1.396 . S
C327 C322 1.499 . S
C327 H328 0.959 . S
C327 H329 0.960 . S
C327 H330 0.961 . S
H328 C327 0.959 . S
H329 C327 0.960 . S
H330 C327 0.961 . S
O331 Co306 1.967 . S
O331 C339 1.258 . S
O332 Co307 1.941 . S
O332 C339 1.266 . S
H333 C335 0.959 . S
H334 C335 0.961 . S
C335 C325 1.510 . S
C335 H333 0.959 . S
C335 H334 0.961 . S
C335 H336 0.960 . S
H336 C335 0.960 . S
H337 N317 0.862 . S
O338 Co306 1.920 . S
O338 C311 1.289 . S
C339 O331 1.258 . S
C339 O332 1.266 . S
Co340 O343 1.970 . S
Co340 N357 1.989 . S
Co340 O365 1.967 . S
Co340 O372 1.920 . S
Co341 O344 1.966 . S
Co341 N350 2.022 . S
Co341 N358 1.993 . S
Co341 O366 1.941 . S
C342 O343 1.258 . S
C342 O344 1.263 . S
O343 Co340 1.970 . S
O343 C342 1.258 . S
O344 Co341 1.966 . S
O344 C342 1.263 . S
C345 O346 1.235 . S
C345 O372 1.289 . S
O346 C345 1.235 . S
C347 C349 1.400 . S
C347 N350 1.351 . S
C347 C352 1.501 . S
C348 C349 1.387 . S
C348 N351 1.341 . S
C349 C347 1.400 . S
C349 C348 1.387 . S
N350 Co341 2.022 . S
N350 C347 1.351 . S
N350 N351 1.365 . S
N351 C348 1.341 . S
N351 N350 1.365 . S
N351 H371 0.862 . S
C352 C347 1.501 . S
C352 H353 0.961 . S
C352 H354 0.961 . S
C352 H355 0.960 . S
H353 C352 0.961 . S
H354 C352 0.961 . S
H355 C352 0.960 . S
C356 N357 1.342 . S
C356 C360 1.401 . S
C356 C361 1.499 . S
N357 Co340 1.989 . S
N357 C356 1.342 . S
N357 N358 1.388 . S
N358 Co341 1.993 . S
N358 N357 1.388 . S
N358 C359 1.346 . S
C359 N358 1.346 . S
C359 C360 1.396 . S
C359 C369 1.510 . S
C360 C356 1.401 . S
C360 C359 1.396 . S
C361 C356 1.499 . S
C361 H362 0.959 . S
C361 H363 0.960 . S
C361 H364 0.961 . S
H362 C361 0.959 . S
H363 C361 0.960 . S
H364 C361 0.961 . S
O365 Co340 1.967 . S
O365 C373 1.258 . S
O366 Co341 1.941 . S
O366 C373 1.266 . S
H367 C369 0.959 . S
H368 C369 0.961 . S
C369 C359 1.510 . S
C369 H367 0.959 . S
C369 H368 0.961 . S
C369 H370 0.960 . S
H370 C369 0.960 . S
H371 N351 0.862 . S
O372 Co340 1.920 . S
O372 C345 1.289 . S
C373 O365 1.258 . S
C373 O366 1.266 . S
Co374 O377 1.970 . S
Co374 N391 1.989 . S
Co374 O399 1.967 . S
Co374 O406 1.920 . S
Co375 O378 1.966 . S
Co375 N384 2.022 . S
Co375 N392 1.993 . S
Co375 O400 1.941 . S
C376 O377 1.258 . S
C376 O378 1.263 . S
O377 Co374 1.970 . S
O377 C376 1.258 . S
O378 Co375 1.966 . S
O378 C376 1.263 . S
C379 O380 1.235 . S
C379 O406 1.289 . S
O380 C379 1.235 . S
C381 C383 1.400 . S
C381 N384 1.351 . S
C381 C386 1.501 . S
C382 C383 1.387 . S
C382 N385 1.341 . S
C383 C381 1.400 . S
C383 C382 1.387 . S
N384 Co375 2.022 . S
N384 C381 1.351 . S
N384 N385 1.365 . S
N385 C382 1.341 . S
N385 N384 1.365 . S
N385 H405 0.862 . S
C386 C381 1.501 . S
C386 H387 0.961 . S
C386 H388 0.961 . S
C386 H389 0.960 . S
H387 C386 0.961 . S
H388 C386 0.961 . S
H389 C386 0.960 . S
C390 N391 1.342 . S
C390 C394 1.401 . S
C390 C395 1.499 . S
N391 Co374 1.989 . S
N391 C390 1.342 . S
N391 N392 1.388 . S
N392 Co375 1.993 . S
N392 N391 1.388 . S
N392 C393 1.346 . S
C393 N392 1.346 . S
C393 C394 1.396 . S
C393 C403 1.510 . S
C394 C390 1.401 . S
C394 C393 1.396 . S
C395 C390 1.499 . S
C395 H396 0.959 . S
C395 H397 0.960 . S
C395 H398 0.961 . S
H396 C395 0.959 . S
H397 C395 0.960 . S
H398 C395 0.961 . S
O399 Co374 1.967 . S
O399 C407 1.258 . S
O400 Co375 1.941 . S
O400 C407 1.266 . S
H401 C403 0.959 . S
H402 C403 0.961 . S
C403 C393 1.510 . S
C403 H401 0.959 . S
C403 H402 0.961 . S
C403 H404 0.960 . S
H404 C403 0.960 . S
H405 N385 0.862 . S
O406 Co374 1.920 . S
O406 C379 1.289 . S
C407 O399 1.258 . S
C407 O400 1.266 . S
Co408 O411 1.970 . S
Co408 N425 1.989 . S
Co408 O433 1.967 . S
Co408 O440 1.920 . S
Co409 O412 1.966 . S
Co409 N418 2.022 . S
Co409 N426 1.993 . S
Co409 O434 1.941 . S
C410 O411 1.258 . S
C410 O412 1.263 . S
O411 Co408 1.970 . S
O411 C410 1.258 . S
O412 Co409 1.966 . S
O412 C410 1.263 . S
C413 O414 1.235 . S
C413 O440 1.289 . S
O414 C413 1.235 . S
C415 C417 1.400 . S
C415 N418 1.351 . S
C415 C420 1.501 . S
C416 C417 1.387 . S
C416 N419 1.341 . S
C417 C415 1.400 . S
C417 C416 1.387 . S
N418 Co409 2.022 . S
N418 C415 1.351 . S
N418 N419 1.365 . S
N419 C416 1.341 . S
N419 N418 1.365 . S
N419 H439 0.862 . S
C420 C415 1.501 . S
C420 H421 0.961 . S
C420 H422 0.961 . S
C420 H423 0.960 . S
H421 C420 0.961 . S
H422 C420 0.961 . S
H423 C420 0.960 . S
C424 N425 1.342 . S
C424 C428 1.401 . S
C424 C429 1.499 . S
N425 Co408 1.989 . S
N425 C424 1.342 . S
N425 N426 1.388 . S
N426 Co409 1.993 . S
N426 N425 1.388 . S
N426 C427 1.346 . S
C427 N426 1.346 . S
C427 C428 1.396 . S
C427 C437 1.510 . S
C428 C424 1.401 . S
C428 C427 1.396 . S
C429 C424 1.499 . S
C429 H430 0.959 . S
C429 H431 0.960 . S
C429 H432 0.961 . S
H430 C429 0.959 . S
H431 C429 0.960 . S
H432 C429 0.961 . S
O433 Co408 1.967 . S
O433 C441 1.258 . S
O434 Co409 1.941 . S
O434 C441 1.266 . S
H435 C437 0.959 . S
H436 C437 0.961 . S
C437 C427 1.510 . S
C437 H435 0.959 . S
C437 H436 0.961 . S
C437 H438 0.960 . S
H438 C437 0.960 . S
H439 N419 0.862 . S
O440 Co408 1.920 . S
O440 C413 1.289 . S
C441 O433 1.258 . S
C441 O434 1.266 . S
Co442 O445 1.970 . S
Co442 N459 1.989 . S
Co442 O467 1.967 . S
Co442 O474 1.920 . S
Co443 O446 1.966 . S
Co443 N452 2.022 . S
Co443 N460 1.993 . S
Co443 O468 1.941 . S
C444 O445 1.258 . S
C444 O446 1.263 . S
O445 Co442 1.970 . S
O445 C444 1.258 . S
O446 Co443 1.966 . S
O446 C444 1.263 . S
C447 O448 1.235 . S
C447 O474 1.289 . S
O448 C447 1.235 . S
C449 C451 1.400 . S
C449 N452 1.351 . S
C449 C454 1.501 . S
C450 C451 1.387 . S
C450 N453 1.341 . S
C451 C449 1.400 . S
C451 C450 1.387 . S
N452 Co443 2.022 . S
N452 C449 1.351 . S
N452 N453 1.365 . S
N453 C450 1.341 . S
N453 N452 1.365 . S
N453 H473 0.862 . S
C454 C449 1.501 . S
C454 H455 0.961 . S
C454 H456 0.961 . S
C454 H457 0.960 . S
H455 C454 0.961 . S
H456 C454 0.961 . S
H457 C454 0.960 . S
C458 N459 1.342 . S
C458 C462 1.401 . S
C458 C463 1.499 . S
N459 Co442 1.989 . S
N459 C458 1.342 . S
N459 N460 1.388 . S
N460 Co443 1.993 . S
N460 N459 1.388 . S
N460 C461 1.346 . S
C461 N460 1.346 . S
C461 C462 1.396 . S
C461 C471 1.510 . S
C462 C458 1.401 . S
C462 C461 1.396 . S
C463 C458 1.499 . S
C463 H464 0.959 . S
C463 H465 0.960 . S
C463 H466 0.961 . S
H464 C463 0.959 . S
H465 C463 0.960 . S
H466 C463 0.961 . S
O467 Co442 1.967 . S
O467 C475 1.258 . S
O468 Co443 1.941 . S
O468 C475 1.266 . S
H469 C471 0.959 . S
H470 C471 0.961 . S
C471 C461 1.510 . S
C471 H469 0.959 . S
C471 H470 0.961 . S
C471 H472 0.960 . S
H472 C471 0.960 . S
H473 N453 0.862 . S
O474 Co442 1.920 . S
O474 C447 1.289 . S
C475 O467 1.258 . S
C475 O468 1.266 . S
Co476 O479 1.970 . S
Co476 N493 1.989 . S
Co476 O501 1.967 . S
Co476 O508 1.920 . S
Co477 O480 1.966 . S
Co477 N486 2.022 . S
Co477 N494 1.993 . S
Co477 O502 1.941 . S
C478 O479 1.258 . S
C478 O480 1.263 . S
O479 Co476 1.970 . S
O479 C478 1.258 . S
O480 Co477 1.966 . S
O480 C478 1.263 . S
C481 O482 1.235 . S
C481 O508 1.289 . S
O482 C481 1.235 . S
C483 C485 1.400 . S
C483 N486 1.351 . S
C483 C488 1.501 . S
C484 C485 1.387 . S
C484 N487 1.341 . S
C485 C483 1.400 . S
C485 C484 1.387 . S
N486 Co477 2.022 . S
N486 C483 1.351 . S
N486 N487 1.365 . S
N487 C484 1.341 . S
N487 N486 1.365 . S
N487 H507 0.862 . S
C488 C483 1.501 . S
C488 H489 0.961 . S
C488 H490 0.961 . S
C488 H491 0.960 . S
H489 C488 0.961 . S
H490 C488 0.961 . S
H491 C488 0.960 . S
C492 N493 1.342 . S
C492 C496 1.401 . S
C492 C497 1.499 . S
N493 Co476 1.989 . S
N493 C492 1.342 . S
N493 N494 1.388 . S
N494 Co477 1.993 . S
N494 N493 1.388 . S
N494 C495 1.346 . S
C495 N494 1.346 . S
C495 C496 1.396 . S
C495 C505 1.510 . S
C496 C492 1.401 . S
C496 C495 1.396 . S
C497 C492 1.499 . S
C497 H498 0.959 . S
C497 H499 0.960 . S
C497 H500 0.961 . S
H498 C497 0.959 . S
H499 C497 0.960 . S
H500 C497 0.961 . S
O501 Co476 1.967 . S
O501 C509 1.258 . S
O502 Co477 1.941 . S
O502 C509 1.266 . S
H503 C505 0.959 . S
H504 C505 0.961 . S
C505 C495 1.510 . S
C505 H503 0.959 . S
C505 H504 0.961 . S
C505 H506 0.960 . S
H506 C505 0.960 . S
H507 N487 0.862 . S
O508 Co476 1.920 . S
O508 C481 1.289 . S
C509 O501 1.258 . S
C509 O502 1.266 . S
Co510 O513 1.970 . S
Co510 N527 1.989 . S
Co510 O535 1.967 . S
Co510 O542 1.920 . S
Co511 O514 1.966 . S
Co511 N520 2.022 . S
Co511 N528 1.993 . S
Co511 O536 1.941 . S
C512 O513 1.258 . S
C512 O514 1.263 . S
O513 Co510 1.970 . S
O513 C512 1.258 . S
O514 Co511 1.966 . S
O514 C512 1.263 . S
C515 O516 1.235 . S
C515 O542 1.289 . S
O516 C515 1.235 . S
C517 C519 1.400 . S
C517 N520 1.351 . S
C517 C522 1.501 . S
C518 C519 1.387 . S
C518 N521 1.341 . S
C519 C517 1.400 . S
C519 C518 1.387 . S
N520 Co511 2.022 . S
N520 C517 1.351 . S
N520 N521 1.365 . S
N521 C518 1.341 . S
N521 N520 1.365 . S
N521 H541 0.862 . S
C522 C517 1.501 . S
C522 H523 0.961 . S
C522 H524 0.961 . S
C522 H525 0.960 . S
H523 C522 0.961 . S
H524 C522 0.961 . S
H525 C522 0.960 . S
C526 N527 1.342 . S
C526 C530 1.401 . S
C526 C531 1.499 . S
N527 Co510 1.989 . S
N527 C526 1.342 . S
N527 N528 1.388 . S
N528 Co511 1.993 . S
N528 N527 1.388 . S
N528 C529 1.346 . S
C529 N528 1.346 . S
C529 C530 1.396 . S
C529 C539 1.510 . S
C530 C526 1.401 . S
C530 C529 1.396 . S
C531 C526 1.499 . S
C531 H532 0.959 . S
C531 H533 0.960 . S
C531 H534 0.961 . S
H532 C531 0.959 . S
H533 C531 0.960 . S
H534 C531 0.961 . S
O535 Co510 1.967 . S
O535 C543 1.258 . S
O536 Co511 1.941 . S
O536 C543 1.266 . S
H537 C539 0.959 . S
H538 C539 0.961 . S
C539 C529 1.510 . S
C539 H537 0.959 . S
C539 H538 0.961 . S
C539 H540 0.960 . S
H540 C539 0.960 . S
H541 N521 0.862 . S
O542 Co510 1.920 . S
O542 C515 1.289 . S
C543 O535 1.258 . S
C543 O536 1.266 . S
H544 C552 0.929 . S
H545 C554 0.930 . S
H546 C556 0.930 . S
H547 C559 0.929 . S
H548 C562 0.930 . S
H549 C564 0.960 . S
H550 C564 0.960 . S
H551 C564 0.960 . S
C552 H544 0.929 . S
C552 C553 1.377 . S
C552 C554 1.384 . S
C553 C552 1.377 . S
C553 C559 1.390 . S
C554 H545 0.930 . S
C554 C552 1.384 . S
C554 C555 1.372 . S
C555 C554 1.372 . S
C555 C556 1.400 . S
C555 C560 1.490 . S
C556 H546 0.930 . S
C556 C555 1.400 . S
C556 C559 1.386 . S
H557 C573 0.930 . S
H558 C574 0.931 . S
C559 H547 0.929 . S
C559 C553 1.390 . S
C559 C556 1.386 . S
C560 C555 1.490 . S
C560 C562 1.395 . S
C560 C563 1.403 . S
H561 C567 0.930 . S
C562 H548 0.930 . S
C562 C560 1.395 . S
C562 C565 1.403 . S
C563 C560 1.403 . S
C563 C564 1.524 . S
C563 C567 1.400 . S
C564 H549 0.960 . S
C564 H550 0.960 . S
C564 H551 0.960 . S
C564 C563 1.524 . S
C565 C562 1.403 . S
C565 C566 1.392 . S
C565 C569 1.495 . S
C566 C565 1.392 . S
C566 C567 1.385 . S
C566 C568 1.478 . S
C567 H561 0.930 . S
C567 C563 1.400 . S
C567 C566 1.385 . S
C568 C566 1.478 . S
C568 C570 1.381 . S
C568 C574 1.383 . S
C569 C565 1.495 . S
C569 H575 0.959 . S
C569 H576 0.961 . S
C569 H577 0.960 . S
C570 C568 1.381 . S
C570 C571 1.394 . S
C570 H578 0.930 . S
C571 C570 1.394 . S
C571 C572 1.383 . S
C571 H579 0.929 . S
C572 C571 1.383 . S
C572 C573 1.377 . S
C573 H557 0.930 . S
C573 C572 1.377 . S
C573 C574 1.379 . S
C574 H558 0.931 . S
C574 C568 1.383 . S
C574 C573 1.379 . S
H575 C569 0.959 . S
H576 C569 0.961 . S
H577 C569 0.960 . S
H578 C570 0.930 . S
H579 C571 0.929 . S
H580 C588 0.929 . S
H581 C590 0.930 . S
H582 C592 0.930 . S
H583 C595 0.929 . S
H584 C598 0.930 . S
H585 C600 0.960 . S
H586 C600 0.960 . S
H587 C600 0.960 . S
C588 H580 0.929 . S
C588 C589 1.377 . S
C588 C590 1.384 . S
C589 C588 1.377 . S
C589 C595 1.390 . S
C590 H581 0.930 . S
C590 C588 1.384 . S
C590 C591 1.372 . S
C591 C590 1.372 . S
C591 C592 1.400 . S
C591 C596 1.490 . S
C592 H582 0.930 . S
C592 C591 1.400 . S
C592 C595 1.386 . S
H593 C609 0.930 . S
H594 C610 0.931 . S
C595 H583 0.929 . S
C595 C589 1.390 . S
C595 C592 1.386 . S
C596 C591 1.490 . S
C596 C598 1.395 . S
C596 C599 1.403 . S
H597 C603 0.930 . S
C598 H584 0.930 . S
C598 C596 1.395 . S
C598 C601 1.403 . S
C599 C596 1.403 . S
C599 C600 1.524 . S
C599 C603 1.400 . S
C600 H585 0.960 . S
C600 H586 0.960 . S
C600 H587 0.960 . S
C600 C599 1.524 . S
C601 C598 1.403 . S
C601 C602 1.392 . S
C601 C605 1.495 . S
C602 C601 1.392 . S
C602 C603 1.385 . S
C602 C604 1.478 . S
C603 H597 0.930 . S
C603 C599 1.400 . S
C603 C602 1.385 . S
C604 C602 1.478 . S
C604 C606 1.381 . S
C604 C610 1.383 . S
C605 C601 1.495 . S
C605 H611 0.959 . S
C605 H612 0.961 . S
C605 H613 0.960 . S
C606 C604 1.381 . S
C606 C607 1.394 . S
C606 H614 0.930 . S
C607 C606 1.394 . S
C607 C608 1.383 . S
C607 H615 0.929 . S
C608 C607 1.383 . S
C608 C609 1.377 . S
C609 H593 0.930 . S
C609 C608 1.377 . S
C609 C610 1.379 . S
C610 H594 0.931 . S
C610 C604 1.383 . S
C610 C609 1.379 . S
H611 C605 0.959 . S
H612 C605 0.961 . S
H613 C605 0.960 . S
H614 C606 0.930 . S
H615 C607 0.929 . S
H616 C624 0.929 . S
H617 C626 0.930 . S
H618 C628 0.930 . S
H619 C631 0.929 . S
H620 C634 0.930 . S
H621 C636 0.960 . S
H622 C636 0.960 . S
H623 C636 0.960 . S
C624 H616 0.929 . S
C624 C625 1.377 . S
C624 C626 1.384 . S
C625 C624 1.377 . S
C625 C631 1.390 . S
C626 H617 0.930 . S
C626 C624 1.384 . S
C626 C627 1.372 . S
C627 C626 1.372 . S
C627 C628 1.400 . S
C627 C632 1.490 . S
C628 H618 0.930 . S
C628 C627 1.400 . S
C628 C631 1.386 . S
H629 C645 0.930 . S
H630 C646 0.931 . S
C631 H619 0.929 . S
C631 C625 1.390 . S
C631 C628 1.386 . S
C632 C627 1.490 . S
C632 C634 1.395 . S
C632 C635 1.403 . S
H633 C639 0.930 . S
C634 H620 0.930 . S
C634 C632 1.395 . S
C634 C637 1.403 . S
C635 C632 1.403 . S
C635 C636 1.524 . S
C635 C639 1.400 . S
C636 H621 0.960 . S
C636 H622 0.960 . S
C636 H623 0.960 . S
C636 C635 1.524 . S
C637 C634 1.403 . S
C637 C638 1.392 . S
C637 C641 1.495 . S
C638 C637 1.392 . S
C638 C639 1.385 . S
C638 C640 1.478 . S
C639 H633 0.930 . S
C639 C635 1.400 . S
C639 C638 1.385 . S
C640 C638 1.478 . S
C640 C642 1.381 . S
C640 C646 1.383 . S
C641 C637 1.495 . S
C641 H647 0.959 . S
C641 H648 0.961 . S
C641 H649 0.960 . S
C642 C640 1.381 . S
C642 C643 1.394 . S
C642 H650 0.930 . S
C643 C642 1.394 . S
C643 C644 1.383 . S
C643 H651 0.929 . S
C644 C643 1.383 . S
C644 C645 1.377 . S
C645 H629 0.930 . S
C645 C644 1.377 . S
C645 C646 1.379 . S
C646 H630 0.931 . S
C646 C640 1.383 . S
C646 C645 1.379 . S
H647 C641 0.959 . S
H648 C641 0.961 . S
H649 C641 0.960 . S
H650 C642 0.930 . S
H651 C643 0.929 . S
H652 C660 0.929 . S
H653 C662 0.930 . S
H654 C664 0.930 . S
H655 C667 0.929 . S
H656 C670 0.930 . S
H657 C672 0.960 . S
H658 C672 0.960 . S
H659 C672 0.960 . S
C660 H652 0.929 . S
C660 C661 1.377 . S
C660 C662 1.384 . S
C661 C660 1.377 . S
C661 C667 1.390 . S
C662 H653 0.930 . S
C662 C660 1.384 . S
C662 C663 1.372 . S
C663 C662 1.372 . S
C663 C664 1.400 . S
C663 C668 1.490 . S
C664 H654 0.930 . S
C664 C663 1.400 . S
C664 C667 1.386 . S
H665 C681 0.930 . S
H666 C682 0.931 . S
C667 H655 0.929 . S
C667 C661 1.390 . S
C667 C664 1.386 . S
C668 C663 1.490 . S
C668 C670 1.395 . S
C668 C671 1.403 . S
H669 C675 0.930 . S
C670 H656 0.930 . S
C670 C668 1.395 . S
C670 C673 1.403 . S
C671 C668 1.403 . S
C671 C672 1.524 . S
C671 C675 1.400 . S
C672 H657 0.960 . S
C672 H658 0.960 . S
C672 H659 0.960 . S
C672 C671 1.524 . S
C673 C670 1.403 . S
C673 C674 1.392 . S
C673 C677 1.495 . S
C674 C673 1.392 . S
C674 C675 1.385 . S
C674 C676 1.478 . S
C675 H669 0.930 . S
C675 C671 1.400 . S
C675 C674 1.385 . S
C676 C674 1.478 . S
C676 C678 1.381 . S
C676 C682 1.383 . S
C677 C673 1.495 . S
C677 H683 0.959 . S
C677 H684 0.961 . S
C677 H685 0.960 . S
C678 C676 1.381 . S
C678 C679 1.394 . S
C678 H686 0.930 . S
C679 C678 1.394 . S
C679 C680 1.383 . S
C679 H687 0.929 . S
C680 C679 1.383 . S
C680 C681 1.377 . S
C681 H665 0.930 . S
C681 C680 1.377 . S
C681 C682 1.379 . S
C682 H666 0.931 . S
C682 C676 1.383 . S
C682 C681 1.379 . S
H683 C677 0.959 . S
H684 C677 0.961 . S
H685 C677 0.960 . S
H686 C678 0.930 . S
H687 C679 0.929 . S
H688 C696 0.929 . S
H689 C698 0.930 . S
H690 C700 0.930 . S
H691 C703 0.929 . S
H692 C706 0.930 . S
H693 C708 0.960 . S
H694 C708 0.960 . S
H695 C708 0.960 . S
C696 H688 0.929 . S
C696 C697 1.377 . S
C696 C698 1.384 . S
C697 C696 1.377 . S
C697 C703 1.390 . S
C698 H689 0.930 . S
C698 C696 1.384 . S
C698 C699 1.372 . S
C699 C698 1.372 . S
C699 C700 1.400 . S
C699 C704 1.490 . S
C700 H690 0.930 . S
C700 C699 1.400 . S
C700 C703 1.386 . S
H701 C717 0.930 . S
H702 C718 0.931 . S
C703 H691 0.929 . S
C703 C697 1.390 . S
C703 C700 1.386 . S
C704 C699 1.490 . S
C704 C706 1.395 . S
C704 C707 1.403 . S
H705 C711 0.930 . S
C706 H692 0.930 . S
C706 C704 1.395 . S
C706 C709 1.403 1_556 S
C707 C704 1.403 . S
C707 C708 1.524 . S
C707 C711 1.400 1_556 S
C708 H693 0.960 . S
C708 H694 0.960 . S
C708 H695 0.960 . S
C708 C707 1.524 . S
C709 C706 1.403 1_554 S
C709 C710 1.392 . S
C709 C713 1.495 . S
C710 C709 1.392 . S
C710 C711 1.385 . S
C710 C712 1.478 . S
C711 H705 0.930 . S
C711 C707 1.400 1_554 S
C711 C710 1.385 . S
C712 C710 1.478 . S
C712 C714 1.381 . S
C712 C718 1.383 . S
C713 C709 1.495 . S
C713 H719 0.959 . S
C713 H720 0.961 . S
C713 H721 0.960 . S
C714 C712 1.381 . S
C714 C715 1.394 . S
C714 H722 0.930 . S
C715 C714 1.394 . S
C715 C716 1.383 . S
C715 H723 0.929 . S
C716 C715 1.383 . S
C716 C717 1.377 . S
C717 H701 0.930 . S
C717 C716 1.377 . S
C717 C718 1.379 . S
C718 H702 0.931 . S
C718 C712 1.383 . S
C718 C717 1.379 . S
H719 C713 0.959 . S
H720 C713 0.961 . S
H721 C713 0.960 . S
H722 C714 0.930 . S
H723 C715 0.929 . S
H724 C732 0.929 . S
H725 C734 0.930 . S
H726 C736 0.930 . S
H727 C739 0.929 . S
H728 C742 0.930 . S
H729 C744 0.960 . S
H730 C744 0.960 . S
H731 C744 0.960 . S
C732 H724 0.929 . S
C732 C733 1.377 . S
C732 C734 1.384 . S
C733 C732 1.377 . S
C733 C739 1.390 . S
C734 H725 0.930 . S
C734 C732 1.384 . S
C734 C735 1.372 . S
C735 C734 1.372 . S
C735 C736 1.400 . S
C735 C740 1.490 . S
C736 H726 0.930 . S
C736 C735 1.400 . S
C736 C739 1.386 . S
H737 C753 0.930 . S
H738 C754 0.931 . S
C739 H727 0.929 . S
C739 C733 1.390 . S
C739 C736 1.386 . S
C740 C735 1.490 . S
C740 C742 1.395 . S
C740 C743 1.403 . S
H741 C747 0.930 . S
C742 H728 0.930 . S
C742 C740 1.395 . S
C742 C745 1.403 1_556 S
C743 C740 1.403 . S
C743 C744 1.524 . S
C743 C747 1.400 1_556 S
C744 H729 0.960 . S
C744 H730 0.960 . S
C744 H731 0.960 . S
C744 C743 1.524 . S
C745 C742 1.403 1_554 S
C745 C746 1.392 . S
C745 C749 1.495 . S
C746 C745 1.392 . S
C746 C747 1.385 . S
C746 C748 1.478 . S
C747 H741 0.930 . S
C747 C743 1.400 1_554 S
C747 C746 1.385 . S
C748 C746 1.478 . S
C748 C750 1.381 . S
C748 C754 1.383 . S
C749 C745 1.495 . S
C749 H755 0.959 . S
C749 H756 0.961 . S
C749 H757 0.960 . S
C750 C748 1.381 . S
C750 C751 1.394 . S
C750 H758 0.930 . S
C751 C750 1.394 . S
C751 C752 1.383 . S
C751 H759 0.929 . S
C752 C751 1.383 . S
C752 C753 1.377 . S
C753 H737 0.930 . S
C753 C752 1.377 . S
C753 C754 1.379 . S
C754 H738 0.931 . S
C754 C748 1.383 . S
C754 C753 1.379 . S
H755 C749 0.959 . S
H756 C749 0.961 . S
H757 C749 0.960 . S
H758 C750 0.930 . S
H759 C751 0.929 . S
H760 C768 0.929 . S
H761 C770 0.930 . S
H762 C772 0.930 . S
H763 C775 0.929 . S
H764 C778 0.930 . S
H765 C780 0.960 . S
H766 C780 0.960 . S
H767 C780 0.960 . S
C768 H760 0.929 . S
C768 C769 1.377 . S
C768 C770 1.384 . S
C769 C768 1.377 . S
C769 C775 1.390 . S
C770 H761 0.930 . S
C770 C768 1.384 . S
C770 C771 1.372 . S
C771 C770 1.372 . S
C771 C772 1.400 . S
C771 C776 1.490 . S
C772 H762 0.930 . S
C772 C771 1.400 . S
C772 C775 1.386 . S
H773 C789 0.930 . S
H774 C790 0.931 . S
C775 H763 0.929 . S
C775 C769 1.390 . S
C775 C772 1.386 . S
C776 C771 1.490 . S
C776 C778 1.395 . S
C776 C779 1.403 . S
H777 C783 0.930 . S
C778 H764 0.930 . S
C778 C776 1.395 . S
C778 C781 1.403 1_556 S
C779 C776 1.403 . S
C779 C780 1.524 . S
C779 C783 1.400 1_556 S
C780 H765 0.960 . S
C780 H766 0.960 . S
C780 H767 0.960 . S
C780 C779 1.524 . S
C781 C778 1.403 1_554 S
C781 C782 1.392 . S
C781 C785 1.495 . S
C782 C781 1.392 . S
C782 C783 1.385 . S
C782 C784 1.478 . S
C783 H777 0.930 . S
C783 C779 1.400 1_554 S
C783 C782 1.385 . S
C784 C782 1.478 . S
C784 C786 1.381 . S
C784 C790 1.383 . S
C785 C781 1.495 . S
C785 H791 0.959 . S
C785 H792 0.961 . S
C785 H793 0.960 . S
C786 C784 1.381 . S
C786 C787 1.394 . S
C786 H794 0.930 . S
C787 C786 1.394 . S
C787 C788 1.383 . S
C787 H795 0.929 . S
C788 C787 1.383 . S
C788 C789 1.377 . S
C789 H773 0.930 . S
C789 C788 1.377 . S
C789 C790 1.379 . S
C790 H774 0.931 . S
C790 C784 1.383 . S
C790 C789 1.379 . S
H791 C785 0.959 . S
H792 C785 0.961 . S
H793 C785 0.960 . S
H794 C786 0.930 . S
H795 C787 0.929 . S
H796 C804 0.929 . S
H797 C806 0.930 . S
H798 C808 0.930 . S
H799 C811 0.929 . S
H800 C814 0.930 . S
H801 C816 0.960 . S
H802 C816 0.960 . S
H803 C816 0.960 . S
C804 H796 0.929 . S
C804 C805 1.377 . S
C804 C806 1.384 . S
C805 C804 1.377 . S
C805 C811 1.390 . S
C806 H797 0.930 . S
C806 C804 1.384 . S
C806 C807 1.372 . S
C807 C806 1.372 . S
C807 C808 1.400 . S
C807 C812 1.490 . S
C808 H798 0.930 . S
C808 C807 1.400 . S
C808 C811 1.386 . S
H809 C825 0.930 . S
H810 C826 0.931 . S
C811 H799 0.929 . S
C811 C805 1.390 . S
C811 C808 1.386 . S
C812 C807 1.490 . S
C812 C814 1.395 . S
C812 C815 1.403 . S
H813 C819 0.930 . S
C814 H800 0.930 . S
C814 C812 1.395 . S
C814 C817 1.403 1_554 S
C815 C812 1.403 . S
C815 C816 1.524 . S
C815 C819 1.400 1_554 S
C816 H801 0.960 . S
C816 H802 0.960 . S
C816 H803 0.960 . S
C816 C815 1.524 . S
C817 C814 1.403 1_556 S
C817 C818 1.392 . S
C817 C821 1.495 . S
C818 C817 1.392 . S
C818 C819 1.385 . S
C818 C820 1.478 . S
C819 H813 0.930 . S
C819 C815 1.400 1_556 S
C819 C818 1.385 . S
C820 C818 1.478 . S
C820 C822 1.381 . S
C820 C826 1.383 . S
C821 C817 1.495 . S
C821 H827 0.959 . S
C821 H828 0.961 . S
C821 H829 0.960 . S
C822 C820 1.381 . S
C822 C823 1.394 . S
C822 H830 0.930 . S
C823 C822 1.394 . S
C823 C824 1.383 . S
C823 H831 0.929 . S
C824 C823 1.383 . S
C824 C825 1.377 . S
C825 H809 0.930 . S
C825 C824 1.377 . S
C825 C826 1.379 . S
C826 H810 0.931 . S
C826 C820 1.383 . S
C826 C825 1.379 . S
H827 C821 0.959 . S
H828 C821 0.961 . S
H829 C821 0.960 . S
H830 C822 0.930 . S
H831 C823 0.929 . S
H832 C840 0.929 . S
H833 C842 0.930 . S
H834 C844 0.930 . S
H835 C847 0.929 . S
H836 C850 0.930 . S
H837 C852 0.960 . S
H838 C852 0.960 . S
H839 C852 0.960 . S
C840 H832 0.929 . S
C840 C841 1.377 . S
C840 C842 1.384 . S
C841 C840 1.377 . S
C841 C847 1.390 . S
C842 H833 0.930 . S
C842 C840 1.384 . S
C842 C843 1.372 . S
C843 C842 1.372 . S
C843 C844 1.400 . S
C843 C848 1.490 . S
C844 H834 0.930 . S
C844 C843 1.400 . S
C844 C847 1.386 . S
H845 C861 0.930 . S
H846 C862 0.931 . S
C847 H835 0.929 . S
C847 C841 1.390 . S
C847 C844 1.386 . S
C848 C843 1.490 . S
C848 C850 1.395 . S
C848 C851 1.403 . S
H849 C855 0.930 . S
C850 H836 0.930 . S
C850 C848 1.395 . S
C850 C853 1.403 . S
C851 C848 1.403 . S
C851 C852 1.524 . S
C851 C855 1.400 . S
C852 H837 0.960 . S
C852 H838 0.960 . S
C852 H839 0.960 . S
C852 C851 1.524 . S
C853 C850 1.403 . S
C853 C854 1.392 . S
C853 C857 1.495 . S
C854 C853 1.392 . S
C854 C855 1.385 . S
C854 C856 1.478 . S
C855 H849 0.930 . S
C855 C851 1.400 . S
C855 C854 1.385 . S
C856 C854 1.478 . S
C856 C858 1.381 . S
C856 C862 1.383 . S
C857 C853 1.495 . S
C857 H863 0.959 . S
C857 H864 0.961 . S
C857 H865 0.960 . S
C858 C856 1.381 . S
C858 C859 1.394 . S
C858 H866 0.930 . S
C859 C858 1.394 . S
C859 C860 1.383 . S
C859 H867 0.929 . S
C860 C859 1.383 . S
C860 C861 1.377 . S
C861 H845 0.930 . S
C861 C860 1.377 . S
C861 C862 1.379 . S
C862 H846 0.931 . S
C862 C856 1.383 . S
C862 C861 1.379 . S
H863 C857 0.959 . S
H864 C857 0.961 . S
H865 C857 0.960 . S
H866 C858 0.930 . S
H867 C859 0.929 . S
H868 C876 0.929 . S
H869 C878 0.930 . S
H870 C880 0.930 . S
H871 C883 0.929 . S
H872 C886 0.930 . S
H873 C888 0.960 . S
H874 C888 0.960 . S
H875 C888 0.960 . S
C876 H868 0.929 . S
C876 C877 1.377 . S
C876 C878 1.384 . S
C877 C876 1.377 . S
C877 C883 1.390 . S
C878 H869 0.930 . S
C878 C876 1.384 . S
C878 C879 1.372 . S
C879 C878 1.372 . S
C879 C880 1.400 . S
C879 C884 1.490 . S
C880 H870 0.930 . S
C880 C879 1.400 . S
C880 C883 1.386 . S
H881 C897 0.930 . S
H882 C898 0.931 1_655 S
C883 H871 0.929 . S
C883 C877 1.390 . S
C883 C880 1.386 . S
C884 C879 1.490 . S
C884 C886 1.395 . S
C884 C887 1.403 . S
H885 C891 0.930 . S
C886 H872 0.930 . S
C886 C884 1.395 . S
C886 C889 1.403 . S
C887 C884 1.403 . S
C887 C888 1.524 . S
C887 C891 1.400 . S
C888 H873 0.960 . S
C888 H874 0.960 . S
C888 H875 0.960 . S
C888 C887 1.524 . S
C889 C886 1.403 . S
C889 C890 1.392 . S
C889 C893 1.495 . S
C890 C889 1.392 . S
C890 C891 1.385 . S
C890 C892 1.478 . S
C891 H885 0.930 . S
C891 C887 1.400 . S
C891 C890 1.385 . S
C892 C890 1.478 . S
C892 C894 1.381 1_655 S
C892 C898 1.383 1_655 S
C893 C889 1.495 . S
C893 H899 0.959 . S
C893 H900 0.961 1_655 S
C893 H901 0.960 1_655 S
C894 C892 1.381 1_455 S
C894 C895 1.394 . S
C894 H902 0.928 1_455 S
C895 C894 1.394 . S
C895 C896 1.383 . S
C895 H903 0.929 . S
C896 C895 1.383 . S
C896 C897 1.377 . S
C897 H881 0.930 . S
C897 C896 1.377 . S
C897 C898 1.379 . S
C898 H882 0.931 1_455 S
C898 C892 1.383 1_455 S
C898 C897 1.379 . S
H899 C893 0.959 . S
H900 C893 0.961 1_455 S
H901 C893 0.960 1_455 S
H902 C894 0.928 1_655 S
H903 C895 0.929 . S
H904 C912 0.929 . S
H905 C914 0.930 . S
H906 C916 0.930 . S
H907 C919 0.929 . S
H908 C922 0.930 . S
H909 C924 0.960 . S
H910 C924 0.960 . S
H911 C924 0.960 . S
C912 H904 0.929 . S
C912 C913 1.377 . S
C912 C914 1.384 . S
C913 C912 1.377 . S
C913 C919 1.390 . S
C914 H905 0.930 . S
C914 C912 1.384 . S
C914 C915 1.372 1_545 S
C915 C914 1.372 1_565 S
C915 C916 1.400 . S
C915 C920 1.490 . S
C916 H906 0.930 . S
C916 C915 1.400 . S
C916 C919 1.386 1_565 S
H917 C933 0.930 . S
H918 C934 0.931 . S
C919 H907 0.929 . S
C919 C913 1.390 . S
C919 C916 1.386 1_545 S
C920 C915 1.490 . S
C920 C922 1.395 . S
C920 C923 1.403 . S
H921 C927 0.930 . S
C922 H908 0.930 . S
C922 C920 1.395 . S
C922 C925 1.403 . S
C923 C920 1.403 . S
C923 C924 1.524 . S
C923 C927 1.400 . S
C924 H909 0.960 . S
C924 H910 0.960 . S
C924 H911 0.960 . S
C924 C923 1.524 . S
C925 C922 1.403 . S
C925 C926 1.392 . S
C925 C929 1.495 . S
C926 C925 1.392 . S
C926 C927 1.385 . S
C926 C928 1.478 . S
C927 H921 0.930 . S
C927 C923 1.400 . S
C927 C926 1.385 . S
C928 C926 1.478 . S
C928 C930 1.381 . S
C928 C934 1.383 . S
C929 C925 1.495 . S
C929 H935 0.959 . S
C929 H936 0.961 . S
C929 H937 0.960 . S
C930 C928 1.381 . S
C930 C931 1.394 . S
C930 H938 0.930 . S
C931 C930 1.394 . S
C931 C932 1.383 . S
C931 H939 0.930 . S
C932 C931 1.383 . S
C932 C933 1.377 . S
C933 H917 0.930 . S
C933 C932 1.377 . S
C933 C934 1.379 . S
C934 H918 0.931 . S
C934 C928 1.383 . S
C934 C933 1.379 . S
H935 C929 0.959 . S
H936 C929 0.961 . S
H937 C929 0.960 . S
H938 C930 0.930 . S
H939 C931 0.930 . S
H940 C948 0.929 . S
H941 C950 0.930 . S
H942 C952 0.930 . S
H943 C955 0.929 . S
H944 C958 0.930 . S
H945 C960 0.960 . S
H946 C960 0.960 . S
H947 C960 0.960 . S
C948 H940 0.929 . S
C948 C949 1.377 . S
C948 C950 1.384 . S
C949 C948 1.377 . S
C949 C955 1.390 . S
C950 H941 0.930 . S
C950 C948 1.384 . S
C950 C951 1.372 . S
C951 C950 1.372 . S
C951 C952 1.400 . S
C951 C956 1.490 . S
C952 H942 0.930 . S
C952 C951 1.400 . S
C952 C955 1.386 . S
H953 C969 0.930 . S
H954 C970 0.931 . S
C955 H943 0.929 . S
C955 C949 1.390 . S
C955 C952 1.386 . S
C956 C951 1.490 . S
C956 C958 1.395 . S
C956 C959 1.403 . S
H957 C963 0.930 . S
C958 H944 0.930 . S
C958 C956 1.395 . S
C958 C961 1.403 . S
C959 C956 1.403 . S
C959 C960 1.524 . S
C959 C963 1.400 . S
C960 H945 0.960 . S
C960 H946 0.960 . S
C960 H947 0.960 . S
C960 C959 1.524 . S
C961 C958 1.403 . S
C961 C962 1.392 . S
C961 C965 1.495 . S
C962 C961 1.392 . S
C962 C963 1.385 . S
C962 C964 1.478 . S
C963 H957 0.930 . S
C963 C959 1.400 . S
C963 C962 1.385 . S
C964 C962 1.478 . S
C964 C966 1.381 . S
C964 C970 1.383 . S
C965 C961 1.495 . S
C965 H971 0.959 . S
C965 H972 0.961 . S
C965 H973 0.960 . S
C966 C964 1.381 . S
C966 C967 1.394 . S
C966 H974 0.930 . S
C967 C966 1.394 . S
C967 C968 1.383 . S
C967 H975 0.929 . S
C968 C967 1.383 . S
C968 C969 1.377 . S
C969 H953 0.930 . S
C969 C968 1.377 . S
C969 C970 1.379 . S
C970 H954 0.931 . S
C970 C964 1.383 . S
C970 C969 1.379 . S
H971 C965 0.959 . S
H972 C965 0.961 . S
H973 C965 0.960 . S
H974 C966 0.930 . S
H975 C967 0.929 . S
H976 C984 0.929 . S
H977 C986 0.930 . S
H978 C988 0.930 . S
H979 C991 0.929 . S
H980 C994 0.930 . S
H981 C996 0.960 . S
H982 C996 0.960 . S
H983 C996 0.960 . S
C984 H976 0.929 . S
C984 C985 1.377 . S
C984 C986 1.384 . S
C985 C984 1.377 . S
C985 C991 1.390 . S
C986 H977 0.930 . S
C986 C984 1.384 . S
C986 C987 1.372 1_545 S
C987 C986 1.372 1_565 S
C987 C988 1.400 . S
C987 C992 1.490 . S
C988 H978 0.930 . S
C988 C987 1.400 . S
C988 C991 1.386 1_565 S
H989 C1005 0.930 . S
H990 C1006 0.931 . S
C991 H979 0.929 . S
C991 C985 1.390 . S
C991 C988 1.386 1_545 S
C992 C987 1.490 . S
C992 C994 1.395 . S
C992 C995 1.403 . S
H993 C999 0.930 . S
C994 H980 0.930 . S
C994 C992 1.395 . S
C994 C997 1.403 . S
C995 C992 1.403 . S
C995 C996 1.524 . S
C995 C999 1.400 . S
C996 H981 0.960 . S
C996 H982 0.960 . S
C996 H983 0.960 . S
C996 C995 1.524 . S
C997 C994 1.403 . S
C997 C998 1.392 . S
C997 C1001 1.495 . S
C998 C997 1.392 . S
C998 C999 1.385 . S
C998 C1000 1.478 . S
C999 H993 0.930 . S
C999 C995 1.400 . S
C999 C998 1.385 . S
C1000 C998 1.478 . S
C1000 C1002 1.381 . S
C1000 C1006 1.383 . S
C1001 C997 1.495 . S
C1001 H1007 0.959 . S
C1001 H1008 0.961 . S
C1001 H1009 0.960 . S
C1002 C1000 1.381 . S
C1002 C1003 1.394 . S
C1002 H1010 0.930 . S
C1003 C1002 1.394 . S
C1003 C1004 1.383 . S
C1003 H1011 0.929 . S
C1004 C1003 1.383 . S
C1004 C1005 1.377 . S
C1005 H989 0.930 . S
C1005 C1004 1.377 . S
C1005 C1006 1.379 . S
C1006 H990 0.931 . S
C1006 C1000 1.383 . S
C1006 C1005 1.379 . S
H1007 C1001 0.959 . S
H1008 C1001 0.961 . S
H1009 C1001 0.960 . S
H1010 C1002 0.930 . S
H1011 C1003 0.929 . S
H1012 C1020 0.929 . S
H1013 C1022 0.930 . S
H1014 C1024 0.930 . S
H1015 C1027 0.929 . S
H1016 C1030 0.930 . S
H1017 C1032 0.960 . S
H1018 C1032 0.960 . S
H1019 C1032 0.960 . S
C1020 H1012 0.929 . S
C1020 C1021 1.377 . S
C1020 C1022 1.384 . S
C1021 C1020 1.377 . S
C1021 C1027 1.390 . S
C1022 H1013 0.930 . S
C1022 C1020 1.384 . S
C1022 C1023 1.372 . S
C1023 C1022 1.372 . S
C1023 C1024 1.400 . S
C1023 C1028 1.490 . S
C1024 H1014 0.930 . S
C1024 C1023 1.400 . S
C1024 C1027 1.386 . S
H1025 C1041 0.930 . S
H1026 C1042 0.931 . S
C1027 H1015 0.929 . S
C1027 C1021 1.390 . S
C1027 C1024 1.386 . S
C1028 C1023 1.490 . S
C1028 C1030 1.395 . S
C1028 C1031 1.403 . S
H1029 C1035 0.930 . S
C1030 H1016 0.930 . S
C1030 C1028 1.395 . S
C1030 C1033 1.403 . S
C1031 C1028 1.403 . S
C1031 C1032 1.524 . S
C1031 C1035 1.400 . S
C1032 H1017 0.960 . S
C1032 H1018 0.960 . S
C1032 H1019 0.960 . S
C1032 C1031 1.524 . S
C1033 C1030 1.403 . S
C1033 C1034 1.392 . S
C1033 C1037 1.495 . S
C1034 C1033 1.392 . S
C1034 C1035 1.385 . S
C1034 C1036 1.478 . S
C1035 H1029 0.930 . S
C1035 C1031 1.400 . S
C1035 C1034 1.385 . S
C1036 C1034 1.478 . S
C1036 C1038 1.381 . S
C1036 C1042 1.383 . S
C1037 C1033 1.495 . S
C1037 H1043 0.959 . S
C1037 H1044 0.961 . S
C1037 H1045 0.960 . S
C1038 C1036 1.381 . S
C1038 C1039 1.394 . S
C1038 H1046 0.930 . S
C1039 C1038 1.394 . S
C1039 C1040 1.383 . S
C1039 H1047 0.929 . S
C1040 C1039 1.383 . S
C1040 C1041 1.377 . S
C1041 H1025 0.930 . S
C1041 C1040 1.377 . S
C1041 C1042 1.379 . S
C1042 H1026 0.931 . S
C1042 C1036 1.383 . S
C1042 C1041 1.379 . S
H1043 C1037 0.959 . S
H1044 C1037 0.961 . S
H1045 C1037 0.960 . S
H1046 C1038 0.930 . S
H1047 C1039 0.929 . S
H1048 C1056 0.929 . S
H1049 C1058 0.930 . S
H1050 C1060 0.930 . S
H1051 C1063 0.929 . S
H1052 C1066 0.930 . S
H1053 C1068 0.960 . S
H1054 C1068 0.960 . S
H1055 C1068 0.960 . S
C1056 H1048 0.929 . S
C1056 C1057 1.377 . S
C1056 C1058 1.384 . S
C1057 C1056 1.377 . S
C1057 C1063 1.390 . S
C1058 H1049 0.930 . S
C1058 C1056 1.384 . S
C1058 C1059 1.372 . S
C1059 C1058 1.372 . S
C1059 C1060 1.400 . S
C1059 C1064 1.490 . S
C1060 H1050 0.930 . S
C1060 C1059 1.400 . S
C1060 C1063 1.386 . S
H1061 C1077 0.930 . S
H1062 C1078 0.931 . S
C1063 H1051 0.929 . S
C1063 C1057 1.390 . S
C1063 C1060 1.386 . S
C1064 C1059 1.490 . S
C1064 C1066 1.395 . S
C1064 C1067 1.403 . S
H1065 C1071 0.930 . S
C1066 H1052 0.930 . S
C1066 C1064 1.395 . S
C1066 C1069 1.403 . S
C1067 C1064 1.403 . S
C1067 C1068 1.524 . S
C1067 C1071 1.400 . S
C1068 H1053 0.960 . S
C1068 H1054 0.960 . S
C1068 H1055 0.960 . S
C1068 C1067 1.524 . S
C1069 C1066 1.403 . S
C1069 C1070 1.392 . S
C1069 C1073 1.495 . S
C1070 C1069 1.392 . S
C1070 C1071 1.385 . S
C1070 C1072 1.478 . S
C1071 H1065 0.930 . S
C1071 C1067 1.400 . S
C1071 C1070 1.385 . S
C1072 C1070 1.478 . S
C1072 C1074 1.381 . S
C1072 C1078 1.383 . S
C1073 C1069 1.495 . S
C1073 H1079 0.959 . S
C1073 H1080 0.961 . S
C1073 H1081 0.960 . S
C1074 C1072 1.381 . S
C1074 C1075 1.394 . S
C1074 H1082 0.930 . S
C1075 C1074 1.394 . S
C1075 C1076 1.383 . S
C1075 H1083 0.929 . S
C1076 C1075 1.383 . S
C1076 C1077 1.377 . S
C1077 H1061 0.930 . S
C1077 C1076 1.377 . S
C1077 C1078 1.379 . S
C1078 H1062 0.931 . S
C1078 C1072 1.383 . S
C1078 C1077 1.379 . S
H1079 C1073 0.959 . S
H1080 C1073 0.961 . S
H1081 C1073 0.960 . S
H1082 C1074 0.930 . S
H1083 C1075 0.929 . S
H1084 C1092 0.929 . S
H1085 C1094 0.930 . S
H1086 C1096 0.930 . S
H1087 C1099 0.929 . S
H1088 C1102 0.930 . S
H1089 C1104 0.960 . S
H1090 C1104 0.960 . S
H1091 C1104 0.960 . S
C1092 H1084 0.929 . S
C1092 C1093 1.377 . S
C1092 C1094 1.384 1_455 S
C1093 C1092 1.377 . S
C1093 C1099 1.390 . S
C1094 H1085 0.930 . S
C1094 C1092 1.384 1_655 S
C1094 C1095 1.372 . S
C1095 C1094 1.372 . S
C1095 C1096 1.400 1_655 S
C1095 C1100 1.490 . S
C1096 H1086 0.930 . S
C1096 C1095 1.400 1_455 S
C1096 C1099 1.386 . S
H1097 C1113 0.930 . S
H1098 C1114 0.931 . S
C1099 H1087 0.929 . S
C1099 C1093 1.390 . S
C1099 C1096 1.386 . S
C1100 C1095 1.490 . S
C1100 C1102 1.395 . S
C1100 C1103 1.403 . S
H1101 C1107 0.930 . S
C1102 H1088 0.930 . S
C1102 C1100 1.395 . S
C1102 C1105 1.403 . S
C1103 C1100 1.403 . S
C1103 C1104 1.524 . S
C1103 C1107 1.400 . S
C1104 H1089 0.960 . S
C1104 H1090 0.960 . S
C1104 H1091 0.960 . S
C1104 C1103 1.524 . S
C1105 C1102 1.403 . S
C1105 C1106 1.392 . S
C1105 C1109 1.495 . S
C1106 C1105 1.392 . S
C1106 C1107 1.385 . S
C1106 C1108 1.478 . S
C1107 H1101 0.930 . S
C1107 C1103 1.400 . S
C1107 C1106 1.385 . S
C1108 C1106 1.478 . S
C1108 C1110 1.381 . S
C1108 C1114 1.383 . S
C1109 C1105 1.495 . S
C1109 H1115 0.959 . S
C1109 H1116 0.961 . S
C1109 H1117 0.960 . S
C1110 C1108 1.381 . S
C1110 C1111 1.394 . S
C1110 H1118 0.930 . S
C1111 C1110 1.394 . S
C1111 C1112 1.383 . S
C1111 H1119 0.929 . S
C1112 C1111 1.383 . S
C1112 C1113 1.377 . S
C1113 H1097 0.930 . S
C1113 C1112 1.377 . S
C1113 C1114 1.379 . S
C1114 H1098 0.931 . S
C1114 C1108 1.383 . S
C1114 C1113 1.379 . S
H1115 C1109 0.959 . S
H1116 C1109 0.961 . S
H1117 C1109 0.960 . S
H1118 C1110 0.930 . S
H1119 C1111 0.929 . S
H1120 C1128 0.929 . S
H1121 C1130 0.930 . S
H1122 C1132 0.930 . S
H1123 C1135 0.929 . S
H1124 C1138 0.930 . S
H1125 C1140 0.960 . S
H1126 C1140 0.960 . S
H1127 C1140 0.960 . S
C1128 H1120 0.929 . S
C1128 C1129 1.377 . S
C1128 C1130 1.384 . S
C1129 C1128 1.377 . S
C1129 C1135 1.390 . S
C1130 H1121 0.930 . S
C1130 C1128 1.384 . S
C1130 C1131 1.372 . S
C1131 C1130 1.372 . S
C1131 C1132 1.400 . S
C1131 C1136 1.490 . S
C1132 H1122 0.930 . S
C1132 C1131 1.400 . S
C1132 C1135 1.386 . S
H1133 C1149 0.930 . S
H1134 C1150 0.931 . S
C1135 H1123 0.929 . S
C1135 C1129 1.390 . S
C1135 C1132 1.386 . S
C1136 C1131 1.490 . S
C1136 C1138 1.395 . S
C1136 C1139 1.403 . S
H1137 C1143 0.930 . S
C1138 H1124 0.930 . S
C1138 C1136 1.395 . S
C1138 C1141 1.403 . S
C1139 C1136 1.403 . S
C1139 C1140 1.524 . S
C1139 C1143 1.400 . S
C1140 H1125 0.960 . S
C1140 H1126 0.960 . S
C1140 H1127 0.960 . S
C1140 C1139 1.524 . S
C1141 C1138 1.403 . S
C1141 C1142 1.392 . S
C1141 C1145 1.495 . S
C1142 C1141 1.392 . S
C1142 C1143 1.385 . S
C1142 C1144 1.478 . S
C1143 H1137 0.930 . S
C1143 C1139 1.400 . S
C1143 C1142 1.385 . S
C1144 C1142 1.478 . S
C1144 C1146 1.381 . S
C1144 C1150 1.383 . S
C1145 C1141 1.495 . S
C1145 H1151 0.959 . S
C1145 H1152 0.961 . S
C1145 H1153 0.960 . S
C1146 C1144 1.381 . S
C1146 C1147 1.394 . S
C1146 H1154 0.930 . S
C1147 C1146 1.394 . S
C1147 C1148 1.383 . S
C1147 H1155 0.929 . S
C1148 C1147 1.383 . S
C1148 C1149 1.377 . S
C1149 H1133 0.930 . S
C1149 C1148 1.377 . S
C1149 C1150 1.379 . S
C1150 H1134 0.931 . S
C1150 C1144 1.383 . S
C1150 C1149 1.379 . S
H1151 C1145 0.959 . S
H1152 C1145 0.961 . S
H1153 C1145 0.960 . S
H1154 C1146 0.930 . S
H1155 C1147 0.929 . S
H1156 C1164 0.929 . S
H1157 C1166 0.930 . S
H1158 C1168 0.930 . S
H1159 C1171 0.929 . S
H1160 C1174 0.930 . S
H1161 C1176 0.960 . S
H1162 C1176 0.960 . S
H1163 C1176 0.960 . S
C1164 H1156 0.929 . S
C1164 C1165 1.377 . S
C1164 C1166 1.384 . S
C1165 C1164 1.377 . S
C1165 C1171 1.390 . S
C1166 H1157 0.930 . S
C1166 C1164 1.384 . S
C1166 C1167 1.372 . S
C1167 C1166 1.372 . S
C1167 C1168 1.400 . S
C1167 C1172 1.490 . S
C1168 H1158 0.930 . S
C1168 C1167 1.400 . S
C1168 C1171 1.386 . S
H1169 C1185 0.930 . S
H1170 C1186 0.931 . S
C1171 H1159 0.929 . S
C1171 C1165 1.390 . S
C1171 C1168 1.386 . S
C1172 C1167 1.490 . S
C1172 C1174 1.395 . S
C1172 C1175 1.403 . S
H1173 C1179 0.930 . S
C1174 H1160 0.930 . S
C1174 C1172 1.395 . S
C1174 C1177 1.403 . S
C1175 C1172 1.403 . S
C1175 C1176 1.524 . S
C1175 C1179 1.400 . S
C1176 H1161 0.960 . S
C1176 H1162 0.960 . S
C1176 H1163 0.960 . S
C1176 C1175 1.524 . S
C1177 C1174 1.403 . S
C1177 C1178 1.392 . S
C1177 C1181 1.495 . S
C1178 C1177 1.392 . S
C1178 C1179 1.385 . S
C1178 C1180 1.478 . S
C1179 H1173 0.930 . S
C1179 C1175 1.400 . S
C1179 C1178 1.385 . S
C1180 C1178 1.478 . S
C1180 C1182 1.381 . S
C1180 C1186 1.383 . S
C1181 C1177 1.495 . S
C1181 H1187 0.959 . S
C1181 H1188 0.961 . S
C1181 H1189 0.960 . S
C1182 C1180 1.381 . S
C1182 C1183 1.394 . S
C1182 H1190 0.930 . S
C1183 C1182 1.394 . S
C1183 C1184 1.383 . S
C1183 H1191 0.929 . S
C1184 C1183 1.383 . S
C1184 C1185 1.377 . S
C1185 H1169 0.930 . S
C1185 C1184 1.377 . S
C1185 C1186 1.379 . S
C1186 H1170 0.931 . S
C1186 C1180 1.383 . S
C1186 C1185 1.379 . S
H1187 C1181 0.959 . S
H1188 C1181 0.961 . S
H1189 C1181 0.960 . S
H1190 C1182 0.930 . S
H1191 C1183 0.929 . S
H1192 C1200 0.929 . S
H1193 C1202 0.930 . S
H1194 C1204 0.930 . S
H1195 C1207 0.929 . S
H1196 C1210 0.930 . S
H1197 C1212 0.960 . S
H1198 C1212 0.960 . S
H1199 C1212 0.960 . S
C1200 H1192 0.929 . S
C1200 C1201 1.377 . S
C1200 C1202 1.384 . S
C1201 C1200 1.377 . S
C1201 C1207 1.390 . S
C1202 H1193 0.930 . S
C1202 C1200 1.384 . S
C1202 C1203 1.372 . S
C1203 C1202 1.372 . S
C1203 C1204 1.400 . S
C1203 C1208 1.490 . S
C1204 H1194 0.930 . S
C1204 C1203 1.400 . S
C1204 C1207 1.386 . S
H1205 C1221 0.930 . S
H1206 C1222 0.931 . S
C1207 H1195 0.929 . S
C1207 C1201 1.390 . S
C1207 C1204 1.386 . S
C1208 C1203 1.490 . S
C1208 C1210 1.395 . S
C1208 C1211 1.403 . S
H1209 C1215 0.930 . S
C1210 H1196 0.930 . S
C1210 C1208 1.395 . S
C1210 C1213 1.403 . S
C1211 C1208 1.403 . S
C1211 C1212 1.524 . S
C1211 C1215 1.400 . S
C1212 H1197 0.960 . S
C1212 H1198 0.960 . S
C1212 H1199 0.960 . S
C1212 C1211 1.524 . S
C1213 C1210 1.403 . S
C1213 C1214 1.392 . S
C1213 C1217 1.495 . S
C1214 C1213 1.392 . S
C1214 C1215 1.385 . S
C1214 C1216 1.478 . S
C1215 H1209 0.930 . S
C1215 C1211 1.400 . S
C1215 C1214 1.385 . S
C1216 C1214 1.478 . S
C1216 C1218 1.381 . S
C1216 C1222 1.383 . S
C1217 C1213 1.495 . S
C1217 H1223 0.959 . S
C1217 H1224 0.961 . S
C1217 H1225 0.960 . S
C1218 C1216 1.381 . S
C1218 C1219 1.394 . S
C1218 H1226 0.930 . S
C1219 C1218 1.394 . S
C1219 C1220 1.383 . S
C1219 H1227 0.929 . S
C1220 C1219 1.383 . S
C1220 C1221 1.377 . S
C1221 H1205 0.930 . S
C1221 C1220 1.377 . S
C1221 C1222 1.379 . S
C1222 H1206 0.931 . S
C1222 C1216 1.383 . S
C1222 C1221 1.379 . S
H1223 C1217 0.959 . S
H1224 C1217 0.961 . S
H1225 C1217 0.960 . S
H1226 C1218 0.930 . S
H1227 C1219 0.929 . S
H1228 C1236 0.929 . S
H1229 C1238 0.930 . S
H1230 C1240 0.930 . S
H1231 C1243 0.929 . S
H1232 C1246 0.930 . S
H1233 C1248 0.960 . S
H1234 C1248 0.960 . S
H1235 C1248 0.960 . S
C1236 H1228 0.929 . S
C1236 C1237 1.377 . S
C1236 C1238 1.384 . S
C1237 C1236 1.377 . S
C1237 C1243 1.390 . S
C1238 H1229 0.930 . S
C1238 C1236 1.384 . S
C1238 C1239 1.372 . S
C1239 C1238 1.372 . S
C1239 C1240 1.400 . S
C1239 C1244 1.490 . S
C1240 H1230 0.930 . S
C1240 C1239 1.400 . S
C1240 C1243 1.386 . S
H1241 C1257 0.930 . S
H1242 C1258 0.931 . S
C1243 H1231 0.929 . S
C1243 C1237 1.390 . S
C1243 C1240 1.386 . S
C1244 C1239 1.490 . S
C1244 C1246 1.395 . S
C1244 C1247 1.403 . S
H1245 C1251 0.930 . S
C1246 H1232 0.930 . S
C1246 C1244 1.395 . S
C1246 C1249 1.403 . S
C1247 C1244 1.403 . S
C1247 C1248 1.524 . S
C1247 C1251 1.400 . S
C1248 H1233 0.960 . S
C1248 H1234 0.960 . S
C1248 H1235 0.960 . S
C1248 C1247 1.524 . S
C1249 C1246 1.403 . S
C1249 C1250 1.392 . S
C1249 C1253 1.495 . S
C1250 C1249 1.392 . S
C1250 C1251 1.385 . S
C1250 C1252 1.478 . S
C1251 H1245 0.930 . S
C1251 C1247 1.400 . S
C1251 C1250 1.385 . S
C1252 C1250 1.478 . S
C1252 C1254 1.381 . S
C1252 C1258 1.383 . S
C1253 C1249 1.495 . S
C1253 H1259 0.959 . S
C1253 H1260 0.961 . S
C1253 H1261 0.960 . S
C1254 C1252 1.381 . S
C1254 C1255 1.394 . S
C1254 H1262 0.930 . S
C1255 C1254 1.394 . S
C1255 C1256 1.383 . S
C1255 H1263 0.929 . S
C1256 C1255 1.383 . S
C1256 C1257 1.377 . S
C1257 H1241 0.930 . S
C1257 C1256 1.377 . S
C1257 C1258 1.379 . S
C1258 H1242 0.931 . S
C1258 C1252 1.383 . S
C1258 C1257 1.379 . S
H1259 C1253 0.959 . S
H1260 C1253 0.961 . S
H1261 C1253 0.960 . S
H1262 C1254 0.930 . S
H1263 C1255 0.929 . S
H1264 C1272 0.929 . S
H1265 C1274 0.930 . S
H1266 C1276 0.930 . S
H1267 C1279 0.929 . S
H1268 C1282 0.930 . S
H1269 C1284 0.960 . S
H1270 C1284 0.960 . S
H1271 C1284 0.960 . S
C1272 H1264 0.929 . S
C1272 C1273 1.377 . S
C1272 C1274 1.384 . S
C1273 C1272 1.377 . S
C1273 C1279 1.390 . S
C1274 H1265 0.930 . S
C1274 C1272 1.384 . S
C1274 C1275 1.372 . S
C1275 C1274 1.372 . S
C1275 C1276 1.400 . S
C1275 C1280 1.490 . S
C1276 H1266 0.930 . S
C1276 C1275 1.400 . S
C1276 C1279 1.386 . S
H1277 C1293 0.930 . S
H1278 C1294 0.931 . S
C1279 H1267 0.929 . S
C1279 C1273 1.390 . S
C1279 C1276 1.386 . S
C1280 C1275 1.490 . S
C1280 C1282 1.395 . S
C1280 C1283 1.403 . S
H1281 C1287 0.930 . S
C1282 H1268 0.930 . S
C1282 C1280 1.395 . S
C1282 C1285 1.403 . S
C1283 C1280 1.403 . S
C1283 C1284 1.524 . S
C1283 C1287 1.400 . S
C1284 H1269 0.960 . S
C1284 H1270 0.960 . S
C1284 H1271 0.960 . S
C1284 C1283 1.524 . S
C1285 C1282 1.403 . S
C1285 C1286 1.392 . S
C1285 C1289 1.495 . S
C1286 C1285 1.392 . S
C1286 C1287 1.385 . S
C1286 C1288 1.478 . S
C1287 H1281 0.930 . S
C1287 C1283 1.400 . S
C1287 C1286 1.385 . S
C1288 C1286 1.478 . S
C1288 C1290 1.381 . S
C1288 C1294 1.383 . S
C1289 C1285 1.495 . S
C1289 H1295 0.959 . S
C1289 H1296 0.961 . S
C1289 H1297 0.960 . S
C1290 C1288 1.381 . S
C1290 C1291 1.394 . S
C1290 H1298 0.930 . S
C1291 C1290 1.394 . S
C1291 C1292 1.383 . S
C1291 H1299 0.929 . S
C1292 C1291 1.383 . S
C1292 C1293 1.377 . S
C1293 H1277 0.930 . S
C1293 C1292 1.377 . S
C1293 C1294 1.379 . S
C1294 H1278 0.931 . S
C1294 C1288 1.383 . S
C1294 C1293 1.379 . S
H1295 C1289 0.959 . S
H1296 C1289 0.961 . S
H1297 C1289 0.960 . S
H1298 C1290 0.930 . S
H1299 C1291 0.929 . S
H1300 C1308 0.929 . S
H1301 C1310 0.930 . S
H1302 C1312 0.930 . S
H1303 C1315 0.929 . S
H1304 C1318 0.930 . S
H1305 C1320 0.960 . S
H1306 C1320 0.960 . S
H1307 C1320 0.960 . S
C1308 H1300 0.929 . S
C1308 C1309 1.377 . S
C1308 C1310 1.384 . S
C1309 C1308 1.377 . S
C1309 C1315 1.390 . S
C1310 H1301 0.930 . S
C1310 C1308 1.384 . S
C1310 C1311 1.372 . S
C1311 C1310 1.372 . S
C1311 C1312 1.400 . S
C1311 C1316 1.490 . S
C1312 H1302 0.930 . S
C1312 C1311 1.400 . S
C1312 C1315 1.386 . S
H1313 C1329 0.930 . S
H1314 C1330 0.931 . S
C1315 H1303 0.929 . S
C1315 C1309 1.390 . S
C1315 C1312 1.386 . S
C1316 C1311 1.490 . S
C1316 C1318 1.395 . S
C1316 C1319 1.403 . S
H1317 C1323 0.930 . S
C1318 H1304 0.930 . S
C1318 C1316 1.395 . S
C1318 C1321 1.403 . S
C1319 C1316 1.403 . S
C1319 C1320 1.524 . S
C1319 C1323 1.400 . S
C1320 H1305 0.960 . S
C1320 H1306 0.960 . S
C1320 H1307 0.960 . S
C1320 C1319 1.524 . S
C1321 C1318 1.403 . S
C1321 C1322 1.392 . S
C1321 C1325 1.495 . S
C1322 C1321 1.392 . S
C1322 C1323 1.385 . S
C1322 C1324 1.478 . S
C1323 H1317 0.930 . S
C1323 C1319 1.400 . S
C1323 C1322 1.385 . S
C1324 C1322 1.478 . S
C1324 C1326 1.381 . S
C1324 C1330 1.383 . S
C1325 C1321 1.495 . S
C1325 H1331 0.959 . S
C1325 H1332 0.961 . S
C1325 H1333 0.960 . S
C1326 C1324 1.381 . S
C1326 C1327 1.394 . S
C1326 H1334 0.930 . S
C1327 C1326 1.394 . S
C1327 C1328 1.383 . S
C1327 H1335 0.929 . S
C1328 C1327 1.383 . S
C1328 C1329 1.377 . S
C1329 H1313 0.930 . S
C1329 C1328 1.377 . S
C1329 C1330 1.379 . S
C1330 H1314 0.931 . S
C1330 C1324 1.383 . S
C1330 C1329 1.379 . S
H1331 C1325 0.959 . S
H1332 C1325 0.961 . S
H1333 C1325 0.960 . S
H1334 C1326 0.930 . S
H1335 C1327 0.929 . S
H1336 C1344 0.929 . S
H1337 C1346 0.930 . S
H1338 C1348 0.930 . S
H1339 C1351 0.929 . S
H1340 C1354 0.930 . S
H1341 C1356 0.960 . S
H1342 C1356 0.960 . S
H1343 C1356 0.960 . S
C1344 H1336 0.929 . S
C1344 C1345 1.377 . S
C1344 C1346 1.384 . S
C1345 C1344 1.377 . S
C1345 C1351 1.390 . S
C1346 H1337 0.930 . S
C1346 C1344 1.384 . S
C1346 C1347 1.372 . S
C1347 C1346 1.372 . S
C1347 C1348 1.400 . S
C1347 C1352 1.490 . S
C1348 H1338 0.930 . S
C1348 C1347 1.400 . S
C1348 C1351 1.386 . S
H1349 C1365 0.930 . S
H1350 C1366 0.931 . S
C1351 H1339 0.929 . S
C1351 C1345 1.390 . S
C1351 C1348 1.386 . S
C1352 C1347 1.490 . S
C1352 C1354 1.395 . S
C1352 C1355 1.403 . S
H1353 C1359 0.930 . S
C1354 H1340 0.930 . S
C1354 C1352 1.395 . S
C1354 C1357 1.403 . S
C1355 C1352 1.403 . S
C1355 C1356 1.524 . S
C1355 C1359 1.400 . S
C1356 H1341 0.960 . S
C1356 H1342 0.960 . S
C1356 H1343 0.960 . S
C1356 C1355 1.524 . S
C1357 C1354 1.403 . S
C1357 C1358 1.392 . S
C1357 C1361 1.495 . S
C1358 C1357 1.392 . S
C1358 C1359 1.385 . S
C1358 C1360 1.478 . S
C1359 H1353 0.930 . S
C1359 C1355 1.400 . S
C1359 C1358 1.385 . S
C1360 C1358 1.478 . S
C1360 C1362 1.381 . S
C1360 C1366 1.383 . S
C1361 C1357 1.495 . S
C1361 H1367 0.959 . S
C1361 H1368 0.961 . S
C1361 H1369 0.960 . S
C1362 C1360 1.381 . S
C1362 C1363 1.394 . S
C1362 H1370 0.930 . S
C1363 C1362 1.394 . S
C1363 C1364 1.383 . S
C1363 H1371 0.929 . S
C1364 C1363 1.383 . S
C1364 C1365 1.377 . S
C1365 H1349 0.930 . S
C1365 C1364 1.377 . S
C1365 C1366 1.379 . S
C1366 H1350 0.931 . S
C1366 C1360 1.383 . S
C1366 C1365 1.379 . S
H1367 C1361 0.959 . S
H1368 C1361 0.961 . S
H1369 C1361 0.960 . S
H1370 C1362 0.930 . S
H1371 C1363 0.929 . S
H1372 C1380 0.929 . S
H1373 C1382 0.930 . S
H1374 C1384 0.930 . S
H1375 C1387 0.929 . S
H1376 C1390 0.930 . S
H1377 C1392 0.960 . S
H1378 C1392 0.960 . S
H1379 C1392 0.960 . S
C1380 H1372 0.929 . S
C1380 C1381 1.377 . S
C1380 C1382 1.384 . S
C1381 C1380 1.377 . S
C1381 C1387 1.390 . S
C1382 H1373 0.930 . S
C1382 C1380 1.384 . S
C1382 C1383 1.372 . S
C1383 C1382 1.372 . S
C1383 C1384 1.400 . S
C1383 C1388 1.490 . S
C1384 H1374 0.930 . S
C1384 C1383 1.400 . S
C1384 C1387 1.386 . S
H1385 C1401 0.930 . S
H1386 C1402 0.931 . S
C1387 H1375 0.929 . S
C1387 C1381 1.390 . S
C1387 C1384 1.386 . S
C1388 C1383 1.490 . S
C1388 C1390 1.395 . S
C1388 C1391 1.403 . S
H1389 C1395 0.930 . S
C1390 H1376 0.930 . S
C1390 C1388 1.395 . S
C1390 C1393 1.403 . S
C1391 C1388 1.403 . S
C1391 C1392 1.524 . S
C1391 C1395 1.400 . S
C1392 H1377 0.960 . S
C1392 H1378 0.960 . S
C1392 H1379 0.960 . S
C1392 C1391 1.524 . S
C1393 C1390 1.403 . S
C1393 C1394 1.392 . S
C1393 C1397 1.495 . S
C1394 C1393 1.392 . S
C1394 C1395 1.385 . S
C1394 C1396 1.478 . S
C1395 H1389 0.930 . S
C1395 C1391 1.400 . S
C1395 C1394 1.385 . S
C1396 C1394 1.478 . S
C1396 C1398 1.381 . S
C1396 C1402 1.383 . S
C1397 C1393 1.495 . S
C1397 H1403 0.959 . S
C1397 H1404 0.961 . S
C1397 H1405 0.960 . S
C1398 C1396 1.381 . S
C1398 C1399 1.394 . S
C1398 H1406 0.930 . S
C1399 C1398 1.394 . S
C1399 C1400 1.383 . S
C1399 H1407 0.929 . S
C1400 C1399 1.383 . S
C1400 C1401 1.377 . S
C1401 H1385 0.930 . S
C1401 C1400 1.377 . S
C1401 C1402 1.379 . S
C1402 H1386 0.931 . S
C1402 C1396 1.383 . S
C1402 C1401 1.379 . S
H1403 C1397 0.959 . S
H1404 C1397 0.961 . S
H1405 C1397 0.960 . S
H1406 C1398 0.930 . S
H1407 C1399 0.929 . S
H1408 C1416 0.929 . S
H1409 C1418 0.930 . S
H1410 C1420 0.930 . S
H1411 C1423 0.929 . S
H1412 C1426 0.930 . S
H1413 C1428 0.960 . S
H1414 C1428 0.960 . S
H1415 C1428 0.960 . S
C1416 H1408 0.929 . S
C1416 C1417 1.377 . S
C1416 C1418 1.384 . S
C1417 C1416 1.377 . S
C1417 C1423 1.390 . S
C1418 H1409 0.930 . S
C1418 C1416 1.384 . S
C1418 C1419 1.372 . S
C1419 C1418 1.372 . S
C1419 C1420 1.400 . S
C1419 C1424 1.490 . S
C1420 H1410 0.930 . S
C1420 C1419 1.400 . S
C1420 C1423 1.386 . S
H1421 C1437 0.930 . S
H1422 C1438 0.931 . S
C1423 H1411 0.929 . S
C1423 C1417 1.390 . S
C1423 C1420 1.386 . S
C1424 C1419 1.490 . S
C1424 C1426 1.395 . S
C1424 C1427 1.403 . S
H1425 C1431 0.930 . S
C1426 H1412 0.930 . S
C1426 C1424 1.395 . S
C1426 C1429 1.403 . S
C1427 C1424 1.403 . S
C1427 C1428 1.524 . S
C1427 C1431 1.400 . S
C1428 H1413 0.960 . S
C1428 H1414 0.960 . S
C1428 H1415 0.960 . S
C1428 C1427 1.524 . S
C1429 C1426 1.403 . S
C1429 C1430 1.392 . S
C1429 C1433 1.495 . S
C1430 C1429 1.392 . S
C1430 C1431 1.385 . S
C1430 C1432 1.478 . S
C1431 H1425 0.930 . S
C1431 C1427 1.400 . S
C1431 C1430 1.385 . S
C1432 C1430 1.478 . S
C1432 C1434 1.381 . S
C1432 C1438 1.383 . S
C1433 C1429 1.495 . S
C1433 H1439 0.959 . S
C1433 H1440 0.961 . S
C1433 H1441 0.960 . S
C1434 C1432 1.381 . S
C1434 C1435 1.394 . S
C1434 H1442 0.930 . S
C1435 C1434 1.394 . S
C1435 C1436 1.383 . S
C1435 H1443 0.929 . S
C1436 C1435 1.383 . S
C1436 C1437 1.377 . S
C1437 H1421 0.930 . S
C1437 C1436 1.377 . S
C1437 C1438 1.379 . S
C1438 H1422 0.931 . S
C1438 C1432 1.383 . S
C1438 C1437 1.379 . S
H1439 C1433 0.959 . S
H1440 C1433 0.961 . S
H1441 C1433 0.960 . S
H1442 C1434 0.930 . S
H1443 C1435 0.929 . S
H1444 C1452 0.929 . S
H1445 C1454 0.930 . S
H1446 C1456 0.930 . S
H1447 C1459 0.929 . S
H1448 C1462 0.930 . S
H1449 C1464 0.960 . S
H1450 C1464 0.960 . S
H1451 C1464 0.960 . S
C1452 H1444 0.929 . S
C1452 C1453 1.377 . S
C1452 C1454 1.384 . S
C1453 C1452 1.377 . S
C1453 C1459 1.390 . S
C1454 H1445 0.930 . S
C1454 C1452 1.384 . S
C1454 C1455 1.372 . S
C1455 C1454 1.372 . S
C1455 C1456 1.400 . S
C1455 C1460 1.490 . S
C1456 H1446 0.930 . S
C1456 C1455 1.400 . S
C1456 C1459 1.386 . S
H1457 C1473 0.930 . S
H1458 C1474 0.931 . S
C1459 H1447 0.929 . S
C1459 C1453 1.390 . S
C1459 C1456 1.386 . S
C1460 C1455 1.490 . S
C1460 C1462 1.395 . S
C1460 C1463 1.403 . S
H1461 C1467 0.930 . S
C1462 H1448 0.930 . S
C1462 C1460 1.395 . S
C1462 C1465 1.403 . S
C1463 C1460 1.403 . S
C1463 C1464 1.524 . S
C1463 C1467 1.400 . S
C1464 H1449 0.960 . S
C1464 H1450 0.960 . S
C1464 H1451 0.960 . S
C1464 C1463 1.524 . S
C1465 C1462 1.403 . S
C1465 C1466 1.392 . S
C1465 C1469 1.495 . S
C1466 C1465 1.392 . S
C1466 C1467 1.385 . S
C1466 C1468 1.478 . S
C1467 H1461 0.930 . S
C1467 C1463 1.400 . S
C1467 C1466 1.385 . S
C1468 C1466 1.478 . S
C1468 C1470 1.381 . S
C1468 C1474 1.383 . S
C1469 C1465 1.495 . S
C1469 H1475 0.959 . S
C1469 H1476 0.961 . S
C1469 H1477 0.960 . S
C1470 C1468 1.381 . S
C1470 C1471 1.394 . S
C1470 H1478 0.930 . S
C1471 C1470 1.394 . S
C1471 C1472 1.383 . S
C1471 H1479 0.929 . S
C1472 C1471 1.383 . S
C1472 C1473 1.377 . S
C1473 H1457 0.930 . S
C1473 C1472 1.377 . S
C1473 C1474 1.379 . S
C1474 H1458 0.931 . S
C1474 C1468 1.383 . S
C1474 C1473 1.379 . S
H1475 C1469 0.959 . S
H1476 C1469 0.961 . S
H1477 C1469 0.960 . S
H1478 C1470 0.930 . S
H1479 C1471 0.929 . S
H1480 C1488 0.929 . S
H1481 C1490 0.930 . S
H1482 C1492 0.930 . S
H1483 C1495 0.929 . S
H1484 C1498 0.930 . S
H1485 C1500 0.960 . S
H1486 C1500 0.960 . S
H1487 C1500 0.960 . S
C1488 H1480 0.929 . S
C1488 C1489 1.377 . S
C1488 C1490 1.384 . S
C1489 C1488 1.377 . S
C1489 C1495 1.390 . S
C1490 H1481 0.930 . S
C1490 C1488 1.384 . S
C1490 C1491 1.372 . S
C1491 C1490 1.372 . S
C1491 C1492 1.400 . S
C1491 C1496 1.490 . S
C1492 H1482 0.930 . S
C1492 C1491 1.400 . S
C1492 C1495 1.386 . S
H1493 C1509 0.930 . S
H1494 C1510 0.931 . S
C1495 H1483 0.929 . S
C1495 C1489 1.390 . S
C1495 C1492 1.386 . S
C1496 C1491 1.490 . S
C1496 C1498 1.395 . S
C1496 C1499 1.403 . S
H1497 C1503 0.930 . S
C1498 H1484 0.930 . S
C1498 C1496 1.395 . S
C1498 C1501 1.403 . S
C1499 C1496 1.403 . S
C1499 C1500 1.524 . S
C1499 C1503 1.400 . S
C1500 H1485 0.960 . S
C1500 H1486 0.960 . S
C1500 H1487 0.960 . S
C1500 C1499 1.524 . S
C1501 C1498 1.403 . S
C1501 C1502 1.392 . S
C1501 C1505 1.495 . S
C1502 C1501 1.392 . S
C1502 C1503 1.385 . S
C1502 C1504 1.478 . S
C1503 H1497 0.930 . S
C1503 C1499 1.400 . S
C1503 C1502 1.385 . S
C1504 C1502 1.478 . S
C1504 C1506 1.381 . S
C1504 C1510 1.383 . S
C1505 C1501 1.495 . S
C1505 H1511 0.959 . S
C1505 H1512 0.961 . S
C1505 H1513 0.960 . S
C1506 C1504 1.381 . S
C1506 C1507 1.394 . S
C1506 H1514 0.930 . S
C1507 C1506 1.394 . S
C1507 C1508 1.383 . S
C1507 H1515 0.929 . S
C1508 C1507 1.383 . S
C1508 C1509 1.377 . S
C1509 H1493 0.930 . S
C1509 C1508 1.377 . S
C1509 C1510 1.379 . S
C1510 H1494 0.931 . S
C1510 C1504 1.383 . S
C1510 C1509 1.379 . S
H1511 C1505 0.959 . S
H1512 C1505 0.961 . S
H1513 C1505 0.960 . S
H1514 C1506 0.930 . S
H1515 C1507 0.929 . S
H1516 C1524 0.929 . S
H1517 C1526 0.930 . S
H1518 C1528 0.930 . S
H1519 C1531 0.929 . S
H1520 C1534 0.930 . S
H1521 C1536 0.960 . S
H1522 C1536 0.960 . S
H1523 C1536 0.960 . S
C1524 H1516 0.929 . S
C1524 C1525 1.377 . S
C1524 C1526 1.384 . S
C1525 C1524 1.377 . S
C1525 C1531 1.390 . S
C1526 H1517 0.930 . S
C1526 C1524 1.384 . S
C1526 C1527 1.372 . S
C1527 C1526 1.372 . S
C1527 C1528 1.400 . S
C1527 C1532 1.490 . S
C1528 H1518 0.930 . S
C1528 C1527 1.400 . S
C1528 C1531 1.386 . S
H1529 C1545 0.930 . S
H1530 C1546 0.931 . S
C1531 H1519 0.929 . S
C1531 C1525 1.390 . S
C1531 C1528 1.386 . S
C1532 C1527 1.490 . S
C1532 C1534 1.395 . S
C1532 C1535 1.403 . S
H1533 C1539 0.930 . S
C1534 H1520 0.930 . S
C1534 C1532 1.395 . S
C1534 C1537 1.403 . S
C1535 C1532 1.403 . S
C1535 C1536 1.524 . S
C1535 C1539 1.400 . S
C1536 H1521 0.960 . S
C1536 H1522 0.960 . S
C1536 H1523 0.960 . S
C1536 C1535 1.524 . S
C1537 C1534 1.403 . S
C1537 C1538 1.392 . S
C1537 C1541 1.495 . S
C1538 C1537 1.392 . S
C1538 C1539 1.385 . S
C1538 C1540 1.478 . S
C1539 H1533 0.930 . S
C1539 C1535 1.400 . S
C1539 C1538 1.385 . S
C1540 C1538 1.478 . S
C1540 C1542 1.381 . S
C1540 C1546 1.383 . S
C1541 C1537 1.495 . S
C1541 H1547 0.959 . S
C1541 H1548 0.961 . S
C1541 H1549 0.960 . S
C1542 C1540 1.381 . S
C1542 C1543 1.394 . S
C1542 H1550 0.930 . S
C1543 C1542 1.394 . S
C1543 C1544 1.383 . S
C1543 H1551 0.929 . S
C1544 C1543 1.383 . S
C1544 C1545 1.377 . S
C1545 H1529 0.930 . S
C1545 C1544 1.377 . S
C1545 C1546 1.379 . S
C1546 H1530 0.931 . S
C1546 C1540 1.383 . S
C1546 C1545 1.379 . S
H1547 C1541 0.959 . S
H1548 C1541 0.961 . S
H1549 C1541 0.960 . S
H1550 C1542 0.930 . S
H1551 C1543 0.929 . S
H1552 C1560 0.929 . S
H1553 C1562 0.930 . S
H1554 C1564 0.930 . S
H1555 C1567 0.929 . S
H1556 C1570 0.930 . S
H1557 C1572 0.960 . S
H1558 C1572 0.960 . S
H1559 C1572 0.960 . S
C1560 H1552 0.929 . S
C1560 C1561 1.377 . S
C1560 C1562 1.384 . S
C1561 C1560 1.377 . S
C1561 C1567 1.390 . S
C1562 H1553 0.930 . S
C1562 C1560 1.384 . S
C1562 C1563 1.372 . S
C1563 C1562 1.372 . S
C1563 C1564 1.400 . S
C1563 C1568 1.490 . S
C1564 H1554 0.930 . S
C1564 C1563 1.400 . S
C1564 C1567 1.386 . S
H1565 C1581 0.930 . S
H1566 C1582 0.931 . S
C1567 H1555 0.929 . S
C1567 C1561 1.390 . S
C1567 C1564 1.386 . S
C1568 C1563 1.490 . S
C1568 C1570 1.395 . S
C1568 C1571 1.403 . S
H1569 C1575 0.930 . S
C1570 H1556 0.930 . S
C1570 C1568 1.395 . S
C1570 C1573 1.403 . S
C1571 C1568 1.403 . S
C1571 C1572 1.524 . S
C1571 C1575 1.400 . S
C1572 H1557 0.960 . S
C1572 H1558 0.960 . S
C1572 H1559 0.960 . S
C1572 C1571 1.524 . S
C1573 C1570 1.403 . S
C1573 C1574 1.392 . S
C1573 C1577 1.495 . S
C1574 C1573 1.392 . S
C1574 C1575 1.385 . S
C1574 C1576 1.478 . S
C1575 H1569 0.930 . S
C1575 C1571 1.400 . S
C1575 C1574 1.385 . S
C1576 C1574 1.478 . S
C1576 C1578 1.381 . S
C1576 C1582 1.383 . S
C1577 C1573 1.495 . S
C1577 H1583 0.959 . S
C1577 H1584 0.961 . S
C1577 H1585 0.960 . S
C1578 C1576 1.381 . S
C1578 C1579 1.394 . S
C1578 H1586 0.930 . S
C1579 C1578 1.394 . S
C1579 C1580 1.383 . S
C1579 H1587 0.929 . S
C1580 C1579 1.383 . S
C1580 C1581 1.377 . S
C1581 H1565 0.930 . S
C1581 C1580 1.377 . S
C1581 C1582 1.379 . S
C1582 H1566 0.931 . S
C1582 C1576 1.383 . S
C1582 C1581 1.379 . S
H1583 C1577 0.959 . S
H1584 C1577 0.961 . S
H1585 C1577 0.960 . S
H1586 C1578 0.930 . S
H1587 C1579 0.929 . S
H1588 C1596 0.929 . S
H1589 C1598 0.930 . S
H1590 C1600 0.930 . S
H1591 C1603 0.929 . S
H1592 C1606 0.930 . S
H1593 C1608 0.960 . S
H1594 C1608 0.960 . S
H1595 C1608 0.960 . S
C1596 H1588 0.929 . S
C1596 C1597 1.377 . S
C1596 C1598 1.384 . S
C1597 C1596 1.377 . S
C1597 C1603 1.390 . S
C1598 H1589 0.930 . S
C1598 C1596 1.384 . S
C1598 C1599 1.372 . S
C1599 C1598 1.372 . S
C1599 C1600 1.400 . S
C1599 C1604 1.490 . S
C1600 H1590 0.930 . S
C1600 C1599 1.400 . S
C1600 C1603 1.386 . S
H1601 C1617 0.930 . S
H1602 C1618 0.931 . S
C1603 H1591 0.929 . S
C1603 C1597 1.390 . S
C1603 C1600 1.386 . S
C1604 C1599 1.490 . S
C1604 C1606 1.395 . S
C1604 C1607 1.403 . S
H1605 C1611 0.930 . S
C1606 H1592 0.930 . S
C1606 C1604 1.395 . S
C1606 C1609 1.403 . S
C1607 C1604 1.403 . S
C1607 C1608 1.524 . S
C1607 C1611 1.400 . S
C1608 H1593 0.960 . S
C1608 H1594 0.960 . S
C1608 H1595 0.960 . S
C1608 C1607 1.524 . S
C1609 C1606 1.403 . S
C1609 C1610 1.392 . S
C1609 C1613 1.495 . S
C1610 C1609 1.392 . S
C1610 C1611 1.385 . S
C1610 C1612 1.478 . S
C1611 H1605 0.930 . S
C1611 C1607 1.400 . S
C1611 C1610 1.385 . S
C1612 C1610 1.478 . S
C1612 C1614 1.381 . S
C1612 C1618 1.383 . S
C1613 C1609 1.495 . S
C1613 H1619 0.959 . S
C1613 H1620 0.961 . S
C1613 H1621 0.960 . S
C1614 C1612 1.381 . S
C1614 C1615 1.394 . S
C1614 H1622 0.930 . S
C1615 C1614 1.394 . S
C1615 C1616 1.383 . S
C1615 H1623 0.929 . S
C1616 C1615 1.383 . S
C1616 C1617 1.377 . S
C1617 H1601 0.930 . S
C1617 C1616 1.377 . S
C1617 C1618 1.379 . S
C1618 H1602 0.931 . S
C1618 C1612 1.383 . S
C1618 C1617 1.379 . S
H1619 C1613 0.959 . S
H1620 C1613 0.961 . S
H1621 C1613 0.960 . S
H1622 C1614 0.930 . S
H1623 C1615 0.929 . S
H1624 C1632 0.929 . S
H1625 C1634 0.930 . S
H1626 C1636 0.930 . S
H1627 C1639 0.929 . S
H1628 C1642 0.930 . S
H1629 C1644 0.960 . S
H1630 C1644 0.960 . S
H1631 C1644 0.960 . S
C1632 H1624 0.929 . S
C1632 C1633 1.377 . S
C1632 C1634 1.384 . S
C1633 C1632 1.377 . S
C1633 C1639 1.390 . S
C1634 H1625 0.930 . S
C1634 C1632 1.384 . S
C1634 C1635 1.372 . S
C1635 C1634 1.372 . S
C1635 C1636 1.400 . S
C1635 C1640 1.490 . S
C1636 H1626 0.930 . S
C1636 C1635 1.400 . S
C1636 C1639 1.386 . S
H1637 C1653 0.930 . S
H1638 C1654 0.931 . S
C1639 H1627 0.929 . S
C1639 C1633 1.390 . S
C1639 C1636 1.386 . S
C1640 C1635 1.490 . S
C1640 C1642 1.395 . S
C1640 C1643 1.403 . S
H1641 C1647 0.930 . S
C1642 H1628 0.930 . S
C1642 C1640 1.395 . S
C1642 C1645 1.403 . S
C1643 C1640 1.403 . S
C1643 C1644 1.524 . S
C1643 C1647 1.400 . S
C1644 H1629 0.960 . S
C1644 H1630 0.960 . S
C1644 H1631 0.960 . S
C1644 C1643 1.524 . S
C1645 C1642 1.403 . S
C1645 C1646 1.392 . S
C1645 C1649 1.495 . S
C1646 C1645 1.392 . S
C1646 C1647 1.385 . S
C1646 C1648 1.478 . S
C1647 H1641 0.930 . S
C1647 C1643 1.400 . S
C1647 C1646 1.385 . S
C1648 C1646 1.478 . S
C1648 C1650 1.381 . S
C1648 C1654 1.383 . S
C1649 C1645 1.495 . S
C1649 H1655 0.959 . S
C1649 H1656 0.961 . S
C1649 H1657 0.960 . S
C1650 C1648 1.381 . S
C1650 C1651 1.394 . S
C1650 H1658 0.930 . S
C1651 C1650 1.394 . S
C1651 C1652 1.383 . S
C1651 H1659 0.929 . S
C1652 C1651 1.383 . S
C1652 C1653 1.377 . S
C1653 H1637 0.930 . S
C1653 C1652 1.377 . S
C1653 C1654 1.379 . S
C1654 H1638 0.931 . S
C1654 C1648 1.383 . S
C1654 C1653 1.379 . S
H1655 C1649 0.959 . S
H1656 C1649 0.961 . S
H1657 C1649 0.960 . S
H1658 C1650 0.930 . S
H1659 C1651 0.929 . S
H1660 C1668 0.929 . S
H1661 C1670 0.930 . S
H1662 C1672 0.930 . S
H1663 C1675 0.929 . S
H1664 C1678 0.930 . S
H1665 C1680 0.960 . S
H1666 C1680 0.960 . S
H1667 C1680 0.960 . S
C1668 H1660 0.929 . S
C1668 C1669 1.377 . S
C1668 C1670 1.384 . S
C1669 C1668 1.377 . S
C1669 C1675 1.390 . S
C1670 H1661 0.930 . S
C1670 C1668 1.384 . S
C1670 C1671 1.372 . S
C1671 C1670 1.372 . S
C1671 C1672 1.400 . S
C1671 C1676 1.490 . S
C1672 H1662 0.930 . S
C1672 C1671 1.400 . S
C1672 C1675 1.386 . S
H1673 C1689 0.965 . S
H1674 C1690 0.931 . S
C1675 H1663 0.929 . S
C1675 C1669 1.390 . S
C1675 C1672 1.386 . S
C1676 C1671 1.490 . S
C1676 C1678 1.395 . S
C1676 C1679 1.403 . S
H1677 C1683 0.930 . S
C1678 H1664 0.930 . S
C1678 C1676 1.395 . S
C1678 C1681 1.403 . S
C1679 C1676 1.403 . S
C1679 C1680 1.524 . S
C1679 C1683 1.400 . S
C1680 H1665 0.960 . S
C1680 H1666 0.960 . S
C1680 H1667 0.960 . S
C1680 C1679 1.524 . S
C1681 C1678 1.403 . S
C1681 C1682 1.392 . S
C1681 C1685 1.495 . S
C1682 C1681 1.392 . S
C1682 C1683 1.385 . S
C1682 C1684 1.478 . S
C1683 H1677 0.930 . S
C1683 C1679 1.400 . S
C1683 C1682 1.385 . S
C1684 C1682 1.478 . S
C1684 C1686 1.381 . S
C1684 C1690 1.383 . S
C1685 C1681 1.495 . S
C1685 H1691 0.959 . S
C1685 H1692 0.961 . S
C1685 H1693 0.960 . S
C1686 C1684 1.381 . S
C1686 C1687 1.394 . S
C1686 H1694 0.930 . S
C1687 C1686 1.394 . S
C1687 C1688 1.383 . S
C1687 H1695 0.929 . S
C1688 C1687 1.383 . S
C1688 C1689 1.377 . S
C1689 H1673 0.965 . S
C1689 C1688 1.377 . S
C1689 C1690 1.379 . S
C1690 H1674 0.931 . S
C1690 C1684 1.383 . S
C1690 C1689 1.379 . S
H1691 C1685 0.959 . S
H1692 C1685 0.961 . S
H1693 C1685 0.960 . S
H1694 C1686 0.930 . S
H1695 C1687 0.929 . S
H1696 C1704 0.929 . S
H1697 C1706 0.930 . S
H1698 C1708 0.930 . S
H1699 C1711 0.929 1_455 S
H1700 C1714 0.930 . S
H1701 C1716 0.960 . S
H1702 C1716 0.960 . S
H1703 C1716 0.960 . S
C1704 H1696 0.929 . S
C1704 C1705 1.353 1_655 S
C1704 C1706 1.384 . S
C1705 C1704 1.353 1_455 S
C1705 C1711 1.384 1_455 S
C1706 H1697 0.930 . S
C1706 C1704 1.384 . S
C1706 C1707 1.372 . S
C1707 C1706 1.372 . S
C1707 C1708 1.400 . S
C1707 C1712 1.490 . S
C1708 H1698 0.930 . S
C1708 C1707 1.400 . S
C1708 C1711 1.386 . S
H1709 C1725 0.930 . S
H1710 C1726 0.931 . S
C1711 H1699 0.929 1_655 S
C1711 C1705 1.384 1_655 S
C1711 C1708 1.386 . S
C1712 C1707 1.490 . S
C1712 C1714 1.395 . S
C1712 C1715 1.403 . S
H1713 C1719 0.930 . S
C1714 H1700 0.930 . S
C1714 C1712 1.395 . S
C1714 C1717 1.403 . S
C1715 C1712 1.403 . S
C1715 C1716 1.524 . S
C1715 C1719 1.400 . S
C1716 H1701 0.960 . S
C1716 H1702 0.960 . S
C1716 H1703 0.960 . S
C1716 C1715 1.524 . S
C1717 C1714 1.403 . S
C1717 C1718 1.392 . S
C1717 C1721 1.495 . S
C1718 C1717 1.392 . S
C1718 C1719 1.385 . S
C1718 C1720 1.478 . S
C1719 H1713 0.930 . S
C1719 C1715 1.400 . S
C1719 C1718 1.385 . S
C1720 C1718 1.478 . S
C1720 C1722 1.381 . S
C1720 C1726 1.383 . S
C1721 C1717 1.495 . S
C1721 H1727 0.959 . S
C1721 H1728 0.961 . S
C1721 H1729 0.960 . S
C1722 C1720 1.381 . S
C1722 C1723 1.394 . S
C1722 H1730 0.930 . S
C1723 C1722 1.394 . S
C1723 C1724 1.383 . S
C1723 H1731 0.929 . S
C1724 C1723 1.383 . S
C1724 C1725 1.377 . S
C1725 H1709 0.930 . S
C1725 C1724 1.377 . S
C1725 C1726 1.379 . S
C1726 H1710 0.931 . S
C1726 C1720 1.383 . S
C1726 C1725 1.379 . S
H1727 C1721 0.959 . S
H1728 C1721 0.961 . S
H1729 C1721 0.960 . S
H1730 C1722 0.930 . S
H1731 C1723 0.929 . S
H1732 C1740 0.933 . S
H1733 C1742 0.930 . S
H1734 C1744 0.930 . S
H1735 C1747 0.929 . S
H1736 C1750 0.930 . S
H1737 C1752 0.960 . S
H1738 C1752 0.960 . S
H1739 C1752 0.960 . S
C1740 H1732 0.933 . S
C1740 C1741 1.377 . S
C1740 C1742 1.380 1_545 S
C1741 C1740 1.377 . S
C1741 C1747 1.369 1_545 S
C1742 H1733 0.930 . S
C1742 C1740 1.380 1_565 S
C1742 C1743 1.372 . S
C1743 C1742 1.372 . S
C1743 C1744 1.400 . S
C1743 C1748 1.490 . S
C1744 H1734 0.930 . S
C1744 C1743 1.400 . S
C1744 C1747 1.386 . S
H1745 C1761 0.930 . S
H1746 C1762 0.931 . S
C1747 H1735 0.929 . S
C1747 C1741 1.369 1_565 S
C1747 C1744 1.386 . S
C1748 C1743 1.490 . S
C1748 C1750 1.395 . S
C1748 C1751 1.403 . S
H1749 C1755 0.930 . S
C1750 H1736 0.930 . S
C1750 C1748 1.395 . S
C1750 C1753 1.403 . S
C1751 C1748 1.403 . S
C1751 C1752 1.524 . S
C1751 C1755 1.400 . S
C1752 H1737 0.960 . S
C1752 H1738 0.960 . S
C1752 H1739 0.960 . S
C1752 C1751 1.524 . S
C1753 C1750 1.403 . S
C1753 C1754 1.392 . S
C1753 C1757 1.495 . S
C1754 C1753 1.392 . S
C1754 C1755 1.385 . S
C1754 C1756 1.478 . S
C1755 H1749 0.930 . S
C1755 C1751 1.400 . S
C1755 C1754 1.385 . S
C1756 C1754 1.478 . S
C1756 C1758 1.381 . S
C1756 C1762 1.383 . S
C1757 C1753 1.495 . S
C1757 H1763 0.959 . S
C1757 H1764 0.961 . S
C1757 H1765 0.960 . S
C1758 C1756 1.381 . S
C1758 C1759 1.394 . S
C1758 H1766 0.930 . S
C1759 C1758 1.394 . S
C1759 C1760 1.383 . S
C1759 H1767 0.929 . S
C1760 C1759 1.383 . S
C1760 C1761 1.377 . S
C1761 H1745 0.930 . S
C1761 C1760 1.377 . S
C1761 C1762 1.379 . S
C1762 H1746 0.931 . S
C1762 C1756 1.383 . S
C1762 C1761 1.379 . S
H1763 C1757 0.959 . S
H1764 C1757 0.961 . S
H1765 C1757 0.960 . S
H1766 C1758 0.930 . S
H1767 C1759 0.929 . S
H1768 C1776 0.929 . S
H1769 C1778 0.930 . S
H1770 C1780 0.930 . S
H1771 C1783 0.929 . S
H1772 C1786 0.930 . S
H1773 C1788 0.960 . S
H1774 C1788 0.960 . S
H1775 C1788 0.960 . S
C1776 H1768 0.929 . S
C1776 C1777 1.377 . S
C1776 C1778 1.384 . S
C1777 C1776 1.377 . S
C1777 C1783 1.390 . S
C1778 H1769 0.930 . S
C1778 C1776 1.384 . S
C1778 C1779 1.372 . S
C1779 C1778 1.372 . S
C1779 C1780 1.400 . S
C1779 C1784 1.490 . S
C1780 H1770 0.930 . S
C1780 C1779 1.400 . S
C1780 C1783 1.386 . S
H1781 C1797 0.930 . S
H1782 C1798 0.931 . S
C1783 H1771 0.929 . S
C1783 C1777 1.390 . S
C1783 C1780 1.386 . S
C1784 C1779 1.490 . S
C1784 C1786 1.395 . S
C1784 C1787 1.403 . S
H1785 C1791 0.930 . S
C1786 H1772 0.930 . S
C1786 C1784 1.395 . S
C1786 C1789 1.403 . S
C1787 C1784 1.403 . S
C1787 C1788 1.524 . S
C1787 C1791 1.400 . S
C1788 H1773 0.960 . S
C1788 H1774 0.960 . S
C1788 H1775 0.960 . S
C1788 C1787 1.524 . S
C1789 C1786 1.403 . S
C1789 C1790 1.392 . S
C1789 C1793 1.495 . S
C1790 C1789 1.392 . S
C1790 C1791 1.385 . S
C1790 C1792 1.478 . S
C1791 H1785 0.930 . S
C1791 C1787 1.400 . S
C1791 C1790 1.385 . S
C1792 C1790 1.478 . S
C1792 C1794 1.381 . S
C1792 C1798 1.383 . S
C1793 C1789 1.495 . S
C1793 H1799 0.959 . S
C1793 H1800 0.961 . S
C1793 H1801 0.960 . S
C1794 C1792 1.381 . S
C1794 C1795 1.394 . S
C1794 H1802 0.930 . S
C1795 C1794 1.394 . S
C1795 C1796 1.383 . S
C1795 H1803 0.929 . S
C1796 C1795 1.383 . S
C1796 C1797 1.377 . S
C1797 H1781 0.930 . S
C1797 C1796 1.377 . S
C1797 C1798 1.379 . S
C1798 H1782 0.931 . S
C1798 C1792 1.383 . S
C1798 C1797 1.379 . S
H1799 C1793 0.959 . S
H1800 C1793 0.961 . S
H1801 C1793 0.960 . S
H1802 C1794 0.930 . S
H1803 C1795 0.929 . S
H1804 C1812 0.929 . S
H1805 C1814 0.930 . S
H1806 C1816 0.930 . S
H1807 C1819 0.929 . S
H1808 C1822 0.930 . S
H1809 C1824 0.960 . S
H1810 C1824 0.960 . S
H1811 C1824 0.960 . S
C1812 H1804 0.929 . S
C1812 C1813 1.377 . S
C1812 C1814 1.384 . S
C1813 C1812 1.377 . S
C1813 C1819 1.390 . S
C1814 H1805 0.930 . S
C1814 C1812 1.384 . S
C1814 C1815 1.372 . S
C1815 C1814 1.372 . S
C1815 C1816 1.400 . S
C1815 C1820 1.490 . S
C1816 H1806 0.930 . S
C1816 C1815 1.400 . S
C1816 C1819 1.386 . S
H1817 C1833 0.930 . S
H1818 C1834 0.931 . S
C1819 H1807 0.929 . S
C1819 C1813 1.390 . S
C1819 C1816 1.386 . S
C1820 C1815 1.490 . S
C1820 C1822 1.395 . S
C1820 C1823 1.403 . S
H1821 C1827 0.930 . S
C1822 H1808 0.930 . S
C1822 C1820 1.395 . S
C1822 C1825 1.403 . S
C1823 C1820 1.403 . S
C1823 C1824 1.524 . S
C1823 C1827 1.400 . S
C1824 H1809 0.960 . S
C1824 H1810 0.960 . S
C1824 H1811 0.960 . S
C1824 C1823 1.524 . S
C1825 C1822 1.403 . S
C1825 C1826 1.392 . S
C1825 C1829 1.495 . S
C1826 C1825 1.392 . S
C1826 C1827 1.385 . S
C1826 C1828 1.478 . S
C1827 H1821 0.930 . S
C1827 C1823 1.400 . S
C1827 C1826 1.385 . S
C1828 C1826 1.478 . S
C1828 C1830 1.381 . S
C1828 C1834 1.383 . S
C1829 C1825 1.495 . S
C1829 H1835 0.959 . S
C1829 H1836 0.961 . S
C1829 H1837 0.960 . S
C1830 C1828 1.381 . S
C1830 C1831 1.394 . S
C1830 H1838 0.930 . S
C1831 C1830 1.394 . S
C1831 C1832 1.383 . S
C1831 H1839 0.929 . S
C1832 C1831 1.383 . S
C1832 C1833 1.377 . S
C1833 H1817 0.930 . S
C1833 C1832 1.377 . S
C1833 C1834 1.379 . S
C1834 H1818 0.931 . S
C1834 C1828 1.383 . S
C1834 C1833 1.379 . S
H1835 C1829 0.959 . S
H1836 C1829 0.961 . S
H1837 C1829 0.960 . S
H1838 C1830 0.930 . S
H1839 C1831 0.929 . S
H1840 C1848 0.929 . S
H1841 C1850 0.930 . S
H1842 C1852 0.930 . S
H1843 C1855 0.915 1_455 S
H1844 C1858 0.930 . S
H1845 C1860 0.960 . S
H1846 C1860 0.960 . S
H1847 C1860 0.960 . S
C1848 H1840 0.929 . S
C1848 C1849 1.367 1_655 S
C1848 C1850 1.384 . S
C1849 C1848 1.367 1_455 S
C1849 C1855 1.384 1_455 S
C1850 H1841 0.930 . S
C1850 C1848 1.384 . S
C1850 C1851 1.372 . S
C1851 C1850 1.372 . S
C1851 C1852 1.400 . S
C1851 C1856 1.490 . S
C1852 H1842 0.930 . S
C1852 C1851 1.400 . S
C1852 C1855 1.386 . S
H1853 C1869 0.930 . S
H1854 C1870 0.931 . S
C1855 H1843 0.915 1_655 S
C1855 C1849 1.384 1_655 S
C1855 C1852 1.386 . S
C1856 C1851 1.490 . S
C1856 C1858 1.395 . S
C1856 C1859 1.403 . S
H1857 C1863 0.930 . S
C1858 H1844 0.930 . S
C1858 C1856 1.395 . S
C1858 C1861 1.403 . S
C1859 C1856 1.403 . S
C1859 C1860 1.524 . S
C1859 C1863 1.400 . S
C1860 H1845 0.960 . S
C1860 H1846 0.960 . S
C1860 H1847 0.960 . S
C1860 C1859 1.524 . S
C1861 C1858 1.403 . S
C1861 C1862 1.392 . S
C1861 C1865 1.495 . S
C1862 C1861 1.392 . S
C1862 C1863 1.385 . S
C1862 C1864 1.478 . S
C1863 H1857 0.930 . S
C1863 C1859 1.400 . S
C1863 C1862 1.385 . S
C1864 C1862 1.478 . S
C1864 C1866 1.381 . S
C1864 C1870 1.383 . S
C1865 C1861 1.495 . S
C1865 H1871 0.959 . S
C1865 H1872 0.961 . S
C1865 H1873 0.960 . S
C1866 C1864 1.381 . S
C1866 C1867 1.394 . S
C1866 H1874 0.930 . S
C1867 C1866 1.394 . S
C1867 C1868 1.383 . S
C1867 H1875 0.929 . S
C1868 C1867 1.383 . S
C1868 C1869 1.377 . S
C1869 H1853 0.930 . S
C1869 C1868 1.377 . S
C1869 C1870 1.379 . S
C1870 H1854 0.931 . S
C1870 C1864 1.383 . S
C1870 C1869 1.379 . S
H1871 C1865 0.959 . S
H1872 C1865 0.961 . S
H1873 C1865 0.960 . S
H1874 C1866 0.930 . S
H1875 C1867 0.929 . S
H1876 C1884 0.929 . S
H1877 C1886 0.930 . S
H1878 C1888 0.930 . S
H1879 C1891 0.929 . S
H1880 C1894 0.930 . S
H1881 C1896 0.960 . S
H1882 C1896 0.960 . S
H1883 C1896 0.960 . S
C1884 H1876 0.929 . S
C1884 C1885 1.377 . S
C1884 C1886 1.384 . S
C1885 C1884 1.377 . S
C1885 C1891 1.390 . S
C1886 H1877 0.930 . S
C1886 C1884 1.384 . S
C1886 C1887 1.372 . S
C1887 C1886 1.372 . S
C1887 C1888 1.400 . S
C1887 C1892 1.490 . S
C1888 H1878 0.930 . S
C1888 C1887 1.400 . S
C1888 C1891 1.386 . S
H1889 C1905 0.930 . S
H1890 C1906 0.931 . S
C1891 H1879 0.929 . S
C1891 C1885 1.390 . S
C1891 C1888 1.386 . S
C1892 C1887 1.490 . S
C1892 C1894 1.395 . S
C1892 C1895 1.403 . S
H1893 C1899 0.930 . S
C1894 H1880 0.930 . S
C1894 C1892 1.395 . S
C1894 C1897 1.403 . S
C1895 C1892 1.403 . S
C1895 C1896 1.524 . S
C1895 C1899 1.400 . S
C1896 H1881 0.960 . S
C1896 H1882 0.960 . S
C1896 H1883 0.960 . S
C1896 C1895 1.524 . S
C1897 C1894 1.403 . S
C1897 C1898 1.392 . S
C1897 C1901 1.495 . S
C1898 C1897 1.392 . S
C1898 C1899 1.385 . S
C1898 C1900 1.478 . S
C1899 H1893 0.930 . S
C1899 C1895 1.400 . S
C1899 C1898 1.385 . S
C1900 C1898 1.478 . S
C1900 C1902 1.381 . S
C1900 C1906 1.383 . S
C1901 C1897 1.495 . S
C1901 H1907 0.959 . S
C1901 H1908 0.961 . S
C1901 H1909 0.960 . S
C1902 C1900 1.381 . S
C1902 C1903 1.394 1_565 S
C1902 H1910 0.930 . S
C1903 C1902 1.394 1_545 S
C1903 C1904 1.383 . S
C1903 H1911 0.929 . S
C1904 C1903 1.383 . S
C1904 C1905 1.377 1_545 S
C1905 H1889 0.930 . S
C1905 C1904 1.377 1_565 S
C1905 C1906 1.379 . S
C1906 H1890 0.931 . S
C1906 C1900 1.383 . S
C1906 C1905 1.379 . S
H1907 C1901 0.959 . S
H1908 C1901 0.961 . S
H1909 C1901 0.960 . S
H1910 C1902 0.930 . S
H1911 C1903 0.929 . S
H1912 C1920 0.929 . S
H1913 C1922 0.930 . S
H1914 C1924 0.930 . S
H1915 C1927 0.929 . S
H1916 C1930 0.930 . S
H1917 C1932 0.960 . S
H1918 C1932 0.960 . S
H1919 C1932 0.960 . S
C1920 H1912 0.929 . S
C1920 C1921 1.377 . S
C1920 C1922 1.384 . S
C1921 C1920 1.377 . S
C1921 C1927 1.390 . S
C1922 H1913 0.930 . S
C1922 C1920 1.384 . S
C1922 C1923 1.372 . S
C1923 C1922 1.372 . S
C1923 C1924 1.400 . S
C1923 C1928 1.490 . S
C1924 H1914 0.930 . S
C1924 C1923 1.400 . S
C1924 C1927 1.386 . S
H1925 C1941 0.930 . S
H1926 C1942 0.931 . S
C1927 H1915 0.929 . S
C1927 C1921 1.390 . S
C1927 C1924 1.386 . S
C1928 C1923 1.490 . S
C1928 C1930 1.395 . S
C1928 C1931 1.403 . S
H1929 C1935 0.930 . S
C1930 H1916 0.930 . S
C1930 C1928 1.395 . S
C1930 C1933 1.403 . S
C1931 C1928 1.403 . S
C1931 C1932 1.524 . S
C1931 C1935 1.400 . S
C1932 H1917 0.960 . S
C1932 H1918 0.960 . S
C1932 H1919 0.960 . S
C1932 C1931 1.524 . S
C1933 C1930 1.403 . S
C1933 C1934 1.392 . S
C1933 C1937 1.495 . S
C1934 C1933 1.392 . S
C1934 C1935 1.385 . S
C1934 C1936 1.478 . S
C1935 H1929 0.930 . S
C1935 C1931 1.400 . S
C1935 C1934 1.385 . S
C1936 C1934 1.478 . S
C1936 C1938 1.381 . S
C1936 C1942 1.383 . S
C1937 C1933 1.495 . S
C1937 H1943 0.959 . S
C1937 H1944 0.961 . S
C1937 H1945 0.960 . S
C1938 C1936 1.381 . S
C1938 C1939 1.394 . S
C1938 H1946 0.930 . S
C1939 C1938 1.394 . S
C1939 C1940 1.383 . S
C1939 H1947 0.929 . S
C1940 C1939 1.383 . S
C1940 C1941 1.377 . S
C1941 H1925 0.930 . S
C1941 C1940 1.377 . S
C1941 C1942 1.379 . S
C1942 H1926 0.931 . S
C1942 C1936 1.383 . S
C1942 C1941 1.379 . S
H1943 C1937 0.959 . S
H1944 C1937 0.961 . S
H1945 C1937 0.960 . S
H1946 C1938 0.930 . S
H1947 C1939 0.929 . S
H1948 C1956 0.929 . S
H1949 C1958 0.930 . S
H1950 C1960 0.930 . S
H1951 C1963 0.929 . S
H1952 C1966 0.930 . S
H1953 C1968 0.960 . S
H1954 C1968 0.960 . S
H1955 C1968 0.960 . S
C1956 H1948 0.929 . S
C1956 C1957 1.377 . S
C1956 C1958 1.384 . S
C1957 C1956 1.377 . S
C1957 C1963 1.390 . S
C1958 H1949 0.930 . S
C1958 C1956 1.384 . S
C1958 C1959 1.372 . S
C1959 C1958 1.372 . S
C1959 C1960 1.400 . S
C1959 C1964 1.490 . S
C1960 H1950 0.930 . S
C1960 C1959 1.400 . S
C1960 C1963 1.386 . S
H1961 C1977 0.930 . S
H1962 C1978 0.931 . S
C1963 H1951 0.929 . S
C1963 C1957 1.390 . S
C1963 C1960 1.386 . S
C1964 C1959 1.490 . S
C1964 C1966 1.395 . S
C1964 C1967 1.403 . S
H1965 C1971 0.930 . S
C1966 H1952 0.930 . S
C1966 C1964 1.395 . S
C1966 C1969 1.403 . S
C1967 C1964 1.403 . S
C1967 C1968 1.524 . S
C1967 C1971 1.400 . S
C1968 H1953 0.960 . S
C1968 H1954 0.960 . S
C1968 H1955 0.960 . S
C1968 C1967 1.524 . S
C1969 C1966 1.403 . S
C1969 C1970 1.392 . S
C1969 C1973 1.495 . S
C1970 C1969 1.392 . S
C1970 C1971 1.385 . S
C1970 C1972 1.478 . S
C1971 H1965 0.930 . S
C1971 C1967 1.400 . S
C1971 C1970 1.385 . S
C1972 C1970 1.478 . S
C1972 C1974 1.381 . S
C1972 C1978 1.383 . S
C1973 C1969 1.495 . S
C1973 H1979 0.959 . S
C1973 H1980 0.961 . S
C1973 H1981 0.960 . S
C1974 C1972 1.381 . S
C1974 C1975 1.394 . S
C1974 H1982 0.930 . S
C1975 C1974 1.394 . S
C1975 C1976 1.383 . S
C1975 H1983 0.929 . S
C1976 C1975 1.383 . S
C1976 C1977 1.377 . S
C1977 H1961 0.930 . S
C1977 C1976 1.377 . S
C1977 C1978 1.379 . S
C1978 H1962 0.931 . S
C1978 C1972 1.383 . S
C1978 C1977 1.379 . S
H1979 C1973 0.959 . S
H1980 C1973 0.961 . S
H1981 C1973 0.960 . S
H1982 C1974 0.930 . S
H1983 C1975 0.929 . S
C553 C33 1.577 . S
C572 C237 1.576 . S
C589 C271 1.576 . S
C608 C67 1.578 . S
C625 C169 1.576 . S
C644 C101 1.568 . S
C661 C203 1.576 . S
C680 C135 1.568 . S
C697 C305 1.574 . S
C716 C509 1.566 . S
C733 C339 1.576 . S
C752 C543 1.578 . S
C769 C373 1.574 . S
C788 C441 1.573 . S
C805 C475 1.577 . S
C824 C407 1.577 . S
C841 C5 1.437 . S
C860 C104 1.450 . S
C877 C39 1.444 . S
C896 C2 1.451 . S
C913 C36 1.457 . S
C932 C73 1.450 . S
C949 C107 1.443 . S
C968 C70 1.461 . S
C985 C172 1.457 . S
C1004 C141 1.440 . S
C1021 C206 1.454 . S
C1040 C175 1.422 . S
C1057 C240 1.457 . S
C1076 C209 1.441 . S
C1093 C138 1.454 . S
C1112 C243 1.423 . S
C1129 C277 1.437 . S
C1148 C376 1.447 . S
C1165 C274 1.455 . S
C1184 C311 1.454 . S
C1201 C345 1.438 . S
C1220 C308 1.456 . S
C1237 C379 1.438 . S
C1256 C342 1.457 . S
C1273 C413 1.444 . S
C1292 C444 1.458 . S
C1309 C447 1.444 . S
C1328 C478 1.457 . S
C1345 C481 1.439 . S
C1364 C512 1.460 . S
C1381 C410 1.454 . S
C1400 C515 1.423 . S
C1417 C530 1.759 . S
C1436 C20 1.751 . S
C1453 C54 1.758 . S
C1472 C428 1.756 . S
C1489 C462 1.758 . S
C1508 C88 1.769 . S
C1525 C122 1.773 . S
C1544 C496 1.754 . S
C1561 C326 1.758 . S
C1580 C156 1.753 . S
C1597 C190 1.760 . S
C1616 C360 1.753 . S
C1633 C224 1.773 . S
C1652 C394 1.753 . S
C1669 C292 1.759 . S
C1688 C258 1.765 . S
C1705 C145 1.233 . S
C1724 C383 1.215 . S
C1741 C179 1.214 . S
C1760 C281 1.171 . S
C1777 C213 1.200 . S
C1796 C315 1.207 . S
C1813 C349 1.203 . S
C1832 C247 1.223 . S
C1849 C9 1.212 . S
C1868 C451 1.186 . S
C1885 C485 1.193 . S
C1904 C43 1.173 . S
C1921 C77 1.198 . S
C1940 C519 1.198 . S
C1957 C111 1.193 . S
C1976 C417 1.172 . S
