# Generated by pormake.
# Topology afw, (4)-cn, num edge types: 1
# Building blocks:
#     Node 0, Type 0, BuildingBlock: GALJAG_clean_sbu_0, # of connection points: 4
#     Node 1, Type 0, BuildingBlock: GALJAG_clean_sbu_0, # of connection points: 4
#     Node 2, Type 0, BuildingBlock: GALJAG_clean_sbu_0, # of connection points: 4
#     Node 3, Type 0, BuildingBlock: GALJAG_clean_sbu_0, # of connection points: 4
#     Node 4, Type 0, BuildingBlock: GALJAG_clean_sbu_0, # of connection points: 4
#     Node 5, Type 0, BuildingBlock: GALJAG_clean_sbu_0, # of connection points: 4
#     Node 6, Type 0, BuildingBlock: GALJAG_clean_sbu_0, # of connection points: 4
#     Node 7, Type 0, BuildingBlock: GALJAG_clean_sbu_0, # of connection points: 4
#     Node 8, Type 0, BuildingBlock: GALJAG_clean_sbu_0, # of connection points: 4
#     Edge 9, Type (0, 0), BuildingBlock: EZIPEK_clean_linker_0, # of connection points: 2
#     Edge 10, Type (0, 0), BuildingBlock: EZIPEK_clean_linker_0, # of connection points: 2
#     Edge 11, Type (0, 0), BuildingBlock: EZIPEK_clean_linker_0, # of connection points: 2
#     Edge 12, Type (0, 0), BuildingBlock: EZIPEK_clean_linker_0, # of connection points: 2
#     Edge 13, Type (0, 0), BuildingBlock: EZIPEK_clean_linker_0, # of connection points: 2
#     Edge 14, Type (0, 0), BuildingBlock: EZIPEK_clean_linker_0, # of connection points: 2
#     Edge 15, Type (0, 0), BuildingBlock: EZIPEK_clean_linker_0, # of connection points: 2
#     Edge 16, Type (0, 0), BuildingBlock: EZIPEK_clean_linker_0, # of connection points: 2
#     Edge 17, Type (0, 0), BuildingBlock: EZIPEK_clean_linker_0, # of connection points: 2
#     Edge 18, Type (0, 0), BuildingBlock: EZIPEK_clean_linker_0, # of connection points: 2
#     Edge 19, Type (0, 0), BuildingBlock: EZIPEK_clean_linker_0, # of connection points: 2
#     Edge 20, Type (0, 0), BuildingBlock: EZIPEK_clean_linker_0, # of connection points: 2
#     Edge 21, Type (0, 0), BuildingBlock: EZIPEK_clean_linker_0, # of connection points: 2
#     Edge 22, Type (0, 0), BuildingBlock: EZIPEK_clean_linker_0, # of connection points: 2
#     Edge 23, Type (0, 0), BuildingBlock: EZIPEK_clean_linker_0, # of connection points: 2
#     Edge 24, Type (0, 0), BuildingBlock: EZIPEK_clean_linker_0, # of connection points: 2
#     Edge 25, Type (0, 0), BuildingBlock: EZIPEK_clean_linker_0, # of connection points: 2
#     Edge 26, Type (0, 0), BuildingBlock: EZIPEK_clean_linker_0, # of connection points: 2
# Relax obj value: 0.092
# Max RMSD: 0.157
# Mean RMSD: 0.157
data_MOF--net-afw--node1-GALJAG_clean_sbu_0--edge1-EZIPEK_clean_linker_0
_symmetry_space_group_name_H-M    P1
_symmetry_Int_Tables_number       1
_symmetry_cell_setting            triclinic
loop_
_symmetry_equiv_pos_as_xyz
'x, y, z'
_cell_length_a     33.607754
_cell_length_b     33.84483
_cell_length_c     20.382525
_cell_angle_alpha  89.948152
_cell_angle_beta   90.325042
_cell_angle_gamma 119.75565
loop_
_atom_site_label
_atom_site_type_symbol
_atom_site_fract_x
_atom_site_fract_y
_atom_site_fract_z
_atom_type_partial_charge
In0 In 0.01104 0.20068 -0.02385 0.0
O1 O 0.00518 0.22978 0.8779 0.0
O2 O 0.063 0.27027 0.93955 0.0
C3 C 0.94961 0.11145 0.96988 0.0
C4 C 0.97384 0.23611 0.05577 0.0
C5 C 0.08041 0.18458 -0.00373 0.0
O6 O 0.96363 0.1357 0.91881 0.0
O7 O 0.96412 0.13266 0.02326 0.0
O8 O 0.06624 0.2001 0.04131 0.0
O9 O 0.06236 0.18112 0.94066 0.0
C10 C 0.04169 0.26723 0.8869 0.0
O11 O 0.00907 0.23394 0.07206 0.0
O12 O 0.95689 0.21931 0.00043 0.0
In13 In 0.83626 0.82791 0.00182 0.0
O14 O 0.80627 0.79512 0.90243 0.0
O15 O 0.76664 0.81214 0.96633 0.0
C16 C 0.92047 0.83749 0.01662 0.0
C17 C 0.7909 0.76106 0.08797 0.0
C18 C 0.86363 0.91643 -0.00882 0.0
O19 O 0.89739 0.82265 0.96405 0.0
O20 O 0.90071 0.84801 0.0601 0.0
O21 O 0.84586 0.89474 0.04356 0.0
O22 O 0.86658 0.89331 0.94488 0.0
C23 C 0.76905 0.79506 0.91255 0.0
O24 O 0.79517 0.80014 0.09582 0.0
O25 O 0.81018 0.75652 0.03783 0.0
In26 In 0.19715 0.0165 -0.00913 0.0
O27 O 0.23765 0.01659 0.08084 0.0
O28 O 0.27107 0.0694 0.0099 0.0
C29 C 0.11284 0.94532 0.01006 0.0
C30 C 0.22799 0.98714 0.89252 0.0
C31 C 0.17264 0.08048 -4e-05 0.0
O32 O 0.14487 0.95632 0.05147 0.0
O33 O 0.12387 0.96921 0.9587 0.0
O34 O 0.18096 0.06852 0.9453 0.0
O35 O 0.17824 0.06141 0.04957 0.0
C36 C 0.27387 0.05189 0.06312 0.0
O37 O 0.226 0.02337 0.88763 0.0
O38 O 0.21327 0.96553 0.94541 0.0
In39 In 0.66777 0.53032 0.33284 0.0
O40 O 0.6609 0.56862 0.24553 0.0
O41 O 0.72344 0.59976 0.30034 0.0
C42 C 0.60255 0.44316 0.3153 0.0
C43 C 0.63676 0.5632 0.4266 0.0
C44 C 0.73429 0.50838 0.33493 0.0
O45 O 0.61615 0.47137 0.26853 0.0
O46 O 0.6191 0.45978 0.37071 0.0
O47 O 0.72084 0.51861 0.3868 0.0
O48 O 0.71616 0.51179 0.28249 0.0
C49 C 0.70056 0.60264 0.25312 0.0
O50 O 0.67218 0.55966 0.43508 0.0
O51 O 0.61682 0.54923 0.37197 0.0
In52 In 0.50087 0.16088 0.31692 0.0
O53 O 0.47322 0.12798 0.21722 0.0
O54 O 0.43174 0.14435 0.27886 0.0
C55 C 0.58799 0.18116 0.33505 0.0
C56 C 0.45823 0.08812 0.39308 0.0
C57 C 0.52204 0.2482 0.31494 0.0
O58 O 0.57006 0.17407 0.27827 0.0
O59 O 0.56098 0.17476 0.38173 0.0
O60 O 0.5054 0.22398 0.36582 0.0
O61 O 0.52608 0.22781 0.26586 0.0
C62 C 0.43557 0.12749 0.22562 0.0
O63 O 0.46009 0.12544 0.40789 0.0
O64 O 0.47805 0.08798 0.3406 0.0
In65 In 0.86442 0.35109 0.31192 0.0
O66 O 0.9093 0.35732 0.3993 0.0
O67 O 0.93801 0.40715 0.32307 0.0
C68 C 0.78211 0.27964 0.33949 0.0
C69 C 0.8939 0.31661 0.21907 0.0
C70 C 0.83569 0.41224 0.31621 0.0
O71 O 0.8147 0.29503 0.38075 0.0
O72 O 0.79176 0.29949 0.28465 0.0
O73 O 0.83983 0.39597 0.26244 0.0
O74 O 0.84807 0.39935 0.36658 0.0
C75 C 0.94382 0.39258 0.37726 0.0
O76 O 0.89152 0.35232 0.20907 0.0
O77 O 0.88041 0.2982 0.27433 0.0
In78 In 0.33568 0.86441 0.64802 0.0
O79 O 0.33366 0.89307 0.54786 0.0
O80 O 0.39004 0.93283 0.61316 0.0
C81 C 0.26672 0.77889 0.66134 0.0
C82 C 0.30412 0.90738 0.72161 0.0
C83 C 0.39964 0.83922 0.65368 0.0
O84 O 0.28058 0.79659 0.60529 0.0
O85 O 0.2852 0.8055 0.7092 0.0
O86 O 0.39096 0.85637 0.70312 0.0
O87 O 0.37789 0.83723 0.602 0.0
C88 C 0.37076 0.92991 0.55855 0.0
O89 O 0.33832 0.90361 0.73971 0.0
O90 O 0.2865 0.88973 0.66678 0.0
In91 In 0.15745 0.5018 0.64828 0.0
O92 O 0.14123 0.47569 0.54222 0.0
O93 O 0.0911 0.48279 0.59682 0.0
C94 C 0.24621 0.52855 0.66801 0.0
C95 C 0.11653 0.42684 0.7227 0.0
C96 C 0.16899 0.58538 0.66558 0.0
O97 O 0.22756 0.5159 0.61202 0.0
O98 O 0.21991 0.52644 0.71352 0.0
O99 O 0.14797 0.55398 0.70692 0.0
O100 O 0.18217 0.57391 0.61488 0.0
C101 C 0.10154 0.47112 0.54391 0.0
O102 O 0.10893 0.45962 0.72963 0.0
O103 O 0.1448 0.43205 0.67842 0.0
In104 In 0.52992 0.68359 0.67956 0.0
O105 O 0.56808 0.6855 0.77324 0.0
O106 O 0.60232 0.73834 0.70237 0.0
C107 C 0.44226 0.61916 0.69326 0.0
C108 C 0.56109 0.64367 0.59828 0.0
C109 C 0.5061 0.74787 0.66546 0.0
O110 O 0.4691 0.63433 0.74229 0.0
O111 O 0.46046 0.63426 0.63825 0.0
O112 O 0.52015 0.73441 0.61753 0.0
O113 O 0.50718 0.73126 0.72042 0.0
C114 C 0.60436 0.72108 0.75627 0.0
O115 O 0.56193 0.68039 0.58327 0.0
O116 O 0.54377 0.62686 0.65316 0.0
C117 C 0.1752 0.15502 -0.01901 0.0
C118 C 0.15177 0.10982 0.00518 0.0
C119 C 0.08822 0.12031 0.04117 0.0
C120 C 0.10868 0.16308 0.00891 0.0
N121 N 0.17031 0.22103 0.9456 0.0
N122 N 0.08275 0.04648 0.04858 0.0
C123 C 0.15195 0.18051 -0.02173 0.0
C124 C 0.10764 0.09179 0.03346 0.0
N125 N 0.21998 0.17388 0.96237 0.0
N126 N 0.04963 0.10631 0.07802 0.0
H127 H 0.0945 0.02361 0.04084 0.0
H128 H 0.04856 0.03034 0.06282 0.0
H129 H 0.03292 0.12502 0.08327 0.0
H130 H 0.03634 0.0779 0.10843 0.0
H131 H 0.2404 0.20805 0.95024 0.0
H132 H 0.238 0.15614 0.96432 0.0
H133 H 0.19895 0.2331 0.91557 0.0
H134 H 0.15545 0.24176 0.94622 0.0
C135 C 0.85758 0.98762 -0.00719 0.0
C136 C 0.88459 0.96634 -0.01409 0.0
C137 C 0.95089 0.03904 0.95501 0.0
C138 C 0.92534 0.0612 0.96834 0.0
N139 N 0.85618 0.0582 0.00649 0.0
N140 N 0.95905 0.97283 0.97399 0.0
C141 C 0.87916 0.03594 -0.0107 0.0
C142 C 0.93182 0.9923 0.97047 0.0
N143 N 0.81118 0.96161 7e-05 0.0
N144 N 0.99347 0.06259 0.92769 0.0
H145 H 0.94693 0.93914 -0.01199 0.0
H146 H 0.99456 0.99105 0.96949 0.0
H147 H 0.00908 0.097 0.91621 0.0
H148 H 0.01168 0.04721 0.91072 0.0
H149 H 0.78902 0.97478 -0.00153 0.0
H150 H 0.79427 0.92616 0.00253 0.0
H151 H 0.82437 0.04235 0.02936 0.0
H152 H 0.87019 0.09329 0.00111 0.0
C153 C 0.99376 0.87248 0.08148 0.0
C154 C 0.96972 0.84958 0.02376 0.0
C155 C 0.04358 0.87453 0.97002 0.0
C156 C 0.06533 0.9077 0.02016 0.0
N157 N 0.06019 0.93872 0.12485 0.0
N158 N 0.97253 0.81647 0.92039 0.0
C159 C 0.0405 0.90632 0.07699 0.0
C160 C -0.0051 0.84653 0.97014 0.0
N161 N 0.97234 0.86077 0.14078 0.0
N162 N 0.06985 0.86892 0.92407 0.0
H163 H 0.93909 0.78963 0.92528 0.0
H164 H 0.98736 0.81712 0.87544 0.0
H165 H 0.10558 0.88721 0.92578 0.0
H166 H 0.05696 0.84371 0.88817 0.0
H167 H 0.98936 0.87438 0.18505 0.0
H168 H 0.93948 0.83283 0.14608 0.0
H169 H 0.04145 0.94167 0.16324 0.0
H170 H 0.0941 0.96496 0.12365 0.0
C171 C 0.7682 0.4175 0.35544 0.0
C172 C 0.81068 0.43786 0.32169 0.0
C173 C 0.80602 0.50735 0.30489 0.0
C174 C 0.76248 0.48595 0.33554 0.0
N175 N 0.69892 0.41885 0.38239 0.0
N176 N 0.86902 0.50013 0.25978 0.0
C177 C 0.74294 0.44075 0.35952 0.0
C178 C 0.82929 0.48224 0.29491 0.0
N179 N 0.75158 0.37545 0.38322 0.0
N180 N 0.82552 0.55212 0.28724 0.0
H181 H 0.888 0.48358 0.25442 0.0
H182 H 0.88218 0.53017 0.23304 0.0
H183 H 0.80933 0.57128 0.29443 0.0
H184 H 0.85881 0.57139 0.2699 0.0
H185 H 0.72528 0.3621 0.41746 0.0
H186 H 0.7653 0.35436 0.3744 0.0
H187 H 0.68021 0.38405 0.39151 0.0
H188 H 0.67936 0.43463 0.38818 0.0
C189 C 0.58648 0.32621 0.29172 0.0
C190 C 0.5409 0.29812 0.31386 0.0
C191 C 0.53385 0.36595 0.33306 0.0
C192 C 0.5779 0.3933 0.30547 0.0
N193 N 0.64178 0.39804 0.24474 0.0
N194 N 0.46807 0.29018 0.34457 0.0
C195 C 0.60259 0.37291 0.27986 0.0
C196 C 0.51359 0.31764 0.3316 0.0
N197 N 0.6156 0.30906 0.28598 0.0
N198 N 0.51167 0.38618 0.36122 0.0
H199 H 0.45201 0.25475 0.343 0.0
H200 H 0.44543 0.30242 0.3514 0.0
H201 H 0.52443 0.42127 0.35967 0.0
H202 H 0.48199 0.36852 0.3889 0.0
H203 H 0.65064 0.32935 0.27779 0.0
H204 H 0.60616 0.27545 0.29674 0.0
H205 H 0.65838 0.38362 0.21957 0.0
H206 H 0.65543 0.43252 0.23506 0.0
C207 C 0.66201 0.18278 0.30977 0.0
C208 C 0.63793 0.19999 0.34601 0.0
C209 C 0.70964 0.25348 0.40153 0.0
C210 C 0.73441 0.24417 0.35413 0.0
N211 N 0.73507 0.19762 0.26554 0.0
N212 N 0.64136 0.25789 0.42025 0.0
C213 C 0.71076 0.20775 0.30924 0.0
C214 C 0.66216 0.23647 0.39126 0.0
N215 N 0.63843 0.14212 0.27752 0.0
N216 N 0.73135 0.27943 0.45536 0.0
H217 H 0.60784 0.25014 0.41053 0.0
H218 H 0.65914 0.28731 0.44844 0.0
H219 H 0.76601 0.292 0.46511 0.0
H220 H 0.71378 0.28392 0.49398 0.0
H221 H 0.65426 0.12607 0.25471 0.0
H222 H 0.60282 0.12209 0.27939 0.0
H223 H 0.72011 0.17543 0.22609 0.0
H224 H 0.77073 0.21288 0.2679 0.0
C225 C 0.40835 0.77088 0.63634 0.0
C226 C 0.42801 0.81691 0.65714 0.0
C227 C 0.50001 0.81816 0.68354 0.0
C228 C 0.4815 0.77365 0.6571 0.0
N229 N 0.42044 0.71005 0.59871 0.0
N230 N 0.49444 0.88688 0.69117 0.0
C231 C 0.43655 0.75093 0.6301 0.0
C232 C 0.47437 0.84129 0.67849 0.0
N233 N 0.36205 0.74517 0.62612 0.0
N234 N 0.54191 0.83815 0.71385 0.0
H235 H 0.47686 0.90495 0.68727 0.0
H236 H 0.52935 0.90756 0.70034 0.0
H237 H 0.56262 0.82322 0.71513 0.0
H238 H 0.55501 0.86819 0.74082 0.0
H239 H 0.34506 0.71015 0.61838 0.0
H240 H 0.33951 0.75761 0.63189 0.0
H241 H 0.39017 0.6947 0.57138 0.0
H242 H 0.43889 0.69299 0.59487 0.0
C243 C 0.24631 0.70504 0.71803 0.0
C244 C 0.23538 0.72938 0.67083 0.0
C245 C 0.17168 0.65744 0.63022 0.0
C246 C 0.18281 0.63364 0.67744 0.0
N247 N 0.21957 0.63583 0.78059 0.0
N248 N 0.17986 0.72972 0.59565 0.0
C249 C 0.21593 0.65786 0.72666 0.0
C250 C 0.19555 0.70586 0.63103 0.0
N251 N 0.28746 0.72551 0.75066 0.0
N252 N 0.13865 0.63359 0.58416 0.0
H253 H 0.19556 0.76514 0.59734 0.0
H254 H 0.14889 0.71442 0.57 0.0
H255 H 0.11805 0.59825 0.58604 0.0
H256 H 0.13281 0.64857 0.54332 0.0
H257 H 0.29863 0.7077 0.78006 0.0
H258 H 0.31318 0.75893 0.7431 0.0
H259 H 0.24028 0.65293 0.82081 0.0
H260 H 0.19845 0.60116 0.78868 0.0
C261 C 0.31929 0.52504 0.66632 0.0
C262 C 0.29627 0.54983 0.67855 0.0
C263 C 0.36778 0.61453 0.71878 0.0
C264 C 0.39186 0.5921 0.69879 0.0
N265 N 0.39201 0.52745 0.64987 0.0
N266 N 0.30004 0.62127 0.70401 0.0
C267 C 0.36798 0.54764 0.67161 0.0
C268 C 0.32079 0.59528 0.70206 0.0
N269 N 0.29455 0.47969 0.65158 0.0
N270 N 0.38987 0.65465 0.75276 0.0
H271 H 0.26634 0.60938 0.68883 0.0
H272 H 0.31751 0.65604 0.71385 0.0
H273 H 0.4245 0.67058 0.76501 0.0
H274 H 0.37293 0.67002 0.77432 0.0
H275 H 0.30887 0.45865 0.64846 0.0
H276 H 0.25888 0.46217 0.64753 0.0
H277 H 0.37743 0.49755 0.62236 0.0
H278 H 0.42731 0.54193 0.65688 0.0
C279 C 0.06687 0.34921 0.87018 0.0
C280 C 0.05659 0.3067 0.84276 0.0
C281 C 0.0763 0.34173 0.73422 0.0
C282 C 0.09439 0.3854 0.76378 0.0
N283 N 0.11512 0.43059 0.8633 0.0
N284 N 0.05745 0.2634 0.7492 0.0
C285 C 0.09185 0.38924 0.83274 0.0
C286 C 0.06273 0.30303 0.77478 0.0
N287 N 0.05125 0.35124 0.9311 0.0
N288 N 0.07023 0.33685 0.66777 0.0
H289 H 0.04827 0.23446 0.77743 0.0
H290 H 0.06626 0.26065 0.70115 0.0
H291 H 0.07719 0.36397 0.63668 0.0
H292 H 0.0534 0.30525 0.64452 0.0
H293 H 0.05465 0.38114 0.951 0.0
H294 H 0.0299 0.32212 0.95792 0.0
H295 H 0.11742 0.43408 0.91421 0.0
H296 H 0.13637 0.46078 0.83866 0.0
C297 C 0.71217 0.80537 0.8471 0.0
C298 C 0.73043 0.77709 0.86538 0.0
C299 C 0.66904 0.71365 0.80427 0.0
C300 C 0.64739 0.74009 0.79442 0.0
N301 N 0.64512 0.80933 0.81295 0.0
N302 N 0.72382 0.70264 0.86768 0.0
C303 C 0.66817 0.78559 0.8173 0.0
C304 C 0.70848 0.73082 0.8453 0.0
N305 N 0.73756 0.8514 0.85654 0.0
N306 N 0.65303 0.67294 0.77244 0.0
H307 H 0.75298 0.71373 0.8969 0.0
H308 H 0.70564 0.66745 0.86135 0.0
H309 H 0.62456 0.65936 0.74128 0.0
H310 H 0.67046 0.65467 0.77203 0.0
H311 H 0.72795 0.87427 0.83852 0.0
H312 H 0.7706 0.86723 0.87643 0.0
H313 H 0.65652 0.84089 0.83512 0.0
H314 H 0.61246 0.79577 0.79226 0.0
C315 C 0.2373 0.90529 0.77817 0.0
C316 C 0.28464 0.92952 0.76243 0.0
C317 C 0.29473 -0.00588 0.8289 0.0
C318 C 0.24695 0.97078 0.8412 0.0
N319 N 0.17131 0.91011 0.81426 0.0
N320 N 0.35612 0.00066 0.75978 0.0
C321 C 0.21777 0.92819 0.81152 0.0
C322 C 0.31279 0.97508 0.78397 0.0
N323 N 0.21149 0.85982 0.76455 0.0
N324 N 0.3231 0.03336 0.86212 0.0
H325 H 0.37023 0.9882 0.7257 0.0
H326 H 0.37643 0.03542 0.76869 0.0
H327 H 0.31114 0.04879 0.89468 0.0
H328 H 0.35871 0.04883 0.86092 0.0
H329 H 0.17804 0.83967 0.78107 0.0
H330 H 0.22473 0.84105 0.74255 0.0
H331 H 0.14823 0.88103 0.78846 0.0
H332 H 0.1562 0.92709 0.83662 0.0
C333 C 0.38099 0.13746 0.15428 0.0
C334 C 0.39791 0.10899 0.17707 0.0
C335 C 0.33734 0.04472 0.11635 0.0
C336 C 0.3168 0.07159 0.10164 0.0
N337 N 0.3153 0.1418 0.11467 0.0
N338 N 0.38905 0.03393 0.18752 0.0
C339 C 0.33772 0.11764 0.12239 0.0
C340 C 0.3755 0.0622 0.15986 0.0
N341 N 0.40681 0.18361 0.16195 0.0
N342 N 0.32141 0.00319 0.08707 0.0
H343 H 0.41675 0.04523 0.21981 0.0
H344 H 0.37053 -0.00135 0.18258 0.0
H345 H 0.29404 0.98956 0.05391 0.0
H346 H 0.33808 0.98427 0.09075 0.0
H347 H 0.39828 0.20643 0.14063 0.0
H348 H 0.43919 0.19938 0.18398 0.0
H349 H 0.32683 0.17386 0.13521 0.0
H350 H 0.28291 0.12823 0.09314 0.0
C351 C 0.98154 0.30266 0.12064 0.0
C352 C 0.95382 0.25728 0.09772 0.0
C353 C 0.88568 0.25527 0.14373 0.0
C354 C 0.914 0.29864 0.17202 0.0
N355 N 0.98952 0.36103 0.19684 0.0
N356 N 0.88122 0.18717 0.09819 0.0
C357 C 0.96211 0.32179 0.16289 0.0
C358 C 0.90625 0.2327 0.11191 0.0
N359 N 0.02593 0.32818 0.10036 0.0
N360 N 0.83907 0.23604 0.14646 0.0
H361 H 0.89541 0.16884 0.07749 0.0
H362 H 0.84753 0.16655 0.11338 0.0
H363 H 0.82301 0.25203 0.16904 0.0
H364 H 0.8165 0.20649 0.12119 0.0
H365 H 0.04572 0.36304 0.10892 0.0
H366 H 0.04213 0.31565 0.07036 0.0
H367 H 0.0251 0.37622 0.19867 0.0
H368 H 0.97668 0.3767 0.22743 0.0
C369 C 0.71536 0.63943 0.14159 0.0
C370 C 0.71912 0.6436 0.21091 0.0
C371 C 0.76986 0.72593 0.20061 0.0
C372 C 0.76332 0.72204 0.13167 0.0
N373 N 0.71755 0.6771 0.03985 0.0
N374 N 0.73785 0.69263 0.30572 0.0
C375 C 0.73217 0.67937 0.10313 0.0
C376 C 0.74269 0.68745 0.24032 0.0
N377 N 0.69826 0.5979 0.11191 0.0
N378 N 0.80335 0.76533 0.22826 0.0
H379 H 0.71578 0.66557 0.33545 0.0
H380 H 0.75124 0.72435 0.32833 0.0
H381 H 0.82518 0.79402 0.20105 0.0
H382 H 0.8123 0.76795 0.27776 0.0
H383 H 0.69919 0.59412 0.06128 0.0
H384 H 0.68771 0.56773 0.13762 0.0
H385 H 0.69191 0.64718 0.01858 0.0
H386 H 0.72695 0.70607 0.01154 0.0
C387 C 0.05081 0.48137 0.46557 0.0
C388 C 0.06863 0.4538 0.48875 0.0
C389 C 0.01101 0.38959 0.42455 0.0
C390 C 0.98837 0.41475 0.41177 0.0
N391 N 0.98465 0.48389 0.42353 0.0
N392 N 0.0655 0.38103 0.49269 0.0
C393 C 0.008 0.46073 0.43233 0.0
C394 C 0.04918 0.40786 0.46812 0.0
N395 N 0.07532 0.52741 0.47492 0.0
N396 N -0.00326 0.34884 0.39368 0.0
H397 H 0.09435 0.39346 0.5229 0.0
H398 H 0.04889 0.34588 0.48616 0.0
H399 H 0.96937 0.33486 0.3605 0.0
H400 H 0.01467 0.33109 0.39598 0.0
H401 H 0.06623 0.55 0.45428 0.0
H402 H 0.10748 0.54335 0.49765 0.0
H403 H -0.00493 0.51576 0.44403 0.0
H404 H 0.95276 0.46985 0.40034 0.0
C405 C 0.57244 0.55691 0.49461 0.0
C406 C 0.61921 0.58236 0.47633 0.0
C407 C 0.62896 0.64571 0.5456 0.0
C408 C 0.581 0.62266 0.55626 0.0
N409 N 0.50578 0.55863 0.53557 0.0
N410 N 0.69133 0.65316 0.47838 0.0
C411 C 0.55233 0.57875 0.52956 0.0
C412 C 0.64749 0.62725 0.50056 0.0
N413 N 0.54771 0.51143 0.48051 0.0
N414 N 0.65701 0.6844 0.58027 0.0
H415 H 0.70685 0.64104 0.44637 0.0
H416 H 0.71131 0.68788 0.48791 0.0
H417 H 0.64478 0.69895 0.61398 0.0
H418 H 0.69261 0.69976 0.58012 0.0
H419 H 0.5148 0.49011 0.4981 0.0
H420 H 0.56178 0.49393 0.45683 0.0
H421 H 0.48287 0.52884 0.51108 0.0
H422 H 0.48975 0.57373 0.56058 0.0
C423 C 0.3667 0.99019 0.49181 0.0
C424 C 0.39101 0.96774 0.5112 0.0
C425 C 0.46029 0.02665 0.45822 0.0
C426 C 0.43508 0.04714 0.43445 0.0
N427 N 0.36213 0.04319 0.41645 0.0
N428 N 0.45744 0.95856 0.50105 0.0
C429 C 0.38761 0.02745 0.44772 0.0
C430 C 0.43681 0.98418 0.49082 0.0
N431 N 0.32463 0.97748 0.51783 0.0
N432 N 0.50696 0.04868 0.45228 0.0
H433 H 0.44088 0.92671 0.52355 0.0
H434 H 0.48915 0.96669 0.4814 0.0
H435 H 0.52573 0.08048 0.4302 0.0
H436 H 0.5275 0.03754 0.47485 0.0
H437 H 0.3078 -0.00395 0.51114 0.0
H438 H 0.30814 0.95061 0.5507 0.0
H439 H 0.32651 0.02693 0.41891 0.0
H440 H 0.37606 0.07005 0.3831 0.0
loop_
_geom_bond_atom_site_label_1
_geom_bond_atom_site_label_2
_geom_bond_distance
_geom_bond_site_symmetry_2
_ccdc_geom_bond_type
In0 O1 2.294 1_554 S
In0 O2 2.326 1_554 S
In0 O6 2.266 1_454 S
In0 O7 2.326 1_455 S
In0 O8 2.266 . S
In0 O9 2.326 1_554 S
In0 O11 2.294 . S
In0 O12 2.326 1_455 S
O1 In0 2.294 1_556 S
O1 C10 1.240 . S
O2 In0 2.326 1_556 S
O2 C10 1.252 . S
C3 O6 1.252 1_554 S
C3 O7 1.260 . S
C4 O11 1.240 1_655 S
C4 O12 1.252 . S
C5 O8 1.252 . S
C5 O9 1.260 1_554 S
O6 In0 2.266 1_656 S
O6 C3 1.252 1_556 S
O7 In0 2.326 1_655 S
O7 C3 1.260 . S
O8 In0 2.266 . S
O8 C5 1.252 . S
O9 In0 2.326 1_556 S
O9 C5 1.260 1_556 S
C10 O1 1.240 . S
C10 O2 1.252 . S
O11 In0 2.294 . S
O11 C4 1.240 1_455 S
O12 In0 2.326 1_655 S
O12 C4 1.252 . S
In13 O14 2.294 1_554 S
In13 O15 2.326 1_554 S
In13 O19 2.266 1_554 S
In13 O20 2.326 . S
In13 O21 2.266 . S
In13 O22 2.326 1_554 S
In13 O24 2.294 . S
In13 O25 2.326 . S
O14 In13 2.294 1_556 S
O14 C23 1.240 . S
O15 In13 2.326 1_556 S
O15 C23 1.252 . S
C16 O19 1.252 1_554 S
C16 O20 1.260 . S
C17 O24 1.240 . S
C17 O25 1.252 . S
C18 O21 1.252 . S
C18 O22 1.260 1_554 S
O19 In13 2.266 1_556 S
O19 C16 1.252 1_556 S
O20 In13 2.326 . S
O20 C16 1.260 . S
O21 In13 2.266 . S
O21 C18 1.252 . S
O22 In13 2.326 1_556 S
O22 C18 1.260 1_556 S
C23 O14 1.240 . S
C23 O15 1.252 . S
O24 In13 2.294 . S
O24 C17 1.240 . S
O25 In13 2.326 . S
O25 C17 1.252 . S
In26 O27 2.294 . S
In26 O28 2.326 . S
In26 O32 2.266 1_545 S
In26 O33 2.326 1_544 S
In26 O34 2.266 1_554 S
In26 O35 2.326 . S
In26 O37 2.294 1_554 S
In26 O38 2.326 1_544 S
O27 In26 2.294 . S
O27 C36 1.240 . S
O28 In26 2.326 . S
O28 C36 1.252 . S
C29 O32 1.252 . S
C29 O33 1.260 1_554 S
C30 O37 1.240 1_565 S
C30 O38 1.252 . S
C31 O34 1.252 1_554 S
C31 O35 1.260 . S
O32 In26 2.266 1_565 S
O32 C29 1.252 . S
O33 In26 2.326 1_566 S
O33 C29 1.260 1_556 S
O34 In26 2.266 1_556 S
O34 C31 1.252 1_556 S
O35 In26 2.326 . S
O35 C31 1.260 . S
C36 O27 1.240 . S
C36 O28 1.252 . S
O37 In26 2.294 1_556 S
O37 C30 1.240 1_545 S
O38 In26 2.326 1_566 S
O38 C30 1.252 . S
In39 O40 2.294 . S
In39 O41 2.326 . S
In39 O45 2.266 . S
In39 O46 2.326 . S
In39 O47 2.266 . S
In39 O48 2.326 . S
In39 O50 2.294 . S
In39 O51 2.326 . S
O40 In39 2.294 . S
O40 C49 1.240 . S
O41 In39 2.326 . S
O41 C49 1.252 . S
C42 O45 1.252 . S
C42 O46 1.260 . S
C43 O50 1.240 . S
C43 O51 1.252 . S
C44 O47 1.252 . S
C44 O48 1.260 . S
O45 In39 2.266 . S
O45 C42 1.252 . S
O46 In39 2.326 . S
O46 C42 1.260 . S
O47 In39 2.266 . S
O47 C44 1.252 . S
O48 In39 2.326 . S
O48 C44 1.260 . S
C49 O40 1.240 . S
C49 O41 1.252 . S
O50 In39 2.294 . S
O50 C43 1.240 . S
O51 In39 2.326 . S
O51 C43 1.252 . S
In52 O53 2.294 . S
In52 O54 2.326 . S
In52 O58 2.266 . S
In52 O59 2.326 . S
In52 O60 2.266 . S
In52 O61 2.326 . S
In52 O63 2.294 . S
In52 O64 2.326 . S
O53 In52 2.294 . S
O53 C62 1.240 . S
O54 In52 2.326 . S
O54 C62 1.252 . S
C55 O58 1.252 . S
C55 O59 1.260 . S
C56 O63 1.240 . S
C56 O64 1.252 . S
C57 O60 1.252 . S
C57 O61 1.260 . S
O58 In52 2.266 . S
O58 C55 1.252 . S
O59 In52 2.326 . S
O59 C55 1.260 . S
O60 In52 2.266 . S
O60 C57 1.252 . S
O61 In52 2.326 . S
O61 C57 1.260 . S
C62 O53 1.240 . S
C62 O54 1.252 . S
O63 In52 2.294 . S
O63 C56 1.240 . S
O64 In52 2.326 . S
O64 C56 1.252 . S
In65 O66 2.294 . S
In65 O67 2.326 . S
In65 O71 2.266 . S
In65 O72 2.326 . S
In65 O73 2.266 . S
In65 O74 2.326 . S
In65 O76 2.294 . S
In65 O77 2.326 . S
O66 In65 2.294 . S
O66 C75 1.240 . S
O67 In65 2.326 . S
O67 C75 1.252 . S
C68 O71 1.252 . S
C68 O72 1.260 . S
C69 O76 1.240 . S
C69 O77 1.252 . S
C70 O73 1.252 . S
C70 O74 1.260 . S
O71 In65 2.266 . S
O71 C68 1.252 . S
O72 In65 2.326 . S
O72 C68 1.260 . S
O73 In65 2.266 . S
O73 C70 1.252 . S
O74 In65 2.326 . S
O74 C70 1.260 . S
C75 O66 1.240 . S
C75 O67 1.252 . S
O76 In65 2.294 . S
O76 C69 1.240 . S
O77 In65 2.326 . S
O77 C69 1.252 . S
In78 O79 2.294 . S
In78 O80 2.326 . S
In78 O84 2.266 . S
In78 O85 2.326 . S
In78 O86 2.266 . S
In78 O87 2.326 . S
In78 O89 2.294 . S
In78 O90 2.326 . S
O79 In78 2.294 . S
O79 C88 1.240 . S
O80 In78 2.326 . S
O80 C88 1.252 . S
C81 O84 1.252 . S
C81 O85 1.260 . S
C82 O89 1.240 . S
C82 O90 1.252 . S
C83 O86 1.252 . S
C83 O87 1.260 . S
O84 In78 2.266 . S
O84 C81 1.252 . S
O85 In78 2.326 . S
O85 C81 1.260 . S
O86 In78 2.266 . S
O86 C83 1.252 . S
O87 In78 2.326 . S
O87 C83 1.260 . S
C88 O79 1.240 . S
C88 O80 1.252 . S
O89 In78 2.294 . S
O89 C82 1.240 . S
O90 In78 2.326 . S
O90 C82 1.252 . S
In91 O92 2.294 . S
In91 O93 2.326 . S
In91 O97 2.266 . S
In91 O98 2.326 . S
In91 O99 2.266 . S
In91 O100 2.326 . S
In91 O102 2.294 . S
In91 O103 2.326 . S
O92 In91 2.294 . S
O92 C101 1.240 . S
O93 In91 2.326 . S
O93 C101 1.252 . S
C94 O97 1.252 . S
C94 O98 1.260 . S
C95 O102 1.240 . S
C95 O103 1.252 . S
C96 O99 1.252 . S
C96 O100 1.260 . S
O97 In91 2.266 . S
O97 C94 1.252 . S
O98 In91 2.326 . S
O98 C94 1.260 . S
O99 In91 2.266 . S
O99 C96 1.252 . S
O100 In91 2.326 . S
O100 C96 1.260 . S
C101 O92 1.240 . S
C101 O93 1.252 . S
O102 In91 2.294 . S
O102 C95 1.240 . S
O103 In91 2.326 . S
O103 C95 1.252 . S
In104 O105 2.294 . S
In104 O106 2.326 . S
In104 O110 2.266 . S
In104 O111 2.326 . S
In104 O112 2.266 . S
In104 O113 2.326 . S
In104 O115 2.294 . S
In104 O116 2.326 . S
O105 In104 2.294 . S
O105 C114 1.240 . S
O106 In104 2.326 . S
O106 C114 1.252 . S
C107 O110 1.252 . S
C107 O111 1.260 . S
C108 O115 1.240 . S
C108 O116 1.252 . S
C109 O112 1.252 . S
C109 O113 1.260 . S
O110 In104 2.266 . S
O110 C107 1.252 . S
O111 In104 2.326 . S
O111 C107 1.260 . S
O112 In104 2.266 . S
O112 C109 1.252 . S
O113 In104 2.326 . S
O113 C109 1.260 . S
C114 O105 1.240 . S
C114 O106 1.252 . S
O115 In104 2.294 . S
O115 C108 1.240 . S
O116 In104 2.326 . S
O116 C108 1.252 . S
C117 C118 1.363 1_556 S
C117 C123 1.379 . S
C117 N125 1.356 . S
C118 C117 1.363 1_554 S
C118 C124 1.363 . S
C119 C120 1.363 . S
C119 C124 1.379 . S
C119 N126 1.356 . S
C120 C119 1.363 . S
C120 C123 1.363 1_554 S
N121 C123 1.356 . S
N121 H133 0.984 . S
N121 H134 0.985 . S
N122 C124 1.356 . S
N122 H127 0.984 . S
N122 H128 0.985 . S
C123 C117 1.379 . S
C123 C120 1.363 1_556 S
C123 N121 1.356 . S
C124 C118 1.363 . S
C124 C119 1.379 . S
C124 N122 1.356 . S
N125 C117 1.356 . S
N125 H131 0.984 . S
N125 H132 0.984 . S
N126 C119 1.356 . S
N126 H129 0.984 . S
N126 H130 0.985 . S
H127 N122 0.984 . S
H128 N122 0.985 . S
H129 N126 0.984 . S
H130 N126 0.985 . S
H131 N125 0.984 . S
H132 N125 0.984 . S
H133 N121 0.984 . S
H134 N121 0.985 . S
C135 C136 1.345 1_545 S
C135 C141 1.399 . S
C135 N143 1.348 1_545 S
C136 C135 1.345 1_565 S
C136 C142 1.363 1_554 S
C137 C138 1.363 1_556 S
C137 C142 1.379 1_545 S
C137 N144 1.356 . S
C138 C137 1.363 1_554 S
C138 C141 1.363 . S
N139 C141 1.356 . S
N139 H151 0.984 . S
N139 H152 0.985 . S
N140 C142 1.356 . S
N140 H145 0.984 . S
N140 H146 0.985 . S
C141 C135 1.399 . S
C141 C138 1.363 . S
C141 N139 1.356 . S
C142 C136 1.363 1_556 S
C142 C137 1.379 1_565 S
C142 N140 1.356 . S
N143 C135 1.348 1_565 S
N143 H149 0.984 . S
N143 H150 0.984 . S
N144 C137 1.356 . S
N144 H147 0.984 . S
N144 H148 0.985 . S
H145 N140 0.984 . S
H146 N140 0.985 . S
H147 N144 0.984 . S
H148 N144 0.985 . S
H149 N143 0.984 . S
H150 N143 0.984 . S
H151 N139 0.984 . S
H152 N139 0.985 . S
C153 C154 1.363 . S
C153 C159 1.379 1_655 S
C153 N161 1.356 . S
C154 C153 1.363 . S
C154 C160 1.363 1_554 S
C155 C156 1.363 1_556 S
C155 C160 1.379 1_455 S
C155 N162 1.356 . S
C156 C155 1.363 1_554 S
C156 C159 1.363 . S
N157 C159 1.356 . S
N157 H169 0.984 . S
N157 H170 0.985 . S
N158 C160 1.356 . S
N158 H163 0.984 . S
N158 H164 0.985 . S
C159 C153 1.379 1_455 S
C159 C156 1.363 . S
C159 N157 1.356 . S
C160 C154 1.363 1_556 S
C160 C155 1.379 1_655 S
C160 N158 1.356 . S
N161 C153 1.356 . S
N161 H167 0.984 . S
N161 H168 0.984 . S
N162 C155 1.356 . S
N162 H165 0.984 . S
N162 H166 0.985 . S
H163 N158 0.984 . S
H164 N158 0.985 . S
H165 N162 0.984 . S
H166 N162 0.985 . S
H167 N161 0.984 . S
H168 N161 0.984 . S
H169 N157 0.984 . S
H170 N157 0.985 . S
C171 C172 1.363 . S
C171 C177 1.379 . S
C171 N179 1.356 . S
C172 C171 1.363 . S
C172 C178 1.363 . S
C173 C174 1.363 . S
C173 C178 1.379 . S
C173 N180 1.356 . S
C174 C173 1.363 . S
C174 C177 1.363 . S
N175 C177 1.356 . S
N175 H187 0.984 . S
N175 H188 0.985 . S
N176 C178 1.356 . S
N176 H181 0.984 . S
N176 H182 0.985 . S
C177 C171 1.379 . S
C177 C174 1.363 . S
C177 N175 1.356 . S
C178 C172 1.363 . S
C178 C173 1.379 . S
C178 N176 1.356 . S
N179 C171 1.356 . S
N179 H185 0.984 . S
N179 H186 0.984 . S
N180 C173 1.356 . S
N180 H183 0.984 . S
N180 H184 0.985 . S
H181 N176 0.984 . S
H182 N176 0.985 . S
H183 N180 0.984 . S
H184 N180 0.985 . S
H185 N179 0.984 . S
H186 N179 0.984 . S
H187 N175 0.984 . S
H188 N175 0.985 . S
C189 C190 1.363 . S
C189 C195 1.379 . S
C189 N197 1.356 . S
C190 C189 1.363 . S
C190 C196 1.363 . S
C191 C192 1.363 . S
C191 C196 1.379 . S
C191 N198 1.356 . S
C192 C191 1.363 . S
C192 C195 1.363 . S
N193 C195 1.356 . S
N193 H205 0.984 . S
N193 H206 0.985 . S
N194 C196 1.356 . S
N194 H199 0.984 . S
N194 H200 0.985 . S
C195 C189 1.379 . S
C195 C192 1.363 . S
C195 N193 1.356 . S
C196 C190 1.363 . S
C196 C191 1.379 . S
C196 N194 1.356 . S
N197 C189 1.356 . S
N197 H203 0.984 . S
N197 H204 0.984 . S
N198 C191 1.356 . S
N198 H201 0.984 . S
N198 H202 0.985 . S
H199 N194 0.984 . S
H200 N194 0.985 . S
H201 N198 0.984 . S
H202 N198 0.985 . S
H203 N197 0.984 . S
H204 N197 0.984 . S
H205 N193 0.984 . S
H206 N193 0.985 . S
C207 C208 1.363 . S
C207 C213 1.379 . S
C207 N215 1.356 . S
C208 C207 1.363 . S
C208 C214 1.363 . S
C209 C210 1.363 . S
C209 C214 1.379 . S
C209 N216 1.356 . S
C210 C209 1.363 . S
C210 C213 1.363 . S
N211 C213 1.356 . S
N211 H223 0.984 . S
N211 H224 0.985 . S
N212 C214 1.356 . S
N212 H217 0.984 . S
N212 H218 0.985 . S
C213 C207 1.379 . S
C213 C210 1.363 . S
C213 N211 1.356 . S
C214 C208 1.363 . S
C214 C209 1.379 . S
C214 N212 1.356 . S
N215 C207 1.356 . S
N215 H221 0.984 . S
N215 H222 0.984 . S
N216 C209 1.356 . S
N216 H219 0.984 . S
N216 H220 0.985 . S
H217 N212 0.984 . S
H218 N212 0.985 . S
H219 N216 0.984 . S
H220 N216 0.985 . S
H221 N215 0.984 . S
H222 N215 0.984 . S
H223 N211 0.984 . S
H224 N211 0.985 . S
C225 C226 1.363 . S
C225 C231 1.379 . S
C225 N233 1.356 . S
C226 C225 1.363 . S
C226 C232 1.363 . S
C227 C228 1.363 . S
C227 C232 1.379 . S
C227 N234 1.356 . S
C228 C227 1.363 . S
C228 C231 1.363 . S
N229 C231 1.356 . S
N229 H241 0.984 . S
N229 H242 0.985 . S
N230 C232 1.356 . S
N230 H235 0.984 . S
N230 H236 0.985 . S
C231 C225 1.379 . S
C231 C228 1.363 . S
C231 N229 1.356 . S
C232 C226 1.363 . S
C232 C227 1.379 . S
C232 N230 1.356 . S
N233 C225 1.356 . S
N233 H239 0.984 . S
N233 H240 0.984 . S
N234 C227 1.356 . S
N234 H237 0.984 . S
N234 H238 0.985 . S
H235 N230 0.984 . S
H236 N230 0.985 . S
H237 N234 0.984 . S
H238 N234 0.985 . S
H239 N233 0.984 . S
H240 N233 0.984 . S
H241 N229 0.984 . S
H242 N229 0.985 . S
C243 C244 1.363 . S
C243 C249 1.379 . S
C243 N251 1.356 . S
C244 C243 1.363 . S
C244 C250 1.363 . S
C245 C246 1.363 . S
C245 C250 1.379 . S
C245 N252 1.356 . S
C246 C245 1.363 . S
C246 C249 1.363 . S
N247 C249 1.356 . S
N247 H259 0.984 . S
N247 H260 0.985 . S
N248 C250 1.356 . S
N248 H253 0.984 . S
N248 H254 0.985 . S
C249 C243 1.379 . S
C249 C246 1.363 . S
C249 N247 1.356 . S
C250 C244 1.363 . S
C250 C245 1.379 . S
C250 N248 1.356 . S
N251 C243 1.356 . S
N251 H257 0.984 . S
N251 H258 0.984 . S
N252 C245 1.356 . S
N252 H255 0.984 . S
N252 H256 0.985 . S
H253 N248 0.984 . S
H254 N248 0.985 . S
H255 N252 0.984 . S
H256 N252 0.985 . S
H257 N251 0.984 . S
H258 N251 0.984 . S
H259 N247 0.984 . S
H260 N247 0.985 . S
C261 C262 1.363 . S
C261 C267 1.379 . S
C261 N269 1.356 . S
C262 C261 1.363 . S
C262 C268 1.363 . S
C263 C264 1.363 . S
C263 C268 1.379 . S
C263 N270 1.356 . S
C264 C263 1.363 . S
C264 C267 1.363 . S
N265 C267 1.356 . S
N265 H277 0.984 . S
N265 H278 0.985 . S
N266 C268 1.356 . S
N266 H271 0.984 . S
N266 H272 0.985 . S
C267 C261 1.379 . S
C267 C264 1.363 . S
C267 N265 1.356 . S
C268 C262 1.363 . S
C268 C263 1.379 . S
C268 N266 1.356 . S
N269 C261 1.356 . S
N269 H275 0.984 . S
N269 H276 0.984 . S
N270 C263 1.356 . S
N270 H273 0.984 . S
N270 H274 0.985 . S
H271 N266 0.984 . S
H272 N266 0.985 . S
H273 N270 0.984 . S
H274 N270 0.985 . S
H275 N269 0.984 . S
H276 N269 0.984 . S
H277 N265 0.984 . S
H278 N265 0.985 . S
C279 C280 1.363 . S
C279 C285 1.379 . S
C279 N287 1.356 . S
C280 C279 1.363 . S
C280 C286 1.363 . S
C281 C282 1.363 . S
C281 C286 1.379 . S
C281 N288 1.356 . S
C282 C281 1.363 . S
C282 C285 1.363 . S
N283 C285 1.356 . S
N283 H295 0.984 . S
N283 H296 0.985 . S
N284 C286 1.356 . S
N284 H289 0.984 . S
N284 H290 0.985 . S
C285 C279 1.379 . S
C285 C282 1.363 . S
C285 N283 1.356 . S
C286 C280 1.363 . S
C286 C281 1.379 . S
C286 N284 1.356 . S
N287 C279 1.356 . S
N287 H293 0.984 1_556 S
N287 H294 0.984 . S
N288 C281 1.356 . S
N288 H291 0.984 . S
N288 H292 0.985 . S
H289 N284 0.984 . S
H290 N284 0.985 . S
H291 N288 0.984 . S
H292 N288 0.985 . S
H293 N287 0.984 1_554 S
H294 N287 0.984 . S
H295 N283 0.984 . S
H296 N283 0.985 . S
C297 C298 1.363 . S
C297 C303 1.379 . S
C297 N305 1.356 . S
C298 C297 1.363 . S
C298 C304 1.363 . S
C299 C300 1.363 . S
C299 C304 1.379 . S
C299 N306 1.356 . S
C300 C299 1.363 . S
C300 C303 1.363 . S
N301 C303 1.356 . S
N301 H313 0.984 . S
N301 H314 0.985 . S
N302 C304 1.356 . S
N302 H307 0.984 . S
N302 H308 0.985 . S
C303 C297 1.379 . S
C303 C300 1.363 . S
C303 N301 1.356 . S
C304 C298 1.363 . S
C304 C299 1.379 . S
C304 N302 1.356 . S
N305 C297 1.356 . S
N305 H311 0.984 . S
N305 H312 0.984 . S
N306 C299 1.356 . S
N306 H309 0.984 . S
N306 H310 0.985 . S
H307 N302 0.984 . S
H308 N302 0.985 . S
H309 N306 0.984 . S
H310 N306 0.985 . S
H311 N305 0.984 . S
H312 N305 0.984 . S
H313 N301 0.984 . S
H314 N301 0.985 . S
C315 C316 1.363 . S
C315 C321 1.379 . S
C315 N323 1.356 . S
C316 C315 1.363 . S
C316 C322 1.363 . S
C317 C318 1.363 . S
C317 C322 1.379 . S
C317 N324 1.356 1_565 S
C318 C317 1.363 . S
C318 C321 1.363 . S
N319 C321 1.356 . S
N319 H331 0.984 . S
N319 H332 0.985 . S
N320 C322 1.356 . S
N320 H325 0.984 . S
N320 H326 0.985 1_565 S
C321 C315 1.379 . S
C321 C318 1.363 . S
C321 N319 1.356 . S
C322 C316 1.363 . S
C322 C317 1.379 . S
C322 N320 1.356 . S
N323 C315 1.356 . S
N323 H329 0.984 . S
N323 H330 0.984 . S
N324 C317 1.356 1_545 S
N324 H327 0.984 . S
N324 H328 0.985 . S
H325 N320 0.984 . S
H326 N320 0.985 1_545 S
H327 N324 0.984 . S
H328 N324 0.985 . S
H329 N323 0.984 . S
H330 N323 0.984 . S
H331 N319 0.984 . S
H332 N319 0.985 . S
C333 C334 1.363 . S
C333 C339 1.379 . S
C333 N341 1.356 . S
C334 C333 1.363 . S
C334 C340 1.363 . S
C335 C336 1.363 . S
C335 C340 1.379 . S
C335 N342 1.356 . S
C336 C335 1.363 . S
C336 C339 1.363 . S
N337 C339 1.356 . S
N337 H349 0.984 . S
N337 H350 0.985 . S
N338 C340 1.356 . S
N338 H343 0.984 . S
N338 H344 0.985 . S
C339 C333 1.379 . S
C339 C336 1.363 . S
C339 N337 1.356 . S
C340 C334 1.363 . S
C340 C335 1.379 . S
C340 N338 1.356 . S
N341 C333 1.356 . S
N341 H347 0.984 . S
N341 H348 0.984 . S
N342 C335 1.356 . S
N342 H345 0.984 . S
N342 H346 0.985 . S
H343 N338 0.984 . S
H344 N338 0.985 . S
H345 N342 0.984 . S
H346 N342 0.985 . S
H347 N341 0.984 . S
H348 N341 0.984 . S
H349 N337 0.984 . S
H350 N337 0.985 . S
C351 C352 1.363 . S
C351 C357 1.379 . S
C351 N359 1.356 1_655 S
C352 C351 1.363 . S
C352 C358 1.363 . S
C353 C354 1.363 . S
C353 C358 1.379 . S
C353 N360 1.356 . S
C354 C353 1.363 . S
C354 C357 1.363 . S
N355 C357 1.356 . S
N355 H367 0.984 . S
N355 H368 0.985 . S
N356 C358 1.356 . S
N356 H361 0.984 . S
N356 H362 0.985 . S
C357 C351 1.379 . S
C357 C354 1.363 . S
C357 N355 1.356 . S
C358 C352 1.363 . S
C358 C353 1.379 . S
C358 N356 1.356 . S
N359 C351 1.356 1_455 S
N359 H365 0.984 . S
N359 H366 0.984 . S
N360 C353 1.356 . S
N360 H363 0.984 . S
N360 H364 0.985 . S
H361 N356 0.984 . S
H362 N356 0.985 . S
H363 N360 0.984 . S
H364 N360 0.985 . S
H365 N359 0.984 . S
H366 N359 0.984 . S
H367 N355 0.984 . S
H368 N355 0.985 . S
C369 C370 1.363 . S
C369 C375 1.379 . S
C369 N377 1.356 . S
C370 C369 1.363 . S
C370 C376 1.363 . S
C371 C372 1.363 . S
C371 C376 1.379 . S
C371 N378 1.356 . S
C372 C371 1.363 . S
C372 C375 1.363 . S
N373 C375 1.356 . S
N373 H385 0.984 . S
N373 H386 0.985 . S
N374 C376 1.356 . S
N374 H379 0.984 . S
N374 H380 0.985 . S
C375 C369 1.379 . S
C375 C372 1.363 . S
C375 N373 1.356 . S
C376 C370 1.363 . S
C376 C371 1.379 . S
C376 N374 1.356 . S
N377 C369 1.356 . S
N377 H383 0.984 . S
N377 H384 0.984 . S
N378 C371 1.356 . S
N378 H381 0.984 . S
N378 H382 0.985 . S
H379 N374 0.984 . S
H380 N374 0.985 . S
H381 N378 0.984 . S
H382 N378 0.985 . S
H383 N377 0.984 . S
H384 N377 0.984 . S
H385 N373 0.984 . S
H386 N373 0.985 . S
C387 C388 1.363 . S
C387 C393 1.379 . S
C387 N395 1.356 . S
C388 C387 1.363 . S
C388 C394 1.363 . S
C389 C390 1.363 . S
C389 C394 1.379 1_655 S
C389 N396 1.356 . S
C390 C389 1.363 . S
C390 C393 1.363 1_655 S
N391 C393 1.356 1_655 S
N391 H403 0.984 1_655 S
N391 H404 0.985 . S
N392 C394 1.356 . S
N392 H397 0.984 . S
N392 H398 0.985 . S
C393 C387 1.379 . S
C393 C390 1.363 1_455 S
C393 N391 1.356 1_455 S
C394 C388 1.363 . S
C394 C389 1.379 1_455 S
C394 N392 1.356 . S
N395 C387 1.356 . S
N395 H401 0.984 . S
N395 H402 0.984 . S
N396 C389 1.356 . S
N396 H399 0.984 . S
N396 H400 0.985 . S
H397 N392 0.984 . S
H398 N392 0.985 . S
H399 N396 0.984 . S
H400 N396 0.985 . S
H401 N395 0.984 . S
H402 N395 0.984 . S
H403 N391 0.984 1_455 S
H404 N391 0.985 . S
C405 C406 1.363 . S
C405 C411 1.379 . S
C405 N413 1.356 . S
C406 C405 1.363 . S
C406 C412 1.363 . S
C407 C408 1.363 . S
C407 C412 1.379 . S
C407 N414 1.356 . S
C408 C407 1.363 . S
C408 C411 1.363 . S
N409 C411 1.356 . S
N409 H421 0.984 . S
N409 H422 0.985 . S
N410 C412 1.356 . S
N410 H415 0.984 . S
N410 H416 0.985 . S
C411 C405 1.379 . S
C411 C408 1.363 . S
C411 N409 1.356 . S
C412 C406 1.363 . S
C412 C407 1.379 . S
C412 N410 1.356 . S
N413 C405 1.356 . S
N413 H419 0.984 . S
N413 H420 0.984 . S
N414 C407 1.356 . S
N414 H417 0.984 . S
N414 H418 0.985 . S
H415 N410 0.984 . S
H416 N410 0.985 . S
H417 N414 0.984 . S
H418 N414 0.985 . S
H419 N413 0.984 . S
H420 N413 0.984 . S
H421 N409 0.984 . S
H422 N409 0.985 . S
C423 C424 1.363 1_545 S
C423 C429 1.379 . S
C423 N431 1.357 . S
C424 C423 1.363 1_565 S
C424 C430 1.363 . S
C425 C426 1.363 . S
C425 C430 1.379 1_545 S
C425 N432 1.356 . S
C426 C425 1.363 . S
C426 C429 1.363 . S
N427 C429 1.356 . S
N427 H439 0.984 . S
N427 H440 0.985 . S
N428 C430 1.356 . S
N428 H433 0.984 . S
N428 H434 0.985 . S
C429 C423 1.379 . S
C429 C426 1.363 . S
C429 N427 1.356 . S
C430 C424 1.363 . S
C430 C425 1.379 1_565 S
C430 N428 1.356 . S
N431 C423 1.357 . S
N431 H437 0.999 . S
N431 H438 0.969 1_545 S
N432 C425 1.356 . S
N432 H435 0.984 . S
N432 H436 0.985 . S
H433 N428 0.984 . S
H434 N428 0.985 . S
H435 N432 0.984 . S
H436 N432 0.985 . S
H437 N431 0.999 . S
H438 N431 0.969 1_565 S
H439 N427 0.984 . S
H440 N427 0.985 . S
C118 C31 1.243 . S
C120 C5 1.243 . S
C136 C18 1.243 . S
C138 C3 1.243 . S
C154 C16 1.243 . S
C156 C29 1.243 . S
C172 C70 1.243 . S
C174 C44 1.243 . S
C190 C57 1.243 . S
C192 C42 1.243 . S
C208 C55 1.243 . S
C210 C68 1.243 . S
C226 C83 1.243 . S
C228 C109 1.243 . S
C244 C81 1.243 . S
C246 C96 1.243 . S
C262 C94 1.243 . S
C264 C107 1.243 . S
C280 C10 1.442 . S
C282 C95 1.442 . S
C298 C23 1.442 . S
C300 C114 1.442 . S
C316 C82 1.442 . S
C318 C30 1.442 . S
C334 C62 1.442 . S
C336 C36 1.442 . S
C352 C4 1.442 . S
C354 C69 1.442 . S
C370 C49 1.442 . S
C372 C17 1.442 . S
C388 C101 1.442 . S
C390 C75 1.442 . S
C406 C43 1.442 . S
C408 C108 1.442 . S
C424 C88 1.442 . S
C426 C56 1.442 . S
