# Generated by pormake.
# Topology xff, (7)-cn, num edge types: 1
# Building blocks:
#     Node 0, Type 0, BuildingBlock: HICVOG_clean_sbu_0, # of connection points: 7
#     Node 1, Type 0, BuildingBlock: HICVOG_clean_sbu_0, # of connection points: 7
#     Node 2, Type 0, BuildingBlock: HICVOG_clean_sbu_0, # of connection points: 7
#     Node 3, Type 0, BuildingBlock: HICVOG_clean_sbu_0, # of connection points: 7
#     Node 4, Type 0, BuildingBlock: HICVOG_clean_sbu_0, # of connection points: 7
#     Node 5, Type 0, BuildingBlock: HICVOG_clean_sbu_0, # of connection points: 7
#     Node 6, Type 0, BuildingBlock: HICVOG_clean_sbu_0, # of connection points: 7
#     Node 7, Type 0, BuildingBlock: HICVOG_clean_sbu_0, # of connection points: 7
#     Node 8, Type 0, BuildingBlock: HICVOG_clean_sbu_0, # of connection points: 7
#     Node 9, Type 0, BuildingBlock: HICVOG_clean_sbu_0, # of connection points: 7
#     Node 10, Type 0, BuildingBlock: HICVOG_clean_sbu_0, # of connection points: 7
#     Node 11, Type 0, BuildingBlock: HICVOG_clean_sbu_0, # of connection points: 7
#     Node 12, Type 0, BuildingBlock: HICVOG_clean_sbu_0, # of connection points: 7
#     Node 13, Type 0, BuildingBlock: HICVOG_clean_sbu_0, # of connection points: 7
#     Node 14, Type 0, BuildingBlock: HICVOG_clean_sbu_0, # of connection points: 7
#     Node 15, Type 0, BuildingBlock: HICVOG_clean_sbu_0, # of connection points: 7
#     Edge 16, Type (0, 0), BuildingBlock: XIVTED_clean_linker_0, # of connection points: 2
#     Edge 17, Type (0, 0), BuildingBlock: XIVTED_clean_linker_0, # of connection points: 2
#     Edge 18, Type (0, 0), BuildingBlock: XIVTED_clean_linker_0, # of connection points: 2
#     Edge 19, Type (0, 0), BuildingBlock: XIVTED_clean_linker_0, # of connection points: 2
#     Edge 20, Type (0, 0), BuildingBlock: XIVTED_clean_linker_0, # of connection points: 2
#     Edge 21, Type (0, 0), BuildingBlock: XIVTED_clean_linker_0, # of connection points: 2
#     Edge 22, Type (0, 0), BuildingBlock: XIVTED_clean_linker_0, # of connection points: 2
#     Edge 23, Type (0, 0), BuildingBlock: XIVTED_clean_linker_0, # of connection points: 2
#     Edge 24, Type (0, 0), BuildingBlock: XIVTED_clean_linker_0, # of connection points: 2
#     Edge 25, Type (0, 0), BuildingBlock: XIVTED_clean_linker_0, # of connection points: 2
#     Edge 26, Type (0, 0), BuildingBlock: XIVTED_clean_linker_0, # of connection points: 2
#     Edge 27, Type (0, 0), BuildingBlock: XIVTED_clean_linker_0, # of connection points: 2
#     Edge 28, Type (0, 0), BuildingBlock: XIVTED_clean_linker_0, # of connection points: 2
#     Edge 29, Type (0, 0), BuildingBlock: XIVTED_clean_linker_0, # of connection points: 2
#     Edge 30, Type (0, 0), BuildingBlock: XIVTED_clean_linker_0, # of connection points: 2
#     Edge 31, Type (0, 0), BuildingBlock: XIVTED_clean_linker_0, # of connection points: 2
#     Edge 32, Type (0, 0), BuildingBlock: XIVTED_clean_linker_0, # of connection points: 2
#     Edge 33, Type (0, 0), BuildingBlock: XIVTED_clean_linker_0, # of connection points: 2
#     Edge 34, Type (0, 0), BuildingBlock: XIVTED_clean_linker_0, # of connection points: 2
#     Edge 35, Type (0, 0), BuildingBlock: XIVTED_clean_linker_0, # of connection points: 2
#     Edge 36, Type (0, 0), BuildingBlock: XIVTED_clean_linker_0, # of connection points: 2
#     Edge 37, Type (0, 0), BuildingBlock: XIVTED_clean_linker_0, # of connection points: 2
#     Edge 38, Type (0, 0), BuildingBlock: XIVTED_clean_linker_0, # of connection points: 2
#     Edge 39, Type (0, 0), BuildingBlock: XIVTED_clean_linker_0, # of connection points: 2
#     Edge 40, Type (0, 0), BuildingBlock: XIVTED_clean_linker_0, # of connection points: 2
#     Edge 41, Type (0, 0), BuildingBlock: XIVTED_clean_linker_0, # of connection points: 2
#     Edge 42, Type (0, 0), BuildingBlock: XIVTED_clean_linker_0, # of connection points: 2
#     Edge 43, Type (0, 0), BuildingBlock: XIVTED_clean_linker_0, # of connection points: 2
#     Edge 44, Type (0, 0), BuildingBlock: XIVTED_clean_linker_0, # of connection points: 2
#     Edge 45, Type (0, 0), BuildingBlock: XIVTED_clean_linker_0, # of connection points: 2
#     Edge 46, Type (0, 0), BuildingBlock: XIVTED_clean_linker_0, # of connection points: 2
#     Edge 47, Type (0, 0), BuildingBlock: XIVTED_clean_linker_0, # of connection points: 2
#     Edge 48, Type (0, 0), BuildingBlock: XIVTED_clean_linker_0, # of connection points: 2
#     Edge 49, Type (0, 0), BuildingBlock: XIVTED_clean_linker_0, # of connection points: 2
#     Edge 50, Type (0, 0), BuildingBlock: XIVTED_clean_linker_0, # of connection points: 2
#     Edge 51, Type (0, 0), BuildingBlock: XIVTED_clean_linker_0, # of connection points: 2
#     Edge 52, Type (0, 0), BuildingBlock: XIVTED_clean_linker_0, # of connection points: 2
#     Edge 53, Type (0, 0), BuildingBlock: XIVTED_clean_linker_0, # of connection points: 2
#     Edge 54, Type (0, 0), BuildingBlock: XIVTED_clean_linker_0, # of connection points: 2
#     Edge 55, Type (0, 0), BuildingBlock: XIVTED_clean_linker_0, # of connection points: 2
#     Edge 56, Type (0, 0), BuildingBlock: XIVTED_clean_linker_0, # of connection points: 2
#     Edge 57, Type (0, 0), BuildingBlock: XIVTED_clean_linker_0, # of connection points: 2
#     Edge 58, Type (0, 0), BuildingBlock: XIVTED_clean_linker_0, # of connection points: 2
#     Edge 59, Type (0, 0), BuildingBlock: XIVTED_clean_linker_0, # of connection points: 2
#     Edge 60, Type (0, 0), BuildingBlock: XIVTED_clean_linker_0, # of connection points: 2
#     Edge 61, Type (0, 0), BuildingBlock: XIVTED_clean_linker_0, # of connection points: 2
#     Edge 62, Type (0, 0), BuildingBlock: XIVTED_clean_linker_0, # of connection points: 2
#     Edge 63, Type (0, 0), BuildingBlock: XIVTED_clean_linker_0, # of connection points: 2
#     Edge 64, Type (0, 0), BuildingBlock: XIVTED_clean_linker_0, # of connection points: 2
#     Edge 65, Type (0, 0), BuildingBlock: XIVTED_clean_linker_0, # of connection points: 2
#     Edge 66, Type (0, 0), BuildingBlock: XIVTED_clean_linker_0, # of connection points: 2
#     Edge 67, Type (0, 0), BuildingBlock: XIVTED_clean_linker_0, # of connection points: 2
#     Edge 68, Type (0, 0), BuildingBlock: XIVTED_clean_linker_0, # of connection points: 2
#     Edge 69, Type (0, 0), BuildingBlock: XIVTED_clean_linker_0, # of connection points: 2
#     Edge 70, Type (0, 0), BuildingBlock: XIVTED_clean_linker_0, # of connection points: 2
#     Edge 71, Type (0, 0), BuildingBlock: XIVTED_clean_linker_0, # of connection points: 2
# Relax obj value: 0.352
# Max RMSD: 0.250
# Mean RMSD: 0.250
data_MOF--net-xff--node1-HICVOG_clean_sbu_0--edge1-XIVTED_clean_linker_0
_symmetry_space_group_name_H-M    P1
_symmetry_Int_Tables_number       1
_symmetry_cell_setting            triclinic
loop_
_symmetry_equiv_pos_as_xyz
'x, y, z'
_cell_length_a     29.525762
_cell_length_b     29.530834
_cell_length_c     68.264443
_cell_angle_alpha  90.040009
_cell_angle_beta   90.015657
_cell_angle_gamma 89.877025
loop_
_atom_site_label
_atom_site_type_symbol
_atom_site_fract_x
_atom_site_fract_y
_atom_site_fract_z
_atom_type_partial_charge
Zn0 Zn 0.20578 0.0887 0.04381 0.0
C1 C 0.23617 0.20325 0.01383 0.0
N2 N 0.21914 0.22174 0.03022 0.0
C3 C 0.20992 0.18566 0.04133 0.0
N4 N 0.22114 0.14664 0.03231 0.0
N5 N 0.23841 0.15726 0.01498 0.0
C6 C 0.2252 0.11295 0.96304 0.0
O7 O 0.1949 0.09609 0.97509 0.0
O8 O 0.23252 0.08398 0.07076 0.0
Zn9 Zn 0.27168 0.11432 -0.00141 0.0
N10 N 0.14053 0.08748 0.04534 0.0
C11 C 0.07093 0.07964 0.02816 0.0
C12 C 0.11809 0.08073 0.02823 0.0
C13 C 0.11778 0.09364 0.06247 0.0
N14 N 0.04811 0.08563 0.04522 0.0
C15 C 0.07008 0.09298 0.06247 0.0
O16 O 0.25832 0.04608 0.00155 0.0
C17 C 0.24212 1.01792 0.01383 0.0
O18 O 0.22372 0.03143 0.0296 0.0
H19 H 0.13686 0.07615 0.01476 0.0
H20 H 0.13674 0.09841 0.07588 0.0
C21 C 0.36244 0.15115 -0.00257 0.0
C22 C 0.40871 0.15117 0.00241 0.0
C23 C 0.39694 0.08644 0.02239 0.0
C24 C 0.35121 0.08681 0.01757 0.0
N25 N 0.33493 0.11882 0.0051 0.0
N26 N 0.42451 0.11849 0.01473 0.0
H27 H 0.3484 0.17589 0.98744 0.0
C28 C 0.27377 0.0939 0.07383 0.0
O29 O 0.2988 0.10872 0.05929 0.0
O30 O 0.26227 0.12751 0.97007 0.0
H31 H 0.32885 0.06157 0.02365 0.0
H32 H 0.05256 0.07406 0.01466 0.0
H33 H 0.41046 0.06102 0.0322 0.0
Zn34 Zn 0.70106 0.45293 0.29203 0.0
C35 C 0.58795 0.48777 0.26214 0.0
N36 N 0.56915 0.46849 0.278 0.0
C37 C 0.60501 0.4594 0.28926 0.0
N38 N 0.64406 0.47268 0.28091 0.0
N39 N 0.6339 0.49098 0.26372 0.0
C40 C 0.66083 0.48534 0.20991 0.0
O41 O 0.65806 0.4469 0.21951 0.0
O42 O 0.71004 0.47999 0.31883 0.0
Zn43 Zn 0.67865 0.52423 0.24821 0.0
N44 N 0.6939 0.3883 0.294 0.0
C45 C 0.66843 0.32079 0.27849 0.0
C46 C 0.68062 0.36631 0.27748 0.0
C47 C 0.69612 0.36655 0.3115 0.0
N48 N 0.67003 0.29909 0.296 0.0
C49 C 0.68385 0.32067 0.31257 0.0
O50 O 0.74579 0.50632 0.25081 0.0
C51 C 0.77318 0.48586 0.26223 0.0
O52 O 0.75903 0.46564 0.27745 0.0
H53 H 0.67818 0.3845 0.26376 0.0
H54 H 0.70558 0.38524 0.32451 0.0
C55 C 0.6436 0.61484 0.25065 0.0
C56 C 0.64487 0.66065 0.25631 0.0
C57 C 0.71434 0.64707 0.27289 0.0
C58 C 0.71277 0.6018 0.26732 0.0
N59 N 0.67753 0.58661 0.25633 0.0
N60 N 0.68051 0.67532 0.26727 0.0
H61 H 0.61668 0.60165 0.24156 0.0
C62 C 0.70728 0.52261 0.32117 0.0
O63 O 0.69657 0.54828 0.30616 0.0
O64 O 0.66588 0.52198 0.21941 0.0
H65 H 0.73959 0.579 0.27167 0.0
H66 H 0.65723 0.30298 0.26552 0.0
H67 H 0.74218 0.65971 0.2816 0.0
Zn68 Zn 0.346 0.94693 0.54178 0.0
C69 C 0.31097 0.83438 0.51145 0.0
N70 N 0.33086 0.81534 0.52713 0.0
C71 C 0.34015 0.851 0.53847 0.0
N72 N 0.32658 0.89019 0.53028 0.0
N73 N 0.30764 0.88026 0.51321 0.0
C74 C 0.31207 0.9084 0.45986 0.0
O75 O 0.35038 0.90512 0.46956 0.0
O76 O 0.32031 0.95285 0.5689 0.0
Zn77 Zn 0.27341 0.92503 0.49817 0.0
N78 N 0.41067 0.93971 0.54409 0.0
C79 C 0.47939 0.91482 0.52935 0.0
C80 C 0.43404 0.92764 0.52775 0.0
C81 C 0.43089 0.94009 0.56198 0.0
N82 N 0.49946 0.9144 0.54726 0.0
C83 C 0.47646 0.92697 0.56366 0.0
O84 O 0.29133 0.99203 0.5011 0.0
C85 C 0.3119 1.01955 0.51241 0.0
O86 O 0.33268 1.00554 0.52756 0.0
H87 H 0.41705 0.9265 0.51371 0.0
H88 H 0.41116 0.94853 0.57483 0.0
C89 C 0.18243 0.89011 0.50084 0.0
C90 C 0.13677 0.89192 0.50671 0.0
C91 C 0.15165 0.96019 0.52393 0.0
C92 C 0.19676 0.95816 0.51814 0.0
N93 N 0.21121 0.92339 0.50666 0.0
N94 N 0.1228 0.92721 0.51808 0.0
H95 H 0.19494 0.8633 0.49147 0.0
C96 C 0.28254 0.97142 0.57285 0.0
O97 O 0.25848 0.98936 0.55864 0.0
O98 O 0.27529 0.91324 0.46928 0.0
H99 H 0.21995 0.98444 0.52258 0.0
H100 H 0.4983 0.90456 0.51652 0.0
H101 H 0.13958 0.98779 0.53297 0.0
Zn102 Zn 0.84507 0.5949 0.79233 0.0
C103 C 0.95733 0.55459 0.76298 0.0
N104 N 0.97644 0.57208 0.77915 0.0
C105 C 0.94062 0.58268 0.79018 0.0
N106 N 0.90124 0.57223 0.78138 0.0
N107 N 0.91122 0.554 0.76415 0.0
C108 C 0.86473 0.57016 0.71194 0.0
O109 O 0.84857 0.60134 0.7238 0.0
O110 O 0.83793 0.57064 0.81961 0.0
Zn111 Zn 0.86616 0.52389 0.74778 0.0
N112 N 0.85395 0.65955 0.79392 0.0
C113 C 0.88174 0.72638 0.77867 0.0
C114 C 0.86898 0.681 0.77757 0.0
C115 C 0.8506 0.68173 0.81132 0.0
N116 N 0.87901 0.74846 0.79609 0.0
C117 C 0.86347 0.72746 0.8125 0.0
O118 O 0.79901 0.54154 0.75151 0.0
C119 C 0.7718 0.56192 0.76305 0.0
O120 O 0.78624 0.58231 0.77821 0.0
H121 H 0.87224 0.66253 0.76395 0.0
H122 H 0.83971 0.66346 0.82422 0.0
C123 C 0.89891 0.43128 0.74652 0.0
C124 C 0.89542 0.38469 0.75057 0.0
C125 C 0.82859 0.39871 0.76894 0.0
C126 C 0.83227 0.44472 0.76499 0.0
N127 N 0.86695 0.46007 0.75372 0.0
N128 N 0.86007 0.36985 0.76163 0.0
H129 H 0.92598 0.44447 0.73751 0.0
C130 C 0.82044 0.53222 0.82315 0.0
O131 O 0.80512 0.50764 0.80855 0.0
O132 O 0.87875 0.53309 0.71919 0.0
H133 H 0.8073 0.46797 0.77072 0.0
H134 H 0.89427 0.74377 0.76583 0.0
H135 H 0.80096 0.38596 0.77774 0.0
Zn136 Zn 0.77004 0.93343 0.98624 0.0
C137 C 0.83694 0.863 0.94472 0.0
N138 N 0.82932 0.82692 0.95606 0.0
C139 C 0.81065 0.84508 0.9722 0.0
N140 N 0.80592 0.89085 0.97067 0.0
N141 N 0.82322 0.90166 0.95337 0.0
C142 C 0.76821 0.9532 0.9118 0.0
O143 O 0.74383 0.9371 0.92628 0.0
O144 O 0.77255 0.91949 0.01489 0.0
Zn145 Zn 0.83646 0.95999 0.94176 0.0
N146 N 0.70812 0.9293 0.97775 0.0
C147 C 0.64799 0.96123 0.95914 0.0
C148 C 0.69307 0.96135 0.96504 0.0
C149 C 0.67999 0.89685 0.98483 0.0
N150 N 0.61979 0.92894 0.96618 0.0
C151 C 0.63437 0.89644 0.97887 0.0
O152 O 0.81793 1.01686 0.95614 0.0
C153 C 0.79985 0.02998 0.97205 0.0
O154 O 0.78403 1.00154 0.98429 0.0
H155 H 0.71587 0.98698 0.95959 0.0
H156 H 0.69305 0.87245 -0.00478 0.0
C157 C 0.92361 0.95567 0.9227 0.0
C158 C 0.97126 0.95669 0.92235 0.0
C159 C 0.97165 0.97208 0.9565 0.0
C160 C 0.92451 0.97056 0.95679 0.0
N161 N 0.9015 0.96259 0.93992 0.0
N162 N 0.99386 0.96526 0.93934 0.0
H163 H 0.90414 0.94993 0.90951 0.0
C164 C 0.80957 0.91538 0.0242 0.0
O165 O 0.84789 0.91462 0.01443 0.0
O166 O 0.80914 0.9643 0.91488 0.0
H167 H 0.90622 0.97564 0.97035 0.0
H168 H 0.63544 0.98657 0.94906 0.0
H169 H 0.99049 0.9786 0.9698 0.0
Zn170 Zn 0.34151 0.59131 0.69197 0.0
C171 C 0.45665 0.56404 0.72209 0.0
N172 N 0.47462 0.58361 0.70614 0.0
C173 C 0.43847 0.59061 0.69474 0.0
N174 N 0.39993 0.57603 0.70319 0.0
N175 N 0.41097 0.55864 0.72045 0.0
C176 C 0.36886 0.57293 0.77207 0.0
O177 O 0.35248 0.6032 0.75986 0.0
O178 O 0.33626 0.5653 0.66492 0.0
Zn179 Zn 0.36862 0.52493 0.73689 0.0
N180 N 0.34134 0.65626 0.6901 0.0
C181 C 0.33383 0.72755 0.70595 0.0
C182 C 0.33327 0.68041 0.70668 0.0
C183 C 0.35061 0.67715 0.67283 0.0
N184 N 0.3425 0.74855 0.68868 0.0
C185 C 0.35126 0.72472 0.672 0.0
O186 O 0.30007 0.5382 0.73411 0.0
C187 C 0.27153 0.55502 0.72211 0.0
O188 O 0.28457 0.57405 0.70643 0.0
H189 H 0.32651 0.66303 0.72031 0.0
H190 H 0.3565 0.65676 0.65991 0.0
C191 C 0.40701 0.43419 0.73763 0.0
C192 C 0.40595 0.38759 0.73333 0.0
C193 C 0.3382 0.39844 0.71519 0.0
C194 C 0.33946 0.44447 0.71938 0.0
N195 N 0.3734 0.4614 0.73067 0.0
N196 N 0.37129 0.37115 0.72227 0.0
H197 H 0.43349 0.44856 0.74665 0.0
C198 C 0.31942 0.52651 0.66155 0.0
O199 O 0.30357 0.50245 0.67619 0.0
O200 O 0.38222 0.53512 0.7653 0.0
H201 H 0.31317 0.46646 0.71385 0.0
H202 H 0.32725 0.74734 0.71899 0.0
H203 H 0.31117 0.38444 0.70638 0.0
Zn204 Zn 0.77273 0.11155 0.48602 0.0
C205 C 0.70858 0.18456 0.44441 0.0
N206 N 0.71746 0.2202 0.45584 0.0
C207 C 0.73573 0.20118 0.47186 0.0
N208 N 0.73905 0.15532 0.47017 0.0
N209 N 0.72125 0.14539 0.45286 0.0
C210 C 0.77458 0.09385 0.41098 0.0
O211 O 0.79965 0.10845 0.42556 0.0
O212 O 0.76522 0.12519 0.51457 0.0
Zn213 Zn 0.70598 0.0882 0.44085 0.0
N214 N 0.8358 0.11503 0.47892 0.0
C215 C 0.89646 0.08099 0.46131 0.0
C216 C 0.85093 0.08245 0.46644 0.0
C217 C 0.86431 0.14692 0.48629 0.0
N218 N 0.92503 0.1125 0.46872 0.0
C219 C 0.91042 0.14576 0.48104 0.0
O220 O 0.72294 0.03079 0.45496 0.0
C221 C 0.74092 1.01614 0.47063 0.0
O222 O 0.75777 0.04335 0.48318 0.0
H223 H 0.82782 0.05756 0.4606 0.0
H224 H 0.85124 0.17217 0.4963 0.0
C225 C 0.61847 0.09467 0.42179 0.0
C226 C 0.57078 0.0952 0.42164 0.0
C227 C 0.57078 0.08157 0.45594 0.0
C228 C 0.61794 0.08149 0.45601 0.0
N229 N 0.64079 0.08783 0.43898 0.0
N230 N 0.54838 0.08826 0.43882 0.0
H231 H 0.63775 0.09917 0.40846 0.0
C232 C 0.72723 0.1145 0.52195 0.0
O233 O 0.69492 0.1002 0.51024 0.0
O234 O 0.73331 0.08393 0.41401 0.0
H235 H 0.63638 0.07645 0.46954 0.0
H236 H 0.90905 0.05509 0.4515 0.0
H237 H 0.55207 0.07637 0.46937 0.0
Zn238 Zn 0.2006 0.45417 0.19272 0.0
C239 C 0.08764 0.49204 0.22185 0.0
N240 N 0.06921 0.47744 0.20502 0.0
C241 C 0.10546 0.46684 0.19424 0.0
N242 N 0.14438 0.47488 0.20382 0.0
N243 N 0.13377 0.49156 0.22125 0.0
C244 C 0.18015 0.47227 0.27282 0.0
O245 O 0.19664 0.44254 0.26037 0.0
O246 O 0.20292 0.47793 0.16531 0.0
Zn247 Zn 0.17796 0.5217 0.23794 0.0
N248 N 0.19496 0.38921 0.19182 0.0
C249 C 0.17013 0.32173 0.20748 0.0
C250 C 0.18048 0.36776 0.20826 0.0
C251 C 0.20026 0.36644 0.17467 0.0
N252 N 0.17447 0.29909 0.19026 0.0
C253 C 0.18956 0.32015 0.17379 0.0
O254 O 0.24554 0.50658 0.2338 0.0
C255 C 0.27344 0.4892 0.22166 0.0
O256 O 0.25966 0.47003 0.20608 0.0
H257 H 0.17579 0.38665 0.22169 0.0
H258 H 0.21068 0.38467 0.16169 0.0
C259 C 0.14145 0.61301 0.23969 0.0
C260 C 0.14233 0.65968 0.23542 0.0
C261 C 0.21056 0.64899 0.21756 0.0
C262 C 0.20919 0.60292 0.22158 0.0
N263 N 0.17502 0.58584 0.23268 0.0
N264 N 0.17722 0.67615 0.22452 0.0
H265 H 0.11494 0.59834 0.24857 0.0
C266 C 0.21416 0.51867 0.16195 0.0
O267 O 0.22639 0.54477 0.17661 0.0
O268 O 0.16574 0.50992 0.26631 0.0
H269 H 0.23538 0.58097 0.21593 0.0
H270 H 0.15803 0.30429 0.22039 0.0
H271 H 0.23771 0.66309 0.20886 0.0
Zn272 Zn 0.70102 0.58693 0.54113 0.0
C273 C 0.72676 0.70039 0.50949 0.0
N274 N 0.70473 0.71887 0.52475 0.0
C275 C 0.69746 0.68345 0.5365 0.0
N276 N 0.71416 0.64479 0.52886 0.0
N277 N 0.73334 0.65502 0.51188 0.0
C278 C 0.73544 0.62961 0.4591 0.0
O279 O 0.69694 0.63317 0.46863 0.0
O280 O 0.72788 0.58407 0.56823 0.0
Zn281 Zn 0.77174 0.61217 0.4976 0.0
N282 N 0.63606 0.58544 0.54337 0.0
C283 C 0.5649 0.57508 0.52774 0.0
C284 C 0.61204 0.57573 0.52694 0.0
C285 C 0.61501 0.59519 0.56058 0.0
N286 N 0.54376 0.58421 0.54495 0.0
C287 C 0.56741 0.59458 0.56149 0.0
O288 O 0.75735 0.54401 0.49985 0.0
C289 C 0.73904 0.51596 0.51162 0.0
O290 O 0.71881 0.52955 0.52696 0.0
H291 H 0.62951 0.56861 0.51335 0.0
H292 H 0.63529 0.60242 0.5734 0.0
C293 C 0.86177 0.64952 0.50128 0.0
C294 C 0.90635 0.64979 0.50858 0.0
C295 C 0.88923 0.58574 0.52822 0.0
C296 C 0.84521 0.58567 0.52098 0.0
N297 N 0.83243 0.61727 0.50762 0.0
N298 N 0.9187 0.6176 0.52184 0.0
H299 H 0.85063 0.67384 0.49044 0.0
C300 C 0.76294 0.56123 0.57266 0.0
O301 O 0.78292 0.53658 0.55918 0.0
O302 O 0.77192 0.6242 0.46869 0.0
H303 H 0.82151 0.56026 0.5258 0.0
H304 H 0.54523 0.5672 0.51481 0.0
H305 H 0.89998 0.56063 0.53879 0.0
Zn306 Zn 0.17579 1.01912 0.74774 0.0
C307 C 0.10203 0.95828 0.78985 0.0
N308 N 0.06618 0.96807 0.77869 0.0
C309 C 0.08515 0.98624 0.76265 0.0
N310 N 0.13119 0.98808 0.76402 0.0
N311 N 0.14129 0.96996 0.78124 0.0
C312 C 0.22057 1.01199 0.82349 0.0
O313 O 0.23629 0.03691 0.80909 0.0
O314 O 0.16394 1.00868 0.71916 0.0
Zn315 Zn 0.19776 0.94887 0.79241 0.0
N316 N 0.17229 0.08297 0.7533 0.0
C317 C 0.20599 0.14685 0.76863 0.0
C318 C 0.20583 0.10072 0.76455 0.0
C319 C 0.1384 0.10938 0.74609 0.0
N320 N 0.1722 0.17329 0.76153 0.0
C321 C 0.13801 0.15603 0.75041 0.0
O322 O 0.25641 0.96257 0.77844 0.0
C323 C 0.27076 0.98339 0.76339 0.0
O324 O 0.24339 1.00341 0.7518 0.0
H325 H 0.2324 0.07925 0.77025 0.0
H326 H 0.11262 0.09407 0.73701 0.0
C327 C 0.19481 0.86219 0.81145 0.0
C328 C 0.18253 0.81638 0.81279 0.0
C329 C 0.16311 0.81665 0.77909 0.0
C330 C 0.17517 0.8622 0.77783 0.0
N331 N 0.19042 0.8841 0.79405 0.0
N332 N 0.16667 0.79489 0.79655 0.0
H333 H 0.20592 0.88072 0.82426 0.0
C334 C 0.17956 0.97199 0.71214 0.0
O335 O 0.1969 0.94191 0.7242 0.0
O336 O 0.2037 0.97341 0.81971 0.0
H337 H 0.17111 0.88045 0.7642 0.0
H338 H 0.23259 0.16156 0.77747 0.0
H339 H 0.15037 0.79891 0.76637 0.0
Zn340 Zn 0.76754 0.43394 -0.002 0.0
C341 C 0.82836 0.36173 0.04086 0.0
N342 N 0.8185 0.32556 0.02991 0.0
C343 C 0.80004 0.34408 0.01381 0.0
N344 N 0.7981 0.39013 0.01493 0.0
N345 N 0.81634 0.40079 0.03208 0.0
C346 C 0.76861 0.46803 0.07175 0.0
O347 O 0.74222 0.45978 0.05667 0.0
O348 O 0.77911 0.42049 0.96964 0.0
Zn349 Zn 0.83739 0.45806 0.04255 0.0
N350 N 0.70344 0.43157 0.00315 0.0
C351 C 0.63954 0.46804 0.01738 0.0
C352 C 0.68585 0.46635 0.01378 0.0
C353 C 0.67664 0.39784 -0.00385 0.0
N354 N 0.61271 0.43454 0.0104 0.0
C355 C 0.62977 0.39914 -8e-05 0.0
O356 O 0.82405 0.51578 0.02779 0.0
C357 C 0.80323 0.52945 0.01261 0.0
O358 O 0.78315 0.50159 0.00131 0.0
H359 H 0.70757 0.4928 0.01933 0.0
H360 H 0.69173 0.37095 0.98757 0.0
C361 C 0.92483 0.45518 0.06145 0.0
C362 C 0.97102 0.44365 0.06236 0.0
C363 C 0.96937 0.42421 0.02866 0.0
C364 C 0.92358 0.43569 0.02781 0.0
N365 N 0.9022 0.45063 0.04422 0.0
N366 N 0.99194 0.42815 0.0459 0.0
H367 H 0.90665 0.46603 0.0744 0.0
C368 C 0.81668 0.43467 0.96299 0.0
O369 O 0.84647 0.45137 0.97533 0.0
O370 O 0.81132 0.46813 0.0694 0.0
H371 H 0.90478 0.43157 0.01432 0.0
H372 H 0.625 0.49564 0.02571 0.0
H373 H 0.98672 0.41176 0.01577 0.0
Zn374 Zn 0.36233 0.0249 0.24886 0.0
C375 C 0.43317 0.09286 0.29017 0.0
N376 N 0.46899 0.08576 0.2786 0.0
C377 C 0.45079 0.06527 0.26291 0.0
N378 N 0.40522 0.05946 0.26484 0.0
N379 N 0.39453 0.07727 0.28209 0.0
C380 C 0.33117 1.02137 0.3225 0.0
O381 O 0.34134 0.99561 0.30744 0.0
O382 O 0.37705 0.02913 0.2203 0.0
Zn383 Zn 0.33583 0.09166 0.29341 0.0
N384 N 0.36496 0.96236 0.25667 0.0
C385 C 0.3288 0.90092 0.27278 0.0
C386 C 0.32977 0.94632 0.26744 0.0
C387 C 0.39947 0.93482 0.25098 0.0
N388 N 0.36313 0.87334 0.26713 0.0
C389 C 0.39873 0.88884 0.25638 0.0
O390 O 0.27921 0.07513 0.2785 0.0
C391 C 0.26604 0.05731 0.26256 0.0
O392 O 0.29441 0.04055 0.25048 0.0
H393 H 0.3025 0.96855 0.27181 0.0
H394 H 0.42641 0.94859 0.24208 0.0
C395 C 0.34491 0.17829 0.31245 0.0
C396 C 0.34507 0.22594 0.31293 0.0
C397 C 0.32572 0.22719 0.27916 0.0
C398 C 0.32573 0.18004 0.27877 0.0
N399 N 0.33501 0.15663 0.29541 0.0
N400 N 0.33513 0.24897 0.29618 0.0
H401 H 0.3518 0.15846 0.32544 0.0
C402 C 0.38051 0.06714 0.21174 0.0
O403 O 0.38016 0.10439 0.22228 0.0
O404 O 0.32835 0.06399 0.32017 0.0
H405 H 0.31851 0.16207 0.26531 0.0
H406 H 0.30099 0.88763 0.28132 0.0
H407 H 0.3182 0.24637 0.26605 0.0
Zn408 Zn 0.27707 0.42303 0.48661 0.0
C409 C 0.34808 0.35293 0.44613 0.0
N410 N 0.34054 0.31701 0.45756 0.0
C411 C 0.31927 0.3352 0.47309 0.0
N412 N 0.3133 0.38073 0.47113 0.0
N413 N 0.33219 0.39147 0.45414 0.0
C414 C 0.28326 0.4721 0.41172 0.0
O415 O 0.26065 0.49133 0.42606 0.0
O416 O 0.28466 0.41069 0.51527 0.0
Zn417 Zn 0.34702 0.44939 0.44247 0.0
N418 N 0.21441 0.41722 0.4791 0.0
C419 C 0.15384 0.44956 0.46085 0.0
C420 C 0.19915 0.4491 0.46634 0.0
C421 C 0.1862 0.38506 0.48645 0.0
N422 N 0.12554 0.41785 0.46826 0.0
C423 C 0.14026 0.38532 0.48089 0.0
O424 O 0.32874 0.50643 0.45667 0.0
C425 C 0.30796 0.51977 0.47191 0.0
O426 O 0.28985 0.4915 0.48364 0.0
H427 H 0.22195 0.4744 0.46066 0.0
H428 H 0.19929 0.36039 0.49672 0.0
C429 C 0.43383 0.44209 0.42351 0.0
C430 C 0.48147 0.44237 0.42299 0.0
C431 C 0.48269 0.45775 0.45716 0.0
C432 C 0.43552 0.45753 0.45756 0.0
N433 N 0.41212 0.45006 0.44074 0.0
N434 N 0.50448 0.4505 0.43993 0.0
H435 H 0.41407 0.43659 0.41038 0.0
C436 C 0.32199 0.42443 0.52233 0.0
O437 O 0.35301 0.43993 0.51028 0.0
O438 O 0.32111 0.45331 0.41533 0.0
H439 H 0.41752 0.46326 0.47115 0.0
H440 H 0.14117 0.47493 0.45081 0.0
H441 H 0.50186 0.46387 0.4704 0.0
Zn442 Zn 0.8624 0.02408 0.23588 0.0
C443 C 0.93318 0.0898 0.19396 0.0
N444 N 0.96924 0.08215 0.20533 0.0
C445 C 0.95104 0.06265 0.22125 0.0
N446 N 0.90529 0.05787 0.21962 0.0
N447 N 0.89449 0.07546 0.20236 0.0
C448 C 0.83249 1.02091 0.16227 0.0
O449 O 0.84375 0.9958 0.17737 0.0
O450 O 0.87677 0.02988 0.26442 0.0
Zn451 Zn 0.83608 0.09107 0.19116 0.0
N452 N 0.8657 0.96107 0.2288 0.0
C453 C 0.83124 0.89892 0.21248 0.0
C454 C 0.83196 0.94467 0.21729 0.0
C455 C 0.89897 0.93357 0.23578 0.0
N456 N 0.86433 0.87138 0.21941 0.0
C457 C 0.89847 0.88722 0.23094 0.0
O458 O 0.77934 0.07481 0.20603 0.0
C459 C 0.76607 0.0564 0.22182 0.0
O460 O 0.79436 0.03913 0.2338 0.0
H461 H 0.80557 0.9669 0.21199 0.0
H462 H 0.92468 0.9477 0.24526 0.0
C463 C 0.84452 0.17823 0.1722 0.0
C464 C 0.84519 0.2259 0.17202 0.0
C465 C 0.83011 0.22628 0.2062 0.0
C466 C 0.82947 0.17914 0.20628 0.0
N467 N 0.83634 0.15614 0.18931 0.0
N468 N 0.83766 0.24848 0.18912 0.0
H469 H 0.84958 0.15878 0.15894 0.0
C470 C 0.88009 0.06805 0.27287 0.0
O471 O 0.87962 0.10513 0.26225 0.0
O472 O 0.82847 0.06348 0.16444 0.0
H473 H 0.82361 0.16083 0.21977 0.0
H474 H 0.80456 0.88533 0.20336 0.0
H475 H 0.8245 0.24512 0.21958 0.0
Zn476 Zn 0.2717 0.61403 0.98739 0.0
C477 C 0.20619 0.68461 0.94551 0.0
N478 N 0.21456 0.72087 0.95665 0.0
C479 C 0.23386 0.70281 0.97267 0.0
N480 N 0.23807 0.65696 0.97124 0.0
N481 N 0.21999 0.64602 0.95412 0.0
C482 C 0.27219 0.57328 0.91174 0.0
O483 O 0.2964 0.55688 0.92625 0.0
O484 O 0.2617 0.62751 0.01578 0.0
Zn485 Zn 0.20617 0.58844 0.94221 0.0
N486 N 0.33506 0.61858 0.98102 0.0
C487 C 0.39807 0.58449 0.96505 0.0
C488 C 0.35224 0.58483 0.96967 0.0
C489 C 0.3618 0.65265 0.98776 0.0
N490 N 0.42485 0.61827 0.97178 0.0
C491 C 0.40818 0.65268 0.98297 0.0
O492 O 0.22472 0.5308 0.95599 0.0
C493 C 0.2426 0.51745 0.9719 0.0
O494 O 0.25808 0.54573 0.98434 0.0
H495 H 0.3306 0.55811 0.96435 0.0
H496 H 0.34711 0.67877 -0.0031 0.0
C497 C 0.11948 0.59382 0.92322 0.0
C498 C 0.07186 0.59315 0.92264 0.0
C499 C 0.07059 0.57774 0.95678 0.0
C500 C 0.11775 0.57875 0.95727 0.0
N501 N 0.14116 0.58653 0.94049 0.0
N502 N 0.0488 0.58476 0.93953 0.0
H503 H 0.13933 0.59938 0.91013 0.0
C504 C 0.22351 0.61505 0.0224 0.0
O505 O 0.1932 0.59921 0.01008 0.0
O506 O 0.23242 0.5878 0.9151 0.0
H507 H 0.13573 0.5734 0.97089 0.0
H508 H 0.41227 0.5577 0.95614 0.0
H509 H 0.05141 0.57138 0.96999 0.0
Zn510 Zn 0.70085 0.94929 0.69213 0.0
C511 C 0.58765 0.96667 0.72487 0.0
N512 N 0.57005 0.94453 0.70943 0.0
C513 C 0.60574 0.93902 0.6976 0.0
N514 N 0.64351 0.95705 0.70533 0.0
N515 N 0.63262 0.97522 0.72244 0.0
C516 C 0.65694 0.97826 0.77445 0.0
O517 O 0.65509 0.9403 0.76443 0.0
O518 O 0.69894 0.98009 0.66581 0.0
Zn519 Zn 0.67365 1.01556 0.73645 0.0
N520 N 0.7063 0.88491 0.68835 0.0
C521 C 0.72021 0.81322 0.70297 0.0
C522 C 0.71733 0.86015 0.70442 0.0
C523 C 0.69758 0.86475 0.67083 0.0
N524 N 0.71171 0.79297 0.68551 0.0
C525 C 0.70015 0.81726 0.6693 0.0
O526 O 0.74238 1.00368 0.73416 0.0
C527 C 0.77089 0.98734 0.722 0.0
O528 O 0.75778 0.96806 0.70636 0.0
H529 H 0.72358 0.8769 0.71826 0.0
H530 H 0.68925 0.88566 0.65834 0.0
C531 C 0.63887 0.10716 0.73419 0.0
C532 C 0.63708 0.15081 0.72597 0.0
C533 C 0.68946 0.12769 0.7015 0.0
C534 C 0.69089 0.08454 0.70962 0.0
N535 N 0.66597 0.07527 0.72584 0.0
N536 N 0.66275 0.15973 0.70985 0.0
H537 H 0.61973 0.09867 0.74719 0.0
C538 C 0.72615 1.01118 0.66066 0.0
O539 O 0.75799 0.02434 0.67282 0.0
O540 O 0.66128 1.01547 0.76531 0.0
H541 H 0.71208 0.05862 0.70323 0.0
H542 H 0.72908 0.79298 0.71561 0.0
H543 H 0.70937 0.1357 0.68866 0.0
H544 H 0.25904 0.32113 0.14748 0.0
H545 H 0.13164 0.19365 0.06259 0.0
H546 H 0.12837 0.26106 0.1582 0.0
H547 H 0.27702 0.19618 0.06719 0.0
H548 H 0.12644 0.2215 0.09659 0.0
H549 H 0.26363 0.27979 0.1165 0.0
C550 C 0.23129 0.29927 0.14325 0.0
C551 C 0.19316 0.29462 0.15527 0.0
C552 C 0.15939 0.21435 0.09033 0.0
C553 C 0.19804 0.24743 0.1199 0.0
C554 C 0.16229 0.19824 0.07107 0.0
C555 C 0.20478 0.19092 0.06254 0.0
C556 C 0.1993 0.22433 0.10069 0.0
C557 C 0.24368 0.19973 0.07362 0.0
C558 C 0.23405 0.27542 0.12568 0.0
C559 C 0.15835 0.2654 0.14927 0.0
N560 N 0.24006 0.21628 0.09208 0.0
N561 N 0.1613 0.24326 0.13183 0.0
H562 H 0.56056 0.48305 0.41294 0.0
H563 H 0.57413 0.37994 0.30477 0.0
H564 H 0.46127 0.3887 0.39093 0.0
H565 H 0.6168 0.51456 0.32001 0.0
H566 H 0.54999 0.36814 0.33902 0.0
H567 H 0.59991 0.47935 0.38149 0.0
C568 C 0.54726 0.46118 0.40157 0.0
C569 C 0.50698 0.43695 0.40443 0.0
C570 C 0.56608 0.39967 0.33492 0.0
C571 C 0.55223 0.43219 0.36853 0.0
C572 C 0.58007 0.40624 0.31554 0.0
C573 C 0.59966 0.44745 0.30998 0.0
C574 C 0.57165 0.43478 0.34862 0.0
C575 C 0.60494 0.4813 0.32411 0.0
C576 C 0.56971 0.45917 0.38364 0.0
C577 C 0.49151 0.40892 0.38919 0.0
N578 N 0.59114 0.47425 0.3428 0.0
N579 N 0.51407 0.40746 0.37181 0.0
H580 H 0.28647 0.87107 0.56899 0.0
H581 H 0.40571 0.70111 0.64063 0.0
H582 H 0.41526 0.81149 0.55441 0.0
H583 H 0.31385 0.80494 0.66097 0.0
H584 H 0.41071 0.73998 0.60904 0.0
H585 H 0.2963 0.84689 0.60288 0.0
C586 C 0.31789 0.85479 0.57322 0.0
C587 C 0.35113 0.84514 0.55925 0.0
C588 C 0.3899 0.75444 0.62052 0.0
C589 C 0.36152 0.81485 0.59768 0.0
C590 C 0.3866 0.73203 0.63849 0.0
C591 C 0.35845 0.74927 0.65334 0.0
C592 C 0.36437 0.79391 0.61733 0.0
C593 C 0.33562 0.79022 0.6499 0.0
C594 C 0.32324 0.84038 0.59248 0.0
C595 C 0.38959 0.82066 0.56503 0.0
N596 N 0.33851 0.81074 0.63217 0.0
N597 N 0.39367 0.80596 0.58385 0.0
H598 H 0.09393 0.6461 0.89074 0.0
H599 H 0.91908 0.52966 0.82075 0.0
H600 H 0.99119 0.55523 0.91241 0.0
H601 H 0.98014 0.65737 0.80605 0.0
H602 H 0.94425 0.53893 0.85459 0.0
H603 H 0.05314 0.65147 0.85973 0.0
C604 C 0.06284 0.62729 0.88902 0.0
C605 C 0.04645 0.59948 0.90411 0.0
C606 C 0.95088 0.56575 0.84417 0.0
C607 C 0.99949 0.60565 0.86864 0.0
C608 C 0.93592 0.56074 0.82496 0.0
C609 C 0.94587 0.59379 0.81096 0.0
C610 C 0.97726 0.60344 0.84924 0.0
C611 C 0.97079 0.63186 0.81668 0.0
C612 C 0.0393 0.63076 0.87136 0.0
C613 C 1.00528 0.5768 0.90114 0.0
N614 N 0.98609 0.63553 0.83542 0.0
N615 N 0.98358 0.57981 0.88364 0.0
H616 H 0.92612 0.78545 0.82791 0.0
H617 H 0.77012 0.85262 0.91871 0.0
H618 H 0.79465 0.72765 0.83919 0.0
H619 H 0.91546 0.85369 0.92362 0.0
H620 H 0.7768 0.82563 0.88502 0.0
H621 H 0.92109 0.82697 0.85916 0.0
C622 C 0.89619 0.78168 0.83694 0.0
C623 C 0.86094 0.75277 0.83114 0.0
C624 C 0.80731 0.83273 0.89328 0.0
C625 C 0.85461 0.80062 0.86636 0.0
C626 C 0.80352 0.84893 0.91233 0.0
C627 C 0.84234 0.85721 0.92353 0.0
C628 C 0.85032 0.8238 0.88547 0.0
C629 C 0.88485 0.84911 0.91512 0.0
C630 C 0.89344 0.80521 0.8547 0.0
C631 C 0.82287 0.74902 0.84328 0.0
N632 N 0.88781 0.8327 0.89649 0.0
N633 N 0.82062 0.77285 0.86026 0.0
H634 H 0.41855 0.53528 0.66469 0.0
H635 H 0.58939 0.65132 0.59234 0.0
H636 H 0.47778 0.66463 0.67809 0.0
H637 H 0.48814 0.55603 0.57286 0.0
H638 H 0.54972 0.65778 0.62372 0.0
H639 H 0.44335 0.54302 0.63079 0.0
C640 C 0.43466 0.56648 0.66017 0.0
C641 C 0.44398 0.60049 0.67382 0.0
C642 C 0.53602 0.63584 0.61248 0.0
C643 C 0.47542 0.60832 0.63542 0.0
C644 C 0.55891 0.63171 0.59464 0.0
C645 C 0.54261 0.60224 0.58009 0.0
C646 C 0.49701 0.60987 0.61586 0.0
C647 C 0.50216 0.57883 0.5837 0.0
C648 C 0.44959 0.57057 0.64091 0.0
C649 C 0.4687 0.63842 0.66771 0.0
N650 N 0.48115 0.58262 0.60131 0.0
N651 N 0.48398 0.64122 0.64894 0.0
H652 H 0.77521 0.19416 0.41836 0.0
H653 H 0.62023 0.26353 0.32771 0.0
H654 H 0.6299 0.19519 0.42353 0.0
H655 H 0.75183 0.32048 0.33952 0.0
H656 H 0.62447 0.22183 0.35893 0.0
H657 H 0.76856 0.2213 0.38472 0.0
C658 C 0.7418 0.19842 0.41205 0.0
C659 C 0.70298 0.19073 0.42329 0.0
C660 C 0.6523 0.24345 0.35458 0.0
C661 C 0.69508 0.22423 0.38533 0.0
C662 C 0.64999 0.26708 0.33686 0.0
C663 C 0.68558 0.2957 0.33124 0.0
C664 C 0.69103 0.2477 0.36634 0.0
C665 C 0.72343 0.29926 0.3435 0.0
C666 C 0.73804 0.21466 0.39303 0.0
C667 C 0.66047 0.19937 0.41498 0.0
N668 N 0.72527 0.27533 0.36043 0.0
N669 N 0.65754 0.21585 0.39638 0.0
H670 H 0.97049 0.5135 0.08853 0.0
H671 H 0.09985 0.38806 0.17314 0.0
H672 H 0.0308 0.38267 0.07778 0.0
H673 H 0.09788 0.53337 0.16792 0.0
H674 H 0.07371 0.38209 0.13893 0.0
H675 H 1.01334 0.51888 0.11908 0.0
C676 C 0.99265 0.48583 0.09268 0.0
C677 C 0.99689 0.44742 0.08079 0.0
C678 C 0.08013 0.41521 0.14515 0.0
C679 C 0.04596 0.45328 0.11565 0.0
C680 C 0.09535 0.41853 0.16453 0.0
C681 C 0.10159 0.46122 0.17301 0.0
C682 C 0.0697 0.45492 0.1347 0.0
C683 C 0.09386 0.49989 0.16166 0.0
C684 C 1.01743 0.48908 0.10999 0.0
C685 C 0.02666 0.41282 0.08664 0.0
N686 N 0.07762 0.49588 0.14317 0.0
N687 N 0.04969 0.41623 0.10385 0.0
H688 H 0.64416 0.84076 0.63824 0.0
H689 H 0.75473 0.66577 0.56603 0.0
H690 H 0.73798 0.73769 0.65764 0.0
H691 H 0.62433 0.7244 0.55357 0.0
H692 H 0.74925 0.69282 0.59965 0.0
H693 H 0.63625 0.8007 0.60704 0.0
C694 C 0.66317 0.80986 0.63599 0.0
C695 C 0.69251 0.79308 0.65052 0.0
C696 C 0.72098 0.69844 0.58983 0.0
C697 C 0.6832 0.74701 0.61491 0.0
C698 C 0.72376 0.68222 0.57074 0.0
C699 C 0.68876 0.69062 0.55743 0.0
C700 C 0.68353 0.72464 0.59551 0.0
C701 C 0.65123 0.71593 0.56371 0.0
C702 C 0.65818 0.78674 0.61825 0.0
C703 C 0.71524 0.75213 0.64687 0.0
N704 N 0.64968 0.73244 0.58233 0.0
N705 N 0.71058 0.73088 0.62936 0.0
H706 H 0.06377 0.88316 0.8059 0.0
H707 H 0.05143 0.99578 0.91239 0.0
H708 H 0.12201 1.01247 0.82027 0.0
H709 H 0.95129 0.90198 0.89068 0.0
H710 H 0.09262 0.98836 0.88148 0.0
H711 H 0.03751 0.87588 0.84 0.0
C712 C 0.07248 0.9091 0.81648 0.0
C713 C 0.09659 0.94759 0.81066 0.0
C714 C 0.06178 0.96918 0.88358 0.0
C715 C 0.06578 0.94039 0.84913 0.0
C716 C 0.03824 0.97336 0.90119 0.0
C717 C 0.99728 0.95023 0.90399 0.0
C718 C 0.04466 0.94111 0.86875 0.0
C719 C 0.98202 0.92138 0.889 0.0
C720 C 0.0572 0.9052 0.83578 0.0
C721 C 0.10551 0.98129 0.82453 0.0
N722 N 1.00565 0.91776 0.87198 0.0
N723 N 0.08999 0.97701 0.84314 0.0
H724 H 0.89757 0.20512 0.13961 0.0
H725 H 0.77494 0.37828 0.0718 0.0
H726 H 0.8074 0.30714 0.16285 0.0
H727 H 0.90589 0.32587 0.05608 0.0
H728 H 0.78716 0.35431 0.10551 0.0
H729 H 0.90192 0.24782 0.10891 0.0
C730 C 0.8787 0.23642 0.13828 0.0
C731 C 0.8513 0.25211 0.1537 0.0
C732 C 0.81406 0.3494 0.09493 0.0
C733 C 0.85646 0.30114 0.11873 0.0
C734 C 0.8075 0.36429 0.0758 0.0
C735 C 0.84066 0.35675 0.06156 0.0
C736 C 0.85308 0.3244 0.09958 0.0
C737 C 0.88024 0.33359 0.06693 0.0
C738 C 0.88165 0.26104 0.12084 0.0
C739 C 0.82864 0.29358 0.15131 0.0
N740 N 0.88518 0.31759 0.08551 0.0
N741 N 0.83114 0.31626 0.13406 0.0
H742 H 0.48956 0.05745 0.41248 0.0
H743 H 0.47041 0.16889 0.30607 0.0
H744 H 0.59083 0.14811 0.38938 0.0
H745 H 0.41867 0.03725 0.32054 0.0
H746 H 0.49927 0.17621 0.3398 0.0
H747 H 0.447 0.06484 0.38192 0.0
C748 C 0.50274 0.07916 0.40105 0.0
C749 C 0.54433 0.10144 0.40336 0.0
C750 C 0.47998 0.1465 0.33574 0.0
C751 C 0.49537 0.11055 0.36851 0.0
C752 C 0.46315 0.14256 0.31665 0.0
C753 C 0.43952 0.10356 0.31099 0.0
C754 C 0.47312 0.11102 0.3491 0.0
C755 C 0.43299 0.06934 0.32484 0.0
C756 C 0.47842 0.08332 0.38363 0.0
C757 C 0.55955 0.12938 0.38806 0.0
N758 N 0.44959 0.07382 0.34326 0.0
N759 N 0.53511 0.13306 0.37123 0.0
H760 H 0.3088 0.30712 0.32346 0.0
H761 H 0.4231 0.31461 0.4296 0.0
H762 H 0.40112 0.20391 0.34398 0.0
H763 H 0.29241 0.37135 0.41609 0.0
H764 H 0.42995 0.28918 0.39531 0.0
H765 H 0.31785 0.34701 0.35456 0.0
C766 C 0.3313 0.293 0.33442 0.0
C767 C 0.3534 0.25152 0.33126 0.0
C768 C 0.40045 0.30844 0.39978 0.0
C769 C 0.36421 0.2973 0.36677 0.0
C770 C 0.39677 0.32323 0.41919 0.0
C771 C 0.35814 0.34701 0.42527 0.0
C772 C 0.36499 0.3173 0.3866 0.0
C773 C 0.3239 0.35562 0.41161 0.0
C774 C 0.33636 0.31578 0.35216 0.0
C775 C 0.38242 0.23508 0.34597 0.0
N776 N 0.32807 0.34076 0.39291 0.0
N777 N 0.38681 0.25793 0.36316 0.0
H778 H 0.96591 0.16708 0.17735 0.0
H779 H 0.98972 0.05313 0.07156 0.0
H780 H 0.92162 0.03193 0.16412 0.0
H781 H 0.08852 0.14642 0.09468 0.0
H782 H 0.94678 0.05979 0.1021 0.0
H783 H 0.99394 0.17433 0.14347 0.0
C784 C 0.96013 0.13983 0.16702 0.0
C785 C 0.93892 0.0998 0.17306 0.0
C786 C 0.97771 0.07906 0.10036 0.0
C787 C 0.97158 0.10724 0.13483 0.0
C788 C 1.00224 0.0753 0.08298 0.0
C789 C 0.04327 0.09861 0.08069 0.0
C790 C 0.99383 0.10701 0.11544 0.0
C791 C 0.05767 0.12707 0.09596 0.0
C792 C 0.97646 0.14376 0.14785 0.0
C793 C 0.93423 0.06453 0.15953 0.0
N794 N 0.03301 0.13043 0.11273 0.0
N795 N 0.95033 0.06903 0.14103 0.0
H796 H 0.12683 0.70495 0.9269 0.0
H797 H 0.25437 0.81235 0.83778 0.0
H798 H 0.26902 0.68131 0.9172 0.0
H799 H 0.11772 0.76428 0.83009 0.0
H800 H 0.25861 0.77151 0.86897 0.0
H801 H 0.1199 0.73245 0.89294 0.0
C802 C 0.15615 0.70421 0.91736 0.0
C803 C 0.19823 0.68974 0.92446 0.0
C804 C 0.22778 0.76972 0.86039 0.0
C805 C 0.19121 0.72285 0.88636 0.0
C806 C 0.22526 0.79325 0.84273 0.0
C807 C 0.18559 0.79169 0.83151 0.0
C808 C 0.19 0.74543 0.86707 0.0
C809 C 0.1489 0.76612 0.83841 0.0
C810 C 0.15231 0.7201 0.89813 0.0
C811 C 0.23576 0.69102 0.91195 0.0
N812 N 0.1517 0.7444 0.85594 0.0
N813 N 0.23154 0.70791 0.89356 0.0
H814 H 0.5276 0.85892 0.5794 0.0
H815 H 0.6069 1.00498 0.67079 0.0
H816 H 0.47776 0.99355 0.59122 0.0
H817 H 0.58398 0.86179 0.67733 0.0
H818 H 0.57824 1.0008 0.63721 0.0
H819 H 0.56556 0.85887 0.6116 0.0
C820 C 0.52486 0.88843 0.58877 0.0
C821 C 0.49939 0.9262 0.58284 0.0
C822 C 0.58033 0.97012 0.64586 0.0
C823 C 0.54319 0.92673 0.61905 0.0
C824 C 0.59723 0.97235 0.66484 0.0
C825 C 0.59879 0.93342 0.67649 0.0
C826 C 0.56529 0.92856 0.63841 0.0
C827 C 0.58412 0.89225 0.66852 0.0
C828 C 0.54629 0.88829 0.60705 0.0
C829 C 0.49669 0.96363 0.5954 0.0
N830 N 0.56802 0.89076 0.64982 0.0
N831 N 0.51864 0.9631 0.61286 0.0
H832 H 0.29514 0.9737 0.98658 0.0
H833 H 0.19358 0.7291 0.00667 0.0
H834 H 0.20051 0.94785 0.03338 0.0
H835 H 0.31058 0.75205 0.97056 0.0
H836 H 0.20022 0.80647 0.01945 0.0
H837 H 0.30343 0.8919 0.98175 0.0
C838 C 0.27596 0.95093 -0.00419 0.0
C839 C 0.2468 0.96805 0.01032 0.0
C840 C 0.22547 0.79418 0.00924 0.0
C841 C 0.25639 0.87368 0.00493 0.0
C842 C 0.22232 0.7495 0.0023 0.0
C843 C 0.25204 0.73369 0.98777 0.0
C844 C 0.25815 0.82359 0.0013 0.0
C845 C 0.28748 0.76249 0.98204 0.0
C846 C 0.28104 0.90407 -0.00683 0.0
C847 C 0.22328 0.93648 0.02196 0.0
N848 N 0.28891 0.80622 0.98841 0.0
N849 N 0.22827 0.89106 0.0189 0.0
H850 H 0.03901 0.56927 0.22305 0.0
H851 H 0.84182 0.43774 0.28 0.0
H852 H 0.06159 0.44457 0.25404 0.0
H853 H 0.81913 0.544 0.23775 0.0
H854 H 0.92371 0.44784 0.27605 0.0
H855 H 0.96148 0.57153 0.2356 0.0
C856 C 0.02852 0.54378 0.23352 0.0
C857 C 0.05719 0.50705 0.23772 0.0
C858 C 0.90081 0.469 0.26768 0.0
C859 C 0.96717 0.50771 0.2512 0.0
C860 C 0.85394 0.46311 0.26983 0.0
C861 C 0.82317 0.48968 0.25902 0.0
C862 C 0.91743 0.50216 0.25481 0.0
C863 C 0.84126 0.52225 0.24621 0.0
C864 C 0.98371 0.54435 0.24022 0.0
C865 C 0.041 0.47397 0.25072 0.0
N866 N 0.88698 0.52755 0.24449 0.0
N867 N 0.99683 0.4745 0.25665 0.0
H868 H 0.36065 0.3085 0.50664 0.0
H869 H 0.25619 0.0648 0.48658 0.0
H870 H 0.2417 0.28683 0.47155 0.0
H871 H 0.35762 0.0888 0.53089 0.0
H872 H 0.24777 0.14669 0.48242 0.0
H873 H 0.35476 0.23078 0.51893 0.0
C874 C 0.33167 0.28826 0.50241 0.0
C875 C 0.30126 0.30452 0.48825 0.0
C876 C 0.27175 0.13411 0.49312 0.0
C877 C 0.29593 0.21423 0.50121 0.0
C878 C 0.27693 0.08718 0.49537 0.0
C879 C 0.30802 0.06949 0.50899 0.0
C880 C 0.2981 0.16402 0.50441 0.0
C881 C 0.33341 0.1006 0.52012 0.0
C882 C 0.32895 0.24337 0.50905 0.0
C883 C 0.26543 0.276 0.48272 0.0
N884 N 0.32815 0.14611 0.51748 0.0
N885 N 0.2644 0.23203 0.48878 0.0
H886 H 0.70355 0.60964 0.7813 0.0
H887 H 0.50426 0.48586 0.72218 0.0
H888 H 0.72524 0.5054 0.73797 0.0
H889 H 0.48468 0.60933 0.75452 0.0
H890 H 0.58184 0.48115 0.73471 0.0
H891 H 0.62163 0.60129 0.77691 0.0
C892 C 0.69122 0.58502 0.77082 0.0
C893 C 0.72174 0.55855 0.75984 0.0
C894 C 0.56021 0.50856 0.73962 0.0
C895 C 0.62732 0.54814 0.75505 0.0
C896 C 0.51538 0.51055 0.73289 0.0
C897 C 0.48754 0.54764 0.73755 0.0
C898 C 0.57753 0.54406 0.75111 0.0
C899 C 0.50458 0.57967 0.75086 0.0
C900 C 0.6443 0.58014 0.7684 0.0
C901 C 0.70331 0.52701 0.7466 0.0
N902 N 0.54864 0.57766 0.75687 0.0
N903 N 0.65752 0.52271 0.7446 0.0
H904 H 0.8426 0.31968 0.98007 0.0
H905 H 0.74546 0.0731 -0.00093 0.0
H906 H 0.72377 0.29403 0.01469 0.0
H907 H 0.84111 0.10082 0.95286 0.0
H908 H 0.73533 0.15468 0.00381 0.0
H909 H 0.83833 0.24231 0.96708 0.0
C910 C 0.81397 0.29869 0.98404 0.0
C911 C 0.7831 0.31369 -0.00172 0.0
C912 C 0.75838 0.14298 -0.00745 0.0
C913 C 0.77965 0.22388 0.98452 0.0
C914 C 0.76453 0.09625 0.98996 0.0
C915 C 0.79449 0.07973 0.97564 0.0
C916 C 0.78274 0.17385 0.98093 0.0
C917 C 0.81777 0.11176 0.96415 0.0
C918 C 0.81218 0.25401 0.97699 0.0
C919 C 0.74781 0.28419 0.00347 0.0
N920 N 0.81173 0.15707 0.96715 0.0
N921 N 0.74769 0.24051 -0.00298 0.0
H922 H 0.98158 0.59791 0.72947 0.0
H923 H 0.22819 0.49941 0.74856 0.0
H924 H 1.00666 0.47751 0.76318 0.0
H925 H 0.20079 0.59738 0.7032 0.0
H926 H 0.14649 0.48916 0.75295 0.0
H927 H 0.05916 0.59394 0.71675 0.0
C928 C 1.00249 0.56903 0.73327 0.0
C929 C 0.98727 0.53769 0.74725 0.0
C930 C 0.1583 0.51275 0.74195 0.0
C931 C 0.07739 0.53452 0.7338 0.0
C932 C 0.20509 0.51897 0.73957 0.0
C933 C 0.22174 0.54961 0.72559 0.0
C934 C 0.12752 0.53771 0.73045 0.0
C935 C 0.18978 0.57351 0.71423 0.0
C936 C 0.04732 0.5674 0.7264 0.0
C937 C 1.01669 0.502 0.7522 0.0
N938 N 0.14444 0.56736 0.71702 0.0
N939 N 0.06053 0.50205 0.74595 0.0
H940 H 0.69728 0.94899 0.45021 0.0
H941 H 0.80612 0.74546 0.51218 0.0
H942 H 0.7927 0.9682 0.49736 0.0
H943 H 0.688 0.73072 0.47589 0.0
H944 H 0.81482 0.82334 0.5004 0.0
H945 H 0.70405 0.86703 0.45438 0.0
C946 C 0.71973 0.93609 0.46146 0.0
C947 C 0.74413 0.96597 0.47357 0.0
C948 C 0.78784 0.80266 0.49448 0.0
C949 C 0.75261 0.87131 0.47818 0.0
C950 C 0.78361 0.75766 0.50079 0.0
C951 C 0.7467 0.73109 0.49478 0.0
C952 C 0.75489 0.82134 0.48199 0.0
C953 C 0.7175 0.74952 0.48062 0.0
C954 C 0.72366 0.88911 0.46377 0.0
C955 C 0.77279 0.94677 0.48781 0.0
N956 N 0.72169 0.79363 0.47498 0.0
N957 N 0.7762 0.90083 0.48971 0.0
H958 H 0.31727 0.54459 0.24797 0.0
H959 H 0.56307 0.44515 0.22854 0.0
H960 H 0.34387 0.4468 0.20239 0.0
H961 H 0.53845 0.56464 0.26297 0.0
H962 H 0.48568 0.44991 0.21573 0.0
H963 H 0.39892 0.55456 0.25227 0.0
C964 C 0.3402 0.52501 0.23891 0.0
C965 C 0.32331 0.49446 0.22491 0.0
C966 C 0.49761 0.47614 0.22554 0.0
C967 C 0.41758 0.50606 0.22968 0.0
C968 C 0.54236 0.47409 0.23247 0.0
C969 C 0.55772 0.50504 0.2466 0.0
C970 C 0.46769 0.50897 0.23308 0.0
C971 C 0.52842 0.54063 0.25179 0.0
C972 C 0.38698 0.53107 0.24124 0.0
C973 C 0.35507 0.47057 0.21345 0.0
N974 N 0.48462 0.54097 0.24547 0.0
N975 N 0.40046 0.47655 0.2162 0.0
H976 H 0.79512 0.47137 0.48563 0.0
H977 H 0.69346 0.22675 0.50544 0.0
H978 H 0.69543 0.44618 0.53049 0.0
H979 H 0.81341 0.24931 0.47114 0.0
H980 H 0.6986 0.3044 0.51792 0.0
H981 H 0.80467 0.38948 0.48152 0.0
C982 C 0.77505 0.44873 0.49457 0.0
C983 C 0.7441 0.46606 0.50832 0.0
C984 C 0.7248 0.29201 0.50819 0.0
C985 C 0.75522 0.37162 0.50379 0.0
C986 C 0.7225 0.24713 0.50145 0.0
C987 C 0.75335 0.23119 0.48739 0.0
C988 C 0.75786 0.32141 0.50057 0.0
C989 C 0.78929 0.25992 0.48219 0.0
C990 C 0.78085 0.40183 0.49234 0.0
C991 C 0.71953 0.43465 0.51963 0.0
N992 N 0.78989 0.30386 0.48833 0.0
N993 N 0.72533 0.3892 0.517 0.0
H994 H 0.31717 0.03742 0.73725 0.0
H995 H 0.55807 0.92667 0.75822 0.0
H996 H 0.33915 0.93777 0.78248 0.0
H997 H 0.54041 0.04516 0.72243 0.0
H998 H 0.4805 0.93556 0.77029 0.0
H999 H 0.39936 0.04359 0.73302 0.0
C1000 C 0.33915 1.01669 0.74626 0.0
C1001 C 0.32082 0.98671 0.76014 0.0
C1002 C 0.49392 0.96062 0.7603 0.0
C1003 C 0.41558 0.99395 0.75546 0.0
C1004 C 0.53876 0.95616 0.75377 0.0
C1005 C 0.5562 0.98569 0.73956 0.0
C1006 C 0.46584 0.99435 0.75222 0.0
C1007 C 0.5287 0.02215 0.73368 0.0
C1008 C 0.38623 1.02055 0.74396 0.0
C1009 C 0.35141 0.96119 0.77152 0.0
N1010 N 0.48467 0.02481 0.73962 0.0
N1011 N 0.39701 0.96513 0.76883 0.0
H1012 H 0.85354 0.81798 0.00538 0.0
H1013 H 0.74727 0.57443 0.98673 0.0
H1014 H 0.73311 0.7966 0.97121 0.0
H1015 H 0.84925 0.59892 0.03074 0.0
H1016 H 0.73925 0.65634 0.98224 0.0
H1017 H 0.84763 0.7405 0.01791 0.0
C1018 C 0.82426 0.79791 0.00142 0.0
C1019 C 0.79333 0.81424 0.98748 0.0
C1020 C 0.76326 0.64385 -0.00705 0.0
C1021 C 0.78802 0.72406 0.00067 0.0
C1022 C 0.76819 0.59691 -0.0046 0.0
C1023 C 0.79931 0.57936 0.00903 0.0
C1024 C 0.78991 0.67387 0.00406 0.0
C1025 C 0.82498 0.6106 0.01998 0.0
C1026 C 0.82152 0.75311 0.00819 0.0
C1027 C 0.7572 0.78577 0.98223 0.0
N1028 N 0.81997 0.65608 0.01715 0.0
N1029 N 0.75615 0.74188 0.98841 0.0
H1030 H 0.97717 0.10562 0.25457 0.0
H1031 H 0.22221 1.00351 0.23554 0.0
H1032 H 1.00025 0.98544 0.22038 0.0
H1033 H 0.19576 0.10039 0.28149 0.0
H1034 H 0.14043 0.99484 0.2308 0.0
H1035 H 0.05457 0.1001 0.26733 0.0
C1036 C 0.99759 0.07646 0.25066 0.0
C1037 C 0.98178 0.04549 0.23663 0.0
C1038 C 0.15247 1.01785 0.242 0.0
C1039 C 0.07183 0.04068 0.25007 0.0
C1040 C 0.19931 0.02318 0.24458 0.0
C1041 C 0.21625 0.05305 0.25884 0.0
C1042 C 0.12194 0.04292 0.25358 0.0
C1043 C 0.18453 0.0771 0.27026 0.0
C1044 C 0.04232 0.07395 0.25756 0.0
C1045 C 1.01068 1.00956 0.23145 0.0
N1046 N 0.13914 0.07182 0.26727 0.0
N1047 N 0.05451 1.00877 0.23773 0.0
H1048 H 0.35136 0.80902 0.47743 0.0
H1049 H 0.25187 0.56387 0.49808 0.0
H1050 H 0.23372 0.78582 0.51311 0.0
H1051 H 0.35028 0.58989 0.45277 0.0
H1052 H 0.24173 0.6457 0.50222 0.0
H1053 H 0.34578 0.73147 0.46495 0.0
C1054 C 0.32261 0.78856 0.48172 0.0
C1055 C 0.29254 0.80434 0.49612 0.0
C1056 C 0.26537 0.63354 0.49129 0.0
C1057 C 0.2877 0.71411 0.48297 0.0
C1058 C 0.27151 0.58668 0.48904 0.0
C1059 C 0.3023 0.56961 0.47517 0.0
C1060 C 0.29049 0.66394 0.47973 0.0
C1061 C 0.32631 0.6012 0.46374 0.0
C1062 C 0.32012 0.7437 0.47498 0.0
C1063 C 0.25712 0.77539 0.50174 0.0
N1064 N 0.32018 0.64659 0.46638 0.0
N1065 N 0.25637 0.73146 0.4956 0.0
H1066 H 0.72186 1.00296 0.24884 0.0
H1067 H 0.47746 0.10674 0.22933 0.0
H1068 H 0.69603 0.09972 0.20283 0.0
H1069 H 0.49977 0.98807 0.26451 0.0
H1070 H 0.55483 0.10017 0.21666 0.0
H1071 H 0.64001 0.99503 0.25363 0.0
C1072 C 0.69908 0.02273 0.23979 0.0
C1073 C 0.71623 0.05236 0.2255 0.0
C1074 C 0.54242 0.07453 0.22662 0.0
C1075 C 0.62183 0.0431 0.23083 0.0
C1076 C 0.49769 0.07763 0.23348 0.0
C1077 C 0.48162 0.04736 0.24771 0.0
C1078 C 0.57171 0.0414 0.23437 0.0
C1079 C 0.51034 1.01154 0.25322 0.0
C1080 C 0.6522 1.01784 0.24241 0.0
C1081 C 0.68466 0.07659 0.21409 0.0
N1082 N 0.55417 1.01018 0.24696 0.0
N1083 N 0.63924 0.07172 0.2171 0.0
H1084 H 0.19429 0.22884 0.98009 0.0
H1085 H 0.29598 0.47361 -0.00089 0.0
H1086 H 0.3133 0.25214 0.01495 0.0
H1087 H 0.20115 0.44712 0.95242 0.0
H1088 H 0.30455 0.39187 0.00399 0.0
H1089 H 0.20042 0.30598 0.96704 0.0
C1090 C 0.2233 0.24925 0.98412 0.0
C1091 C 0.25371 0.23366 -0.00157 0.0
C1092 C 0.28205 0.40388 -0.00741 0.0
C1093 C 0.25931 0.32328 0.98458 0.0
C1094 C 0.27681 0.4507 0.98991 0.0
C1095 C 0.24751 0.46763 0.97542 0.0
C1096 C 0.2574 0.37333 0.98089 0.0
C1097 C 0.22403 0.43589 0.96382 0.0
C1098 C 0.22619 0.29381 0.97703 0.0
C1099 C 0.28956 0.26245 0.0037 0.0
N1100 N 0.22914 0.39051 0.96692 0.0
N1101 N 0.29073 0.30607 -0.0028 0.0
H1102 H 0.06076 0.94461 0.72871 0.0
H1103 H 0.81427 0.04231 0.74875 0.0
H1104 H 0.03562 0.063 0.76378 0.0
H1105 H 0.84159 0.94622 0.70258 0.0
H1106 H 0.89596 0.05255 0.75314 0.0
H1107 H 0.98321 0.94939 0.71597 0.0
C1108 C 0.03985 0.97328 0.73282 0.0
C1109 C 0.05505 1.00383 0.74714 0.0
C1110 C 0.88413 0.02939 0.74196 0.0
C1111 C 0.965 1.00786 0.73365 0.0
C1112 C 0.83735 0.0232 0.73957 0.0
C1113 C 0.82068 0.99304 0.72537 0.0
C1114 C 0.91489 1.0049 0.73026 0.0
C1115 C 0.85261 0.96969 0.71378 0.0
C1116 C 0.99505 0.97536 0.72592 0.0
C1117 C 0.02563 0.03921 0.7525 0.0
N1118 N 0.89795 0.97579 0.71659 0.0
N1119 N 0.98183 0.03959 0.7462 0.0
H1120 H 0.27881 0.14611 0.93346 0.0
H1121 H 0.1815 0.97314 0.8556 0.0
H1122 H 0.16038 0.06411 0.944 0.0
H1123 H 0.258 0.09051 0.8377 0.0
H1124 H 0.1785 1.00318 0.88882 0.0
H1125 H 0.27565 0.12491 0.89874 0.0
C1126 C 0.25183 0.12418 0.92844 0.0
C1127 C 0.22004 0.10655 0.94168 0.0
C1128 C 0.19566 0.02253 0.8776 0.0
C1129 C 0.21682 0.08164 0.9022 0.0
C1130 C 0.19756 1.00533 0.85862 0.0
C1131 C 0.2198 0.02949 0.84378 0.0
C1132 C 0.21686 0.06383 0.88193 0.0
C1133 C 0.2404 0.07082 0.84867 0.0
C1134 C 0.25009 0.1121 0.90865 0.0
C1135 C 0.18573 0.07838 0.93437 0.0
N1136 N 0.23871 0.08659 0.86739 0.0
N1137 N 0.18542 0.0663 0.91518 0.0
H1138 H 0.80451 0.51344 0.10279 0.0
H1139 H 0.64071 0.41823 0.18341 0.0
H1140 H 0.68915 0.43316 0.08568 0.0
H1141 H 0.69844 0.55209 0.18771 0.0
H1142 H 0.66313 0.41571 0.14873 0.0
H1143 H 0.77264 0.52014 0.13579 0.0
C1144 C 0.77245 0.4973 0.106 0.0
C1145 C 0.74923 0.47298 0.09153 0.0
C1146 C 0.67024 0.44576 0.15729 0.0
C1147 C 0.71311 0.47984 0.12919 0.0
C1148 C 0.65752 0.44724 0.17702 0.0
C1149 C 0.66785 0.48534 0.18847 0.0
C1150 C 0.69439 0.48214 0.14922 0.0
C1151 C 0.68971 0.52203 0.17946 0.0
C1152 C 0.75422 0.50131 0.12475 0.0
C1153 C 0.70782 0.45261 0.09643 0.0
N1154 N 0.70293 0.5192 0.16046 0.0
N1155 N 0.69123 0.45603 0.11497 0.0
H1156 H 0.28423 0.05558 0.35352 0.0
H1157 H 0.37984 0.8894 0.43351 0.0
H1158 H 0.36782 0.94236 0.33626 0.0
H1159 H 0.24556 0.94681 0.43765 0.0
H1160 H 0.38306 0.91331 0.39904 0.0
H1161 H 0.27721 0.02254 0.38627 0.0
C1162 C 0.30109 0.02377 0.35665 0.0
C1163 C 0.32646 1.00152 0.3422 0.0
C1164 C 0.35276 0.92003 0.40751 0.0
C1165 C 0.31909 0.96401 0.37958 0.0
C1166 C 0.35088 0.90646 0.42712 0.0
C1167 C 0.31245 0.91626 0.43848 0.0
C1168 C 0.31644 0.94448 0.39946 0.0
C1169 C 0.27586 0.93847 0.42947 0.0
C1170 C 0.29687 1.00486 0.37526 0.0
C1171 C 0.34765 0.96036 0.34699 0.0
N1172 N 0.27906 0.95249 0.41059 0.0
N1173 N 0.34392 0.94308 0.36539 0.0
H1174 H 0.83962 0.52027 0.58701 0.0
H1175 H 0.81845 0.63631 0.69236 0.0
H1176 H 0.72903 0.60763 0.60409 0.0
H1177 H 0.89487 0.51342 0.68281 0.0
H1178 H 0.79733 0.63656 0.6578 0.0
H1179 H 0.87037 0.52618 0.62027 0.0
C1180 C 0.82189 0.54082 0.5977 0.0
C1181 C 0.78182 0.56378 0.5927 0.0
C1182 C 0.81904 0.60975 0.66325 0.0
C1183 C 0.8172 0.57115 0.63058 0.0
C1184 C 0.8314 0.60973 0.68295 0.0
C1185 C 0.85808 0.57448 0.69055 0.0
C1186 C 0.83376 0.57453 0.65099 0.0
C1187 C 0.87391 0.54102 0.6776 0.0
C1188 C 0.83952 0.54421 0.61664 0.0
C1189 C 0.76032 0.5899 0.60717 0.0
N1190 N 0.8613 0.54171 0.65844 0.0
N1191 N 0.77836 0.59301 0.62541 0.0
H1192 H 0.74046 0.94603 0.0472 0.0
H1193 H 0.87394 0.94465 0.14822 0.0
H1194 H 0.87912 0.89964 0.05009 0.0
H1195 H 0.78086 0.05093 0.13188 0.0
H1196 H 0.86685 0.91248 0.11511 0.0
H1197 H 0.74469 0.96766 0.08166 0.0
C1198 C 0.77157 0.93959 0.05515 0.0
C1199 C 0.80971 0.92138 0.04569 0.0
C1200 C 0.84791 0.9427 0.11889 0.0
C1201 C 0.81447 0.946 0.08512 0.0
C1202 C 0.85176 0.96093 0.13771 0.0
C1203 C 0.82793 1.00047 0.14269 0.0
C1204 C 0.81911 0.96355 0.10526 0.0
C1205 C 0.79993 1.02052 0.12856 0.0
C1206 C 0.77398 0.95228 0.07477 0.0
C1207 C 0.84909 0.91392 0.05679 0.0
N1208 N 0.79601 1.00163 0.1105 0.0
N1209 N 0.85054 0.92638 0.07598 0.0
H1210 H 0.32329 0.64068 0.79091 0.0
H1211 H 0.35094 0.53548 0.89799 0.0
H1212 H 0.40116 0.51934 0.80185 0.0
H1213 H 0.23675 0.61702 0.87996 0.0
H1214 H 0.381 0.53986 0.86455 0.0
H1215 H 0.30416 0.64423 0.82566 0.0
C1216 C 0.33699 0.61515 0.80065 0.0
C1217 C 0.36343 0.57931 0.79342 0.0
C1218 C 0.34951 0.55694 0.86802 0.0
C1219 C 0.34147 0.58321 0.83318 0.0
C1220 C 0.33233 0.55449 0.88705 0.0
C1221 C 0.29123 0.57588 0.89176 0.0
C1222 C 0.32576 0.58154 0.85373 0.0
C1223 C 0.26856 0.60006 0.87702 0.0
C1224 C 0.32578 0.61708 0.82046 0.0
C1225 C 0.3803 0.5473 0.80678 0.0
N1226 N 0.28619 0.60233 0.85869 0.0
N1227 N 0.36881 0.54984 0.82604 0.0
H1228 H 0.66728 0.98883 0.63132 0.0
H1229 H 0.78684 0.14055 0.55065 0.0
H1230 H 0.77704 0.0798 0.64499 0.0
H1231 H 0.65692 0.07666 0.5421 0.0
H1232 H 0.78324 0.12098 0.58543 0.0
H1233 H 0.66252 0.02175 0.59867 0.0
C1234 C 0.69002 1.01611 0.62755 0.0
C1235 C 0.72242 0.0317 0.64097 0.0
C1236 C 0.75527 0.11178 0.57598 0.0
C1237 C 0.71784 0.06905 0.60339 0.0
C1238 C 0.75727 0.12299 0.55613 0.0
C1239 C 0.72238 0.10974 0.5434 0.0
C1240 C 0.71837 0.08673 0.58307 0.0
C1241 C 0.68477 0.08727 0.55133 0.0
C1242 C 0.68737 0.03488 0.60886 0.0
C1243 C 0.75161 0.06664 0.6351 0.0
N1244 N 0.68406 0.07593 0.57059 0.0
N1245 N 0.74887 0.0839 0.61668 0.0
H1246 H 0.20485 0.51125 0.39833 0.0
H1247 H 0.22809 0.40533 0.29111 0.0
H1248 H 0.31785 0.42888 0.37958 0.0
H1249 H 0.1484 0.52505 0.30295 0.0
H1250 H 0.24934 0.40223 0.32564 0.0
H1251 H 0.17353 0.50681 0.36513 0.0
C1252 C 0.22299 0.49211 0.38728 0.0
C1253 C 0.264 0.4703 0.39176 0.0
C1254 C 0.22687 0.42893 0.32069 0.0
C1255 C 0.22801 0.46457 0.35397 0.0
C1256 C 0.21444 0.43057 0.30101 0.0
C1257 C 0.18685 0.46585 0.29408 0.0
C1258 C 0.21127 0.46253 0.33358 0.0
C1259 C 0.17011 0.49753 0.30764 0.0
C1260 C 0.20505 0.48957 0.36838 0.0
C1261 C 0.28601 0.44595 0.37686 0.0
N1262 N 0.18282 0.49529 0.32676 0.0
N1263 N 0.26767 0.44363 0.35866 0.0
H1264 H 0.67103 0.60156 0.33514 0.0
H1265 H 0.80198 0.59115 0.43683 0.0
H1266 H 0.75633 0.48916 0.35177 0.0
H1267 H 0.66844 0.65026 0.43266 0.0
H1268 H 0.79681 0.5685 0.40248 0.0
H1269 H 0.68002 0.63334 0.3682 0.0
C1270 C 0.6919 0.5838 0.3457 0.0
C1271 C 0.71298 0.54268 0.34079 0.0
C1272 C 0.76889 0.58684 0.40907 0.0
C1273 C 0.72394 0.57914 0.37824 0.0
C1274 C 0.77188 0.60013 0.42861 0.0
C1275 C 0.73538 0.62235 0.43767 0.0
C1276 C 0.72951 0.59654 0.39838 0.0
C1277 C 0.69719 0.63289 0.42627 0.0
C1278 C 0.69683 0.60184 0.36451 0.0
C1279 C 0.73937 0.52083 0.35502 0.0
N1280 N 0.69518 0.61983 0.40717 0.0
N1281 N 0.74439 0.5395 0.37307 0.0
H1282 H 0.32262 0.93393 0.60506 0.0
H1283 H 0.145 0.02479 0.68256 0.0
H1284 H 0.20284 1.0069 0.58696 0.0
H1285 H 0.23117 0.90904 0.69315 0.0
H1286 H 0.16693 0.02274 0.64792 0.0
H1287 H 0.2922 0.92943 0.63816 0.0
C1288 C 0.28979 0.94886 0.60801 0.0
C1289 C 0.26501 0.97037 0.59313 0.0
C1290 C 0.18051 0.9975 0.65782 0.0
C1291 C 0.2304 0.96617 0.6312 0.0
C1292 C 0.16801 0.99861 0.67756 0.0
C1293 C 0.18656 0.96726 0.6908 0.0
C1294 C 0.2123 0.96533 0.65141 0.0
C1295 C 0.21614 0.934 0.68352 0.0
C1296 C 0.27243 0.94622 0.62693 0.0
C1297 C 0.22302 0.98985 0.59796 0.0
N1298 N 0.22857 0.93431 0.66438 0.0
N1299 N 0.20711 0.98754 0.61664 0.0
H1300 H 0.8825 0.48338 0.94455 0.0
H1301 H 0.78455 0.45224 0.8365 0.0
H1302 H 0.76457 0.40138 0.93292 0.0
H1303 H 0.85606 0.57152 0.85594 0.0
H1304 H 0.78722 0.42283 0.87011 0.0
H1305 H 0.88541 0.50381 0.90994 0.0
C1306 C 0.85761 0.46906 0.93468 0.0
C1307 C 0.8229 0.44101 0.94168 0.0
C1308 C 0.80242 0.45534 0.86691 0.0
C1309 C 0.82605 0.46447 0.90208 0.0
C1310 C 0.80087 0.47219 0.84779 0.0
C1311 C 0.82034 0.51432 0.84338 0.0
C1312 C 0.8242 0.48049 0.88158 0.0
C1313 C 0.84096 0.53873 0.85859 0.0
C1314 C 0.85913 0.48104 0.91496 0.0
C1315 C 0.79165 0.42344 0.92816 0.0
N1316 N 0.84261 0.52133 0.87697 0.0
N1317 N 0.79383 0.43564 0.90897 0.0
H1318 H 0.39417 0.14005 0.1875 0.0
H1319 H 0.2456 0.03748 0.10283 0.0
H1320 H 0.35259 0.99995 0.18712 0.0
H1321 H 0.34581 0.13919 0.08974 0.0
H1322 H 0.27816 0.02913 0.13557 0.0
H1323 H 0.37244 0.14579 0.15284 0.0
C1324 C 0.38113 0.11039 0.18008 0.0
C1325 C 0.37489 0.06956 0.19025 0.0
C1326 C 0.29316 0.05309 0.12548 0.0
C1327 C 0.34917 0.07626 0.15098 0.0
C1328 C 0.27444 0.05809 0.10688 0.0
C1329 C 0.29319 0.08895 0.0936 0.0
C1330 C 0.33024 0.07988 0.13101 0.0
C1331 C 0.33063 0.11477 0.09956 0.0
C1332 C 0.36877 0.11372 0.16036 0.0
C1333 C 0.35792 0.03214 0.17991 0.0
N1334 N 0.34773 0.11003 0.11796 0.0
N1335 N 0.34494 0.03661 0.16094 0.0
H1336 H 0.38734 0.47283 0.54122 0.0
H1337 H 0.28467 0.44571 0.64849 0.0
H1338 H 0.26756 0.39293 0.55197 0.0
H1339 H 0.35578 0.5649 0.62877 0.0
H1340 H 0.28864 0.41515 0.61507 0.0
H1341 H 0.38861 0.49426 0.57574 0.0
C1342 C 0.36169 0.45918 0.55088 0.0
C1343 C 0.32696 0.43144 0.54365 0.0
C1344 C 0.30349 0.44788 0.61818 0.0
C1345 C 0.32829 0.45599 0.58315 0.0
C1346 C 0.30123 0.46538 0.63719 0.0
C1347 C 0.32024 0.5078 0.64146 0.0
C1348 C 0.32558 0.47268 0.60351 0.0
C1349 C 0.34115 0.53185 0.62623 0.0
C1350 C 0.3623 0.47172 0.57055 0.0
C1351 C 0.29469 0.41474 0.55691 0.0
N1352 N 0.34353 0.51382 0.60798 0.0
N1353 N 0.296 0.42744 0.57606 0.0
H1354 H 0.74691 0.03711 0.382 0.0
H1355 H 0.89252 0.14162 0.29696 0.0
H1356 H 0.84579 0.14023 0.39499 0.0
H1357 H 0.85379 1.0007 0.29768 0.0
H1358 H 0.87114 0.14733 0.33167 0.0
H1359 H 0.77916 0.02931 0.34919 0.0
C1360 C 0.7754 0.05814 0.37791 0.0
C1361 C 0.79389 0.08921 0.39119 0.0
C1362 C 0.86802 0.11511 0.32421 0.0
C1363 C 0.83057 0.08078 0.3537 0.0
C1364 C 0.88017 0.11179 0.30446 0.0
C1365 C 0.87461 0.07072 0.29437 0.0
C1366 C 0.84932 0.07737 0.3337 0.0
C1367 C 0.85854 0.03309 0.30481 0.0
C1368 C 0.79395 0.05346 0.35927 0.0
C1369 C 0.83087 0.11561 0.38518 0.0
N1370 N 0.84575 0.03753 0.3238 0.0
N1371 N 0.8478 0.11116 0.36673 0.0
H1372 H 0.27559 0.64894 0.05228 0.0
H1373 H 0.17217 0.48105 0.1303 0.0
H1374 H 0.15613 0.56894 0.04101 0.0
H1375 H 0.25094 0.59724 0.14782 0.0
H1376 H 0.16891 0.51094 0.09702 0.0
H1377 H 0.26958 0.62996 0.08712 0.0
C1378 C 0.24777 0.62793 0.05716 0.0
C1379 C 0.21657 0.61012 0.04371 0.0
C1380 C 0.18667 0.53006 0.10817 0.0
C1381 C 0.21002 0.58778 0.08335 0.0
C1382 C 0.18874 0.51291 0.12715 0.0
C1383 C 0.21194 0.53668 0.14183 0.0
C1384 C 0.2088 0.5708 0.10371 0.0
C1385 C 0.23273 0.57784 0.13691 0.0
C1386 C 0.24437 0.61714 0.07703 0.0
C1387 C 0.18108 0.58324 0.05084 0.0
N1388 N 0.2311 0.59341 0.11818 0.0
N1389 N 0.17917 0.57232 0.07013 0.0
H1390 H 0.79618 1.00928 0.88258 0.0
H1391 H 0.6405 0.90788 0.79964 0.0
H1392 H 0.69536 0.90857 0.89627 0.0
H1393 H 0.68997 0.04531 0.79797 0.0
H1394 H 0.66361 0.90296 0.83412 0.0
H1395 H 0.76281 1.01782 0.85002 0.0
C1396 C 0.76703 0.98893 0.87871 0.0
C1397 C 0.74838 0.95826 0.89211 0.0
C1398 C 0.66875 0.93433 0.82622 0.0
C1399 C 0.71031 0.96764 0.85489 0.0
C1400 C 0.6556 0.93718 0.80659 0.0
C1401 C 0.6636 0.97695 0.79589 0.0
C1402 C 0.69085 0.97116 0.835 0.0
C1403 C 0.68319 1.01395 0.80562 0.0
C1404 C 0.74783 0.99405 0.8602 0.0
C1405 C 0.71052 0.93281 0.88636 0.0
N1406 N 0.69681 1.0099 0.82453 0.0
N1407 N 0.69291 0.93772 0.86807 0.0
H1408 H 0.54027 0.40726 0.9911 0.0
H1409 H 0.49897 0.14155 -0.0043 0.0
H1410 H 0.64744 0.3079 -0.00507 0.0
H1411 H 0.39159 0.24095 -0.00631 0.0
H1412 H 0.55385 0.20131 0.98935 0.0
H1413 H 0.48592 0.34636 0.98596 0.0
C1414 C 0.55251 0.37267 0.99059 0.0
C1415 C 0.59851 0.36277 -0.00637 0.0
C1416 C 0.51823 0.20998 0.98999 0.0
C1417 C 0.5363 0.29277 0.98791 0.0
C1418 C 0.48684 0.17587 -0.00635 0.0
C1419 C 0.44059 0.18621 -0.00461 0.0
C1420 C 0.50339 0.25496 0.9883 0.0
C1421 C 0.42678 0.23119 -0.00763 0.0
C1422 C 0.52142 0.33791 0.98762 0.0
C1423 C 0.61247 0.31735 -0.00743 0.0
N1424 N 0.45815 0.26401 0.98924 0.0
N1425 N 0.58136 0.284 0.99007 0.0
H1426 H 0.55409 0.64409 0.24919 0.0
H1427 H 0.48975 0.90635 0.25051 0.0
H1428 H 0.6525 0.75199 0.25214 0.0
H1429 H 0.39167 0.798 0.25074 0.0
H1430 H 0.54977 0.8507 0.24569 0.0
H1431 H 0.4947 0.70017 0.24433 0.0
C1432 C 0.56352 0.67941 0.24843 0.0
C1433 C 0.60857 0.69324 0.25115 0.0
C1434 C 0.51504 0.83918 0.24655 0.0
C1435 C 0.54024 0.75783 0.246 0.0
C1436 C 0.4806 0.87104 0.24916 0.0
C1437 C 0.43545 0.85687 0.25112 0.0
C1438 C 0.50431 0.79286 0.24599 0.0
C1439 C 0.42603 0.81043 0.24957 0.0
C1440 C 0.52938 0.71154 0.2458 0.0
C1441 C 0.6182 0.73976 0.25037 0.0
N1442 N 0.46016 0.78009 0.24725 0.0
N1443 N 0.58431 0.77038 0.24802 0.0
H1444 H 0.04629 0.90252 0.50077 0.0
H1445 H 0.99731 0.63842 0.50514 0.0
H1446 H 0.15122 0.80046 0.50101 0.0
H1447 H 0.89248 0.73962 0.49913 0.0
H1448 H 0.05427 0.6968 0.49983 0.0
H1449 H 0.9898 0.84325 0.49636 0.0
C1450 C 0.05752 0.86766 0.49966 0.0
C1451 C 0.10358 0.8565 0.50136 0.0
C1452 C 1.01881 0.70618 0.49938 0.0
C1453 C 0.03897 0.78835 0.49649 0.0
C1454 C 0.98626 0.67288 0.50247 0.0
C1455 C 0.94007 0.68414 0.50268 0.0
C1456 C 1.00517 0.75133 0.49679 0.0
C1457 C 0.92764 0.72924 0.49895 0.0
C1458 C 0.02523 0.83384 0.49709 0.0
C1459 C 0.11621 0.81081 0.49963 0.0
N1460 N 0.96008 0.7613 0.49642 0.0
N1461 N 0.084 0.77837 0.49754 0.0
H1462 H 0.04831 0.13567 0.74274 0.0
H1463 H 0.88029 0.29814 0.73894 0.0
H1464 H 0.14288 0.24694 0.74411 0.0
H1465 H 0.98778 0.39493 0.74728 0.0
H1466 H 0.93612 0.23958 0.73287 0.0
H1467 H 0.98739 0.18851 0.73706 0.0
C1468 C 0.05654 0.17118 0.74137 0.0
C1469 C 0.10101 0.18671 0.74403 0.0
C1470 C 0.94805 0.27332 0.73603 0.0
C1471 C 0.03046 0.24864 0.73772 0.0
C1472 C 0.91587 0.30702 0.73936 0.0
C1473 C 0.92938 0.35132 0.74384 0.0
C1474 C 0.99436 0.28376 0.73764 0.0
C1475 C 0.97578 0.36124 0.74386 0.0
C1476 C 1.02129 0.20185 0.73818 0.0
C1477 C 0.10906 0.23339 0.74242 0.0
N1478 N 1.00657 0.32755 0.74111 0.0
N1479 N 0.07415 0.26262 0.73957 0.0
H1480 H 0.65133 0.80769 0.98958 0.0
H1481 H 0.38939 0.74344 0.98874 0.0
H1482 H 0.54306 0.90513 0.98288 0.0
H1483 H 0.49834 0.6457 0.99034 0.0
H1484 H 0.44454 0.80392 -0.00664 0.0
H1485 H 0.59536 0.74945 -0.00348 0.0
C1486 C 0.61593 0.81721 0.98998 0.0
C1487 C 0.60193 0.86151 0.98554 0.0
C1488 C 0.45628 0.76916 -0.007 0.0
C1489 C 0.53753 0.7945 -0.00692 0.0
C1490 C 0.42471 0.73451 0.99052 0.0
C1491 C 0.43929 0.68936 0.98898 0.0
C1492 C 0.50268 0.75858 -0.00612 0.0
C1493 C 0.48567 0.68008 0.99113 0.0
C1494 C 0.58388 0.78373 -0.00619 0.0
C1495 C 0.55538 0.87132 0.98595 0.0
N1496 N 0.51573 0.71439 -0.00673 0.0
N1497 N 0.52484 0.83802 0.98946 0.0
H1498 H 0.65287 0.24152 0.72608 0.0
H1499 H 0.39533 0.30044 0.74492 0.0
H1500 H 0.55292 0.14254 0.74305 0.0
H1501 H 0.49793 0.40198 0.73561 0.0
H1502 H 0.45454 0.24366 0.74922 0.0
H1503 H 0.59932 0.30179 0.73411 0.0
C1504 C 0.61986 0.23248 0.73178 0.0
C1505 C 0.6073 0.18691 0.73377 0.0
C1506 C 0.46425 0.27847 0.74659 0.0
C1507 C 0.54559 0.25575 0.74279 0.0
C1508 C 0.43043 0.3109 0.74412 0.0
C1509 C 0.44174 0.35585 0.73972 0.0
C1510 C 0.50979 0.29087 0.74425 0.0
C1511 C 0.4877 0.36772 0.73902 0.0
C1512 C 0.58935 0.26693 0.73643 0.0
C1513 C 0.56427 0.17714 0.74139 0.0
N1514 N 0.52008 0.3352 0.7409 0.0
N1515 N 0.53473 0.2113 0.74534 0.0
H1516 H 0.05049 0.39742 0.48784 0.0
H1517 H 1.00032 0.13353 0.48791 0.0
H1518 H 0.15489 0.2949 0.48901 0.0
H1519 H 0.89618 0.23636 0.489 0.0
H1520 H 0.05715 0.19181 0.49373 0.0
H1521 H 0.99381 0.3391 0.49372 0.0
C1522 C 0.06156 0.36266 0.48962 0.0
C1523 C 0.10747 0.35101 0.48776 0.0
C1524 C 0.02182 0.20158 0.49302 0.0
C1525 C 0.04261 0.28387 0.49427 0.0
C1526 C 0.98932 0.16833 0.48966 0.0
C1527 C 0.94342 0.18006 0.4878 0.0
C1528 C 1.00846 0.24711 0.49426 0.0
C1529 C 0.93107 0.22559 0.49041 0.0
C1530 C 0.02916 0.32937 0.49301 0.0
C1531 C 0.11995 0.30554 0.49042 0.0
N1532 N 0.96351 0.25754 0.49322 0.0
N1533 N 0.08758 0.27352 0.49324 0.0
H1534 H 0.05144 0.64215 0.24186 0.0
H1535 H 0.98842 0.90434 0.23966 0.0
H1536 H 0.14997 0.75006 0.24229 0.0
H1537 H 0.88986 0.79656 0.23697 0.0
H1538 H 0.04703 0.84854 0.24669 0.0
H1539 H 0.9915 0.69804 0.2463 0.0
C1540 C 0.06072 0.67738 0.24333 0.0
C1541 C 0.10595 0.69137 0.24148 0.0
C1542 C 1.01245 0.83717 0.24483 0.0
C1543 C 0.03718 0.75573 0.24617 0.0
C1544 C 0.97877 0.86915 0.24095 0.0
C1545 C 0.93398 0.85519 0.23761 0.0
C1546 C 1.0014 0.7909 0.24525 0.0
C1547 C 0.92401 0.80884 0.23916 0.0
C1548 C 0.02632 0.70942 0.24572 0.0
C1549 C 0.11553 0.73775 0.2433 0.0
N1550 N 0.95749 0.77835 0.24268 0.0
N1551 N 0.08145 0.76827 0.24532 0.0
loop_
_geom_bond_atom_site_label_1
_geom_bond_atom_site_label_2
_geom_bond_distance
_geom_bond_site_symmetry_2
_ccdc_geom_bond_type
Zn0 N4 2.020 . S
Zn0 O8 2.019 . S
Zn0 N10 2.119 . S
Zn0 O18 1.975 . S
C1 N2 1.334 . S
C1 N5 1.336 . S
N2 C1 1.334 . S
N2 C3 1.334 . S
C3 N2 1.334 . S
C3 N4 1.336 . S
N4 Zn0 2.020 . S
N4 C3 1.336 . S
N4 N5 1.354 . S
N5 C1 1.336 . S
N5 N4 1.354 . S
N5 Zn9 2.020 . S
C6 O7 1.244 . S
C6 O30 1.257 . S
O7 C6 1.244 . S
O8 Zn0 2.019 . S
O8 C28 1.257 . S
Zn9 N5 2.020 . S
Zn9 O16 1.975 . S
Zn9 N25 2.119 . S
Zn9 O30 2.019 1_554 S
N10 Zn0 2.119 . S
N10 C12 1.334 . S
N10 C13 1.328 . S
C11 C12 1.391 . S
C11 N14 1.329 . S
C11 H32 0.930 . S
C12 N10 1.334 . S
C12 C11 1.391 . S
C12 H19 0.930 . S
C13 N10 1.328 . S
C13 C15 1.392 . S
C13 H20 0.930 . S
N14 C11 1.329 . S
N14 C15 1.331 . S
C15 C13 1.392 . S
C15 N14 1.331 . S
O16 Zn9 1.975 . S
O16 C17 1.252 . S
C17 O16 1.252 . S
C17 O18 1.252 . S
O18 Zn0 1.975 . S
O18 C17 1.252 . S
H19 C12 0.930 . S
H20 C13 0.930 . S
C21 C22 1.392 . S
C21 N25 1.328 1_556 S
C21 H27 0.930 . S
C22 C21 1.392 . S
C22 N26 1.331 1_556 S
C23 C24 1.391 . S
C23 N26 1.329 . S
C23 H33 0.930 . S
C24 C23 1.391 . S
C24 N25 1.334 . S
C24 H31 0.930 . S
N25 Zn9 2.119 . S
N25 C21 1.328 1_554 S
N25 C24 1.334 . S
N26 C22 1.331 1_554 S
N26 C23 1.329 . S
H27 C21 0.930 . S
C28 O8 1.257 . S
C28 O29 1.244 . S
O29 C28 1.244 . S
O30 C6 1.257 . S
O30 Zn9 2.019 1_556 S
H31 C24 0.930 . S
H32 C11 0.930 . S
H33 C23 0.930 . S
Zn34 N38 2.020 . S
Zn34 O42 2.019 . S
Zn34 N44 2.119 . S
Zn34 O52 1.975 . S
C35 N36 1.334 . S
C35 N39 1.336 . S
N36 C35 1.334 . S
N36 C37 1.334 . S
C37 N36 1.334 . S
C37 N38 1.336 . S
N38 Zn34 2.020 . S
N38 C37 1.336 . S
N38 N39 1.354 . S
N39 C35 1.336 . S
N39 N38 1.354 . S
N39 Zn43 2.020 . S
C40 O41 1.244 . S
C40 O64 1.257 . S
O41 C40 1.244 . S
O42 Zn34 2.019 . S
O42 C62 1.257 . S
Zn43 N39 2.020 . S
Zn43 O50 1.975 . S
Zn43 N59 2.119 . S
Zn43 O64 2.019 . S
N44 Zn34 2.119 . S
N44 C46 1.334 . S
N44 C47 1.328 . S
C45 C46 1.391 . S
C45 N48 1.329 . S
C45 H66 0.930 . S
C46 N44 1.334 . S
C46 C45 1.391 . S
C46 H53 0.930 . S
C47 N44 1.328 . S
C47 C49 1.392 . S
C47 H54 0.930 . S
N48 C45 1.329 . S
N48 C49 1.331 . S
C49 C47 1.392 . S
C49 N48 1.331 . S
O50 Zn43 1.975 . S
O50 C51 1.252 . S
C51 O50 1.252 . S
C51 O52 1.252 . S
O52 Zn34 1.975 . S
O52 C51 1.252 . S
H53 C46 0.930 . S
H54 C47 0.930 . S
C55 C56 1.392 . S
C55 N59 1.328 . S
C55 H61 0.930 . S
C56 C55 1.392 . S
C56 N60 1.331 . S
C57 C58 1.391 . S
C57 N60 1.329 . S
C57 H67 0.930 . S
C58 C57 1.391 . S
C58 N59 1.334 . S
C58 H65 0.930 . S
N59 Zn43 2.119 . S
N59 C55 1.328 . S
N59 C58 1.334 . S
N60 C56 1.331 . S
N60 C57 1.329 . S
H61 C55 0.930 . S
C62 O42 1.257 . S
C62 O63 1.244 . S
O63 C62 1.244 . S
O64 C40 1.257 . S
O64 Zn43 2.019 . S
H65 C58 0.930 . S
H66 C45 0.930 . S
H67 C57 0.930 . S
Zn68 N72 2.020 . S
Zn68 O76 2.019 . S
Zn68 N78 2.119 . S
Zn68 O86 1.975 . S
C69 N70 1.334 . S
C69 N73 1.336 . S
N70 C69 1.334 . S
N70 C71 1.334 . S
C71 N70 1.334 . S
C71 N72 1.336 . S
N72 Zn68 2.020 . S
N72 C71 1.336 . S
N72 N73 1.354 . S
N73 C69 1.336 . S
N73 N72 1.354 . S
N73 Zn77 2.020 . S
C74 O75 1.244 . S
C74 O98 1.257 . S
O75 C74 1.244 . S
O76 Zn68 2.019 . S
O76 C96 1.257 . S
Zn77 N73 2.020 . S
Zn77 O84 1.975 . S
Zn77 N93 2.119 . S
Zn77 O98 2.019 . S
N78 Zn68 2.119 . S
N78 C80 1.334 . S
N78 C81 1.328 . S
C79 C80 1.391 . S
C79 N82 1.329 . S
C79 H100 0.930 . S
C80 N78 1.334 . S
C80 C79 1.391 . S
C80 H87 0.930 . S
C81 N78 1.328 . S
C81 C83 1.392 . S
C81 H88 0.930 . S
N82 C79 1.329 . S
N82 C83 1.331 . S
C83 C81 1.392 . S
C83 N82 1.331 . S
O84 Zn77 1.975 . S
O84 C85 1.252 . S
C85 O84 1.252 . S
C85 O86 1.252 . S
O86 Zn68 1.975 . S
O86 C85 1.252 . S
H87 C80 0.930 . S
H88 C81 0.930 . S
C89 C90 1.392 . S
C89 N93 1.328 . S
C89 H95 0.930 . S
C90 C89 1.392 . S
C90 N94 1.331 . S
C91 C92 1.391 . S
C91 N94 1.329 . S
C91 H101 0.930 . S
C92 C91 1.391 . S
C92 N93 1.334 . S
C92 H99 0.930 . S
N93 Zn77 2.119 . S
N93 C89 1.328 . S
N93 C92 1.334 . S
N94 C90 1.331 . S
N94 C91 1.329 . S
H95 C89 0.930 . S
C96 O76 1.257 . S
C96 O97 1.244 . S
O97 C96 1.244 . S
O98 C74 1.257 . S
O98 Zn77 2.019 . S
H99 C92 0.930 . S
H100 C79 0.930 . S
H101 C91 0.930 . S
Zn102 N106 2.020 . S
Zn102 O110 2.019 . S
Zn102 N112 2.119 . S
Zn102 O120 1.975 . S
C103 N104 1.334 . S
C103 N107 1.336 . S
N104 C103 1.334 . S
N104 C105 1.334 . S
C105 N104 1.334 . S
C105 N106 1.336 . S
N106 Zn102 2.020 . S
N106 C105 1.336 . S
N106 N107 1.354 . S
N107 C103 1.336 . S
N107 N106 1.354 . S
N107 Zn111 2.020 . S
C108 O109 1.244 . S
C108 O132 1.257 . S
O109 C108 1.244 . S
O110 Zn102 2.019 . S
O110 C130 1.257 . S
Zn111 N107 2.020 . S
Zn111 O118 1.975 . S
Zn111 N127 2.119 . S
Zn111 O132 2.019 . S
N112 Zn102 2.119 . S
N112 C114 1.334 . S
N112 C115 1.328 . S
C113 C114 1.391 . S
C113 N116 1.329 . S
C113 H134 0.930 . S
C114 N112 1.334 . S
C114 C113 1.391 . S
C114 H121 0.930 . S
C115 N112 1.328 . S
C115 C117 1.392 . S
C115 H122 0.930 . S
N116 C113 1.329 . S
N116 C117 1.331 . S
C117 C115 1.392 . S
C117 N116 1.331 . S
O118 Zn111 1.975 . S
O118 C119 1.252 . S
C119 O118 1.252 . S
C119 O120 1.252 . S
O120 Zn102 1.975 . S
O120 C119 1.252 . S
H121 C114 0.930 . S
H122 C115 0.930 . S
C123 C124 1.392 . S
C123 N127 1.328 . S
C123 H129 0.930 . S
C124 C123 1.392 . S
C124 N128 1.331 . S
C125 C126 1.391 . S
C125 N128 1.329 . S
C125 H135 0.930 . S
C126 C125 1.391 . S
C126 N127 1.334 . S
C126 H133 0.930 . S
N127 Zn111 2.119 . S
N127 C123 1.328 . S
N127 C126 1.334 . S
N128 C124 1.331 . S
N128 C125 1.329 . S
H129 C123 0.930 . S
C130 O110 1.257 . S
C130 O131 1.244 . S
O131 C130 1.244 . S
O132 C108 1.257 . S
O132 Zn111 2.019 . S
H133 C126 0.930 . S
H134 C113 0.930 . S
H135 C125 0.930 . S
Zn136 N140 2.020 . S
Zn136 O144 2.019 1_556 S
Zn136 N146 2.119 . S
Zn136 O154 1.975 . S
C137 N138 1.334 . S
C137 N141 1.336 . S
N138 C137 1.334 . S
N138 C139 1.334 . S
C139 N138 1.334 . S
C139 N140 1.336 . S
N140 Zn136 2.020 . S
N140 C139 1.336 . S
N140 N141 1.354 . S
N141 C137 1.336 . S
N141 N140 1.354 . S
N141 Zn145 2.020 . S
C142 O143 1.244 . S
C142 O166 1.257 . S
O143 C142 1.244 . S
O144 Zn136 2.019 1_554 S
O144 C164 1.257 . S
Zn145 N141 2.020 . S
Zn145 O152 1.975 . S
Zn145 N161 2.119 . S
Zn145 O166 2.019 . S
N146 Zn136 2.119 . S
N146 C148 1.334 . S
N146 C149 1.328 1_556 S
C147 C148 1.391 . S
C147 N150 1.329 . S
C147 H168 0.930 . S
C148 N146 1.334 . S
C148 C147 1.391 . S
C148 H155 0.930 . S
C149 N146 1.328 1_554 S
C149 C151 1.392 . S
C149 H156 0.930 . S
N150 C147 1.329 . S
N150 C151 1.331 1_556 S
C151 C149 1.392 . S
C151 N150 1.331 1_554 S
O152 Zn145 1.975 . S
O152 C153 1.252 . S
C153 O152 1.252 . S
C153 O154 1.252 . S
O154 Zn136 1.975 . S
O154 C153 1.252 . S
H155 C148 0.930 . S
H156 C149 0.930 . S
C157 C158 1.392 . S
C157 N161 1.328 . S
C157 H163 0.930 . S
C158 C157 1.392 . S
C158 N162 1.331 . S
C159 C160 1.391 . S
C159 N162 1.329 . S
C159 H169 0.930 . S
C160 C159 1.391 . S
C160 N161 1.334 . S
C160 H167 0.930 . S
N161 Zn145 2.119 . S
N161 C157 1.328 . S
N161 C160 1.334 . S
N162 C158 1.331 . S
N162 C159 1.329 . S
H163 C157 0.930 . S
C164 O144 1.257 . S
C164 O165 1.244 . S
O165 C164 1.244 . S
O166 C142 1.257 . S
O166 Zn145 2.019 . S
H167 C160 0.930 . S
H168 C147 0.930 . S
H169 C159 0.930 . S
Zn170 N174 2.020 . S
Zn170 O178 2.019 . S
Zn170 N180 2.119 . S
Zn170 O188 1.975 . S
C171 N172 1.334 . S
C171 N175 1.336 . S
N172 C171 1.334 . S
N172 C173 1.334 . S
C173 N172 1.334 . S
C173 N174 1.336 . S
N174 Zn170 2.020 . S
N174 C173 1.336 . S
N174 N175 1.354 . S
N175 C171 1.336 . S
N175 N174 1.354 . S
N175 Zn179 2.020 . S
C176 O177 1.244 . S
C176 O200 1.257 . S
O177 C176 1.244 . S
O178 Zn170 2.019 . S
O178 C198 1.257 . S
Zn179 N175 2.020 . S
Zn179 O186 1.975 . S
Zn179 N195 2.119 . S
Zn179 O200 2.019 . S
N180 Zn170 2.119 . S
N180 C182 1.334 . S
N180 C183 1.328 . S
C181 C182 1.391 . S
C181 N184 1.329 . S
C181 H202 0.930 . S
C182 N180 1.334 . S
C182 C181 1.391 . S
C182 H189 0.930 . S
C183 N180 1.328 . S
C183 C185 1.392 . S
C183 H190 0.930 . S
N184 C181 1.329 . S
N184 C185 1.331 . S
C185 C183 1.392 . S
C185 N184 1.331 . S
O186 Zn179 1.975 . S
O186 C187 1.252 . S
C187 O186 1.252 . S
C187 O188 1.252 . S
O188 Zn170 1.975 . S
O188 C187 1.252 . S
H189 C182 0.930 . S
H190 C183 0.930 . S
C191 C192 1.392 . S
C191 N195 1.328 . S
C191 H197 0.930 . S
C192 C191 1.392 . S
C192 N196 1.331 . S
C193 C194 1.391 . S
C193 N196 1.329 . S
C193 H203 0.930 . S
C194 C193 1.391 . S
C194 N195 1.334 . S
C194 H201 0.930 . S
N195 Zn179 2.119 . S
N195 C191 1.328 . S
N195 C194 1.334 . S
N196 C192 1.331 . S
N196 C193 1.329 . S
H197 C191 0.930 . S
C198 O178 1.257 . S
C198 O199 1.244 . S
O199 C198 1.244 . S
O200 C176 1.257 . S
O200 Zn179 2.019 . S
H201 C194 0.930 . S
H202 C181 0.930 . S
H203 C193 0.930 . S
Zn204 N208 2.020 . S
Zn204 O212 2.019 . S
Zn204 N214 2.119 . S
Zn204 O222 1.975 . S
C205 N206 1.334 . S
C205 N209 1.336 . S
N206 C205 1.334 . S
N206 C207 1.334 . S
C207 N206 1.334 . S
C207 N208 1.336 . S
N208 Zn204 2.020 . S
N208 C207 1.336 . S
N208 N209 1.354 . S
N209 C205 1.336 . S
N209 N208 1.354 . S
N209 Zn213 2.020 . S
C210 O211 1.244 . S
C210 O234 1.257 . S
O211 C210 1.244 . S
O212 Zn204 2.019 . S
O212 C232 1.257 . S
Zn213 N209 2.020 . S
Zn213 O220 1.975 . S
Zn213 N229 2.119 . S
Zn213 O234 2.019 . S
N214 Zn204 2.119 . S
N214 C216 1.334 . S
N214 C217 1.328 . S
C215 C216 1.391 . S
C215 N218 1.329 . S
C215 H236 0.930 . S
C216 N214 1.334 . S
C216 C215 1.391 . S
C216 H223 0.930 . S
C217 N214 1.328 . S
C217 C219 1.392 . S
C217 H224 0.930 . S
N218 C215 1.329 . S
N218 C219 1.331 . S
C219 C217 1.392 . S
C219 N218 1.331 . S
O220 Zn213 1.975 . S
O220 C221 1.252 . S
C221 O220 1.252 . S
C221 O222 1.252 . S
O222 Zn204 1.975 . S
O222 C221 1.252 . S
H223 C216 0.930 . S
H224 C217 0.930 . S
C225 C226 1.392 . S
C225 N229 1.328 . S
C225 H231 0.930 . S
C226 C225 1.392 . S
C226 N230 1.331 . S
C227 C228 1.391 . S
C227 N230 1.329 . S
C227 H237 0.930 . S
C228 C227 1.391 . S
C228 N229 1.334 . S
C228 H235 0.930 . S
N229 Zn213 2.119 . S
N229 C225 1.328 . S
N229 C228 1.334 . S
N230 C226 1.331 . S
N230 C227 1.329 . S
H231 C225 0.930 . S
C232 O212 1.257 . S
C232 O233 1.244 . S
O233 C232 1.244 . S
O234 C210 1.257 . S
O234 Zn213 2.019 . S
H235 C228 0.930 . S
H236 C215 0.930 . S
H237 C227 0.930 . S
Zn238 N242 2.020 . S
Zn238 O246 2.019 . S
Zn238 N248 2.119 . S
Zn238 O256 1.975 . S
C239 N240 1.334 . S
C239 N243 1.336 . S
N240 C239 1.334 . S
N240 C241 1.334 . S
C241 N240 1.334 . S
C241 N242 1.336 . S
N242 Zn238 2.020 . S
N242 C241 1.336 . S
N242 N243 1.354 . S
N243 C239 1.336 . S
N243 N242 1.354 . S
N243 Zn247 2.020 . S
C244 O245 1.244 . S
C244 O268 1.257 . S
O245 C244 1.244 . S
O246 Zn238 2.019 . S
O246 C266 1.257 . S
Zn247 N243 2.020 . S
Zn247 O254 1.975 . S
Zn247 N263 2.119 . S
Zn247 O268 2.019 . S
N248 Zn238 2.119 . S
N248 C250 1.334 . S
N248 C251 1.328 . S
C249 C250 1.391 . S
C249 N252 1.329 . S
C249 H270 0.930 . S
C250 N248 1.334 . S
C250 C249 1.391 . S
C250 H257 0.930 . S
C251 N248 1.328 . S
C251 C253 1.392 . S
C251 H258 0.930 . S
N252 C249 1.329 . S
N252 C253 1.331 . S
C253 C251 1.392 . S
C253 N252 1.331 . S
O254 Zn247 1.975 . S
O254 C255 1.252 . S
C255 O254 1.252 . S
C255 O256 1.252 . S
O256 Zn238 1.975 . S
O256 C255 1.252 . S
H257 C250 0.930 . S
H258 C251 0.930 . S
C259 C260 1.392 . S
C259 N263 1.328 . S
C259 H265 0.930 . S
C260 C259 1.392 . S
C260 N264 1.331 . S
C261 C262 1.391 . S
C261 N264 1.329 . S
C261 H271 0.930 . S
C262 C261 1.391 . S
C262 N263 1.334 . S
C262 H269 0.930 . S
N263 Zn247 2.119 . S
N263 C259 1.328 . S
N263 C262 1.334 . S
N264 C260 1.331 . S
N264 C261 1.329 . S
H265 C259 0.930 . S
C266 O246 1.257 . S
C266 O267 1.244 . S
O267 C266 1.244 . S
O268 C244 1.257 . S
O268 Zn247 2.019 . S
H269 C262 0.930 . S
H270 C249 0.930 . S
H271 C261 0.930 . S
Zn272 N276 2.020 . S
Zn272 O280 2.019 . S
Zn272 N282 2.119 . S
Zn272 O290 1.975 . S
C273 N274 1.334 . S
C273 N277 1.336 . S
N274 C273 1.334 . S
N274 C275 1.334 . S
C275 N274 1.334 . S
C275 N276 1.336 . S
N276 Zn272 2.020 . S
N276 C275 1.336 . S
N276 N277 1.354 . S
N277 C273 1.336 . S
N277 N276 1.354 . S
N277 Zn281 2.020 . S
C278 O279 1.244 . S
C278 O302 1.257 . S
O279 C278 1.244 . S
O280 Zn272 2.019 . S
O280 C300 1.257 . S
Zn281 N277 2.020 . S
Zn281 O288 1.975 . S
Zn281 N297 2.119 . S
Zn281 O302 2.019 . S
N282 Zn272 2.119 . S
N282 C284 1.334 . S
N282 C285 1.328 . S
C283 C284 1.391 . S
C283 N286 1.329 . S
C283 H304 0.930 . S
C284 N282 1.334 . S
C284 C283 1.391 . S
C284 H291 0.930 . S
C285 N282 1.328 . S
C285 C287 1.392 . S
C285 H292 0.930 . S
N286 C283 1.329 . S
N286 C287 1.331 . S
C287 C285 1.392 . S
C287 N286 1.331 . S
O288 Zn281 1.975 . S
O288 C289 1.252 . S
C289 O288 1.252 . S
C289 O290 1.252 . S
O290 Zn272 1.975 . S
O290 C289 1.252 . S
H291 C284 0.930 . S
H292 C285 0.930 . S
C293 C294 1.392 . S
C293 N297 1.328 . S
C293 H299 0.930 . S
C294 C293 1.392 . S
C294 N298 1.331 . S
C295 C296 1.391 . S
C295 N298 1.329 . S
C295 H305 0.930 . S
C296 C295 1.391 . S
C296 N297 1.334 . S
C296 H303 0.930 . S
N297 Zn281 2.119 . S
N297 C293 1.328 . S
N297 C296 1.334 . S
N298 C294 1.331 . S
N298 C295 1.329 . S
H299 C293 0.930 . S
C300 O280 1.257 . S
C300 O301 1.244 . S
O301 C300 1.244 . S
O302 C278 1.257 . S
O302 Zn281 2.019 . S
H303 C296 0.930 . S
H304 C283 0.930 . S
H305 C295 0.930 . S
Zn306 N310 2.020 . S
Zn306 O314 2.019 . S
Zn306 N316 2.119 . S
Zn306 O324 1.975 . S
C307 N308 1.334 . S
C307 N311 1.336 1_565 S
N308 C307 1.334 . S
N308 C309 1.334 1_565 S
C309 N308 1.334 1_545 S
C309 N310 1.336 . S
N310 Zn306 2.020 . S
N310 C309 1.336 . S
N310 N311 1.354 . S
N311 C307 1.336 1_545 S
N311 N310 1.354 . S
N311 Zn315 2.020 1_545 S
C312 O313 1.244 . S
C312 O336 1.257 . S
O313 C312 1.244 . S
O314 Zn306 2.019 . S
O314 C334 1.257 . S
Zn315 N311 2.020 1_565 S
Zn315 O322 1.975 1_565 S
Zn315 N331 2.119 . S
Zn315 O336 2.019 1_565 S
N316 Zn306 2.119 . S
N316 C318 1.334 . S
N316 C319 1.328 . S
C317 C318 1.391 . S
C317 N320 1.329 . S
C317 H338 0.930 . S
C318 N316 1.334 . S
C318 C317 1.391 . S
C318 H325 0.930 . S
C319 N316 1.328 . S
C319 C321 1.392 . S
C319 H326 0.930 . S
N320 C317 1.329 . S
N320 C321 1.331 . S
C321 C319 1.392 . S
C321 N320 1.331 . S
O322 Zn315 1.975 1_545 S
O322 C323 1.252 . S
C323 O322 1.252 . S
C323 O324 1.252 . S
O324 Zn306 1.975 . S
O324 C323 1.252 . S
H325 C318 0.930 . S
H326 C319 0.930 . S
C327 C328 1.392 . S
C327 N331 1.328 . S
C327 H333 0.930 . S
C328 C327 1.392 . S
C328 N332 1.331 . S
C329 C330 1.391 . S
C329 N332 1.329 . S
C329 H339 0.930 . S
C330 C329 1.391 . S
C330 N331 1.334 . S
C330 H337 0.930 . S
N331 Zn315 2.119 . S
N331 C327 1.328 . S
N331 C330 1.334 . S
N332 C328 1.331 . S
N332 C329 1.329 . S
H333 C327 0.930 . S
C334 O314 1.257 . S
C334 O335 1.243 1_545 S
O335 C334 1.243 1_565 S
O336 C312 1.257 . S
O336 Zn315 2.019 1_545 S
H337 C330 0.930 . S
H338 C317 0.930 . S
H339 C329 0.930 . S
Zn340 N344 2.020 . S
Zn340 O348 2.019 1_554 S
Zn340 N350 2.119 . S
Zn340 O358 1.975 . S
C341 N342 1.334 . S
C341 N345 1.336 . S
N342 C341 1.334 . S
N342 C343 1.334 . S
C343 N342 1.334 . S
C343 N344 1.336 . S
N344 Zn340 2.020 . S
N344 C343 1.336 . S
N344 N345 1.354 . S
N345 C341 1.336 . S
N345 N344 1.354 . S
N345 Zn349 2.020 . S
C346 O347 1.244 . S
C346 O370 1.257 . S
O347 C346 1.244 . S
O348 Zn340 2.019 1_556 S
O348 C368 1.257 . S
Zn349 N345 2.020 . S
Zn349 O356 1.975 . S
Zn349 N365 2.119 . S
Zn349 O370 2.019 . S
N350 Zn340 2.119 . S
N350 C352 1.334 . S
N350 C353 1.328 1_554 S
C351 C352 1.391 . S
C351 N354 1.329 . S
C351 H372 0.930 . S
C352 N350 1.334 . S
C352 C351 1.391 . S
C352 H359 0.930 . S
C353 N350 1.328 1_556 S
C353 C355 1.392 . S
C353 H360 0.930 . S
N354 C351 1.329 . S
N354 C355 1.331 1_554 S
C355 C353 1.392 . S
C355 N354 1.331 1_556 S
O356 Zn349 1.975 . S
O356 C357 1.252 . S
C357 O356 1.252 . S
C357 O358 1.252 . S
O358 Zn340 1.975 . S
O358 C357 1.252 . S
H359 C352 0.930 . S
H360 C353 0.930 . S
C361 C362 1.392 . S
C361 N365 1.328 . S
C361 H367 0.930 . S
C362 C361 1.392 . S
C362 N366 1.331 . S
C363 C364 1.391 . S
C363 N366 1.329 . S
C363 H373 0.930 . S
C364 C363 1.391 . S
C364 N365 1.334 . S
C364 H371 0.930 . S
N365 Zn349 2.119 . S
N365 C361 1.328 . S
N365 C364 1.334 . S
N366 C362 1.331 . S
N366 C363 1.329 . S
H367 C361 0.930 . S
C368 O348 1.257 . S
C368 O369 1.244 . S
O369 C368 1.244 . S
O370 C346 1.257 . S
O370 Zn349 2.019 . S
H371 C364 0.930 . S
H372 C351 0.930 . S
H373 C363 0.930 . S
Zn374 N378 2.020 . S
Zn374 O382 2.019 . S
Zn374 N384 2.119 . S
Zn374 O392 1.975 . S
C375 N376 1.334 . S
C375 N379 1.336 1_545 S
N376 C375 1.334 . S
N376 C377 1.334 1_545 S
C377 N376 1.334 1_565 S
C377 N378 1.336 . S
N378 Zn374 2.020 . S
N378 C377 1.336 . S
N378 N379 1.354 . S
N379 C375 1.336 1_565 S
N379 N378 1.354 . S
N379 Zn383 2.020 1_565 S
C380 O381 1.244 . S
C380 O404 1.257 . S
O381 C380 1.244 . S
O382 Zn374 2.019 . S
O382 C402 1.257 . S
Zn383 N379 2.020 1_545 S
Zn383 O390 1.975 1_545 S
Zn383 N399 2.119 . S
Zn383 O404 2.019 1_545 S
N384 Zn374 2.119 . S
N384 C386 1.334 . S
N384 C387 1.328 . S
C385 C386 1.391 . S
C385 N388 1.329 . S
C385 H406 0.930 . S
C386 N384 1.334 . S
C386 C385 1.391 . S
C386 H393 0.930 . S
C387 N384 1.328 . S
C387 C389 1.392 . S
C387 H394 0.930 . S
N388 C385 1.329 . S
N388 C389 1.331 . S
C389 C387 1.392 . S
C389 N388 1.331 . S
O390 Zn383 1.975 1_565 S
O390 C391 1.252 . S
C391 O390 1.252 . S
C391 O392 1.252 . S
O392 Zn374 1.975 . S
O392 C391 1.252 . S
H393 C386 0.930 . S
H394 C387 0.930 . S
C395 C396 1.392 . S
C395 N399 1.328 . S
C395 H401 0.930 . S
C396 C395 1.392 . S
C396 N400 1.331 . S
C397 C398 1.391 . S
C397 N400 1.329 . S
C397 H407 0.930 . S
C398 C397 1.391 . S
C398 N399 1.334 . S
C398 H405 0.930 . S
N399 Zn383 2.119 . S
N399 C395 1.328 . S
N399 C398 1.334 . S
N400 C396 1.331 . S
N400 C397 1.329 . S
H401 C395 0.930 . S
C402 O382 1.257 . S
C402 O403 1.243 1_565 S
O403 C402 1.243 1_545 S
O404 C380 1.257 . S
O404 Zn383 2.019 1_565 S
H405 C398 0.930 . S
H406 C385 0.930 . S
H407 C397 0.930 . S
Zn408 N412 2.020 . S
Zn408 O416 2.019 . S
Zn408 N418 2.119 . S
Zn408 O426 1.975 . S
C409 N410 1.334 . S
C409 N413 1.336 . S
N410 C409 1.334 . S
N410 C411 1.334 . S
C411 N410 1.334 . S
C411 N412 1.336 . S
N412 Zn408 2.020 . S
N412 C411 1.336 . S
N412 N413 1.354 . S
N413 C409 1.336 . S
N413 N412 1.354 . S
N413 Zn417 2.020 . S
C414 O415 1.244 . S
C414 O438 1.257 . S
O415 C414 1.244 . S
O416 Zn408 2.019 . S
O416 C436 1.257 . S
Zn417 N413 2.020 . S
Zn417 O424 1.975 . S
Zn417 N433 2.119 . S
Zn417 O438 2.019 . S
N418 Zn408 2.119 . S
N418 C420 1.334 . S
N418 C421 1.328 . S
C419 C420 1.391 . S
C419 N422 1.329 . S
C419 H440 0.930 . S
C420 N418 1.334 . S
C420 C419 1.391 . S
C420 H427 0.930 . S
C421 N418 1.328 . S
C421 C423 1.392 . S
C421 H428 0.930 . S
N422 C419 1.329 . S
N422 C423 1.331 . S
C423 C421 1.392 . S
C423 N422 1.331 . S
O424 Zn417 1.975 . S
O424 C425 1.252 . S
C425 O424 1.252 . S
C425 O426 1.252 . S
O426 Zn408 1.975 . S
O426 C425 1.252 . S
H427 C420 0.930 . S
H428 C421 0.930 . S
C429 C430 1.392 . S
C429 N433 1.328 . S
C429 H435 0.930 . S
C430 C429 1.392 . S
C430 N434 1.331 . S
C431 C432 1.391 . S
C431 N434 1.329 . S
C431 H441 0.930 . S
C432 C431 1.391 . S
C432 N433 1.334 . S
C432 H439 0.930 . S
N433 Zn417 2.119 . S
N433 C429 1.328 . S
N433 C432 1.334 . S
N434 C430 1.331 . S
N434 C431 1.329 . S
H435 C429 0.930 . S
C436 O416 1.257 . S
C436 O437 1.244 . S
O437 C436 1.244 . S
O438 C414 1.257 . S
O438 Zn417 2.019 . S
H439 C432 0.930 . S
H440 C419 0.930 . S
H441 C431 0.930 . S
Zn442 N446 2.020 . S
Zn442 O450 2.019 . S
Zn442 N452 2.119 . S
Zn442 O460 1.975 . S
C443 N444 1.334 . S
C443 N447 1.336 1_545 S
N444 C443 1.334 . S
N444 C445 1.334 1_545 S
C445 N444 1.334 1_565 S
C445 N446 1.336 . S
N446 Zn442 2.020 . S
N446 C445 1.336 . S
N446 N447 1.354 . S
N447 C443 1.336 1_565 S
N447 N446 1.354 . S
N447 Zn451 2.020 1_565 S
C448 O449 1.244 . S
C448 O472 1.257 . S
O449 C448 1.244 . S
O450 Zn442 2.019 . S
O450 C470 1.257 . S
Zn451 N447 2.020 1_545 S
Zn451 O458 1.975 1_545 S
Zn451 N467 2.119 . S
Zn451 O472 2.019 1_545 S
N452 Zn442 2.119 . S
N452 C454 1.334 . S
N452 C455 1.328 . S
C453 C454 1.391 . S
C453 N456 1.329 . S
C453 H474 0.930 . S
C454 N452 1.334 . S
C454 C453 1.391 . S
C454 H461 0.930 . S
C455 N452 1.328 . S
C455 C457 1.392 . S
C455 H462 0.930 . S
N456 C453 1.329 . S
N456 C457 1.331 . S
C457 C455 1.392 . S
C457 N456 1.331 . S
O458 Zn451 1.975 1_565 S
O458 C459 1.252 . S
C459 O458 1.252 . S
C459 O460 1.252 . S
O460 Zn442 1.975 . S
O460 C459 1.252 . S
H461 C454 0.930 . S
H462 C455 0.930 . S
C463 C464 1.392 . S
C463 N467 1.328 . S
C463 H469 0.930 . S
C464 C463 1.392 . S
C464 N468 1.331 . S
C465 C466 1.391 . S
C465 N468 1.329 . S
C465 H475 0.930 . S
C466 C465 1.391 . S
C466 N467 1.334 . S
C466 H473 0.930 . S
N467 Zn451 2.119 . S
N467 C463 1.328 . S
N467 C466 1.334 . S
N468 C464 1.331 . S
N468 C465 1.329 . S
H469 C463 0.930 . S
C470 O450 1.257 . S
C470 O471 1.243 1_565 S
O471 C470 1.243 1_545 S
O472 C448 1.257 . S
O472 Zn451 2.019 1_565 S
H473 C466 0.930 . S
H474 C453 0.930 . S
H475 C465 0.930 . S
Zn476 N480 2.020 . S
Zn476 O484 2.019 1_556 S
Zn476 N486 2.119 . S
Zn476 O494 1.975 . S
C477 N478 1.334 . S
C477 N481 1.336 . S
N478 C477 1.334 . S
N478 C479 1.334 . S
C479 N478 1.334 . S
C479 N480 1.336 . S
N480 Zn476 2.020 . S
N480 C479 1.336 . S
N480 N481 1.354 . S
N481 C477 1.336 . S
N481 N480 1.354 . S
N481 Zn485 2.020 . S
C482 O483 1.244 . S
C482 O506 1.257 . S
O483 C482 1.244 . S
O484 Zn476 2.019 1_554 S
O484 C504 1.257 . S
Zn485 N481 2.020 . S
Zn485 O492 1.975 . S
Zn485 N501 2.119 . S
Zn485 O506 2.019 . S
N486 Zn476 2.119 . S
N486 C488 1.334 . S
N486 C489 1.328 1_556 S
C487 C488 1.391 . S
C487 N490 1.329 . S
C487 H508 0.930 . S
C488 N486 1.334 . S
C488 C487 1.391 . S
C488 H495 0.930 . S
C489 N486 1.328 1_554 S
C489 C491 1.392 . S
C489 H496 0.930 . S
N490 C487 1.329 . S
N490 C491 1.331 1_556 S
C491 C489 1.392 . S
C491 N490 1.331 1_554 S
O492 Zn485 1.975 . S
O492 C493 1.252 . S
C493 O492 1.252 . S
C493 O494 1.252 . S
O494 Zn476 1.975 . S
O494 C493 1.252 . S
H495 C488 0.930 . S
H496 C489 0.930 . S
C497 C498 1.392 . S
C497 N501 1.328 . S
C497 H503 0.930 . S
C498 C497 1.392 . S
C498 N502 1.331 . S
C499 C500 1.391 . S
C499 N502 1.329 . S
C499 H509 0.930 . S
C500 C499 1.391 . S
C500 N501 1.334 . S
C500 H507 0.930 . S
N501 Zn485 2.119 . S
N501 C497 1.328 . S
N501 C500 1.334 . S
N502 C498 1.331 . S
N502 C499 1.329 . S
H503 C497 0.930 . S
C504 O484 1.257 . S
C504 O505 1.244 . S
O505 C504 1.244 . S
O506 C482 1.257 . S
O506 Zn485 2.019 . S
H507 C500 0.930 . S
H508 C487 0.930 . S
H509 C499 0.930 . S
Zn510 N514 2.020 1_565 S
Zn510 O518 2.019 1_565 S
Zn510 N520 2.119 . S
Zn510 O528 1.975 1_565 S
C511 N512 1.334 1_545 S
C511 N515 1.336 . S
N512 C511 1.334 1_565 S
N512 C513 1.334 . S
C513 N512 1.334 . S
C513 N514 1.336 1_565 S
N514 Zn510 2.020 1_545 S
N514 C513 1.336 1_545 S
N514 N515 1.354 . S
N515 C511 1.336 . S
N515 N514 1.354 . S
N515 Zn519 2.020 . S
C516 O517 1.243 1_545 S
C516 O540 1.257 . S
O517 C516 1.243 1_565 S
O518 Zn510 2.019 1_545 S
O518 C538 1.257 . S
Zn519 N515 2.020 . S
Zn519 O526 1.975 . S
Zn519 N535 2.119 . S
Zn519 O540 2.019 . S
N520 Zn510 2.119 . S
N520 C522 1.334 . S
N520 C523 1.328 . S
C521 C522 1.391 . S
C521 N524 1.329 . S
C521 H542 0.930 . S
C522 N520 1.334 . S
C522 C521 1.391 . S
C522 H529 0.930 . S
C523 N520 1.328 . S
C523 C525 1.392 . S
C523 H530 0.930 . S
N524 C521 1.329 . S
N524 C525 1.331 . S
C525 C523 1.392 . S
C525 N524 1.331 . S
O526 Zn519 1.975 . S
O526 C527 1.252 . S
C527 O526 1.252 . S
C527 O528 1.252 . S
O528 Zn510 1.975 1_545 S
O528 C527 1.252 . S
H529 C522 0.930 . S
H530 C523 0.930 . S
C531 C532 1.392 . S
C531 N535 1.328 . S
C531 H537 0.930 . S
C532 C531 1.392 . S
C532 N536 1.331 . S
C533 C534 1.391 . S
C533 N536 1.329 . S
C533 H543 0.930 . S
C534 C533 1.391 . S
C534 N535 1.334 . S
C534 H541 0.930 . S
N535 Zn519 2.119 . S
N535 C531 1.328 . S
N535 C534 1.334 . S
N536 C532 1.331 . S
N536 C533 1.329 . S
H537 C531 0.930 . S
C538 O518 1.257 . S
C538 O539 1.244 . S
O539 C538 1.244 . S
O540 C516 1.257 . S
O540 Zn519 2.019 . S
H541 C534 0.930 . S
H542 C521 0.930 . S
H543 C533 0.930 . S
H544 C550 0.930 . S
H545 C554 0.930 . S
H546 C559 0.929 . S
H547 C557 0.929 . S
H548 C552 0.929 . S
H549 C558 0.929 . S
C550 H544 0.930 . S
C550 C551 1.367 . S
C550 C558 1.378 . S
C551 C550 1.367 . S
C551 C559 1.433 . S
C552 H548 0.929 . S
C552 C554 1.378 . S
C552 C556 1.350 . S
C553 C556 1.463 . S
C553 C558 1.350 . S
C553 N561 1.427 . S
C554 H545 0.930 . S
C554 C552 1.378 . S
C554 C555 1.367 . S
C555 C554 1.367 . S
C555 C557 1.433 . S
C556 C552 1.350 . S
C556 C553 1.463 . S
C556 N560 1.427 . S
C557 H547 0.929 . S
C557 C555 1.433 . S
C557 N560 1.384 . S
C558 H549 0.929 . S
C558 C550 1.378 . S
C558 C553 1.350 . S
C559 H546 0.929 . S
C559 C551 1.433 . S
C559 N561 1.384 . S
N560 C556 1.427 . S
N560 C557 1.384 . S
N561 C553 1.427 . S
N561 C559 1.384 . S
H562 C568 0.930 . S
H563 C572 0.930 . S
H564 C577 0.929 . S
H565 C575 0.929 . S
H566 C570 0.929 . S
H567 C576 0.929 . S
C568 H562 0.930 . S
C568 C569 1.367 . S
C568 C576 1.378 . S
C569 C568 1.367 . S
C569 C577 1.433 . S
C570 H566 0.929 . S
C570 C572 1.378 . S
C570 C574 1.350 . S
C571 C574 1.463 . S
C571 C576 1.350 . S
C571 N579 1.427 . S
C572 H563 0.930 . S
C572 C570 1.378 . S
C572 C573 1.367 . S
C573 C572 1.367 . S
C573 C575 1.433 . S
C574 C570 1.350 . S
C574 C571 1.463 . S
C574 N578 1.427 . S
C575 H565 0.929 . S
C575 C573 1.433 . S
C575 N578 1.384 . S
C576 H567 0.929 . S
C576 C568 1.378 . S
C576 C571 1.350 . S
C577 H564 0.929 . S
C577 C569 1.433 . S
C577 N579 1.384 . S
N578 C574 1.427 . S
N578 C575 1.384 . S
N579 C571 1.427 . S
N579 C577 1.384 . S
H580 C586 0.930 . S
H581 C590 0.930 . S
H582 C595 0.929 . S
H583 C593 0.929 . S
H584 C588 0.929 . S
H585 C594 0.929 . S
C586 H580 0.930 . S
C586 C587 1.367 . S
C586 C594 1.378 . S
C587 C586 1.367 . S
C587 C595 1.433 . S
C588 H584 0.929 . S
C588 C590 1.378 . S
C588 C592 1.350 . S
C589 C592 1.463 . S
C589 C594 1.350 . S
C589 N597 1.427 . S
C590 H581 0.930 . S
C590 C588 1.378 . S
C590 C591 1.367 . S
C591 C590 1.367 . S
C591 C593 1.433 . S
C592 C588 1.350 . S
C592 C589 1.463 . S
C592 N596 1.427 . S
C593 H583 0.929 . S
C593 C591 1.433 . S
C593 N596 1.384 . S
C594 H585 0.929 . S
C594 C586 1.378 . S
C594 C589 1.350 . S
C595 H582 0.929 . S
C595 C587 1.433 . S
C595 N597 1.384 . S
N596 C592 1.427 . S
N596 C593 1.384 . S
N597 C589 1.427 . S
N597 C595 1.384 . S
H598 C604 0.930 . S
H599 C608 0.930 . S
H600 C613 0.929 . S
H601 C611 0.929 . S
H602 C606 0.929 . S
H603 C612 0.929 . S
C604 H598 0.930 . S
C604 C605 1.367 . S
C604 C612 1.378 . S
C605 C604 1.367 . S
C605 C613 1.433 . S
C606 H602 0.929 . S
C606 C608 1.378 . S
C606 C610 1.350 1_655 S
C607 C610 1.463 . S
C607 C612 1.350 . S
C607 N615 1.427 . S
C608 H599 0.930 . S
C608 C606 1.378 . S
C608 C609 1.367 . S
C609 C608 1.367 . S
C609 C611 1.433 . S
C610 C606 1.350 1_455 S
C610 C607 1.463 . S
C610 N614 1.427 . S
C611 H601 0.929 . S
C611 C609 1.433 . S
C611 N614 1.384 1_655 S
C612 H603 0.929 . S
C612 C604 1.378 . S
C612 C607 1.350 . S
C613 H600 0.929 . S
C613 C605 1.433 . S
C613 N615 1.384 . S
N614 C610 1.427 . S
N614 C611 1.384 1_455 S
N615 C607 1.427 . S
N615 C613 1.384 . S
H616 C622 0.930 . S
H617 C626 0.930 . S
H618 C631 0.929 . S
H619 C629 0.929 . S
H620 C624 0.929 . S
H621 C630 0.929 . S
C622 H616 0.930 . S
C622 C623 1.367 . S
C622 C630 1.378 . S
C623 C622 1.367 . S
C623 C631 1.433 . S
C624 H620 0.929 . S
C624 C626 1.378 . S
C624 C628 1.350 . S
C625 C628 1.463 . S
C625 C630 1.350 . S
C625 N633 1.427 . S
C626 H617 0.930 . S
C626 C624 1.378 . S
C626 C627 1.367 . S
C627 C626 1.367 . S
C627 C629 1.433 . S
C628 C624 1.350 . S
C628 C625 1.463 . S
C628 N632 1.427 . S
C629 H619 0.929 . S
C629 C627 1.433 . S
C629 N632 1.384 . S
C630 H621 0.929 . S
C630 C622 1.378 . S
C630 C625 1.350 . S
C631 H618 0.929 . S
C631 C623 1.433 . S
C631 N633 1.384 . S
N632 C628 1.427 . S
N632 C629 1.384 . S
N633 C625 1.427 . S
N633 C631 1.384 . S
H634 C640 0.930 . S
H635 C644 0.930 . S
H636 C649 0.929 . S
H637 C647 0.929 . S
H638 C642 0.929 . S
H639 C648 0.929 . S
C640 H634 0.930 . S
C640 C641 1.367 . S
C640 C648 1.378 . S
C641 C640 1.367 . S
C641 C649 1.433 . S
C642 H638 0.929 . S
C642 C644 1.378 . S
C642 C646 1.350 . S
C643 C646 1.463 . S
C643 C648 1.350 . S
C643 N651 1.427 . S
C644 H635 0.930 . S
C644 C642 1.378 . S
C644 C645 1.367 . S
C645 C644 1.367 . S
C645 C647 1.433 . S
C646 C642 1.350 . S
C646 C643 1.463 . S
C646 N650 1.427 . S
C647 H637 0.929 . S
C647 C645 1.433 . S
C647 N650 1.384 . S
C648 H639 0.929 . S
C648 C640 1.378 . S
C648 C643 1.350 . S
C649 H636 0.929 . S
C649 C641 1.433 . S
C649 N651 1.384 . S
N650 C646 1.427 . S
N650 C647 1.384 . S
N651 C643 1.427 . S
N651 C649 1.384 . S
H652 C658 0.930 . S
H653 C662 0.930 . S
H654 C667 0.929 . S
H655 C665 0.929 . S
H656 C660 0.929 . S
H657 C666 0.929 . S
C658 H652 0.930 . S
C658 C659 1.367 . S
C658 C666 1.378 . S
C659 C658 1.367 . S
C659 C667 1.433 . S
C660 H656 0.929 . S
C660 C662 1.378 . S
C660 C664 1.350 . S
C661 C664 1.463 . S
C661 C666 1.350 . S
C661 N669 1.427 . S
C662 H653 0.930 . S
C662 C660 1.378 . S
C662 C663 1.367 . S
C663 C662 1.367 . S
C663 C665 1.433 . S
C664 C660 1.350 . S
C664 C661 1.463 . S
C664 N668 1.427 . S
C665 H655 0.929 . S
C665 C663 1.433 . S
C665 N668 1.384 . S
C666 H657 0.929 . S
C666 C658 1.378 . S
C666 C661 1.350 . S
C667 H654 0.929 . S
C667 C659 1.433 . S
C667 N669 1.384 . S
N668 C664 1.427 . S
N668 C665 1.384 . S
N669 C661 1.427 . S
N669 C667 1.384 . S
H670 C676 0.930 . S
H671 C680 0.930 . S
H672 C685 0.929 . S
H673 C683 0.929 1_655 S
H674 C678 0.929 . S
H675 C684 0.929 . S
C676 H670 0.930 . S
C676 C677 1.367 . S
C676 C684 1.378 . S
C677 C676 1.367 . S
C677 C685 1.433 . S
C678 H674 0.929 . S
C678 C680 1.378 . S
C678 C682 1.350 1_455 S
C679 C682 1.463 . S
C679 C684 1.350 . S
C679 N687 1.427 . S
C680 H671 0.930 . S
C680 C678 1.378 . S
C680 C681 1.367 . S
C681 C680 1.367 . S
C681 C683 1.433 . S
C682 C678 1.350 1_655 S
C682 C679 1.463 . S
C682 N686 1.427 . S
C683 H673 0.929 1_455 S
C683 C681 1.433 . S
C683 N686 1.384 1_455 S
C684 H675 0.929 . S
C684 C676 1.378 . S
C684 C679 1.350 . S
C685 H672 0.929 . S
C685 C677 1.433 . S
C685 N687 1.384 . S
N686 C682 1.427 . S
N686 C683 1.384 1_655 S
N687 C679 1.427 . S
N687 C685 1.384 . S
H688 C694 0.930 . S
H689 C698 0.930 . S
H690 C703 0.929 . S
H691 C701 0.929 . S
H692 C696 0.929 . S
H693 C702 0.929 . S
C694 H688 0.930 . S
C694 C695 1.367 . S
C694 C702 1.378 . S
C695 C694 1.367 . S
C695 C703 1.433 . S
C696 H692 0.929 . S
C696 C698 1.378 . S
C696 C700 1.350 . S
C697 C700 1.463 . S
C697 C702 1.350 . S
C697 N705 1.427 . S
C698 H689 0.930 . S
C698 C696 1.378 . S
C698 C699 1.367 . S
C699 C698 1.367 . S
C699 C701 1.433 . S
C700 C696 1.350 . S
C700 C697 1.463 . S
C700 N704 1.427 . S
C701 H691 0.929 . S
C701 C699 1.433 . S
C701 N704 1.384 . S
C702 H693 0.929 . S
C702 C694 1.378 . S
C702 C697 1.350 . S
C703 H690 0.929 . S
C703 C695 1.433 . S
C703 N705 1.384 . S
N704 C700 1.427 . S
N704 C701 1.384 . S
N705 C697 1.427 . S
N705 C703 1.384 . S
H706 C712 0.930 . S
H707 C716 0.930 1_545 S
H708 C721 0.929 . S
H709 C719 0.929 . S
H710 C714 0.929 1_545 S
H711 C720 0.929 . S
C712 H706 0.930 . S
C712 C713 1.367 . S
C712 C720 1.378 1_455 S
C713 C712 1.367 . S
C713 C721 1.433 1_565 S
C714 H710 0.929 1_565 S
C714 C716 1.378 . S
C714 C718 1.350 . S
C715 C718 1.463 . S
C715 C720 1.350 . S
C715 N723 1.427 1_665 S
C716 H707 0.930 1_565 S
C716 C714 1.378 . S
C716 C717 1.367 . S
C717 C716 1.367 . S
C717 C719 1.433 . S
C718 C714 1.350 . S
C718 C715 1.463 . S
C718 N722 1.427 . S
C719 H709 0.929 . S
C719 C717 1.433 . S
C719 N722 1.384 . S
C720 H711 0.929 . S
C720 C712 1.378 1_655 S
C720 C715 1.350 . S
C721 H708 0.929 . S
C721 C713 1.433 1_545 S
C721 N723 1.384 . S
N722 C718 1.427 . S
N722 C719 1.384 . S
N723 C715 1.427 1_445 S
N723 C721 1.384 . S
H724 C730 0.930 . S
H725 C734 0.930 . S
H726 C739 0.929 . S
H727 C737 0.929 . S
H728 C732 0.929 . S
H729 C738 0.929 . S
C730 H724 0.930 . S
C730 C731 1.367 . S
C730 C738 1.378 . S
C731 C730 1.367 . S
C731 C739 1.433 . S
C732 H728 0.929 . S
C732 C734 1.378 . S
C732 C736 1.350 . S
C733 C736 1.463 . S
C733 C738 1.350 . S
C733 N741 1.427 . S
C734 H725 0.930 . S
C734 C732 1.378 . S
C734 C735 1.367 . S
C735 C734 1.367 . S
C735 C737 1.433 . S
C736 C732 1.350 . S
C736 C733 1.463 . S
C736 N740 1.427 . S
C737 H727 0.929 . S
C737 C735 1.433 . S
C737 N740 1.384 . S
C738 H729 0.929 . S
C738 C730 1.378 . S
C738 C733 1.350 . S
C739 H726 0.929 . S
C739 C731 1.433 . S
C739 N741 1.384 . S
N740 C736 1.427 . S
N740 C737 1.384 . S
N741 C733 1.427 . S
N741 C739 1.384 . S
H742 C748 0.930 1_565 S
H743 C752 0.930 . S
H744 C757 0.929 . S
H745 C755 0.929 . S
H746 C750 0.929 . S
H747 C756 0.929 1_565 S
C748 H742 0.930 1_545 S
C748 C749 1.367 . S
C748 C756 1.378 . S
C749 C748 1.367 . S
C749 C757 1.433 . S
C750 H746 0.929 . S
C750 C752 1.378 . S
C750 C754 1.350 . S
C751 C754 1.463 . S
C751 C756 1.350 . S
C751 N759 1.427 . S
C752 H743 0.930 . S
C752 C750 1.378 . S
C752 C753 1.367 . S
C753 C752 1.367 . S
C753 C755 1.433 1_545 S
C754 C750 1.350 . S
C754 C751 1.463 . S
C754 N758 1.427 1_545 S
C755 H745 0.929 . S
C755 C753 1.433 1_565 S
C755 N758 1.384 . S
C756 H747 0.929 1_545 S
C756 C748 1.378 . S
C756 C751 1.350 . S
C757 H744 0.929 . S
C757 C749 1.433 . S
C757 N759 1.384 . S
N758 C754 1.427 1_565 S
N758 C755 1.384 . S
N759 C751 1.427 . S
N759 C757 1.384 . S
H760 C766 0.930 . S
H761 C770 0.930 . S
H762 C775 0.929 . S
H763 C773 0.929 . S
H764 C768 0.929 . S
H765 C774 0.929 . S
C766 H760 0.930 . S
C766 C767 1.367 . S
C766 C774 1.378 . S
C767 C766 1.367 . S
C767 C775 1.433 . S
C768 H764 0.929 . S
C768 C770 1.378 . S
C768 C772 1.350 . S
C769 C772 1.463 . S
C769 C774 1.350 . S
C769 N777 1.427 . S
C770 H761 0.930 . S
C770 C768 1.378 . S
C770 C771 1.367 . S
C771 C770 1.367 . S
C771 C773 1.433 . S
C772 C768 1.350 . S
C772 C769 1.463 . S
C772 N776 1.427 . S
C773 H763 0.929 . S
C773 C771 1.433 . S
C773 N776 1.384 . S
C774 H765 0.929 . S
C774 C766 1.378 . S
C774 C769 1.350 . S
C775 H762 0.929 . S
C775 C767 1.433 . S
C775 N777 1.384 . S
N776 C772 1.427 . S
N776 C773 1.384 . S
N777 C769 1.427 . S
N777 C775 1.384 . S
H778 C784 0.930 . S
H779 C788 0.930 . S
H780 C793 0.921 1_565 S
H781 C791 0.929 . S
H782 C786 0.929 1_655 S
H783 C792 0.929 . S
C784 H778 0.930 . S
C784 C785 1.367 1_455 S
C784 C792 1.378 . S
C785 C784 1.367 1_655 S
C785 C793 1.433 . S
C786 H782 0.929 1_455 S
C786 C788 1.378 . S
C786 C790 1.350 . S
C787 C790 1.463 . S
C787 C792 1.350 . S
C787 N795 1.427 1_455 S
C788 H779 0.930 . S
C788 C786 1.378 . S
C788 C789 1.367 . S
C789 C788 1.367 . S
C789 C791 1.433 . S
C790 C786 1.350 . S
C790 C787 1.463 . S
C790 N794 1.427 . S
C791 H781 0.929 . S
C791 C789 1.433 . S
C791 N794 1.384 . S
C792 H783 0.929 . S
C792 C784 1.378 . S
C792 C787 1.350 . S
C793 H780 0.921 1_545 S
C793 C785 1.433 . S
C793 N795 1.384 . S
N794 C790 1.427 . S
N794 C791 1.384 . S
N795 C787 1.427 1_655 S
N795 C793 1.384 . S
H796 C802 0.930 . S
H797 C806 0.930 . S
H798 C811 0.929 . S
H799 C809 0.929 . S
H800 C804 0.929 . S
H801 C810 0.929 . S
C802 H796 0.930 . S
C802 C803 1.367 . S
C802 C810 1.378 . S
C803 C802 1.367 . S
C803 C811 1.433 . S
C804 H800 0.929 . S
C804 C806 1.378 . S
C804 C808 1.350 . S
C805 C808 1.463 . S
C805 C810 1.350 . S
C805 N813 1.427 . S
C806 H797 0.930 . S
C806 C804 1.378 . S
C806 C807 1.367 . S
C807 C806 1.367 . S
C807 C809 1.433 . S
C808 C804 1.350 . S
C808 C805 1.463 . S
C808 N812 1.427 . S
C809 H799 0.929 . S
C809 C807 1.433 . S
C809 N812 1.384 . S
C810 H801 0.929 . S
C810 C802 1.378 . S
C810 C805 1.350 . S
C811 H798 0.929 . S
C811 C803 1.433 . S
C811 N813 1.384 . S
N812 C808 1.427 . S
N812 C809 1.384 . S
N813 C805 1.427 . S
N813 C811 1.384 . S
H814 C820 0.930 . S
H815 C824 0.930 . S
H816 C829 0.929 . S
H817 C827 0.929 . S
H818 C822 0.929 1_545 S
H819 C828 0.929 . S
C820 H814 0.930 . S
C820 C821 1.367 . S
C820 C828 1.378 . S
C821 C820 1.367 . S
C821 C829 1.433 . S
C822 H818 0.929 1_565 S
C822 C824 1.378 1_565 S
C822 C826 1.350 . S
C823 C826 1.463 . S
C823 C828 1.350 . S
C823 N831 1.427 . S
C824 H815 0.930 . S
C824 C822 1.378 1_545 S
C824 C825 1.367 1_545 S
C825 C824 1.367 1_565 S
C825 C827 1.433 . S
C826 C822 1.350 . S
C826 C823 1.463 . S
C826 N830 1.427 . S
C827 H817 0.929 . S
C827 C825 1.433 . S
C827 N830 1.384 . S
C828 H819 0.929 . S
C828 C820 1.378 . S
C828 C823 1.350 . S
C829 H816 0.929 . S
C829 C821 1.433 . S
C829 N831 1.384 . S
N830 C826 1.427 . S
N830 C827 1.384 . S
N831 C823 1.427 . S
N831 C829 1.384 . S
H832 C838 0.912 1_546 S
H833 C842 0.930 . S
H834 C847 0.929 . S
H835 C845 0.929 . S
H836 C840 0.929 . S
H837 C846 0.929 . S
C838 H832 0.912 1_564 S
C838 C839 1.394 . S
C838 C846 1.369 1_554 S
C839 C838 1.394 . S
C839 C847 1.433 . S
C840 H836 0.929 . S
C840 C842 1.378 . S
C840 C844 1.389 . S
C841 C844 1.480 . S
C841 C846 1.350 1_554 S
C841 N849 1.427 . S
C842 H833 0.930 . S
C842 C840 1.378 . S
C842 C843 1.367 1_554 S
C843 C842 1.367 1_556 S
C843 C845 1.433 . S
C844 C840 1.389 . S
C844 C841 1.480 . S
C844 N848 1.369 1_554 S
C845 H835 0.929 . S
C845 C843 1.433 . S
C845 N848 1.384 . S
C846 H837 0.929 . S
C846 C838 1.369 1_556 S
C846 C841 1.350 1_556 S
C847 H834 0.929 . S
C847 C839 1.433 . S
C847 N849 1.384 . S
N848 C844 1.369 1_556 S
N848 C845 1.384 . S
N849 C841 1.427 . S
N849 C847 1.384 . S
H850 C856 0.930 . S
H851 C860 0.930 . S
H852 C865 0.929 . S
H853 C863 0.929 . S
H854 C858 0.929 . S
H855 C864 0.929 . S
C856 H850 0.930 . S
C856 C857 1.367 . S
C856 C864 1.378 . S
C857 C856 1.367 . S
C857 C865 1.433 . S
C858 H854 0.929 . S
C858 C860 1.378 . S
C858 C862 1.350 . S
C859 C862 1.463 . S
C859 C864 1.350 . S
C859 N867 1.427 . S
C860 H851 0.930 . S
C860 C858 1.378 . S
C860 C861 1.367 . S
C861 C860 1.367 . S
C861 C863 1.433 . S
C862 C858 1.350 . S
C862 C859 1.463 . S
C862 N866 1.427 . S
C863 H853 0.929 . S
C863 C861 1.433 . S
C863 N866 1.384 . S
C864 H855 0.929 . S
C864 C856 1.378 . S
C864 C859 1.350 . S
C865 H852 0.929 . S
C865 C857 1.433 . S
C865 N867 1.384 . S
N866 C862 1.427 . S
N866 C863 1.384 . S
N867 C859 1.427 . S
N867 C865 1.384 . S
H868 C874 0.930 . S
H869 C878 0.930 . S
H870 C883 0.929 . S
H871 C881 0.929 1_565 S
H872 C876 0.929 . S
H873 C882 0.929 . S
C874 H868 0.930 . S
C874 C875 1.367 . S
C874 C882 1.378 . S
C875 C874 1.367 . S
C875 C883 1.433 . S
C876 H872 0.929 . S
C876 C878 1.378 . S
C876 C880 1.350 . S
C877 C880 1.463 . S
C877 C882 1.350 . S
C877 N885 1.427 . S
C878 H869 0.930 . S
C878 C876 1.378 . S
C878 C879 1.367 . S
C879 C878 1.367 . S
C879 C881 1.433 . S
C880 C876 1.350 . S
C880 C877 1.463 . S
C880 N884 1.427 . S
C881 H871 0.929 1_545 S
C881 C879 1.433 . S
C881 N884 1.384 . S
C882 H873 0.929 . S
C882 C874 1.378 . S
C882 C877 1.350 . S
C883 H870 0.929 . S
C883 C875 1.433 . S
C883 N885 1.384 . S
N884 C880 1.427 . S
N884 C881 1.384 . S
N885 C877 1.427 . S
N885 C883 1.384 . S
H886 C892 0.930 . S
H887 C896 0.930 . S
H888 C901 0.929 . S
H889 C899 0.929 . S
H890 C894 0.929 . S
H891 C900 0.929 . S
C892 H886 0.930 . S
C892 C893 1.367 . S
C892 C900 1.378 . S
C893 C892 1.367 . S
C893 C901 1.433 . S
C894 H890 0.929 . S
C894 C896 1.378 . S
C894 C898 1.350 . S
C895 C898 1.463 . S
C895 C900 1.350 . S
C895 N903 1.427 . S
C896 H887 0.930 . S
C896 C894 1.378 . S
C896 C897 1.367 . S
C897 C896 1.367 . S
C897 C899 1.433 . S
C898 C894 1.350 . S
C898 C895 1.463 . S
C898 N902 1.427 . S
C899 H889 0.929 . S
C899 C897 1.433 . S
C899 N902 1.384 . S
C900 H891 0.929 . S
C900 C892 1.378 . S
C900 C895 1.350 . S
C901 H888 0.929 . S
C901 C893 1.433 . S
C901 N903 1.384 . S
N902 C898 1.427 . S
N902 C899 1.384 . S
N903 C895 1.427 . S
N903 C901 1.384 . S
H904 C910 0.930 . S
H905 C914 0.914 1_554 S
H906 C919 0.929 . S
H907 C917 0.929 . S
H908 C912 0.929 . S
H909 C918 0.929 . S
C910 H904 0.930 . S
C910 C911 1.367 1_556 S
C910 C918 1.378 . S
C911 C910 1.367 1_554 S
C911 C919 1.433 . S
C912 H908 0.929 . S
C912 C914 1.363 1_554 S
C912 C916 1.350 1_554 S
C913 C916 1.480 . S
C913 C918 1.388 . S
C913 N921 1.371 1_556 S
C914 H905 0.914 1_556 S
C914 C912 1.363 1_556 S
C914 C915 1.414 . S
C915 C914 1.414 . S
C915 C917 1.433 . S
C916 C912 1.350 1_556 S
C916 C913 1.480 . S
C916 N920 1.427 . S
C917 H907 0.929 . S
C917 C915 1.433 . S
C917 N920 1.384 . S
C918 H909 0.929 . S
C918 C910 1.378 . S
C918 C913 1.388 . S
C919 H906 0.929 . S
C919 C911 1.433 . S
C919 N921 1.384 . S
N920 C916 1.427 . S
N920 C917 1.384 . S
N921 C913 1.371 1_554 S
N921 C919 1.384 . S
H922 C928 0.930 . S
H923 C932 0.930 . S
H924 C937 0.929 . S
H925 C935 0.929 . S
H926 C930 0.929 . S
H927 C936 0.929 . S
C928 H922 0.930 . S
C928 C929 1.367 . S
C928 C936 1.378 . S
C929 C928 1.367 . S
C929 C937 1.433 . S
C930 H926 0.929 . S
C930 C932 1.378 . S
C930 C934 1.350 . S
C931 C934 1.463 . S
C931 C936 1.350 . S
C931 N939 1.427 . S
C932 H923 0.930 . S
C932 C930 1.378 . S
C932 C933 1.367 . S
C933 C932 1.367 . S
C933 C935 1.433 . S
C934 C930 1.350 . S
C934 C931 1.463 . S
C934 N938 1.427 . S
C935 H925 0.929 . S
C935 C933 1.433 . S
C935 N938 1.384 . S
C936 H927 0.929 . S
C936 C928 1.378 . S
C936 C931 1.350 . S
C937 H924 0.929 . S
C937 C929 1.433 . S
C937 N939 1.384 . S
N938 C934 1.427 . S
N938 C935 1.384 . S
N939 C931 1.427 . S
N939 C937 1.384 . S
H940 C946 0.930 . S
H941 C950 0.930 . S
H942 C955 0.929 1_545 S
H943 C953 0.929 . S
H944 C948 0.929 . S
H945 C954 0.929 . S
C946 H940 0.930 . S
C946 C947 1.367 . S
C946 C954 1.378 . S
C947 C946 1.367 . S
C947 C955 1.433 . S
C948 H944 0.929 . S
C948 C950 1.378 . S
C948 C952 1.350 . S
C949 C952 1.463 . S
C949 C954 1.350 . S
C949 N957 1.427 . S
C950 H941 0.930 . S
C950 C948 1.378 . S
C950 C951 1.367 . S
C951 C950 1.367 . S
C951 C953 1.433 . S
C952 C948 1.350 . S
C952 C949 1.463 . S
C952 N956 1.427 . S
C953 H943 0.929 . S
C953 C951 1.433 . S
C953 N956 1.384 . S
C954 H945 0.929 . S
C954 C946 1.378 . S
C954 C949 1.350 . S
C955 H942 0.929 1_565 S
C955 C947 1.433 . S
C955 N957 1.384 . S
N956 C952 1.427 . S
N956 C953 1.384 . S
N957 C949 1.427 . S
N957 C955 1.384 . S
H958 C964 0.930 . S
H959 C968 0.930 . S
H960 C973 0.929 . S
H961 C971 0.929 . S
H962 C966 0.929 . S
H963 C972 0.929 . S
C964 H958 0.930 . S
C964 C965 1.367 . S
C964 C972 1.378 . S
C965 C964 1.367 . S
C965 C973 1.433 . S
C966 H962 0.929 . S
C966 C968 1.378 . S
C966 C970 1.350 . S
C967 C970 1.463 . S
C967 C972 1.350 . S
C967 N975 1.427 . S
C968 H959 0.930 . S
C968 C966 1.378 . S
C968 C969 1.367 . S
C969 C968 1.367 . S
C969 C971 1.433 . S
C970 C966 1.350 . S
C970 C967 1.463 . S
C970 N974 1.427 . S
C971 H961 0.929 . S
C971 C969 1.433 . S
C971 N974 1.384 . S
C972 H963 0.929 . S
C972 C964 1.378 . S
C972 C967 1.350 . S
C973 H960 0.929 . S
C973 C965 1.433 . S
C973 N975 1.384 . S
N974 C970 1.427 . S
N974 C971 1.384 . S
N975 C967 1.427 . S
N975 C973 1.384 . S
H976 C982 0.930 . S
H977 C986 0.930 . S
H978 C991 0.929 . S
H979 C989 0.929 . S
H980 C984 0.929 . S
H981 C990 0.929 . S
C982 H976 0.930 . S
C982 C983 1.367 . S
C982 C990 1.378 . S
C983 C982 1.367 . S
C983 C991 1.433 . S
C984 H980 0.929 . S
C984 C986 1.378 . S
C984 C988 1.350 . S
C985 C988 1.463 . S
C985 C990 1.350 . S
C985 N993 1.427 . S
C986 H977 0.930 . S
C986 C984 1.378 . S
C986 C987 1.367 . S
C987 C986 1.367 . S
C987 C989 1.433 . S
C988 C984 1.350 . S
C988 C985 1.463 . S
C988 N992 1.427 . S
C989 H979 0.929 . S
C989 C987 1.433 . S
C989 N992 1.384 . S
C990 H981 0.929 . S
C990 C982 1.378 . S
C990 C985 1.350 . S
C991 H978 0.929 . S
C991 C983 1.433 . S
C991 N993 1.384 . S
N992 C988 1.427 . S
N992 C989 1.384 . S
N993 C985 1.427 . S
N993 C991 1.384 . S
H994 C1000 0.930 . S
H995 C1004 0.930 . S
H996 C1009 0.929 . S
H997 C1007 0.929 . S
H998 C1002 0.929 . S
H999 C1008 0.929 . S
C1000 H994 0.930 . S
C1000 C1001 1.367 . S
C1000 C1008 1.378 . S
C1001 C1000 1.367 . S
C1001 C1009 1.433 . S
C1002 H998 0.929 . S
C1002 C1004 1.378 . S
C1002 C1006 1.350 . S
C1003 C1006 1.463 . S
C1003 C1008 1.350 . S
C1003 N1011 1.427 . S
C1004 H995 0.930 . S
C1004 C1002 1.378 . S
C1004 C1005 1.367 . S
C1005 C1004 1.367 . S
C1005 C1007 1.433 . S
C1006 C1002 1.350 . S
C1006 C1003 1.463 . S
C1006 N1010 1.427 . S
C1007 H997 0.929 . S
C1007 C1005 1.433 . S
C1007 N1010 1.384 . S
C1008 H999 0.929 . S
C1008 C1000 1.378 . S
C1008 C1003 1.350 . S
C1009 H996 0.929 . S
C1009 C1001 1.433 . S
C1009 N1011 1.384 . S
N1010 C1006 1.427 . S
N1010 C1007 1.384 . S
N1011 C1003 1.427 . S
N1011 C1009 1.384 . S
H1012 C1018 0.930 . S
H1013 C1022 0.930 . S
H1014 C1027 0.929 . S
H1015 C1025 0.929 1_556 S
H1016 C1020 0.929 . S
H1017 C1026 0.929 . S
C1018 H1012 0.930 . S
C1018 C1019 1.367 . S
C1018 C1026 1.378 . S
C1019 C1018 1.367 . S
C1019 C1027 1.433 1_556 S
C1020 H1016 0.929 . S
C1020 C1022 1.378 . S
C1020 C1024 1.350 . S
C1021 C1024 1.463 1_556 S
C1021 C1026 1.349 . S
C1021 N1029 1.428 1_556 S
C1022 H1013 0.930 . S
C1022 C1020 1.378 . S
C1022 C1023 1.367 . S
C1023 C1022 1.367 . S
C1023 C1025 1.433 . S
C1024 C1020 1.350 . S
C1024 C1021 1.463 1_554 S
C1024 N1028 1.427 1_554 S
C1025 H1015 0.929 1_554 S
C1025 C1023 1.433 . S
C1025 N1028 1.384 1_554 S
C1026 H1017 0.929 . S
C1026 C1018 1.378 . S
C1026 C1021 1.349 . S
C1027 H1014 0.929 . S
C1027 C1019 1.433 1_554 S
C1027 N1029 1.384 . S
N1028 C1024 1.427 1_556 S
N1028 C1025 1.384 1_556 S
N1029 C1021 1.428 1_554 S
N1029 C1027 1.384 . S
H1030 C1036 0.930 . S
H1031 C1040 0.930 . S
H1032 C1045 0.929 . S
H1033 C1043 0.929 . S
H1034 C1038 0.929 . S
H1035 C1044 0.929 . S
C1036 H1030 0.930 . S
C1036 C1037 1.367 1_545 S
C1036 C1044 1.378 . S
C1037 C1036 1.367 1_565 S
C1037 C1045 1.433 . S
C1038 H1034 0.929 . S
C1038 C1040 1.378 . S
C1038 C1042 1.350 . S
C1039 C1042 1.463 . S
C1039 C1044 1.350 1_565 S
C1039 N1047 1.427 . S
C1040 H1031 0.930 . S
C1040 C1038 1.378 . S
C1040 C1041 1.367 . S
C1041 C1040 1.367 . S
C1041 C1043 1.433 1_565 S
C1042 C1038 1.350 . S
C1042 C1039 1.463 . S
C1042 N1046 1.427 1_565 S
C1043 H1033 0.929 . S
C1043 C1041 1.433 1_545 S
C1043 N1046 1.384 . S
C1044 H1035 0.929 . S
C1044 C1036 1.378 . S
C1044 C1039 1.350 1_545 S
C1045 H1032 0.929 . S
C1045 C1037 1.433 . S
C1045 N1047 1.384 . S
N1046 C1042 1.427 1_545 S
N1046 C1043 1.384 . S
N1047 C1039 1.427 . S
N1047 C1045 1.384 . S
H1048 C1054 0.930 . S
H1049 C1058 0.930 . S
H1050 C1063 0.929 . S
H1051 C1061 0.929 . S
H1052 C1056 0.929 . S
H1053 C1062 0.929 . S
C1054 H1048 0.930 . S
C1054 C1055 1.367 . S
C1054 C1062 1.378 . S
C1055 C1054 1.367 . S
C1055 C1063 1.433 . S
C1056 H1052 0.929 . S
C1056 C1058 1.378 . S
C1056 C1060 1.350 . S
C1057 C1060 1.463 . S
C1057 C1062 1.350 . S
C1057 N1065 1.427 . S
C1058 H1049 0.930 . S
C1058 C1056 1.378 . S
C1058 C1059 1.367 . S
C1059 C1058 1.367 . S
C1059 C1061 1.433 . S
C1060 C1056 1.350 . S
C1060 C1057 1.463 . S
C1060 N1064 1.427 . S
C1061 H1051 0.929 . S
C1061 C1059 1.433 . S
C1061 N1064 1.384 . S
C1062 H1053 0.929 . S
C1062 C1054 1.378 . S
C1062 C1057 1.350 . S
C1063 H1050 0.929 . S
C1063 C1055 1.433 . S
C1063 N1065 1.384 . S
N1064 C1060 1.427 . S
N1064 C1061 1.384 . S
N1065 C1057 1.427 . S
N1065 C1063 1.384 . S
H1066 C1072 0.930 . S
H1067 C1076 0.930 . S
H1068 C1081 0.929 . S
H1069 C1079 0.929 . S
H1070 C1074 0.929 . S
H1071 C1080 0.929 . S
C1072 H1066 0.930 . S
C1072 C1073 1.367 . S
C1072 C1080 1.378 . S
C1073 C1072 1.367 . S
C1073 C1081 1.433 1_565 S
C1074 H1070 0.929 . S
C1074 C1076 1.378 . S
C1074 C1078 1.350 1_545 S
C1075 C1078 1.463 . S
C1075 C1080 1.350 . S
C1075 N1083 1.427 1_565 S
C1076 H1067 0.930 . S
C1076 C1074 1.378 . S
C1076 C1077 1.367 1_545 S
C1077 C1076 1.367 1_565 S
C1077 C1079 1.433 . S
C1078 C1074 1.350 1_565 S
C1078 C1075 1.463 . S
C1078 N1082 1.427 . S
C1079 H1069 0.929 . S
C1079 C1077 1.433 . S
C1079 N1082 1.384 . S
C1080 H1071 0.929 . S
C1080 C1072 1.378 . S
C1080 C1075 1.350 . S
C1081 H1068 0.929 . S
C1081 C1073 1.433 1_545 S
C1081 N1083 1.384 . S
N1082 C1078 1.427 . S
N1082 C1079 1.384 . S
N1083 C1075 1.427 1_545 S
N1083 C1081 1.384 . S
H1084 C1090 0.930 . S
H1085 C1094 0.930 1_554 S
H1086 C1099 0.929 . S
H1087 C1097 0.929 . S
H1088 C1092 0.929 . S
H1089 C1098 0.929 . S
C1090 H1084 0.930 . S
C1090 C1091 1.367 1_556 S
C1090 C1098 1.378 . S
C1091 C1090 1.367 1_554 S
C1091 C1099 1.433 . S
C1092 H1088 0.929 . S
C1092 C1094 1.378 1_554 S
C1092 C1096 1.350 1_554 S
C1093 C1096 1.479 . S
C1093 C1098 1.382 . S
C1093 N1101 1.378 1_556 S
C1094 H1085 0.930 1_556 S
C1094 C1092 1.378 1_556 S
C1094 C1095 1.367 . S
C1095 C1094 1.367 . S
C1095 C1097 1.433 . S
C1096 C1092 1.350 1_556 S
C1096 C1093 1.479 . S
C1096 N1100 1.427 . S
C1097 H1087 0.929 . S
C1097 C1095 1.433 . S
C1097 N1100 1.384 . S
C1098 H1089 0.929 . S
C1098 C1090 1.378 . S
C1098 C1093 1.382 . S
C1099 H1086 0.929 . S
C1099 C1091 1.433 . S
C1099 N1101 1.384 . S
N1100 C1096 1.427 . S
N1100 C1097 1.384 . S
N1101 C1093 1.378 1_554 S
N1101 C1099 1.384 . S
H1102 C1108 0.930 . S
H1103 C1112 0.930 . S
H1104 C1117 0.929 . S
H1105 C1115 0.929 1_565 S
H1106 C1110 0.929 . S
H1107 C1116 0.929 . S
C1108 H1102 0.930 . S
C1108 C1109 1.367 1_565 S
C1108 C1116 1.378 . S
C1109 C1108 1.367 1_545 S
C1109 C1117 1.433 . S
C1110 H1106 0.929 . S
C1110 C1112 1.378 . S
C1110 C1114 1.350 . S
C1111 C1114 1.463 . S
C1111 C1116 1.350 1_545 S
C1111 N1119 1.427 . S
C1112 H1103 0.930 . S
C1112 C1110 1.378 . S
C1112 C1113 1.367 . S
C1113 C1112 1.367 . S
C1113 C1115 1.433 . S
C1114 C1110 1.350 . S
C1114 C1111 1.463 . S
C1114 N1118 1.427 . S
C1115 H1105 0.929 1_545 S
C1115 C1113 1.433 . S
C1115 N1118 1.384 . S
C1116 H1107 0.929 . S
C1116 C1108 1.378 . S
C1116 C1111 1.350 1_565 S
C1117 H1104 0.929 . S
C1117 C1109 1.433 . S
C1117 N1119 1.384 . S
N1118 C1114 1.427 . S
N1118 C1115 1.384 . S
N1119 C1111 1.427 . S
N1119 C1117 1.384 . S
H1120 C1126 0.930 . S
H1121 C1130 0.930 . S
H1122 C1135 0.929 . S
H1123 C1133 0.929 . S
H1124 C1128 0.929 . S
H1125 C1134 0.929 . S
C1126 H1120 0.930 . S
C1126 C1127 1.367 . S
C1126 C1134 1.378 . S
C1127 C1126 1.367 . S
C1127 C1135 1.433 . S
C1128 H1124 0.929 . S
C1128 C1130 1.378 . S
C1128 C1132 1.350 . S
C1129 C1132 1.463 . S
C1129 C1134 1.350 . S
C1129 N1137 1.427 . S
C1130 H1121 0.930 . S
C1130 C1128 1.378 . S
C1130 C1131 1.367 . S
C1131 C1130 1.367 . S
C1131 C1133 1.433 . S
C1132 C1128 1.350 . S
C1132 C1129 1.463 . S
C1132 N1136 1.427 . S
C1133 H1123 0.929 . S
C1133 C1131 1.433 . S
C1133 N1136 1.384 . S
C1134 H1125 0.929 . S
C1134 C1126 1.378 . S
C1134 C1129 1.350 . S
C1135 H1122 0.929 . S
C1135 C1127 1.433 . S
C1135 N1137 1.384 . S
N1136 C1132 1.427 . S
N1136 C1133 1.384 . S
N1137 C1129 1.427 . S
N1137 C1135 1.384 . S
H1138 C1144 0.930 . S
H1139 C1148 0.930 . S
H1140 C1153 0.929 . S
H1141 C1151 0.929 . S
H1142 C1146 0.929 . S
H1143 C1152 0.929 . S
C1144 H1138 0.930 . S
C1144 C1145 1.367 . S
C1144 C1152 1.378 . S
C1145 C1144 1.367 . S
C1145 C1153 1.433 . S
C1146 H1142 0.929 . S
C1146 C1148 1.378 . S
C1146 C1150 1.350 . S
C1147 C1150 1.463 . S
C1147 C1152 1.350 . S
C1147 N1155 1.427 . S
C1148 H1139 0.930 . S
C1148 C1146 1.378 . S
C1148 C1149 1.367 . S
C1149 C1148 1.367 . S
C1149 C1151 1.433 . S
C1150 C1146 1.350 . S
C1150 C1147 1.463 . S
C1150 N1154 1.427 . S
C1151 H1141 0.929 . S
C1151 C1149 1.433 . S
C1151 N1154 1.384 . S
C1152 H1143 0.929 . S
C1152 C1144 1.378 . S
C1152 C1147 1.350 . S
C1153 H1140 0.929 . S
C1153 C1145 1.433 . S
C1153 N1155 1.384 . S
N1154 C1150 1.427 . S
N1154 C1151 1.384 . S
N1155 C1147 1.427 . S
N1155 C1153 1.384 . S
H1156 C1162 0.930 . S
H1157 C1166 0.930 . S
H1158 C1171 0.929 . S
H1159 C1169 0.929 . S
H1160 C1164 0.929 . S
H1161 C1170 0.929 . S
C1162 H1156 0.930 . S
C1162 C1163 1.367 . S
C1162 C1170 1.378 . S
C1163 C1162 1.367 . S
C1163 C1171 1.433 . S
C1164 H1160 0.929 . S
C1164 C1166 1.378 . S
C1164 C1168 1.350 . S
C1165 C1168 1.463 . S
C1165 C1170 1.350 . S
C1165 N1173 1.427 . S
C1166 H1157 0.930 . S
C1166 C1164 1.378 . S
C1166 C1167 1.367 . S
C1167 C1166 1.367 . S
C1167 C1169 1.433 . S
C1168 C1164 1.350 . S
C1168 C1165 1.463 . S
C1168 N1172 1.427 . S
C1169 H1159 0.929 . S
C1169 C1167 1.433 . S
C1169 N1172 1.384 . S
C1170 H1161 0.929 . S
C1170 C1162 1.378 . S
C1170 C1165 1.350 . S
C1171 H1158 0.929 . S
C1171 C1163 1.433 . S
C1171 N1173 1.384 . S
N1172 C1168 1.427 . S
N1172 C1169 1.384 . S
N1173 C1165 1.427 . S
N1173 C1171 1.384 . S
H1174 C1180 0.930 . S
H1175 C1184 0.930 . S
H1176 C1189 0.929 . S
H1177 C1187 0.929 . S
H1178 C1182 0.929 . S
H1179 C1188 0.929 . S
C1180 H1174 0.930 . S
C1180 C1181 1.367 . S
C1180 C1188 1.378 . S
C1181 C1180 1.367 . S
C1181 C1189 1.433 . S
C1182 H1178 0.929 . S
C1182 C1184 1.378 . S
C1182 C1186 1.350 . S
C1183 C1186 1.463 . S
C1183 C1188 1.350 . S
C1183 N1191 1.427 . S
C1184 H1175 0.930 . S
C1184 C1182 1.378 . S
C1184 C1185 1.367 . S
C1185 C1184 1.367 . S
C1185 C1187 1.433 . S
C1186 C1182 1.350 . S
C1186 C1183 1.463 . S
C1186 N1190 1.427 . S
C1187 H1177 0.929 . S
C1187 C1185 1.433 . S
C1187 N1190 1.384 . S
C1188 H1179 0.929 . S
C1188 C1180 1.378 . S
C1188 C1183 1.350 . S
C1189 H1176 0.929 . S
C1189 C1181 1.433 . S
C1189 N1191 1.384 . S
N1190 C1186 1.427 . S
N1190 C1187 1.384 . S
N1191 C1183 1.427 . S
N1191 C1189 1.384 . S
H1192 C1198 0.930 . S
H1193 C1202 0.930 . S
H1194 C1207 0.929 . S
H1195 C1205 0.929 . S
H1196 C1200 0.929 . S
H1197 C1206 0.929 . S
C1198 H1192 0.930 . S
C1198 C1199 1.367 . S
C1198 C1206 1.378 . S
C1199 C1198 1.367 . S
C1199 C1207 1.433 . S
C1200 H1196 0.929 . S
C1200 C1202 1.378 . S
C1200 C1204 1.350 . S
C1201 C1204 1.463 . S
C1201 C1206 1.350 . S
C1201 N1209 1.427 . S
C1202 H1193 0.930 . S
C1202 C1200 1.378 . S
C1202 C1203 1.367 . S
C1203 C1202 1.367 . S
C1203 C1205 1.433 . S
C1204 C1200 1.350 . S
C1204 C1201 1.463 . S
C1204 N1208 1.427 . S
C1205 H1195 0.929 . S
C1205 C1203 1.433 . S
C1205 N1208 1.384 . S
C1206 H1197 0.929 . S
C1206 C1198 1.378 . S
C1206 C1201 1.350 . S
C1207 H1194 0.929 . S
C1207 C1199 1.433 . S
C1207 N1209 1.384 . S
N1208 C1204 1.427 . S
N1208 C1205 1.384 . S
N1209 C1201 1.427 . S
N1209 C1207 1.384 . S
H1210 C1216 0.930 . S
H1211 C1220 0.930 . S
H1212 C1225 0.929 . S
H1213 C1223 0.929 . S
H1214 C1218 0.929 . S
H1215 C1224 0.929 . S
C1216 H1210 0.930 . S
C1216 C1217 1.367 . S
C1216 C1224 1.378 . S
C1217 C1216 1.367 . S
C1217 C1225 1.433 . S
C1218 H1214 0.929 . S
C1218 C1220 1.378 . S
C1218 C1222 1.350 . S
C1219 C1222 1.463 . S
C1219 C1224 1.350 . S
C1219 N1227 1.427 . S
C1220 H1211 0.930 . S
C1220 C1218 1.378 . S
C1220 C1221 1.367 . S
C1221 C1220 1.367 . S
C1221 C1223 1.433 . S
C1222 C1218 1.350 . S
C1222 C1219 1.463 . S
C1222 N1226 1.427 . S
C1223 H1213 0.929 . S
C1223 C1221 1.433 . S
C1223 N1226 1.384 . S
C1224 H1215 0.929 . S
C1224 C1216 1.378 . S
C1224 C1219 1.350 . S
C1225 H1212 0.929 . S
C1225 C1217 1.433 . S
C1225 N1227 1.384 . S
N1226 C1222 1.427 . S
N1226 C1223 1.384 . S
N1227 C1219 1.427 . S
N1227 C1225 1.384 . S
H1228 C1234 0.930 . S
H1229 C1238 0.930 . S
H1230 C1243 0.929 . S
H1231 C1241 0.929 . S
H1232 C1236 0.929 . S
H1233 C1242 0.929 . S
C1234 H1228 0.930 . S
C1234 C1235 1.367 . S
C1234 C1242 1.378 . S
C1235 C1234 1.367 . S
C1235 C1243 1.433 . S
C1236 H1232 0.929 . S
C1236 C1238 1.378 . S
C1236 C1240 1.350 . S
C1237 C1240 1.463 . S
C1237 C1242 1.350 . S
C1237 N1245 1.427 . S
C1238 H1229 0.930 . S
C1238 C1236 1.378 . S
C1238 C1239 1.367 . S
C1239 C1238 1.367 . S
C1239 C1241 1.433 . S
C1240 C1236 1.350 . S
C1240 C1237 1.463 . S
C1240 N1244 1.427 . S
C1241 H1231 0.929 . S
C1241 C1239 1.433 . S
C1241 N1244 1.384 . S
C1242 H1233 0.929 . S
C1242 C1234 1.378 . S
C1242 C1237 1.350 . S
C1243 H1230 0.929 . S
C1243 C1235 1.433 . S
C1243 N1245 1.384 . S
N1244 C1240 1.427 . S
N1244 C1241 1.384 . S
N1245 C1237 1.427 . S
N1245 C1243 1.384 . S
H1246 C1252 0.930 . S
H1247 C1256 0.930 . S
H1248 C1261 0.929 . S
H1249 C1259 0.929 . S
H1250 C1254 0.929 . S
H1251 C1260 0.929 . S
C1252 H1246 0.930 . S
C1252 C1253 1.367 . S
C1252 C1260 1.378 . S
C1253 C1252 1.367 . S
C1253 C1261 1.433 . S
C1254 H1250 0.929 . S
C1254 C1256 1.378 . S
C1254 C1258 1.350 . S
C1255 C1258 1.463 . S
C1255 C1260 1.350 . S
C1255 N1263 1.427 . S
C1256 H1247 0.930 . S
C1256 C1254 1.378 . S
C1256 C1257 1.367 . S
C1257 C1256 1.367 . S
C1257 C1259 1.433 . S
C1258 C1254 1.350 . S
C1258 C1255 1.463 . S
C1258 N1262 1.427 . S
C1259 H1249 0.929 . S
C1259 C1257 1.433 . S
C1259 N1262 1.384 . S
C1260 H1251 0.929 . S
C1260 C1252 1.378 . S
C1260 C1255 1.350 . S
C1261 H1248 0.929 . S
C1261 C1253 1.433 . S
C1261 N1263 1.384 . S
N1262 C1258 1.427 . S
N1262 C1259 1.384 . S
N1263 C1255 1.427 . S
N1263 C1261 1.384 . S
H1264 C1270 0.930 . S
H1265 C1274 0.930 . S
H1266 C1279 0.929 . S
H1267 C1277 0.929 . S
H1268 C1272 0.929 . S
H1269 C1278 0.929 . S
C1270 H1264 0.930 . S
C1270 C1271 1.367 . S
C1270 C1278 1.378 . S
C1271 C1270 1.367 . S
C1271 C1279 1.433 . S
C1272 H1268 0.929 . S
C1272 C1274 1.378 . S
C1272 C1276 1.350 . S
C1273 C1276 1.463 . S
C1273 C1278 1.350 . S
C1273 N1281 1.427 . S
C1274 H1265 0.930 . S
C1274 C1272 1.378 . S
C1274 C1275 1.367 . S
C1275 C1274 1.367 . S
C1275 C1277 1.433 . S
C1276 C1272 1.350 . S
C1276 C1273 1.463 . S
C1276 N1280 1.427 . S
C1277 H1267 0.929 . S
C1277 C1275 1.433 . S
C1277 N1280 1.384 . S
C1278 H1269 0.929 . S
C1278 C1270 1.378 . S
C1278 C1273 1.350 . S
C1279 H1266 0.929 . S
C1279 C1271 1.433 . S
C1279 N1281 1.384 . S
N1280 C1276 1.427 . S
N1280 C1277 1.384 . S
N1281 C1273 1.427 . S
N1281 C1279 1.384 . S
H1282 C1288 0.930 . S
H1283 C1292 0.930 1_545 S
H1284 C1297 0.929 . S
H1285 C1295 0.929 . S
H1286 C1290 0.929 . S
H1287 C1296 0.929 . S
C1288 H1282 0.930 . S
C1288 C1289 1.367 . S
C1288 C1296 1.378 . S
C1289 C1288 1.367 . S
C1289 C1297 1.433 . S
C1290 H1286 0.929 . S
C1290 C1292 1.378 . S
C1290 C1294 1.350 . S
C1291 C1294 1.463 . S
C1291 C1296 1.350 . S
C1291 N1299 1.427 . S
C1292 H1283 0.930 1_565 S
C1292 C1290 1.378 . S
C1292 C1293 1.367 . S
C1293 C1292 1.367 . S
C1293 C1295 1.433 . S
C1294 C1290 1.350 . S
C1294 C1291 1.463 . S
C1294 N1298 1.427 . S
C1295 H1285 0.929 . S
C1295 C1293 1.433 . S
C1295 N1298 1.384 . S
C1296 H1287 0.929 . S
C1296 C1288 1.378 . S
C1296 C1291 1.350 . S
C1297 H1284 0.929 . S
C1297 C1289 1.433 . S
C1297 N1299 1.384 . S
N1298 C1294 1.427 . S
N1298 C1295 1.384 . S
N1299 C1291 1.427 . S
N1299 C1297 1.384 . S
H1300 C1306 0.930 . S
H1301 C1310 0.930 . S
H1302 C1315 0.929 . S
H1303 C1313 0.929 . S
H1304 C1308 0.929 . S
H1305 C1314 0.929 . S
C1306 H1300 0.930 . S
C1306 C1307 1.367 . S
C1306 C1314 1.378 . S
C1307 C1306 1.367 . S
C1307 C1315 1.433 . S
C1308 H1304 0.929 . S
C1308 C1310 1.378 . S
C1308 C1312 1.350 . S
C1309 C1312 1.463 . S
C1309 C1314 1.350 . S
C1309 N1317 1.427 . S
C1310 H1301 0.930 . S
C1310 C1308 1.378 . S
C1310 C1311 1.367 . S
C1311 C1310 1.367 . S
C1311 C1313 1.433 . S
C1312 C1308 1.350 . S
C1312 C1309 1.463 . S
C1312 N1316 1.427 . S
C1313 H1303 0.929 . S
C1313 C1311 1.433 . S
C1313 N1316 1.384 . S
C1314 H1305 0.929 . S
C1314 C1306 1.378 . S
C1314 C1309 1.350 . S
C1315 H1302 0.929 . S
C1315 C1307 1.433 . S
C1315 N1317 1.384 . S
N1316 C1312 1.427 . S
N1316 C1313 1.384 . S
N1317 C1309 1.427 . S
N1317 C1315 1.384 . S
H1318 C1324 0.930 . S
H1319 C1328 0.930 . S
H1320 C1333 0.929 . S
H1321 C1331 0.929 . S
H1322 C1326 0.929 . S
H1323 C1332 0.929 . S
C1324 H1318 0.930 . S
C1324 C1325 1.367 . S
C1324 C1332 1.378 . S
C1325 C1324 1.367 . S
C1325 C1333 1.433 1_545 S
C1326 H1322 0.929 . S
C1326 C1328 1.378 . S
C1326 C1330 1.350 . S
C1327 C1330 1.463 . S
C1327 C1332 1.350 . S
C1327 N1335 1.427 . S
C1328 H1319 0.930 . S
C1328 C1326 1.378 . S
C1328 C1329 1.367 . S
C1329 C1328 1.367 . S
C1329 C1331 1.433 . S
C1330 C1326 1.350 . S
C1330 C1327 1.463 . S
C1330 N1334 1.427 . S
C1331 H1321 0.929 . S
C1331 C1329 1.433 . S
C1331 N1334 1.384 . S
C1332 H1323 0.929 . S
C1332 C1324 1.378 . S
C1332 C1327 1.350 . S
C1333 H1320 0.929 . S
C1333 C1325 1.433 1_565 S
C1333 N1335 1.384 1_565 S
N1334 C1330 1.427 . S
N1334 C1331 1.384 . S
N1335 C1327 1.427 . S
N1335 C1333 1.384 1_545 S
H1336 C1342 0.930 . S
H1337 C1346 0.930 . S
H1338 C1351 0.929 . S
H1339 C1349 0.929 . S
H1340 C1344 0.929 . S
H1341 C1350 0.929 . S
C1342 H1336 0.930 . S
C1342 C1343 1.367 . S
C1342 C1350 1.378 . S
C1343 C1342 1.367 . S
C1343 C1351 1.433 . S
C1344 H1340 0.929 . S
C1344 C1346 1.378 . S
C1344 C1348 1.350 . S
C1345 C1348 1.463 . S
C1345 C1350 1.350 . S
C1345 N1353 1.427 . S
C1346 H1337 0.930 . S
C1346 C1344 1.378 . S
C1346 C1347 1.367 . S
C1347 C1346 1.367 . S
C1347 C1349 1.433 . S
C1348 C1344 1.350 . S
C1348 C1345 1.463 . S
C1348 N1352 1.427 . S
C1349 H1339 0.929 . S
C1349 C1347 1.433 . S
C1349 N1352 1.384 . S
C1350 H1341 0.929 . S
C1350 C1342 1.378 . S
C1350 C1345 1.350 . S
C1351 H1338 0.929 . S
C1351 C1343 1.433 . S
C1351 N1353 1.384 . S
N1352 C1348 1.427 . S
N1352 C1349 1.384 . S
N1353 C1345 1.427 . S
N1353 C1351 1.384 . S
H1354 C1360 0.930 . S
H1355 C1364 0.930 . S
H1356 C1369 0.929 . S
H1357 C1367 0.929 1_565 S
H1358 C1362 0.929 . S
H1359 C1368 0.929 . S
C1360 H1354 0.930 . S
C1360 C1361 1.367 . S
C1360 C1368 1.378 . S
C1361 C1360 1.367 . S
C1361 C1369 1.433 . S
C1362 H1358 0.929 . S
C1362 C1364 1.378 . S
C1362 C1366 1.350 . S
C1363 C1366 1.463 . S
C1363 C1368 1.350 . S
C1363 N1371 1.427 . S
C1364 H1355 0.930 . S
C1364 C1362 1.378 . S
C1364 C1365 1.367 . S
C1365 C1364 1.367 . S
C1365 C1367 1.433 . S
C1366 C1362 1.350 . S
C1366 C1363 1.463 . S
C1366 N1370 1.427 . S
C1367 H1357 0.929 1_545 S
C1367 C1365 1.433 . S
C1367 N1370 1.384 . S
C1368 H1359 0.929 . S
C1368 C1360 1.378 . S
C1368 C1363 1.350 . S
C1369 H1356 0.929 . S
C1369 C1361 1.433 . S
C1369 N1371 1.384 . S
N1370 C1366 1.427 . S
N1370 C1367 1.384 . S
N1371 C1363 1.427 . S
N1371 C1369 1.384 . S
H1372 C1378 0.930 . S
H1373 C1382 0.930 . S
H1374 C1387 0.929 . S
H1375 C1385 0.929 . S
H1376 C1380 0.929 . S
H1377 C1386 0.929 . S
C1378 H1372 0.930 . S
C1378 C1379 1.367 . S
C1378 C1386 1.378 . S
C1379 C1378 1.367 . S
C1379 C1387 1.433 . S
C1380 H1376 0.929 . S
C1380 C1382 1.378 . S
C1380 C1384 1.350 . S
C1381 C1384 1.463 . S
C1381 C1386 1.350 . S
C1381 N1389 1.427 . S
C1382 H1373 0.930 . S
C1382 C1380 1.378 . S
C1382 C1383 1.367 . S
C1383 C1382 1.367 . S
C1383 C1385 1.433 . S
C1384 C1380 1.350 . S
C1384 C1381 1.463 . S
C1384 N1388 1.427 . S
C1385 H1375 0.929 . S
C1385 C1383 1.433 . S
C1385 N1388 1.384 . S
C1386 H1377 0.929 . S
C1386 C1378 1.378 . S
C1386 C1381 1.350 . S
C1387 H1374 0.929 . S
C1387 C1379 1.433 . S
C1387 N1389 1.384 . S
N1388 C1384 1.427 . S
N1388 C1385 1.384 . S
N1389 C1381 1.427 . S
N1389 C1387 1.384 . S
H1390 C1396 0.930 . S
H1391 C1400 0.930 . S
H1392 C1405 0.929 . S
H1393 C1403 0.929 . S
H1394 C1398 0.929 . S
H1395 C1404 0.929 1_545 S
C1396 H1390 0.930 . S
C1396 C1397 1.367 . S
C1396 C1404 1.378 . S
C1397 C1396 1.367 . S
C1397 C1405 1.433 . S
C1398 H1394 0.929 . S
C1398 C1400 1.378 . S
C1398 C1402 1.350 . S
C1399 C1402 1.463 . S
C1399 C1404 1.350 . S
C1399 N1407 1.427 . S
C1400 H1391 0.930 . S
C1400 C1398 1.378 . S
C1400 C1401 1.367 . S
C1401 C1400 1.367 . S
C1401 C1403 1.433 1_565 S
C1402 C1398 1.350 . S
C1402 C1399 1.463 . S
C1402 N1406 1.427 1_565 S
C1403 H1393 0.929 . S
C1403 C1401 1.433 1_545 S
C1403 N1406 1.384 . S
C1404 H1395 0.929 1_565 S
C1404 C1396 1.378 . S
C1404 C1399 1.350 . S
C1405 H1392 0.929 . S
C1405 C1397 1.433 . S
C1405 N1407 1.384 . S
N1406 C1402 1.427 1_545 S
N1406 C1403 1.384 . S
N1407 C1399 1.427 . S
N1407 C1405 1.384 . S
H1408 C1414 0.930 . S
H1409 C1418 0.930 . S
H1410 C1423 0.929 . S
H1411 C1421 0.929 . S
H1412 C1416 0.929 . S
H1413 C1422 0.929 . S
C1414 H1408 0.930 . S
C1414 C1415 1.367 . S
C1414 C1422 1.378 . S
C1415 C1414 1.367 . S
C1415 C1423 1.433 1_556 S
C1416 H1412 0.929 . S
C1416 C1418 1.378 . S
C1416 C1420 1.350 1_554 S
C1417 C1420 1.463 . S
C1417 C1422 1.350 . S
C1417 N1425 1.427 1_556 S
C1418 H1409 0.930 . S
C1418 C1416 1.378 . S
C1418 C1419 1.367 1_554 S
C1419 C1418 1.367 1_556 S
C1419 C1421 1.433 . S
C1420 C1416 1.350 1_556 S
C1420 C1417 1.463 . S
C1420 N1424 1.427 . S
C1421 H1411 0.929 . S
C1421 C1419 1.433 . S
C1421 N1424 1.384 . S
C1422 H1413 0.929 . S
C1422 C1414 1.378 . S
C1422 C1417 1.350 . S
C1423 H1410 0.929 . S
C1423 C1415 1.433 1_554 S
C1423 N1425 1.384 . S
N1424 C1420 1.427 . S
N1424 C1421 1.384 . S
N1425 C1417 1.427 1_554 S
N1425 C1423 1.384 . S
H1426 C1432 0.930 . S
H1427 C1436 0.930 . S
H1428 C1441 0.929 . S
H1429 C1439 0.929 . S
H1430 C1434 0.929 . S
H1431 C1440 0.929 . S
C1432 H1426 0.930 . S
C1432 C1433 1.367 . S
C1432 C1440 1.378 . S
C1433 C1432 1.367 . S
C1433 C1441 1.433 . S
C1434 H1430 0.929 . S
C1434 C1436 1.378 . S
C1434 C1438 1.350 . S
C1435 C1438 1.463 . S
C1435 C1440 1.350 . S
C1435 N1443 1.427 . S
C1436 H1427 0.930 . S
C1436 C1434 1.378 . S
C1436 C1437 1.367 . S
C1437 C1436 1.367 . S
C1437 C1439 1.433 . S
C1438 C1434 1.350 . S
C1438 C1435 1.463 . S
C1438 N1442 1.427 . S
C1439 H1429 0.929 . S
C1439 C1437 1.433 . S
C1439 N1442 1.384 . S
C1440 H1431 0.929 . S
C1440 C1432 1.378 . S
C1440 C1435 1.350 . S
C1441 H1428 0.929 . S
C1441 C1433 1.433 . S
C1441 N1443 1.384 . S
N1442 C1438 1.427 . S
N1442 C1439 1.384 . S
N1443 C1435 1.427 . S
N1443 C1441 1.384 . S
H1444 C1450 0.930 . S
H1445 C1454 0.930 . S
H1446 C1459 0.929 . S
H1447 C1457 0.929 . S
H1448 C1452 0.929 1_455 S
H1449 C1458 0.929 1_655 S
C1450 H1444 0.930 . S
C1450 C1451 1.367 . S
C1450 C1458 1.378 . S
C1451 C1450 1.367 . S
C1451 C1459 1.433 . S
C1452 H1448 0.929 1_655 S
C1452 C1454 1.378 . S
C1452 C1456 1.350 . S
C1453 C1456 1.463 1_455 S
C1453 C1458 1.350 . S
C1453 N1461 1.427 . S
C1454 H1445 0.930 . S
C1454 C1452 1.378 . S
C1454 C1455 1.367 . S
C1455 C1454 1.367 . S
C1455 C1457 1.433 . S
C1456 C1452 1.350 . S
C1456 C1453 1.463 1_655 S
C1456 N1460 1.427 . S
C1457 H1447 0.929 . S
C1457 C1455 1.433 . S
C1457 N1460 1.384 . S
C1458 H1449 0.929 1_455 S
C1458 C1450 1.378 . S
C1458 C1453 1.350 . S
C1459 H1446 0.929 . S
C1459 C1451 1.433 . S
C1459 N1461 1.384 . S
N1460 C1456 1.427 . S
N1460 C1457 1.384 . S
N1461 C1453 1.427 . S
N1461 C1459 1.384 . S
H1462 C1468 0.930 . S
H1463 C1472 0.930 . S
H1464 C1477 0.929 . S
H1465 C1475 0.929 . S
H1466 C1470 0.929 . S
H1467 C1476 0.929 . S
C1468 H1462 0.930 . S
C1468 C1469 1.367 . S
C1468 C1476 1.378 . S
C1469 C1468 1.367 . S
C1469 C1477 1.433 . S
C1470 H1466 0.929 . S
C1470 C1472 1.378 . S
C1470 C1474 1.350 . S
C1471 C1474 1.463 1_455 S
C1471 C1476 1.350 . S
C1471 N1479 1.427 . S
C1472 H1463 0.930 . S
C1472 C1470 1.378 . S
C1472 C1473 1.367 . S
C1473 C1472 1.367 . S
C1473 C1475 1.433 . S
C1474 C1470 1.350 . S
C1474 C1471 1.463 1_655 S
C1474 N1478 1.427 . S
C1475 H1465 0.929 . S
C1475 C1473 1.433 . S
C1475 N1478 1.384 . S
C1476 H1467 0.929 . S
C1476 C1468 1.378 . S
C1476 C1471 1.350 . S
C1477 H1464 0.929 . S
C1477 C1469 1.433 . S
C1477 N1479 1.384 . S
N1478 C1474 1.427 . S
N1478 C1475 1.384 . S
N1479 C1471 1.427 . S
N1479 C1477 1.384 . S
H1480 C1486 0.930 . S
H1481 C1490 0.930 . S
H1482 C1495 0.929 . S
H1483 C1493 0.929 . S
H1484 C1488 0.929 . S
H1485 C1494 0.929 . S
C1486 H1480 0.930 . S
C1486 C1487 1.367 1_556 S
C1486 C1494 1.378 . S
C1487 C1486 1.367 1_554 S
C1487 C1495 1.433 . S
C1488 H1484 0.929 . S
C1488 C1490 1.378 . S
C1488 C1492 1.350 . S
C1489 C1492 1.463 . S
C1489 C1494 1.350 1_554 S
C1489 N1497 1.427 . S
C1490 H1481 0.930 . S
C1490 C1488 1.378 . S
C1490 C1491 1.367 . S
C1491 C1490 1.367 . S
C1491 C1493 1.433 1_554 S
C1492 C1488 1.350 . S
C1492 C1489 1.463 . S
C1492 N1496 1.427 1_554 S
C1493 H1483 0.929 . S
C1493 C1491 1.433 1_556 S
C1493 N1496 1.384 . S
C1494 H1485 0.929 . S
C1494 C1486 1.378 . S
C1494 C1489 1.350 1_556 S
C1495 H1482 0.929 . S
C1495 C1487 1.433 . S
C1495 N1497 1.384 . S
N1496 C1492 1.427 1_556 S
N1496 C1493 1.384 . S
N1497 C1489 1.427 . S
N1497 C1495 1.384 . S
H1498 C1504 0.930 . S
H1499 C1508 0.930 . S
H1500 C1513 0.929 . S
H1501 C1511 0.929 . S
H1502 C1506 0.929 . S
H1503 C1512 0.929 . S
C1504 H1498 0.930 . S
C1504 C1505 1.367 . S
C1504 C1512 1.378 . S
C1505 C1504 1.367 . S
C1505 C1513 1.433 . S
C1506 H1502 0.929 . S
C1506 C1508 1.378 . S
C1506 C1510 1.350 . S
C1507 C1510 1.463 . S
C1507 C1512 1.350 . S
C1507 N1515 1.427 . S
C1508 H1499 0.930 . S
C1508 C1506 1.378 . S
C1508 C1509 1.367 . S
C1509 C1508 1.367 . S
C1509 C1511 1.433 . S
C1510 C1506 1.350 . S
C1510 C1507 1.463 . S
C1510 N1514 1.427 . S
C1511 H1501 0.929 . S
C1511 C1509 1.433 . S
C1511 N1514 1.384 . S
C1512 H1503 0.929 . S
C1512 C1504 1.378 . S
C1512 C1507 1.350 . S
C1513 H1500 0.929 . S
C1513 C1505 1.433 . S
C1513 N1515 1.384 . S
N1514 C1510 1.427 . S
N1514 C1511 1.384 . S
N1515 C1507 1.427 . S
N1515 C1513 1.384 . S
H1516 C1522 0.930 . S
H1517 C1526 0.930 . S
H1518 C1531 0.929 . S
H1519 C1529 0.929 . S
H1520 C1524 0.929 1_455 S
H1521 C1530 0.929 1_655 S
C1522 H1516 0.930 . S
C1522 C1523 1.367 . S
C1522 C1530 1.378 . S
C1523 C1522 1.367 . S
C1523 C1531 1.433 . S
C1524 H1520 0.929 1_655 S
C1524 C1526 1.378 . S
C1524 C1528 1.350 . S
C1525 C1528 1.463 1_455 S
C1525 C1530 1.350 . S
C1525 N1533 1.427 . S
C1526 H1517 0.930 . S
C1526 C1524 1.378 . S
C1526 C1527 1.367 . S
C1527 C1526 1.367 . S
C1527 C1529 1.433 . S
C1528 C1524 1.350 . S
C1528 C1525 1.463 1_655 S
C1528 N1532 1.427 . S
C1529 H1519 0.929 . S
C1529 C1527 1.433 . S
C1529 N1532 1.384 . S
C1530 H1521 0.929 1_455 S
C1530 C1522 1.378 . S
C1530 C1525 1.350 . S
C1531 H1518 0.929 . S
C1531 C1523 1.433 . S
C1531 N1533 1.384 . S
N1532 C1528 1.427 . S
N1532 C1529 1.384 . S
N1533 C1525 1.427 . S
N1533 C1531 1.384 . S
H1534 C1540 0.930 . S
H1535 C1544 0.930 . S
H1536 C1549 0.929 . S
H1537 C1547 0.929 . S
H1538 C1542 0.929 1_455 S
H1539 C1548 0.929 1_655 S
C1540 H1534 0.930 . S
C1540 C1541 1.367 . S
C1540 C1548 1.378 . S
C1541 C1540 1.367 . S
C1541 C1549 1.433 . S
C1542 H1538 0.929 1_655 S
C1542 C1544 1.378 . S
C1542 C1546 1.350 . S
C1543 C1546 1.463 1_455 S
C1543 C1548 1.350 . S
C1543 N1551 1.427 . S
C1544 H1535 0.930 . S
C1544 C1542 1.378 . S
C1544 C1545 1.367 . S
C1545 C1544 1.367 . S
C1545 C1547 1.433 . S
C1546 C1542 1.350 . S
C1546 C1543 1.463 1_655 S
C1546 N1550 1.427 . S
C1547 H1537 0.929 . S
C1547 C1545 1.433 . S
C1547 N1550 1.384 . S
C1548 H1539 0.929 1_455 S
C1548 C1540 1.378 . S
C1548 C1543 1.350 . S
C1549 H1536 0.929 . S
C1549 C1541 1.433 . S
C1549 N1551 1.384 . S
N1550 C1546 1.427 . S
N1550 C1547 1.384 . S
N1551 C1543 1.427 . S
N1551 C1549 1.384 . S
C551 C253 1.461 . S
C555 C3 1.415 . S
C569 C430 1.459 . S
C573 C37 1.401 . S
C587 C71 1.415 . S
C591 C185 1.459 . S
C605 C498 1.457 . S
C609 C105 1.409 . S
C623 C117 1.457 . S
C627 C137 1.402 . S
C641 C173 1.405 . S
C645 C287 1.456 . S
C659 C205 1.401 . S
C663 C49 1.458 . S
C677 C362 1.461 . S
C681 C241 1.414 . S
C695 C525 1.457 . S
C699 C275 1.411 . S
C713 C307 1.408 . S
C717 C158 1.461 . S
C731 C464 1.457 . S
C735 C341 1.405 . S
C749 C226 1.461 . S
C753 C375 1.411 . S
C767 C396 1.461 . S
C771 C409 1.405 . S
C785 C443 1.402 . S
C789 C15 1.459 . S
C803 C477 1.413 . S
C807 C328 1.461 . S
C821 C83 1.457 . S
C825 C513 1.401 . S
C839 C17 2.168 1_565 S
C843 C479 2.077 . S
C857 C239 2.067 1_655 S
C861 C51 2.169 . S
C875 C411 2.065 . S
C879 C85 2.173 1_545 S
C893 C119 2.167 . S
C897 C171 2.073 . S
C911 C343 2.076 . S
C915 C153 2.170 1_545 S
C929 C103 2.071 1_455 S
C933 C187 2.172 . S
C947 C221 2.172 1_565 S
C951 C273 2.064 . S
C965 C255 2.172 . S
C969 C35 2.071 . S
C983 C289 2.171 . S
C987 C207 2.074 . S
C1001 C323 2.168 . S
C1005 C511 2.077 . S
C1019 C139 2.064 . S
C1023 C357 2.173 . S
C1037 C445 2.073 1_455 S
C1041 C391 2.171 . S
C1055 C69 2.075 . S
C1059 C425 2.171 . S
C1073 C459 2.173 . S
C1077 C377 2.066 . S
C1091 C1 2.076 . S
C1095 C493 2.170 . S
C1109 C309 2.064 1_655 S
C1113 C527 2.172 . S
C1127 C6 1.308 . S
C1131 C312 1.332 . S
C1145 C346 1.329 . S
C1149 C40 1.304 . S
C1163 C380 1.330 . S
C1167 C74 1.307 . S
C1181 C300 1.328 . S
C1185 C108 1.297 . S
C1199 C164 1.302 . S
C1203 C448 1.330 . S
C1217 C176 1.298 . S
C1221 C482 1.328 . S
C1235 C538 1.332 . S
C1239 C232 1.309 . S
C1253 C414 1.329 . S
C1257 C244 1.301 . S
C1271 C62 1.331 . S
C1275 C278 1.304 . S
C1289 C96 1.332 . S
C1293 C334 1.310 1_565 S
C1307 C368 1.297 . S
C1311 C130 1.328 . S
C1325 C402 1.308 1_545 S
C1329 C28 1.331 . S
C1343 C436 1.297 . S
C1347 C198 1.328 . S
C1361 C210 1.332 . S
C1365 C470 1.310 1_545 S
C1379 C504 1.310 . S
C1383 C266 1.332 . S
C1397 C142 1.330 . S
C1401 C516 1.305 1_565 S
C1415 C355 0.787 . S
C1419 C22 0.745 . S
C1433 C56 0.781 . S
C1437 C389 0.740 . S
C1451 C90 0.756 . S
C1455 C294 0.783 . S
C1469 C321 0.741 . S
C1473 C124 0.785 . S
C1487 C151 0.739 . S
C1491 C491 0.781 . S
C1505 C532 0.782 . S
C1509 C192 0.759 . S
C1523 C423 0.750 . S
C1527 C219 0.786 . S
C1541 C260 0.755 . S
C1545 C457 0.756 . S
