# Generated by pormake.
# Topology gsi, (4)-cn, num edge types: 1
# Building blocks:
#     Node 0, Type 0, BuildingBlock: KUFVIS_clean_sbu_0, # of connection points: 4
#     Node 1, Type 0, BuildingBlock: KUFVIS_clean_sbu_0, # of connection points: 4
#     Node 2, Type 0, BuildingBlock: KUFVIS_clean_sbu_0, # of connection points: 4
#     Node 3, Type 0, BuildingBlock: KUFVIS_clean_sbu_0, # of connection points: 4
#     Node 4, Type 0, BuildingBlock: KUFVIS_clean_sbu_0, # of connection points: 4
#     Node 5, Type 0, BuildingBlock: KUFVIS_clean_sbu_0, # of connection points: 4
#     Node 6, Type 0, BuildingBlock: KUFVIS_clean_sbu_0, # of connection points: 4
#     Node 7, Type 0, BuildingBlock: KUFVIS_clean_sbu_0, # of connection points: 4
#     Node 8, Type 0, BuildingBlock: KUFVIS_clean_sbu_0, # of connection points: 4
#     Node 9, Type 0, BuildingBlock: KUFVIS_clean_sbu_0, # of connection points: 4
#     Node 10, Type 0, BuildingBlock: KUFVIS_clean_sbu_0, # of connection points: 4
#     Node 11, Type 0, BuildingBlock: KUFVIS_clean_sbu_0, # of connection points: 4
#     Node 12, Type 0, BuildingBlock: KUFVIS_clean_sbu_0, # of connection points: 4
#     Node 13, Type 0, BuildingBlock: KUFVIS_clean_sbu_0, # of connection points: 4
#     Node 14, Type 0, BuildingBlock: KUFVIS_clean_sbu_0, # of connection points: 4
#     Node 15, Type 0, BuildingBlock: KUFVIS_clean_sbu_0, # of connection points: 4
#     Edge 16, Type (0, 0), BuildingBlock: EZIPEK_clean_linker_0, # of connection points: 2
#     Edge 17, Type (0, 0), BuildingBlock: EZIPEK_clean_linker_0, # of connection points: 2
#     Edge 18, Type (0, 0), BuildingBlock: EZIPEK_clean_linker_0, # of connection points: 2
#     Edge 19, Type (0, 0), BuildingBlock: EZIPEK_clean_linker_0, # of connection points: 2
#     Edge 20, Type (0, 0), BuildingBlock: EZIPEK_clean_linker_0, # of connection points: 2
#     Edge 21, Type (0, 0), BuildingBlock: EZIPEK_clean_linker_0, # of connection points: 2
#     Edge 22, Type (0, 0), BuildingBlock: EZIPEK_clean_linker_0, # of connection points: 2
#     Edge 23, Type (0, 0), BuildingBlock: EZIPEK_clean_linker_0, # of connection points: 2
#     Edge 24, Type (0, 0), BuildingBlock: EZIPEK_clean_linker_0, # of connection points: 2
#     Edge 25, Type (0, 0), BuildingBlock: EZIPEK_clean_linker_0, # of connection points: 2
#     Edge 26, Type (0, 0), BuildingBlock: EZIPEK_clean_linker_0, # of connection points: 2
#     Edge 27, Type (0, 0), BuildingBlock: EZIPEK_clean_linker_0, # of connection points: 2
#     Edge 28, Type (0, 0), BuildingBlock: EZIPEK_clean_linker_0, # of connection points: 2
#     Edge 29, Type (0, 0), BuildingBlock: EZIPEK_clean_linker_0, # of connection points: 2
#     Edge 30, Type (0, 0), BuildingBlock: EZIPEK_clean_linker_0, # of connection points: 2
#     Edge 31, Type (0, 0), BuildingBlock: EZIPEK_clean_linker_0, # of connection points: 2
#     Edge 32, Type (0, 0), BuildingBlock: EZIPEK_clean_linker_0, # of connection points: 2
#     Edge 33, Type (0, 0), BuildingBlock: EZIPEK_clean_linker_0, # of connection points: 2
#     Edge 34, Type (0, 0), BuildingBlock: EZIPEK_clean_linker_0, # of connection points: 2
#     Edge 35, Type (0, 0), BuildingBlock: EZIPEK_clean_linker_0, # of connection points: 2
#     Edge 36, Type (0, 0), BuildingBlock: EZIPEK_clean_linker_0, # of connection points: 2
#     Edge 37, Type (0, 0), BuildingBlock: EZIPEK_clean_linker_0, # of connection points: 2
#     Edge 38, Type (0, 0), BuildingBlock: EZIPEK_clean_linker_0, # of connection points: 2
#     Edge 39, Type (0, 0), BuildingBlock: EZIPEK_clean_linker_0, # of connection points: 2
#     Edge 40, Type (0, 0), BuildingBlock: EZIPEK_clean_linker_0, # of connection points: 2
#     Edge 41, Type (0, 0), BuildingBlock: EZIPEK_clean_linker_0, # of connection points: 2
#     Edge 42, Type (0, 0), BuildingBlock: EZIPEK_clean_linker_0, # of connection points: 2
#     Edge 43, Type (0, 0), BuildingBlock: EZIPEK_clean_linker_0, # of connection points: 2
#     Edge 44, Type (0, 0), BuildingBlock: EZIPEK_clean_linker_0, # of connection points: 2
#     Edge 45, Type (0, 0), BuildingBlock: EZIPEK_clean_linker_0, # of connection points: 2
#     Edge 46, Type (0, 0), BuildingBlock: EZIPEK_clean_linker_0, # of connection points: 2
#     Edge 47, Type (0, 0), BuildingBlock: EZIPEK_clean_linker_0, # of connection points: 2
# Relax obj value: 0.108
# Max RMSD: 0.171
# Mean RMSD: 0.121
data_MOF--net-gsi--node1-KUFVIS_clean_sbu_0--edge1-EZIPEK_clean_linker_0
_symmetry_space_group_name_H-M    P1
_symmetry_Int_Tables_number       1
_symmetry_cell_setting            triclinic
loop_
_symmetry_equiv_pos_as_xyz
'x, y, z'
_cell_length_a     31.313668
_cell_length_b     29.498796
_cell_length_c     29.798701
_cell_angle_alpha  92.151128
_cell_angle_beta   92.26708
_cell_angle_gamma 96.812202
loop_
_atom_site_label
_atom_site_type_symbol
_atom_site_fract_x
_atom_site_fract_y
_atom_site_fract_z
_atom_type_partial_charge
Mn0 Mn 0.15834 0.1775 0.13344 0.0
Mn1 Mn 0.16478 0.19329 0.24481 0.0
C2 C 0.20234 0.24232 0.16569 0.0
C3 C 0.19015 0.14922 0.06869 0.0
C4 C 0.08377 0.20234 0.19021 0.0
O5 O 0.13836 0.11346 0.15846 0.0
O6 O 0.16269 0.12713 0.2309 0.0
C7 C 0.15913 0.13262 0.32929 0.0
N8 N 0.15667 0.18193 0.30939 0.0
C9 C 0.21943 0.23977 0.3669 0.0
C10 C 0.23084 0.15972 0.39976 0.0
C11 C 0.19435 0.11816 0.37149 0.0
C12 C 0.17908 0.2302 0.32443 0.0
H13 H 0.14033 0.10391 0.31155 0.0
C14 C 0.14756 0.10004 0.19807 0.0
O15 O 0.15011 0.15709 0.06741 0.0
O16 O 0.20936 0.15288 0.10791 0.0
N17 N 0.16254 0.25714 0.25703 0.0
C18 C 0.15102 0.29018 0.22965 0.0
C19 C 0.15651 0.33593 0.24545 0.0
C20 C 0.17553 0.34715 0.28836 0.0
C21 C 0.18613 0.31221 0.31594 0.0
C22 C 0.1742 0.26692 0.29975 0.0
H23 H 0.13796 0.28182 0.19593 0.0
O24 O 0.18854 0.24252 0.12423 0.0
O25 O 0.18589 0.20635 0.18582 0.0
O26 O 0.10161 0.2022 0.15191 0.0
O27 O 0.10232 0.18978 0.22624 0.0
C28 C 0.20986 0.32231 0.35699 0.0
C29 C 0.22815 0.28925 0.38166 0.0
H30 H 0.25186 0.14977 0.4269 0.0
H31 H 0.19375 0.08282 0.38013 0.0
H32 H 0.14786 0.36249 0.22398 0.0
H33 H 0.18263 0.38275 0.29943 0.0
H34 H 0.21759 0.3576 0.36886 0.0
H35 H 0.22565 0.25616 0.37549 0.0
Mn36 Mn 0.84883 0.33936 0.18057 0.0
Mn37 Mn 0.88831 0.32589 0.28776 0.0
C38 C 0.81337 0.27925 0.21981 0.0
C39 C 0.8026 0.36876 0.1265 0.0
C40 C 0.93354 0.30131 0.20281 0.0
O41 O 0.87997 0.40312 0.20052 0.0
O42 O 0.89806 0.39095 0.27285 0.0
C43 C 0.85628 0.39314 0.35914 0.0
N44 N 0.85473 0.34245 0.33791 0.0
C45 C 0.79311 0.29086 0.38836 0.0
C46 C 0.78703 0.37409 0.42416 0.0
C47 C 0.824 0.41196 0.39947 0.0
C48 C 0.83084 0.29578 0.34985 0.0
H49 H 0.87877 0.41951 0.34616 0.0
C50 C 0.89359 0.41734 0.2404 0.0
O51 O 0.8396 0.3566 0.11651 0.0
O52 O 0.79361 0.36658 0.16847 0.0
N53 N 0.87915 0.26374 0.30525 0.0
C54 C 0.90213 0.22909 0.2928 0.0
C55 C 0.89496 0.18687 0.31274 0.0
C56 C 0.86484 0.18066 0.34597 0.0
C57 C 0.84179 0.21662 0.35883 0.0
C58 C 0.84946 0.25795 0.33677 0.0
H59 H 0.92665 0.23352 0.26846 0.0
O60 O 0.81531 0.27772 0.17643 0.0
O61 O 0.83706 0.31497 0.24095 0.0
O62 O 0.90569 0.31073 0.17351 0.0
O63 O 0.92958 0.30906 0.24443 0.0
C64 C 0.80987 0.2104 0.39063 0.0
C65 C 0.78342 0.24408 0.4018 0.0
H66 H 0.76792 0.38648 0.45093 0.0
H67 H 0.82755 0.44774 0.41 0.0
H68 H 0.91306 0.15933 0.3029 0.0
H69 H 0.85947 0.14786 0.36132 0.0
H70 H 0.80299 0.17719 0.4048 0.0
H71 H 0.75745 0.23254 0.42298 0.0
Mn72 Mn 0.16757 0.8917 0.35734 0.0
Mn73 Mn 0.16259 0.78662 0.40265 0.0
C74 C 0.21772 0.84216 0.33905 0.0
C75 C 0.14999 0.9423 0.30153 0.0
C76 C 0.20069 0.87388 0.45316 0.0
O77 O 0.10588 0.88183 0.37836 0.0
O78 O 0.10775 0.81231 0.4061 0.0
C79 C 0.09808 0.73549 0.33843 0.0
N80 N 0.13726 0.73964 0.36061 0.0
C81 C 0.14804 0.66307 0.33727 0.0
C82 C 0.10768 0.65791 0.31429 0.0
C83 C 0.08278 0.69451 0.31447 0.0
C84 C 0.16209 0.70529 0.35932 0.0
H85 H 0.07884 0.76328 0.33911 0.0
C86 C 0.08785 0.84612 0.39611 0.0
O87 O 0.16239 0.95653 0.34216 0.0
O88 O 0.14582 0.89837 0.29348 0.0
N89 N 0.2126 0.75534 0.40178 0.0
C90 C 0.24939 0.76478 0.42806 0.0
C91 C 0.27665 0.73083 0.43367 0.0
C92 C 0.26654 0.68784 0.41144 0.0
C93 C 0.22854 0.67874 0.38472 0.0
C94 C 0.20189 0.71345 0.38141 0.0
H95 H 0.25683 0.79716 0.44648 0.0
O96 O 0.22554 0.88593 0.33451 0.0
O97 O 0.1803 0.82795 0.35423 0.0
O98 O 0.19319 0.90174 0.42278 0.0
O99 O 0.1895 0.831 0.44883 0.0
C100 C 0.21495 0.63571 0.36331 0.0
C101 C 0.17478 0.62794 0.33941 0.0
H102 H 0.0955 0.62604 0.29644 0.0
H103 H 0.05161 0.69089 0.29682 0.0
H104 H 0.30445 0.73722 0.45661 0.0
H105 H 0.28726 0.66143 0.41647 0.0
H106 H 0.23499 0.60827 0.3653 0.0
H107 H 0.16473 0.59483 0.32293 0.0
Mn108 Mn 0.85965 0.67116 0.37703 0.0
Mn109 Mn 0.88454 0.68928 0.26852 0.0
C110 C 0.83103 0.7279 0.33765 0.0
C111 C 0.81815 0.63983 0.43512 0.0
C112 C 0.94447 0.72313 0.34822 0.0
O113 O 0.8823 0.61113 0.35693 0.0
O114 O 0.89514 0.62689 0.28466 0.0
C115 C 0.81898 0.62171 0.22094 0.0
N116 N 0.83772 0.66559 0.22793 0.0
C117 C 0.7949 0.69066 0.16704 0.0
C118 C 0.77485 0.6458 0.15949 0.0
C119 C 0.78686 0.61119 0.1867 0.0
C120 C 0.82622 0.69919 0.2021 0.0
H121 H 0.82874 0.5949 0.24099 0.0
C122 C 0.89345 0.59999 0.31739 0.0
O123 O 0.85849 0.65513 0.44158 0.0
O124 O 0.80265 0.63863 0.3939 0.0
N125 N 0.87506 0.74798 0.24752 0.0
C126 C 0.89604 0.78991 0.26024 0.0
C127 C 0.88691 0.82843 0.23708 0.0
C128 C 0.85664 0.82341 0.20071 0.0
C129 C 0.83584 0.77989 0.18791 0.0
C130 C 0.84616 0.74277 0.21232 0.0
H131 H 0.91869 0.7942 0.2886 0.0
O132 O 0.83349 0.7297 0.38118 0.0
O133 O 0.84503 0.69281 0.31802 0.0
O134 O 0.91954 0.70748 0.37815 0.0
O135 O 0.93443 0.71658 0.30654 0.0
C136 C 0.80481 0.77201 0.15223 0.0
C137 C 0.78446 0.72739 0.14164 0.0
H138 H 0.75017 0.63758 0.13297 0.0
H139 H 0.77171 0.57641 0.18102 0.0
H140 H 0.90296 0.86192 0.24744 0.0
H141 H 0.84943 0.85322 0.18304 0.0
H142 H 0.79596 0.80035 0.13349 0.0
H143 H 0.75992 0.72167 0.11481 0.0
Mn144 Mn 0.3566 0.84254 0.66253 0.0
Mn145 Mn 0.39608 0.82856 0.768 0.0
C146 C 0.31821 0.78643 0.70341 0.0
C147 C 0.31202 0.87258 0.60849 0.0
C148 C 0.43976 0.80055 0.68321 0.0
O149 O 0.39042 0.90535 0.68175 0.0
O150 O 0.40913 0.8938 0.75411 0.0
C151 C 0.37032 0.89847 0.84091 0.0
N152 N 0.36667 0.84714 0.82067 0.0
C153 C 0.30702 0.79859 0.87549 0.0
C154 C 0.30391 0.88307 0.90955 0.0
C155 C 0.34031 0.91934 0.8823 0.0
C156 C 0.34275 0.80145 0.83507 0.0
H157 H 0.39255 0.92402 0.82641 0.0
C158 C 0.40337 0.92012 0.72175 0.0
O159 O 0.34819 0.85852 0.59828 0.0
O160 O 0.30327 0.87236 0.65059 0.0
N161 N 0.38091 0.76602 0.78238 0.0
C162 C 0.38666 0.72799 0.75699 0.0
C163 C 0.37622 0.68461 0.7737 0.0
C164 C 0.35672 0.68058 0.81494 0.0
C165 C 0.34487 0.71967 0.83709 0.0
C166 C 0.35647 0.76215 0.81842 0.0
H167 H 0.39806 0.73058 0.72357 0.0
O168 O 0.31989 0.78271 0.66004 0.0
O169 O 0.34383 0.82144 0.72324 0.0
O170 O 0.41091 0.80937 0.65481 0.0
O171 O 0.43669 0.80974 0.72452 0.0
C172 C 0.31875 0.71589 0.87426 0.0
C173 C 0.29744 0.75213 0.89056 0.0
H174 H 0.28632 0.89671 0.93695 0.0
H175 H 0.345 0.95537 0.89186 0.0
H176 H 0.38228 0.65441 0.75438 0.0
H177 H 0.34805 0.6469 0.82757 0.0
H178 H 0.31051 0.68251 0.8876 0.0
H179 H 0.27418 0.74197 0.91512 0.0
Mn180 Mn 0.86166 0.88242 0.86159 0.0
Mn181 Mn 0.83642 0.77597 0.89717 0.0
C182 C 0.8298 0.82648 0.80734 0.0
C183 C 0.85831 0.96159 0.8476 0.0
C184 C 0.9256 0.82171 0.89311 0.0
O185 O 0.85306 0.88958 0.93103 0.0
O186 O 0.81918 0.81909 0.94225 0.0
C187 C 0.74305 0.75178 0.92422 0.0
N188 N 0.77895 0.74783 0.88839 0.0
C189 C 0.73453 0.68845 0.81763 0.0
C190 C 0.67089 0.69468 0.87333 0.0
C191 C 0.69035 0.72836 0.91942 0.0
C192 C 0.78007 0.72113 0.84264 0.0
H193 H 0.75204 0.77157 0.95505 0.0
C194 C 0.82924 0.86122 0.95435 0.0
O195 O 0.8932 0.94459 0.85737 0.0
O196 O 0.82374 0.93245 0.84813 0.0
N197 N 0.853 0.73307 0.85261 0.0
C198 C 0.89252 0.71867 0.84868 0.0
C199 C 0.89887 0.68573 0.81539 0.0
C200 C 0.8639 0.66559 0.78803 0.0
C201 C 0.82246 0.67729 0.7951 0.0
C202 C 0.81874 0.71198 0.82837 0.0
H203 H 0.91887 0.73087 0.87185 0.0
O204 O 0.85535 0.86198 0.79638 0.0
O205 O 0.82503 0.82315 0.85083 0.0
O206 O 0.91652 0.85262 0.86777 0.0
O207 O 0.89702 0.79757 0.91315 0.0
C208 C 0.78641 0.65463 0.76951 0.0
C209 C 0.74329 0.65962 0.77765 0.0
H210 H 0.63717 0.67971 0.87205 0.0
H211 H 0.66914 0.73436 0.94622 0.0
H212 H 0.93048 0.67507 0.81159 0.0
H213 H 0.86903 0.6397 0.76269 0.0
H214 H 0.79181 0.63116 0.74206 0.0
H215 H 0.73327 0.67664 0.80319 0.0
Mn216 Mn 0.15178 0.69073 0.86926 0.0
Mn217 Mn 0.18504 0.80111 0.90735 0.0
C218 C 0.17055 0.74303 0.81431 0.0
C219 C 0.15847 0.61522 0.84434 0.0
C220 C 0.09262 0.75781 0.90357 0.0
O221 O 0.17337 0.68423 0.93467 0.0
O222 O 0.19641 0.75812 0.95449 0.0
C223 C 0.27977 0.81632 0.94818 0.0
N224 N 0.24608 0.82194 0.90773 0.0
C225 C 0.2975 0.85997 0.83994 0.0
C226 C 0.35963 0.84769 0.90068 0.0
C227 C 0.3351 0.82619 0.94748 0.0
C228 C 0.25006 0.8431 0.8613 0.0
H229 H 0.26727 0.80275 0.97886 0.0
C230 C 0.1929 0.71541 0.96187 0.0
O231 O 0.12419 0.62599 0.86288 0.0
O232 O 0.19081 0.64718 0.84484 0.0
N233 N 0.17643 0.844 0.86246 0.0
C234 C 0.1392 0.8615 0.85126 0.0
C235 C 0.1391 0.89425 0.81856 0.0
C236 C 0.17748 0.90965 0.79856 0.0
C237 C 0.21572 0.89225 0.81148 0.0
C238 C 0.21363 0.85838 0.84336 0.0
H239 H 0.10976 0.85133 0.86769 0.0
O240 O 0.14137 0.70834 0.80695 0.0
O241 O 0.18547 0.75016 0.85714 0.0
O242 O 0.09834 0.71876 0.88763 0.0
O243 O 0.12296 0.78917 0.91312 0.0
C244 C 0.25481 0.90783 0.79259 0.0
C245 C 0.29309 0.88882 0.80199 0.0
H246 H 0.39468 0.8553 0.9013 0.0
H247 H 0.35449 0.81956 0.9768 0.0
H248 H 0.10964 0.9081 0.8093 0.0
H249 H 0.17735 0.93543 0.7736 0.0
H250 H 0.25472 0.93191 0.76609 0.0
H251 H 0.31892 0.89999 0.78045 0.0
Mn252 Mn 0.8487 0.19706 0.68456 0.0
Mn253 Mn 0.91621 0.23006 0.7753 0.0
C254 C 0.82197 0.22527 0.75073 0.0
C255 C 0.80652 0.20524 0.61901 0.0
C256 C 0.88269 0.13093 0.75034 0.0
O257 O 0.90702 0.21029 0.65545 0.0
O258 O 0.94801 0.23261 0.71842 0.0
C259 C 0.94814 0.32645 0.75794 0.0
N260 N 0.92832 0.29502 0.78496 0.0
C261 C 0.93182 0.35097 0.84645 0.0
C262 C 0.95156 0.38397 0.81885 0.0
C263 C 0.95954 0.37168 0.77429 0.0
C264 C 0.92006 0.3067 0.8278 0.0
H265 H 0.95563 0.31699 0.72444 0.0
C266 C 0.94261 0.22729 0.67553 0.0
O267 O 0.81923 0.16667 0.62915 0.0
O268 O 0.82161 0.24067 0.64467 0.0
N269 N 0.88993 0.23111 0.83212 0.0
C270 C 0.87161 0.19507 0.85483 0.0
C271 C 0.86391 0.20104 0.90048 0.0
C272 C 0.8743 0.24415 0.92232 0.0
C273 C 0.89206 0.28104 0.89813 0.0
C274 C 0.89992 0.27281 0.85281 0.0
H275 H 0.86423 0.16151 0.83885 0.0
O276 O 0.79834 0.19761 0.7223 0.0
O277 O 0.86191 0.23517 0.74054 0.0
O278 O 0.86338 0.13815 0.7135 0.0
O279 O 0.90612 0.16265 0.77293 0.0
C280 C 0.90395 0.32516 0.91774 0.0
C281 C 0.92372 0.36015 0.89187 0.0
H282 H 0.96101 0.41873 0.83162 0.0
H283 H 0.9752 0.39679 0.75284 0.0
H284 H 0.85123 0.17196 0.91893 0.0
H285 H 0.86952 0.24834 0.95792 0.0
H286 H 0.89825 0.33247 0.95275 0.0
H287 H 0.93264 0.39398 0.90727 0.0
Mn288 Mn 0.18506 0.38063 0.6686 0.0
Mn289 Mn 0.14158 0.33922 0.76438 0.0
C290 C 0.22773 0.35189 0.72457 0.0
C291 C 0.20791 0.37431 0.59326 0.0
C292 C 0.15583 0.44029 0.74533 0.0
O293 O 0.12066 0.36325 0.6499 0.0
O294 O 0.09751 0.33049 0.71379 0.0
C295 C 0.11765 0.24008 0.74401 0.0
N296 N 0.14205 0.2745 0.76824 0.0
C297 C 0.16931 0.22074 0.81769 0.0
C298 C 0.14535 0.18482 0.79233 0.0
C299 C 0.11941 0.19456 0.7553 0.0
C300 C 0.16656 0.26547 0.80448 0.0
H301 H 0.09613 0.24731 0.71708 0.0
C302 C 0.09221 0.33962 0.67225 0.0
O303 O 0.19916 0.41237 0.61154 0.0
O304 O 0.20223 0.3396 0.61887 0.0
N305 N 0.18279 0.34433 0.81434 0.0
C306 C 0.20242 0.38274 0.83689 0.0
C307 C 0.22991 0.37877 0.87454 0.0
C308 C 0.23639 0.33536 0.88923 0.0
C309 C 0.21506 0.29631 0.86629 0.0
C310 C 0.18844 0.30238 0.8286 0.0
H311 H 0.19713 0.41621 0.82642 0.0
O312 O 0.24477 0.38121 0.69693 0.0
O313 O 0.18643 0.34202 0.71991 0.0
O314 O 0.17393 0.43615 0.70816 0.0
O315 O 0.13986 0.40628 0.7669 0.0
C316 C 0.21893 0.25161 0.87962 0.0
C317 C 0.19588 0.21386 0.85551 0.0
H318 H 0.14649 0.14967 0.80111 0.0
H319 H 0.10024 0.16711 0.73594 0.0
H320 H 0.24593 0.40914 0.8923 0.0
H321 H 0.25752 0.33242 0.91839 0.0
H322 H 0.23931 0.24591 0.90856 0.0
H323 H 0.19892 0.17966 0.86625 0.0
Mn324 Mn 0.64094 0.17846 0.38113 0.0
Mn325 Mn 0.66936 0.29009 0.41663 0.0
C326 C 0.66181 0.22955 0.3253 0.0
C327 C 0.65301 0.10199 0.36302 0.0
C328 C 0.57726 0.24334 0.41014 0.0
O329 O 0.65949 0.17454 0.44782 0.0
O330 O 0.68015 0.24909 0.46564 0.0
C331 C 0.76283 0.30576 0.46029 0.0
N332 N 0.73033 0.31189 0.41894 0.0
C333 C 0.78395 0.35295 0.35406 0.0
C334 C 0.84393 0.34028 0.41698 0.0
C335 C 0.81801 0.31688 0.46195 0.0
C336 C 0.73569 0.33421 0.37309 0.0
H337 H 0.74962 0.29143 0.49029 0.0
C338 C 0.67788 0.20682 0.47439 0.0
O339 O 0.61632 0.11278 0.3755 0.0
O340 O 0.68316 0.13606 0.36263 0.0
N341 N 0.66159 0.33212 0.37049 0.0
C342 C 0.62421 0.34847 0.35762 0.0
C343 C 0.62484 0.38287 0.32653 0.0
C344 C 0.664 0.40102 0.30972 0.0
C345 C 0.70228 0.38448 0.32392 0.0
C346 C 0.69952 0.34891 0.35407 0.0
H347 H 0.59403 0.33632 0.37172 0.0
O348 O 0.6339 0.19381 0.31728 0.0
O349 O 0.67374 0.23824 0.36868 0.0
O350 O 0.58517 0.20453 0.39544 0.0
O351 O 0.6065 0.27612 0.4197 0.0
C352 C 0.74191 0.4012 0.30653 0.0
C353 C 0.78039 0.38281 0.31693 0.0
H354 H 0.87892 0.34874 0.41935 0.0
H355 H 0.83647 0.30989 0.4918 0.0
H356 H 0.59526 0.39585 0.31608 0.0
H357 H 0.66431 0.42785 0.28582 0.0
H358 H 0.74247 0.42667 0.28123 0.0
H359 H 0.80699 0.39473 0.29685 0.0
Mn360 Mn 0.6605 0.66081 0.64135 0.0
Mn361 Mn 0.62235 0.67692 0.74386 0.0
C362 C 0.69475 0.72409 0.68699 0.0
C363 C 0.70221 0.63269 0.58398 0.0
C364 C 0.57205 0.68686 0.65734 0.0
O365 O 0.63313 0.59604 0.6598 0.0
O366 O 0.62389 0.61088 0.7337 0.0
C367 C 0.67052 0.63256 0.81946 0.0
N368 N 0.66055 0.67753 0.79506 0.0
C369 C 0.71306 0.74976 0.84711 0.0
C370 C 0.73459 0.67705 0.8888 0.0
C371 C 0.7061 0.62902 0.8638 0.0
C372 C 0.6753 0.72927 0.80413 0.0
H373 H 0.65387 0.60015 0.80701 0.0
C374 C 0.62742 0.58314 0.70041 0.0
O375 O 0.66361 0.64221 0.5762 0.0
O376 O 0.71542 0.63506 0.62586 0.0
N377 N 0.62101 0.74191 0.75485 0.0
C378 C 0.5917 0.76839 0.73831 0.0
C379 C 0.59392 0.81449 0.75204 0.0
C380 C 0.62598 0.83332 0.78352 0.0
C381 C 0.6555 0.80588 0.8015 0.0
C382 C 0.65153 0.75964 0.78571 0.0
H383 H 0.56604 0.75462 0.71548 0.0
O384 O 0.69344 0.72403 0.64342 0.0
O385 O 0.67317 0.68778 0.70329 0.0
O386 O 0.60371 0.68887 0.6324 0.0
O387 O 0.57595 0.67453 0.69738 0.0
C388 C 0.68795 0.82492 0.83374 0.0
C389 C 0.71793 0.80028 0.85533 0.0
H390 H 0.75637 0.6732 0.91765 0.0
H391 H 0.71022 0.59596 0.87667 0.0
H392 H 0.57064 0.83536 0.73864 0.0
H393 H 0.62742 0.86907 0.79397 0.0
H394 H 0.69061 0.86115 0.84247 0.0
H395 H 0.71777 0.76707 0.85344 0.0
Mn396 Mn 0.66797 0.38512 0.87007 0.0
Mn397 Mn 0.66151 0.28304 0.92147 0.0
C398 C 0.7198 0.33554 0.85749 0.0
C399 C 0.65058 0.43242 0.81061 0.0
C400 C 0.69215 0.37401 0.96975 0.0
O401 O 0.60478 0.37351 0.88681 0.0
O402 O 0.60363 0.30177 0.91111 0.0
C403 C 0.61001 0.21702 0.8574 0.0
N404 N 0.64716 0.23016 0.88223 0.0
C405 C 0.66983 0.15541 0.87186 0.0
C406 C 0.63234 0.14162 0.84515 0.0
C407 C 0.60241 0.17268 0.83766 0.0
C408 C 0.67643 0.20066 0.88914 0.0
H409 H 0.58625 0.24006 0.85308 0.0
C410 C 0.58486 0.33537 0.89785 0.0
O411 O 0.66114 0.44876 0.85097 0.0
O412 O 0.64978 0.38855 0.80438 0.0
N413 N 0.71546 0.26015 0.93217 0.0
C414 C 0.74895 0.27797 0.96055 0.0
C415 C 0.78003 0.25027 0.97411 0.0
C416 C 0.77667 0.20461 0.9581 0.0
C417 C 0.74301 0.18744 0.9275 0.0
C418 C 0.71254 0.21651 0.91569 0.0
H419 H 0.75118 0.31247 0.97427 0.0
O420 O 0.72737 0.37912 0.85122 0.0
O421 O 0.682 0.32193 0.87193 0.0
O422 O 0.69065 0.39941 0.93611 0.0
O423 O 0.67707 0.33202 0.96764 0.0
C424 C 0.73732 0.14194 0.91011 0.0
C425 C 0.70085 0.12599 0.88213 0.0
H426 H 0.62602 0.10715 0.83059 0.0
H427 H 0.5731 0.16217 0.81759 0.0
H428 H 0.80581 0.26376 0.99793 0.0
H429 H 0.79966 0.18281 0.97028 0.0
H430 H 0.76052 0.11877 0.91851 0.0
H431 H 0.69671 0.09089 0.86909 0.0
Mn432 Mn 0.34728 0.16711 0.85987 0.0
Mn433 Mn 0.37898 0.18887 0.75441 0.0
C434 C 0.32359 0.2269 0.82055 0.0
C435 C 0.3003 0.13938 0.915 0.0
C436 C 0.43285 0.22109 0.83826 0.0
O437 O 0.3678 0.10612 0.8399 0.0
O438 O 0.39134 0.12703 0.77207 0.0
C439 C 0.31762 0.11869 0.70442 0.0
N440 N 0.33465 0.16311 0.71175 0.0
C441 C 0.28975 0.18672 0.6518 0.0
C442 C 0.27149 0.14126 0.6439 0.0
C443 C 0.28548 0.10707 0.6704 0.0
C444 C 0.32126 0.19629 0.68657 0.0
H445 H 0.32859 0.09231 0.72414 0.0
C446 C 0.3853 0.09785 0.80268 0.0
O447 O 0.34124 0.14988 0.92352 0.0
O448 O 0.28735 0.13894 0.87297 0.0
N449 N 0.36893 0.24669 0.73173 0.0
C450 C 0.39088 0.28876 0.74231 0.0
C451 C 0.38085 0.32665 0.71866 0.0
C452 C 0.34926 0.32077 0.68354 0.0
C453 C 0.32856 0.2769 0.67197 0.0
C454 C 0.33977 0.24042 0.69679 0.0
H455 H 0.41562 0.29362 0.7689 0.0
O456 O 0.32493 0.22785 0.864 0.0
O457 O 0.33657 0.19135 0.8008 0.0
O458 O 0.40951 0.1984 0.86558 0.0
O459 O 0.42438 0.2191 0.79604 0.0
C460 C 0.29711 0.26802 0.63681 0.0
C461 C 0.27762 0.22295 0.62675 0.0
H462 H 0.24679 0.13221 0.61755 0.0
H463 H 0.27173 0.07183 0.66447 0.0
H464 H 0.39744 0.36029 0.72748 0.0
H465 H 0.34142 0.35008 0.66545 0.0
H466 H 0.28745 0.29594 0.618 0.0
H467 H 0.25281 0.21635 0.60029 0.0
Mn468 Mn 0.36226 0.38737 0.35369 0.0
Mn469 Mn 0.3159 0.28013 0.37122 0.0
C470 C 0.3352 0.33999 0.28954 0.0
C471 C 0.36183 0.46661 0.34171 0.0
C472 C 0.40952 0.30949 0.39182 0.0
O473 O 0.34036 0.39111 0.41902 0.0
O474 O 0.30029 0.3221 0.41984 0.0
C475 C 0.25366 0.23058 0.44021 0.0
N476 N 0.28612 0.22547 0.40072 0.0
C477 C 0.22991 0.17713 0.3301 0.0
C478 C 0.1712 0.18872 0.38993 0.0
C479 C 0.19793 0.21554 0.43822 0.0
C480 C 0.28002 0.19967 0.35417 0.0
H481 H 0.26652 0.25018 0.46965 0.0
C482 C 0.31235 0.36231 0.43681 0.0
O483 O 0.39499 0.44982 0.35849 0.0
O484 O 0.32787 0.43706 0.33419 0.0
N485 N 0.33847 0.23938 0.32902 0.0
C486 C 0.37298 0.24672 0.30268 0.0
C487 C 0.37981 0.21362 0.26965 0.0
C488 C 0.34847 0.17589 0.26132 0.0
C489 C 0.31182 0.17136 0.2873 0.0
C490 C 0.31276 0.20034 0.32601 0.0
H491 H 0.39364 0.27837 0.30547 0.0
O492 O 0.36615 0.37276 0.28574 0.0
O493 O 0.32776 0.3328 0.3318 0.0
O494 O 0.40876 0.34827 0.3742 0.0
O495 O 0.37509 0.28294 0.39986 0.0
C496 C 0.27344 0.14522 0.27053 0.0
C497 C 0.23281 0.15003 0.2871 0.0
H498 H 0.13632 0.17957 0.3894 0.0
H499 H 0.1797 0.22342 0.46697 0.0
H500 H 0.40702 0.21906 0.24839 0.0
H501 H 0.35087 0.15327 0.23226 0.0
H502 H 0.27393 0.12438 0.23988 0.0
H503 H 0.22653 0.16663 0.31462 0.0
Mn504 Mn 0.35601 0.70044 0.17763 0.0
Mn505 Mn 0.42069 0.73748 0.26944 0.0
C506 C 0.32617 0.72957 0.24171 0.0
C507 C 0.3159 0.70715 0.11053 0.0
C508 C 0.38922 0.6373 0.24719 0.0
O509 O 0.41472 0.71278 0.14986 0.0
O510 O 0.45379 0.73626 0.21352 0.0
C511 C 0.45146 0.83228 0.24541 0.0
N512 N 0.43248 0.8028 0.27477 0.0
C513 C 0.4356 0.86298 0.33214 0.0
C514 C 0.45497 0.89388 0.30227 0.0
C515 C 0.46263 0.87848 0.25855 0.0
C516 C 0.42409 0.81753 0.31662 0.0
H517 H 0.45818 0.82058 0.2124 0.0
C518 C 0.4499 0.72923 0.17073 0.0
O519 O 0.32812 0.66871 0.12206 0.0
O520 O 0.33019 0.74301 0.13593 0.0
N521 N 0.39427 0.74249 0.32605 0.0
C522 C 0.37831 0.70791 0.35205 0.0
C523 C 0.37235 0.71705 0.39773 0.0
C524 C 0.38161 0.76177 0.41615 0.0
C525 C 0.39742 0.79691 0.38888 0.0
C526 C 0.40419 0.78555 0.34387 0.0
H527 H 0.37194 0.67315 0.33871 0.0
O528 O 0.30444 0.70088 0.2129 0.0
O529 O 0.36659 0.7403 0.23309 0.0
O530 O 0.37128 0.64303 0.20911 0.0
O531 O 0.41038 0.67009 0.27057 0.0
C532 C 0.409 0.84227 0.40536 0.0
C533 C 0.42782 0.87539 0.3769 0.0
H534 H 0.4643 0.92939 0.3126 0.0
H535 H 0.47777 0.90201 0.23527 0.0
H536 H 0.36166 0.68944 0.41901 0.0
H537 H 0.37757 0.76857 0.4516 0.0
H538 H 0.40399 0.85195 0.44002 0.0
H539 H 0.43659 0.91017 0.38991 0.0
Mn540 Mn 0.69331 0.87771 0.18017 0.0
Mn541 Mn 0.64459 0.83169 0.27134 0.0
C542 C 0.7332 0.84827 0.23785 0.0
C543 C 0.72082 0.87403 0.1067 0.0
C544 C 0.65853 0.93355 0.25634 0.0
O545 O 0.63039 0.86007 0.15693 0.0
O546 O 0.60388 0.82386 0.21774 0.0
C547 C 0.62262 0.73288 0.24821 0.0
N548 N 0.64563 0.76698 0.2741 0.0
C549 C 0.67002 0.71248 0.32458 0.0
C550 C 0.64786 0.67687 0.29731 0.0
C551 C 0.62399 0.68715 0.25898 0.0
C552 C 0.66782 0.75743 0.31179 0.0
H553 H 0.6023 0.74051 0.22044 0.0
C554 C 0.60095 0.8349 0.17648 0.0
O555 O 0.71042 0.91135 0.1251 0.0
O556 O 0.71417 0.83847 0.13109 0.0
N557 N 0.6827 0.83619 0.32384 0.0
C558 C 0.7011 0.87434 0.34777 0.0
C559 C 0.72636 0.86982 0.38696 0.0
C560 C 0.73205 0.82618 0.40159 0.0
C561 C 0.71226 0.78742 0.37695 0.0
C562 C 0.68781 0.79402 0.33783 0.0
H563 H 0.69683 0.90806 0.33705 0.0
O564 O 0.7514 0.87885 0.21214 0.0
O565 O 0.69228 0.83733 0.23029 0.0
O566 O 0.67855 0.93159 0.22008 0.0
O567 O 0.64176 0.89816 0.27529 0.0
C568 C 0.71565 0.74251 0.38989 0.0
C569 C 0.69425 0.70507 0.36393 0.0
H570 H 0.64867 0.64156 0.3057 0.0
H571 H 0.60598 0.65995 0.23825 0.0
H572 H 0.74139 0.89995 0.40587 0.0
H573 H 0.75149 0.82282 0.4319 0.0
H574 H 0.73436 0.73637 0.41992 0.0
H575 H 0.69686 0.67069 0.37438 0.0
C576 C 0.27426 0.25156 0.20629 0.0
C577 C 0.24238 0.27271 0.18431 0.0
C578 C 0.28401 0.34525 0.21665 0.0
C579 C 0.30616 0.31927 0.24836 0.0
N580 N 0.26761 0.25786 0.2805 0.0
N581 N 0.22076 0.34541 0.16436 0.0
C582 C 0.29065 0.27268 0.24645 0.0
C583 C 0.24867 0.32179 0.18737 0.0
N584 N 0.28162 0.20818 0.19603 0.0
N585 N 0.2945 0.39136 0.21601 0.0
H586 H 0.19608 0.32881 0.14305 0.0
H587 H 0.22089 0.38065 0.16811 0.0
H588 H 0.31769 0.40915 0.23815 0.0
H589 H 0.28172 0.4114 0.19208 0.0
H590 H 0.26853 0.18993 0.16706 0.0
H591 H 0.26853 0.18993 0.16706 0.0
H592 H 0.26712 0.27826 0.30935 0.0
H593 H 0.26712 0.27826 0.30935 0.0
C594 C 0.75677 0.283 0.27318 0.0
C595 C 0.77113 0.25867 0.23833 0.0
C596 C 0.6932 0.22228 0.24174 0.0
C597 C 0.69342 0.24052 0.28845 0.0
N598 N 0.7538 0.21673 0.31659 0.0
N599 N 0.73939 0.20428 0.1784 0.0
C600 C 0.73499 0.25351 0.30317 0.0
C601 C 0.73474 0.22783 0.2176 0.0
N602 N 0.73745 0.31879 0.25795 0.0
N603 N 0.65595 0.2022 0.221 0.0
H604 H 0.76867 0.20664 0.16268 0.0
H605 H 0.71525 0.18033 0.1638 0.0
H606 H 0.62675 0.20051 0.23685 0.0
H607 H 0.65387 0.1909 0.18737 0.0
H608 H 0.70576 0.32274 0.26502 0.0
H609 H 0.74977 0.33812 0.23172 0.0
H610 H 0.78109 0.20727 0.30164 0.0
H611 H 0.73699 0.1906 0.33371 0.0
C612 C 0.25839 0.73939 0.28148 0.0
C613 C 0.30158 0.75669 0.27294 0.0
C614 C 0.29124 0.82571 0.3169 0.0
C615 C 0.24656 0.81122 0.31877 0.0
N616 N 0.18797 0.76115 0.27971 0.0
N617 N 0.34507 0.82903 0.26208 0.0
C618 C 0.22983 0.77022 0.29463 0.0
C619 C 0.31506 0.80341 0.28528 0.0
N620 N 0.24321 0.69449 0.27378 0.0
N621 N 0.31073 0.86169 0.3431 0.0
H622 H 0.35742 0.81715 0.23256 0.0
H623 H 0.35265 0.86412 0.26876 0.0
H624 H 0.29525 0.87684 0.36901 0.0
H625 H 0.34346 0.87282 0.34161 0.0
H626 H 0.21052 0.68275 0.2744 0.0
H627 H 0.26362 0.66922 0.2713 0.0
H628 H 0.16541 0.78429 0.28254 0.0
H629 H 0.16541 0.78429 0.28254 0.0
C630 C 0.81614 0.80741 0.31968 0.0
C631 C 0.80594 0.75933 0.31309 0.0
C632 C 0.75151 0.77013 0.25461 0.0
C633 C 0.75917 0.81822 0.2635 0.0
N634 N 0.79551 0.88279 0.30734 0.0
N635 N 0.7575 0.69488 0.28235 0.0
C636 C 0.79071 0.83695 0.29675 0.0
C637 C 0.77155 0.74068 0.28306 0.0
N638 N 0.85149 0.82484 0.34603 0.0
N639 N 0.72605 0.75258 0.21816 0.0
H640 H 0.7689 0.67265 0.30506 0.0
H641 H 0.73149 0.67915 0.2625 0.0
H642 H 0.71426 0.77264 0.19365 0.0
H643 H 0.72012 0.71799 0.209 0.0
H644 H 0.8636 0.85929 0.34817 0.0
H645 H 0.8715 0.80443 0.36261 0.0
H646 H 0.81421 0.89797 0.33474 0.0
H647 H 0.7778 0.90544 0.29099 0.0
C648 C 0.23989 0.73595 0.70562 0.0
C649 C 0.27561 0.76924 0.72305 0.0
C650 C 0.24086 0.77122 0.7882 0.0
C651 C 0.19947 0.75475 0.77527 0.0
N652 N 0.16181 0.70943 0.71168 0.0
N653 N 0.24175 0.83217 0.73992 0.0
C654 C 0.19893 0.73215 0.73037 0.0
C655 C 0.26157 0.79713 0.75567 0.0
N656 N 0.24476 0.70849 0.66902 0.0
N657 N 0.26305 0.73939 0.80628 0.0
H658 H 0.24777 0.84629 0.70885 0.0
H659 H 0.24777 0.84629 0.70885 0.0
H660 H 0.24861 0.7083 0.81752 0.0
H661 H 0.24861 0.7083 0.81752 0.0
H662 H 0.22111 0.68255 0.65711 0.0
H663 H 0.27381 0.71001 0.65291 0.0
H664 H 0.15965 0.69472 0.67923 0.0
H665 H 0.13261 0.70927 0.72731 0.0
C666 C 0.7271 0.79948 0.72781 0.0
C667 C 0.73169 0.75422 0.71276 0.0
C668 C 0.80748 0.76801 0.74302 0.0
C669 C 0.79708 0.80388 0.77163 0.0
N670 N 0.75416 0.8664 0.77577 0.0
N671 N 0.7872 0.70956 0.68682 0.0
C672 C 0.75904 0.82378 0.75904 0.0
C673 C 0.77488 0.74269 0.7144 0.0
N674 N 0.69387 0.82004 0.70988 0.0
N675 N 0.8492 0.75906 0.74126 0.0
H676 H 0.76699 0.69149 0.66224 0.0
H677 H 0.76699 0.69149 0.66224 0.0
H678 H 0.87423 0.77755 0.76072 0.0
H679 H 0.85866 0.73383 0.71961 0.0
H680 H 0.69021 0.85435 0.71531 0.0
H681 H 0.67103 0.80307 0.68671 0.0
H682 H 0.72723 0.88309 0.76958 0.0
H683 H 0.77712 0.88494 0.79731 0.0
C684 C 0.73073 0.26218 0.81432 0.0
C685 C 0.74809 0.30386 0.83709 0.0
C686 C 0.81376 0.29811 0.79732 0.0
C687 C 0.80035 0.25127 0.78536 0.0
N688 N 0.74677 0.18643 0.79416 0.0
N689 N 0.8123 0.35621 0.85621 0.0
C690 C 0.75944 0.23221 0.79889 0.0
C691 C 0.79204 0.31957 0.83144 0.0
N692 N 0.6883 0.25387 0.80102 0.0
N693 N 0.84205 0.32422 0.77251 0.0
H694 H 0.79843 0.37063 0.88375 0.0
H695 H 0.84426 0.36884 0.85177 0.0
H696 H 0.8534 0.3125 0.7424 0.0
H697 H 0.8495 0.35934 0.77902 0.0
H698 H 0.67607 0.22509 0.78103 0.0
H699 H 0.66688 0.27807 0.80467 0.0
H700 H 0.71578 0.1721 0.80063 0.0
H701 H 0.76847 0.16296 0.78788 0.0
C702 C 0.28734 0.33822 0.7804 0.0
C703 C 0.25428 0.32082 0.74817 0.0
C704 C 0.26486 0.24231 0.76607 0.0
C705 C 0.29986 0.25953 0.79601 0.0
N706 N 0.34766 0.32318 0.82909 0.0
N707 N 0.21871 0.25662 0.70254 0.0
C708 C 0.31175 0.30736 0.80286 0.0
C709 C 0.24519 0.27291 0.73868 0.0
N710 N 0.2947 0.38413 0.79029 0.0
N711 N 0.24954 0.1968 0.76473 0.0
H712 H 0.20633 0.27757 0.67923 0.0
H713 H 0.2126 0.2223 0.69229 0.0
H714 H 0.2607 0.17359 0.78652 0.0
H715 H 0.22263 0.18235 0.74543 0.0
H716 H 0.31442 0.39882 0.81717 0.0
H717 H 0.2787 0.40768 0.77327 0.0
H718 H 0.36093 0.35726 0.8318 0.0
H719 H 0.36686 0.30167 0.84524 0.0
C720 C 0.10897 1.00347 0.26942 0.0
C721 C 0.14285 0.97559 0.2659 0.0
C722 C 0.17255 1.02255 0.20497 0.0
C723 C 0.13951 0.0511 0.20977 0.0
N724 N 0.07029 0.0621 0.23684 0.0
N725 N 0.20156 0.95243 0.2239 0.0
C726 C 0.10553 0.03888 0.2386 0.0
C727 C 0.17259 0.98282 0.23114 0.0
N728 N 0.08114 0.99736 0.30345 0.0
N729 N 0.20535 0.0352 0.17743 0.0
H730 H 0.20394 0.92426 0.24353 0.0
H731 H 0.22125 0.95319 0.19654 0.0
H732 H 0.20494 0.06285 0.15662 0.0
H733 H 0.23351 1.01974 0.17642 0.0
H734 H 0.05893 1.01973 0.31125 0.0
H735 H 0.08196 0.97116 0.32584 0.0
H736 H 0.04255 0.05303 0.25417 0.0
H737 H 0.06743 0.08805 0.2144 0.0
C738 C 0.85638 0.48451 0.26342 0.0
C739 C 0.89561 0.46683 0.25418 0.0
C740 C 0.93527 0.536 0.29222 0.0
C741 C 0.89565 0.55116 0.30424 0.0
N742 N 0.81812 0.53627 0.30564 0.0
N743 N 0.97274 0.47352 0.2644 0.0
C744 C 0.85639 0.52388 0.29179 0.0
C745 C 0.93524 0.49201 0.27002 0.0
N746 N 0.81773 0.46452 0.24571 0.0
N747 N 0.97276 0.56411 0.30126 0.0
H748 H 0.97384 0.44285 0.24607 0.0
H749 H 1.00222 0.4874 0.2794 0.0
H750 H 0.9738 0.5952 0.31945 0.0
H751 H 1.00228 0.55771 0.28912 0.0
H752 H 0.81375 0.43606 0.22355 0.0
H753 H 0.81375 0.43606 0.22355 0.0
H754 H 0.78858 0.51698 0.29705 0.0
H755 H 0.81592 0.56474 0.32684 0.0
C756 C 0.27544 0.18002 0.98283 0.0
C757 C 0.26973 0.1413 0.95241 0.0
C758 C 0.20654 0.1105 0.99401 0.0
C759 C 0.21611 0.14646 0.02747 0.0
N760 N 0.2649 0.21257 0.0558 0.0
N761 N 0.23142 0.06781 0.93034 0.0
C762 C 0.25212 0.18005 0.02255 0.0
C763 C 0.23535 0.10616 0.95806 0.0
N764 N 0.30132 0.21868 0.97272 0.0
N765 N 0.17031 0.08022 0.99688 0.0
H766 H 0.25195 0.06372 0.90415 0.0
H767 H 0.20998 0.03881 0.93505 0.0
H768 H 0.15006 0.08099 0.02378 0.0
H769 H 0.1589 0.05612 0.9715 0.0
H770 H 0.30167 0.24991 0.99036 0.0
H771 H 0.3189 0.22168 0.94401 0.0
H772 H 0.295 0.23207 0.05715 0.0
H773 H 0.24722 0.21888 0.08345 0.0
C774 C 0.7268 0.36383 0.08969 0.0
C775 C 0.77132 0.38128 0.09062 0.0
C776 C 0.76135 0.40736 1.01363 0.0
C777 C 0.7168 0.39005 1.01297 0.0
N778 N 0.6554 0.36806 0.05648 0.0
N779 N 0.82591 0.43397 0.05937 0.0
C780 C 0.69906 0.37439 0.05345 0.0
C781 C 0.78689 0.40777 0.05449 0.0
N782 N 0.71125 0.33383 0.12069 0.0
N783 N 0.78045 0.42045 0.975 0.0
H784 H 0.84455 0.43658 0.08938 0.0
H785 H 0.83724 0.45703 0.03565 0.0
H786 H 0.7637 0.42253 0.94449 0.0
H787 H 0.81374 0.42687 0.97277 0.0
H788 H 0.68004 0.31688 0.11836 0.0
H789 H 0.73023 0.32163 0.14585 0.0
H790 H 0.64041 0.36017 0.0863 0.0
H791 H 0.63466 0.37575 0.03026 0.0
C792 C 0.29498 0.91054 0.5366 0.0
C793 C 0.28044 0.88353 0.57275 0.0
C794 C 0.20814 0.87265 0.53622 0.0
C795 C 0.22509 0.88974 0.49603 0.0
N796 N 0.2862 0.92476 0.45746 0.0
N797 N 0.22301 0.83242 0.60283 0.0
C798 C 0.26878 0.90952 0.49621 0.0
C799 C 0.23669 0.86359 0.57209 0.0
N800 N 0.3336 0.93755 0.54107 0.0
N801 N 0.1646 0.86349 0.53924 0.0
H802 H 0.24323 0.82075 0.6272 0.0
H803 H 0.19246 0.81389 0.6008 0.0
H804 H 0.14318 0.86995 0.51313 0.0
H805 H 0.15006 0.85438 0.569 0.0
H806 H 0.34419 0.96096 0.5174 0.0
H807 H 0.35283 0.94004 0.57067 0.0
H808 H 0.31915 0.93352 0.45437 0.0
H809 H 0.26812 0.92646 0.42765 0.0
C810 C 0.74607 0.59189 0.52846 0.0
C811 C 0.73266 0.63292 0.54653 0.0
C812 C 0.77936 0.67731 0.49553 0.0
C813 C 0.78937 0.63633 0.47401 0.0
N814 N 0.77951 0.55422 0.46702 0.0
N815 N 0.72937 0.71397 0.5395 0.0
C816 C 0.77183 0.59338 0.48959 0.0
C817 C 0.74718 0.67532 0.52777 0.0
N818 N 0.73437 0.55173 0.54858 0.0
N819 N 0.80123 0.71855 0.48617 0.0
H820 H 0.70595 0.71501 0.56309 0.0
H821 H 0.73466 0.74418 0.52243 0.0
H822 H 0.82498 0.72247 0.46278 0.0
H823 H 0.79887 0.74863 0.5049 0.0
H824 H 0.74612 0.52118 0.5399 0.0
H825 H 0.71484 0.54972 0.57619 0.0
H826 H 0.76456 0.52191 0.47373 0.0
H827 H 0.79911 0.55444 0.43948 0.0
C828 C 1.01085 0.29269 0.21717 0.0
C829 C 0.97264 0.27886 0.19082 0.0
C830 C 1.0073 0.21316 0.16165 0.0
C831 C 0.04234 0.22382 0.19393 0.0
N832 N 0.06346 0.26453 0.26557 0.0
N833 N 0.93224 0.2199 0.14228 0.0
C834 C 0.04023 0.26081 0.22561 0.0
C835 C 0.97024 0.2376 0.16372 0.0
N836 N 0.01877 0.33623 0.23527 0.0
N837 N 1.00846 0.17856 0.13016 0.0
H838 H 0.90443 0.23597 0.14286 0.0
H839 H 0.92742 0.18744 0.12657 0.0
H840 H 0.03212 0.15648 0.13086 0.0
H841 H 0.9867 0.17292 0.10258 0.0
H842 H 0.04781 0.34857 0.25235 0.0
H843 H 0.99843 0.361 0.22855 0.0
H844 H 0.06047 0.29017 0.28993 0.0
H845 H 0.08009 0.23885 0.27776 0.0
C846 C 0.9995 0.79064 0.33222 0.0
C847 C 0.98274 0.75734 0.36262 0.0
C848 C 0.02315 0.80362 0.42453 0.0
C849 C 0.04027 0.83486 0.39326 0.0
N850 N 0.0267 0.86995 0.32393 0.0
N851 N 0.99026 0.72673 0.4363 0.0
C852 C 0.02146 0.83265 0.34959 0.0
C853 C 0.99699 0.76275 0.40888 0.0
N854 N 1.00024 0.78036 0.28719 0.0
N855 N 0.03455 0.81251 0.46891 0.0
H856 H 0.97827 0.69391 0.42407 0.0
H857 H 1.00174 0.72747 0.4696 0.0
H858 H 0.05478 0.84207 0.4795 0.0
H859 H 0.0214 0.79342 0.49478 0.0
H860 H 0.01445 0.80323 0.26474 0.0
H861 H 0.9941 0.74714 0.27347 0.0
H862 H 0.01151 0.87083 0.29223 0.0
H863 H 0.04167 0.90128 0.33725 0.0
C864 C 0.49746 0.69553 0.67463 0.0
C865 C 0.5306 0.706 0.64495 0.0
C866 C 0.49745 0.77656 0.62986 0.0
C867 C 0.47403 0.77092 0.66996 0.0
N868 N 0.4778 0.73259 0.74113 0.0
N869 N 0.55797 0.75576 0.58744 0.0
C870 C 0.4803 0.7322 0.69553 0.0
C871 C 0.52908 0.74611 0.61978 0.0
N872 N 0.48819 0.65228 0.68885 0.0
N873 N 0.49119 0.81167 0.60278 0.0
H874 H 0.57718 0.73186 0.57546 0.0
H875 H 0.56251 0.78717 0.57241 0.0
H876 H 0.47217 0.83703 0.61155 0.0
H877 H 0.50383 0.81472 0.57108 0.0
H878 H 0.46424 0.64417 0.71166 0.0
H879 H 0.50217 0.62498 0.67464 0.0
H880 H 0.48465 0.70478 0.75969 0.0
H881 H 0.4758 0.76198 0.76092 0.0
C882 C 0.83173 0.0633 0.7778 0.0
C883 C 0.87455 0.08523 0.77194 0.0
C884 C 0.90173 0.03567 0.82815 0.0
C885 C 0.86076 1.00922 0.82924 0.0
N886 N 0.78436 1.01018 0.81974 0.0
N887 N 0.95082 0.08338 0.78444 0.0
C888 C 0.82491 0.02606 0.80765 0.0
C889 C 0.90956 0.06866 0.79506 0.0
N890 N 0.79734 0.07779 0.7552 0.0
N891 N 0.93231 0.03244 0.86148 0.0
H892 H 0.95798 0.10568 0.75866 0.0
H893 H 0.97738 0.06921 0.7975 0.0
H894 H 0.92565 1.01415 0.89019 0.0
H895 H 0.96154 0.05355 0.86418 0.0
H896 H 0.76684 0.05938 0.75236 0.0
H897 H 0.7989 0.10713 0.73696 0.0
H898 H 0.75639 1.02262 0.80827 0.0
H899 H 0.77876 0.98885 0.84646 0.0
C900 C 0.1946 0.54633 0.81978 0.0
C901 C 0.15821 0.57079 0.81804 0.0
C902 C 0.1195 0.50894 0.76868 0.0
C903 C 0.15713 0.48677 0.76739 0.0
N904 N 0.23377 0.49073 0.78283 0.0
N905 N 0.0911 0.58114 0.77846 0.0
C906 C 0.19576 0.50761 0.79 0.0
C907 C 0.12189 0.55367 0.78919 0.0
N908 N 0.22721 0.55845 0.85133 0.0
N909 N 0.08149 0.48763 0.74997 0.0
H910 H 0.09327 0.61548 0.78886 0.0
H911 H 0.06617 0.57159 0.75453 0.0
H912 H 0.07899 0.45595 0.73264 0.0
H913 H 0.05206 0.50002 0.75443 0.0
H914 H 0.25243 0.53899 0.85696 0.0
H915 H 0.2267 0.58506 0.8752 0.0
H916 H 0.2635 0.50712 0.79501 0.0
H917 H 0.23594 0.46279 0.76103 0.0
C918 C 0.75407 0.91243 0.03671 0.0
C919 C 0.74504 0.87327 0.06351 0.0
C920 C 0.80337 0.83943 0.02864 0.0
C921 C 0.80948 0.87452 0.99751 0.0
N922 N 0.78542 0.94333 0.9691 0.0
N923 N 0.74608 0.79153 0.05997 0.0
C924 C 0.78383 0.91127 1.00107 0.0
C925 C 0.76531 0.83431 0.05251 0.0
N926 N 0.7328 0.94975 0.04313 0.0
N927 N 0.83254 0.80886 0.03318 0.0
H928 H 0.71482 0.78543 0.07103 0.0
H929 H 0.75876 0.76239 0.04817 0.0
H930 H 0.86158 0.81239 1.0168 0.0
H931 H 0.82923 0.78315 0.05636 0.0
H932 H 0.74313 0.98151 0.03059 0.0
H933 H 0.70416 0.9487 0.05982 0.0
H934 H 0.7634 0.967 0.96623 0.0
H935 H 0.80756 0.94522 0.94395 0.0
C936 C 0.21125 0.7238 0.04479 0.0
C937 C 0.21826 0.70318 1.00226 0.0
C938 C 0.28983 0.68747 0.03049 0.0
C939 C 0.28302 0.70809 0.07294 0.0
N940 N 0.2327 0.73563 0.12389 0.0
N941 N 0.26366 0.65908 0.95769 0.0
C942 C 0.24247 0.72356 0.08107 0.0
C943 C 0.25662 0.6825 0.99637 0.0
N944 N 0.17484 0.74447 0.05018 0.0
N945 N 0.32877 0.67318 1.0218 0.0
H946 H 0.24171 0.65311 0.93031 0.0
H947 H 0.24171 0.65311 0.93031 0.0
H948 H 0.35531 0.6785 0.04446 0.0
H949 H 0.33503 0.65785 0.99098 0.0
H950 H 0.17028 0.76577 0.07779 0.0
H951 H 0.14971 0.74172 0.02577 0.0
H952 H 0.20215 0.74215 0.13285 0.0
H953 H 0.25401 0.73541 0.15157 0.0
C954 C 0.7435 0.17682 0.50769 0.0
C955 C 0.70491 0.19675 0.51453 0.0
C956 C 0.73176 0.22019 0.59194 0.0
C957 C 0.77262 0.20634 0.58238 0.0
N958 N 0.81937 0.1787 0.52813 0.0
N959 N 0.66276 0.23916 0.56289 0.0
C960 C 0.77889 0.18643 0.53948 0.0
C961 C 0.69925 0.21889 0.55671 0.0
N962 N 0.74671 0.1485 0.47097 0.0
N963 N 0.72311 0.23256 0.635 0.0
H964 H 0.63683 0.23539 0.53938 0.0
H965 H 0.65899 0.26112 0.59026 0.0
H966 H 0.74559 0.23391 0.66185 0.0
H967 H 0.69253 0.23794 0.64492 0.0
H968 H 0.77221 0.12916 0.46722 0.0
H969 H 0.72218 0.14029 0.4465 0.0
H970 H 0.82694 0.16918 0.49564 0.0
H971 H 0.84634 0.18659 0.54996 0.0
C972 C 0.23536 0.40979 0.51959 0.0
C973 C 0.22971 0.37205 0.54864 0.0
C974 C 0.2875 0.33892 0.51152 0.0
C975 C 0.29109 0.37334 0.47961 0.0
N976 N 0.26238 0.43855 0.44909 0.0
N977 N 0.23449 0.29115 0.54973 0.0
C978 C 0.26366 0.40844 0.4827 0.0
C979 C 0.25114 0.33371 0.53828 0.0
N980 N 0.21216 0.44575 0.5253 0.0
N981 N 0.31825 0.31007 0.51537 0.0
H982 H 0.20379 0.28429 0.56203 0.0
H983 H 0.24846 0.26207 0.54054 0.0
H984 H 0.34582 0.3137 0.49666 0.0
H985 H 0.31764 0.28555 0.53977 0.0
H986 H 0.21978 0.47697 0.51054 0.0
H987 H 0.18463 0.44397 0.54394 0.0
H988 H 0.2395 0.4613 0.44633 0.0
H989 H 0.28267 0.43903 0.42221 0.0
C990 C 0.03091 0.78135 0.85863 0.0
C991 C 0.04896 0.77185 0.90122 0.0
C992 C 0.99047 0.80436 0.93843 0.0
C993 C 0.96998 0.80898 0.89572 0.0
N994 N 0.96722 0.79365 0.81502 0.0
N995 N 0.04475 0.76987 0.98154 0.0
C996 C 0.98936 0.7956 0.85572 0.0
C997 C 0.02838 0.78213 0.94117 0.0
N998 N 0.05413 0.77854 0.82089 0.0
N999 N 0.97443 0.82268 0.97613 0.0
H1000 H 0.07258 0.75371 0.98439 0.0
H1001 H 0.02906 0.77226 1.01154 0.0
H1002 H 0.94746 0.84034 0.97503 0.0
H1003 H 0.98994 0.8242 1.00779 0.0
H1004 H 0.04485 0.79093 0.79016 0.0
H1005 H 0.08465 0.7679 0.82099 0.0
H1006 H 0.97773 0.77832 0.78607 0.0
H1007 H 0.93634 0.80287 0.81056 0.0
C1008 C 0.05511 0.26555 0.64039 0.0
C1009 C 0.05382 0.31306 0.64843 0.0
C1010 C 0.97512 0.2991 0.6424 0.0
C1011 C 0.97734 0.25204 0.64953 0.0
N1012 N 0.01917 0.18904 0.6502 0.0
N1013 N 0.01245 0.37632 0.65236 0.0
C1014 C 0.01724 0.23461 0.64579 0.0
C1015 C 0.01367 0.3304 0.64673 0.0
N1016 N 0.09304 0.2503 0.62965 0.0
N1017 N 0.936 0.31395 0.63444 0.0
H1018 H 0.04047 0.39948 0.65428 0.0
H1019 H 0.98417 0.39098 0.65681 0.0
H1020 H 0.90758 0.29148 0.63186 0.0
H1021 H 0.93231 0.34739 0.62654 0.0
H1022 H 0.09577 0.2163 0.6208 0.0
H1023 H 0.12097 0.27283 0.62621 0.0
H1024 H 0.04797 0.17474 0.653 0.0
H1025 H 0.99143 0.16599 0.65265 0.0
C1026 C 0.51717 0.26784 0.36371 0.0
C1027 C 0.53236 0.25489 0.40607 0.0
C1028 C 0.46601 0.275 0.4395 0.0
C1029 C 0.45271 0.29232 0.39775 0.0
N1030 N 0.47394 0.31538 0.32284 0.0
N1031 N 0.52413 0.24975 0.48555 0.0
C1032 C 0.48055 0.29173 0.36069 0.0
C1033 C 0.5075 0.25935 0.44437 0.0
N1034 N 0.5378 0.25738 0.3257 0.0
N1035 N 0.43951 0.27446 0.47484 0.0
H1036 H 0.55345 0.23652 0.48964 0.0
H1037 H 0.51025 0.25704 0.51574 0.0
H1038 H 0.41134 0.28997 0.47438 0.0
H1039 H 0.44463 0.25731 0.50411 0.0
H1040 H 0.5247 0.26024 0.29337 0.0
H1041 H 0.56601 0.24193 0.32602 0.0
H1042 H 0.49715 0.32122 0.29893 0.0
H1043 H 0.44794 0.33304 0.31592 0.0
C1044 C 0.66943 0.51694 0.7172 0.0
C1045 C 0.62906 0.53455 0.71337 0.0
C1046 C 0.60013 0.47844 0.76756 0.0
C1047 C 0.64137 0.4632 0.77327 0.0
N1048 N 0.71421 0.46439 0.74943 0.0
N1049 N 0.55354 0.52465 0.72609 0.0
C1050 C 0.67523 0.48079 0.74623 0.0
C1051 C 0.59357 0.51252 0.73568 0.0
N1052 N 0.70397 0.53517 0.69486 0.0
N1053 N 0.56782 0.46185 0.79419 0.0
H1054 H 0.54844 0.54904 0.70256 0.0
H1055 H 0.52528 0.50825 0.73809 0.0
H1056 H 0.57144 0.43657 0.81711 0.0
H1057 H 0.53822 0.47443 0.7954 0.0
H1058 H 0.70308 0.56149 0.67262 0.0
H1059 H 0.70308 0.56149 0.67262 0.0
H1060 H 0.74019 0.47686 0.73068 0.0
H1061 H 0.72022 0.43791 0.77016 0.0
C1062 C 0.3554 1.02102 0.77086 0.0
C1063 C 0.39177 0.05007 0.78864 0.0
C1064 C 0.43844 0.99534 0.75851 0.0
C1065 C 0.40208 0.96942 0.73599 0.0
N1066 N 0.32768 0.96813 0.71033 0.0
N1067 N 0.46881 0.06773 0.79549 0.0
C1068 C 0.36108 0.98538 0.7391 0.0
C1069 C 0.43366 0.03806 0.78124 0.0
N1070 N 0.31508 0.02815 0.78326 0.0
N1071 N 0.47744 0.97902 0.75828 0.0
H1072 H 0.46621 0.09785 0.8142 0.0
H1073 H 0.50009 0.06356 0.787 0.0
H1074 H 0.48237 0.94964 0.73952 0.0
H1075 H 0.50414 0.99345 0.77803 0.0
H1076 H 0.28756 1.00605 0.77373 0.0
H1077 H 0.3093 0.05406 0.80613 0.0
H1078 H 0.33156 0.94606 0.6834 0.0
H1079 H 0.29818 0.98117 0.70876 0.0
C1080 C 0.46981 0.28018 0.89718 0.0
C1081 C 0.47025 0.2542 0.85561 0.0
C1082 C 0.53368 0.30475 0.8368 0.0
C1083 C 0.53959 0.32212 0.88173 0.0
N1084 N 0.51386 0.3239 0.95651 0.0
N1085 N 0.51241 0.23556 0.79241 0.0
C1086 C 0.50773 0.30907 0.91258 0.0
C1087 C 0.50487 0.26486 0.82704 0.0
N1088 N 0.43327 0.27977 0.92078 0.0
N1089 N 0.55709 0.32481 0.80384 0.0
H1090 H 0.49571 0.20288 0.78753 0.0
H1091 H 0.53929 0.24115 0.77287 0.0
H1092 H 0.57625 0.35577 0.80988 0.0
H1093 H 0.5524 0.31414 0.77004 0.0
H1094 H 0.43138 0.30095 0.94925 0.0
H1095 H 0.40351 0.26307 0.90933 0.0
H1096 H 0.49384 0.31148 0.98155 0.0
H1097 H 0.54033 0.34702 0.96775 0.0
C1098 C 0.41536 0.57498 0.29282 0.0
C1099 C 0.38092 0.59193 0.26902 0.0
C1100 C 0.33053 0.53115 0.30067 0.0
C1101 C 0.36551 0.51475 0.32454 0.0
N1102 N 0.43605 0.53785 0.35962 0.0
N1103 N 0.30358 0.59097 0.25837 0.0
C1104 C 0.40649 0.54151 0.32543 0.0
C1105 C 0.3379 0.57106 0.27476 0.0
N1106 N 0.45691 0.59032 0.2839 0.0
N1107 N 0.28968 0.5099 0.30405 0.0
H1108 H 0.30629 0.6191 0.23844 0.0
H1109 H 0.27193 0.58157 0.2669 0.0
H1110 H 0.28054 0.49034 0.33123 0.0
H1111 H 0.2646 0.51305 0.28078 0.0
H1112 H 0.48318 0.57608 0.29758 0.0
H1113 H 0.46476 0.61359 0.25911 0.0
H1114 H 0.46527 0.55889 0.36334 0.0
H1115 H 0.42844 0.51949 0.38804 0.0
C1116 C 0.62055 1.02258 0.33517 0.0
C1117 C 0.65778 0.05495 0.34311 0.0
C1118 C 0.69793 1.00495 0.29638 0.0
C1119 C 0.65841 0.97837 0.28165 0.0
N1120 N 0.58092 0.96739 0.28234 0.0
N1121 N 0.73482 0.0716 0.3375 0.0
C1122 C 0.6194 0.98905 0.29956 0.0
C1123 C 0.69732 0.04468 0.32532 0.0
N1124 N 0.58752 1.02114 0.36384 0.0
N1125 N 0.73634 0.99054 0.28562 0.0
H1126 H 0.73858 0.09221 0.36689 0.0
H1127 H 0.7626 0.07222 0.3193 0.0
H1128 H 0.73894 0.96218 0.26463 0.0
H1129 H 0.766 1.0047 0.29998 0.0
H1130 H 0.56095 0.99615 0.361 0.0
H1131 H 0.59007 0.03972 0.39448 0.0
H1132 H 0.55137 0.97681 0.29171 0.0
H1133 H 0.57868 0.94348 0.25536 0.0
C1134 C 0.52511 0.82808 0.14279 0.0
C1135 C 0.56421 0.80937 0.14941 0.0
C1136 C 0.52567 0.73206 0.14548 0.0
C1137 C 0.48633 0.75102 0.14527 0.0
N1138 N 0.44844 0.81336 0.12288 0.0
N1139 N 0.60274 0.74508 0.13491 0.0
C1140 C 0.48619 0.79778 0.13563 0.0
C1141 C 0.56469 0.76166 0.14244 0.0
N1142 N 0.5249 0.87426 0.14652 0.0
N1143 N 0.52576 0.68649 0.15153 0.0
H1144 H 0.63145 0.76684 0.13321 0.0
H1145 H 0.60499 0.71075 0.12707 0.0
H1146 H 0.49715 0.66444 0.15246 0.0
H1147 H 0.5538 0.67132 0.15706 0.0
H1148 H 0.49681 0.88994 0.14704 0.0
H1149 H 0.55337 0.89661 0.15073 0.0
H1150 H 0.44651 0.84666 0.11323 0.0
H1151 H 0.41977 0.79144 0.11829 0.0
loop_
_geom_bond_atom_site_label_1
_geom_bond_atom_site_label_2
_geom_bond_distance
_geom_bond_site_symmetry_2
_ccdc_geom_bond_type
Mn0 O5 2.095 . S
Mn0 O15 2.162 . S
Mn0 O16 2.297 . S
Mn0 O24 2.385 . S
Mn0 O25 2.209 . S
Mn0 O26 2.094 . S
Mn1 O6 2.121 . S
Mn1 N8 2.257 . S
Mn1 N17 2.282 . S
Mn1 O25 2.215 . S
Mn1 O27 2.117 . S
C2 O24 1.234 . S
C2 O25 1.283 . S
C3 O15 1.281 . S
C3 O16 1.236 . S
C4 O26 1.240 . S
C4 O27 1.264 . S
O5 Mn0 2.095 . S
O5 C14 1.250 . S
O6 Mn1 2.121 . S
O6 C14 1.258 . S
C7 N8 1.326 . S
C7 C11 1.460 . S
C7 H13 0.929 . S
N8 Mn1 2.257 . S
N8 C7 1.326 . S
N8 C12 1.362 . S
C9 C10 1.258 . S
C9 C12 1.431 . S
C9 C29 1.449 . S
C10 C9 1.258 . S
C10 C11 1.477 . S
C10 H30 0.931 . S
C11 C7 1.460 . S
C11 C10 1.477 . S
C11 H31 0.930 . S
C12 N8 1.362 . S
C12 C9 1.431 . S
C12 C22 1.476 . S
H13 C7 0.929 . S
C14 O5 1.250 . S
C14 O6 1.258 . S
O15 Mn0 2.162 . S
O15 C3 1.281 . S
O16 Mn0 2.297 . S
O16 C3 1.236 . S
N17 Mn1 2.282 . S
N17 C18 1.328 . S
N17 C22 1.318 . S
C18 N17 1.328 . S
C18 C19 1.457 . S
C18 H23 0.929 . S
C19 C18 1.457 . S
C19 C20 1.291 . S
C19 H32 0.931 . S
C20 C19 1.291 . S
C20 C21 1.373 . S
C20 H33 0.929 . S
C21 C20 1.373 . S
C21 C22 1.396 . S
C21 C28 1.403 . S
C22 C12 1.476 . S
C22 N17 1.318 . S
C22 C21 1.396 . S
H23 C18 0.929 . S
O24 Mn0 2.385 . S
O24 C2 1.234 . S
O25 Mn0 2.209 . S
O25 Mn1 2.215 . S
O25 C2 1.283 . S
O26 Mn0 2.094 . S
O26 C4 1.240 . S
O27 Mn1 2.117 . S
O27 C4 1.264 . S
C28 C21 1.403 . S
C28 C29 1.399 . S
C28 H34 0.929 . S
C29 C9 1.449 . S
C29 C28 1.399 . S
C29 H35 0.930 . S
H30 C10 0.931 . S
H31 C11 0.930 . S
H32 C19 0.931 . S
H33 C20 0.929 . S
H34 C28 0.929 . S
H35 C29 0.930 . S
Mn36 O41 2.095 . S
Mn36 O51 2.162 . S
Mn36 O52 2.297 . S
Mn36 O60 2.385 . S
Mn36 O61 2.209 . S
Mn36 O62 2.094 . S
Mn37 O42 2.121 . S
Mn37 N44 2.257 . S
Mn37 N53 2.282 . S
Mn37 O61 2.215 . S
Mn37 O63 2.117 . S
C38 O60 1.234 . S
C38 O61 1.283 . S
C39 O51 1.281 . S
C39 O52 1.236 . S
C40 O62 1.240 . S
C40 O63 1.264 . S
O41 Mn36 2.095 . S
O41 C50 1.250 . S
O42 Mn37 2.121 . S
O42 C50 1.258 . S
C43 N44 1.326 . S
C43 C47 1.460 . S
C43 H49 0.929 . S
N44 Mn37 2.257 . S
N44 C43 1.326 . S
N44 C48 1.362 . S
C45 C46 1.258 . S
C45 C48 1.431 . S
C45 C65 1.449 . S
C46 C45 1.258 . S
C46 C47 1.477 . S
C46 H66 0.931 . S
C47 C43 1.460 . S
C47 C46 1.477 . S
C47 H67 0.930 . S
C48 N44 1.362 . S
C48 C45 1.431 . S
C48 C58 1.476 . S
H49 C43 0.929 . S
C50 O41 1.250 . S
C50 O42 1.258 . S
O51 Mn36 2.162 . S
O51 C39 1.281 . S
O52 Mn36 2.297 . S
O52 C39 1.236 . S
N53 Mn37 2.282 . S
N53 C54 1.328 . S
N53 C58 1.318 . S
C54 N53 1.328 . S
C54 C55 1.457 . S
C54 H59 0.929 . S
C55 C54 1.457 . S
C55 C56 1.291 . S
C55 H68 0.931 . S
C56 C55 1.291 . S
C56 C57 1.373 . S
C56 H69 0.929 . S
C57 C56 1.373 . S
C57 C58 1.396 . S
C57 C64 1.403 . S
C58 C48 1.476 . S
C58 N53 1.318 . S
C58 C57 1.396 . S
H59 C54 0.929 . S
O60 Mn36 2.385 . S
O60 C38 1.234 . S
O61 Mn36 2.209 . S
O61 Mn37 2.215 . S
O61 C38 1.283 . S
O62 Mn36 2.094 . S
O62 C40 1.240 . S
O63 Mn37 2.117 . S
O63 C40 1.264 . S
C64 C57 1.403 . S
C64 C65 1.399 . S
C64 H70 0.929 . S
C65 C45 1.449 . S
C65 C64 1.399 . S
C65 H71 0.930 . S
H66 C46 0.931 . S
H67 C47 0.930 . S
H68 C55 0.931 . S
H69 C56 0.929 . S
H70 C64 0.929 . S
H71 C65 0.930 . S
Mn72 O77 2.095 . S
Mn72 O87 2.162 . S
Mn72 O88 2.297 . S
Mn72 O96 2.385 . S
Mn72 O97 2.209 . S
Mn72 O98 2.094 . S
Mn73 O78 2.121 . S
Mn73 N80 2.257 . S
Mn73 N89 2.282 . S
Mn73 O97 2.215 . S
Mn73 O99 2.117 . S
C74 O96 1.234 . S
C74 O97 1.283 . S
C75 O87 1.281 . S
C75 O88 1.236 . S
C76 O98 1.240 . S
C76 O99 1.264 . S
O77 Mn72 2.095 . S
O77 C86 1.250 . S
O78 Mn73 2.121 . S
O78 C86 1.258 . S
C79 N80 1.326 . S
C79 C83 1.460 . S
C79 H85 0.929 . S
N80 Mn73 2.257 . S
N80 C79 1.326 . S
N80 C84 1.362 . S
C81 C82 1.258 . S
C81 C84 1.431 . S
C81 C101 1.449 . S
C82 C81 1.258 . S
C82 C83 1.477 . S
C82 H102 0.931 . S
C83 C79 1.460 . S
C83 C82 1.477 . S
C83 H103 0.930 . S
C84 N80 1.362 . S
C84 C81 1.431 . S
C84 C94 1.476 . S
H85 C79 0.929 . S
C86 O77 1.250 . S
C86 O78 1.258 . S
O87 Mn72 2.162 . S
O87 C75 1.281 . S
O88 Mn72 2.297 . S
O88 C75 1.236 . S
N89 Mn73 2.282 . S
N89 C90 1.328 . S
N89 C94 1.318 . S
C90 N89 1.328 . S
C90 C91 1.457 . S
C90 H95 0.929 . S
C91 C90 1.457 . S
C91 C92 1.291 . S
C91 H104 0.931 . S
C92 C91 1.291 . S
C92 C93 1.373 . S
C92 H105 0.929 . S
C93 C92 1.373 . S
C93 C94 1.396 . S
C93 C100 1.403 . S
C94 C84 1.476 . S
C94 N89 1.318 . S
C94 C93 1.396 . S
H95 C90 0.929 . S
O96 Mn72 2.385 . S
O96 C74 1.234 . S
O97 Mn72 2.209 . S
O97 Mn73 2.215 . S
O97 C74 1.283 . S
O98 Mn72 2.094 . S
O98 C76 1.240 . S
O99 Mn73 2.117 . S
O99 C76 1.264 . S
C100 C93 1.403 . S
C100 C101 1.399 . S
C100 H106 0.929 . S
C101 C81 1.449 . S
C101 C100 1.399 . S
C101 H107 0.930 . S
H102 C82 0.931 . S
H103 C83 0.930 . S
H104 C91 0.931 . S
H105 C92 0.929 . S
H106 C100 0.929 . S
H107 C101 0.930 . S
Mn108 O113 2.095 . S
Mn108 O123 2.162 . S
Mn108 O124 2.297 . S
Mn108 O132 2.385 . S
Mn108 O133 2.209 . S
Mn108 O134 2.094 . S
Mn109 O114 2.121 . S
Mn109 N116 2.257 . S
Mn109 N125 2.282 . S
Mn109 O133 2.215 . S
Mn109 O135 2.117 . S
C110 O132 1.234 . S
C110 O133 1.283 . S
C111 O123 1.281 . S
C111 O124 1.236 . S
C112 O134 1.240 . S
C112 O135 1.264 . S
O113 Mn108 2.095 . S
O113 C122 1.250 . S
O114 Mn109 2.121 . S
O114 C122 1.258 . S
C115 N116 1.326 . S
C115 C119 1.460 . S
C115 H121 0.929 . S
N116 Mn109 2.257 . S
N116 C115 1.326 . S
N116 C120 1.362 . S
C117 C118 1.258 . S
C117 C120 1.431 . S
C117 C137 1.449 . S
C118 C117 1.258 . S
C118 C119 1.477 . S
C118 H138 0.931 . S
C119 C115 1.460 . S
C119 C118 1.477 . S
C119 H139 0.930 . S
C120 N116 1.362 . S
C120 C117 1.431 . S
C120 C130 1.476 . S
H121 C115 0.929 . S
C122 O113 1.250 . S
C122 O114 1.258 . S
O123 Mn108 2.162 . S
O123 C111 1.281 . S
O124 Mn108 2.297 . S
O124 C111 1.236 . S
N125 Mn109 2.282 . S
N125 C126 1.328 . S
N125 C130 1.318 . S
C126 N125 1.328 . S
C126 C127 1.457 . S
C126 H131 0.929 . S
C127 C126 1.457 . S
C127 C128 1.291 . S
C127 H140 0.931 . S
C128 C127 1.291 . S
C128 C129 1.373 . S
C128 H141 0.929 . S
C129 C128 1.373 . S
C129 C130 1.396 . S
C129 C136 1.403 . S
C130 C120 1.476 . S
C130 N125 1.318 . S
C130 C129 1.396 . S
H131 C126 0.929 . S
O132 Mn108 2.385 . S
O132 C110 1.234 . S
O133 Mn108 2.209 . S
O133 Mn109 2.215 . S
O133 C110 1.283 . S
O134 Mn108 2.094 . S
O134 C112 1.240 . S
O135 Mn109 2.117 . S
O135 C112 1.264 . S
C136 C129 1.403 . S
C136 C137 1.399 . S
C136 H142 0.929 . S
C137 C117 1.449 . S
C137 C136 1.399 . S
C137 H143 0.930 . S
H138 C118 0.931 . S
H139 C119 0.930 . S
H140 C127 0.931 . S
H141 C128 0.929 . S
H142 C136 0.929 . S
H143 C137 0.930 . S
Mn144 O149 2.095 . S
Mn144 O159 2.162 . S
Mn144 O160 2.297 . S
Mn144 O168 2.385 . S
Mn144 O169 2.209 . S
Mn144 O170 2.094 . S
Mn145 O150 2.121 . S
Mn145 N152 2.257 . S
Mn145 N161 2.282 . S
Mn145 O169 2.215 . S
Mn145 O171 2.117 . S
C146 O168 1.234 . S
C146 O169 1.283 . S
C147 O159 1.281 . S
C147 O160 1.236 . S
C148 O170 1.240 . S
C148 O171 1.264 . S
O149 Mn144 2.095 . S
O149 C158 1.250 . S
O150 Mn145 2.121 . S
O150 C158 1.258 . S
C151 N152 1.326 . S
C151 C155 1.460 . S
C151 H157 0.929 . S
N152 Mn145 2.257 . S
N152 C151 1.326 . S
N152 C156 1.362 . S
C153 C154 1.258 . S
C153 C156 1.431 . S
C153 C173 1.449 . S
C154 C153 1.258 . S
C154 C155 1.477 . S
C154 H174 0.931 . S
C155 C151 1.460 . S
C155 C154 1.477 . S
C155 H175 0.930 . S
C156 N152 1.362 . S
C156 C153 1.431 . S
C156 C166 1.476 . S
H157 C151 0.929 . S
C158 O149 1.250 . S
C158 O150 1.258 . S
O159 Mn144 2.162 . S
O159 C147 1.281 . S
O160 Mn144 2.297 . S
O160 C147 1.236 . S
N161 Mn145 2.282 . S
N161 C162 1.328 . S
N161 C166 1.318 . S
C162 N161 1.328 . S
C162 C163 1.457 . S
C162 H167 0.929 . S
C163 C162 1.457 . S
C163 C164 1.291 . S
C163 H176 0.931 . S
C164 C163 1.291 . S
C164 C165 1.373 . S
C164 H177 0.929 . S
C165 C164 1.373 . S
C165 C166 1.396 . S
C165 C172 1.403 . S
C166 C156 1.476 . S
C166 N161 1.318 . S
C166 C165 1.396 . S
H167 C162 0.929 . S
O168 Mn144 2.385 . S
O168 C146 1.234 . S
O169 Mn144 2.209 . S
O169 Mn145 2.215 . S
O169 C146 1.283 . S
O170 Mn144 2.094 . S
O170 C148 1.240 . S
O171 Mn145 2.117 . S
O171 C148 1.264 . S
C172 C165 1.403 . S
C172 C173 1.399 . S
C172 H178 0.929 . S
C173 C153 1.449 . S
C173 C172 1.399 . S
C173 H179 0.930 . S
H174 C154 0.931 . S
H175 C155 0.930 . S
H176 C163 0.931 . S
H177 C164 0.929 . S
H178 C172 0.929 . S
H179 C173 0.930 . S
Mn180 O185 2.095 . S
Mn180 O195 2.162 . S
Mn180 O196 2.297 . S
Mn180 O204 2.385 . S
Mn180 O205 2.209 . S
Mn180 O206 2.094 . S
Mn181 O186 2.121 . S
Mn181 N188 2.257 . S
Mn181 N197 2.282 . S
Mn181 O205 2.215 . S
Mn181 O207 2.117 . S
C182 O204 1.234 . S
C182 O205 1.283 . S
C183 O195 1.281 . S
C183 O196 1.236 . S
C184 O206 1.240 . S
C184 O207 1.264 . S
O185 Mn180 2.095 . S
O185 C194 1.250 . S
O186 Mn181 2.121 . S
O186 C194 1.258 . S
C187 N188 1.326 . S
C187 C191 1.460 . S
C187 H193 0.929 . S
N188 Mn181 2.257 . S
N188 C187 1.326 . S
N188 C192 1.362 . S
C189 C190 1.258 . S
C189 C192 1.431 . S
C189 C209 1.449 . S
C190 C189 1.258 . S
C190 C191 1.477 . S
C190 H210 0.931 . S
C191 C187 1.460 . S
C191 C190 1.477 . S
C191 H211 0.930 . S
C192 N188 1.362 . S
C192 C189 1.431 . S
C192 C202 1.476 . S
H193 C187 0.929 . S
C194 O185 1.250 . S
C194 O186 1.258 . S
O195 Mn180 2.162 . S
O195 C183 1.281 . S
O196 Mn180 2.297 . S
O196 C183 1.236 . S
N197 Mn181 2.282 . S
N197 C198 1.328 . S
N197 C202 1.318 . S
C198 N197 1.328 . S
C198 C199 1.457 . S
C198 H203 0.929 . S
C199 C198 1.457 . S
C199 C200 1.291 . S
C199 H212 0.931 . S
C200 C199 1.291 . S
C200 C201 1.373 . S
C200 H213 0.929 . S
C201 C200 1.373 . S
C201 C202 1.396 . S
C201 C208 1.403 . S
C202 C192 1.476 . S
C202 N197 1.318 . S
C202 C201 1.396 . S
H203 C198 0.929 . S
O204 Mn180 2.385 . S
O204 C182 1.234 . S
O205 Mn180 2.209 . S
O205 Mn181 2.215 . S
O205 C182 1.283 . S
O206 Mn180 2.094 . S
O206 C184 1.240 . S
O207 Mn181 2.117 . S
O207 C184 1.264 . S
C208 C201 1.403 . S
C208 C209 1.399 . S
C208 H214 0.929 . S
C209 C189 1.449 . S
C209 C208 1.399 . S
C209 H215 0.930 . S
H210 C190 0.931 . S
H211 C191 0.930 . S
H212 C199 0.931 . S
H213 C200 0.929 . S
H214 C208 0.929 . S
H215 C209 0.930 . S
Mn216 O221 2.095 . S
Mn216 O231 2.162 . S
Mn216 O232 2.297 . S
Mn216 O240 2.385 . S
Mn216 O241 2.209 . S
Mn216 O242 2.094 . S
Mn217 O222 2.121 . S
Mn217 N224 2.257 . S
Mn217 N233 2.282 . S
Mn217 O241 2.215 . S
Mn217 O243 2.117 . S
C218 O240 1.234 . S
C218 O241 1.283 . S
C219 O231 1.281 . S
C219 O232 1.236 . S
C220 O242 1.240 . S
C220 O243 1.264 . S
O221 Mn216 2.095 . S
O221 C230 1.250 . S
O222 Mn217 2.121 . S
O222 C230 1.258 . S
C223 N224 1.326 . S
C223 C227 1.460 . S
C223 H229 0.929 . S
N224 Mn217 2.257 . S
N224 C223 1.326 . S
N224 C228 1.362 . S
C225 C226 1.258 . S
C225 C228 1.431 . S
C225 C245 1.449 . S
C226 C225 1.258 . S
C226 C227 1.477 . S
C226 H246 0.931 . S
C227 C223 1.460 . S
C227 C226 1.477 . S
C227 H247 0.930 . S
C228 N224 1.362 . S
C228 C225 1.431 . S
C228 C238 1.476 . S
H229 C223 0.929 . S
C230 O221 1.250 . S
C230 O222 1.258 . S
O231 Mn216 2.162 . S
O231 C219 1.281 . S
O232 Mn216 2.297 . S
O232 C219 1.236 . S
N233 Mn217 2.282 . S
N233 C234 1.328 . S
N233 C238 1.318 . S
C234 N233 1.328 . S
C234 C235 1.457 . S
C234 H239 0.929 . S
C235 C234 1.457 . S
C235 C236 1.291 . S
C235 H248 0.931 . S
C236 C235 1.291 . S
C236 C237 1.373 . S
C236 H249 0.929 . S
C237 C236 1.373 . S
C237 C238 1.396 . S
C237 C244 1.403 . S
C238 C228 1.476 . S
C238 N233 1.318 . S
C238 C237 1.396 . S
H239 C234 0.929 . S
O240 Mn216 2.385 . S
O240 C218 1.234 . S
O241 Mn216 2.209 . S
O241 Mn217 2.215 . S
O241 C218 1.283 . S
O242 Mn216 2.094 . S
O242 C220 1.240 . S
O243 Mn217 2.117 . S
O243 C220 1.264 . S
C244 C237 1.403 . S
C244 C245 1.399 . S
C244 H250 0.929 . S
C245 C225 1.449 . S
C245 C244 1.399 . S
C245 H251 0.930 . S
H246 C226 0.931 . S
H247 C227 0.930 . S
H248 C235 0.931 . S
H249 C236 0.929 . S
H250 C244 0.929 . S
H251 C245 0.930 . S
Mn252 O257 2.095 . S
Mn252 O267 2.162 . S
Mn252 O268 2.297 . S
Mn252 O276 2.385 . S
Mn252 O277 2.209 . S
Mn252 O278 2.094 . S
Mn253 O258 2.121 . S
Mn253 N260 2.257 . S
Mn253 N269 2.282 . S
Mn253 O277 2.215 . S
Mn253 O279 2.117 . S
C254 O276 1.234 . S
C254 O277 1.283 . S
C255 O267 1.281 . S
C255 O268 1.236 . S
C256 O278 1.240 . S
C256 O279 1.264 . S
O257 Mn252 2.095 . S
O257 C266 1.250 . S
O258 Mn253 2.121 . S
O258 C266 1.258 . S
C259 N260 1.326 . S
C259 C263 1.460 . S
C259 H265 0.929 . S
N260 Mn253 2.257 . S
N260 C259 1.326 . S
N260 C264 1.362 . S
C261 C262 1.258 . S
C261 C264 1.431 . S
C261 C281 1.449 . S
C262 C261 1.258 . S
C262 C263 1.477 . S
C262 H282 0.931 . S
C263 C259 1.460 . S
C263 C262 1.477 . S
C263 H283 0.930 . S
C264 N260 1.362 . S
C264 C261 1.431 . S
C264 C274 1.476 . S
H265 C259 0.929 . S
C266 O257 1.250 . S
C266 O258 1.258 . S
O267 Mn252 2.162 . S
O267 C255 1.281 . S
O268 Mn252 2.297 . S
O268 C255 1.236 . S
N269 Mn253 2.282 . S
N269 C270 1.328 . S
N269 C274 1.318 . S
C270 N269 1.328 . S
C270 C271 1.457 . S
C270 H275 0.929 . S
C271 C270 1.457 . S
C271 C272 1.291 . S
C271 H284 0.931 . S
C272 C271 1.291 . S
C272 C273 1.373 . S
C272 H285 0.929 . S
C273 C272 1.373 . S
C273 C274 1.396 . S
C273 C280 1.403 . S
C274 C264 1.476 . S
C274 N269 1.318 . S
C274 C273 1.396 . S
H275 C270 0.929 . S
O276 Mn252 2.385 . S
O276 C254 1.234 . S
O277 Mn252 2.209 . S
O277 Mn253 2.215 . S
O277 C254 1.283 . S
O278 Mn252 2.094 . S
O278 C256 1.240 . S
O279 Mn253 2.117 . S
O279 C256 1.264 . S
C280 C273 1.403 . S
C280 C281 1.399 . S
C280 H286 0.929 . S
C281 C261 1.449 . S
C281 C280 1.399 . S
C281 H287 0.930 . S
H282 C262 0.931 . S
H283 C263 0.930 . S
H284 C271 0.931 . S
H285 C272 0.929 . S
H286 C280 0.929 . S
H287 C281 0.930 . S
Mn288 O293 2.095 . S
Mn288 O303 2.162 . S
Mn288 O304 2.297 . S
Mn288 O312 2.385 . S
Mn288 O313 2.209 . S
Mn288 O314 2.094 . S
Mn289 O294 2.121 . S
Mn289 N296 2.257 . S
Mn289 N305 2.282 . S
Mn289 O313 2.215 . S
Mn289 O315 2.117 . S
C290 O312 1.234 . S
C290 O313 1.283 . S
C291 O303 1.281 . S
C291 O304 1.236 . S
C292 O314 1.240 . S
C292 O315 1.264 . S
O293 Mn288 2.095 . S
O293 C302 1.250 . S
O294 Mn289 2.121 . S
O294 C302 1.258 . S
C295 N296 1.326 . S
C295 C299 1.460 . S
C295 H301 0.929 . S
N296 Mn289 2.257 . S
N296 C295 1.326 . S
N296 C300 1.362 . S
C297 C298 1.258 . S
C297 C300 1.431 . S
C297 C317 1.449 . S
C298 C297 1.258 . S
C298 C299 1.477 . S
C298 H318 0.931 . S
C299 C295 1.460 . S
C299 C298 1.477 . S
C299 H319 0.930 . S
C300 N296 1.362 . S
C300 C297 1.431 . S
C300 C310 1.476 . S
H301 C295 0.929 . S
C302 O293 1.250 . S
C302 O294 1.258 . S
O303 Mn288 2.162 . S
O303 C291 1.281 . S
O304 Mn288 2.297 . S
O304 C291 1.236 . S
N305 Mn289 2.282 . S
N305 C306 1.328 . S
N305 C310 1.318 . S
C306 N305 1.328 . S
C306 C307 1.457 . S
C306 H311 0.929 . S
C307 C306 1.457 . S
C307 C308 1.291 . S
C307 H320 0.931 . S
C308 C307 1.291 . S
C308 C309 1.373 . S
C308 H321 0.929 . S
C309 C308 1.373 . S
C309 C310 1.396 . S
C309 C316 1.403 . S
C310 C300 1.476 . S
C310 N305 1.318 . S
C310 C309 1.396 . S
H311 C306 0.929 . S
O312 Mn288 2.385 . S
O312 C290 1.234 . S
O313 Mn288 2.209 . S
O313 Mn289 2.215 . S
O313 C290 1.283 . S
O314 Mn288 2.094 . S
O314 C292 1.240 . S
O315 Mn289 2.117 . S
O315 C292 1.264 . S
C316 C309 1.403 . S
C316 C317 1.399 . S
C316 H322 0.929 . S
C317 C297 1.449 . S
C317 C316 1.399 . S
C317 H323 0.930 . S
H318 C298 0.931 . S
H319 C299 0.930 . S
H320 C307 0.931 . S
H321 C308 0.929 . S
H322 C316 0.929 . S
H323 C317 0.930 . S
Mn324 O329 2.095 . S
Mn324 O339 2.162 . S
Mn324 O340 2.297 . S
Mn324 O348 2.385 . S
Mn324 O349 2.209 . S
Mn324 O350 2.094 . S
Mn325 O330 2.121 . S
Mn325 N332 2.257 . S
Mn325 N341 2.282 . S
Mn325 O349 2.215 . S
Mn325 O351 2.117 . S
C326 O348 1.234 . S
C326 O349 1.283 . S
C327 O339 1.281 . S
C327 O340 1.236 . S
C328 O350 1.240 . S
C328 O351 1.264 . S
O329 Mn324 2.095 . S
O329 C338 1.250 . S
O330 Mn325 2.121 . S
O330 C338 1.258 . S
C331 N332 1.326 . S
C331 C335 1.460 . S
C331 H337 0.929 . S
N332 Mn325 2.257 . S
N332 C331 1.326 . S
N332 C336 1.362 . S
C333 C334 1.258 . S
C333 C336 1.431 . S
C333 C353 1.449 . S
C334 C333 1.258 . S
C334 C335 1.477 . S
C334 H354 0.931 . S
C335 C331 1.460 . S
C335 C334 1.477 . S
C335 H355 0.930 . S
C336 N332 1.362 . S
C336 C333 1.431 . S
C336 C346 1.476 . S
H337 C331 0.929 . S
C338 O329 1.250 . S
C338 O330 1.258 . S
O339 Mn324 2.162 . S
O339 C327 1.281 . S
O340 Mn324 2.297 . S
O340 C327 1.236 . S
N341 Mn325 2.282 . S
N341 C342 1.328 . S
N341 C346 1.318 . S
C342 N341 1.328 . S
C342 C343 1.457 . S
C342 H347 0.929 . S
C343 C342 1.457 . S
C343 C344 1.291 . S
C343 H356 0.931 . S
C344 C343 1.291 . S
C344 C345 1.373 . S
C344 H357 0.929 . S
C345 C344 1.373 . S
C345 C346 1.396 . S
C345 C352 1.403 . S
C346 C336 1.476 . S
C346 N341 1.318 . S
C346 C345 1.396 . S
H347 C342 0.929 . S
O348 Mn324 2.385 . S
O348 C326 1.234 . S
O349 Mn324 2.209 . S
O349 Mn325 2.215 . S
O349 C326 1.283 . S
O350 Mn324 2.094 . S
O350 C328 1.240 . S
O351 Mn325 2.117 . S
O351 C328 1.264 . S
C352 C345 1.403 . S
C352 C353 1.399 . S
C352 H358 0.929 . S
C353 C333 1.449 . S
C353 C352 1.399 . S
C353 H359 0.930 . S
H354 C334 0.931 . S
H355 C335 0.930 . S
H356 C343 0.931 . S
H357 C344 0.929 . S
H358 C352 0.929 . S
H359 C353 0.930 . S
Mn360 O365 2.095 . S
Mn360 O375 2.162 . S
Mn360 O376 2.297 . S
Mn360 O384 2.385 . S
Mn360 O385 2.209 . S
Mn360 O386 2.094 . S
Mn361 O366 2.121 . S
Mn361 N368 2.257 . S
Mn361 N377 2.282 . S
Mn361 O385 2.215 . S
Mn361 O387 2.117 . S
C362 O384 1.234 . S
C362 O385 1.283 . S
C363 O375 1.281 . S
C363 O376 1.236 . S
C364 O386 1.240 . S
C364 O387 1.264 . S
O365 Mn360 2.095 . S
O365 C374 1.250 . S
O366 Mn361 2.121 . S
O366 C374 1.258 . S
C367 N368 1.326 . S
C367 C371 1.460 . S
C367 H373 0.929 . S
N368 Mn361 2.257 . S
N368 C367 1.326 . S
N368 C372 1.362 . S
C369 C370 1.258 . S
C369 C372 1.431 . S
C369 C389 1.449 . S
C370 C369 1.258 . S
C370 C371 1.477 . S
C370 H390 0.931 . S
C371 C367 1.460 . S
C371 C370 1.477 . S
C371 H391 0.930 . S
C372 N368 1.362 . S
C372 C369 1.431 . S
C372 C382 1.476 . S
H373 C367 0.929 . S
C374 O365 1.250 . S
C374 O366 1.258 . S
O375 Mn360 2.162 . S
O375 C363 1.281 . S
O376 Mn360 2.297 . S
O376 C363 1.236 . S
N377 Mn361 2.282 . S
N377 C378 1.328 . S
N377 C382 1.318 . S
C378 N377 1.328 . S
C378 C379 1.457 . S
C378 H383 0.929 . S
C379 C378 1.457 . S
C379 C380 1.291 . S
C379 H392 0.931 . S
C380 C379 1.291 . S
C380 C381 1.373 . S
C380 H393 0.929 . S
C381 C380 1.373 . S
C381 C382 1.396 . S
C381 C388 1.403 . S
C382 C372 1.476 . S
C382 N377 1.318 . S
C382 C381 1.396 . S
H383 C378 0.929 . S
O384 Mn360 2.385 . S
O384 C362 1.234 . S
O385 Mn360 2.209 . S
O385 Mn361 2.215 . S
O385 C362 1.283 . S
O386 Mn360 2.094 . S
O386 C364 1.240 . S
O387 Mn361 2.117 . S
O387 C364 1.264 . S
C388 C381 1.403 . S
C388 C389 1.399 . S
C388 H394 0.929 . S
C389 C369 1.449 . S
C389 C388 1.399 . S
C389 H395 0.930 . S
H390 C370 0.931 . S
H391 C371 0.930 . S
H392 C379 0.931 . S
H393 C380 0.929 . S
H394 C388 0.929 . S
H395 C389 0.930 . S
Mn396 O401 2.095 . S
Mn396 O411 2.162 . S
Mn396 O412 2.297 . S
Mn396 O420 2.385 . S
Mn396 O421 2.209 . S
Mn396 O422 2.094 . S
Mn397 O402 2.121 . S
Mn397 N404 2.257 . S
Mn397 N413 2.282 . S
Mn397 O421 2.215 . S
Mn397 O423 2.117 . S
C398 O420 1.234 . S
C398 O421 1.283 . S
C399 O411 1.281 . S
C399 O412 1.236 . S
C400 O422 1.240 . S
C400 O423 1.264 . S
O401 Mn396 2.095 . S
O401 C410 1.250 . S
O402 Mn397 2.121 . S
O402 C410 1.258 . S
C403 N404 1.326 . S
C403 C407 1.460 . S
C403 H409 0.929 . S
N404 Mn397 2.257 . S
N404 C403 1.326 . S
N404 C408 1.362 . S
C405 C406 1.258 . S
C405 C408 1.431 . S
C405 C425 1.449 . S
C406 C405 1.258 . S
C406 C407 1.477 . S
C406 H426 0.931 . S
C407 C403 1.460 . S
C407 C406 1.477 . S
C407 H427 0.930 . S
C408 N404 1.362 . S
C408 C405 1.431 . S
C408 C418 1.476 . S
H409 C403 0.929 . S
C410 O401 1.250 . S
C410 O402 1.258 . S
O411 Mn396 2.162 . S
O411 C399 1.281 . S
O412 Mn396 2.297 . S
O412 C399 1.236 . S
N413 Mn397 2.282 . S
N413 C414 1.328 . S
N413 C418 1.318 . S
C414 N413 1.328 . S
C414 C415 1.457 . S
C414 H419 0.929 . S
C415 C414 1.457 . S
C415 C416 1.291 . S
C415 H428 0.931 . S
C416 C415 1.291 . S
C416 C417 1.373 . S
C416 H429 0.929 . S
C417 C416 1.373 . S
C417 C418 1.396 . S
C417 C424 1.403 . S
C418 C408 1.476 . S
C418 N413 1.318 . S
C418 C417 1.396 . S
H419 C414 0.929 . S
O420 Mn396 2.385 . S
O420 C398 1.234 . S
O421 Mn396 2.209 . S
O421 Mn397 2.215 . S
O421 C398 1.283 . S
O422 Mn396 2.094 . S
O422 C400 1.240 . S
O423 Mn397 2.117 . S
O423 C400 1.264 . S
C424 C417 1.403 . S
C424 C425 1.399 . S
C424 H430 0.929 . S
C425 C405 1.449 . S
C425 C424 1.399 . S
C425 H431 0.930 . S
H426 C406 0.931 . S
H427 C407 0.930 . S
H428 C415 0.931 . S
H429 C416 0.929 . S
H430 C424 0.929 . S
H431 C425 0.930 . S
Mn432 O437 2.095 . S
Mn432 O447 2.162 . S
Mn432 O448 2.297 . S
Mn432 O456 2.385 . S
Mn432 O457 2.209 . S
Mn432 O458 2.094 . S
Mn433 O438 2.121 . S
Mn433 N440 2.257 . S
Mn433 N449 2.282 . S
Mn433 O457 2.215 . S
Mn433 O459 2.117 . S
C434 O456 1.234 . S
C434 O457 1.283 . S
C435 O447 1.281 . S
C435 O448 1.236 . S
C436 O458 1.240 . S
C436 O459 1.264 . S
O437 Mn432 2.095 . S
O437 C446 1.250 . S
O438 Mn433 2.121 . S
O438 C446 1.258 . S
C439 N440 1.326 . S
C439 C443 1.460 . S
C439 H445 0.929 . S
N440 Mn433 2.257 . S
N440 C439 1.326 . S
N440 C444 1.362 . S
C441 C442 1.258 . S
C441 C444 1.431 . S
C441 C461 1.449 . S
C442 C441 1.258 . S
C442 C443 1.477 . S
C442 H462 0.931 . S
C443 C439 1.460 . S
C443 C442 1.477 . S
C443 H463 0.930 . S
C444 N440 1.362 . S
C444 C441 1.431 . S
C444 C454 1.476 . S
H445 C439 0.929 . S
C446 O437 1.250 . S
C446 O438 1.258 . S
O447 Mn432 2.162 . S
O447 C435 1.281 . S
O448 Mn432 2.297 . S
O448 C435 1.236 . S
N449 Mn433 2.282 . S
N449 C450 1.328 . S
N449 C454 1.318 . S
C450 N449 1.328 . S
C450 C451 1.457 . S
C450 H455 0.929 . S
C451 C450 1.457 . S
C451 C452 1.291 . S
C451 H464 0.931 . S
C452 C451 1.291 . S
C452 C453 1.373 . S
C452 H465 0.929 . S
C453 C452 1.373 . S
C453 C454 1.396 . S
C453 C460 1.403 . S
C454 C444 1.476 . S
C454 N449 1.318 . S
C454 C453 1.396 . S
H455 C450 0.929 . S
O456 Mn432 2.385 . S
O456 C434 1.234 . S
O457 Mn432 2.209 . S
O457 Mn433 2.215 . S
O457 C434 1.283 . S
O458 Mn432 2.094 . S
O458 C436 1.240 . S
O459 Mn433 2.117 . S
O459 C436 1.264 . S
C460 C453 1.403 . S
C460 C461 1.399 . S
C460 H466 0.929 . S
C461 C441 1.449 . S
C461 C460 1.399 . S
C461 H467 0.930 . S
H462 C442 0.931 . S
H463 C443 0.930 . S
H464 C451 0.931 . S
H465 C452 0.929 . S
H466 C460 0.929 . S
H467 C461 0.930 . S
Mn468 O473 2.095 . S
Mn468 O483 2.162 . S
Mn468 O484 2.297 . S
Mn468 O492 2.385 . S
Mn468 O493 2.209 . S
Mn468 O494 2.094 . S
Mn469 O474 2.121 . S
Mn469 N476 2.257 . S
Mn469 N485 2.282 . S
Mn469 O493 2.215 . S
Mn469 O495 2.117 . S
C470 O492 1.234 . S
C470 O493 1.283 . S
C471 O483 1.281 . S
C471 O484 1.236 . S
C472 O494 1.240 . S
C472 O495 1.264 . S
O473 Mn468 2.095 . S
O473 C482 1.250 . S
O474 Mn469 2.121 . S
O474 C482 1.258 . S
C475 N476 1.326 . S
C475 C479 1.460 . S
C475 H481 0.929 . S
N476 Mn469 2.257 . S
N476 C475 1.326 . S
N476 C480 1.362 . S
C477 C478 1.258 . S
C477 C480 1.431 . S
C477 C497 1.449 . S
C478 C477 1.258 . S
C478 C479 1.477 . S
C478 H498 0.931 . S
C479 C475 1.460 . S
C479 C478 1.477 . S
C479 H499 0.930 . S
C480 N476 1.362 . S
C480 C477 1.431 . S
C480 C490 1.476 . S
H481 C475 0.929 . S
C482 O473 1.250 . S
C482 O474 1.258 . S
O483 Mn468 2.162 . S
O483 C471 1.281 . S
O484 Mn468 2.297 . S
O484 C471 1.236 . S
N485 Mn469 2.282 . S
N485 C486 1.328 . S
N485 C490 1.318 . S
C486 N485 1.328 . S
C486 C487 1.457 . S
C486 H491 0.929 . S
C487 C486 1.457 . S
C487 C488 1.291 . S
C487 H500 0.931 . S
C488 C487 1.291 . S
C488 C489 1.373 . S
C488 H501 0.929 . S
C489 C488 1.373 . S
C489 C490 1.396 . S
C489 C496 1.403 . S
C490 C480 1.476 . S
C490 N485 1.318 . S
C490 C489 1.396 . S
H491 C486 0.929 . S
O492 Mn468 2.385 . S
O492 C470 1.234 . S
O493 Mn468 2.209 . S
O493 Mn469 2.215 . S
O493 C470 1.283 . S
O494 Mn468 2.094 . S
O494 C472 1.240 . S
O495 Mn469 2.117 . S
O495 C472 1.264 . S
C496 C489 1.403 . S
C496 C497 1.399 . S
C496 H502 0.929 . S
C497 C477 1.449 . S
C497 C496 1.399 . S
C497 H503 0.930 . S
H498 C478 0.931 . S
H499 C479 0.930 . S
H500 C487 0.931 . S
H501 C488 0.929 . S
H502 C496 0.929 . S
H503 C497 0.930 . S
Mn504 O509 2.095 . S
Mn504 O519 2.162 . S
Mn504 O520 2.297 . S
Mn504 O528 2.385 . S
Mn504 O529 2.209 . S
Mn504 O530 2.094 . S
Mn505 O510 2.121 . S
Mn505 N512 2.257 . S
Mn505 N521 2.282 . S
Mn505 O529 2.215 . S
Mn505 O531 2.117 . S
C506 O528 1.234 . S
C506 O529 1.283 . S
C507 O519 1.281 . S
C507 O520 1.236 . S
C508 O530 1.240 . S
C508 O531 1.264 . S
O509 Mn504 2.095 . S
O509 C518 1.250 . S
O510 Mn505 2.121 . S
O510 C518 1.258 . S
C511 N512 1.326 . S
C511 C515 1.460 . S
C511 H517 0.929 . S
N512 Mn505 2.257 . S
N512 C511 1.326 . S
N512 C516 1.362 . S
C513 C514 1.258 . S
C513 C516 1.431 . S
C513 C533 1.449 . S
C514 C513 1.258 . S
C514 C515 1.477 . S
C514 H534 0.931 . S
C515 C511 1.460 . S
C515 C514 1.477 . S
C515 H535 0.930 . S
C516 N512 1.362 . S
C516 C513 1.431 . S
C516 C526 1.476 . S
H517 C511 0.929 . S
C518 O509 1.250 . S
C518 O510 1.258 . S
O519 Mn504 2.162 . S
O519 C507 1.281 . S
O520 Mn504 2.297 . S
O520 C507 1.236 . S
N521 Mn505 2.282 . S
N521 C522 1.328 . S
N521 C526 1.318 . S
C522 N521 1.328 . S
C522 C523 1.457 . S
C522 H527 0.929 . S
C523 C522 1.457 . S
C523 C524 1.291 . S
C523 H536 0.931 . S
C524 C523 1.291 . S
C524 C525 1.373 . S
C524 H537 0.929 . S
C525 C524 1.373 . S
C525 C526 1.396 . S
C525 C532 1.403 . S
C526 C516 1.476 . S
C526 N521 1.318 . S
C526 C525 1.396 . S
H527 C522 0.929 . S
O528 Mn504 2.385 . S
O528 C506 1.234 . S
O529 Mn504 2.209 . S
O529 Mn505 2.215 . S
O529 C506 1.283 . S
O530 Mn504 2.094 . S
O530 C508 1.240 . S
O531 Mn505 2.117 . S
O531 C508 1.264 . S
C532 C525 1.403 . S
C532 C533 1.399 . S
C532 H538 0.929 . S
C533 C513 1.449 . S
C533 C532 1.399 . S
C533 H539 0.930 . S
H534 C514 0.931 . S
H535 C515 0.930 . S
H536 C523 0.931 . S
H537 C524 0.929 . S
H538 C532 0.929 . S
H539 C533 0.930 . S
Mn540 O545 2.095 . S
Mn540 O555 2.162 . S
Mn540 O556 2.297 . S
Mn540 O564 2.385 . S
Mn540 O565 2.209 . S
Mn540 O566 2.094 . S
Mn541 O546 2.121 . S
Mn541 N548 2.257 . S
Mn541 N557 2.282 . S
Mn541 O565 2.215 . S
Mn541 O567 2.117 . S
C542 O564 1.234 . S
C542 O565 1.283 . S
C543 O555 1.281 . S
C543 O556 1.236 . S
C544 O566 1.240 . S
C544 O567 1.264 . S
O545 Mn540 2.095 . S
O545 C554 1.250 . S
O546 Mn541 2.121 . S
O546 C554 1.258 . S
C547 N548 1.326 . S
C547 C551 1.460 . S
C547 H553 0.929 . S
N548 Mn541 2.257 . S
N548 C547 1.326 . S
N548 C552 1.362 . S
C549 C550 1.258 . S
C549 C552 1.431 . S
C549 C569 1.449 . S
C550 C549 1.258 . S
C550 C551 1.477 . S
C550 H570 0.931 . S
C551 C547 1.460 . S
C551 C550 1.477 . S
C551 H571 0.930 . S
C552 N548 1.362 . S
C552 C549 1.431 . S
C552 C562 1.476 . S
H553 C547 0.929 . S
C554 O545 1.250 . S
C554 O546 1.258 . S
O555 Mn540 2.162 . S
O555 C543 1.281 . S
O556 Mn540 2.297 . S
O556 C543 1.236 . S
N557 Mn541 2.282 . S
N557 C558 1.328 . S
N557 C562 1.318 . S
C558 N557 1.328 . S
C558 C559 1.457 . S
C558 H563 0.929 . S
C559 C558 1.457 . S
C559 C560 1.291 . S
C559 H572 0.931 . S
C560 C559 1.291 . S
C560 C561 1.373 . S
C560 H573 0.929 . S
C561 C560 1.373 . S
C561 C562 1.396 . S
C561 C568 1.403 . S
C562 C552 1.476 . S
C562 N557 1.318 . S
C562 C561 1.396 . S
H563 C558 0.929 . S
O564 Mn540 2.385 . S
O564 C542 1.234 . S
O565 Mn540 2.209 . S
O565 Mn541 2.215 . S
O565 C542 1.283 . S
O566 Mn540 2.094 . S
O566 C544 1.240 . S
O567 Mn541 2.117 . S
O567 C544 1.264 . S
C568 C561 1.403 . S
C568 C569 1.399 . S
C568 H574 0.929 . S
C569 C549 1.449 . S
C569 C568 1.399 . S
C569 H575 0.930 . S
H570 C550 0.931 . S
H571 C551 0.930 . S
H572 C559 0.931 . S
H573 C560 0.929 . S
H574 C568 0.929 . S
H575 C569 0.930 . S
C576 C577 1.363 . S
C576 C582 1.379 . S
C576 N584 1.356 . S
C577 C576 1.363 . S
C577 C583 1.363 . S
C578 C579 1.363 . S
C578 C583 1.379 . S
C578 N585 1.356 . S
C579 C578 1.363 . S
C579 C582 1.363 . S
N580 C582 1.356 . S
N580 H592 0.984 . S
N580 H593 0.985 . S
N581 C583 1.356 . S
N581 H586 0.984 . S
N581 H587 0.985 . S
C582 C576 1.379 . S
C582 C579 1.363 . S
C582 N580 1.356 . S
C583 C577 1.363 . S
C583 C578 1.379 . S
C583 N581 1.356 . S
N584 C576 1.356 . S
N584 H590 0.984 . S
N584 H591 0.984 . S
N585 C578 1.356 . S
N585 H588 0.984 . S
N585 H589 0.985 . S
H586 N581 0.984 . S
H587 N581 0.985 . S
H588 N585 0.984 . S
H589 N585 0.985 . S
H590 N584 0.984 . S
H591 N584 0.984 . S
H592 N580 0.984 . S
H593 N580 0.985 . S
C594 C595 1.363 . S
C594 C600 1.379 . S
C594 N602 1.356 . S
C595 C594 1.363 . S
C595 C601 1.363 . S
C596 C597 1.363 . S
C596 C601 1.379 . S
C596 N603 1.356 . S
C597 C596 1.363 . S
C597 C600 1.363 . S
N598 C600 1.356 . S
N598 H610 0.984 . S
N598 H611 0.985 . S
N599 C601 1.356 . S
N599 H604 0.984 . S
N599 H605 0.985 . S
C600 C594 1.379 . S
C600 C597 1.363 . S
C600 N598 1.356 . S
C601 C595 1.363 . S
C601 C596 1.379 . S
C601 N599 1.356 . S
N602 C594 1.356 . S
N602 H608 0.984 . S
N602 H609 0.984 . S
N603 C596 1.356 . S
N603 H606 0.984 . S
N603 H607 0.985 . S
H604 N599 0.984 . S
H605 N599 0.985 . S
H606 N603 0.984 . S
H607 N603 0.985 . S
H608 N602 0.984 . S
H609 N602 0.984 . S
H610 N598 0.984 . S
H611 N598 0.985 . S
C612 C613 1.363 . S
C612 C618 1.379 . S
C612 N620 1.356 . S
C613 C612 1.363 . S
C613 C619 1.363 . S
C614 C615 1.363 . S
C614 C619 1.379 . S
C614 N621 1.356 . S
C615 C614 1.363 . S
C615 C618 1.363 . S
N616 C618 1.356 . S
N616 H628 0.984 . S
N616 H629 0.985 . S
N617 C619 1.356 . S
N617 H622 0.984 . S
N617 H623 0.985 . S
C618 C612 1.379 . S
C618 C615 1.363 . S
C618 N616 1.356 . S
C619 C613 1.363 . S
C619 C614 1.379 . S
C619 N617 1.356 . S
N620 C612 1.356 . S
N620 H626 0.984 . S
N620 H627 0.984 . S
N621 C614 1.356 . S
N621 H624 0.984 . S
N621 H625 0.985 . S
H622 N617 0.984 . S
H623 N617 0.985 . S
H624 N621 0.984 . S
H625 N621 0.985 . S
H626 N620 0.984 . S
H627 N620 0.984 . S
H628 N616 0.984 . S
H629 N616 0.985 . S
C630 C631 1.363 . S
C630 C636 1.379 . S
C630 N638 1.356 . S
C631 C630 1.363 . S
C631 C637 1.363 . S
C632 C633 1.363 . S
C632 C637 1.379 . S
C632 N639 1.356 . S
C633 C632 1.363 . S
C633 C636 1.363 . S
N634 C636 1.356 . S
N634 H646 0.984 . S
N634 H647 0.985 . S
N635 C637 1.356 . S
N635 H640 0.984 . S
N635 H641 0.985 . S
C636 C630 1.379 . S
C636 C633 1.363 . S
C636 N634 1.356 . S
C637 C631 1.363 . S
C637 C632 1.379 . S
C637 N635 1.356 . S
N638 C630 1.356 . S
N638 H644 0.984 . S
N638 H645 0.984 . S
N639 C632 1.356 . S
N639 H642 0.984 . S
N639 H643 0.985 . S
H640 N635 0.984 . S
H641 N635 0.985 . S
H642 N639 0.984 . S
H643 N639 0.985 . S
H644 N638 0.984 . S
H645 N638 0.984 . S
H646 N634 0.984 . S
H647 N634 0.985 . S
C648 C649 1.363 . S
C648 C654 1.379 . S
C648 N656 1.356 . S
C649 C648 1.363 . S
C649 C655 1.363 . S
C650 C651 1.363 . S
C650 C655 1.379 . S
C650 N657 1.356 . S
C651 C650 1.363 . S
C651 C654 1.363 . S
N652 C654 1.356 . S
N652 H664 0.984 . S
N652 H665 0.985 . S
N653 C655 1.356 . S
N653 H658 0.984 . S
N653 H659 0.985 . S
C654 C648 1.379 . S
C654 C651 1.363 . S
C654 N652 1.356 . S
C655 C649 1.363 . S
C655 C650 1.379 . S
C655 N653 1.356 . S
N656 C648 1.356 . S
N656 H662 0.984 . S
N656 H663 0.984 . S
N657 C650 1.356 . S
N657 H660 0.984 . S
N657 H661 0.985 . S
H658 N653 0.984 . S
H659 N653 0.985 . S
H660 N657 0.984 . S
H661 N657 0.985 . S
H662 N656 0.984 . S
H663 N656 0.984 . S
H664 N652 0.984 . S
H665 N652 0.985 . S
C666 C667 1.363 . S
C666 C672 1.379 . S
C666 N674 1.356 . S
C667 C666 1.363 . S
C667 C673 1.363 . S
C668 C669 1.363 . S
C668 C673 1.379 . S
C668 N675 1.356 . S
C669 C668 1.363 . S
C669 C672 1.363 . S
N670 C672 1.356 . S
N670 H682 0.984 . S
N670 H683 0.985 . S
N671 C673 1.356 . S
N671 H676 0.984 . S
N671 H677 0.985 . S
C672 C666 1.379 . S
C672 C669 1.363 . S
C672 N670 1.356 . S
C673 C667 1.363 . S
C673 C668 1.379 . S
C673 N671 1.356 . S
N674 C666 1.356 . S
N674 H680 0.984 . S
N674 H681 0.984 . S
N675 C668 1.356 . S
N675 H678 0.984 . S
N675 H679 0.985 . S
H676 N671 0.984 . S
H677 N671 0.985 . S
H678 N675 0.984 . S
H679 N675 0.985 . S
H680 N674 0.984 . S
H681 N674 0.984 . S
H682 N670 0.984 . S
H683 N670 0.985 . S
C684 C685 1.363 . S
C684 C690 1.379 . S
C684 N692 1.356 . S
C685 C684 1.363 . S
C685 C691 1.363 . S
C686 C687 1.363 . S
C686 C691 1.379 . S
C686 N693 1.356 . S
C687 C686 1.363 . S
C687 C690 1.363 . S
N688 C690 1.356 . S
N688 H700 0.984 . S
N688 H701 0.985 . S
N689 C691 1.356 . S
N689 H694 0.984 . S
N689 H695 0.985 . S
C690 C684 1.379 . S
C690 C687 1.363 . S
C690 N688 1.356 . S
C691 C685 1.363 . S
C691 C686 1.379 . S
C691 N689 1.356 . S
N692 C684 1.356 . S
N692 H698 0.984 . S
N692 H699 0.984 . S
N693 C686 1.356 . S
N693 H696 0.984 . S
N693 H697 0.985 . S
H694 N689 0.984 . S
H695 N689 0.985 . S
H696 N693 0.984 . S
H697 N693 0.985 . S
H698 N692 0.984 . S
H699 N692 0.984 . S
H700 N688 0.984 . S
H701 N688 0.985 . S
C702 C703 1.363 . S
C702 C708 1.379 . S
C702 N710 1.356 . S
C703 C702 1.363 . S
C703 C709 1.363 . S
C704 C705 1.363 . S
C704 C709 1.379 . S
C704 N711 1.356 . S
C705 C704 1.363 . S
C705 C708 1.363 . S
N706 C708 1.356 . S
N706 H718 0.984 . S
N706 H719 0.985 . S
N707 C709 1.356 . S
N707 H712 0.984 . S
N707 H713 0.985 . S
C708 C702 1.379 . S
C708 C705 1.363 . S
C708 N706 1.356 . S
C709 C703 1.363 . S
C709 C704 1.379 . S
C709 N707 1.356 . S
N710 C702 1.356 . S
N710 H716 0.984 . S
N710 H717 0.984 . S
N711 C704 1.356 . S
N711 H714 0.984 . S
N711 H715 0.985 . S
H712 N707 0.984 . S
H713 N707 0.985 . S
H714 N711 0.984 . S
H715 N711 0.985 . S
H716 N710 0.984 . S
H717 N710 0.984 . S
H718 N706 0.984 . S
H719 N706 0.985 . S
C720 C721 1.350 1_545 S
C720 C726 1.390 . S
C720 N728 1.353 1_545 S
C721 C720 1.350 1_565 S
C721 C727 1.363 . S
C722 C723 1.363 1_565 S
C722 C727 1.379 . S
C722 N729 1.362 . S
C723 C722 1.363 1_545 S
C723 C726 1.363 . S
N724 C726 1.356 . S
N724 H736 0.984 . S
N724 H737 0.985 . S
N725 C727 1.356 . S
N725 H730 0.984 . S
N725 H731 0.985 . S
C726 C720 1.390 . S
C726 C723 1.363 . S
C726 N724 1.356 . S
C727 C721 1.363 . S
C727 C722 1.379 . S
C727 N725 1.356 . S
N728 C720 1.353 1_565 S
N728 H734 0.984 1_565 S
N728 H735 0.984 . S
N729 C722 1.362 . S
N729 H732 0.960 1_565 S
N729 H733 1.004 . S
H730 N725 0.984 . S
H731 N725 0.985 . S
H732 N729 0.960 1_545 S
H733 N729 1.004 . S
H734 N728 0.984 1_545 S
H735 N728 0.984 . S
H736 N724 0.984 . S
H737 N724 0.985 . S
C738 C739 1.363 . S
C738 C744 1.379 . S
C738 N746 1.356 . S
C739 C738 1.363 . S
C739 C745 1.363 . S
C740 C741 1.363 . S
C740 C745 1.379 . S
C740 N747 1.356 . S
C741 C740 1.363 . S
C741 C744 1.363 . S
N742 C744 1.356 . S
N742 H754 0.984 . S
N742 H755 0.985 . S
N743 C745 1.356 . S
N743 H748 0.984 . S
N743 H749 0.985 . S
C744 C738 1.379 . S
C744 C741 1.363 . S
C744 N742 1.356 . S
C745 C739 1.363 . S
C745 C740 1.379 . S
C745 N743 1.356 . S
N746 C738 1.356 . S
N746 H752 0.984 . S
N746 H753 0.984 . S
N747 C740 1.356 . S
N747 H750 0.984 . S
N747 H751 0.985 . S
H748 N743 0.984 . S
H749 N743 0.985 . S
H750 N747 0.984 . S
H751 N747 0.985 . S
H752 N746 0.984 . S
H753 N746 0.984 . S
H754 N742 0.984 . S
H755 N742 0.985 . S
C756 C757 1.363 . S
C756 C762 1.379 1_556 S
C756 N764 1.356 . S
C757 C756 1.363 . S
C757 C763 1.363 . S
C758 C759 1.363 1_556 S
C758 C763 1.379 . S
C758 N765 1.356 1_556 S
C759 C758 1.363 1_554 S
C759 C762 1.363 . S
N760 C762 1.356 . S
N760 H772 0.984 . S
N760 H773 0.985 . S
N761 C763 1.356 . S
N761 H766 0.984 . S
N761 H767 0.985 . S
C762 C756 1.379 1_554 S
C762 C759 1.363 . S
C762 N760 1.356 . S
C763 C757 1.363 . S
C763 C758 1.379 . S
C763 N761 1.356 . S
N764 C756 1.356 . S
N764 H770 0.984 . S
N764 H771 0.984 . S
N765 C758 1.356 1_554 S
N765 H768 0.984 . S
N765 H769 0.985 1_554 S
H766 N761 0.984 . S
H767 N761 0.985 . S
H768 N765 0.984 . S
H769 N765 0.985 1_556 S
H770 N764 0.984 . S
H771 N764 0.984 . S
H772 N760 0.984 . S
H773 N760 0.985 . S
C774 C775 1.363 . S
C774 C780 1.379 1_554 S
C774 N782 1.356 . S
C775 C774 1.363 . S
C775 C781 1.363 . S
C776 C777 1.363 . S
C776 C781 1.379 1_556 S
C776 N783 1.356 . S
C777 C776 1.363 . S
C777 C780 1.363 . S
N778 C780 1.356 . S
N778 H790 0.984 . S
N778 H791 0.985 . S
N779 C781 1.356 . S
N779 H784 0.984 . S
N779 H785 0.985 . S
C780 C774 1.379 1_556 S
C780 C777 1.363 . S
C780 N778 1.356 . S
C781 C775 1.363 . S
C781 C776 1.379 1_554 S
C781 N779 1.356 . S
N782 C774 1.356 . S
N782 H788 0.984 . S
N782 H789 0.984 . S
N783 C776 1.356 . S
N783 H786 0.984 . S
N783 H787 0.985 . S
H784 N779 0.984 . S
H785 N779 0.985 . S
H786 N783 0.984 . S
H787 N783 0.985 . S
H788 N782 0.984 . S
H789 N782 0.984 . S
H790 N778 0.984 . S
H791 N778 0.985 . S
C792 C793 1.363 . S
C792 C798 1.379 . S
C792 N800 1.356 . S
C793 C792 1.363 . S
C793 C799 1.363 . S
C794 C795 1.363 . S
C794 C799 1.379 . S
C794 N801 1.356 . S
C795 C794 1.363 . S
C795 C798 1.363 . S
N796 C798 1.356 . S
N796 H808 0.984 . S
N796 H809 0.985 . S
N797 C799 1.356 . S
N797 H802 0.984 . S
N797 H803 0.985 . S
C798 C792 1.379 . S
C798 C795 1.363 . S
C798 N796 1.356 . S
C799 C793 1.363 . S
C799 C794 1.379 . S
C799 N797 1.356 . S
N800 C792 1.356 . S
N800 H806 0.984 . S
N800 H807 0.984 . S
N801 C794 1.356 . S
N801 H804 0.984 . S
N801 H805 0.985 . S
H802 N797 0.984 . S
H803 N797 0.985 . S
H804 N801 0.984 . S
H805 N801 0.985 . S
H806 N800 0.984 . S
H807 N800 0.984 . S
H808 N796 0.984 . S
H809 N796 0.985 . S
C810 C811 1.363 . S
C810 C816 1.379 . S
C810 N818 1.356 . S
C811 C810 1.363 . S
C811 C817 1.363 . S
C812 C813 1.363 . S
C812 C817 1.379 . S
C812 N819 1.356 . S
C813 C812 1.363 . S
C813 C816 1.363 . S
N814 C816 1.356 . S
N814 H826 0.984 . S
N814 H827 0.985 . S
N815 C817 1.356 . S
N815 H820 0.984 . S
N815 H821 0.985 . S
C816 C810 1.379 . S
C816 C813 1.363 . S
C816 N814 1.356 . S
C817 C811 1.363 . S
C817 C812 1.379 . S
C817 N815 1.356 . S
N818 C810 1.356 . S
N818 H824 0.984 . S
N818 H825 0.984 . S
N819 C812 1.356 . S
N819 H822 0.984 . S
N819 H823 0.985 . S
H820 N815 0.984 . S
H821 N815 0.985 . S
H822 N819 0.984 . S
H823 N819 0.985 . S
H824 N818 0.984 . S
H825 N818 0.984 . S
H826 N814 0.984 . S
H827 N814 0.985 . S
C828 C829 1.363 . S
C828 C834 1.379 1_655 S
C828 N836 1.356 . S
C829 C828 1.363 . S
C829 C835 1.363 . S
C830 C831 1.363 . S
C830 C835 1.379 1_455 S
C830 N837 1.356 . S
C831 C830 1.363 . S
C831 C834 1.363 . S
N832 C834 1.356 . S
N832 H844 0.984 . S
N832 H845 0.985 . S
N833 C835 1.356 . S
N833 H838 0.984 . S
N833 H839 0.985 . S
C834 C828 1.379 1_455 S
C834 C831 1.363 . S
C834 N832 1.356 . S
C835 C829 1.363 . S
C835 C830 1.379 1_655 S
C835 N833 1.356 . S
N836 C828 1.356 . S
N836 H842 0.984 . S
N836 H843 0.984 . S
N837 C830 1.356 . S
N837 H840 0.984 . S
N837 H841 0.985 . S
H838 N833 0.984 . S
H839 N833 0.985 . S
H840 N837 0.984 . S
H841 N837 0.985 . S
H842 N836 0.984 . S
H843 N836 0.984 . S
H844 N832 0.984 . S
H845 N832 0.985 . S
C846 C847 1.363 . S
C846 C852 1.379 1_655 S
C846 N854 1.356 . S
C847 C846 1.363 . S
C847 C853 1.363 . S
C848 C849 1.363 . S
C848 C853 1.379 1_455 S
C848 N855 1.356 . S
C849 C848 1.363 . S
C849 C852 1.363 . S
N850 C852 1.356 . S
N850 H862 0.984 . S
N850 H863 0.985 . S
N851 C853 1.356 . S
N851 H856 0.984 . S
N851 H857 0.985 . S
C852 C846 1.379 1_455 S
C852 C849 1.363 . S
C852 N850 1.356 . S
C853 C847 1.363 . S
C853 C848 1.379 1_655 S
C853 N851 1.356 . S
N854 C846 1.356 . S
N854 H860 0.984 . S
N854 H861 0.984 . S
N855 C848 1.356 . S
N855 H858 0.984 . S
N855 H859 0.985 . S
H856 N851 0.984 . S
H857 N851 0.985 . S
H858 N855 0.984 . S
H859 N855 0.985 . S
H860 N854 0.984 . S
H861 N854 0.984 . S
H862 N850 0.984 . S
H863 N850 0.985 . S
C864 C865 1.363 . S
C864 C870 1.379 . S
C864 N872 1.356 . S
C865 C864 1.363 . S
C865 C871 1.363 . S
C866 C867 1.363 . S
C866 C871 1.379 . S
C866 N873 1.356 . S
C867 C866 1.363 . S
C867 C870 1.363 . S
N868 C870 1.356 . S
N868 H880 0.984 . S
N868 H881 0.985 . S
N869 C871 1.356 . S
N869 H874 0.984 . S
N869 H875 0.985 . S
C870 C864 1.379 . S
C870 C867 1.363 . S
C870 N868 1.356 . S
C871 C865 1.363 . S
C871 C866 1.379 . S
C871 N869 1.356 . S
N872 C864 1.356 . S
N872 H878 0.984 . S
N872 H879 0.984 . S
N873 C866 1.356 . S
N873 H876 0.984 . S
N873 H877 0.985 . S
H874 N869 0.984 . S
H875 N869 0.985 . S
H876 N873 0.984 . S
H877 N873 0.985 . S
H878 N872 0.984 . S
H879 N872 0.984 . S
H880 N868 0.984 . S
H881 N868 0.985 . S
C882 C883 1.363 . S
C882 C888 1.379 1_545 S
C882 N890 1.356 . S
C883 C882 1.363 . S
C883 C889 1.363 . S
C884 C885 1.363 1_545 S
C884 C889 1.379 . S
C884 N891 1.356 . S
C885 C884 1.363 1_565 S
C885 C888 1.363 . S
N886 C888 1.356 . S
N886 H898 0.984 . S
N886 H899 0.985 . S
N887 C889 1.356 . S
N887 H892 0.984 . S
N887 H893 0.985 . S
C888 C882 1.379 1_565 S
C888 C885 1.363 . S
C888 N886 1.356 . S
C889 C883 1.363 . S
C889 C884 1.379 . S
C889 N887 1.356 . S
N890 C882 1.356 . S
N890 H896 0.984 . S
N890 H897 0.984 . S
N891 C884 1.356 . S
N891 H894 0.984 1_545 S
N891 H895 0.985 . S
H892 N887 0.984 . S
H893 N887 0.985 . S
H894 N891 0.984 1_565 S
H895 N891 0.985 . S
H896 N890 0.984 . S
H897 N890 0.984 . S
H898 N886 0.984 . S
H899 N886 0.985 . S
C900 C901 1.363 . S
C900 C906 1.379 . S
C900 N908 1.356 . S
C901 C900 1.363 . S
C901 C907 1.363 . S
C902 C903 1.363 . S
C902 C907 1.379 . S
C902 N909 1.356 . S
C903 C902 1.363 . S
C903 C906 1.363 . S
N904 C906 1.356 . S
N904 H916 0.984 . S
N904 H917 0.985 . S
N905 C907 1.356 . S
N905 H910 0.984 . S
N905 H911 0.985 . S
C906 C900 1.379 . S
C906 C903 1.363 . S
C906 N904 1.356 . S
C907 C901 1.363 . S
C907 C902 1.379 . S
C907 N905 1.356 . S
N908 C900 1.356 . S
N908 H914 0.984 . S
N908 H915 0.984 . S
N909 C902 1.356 . S
N909 H912 0.984 . S
N909 H913 0.985 . S
H910 N905 0.984 . S
H911 N905 0.985 . S
H912 N909 0.984 . S
H913 N909 0.985 . S
H914 N908 0.984 . S
H915 N908 0.984 . S
H916 N904 0.984 . S
H917 N904 0.985 . S
C918 C919 1.363 . S
C918 C924 1.379 1_554 S
C918 N926 1.356 . S
C919 C918 1.363 . S
C919 C925 1.363 . S
C920 C921 1.351 1_554 S
C920 C925 1.391 . S
C920 N927 1.352 1_554 S
C921 C920 1.351 1_556 S
C921 C924 1.363 . S
N922 C924 1.356 . S
N922 H934 0.984 . S
N922 H935 0.985 . S
N923 C925 1.356 . S
N923 H928 0.984 . S
N923 H929 0.985 . S
C924 C918 1.379 1_556 S
C924 C921 1.363 . S
C924 N922 1.356 . S
C925 C919 1.363 . S
C925 C920 1.391 . S
C925 N923 1.356 . S
N926 C918 1.356 . S
N926 H932 0.978 1_554 S
N926 H933 0.984 . S
N927 C920 1.352 1_556 S
N927 H930 0.984 . S
N927 H931 0.985 1_556 S
H928 N923 0.984 . S
H929 N923 0.985 . S
H930 N927 0.984 . S
H931 N927 0.985 1_554 S
H932 N926 0.978 1_556 S
H933 N926 0.984 . S
H934 N922 0.984 . S
H935 N922 0.985 . S
C936 C937 1.363 1_554 S
C936 C942 1.379 . S
C936 N944 1.356 . S
C937 C936 1.363 1_556 S
C937 C943 1.363 . S
C938 C939 1.363 1_556 S
C938 C943 1.379 . S
C938 N945 1.356 . S
C939 C938 1.363 1_554 S
C939 C942 1.363 . S
N940 C942 1.356 . S
N940 H952 0.984 . S
N940 H953 0.985 . S
N941 C943 1.356 . S
N941 H946 0.984 . S
N941 H947 0.985 . S
C942 C936 1.379 . S
C942 C939 1.363 . S
C942 N940 1.356 . S
C943 C937 1.363 . S
C943 C938 1.379 . S
C943 N941 1.356 . S
N944 C936 1.356 . S
N944 H950 0.984 . S
N944 H951 0.984 1_554 S
N945 C938 1.356 . S
N945 H948 0.983 1_556 S
N945 H949 0.986 . S
H946 N941 0.984 . S
H947 N941 0.985 . S
H948 N945 0.983 1_554 S
H949 N945 0.986 . S
H950 N944 0.984 . S
H951 N944 0.984 1_556 S
H952 N940 0.984 . S
H953 N940 0.985 . S
C954 C955 1.363 . S
C954 C960 1.379 . S
C954 N962 1.356 . S
C955 C954 1.363 . S
C955 C961 1.363 . S
C956 C957 1.363 . S
C956 C961 1.379 . S
C956 N963 1.356 . S
C957 C956 1.363 . S
C957 C960 1.363 . S
N958 C960 1.356 . S
N958 H970 0.984 . S
N958 H971 0.985 . S
N959 C961 1.356 . S
N959 H964 0.984 . S
N959 H965 0.985 . S
C960 C954 1.379 . S
C960 C957 1.363 . S
C960 N958 1.356 . S
C961 C955 1.363 . S
C961 C956 1.379 . S
C961 N959 1.356 . S
N962 C954 1.356 . S
N962 H968 0.984 . S
N962 H969 0.984 . S
N963 C956 1.356 . S
N963 H966 0.984 . S
N963 H967 0.985 . S
H964 N959 0.984 . S
H965 N959 0.985 . S
H966 N963 0.984 . S
H967 N963 0.985 . S
H968 N962 0.984 . S
H969 N962 0.984 . S
H970 N958 0.984 . S
H971 N958 0.985 . S
C972 C973 1.363 . S
C972 C978 1.379 . S
C972 N980 1.356 . S
C973 C972 1.363 . S
C973 C979 1.363 . S
C974 C975 1.363 . S
C974 C979 1.379 . S
C974 N981 1.356 . S
C975 C974 1.363 . S
C975 C978 1.363 . S
N976 C978 1.356 . S
N976 H988 0.984 . S
N976 H989 0.985 . S
N977 C979 1.356 . S
N977 H982 0.984 . S
N977 H983 0.985 . S
C978 C972 1.379 . S
C978 C975 1.363 . S
C978 N976 1.356 . S
C979 C973 1.363 . S
C979 C974 1.379 . S
C979 N977 1.356 . S
N980 C972 1.356 . S
N980 H986 0.984 . S
N980 H987 0.984 . S
N981 C974 1.356 . S
N981 H984 0.984 . S
N981 H985 0.985 . S
H982 N977 0.984 . S
H983 N977 0.985 . S
H984 N981 0.984 . S
H985 N981 0.985 . S
H986 N980 0.984 . S
H987 N980 0.984 . S
H988 N976 0.984 . S
H989 N976 0.985 . S
C990 C991 1.363 . S
C990 C996 1.379 1_455 S
C990 N998 1.356 . S
C991 C990 1.363 . S
C991 C997 1.363 . S
C992 C993 1.363 . S
C992 C997 1.379 1_655 S
C992 N999 1.356 . S
C993 C992 1.363 . S
C993 C996 1.363 . S
N994 C996 1.356 . S
N994 H1006 0.981 1_655 S
N994 H1007 0.985 . S
N995 C997 1.356 . S
N995 H1000 0.984 . S
N995 H1001 0.985 1_455 S
C996 C990 1.379 1_655 S
C996 C993 1.363 . S
C996 N994 1.356 . S
C997 C991 1.363 . S
C997 C992 1.379 1_455 S
C997 N995 1.356 . S
N998 C990 1.356 . S
N998 H1004 0.984 . S
N998 H1005 0.984 . S
N999 C992 1.356 . S
N999 H1002 0.984 . S
N999 H1003 0.985 . S
H1000 N995 0.984 . S
H1001 N995 0.985 1_655 S
H1002 N999 0.984 . S
H1003 N999 0.985 . S
H1004 N998 0.984 . S
H1005 N998 0.984 . S
H1006 N994 0.981 1_455 S
H1007 N994 0.985 . S
C1008 C1009 1.363 . S
C1008 C1014 1.379 1_455 S
C1008 N1016 1.356 . S
C1009 C1008 1.363 . S
C1009 C1015 1.363 . S
C1010 C1011 1.363 . S
C1010 C1015 1.379 1_655 S
C1010 N1017 1.356 . S
C1011 C1010 1.363 . S
C1011 C1014 1.363 . S
N1012 C1014 1.356 . S
N1012 H1024 0.984 . S
N1012 H1025 0.985 . S
N1013 C1015 1.356 . S
N1013 H1018 0.984 . S
N1013 H1019 0.985 . S
C1014 C1008 1.379 1_655 S
C1014 C1011 1.363 . S
C1014 N1012 1.356 . S
C1015 C1009 1.363 . S
C1015 C1010 1.379 1_455 S
C1015 N1013 1.356 . S
N1016 C1008 1.356 . S
N1016 H1022 0.984 . S
N1016 H1023 0.984 . S
N1017 C1010 1.356 . S
N1017 H1020 0.984 . S
N1017 H1021 0.985 . S
H1018 N1013 0.984 . S
H1019 N1013 0.985 . S
H1020 N1017 0.984 . S
H1021 N1017 0.985 . S
H1022 N1016 0.984 . S
H1023 N1016 0.984 . S
H1024 N1012 0.984 . S
H1025 N1012 0.985 . S
C1026 C1027 1.363 . S
C1026 C1032 1.379 . S
C1026 N1034 1.356 . S
C1027 C1026 1.363 . S
C1027 C1033 1.363 . S
C1028 C1029 1.363 . S
C1028 C1033 1.379 . S
C1028 N1035 1.356 . S
C1029 C1028 1.363 . S
C1029 C1032 1.363 . S
N1030 C1032 1.356 . S
N1030 H1042 0.984 . S
N1030 H1043 0.985 . S
N1031 C1033 1.356 . S
N1031 H1036 0.984 . S
N1031 H1037 0.985 . S
C1032 C1026 1.379 . S
C1032 C1029 1.363 . S
C1032 N1030 1.356 . S
C1033 C1027 1.363 . S
C1033 C1028 1.379 . S
C1033 N1031 1.356 . S
N1034 C1026 1.356 . S
N1034 H1040 0.984 . S
N1034 H1041 0.984 . S
N1035 C1028 1.356 . S
N1035 H1038 0.984 . S
N1035 H1039 0.985 . S
H1036 N1031 0.984 . S
H1037 N1031 0.985 . S
H1038 N1035 0.984 . S
H1039 N1035 0.985 . S
H1040 N1034 0.984 . S
H1041 N1034 0.984 . S
H1042 N1030 0.984 . S
H1043 N1030 0.985 . S
C1044 C1045 1.363 . S
C1044 C1050 1.379 . S
C1044 N1052 1.356 . S
C1045 C1044 1.363 . S
C1045 C1051 1.363 . S
C1046 C1047 1.363 . S
C1046 C1051 1.379 . S
C1046 N1053 1.356 . S
C1047 C1046 1.363 . S
C1047 C1050 1.363 . S
N1048 C1050 1.356 . S
N1048 H1060 0.984 . S
N1048 H1061 0.985 . S
N1049 C1051 1.356 . S
N1049 H1054 0.984 . S
N1049 H1055 0.985 . S
C1050 C1044 1.379 . S
C1050 C1047 1.363 . S
C1050 N1048 1.356 . S
C1051 C1045 1.363 . S
C1051 C1046 1.379 . S
C1051 N1049 1.356 . S
N1052 C1044 1.356 . S
N1052 H1058 0.984 . S
N1052 H1059 0.984 . S
N1053 C1046 1.356 . S
N1053 H1056 0.984 . S
N1053 H1057 0.985 . S
H1054 N1049 0.984 . S
H1055 N1049 0.985 . S
H1056 N1053 0.984 . S
H1057 N1053 0.985 . S
H1058 N1052 0.984 . S
H1059 N1052 0.984 . S
H1060 N1048 0.984 . S
H1061 N1048 0.985 . S
C1062 C1063 1.363 1_565 S
C1062 C1068 1.379 . S
C1062 N1070 1.356 . S
C1063 C1062 1.363 1_545 S
C1063 C1069 1.363 . S
C1064 C1065 1.363 . S
C1064 C1069 1.379 1_565 S
C1064 N1071 1.356 . S
C1065 C1064 1.363 . S
C1065 C1068 1.363 . S
N1066 C1068 1.356 . S
N1066 H1078 0.984 . S
N1066 H1079 0.985 . S
N1067 C1069 1.356 . S
N1067 H1072 0.984 . S
N1067 H1073 0.985 . S
C1068 C1062 1.379 . S
C1068 C1065 1.363 . S
C1068 N1066 1.356 . S
C1069 C1063 1.363 . S
C1069 C1064 1.379 1_545 S
C1069 N1067 1.356 . S
N1070 C1062 1.356 . S
N1070 H1076 0.984 . S
N1070 H1077 0.984 1_565 S
N1071 C1064 1.356 . S
N1071 H1074 0.984 . S
N1071 H1075 0.985 1_565 S
H1072 N1067 0.984 . S
H1073 N1067 0.985 . S
H1074 N1071 0.984 . S
H1075 N1071 0.985 1_545 S
H1076 N1070 0.984 . S
H1077 N1070 0.984 1_545 S
H1078 N1066 0.984 . S
H1079 N1066 0.985 . S
C1080 C1081 1.363 . S
C1080 C1086 1.379 . S
C1080 N1088 1.356 . S
C1081 C1080 1.363 . S
C1081 C1087 1.363 . S
C1082 C1083 1.363 . S
C1082 C1087 1.379 . S
C1082 N1089 1.356 . S
C1083 C1082 1.363 . S
C1083 C1086 1.363 . S
N1084 C1086 1.356 . S
N1084 H1096 0.984 . S
N1084 H1097 0.985 . S
N1085 C1087 1.356 . S
N1085 H1090 0.984 . S
N1085 H1091 0.985 . S
C1086 C1080 1.379 . S
C1086 C1083 1.363 . S
C1086 N1084 1.356 . S
C1087 C1081 1.363 . S
C1087 C1082 1.379 . S
C1087 N1085 1.356 . S
N1088 C1080 1.356 . S
N1088 H1094 0.984 . S
N1088 H1095 0.984 . S
N1089 C1082 1.356 . S
N1089 H1092 0.984 . S
N1089 H1093 0.985 . S
H1090 N1085 0.984 . S
H1091 N1085 0.985 . S
H1092 N1089 0.984 . S
H1093 N1089 0.985 . S
H1094 N1088 0.984 . S
H1095 N1088 0.984 . S
H1096 N1084 0.984 . S
H1097 N1084 0.985 . S
C1098 C1099 1.363 . S
C1098 C1104 1.379 . S
C1098 N1106 1.356 . S
C1099 C1098 1.363 . S
C1099 C1105 1.363 . S
C1100 C1101 1.363 . S
C1100 C1105 1.379 . S
C1100 N1107 1.356 . S
C1101 C1100 1.363 . S
C1101 C1104 1.363 . S
N1102 C1104 1.356 . S
N1102 H1114 0.984 . S
N1102 H1115 0.985 . S
N1103 C1105 1.356 . S
N1103 H1108 0.984 . S
N1103 H1109 0.985 . S
C1104 C1098 1.379 . S
C1104 C1101 1.363 . S
C1104 N1102 1.356 . S
C1105 C1099 1.363 . S
C1105 C1100 1.379 . S
C1105 N1103 1.356 . S
N1106 C1098 1.356 . S
N1106 H1112 0.984 . S
N1106 H1113 0.984 . S
N1107 C1100 1.356 . S
N1107 H1110 0.984 . S
N1107 H1111 0.985 . S
H1108 N1103 0.984 . S
H1109 N1103 0.985 . S
H1110 N1107 0.984 . S
H1111 N1107 0.985 . S
H1112 N1106 0.984 . S
H1113 N1106 0.984 . S
H1114 N1102 0.984 . S
H1115 N1102 0.985 . S
C1116 C1117 1.363 1_565 S
C1116 C1122 1.379 . S
C1116 N1124 1.356 1_565 S
C1117 C1116 1.363 1_545 S
C1117 C1123 1.363 . S
C1118 C1119 1.363 . S
C1118 C1123 1.379 1_565 S
C1118 N1125 1.356 . S
C1119 C1118 1.363 . S
C1119 C1122 1.363 . S
N1120 C1122 1.356 . S
N1120 H1132 0.984 . S
N1120 H1133 0.985 . S
N1121 C1123 1.356 . S
N1121 H1126 0.984 . S
N1121 H1127 0.985 . S
C1122 C1116 1.379 . S
C1122 C1119 1.363 . S
C1122 N1120 1.356 . S
C1123 C1117 1.363 . S
C1123 C1118 1.379 1_545 S
C1123 N1121 1.356 . S
N1124 C1116 1.356 1_545 S
N1124 H1130 0.980 1_545 S
N1124 H1131 0.984 . S
N1125 C1118 1.356 . S
N1125 H1128 0.984 . S
N1125 H1129 0.985 . S
H1126 N1121 0.984 . S
H1127 N1121 0.985 . S
H1128 N1125 0.984 . S
H1129 N1125 0.985 . S
H1130 N1124 0.980 1_565 S
H1131 N1124 0.984 . S
H1132 N1120 0.984 . S
H1133 N1120 0.985 . S
C1134 C1135 1.363 . S
C1134 C1140 1.379 . S
C1134 N1142 1.356 . S
C1135 C1134 1.363 . S
C1135 C1141 1.363 . S
C1136 C1137 1.363 . S
C1136 C1141 1.379 . S
C1136 N1143 1.356 . S
C1137 C1136 1.363 . S
C1137 C1140 1.363 . S
N1138 C1140 1.356 . S
N1138 H1150 0.984 . S
N1138 H1151 0.985 . S
N1139 C1141 1.356 . S
N1139 H1144 0.984 . S
N1139 H1145 0.985 . S
C1140 C1134 1.379 . S
C1140 C1137 1.363 . S
C1140 N1138 1.356 . S
C1141 C1135 1.363 . S
C1141 C1136 1.379 . S
C1141 N1139 1.356 . S
N1142 C1134 1.356 . S
N1142 H1148 0.984 . S
N1142 H1149 0.984 . S
N1143 C1136 1.356 . S
N1143 H1146 0.984 . S
N1143 H1147 0.985 . S
H1144 N1139 0.984 . S
H1145 N1139 0.985 . S
H1146 N1143 0.984 . S
H1147 N1143 0.985 . S
H1148 N1142 0.984 . S
H1149 N1142 0.984 . S
H1150 N1138 0.984 . S
H1151 N1138 0.985 . S
C577 C2 1.339 . S
C579 C470 1.338 . S
C595 C38 1.167 . S
C597 C326 1.163 . S
C613 C506 1.192 . S
C615 C74 1.190 . S
C631 C110 1.335 . S
C633 C542 1.339 . S
C649 C146 1.167 . S
C651 C218 1.163 . S
C667 C362 1.339 . S
C669 C182 1.338 . S
C685 C398 1.190 . S
C687 C254 1.192 . S
C703 C290 1.339 . S
C705 C434 1.335 . S
C721 C75 1.619 . S
C723 C14 1.500 . S
C739 C50 1.619 . S
C741 C122 1.609 . S
C757 C435 1.608 . S
C759 C3 1.608 . S
C775 C39 1.665 . S
C777 C400 1.664 . S
C793 C147 1.665 . S
C795 C76 1.664 . S
C811 C363 1.608 . S
C813 C111 1.608 . S
C829 C40 1.718 . S
C831 C4 1.703 . S
C847 C112 1.176 . S
C849 C86 1.091 . S
C865 C364 1.703 . S
C867 C148 1.718 . S
C883 C256 1.624 . S
C885 C183 1.628 . S
C901 C219 1.333 . S
C903 C292 1.331 . S
C919 C543 1.686 . S
C921 C194 1.553 . S
C937 C230 1.431 . S
C939 C507 1.535 . S
C955 C338 1.431 . S
C957 C255 1.535 . S
C973 C291 1.686 . S
C975 C482 1.553 . S
C991 C220 1.626 . S
C993 C184 1.629 . S
C1009 C302 1.648 . S
C1011 C266 1.682 . S
C1027 C328 1.626 . S
C1029 C472 1.629 . S
C1045 C374 1.500 . S
C1047 C399 1.619 . S
C1063 C446 1.609 . S
C1065 C158 1.619 . S
C1081 C436 1.176 . S
C1083 C410 1.091 . S
C1099 C508 1.624 . S
C1101 C471 1.628 . S
C1117 C327 1.333 . S
C1119 C544 1.331 . S
C1135 C554 1.648 . S
C1137 C518 1.682 . S
