# Generated by pormake.
# Topology uov, (4)-cn, num edge types: 1
# Building blocks:
#     Node 0, Type 0, BuildingBlock: QUQFOY_clean_sbu_1, # of connection points: 4
#     Node 1, Type 0, BuildingBlock: QUQFOY_clean_sbu_1, # of connection points: 4
#     Node 2, Type 0, BuildingBlock: QUQFOY_clean_sbu_1, # of connection points: 4
#     Node 3, Type 0, BuildingBlock: QUQFOY_clean_sbu_1, # of connection points: 4
#     Node 4, Type 0, BuildingBlock: QUQFOY_clean_sbu_1, # of connection points: 4
#     Node 5, Type 0, BuildingBlock: QUQFOY_clean_sbu_1, # of connection points: 4
#     Node 6, Type 0, BuildingBlock: QUQFOY_clean_sbu_1, # of connection points: 4
#     Node 7, Type 0, BuildingBlock: QUQFOY_clean_sbu_1, # of connection points: 4
#     Edge 8, Type (0, 0), BuildingBlock: EZIPEK_clean_linker_0, # of connection points: 2
#     Edge 9, Type (0, 0), BuildingBlock: EZIPEK_clean_linker_0, # of connection points: 2
#     Edge 10, Type (0, 0), BuildingBlock: EZIPEK_clean_linker_0, # of connection points: 2
#     Edge 11, Type (0, 0), BuildingBlock: EZIPEK_clean_linker_0, # of connection points: 2
#     Edge 12, Type (0, 0), BuildingBlock: EZIPEK_clean_linker_0, # of connection points: 2
#     Edge 13, Type (0, 0), BuildingBlock: EZIPEK_clean_linker_0, # of connection points: 2
#     Edge 14, Type (0, 0), BuildingBlock: EZIPEK_clean_linker_0, # of connection points: 2
#     Edge 15, Type (0, 0), BuildingBlock: EZIPEK_clean_linker_0, # of connection points: 2
#     Edge 16, Type (0, 0), BuildingBlock: EZIPEK_clean_linker_0, # of connection points: 2
#     Edge 17, Type (0, 0), BuildingBlock: EZIPEK_clean_linker_0, # of connection points: 2
#     Edge 18, Type (0, 0), BuildingBlock: EZIPEK_clean_linker_0, # of connection points: 2
#     Edge 19, Type (0, 0), BuildingBlock: EZIPEK_clean_linker_0, # of connection points: 2
#     Edge 20, Type (0, 0), BuildingBlock: EZIPEK_clean_linker_0, # of connection points: 2
#     Edge 21, Type (0, 0), BuildingBlock: EZIPEK_clean_linker_0, # of connection points: 2
#     Edge 22, Type (0, 0), BuildingBlock: EZIPEK_clean_linker_0, # of connection points: 2
#     Edge 23, Type (0, 0), BuildingBlock: EZIPEK_clean_linker_0, # of connection points: 2
# Relax obj value: 0.029
# Max RMSD: 0.047
# Mean RMSD: 0.047
data_MOF--net-uov--node1-QUQFOY_clean_sbu_1--edge1-EZIPEK_clean_linker_0
_symmetry_space_group_name_H-M    P1
_symmetry_Int_Tables_number       1
_symmetry_cell_setting            triclinic
loop_
_symmetry_equiv_pos_as_xyz
'x, y, z'
_cell_length_a     23.971179
_cell_length_b     23.946754
_cell_length_c     32.912922
_cell_angle_alpha  89.99353
_cell_angle_beta   89.923822
_cell_angle_gamma 90.042171
loop_
_atom_site_label
_atom_site_type_symbol
_atom_site_fract_x
_atom_site_fract_y
_atom_site_fract_z
_atom_type_partial_charge
O0 O 0.92186 0.24615 0.58299 0.0
Cd1 Cd -0.0016 0.27881 0.59811 0.0
Cd2 Cd 0.0039 0.18221 0.63865 0.0
O3 O 0.91924 0.17685 0.62642 0.0
O4 O 0.98975 0.3578 0.58168 0.0
O5 O 0.00432 0.3319 0.64551 0.0
C6 C 0.99504 0.37103 0.61937 0.0
C7 C 0.04196 0.16325 0.70272 0.0
C8 C 0.89501 0.20663 0.59973 0.0
C9 C 0.07786 0.19791 0.5649 0.0
O10 O 0.05563 0.16455 0.59025 0.0
O11 O 0.06575 0.2495 0.56541 0.0
O12 O 0.02226 0.12394 0.68014 0.0
O13 O 0.03779 0.21408 0.68987 0.0
O14 O 0.24933 0.04514 0.45807 0.0
Cd15 Cd 0.28735 0.97376 0.43693 0.0
Cd16 Cd 0.18368 0.9603 0.40266 0.0
O17 O 0.16746 0.03748 0.4277 0.0
O18 O 0.36694 0.98742 0.45044 0.0
O19 O 0.33739 0.9748 0.38736 0.0
C20 C 0.37786 0.98456 0.41223 0.0
C21 C 0.15247 0.93176 0.33844 0.0
C22 C 0.19993 0.06254 0.45222 0.0
C23 C 0.21858 0.88142 0.46985 0.0
O24 O 0.18135 0.89884 0.44558 0.0
O25 O 0.26728 0.90236 0.46948 0.0
O26 O 0.11802 0.94169 0.36761 0.0
O27 O 0.20482 0.94109 0.34484 0.0
O28 O 0.05213 0.7204 0.56993 0.0
Cd29 Cd 0.9738 0.69212 0.58467 0.0
Cd30 Cd 0.9649 0.79604 0.61665 0.0
O31 O 0.04474 0.80621 0.59386 0.0
O32 O 0.98052 0.61095 0.57444 0.0
O33 O 0.96164 0.64599 0.6353 0.0
C34 C 0.97128 0.60317 0.61252 0.0
C35 C 0.93596 0.82846 0.68055 0.0
C36 C 0.07161 0.76935 0.574 0.0
C37 C 0.8905 0.7668 0.54601 0.0
O38 O 0.90562 0.80215 0.57248 0.0
O39 O 0.91057 0.71772 0.54586 0.0
O40 O 0.94708 0.86231 0.6512 0.0
O41 O 0.9442 0.7758 0.67443 0.0
O42 O 0.73416 0.93713 0.44476 0.0
Cd43 Cd 0.70195 0.01574 0.43568 0.0
Cd44 Cd 0.81136 0.03591 0.41186 0.0
O45 O 0.8229 0.95491 0.4321 0.0
O46 O 0.62224 0.00091 0.44849 0.0
O47 O 0.65006 0.03072 0.38821 0.0
C48 C 0.61014 0.0148 0.41187 0.0
C49 C 0.84503 0.06778 0.34903 0.0
C50 C 0.78493 0.92226 0.44511 0.0
C51 C 0.76896 0.1 0.48362 0.0
O52 O 0.80843 0.09261 0.45847 0.0
O53 O 0.72269 0.07455 0.47965 0.0
O54 O 0.87812 0.05876 0.37919 0.0
O55 O 0.79263 0.05693 0.35405 0.0
O56 O 0.05869 0.25051 0.0778 0.0
Cd57 Cd 0.98437 0.28987 0.08888 0.0
Cd58 Cd 0.97295 0.196 0.13784 0.0
O59 O 0.05857 0.19186 0.12945 0.0
O60 O 0.99733 0.36662 0.06795 0.0
O61 O 0.97659 0.34882 0.13233 0.0
C62 C 0.98896 0.38454 0.10432 0.0
C63 C 0.9366 0.16208 0.1999 0.0
C64 C 0.0825 0.21273 0.09846 0.0
C65 C 0.90874 0.20631 0.05688 0.0
O66 O 0.92657 0.17695 0.08639 0.0
O67 O 0.92117 0.25769 0.05411 0.0
O68 O 0.95627 0.12906 0.17262 0.0
O69 O 0.93791 0.21497 0.19237 0.0
O70 O 0.26877 0.96127 0.94447 0.0
Cd71 Cd 0.30163 0.04016 0.93917 0.0
Cd72 Cd 0.19581 0.06486 0.91257 0.0
O73 O 0.18087 0.986 0.93631 0.0
O74 O 0.38097 0.02472 0.95224 0.0
O75 O 0.35436 0.05953 0.89308 0.0
C76 C 0.3937 0.04141 0.91632 0.0
C77 C 0.15344 0.09277 0.85115 0.0
C78 C 0.21717 0.95043 0.94753 0.0
C79 C 0.23465 0.12404 0.98675 0.0
O80 O 0.20035 0.12372 0.95744 0.0
O81 O 0.27803 0.09358 0.98584 0.0
O82 O 0.1255 0.08821 0.88441 0.0
O83 O 0.20585 0.08045 0.85238 0.0
O84 O 0.95504 0.75211 0.05997 0.0
Cd85 Cd 0.02672 0.71203 0.07698 0.0
Cd86 Cd 0.03344 0.8052 0.12507 0.0
O87 O 0.94872 0.80822 0.11282 0.0
O88 O 0.01626 0.63319 0.06003 0.0
O89 O 0.02831 0.65881 0.12429 0.0
C90 C 0.01973 0.61983 0.09787 0.0
C91 C 0.06634 0.83786 0.18812 0.0
C92 C 0.92875 0.78901 0.07989 0.0
C93 C 0.10751 0.7934 0.04955 0.0
O94 O 0.0855 0.82419 0.07666 0.0
O95 O 0.09555 0.74188 0.04708 0.0
O96 O 0.04535 0.87122 0.1616 0.0
O97 O 0.06725 0.78524 0.17959 0.0
O98 O 0.76187 0.04485 0.95263 0.0
Cd99 Cd 0.71529 0.97803 0.93357 0.0
Cd100 Cd 0.81203 0.95895 0.89157 0.0
O101 O 0.82955 0.04096 0.90718 0.0
O102 O 0.63894 -0.00064 0.95092 0.0
O103 O 0.66136 0.98349 0.88663 0.0
C104 C 0.6244 0.99753 0.91332 0.0
C105 C 0.84347 0.92272 0.829 0.0
C106 C 0.80649 0.06443 0.93757 0.0
C107 C 0.78299 0.88876 0.96656 0.0
O108 O 0.81856 0.90578 0.94069 0.0
O109 O 0.73339 0.90724 0.96625 0.0
O110 O 0.87762 0.93589 0.85755 0.0
O111 O 0.79099 0.9313 0.83527 0.0
C112 C 0.02503 0.52337 0.64076 0.0
C113 C 0.97292 0.54584 0.62881 0.0
C114 C 0.93204 0.45232 0.62785 0.0
C115 C 0.98636 0.42963 0.63169 0.0
N116 N 0.08445 0.44129 0.64456 0.0
N117 N 0.87546 0.53424 0.61392 0.0
C118 C 0.03275 0.46446 0.63997 0.0
C119 C 0.92565 0.51105 0.62404 0.0
N120 N 0.06704 0.55868 0.65207 0.0
N121 N 0.88695 0.41732 0.62767 0.0
H122 H 0.86928 0.57737 0.61295 0.0
H123 H 0.84063 0.51123 0.60524 0.0
H124 H 0.89092 0.37411 0.63075 0.0
H125 H 0.84575 0.43095 0.62795 0.0
H126 H 0.10495 0.54538 0.66399 0.0
H127 H 0.06198 0.60196 0.65263 0.0
H128 H 0.12121 0.46432 0.6461 0.0
H129 H 0.09082 0.39821 0.64533 0.0
C130 C 0.51683 0.05655 0.39737 0.0
C131 C 0.5519 0.00904 0.39776 0.0
C132 C 0.47062 0.94746 0.39086 0.0
C133 C 0.43569 0.99403 0.39817 0.0
N134 N 0.42271 0.09323 0.40456 0.0
N135 N 0.56484 0.90985 0.39105 0.0
C136 C 0.45798 0.04891 0.3995 0.0
C137 C 0.52951 0.95463 0.39255 0.0
N138 N 0.5401 0.10862 0.39568 0.0
N139 N 0.4472 0.89652 0.38304 0.0
H140 H 0.60813 0.91436 0.38994 0.0
H141 H 0.55185 0.86842 0.39197 0.0
H142 H 0.40413 0.89043 0.38206 0.0
H143 H 0.46977 0.8613 0.37459 0.0
H144 H 0.51732 0.1453 0.39248 0.0
H145 H 0.58314 0.11488 0.39442 0.0
H146 H 0.43582 0.13388 0.41028 0.0
H147 H 0.37938 0.08887 0.40401 0.0
C148 C 0.05172 0.46693 0.11315 0.0
C149 C 0.99686 0.44453 0.1133 0.0
C150 C 0.95713 0.53872 0.11243 0.0
C151 C 0.01193 0.56096 0.11008 0.0
N152 N 0.11099 0.54922 0.11755 0.0
N153 N 0.89807 0.45718 0.1224 0.0
C154 C 0.05918 0.52589 0.11372 0.0
C155 C 0.94972 0.47995 0.11629 0.0
N156 N 0.09647 0.43161 0.11106 0.0
N157 N 0.91234 0.57383 0.10932 0.0
H158 H 0.89152 0.41422 0.1246 0.0
H159 H 0.86237 0.48049 0.12831 0.0
H160 H 0.91646 0.61721 0.10849 0.0
H161 H 0.87133 0.56037 0.10601 0.0
H162 H 0.13728 0.44467 0.10596 0.0
H163 H 0.09249 0.38829 0.11303 0.0
H164 H 0.14701 0.52656 0.12371 0.0
H165 H 0.11743 0.59232 0.11767 0.0
C166 C 0.47109 0.98701 0.88522 0.0
C167 C 0.45224 0.03766 0.90269 0.0
C168 C 0.5487 0.06846 0.91175 0.0
C169 C 0.56699 0.01378 0.90193 0.0
N170 N 0.54696 0.92056 0.87839 0.0
N171 N 0.47124 0.12829 0.9309 0.0
C172 C 0.52876 0.97322 0.88739 0.0
C173 C 0.4906 0.07937 0.91481 0.0
N174 N 0.43351 0.95194 0.86725 0.0
N175 N 0.58719 0.10976 0.91791 0.0
H176 H 0.42888 0.13835 0.93154 0.0
H177 H 0.49661 0.15779 0.94496 0.0
H178 H 0.63004 0.10281 0.91523 0.0
H179 H 0.57691 0.1516 0.92197 0.0
H180 H 0.44474 0.91649 0.85088 0.0
H181 H 0.39102 0.96119 0.86568 0.0
H182 H 0.52044 0.88718 0.87232 0.0
H183 H 0.58894 0.90928 0.87904 0.0
C184 C 0.1436 0.14953 0.46508 0.0
C185 C 0.17647 0.10501 0.48031 0.0
C186 C 0.15971 0.13836 0.54955 0.0
C187 C 0.11796 0.17479 0.53495 0.0
N188 N 0.06613 0.21186 0.47789 0.0
N189 N 0.20495 0.0501 0.53893 0.0
C190 C 0.10925 0.18037 0.49237 0.0
C191 C 0.18244 0.09784 0.52307 0.0
N192 N 0.1454 0.16244 0.42468 0.0
N193 N 0.17702 0.1419 0.58901 0.0
H194 H 0.21731 0.01602 0.5215 0.0
H195 H 0.20489 0.04139 0.56997 0.0
H196 H 0.16166 0.17205 0.60902 0.0
H197 H 0.21077 0.11922 0.60024 0.0
H198 H 0.1262 0.19766 0.41246 0.0
H199 H 0.17081 0.14104 0.40416 0.0
H200 H 0.05424 0.21192 0.44745 0.0
H201 H 0.03933 0.23459 0.49649 0.0
C202 C 0.17007 0.79348 0.48466 0.0
C203 C 0.20141 0.83862 0.4999 0.0
C204 C 0.1629 0.82042 0.5677 0.0
C205 C 0.12129 0.78619 0.54983 0.0
N206 N 0.08127 0.74734 0.48788 0.0
N207 N 0.22963 0.89502 0.55724 0.0
C208 C 0.12437 0.77326 0.50755 0.0
C209 C 0.19957 0.85133 0.54206 0.0
N210 N 0.18218 0.77243 0.44713 0.0
N211 N 0.16728 0.82332 0.60901 0.0
H212 H 0.25883 0.91709 0.54018 0.0
H213 H 0.22382 0.91085 0.58643 0.0
H214 H 0.14162 0.80017 0.62835 0.0
H215 H 0.19973 0.84394 0.62377 0.0
H216 H 0.16328 0.73661 0.43552 0.0
H217 H 0.21545 0.78769 0.42983 0.0
H218 H 0.08009 0.74253 0.45642 0.0
H219 H 0.04364 0.73657 0.50154 0.0
C220 C 0.84159 0.8342 0.44879 0.0
C221 C 0.80103 0.86993 0.46644 0.0
C222 C 0.802 0.81193 0.52781 0.0
C223 C 0.85155 0.78643 0.51426 0.0
N224 N 0.91888 0.77116 0.46084 0.0
N225 N 0.74694 0.89568 0.52637 0.0
C226 C 0.87081 0.79582 0.47403 0.0
C227 C 0.78109 0.85886 0.50657 0.0
N228 N 0.85205 0.83708 0.40805 0.0
N229 N 0.77662 0.7926 0.56221 0.0
H230 H 0.73308 0.93318 0.51417 0.0
H231 H 0.73689 0.89188 0.55706 0.0
H232 H 0.7922 0.75837 0.57827 0.0
H233 H 0.73763 0.80647 0.57197 0.0
H234 H 0.87785 0.80902 0.39282 0.0
H235 H 0.83034 0.8641 0.38886 0.0
H236 H 0.93891 0.78221 0.4339 0.0
H237 H 0.94015 0.74124 0.47776 0.0
C238 C 0.79005 0.19153 0.51694 0.0
C239 C 0.78067 0.1333 0.52054 0.0
C240 C 0.81847 0.13525 0.58975 0.0
C241 C 0.84034 0.18893 0.58162 0.0
N242 N 0.8201 0.27712 0.5502 0.0
N243 N 0.78147 0.04953 0.56159 0.0
C244 C 0.81737 0.2202 0.54913 0.0
C245 C 0.79201 0.10537 0.5578 0.0
N246 N 0.7753 0.2185 0.482 0.0
N247 N 0.82097 0.11422 0.62823 0.0
H248 H 0.76105 0.02635 0.53934 0.0
H249 H 0.79553 0.02553 0.58589 0.0
H250 H 0.83513 0.13822 0.65259 0.0
H251 H 0.80235 0.07677 0.63691 0.0
H252 H 0.78679 0.25941 0.4753 0.0
H253 H 0.7528 0.19883 0.45893 0.0
H254 H 0.80139 0.30303 0.52881 0.0
H255 H 0.83581 0.2983 0.57546 0.0
C256 C 0.89034 0.09453 0.97762 0.0
C257 C 0.83682 0.10726 0.96147 0.0
C258 C 0.83051 0.18873 1.00677 0.0
C259 C 0.88484 0.17684 0.02133 0.0
N260 N 0.97304 0.13052 1.0102 0.0
N261 N 0.76111 0.17259 0.95425 0.0
C262 C 0.91689 0.13375 1.00325 0.0
C263 C 0.8086 0.15656 0.97396 0.0
N264 N 0.91423 0.04331 0.97159 0.0
N265 N 0.79903 0.22881 0.02538 0.0
H266 H 0.74472 0.15011 0.92985 0.0
H267 H 0.74107 0.21047 0.9595 0.0
H268 H 0.81408 0.25317 0.04925 0.0
H269 H 0.75698 0.2353 0.01909 0.0
H270 H 0.95004 0.03043 0.98687 0.0
H271 H 0.89577 0.01121 0.95506 0.0
H272 H -0.00094 0.10293 0.99467 0.0
H273 H 0.99458 0.15947 0.02797 0.0
C274 C 0.17979 0.10744 0.049 0.0
C275 C 0.21317 0.14473 0.02608 0.0
C276 C 0.1763 0.22272 0.06581 0.0
C277 C 0.13376 0.18711 0.08128 0.0
N278 N 0.09139 0.09464 0.08222 0.0
N279 N 0.24592 0.2377 1.01306 0.0
C280 C 0.13518 0.12887 0.07247 0.0
C281 C 0.2129 0.2024 0.03505 0.0
N282 N 0.18888 0.05123 0.04668 0.0
N283 N 0.18107 0.2759 0.08038 0.0
H284 H 0.27462 0.22301 0.99169 0.0
H285 H 0.24327 0.28103 1.01484 0.0
H286 H 0.15529 0.29109 0.10346 0.0
H287 H 0.21349 0.30277 0.07248 0.0
H288 H 0.16922 0.02246 0.06568 0.0
H289 H 0.22027 0.03401 0.02877 0.0
H290 H 0.0879 0.05384 0.07151 0.0
H291 H 0.05556 0.10743 0.09735 0.0
C292 C 0.12421 0.83056 0.97925 0.0
C293 C 0.14417 0.82011 0.01912 0.0
C294 C 0.21887 0.88826 1.00975 0.0
C295 C 0.19869 0.89956 0.96972 0.0
N296 N 0.14334 0.86986 0.91269 0.0
N297 N 0.21897 0.82496 0.06734 0.0
C298 C 0.155 0.86669 0.95325 0.0
C299 C 0.19461 0.84415 0.0325 0.0
N300 N 0.07424 0.80879 0.96706 0.0
N301 N 0.25774 0.92205 0.02769 0.0
H302 H 0.20164 0.79267 0.08456 0.0
H303 H 0.25876 0.8368 0.0767 0.0
H304 H 0.27715 0.95557 1.01349 0.0
H305 H 0.26765 0.9198 0.05845 0.0
H306 H 0.05424 0.8206 0.94034 0.0
H307 H 0.0509 0.78135 0.98487 0.0
H308 H 0.11525 0.84342 0.89811 0.0
H309 H 0.16607 0.89522 0.89288 0.0
C310 C 0.83676 0.89835 0.02981 0.0
C311 C 0.80531 0.86327 1.00396 0.0
C312 C 0.83912 0.78175 0.04114 0.0
C313 C 0.88003 0.81594 0.0602 0.0
N314 N 0.9226 0.90794 0.06666 0.0
N315 N 0.77421 0.77169 0.98483 0.0
C316 C 0.87955 0.8748 0.05382 0.0
C317 C 0.80508 0.80489 1.00993 0.0
N318 N 0.82696 0.95457 0.03027 0.0
N319 N 0.83311 0.7274 0.05295 0.0
H320 H 0.74757 0.78822 0.96283 0.0
H321 H 0.77696 0.7283 0.9846 0.0
H322 H 0.85674 0.71004 0.07639 0.0
H323 H 0.80145 0.70142 0.04237 0.0
H324 H 0.84547 0.98157 0.05113 0.0
H325 H 0.79583 0.97311 1.01274 0.0
H326 H 0.9266 0.9497 0.05819 0.0
H327 H 0.95767 0.89349 0.08191 0.0
C328 C 0.04093 0.1171 0.77112 0.0
C329 C 0.06981 0.14939 0.74184 0.0
C330 C 0.1514 0.15156 0.78689 0.0
C331 C 0.12549 0.11177 0.81296 0.0
N332 N 0.04903 0.0473 0.82365 0.0
N333 N 0.15679 0.18948 0.71878 0.0
C334 C 0.07107 0.09205 0.80346 0.0
C335 C 0.12628 0.16454 0.74883 0.0
N336 N 0.98432 0.11175 0.76893 0.0
N337 N 0.1983 0.17931 0.7991 0.0
H338 H 0.14043 0.19911 0.69029 0.0
H339 H 0.19971 0.19582 0.7209 0.0
H340 H 0.2163 0.17395 0.82762 0.0
H341 H 0.21553 0.21237 0.78274 0.0
H342 H 0.96072 0.09476 0.79252 0.0
H343 H 0.96063 0.12997 0.74589 0.0
H344 H 0.01114 0.0291 0.81571 0.0
H345 H 0.07127 0.02418 0.84501 0.0
C346 C 0.07291 0.83836 0.2647 0.0
C347 C 0.09019 0.86019 0.22662 0.0
C348 C 0.14536 0.93196 0.26185 0.0
C349 C 0.13233 0.90676 0.2997 0.0
N350 N 0.0948 0.82735 0.33599 0.0
N351 N 0.15358 0.91951 0.18911 0.0
C352 C 0.09926 0.85745 0.30082 0.0
C353 C 0.12949 0.9047 0.22521 0.0
N354 N 0.02964 0.80126 0.26674 0.0
N355 N 0.17082 0.98301 0.26075 0.0
H356 H 0.14502 0.89916 0.1618 0.0
H357 H 0.18642 0.94788 0.18697 0.0
H358 H 0.18208 0.00493 0.28685 0.0
H359 H 0.17583 0.00596 0.23409 0.0
H360 H 0.01156 0.78872 0.29407 0.0
H361 H 0.00807 0.78728 0.24121 0.0
H362 H 0.07582 0.78824 0.33739 0.0
H363 H 0.11522 0.83838 0.36277 0.0
C364 C 0.86433 0.82621 0.7374 0.0
C365 C 0.91291 0.85024 0.71958 0.0
C366 C 0.90822 0.92651 0.76909 0.0
C367 C 0.86484 0.89866 0.79024 0.0
N368 N 0.80869 0.81561 0.79843 0.0
N369 N 0.98844 0.91668 0.72525 0.0
C370 C 0.8448 0.84664 0.77553 0.0
C371 C 0.93696 0.89854 0.73737 0.0
N372 N 0.83488 0.78605 0.71716 0.0
N373 N 0.92044 0.98083 0.77783 0.0
H374 H 0.01245 0.8957 0.70367 0.0
H375 H 0.00981 0.94874 0.73999 0.0
H376 H 0.89937 0.00368 0.80004 0.0
H377 H 0.94689 0.00464 0.75961 0.0
H378 H 0.79623 0.77143 0.72706 0.0
H379 H 0.84578 0.77157 0.68838 0.0
H380 H 0.79749 0.77482 0.79099 0.0
H381 H 0.79411 0.82843 0.82678 0.0
C382 C 0.84117 0.13822 0.29171 0.0
C383 C 0.86706 0.09121 0.31015 0.0
C384 C 0.94278 0.09711 0.26004 0.0
C385 C 0.91319 0.13918 0.23854 0.0
N386 N 0.82695 0.19006 0.22953 0.0
N387 N 0.93608 0.01799 0.30547 0.0
C388 C 0.86031 0.1571 0.25312 0.0
C389 C 0.91606 0.06834 0.29247 0.0
N390 N 0.80009 0.16675 0.31168 0.0
N391 N 0.99729 0.08609 0.25082 0.0
H392 H 0.91633 0.99417 0.32778 0.0
H393 H 0.96858 0.99706 0.29092 0.0
H394 H 0.01957 0.10821 0.22885 0.0
H395 H 0.02213 0.05948 0.26812 0.0
H396 H 0.784 0.2045 0.3012 0.0
H397 H 0.78635 0.15626 0.34075 0.0
H398 H 0.78583 0.1995 0.23722 0.0
H399 H 0.83794 0.20294 0.20035 0.0
loop_
_geom_bond_atom_site_label_1
_geom_bond_atom_site_label_2
_geom_bond_distance
_geom_bond_site_symmetry_2
_ccdc_geom_bond_type
O0 Cd1 2.223 . S
O0 C8 1.315 . S
Cd1 O0 2.223 . S
Cd1 O4 2.297 . S
Cd1 O5 2.439 . S
Cd1 O11 2.240 . S
Cd2 O3 2.240 . S
Cd2 O10 2.223 . S
Cd2 O12 2.297 . S
Cd2 O13 2.439 . S
O3 Cd2 2.240 . S
O3 C8 1.279 . S
O4 Cd1 2.297 . S
O4 C6 1.247 . S
O5 Cd1 2.439 . S
O5 C6 1.208 . S
C6 O4 1.247 . S
C6 O5 1.208 . S
C7 O12 1.247 . S
C7 O13 1.208 . S
C8 O0 1.315 . S
C8 O3 1.279 . S
C9 O10 1.315 . S
C9 O11 1.279 . S
O10 Cd2 2.223 . S
O10 C9 1.315 . S
O11 Cd1 2.240 . S
O11 C9 1.279 . S
O12 Cd2 2.297 . S
O12 C7 1.247 . S
O13 Cd2 2.439 . S
O13 C7 1.208 . S
O14 Cd15 2.223 . S
O14 C22 1.315 . S
Cd15 O14 2.223 . S
Cd15 O18 2.297 . S
Cd15 O19 2.439 . S
Cd15 O25 2.240 . S
Cd16 O17 2.240 . S
Cd16 O24 2.223 . S
Cd16 O26 2.297 . S
Cd16 O27 2.439 . S
O17 Cd16 2.240 . S
O17 C22 1.279 . S
O18 Cd15 2.297 . S
O18 C20 1.247 . S
O19 Cd15 2.439 . S
O19 C20 1.208 . S
C20 O18 1.247 . S
C20 O19 1.208 . S
C21 O26 1.247 . S
C21 O27 1.208 . S
C22 O14 1.315 . S
C22 O17 1.279 . S
C23 O24 1.315 . S
C23 O25 1.279 . S
O24 Cd16 2.223 . S
O24 C23 1.315 . S
O25 Cd15 2.240 . S
O25 C23 1.279 . S
O26 Cd16 2.297 . S
O26 C21 1.247 . S
O27 Cd16 2.439 . S
O27 C21 1.208 . S
O28 Cd29 2.223 . S
O28 C36 1.315 . S
Cd29 O28 2.223 . S
Cd29 O32 2.297 . S
Cd29 O33 2.439 . S
Cd29 O39 2.240 . S
Cd30 O31 2.240 . S
Cd30 O38 2.223 . S
Cd30 O40 2.297 . S
Cd30 O41 2.439 . S
O31 Cd30 2.240 . S
O31 C36 1.279 . S
O32 Cd29 2.297 . S
O32 C34 1.247 . S
O33 Cd29 2.439 . S
O33 C34 1.208 . S
C34 O32 1.247 . S
C34 O33 1.208 . S
C35 O40 1.247 . S
C35 O41 1.208 . S
C36 O28 1.315 . S
C36 O31 1.279 . S
C37 O38 1.315 . S
C37 O39 1.279 . S
O38 Cd30 2.223 . S
O38 C37 1.315 . S
O39 Cd29 2.240 . S
O39 C37 1.279 . S
O40 Cd30 2.297 . S
O40 C35 1.247 . S
O41 Cd30 2.439 . S
O41 C35 1.208 . S
O42 Cd43 2.223 . S
O42 C50 1.315 . S
Cd43 O42 2.223 . S
Cd43 O46 2.297 . S
Cd43 O47 2.439 . S
Cd43 O53 2.240 . S
Cd44 O45 2.240 . S
Cd44 O52 2.223 . S
Cd44 O54 2.297 . S
Cd44 O55 2.439 . S
O45 Cd44 2.240 . S
O45 C50 1.279 . S
O46 Cd43 2.297 . S
O46 C48 1.247 . S
O47 Cd43 2.439 . S
O47 C48 1.208 . S
C48 O46 1.247 . S
C48 O47 1.208 . S
C49 O54 1.247 . S
C49 O55 1.208 . S
C50 O42 1.315 . S
C50 O45 1.279 . S
C51 O52 1.315 . S
C51 O53 1.279 . S
O52 Cd44 2.223 . S
O52 C51 1.315 . S
O53 Cd43 2.240 . S
O53 C51 1.279 . S
O54 Cd44 2.297 . S
O54 C49 1.247 . S
O55 Cd44 2.439 . S
O55 C49 1.208 . S
O56 Cd57 2.223 . S
O56 C64 1.315 . S
Cd57 O56 2.223 . S
Cd57 O60 2.297 . S
Cd57 O61 2.439 . S
Cd57 O67 2.240 . S
Cd58 O59 2.240 . S
Cd58 O66 2.223 . S
Cd58 O68 2.297 . S
Cd58 O69 2.439 . S
O59 Cd58 2.240 . S
O59 C64 1.279 . S
O60 Cd57 2.297 . S
O60 C62 1.247 . S
O61 Cd57 2.439 . S
O61 C62 1.208 . S
C62 O60 1.247 . S
C62 O61 1.208 . S
C63 O68 1.247 . S
C63 O69 1.208 . S
C64 O56 1.315 . S
C64 O59 1.279 . S
C65 O66 1.315 . S
C65 O67 1.279 . S
O66 Cd58 2.223 . S
O66 C65 1.315 . S
O67 Cd57 2.240 . S
O67 C65 1.279 . S
O68 Cd58 2.297 . S
O68 C63 1.247 . S
O69 Cd58 2.439 . S
O69 C63 1.208 . S
O70 Cd71 2.223 . S
O70 C78 1.315 . S
Cd71 O70 2.223 . S
Cd71 O74 2.297 . S
Cd71 O75 2.439 . S
Cd71 O81 2.240 . S
Cd72 O73 2.240 . S
Cd72 O80 2.223 . S
Cd72 O82 2.297 . S
Cd72 O83 2.439 . S
O73 Cd72 2.240 . S
O73 C78 1.279 . S
O74 Cd71 2.297 . S
O74 C76 1.247 . S
O75 Cd71 2.439 . S
O75 C76 1.208 . S
C76 O74 1.247 . S
C76 O75 1.208 . S
C77 O82 1.247 . S
C77 O83 1.208 . S
C78 O70 1.315 . S
C78 O73 1.279 . S
C79 O80 1.315 . S
C79 O81 1.279 . S
O80 Cd72 2.223 . S
O80 C79 1.315 . S
O81 Cd71 2.240 . S
O81 C79 1.279 . S
O82 Cd72 2.297 . S
O82 C77 1.247 . S
O83 Cd72 2.439 . S
O83 C77 1.208 . S
O84 Cd85 2.223 . S
O84 C92 1.315 . S
Cd85 O84 2.223 . S
Cd85 O88 2.297 . S
Cd85 O89 2.439 . S
Cd85 O95 2.240 . S
Cd86 O87 2.240 . S
Cd86 O94 2.223 . S
Cd86 O96 2.297 . S
Cd86 O97 2.439 . S
O87 Cd86 2.240 . S
O87 C92 1.279 . S
O88 Cd85 2.297 . S
O88 C90 1.247 . S
O89 Cd85 2.439 . S
O89 C90 1.208 . S
C90 O88 1.247 . S
C90 O89 1.208 . S
C91 O96 1.247 . S
C91 O97 1.208 . S
C92 O84 1.315 . S
C92 O87 1.279 . S
C93 O94 1.315 . S
C93 O95 1.279 . S
O94 Cd86 2.223 . S
O94 C93 1.315 . S
O95 Cd85 2.240 . S
O95 C93 1.279 . S
O96 Cd86 2.297 . S
O96 C91 1.247 . S
O97 Cd86 2.439 . S
O97 C91 1.208 . S
O98 Cd99 2.223 . S
O98 C106 1.315 . S
Cd99 O98 2.223 . S
Cd99 O102 2.297 . S
Cd99 O103 2.439 . S
Cd99 O109 2.240 . S
Cd100 O101 2.240 . S
Cd100 O108 2.223 . S
Cd100 O110 2.297 . S
Cd100 O111 2.439 . S
O101 Cd100 2.240 . S
O101 C106 1.279 . S
O102 Cd99 2.297 . S
O102 C104 1.247 . S
O103 Cd99 2.439 . S
O103 C104 1.208 . S
C104 O102 1.247 . S
C104 O103 1.208 . S
C105 O110 1.247 . S
C105 O111 1.208 . S
C106 O98 1.315 . S
C106 O101 1.279 . S
C107 O108 1.315 . S
C107 O109 1.279 . S
O108 Cd100 2.223 . S
O108 C107 1.315 . S
O109 Cd99 2.240 . S
O109 C107 1.279 . S
O110 Cd100 2.297 . S
O110 C105 1.247 . S
O111 Cd100 2.439 . S
O111 C105 1.208 . S
C112 C113 1.363 1_455 S
C112 C118 1.379 . S
C112 N120 1.358 . S
C113 C112 1.363 1_655 S
C113 C119 1.363 . S
C114 C115 1.363 1_655 S
C114 C119 1.379 . S
C114 N121 1.358 . S
C115 C114 1.363 1_455 S
C115 C118 1.363 . S
N116 C118 1.356 . S
N116 H128 0.984 . S
N116 H129 0.985 . S
N117 C119 1.356 . S
N117 H122 0.984 . S
N117 H123 0.985 . S
C118 C112 1.379 . S
C118 C115 1.363 . S
C118 N116 1.356 . S
C119 C113 1.363 . S
C119 C114 1.379 . S
C119 N117 1.356 . S
N120 C112 1.358 . S
N120 H126 0.996 . S
N120 H127 0.972 1_455 S
N121 C114 1.358 . S
N121 H124 0.972 1_655 S
N121 H125 0.996 . S
H122 N117 0.984 . S
H123 N117 0.985 . S
H124 N121 0.972 1_455 S
H125 N121 0.996 . S
H126 N120 0.996 . S
H127 N120 0.972 1_655 S
H128 N116 0.984 . S
H129 N116 0.985 . S
C130 C131 1.363 . S
C130 C136 1.379 . S
C130 N138 1.356 . S
C131 C130 1.363 . S
C131 C137 1.363 1_545 S
C132 C133 1.363 . S
C132 C137 1.379 . S
C132 N139 1.356 . S
C133 C132 1.363 . S
C133 C136 1.363 1_565 S
N134 C136 1.358 . S
N134 H146 0.996 . S
N134 H147 0.972 1_545 S
N135 C137 1.358 . S
N135 H140 0.972 1_565 S
N135 H141 0.996 . S
C136 C130 1.379 . S
C136 C133 1.363 1_545 S
C136 N134 1.358 . S
C137 C131 1.363 1_565 S
C137 C132 1.379 . S
C137 N135 1.358 . S
N138 C130 1.356 . S
N138 H144 0.984 . S
N138 H145 0.984 . S
N139 C132 1.356 . S
N139 H142 0.984 . S
N139 H143 0.985 . S
H140 N135 0.972 1_545 S
H141 N135 0.996 . S
H142 N139 0.984 . S
H143 N139 0.985 . S
H144 N138 0.984 . S
H145 N138 0.984 . S
H146 N134 0.996 . S
H147 N134 0.972 1_565 S
C148 C149 1.363 1_455 S
C148 C154 1.379 . S
C148 N156 1.358 . S
C149 C148 1.363 1_655 S
C149 C155 1.363 . S
C150 C151 1.363 1_655 S
C150 C155 1.379 . S
C150 N157 1.358 . S
C151 C150 1.363 1_455 S
C151 C154 1.363 . S
N152 C154 1.356 . S
N152 H164 0.982 . S
N152 H165 0.985 . S
N153 C155 1.356 . S
N153 H158 0.984 . S
N153 H159 0.985 . S
C154 C148 1.379 . S
C154 C151 1.363 . S
C154 N152 1.356 . S
C155 C149 1.363 . S
C155 C150 1.379 . S
C155 N153 1.356 . S
N156 C148 1.358 . S
N156 H162 0.994 . S
N156 H163 0.972 1_455 S
N157 C150 1.358 . S
N157 H160 0.972 1_655 S
N157 H161 0.996 . S
H158 N153 0.984 . S
H159 N153 0.985 . S
H160 N157 0.972 1_455 S
H161 N157 0.996 . S
H162 N156 0.994 . S
H163 N156 0.972 1_655 S
H164 N152 0.982 . S
H165 N152 0.985 . S
C166 C167 1.363 1_565 S
C166 C172 1.379 . S
C166 N174 1.358 . S
C167 C166 1.363 1_545 S
C167 C173 1.363 . S
C168 C169 1.363 1_545 S
C168 C173 1.379 . S
C168 N175 1.358 . S
C169 C168 1.363 1_565 S
C169 C172 1.363 . S
N170 C172 1.356 . S
N170 H182 0.984 . S
N170 H183 0.985 . S
N171 C173 1.356 . S
N171 H176 0.984 . S
N171 H177 0.982 . S
C172 C166 1.379 . S
C172 C169 1.363 . S
C172 N170 1.356 . S
C173 C167 1.363 . S
C173 C168 1.379 . S
C173 N171 1.356 . S
N174 C166 1.358 . S
N174 H180 0.996 . S
N174 H181 0.972 1_565 S
N175 C168 1.358 . S
N175 H178 0.972 1_545 S
N175 H179 0.993 . S
H176 N171 0.984 . S
H177 N171 0.982 . S
H178 N175 0.972 1_565 S
H179 N175 0.993 . S
H180 N174 0.996 . S
H181 N174 0.972 1_545 S
H182 N170 0.984 . S
H183 N170 0.985 . S
C184 C185 1.363 . S
C184 C190 1.379 . S
C184 N192 1.356 . S
C185 C184 1.363 . S
C185 C191 1.363 . S
C186 C187 1.363 . S
C186 C191 1.379 . S
C186 N193 1.356 . S
C187 C186 1.363 . S
C187 C190 1.363 . S
N188 C190 1.356 . S
N188 H200 0.984 . S
N188 H201 0.985 . S
N189 C191 1.356 1_565 S
N189 H194 0.984 . S
N189 H195 0.985 . S
C190 C184 1.379 . S
C190 C187 1.363 . S
C190 N188 1.356 . S
C191 C185 1.363 . S
C191 C186 1.379 . S
C191 N189 1.356 1_545 S
N192 C184 1.356 . S
N192 H198 0.984 . S
N192 H199 0.984 . S
N193 C186 1.356 . S
N193 H196 0.984 . S
N193 H197 0.985 . S
H194 N189 0.984 . S
H195 N189 0.985 . S
H196 N193 0.984 . S
H197 N193 0.985 . S
H198 N192 0.984 . S
H199 N192 0.984 . S
H200 N188 0.984 . S
H201 N188 0.985 . S
C202 C203 1.363 . S
C202 C208 1.379 . S
C202 N210 1.356 . S
C203 C202 1.363 . S
C203 C209 1.363 . S
C204 C205 1.363 . S
C204 C209 1.379 . S
C204 N211 1.356 . S
C205 C204 1.363 . S
C205 C208 1.363 . S
N206 C208 1.356 1_655 S
N206 H218 0.984 . S
N206 H219 0.985 . S
N207 C209 1.356 . S
N207 H212 0.984 . S
N207 H213 0.985 . S
C208 C202 1.379 . S
C208 C205 1.363 . S
C208 N206 1.356 1_455 S
C209 C203 1.363 . S
C209 C204 1.379 . S
C209 N207 1.356 . S
N210 C202 1.356 . S
N210 H216 0.984 . S
N210 H217 0.984 . S
N211 C204 1.356 . S
N211 H214 0.984 . S
N211 H215 0.985 . S
H212 N207 0.984 . S
H213 N207 0.985 . S
H214 N211 0.984 . S
H215 N211 0.985 . S
H216 N210 0.984 . S
H217 N210 0.984 . S
H218 N206 0.984 . S
H219 N206 0.985 . S
C220 C221 1.363 . S
C220 C226 1.379 . S
C220 N228 1.356 . S
C221 C220 1.363 . S
C221 C227 1.363 . S
C222 C223 1.363 . S
C222 C227 1.379 . S
C222 N229 1.356 . S
C223 C222 1.363 . S
C223 C226 1.363 . S
N224 C226 1.356 . S
N224 H236 0.984 . S
N224 H237 0.985 . S
N225 C227 1.356 1_545 S
N225 H230 0.984 . S
N225 H231 0.985 . S
C226 C220 1.379 . S
C226 C223 1.363 . S
C226 N224 1.356 . S
C227 C221 1.363 . S
C227 C222 1.379 . S
C227 N225 1.356 1_565 S
N228 C220 1.356 . S
N228 H234 0.984 . S
N228 H235 0.984 . S
N229 C222 1.356 . S
N229 H232 0.984 . S
N229 H233 0.985 . S
H230 N225 0.984 . S
H231 N225 0.985 . S
H232 N229 0.984 . S
H233 N229 0.985 . S
H234 N228 0.984 . S
H235 N228 0.984 . S
H236 N224 0.984 . S
H237 N224 0.985 . S
C238 C239 1.363 . S
C238 C244 1.379 . S
C238 N246 1.356 . S
C239 C238 1.363 . S
C239 C245 1.363 . S
C240 C241 1.363 . S
C240 C245 1.379 . S
C240 N247 1.356 . S
C241 C240 1.363 . S
C241 C244 1.363 . S
N242 C244 1.356 . S
N242 H254 0.984 . S
N242 H255 0.985 1_655 S
N243 C245 1.356 . S
N243 H248 0.984 . S
N243 H249 0.985 . S
C244 C238 1.379 . S
C244 C241 1.363 . S
C244 N242 1.356 . S
C245 C239 1.363 . S
C245 C240 1.379 . S
C245 N243 1.356 . S
N246 C238 1.356 . S
N246 H252 0.984 . S
N246 H253 0.984 . S
N247 C240 1.356 . S
N247 H250 0.984 . S
N247 H251 0.985 . S
H248 N243 0.984 . S
H249 N243 0.985 . S
H250 N247 0.984 . S
H251 N247 0.985 . S
H252 N246 0.984 . S
H253 N246 0.984 . S
H254 N242 0.984 . S
H255 N242 0.985 1_455 S
C256 C257 1.363 . S
C256 C262 1.379 . S
C256 N264 1.356 . S
C257 C256 1.363 . S
C257 C263 1.363 1_556 S
C258 C259 1.363 . S
C258 C263 1.379 . S
C258 N265 1.356 . S
C259 C258 1.363 . S
C259 C262 1.363 1_554 S
N260 C262 1.356 . S
N260 H272 0.984 . S
N260 H273 0.985 . S
N261 C263 1.356 . S
N261 H266 0.984 1_545 S
N261 H267 0.985 . S
C262 C256 1.379 . S
C262 C259 1.363 1_556 S
C262 N260 1.356 . S
C263 C257 1.363 1_554 S
C263 C258 1.379 . S
C263 N261 1.356 . S
N264 C256 1.356 . S
N264 H270 0.984 . S
N264 H271 0.984 . S
N265 C258 1.356 . S
N265 H268 0.984 . S
N265 H269 0.985 . S
H266 N261 0.984 1_565 S
H267 N261 0.985 . S
H268 N265 0.984 . S
H269 N265 0.985 . S
H270 N264 0.984 . S
H271 N264 0.984 . S
H272 N260 0.984 . S
H273 N260 0.985 . S
C274 C275 1.363 . S
C274 C280 1.379 1_556 S
C274 N282 1.356 . S
C275 C274 1.363 . S
C275 C281 1.363 . S
C276 C277 1.363 . S
C276 C281 1.379 1_554 S
C276 N283 1.356 . S
C277 C276 1.363 . S
C277 C280 1.363 . S
N278 C280 1.356 . S
N278 H290 0.984 . S
N278 H291 0.985 1_455 S
N279 C281 1.356 . S
N279 H284 0.984 . S
N279 H285 0.985 . S
C280 C274 1.379 1_554 S
C280 C277 1.363 . S
C280 N278 1.356 . S
C281 C275 1.363 . S
C281 C276 1.379 1_556 S
C281 N279 1.356 . S
N282 C274 1.356 . S
N282 H288 0.984 . S
N282 H289 0.984 . S
N283 C276 1.356 . S
N283 H286 0.984 . S
N283 H287 0.985 . S
H284 N279 0.984 . S
H285 N279 0.985 . S
H286 N283 0.984 . S
H287 N283 0.985 . S
H288 N282 0.984 . S
H289 N282 0.984 . S
H290 N278 0.984 . S
H291 N278 0.985 1_655 S
C292 C293 1.363 1_556 S
C292 C298 1.379 . S
C292 N300 1.356 . S
C293 C292 1.363 1_554 S
C293 C299 1.363 . S
C294 C295 1.363 1_554 S
C294 C299 1.379 . S
C294 N301 1.356 1_565 S
C295 C294 1.363 1_556 S
C295 C298 1.363 . S
N296 C298 1.356 . S
N296 H308 0.984 . S
N296 H309 0.985 . S
N297 C299 1.356 . S
N297 H302 0.984 . S
N297 H303 0.985 . S
C298 C292 1.379 . S
C298 C295 1.363 . S
C298 N296 1.356 . S
C299 C293 1.363 . S
C299 C294 1.379 . S
C299 N297 1.356 . S
N300 C292 1.356 . S
N300 H306 0.984 . S
N300 H307 0.984 . S
N301 C294 1.356 1_545 S
N301 H304 0.984 . S
N301 H305 0.985 . S
H302 N297 0.984 . S
H303 N297 0.985 . S
H304 N301 0.984 . S
H305 N301 0.985 . S
H306 N300 0.984 . S
H307 N300 0.984 . S
H308 N296 0.984 . S
H309 N296 0.985 . S
C310 C311 1.363 . S
C310 C316 1.379 1_556 S
C310 N318 1.356 . S
C311 C310 1.363 . S
C311 C317 1.363 . S
C312 C313 1.363 . S
C312 C317 1.379 1_554 S
C312 N319 1.356 . S
C313 C312 1.363 . S
C313 C316 1.363 . S
N314 C316 1.356 . S
N314 H326 0.984 1_655 S
N314 H327 0.985 1_655 S
N315 C317 1.356 . S
N315 H320 0.984 . S
N315 H321 0.985 . S
C316 C310 1.379 1_554 S
C316 C313 1.363 . S
C316 N314 1.356 . S
C317 C311 1.363 . S
C317 C312 1.379 1_556 S
C317 N315 1.356 . S
N318 C310 1.356 . S
N318 H324 0.984 . S
N318 H325 0.984 . S
N319 C312 1.356 . S
N319 H322 0.984 . S
N319 H323 0.985 . S
H320 N315 0.984 . S
H321 N315 0.985 . S
H322 N319 0.984 . S
H323 N319 0.985 . S
H324 N318 0.984 . S
H325 N318 0.984 . S
H326 N314 0.984 1_455 S
H327 N314 0.985 1_455 S
C328 C329 1.363 . S
C328 C334 1.379 . S
C328 N336 1.356 . S
C329 C328 1.363 . S
C329 C335 1.363 . S
C330 C331 1.363 . S
C330 C335 1.379 . S
C330 N337 1.356 . S
C331 C330 1.363 . S
C331 C334 1.363 . S
N332 C334 1.356 . S
N332 H344 0.984 . S
N332 H345 0.985 . S
N333 C335 1.356 . S
N333 H338 0.984 . S
N333 H339 0.985 . S
C334 C328 1.379 . S
C334 C331 1.363 . S
C334 N332 1.356 . S
C335 C329 1.363 . S
C335 C330 1.379 . S
C335 N333 1.356 . S
N336 C328 1.356 . S
N336 H342 0.984 . S
N336 H343 0.984 . S
N337 C330 1.356 . S
N337 H340 0.984 . S
N337 H341 0.985 . S
H338 N333 0.984 . S
H339 N333 0.985 . S
H340 N337 0.984 . S
H341 N337 0.985 . S
H342 N336 0.984 . S
H343 N336 0.984 . S
H344 N332 0.984 . S
H345 N332 0.985 . S
C346 C347 1.363 . S
C346 C352 1.379 . S
C346 N354 1.356 . S
C347 C346 1.363 . S
C347 C353 1.363 . S
C348 C349 1.363 . S
C348 C353 1.379 . S
C348 N355 1.356 . S
C349 C348 1.363 . S
C349 C352 1.363 . S
N350 C352 1.356 . S
N350 H362 0.984 . S
N350 H363 0.985 . S
N351 C353 1.356 . S
N351 H356 0.984 . S
N351 H357 0.985 . S
C352 C346 1.379 . S
C352 C349 1.363 . S
C352 N350 1.356 . S
C353 C347 1.363 . S
C353 C348 1.379 . S
C353 N351 1.356 . S
N354 C346 1.356 . S
N354 H360 0.984 . S
N354 H361 0.984 . S
N355 C348 1.356 . S
N355 H358 0.984 . S
N355 H359 0.985 . S
H356 N351 0.984 . S
H357 N351 0.985 . S
H358 N355 0.984 . S
H359 N355 0.985 . S
H360 N354 0.984 . S
H361 N354 0.984 . S
H362 N350 0.984 . S
H363 N350 0.985 . S
C364 C365 1.363 . S
C364 C370 1.379 . S
C364 N372 1.356 . S
C365 C364 1.363 . S
C365 C371 1.363 . S
C366 C367 1.363 . S
C366 C371 1.379 . S
C366 N373 1.356 . S
C367 C366 1.363 . S
C367 C370 1.363 . S
N368 C370 1.356 . S
N368 H380 0.984 . S
N368 H381 0.985 . S
N369 C371 1.356 . S
N369 H374 0.984 . S
N369 H375 0.985 . S
C370 C364 1.379 . S
C370 C367 1.363 . S
C370 N368 1.356 . S
C371 C365 1.363 . S
C371 C366 1.379 . S
C371 N369 1.356 . S
N372 C364 1.356 . S
N372 H378 0.984 . S
N372 H379 0.984 . S
N373 C366 1.356 . S
N373 H376 0.984 . S
N373 H377 0.985 . S
H374 N369 0.984 . S
H375 N369 0.985 . S
H376 N373 0.984 . S
H377 N373 0.985 . S
H378 N372 0.984 . S
H379 N372 0.984 . S
H380 N368 0.984 . S
H381 N368 0.985 . S
C382 C383 1.363 . S
C382 C388 1.379 . S
C382 N390 1.356 . S
C383 C382 1.363 . S
C383 C389 1.363 . S
C384 C385 1.363 . S
C384 C389 1.379 . S
C384 N391 1.356 . S
C385 C384 1.363 . S
C385 C388 1.363 . S
N386 C388 1.356 . S
N386 H398 0.984 . S
N386 H399 0.985 . S
N387 C389 1.356 . S
N387 H392 0.984 . S
N387 H393 0.985 . S
C388 C382 1.379 . S
C388 C385 1.363 . S
C388 N386 1.356 . S
C389 C383 1.363 . S
C389 C384 1.379 . S
C389 N387 1.356 . S
N390 C382 1.356 . S
N390 H396 0.984 . S
N390 H397 0.984 . S
N391 C384 1.356 . S
N391 H394 0.984 . S
N391 H395 0.985 . S
H392 N387 0.984 . S
H393 N387 0.985 . S
H394 N391 0.984 . S
H395 N391 0.985 . S
H396 N390 0.984 . S
H397 N390 0.984 . S
H398 N386 0.984 . S
H399 N386 0.985 . S
C113 C34 1.478 . S
C115 C6 1.478 . S
C131 C48 1.478 . S
C133 C20 1.478 . S
C149 C62 1.478 . S
C151 C90 1.478 . S
C167 C76 1.478 . S
C169 C104 1.478 . S
C185 C22 1.481 1_545 S
C187 C9 1.421 . S
C203 C23 1.421 . S
C205 C36 1.481 1_455 S
C221 C50 1.481 1_565 S
C223 C37 1.421 . S
C239 C51 1.421 . S
C241 C8 1.481 1_655 S
C257 C106 1.481 1_545 S
C259 C65 1.421 . S
C275 C79 1.421 . S
C277 C64 1.481 1_455 S
C293 C93 1.421 . S
C295 C78 1.481 1_565 S
C311 C107 1.421 . S
C313 C92 1.481 1_655 S
C329 C7 1.557 . S
C331 C77 1.557 . S
C347 C91 1.557 . S
C349 C21 1.557 . S
C365 C35 1.557 . S
C367 C105 1.557 . S
C383 C49 1.557 . S
C385 C63 1.557 . S
