# Generated by pormake.
# Topology lvt, (4)-cn, num edge types: 1
# Building blocks:
#     Node 0, Type 0, BuildingBlock: ESEHIV_clean_sbu_0, # of connection points: 4
#     Node 1, Type 0, BuildingBlock: ESEHIV_clean_sbu_0, # of connection points: 4
#     Node 2, Type 0, BuildingBlock: ESEHIV_clean_sbu_0, # of connection points: 4
#     Node 3, Type 0, BuildingBlock: ESEHIV_clean_sbu_0, # of connection points: 4
#     Node 4, Type 0, BuildingBlock: ESEHIV_clean_sbu_0, # of connection points: 4
#     Node 5, Type 0, BuildingBlock: ESEHIV_clean_sbu_0, # of connection points: 4
#     Node 6, Type 0, BuildingBlock: ESEHIV_clean_sbu_0, # of connection points: 4
#     Node 7, Type 0, BuildingBlock: ESEHIV_clean_sbu_0, # of connection points: 4
#     Edge 8, Type (0, 0), BuildingBlock: KIFKEQ_clean_linker_1, # of connection points: 2
#     Edge 9, Type (0, 0), BuildingBlock: KIFKEQ_clean_linker_1, # of connection points: 2
#     Edge 10, Type (0, 0), BuildingBlock: KIFKEQ_clean_linker_1, # of connection points: 2
#     Edge 11, Type (0, 0), BuildingBlock: KIFKEQ_clean_linker_1, # of connection points: 2
#     Edge 12, Type (0, 0), BuildingBlock: KIFKEQ_clean_linker_1, # of connection points: 2
#     Edge 13, Type (0, 0), BuildingBlock: KIFKEQ_clean_linker_1, # of connection points: 2
#     Edge 14, Type (0, 0), BuildingBlock: KIFKEQ_clean_linker_1, # of connection points: 2
#     Edge 15, Type (0, 0), BuildingBlock: KIFKEQ_clean_linker_1, # of connection points: 2
#     Edge 16, Type (0, 0), BuildingBlock: KIFKEQ_clean_linker_1, # of connection points: 2
#     Edge 17, Type (0, 0), BuildingBlock: KIFKEQ_clean_linker_1, # of connection points: 2
#     Edge 18, Type (0, 0), BuildingBlock: KIFKEQ_clean_linker_1, # of connection points: 2
#     Edge 19, Type (0, 0), BuildingBlock: KIFKEQ_clean_linker_1, # of connection points: 2
#     Edge 20, Type (0, 0), BuildingBlock: KIFKEQ_clean_linker_1, # of connection points: 2
#     Edge 21, Type (0, 0), BuildingBlock: KIFKEQ_clean_linker_1, # of connection points: 2
#     Edge 22, Type (0, 0), BuildingBlock: KIFKEQ_clean_linker_1, # of connection points: 2
#     Edge 23, Type (0, 0), BuildingBlock: KIFKEQ_clean_linker_1, # of connection points: 2
# Relax obj value: 0.002
# Max RMSD: 0.098
# Mean RMSD: 0.094
data_MOF--net-lvt--node1-ESEHIV_clean_sbu_0--edge1-KIFKEQ_clean_linker_1
_symmetry_space_group_name_H-M    P1
_symmetry_Int_Tables_number       1
_symmetry_cell_setting            triclinic
loop_
_symmetry_equiv_pos_as_xyz
'x, y, z'
_cell_length_a     38.86643
_cell_length_b     38.794192
_cell_length_c     32.952529
_cell_angle_alpha  96.036229
_cell_angle_beta   89.289636
_cell_angle_gamma 96.164213
loop_
_atom_site_label
_atom_site_type_symbol
_atom_site_fract_x
_atom_site_fract_y
_atom_site_fract_z
_atom_type_partial_charge
Cu0 Cu 0.05888 0.03608 0.53414 0.0
N1 N 0.08801 0.03017 0.57732 0.0
N2 N 0.12646 1.00768 0.61406 0.0
C3 C 0.10261 1.00119 0.58398 0.0
C4 C 0.1269 0.04193 0.62677 0.0
C5 C 0.10308 0.05568 0.60417 0.0
O6 O 0.04551 0.99164 0.50209 0.0
C7 C 0.07939 0.06693 0.46135 0.0
O8 O 0.05411 0.04504 0.44464 0.0
H9 H 0.09722 0.97634 0.56573 0.0
H10 H 0.09818 0.08272 0.60588 0.0
N11 N 1.01961 0.05807 0.55075 0.0
N12 N 0.97368 0.08784 0.54595 0.0
C13 C 0.99839 0.07097 0.5255 0.0
C14 C 1.008 0.06695 0.58863 0.0
C15 C 0.9796 0.08516 0.58577 0.0
C16 C 1.02562 0.96365 0.50571 0.0
O17 O 1.02382 0.93964 0.47432 0.0
H18 H 1.00138 0.0683 0.4927 0.0
H19 H 1.01985 0.06133 0.61638 0.0
O20 O 0.08582 0.06682 0.49918 0.0
H21 H 0.14387 0.05614 0.65003 0.0
H22 H 0.96529 0.0966 0.61118 0.0
Cu23 Cu 0.31386 0.78248 0.79146 0.0
N24 N 0.31145 0.81227 0.75064 0.0
N25 N 0.28991 0.85073 0.71452 0.0
C26 C 0.28251 0.82347 0.73668 0.0
C27 C 0.32474 0.85682 0.71444 0.0
C28 C 0.33793 0.83307 0.73667 0.0
O29 O 0.26844 0.75525 0.7911 0.0
C30 C 0.33637 0.80878 0.87508 0.0
O31 O 0.33578 0.77657 0.88408 0.0
H32 H 0.25659 0.81372 0.74531 0.0
H33 H 0.36481 0.83247 0.74441 0.0
N34 N 0.34927 0.75338 0.77938 0.0
N35 N 0.38778 0.71506 0.78567 0.0
C36 C 0.36258 0.73255 0.80408 0.0
C37 C 0.36668 0.74886 0.74399 0.0
C38 C 0.39045 0.72539 0.74778 0.0
C39 C 0.26302 0.72238 0.79254 0.0
O40 O 0.28865 0.70513 0.80159 0.0
H41 H 0.35379 0.73002 0.83488 0.0
H42 H 0.36225 0.7616 0.71716 0.0
O43 O 0.32588 0.81469 0.84024 0.0
H44 H 0.33949 0.87796 0.70082 0.0
H45 H 0.4079 0.71626 0.72418 0.0
Cu46 Cu 0.54682 0.0575 0.02036 0.0
N47 N 0.5681 0.05074 0.96916 0.0
N48 N 0.59547 1.02312 0.91705 0.0
C49 C 0.57984 1.02063 0.95374 0.0
C50 C 0.59333 0.05638 0.9093 0.0
C51 C 0.57664 0.0733 0.94144 0.0
O52 O 0.51392 1.01568 0.0238 0.0
C53 C 0.60541 0.09191 0.05732 0.0
O54 O 0.60214 0.10961 0.02597 0.0
H55 H 0.57776 0.99771 0.97003 0.0
H56 H 0.57206 0.10043 0.94473 0.0
N57 N 0.52338 0.09765 0.02665 0.0
N58 N 0.49586 0.14125 0.05716 0.0
C59 C 0.51259 0.11324 0.06241 0.0
C60 C 0.51291 0.11629 0.99778 0.0
C61 C 0.49608 0.1432 0.01648 0.0
C62 C 0.48248 1.01596 0.01313 0.0
O63 O 0.472 0.0454 1.0045 0.0
H64 H 0.51683 0.10405 0.09165 0.0
H65 H 0.51612 0.11012 0.96532 0.0
O66 O 0.58344 0.06556 0.06146 0.0
H67 H 0.60338 0.06805 0.8826 0.0
H68 H 0.48381 0.16196 1.00112 0.0
Cu69 Cu 0.29053 0.31415 0.27516 0.0
N70 N 0.25121 0.28112 0.2717 0.0
N71 N 0.21139 0.23971 0.29097 0.0
C72 C 0.24154 0.25962 0.30038 0.0
C73 C 0.2019 0.2491 0.2547 0.0
C74 C 0.22647 0.2746 0.24292 0.0
O75 O 0.28813 0.34405 0.32659 0.0
C76 C 0.32969 0.27251 0.22842 0.0
O77 O 0.30194 0.27359 0.20639 0.0
H78 H 0.25595 0.25948 0.32823 0.0
H79 H 0.22614 0.2877 0.21556 0.0
N80 N 0.29346 0.34526 0.23513 0.0
N81 N 0.32073 0.38343 0.19586 0.0
C82 C 0.32401 0.35804 0.2201 0.0
C83 C 0.26973 0.3634 0.22018 0.0
C84 C 0.28653 0.38699 0.1958 0.0
C85 C 0.25807 0.35308 0.33549 0.0
O86 O 0.2319 0.3405 0.31166 0.0
H87 H 0.3485 0.34985 0.2284 0.0
H88 H 0.24245 0.36052 0.22752 0.0
O89 O 0.33088 0.28827 0.26451 0.0
H90 H 0.1789 0.23832 0.2377 0.0
H91 H 0.27454 0.40543 0.17962 0.0
Cu92 Cu 0.78339 0.27889 0.32966 0.0
N93 N 0.74879 0.30833 0.32447 0.0
N94 N 0.71635 0.34113 0.29159 0.0
C95 C 0.74309 0.32138 0.28913 0.0
C96 C 0.70491 0.34051 0.3305 0.0
C97 C 0.72494 0.32026 0.35067 0.0
O98 O 0.77649 0.24367 0.2826 0.0
C99 C 0.83098 0.3262 0.36999 0.0
O100 O 0.80503 0.32431 0.39587 0.0
H101 H 0.75868 0.3164 0.26218 0.0
H102 H 0.72212 0.31452 0.38201 0.0
N103 N 0.7814 0.25443 0.37612 0.0
N104 N 0.80223 0.22329 0.42199 0.0
C105 C 0.80874 0.2394 0.38793 0.0
C106 C 0.75639 0.2476 0.40367 0.0
C107 C 0.76915 0.2282 0.43195 0.0
C108 C 0.74761 0.22475 0.28453 0.0
O109 O 0.72798 0.23053 0.31673 0.0
H110 H 0.83297 0.24006 0.37134 0.0
H111 H 0.73076 0.25598 0.40324 0.0
O112 O 0.82756 0.30847 0.33505 0.0
H113 H 0.68327 0.35322 0.34349 0.0
H114 H 0.75531 0.21888 0.45804 0.0
Cu115 Cu 0.80923 0.82311 0.78559 0.0
N116 N 0.80493 0.80476 0.83643 0.0
N117 N 0.78361 0.77393 0.88684 0.0
C118 C 0.78041 0.78006 0.84744 0.0
C119 C 0.81146 0.79549 0.90098 0.0
C120 C 0.82444 0.81444 0.86996 0.0
O121 O 0.77126 0.85135 0.78126 0.0
C122 C 0.83149 0.76189 0.74763 0.0
O123 O 0.8423 0.76019 0.7849 0.0
H124 H 0.76087 0.76652 0.82676 0.0
H125 H 0.84641 0.83415 0.87191 0.0
N126 N 0.84931 0.85409 0.78195 0.0
N127 N 0.89118 0.88575 0.75046 0.0
C128 C 0.86846 0.85665 0.74779 0.0
C129 C 0.86025 0.88257 0.80725 0.0
C130 C 0.88615 0.90208 0.78798 0.0
C131 C 0.73925 0.84172 0.78599 0.0
O132 O 0.729 0.80859 0.78811 0.0
H133 H 0.86393 0.83887 0.72035 0.0
H134 H 0.84874 0.88978 0.83655 0.0
O135 O 0.81348 0.78633 0.74105 0.0
H136 H 0.82141 0.79797 0.93179 0.0
H137 H 0.8993 0.92698 0.80009 0.0
Cu138 Cu 0.57806 0.5379 0.02071 0.0
N139 N 0.55994 0.53701 0.96807 0.0
N140 N 0.53013 0.55658 0.919 0.0
C141 C 0.5427 0.56296 0.95738 0.0
C142 C 0.54011 0.52524 0.9048 0.0
C143 C 0.55838 0.51313 0.9352 0.0
O144 O 0.60742 0.58261 0.02783 0.0
C145 C 0.52021 0.5016 0.04633 0.0
O146 O 0.53107 0.48179 0.01499 0.0
H147 H 0.53938 0.58612 0.97777 0.0
H148 H 0.56874 0.48829 0.93367 0.0
N149 N 0.6045 0.50121 0.02901 0.0
N150 N 0.62951 0.46357 0.06339 0.0
C151 C 0.6117 0.49181 0.06604 0.0
C152 C 0.61842 0.47817 1.00191 0.0
C153 C 0.63377 0.45495 0.02299 0.0
C154 C 0.63699 0.58296 1.01038 0.0
O155 O 0.6468 0.55338 0.99358 0.0
H156 H 0.60318 0.505 0.09437 0.0
H157 H 0.61764 0.47823 0.96917 0.0
O158 O 0.53762 0.53107 0.05633 0.0
H159 H 0.53374 0.51148 0.87511 0.0
H160 H 0.6473 0.43356 1.00955 0.0
Cu161 Cu 0.05178 0.56124 0.53782 0.0
N162 N 1.02296 0.59621 0.53212 0.0
N163 N 0.98345 0.63283 0.55093 0.0
C164 C 1.00256 0.60845 0.56239 0.0
C165 C 0.99185 0.63573 0.51144 0.0
C166 C 1.0163 0.61307 0.49989 0.0
O167 O 0.0704 0.56923 0.59337 0.0
C168 C 1.01888 0.50778 0.48517 0.0
O169 O 0.03379 0.52789 0.4589 0.0
H170 H 1.00153 0.59915 0.59227 0.0
H171 H 1.02817 0.60905 0.47015 0.0
N172 N 0.09076 0.56201 0.50395 0.0
N173 N 0.13792 0.54213 0.47419 0.0
C174 C 0.11065 0.53556 0.49903 0.0
C175 C 0.1059 0.58653 0.48162 0.0
C176 C 0.13496 0.57422 0.46297 0.0
C177 C 0.08195 0.60078 0.6048 0.0
O178 O 0.07992 0.62459 0.57966 0.0
H179 H 0.10467 0.51162 0.51303 0.0
H180 H 0.09664 0.61155 0.47924 0.0
O181 O 1.02356 0.51685 0.52328 0.0
H182 H 0.98144 0.6532 0.49241 0.0
H183 H 0.15264 0.588 0.44309 0.0
H184 H 0.13269 0.11702 0.48578 0.0
H185 H 0.07176 0.07368 0.38022 0.0
H186 H 0.16459 0.15874 0.4448 0.0
H187 H 0.10401 0.1148 0.33918 0.0
H188 H 0.14254 0.21742 0.28864 0.0
H189 H 0.11125 0.17583 0.32982 0.0
H190 H 0.20642 0.16311 0.39006 0.0
H191 H 0.23775 0.20478 0.34887 0.0
C192 C 0.1262 0.11623 0.4538 0.0
C193 C 0.09956 0.09195 0.4364 0.0
C194 C 0.14464 0.14007 0.4302 0.0
C195 C 0.13691 0.1403 0.38858 0.0
C196 C 0.11039 0.11584 0.37121 0.0
C197 C 0.092 0.09203 0.39477 0.0
C198 C 0.15694 0.20558 0.31033 0.0
C199 C 0.19281 0.21464 0.31522 0.0
C200 C 0.13893 0.18163 0.33405 0.0
C201 C 0.15622 0.16597 0.36338 0.0
C202 C 0.19209 0.175 0.36828 0.0
C203 C 0.21011 0.19896 0.34455 0.0
H204 H 0.19525 1.02079 0.62501 0.0
H205 H 0.10958 0.94154 0.63193 0.0
H206 H 0.23461 0.98188 0.64709 0.0
H207 H 0.14824 0.90287 0.65724 0.0
H208 H 0.23057 0.82963 0.67282 0.0
H209 H 0.19084 0.86663 0.64627 0.0
H210 H 0.25429 0.95802 0.70057 0.0
H211 H 0.29472 0.92082 0.72394 0.0
C212 C 0.18487 0.99503 0.63192 0.0
C213 C 0.14945 0.98418 0.62699 0.0
C214 C 0.20736 0.97264 0.64502 0.0
C215 C 0.19493 0.93898 0.65481 0.0
C216 C 0.15924 0.92818 0.64959 0.0
C217 C 0.13689 0.95037 0.63534 0.0
C218 C 0.23585 0.85768 0.67869 0.0
C219 C 0.26585 0.87243 0.69992 0.0
C220 C 0.21297 0.87904 0.66379 0.0
C221 C 0.21911 0.91574 0.67073 0.0
C222 C 0.24888 0.93015 0.69312 0.0
C223 C 0.2721 0.90883 0.70695 0.0
H224 H 0.49877 0.94813 1.00123 0.0
H225 H 0.41273 1.01007 1.00325 0.0
H226 H 0.46072 0.89674 0.97359 0.0
H227 H 0.37491 0.95901 0.97634 0.0
H228 H 0.33693 0.87853 0.86916 0.0
H229 H 0.3705 0.92651 0.90911 0.0
H230 H 0.40941 0.85408 0.98352 0.0
H231 H 0.37583 0.80567 0.94307 0.0
C232 C 0.47162 0.95061 0.99677 0.0
C233 C 0.45892 0.98331 1.00403 0.0
C234 C 0.44978 0.92116 0.98092 0.0
C235 C 0.41484 0.92386 0.97206 0.0
C236 C 0.40181 0.95612 0.98188 0.0
C237 C 0.42352 0.9854 0.99757 0.0
C238 C 0.35224 0.87275 0.89435 0.0
C239 C 0.35361 0.83816 0.90281 0.0
C240 C 0.37145 0.90036 0.91746 0.0
C241 C 0.39273 0.89423 0.94962 0.0
C242 C 0.39353 0.8597 0.95877 0.0
C243 C 0.37403 0.832 0.93577 0.0
H244 H 0.3829 0.24307 0.26299 0.0
H245 H 0.34357 0.26616 0.148 0.0
H246 H 0.42895 0.21345 0.22603 0.0
H247 H 0.38857 0.23714 0.11183 0.0
H248 H 0.48605 0.20893 0.0549 0.0
H249 H 0.4514 0.24396 0.10163 0.0
H250 H 0.43232 0.15856 0.17583 0.0
H251 H 0.46731 0.12341 0.12893 0.0
C252 C 0.3843 0.24216 0.23005 0.0
C253 C 0.35949 0.25672 0.20842 0.0
C254 C 0.41045 0.2251 0.20891 0.0
C255 C 0.41254 0.22311 0.16597 0.0
C256 C 0.38815 0.23858 0.14484 0.0
C257 C 0.36205 0.25498 0.16568 0.0
C258 C 0.47466 0.19766 0.08128 0.0
C259 C 0.47893 0.16314 0.08769 0.0
C260 C 0.4549 0.21777 0.10818 0.0
C261 C 0.43867 0.20389 0.14217 0.0
C262 C 0.44463 0.1701 0.15008 0.0
C263 C 0.4646 0.14992 0.12311 0.0
H264 H 0.97403 0.91155 0.51146 0.0
H265 H 1.02934 0.99815 0.58446 0.0
H266 H 0.94275 0.89442 0.57126 0.0
H267 H 0.99868 0.98045 0.64511 0.0
H268 H 0.91113 0.95332 0.73812 0.0
H269 H 0.94358 0.97444 0.68007 0.0
H270 H 0.95286 0.86808 0.63107 0.0
H271 H 0.92001 0.84717 0.68859 0.0
C272 C 0.97977 0.92708 0.54033 0.0
C273 C 1.00489 0.95623 0.5429 0.0
C274 C 0.96188 0.91697 0.57488 0.0
C275 C 0.96858 0.9355 0.61343 0.0
C276 C 0.99276 0.96544 0.61598 0.0
C277 C 1.0106 0.97566 0.58109 0.0
C278 C 0.92046 0.93447 0.7152 0.0
C279 C 0.91268 0.89848 0.71789 0.0
C280 C 0.9391 0.94661 0.68184 0.0
C281 C 0.95054 0.92304 0.65042 0.0
C282 C 0.94373 0.88708 0.654 0.0
C283 C 0.92497 0.875 0.68711 0.0
H284 H 0.91268 0.10451 0.58025 0.0
H285 H 0.9762 0.11453 0.47275 0.0
H286 H 0.87062 0.13809 0.55231 0.0
H287 H 0.93373 0.14666 0.4443 0.0
H288 H 0.87214 0.23562 0.42361 0.0
H289 H 0.91273 0.2028 0.45469 0.0
H290 H 0.82745 0.13591 0.49878 0.0
H291 H 0.78662 0.16915 0.46764 0.0
C292 C 0.91773 0.11376 0.55068 0.0
C293 C 0.94805 0.10672 0.52892 0.0
C294 C 0.89338 0.13275 0.53444 0.0
C295 C 0.89877 0.14531 0.49608 0.0
C296 C 0.92888 0.13792 0.47419 0.0
C297 C 0.95314 0.11898 0.49036 0.0
C298 C 0.86195 0.21379 0.43967 0.0
C299 C 0.82604 0.2048 0.44263 0.0
C300 C 0.8853 0.19489 0.45753 0.0
C301 C 0.87348 0.16634 0.47886 0.0
C302 C 0.83752 0.15787 0.48282 0.0
C303 C 0.81408 0.17691 0.46496 0.0
H304 H 0.69169 0.17695 0.28732 0.0
H305 H 0.77168 0.21371 0.20531 0.0
H306 H 0.6627 0.14026 0.23156 0.0
H307 H 0.74301 0.17548 0.14889 0.0
H308 H 0.65294 0.14864 0.0559 0.0
H309 H 0.69243 0.17515 0.1093 0.0
H310 H 0.65995 0.09134 0.18254 0.0
H311 H 0.61908 0.06534 0.12919 0.0
C312 C 0.70352 0.17673 0.25737 0.0
C313 C 0.73384 0.19873 0.25074 0.0
C314 C 0.68696 0.15523 0.22527 0.0
C315 C 0.70023 0.15484 0.18541 0.0
C316 C 0.73166 0.17548 0.17906 0.0
C317 C 0.74831 0.19721 0.21141 0.0
C318 C 0.65433 0.13556 0.0832 0.0
C319 C 0.63236 0.10504 0.08844 0.0
C320 C 0.67741 0.15069 0.11381 0.0
C321 C 0.67942 0.13567 0.15058 0.0
C322 C 0.65871 0.10408 0.15498 0.0
C323 C 0.63536 0.089 0.12431 0.0
H324 H 0.63996 0.03182 0.85314 0.0
H325 H 0.59043 0.95336 0.92493 0.0
H326 H 0.67075 0.98796 0.81486 0.0
H327 H 0.62288 0.91008 0.88827 0.0
H328 H 0.6693 0.83167 0.80011 0.0
H329 H 0.63157 0.87529 0.82633 0.0
H330 H 0.71744 0.95573 0.82423 0.0
H331 H 0.75456 0.91252 0.79669 0.0
C332 C 0.6354 1.00534 0.8609 0.0
C333 C 0.61271 0.99661 0.89281 0.0
C334 C 0.65349 0.98009 0.83904 0.0
C335 C 0.6497 0.94537 0.84857 0.0
C336 C 0.62633 0.9364 0.87965 0.0
C337 C 0.608 0.96156 0.90127 0.0
C338 C 0.67994 0.85876 0.80456 0.0
C339 C 0.71504 0.86849 0.79644 0.0
C340 C 0.65837 0.88379 0.81999 0.0
C341 C 0.67142 0.91913 0.82794 0.0
C342 C 0.7062 0.92894 0.81814 0.0
C343 C 0.72764 0.90401 0.80245 0.0
H344 H 0.70642 0.59177 0.99997 0.0
H345 H 0.61601 0.6474 1.00135 0.0
H346 H 0.74112 0.64069 0.97409 0.0
H347 H 0.65103 0.69698 0.97533 0.0
H348 H 0.71592 0.75003 0.87269 0.0
H349 H 0.68004 0.70764 0.90912 0.0
H350 H 0.76559 0.70112 0.98927 0.0
H351 H 0.80164 0.74274 0.95231 0.0
C352 C 0.69411 0.61487 0.9956 0.0
C353 C 0.65847 0.61572 1.00285 0.0
C354 C 0.71407 0.64303 0.9808 0.0
C355 C 0.69892 0.67279 0.97233 0.0
C356 C 0.66347 0.6743 0.98114 0.0
C357 C 0.64348 0.64613 0.99654 0.0
C358 C 0.72714 0.73948 0.89798 0.0
C359 C 0.76187 0.7497 0.90924 0.0
C360 C 0.70638 0.7155 0.91926 0.0
C361 C 0.71986 0.70089 0.9522 0.0
C362 C 0.75439 0.7116 0.96389 0.0
C363 C 0.77504 0.7357 0.94281 0.0
H364 H 0.72773 0.32888 0.20967 0.0
H365 H 0.67401 0.39337 0.29888 0.0
H366 H 0.70705 0.35902 0.15575 0.0
H367 H 0.65159 0.42229 0.2443 0.0
H368 H 0.64652 0.49193 0.14039 0.0
H369 H 0.66689 0.46245 0.19592 0.0
H370 H 0.65799 0.36531 0.11761 0.0
H371 H 0.63849 0.39507 0.06206 0.0
C372 C 0.71152 0.34945 0.21806 0.0
C373 C 0.70293 0.35861 0.25918 0.0
C374 C 0.69914 0.36653 0.18675 0.0
C375 C 0.67742 0.39318 0.1953 0.0
C376 C 0.66858 0.40225 0.23635 0.0
C377 C 0.68117 0.38527 0.2678 0.0
C378 C 0.64874 0.46424 0.13514 0.0
C379 C 0.64101 0.44596 0.0966 0.0
C380 C 0.66034 0.44723 0.16708 0.0
C381 C 0.66431 0.41136 0.16152 0.0
C382 C 0.65607 0.39305 0.12304 0.0
C383 C 0.64477 0.41012 0.09105 0.0
H384 H 0.87459 0.37019 0.32745 0.0
H385 H 0.86004 0.33011 0.4443 0.0
H386 H 0.92229 0.4118 0.35574 0.0
H387 H 0.9086 0.36983 0.47214 0.0
H388 H 0.96453 0.47426 0.52452 0.0
H389 H 0.92191 0.42795 0.49517 0.0
H390 H 0.97835 0.42404 0.38109 0.0
H391 H 1.0197 0.47151 0.41001 0.0
C392 C 0.88228 0.36968 0.35884 0.0
C393 C 0.86355 0.34719 0.38376 0.0
C394 C 0.90967 0.39348 0.37522 0.0
C395 C 0.91923 0.39478 0.41667 0.0
C396 C 0.90153 0.37062 0.44061 0.0
C397 C 0.87386 0.34749 0.42451 0.0
C398 C 0.96797 0.46317 0.49336 0.0
C399 C 0.99537 0.47665 0.46959 0.0
C400 C 0.94358 0.43643 0.47639 0.0
C401 C 0.94635 0.42204 0.43542 0.0
C402 C 0.97468 0.43479 0.41231 0.0
C403 C 0.99866 0.46187 0.42906 0.0
H404 H 0.85367 0.69844 0.75144 0.0
H405 H 0.84299 0.77516 0.66788 0.0
H406 H 0.88751 0.66628 0.70099 0.0
H407 H 0.8779 0.7433 0.61734 0.0
H408 H 0.92639 0.66059 0.52699 0.0
H409 H 0.88486 0.68998 0.57123 0.0
H410 H 0.94564 0.67756 0.67655 0.0
H411 H 0.98658 0.64843 0.63278 0.0
C412 C 0.85817 0.70818 0.72199 0.0
C413 C 0.84582 0.73944 0.71376 0.0
C414 C 0.87788 0.68991 0.69315 0.0
C415 C 0.8862 0.7026 0.6554 0.0
C416 C 0.87199 0.73275 0.64607 0.0
C417 C 0.85191 0.75097 0.67498 0.0
C418 C 0.9309 0.66437 0.55957 0.0
C419 C 0.95959 0.65165 0.57634 0.0
C420 C 0.90709 0.68117 0.58494 0.0
C421 C 0.91149 0.6856 0.62759 0.0
C422 C 0.94074 0.6737 0.64402 0.0
C423 C 0.96435 0.65697 0.61884 0.0
H424 H 0.48287 0.43875 0.03031 0.0
H425 H 0.48732 0.53278 0.11392 0.0
H426 H 0.43435 0.41317 0.06735 0.0
H427 H 0.43771 0.50645 0.15163 0.0
H428 H 0.32383 0.45022 0.17594 0.0
H429 H 0.37178 0.48221 0.1415 0.0
H430 H 0.42876 0.39231 0.13644 0.0
H431 H 0.38115 0.36044 0.16971 0.0
C432 C 0.4735 0.45416 0.05664 0.0
C433 C 0.48937 0.48787 0.06926 0.0
C434 C 0.4456 0.43928 0.07801 0.0
C435 C 0.43241 0.45755 0.1127 0.0
C436 C 0.44736 0.49174 0.12493 0.0
C437 C 0.47579 0.50674 0.10348 0.0
C438 C 0.34656 0.43732 0.16725 0.0
C439 C 0.34857 0.4027 0.17552 0.0
C440 C 0.37414 0.45578 0.14801 0.0
C441 C 0.40401 0.43976 0.13619 0.0
C442 C 0.40602 0.40533 0.14487 0.0
C443 C 0.37876 0.3871 0.16422 0.0
H444 H 0.36896 0.67665 0.84834 0.0
H445 H 0.45162 0.69744 0.76255 0.0
H446 H 0.40291 0.63724 0.87923 0.0
H447 H 0.48558 0.65775 0.79347 0.0
H448 H 0.52372 0.5593 0.83729 0.0
H449 H 0.48837 0.59622 0.80337 0.0
H450 H 0.4543 0.6405 0.92083 0.0
H451 H 0.48851 0.60304 0.95445 0.0
C452 C 0.39445 0.67309 0.83616 0.0
C453 C 0.40754 0.69063 0.80305 0.0
C454 C 0.41396 0.65036 0.85391 0.0
C455 C 0.44712 0.64442 0.83906 0.0
C456 C 0.46 0.66138 0.80544 0.0
C457 C 0.44048 0.68421 0.78769 0.0
C458 C 0.50845 0.57669 0.85582 0.0
C459 C 0.50916 0.5782 0.89866 0.0
C460 C 0.48843 0.59812 0.83639 0.0
C461 C 0.46843 0.62137 0.85934 0.0
C462 C 0.46903 0.62267 0.90213 0.0
C463 C 0.48908 0.60142 0.92148 0.0
H464 H 0.21111 0.74768 0.75319 0.0
H465 H 0.241 0.65283 0.79362 0.0
H466 H 0.16302 0.71466 0.71586 0.0
H467 H 0.19166 0.61962 0.75751 0.0
H468 H 0.13509 0.57145 0.63666 0.0
H469 H 0.17494 0.59928 0.69013 0.0
H470 H 0.10934 0.68244 0.71424 0.0
H471 H 0.07107 0.65551 0.65917 0.0
C472 C 0.20687 0.71983 0.75508 0.0
C473 C 0.23017 0.70295 0.77623 0.0
C474 C 0.17899 0.70073 0.73372 0.0
C475 C 0.17324 0.66418 0.73327 0.0
C476 C 0.1955 0.64755 0.75637 0.0
C477 C 0.22368 0.66668 0.77744 0.0
C478 C 0.12882 0.59512 0.65433 0.0
C479 C 0.10016 0.61142 0.64387 0.0
C480 C 0.15166 0.61122 0.68503 0.0
C481 C 0.14594 0.6437 0.70618 0.0
C482 C 0.11537 0.65813 0.69789 0.0
C483 C 0.09309 0.64246 0.66672 0.0
H484 H 0.2081 0.34979 0.3925 0.0
H485 H 0.29172 0.41883 0.34932 0.0
H486 H 0.18568 0.39879 0.43268 0.0
H487 H 0.26903 0.46854 0.38948 0.0
H488 H 0.17665 0.54085 0.40472 0.0
H489 H 0.21443 0.49684 0.37968 0.0
H490 H 0.19508 0.44598 0.48933 0.0
H491 H 0.15776 0.49006 0.5146 0.0
C492 C 0.22243 0.37539 0.39296 0.0
C493 C 0.25184 0.38053 0.36834 0.0
C494 C 0.20955 0.40354 0.41587 0.0
C495 C 0.22541 0.43766 0.41407 0.0
C496 C 0.25613 0.44258 0.39128 0.0
C497 C 0.26942 0.41414 0.36881 0.0
C498 C 0.18102 0.52077 0.42391 0.0
C499 C 0.1635 0.51871 0.46135 0.0
C500 C 0.20281 0.49556 0.4096 0.0
C501 C 0.20754 0.46771 0.43237 0.0
C502 C 0.19157 0.46679 0.47078 0.0
C503 C 0.16995 0.49199 0.48512 0.0
loop_
_geom_bond_atom_site_label_1
_geom_bond_atom_site_label_2
_geom_bond_distance
_geom_bond_site_symmetry_2
_ccdc_geom_bond_type
Cu0 N1 1.999 1_545 S
Cu0 O6 1.974 1_445 S
Cu0 N11 1.985 1_455 S
Cu0 O20 1.959 . S
N1 Cu0 1.999 1_565 S
N1 C3 1.263 . S
N1 C5 1.389 1_565 S
N2 C3 1.358 . S
N2 C4 1.400 . S
C3 N1 1.263 . S
C3 N2 1.358 . S
C3 H9 0.930 . S
C4 N2 1.400 . S
C4 C5 1.351 1_565 S
C4 H21 0.930 . S
C5 N1 1.389 1_545 S
C5 C4 1.351 1_545 S
C5 H10 0.930 . S
O6 Cu0 1.974 1_665 S
O6 C16 1.282 . S
C7 O8 1.261 . S
C7 O20 1.251 . S
O8 C7 1.261 . S
H9 C3 0.930 . S
H10 C5 0.930 . S
N11 Cu0 1.985 1_655 S
N11 C13 1.335 . S
N11 C14 1.390 . S
N12 C13 1.345 . S
N12 C15 1.336 . S
C13 N11 1.335 . S
C13 N12 1.345 . S
C13 H18 0.930 1_655 S
C14 N11 1.390 . S
C14 C15 1.346 . S
C14 H19 0.930 1_545 S
C15 N12 1.336 . S
C15 C14 1.346 . S
C15 H22 0.929 . S
C16 O6 1.282 . S
C16 O17 1.216 . S
O17 C16 1.216 . S
H18 C13 0.930 1_455 S
H19 C14 0.930 1_565 S
O20 Cu0 1.959 . S
O20 C7 1.251 . S
H21 C4 0.930 . S
H22 C15 0.929 . S
Cu23 N24 1.999 . S
Cu23 O29 1.974 . S
Cu23 N34 1.985 . S
Cu23 O43 1.959 . S
N24 Cu23 1.999 . S
N24 C26 1.263 . S
N24 C28 1.389 . S
N25 C26 1.358 . S
N25 C27 1.400 . S
C26 N24 1.263 . S
C26 N25 1.358 . S
C26 H32 0.930 . S
C27 N25 1.400 . S
C27 C28 1.351 . S
C27 H44 0.930 . S
C28 N24 1.389 . S
C28 C27 1.351 . S
C28 H33 0.930 . S
O29 Cu23 1.974 . S
O29 C39 1.282 . S
C30 O31 1.261 . S
C30 O43 1.251 . S
O31 C30 1.261 . S
H32 C26 0.930 . S
H33 C28 0.930 . S
N34 Cu23 1.985 . S
N34 C36 1.335 . S
N34 C37 1.390 . S
N35 C36 1.345 . S
N35 C38 1.336 . S
C36 N34 1.335 . S
C36 N35 1.345 . S
C36 H41 0.930 . S
C37 N34 1.390 . S
C37 C38 1.346 . S
C37 H42 0.930 . S
C38 N35 1.336 . S
C38 C37 1.346 . S
C38 H45 0.929 . S
C39 O29 1.282 . S
C39 O40 1.216 . S
O40 C39 1.216 . S
H41 C36 0.930 . S
H42 C37 0.930 . S
O43 Cu23 1.959 . S
O43 C30 1.251 . S
H44 C27 0.930 . S
H45 C38 0.929 . S
Cu46 N47 1.999 1_544 S
Cu46 O52 1.974 1_544 S
Cu46 N57 1.985 . S
Cu46 O66 1.959 . S
N47 Cu46 1.999 1_566 S
N47 C49 1.263 . S
N47 C51 1.389 1_556 S
N48 C49 1.358 . S
N48 C50 1.400 . S
C49 N47 1.263 . S
C49 N48 1.358 . S
C49 H55 0.930 . S
C50 N48 1.400 . S
C50 C51 1.351 1_556 S
C50 H67 0.930 . S
C51 N47 1.389 1_554 S
C51 C50 1.351 1_554 S
C51 H56 0.930 1_565 S
O52 Cu46 1.974 1_566 S
O52 C62 1.282 . S
C53 O54 1.261 1_554 S
C53 O66 1.251 . S
O54 C53 1.261 1_556 S
H55 C49 0.930 . S
H56 C51 0.930 1_545 S
N57 Cu46 1.985 . S
N57 C59 1.335 . S
N57 C60 1.390 . S
N58 C59 1.345 . S
N58 C61 1.336 . S
C59 N57 1.335 . S
C59 N58 1.345 . S
C59 H64 0.930 . S
C60 N57 1.390 . S
C60 C61 1.346 . S
C60 H65 0.930 1_554 S
C61 N58 1.336 . S
C61 C60 1.346 . S
C61 H68 0.929 . S
C62 O52 1.282 . S
C62 O63 1.216 1_565 S
O63 C62 1.216 1_545 S
H64 C59 0.930 . S
H65 C60 0.930 1_556 S
O66 Cu46 1.959 . S
O66 C53 1.251 . S
H67 C50 0.930 . S
H68 C61 0.929 . S
Cu69 N70 1.999 . S
Cu69 O75 1.974 . S
Cu69 N80 1.985 . S
Cu69 O89 1.959 . S
N70 Cu69 1.999 . S
N70 C72 1.263 . S
N70 C74 1.389 . S
N71 C72 1.358 . S
N71 C73 1.400 . S
C72 N70 1.263 . S
C72 N71 1.358 . S
C72 H78 0.930 . S
C73 N71 1.400 . S
C73 C74 1.351 . S
C73 H90 0.930 . S
C74 N70 1.389 . S
C74 C73 1.351 . S
C74 H79 0.930 . S
O75 Cu69 1.974 . S
O75 C85 1.282 . S
C76 O77 1.261 . S
C76 O89 1.251 . S
O77 C76 1.261 . S
H78 C72 0.930 . S
H79 C74 0.930 . S
N80 Cu69 1.985 . S
N80 C82 1.335 . S
N80 C83 1.390 . S
N81 C82 1.345 . S
N81 C84 1.336 . S
C82 N80 1.335 . S
C82 N81 1.345 . S
C82 H87 0.930 . S
C83 N80 1.390 . S
C83 C84 1.346 . S
C83 H88 0.930 . S
C84 N81 1.336 . S
C84 C83 1.346 . S
C84 H91 0.929 . S
C85 O75 1.282 . S
C85 O86 1.216 . S
O86 C85 1.216 . S
H87 C82 0.930 . S
H88 C83 0.930 . S
O89 Cu69 1.959 . S
O89 C76 1.251 . S
H90 C73 0.930 . S
H91 C84 0.929 . S
Cu92 N93 1.999 . S
Cu92 O98 1.974 . S
Cu92 N103 1.985 . S
Cu92 O112 1.959 . S
N93 Cu92 1.999 . S
N93 C95 1.263 . S
N93 C97 1.389 . S
N94 C95 1.358 . S
N94 C96 1.400 . S
C95 N93 1.263 . S
C95 N94 1.358 . S
C95 H101 0.930 . S
C96 N94 1.400 . S
C96 C97 1.351 . S
C96 H113 0.930 . S
C97 N93 1.389 . S
C97 C96 1.351 . S
C97 H102 0.930 . S
O98 Cu92 1.974 . S
O98 C108 1.282 . S
C99 O100 1.261 . S
C99 O112 1.251 . S
O100 C99 1.261 . S
H101 C95 0.930 . S
H102 C97 0.930 . S
N103 Cu92 1.985 . S
N103 C105 1.335 . S
N103 C106 1.390 . S
N104 C105 1.345 . S
N104 C107 1.336 . S
C105 N103 1.335 . S
C105 N104 1.345 . S
C105 H110 0.930 . S
C106 N103 1.390 . S
C106 C107 1.346 . S
C106 H111 0.930 . S
C107 N104 1.336 . S
C107 C106 1.346 . S
C107 H114 0.929 . S
C108 O98 1.282 . S
C108 O109 1.216 . S
O109 C108 1.216 . S
H110 C105 0.930 . S
H111 C106 0.930 . S
O112 Cu92 1.959 . S
O112 C99 1.251 . S
H113 C96 0.930 . S
H114 C107 0.929 . S
Cu115 N116 1.999 . S
Cu115 O121 1.974 . S
Cu115 N126 1.985 . S
Cu115 O135 1.959 . S
N116 Cu115 1.999 . S
N116 C118 1.263 . S
N116 C120 1.389 . S
N117 C118 1.358 . S
N117 C119 1.400 . S
C118 N116 1.263 . S
C118 N117 1.358 . S
C118 H124 0.930 . S
C119 N117 1.400 . S
C119 C120 1.351 . S
C119 H136 0.930 . S
C120 N116 1.389 . S
C120 C119 1.351 . S
C120 H125 0.930 . S
O121 Cu115 1.974 . S
O121 C131 1.282 . S
C122 O123 1.261 . S
C122 O135 1.251 . S
O123 C122 1.261 . S
H124 C118 0.930 . S
H125 C120 0.930 . S
N126 Cu115 1.985 . S
N126 C128 1.335 . S
N126 C129 1.390 . S
N127 C128 1.345 . S
N127 C130 1.336 . S
C128 N126 1.335 . S
C128 N127 1.345 . S
C128 H133 0.930 . S
C129 N126 1.390 . S
C129 C130 1.346 . S
C129 H134 0.930 . S
C130 N127 1.336 . S
C130 C129 1.346 . S
C130 H137 0.929 . S
C131 O121 1.282 . S
C131 O132 1.216 . S
O132 C131 1.216 . S
H133 C128 0.930 . S
H134 C129 0.930 . S
O135 Cu115 1.959 . S
O135 C122 1.251 . S
H136 C119 0.930 . S
H137 C130 0.929 . S
Cu138 N139 1.999 . S
Cu138 O144 1.974 . S
Cu138 N149 1.985 . S
Cu138 O158 1.959 . S
N139 Cu138 1.999 . S
N139 C141 1.263 . S
N139 C143 1.389 . S
N140 C141 1.358 . S
N140 C142 1.400 . S
C141 N139 1.263 . S
C141 N140 1.358 . S
C141 H147 0.930 1_554 S
C142 N140 1.400 . S
C142 C143 1.351 . S
C142 H159 0.930 . S
C143 N139 1.389 . S
C143 C142 1.351 . S
C143 H148 0.930 . S
O144 Cu138 1.974 . S
O144 C154 1.282 1_554 S
C145 O146 1.261 . S
C145 O158 1.251 . S
O146 C145 1.261 . S
H147 C141 0.930 1_556 S
H148 C143 0.930 . S
N149 Cu138 1.985 . S
N149 C151 1.335 . S
N149 C152 1.390 . S
N150 C151 1.345 . S
N150 C153 1.336 . S
C151 N149 1.335 . S
C151 N150 1.345 . S
C151 H156 0.930 . S
C152 N149 1.390 . S
C152 C153 1.346 . S
C152 H157 0.930 . S
C153 N150 1.336 . S
C153 C152 1.346 . S
C153 H160 0.929 . S
C154 O144 1.282 1_556 S
C154 O155 1.216 . S
O155 C154 1.216 . S
H156 C151 0.930 . S
H157 C152 0.930 . S
O158 Cu138 1.959 . S
O158 C145 1.251 . S
H159 C142 0.930 . S
H160 C153 0.929 . S
Cu161 N162 1.999 1_455 S
Cu161 O167 1.974 . S
Cu161 N172 1.985 . S
Cu161 O181 1.959 1_455 S
N162 Cu161 1.999 1_655 S
N162 C164 1.263 . S
N162 C166 1.389 . S
N163 C164 1.358 . S
N163 C165 1.400 . S
C164 N162 1.263 . S
C164 N163 1.358 . S
C164 H170 0.930 . S
C165 N163 1.400 . S
C165 C166 1.351 . S
C165 H182 0.930 . S
C166 N162 1.389 . S
C166 C165 1.351 . S
C166 H171 0.930 . S
O167 Cu161 1.974 . S
O167 C177 1.282 . S
C168 O169 1.261 . S
C168 O181 1.251 . S
O169 C168 1.261 . S
H170 C164 0.930 . S
H171 C166 0.930 . S
N172 Cu161 1.985 . S
N172 C174 1.335 . S
N172 C175 1.390 . S
N173 C174 1.345 . S
N173 C176 1.336 . S
C174 N172 1.335 . S
C174 N173 1.345 . S
C174 H179 0.930 . S
C175 N172 1.390 . S
C175 C176 1.346 . S
C175 H180 0.930 . S
C176 N173 1.336 . S
C176 C175 1.346 . S
C176 H183 0.929 . S
C177 O167 1.282 . S
C177 O178 1.216 . S
O178 C177 1.216 . S
H179 C174 0.930 . S
H180 C175 0.930 . S
O181 Cu161 1.959 1_655 S
O181 C168 1.251 . S
H182 C165 0.930 . S
H183 C176 0.929 . S
H184 C192 0.950 . S
H185 C197 0.950 . S
H186 C194 0.950 . S
H187 C196 0.950 . S
H188 C198 0.950 . S
H189 C200 0.950 . S
H190 C202 0.950 . S
H191 C203 0.950 . S
C192 H184 0.950 . S
C192 C193 1.386 . S
C192 C194 1.391 . S
C193 C192 1.386 . S
C193 C197 1.393 . S
C194 H186 0.950 . S
C194 C192 1.391 . S
C194 C195 1.400 . S
C195 C194 1.400 . S
C195 C196 1.398 . S
C195 C201 1.491 . S
C196 H187 0.950 . S
C196 C195 1.398 . S
C196 C197 1.391 . S
C197 H185 0.950 . S
C197 C193 1.393 . S
C197 C196 1.391 . S
C198 H188 0.950 . S
C198 C199 1.386 . S
C198 C200 1.391 . S
C199 C198 1.386 . S
C199 C203 1.393 . S
C200 H189 0.950 . S
C200 C198 1.391 . S
C200 C201 1.400 . S
C201 C195 1.491 . S
C201 C200 1.400 . S
C201 C202 1.398 . S
C202 H190 0.950 . S
C202 C201 1.398 . S
C202 C203 1.391 . S
C203 H191 0.950 . S
C203 C199 1.393 . S
C203 C202 1.391 . S
H204 C212 0.950 . S
H205 C217 0.950 . S
H206 C214 0.950 . S
H207 C216 0.950 . S
H208 C218 0.950 . S
H209 C220 0.950 . S
H210 C222 0.950 . S
H211 C223 0.950 . S
C212 H204 0.950 . S
C212 C213 1.386 . S
C212 C214 1.391 . S
C213 C212 1.386 . S
C213 C217 1.393 . S
C214 H206 0.950 . S
C214 C212 1.391 . S
C214 C215 1.400 . S
C215 C214 1.400 . S
C215 C216 1.398 . S
C215 C221 1.491 . S
C216 H207 0.950 . S
C216 C215 1.398 . S
C216 C217 1.391 . S
C217 H205 0.950 . S
C217 C213 1.393 . S
C217 C216 1.391 . S
C218 H208 0.950 . S
C218 C219 1.386 . S
C218 C220 1.391 . S
C219 C218 1.386 . S
C219 C223 1.393 . S
C220 H209 0.950 . S
C220 C218 1.391 . S
C220 C221 1.400 . S
C221 C215 1.491 . S
C221 C220 1.400 . S
C221 C222 1.398 . S
C222 H210 0.950 . S
C222 C221 1.398 . S
C222 C223 1.391 . S
C223 H211 0.950 . S
C223 C219 1.393 . S
C223 C222 1.391 . S
H224 C232 0.950 . S
H225 C237 0.950 . S
H226 C234 0.950 . S
H227 C236 0.950 . S
H228 C238 0.950 . S
H229 C240 0.950 . S
H230 C242 0.950 . S
H231 C243 0.950 . S
C232 H224 0.950 . S
C232 C233 1.386 . S
C232 C234 1.391 . S
C233 C232 1.386 . S
C233 C237 1.393 . S
C234 H226 0.950 . S
C234 C232 1.391 . S
C234 C235 1.400 . S
C235 C234 1.400 . S
C235 C236 1.398 . S
C235 C241 1.491 . S
C236 H227 0.950 . S
C236 C235 1.398 . S
C236 C237 1.391 . S
C237 H225 0.950 . S
C237 C233 1.393 . S
C237 C236 1.391 . S
C238 H228 0.950 . S
C238 C239 1.386 . S
C238 C240 1.391 . S
C239 C238 1.386 . S
C239 C243 1.393 . S
C240 H229 0.950 . S
C240 C238 1.391 . S
C240 C241 1.400 . S
C241 C235 1.491 . S
C241 C240 1.400 . S
C241 C242 1.398 . S
C242 H230 0.950 . S
C242 C241 1.398 . S
C242 C243 1.391 . S
C243 H231 0.950 . S
C243 C239 1.393 . S
C243 C242 1.391 . S
H244 C252 0.950 . S
H245 C257 0.950 . S
H246 C254 0.950 . S
H247 C256 0.950 . S
H248 C258 0.950 . S
H249 C260 0.950 . S
H250 C262 0.950 . S
H251 C263 0.950 . S
C252 H244 0.950 . S
C252 C253 1.386 . S
C252 C254 1.391 . S
C253 C252 1.386 . S
C253 C257 1.393 . S
C254 H246 0.950 . S
C254 C252 1.391 . S
C254 C255 1.400 . S
C255 C254 1.400 . S
C255 C256 1.398 . S
C255 C261 1.491 . S
C256 H247 0.950 . S
C256 C255 1.398 . S
C256 C257 1.391 . S
C257 H245 0.950 . S
C257 C253 1.393 . S
C257 C256 1.391 . S
C258 H248 0.950 . S
C258 C259 1.386 . S
C258 C260 1.391 . S
C259 C258 1.386 . S
C259 C263 1.393 . S
C260 H249 0.950 . S
C260 C258 1.391 . S
C260 C261 1.400 . S
C261 C255 1.491 . S
C261 C260 1.400 . S
C261 C262 1.398 . S
C262 H250 0.950 . S
C262 C261 1.398 . S
C262 C263 1.391 . S
C263 H251 0.950 . S
C263 C259 1.393 . S
C263 C262 1.391 . S
H264 C272 0.950 . S
H265 C277 0.950 . S
H266 C274 0.950 . S
H267 C276 0.950 . S
H268 C278 0.950 . S
H269 C280 0.950 . S
H270 C282 0.950 . S
H271 C283 0.950 . S
C272 H264 0.950 . S
C272 C273 1.386 . S
C272 C274 1.391 . S
C273 C272 1.386 . S
C273 C277 1.393 . S
C274 H266 0.950 . S
C274 C272 1.391 . S
C274 C275 1.400 . S
C275 C274 1.400 . S
C275 C276 1.398 . S
C275 C281 1.491 . S
C276 H267 0.950 . S
C276 C275 1.398 . S
C276 C277 1.391 . S
C277 H265 0.950 . S
C277 C273 1.393 . S
C277 C276 1.391 . S
C278 H268 0.950 . S
C278 C279 1.386 . S
C278 C280 1.391 . S
C279 C278 1.386 . S
C279 C283 1.393 . S
C280 H269 0.950 . S
C280 C278 1.391 . S
C280 C281 1.400 . S
C281 C275 1.491 . S
C281 C280 1.400 . S
C281 C282 1.398 . S
C282 H270 0.950 . S
C282 C281 1.398 . S
C282 C283 1.391 . S
C283 H271 0.950 . S
C283 C279 1.393 . S
C283 C282 1.391 . S
H284 C292 0.950 . S
H285 C297 0.950 . S
H286 C294 0.950 . S
H287 C296 0.950 . S
H288 C298 0.950 . S
H289 C300 0.950 . S
H290 C302 0.950 . S
H291 C303 0.950 . S
C292 H284 0.950 . S
C292 C293 1.386 . S
C292 C294 1.391 . S
C293 C292 1.386 . S
C293 C297 1.393 . S
C294 H286 0.950 . S
C294 C292 1.391 . S
C294 C295 1.400 . S
C295 C294 1.400 . S
C295 C296 1.398 . S
C295 C301 1.491 . S
C296 H287 0.950 . S
C296 C295 1.398 . S
C296 C297 1.391 . S
C297 H285 0.950 . S
C297 C293 1.393 . S
C297 C296 1.391 . S
C298 H288 0.950 . S
C298 C299 1.386 . S
C298 C300 1.391 . S
C299 C298 1.386 . S
C299 C303 1.393 . S
C300 H289 0.950 . S
C300 C298 1.391 . S
C300 C301 1.400 . S
C301 C295 1.491 . S
C301 C300 1.400 . S
C301 C302 1.398 . S
C302 H290 0.950 . S
C302 C301 1.398 . S
C302 C303 1.391 . S
C303 H291 0.950 . S
C303 C299 1.393 . S
C303 C302 1.391 . S
H304 C312 0.950 . S
H305 C317 0.950 . S
H306 C314 0.950 . S
H307 C316 0.950 . S
H308 C318 0.950 . S
H309 C320 0.950 . S
H310 C322 0.950 . S
H311 C323 0.950 . S
C312 H304 0.950 . S
C312 C313 1.386 . S
C312 C314 1.391 . S
C313 C312 1.386 . S
C313 C317 1.393 . S
C314 H306 0.950 . S
C314 C312 1.391 . S
C314 C315 1.400 . S
C315 C314 1.400 . S
C315 C316 1.398 . S
C315 C321 1.491 . S
C316 H307 0.950 . S
C316 C315 1.398 . S
C316 C317 1.391 . S
C317 H305 0.950 . S
C317 C313 1.393 . S
C317 C316 1.391 . S
C318 H308 0.950 . S
C318 C319 1.386 . S
C318 C320 1.391 . S
C319 C318 1.386 . S
C319 C323 1.393 . S
C320 H309 0.950 . S
C320 C318 1.391 . S
C320 C321 1.400 . S
C321 C315 1.491 . S
C321 C320 1.400 . S
C321 C322 1.398 . S
C322 H310 0.950 . S
C322 C321 1.398 . S
C322 C323 1.391 . S
C323 H311 0.950 . S
C323 C319 1.393 . S
C323 C322 1.391 . S
H324 C332 0.950 . S
H325 C337 0.950 . S
H326 C334 0.950 . S
H327 C336 0.950 . S
H328 C338 0.950 . S
H329 C340 0.950 . S
H330 C342 0.950 . S
H331 C343 0.950 . S
C332 H324 0.950 . S
C332 C333 1.386 . S
C332 C334 1.391 . S
C333 C332 1.386 . S
C333 C337 1.393 . S
C334 H326 0.950 . S
C334 C332 1.391 . S
C334 C335 1.400 . S
C335 C334 1.400 . S
C335 C336 1.398 . S
C335 C341 1.491 . S
C336 H327 0.950 . S
C336 C335 1.398 . S
C336 C337 1.391 . S
C337 H325 0.950 . S
C337 C333 1.393 . S
C337 C336 1.391 . S
C338 H328 0.950 . S
C338 C339 1.386 . S
C338 C340 1.391 . S
C339 C338 1.386 . S
C339 C343 1.393 . S
C340 H329 0.950 . S
C340 C338 1.391 . S
C340 C341 1.400 . S
C341 C335 1.491 . S
C341 C340 1.400 . S
C341 C342 1.398 . S
C342 H330 0.950 . S
C342 C341 1.398 . S
C342 C343 1.391 . S
C343 H331 0.950 . S
C343 C339 1.393 . S
C343 C342 1.391 . S
H344 C352 0.950 . S
H345 C357 0.950 1_554 S
H346 C354 0.950 . S
H347 C356 0.950 . S
H348 C358 0.950 . S
H349 C360 0.950 . S
H350 C362 0.950 . S
H351 C363 0.950 . S
C352 H344 0.950 . S
C352 C353 1.386 . S
C352 C354 1.391 . S
C353 C352 1.386 . S
C353 C357 1.393 . S
C354 H346 0.950 . S
C354 C352 1.391 . S
C354 C355 1.400 . S
C355 C354 1.400 . S
C355 C356 1.398 . S
C355 C361 1.491 . S
C356 H347 0.950 . S
C356 C355 1.398 . S
C356 C357 1.391 . S
C357 H345 0.950 1_556 S
C357 C353 1.393 . S
C357 C356 1.391 . S
C358 H348 0.950 . S
C358 C359 1.386 . S
C358 C360 1.391 . S
C359 C358 1.386 . S
C359 C363 1.393 . S
C360 H349 0.950 . S
C360 C358 1.391 . S
C360 C361 1.400 . S
C361 C355 1.491 . S
C361 C360 1.400 . S
C361 C362 1.398 . S
C362 H350 0.950 . S
C362 C361 1.398 . S
C362 C363 1.391 . S
C363 H351 0.950 . S
C363 C359 1.393 . S
C363 C362 1.391 . S
H364 C372 0.950 . S
H365 C377 0.950 . S
H366 C374 0.950 . S
H367 C376 0.950 . S
H368 C378 0.950 . S
H369 C380 0.950 . S
H370 C382 0.950 . S
H371 C383 0.950 . S
C372 H364 0.950 . S
C372 C373 1.386 . S
C372 C374 1.391 . S
C373 C372 1.386 . S
C373 C377 1.393 . S
C374 H366 0.950 . S
C374 C372 1.391 . S
C374 C375 1.400 . S
C375 C374 1.400 . S
C375 C376 1.398 . S
C375 C381 1.491 . S
C376 H367 0.950 . S
C376 C375 1.398 . S
C376 C377 1.391 . S
C377 H365 0.950 . S
C377 C373 1.393 . S
C377 C376 1.391 . S
C378 H368 0.950 . S
C378 C379 1.386 . S
C378 C380 1.391 . S
C379 C378 1.386 . S
C379 C383 1.393 . S
C380 H369 0.950 . S
C380 C378 1.391 . S
C380 C381 1.400 . S
C381 C375 1.491 . S
C381 C380 1.400 . S
C381 C382 1.398 . S
C382 H370 0.950 . S
C382 C381 1.398 . S
C382 C383 1.391 . S
C383 H371 0.950 . S
C383 C379 1.393 . S
C383 C382 1.391 . S
H384 C392 0.950 . S
H385 C397 0.950 . S
H386 C394 0.950 . S
H387 C396 0.950 . S
H388 C398 0.950 . S
H389 C400 0.950 . S
H390 C402 0.950 . S
H391 C403 0.950 . S
C392 H384 0.950 . S
C392 C393 1.386 . S
C392 C394 1.391 . S
C393 C392 1.386 . S
C393 C397 1.393 . S
C394 H386 0.950 . S
C394 C392 1.391 . S
C394 C395 1.400 . S
C395 C394 1.400 . S
C395 C396 1.398 . S
C395 C401 1.491 . S
C396 H387 0.950 . S
C396 C395 1.398 . S
C396 C397 1.391 . S
C397 H385 0.950 . S
C397 C393 1.393 . S
C397 C396 1.391 . S
C398 H388 0.950 . S
C398 C399 1.386 . S
C398 C400 1.391 . S
C399 C398 1.386 . S
C399 C403 1.393 . S
C400 H389 0.950 . S
C400 C398 1.391 . S
C400 C401 1.400 . S
C401 C395 1.491 . S
C401 C400 1.400 . S
C401 C402 1.398 . S
C402 H390 0.950 . S
C402 C401 1.398 . S
C402 C403 1.391 . S
C403 H391 0.950 . S
C403 C399 1.393 . S
C403 C402 1.391 . S
H404 C412 0.950 . S
H405 C417 0.950 . S
H406 C414 0.950 . S
H407 C416 0.950 . S
H408 C418 0.950 . S
H409 C420 0.950 . S
H410 C422 0.950 . S
H411 C423 0.950 . S
C412 H404 0.950 . S
C412 C413 1.386 . S
C412 C414 1.391 . S
C413 C412 1.386 . S
C413 C417 1.393 . S
C414 H406 0.950 . S
C414 C412 1.391 . S
C414 C415 1.400 . S
C415 C414 1.400 . S
C415 C416 1.398 . S
C415 C421 1.491 . S
C416 H407 0.950 . S
C416 C415 1.398 . S
C416 C417 1.391 . S
C417 H405 0.950 . S
C417 C413 1.393 . S
C417 C416 1.391 . S
C418 H408 0.950 . S
C418 C419 1.386 . S
C418 C420 1.391 . S
C419 C418 1.386 . S
C419 C423 1.393 . S
C420 H409 0.950 . S
C420 C418 1.391 . S
C420 C421 1.400 . S
C421 C415 1.491 . S
C421 C420 1.400 . S
C421 C422 1.398 . S
C422 H410 0.950 . S
C422 C421 1.398 . S
C422 C423 1.391 . S
C423 H411 0.950 . S
C423 C419 1.393 . S
C423 C422 1.391 . S
H424 C432 0.950 . S
H425 C437 0.950 . S
H426 C434 0.950 . S
H427 C436 0.950 . S
H428 C438 0.950 . S
H429 C440 0.950 . S
H430 C442 0.950 . S
H431 C443 0.950 . S
C432 H424 0.950 . S
C432 C433 1.386 . S
C432 C434 1.391 . S
C433 C432 1.386 . S
C433 C437 1.393 . S
C434 H426 0.950 . S
C434 C432 1.391 . S
C434 C435 1.400 . S
C435 C434 1.400 . S
C435 C436 1.398 . S
C435 C441 1.491 . S
C436 H427 0.950 . S
C436 C435 1.398 . S
C436 C437 1.391 . S
C437 H425 0.950 . S
C437 C433 1.393 . S
C437 C436 1.391 . S
C438 H428 0.950 . S
C438 C439 1.386 . S
C438 C440 1.391 . S
C439 C438 1.386 . S
C439 C443 1.393 . S
C440 H429 0.950 . S
C440 C438 1.391 . S
C440 C441 1.400 . S
C441 C435 1.491 . S
C441 C440 1.400 . S
C441 C442 1.398 . S
C442 H430 0.950 . S
C442 C441 1.398 . S
C442 C443 1.391 . S
C443 H431 0.950 . S
C443 C439 1.393 . S
C443 C442 1.391 . S
H444 C452 0.950 . S
H445 C457 0.950 . S
H446 C454 0.950 . S
H447 C456 0.950 . S
H448 C458 0.950 . S
H449 C460 0.950 . S
H450 C462 0.950 . S
H451 C463 0.950 . S
C452 H444 0.950 . S
C452 C453 1.386 . S
C452 C454 1.391 . S
C453 C452 1.386 . S
C453 C457 1.393 . S
C454 H446 0.950 . S
C454 C452 1.391 . S
C454 C455 1.400 . S
C455 C454 1.400 . S
C455 C456 1.398 . S
C455 C461 1.491 . S
C456 H447 0.950 . S
C456 C455 1.398 . S
C456 C457 1.391 . S
C457 H445 0.950 . S
C457 C453 1.393 . S
C457 C456 1.391 . S
C458 H448 0.950 . S
C458 C459 1.386 . S
C458 C460 1.391 . S
C459 C458 1.386 . S
C459 C463 1.393 1_556 S
C460 H449 0.950 . S
C460 C458 1.391 . S
C460 C461 1.400 . S
C461 C455 1.491 . S
C461 C460 1.400 . S
C461 C462 1.398 . S
C462 H450 0.950 . S
C462 C461 1.398 . S
C462 C463 1.391 1_556 S
C463 H451 0.950 . S
C463 C459 1.393 1_554 S
C463 C462 1.391 1_554 S
H464 C472 0.950 . S
H465 C477 0.950 . S
H466 C474 0.950 . S
H467 C476 0.950 . S
H468 C478 0.950 . S
H469 C480 0.950 . S
H470 C482 0.950 . S
H471 C483 0.950 . S
C472 H464 0.950 . S
C472 C473 1.386 . S
C472 C474 1.391 . S
C473 C472 1.386 . S
C473 C477 1.393 . S
C474 H466 0.950 . S
C474 C472 1.391 . S
C474 C475 1.400 . S
C475 C474 1.400 . S
C475 C476 1.398 . S
C475 C481 1.491 . S
C476 H467 0.950 . S
C476 C475 1.398 . S
C476 C477 1.391 . S
C477 H465 0.950 . S
C477 C473 1.393 . S
C477 C476 1.391 . S
C478 H468 0.950 . S
C478 C479 1.386 . S
C478 C480 1.391 . S
C479 C478 1.386 . S
C479 C483 1.393 . S
C480 H469 0.950 . S
C480 C478 1.391 . S
C480 C481 1.400 . S
C481 C475 1.491 . S
C481 C480 1.400 . S
C481 C482 1.398 . S
C482 H470 0.950 . S
C482 C481 1.398 . S
C482 C483 1.391 . S
C483 H471 0.950 . S
C483 C479 1.393 . S
C483 C482 1.391 . S
H484 C492 0.950 . S
H485 C497 0.950 . S
H486 C494 0.950 . S
H487 C496 0.950 . S
H488 C498 0.950 . S
H489 C500 0.950 . S
H490 C502 0.950 . S
H491 C503 0.950 . S
C492 H484 0.950 . S
C492 C493 1.386 . S
C492 C494 1.391 . S
C493 C492 1.386 . S
C493 C497 1.393 . S
C494 H486 0.950 . S
C494 C492 1.391 . S
C494 C495 1.400 . S
C495 C494 1.400 . S
C495 C496 1.398 . S
C495 C501 1.491 . S
C496 H487 0.950 . S
C496 C495 1.398 . S
C496 C497 1.391 . S
C497 H485 0.950 . S
C497 C493 1.393 . S
C497 C496 1.391 . S
C498 H488 0.950 . S
C498 C499 1.386 . S
C498 C500 1.391 . S
C499 C498 1.386 . S
C499 C503 1.393 . S
C500 H489 0.950 . S
C500 C498 1.391 . S
C500 C501 1.400 . S
C501 C495 1.491 . S
C501 C500 1.400 . S
C501 C502 1.398 . S
C502 H490 0.950 . S
C502 C501 1.398 . S
C502 C503 1.391 . S
C503 H491 0.950 . S
C503 C499 1.393 . S
C503 C502 1.391 . S
C193 C7 1.513 . S
C199 N71 1.491 . S
C213 N2 1.405 . S
C219 N25 1.392 . S
C233 C62 1.596 . S
C239 C30 1.600 . S
C253 C76 1.545 . S
C259 N58 1.512 . S
C273 C16 1.450 . S
C279 N127 1.415 . S
C293 N12 1.416 . S
C299 N104 1.403 . S
C313 C108 1.597 . S
C319 C53 1.590 . S
C333 N48 1.550 . S
C339 C131 1.594 . S
C353 C154 1.397 . S
C359 N117 1.353 . S
C373 N94 1.447 . S
C379 N150 1.417 . S
C393 C99 1.569 . S
C399 C168 1.570 . S
C413 C122 1.638 . S
C419 N163 1.612 . S
C433 C145 1.483 . S
C439 N81 1.428 . S
C453 N35 1.450 . S
C459 N140 1.470 1_556 S
C473 C39 1.559 . S
C479 C177 1.553 . S
C493 C85 1.576 . S
C499 N173 1.527 . S
