# Generated by pormake.
# Topology wme, (6)-cn, num edge types: 1
# Building blocks:
#     Node 0, Type 0, BuildingBlock: CUWYAW_clean_sbu_0, # of connection points: 6
#     Node 1, Type 0, BuildingBlock: CUWYAW_clean_sbu_0, # of connection points: 6
#     Node 2, Type 0, BuildingBlock: CUWYAW_clean_sbu_0, # of connection points: 6
#     Node 3, Type 0, BuildingBlock: CUWYAW_clean_sbu_0, # of connection points: 6
#     Node 4, Type 0, BuildingBlock: CUWYAW_clean_sbu_0, # of connection points: 6
#     Node 5, Type 0, BuildingBlock: CUWYAW_clean_sbu_0, # of connection points: 6
#     Node 6, Type 0, BuildingBlock: CUWYAW_clean_sbu_0, # of connection points: 6
#     Node 7, Type 0, BuildingBlock: CUWYAW_clean_sbu_0, # of connection points: 6
#     Node 8, Type 0, BuildingBlock: CUWYAW_clean_sbu_0, # of connection points: 6
#     Node 9, Type 0, BuildingBlock: CUWYAW_clean_sbu_0, # of connection points: 6
#     Node 10, Type 0, BuildingBlock: CUWYAW_clean_sbu_0, # of connection points: 6
#     Node 11, Type 0, BuildingBlock: CUWYAW_clean_sbu_0, # of connection points: 6
#     Edge 12, Type (0, 0), BuildingBlock: UVAHIK_clean_linker_0, # of connection points: 2
#     Edge 13, Type (0, 0), BuildingBlock: UVAHIK_clean_linker_0, # of connection points: 2
#     Edge 14, Type (0, 0), BuildingBlock: UVAHIK_clean_linker_0, # of connection points: 2
#     Edge 15, Type (0, 0), BuildingBlock: UVAHIK_clean_linker_0, # of connection points: 2
#     Edge 16, Type (0, 0), BuildingBlock: UVAHIK_clean_linker_0, # of connection points: 2
#     Edge 17, Type (0, 0), BuildingBlock: UVAHIK_clean_linker_0, # of connection points: 2
#     Edge 18, Type (0, 0), BuildingBlock: UVAHIK_clean_linker_0, # of connection points: 2
#     Edge 19, Type (0, 0), BuildingBlock: UVAHIK_clean_linker_0, # of connection points: 2
#     Edge 20, Type (0, 0), BuildingBlock: UVAHIK_clean_linker_0, # of connection points: 2
#     Edge 21, Type (0, 0), BuildingBlock: UVAHIK_clean_linker_0, # of connection points: 2
#     Edge 22, Type (0, 0), BuildingBlock: UVAHIK_clean_linker_0, # of connection points: 2
#     Edge 23, Type (0, 0), BuildingBlock: UVAHIK_clean_linker_0, # of connection points: 2
#     Edge 24, Type (0, 0), BuildingBlock: UVAHIK_clean_linker_0, # of connection points: 2
#     Edge 25, Type (0, 0), BuildingBlock: UVAHIK_clean_linker_0, # of connection points: 2
#     Edge 26, Type (0, 0), BuildingBlock: UVAHIK_clean_linker_0, # of connection points: 2
#     Edge 27, Type (0, 0), BuildingBlock: UVAHIK_clean_linker_0, # of connection points: 2
#     Edge 28, Type (0, 0), BuildingBlock: UVAHIK_clean_linker_0, # of connection points: 2
#     Edge 29, Type (0, 0), BuildingBlock: UVAHIK_clean_linker_0, # of connection points: 2
#     Edge 30, Type (0, 0), BuildingBlock: UVAHIK_clean_linker_0, # of connection points: 2
#     Edge 31, Type (0, 0), BuildingBlock: UVAHIK_clean_linker_0, # of connection points: 2
#     Edge 32, Type (0, 0), BuildingBlock: UVAHIK_clean_linker_0, # of connection points: 2
#     Edge 33, Type (0, 0), BuildingBlock: UVAHIK_clean_linker_0, # of connection points: 2
#     Edge 34, Type (0, 0), BuildingBlock: UVAHIK_clean_linker_0, # of connection points: 2
#     Edge 35, Type (0, 0), BuildingBlock: UVAHIK_clean_linker_0, # of connection points: 2
#     Edge 36, Type (0, 0), BuildingBlock: UVAHIK_clean_linker_0, # of connection points: 2
#     Edge 37, Type (0, 0), BuildingBlock: UVAHIK_clean_linker_0, # of connection points: 2
#     Edge 38, Type (0, 0), BuildingBlock: UVAHIK_clean_linker_0, # of connection points: 2
#     Edge 39, Type (0, 0), BuildingBlock: UVAHIK_clean_linker_0, # of connection points: 2
#     Edge 40, Type (0, 0), BuildingBlock: UVAHIK_clean_linker_0, # of connection points: 2
#     Edge 41, Type (0, 0), BuildingBlock: UVAHIK_clean_linker_0, # of connection points: 2
#     Edge 42, Type (0, 0), BuildingBlock: UVAHIK_clean_linker_0, # of connection points: 2
#     Edge 43, Type (0, 0), BuildingBlock: UVAHIK_clean_linker_0, # of connection points: 2
#     Edge 44, Type (0, 0), BuildingBlock: UVAHIK_clean_linker_0, # of connection points: 2
#     Edge 45, Type (0, 0), BuildingBlock: UVAHIK_clean_linker_0, # of connection points: 2
#     Edge 46, Type (0, 0), BuildingBlock: UVAHIK_clean_linker_0, # of connection points: 2
#     Edge 47, Type (0, 0), BuildingBlock: UVAHIK_clean_linker_0, # of connection points: 2
# Relax obj value: 0.081
# Max RMSD: 0.176
# Mean RMSD: 0.176
data_MOF--net-wme--node1-CUWYAW_clean_sbu_0--edge1-UVAHIK_clean_linker_0
_symmetry_space_group_name_H-M    P1
_symmetry_Int_Tables_number       1
_symmetry_cell_setting            triclinic
loop_
_symmetry_equiv_pos_as_xyz
'x, y, z'
_cell_length_a     49.549984
_cell_length_b     49.531535
_cell_length_c     67.301365
_cell_angle_alpha  90.033813
_cell_angle_beta   90.108831
_cell_angle_gamma 120.00471
loop_
_atom_site_label
_atom_site_type_symbol
_atom_site_fract_x
_atom_site_fract_y
_atom_site_fract_z
_atom_type_partial_charge
C0 C 0.26018 0.27977 0.12508 0.0
Eu1 Eu 0.2408 0.31823 0.13419 0.0
C2 C 0.24972 0.24637 0.12802 0.0
C3 C 0.24859 0.23376 0.14692 0.0
C4 C 0.23674 0.20164 0.14916 0.0
C5 C 0.22551 0.18162 0.1326 0.0
C6 C 0.22717 0.1944 0.11372 0.0
C7 C 0.23933 0.22642 0.11145 0.0
C8 C 0.2251 0.33206 0.16977 0.0
C9 C 0.16422 0.28578 0.13476 0.0
C10 C 0.18652 0.39681 0.12387 0.0
Eu11 Eu 0.20791 0.35846 0.127 0.0
C12 C 0.1894 0.42748 0.12797 0.0
C13 C 0.19086 0.44605 0.11181 0.0
C14 C 0.18896 0.47295 0.11472 0.0
C15 C 0.1855 0.48202 0.13393 0.0
C16 C 0.18498 0.4639 0.15021 0.0
C17 C 0.18684 0.43684 0.14726 0.0
C18 C 0.22137 0.33364 0.09489 0.0
C19 C 0.28236 0.393 0.13647 0.0
O20 O 0.24201 0.28522 0.11368 0.0
O21 O 0.27092 0.29866 0.14047 0.0
O22 O 0.23949 0.3163 0.16781 0.0
O23 O 0.21991 0.33936 0.15281 0.0
O24 O 0.18872 0.28207 0.13196 0.0
O25 O 0.16659 0.31347 0.13567 0.0
O26 O 0.17897 0.37665 0.13839 0.0
O27 O 0.20563 0.39552 0.11098 0.0
O28 O 0.19536 0.33377 0.09661 0.0
O29 O 0.23797 0.34611 0.10988 0.0
O30 O 0.25615 0.394 0.13764 0.0
O31 O 0.28279 0.36691 0.13254 0.0
H32 H 0.2564 0.24854 0.15998 0.0
H33 H 0.23569 0.19237 0.16389 0.0
H34 H 0.21917 0.17961 0.10066 0.0
H35 H 0.24017 0.23557 0.09669 0.0
H36 H 0.19228 0.43908 0.09675 0.0
H37 H 0.18892 0.48593 0.10179 0.0
H38 H 0.18274 0.4704 0.16522 0.0
H39 H 0.18545 0.42289 0.16002 0.0
C40 C 0.98716 0.2538 0.63064 0.0
Eu41 Eu 0.92844 0.23364 0.63691 0.0
C42 C 1.00792 0.2408 0.63403 0.0
C43 C 0.03667 0.25873 0.6436 0.0
C44 C 0.0569 0.24695 0.64623 0.0
C45 C 0.04887 0.21705 0.63918 0.0
C46 C 0.01977 0.19897 0.62987 0.0
C47 C 0.99949 0.21062 0.62742 0.0
C48 C 0.89615 0.21715 0.67153 0.0
C49 C 0.88617 0.1571 0.63725 0.0
C50 C 0.79599 0.1754 0.62268 0.0
Eu51 Eu 0.85569 0.19884 0.62761 0.0
C52 C 0.7673 0.17679 0.6258 0.0
C53 C 0.74672 0.16932 0.60973 0.0
C54 C 0.71744 0.16631 0.6124 0.0
C55 C 0.70808 0.17073 0.63124 0.0
C56 C 0.72922 0.17948 0.64722 0.0
C57 C 0.75861 0.18235 0.64455 0.0
C58 C 0.89608 0.21296 0.59674 0.0
C59 C 0.8935 0.27363 0.63711 0.0
O60 O 0.96543 0.23951 0.61718 0.0
O61 O 0.97715 0.26176 0.64639 0.0
O62 O 0.92638 0.23258 0.67059 0.0
O63 O 0.88515 0.21163 0.65415 0.0
O64 O 0.91406 0.182 0.63443 0.0
O65 O 0.86035 0.15857 0.63767 0.0
O66 O 0.80821 0.1686 0.63782 0.0
O67 O 0.81675 0.19521 0.61025 0.0
O68 O 0.87014 0.18664 0.59801 0.0
O69 O 0.89893 0.22964 0.61147 0.0
O70 O 0.86653 0.24697 0.63748 0.0
O71 O 0.92071 0.27489 0.63449 0.0
H72 H 0.04358 0.28195 0.64894 0.0
H73 H 0.07885 0.26134 0.6538 0.0
H74 H 0.01289 0.17606 0.624 0.0
H75 H 0.97737 0.19608 0.62006 0.0
H76 H 0.75295 0.16487 0.59516 0.0
H77 H 0.70191 0.16011 0.59974 0.0
H78 H 0.72261 0.18297 0.66191 0.0
H79 H 0.77411 0.18805 0.65718 0.0
C80 C 0.7434 0.98319 0.1296 0.0
Eu81 Eu 0.7055 0.92427 0.13617 0.0
C82 C 0.77602 1.00594 0.1343 0.0
C83 C 0.79546 0.99642 0.1433 0.0
C84 C 0.82738 0.01745 0.1455 0.0
C85 C 0.84037 0.04836 0.13874 0.0
C86 C 0.82053 0.05788 0.13018 0.0
C87 C 0.78867 0.03683 0.12795 0.0
C88 C 0.68977 0.89141 0.17059 0.0
C89 C 0.73878 0.88104 0.13631 0.0
C90 C 0.6295 0.79171 0.12179 0.0
Eu91 Eu 0.66638 0.85136 0.12667 0.0
C92 C 0.59977 0.76263 0.12507 0.0
C93 C 0.58637 0.74225 0.10895 0.0
C94 C 0.56076 0.71252 0.11171 0.0
C95 C 0.5479 0.70249 0.1307 0.0
C96 C 0.56044 0.72344 0.14676 0.0
C97 C 0.58635 0.75328 0.144 0.0
C98 C 0.69296 0.89189 0.09584 0.0
C99 C 0.6305 0.88985 0.13647 0.0
O100 O 0.73973 0.96091 0.11747 0.0
O101 O 0.72354 0.97306 0.14441 0.0
O102 O 0.70484 0.92169 0.16993 0.0
O103 O 0.68407 0.88083 0.15314 0.0
O104 O 0.74227 0.90924 0.13389 0.0
O105 O 0.71127 0.8554 0.13638 0.0
O106 O 0.64928 0.80373 0.1366 0.0
O107 O 0.62985 0.81263 0.10972 0.0
O108 O 0.6924 0.86547 0.0969 0.0
O109 O 0.67959 0.89505 0.11068 0.0
O110 O 0.62983 0.86273 0.13711 0.0
O111 O 0.65659 0.91679 0.13345 0.0
H112 H 0.78608 0.97253 0.14817 0.0
H113 H 0.84192 0.00944 0.15234 0.0
H114 H 0.82978 0.08135 0.12456 0.0
H115 H 0.77406 0.04444 0.12073 0.0
H116 H 0.59641 0.74895 0.09424 0.0
H117 H 0.55131 0.69712 0.09899 0.0
H118 H 0.55102 0.71631 0.16157 0.0
H119 H 0.59638 0.76859 0.1567 0.0
C120 C 0.76761 0.73638 0.62227 0.0
Eu121 Eu 0.78851 0.69912 0.63126 0.0
C122 C 0.77702 0.76941 0.62575 0.0
C123 C 0.78039 0.78184 0.64498 0.0
C124 C 0.79142 0.81375 0.64765 0.0
C125 C 0.79963 0.8338 0.63117 0.0
C126 C 0.79585 0.82119 0.61199 0.0
C127 C 0.78452 0.78934 0.60932 0.0
C128 C 0.80564 0.68674 0.66684 0.0
C129 C 0.86542 0.73415 0.63163 0.0
C130 C 0.84778 0.62499 0.62126 0.0
Eu131 Eu 0.82368 0.66104 0.62405 0.0
C132 C 0.84661 0.59495 0.62436 0.0
C133 C 0.85661 0.58325 0.60881 0.0
C134 C 0.85993 0.55716 0.61166 0.0
C135 C 0.85325 0.54208 0.63016 0.0
C136 C 0.84195 0.55299 0.64556 0.0
C137 C 0.83883 0.57939 0.64272 0.0
C138 C 0.80887 0.68476 0.59197 0.0
C139 C 0.74877 0.62387 0.63261 0.0
O140 O 0.78668 0.73212 0.611 0.0
O141 O 0.75687 0.7169 0.63732 0.0
O142 O 0.79047 0.70172 0.66483 0.0
O143 O 0.81089 0.67945 0.64988 0.0
O144 O 0.84017 0.7367 0.62912 0.0
O145 O 0.86416 0.70695 0.63242 0.0
O146 O 0.85211 0.64304 0.63662 0.0
O147 O 0.82995 0.62664 0.6075 0.0
O148 O 0.83538 0.68561 0.5937 0.0
O149 O 0.79248 0.67192 0.60694 0.0
O150 O 0.77548 0.62375 0.63335 0.0
O151 O 0.74741 0.64972 0.62961 0.0
H152 H 0.77499 0.76708 0.65794 0.0
H153 H 0.7942 0.82286 0.66261 0.0
H154 H 0.80153 0.83597 0.59901 0.0
H155 H 0.78208 0.78031 0.59434 0.0
H156 H 0.86284 0.59493 0.59454 0.0
H157 H 0.86817 0.54903 0.59941 0.0
H158 H 0.83667 0.54185 0.65999 0.0
H159 H 0.83117 0.58807 0.65498 0.0
C160 C 0.04169 0.76297 0.12484 0.0
Eu161 Eu 0.10045 0.7842 0.13213 0.0
C162 C 0.0188 0.77347 0.12815 0.0
C163 C 1.00679 0.77331 0.1471 0.0
C164 C 0.98608 0.78454 0.14975 0.0
C165 C 0.9772 0.79636 0.13355 0.0
C166 C 0.98896 0.79614 0.11462 0.0
C167 C 1.00933 0.78466 0.11194 0.0
C168 C 0.13308 0.80634 0.16642 0.0
C169 C 0.14279 0.8606 0.12992 0.0
C170 C 0.23273 0.84079 0.11787 0.0
Eu171 Eu 0.1731 0.81791 0.12278 0.0
C172 C 0.26206 0.84089 0.12176 0.0
C173 C 0.28369 0.84985 0.10625 0.0
C174 C 0.31331 0.85399 0.1096 0.0
C175 C 0.322 0.84915 0.12857 0.0
C176 C 0.29987 0.83895 0.144 0.0
C177 C 0.27012 0.83503 0.14064 0.0
C178 C 0.13222 0.80095 0.09176 0.0
C179 C 0.13569 0.74474 0.13581 0.0
O180 O 0.06406 0.77997 0.11234 0.0
O181 O 0.05155 0.75394 0.14025 0.0
O182 O 0.10283 0.79181 0.16546 0.0
O183 O 0.14404 0.80845 0.14925 0.0
O184 O 0.11486 0.83547 0.12766 0.0
O185 O 0.16866 0.8592 0.1307 0.0
O186 O 0.22086 0.8498 0.13204 0.0
O187 O 0.21169 0.81882 0.10653 0.0
O188 O 0.15825 0.82727 0.09236 0.0
O189 O 0.12956 0.78568 0.10718 0.0
O190 O 0.16254 0.77146 0.13555 0.0
O191 O 0.10842 0.74293 0.13231 0.0
H192 H 0.01357 0.7648 0.15989 0.0
H193 H 0.97742 0.78446 0.16452 0.0
H194 H 0.98213 0.80454 0.10179 0.0
H195 H 0.01793 0.78478 0.09712 0.0
H196 H 0.27794 0.85454 0.09158 0.0
H197 H 0.32961 0.86133 0.09735 0.0
H198 H 0.30594 0.83508 0.15877 0.0
H199 H 0.25378 0.82818 0.15285 0.0
C200 C 0.28636 0.03727 0.63693 0.0
Eu201 Eu 0.32591 0.09702 0.63696 0.0
C202 C 0.25213 0.01693 0.63738 0.0
C203 C 0.23895 0.99068 0.64973 0.0
C204 C 0.20666 0.97075 0.65019 0.0
C205 C 0.18676 0.97648 0.63817 0.0
C206 C 0.20008 1.00316 0.62599 0.0
C207 C 0.23241 0.02322 0.62564 0.0
C208 C 0.35064 0.1341 0.66904 0.0
C209 C 0.28881 0.13628 0.63189 0.0
C210 C 0.39775 0.22521 0.6218 0.0
Eu211 Eu 0.36148 0.16513 0.62644 0.0
C212 C 0.42685 0.25418 0.6272 0.0
C213 C 0.45577 0.26144 0.61895 0.0
C214 C 0.48195 0.29109 0.62169 0.0
C215 C 0.47969 0.31416 0.63258 0.0
C216 C 0.45104 0.30641 0.64142 0.0
C217 C 0.42496 0.27685 0.63872 0.0
C218 C 0.33746 0.12442 0.59532 0.0
C219 C 0.39952 0.12977 0.63647 0.0
O220 O 0.29838 0.05356 0.62076 0.0
O221 O 0.29945 0.05316 0.6531 0.0
O222 O 0.34858 0.10707 0.66691 0.0
O223 O 0.33819 0.14006 0.65445 0.0
O224 O 0.28685 0.10862 0.63261 0.0
O225 O 0.31583 0.16218 0.6312 0.0
O226 O 0.37564 0.21281 0.6351 0.0
O227 O 0.39931 0.20434 0.61068 0.0
O228 O 0.33673 0.15018 0.5962 0.0
O229 O 0.35104 0.12207 0.61034 0.0
O230 O 0.39888 0.15602 0.6383 0.0
O231 O 0.37387 0.10304 0.63253 0.0
H232 H 0.25368 0.98553 0.65903 0.0
H233 H 0.19732 0.95089 0.66009 0.0
H234 H 0.18562 1.00824 0.6164 0.0
H235 H 0.24197 0.04348 0.61606 0.0
H236 H 0.45796 0.24466 0.60978 0.0
H237 H 0.50361 0.29634 0.61455 0.0
H238 H 0.44858 0.32342 0.65015 0.0
H239 H 0.40295 0.27211 0.64509 0.0
C240 C 0.73147 0.76198 0.41117 0.0
Eu241 Eu 0.696 0.78599 0.40526 0.0
C242 C 0.76333 0.76995 0.40602 0.0
C243 C 0.78265 0.7971 0.39522 0.0
C244 C 0.81423 0.80679 0.39272 0.0
C245 C 0.82695 0.78951 0.40102 0.0
C246 C 0.80715 0.76184 0.41134 0.0
C247 C 0.77563 0.7522 0.41384 0.0
C248 C 0.6816 0.80529 0.37121 0.0
C249 C 0.73151 0.86236 0.40579 0.0
C250 C 0.62313 0.84546 0.4203 0.0
Eu251 Eu 0.65888 0.82129 0.41564 0.0
C252 C 0.59554 0.84727 0.41374 0.0
C253 C 0.56501 0.82336 0.41786 0.0
C254 C 0.53961 0.82778 0.41427 0.0
C255 C 0.54425 0.85625 0.40663 0.0
C256 C 0.5747 0.87962 0.40185 0.0
C257 C 0.60001 0.8752 0.40542 0.0
C258 C 0.68456 0.80551 0.44623 0.0
C259 C 0.62119 0.74769 0.4041 0.0
O260 O 0.72975 0.78165 0.42339 0.0
O261 O 0.71108 0.75308 0.39662 0.0
O262 O 0.69608 0.7895 0.37157 0.0
O263 O 0.67558 0.80956 0.38871 0.0
O264 O 0.73413 0.83711 0.4079 0.0
O265 O 0.70435 0.86127 0.4059 0.0
O266 O 0.64759 0.85746 0.40868 0.0
O267 O 0.61896 0.82054 0.42979 0.0
O268 O 0.6841 0.83144 0.44572 0.0
O269 O 0.67104 0.78962 0.43115 0.0
O270 O 0.62165 0.77469 0.4036 0.0
O271 O 0.64659 0.74576 0.40745 0.0
H272 H 0.77351 0.81124 0.38926 0.0
H273 H 0.82875 0.82802 0.38452 0.0
H274 H 0.81624 0.74823 0.41819 0.0
H275 H 0.76109 0.73145 0.42246 0.0
H276 H 0.56079 0.80166 0.42447 0.0
H277 H 0.51649 0.80937 0.41826 0.0
H278 H 0.57906 0.90161 0.39565 0.0
H279 H 0.62328 0.89415 0.40227 0.0
C280 C 0.98718 0.7335 0.91107 0.0
Eu281 Eu 0.92887 0.69749 0.90172 0.0
C282 C 1.0105 0.76632 0.90737 0.0
C283 C 1.00218 0.78599 0.8974 0.0
C284 C 0.02339 0.81797 0.89593 0.0
C285 C 0.05332 0.83083 0.90439 0.0
C286 C 0.0617 0.81079 0.91397 0.0
C287 C 0.04044 0.77885 0.91548 0.0
C288 C 0.90034 0.68569 0.86575 0.0
C289 C 0.88914 0.73452 0.90004 0.0
C290 C 0.7944 0.62681 0.90869 0.0
Eu291 Eu 0.85497 0.66147 0.90763 0.0
C292 C 0.76589 0.5958 0.90718 0.0
C293 C 0.74652 0.58405 0.92389 0.0
C294 C 0.71711 0.55741 0.92242 0.0
C295 C 0.70624 0.54183 0.90417 0.0
C296 C 0.72616 0.55278 0.88758 0.0
C297 C 0.75567 0.57964 0.88904 0.0
C298 C 0.89264 0.68398 0.94023 0.0
C299 C 0.8914 0.6221 0.90119 0.0
O300 O 0.96397 0.72947 0.92236 0.0
O301 O 0.97814 0.71452 0.89574 0.0
O302 O 0.93038 0.69948 0.86806 0.0
O303 O 0.88759 0.67939 0.88261 0.0
O304 O 0.9161 0.73594 0.90396 0.0
O305 O 0.86271 0.70793 0.89826 0.0
O306 O 0.80991 0.64062 0.89252 0.0
O307 O 0.81235 0.63257 0.92427 0.0
O308 O 0.86764 0.686 0.93809 0.0
O309 O 0.89604 0.67075 0.92539 0.0
O310 O 0.86485 0.6226 0.90049 0.0
O311 O 0.91902 0.64766 0.90375 0.0
H312 H 0.97903 0.77671 0.89115 0.0
H313 H 0.0163 0.83264 0.88827 0.0
H314 H 0.08438 0.81994 0.92088 0.0
H315 H 0.0471 0.76407 0.92345 0.0
H316 H 0.75367 0.59616 0.93801 0.0
H317 H 0.7026 0.54932 0.93556 0.0
H318 H 0.71843 0.54138 0.87329 0.0
H319 H 0.76996 0.58827 0.87584 0.0
C320 C 0.25012 0.97511 0.39965 0.0
Eu321 Eu 0.22321 0.91451 0.4009 0.0
C322 C 0.23893 0.99762 0.40074 0.0
C323 C 0.25359 0.02491 0.38937 0.0
C324 C 0.2425 0.04592 0.38953 0.0
C325 C 0.21652 0.04013 0.40116 0.0
C326 C 0.20191 0.01267 0.41258 0.0
C327 C 0.21292 0.99157 0.4123 0.0
C328 C 0.20037 0.87663 0.36888 0.0
C329 C 0.15014 0.87448 0.40644 0.0
C330 C 0.16661 0.78703 0.41484 0.0
Eu331 Eu 0.19799 0.84762 0.41073 0.0
C332 C 0.16705 0.75756 0.41301 0.0
C333 C 0.15192 0.7347 0.4276 0.0
C334 C 0.14923 0.70538 0.42566 0.0
C335 C 0.16159 0.69819 0.40901 0.0
C336 C 0.17761 0.72149 0.39464 0.0
C337 C 0.18026 0.75094 0.39659 0.0
C338 C 0.21855 0.88791 0.44215 0.0
C339 C 0.26947 0.88472 0.40172 0.0
O340 O 0.24786 0.95955 0.41587 0.0
O341 O 0.24192 0.95756 0.38377 0.0
O342 O 0.19649 0.90019 0.37238 0.0
O343 O 0.21674 0.87397 0.38239 0.0
O344 O 0.17409 0.90306 0.40786 0.0
O345 O 0.15426 0.8502 0.40528 0.0
O346 O 0.16671 0.80145 0.39854 0.0
O347 O 0.1831 0.80614 0.42908 0.0
O348 O 0.22443 0.86532 0.44018 0.0
O349 O 0.20227 0.88778 0.42786 0.0
O350 O 0.24447 0.85692 0.4005 0.0
O351 O 0.26713 0.91006 0.40438 0.0
H352 H 0.27344 0.02982 0.38017 0.0
H353 H 0.25401 0.06644 0.38024 0.0
H354 H 0.1821 1.00755 0.42187 0.0
H355 H 0.201 0.97047 0.42106 0.0
H356 H 0.14158 0.73933 0.44039 0.0
H357 H 0.13728 0.68824 0.43719 0.0
H358 H 0.18729 0.71668 0.38159 0.0
H359 H 0.19204 0.76823 0.38511 0.0
C360 C 0.2853 0.25213 0.91712 0.0
Eu361 Eu 0.32256 0.2316 0.90735 0.0
C362 C 0.25262 0.24269 0.91303 0.0
C363 C 0.23355 0.21552 0.90209 0.0
C364 C 0.20165 0.20482 0.90005 0.0
C365 C 0.18832 0.22114 0.90891 0.0
C366 C 0.20777 0.24871 0.91953 0.0
C367 C 0.23961 0.25932 0.9216 0.0
C368 C 0.33176 0.21421 0.87096 0.0
C369 C 0.29033 0.15532 0.90757 0.0
C370 C 0.40171 0.17812 0.91437 0.0
Eu371 Eu 0.3634 0.19979 0.91276 0.0
C372 C 0.42938 0.17711 0.90703 0.0
C373 C 0.45971 0.19957 0.91293 0.0
C374 C 0.48495 0.19501 0.90908 0.0
C375 C 0.48034 0.16779 0.89944 0.0
C376 C 0.45022 0.14612 0.89276 0.0
C377 C 0.42506 0.15069 0.89655 0.0
C378 C 0.34146 0.21414 0.94603 0.0
C379 C 0.39695 0.27325 0.90219 0.0
O380 O 0.28914 0.2322 0.92779 0.0
O381 O 0.30485 0.2635 0.90219 0.0
O382 O 0.3158 0.22805 0.87419 0.0
O383 O 0.34192 0.21006 0.88725 0.0
O384 O 0.28678 0.17973 0.91117 0.0
O385 O 0.31797 0.15815 0.90502 0.0
O386 O 0.37649 0.16578 0.90335 0.0
O387 O 0.4056 0.20231 0.92465 0.0
O388 O 0.34178 0.18827 0.94408 0.0
O389 O 0.3525 0.23019 0.93074 0.0
O390 O 0.39746 0.24692 0.90004 0.0
O391 O 0.37142 0.27367 0.9077 0.0
H392 H 0.24322 0.20225 0.8955 0.0
H393 H 0.18742 0.18371 0.89162 0.0
H394 H 0.19822 0.2616 0.92678 0.0
H395 H 0.25394 0.28009 0.93032 0.0
H396 H 0.46381 0.22 0.92126 0.0
H397 H 0.5078 0.21208 0.91455 0.0
H398 H 0.44592 0.12515 0.88502 0.0
H399 H 0.40195 0.13279 0.89202 0.0
C400 C 0.03619 0.27979 0.40998 0.0
Eu401 Eu 0.09483 0.31698 0.40237 0.0
C402 C 0.01359 0.24712 0.40533 0.0
C403 C 0.02331 0.22818 0.39587 0.0
C404 C 1.00259 0.19627 0.39343 0.0
C405 C 0.97176 0.18278 0.40036 0.0
C406 C 0.96198 0.20209 0.40939 0.0
C407 C 0.98278 0.23398 0.41191 0.0
C408 C 0.12541 0.33029 0.36714 0.0
C409 C 0.13712 0.28253 0.40288 0.0
C410 C 0.22787 0.39181 0.41374 0.0
Eu411 Eu 0.16787 0.35559 0.4104 0.0
C412 C 0.25635 0.42216 0.41088 0.0
C413 C 0.2785 0.43326 0.42621 0.0
C414 C 0.30749 0.4599 0.42352 0.0
C415 C 0.31499 0.47612 0.40542 0.0
C416 C 0.2923 0.46575 0.39028 0.0
C417 C 0.26318 0.4388 0.39294 0.0
C418 C 0.12876 0.3308 0.44201 0.0
C419 C 0.12965 0.39225 0.40187 0.0
O420 O 0.05884 0.28359 0.42183 0.0
O421 O 0.04585 0.29954 0.3951 0.0
O422 O 0.09523 0.31501 0.36874 0.0
O423 O 0.13734 0.33732 0.38427 0.0
O424 O 0.10918 0.2797 0.40517 0.0
O425 O 0.16289 0.30987 0.40203 0.0
O426 O 0.21449 0.37408 0.39819 0.0
O427 O 0.20813 0.38968 0.4274 0.0
O428 O 0.15476 0.33057 0.44057 0.0
O429 O 0.12528 0.34384 0.42709 0.0
O430 O 0.15671 0.39285 0.40124 0.0
O431 O 0.10264 0.3661 0.40459 0.0
H432 H 0.04712 0.23796 0.39078 0.0
H433 H 1.01074 0.18212 0.38621 0.0
H434 H 0.93852 0.19238 0.41509 0.0
H435 H 0.97503 0.24822 0.41945 0.0
H436 H 0.2737 0.42074 0.44015 0.0
H437 H 0.32426 0.46761 0.43557 0.0
H438 H 0.29749 0.4778 0.37616 0.0
H439 H 0.24642 0.43058 0.38088 0.0
C440 C 0.76824 0.03314 0.91491 0.0
Eu441 Eu 0.78805 0.09089 0.90536 0.0
C442 C 0.77837 0.01005 0.91163 0.0
C443 C 0.78338 1.00209 0.89248 0.0
C444 C 0.79537 0.98198 0.89003 0.0
C445 C 0.80294 0.96985 0.90666 0.0
C446 C 0.79744 0.97749 0.92576 0.0
C447 C 0.78514 0.99724 0.9282 0.0
C448 C 0.8052 0.11926 0.86941 0.0
C449 C 0.86457 0.13493 0.90596 0.0
C450 C 0.84243 0.22424 0.91281 0.0
Eu451 Eu 0.82071 0.16428 0.9114 0.0
C452 C 0.84166 0.25229 0.90601 0.0
C453 C 0.82021 0.26011 0.91392 0.0
C454 C 0.82357 0.2895 0.91036 0.0
C455 C 0.84858 0.31177 0.89894 0.0
C456 C 0.86911 0.30333 0.89027 0.0
C457 C 0.86573 0.27399 0.89381 0.0
C458 C 0.80679 0.12748 0.94428 0.0
C459 C 0.74675 0.12425 0.90107 0.0
O460 O 0.78703 0.05689 0.92606 0.0
O461 O 0.75709 0.04119 0.89971 0.0
O462 O 0.79117 0.08922 0.87184 0.0
O463 O 0.80958 0.13227 0.88616 0.0
O464 O 0.83995 0.10684 0.90888 0.0
O465 O 0.86216 0.16011 0.90396 0.0
O466 O 0.85304 0.21106 0.90064 0.0
O467 O 0.82016 0.20428 0.92443 0.0
O468 O 0.83241 0.15397 0.94255 0.0
O469 O 0.79048 0.12248 0.92903 0.0
O470 O 0.77313 0.1512 0.89946 0.0
O471 O 0.74608 0.09787 0.90587 0.0
H472 H 0.77863 0.01181 0.87942 0.0
H473 H 0.79952 0.97661 0.87513 0.0
H474 H 0.80264 0.96817 0.93884 0.0
H475 H 0.78149 1.00305 0.94311 0.0
H476 H 0.80162 0.24411 0.92359 0.0
H477 H 0.80747 0.2953 0.91739 0.0
H478 H 0.88832 0.31973 0.88114 0.0
H479 H 0.88284 0.26882 0.88767 0.0
C480 C 0.12209 0.89755 0.12573 0.0
C481 C 0.14571 0.8917 0.13213 0.0
C482 C 0.12611 0.9276 0.12731 0.0
C483 C 0.17134 1.00224 0.15406 0.0
H484 H 0.16014 0.04015 0.10674 0.0
C485 C 0.22759 0.13541 0.14596 0.0
C486 C 0.21203 0.14746 0.13484 0.0
C487 C 0.21578 0.10323 0.14701 0.0
C488 C 0.16285 0.02984 0.12024 0.0
H489 H 0.19153 0.9125 0.14584 0.0
H490 H 0.19825 0.96436 0.14872 0.0
H491 H 0.14492 0.98511 0.10635 0.0
H492 H 0.17122 0.13531 0.11682 0.0
H493 H 0.15016 0.07914 0.11901 0.0
H494 H 0.18937 0.0468 0.16799 0.0
C495 C 0.17673 0.94593 0.14243 0.0
C496 C 0.15412 0.99826 0.11997 0.0
C497 C 0.17294 0.91621 0.1406 0.0
C498 C 0.18395 0.12666 0.12526 0.0
C499 C 0.17195 0.09448 0.12647 0.0
C500 C 0.17979 0.03371 0.1544 0.0
C501 C 0.15352 0.95206 0.13568 0.0
C502 C 0.15893 0.98433 0.13674 0.0
C503 C 0.18792 0.08232 0.13714 0.0
C504 C 0.1763 0.04813 0.13736 0.0
H505 H 0.10085 0.87913 0.11916 0.0
H506 H 0.10781 0.93171 0.12204 0.0
H507 H 0.17493 0.99198 0.16729 0.0
H508 H 0.24943 0.15092 0.15333 0.0
H509 H 0.22904 0.09483 0.15509 0.0
C510 C 0.23068 0.11358 0.63639 0.0
C511 C 0.2605 0.13927 0.63282 0.0
C512 C 0.20488 0.11792 0.63865 0.0
C513 C 0.18714 0.17957 0.65235 0.0
H514 H 0.10882 0.13067 0.62443 0.0
C515 C 0.10328 0.22547 0.63832 0.0
C516 C 0.07113 0.20515 0.64084 0.0
C517 C 0.12416 0.21434 0.63924 0.0
C518 C 0.1304 0.14423 0.63256 0.0
H519 H 0.28615 0.18938 0.62793 0.0
H520 H 0.24177 0.19663 0.63175 0.0
H521 H 0.1491 0.11579 0.62238 0.0
H522 H 0.03593 0.15703 0.64662 0.0
H523 H 0.07254 0.13757 0.64781 0.0
H524 H 0.16905 0.20849 0.66209 0.0
C525 C 0.23823 0.1733 0.63325 0.0
C526 C 0.1534 0.13567 0.6314 0.0
C527 C 0.26372 0.16903 0.63094 0.0
C528 C 0.06046 0.17333 0.64433 0.0
C529 C 0.0814 0.16213 0.64506 0.0
C530 C 0.16431 0.18812 0.65345 0.0
C531 C 0.20864 0.148 0.6375 0.0
C532 C 0.18236 0.15384 0.64083 0.0
C533 C 0.11349 0.18256 0.64257 0.0
C534 C 0.13603 0.17108 0.64315 0.0
H535 H 0.22738 0.09035 0.63784 0.0
H536 H 0.18225 0.09796 0.64182 0.0
H537 H 0.20895 0.19363 0.66015 0.0
H538 H 0.11235 0.24994 0.63517 0.0
H539 H 0.14871 0.23058 0.63691 0.0
C540 C 0.8861 0.10181 0.14488 0.0
C541 C 0.87457 0.07037 0.13989 0.0
C542 C 0.91808 0.12303 0.14461 0.0
C543 C 0.99608 0.1301 0.14509 0.0
H544 H 0.02096 0.21096 0.12211 0.0
C545 C 0.1258 0.22799 0.13161 0.0
C546 C 0.13243 0.25832 0.13656 0.0
C547 C 0.09495 0.203 0.13202 0.0
C548 C 0.01442 0.18857 0.1287 0.0
H549 H 0.88785 0.03648 0.13105 0.0
H550 H 0.94382 0.07361 0.13066 0.0
H551 H 0.96608 0.17148 0.12314 0.0
H552 H 0.11194 0.28568 0.14687 0.0
H553 H 0.05899 0.24261 0.14766 0.0
H554 H 0.04478 0.1476 0.15069 0.0
C555 C 0.92803 0.08175 0.13493 0.0
C556 C 0.98293 0.16595 0.12934 0.0
C557 C 0.89595 0.06048 0.13518 0.0
C558 C 0.1078 0.26283 0.14261 0.0
C559 C 0.07728 0.23808 0.143 0.0
C560 C 0.02778 0.15287 0.14445 0.0
C561 C 0.93943 0.11339 0.13933 0.0
C562 C 0.97327 0.13663 0.13785 0.0
C563 C 0.07031 0.208 0.13733 0.0
C564 C 0.0372 0.18257 0.13659 0.0
H565 H 0.87035 0.1101 0.14895 0.0
H566 H 0.92611 0.14709 0.14852 0.0
H567 H 0.98939 0.10775 0.15178 0.0
H568 H 0.14423 0.22371 0.12693 0.0
H569 H 0.09028 0.18003 0.1276 0.0
C570 C 0.83806 0.88958 0.62296 0.0
C571 C 0.81201 0.86778 0.63384 0.0
C572 C 0.84884 0.92153 0.62472 0.0
C573 C 0.82101 0.97535 0.63688 0.0
H574 H 0.90847 0.03781 0.64189 0.0
C575 C 0.85703 0.10283 0.65005 0.0
C576 C 0.88281 0.12587 0.63963 0.0
C577 C 0.851 0.07219 0.65059 0.0
C578 C 0.884 0.0207 0.64026 0.0
H579 H 0.77715 0.8624 0.65531 0.0
H580 H 0.79584 0.91821 0.6583 0.0
H581 H 0.8929 0.98248 0.64046 0.0
H582 H 0.92339 0.13522 0.62234 0.0
H583 H 0.91243 0.08112 0.62283 0.0
H584 H 0.81188 0.0131 0.63614 0.0
C585 C 0.8079 0.91055 0.6484 0.0
C586 C 0.87509 0.98902 0.63951 0.0
C587 C 0.79734 0.87864 0.64681 0.0
C588 C 0.90334 0.1179 0.63049 0.0
C589 C 0.89706 0.08693 0.63081 0.0
C590 C 0.82988 1.00688 0.63745 0.0
C591 C 0.83358 0.93233 0.63723 0.0
C592 C 0.84344 0.96601 0.63799 0.0
C593 C 0.87031 0.06354 0.64047 0.0
C594 C 0.86145 0.03001 0.63937 0.0
H595 H 0.85004 0.8819 0.613 0.0
H596 H 0.86857 0.93772 0.61585 0.0
H597 H 0.79652 0.95824 0.63525 0.0
H598 H 0.84108 0.10836 0.65757 0.0
H599 H 0.8308 0.05513 0.65873 0.0
C600 C 0.96105 0.8362 0.12681 0.0
C601 C 0.95533 0.80843 0.13617 0.0
C602 C 0.93955 0.8466 0.12825 0.0
C603 C 0.8562 0.81657 0.13604 0.0
H604 H 0.87968 0.90292 0.14526 0.0
C605 C 0.76274 0.85014 0.14808 0.0
C606 C 0.76636 0.87718 0.13883 0.0
C607 C 0.78735 0.84414 0.1489 0.0
C608 C 0.87279 0.87879 0.14244 0.0
H609 H 0.92284 0.77015 0.15467 0.0
H610 H 0.88527 0.78826 0.15717 0.0
H611 H 0.91985 0.88788 0.14469 0.0
H612 H 0.79917 0.91989 0.12393 0.0
H613 H 0.84236 0.90904 0.12495 0.0
H614 H 0.80943 0.80733 0.13333 0.0
C615 C 0.90636 0.80193 0.14866 0.0
C616 C 0.89578 0.87017 0.14218 0.0
C617 C 0.92798 0.79169 0.14737 0.0
C618 C 0.79569 0.89883 0.13113 0.0
C619 C 0.82042 0.89262 0.13177 0.0
C620 C 0.83335 0.82517 0.13615 0.0
C621 C 0.91172 0.8293 0.13891 0.0
C622 C 0.88766 0.83888 0.13916 0.0
C623 C 0.81626 0.86478 0.14027 0.0
C624 C 0.84122 0.85631 0.13958 0.0
H625 H 0.98209 0.84979 0.11824 0.0
H626 H 0.94428 0.86768 0.1205 0.0
H627 H 0.84926 0.79242 0.1332 0.0
H628 H 0.74062 0.83325 0.15452 0.0
H629 H 0.78351 0.82298 0.15614 0.0
C630 C 0.90141 0.79277 0.63154 0.0
C631 C 0.89674 0.76244 0.6336 0.0
C632 C 0.9315 0.81888 0.63322 0.0
C633 C 1.01012 0.84193 0.6533 0.0
H634 H 0.04089 0.909 0.61481 0.0
C635 C 0.14075 0.92207 0.63977 0.0
C636 C 0.15241 0.95435 0.63813 0.0
C637 C 0.1087 0.90118 0.64016 0.0
C638 C 0.0325 0.89064 0.62582 0.0
H639 H 0.92032 0.73606 0.63901 0.0
H640 H 0.97189 0.7809 0.64168 0.0
H641 H 0.98586 0.86816 0.61418 0.0
H642 H 0.13902 0.98976 0.6354 0.0
H643 H 0.08287 0.95302 0.63569 0.0
H644 H 0.05673 0.86371 0.66459 0.0
C645 C 0.95251 0.78479 0.6391 0.0
C646 C 1.00098 0.8673 0.62549 0.0
C647 C 0.92275 0.75893 0.6374 0.0
C648 C 0.13097 0.96507 0.63648 0.0
C649 C 0.09878 0.94406 0.6367 0.0
C650 C 0.0415 0.86504 0.65355 0.0
C651 C 0.95737 0.81512 0.63714 0.0
C652 C 0.98962 0.84223 0.63892 0.0
C653 C 0.08731 0.91189 0.63876 0.0
C654 C 0.05325 0.88926 0.63953 0.0
H655 H 0.88193 0.79633 0.62858 0.0
H656 H 0.93446 0.84197 0.63167 0.0
H657 H 1.00203 0.8234 0.66418 0.0
H658 H 0.1564 0.91277 0.64054 0.0
H659 H 0.10062 0.87648 0.64134 0.0
C660 C 0.11139 0.89332 0.40813 0.0
C661 C 0.11783 0.86882 0.40617 0.0
C662 C 0.08051 0.88718 0.40787 0.0
C663 C 0.99975 0.82257 0.41548 0.0
H664 H 0.97547 0.87348 0.38504 0.0
C665 C 0.87178 0.77985 0.39697 0.0
C666 C 0.86094 0.80092 0.39986 0.0
C667 C 0.90363 0.7901 0.39759 0.0
C668 C 0.98198 0.85924 0.39375 0.0
H669 H 0.09684 0.81878 0.40204 0.0
H670 H 0.04367 0.80833 0.40137 0.0
H671 H 0.03055 0.88837 0.38715 0.0
H672 H 0.87527 0.84949 0.40521 0.0
H673 H 0.93101 0.8674 0.40606 0.0
H674 H 0.95135 0.79322 0.42187 0.0
C675 C 0.06222 0.83217 0.40351 0.0
C676 C 0.0135 0.86781 0.39501 0.0
C677 C 0.09285 0.83824 0.40379 0.0
C678 C 0.88283 0.83269 0.4027 0.0
C679 C 0.91476 0.84297 0.40324 0.0
C680 C 0.96838 0.81398 0.41415 0.0
C681 C 0.05559 0.85646 0.4057 0.0
C682 C 0.02264 0.84923 0.40562 0.0
C683 C 0.92544 0.82167 0.40105 0.0
C684 C 0.95906 0.83191 0.40303 0.0
H685 H 0.13012 0.91715 0.40996 0.0
H686 H 0.07613 0.90638 0.40967 0.0
H687 H 1.00607 0.80815 0.42416 0.0
H688 H 0.8556 0.75534 0.39437 0.0
H689 H 0.91119 0.77322 0.39544 0.0
C690 C 0.10739 0.87664 0.90051 0.0
C691 C 0.07547 0.86507 0.90381 0.0
C692 C 0.12849 0.90866 0.90107 0.0
C693 C 0.13529 0.98652 0.89818 0.0
H694 H 0.21428 0.01242 0.9244 0.0
C695 C 0.23252 0.11698 0.91092 0.0
C696 C 0.26295 0.12328 0.90674 0.0
C697 C 0.20751 0.08611 0.91096 0.0
C698 C 0.1924 1.0056 0.91694 0.0
H699 H 0.04071 0.87833 0.91005 0.0
H700 H 0.07765 0.93434 0.91099 0.0
H701 H 0.17495 0.95745 0.9234 0.0
H702 H 0.29052 0.10192 0.89856 0.0
H703 H 0.24746 0.04901 0.8986 0.0
H704 H 0.15318 0.035 0.89165 0.0
C705 C 0.08626 0.91856 0.90779 0.0
C706 C 0.16987 0.97404 0.9163 0.0
C707 C 0.06509 0.88645 0.90722 0.0
C708 C 0.26758 0.09817 0.90212 0.0
C709 C 0.24283 0.06763 0.90223 0.0
C710 C 0.15795 0.01827 0.89884 0.0
C711 C 0.11829 0.93003 0.90499 0.0
C712 C 0.14127 0.96398 0.90658 0.0
C713 C 0.21259 0.06109 0.90694 0.0
C714 C 0.18702 0.02805 0.90787 0.0
H715 H 0.11611 0.8609 0.89745 0.0
H716 H 0.15291 0.91671 0.89839 0.0
H717 H 0.11351 0.97954 0.89054 0.0
H718 H 0.22811 0.13576 0.91446 0.0
H719 H 0.1844 0.08176 0.91462 0.0
C720 C 0.11494 0.224 0.40303 0.0
C721 C 0.14054 0.25443 0.40143 0.0
C722 C 0.11928 0.19807 0.40191 0.0
C723 C 0.17673 0.17586 0.38439 0.0
H724 H 0.13769 0.10812 0.42225 0.0
C725 C 0.22573 0.0949 0.40027 0.0
C726 C 0.20476 0.06263 0.40121 0.0
C727 C 0.21488 0.11605 0.39956 0.0
C728 C 0.14847 0.1267 0.41143 0.0
H729 H 0.1908 0.2812 0.39745 0.0
H730 H 0.19816 0.23669 0.39578 0.0
H731 H 0.12332 0.14883 0.4218 0.0
H732 H 0.15569 0.02748 0.40237 0.0
H733 H 0.13685 0.06462 0.40154 0.0
H734 H 0.2025 0.1544 0.37438 0.0
C735 C 0.17466 0.23256 0.39753 0.0
C736 C 0.14017 0.14995 0.41113 0.0
C737 C 0.17039 0.25824 0.39866 0.0
C738 C 0.17258 0.05215 0.40189 0.0
C739 C 0.16173 0.0734 0.40134 0.0
C740 C 0.18512 0.15285 0.38478 0.0
C741 C 0.14926 0.20213 0.39904 0.0
C742 C 0.15479 0.17522 0.39791 0.0
C743 C 0.18277 0.10557 0.39992 0.0
C744 C 0.17163 0.12838 0.39858 0.0
H745 H 0.09164 0.22021 0.40519 0.0
H746 H 0.09919 0.17489 0.40308 0.0
H747 H 0.1879 0.19454 0.37367 0.0
H748 H 0.25066 0.10396 0.40021 0.0
H749 H 0.23173 0.14074 0.39887 0.0
C750 C 0.14281 0.22977 0.90477 0.0
C751 C 0.15417 0.20914 0.90764 0.0
C752 C 0.1108 0.21887 0.90469 0.0
C753 C 0.03323 0.14823 0.899 0.0
H754 H 1.00598 0.19939 0.92623 0.0
C755 C 0.90239 0.11484 0.90938 0.0
C756 C 0.8965 0.13934 0.90546 0.0
C757 C 0.93314 0.12045 0.90995 0.0
C758 C 0.01321 0.18488 0.91849 0.0
H759 H 0.14061 0.16066 0.9124 0.0
H760 H 0.0846 0.14161 0.91223 0.0
H761 H 0.06092 0.21487 0.92641 0.0
H762 H 0.9185 0.18869 0.89829 0.0
H763 H 0.97126 0.19814 0.89929 0.0
H764 H 0.98516 0.11833 0.89102 0.0
C765 C 0.10054 0.16622 0.90987 0.0
C766 C 0.04473 0.19382 0.91853 0.0
C767 C 0.13265 0.17715 0.90995 0.0
C768 C 0.92193 0.16922 0.90161 0.0
C769 C 0.95235 0.17477 0.90227 0.0
C770 C 1.0015 0.13921 0.89899 0.0
C771 C 0.08926 0.18704 0.90752 0.0
C772 C 0.05528 0.17601 0.90844 0.0
C773 C 0.95843 0.15066 0.90676 0.0
C774 C 0.9913 0.15786 0.90838 0.0
H775 H 0.1587 0.25444 0.90256 0.0
H776 H 0.10292 0.23546 0.90238 0.0
H777 H 0.0406 0.13401 0.89105 0.0
H778 H 0.88336 0.09155 0.91236 0.0
H779 H 0.93717 0.1014 0.91342 0.0
C780 C 0.96028 0.12736 0.40299 0.0
C781 C 0.95009 0.14862 0.39865 0.0
C782 C 0.93957 0.0952 0.40204 0.0
C783 C 0.86367 0.03657 0.38071 0.0
H784 H 0.8617 0.98404 0.42406 0.0
C785 C 0.75622 0.91868 0.39702 0.0
C786 C 0.75968 0.89336 0.40297 0.0
C787 C 0.78208 0.94831 0.39481 0.0
C788 C 0.86232 0.99827 0.41166 0.0
H789 H 0.91031 0.15271 0.38952 0.0
H790 H 0.87416 0.09674 0.38807 0.0
H791 H 0.90204 0.03908 0.42339 0.0
H792 H 0.79333 0.87939 0.41101 0.0
H793 H 0.83893 0.93172 0.40721 0.0
H794 H 0.82362 0.99607 0.36919 0.0
C795 C 0.89821 0.10488 0.39207 0.0
C796 C 0.88539 0.02981 0.41128 0.0
C797 C 0.91884 0.13698 0.39311 0.0
C798 C 0.78987 0.8984 0.40643 0.0
C799 C 0.81593 0.92835 0.40434 0.0
C800 C 0.8407 1.00513 0.38107 0.0
C801 C 0.90828 0.08359 0.3966 0.0
C802 C 0.88585 0.04948 0.39604 0.0
C803 C 0.81224 0.95361 0.3985 0.0
C804 C 0.83926 0.98579 0.39681 0.0
H805 H 0.98414 0.13558 0.40751 0.0
H806 H 0.94809 0.07943 0.40551 0.0
H807 H 0.8638 0.05091 0.36852 0.0
H808 H 0.7334 0.91577 0.39413 0.0
H809 H 0.77833 0.9673 0.39062 0.0
C810 C 0.86279 0.76274 0.88736 0.0
C811 C 0.88768 0.76351 0.89792 0.0
C812 C 0.85917 0.78888 0.88662 0.0
C813 C 0.87466 0.85719 0.91539 0.0
H814 H 0.84861 0.88107 0.86733 0.0
C815 C 0.84261 0.95456 0.9158 0.0
C816 C 0.81688 0.94955 0.90421 0.0
C817 C 0.8553 0.93503 0.91393 0.0
C818 C 0.85556 0.87454 0.88094 0.0
H819 H 0.92887 0.79268 0.91552 0.0
H820 H 0.92218 0.83859 0.91451 0.0
H821 H 0.86453 0.84183 0.86572 0.0
H822 H 0.78428 0.92017 0.88156 0.0
H823 H 0.8058 0.88556 0.8786 0.0
H824 H 0.86448 0.8888 0.9308 0.0
C825 C 0.90556 0.81758 0.90677 0.0
C826 C 0.86489 0.85219 0.87997 0.0
C827 C 0.90948 0.79141 0.90726 0.0
C828 C 0.80431 0.92478 0.89055 0.0
C829 C 0.81679 0.90504 0.88881 0.0
C830 C 0.86505 0.87934 0.9164 0.0
C831 C 0.88015 0.81642 0.8966 0.0
C832 C 0.87405 0.84289 0.89723 0.0
C833 C 0.84239 0.9098 0.90054 0.0
C834 C 0.85486 0.88795 0.89923 0.0
H835 H 0.84569 0.74167 0.87987 0.0
H836 H 0.8392 0.78713 0.87883 0.0
H837 H 0.88121 0.8502 0.92898 0.0
H838 H 0.85311 0.97378 0.92625 0.0
H839 H 0.87535 0.93983 0.92295 0.0
C840 C 0.16311 0.71796 0.14927 0.0
C841 C 0.13717 0.716 0.1394 0.0
C842 C 0.16686 0.69194 0.15083 0.0
C843 C 0.12664 0.60564 0.14441 0.0
H844 H 0.2113 0.62248 0.13714 0.0
C845 C 0.15923 0.50852 0.15042 0.0
C846 C 0.18103 0.50943 0.13667 0.0
C847 C 0.15357 0.53346 0.15199 0.0
C848 C 0.18746 0.61725 0.13904 0.0
H849 H 0.09418 0.68482 0.12403 0.0
H850 H 0.10107 0.63932 0.12629 0.0
H851 H 0.20086 0.66537 0.13736 0.0
H852 H 0.2146 0.53787 0.1142 0.0
H853 H 0.20417 0.58075 0.11652 0.0
H854 H 0.11319 0.55727 0.14525 0.0
C855 C 0.11831 0.66094 0.13314 0.0
C856 C 0.1815 0.64198 0.13948 0.0
C857 C 0.11436 0.68702 0.13179 0.0
C858 C 0.19739 0.53615 0.12479 0.0
C859 C 0.19165 0.56098 0.1263 0.0
C860 C 0.13261 0.58081 0.14385 0.0
C861 C 0.14501 0.66326 0.1423 0.0
C862 C 0.15103 0.63658 0.14218 0.0
C863 C 0.16954 0.55994 0.13984 0.0
C864 C 0.16311 0.58629 0.14107 0.0
H865 H 0.1809 0.73985 0.15558 0.0
H866 H 0.18723 0.69448 0.15851 0.0
H867 H 0.10293 0.60057 0.14667 0.0
H868 H 0.14592 0.4882 0.15965 0.0
H869 H 0.13668 0.53198 0.16276 0.0
C870 C 0.65046 0.13873 0.62556 0.0
C871 C 0.67594 0.16507 0.63413 0.0
C872 C 0.62024 0.13368 0.62758 0.0
C873 C 0.57779 0.17554 0.6361 0.0
H874 H 0.50747 0.09329 0.64657 0.0
C875 C 0.45509 0.15745 0.64744 0.0
C876 C 0.4299 0.13112 0.63868 0.0
C877 C 0.48454 0.16032 0.64836 0.0
C878 C 0.5268 0.11633 0.64342 0.0
H879 H 0.68963 0.20654 0.6518 0.0
H880 H 0.63666 0.19774 0.65534 0.0
H881 H 0.56012 0.10089 0.64566 0.0
H882 H 0.41568 0.08675 0.62441 0.0
H883 H 0.46745 0.09203 0.62561 0.0
H884 H 0.5447 0.19097 0.63338 0.0
C885 C 0.64018 0.18108 0.64696 0.0
C886 C 0.55697 0.1207 0.64296 0.0
C887 C 0.67045 0.186 0.64508 0.0
C888 C 0.43462 0.10727 0.63132 0.0
C889 C 0.46428 0.11028 0.63207 0.0
C890 C 0.54768 0.17115 0.63642 0.0
C891 C 0.61477 0.15495 0.63812 0.0
C892 C 0.58279 0.15036 0.63929 0.0
C893 C 0.48972 0.1371 0.64035 0.0
C894 C 0.52176 0.14151 0.64012 0.0
H895 H 0.6539 0.12195 0.61725 0.0
H896 H 0.60122 0.11348 0.62046 0.0
H897 H 0.59713 0.19855 0.63286 0.0
H898 H 0.45218 0.1761 0.65351 0.0
H899 H 0.50332 0.18091 0.6553 0.0
C900 C 0.49593 0.66296 0.14489 0.0
C901 C 0.52244 0.66981 0.13364 0.0
C902 C 0.47152 0.63213 0.14678 0.0
C903 C 0.43874 0.55459 0.12233 0.0
H904 H 0.39047 0.52501 0.17077 0.0
C905 C 0.34033 0.42644 0.13181 0.0
C906 C 0.31207 0.42278 0.13896 0.0
C907 C 0.36764 0.4556 0.13265 0.0
C908 C 0.40372 0.53298 0.15713 0.0
H909 H 0.54484 0.64962 0.11635 0.0
H910 H 0.50278 0.59603 0.11993 0.0
H911 H 0.4349 0.57796 0.16941 0.0
H912 H 0.29065 0.4466 0.1534 0.0
H913 H 0.3381 0.49709 0.15495 0.0
H914 H 0.4075 0.50958 0.11009 0.0
C915 C 0.50023 0.61439 0.12681 0.0
C916 C 0.4291 0.56338 0.1563 0.0
C917 C 0.52442 0.64514 0.12479 0.0
C918 C 0.31197 0.44859 0.14764 0.0
C919 C 0.33924 0.47754 0.14867 0.0
C920 C 0.41353 0.52415 0.12322 0.0
C921 C 0.47324 0.60745 0.1376 0.0
C922 C 0.4468 0.57471 0.13883 0.0
C923 C 0.36729 0.48155 0.1409 0.0
C924 C 0.39553 0.51308 0.14055 0.0
H925 H 0.4937 0.68151 0.15179 0.0
H926 H 0.45098 0.62778 0.15501 0.0
H927 H 0.4514 0.56259 0.10849 0.0
H928 H 0.34119 0.40705 0.12502 0.0
H929 H 0.38899 0.45793 0.12669 0.0
C930 C 0.88723 0.51823 0.62649 0.0
C931 C 0.85934 0.51587 0.63334 0.0
C932 C 0.89276 0.49336 0.62858 0.0
C933 C 0.86597 0.41839 0.65531 0.0
H934 H 0.90612 0.4016 0.61143 0.0
C935 C 0.86512 0.30197 0.64586 0.0
C936 C 0.89249 0.30295 0.63916 0.0
C937 C 0.86306 0.32907 0.64671 0.0
C938 C 0.89529 0.40621 0.62394 0.0
H939 H 0.81559 0.48567 0.64808 0.0
H940 H 0.82489 0.44183 0.65142 0.0
H941 H 0.89806 0.44616 0.60982 0.0
H942 H 0.93941 0.33346 0.62848 0.0
H943 H 0.93572 0.38091 0.62986 0.0
H944 H 0.86253 0.37781 0.66915 0.0
C945 C 0.84278 0.46316 0.6447 0.0
C946 C 0.89065 0.43182 0.62304 0.0
C947 C 0.83736 0.48823 0.64275 0.0
C948 C 0.91801 0.33187 0.63372 0.0
C949 C 0.91583 0.35901 0.63439 0.0
C950 C 0.87042 0.39263 0.65614 0.0
C951 C 0.87046 0.46529 0.63746 0.0
C952 C 0.87584 0.43824 0.63868 0.0
C953 C 0.88822 0.35785 0.64075 0.0
C954 C 0.88501 0.38617 0.64042 0.0
H955 H 0.90491 0.53946 0.61953 0.0
H956 H 0.91465 0.49622 0.62325 0.0
H957 H 0.85497 0.42284 0.66779 0.0
H958 H 0.84501 0.28015 0.65027 0.0
H959 H 0.84137 0.32729 0.6515 0.0
C960 C 0.57419 0.86255 0.1461 0.0
C961 C 0.60043 0.88931 0.13863 0.0
C962 C 0.54518 0.86078 0.14698 0.0
C963 C 0.49989 0.89161 0.12296 0.0
H964 H 0.44413 0.85463 0.16773 0.0
C965 C 0.37972 0.88327 0.12454 0.0
C966 C 0.35442 0.85586 0.13213 0.0
C967 C 0.41023 0.88917 0.12683 0.0
C968 C 0.45925 0.86469 0.15501 0.0
H969 H 0.61678 0.93552 0.1266 0.0
H970 H 0.56588 0.93231 0.12799 0.0
H971 H 0.49673 0.86223 0.16921 0.0
H972 H 0.34138 0.81341 0.14842 0.0
H973 H 0.39469 0.82332 0.15211 0.0
H974 H 0.46237 0.89332 0.10847 0.0
C975 C 0.56788 0.91267 0.13313 0.0
C976 C 0.48946 0.86917 0.1559 0.0
C977 C 0.59707 0.91458 0.13245 0.0
C978 C 0.36041 0.8348 0.1425 0.0
C979 C 0.39101 0.84058 0.14465 0.0
C980 C 0.46964 0.88693 0.122 0.0
C981 C 0.54155 0.88561 0.14024 0.0
C982 C 0.51008 0.88254 0.13984 0.0
C983 C 0.41632 0.86771 0.13664 0.0
C984 C 0.44883 0.87329 0.13797 0.0
H985 H 0.5759 0.84267 0.15109 0.0
H986 H 0.52535 0.83951 0.15236 0.0
H987 H 0.515 0.90147 0.1102 0.0
H988 H 0.37591 0.90025 0.11681 0.0
H989 H 0.42906 0.91066 0.12088 0.0
C990 C 0.69003 0.59038 0.63204 0.0
C991 C 0.71956 0.59331 0.63462 0.0
C992 C 0.66292 0.56101 0.63309 0.0
C993 C 0.6338 0.47988 0.65104 0.0
H994 H 0.56849 0.45792 0.61195 0.0
C995 C 0.53706 0.35233 0.63698 0.0
C996 C 0.50656 0.34662 0.63392 0.0
C997 C 0.56219 0.3829 0.63796 0.0
C998 C 0.58634 0.46378 0.62312 0.0
H999 H 0.74347 0.56744 0.64063 0.0
H1000 H 0.69671 0.51684 0.6422 0.0
H1001 H 0.61332 0.51067 0.61251 0.0
H1002 H 0.47877 0.36873 0.62914 0.0
H1003 H 0.52247 0.42192 0.63109 0.0
H1004 H 0.60707 0.43288 0.66145 0.0
C1005 C 0.69428 0.5371 0.63963 0.0
C1006 C 0.61203 0.49408 0.62348 0.0
C1007 C 0.72123 0.56627 0.63857 0.0
C1008 C 0.50187 0.37225 0.6318 0.0
C1009 C 0.52699 0.40278 0.63268 0.0
C1010 C 0.6082 0.4496 0.65064 0.0
C1011 C 0.66474 0.53398 0.63682 0.0
C1012 C 0.63628 0.50243 0.6373 0.0
C1013 C 0.55748 0.40852 0.63577 0.0
C1014 C 0.58427 0.44106 0.63656 0.0
H1015 H 0.68785 0.61066 0.62899 0.0
H1016 H 0.64052 0.5595 0.63104 0.0
H1017 H 0.65172 0.48561 0.66215 0.0
H1018 H 0.54148 0.33315 0.63878 0.0
H1019 H 0.58541 0.38647 0.64015 0.0
C1020 C 0.3281 0.91366 0.40543 0.0
C1021 C 0.30027 0.88675 0.39989 0.0
C1022 C 0.3566 0.91401 0.4047 0.0
C1023 C 0.3941 0.87209 0.38258 0.0
H1024 H 0.44939 0.90337 0.42813 0.0
C1025 C 0.48866 0.83896 0.39727 0.0
C1026 C 0.51773 0.8622 0.40451 0.0
C1027 C 0.46372 0.84457 0.39563 0.0
C1028 C 0.43444 0.89491 0.41516 0.0
H1029 H 0.28079 0.83943 0.38872 0.0
H1030 H 0.32991 0.84008 0.38755 0.0
H1031 H 0.40366 0.90978 0.42668 0.0
H1032 H 0.54313 0.90946 0.416 0.0
H1033 H 0.49982 0.91935 0.41287 0.0
H1034 H 0.42449 0.85673 0.37121 0.0
C1035 C 0.32999 0.86101 0.39233 0.0
C1036 C 0.40826 0.89866 0.41432 0.0
C1037 C 0.30169 0.86059 0.39317 0.0
C1038 C 0.52121 0.89117 0.4101 0.0
C1039 C 0.49626 0.89674 0.40853 0.0
C1040 C 0.42021 0.86832 0.38343 0.0
C1041 C 0.3578 0.88758 0.39821 0.0
C1042 C 0.38747 0.88679 0.39817 0.0
C1043 C 0.46719 0.87351 0.40129 0.0
C1044 C 0.44044 0.87921 0.39988 0.0
H1045 H 0.32778 0.93416 0.4107 0.0
H1046 H 0.37768 0.93493 0.40923 0.0
H1047 H 0.37888 0.86317 0.36975 0.0
H1048 H 0.48522 0.81646 0.39274 0.0
H1049 H 0.44155 0.82601 0.39022 0.0
C1050 C 0.66695 0.48818 0.89173 0.0
C1051 C 0.67371 0.51526 0.90239 0.0
C1052 C 0.6363 0.46316 0.89048 0.0
C1053 C 0.55918 0.43013 0.91543 0.0
H1054 H 0.52889 0.3806 0.86736 0.0
C1055 C 0.43082 0.3313 0.90687 0.0
C1056 C 0.42672 0.30296 0.89941 0.0
C1057 C 0.46006 0.35853 0.90595 0.0
C1058 C 0.53705 0.39414 0.88093 0.0
H1059 H 0.65333 0.53773 0.91944 0.0
H1060 H 0.60009 0.49451 0.91708 0.0
H1061 H 0.58174 0.42519 0.86837 0.0
H1062 H 0.44994 0.2814 0.88441 0.0
H1063 H 0.50054 0.32865 0.88275 0.0
H1064 H 0.51445 0.39904 0.92795 0.0
C1065 C 0.61846 0.49209 0.91012 0.0
C1066 C 0.56742 0.41965 0.88154 0.0
C1067 C 0.64905 0.51695 0.91146 0.0
C1068 C 0.45221 0.30276 0.89037 0.0
C1069 C 0.48126 0.32995 0.8893 0.0
C1070 C 0.52876 0.40475 0.91476 0.0
C1071 C 0.61163 0.46473 0.89975 0.0
C1072 C 0.57901 0.43789 0.89886 0.0
C1073 C 0.48572 0.35806 0.89736 0.0
C1074 C 0.51739 0.38628 0.89756 0.0
H1075 H 0.68545 0.48605 0.88469 0.0
H1076 H 0.63207 0.44234 0.88259 0.0
H1077 H 0.56736 0.44323 0.92915 0.0
H1078 H 0.41173 0.33229 0.91395 0.0
H1079 H 0.46266 0.3799 0.91211 0.0
C1080 C 0.18119 0.66166 0.39976 0.0
C1081 C 0.15696 0.66622 0.40656 0.0
C1082 C 0.17683 0.63153 0.39804 0.0
C1083 C 0.12645 0.5507 0.41628 0.0
H1084 H 0.16309 0.52913 0.37263 0.0
C1085 C 0.10393 0.42502 0.40467 0.0
C1086 C 0.13032 0.4225 0.40024 0.0
C1087 C 0.10559 0.45413 0.40427 0.0
C1088 C 0.15286 0.53484 0.38499 0.0
H1089 H 0.10875 0.64253 0.41618 0.0
H1090 H 0.10112 0.5902 0.41309 0.0
H1091 H 0.16941 0.58119 0.37426 0.0
H1092 H 0.17894 0.44868 0.39141 0.0
H1093 H 0.18173 0.49903 0.39078 0.0
H1094 H 0.11002 0.50438 0.42705 0.0
C1095 C 0.12375 0.60986 0.40951 0.0
C1096 C 0.15656 0.56473 0.38595 0.0
C1097 C 0.12813 0.63992 0.41127 0.0
C1098 C 0.15812 0.44964 0.39496 0.0
C1099 C 0.1597 0.47859 0.39445 0.0
C1100 C 0.12268 0.52079 0.41529 0.0
C1101 C 0.14809 0.60523 0.403 0.0
C1102 C 0.14358 0.57315 0.40168 0.0
C1103 C 0.13359 0.4813 0.39929 0.0
C1104 C 0.13605 0.51254 0.39971 0.0
H1105 H 0.20377 0.6814 0.39619 0.0
H1106 H 0.19624 0.62892 0.39322 0.0
H1107 H 0.11652 0.55645 0.42878 0.0
H1108 H 0.08216 0.40464 0.4088 0.0
H1109 H 0.08494 0.45536 0.40789 0.0
C1110 C 0.68805 0.09866 0.90249 0.0
C1111 C 0.71723 0.12468 0.89809 0.0
C1112 C 0.66075 0.10049 0.90092 0.0
C1113 C 0.62964 0.14868 0.87898 0.0
H1114 H 0.56906 0.11395 0.92147 0.0
C1115 C 0.53648 0.18455 0.89223 0.0
C1116 C 0.50632 0.16101 0.89746 0.0
C1117 C 0.56096 0.17816 0.89104 0.0
C1118 C 0.58554 0.12346 0.90935 0.0
H1119 H 0.7403 0.17283 0.88808 0.0
H1120 H 0.69326 0.17601 0.88561 0.0
H1121 H 0.61341 0.10533 0.92122 0.0
H1122 H 0.47842 0.11234 0.90578 0.0
H1123 H 0.52097 0.10117 0.9035 0.0
H1124 H 0.60209 0.16734 0.86735 0.0
C1125 C 0.6912 0.15404 0.89004 0.0
C1126 C 0.61095 0.11843 0.90917 0.0
C1127 C 0.71833 0.15224 0.89163 0.0
C1128 C 0.50125 0.13093 0.90143 0.0
C1129 C 0.52573 0.12459 0.90036 0.0
C1130 C 0.60432 0.1538 0.87921 0.0
C1131 C 0.66205 0.12833 0.89483 0.0
C1132 C 0.63356 0.13132 0.89412 0.0
C1133 C 0.55591 0.14813 0.8952 0.0
C1134 C 0.58214 0.14155 0.89451 0.0
H1135 H 0.68633 0.07708 0.9075 0.0
H1136 H 0.63864 0.08013 0.90453 0.0
H1137 H 0.64626 0.15848 0.86695 0.0
H1138 H 0.54116 0.20792 0.88899 0.0
H1139 H 0.58399 0.19692 0.88722 0.0
C1140 C 0.35157 0.53112 0.39423 0.0
C1141 C 0.34686 0.50298 0.40236 0.0
C1142 C 0.38172 0.55687 0.39267 0.0
C1143 C 0.46093 0.58811 0.41411 0.0
H1144 H 0.48608 0.64611 0.37008 0.0
C1145 C 0.58741 0.68938 0.40561 0.0
C1146 C 0.59079 0.7187 0.40138 0.0
C1147 C 0.55819 0.66233 0.40423 0.0
C1148 C 0.47932 0.63017 0.38252 0.0
H1149 H 0.37006 0.47917 0.41418 0.0
H1150 H 0.42244 0.52364 0.41113 0.0
H1151 H 0.43391 0.60026 0.37032 0.0
H1152 H 0.56617 0.7424 0.39173 0.0
H1153 H 0.5154 0.6953 0.38931 0.0
H1154 H 0.50631 0.61797 0.42628 0.0
C1155 C 0.40296 0.52632 0.40653 0.0
C1156 C 0.44939 0.60395 0.38269 0.0
C1157 C 0.37291 0.50076 0.40823 0.0
C1158 C 0.56445 0.72023 0.39518 0.0
C1159 C 0.53532 0.6932 0.39366 0.0
C1160 C 0.49086 0.61417 0.41386 0.0
C1161 C 0.40777 0.55489 0.39906 0.0
C1162 C 0.43977 0.58262 0.39854 0.0
C1163 C 0.53177 0.66399 0.39842 0.0
C1164 C 0.50037 0.63558 0.39812 0.0
H1165 H 0.3319 0.53352 0.38967 0.0
H1166 H 0.3845 0.57857 0.387 0.0
H1167 H 0.45419 0.5726 0.42676 0.0
H1168 H 0.60719 0.68733 0.41039 0.0
H1169 H 0.55624 0.6401 0.4078 0.0
C1170 C 0.91597 0.58807 0.90128 0.0
C1171 C 0.88941 0.59124 0.89944 0.0
C1172 C 0.9134 0.5586 0.89998 0.0
C1173 C 0.86042 0.47789 0.88194 0.0
H1174 H 0.90508 0.45518 0.9195 0.0
C1175 C 0.82973 0.35015 0.89441 0.0
C1176 C 0.85445 0.34426 0.89715 0.0
C1177 C 0.83534 0.38078 0.89358 0.0
C1178 C 0.89274 0.46126 0.90873 0.0
H1179 H 0.83929 0.56568 0.89464 0.0
H1180 H 0.83492 0.51482 0.8926 0.0
H1181 H 0.91306 0.50794 0.91988 0.0
H1182 H 0.90448 0.3661 0.90132 0.0
H1183 H 0.91426 0.41939 0.89955 0.0
H1184 H 0.8398 0.43113 0.87096 0.0
C1185 C 0.85781 0.53501 0.89478 0.0
C1186 C 0.89736 0.49155 0.90893 0.0
C1187 C 0.86034 0.5643 0.89611 0.0
C1188 C 0.88492 0.36975 0.89891 0.0
C1189 C 0.89051 0.40034 0.89815 0.0
C1190 C 0.85577 0.44763 0.88176 0.0
C1191 C 0.88425 0.53171 0.89671 0.0
C1192 C 0.88099 0.50015 0.89568 0.0
C1193 C 0.86578 0.40625 0.89556 0.0
C1194 C 0.87164 0.43883 0.89527 0.0
H1195 H 0.93872 0.60828 0.90383 0.0
H1196 H 0.93429 0.55691 0.90137 0.0
H1197 H 0.84786 0.48386 0.87127 0.0
H1198 H 0.80601 0.33108 0.89289 0.0
H1199 H 0.8157 0.38448 0.89176 0.0
C1200 C 0.12423 0.33792 0.33088 0.0
C1201 C 0.14161 0.33978 0.34786 0.0
C1202 C 0.13789 0.34459 0.31213 0.0
C1203 C 0.19823 0.34074 0.28427 0.0
H1204 H 0.17982 0.38521 0.24393 0.0
C1205 C 0.24089 0.34665 0.20473 0.0
C1206 C 0.22026 0.34263 0.18921 0.0
C1207 C 0.23518 0.3527 0.22401 0.0
C1208 C 0.18498 0.3725 0.25495 0.0
H1209 H 0.18714 0.35078 0.3587 0.0
H1210 H 0.21123 0.36191 0.32551 0.0
H1211 H 0.1638 0.38495 0.27829 0.0
H1212 H 0.17811 0.34298 0.18134 0.0
H1213 H 0.16712 0.35231 0.21545 0.0
H1214 H 0.21792 0.32685 0.26106 0.0
C1215 C 0.18696 0.35546 0.32687 0.0
C1216 C 0.17599 0.37255 0.27467 0.0
C1217 C 0.17329 0.34921 0.34582 0.0
C1218 C 0.19438 0.3461 0.19312 0.0
C1219 C 0.18822 0.35153 0.21264 0.0
C1220 C 0.20691 0.3404 0.26458 0.0
C1221 C 0.16924 0.35292 0.30982 0.0
C1222 C 0.1822 0.35634 0.28949 0.0
C1223 C 0.20819 0.35407 0.22844 0.0
C1224 C 0.20018 0.35604 0.24958 0.0
H1225 H 0.09975 0.3308 0.33202 0.0
H1226 H 0.12351 0.342 0.29932 0.0
H1227 H 0.2028 0.32754 0.29526 0.0
H1228 H 0.26132 0.34456 0.20202 0.0
H1229 H 0.25168 0.35557 0.23555 0.0
C1230 C 0.89237 0.23478 0.70515 0.0
C1231 C 0.87907 0.21194 0.69028 0.0
C1232 C 0.88033 0.22875 0.72435 0.0
C1233 C 0.81488 0.1714 0.75606 0.0
H1234 H 0.87968 0.20213 0.7964 0.0
C1235 C 0.79859 0.1151 0.83286 0.0
C1236 C 0.81129 0.13417 0.84969 0.0
C1237 C 0.80409 0.12795 0.81388 0.0
C1238 C 0.86124 0.19386 0.7854 0.0
H1239 H 0.84196 0.16537 0.68335 0.0
H1240 H 0.82131 0.15404 0.71733 0.0
H1241 H 0.89346 0.21765 0.76201 0.0
H1242 H 0.83945 0.18176 0.85996 0.0
H1243 H 0.8498 0.20452 0.82639 0.0
H1244 H 0.78294 0.14636 0.77958 0.0
C1245 C 0.84064 0.17702 0.71407 0.0
C1246 C 0.86908 0.20277 0.7656 0.0
C1247 C 0.8524 0.18339 0.69461 0.0
C1248 C 0.82946 0.16657 0.8472 0.0
C1249 C 0.83536 0.17951 0.82804 0.0
C1250 C 0.80709 0.16226 0.77588 0.0
C1251 C 0.85517 0.19933 0.72934 0.0
C1252 C 0.84608 0.19139 0.75059 0.0
C1253 C 0.82272 0.16023 0.81119 0.0
C1254 C 0.83027 0.17302 0.7907 0.0
H1255 H 0.91281 0.25714 0.70206 0.0
H1256 H 0.8915 0.24688 0.73546 0.0
H1257 H 0.79649 0.16256 0.74503 0.0
H1258 H 0.78442 0.09002 0.8343 0.0
H1259 H 0.79446 0.11243 0.80124 0.0
C1260 C 0.6862 0.85275 0.19574 0.0
C1261 C 0.67717 0.87384 0.18906 0.0
C1262 C 0.68016 0.84196 0.2154 0.0
C1263 C 0.66398 0.86569 0.26456 0.0
H1264 H 0.65637 0.78752 0.28149 0.0
C1265 C 0.68588 0.84365 0.34582 0.0
C1266 C 0.67109 0.81293 0.35279 0.0
C1267 C 0.68153 0.8498 0.32611 0.0
C1268 C 0.65788 0.80925 0.27712 0.0
H1269 H 0.65311 0.89867 0.19679 0.0
H1270 H 0.64065 0.87838 0.2305 0.0
H1271 H 0.65616 0.79793 0.24629 0.0
H1272 H 0.63913 0.76472 0.34542 0.0
H1273 H 0.62983 0.7754 0.31147 0.0
H1274 H 0.6647 0.87663 0.29535 0.0
C1275 C 0.65358 0.87107 0.22114 0.0
C1276 C 0.65831 0.81545 0.2568 0.0
C1277 C 0.66027 0.88236 0.20173 0.0
C1278 C 0.65054 0.78865 0.34029 0.0
C1279 C 0.64568 0.79479 0.32075 0.0
C1280 C 0.66307 0.8593 0.28486 0.0
C1281 C 0.66457 0.85176 0.22856 0.0
C1282 C 0.66179 0.84395 0.2502 0.0
C1283 C 0.66202 0.8253 0.31312 0.0
C1284 C 0.66046 0.83118 0.29147 0.0
H1285 H 0.69974 0.84634 0.18623 0.0
H1286 H 0.68928 0.82736 0.22051 0.0
H1287 H 0.66727 0.88818 0.26022 0.0
H1288 H 0.70238 0.8626 0.35516 0.0
H1289 H 0.69487 0.87356 0.32082 0.0
C1290 C 0.79644 0.67993 0.70308 0.0
C1291 C 0.81213 0.67766 0.68637 0.0
C1292 C 0.80311 0.67357 0.72203 0.0
C1293 C 0.8666 0.67712 0.75084 0.0
H1294 H 0.80291 0.63413 0.79087 0.0
C1295 C 0.90145 0.6707 0.8309 0.0
C1296 C 0.88513 0.67557 0.84618 0.0
C1297 C 0.88999 0.66485 0.81154 0.0
C1298 C 0.82098 0.64642 0.77993 0.0
H1299 H 0.84663 0.66621 0.67624 0.0
H1300 H 0.859 0.65557 0.70979 0.0
H1301 H 0.78779 0.63405 0.75626 0.0
H1302 H 0.84338 0.67698 0.8535 0.0
H1303 H 0.82354 0.66788 0.81921 0.0
H1304 H 0.89978 0.69082 0.77438 0.0
C1305 C 0.84131 0.66215 0.70806 0.0
C1306 C 0.81233 0.64619 0.76008 0.0
C1307 C 0.83424 0.66812 0.6889 0.0
C1308 C 0.8563 0.6732 0.84193 0.0
C1309 C 0.845 0.6679 0.82231 0.0
C1310 C 0.87524 0.6776 0.77066 0.0
C1311 C 0.82595 0.66509 0.72483 0.0
C1312 C 0.83505 0.66187 0.74537 0.0
C1313 C 0.86219 0.66447 0.80677 0.0
C1314 C 0.85257 0.66249 0.78554 0.0
H1315 H 0.77917 0.68713 0.70157 0.0
H1316 H 0.79118 0.67648 0.73461 0.0
H1317 H 0.88461 0.68992 0.73995 0.0
H1318 H 0.92355 0.67193 0.83386 0.0
H1319 H 0.90339 0.66131 0.80019 0.0
C1320 C 0.17797 0.81847 0.18938 0.0
C1321 C 0.15049 0.819 0.18506 0.0
C1322 C 0.19113 0.82644 0.20853 0.0
C1323 C 0.19364 0.8701 0.25311 0.0
H1324 H 0.19475 0.80538 0.28498 0.0
C1325 C 0.17527 0.86672 0.33589 0.0
C1326 C 0.19625 0.86395 0.34855 0.0
C1327 C 0.17484 0.86094 0.31563 0.0
C1328 C 0.19515 0.82389 0.27619 0.0
H1329 H 0.11596 0.82936 0.19671 0.0
H1330 H 0.13937 0.84433 0.22955 0.0
H1331 H 0.18767 0.79876 0.24875 0.0
H1332 H 0.23191 0.85087 0.35023 0.0
H1333 H 0.23098 0.84036 0.31434 0.0
H1334 H 0.19971 0.89469 0.28035 0.0
C1335 C 0.15064 0.83747 0.21846 0.0
C1336 C 0.19124 0.82017 0.2555 0.0
C1337 C 0.13721 0.82885 0.19969 0.0
C1338 C 0.21545 0.85313 0.34075 0.0
C1339 C 0.21502 0.84727 0.32027 0.0
C1340 C 0.19758 0.87382 0.27363 0.0
C1341 C 0.17737 0.83586 0.22323 0.0
C1342 C 0.18922 0.84274 0.24393 0.0
C1343 C 0.19547 0.85228 0.30745 0.0
C1344 C 0.19702 0.85019 0.28549 0.0
H1345 H 0.18837 0.81058 0.17833 0.0
H1346 H 0.21175 0.82499 0.2119 0.0
H1347 H 0.19245 0.88796 0.24451 0.0
H1348 H 0.15995 0.87466 0.34155 0.0
H1349 H 0.1589 0.86414 0.30622 0.0
C1350 C 0.32685 0.21674 0.83458 0.0
C1351 C 0.33781 0.20696 0.85073 0.0
C1352 C 0.3314 0.21035 0.81517 0.0
C1353 C 0.37813 0.18911 0.78319 0.0
H1354 H 0.30866 0.16506 0.74702 0.0
C1355 C 0.37083 0.14067 0.70359 0.0
C1356 C 0.35651 0.14915 0.68873 0.0
C1357 C 0.37223 0.15056 0.72319 0.0
C1358 C 0.32846 0.17222 0.75683 0.0
H1359 H 0.36269 0.18318 0.85923 0.0
H1360 H 0.3704 0.17133 0.8248 0.0
H1361 H 0.30304 0.17407 0.78185 0.0
H1362 H 0.33415 0.1762 0.6824 0.0
H1363 H 0.33659 0.19364 0.71678 0.0
H1364 H 0.40331 0.18667 0.75798 0.0
C1365 C 0.35843 0.18427 0.82736 0.0
C1366 C 0.32522 0.17726 0.77685 0.0
C1367 C 0.35393 0.19087 0.84702 0.0
C1368 C 0.34521 0.16924 0.69359 0.0
C1369 C 0.34641 0.17899 0.71328 0.0
C1370 C 0.38133 0.18386 0.76308 0.0
C1371 C 0.34684 0.19368 0.81123 0.0
C1372 C 0.3501 0.18616 0.79026 0.0
C1373 C 0.35917 0.16903 0.72839 0.0
C1374 C 0.35658 0.17565 0.74964 0.0
H1375 H 0.31463 0.22951 0.8369 0.0
H1376 H 0.32286 0.21866 0.80318 0.0
H1377 H 0.39781 0.19618 0.79309 0.0
H1378 H 0.37991 0.12532 0.70021 0.0
H1379 H 0.38208 0.14237 0.73444 0.0
C1380 C 0.33085 0.25282 0.96259 0.0
C1381 C 0.32723 0.2228 0.96238 0.0
C1382 C 0.31581 0.26109 0.97682 0.0
C1383 C 0.2849 0.24563 0.02693 0.0
H1384 H 0.24037 0.28744 1.00958 0.0
C1385 C 0.2606 0.32399 0.07819 0.0
C1386 C 0.2301 0.31908 0.07876 0.0
C1387 C 0.26904 0.30883 0.06414 0.0
C1388 C 0.25243 0.27551 1.01464 0.0
H1389 H 0.30625 0.17837 0.97756 0.0
H1390 H 0.28063 0.19331 1.00313 0.0
H1391 H 0.26161 0.26672 0.9849 0.0
H1392 H 0.18494 0.29569 0.06435 0.0
H1393 H 0.20016 0.26987 0.03906 0.0
H1394 H 0.27675 0.25551 0.05666 0.0
C1395 C 0.29462 0.21012 0.99188 0.0
C1396 C 0.26474 0.26384 1.00054 0.0
C1397 C 0.3093 0.2016 0.97731 0.0
C1398 C 0.20854 0.29973 0.06433 0.0
C1399 C 0.21722 0.28494 0.04993 0.0
C1400 C 0.27302 0.25776 0.04103 0.0
C1401 C 0.29733 0.23981 0.99154 0.0
C1402 C 0.28154 0.24921 1.00653 0.0
C1403 C 0.24745 0.28898 0.04993 0.0
C1404 C 0.25709 0.27327 0.03502 0.0
H1405 H 0.34483 0.26985 0.95142 0.0
H1406 H 0.31884 0.28431 0.9764 0.0
H1407 H 0.29781 0.23459 0.03198 0.0
H1408 H 0.27789 0.33911 0.08895 0.0
H1409 H 0.29265 0.31288 0.06428 0.0
C1410 C 0.08054 0.32299 0.45853 0.0
C1411 C 0.10565 0.31738 0.45824 0.0
C1412 C 0.05789 0.31017 0.4733 0.0
C1413 C 0.02476 0.24905 0.51232 0.0
H1414 H 0.99108 0.30004 0.53138 0.0
C1415 C 0.91807 0.20215 0.56592 0.0
C1416 C 0.91929 0.22297 0.58054 0.0
C1417 C 0.94082 0.21245 0.55095 0.0
C1418 C 1.00035 0.28549 0.52643 0.0
H1419 H 0.12707 0.29433 0.47342 0.0
H1420 H 0.08774 0.27246 0.49984 0.0
H1421 H 0.03177 0.32068 0.50655 0.0
H1422 H 0.94495 0.27082 0.59089 0.0
H1423 H 0.98471 0.28842 0.56543 0.0
H1424 H 0.99378 0.21421 0.53287 0.0
C1425 C 0.08521 0.28623 0.48827 0.0
C1426 C 0.0235 0.29723 0.51191 0.0
C1427 C 0.10789 0.29895 0.47327 0.0
C1428 C 0.94341 0.25416 0.57985 0.0
C1429 C 0.96613 0.26434 0.5651 0.0
C1430 C 1.00161 0.23732 0.52703 0.0
C1431 C 0.05994 0.29179 0.48849 0.0
C1432 C 0.03595 0.27918 0.50453 0.0
C1433 C 0.96512 0.24376 0.55034 0.0
C1434 C 0.98915 0.25545 0.53431 0.0
H1435 H 0.07815 0.33713 0.44715 0.0
H1436 H 0.03855 0.31451 0.47267 0.0
H1437 H 0.03357 0.23436 0.50688 0.0
H1438 H 0.89966 0.17799 0.56608 0.0
H1439 H 0.9391 0.19601 0.5397 0.0
C1440 C 0.70341 0.94172 0.08002 0.0
C1441 C 0.70739 0.91555 0.07994 0.0
C1442 C 0.71766 0.96496 0.06566 0.0
C1443 C 0.76609 0.01874 0.04062 0.0
H1444 H 0.75387 0.99592 0.98486 0.0
C1445 C 0.8198 0.10853 0.97565 0.0
C1446 C 0.79833 0.10484 0.96074 0.0
C1447 C 0.81154 0.08581 0.99048 0.0
C1448 C 0.7576 1.00262 1.00038 0.0
H1449 H 0.72845 0.89257 0.06426 0.0
H1450 H 0.7528 0.93304 0.0386 0.0
H1451 H 0.73438 0.95507 1.01022 0.0
H1452 H 0.75109 0.0752 0.95009 0.0
H1453 H 0.73702 0.03549 0.97559 0.0
H1454 H 0.78891 0.06629 0.03078 0.0
C1455 C 0.73906 0.93572 0.05011 0.0
C1456 C 0.74664 0.97925 1.01488 0.0
C1457 C 0.72516 0.9126 0.06475 0.0
C1458 C 0.76831 0.07849 0.96123 0.0
C1459 C 0.76027 0.05565 0.97576 0.0
C1460 C 0.77745 0.04211 0.02612 0.0
C1461 C 0.73571 0.96232 0.05056 0.0
C1462 C 0.75019 0.98704 0.03516 0.0
C1463 C 0.78181 0.05889 0.99048 0.0
C1464 C 0.77273 0.03429 1.00586 0.0
H1465 H 0.68945 0.94444 0.09137 0.0
H1466 H 0.71414 0.98485 0.0662 0.0
H1467 H 0.76938 0.02544 0.05615 0.0
H1468 H 0.84304 0.12869 0.97568 0.0
H1469 H 0.82857 0.08894 1.00171 0.0
C1470 C 0.76862 0.69309 0.57542 0.0
C1471 C 0.79937 0.69866 0.57586 0.0
C1472 C 0.75946 0.70767 0.56139 0.0
C1473 C 0.77414 0.74049 0.51191 0.0
H1474 H 0.73002 0.78217 0.53018 0.0
C1475 C 0.71817 0.81658 0.47666 0.0
C1476 C 0.69953 0.79595 0.46161 0.0
C1477 C 0.73296 0.80731 0.49068 0.0
C1478 C 0.74254 0.77087 0.52487 0.0
H1479 H 0.8442 0.72257 0.5612 0.0
H1480 H 0.8277 0.74739 0.53595 0.0
H1481 H 0.75157 0.76107 0.5544 0.0
H1482 H 0.68083 0.74917 0.44987 0.0
H1483 H 0.70718 0.73338 0.47391 0.0
H1484 H 0.76411 0.74929 0.48236 0.0
C1485 C 0.81102 0.73224 0.54691 0.0
C1486 C 0.7547 0.75865 0.5387 0.0
C1487 C 0.82043 0.71804 0.56129 0.0
C1488 C 0.69547 0.76577 0.4611 0.0
C1489 C 0.71065 0.75674 0.47481 0.0
C1490 C 0.7615 0.75224 0.49806 0.0
C1491 C 0.78057 0.72759 0.54708 0.0
C1492 C 0.77029 0.743 0.53237 0.0
C1493 C 0.72965 0.7774 0.48972 0.0
C1494 C 0.74523 0.76722 0.50439 0.0
H1495 H 0.75171 0.67792 0.58628 0.0
H1496 H 0.73571 0.70321 0.56167 0.0
H1497 H 0.78592 0.72842 0.50662 0.0
H1498 H 0.72155 0.83991 0.47749 0.0
H1499 H 0.74739 0.82367 0.50207 0.0
C1500 C 0.91492 0.71673 0.97124 0.0
C1501 C 0.91543 0.69649 0.9568 0.0
C1502 C 0.93777 0.72894 0.98627 0.0
C1503 C 0.99693 0.71455 1.01099 0.0
H1504 H 0.03274 0.79994 0.0292 0.0
C1505 C 0.08296 0.75959 0.07645 0.0
C1506 C 0.10797 0.79038 0.07609 0.0
C1507 C 0.05907 0.7492 0.06239 0.0
C1508 C 0.02321 0.77612 0.02414 0.0
H1509 H 0.9399 0.67287 0.94693 0.0
H1510 H 0.97971 0.69452 0.97244 0.0
H1511 H 0.99161 0.77984 1.00397 0.0
H1512 H 0.12798 0.8343 0.06037 0.0
H1513 H 0.08663 0.81581 0.03515 0.0
H1514 H 0.02909 0.71094 0.03036 0.0
C1515 C 0.96162 0.70071 0.97262 0.0
C1516 C 0.99926 0.76444 1.00987 0.0
C1517 C 0.93883 0.68842 0.95784 0.0
C1518 C 0.10892 0.81046 0.06104 0.0
C1519 C 0.08504 0.79992 0.04673 0.0
C1520 C 0.02091 0.72623 0.02505 0.0
C1521 C 0.96144 0.72104 0.98714 0.0
C1522 C 0.98592 0.7335 1.00301 0.0
C1523 C 0.05976 0.76907 0.04722 0.0
C1524 C 0.03442 0.75716 0.0319 0.0
H1525 H 0.89711 0.72329 0.97081 0.0
H1526 H 0.93668 0.74429 0.9973 0.0
H1527 H 0.987 0.69047 1.0064 0.0
H1528 H 0.08157 0.74352 0.08786 0.0
H1529 H 0.03983 0.72553 0.0636 0.0
C1530 C 0.2208 0.93408 0.45878 0.0
C1531 C 0.23016 0.91159 0.45819 0.0
C1532 C 0.23228 0.95726 0.4734 0.0
C1533 C 0.29695 0.99732 0.50974 0.0
H1534 H 0.243 0.02487 0.53265 0.0
C1535 C 0.3324 0.07707 0.57875 0.0
C1536 C 0.32529 0.10121 0.57902 0.0
C1537 C 0.3209 0.0546 0.56371 0.0
C1538 C 0.25847 0.01772 0.52623 0.0
H1539 H 0.25842 0.89533 0.47268 0.0
H1540 H 0.27806 0.93545 0.4986 0.0
H1541 H 0.22242 0.98372 0.50759 0.0
H1542 H 0.30062 0.12083 0.56371 0.0
H1543 H 0.28037 0.08138 0.53723 0.0
H1544 H 0.33289 0.03111 0.52857 0.0
C1545 C 0.26232 0.9356 0.48748 0.0
C1546 C 0.24669 0.99408 0.51184 0.0
C1547 C 0.2509 0.91244 0.47274 0.0
C1548 C 0.30646 0.10248 0.56386 0.0
C1549 C 0.29475 0.07979 0.54879 0.0
C1550 C 0.30868 0.02085 0.52418 0.0
C1551 C 0.25326 0.95843 0.48796 0.0
C1552 C 0.26575 0.9835 0.50341 0.0
C1553 C 0.30191 0.05561 0.54853 0.0
C1554 C 0.28958 0.03129 0.53266 0.0
H1555 H 0.20474 0.93396 0.4478 0.0
H1556 H 0.22507 0.97461 0.47306 0.0
H1557 H 0.31253 0.99029 0.50334 0.0
H1558 H 0.34688 0.07547 0.59024 0.0
H1559 H 0.32654 0.03611 0.56415 0.0
loop_
_geom_bond_atom_site_label_1
_geom_bond_atom_site_label_2
_geom_bond_distance
_geom_bond_site_symmetry_2
_ccdc_geom_bond_type
C0 Eu1 2.835 . S
C0 C2 1.500 . S
C0 O20 1.257 . S
C0 O21 1.260 . S
Eu1 C0 2.835 . S
Eu1 O20 2.473 . S
Eu1 O21 2.480 . S
Eu1 O22 2.430 . S
Eu1 O23 2.670 . S
Eu1 O24 2.394 . S
Eu1 O29 2.355 . S
Eu1 O31 2.374 . S
C2 C0 1.500 . S
C2 C3 1.377 . S
C2 C7 1.377 . S
C3 C2 1.377 . S
C3 C4 1.395 . S
C3 H32 0.931 . S
C4 C3 1.395 . S
C4 C5 1.383 . S
C4 H33 0.931 . S
C5 C4 1.383 . S
C5 C6 1.394 . S
C6 C5 1.394 . S
C6 C7 1.378 . S
C6 H34 0.931 . S
C7 C2 1.377 . S
C7 C6 1.378 . S
C7 H35 0.931 . S
C8 O22 1.259 . S
C8 O23 1.270 . S
C9 O24 1.251 . S
C9 O25 1.251 . S
C10 Eu11 2.835 . S
C10 C12 1.500 . S
C10 O26 1.257 . S
C10 O27 1.260 . S
Eu11 C10 2.835 . S
Eu11 O23 2.355 . S
Eu11 O25 2.374 . S
Eu11 O26 2.473 . S
Eu11 O27 2.480 . S
Eu11 O28 2.430 . S
Eu11 O29 2.670 . S
Eu11 O30 2.394 . S
C12 C10 1.500 . S
C12 C13 1.377 . S
C12 C17 1.377 . S
C13 C12 1.377 . S
C13 C14 1.395 . S
C13 H36 0.931 . S
C14 C13 1.395 . S
C14 C15 1.383 . S
C14 H37 0.931 . S
C15 C14 1.383 . S
C15 C16 1.394 . S
C16 C15 1.394 . S
C16 C17 1.378 . S
C16 H38 0.931 . S
C17 C12 1.377 . S
C17 C16 1.378 . S
C17 H39 0.931 . S
C18 O28 1.259 . S
C18 O29 1.270 . S
C19 O30 1.251 . S
C19 O31 1.251 . S
O20 C0 1.257 . S
O20 Eu1 2.473 . S
O21 C0 1.260 . S
O21 Eu1 2.480 . S
O22 Eu1 2.430 . S
O22 C8 1.259 . S
O23 Eu1 2.670 . S
O23 C8 1.270 . S
O23 Eu11 2.355 . S
O24 Eu1 2.394 . S
O24 C9 1.251 . S
O25 C9 1.251 . S
O25 Eu11 2.374 . S
O26 C10 1.257 . S
O26 Eu11 2.473 . S
O27 C10 1.260 . S
O27 Eu11 2.480 . S
O28 Eu11 2.430 . S
O28 C18 1.259 . S
O29 Eu1 2.355 . S
O29 Eu11 2.670 . S
O29 C18 1.270 . S
O30 Eu11 2.394 . S
O30 C19 1.251 . S
O31 Eu1 2.374 . S
O31 C19 1.251 . S
H32 C3 0.931 . S
H33 C4 0.931 . S
H34 C6 0.931 . S
H35 C7 0.931 . S
H36 C13 0.931 . S
H37 C14 0.931 . S
H38 C16 0.931 . S
H39 C17 0.931 . S
C40 Eu41 2.835 . S
C40 C42 1.500 . S
C40 O60 1.257 . S
C40 O61 1.260 . S
Eu41 C40 2.835 . S
Eu41 O60 2.473 . S
Eu41 O61 2.480 . S
Eu41 O62 2.430 . S
Eu41 O63 2.670 . S
Eu41 O64 2.394 . S
Eu41 O69 2.355 . S
Eu41 O71 2.374 . S
C42 C40 1.500 . S
C42 C43 1.377 . S
C42 C47 1.377 . S
C43 C42 1.377 . S
C43 C44 1.395 1_655 S
C43 H72 0.931 . S
C44 C43 1.395 1_455 S
C44 C45 1.383 . S
C44 H73 0.931 . S
C45 C44 1.383 . S
C45 C46 1.394 . S
C46 C45 1.394 . S
C46 C47 1.378 1_455 S
C46 H74 0.931 . S
C47 C42 1.377 . S
C47 C46 1.378 1_655 S
C47 H75 0.931 . S
C48 O62 1.259 . S
C48 O63 1.270 . S
C49 O64 1.251 . S
C49 O65 1.251 . S
C50 Eu51 2.835 . S
C50 C52 1.500 . S
C50 O66 1.257 . S
C50 O67 1.260 . S
Eu51 C50 2.835 . S
Eu51 O63 2.355 . S
Eu51 O65 2.374 . S
Eu51 O66 2.473 . S
Eu51 O67 2.480 . S
Eu51 O68 2.430 . S
Eu51 O69 2.670 . S
Eu51 O70 2.394 . S
C52 C50 1.500 . S
C52 C53 1.377 . S
C52 C57 1.377 . S
C53 C52 1.377 . S
C53 C54 1.395 . S
C53 H76 0.931 . S
C54 C53 1.395 . S
C54 C55 1.383 . S
C54 H77 0.931 . S
C55 C54 1.383 . S
C55 C56 1.394 . S
C56 C55 1.394 . S
C56 C57 1.378 . S
C56 H78 0.931 . S
C57 C52 1.377 . S
C57 C56 1.378 . S
C57 H79 0.931 . S
C58 O68 1.259 . S
C58 O69 1.270 . S
C59 O70 1.251 . S
C59 O71 1.251 . S
O60 C40 1.257 . S
O60 Eu41 2.473 . S
O61 C40 1.260 . S
O61 Eu41 2.480 . S
O62 Eu41 2.430 . S
O62 C48 1.259 . S
O63 Eu41 2.670 . S
O63 C48 1.270 . S
O63 Eu51 2.355 . S
O64 Eu41 2.394 . S
O64 C49 1.251 . S
O65 C49 1.251 . S
O65 Eu51 2.374 . S
O66 C50 1.257 . S
O66 Eu51 2.473 . S
O67 C50 1.260 . S
O67 Eu51 2.480 . S
O68 Eu51 2.430 . S
O68 C58 1.259 . S
O69 Eu41 2.355 . S
O69 Eu51 2.670 . S
O69 C58 1.270 . S
O70 Eu51 2.394 . S
O70 C59 1.251 . S
O71 Eu41 2.374 . S
O71 C59 1.251 . S
H72 C43 0.931 . S
H73 C44 0.931 . S
H74 C46 0.931 . S
H75 C47 0.931 . S
H76 C53 0.931 . S
H77 C54 0.931 . S
H78 C56 0.931 . S
H79 C57 0.931 . S
C80 Eu81 2.835 . S
C80 C82 1.500 . S
C80 O100 1.257 . S
C80 O101 1.260 . S
Eu81 C80 2.835 . S
Eu81 O100 2.473 . S
Eu81 O101 2.480 . S
Eu81 O102 2.430 . S
Eu81 O103 2.670 . S
Eu81 O104 2.394 . S
Eu81 O109 2.355 . S
Eu81 O111 2.374 . S
C82 C80 1.500 . S
C82 C83 1.377 . S
C82 C87 1.377 . S
C83 C82 1.377 . S
C83 C84 1.395 1_565 S
C83 H112 0.931 . S
C84 C83 1.395 1_545 S
C84 C85 1.383 . S
C84 H113 0.931 . S
C85 C84 1.383 . S
C85 C86 1.394 . S
C86 C85 1.394 . S
C86 C87 1.378 1_545 S
C86 H114 0.931 . S
C87 C82 1.377 . S
C87 C86 1.378 1_565 S
C87 H115 0.931 . S
C88 O102 1.259 . S
C88 O103 1.270 . S
C89 O104 1.251 . S
C89 O105 1.251 . S
C90 Eu91 2.835 . S
C90 C92 1.500 . S
C90 O106 1.257 . S
C90 O107 1.260 . S
Eu91 C90 2.835 . S
Eu91 O103 2.355 . S
Eu91 O105 2.374 . S
Eu91 O106 2.473 . S
Eu91 O107 2.480 . S
Eu91 O108 2.430 . S
Eu91 O109 2.670 . S
Eu91 O110 2.394 . S
C92 C90 1.500 . S
C92 C93 1.377 . S
C92 C97 1.377 . S
C93 C92 1.377 . S
C93 C94 1.395 . S
C93 H116 0.931 . S
C94 C93 1.395 . S
C94 C95 1.383 . S
C94 H117 0.931 . S
C95 C94 1.383 . S
C95 C96 1.394 . S
C96 C95 1.394 . S
C96 C97 1.378 . S
C96 H118 0.931 . S
C97 C92 1.377 . S
C97 C96 1.378 . S
C97 H119 0.931 . S
C98 O108 1.259 . S
C98 O109 1.270 . S
C99 O110 1.251 . S
C99 O111 1.251 . S
O100 C80 1.257 . S
O100 Eu81 2.473 . S
O101 C80 1.260 . S
O101 Eu81 2.480 . S
O102 Eu81 2.430 . S
O102 C88 1.259 . S
O103 Eu81 2.670 . S
O103 C88 1.270 . S
O103 Eu91 2.355 . S
O104 Eu81 2.394 . S
O104 C89 1.251 . S
O105 C89 1.251 . S
O105 Eu91 2.374 . S
O106 C90 1.257 . S
O106 Eu91 2.473 . S
O107 C90 1.260 . S
O107 Eu91 2.480 . S
O108 Eu91 2.430 . S
O108 C98 1.259 . S
O109 Eu81 2.355 . S
O109 Eu91 2.670 . S
O109 C98 1.270 . S
O110 Eu91 2.394 . S
O110 C99 1.251 . S
O111 Eu81 2.374 . S
O111 C99 1.251 . S
H112 C83 0.931 . S
H113 C84 0.931 . S
H114 C86 0.931 . S
H115 C87 0.931 . S
H116 C93 0.931 . S
H117 C94 0.931 . S
H118 C96 0.931 . S
H119 C97 0.931 . S
C120 Eu121 2.835 . S
C120 C122 1.500 . S
C120 O140 1.257 . S
C120 O141 1.260 . S
Eu121 C120 2.835 . S
Eu121 O140 2.473 . S
Eu121 O141 2.480 . S
Eu121 O142 2.430 . S
Eu121 O143 2.670 . S
Eu121 O144 2.394 . S
Eu121 O149 2.355 . S
Eu121 O151 2.374 . S
C122 C120 1.500 . S
C122 C123 1.377 . S
C122 C127 1.377 . S
C123 C122 1.377 . S
C123 C124 1.395 . S
C123 H152 0.931 . S
C124 C123 1.395 . S
C124 C125 1.383 . S
C124 H153 0.931 . S
C125 C124 1.383 . S
C125 C126 1.394 . S
C126 C125 1.394 . S
C126 C127 1.378 . S
C126 H154 0.931 . S
C127 C122 1.377 . S
C127 C126 1.378 . S
C127 H155 0.931 . S
C128 O142 1.259 . S
C128 O143 1.270 . S
C129 O144 1.251 . S
C129 O145 1.251 . S
C130 Eu131 2.835 . S
C130 C132 1.500 . S
C130 O146 1.257 . S
C130 O147 1.260 . S
Eu131 C130 2.835 . S
Eu131 O143 2.355 . S
Eu131 O145 2.374 . S
Eu131 O146 2.473 . S
Eu131 O147 2.480 . S
Eu131 O148 2.430 . S
Eu131 O149 2.670 . S
Eu131 O150 2.394 . S
C132 C130 1.500 . S
C132 C133 1.377 . S
C132 C137 1.377 . S
C133 C132 1.377 . S
C133 C134 1.395 . S
C133 H156 0.931 . S
C134 C133 1.395 . S
C134 C135 1.383 . S
C134 H157 0.931 . S
C135 C134 1.383 . S
C135 C136 1.394 . S
C136 C135 1.394 . S
C136 C137 1.378 . S
C136 H158 0.931 . S
C137 C132 1.377 . S
C137 C136 1.378 . S
C137 H159 0.931 . S
C138 O148 1.259 . S
C138 O149 1.270 . S
C139 O150 1.251 . S
C139 O151 1.251 . S
O140 C120 1.257 . S
O140 Eu121 2.473 . S
O141 C120 1.260 . S
O141 Eu121 2.480 . S
O142 Eu121 2.430 . S
O142 C128 1.259 . S
O143 Eu121 2.670 . S
O143 C128 1.270 . S
O143 Eu131 2.355 . S
O144 Eu121 2.394 . S
O144 C129 1.251 . S
O145 C129 1.251 . S
O145 Eu131 2.374 . S
O146 C130 1.257 . S
O146 Eu131 2.473 . S
O147 C130 1.260 . S
O147 Eu131 2.480 . S
O148 Eu131 2.430 . S
O148 C138 1.259 . S
O149 Eu121 2.355 . S
O149 Eu131 2.670 . S
O149 C138 1.270 . S
O150 Eu131 2.394 . S
O150 C139 1.251 . S
O151 Eu121 2.374 . S
O151 C139 1.251 . S
H152 C123 0.931 . S
H153 C124 0.931 . S
H154 C126 0.931 . S
H155 C127 0.931 . S
H156 C133 0.931 . S
H157 C134 0.931 . S
H158 C136 0.931 . S
H159 C137 0.931 . S
C160 Eu161 2.835 . S
C160 C162 1.500 . S
C160 O180 1.257 . S
C160 O181 1.260 . S
Eu161 C160 2.835 . S
Eu161 O180 2.473 . S
Eu161 O181 2.480 . S
Eu161 O182 2.430 . S
Eu161 O183 2.670 . S
Eu161 O184 2.394 . S
Eu161 O189 2.355 . S
Eu161 O191 2.374 . S
C162 C160 1.500 . S
C162 C163 1.377 . S
C162 C167 1.377 . S
C163 C162 1.377 . S
C163 C164 1.395 1_455 S
C163 H192 0.931 . S
C164 C163 1.395 1_655 S
C164 C165 1.383 . S
C164 H193 0.931 . S
C165 C164 1.383 . S
C165 C166 1.394 . S
C166 C165 1.394 . S
C166 C167 1.378 1_655 S
C166 H194 0.931 . S
C167 C162 1.377 . S
C167 C166 1.378 1_455 S
C167 H195 0.931 . S
C168 O182 1.259 . S
C168 O183 1.270 . S
C169 O184 1.251 . S
C169 O185 1.251 . S
C170 Eu171 2.835 . S
C170 C172 1.500 . S
C170 O186 1.257 . S
C170 O187 1.260 . S
Eu171 C170 2.835 . S
Eu171 O183 2.355 . S
Eu171 O185 2.374 . S
Eu171 O186 2.473 . S
Eu171 O187 2.480 . S
Eu171 O188 2.430 . S
Eu171 O189 2.670 . S
Eu171 O190 2.394 . S
C172 C170 1.500 . S
C172 C173 1.377 . S
C172 C177 1.377 . S
C173 C172 1.377 . S
C173 C174 1.395 . S
C173 H196 0.931 . S
C174 C173 1.395 . S
C174 C175 1.383 . S
C174 H197 0.931 . S
C175 C174 1.383 . S
C175 C176 1.394 . S
C176 C175 1.394 . S
C176 C177 1.378 . S
C176 H198 0.931 . S
C177 C172 1.377 . S
C177 C176 1.378 . S
C177 H199 0.931 . S
C178 O188 1.259 . S
C178 O189 1.270 . S
C179 O190 1.251 . S
C179 O191 1.251 . S
O180 C160 1.257 . S
O180 Eu161 2.473 . S
O181 C160 1.260 . S
O181 Eu161 2.480 . S
O182 Eu161 2.430 . S
O182 C168 1.259 . S
O183 Eu161 2.670 . S
O183 C168 1.270 . S
O183 Eu171 2.355 . S
O184 Eu161 2.394 . S
O184 C169 1.251 . S
O185 C169 1.251 . S
O185 Eu171 2.374 . S
O186 C170 1.257 . S
O186 Eu171 2.473 . S
O187 C170 1.260 . S
O187 Eu171 2.480 . S
O188 Eu171 2.430 . S
O188 C178 1.259 . S
O189 Eu161 2.355 . S
O189 Eu171 2.670 . S
O189 C178 1.270 . S
O190 Eu171 2.394 . S
O190 C179 1.251 . S
O191 Eu161 2.374 . S
O191 C179 1.251 . S
H192 C163 0.931 . S
H193 C164 0.931 . S
H194 C166 0.931 . S
H195 C167 0.931 . S
H196 C173 0.931 . S
H197 C174 0.931 . S
H198 C176 0.931 . S
H199 C177 0.931 . S
C200 Eu201 2.835 . S
C200 C202 1.500 . S
C200 O220 1.257 . S
C200 O221 1.260 . S
Eu201 C200 2.835 . S
Eu201 O220 2.473 . S
Eu201 O221 2.480 . S
Eu201 O222 2.430 . S
Eu201 O223 2.670 . S
Eu201 O224 2.394 . S
Eu201 O229 2.355 . S
Eu201 O231 2.374 . S
C202 C200 1.500 . S
C202 C203 1.377 . S
C202 C207 1.377 . S
C203 C202 1.377 . S
C203 C204 1.395 1_545 S
C203 H232 0.931 . S
C204 C203 1.395 1_565 S
C204 C205 1.383 . S
C204 H233 0.931 . S
C205 C204 1.383 . S
C205 C206 1.394 . S
C206 C205 1.394 . S
C206 C207 1.378 1_565 S
C206 H234 0.931 . S
C207 C202 1.377 . S
C207 C206 1.378 1_545 S
C207 H235 0.931 . S
C208 O222 1.259 . S
C208 O223 1.270 . S
C209 O224 1.251 . S
C209 O225 1.251 . S
C210 Eu211 2.835 . S
C210 C212 1.500 . S
C210 O226 1.257 . S
C210 O227 1.260 . S
Eu211 C210 2.835 . S
Eu211 O223 2.355 . S
Eu211 O225 2.374 . S
Eu211 O226 2.473 . S
Eu211 O227 2.480 . S
Eu211 O228 2.430 . S
Eu211 O229 2.670 . S
Eu211 O230 2.394 . S
C212 C210 1.500 . S
C212 C213 1.377 . S
C212 C217 1.377 . S
C213 C212 1.377 . S
C213 C214 1.395 . S
C213 H236 0.931 . S
C214 C213 1.395 . S
C214 C215 1.383 . S
C214 H237 0.931 . S
C215 C214 1.383 . S
C215 C216 1.394 . S
C216 C215 1.394 . S
C216 C217 1.378 . S
C216 H238 0.931 . S
C217 C212 1.377 . S
C217 C216 1.378 . S
C217 H239 0.931 . S
C218 O228 1.259 . S
C218 O229 1.270 . S
C219 O230 1.251 . S
C219 O231 1.251 . S
O220 C200 1.257 . S
O220 Eu201 2.473 . S
O221 C200 1.260 . S
O221 Eu201 2.480 . S
O222 Eu201 2.430 . S
O222 C208 1.259 . S
O223 Eu201 2.670 . S
O223 C208 1.270 . S
O223 Eu211 2.355 . S
O224 Eu201 2.394 . S
O224 C209 1.251 . S
O225 C209 1.251 . S
O225 Eu211 2.374 . S
O226 C210 1.257 . S
O226 Eu211 2.473 . S
O227 C210 1.260 . S
O227 Eu211 2.480 . S
O228 Eu211 2.430 . S
O228 C218 1.259 . S
O229 Eu201 2.355 . S
O229 Eu211 2.670 . S
O229 C218 1.270 . S
O230 Eu211 2.394 . S
O230 C219 1.251 . S
O231 Eu201 2.374 . S
O231 C219 1.251 . S
H232 C203 0.931 . S
H233 C204 0.931 . S
H234 C206 0.931 . S
H235 C207 0.931 . S
H236 C213 0.931 . S
H237 C214 0.931 . S
H238 C216 0.931 . S
H239 C217 0.931 . S
C240 Eu241 2.835 . S
C240 C242 1.500 . S
C240 O260 1.257 . S
C240 O261 1.260 . S
Eu241 C240 2.835 . S
Eu241 O260 2.473 . S
Eu241 O261 2.480 . S
Eu241 O262 2.430 . S
Eu241 O263 2.670 . S
Eu241 O264 2.394 . S
Eu241 O269 2.355 . S
Eu241 O271 2.374 . S
C242 C240 1.500 . S
C242 C243 1.377 . S
C242 C247 1.377 . S
C243 C242 1.377 . S
C243 C244 1.395 . S
C243 H272 0.931 . S
C244 C243 1.395 . S
C244 C245 1.383 . S
C244 H273 0.931 . S
C245 C244 1.383 . S
C245 C246 1.394 . S
C246 C245 1.394 . S
C246 C247 1.378 . S
C246 H274 0.931 . S
C247 C242 1.377 . S
C247 C246 1.378 . S
C247 H275 0.931 . S
C248 O262 1.259 . S
C248 O263 1.270 . S
C249 O264 1.251 . S
C249 O265 1.251 . S
C250 Eu251 2.835 . S
C250 C252 1.500 . S
C250 O266 1.257 . S
C250 O267 1.260 . S
Eu251 C250 2.835 . S
Eu251 O263 2.355 . S
Eu251 O265 2.374 . S
Eu251 O266 2.473 . S
Eu251 O267 2.480 . S
Eu251 O268 2.430 . S
Eu251 O269 2.670 . S
Eu251 O270 2.394 . S
C252 C250 1.500 . S
C252 C253 1.377 . S
C252 C257 1.377 . S
C253 C252 1.377 . S
C253 C254 1.395 . S
C253 H276 0.931 . S
C254 C253 1.395 . S
C254 C255 1.383 . S
C254 H277 0.931 . S
C255 C254 1.383 . S
C255 C256 1.394 . S
C256 C255 1.394 . S
C256 C257 1.378 . S
C256 H278 0.931 . S
C257 C252 1.377 . S
C257 C256 1.378 . S
C257 H279 0.931 . S
C258 O268 1.259 . S
C258 O269 1.270 . S
C259 O270 1.251 . S
C259 O271 1.251 . S
O260 C240 1.257 . S
O260 Eu241 2.473 . S
O261 C240 1.260 . S
O261 Eu241 2.480 . S
O262 Eu241 2.430 . S
O262 C248 1.259 . S
O263 Eu241 2.670 . S
O263 C248 1.270 . S
O263 Eu251 2.355 . S
O264 Eu241 2.394 . S
O264 C249 1.251 . S
O265 C249 1.251 . S
O265 Eu251 2.374 . S
O266 C250 1.257 . S
O266 Eu251 2.473 . S
O267 C250 1.260 . S
O267 Eu251 2.480 . S
O268 Eu251 2.430 . S
O268 C258 1.259 . S
O269 Eu241 2.355 . S
O269 Eu251 2.670 . S
O269 C258 1.270 . S
O270 Eu251 2.394 . S
O270 C259 1.251 . S
O271 Eu241 2.374 . S
O271 C259 1.251 . S
H272 C243 0.931 . S
H273 C244 0.931 . S
H274 C246 0.931 . S
H275 C247 0.931 . S
H276 C253 0.931 . S
H277 C254 0.931 . S
H278 C256 0.931 . S
H279 C257 0.931 . S
C280 Eu281 2.835 . S
C280 C282 1.500 . S
C280 O300 1.257 . S
C280 O301 1.260 . S
Eu281 C280 2.835 . S
Eu281 O300 2.473 . S
Eu281 O301 2.480 . S
Eu281 O302 2.430 . S
Eu281 O303 2.670 . S
Eu281 O304 2.394 . S
Eu281 O309 2.355 . S
Eu281 O311 2.374 . S
C282 C280 1.500 . S
C282 C283 1.377 . S
C282 C287 1.377 . S
C283 C282 1.377 . S
C283 C284 1.395 1_655 S
C283 H312 0.931 . S
C284 C283 1.395 1_455 S
C284 C285 1.383 . S
C284 H313 0.931 . S
C285 C284 1.383 . S
C285 C286 1.394 . S
C286 C285 1.394 . S
C286 C287 1.378 1_455 S
C286 H314 0.931 . S
C287 C282 1.377 . S
C287 C286 1.378 1_655 S
C287 H315 0.931 . S
C288 O302 1.259 . S
C288 O303 1.270 . S
C289 O304 1.251 . S
C289 O305 1.251 . S
C290 Eu291 2.835 . S
C290 C292 1.500 . S
C290 O306 1.257 . S
C290 O307 1.260 . S
Eu291 C290 2.835 . S
Eu291 O303 2.355 . S
Eu291 O305 2.374 . S
Eu291 O306 2.473 . S
Eu291 O307 2.480 . S
Eu291 O308 2.430 . S
Eu291 O309 2.670 . S
Eu291 O310 2.394 . S
C292 C290 1.500 . S
C292 C293 1.377 . S
C292 C297 1.377 . S
C293 C292 1.377 . S
C293 C294 1.395 . S
C293 H316 0.931 . S
C294 C293 1.395 . S
C294 C295 1.383 . S
C294 H317 0.931 . S
C295 C294 1.383 . S
C295 C296 1.394 . S
C296 C295 1.394 . S
C296 C297 1.378 . S
C296 H318 0.931 . S
C297 C292 1.377 . S
C297 C296 1.378 . S
C297 H319 0.931 . S
C298 O308 1.259 . S
C298 O309 1.270 . S
C299 O310 1.251 . S
C299 O311 1.251 . S
O300 C280 1.257 . S
O300 Eu281 2.473 . S
O301 C280 1.260 . S
O301 Eu281 2.480 . S
O302 Eu281 2.430 . S
O302 C288 1.259 . S
O303 Eu281 2.670 . S
O303 C288 1.270 . S
O303 Eu291 2.355 . S
O304 Eu281 2.394 . S
O304 C289 1.251 . S
O305 C289 1.251 . S
O305 Eu291 2.374 . S
O306 C290 1.257 . S
O306 Eu291 2.473 . S
O307 C290 1.260 . S
O307 Eu291 2.480 . S
O308 Eu291 2.430 . S
O308 C298 1.259 . S
O309 Eu281 2.355 . S
O309 Eu291 2.670 . S
O309 C298 1.270 . S
O310 Eu291 2.394 . S
O310 C299 1.251 . S
O311 Eu281 2.374 . S
O311 C299 1.251 . S
H312 C283 0.931 . S
H313 C284 0.931 . S
H314 C286 0.931 . S
H315 C287 0.931 . S
H316 C293 0.931 . S
H317 C294 0.931 . S
H318 C296 0.931 . S
H319 C297 0.931 . S
C320 Eu321 2.835 . S
C320 C322 1.500 . S
C320 O340 1.257 . S
C320 O341 1.260 . S
Eu321 C320 2.835 . S
Eu321 O340 2.473 . S
Eu321 O341 2.480 . S
Eu321 O342 2.430 . S
Eu321 O343 2.670 . S
Eu321 O344 2.394 . S
Eu321 O349 2.355 . S
Eu321 O351 2.374 . S
C322 C320 1.500 . S
C322 C323 1.377 . S
C322 C327 1.377 . S
C323 C322 1.377 . S
C323 C324 1.395 1_565 S
C323 H352 0.931 . S
C324 C323 1.395 1_545 S
C324 C325 1.383 . S
C324 H353 0.931 . S
C325 C324 1.383 . S
C325 C326 1.394 . S
C326 C325 1.394 . S
C326 C327 1.378 1_545 S
C326 H354 0.931 . S
C327 C322 1.377 . S
C327 C326 1.378 1_565 S
C327 H355 0.931 . S
C328 O342 1.259 . S
C328 O343 1.270 . S
C329 O344 1.251 . S
C329 O345 1.251 . S
C330 Eu331 2.835 . S
C330 C332 1.500 . S
C330 O346 1.257 . S
C330 O347 1.260 . S
Eu331 C330 2.835 . S
Eu331 O343 2.355 . S
Eu331 O345 2.374 . S
Eu331 O346 2.473 . S
Eu331 O347 2.480 . S
Eu331 O348 2.430 . S
Eu331 O349 2.670 . S
Eu331 O350 2.394 . S
C332 C330 1.500 . S
C332 C333 1.377 . S
C332 C337 1.377 . S
C333 C332 1.377 . S
C333 C334 1.395 . S
C333 H356 0.931 . S
C334 C333 1.395 . S
C334 C335 1.383 . S
C334 H357 0.931 . S
C335 C334 1.383 . S
C335 C336 1.394 . S
C336 C335 1.394 . S
C336 C337 1.378 . S
C336 H358 0.931 . S
C337 C332 1.377 . S
C337 C336 1.378 . S
C337 H359 0.931 . S
C338 O348 1.259 . S
C338 O349 1.270 . S
C339 O350 1.251 . S
C339 O351 1.251 . S
O340 C320 1.257 . S
O340 Eu321 2.473 . S
O341 C320 1.260 . S
O341 Eu321 2.480 . S
O342 Eu321 2.430 . S
O342 C328 1.259 . S
O343 Eu321 2.670 . S
O343 C328 1.270 . S
O343 Eu331 2.355 . S
O344 Eu321 2.394 . S
O344 C329 1.251 . S
O345 C329 1.251 . S
O345 Eu331 2.374 . S
O346 C330 1.257 . S
O346 Eu331 2.473 . S
O347 C330 1.260 . S
O347 Eu331 2.480 . S
O348 Eu331 2.430 . S
O348 C338 1.259 . S
O349 Eu321 2.355 . S
O349 Eu331 2.670 . S
O349 C338 1.270 . S
O350 Eu331 2.394 . S
O350 C339 1.251 . S
O351 Eu321 2.374 . S
O351 C339 1.251 . S
H352 C323 0.931 . S
H353 C324 0.931 . S
H354 C326 0.931 . S
H355 C327 0.931 . S
H356 C333 0.931 . S
H357 C334 0.931 . S
H358 C336 0.931 . S
H359 C337 0.931 . S
C360 Eu361 2.835 . S
C360 C362 1.500 . S
C360 O380 1.257 . S
C360 O381 1.260 . S
Eu361 C360 2.835 . S
Eu361 O380 2.473 . S
Eu361 O381 2.480 . S
Eu361 O382 2.430 . S
Eu361 O383 2.670 . S
Eu361 O384 2.394 . S
Eu361 O389 2.355 . S
Eu361 O391 2.374 . S
C362 C360 1.500 . S
C362 C363 1.377 . S
C362 C367 1.377 . S
C363 C362 1.377 . S
C363 C364 1.395 . S
C363 H392 0.931 . S
C364 C363 1.395 . S
C364 C365 1.383 . S
C364 H393 0.931 . S
C365 C364 1.383 . S
C365 C366 1.394 . S
C366 C365 1.394 . S
C366 C367 1.378 . S
C366 H394 0.931 . S
C367 C362 1.377 . S
C367 C366 1.378 . S
C367 H395 0.931 . S
C368 O382 1.259 . S
C368 O383 1.270 . S
C369 O384 1.251 . S
C369 O385 1.251 . S
C370 Eu371 2.835 . S
C370 C372 1.500 . S
C370 O386 1.257 . S
C370 O387 1.260 . S
Eu371 C370 2.835 . S
Eu371 O383 2.355 . S
Eu371 O385 2.374 . S
Eu371 O386 2.473 . S
Eu371 O387 2.480 . S
Eu371 O388 2.430 . S
Eu371 O389 2.670 . S
Eu371 O390 2.394 . S
C372 C370 1.500 . S
C372 C373 1.377 . S
C372 C377 1.377 . S
C373 C372 1.377 . S
C373 C374 1.395 . S
C373 H396 0.931 . S
C374 C373 1.395 . S
C374 C375 1.383 . S
C374 H397 0.931 . S
C375 C374 1.383 . S
C375 C376 1.394 . S
C376 C375 1.394 . S
C376 C377 1.378 . S
C376 H398 0.931 . S
C377 C372 1.377 . S
C377 C376 1.378 . S
C377 H399 0.931 . S
C378 O388 1.259 . S
C378 O389 1.270 . S
C379 O390 1.251 . S
C379 O391 1.251 . S
O380 C360 1.257 . S
O380 Eu361 2.473 . S
O381 C360 1.260 . S
O381 Eu361 2.480 . S
O382 Eu361 2.430 . S
O382 C368 1.259 . S
O383 Eu361 2.670 . S
O383 C368 1.270 . S
O383 Eu371 2.355 . S
O384 Eu361 2.394 . S
O384 C369 1.251 . S
O385 C369 1.251 . S
O385 Eu371 2.374 . S
O386 C370 1.257 . S
O386 Eu371 2.473 . S
O387 C370 1.260 . S
O387 Eu371 2.480 . S
O388 Eu371 2.430 . S
O388 C378 1.259 . S
O389 Eu361 2.355 . S
O389 Eu371 2.670 . S
O389 C378 1.270 . S
O390 Eu371 2.394 . S
O390 C379 1.251 . S
O391 Eu361 2.374 . S
O391 C379 1.251 . S
H392 C363 0.931 . S
H393 C364 0.931 . S
H394 C366 0.931 . S
H395 C367 0.931 . S
H396 C373 0.931 . S
H397 C374 0.931 . S
H398 C376 0.931 . S
H399 C377 0.931 . S
C400 Eu401 2.835 . S
C400 C402 1.500 . S
C400 O420 1.257 . S
C400 O421 1.260 . S
Eu401 C400 2.835 . S
Eu401 O420 2.473 . S
Eu401 O421 2.480 . S
Eu401 O422 2.430 . S
Eu401 O423 2.670 . S
Eu401 O424 2.394 . S
Eu401 O429 2.355 . S
Eu401 O431 2.374 . S
C402 C400 1.500 . S
C402 C403 1.377 . S
C402 C407 1.377 . S
C403 C402 1.377 . S
C403 C404 1.395 1_455 S
C403 H432 0.931 . S
C404 C403 1.395 1_655 S
C404 C405 1.383 . S
C404 H433 0.931 . S
C405 C404 1.383 . S
C405 C406 1.394 . S
C406 C405 1.394 . S
C406 C407 1.378 1_655 S
C406 H434 0.931 . S
C407 C402 1.377 . S
C407 C406 1.378 1_455 S
C407 H435 0.931 . S
C408 O422 1.259 . S
C408 O423 1.270 . S
C409 O424 1.251 . S
C409 O425 1.251 . S
C410 Eu411 2.835 . S
C410 C412 1.500 . S
C410 O426 1.257 . S
C410 O427 1.260 . S
Eu411 C410 2.835 . S
Eu411 O423 2.355 . S
Eu411 O425 2.374 . S
Eu411 O426 2.473 . S
Eu411 O427 2.480 . S
Eu411 O428 2.430 . S
Eu411 O429 2.670 . S
Eu411 O430 2.394 . S
C412 C410 1.500 . S
C412 C413 1.377 . S
C412 C417 1.377 . S
C413 C412 1.377 . S
C413 C414 1.395 . S
C413 H436 0.931 . S
C414 C413 1.395 . S
C414 C415 1.383 . S
C414 H437 0.931 . S
C415 C414 1.383 . S
C415 C416 1.394 . S
C416 C415 1.394 . S
C416 C417 1.378 . S
C416 H438 0.931 . S
C417 C412 1.377 . S
C417 C416 1.378 . S
C417 H439 0.931 . S
C418 O428 1.259 . S
C418 O429 1.270 . S
C419 O430 1.251 . S
C419 O431 1.251 . S
O420 C400 1.257 . S
O420 Eu401 2.473 . S
O421 C400 1.260 . S
O421 Eu401 2.480 . S
O422 Eu401 2.430 . S
O422 C408 1.259 . S
O423 Eu401 2.670 . S
O423 C408 1.270 . S
O423 Eu411 2.355 . S
O424 Eu401 2.394 . S
O424 C409 1.251 . S
O425 C409 1.251 . S
O425 Eu411 2.374 . S
O426 C410 1.257 . S
O426 Eu411 2.473 . S
O427 C410 1.260 . S
O427 Eu411 2.480 . S
O428 Eu411 2.430 . S
O428 C418 1.259 . S
O429 Eu401 2.355 . S
O429 Eu411 2.670 . S
O429 C418 1.270 . S
O430 Eu411 2.394 . S
O430 C419 1.251 . S
O431 Eu401 2.374 . S
O431 C419 1.251 . S
H432 C403 0.931 . S
H433 C404 0.931 . S
H434 C406 0.931 . S
H435 C407 0.931 . S
H436 C413 0.931 . S
H437 C414 0.931 . S
H438 C416 0.931 . S
H439 C417 0.931 . S
C440 Eu441 2.835 . S
C440 C442 1.500 . S
C440 O460 1.257 . S
C440 O461 1.260 . S
Eu441 C440 2.835 . S
Eu441 O460 2.473 . S
Eu441 O461 2.480 . S
Eu441 O462 2.430 . S
Eu441 O463 2.670 . S
Eu441 O464 2.394 . S
Eu441 O469 2.355 . S
Eu441 O471 2.374 . S
C442 C440 1.500 . S
C442 C443 1.377 . S
C442 C447 1.377 . S
C443 C442 1.377 . S
C443 C444 1.395 1_545 S
C443 H472 0.931 . S
C444 C443 1.395 1_565 S
C444 C445 1.383 . S
C444 H473 0.931 . S
C445 C444 1.383 . S
C445 C446 1.394 . S
C446 C445 1.394 . S
C446 C447 1.378 1_565 S
C446 H474 0.931 . S
C447 C442 1.377 . S
C447 C446 1.378 1_545 S
C447 H475 0.931 . S
C448 O462 1.259 . S
C448 O463 1.270 . S
C449 O464 1.251 . S
C449 O465 1.251 . S
C450 Eu451 2.835 . S
C450 C452 1.500 . S
C450 O466 1.257 . S
C450 O467 1.260 . S
Eu451 C450 2.835 . S
Eu451 O463 2.355 . S
Eu451 O465 2.374 . S
Eu451 O466 2.473 . S
Eu451 O467 2.480 . S
Eu451 O468 2.430 . S
Eu451 O469 2.670 . S
Eu451 O470 2.394 . S
C452 C450 1.500 . S
C452 C453 1.377 . S
C452 C457 1.377 . S
C453 C452 1.377 . S
C453 C454 1.395 . S
C453 H476 0.931 . S
C454 C453 1.395 . S
C454 C455 1.383 . S
C454 H477 0.931 . S
C455 C454 1.383 . S
C455 C456 1.394 . S
C456 C455 1.394 . S
C456 C457 1.378 . S
C456 H478 0.931 . S
C457 C452 1.377 . S
C457 C456 1.378 . S
C457 H479 0.931 . S
C458 O468 1.259 . S
C458 O469 1.270 . S
C459 O470 1.251 . S
C459 O471 1.251 . S
O460 C440 1.257 . S
O460 Eu441 2.473 . S
O461 C440 1.260 . S
O461 Eu441 2.480 . S
O462 Eu441 2.430 . S
O462 C448 1.259 . S
O463 Eu441 2.670 . S
O463 C448 1.270 . S
O463 Eu451 2.355 . S
O464 Eu441 2.394 . S
O464 C449 1.251 . S
O465 C449 1.251 . S
O465 Eu451 2.374 . S
O466 C450 1.257 . S
O466 Eu451 2.473 . S
O467 C450 1.260 . S
O467 Eu451 2.480 . S
O468 Eu451 2.430 . S
O468 C458 1.259 . S
O469 Eu441 2.355 . S
O469 Eu451 2.670 . S
O469 C458 1.270 . S
O470 Eu451 2.394 . S
O470 C459 1.251 . S
O471 Eu441 2.374 . S
O471 C459 1.251 . S
H472 C443 0.931 . S
H473 C444 0.931 . S
H474 C446 0.931 . S
H475 C447 0.931 . S
H476 C453 0.931 . S
H477 C454 0.931 . S
H478 C456 0.931 . S
H479 C457 0.931 . S
C480 C481 1.349 . S
C480 C482 1.327 . S
C480 H505 0.950 . S
C481 C480 1.349 . S
C481 C497 1.349 . S
C482 C480 1.327 . S
C482 C501 1.429 . S
C482 H506 0.950 . S
C483 C500 1.574 1_565 S
C483 C502 1.368 . S
C483 H507 0.949 . S
H484 C488 0.949 . S
C485 C486 1.349 . S
C485 C487 1.327 . S
C485 H508 0.950 . S
C486 C485 1.349 . S
C486 C498 1.349 . S
C487 C485 1.327 . S
C487 C503 1.429 . S
C487 H509 0.950 . S
C488 H484 0.949 . S
C488 C496 1.574 1_545 S
C488 C504 1.368 . S
H489 C497 0.950 . S
H490 C495 0.950 . S
H491 C496 0.949 . S
H492 C498 0.950 . S
H493 C499 0.950 . S
H494 C500 0.949 . S
C495 H490 0.950 . S
C495 C497 1.327 . S
C495 C501 1.429 . S
C496 C488 1.574 1_565 S
C496 H491 0.949 . S
C496 C502 1.368 . S
C497 C481 1.349 . S
C497 H489 0.950 . S
C497 C495 1.327 . S
C498 C486 1.349 . S
C498 H492 0.950 . S
C498 C499 1.327 . S
C499 H493 0.950 . S
C499 C498 1.327 . S
C499 C503 1.429 . S
C500 C483 1.574 1_545 S
C500 H494 0.949 . S
C500 C504 1.368 . S
C501 C482 1.429 . S
C501 C495 1.429 . S
C501 C502 1.523 . S
C502 C483 1.368 . S
C502 C496 1.368 . S
C502 C501 1.523 . S
C503 C487 1.429 . S
C503 C499 1.429 . S
C503 C504 1.523 . S
C504 C488 1.368 . S
C504 C500 1.368 . S
C504 C503 1.523 . S
H505 C480 0.950 . S
H506 C482 0.950 . S
H507 C483 0.949 . S
H508 C485 0.950 . S
H509 C487 0.950 . S
C510 C511 1.349 . S
C510 C512 1.327 . S
C510 H535 0.950 . S
C511 C510 1.349 . S
C511 C527 1.349 . S
C512 C510 1.327 . S
C512 C531 1.429 . S
C512 H536 0.950 . S
C513 C530 1.574 . S
C513 C532 1.368 . S
C513 H537 0.949 . S
H514 C518 0.949 . S
C515 C516 1.349 . S
C515 C517 1.327 . S
C515 H538 0.950 . S
C516 C515 1.349 . S
C516 C528 1.349 . S
C517 C515 1.327 . S
C517 C533 1.429 . S
C517 H539 0.950 . S
C518 H514 0.949 . S
C518 C526 1.574 . S
C518 C534 1.368 . S
H519 C527 0.950 . S
H520 C525 0.950 . S
H521 C526 0.949 . S
H522 C528 0.950 . S
H523 C529 0.950 . S
H524 C530 0.949 . S
C525 H520 0.950 . S
C525 C527 1.327 . S
C525 C531 1.429 . S
C526 C518 1.574 . S
C526 H521 0.949 . S
C526 C532 1.368 . S
C527 C511 1.349 . S
C527 H519 0.950 . S
C527 C525 1.327 . S
C528 C516 1.349 . S
C528 H522 0.950 . S
C528 C529 1.327 . S
C529 H523 0.950 . S
C529 C528 1.327 . S
C529 C533 1.429 . S
C530 C513 1.574 . S
C530 H524 0.949 . S
C530 C534 1.368 . S
C531 C512 1.429 . S
C531 C525 1.429 . S
C531 C532 1.523 . S
C532 C513 1.368 . S
C532 C526 1.368 . S
C532 C531 1.523 . S
C533 C517 1.429 . S
C533 C529 1.429 . S
C533 C534 1.523 . S
C534 C518 1.368 . S
C534 C530 1.368 . S
C534 C533 1.523 . S
H535 C510 0.950 . S
H536 C512 0.950 . S
H537 C513 0.949 . S
H538 C515 0.950 . S
H539 C517 0.950 . S
C540 C541 1.349 . S
C540 C542 1.327 . S
C540 H565 0.950 . S
C541 C540 1.349 . S
C541 C557 1.349 . S
C542 C540 1.327 . S
C542 C561 1.429 . S
C542 H566 0.950 . S
C543 C560 1.574 1_655 S
C543 C562 1.368 . S
C543 H567 0.949 . S
H544 C548 0.949 . S
C545 C546 1.349 . S
C545 C547 1.327 . S
C545 H568 0.950 . S
C546 C545 1.349 . S
C546 C558 1.349 . S
C547 C545 1.327 . S
C547 C563 1.429 . S
C547 H569 0.950 . S
C548 H544 0.949 . S
C548 C556 1.574 1_455 S
C548 C564 1.368 . S
H549 C557 0.950 . S
H550 C555 0.950 . S
H551 C556 0.949 . S
H552 C558 0.950 . S
H553 C559 0.950 . S
H554 C560 0.949 . S
C555 H550 0.950 . S
C555 C557 1.327 . S
C555 C561 1.429 . S
C556 C548 1.574 1_655 S
C556 H551 0.949 . S
C556 C562 1.368 . S
C557 C541 1.349 . S
C557 H549 0.950 . S
C557 C555 1.327 . S
C558 C546 1.349 . S
C558 H552 0.950 . S
C558 C559 1.327 . S
C559 H553 0.950 . S
C559 C558 1.327 . S
C559 C563 1.429 . S
C560 C543 1.574 1_455 S
C560 H554 0.949 . S
C560 C564 1.368 . S
C561 C542 1.429 . S
C561 C555 1.429 . S
C561 C562 1.523 . S
C562 C543 1.368 . S
C562 C556 1.368 . S
C562 C561 1.523 . S
C563 C547 1.429 . S
C563 C559 1.429 . S
C563 C564 1.523 . S
C564 C548 1.368 . S
C564 C560 1.368 . S
C564 C563 1.523 . S
H565 C540 0.950 . S
H566 C542 0.950 . S
H567 C543 0.949 . S
H568 C545 0.950 . S
H569 C547 0.950 . S
C570 C571 1.349 . S
C570 C572 1.327 . S
C570 H595 0.950 . S
C571 C570 1.349 . S
C571 C587 1.349 . S
C572 C570 1.327 . S
C572 C591 1.429 . S
C572 H596 0.950 . S
C573 C590 1.574 1_565 S
C573 C592 1.368 . S
C573 H597 0.949 . S
H574 C578 0.949 . S
C575 C576 1.349 . S
C575 C577 1.327 . S
C575 H598 0.950 . S
C576 C575 1.349 . S
C576 C588 1.349 . S
C577 C575 1.327 . S
C577 C593 1.429 . S
C577 H599 0.950 . S
C578 H574 0.949 . S
C578 C586 1.574 1_545 S
C578 C594 1.368 . S
H579 C587 0.950 . S
H580 C585 0.950 . S
H581 C586 0.949 . S
H582 C588 0.950 . S
H583 C589 0.950 . S
H584 C590 0.949 . S
C585 H580 0.950 . S
C585 C587 1.327 . S
C585 C591 1.429 . S
C586 C578 1.574 1_565 S
C586 H581 0.949 . S
C586 C592 1.368 . S
C587 C571 1.349 . S
C587 H579 0.950 . S
C587 C585 1.327 . S
C588 C576 1.349 . S
C588 H582 0.950 . S
C588 C589 1.327 . S
C589 H583 0.950 . S
C589 C588 1.327 . S
C589 C593 1.429 . S
C590 C573 1.574 1_545 S
C590 H584 0.949 . S
C590 C594 1.368 . S
C591 C572 1.429 . S
C591 C585 1.429 . S
C591 C592 1.523 . S
C592 C573 1.368 . S
C592 C586 1.368 . S
C592 C591 1.523 . S
C593 C577 1.429 . S
C593 C589 1.429 . S
C593 C594 1.523 . S
C594 C578 1.368 . S
C594 C590 1.368 . S
C594 C593 1.523 . S
H595 C570 0.950 . S
H596 C572 0.950 . S
H597 C573 0.949 . S
H598 C575 0.950 . S
H599 C577 0.950 . S
C600 C601 1.349 . S
C600 C602 1.327 . S
C600 H625 0.950 . S
C601 C600 1.349 . S
C601 C617 1.349 . S
C602 C600 1.327 . S
C602 C621 1.429 . S
C602 H626 0.950 . S
C603 C620 1.574 . S
C603 C622 1.368 . S
C603 H627 0.949 . S
H604 C608 0.949 . S
C605 C606 1.349 . S
C605 C607 1.327 . S
C605 H628 0.950 . S
C606 C605 1.349 . S
C606 C618 1.349 . S
C607 C605 1.327 . S
C607 C623 1.429 . S
C607 H629 0.950 . S
C608 H604 0.949 . S
C608 C616 1.574 . S
C608 C624 1.368 . S
H609 C617 0.950 . S
H610 C615 0.950 . S
H611 C616 0.949 . S
H612 C618 0.950 . S
H613 C619 0.950 . S
H614 C620 0.949 . S
C615 H610 0.950 . S
C615 C617 1.327 . S
C615 C621 1.429 . S
C616 C608 1.574 . S
C616 H611 0.949 . S
C616 C622 1.368 . S
C617 C601 1.349 . S
C617 H609 0.950 . S
C617 C615 1.327 . S
C618 C606 1.349 . S
C618 H612 0.950 . S
C618 C619 1.327 . S
C619 H613 0.950 . S
C619 C618 1.327 . S
C619 C623 1.429 . S
C620 C603 1.574 . S
C620 H614 0.949 . S
C620 C624 1.368 . S
C621 C602 1.429 . S
C621 C615 1.429 . S
C621 C622 1.523 . S
C622 C603 1.368 . S
C622 C616 1.368 . S
C622 C621 1.523 . S
C623 C607 1.429 . S
C623 C619 1.429 . S
C623 C624 1.523 . S
C624 C608 1.368 . S
C624 C620 1.368 . S
C624 C623 1.523 . S
H625 C600 0.950 . S
H626 C602 0.950 . S
H627 C603 0.949 . S
H628 C605 0.950 . S
H629 C607 0.950 . S
C630 C631 1.349 . S
C630 C632 1.327 . S
C630 H655 0.950 . S
C631 C630 1.349 . S
C631 C647 1.349 . S
C632 C630 1.327 . S
C632 C651 1.429 . S
C632 H656 0.950 . S
C633 C650 1.574 1_655 S
C633 C652 1.368 . S
C633 H657 0.949 . S
H634 C638 0.949 . S
C635 C636 1.349 . S
C635 C637 1.327 . S
C635 H658 0.950 . S
C636 C635 1.349 . S
C636 C648 1.349 . S
C637 C635 1.327 . S
C637 C653 1.429 . S
C637 H659 0.950 . S
C638 H634 0.949 . S
C638 C646 1.574 1_455 S
C638 C654 1.368 . S
H639 C647 0.950 . S
H640 C645 0.950 . S
H641 C646 0.949 . S
H642 C648 0.950 . S
H643 C649 0.950 . S
H644 C650 0.949 . S
C645 H640 0.950 . S
C645 C647 1.327 . S
C645 C651 1.429 . S
C646 C638 1.574 1_655 S
C646 H641 0.949 . S
C646 C652 1.368 . S
C647 C631 1.349 . S
C647 H639 0.950 . S
C647 C645 1.327 . S
C648 C636 1.349 . S
C648 H642 0.950 . S
C648 C649 1.327 . S
C649 H643 0.950 . S
C649 C648 1.327 . S
C649 C653 1.429 . S
C650 C633 1.574 1_455 S
C650 H644 0.949 . S
C650 C654 1.368 . S
C651 C632 1.429 . S
C651 C645 1.429 . S
C651 C652 1.523 . S
C652 C633 1.368 . S
C652 C646 1.368 . S
C652 C651 1.523 . S
C653 C637 1.429 . S
C653 C649 1.429 . S
C653 C654 1.523 . S
C654 C638 1.368 . S
C654 C650 1.368 . S
C654 C653 1.523 . S
H655 C630 0.950 . S
H656 C632 0.950 . S
H657 C633 0.949 . S
H658 C635 0.950 . S
H659 C637 0.950 . S
C660 C661 1.349 . S
C660 C662 1.327 . S
C660 H685 0.950 . S
C661 C660 1.349 . S
C661 C677 1.349 . S
C662 C660 1.327 . S
C662 C681 1.429 . S
C662 H686 0.950 . S
C663 C680 1.574 1_455 S
C663 C682 1.368 . S
C663 H687 0.949 . S
H664 C668 0.949 . S
C665 C666 1.349 . S
C665 C667 1.327 . S
C665 H688 0.950 . S
C666 C665 1.349 . S
C666 C678 1.349 . S
C667 C665 1.327 . S
C667 C683 1.429 . S
C667 H689 0.950 . S
C668 H664 0.949 . S
C668 C676 1.574 1_655 S
C668 C684 1.368 . S
H669 C677 0.950 . S
H670 C675 0.950 . S
H671 C676 0.949 . S
H672 C678 0.950 . S
H673 C679 0.950 . S
H674 C680 0.949 . S
C675 H670 0.950 . S
C675 C677 1.327 . S
C675 C681 1.429 . S
C676 C668 1.574 1_455 S
C676 H671 0.949 . S
C676 C682 1.368 . S
C677 C661 1.349 . S
C677 H669 0.950 . S
C677 C675 1.327 . S
C678 C666 1.349 . S
C678 H672 0.950 . S
C678 C679 1.327 . S
C679 H673 0.950 . S
C679 C678 1.327 . S
C679 C683 1.429 . S
C680 C663 1.574 1_655 S
C680 H674 0.949 . S
C680 C684 1.368 . S
C681 C662 1.429 . S
C681 C675 1.429 . S
C681 C682 1.523 . S
C682 C663 1.368 . S
C682 C676 1.368 . S
C682 C681 1.523 . S
C683 C667 1.429 . S
C683 C679 1.429 . S
C683 C684 1.523 . S
C684 C668 1.368 . S
C684 C680 1.368 . S
C684 C683 1.523 . S
H685 C660 0.950 . S
H686 C662 0.950 . S
H687 C663 0.949 . S
H688 C665 0.950 . S
H689 C667 0.950 . S
C690 C691 1.349 . S
C690 C692 1.327 . S
C690 H715 0.950 . S
C691 C690 1.349 . S
C691 C707 1.349 . S
C692 C690 1.327 . S
C692 C711 1.429 . S
C692 H716 0.950 . S
C693 C710 1.574 1_565 S
C693 C712 1.368 . S
C693 H717 0.949 . S
H694 C698 0.949 . S
C695 C696 1.349 . S
C695 C697 1.327 . S
C695 H718 0.950 . S
C696 C695 1.349 . S
C696 C708 1.349 . S
C697 C695 1.327 . S
C697 C713 1.429 . S
C697 H719 0.950 . S
C698 H694 0.949 . S
C698 C706 1.574 1_545 S
C698 C714 1.368 . S
H699 C707 0.950 . S
H700 C705 0.950 . S
H701 C706 0.949 . S
H702 C708 0.950 . S
H703 C709 0.950 . S
H704 C710 0.949 . S
C705 H700 0.950 . S
C705 C707 1.327 . S
C705 C711 1.429 . S
C706 C698 1.574 1_565 S
C706 H701 0.949 . S
C706 C712 1.368 . S
C707 C691 1.349 . S
C707 H699 0.950 . S
C707 C705 1.327 . S
C708 C696 1.349 . S
C708 H702 0.950 . S
C708 C709 1.327 . S
C709 H703 0.950 . S
C709 C708 1.327 . S
C709 C713 1.429 . S
C710 C693 1.574 1_545 S
C710 H704 0.949 . S
C710 C714 1.368 . S
C711 C692 1.429 . S
C711 C705 1.429 . S
C711 C712 1.523 . S
C712 C693 1.368 . S
C712 C706 1.368 . S
C712 C711 1.523 . S
C713 C697 1.429 . S
C713 C709 1.429 . S
C713 C714 1.523 . S
C714 C698 1.368 . S
C714 C710 1.368 . S
C714 C713 1.523 . S
H715 C690 0.950 . S
H716 C692 0.950 . S
H717 C693 0.949 . S
H718 C695 0.950 . S
H719 C697 0.950 . S
C720 C721 1.349 . S
C720 C722 1.327 . S
C720 H745 0.950 . S
C721 C720 1.349 . S
C721 C737 1.349 . S
C722 C720 1.327 . S
C722 C741 1.429 . S
C722 H746 0.950 . S
C723 C740 1.574 . S
C723 C742 1.368 . S
C723 H747 0.949 . S
H724 C728 0.949 . S
C725 C726 1.349 . S
C725 C727 1.327 . S
C725 H748 0.950 . S
C726 C725 1.349 . S
C726 C738 1.349 . S
C727 C725 1.327 . S
C727 C743 1.429 . S
C727 H749 0.950 . S
C728 H724 0.949 . S
C728 C736 1.574 . S
C728 C744 1.368 . S
H729 C737 0.950 . S
H730 C735 0.950 . S
H731 C736 0.949 . S
H732 C738 0.950 . S
H733 C739 0.950 . S
H734 C740 0.949 . S
C735 H730 0.950 . S
C735 C737 1.327 . S
C735 C741 1.429 . S
C736 C728 1.574 . S
C736 H731 0.949 . S
C736 C742 1.368 . S
C737 C721 1.349 . S
C737 H729 0.950 . S
C737 C735 1.327 . S
C738 C726 1.349 . S
C738 H732 0.950 . S
C738 C739 1.327 . S
C739 H733 0.950 . S
C739 C738 1.327 . S
C739 C743 1.429 . S
C740 C723 1.574 . S
C740 H734 0.949 . S
C740 C744 1.368 . S
C741 C722 1.429 . S
C741 C735 1.429 . S
C741 C742 1.523 . S
C742 C723 1.368 . S
C742 C736 1.368 . S
C742 C741 1.523 . S
C743 C727 1.429 . S
C743 C739 1.429 . S
C743 C744 1.523 . S
C744 C728 1.368 . S
C744 C740 1.368 . S
C744 C743 1.523 . S
H745 C720 0.950 . S
H746 C722 0.950 . S
H747 C723 0.949 . S
H748 C725 0.950 . S
H749 C727 0.950 . S
C750 C751 1.349 . S
C750 C752 1.327 . S
C750 H775 0.950 . S
C751 C750 1.349 . S
C751 C767 1.349 . S
C752 C750 1.327 . S
C752 C771 1.429 . S
C752 H776 0.950 . S
C753 C770 1.574 1_455 S
C753 C772 1.368 . S
C753 H777 0.949 . S
H754 C758 0.949 . S
C755 C756 1.349 . S
C755 C757 1.327 . S
C755 H778 0.950 . S
C756 C755 1.349 . S
C756 C768 1.349 . S
C757 C755 1.327 . S
C757 C773 1.429 . S
C757 H779 0.950 . S
C758 H754 0.949 . S
C758 C766 1.574 1_655 S
C758 C774 1.368 . S
H759 C767 0.950 . S
H760 C765 0.950 . S
H761 C766 0.949 . S
H762 C768 0.950 . S
H763 C769 0.950 . S
H764 C770 0.949 . S
C765 H760 0.950 . S
C765 C767 1.327 . S
C765 C771 1.429 . S
C766 C758 1.574 1_455 S
C766 H761 0.949 . S
C766 C772 1.368 . S
C767 C751 1.349 . S
C767 H759 0.950 . S
C767 C765 1.327 . S
C768 C756 1.349 . S
C768 H762 0.950 . S
C768 C769 1.327 . S
C769 H763 0.950 . S
C769 C768 1.327 . S
C769 C773 1.429 . S
C770 C753 1.574 1_655 S
C770 H764 0.949 . S
C770 C774 1.368 . S
C771 C752 1.429 . S
C771 C765 1.429 . S
C771 C772 1.523 . S
C772 C753 1.368 . S
C772 C766 1.368 . S
C772 C771 1.523 . S
C773 C757 1.429 . S
C773 C769 1.429 . S
C773 C774 1.523 . S
C774 C758 1.368 . S
C774 C770 1.368 . S
C774 C773 1.523 . S
H775 C750 0.950 . S
H776 C752 0.950 . S
H777 C753 0.949 . S
H778 C755 0.950 . S
H779 C757 0.950 . S
C780 C781 1.349 . S
C780 C782 1.327 . S
C780 H805 0.950 . S
C781 C780 1.349 . S
C781 C797 1.349 . S
C782 C780 1.327 . S
C782 C801 1.429 . S
C782 H806 0.950 . S
C783 C800 1.557 1_545 S
C783 C802 1.368 . S
C783 H807 0.949 . S
H784 C788 0.949 . S
C785 C786 1.349 . S
C785 C787 1.327 . S
C785 H808 0.950 . S
C786 C785 1.349 . S
C786 C798 1.349 . S
C787 C785 1.327 . S
C787 C803 1.429 . S
C787 H809 0.950 . S
C788 H784 0.949 . S
C788 C796 1.574 1_565 S
C788 C804 1.368 . S
H789 C797 0.950 . S
H790 C795 0.950 . S
H791 C796 0.949 . S
H792 C798 0.950 . S
H793 C799 0.950 . S
H794 C800 0.945 . S
C795 H790 0.950 . S
C795 C797 1.327 . S
C795 C801 1.429 . S
C796 C788 1.574 1_545 S
C796 H791 0.949 . S
C796 C802 1.368 . S
C797 C781 1.349 . S
C797 H789 0.950 . S
C797 C795 1.327 . S
C798 C786 1.349 . S
C798 H792 0.950 . S
C798 C799 1.327 . S
C799 H793 0.950 . S
C799 C798 1.327 . S
C799 C803 1.429 . S
C800 C783 1.557 1_565 S
C800 H794 0.945 . S
C800 C804 1.389 . S
C801 C782 1.429 . S
C801 C795 1.429 . S
C801 C802 1.523 . S
C802 C783 1.368 . S
C802 C796 1.368 . S
C802 C801 1.523 . S
C803 C787 1.429 . S
C803 C799 1.429 . S
C803 C804 1.523 . S
C804 C788 1.368 . S
C804 C800 1.389 . S
C804 C803 1.523 . S
H805 C780 0.950 . S
H806 C782 0.950 . S
H807 C783 0.949 . S
H808 C785 0.950 . S
H809 C787 0.950 . S
C810 C811 1.349 . S
C810 C812 1.327 . S
C810 H835 0.950 . S
C811 C810 1.349 . S
C811 C827 1.349 . S
C812 C810 1.327 . S
C812 C831 1.429 . S
C812 H836 0.950 . S
C813 C830 1.574 . S
C813 C832 1.368 . S
C813 H837 0.949 . S
H814 C818 0.949 . S
C815 C816 1.349 . S
C815 C817 1.327 . S
C815 H838 0.950 . S
C816 C815 1.349 . S
C816 C828 1.349 . S
C817 C815 1.327 . S
C817 C833 1.429 . S
C817 H839 0.950 . S
C818 H814 0.949 . S
C818 C826 1.574 . S
C818 C834 1.368 . S
H819 C827 0.950 . S
H820 C825 0.950 . S
H821 C826 0.949 . S
H822 C828 0.950 . S
H823 C829 0.950 . S
H824 C830 0.949 . S
C825 H820 0.950 . S
C825 C827 1.327 . S
C825 C831 1.429 . S
C826 C818 1.574 . S
C826 H821 0.949 . S
C826 C832 1.368 . S
C827 C811 1.349 . S
C827 H819 0.950 . S
C827 C825 1.327 . S
C828 C816 1.349 . S
C828 H822 0.950 . S
C828 C829 1.327 . S
C829 H823 0.950 . S
C829 C828 1.327 . S
C829 C833 1.429 . S
C830 C813 1.574 . S
C830 H824 0.949 . S
C830 C834 1.368 . S
C831 C812 1.429 . S
C831 C825 1.429 . S
C831 C832 1.523 . S
C832 C813 1.368 . S
C832 C826 1.368 . S
C832 C831 1.523 . S
C833 C817 1.429 . S
C833 C829 1.429 . S
C833 C834 1.523 . S
C834 C818 1.368 . S
C834 C830 1.368 . S
C834 C833 1.523 . S
H835 C810 0.950 . S
H836 C812 0.950 . S
H837 C813 0.949 . S
H838 C815 0.950 . S
H839 C817 0.950 . S
C840 C841 1.349 . S
C840 C842 1.327 . S
C840 H865 0.950 . S
C841 C840 1.349 . S
C841 C857 1.349 . S
C842 C840 1.327 . S
C842 C861 1.429 . S
C842 H866 0.950 . S
C843 C860 1.574 . S
C843 C862 1.368 . S
C843 H867 0.949 . S
H844 C848 0.949 . S
C845 C846 1.349 . S
C845 C847 1.327 . S
C845 H868 0.950 . S
C846 C845 1.349 . S
C846 C858 1.349 . S
C847 C845 1.327 . S
C847 C863 1.429 . S
C847 H869 0.950 . S
C848 H844 0.949 . S
C848 C856 1.574 . S
C848 C864 1.368 . S
H849 C857 0.950 . S
H850 C855 0.950 . S
H851 C856 0.949 . S
H852 C858 0.950 . S
H853 C859 0.950 . S
H854 C860 0.949 . S
C855 H850 0.950 . S
C855 C857 1.327 . S
C855 C861 1.429 . S
C856 C848 1.574 . S
C856 H851 0.949 . S
C856 C862 1.368 . S
C857 C841 1.349 . S
C857 H849 0.950 . S
C857 C855 1.327 . S
C858 C846 1.349 . S
C858 H852 0.950 . S
C858 C859 1.327 . S
C859 H853 0.950 . S
C859 C858 1.327 . S
C859 C863 1.429 . S
C860 C843 1.574 . S
C860 H854 0.949 . S
C860 C864 1.368 . S
C861 C842 1.429 . S
C861 C855 1.429 . S
C861 C862 1.523 . S
C862 C843 1.368 . S
C862 C856 1.368 . S
C862 C861 1.523 . S
C863 C847 1.429 . S
C863 C859 1.429 . S
C863 C864 1.523 . S
C864 C848 1.368 . S
C864 C860 1.368 . S
C864 C863 1.523 . S
H865 C840 0.950 . S
H866 C842 0.950 . S
H867 C843 0.949 . S
H868 C845 0.950 . S
H869 C847 0.950 . S
C870 C871 1.349 . S
C870 C872 1.327 . S
C870 H895 0.950 . S
C871 C870 1.349 . S
C871 C887 1.349 . S
C872 C870 1.327 . S
C872 C891 1.429 . S
C872 H896 0.950 . S
C873 C890 1.574 . S
C873 C892 1.368 . S
C873 H897 0.949 . S
H874 C878 0.949 . S
C875 C876 1.349 . S
C875 C877 1.327 . S
C875 H898 0.950 . S
C876 C875 1.349 . S
C876 C888 1.349 . S
C877 C875 1.327 . S
C877 C893 1.429 . S
C877 H899 0.950 . S
C878 H874 0.949 . S
C878 C886 1.574 . S
C878 C894 1.368 . S
H879 C887 0.950 . S
H880 C885 0.950 . S
H881 C886 0.949 . S
H882 C888 0.950 . S
H883 C889 0.950 . S
H884 C890 0.949 . S
C885 H880 0.950 . S
C885 C887 1.327 . S
C885 C891 1.429 . S
C886 C878 1.574 . S
C886 H881 0.949 . S
C886 C892 1.368 . S
C887 C871 1.349 . S
C887 H879 0.950 . S
C887 C885 1.327 . S
C888 C876 1.349 . S
C888 H882 0.950 . S
C888 C889 1.327 . S
C889 H883 0.950 . S
C889 C888 1.327 . S
C889 C893 1.429 . S
C890 C873 1.574 . S
C890 H884 0.949 . S
C890 C894 1.368 . S
C891 C872 1.429 . S
C891 C885 1.429 . S
C891 C892 1.523 . S
C892 C873 1.368 . S
C892 C886 1.368 . S
C892 C891 1.523 . S
C893 C877 1.429 . S
C893 C889 1.429 . S
C893 C894 1.523 . S
C894 C878 1.368 . S
C894 C890 1.368 . S
C894 C893 1.523 . S
H895 C870 0.950 . S
H896 C872 0.950 . S
H897 C873 0.949 . S
H898 C875 0.950 . S
H899 C877 0.950 . S
C900 C901 1.349 . S
C900 C902 1.327 . S
C900 H925 0.950 . S
C901 C900 1.349 . S
C901 C917 1.349 . S
C902 C900 1.327 . S
C902 C921 1.429 . S
C902 H926 0.950 . S
C903 C920 1.574 . S
C903 C922 1.368 . S
C903 H927 0.949 . S
H904 C908 0.949 . S
C905 C906 1.349 . S
C905 C907 1.327 . S
C905 H928 0.950 . S
C906 C905 1.349 . S
C906 C918 1.349 . S
C907 C905 1.327 . S
C907 C923 1.429 . S
C907 H929 0.950 . S
C908 H904 0.949 . S
C908 C916 1.574 . S
C908 C924 1.368 . S
H909 C917 0.950 . S
H910 C915 0.950 . S
H911 C916 0.949 . S
H912 C918 0.950 . S
H913 C919 0.950 . S
H914 C920 0.949 . S
C915 H910 0.950 . S
C915 C917 1.327 . S
C915 C921 1.429 . S
C916 C908 1.574 . S
C916 H911 0.949 . S
C916 C922 1.368 . S
C917 C901 1.349 . S
C917 H909 0.950 . S
C917 C915 1.327 . S
C918 C906 1.349 . S
C918 H912 0.950 . S
C918 C919 1.327 . S
C919 H913 0.950 . S
C919 C918 1.327 . S
C919 C923 1.429 . S
C920 C903 1.574 . S
C920 H914 0.949 . S
C920 C924 1.368 . S
C921 C902 1.429 . S
C921 C915 1.429 . S
C921 C922 1.523 . S
C922 C903 1.368 . S
C922 C916 1.368 . S
C922 C921 1.523 . S
C923 C907 1.429 . S
C923 C919 1.429 . S
C923 C924 1.523 . S
C924 C908 1.368 . S
C924 C920 1.368 . S
C924 C923 1.523 . S
H925 C900 0.950 . S
H926 C902 0.950 . S
H927 C903 0.949 . S
H928 C905 0.950 . S
H929 C907 0.950 . S
C930 C931 1.349 . S
C930 C932 1.327 . S
C930 H955 0.950 . S
C931 C930 1.349 . S
C931 C947 1.349 . S
C932 C930 1.327 . S
C932 C951 1.429 . S
C932 H956 0.950 . S
C933 C950 1.574 . S
C933 C952 1.368 . S
C933 H957 0.949 . S
H934 C938 0.949 . S
C935 C936 1.349 . S
C935 C937 1.327 . S
C935 H958 0.950 . S
C936 C935 1.349 . S
C936 C948 1.349 . S
C937 C935 1.327 . S
C937 C953 1.429 . S
C937 H959 0.950 . S
C938 H934 0.949 . S
C938 C946 1.574 . S
C938 C954 1.368 . S
H939 C947 0.950 . S
H940 C945 0.950 . S
H941 C946 0.949 . S
H942 C948 0.950 . S
H943 C949 0.950 . S
H944 C950 0.949 . S
C945 H940 0.950 . S
C945 C947 1.327 . S
C945 C951 1.429 . S
C946 C938 1.574 . S
C946 H941 0.949 . S
C946 C952 1.368 . S
C947 C931 1.349 . S
C947 H939 0.950 . S
C947 C945 1.327 . S
C948 C936 1.349 . S
C948 H942 0.950 . S
C948 C949 1.327 . S
C949 H943 0.950 . S
C949 C948 1.327 . S
C949 C953 1.429 . S
C950 C933 1.574 . S
C950 H944 0.949 . S
C950 C954 1.368 . S
C951 C932 1.429 . S
C951 C945 1.429 . S
C951 C952 1.523 . S
C952 C933 1.368 . S
C952 C946 1.368 . S
C952 C951 1.523 . S
C953 C937 1.429 . S
C953 C949 1.429 . S
C953 C954 1.523 . S
C954 C938 1.368 . S
C954 C950 1.368 . S
C954 C953 1.523 . S
H955 C930 0.950 . S
H956 C932 0.950 . S
H957 C933 0.949 . S
H958 C935 0.950 . S
H959 C937 0.950 . S
C960 C961 1.349 . S
C960 C962 1.327 . S
C960 H985 0.950 . S
C961 C960 1.349 . S
C961 C977 1.349 . S
C962 C960 1.327 . S
C962 C981 1.429 . S
C962 H986 0.950 . S
C963 C980 1.574 . S
C963 C982 1.368 . S
C963 H987 0.949 . S
H964 C968 0.949 . S
C965 C966 1.349 . S
C965 C967 1.327 . S
C965 H988 0.950 . S
C966 C965 1.349 . S
C966 C978 1.349 . S
C967 C965 1.327 . S
C967 C983 1.429 . S
C967 H989 0.950 . S
C968 H964 0.949 . S
C968 C976 1.574 . S
C968 C984 1.368 . S
H969 C977 0.950 . S
H970 C975 0.950 . S
H971 C976 0.949 . S
H972 C978 0.950 . S
H973 C979 0.950 . S
H974 C980 0.949 . S
C975 H970 0.950 . S
C975 C977 1.327 . S
C975 C981 1.429 . S
C976 C968 1.574 . S
C976 H971 0.949 . S
C976 C982 1.368 . S
C977 C961 1.349 . S
C977 H969 0.950 . S
C977 C975 1.327 . S
C978 C966 1.349 . S
C978 H972 0.950 . S
C978 C979 1.327 . S
C979 H973 0.950 . S
C979 C978 1.327 . S
C979 C983 1.429 . S
C980 C963 1.574 . S
C980 H974 0.949 . S
C980 C984 1.368 . S
C981 C962 1.429 . S
C981 C975 1.429 . S
C981 C982 1.523 . S
C982 C963 1.368 . S
C982 C976 1.368 . S
C982 C981 1.523 . S
C983 C967 1.429 . S
C983 C979 1.429 . S
C983 C984 1.523 . S
C984 C968 1.368 . S
C984 C980 1.368 . S
C984 C983 1.523 . S
H985 C960 0.950 . S
H986 C962 0.950 . S
H987 C963 0.949 . S
H988 C965 0.950 . S
H989 C967 0.950 . S
C990 C991 1.349 . S
C990 C992 1.327 . S
C990 H1015 0.950 . S
C991 C990 1.349 . S
C991 C1007 1.349 . S
C992 C990 1.327 . S
C992 C1011 1.429 . S
C992 H1016 0.950 . S
C993 C1010 1.574 . S
C993 C1012 1.368 . S
C993 H1017 0.949 . S
H994 C998 0.949 . S
C995 C996 1.349 . S
C995 C997 1.327 . S
C995 H1018 0.950 . S
C996 C995 1.349 . S
C996 C1008 1.349 . S
C997 C995 1.327 . S
C997 C1013 1.429 . S
C997 H1019 0.950 . S
C998 H994 0.949 . S
C998 C1006 1.574 . S
C998 C1014 1.368 . S
H999 C1007 0.950 . S
H1000 C1005 0.950 . S
H1001 C1006 0.949 . S
H1002 C1008 0.950 . S
H1003 C1009 0.950 . S
H1004 C1010 0.949 . S
C1005 H1000 0.950 . S
C1005 C1007 1.327 . S
C1005 C1011 1.429 . S
C1006 C998 1.574 . S
C1006 H1001 0.949 . S
C1006 C1012 1.368 . S
C1007 C991 1.349 . S
C1007 H999 0.950 . S
C1007 C1005 1.327 . S
C1008 C996 1.349 . S
C1008 H1002 0.950 . S
C1008 C1009 1.327 . S
C1009 H1003 0.950 . S
C1009 C1008 1.327 . S
C1009 C1013 1.429 . S
C1010 C993 1.574 . S
C1010 H1004 0.949 . S
C1010 C1014 1.368 . S
C1011 C992 1.429 . S
C1011 C1005 1.429 . S
C1011 C1012 1.523 . S
C1012 C993 1.368 . S
C1012 C1006 1.368 . S
C1012 C1011 1.523 . S
C1013 C997 1.429 . S
C1013 C1009 1.429 . S
C1013 C1014 1.523 . S
C1014 C998 1.368 . S
C1014 C1010 1.368 . S
C1014 C1013 1.523 . S
H1015 C990 0.950 . S
H1016 C992 0.950 . S
H1017 C993 0.949 . S
H1018 C995 0.950 . S
H1019 C997 0.950 . S
C1020 C1021 1.349 . S
C1020 C1022 1.327 . S
C1020 H1045 0.950 . S
C1021 C1020 1.349 . S
C1021 C1037 1.349 . S
C1022 C1020 1.327 . S
C1022 C1041 1.429 . S
C1022 H1046 0.950 . S
C1023 C1040 1.574 . S
C1023 C1042 1.368 . S
C1023 H1047 0.949 . S
H1024 C1028 0.949 . S
C1025 C1026 1.349 . S
C1025 C1027 1.327 . S
C1025 H1048 0.950 . S
C1026 C1025 1.349 . S
C1026 C1038 1.349 . S
C1027 C1025 1.327 . S
C1027 C1043 1.429 . S
C1027 H1049 0.950 . S
C1028 H1024 0.949 . S
C1028 C1036 1.574 . S
C1028 C1044 1.368 . S
H1029 C1037 0.950 . S
H1030 C1035 0.950 . S
H1031 C1036 0.949 . S
H1032 C1038 0.950 . S
H1033 C1039 0.950 . S
H1034 C1040 0.949 . S
C1035 H1030 0.950 . S
C1035 C1037 1.327 . S
C1035 C1041 1.429 . S
C1036 C1028 1.574 . S
C1036 H1031 0.949 . S
C1036 C1042 1.368 . S
C1037 C1021 1.349 . S
C1037 H1029 0.950 . S
C1037 C1035 1.327 . S
C1038 C1026 1.349 . S
C1038 H1032 0.950 . S
C1038 C1039 1.327 . S
C1039 H1033 0.950 . S
C1039 C1038 1.327 . S
C1039 C1043 1.429 . S
C1040 C1023 1.574 . S
C1040 H1034 0.949 . S
C1040 C1044 1.368 . S
C1041 C1022 1.429 . S
C1041 C1035 1.429 . S
C1041 C1042 1.523 . S
C1042 C1023 1.368 . S
C1042 C1036 1.368 . S
C1042 C1041 1.523 . S
C1043 C1027 1.429 . S
C1043 C1039 1.429 . S
C1043 C1044 1.523 . S
C1044 C1028 1.368 . S
C1044 C1040 1.368 . S
C1044 C1043 1.523 . S
H1045 C1020 0.950 . S
H1046 C1022 0.950 . S
H1047 C1023 0.949 . S
H1048 C1025 0.950 . S
H1049 C1027 0.950 . S
C1050 C1051 1.349 . S
C1050 C1052 1.327 . S
C1050 H1075 0.950 . S
C1051 C1050 1.349 . S
C1051 C1067 1.349 . S
C1052 C1050 1.327 . S
C1052 C1071 1.429 . S
C1052 H1076 0.950 . S
C1053 C1070 1.574 . S
C1053 C1072 1.368 . S
C1053 H1077 0.949 . S
H1054 C1058 0.949 . S
C1055 C1056 1.349 . S
C1055 C1057 1.327 . S
C1055 H1078 0.950 . S
C1056 C1055 1.349 . S
C1056 C1068 1.349 . S
C1057 C1055 1.327 . S
C1057 C1073 1.429 . S
C1057 H1079 0.950 . S
C1058 H1054 0.949 . S
C1058 C1066 1.574 . S
C1058 C1074 1.368 . S
H1059 C1067 0.950 . S
H1060 C1065 0.950 . S
H1061 C1066 0.949 . S
H1062 C1068 0.950 . S
H1063 C1069 0.950 . S
H1064 C1070 0.949 . S
C1065 H1060 0.950 . S
C1065 C1067 1.327 . S
C1065 C1071 1.429 . S
C1066 C1058 1.574 . S
C1066 H1061 0.949 . S
C1066 C1072 1.368 . S
C1067 C1051 1.349 . S
C1067 H1059 0.950 . S
C1067 C1065 1.327 . S
C1068 C1056 1.349 . S
C1068 H1062 0.950 . S
C1068 C1069 1.327 . S
C1069 H1063 0.950 . S
C1069 C1068 1.327 . S
C1069 C1073 1.429 . S
C1070 C1053 1.574 . S
C1070 H1064 0.949 . S
C1070 C1074 1.368 . S
C1071 C1052 1.429 . S
C1071 C1065 1.429 . S
C1071 C1072 1.523 . S
C1072 C1053 1.368 . S
C1072 C1066 1.368 . S
C1072 C1071 1.523 . S
C1073 C1057 1.429 . S
C1073 C1069 1.429 . S
C1073 C1074 1.523 . S
C1074 C1058 1.368 . S
C1074 C1070 1.368 . S
C1074 C1073 1.523 . S
H1075 C1050 0.950 . S
H1076 C1052 0.950 . S
H1077 C1053 0.949 . S
H1078 C1055 0.950 . S
H1079 C1057 0.950 . S
C1080 C1081 1.349 . S
C1080 C1082 1.327 . S
C1080 H1105 0.950 . S
C1081 C1080 1.349 . S
C1081 C1097 1.349 . S
C1082 C1080 1.327 . S
C1082 C1101 1.429 . S
C1082 H1106 0.950 . S
C1083 C1100 1.574 . S
C1083 C1102 1.368 . S
C1083 H1107 0.949 . S
H1084 C1088 0.949 . S
C1085 C1086 1.349 . S
C1085 C1087 1.327 . S
C1085 H1108 0.950 . S
C1086 C1085 1.349 . S
C1086 C1098 1.349 . S
C1087 C1085 1.327 . S
C1087 C1103 1.429 . S
C1087 H1109 0.950 . S
C1088 H1084 0.949 . S
C1088 C1096 1.574 . S
C1088 C1104 1.368 . S
H1089 C1097 0.950 . S
H1090 C1095 0.950 . S
H1091 C1096 0.949 . S
H1092 C1098 0.950 . S
H1093 C1099 0.950 . S
H1094 C1100 0.949 . S
C1095 H1090 0.950 . S
C1095 C1097 1.327 . S
C1095 C1101 1.429 . S
C1096 C1088 1.574 . S
C1096 H1091 0.949 . S
C1096 C1102 1.368 . S
C1097 C1081 1.349 . S
C1097 H1089 0.950 . S
C1097 C1095 1.327 . S
C1098 C1086 1.349 . S
C1098 H1092 0.950 . S
C1098 C1099 1.327 . S
C1099 H1093 0.950 . S
C1099 C1098 1.327 . S
C1099 C1103 1.429 . S
C1100 C1083 1.574 . S
C1100 H1094 0.949 . S
C1100 C1104 1.368 . S
C1101 C1082 1.429 . S
C1101 C1095 1.429 . S
C1101 C1102 1.523 . S
C1102 C1083 1.368 . S
C1102 C1096 1.368 . S
C1102 C1101 1.523 . S
C1103 C1087 1.429 . S
C1103 C1099 1.429 . S
C1103 C1104 1.523 . S
C1104 C1088 1.368 . S
C1104 C1100 1.368 . S
C1104 C1103 1.523 . S
H1105 C1080 0.950 . S
H1106 C1082 0.950 . S
H1107 C1083 0.949 . S
H1108 C1085 0.950 . S
H1109 C1087 0.950 . S
C1110 C1111 1.349 . S
C1110 C1112 1.327 . S
C1110 H1135 0.950 . S
C1111 C1110 1.349 . S
C1111 C1127 1.349 . S
C1112 C1110 1.327 . S
C1112 C1131 1.429 . S
C1112 H1136 0.950 . S
C1113 C1130 1.574 . S
C1113 C1132 1.368 . S
C1113 H1137 0.949 . S
H1114 C1118 0.949 . S
C1115 C1116 1.349 . S
C1115 C1117 1.327 . S
C1115 H1138 0.950 . S
C1116 C1115 1.349 . S
C1116 C1128 1.349 . S
C1117 C1115 1.327 . S
C1117 C1133 1.429 . S
C1117 H1139 0.950 . S
C1118 H1114 0.949 . S
C1118 C1126 1.574 . S
C1118 C1134 1.368 . S
H1119 C1127 0.950 . S
H1120 C1125 0.950 . S
H1121 C1126 0.949 . S
H1122 C1128 0.950 . S
H1123 C1129 0.950 . S
H1124 C1130 0.949 . S
C1125 H1120 0.950 . S
C1125 C1127 1.327 . S
C1125 C1131 1.429 . S
C1126 C1118 1.574 . S
C1126 H1121 0.949 . S
C1126 C1132 1.368 . S
C1127 C1111 1.349 . S
C1127 H1119 0.950 . S
C1127 C1125 1.327 . S
C1128 C1116 1.349 . S
C1128 H1122 0.950 . S
C1128 C1129 1.327 . S
C1129 H1123 0.950 . S
C1129 C1128 1.327 . S
C1129 C1133 1.429 . S
C1130 C1113 1.574 . S
C1130 H1124 0.949 . S
C1130 C1134 1.368 . S
C1131 C1112 1.429 . S
C1131 C1125 1.429 . S
C1131 C1132 1.523 . S
C1132 C1113 1.368 . S
C1132 C1126 1.368 . S
C1132 C1131 1.523 . S
C1133 C1117 1.429 . S
C1133 C1129 1.429 . S
C1133 C1134 1.523 . S
C1134 C1118 1.368 . S
C1134 C1130 1.368 . S
C1134 C1133 1.523 . S
H1135 C1110 0.950 . S
H1136 C1112 0.950 . S
H1137 C1113 0.949 . S
H1138 C1115 0.950 . S
H1139 C1117 0.950 . S
C1140 C1141 1.349 . S
C1140 C1142 1.327 . S
C1140 H1165 0.950 . S
C1141 C1140 1.349 . S
C1141 C1157 1.349 . S
C1142 C1140 1.327 . S
C1142 C1161 1.429 . S
C1142 H1166 0.950 . S
C1143 C1160 1.574 . S
C1143 C1162 1.368 . S
C1143 H1167 0.949 . S
H1144 C1148 0.949 . S
C1145 C1146 1.349 . S
C1145 C1147 1.327 . S
C1145 H1168 0.950 . S
C1146 C1145 1.349 . S
C1146 C1158 1.349 . S
C1147 C1145 1.327 . S
C1147 C1163 1.429 . S
C1147 H1169 0.950 . S
C1148 H1144 0.949 . S
C1148 C1156 1.574 . S
C1148 C1164 1.368 . S
H1149 C1157 0.950 . S
H1150 C1155 0.950 . S
H1151 C1156 0.949 . S
H1152 C1158 0.950 . S
H1153 C1159 0.950 . S
H1154 C1160 0.949 . S
C1155 H1150 0.950 . S
C1155 C1157 1.327 . S
C1155 C1161 1.429 . S
C1156 C1148 1.574 . S
C1156 H1151 0.949 . S
C1156 C1162 1.368 . S
C1157 C1141 1.349 . S
C1157 H1149 0.950 . S
C1157 C1155 1.327 . S
C1158 C1146 1.349 . S
C1158 H1152 0.950 . S
C1158 C1159 1.327 . S
C1159 H1153 0.950 . S
C1159 C1158 1.327 . S
C1159 C1163 1.429 . S
C1160 C1143 1.574 . S
C1160 H1154 0.949 . S
C1160 C1164 1.368 . S
C1161 C1142 1.429 . S
C1161 C1155 1.429 . S
C1161 C1162 1.523 . S
C1162 C1143 1.368 . S
C1162 C1156 1.368 . S
C1162 C1161 1.523 . S
C1163 C1147 1.429 . S
C1163 C1159 1.429 . S
C1163 C1164 1.523 . S
C1164 C1148 1.368 . S
C1164 C1160 1.368 . S
C1164 C1163 1.523 . S
H1165 C1140 0.950 . S
H1166 C1142 0.950 . S
H1167 C1143 0.949 . S
H1168 C1145 0.950 . S
H1169 C1147 0.950 . S
C1170 C1171 1.349 . S
C1170 C1172 1.327 . S
C1170 H1195 0.950 . S
C1171 C1170 1.349 . S
C1171 C1187 1.349 . S
C1172 C1170 1.327 . S
C1172 C1191 1.429 . S
C1172 H1196 0.950 . S
C1173 C1190 1.574 . S
C1173 C1192 1.368 . S
C1173 H1197 0.949 . S
H1174 C1178 0.949 . S
C1175 C1176 1.349 . S
C1175 C1177 1.327 . S
C1175 H1198 0.950 . S
C1176 C1175 1.349 . S
C1176 C1188 1.349 . S
C1177 C1175 1.327 . S
C1177 C1193 1.429 . S
C1177 H1199 0.950 . S
C1178 H1174 0.949 . S
C1178 C1186 1.574 . S
C1178 C1194 1.368 . S
H1179 C1187 0.950 . S
H1180 C1185 0.950 . S
H1181 C1186 0.949 . S
H1182 C1188 0.950 . S
H1183 C1189 0.950 . S
H1184 C1190 0.949 . S
C1185 H1180 0.950 . S
C1185 C1187 1.327 . S
C1185 C1191 1.429 . S
C1186 C1178 1.574 . S
C1186 H1181 0.949 . S
C1186 C1192 1.368 . S
C1187 C1171 1.349 . S
C1187 H1179 0.950 . S
C1187 C1185 1.327 . S
C1188 C1176 1.349 . S
C1188 H1182 0.950 . S
C1188 C1189 1.327 . S
C1189 H1183 0.950 . S
C1189 C1188 1.327 . S
C1189 C1193 1.429 . S
C1190 C1173 1.574 . S
C1190 H1184 0.949 . S
C1190 C1194 1.368 . S
C1191 C1172 1.429 . S
C1191 C1185 1.429 . S
C1191 C1192 1.523 . S
C1192 C1173 1.368 . S
C1192 C1186 1.368 . S
C1192 C1191 1.523 . S
C1193 C1177 1.429 . S
C1193 C1189 1.429 . S
C1193 C1194 1.523 . S
C1194 C1178 1.368 . S
C1194 C1190 1.368 . S
C1194 C1193 1.523 . S
H1195 C1170 0.950 . S
H1196 C1172 0.950 . S
H1197 C1173 0.949 . S
H1198 C1175 0.950 . S
H1199 C1177 0.950 . S
C1200 C1201 1.349 . S
C1200 C1202 1.327 . S
C1200 H1225 0.950 . S
C1201 C1200 1.349 . S
C1201 C1217 1.349 . S
C1202 C1200 1.327 . S
C1202 C1221 1.429 . S
C1202 H1226 0.950 . S
C1203 C1220 1.574 . S
C1203 C1222 1.368 . S
C1203 H1227 0.949 . S
H1204 C1208 0.949 . S
C1205 C1206 1.349 . S
C1205 C1207 1.327 . S
C1205 H1228 0.950 . S
C1206 C1205 1.349 . S
C1206 C1218 1.349 . S
C1207 C1205 1.327 . S
C1207 C1223 1.429 . S
C1207 H1229 0.950 . S
C1208 H1204 0.949 . S
C1208 C1216 1.574 . S
C1208 C1224 1.368 . S
H1209 C1217 0.950 . S
H1210 C1215 0.950 . S
H1211 C1216 0.949 . S
H1212 C1218 0.950 . S
H1213 C1219 0.950 . S
H1214 C1220 0.949 . S
C1215 H1210 0.950 . S
C1215 C1217 1.327 . S
C1215 C1221 1.429 . S
C1216 C1208 1.574 . S
C1216 H1211 0.949 . S
C1216 C1222 1.368 . S
C1217 C1201 1.349 . S
C1217 H1209 0.950 . S
C1217 C1215 1.327 . S
C1218 C1206 1.349 . S
C1218 H1212 0.950 . S
C1218 C1219 1.327 . S
C1219 H1213 0.950 . S
C1219 C1218 1.327 . S
C1219 C1223 1.429 . S
C1220 C1203 1.574 . S
C1220 H1214 0.949 . S
C1220 C1224 1.368 . S
C1221 C1202 1.429 . S
C1221 C1215 1.429 . S
C1221 C1222 1.523 . S
C1222 C1203 1.368 . S
C1222 C1216 1.368 . S
C1222 C1221 1.523 . S
C1223 C1207 1.429 . S
C1223 C1219 1.429 . S
C1223 C1224 1.523 . S
C1224 C1208 1.368 . S
C1224 C1220 1.368 . S
C1224 C1223 1.523 . S
H1225 C1200 0.950 . S
H1226 C1202 0.950 . S
H1227 C1203 0.949 . S
H1228 C1205 0.950 . S
H1229 C1207 0.950 . S
C1230 C1231 1.349 . S
C1230 C1232 1.327 . S
C1230 H1255 0.950 . S
C1231 C1230 1.349 . S
C1231 C1247 1.349 . S
C1232 C1230 1.327 . S
C1232 C1251 1.429 . S
C1232 H1256 0.950 . S
C1233 C1250 1.574 . S
C1233 C1252 1.368 . S
C1233 H1257 0.949 . S
H1234 C1238 0.949 . S
C1235 C1236 1.349 . S
C1235 C1237 1.327 . S
C1235 H1258 0.950 . S
C1236 C1235 1.349 . S
C1236 C1248 1.349 . S
C1237 C1235 1.327 . S
C1237 C1253 1.429 . S
C1237 H1259 0.950 . S
C1238 H1234 0.949 . S
C1238 C1246 1.574 . S
C1238 C1254 1.368 . S
H1239 C1247 0.950 . S
H1240 C1245 0.950 . S
H1241 C1246 0.949 . S
H1242 C1248 0.950 . S
H1243 C1249 0.950 . S
H1244 C1250 0.949 . S
C1245 H1240 0.950 . S
C1245 C1247 1.327 . S
C1245 C1251 1.429 . S
C1246 C1238 1.574 . S
C1246 H1241 0.949 . S
C1246 C1252 1.368 . S
C1247 C1231 1.349 . S
C1247 H1239 0.950 . S
C1247 C1245 1.327 . S
C1248 C1236 1.349 . S
C1248 H1242 0.950 . S
C1248 C1249 1.327 . S
C1249 H1243 0.950 . S
C1249 C1248 1.327 . S
C1249 C1253 1.429 . S
C1250 C1233 1.574 . S
C1250 H1244 0.949 . S
C1250 C1254 1.368 . S
C1251 C1232 1.429 . S
C1251 C1245 1.429 . S
C1251 C1252 1.523 . S
C1252 C1233 1.368 . S
C1252 C1246 1.368 . S
C1252 C1251 1.523 . S
C1253 C1237 1.429 . S
C1253 C1249 1.429 . S
C1253 C1254 1.523 . S
C1254 C1238 1.368 . S
C1254 C1250 1.368 . S
C1254 C1253 1.523 . S
H1255 C1230 0.950 . S
H1256 C1232 0.950 . S
H1257 C1233 0.949 . S
H1258 C1235 0.950 . S
H1259 C1237 0.950 . S
C1260 C1261 1.349 . S
C1260 C1262 1.327 . S
C1260 H1285 0.950 . S
C1261 C1260 1.349 . S
C1261 C1277 1.349 . S
C1262 C1260 1.327 . S
C1262 C1281 1.429 . S
C1262 H1286 0.950 . S
C1263 C1280 1.574 . S
C1263 C1282 1.368 . S
C1263 H1287 0.949 . S
H1264 C1268 0.949 . S
C1265 C1266 1.349 . S
C1265 C1267 1.327 . S
C1265 H1288 0.950 . S
C1266 C1265 1.349 . S
C1266 C1278 1.349 . S
C1267 C1265 1.327 . S
C1267 C1283 1.429 . S
C1267 H1289 0.950 . S
C1268 H1264 0.949 . S
C1268 C1276 1.574 . S
C1268 C1284 1.368 . S
H1269 C1277 0.950 . S
H1270 C1275 0.950 . S
H1271 C1276 0.949 . S
H1272 C1278 0.950 . S
H1273 C1279 0.950 . S
H1274 C1280 0.949 . S
C1275 H1270 0.950 . S
C1275 C1277 1.327 . S
C1275 C1281 1.429 . S
C1276 C1268 1.574 . S
C1276 H1271 0.949 . S
C1276 C1282 1.368 . S
C1277 C1261 1.349 . S
C1277 H1269 0.950 . S
C1277 C1275 1.327 . S
C1278 C1266 1.349 . S
C1278 H1272 0.950 . S
C1278 C1279 1.327 . S
C1279 H1273 0.950 . S
C1279 C1278 1.327 . S
C1279 C1283 1.429 . S
C1280 C1263 1.574 . S
C1280 H1274 0.949 . S
C1280 C1284 1.368 . S
C1281 C1262 1.429 . S
C1281 C1275 1.429 . S
C1281 C1282 1.523 . S
C1282 C1263 1.368 . S
C1282 C1276 1.368 . S
C1282 C1281 1.523 . S
C1283 C1267 1.429 . S
C1283 C1279 1.429 . S
C1283 C1284 1.523 . S
C1284 C1268 1.368 . S
C1284 C1280 1.368 . S
C1284 C1283 1.523 . S
H1285 C1260 0.950 . S
H1286 C1262 0.950 . S
H1287 C1263 0.949 . S
H1288 C1265 0.950 . S
H1289 C1267 0.950 . S
C1290 C1291 1.349 . S
C1290 C1292 1.327 . S
C1290 H1315 0.950 . S
C1291 C1290 1.349 . S
C1291 C1307 1.349 . S
C1292 C1290 1.327 . S
C1292 C1311 1.429 . S
C1292 H1316 0.950 . S
C1293 C1310 1.574 . S
C1293 C1312 1.368 . S
C1293 H1317 0.949 . S
H1294 C1298 0.949 . S
C1295 C1296 1.349 . S
C1295 C1297 1.327 . S
C1295 H1318 0.950 . S
C1296 C1295 1.349 . S
C1296 C1308 1.349 . S
C1297 C1295 1.327 . S
C1297 C1313 1.429 . S
C1297 H1319 0.950 . S
C1298 H1294 0.949 . S
C1298 C1306 1.574 . S
C1298 C1314 1.368 . S
H1299 C1307 0.950 . S
H1300 C1305 0.950 . S
H1301 C1306 0.949 . S
H1302 C1308 0.950 . S
H1303 C1309 0.950 . S
H1304 C1310 0.949 . S
C1305 H1300 0.950 . S
C1305 C1307 1.327 . S
C1305 C1311 1.429 . S
C1306 C1298 1.574 . S
C1306 H1301 0.949 . S
C1306 C1312 1.368 . S
C1307 C1291 1.349 . S
C1307 H1299 0.950 . S
C1307 C1305 1.327 . S
C1308 C1296 1.349 . S
C1308 H1302 0.950 . S
C1308 C1309 1.327 . S
C1309 H1303 0.950 . S
C1309 C1308 1.327 . S
C1309 C1313 1.429 . S
C1310 C1293 1.574 . S
C1310 H1304 0.949 . S
C1310 C1314 1.368 . S
C1311 C1292 1.429 . S
C1311 C1305 1.429 . S
C1311 C1312 1.523 . S
C1312 C1293 1.368 . S
C1312 C1306 1.368 . S
C1312 C1311 1.523 . S
C1313 C1297 1.429 . S
C1313 C1309 1.429 . S
C1313 C1314 1.523 . S
C1314 C1298 1.368 . S
C1314 C1310 1.368 . S
C1314 C1313 1.523 . S
H1315 C1290 0.950 . S
H1316 C1292 0.950 . S
H1317 C1293 0.949 . S
H1318 C1295 0.950 . S
H1319 C1297 0.950 . S
C1320 C1321 1.349 . S
C1320 C1322 1.327 . S
C1320 H1345 0.950 . S
C1321 C1320 1.349 . S
C1321 C1337 1.349 . S
C1322 C1320 1.327 . S
C1322 C1341 1.429 . S
C1322 H1346 0.950 . S
C1323 C1340 1.574 . S
C1323 C1342 1.368 . S
C1323 H1347 0.949 . S
H1324 C1328 0.949 . S
C1325 C1326 1.349 . S
C1325 C1327 1.327 . S
C1325 H1348 0.950 . S
C1326 C1325 1.349 . S
C1326 C1338 1.349 . S
C1327 C1325 1.327 . S
C1327 C1343 1.429 . S
C1327 H1349 0.950 . S
C1328 H1324 0.949 . S
C1328 C1336 1.574 . S
C1328 C1344 1.368 . S
H1329 C1337 0.950 . S
H1330 C1335 0.950 . S
H1331 C1336 0.949 . S
H1332 C1338 0.950 . S
H1333 C1339 0.950 . S
H1334 C1340 0.949 . S
C1335 H1330 0.950 . S
C1335 C1337 1.327 . S
C1335 C1341 1.429 . S
C1336 C1328 1.574 . S
C1336 H1331 0.949 . S
C1336 C1342 1.368 . S
C1337 C1321 1.349 . S
C1337 H1329 0.950 . S
C1337 C1335 1.327 . S
C1338 C1326 1.349 . S
C1338 H1332 0.950 . S
C1338 C1339 1.327 . S
C1339 H1333 0.950 . S
C1339 C1338 1.327 . S
C1339 C1343 1.429 . S
C1340 C1323 1.574 . S
C1340 H1334 0.949 . S
C1340 C1344 1.368 . S
C1341 C1322 1.429 . S
C1341 C1335 1.429 . S
C1341 C1342 1.523 . S
C1342 C1323 1.368 . S
C1342 C1336 1.368 . S
C1342 C1341 1.523 . S
C1343 C1327 1.429 . S
C1343 C1339 1.429 . S
C1343 C1344 1.523 . S
C1344 C1328 1.368 . S
C1344 C1340 1.368 . S
C1344 C1343 1.523 . S
H1345 C1320 0.950 . S
H1346 C1322 0.950 . S
H1347 C1323 0.949 . S
H1348 C1325 0.950 . S
H1349 C1327 0.950 . S
C1350 C1351 1.349 . S
C1350 C1352 1.327 . S
C1350 H1375 0.950 . S
C1351 C1350 1.349 . S
C1351 C1367 1.349 . S
C1352 C1350 1.327 . S
C1352 C1371 1.429 . S
C1352 H1376 0.950 . S
C1353 C1370 1.574 . S
C1353 C1372 1.368 . S
C1353 H1377 0.949 . S
H1354 C1358 0.949 . S
C1355 C1356 1.349 . S
C1355 C1357 1.327 . S
C1355 H1378 0.950 . S
C1356 C1355 1.349 . S
C1356 C1368 1.349 . S
C1357 C1355 1.327 . S
C1357 C1373 1.429 . S
C1357 H1379 0.950 . S
C1358 H1354 0.949 . S
C1358 C1366 1.574 . S
C1358 C1374 1.368 . S
H1359 C1367 0.950 . S
H1360 C1365 0.950 . S
H1361 C1366 0.949 . S
H1362 C1368 0.950 . S
H1363 C1369 0.950 . S
H1364 C1370 0.949 . S
C1365 H1360 0.950 . S
C1365 C1367 1.327 . S
C1365 C1371 1.429 . S
C1366 C1358 1.574 . S
C1366 H1361 0.949 . S
C1366 C1372 1.368 . S
C1367 C1351 1.349 . S
C1367 H1359 0.950 . S
C1367 C1365 1.327 . S
C1368 C1356 1.349 . S
C1368 H1362 0.950 . S
C1368 C1369 1.327 . S
C1369 H1363 0.950 . S
C1369 C1368 1.327 . S
C1369 C1373 1.429 . S
C1370 C1353 1.574 . S
C1370 H1364 0.949 . S
C1370 C1374 1.368 . S
C1371 C1352 1.429 . S
C1371 C1365 1.429 . S
C1371 C1372 1.523 . S
C1372 C1353 1.368 . S
C1372 C1366 1.368 . S
C1372 C1371 1.523 . S
C1373 C1357 1.429 . S
C1373 C1369 1.429 . S
C1373 C1374 1.523 . S
C1374 C1358 1.368 . S
C1374 C1370 1.368 . S
C1374 C1373 1.523 . S
H1375 C1350 0.950 . S
H1376 C1352 0.950 . S
H1377 C1353 0.949 . S
H1378 C1355 0.950 . S
H1379 C1357 0.950 . S
C1380 C1381 1.349 . S
C1380 C1382 1.327 . S
C1380 H1405 0.950 . S
C1381 C1380 1.349 . S
C1381 C1397 1.349 . S
C1382 C1380 1.327 . S
C1382 C1401 1.429 . S
C1382 H1406 0.950 . S
C1383 C1400 1.574 . S
C1383 C1402 1.368 1_554 S
C1383 H1407 0.949 . S
H1384 C1388 0.949 . S
C1385 C1386 1.349 . S
C1385 C1387 1.327 . S
C1385 H1408 0.950 . S
C1386 C1385 1.349 . S
C1386 C1398 1.349 . S
C1387 C1385 1.327 . S
C1387 C1403 1.429 . S
C1387 H1409 0.950 . S
C1388 H1384 0.949 . S
C1388 C1396 1.574 . S
C1388 C1404 1.368 1_556 S
H1389 C1397 0.950 . S
H1390 C1395 0.950 . S
H1391 C1396 0.949 . S
H1392 C1398 0.950 . S
H1393 C1399 0.950 . S
H1394 C1400 0.949 . S
C1395 H1390 0.950 . S
C1395 C1397 1.327 . S
C1395 C1401 1.429 . S
C1396 C1388 1.574 . S
C1396 H1391 0.949 . S
C1396 C1402 1.368 . S
C1397 C1381 1.349 . S
C1397 H1389 0.950 . S
C1397 C1395 1.327 . S
C1398 C1386 1.349 . S
C1398 H1392 0.950 . S
C1398 C1399 1.327 . S
C1399 H1393 0.950 . S
C1399 C1398 1.327 . S
C1399 C1403 1.429 . S
C1400 C1383 1.574 . S
C1400 H1394 0.949 . S
C1400 C1404 1.368 . S
C1401 C1382 1.429 . S
C1401 C1395 1.429 . S
C1401 C1402 1.523 . S
C1402 C1383 1.368 1_556 S
C1402 C1396 1.368 . S
C1402 C1401 1.523 . S
C1403 C1387 1.429 . S
C1403 C1399 1.429 . S
C1403 C1404 1.523 . S
C1404 C1388 1.368 1_554 S
C1404 C1400 1.368 . S
C1404 C1403 1.523 . S
H1405 C1380 0.950 . S
H1406 C1382 0.950 . S
H1407 C1383 0.949 . S
H1408 C1385 0.950 . S
H1409 C1387 0.950 . S
C1410 C1411 1.349 . S
C1410 C1412 1.327 . S
C1410 H1435 0.950 . S
C1411 C1410 1.349 . S
C1411 C1427 1.349 . S
C1412 C1410 1.327 . S
C1412 C1431 1.429 . S
C1412 H1436 0.950 . S
C1413 C1430 1.574 1_455 S
C1413 C1432 1.368 . S
C1413 H1437 0.949 . S
H1414 C1418 0.949 . S
C1415 C1416 1.349 . S
C1415 C1417 1.327 . S
C1415 H1438 0.950 . S
C1416 C1415 1.349 . S
C1416 C1428 1.349 . S
C1417 C1415 1.327 . S
C1417 C1433 1.429 . S
C1417 H1439 0.950 . S
C1418 H1414 0.949 . S
C1418 C1426 1.574 1_655 S
C1418 C1434 1.368 . S
H1419 C1427 0.950 . S
H1420 C1425 0.950 . S
H1421 C1426 0.949 . S
H1422 C1428 0.950 . S
H1423 C1429 0.950 . S
H1424 C1430 0.949 . S
C1425 H1420 0.950 . S
C1425 C1427 1.327 . S
C1425 C1431 1.429 . S
C1426 C1418 1.574 1_455 S
C1426 H1421 0.949 . S
C1426 C1432 1.368 . S
C1427 C1411 1.349 . S
C1427 H1419 0.950 . S
C1427 C1425 1.327 . S
C1428 C1416 1.349 . S
C1428 H1422 0.950 . S
C1428 C1429 1.327 . S
C1429 H1423 0.950 . S
C1429 C1428 1.327 . S
C1429 C1433 1.429 . S
C1430 C1413 1.574 1_655 S
C1430 H1424 0.949 . S
C1430 C1434 1.368 . S
C1431 C1412 1.429 . S
C1431 C1425 1.429 . S
C1431 C1432 1.523 . S
C1432 C1413 1.368 . S
C1432 C1426 1.368 . S
C1432 C1431 1.523 . S
C1433 C1417 1.429 . S
C1433 C1429 1.429 . S
C1433 C1434 1.523 . S
C1434 C1418 1.368 . S
C1434 C1430 1.368 . S
C1434 C1433 1.523 . S
H1435 C1410 0.950 . S
H1436 C1412 0.950 . S
H1437 C1413 0.949 . S
H1438 C1415 0.950 . S
H1439 C1417 0.950 . S
C1440 C1441 1.349 . S
C1440 C1442 1.327 . S
C1440 H1465 0.950 . S
C1441 C1440 1.349 . S
C1441 C1457 1.349 . S
C1442 C1440 1.327 . S
C1442 C1461 1.429 . S
C1442 H1466 0.950 . S
C1443 C1460 1.574 1_564 S
C1443 C1462 1.368 . S
C1443 H1467 0.949 . S
H1444 C1448 0.949 . S
C1445 C1446 1.349 . S
C1445 C1447 1.327 . S
C1445 H1468 0.950 . S
C1446 C1445 1.349 . S
C1446 C1458 1.349 . S
C1447 C1445 1.327 . S
C1447 C1463 1.429 . S
C1447 H1469 0.950 . S
C1448 H1444 0.949 . S
C1448 C1456 1.574 1_546 S
C1448 C1464 1.368 . S
H1449 C1457 0.950 . S
H1450 C1455 0.950 . S
H1451 C1456 0.949 . S
H1452 C1458 0.950 . S
H1453 C1459 0.950 . S
H1454 C1460 0.949 . S
C1455 H1450 0.950 . S
C1455 C1457 1.327 . S
C1455 C1461 1.429 . S
C1456 C1448 1.574 1_564 S
C1456 H1451 0.949 . S
C1456 C1462 1.368 . S
C1457 C1441 1.349 . S
C1457 H1449 0.950 . S
C1457 C1455 1.327 . S
C1458 C1446 1.349 . S
C1458 H1452 0.950 . S
C1458 C1459 1.327 . S
C1459 H1453 0.950 . S
C1459 C1458 1.327 . S
C1459 C1463 1.429 . S
C1460 C1443 1.574 1_546 S
C1460 H1454 0.949 . S
C1460 C1464 1.368 . S
C1461 C1442 1.429 . S
C1461 C1455 1.429 . S
C1461 C1462 1.523 . S
C1462 C1443 1.368 . S
C1462 C1456 1.368 . S
C1462 C1461 1.523 . S
C1463 C1447 1.429 . S
C1463 C1459 1.429 . S
C1463 C1464 1.523 . S
C1464 C1448 1.368 . S
C1464 C1460 1.368 . S
C1464 C1463 1.523 . S
H1465 C1440 0.950 . S
H1466 C1442 0.950 . S
H1467 C1443 0.949 . S
H1468 C1445 0.950 . S
H1469 C1447 0.950 . S
C1470 C1471 1.349 . S
C1470 C1472 1.327 . S
C1470 H1495 0.950 . S
C1471 C1470 1.349 . S
C1471 C1487 1.349 . S
C1472 C1470 1.327 . S
C1472 C1491 1.429 . S
C1472 H1496 0.950 . S
C1473 C1490 1.574 . S
C1473 C1492 1.368 . S
C1473 H1497 0.949 . S
H1474 C1478 0.949 . S
C1475 C1476 1.349 . S
C1475 C1477 1.327 . S
C1475 H1498 0.950 . S
C1476 C1475 1.349 . S
C1476 C1488 1.349 . S
C1477 C1475 1.327 . S
C1477 C1493 1.429 . S
C1477 H1499 0.950 . S
C1478 H1474 0.949 . S
C1478 C1486 1.574 . S
C1478 C1494 1.368 . S
H1479 C1487 0.950 . S
H1480 C1485 0.950 . S
H1481 C1486 0.949 . S
H1482 C1488 0.950 . S
H1483 C1489 0.950 . S
H1484 C1490 0.949 . S
C1485 H1480 0.950 . S
C1485 C1487 1.327 . S
C1485 C1491 1.429 . S
C1486 C1478 1.574 . S
C1486 H1481 0.949 . S
C1486 C1492 1.368 . S
C1487 C1471 1.349 . S
C1487 H1479 0.950 . S
C1487 C1485 1.327 . S
C1488 C1476 1.349 . S
C1488 H1482 0.950 . S
C1488 C1489 1.327 . S
C1489 H1483 0.950 . S
C1489 C1488 1.327 . S
C1489 C1493 1.429 . S
C1490 C1473 1.574 . S
C1490 H1484 0.949 . S
C1490 C1494 1.368 . S
C1491 C1472 1.429 . S
C1491 C1485 1.429 . S
C1491 C1492 1.523 . S
C1492 C1473 1.368 . S
C1492 C1486 1.368 . S
C1492 C1491 1.523 . S
C1493 C1477 1.429 . S
C1493 C1489 1.429 . S
C1493 C1494 1.523 . S
C1494 C1478 1.368 . S
C1494 C1490 1.368 . S
C1494 C1493 1.523 . S
H1495 C1470 0.950 . S
H1496 C1472 0.950 . S
H1497 C1473 0.949 . S
H1498 C1475 0.950 . S
H1499 C1477 0.950 . S
C1500 C1501 1.349 . S
C1500 C1502 1.327 . S
C1500 H1525 0.950 . S
C1501 C1500 1.349 . S
C1501 C1517 1.349 . S
C1502 C1500 1.327 . S
C1502 C1521 1.429 . S
C1502 H1526 0.950 . S
C1503 C1520 1.574 1_656 S
C1503 C1522 1.368 . S
C1503 H1527 0.949 . S
H1504 C1508 0.949 . S
C1505 C1506 1.349 . S
C1505 C1507 1.327 . S
C1505 H1528 0.950 . S
C1506 C1505 1.349 . S
C1506 C1518 1.349 . S
C1507 C1505 1.327 . S
C1507 C1523 1.429 . S
C1507 H1529 0.950 . S
C1508 H1504 0.949 . S
C1508 C1516 1.574 1_454 S
C1508 C1524 1.368 . S
H1509 C1517 0.950 . S
H1510 C1515 0.950 . S
H1511 C1516 0.949 . S
H1512 C1518 0.950 . S
H1513 C1519 0.950 . S
H1514 C1520 0.949 . S
C1515 H1510 0.950 . S
C1515 C1517 1.327 . S
C1515 C1521 1.429 . S
C1516 C1508 1.574 1_656 S
C1516 H1511 0.949 . S
C1516 C1522 1.368 . S
C1517 C1501 1.349 . S
C1517 H1509 0.950 . S
C1517 C1515 1.327 . S
C1518 C1506 1.349 . S
C1518 H1512 0.950 . S
C1518 C1519 1.327 . S
C1519 H1513 0.950 . S
C1519 C1518 1.327 . S
C1519 C1523 1.429 . S
C1520 C1503 1.574 1_454 S
C1520 H1514 0.949 . S
C1520 C1524 1.368 . S
C1521 C1502 1.429 . S
C1521 C1515 1.429 . S
C1521 C1522 1.523 . S
C1522 C1503 1.368 . S
C1522 C1516 1.368 . S
C1522 C1521 1.523 . S
C1523 C1507 1.429 . S
C1523 C1519 1.429 . S
C1523 C1524 1.523 . S
C1524 C1508 1.368 . S
C1524 C1520 1.368 . S
C1524 C1523 1.523 . S
H1525 C1500 0.950 . S
H1526 C1502 0.950 . S
H1527 C1503 0.949 . S
H1528 C1505 0.950 . S
H1529 C1507 0.950 . S
C1530 C1531 1.349 . S
C1530 C1532 1.327 . S
C1530 H1555 0.950 . S
C1531 C1530 1.349 . S
C1531 C1547 1.349 . S
C1532 C1530 1.327 . S
C1532 C1551 1.429 . S
C1532 H1556 0.950 . S
C1533 C1550 1.581 . S
C1533 C1552 1.368 . S
C1533 H1557 0.949 . S
H1534 C1538 0.949 . S
C1535 C1536 1.349 . S
C1535 C1537 1.327 . S
C1535 H1558 0.950 . S
C1536 C1535 1.349 . S
C1536 C1548 1.349 . S
C1537 C1535 1.327 . S
C1537 C1553 1.429 . S
C1537 H1559 0.950 . S
C1538 H1534 0.949 . S
C1538 C1546 1.581 . S
C1538 C1554 1.368 . S
H1539 C1547 0.950 . S
H1540 C1545 0.950 . S
H1541 C1546 0.954 . S
H1542 C1548 0.950 . S
H1543 C1549 0.950 . S
H1544 C1550 0.954 . S
C1545 H1540 0.950 . S
C1545 C1547 1.327 . S
C1545 C1551 1.429 . S
C1546 C1538 1.581 . S
C1546 H1541 0.954 . S
C1546 C1552 1.357 1_545 S
C1547 C1531 1.349 . S
C1547 H1539 0.950 . S
C1547 C1545 1.327 . S
C1548 C1536 1.349 . S
C1548 H1542 0.950 . S
C1548 C1549 1.327 . S
C1549 H1543 0.950 . S
C1549 C1548 1.327 . S
C1549 C1553 1.429 . S
C1550 C1533 1.581 . S
C1550 H1544 0.954 . S
C1550 C1554 1.357 1_565 S
C1551 C1532 1.429 . S
C1551 C1545 1.429 . S
C1551 C1552 1.523 . S
C1552 C1533 1.368 . S
C1552 C1546 1.357 1_565 S
C1552 C1551 1.523 . S
C1553 C1537 1.429 . S
C1553 C1549 1.429 . S
C1553 C1554 1.523 . S
C1554 C1538 1.368 . S
C1554 C1550 1.357 1_545 S
C1554 C1553 1.523 . S
H1555 C1530 0.950 . S
H1556 C1532 0.950 . S
H1557 C1533 0.949 . S
H1558 C1535 0.950 . S
H1559 C1537 0.950 . S
C481 C169 1.181 . S
C486 C5 1.207 . S
C511 C209 1.181 . S
C516 C45 1.207 . S
C541 C85 1.207 . S
C546 C9 1.181 . S
C571 C125 1.207 . S
C576 C49 1.181 . S
C601 C165 1.207 . S
C606 C89 1.181 . S
C631 C129 1.181 . S
C636 C205 1.207 . S
C661 C329 1.181 . S
C666 C245 1.207 . S
C691 C285 1.207 . S
C696 C369 1.181 . S
C721 C409 1.181 . S
C726 C325 1.207 . S
C751 C365 1.207 . S
C756 C449 1.181 . S
C781 C405 1.207 . S
C786 C249 1.181 . S
C811 C289 1.181 . S
C816 C445 1.207 . S
C841 C179 1.671 . S
C846 C15 1.675 . S
C871 C55 1.675 . S
C876 C219 1.671 . S
C901 C95 1.676 . S
C906 C19 1.672 . S
C931 C135 1.675 . S
C936 C59 1.671 . S
C961 C99 1.671 . S
C966 C175 1.675 . S
C991 C139 1.672 . S
C996 C215 1.676 . S
C1021 C339 1.671 . S
C1026 C255 1.675 . S
C1051 C295 1.676 . S
C1056 C379 1.672 . S
C1081 C335 1.675 . S
C1086 C419 1.671 . S
C1111 C459 1.671 . S
C1116 C375 1.675 . S
C1141 C415 1.676 . S
C1146 C259 1.672 . S
C1171 C299 1.671 . S
C1176 C455 1.675 . S
C1201 C408 1.640 . S
C1206 C8 1.640 . S
C1231 C48 1.640 . S
C1236 C448 1.640 . S
C1261 C88 1.640 . S
C1266 C248 1.640 . S
C1291 C128 1.640 . S
C1296 C288 1.640 . S
C1321 C168 1.640 . S
C1326 C328 1.640 . S
C1351 C368 1.640 . S
C1356 C208 1.640 . S
C1381 C378 2.071 . S
C1386 C18 2.071 . S
C1411 C418 2.071 . S
C1416 C58 2.071 . S
C1441 C98 2.071 . S
C1446 C458 2.071 . S
C1471 C138 2.071 . S
C1476 C258 2.071 . S
C1501 C298 2.071 . S
C1506 C178 2.071 . S
C1531 C338 2.071 . S
C1536 C218 2.071 . S
