# Generated by pormake.
# Topology snl, (6)-cn, num edge types: 1
# Building blocks:
#     Node 0, Type 0, BuildingBlock: BETDAH_clean_sbu_0, # of connection points: 6
#     Node 1, Type 0, BuildingBlock: BETDAH_clean_sbu_0, # of connection points: 6
#     Node 2, Type 0, BuildingBlock: BETDAH_clean_sbu_0, # of connection points: 6
#     Node 3, Type 0, BuildingBlock: BETDAH_clean_sbu_0, # of connection points: 6
#     Node 4, Type 0, BuildingBlock: BETDAH_clean_sbu_0, # of connection points: 6
#     Node 5, Type 0, BuildingBlock: BETDAH_clean_sbu_0, # of connection points: 6
#     Node 6, Type 0, BuildingBlock: BETDAH_clean_sbu_0, # of connection points: 6
#     Node 7, Type 0, BuildingBlock: BETDAH_clean_sbu_0, # of connection points: 6
#     Node 8, Type 0, BuildingBlock: BETDAH_clean_sbu_0, # of connection points: 6
#     Node 9, Type 0, BuildingBlock: BETDAH_clean_sbu_0, # of connection points: 6
#     Node 10, Type 0, BuildingBlock: BETDAH_clean_sbu_0, # of connection points: 6
#     Node 11, Type 0, BuildingBlock: BETDAH_clean_sbu_0, # of connection points: 6
#     Node 12, Type 0, BuildingBlock: BETDAH_clean_sbu_0, # of connection points: 6
#     Node 13, Type 0, BuildingBlock: BETDAH_clean_sbu_0, # of connection points: 6
#     Node 14, Type 0, BuildingBlock: BETDAH_clean_sbu_0, # of connection points: 6
#     Node 15, Type 0, BuildingBlock: BETDAH_clean_sbu_0, # of connection points: 6
#     Edge 16, Type (0, 0), BuildingBlock: XIVTED_clean_linker_0, # of connection points: 2
#     Edge 17, Type (0, 0), BuildingBlock: XIVTED_clean_linker_0, # of connection points: 2
#     Edge 18, Type (0, 0), BuildingBlock: XIVTED_clean_linker_0, # of connection points: 2
#     Edge 19, Type (0, 0), BuildingBlock: XIVTED_clean_linker_0, # of connection points: 2
#     Edge 20, Type (0, 0), BuildingBlock: XIVTED_clean_linker_0, # of connection points: 2
#     Edge 21, Type (0, 0), BuildingBlock: XIVTED_clean_linker_0, # of connection points: 2
#     Edge 22, Type (0, 0), BuildingBlock: XIVTED_clean_linker_0, # of connection points: 2
#     Edge 23, Type (0, 0), BuildingBlock: XIVTED_clean_linker_0, # of connection points: 2
#     Edge 24, Type (0, 0), BuildingBlock: XIVTED_clean_linker_0, # of connection points: 2
#     Edge 25, Type (0, 0), BuildingBlock: XIVTED_clean_linker_0, # of connection points: 2
#     Edge 26, Type (0, 0), BuildingBlock: XIVTED_clean_linker_0, # of connection points: 2
#     Edge 27, Type (0, 0), BuildingBlock: XIVTED_clean_linker_0, # of connection points: 2
#     Edge 28, Type (0, 0), BuildingBlock: XIVTED_clean_linker_0, # of connection points: 2
#     Edge 29, Type (0, 0), BuildingBlock: XIVTED_clean_linker_0, # of connection points: 2
#     Edge 30, Type (0, 0), BuildingBlock: XIVTED_clean_linker_0, # of connection points: 2
#     Edge 31, Type (0, 0), BuildingBlock: XIVTED_clean_linker_0, # of connection points: 2
#     Edge 32, Type (0, 0), BuildingBlock: XIVTED_clean_linker_0, # of connection points: 2
#     Edge 33, Type (0, 0), BuildingBlock: XIVTED_clean_linker_0, # of connection points: 2
#     Edge 34, Type (0, 0), BuildingBlock: XIVTED_clean_linker_0, # of connection points: 2
#     Edge 35, Type (0, 0), BuildingBlock: XIVTED_clean_linker_0, # of connection points: 2
#     Edge 36, Type (0, 0), BuildingBlock: XIVTED_clean_linker_0, # of connection points: 2
#     Edge 37, Type (0, 0), BuildingBlock: XIVTED_clean_linker_0, # of connection points: 2
#     Edge 38, Type (0, 0), BuildingBlock: XIVTED_clean_linker_0, # of connection points: 2
#     Edge 39, Type (0, 0), BuildingBlock: XIVTED_clean_linker_0, # of connection points: 2
#     Edge 40, Type (0, 0), BuildingBlock: XIVTED_clean_linker_0, # of connection points: 2
#     Edge 41, Type (0, 0), BuildingBlock: XIVTED_clean_linker_0, # of connection points: 2
#     Edge 42, Type (0, 0), BuildingBlock: XIVTED_clean_linker_0, # of connection points: 2
#     Edge 43, Type (0, 0), BuildingBlock: XIVTED_clean_linker_0, # of connection points: 2
#     Edge 44, Type (0, 0), BuildingBlock: XIVTED_clean_linker_0, # of connection points: 2
#     Edge 45, Type (0, 0), BuildingBlock: XIVTED_clean_linker_0, # of connection points: 2
#     Edge 46, Type (0, 0), BuildingBlock: XIVTED_clean_linker_0, # of connection points: 2
#     Edge 47, Type (0, 0), BuildingBlock: XIVTED_clean_linker_0, # of connection points: 2
#     Edge 48, Type (0, 0), BuildingBlock: XIVTED_clean_linker_0, # of connection points: 2
#     Edge 49, Type (0, 0), BuildingBlock: XIVTED_clean_linker_0, # of connection points: 2
#     Edge 50, Type (0, 0), BuildingBlock: XIVTED_clean_linker_0, # of connection points: 2
#     Edge 51, Type (0, 0), BuildingBlock: XIVTED_clean_linker_0, # of connection points: 2
#     Edge 52, Type (0, 0), BuildingBlock: XIVTED_clean_linker_0, # of connection points: 2
#     Edge 53, Type (0, 0), BuildingBlock: XIVTED_clean_linker_0, # of connection points: 2
#     Edge 54, Type (0, 0), BuildingBlock: XIVTED_clean_linker_0, # of connection points: 2
#     Edge 55, Type (0, 0), BuildingBlock: XIVTED_clean_linker_0, # of connection points: 2
#     Edge 56, Type (0, 0), BuildingBlock: XIVTED_clean_linker_0, # of connection points: 2
#     Edge 57, Type (0, 0), BuildingBlock: XIVTED_clean_linker_0, # of connection points: 2
#     Edge 58, Type (0, 0), BuildingBlock: XIVTED_clean_linker_0, # of connection points: 2
#     Edge 59, Type (0, 0), BuildingBlock: XIVTED_clean_linker_0, # of connection points: 2
#     Edge 60, Type (0, 0), BuildingBlock: XIVTED_clean_linker_0, # of connection points: 2
#     Edge 61, Type (0, 0), BuildingBlock: XIVTED_clean_linker_0, # of connection points: 2
#     Edge 62, Type (0, 0), BuildingBlock: XIVTED_clean_linker_0, # of connection points: 2
#     Edge 63, Type (0, 0), BuildingBlock: XIVTED_clean_linker_0, # of connection points: 2
# Relax obj value: 0.195
# Max RMSD: 0.270
# Mean RMSD: 0.231
data_MOF--net-snl--node1-BETDAH_clean_sbu_0--edge1-XIVTED_clean_linker_0
_symmetry_space_group_name_H-M    P1
_symmetry_Int_Tables_number       1
_symmetry_cell_setting            triclinic
loop_
_symmetry_equiv_pos_as_xyz
'x, y, z'
_cell_length_a     57.095
_cell_length_b     57.30834
_cell_length_c     25.96682
_cell_angle_alpha  101.00798
_cell_angle_beta   91.508941
_cell_angle_gamma 89.928042
loop_
_atom_site_label
_atom_site_type_symbol
_atom_site_fract_x
_atom_site_fract_y
_atom_site_fract_z
_atom_type_partial_charge
Ho0 Ho 0.1472 0.62662 0.11869 0.0
Ho1 Ho 0.12546 0.63204 0.22329 0.0
C2 C 0.09043 0.6341 0.12984 0.0
C3 C 0.1591 0.61351 0.02145 0.0
C4 C 0.15236 0.61604 0.96728 0.0
C5 C 0.15322 0.596 0.92679 0.0
C6 C 0.14908 0.59804 0.87445 0.0
C7 C 0.14403 0.62025 0.86121 0.0
C8 C 0.14265 0.64026 0.90208 0.0
C9 C 0.14674 0.63819 0.95455 0.0
C10 C 0.14468 0.67266 0.17 0.0
C11 C 0.18186 0.62772 0.21731 0.0
C12 C 0.11269 0.64278 0.32031 0.0
C13 C 0.11955 0.64006 0.37434 0.0
C14 C 0.11875 0.66 0.4151 0.0
C15 C 0.12299 0.65782 0.46731 0.0
C16 C 0.12808 0.63555 0.4802 0.0
C17 C 0.12936 0.61562 0.43909 0.0
C18 C 0.12517 0.61784 0.38674 0.0
C19 C 0.12745 0.58668 0.16704 0.0
O20 O 0.10751 0.62429 0.09919 0.0
O21 O 0.09472 0.64311 0.17972 0.0
O22 O 0.16756 0.63226 0.05308 0.0
O23 O 0.14523 0.60105 0.04509 0.0
O24 O 0.16202 0.66357 0.14196 0.0
O25 O 0.12898 0.65697 0.16815 0.0
O26 O 0.16381 0.63638 0.24538 0.0
O27 O 0.17913 0.61873 0.16653 0.0
O28 O 0.10556 0.62382 0.28733 0.0
O29 O 0.12562 0.65668 0.29816 0.0
O30 O 0.10978 0.59538 0.1945 0.0
O31 O 0.14343 0.60212 0.17247 0.0
H32 H 0.15768 0.57876 0.93556 0.0
H33 H 0.15059 0.58228 0.8442 0.0
H34 H 0.13847 0.65759 0.89354 0.0
H35 H 0.14589 0.65396 0.985 0.0
H36 H 0.11425 0.67729 0.40666 0.0
H37 H 0.12153 0.67351 0.49775 0.0
H38 H 0.13355 0.59825 0.44737 0.0
H39 H 0.12595 0.60213 0.35614 0.0
Ho40 Ho 0.64977 0.89189 0.41984 0.0
Ho41 Ho 0.62639 0.88934 0.31487 0.0
C42 C 0.59242 0.88603 0.40617 0.0
C43 C 0.66323 0.90294 0.51795 0.0
C44 C 0.65617 0.90112 0.57166 0.0
C45 C 0.65591 0.92176 0.61072 0.0
C46 C 0.65173 0.92044 0.66299 0.0
C47 C 0.64781 0.89838 0.67768 0.0
C48 C 0.64744 0.87775 0.63817 0.0
C49 C 0.6516 0.87909 0.58579 0.0
C50 C 0.64555 0.84689 0.36363 0.0
C51 C 0.6832 0.89072 0.32291 0.0
C52 C 0.61216 0.88117 0.2171 0.0
C53 C 0.61941 0.88303 0.16348 0.0
C54 C 0.61984 0.86242 0.12434 0.0
C55 C 0.62408 0.86379 0.07213 0.0
C56 C 0.62789 0.88588 0.05753 0.0
C57 C 0.62809 0.90649 0.09707 0.0
C58 C 0.62386 0.9051 0.14939 0.0
C59 C 0.6303 0.93364 0.37588 0.0
O60 O 0.61038 0.89426 0.43825 0.0
O61 O 0.59551 0.87869 0.35557 0.0
O62 O 0.66926 0.88342 0.48638 0.0
O63 O 0.6512 0.91722 0.49376 0.0
O64 O 0.66354 0.85499 0.39294 0.0
O65 O 0.63014 0.86294 0.36683 0.0
O66 O 0.66428 0.88379 0.29369 0.0
O67 O 0.68166 0.89874 0.37413 0.0
O68 O 0.60797 0.90083 0.25025 0.0
O69 O 0.62267 0.8653 0.23953 0.0
O70 O 0.61191 0.92585 0.34761 0.0
O71 O 0.64588 0.91785 0.36908 0.0
H72 H 0.65944 0.93895 0.60096 0.0
H73 H 0.65173 0.93676 0.69199 0.0
H74 H 0.6447 0.86043 0.6479 0.0
H75 H 0.65177 0.86282 0.55666 0.0
H76 H 0.61635 0.84518 0.13395 0.0
H77 H 0.6242 0.84748 0.04311 0.0
H78 H 0.63073 0.92384 0.08738 0.0
H79 H 0.62352 0.92138 0.17848 0.0
Ho80 Ho 0.3676 0.38491 0.5657 0.0
Ho81 Ho 0.38859 0.39817 0.6812 0.0
C82 C 0.42367 0.3803 0.58926 0.0
C83 C 0.35312 0.39097 0.47398 0.0
C84 C 0.35728 0.38361 0.41743 0.0
C85 C 0.3798 0.37783 0.39858 0.0
C86 C 0.38388 0.37452 0.34472 0.0
C87 C 0.36554 0.37695 0.30874 0.0
C88 C 0.34284 0.38168 0.32781 0.0
C89 C 0.33879 0.385 0.38159 0.0
C90 C 0.37554 0.34431 0.60355 0.0
C91 C 0.33303 0.38999 0.66418 0.0
C92 C 0.40102 0.40487 0.7795 0.0
C93 C 0.39601 0.39751 0.82963 0.0
C94 C 0.37337 0.39854 0.84991 0.0
C95 C 0.36977 0.39369 0.90004 0.0
C96 C 0.38875 0.38785 0.9309 0.0
C97 C 0.41123 0.38614 0.90962 0.0
C98 C 0.4148 0.39096 0.85966 0.0
C99 C 0.3863 0.43354 0.62367 0.0
O100 O 0.40728 0.38456 0.5548 0.0
O101 O 0.41936 0.38113 0.63925 0.0
O102 O 0.34367 0.37545 0.49842 0.0
O103 O 0.36968 0.40374 0.50186 0.0
O104 O 0.368 0.34465 0.55604 0.0
O105 O 0.37908 0.36553 0.62664 0.0
O106 O 0.35171 0.38848 0.69446 0.0
O107 O 0.33472 0.39172 0.614 0.0
O108 O 0.38542 0.41792 0.76033 0.0
O109 O 0.4108 0.38909 0.7433 0.0
O110 O 0.40322 0.4311 0.65643 0.0
O111 O 0.37119 0.41766 0.62489 0.0
H112 H 0.39435 0.37665 0.42559 0.0
H113 H 0.40151 0.37053 0.33135 0.0
H114 H 0.32835 0.38394 0.30149 0.0
H115 H 0.32133 0.38963 0.39541 0.0
H116 H 0.35856 0.40365 0.82769 0.0
H117 H 0.35225 0.39536 0.91532 0.0
H118 H 0.42618 0.38128 0.93181 0.0
H119 H 0.43242 0.39008 0.84489 0.0
Ho120 Ho 0.87799 0.11381 0.84554 0.0
Ho121 Ho 0.87911 0.14059 0.9659 0.0
C122 C 0.88298 0.1719 0.87893 0.0
C123 C 0.86272 0.09818 0.75031 0.0
C124 C 0.86642 0.10148 0.69582 0.0
C125 C 0.84688 0.10132 0.66188 0.0
C126 C 0.84951 0.10434 0.61008 0.0
C127 C 0.87184 0.10757 0.59065 0.0
C128 C 0.89146 0.10789 0.625 0.0
C129 C 0.88879 0.10489 0.67703 0.0
C130 C 0.92297 0.12528 0.87929 0.0
C131 C 0.87674 0.08252 0.93877 0.0
C132 C 0.8877 0.1549 0.06565 0.0
C133 C 0.8865 0.1465 0.11642 0.0
C134 C 0.90712 0.14525 0.1465 0.0
C135 C 0.90631 0.13959 0.19663 0.0
C136 C 0.88478 0.13513 0.21834 0.0
C137 C 0.86416 0.13588 0.18764 0.0
C138 C 0.86499 0.14151 0.13741 0.0
C139 C 0.83693 0.13577 0.91301 0.0
O140 O 0.87445 0.15344 0.84437 0.0
O141 O 0.89021 0.17001 0.92678 0.0
O142 O 0.87921 0.08758 0.77343 0.0
O143 O 0.85346 0.11619 0.78187 0.0
O144 O 0.91704 0.11494 0.83187 0.0
O145 O 0.90443 0.12887 0.90491 0.0
O146 O 0.87924 0.10242 0.97394 0.0
O147 O 0.87466 0.08227 0.88727 0.0
O148 O 0.86792 0.15875 0.04203 0.0
O149 O 0.90356 0.14531 0.03264 0.0
O150 O 0.8428 0.15404 0.94896 0.0
O151 O 0.8532 0.12068 0.90939 0.0
H152 H 0.82943 0.09892 0.67556 0.0
H153 H 0.83392 0.10445 0.58546 0.0
H154 H 0.90895 0.11012 0.61151 0.0
H155 H 0.90417 0.10519 0.70246 0.0
H156 H 0.92394 0.1491 0.13157 0.0
H157 H 0.92261 0.1388 0.21847 0.0
H158 H 0.84722 0.13285 0.20301 0.0
H159 H 0.84871 0.14246 0.11559 0.0
Ho160 Ho 0.14544 0.38989 0.94047 0.0
Ho161 Ho 0.12107 0.38923 0.83674 0.0
C162 C 0.08854 0.38292 0.92828 0.0
C163 C 0.15988 0.39855 0.03818 0.0
C164 C 0.15346 0.39587 0.09179 0.0
C165 C 0.13212 0.40422 0.11409 0.0
C166 C 0.12755 0.40298 0.16642 0.0
C167 C 0.14419 0.39336 0.19758 0.0
C168 C 0.16534 0.38473 0.17464 0.0
C169 C 0.16989 0.38601 0.12255 0.0
C170 C 0.14251 0.34589 0.87881 0.0
C171 C 0.17773 0.39359 0.84377 0.0
C172 C 0.10613 0.38224 0.73951 0.0
C173 C 0.11248 0.38597 0.68657 0.0
C174 C 0.13407 0.3785 0.66428 0.0
C175 C 0.13855 0.38026 0.61224 0.0
C176 C 0.12158 0.38954 0.58129 0.0
C177 C 0.10023 0.39749 0.6043 0.0
C178 C 0.09576 0.39568 0.65618 0.0
C179 C 0.1241 0.43251 0.90198 0.0
O180 O 0.10641 0.39124 0.9603 0.0
O181 O 0.09131 0.37645 0.87739 0.0
O182 O 0.16491 0.37919 1.00497 0.0
O183 O 0.14817 0.41377 0.01598 0.0
O184 O 0.16049 0.35407 0.90808 0.0
O185 O 0.12648 0.36137 0.88464 0.0
O186 O 0.15886 0.38726 0.81397 0.0
O187 O 0.17654 0.39893 0.89563 0.0
O188 O 0.10094 0.40104 0.77435 0.0
O189 O 0.11813 0.36662 0.75991 0.0
O190 O 0.10579 0.42492 0.87316 0.0
O191 O 0.14008 0.4172 0.89336 0.0
H192 H 0.11908 0.41193 0.09138 0.0
H193 H 0.11096 0.40954 0.18243 0.0
H194 H 0.17876 0.37755 0.19738 0.0
H195 H 0.18658 0.37967 0.10652 0.0
H196 H 0.14733 0.37092 0.68669 0.0
H197 H 0.15531 0.37427 0.59621 0.0
H198 H 0.0866 0.40444 0.58172 0.0
H199 H 0.07891 0.40136 0.67222 0.0
Ho200 Ho 0.87588 0.90055 0.18199 0.0
Ho201 Ho 0.87297 0.87381 0.06213 0.0
C202 C 0.88331 0.84254 0.14847 0.0
C203 C 0.86228 0.91595 0.27683 0.0
C204 C 0.86628 0.91306 0.33176 0.0
C205 C 0.84709 0.91523 0.36489 0.0
C206 C 0.84989 0.91265 0.41716 0.0
C207 C 0.87203 0.90783 0.43779 0.0
C208 C 0.89129 0.90544 0.40425 0.0
C209 C 0.88845 0.90803 0.35169 0.0
C210 C 0.91976 0.89243 0.1441 0.0
C211 C 0.87297 0.93173 0.0891 0.0
C212 C 0.8765 0.85909 0.96173 0.0
C213 C 0.87784 0.86825 0.91192 0.0
C214 C 0.89913 0.86739 0.88559 0.0
C215 C 0.90012 0.87354 0.83595 0.0
C216 C 0.87981 0.88058 0.81108 0.0
C217 C 0.85861 0.8819 0.83799 0.0
C218 C 0.85762 0.87579 0.88763 0.0
C219 C 0.83297 0.87778 0.11839 0.0
O220 O 0.87655 0.86077 0.18505 0.0
O221 O 0.88637 0.84443 0.09915 0.0
O222 O 0.87862 0.92643 0.25469 0.0
O223 O 0.8527 0.8978 0.24499 0.0
O224 O 0.91541 0.90366 0.19123 0.0
O225 O 0.90036 0.88646 0.12095 0.0
O226 O 0.87567 0.91187 0.05435 0.0
O227 O 0.87061 0.93192 0.14022 0.0
O228 O 0.85656 0.8614 0.98592 0.0
O229 O 0.89461 0.86259 0.99437 0.0
O230 O 0.83829 0.85921 0.08351 0.0
O231 O 0.84873 0.89331 0.12007 0.0
H232 H 0.82979 0.91889 0.35021 0.0
H233 H 0.83456 0.91413 0.44123 0.0
H234 H 0.90863 0.90188 0.41877 0.0
H235 H 0.90352 0.90616 0.32677 0.0
H236 H 0.91498 0.86146 0.90292 0.0
H237 H 0.91683 0.87261 0.81691 0.0
H238 H 0.84252 0.88689 0.81998 0.0
H239 H 0.84083 0.87639 0.90629 0.0
Ho240 Ho 0.37628 0.61136 0.3664 0.0
Ho241 Ho 0.37654 0.6365 0.47896 0.0
C242 C 0.38074 0.66985 0.39669 0.0
C243 C 0.36813 0.59633 0.26638 0.0
C244 C 0.36863 0.60367 0.21458 0.0
C245 C 0.35011 0.59676 0.17828 0.0
C246 C 0.35091 0.60135 0.12725 0.0
C247 C 0.37033 0.61297 0.11105 0.0
C248 C 0.38868 0.62038 0.14798 0.0
C249 C 0.38784 0.6158 0.19916 0.0
C250 C 0.41922 0.61502 0.41373 0.0
C251 C 0.37572 0.57867 0.45335 0.0
C252 C 0.38285 0.65181 0.57938 0.0
C253 C 0.38235 0.64413 0.63084 0.0
C254 C 0.40056 0.65136 0.66778 0.0
C255 C 0.39972 0.64638 0.71847 0.0
C256 C 0.38056 0.63407 0.73371 0.0
C257 C 0.36252 0.62638 0.69618 0.0
C258 C 0.36341 0.63132 0.64531 0.0
C259 C 0.33391 0.632 0.42795 0.0
O260 O 0.37374 0.65099 0.3613 0.0
O261 O 0.38674 0.66778 0.44497 0.0
O262 O 0.38817 0.59394 0.29022 0.0
O263 O 0.35212 0.60572 0.29892 0.0
O264 O 0.4115 0.59656 0.38095 0.0
O265 O 0.40399 0.63133 0.41899 0.0
O266 O 0.38168 0.59831 0.48665 0.0
O267 O 0.36907 0.57939 0.40423 0.0
O268 O 0.36291 0.65299 0.55415 0.0
O269 O 0.39975 0.64368 0.54797 0.0
O270 O 0.34092 0.65084 0.46064 0.0
O271 O 0.34948 0.61625 0.42542 0.0
H272 H 0.33518 0.58722 0.18904 0.0
H273 H 0.33657 0.59508 0.10001 0.0
H274 H 0.40375 0.62969 0.13733 0.0
H275 H 0.40238 0.6214 0.22632 0.0
H276 H 0.41526 0.66143 0.6578 0.0
H277 H 0.4138 0.65288 0.74623 0.0
H278 H 0.34764 0.61656 0.70614 0.0
H279 H 0.3491 0.62545 0.61766 0.0
Ho280 Ho 0.6499 0.12594 0.60224 0.0
Ho281 Ho 0.62808 0.13061 0.70603 0.0
C282 C 0.59297 0.13355 0.61327 0.0
C283 C 0.66194 0.11322 0.50506 0.0
C284 C 0.65503 0.11566 0.45092 0.0
C285 C 0.65424 0.09529 0.41115 0.0
C286 C 0.65011 0.09713 0.3587 0.0
C287 C 0.64675 0.11947 0.34463 0.0
C288 C 0.6469 0.13984 0.38483 0.0
C289 C 0.65101 0.13796 0.43738 0.0
C290 C 0.64759 0.17172 0.65461 0.0
C291 C 0.68459 0.1273 0.70108 0.0
C292 C 0.61509 0.14041 0.80295 0.0
C293 C 0.62195 0.13752 0.85688 0.0
C294 C 0.62314 0.15772 0.89709 0.0
C295 C 0.62715 0.15554 0.94936 0.0
C296 C 0.62999 0.13304 0.96287 0.0
C297 C 0.62944 0.11282 0.92229 0.0
C298 C 0.62544 0.11502 0.86989 0.0
C299 C 0.63062 0.08544 0.64861 0.0
O300 O 0.61012 0.12403 0.58236 0.0
O301 O 0.59724 0.14202 0.66338 0.0
O302 O 0.67006 0.1321 0.53679 0.0
O303 O 0.64843 0.10039 0.52862 0.0
O304 O 0.66496 0.16264 0.62666 0.0
O305 O 0.6317 0.15616 0.65218 0.0
O306 O 0.66632 0.13542 0.72901 0.0
O307 O 0.68204 0.11848 0.65015 0.0
O308 O 0.6083 0.1215 0.76937 0.0
O309 O 0.62774 0.15476 0.78144 0.0
O310 O 0.61266 0.09392 0.67529 0.0
O311 O 0.64644 0.10103 0.65505 0.0
H312 H 0.65732 0.07789 0.42056 0.0
H313 H 0.64968 0.08101 0.32911 0.0
H314 H 0.64459 0.15735 0.37559 0.0
H315 H 0.65156 0.15402 0.46717 0.0
H316 H 0.62045 0.17527 0.88819 0.0
H317 H 0.62788 0.17154 0.97928 0.0
H318 H 0.63135 0.09519 0.93113 0.0
H319 H 0.62453 0.09907 0.83982 0.0
Ho320 Ho 0.88423 0.38661 0.82725 0.0
Ho321 Ho 0.86066 0.38938 0.92924 0.0
C322 C 0.82762 0.38862 0.82861 0.0
C323 C 0.89828 0.37842 0.731 0.0
C324 C 0.89108 0.38133 0.67705 0.0
C325 C 0.88046 0.36239 0.64172 0.0
C326 C 0.8761 0.36401 0.58916 0.0
C327 C 0.88235 0.38456 0.57036 0.0
C328 C 0.89251 0.40369 0.60601 0.0
C329 C 0.89691 0.40206 0.65857 0.0
C330 C 0.88082 0.431 0.88718 0.0
C331 C 0.91771 0.383 0.92245 0.0
C332 C 0.84736 0.40022 0.0259 0.0
C333 C 0.85437 0.39756 0.08009 0.0
C334 C 0.86381 0.41704 0.11581 0.0
C335 C 0.86813 0.41561 0.16849 0.0
C336 C 0.86297 0.3947 0.18703 0.0
C337 C 0.85395 0.37505 0.15098 0.0
C338 C 0.84965 0.37648 0.09828 0.0
C339 C 0.8645 0.34427 0.87351 0.0
O340 O 0.8464 0.38128 0.80177 0.0
O341 O 0.82918 0.39686 0.87987 0.0
O342 O 0.90371 0.39755 0.76537 0.0
O343 O 0.88684 0.36292 0.75181 0.0
O344 O 0.89913 0.42307 0.86116 0.0
O345 O 0.86502 0.41532 0.87894 0.0
O346 O 0.89997 0.39175 0.95229 0.0
O347 O 0.91452 0.37531 0.87166 0.0
O348 O 0.84044 0.38119 0.99288 0.0
O349 O 0.85997 0.41431 1.00352 0.0
O350 O 0.84653 0.35245 0.90057 0.0
O351 O 0.88002 0.3603 0.87885 0.0
H352 H 0.87598 0.34604 0.65436 0.0
H353 H 0.86796 0.34903 0.56312 0.0
H354 H 0.89786 0.41968 0.59293 0.0
H355 H 0.90547 0.41686 0.68434 0.0
H356 H 0.86741 0.43363 0.10328 0.0
H357 H 0.8754 0.431 0.19479 0.0
H358 H 0.84943 0.35876 0.16378 0.0
H359 H 0.84205 0.3612 0.07217 0.0
Ho360 Ho 0.38527 0.13389 0.69784 0.0
Ho361 Ho 0.36279 0.13012 0.59371 0.0
C362 C 0.32876 0.13117 0.68947 0.0
C363 C 0.3988 0.14299 0.79615 0.0
C364 C 0.39168 0.14027 0.84943 0.0
C365 C 0.38561 0.16048 0.88641 0.0
C366 C 0.38145 0.15885 0.93853 0.0
C367 C 0.38339 0.13695 0.95529 0.0
C368 C 0.38891 0.11659 0.91791 0.0
C369 C 0.39307 0.11824 0.86571 0.0
C370 C 0.38216 0.08874 0.63982 0.0
C371 C 0.42 0.13615 0.60851 0.0
C372 C 0.35004 0.1187 0.49511 0.0
C373 C 0.35695 0.12141 0.44173 0.0
C374 C 0.36245 0.10111 0.40448 0.0
C375 C 0.36651 0.10273 0.35231 0.0
C376 C 0.36504 0.12473 0.33582 0.0
C377 C 0.3601 0.14517 0.37351 0.0
C378 C 0.35606 0.14354 0.42577 0.0
C379 C 0.36686 0.17605 0.64661 0.0
O380 O 0.34736 0.13928 0.71847 0.0
O381 O 0.3308 0.1225 0.63864 0.0
O382 O 0.40473 0.12392 0.76298 0.0
O383 O 0.38697 0.15793 0.7734 0.0
O384 O 0.40029 0.09733 0.66803 0.0
O385 O 0.36627 0.10425 0.64489 0.0
O386 O 0.40235 0.12699 0.57652 0.0
O387 O 0.41627 0.14479 0.65825 0.0
O388 O 0.34259 0.13751 0.527 0.0
O389 O 0.36305 0.10517 0.51929 0.0
O390 O 0.34876 0.16715 0.61872 0.0
O391 O 0.38228 0.16003 0.64459 0.0
H392 H 0.3846 0.17775 0.8753 0.0
H393 H 0.37688 0.17485 0.96584 0.0
H394 H 0.39083 0.09947 0.92934 0.0
H395 H 0.39797 0.10231 0.83853 0.0
H396 H 0.3631 0.0838 0.41548 0.0
H397 H 0.37066 0.08666 0.32479 0.0
H398 H 0.35856 0.16238 0.36234 0.0
H399 H 0.35168 0.15954 0.45327 0.0
Ho400 Ho 0.6374 0.64263 0.45333 0.0
Ho401 Ho 0.63233 0.61659 0.34106 0.0
C402 C 0.63939 0.58478 0.42881 0.0
C403 C 0.63475 0.65846 0.55376 0.0
C404 C 0.63508 0.65042 0.60502 0.0
C405 C 0.61449 0.65169 0.6339 0.0
C406 C 0.61478 0.64655 0.68453 0.0
C407 C 0.63575 0.64015 0.70794 0.0
C408 C 0.65631 0.63849 0.67864 0.0
C409 C 0.65599 0.64358 0.62786 0.0
C410 C 0.67712 0.63916 0.39667 0.0
C411 C 0.62949 0.67477 0.36957 0.0
C412 C 0.63441 0.60104 0.24035 0.0
C413 C 0.63555 0.60917 0.1893 0.0
C414 C 0.65664 0.60742 0.16202 0.0
C415 C 0.6573 0.6122 0.11108 0.0
C416 C 0.63684 0.61867 0.08584 0.0
C417 C 0.61588 0.621 0.11372 0.0
C418 C 0.61522 0.61627 0.16466 0.0
C419 C 0.59251 0.61902 0.39601 0.0
O420 O 0.63533 0.60449 0.46306 0.0
O421 O 0.64177 0.58505 0.3782 0.0
O422 O 0.65425 0.65745 0.52816 0.0
O423 O 0.61647 0.65267 0.52253 0.0
O424 O 0.67139 0.65784 0.43062 0.0
O425 O 0.66209 0.62304 0.3961 0.0
O426 O 0.63546 0.65576 0.33458 0.0
O427 O 0.62539 0.67329 0.41852 0.0
O428 O 0.61488 0.60443 0.26577 0.0
O429 O 0.65285 0.60437 0.27185 0.0
O430 O 0.59923 0.60053 0.36287 0.0
O431 O 0.60704 0.63584 0.39762 0.0
H432 H 0.59818 0.65726 0.61781 0.0
H433 H 0.59867 0.64837 0.70598 0.0
H434 H 0.67272 0.63334 0.69503 0.0
H435 H 0.67224 0.64255 0.60698 0.0
H436 H 0.67254 0.60166 0.17949 0.0
H437 H 0.67372 0.60996 0.09078 0.0
H438 H 0.59984 0.62629 0.096 0.0
H439 H 0.59861 0.61764 0.18417 0.0
Ho440 Ho 0.13622 0.87466 0.06146 0.0
Ho441 Ho 0.13578 0.90251 0.18088 0.0
C442 C 0.13869 0.93289 0.08661 0.0
C443 C 0.12943 0.8595 0.96146 0.0
C444 C 0.13167 0.86748 0.91056 0.0
C445 C 0.1187 0.88666 0.89805 0.0
C446 C 0.12013 0.89265 0.84822 0.0
C447 C 0.13461 0.8797 0.80986 0.0
C448 C 0.14775 0.86076 0.82289 0.0
C449 C 0.14623 0.85471 0.87244 0.0
C450 C 0.17759 0.87943 0.11735 0.0
C451 C 0.12976 0.84423 0.14949 0.0
C452 C 0.14963 0.9175 0.27747 0.0
C453 C 0.14556 0.91298 0.33124 0.0
C454 C 0.15922 0.89613 0.35133 0.0
C455 C 0.15696 0.89303 0.40316 0.0
C456 C 0.14111 0.90681 0.43677 0.0
C457 C 0.12719 0.92346 0.41651 0.0
C458 C 0.12946 0.92657 0.3645 0.0
C459 C 0.09115 0.89257 0.14236 0.0
O460 O 0.13609 0.91276 0.05208 0.0
O461 O 0.14064 0.93353 0.13828 0.0
O462 O 0.14892 0.85623 0.98674 0.0
O463 O 0.11295 0.869 0.99291 0.0
O464 O 0.17186 0.86094 0.08191 0.0
O465 O 0.16163 0.89481 0.11919 0.0
O466 O 0.1375 0.86295 0.18442 0.0
O467 O 0.12394 0.84562 0.10051 0.0
O468 O 0.13307 0.92796 0.25423 0.0
O469 O 0.15998 0.90056 0.24498 0.0
O470 O 0.09623 0.90472 0.18879 0.0
O471 O 0.11029 0.8869 0.12037 0.0
H472 H 0.1073 0.8969 0.92649 0.0
H473 H 0.10995 0.9075 0.83981 0.0
H474 H 0.15882 0.85015 0.79427 0.0
H475 H 0.15622 0.8397 0.88072 0.0
H476 H 0.172 0.88548 0.32723 0.0
H477 H 0.16773 0.87978 0.41688 0.0
H478 H 0.11498 0.93459 0.44127 0.0
H479 H 0.11891 0.93996 0.35068 0.0
Ho480 Ho 0.88314 0.62964 0.21161 0.0
Ho481 Ho 0.86154 0.62288 0.09519 0.0
C482 C 0.82642 0.62791 0.19423 0.0
C483 C 0.89534 0.64199 0.31007 0.0
C484 C 0.88839 0.6392 0.36312 0.0
C485 C 0.89123 0.65852 0.405 0.0
C486 C 0.88688 0.65601 0.45647 0.0
C487 C 0.87963 0.63404 0.46743 0.0
C488 C 0.87613 0.61483 0.42507 0.0
C489 C 0.88048 0.61737 0.37346 0.0
C490 C 0.88044 0.58465 0.15361 0.0
C491 C 0.91752 0.63155 0.1196 0.0
C492 C 0.84849 0.60361 1.0004 0.0
C493 C 0.8523 0.607 0.94624 0.0
C494 C 0.84792 0.58808 0.9042 0.0
C495 C 0.85085 0.59095 0.85239 0.0
C496 C 0.85823 0.61289 0.84138 0.0
C497 C 0.86286 0.63178 0.88388 0.0
C498 C 0.85994 0.62886 0.93576 0.0
C499 C 0.87111 0.66973 0.13294 0.0
O500 O 0.84474 0.63171 0.22708 0.0
O501 O 0.82839 0.62231 0.14227 0.0
O502 O 0.90336 0.62317 0.27894 0.0
O503 O 0.88187 0.65497 0.28533 0.0
O504 O 0.89735 0.59223 0.18691 0.0
O505 O 0.86549 0.60087 0.15494 0.0
O506 O 0.90134 0.61985 0.08661 0.0
O507 O 0.91268 0.64141 0.16842 0.0
O508 O 0.83649 0.62015 0.03048 0.0
O509 O 0.86653 0.59622 0.02509 0.0
O510 O 0.86282 0.66145 0.08605 0.0
O511 O 0.87393 0.65241 0.15585 0.0
H512 H 0.89727 0.67553 0.39801 0.0
H513 H 0.88933 0.67133 0.48777 0.0
H514 H 0.87072 0.5976 0.43191 0.0
H515 H 0.87814 0.60216 0.34185 0.0
H516 H 0.84214 0.57102 0.91145 0.0
H517 H 0.84752 0.57586 0.82096 0.0
H518 H 0.86833 0.649 0.87707 0.0
H519 H 0.86346 0.64372 0.96766 0.0
Ho520 Ho 0.14152 0.14103 0.95796 0.0
Ho521 Ho 0.1389 0.11403 0.83883 0.0
C522 C 0.14126 0.08295 0.93228 0.0
C523 C 0.13728 0.15669 0.05782 0.0
C524 C 0.13805 0.14872 0.10901 0.0
C525 C 0.12198 0.13213 0.12128 0.0
C526 C 0.12196 0.1267 0.1718 0.0
C527 C 0.13796 0.13777 0.21119 0.0
C528 C 0.15441 0.15382 0.1981 0.0
C529 C 0.15438 0.15926 0.14784 0.0
C530 C 0.18187 0.13682 0.9029 0.0
C531 C 0.13333 0.17213 0.87114 0.0
C532 C 0.15189 0.09856 0.74351 0.0
C533 C 0.14789 0.10333 0.68956 0.0
C534 C 0.16403 0.11742 0.669 0.0
C535 C 0.16133 0.12137 0.61768 0.0
C536 C 0.14252 0.11116 0.58505 0.0
C537 C 0.12643 0.09685 0.60534 0.0
C538 C 0.12908 0.09298 0.657 0.0
C539 C 0.09485 0.12509 0.87355 0.0
O540 O 0.13997 0.10303 0.96704 0.0
O541 O 0.14243 0.08247 0.88076 0.0
O542 O 0.15708 0.15668 0.03362 0.0
O543 O 0.11948 0.14999 0.0255 0.0
O544 O 0.17636 0.1554 0.9375 0.0
O545 O 0.16608 0.12122 0.90081 0.0
O546 O 0.14081 0.15372 0.83602 0.0
O547 O 0.1285 0.17031 0.9197 0.0
O548 O 0.13502 0.08861 0.76529 0.0
O549 O 0.16289 0.11523 0.77685 0.0
O550 O 0.09951 0.11464 0.82608 0.0
O551 O 0.11408 0.12912 0.89879 0.0
H552 H 0.10911 0.12371 0.09228 0.0
H553 H 0.10893 0.11437 0.18039 0.0
H554 H 0.16733 0.16233 0.22685 0.0
H555 H 0.16695 0.17213 0.13956 0.0
H556 H 0.17901 0.12526 0.69247 0.0
H557 H 0.17433 0.13207 0.6032 0.0
H558 H 0.11168 0.0888 0.58142 0.0
H559 H 0.11648 0.08178 0.67125 0.0
Ho560 Ho 0.63959 0.37476 0.54413 0.0
Ho561 Ho 0.63816 0.40102 0.66581 0.0
C562 C 0.64007 0.43281 0.57384 0.0
C563 C 0.63337 0.35983 0.44397 0.0
C564 C 0.63124 0.36835 0.39358 0.0
C565 C 0.6146 0.35771 0.35565 0.0
C566 C 0.61385 0.36329 0.30542 0.0
C567 C 0.62983 0.37963 0.29167 0.0
C568 C 0.64599 0.39094 0.33047 0.0
C569 C 0.64668 0.38537 0.38085 0.0
C570 C 0.68029 0.37918 0.60198 0.0
C571 C 0.63383 0.34293 0.63089 0.0
C572 C 0.65155 0.41763 0.76194 0.0
C573 C 0.6467 0.41495 0.81611 0.0
C574 C 0.66094 0.42701 0.85748 0.0
C575 C 0.65765 0.42398 0.90903 0.0
C576 C 0.63999 0.40875 0.92053 0.0
C577 C 0.6256 0.39678 0.87877 0.0
C578 C 0.62894 0.39984 0.82704 0.0
C579 C 0.59427 0.38981 0.62466 0.0
O580 O 0.63758 0.41318 0.53772 0.0
O581 O 0.64229 0.43259 0.62506 0.0
O582 O 0.65394 0.36185 0.46797 0.0
O583 O 0.61604 0.3643 0.47648 0.0
O584 O 0.67512 0.36099 0.56519 0.0
O585 O 0.66416 0.39434 0.60431 0.0
O586 O 0.64101 0.3614 0.66722 0.0
O587 O 0.62854 0.34474 0.58181 0.0
O588 O 0.63534 0.42768 0.73686 0.0
O589 O 0.66123 0.39931 0.73218 0.0
O590 O 0.59856 0.39935 0.67351 0.0
O591 O 0.61363 0.38679 0.60262 0.0
H592 H 0.60249 0.34456 0.36448 0.0
H593 H 0.60083 0.35457 0.27716 0.0
H594 H 0.65869 0.40348 0.32144 0.0
H595 H 0.65972 0.39389 0.40932 0.0
H596 H 0.67491 0.43856 0.84979 0.0
H597 H 0.66936 0.43317 0.93972 0.0
H598 H 0.61168 0.38511 0.88603 0.0
H599 H 0.61782 0.39028 0.79558 0.0
Ho600 Ho 0.38441 0.88453 0.33048 0.0
Ho601 Ho 0.36314 0.88844 0.43341 0.0
C602 C 0.32806 0.887 0.33531 0.0
C603 C 0.39744 0.87519 0.23351 0.0
C604 C 0.3906 0.87786 0.17952 0.0
C605 C 0.39292 0.85826 0.13841 0.0
C606 C 0.38873 0.86051 0.08625 0.0
C607 C 0.38214 0.8825 0.07381 0.0
C608 C 0.37932 0.90205 0.11526 0.0
C609 C 0.38348 0.89976 0.16758 0.0
C610 C 0.38145 0.92979 0.38794 0.0
C611 C 0.42008 0.882 0.42178 0.0
C612 C 0.35094 0.90053 0.53068 0.0
C613 C 0.35787 0.89841 0.58494 0.0
C614 C 0.35528 0.9182 0.62549 0.0
C615 C 0.3594 0.91632 0.67792 0.0
C616 C 0.36616 0.89453 0.69114 0.0
C617 C 0.36933 0.87483 0.65021 0.0
C618 C 0.36525 0.87675 0.59765 0.0
C619 C 0.36582 0.84259 0.3806 0.0
O620 O 0.34631 0.87901 0.30731 0.0
O621 O 0.3307 0.89579 0.38621 0.0
O622 O 0.4037 0.89429 0.2671 0.0
O623 O 0.3851 0.86056 0.25485 0.0
O624 O 0.39947 0.92139 0.36141 0.0
O625 O 0.36575 0.91402 0.38177 0.0
O626 O 0.40296 0.89134 0.45293 0.0
O627 O 0.41561 0.87333 0.37194 0.0
O628 O 0.3436 0.88131 0.49894 0.0
O629 O 0.36395 0.91385 0.50729 0.0
O630 O 0.34828 0.85164 0.40801 0.0
O631 O 0.38162 0.85832 0.3834 0.0
H632 H 0.39858 0.84125 0.14656 0.0
H633 H 0.3914 0.84514 0.05556 0.0
H634 H 0.37396 0.91916 0.10728 0.0
H635 H 0.38151 0.91519 0.19852 0.0
H636 H 0.34944 0.93504 0.61668 0.0
H637 H 0.35649 0.93179 0.7082 0.0
H638 H 0.37486 0.85787 0.65878 0.0
H639 H 0.36745 0.8612 0.56713 0.0
H640 H 0.12163 0.58955 0.78031 0.0
H641 H 0.1507 0.66606 0.56101 0.0
H642 H 0.15956 0.65606 0.81323 0.0
H643 H 0.11264 0.59963 0.528 0.0
H644 H 0.15417 0.66264 0.6533 0.0
H645 H 0.11827 0.59286 0.68793 0.0
C646 C 0.12932 0.60484 0.76821 0.0
C647 C 0.14094 0.62253 0.80496 0.0
C648 C 0.14509 0.64878 0.62589 0.0
C649 C 0.13699 0.62651 0.69869 0.0
C650 C 0.14301 0.65076 0.57308 0.0
C651 C 0.1313 0.63314 0.53633 0.0
C652 C 0.13537 0.62904 0.64251 0.0
C653 C 0.12207 0.61354 0.55452 0.0
C654 C 0.1273 0.60676 0.71535 0.0
C655 C 0.15019 0.64211 0.78672 0.0
N656 N 0.12424 0.61206 0.60617 0.0
N657 N 0.14806 0.64352 0.73503 0.0
H658 H 0.60507 0.86022 0.97023 0.0
H659 H 0.67074 0.92398 0.76492 0.0
H660 H 0.65731 0.91519 0.01567 0.0
H661 H 0.61828 0.86922 0.71966 0.0
H662 H 0.66589 0.92118 0.8567 0.0
H663 H 0.60992 0.86306 0.8785 0.0
C664 C 0.61772 0.87278 0.96103 0.0
C665 C 0.63087 0.88742 1.00115 0.0
C666 C 0.65541 0.90978 0.82674 0.0
C667 C 0.63626 0.891 0.89548 0.0
C668 C 0.65804 0.91148 0.77417 0.0
C669 C 0.64484 0.89688 0.73409 0.0
C670 C 0.63945 0.89334 0.83978 0.0
C671 C 0.62905 0.88068 0.74888 0.0
C672 C 0.62035 0.8745 0.90848 0.0
C673 C 0.6466 0.90369 0.98642 0.0
N674 N 0.62679 0.87938 0.80036 0.0
N675 N 0.64886 0.90501 0.93494 0.0
H676 H 0.40313 0.39558 0.26656 0.0
H677 H 0.35269 0.36509 0.97013 0.0
H678 H 0.3385 0.35715 0.22188 0.0
H679 H 0.41717 0.4034 0.01734 0.0
H680 H 0.34755 0.36085 0.06128 0.0
H681 H 0.40932 0.39679 0.17457 0.0
C682 C 0.39037 0.38709 0.23738 0.0
C683 C 0.37024 0.37623 0.25223 0.0
C684 C 0.36286 0.3701 0.0516 0.0
C685 C 0.37704 0.37797 0.14635 0.0
C686 C 0.36575 0.37264 0.99959 0.0
C687 C 0.38543 0.38458 0.98584 0.0
C688 C 0.37973 0.37965 0.0903 0.0
C689 C 0.40191 0.39374 0.02574 0.0
C690 C 0.39383 0.38797 0.18476 0.0
C691 C 0.35412 0.36598 0.21247 0.0
N692 N 0.39865 0.39113 0.07599 0.0
N693 N 0.35783 0.36716 0.16145 0.0
H694 H 0.84729 0.08524 0.50211 0.0
H695 H 0.91142 0.15537 0.30558 0.0
H696 H 0.90235 0.13684 0.55136 0.0
H697 H 0.85581 0.10431 0.25706 0.0
H698 H 0.90917 0.14798 0.39492 0.0
H699 H 0.8507 0.09148 0.41219 0.0
C700 C 0.86005 0.09798 0.49423 0.0
C701 C 0.87444 0.11062 0.53495 0.0
C702 C 0.89747 0.13835 0.36475 0.0
C703 C 0.87865 0.11766 0.43103 0.0
C704 C 0.89885 0.14244 0.31342 0.0
C705 C 0.88381 0.13044 0.27318 0.0
C706 C 0.88092 0.12213 0.37644 0.0
C707 C 0.86759 0.11425 0.28657 0.0
C708 C 0.86208 0.10143 0.4426 0.0
C709 C 0.89099 0.12649 0.52154 0.0
N710 N 0.8666 0.1106 0.33683 0.0
N711 N 0.89257 0.12959 0.47096 0.0
H712 H 0.12287 0.42713 0.27148 0.0
H713 H 0.14337 0.35625 0.50745 0.0
H714 H 0.15592 0.35837 0.25314 0.0
H715 H 0.10894 0.42431 0.52568 0.0
H716 H 0.14868 0.35709 0.41473 0.0
H717 H 0.11743 0.42639 0.36429 0.0
C718 C 0.12882 0.41176 0.28671 0.0
C719 C 0.13993 0.3928 0.25404 0.0
C720 C 0.13998 0.37187 0.43899 0.0
C721 C 0.13401 0.392 0.36107 0.0
C722 C 0.1371 0.3715 0.4922 0.0
C723 C 0.12568 0.39024 0.52484 0.0
C724 C 0.13144 0.39115 0.41783 0.0
C725 C 0.11758 0.40929 0.50217 0.0
C726 C 0.12585 0.41144 0.33996 0.0
C727 C 0.14758 0.37358 0.27667 0.0
N728 N 0.12062 0.40924 0.45027 0.0
N729 N 0.1445 0.3737 0.32856 0.0
H730 H 0.90511 0.85769 0.7274 0.0
H731 H 0.85072 0.93364 0.52407 0.0
H732 H 0.8559 0.91494 0.76986 0.0
H733 H 0.89952 0.87616 0.48013 0.0
H734 H 0.85357 0.92787 0.61471 0.0
H735 H 0.90477 0.86529 0.63791 0.0
C736 C 0.89439 0.87202 0.71821 0.0
C737 C 0.88048 0.88565 0.75664 0.0
C738 C 0.86373 0.91654 0.58535 0.0
C739 C 0.87977 0.89423 0.65339 0.0
C740 C 0.86201 0.91974 0.53334 0.0
C741 C 0.87474 0.90524 0.49393 0.0
C742 C 0.87829 0.89868 0.59856 0.0
C743 C 0.88948 0.88789 0.50898 0.0
C744 C 0.8941 0.87624 0.66683 0.0
C745 C 0.86667 0.90371 0.74167 0.0
N746 N 0.89075 0.88503 0.55992 0.0
N747 N 0.86664 0.90741 0.6914 0.0
H748 H 0.41612 0.62241 0.79806 0.0
H749 H 0.33479 0.62477 0.04672 0.0
H750 H 0.34189 0.63657 0.79595 0.0
H751 H 0.40881 0.60948 0.048 0.0
H752 H 0.33705 0.62915 0.95517 0.0
H753 H 0.41378 0.61768 0.88939 0.0
C754 C 0.39931 0.62459 0.81672 0.0
C755 C 0.37918 0.62998 0.78889 0.0
C756 C 0.35282 0.62487 0.97546 0.0
C757 C 0.37636 0.62441 0.89408 0.0
C758 C 0.35153 0.62225 0.02784 0.0
C759 C 0.37163 0.61669 0.05555 0.0
C760 C 0.37437 0.6219 0.9501 0.0
C761 C 0.39288 0.61407 0.0288 0.0
C762 C 0.39798 0.62178 0.86897 0.0
C763 C 0.35785 0.63216 0.81531 0.0
N764 N 0.39366 0.61665 0.97776 0.0
N765 N 0.35703 0.62945 0.86626 0.0
H766 H 0.6583 0.10229 1.0058 0.0
H767 H 0.61783 0.14955 0.30121 0.0
H768 H 0.60789 0.15836 0.04863 0.0
H769 H 0.66899 0.09415 0.25897 0.0
H770 H 0.61391 0.15295 0.20894 0.0
H771 H 0.66209 0.09867 0.09802 0.0
C772 C 0.64795 0.11379 0.03446 0.0
C773 C 0.63279 0.13071 0.01911 0.0
C774 C 0.62597 0.14001 0.21984 0.0
C775 C 0.6372 0.12677 0.12528 0.0
C776 C 0.62832 0.13814 0.27268 0.0
C777 C 0.64376 0.1215 0.28824 0.0
C778 C 0.63917 0.12518 0.18194 0.0
C779 C 0.6566 0.10699 0.24901 0.0
C780 C 0.65022 0.1118 0.08725 0.0
C781 C 0.62009 0.14532 0.05844 0.0
N782 N 0.65403 0.10919 0.19789 0.0
N783 N 0.62257 0.14299 0.10949 0.0
H784 H 0.85465 0.4297 0.27308 0.0
H785 H 0.88935 0.34921 0.48436 0.0
H786 H 0.87848 0.3572 0.23134 0.0
H787 H 0.86816 0.42256 0.5263 0.0
H788 H 0.88468 0.35158 0.39172 0.0
H789 H 0.85936 0.42739 0.36573 0.0
C790 C 0.86107 0.41334 0.28324 0.0
C791 C 0.86622 0.39363 0.24393 0.0
C792 C 0.88103 0.36717 0.42114 0.0
C793 C 0.8713 0.39076 0.35064 0.0
C794 C 0.88352 0.36578 0.47421 0.0
C795 C 0.87909 0.3857 0.51354 0.0
C796 C 0.87401 0.38862 0.40689 0.0
C797 C 0.87203 0.4068 0.49758 0.0
C798 C 0.86359 0.41199 0.33633 0.0
C799 C 0.87401 0.37278 0.25998 0.0
N800 N 0.86969 0.40769 0.44565 0.0
N801 N 0.8763 0.3719 0.31192 0.0
H802 H 0.34973 0.0931 0.24788 0.0
H803 H 0.39807 0.16893 0.0432 0.0
H804 H 0.38665 0.15979 0.2943 0.0
H805 H 0.36223 0.10163 0.99674 0.0
H806 H 0.39356 0.16614 0.1351 0.0
H807 H 0.35419 0.0959 0.156 0.0
C808 C 0.35896 0.10826 0.23891 0.0
C809 C 0.3679 0.12619 0.27934 0.0
C810 C 0.38666 0.15198 0.10484 0.0
C811 C 0.37275 0.12968 0.17344 0.0
C812 C 0.38907 0.15363 0.05218 0.0
C813 C 0.38046 0.13552 1.01175 0.0
C814 C 0.37553 0.13207 0.11763 0.0
C815 C 0.36939 0.11592 0.02628 0.0
C816 C 0.36135 0.10992 0.18625 0.0
C817 C 0.37923 0.14564 0.26478 0.0
N818 N 0.36724 0.11475 0.07786 0.0
N819 N 0.38134 0.14684 0.21321 0.0
H820 H 0.67086 0.63993 0.03665 0.0
H821 H 0.60278 0.61756 0.75681 0.0
H822 H 0.60358 0.60501 1.00727 0.0
H823 H 0.66966 0.65333 0.78559 0.0
H824 H 0.60309 0.61245 0.84812 0.0
H825 H 0.67113 0.64449 0.94483 0.0
C826 C 0.65617 0.63314 1.01097 0.0
C827 C 0.63714 0.62211 0.03012 0.0
C828 C 0.61773 0.62139 0.8345 0.0
C829 C 0.63728 0.62742 0.92452 0.0
C830 C 0.61753 0.62441 0.78228 0.0
C831 C 0.6362 0.63597 0.76315 0.0
C832 C 0.63673 0.62999 0.86831 0.0
C833 C 0.65499 0.64407 0.79813 0.0
C834 C 0.65629 0.63585 0.95849 0.0
C835 C 0.61848 0.61397 0.9948 0.0
N836 N 0.65474 0.64099 0.84888 0.0
N837 N 0.61905 0.61676 0.94393 0.0
H838 H 0.10192 0.90819 0.49758 0.0
H839 H 0.17333 0.88038 0.74945 0.0
H840 H 0.17695 0.89941 0.50465 0.0
H841 H 0.09869 0.89216 0.74732 0.0
H842 H 0.17479 0.88777 0.66005 0.0
H843 H 0.1002 0.90312 0.589 0.0
C844 C 0.11806 0.90534 0.5183 0.0
C845 C 0.13961 0.90411 0.49288 0.0
C846 C 0.15807 0.88882 0.67908 0.0
C847 C 0.13771 0.89807 0.59787 0.0
C848 C 0.1572 0.88448 0.7302 0.0
C849 C 0.13583 0.8855 0.75616 0.0
C850 C 0.1374 0.89416 0.65315 0.0
C851 C 0.11561 0.89135 0.72922 0.0
C852 C 0.11704 0.90233 0.57053 0.0
C853 C 0.15987 0.90008 0.52194 0.0
N854 N 0.11687 0.89533 0.67923 0.0
N855 N 0.1584 0.89719 0.57258 0.0
H856 H 0.83063 0.59472 0.75432 0.0
H857 H 0.90635 0.65291 0.55511 0.0
H858 H 0.89208 0.63818 0.80128 0.0
H859 H 0.8458 0.60831 0.50672 0.0
H860 H 0.90095 0.64814 0.64545 0.0
H861 H 0.83573 0.59957 0.66381 0.0
C862 C 0.84529 0.60518 0.7457 0.0
C863 C 0.86098 0.61599 0.78589 0.0
C864 C 0.88882 0.6394 0.61514 0.0
C865 C 0.86674 0.62187 0.68177 0.0
C866 C 0.89178 0.64224 0.56341 0.0
C867 C 0.87644 0.63111 0.52289 0.0
C868 C 0.87035 0.62529 0.62692 0.0
C869 C 0.85822 0.61708 0.53633 0.0
C870 C 0.8481 0.60806 0.6939 0.0
C871 C 0.87935 0.62972 0.77203 0.0
N872 N 0.85567 0.61462 0.58707 0.0
N873 N 0.88172 0.63222 0.72131 0.0
H874 H 0.14953 0.15269 0.54963 0.0
H875 H 0.12927 0.09562 0.24456 0.0
H876 H 0.1299 0.07929 0.4948 0.0
H877 H 0.1447 0.16976 0.30367 0.0
H878 H 0.12879 0.08906 0.33511 0.0
H879 H 0.14753 0.15897 0.45934 0.0
C880 C 0.14483 0.13784 0.5186 0.0
C881 C 0.14003 0.11537 0.53008 0.0
C882 C 0.13226 0.10676 0.32819 0.0
C883 C 0.13754 0.12252 0.42586 0.0
C884 C 0.13244 0.11056 0.27642 0.0
C885 C 0.13721 0.13327 0.26608 0.0
C886 C 0.13688 0.12579 0.37014 0.0
C887 C 0.14141 0.15184 0.3093 0.0
C888 C 0.14358 0.14148 0.46691 0.0
C889 C 0.1336 0.09696 0.48802 0.0
N890 N 0.1412 0.14767 0.35912 0.0
N891 N 0.13267 0.1009 0.43784 0.0
H892 H 0.62282 0.34755 0.19915 0.0
H893 H 0.64413 0.44176 1.0127 0.0
H894 H 0.63795 0.42178 0.25795 0.0
H895 H 0.62926 0.36742 0.95472 0.0
H896 H 0.64115 0.43503 0.10245 0.0
H897 H 0.62396 0.35483 0.1097 0.0
C898 C 0.62616 0.36546 0.19344 0.0
C899 C 0.63019 0.38408 0.23665 0.0
C900 C 0.63847 0.42019 0.07011 0.0
C901 C 0.63191 0.39248 0.1334 0.0
C902 C 0.64029 0.42398 0.01868 0.0
C903 C 0.63706 0.40512 0.97564 0.0
C904 C 0.63338 0.39734 0.07902 0.0
C905 C 0.63166 0.3826 0.98632 0.0
C906 C 0.62698 0.36956 0.14212 0.0
C907 C 0.63497 0.40678 0.22618 0.0
N908 N 0.63008 0.37935 0.03674 0.0
N909 N 0.63569 0.41032 0.17579 0.0
H910 H 0.39525 0.91989 0.02808 0.0
H911 H 0.35306 0.85729 0.73721 0.0
H912 H 0.36213 0.85084 0.99117 0.0
H913 H 0.38552 0.92666 0.77391 0.0
H914 H 0.35664 0.85447 0.8298 0.0
H915 H 0.39146 0.92292 0.93558 0.0
C916 C 0.38697 0.90544 1.00072 0.0
C917 C 0.37902 0.88505 0.01778 0.0
C918 C 0.36302 0.87031 0.81763 0.0
C919 C 0.37494 0.88828 0.91115 0.0
C920 C 0.36115 0.87186 0.76456 0.0
C921 C 0.36902 0.89224 0.74738 0.0
C922 C 0.37286 0.88926 0.85418 0.0
C923 C 0.37894 0.91071 0.78518 0.0
C924 C 0.38498 0.90711 0.94771 0.0
C925 C 0.36882 0.86676 0.97999 0.0
N926 N 0.38057 0.90877 0.83662 0.0
N927 N 0.36711 0.86881 0.92865 0.0
H928 H 0.10277 0.69586 0.16419 0.0
H929 H 0.15879 0.82678 0.21908 0.0
H930 H 0.17664 0.70851 0.19545 0.0
H931 H 0.10029 0.80692 0.11126 0.0
H932 H 0.16105 0.7855 0.23274 0.0
H933 H 0.09724 0.73868 0.16687 0.0
C934 C 0.11773 0.70771 0.17276 0.0
C935 C 0.14022 0.69865 0.17955 0.0
C936 C 0.14754 0.79031 0.20664 0.0
C937 C 0.13399 0.74756 0.18304 0.0
C938 C 0.14613 0.81387 0.19911 0.0
C939 C 0.12937 0.8203 0.16383 0.0
C940 C 0.13174 0.77316 0.17967 0.0
C941 C 0.11358 0.80272 0.13856 0.0
C942 C 0.11459 0.73208 0.17389 0.0
C943 C 0.15902 0.71478 0.18991 0.0
N944 N 0.11511 0.78001 0.14701 0.0
N945 N 0.15551 0.73843 0.19141 0.0
H946 H 0.56799 0.91777 0.47957 0.0
H947 H 0.44856 0.84395 0.40196 0.0
H948 H 0.56168 0.84993 0.37475 0.0
H949 H 0.44823 0.91735 0.47996 0.0
H950 H 0.49113 0.84363 0.41083 0.0
H951 H 0.52569 0.91599 0.49716 0.0
C952 C 0.55786 0.90228 0.46133 0.0
C953 C 0.56836 0.88397 0.42558 0.0
C954 C 0.48188 0.85978 0.4269 0.0
C955 C 0.52017 0.88183 0.44532 0.0
C956 C 0.45749 0.85989 0.42225 0.0
C957 C 0.44479 0.88065 0.44045 0.0
C958 C 0.49403 0.88076 0.44912 0.0
C959 C 0.45734 0.90087 0.46599 0.0
C960 C 0.53372 0.90136 0.47102 0.0
C961 C 0.55434 0.86449 0.40238 0.0
N962 N 0.48133 0.90055 0.46888 0.0
N963 N 0.53114 0.86399 0.4125 0.0
H964 H 0.35648 0.33091 0.68956 0.0
H965 H 0.4079 0.19825 0.6296 0.0
H966 H 0.40219 0.30658 0.56122 0.0
H967 H 0.337 0.21285 0.67861 0.0
H968 H 0.41329 0.24077 0.62809 0.0
H969 H 0.35662 0.29046 0.70962 0.0
C970 C 0.36715 0.31726 0.66676 0.0
C971 C 0.37955 0.3221 0.62402 0.0
C972 C 0.39671 0.23469 0.6401 0.0
C973 C 0.37982 0.27598 0.64665 0.0
C974 C 0.39368 0.21047 0.64135 0.0
C975 C 0.37196 0.202 0.65433 0.0
C976 C 0.3781 0.25066 0.65318 0.0
C977 C 0.35402 0.21865 0.66842 0.0
C978 C 0.36702 0.29417 0.67783 0.0
C979 C 0.39257 0.30361 0.59478 0.0
N980 N 0.35747 0.24213 0.66756 0.0
N981 N 0.39243 0.28143 0.60666 0.0
H982 H 0.94983 0.15149 0.82878 0.0
H983 H 0.07126 0.12071 0.96358 0.0
H984 H 0.95149 0.11671 0.96183 0.0
H985 H 0.06356 0.14582 0.81801 0.0
H986 H 0.02858 0.12608 0.9763 0.0
H987 H 0.99207 0.15735 0.83812 0.0
C988 C 0.95912 0.14559 0.86091 0.0
C989 C 0.94714 0.13377 0.89475 0.0
C990 C 0.03638 0.13085 0.94218 0.0
C991 C 0.99608 0.13947 0.90459 0.0
C992 C 0.06073 0.12801 0.93521 0.0
C993 C 0.07091 0.13291 0.88972 0.0
C994 C 0.02234 0.13889 0.9036 0.0
C995 C 0.05644 0.14184 0.85363 0.0
C996 C 0.98334 0.14874 0.86602 0.0
C997 C 0.96009 0.12621 0.93534 0.0
N998 N 0.03307 0.14443 0.86123 0.0
N999 N 0.98397 0.12884 0.93867 0.0
H1000 H 0.1012 0.3209 0.87561 0.0
H1001 H 0.16185 0.19246 0.80801 0.0
H1002 H 0.17501 0.31168 0.84769 0.0
H1003 H 0.10177 0.20694 0.90604 0.0
H1004 H 0.16241 0.23452 0.79925 0.0
H1005 H 0.09683 0.27746 0.86358 0.0
C1006 C 0.11637 0.30972 0.86575 0.0
C1007 C 0.13853 0.31988 0.86282 0.0
C1008 C 0.14891 0.22834 0.82198 0.0
C1009 C 0.13364 0.27027 0.84879 0.0
C1010 C 0.14847 0.20434 0.82665 0.0
C1011 C 0.13179 0.19622 0.85796 0.0
C1012 C 0.13225 0.2442 0.84789 0.0
C1013 C 0.11503 0.21249 0.8818 0.0
C1014 C 0.1139 0.28497 0.85927 0.0
C1015 C 0.15764 0.30454 0.85047 0.0
N1016 N 0.11568 0.23564 0.87632 0.0
N1017 N 0.15479 0.28055 0.844 0.0
H1018 H 0.06352 0.92938 0.13132 0.0
H1019 H 0.94433 0.85313 0.09461 0.0
H1020 H 0.06374 0.85293 0.1051 0.0
H1021 H 0.94962 0.9289 0.14749 0.0
H1022 H 0.98693 0.85187 0.07867 0.0
H1023 H 0.02119 0.92868 0.11587 0.0
C1024 C 0.05465 0.91237 0.12076 0.0
C1025 C 0.06716 0.8912 0.11885 0.0
C1026 C 0.97862 0.86881 0.09263 0.0
C1027 C 0.01822 0.89016 0.10334 0.0
C1028 C 0.95431 0.86955 0.10118 0.0
C1029 C 0.94349 0.8912 0.12197 0.0
C1030 C 0.99198 0.88992 0.1046 0.0
C1031 C 0.95727 0.91187 0.13118 0.0
C1032 C 0.03039 0.91194 0.11245 0.0
C1033 C 0.05473 0.86963 0.10604 0.0
N1034 N 0.98065 0.9107 0.12264 0.0
N1035 N 0.03085 0.86964 0.09951 0.0
H1036 H 0.41091 0.70624 0.43579 0.0
H1037 H 0.33342 0.80748 0.35131 0.0
H1038 H 0.35149 0.68911 0.3295 0.0
H1039 H 0.40707 0.81814 0.38853 0.0
H1040 H 0.33863 0.76458 0.34634 0.0
H1041 H 0.40912 0.74749 0.42293 0.0
C1042 C 0.39762 0.7111 0.40925 0.0
C1043 C 0.38135 0.6941 0.3836 0.0
C1044 C 0.35373 0.77622 0.35482 0.0
C1045 C 0.37886 0.74166 0.36968 0.0
C1046 C 0.35078 0.80072 0.35766 0.0
C1047 C 0.36985 0.81643 0.3701 0.0
C1048 C 0.37583 0.76729 0.366 0.0
C1049 C 0.39192 0.80669 0.37836 0.0
C1050 C 0.39665 0.73468 0.40187 0.0
C1051 C 0.3645 0.70152 0.34974 0.0
N1052 N 0.39422 0.78284 0.37704 0.0
N1053 N 0.36345 0.72479 0.34446 0.0
H1054 H 0.56524 0.17217 0.63447 0.0
H1055 H 0.44521 0.10205 0.54218 0.0
H1056 H 0.56471 0.09971 0.55036 0.0
H1057 H 0.45084 0.17236 0.63685 0.0
H1058 H 0.48805 0.10219 0.53024 0.0
H1059 H 0.52305 0.17412 0.62018 0.0
C1060 C 0.55623 0.15676 0.61193 0.0
C1061 C 0.56855 0.13579 0.59346 0.0
C1062 C 0.47979 0.11774 0.55276 0.0
C1063 C 0.51962 0.13754 0.5783 0.0
C1064 C 0.45533 0.11774 0.55915 0.0
C1065 C 0.44445 0.13724 0.59057 0.0
C1066 C 0.49332 0.13745 0.57765 0.0
C1067 C 0.45847 0.15691 0.61248 0.0
C1068 C 0.53202 0.15781 0.60403 0.0
C1069 C 0.5559 0.11632 0.56475 0.0
N1070 N 0.482 0.15644 0.60585 0.0
N1071 N 0.53204 0.11752 0.55874 0.0
H1072 H 0.85203 0.19004 0.81413 0.0
H1073 H 0.90687 0.32156 0.8752 0.0
H1074 H 0.91286 0.20897 0.91538 0.0
H1075 H 0.83302 0.30813 0.84536 0.0
H1076 H 0.9132 0.2786 0.86783 0.0
H1077 H 0.84887 0.23167 0.80334 0.0
C1078 C 0.86498 0.20283 0.83322 0.0
C1079 C 0.88267 0.19605 0.8659 0.0
C1080 C 0.89568 0.28507 0.86217 0.0
C1081 C 0.87926 0.24357 0.85342 0.0
C1082 C 0.89207 0.30954 0.866 0.0
C1083 C 0.86936 0.31839 0.86107 0.0
C1084 C 0.8765 0.26933 0.8523 0.0
C1085 C 0.85079 0.30202 0.84963 0.0
C1086 C 0.86307 0.22659 0.82734 0.0
C1087 C 0.89885 0.21346 0.89014 0.0
N1088 N 0.85474 0.2783 0.84566 0.0
N1089 N 0.89677 0.23637 0.88341 0.0
H1090 H 0.60334 0.82389 0.36383 0.0
H1091 H 0.65751 0.69258 0.30167 0.0
H1092 H 0.67668 0.81107 0.33512 0.0
H1093 H 0.60059 0.71169 0.40721 0.0
H1094 H 0.65975 0.73419 0.29005 0.0
H1095 H 0.59723 0.78083 0.35589 0.0
C1096 C 0.61803 0.81198 0.35465 0.0
C1097 C 0.64058 0.82101 0.35028 0.0
C1098 C 0.64656 0.72912 0.3151 0.0
C1099 C 0.63368 0.77187 0.3408 0.0
C1100 C 0.64516 0.7054 0.32144 0.0
C1101 C 0.62889 0.69871 0.35559 0.0
C1102 C 0.63122 0.74612 0.34213 0.0
C1103 C 0.61349 0.71613 0.38076 0.0
C1104 C 0.61457 0.78746 0.3505 0.0
C1105 C 0.65905 0.80479 0.33893 0.0
N1106 N 0.61501 0.73898 0.37351 0.0
N1107 N 0.65522 0.78103 0.33461 0.0
H1108 H 0.85918 0.702 0.22169 0.0
H1109 H 0.91363 0.80888 0.10308 0.0
H1110 H 0.89925 0.69431 0.08132 0.0
H1111 H 0.86084 0.82101 0.22084 0.0
H1112 H 0.91506 0.76723 0.11031 0.0
H1113 H 0.86567 0.7455 0.23646 0.0
C1114 C 0.86993 0.70941 0.19499 0.0
C1115 C 0.87886 0.69466 0.1504 0.0
C1116 C 0.90327 0.77893 0.13508 0.0
C1117 C 0.88612 0.74403 0.16653 0.0
C1118 C 0.90248 0.80281 0.13103 0.0
C1119 C 0.88687 0.81846 0.1609 0.0
C1120 C 0.88814 0.77024 0.16888 0.0
C1121 C 0.87311 0.80956 0.19701 0.0
C1122 C 0.87342 0.73419 0.20307 0.0
C1123 C 0.89216 0.70509 0.11626 0.0
N1124 N 0.87379 0.78591 0.19946 0.0
N1125 N 0.89532 0.72902 0.12493 0.0
H1126 H 0.67983 0.20681 0.68472 0.0
H1127 H 0.60438 0.30617 0.58935 0.0
H1128 H 0.60645 0.19573 0.64465 0.0
H1129 H 0.66152 0.32458 0.70162 0.0
H1130 H 0.60563 0.26527 0.60467 0.0
H1131 H 0.67463 0.24957 0.68781 0.0
C1132 C 0.66253 0.21348 0.67745 0.0
C1133 C 0.64353 0.19775 0.66467 0.0
C1134 C 0.6177 0.27832 0.62645 0.0
C1135 C 0.63759 0.24655 0.66649 0.0
C1136 C 0.61707 0.30165 0.61759 0.0
C1137 C 0.63289 0.31884 0.64422 0.0
C1138 C 0.63471 0.27187 0.66114 0.0
C1139 C 0.64891 0.31196 0.68046 0.0
C1140 C 0.65958 0.23786 0.67918 0.0
C1141 C 0.62152 0.20727 0.65513 0.0
N1142 N 0.64968 0.28893 0.68721 0.0
N1143 N 0.61923 0.231 0.6553 0.0
H1144 H 0.94374 0.41633 0.99146 0.0
H1145 H 0.06052 0.34431 0.90448 0.0
H1146 H 0.94646 0.34525 0.9003 0.0
H1147 H 0.06226 0.41586 0.99363 0.0
H1148 H 0.01867 0.34232 0.91886 0.0
H1149 H 0.98645 0.4148 1.00822 0.0
C1150 C 0.9532 0.40017 0.97645 0.0
C1151 C 0.94164 0.38089 0.94437 0.0
C1152 C 0.0281 0.35841 0.93618 0.0
C1153 C 0.99025 0.37909 0.96259 0.0
C1154 C 0.05208 0.35946 0.92817 0.0
C1155 C 0.06481 0.38024 0.94795 0.0
C1156 C 0.01643 0.37855 0.96306 0.0
C1157 C 0.05303 0.39943 0.97814 0.0
C1158 C 0.97757 0.39936 0.98558 0.0
C1159 C 0.95472 0.36054 0.92504 0.0
N1160 N 0.02935 0.39831 0.98399 0.0
N1161 N 0.97822 0.36026 0.93407 0.0
H1162 H 0.44977 0.58044 0.42505 0.0
H1163 H 0.56536 0.65951 0.42273 0.0
H1164 H 0.44636 0.65608 0.43182 0.0
H1165 H 0.56385 0.58339 0.40916 0.0
H1166 H 0.52288 0.66055 0.43877 0.0
H1167 H 0.49227 0.58309 0.43291 0.0
C1168 C 0.45804 0.59772 0.4289 0.0
C1169 C 0.44454 0.61802 0.42745 0.0
C1170 C 0.53196 0.6437 0.433 0.0
C1171 C 0.49361 0.62124 0.43532 0.0
C1172 C 0.5562 0.64312 0.42415 0.0
C1173 C 0.56806 0.62129 0.4142 0.0
C1174 C 0.51971 0.62231 0.43225 0.0
C1175 C 0.55537 0.60058 0.41616 0.0
C1176 C 0.48239 0.59925 0.43323 0.0
C1177 C 0.45618 0.64 0.43287 0.0
N1178 N 0.532 0.6016 0.4246 0.0
N1179 N 0.48012 0.641 0.4358 0.0
H1180 H 0.45123 0.34695 0.61964 0.0
H1181 H 0.57215 0.39691 0.53305 0.0
H1182 H 0.45213 0.40168 0.52668 0.0
H1183 H 0.56273 0.36585 0.66961 0.0
H1184 H 0.53001 0.39012 0.50995 0.0
H1185 H 0.49373 0.34411 0.61515 0.0
C1186 C 0.4604 0.35802 0.59719 0.0
C1187 C 0.44817 0.37472 0.57389 0.0
C1188 C 0.53736 0.3844 0.54433 0.0
C1189 C 0.49713 0.37196 0.56961 0.0
C1190 C 0.56136 0.38806 0.5572 0.0
C1191 C 0.57079 0.38183 0.60319 0.0
C1192 C 0.52307 0.37399 0.57719 0.0
C1193 C 0.5561 0.37087 0.63382 0.0
C1194 C 0.4847 0.35649 0.5949 0.0
C1195 C 0.46093 0.38854 0.54506 0.0
N1196 N 0.53308 0.36731 0.62032 0.0
N1197 N 0.48486 0.38716 0.54446 0.0
H1198 H 0.06163 0.67187 0.15188 0.0
H1199 H 0.94415 0.59837 0.05466 0.0
H1200 H 0.06335 0.59985 0.06542 0.0
H1201 H 0.94729 0.66859 0.15053 0.0
H1202 H 0.98696 0.59999 0.04404 0.0
H1203 H 0.01945 0.67266 0.13653 0.0
C1204 C 0.0531 0.65632 0.12868 0.0
C1205 C 0.06601 0.63578 0.10991 0.0
C1206 C 0.97817 0.61516 0.06664 0.0
C1207 C 0.01719 0.6362 0.09345 0.0
C1208 C 0.95374 0.61431 0.07238 0.0
C1209 C 0.94218 0.63332 0.10382 0.0
C1210 C 0.99097 0.63526 0.09216 0.0
C1211 C 0.95548 0.65342 0.12639 0.0
C1212 C 0.02892 0.6567 0.12013 0.0
C1213 C 0.05403 0.61611 0.08017 0.0
N1214 N 0.97902 0.65378 0.12038 0.0
N1215 N 0.03019 0.61665 0.07355 0.0
H1216 H 0.08999 0.55765 0.13353 0.0
H1217 H 0.16295 0.45436 0.95509 0.0
H1218 H 0.16432 0.56336 0.11346 0.0
H1219 H 0.08818 0.46212 0.9387 0.0
H1220 H 0.16429 0.49181 0.01989 0.0
H1221 H 0.08941 0.52025 0.06941 0.0
C1222 C 0.10623 0.55096 0.11581 0.0
C1223 C 0.12724 0.56366 0.12899 0.0
C1224 C 0.14761 0.48534 1.00202 0.0
C1225 C 0.12675 0.52061 0.05543 0.0
C1226 C 0.14682 0.46394 0.96512 0.0
C1227 C 0.12542 0.45513 0.94126 0.0
C1228 C 0.12679 0.49787 0.01584 0.0
C1229 C 0.10507 0.46828 0.95586 0.0
C1230 C 0.10588 0.52963 0.07899 0.0
C1231 C 0.14774 0.55415 0.10447 0.0
N1232 N 0.10624 0.48884 0.99226 0.0
N1233 N 0.14701 0.53317 0.06911 0.0
H1234 H 0.69426 0.86037 0.233 0.0
H1235 H 0.8185 0.9164 0.19114 0.0
H1236 H 0.72469 0.9162 0.35068 0.0
H1237 H 0.79834 0.84487 0.11957 0.0
H1238 H 0.78326 0.91947 0.24471 0.0
H1239 H 0.73081 0.85729 0.18577 0.0
C1240 C 0.70865 0.87205 0.24906 0.0
C1241 C 0.70624 0.88861 0.29612 0.0
C1242 C 0.78664 0.90307 0.21749 0.0
C1243 C 0.74851 0.88529 0.24115 0.0
C1244 C 0.80676 0.90128 0.18688 0.0
C1245 C 0.81162 0.88021 0.15115 0.0
C1246 C 0.77083 0.88388 0.21139 0.0
C1247 C 0.79547 0.86141 0.14669 0.0
C1248 C 0.72962 0.87018 0.22199 0.0
C1249 C 0.72572 0.9031 0.31478 0.0
N1250 N 0.77583 0.86375 0.17604 0.0
N1251 N 0.74594 0.90128 0.28701 0.0
H1252 H 0.35015 0.44381 0.55791 0.0
H1253 H 0.40469 0.56932 0.53142 0.0
H1254 H 0.41772 0.46929 0.62253 0.0
H1255 H 0.35117 0.53582 0.42185 0.0
H1256 H 0.40716 0.53366 0.56917 0.0
H1257 H 0.34773 0.47761 0.51166 0.0
C1258 C 0.36456 0.45636 0.5621 0.0
C1259 C 0.38427 0.45352 0.59403 0.0
C1260 C 0.39491 0.53391 0.53674 0.0
C1261 C 0.38135 0.4926 0.542 0.0
C1262 C 0.3934 0.55441 0.51509 0.0
C1263 C 0.37765 0.55578 0.4732 0.0
C1264 C 0.38028 0.51435 0.51738 0.0
C1265 C 0.36366 0.53561 0.45385 0.0
C1266 C 0.36313 0.47568 0.53568 0.0
C1267 C 0.4022 0.47062 0.59844 0.0
N1268 N 0.36512 0.51584 0.47641 0.0
N1269 N 0.40023 0.48935 0.57319 0.0
H1270 H 0.8211 0.09789 0.83781 0.0
H1271 H 0.69767 0.15738 0.79137 0.0
H1272 H 0.80257 0.169 0.9125 0.0
H1273 H 0.72483 0.10037 0.6756 0.0
H1274 H 0.73473 0.1592 0.84063 0.0
H1275 H 0.78511 0.09579 0.78257 0.0
C1276 C 0.80955 0.1131 0.84244 0.0
C1277 C 0.81506 0.13378 0.87954 0.0
C1278 C 0.73272 0.14631 0.80439 0.0
C1279 C 0.7735 0.13125 0.81731 0.0
C1280 C 0.71145 0.14518 0.77615 0.0
C1281 C 0.70796 0.12865 0.72904 0.0
C1282 C 0.75086 0.13054 0.78633 0.0
C1283 C 0.7267 0.11346 0.7115 0.0
C1284 C 0.789 0.11188 0.81088 0.0
C1285 C 0.79917 0.15274 0.8844 0.0
N1286 N 0.74726 0.11461 0.74037 0.0
N1287 N 0.77917 0.15098 0.85399 0.0
H1288 H 0.91721 0.55458 0.12618 0.0
H1289 H 0.84244 0.45342 0.93596 0.0
H1290 H 0.84364 0.56277 0.09287 0.0
H1291 H 0.91737 0.46012 0.9278 0.0
H1292 H 0.84193 0.49083 1.00089 0.0
H1293 H 0.9171 0.51731 0.06139 0.0
C1294 C 0.901 0.54847 0.10538 0.0
C1295 C 0.88041 0.56182 0.11496 0.0
C1296 C 0.85846 0.48413 0.98476 0.0
C1297 C 0.88008 0.51896 0.04087 0.0
C1298 C 0.85877 0.46277 0.94779 0.0
C1299 C 0.87997 0.45369 0.9262 0.0
C1300 C 0.87956 0.49632 1.00102 0.0
C1301 C 0.90061 0.46652 0.94312 0.0
C1302 C 0.90096 0.52723 0.06822 0.0
C1303 C 0.85992 0.55305 0.08665 0.0
N1304 N 0.89991 0.48703 0.97963 0.0
N1305 N 0.86023 0.53215 0.05114 0.0
H1306 H 0.19795 0.09827 0.8315 0.0
H1307 H 0.31596 0.16289 0.77564 0.0
H1308 H 0.21394 0.17155 0.89706 0.0
H1309 H 0.2892 0.10205 0.66604 0.0
H1310 H 0.2801 0.16401 0.8249 0.0
H1311 H 0.23226 0.09689 0.77526 0.0
C1312 C 0.20858 0.1141 0.83393 0.0
C1313 C 0.2028 0.13516 0.86877 0.0
C1314 C 0.2819 0.15045 0.78997 0.0
C1315 C 0.24252 0.13351 0.80534 0.0
C1316 C 0.30247 0.14975 0.76169 0.0
C1317 C 0.30575 0.13235 0.71633 0.0
C1318 C 0.26428 0.13335 0.77384 0.0
C1319 C 0.28744 0.11589 0.70046 0.0
C1320 C 0.22817 0.11328 0.80177 0.0
C1321 C 0.21755 0.15495 0.87079 0.0
N1322 N 0.26762 0.11662 0.72945 0.0
N1323 N 0.23665 0.15359 0.83992 0.0
H1324 H 0.643 0.53864 0.37329 0.0
H1325 H 0.64176 0.47907 0.63057 0.0
H1326 H 0.639 0.579 0.53117 0.0
H1327 H 0.64032 0.43901 0.47176 0.0
H1328 H 0.64254 0.51594 0.59541 0.0
H1329 H 0.64394 0.50195 0.409 0.0
C1330 C 0.64241 0.53985 0.41537 0.0
C1331 C 0.64086 0.56207 0.44904 0.0
C1332 C 0.64207 0.49904 0.56834 0.0
C1333 C 0.6419 0.52 0.49043 0.0
C1334 C 0.64165 0.47795 0.58846 0.0
C1335 C 0.64089 0.45574 0.55435 0.0
C1336 C 0.64184 0.498 0.51364 0.0
C1337 C 0.64079 0.45558 0.49995 0.0
C1338 C 0.6429 0.51886 0.43582 0.0
C1339 C 0.64012 0.56238 0.5034 0.0
N1340 N 0.64126 0.47625 0.48148 0.0
N1341 N 0.64063 0.54177 0.52225 0.0
H1342 H 0.31454 0.85564 0.24751 0.0
H1343 H 0.19382 0.91782 0.19092 0.0
H1344 H 0.28838 0.91516 0.35817 0.0
H1345 H 0.21064 0.8454 0.12249 0.0
H1346 H 0.22919 0.91966 0.24812 0.0
H1347 H 0.27781 0.85403 0.19709 0.0
C1348 C 0.30102 0.86841 0.2614 0.0
C1349 C 0.30469 0.88559 0.30737 0.0
C1350 C 0.22504 0.90335 0.22078 0.0
C1351 C 0.26222 0.88399 0.24868 0.0
C1352 C 0.20486 0.90227 0.18809 0.0
C1353 C 0.19905 0.88132 0.15213 0.0
C1354 C 0.23989 0.8835 0.21665 0.0
C1355 C 0.21429 0.86189 0.14961 0.0
C1356 C 0.27994 0.86741 0.23249 0.0
C1357 C 0.28632 0.90153 0.32322 0.0
N1358 N 0.23394 0.86351 0.18107 0.0
N1359 N 0.26597 0.90051 0.29366 0.0
H1360 H 0.66868 0.95541 0.43139 0.0
H1361 H 0.59354 0.05631 0.61172 0.0
H1362 H 0.594 0.96279 0.41218 0.0
H1363 H 0.66809 0.06284 0.59617 0.0
H1364 H 0.59375 0.01953 0.54563 0.0
H1365 H 0.66928 0.99224 0.49823 0.0
C1366 C 0.65243 0.96479 0.44117 0.0
C1367 C 0.63127 0.95604 0.41596 0.0
C1368 C 0.61009 0.02896 0.55665 0.0
C1369 C 0.63177 0.99805 0.49288 0.0
C1370 C 0.61 0.04993 0.5946 0.0
C1371 C 0.63083 0.06269 0.6096 0.0
C1372 C 0.63124 0.02036 0.53377 0.0
C1373 C 0.65162 0.05357 0.58579 0.0
C1374 C 0.65279 0.98582 0.47926 0.0
C1375 C 0.61073 0.96892 0.43034 0.0
N1376 N 0.65133 0.03295 0.54929 0.0
N1377 N 0.61148 0.98911 0.46789 0.0
H1378 H 0.18485 0.39084 0.73882 0.0
H1379 H 0.32454 0.38835 0.76652 0.0
H1380 H 0.22256 0.39825 0.88732 0.0
H1381 H 0.2883 0.39276 0.62065 0.0
H1382 H 0.28726 0.39031 0.80979 0.0
H1383 H 0.22205 0.39027 0.69436 0.0
C1384 C 0.20094 0.39241 0.76227 0.0
C1385 C 0.20045 0.39454 0.81717 0.0
C1386 C 0.28736 0.39089 0.76836 0.0
C1387 C 0.24337 0.39376 0.76588 0.0
C1388 C 0.30875 0.38971 0.74329 0.0
C1389 C 0.30978 0.39044 0.68948 0.0
C1390 C 0.26648 0.39265 0.73973 0.0
C1391 C 0.28848 0.39214 0.66205 0.0
C1392 C 0.22222 0.39212 0.73666 0.0
C1393 C 0.22198 0.39662 0.84509 0.0
N1394 N 0.26773 0.39314 0.68744 0.0
N1395 N 0.2425 0.39605 0.81914 0.0
H1396 H 0.87179 0.93606 0.98589 0.0
H1397 H 0.87757 0.07814 0.04201 0.0
H1398 H 0.87282 0.97888 0.142 0.0
H1399 H 0.87308 0.03547 0.88583 0.0
H1400 H 0.87586 0.04225 0.07858 0.0
H1401 H 0.87214 0.972 0.94925 0.0
C1402 C 0.87207 0.95302 1.0128 0.0
C1403 C 0.87236 0.95421 0.06759 0.0
C1404 C 0.87521 0.04064 0.03633 0.0
C1405 C 0.87278 0.99596 0.02484 0.0
C1406 C 0.87623 0.06123 0.01506 0.0
C1407 C 0.87552 0.06006 0.96026 0.0
C1408 C 0.87353 0.01836 1.00298 0.0
C1409 C 0.8737 0.03741 0.92812 0.0
C1410 C 0.87225 0.97364 0.99149 0.0
C1411 C 0.87258 0.97693 0.09971 0.0
N1412 N 0.87282 0.01751 0.94994 0.0
N1413 N 0.87286 0.99684 0.07788 0.0
H1414 H 0.19583 0.65786 0.30671 0.0
H1415 H 0.31663 0.594 0.35487 0.0
H1416 H 0.22104 0.5992 0.19226 0.0
H1417 H 0.30079 0.66626 0.42673 0.0
H1418 H 0.28063 0.59283 0.29988 0.0
H1419 H 0.23278 0.65849 0.35597 0.0
C1420 C 0.20917 0.64506 0.29177 0.0
C1421 C 0.20519 0.62843 0.24505 0.0
C1422 C 0.28513 0.60895 0.32754 0.0
C1423 C 0.24789 0.62892 0.30231 0.0
C1424 C 0.30566 0.60964 0.35895 0.0
C1425 C 0.3119 0.63036 0.39518 0.0
C1426 C 0.27043 0.62894 0.33323 0.0
C1427 C 0.29677 0.64993 0.39935 0.0
C1428 C 0.23037 0.6455 0.32001 0.0
C1429 C 0.22334 0.61242 0.22784 0.0
N1430 N 0.27679 0.64869 0.36909 0.0
N1431 N 0.24382 0.6129 0.25671 0.0
H1432 H 0.34337 0.95255 0.43808 0.0
H1433 H 0.41895 0.05938 0.60863 0.0
H1434 H 0.41765 0.96074 0.42166 0.0
H1435 H 0.34424 0.06462 0.58591 0.0
H1436 H 0.41843 0.02117 0.54731 0.0
H1437 H 0.34286 0.99128 0.49871 0.0
C1438 C 0.35956 0.96249 0.44714 0.0
C1439 C 0.38057 0.95336 0.42446 0.0
C1440 C 0.40211 0.03061 0.55563 0.0
C1441 C 0.38018 0.99765 0.49452 0.0
C1442 C 0.40238 0.05245 0.59089 0.0
C1443 C 0.3816 0.0653 0.60267 0.0
C1444 C 0.38084 0.02113 0.53217 0.0
C1445 C 0.36068 0.05536 0.57807 0.0
C1446 C 0.35925 0.98463 0.4817 0.0
C1447 C 0.40102 0.96705 0.43788 0.0
N1448 N 0.36081 0.03386 0.54433 0.0
N1449 N 0.40033 0.98832 0.47209 0.0
H1450 H 0.81441 0.65935 0.28107 0.0
H1451 H 0.69219 0.60075 0.32446 0.0
H1452 H 0.78526 0.6024 0.1643 0.0
H1453 H 0.7103 0.67316 0.39355 0.0
H1454 H 0.72696 0.59858 0.26973 0.0
H1455 H 0.77754 0.66236 0.32708 0.0
C1456 C 0.80016 0.6475 0.2649 0.0
C1457 C 0.80299 0.63058 0.21864 0.0
C1458 C 0.72319 0.61498 0.29658 0.0
C1459 C 0.76052 0.63371 0.27212 0.0
C1460 C 0.70333 0.61626 0.32778 0.0
C1461 C 0.69815 0.63727 0.36334 0.0
C1462 C 0.73833 0.63467 0.30184 0.0
C1463 C 0.71354 0.65661 0.36674 0.0
C1464 C 0.77905 0.64929 0.29123 0.0
C1465 C 0.7838 0.6158 0.1996 0.0
N1466 N 0.73294 0.65478 0.3368 0.0
N1467 N 0.76345 0.61749 0.22678 0.0
H1468 H 0.14206 0.07893 0.03578 0.0
H1469 H 0.13787 0.93669 0.98288 0.0
H1470 H 0.14133 0.03559 0.88022 0.0
H1471 H 0.14203 0.98017 0.1382 0.0
H1472 H 0.13906 0.97237 0.94522 0.0
H1473 H 0.14201 0.04319 0.07313 0.0
C1474 C 0.14191 0.06191 1.00912 0.0
C1475 C 0.14168 0.06053 0.95425 0.0
C1476 C 0.13975 0.9742 0.98751 0.0
C1477 C 0.14157 0.01895 0.99791 0.0
C1478 C 0.13906 0.95373 1.00941 0.0
C1479 C 0.13983 0.95518 0.0643 0.0
C1480 C 0.14117 0.99664 0.02034 0.0
C1481 C 0.1414 0.97799 0.09586 0.0
C1482 C 0.1419 0.04139 0.03085 0.0
C1483 C 0.14153 0.03771 0.92255 0.0
N1484 N 0.14196 0.99774 0.07347 0.0
N1485 N 0.14143 0.01789 0.9448 0.0
H1486 H 0.69476 0.41712 0.67798 0.0
H1487 H 0.81623 0.3579 0.73842 0.0
H1488 H 0.71389 0.34564 0.60702 0.0
H1489 H 0.78701 0.4152 0.85029 0.0
H1490 H 0.78012 0.35562 0.68573 0.0
H1491 H 0.72939 0.41925 0.73722 0.0
C1492 C 0.70616 0.40183 0.67506 0.0
C1493 C 0.70126 0.38105 0.63783 0.0
C1494 C 0.78146 0.36865 0.72188 0.0
C1495 C 0.74119 0.3836 0.70462 0.0
C1496 C 0.80216 0.37004 0.75206 0.0
C1497 C 0.80476 0.38683 0.79899 0.0
C1498 C 0.76308 0.38441 0.73786 0.0
C1499 C 0.78576 0.40193 0.81455 0.0
C1500 C 0.7259 0.40307 0.70889 0.0
C1501 C 0.71689 0.36197 0.63516 0.0
N1502 N 0.76578 0.40055 0.78377 0.0
N1503 N 0.73614 0.36376 0.6678 0.0
loop_
_geom_bond_atom_site_label_1
_geom_bond_atom_site_label_2
_geom_bond_distance
_geom_bond_site_symmetry_2
_ccdc_geom_bond_type
Ho0 C3 2.811 1_554 S
Ho0 O20 2.322 . S
Ho0 O22 2.378 . S
Ho0 O23 2.524 . S
Ho0 O24 2.381 . S
Ho0 O25 2.669 . S
Ho0 O27 2.346 . S
Ho0 O31 2.305 . S
Ho1 C12 2.811 . S
Ho1 O21 2.346 . S
Ho1 O25 2.305 . S
Ho1 O26 2.322 . S
Ho1 O28 2.378 . S
Ho1 O29 2.524 . S
Ho1 O30 2.381 . S
Ho1 O31 2.669 . S
C2 O20 1.259 . S
C2 O21 1.268 . S
C3 Ho0 2.811 1_556 S
C3 C4 1.488 . S
C3 O22 1.215 1_556 S
C3 O23 1.289 1_556 S
C4 C3 1.488 . S
C4 C5 1.348 . S
C4 C9 1.413 . S
C5 C4 1.348 . S
C5 C6 1.442 . S
C5 H32 0.930 . S
C6 C5 1.442 . S
C6 C7 1.381 . S
C6 H33 0.931 . S
C7 C6 1.381 . S
C7 C8 1.321 . S
C8 C7 1.321 . S
C8 C9 1.403 . S
C8 H34 0.934 . S
C9 C4 1.413 . S
C9 C8 1.403 . S
C9 H35 0.930 . S
C10 O24 1.275 . S
C10 O25 1.256 . S
C11 O26 1.259 . S
C11 O27 1.268 . S
C12 Ho1 2.811 . S
C12 C13 1.488 . S
C12 O28 1.215 . S
C12 O29 1.289 . S
C13 C12 1.488 . S
C13 C14 1.348 . S
C13 C18 1.413 . S
C14 C13 1.348 . S
C14 C15 1.442 . S
C14 H36 0.930 . S
C15 C14 1.442 . S
C15 C16 1.381 . S
C15 H37 0.931 . S
C16 C15 1.381 . S
C16 C17 1.321 . S
C17 C16 1.321 . S
C17 C18 1.403 . S
C17 H38 0.934 . S
C18 C13 1.413 . S
C18 C17 1.403 . S
C18 H39 0.930 . S
C19 O30 1.275 . S
C19 O31 1.256 . S
O20 Ho0 2.322 . S
O20 C2 1.259 . S
O21 Ho1 2.346 . S
O21 C2 1.268 . S
O22 Ho0 2.378 . S
O22 C3 1.215 1_554 S
O23 Ho0 2.524 . S
O23 C3 1.289 1_554 S
O24 Ho0 2.381 . S
O24 C10 1.275 . S
O25 Ho0 2.669 . S
O25 Ho1 2.305 . S
O25 C10 1.256 . S
O26 Ho1 2.322 . S
O26 C11 1.259 . S
O27 Ho0 2.346 . S
O27 C11 1.268 . S
O28 Ho1 2.378 . S
O28 C12 1.215 . S
O29 Ho1 2.524 . S
O29 C12 1.289 . S
O30 Ho1 2.381 . S
O30 C19 1.275 . S
O31 Ho0 2.305 . S
O31 Ho1 2.669 . S
O31 C19 1.256 . S
H32 C5 0.930 . S
H33 C6 0.931 . S
H34 C8 0.934 . S
H35 C9 0.930 . S
H36 C14 0.930 . S
H37 C15 0.931 . S
H38 C17 0.934 . S
H39 C18 0.930 . S
Ho40 C43 2.811 . S
Ho40 O60 2.322 . S
Ho40 O62 2.378 . S
Ho40 O63 2.524 . S
Ho40 O64 2.381 . S
Ho40 O65 2.669 . S
Ho40 O67 2.346 . S
Ho40 O71 2.305 . S
Ho41 C52 2.811 . S
Ho41 O61 2.346 . S
Ho41 O65 2.305 . S
Ho41 O66 2.322 . S
Ho41 O68 2.378 . S
Ho41 O69 2.524 . S
Ho41 O70 2.381 . S
Ho41 O71 2.669 . S
C42 O60 1.259 . S
C42 O61 1.268 . S
C43 Ho40 2.811 . S
C43 C44 1.488 . S
C43 O62 1.215 . S
C43 O63 1.289 . S
C44 C43 1.488 . S
C44 C45 1.348 . S
C44 C49 1.413 . S
C45 C44 1.348 . S
C45 C46 1.442 . S
C45 H72 0.930 . S
C46 C45 1.442 . S
C46 C47 1.381 . S
C46 H73 0.931 . S
C47 C46 1.381 . S
C47 C48 1.321 . S
C48 C47 1.321 . S
C48 C49 1.403 . S
C48 H74 0.934 . S
C49 C44 1.413 . S
C49 C48 1.403 . S
C49 H75 0.930 . S
C50 O64 1.275 . S
C50 O65 1.256 . S
C51 O66 1.259 . S
C51 O67 1.268 . S
C52 Ho41 2.811 . S
C52 C53 1.488 . S
C52 O68 1.215 . S
C52 O69 1.289 . S
C53 C52 1.488 . S
C53 C54 1.348 . S
C53 C58 1.413 . S
C54 C53 1.348 . S
C54 C55 1.442 . S
C54 H76 0.930 . S
C55 C54 1.442 . S
C55 C56 1.381 . S
C55 H77 0.931 . S
C56 C55 1.381 . S
C56 C57 1.321 . S
C57 C56 1.321 . S
C57 C58 1.403 . S
C57 H78 0.934 . S
C58 C53 1.413 . S
C58 C57 1.403 . S
C58 H79 0.930 . S
C59 O70 1.275 . S
C59 O71 1.256 . S
O60 Ho40 2.322 . S
O60 C42 1.259 . S
O61 Ho41 2.346 . S
O61 C42 1.268 . S
O62 Ho40 2.378 . S
O62 C43 1.215 . S
O63 Ho40 2.524 . S
O63 C43 1.289 . S
O64 Ho40 2.381 . S
O64 C50 1.275 . S
O65 Ho40 2.669 . S
O65 Ho41 2.305 . S
O65 C50 1.256 . S
O66 Ho41 2.322 . S
O66 C51 1.259 . S
O67 Ho40 2.346 . S
O67 C51 1.268 . S
O68 Ho41 2.378 . S
O68 C52 1.215 . S
O69 Ho41 2.524 . S
O69 C52 1.289 . S
O70 Ho41 2.381 . S
O70 C59 1.275 . S
O71 Ho40 2.305 . S
O71 Ho41 2.669 . S
O71 C59 1.256 . S
H72 C45 0.930 . S
H73 C46 0.931 . S
H74 C48 0.934 . S
H75 C49 0.930 . S
H76 C54 0.930 . S
H77 C55 0.931 . S
H78 C57 0.934 . S
H79 C58 0.930 . S
Ho80 C83 2.811 . S
Ho80 O100 2.322 . S
Ho80 O102 2.378 . S
Ho80 O103 2.524 . S
Ho80 O104 2.381 . S
Ho80 O105 2.669 . S
Ho80 O107 2.346 . S
Ho80 O111 2.305 . S
Ho81 C92 2.811 . S
Ho81 O101 2.346 . S
Ho81 O105 2.305 . S
Ho81 O106 2.322 . S
Ho81 O108 2.378 . S
Ho81 O109 2.524 . S
Ho81 O110 2.381 . S
Ho81 O111 2.669 . S
C82 O100 1.259 . S
C82 O101 1.268 . S
C83 Ho80 2.811 . S
C83 C84 1.488 . S
C83 O102 1.215 . S
C83 O103 1.289 . S
C84 C83 1.488 . S
C84 C85 1.348 . S
C84 C89 1.413 . S
C85 C84 1.348 . S
C85 C86 1.442 . S
C85 H112 0.930 . S
C86 C85 1.442 . S
C86 C87 1.381 . S
C86 H113 0.931 . S
C87 C86 1.381 . S
C87 C88 1.321 . S
C88 C87 1.321 . S
C88 C89 1.403 . S
C88 H114 0.934 . S
C89 C84 1.413 . S
C89 C88 1.403 . S
C89 H115 0.930 . S
C90 O104 1.275 . S
C90 O105 1.256 . S
C91 O106 1.259 . S
C91 O107 1.268 . S
C92 Ho81 2.811 . S
C92 C93 1.488 . S
C92 O108 1.215 . S
C92 O109 1.289 . S
C93 C92 1.488 . S
C93 C94 1.348 . S
C93 C98 1.413 . S
C94 C93 1.348 . S
C94 C95 1.442 . S
C94 H116 0.930 . S
C95 C94 1.442 . S
C95 C96 1.381 . S
C95 H117 0.931 . S
C96 C95 1.381 . S
C96 C97 1.321 . S
C97 C96 1.321 . S
C97 C98 1.403 . S
C97 H118 0.934 . S
C98 C93 1.413 . S
C98 C97 1.403 . S
C98 H119 0.930 . S
C99 O110 1.275 . S
C99 O111 1.256 . S
O100 Ho80 2.322 . S
O100 C82 1.259 . S
O101 Ho81 2.346 . S
O101 C82 1.268 . S
O102 Ho80 2.378 . S
O102 C83 1.215 . S
O103 Ho80 2.524 . S
O103 C83 1.289 . S
O104 Ho80 2.381 . S
O104 C90 1.275 . S
O105 Ho80 2.669 . S
O105 Ho81 2.305 . S
O105 C90 1.256 . S
O106 Ho81 2.322 . S
O106 C91 1.259 . S
O107 Ho80 2.346 . S
O107 C91 1.268 . S
O108 Ho81 2.378 . S
O108 C92 1.215 . S
O109 Ho81 2.524 . S
O109 C92 1.289 . S
O110 Ho81 2.381 . S
O110 C99 1.275 . S
O111 Ho80 2.305 . S
O111 Ho81 2.669 . S
O111 C99 1.256 . S
H112 C85 0.930 . S
H113 C86 0.931 . S
H114 C88 0.934 . S
H115 C89 0.930 . S
H116 C94 0.930 . S
H117 C95 0.931 . S
H118 C97 0.934 . S
H119 C98 0.930 . S
Ho120 C123 2.811 . S
Ho120 O140 2.322 . S
Ho120 O142 2.378 . S
Ho120 O143 2.524 . S
Ho120 O144 2.381 . S
Ho120 O145 2.669 . S
Ho120 O147 2.346 . S
Ho120 O151 2.305 . S
Ho121 C132 2.811 1_556 S
Ho121 O141 2.346 . S
Ho121 O145 2.305 . S
Ho121 O146 2.322 . S
Ho121 O148 2.378 1_556 S
Ho121 O149 2.524 1_556 S
Ho121 O150 2.381 . S
Ho121 O151 2.669 . S
C122 O140 1.259 . S
C122 O141 1.268 . S
C123 Ho120 2.811 . S
C123 C124 1.488 . S
C123 O142 1.215 . S
C123 O143 1.289 . S
C124 C123 1.488 . S
C124 C125 1.348 . S
C124 C129 1.413 . S
C125 C124 1.348 . S
C125 C126 1.442 . S
C125 H152 0.930 . S
C126 C125 1.442 . S
C126 C127 1.381 . S
C126 H153 0.931 . S
C127 C126 1.381 . S
C127 C128 1.321 . S
C128 C127 1.321 . S
C128 C129 1.403 . S
C128 H154 0.934 . S
C129 C124 1.413 . S
C129 C128 1.403 . S
C129 H155 0.930 . S
C130 O144 1.275 . S
C130 O145 1.256 . S
C131 O146 1.259 . S
C131 O147 1.268 . S
C132 Ho121 2.811 1_554 S
C132 C133 1.488 . S
C132 O148 1.215 . S
C132 O149 1.289 . S
C133 C132 1.488 . S
C133 C134 1.348 . S
C133 C138 1.413 . S
C134 C133 1.348 . S
C134 C135 1.442 . S
C134 H156 0.930 . S
C135 C134 1.442 . S
C135 C136 1.381 . S
C135 H157 0.931 . S
C136 C135 1.381 . S
C136 C137 1.321 . S
C137 C136 1.321 . S
C137 C138 1.403 . S
C137 H158 0.934 . S
C138 C133 1.413 . S
C138 C137 1.403 . S
C138 H159 0.930 . S
C139 O150 1.275 . S
C139 O151 1.256 . S
O140 Ho120 2.322 . S
O140 C122 1.259 . S
O141 Ho121 2.346 . S
O141 C122 1.268 . S
O142 Ho120 2.378 . S
O142 C123 1.215 . S
O143 Ho120 2.524 . S
O143 C123 1.289 . S
O144 Ho120 2.381 . S
O144 C130 1.275 . S
O145 Ho120 2.669 . S
O145 Ho121 2.305 . S
O145 C130 1.256 . S
O146 Ho121 2.322 . S
O146 C131 1.259 . S
O147 Ho120 2.346 . S
O147 C131 1.268 . S
O148 Ho121 2.378 1_554 S
O148 C132 1.215 . S
O149 Ho121 2.524 1_554 S
O149 C132 1.289 . S
O150 Ho121 2.381 . S
O150 C139 1.275 . S
O151 Ho120 2.305 . S
O151 Ho121 2.669 . S
O151 C139 1.256 . S
H152 C125 0.930 . S
H153 C126 0.931 . S
H154 C128 0.934 . S
H155 C129 0.930 . S
H156 C134 0.930 . S
H157 C135 0.931 . S
H158 C137 0.934 . S
H159 C138 0.930 . S
Ho160 C163 2.811 1_556 S
Ho160 O180 2.322 . S
Ho160 O182 2.378 1_556 S
Ho160 O183 2.524 1_556 S
Ho160 O184 2.381 . S
Ho160 O185 2.669 . S
Ho160 O187 2.346 . S
Ho160 O191 2.305 . S
Ho161 C172 2.811 . S
Ho161 O181 2.346 . S
Ho161 O185 2.305 . S
Ho161 O186 2.322 . S
Ho161 O188 2.378 . S
Ho161 O189 2.524 . S
Ho161 O190 2.381 . S
Ho161 O191 2.669 . S
C162 O180 1.259 . S
C162 O181 1.268 . S
C163 Ho160 2.811 1_554 S
C163 C164 1.488 . S
C163 O182 1.215 . S
C163 O183 1.289 . S
C164 C163 1.488 . S
C164 C165 1.348 . S
C164 C169 1.413 . S
C165 C164 1.348 . S
C165 C166 1.442 . S
C165 H192 0.930 . S
C166 C165 1.442 . S
C166 C167 1.381 . S
C166 H193 0.931 . S
C167 C166 1.381 . S
C167 C168 1.321 . S
C168 C167 1.321 . S
C168 C169 1.403 . S
C168 H194 0.934 . S
C169 C164 1.413 . S
C169 C168 1.403 . S
C169 H195 0.930 . S
C170 O184 1.275 . S
C170 O185 1.256 . S
C171 O186 1.259 . S
C171 O187 1.268 . S
C172 Ho161 2.811 . S
C172 C173 1.488 . S
C172 O188 1.215 . S
C172 O189 1.289 . S
C173 C172 1.488 . S
C173 C174 1.348 . S
C173 C178 1.413 . S
C174 C173 1.348 . S
C174 C175 1.442 . S
C174 H196 0.930 . S
C175 C174 1.442 . S
C175 C176 1.381 . S
C175 H197 0.931 . S
C176 C175 1.381 . S
C176 C177 1.321 . S
C177 C176 1.321 . S
C177 C178 1.403 . S
C177 H198 0.934 . S
C178 C173 1.413 . S
C178 C177 1.403 . S
C178 H199 0.930 . S
C179 O190 1.275 . S
C179 O191 1.256 . S
O180 Ho160 2.322 . S
O180 C162 1.259 . S
O181 Ho161 2.346 . S
O181 C162 1.268 . S
O182 Ho160 2.378 1_554 S
O182 C163 1.215 . S
O183 Ho160 2.524 1_554 S
O183 C163 1.289 . S
O184 Ho160 2.381 . S
O184 C170 1.275 . S
O185 Ho160 2.669 . S
O185 Ho161 2.305 . S
O185 C170 1.256 . S
O186 Ho161 2.322 . S
O186 C171 1.259 . S
O187 Ho160 2.346 . S
O187 C171 1.268 . S
O188 Ho161 2.378 . S
O188 C172 1.215 . S
O189 Ho161 2.524 . S
O189 C172 1.289 . S
O190 Ho161 2.381 . S
O190 C179 1.275 . S
O191 Ho160 2.305 . S
O191 Ho161 2.669 . S
O191 C179 1.256 . S
H192 C165 0.930 . S
H193 C166 0.931 . S
H194 C168 0.934 . S
H195 C169 0.930 . S
H196 C174 0.930 . S
H197 C175 0.931 . S
H198 C177 0.934 . S
H199 C178 0.930 . S
Ho200 C203 2.811 . S
Ho200 O220 2.322 . S
Ho200 O222 2.378 . S
Ho200 O223 2.524 . S
Ho200 O224 2.381 . S
Ho200 O225 2.669 . S
Ho200 O227 2.346 . S
Ho200 O231 2.305 . S
Ho201 C212 2.811 1_554 S
Ho201 O221 2.346 . S
Ho201 O225 2.305 . S
Ho201 O226 2.322 . S
Ho201 O228 2.378 1_554 S
Ho201 O229 2.524 1_554 S
Ho201 O230 2.381 . S
Ho201 O231 2.669 . S
C202 O220 1.259 . S
C202 O221 1.268 . S
C203 Ho200 2.811 . S
C203 C204 1.488 . S
C203 O222 1.215 . S
C203 O223 1.289 . S
C204 C203 1.488 . S
C204 C205 1.348 . S
C204 C209 1.413 . S
C205 C204 1.348 . S
C205 C206 1.442 . S
C205 H232 0.930 . S
C206 C205 1.442 . S
C206 C207 1.381 . S
C206 H233 0.931 . S
C207 C206 1.381 . S
C207 C208 1.321 . S
C208 C207 1.321 . S
C208 C209 1.403 . S
C208 H234 0.934 . S
C209 C204 1.413 . S
C209 C208 1.403 . S
C209 H235 0.930 . S
C210 O224 1.275 . S
C210 O225 1.256 . S
C211 O226 1.259 . S
C211 O227 1.268 . S
C212 Ho201 2.811 1_556 S
C212 C213 1.488 . S
C212 O228 1.215 . S
C212 O229 1.289 . S
C213 C212 1.488 . S
C213 C214 1.348 . S
C213 C218 1.413 . S
C214 C213 1.348 . S
C214 C215 1.442 . S
C214 H236 0.930 . S
C215 C214 1.442 . S
C215 C216 1.381 . S
C215 H237 0.931 . S
C216 C215 1.381 . S
C216 C217 1.321 . S
C217 C216 1.321 . S
C217 C218 1.403 . S
C217 H238 0.934 . S
C218 C213 1.413 . S
C218 C217 1.403 . S
C218 H239 0.930 . S
C219 O230 1.275 . S
C219 O231 1.256 . S
O220 Ho200 2.322 . S
O220 C202 1.259 . S
O221 Ho201 2.346 . S
O221 C202 1.268 . S
O222 Ho200 2.378 . S
O222 C203 1.215 . S
O223 Ho200 2.524 . S
O223 C203 1.289 . S
O224 Ho200 2.381 . S
O224 C210 1.275 . S
O225 Ho200 2.669 . S
O225 Ho201 2.305 . S
O225 C210 1.256 . S
O226 Ho201 2.322 . S
O226 C211 1.259 . S
O227 Ho200 2.346 . S
O227 C211 1.268 . S
O228 Ho201 2.378 1_556 S
O228 C212 1.215 . S
O229 Ho201 2.524 1_556 S
O229 C212 1.289 . S
O230 Ho201 2.381 . S
O230 C219 1.275 . S
O231 Ho200 2.305 . S
O231 Ho201 2.669 . S
O231 C219 1.256 . S
H232 C205 0.930 . S
H233 C206 0.931 . S
H234 C208 0.934 . S
H235 C209 0.930 . S
H236 C214 0.930 . S
H237 C215 0.931 . S
H238 C217 0.934 . S
H239 C218 0.930 . S
Ho240 C243 2.811 . S
Ho240 O260 2.322 . S
Ho240 O262 2.378 . S
Ho240 O263 2.524 . S
Ho240 O264 2.381 . S
Ho240 O265 2.669 . S
Ho240 O267 2.346 . S
Ho240 O271 2.305 . S
Ho241 C252 2.811 . S
Ho241 O261 2.346 . S
Ho241 O265 2.305 . S
Ho241 O266 2.322 . S
Ho241 O268 2.378 . S
Ho241 O269 2.524 . S
Ho241 O270 2.381 . S
Ho241 O271 2.669 . S
C242 O260 1.259 . S
C242 O261 1.268 . S
C243 Ho240 2.811 . S
C243 C244 1.488 . S
C243 O262 1.215 . S
C243 O263 1.289 . S
C244 C243 1.488 . S
C244 C245 1.348 . S
C244 C249 1.413 . S
C245 C244 1.348 . S
C245 C246 1.442 . S
C245 H272 0.930 . S
C246 C245 1.442 . S
C246 C247 1.381 . S
C246 H273 0.931 . S
C247 C246 1.381 . S
C247 C248 1.321 . S
C248 C247 1.321 . S
C248 C249 1.403 . S
C248 H274 0.934 . S
C249 C244 1.413 . S
C249 C248 1.403 . S
C249 H275 0.930 . S
C250 O264 1.275 . S
C250 O265 1.256 . S
C251 O266 1.259 . S
C251 O267 1.268 . S
C252 Ho241 2.811 . S
C252 C253 1.488 . S
C252 O268 1.215 . S
C252 O269 1.289 . S
C253 C252 1.488 . S
C253 C254 1.348 . S
C253 C258 1.413 . S
C254 C253 1.348 . S
C254 C255 1.442 . S
C254 H276 0.930 . S
C255 C254 1.442 . S
C255 C256 1.381 . S
C255 H277 0.931 . S
C256 C255 1.381 . S
C256 C257 1.321 . S
C257 C256 1.321 . S
C257 C258 1.403 . S
C257 H278 0.934 . S
C258 C253 1.413 . S
C258 C257 1.403 . S
C258 H279 0.930 . S
C259 O270 1.275 . S
C259 O271 1.256 . S
O260 Ho240 2.322 . S
O260 C242 1.259 . S
O261 Ho241 2.346 . S
O261 C242 1.268 . S
O262 Ho240 2.378 . S
O262 C243 1.215 . S
O263 Ho240 2.524 . S
O263 C243 1.289 . S
O264 Ho240 2.381 . S
O264 C250 1.275 . S
O265 Ho240 2.669 . S
O265 Ho241 2.305 . S
O265 C250 1.256 . S
O266 Ho241 2.322 . S
O266 C251 1.259 . S
O267 Ho240 2.346 . S
O267 C251 1.268 . S
O268 Ho241 2.378 . S
O268 C252 1.215 . S
O269 Ho241 2.524 . S
O269 C252 1.289 . S
O270 Ho241 2.381 . S
O270 C259 1.275 . S
O271 Ho240 2.305 . S
O271 Ho241 2.669 . S
O271 C259 1.256 . S
H272 C245 0.930 . S
H273 C246 0.931 . S
H274 C248 0.934 . S
H275 C249 0.930 . S
H276 C254 0.930 . S
H277 C255 0.931 . S
H278 C257 0.934 . S
H279 C258 0.930 . S
Ho280 C283 2.811 . S
Ho280 O300 2.322 . S
Ho280 O302 2.378 . S
Ho280 O303 2.524 . S
Ho280 O304 2.381 . S
Ho280 O305 2.669 . S
Ho280 O307 2.346 . S
Ho280 O311 2.305 . S
Ho281 C292 2.811 . S
Ho281 O301 2.346 . S
Ho281 O305 2.305 . S
Ho281 O306 2.322 . S
Ho281 O308 2.378 . S
Ho281 O309 2.524 . S
Ho281 O310 2.381 . S
Ho281 O311 2.669 . S
C282 O300 1.259 . S
C282 O301 1.268 . S
C283 Ho280 2.811 . S
C283 C284 1.488 . S
C283 O302 1.215 . S
C283 O303 1.289 . S
C284 C283 1.488 . S
C284 C285 1.348 . S
C284 C289 1.413 . S
C285 C284 1.348 . S
C285 C286 1.442 . S
C285 H312 0.930 . S
C286 C285 1.442 . S
C286 C287 1.381 . S
C286 H313 0.931 . S
C287 C286 1.381 . S
C287 C288 1.321 . S
C288 C287 1.321 . S
C288 C289 1.403 . S
C288 H314 0.934 . S
C289 C284 1.413 . S
C289 C288 1.403 . S
C289 H315 0.930 . S
C290 O304 1.275 . S
C290 O305 1.256 . S
C291 O306 1.259 . S
C291 O307 1.268 . S
C292 Ho281 2.811 . S
C292 C293 1.488 . S
C292 O308 1.215 . S
C292 O309 1.289 . S
C293 C292 1.488 . S
C293 C294 1.348 . S
C293 C298 1.413 . S
C294 C293 1.348 . S
C294 C295 1.442 . S
C294 H316 0.930 . S
C295 C294 1.442 . S
C295 C296 1.381 . S
C295 H317 0.931 . S
C296 C295 1.381 . S
C296 C297 1.321 . S
C297 C296 1.321 . S
C297 C298 1.403 . S
C297 H318 0.934 . S
C298 C293 1.413 . S
C298 C297 1.403 . S
C298 H319 0.930 . S
C299 O310 1.275 . S
C299 O311 1.256 . S
O300 Ho280 2.322 . S
O300 C282 1.259 . S
O301 Ho281 2.346 . S
O301 C282 1.268 . S
O302 Ho280 2.378 . S
O302 C283 1.215 . S
O303 Ho280 2.524 . S
O303 C283 1.289 . S
O304 Ho280 2.381 . S
O304 C290 1.275 . S
O305 Ho280 2.669 . S
O305 Ho281 2.305 . S
O305 C290 1.256 . S
O306 Ho281 2.322 . S
O306 C291 1.259 . S
O307 Ho280 2.346 . S
O307 C291 1.268 . S
O308 Ho281 2.378 . S
O308 C292 1.215 . S
O309 Ho281 2.524 . S
O309 C292 1.289 . S
O310 Ho281 2.381 . S
O310 C299 1.275 . S
O311 Ho280 2.305 . S
O311 Ho281 2.669 . S
O311 C299 1.256 . S
H312 C285 0.930 . S
H313 C286 0.931 . S
H314 C288 0.934 . S
H315 C289 0.930 . S
H316 C294 0.930 . S
H317 C295 0.931 . S
H318 C297 0.934 . S
H319 C298 0.930 . S
Ho320 C323 2.811 . S
Ho320 O340 2.322 . S
Ho320 O342 2.378 . S
Ho320 O343 2.524 . S
Ho320 O344 2.381 . S
Ho320 O345 2.669 . S
Ho320 O347 2.346 . S
Ho320 O351 2.305 . S
Ho321 C332 2.811 1_556 S
Ho321 O341 2.346 . S
Ho321 O345 2.305 . S
Ho321 O346 2.322 . S
Ho321 O348 2.378 1_556 S
Ho321 O349 2.524 1_556 S
Ho321 O350 2.381 . S
Ho321 O351 2.669 . S
C322 O340 1.259 . S
C322 O341 1.268 . S
C323 Ho320 2.811 . S
C323 C324 1.488 . S
C323 O342 1.215 . S
C323 O343 1.289 . S
C324 C323 1.488 . S
C324 C325 1.348 . S
C324 C329 1.413 . S
C325 C324 1.348 . S
C325 C326 1.442 . S
C325 H352 0.930 . S
C326 C325 1.442 . S
C326 C327 1.381 . S
C326 H353 0.931 . S
C327 C326 1.381 . S
C327 C328 1.321 . S
C328 C327 1.321 . S
C328 C329 1.403 . S
C328 H354 0.934 . S
C329 C324 1.413 . S
C329 C328 1.403 . S
C329 H355 0.930 . S
C330 O344 1.275 . S
C330 O345 1.256 . S
C331 O346 1.259 . S
C331 O347 1.268 . S
C332 Ho321 2.811 1_554 S
C332 C333 1.488 . S
C332 O348 1.215 . S
C332 O349 1.289 . S
C333 C332 1.488 . S
C333 C334 1.348 . S
C333 C338 1.413 . S
C334 C333 1.348 . S
C334 C335 1.442 . S
C334 H356 0.930 . S
C335 C334 1.442 . S
C335 C336 1.381 . S
C335 H357 0.931 . S
C336 C335 1.381 . S
C336 C337 1.321 . S
C337 C336 1.321 . S
C337 C338 1.403 . S
C337 H358 0.934 . S
C338 C333 1.413 . S
C338 C337 1.403 . S
C338 H359 0.930 . S
C339 O350 1.275 . S
C339 O351 1.256 . S
O340 Ho320 2.322 . S
O340 C322 1.259 . S
O341 Ho321 2.346 . S
O341 C322 1.268 . S
O342 Ho320 2.378 . S
O342 C323 1.215 . S
O343 Ho320 2.524 . S
O343 C323 1.289 . S
O344 Ho320 2.381 . S
O344 C330 1.275 . S
O345 Ho320 2.669 . S
O345 Ho321 2.305 . S
O345 C330 1.256 . S
O346 Ho321 2.322 . S
O346 C331 1.259 . S
O347 Ho320 2.346 . S
O347 C331 1.268 . S
O348 Ho321 2.378 1_554 S
O348 C332 1.215 . S
O349 Ho321 2.524 1_554 S
O349 C332 1.289 . S
O350 Ho321 2.381 . S
O350 C339 1.275 . S
O351 Ho320 2.305 . S
O351 Ho321 2.669 . S
O351 C339 1.256 . S
H352 C325 0.930 . S
H353 C326 0.931 . S
H354 C328 0.934 . S
H355 C329 0.930 . S
H356 C334 0.930 . S
H357 C335 0.931 . S
H358 C337 0.934 . S
H359 C338 0.930 . S
Ho360 C363 2.811 . S
Ho360 O380 2.322 . S
Ho360 O382 2.378 . S
Ho360 O383 2.524 . S
Ho360 O384 2.381 . S
Ho360 O385 2.669 . S
Ho360 O387 2.346 . S
Ho360 O391 2.305 . S
Ho361 C372 2.811 . S
Ho361 O381 2.346 . S
Ho361 O385 2.305 . S
Ho361 O386 2.322 . S
Ho361 O388 2.378 . S
Ho361 O389 2.524 . S
Ho361 O390 2.381 . S
Ho361 O391 2.669 . S
C362 O380 1.259 . S
C362 O381 1.268 . S
C363 Ho360 2.811 . S
C363 C364 1.488 . S
C363 O382 1.215 . S
C363 O383 1.289 . S
C364 C363 1.488 . S
C364 C365 1.348 . S
C364 C369 1.413 . S
C365 C364 1.348 . S
C365 C366 1.442 . S
C365 H392 0.930 . S
C366 C365 1.442 . S
C366 C367 1.381 . S
C366 H393 0.931 . S
C367 C366 1.381 . S
C367 C368 1.321 . S
C368 C367 1.321 . S
C368 C369 1.403 . S
C368 H394 0.934 . S
C369 C364 1.413 . S
C369 C368 1.403 . S
C369 H395 0.930 . S
C370 O384 1.275 . S
C370 O385 1.256 . S
C371 O386 1.259 . S
C371 O387 1.268 . S
C372 Ho361 2.811 . S
C372 C373 1.488 . S
C372 O388 1.215 . S
C372 O389 1.289 . S
C373 C372 1.488 . S
C373 C374 1.348 . S
C373 C378 1.413 . S
C374 C373 1.348 . S
C374 C375 1.442 . S
C374 H396 0.930 . S
C375 C374 1.442 . S
C375 C376 1.381 . S
C375 H397 0.931 . S
C376 C375 1.381 . S
C376 C377 1.321 . S
C377 C376 1.321 . S
C377 C378 1.403 . S
C377 H398 0.934 . S
C378 C373 1.413 . S
C378 C377 1.403 . S
C378 H399 0.930 . S
C379 O390 1.275 . S
C379 O391 1.256 . S
O380 Ho360 2.322 . S
O380 C362 1.259 . S
O381 Ho361 2.346 . S
O381 C362 1.268 . S
O382 Ho360 2.378 . S
O382 C363 1.215 . S
O383 Ho360 2.524 . S
O383 C363 1.289 . S
O384 Ho360 2.381 . S
O384 C370 1.275 . S
O385 Ho360 2.669 . S
O385 Ho361 2.305 . S
O385 C370 1.256 . S
O386 Ho361 2.322 . S
O386 C371 1.259 . S
O387 Ho360 2.346 . S
O387 C371 1.268 . S
O388 Ho361 2.378 . S
O388 C372 1.215 . S
O389 Ho361 2.524 . S
O389 C372 1.289 . S
O390 Ho361 2.381 . S
O390 C379 1.275 . S
O391 Ho360 2.305 . S
O391 Ho361 2.669 . S
O391 C379 1.256 . S
H392 C365 0.930 . S
H393 C366 0.931 . S
H394 C368 0.934 . S
H395 C369 0.930 . S
H396 C374 0.930 . S
H397 C375 0.931 . S
H398 C377 0.934 . S
H399 C378 0.930 . S
Ho400 C403 2.811 . S
Ho400 O420 2.322 . S
Ho400 O422 2.378 . S
Ho400 O423 2.524 . S
Ho400 O424 2.381 . S
Ho400 O425 2.669 . S
Ho400 O427 2.346 . S
Ho400 O431 2.305 . S
Ho401 C412 2.811 . S
Ho401 O421 2.346 . S
Ho401 O425 2.305 . S
Ho401 O426 2.322 . S
Ho401 O428 2.378 . S
Ho401 O429 2.524 . S
Ho401 O430 2.381 . S
Ho401 O431 2.669 . S
C402 O420 1.259 . S
C402 O421 1.268 . S
C403 Ho400 2.811 . S
C403 C404 1.488 . S
C403 O422 1.215 . S
C403 O423 1.289 . S
C404 C403 1.488 . S
C404 C405 1.348 . S
C404 C409 1.413 . S
C405 C404 1.348 . S
C405 C406 1.442 . S
C405 H432 0.930 . S
C406 C405 1.442 . S
C406 C407 1.381 . S
C406 H433 0.931 . S
C407 C406 1.381 . S
C407 C408 1.321 . S
C408 C407 1.321 . S
C408 C409 1.403 . S
C408 H434 0.934 . S
C409 C404 1.413 . S
C409 C408 1.403 . S
C409 H435 0.930 . S
C410 O424 1.275 . S
C410 O425 1.256 . S
C411 O426 1.259 . S
C411 O427 1.268 . S
C412 Ho401 2.811 . S
C412 C413 1.488 . S
C412 O428 1.215 . S
C412 O429 1.289 . S
C413 C412 1.488 . S
C413 C414 1.348 . S
C413 C418 1.413 . S
C414 C413 1.348 . S
C414 C415 1.442 . S
C414 H436 0.930 . S
C415 C414 1.442 . S
C415 C416 1.381 . S
C415 H437 0.931 . S
C416 C415 1.381 . S
C416 C417 1.321 . S
C417 C416 1.321 . S
C417 C418 1.403 . S
C417 H438 0.934 . S
C418 C413 1.413 . S
C418 C417 1.403 . S
C418 H439 0.930 . S
C419 O430 1.275 . S
C419 O431 1.256 . S
O420 Ho400 2.322 . S
O420 C402 1.259 . S
O421 Ho401 2.346 . S
O421 C402 1.268 . S
O422 Ho400 2.378 . S
O422 C403 1.215 . S
O423 Ho400 2.524 . S
O423 C403 1.289 . S
O424 Ho400 2.381 . S
O424 C410 1.275 . S
O425 Ho400 2.669 . S
O425 Ho401 2.305 . S
O425 C410 1.256 . S
O426 Ho401 2.322 . S
O426 C411 1.259 . S
O427 Ho400 2.346 . S
O427 C411 1.268 . S
O428 Ho401 2.378 . S
O428 C412 1.215 . S
O429 Ho401 2.524 . S
O429 C412 1.289 . S
O430 Ho401 2.381 . S
O430 C419 1.275 . S
O431 Ho400 2.305 . S
O431 Ho401 2.669 . S
O431 C419 1.256 . S
H432 C405 0.930 . S
H433 C406 0.931 . S
H434 C408 0.934 . S
H435 C409 0.930 . S
H436 C414 0.930 . S
H437 C415 0.931 . S
H438 C417 0.934 . S
H439 C418 0.930 . S
Ho440 C443 2.811 1_554 S
Ho440 O460 2.322 . S
Ho440 O462 2.378 1_554 S
Ho440 O463 2.524 1_554 S
Ho440 O464 2.381 . S
Ho440 O465 2.669 . S
Ho440 O467 2.346 . S
Ho440 O471 2.305 . S
Ho441 C452 2.811 . S
Ho441 O461 2.346 . S
Ho441 O465 2.305 . S
Ho441 O466 2.322 . S
Ho441 O468 2.378 . S
Ho441 O469 2.524 . S
Ho441 O470 2.381 . S
Ho441 O471 2.669 . S
C442 O460 1.259 . S
C442 O461 1.268 . S
C443 Ho440 2.811 1_556 S
C443 C444 1.488 . S
C443 O462 1.215 . S
C443 O463 1.289 . S
C444 C443 1.488 . S
C444 C445 1.348 . S
C444 C449 1.413 . S
C445 C444 1.348 . S
C445 C446 1.442 . S
C445 H472 0.930 . S
C446 C445 1.442 . S
C446 C447 1.381 . S
C446 H473 0.931 . S
C447 C446 1.381 . S
C447 C448 1.321 . S
C448 C447 1.321 . S
C448 C449 1.403 . S
C448 H474 0.934 . S
C449 C444 1.413 . S
C449 C448 1.403 . S
C449 H475 0.930 . S
C450 O464 1.275 . S
C450 O465 1.256 . S
C451 O466 1.259 . S
C451 O467 1.268 . S
C452 Ho441 2.811 . S
C452 C453 1.488 . S
C452 O468 1.215 . S
C452 O469 1.289 . S
C453 C452 1.488 . S
C453 C454 1.348 . S
C453 C458 1.413 . S
C454 C453 1.348 . S
C454 C455 1.442 . S
C454 H476 0.930 . S
C455 C454 1.442 . S
C455 C456 1.381 . S
C455 H477 0.931 . S
C456 C455 1.381 . S
C456 C457 1.321 . S
C457 C456 1.321 . S
C457 C458 1.403 . S
C457 H478 0.934 . S
C458 C453 1.413 . S
C458 C457 1.403 . S
C458 H479 0.930 . S
C459 O470 1.275 . S
C459 O471 1.256 . S
O460 Ho440 2.322 . S
O460 C442 1.259 . S
O461 Ho441 2.346 . S
O461 C442 1.268 . S
O462 Ho440 2.378 1_556 S
O462 C443 1.215 . S
O463 Ho440 2.524 1_556 S
O463 C443 1.289 . S
O464 Ho440 2.381 . S
O464 C450 1.275 . S
O465 Ho440 2.669 . S
O465 Ho441 2.305 . S
O465 C450 1.256 . S
O466 Ho441 2.322 . S
O466 C451 1.259 . S
O467 Ho440 2.346 . S
O467 C451 1.268 . S
O468 Ho441 2.378 . S
O468 C452 1.215 . S
O469 Ho441 2.524 . S
O469 C452 1.289 . S
O470 Ho441 2.381 . S
O470 C459 1.275 . S
O471 Ho440 2.305 . S
O471 Ho441 2.669 . S
O471 C459 1.256 . S
H472 C445 0.930 . S
H473 C446 0.931 . S
H474 C448 0.934 . S
H475 C449 0.930 . S
H476 C454 0.930 . S
H477 C455 0.931 . S
H478 C457 0.934 . S
H479 C458 0.930 . S
Ho480 C483 2.811 . S
Ho480 O500 2.322 . S
Ho480 O502 2.378 . S
Ho480 O503 2.524 . S
Ho480 O504 2.381 . S
Ho480 O505 2.669 . S
Ho480 O507 2.346 . S
Ho480 O511 2.305 . S
Ho481 C492 2.811 1_554 S
Ho481 O501 2.346 . S
Ho481 O505 2.305 . S
Ho481 O506 2.322 . S
Ho481 O508 2.378 1_554 S
Ho481 O509 2.524 1_554 S
Ho481 O510 2.381 . S
Ho481 O511 2.669 . S
C482 O500 1.259 . S
C482 O501 1.268 . S
C483 Ho480 2.811 . S
C483 C484 1.488 . S
C483 O502 1.215 . S
C483 O503 1.289 . S
C484 C483 1.488 . S
C484 C485 1.348 . S
C484 C489 1.413 . S
C485 C484 1.348 . S
C485 C486 1.442 . S
C485 H512 0.930 . S
C486 C485 1.442 . S
C486 C487 1.381 . S
C486 H513 0.931 . S
C487 C486 1.381 . S
C487 C488 1.321 . S
C488 C487 1.321 . S
C488 C489 1.403 . S
C488 H514 0.934 . S
C489 C484 1.413 . S
C489 C488 1.403 . S
C489 H515 0.930 . S
C490 O504 1.275 . S
C490 O505 1.256 . S
C491 O506 1.259 . S
C491 O507 1.268 . S
C492 Ho481 2.811 1_556 S
C492 C493 1.488 . S
C492 O508 1.215 . S
C492 O509 1.289 . S
C493 C492 1.488 . S
C493 C494 1.348 . S
C493 C498 1.413 . S
C494 C493 1.348 . S
C494 C495 1.442 . S
C494 H516 0.930 . S
C495 C494 1.442 . S
C495 C496 1.381 . S
C495 H517 0.931 . S
C496 C495 1.381 . S
C496 C497 1.321 . S
C497 C496 1.321 . S
C497 C498 1.403 . S
C497 H518 0.934 . S
C498 C493 1.413 . S
C498 C497 1.403 . S
C498 H519 0.930 . S
C499 O510 1.275 . S
C499 O511 1.256 . S
O500 Ho480 2.322 . S
O500 C482 1.259 . S
O501 Ho481 2.346 . S
O501 C482 1.268 . S
O502 Ho480 2.378 . S
O502 C483 1.215 . S
O503 Ho480 2.524 . S
O503 C483 1.289 . S
O504 Ho480 2.381 . S
O504 C490 1.275 . S
O505 Ho480 2.669 . S
O505 Ho481 2.305 . S
O505 C490 1.256 . S
O506 Ho481 2.322 . S
O506 C491 1.259 . S
O507 Ho480 2.346 . S
O507 C491 1.268 . S
O508 Ho481 2.378 1_556 S
O508 C492 1.215 . S
O509 Ho481 2.524 1_556 S
O509 C492 1.289 . S
O510 Ho481 2.381 . S
O510 C499 1.275 . S
O511 Ho480 2.305 . S
O511 Ho481 2.669 . S
O511 C499 1.256 . S
H512 C485 0.930 . S
H513 C486 0.931 . S
H514 C488 0.934 . S
H515 C489 0.930 . S
H516 C494 0.930 . S
H517 C495 0.931 . S
H518 C497 0.934 . S
H519 C498 0.930 . S
Ho520 C523 2.811 1_556 S
Ho520 O540 2.322 . S
Ho520 O542 2.378 1_556 S
Ho520 O543 2.524 1_556 S
Ho520 O544 2.381 . S
Ho520 O545 2.669 . S
Ho520 O547 2.346 . S
Ho520 O551 2.305 . S
Ho521 C532 2.811 . S
Ho521 O541 2.346 . S
Ho521 O545 2.305 . S
Ho521 O546 2.322 . S
Ho521 O548 2.378 . S
Ho521 O549 2.524 . S
Ho521 O550 2.381 . S
Ho521 O551 2.669 . S
C522 O540 1.259 . S
C522 O541 1.268 . S
C523 Ho520 2.811 1_554 S
C523 C524 1.488 . S
C523 O542 1.215 . S
C523 O543 1.289 . S
C524 C523 1.488 . S
C524 C525 1.348 . S
C524 C529 1.413 . S
C525 C524 1.348 . S
C525 C526 1.442 . S
C525 H552 0.930 . S
C526 C525 1.442 . S
C526 C527 1.381 . S
C526 H553 0.931 . S
C527 C526 1.381 . S
C527 C528 1.321 . S
C528 C527 1.321 . S
C528 C529 1.403 . S
C528 H554 0.934 . S
C529 C524 1.413 . S
C529 C528 1.403 . S
C529 H555 0.930 . S
C530 O544 1.275 . S
C530 O545 1.256 . S
C531 O546 1.259 . S
C531 O547 1.268 . S
C532 Ho521 2.811 . S
C532 C533 1.488 . S
C532 O548 1.215 . S
C532 O549 1.289 . S
C533 C532 1.488 . S
C533 C534 1.348 . S
C533 C538 1.413 . S
C534 C533 1.348 . S
C534 C535 1.442 . S
C534 H556 0.930 . S
C535 C534 1.442 . S
C535 C536 1.381 . S
C535 H557 0.931 . S
C536 C535 1.381 . S
C536 C537 1.321 . S
C537 C536 1.321 . S
C537 C538 1.403 . S
C537 H558 0.934 . S
C538 C533 1.413 . S
C538 C537 1.403 . S
C538 H559 0.930 . S
C539 O550 1.275 . S
C539 O551 1.256 . S
O540 Ho520 2.322 . S
O540 C522 1.259 . S
O541 Ho521 2.346 . S
O541 C522 1.268 . S
O542 Ho520 2.378 1_554 S
O542 C523 1.215 . S
O543 Ho520 2.524 1_554 S
O543 C523 1.289 . S
O544 Ho520 2.381 . S
O544 C530 1.275 . S
O545 Ho520 2.669 . S
O545 Ho521 2.305 . S
O545 C530 1.256 . S
O546 Ho521 2.322 . S
O546 C531 1.259 . S
O547 Ho520 2.346 . S
O547 C531 1.268 . S
O548 Ho521 2.378 . S
O548 C532 1.215 . S
O549 Ho521 2.524 . S
O549 C532 1.289 . S
O550 Ho521 2.381 . S
O550 C539 1.275 . S
O551 Ho520 2.305 . S
O551 Ho521 2.669 . S
O551 C539 1.256 . S
H552 C525 0.930 . S
H553 C526 0.931 . S
H554 C528 0.934 . S
H555 C529 0.930 . S
H556 C534 0.930 . S
H557 C535 0.931 . S
H558 C537 0.934 . S
H559 C538 0.930 . S
Ho560 C563 2.811 . S
Ho560 O580 2.322 . S
Ho560 O582 2.378 . S
Ho560 O583 2.524 . S
Ho560 O584 2.381 . S
Ho560 O585 2.669 . S
Ho560 O587 2.346 . S
Ho560 O591 2.305 . S
Ho561 C572 2.811 . S
Ho561 O581 2.346 . S
Ho561 O585 2.305 . S
Ho561 O586 2.322 . S
Ho561 O588 2.378 . S
Ho561 O589 2.524 . S
Ho561 O590 2.381 . S
Ho561 O591 2.669 . S
C562 O580 1.259 . S
C562 O581 1.268 . S
C563 Ho560 2.811 . S
C563 C564 1.488 . S
C563 O582 1.215 . S
C563 O583 1.289 . S
C564 C563 1.488 . S
C564 C565 1.348 . S
C564 C569 1.413 . S
C565 C564 1.348 . S
C565 C566 1.442 . S
C565 H592 0.930 . S
C566 C565 1.442 . S
C566 C567 1.381 . S
C566 H593 0.931 . S
C567 C566 1.381 . S
C567 C568 1.321 . S
C568 C567 1.321 . S
C568 C569 1.403 . S
C568 H594 0.934 . S
C569 C564 1.413 . S
C569 C568 1.403 . S
C569 H595 0.930 . S
C570 O584 1.275 . S
C570 O585 1.256 . S
C571 O586 1.259 . S
C571 O587 1.268 . S
C572 Ho561 2.811 . S
C572 C573 1.488 . S
C572 O588 1.215 . S
C572 O589 1.289 . S
C573 C572 1.488 . S
C573 C574 1.348 . S
C573 C578 1.413 . S
C574 C573 1.348 . S
C574 C575 1.442 . S
C574 H596 0.930 . S
C575 C574 1.442 . S
C575 C576 1.381 . S
C575 H597 0.931 . S
C576 C575 1.381 . S
C576 C577 1.321 . S
C577 C576 1.321 . S
C577 C578 1.403 . S
C577 H598 0.934 . S
C578 C573 1.413 . S
C578 C577 1.403 . S
C578 H599 0.930 . S
C579 O590 1.275 . S
C579 O591 1.256 . S
O580 Ho560 2.322 . S
O580 C562 1.259 . S
O581 Ho561 2.346 . S
O581 C562 1.268 . S
O582 Ho560 2.378 . S
O582 C563 1.215 . S
O583 Ho560 2.524 . S
O583 C563 1.289 . S
O584 Ho560 2.381 . S
O584 C570 1.275 . S
O585 Ho560 2.669 . S
O585 Ho561 2.305 . S
O585 C570 1.256 . S
O586 Ho561 2.322 . S
O586 C571 1.259 . S
O587 Ho560 2.346 . S
O587 C571 1.268 . S
O588 Ho561 2.378 . S
O588 C572 1.215 . S
O589 Ho561 2.524 . S
O589 C572 1.289 . S
O590 Ho561 2.381 . S
O590 C579 1.275 . S
O591 Ho560 2.305 . S
O591 Ho561 2.669 . S
O591 C579 1.256 . S
H592 C565 0.930 . S
H593 C566 0.931 . S
H594 C568 0.934 . S
H595 C569 0.930 . S
H596 C574 0.930 . S
H597 C575 0.931 . S
H598 C577 0.934 . S
H599 C578 0.930 . S
Ho600 C603 2.811 . S
Ho600 O620 2.322 . S
Ho600 O622 2.378 . S
Ho600 O623 2.524 . S
Ho600 O624 2.381 . S
Ho600 O625 2.669 . S
Ho600 O627 2.346 . S
Ho600 O631 2.305 . S
Ho601 C612 2.811 . S
Ho601 O621 2.346 . S
Ho601 O625 2.305 . S
Ho601 O626 2.322 . S
Ho601 O628 2.378 . S
Ho601 O629 2.524 . S
Ho601 O630 2.381 . S
Ho601 O631 2.669 . S
C602 O620 1.259 . S
C602 O621 1.268 . S
C603 Ho600 2.811 . S
C603 C604 1.488 . S
C603 O622 1.215 . S
C603 O623 1.289 . S
C604 C603 1.488 . S
C604 C605 1.348 . S
C604 C609 1.413 . S
C605 C604 1.348 . S
C605 C606 1.442 . S
C605 H632 0.930 . S
C606 C605 1.442 . S
C606 C607 1.381 . S
C606 H633 0.931 . S
C607 C606 1.381 . S
C607 C608 1.321 . S
C608 C607 1.321 . S
C608 C609 1.403 . S
C608 H634 0.934 . S
C609 C604 1.413 . S
C609 C608 1.403 . S
C609 H635 0.930 . S
C610 O624 1.275 . S
C610 O625 1.256 . S
C611 O626 1.259 . S
C611 O627 1.268 . S
C612 Ho601 2.811 . S
C612 C613 1.488 . S
C612 O628 1.215 . S
C612 O629 1.289 . S
C613 C612 1.488 . S
C613 C614 1.348 . S
C613 C618 1.413 . S
C614 C613 1.348 . S
C614 C615 1.442 . S
C614 H636 0.930 . S
C615 C614 1.442 . S
C615 C616 1.381 . S
C615 H637 0.931 . S
C616 C615 1.381 . S
C616 C617 1.321 . S
C617 C616 1.321 . S
C617 C618 1.403 . S
C617 H638 0.934 . S
C618 C613 1.413 . S
C618 C617 1.403 . S
C618 H639 0.930 . S
C619 O630 1.275 . S
C619 O631 1.256 . S
O620 Ho600 2.322 . S
O620 C602 1.259 . S
O621 Ho601 2.346 . S
O621 C602 1.268 . S
O622 Ho600 2.378 . S
O622 C603 1.215 . S
O623 Ho600 2.524 . S
O623 C603 1.289 . S
O624 Ho600 2.381 . S
O624 C610 1.275 . S
O625 Ho600 2.669 . S
O625 Ho601 2.305 . S
O625 C610 1.256 . S
O626 Ho601 2.322 . S
O626 C611 1.259 . S
O627 Ho600 2.346 . S
O627 C611 1.268 . S
O628 Ho601 2.378 . S
O628 C612 1.215 . S
O629 Ho601 2.524 . S
O629 C612 1.289 . S
O630 Ho601 2.381 . S
O630 C619 1.275 . S
O631 Ho600 2.305 . S
O631 Ho601 2.669 . S
O631 C619 1.256 . S
H632 C605 0.930 . S
H633 C606 0.931 . S
H634 C608 0.934 . S
H635 C609 0.930 . S
H636 C614 0.930 . S
H637 C615 0.931 . S
H638 C617 0.934 . S
H639 C618 0.930 . S
H640 C646 0.930 . S
H641 C650 0.930 . S
H642 C655 0.929 . S
H643 C653 0.929 . S
H644 C648 0.929 . S
H645 C654 0.929 . S
C646 H640 0.930 . S
C646 C647 1.367 . S
C646 C654 1.378 . S
C647 C646 1.367 . S
C647 C655 1.433 . S
C648 H644 0.929 . S
C648 C650 1.378 . S
C648 C652 1.350 . S
C649 C652 1.463 . S
C649 C654 1.350 . S
C649 N657 1.427 . S
C650 H641 0.930 . S
C650 C648 1.378 . S
C650 C651 1.367 . S
C651 C650 1.367 . S
C651 C653 1.433 . S
C652 C648 1.350 . S
C652 C649 1.463 . S
C652 N656 1.427 . S
C653 H643 0.929 . S
C653 C651 1.433 . S
C653 N656 1.384 . S
C654 H645 0.929 . S
C654 C646 1.378 . S
C654 C649 1.350 . S
C655 H642 0.929 . S
C655 C647 1.433 . S
C655 N657 1.384 . S
N656 C652 1.427 . S
N656 C653 1.384 . S
N657 C649 1.427 . S
N657 C655 1.384 . S
H658 C664 0.930 . S
H659 C668 0.930 . S
H660 C673 0.929 . S
H661 C671 0.929 . S
H662 C666 0.929 . S
H663 C672 0.929 . S
C664 H658 0.930 . S
C664 C665 1.367 . S
C664 C672 1.378 . S
C665 C664 1.367 . S
C665 C673 1.433 . S
C666 H662 0.929 . S
C666 C668 1.378 . S
C666 C670 1.350 . S
C667 C670 1.463 . S
C667 C672 1.350 . S
C667 N675 1.427 . S
C668 H659 0.930 . S
C668 C666 1.378 . S
C668 C669 1.367 . S
C669 C668 1.367 . S
C669 C671 1.433 . S
C670 C666 1.350 . S
C670 C667 1.463 . S
C670 N674 1.427 . S
C671 H661 0.929 . S
C671 C669 1.433 . S
C671 N674 1.384 . S
C672 H663 0.929 . S
C672 C664 1.378 . S
C672 C667 1.350 . S
C673 H660 0.929 . S
C673 C665 1.433 . S
C673 N675 1.384 . S
N674 C670 1.427 . S
N674 C671 1.384 . S
N675 C667 1.427 . S
N675 C673 1.384 . S
H676 C682 0.930 . S
H677 C686 0.930 1_556 S
H678 C691 0.929 . S
H679 C689 0.929 . S
H680 C684 0.929 . S
H681 C690 0.929 . S
C682 H676 0.930 . S
C682 C683 1.367 . S
C682 C690 1.378 . S
C683 C682 1.367 . S
C683 C691 1.433 . S
C684 H680 0.929 . S
C684 C686 1.378 . S
C684 C688 1.350 . S
C685 C688 1.463 . S
C685 C690 1.350 . S
C685 N693 1.427 . S
C686 H677 0.930 1_554 S
C686 C684 1.378 . S
C686 C687 1.367 . S
C687 C686 1.367 . S
C687 C689 1.433 . S
C688 C684 1.350 . S
C688 C685 1.463 . S
C688 N692 1.427 . S
C689 H679 0.929 . S
C689 C687 1.433 . S
C689 N692 1.384 . S
C690 H681 0.929 . S
C690 C682 1.378 . S
C690 C685 1.350 . S
C691 H678 0.929 . S
C691 C683 1.433 . S
C691 N693 1.384 . S
N692 C688 1.427 . S
N692 C689 1.384 . S
N693 C685 1.427 . S
N693 C691 1.384 . S
H694 C700 0.930 . S
H695 C704 0.930 . S
H696 C709 0.929 . S
H697 C707 0.929 . S
H698 C702 0.929 . S
H699 C708 0.929 . S
C700 H694 0.930 . S
C700 C701 1.367 . S
C700 C708 1.378 . S
C701 C700 1.367 . S
C701 C709 1.433 . S
C702 H698 0.929 . S
C702 C704 1.378 . S
C702 C706 1.350 . S
C703 C706 1.463 . S
C703 C708 1.350 . S
C703 N711 1.427 . S
C704 H695 0.930 . S
C704 C702 1.378 . S
C704 C705 1.367 . S
C705 C704 1.367 . S
C705 C707 1.433 . S
C706 C702 1.350 . S
C706 C703 1.463 . S
C706 N710 1.427 . S
C707 H697 0.929 . S
C707 C705 1.433 . S
C707 N710 1.384 . S
C708 H699 0.929 . S
C708 C700 1.378 . S
C708 C703 1.350 . S
C709 H696 0.929 . S
C709 C701 1.433 . S
C709 N711 1.384 . S
N710 C706 1.427 . S
N710 C707 1.384 . S
N711 C703 1.427 . S
N711 C709 1.384 . S
H712 C718 0.930 . S
H713 C722 0.930 . S
H714 C727 0.929 . S
H715 C725 0.929 . S
H716 C720 0.929 . S
H717 C726 0.929 . S
C718 H712 0.930 . S
C718 C719 1.367 . S
C718 C726 1.378 . S
C719 C718 1.367 . S
C719 C727 1.433 . S
C720 H716 0.929 . S
C720 C722 1.378 . S
C720 C724 1.350 . S
C721 C724 1.463 . S
C721 C726 1.350 . S
C721 N729 1.427 . S
C722 H713 0.930 . S
C722 C720 1.378 . S
C722 C723 1.367 . S
C723 C722 1.367 . S
C723 C725 1.433 . S
C724 C720 1.350 . S
C724 C721 1.463 . S
C724 N728 1.427 . S
C725 H715 0.929 . S
C725 C723 1.433 . S
C725 N728 1.384 . S
C726 H717 0.929 . S
C726 C718 1.378 . S
C726 C721 1.350 . S
C727 H714 0.929 . S
C727 C719 1.433 . S
C727 N729 1.384 . S
N728 C724 1.427 . S
N728 C725 1.384 . S
N729 C721 1.427 . S
N729 C727 1.384 . S
H730 C736 0.930 . S
H731 C740 0.930 . S
H732 C745 0.929 . S
H733 C743 0.929 . S
H734 C738 0.929 . S
H735 C744 0.929 . S
C736 H730 0.930 . S
C736 C737 1.367 . S
C736 C744 1.378 . S
C737 C736 1.367 . S
C737 C745 1.433 . S
C738 H734 0.929 . S
C738 C740 1.378 . S
C738 C742 1.350 . S
C739 C742 1.463 . S
C739 C744 1.350 . S
C739 N747 1.427 . S
C740 H731 0.930 . S
C740 C738 1.378 . S
C740 C741 1.367 . S
C741 C740 1.367 . S
C741 C743 1.433 . S
C742 C738 1.350 . S
C742 C739 1.463 . S
C742 N746 1.427 . S
C743 H733 0.929 . S
C743 C741 1.433 . S
C743 N746 1.384 . S
C744 H735 0.929 . S
C744 C736 1.378 . S
C744 C739 1.350 . S
C745 H732 0.929 . S
C745 C737 1.433 . S
C745 N747 1.384 . S
N746 C742 1.427 . S
N746 C743 1.384 . S
N747 C739 1.427 . S
N747 C745 1.384 . S
H748 C754 0.930 . S
H749 C758 0.930 . S
H750 C763 0.929 . S
H751 C761 0.929 . S
H752 C756 0.929 . S
H753 C762 0.929 . S
C754 H748 0.930 . S
C754 C755 1.367 . S
C754 C762 1.378 . S
C755 C754 1.367 . S
C755 C763 1.433 . S
C756 H752 0.929 . S
C756 C758 1.378 1_556 S
C756 C760 1.350 . S
C757 C760 1.463 . S
C757 C762 1.350 . S
C757 N765 1.427 . S
C758 H749 0.930 . S
C758 C756 1.378 1_554 S
C758 C759 1.367 . S
C759 C758 1.367 . S
C759 C761 1.433 . S
C760 C756 1.350 . S
C760 C757 1.463 . S
C760 N764 1.427 . S
C761 H751 0.929 . S
C761 C759 1.433 . S
C761 N764 1.384 1_554 S
C762 H753 0.929 . S
C762 C754 1.378 . S
C762 C757 1.350 . S
C763 H750 0.929 . S
C763 C755 1.433 . S
C763 N765 1.384 . S
N764 C760 1.427 . S
N764 C761 1.384 1_556 S
N765 C757 1.427 . S
N765 C763 1.384 . S
H766 C772 0.930 . S
H767 C776 0.930 . S
H768 C781 0.929 . S
H769 C779 0.929 . S
H770 C774 0.929 . S
H771 C780 0.929 . S
C772 H766 0.930 . S
C772 C773 1.367 . S
C772 C780 1.378 1_556 S
C773 C772 1.367 . S
C773 C781 1.433 1_556 S
C774 H770 0.929 . S
C774 C776 1.378 . S
C774 C778 1.350 . S
C775 C778 1.463 . S
C775 C780 1.350 . S
C775 N783 1.427 . S
C776 H767 0.930 . S
C776 C774 1.378 . S
C776 C777 1.367 . S
C777 C776 1.367 . S
C777 C779 1.433 . S
C778 C774 1.350 . S
C778 C775 1.463 . S
C778 N782 1.427 . S
C779 H769 0.929 . S
C779 C777 1.433 . S
C779 N782 1.384 . S
C780 H771 0.929 . S
C780 C772 1.378 1_554 S
C780 C775 1.350 . S
C781 H768 0.929 . S
C781 C773 1.433 1_554 S
C781 N783 1.384 . S
N782 C778 1.427 . S
N782 C779 1.384 . S
N783 C775 1.427 . S
N783 C781 1.384 . S
H784 C790 0.930 . S
H785 C794 0.930 . S
H786 C799 0.929 . S
H787 C797 0.929 . S
H788 C792 0.929 . S
H789 C798 0.929 . S
C790 H784 0.930 . S
C790 C791 1.367 . S
C790 C798 1.378 . S
C791 C790 1.367 . S
C791 C799 1.433 . S
C792 H788 0.929 . S
C792 C794 1.378 . S
C792 C796 1.350 . S
C793 C796 1.463 . S
C793 C798 1.350 . S
C793 N801 1.427 . S
C794 H785 0.930 . S
C794 C792 1.378 . S
C794 C795 1.367 . S
C795 C794 1.367 . S
C795 C797 1.433 . S
C796 C792 1.350 . S
C796 C793 1.463 . S
C796 N800 1.427 . S
C797 H787 0.929 . S
C797 C795 1.433 . S
C797 N800 1.384 . S
C798 H789 0.929 . S
C798 C790 1.378 . S
C798 C793 1.350 . S
C799 H786 0.929 . S
C799 C791 1.433 . S
C799 N801 1.384 . S
N800 C796 1.427 . S
N800 C797 1.384 . S
N801 C793 1.427 . S
N801 C799 1.384 . S
H802 C808 0.930 . S
H803 C812 0.930 . S
H804 C817 0.929 . S
H805 C815 0.929 . S
H806 C810 0.929 . S
H807 C816 0.929 . S
C808 H802 0.930 . S
C808 C809 1.367 . S
C808 C816 1.378 . S
C809 C808 1.367 . S
C809 C817 1.433 . S
C810 H806 0.929 . S
C810 C812 1.378 1_554 S
C810 C814 1.350 . S
C811 C814 1.463 . S
C811 C816 1.350 . S
C811 N819 1.427 . S
C812 H803 0.930 . S
C812 C810 1.378 1_556 S
C812 C813 1.367 . S
C813 C812 1.367 . S
C813 C815 1.433 . S
C814 C810 1.350 . S
C814 C811 1.463 . S
C814 N818 1.427 . S
C815 H805 0.929 . S
C815 C813 1.433 . S
C815 N818 1.384 1_556 S
C816 H807 0.929 . S
C816 C808 1.378 . S
C816 C811 1.350 . S
C817 H804 0.929 . S
C817 C809 1.433 . S
C817 N819 1.384 . S
N818 C814 1.427 . S
N818 C815 1.384 1_554 S
N819 C811 1.427 . S
N819 C817 1.384 . S
H820 C826 0.930 1_554 S
H821 C830 0.930 . S
H822 C835 0.929 . S
H823 C833 0.929 . S
H824 C828 0.929 . S
H825 C834 0.929 . S
C826 H820 0.930 1_556 S
C826 C827 1.367 . S
C826 C834 1.378 . S
C827 C826 1.367 . S
C827 C835 1.433 . S
C828 H824 0.929 . S
C828 C830 1.378 . S
C828 C832 1.350 . S
C829 C832 1.463 . S
C829 C834 1.350 . S
C829 N837 1.427 . S
C830 H821 0.930 . S
C830 C828 1.378 . S
C830 C831 1.367 . S
C831 C830 1.367 . S
C831 C833 1.433 . S
C832 C828 1.350 . S
C832 C829 1.463 . S
C832 N836 1.427 . S
C833 H823 0.929 . S
C833 C831 1.433 . S
C833 N836 1.384 . S
C834 H825 0.929 . S
C834 C826 1.378 . S
C834 C829 1.350 . S
C835 H822 0.929 . S
C835 C827 1.433 . S
C835 N837 1.384 . S
N836 C832 1.427 . S
N836 C833 1.384 . S
N837 C829 1.427 . S
N837 C835 1.384 . S
H838 C844 0.930 . S
H839 C848 0.930 . S
H840 C853 0.929 . S
H841 C851 0.929 . S
H842 C846 0.929 . S
H843 C852 0.929 . S
C844 H838 0.930 . S
C844 C845 1.367 . S
C844 C852 1.378 . S
C845 C844 1.367 . S
C845 C853 1.433 . S
C846 H842 0.929 . S
C846 C848 1.378 . S
C846 C850 1.350 . S
C847 C850 1.463 . S
C847 C852 1.350 . S
C847 N855 1.427 . S
C848 H839 0.930 . S
C848 C846 1.378 . S
C848 C849 1.367 . S
C849 C848 1.367 . S
C849 C851 1.433 . S
C850 C846 1.350 . S
C850 C847 1.463 . S
C850 N854 1.427 . S
C851 H841 0.929 . S
C851 C849 1.433 . S
C851 N854 1.384 . S
C852 H843 0.929 . S
C852 C844 1.378 . S
C852 C847 1.350 . S
C853 H840 0.929 . S
C853 C845 1.433 . S
C853 N855 1.384 . S
N854 C850 1.427 . S
N854 C851 1.384 . S
N855 C847 1.427 . S
N855 C853 1.384 . S
H856 C862 0.930 . S
H857 C866 0.930 . S
H858 C871 0.929 . S
H859 C869 0.929 . S
H860 C864 0.929 . S
H861 C870 0.929 . S
C862 H856 0.930 . S
C862 C863 1.367 . S
C862 C870 1.378 . S
C863 C862 1.367 . S
C863 C871 1.433 . S
C864 H860 0.929 . S
C864 C866 1.378 . S
C864 C868 1.350 . S
C865 C868 1.463 . S
C865 C870 1.350 . S
C865 N873 1.427 . S
C866 H857 0.930 . S
C866 C864 1.378 . S
C866 C867 1.367 . S
C867 C866 1.367 . S
C867 C869 1.433 . S
C868 C864 1.350 . S
C868 C865 1.463 . S
C868 N872 1.427 . S
C869 H859 0.929 . S
C869 C867 1.433 . S
C869 N872 1.384 . S
C870 H861 0.929 . S
C870 C862 1.378 . S
C870 C865 1.350 . S
C871 H858 0.929 . S
C871 C863 1.433 . S
C871 N873 1.384 . S
N872 C868 1.427 . S
N872 C869 1.384 . S
N873 C865 1.427 . S
N873 C871 1.384 . S
H874 C880 0.930 . S
H875 C884 0.930 . S
H876 C889 0.929 . S
H877 C887 0.929 . S
H878 C882 0.929 . S
H879 C888 0.929 . S
C880 H874 0.930 . S
C880 C881 1.367 . S
C880 C888 1.378 . S
C881 C880 1.367 . S
C881 C889 1.433 . S
C882 H878 0.929 . S
C882 C884 1.378 . S
C882 C886 1.350 . S
C883 C886 1.463 . S
C883 C888 1.350 . S
C883 N891 1.427 . S
C884 H875 0.930 . S
C884 C882 1.378 . S
C884 C885 1.367 . S
C885 C884 1.367 . S
C885 C887 1.433 . S
C886 C882 1.350 . S
C886 C883 1.463 . S
C886 N890 1.427 . S
C887 H877 0.929 . S
C887 C885 1.433 . S
C887 N890 1.384 . S
C888 H879 0.929 . S
C888 C880 1.378 . S
C888 C883 1.350 . S
C889 H876 0.929 . S
C889 C881 1.433 . S
C889 N891 1.384 . S
N890 C886 1.427 . S
N890 C887 1.384 . S
N891 C883 1.427 . S
N891 C889 1.384 . S
H892 C898 0.930 . S
H893 C902 0.930 . S
H894 C907 0.929 . S
H895 C905 0.929 . S
H896 C900 0.929 . S
H897 C906 0.929 . S
C898 H892 0.930 . S
C898 C899 1.367 . S
C898 C906 1.378 . S
C899 C898 1.367 . S
C899 C907 1.433 . S
C900 H896 0.929 . S
C900 C902 1.378 1_554 S
C900 C904 1.350 . S
C901 C904 1.463 . S
C901 C906 1.350 . S
C901 N909 1.427 . S
C902 H893 0.930 . S
C902 C900 1.378 1_556 S
C902 C903 1.367 . S
C903 C902 1.367 . S
C903 C905 1.433 . S
C904 C900 1.350 . S
C904 C901 1.463 . S
C904 N908 1.427 . S
C905 H895 0.929 . S
C905 C903 1.433 . S
C905 N908 1.384 1_556 S
C906 H897 0.929 . S
C906 C898 1.378 . S
C906 C901 1.350 . S
C907 H894 0.929 . S
C907 C899 1.433 . S
C907 N909 1.384 . S
N908 C904 1.427 . S
N908 C905 1.384 1_554 S
N909 C901 1.427 . S
N909 C907 1.384 . S
H910 C916 0.930 1_554 S
H911 C920 0.930 . S
H912 C925 0.929 . S
H913 C923 0.929 . S
H914 C918 0.929 . S
H915 C924 0.929 . S
C916 H910 0.930 1_556 S
C916 C917 1.367 . S
C916 C924 1.378 . S
C917 C916 1.367 . S
C917 C925 1.433 . S
C918 H914 0.929 . S
C918 C920 1.378 . S
C918 C922 1.350 . S
C919 C922 1.463 . S
C919 C924 1.350 . S
C919 N927 1.427 . S
C920 H911 0.930 . S
C920 C918 1.378 . S
C920 C921 1.367 . S
C921 C920 1.367 . S
C921 C923 1.433 . S
C922 C918 1.350 . S
C922 C919 1.463 . S
C922 N926 1.427 . S
C923 H913 0.929 . S
C923 C921 1.433 . S
C923 N926 1.384 . S
C924 H915 0.929 . S
C924 C916 1.378 . S
C924 C919 1.350 . S
C925 H912 0.929 . S
C925 C917 1.433 . S
C925 N927 1.384 . S
N926 C922 1.427 . S
N926 C923 1.384 . S
N927 C919 1.427 . S
N927 C925 1.384 . S
H928 C934 0.930 . S
H929 C938 0.930 . S
H930 C943 0.929 . S
H931 C941 0.929 . S
H932 C936 0.929 . S
H933 C942 0.929 . S
C934 H928 0.930 . S
C934 C935 1.367 . S
C934 C942 1.378 . S
C935 C934 1.367 . S
C935 C943 1.433 . S
C936 H932 0.929 . S
C936 C938 1.378 . S
C936 C940 1.350 . S
C937 C940 1.463 . S
C937 C942 1.350 . S
C937 N945 1.427 . S
C938 H929 0.930 . S
C938 C936 1.378 . S
C938 C939 1.367 . S
C939 C938 1.367 . S
C939 C941 1.433 . S
C940 C936 1.350 . S
C940 C937 1.463 . S
C940 N944 1.427 . S
C941 H931 0.929 . S
C941 C939 1.433 . S
C941 N944 1.384 . S
C942 H933 0.929 . S
C942 C934 1.378 . S
C942 C937 1.350 . S
C943 H930 0.929 . S
C943 C935 1.433 . S
C943 N945 1.384 . S
N944 C940 1.427 . S
N944 C941 1.384 . S
N945 C937 1.427 . S
N945 C943 1.384 . S
H946 C952 0.930 . S
H947 C956 0.930 . S
H948 C961 0.929 . S
H949 C959 0.929 . S
H950 C954 0.929 . S
H951 C960 0.929 . S
C952 H946 0.930 . S
C952 C953 1.367 . S
C952 C960 1.378 . S
C953 C952 1.367 . S
C953 C961 1.433 . S
C954 H950 0.929 . S
C954 C956 1.378 . S
C954 C958 1.350 . S
C955 C958 1.463 . S
C955 C960 1.350 . S
C955 N963 1.427 . S
C956 H947 0.930 . S
C956 C954 1.378 . S
C956 C957 1.367 . S
C957 C956 1.367 . S
C957 C959 1.433 . S
C958 C954 1.350 . S
C958 C955 1.463 . S
C958 N962 1.427 . S
C959 H949 0.929 . S
C959 C957 1.433 . S
C959 N962 1.384 . S
C960 H951 0.929 . S
C960 C952 1.378 . S
C960 C955 1.350 . S
C961 H948 0.929 . S
C961 C953 1.433 . S
C961 N963 1.384 . S
N962 C958 1.427 . S
N962 C959 1.384 . S
N963 C955 1.427 . S
N963 C961 1.384 . S
H964 C970 0.930 . S
H965 C974 0.930 . S
H966 C979 0.929 . S
H967 C977 0.929 . S
H968 C972 0.929 . S
H969 C978 0.929 . S
C970 H964 0.930 . S
C970 C971 1.367 . S
C970 C978 1.378 . S
C971 C970 1.367 . S
C971 C979 1.433 . S
C972 H968 0.929 . S
C972 C974 1.378 . S
C972 C976 1.350 . S
C973 C976 1.463 . S
C973 C978 1.350 . S
C973 N981 1.427 . S
C974 H965 0.930 . S
C974 C972 1.378 . S
C974 C975 1.367 . S
C975 C974 1.367 . S
C975 C977 1.433 . S
C976 C972 1.350 . S
C976 C973 1.463 . S
C976 N980 1.427 . S
C977 H967 0.929 . S
C977 C975 1.433 . S
C977 N980 1.384 . S
C978 H969 0.929 . S
C978 C970 1.378 . S
C978 C973 1.350 . S
C979 H966 0.929 . S
C979 C971 1.433 . S
C979 N981 1.384 . S
N980 C976 1.427 . S
N980 C977 1.384 . S
N981 C973 1.427 . S
N981 C979 1.384 . S
H982 C988 0.930 . S
H983 C992 0.930 . S
H984 C997 0.929 . S
H985 C995 0.929 . S
H986 C990 0.929 . S
H987 C996 0.929 . S
C988 H982 0.930 . S
C988 C989 1.367 . S
C988 C996 1.378 . S
C989 C988 1.367 . S
C989 C997 1.433 . S
C990 H986 0.929 . S
C990 C992 1.378 . S
C990 C994 1.350 . S
C991 C994 1.463 1_655 S
C991 C996 1.350 . S
C991 N999 1.427 . S
C992 H983 0.930 . S
C992 C990 1.378 . S
C992 C993 1.367 . S
C993 C992 1.367 . S
C993 C995 1.433 . S
C994 C990 1.350 . S
C994 C991 1.463 1_455 S
C994 N998 1.427 . S
C995 H985 0.929 . S
C995 C993 1.433 . S
C995 N998 1.384 . S
C996 H987 0.929 . S
C996 C988 1.378 . S
C996 C991 1.350 . S
C997 H984 0.929 . S
C997 C989 1.433 . S
C997 N999 1.384 . S
N998 C994 1.427 . S
N998 C995 1.384 . S
N999 C991 1.427 . S
N999 C997 1.384 . S
H1000 C1006 0.930 . S
H1001 C1010 0.930 . S
H1002 C1015 0.929 . S
H1003 C1013 0.929 . S
H1004 C1008 0.929 . S
H1005 C1014 0.929 . S
C1006 H1000 0.930 . S
C1006 C1007 1.367 . S
C1006 C1014 1.378 . S
C1007 C1006 1.367 . S
C1007 C1015 1.433 . S
C1008 H1004 0.929 . S
C1008 C1010 1.378 . S
C1008 C1012 1.350 . S
C1009 C1012 1.463 . S
C1009 C1014 1.350 . S
C1009 N1017 1.427 . S
C1010 H1001 0.930 . S
C1010 C1008 1.378 . S
C1010 C1011 1.367 . S
C1011 C1010 1.367 . S
C1011 C1013 1.433 . S
C1012 C1008 1.350 . S
C1012 C1009 1.463 . S
C1012 N1016 1.427 . S
C1013 H1003 0.929 . S
C1013 C1011 1.433 . S
C1013 N1016 1.384 . S
C1014 H1005 0.929 . S
C1014 C1006 1.378 . S
C1014 C1009 1.350 . S
C1015 H1002 0.929 . S
C1015 C1007 1.433 . S
C1015 N1017 1.384 . S
N1016 C1012 1.427 . S
N1016 C1013 1.384 . S
N1017 C1009 1.427 . S
N1017 C1015 1.384 . S
H1018 C1024 0.930 . S
H1019 C1028 0.930 . S
H1020 C1033 0.929 . S
H1021 C1031 0.929 . S
H1022 C1026 0.929 . S
H1023 C1032 0.929 . S
C1024 H1018 0.930 . S
C1024 C1025 1.367 . S
C1024 C1032 1.378 . S
C1025 C1024 1.367 . S
C1025 C1033 1.433 . S
C1026 H1022 0.929 . S
C1026 C1028 1.378 . S
C1026 C1030 1.350 . S
C1027 C1030 1.463 1_455 S
C1027 C1032 1.350 . S
C1027 N1035 1.427 . S
C1028 H1019 0.930 . S
C1028 C1026 1.378 . S
C1028 C1029 1.367 . S
C1029 C1028 1.367 . S
C1029 C1031 1.433 . S
C1030 C1026 1.350 . S
C1030 C1027 1.463 1_655 S
C1030 N1034 1.427 . S
C1031 H1021 0.929 . S
C1031 C1029 1.433 . S
C1031 N1034 1.384 . S
C1032 H1023 0.929 . S
C1032 C1024 1.378 . S
C1032 C1027 1.350 . S
C1033 H1020 0.929 . S
C1033 C1025 1.433 . S
C1033 N1035 1.384 . S
N1034 C1030 1.427 . S
N1034 C1031 1.384 . S
N1035 C1027 1.427 . S
N1035 C1033 1.384 . S
H1036 C1042 0.930 . S
H1037 C1046 0.930 . S
H1038 C1051 0.929 . S
H1039 C1049 0.929 . S
H1040 C1044 0.929 . S
H1041 C1050 0.929 . S
C1042 H1036 0.930 . S
C1042 C1043 1.367 . S
C1042 C1050 1.378 . S
C1043 C1042 1.367 . S
C1043 C1051 1.433 . S
C1044 H1040 0.929 . S
C1044 C1046 1.378 . S
C1044 C1048 1.350 . S
C1045 C1048 1.463 . S
C1045 C1050 1.350 . S
C1045 N1053 1.427 . S
C1046 H1037 0.930 . S
C1046 C1044 1.378 . S
C1046 C1047 1.367 . S
C1047 C1046 1.367 . S
C1047 C1049 1.433 . S
C1048 C1044 1.350 . S
C1048 C1045 1.463 . S
C1048 N1052 1.427 . S
C1049 H1039 0.929 . S
C1049 C1047 1.433 . S
C1049 N1052 1.384 . S
C1050 H1041 0.929 . S
C1050 C1042 1.378 . S
C1050 C1045 1.350 . S
C1051 H1038 0.929 . S
C1051 C1043 1.433 . S
C1051 N1053 1.384 . S
N1052 C1048 1.427 . S
N1052 C1049 1.384 . S
N1053 C1045 1.427 . S
N1053 C1051 1.384 . S
H1054 C1060 0.930 . S
H1055 C1064 0.930 . S
H1056 C1069 0.929 . S
H1057 C1067 0.929 . S
H1058 C1062 0.929 . S
H1059 C1068 0.929 . S
C1060 H1054 0.930 . S
C1060 C1061 1.367 . S
C1060 C1068 1.378 . S
C1061 C1060 1.367 . S
C1061 C1069 1.433 . S
C1062 H1058 0.929 . S
C1062 C1064 1.378 . S
C1062 C1066 1.350 . S
C1063 C1066 1.463 . S
C1063 C1068 1.350 . S
C1063 N1071 1.427 . S
C1064 H1055 0.930 . S
C1064 C1062 1.378 . S
C1064 C1065 1.367 . S
C1065 C1064 1.367 . S
C1065 C1067 1.433 . S
C1066 C1062 1.350 . S
C1066 C1063 1.463 . S
C1066 N1070 1.427 . S
C1067 H1057 0.929 . S
C1067 C1065 1.433 . S
C1067 N1070 1.384 . S
C1068 H1059 0.929 . S
C1068 C1060 1.378 . S
C1068 C1063 1.350 . S
C1069 H1056 0.929 . S
C1069 C1061 1.433 . S
C1069 N1071 1.384 . S
N1070 C1066 1.427 . S
N1070 C1067 1.384 . S
N1071 C1063 1.427 . S
N1071 C1069 1.384 . S
H1072 C1078 0.930 . S
H1073 C1082 0.930 . S
H1074 C1087 0.929 . S
H1075 C1085 0.929 . S
H1076 C1080 0.929 . S
H1077 C1086 0.929 . S
C1078 H1072 0.930 . S
C1078 C1079 1.367 . S
C1078 C1086 1.378 . S
C1079 C1078 1.367 . S
C1079 C1087 1.433 . S
C1080 H1076 0.929 . S
C1080 C1082 1.378 . S
C1080 C1084 1.350 . S
C1081 C1084 1.463 . S
C1081 C1086 1.350 . S
C1081 N1089 1.427 . S
C1082 H1073 0.930 . S
C1082 C1080 1.378 . S
C1082 C1083 1.367 . S
C1083 C1082 1.367 . S
C1083 C1085 1.433 . S
C1084 C1080 1.350 . S
C1084 C1081 1.463 . S
C1084 N1088 1.427 . S
C1085 H1075 0.929 . S
C1085 C1083 1.433 . S
C1085 N1088 1.384 . S
C1086 H1077 0.929 . S
C1086 C1078 1.378 . S
C1086 C1081 1.350 . S
C1087 H1074 0.929 . S
C1087 C1079 1.433 . S
C1087 N1089 1.384 . S
N1088 C1084 1.427 . S
N1088 C1085 1.384 . S
N1089 C1081 1.427 . S
N1089 C1087 1.384 . S
H1090 C1096 0.930 . S
H1091 C1100 0.930 . S
H1092 C1105 0.929 . S
H1093 C1103 0.929 . S
H1094 C1098 0.929 . S
H1095 C1104 0.929 . S
C1096 H1090 0.930 . S
C1096 C1097 1.367 . S
C1096 C1104 1.378 . S
C1097 C1096 1.367 . S
C1097 C1105 1.433 . S
C1098 H1094 0.929 . S
C1098 C1100 1.378 . S
C1098 C1102 1.350 . S
C1099 C1102 1.463 . S
C1099 C1104 1.350 . S
C1099 N1107 1.427 . S
C1100 H1091 0.930 . S
C1100 C1098 1.378 . S
C1100 C1101 1.367 . S
C1101 C1100 1.367 . S
C1101 C1103 1.433 . S
C1102 C1098 1.350 . S
C1102 C1099 1.463 . S
C1102 N1106 1.427 . S
C1103 H1093 0.929 . S
C1103 C1101 1.433 . S
C1103 N1106 1.384 . S
C1104 H1095 0.929 . S
C1104 C1096 1.378 . S
C1104 C1099 1.350 . S
C1105 H1092 0.929 . S
C1105 C1097 1.433 . S
C1105 N1107 1.384 . S
N1106 C1102 1.427 . S
N1106 C1103 1.384 . S
N1107 C1099 1.427 . S
N1107 C1105 1.384 . S
H1108 C1114 0.930 . S
H1109 C1118 0.930 . S
H1110 C1123 0.929 . S
H1111 C1121 0.929 . S
H1112 C1116 0.929 . S
H1113 C1122 0.929 . S
C1114 H1108 0.930 . S
C1114 C1115 1.367 . S
C1114 C1122 1.378 . S
C1115 C1114 1.367 . S
C1115 C1123 1.433 . S
C1116 H1112 0.929 . S
C1116 C1118 1.378 . S
C1116 C1120 1.350 . S
C1117 C1120 1.463 . S
C1117 C1122 1.350 . S
C1117 N1125 1.427 . S
C1118 H1109 0.930 . S
C1118 C1116 1.378 . S
C1118 C1119 1.367 . S
C1119 C1118 1.367 . S
C1119 C1121 1.433 . S
C1120 C1116 1.350 . S
C1120 C1117 1.463 . S
C1120 N1124 1.427 . S
C1121 H1111 0.929 . S
C1121 C1119 1.433 . S
C1121 N1124 1.384 . S
C1122 H1113 0.929 . S
C1122 C1114 1.378 . S
C1122 C1117 1.350 . S
C1123 H1110 0.929 . S
C1123 C1115 1.433 . S
C1123 N1125 1.384 . S
N1124 C1120 1.427 . S
N1124 C1121 1.384 . S
N1125 C1117 1.427 . S
N1125 C1123 1.384 . S
H1126 C1132 0.930 . S
H1127 C1136 0.930 . S
H1128 C1141 0.929 . S
H1129 C1139 0.929 . S
H1130 C1134 0.929 . S
H1131 C1140 0.929 . S
C1132 H1126 0.930 . S
C1132 C1133 1.367 . S
C1132 C1140 1.378 . S
C1133 C1132 1.367 . S
C1133 C1141 1.433 . S
C1134 H1130 0.929 . S
C1134 C1136 1.378 . S
C1134 C1138 1.350 . S
C1135 C1138 1.463 . S
C1135 C1140 1.350 . S
C1135 N1143 1.427 . S
C1136 H1127 0.930 . S
C1136 C1134 1.378 . S
C1136 C1137 1.367 . S
C1137 C1136 1.367 . S
C1137 C1139 1.433 . S
C1138 C1134 1.350 . S
C1138 C1135 1.463 . S
C1138 N1142 1.427 . S
C1139 H1129 0.929 . S
C1139 C1137 1.433 . S
C1139 N1142 1.384 . S
C1140 H1131 0.929 . S
C1140 C1132 1.378 . S
C1140 C1135 1.350 . S
C1141 H1128 0.929 . S
C1141 C1133 1.433 . S
C1141 N1143 1.384 . S
N1142 C1138 1.427 . S
N1142 C1139 1.384 . S
N1143 C1135 1.427 . S
N1143 C1141 1.384 . S
H1144 C1150 0.930 1_554 S
H1145 C1154 0.930 . S
H1146 C1159 0.929 . S
H1147 C1157 0.935 . S
H1148 C1152 0.929 . S
H1149 C1158 0.929 1_554 S
C1150 H1144 0.930 1_556 S
C1150 C1151 1.367 . S
C1150 C1158 1.378 . S
C1151 C1150 1.367 . S
C1151 C1159 1.433 . S
C1152 H1148 0.929 . S
C1152 C1154 1.378 . S
C1152 C1156 1.350 . S
C1153 C1156 1.463 1_655 S
C1153 C1158 1.350 . S
C1153 N1161 1.427 . S
C1154 H1145 0.930 . S
C1154 C1152 1.378 . S
C1154 C1155 1.367 . S
C1155 C1154 1.367 . S
C1155 C1157 1.428 1_556 S
C1156 C1152 1.350 . S
C1156 C1153 1.463 1_455 S
C1156 N1160 1.427 . S
C1157 H1147 0.935 . S
C1157 C1155 1.428 1_554 S
C1157 N1160 1.383 1_554 S
C1158 H1149 0.929 1_556 S
C1158 C1150 1.378 . S
C1158 C1153 1.350 . S
C1159 H1146 0.929 . S
C1159 C1151 1.433 . S
C1159 N1161 1.384 . S
N1160 C1156 1.427 . S
N1160 C1157 1.383 1_556 S
N1161 C1153 1.427 . S
N1161 C1159 1.384 . S
H1162 C1168 0.930 . S
H1163 C1172 0.930 . S
H1164 C1177 0.929 . S
H1165 C1175 0.929 . S
H1166 C1170 0.929 . S
H1167 C1176 0.929 . S
C1168 H1162 0.930 . S
C1168 C1169 1.367 . S
C1168 C1176 1.378 . S
C1169 C1168 1.367 . S
C1169 C1177 1.433 . S
C1170 H1166 0.929 . S
C1170 C1172 1.378 . S
C1170 C1174 1.350 . S
C1171 C1174 1.463 . S
C1171 C1176 1.350 . S
C1171 N1179 1.427 . S
C1172 H1163 0.930 . S
C1172 C1170 1.378 . S
C1172 C1173 1.367 . S
C1173 C1172 1.367 . S
C1173 C1175 1.433 . S
C1174 C1170 1.350 . S
C1174 C1171 1.463 . S
C1174 N1178 1.427 . S
C1175 H1165 0.929 . S
C1175 C1173 1.433 . S
C1175 N1178 1.384 . S
C1176 H1167 0.929 . S
C1176 C1168 1.378 . S
C1176 C1171 1.350 . S
C1177 H1164 0.929 . S
C1177 C1169 1.433 . S
C1177 N1179 1.384 . S
N1178 C1174 1.427 . S
N1178 C1175 1.384 . S
N1179 C1171 1.427 . S
N1179 C1177 1.384 . S
H1180 C1186 0.930 . S
H1181 C1190 0.930 . S
H1182 C1195 0.929 . S
H1183 C1193 0.929 . S
H1184 C1188 0.929 . S
H1185 C1194 0.929 . S
C1186 H1180 0.930 . S
C1186 C1187 1.367 . S
C1186 C1194 1.378 . S
C1187 C1186 1.367 . S
C1187 C1195 1.433 . S
C1188 H1184 0.929 . S
C1188 C1190 1.378 . S
C1188 C1192 1.350 . S
C1189 C1192 1.463 . S
C1189 C1194 1.350 . S
C1189 N1197 1.427 . S
C1190 H1181 0.930 . S
C1190 C1188 1.378 . S
C1190 C1191 1.367 . S
C1191 C1190 1.367 . S
C1191 C1193 1.433 . S
C1192 C1188 1.350 . S
C1192 C1189 1.463 . S
C1192 N1196 1.427 . S
C1193 H1183 0.929 . S
C1193 C1191 1.433 . S
C1193 N1196 1.384 . S
C1194 H1185 0.929 . S
C1194 C1186 1.378 . S
C1194 C1189 1.350 . S
C1195 H1182 0.929 . S
C1195 C1187 1.433 . S
C1195 N1197 1.384 . S
N1196 C1192 1.427 . S
N1196 C1193 1.384 . S
N1197 C1189 1.427 . S
N1197 C1195 1.384 . S
H1198 C1204 0.930 . S
H1199 C1208 0.930 . S
H1200 C1213 0.929 . S
H1201 C1211 0.929 . S
H1202 C1206 0.929 . S
H1203 C1212 0.929 . S
C1204 H1198 0.930 . S
C1204 C1205 1.367 . S
C1204 C1212 1.378 . S
C1205 C1204 1.367 . S
C1205 C1213 1.433 . S
C1206 H1202 0.929 . S
C1206 C1208 1.378 . S
C1206 C1210 1.350 . S
C1207 C1210 1.463 1_455 S
C1207 C1212 1.350 . S
C1207 N1215 1.427 . S
C1208 H1199 0.930 . S
C1208 C1206 1.378 . S
C1208 C1209 1.367 . S
C1209 C1208 1.367 . S
C1209 C1211 1.433 . S
C1210 C1206 1.350 . S
C1210 C1207 1.463 1_655 S
C1210 N1214 1.427 . S
C1211 H1201 0.929 . S
C1211 C1209 1.433 . S
C1211 N1214 1.384 . S
C1212 H1203 0.929 . S
C1212 C1204 1.378 . S
C1212 C1207 1.350 . S
C1213 H1200 0.929 . S
C1213 C1205 1.433 . S
C1213 N1215 1.384 . S
N1214 C1210 1.427 . S
N1214 C1211 1.384 . S
N1215 C1207 1.427 . S
N1215 C1213 1.384 . S
H1216 C1222 0.930 . S
H1217 C1226 0.930 . S
H1218 C1231 0.929 . S
H1219 C1229 0.929 . S
H1220 C1224 0.929 1_554 S
H1221 C1230 0.929 . S
C1222 H1216 0.930 . S
C1222 C1223 1.367 . S
C1222 C1230 1.378 . S
C1223 C1222 1.367 . S
C1223 C1231 1.433 . S
C1224 H1220 0.929 1_556 S
C1224 C1226 1.378 . S
C1224 C1228 1.350 1_556 S
C1225 C1228 1.463 . S
C1225 C1230 1.350 . S
C1225 N1233 1.427 . S
C1226 H1217 0.930 . S
C1226 C1224 1.378 . S
C1226 C1227 1.367 . S
C1227 C1226 1.367 . S
C1227 C1229 1.433 . S
C1228 C1224 1.350 1_554 S
C1228 C1225 1.463 . S
C1228 N1232 1.427 . S
C1229 H1219 0.929 . S
C1229 C1227 1.433 . S
C1229 N1232 1.384 1_556 S
C1230 H1221 0.929 . S
C1230 C1222 1.378 . S
C1230 C1225 1.350 . S
C1231 H1218 0.929 . S
C1231 C1223 1.433 . S
C1231 N1233 1.384 . S
N1232 C1228 1.427 . S
N1232 C1229 1.384 1_554 S
N1233 C1225 1.427 . S
N1233 C1231 1.384 . S
H1234 C1240 0.930 . S
H1235 C1244 0.930 . S
H1236 C1249 0.929 . S
H1237 C1247 0.929 . S
H1238 C1242 0.929 . S
H1239 C1248 0.929 . S
C1240 H1234 0.930 . S
C1240 C1241 1.367 . S
C1240 C1248 1.378 . S
C1241 C1240 1.367 . S
C1241 C1249 1.433 . S
C1242 H1238 0.929 . S
C1242 C1244 1.378 . S
C1242 C1246 1.350 . S
C1243 C1246 1.463 . S
C1243 C1248 1.350 . S
C1243 N1251 1.427 . S
C1244 H1235 0.930 . S
C1244 C1242 1.378 . S
C1244 C1245 1.367 . S
C1245 C1244 1.367 . S
C1245 C1247 1.433 . S
C1246 C1242 1.350 . S
C1246 C1243 1.463 . S
C1246 N1250 1.427 . S
C1247 H1237 0.929 . S
C1247 C1245 1.433 . S
C1247 N1250 1.384 . S
C1248 H1239 0.929 . S
C1248 C1240 1.378 . S
C1248 C1243 1.350 . S
C1249 H1236 0.929 . S
C1249 C1241 1.433 . S
C1249 N1251 1.384 . S
N1250 C1246 1.427 . S
N1250 C1247 1.384 . S
N1251 C1243 1.427 . S
N1251 C1249 1.384 . S
H1252 C1258 0.930 . S
H1253 C1262 0.930 . S
H1254 C1267 0.929 . S
H1255 C1265 0.929 . S
H1256 C1260 0.929 . S
H1257 C1266 0.929 . S
C1258 H1252 0.930 . S
C1258 C1259 1.367 . S
C1258 C1266 1.378 . S
C1259 C1258 1.367 . S
C1259 C1267 1.433 . S
C1260 H1256 0.929 . S
C1260 C1262 1.378 . S
C1260 C1264 1.350 . S
C1261 C1264 1.463 . S
C1261 C1266 1.350 . S
C1261 N1269 1.427 . S
C1262 H1253 0.930 . S
C1262 C1260 1.378 . S
C1262 C1263 1.367 . S
C1263 C1262 1.367 . S
C1263 C1265 1.433 . S
C1264 C1260 1.350 . S
C1264 C1261 1.463 . S
C1264 N1268 1.427 . S
C1265 H1255 0.929 . S
C1265 C1263 1.433 . S
C1265 N1268 1.384 . S
C1266 H1257 0.929 . S
C1266 C1258 1.378 . S
C1266 C1261 1.350 . S
C1267 H1254 0.929 . S
C1267 C1259 1.433 . S
C1267 N1269 1.384 . S
N1268 C1264 1.427 . S
N1268 C1265 1.384 . S
N1269 C1261 1.427 . S
N1269 C1267 1.384 . S
H1270 C1276 0.930 . S
H1271 C1280 0.930 . S
H1272 C1285 0.929 . S
H1273 C1283 0.929 . S
H1274 C1278 0.929 . S
H1275 C1284 0.929 . S
C1276 H1270 0.930 . S
C1276 C1277 1.367 . S
C1276 C1284 1.378 . S
C1277 C1276 1.367 . S
C1277 C1285 1.433 . S
C1278 H1274 0.929 . S
C1278 C1280 1.378 . S
C1278 C1282 1.350 . S
C1279 C1282 1.463 . S
C1279 C1284 1.350 . S
C1279 N1287 1.427 . S
C1280 H1271 0.930 . S
C1280 C1278 1.378 . S
C1280 C1281 1.367 . S
C1281 C1280 1.367 . S
C1281 C1283 1.433 . S
C1282 C1278 1.350 . S
C1282 C1279 1.463 . S
C1282 N1286 1.427 . S
C1283 H1273 0.929 . S
C1283 C1281 1.433 . S
C1283 N1286 1.384 . S
C1284 H1275 0.929 . S
C1284 C1276 1.378 . S
C1284 C1279 1.350 . S
C1285 H1272 0.929 . S
C1285 C1277 1.433 . S
C1285 N1287 1.384 . S
N1286 C1282 1.427 . S
N1286 C1283 1.384 . S
N1287 C1279 1.427 . S
N1287 C1285 1.384 . S
H1288 C1294 0.930 . S
H1289 C1298 0.930 . S
H1290 C1303 0.929 . S
H1291 C1301 0.929 . S
H1292 C1296 0.929 . S
H1293 C1302 0.950 . S
C1294 H1288 0.930 . S
C1294 C1295 1.367 . S
C1294 C1302 1.369 1_554 S
C1295 C1294 1.367 . S
C1295 C1303 1.433 . S
C1296 H1292 0.929 . S
C1296 C1298 1.378 1_554 S
C1296 C1300 1.350 1_554 S
C1297 C1300 1.463 1_554 S
C1297 C1302 1.337 1_554 S
C1297 N1305 1.427 . S
C1298 H1289 0.930 . S
C1298 C1296 1.378 1_556 S
C1298 C1299 1.367 . S
C1299 C1298 1.367 . S
C1299 C1301 1.433 . S
C1300 C1296 1.350 1_556 S
C1300 C1297 1.463 1_556 S
C1300 N1304 1.427 . S
C1301 H1291 0.929 . S
C1301 C1299 1.433 . S
C1301 N1304 1.384 . S
C1302 H1293 0.950 . S
C1302 C1294 1.369 1_556 S
C1302 C1297 1.337 1_556 S
C1303 H1290 0.929 . S
C1303 C1295 1.433 . S
C1303 N1305 1.384 . S
N1304 C1300 1.427 . S
N1304 C1301 1.384 . S
N1305 C1297 1.427 . S
N1305 C1303 1.384 . S
H1306 C1312 0.930 . S
H1307 C1316 0.930 . S
H1308 C1321 0.929 . S
H1309 C1319 0.929 . S
H1310 C1314 0.929 . S
H1311 C1320 0.929 . S
C1312 H1306 0.930 . S
C1312 C1313 1.367 . S
C1312 C1320 1.378 . S
C1313 C1312 1.367 . S
C1313 C1321 1.433 . S
C1314 H1310 0.929 . S
C1314 C1316 1.378 . S
C1314 C1318 1.350 . S
C1315 C1318 1.463 . S
C1315 C1320 1.350 . S
C1315 N1323 1.427 . S
C1316 H1307 0.930 . S
C1316 C1314 1.378 . S
C1316 C1317 1.367 . S
C1317 C1316 1.367 . S
C1317 C1319 1.433 . S
C1318 C1314 1.350 . S
C1318 C1315 1.463 . S
C1318 N1322 1.427 . S
C1319 H1309 0.929 . S
C1319 C1317 1.433 . S
C1319 N1322 1.384 . S
C1320 H1311 0.929 . S
C1320 C1312 1.378 . S
C1320 C1315 1.350 . S
C1321 H1308 0.929 . S
C1321 C1313 1.433 . S
C1321 N1323 1.384 . S
N1322 C1318 1.427 . S
N1322 C1319 1.384 . S
N1323 C1315 1.427 . S
N1323 C1321 1.384 . S
H1324 C1330 0.930 . S
H1325 C1334 0.930 . S
H1326 C1339 0.929 . S
H1327 C1337 0.929 . S
H1328 C1332 0.929 . S
H1329 C1338 0.929 . S
C1330 H1324 0.930 . S
C1330 C1331 1.367 . S
C1330 C1338 1.378 . S
C1331 C1330 1.367 . S
C1331 C1339 1.433 . S
C1332 H1328 0.929 . S
C1332 C1334 1.378 . S
C1332 C1336 1.350 . S
C1333 C1336 1.463 . S
C1333 C1338 1.350 . S
C1333 N1341 1.427 . S
C1334 H1325 0.930 . S
C1334 C1332 1.378 . S
C1334 C1335 1.367 . S
C1335 C1334 1.367 . S
C1335 C1337 1.433 . S
C1336 C1332 1.350 . S
C1336 C1333 1.463 . S
C1336 N1340 1.427 . S
C1337 H1327 0.929 . S
C1337 C1335 1.433 . S
C1337 N1340 1.384 . S
C1338 H1329 0.929 . S
C1338 C1330 1.378 . S
C1338 C1333 1.350 . S
C1339 H1326 0.929 . S
C1339 C1331 1.433 . S
C1339 N1341 1.384 . S
N1340 C1336 1.427 . S
N1340 C1337 1.384 . S
N1341 C1333 1.427 . S
N1341 C1339 1.384 . S
H1342 C1348 0.930 . S
H1343 C1352 0.930 . S
H1344 C1357 0.929 . S
H1345 C1355 0.929 . S
H1346 C1350 0.929 . S
H1347 C1356 0.929 . S
C1348 H1342 0.930 . S
C1348 C1349 1.367 . S
C1348 C1356 1.378 . S
C1349 C1348 1.367 . S
C1349 C1357 1.433 . S
C1350 H1346 0.929 . S
C1350 C1352 1.378 . S
C1350 C1354 1.350 . S
C1351 C1354 1.463 . S
C1351 C1356 1.350 . S
C1351 N1359 1.427 . S
C1352 H1343 0.930 . S
C1352 C1350 1.378 . S
C1352 C1353 1.367 . S
C1353 C1352 1.367 . S
C1353 C1355 1.433 . S
C1354 C1350 1.350 . S
C1354 C1351 1.463 . S
C1354 N1358 1.427 . S
C1355 H1345 0.929 . S
C1355 C1353 1.433 . S
C1355 N1358 1.384 . S
C1356 H1347 0.929 . S
C1356 C1348 1.378 . S
C1356 C1351 1.350 . S
C1357 H1344 0.929 . S
C1357 C1349 1.433 . S
C1357 N1359 1.384 . S
N1358 C1354 1.427 . S
N1358 C1355 1.384 . S
N1359 C1351 1.427 . S
N1359 C1357 1.384 . S
H1360 C1366 0.930 . S
H1361 C1370 0.930 . S
H1362 C1375 0.929 . S
H1363 C1373 0.929 . S
H1364 C1368 0.929 . S
H1365 C1374 0.929 . S
C1366 H1360 0.930 . S
C1366 C1367 1.367 . S
C1366 C1374 1.378 . S
C1367 C1366 1.367 . S
C1367 C1375 1.433 . S
C1368 H1364 0.929 . S
C1368 C1370 1.378 . S
C1368 C1372 1.350 . S
C1369 C1372 1.463 1_565 S
C1369 C1374 1.350 . S
C1369 N1377 1.427 . S
C1370 H1361 0.930 . S
C1370 C1368 1.378 . S
C1370 C1371 1.367 . S
C1371 C1370 1.367 . S
C1371 C1373 1.433 . S
C1372 C1368 1.350 . S
C1372 C1369 1.463 1_545 S
C1372 N1376 1.427 . S
C1373 H1363 0.929 . S
C1373 C1371 1.433 . S
C1373 N1376 1.384 . S
C1374 H1365 0.929 . S
C1374 C1366 1.378 . S
C1374 C1369 1.350 . S
C1375 H1362 0.929 . S
C1375 C1367 1.433 . S
C1375 N1377 1.384 . S
N1376 C1372 1.427 . S
N1376 C1373 1.384 . S
N1377 C1369 1.427 . S
N1377 C1375 1.384 . S
H1378 C1384 0.930 . S
H1379 C1388 0.930 . S
H1380 C1393 0.929 . S
H1381 C1391 0.929 . S
H1382 C1386 0.929 . S
H1383 C1392 0.929 . S
C1384 H1378 0.930 . S
C1384 C1385 1.367 . S
C1384 C1392 1.378 . S
C1385 C1384 1.367 . S
C1385 C1393 1.433 . S
C1386 H1382 0.929 . S
C1386 C1388 1.378 . S
C1386 C1390 1.350 . S
C1387 C1390 1.463 . S
C1387 C1392 1.350 . S
C1387 N1395 1.427 . S
C1388 H1379 0.930 . S
C1388 C1386 1.378 . S
C1388 C1389 1.367 . S
C1389 C1388 1.367 . S
C1389 C1391 1.433 . S
C1390 C1386 1.350 . S
C1390 C1387 1.463 . S
C1390 N1394 1.427 . S
C1391 H1381 0.929 . S
C1391 C1389 1.433 . S
C1391 N1394 1.384 . S
C1392 H1383 0.929 . S
C1392 C1384 1.378 . S
C1392 C1387 1.350 . S
C1393 H1380 0.929 . S
C1393 C1385 1.433 . S
C1393 N1395 1.384 . S
N1394 C1390 1.427 . S
N1394 C1391 1.384 . S
N1395 C1387 1.427 . S
N1395 C1393 1.384 . S
H1396 C1402 0.930 1_556 S
H1397 C1406 0.929 1_554 S
H1398 C1411 0.929 . S
H1399 C1409 0.929 . S
H1400 C1404 0.929 . S
H1401 C1410 0.929 . S
C1402 H1396 0.930 1_554 S
C1402 C1403 1.367 . S
C1402 C1410 1.378 1_554 S
C1403 C1402 1.367 . S
C1403 C1411 1.433 . S
C1404 H1400 0.929 . S
C1404 C1406 1.378 1_554 S
C1404 C1408 1.350 1_554 S
C1405 C1408 1.463 1_564 S
C1405 C1410 1.350 1_554 S
C1405 N1413 1.427 . S
C1406 H1397 0.929 1_556 S
C1406 C1404 1.378 1_556 S
C1406 C1407 1.367 . S
C1407 C1406 1.367 . S
C1407 C1409 1.433 . S
C1408 C1404 1.350 1_556 S
C1408 C1405 1.463 1_546 S
C1408 N1412 1.427 . S
C1409 H1399 0.929 . S
C1409 C1407 1.433 . S
C1409 N1412 1.384 . S
C1410 H1401 0.929 . S
C1410 C1402 1.378 1_556 S
C1410 C1405 1.350 1_556 S
C1411 H1398 0.929 . S
C1411 C1403 1.433 . S
C1411 N1413 1.384 . S
N1412 C1408 1.427 . S
N1412 C1409 1.384 . S
N1413 C1405 1.427 . S
N1413 C1411 1.384 . S
H1414 C1420 0.930 . S
H1415 C1424 0.930 . S
H1416 C1429 0.929 . S
H1417 C1427 0.929 . S
H1418 C1422 0.929 . S
H1419 C1428 0.929 . S
C1420 H1414 0.930 . S
C1420 C1421 1.367 . S
C1420 C1428 1.378 . S
C1421 C1420 1.367 . S
C1421 C1429 1.433 . S
C1422 H1418 0.929 . S
C1422 C1424 1.378 . S
C1422 C1426 1.350 . S
C1423 C1426 1.463 . S
C1423 C1428 1.350 . S
C1423 N1431 1.427 . S
C1424 H1415 0.930 . S
C1424 C1422 1.378 . S
C1424 C1425 1.367 . S
C1425 C1424 1.367 . S
C1425 C1427 1.433 . S
C1426 C1422 1.350 . S
C1426 C1423 1.463 . S
C1426 N1430 1.427 . S
C1427 H1417 0.929 . S
C1427 C1425 1.433 . S
C1427 N1430 1.384 . S
C1428 H1419 0.929 . S
C1428 C1420 1.378 . S
C1428 C1423 1.350 . S
C1429 H1416 0.929 . S
C1429 C1421 1.433 . S
C1429 N1431 1.384 . S
N1430 C1426 1.427 . S
N1430 C1427 1.384 . S
N1431 C1423 1.427 . S
N1431 C1429 1.384 . S
H1432 C1438 0.930 . S
H1433 C1442 0.930 . S
H1434 C1447 0.929 . S
H1435 C1445 0.929 . S
H1436 C1440 0.929 . S
H1437 C1446 0.929 . S
C1438 H1432 0.930 . S
C1438 C1439 1.367 . S
C1438 C1446 1.378 . S
C1439 C1438 1.367 . S
C1439 C1447 1.433 . S
C1440 H1436 0.929 . S
C1440 C1442 1.378 . S
C1440 C1444 1.350 . S
C1441 C1444 1.463 1_565 S
C1441 C1446 1.350 . S
C1441 N1449 1.427 . S
C1442 H1433 0.930 . S
C1442 C1440 1.378 . S
C1442 C1443 1.367 . S
C1443 C1442 1.367 . S
C1443 C1445 1.433 . S
C1444 C1440 1.350 . S
C1444 C1441 1.463 1_545 S
C1444 N1448 1.427 . S
C1445 H1435 0.929 . S
C1445 C1443 1.433 . S
C1445 N1448 1.384 . S
C1446 H1437 0.929 . S
C1446 C1438 1.378 . S
C1446 C1441 1.350 . S
C1447 H1434 0.929 . S
C1447 C1439 1.433 . S
C1447 N1449 1.384 . S
N1448 C1444 1.427 . S
N1448 C1445 1.384 . S
N1449 C1441 1.427 . S
N1449 C1447 1.384 . S
H1450 C1456 0.930 . S
H1451 C1460 0.930 . S
H1452 C1465 0.929 . S
H1453 C1463 0.929 . S
H1454 C1458 0.929 . S
H1455 C1464 0.929 . S
C1456 H1450 0.930 . S
C1456 C1457 1.367 . S
C1456 C1464 1.378 . S
C1457 C1456 1.367 . S
C1457 C1465 1.433 . S
C1458 H1454 0.929 . S
C1458 C1460 1.378 . S
C1458 C1462 1.350 . S
C1459 C1462 1.463 . S
C1459 C1464 1.350 . S
C1459 N1467 1.427 . S
C1460 H1451 0.930 . S
C1460 C1458 1.378 . S
C1460 C1461 1.367 . S
C1461 C1460 1.367 . S
C1461 C1463 1.433 . S
C1462 C1458 1.350 . S
C1462 C1459 1.463 . S
C1462 N1466 1.427 . S
C1463 H1453 0.929 . S
C1463 C1461 1.433 . S
C1463 N1466 1.384 . S
C1464 H1455 0.929 . S
C1464 C1456 1.378 . S
C1464 C1459 1.350 . S
C1465 H1452 0.929 . S
C1465 C1457 1.433 . S
C1465 N1467 1.384 . S
N1466 C1462 1.427 . S
N1466 C1463 1.384 . S
N1467 C1459 1.427 . S
N1467 C1465 1.384 . S
H1468 C1474 0.930 1_554 S
H1469 C1478 0.930 1_556 S
H1470 C1483 0.929 . S
H1471 C1481 0.929 . S
H1472 C1476 0.929 . S
H1473 C1482 0.929 . S
C1474 H1468 0.930 1_556 S
C1474 C1475 1.367 . S
C1474 C1482 1.378 1_556 S
C1475 C1474 1.367 . S
C1475 C1483 1.433 . S
C1476 H1472 0.929 . S
C1476 C1478 1.378 1_556 S
C1476 C1480 1.350 1_556 S
C1477 C1480 1.463 1_546 S
C1477 C1482 1.350 1_556 S
C1477 N1485 1.427 . S
C1478 H1469 0.930 1_554 S
C1478 C1476 1.378 1_554 S
C1478 C1479 1.367 . S
C1479 C1478 1.367 . S
C1479 C1481 1.433 . S
C1480 C1476 1.350 1_554 S
C1480 C1477 1.463 1_564 S
C1480 N1484 1.427 . S
C1481 H1471 0.929 . S
C1481 C1479 1.433 . S
C1481 N1484 1.384 . S
C1482 H1473 0.929 . S
C1482 C1474 1.378 1_554 S
C1482 C1477 1.350 1_554 S
C1483 H1470 0.929 . S
C1483 C1475 1.433 . S
C1483 N1485 1.384 . S
N1484 C1480 1.427 . S
N1484 C1481 1.384 . S
N1485 C1477 1.427 . S
N1485 C1483 1.384 . S
H1486 C1492 0.930 . S
H1487 C1496 0.930 . S
H1488 C1501 0.929 . S
H1489 C1499 0.929 . S
H1490 C1494 0.929 . S
H1491 C1500 0.929 . S
C1492 H1486 0.930 . S
C1492 C1493 1.367 . S
C1492 C1500 1.378 . S
C1493 C1492 1.367 . S
C1493 C1501 1.433 . S
C1494 H1490 0.929 . S
C1494 C1496 1.378 . S
C1494 C1498 1.350 . S
C1495 C1498 1.463 . S
C1495 C1500 1.350 . S
C1495 N1503 1.427 . S
C1496 H1487 0.930 . S
C1496 C1494 1.378 . S
C1496 C1497 1.367 . S
C1497 C1496 1.367 . S
C1497 C1499 1.433 . S
C1498 C1494 1.350 . S
C1498 C1495 1.463 . S
C1498 N1502 1.427 . S
C1499 H1489 0.929 . S
C1499 C1497 1.433 . S
C1499 N1502 1.384 . S
C1500 H1491 0.929 . S
C1500 C1492 1.378 . S
C1500 C1495 1.350 . S
C1501 H1488 0.929 . S
C1501 C1493 1.433 . S
C1501 N1503 1.384 . S
N1502 C1498 1.427 . S
N1502 C1499 1.384 . S
N1503 C1495 1.427 . S
N1503 C1501 1.384 . S
C647 C7 1.880 . S
C651 C16 1.880 . S
C665 C56 1.809 1_556 S
C669 C47 1.809 . S
C683 C87 1.853 . S
C687 C96 1.853 1_554 S
C701 C127 1.555 . S
C705 C136 1.555 . S
C719 C167 1.802 . S
C723 C176 1.802 . S
C737 C216 1.564 . S
C741 C207 1.564 . S
C755 C256 1.538 . S
C759 C247 1.538 . S
C773 C296 1.875 . S
C777 C287 1.875 . S
C791 C336 1.780 . S
C795 C327 1.780 . S
C809 C376 1.765 . S
C813 C367 1.765 . S
C827 C416 1.657 1_556 S
C831 C407 1.656 . S
C845 C456 1.522 . S
C849 C447 1.522 . S
C863 C496 1.844 . S
C867 C487 1.844 . S
C881 C536 1.656 . S
C885 C527 1.656 . S
C899 C567 1.564 . S
C903 C576 1.564 . S
C917 C607 1.977 1_556 S
C921 C616 1.977 . S
C935 C10 1.629 . S
C939 C451 1.701 . S
C953 C42 1.688 . S
C957 C611 1.668 . S
C971 C90 1.631 . S
C975 C379 1.584 . S
C989 C130 1.747 . S
C993 C539 1.753 . S
C1007 C170 1.696 . S
C1011 C531 1.706 . S
C1025 C459 1.710 . S
C1029 C210 1.729 . S
C1043 C242 1.662 . S
C1047 C619 1.586 . S
C1061 C282 1.787 . S
C1065 C371 1.784 . S
C1079 C122 1.722 . S
C1083 C339 1.671 . S
C1097 C50 1.634 . S
C1101 C411 1.701 . S
C1115 C499 1.688 . S
C1119 C202 1.732 . S
C1133 C290 1.575 . S
C1137 C571 1.636 . S
C1151 C331 1.810 . S
C1155 C162 1.769 . S
C1169 C250 1.736 . S
C1173 C419 1.805 . S
C1187 C82 1.867 . S
C1191 C579 1.862 . S
C1205 C2 1.708 . S
C1209 C491 1.720 . S
C1223 C19 1.344 . S
C1227 C179 1.344 . S
C1241 C51 1.746 . S
C1245 C219 1.748 . S
C1259 C99 2.072 . S
C1263 C251 2.072 . S
C1277 C139 1.730 . S
C1281 C291 1.727 . S
C1295 C490 1.449 . S
C1299 C330 1.451 . S
C1313 C530 1.982 . S
C1317 C362 1.977 . S
C1331 C402 1.871 . S
C1335 C562 1.876 . S
C1349 C602 1.604 . S
C1353 C450 1.607 . S
C1367 C59 1.326 . S
C1371 C299 1.327 . S
C1385 C171 1.784 . S
C1389 C91 1.793 . S
C1403 C211 2.059 . S
C1407 C131 2.059 . S
C1421 C11 1.724 . S
C1425 C259 1.729 . S
C1439 C610 1.269 . S
C1443 C370 1.262 . S
C1457 C482 1.729 . S
C1461 C410 1.730 . S
C1475 C522 2.072 . S
C1479 C442 2.072 . S
C1493 C570 1.821 . S
C1497 C322 1.817 . S
