# Generated by pormake.
# Topology vch, (7)-cn, num edge types: 1
# Building blocks:
#     Node 0, Type 0, BuildingBlock: HICVOG_clean_sbu_0, # of connection points: 7
#     Node 1, Type 0, BuildingBlock: HICVOG_clean_sbu_0, # of connection points: 7
#     Node 2, Type 0, BuildingBlock: HICVOG_clean_sbu_0, # of connection points: 7
#     Node 3, Type 0, BuildingBlock: HICVOG_clean_sbu_0, # of connection points: 7
#     Node 4, Type 0, BuildingBlock: HICVOG_clean_sbu_0, # of connection points: 7
#     Node 5, Type 0, BuildingBlock: HICVOG_clean_sbu_0, # of connection points: 7
#     Node 6, Type 0, BuildingBlock: HICVOG_clean_sbu_0, # of connection points: 7
#     Node 7, Type 0, BuildingBlock: HICVOG_clean_sbu_0, # of connection points: 7
#     Node 8, Type 0, BuildingBlock: HICVOG_clean_sbu_0, # of connection points: 7
#     Node 9, Type 0, BuildingBlock: HICVOG_clean_sbu_0, # of connection points: 7
#     Node 10, Type 0, BuildingBlock: HICVOG_clean_sbu_0, # of connection points: 7
#     Node 11, Type 0, BuildingBlock: HICVOG_clean_sbu_0, # of connection points: 7
#     Node 12, Type 0, BuildingBlock: HICVOG_clean_sbu_0, # of connection points: 7
#     Node 13, Type 0, BuildingBlock: HICVOG_clean_sbu_0, # of connection points: 7
#     Node 14, Type 0, BuildingBlock: HICVOG_clean_sbu_0, # of connection points: 7
#     Node 15, Type 0, BuildingBlock: HICVOG_clean_sbu_0, # of connection points: 7
#     Edge 16, Type (0, 0), None
#     Edge 17, Type (0, 0), None
#     Edge 18, Type (0, 0), None
#     Edge 19, Type (0, 0), None
#     Edge 20, Type (0, 0), None
#     Edge 21, Type (0, 0), None
#     Edge 22, Type (0, 0), None
#     Edge 23, Type (0, 0), None
#     Edge 24, Type (0, 0), None
#     Edge 25, Type (0, 0), None
#     Edge 26, Type (0, 0), None
#     Edge 27, Type (0, 0), None
#     Edge 28, Type (0, 0), None
#     Edge 29, Type (0, 0), None
#     Edge 30, Type (0, 0), None
#     Edge 31, Type (0, 0), None
#     Edge 32, Type (0, 0), None
#     Edge 33, Type (0, 0), None
#     Edge 34, Type (0, 0), None
#     Edge 35, Type (0, 0), None
#     Edge 36, Type (0, 0), None
#     Edge 37, Type (0, 0), None
#     Edge 38, Type (0, 0), None
#     Edge 39, Type (0, 0), None
#     Edge 40, Type (0, 0), None
#     Edge 41, Type (0, 0), None
#     Edge 42, Type (0, 0), None
#     Edge 43, Type (0, 0), None
#     Edge 44, Type (0, 0), None
#     Edge 45, Type (0, 0), None
#     Edge 46, Type (0, 0), None
#     Edge 47, Type (0, 0), None
#     Edge 48, Type (0, 0), None
#     Edge 49, Type (0, 0), None
#     Edge 50, Type (0, 0), None
#     Edge 51, Type (0, 0), None
#     Edge 52, Type (0, 0), None
#     Edge 53, Type (0, 0), None
#     Edge 54, Type (0, 0), None
#     Edge 55, Type (0, 0), None
#     Edge 56, Type (0, 0), None
#     Edge 57, Type (0, 0), None
#     Edge 58, Type (0, 0), None
#     Edge 59, Type (0, 0), None
#     Edge 60, Type (0, 0), None
#     Edge 61, Type (0, 0), None
#     Edge 62, Type (0, 0), None
#     Edge 63, Type (0, 0), None
#     Edge 64, Type (0, 0), None
#     Edge 65, Type (0, 0), None
#     Edge 66, Type (0, 0), None
#     Edge 67, Type (0, 0), None
#     Edge 68, Type (0, 0), None
#     Edge 69, Type (0, 0), None
#     Edge 70, Type (0, 0), None
#     Edge 71, Type (0, 0), None
# Relax obj value: 0.140
# Max RMSD: 0.238
# Mean RMSD: 0.238
data_MOF--net-vch--node1-HICVOG_clean_sbu_0--edge1-none
_symmetry_space_group_name_H-M    P1
_symmetry_Int_Tables_number       1
_symmetry_cell_setting            triclinic
loop_
_symmetry_equiv_pos_as_xyz
'x, y, z'
_cell_length_a     7.3321569
_cell_length_b     49.16707
_cell_length_c     24.103679
_cell_angle_alpha  90.000713
_cell_angle_beta   90.009555
_cell_angle_gamma 89.9997
loop_
_atom_site_label
_atom_site_type_symbol
_atom_site_fract_x
_atom_site_fract_y
_atom_site_fract_z
_atom_type_partial_charge
Zn0 Zn 1.0949 0.14444 0.09666 0.0
C1 C 0.3747 0.1106 -0.00796 0.0
N2 N 0.22423 0.11113 0.95677 0.0
C3 C 1.07239 0.11267 -0.00884 0.0
N4 N 1.13442 0.11506 0.04383 0.0
N5 N 0.31061 0.11014 0.04484 0.0
C6 C 0.62466 0.11279 0.13468 0.0
O7 O 0.49223 0.13048 0.13634 0.0
O8 O 0.83601 0.14581 0.10925 0.0
Zn9 Zn 0.34848 0.08461 0.10507 0.0
N10 N 0.20869 0.17818 0.07043 0.0
C11 C 0.47853 0.20095 0.04005 0.0
C12 C 0.38604 0.17713 0.05368 0.0
C13 C 1.11844 0.20235 0.07206 0.0
N14 N 0.38977 0.22507 0.04287 0.0
C15 C 0.21157 0.22648 0.05816 0.0
O16 O 0.2246 0.09267 0.17972 0.0
C17 C 0.18564 0.11501 0.20396 0.0
O18 O 0.17181 0.1373 0.17724 0.0
H19 H 0.45763 0.1581 0.05166 0.0
H20 H 0.97735 0.20282 0.08526 0.0
C21 C 0.40869 0.02749 0.08107 0.0
C22 C 0.35162 0.00139 0.06465 0.0
C23 C 1.05806 0.01905 0.04454 0.0
C24 C 1.11376 0.0447 0.06184 0.0
N25 N 0.28705 0.04841 0.08022 0.0
N26 N 0.17715 -0.00206 0.04688 0.0
H27 H 0.54666 0.03104 0.09534 0.0
C28 C 0.80466 0.12209 0.12805 0.0
O29 O 0.93005 0.10329 0.12643 0.0
O30 O 0.59454 0.088 0.12377 0.0
H31 H 1.01928 0.06154 0.0608 0.0
H32 H 0.6202 0.20029 0.02753 0.0
H33 H 0.9213 0.01605 0.02915 0.0
Zn34 Zn 0.48243 0.89485 0.10501 0.0
C35 C 0.75898 0.86677 -0.00885 0.0
N36 N 0.60707 0.86828 0.95675 0.0
C37 C 0.45667 0.86884 -0.00798 0.0
N38 N 0.52107 0.86934 0.04478 0.0
N39 N 0.69725 0.86441 0.04385 0.0
C40 C 1.02649 0.8573 0.12813 0.0
O41 O 0.90124 0.87613 0.12651 0.0
O42 O 0.23651 0.89138 0.12368 0.0
Zn43 Zn 0.73599 0.83502 0.09671 0.0
N44 N 0.54319 0.93105 0.08009 0.0
C45 C 0.77121 0.96042 0.04385 0.0
C46 C 0.71605 0.93478 0.06137 0.0
C47 C 0.42146 0.95197 0.08114 0.0
N48 N 0.65205 0.98151 0.04637 0.0
C49 C 0.47804 0.97807 0.06453 0.0
O50 O 0.65913 0.84221 0.17726 0.0
C51 C 0.64541 0.86451 0.20396 0.0
O52 O 0.60653 0.88685 0.17968 0.0
H53 H 0.8106 0.91795 0.0602 0.0
H54 H 0.28384 0.94841 0.09569 0.0
C55 C 0.71224 0.77712 0.0721 0.0
C56 C 0.61912 0.753 0.05815 0.0
C57 C 0.35224 0.77853 0.03996 0.0
C58 C 0.44474 0.80235 0.0536 0.0
N59 N 0.62203 0.8013 0.07044 0.0
N60 N 0.44095 0.75441 0.04281 0.0
H61 H 0.85329 0.77665 0.08535 0.0
C62 C 0.20655 0.8666 0.13467 0.0
O63 O 0.33901 0.84891 0.13624 0.0
O64 O 0.99486 0.83358 0.10934 0.0
H65 H 0.37322 0.82139 0.05153 0.0
H66 H 0.9076 0.96343 0.02817 0.0
H67 H 0.21061 0.7792 0.02739 0.0
Zn68 Zn 0.84865 0.89485 0.3625 0.0
C69 C 0.57207 0.86677 0.47635 0.0
N70 N 0.72398 0.86828 0.51075 0.0
C71 C 0.87438 0.86884 0.47548 0.0
N72 N 0.80997 0.86935 0.42273 0.0
N73 N 0.6338 0.86441 0.42365 0.0
C74 C 0.30459 0.8573 0.33938 0.0
O75 O 0.42984 0.87612 0.34098 0.0
O76 O 1.09457 0.89137 0.34383 0.0
Zn77 Zn 0.5951 0.83503 0.37079 0.0
N78 N 0.7879 0.93106 0.38741 0.0
C79 C 0.55989 0.96042 0.42365 0.0
C80 C 0.61504 0.93478 0.40613 0.0
C81 C 0.90963 0.95197 0.38636 0.0
N82 N 0.67905 0.98152 0.42113 0.0
C83 C 0.85306 0.97807 0.40296 0.0
O84 O 0.67195 0.84221 0.29024 0.0
C85 C 0.68569 0.86451 0.26354 0.0
O86 O 0.72456 0.88686 0.28782 0.0
H87 H 0.52048 0.91795 0.4073 0.0
H88 H 1.04725 0.94841 0.37181 0.0
C89 C 0.61895 0.77713 0.39541 0.0
C90 C 0.71211 0.753 0.40934 0.0
C91 C 0.97895 0.77855 0.42754 0.0
C92 C 0.88639 0.80236 0.4139 0.0
N93 N 0.70911 0.8013 0.39706 0.0
N94 N 0.89028 0.75443 0.42468 0.0
H95 H 0.47789 0.77665 0.38216 0.0
C96 C 1.12453 0.8666 0.33284 0.0
O97 O 0.99207 0.84891 0.33126 0.0
O98 O 0.33623 0.83358 0.35816 0.0
H99 H 0.95789 0.8214 0.41597 0.0
H100 H 0.4235 0.96343 0.43933 0.0
H101 H 1.12058 0.77922 0.4401 0.0
Zn102 Zn 0.23624 0.14444 0.37086 0.0
C103 C 0.95646 0.1106 0.47547 0.0
N104 N 1.10693 0.11113 0.51074 0.0
C105 C 0.25878 0.11267 0.47635 0.0
N106 N 0.19675 0.11506 0.42368 0.0
N107 N 1.02056 0.11014 0.42267 0.0
C108 C 0.70648 0.11279 0.33282 0.0
O109 O 0.83892 0.13048 0.33116 0.0
O110 O 0.49513 0.14582 0.35827 0.0
Zn111 Zn 0.98267 0.08461 0.36243 0.0
N112 N 1.1224 0.17818 0.39708 0.0
C113 C 0.8525 0.20094 0.42745 0.0
C114 C 0.94505 0.17712 0.41383 0.0
C115 C 0.21261 0.20235 0.39545 0.0
N116 N 0.94122 0.22506 0.42462 0.0
C117 C 1.11942 0.22648 0.40934 0.0
O118 O 1.10654 0.09266 0.28779 0.0
C119 C 1.1455 0.11501 0.26354 0.0
O120 O 1.15935 0.1373 0.29027 0.0
H121 H 0.87349 0.15809 0.41585 0.0
H122 H 0.3537 0.20282 0.38225 0.0
C123 C 0.92243 0.02749 0.38643 0.0
C124 C 0.97949 0.00139 0.40285 0.0
C125 C 0.27305 0.01904 0.42297 0.0
C126 C 0.21736 0.0447 0.40566 0.0
N127 N 1.04408 0.04842 0.38729 0.0
N128 N 1.15394 -0.00206 0.42063 0.0
H129 H 0.78446 0.03105 0.37216 0.0
C130 C 0.52648 0.12209 0.33946 0.0
O131 O 0.4011 0.10329 0.34108 0.0
O132 O 0.73661 0.08801 0.34374 0.0
H133 H 0.31184 0.06154 0.40671 0.0
H134 H 0.71084 0.20027 0.43996 0.0
H135 H 0.4098 0.01605 0.43837 0.0
Zn136 Zn 0.98244 0.89484 0.86248 0.0
C137 C 0.25897 0.86677 0.97634 0.0
N138 N 1.1071 0.86829 0.01074 0.0
C139 C 0.95666 0.86883 0.97547 0.0
N140 N 1.02102 0.86933 0.92272 0.0
N141 N 0.1972 0.8644 0.92365 0.0
C142 C 0.52644 0.85731 0.83939 0.0
O143 O 0.40117 0.87613 0.841 0.0
O144 O 0.73647 0.89138 0.84381 0.0
Zn145 Zn 0.23599 0.83502 0.8708 0.0
N146 N 1.04346 0.93104 0.88738 0.0
C147 C 0.27176 0.9604 0.92351 0.0
C148 C 0.21642 0.93476 0.90604 0.0
C149 C 0.92181 0.95196 0.88635 0.0
N150 N 1.15266 0.9815 0.921 0.0
C151 C 0.97855 0.97806 0.9029 0.0
O152 O 1.15908 0.84219 0.79024 0.0
C153 C 1.14535 0.86449 0.76354 0.0
O154 O 1.10644 0.88683 0.78781 0.0
H155 H 0.31093 0.91792 0.9072 0.0
H156 H 0.78411 0.94841 0.87184 0.0
C157 C 0.21226 0.77711 0.89542 0.0
C158 C 1.11914 0.75299 0.90936 0.0
C159 C 0.85227 0.77853 0.92753 0.0
C160 C 0.94477 0.80234 0.91388 0.0
N161 N 1.12206 0.80129 0.89706 0.0
N162 N 0.94098 0.75441 0.92469 0.0
H163 H 0.35332 0.77664 0.88218 0.0
C164 C 0.70648 0.86661 0.83282 0.0
O165 O 0.83894 0.84892 0.83123 0.0
O166 O 0.49486 0.83359 0.85817 0.0
H167 H 0.87324 0.82138 0.91593 0.0
H168 H 0.40824 0.9634 0.93913 0.0
H169 H 0.71065 0.7792 0.94009 0.0
Zn170 Zn 0.84883 0.08463 0.86246 0.0
C171 C 0.57235 0.11267 0.97635 0.0
N172 N 0.72426 0.11117 0.01075 0.0
C173 C 0.87467 0.11062 0.97549 0.0
N174 N 0.81024 0.1101 0.92273 0.0
N175 N 0.63406 0.11504 0.92365 0.0
C176 C 0.30475 0.12217 0.8394 0.0
O177 O 0.43005 0.10336 0.84095 0.0
O178 O 1.09479 0.08809 0.84382 0.0
Zn179 Zn 0.59527 0.14444 0.87083 0.0
N180 N 0.7876 0.04842 0.88726 0.0
C181 C 0.55863 0.01905 0.92293 0.0
C182 C 0.61432 0.0447 0.90562 0.0
C183 C 0.90925 0.02749 0.8864 0.0
N184 N 0.67773 -0.00206 0.92058 0.0
C185 C 0.85218 0.00139 0.90281 0.0
O186 O 0.67206 0.1373 0.79026 0.0
C187 C 0.68581 0.11501 0.76354 0.0
O188 O 0.72482 0.09266 0.78779 0.0
H189 H 0.51983 0.06154 0.90666 0.0
H190 H 1.0472 0.03105 0.87214 0.0
C191 C 0.61906 0.20234 0.89546 0.0
C192 C 0.7122 0.22647 0.90938 0.0
C193 C 0.97906 0.20093 0.9276 0.0
C194 C 0.88653 0.17711 0.91397 0.0
N195 N 0.70925 0.17816 0.89713 0.0
N196 N 0.89036 0.22505 0.92472 0.0
H197 H 0.47801 0.20281 0.8822 0.0
C198 C 1.12471 0.11287 0.83286 0.0
O199 O 0.99221 0.13056 0.83131 0.0
O200 O 0.33636 0.14588 0.85823 0.0
H201 H 0.95805 0.15807 0.91604 0.0
H202 H 0.42189 0.01605 0.93831 0.0
H203 H 1.12069 0.20026 0.94016 0.0
Zn204 Zn 0.48235 0.08462 0.60505 0.0
C205 C 0.75881 0.11267 0.49116 0.0
N206 N 0.6069 0.11117 0.45676 0.0
C207 C 0.45649 0.11062 0.49202 0.0
N208 N 0.52092 0.1101 0.54478 0.0
N209 N 0.69711 0.11504 0.54386 0.0
C210 C 1.02643 0.12217 0.62811 0.0
O211 O 0.90113 0.10336 0.62656 0.0
O212 O 0.23639 0.08808 0.6237 0.0
Zn213 Zn 0.73592 0.14444 0.59668 0.0
N214 N 0.54355 0.04841 0.58025 0.0
C215 C 0.77249 0.01904 0.54458 0.0
C216 C 0.71682 0.04469 0.56189 0.0
C217 C 0.42189 0.02749 0.58111 0.0
N218 N 0.65339 -0.00207 0.54692 0.0
C219 C 0.47894 0.00138 0.5647 0.0
O220 O 0.65912 0.1373 0.67725 0.0
C221 C 0.64535 0.11501 0.70397 0.0
O222 O 0.60636 0.09266 0.67972 0.0
H223 H 0.81132 0.06153 0.56084 0.0
H224 H 0.28394 0.03105 0.59537 0.0
C225 C 0.71223 0.20234 0.57205 0.0
C226 C 0.61911 0.22647 0.55813 0.0
C227 C 0.35221 0.20094 0.53993 0.0
C228 C 0.44471 0.17712 0.55356 0.0
N229 N 0.622 0.17817 0.57039 0.0
N230 N 0.44093 0.22506 0.5428 0.0
H231 H 0.85328 0.20281 0.5853 0.0
C232 C 0.20647 0.11287 0.63465 0.0
O233 O 0.33897 0.13055 0.63621 0.0
O234 O 0.99483 0.14588 0.60928 0.0
H235 H 0.37317 0.15808 0.55149 0.0
H236 H 0.90923 0.01604 0.52918 0.0
H237 H 0.21057 0.20027 0.52737 0.0
Zn238 Zn 0.34859 0.89484 0.60502 0.0
C239 C 1.07208 0.86677 0.49116 0.0
N240 N 0.22395 0.86829 0.45676 0.0
C241 C 0.37439 0.86882 0.49203 0.0
N242 N 0.31003 0.86933 0.54479 0.0
N243 N 1.13385 0.8644 0.54386 0.0
C244 C 0.80458 0.85731 0.62812 0.0
O245 O 0.92985 0.87613 0.62649 0.0
O246 O 0.59455 0.89138 0.6237 0.0
Zn247 Zn 1.09501 0.83501 0.59671 0.0
N248 N 0.28761 0.93104 0.58012 0.0
C249 C 1.05936 0.9604 0.54397 0.0
C250 C 1.11466 0.93476 0.56144 0.0
C251 C 0.40927 0.95196 0.58116 0.0
N252 N 0.17846 0.9815 0.54649 0.0
C253 C 0.35255 0.97806 0.5646 0.0
O254 O 0.17193 0.84219 0.67726 0.0
C255 C 0.18566 0.86449 0.70396 0.0
O256 O 0.22456 0.88683 0.67969 0.0
H257 H 1.02015 0.91792 0.56028 0.0
H258 H 0.54696 0.94841 0.59567 0.0
C259 C 1.11864 0.77711 0.57208 0.0
C260 C 0.21174 0.75298 0.55815 0.0
C261 C 0.47866 0.77851 0.53999 0.0
C262 C 0.38618 0.80233 0.55364 0.0
N263 N 0.20889 0.80128 0.57045 0.0
N264 N 0.38991 0.75439 0.54283 0.0
H265 H 0.97758 0.77664 0.58531 0.0
C266 C 0.62454 0.86661 0.63469 0.0
O267 O 0.49208 0.84892 0.63628 0.0
O268 O 0.83615 0.83359 0.60933 0.0
H269 H 0.45773 0.82137 0.55159 0.0
H270 H 0.92289 0.96341 0.52834 0.0
H271 H 0.62029 0.77918 0.52744 0.0
Zn272 Zn 0.59523 0.64444 0.09667 0.0
C273 C 0.87517 0.61061 -0.00794 0.0
N274 N 0.7247 0.61114 0.95679 0.0
C275 C 0.57285 0.61268 -0.00882 0.0
N276 N 0.63486 0.61506 0.04385 0.0
N277 N 0.81106 0.61014 0.04486 0.0
C278 C 1.12501 0.61277 0.13471 0.0
O279 O 0.99257 0.63047 0.13639 0.0
O280 O 0.33633 0.6458 0.10925 0.0
Zn281 Zn 0.8488 0.58461 0.1051 0.0
N282 N 0.709 0.67818 0.07045 0.0
C283 C 0.97887 0.70095 0.0401 0.0
C284 C 0.88638 0.67714 0.05372 0.0
C285 C 0.61872 0.70235 0.07205 0.0
N286 N 0.89009 0.72507 0.0429 0.0
C287 C 0.71186 0.72648 0.05816 0.0
O288 O 0.72489 0.59267 0.17975 0.0
C289 C 0.68586 0.61502 0.20399 0.0
O290 O 0.67208 0.63731 0.17726 0.0
H291 H 0.95798 0.6581 0.05173 0.0
H292 H 0.47761 0.70282 0.08524 0.0
C293 C 0.90881 0.52749 0.0811 0.0
C294 C 0.85165 0.50139 0.06472 0.0
C295 C 0.55808 0.51906 0.04464 0.0
C296 C 0.61389 0.54471 0.06191 0.0
N297 N 0.78722 0.54842 0.08025 0.0
N298 N 0.67714 0.49794 0.04698 0.0
H299 H 1.04681 0.53104 0.09535 0.0
C300 C 0.305 0.62208 0.12806 0.0
O301 O 0.43039 0.60328 0.12642 0.0
O302 O 1.09487 0.58799 0.12381 0.0
H303 H 0.51945 0.56156 0.06086 0.0
H304 H 1.12055 0.70029 0.0276 0.0
H305 H 0.42129 0.51607 0.02928 0.0
Zn306 Zn 0.98211 0.39485 0.10504 0.0
C307 C 0.2585 0.36676 -0.00883 0.0
N308 N 1.10659 0.36827 0.95677 0.0
C309 C 0.95619 0.36883 -0.00796 0.0
N310 N 1.02061 0.36934 0.0448 0.0
N311 N 0.19679 0.36441 0.04387 0.0
C312 C 0.52615 0.35732 0.12813 0.0
O313 O 0.40088 0.37614 0.12651 0.0
O314 O 0.73617 0.39139 0.12371 0.0
Zn315 Zn 0.23565 0.33502 0.09673 0.0
N316 N 1.04301 0.43104 0.08012 0.0
C317 C 0.27117 0.46041 0.04394 0.0
C318 C 0.21591 0.43476 0.06143 0.0
C319 C 0.92135 0.45197 0.08117 0.0
N320 N 1.15206 0.48151 0.04646 0.0
C321 C 0.97801 0.47806 0.0646 0.0
O322 O 1.15885 0.34221 0.17729 0.0
C323 C 1.14518 0.36451 0.20399 0.0
O324 O 1.10624 0.38685 0.17971 0.0
H325 H 0.31043 0.41793 0.06026 0.0
H326 H 0.7837 0.44841 0.09571 0.0
C327 C 0.21195 0.27712 0.07209 0.0
C328 C 1.11883 0.253 0.05816 0.0
C329 C 0.8519 0.27853 0.04001 0.0
C330 C 0.9444 0.30235 0.05365 0.0
N331 N 1.12171 0.3013 0.07047 0.0
N332 N 0.94063 0.25441 0.04285 0.0
H333 H 0.35303 0.27665 0.08533 0.0
C334 C 0.70619 0.36661 0.1347 0.0
O335 O 0.83866 0.34892 0.13629 0.0
O336 O 0.49454 0.3336 0.10935 0.0
H337 H 0.87286 0.32139 0.0516 0.0
H338 H 0.4076 0.46341 0.02829 0.0
H339 H 0.71025 0.2792 0.02746 0.0
Zn340 Zn 0.34864 0.39485 0.36251 0.0
C341 C 1.07214 0.36676 0.47637 0.0
N342 N 0.22404 0.36828 0.51077 0.0
C343 C 0.37445 0.36883 0.4755 0.0
N344 N 0.31003 0.36934 0.42275 0.0
N345 N 1.13386 0.36441 0.42367 0.0
C346 C 0.80458 0.3573 0.33941 0.0
O347 O 0.92983 0.37612 0.34103 0.0
O348 O 0.59456 0.39137 0.34383 0.0
Zn349 Zn 1.0951 0.33502 0.37082 0.0
N350 N 0.28791 0.43106 0.38743 0.0
C351 C 1.05991 0.46042 0.42369 0.0
C352 C 1.11506 0.43478 0.40616 0.0
C353 C 0.40963 0.45197 0.38638 0.0
N354 N 0.17907 0.48152 0.42116 0.0
C355 C 0.35307 0.47807 0.40299 0.0
O356 O 0.1719 0.34221 0.29026 0.0
C357 C 0.18558 0.36451 0.26356 0.0
O358 O 0.22448 0.38685 0.28784 0.0
H359 H 1.0205 0.41795 0.40733 0.0
H360 H 0.54725 0.44841 0.37182 0.0
C361 C 1.11895 0.27712 0.39541 0.0
C362 C 0.21212 0.253 0.40935 0.0
C363 C 0.47896 0.27854 0.42754 0.0
C364 C 0.3864 0.30236 0.4139 0.0
N365 N 0.20911 0.3013 0.39707 0.0
N366 N 0.39029 0.25442 0.42468 0.0
H367 H 0.97788 0.27664 0.38217 0.0
C368 C 0.62453 0.3666 0.33285 0.0
O369 O 0.49206 0.34891 0.33126 0.0
O370 O 0.83621 0.33358 0.35819 0.0
H371 H 0.4579 0.3214 0.41598 0.0
H372 H 0.92353 0.46343 0.43937 0.0
H373 H 0.62059 0.27922 0.4401 0.0
Zn374 Zn 0.73625 0.64444 0.37088 0.0
C375 C 0.4564 0.61061 0.47549 0.0
N376 N 0.60687 0.61113 0.51076 0.0
C377 C 0.75872 0.61268 0.47637 0.0
N378 N 0.69669 0.61507 0.4237 0.0
N379 N 0.5205 0.61014 0.42269 0.0
C380 C 0.20649 0.61279 0.33283 0.0
O381 O 0.33892 0.63049 0.33116 0.0
O382 O 0.99515 0.64582 0.35829 0.0
Zn383 Zn 0.48268 0.58461 0.36244 0.0
N384 N 0.6224 0.67818 0.39709 0.0
C385 C 0.3525 0.70095 0.42745 0.0
C386 C 0.44504 0.67713 0.41384 0.0
C387 C 0.71261 0.70236 0.39546 0.0
N388 N 0.44121 0.72507 0.42462 0.0
C389 C 0.61942 0.72648 0.40934 0.0
O390 O 0.60662 0.59267 0.2878 0.0
C391 C 0.6456 0.61502 0.26356 0.0
O392 O 0.65939 0.63731 0.29029 0.0
H393 H 0.37349 0.65809 0.41585 0.0
H394 H 0.8537 0.70283 0.38226 0.0
C395 C 0.42243 0.52749 0.38645 0.0
C396 C 0.47949 0.50139 0.40287 0.0
C397 C 0.77305 0.51905 0.423 0.0
C398 C 0.71736 0.5447 0.40568 0.0
N399 N 0.54408 0.54842 0.3873 0.0
N400 N 0.65395 0.49794 0.42065 0.0
H401 H 0.28447 0.53104 0.37218 0.0
C402 C 1.02649 0.62209 0.33949 0.0
O403 O 0.90112 0.60329 0.34112 0.0
O404 O 0.23663 0.58801 0.34374 0.0
H405 H 0.81184 0.56154 0.40674 0.0
H406 H 0.21083 0.70028 0.43996 0.0
H407 H 0.9098 0.51605 0.43839 0.0
Zn408 Zn 0.73614 0.33503 0.87085 0.0
C409 C 0.45615 0.36882 0.97548 0.0
N410 N 0.60662 0.36831 0.01076 0.0
C411 C 0.75847 0.36678 0.97637 0.0
N412 N 0.69646 0.36439 0.9237 0.0
N413 N 0.52026 0.3693 0.92268 0.0
C414 C 0.20635 0.3667 0.83278 0.0
O415 O 0.33874 0.34899 0.83107 0.0
O416 O 0.99502 0.33367 0.85825 0.0
Zn417 Zn 0.48256 0.39486 0.86247 0.0
N418 N 0.62234 0.30128 0.89703 0.0
C419 C 0.35243 0.27851 0.92737 0.0
C420 C 0.44494 0.30233 0.91373 0.0
C421 C 0.71262 0.27711 0.89545 0.0
N422 N 0.44122 0.25439 0.92458 0.0
C423 C 0.61947 0.25298 0.90935 0.0
O424 O 0.60672 0.38684 0.78783 0.0
C425 C 0.64568 0.3645 0.76358 0.0
O426 O 0.6593 0.3422 0.79029 0.0
H427 H 0.37333 0.32136 0.91571 0.0
H428 H 0.85375 0.27664 0.88228 0.0
C429 C 0.42193 0.45197 0.88641 0.0
C430 C 0.47858 0.47807 0.90301 0.0
C431 C 0.77174 0.46041 0.92368 0.0
C432 C 0.7165 0.43476 0.90618 0.0
N433 N 0.54361 0.43105 0.88746 0.0
N434 N 0.65262 0.48151 0.92116 0.0
H435 H 0.28428 0.44842 0.87186 0.0
C436 C 1.02635 0.3574 0.83949 0.0
O437 O 0.90103 0.37621 0.84122 0.0
O438 O 0.23656 0.39147 0.84371 0.0
H439 H 0.81101 0.41793 0.90736 0.0
H440 H 0.21074 0.27917 0.93986 0.0
H441 H 0.90817 0.46341 0.93934 0.0
Zn442 Zn 1.09511 0.64443 0.87089 0.0
C443 C 0.37516 0.61062 0.97549 0.0
N444 N 0.22473 0.61115 0.01076 0.0
C445 C 1.07284 0.61267 0.97637 0.0
N446 N 1.13479 0.61505 0.92371 0.0
N447 N 0.31099 0.61014 0.9227 0.0
C448 C 0.62483 0.61278 0.83282 0.0
O449 O 0.49239 0.63048 0.83114 0.0
O450 O 0.83619 0.6458 0.85831 0.0
Zn451 Zn 0.3487 0.5846 0.86245 0.0
N452 N 0.20896 0.67817 0.8971 0.0
C453 C 0.47889 0.70094 0.92743 0.0
C454 C 0.38636 0.67713 0.91382 0.0
C455 C 1.1187 0.70234 0.89549 0.0
N456 N 0.39013 0.72506 0.92462 0.0
C457 C 0.21187 0.72647 0.90936 0.0
O458 O 0.22454 0.59265 0.78781 0.0
C459 C 0.18549 0.615 0.76358 0.0
O460 O 0.17183 0.63729 0.79031 0.0
H461 H 0.45796 0.65809 0.91582 0.0
H462 H 0.97757 0.70281 0.8823 0.0
C463 C 0.40911 0.52749 0.88646 0.0
C464 C 0.35214 0.50138 0.90291 0.0
C465 C 1.05863 0.51904 0.9231 0.0
C466 C 1.11423 0.54469 0.90575 0.0
N467 N 0.28743 0.54841 0.88733 0.0
N468 N 0.17775 0.49793 0.92074 0.0
H469 H 0.54702 0.53104 0.87215 0.0
C470 C 0.80483 0.62208 0.8395 0.0
O471 O 0.93018 0.60328 0.84117 0.0
O472 O 0.59469 0.588 0.84371 0.0
H473 H 1.01973 0.56153 0.90682 0.0
H474 H 0.62059 0.70028 0.93993 0.0
H475 H 0.92194 0.51604 0.93853 0.0
Zn476 Zn 0.98221 0.58463 0.60506 0.0
C477 C 0.25875 0.61267 0.49118 0.0
N478 N 1.10684 0.61117 0.45678 0.0
C479 C 0.95643 0.61063 0.49204 0.0
N480 N 1.02086 0.6101 0.5448 0.0
N481 N 0.19704 0.61503 0.54388 0.0
C482 C 0.52629 0.62217 0.62814 0.0
O483 O 0.40096 0.60336 0.62662 0.0
O484 O 0.73623 0.58809 0.62369 0.0
Zn485 Zn 0.23578 0.64445 0.59671 0.0
N486 N 1.04348 0.54842 0.58028 0.0
C487 C 0.2725 0.51904 0.54464 0.0
C488 C 0.21678 0.5447 0.56193 0.0
C489 C 0.92184 0.52749 0.58113 0.0
N490 N 1.15341 0.49794 0.54697 0.0
C491 C 0.97894 0.50138 0.56473 0.0
O492 O 1.15894 0.6373 0.67729 0.0
C493 C 1.14509 0.61501 0.704 0.0
O494 O 1.10612 0.59267 0.67974 0.0
H495 H 0.31126 0.56154 0.5609 0.0
H496 H 0.78387 0.53105 0.59538 0.0
C497 C 0.21209 0.70234 0.57206 0.0
C498 C 1.11898 0.72647 0.55813 0.0
C499 C 0.85209 0.70093 0.53993 0.0
C500 C 0.94458 0.67712 0.55357 0.0
N501 N 1.12187 0.67817 0.5704 0.0
N502 N 0.94081 0.72505 0.54279 0.0
H503 H 0.35314 0.70281 0.58532 0.0
C504 C 0.70633 0.61287 0.63465 0.0
O505 O 0.83883 0.63055 0.63621 0.0
O506 O 0.49467 0.64589 0.60932 0.0
H507 H 0.87304 0.65808 0.5515 0.0
H508 H 0.40926 0.51605 0.52926 0.0
H509 H 0.71046 0.70027 0.52737 0.0
Zn510 Zn 0.84872 0.39483 0.60503 0.0
C511 C 0.57214 0.36677 0.49118 0.0
N512 N 0.72401 0.36828 0.45678 0.0
C513 C 0.87446 0.36882 0.49205 0.0
N514 N 0.8101 0.36933 0.54481 0.0
N515 N 0.63392 0.3644 0.54388 0.0
C516 C 0.30472 0.35731 0.62815 0.0
O517 O 0.43001 0.37612 0.62655 0.0
O518 O 1.09471 0.39138 0.62369 0.0
Zn519 Zn 0.59516 0.33501 0.59674 0.0
N520 N 0.78768 0.43104 0.58014 0.0
C521 C 0.55937 0.4604 0.54402 0.0
C522 C 0.61472 0.43475 0.56148 0.0
C523 C 0.90933 0.45196 0.58118 0.0
N524 N 0.67847 0.4815 0.54653 0.0
C525 C 0.85257 0.47806 0.56463 0.0
O526 O 0.67212 0.34219 0.6773 0.0
C527 C 0.68593 0.36449 0.704 0.0
O528 O 0.7248 0.38683 0.67972 0.0
H529 H 0.52022 0.41791 0.56032 0.0
H530 H 1.04703 0.44841 0.59568 0.0
C531 C 0.61878 0.27711 0.5721 0.0
C532 C 0.71187 0.25298 0.55815 0.0
C533 C 0.97878 0.27852 0.53999 0.0
C534 C 0.88631 0.30233 0.55365 0.0
N535 N 0.70902 0.30128 0.57047 0.0
N536 N 0.89003 0.2544 0.54283 0.0
H537 H 0.47772 0.27664 0.58534 0.0
C538 C 1.12469 0.36661 0.63469 0.0
O539 O 0.99222 0.34892 0.63628 0.0
O540 O 0.3363 0.33359 0.60937 0.0
H541 H 0.95786 0.32137 0.55161 0.0
H542 H 0.42289 0.4634 0.5284 0.0
H543 H 1.1204 0.27918 0.52744 0.0
loop_
_geom_bond_atom_site_label_1
_geom_bond_atom_site_label_2
_geom_bond_distance
_geom_bond_site_symmetry_2
_ccdc_geom_bond_type
Zn0 N4 2.020 1_655 S
Zn0 O8 2.019 . S
Zn0 N10 2.119 . S
Zn0 O18 1.975 . S
C1 N2 1.334 1_554 S
C1 N5 1.336 . S
N2 C1 1.334 1_556 S
N2 C3 1.334 1_456 S
C3 N2 1.334 1_654 S
C3 N4 1.336 1_655 S
N4 Zn0 2.020 1_455 S
N4 C3 1.336 1_455 S
N4 N5 1.354 . S
N5 C1 1.336 . S
N5 N4 1.354 . S
N5 Zn9 2.020 . S
C6 O7 1.244 . S
C6 O30 1.257 . S
O7 C6 1.244 . S
O8 Zn0 2.019 . S
O8 C28 1.257 . S
Zn9 N5 2.020 . S
Zn9 O16 1.975 . S
Zn9 N25 2.119 . S
Zn9 O30 2.019 . S
N10 Zn0 2.119 . S
N10 C12 1.334 1_655 S
N10 C13 1.328 . S
C11 C12 1.391 . S
C11 N14 1.329 . S
C11 H32 0.930 . S
C12 N10 1.334 1_455 S
C12 C11 1.391 . S
C12 H19 0.930 . S
C13 N10 1.328 . S
C13 C15 1.392 . S
C13 H20 0.930 . S
N14 C11 1.329 . S
N14 C15 1.331 1_455 S
C15 C13 1.392 . S
C15 N14 1.331 1_655 S
O16 Zn9 1.975 . S
O16 C17 1.252 . S
C17 O16 1.252 . S
C17 O18 1.252 1_455 S
O18 Zn0 1.975 . S
O18 C17 1.252 1_655 S
H19 C12 0.930 . S
H20 C13 0.930 . S
C21 C22 1.392 . S
C21 N25 1.328 . S
C21 H27 0.930 . S
C22 C21 1.392 . S
C22 N26 1.331 . S
C23 C24 1.391 . S
C23 N26 1.329 . S
C23 H33 0.930 1_455 S
C24 C23 1.391 . S
C24 N25 1.334 . S
C24 H31 0.930 1_455 S
N25 Zn9 2.119 . S
N25 C21 1.328 . S
N25 C24 1.334 . S
N26 C22 1.331 . S
N26 C23 1.329 . S
H27 C21 0.930 . S
C28 O8 1.257 . S
C28 O29 1.244 . S
O29 C28 1.244 . S
O30 C6 1.257 . S
O30 Zn9 2.019 . S
H31 C24 0.930 1_655 S
H32 C11 0.930 . S
H33 C23 0.930 1_655 S
Zn34 N38 2.020 . S
Zn34 O42 2.019 . S
Zn34 N44 2.119 . S
Zn34 O52 1.975 . S
C35 N36 1.334 1_554 S
C35 N39 1.336 . S
N36 C35 1.334 1_556 S
N36 C37 1.334 1_556 S
C37 N36 1.334 1_554 S
C37 N38 1.336 . S
N38 Zn34 2.020 . S
N38 C37 1.336 . S
N38 N39 1.354 . S
N39 C35 1.336 . S
N39 N38 1.354 . S
N39 Zn43 2.020 . S
C40 O41 1.244 . S
C40 O64 1.257 . S
O41 C40 1.244 . S
O42 Zn34 2.019 . S
O42 C62 1.257 1_455 S
Zn43 N39 2.020 . S
Zn43 O50 1.975 . S
Zn43 N59 2.119 . S
Zn43 O64 2.019 . S
N44 Zn34 2.119 . S
N44 C46 1.334 . S
N44 C47 1.328 . S
C45 C46 1.391 . S
C45 N48 1.329 . S
C45 H66 0.930 . S
C46 N44 1.334 . S
C46 C45 1.391 . S
C46 H53 0.930 . S
C47 N44 1.328 . S
C47 C49 1.392 . S
C47 H54 0.930 . S
N48 C45 1.329 . S
N48 C49 1.331 . S
C49 C47 1.392 . S
C49 N48 1.331 . S
O50 Zn43 1.975 . S
O50 C51 1.252 . S
C51 O50 1.252 . S
C51 O52 1.252 . S
O52 Zn34 1.975 . S
O52 C51 1.252 . S
H53 C46 0.930 . S
H54 C47 0.930 . S
C55 C56 1.392 . S
C55 N59 1.328 . S
C55 H61 0.930 . S
C56 C55 1.392 . S
C56 N60 1.331 . S
C57 C58 1.391 . S
C57 N60 1.329 . S
C57 H67 0.930 . S
C58 C57 1.391 . S
C58 N59 1.334 . S
C58 H65 0.930 . S
N59 Zn43 2.119 . S
N59 C55 1.328 . S
N59 C58 1.334 . S
N60 C56 1.331 . S
N60 C57 1.329 . S
H61 C55 0.930 . S
C62 O42 1.257 1_655 S
C62 O63 1.244 1_655 S
O63 C62 1.244 1_455 S
O64 C40 1.257 . S
O64 Zn43 2.019 . S
H65 C58 0.930 . S
H66 C45 0.930 . S
H67 C57 0.930 . S
Zn68 N72 2.020 . S
Zn68 O76 2.019 . S
Zn68 N78 2.119 . S
Zn68 O86 1.975 . S
C69 N70 1.334 . S
C69 N73 1.336 . S
N70 C69 1.334 . S
N70 C71 1.334 . S
C71 N70 1.334 . S
C71 N72 1.336 . S
N72 Zn68 2.020 . S
N72 C71 1.336 . S
N72 N73 1.354 . S
N73 C69 1.336 . S
N73 N72 1.354 . S
N73 Zn77 2.020 . S
C74 O75 1.244 . S
C74 O98 1.257 . S
O75 C74 1.244 . S
O76 Zn68 2.019 . S
O76 C96 1.257 1_655 S
Zn77 N73 2.020 . S
Zn77 O84 1.975 . S
Zn77 N93 2.119 . S
Zn77 O98 2.019 . S
N78 Zn68 2.119 . S
N78 C80 1.334 . S
N78 C81 1.328 . S
C79 C80 1.391 . S
C79 N82 1.329 . S
C79 H100 0.930 . S
C80 N78 1.334 . S
C80 C79 1.391 . S
C80 H87 0.930 . S
C81 N78 1.328 . S
C81 C83 1.392 . S
C81 H88 0.930 . S
N82 C79 1.329 . S
N82 C83 1.331 . S
C83 C81 1.392 . S
C83 N82 1.331 . S
O84 Zn77 1.975 . S
O84 C85 1.252 . S
C85 O84 1.252 . S
C85 O86 1.252 . S
O86 Zn68 1.975 . S
O86 C85 1.252 . S
H87 C80 0.930 . S
H88 C81 0.930 . S
C89 C90 1.392 . S
C89 N93 1.328 . S
C89 H95 0.930 . S
C90 C89 1.392 . S
C90 N94 1.331 . S
C91 C92 1.391 . S
C91 N94 1.329 . S
C91 H101 0.930 . S
C92 C91 1.391 . S
C92 N93 1.334 . S
C92 H99 0.930 . S
N93 Zn77 2.119 . S
N93 C89 1.328 . S
N93 C92 1.334 . S
N94 C90 1.331 . S
N94 C91 1.329 . S
H95 C89 0.930 . S
C96 O76 1.257 1_455 S
C96 O97 1.244 1_455 S
O97 C96 1.244 1_655 S
O98 C74 1.257 . S
O98 Zn77 2.019 . S
H99 C92 0.930 . S
H100 C79 0.930 . S
H101 C91 0.930 . S
Zn102 N106 2.020 1_455 S
Zn102 O110 2.019 . S
Zn102 N112 2.119 . S
Zn102 O120 1.975 . S
C103 N104 1.334 . S
C103 N107 1.336 . S
N104 C103 1.334 . S
N104 C105 1.334 1_655 S
C105 N104 1.334 1_455 S
C105 N106 1.336 1_455 S
N106 Zn102 2.020 1_655 S
N106 C105 1.336 1_655 S
N106 N107 1.354 . S
N107 C103 1.336 . S
N107 N106 1.354 . S
N107 Zn111 2.020 . S
C108 O109 1.244 . S
C108 O132 1.257 . S
O109 C108 1.244 . S
O110 Zn102 2.019 . S
O110 C130 1.257 . S
Zn111 N107 2.020 . S
Zn111 O118 1.975 . S
Zn111 N127 2.119 . S
Zn111 O132 2.019 . S
N112 Zn102 2.119 . S
N112 C114 1.334 1_455 S
N112 C115 1.328 . S
C113 C114 1.391 . S
C113 N116 1.329 . S
C113 H134 0.930 . S
C114 N112 1.334 1_655 S
C114 C113 1.391 . S
C114 H121 0.930 . S
C115 N112 1.328 . S
C115 C117 1.392 . S
C115 H122 0.930 . S
N116 C113 1.329 . S
N116 C117 1.331 1_655 S
C117 C115 1.392 . S
C117 N116 1.331 1_455 S
O118 Zn111 1.975 . S
O118 C119 1.252 . S
C119 O118 1.252 . S
C119 O120 1.252 1_655 S
O120 Zn102 1.975 . S
O120 C119 1.252 1_455 S
H121 C114 0.930 . S
H122 C115 0.930 . S
C123 C124 1.392 . S
C123 N127 1.328 . S
C123 H129 0.930 . S
C124 C123 1.392 . S
C124 N128 1.331 . S
C125 C126 1.391 . S
C125 N128 1.329 . S
C125 H135 0.930 1_655 S
C126 C125 1.391 . S
C126 N127 1.334 . S
C126 H133 0.930 1_655 S
N127 Zn111 2.119 . S
N127 C123 1.328 . S
N127 C126 1.334 . S
N128 C124 1.331 . S
N128 C125 1.329 . S
H129 C123 0.930 . S
C130 O110 1.257 . S
C130 O131 1.244 . S
O131 C130 1.244 . S
O132 C108 1.257 . S
O132 Zn111 2.019 . S
H133 C126 0.930 1_455 S
H134 C113 0.930 . S
H135 C125 0.930 1_455 S
Zn136 N140 2.020 . S
Zn136 O144 2.019 . S
Zn136 N146 2.119 . S
Zn136 O154 1.975 . S
C137 N138 1.334 1_456 S
C137 N141 1.336 1_455 S
N138 C137 1.334 1_654 S
N138 C139 1.334 1_554 S
C139 N138 1.334 1_556 S
C139 N140 1.336 . S
N140 Zn136 2.020 . S
N140 C139 1.336 . S
N140 N141 1.354 . S
N141 C137 1.336 1_655 S
N141 N140 1.354 . S
N141 Zn145 2.020 1_655 S
C142 O143 1.244 . S
C142 O166 1.257 . S
O143 C142 1.244 . S
O144 Zn136 2.019 . S
O144 C164 1.257 . S
Zn145 N141 2.020 1_455 S
Zn145 O152 1.975 . S
Zn145 N161 2.119 . S
Zn145 O166 2.019 . S
N146 Zn136 2.119 . S
N146 C148 1.334 . S
N146 C149 1.328 . S
C147 C148 1.391 . S
C147 N150 1.329 . S
C147 H168 0.930 1_655 S
C148 N146 1.334 . S
C148 C147 1.391 . S
C148 H155 0.930 1_655 S
C149 N146 1.328 . S
C149 C151 1.392 . S
C149 H156 0.930 . S
N150 C147 1.329 . S
N150 C151 1.331 . S
C151 C149 1.392 . S
C151 N150 1.331 . S
O152 Zn145 1.975 . S
O152 C153 1.252 1_455 S
C153 O152 1.252 1_655 S
C153 O154 1.252 . S
O154 Zn136 1.975 . S
O154 C153 1.252 . S
H155 C148 0.930 1_455 S
H156 C149 0.930 . S
C157 C158 1.392 . S
C157 N161 1.328 . S
C157 H163 0.930 . S
C158 C157 1.392 . S
C158 N162 1.331 1_455 S
C159 C160 1.391 . S
C159 N162 1.329 . S
C159 H169 0.930 . S
C160 C159 1.391 . S
C160 N161 1.334 1_655 S
C160 H167 0.930 . S
N161 Zn145 2.119 . S
N161 C157 1.328 . S
N161 C160 1.334 1_455 S
N162 C158 1.331 1_655 S
N162 C159 1.329 . S
H163 C157 0.930 . S
C164 O144 1.257 . S
C164 O165 1.244 . S
O165 C164 1.244 . S
O166 C142 1.257 . S
O166 Zn145 2.019 . S
H167 C160 0.930 . S
H168 C147 0.930 1_455 S
H169 C159 0.930 . S
Zn170 N174 2.020 . S
Zn170 O178 2.019 . S
Zn170 N180 2.119 . S
Zn170 O188 1.975 . S
C171 N172 1.334 1_556 S
C171 N175 1.336 . S
N172 C171 1.334 1_554 S
N172 C173 1.334 1_554 S
C173 N172 1.334 1_556 S
C173 N174 1.336 . S
N174 Zn170 2.020 . S
N174 C173 1.336 . S
N174 N175 1.354 . S
N175 C171 1.336 . S
N175 N174 1.354 . S
N175 Zn179 2.020 . S
C176 O177 1.244 . S
C176 O200 1.257 . S
O177 C176 1.244 . S
O178 Zn170 2.019 . S
O178 C198 1.257 1_655 S
Zn179 N175 2.020 . S
Zn179 O186 1.975 . S
Zn179 N195 2.119 . S
Zn179 O200 2.019 . S
N180 Zn170 2.119 . S
N180 C182 1.334 . S
N180 C183 1.328 . S
C181 C182 1.391 . S
C181 N184 1.329 . S
C181 H202 0.930 . S
C182 N180 1.334 . S
C182 C181 1.391 . S
C182 H189 0.930 . S
C183 N180 1.328 . S
C183 C185 1.392 . S
C183 H190 0.930 . S
N184 C181 1.329 . S
N184 C185 1.331 . S
C185 C183 1.392 . S
C185 N184 1.331 . S
O186 Zn179 1.975 . S
O186 C187 1.252 . S
C187 O186 1.252 . S
C187 O188 1.252 . S
O188 Zn170 1.975 . S
O188 C187 1.252 . S
H189 C182 0.930 . S
H190 C183 0.930 . S
C191 C192 1.392 . S
C191 N195 1.328 . S
C191 H197 0.930 . S
C192 C191 1.392 . S
C192 N196 1.331 . S
C193 C194 1.391 . S
C193 N196 1.329 . S
C193 H203 0.930 . S
C194 C193 1.391 . S
C194 N195 1.334 . S
C194 H201 0.930 . S
N195 Zn179 2.119 . S
N195 C191 1.328 . S
N195 C194 1.334 . S
N196 C192 1.331 . S
N196 C193 1.329 . S
H197 C191 0.930 . S
C198 O178 1.257 1_455 S
C198 O199 1.244 1_455 S
O199 C198 1.244 1_655 S
O200 C176 1.257 . S
O200 Zn179 2.019 . S
H201 C194 0.930 . S
H202 C181 0.930 . S
H203 C193 0.930 . S
Zn204 N208 2.020 . S
Zn204 O212 2.019 . S
Zn204 N214 2.119 . S
Zn204 O222 1.975 . S
C205 N206 1.334 . S
C205 N209 1.336 . S
N206 C205 1.334 . S
N206 C207 1.334 . S
C207 N206 1.334 . S
C207 N208 1.336 . S
N208 Zn204 2.020 . S
N208 C207 1.336 . S
N208 N209 1.354 . S
N209 C205 1.336 . S
N209 N208 1.354 . S
N209 Zn213 2.020 . S
C210 O211 1.244 . S
C210 O234 1.257 . S
O211 C210 1.244 . S
O212 Zn204 2.019 . S
O212 C232 1.257 1_455 S
Zn213 N209 2.020 . S
Zn213 O220 1.975 . S
Zn213 N229 2.119 . S
Zn213 O234 2.019 . S
N214 Zn204 2.119 . S
N214 C216 1.334 . S
N214 C217 1.328 . S
C215 C216 1.391 . S
C215 N218 1.329 . S
C215 H236 0.930 . S
C216 N214 1.334 . S
C216 C215 1.391 . S
C216 H223 0.930 . S
C217 N214 1.328 . S
C217 C219 1.392 . S
C217 H224 0.930 . S
N218 C215 1.329 . S
N218 C219 1.331 . S
C219 C217 1.392 . S
C219 N218 1.331 . S
O220 Zn213 1.975 . S
O220 C221 1.252 . S
C221 O220 1.252 . S
C221 O222 1.252 . S
O222 Zn204 1.975 . S
O222 C221 1.252 . S
H223 C216 0.930 . S
H224 C217 0.930 . S
C225 C226 1.392 . S
C225 N229 1.328 . S
C225 H231 0.930 . S
C226 C225 1.392 . S
C226 N230 1.331 . S
C227 C228 1.391 . S
C227 N230 1.329 . S
C227 H237 0.930 . S
C228 C227 1.391 . S
C228 N229 1.334 . S
C228 H235 0.930 . S
N229 Zn213 2.119 . S
N229 C225 1.328 . S
N229 C228 1.334 . S
N230 C226 1.331 . S
N230 C227 1.329 . S
H231 C225 0.930 . S
C232 O212 1.257 1_655 S
C232 O233 1.244 1_655 S
O233 C232 1.244 1_455 S
O234 C210 1.257 . S
O234 Zn213 2.019 . S
H235 C228 0.930 . S
H236 C215 0.930 . S
H237 C227 0.930 . S
Zn238 N242 2.020 . S
Zn238 O246 2.019 . S
Zn238 N248 2.119 . S
Zn238 O256 1.975 . S
C239 N240 1.334 1_655 S
C239 N243 1.336 1_655 S
N240 C239 1.334 1_455 S
N240 C241 1.334 . S
C241 N240 1.334 . S
C241 N242 1.336 . S
N242 Zn238 2.020 . S
N242 C241 1.336 . S
N242 N243 1.354 . S
N243 C239 1.336 1_455 S
N243 N242 1.354 . S
N243 Zn247 2.020 1_455 S
C244 O245 1.244 . S
C244 O268 1.257 . S
O245 C244 1.244 . S
O246 Zn238 2.019 . S
O246 C266 1.257 . S
Zn247 N243 2.020 1_655 S
Zn247 O254 1.975 . S
Zn247 N263 2.119 . S
Zn247 O268 2.019 . S
N248 Zn238 2.119 . S
N248 C250 1.334 . S
N248 C251 1.328 . S
C249 C250 1.391 . S
C249 N252 1.329 . S
C249 H270 0.930 1_455 S
C250 N248 1.334 . S
C250 C249 1.391 . S
C250 H257 0.930 1_455 S
C251 N248 1.328 . S
C251 C253 1.392 . S
C251 H258 0.930 . S
N252 C249 1.329 . S
N252 C253 1.331 . S
C253 C251 1.392 . S
C253 N252 1.331 . S
O254 Zn247 1.975 . S
O254 C255 1.252 1_655 S
C255 O254 1.252 1_455 S
C255 O256 1.252 . S
O256 Zn238 1.975 . S
O256 C255 1.252 . S
H257 C250 0.930 1_655 S
H258 C251 0.930 . S
C259 C260 1.392 . S
C259 N263 1.328 . S
C259 H265 0.930 . S
C260 C259 1.392 . S
C260 N264 1.331 1_655 S
C261 C262 1.391 . S
C261 N264 1.329 . S
C261 H271 0.930 . S
C262 C261 1.391 . S
C262 N263 1.334 1_455 S
C262 H269 0.930 . S
N263 Zn247 2.119 . S
N263 C259 1.328 . S
N263 C262 1.334 1_655 S
N264 C260 1.331 1_455 S
N264 C261 1.329 . S
H265 C259 0.930 . S
C266 O246 1.257 . S
C266 O267 1.244 . S
O267 C266 1.244 . S
O268 C244 1.257 . S
O268 Zn247 2.019 . S
H269 C262 0.930 . S
H270 C249 0.930 1_655 S
H271 C261 0.930 . S
Zn272 N276 2.020 . S
Zn272 O280 2.019 . S
Zn272 N282 2.119 . S
Zn272 O290 1.975 . S
C273 N274 1.334 1_554 S
C273 N277 1.336 . S
N274 C273 1.334 1_556 S
N274 C275 1.334 1_556 S
C275 N274 1.334 1_554 S
C275 N276 1.336 . S
N276 Zn272 2.020 . S
N276 C275 1.336 . S
N276 N277 1.354 . S
N277 C273 1.336 . S
N277 N276 1.354 . S
N277 Zn281 2.020 . S
C278 O279 1.244 1_455 S
C278 O302 1.257 1_455 S
O279 C278 1.244 1_655 S
O280 Zn272 2.019 . S
O280 C300 1.257 . S
Zn281 N277 2.020 . S
Zn281 O288 1.975 . S
Zn281 N297 2.119 . S
Zn281 O302 2.019 . S
N282 Zn272 2.119 . S
N282 C284 1.334 . S
N282 C285 1.328 . S
C283 C284 1.391 . S
C283 N286 1.329 . S
C283 H304 0.930 . S
C284 N282 1.334 . S
C284 C283 1.391 . S
C284 H291 0.930 . S
C285 N282 1.328 . S
C285 C287 1.392 . S
C285 H292 0.930 . S
N286 C283 1.329 . S
N286 C287 1.331 . S
C287 C285 1.392 . S
C287 N286 1.331 . S
O288 Zn281 1.975 . S
O288 C289 1.252 . S
C289 O288 1.252 . S
C289 O290 1.252 . S
O290 Zn272 1.975 . S
O290 C289 1.252 . S
H291 C284 0.930 . S
H292 C285 0.930 . S
C293 C294 1.392 . S
C293 N297 1.328 . S
C293 H299 0.930 . S
C294 C293 1.392 . S
C294 N298 1.331 . S
C295 C296 1.391 . S
C295 N298 1.329 . S
C295 H305 0.930 . S
C296 C295 1.391 . S
C296 N297 1.334 . S
C296 H303 0.930 . S
N297 Zn281 2.119 . S
N297 C293 1.328 . S
N297 C296 1.334 . S
N298 C294 1.331 . S
N298 C295 1.329 . S
H299 C293 0.930 . S
C300 O280 1.257 . S
C300 O301 1.244 . S
O301 C300 1.244 . S
O302 C278 1.257 1_655 S
O302 Zn281 2.019 . S
H303 C296 0.930 . S
H304 C283 0.930 . S
H305 C295 0.930 . S
Zn306 N310 2.020 . S
Zn306 O314 2.019 . S
Zn306 N316 2.119 . S
Zn306 O324 1.975 . S
C307 N308 1.334 1_454 S
C307 N311 1.336 1_455 S
N308 C307 1.334 1_656 S
N308 C309 1.334 1_556 S
C309 N308 1.334 1_554 S
C309 N310 1.336 . S
N310 Zn306 2.020 . S
N310 C309 1.336 . S
N310 N311 1.354 . S
N311 C307 1.336 1_655 S
N311 N310 1.354 . S
N311 Zn315 2.020 1_655 S
C312 O313 1.244 . S
C312 O336 1.257 . S
O313 C312 1.244 . S
O314 Zn306 2.019 . S
O314 C334 1.257 . S
Zn315 N311 2.020 1_455 S
Zn315 O322 1.975 . S
Zn315 N331 2.119 . S
Zn315 O336 2.019 . S
N316 Zn306 2.119 . S
N316 C318 1.334 . S
N316 C319 1.328 . S
C317 C318 1.391 . S
C317 N320 1.329 . S
C317 H338 0.930 1_655 S
C318 N316 1.334 . S
C318 C317 1.391 . S
C318 H325 0.930 1_655 S
C319 N316 1.328 . S
C319 C321 1.392 . S
C319 H326 0.930 . S
N320 C317 1.329 . S
N320 C321 1.331 . S
C321 C319 1.392 . S
C321 N320 1.331 . S
O322 Zn315 1.975 . S
O322 C323 1.252 1_455 S
C323 O322 1.252 1_655 S
C323 O324 1.252 . S
O324 Zn306 1.975 . S
O324 C323 1.252 . S
H325 C318 0.930 1_455 S
H326 C319 0.930 . S
C327 C328 1.392 . S
C327 N331 1.328 . S
C327 H333 0.930 . S
C328 C327 1.392 . S
C328 N332 1.331 1_455 S
C329 C330 1.391 . S
C329 N332 1.329 . S
C329 H339 0.930 . S
C330 C329 1.391 . S
C330 N331 1.334 1_655 S
C330 H337 0.930 . S
N331 Zn315 2.119 . S
N331 C327 1.328 . S
N331 C330 1.334 1_455 S
N332 C328 1.331 1_655 S
N332 C329 1.329 . S
H333 C327 0.930 . S
C334 O314 1.257 . S
C334 O335 1.244 . S
O335 C334 1.244 . S
O336 C312 1.257 . S
O336 Zn315 2.019 . S
H337 C330 0.930 . S
H338 C317 0.930 1_455 S
H339 C329 0.930 . S
Zn340 N344 2.020 . S
Zn340 O348 2.019 . S
Zn340 N350 2.119 . S
Zn340 O358 1.975 . S
C341 N342 1.334 1_655 S
C341 N345 1.336 1_655 S
N342 C341 1.334 1_455 S
N342 C343 1.334 . S
C343 N342 1.334 . S
C343 N344 1.336 . S
N344 Zn340 2.020 . S
N344 C343 1.336 . S
N344 N345 1.354 . S
N345 C341 1.336 1_455 S
N345 N344 1.354 . S
N345 Zn349 2.020 1_455 S
C346 O347 1.244 . S
C346 O370 1.257 . S
O347 C346 1.244 . S
O348 Zn340 2.019 . S
O348 C368 1.257 . S
Zn349 N345 2.020 1_655 S
Zn349 O356 1.975 . S
Zn349 N365 2.119 . S
Zn349 O370 2.019 . S
N350 Zn340 2.119 . S
N350 C352 1.334 . S
N350 C353 1.328 . S
C351 C352 1.391 . S
C351 N354 1.329 . S
C351 H372 0.930 1_455 S
C352 N350 1.334 . S
C352 C351 1.391 . S
C352 H359 0.930 1_455 S
C353 N350 1.328 . S
C353 C355 1.392 . S
C353 H360 0.930 . S
N354 C351 1.329 . S
N354 C355 1.331 . S
C355 C353 1.392 . S
C355 N354 1.331 . S
O356 Zn349 1.975 . S
O356 C357 1.252 1_655 S
C357 O356 1.252 1_455 S
C357 O358 1.252 . S
O358 Zn340 1.975 . S
O358 C357 1.252 . S
H359 C352 0.930 1_655 S
H360 C353 0.930 . S
C361 C362 1.392 . S
C361 N365 1.328 . S
C361 H367 0.930 . S
C362 C361 1.392 . S
C362 N366 1.331 1_655 S
C363 C364 1.391 . S
C363 N366 1.329 . S
C363 H373 0.930 . S
C364 C363 1.391 . S
C364 N365 1.334 1_455 S
C364 H371 0.930 . S
N365 Zn349 2.119 . S
N365 C361 1.328 . S
N365 C364 1.334 1_655 S
N366 C362 1.331 1_455 S
N366 C363 1.329 . S
H367 C361 0.930 . S
C368 O348 1.257 . S
C368 O369 1.244 . S
O369 C368 1.244 . S
O370 C346 1.257 . S
O370 Zn349 2.019 . S
H371 C364 0.930 . S
H372 C351 0.930 1_655 S
H373 C363 0.930 . S
Zn374 N378 2.020 . S
Zn374 O382 2.019 . S
Zn374 N384 2.119 . S
Zn374 O392 1.975 . S
C375 N376 1.334 . S
C375 N379 1.336 . S
N376 C375 1.334 . S
N376 C377 1.334 . S
C377 N376 1.334 . S
C377 N378 1.336 . S
N378 Zn374 2.020 . S
N378 C377 1.336 . S
N378 N379 1.354 . S
N379 C375 1.336 . S
N379 N378 1.354 . S
N379 Zn383 2.020 . S
C380 O381 1.244 1_655 S
C380 O404 1.257 1_655 S
O381 C380 1.244 1_455 S
O382 Zn374 2.019 . S
O382 C402 1.257 . S
Zn383 N379 2.020 . S
Zn383 O390 1.975 . S
Zn383 N399 2.119 . S
Zn383 O404 2.019 . S
N384 Zn374 2.119 . S
N384 C386 1.334 . S
N384 C387 1.328 . S
C385 C386 1.391 . S
C385 N388 1.329 . S
C385 H406 0.930 . S
C386 N384 1.334 . S
C386 C385 1.391 . S
C386 H393 0.930 . S
C387 N384 1.328 . S
C387 C389 1.392 . S
C387 H394 0.930 . S
N388 C385 1.329 . S
N388 C389 1.331 . S
C389 C387 1.392 . S
C389 N388 1.331 . S
O390 Zn383 1.975 . S
O390 C391 1.252 . S
C391 O390 1.252 . S
C391 O392 1.252 . S
O392 Zn374 1.975 . S
O392 C391 1.252 . S
H393 C386 0.930 . S
H394 C387 0.930 . S
C395 C396 1.392 . S
C395 N399 1.328 . S
C395 H401 0.930 . S
C396 C395 1.392 . S
C396 N400 1.331 . S
C397 C398 1.391 . S
C397 N400 1.329 . S
C397 H407 0.930 . S
C398 C397 1.391 . S
C398 N399 1.334 . S
C398 H405 0.930 . S
N399 Zn383 2.119 . S
N399 C395 1.328 . S
N399 C398 1.334 . S
N400 C396 1.331 . S
N400 C397 1.329 . S
H401 C395 0.930 . S
C402 O382 1.257 . S
C402 O403 1.244 . S
O403 C402 1.244 . S
O404 C380 1.257 1_455 S
O404 Zn383 2.019 . S
H405 C398 0.930 . S
H406 C385 0.930 . S
H407 C397 0.930 . S
Zn408 N412 2.020 . S
Zn408 O416 2.019 . S
Zn408 N418 2.119 . S
Zn408 O426 1.975 . S
C409 N410 1.334 1_556 S
C409 N413 1.336 . S
N410 C409 1.334 1_554 S
N410 C411 1.334 1_554 S
C411 N410 1.334 1_556 S
C411 N412 1.336 . S
N412 Zn408 2.020 . S
N412 C411 1.336 . S
N412 N413 1.354 . S
N413 C409 1.336 . S
N413 N412 1.354 . S
N413 Zn417 2.020 . S
C414 O415 1.244 1_655 S
C414 O438 1.257 1_655 S
O415 C414 1.244 1_455 S
O416 Zn408 2.019 . S
O416 C436 1.257 . S
Zn417 N413 2.020 . S
Zn417 O424 1.975 . S
Zn417 N433 2.119 . S
Zn417 O438 2.019 . S
N418 Zn408 2.119 . S
N418 C420 1.334 . S
N418 C421 1.328 . S
C419 C420 1.391 . S
C419 N422 1.329 . S
C419 H440 0.930 . S
C420 N418 1.334 . S
C420 C419 1.391 . S
C420 H427 0.930 . S
C421 N418 1.328 . S
C421 C423 1.392 . S
C421 H428 0.930 . S
N422 C419 1.329 . S
N422 C423 1.331 . S
C423 C421 1.392 . S
C423 N422 1.331 . S
O424 Zn417 1.975 . S
O424 C425 1.252 . S
C425 O424 1.252 . S
C425 O426 1.252 . S
O426 Zn408 1.975 . S
O426 C425 1.252 . S
H427 C420 0.930 . S
H428 C421 0.930 . S
C429 C430 1.392 . S
C429 N433 1.328 . S
C429 H435 0.930 . S
C430 C429 1.392 . S
C430 N434 1.331 . S
C431 C432 1.391 . S
C431 N434 1.329 . S
C431 H441 0.930 . S
C432 C431 1.391 . S
C432 N433 1.334 . S
C432 H439 0.930 . S
N433 Zn417 2.119 . S
N433 C429 1.328 . S
N433 C432 1.334 . S
N434 C430 1.331 . S
N434 C431 1.329 . S
H435 C429 0.930 . S
C436 O416 1.257 . S
C436 O437 1.244 . S
O437 C436 1.244 . S
O438 C414 1.257 1_455 S
O438 Zn417 2.019 . S
H439 C432 0.930 . S
H440 C419 0.930 . S
H441 C431 0.930 . S
Zn442 N446 2.020 1_655 S
Zn442 O450 2.019 . S
Zn442 N452 2.119 . S
Zn442 O460 1.975 . S
C443 N444 1.334 1_556 S
C443 N447 1.336 . S
N444 C443 1.334 1_554 S
N444 C445 1.334 1_454 S
C445 N444 1.334 1_656 S
C445 N446 1.336 1_655 S
N446 Zn442 2.020 1_455 S
N446 C445 1.336 1_455 S
N446 N447 1.354 . S
N447 C443 1.336 . S
N447 N446 1.354 . S
N447 Zn451 2.020 . S
C448 O449 1.244 . S
C448 O472 1.257 . S
O449 C448 1.244 . S
O450 Zn442 2.019 . S
O450 C470 1.257 . S
Zn451 N447 2.020 . S
Zn451 O458 1.975 . S
Zn451 N467 2.119 . S
Zn451 O472 2.019 . S
N452 Zn442 2.119 . S
N452 C454 1.334 1_655 S
N452 C455 1.328 . S
C453 C454 1.391 . S
C453 N456 1.329 . S
C453 H474 0.930 . S
C454 N452 1.334 1_455 S
C454 C453 1.391 . S
C454 H461 0.930 . S
C455 N452 1.328 . S
C455 C457 1.392 . S
C455 H462 0.930 . S
N456 C453 1.329 . S
N456 C457 1.331 1_455 S
C457 C455 1.392 . S
C457 N456 1.331 1_655 S
O458 Zn451 1.975 . S
O458 C459 1.252 . S
C459 O458 1.252 . S
C459 O460 1.252 1_455 S
O460 Zn442 1.975 . S
O460 C459 1.252 1_655 S
H461 C454 0.930 . S
H462 C455 0.930 . S
C463 C464 1.392 . S
C463 N467 1.328 . S
C463 H469 0.930 . S
C464 C463 1.392 . S
C464 N468 1.331 . S
C465 C466 1.391 . S
C465 N468 1.329 . S
C465 H475 0.930 1_455 S
C466 C465 1.391 . S
C466 N467 1.334 . S
C466 H473 0.930 1_455 S
N467 Zn451 2.119 . S
N467 C463 1.328 . S
N467 C466 1.334 . S
N468 C464 1.331 . S
N468 C465 1.329 . S
H469 C463 0.930 . S
C470 O450 1.257 . S
C470 O471 1.244 . S
O471 C470 1.244 . S
O472 C448 1.257 . S
O472 Zn451 2.019 . S
H473 C466 0.930 1_655 S
H474 C453 0.930 . S
H475 C465 0.930 1_655 S
Zn476 N480 2.020 . S
Zn476 O484 2.019 . S
Zn476 N486 2.119 . S
Zn476 O494 1.975 . S
C477 N478 1.334 1_455 S
C477 N481 1.336 1_455 S
N478 C477 1.334 1_655 S
N478 C479 1.334 . S
C479 N478 1.334 . S
C479 N480 1.336 . S
N480 Zn476 2.020 . S
N480 C479 1.336 . S
N480 N481 1.354 . S
N481 C477 1.336 1_655 S
N481 N480 1.354 . S
N481 Zn485 2.020 1_655 S
C482 O483 1.244 . S
C482 O506 1.257 . S
O483 C482 1.244 . S
O484 Zn476 2.019 . S
O484 C504 1.257 . S
Zn485 N481 2.020 1_455 S
Zn485 O492 1.975 . S
Zn485 N501 2.119 . S
Zn485 O506 2.019 . S
N486 Zn476 2.119 . S
N486 C488 1.334 . S
N486 C489 1.328 . S
C487 C488 1.391 . S
C487 N490 1.329 . S
C487 H508 0.930 1_655 S
C488 N486 1.334 . S
C488 C487 1.391 . S
C488 H495 0.930 1_655 S
C489 N486 1.328 . S
C489 C491 1.392 . S
C489 H496 0.930 . S
N490 C487 1.329 . S
N490 C491 1.331 . S
C491 C489 1.392 . S
C491 N490 1.331 . S
O492 Zn485 1.975 . S
O492 C493 1.252 1_455 S
C493 O492 1.252 1_655 S
C493 O494 1.252 . S
O494 Zn476 1.975 . S
O494 C493 1.252 . S
H495 C488 0.930 1_455 S
H496 C489 0.930 . S
C497 C498 1.392 . S
C497 N501 1.328 . S
C497 H503 0.930 . S
C498 C497 1.392 . S
C498 N502 1.331 1_455 S
C499 C500 1.391 . S
C499 N502 1.329 . S
C499 H509 0.930 . S
C500 C499 1.391 . S
C500 N501 1.334 1_655 S
C500 H507 0.930 . S
N501 Zn485 2.119 . S
N501 C497 1.328 . S
N501 C500 1.334 1_455 S
N502 C498 1.331 1_655 S
N502 C499 1.329 . S
H503 C497 0.930 . S
C504 O484 1.257 . S
C504 O505 1.244 . S
O505 C504 1.244 . S
O506 C482 1.257 . S
O506 Zn485 2.019 . S
H507 C500 0.930 . S
H508 C487 0.930 1_455 S
H509 C499 0.930 . S
Zn510 N514 2.020 . S
Zn510 O518 2.019 . S
Zn510 N520 2.119 . S
Zn510 O528 1.975 . S
C511 N512 1.334 . S
C511 N515 1.336 . S
N512 C511 1.334 . S
N512 C513 1.334 . S
C513 N512 1.334 . S
C513 N514 1.336 . S
N514 Zn510 2.020 . S
N514 C513 1.336 . S
N514 N515 1.354 . S
N515 C511 1.336 . S
N515 N514 1.354 . S
N515 Zn519 2.020 . S
C516 O517 1.244 . S
C516 O540 1.257 . S
O517 C516 1.244 . S
O518 Zn510 2.019 . S
O518 C538 1.257 1_655 S
Zn519 N515 2.020 . S
Zn519 O526 1.975 . S
Zn519 N535 2.119 . S
Zn519 O540 2.019 . S
N520 Zn510 2.119 . S
N520 C522 1.334 . S
N520 C523 1.328 . S
C521 C522 1.391 . S
C521 N524 1.329 . S
C521 H542 0.930 . S
C522 N520 1.334 . S
C522 C521 1.391 . S
C522 H529 0.930 . S
C523 N520 1.328 . S
C523 C525 1.392 . S
C523 H530 0.930 . S
N524 C521 1.329 . S
N524 C525 1.331 . S
C525 C523 1.392 . S
C525 N524 1.331 . S
O526 Zn519 1.975 . S
O526 C527 1.252 . S
C527 O526 1.252 . S
C527 O528 1.252 . S
O528 Zn510 1.975 . S
O528 C527 1.252 . S
H529 C522 0.930 . S
H530 C523 0.930 . S
C531 C532 1.392 . S
C531 N535 1.328 . S
C531 H537 0.930 . S
C532 C531 1.392 . S
C532 N536 1.331 . S
C533 C534 1.391 . S
C533 N536 1.329 . S
C533 H543 0.930 . S
C534 C533 1.391 . S
C534 N535 1.334 . S
C534 H541 0.930 . S
N535 Zn519 2.119 . S
N535 C531 1.328 . S
N535 C534 1.334 . S
N536 C532 1.331 . S
N536 C533 1.329 . S
H537 C531 0.930 . S
C538 O518 1.257 1_455 S
C538 O539 1.244 1_455 S
O539 C538 1.244 1_655 S
O540 C516 1.257 . S
O540 Zn519 2.019 . S
H541 C534 0.930 . S
H542 C521 0.930 . S
H543 C533 0.930 . S
C28 C6 1.416 . S
C62 C40 1.416 . S
C96 C74 1.416 . S
C108 C130 1.416 . S
C142 C164 1.416 . S
C176 C198 1.416 . S
C210 C232 1.416 . S
C266 C244 1.416 . S
C278 C300 1.416 . S
C312 C334 1.416 . S
C346 C368 1.416 . S
C380 C402 1.416 . S
C414 C436 1.416 . S
C448 C470 1.416 . S
C504 C482 1.416 . S
C516 C538 1.416 . S
C1 C171 3.122 1_554 S
C37 C137 3.122 1_554 S
C71 C239 3.122 . S
C103 C205 3.122 . S
C139 C35 3.122 1_556 S
C173 C3 3.122 1_556 S
C105 C207 3.122 . S
C69 C241 3.122 . S
C273 C445 3.122 1_554 S
C411 C309 3.122 1_556 S
C343 C511 3.122 . S
C477 C375 3.122 . S
C307 C409 3.122 1_554 S
C443 C275 3.122 1_556 S
C479 C377 3.122 . S
C513 C341 3.122 . S
C22 C49 1.573 1_545 S
C124 C83 1.573 1_545 S
C151 C185 1.573 1_565 S
C253 C219 1.574 1_565 S
C321 C294 1.573 . S
C355 C396 1.573 . S
C430 C464 1.573 . S
C491 C525 1.573 . S
C15 C328 2.795 1_655 S
C56 C287 2.795 . S
C389 C90 2.796 . S
C362 C117 2.796 1_655 S
C158 C457 2.796 1_455 S
C192 C423 2.795 . S
C226 C532 2.796 . S
C498 C260 2.795 1_455 S
C119 C17 2.010 1_655 S
C51 C85 2.010 . S
C255 C153 2.010 1_455 S
C187 C221 2.010 . S
C289 C391 2.010 . S
C323 C357 2.010 1_655 S
C527 C425 2.010 . S
C493 C459 2.010 1_655 S
