# Generated by pormake.
# Topology sod, (4)-cn, num edge types: 1
# Building blocks:
#     Node 0, Type 0, BuildingBlock: QUQFOY_clean_sbu_3, # of connection points: 4
#     Node 1, Type 0, BuildingBlock: QUQFOY_clean_sbu_3, # of connection points: 4
#     Node 2, Type 0, BuildingBlock: QUQFOY_clean_sbu_3, # of connection points: 4
#     Node 3, Type 0, BuildingBlock: QUQFOY_clean_sbu_3, # of connection points: 4
#     Node 4, Type 0, BuildingBlock: QUQFOY_clean_sbu_3, # of connection points: 4
#     Node 5, Type 0, BuildingBlock: QUQFOY_clean_sbu_3, # of connection points: 4
#     Node 6, Type 0, BuildingBlock: QUQFOY_clean_sbu_3, # of connection points: 4
#     Node 7, Type 0, BuildingBlock: QUQFOY_clean_sbu_3, # of connection points: 4
#     Node 8, Type 0, BuildingBlock: QUQFOY_clean_sbu_3, # of connection points: 4
#     Node 9, Type 0, BuildingBlock: QUQFOY_clean_sbu_3, # of connection points: 4
#     Node 10, Type 0, BuildingBlock: QUQFOY_clean_sbu_3, # of connection points: 4
#     Node 11, Type 0, BuildingBlock: QUQFOY_clean_sbu_3, # of connection points: 4
#     Edge 12, Type (0, 0), BuildingBlock: CIFDUS_clean_linker_0, # of connection points: 2
#     Edge 13, Type (0, 0), BuildingBlock: CIFDUS_clean_linker_0, # of connection points: 2
#     Edge 14, Type (0, 0), BuildingBlock: CIFDUS_clean_linker_0, # of connection points: 2
#     Edge 15, Type (0, 0), BuildingBlock: CIFDUS_clean_linker_0, # of connection points: 2
#     Edge 16, Type (0, 0), BuildingBlock: CIFDUS_clean_linker_0, # of connection points: 2
#     Edge 17, Type (0, 0), BuildingBlock: CIFDUS_clean_linker_0, # of connection points: 2
#     Edge 18, Type (0, 0), BuildingBlock: CIFDUS_clean_linker_0, # of connection points: 2
#     Edge 19, Type (0, 0), BuildingBlock: CIFDUS_clean_linker_0, # of connection points: 2
#     Edge 20, Type (0, 0), BuildingBlock: CIFDUS_clean_linker_0, # of connection points: 2
#     Edge 21, Type (0, 0), BuildingBlock: CIFDUS_clean_linker_0, # of connection points: 2
#     Edge 22, Type (0, 0), BuildingBlock: CIFDUS_clean_linker_0, # of connection points: 2
#     Edge 23, Type (0, 0), BuildingBlock: CIFDUS_clean_linker_0, # of connection points: 2
#     Edge 24, Type (0, 0), BuildingBlock: CIFDUS_clean_linker_0, # of connection points: 2
#     Edge 25, Type (0, 0), BuildingBlock: CIFDUS_clean_linker_0, # of connection points: 2
#     Edge 26, Type (0, 0), BuildingBlock: CIFDUS_clean_linker_0, # of connection points: 2
#     Edge 27, Type (0, 0), BuildingBlock: CIFDUS_clean_linker_0, # of connection points: 2
#     Edge 28, Type (0, 0), BuildingBlock: CIFDUS_clean_linker_0, # of connection points: 2
#     Edge 29, Type (0, 0), BuildingBlock: CIFDUS_clean_linker_0, # of connection points: 2
#     Edge 30, Type (0, 0), BuildingBlock: CIFDUS_clean_linker_0, # of connection points: 2
#     Edge 31, Type (0, 0), BuildingBlock: CIFDUS_clean_linker_0, # of connection points: 2
#     Edge 32, Type (0, 0), BuildingBlock: CIFDUS_clean_linker_0, # of connection points: 2
#     Edge 33, Type (0, 0), BuildingBlock: CIFDUS_clean_linker_0, # of connection points: 2
#     Edge 34, Type (0, 0), BuildingBlock: CIFDUS_clean_linker_0, # of connection points: 2
#     Edge 35, Type (0, 0), BuildingBlock: CIFDUS_clean_linker_0, # of connection points: 2
# Relax obj value: 0.139
# Max RMSD: 0.178
# Mean RMSD: 0.168
data_MOF--net-sod--node1-QUQFOY_clean_sbu_3--edge1-CIFDUS_clean_linker_0
_symmetry_space_group_name_H-M    P1
_symmetry_Int_Tables_number       1
_symmetry_cell_setting            triclinic
loop_
_symmetry_equiv_pos_as_xyz
'x, y, z'
_cell_length_a     38.357728
_cell_length_b     39.169458
_cell_length_c     38.757341
_cell_angle_alpha  93.086502
_cell_angle_beta   89.919173
_cell_angle_gamma 91.437287
loop_
_atom_site_label
_atom_site_type_symbol
_atom_site_fract_x
_atom_site_fract_y
_atom_site_fract_z
_atom_type_partial_charge
C0 C 0.95935 0.18314 0.51141 0.0
O1 O 0.96986 0.18948 0.54219 0.0
Cd2 Cd 0.01041 0.23325 0.56011 0.0
O3 O 0.97162 0.20008 0.48666 0.0
Cd4 Cd 0.01691 0.24699 0.48216 0.0
C5 C 0.07983 0.19981 0.51713 0.0
O6 O -0.01047 0.27956 0.52859 0.0
O7 O 0.03934 0.3004 0.51402 0.0
O8 O 0.98548 0.26421 0.43112 0.0
C9 C 0.01103 0.30444 0.53047 0.0
O10 O 0.06692 0.20848 0.54646 0.0
C11 C 0.01263 0.27308 0.41471 0.0
O12 O 0.06549 0.20872 0.48956 0.0
O13 O 0.04171 0.26817 0.42895 0.0
C14 C 0.68864 0.02448 0.44207 0.0
O15 O 0.69192 0.0557 0.45241 0.0
Cd16 Cd 0.72758 0.07353 0.50081 0.0
O17 O 0.70501 0.00156 0.45712 0.0
Cd18 Cd 0.74689 -0.00255 0.50535 0.0
C19 C 0.68815 0.02689 0.56316 0.0
O20 O 0.78262 0.04685 0.49037 0.0
O21 O 0.79327 0.0267 0.53981 0.0
O22 O 0.77209 0.9515 0.46961 0.0
C23 C 0.80232 0.0466 0.51651 0.0
O24 O 0.69495 0.05609 0.55147 0.0
C25 C 0.77772 0.93235 0.49429 0.0
O26 O 0.70216 0.00026 0.54975 0.0
O27 O 0.76787 0.94299 0.52416 0.0
C28 C 0.91199 0.78112 0.49095 0.0
O29 O 0.91958 0.77344 0.45964 0.0
Cd30 Cd 0.96325 0.73545 0.43963 0.0
O31 O 0.92866 0.7683 0.51546 0.0
Cd32 Cd 0.97779 0.72751 0.51752 0.0
C33 C 0.03337 0.77931 0.47491 0.0
O34 O 0.95341 0.68707 0.4738 0.0
O35 O 0.00694 0.67904 0.48632 0.0
O36 O 0.95505 0.70381 0.57067 0.0
C37 C 0.9793 0.66786 0.4713 0.0
O38 O 0.01875 0.7675 0.44716 0.0
C39 C 0.98446 0.70413 0.58576 0.0
O40 O 0.02192 0.77083 0.50414 0.0
O41 O 0.01005 0.71714 0.56987 0.0
C42 C 0.29749 0.95234 0.42285 0.0
O43 O 0.29584 0.92159 0.4317 0.0
Cd44 Cd 0.26079 0.90179 0.47795 0.0
O45 O 0.27949 0.97519 0.43877 0.0
Cd46 Cd 0.23617 0.97686 0.48719 0.0
C47 C 0.29399 0.95069 0.54626 0.0
O48 O 0.20401 0.92424 0.46867 0.0
O49 O 0.19034 0.94605 0.51886 0.0
O50 O 0.2049 0.02072 0.45756 0.0
C51 C 0.18383 0.92393 0.49451 0.0
O52 O 0.29013 0.92075 0.5321 0.0
C53 C 0.20317 0.04146 0.48382 0.0
O54 O 0.2789 0.97583 0.53379 0.0
O55 O 0.21734 0.03239 0.51133 0.0
C56 C 0.55495 -0.00087 0.28466 0.0
O57 O 0.55357 0.96782 0.27432 0.0
Cd58 Cd 0.51468 0.94365 0.2318 0.0
O59 O 0.53518 0.02068 0.2714 0.0
Cd60 Cd 0.48958 0.01964 0.22525 0.0
C61 C 0.4387 0.96808 0.27256 0.0
O62 O 0.52043 0.98109 0.18555 0.0
O63 O 0.46658 -0.01287 0.17301 0.0
O64 O 0.51316 0.07509 0.20931 0.0
C65 C 0.49589 0.97518 0.16423 0.0
O66 O 0.45848 0.94419 0.26161 0.0
C67 C 0.48383 0.0883 0.20428 0.0
O68 O 0.44493 -0.00115 0.26488 0.0
O69 O 0.45693 0.07004 0.21044 0.0
C70 C 0.06409 0.52836 0.19966 0.0
O71 O 0.04859 0.55574 0.20844 0.0
Cd72 Cd 0.00388 0.56134 0.25002 0.0
O73 O 0.05547 0.50021 0.21303 0.0
Cd74 Cd 0.01112 0.48379 0.25769 0.0
C75 C 0.94274 0.50845 0.21017 0.0
O76 O 0.02865 0.53148 0.29611 0.0
O77 O 0.98106 0.50658 0.31132 0.0
O78 O 0.0491 0.43873 0.27679 0.0
C79 C 0.00603 0.52732 0.3192 0.0
O80 O 0.95088 0.53897 0.22059 0.0
C81 C 0.02443 0.41694 0.28032 0.0
O82 O 0.96146 0.48382 0.21837 0.0
O83 O -0.00574 0.42568 0.27144 0.0
C84 C 0.536 0.04249 0.70343 0.0
O85 O 0.51952 0.06946 0.71152 0.0
Cd86 Cd 0.47123 0.07239 0.74926 0.0
O87 O 0.52716 0.01406 0.71609 0.0
Cd88 Cd 0.48169 -0.00547 0.75819 0.0
C89 C 0.41713 0.01497 0.70412 0.0
O90 O 0.49217 0.04338 0.79752 0.0
O91 O 0.44476 0.01549 0.80785 0.0
O92 O 0.52469 0.95476 0.77806 0.0
C93 C 0.4672 0.03815 0.81791 0.0
O94 O 0.4232 0.0458 0.71497 0.0
C95 C 0.50288 0.93062 0.7831 0.0
O96 O 0.43574 -0.00897 0.71434 0.0
O97 O 0.47144 0.93557 0.77494 0.0
C98 C 0.06547 0.4743 0.80091 0.0
O99 O 0.06174 0.44255 0.79297 0.0
Cd100 Cd 0.02167 0.41825 0.75166 0.0
O101 O 0.04674 0.49608 0.78662 0.0
Cd102 Cd -0.00088 0.49343 0.74243 0.0
C103 C 0.94739 0.4448 0.79237 0.0
O104 O 0.03069 0.45433 0.70428 0.0
O105 O 0.97728 0.46031 0.68985 0.0
O106 O 0.01803 0.54966 0.72312 0.0
C107 C 0.0071 0.44912 0.68184 0.0
O108 O 0.96561 0.41954 0.78199 0.0
C109 C -0.01268 0.56061 0.72014 0.0
O110 O 0.95519 0.47476 0.78331 0.0
O111 O 0.96254 0.54093 0.7291 0.0
C112 C 0.19943 0.56198 0.93807 0.0
O113 O 0.20347 0.59348 0.94704 0.0
Cd114 Cd 0.24282 0.61434 -0.0087 0.0
O115 O 0.21702 0.53947 0.95252 0.0
Cd116 Cd 0.2622 0.53749 -0.0018 0.0
C117 C 0.20705 0.57189 0.05792 0.0
O118 O 0.29597 0.5855 0.97721 0.0
O119 O 0.31236 0.56793 0.02615 0.0
O120 O 0.2865 0.48695 0.96799 0.0
C121 C 0.31846 0.58666 0.00107 0.0
O122 O 0.21323 0.60067 0.0451 0.0
C123 C 0.29003 0.47049 -0.0049 0.0
O124 O 0.22034 0.5449 0.04457 0.0
O125 O 0.27965 0.48484 0.02325 0.0
C126 C 0.40838 0.30793 0.96111 0.0
O127 O 0.42104 0.29774 0.9322 0.0
Cd128 Cd 0.46519 0.25672 0.92401 0.0
O129 O 0.41891 0.29568 -0.01095 0.0
Cd130 Cd 0.46282 0.25195 0.003 0.0
C131 C 0.5297 0.29853 0.97161 0.0
O132 O 0.44728 0.20949 0.95696 0.0
O133 O 0.49766 0.20361 0.97969 0.0
O134 O 0.42733 0.22863 0.04949 0.0
C135 C 0.47339 0.19095 0.96048 0.0
O136 O 0.51981 0.28621 0.94204 0.0
C137 C 0.45229 0.22852 0.071 0.0
O138 O 0.51206 0.2924 -0.00149 0.0
O139 O 0.48113 0.24166 0.06167 0.0
C140 C 0.80559 0.44689 0.94345 0.0
O141 O 0.8016 0.41678 0.95372 0.0
Cd142 Cd 0.76453 0.40011 -0.00045 0.0
O143 O 0.78939 0.47177 0.95826 0.0
Cd144 Cd 0.74695 0.47818 0.00751 0.0
C145 C 0.80273 0.44656 0.0663 0.0
O146 O 0.71163 0.42875 -0.01286 0.0
O147 O 0.69546 0.45158 0.036 0.0
O148 O 0.72159 0.52847 0.98178 0.0
C149 C 0.68927 0.43 0.0111 0.0
O150 O 0.79615 0.41663 0.05315 0.0
C151 C 0.72298 0.54703 0.00972 0.0
O152 O 0.78948 0.4724 0.05337 0.0
O153 O 0.73589 0.53367 0.03576 0.0
C154 C 0.4904 0.70385 0.02665 0.0
O155 O 0.50642 0.71015 0.055 0.0
Cd156 Cd 0.55159 0.75205 0.06244 0.0
O157 O 0.49872 0.7198 -0.00021 0.0
Cd158 Cd 0.54339 0.76467 -0.0149 0.0
C159 C 0.60895 0.71328 0.00691 0.0
O160 O 0.52628 0.79916 0.03505 0.0
O161 O 0.57298 0.8179 0.01096 0.0
O162 O 0.50164 0.78093 0.94133 0.0
C163 C 0.54801 0.82346 0.03182 0.0
O164 O 0.60207 0.72252 0.03809 0.0
C165 C 0.52459 0.79003 0.91981 0.0
O166 O 0.59067 0.72376 0.98243 0.0
O167 O 0.55615 0.78562 0.92789 0.0
H168 H 0.06562 0.30433 0.38085 0.0
H169 H 0.95435 0.28507 0.37731 0.0
H170 H 0.94903 0.32478 0.33127 0.0
H171 H 0.97479 0.37038 0.29782 0.0
H172 H 0.08556 0.39209 0.30371 0.0
H173 H 0.09232 0.34564 0.3426 0.0
C174 C 0.04028 0.3083 0.36956 0.0
C175 C 0.01037 0.29205 0.38279 0.0
C176 C 0.03728 0.33186 0.3437 0.0
C177 C 0.97776 0.29744 0.3678 0.0
C178 C 0.97467 0.32024 0.34153 0.0
C179 C 0.00053 0.36456 0.30706 0.0
C180 C 0.02957 0.38496 0.29818 0.0
C181 C 0.00408 0.33844 0.33014 0.0
C182 C 0.06274 0.37694 0.3103 0.0
C183 C 0.0666 0.35046 0.33268 0.0
H184 H 0.64809 0.06596 0.40568 0.0
H185 H 0.67754 0.96068 0.41168 0.0
H186 H 0.63938 0.94403 0.36314 0.0
H187 H 0.59737 0.95897 0.31972 0.0
H188 H 0.56695 0.06389 0.31353 0.0
H189 H 0.60604 0.08105 0.36151 0.0
C190 C 0.64623 0.03937 0.39636 0.0
C191 C 0.66566 0.01462 0.41239 0.0
C192 C 0.62413 0.02989 0.36845 0.0
C193 C 0.66287 0.98028 0.39994 0.0
C194 C 0.64107 0.97071 0.37214 0.0
C195 C 0.59927 -0.01434 0.3287 0.0
C196 C 0.5792 0.01009 0.31301 0.0
C197 C 0.62154 -0.00473 0.35631 0.0
C198 C 0.58207 0.04453 0.32512 0.0
C199 C 0.6044 0.05436 0.35258 0.0
H200 H 0.95089 0.5487 0.35831 0.0
H201 H 0.06298 0.55628 0.35087 0.0
H202 H 0.06502 0.5981 0.39988 0.0
H203 H 0.03471 0.63607 0.44161 0.0
H204 H 0.92234 0.63205 0.44624 0.0
H205 H 0.92058 0.58527 0.40189 0.0
C206 C 0.97572 0.55918 0.36783 0.0
C207 C 0.00671 0.54959 0.35107 0.0
C208 C 0.97663 0.58407 0.39534 0.0
C209 C 0.03875 0.56353 0.36333 0.0
C210 C 0.03996 0.58743 0.3913 0.0
C211 C 0.00989 0.62464 0.43321 0.0
C212 C 0.97873 0.63753 0.44701 0.0
C213 C 0.00902 0.59846 0.40703 0.0
C214 C 0.9467 0.62265 0.43576 0.0
C215 C 0.94566 0.59592 0.41042 0.0
H216 H 0.33204 0.90881 0.37895 0.0
H217 H 0.31526 0.01625 0.40164 0.0
H218 H 0.35582 0.03069 0.35555 0.0
H219 H 0.39829 0.0127 0.31067 0.0
H220 H 0.41469 0.90495 0.28903 0.0
H221 H 0.37179 0.89087 0.33267 0.0
C222 C 0.33712 0.93543 0.37385 0.0
C223 C 0.32081 0.96139 0.39399 0.0
C224 C 0.36043 0.94353 0.34743 0.0
C225 C 0.32752 -0.00428 0.38666 0.0
C226 C 0.35074 0.00401 0.3603 0.0
C227 C 0.3922 -0.01386 0.31523 0.0
C228 C 0.40994 0.95997 0.29665 0.0
C229 C 0.36764 0.97811 0.34075 0.0
C230 C 0.40168 0.92567 0.30299 0.0
C231 C 0.37715 0.91754 0.32803 0.0
H232 H 0.03477 0.60757 0.69827 0.0
H233 H 0.92415 0.58532 0.70312 0.0
H234 H 0.91295 0.63151 0.6652 0.0
H235 H 0.93517 0.67259 0.62431 0.0
H236 H 0.04587 0.69423 0.61874 0.0
H237 H 0.0563 0.65442 0.66365 0.0
C238 C 0.00817 0.61325 0.69156 0.0
C239 C 0.98042 0.59264 0.70304 0.0
C240 C 0.00191 0.63959 0.66933 0.0
C241 C 0.94606 0.60057 0.69441 0.0
C242 C 0.93961 0.62693 0.67259 0.0
C243 C 0.96151 0.66913 0.63341 0.0
C244 C -0.01029 0.68593 0.61777 0.0
C245 C 0.96742 0.64577 0.6589 0.0
C246 C 0.02366 0.68141 0.63012 0.0
C247 C 0.0297 0.6585 0.65571 0.0
H248 H 0.40132 0.95371 0.67008 0.0
H249 H 0.37173 0.05952 0.67778 0.0
H250 H 0.33044 0.04868 0.63049 0.0
H251 H 0.30468 0.01001 0.58516 0.0
H252 H 0.33443 0.90428 0.57692 0.0
H253 H 0.37358 0.91435 0.62621 0.0
C254 C 0.38564 0.97436 0.66166 0.0
C255 C 0.38985 0.00743 0.67747 0.0
C256 C 0.36208 0.96806 0.63415 0.0
C257 C 0.36922 0.03383 0.66611 0.0
C258 C 0.34559 0.02769 0.63897 0.0
C259 C 0.31962 -0.01091 0.59415 0.0
C260 C 0.31671 0.95648 0.57711 0.0
C261 C 0.34217 -0.00496 0.62248 0.0
C262 C 0.33616 0.92968 0.58939 0.0
C263 C 0.35861 0.9354 0.61761 0.0
H264 H 0.05917 0.34787 0.56195 0.0
H265 H 0.94852 0.32686 0.55328 0.0
H266 H 0.9371 0.37212 0.59726 0.0
H267 H 0.95871 0.41467 0.64136 0.0
H268 H 0.06953 0.43303 0.653 0.0
H269 H 0.08073 0.39214 0.6047 0.0
C270 C 0.03259 0.35357 0.56942 0.0
C271 C 0.00476 0.33405 0.55458 0.0
C272 C 0.02624 0.37902 0.59546 0.0
C273 C 0.97041 0.34145 0.5646 0.0
C274 C 0.96383 0.3673 0.58973 0.0
C275 C 0.98526 0.40998 0.63303 0.0
C276 C 0.01323 0.42665 0.65076 0.0
C277 C -0.00844 0.38579 0.60584 0.0
C278 C 0.04754 0.42025 0.63986 0.0
C279 C 0.05399 0.39689 0.61225 0.0
H280 H 0.57511 -0.00955 0.6752 0.0
H281 H 0.56329 0.09995 0.67637 0.0
H282 H 0.61009 0.10468 0.63457 0.0
H283 H 0.65294 0.07809 0.59617 0.0
H284 H 0.66519 0.96872 0.59348 0.0
H285 H 0.61992 0.96376 0.63751 0.0
C286 C 0.58288 0.01534 0.66641 0.0
C287 C 0.56547 0.04471 0.67885 0.0
C288 C 0.60991 0.018 0.64205 0.0
C289 C 0.57598 0.0768 0.66718 0.0
C290 C 0.60284 0.07962 0.64323 0.0
C291 C 0.64592 0.05313 0.60528 0.0
C292 C 0.66238 0.02385 0.59138 0.0
C293 C 0.61974 0.05041 0.63028 0.0
C294 C 0.65291 -0.00826 0.60366 0.0
C295 C 0.62696 -0.01115 0.6288 0.0
H296 H 0.37697 0.33896 0.01751 0.0
H297 H 0.38195 0.33927 0.90614 0.0
H298 H 0.34398 0.38804 0.90676 0.0
H299 H 0.31256 0.43312 0.93881 0.0
H300 H 0.30733 0.4335 0.05006 0.0
H301 H 0.34181 0.3819 0.04946 0.0
C302 C 0.36951 0.3495 -0.00664 0.0
C303 C 0.38268 0.33559 0.96191 0.0
C304 C 0.34766 0.37782 -0.00619 0.0
C305 C 0.3725 0.34951 0.93083 0.0
C306 C 0.35074 0.3775 0.93109 0.0
C307 C 0.31867 0.42174 0.96291 0.0
C308 C 0.30764 0.4373 -0.0056 0.0
C309 C 0.33869 0.39223 0.96243 0.0
C310 C 0.3156 0.4221 0.02541 0.0
C311 C 0.33541 0.39262 0.02512 0.0
H312 H 0.36975 0.59516 0.04907 0.0
H313 H 0.33679 0.62967 0.95066 0.0
H314 H 0.38793 0.66792 0.94901 0.0
H315 H 0.44136 0.69257 0.9762 0.0
H316 H 0.47348 0.65843 0.07513 0.0
H317 H 0.42347 0.61895 0.07569 0.0
C318 C 0.37376 0.61103 0.02726 0.0
C319 C 0.34947 0.60968 0.00014 0.0
C320 C 0.40313 0.63302 0.02649 0.0
C321 C 0.35507 0.63033 0.97198 0.0
C322 C 0.38433 0.65218 0.97096 0.0
C323 C 0.43756 0.67631 -0.00226 0.0
C324 C 0.4611 0.67856 0.02558 0.0
C325 C 0.40847 0.65385 -0.00185 0.0
C326 C 0.45568 0.65739 0.0534 0.0
C327 C 0.42707 0.63477 0.0538 0.0
H328 H 0.55158 0.33984 0.02683 0.0
H329 H 0.5796 0.30711 0.92248 0.0
H330 H 0.63151 0.34429 0.92599 0.0
H331 H 0.66847 0.38663 0.95802 0.0
H332 H 0.6403 0.42115 0.06169 0.0
H333 H 0.58891 0.3827 0.05909 0.0
C334 C 0.56912 0.34071 0.00492 0.0
C335 C 0.56164 0.32064 0.97444 0.0
C336 C 0.59884 0.36253 0.00693 0.0
C337 C 0.58458 0.32231 0.94621 0.0
C338 C 0.61433 0.34357 0.94819 0.0
C339 C 0.65117 0.38572 0.98013 0.0
C340 C 0.65825 0.40669 0.01003 0.0
C341 C 0.62162 0.36387 0.97832 0.0
C342 C 0.63543 0.40528 0.03835 0.0
C343 C 0.60606 0.38329 0.03688 0.0
H344 H 0.692 0.58217 0.95945 0.0
H345 H 0.72113 0.58995 0.06721 0.0
H346 H 0.69174 0.64422 0.07482 0.0
H347 H 0.65316 0.68658 0.05252 0.0
H348 H 0.62288 0.67896 0.94509 0.0
H349 H 0.65784 0.62804 0.93567 0.0
C350 C 0.69225 0.59595 0.98448 0.0
C351 C 0.70839 0.58174 0.01278 0.0
C352 C 0.67502 0.6272 -0.01118 0.0
C353 C 0.70869 0.60009 0.045 0.0
C354 C 0.69185 0.63117 0.04943 0.0
C355 C 0.65457 0.67414 0.02689 0.0
C356 C 0.63502 0.68644 -0.0003 0.0
C357 C 0.67424 0.64455 0.02175 0.0
C358 C 0.63751 0.67006 0.96659 0.0
C359 C 0.65736 0.64076 0.96119 0.0
H360 H 0.56845 0.82359 0.87737 0.0
H361 H 0.45958 0.79887 0.89352 0.0
H362 H 0.44344 0.83727 0.84889 0.0
H363 H 0.4599 0.88293 0.8105 0.0
H364 H 0.56861 0.91018 0.79717 0.0
H365 H 0.58516 0.86549 0.83511 0.0
C366 C 0.54122 0.8261 0.87068 0.0
C367 C 0.51525 0.80858 0.88896 0.0
C368 C 0.53207 0.84896 0.84568 0.0
C369 C 0.48009 0.81219 0.88 0.0
C370 C 0.47082 0.83425 0.85455 0.0
C371 C 0.48724 0.87867 0.81537 0.0
C372 C 0.51296 0.90004 0.80124 0.0
C373 C 0.49654 0.85354 0.83799 0.0
C374 C 0.54827 0.89423 0.80789 0.0
C375 C 0.55776 0.86873 0.82967 0.0
H376 H 0.18269 0.49729 0.914 0.0
H377 H 0.15787 0.60286 0.90154 0.0
H378 H 0.11429 0.58517 0.85795 0.0
H379 H 0.08279 0.53965 0.82374 0.0
H380 H 0.10796 0.4342 0.83677 0.0
H381 H 0.15175 0.45209 0.87976 0.0
C382 C 0.16784 0.51649 0.90174 0.0
C383 C 0.17357 0.55132 0.91109 0.0
C384 C 0.14277 0.5062 0.8768 0.0
C385 C 0.15402 0.57582 0.89488 0.0
C386 C 0.12904 0.56576 0.86995 0.0
C387 C 0.09784 0.52058 0.83598 0.0
C388 C 0.09199 0.48566 0.827 0.0
C389 C 0.12311 0.531 0.86078 0.0
C390 C 0.11182 0.4613 0.84312 0.0
C391 C 0.13694 0.47146 0.86775 0.0
H392 H 0.51714 0.07144 0.85594 0.0
H393 H 0.40554 0.0579 0.8474 0.0
H394 H 0.39755 0.10341 0.89245 0.0
H395 H 0.42262 0.15017 0.93062 0.0
H396 H 0.53438 0.16167 0.94057 0.0
H397 H 0.5421 0.11357 0.89868 0.0
C398 C 0.49108 0.07824 0.86427 0.0
C399 C 0.46195 0.06179 0.84822 0.0
C400 C 0.48679 0.10412 0.89018 0.0
C401 C 0.42832 0.07031 0.85945 0.0
C402 C 0.42378 0.09642 0.88502 0.0
C403 C 0.44863 0.1419 0.92379 0.0
C404 C 0.47791 0.15966 0.93821 0.0
C405 C 0.45284 0.114 0.89998 0.0
C406 C 0.51147 0.14844 0.92968 0.0
C407 C 0.51589 0.12103 0.90568 0.0
H408 H 0.90929 0.49358 0.82709 0.0
H409 H 0.92098 0.38423 0.81403 0.0
H410 H 0.87741 0.37553 0.85873 0.0
H411 H 0.8383 0.39874 0.90327 0.0
H412 H 0.82663 0.50796 0.91745 0.0
H413 H 0.86794 0.51685 0.87042 0.0
C414 C 0.90209 0.46781 0.83376 0.0
C415 C 0.91859 0.43962 0.81725 0.0
C416 C 0.87723 0.46295 0.85984 0.0
C417 C 0.90888 0.40643 0.82633 0.0
C418 C 0.88399 0.4014 0.85197 0.0
C419 C 0.84466 0.42456 0.89613 0.0
C420 C 0.82953 0.45266 0.91413 0.0
C421 C 0.86842 0.42947 0.86922 0.0
C422 C 0.83794 0.48586 0.90417 0.0
C423 C 0.86158 0.49096 0.87727 0.0
H424 H 0.42604 0.11634 0.1779 0.0
H425 H 0.53639 0.13477 0.19398 0.0
H426 H 0.5349 0.18409 0.1582 0.0
H427 H 0.50425 0.21647 0.11583 0.0
H428 H 0.39471 0.19593 0.09671 0.0
H429 H 0.39375 0.1535 0.14069 0.0
C430 C 0.44961 0.13157 0.17417 0.0
C431 C 0.48137 0.12161 0.18822 0.0
C432 C 0.44877 0.1594 0.15276 0.0
C433 C 0.51167 0.14167 0.18318 0.0
C434 C 0.51086 0.16985 0.16264 0.0
C435 C 0.47995 0.20329 0.1218 0.0
C436 C 0.44971 0.20906 0.10268 0.0
C437 C 0.47985 0.17816 0.14629 0.0
C438 C 0.41844 0.19183 0.11087 0.0
C439 C 0.41791 0.1674 0.1359 0.0
H440 H 0.91929 0.44707 0.18131 0.0
H441 H 0.89849 0.55508 0.1855 0.0
H442 H 0.85222 0.54508 0.14281 0.0
H443 H 0.81996 0.50636 0.1019 0.0
H444 H 0.84099 0.39841 0.09702 0.0
H445 H 0.8847 0.40779 0.14253 0.0
C446 C 0.90448 0.46843 0.17313 0.0
C447 C 0.91262 0.50183 0.18652 0.0
C448 C 0.87802 0.46256 0.14831 0.0
C449 C 0.89297 0.52912 0.17562 0.0
C450 C 0.8665 0.52344 0.15112 0.0
C451 C 0.83391 0.48478 0.11088 0.0
C452 C 0.8273 0.45174 0.09579 0.0
C453 C 0.85917 0.49037 0.1369 0.0
C454 C 0.84554 0.42413 0.10803 0.0
C455 C 0.87063 0.42948 0.13404 0.0
H456 H 0.4884 0.85089 0.05493 0.0
H457 H 0.59988 0.86794 0.05579 0.0
H458 H 0.59334 0.91814 0.09578 0.0
H459 H 0.55587 0.95439 0.13355 0.0
H460 H 0.44418 0.93815 0.13028 0.0
H461 H 0.45078 0.89049 0.0877 0.0
C462 C 0.51126 0.86575 0.06374 0.0
C463 C 0.54461 0.85559 0.05299 0.0
C464 C 0.5072 0.89459 0.08621 0.0
C465 C 0.57398 0.87531 0.06392 0.0
C466 C 0.57022 0.90388 0.08681 0.0
C467 C 0.53298 0.9406 0.12322 0.0
C468 C 0.49961 0.94945 0.13531 0.0
C469 C 0.53698 0.91335 0.09859 0.0
C470 C 0.47013 0.93176 0.12143 0.0
C471 C 0.47389 0.90442 0.09721 0.0
H472 H 0.18281 0.51405 0.08702 0.0
H473 H 0.17538 0.62411 0.09422 0.0
H474 H 0.13119 0.61994 0.13911 0.0
H475 H 0.09323 0.5854 0.17439 0.0
H476 H 0.09953 0.47531 0.1676 0.0
H477 H 0.14582 0.47925 0.12428 0.0
C478 C 0.17175 0.53717 0.09858 0.0
C479 C 0.18235 0.56937 0.0871 0.0
C480 C 0.14604 0.5346 0.12421 0.0
C481 C 0.16769 0.59901 0.10242 0.0
C482 C 0.14235 0.59666 0.12806 0.0
C483 C 0.10463 0.56214 0.16351 0.0
C484 C 0.09268 0.53005 0.17405 0.0
C485 C 0.13105 0.56461 0.13878 0.0
C486 C 0.10813 0.50032 0.15987 0.0
C487 C 0.13458 0.50257 0.13511 0.0
H488 H 0.80844 0.89564 0.54298 0.0
H489 H 0.7916 0.89834 0.43305 0.0
H490 H 0.82981 0.85001 0.42283 0.0
H491 H 0.87115 0.81025 0.44449 0.0
H492 H 0.89061 0.80841 0.55409 0.0
H493 H 0.84793 0.85313 0.56508 0.0
C494 C 0.81276 0.8853 0.51684 0.0
C495 C 0.79736 0.90062 0.48878 0.0
C496 C 0.83541 0.85795 0.51108 0.0
C497 C 0.8033 0.88711 0.45505 0.0
C498 C 0.82519 0.85953 0.44918 0.0
C499 C 0.86602 0.8194 0.47087 0.0
C500 C 0.88436 0.80619 0.4984 0.0
C501 C 0.84194 0.8453 0.47692 0.0
C502 C 0.87702 0.81823 0.53239 0.0
C503 C 0.85265 0.84383 0.53869 0.0
H504 H 0.9343 0.13844 0.55671 0.0
H505 H 0.92116 0.1691 0.45224 0.0
H506 H 0.87152 0.12896 0.44444 0.0
H507 H 0.83044 0.08704 0.46834 0.0
H508 H 0.84426 0.05693 0.57291 0.0
H509 H 0.89515 0.09531 0.57964 0.0
C510 C 0.92074 0.13634 0.53212 0.0
C511 C 0.93129 0.15695 0.50517 0.0
C512 C 0.89222 0.11352 0.52794 0.0
C513 C 0.91358 0.15355 0.47341 0.0
C514 C 0.88511 0.13072 0.46899 0.0
C515 C 0.84461 0.08889 0.4926 0.0
C516 C 0.83345 0.06939 0.5202 0.0
C517 C 0.87394 0.11092 0.49626 0.0
C518 C 0.85224 0.07177 0.55134 0.0
C519 C 0.88134 0.09368 0.5552 0.0
H520 H 0.05978 0.82154 0.52701 0.0
H521 H 0.07374 0.7928 0.41887 0.0
H522 H 0.1219 0.83449 0.41565 0.0
H523 H 0.15948 0.8797 0.44327 0.0
H524 H 0.14405 0.91002 0.5508 0.0
H525 H 0.097 0.86713 0.5545 0.0
C526 C 0.07347 0.82424 0.50277 0.0
C527 C 0.0632 0.80396 0.47325 0.0
C528 C 0.1008 0.84864 0.50096 0.0
C529 C 0.08103 0.80809 0.44197 0.0
C530 C 0.1086 0.83192 0.4401 0.0
C531 C 0.14588 0.87687 0.46754 0.0
C532 C 0.15532 0.89797 0.49674 0.0
C533 C 0.1186 0.85243 0.46938 0.0
C534 C 0.13728 0.89414 0.52793 0.0
C535 C 0.1104 0.86958 0.53008 0.0
H536 H 0.10342 0.16344 0.46033 0.0
H537 H 0.12165 0.18157 0.56977 0.0
H538 H 0.1638 0.13588 0.5684 0.0
H539 H 0.19124 0.08736 0.53736 0.0
H540 H 0.17119 0.06764 0.42847 0.0
H541 H 0.13418 0.11748 0.4284 0.0
C542 C 0.11702 0.15782 0.48379 0.0
C543 C 0.10914 0.1758 0.51516 0.0
C544 C 0.14066 0.13096 0.48301 0.0
C545 C 0.127 0.16803 0.54531 0.0
C546 C 0.15106 0.14182 0.54458 0.0
C547 C 0.1791 0.09417 0.51351 0.0
C548 C 0.18374 0.07361 0.48304 0.0
C549 C 0.15741 0.12254 0.51377 0.0
C550 C 0.16789 0.08288 0.45235 0.0
C551 C 0.14668 0.11138 0.45229 0.0
loop_
_geom_bond_atom_site_label_1
_geom_bond_atom_site_label_2
_geom_bond_distance
_geom_bond_site_symmetry_2
_ccdc_geom_bond_type
C0 O1 1.306 . S
C0 O3 1.160 . S
O1 C0 1.306 . S
O1 Cd2 2.228 . S
Cd2 O1 2.228 . S
Cd2 O6 2.273 . S
Cd2 O10 2.277 1_655 S
O3 C0 1.160 . S
O3 Cd4 2.203 1_655 S
Cd4 O3 2.203 1_455 S
Cd4 O6 2.411 1_455 S
Cd4 O7 2.333 . S
Cd4 O8 2.352 1_455 S
Cd4 O12 2.277 . S
Cd4 O13 2.356 . S
C5 O10 1.209 . S
C5 O12 1.226 . S
O6 Cd2 2.273 . S
O6 Cd4 2.411 1_655 S
O6 C9 1.320 1_655 S
O7 Cd4 2.333 . S
O7 C9 1.214 . S
O8 Cd4 2.352 1_655 S
O8 C11 1.258 . S
C9 O6 1.320 1_455 S
C9 O7 1.214 . S
O10 Cd2 2.277 1_455 S
O10 C5 1.209 . S
C11 O8 1.258 . S
C11 O13 1.282 1_655 S
O12 Cd4 2.277 . S
O12 C5 1.226 . S
O13 Cd4 2.356 . S
O13 C11 1.282 1_455 S
C14 O15 1.306 . S
C14 O17 1.160 1_545 S
O15 C14 1.306 . S
O15 Cd16 2.228 . S
Cd16 O15 2.228 . S
Cd16 O20 2.273 . S
Cd16 O24 2.277 . S
O17 C14 1.160 1_565 S
O17 Cd18 2.203 1_565 S
Cd18 O17 2.203 1_545 S
Cd18 O20 2.411 . S
Cd18 O21 2.333 . S
Cd18 O22 2.352 1_545 S
Cd18 O26 2.277 1_545 S
Cd18 O27 2.356 1_545 S
C19 O24 1.209 . S
C19 O26 1.226 1_545 S
O20 Cd16 2.273 . S
O20 Cd18 2.411 . S
O20 C23 1.320 . S
O21 Cd18 2.333 . S
O21 C23 1.214 . S
O22 Cd18 2.352 1_565 S
O22 C25 1.258 . S
C23 O20 1.320 . S
C23 O21 1.214 . S
O24 Cd16 2.277 . S
O24 C19 1.209 . S
C25 O22 1.258 . S
C25 O27 1.282 . S
O26 Cd18 2.277 1_565 S
O26 C19 1.226 1_565 S
O27 Cd18 2.356 1_565 S
O27 C25 1.282 . S
C28 O29 1.306 . S
C28 O31 1.160 . S
O29 C28 1.306 . S
O29 Cd30 2.228 1_655 S
Cd30 O29 2.228 1_455 S
Cd30 O34 2.273 . S
Cd30 O38 2.277 . S
O31 C28 1.160 . S
O31 Cd32 2.203 1_655 S
Cd32 O31 2.203 1_455 S
Cd32 O34 2.411 . S
Cd32 O35 2.333 . S
Cd32 O36 2.352 1_455 S
Cd32 O40 2.277 . S
Cd32 O41 2.356 . S
C33 O38 1.209 . S
C33 O40 1.226 . S
O34 Cd30 2.273 . S
O34 Cd32 2.411 . S
O34 C37 1.320 . S
O35 Cd32 2.333 . S
O35 C37 1.214 . S
O36 Cd32 2.352 1_655 S
O36 C39 1.258 1_655 S
C37 O34 1.320 . S
C37 O35 1.214 . S
O38 Cd30 2.277 . S
O38 C33 1.209 . S
C39 O36 1.258 1_455 S
C39 O41 1.282 . S
O40 Cd32 2.277 . S
O40 C33 1.226 . S
O41 Cd32 2.356 . S
O41 C39 1.282 . S
C42 O43 1.306 1_545 S
C42 O45 1.160 . S
O43 C42 1.306 1_565 S
O43 Cd44 2.228 . S
Cd44 O43 2.228 . S
Cd44 O48 2.273 . S
Cd44 O52 2.277 . S
O45 C42 1.160 . S
O45 Cd46 2.203 . S
Cd46 O45 2.203 . S
Cd46 O48 2.411 1_545 S
Cd46 O49 2.333 1_545 S
Cd46 O50 2.352 . S
Cd46 O54 2.277 . S
Cd46 O55 2.356 . S
C47 O52 1.209 1_545 S
C47 O54 1.226 . S
O48 Cd44 2.273 . S
O48 Cd46 2.411 1_565 S
O48 C51 1.320 . S
O49 Cd46 2.333 1_565 S
O49 C51 1.214 . S
O50 Cd46 2.352 . S
O50 C53 1.258 . S
C51 O48 1.320 . S
C51 O49 1.214 . S
O52 Cd44 2.277 . S
O52 C47 1.209 1_565 S
C53 O50 1.258 . S
C53 O55 1.282 . S
O54 Cd46 2.277 . S
O54 C47 1.226 . S
O55 Cd46 2.356 . S
O55 C53 1.282 . S
C56 O57 1.306 1_545 S
C56 O59 1.160 . S
O57 C56 1.306 1_565 S
O57 Cd58 2.228 . S
Cd58 O57 2.228 . S
Cd58 O62 2.273 . S
Cd58 O66 2.277 . S
O59 C56 1.160 . S
O59 Cd60 2.203 . S
Cd60 O59 2.203 . S
Cd60 O62 2.411 1_545 S
Cd60 O63 2.333 1_545 S
Cd60 O64 2.352 . S
Cd60 O68 2.277 . S
Cd60 O69 2.356 . S
C61 O66 1.197 1_545 S
C61 O68 1.241 . S
O62 Cd58 2.273 . S
O62 Cd60 2.411 1_565 S
O62 C65 1.320 . S
O63 Cd60 2.333 1_565 S
O63 C65 1.214 . S
O64 Cd60 2.352 . S
O64 C67 1.258 . S
C65 O62 1.320 . S
C65 O63 1.214 . S
O66 Cd58 2.277 . S
O66 C61 1.197 1_565 S
C67 O64 1.258 . S
C67 O69 1.282 . S
O68 Cd60 2.277 . S
O68 C61 1.241 . S
O69 Cd60 2.356 . S
O69 C67 1.282 . S
C70 O71 1.306 . S
C70 O73 1.160 . S
O71 C70 1.306 . S
O71 Cd72 2.228 . S
Cd72 O71 2.228 . S
Cd72 O76 2.273 . S
Cd72 O80 2.277 1_455 S
O73 C70 1.160 . S
O73 Cd74 2.203 . S
Cd74 O73 2.203 . S
Cd74 O76 2.411 . S
Cd74 O77 2.333 1_455 S
Cd74 O78 2.352 . S
Cd74 O82 2.277 1_455 S
Cd74 O83 2.356 1_455 S
C75 O80 1.209 . S
C75 O82 1.226 . S
O76 Cd72 2.273 . S
O76 Cd74 2.411 . S
O76 C79 1.320 . S
O77 Cd74 2.333 1_655 S
O77 C79 1.214 1_655 S
O78 Cd74 2.352 . S
O78 C81 1.258 . S
C79 O76 1.320 . S
C79 O77 1.214 1_455 S
O80 Cd72 2.277 1_655 S
O80 C75 1.209 . S
C81 O78 1.258 . S
C81 O83 1.282 1_455 S
O82 Cd74 2.277 1_655 S
O82 C75 1.226 . S
O83 Cd74 2.356 1_655 S
O83 C81 1.282 1_655 S
C84 O85 1.306 . S
C84 O87 1.160 1_545 S
O85 C84 1.306 . S
O85 Cd86 2.228 . S
Cd86 O85 2.228 . S
Cd86 O90 2.273 . S
Cd86 O94 2.277 . S
O87 C84 1.160 1_565 S
O87 Cd88 2.203 1_565 S
Cd88 O87 2.203 1_545 S
Cd88 O90 2.411 . S
Cd88 O91 2.333 . S
Cd88 O92 2.352 1_545 S
Cd88 O96 2.277 . S
Cd88 O97 2.356 1_545 S
C89 O94 1.209 . S
C89 O96 1.226 . S
O90 Cd86 2.273 . S
O90 Cd88 2.411 . S
O90 C93 1.320 . S
O91 Cd88 2.333 . S
O91 C93 1.214 . S
O92 Cd88 2.352 1_565 S
O92 C95 1.258 . S
C93 O90 1.320 . S
C93 O91 1.214 . S
O94 Cd86 2.277 . S
O94 C89 1.209 . S
C95 O92 1.258 . S
C95 O97 1.282 . S
O96 Cd88 2.277 . S
O96 C89 1.226 . S
O97 Cd88 2.356 1_565 S
O97 C95 1.282 . S
C98 O99 1.306 . S
C98 O101 1.160 . S
O99 C98 1.306 . S
O99 Cd100 2.228 . S
Cd100 O99 2.228 . S
Cd100 O104 2.273 . S
Cd100 O108 2.277 1_455 S
O101 C98 1.160 . S
O101 Cd102 2.203 . S
Cd102 O101 2.203 . S
Cd102 O104 2.411 . S
Cd102 O105 2.333 1_455 S
Cd102 O106 2.352 . S
Cd102 O110 2.277 1_455 S
Cd102 O111 2.356 1_455 S
C103 O108 1.209 . S
C103 O110 1.226 . S
O104 Cd100 2.273 . S
O104 Cd102 2.411 . S
O104 C107 1.309 1_455 S
O105 Cd102 2.333 1_655 S
O105 C107 1.223 . S
O106 Cd102 2.352 . S
O106 C109 1.258 . S
C107 O104 1.309 1_655 S
C107 O105 1.223 . S
O108 Cd100 2.277 1_655 S
O108 C103 1.209 . S
C109 O106 1.258 . S
C109 O111 1.282 1_455 S
O110 Cd102 2.277 1_655 S
O110 C103 1.226 . S
O111 Cd102 2.356 1_655 S
O111 C109 1.282 1_655 S
C112 O113 1.306 . S
C112 O115 1.160 . S
O113 C112 1.306 . S
O113 Cd114 2.228 . S
Cd114 O113 2.228 . S
Cd114 O118 2.274 . S
Cd114 O122 2.277 1_556 S
O115 C112 1.160 . S
O115 Cd116 2.203 1_556 S
Cd116 O115 2.203 1_554 S
Cd116 O118 2.403 1_554 S
Cd116 O119 2.333 . S
Cd116 O120 2.352 1_554 S
Cd116 O124 2.277 . S
Cd116 O125 2.356 . S
C117 O122 1.209 . S
C117 O124 1.226 . S
O118 Cd114 2.274 . S
O118 Cd116 2.403 1_556 S
O118 C121 1.303 1_556 S
O119 Cd116 2.333 . S
O119 C121 1.214 . S
O120 Cd116 2.352 1_556 S
O120 C123 1.242 1_556 S
C121 O118 1.303 1_554 S
C121 O119 1.214 . S
O122 Cd114 2.277 1_554 S
O122 C117 1.209 . S
C123 O120 1.242 1_554 S
C123 O125 1.304 . S
O124 Cd116 2.277 . S
O124 C117 1.226 . S
O125 Cd116 2.356 . S
O125 C123 1.304 . S
C126 O127 1.306 1_554 S
C126 O129 1.160 . S
O127 C126 1.306 1_556 S
O127 Cd128 2.228 . S
Cd128 O127 2.228 . S
Cd128 O132 2.273 . S
Cd128 O136 2.277 . S
O129 C126 1.160 . S
O129 Cd130 2.203 . S
Cd130 O129 2.203 . S
Cd130 O132 2.411 1_554 S
Cd130 O133 2.333 1_554 S
Cd130 O134 2.352 . S
Cd130 O138 2.277 . S
Cd130 O139 2.356 . S
C131 O136 1.209 . S
C131 O138 1.226 1_556 S
O132 Cd128 2.273 . S
O132 Cd130 2.411 1_556 S
O132 C135 1.320 . S
O133 Cd130 2.333 1_556 S
O133 C135 1.214 . S
O134 Cd130 2.352 . S
O134 C137 1.258 . S
C135 O132 1.320 . S
C135 O133 1.214 . S
O136 Cd128 2.277 . S
O136 C131 1.209 . S
C137 O134 1.258 . S
C137 O139 1.282 . S
O138 Cd130 2.277 . S
O138 C131 1.226 1_554 S
O139 Cd130 2.356 . S
O139 C137 1.282 . S
C140 O141 1.306 . S
C140 O143 1.160 . S
O141 C140 1.306 . S
O141 Cd142 2.228 . S
Cd142 O141 2.228 . S
Cd142 O146 2.273 . S
Cd142 O150 2.277 1_556 S
O143 C140 1.160 . S
O143 Cd144 2.203 1_556 S
Cd144 O143 2.203 1_554 S
Cd144 O146 2.411 1_554 S
Cd144 O147 2.333 . S
Cd144 O148 2.352 1_554 S
Cd144 O152 2.277 . S
Cd144 O153 2.356 . S
C145 O150 1.209 . S
C145 O152 1.226 . S
O146 Cd142 2.273 . S
O146 Cd144 2.411 1_556 S
O146 C149 1.320 1_556 S
O147 Cd144 2.333 . S
O147 C149 1.214 . S
O148 Cd144 2.352 1_556 S
O148 C151 1.258 1_556 S
C149 O146 1.320 1_554 S
C149 O147 1.214 . S
O150 Cd142 2.277 1_554 S
O150 C145 1.209 . S
C151 O148 1.258 1_554 S
C151 O153 1.282 . S
O152 Cd144 2.277 . S
O152 C145 1.226 . S
O153 Cd144 2.356 . S
O153 C151 1.282 . S
C154 O155 1.306 . S
C154 O157 1.160 1_554 S
O155 C154 1.306 . S
O155 Cd156 2.228 . S
Cd156 O155 2.228 . S
Cd156 O160 2.273 . S
Cd156 O164 2.277 . S
O157 C154 1.160 1_556 S
O157 Cd158 2.203 1_556 S
Cd158 O157 2.203 1_554 S
Cd158 O160 2.411 . S
Cd158 O161 2.333 . S
Cd158 O162 2.352 1_554 S
Cd158 O166 2.277 . S
Cd158 O167 2.356 1_554 S
C159 O164 1.209 . S
C159 O166 1.225 . S
O160 Cd156 2.273 . S
O160 Cd158 2.411 . S
O160 C163 1.320 . S
O161 Cd158 2.333 . S
O161 C163 1.214 . S
O162 Cd158 2.352 1_556 S
O162 C165 1.258 . S
C163 O160 1.320 . S
C163 O161 1.214 . S
O164 Cd156 2.277 . S
O164 C159 1.209 . S
C165 O162 1.258 . S
C165 O167 1.282 . S
O166 Cd158 2.277 . S
O166 C159 1.225 . S
O167 Cd158 2.356 1_556 S
O167 C165 1.282 . S
H168 C174 0.930 . S
H169 C177 0.930 . S
H170 C178 0.930 . S
H171 C179 0.930 . S
H172 C182 0.930 . S
H173 C183 0.930 . S
C174 H168 0.930 . S
C174 C175 1.355 1_455 S
C174 C176 1.415 . S
C175 C174 1.355 1_655 S
C175 C177 1.419 . S
C176 C174 1.415 . S
C176 C181 1.425 1_455 S
C176 C183 1.409 . S
C177 H169 0.930 . S
C177 C175 1.419 . S
C177 C178 1.362 . S
C178 H170 0.930 . S
C178 C177 1.362 . S
C178 C181 1.409 . S
C179 H171 0.930 . S
C179 C180 1.355 1_655 S
C179 C181 1.415 . S
C180 C179 1.355 1_455 S
C180 C182 1.419 . S
C181 C176 1.425 1_655 S
C181 C178 1.409 . S
C181 C179 1.415 . S
C182 H172 0.930 . S
C182 C180 1.419 . S
C182 C183 1.362 . S
C183 H173 0.930 . S
C183 C176 1.409 . S
C183 C182 1.362 . S
H184 C190 0.930 . S
H185 C193 0.930 . S
H186 C194 0.930 . S
H187 C195 0.930 1_565 S
H188 C198 0.930 . S
H189 C199 0.930 . S
C190 H184 0.930 . S
C190 C191 1.351 1_545 S
C190 C192 1.415 . S
C191 C190 1.351 1_565 S
C191 C193 1.422 . S
C192 C190 1.415 . S
C192 C197 1.425 . S
C192 C199 1.409 . S
C193 H185 0.930 . S
C193 C191 1.422 . S
C193 C194 1.362 . S
C194 H186 0.930 . S
C194 C193 1.362 . S
C194 C197 1.409 1_565 S
C195 H187 0.930 1_545 S
C195 C196 1.355 . S
C195 C197 1.415 . S
C196 C195 1.355 . S
C196 C198 1.419 . S
C197 C192 1.425 . S
C197 C194 1.409 1_545 S
C197 C195 1.415 . S
C198 H188 0.930 . S
C198 C196 1.419 . S
C198 C199 1.362 . S
C199 H189 0.930 . S
C199 C192 1.409 . S
C199 C198 1.362 . S
H200 C206 0.930 . S
H201 C209 0.930 . S
H202 C210 0.930 . S
H203 C211 0.930 . S
H204 C214 0.930 . S
H205 C215 0.930 . S
C206 H200 0.930 . S
C206 C207 1.355 1_655 S
C206 C208 1.415 1_655 S
C207 C206 1.355 1_455 S
C207 C209 1.419 . S
C208 C206 1.415 1_455 S
C208 C213 1.425 . S
C208 C215 1.409 1_455 S
C209 H201 0.930 . S
C209 C207 1.419 . S
C209 C210 1.362 . S
C210 H202 0.930 . S
C210 C209 1.362 . S
C210 C213 1.409 . S
C211 H203 0.930 . S
C211 C212 1.355 . S
C211 C213 1.415 . S
C212 C211 1.355 . S
C212 C214 1.419 1_455 S
C213 C208 1.425 . S
C213 C210 1.409 . S
C213 C211 1.415 . S
C214 H204 0.930 . S
C214 C212 1.419 1_655 S
C214 C215 1.362 . S
C215 H205 0.930 . S
C215 C208 1.409 1_655 S
C215 C214 1.362 . S
H216 C222 0.930 . S
H217 C225 0.930 . S
H218 C226 0.930 . S
H219 C227 0.930 . S
H220 C230 0.930 . S
H221 C231 0.930 . S
C222 H216 0.930 . S
C222 C223 1.355 . S
C222 C224 1.415 . S
C223 C222 1.355 . S
C223 C225 1.419 . S
C224 C222 1.415 . S
C224 C229 1.425 . S
C224 C231 1.409 1_545 S
C225 H217 0.930 . S
C225 C223 1.419 . S
C225 C226 1.362 . S
C226 H218 0.930 . S
C226 C225 1.362 . S
C226 C229 1.409 . S
C227 H219 0.930 . S
C227 C228 1.355 . S
C227 C229 1.415 . S
C228 C227 1.355 . S
C228 C230 1.419 1_545 S
C229 C224 1.425 . S
C229 C226 1.409 . S
C229 C227 1.415 . S
C230 H220 0.930 . S
C230 C228 1.419 1_565 S
C230 C231 1.362 . S
C231 H221 0.930 . S
C231 C224 1.409 1_565 S
C231 C230 1.362 . S
H232 C238 0.930 . S
H233 C241 0.930 . S
H234 C242 0.930 . S
H235 C243 0.930 . S
H236 C246 0.930 . S
H237 C247 0.930 . S
C238 H232 0.930 . S
C238 C239 1.355 . S
C238 C240 1.415 . S
C239 C238 1.355 . S
C239 C241 1.419 1_455 S
C240 C238 1.415 . S
C240 C245 1.425 1_455 S
C240 C247 1.409 . S
C241 H233 0.930 . S
C241 C239 1.419 1_655 S
C241 C242 1.362 . S
C242 H234 0.930 . S
C242 C241 1.362 . S
C242 C245 1.409 . S
C243 H235 0.930 . S
C243 C244 1.355 1_655 S
C243 C245 1.415 . S
C244 C243 1.355 1_455 S
C244 C246 1.419 . S
C245 C240 1.425 1_655 S
C245 C242 1.409 . S
C245 C243 1.415 . S
C246 H236 0.930 . S
C246 C244 1.419 . S
C246 C247 1.362 . S
C247 H237 0.930 . S
C247 C240 1.409 . S
C247 C246 1.362 . S
H248 C254 0.930 . S
H249 C257 0.930 . S
H250 C258 0.930 . S
H251 C259 0.930 . S
H252 C262 0.930 . S
H253 C263 0.930 . S
C254 H248 0.930 . S
C254 C255 1.355 . S
C254 C256 1.415 . S
C255 C254 1.355 . S
C255 C257 1.419 . S
C256 C254 1.415 . S
C256 C261 1.425 . S
C256 C263 1.409 . S
C257 H249 0.930 . S
C257 C255 1.419 . S
C257 C258 1.362 . S
C258 H250 0.930 . S
C258 C257 1.362 . S
C258 C261 1.409 . S
C259 H251 0.930 . S
C259 C260 1.355 . S
C259 C261 1.415 . S
C260 C259 1.355 . S
C260 C262 1.419 . S
C261 C256 1.425 . S
C261 C258 1.409 . S
C261 C259 1.415 . S
C262 H252 0.930 . S
C262 C260 1.419 . S
C262 C263 1.362 . S
C263 H253 0.930 . S
C263 C256 1.409 . S
C263 C262 1.362 . S
H264 C270 0.930 . S
H265 C273 0.930 . S
H266 C274 0.930 . S
H267 C275 0.930 . S
H268 C278 0.930 . S
H269 C279 0.930 . S
C270 H264 0.930 . S
C270 C271 1.355 . S
C270 C272 1.415 . S
C271 C270 1.355 . S
C271 C273 1.419 1_455 S
C272 C270 1.415 . S
C272 C277 1.425 1_455 S
C272 C279 1.409 . S
C273 H265 0.930 . S
C273 C271 1.419 1_655 S
C273 C274 1.362 . S
C274 H266 0.930 . S
C274 C273 1.362 . S
C274 C277 1.409 . S
C275 H267 0.930 . S
C275 C276 1.355 1_655 S
C275 C277 1.415 . S
C276 C275 1.355 1_455 S
C276 C278 1.419 . S
C277 C272 1.425 1_655 S
C277 C274 1.409 . S
C277 C275 1.415 . S
C278 H268 0.930 . S
C278 C276 1.419 . S
C278 C279 1.362 . S
C279 H269 0.930 . S
C279 C272 1.409 . S
C279 C278 1.362 . S
H280 C286 0.930 . S
H281 C289 0.930 . S
H282 C290 0.930 . S
H283 C291 0.930 . S
H284 C294 0.930 . S
H285 C295 0.930 . S
C286 H280 0.930 . S
C286 C287 1.355 1_565 S
C286 C288 1.415 1_565 S
C287 C286 1.355 1_545 S
C287 C289 1.419 . S
C288 C286 1.415 1_545 S
C288 C293 1.425 . S
C288 C295 1.409 1_545 S
C289 H281 0.930 . S
C289 C287 1.419 . S
C289 C290 1.362 . S
C290 H282 0.930 . S
C290 C289 1.362 . S
C290 C293 1.409 . S
C291 H283 0.930 . S
C291 C292 1.355 . S
C291 C293 1.415 . S
C292 C291 1.355 . S
C292 C294 1.419 1_545 S
C293 C288 1.425 . S
C293 C290 1.409 . S
C293 C291 1.415 . S
C294 H284 0.930 . S
C294 C292 1.419 1_565 S
C294 C295 1.362 . S
C295 H285 0.930 . S
C295 C288 1.409 1_565 S
C295 C294 1.362 . S
H296 C302 0.930 . S
H297 C305 0.930 . S
H298 C306 0.930 . S
H299 C307 0.930 . S
H300 C310 0.930 . S
H301 C311 0.930 . S
C302 H296 0.930 . S
C302 C303 1.355 . S
C302 C304 1.415 . S
C303 C302 1.355 . S
C303 C305 1.419 1_554 S
C304 C302 1.415 . S
C304 C309 1.425 1_554 S
C304 C311 1.409 . S
C305 H297 0.930 . S
C305 C303 1.419 1_556 S
C305 C306 1.362 . S
C306 H298 0.930 . S
C306 C305 1.362 . S
C306 C309 1.409 . S
C307 H299 0.930 . S
C307 C308 1.355 1_556 S
C307 C309 1.415 . S
C308 C307 1.355 1_554 S
C308 C310 1.419 . S
C309 C304 1.425 1_556 S
C309 C306 1.409 . S
C309 C307 1.415 . S
C310 H300 0.930 . S
C310 C308 1.419 . S
C310 C311 1.362 . S
C311 H301 0.930 . S
C311 C304 1.409 . S
C311 C310 1.362 . S
H312 C318 0.930 . S
H313 C321 0.930 . S
H314 C322 0.930 . S
H315 C323 0.930 . S
H316 C326 0.930 . S
H317 C327 0.930 . S
C318 H312 0.930 . S
C318 C319 1.355 . S
C318 C320 1.415 . S
C319 C318 1.355 . S
C319 C321 1.419 1_554 S
C320 C318 1.415 . S
C320 C325 1.432 . S
C320 C327 1.409 . S
C321 H313 0.930 . S
C321 C319 1.419 1_556 S
C321 C322 1.362 . S
C322 H314 0.930 . S
C322 C321 1.362 . S
C322 C325 1.405 1_556 S
C323 H315 0.930 . S
C323 C324 1.355 1_556 S
C323 C325 1.412 1_556 S
C324 C323 1.355 1_554 S
C324 C326 1.419 . S
C325 C320 1.432 . S
C325 C322 1.405 1_554 S
C325 C323 1.412 1_554 S
C326 H316 0.930 . S
C326 C324 1.419 . S
C326 C327 1.362 . S
C327 H317 0.930 . S
C327 C320 1.409 . S
C327 C326 1.362 . S
H328 C334 0.930 . S
H329 C337 0.930 . S
H330 C338 0.930 . S
H331 C339 0.930 . S
H332 C342 0.930 . S
H333 C343 0.930 1_556 S
C334 H328 0.930 . S
C334 C335 1.355 . S
C334 C336 1.415 1_556 S
C335 C334 1.355 . S
C335 C337 1.419 1_556 S
C336 C334 1.415 1_554 S
C336 C341 1.425 . S
C336 C343 1.409 . S
C337 H329 0.930 . S
C337 C335 1.419 1_554 S
C337 C338 1.362 . S
C338 H330 0.930 . S
C338 C337 1.362 . S
C338 C341 1.409 . S
C339 H331 0.930 . S
C339 C340 1.355 . S
C339 C341 1.415 . S
C340 C339 1.355 . S
C340 C342 1.419 . S
C341 C336 1.425 . S
C341 C338 1.409 . S
C341 C339 1.415 . S
C342 H332 0.930 . S
C342 C340 1.419 . S
C342 C343 1.362 . S
C343 H333 0.930 1_554 S
C343 C336 1.409 . S
C343 C342 1.362 . S
H344 C350 0.930 . S
H345 C353 0.930 . S
H346 C354 0.930 . S
H347 C355 0.930 . S
H348 C358 0.930 . S
H349 C359 0.930 1_556 S
C350 H344 0.930 . S
C350 C351 1.355 1_556 S
C350 C352 1.415 1_556 S
C351 C350 1.355 1_554 S
C351 C353 1.419 . S
C352 C350 1.415 1_554 S
C352 C357 1.425 . S
C352 C359 1.409 . S
C353 H345 0.930 . S
C353 C351 1.419 . S
C353 C354 1.362 . S
C354 H346 0.930 . S
C354 C353 1.362 . S
C354 C357 1.409 . S
C355 H347 0.930 . S
C355 C356 1.355 . S
C355 C357 1.415 . S
C356 C355 1.355 . S
C356 C358 1.419 . S
C357 C352 1.425 . S
C357 C354 1.409 . S
C357 C355 1.415 . S
C358 H348 0.930 . S
C358 C356 1.419 . S
C358 C359 1.362 . S
C359 H349 0.930 1_554 S
C359 C352 1.409 . S
C359 C358 1.362 . S
H360 C366 0.930 . S
H361 C369 0.930 . S
H362 C370 0.930 . S
H363 C371 0.930 . S
H364 C374 0.930 . S
H365 C375 0.930 . S
C366 H360 0.930 . S
C366 C367 1.355 . S
C366 C368 1.415 . S
C367 C366 1.355 . S
C367 C369 1.419 . S
C368 C366 1.415 . S
C368 C373 1.425 . S
C368 C375 1.409 . S
C369 H361 0.930 . S
C369 C367 1.419 . S
C369 C370 1.362 . S
C370 H362 0.930 . S
C370 C369 1.362 . S
C370 C373 1.409 . S
C371 H363 0.930 . S
C371 C372 1.355 . S
C371 C373 1.415 . S
C372 C371 1.355 . S
C372 C374 1.419 . S
C373 C368 1.425 . S
C373 C370 1.409 . S
C373 C371 1.415 . S
C374 H364 0.930 . S
C374 C372 1.419 . S
C374 C375 1.362 . S
C375 H365 0.930 . S
C375 C368 1.409 . S
C375 C374 1.362 . S
H376 C382 0.930 . S
H377 C385 0.930 . S
H378 C386 0.930 . S
H379 C387 0.930 . S
H380 C390 0.930 . S
H381 C391 0.930 . S
C382 H376 0.930 . S
C382 C383 1.355 . S
C382 C384 1.415 . S
C383 C382 1.355 . S
C383 C385 1.419 . S
C384 C382 1.415 . S
C384 C389 1.425 . S
C384 C391 1.409 . S
C385 H377 0.930 . S
C385 C383 1.419 . S
C385 C386 1.362 . S
C386 H378 0.930 . S
C386 C385 1.362 . S
C386 C389 1.409 . S
C387 H379 0.930 . S
C387 C388 1.355 . S
C387 C389 1.415 . S
C388 C387 1.355 . S
C388 C390 1.419 . S
C389 C384 1.425 . S
C389 C386 1.409 . S
C389 C387 1.415 . S
C390 H380 0.930 . S
C390 C388 1.419 . S
C390 C391 1.362 . S
C391 H381 0.930 . S
C391 C384 1.409 . S
C391 C390 1.362 . S
H392 C398 0.930 . S
H393 C401 0.930 . S
H394 C402 0.930 . S
H395 C403 0.930 . S
H396 C406 0.930 . S
H397 C407 0.930 . S
C398 H392 0.930 . S
C398 C399 1.355 . S
C398 C400 1.415 . S
C399 C398 1.355 . S
C399 C401 1.419 . S
C400 C398 1.415 . S
C400 C405 1.425 . S
C400 C407 1.409 . S
C401 H393 0.930 . S
C401 C399 1.419 . S
C401 C402 1.362 . S
C402 H394 0.930 . S
C402 C401 1.362 . S
C402 C405 1.409 . S
C403 H395 0.930 . S
C403 C404 1.355 . S
C403 C405 1.415 . S
C404 C403 1.355 . S
C404 C406 1.419 . S
C405 C400 1.425 . S
C405 C402 1.409 . S
C405 C403 1.415 . S
C406 H396 0.930 . S
C406 C404 1.419 . S
C406 C407 1.362 . S
C407 H397 0.930 . S
C407 C400 1.409 . S
C407 C406 1.362 . S
H408 C414 0.930 . S
H409 C417 0.930 . S
H410 C418 0.930 . S
H411 C419 0.930 . S
H412 C422 0.930 . S
H413 C423 0.930 . S
C414 H408 0.930 . S
C414 C415 1.355 . S
C414 C416 1.415 . S
C415 C414 1.355 . S
C415 C417 1.419 . S
C416 C414 1.415 . S
C416 C421 1.425 . S
C416 C423 1.409 . S
C417 H409 0.930 . S
C417 C415 1.419 . S
C417 C418 1.362 . S
C418 H410 0.930 . S
C418 C417 1.362 . S
C418 C421 1.409 . S
C419 H411 0.930 . S
C419 C420 1.355 . S
C419 C421 1.415 . S
C420 C419 1.355 . S
C420 C422 1.419 . S
C421 C416 1.425 . S
C421 C418 1.409 . S
C421 C419 1.415 . S
C422 H412 0.930 . S
C422 C420 1.419 . S
C422 C423 1.362 . S
C423 H413 0.930 . S
C423 C416 1.409 . S
C423 C422 1.362 . S
H424 C430 0.930 . S
H425 C433 0.930 . S
H426 C434 0.930 . S
H427 C435 0.930 . S
H428 C438 0.930 . S
H429 C439 0.930 . S
C430 H424 0.930 . S
C430 C431 1.355 . S
C430 C432 1.415 . S
C431 C430 1.355 . S
C431 C433 1.419 . S
C432 C430 1.415 . S
C432 C437 1.425 . S
C432 C439 1.409 . S
C433 H425 0.930 . S
C433 C431 1.419 . S
C433 C434 1.362 . S
C434 H426 0.930 . S
C434 C433 1.362 . S
C434 C437 1.409 . S
C435 H427 0.930 . S
C435 C436 1.355 . S
C435 C437 1.415 . S
C436 C435 1.355 . S
C436 C438 1.419 . S
C437 C432 1.425 . S
C437 C434 1.409 . S
C437 C435 1.415 . S
C438 H428 0.930 . S
C438 C436 1.419 . S
C438 C439 1.362 . S
C439 H429 0.930 . S
C439 C432 1.409 . S
C439 C438 1.362 . S
H440 C446 0.930 . S
H441 C449 0.930 . S
H442 C450 0.930 . S
H443 C451 0.930 . S
H444 C454 0.930 . S
H445 C455 0.930 . S
C446 H440 0.930 . S
C446 C447 1.355 . S
C446 C448 1.415 . S
C447 C446 1.355 . S
C447 C449 1.419 . S
C448 C446 1.415 . S
C448 C453 1.425 . S
C448 C455 1.409 . S
C449 H441 0.930 . S
C449 C447 1.419 . S
C449 C450 1.362 . S
C450 H442 0.930 . S
C450 C449 1.362 . S
C450 C453 1.409 . S
C451 H443 0.930 . S
C451 C452 1.355 . S
C451 C453 1.415 . S
C452 C451 1.355 . S
C452 C454 1.419 . S
C453 C448 1.425 . S
C453 C450 1.409 . S
C453 C451 1.415 . S
C454 H444 0.930 . S
C454 C452 1.419 . S
C454 C455 1.362 . S
C455 H445 0.930 . S
C455 C448 1.409 . S
C455 C454 1.362 . S
H456 C462 0.930 . S
H457 C465 0.930 . S
H458 C466 0.930 . S
H459 C467 0.930 . S
H460 C470 0.930 . S
H461 C471 0.930 . S
C462 H456 0.930 . S
C462 C463 1.355 . S
C462 C464 1.415 . S
C463 C462 1.355 . S
C463 C465 1.419 . S
C464 C462 1.415 . S
C464 C469 1.425 . S
C464 C471 1.409 . S
C465 H457 0.930 . S
C465 C463 1.419 . S
C465 C466 1.362 . S
C466 H458 0.930 . S
C466 C465 1.362 . S
C466 C469 1.409 . S
C467 H459 0.930 . S
C467 C468 1.355 . S
C467 C469 1.415 . S
C468 C467 1.355 . S
C468 C470 1.419 . S
C469 C464 1.425 . S
C469 C466 1.409 . S
C469 C467 1.415 . S
C470 H460 0.930 . S
C470 C468 1.419 . S
C470 C471 1.362 . S
C471 H461 0.930 . S
C471 C464 1.409 . S
C471 C470 1.362 . S
H472 C478 0.930 . S
H473 C481 0.930 . S
H474 C482 0.930 . S
H475 C483 0.930 . S
H476 C486 0.930 . S
H477 C487 0.930 . S
C478 H472 0.930 . S
C478 C479 1.355 . S
C478 C480 1.415 . S
C479 C478 1.355 . S
C479 C481 1.419 . S
C480 C478 1.415 . S
C480 C485 1.425 . S
C480 C487 1.409 . S
C481 H473 0.930 . S
C481 C479 1.419 . S
C481 C482 1.362 . S
C482 H474 0.930 . S
C482 C481 1.362 . S
C482 C485 1.409 . S
C483 H475 0.930 . S
C483 C484 1.355 . S
C483 C485 1.415 . S
C484 C483 1.355 . S
C484 C486 1.419 . S
C485 C480 1.425 . S
C485 C482 1.409 . S
C485 C483 1.415 . S
C486 H476 0.930 . S
C486 C484 1.419 . S
C486 C487 1.362 . S
C487 H477 0.930 . S
C487 C480 1.409 . S
C487 C486 1.362 . S
H488 C494 0.930 . S
H489 C497 0.930 . S
H490 C498 0.930 . S
H491 C499 0.930 . S
H492 C502 0.930 . S
H493 C503 0.930 . S
C494 H488 0.930 . S
C494 C495 1.355 . S
C494 C496 1.415 . S
C495 C494 1.355 . S
C495 C497 1.419 . S
C496 C494 1.415 . S
C496 C501 1.425 . S
C496 C503 1.409 . S
C497 H489 0.930 . S
C497 C495 1.419 . S
C497 C498 1.362 . S
C498 H490 0.930 . S
C498 C497 1.362 . S
C498 C501 1.409 . S
C499 H491 0.930 . S
C499 C500 1.355 . S
C499 C501 1.415 . S
C500 C499 1.355 . S
C500 C502 1.419 . S
C501 C496 1.425 . S
C501 C498 1.409 . S
C501 C499 1.415 . S
C502 H492 0.930 . S
C502 C500 1.419 . S
C502 C503 1.362 . S
C503 H493 0.930 . S
C503 C496 1.409 . S
C503 C502 1.362 . S
H504 C510 0.930 . S
H505 C513 0.930 . S
H506 C514 0.930 . S
H507 C515 0.930 . S
H508 C518 0.930 . S
H509 C519 0.930 . S
C510 H504 0.930 . S
C510 C511 1.355 . S
C510 C512 1.415 . S
C511 C510 1.355 . S
C511 C513 1.419 . S
C512 C510 1.415 . S
C512 C517 1.425 . S
C512 C519 1.409 . S
C513 H505 0.930 . S
C513 C511 1.419 . S
C513 C514 1.362 . S
C514 H506 0.930 . S
C514 C513 1.362 . S
C514 C517 1.409 . S
C515 H507 0.930 . S
C515 C516 1.355 . S
C515 C517 1.415 . S
C516 C515 1.355 . S
C516 C518 1.419 . S
C517 C512 1.425 . S
C517 C514 1.409 . S
C517 C515 1.415 . S
C518 H508 0.930 . S
C518 C516 1.419 . S
C518 C519 1.362 . S
C519 H509 0.930 . S
C519 C512 1.409 . S
C519 C518 1.362 . S
H520 C526 0.930 . S
H521 C529 0.930 . S
H522 C530 0.930 . S
H523 C531 0.930 . S
H524 C534 0.930 . S
H525 C535 0.930 . S
C526 H520 0.930 . S
C526 C527 1.355 . S
C526 C528 1.415 . S
C527 C526 1.355 . S
C527 C529 1.419 . S
C528 C526 1.415 . S
C528 C533 1.425 . S
C528 C535 1.409 . S
C529 H521 0.930 . S
C529 C527 1.419 . S
C529 C530 1.362 . S
C530 H522 0.930 . S
C530 C529 1.362 . S
C530 C533 1.409 . S
C531 H523 0.930 . S
C531 C532 1.355 . S
C531 C533 1.415 . S
C532 C531 1.355 . S
C532 C534 1.419 . S
C533 C528 1.425 . S
C533 C530 1.409 . S
C533 C531 1.415 . S
C534 H524 0.930 . S
C534 C532 1.419 . S
C534 C535 1.362 . S
C535 H525 0.930 . S
C535 C528 1.409 . S
C535 C534 1.362 . S
H536 C542 0.930 . S
H537 C545 0.930 . S
H538 C546 0.930 . S
H539 C547 0.930 . S
H540 C550 0.930 . S
H541 C551 0.930 . S
C542 H536 0.930 . S
C542 C543 1.355 . S
C542 C544 1.415 . S
C543 C542 1.355 . S
C543 C545 1.419 . S
C544 C542 1.415 . S
C544 C549 1.425 . S
C544 C551 1.409 . S
C545 H537 0.930 . S
C545 C543 1.419 . S
C545 C546 1.362 . S
C546 H538 0.930 . S
C546 C545 1.362 . S
C546 C549 1.409 . S
C547 H539 0.930 . S
C547 C548 1.355 . S
C547 C549 1.415 . S
C548 C547 1.355 . S
C548 C550 1.419 . S
C549 C544 1.425 . S
C549 C546 1.409 . S
C549 C547 1.415 . S
C550 H540 0.930 . S
C550 C548 1.419 . S
C550 C551 1.362 . S
C551 H541 0.930 . S
C551 C544 1.409 . S
C551 C550 1.362 . S
C175 C11 1.507 . S
C180 C81 1.507 . S
C191 C14 1.439 1_565 S
C196 C56 1.463 . S
C207 C79 1.398 . S
C212 C37 1.408 . S
C223 C42 1.428 . S
C228 C61 1.468 . S
C239 C109 1.451 . S
C244 C39 1.455 . S
C255 C89 1.456 . S
C260 C47 1.447 . S
C271 C9 1.414 . S
C276 C107 1.393 1_455 S
C287 C84 1.432 . S
C292 C19 1.448 . S
C303 C126 1.430 . S
C308 C123 1.442 . S
C319 C121 1.422 . S
C324 C154 1.398 . S
C335 C131 1.444 . S
C340 C149 1.421 . S
C351 C151 1.464 . S
C356 C159 1.469 . S
C367 C165 1.499 . S
C372 C95 1.507 . S
C383 C112 1.408 . S
C388 C98 1.417 . S
C399 C93 1.429 . S
C404 C135 1.441 . S
C415 C103 1.459 . S
C420 C140 1.450 . S
C431 C67 1.496 . S
C436 C137 1.505 . S
C447 C75 1.436 . S
C452 C145 1.449 . S
C463 C163 1.442 . S
C468 C65 1.422 . S
C479 C117 1.455 . S
C484 C70 1.444 . S
C495 C25 1.491 . S
C500 C28 1.475 . S
C511 C0 1.432 . S
C516 C23 1.466 . S
C527 C33 1.455 . S
C532 C51 1.435 . S
C543 C5 1.494 . S
C548 C53 1.485 . S
