# Generated by pormake.
# Topology ukc, (4)-cn, num edge types: 1
# Building blocks:
#     Node 0, Type 0, BuildingBlock: QUQFOY_clean_sbu_1, # of connection points: 4
#     Node 1, Type 0, BuildingBlock: QUQFOY_clean_sbu_1, # of connection points: 4
#     Node 2, Type 0, BuildingBlock: QUQFOY_clean_sbu_1, # of connection points: 4
#     Node 3, Type 0, BuildingBlock: QUQFOY_clean_sbu_1, # of connection points: 4
#     Node 4, Type 0, BuildingBlock: QUQFOY_clean_sbu_1, # of connection points: 4
#     Node 5, Type 0, BuildingBlock: QUQFOY_clean_sbu_1, # of connection points: 4
#     Node 6, Type 0, BuildingBlock: QUQFOY_clean_sbu_1, # of connection points: 4
#     Node 7, Type 0, BuildingBlock: QUQFOY_clean_sbu_1, # of connection points: 4
#     Node 8, Type 0, BuildingBlock: QUQFOY_clean_sbu_1, # of connection points: 4
#     Node 9, Type 0, BuildingBlock: QUQFOY_clean_sbu_1, # of connection points: 4
#     Node 10, Type 0, BuildingBlock: QUQFOY_clean_sbu_1, # of connection points: 4
#     Node 11, Type 0, BuildingBlock: QUQFOY_clean_sbu_1, # of connection points: 4
#     Node 12, Type 0, BuildingBlock: QUQFOY_clean_sbu_1, # of connection points: 4
#     Node 13, Type 0, BuildingBlock: QUQFOY_clean_sbu_1, # of connection points: 4
#     Node 14, Type 0, BuildingBlock: QUQFOY_clean_sbu_1, # of connection points: 4
#     Node 15, Type 0, BuildingBlock: QUQFOY_clean_sbu_1, # of connection points: 4
#     Node 16, Type 0, BuildingBlock: QUQFOY_clean_sbu_1, # of connection points: 4
#     Node 17, Type 0, BuildingBlock: QUQFOY_clean_sbu_1, # of connection points: 4
#     Node 18, Type 0, BuildingBlock: QUQFOY_clean_sbu_1, # of connection points: 4
#     Node 19, Type 0, BuildingBlock: QUQFOY_clean_sbu_1, # of connection points: 4
#     Node 20, Type 0, BuildingBlock: QUQFOY_clean_sbu_1, # of connection points: 4
#     Node 21, Type 0, BuildingBlock: QUQFOY_clean_sbu_1, # of connection points: 4
#     Node 22, Type 0, BuildingBlock: QUQFOY_clean_sbu_1, # of connection points: 4
#     Node 23, Type 0, BuildingBlock: QUQFOY_clean_sbu_1, # of connection points: 4
#     Node 24, Type 0, BuildingBlock: QUQFOY_clean_sbu_1, # of connection points: 4
#     Node 25, Type 0, BuildingBlock: QUQFOY_clean_sbu_1, # of connection points: 4
#     Node 26, Type 0, BuildingBlock: QUQFOY_clean_sbu_1, # of connection points: 4
#     Node 27, Type 0, BuildingBlock: QUQFOY_clean_sbu_1, # of connection points: 4
#     Node 28, Type 0, BuildingBlock: QUQFOY_clean_sbu_1, # of connection points: 4
#     Node 29, Type 0, BuildingBlock: QUQFOY_clean_sbu_1, # of connection points: 4
#     Node 30, Type 0, BuildingBlock: QUQFOY_clean_sbu_1, # of connection points: 4
#     Node 31, Type 0, BuildingBlock: QUQFOY_clean_sbu_1, # of connection points: 4
#     Edge 32, Type (0, 0), BuildingBlock: UVAHIK_clean_linker_0, # of connection points: 2
#     Edge 33, Type (0, 0), BuildingBlock: UVAHIK_clean_linker_0, # of connection points: 2
#     Edge 34, Type (0, 0), BuildingBlock: UVAHIK_clean_linker_0, # of connection points: 2
#     Edge 35, Type (0, 0), BuildingBlock: UVAHIK_clean_linker_0, # of connection points: 2
#     Edge 36, Type (0, 0), BuildingBlock: UVAHIK_clean_linker_0, # of connection points: 2
#     Edge 37, Type (0, 0), BuildingBlock: UVAHIK_clean_linker_0, # of connection points: 2
#     Edge 38, Type (0, 0), BuildingBlock: UVAHIK_clean_linker_0, # of connection points: 2
#     Edge 39, Type (0, 0), BuildingBlock: UVAHIK_clean_linker_0, # of connection points: 2
#     Edge 40, Type (0, 0), BuildingBlock: UVAHIK_clean_linker_0, # of connection points: 2
#     Edge 41, Type (0, 0), BuildingBlock: UVAHIK_clean_linker_0, # of connection points: 2
#     Edge 42, Type (0, 0), BuildingBlock: UVAHIK_clean_linker_0, # of connection points: 2
#     Edge 43, Type (0, 0), BuildingBlock: UVAHIK_clean_linker_0, # of connection points: 2
#     Edge 44, Type (0, 0), BuildingBlock: UVAHIK_clean_linker_0, # of connection points: 2
#     Edge 45, Type (0, 0), BuildingBlock: UVAHIK_clean_linker_0, # of connection points: 2
#     Edge 46, Type (0, 0), BuildingBlock: UVAHIK_clean_linker_0, # of connection points: 2
#     Edge 47, Type (0, 0), BuildingBlock: UVAHIK_clean_linker_0, # of connection points: 2
#     Edge 48, Type (0, 0), BuildingBlock: UVAHIK_clean_linker_0, # of connection points: 2
#     Edge 49, Type (0, 0), BuildingBlock: UVAHIK_clean_linker_0, # of connection points: 2
#     Edge 50, Type (0, 0), BuildingBlock: UVAHIK_clean_linker_0, # of connection points: 2
#     Edge 51, Type (0, 0), BuildingBlock: UVAHIK_clean_linker_0, # of connection points: 2
#     Edge 52, Type (0, 0), BuildingBlock: UVAHIK_clean_linker_0, # of connection points: 2
#     Edge 53, Type (0, 0), BuildingBlock: UVAHIK_clean_linker_0, # of connection points: 2
#     Edge 54, Type (0, 0), BuildingBlock: UVAHIK_clean_linker_0, # of connection points: 2
#     Edge 55, Type (0, 0), BuildingBlock: UVAHIK_clean_linker_0, # of connection points: 2
#     Edge 56, Type (0, 0), BuildingBlock: UVAHIK_clean_linker_0, # of connection points: 2
#     Edge 57, Type (0, 0), BuildingBlock: UVAHIK_clean_linker_0, # of connection points: 2
#     Edge 58, Type (0, 0), BuildingBlock: UVAHIK_clean_linker_0, # of connection points: 2
#     Edge 59, Type (0, 0), BuildingBlock: UVAHIK_clean_linker_0, # of connection points: 2
#     Edge 60, Type (0, 0), BuildingBlock: UVAHIK_clean_linker_0, # of connection points: 2
#     Edge 61, Type (0, 0), BuildingBlock: UVAHIK_clean_linker_0, # of connection points: 2
#     Edge 62, Type (0, 0), BuildingBlock: UVAHIK_clean_linker_0, # of connection points: 2
#     Edge 63, Type (0, 0), BuildingBlock: UVAHIK_clean_linker_0, # of connection points: 2
#     Edge 64, Type (0, 0), BuildingBlock: UVAHIK_clean_linker_0, # of connection points: 2
#     Edge 65, Type (0, 0), BuildingBlock: UVAHIK_clean_linker_0, # of connection points: 2
#     Edge 66, Type (0, 0), BuildingBlock: UVAHIK_clean_linker_0, # of connection points: 2
#     Edge 67, Type (0, 0), BuildingBlock: UVAHIK_clean_linker_0, # of connection points: 2
#     Edge 68, Type (0, 0), BuildingBlock: UVAHIK_clean_linker_0, # of connection points: 2
#     Edge 69, Type (0, 0), BuildingBlock: UVAHIK_clean_linker_0, # of connection points: 2
#     Edge 70, Type (0, 0), BuildingBlock: UVAHIK_clean_linker_0, # of connection points: 2
#     Edge 71, Type (0, 0), BuildingBlock: UVAHIK_clean_linker_0, # of connection points: 2
#     Edge 72, Type (0, 0), BuildingBlock: UVAHIK_clean_linker_0, # of connection points: 2
#     Edge 73, Type (0, 0), BuildingBlock: UVAHIK_clean_linker_0, # of connection points: 2
#     Edge 74, Type (0, 0), BuildingBlock: UVAHIK_clean_linker_0, # of connection points: 2
#     Edge 75, Type (0, 0), BuildingBlock: UVAHIK_clean_linker_0, # of connection points: 2
#     Edge 76, Type (0, 0), BuildingBlock: UVAHIK_clean_linker_0, # of connection points: 2
#     Edge 77, Type (0, 0), BuildingBlock: UVAHIK_clean_linker_0, # of connection points: 2
#     Edge 78, Type (0, 0), BuildingBlock: UVAHIK_clean_linker_0, # of connection points: 2
#     Edge 79, Type (0, 0), BuildingBlock: UVAHIK_clean_linker_0, # of connection points: 2
#     Edge 80, Type (0, 0), BuildingBlock: UVAHIK_clean_linker_0, # of connection points: 2
#     Edge 81, Type (0, 0), BuildingBlock: UVAHIK_clean_linker_0, # of connection points: 2
#     Edge 82, Type (0, 0), BuildingBlock: UVAHIK_clean_linker_0, # of connection points: 2
#     Edge 83, Type (0, 0), BuildingBlock: UVAHIK_clean_linker_0, # of connection points: 2
#     Edge 84, Type (0, 0), BuildingBlock: UVAHIK_clean_linker_0, # of connection points: 2
#     Edge 85, Type (0, 0), BuildingBlock: UVAHIK_clean_linker_0, # of connection points: 2
#     Edge 86, Type (0, 0), BuildingBlock: UVAHIK_clean_linker_0, # of connection points: 2
#     Edge 87, Type (0, 0), BuildingBlock: UVAHIK_clean_linker_0, # of connection points: 2
#     Edge 88, Type (0, 0), BuildingBlock: UVAHIK_clean_linker_0, # of connection points: 2
#     Edge 89, Type (0, 0), BuildingBlock: UVAHIK_clean_linker_0, # of connection points: 2
#     Edge 90, Type (0, 0), BuildingBlock: UVAHIK_clean_linker_0, # of connection points: 2
#     Edge 91, Type (0, 0), BuildingBlock: UVAHIK_clean_linker_0, # of connection points: 2
#     Edge 92, Type (0, 0), BuildingBlock: UVAHIK_clean_linker_0, # of connection points: 2
#     Edge 93, Type (0, 0), BuildingBlock: UVAHIK_clean_linker_0, # of connection points: 2
#     Edge 94, Type (0, 0), BuildingBlock: UVAHIK_clean_linker_0, # of connection points: 2
#     Edge 95, Type (0, 0), BuildingBlock: UVAHIK_clean_linker_0, # of connection points: 2
# Relax obj value: 0.070
# Max RMSD: 0.148
# Mean RMSD: 0.148
data_MOF--net-ukc--node1-QUQFOY_clean_sbu_1--edge1-UVAHIK_clean_linker_0
_symmetry_space_group_name_H-M    P1
_symmetry_Int_Tables_number       1
_symmetry_cell_setting            triclinic
loop_
_symmetry_equiv_pos_as_xyz
'x, y, z'
_cell_length_a     62.821441
_cell_length_b     62.810701
_cell_length_c     108.52255
_cell_angle_alpha  90.002562
_cell_angle_beta   89.995534
_cell_angle_gamma 90.000149
loop_
_atom_site_label
_atom_site_type_symbol
_atom_site_fract_x
_atom_site_fract_y
_atom_site_fract_z
_atom_type_partial_charge
O0 O 0.1141 0.36723 0.05169 0.0
Cd1 Cd 0.11154 0.36279 0.03295 0.0
Cd2 Cd 0.0739 0.38639 0.03718 0.0
O3 O 0.08633 0.38808 0.0548 0.0
O4 O 0.13928 0.34945 0.02864 0.0
O5 O 0.12959 0.38104 0.02168 0.0
C6 C 0.14372 0.36613 0.02226 0.0
C7 C 0.05825 0.41677 0.02866 0.0
C8 C 0.10266 0.3784 0.05886 0.0
C9 C 0.06964 0.34154 0.02732 0.0
O10 O 0.06051 0.35807 0.03152 0.0
O11 O 0.08982 0.34062 0.02668 0.0
O12 O 0.04922 0.40626 0.0374 0.0
O13 O 0.07669 0.41034 0.0249 0.0
O14 O 0.88456 0.86325 0.30235 0.0
Cd15 Cd 0.89031 0.86173 0.2837 0.0
Cd16 Cd 0.86592 0.82393 0.28681 0.0
O17 O 0.8633 0.83555 0.30457 0.0
O18 O 0.90283 0.89028 0.28044 0.0
O19 O 0.87265 0.87957 0.27204 0.0
C20 C 0.88665 0.89441 0.27357 0.0
C21 C 0.83597 0.80767 0.27811 0.0
C22 C 0.87286 0.85158 0.3091 0.0
C23 C 0.91162 0.82017 0.27775 0.0
O24 O 0.89463 0.81107 0.28132 0.0
O25 O 0.91296 0.84037 0.27759 0.0
O26 O 0.8467 0.79872 0.28678 0.0
O27 O 0.84199 0.8263 0.27446 0.0
O28 O 0.38626 0.63932 0.55022 0.0
Cd29 Cd 0.39028 0.64204 0.53147 0.0
Cd30 Cd 0.42543 0.61629 0.53676 0.0
O31 O 0.41151 0.61581 0.55404 0.0
O32 O 0.36328 0.65542 0.52586 0.0
O33 O 0.37287 0.62288 0.52043 0.0
C34 C 0.359 0.63805 0.52007 0.0
C35 C 0.44011 0.58498 0.52879 0.0
C36 C 0.39605 0.62725 0.55771 0.0
C37 C 0.43347 0.66041 0.52652 0.0
O38 O 0.44107 0.64355 0.53126 0.0
O39 O 0.41349 0.66263 0.52523 0.0
O40 O 0.44889 0.59506 0.53779 0.0
O41 O 0.42237 0.59231 0.52452 0.0
O42 O 0.61575 0.13662 0.80185 0.0
Cd43 Cd 0.61092 0.13934 0.78316 0.0
Cd44 Cd 0.63745 0.17527 0.78676 0.0
O45 O 0.6392 0.16246 0.80428 0.0
O46 O 0.59694 0.11203 0.77862 0.0
O47 O 0.62875 0.12124 0.77174 0.0
C48 C 0.61356 0.1074 0.77221 0.0
C49 C 0.66817 0.19068 0.77841 0.0
C50 C 0.62837 0.14714 0.80868 0.0
C51 C 0.59226 0.18231 0.77767 0.0
O52 O 0.60967 0.19021 0.7815 0.0
O53 O 0.58977 0.16225 0.77715 0.0
O54 O 0.65791 0.19947 0.78733 0.0
O55 O 0.66132 0.17259 0.77437 0.0
O56 O 0.11398 0.63575 0.44655 0.0
Cd57 Cd 0.11152 0.6395 0.46534 0.0
Cd58 Cd 0.07429 0.61532 0.46079 0.0
O59 O 0.08695 0.61407 0.44322 0.0
O60 O 0.13901 0.65347 0.46948 0.0
O61 O 0.13044 0.62147 0.47627 0.0
C62 C 0.14419 0.63671 0.4756 0.0
C63 C 0.0589 0.58462 0.46909 0.0
C64 C 0.10297 0.62438 0.43926 0.0
C65 C 0.06926 0.65989 0.47101 0.0
O66 O 0.06046 0.64341 0.46652 0.0
O67 O 0.0894 0.66103 0.47189 0.0
O68 O 0.04985 0.59515 0.46036 0.0
O69 O 0.0772 0.59122 0.47296 0.0
O70 O 0.61313 0.86393 0.69612 0.0
Cd71 Cd 0.60952 0.86117 0.71491 0.0
Cd72 Cd 0.63659 0.826 0.71078 0.0
O73 O 0.63754 0.83913 0.69332 0.0
O74 O 0.59525 0.88824 0.71964 0.0
O75 O 0.62767 0.87982 0.72587 0.0
C76 C 0.61219 0.89336 0.72562 0.0
C77 C 0.66778 0.81105 0.71879 0.0
C78 C 0.62592 0.85401 0.6891 0.0
C79 C 0.592 0.81785 0.72052 0.0
O80 O 0.60927 0.81039 0.71623 0.0
O81 O 0.58923 0.83784 0.72136 0.0
O82 O 0.65751 0.80224 0.70988 0.0
O83 O 0.66069 0.82894 0.72299 0.0
O84 O 0.38697 0.36444 0.94764 0.0
Cd85 Cd 0.39045 0.36133 0.96642 0.0
Cd86 Cd 0.42702 0.38557 0.96107 0.0
O87 O 0.41328 0.38673 0.94377 0.0
O88 O 0.36322 0.34753 0.97127 0.0
O89 O 0.37214 0.37983 0.97742 0.0
C90 C 0.35837 0.36457 0.97723 0.0
C91 C 0.44251 0.41632 0.96922 0.0
C92 C 0.3973 0.37601 0.94013 0.0
C93 C 0.43303 0.34121 0.97135 0.0
O94 O 0.44143 0.35759 0.9665 0.0
O95 O 0.41297 0.34006 0.97276 0.0
O96 O 0.45117 0.40603 0.96026 0.0
O97 O 0.42449 0.40948 0.97339 0.0
O98 O 0.88415 0.13746 0.19512 0.0
Cd99 Cd 0.89005 0.13858 0.21376 0.0
Cd100 Cd 0.86593 0.17671 0.2109 0.0
O101 O 0.86332 0.16551 0.19305 0.0
O102 O 0.90244 0.10988 0.21678 0.0
O103 O 0.87243 0.1206 0.22538 0.0
C104 C 0.88632 0.10572 0.2237 0.0
C105 C 0.83608 0.1931 0.21967 0.0
C106 C 0.87266 0.14943 0.18844 0.0
C107 C 0.9117 0.17985 0.21996 0.0
O108 O 0.89473 0.18916 0.21653 0.0
O109 O 0.91292 0.15965 0.21993 0.0
O110 O 0.84697 0.20212 0.21109 0.0
O111 O 0.84188 0.17432 0.22319 0.0
O112 O 0.88725 0.63754 0.94692 0.0
Cd113 Cd 0.89038 0.64059 0.96572 0.0
Cd114 Cd 0.92694 0.61625 0.96056 0.0
O115 O 0.91356 0.6152 0.94317 0.0
O116 O 0.86311 0.65451 0.97037 0.0
O117 O 0.87175 0.62217 0.97659 0.0
C118 C 0.85804 0.63749 0.97628 0.0
C119 C 0.94201 0.58535 0.9688 0.0
C120 C 0.89768 0.62597 0.93946 0.0
C121 C 0.93294 0.66052 0.97096 0.0
O122 O 0.94137 0.64414 0.96613 0.0
O123 O 0.91287 0.66173 0.97224 0.0
O124 O 0.95098 0.59564 0.95994 0.0
O125 O 0.92393 0.5923 0.97282 0.0
O126 O 0.11487 0.13676 0.69514 0.0
Cd127 Cd 0.11018 0.1394 0.71386 0.0
Cd128 Cd 0.13695 0.1751 0.7103 0.0
O129 O 0.13854 0.1624 0.69274 0.0
O130 O 0.0962 0.11209 0.71843 0.0
O131 O 0.12811 0.12125 0.72518 0.0
C132 C 0.1129 0.10743 0.72476 0.0
C133 C 0.16778 0.19023 0.71866 0.0
C134 C 0.12756 0.14721 0.68832 0.0
C135 C 0.0919 0.18245 0.71952 0.0
O136 O 0.10933 0.19023 0.71566 0.0
O137 O 0.08923 0.16241 0.72 0.0
O138 O 0.15759 0.19913 0.70976 0.0
O139 O 0.16082 0.17215 0.72266 0.0
O140 O 0.61332 0.36548 0.44738 0.0
Cd141 Cd 0.6104 0.36237 0.46619 0.0
Cd142 Cd 0.57351 0.38647 0.46112 0.0
O143 O 0.58677 0.38757 0.44369 0.0
O144 O 0.63776 0.34849 0.4707 0.0
O145 O 0.62913 0.38076 0.47702 0.0
C146 C 0.64286 0.36547 0.47663 0.0
C147 C 0.55804 0.4172 0.46933 0.0
C148 C 0.60271 0.37693 0.43994 0.0
C149 C 0.56801 0.34216 0.47157 0.0
O150 O 0.5594 0.35847 0.46677 0.0
O151 O 0.5881 0.34109 0.47278 0.0
O152 O 0.54922 0.4068 0.46047 0.0
O153 O 0.5762 0.41049 0.47336 0.0
O154 O 0.3847 0.8644 0.1948 0.0
Cd155 Cd 0.39036 0.8628 0.21346 0.0
Cd156 Cd 0.36553 0.8253 0.21025 0.0
O157 O 0.36291 0.83714 0.19254 0.0
O158 O 0.40308 0.89126 0.21676 0.0
O159 O 0.37278 0.88077 0.2251 0.0
C160 C 0.38688 0.89551 0.22359 0.0
C161 C 0.33562 0.809 0.21899 0.0
C162 C 0.37277 0.853 0.18804 0.0
C163 C 0.41123 0.821 0.21927 0.0
O164 O 0.39417 0.81215 0.21561 0.0
O165 O 0.41278 0.84118 0.21957 0.0
O166 O 0.3462 0.80016 0.21022 0.0
O167 O 0.34172 0.82756 0.2227 0.0
O168 O 0.88642 0.3648 0.55049 0.0
Cd169 Cd 0.8897 0.36134 0.53172 0.0
Cd170 Cd 0.92665 0.38511 0.53668 0.0
O171 O 0.91342 0.38638 0.55411 0.0
O172 O 0.86218 0.34816 0.52682 0.0
O173 O 0.87202 0.38016 0.52058 0.0
C174 C 0.85791 0.36521 0.52072 0.0
C175 C 0.94214 0.41577 0.5284 0.0
C176 C 0.89725 0.3761 0.55789 0.0
C177 C 0.9319 0.3406 0.52651 0.0
O178 O 0.94065 0.35702 0.5311 0.0
O179 O 0.91179 0.33959 0.52542 0.0
O180 O 0.951 0.40536 0.53725 0.0
O181 O 0.92395 0.40909 0.52442 0.0
O182 O 0.38479 0.13805 0.30213 0.0
Cd183 Cd 0.39036 0.13969 0.28346 0.0
Cd184 Cd 0.36551 0.17715 0.2867 0.0
O185 O 0.36295 0.16527 0.3044 0.0
O186 O 0.4031 0.11125 0.28013 0.0
O187 O 0.37274 0.12172 0.27184 0.0
C188 C 0.38687 0.107 0.27331 0.0
C189 C 0.33556 0.19349 0.27804 0.0
C190 C 0.37286 0.14944 0.3089 0.0
C191 C 0.41118 0.18152 0.27766 0.0
O192 O 0.39412 0.19035 0.28134 0.0
O193 O 0.41273 0.16134 0.27733 0.0
O194 O 0.34617 0.20227 0.28682 0.0
O195 O 0.34166 0.17495 0.27428 0.0
O196 O 0.61537 0.63653 0.05083 0.0
Cd197 Cd 0.61176 0.64046 0.03213 0.0
Cd198 Cd 0.57572 0.61511 0.03684 0.0
O199 O 0.58913 0.61393 0.05424 0.0
O200 O 0.639 0.65397 0.02705 0.0
O201 O 0.62929 0.62194 0.02078 0.0
C202 C 0.64328 0.63701 0.02087 0.0
C203 C 0.56047 0.58426 0.02861 0.0
C204 C 0.60496 0.62461 0.05812 0.0
C205 C 0.56894 0.65982 0.02708 0.0
O206 O 0.56086 0.64283 0.03139 0.0
O207 O 0.58901 0.66179 0.02614 0.0
O208 O 0.55171 0.59446 0.03758 0.0
O209 O 0.57847 0.59122 0.0245 0.0
O210 O 0.11346 0.86438 0.8015 0.0
Cd211 Cd 0.10935 0.86162 0.78274 0.0
Cd212 Cd 0.13634 0.82626 0.78662 0.0
O213 O 0.13755 0.8392 0.80412 0.0
O214 O 0.09511 0.88874 0.7781 0.0
O215 O 0.12733 0.88013 0.77162 0.0
C216 C 0.11193 0.89375 0.77197 0.0
C217 C 0.16747 0.81138 0.77848 0.0
C218 C 0.12622 0.85423 0.80843 0.0
C219 C 0.09155 0.81837 0.77713 0.0
O220 O 0.10892 0.81079 0.78121 0.0
O221 O 0.08879 0.83838 0.77646 0.0
O222 O 0.15722 0.80245 0.78735 0.0
O223 O 0.16037 0.82933 0.77437 0.0
O224 O 0.61367 0.86751 0.55133 0.0
Cd225 Cd 0.61114 0.8631 0.53259 0.0
Cd226 Cd 0.57341 0.88671 0.5369 0.0
O227 O 0.58589 0.88833 0.5545 0.0
O228 O 0.63881 0.84956 0.52834 0.0
O229 O 0.62938 0.88117 0.52131 0.0
C230 C 0.6434 0.86617 0.52193 0.0
C231 C 0.5576 0.91704 0.5284 0.0
C232 C 0.60223 0.87863 0.55853 0.0
C233 C 0.56921 0.84187 0.52699 0.0
O234 O 0.56007 0.85837 0.53122 0.0
O235 O 0.58938 0.84097 0.52631 0.0
O236 O 0.54865 0.90649 0.53716 0.0
O237 O 0.57606 0.9107 0.52463 0.0
O238 O 0.38381 0.36291 0.80315 0.0
Cd239 Cd 0.38998 0.36107 0.78454 0.0
Cd240 Cd 0.36534 0.32321 0.78787 0.0
O241 O 0.36256 0.33524 0.80553 0.0
O242 O 0.40398 0.38899 0.78154 0.0
O243 O 0.37368 0.37989 0.7727 0.0
C244 C 0.38837 0.39396 0.77442 0.0
C245 C 0.33546 0.30711 0.779 0.0
C246 C 0.37207 0.35139 0.80995 0.0
C247 C 0.41102 0.31906 0.77899 0.0
O248 O 0.39402 0.31005 0.78262 0.0
O249 O 0.41237 0.33925 0.77867 0.0
O250 O 0.34587 0.2982 0.78782 0.0
O251 O 0.34174 0.32564 0.77532 0.0
O252 O 0.88738 0.1392 0.05053 0.0
Cd253 Cd 0.89069 0.14199 0.03174 0.0
Cd254 Cd 0.92608 0.11602 0.0368 0.0
O255 O 0.91253 0.11551 0.05417 0.0
O256 O 0.86366 0.15603 0.02678 0.0
O257 O 0.87216 0.12343 0.02093 0.0
C258 C 0.85857 0.13886 0.02101 0.0
C259 C 0.94083 0.08474 0.02882 0.0
C260 C 0.89723 0.12705 0.05795 0.0
C261 C 0.93385 0.16017 0.02644 0.0
O262 O 0.94151 0.14333 0.03118 0.0
O263 O 0.91385 0.1624 0.02524 0.0
O264 O 0.94969 0.09494 0.03774 0.0
O265 O 0.92297 0.09193 0.02462 0.0
O266 O 0.11445 0.63754 0.3018 0.0
Cd267 Cd 0.11025 0.63967 0.28302 0.0
Cd268 Cd 0.13698 0.67552 0.28669 0.0
O269 O 0.13833 0.66295 0.30428 0.0
O270 O 0.09606 0.61229 0.27883 0.0
O271 O 0.12815 0.62072 0.27208 0.0
C272 C 0.11282 0.60705 0.27272 0.0
C273 C 0.16785 0.69088 0.27849 0.0
C274 C 0.12709 0.64793 0.30868 0.0
C275 C 0.09205 0.68261 0.27711 0.0
O276 O 0.10933 0.69044 0.28117 0.0
O277 O 0.08949 0.66256 0.27654 0.0
O278 O 0.15742 0.69973 0.28732 0.0
O279 O 0.1611 0.67273 0.27446 0.0
O280 O 0.61551 0.13626 0.94643 0.0
Cd281 Cd 0.61212 0.14039 0.96514 0.0
Cd282 Cd 0.57592 0.11496 0.9606 0.0
O283 O 0.58915 0.11374 0.94315 0.0
O284 O 0.63938 0.15408 0.97003 0.0
O285 O 0.62988 0.1221 0.97651 0.0
C286 C 0.6438 0.13724 0.97629 0.0
C287 C 0.56062 0.08413 0.96882 0.0
C288 C 0.60498 0.12435 0.9392 0.0
C289 C 0.56931 0.15972 0.97032 0.0
O290 O 0.56117 0.1427 0.9661 0.0
O291 O 0.58938 0.16173 0.97115 0.0
O292 O 0.55184 0.09439 0.9599 0.0
O293 O 0.57868 0.09101 0.9729 0.0
O294 O 0.11298 0.3648 0.19647 0.0
Cd295 Cd 0.10919 0.36149 0.21523 0.0
Cd296 Cd 0.13616 0.32653 0.21108 0.0
O297 O 0.13727 0.33987 0.19368 0.0
O298 O 0.09554 0.3886 0.22047 0.0
O299 O 0.12783 0.3791 0.22645 0.0
C300 C 0.11263 0.39296 0.22653 0.0
C301 C 0.16735 0.31169 0.21916 0.0
C302 C 0.12579 0.35488 0.18947 0.0
C303 C 0.09148 0.31814 0.22054 0.0
O304 O 0.10886 0.31074 0.21637 0.0
O305 O 0.08866 0.33812 0.22138 0.0
O306 O 0.15723 0.3029 0.21019 0.0
O307 O 0.16011 0.32949 0.2234 0.0
O308 O 0.88643 0.86279 0.44693 0.0
Cd309 Cd 0.88984 0.85965 0.4657 0.0
Cd310 Cd 0.92554 0.8853 0.46071 0.0
O311 O 0.91201 0.88606 0.44334 0.0
O312 O 0.86269 0.84587 0.4707 0.0
O313 O 0.87165 0.87829 0.47666 0.0
C314 C 0.85789 0.86301 0.47658 0.0
C315 C 0.94062 0.91638 0.46874 0.0
C316 C 0.89649 0.87484 0.43954 0.0
C317 C 0.93283 0.84096 0.47091 0.0
O318 O 0.94068 0.8578 0.46629 0.0
O319 O 0.91281 0.83887 0.47205 0.0
O320 O 0.94937 0.90613 0.4598 0.0
O321 O 0.9227 0.90935 0.47294 0.0
O322 O 0.38352 0.63803 0.69472 0.0
Cd323 Cd 0.39009 0.63903 0.71329 0.0
Cd324 Cd 0.36582 0.67755 0.71055 0.0
O325 O 0.36294 0.66629 0.69274 0.0
O326 O 0.4038 0.6108 0.71577 0.0
O327 O 0.37385 0.6199 0.72501 0.0
C328 C 0.38831 0.60572 0.72295 0.0
C329 C 0.33616 0.69411 0.7194 0.0
C330 C 0.37202 0.65009 0.68809 0.0
C331 C 0.41167 0.68054 0.71942 0.0
O332 O 0.39471 0.68992 0.71607 0.0
O333 O 0.41285 0.66033 0.71933 0.0
O334 O 0.34698 0.70304 0.71075 0.0
O335 O 0.34193 0.67534 0.72294 0.0
O336 O 0.38639 0.13877 0.44677 0.0
Cd337 Cd 0.38923 0.14204 0.46556 0.0
Cd338 Cd 0.42537 0.11652 0.46087 0.0
O339 O 0.41235 0.11585 0.44336 0.0
O340 O 0.36191 0.1559 0.47017 0.0
O341 O 0.37064 0.12357 0.4764 0.0
C342 C 0.35688 0.13884 0.47607 0.0
C343 C 0.44052 0.08542 0.46884 0.0
C344 C 0.39679 0.1269 0.43946 0.0
C345 C 0.43199 0.16091 0.47123 0.0
O346 O 0.44008 0.14408 0.46673 0.0
O347 O 0.41192 0.16293 0.4721 0.0
O348 O 0.44945 0.09595 0.46007 0.0
O349 O 0.4224 0.09219 0.4729 0.0
O350 O 0.61507 0.63698 0.19527 0.0
Cd351 Cd 0.60944 0.63907 0.21391 0.0
Cd352 Cd 0.63618 0.67517 0.21079 0.0
O353 O 0.63833 0.66304 0.19312 0.0
O354 O 0.59615 0.611 0.21754 0.0
O355 O 0.62683 0.62111 0.22562 0.0
C356 C 0.61241 0.60661 0.22431 0.0
C357 C 0.66673 0.6907 0.21928 0.0
C358 C 0.62771 0.64771 0.18857 0.0
C359 C 0.59056 0.6817 0.21967 0.0
O360 O 0.60817 0.6896 0.21615 0.0
O361 O 0.58787 0.66164 0.21989 0.0
O362 O 0.65631 0.69966 0.21049 0.0
O363 O 0.6601 0.67242 0.22315 0.0
O364 O 0.11429 0.86624 0.94617 0.0
Cd365 Cd 0.11128 0.8619 0.96489 0.0
Cd366 Cd 0.07477 0.88715 0.96062 0.0
O367 O 0.08763 0.88849 0.94308 0.0
O368 O 0.13871 0.84832 0.96957 0.0
O369 O 0.12914 0.88017 0.97621 0.0
C370 C 0.14314 0.86513 0.97586 0.0
C371 C 0.05927 0.91782 0.96893 0.0
C372 C 0.1035 0.87807 0.93902 0.0
C373 C 0.06868 0.84228 0.97031 0.0
O374 O 0.06036 0.85929 0.96619 0.0
O375 O 0.08878 0.84037 0.97098 0.0
O376 O 0.05046 0.90747 0.96005 0.0
O377 O 0.07747 0.91113 0.97291 0.0
O378 O 0.88556 0.3639 0.69517 0.0
Cd379 Cd 0.89089 0.36229 0.71386 0.0
Cd380 Cd 0.86641 0.32475 0.71056 0.0
O381 O 0.86392 0.33653 0.69284 0.0
O382 O 0.90335 0.39081 0.71724 0.0
O383 O 0.87298 0.38008 0.72541 0.0
C384 C 0.887 0.39492 0.72399 0.0
C385 C 0.83638 0.30857 0.71924 0.0
C386 C 0.87377 0.35243 0.68837 0.0
C387 C 0.91199 0.32068 0.71976 0.0
O388 O 0.89503 0.3117 0.71604 0.0
O389 O 0.91338 0.34086 0.72006 0.0
O390 O 0.84705 0.29964 0.71053 0.0
O391 O 0.84249 0.32715 0.72293 0.0
O392 O 0.38696 0.86479 0.05022 0.0
Cd393 Cd 0.39015 0.86146 0.03144 0.0
Cd394 Cd 0.4269 0.88579 0.03657 0.0
O395 O 0.41337 0.88704 0.05392 0.0
O396 O 0.36288 0.84752 0.0268 0.0
O397 O 0.37161 0.87975 0.02044 0.0
C398 C 0.35789 0.86445 0.02078 0.0
C399 C 0.44248 0.91648 0.02836 0.0
C400 C 0.39743 0.87638 0.05766 0.0
C401 C 0.4327 0.84134 0.02635 0.0
O402 O 0.44117 0.85777 0.03111 0.0
O403 O 0.41262 0.84017 0.02506 0.0
O404 O 0.45116 0.90614 0.0373 0.0
O405 O 0.42439 0.90972 0.02426 0.0
O406 O 0.88429 0.63755 0.80234 0.0
Cd407 Cd 0.88996 0.63899 0.78369 0.0
Cd408 Cd 0.86579 0.67689 0.78685 0.0
O409 O 0.86306 0.66526 0.80459 0.0
O410 O 0.90241 0.61039 0.7805 0.0
O411 O 0.87226 0.6211 0.77207 0.0
C412 C 0.88622 0.60625 0.77364 0.0
C413 C 0.83601 0.6933 0.77804 0.0
C414 C 0.87262 0.64922 0.8091 0.0
C415 C 0.91149 0.68042 0.77777 0.0
O416 O 0.89458 0.68959 0.7814 0.0
O417 O 0.91271 0.66021 0.77755 0.0
O418 O 0.84667 0.70219 0.78676 0.0
O419 O 0.84198 0.67464 0.77441 0.0
O420 O 0.11407 0.13591 0.55057 0.0
Cd421 Cd 0.11048 0.13978 0.53186 0.0
Cd422 Cd 0.07458 0.1142 0.53657 0.0
O423 O 0.08798 0.11313 0.55397 0.0
O424 O 0.13762 0.15352 0.52679 0.0
O425 O 0.12821 0.12139 0.52053 0.0
C426 C 0.14206 0.1366 0.52062 0.0
C427 C 0.05945 0.08326 0.52839 0.0
C428 C 0.10373 0.12393 0.55786 0.0
C429 C 0.06752 0.15881 0.52676 0.0
O430 O 0.05954 0.14181 0.53111 0.0
O431 O 0.08757 0.16089 0.52581 0.0
O432 O 0.05068 0.09343 0.53735 0.0
O433 O 0.07741 0.09029 0.52425 0.0
O434 O 0.61571 0.36404 0.30277 0.0
Cd435 Cd 0.61027 0.36227 0.2841 0.0
Cd436 Cd 0.63666 0.3258 0.28727 0.0
O437 O 0.6385 0.3376 0.30503 0.0
O438 O 0.597 0.39041 0.28066 0.0
O439 O 0.62767 0.38048 0.27251 0.0
C440 C 0.61324 0.39494 0.27391 0.0
C441 C 0.66723 0.31022 0.27882 0.0
C442 C 0.628 0.35305 0.30954 0.0
C443 C 0.59114 0.31984 0.27806 0.0
O444 O 0.60862 0.31172 0.28163 0.0
O445 O 0.58862 0.33993 0.27795 0.0
O446 O 0.65661 0.30116 0.2875 0.0
O447 O 0.6608 0.32864 0.27506 0.0
C448 C 0.97246 0.55979 0.9698 0.0
C449 C 0.95279 0.56681 0.97446 0.0
C450 C 0.98353 0.54327 0.97554 0.0
C451 C 0.98872 0.51593 0.00543 0.0
H452 H 0.01904 0.47357 0.98624 0.0
C453 C 0.02736 0.44175 0.0274 0.0
C454 C 0.04721 0.43502 0.02286 0.0
C455 C 0.01614 0.45809 0.02159 0.0
C456 C 0.01089 0.48544 0.99173 0.0
H457 H 0.9291 0.56165 0.98867 0.0
H458 H 0.94836 0.53256 0.99866 0.0
H459 H 0.99804 0.50073 0.97575 0.0
H460 H 0.07101 0.44045 0.00873 0.0
H461 H 0.05144 0.46921 0.99861 0.0
H462 H 0.00156 0.50063 0.02141 0.0
C463 C 0.95534 0.54007 0.99063 0.0
C464 C 0.9988 0.50098 0.98572 0.0
C465 C 0.94422 0.55663 0.98486 0.0
C466 C 0.05576 0.44527 0.01246 0.0
C467 C 0.04447 0.46162 0.00661 0.0
C468 C 0.00079 0.50039 0.01144 0.0
C469 C 0.97522 0.53334 0.9861 0.0
C470 C 0.98758 0.51643 0.9925 0.0
C471 C 0.02446 0.46811 0.01107 0.0
C472 C 0.01202 0.48495 0.00466 0.0
H473 H 0.97956 0.56732 0.96181 0.0
H474 H 0.9989 0.53868 0.97189 0.0
H475 H 0.9806 0.52781 0.01092 0.0
H476 H 0.02027 0.43417 0.03538 0.0
H477 H 0.00067 0.46251 0.02518 0.0
C478 C 0.69565 0.69302 0.23524 0.0
C479 C 0.68515 0.70166 0.22496 0.0
C480 C 0.71225 0.7042 0.24093 0.0
C481 C 0.75093 0.74794 0.23577 0.0
H482 H 0.75261 0.75023 0.27145 0.0
C483 C 0.80716 0.80499 0.2621 0.0
C484 C 0.81781 0.79641 0.27234 0.0
C485 C 0.79073 0.79362 0.25637 0.0
C486 C 0.75248 0.7496 0.26148 0.0
H487 H 0.68406 0.72866 0.21249 0.0
H488 H 0.71275 0.7481 0.22243 0.0
H489 H 0.72515 0.72925 0.26122 0.0
H490 H 0.81935 0.76928 0.28471 0.0
H491 H 0.7909 0.74953 0.27472 0.0
H492 H 0.77823 0.76834 0.23603 0.0
C493 C 0.70839 0.73263 0.22604 0.0
C494 C 0.73678 0.73751 0.25562 0.0
C495 C 0.69184 0.7215 0.22038 0.0
C496 C 0.81146 0.7764 0.27685 0.0
C497 C 0.79505 0.76509 0.27116 0.0
C498 C 0.76662 0.76004 0.24163 0.0
C499 C 0.71871 0.72421 0.23644 0.0
C500 C 0.73579 0.73656 0.24269 0.0
C501 C 0.78458 0.77348 0.26081 0.0
C502 C 0.76759 0.76101 0.25456 0.0
H503 H 0.69088 0.67777 0.23899 0.0
H504 H 0.72005 0.69715 0.24884 0.0
H505 H 0.75081 0.74732 0.2258 0.0
H506 H 0.81167 0.82037 0.25841 0.0
H507 H 0.78281 0.80064 0.2485 0.0
C508 C 0.52751 0.44269 0.47012 0.0
C509 C 0.54698 0.43557 0.475 0.0
C510 C 0.51613 0.45899 0.47588 0.0
C511 C 0.5093 0.48517 0.50597 0.0
H512 H 0.48037 0.52852 0.48681 0.0
C513 C 0.47015 0.55891 0.52817 0.0
C514 C 0.45087 0.56635 0.5232 0.0
C515 C 0.48137 0.54247 0.52244 0.0
C516 C 0.48811 0.51636 0.49229 0.0
H517 H 0.57 0.44033 0.48963 0.0
H518 H 0.55016 0.469 0.49965 0.0
H519 H 0.5018 0.50166 0.47635 0.0
H520 H 0.42797 0.56199 0.50847 0.0
H521 H 0.44748 0.53303 0.49851 0.0
H522 H 0.4956 0.49984 0.52191 0.0
C523 C 0.5436 0.46175 0.49144 0.0
C524 C 0.50045 0.501 0.4863 0.0
C525 C 0.55505 0.44544 0.48564 0.0
C526 C 0.44279 0.55663 0.51252 0.0
C527 C 0.45405 0.54016 0.50677 0.0
C528 C 0.49694 0.50051 0.51196 0.0
C529 C 0.52391 0.46857 0.48667 0.0
C530 C 0.51121 0.48523 0.49307 0.0
C531 C 0.4736 0.53305 0.51159 0.0
C532 C 0.48621 0.51631 0.5052 0.0
H533 H 0.52081 0.43541 0.46195 0.0
H534 H 0.50092 0.46368 0.47204 0.0
H535 H 0.51707 0.47302 0.51145 0.0
H536 H 0.47687 0.56607 0.53637 0.0
H537 H 0.49647 0.53758 0.52633 0.0
C538 C 0.80777 0.30576 0.73535 0.0
C539 C 0.81823 0.29731 0.72501 0.0
C540 C 0.79142 0.29434 0.74112 0.0
C541 C 0.75303 0.25041 0.73605 0.0
H542 H 0.75222 0.24745 0.77173 0.0
C543 C 0.69685 0.19327 0.76233 0.0
C544 C 0.68658 0.20168 0.77274 0.0
C545 C 0.71334 0.20457 0.7566 0.0
C546 C 0.7521 0.24827 0.76176 0.0
H547 H 0.81948 0.27038 0.71249 0.0
H548 H 0.79116 0.25053 0.72254 0.0
H549 H 0.77937 0.2687 0.76141 0.0
H550 H 0.6858 0.22838 0.78544 0.0
H551 H 0.71429 0.24802 0.77545 0.0
H552 H 0.72574 0.23002 0.7364 0.0
C553 C 0.79541 0.26604 0.72615 0.0
C554 C 0.76763 0.2605 0.75585 0.0
C555 C 0.81174 0.2774 0.72043 0.0
C556 C 0.6934 0.22139 0.77745 0.0
C557 C 0.70985 0.23264 0.77175 0.0
C558 C 0.73748 0.2382 0.74197 0.0
C559 C 0.78515 0.27427 0.73662 0.0
C560 C 0.76829 0.26171 0.74292 0.0
C561 C 0.71991 0.22447 0.7612 0.0
C562 C 0.73682 0.23699 0.75489 0.0
H563 H 0.81238 0.32107 0.7391 0.0
H564 H 0.78365 0.30124 0.74908 0.0
H565 H 0.75293 0.25123 0.72608 0.0
H566 H 0.69198 0.17813 0.75848 0.0
H567 H 0.72095 0.1977 0.74858 0.0
C568 C 0.94473 0.44444 0.51231 0.0
C569 C 0.95317 0.43416 0.52273 0.0
C570 C 0.95603 0.46088 0.50656 0.0
C571 C 0.99967 0.49967 0.5116 0.0
H572 H 0.0026 0.50026 0.47592 0.0
C573 C 0.05654 0.55586 0.48514 0.0
C574 C 0.04798 0.56617 0.47477 0.0
C575 C 0.04534 0.53934 0.49089 0.0
C576 C 0.00179 0.50044 0.48589 0.0
H577 H 0.9799 0.43337 0.53539 0.0
H578 H 0.99955 0.46183 0.52534 0.0
H579 H 0.98153 0.47304 0.48631 0.0
H580 H 0.02115 0.56695 0.46218 0.0
H581 H 0.00168 0.53835 0.47222 0.0
H582 H 0.01993 0.52707 0.51117 0.0
C583 C 0.98415 0.45739 0.52167 0.0
C584 C 0.98966 0.48487 0.49184 0.0
C585 C 0.9729 0.44097 0.5274 0.0
C586 C 0.02823 0.55933 0.47014 0.0
C587 C 0.01709 0.54283 0.47586 0.0
C588 C 0.0118 0.51524 0.50564 0.0
C589 C 0.97596 0.46742 0.51112 0.0
C590 C 0.98845 0.4843 0.50477 0.0
C591 C 0.0254 0.53276 0.48637 0.0
C592 C 0.01299 0.51583 0.49271 0.0
H593 H 0.92956 0.43958 0.50849 0.0
H594 H 0.94915 0.46848 0.49853 0.0
H595 H 0.99886 0.49986 0.52157 0.0
H596 H 0.07172 0.56075 0.48892 0.0
H597 H 0.0523 0.53172 0.49888 0.0
C598 C 0.69352 0.78074 0.71942 0.0
C599 C 0.68641 0.8002 0.72432 0.0
C600 C 0.70999 0.76948 0.72507 0.0
C601 C 0.75492 0.77477 0.74677 0.0
H602 H 0.748 0.71369 0.75032 0.0
C603 C 0.81154 0.7246 0.77676 0.0
C604 C 0.81805 0.7047 0.77216 0.0
C605 C 0.7954 0.73609 0.77094 0.0
C606 C 0.75031 0.73068 0.74927 0.0
H607 H 0.69139 0.82336 0.73885 0.0
H608 H 0.72022 0.8036 0.74878 0.0
H609 H 0.72047 0.73447 0.74004 0.0
H610 H 0.8125 0.68115 0.75792 0.0
H611 H 0.78437 0.70134 0.74765 0.0
H612 H 0.78479 0.77099 0.75598 0.0
C613 C 0.71309 0.79714 0.7405 0.0
C614 C 0.73452 0.74261 0.74338 0.0
C615 C 0.69653 0.80843 0.73484 0.0
C616 C 0.80779 0.69639 0.76171 0.0
C617 C 0.79163 0.70794 0.75586 0.0
C618 C 0.77074 0.76284 0.75264 0.0
C619 C 0.7198 0.77738 0.73577 0.0
C620 C 0.73664 0.76479 0.74206 0.0
C621 C 0.78537 0.72802 0.76035 0.0
C622 C 0.76861 0.74065 0.75399 0.0
H623 H 0.68615 0.77397 0.71129 0.0
H624 H 0.71504 0.75451 0.72106 0.0
H625 H 0.75717 0.79177 0.74575 0.0
H626 H 0.81902 0.73143 0.78483 0.0
H627 H 0.79072 0.7513 0.77478 0.0
C628 C 0.44561 0.44463 0.98549 0.0
C629 C 0.4536 0.43472 0.97485 0.0
C630 C 0.45706 0.46099 0.99122 0.0
C631 C 0.51168 0.48254 0.99381 0.0
H632 H 0.48333 0.53211 0.00733 0.0
C633 C 0.5575 0.55609 0.01225 0.0
C634 C 0.54946 0.56587 0.02293 0.0
C635 C 0.54608 0.53978 0.00645 0.0
C636 C 0.49148 0.51825 0.00373 0.0
H637 H 0.4796 0.43465 0.96167 0.0
H638 H 0.49933 0.46327 0.97153 0.0
H639 H 0.46244 0.50473 0.99697 0.0
H640 H 0.52342 0.56577 0.03607 0.0
H641 H 0.50375 0.53725 0.02608 0.0
H642 H 0.54072 0.49606 0.00057 0.0
C643 C 0.48443 0.45817 0.97561 0.0
C644 C 0.47949 0.50256 0.99778 0.0
C645 C 0.47302 0.44185 0.9699 0.0
C646 C 0.53004 0.55867 0.02783 0.0
C647 C 0.51866 0.5424 0.02204 0.0
C648 C 0.52367 0.49823 -0.00025 0.0
C649 C 0.47675 0.46777 0.98642 0.0
C650 C 0.48945 0.48451 0.99275 0.0
C651 C 0.52638 0.53294 0.0112 0.0
C652 C 0.51371 0.51626 0.0048 0.0
H653 H 0.43073 0.43945 0.98956 0.0
H654 H 0.45077 0.46794 -0.0004 0.0
H655 H 0.51983 0.46867 0.99022 0.0
H656 H 0.57238 0.56133 0.00822 0.0
H657 H 0.55241 0.53293 0.99805 0.0
C658 C 0.81196 0.22464 0.22115 0.0
C659 C 0.818 0.20443 0.22548 0.0
C660 C 0.7956 0.23598 0.22687 0.0
C661 C 0.76676 0.24047 0.25631 0.0
H662 H 0.72596 0.27233 0.23682 0.0
C663 C 0.69205 0.2792 0.27756 0.0
C664 C 0.68564 0.29924 0.27314 0.0
C665 C 0.70858 0.26807 0.27188 0.0
C666 C 0.7374 0.26376 0.2424 0.0
H667 H 0.81139 0.18014 0.23914 0.0
H668 H 0.78262 0.19992 0.24913 0.0
H669 H 0.75336 0.25136 0.22652 0.0
H670 H 0.69185 0.32347 0.25938 0.0
H671 H 0.72096 0.30407 0.24949 0.0
H672 H 0.75081 0.25287 0.27219 0.0
C673 C 0.79075 0.20707 0.24136 0.0
C674 C 0.75307 0.25169 0.2365 0.0
C675 C 0.80712 0.19567 0.23559 0.0
C676 C 0.69639 0.30806 0.263 0.0
C677 C 0.71297 0.29688 0.25728 0.0
C678 C 0.7511 0.25256 0.26221 0.0
C679 C 0.78488 0.22741 0.2371 0.0
C680 C 0.76793 0.23989 0.24338 0.0
C681 C 0.71915 0.27667 0.26161 0.0
C682 C 0.73621 0.26433 0.25533 0.0
H683 H 0.82003 0.23189 0.21339 0.0
H684 H 0.79169 0.25169 0.22345 0.0
H685 H 0.77818 0.23187 0.26188 0.0
H686 H 0.68407 0.27189 0.28534 0.0
H687 H 0.71272 0.25244 0.27536 0.0
C688 C 0.31081 0.27598 0.77761 0.0
C689 C 0.31745 0.29587 0.77308 0.0
C690 C 0.29465 0.26461 0.77172 0.0
C691 C 0.2497 0.27034 0.75002 0.0
H692 H 0.25664 0.20933 0.74612 0.0
C693 C 0.1932 0.22077 0.7197 0.0
C694 C 0.1862 0.20112 0.72439 0.0
C695 C 0.20954 0.232 0.7255 0.0
C696 C 0.25435 0.22631 0.74725 0.0
H697 H 0.31209 0.31957 0.7589 0.0
H698 H 0.2839 0.29962 0.74853 0.0
H699 H 0.28418 0.22995 0.75653 0.0
H700 H 0.19119 0.17762 0.73874 0.0
H701 H 0.21977 0.19732 0.74894 0.0
H702 H 0.21989 0.26671 0.74072 0.0
C703 C 0.29109 0.29291 0.75672 0.0
C704 C 0.27013 0.23814 0.75322 0.0
C705 C 0.30729 0.30432 0.76263 0.0
C706 C 0.19627 0.19269 0.73487 0.0
C707 C 0.21267 0.20396 0.74069 0.0
C708 C 0.23394 0.25852 0.74404 0.0
C709 C 0.28473 0.27282 0.76114 0.0
C710 C 0.26798 0.2603 0.75469 0.0
C711 C 0.21931 0.22387 0.73615 0.0
C712 C 0.23608 0.23636 0.74257 0.0
H713 H 0.31822 0.26903 0.78567 0.0
H714 H 0.28988 0.24938 0.7755 0.0
H715 H 0.24739 0.28732 0.75116 0.0
H716 H 0.18587 0.22769 0.7116 0.0
H717 H 0.21453 0.24709 0.72163 0.0
C718 C 0.1966 0.69354 0.26244 0.0
C719 C 0.18629 0.7019 0.27286 0.0
C720 C 0.21303 0.70492 0.25671 0.0
C721 C 0.23395 0.75964 0.25348 0.0
H722 H 0.28458 0.73144 0.24124 0.0
C723 C 0.30724 0.806 0.23523 0.0
C724 C 0.31761 0.79762 0.22484 0.0
C725 C 0.29104 0.79446 0.24108 0.0
C726 C 0.27043 0.73953 0.24448 0.0
H727 H 0.18555 0.72847 0.28565 0.0
H728 H 0.21423 0.74808 0.27577 0.0
H729 H 0.25703 0.71062 0.25151 0.0
H730 H 0.31876 0.77078 0.21226 0.0
H731 H 0.29044 0.75091 0.2223 0.0
H732 H 0.2473 0.78854 0.24643 0.0
C733 C 0.20943 0.73295 0.27188 0.0
C734 C 0.25464 0.72759 0.25037 0.0
C735 C 0.19307 0.7216 0.27759 0.0
C736 C 0.31119 0.77767 0.22029 0.0
C737 C 0.29503 0.76618 0.2261 0.0
C738 C 0.24972 0.77159 0.24758 0.0
C739 C 0.21944 0.72489 0.26129 0.0
C740 C 0.23623 0.7375 0.25496 0.0
C741 C 0.28489 0.77432 0.23664 0.0
C742 C 0.26815 0.76168 0.243 0.0
H743 H 0.1917 0.67843 0.25855 0.0
H744 H 0.22032 0.69833 0.24851 0.0
H745 H 0.2198 0.76774 0.25673 0.0
H746 H 0.31187 0.82129 0.23899 0.0
H747 H 0.28368 0.80112 0.24924 0.0
C748 C 0.31089 0.22465 0.27699 0.0
C749 C 0.31749 0.20488 0.27227 0.0
C750 C 0.29466 0.23615 0.27127 0.0
C751 C 0.26751 0.24256 0.24145 0.0
H752 H 0.22499 0.27212 0.26091 0.0
C753 C 0.19325 0.28152 0.2198 0.0
C754 C 0.18601 0.30093 0.22471 0.0
C755 C 0.20982 0.27037 0.22544 0.0
C756 C 0.23692 0.26421 0.25534 0.0
H757 H 0.31197 0.18152 0.25791 0.0
H758 H 0.28343 0.20161 0.24791 0.0
H759 H 0.2521 0.25078 0.2712 0.0
H760 H 0.19083 0.3241 0.23925 0.0
H761 H 0.22003 0.30471 0.24905 0.0
H762 H 0.25236 0.25601 0.22559 0.0
C763 C 0.29102 0.20829 0.256 0.0
C764 C 0.25242 0.25192 0.26124 0.0
C765 C 0.30726 0.19671 0.26177 0.0
C766 C 0.19603 0.30918 0.23525 0.0
C767 C 0.21265 0.29799 0.24091 0.0
C768 C 0.25203 0.25488 0.23555 0.0
C769 C 0.28463 0.22821 0.26065 0.0
C770 C 0.26788 0.24093 0.25436 0.0
C771 C 0.21959 0.27834 0.23614 0.0
C772 C 0.23651 0.26583 0.24243 0.0
H773 H 0.31846 0.23144 0.28505 0.0
H774 H 0.29031 0.25154 0.275 0.0
H775 H 0.27941 0.23459 0.23589 0.0
H776 H 0.18586 0.27466 0.21171 0.0
H777 H 0.21456 0.25518 0.2216 0.0
C778 C 0.19314 0.78103 0.77762 0.0
C779 C 0.18614 0.80067 0.77291 0.0
C780 C 0.20978 0.77 0.77199 0.0
C781 C 0.23774 0.7649 0.74227 0.0
H782 H 0.27945 0.73422 0.76174 0.0
C783 C 0.31199 0.72562 0.72078 0.0
C784 C 0.31821 0.70556 0.72526 0.0
C785 C 0.29576 0.73708 0.72655 0.0
C786 C 0.26777 0.74249 0.75618 0.0
H787 H 0.19149 0.82438 0.75873 0.0
H788 H 0.22083 0.80519 0.74894 0.0
H789 H 0.25222 0.75538 0.77205 0.0
H790 H 0.31206 0.68166 0.73923 0.0
H791 H 0.28353 0.70168 0.74929 0.0
H792 H 0.25333 0.75203 0.7264 0.0
C793 C 0.21319 0.7982 0.75691 0.0
C794 C 0.25218 0.75466 0.76208 0.0
C795 C 0.19649 0.80927 0.76257 0.0
C796 C 0.30764 0.69708 0.73556 0.0
C797 C 0.29141 0.70861 0.74137 0.0
C798 C 0.25335 0.75276 0.73637 0.0
C799 C 0.21989 0.77833 0.76149 0.0
C800 C 0.23694 0.76598 0.75521 0.0
C801 C 0.28536 0.72879 0.73695 0.0
C802 C 0.26853 0.74139 0.74325 0.0
H803 H 0.18549 0.77391 0.78556 0.0
H804 H 0.21433 0.75463 0.77567 0.0
H805 H 0.22602 0.7731 0.7367 0.0
H806 H 0.31983 0.73266 0.71288 0.0
H807 H 0.29169 0.75267 0.723 0.0
C808 C 0.55492 0.94553 0.51221 0.0
C809 C 0.54643 0.93521 0.5226 0.0
C810 C 0.54351 0.96177 0.50634 0.0
C811 C 0.4887 0.98253 0.50277 0.0
H812 H 0.51709 0.03306 0.49053 0.0
C813 C 0.44299 0.05646 0.48477 0.0
C814 C 0.45143 0.06685 0.47439 0.0
C815 C 0.45429 0.03996 0.49047 0.0
C816 C 0.50895 0.01893 0.49377 0.0
H817 H 0.51953 0.93425 0.53514 0.0
H818 H 0.49988 0.96267 0.52504 0.0
H819 H 0.53776 0.00554 0.50091 0.0
H820 H 0.47807 0.06762 0.46165 0.0
H821 H 0.49754 0.03879 0.47147 0.0
H822 H 0.45988 0.99595 0.49565 0.0
C823 C 0.51514 0.95798 0.52128 0.0
C824 C 0.52081 0.00315 0.49972 0.0
C825 C 0.52651 0.94178 0.52712 0.0
C826 C 0.47114 0.06004 0.46967 0.0
C827 C 0.4824 0.0436 0.47535 0.0
C828 C 0.47683 0.99831 0.49682 0.0
C829 C 0.52338 0.96803 0.51074 0.0
C830 C 0.51083 0.98477 0.50431 0.0
C831 C 0.47427 0.03353 0.48591 0.0
C832 C 0.48682 0.01669 0.49224 0.0
H833 H 0.57019 0.94078 0.50847 0.0
H834 H 0.55024 0.96907 0.49818 0.0
H835 H 0.48055 0.9684 0.50601 0.0
H836 H 0.42789 0.06137 0.48865 0.0
H837 H 0.44765 0.03263 0.49864 0.0
C838 C 0.0562 0.9459 0.98533 0.0
C839 C 0.04815 0.93608 0.97467 0.0
C840 C 0.04468 0.96209 0.99119 0.0
C841 C 0.00125 0.0011 0.98619 0.0
H842 H 0.99662 0.99978 0.02181 0.0
C843 C 0.94345 0.05633 0.01258 0.0
C844 C 0.95159 0.06613 0.02323 0.0
C845 C 0.95474 0.0399 0.00681 0.0
C846 C 0.9979 1.00049 0.01187 0.0
H847 H 0.0219 0.93586 0.96166 0.0
H848 H 0.00189 0.9639 0.97187 0.0
H849 H 0.0182 0.97313 0.01127 0.0
H850 H 0.97771 0.06599 0.03632 0.0
H851 H 0.99735 0.03755 0.02625 0.0
H852 H 0.98099 0.02848 0.98678 0.0
C853 C 0.01715 0.95928 0.97567 0.0
C854 C 0.01032 0.98525 0.00583 0.0
C855 C 0.0286 0.94311 0.96985 0.0
C856 C 0.97095 0.05877 0.02814 0.0
C857 C 0.98219 0.04237 0.0224 0.0
C858 C 0.98884 0.01635 0.99223 0.0
C859 C 0.02492 0.96883 0.98647 0.0
C860 C 0.01215 0.98537 0.99292 0.0
C861 C 0.97437 0.03289 0.01158 0.0
C862 C 0.98702 0.01624 0.00514 0.0
H863 H 0.07121 0.94085 0.98927 0.0
H864 H 0.05123 0.96932 -0.00059 0.0
H865 H 0.00254 0.00182 0.97625 0.0
H866 H 0.92858 0.06162 0.00857 0.0
H867 H 0.94814 0.03273 0.99858 0.0
C868 C 0.53012 0.05863 0.96965 0.0
C869 C 0.5496 0.06575 0.97451 0.0
C870 C 0.51872 0.04238 0.97544 0.0
C871 C 0.52374 0.99809 0.99765 0.0
H872 H 0.46256 0.00483 0.00061 0.0
C873 C 0.4731 0.94185 0.0276 0.0
C874 C 0.45361 0.93482 0.02271 0.0
C875 C 0.48455 0.95813 0.02187 0.0
C876 C 0.47959 0.00259 -0.00025 0.0
H877 H 0.57262 0.06107 0.98915 0.0
H878 H 0.55262 0.03268 -0.00068 0.0
H879 H 0.48348 0.03216 0.99023 0.0
H880 H 0.43063 0.93969 0.00808 0.0
H881 H 0.45071 0.96809 0.99799 0.0
H882 H 0.51986 0.96851 0.00716 0.0
C883 C 0.54626 0.03959 0.99096 0.0
C884 C 0.49159 0.01825 0.99379 0.0
C885 C 0.55769 0.05589 0.98515 0.0
C886 C 0.44557 0.94479 0.0121 0.0
C887 C 0.45705 0.9611 0.00634 0.0
C888 C 0.51174 0.98243 0.0036 0.0
C889 C 0.5265 0.03284 0.98624 0.0
C890 C 0.51381 0.01618 0.99265 0.0
C891 C 0.47681 0.96778 0.01108 0.0
C892 C 0.48952 0.98449 0.00473 0.0
H893 H 0.52346 0.0658 0.96143 0.0
H894 H 0.50377 0.03729 0.97143 0.0
H895 H 0.54077 0.99586 0.99678 0.0
H896 H 0.47972 0.9346 0.03581 0.0
H897 H 0.4995 0.96315 0.0259 0.0
C898 C 0.02915 0.05751 0.52766 0.0
C899 C 0.04849 0.06484 0.52271 0.0
C900 C 0.01778 0.04123 0.52189 0.0
C901 C 0.01065 0.01551 0.49168 0.0
H902 H 0.98181 0.97199 0.51076 0.0
C903 C 0.9709 0.94217 0.46937 0.0
C904 C 0.95158 0.93486 0.47435 0.0
C905 C 0.9823 0.95847 0.47511 0.0
C906 C 0.98953 0.98419 0.50531 0.0
H907 H 0.07131 0.06046 0.50794 0.0
H908 H 0.0515 0.03179 0.49788 0.0
H909 H 0.00347 0.99861 0.52125 0.0
H910 H 0.9288 0.93932 0.48914 0.0
H911 H 0.94865 0.96802 0.49913 0.0
H912 H 0.99671 0.00109 0.47573 0.0
C913 C 0.04502 0.03888 0.50617 0.0
C914 C 0.002 0.99942 0.51132 0.0
C915 C 0.05645 0.05517 0.51198 0.0
C916 C 0.94364 0.94458 0.48507 0.0
C917 C 0.9551 0.9609 0.49085 0.0
C918 C 0.99817 1.00028 0.48567 0.0
C919 C 0.02544 0.03187 0.511 0.0
C920 C 0.0127 0.01528 0.50458 0.0
C921 C 0.97468 0.96787 0.486 0.0
C922 C 0.98746 0.98444 0.49241 0.0
H923 H 0.02252 0.06463 0.53591 0.0
H924 H 0.00265 0.03641 0.52578 0.0
H925 H 0.01836 0.02772 0.48623 0.0
H926 H 0.9775 0.93501 0.46113 0.0
H927 H 0.99741 0.96327 0.4712 0.0
C928 C 0.94045 0.19844 0.02108 0.0
C929 C 0.94836 0.17779 0.02304 0.0
C930 C 0.95439 0.21549 0.0192 0.0
C931 C 0.01004 0.23094 0.02563 0.0
H932 H 0.99592 0.2799 0.00546 0.0
C933 C 0.06634 0.30295 0.02169 0.0
C934 C 0.05666 0.32279 0.02385 0.0
C935 C 0.05393 0.28484 0.0196 0.0
C936 C 1.00005 0.26632 0.01113 0.0
H937 H 0.97706 0.15863 0.02383 0.0
H938 H 0.00131 0.1882 0.02022 0.0
H939 H 0.9728 0.24863 0.00518 0.0
H940 H 0.02637 0.33931 0.02493 0.0
H941 H 0.00478 0.3077 0.02124 0.0
H942 H 0.03718 0.24869 0.03164 0.0
C943 C 0.98437 0.19138 0.0205 0.0
C944 C 0.98678 0.24844 0.01101 0.0
C945 C 0.97046 0.17439 0.0225 0.0
C946 C 0.03434 0.32426 0.02335 0.0
C947 C 0.02195 0.30618 0.02116 0.0
C948 C 0.02336 0.24873 0.02567 0.0
C949 C 0.97656 0.21223 0.01912 0.0
C950 C 0.99146 0.23063 0.0184 0.0
C951 C 0.0316 0.28621 0.01951 0.0
C952 C 0.01836 0.26672 0.01856 0.0
H953 H 0.92352 0.20161 0.02147 0.0
H954 H 0.94778 0.23133 0.01831 0.0
H955 H 0.01397 0.21774 0.03163 0.0
H956 H 0.08349 0.30126 0.02197 0.0
H957 H 0.0618 0.26967 0.01823 0.0
C958 C 0.07789 0.71915 0.27288 0.0
C959 C 0.07436 0.69711 0.27378 0.0
C960 C 0.06092 0.73313 0.27096 0.0
C961 C 0.00374 0.73584 0.26203 0.0
H962 H 0.0044 0.7867 0.2823 0.0
C963 C 0.92856 0.7847 0.27382 0.0
C964 C 0.93033 0.807 0.27442 0.0
C965 C 0.94651 0.77206 0.27176 0.0
C966 C 0.0041 0.77277 0.27642 0.0
H967 H 0.05028 0.6724 0.2729 0.0
H968 H 0.02061 0.69681 0.26981 0.0
H969 H 0.03507 0.76311 0.28229 0.0
H970 H 0.95229 0.83353 0.27285 0.0
H971 H 0.98364 0.81142 0.26926 0.0
H972 H 0.97238 0.7453 0.2565 0.0
C973 C 0.03655 0.7033 0.2704 0.0
C974 C 0.02172 0.75922 0.27639 0.0
C975 C 0.05356 0.68929 0.27224 0.0
C976 C 0.95036 0.8164 0.27249 0.0
C977 C 0.96835 0.80374 0.27049 0.0
C978 C 0.98605 0.74937 0.26211 0.0
C979 C 0.03997 0.72543 0.26999 0.0
C980 C 0.0217 0.74047 0.2693 0.0
C981 C 0.96666 0.78142 0.2703 0.0
C982 C 0.98597 0.76787 0.2694 0.0
H983 H 0.09375 0.7257 0.27389 0.0
H984 H 0.06421 0.75003 0.27042 0.0
H985 H 0.0033 0.72171 0.25632 0.0
H986 H 0.91337 0.77691 0.27523 0.0
H987 H 0.94471 0.75491 0.27177 0.0
C988 C 0.47011 0.67466 0.52271 0.0
C989 C 0.44801 0.67804 0.52318 0.0
C990 C 0.48403 0.69164 0.52068 0.0
C991 C 0.48641 0.74858 0.51095 0.0
H992 H 0.53681 0.74912 0.53159 0.0
C993 C 0.53392 0.82456 0.52304 0.0
C994 C 0.55624 0.8231 0.52353 0.0
C995 C 0.52154 0.80645 0.5209 0.0
C996 C 0.52299 0.74907 0.52562 0.0
H997 H 0.42316 0.70183 0.52149 0.0
H998 H 0.44742 0.73154 0.5183 0.0
H999 H 0.5136 0.71816 0.53172 0.0
H1000 H 0.58308 0.80158 0.52169 0.0
H1001 H 0.56141 0.76995 0.51804 0.0
H1002 H 0.49554 0.77997 0.50527 0.0
C1003 C 0.45404 0.71571 0.51925 0.0
C1004 C 0.50968 0.73128 0.52566 0.0
C1005 C 0.4401 0.69867 0.52115 0.0
C1006 C 0.56593 0.80326 0.52141 0.0
C1007 C 0.55353 0.78512 0.51937 0.0
C1008 C 0.49967 0.76647 0.511 0.0
C1009 C 0.4762 0.71247 0.51922 0.0
C1010 C 0.49109 0.73087 0.51843 0.0
C1011 C 0.5312 0.78647 0.5193 0.0
C1012 C 0.51798 0.76697 0.51843 0.0
H1013 H 0.47672 0.65891 0.52409 0.0
H1014 H 0.50096 0.68846 0.52044 0.0
H1015 H 0.47243 0.74868 0.50512 0.0
H1016 H 0.52594 0.83961 0.52459 0.0
H1017 H 0.50436 0.80796 0.52099 0.0
C1018 C 0.57774 0.21877 0.77361 0.0
C1019 C 0.57439 0.1967 0.77454 0.0
C1020 C 0.56064 0.23262 0.77181 0.0
C1021 C 0.50325 0.23485 0.76329 0.0
H1022 H 0.50399 0.28589 0.7834 0.0
C1023 C 0.42803 0.28352 0.77533 0.0
C1024 C 0.42973 0.30584 0.77574 0.0
C1025 C 0.44599 0.27091 0.77327 0.0
C1026 C 0.50366 0.27189 0.77757 0.0
H1027 H 0.55046 0.17182 0.77388 0.0
H1028 H 0.52056 0.19601 0.77102 0.0
H1029 H 0.5348 0.26249 0.78326 0.0
H1030 H 0.45158 0.33241 0.77386 0.0
H1031 H 0.48295 0.31033 0.77028 0.0
H1032 H 0.47172 0.24406 0.75794 0.0
C1033 C 0.53646 0.20262 0.77148 0.0
C1034 C 0.52136 0.25846 0.77747 0.0
C1035 C 0.55361 0.18873 0.77318 0.0
C1036 C 0.44971 0.31527 0.77365 0.0
C1037 C 0.4677 0.30263 0.77166 0.0
C1038 C 0.48547 0.24826 0.76345 0.0
C1039 C 0.53972 0.22477 0.77101 0.0
C1040 C 0.52132 0.23967 0.77042 0.0
C1041 C 0.46609 0.28031 0.77163 0.0
C1042 C 0.48542 0.26682 0.77068 0.0
H1043 H 0.59358 0.22542 0.77448 0.0
H1044 H 0.56379 0.24954 0.77123 0.0
H1045 H 0.5028 0.22068 0.75761 0.0
H1046 H 0.41288 0.27572 0.77686 0.0
H1047 H 0.44426 0.25375 0.77341 0.0
C1048 C 0.96925 0.82651 0.47512 0.0
C1049 C 0.94717 0.82319 0.4743 0.0
C1050 C 0.98304 0.80944 0.47718 0.0
C1051 C 0.98495 0.75223 0.48638 0.0
H1052 H 0.03639 0.75237 0.46662 0.0
C1053 C 0.03363 0.67677 0.47458 0.0
C1054 C 0.05596 0.67842 0.47447 0.0
C1055 C 0.02099 0.69472 0.47665 0.0
C1056 C 0.02227 0.75222 0.47235 0.0
H1057 H 0.92221 0.79942 0.47539 0.0
H1058 H 0.94628 0.76955 0.47863 0.0
H1059 H 0.01309 0.78324 0.46635 0.0
H1060 H 0.0825 0.70013 0.47694 0.0
H1061 H 0.06038 0.73148 0.48047 0.0
H1062 H 0.99391 0.72072 0.49196 0.0
C1063 C 0.95296 0.78539 0.47793 0.0
C1064 C 0.00889 0.76996 0.47222 0.0
C1065 C 0.93914 0.80252 0.47601 0.0
C1066 C 0.06536 0.69829 0.47693 0.0
C1067 C 0.0527 0.71628 0.47889 0.0
C1068 C 0.99827 0.73438 0.48641 0.0
C1069 C 0.97513 0.78858 0.47832 0.0
C1070 C 0.98996 0.77015 0.47915 0.0
C1071 C 0.03039 0.71475 0.47855 0.0
C1072 C 0.01698 0.73414 0.47931 0.0
H1073 H 0.97594 0.84229 0.47399 0.0
H1074 H 0.99997 0.81258 0.4777 0.0
H1075 H 0.97068 0.75193 0.49197 0.0
H1076 H 0.02587 0.66169 0.47277 0.0
H1077 H 0.00384 0.69308 0.47624 0.0
C1078 C 0.5538 0.81066 0.72585 0.0
C1079 C 0.57455 0.80306 0.72383 0.0
C1080 C 0.53695 0.79646 0.72769 0.0
C1081 C 0.52205 0.74089 0.72084 0.0
H1082 H 0.47351 0.7536 0.74166 0.0
C1083 C 0.45057 0.68377 0.72438 0.0
C1084 C 0.43055 0.69341 0.72281 0.0
C1085 C 0.46869 0.69619 0.72646 0.0
C1086 C 0.48696 0.74987 0.7358 0.0
H1087 H 0.59407 0.7746 0.72287 0.0
H1088 H 0.56482 0.74991 0.72634 0.0
H1089 H 0.50448 0.77712 0.74193 0.0
H1090 H 0.41376 0.72362 0.72277 0.0
H1091 H 0.44534 0.74521 0.72638 0.0
H1092 H 0.50445 0.71382 0.71459 0.0
C1093 C 0.56143 0.76682 0.72618 0.0
C1094 C 0.50467 0.76336 0.73593 0.0
C1095 C 0.57823 0.78099 0.72425 0.0
C1096 C 0.42894 0.71567 0.72388 0.0
C1097 C 0.44702 0.72805 0.72603 0.0
C1098 C 0.50441 0.72737 0.72077 0.0
C1099 C 0.5405 0.77434 0.72763 0.0
C1100 C 0.52232 0.7592 0.72832 0.0
C1101 C 0.46715 0.71849 0.72712 0.0
C1102 C 0.48655 0.73187 0.72811 0.0
H1103 H 0.5504 0.82756 0.72557 0.0
H1104 H 0.52102 0.80283 0.72865 0.0
H1105 H 0.53515 0.73738 0.71469 0.0
H1106 H 0.45238 0.66666 0.72365 0.0
H1107 H 0.48397 0.68836 0.72739 0.0
C1108 C 0.56344 0.19841 0.97491 0.0
C1109 C 0.55522 0.17772 0.97364 0.0
C1110 C 0.54981 0.2157 0.97684 0.0
C1111 C 0.49361 0.23121 0.97206 0.0
H1112 H 0.50992 0.28101 0.99096 0.0
C1113 C 0.43745 0.30296 0.97747 0.0
C1114 C 0.44662 0.32278 0.97461 0.0
C1115 C 0.45027 0.28504 0.97926 0.0
C1116 C 0.50518 0.2672 0.98564 0.0
H1117 H 0.52635 0.15878 0.9741 0.0
H1118 H 0.50268 0.18876 0.97783 0.0
H1119 H 0.53308 0.24976 0.99079 0.0
H1120 H 0.47652 0.33951 0.97201 0.0
H1121 H 0.49885 0.30823 0.9752 0.0
H1122 H 0.46579 0.24867 0.96689 0.0
C1123 C 0.51958 0.19179 0.97695 0.0
C1124 C 0.51847 0.24932 0.9855 0.0
C1125 C 0.53318 0.17456 0.97489 0.0
C1126 C 0.46893 0.32447 0.97414 0.0
C1127 C 0.48175 0.30658 0.97604 0.0
C1128 C 0.48027 0.24898 0.9723 0.0
C1129 C 0.52766 0.21264 0.97768 0.0
C1130 C 0.51296 0.23118 0.97859 0.0
C1131 C 0.47253 0.2866 0.97835 0.0
C1132 C 0.48602 0.26725 0.97897 0.0
H1133 H 0.58034 0.2014 0.97396 0.0
H1134 H 0.5566 0.23153 0.97721 0.0
H1135 H 0.48902 0.21775 0.96642 0.0
H1136 H 0.42033 0.30111 0.97794 0.0
H1137 H 0.44276 0.26988 0.98116 0.0
C1138 C 0.07778 0.28123 0.2242 0.0
C1139 C 0.07403 0.30328 0.22376 0.0
C1140 C 0.06101 0.267 0.22612 0.0
C1141 C 0.00433 0.2634 0.23596 0.0
H1142 H 0.00423 0.21359 0.21484 0.0
C1143 C 0.92878 0.21509 0.22435 0.0
C1144 C 0.93051 0.19283 0.22333 0.0
C1145 C 0.94681 0.2276 0.22641 0.0
C1146 C 0.00416 0.22722 0.22095 0.0
H1147 H 0.04979 0.32771 0.22543 0.0
H1148 H 0.02048 0.30289 0.22851 0.0
H1149 H 0.03479 0.23733 0.21475 0.0
H1150 H 0.9525 0.16622 0.22418 0.0
H1151 H 0.984 0.18814 0.22777 0.0
H1152 H 0.97328 0.25352 0.24182 0.0
C1153 C 0.03643 0.29657 0.22757 0.0
C1154 C 0.02171 0.24085 0.22092 0.0
C1155 C 0.05324 0.31082 0.22573 0.0
C1156 C 0.9506 0.18332 0.22487 0.0
C1157 C 0.96867 0.19587 0.22686 0.0
C1158 C 0.9867 0.2498 0.23594 0.0
C1159 C 0.04006 0.27446 0.22756 0.0
C1160 C 0.02194 0.25925 0.22832 0.0
C1161 C 0.967 0.21817 0.22746 0.0
C1162 C 0.98634 0.23169 0.22833 0.0
H1163 H 0.09364 0.27488 0.22285 0.0
H1164 H 0.06446 0.25011 0.22631 0.0
H1165 H 0.0041 0.27723 0.24191 0.0
H1166 H 0.91355 0.22294 0.22325 0.0
H1167 H 0.94502 0.24475 0.22671 0.0
C1168 C 0.93735 0.69865 0.97732 0.0
C1169 C 0.94653 0.6789 0.97433 0.0
C1170 C 0.95017 0.71655 0.9792 0.0
C1171 C 0.00516 0.73438 0.98549 0.0
H1172 H 0.98858 0.78413 0.96666 0.0
C1173 C 0.06305 0.80351 0.97477 0.0
C1174 C 0.05474 0.82419 0.97368 0.0
C1175 C 0.04951 0.78615 0.97672 0.0
C1176 C 0.99329 0.77059 0.97219 0.0
H1177 H 0.97644 0.66225 0.97159 0.0
H1178 H 0.99875 0.69349 0.97491 0.0
H1179 H 0.96543 0.75316 0.96705 0.0
H1180 H 0.02583 0.84303 0.97447 0.0
H1181 H 0.00234 0.81293 0.97822 0.0
H1182 H 0.0331 0.75179 0.99059 0.0
C1183 C 0.98165 0.69511 0.9758 0.0
C1184 C 0.98 0.75279 0.97238 0.0
C1185 C 0.96884 0.67724 0.97383 0.0
C1186 C 0.03272 0.82726 0.97512 0.0
C1187 C 0.01923 0.80997 0.9772 0.0
C1188 C 0.0184 0.75228 0.98539 0.0
C1189 C 0.97243 0.71504 0.97824 0.0
C1190 C 0.98589 0.73441 0.97891 0.0
C1191 C 0.02738 0.78913 0.97774 0.0
C1192 C 0.01275 0.77053 0.97861 0.0
H1193 H 0.92023 0.70048 0.97783 0.0
H1194 H 0.94264 0.73167 0.98121 0.0
H1195 H 0.01 0.72048 0.99069 0.0
H1196 H 0.07994 0.80059 0.97367 0.0
H1197 H 0.05636 0.77034 0.97694 0.0
C1198 C 0.95067 0.3167 0.72512 0.0
C1199 C 0.93062 0.30739 0.72307 0.0
C1200 C 0.96861 0.30395 0.72704 0.0
C1201 C 0.98618 0.24933 0.73497 0.0
H1202 H 0.03516 0.26339 0.71482 0.0
C1203 C 0.05339 0.18923 0.72428 0.0
C1204 C 0.07422 0.19699 0.72282 0.0
C1205 C 0.03643 0.20328 0.7262 0.0
C1206 C 0.02182 0.25941 0.72071 0.0
H1207 H 0.91358 0.27737 0.72203 0.0
H1208 H 0.94485 0.25521 0.72536 0.0
H1209 H 0.00459 0.2871 0.71507 0.0
H1210 H 0.09374 0.2255 0.7229 0.0
H1211 H 0.06431 0.24988 0.72652 0.0
H1212 H 0.00335 0.22147 0.74049 0.0
C1213 C 0.94669 0.27236 0.72551 0.0
C1214 C 0.00426 0.27302 0.72083 0.0
C1215 C 0.92879 0.28508 0.72352 0.0
C1216 C 0.07785 0.219 0.72385 0.0
C1217 C 0.06094 0.23301 0.72586 0.0
C1218 C 0.00381 0.23574 0.7349 0.0
C1219 C 0.96687 0.28163 0.72706 0.0
C1220 C 0.98614 0.26801 0.72783 0.0
C1221 C 0.03996 0.22538 0.72679 0.0
C1222 C 0.02175 0.24048 0.72764 0.0
H1223 H 0.95264 0.33383 0.72488 0.0
H1224 H 0.98392 0.31155 0.72835 0.0
H1225 H 0.97251 0.24517 0.74056 0.0
H1226 H 0.05004 0.17237 0.72352 0.0
H1227 H 0.02047 0.19685 0.72675 0.0
C1228 C 0.53225 0.32532 0.47478 0.0
C1229 C 0.55458 0.32372 0.47504 0.0
C1230 C 0.51955 0.30741 0.47687 0.0
C1231 C 0.52115 0.2498 0.47328 0.0
H1232 H 0.46869 0.25061 0.49211 0.0
C1233 C 0.46816 0.1755 0.47596 0.0
C1234 C 0.44613 0.17876 0.47475 0.0
C1235 C 0.48182 0.19265 0.47809 0.0
C1236 C 0.48321 0.25016 0.48674 0.0
H1237 H 0.58104 0.30218 0.4782 0.0
H1238 H 0.55882 0.27091 0.48177 0.0
H1239 H 0.49184 0.28188 0.49209 0.0
H1240 H 0.42108 0.2025 0.47526 0.0
H1241 H 0.44493 0.2325 0.47863 0.0
H1242 H 0.51231 0.21856 0.46749 0.0
C1243 C 0.55119 0.28603 0.47988 0.0
C1244 C 0.49648 0.26805 0.48677 0.0
C1245 C 0.5639 0.30397 0.47789 0.0
C1246 C 0.43797 0.19945 0.47618 0.0
C1247 C 0.45167 0.21665 0.47817 0.0
C1248 C 0.50782 0.23202 0.47315 0.0
C1249 C 0.5289 0.28749 0.47917 0.0
C1250 C 0.5155 0.2681 0.47995 0.0
C1251 C 0.47382 0.21352 0.47892 0.0
C1252 C 0.48858 0.23202 0.47979 0.0
H1253 H 0.52455 0.34031 0.47266 0.0
H1254 H 0.50242 0.309 0.47617 0.0
H1255 H 0.53552 0.24949 0.46777 0.0
H1256 H 0.47493 0.15972 0.47505 0.0
H1257 H 0.49872 0.18956 0.47891 0.0
C1258 C 0.44989 0.81665 0.2246 0.0
C1259 C 0.42977 0.80754 0.22253 0.0
C1260 C 0.46771 0.80373 0.22653 0.0
C1261 C 0.48464 0.74883 0.2344 0.0
H1262 H 0.53418 0.76274 0.21468 0.0
C1263 C 0.55188 0.68847 0.22403 0.0
C1264 C 0.57279 0.69618 0.22287 0.0
C1265 C 0.5349 0.70255 0.22583 0.0
C1266 C 0.52067 0.75879 0.22044 0.0
H1267 H 0.41247 0.77767 0.22141 0.0
H1268 H 0.44351 0.75522 0.22473 0.0
H1269 H 0.50378 0.78667 0.21478 0.0
H1270 H 0.59237 0.72464 0.22338 0.0
H1271 H 0.56289 0.74905 0.22677 0.0
H1272 H 0.50148 0.72076 0.23993 0.0
C1273 C 0.44552 0.77235 0.22492 0.0
C1274 C 0.50321 0.77254 0.22048 0.0
C1275 C 0.42774 0.78524 0.22293 0.0
C1276 C 0.57643 0.71817 0.22409 0.0
C1277 C 0.5595 0.7322 0.22596 0.0
C1278 C 0.50217 0.73509 0.2344 0.0
C1279 C 0.46577 0.78142 0.22651 0.0
C1280 C 0.4849 0.7676 0.22734 0.0
C1281 C 0.53847 0.72463 0.22658 0.0
C1282 C 0.52031 0.73979 0.2273 0.0
H1283 H 0.45202 0.83376 0.2244 0.0
H1284 H 0.48308 0.81119 0.22788 0.0
H1285 H 0.47084 0.74472 0.23989 0.0
H1286 H 0.54851 0.67163 0.22311 0.0
H1287 H 0.51889 0.69616 0.22614 0.0
C1288 C 0.96753 0.32355 0.52322 0.0
C1289 C 0.94519 0.32201 0.52315 0.0
C1290 C 0.98012 0.30554 0.5212 0.0
C1291 C 0.97849 0.24802 0.52528 0.0
H1292 H 0.03041 0.24826 0.50596 0.0
C1293 C 0.03122 0.17349 0.52249 0.0
C1294 C 0.05329 0.1767 0.52345 0.0
C1295 C 0.01753 0.19066 0.52045 0.0
C1296 C 0.01605 0.24798 0.51147 0.0
H1297 H 0.9186 0.30046 0.52042 0.0
H1298 H 0.94064 0.26902 0.51698 0.0
H1299 H 0.00734 0.27958 0.50595 0.0
H1300 H 0.07837 0.20039 0.52263 0.0
H1301 H 0.05449 0.23041 0.51942 0.0
H1302 H 0.98741 0.21688 0.53122 0.0
C1303 C 0.94835 0.28417 0.51866 0.0
C1304 C 0.00282 0.26589 0.51142 0.0
C1305 C 0.93575 0.3022 0.52058 0.0
C1306 C 0.06144 0.19737 0.52191 0.0
C1307 C 0.04773 0.21458 0.51999 0.0
C1308 C 0.99177 0.23021 0.52542 0.0
C1309 C 0.97066 0.28559 0.51916 0.0
C1310 C 0.98399 0.26614 0.51841 0.0
C1311 C 0.02556 0.21149 0.51946 0.0
C1312 C 0.01083 0.23 0.5186 0.0
H1313 H 0.97533 0.33857 0.52512 0.0
H1314 H 0.99727 0.3071 0.52173 0.0
H1315 H 0.96426 0.24787 0.53093 0.0
H1316 H 0.02444 0.15773 0.5235 0.0
H1317 H 1.0006 0.1876 0.51981 0.0
C1318 C 0.44979 0.18583 0.2722 0.0
C1319 C 0.42972 0.19498 0.27441 0.0
C1320 C 0.46764 0.19873 0.27031 0.0
C1321 C 0.48477 0.25375 0.26286 0.0
H1322 H 0.53437 0.23906 0.28234 0.0
C1323 C 0.55243 0.31344 0.27363 0.0
C1324 C 0.57329 0.30557 0.27471 0.0
C1325 C 0.53536 0.29952 0.27172 0.0
C1326 C 0.52084 0.24324 0.27664 0.0
H1327 H 0.41255 0.22489 0.2758 0.0
H1328 H 0.44365 0.24729 0.27255 0.0
H1329 H 0.50384 0.2153 0.2821 0.0
H1330 H 0.5927 0.27701 0.27391 0.0
H1331 H 0.56307 0.25289 0.27031 0.0
H1332 H 0.50172 0.28187 0.25754 0.0
C1333 C 0.44559 0.23016 0.27223 0.0
C1334 C 0.50331 0.22959 0.27652 0.0
C1335 C 0.42777 0.21729 0.27418 0.0
C1336 C 0.5768 0.2836 0.27327 0.0
C1337 C 0.55978 0.26973 0.27127 0.0
C1338 C 0.50237 0.26739 0.26294 0.0
C1339 C 0.46579 0.22104 0.27051 0.0
C1340 C 0.48498 0.23479 0.26975 0.0
C1341 C 0.5388 0.27745 0.27075 0.0
C1342 C 0.52054 0.26241 0.26994 0.0
H1343 H 0.45185 0.16871 0.27227 0.0
H1344 H 0.48297 0.19124 0.26885 0.0
H1345 H 0.47095 0.25808 0.25745 0.0
H1346 H 0.54917 0.33027 0.27471 0.0
H1347 H 0.51939 0.30601 0.27148 0.0
C1348 C 0.46856 0.82459 0.02342 0.0
C1349 C 0.44625 0.82289 0.02306 0.0
C1350 C 0.48136 0.80669 0.0215 0.0
C1351 C 0.47993 0.74911 0.02538 0.0
H1352 H 0.53249 0.74977 0.00664 0.0
C1353 C 0.53276 0.67466 0.02267 0.0
C1354 C 0.55482 0.67781 0.0238 0.0
C1355 C 0.51915 0.69188 0.02064 0.0
C1356 C 0.51795 0.74937 0.01199 0.0
H1357 H 0.41991 0.80119 0.0199 0.0
H1358 H 0.4423 0.76995 0.01664 0.0
H1359 H 0.50933 0.78103 0.00652 0.0
H1360 H 0.57995 0.70146 0.02333 0.0
H1361 H 0.55619 0.73159 0.02015 0.0
H1362 H 0.48874 0.71792 0.03127 0.0
C1363 C 0.44984 0.78513 0.01848 0.0
C1364 C 0.50467 0.76725 0.01188 0.0
C1365 C 0.43704 0.80306 0.02029 0.0
C1366 C 0.56304 0.69849 0.02246 0.0
C1367 C 0.54939 0.71577 0.02057 0.0
C1368 C 0.49327 0.73134 0.02558 0.0
C1369 C 0.47211 0.78669 0.01928 0.0
C1370 C 0.4856 0.76734 0.01864 0.0
C1371 C 0.52723 0.71273 0.01984 0.0
C1372 C 0.51253 0.73127 0.01897 0.0
H1373 H 0.47618 0.83964 0.02548 0.0
H1374 H 0.49847 0.80835 0.02226 0.0
H1375 H 0.46552 0.74884 0.03085 0.0
H1376 H 0.52594 0.65889 0.02351 0.0
H1377 H 0.50224 0.68886 0.01984 0.0
C1378 C 0.95029 0.68402 0.77262 0.0
C1379 C 0.93026 0.6935 0.77444 0.0
C1380 C 0.96832 0.69662 0.77063 0.0
C1381 C 0.98619 0.75078 0.76198 0.0
H1382 H 0.03484 0.73758 0.78257 0.0
C1383 C 0.05319 0.81132 0.77214 0.0
C1384 C 0.074 0.80367 0.77387 0.0
C1385 C 0.03629 0.79717 0.7703 0.0
C1386 C 0.0216 0.74131 0.77656 0.0
H1387 H 0.91334 0.72362 0.77503 0.0
H1388 H 0.94476 0.74551 0.77157 0.0
H1389 H 0.00422 0.71391 0.78254 0.0
H1390 H 0.09355 0.77519 0.77434 0.0
H1391 H 0.06422 0.75061 0.77087 0.0
H1392 H 0.0035 0.77834 0.7561 0.0
C1393 C 0.94652 0.72836 0.77165 0.0
C1394 C 0.00402 0.72772 0.77656 0.0
C1395 C 0.92853 0.71579 0.77372 0.0
C1396 C 0.07767 0.78162 0.77318 0.0
C1397 C 0.06083 0.7675 0.77126 0.0
C1398 C 0.00385 0.76434 0.76192 0.0
C1399 C 0.96667 0.71894 0.77031 0.0
C1400 C 0.986 0.73245 0.76941 0.0
C1401 C 0.03986 0.77505 0.77007 0.0
C1402 C 0.02167 0.75991 0.76934 0.0
H1403 H 0.95218 0.6669 0.77308 0.0
H1404 H 0.98362 0.68891 0.76949 0.0
H1405 H 0.97261 0.75471 0.75626 0.0
H1406 H 0.0498 0.82821 0.77263 0.0
H1407 H 0.02034 0.80356 0.76956 0.0
C1408 C 0.32848 0.38671 0.98579 0.0
C1409 C 0.3371 0.36666 0.98294 0.0
C1410 C 0.30731 0.38852 0.98975 0.0
C1411 C 0.25652 0.35833 0.98879 0.0
H1412 H 0.23804 0.39799 0.01399 0.0
C1413 C 0.17723 0.3498 0.01443 0.0
C1414 C 0.16471 0.36807 0.0162 0.0
C1415 C 0.19766 0.3514 0.00948 0.0
C1416 C 0.24296 0.38706 0.00682 0.0
H1417 H 0.33075 0.33273 0.98268 0.0
H1418 H 0.29432 0.33578 0.98992 0.0
H1419 H 0.27548 0.39729 0.00774 0.0
H1420 H 0.1637 0.40238 0.01411 0.0
H1421 H 0.19982 0.40521 0.00558 0.0
H1422 H 0.2242 0.34764 0.98815 0.0
C1423 C 0.30352 0.35021 0.98871 0.0
C1424 C 0.26439 0.38663 0.00324 0.0
C1425 C 0.3245 0.34843 0.98466 0.0
C1426 C 0.17297 0.38802 0.01278 0.0
C1427 C 0.19364 0.38966 0.00799 0.0
C1428 C 0.23524 0.35863 0.99244 0.0
C1429 C 0.29444 0.37029 0.991 0.0
C1430 C 0.2715 0.37196 0.99434 0.0
C1431 C 0.20618 0.37134 0.00634 0.0
C1432 C 0.22829 0.37273 0.00163 0.0
H1433 H 0.33781 0.40104 0.98451 0.0
H1434 H 0.30083 0.40424 0.9914 0.0
H1435 H 0.26126 0.34725 0.98165 0.0
H1436 H 0.17132 0.3342 0.01696 0.0
H1437 H 0.20703 0.33704 0.00842 0.0
C1438 C 0.86826 0.08008 0.23814 0.0
C1439 C 0.88368 0.08421 0.22906 0.0
C1440 C 0.86584 0.05951 0.24295 0.0
C1441 C 0.876 0.0031 0.23581 0.0
H1442 H 0.87662 0.99479 0.27121 0.0
C1443 C 0.86841 0.91996 0.25914 0.0
C1444 C 0.88403 0.91585 0.26812 0.0
C1445 C 0.86595 0.9405 0.2543 0.0
C1446 C 0.87632 0.99689 0.2613 0.0
H1447 H 0.90847 0.06997 0.21783 0.0
H1448 H 0.90409 0.03424 0.22611 0.0
H1449 H 0.87655 0.03093 0.26279 0.0
H1450 H 0.90916 0.9301 0.27909 0.0
H1451 H 0.9047 0.96577 0.27075 0.0
H1452 H 0.87621 0.96906 0.23432 0.0
C1453 C 0.89387 0.04683 0.2295 0.0
C1454 C 0.87612 0.01755 0.2565 0.0
C1455 C 0.89649 0.06736 0.22484 0.0
C1456 C 0.89701 0.93268 0.27217 0.0
C1457 C 0.89435 0.95318 0.26747 0.0
C1458 C 0.87593 0.98244 0.24061 0.0
C1459 C 0.87855 0.04267 0.2386 0.0
C1460 C 0.87643 0.02085 0.2437 0.0
C1461 C 0.87881 0.95733 0.2585 0.0
C1462 C 0.87656 0.97914 0.25341 0.0
H1463 H 0.85815 0.09273 0.24157 0.0
H1464 H 0.85389 0.05671 0.24996 0.0
H1465 H 0.87605 0.0052 0.2259 0.0
H1466 H 0.85816 0.90732 0.25585 0.0
H1467 H 0.85382 0.94329 0.24739 0.0
C1468 C 0.17423 0.61507 0.48444 0.0
C1469 C 0.16574 0.6349 0.481 0.0
C1470 C 0.19551 0.6134 0.48822 0.0
C1471 C 0.24664 0.64275 0.4858 0.0
H1472 H 0.265 0.60609 0.5125 0.0
C1473 C 0.3261 0.65372 0.51098 0.0
C1474 C 0.3383 0.63559 0.51374 0.0
C1475 C 0.30577 0.65168 0.50597 0.0
C1476 C 0.26012 0.61616 0.50491 0.0
H1477 H 0.17249 0.66866 0.47947 0.0
H1478 H 0.20913 0.66589 0.48637 0.0
H1479 H 0.22752 0.6064 0.50635 0.0
H1480 H 0.33889 0.6011 0.51326 0.0
H1481 H 0.30296 0.59753 0.50459 0.0
H1482 H 0.27906 0.65301 0.48462 0.0
C1483 C 0.19972 0.65148 0.48577 0.0
C1484 C 0.23867 0.61635 0.50139 0.0
C1485 C 0.17862 0.6531 0.48192 0.0
C1486 C 0.32987 0.61534 0.51116 0.0
C1487 C 0.3093 0.61329 0.5063 0.0
C1488 C 0.26797 0.64268 0.48938 0.0
C1489 C 0.20862 0.63157 0.48869 0.0
C1490 C 0.2316 0.62999 0.49195 0.0
C1491 C 0.29702 0.63147 0.50372 0.0
C1492 C 0.27487 0.62968 0.4991 0.0
H1493 H 0.16468 0.60075 0.48379 0.0
H1494 H 0.20186 0.59782 0.49038 0.0
H1495 H 0.24191 0.653 0.47826 0.0
H1496 H 0.33216 0.66954 0.51286 0.0
H1497 H 0.29661 0.66597 0.50419 0.0
C1498 C 0.63499 0.07807 0.76249 0.0
C1499 C 0.61517 0.08647 0.76603 0.0
C1500 C 0.63638 0.05746 0.75759 0.0
C1501 C 0.60488 0.01627 0.74198 0.0
H1502 H 0.6439 0.97577 0.75672 0.0
C1503 C 0.59558 0.92704 0.73306 0.0
C1504 C 0.61395 0.91465 0.73137 0.0
C1505 C 0.59707 0.94795 0.73729 0.0
C1506 C 0.63314 0.98693 0.75237 0.0
H1507 H 0.58126 0.08015 0.76692 0.0
H1508 H 0.58366 0.04453 0.75818 0.0
H1509 H 0.64456 0.01302 0.7633 0.0
H1510 H 0.6483 0.91426 0.73312 0.0
H1511 H 0.65102 0.95109 0.7403 0.0
H1512 H 0.5935 0.9905 0.73098 0.0
C1513 C 0.59811 0.05376 0.75923 0.0
C1514 C 0.63353 0.00825 0.75615 0.0
C1515 C 0.59676 0.07413 0.76428 0.0
C1516 C 0.63386 0.92341 0.73438 0.0
C1517 C 0.63539 0.94451 0.73851 0.0
C1518 C 0.60463 0.99508 0.73812 0.0
C1519 C 0.61793 0.0451 0.75596 0.0
C1520 C 0.61912 0.02303 0.75114 0.0
C1521 C 0.61701 0.95716 0.7398 0.0
C1522 C 0.61843 0.98 0.74344 0.0
H1523 H 0.64945 0.08718 0.76379 0.0
H1524 H 0.65184 0.05118 0.75508 0.0
H1525 H 0.59381 0.02739 0.73783 0.0
H1526 H 0.57997 0.92067 0.73095 0.0
H1527 H 0.58252 0.95695 0.73851 0.0
C1528 C 0.67237 0.61478 0.01153 0.0
C1529 C 0.66405 0.63488 0.01459 0.0
C1530 C 0.69297 0.61297 0.00667 0.0
C1531 C 0.73452 0.64333 0.99055 0.0
H1532 H 0.77475 0.6056 0.00663 0.0
C1533 C 0.82389 0.65369 0.98322 0.0
C1534 C 0.83662 0.63548 0.98181 0.0
C1535 C 0.80282 0.65195 0.98711 0.0
C1536 C 0.76366 0.61598 0.00191 0.0
H1537 H 0.67044 0.66881 0.01461 0.0
H1538 H 0.70604 0.66567 0.00595 0.0
H1539 H 0.73725 0.60506 0.01275 0.0
H1540 H 0.83745 0.60116 0.98379 0.0
H1541 H 0.80033 0.59802 0.99044 0.0
H1542 H 0.76065 0.6543 0.97969 0.0
C1543 C 0.69677 0.65132 0.00734 0.0
C1544 C 0.7422 0.61565 0.00542 0.0
C1545 C 0.67641 0.6531 0.01235 0.0
C1546 C 0.82803 0.61549 0.98482 0.0
C1547 C 0.80678 0.6137 0.98864 0.0
C1548 C 0.75585 0.64354 0.98698 0.0
C1549 C 0.70539 0.63124 0.00459 0.0
C1550 C 0.72754 0.62967 -5e-05 0.0
C1551 C 0.7938 0.63191 0.98958 0.0
C1552 C 0.77082 0.63026 0.99281 0.0
H1553 H 0.66324 0.60045 0.01322 0.0
H1554 H 0.69922 0.59731 0.00457 0.0
H1555 H 0.7235 0.65406 0.98604 0.0
H1556 H 0.83011 0.66937 0.98111 0.0
H1557 H 0.79352 0.66637 0.98808 0.0
C1558 C 0.13349 0.92369 0.763 0.0
C1559 C 0.11362 0.91497 0.76614 0.0
C1560 C 0.13498 0.94474 0.75878 0.0
C1561 C 0.10421 0.99531 0.75908 0.0
H1562 H 0.14394 0.01298 0.73372 0.0
C1563 C 0.09616 0.07414 0.73272 0.0
C1564 C 0.11455 0.08648 0.73092 0.0
C1565 C 0.09754 0.05378 0.73778 0.0
C1566 C 0.13296 0.00829 0.74092 0.0
H1567 H 0.07965 0.92101 0.76668 0.0
H1568 H 0.08212 0.95719 0.75895 0.0
H1569 H 0.14334 0.9758 0.74044 0.0
H1570 H 0.14885 0.08721 0.73311 0.0
H1571 H 0.15129 0.05124 0.74185 0.0
H1572 H 0.09339 0.02762 0.75928 0.0
C1573 C 0.09668 0.9482 0.76015 0.0
C1574 C 0.1326 0.98701 0.74478 0.0
C1575 C 0.09523 0.92735 0.76448 0.0
C1576 C 0.13439 0.07809 0.73444 0.0
C1577 C 0.13581 0.0575 0.73935 0.0
C1578 C 0.10442 0.01646 0.75514 0.0
C1579 C 0.1166 0.95738 0.75752 0.0
C1580 C 0.11797 0.98018 0.75378 0.0
C1581 C 0.11738 0.04515 0.74104 0.0
C1582 C 0.11859 0.02312 0.74591 0.0
H1583 H 0.14795 0.91454 0.76423 0.0
H1584 H 0.15059 0.95128 0.75689 0.0
H1585 H 0.09314 0.99083 0.76628 0.0
H1586 H 0.08064 0.08015 0.7301 0.0
H1587 H 0.08309 0.04455 0.73887 0.0
C1588 C 0.8288 0.38767 0.51157 0.0
C1589 C 0.83705 0.36751 0.51456 0.0
C1590 C 0.80816 0.38961 0.50678 0.0
C1591 C 0.76645 0.35954 0.49063 0.0
H1592 H 0.72634 0.39717 0.50688 0.0
C1593 C 0.67706 0.34925 0.48346 0.0
C1594 C 0.66432 0.36746 0.48212 0.0
C1595 C 0.69816 0.35097 0.48732 0.0
C1596 C 0.7374 0.38682 0.50212 0.0
H1597 H 0.83049 0.33361 0.51452 0.0
H1598 H 0.79485 0.33698 0.50597 0.0
H1599 H 0.76388 0.39761 0.51296 0.0
H1600 H 0.66349 0.40178 0.48416 0.0
H1601 H 0.70065 0.40488 0.49075 0.0
H1602 H 0.74027 0.34869 0.47979 0.0
C1603 C 0.80419 0.35127 0.50737 0.0
C1604 C 0.75888 0.38709 0.5056 0.0
C1605 C 0.82458 0.34936 0.51232 0.0
C1606 C 0.67293 0.38744 0.48515 0.0
C1607 C 0.6942 0.38921 0.48893 0.0
C1608 C 0.74511 0.35938 0.4871 0.0
C1609 C 0.79565 0.37141 0.50469 0.0
C1610 C 0.7735 0.3731 0.50007 0.0
C1611 C 0.70719 0.371 0.4898 0.0
C1612 C 0.73019 0.37263 0.49299 0.0
H1613 H 0.83803 0.40194 0.51326 0.0
H1614 H 0.80197 0.40531 0.50473 0.0
H1615 H 0.77745 0.34882 0.48608 0.0
H1616 H 0.67084 0.33358 0.48133 0.0
H1617 H 0.70746 0.33655 0.48824 0.0
C1618 C 0.36876 0.08132 0.25891 0.0
C1619 C 0.38434 0.08552 0.26788 0.0
C1620 C 0.36637 0.06075 0.25409 0.0
C1621 C 0.37681 0.00442 0.26118 0.0
H1622 H 0.37691 0.99595 0.22579 0.0
C1623 C 0.3688 0.92118 0.23801 0.0
C1624 C 0.38435 0.91699 0.22901 0.0
C1625 C 0.36641 0.94176 0.24282 0.0
C1626 C 0.37676 0.9981 0.2357 0.0
H1627 H 0.40949 0.0714 0.2789 0.0
H1628 H 0.40515 0.03567 0.27061 0.0
H1629 H 0.37694 0.03213 0.23416 0.0
H1630 H 0.40942 0.93113 0.21794 0.0
H1631 H 0.40507 0.96687 0.22622 0.0
H1632 H 0.37703 0.97039 0.26272 0.0
C1633 C 0.39479 0.04822 0.2673 0.0
C1634 C 0.37662 0.01878 0.24047 0.0
C1635 C 0.39737 0.06875 0.27197 0.0
C1636 C 0.39733 0.93378 0.22489 0.0
C1637 C 0.39473 0.95431 0.22955 0.0
C1638 C 0.37667 0.98374 0.25641 0.0
C1639 C 0.37928 0.04398 0.25832 0.0
C1640 C 0.37711 0.02214 0.25326 0.0
C1641 C 0.37927 0.95855 0.23855 0.0
C1642 C 0.3771 0.98038 0.24362 0.0
H1643 H 0.35847 0.09392 0.25559 0.0
H1644 H 0.35427 0.05789 0.24717 0.0
H1645 H 0.37701 0.00658 0.27109 0.0
H1646 H 0.35855 0.90858 0.24136 0.0
H1647 H 0.35434 0.94461 0.24976 0.0
C1648 C 0.824 0.84705 0.48413 0.0
C1649 C 0.83666 0.86521 0.48233 0.0
C1650 C 0.80306 0.84895 0.48823 0.0
C1651 C 0.76419 0.88569 0.50274 0.0
H1652 H 0.7237 0.84675 0.48789 0.0
C1653 C 0.67281 0.88777 0.51239 0.0
C1654 C 0.66442 0.86791 0.51589 0.0
C1655 C 0.69349 0.88922 0.50759 0.0
C1656 C 0.73482 0.85772 0.49212 0.0
H1657 H 0.8375 0.89961 0.4838 0.0
H1658 H 0.8006 0.90301 0.49078 0.0
H1659 H 0.76072 0.84607 0.48133 0.0
H1660 H 0.67081 0.83401 0.51678 0.0
H1661 H 0.70652 0.83651 0.50822 0.0
H1662 H 0.73796 0.89733 0.5135 0.0
C1663 C 0.807 0.88725 0.48915 0.0
C1664 C 0.75609 0.85726 0.48843 0.0
C1665 C 0.82814 0.88532 0.48515 0.0
C1666 C 0.67682 0.84954 0.51418 0.0
C1667 C 0.69725 0.85095 0.50923 0.0
C1668 C 0.74278 0.88628 0.50636 0.0
C1669 C 0.79407 0.86908 0.49049 0.0
C1670 C 0.77117 0.87088 0.49389 0.0
C1671 C 0.7059 0.87079 0.506 0.0
C1672 C 0.72801 0.87198 0.50126 0.0
H1673 H 0.83018 0.8313 0.48218 0.0
H1674 H 0.79382 0.83456 0.48951 0.0
H1675 H 0.77537 0.89634 0.50718 0.0
H1676 H 0.66364 0.9022 0.51366 0.0
H1677 H 0.69976 0.9047 0.50512 0.0
C1678 C 0.37189 0.5787 0.73723 0.0
C1679 C 0.38715 0.58405 0.72827 0.0
C1680 C 0.3711 0.55804 0.7421 0.0
C1681 C 0.40449 0.50965 0.74553 0.0
H1682 H 0.35096 0.48194 0.75322 0.0
C1683 C 0.37143 0.42082 0.76024 0.0
C1684 C 0.38733 0.41542 0.7688 0.0
C1685 C 0.37064 0.44134 0.75517 0.0
C1686 C 0.36604 0.48938 0.75101 0.0
H1687 H 0.41315 0.57177 0.71719 0.0
H1688 H 0.41146 0.53593 0.7254 0.0
H1689 H 0.35086 0.5178 0.74449 0.0
H1690 H 0.4146 0.42745 0.77892 0.0
H1691 H 0.41296 0.46304 0.77035 0.0
H1692 H 0.4197 0.48117 0.75165 0.0
C1693 C 0.40046 0.54769 0.72895 0.0
C1694 C 0.36599 0.51005 0.74616 0.0
C1695 C 0.40136 0.56828 0.72419 0.0
C1696 C 0.40226 0.43097 0.77225 0.0
C1697 C 0.40139 0.45141 0.76727 0.0
C1698 C 0.40453 0.48902 0.75029 0.0
C1699 C 0.38547 0.54231 0.73805 0.0
C1700 C 0.38524 0.52044 0.74336 0.0
C1701 C 0.38569 0.45687 0.75861 0.0
C1702 C 0.38534 0.47863 0.75316 0.0
H1703 H 0.36071 0.59051 0.74055 0.0
H1704 H 0.35948 0.55451 0.74918 0.0
H1705 H 0.41964 0.5172 0.74366 0.0
H1706 H 0.35968 0.40918 0.75741 0.0
H1707 H 0.35845 0.44493 0.74843 0.0
C1708 C 0.82454 0.155 0.0138 0.0
C1709 C 0.8372 0.13679 0.01541 0.0
C1710 C 0.80349 0.15321 0.00986 0.0
C1711 C 0.76432 0.1169 0.99533 0.0
H1712 H 0.72413 0.15546 0.01078 0.0
C1713 C 0.67303 0.11532 0.98574 0.0
C1714 C 0.66464 0.13531 0.98252 0.0
C1715 C 0.69365 0.11368 0.99058 0.0
C1716 C 0.73517 0.1446 0.00639 0.0
H1717 H 0.83794 0.10241 0.01375 0.0
H1718 H 0.80088 0.09921 0.00702 0.0
H1719 H 0.76127 0.15589 0.01715 0.0
H1720 H 0.67095 0.16926 0.9822 0.0
H1721 H 0.70659 0.16643 0.99082 0.0
H1722 H 0.73793 0.10565 0.98458 0.0
C1723 C 0.80735 0.11492 0.00869 0.0
C1724 C 0.75649 0.14492 0.00997 0.0
C1725 C 0.82857 0.11674 0.01255 0.0
C1726 C 0.67696 0.15362 0.98458 0.0
C1727 C 0.69735 0.15202 0.98957 0.0
C1728 C 0.74287 0.11647 0.99181 0.0
C1729 C 0.79443 0.13313 0.00755 0.0
C1730 C 0.77146 0.13144 0.00429 0.0
C1731 C 0.70603 0.13204 0.99248 0.0
C1732 C 0.72819 0.13064 0.99713 0.0
H1733 H 0.83078 0.17071 0.01579 0.0
H1734 H 0.79424 0.16763 0.00874 0.0
H1735 H 0.77542 0.10637 0.99073 0.0
H1736 H 0.66392 0.10092 0.98419 0.0
H1737 H 0.69995 0.0981 0.99281 0.0
C1738 C 0.13436 0.57707 0.26373 0.0
C1739 C 0.11456 0.58553 0.26725 0.0
C1740 C 0.13598 0.55587 0.25979 0.0
C1741 C 0.10643 0.50466 0.26154 0.0
H1742 H 0.14375 0.48717 0.23494 0.0
C1743 C 0.09647 0.42579 0.23545 0.0
C1744 C 0.11474 0.41367 0.2329 0.0
C1745 C 0.09822 0.44605 0.24062 0.0
C1746 C 0.13348 0.4918 0.2425 0.0
H1747 H 0.08081 0.57877 0.26881 0.0
H1748 H 0.0835 0.54229 0.26161 0.0
H1749 H 0.14326 0.52444 0.24148 0.0
H1750 H 0.1492 0.41319 0.23387 0.0
H1751 H 0.15228 0.449 0.24277 0.0
H1752 H 0.09614 0.47219 0.26226 0.0
C1753 C 0.09793 0.55164 0.26227 0.0
C1754 C 0.13318 0.51314 0.24625 0.0
C1755 C 0.09635 0.57267 0.2663 0.0
C1756 C 0.13484 0.42213 0.2358 0.0
C1757 C 0.13662 0.44264 0.2408 0.0
C1758 C 0.10658 0.48345 0.25771 0.0
C1759 C 0.11781 0.54279 0.25922 0.0
C1760 C 0.11935 0.51991 0.25568 0.0
C1761 C 0.1183 0.45481 0.2432 0.0
C1762 C 0.11984 0.47686 0.24803 0.0
H1763 H 0.14869 0.58658 0.26442 0.0
H1764 H 0.15156 0.54957 0.25756 0.0
H1765 H 0.09602 0.50912 0.26906 0.0
H1766 H 0.08076 0.4197 0.23333 0.0
H1767 H 0.08384 0.45513 0.24227 0.0
C1768 C 0.17138 0.11464 0.5113 0.0
C1769 C 0.16285 0.13466 0.51433 0.0
C1770 C 0.192 0.11302 0.50644 0.0
C1771 C 0.23324 0.14373 0.49027 0.0
H1772 H 0.27383 0.1065 0.50643 0.0
C1773 C 0.32254 0.15483 0.48289 0.0
C1774 C 0.33544 0.13672 0.48157 0.0
C1775 C 0.30147 0.15294 0.48677 0.0
C1776 C 0.26264 0.11674 0.50169 0.0
H1777 H 0.16886 0.16866 0.51428 0.0
H1778 H 0.20449 0.16586 0.50562 0.0
H1779 H 0.23634 0.10563 0.51255 0.0
H1780 H 0.33655 0.10242 0.48366 0.0
H1781 H 0.29945 0.09903 0.49029 0.0
H1782 H 0.25926 0.15489 0.47939 0.0
C1783 C 0.19538 0.15142 0.50704 0.0
C1784 C 0.24118 0.11622 0.50519 0.0
C1785 C 0.175 0.15301 0.51205 0.0
C1786 C 0.327 0.11668 0.48464 0.0
C1787 C 0.30576 0.11475 0.48844 0.0
C1788 C 0.25457 0.14413 0.4867 0.0
C1789 C 0.20421 0.13142 0.50433 0.0
C1790 C 0.22638 0.13005 0.49969 0.0
C1791 C 0.29262 0.13285 0.48931 0.0
C1792 C 0.26966 0.13102 0.49256 0.0
H1793 H 0.1624 0.10022 0.51302 0.0
H1794 H 0.19842 0.09742 0.50437 0.0
H1795 H 0.2221 0.15433 0.48574 0.0
H1796 H 0.32863 0.17054 0.48074 0.0
H1797 H 0.29205 0.1673 0.48769 0.0
C1798 C 0.6023 0.43307 0.27262 0.0
C1799 C 0.61548 0.41645 0.26849 0.0
C1800 C 0.60467 0.45365 0.26799 0.0
C1801 C 0.62226 0.48339 0.24117 0.0
H1802 H 0.62218 0.53164 0.26353 0.0
C1803 C 0.60141 0.56852 0.22587 0.0
C1804 C 0.61471 0.58518 0.22983 0.0
C1805 C 0.60391 0.54798 0.23054 0.0
C1806 C 0.62243 0.51832 0.25719 0.0
H1807 H 0.64136 0.40836 0.25613 0.0
H1808 H 0.64514 0.44446 0.24775 0.0
H1809 H 0.6224 0.49539 0.27182 0.0
H1810 H 0.64091 0.59337 0.24193 0.0
H1811 H 0.64494 0.55734 0.25036 0.0
H1812 H 0.62165 0.50632 0.22655 0.0
C1813 C 0.63311 0.44145 0.25469 0.0
C1814 C 0.62241 0.49761 0.26192 0.0
C1815 C 0.63096 0.42084 0.25948 0.0
C1816 C 0.63042 0.58087 0.23871 0.0
C1817 C 0.63271 0.5603 0.24354 0.0
C1818 C 0.62198 0.5041 0.23645 0.0
C1819 C 0.62008 0.45807 0.25898 0.0
C1820 C 0.62203 0.47995 0.25396 0.0
C1821 C 0.61959 0.54363 0.2394 0.0
C1822 C 0.62177 0.52176 0.24441 0.0
H1823 H 0.59026 0.43026 0.27958 0.0
H1824 H 0.59421 0.46608 0.27134 0.0
H1825 H 0.62186 0.47008 0.23483 0.0
H1826 H 0.58919 0.57126 0.21901 0.0
H1827 H 0.59338 0.53551 0.22731 0.0
C1828 C 0.17238 0.88709 0.98528 0.0
C1829 C 0.16405 0.8671 0.98201 0.0
C1830 C 0.19303 0.88878 0.99008 0.0
C1831 C 0.23461 0.858 0.00584 0.0
H1832 H 0.2748 0.89636 0.99024 0.0
C1833 C 0.32395 0.8481 0.01361 0.0
C1834 C 0.33654 0.86638 0.01515 0.0
C1835 C 0.30293 0.84976 0.0096 0.0
C1836 C 0.26372 0.88579 0.99483 0.0
H1837 H 0.17053 0.83318 0.98156 0.0
H1838 H 0.20621 0.8361 0.99013 0.0
H1839 H 0.23735 0.89692 0.98402 0.0
H1840 H 0.33719 0.90073 0.0133 0.0
H1841 H 0.30016 0.90371 0.00647 0.0
H1842 H 0.26067 0.84687 0.01669 0.0
C1843 C 0.1969 0.85047 0.98893 0.0
C1844 C 0.24229 0.88613 0.99127 0.0
C1845 C 0.17648 0.84882 0.98397 0.0
C1846 C 0.32787 0.88635 0.01216 0.0
C1847 C 0.30667 0.88804 0.00824 0.0
C1848 C 0.25591 0.85779 0.00948 0.0
C1849 C 0.20549 0.87046 0.9919 0.0
C1850 C 0.22764 0.87191 0.99657 0.0
C1851 C 0.29382 0.86976 0.00716 0.0
C1852 C 0.27086 0.87132 0.00383 0.0
H1853 H 0.16318 0.90146 0.9838 0.0
H1854 H 0.19926 0.90437 0.99235 0.0
H1855 H 0.22359 0.8471 0.01022 0.0
H1856 H 0.33024 0.83245 0.01569 0.0
H1857 H 0.29375 0.83528 0.00852 0.0
C1858 C 0.8972 0.43324 0.72539 0.0
C1859 C 0.88422 0.41638 0.7294 0.0
C1860 C 0.89439 0.45374 0.73004 0.0
C1861 C 0.87563 0.48301 0.75678 0.0
H1862 H 0.87629 0.53144 0.73455 0.0
C1863 C 0.89639 0.56791 0.77244 0.0
C1864 C 0.88355 0.58476 0.76826 0.0
C1865 C 0.89371 0.54738 0.76778 0.0
C1866 C 0.87585 0.51808 0.74086 0.0
H1867 H 0.85821 0.40779 0.74155 0.0
H1868 H 0.85361 0.44378 0.74994 0.0
H1869 H 0.87643 0.49527 0.72617 0.0
H1870 H 0.85792 0.59331 0.75584 0.0
H1871 H 0.85356 0.55728 0.74745 0.0
H1872 H 0.8757 0.50582 0.77147 0.0
C1873 C 0.86584 0.44101 0.74309 0.0
C1874 C 0.87608 0.49741 0.73608 0.0
C1875 C 0.86846 0.42045 0.73829 0.0
C1876 C 0.86805 0.58065 0.75922 0.0
C1877 C 0.86558 0.56008 0.75442 0.0
C1878 C 0.87567 0.50368 0.76156 0.0
C1879 C 0.8787 0.45787 0.73893 0.0
C1880 C 0.87632 0.47968 0.74399 0.0
C1881 C 0.87831 0.54323 0.75873 0.0
C1882 C 0.87612 0.52141 0.75365 0.0
H1883 H 0.90946 0.43067 0.71852 0.0
H1884 H 0.90473 0.46636 0.72679 0.0
H1885 H 0.87591 0.46965 0.76309 0.0
H1886 H 0.90843 0.5705 0.77942 0.0
H1887 H 0.90395 0.53478 0.77115 0.0
C1888 C 0.09498 0.39052 0.08048 0.0
C1889 C 0.10795 0.37925 0.07216 0.0
C1890 C 0.0992 0.38995 0.09313 0.0
C1891 C 0.12471 0.35597 0.11633 0.0
H1892 H 0.11863 0.40513 0.13765 0.0
C1893 C 0.14135 0.35018 0.16835 0.0
C1894 C 0.12663 0.36023 0.17618 0.0
C1895 C 0.14114 0.35418 0.15568 0.0
C1896 C 0.12024 0.39122 0.13182 0.0
H1897 H 0.13601 0.35924 0.07062 0.0
H1898 H 0.14335 0.35837 0.09263 0.0
H1899 H 0.11433 0.40923 0.1154 0.0
H1900 H 0.10051 0.38283 0.17685 0.0
H1901 H 0.0999 0.38947 0.15477 0.0
H1902 H 0.13012 0.33783 0.13268 0.0
C1903 C 0.12976 0.36738 0.08938 0.0
C1904 C 0.11779 0.39358 0.11909 0.0
C1905 C 0.12559 0.36798 0.07675 0.0
C1906 C 0.11209 0.37481 0.17109 0.0
C1907 C 0.11183 0.37874 0.15842 0.0
C1908 C 0.12707 0.35359 0.12904 0.0
C1909 C 0.11643 0.37807 0.09773 0.0
C1910 C 0.11989 0.37595 0.11121 0.0
C1911 C 0.12615 0.36824 0.15054 0.0
C1912 C 0.12474 0.37115 0.13696 0.0
H1913 H 0.08128 0.39939 0.07726 0.0
H1914 H 0.08854 0.39822 0.09934 0.0
H1915 H 0.12606 0.342 0.11053 0.0
H1916 H 0.15288 0.33899 0.17197 0.0
H1917 H 0.15265 0.34612 0.1499 0.0
C1918 C 0.90151 0.88795 0.41787 0.0
C1919 C 0.89054 0.87503 0.42633 0.0
C1920 C 0.8967 0.88703 0.4053 0.0
C1921 C 0.87463 0.85054 0.38224 0.0
H1922 H 0.87298 0.90063 0.36139 0.0
C1923 C 0.85815 0.8439 0.33016 0.0
C1924 C 0.87124 0.85623 0.32245 0.0
C1925 C 0.85783 0.84747 0.34287 0.0
C1926 C 0.87353 0.88647 0.36708 0.0
H1927 H 0.86541 0.85152 0.42823 0.0
H1928 H 0.85706 0.84998 0.40635 0.0
H1929 H 0.8776 0.90469 0.38361 0.0
H1930 H 0.89381 0.88241 0.32206 0.0
H1931 H 0.89354 0.88832 0.34417 0.0
H1932 H 0.87116 0.83225 0.36576 0.0
C1933 C 0.86953 0.86064 0.40942 0.0
C1934 C 0.87616 0.88881 0.3798 0.0
C1935 C 0.87428 0.86161 0.42197 0.0
C1936 C 0.88352 0.8726 0.32771 0.0
C1937 C 0.88327 0.8761 0.34041 0.0
C1938 C 0.8721 0.84818 0.36954 0.0
C1939 C 0.88088 0.87312 0.40092 0.0
C1940 C 0.87692 0.87085 0.3875 0.0
C1941 C 0.87064 0.86341 0.34817 0.0
C1942 C 0.87174 0.8661 0.36177 0.0
H1943 H 0.91411 0.8985 0.42091 0.0
H1944 H 0.90584 0.89672 0.39896 0.0
H1945 H 0.87547 0.83637 0.38791 0.0
H1946 H 0.84837 0.83126 0.3264 0.0
H1947 H 0.84766 0.83763 0.34857 0.0
C1948 C 0.35759 0.65865 0.66707 0.0
C1949 C 0.37014 0.64567 0.67472 0.0
C1950 C 0.35714 0.65528 0.65434 0.0
C1951 C 0.37129 0.61599 0.62997 0.0
H1952 H 0.37561 0.66621 0.60935 0.0
C1953 C 0.4002 0.61391 0.57939 0.0
C1954 C 0.38987 0.62726 0.57088 0.0
C1955 C 0.39518 0.61495 0.59193 0.0
C1956 C 0.3741 0.65203 0.61496 0.0
H1957 H 0.39159 0.61856 0.67499 0.0
H1958 H 0.39111 0.61298 0.65286 0.0
H1959 H 0.37118 0.67024 0.63151 0.0
H1960 H 0.36567 0.65171 0.56887 0.0
H1961 H 0.35699 0.65347 0.59071 0.0
H1962 H 0.37485 0.59782 0.61338 0.0
C1963 C 0.38134 0.62557 0.65667 0.0
C1964 C 0.3715 0.65433 0.62767 0.0
C1965 C 0.38173 0.62888 0.66939 0.0
C1966 C 0.37403 0.64127 0.57516 0.0
C1967 C 0.3691 0.64236 0.58769 0.0
C1968 C 0.374 0.61369 0.61725 0.0
C1969 C 0.36927 0.63889 0.64896 0.0
C1970 C 0.37031 0.63634 0.63535 0.0
C1971 C 0.3798 0.62941 0.59623 0.0
C1972 C 0.37565 0.63169 0.60963 0.0
H1973 H 0.34836 0.67164 0.67089 0.0
H1974 H 0.34741 0.66563 0.64868 0.0
H1975 H 0.37008 0.60179 0.63559 0.0
H1976 H 0.41245 0.60292 0.57641 0.0
H1977 H 0.40383 0.60489 0.59831 0.0
C1978 C 0.61615 0.12667 0.8272 0.0
C1979 C 0.62967 0.14208 0.822 0.0
C1980 C 0.61621 0.12294 0.83988 0.0
C1981 C 0.62969 0.14954 0.86909 0.0
H1982 H 0.62047 0.09342 0.88302 0.0
C1983 C 0.6277 0.13603 0.92148 0.0
C1984 C 0.61072 0.12366 0.92596 0.0
C1985 C 0.63223 0.1367 0.90889 0.0
C1986 C 0.62295 0.1092 0.87925 0.0
H1987 H 0.6545 0.16506 0.82603 0.0
H1988 H 0.65483 0.15832 0.84815 0.0
H1989 H 0.62488 0.09739 0.86078 0.0
H1990 H 0.58565 0.10169 0.92072 0.0
H1991 H 0.59351 0.10296 0.89871 0.0
H1992 H 0.62755 0.16138 0.88752 0.0
C1993 C 0.64387 0.14941 0.84243 0.0
C1994 C 0.62546 0.11148 0.86652 0.0
C1995 C 0.64376 0.15319 0.82974 0.0
C1996 C 0.59881 0.11141 0.91758 0.0
C1997 C 0.60339 0.11205 0.90497 0.0
C1998 C 0.62726 0.14724 0.8818 0.0
C1999 C 0.62985 0.13448 0.84768 0.0
C2000 C 0.62864 0.13172 0.86127 0.0
C2001 C 0.61993 0.12497 0.90048 0.0
C2002 C 0.62366 0.12708 0.88702 0.0
H2003 H 0.60508 0.11781 0.82151 0.0
H2004 H 0.60502 0.11152 0.84362 0.0
H2005 H 0.63172 0.1654 0.86536 0.0
H2006 H 0.63731 0.14556 0.92766 0.0
H2007 H 0.64528 0.14656 0.90573 0.0
C2008 C 0.14208 0.65396 0.32984 0.0
C2009 C 0.12799 0.64301 0.32202 0.0
C2010 C 0.14191 0.6502 0.34254 0.0
C2011 C 0.12271 0.61239 0.36647 0.0
H2012 H 0.12547 0.66205 0.38763 0.0
C2013 C 0.09622 0.61209 0.41758 0.0
C2014 C 0.10845 0.62395 0.42598 0.0
C2015 C 0.10066 0.6129 0.40496 0.0
C2016 C 0.12497 0.64798 0.38187 0.0
H2017 H 0.10305 0.61911 0.32142 0.0
H2018 H 0.10251 0.61287 0.34352 0.0
H2019 H 0.12978 0.66622 0.36549 0.0
H2020 H 0.13542 0.64538 0.42772 0.0
H2021 H 0.14312 0.64669 0.40576 0.0
H2022 H 0.11739 0.59426 0.38292 0.0
C2023 C 0.11392 0.62413 0.33984 0.0
C2024 C 0.12749 0.65036 0.36917 0.0
C2025 C 0.11413 0.62783 0.32716 0.0
C2026 C 0.12556 0.63615 0.42151 0.0
C2027 C 0.12994 0.63699 0.40891 0.0
C2028 C 0.12011 0.61003 0.3792 0.0
C2029 C 0.12761 0.63546 0.34771 0.0
C2030 C 0.12622 0.63263 0.36129 0.0
C2031 C 0.11737 0.62562 0.40047 0.0
C2032 C 0.12107 0.62782 0.38702 0.0
H2033 H 0.15307 0.66565 0.32619 0.0
H2034 H 0.15291 0.65895 0.34831 0.0
H2035 H 0.12196 0.59836 0.36069 0.0
H2036 H 0.08294 0.60251 0.42071 0.0
H2037 H 0.09057 0.60408 0.39867 0.0
C2038 C 0.64117 0.84919 0.66791 0.0
C2039 C 0.62656 0.85927 0.67579 0.0
C2040 C 0.64085 0.85322 0.65524 0.0
C2041 C 0.61991 0.89054 0.63154 0.0
H2042 H 0.62556 0.84154 0.61005 0.0
C2043 C 0.59457 0.8905 0.5802 0.0
C2044 C 0.60753 0.87934 0.57184 0.0
C2045 C 0.59878 0.88976 0.59285 0.0
C2046 C 0.62425 0.85545 0.6159 0.0
H2047 H 0.60048 0.88191 0.67656 0.0
H2048 H 0.59968 0.8886 0.6545 0.0
H2049 H 0.62968 0.83712 0.63218 0.0
H2050 H 0.63558 0.85932 0.57021 0.0
H2051 H 0.6429 0.85814 0.59221 0.0
H2052 H 0.61398 0.90874 0.61519 0.0
C2053 C 0.61161 0.87783 0.6581 0.0
C2054 C 0.62665 0.85292 0.62861 0.0
C2055 C 0.61199 0.87387 0.67076 0.0
C2056 C 0.62516 0.86798 0.57638 0.0
C2057 C 0.62932 0.86721 0.58901 0.0
C2058 C 0.61742 0.89305 0.61881 0.0
C2059 C 0.62585 0.86735 0.65016 0.0
C2060 C 0.62439 0.8704 0.63659 0.0
C2061 C 0.61599 0.8778 0.5974 0.0
C2062 C 0.61945 0.8755 0.61087 0.0
H2063 H 0.65272 0.83798 0.67148 0.0
H2064 H 0.65229 0.84515 0.64941 0.0
H2065 H 0.61836 0.90439 0.63741 0.0
H2066 H 0.58088 0.89942 0.57702 0.0
H2067 H 0.58812 0.89796 0.5991 0.0
C2068 C 0.38279 0.37271 0.82842 0.0
C2069 C 0.37041 0.35632 0.82327 0.0
C2070 C 0.3826 0.37641 0.84111 0.0
C2071 C 0.37145 0.34891 0.87038 0.0
H2072 H 0.37779 0.40552 0.8842 0.0
C2073 C 0.37453 0.363 0.92275 0.0
C2074 C 0.39113 0.37617 0.92695 0.0
C2075 C 0.36957 0.36196 0.91022 0.0
C2076 C 0.37611 0.38962 0.88046 0.0
H2077 H 0.34743 0.33153 0.82737 0.0
H2078 H 0.34682 0.33825 0.84951 0.0
H2079 H 0.37279 0.40125 0.86202 0.0
H2080 H 0.41503 0.39912 0.9213 0.0
H2081 H 0.40634 0.39723 0.8994 0.0
H2082 H 0.37493 0.33729 0.88879 0.0
C2083 C 0.35702 0.34796 0.84375 0.0
C2084 C 0.37326 0.38715 0.86776 0.0
C2085 C 0.35728 0.34418 0.83105 0.0
C2086 C 0.40219 0.38878 0.91838 0.0
C2087 C 0.39714 0.3878 0.90584 0.0
C2088 C 0.37417 0.35139 0.88307 0.0
C2089 C 0.36995 0.36389 0.84896 0.0
C2090 C 0.37119 0.36674 0.86254 0.0
C2091 C 0.38099 0.37412 0.90161 0.0
C2092 C 0.37679 0.37174 0.88823 0.0
H2093 H 0.39312 0.38237 0.82271 0.0
H2094 H 0.39298 0.38862 0.84479 0.0
H2095 H 0.37029 0.33294 0.86668 0.0
H2096 H 0.36559 0.35315 0.9291 0.0
H2097 H 0.35686 0.35148 0.90726 0.0
C2098 C 0.85849 0.15792 0.16735 0.0
C2099 C 0.87107 0.14505 0.17505 0.0
C2100 C 0.85827 0.15459 0.15461 0.0
C2101 C 0.87312 0.11552 0.13027 0.0
H2102 H 0.87703 0.16584 0.10971 0.0
C2103 C 0.90178 0.11376 0.07962 0.0
C2104 C 0.89127 0.12705 0.07116 0.0
C2105 C 0.89689 0.11476 0.09218 0.0
C2106 C 0.87564 0.15162 0.1153 0.0
H2107 H 0.89283 0.11819 0.1754 0.0
H2108 H 0.89273 0.11268 0.15325 0.0
H2109 H 0.87247 0.16976 0.13186 0.0
H2110 H 0.86691 0.15137 0.06925 0.0
H2111 H 0.85845 0.15305 0.09111 0.0
H2112 H 0.87689 0.09743 0.11367 0.0
C2113 C 0.88277 0.12514 0.15703 0.0
C2114 C 0.87297 0.15387 0.12801 0.0
C2115 C 0.88294 0.12842 0.16976 0.0
C2116 C 0.87542 0.14098 0.0755 0.0
C2117 C 0.87061 0.14203 0.08805 0.0
C2118 C 0.8759 0.11328 0.11756 0.0
C2119 C 0.87066 0.13836 0.14928 0.0
C2120 C 0.8719 0.13585 0.13567 0.0
C2121 C 0.88146 0.12912 0.09654 0.0
C2122 C 0.87738 0.13132 0.10995 0.0
H2123 H 0.84905 0.17079 0.17114 0.0
H2124 H 0.8485 0.16485 0.14892 0.0
H2125 H 0.87201 0.1013 0.13588 0.0
H2126 H 0.91405 0.10284 0.07659 0.0
H2127 H 0.90566 0.10473 0.09852 0.0
C2128 C 0.88351 0.62826 0.82768 0.0
C2129 C 0.8711 0.64456 0.82246 0.0
C2130 C 0.88339 0.62476 0.84038 0.0
C2131 C 0.87232 0.65262 0.86955 0.0
H2132 H 0.87858 0.59616 0.88358 0.0
C2133 C 0.87516 0.63901 0.92197 0.0
C2134 C 0.89168 0.62582 0.92625 0.0
C2135 C 0.8703 0.63999 0.90943 0.0
C2136 C 0.87692 0.61202 0.87978 0.0
H2137 H 0.84814 0.66941 0.82647 0.0
H2138 H 0.84765 0.66304 0.84865 0.0
H2139 H 0.87359 0.60019 0.86139 0.0
H2140 H 0.91559 0.6028 0.92071 0.0
H2141 H 0.90709 0.60458 0.89878 0.0
H2142 H 0.8758 0.66445 0.88792 0.0
C2143 C 0.85782 0.65325 0.84292 0.0
C2144 C 0.87408 0.61435 0.86707 0.0
C2145 C 0.85802 0.65683 0.8302 0.0
C2146 C 0.9028 0.61315 0.91773 0.0
C2147 C 0.89786 0.61407 0.90517 0.0
C2148 C 0.87503 0.65028 0.88224 0.0
C2149 C 0.87077 0.63738 0.84818 0.0
C2150 C 0.87203 0.6347 0.86178 0.0
C2151 C 0.88177 0.62775 0.90088 0.0
C2152 C 0.87762 0.62998 0.88748 0.0
H2153 H 0.8938 0.6185 0.822 0.0
H2154 H 0.89378 0.6126 0.84411 0.0
H2155 H 0.87117 0.66855 0.86579 0.0
H2156 H 0.86617 0.64891 0.92828 0.0
H2157 H 0.85763 0.65046 0.90642 0.0
C2158 C 0.09786 0.11102 0.5795 0.0
C2159 C 0.10957 0.12337 0.57108 0.0
C2160 C 0.10252 0.11175 0.5921 0.0
C2161 C 0.12621 0.14725 0.61518 0.0
H2162 H 0.1243 0.09744 0.63625 0.0
C2163 C 0.14283 0.15337 0.66724 0.0
C2164 C 0.12882 0.14219 0.675 0.0
C2165 C 0.14292 0.14959 0.65455 0.0
C2166 C 0.12475 0.11152 0.6305 0.0
H2167 H 0.1359 0.14557 0.56928 0.0
H2168 H 0.14401 0.14673 0.5912 0.0
H2169 H 0.11987 0.09337 0.61402 0.0
H2170 H 0.10433 0.11781 0.6755 0.0
H2171 H 0.10426 0.11151 0.65339 0.0
H2172 H 0.13057 0.16549 0.63161 0.0
C2173 C 0.13105 0.13671 0.58808 0.0
C2174 C 0.12223 0.10918 0.61777 0.0
C2175 C 0.12644 0.13596 0.57551 0.0
C2176 C 0.11534 0.12672 0.66981 0.0
C2177 C 0.1154 0.123 0.65712 0.0
C2178 C 0.12866 0.1496 0.62789 0.0
C2179 C 0.11895 0.12487 0.59654 0.0
C2180 C 0.12275 0.12705 0.60998 0.0
C2181 C 0.12898 0.13459 0.64931 0.0
C2182 C 0.12777 0.13179 0.63573 0.0
H2183 H 0.08479 0.10113 0.57641 0.0
H2184 H 0.09279 0.10258 0.59839 0.0
H2185 H 0.12635 0.16138 0.60946 0.0
H2186 H 0.15353 0.16529 0.67094 0.0
H2187 H 0.15383 0.15855 0.64882 0.0
C2188 C 0.59711 0.38942 0.41818 0.0
C2189 C 0.60858 0.37708 0.42671 0.0
C2190 C 0.60192 0.38846 0.40561 0.0
C2191 C 0.62541 0.3525 0.38272 0.0
H2192 H 0.62533 0.40237 0.36167 0.0
C2193 C 0.6427 0.34603 0.33068 0.0
C2194 C 0.62924 0.35779 0.32289 0.0
C2195 C 0.6427 0.34968 0.3434 0.0
C2196 C 0.62527 0.38827 0.36741 0.0
H2197 H 0.63457 0.35454 0.42871 0.0
H2198 H 0.64291 0.35292 0.40683 0.0
H2199 H 0.6204 0.40652 0.38386 0.0
H2200 H 0.60563 0.38303 0.32236 0.0
H2201 H 0.60537 0.38908 0.34445 0.0
H2202 H 0.6297 0.33417 0.36632 0.0
C2203 C 0.63005 0.36316 0.40986 0.0
C2204 C 0.62245 0.39066 0.38012 0.0
C2205 C 0.62531 0.36418 0.42241 0.0
C2206 C 0.61622 0.37367 0.32807 0.0
C2207 C 0.61617 0.37725 0.34076 0.0
C2208 C 0.62812 0.3501 0.37003 0.0
C2209 C 0.61824 0.37507 0.4013 0.0
C2210 C 0.62231 0.37278 0.38789 0.0
C2211 C 0.62921 0.36514 0.34861 0.0
C2212 C 0.62787 0.36793 0.36219 0.0
H2213 H 0.58414 0.39955 0.42117 0.0
H2214 H 0.59242 0.39769 0.39922 0.0
H2215 H 0.62507 0.33838 0.38844 0.0
H2216 H 0.65302 0.33378 0.327 0.0
H2217 H 0.65318 0.34029 0.34916 0.0
C2218 C 0.40269 0.88924 0.07937 0.0
C2219 C 0.39144 0.87664 0.07086 0.0
C2220 C 0.39781 0.88834 0.09193 0.0
C2221 C 0.37488 0.85222 0.11489 0.0
H2222 H 0.37405 0.90224 0.13582 0.0
C2223 C 0.35802 0.84566 0.16695 0.0
C2224 C 0.37127 0.85774 0.1747 0.0
C2225 C 0.35783 0.84928 0.15423 0.0
C2226 C 0.37437 0.8881 0.13011 0.0
H2227 H 0.36576 0.85373 0.06889 0.0
H2228 H 0.35733 0.85223 0.09076 0.0
H2229 H 0.3789 0.90631 0.11362 0.0
H2230 H 0.39428 0.88353 0.17516 0.0
H2231 H 0.39424 0.88953 0.15305 0.0
H2232 H 0.37097 0.83393 0.13133 0.0
C2233 C 0.37005 0.86261 0.08772 0.0
C2234 C 0.37713 0.89045 0.1174 0.0
C2235 C 0.37485 0.86357 0.07518 0.0
C2236 C 0.38386 0.87392 0.16948 0.0
C2237 C 0.38373 0.87747 0.15678 0.0
C2238 C 0.37224 0.84986 0.12759 0.0
C2239 C 0.38165 0.87477 0.09626 0.0
C2240 C 0.3776 0.87252 0.10967 0.0
C2241 C 0.37094 0.86502 0.14898 0.0
C2242 C 0.37217 0.86775 0.13538 0.0
H2243 H 0.41553 0.8995 0.07636 0.0
H2244 H 0.40715 0.89777 0.09831 0.0
H2245 H 0.37547 0.83807 0.1092 0.0
H2246 H 0.34801 0.83318 0.17067 0.0
H2247 H 0.34753 0.83963 0.14851 0.0
C2248 C 0.88521 0.37314 0.6698 0.0
C2249 C 0.87236 0.35718 0.67502 0.0
C2250 C 0.88508 0.37675 0.65711 0.0
C2251 C 0.87274 0.34957 0.62788 0.0
H2252 H 0.88029 0.40601 0.61403 0.0
C2253 C 0.87463 0.36373 0.5755 0.0
C2254 C 0.89145 0.37644 0.57113 0.0
C2255 C 0.87004 0.36278 0.58807 0.0
C2256 C 0.87827 0.39016 0.61778 0.0
H2257 H 0.84867 0.33302 0.67101 0.0
H2258 H 0.84816 0.33959 0.64886 0.0
H2259 H 0.87572 0.40183 0.63625 0.0
H2260 H 0.91617 0.39869 0.57654 0.0
H2261 H 0.90813 0.39698 0.59853 0.0
H2262 H 0.87542 0.3379 0.60943 0.0
C2263 C 0.85868 0.34902 0.65457 0.0
C2264 C 0.87568 0.38774 0.6305 0.0
C2265 C 0.85888 0.34534 0.66728 0.0
C2266 C 0.90313 0.38871 0.5796 0.0
C2267 C 0.89846 0.38782 0.59219 0.0
C2268 C 0.87521 0.352 0.61517 0.0
C2269 C 0.87201 0.36457 0.64931 0.0
C2270 C 0.87314 0.36739 0.63572 0.0
C2271 C 0.88208 0.37458 0.59657 0.0
C2272 C 0.87823 0.37229 0.61 0.0
H2273 H 0.89582 0.38256 0.67548 0.0
H2274 H 0.89578 0.38863 0.65338 0.0
H2275 H 0.87121 0.33364 0.63158 0.0
H2276 H 0.86522 0.35415 0.56924 0.0
H2277 H 0.85714 0.35266 0.59116 0.0
C2278 C 0.38409 0.12866 0.32749 0.0
C2279 C 0.37141 0.14474 0.32225 0.0
C2280 C 0.38403 0.1252 0.34019 0.0
C2281 C 0.37256 0.15301 0.36932 0.0
H2282 H 0.37925 0.0967 0.38348 0.0
C2283 C 0.37468 0.1398 0.42177 0.0
C2284 C 0.39112 0.12667 0.4262 0.0
C2285 C 0.37009 0.14069 0.40919 0.0
C2286 C 0.37748 0.11253 0.37964 0.0
H2287 H 0.34805 0.16923 0.32625 0.0
H2288 H 0.34768 0.16293 0.34843 0.0
H2289 H 0.37448 0.10056 0.36125 0.0
H2290 H 0.41519 0.10366 0.42089 0.0
H2291 H 0.4072 0.10528 0.3989 0.0
H2292 H 0.37572 0.16499 0.38767 0.0
C2293 C 0.35801 0.15328 0.34271 0.0
C2294 C 0.37476 0.11475 0.36692 0.0
C2295 C 0.35813 0.15682 0.32999 0.0
C2296 C 0.40246 0.11397 0.41779 0.0
C2297 C 0.3978 0.1148 0.4052 0.0
C2298 C 0.37517 0.15077 0.38203 0.0
C2299 C 0.37122 0.13765 0.34799 0.0
C2300 C 0.37251 0.13505 0.36159 0.0
C2301 C 0.38177 0.12841 0.40075 0.0
C2302 C 0.37788 0.13053 0.38732 0.0
H2303 H 0.39453 0.11906 0.32181 0.0
H2304 H 0.39461 0.11322 0.34394 0.0
H2305 H 0.37126 0.1689 0.36552 0.0
H2306 H 0.36552 0.14972 0.42798 0.0
H2307 H 0.35745 0.1511 0.40606 0.0
C2308 C 0.61605 0.6272 0.16997 0.0
C2309 C 0.62927 0.6428 0.17525 0.0
C2310 C 0.61636 0.6235 0.15729 0.0
C2311 C 0.62988 0.65022 0.12814 0.0
H2312 H 0.62131 0.59397 0.11425 0.0
C2313 C 0.62777 0.63652 0.07575 0.0
C2314 C 0.61084 0.62401 0.07134 0.0
C2315 C 0.63241 0.63726 0.08832 0.0
C2316 C 0.62362 0.60978 0.11801 0.0
H2317 H 0.6538 0.66616 0.17136 0.0
H2318 H 0.65457 0.65946 0.14923 0.0
H2319 H 0.62565 0.59805 0.13649 0.0
H2320 H 0.58599 0.60185 0.07668 0.0
H2321 H 0.59406 0.60325 0.09866 0.0
H2322 H 0.62763 0.66198 0.1097 0.0
C2323 C 0.64366 0.65038 0.15489 0.0
C2324 C 0.62609 0.61213 0.13074 0.0
C2325 C 0.6433 0.65414 0.16759 0.0
C2326 C 0.59911 0.61169 0.07976 0.0
C2327 C 0.60381 0.61239 0.09235 0.0
C2328 C 0.6275 0.64786 0.11542 0.0
C2329 C 0.62996 0.63523 0.14956 0.0
C2330 C 0.62899 0.63242 0.13597 0.0
C2331 C 0.62029 0.62546 0.09678 0.0
C2332 C 0.62411 0.62765 0.11022 0.0
H2333 H 0.60502 0.61816 0.17558 0.0
H2334 H 0.60539 0.61192 0.1535 0.0
H2335 H 0.63171 0.66612 0.13185 0.0
H2336 H 0.63724 0.64611 0.06952 0.0
H2337 H 0.64541 0.64724 0.09144 0.0
C2338 C 0.1131 0.87438 0.82686 0.0
C2339 C 0.1272 0.85941 0.82174 0.0
C2340 C 0.113 0.87827 0.83954 0.0
C2341 C 0.12751 0.85264 0.86888 0.0
H2342 H 0.11666 0.90866 0.88254 0.0
C2343 C 0.12619 0.86689 0.92118 0.0
C2344 C 0.10895 0.87881 0.92574 0.0
C2345 C 0.13045 0.8662 0.90856 0.0
C2346 C 0.11959 0.89291 0.87885 0.0
H2347 H 0.15282 0.83739 0.82589 0.0
H2348 H 0.15285 0.84441 0.84798 0.0
H2349 H 0.12083 0.90445 0.86029 0.0
H2350 H 0.08312 0.89997 0.92061 0.0
H2351 H 0.0905 0.89863 0.89854 0.0
H2352 H 0.12607 0.84106 0.88738 0.0
C2353 C 0.14158 0.85284 0.84221 0.0
C2354 C 0.12197 0.89048 0.86611 0.0
C2355 C 0.14164 0.84889 0.82954 0.0
C2356 C 0.0965 0.89061 0.91741 0.0
C2357 C 0.1008 0.88993 0.90477 0.0
C2358 C 0.12521 0.85508 0.88159 0.0
C2359 C 0.12704 0.86734 0.84739 0.0
C2360 C 0.12578 0.87027 0.86097 0.0
C2361 C 0.1176 0.87742 0.90019 0.0
C2362 C 0.12106 0.8752 0.88672 0.0
H2363 H 0.10175 0.88277 0.82113 0.0
H2364 H 0.10141 0.88934 0.84322 0.0
H2365 H 0.13002 0.83679 0.86523 0.0
H2366 H 0.13622 0.85774 0.92733 0.0
H2367 H 0.14371 0.85669 0.90534 0.0
loop_
_geom_bond_atom_site_label_1
_geom_bond_atom_site_label_2
_geom_bond_distance
_geom_bond_site_symmetry_2
_ccdc_geom_bond_type
O0 Cd1 2.223 . S
O0 C8 1.315 . S
Cd1 O0 2.223 . S
Cd1 O4 2.297 . S
Cd1 O5 2.439 . S
Cd1 O11 2.240 . S
Cd2 O3 2.240 . S
Cd2 O10 2.223 . S
Cd2 O12 2.297 . S
Cd2 O13 2.439 . S
O3 Cd2 2.240 . S
O3 C8 1.279 . S
O4 Cd1 2.297 . S
O4 C6 1.247 . S
O5 Cd1 2.439 . S
O5 C6 1.208 . S
C6 O4 1.247 . S
C6 O5 1.208 . S
C7 O12 1.247 . S
C7 O13 1.208 . S
C8 O0 1.315 . S
C8 O3 1.279 . S
C9 O10 1.315 . S
C9 O11 1.279 . S
O10 Cd2 2.223 . S
O10 C9 1.315 . S
O11 Cd1 2.240 . S
O11 C9 1.279 . S
O12 Cd2 2.297 . S
O12 C7 1.247 . S
O13 Cd2 2.439 . S
O13 C7 1.208 . S
O14 Cd15 2.223 . S
O14 C22 1.315 . S
Cd15 O14 2.223 . S
Cd15 O18 2.297 . S
Cd15 O19 2.439 . S
Cd15 O25 2.240 . S
Cd16 O17 2.240 . S
Cd16 O24 2.223 . S
Cd16 O26 2.297 . S
Cd16 O27 2.439 . S
O17 Cd16 2.240 . S
O17 C22 1.279 . S
O18 Cd15 2.297 . S
O18 C20 1.247 . S
O19 Cd15 2.439 . S
O19 C20 1.208 . S
C20 O18 1.247 . S
C20 O19 1.208 . S
C21 O26 1.247 . S
C21 O27 1.208 . S
C22 O14 1.315 . S
C22 O17 1.279 . S
C23 O24 1.315 . S
C23 O25 1.279 . S
O24 Cd16 2.223 . S
O24 C23 1.315 . S
O25 Cd15 2.240 . S
O25 C23 1.279 . S
O26 Cd16 2.297 . S
O26 C21 1.247 . S
O27 Cd16 2.439 . S
O27 C21 1.208 . S
O28 Cd29 2.223 . S
O28 C36 1.315 . S
Cd29 O28 2.223 . S
Cd29 O32 2.297 . S
Cd29 O33 2.439 . S
Cd29 O39 2.240 . S
Cd30 O31 2.240 . S
Cd30 O38 2.223 . S
Cd30 O40 2.297 . S
Cd30 O41 2.439 . S
O31 Cd30 2.240 . S
O31 C36 1.279 . S
O32 Cd29 2.297 . S
O32 C34 1.247 . S
O33 Cd29 2.439 . S
O33 C34 1.208 . S
C34 O32 1.247 . S
C34 O33 1.208 . S
C35 O40 1.247 . S
C35 O41 1.208 . S
C36 O28 1.315 . S
C36 O31 1.279 . S
C37 O38 1.315 . S
C37 O39 1.279 . S
O38 Cd30 2.223 . S
O38 C37 1.315 . S
O39 Cd29 2.240 . S
O39 C37 1.279 . S
O40 Cd30 2.297 . S
O40 C35 1.247 . S
O41 Cd30 2.439 . S
O41 C35 1.208 . S
O42 Cd43 2.223 . S
O42 C50 1.315 . S
Cd43 O42 2.223 . S
Cd43 O46 2.297 . S
Cd43 O47 2.439 . S
Cd43 O53 2.240 . S
Cd44 O45 2.240 . S
Cd44 O52 2.223 . S
Cd44 O54 2.297 . S
Cd44 O55 2.439 . S
O45 Cd44 2.240 . S
O45 C50 1.279 . S
O46 Cd43 2.297 . S
O46 C48 1.247 . S
O47 Cd43 2.439 . S
O47 C48 1.208 . S
C48 O46 1.247 . S
C48 O47 1.208 . S
C49 O54 1.247 . S
C49 O55 1.208 . S
C50 O42 1.315 . S
C50 O45 1.279 . S
C51 O52 1.315 . S
C51 O53 1.279 . S
O52 Cd44 2.223 . S
O52 C51 1.315 . S
O53 Cd43 2.240 . S
O53 C51 1.279 . S
O54 Cd44 2.297 . S
O54 C49 1.247 . S
O55 Cd44 2.439 . S
O55 C49 1.208 . S
O56 Cd57 2.223 . S
O56 C64 1.315 . S
Cd57 O56 2.223 . S
Cd57 O60 2.297 . S
Cd57 O61 2.439 . S
Cd57 O67 2.240 . S
Cd58 O59 2.240 . S
Cd58 O66 2.223 . S
Cd58 O68 2.297 . S
Cd58 O69 2.439 . S
O59 Cd58 2.240 . S
O59 C64 1.279 . S
O60 Cd57 2.297 . S
O60 C62 1.247 . S
O61 Cd57 2.439 . S
O61 C62 1.208 . S
C62 O60 1.247 . S
C62 O61 1.208 . S
C63 O68 1.247 . S
C63 O69 1.208 . S
C64 O56 1.315 . S
C64 O59 1.279 . S
C65 O66 1.315 . S
C65 O67 1.279 . S
O66 Cd58 2.223 . S
O66 C65 1.315 . S
O67 Cd57 2.240 . S
O67 C65 1.279 . S
O68 Cd58 2.297 . S
O68 C63 1.247 . S
O69 Cd58 2.439 . S
O69 C63 1.208 . S
O70 Cd71 2.223 . S
O70 C78 1.315 . S
Cd71 O70 2.223 . S
Cd71 O74 2.297 . S
Cd71 O75 2.439 . S
Cd71 O81 2.240 . S
Cd72 O73 2.240 . S
Cd72 O80 2.223 . S
Cd72 O82 2.297 . S
Cd72 O83 2.439 . S
O73 Cd72 2.240 . S
O73 C78 1.279 . S
O74 Cd71 2.297 . S
O74 C76 1.247 . S
O75 Cd71 2.439 . S
O75 C76 1.208 . S
C76 O74 1.247 . S
C76 O75 1.208 . S
C77 O82 1.247 . S
C77 O83 1.208 . S
C78 O70 1.315 . S
C78 O73 1.279 . S
C79 O80 1.315 . S
C79 O81 1.279 . S
O80 Cd72 2.223 . S
O80 C79 1.315 . S
O81 Cd71 2.240 . S
O81 C79 1.279 . S
O82 Cd72 2.297 . S
O82 C77 1.247 . S
O83 Cd72 2.439 . S
O83 C77 1.208 . S
O84 Cd85 2.223 . S
O84 C92 1.315 . S
Cd85 O84 2.223 . S
Cd85 O88 2.297 . S
Cd85 O89 2.439 . S
Cd85 O95 2.240 . S
Cd86 O87 2.240 . S
Cd86 O94 2.223 . S
Cd86 O96 2.297 . S
Cd86 O97 2.439 . S
O87 Cd86 2.240 . S
O87 C92 1.279 . S
O88 Cd85 2.297 . S
O88 C90 1.247 . S
O89 Cd85 2.439 . S
O89 C90 1.208 . S
C90 O88 1.247 . S
C90 O89 1.208 . S
C91 O96 1.247 . S
C91 O97 1.208 . S
C92 O84 1.315 . S
C92 O87 1.279 . S
C93 O94 1.315 . S
C93 O95 1.279 . S
O94 Cd86 2.223 . S
O94 C93 1.315 . S
O95 Cd85 2.240 . S
O95 C93 1.279 . S
O96 Cd86 2.297 . S
O96 C91 1.247 . S
O97 Cd86 2.439 . S
O97 C91 1.208 . S
O98 Cd99 2.223 . S
O98 C106 1.315 . S
Cd99 O98 2.223 . S
Cd99 O102 2.297 . S
Cd99 O103 2.439 . S
Cd99 O109 2.240 . S
Cd100 O101 2.240 . S
Cd100 O108 2.223 . S
Cd100 O110 2.297 . S
Cd100 O111 2.439 . S
O101 Cd100 2.240 . S
O101 C106 1.279 . S
O102 Cd99 2.297 . S
O102 C104 1.247 . S
O103 Cd99 2.439 . S
O103 C104 1.208 . S
C104 O102 1.247 . S
C104 O103 1.208 . S
C105 O110 1.247 . S
C105 O111 1.208 . S
C106 O98 1.315 . S
C106 O101 1.279 . S
C107 O108 1.315 . S
C107 O109 1.279 . S
O108 Cd100 2.223 . S
O108 C107 1.315 . S
O109 Cd99 2.240 . S
O109 C107 1.279 . S
O110 Cd100 2.297 . S
O110 C105 1.247 . S
O111 Cd100 2.439 . S
O111 C105 1.208 . S
O112 Cd113 2.223 . S
O112 C120 1.315 . S
Cd113 O112 2.223 . S
Cd113 O116 2.297 . S
Cd113 O117 2.439 . S
Cd113 O123 2.240 . S
Cd114 O115 2.240 . S
Cd114 O122 2.223 . S
Cd114 O124 2.297 . S
Cd114 O125 2.439 . S
O115 Cd114 2.240 . S
O115 C120 1.279 . S
O116 Cd113 2.297 . S
O116 C118 1.247 . S
O117 Cd113 2.439 . S
O117 C118 1.208 . S
C118 O116 1.247 . S
C118 O117 1.208 . S
C119 O124 1.247 . S
C119 O125 1.208 . S
C120 O112 1.315 . S
C120 O115 1.279 . S
C121 O122 1.315 . S
C121 O123 1.279 . S
O122 Cd114 2.223 . S
O122 C121 1.315 . S
O123 Cd113 2.240 . S
O123 C121 1.279 . S
O124 Cd114 2.297 . S
O124 C119 1.247 . S
O125 Cd114 2.439 . S
O125 C119 1.208 . S
O126 Cd127 2.223 . S
O126 C134 1.315 . S
Cd127 O126 2.223 . S
Cd127 O130 2.297 . S
Cd127 O131 2.439 . S
Cd127 O137 2.240 . S
Cd128 O129 2.240 . S
Cd128 O136 2.223 . S
Cd128 O138 2.297 . S
Cd128 O139 2.439 . S
O129 Cd128 2.240 . S
O129 C134 1.279 . S
O130 Cd127 2.297 . S
O130 C132 1.247 . S
O131 Cd127 2.439 . S
O131 C132 1.208 . S
C132 O130 1.247 . S
C132 O131 1.208 . S
C133 O138 1.247 . S
C133 O139 1.208 . S
C134 O126 1.315 . S
C134 O129 1.279 . S
C135 O136 1.315 . S
C135 O137 1.279 . S
O136 Cd128 2.223 . S
O136 C135 1.315 . S
O137 Cd127 2.240 . S
O137 C135 1.279 . S
O138 Cd128 2.297 . S
O138 C133 1.247 . S
O139 Cd128 2.439 . S
O139 C133 1.208 . S
O140 Cd141 2.223 . S
O140 C148 1.315 . S
Cd141 O140 2.223 . S
Cd141 O144 2.297 . S
Cd141 O145 2.439 . S
Cd141 O151 2.240 . S
Cd142 O143 2.240 . S
Cd142 O150 2.223 . S
Cd142 O152 2.297 . S
Cd142 O153 2.439 . S
O143 Cd142 2.240 . S
O143 C148 1.279 . S
O144 Cd141 2.297 . S
O144 C146 1.247 . S
O145 Cd141 2.439 . S
O145 C146 1.208 . S
C146 O144 1.247 . S
C146 O145 1.208 . S
C147 O152 1.247 . S
C147 O153 1.208 . S
C148 O140 1.315 . S
C148 O143 1.279 . S
C149 O150 1.315 . S
C149 O151 1.279 . S
O150 Cd142 2.223 . S
O150 C149 1.315 . S
O151 Cd141 2.240 . S
O151 C149 1.279 . S
O152 Cd142 2.297 . S
O152 C147 1.247 . S
O153 Cd142 2.439 . S
O153 C147 1.208 . S
O154 Cd155 2.223 . S
O154 C162 1.315 . S
Cd155 O154 2.223 . S
Cd155 O158 2.297 . S
Cd155 O159 2.439 . S
Cd155 O165 2.240 . S
Cd156 O157 2.240 . S
Cd156 O164 2.223 . S
Cd156 O166 2.297 . S
Cd156 O167 2.439 . S
O157 Cd156 2.240 . S
O157 C162 1.279 . S
O158 Cd155 2.297 . S
O158 C160 1.247 . S
O159 Cd155 2.439 . S
O159 C160 1.208 . S
C160 O158 1.247 . S
C160 O159 1.208 . S
C161 O166 1.247 . S
C161 O167 1.208 . S
C162 O154 1.315 . S
C162 O157 1.279 . S
C163 O164 1.315 . S
C163 O165 1.279 . S
O164 Cd156 2.223 . S
O164 C163 1.315 . S
O165 Cd155 2.240 . S
O165 C163 1.279 . S
O166 Cd156 2.297 . S
O166 C161 1.247 . S
O167 Cd156 2.439 . S
O167 C161 1.208 . S
O168 Cd169 2.223 . S
O168 C176 1.315 . S
Cd169 O168 2.223 . S
Cd169 O172 2.297 . S
Cd169 O173 2.439 . S
Cd169 O179 2.240 . S
Cd170 O171 2.240 . S
Cd170 O178 2.223 . S
Cd170 O180 2.297 . S
Cd170 O181 2.439 . S
O171 Cd170 2.240 . S
O171 C176 1.279 . S
O172 Cd169 2.297 . S
O172 C174 1.247 . S
O173 Cd169 2.439 . S
O173 C174 1.208 . S
C174 O172 1.247 . S
C174 O173 1.208 . S
C175 O180 1.247 . S
C175 O181 1.208 . S
C176 O168 1.315 . S
C176 O171 1.279 . S
C177 O178 1.315 . S
C177 O179 1.279 . S
O178 Cd170 2.223 . S
O178 C177 1.315 . S
O179 Cd169 2.240 . S
O179 C177 1.279 . S
O180 Cd170 2.297 . S
O180 C175 1.247 . S
O181 Cd170 2.439 . S
O181 C175 1.208 . S
O182 Cd183 2.223 . S
O182 C190 1.315 . S
Cd183 O182 2.223 . S
Cd183 O186 2.297 . S
Cd183 O187 2.439 . S
Cd183 O193 2.240 . S
Cd184 O185 2.240 . S
Cd184 O192 2.223 . S
Cd184 O194 2.297 . S
Cd184 O195 2.439 . S
O185 Cd184 2.240 . S
O185 C190 1.279 . S
O186 Cd183 2.297 . S
O186 C188 1.247 . S
O187 Cd183 2.439 . S
O187 C188 1.208 . S
C188 O186 1.247 . S
C188 O187 1.208 . S
C189 O194 1.247 . S
C189 O195 1.208 . S
C190 O182 1.315 . S
C190 O185 1.279 . S
C191 O192 1.315 . S
C191 O193 1.279 . S
O192 Cd184 2.223 . S
O192 C191 1.315 . S
O193 Cd183 2.240 . S
O193 C191 1.279 . S
O194 Cd184 2.297 . S
O194 C189 1.247 . S
O195 Cd184 2.439 . S
O195 C189 1.208 . S
O196 Cd197 2.223 . S
O196 C204 1.315 . S
Cd197 O196 2.223 . S
Cd197 O200 2.297 . S
Cd197 O201 2.439 . S
Cd197 O207 2.240 . S
Cd198 O199 2.240 . S
Cd198 O206 2.223 . S
Cd198 O208 2.297 . S
Cd198 O209 2.439 . S
O199 Cd198 2.240 . S
O199 C204 1.279 . S
O200 Cd197 2.297 . S
O200 C202 1.247 . S
O201 Cd197 2.439 . S
O201 C202 1.208 . S
C202 O200 1.247 . S
C202 O201 1.208 . S
C203 O208 1.247 . S
C203 O209 1.208 . S
C204 O196 1.315 . S
C204 O199 1.279 . S
C205 O206 1.315 . S
C205 O207 1.279 . S
O206 Cd198 2.223 . S
O206 C205 1.315 . S
O207 Cd197 2.240 . S
O207 C205 1.279 . S
O208 Cd198 2.297 . S
O208 C203 1.247 . S
O209 Cd198 2.439 . S
O209 C203 1.208 . S
O210 Cd211 2.223 . S
O210 C218 1.315 . S
Cd211 O210 2.223 . S
Cd211 O214 2.297 . S
Cd211 O215 2.439 . S
Cd211 O221 2.240 . S
Cd212 O213 2.240 . S
Cd212 O220 2.223 . S
Cd212 O222 2.297 . S
Cd212 O223 2.439 . S
O213 Cd212 2.240 . S
O213 C218 1.279 . S
O214 Cd211 2.297 . S
O214 C216 1.247 . S
O215 Cd211 2.439 . S
O215 C216 1.208 . S
C216 O214 1.247 . S
C216 O215 1.208 . S
C217 O222 1.247 . S
C217 O223 1.208 . S
C218 O210 1.315 . S
C218 O213 1.279 . S
C219 O220 1.315 . S
C219 O221 1.279 . S
O220 Cd212 2.223 . S
O220 C219 1.315 . S
O221 Cd211 2.240 . S
O221 C219 1.279 . S
O222 Cd212 2.297 . S
O222 C217 1.247 . S
O223 Cd212 2.439 . S
O223 C217 1.208 . S
O224 Cd225 2.223 . S
O224 C232 1.315 . S
Cd225 O224 2.223 . S
Cd225 O228 2.297 . S
Cd225 O229 2.439 . S
Cd225 O235 2.240 . S
Cd226 O227 2.240 . S
Cd226 O234 2.223 . S
Cd226 O236 2.297 . S
Cd226 O237 2.439 . S
O227 Cd226 2.240 . S
O227 C232 1.279 . S
O228 Cd225 2.297 . S
O228 C230 1.247 . S
O229 Cd225 2.439 . S
O229 C230 1.208 . S
C230 O228 1.247 . S
C230 O229 1.208 . S
C231 O236 1.247 . S
C231 O237 1.208 . S
C232 O224 1.315 . S
C232 O227 1.279 . S
C233 O234 1.315 . S
C233 O235 1.279 . S
O234 Cd226 2.223 . S
O234 C233 1.315 . S
O235 Cd225 2.240 . S
O235 C233 1.279 . S
O236 Cd226 2.297 . S
O236 C231 1.247 . S
O237 Cd226 2.439 . S
O237 C231 1.208 . S
O238 Cd239 2.223 . S
O238 C246 1.315 . S
Cd239 O238 2.223 . S
Cd239 O242 2.297 . S
Cd239 O243 2.439 . S
Cd239 O249 2.240 . S
Cd240 O241 2.240 . S
Cd240 O248 2.223 . S
Cd240 O250 2.297 . S
Cd240 O251 2.439 . S
O241 Cd240 2.240 . S
O241 C246 1.279 . S
O242 Cd239 2.297 . S
O242 C244 1.247 . S
O243 Cd239 2.439 . S
O243 C244 1.208 . S
C244 O242 1.247 . S
C244 O243 1.208 . S
C245 O250 1.247 . S
C245 O251 1.208 . S
C246 O238 1.315 . S
C246 O241 1.279 . S
C247 O248 1.315 . S
C247 O249 1.279 . S
O248 Cd240 2.223 . S
O248 C247 1.315 . S
O249 Cd239 2.240 . S
O249 C247 1.279 . S
O250 Cd240 2.297 . S
O250 C245 1.247 . S
O251 Cd240 2.439 . S
O251 C245 1.208 . S
O252 Cd253 2.223 . S
O252 C260 1.315 . S
Cd253 O252 2.223 . S
Cd253 O256 2.297 . S
Cd253 O257 2.439 . S
Cd253 O263 2.240 . S
Cd254 O255 2.240 . S
Cd254 O262 2.223 . S
Cd254 O264 2.297 . S
Cd254 O265 2.439 . S
O255 Cd254 2.240 . S
O255 C260 1.279 . S
O256 Cd253 2.297 . S
O256 C258 1.247 . S
O257 Cd253 2.439 . S
O257 C258 1.208 . S
C258 O256 1.247 . S
C258 O257 1.208 . S
C259 O264 1.247 . S
C259 O265 1.208 . S
C260 O252 1.315 . S
C260 O255 1.279 . S
C261 O262 1.315 . S
C261 O263 1.279 . S
O262 Cd254 2.223 . S
O262 C261 1.315 . S
O263 Cd253 2.240 . S
O263 C261 1.279 . S
O264 Cd254 2.297 . S
O264 C259 1.247 . S
O265 Cd254 2.439 . S
O265 C259 1.208 . S
O266 Cd267 2.223 . S
O266 C274 1.315 . S
Cd267 O266 2.223 . S
Cd267 O270 2.297 . S
Cd267 O271 2.439 . S
Cd267 O277 2.240 . S
Cd268 O269 2.240 . S
Cd268 O276 2.223 . S
Cd268 O278 2.297 . S
Cd268 O279 2.439 . S
O269 Cd268 2.240 . S
O269 C274 1.279 . S
O270 Cd267 2.297 . S
O270 C272 1.247 . S
O271 Cd267 2.439 . S
O271 C272 1.208 . S
C272 O270 1.247 . S
C272 O271 1.208 . S
C273 O278 1.247 . S
C273 O279 1.208 . S
C274 O266 1.315 . S
C274 O269 1.279 . S
C275 O276 1.315 . S
C275 O277 1.279 . S
O276 Cd268 2.223 . S
O276 C275 1.315 . S
O277 Cd267 2.240 . S
O277 C275 1.279 . S
O278 Cd268 2.297 . S
O278 C273 1.247 . S
O279 Cd268 2.439 . S
O279 C273 1.208 . S
O280 Cd281 2.223 . S
O280 C288 1.315 . S
Cd281 O280 2.223 . S
Cd281 O284 2.297 . S
Cd281 O285 2.439 . S
Cd281 O291 2.240 . S
Cd282 O283 2.240 . S
Cd282 O290 2.223 . S
Cd282 O292 2.297 . S
Cd282 O293 2.439 . S
O283 Cd282 2.240 . S
O283 C288 1.279 . S
O284 Cd281 2.297 . S
O284 C286 1.247 . S
O285 Cd281 2.439 . S
O285 C286 1.208 . S
C286 O284 1.247 . S
C286 O285 1.208 . S
C287 O292 1.247 . S
C287 O293 1.208 . S
C288 O280 1.315 . S
C288 O283 1.279 . S
C289 O290 1.315 . S
C289 O291 1.279 . S
O290 Cd282 2.223 . S
O290 C289 1.315 . S
O291 Cd281 2.240 . S
O291 C289 1.279 . S
O292 Cd282 2.297 . S
O292 C287 1.247 . S
O293 Cd282 2.439 . S
O293 C287 1.208 . S
O294 Cd295 2.223 . S
O294 C302 1.315 . S
Cd295 O294 2.223 . S
Cd295 O298 2.297 . S
Cd295 O299 2.439 . S
Cd295 O305 2.240 . S
Cd296 O297 2.240 . S
Cd296 O304 2.223 . S
Cd296 O306 2.297 . S
Cd296 O307 2.439 . S
O297 Cd296 2.240 . S
O297 C302 1.279 . S
O298 Cd295 2.297 . S
O298 C300 1.247 . S
O299 Cd295 2.439 . S
O299 C300 1.208 . S
C300 O298 1.247 . S
C300 O299 1.208 . S
C301 O306 1.247 . S
C301 O307 1.208 . S
C302 O294 1.315 . S
C302 O297 1.279 . S
C303 O304 1.315 . S
C303 O305 1.279 . S
O304 Cd296 2.223 . S
O304 C303 1.315 . S
O305 Cd295 2.240 . S
O305 C303 1.279 . S
O306 Cd296 2.297 . S
O306 C301 1.247 . S
O307 Cd296 2.439 . S
O307 C301 1.208 . S
O308 Cd309 2.223 . S
O308 C316 1.315 . S
Cd309 O308 2.223 . S
Cd309 O312 2.297 . S
Cd309 O313 2.439 . S
Cd309 O319 2.240 . S
Cd310 O311 2.240 . S
Cd310 O318 2.223 . S
Cd310 O320 2.297 . S
Cd310 O321 2.439 . S
O311 Cd310 2.240 . S
O311 C316 1.279 . S
O312 Cd309 2.297 . S
O312 C314 1.247 . S
O313 Cd309 2.439 . S
O313 C314 1.208 . S
C314 O312 1.247 . S
C314 O313 1.208 . S
C315 O320 1.247 . S
C315 O321 1.208 . S
C316 O308 1.315 . S
C316 O311 1.279 . S
C317 O318 1.315 . S
C317 O319 1.279 . S
O318 Cd310 2.223 . S
O318 C317 1.315 . S
O319 Cd309 2.240 . S
O319 C317 1.279 . S
O320 Cd310 2.297 . S
O320 C315 1.247 . S
O321 Cd310 2.439 . S
O321 C315 1.208 . S
O322 Cd323 2.223 . S
O322 C330 1.315 . S
Cd323 O322 2.223 . S
Cd323 O326 2.297 . S
Cd323 O327 2.439 . S
Cd323 O333 2.240 . S
Cd324 O325 2.240 . S
Cd324 O332 2.223 . S
Cd324 O334 2.297 . S
Cd324 O335 2.439 . S
O325 Cd324 2.240 . S
O325 C330 1.279 . S
O326 Cd323 2.297 . S
O326 C328 1.247 . S
O327 Cd323 2.439 . S
O327 C328 1.208 . S
C328 O326 1.247 . S
C328 O327 1.208 . S
C329 O334 1.247 . S
C329 O335 1.208 . S
C330 O322 1.315 . S
C330 O325 1.279 . S
C331 O332 1.315 . S
C331 O333 1.279 . S
O332 Cd324 2.223 . S
O332 C331 1.315 . S
O333 Cd323 2.240 . S
O333 C331 1.279 . S
O334 Cd324 2.297 . S
O334 C329 1.247 . S
O335 Cd324 2.439 . S
O335 C329 1.208 . S
O336 Cd337 2.223 . S
O336 C344 1.315 . S
Cd337 O336 2.223 . S
Cd337 O340 2.297 . S
Cd337 O341 2.439 . S
Cd337 O347 2.240 . S
Cd338 O339 2.240 . S
Cd338 O346 2.223 . S
Cd338 O348 2.297 . S
Cd338 O349 2.439 . S
O339 Cd338 2.240 . S
O339 C344 1.279 . S
O340 Cd337 2.297 . S
O340 C342 1.247 . S
O341 Cd337 2.439 . S
O341 C342 1.208 . S
C342 O340 1.247 . S
C342 O341 1.208 . S
C343 O348 1.247 . S
C343 O349 1.208 . S
C344 O336 1.315 . S
C344 O339 1.279 . S
C345 O346 1.315 . S
C345 O347 1.279 . S
O346 Cd338 2.223 . S
O346 C345 1.315 . S
O347 Cd337 2.240 . S
O347 C345 1.279 . S
O348 Cd338 2.297 . S
O348 C343 1.247 . S
O349 Cd338 2.439 . S
O349 C343 1.208 . S
O350 Cd351 2.223 . S
O350 C358 1.315 . S
Cd351 O350 2.223 . S
Cd351 O354 2.297 . S
Cd351 O355 2.439 . S
Cd351 O361 2.240 . S
Cd352 O353 2.240 . S
Cd352 O360 2.223 . S
Cd352 O362 2.297 . S
Cd352 O363 2.439 . S
O353 Cd352 2.240 . S
O353 C358 1.279 . S
O354 Cd351 2.297 . S
O354 C356 1.247 . S
O355 Cd351 2.439 . S
O355 C356 1.208 . S
C356 O354 1.247 . S
C356 O355 1.208 . S
C357 O362 1.247 . S
C357 O363 1.208 . S
C358 O350 1.315 . S
C358 O353 1.279 . S
C359 O360 1.315 . S
C359 O361 1.279 . S
O360 Cd352 2.223 . S
O360 C359 1.315 . S
O361 Cd351 2.240 . S
O361 C359 1.279 . S
O362 Cd352 2.297 . S
O362 C357 1.247 . S
O363 Cd352 2.439 . S
O363 C357 1.208 . S
O364 Cd365 2.223 . S
O364 C372 1.315 . S
Cd365 O364 2.223 . S
Cd365 O368 2.297 . S
Cd365 O369 2.439 . S
Cd365 O375 2.240 . S
Cd366 O367 2.240 . S
Cd366 O374 2.223 . S
Cd366 O376 2.297 . S
Cd366 O377 2.439 . S
O367 Cd366 2.240 . S
O367 C372 1.279 . S
O368 Cd365 2.297 . S
O368 C370 1.247 . S
O369 Cd365 2.439 . S
O369 C370 1.208 . S
C370 O368 1.247 . S
C370 O369 1.208 . S
C371 O376 1.247 . S
C371 O377 1.208 . S
C372 O364 1.315 . S
C372 O367 1.279 . S
C373 O374 1.315 . S
C373 O375 1.279 . S
O374 Cd366 2.223 . S
O374 C373 1.315 . S
O375 Cd365 2.240 . S
O375 C373 1.279 . S
O376 Cd366 2.297 . S
O376 C371 1.247 . S
O377 Cd366 2.439 . S
O377 C371 1.208 . S
O378 Cd379 2.223 . S
O378 C386 1.315 . S
Cd379 O378 2.223 . S
Cd379 O382 2.297 . S
Cd379 O383 2.439 . S
Cd379 O389 2.240 . S
Cd380 O381 2.240 . S
Cd380 O388 2.223 . S
Cd380 O390 2.297 . S
Cd380 O391 2.439 . S
O381 Cd380 2.240 . S
O381 C386 1.279 . S
O382 Cd379 2.297 . S
O382 C384 1.247 . S
O383 Cd379 2.439 . S
O383 C384 1.208 . S
C384 O382 1.247 . S
C384 O383 1.208 . S
C385 O390 1.247 . S
C385 O391 1.208 . S
C386 O378 1.315 . S
C386 O381 1.279 . S
C387 O388 1.315 . S
C387 O389 1.279 . S
O388 Cd380 2.223 . S
O388 C387 1.315 . S
O389 Cd379 2.240 . S
O389 C387 1.279 . S
O390 Cd380 2.297 . S
O390 C385 1.247 . S
O391 Cd380 2.439 . S
O391 C385 1.208 . S
O392 Cd393 2.223 . S
O392 C400 1.315 . S
Cd393 O392 2.223 . S
Cd393 O396 2.297 . S
Cd393 O397 2.439 . S
Cd393 O403 2.240 . S
Cd394 O395 2.240 . S
Cd394 O402 2.223 . S
Cd394 O404 2.297 . S
Cd394 O405 2.439 . S
O395 Cd394 2.240 . S
O395 C400 1.279 . S
O396 Cd393 2.297 . S
O396 C398 1.247 . S
O397 Cd393 2.439 . S
O397 C398 1.208 . S
C398 O396 1.247 . S
C398 O397 1.208 . S
C399 O404 1.247 . S
C399 O405 1.208 . S
C400 O392 1.315 . S
C400 O395 1.279 . S
C401 O402 1.315 . S
C401 O403 1.279 . S
O402 Cd394 2.223 . S
O402 C401 1.315 . S
O403 Cd393 2.240 . S
O403 C401 1.279 . S
O404 Cd394 2.297 . S
O404 C399 1.247 . S
O405 Cd394 2.439 . S
O405 C399 1.208 . S
O406 Cd407 2.223 . S
O406 C414 1.315 . S
Cd407 O406 2.223 . S
Cd407 O410 2.297 . S
Cd407 O411 2.439 . S
Cd407 O417 2.240 . S
Cd408 O409 2.240 . S
Cd408 O416 2.223 . S
Cd408 O418 2.297 . S
Cd408 O419 2.439 . S
O409 Cd408 2.240 . S
O409 C414 1.279 . S
O410 Cd407 2.297 . S
O410 C412 1.247 . S
O411 Cd407 2.439 . S
O411 C412 1.208 . S
C412 O410 1.247 . S
C412 O411 1.208 . S
C413 O418 1.247 . S
C413 O419 1.208 . S
C414 O406 1.315 . S
C414 O409 1.279 . S
C415 O416 1.315 . S
C415 O417 1.279 . S
O416 Cd408 2.223 . S
O416 C415 1.315 . S
O417 Cd407 2.240 . S
O417 C415 1.279 . S
O418 Cd408 2.297 . S
O418 C413 1.247 . S
O419 Cd408 2.439 . S
O419 C413 1.208 . S
O420 Cd421 2.223 . S
O420 C428 1.315 . S
Cd421 O420 2.223 . S
Cd421 O424 2.297 . S
Cd421 O425 2.439 . S
Cd421 O431 2.240 . S
Cd422 O423 2.240 . S
Cd422 O430 2.223 . S
Cd422 O432 2.297 . S
Cd422 O433 2.439 . S
O423 Cd422 2.240 . S
O423 C428 1.279 . S
O424 Cd421 2.297 . S
O424 C426 1.247 . S
O425 Cd421 2.439 . S
O425 C426 1.208 . S
C426 O424 1.247 . S
C426 O425 1.208 . S
C427 O432 1.247 . S
C427 O433 1.208 . S
C428 O420 1.315 . S
C428 O423 1.279 . S
C429 O430 1.315 . S
C429 O431 1.279 . S
O430 Cd422 2.223 . S
O430 C429 1.315 . S
O431 Cd421 2.240 . S
O431 C429 1.279 . S
O432 Cd422 2.297 . S
O432 C427 1.247 . S
O433 Cd422 2.439 . S
O433 C427 1.208 . S
O434 Cd435 2.223 . S
O434 C442 1.315 . S
Cd435 O434 2.223 . S
Cd435 O438 2.297 . S
Cd435 O439 2.439 . S
Cd435 O445 2.240 . S
Cd436 O437 2.240 . S
Cd436 O444 2.223 . S
Cd436 O446 2.297 . S
Cd436 O447 2.439 . S
O437 Cd436 2.240 . S
O437 C442 1.279 . S
O438 Cd435 2.297 . S
O438 C440 1.247 . S
O439 Cd435 2.439 . S
O439 C440 1.208 . S
C440 O438 1.247 . S
C440 O439 1.208 . S
C441 O446 1.247 . S
C441 O447 1.208 . S
C442 O434 1.315 . S
C442 O437 1.279 . S
C443 O444 1.315 . S
C443 O445 1.279 . S
O444 Cd436 2.223 . S
O444 C443 1.315 . S
O445 Cd435 2.240 . S
O445 C443 1.279 . S
O446 Cd436 2.297 . S
O446 C441 1.247 . S
O447 Cd436 2.439 . S
O447 C441 1.208 . S
C448 C449 1.349 . S
C448 C450 1.327 . S
C448 H473 0.950 . S
C449 C448 1.349 . S
C449 C465 1.349 . S
C450 C448 1.327 . S
C450 C469 1.429 . S
C450 H474 0.950 . S
C451 C468 1.574 . S
C451 C470 1.368 1_554 S
C451 H475 0.949 . S
H452 C456 0.949 . S
C453 C454 1.349 . S
C453 C455 1.327 . S
C453 H476 0.950 . S
C454 C453 1.349 . S
C454 C466 1.349 . S
C455 C453 1.327 . S
C455 C471 1.429 . S
C455 H477 0.950 . S
C456 H452 0.949 . S
C456 C464 1.574 . S
C456 C472 1.368 1_556 S
H457 C465 0.950 . S
H458 C463 0.950 1_554 S
H459 C464 0.949 . S
H460 C466 0.950 . S
H461 C467 0.950 1_556 S
H462 C468 0.949 . S
C463 H458 0.950 1_556 S
C463 C465 1.327 . S
C463 C469 1.429 . S
C464 C456 1.574 . S
C464 H459 0.949 . S
C464 C470 1.368 1_455 S
C465 C449 1.349 . S
C465 H457 0.950 . S
C465 C463 1.327 . S
C466 C454 1.349 . S
C466 H460 0.950 . S
C466 C467 1.327 . S
C467 H461 0.950 1_554 S
C467 C466 1.327 . S
C467 C471 1.429 . S
C468 C451 1.574 . S
C468 H462 0.949 . S
C468 C472 1.368 1_655 S
C469 C450 1.429 . S
C469 C463 1.429 . S
C469 C470 1.523 . S
C470 C451 1.368 1_556 S
C470 C464 1.368 1_655 S
C470 C469 1.523 . S
C471 C455 1.429 . S
C471 C467 1.429 . S
C471 C472 1.523 . S
C472 C456 1.368 1_554 S
C472 C468 1.368 1_455 S
C472 C471 1.523 . S
H473 C448 0.950 . S
H474 C450 0.950 . S
H475 C451 0.949 . S
H476 C453 0.950 . S
H477 C455 0.950 . S
C478 C479 1.349 . S
C478 C480 1.327 . S
C478 H503 0.950 . S
C479 C478 1.349 . S
C479 C495 1.349 . S
C480 C478 1.327 . S
C480 C499 1.429 . S
C480 H504 0.950 . S
C481 C498 1.574 . S
C481 C500 1.368 . S
C481 H505 0.949 . S
H482 C486 0.949 . S
C483 C484 1.349 . S
C483 C485 1.327 . S
C483 H506 0.950 . S
C484 C483 1.349 . S
C484 C496 1.349 . S
C485 C483 1.327 . S
C485 C501 1.429 . S
C485 H507 0.950 . S
C486 H482 0.949 . S
C486 C494 1.574 . S
C486 C502 1.368 . S
H487 C495 0.950 . S
H488 C493 0.950 . S
H489 C494 0.949 . S
H490 C496 0.950 . S
H491 C497 0.950 . S
H492 C498 0.949 . S
C493 H488 0.950 . S
C493 C495 1.327 . S
C493 C499 1.429 . S
C494 C486 1.574 . S
C494 H489 0.949 . S
C494 C500 1.368 . S
C495 C479 1.349 . S
C495 H487 0.950 . S
C495 C493 1.327 . S
C496 C484 1.349 . S
C496 H490 0.950 . S
C496 C497 1.327 . S
C497 H491 0.950 . S
C497 C496 1.327 . S
C497 C501 1.429 . S
C498 C481 1.574 . S
C498 H492 0.949 . S
C498 C502 1.368 . S
C499 C480 1.429 . S
C499 C493 1.429 . S
C499 C500 1.523 . S
C500 C481 1.368 . S
C500 C494 1.368 . S
C500 C499 1.523 . S
C501 C485 1.429 . S
C501 C497 1.429 . S
C501 C502 1.523 . S
C502 C486 1.368 . S
C502 C498 1.368 . S
C502 C501 1.523 . S
H503 C478 0.950 . S
H504 C480 0.950 . S
H505 C481 0.949 . S
H506 C483 0.950 . S
H507 C485 0.950 . S
C508 C509 1.349 . S
C508 C510 1.327 . S
C508 H533 0.950 . S
C509 C508 1.349 . S
C509 C525 1.349 . S
C510 C508 1.327 . S
C510 C529 1.429 . S
C510 H534 0.950 . S
C511 C528 1.574 . S
C511 C530 1.368 . S
C511 H535 0.949 . S
H512 C516 0.949 . S
C513 C514 1.349 . S
C513 C515 1.327 . S
C513 H536 0.950 . S
C514 C513 1.349 . S
C514 C526 1.349 . S
C515 C513 1.327 . S
C515 C531 1.429 . S
C515 H537 0.950 . S
C516 H512 0.949 . S
C516 C524 1.574 . S
C516 C532 1.368 . S
H517 C525 0.950 . S
H518 C523 0.950 . S
H519 C524 0.949 . S
H520 C526 0.950 . S
H521 C527 0.950 . S
H522 C528 0.949 . S
C523 H518 0.950 . S
C523 C525 1.327 . S
C523 C529 1.429 . S
C524 C516 1.574 . S
C524 H519 0.949 . S
C524 C530 1.368 . S
C525 C509 1.349 . S
C525 H517 0.950 . S
C525 C523 1.327 . S
C526 C514 1.349 . S
C526 H520 0.950 . S
C526 C527 1.327 . S
C527 H521 0.950 . S
C527 C526 1.327 . S
C527 C531 1.429 . S
C528 C511 1.574 . S
C528 H522 0.949 . S
C528 C532 1.368 . S
C529 C510 1.429 . S
C529 C523 1.429 . S
C529 C530 1.523 . S
C530 C511 1.368 . S
C530 C524 1.368 . S
C530 C529 1.523 . S
C531 C515 1.429 . S
C531 C527 1.429 . S
C531 C532 1.523 . S
C532 C516 1.368 . S
C532 C528 1.368 . S
C532 C531 1.523 . S
H533 C508 0.950 . S
H534 C510 0.950 . S
H535 C511 0.949 . S
H536 C513 0.950 . S
H537 C515 0.950 . S
C538 C539 1.349 . S
C538 C540 1.327 . S
C538 H563 0.950 . S
C539 C538 1.349 . S
C539 C555 1.349 . S
C540 C538 1.327 . S
C540 C559 1.429 . S
C540 H564 0.950 . S
C541 C558 1.574 . S
C541 C560 1.368 . S
C541 H565 0.949 . S
H542 C546 0.949 . S
C543 C544 1.349 . S
C543 C545 1.327 . S
C543 H566 0.950 . S
C544 C543 1.349 . S
C544 C556 1.349 . S
C545 C543 1.327 . S
C545 C561 1.429 . S
C545 H567 0.950 . S
C546 H542 0.949 . S
C546 C554 1.574 . S
C546 C562 1.368 . S
H547 C555 0.950 . S
H548 C553 0.950 . S
H549 C554 0.949 . S
H550 C556 0.950 . S
H551 C557 0.950 . S
H552 C558 0.949 . S
C553 H548 0.950 . S
C553 C555 1.327 . S
C553 C559 1.429 . S
C554 C546 1.574 . S
C554 H549 0.949 . S
C554 C560 1.368 . S
C555 C539 1.349 . S
C555 H547 0.950 . S
C555 C553 1.327 . S
C556 C544 1.349 . S
C556 H550 0.950 . S
C556 C557 1.327 . S
C557 H551 0.950 . S
C557 C556 1.327 . S
C557 C561 1.429 . S
C558 C541 1.574 . S
C558 H552 0.949 . S
C558 C562 1.368 . S
C559 C540 1.429 . S
C559 C553 1.429 . S
C559 C560 1.523 . S
C560 C541 1.368 . S
C560 C554 1.368 . S
C560 C559 1.523 . S
C561 C545 1.429 . S
C561 C557 1.429 . S
C561 C562 1.523 . S
C562 C546 1.368 . S
C562 C558 1.368 . S
C562 C561 1.523 . S
H563 C538 0.950 . S
H564 C540 0.950 . S
H565 C541 0.949 . S
H566 C543 0.950 . S
H567 C545 0.950 . S
C568 C569 1.349 . S
C568 C570 1.327 . S
C568 H593 0.950 . S
C569 C568 1.349 . S
C569 C585 1.349 . S
C570 C568 1.327 . S
C570 C589 1.429 . S
C570 H594 0.950 . S
C571 C588 1.574 . S
C571 C590 1.368 1_455 S
C571 H595 0.949 . S
H572 C576 0.949 . S
C573 C574 1.349 . S
C573 C575 1.327 . S
C573 H596 0.950 . S
C574 C573 1.349 . S
C574 C586 1.349 . S
C575 C573 1.327 . S
C575 C591 1.429 . S
C575 H597 0.950 . S
C576 H572 0.949 . S
C576 C584 1.574 . S
C576 C592 1.368 1_655 S
H577 C585 0.950 . S
H578 C583 0.950 . S
H579 C584 0.949 . S
H580 C586 0.950 . S
H581 C587 0.950 . S
H582 C588 0.949 . S
C583 H578 0.950 . S
C583 C585 1.327 . S
C583 C589 1.429 . S
C584 C576 1.574 . S
C584 H579 0.949 . S
C584 C590 1.368 . S
C585 C569 1.349 . S
C585 H577 0.950 . S
C585 C583 1.327 . S
C586 C574 1.349 . S
C586 H580 0.950 . S
C586 C587 1.327 . S
C587 H581 0.950 . S
C587 C586 1.327 . S
C587 C591 1.429 . S
C588 C571 1.574 . S
C588 H582 0.949 . S
C588 C592 1.368 . S
C589 C570 1.429 . S
C589 C583 1.429 . S
C589 C590 1.523 . S
C590 C571 1.368 1_655 S
C590 C584 1.368 . S
C590 C589 1.523 . S
C591 C575 1.429 . S
C591 C587 1.429 . S
C591 C592 1.523 . S
C592 C576 1.368 1_455 S
C592 C588 1.368 . S
C592 C591 1.523 . S
H593 C568 0.950 . S
H594 C570 0.950 . S
H595 C571 0.949 . S
H596 C573 0.950 . S
H597 C575 0.950 . S
C598 C599 1.349 . S
C598 C600 1.327 . S
C598 H623 0.950 . S
C599 C598 1.349 . S
C599 C615 1.349 . S
C600 C598 1.327 . S
C600 C619 1.429 . S
C600 H624 0.950 . S
C601 C618 1.574 . S
C601 C620 1.368 . S
C601 H625 0.949 . S
H602 C606 0.949 . S
C603 C604 1.349 . S
C603 C605 1.327 . S
C603 H626 0.950 . S
C604 C603 1.349 . S
C604 C616 1.349 . S
C605 C603 1.327 . S
C605 C621 1.429 . S
C605 H627 0.950 . S
C606 H602 0.949 . S
C606 C614 1.574 . S
C606 C622 1.368 . S
H607 C615 0.950 . S
H608 C613 0.950 . S
H609 C614 0.949 . S
H610 C616 0.950 . S
H611 C617 0.950 . S
H612 C618 0.949 . S
C613 H608 0.950 . S
C613 C615 1.327 . S
C613 C619 1.429 . S
C614 C606 1.574 . S
C614 H609 0.949 . S
C614 C620 1.368 . S
C615 C599 1.349 . S
C615 H607 0.950 . S
C615 C613 1.327 . S
C616 C604 1.349 . S
C616 H610 0.950 . S
C616 C617 1.327 . S
C617 H611 0.950 . S
C617 C616 1.327 . S
C617 C621 1.429 . S
C618 C601 1.574 . S
C618 H612 0.949 . S
C618 C622 1.368 . S
C619 C600 1.429 . S
C619 C613 1.429 . S
C619 C620 1.523 . S
C620 C601 1.368 . S
C620 C614 1.368 . S
C620 C619 1.523 . S
C621 C605 1.429 . S
C621 C617 1.429 . S
C621 C622 1.523 . S
C622 C606 1.368 . S
C622 C618 1.368 . S
C622 C621 1.523 . S
H623 C598 0.950 . S
H624 C600 0.950 . S
H625 C601 0.949 . S
H626 C603 0.950 . S
H627 C605 0.950 . S
C628 C629 1.349 . S
C628 C630 1.327 . S
C628 H653 0.950 . S
C629 C628 1.349 . S
C629 C645 1.349 . S
C630 C628 1.327 . S
C630 C649 1.429 . S
C630 H654 0.950 1_556 S
C631 C648 1.574 . S
C631 C650 1.368 . S
C631 H655 0.949 . S
H632 C636 0.949 . S
C633 C634 1.349 . S
C633 C635 1.327 . S
C633 H656 0.950 . S
C634 C633 1.349 . S
C634 C646 1.349 . S
C635 C633 1.327 . S
C635 C651 1.429 . S
C635 H657 0.950 1_554 S
C636 H632 0.949 . S
C636 C644 1.574 . S
C636 C652 1.368 . S
H637 C645 0.950 . S
H638 C643 0.950 . S
H639 C644 0.949 . S
H640 C646 0.950 . S
H641 C647 0.950 . S
H642 C648 0.949 . S
C643 H638 0.950 . S
C643 C645 1.327 . S
C643 C649 1.429 . S
C644 C636 1.574 . S
C644 H639 0.949 . S
C644 C650 1.368 1_554 S
C645 C629 1.349 . S
C645 H637 0.950 . S
C645 C643 1.327 . S
C646 C634 1.349 . S
C646 H640 0.950 . S
C646 C647 1.327 . S
C647 H641 0.950 . S
C647 C646 1.327 . S
C647 C651 1.429 . S
C648 C631 1.574 . S
C648 H642 0.949 . S
C648 C652 1.368 1_556 S
C649 C630 1.429 . S
C649 C643 1.429 . S
C649 C650 1.523 . S
C650 C631 1.368 . S
C650 C644 1.368 1_556 S
C650 C649 1.523 . S
C651 C635 1.429 . S
C651 C647 1.429 . S
C651 C652 1.523 . S
C652 C636 1.368 . S
C652 C648 1.368 1_554 S
C652 C651 1.523 . S
H653 C628 0.950 . S
H654 C630 0.950 1_554 S
H655 C631 0.949 . S
H656 C633 0.950 . S
H657 C635 0.950 1_556 S
C658 C659 1.349 . S
C658 C660 1.327 . S
C658 H683 0.950 . S
C659 C658 1.349 . S
C659 C675 1.349 . S
C660 C658 1.327 . S
C660 C679 1.429 . S
C660 H684 0.950 . S
C661 C678 1.574 . S
C661 C680 1.368 . S
C661 H685 0.949 . S
H662 C666 0.949 . S
C663 C664 1.349 . S
C663 C665 1.327 . S
C663 H686 0.950 . S
C664 C663 1.349 . S
C664 C676 1.349 . S
C665 C663 1.327 . S
C665 C681 1.429 . S
C665 H687 0.950 . S
C666 H662 0.949 . S
C666 C674 1.574 . S
C666 C682 1.368 . S
H667 C675 0.950 . S
H668 C673 0.950 . S
H669 C674 0.949 . S
H670 C676 0.950 . S
H671 C677 0.950 . S
H672 C678 0.949 . S
C673 H668 0.950 . S
C673 C675 1.327 . S
C673 C679 1.429 . S
C674 C666 1.574 . S
C674 H669 0.949 . S
C674 C680 1.368 . S
C675 C659 1.349 . S
C675 H667 0.950 . S
C675 C673 1.327 . S
C676 C664 1.349 . S
C676 H670 0.950 . S
C676 C677 1.327 . S
C677 H671 0.950 . S
C677 C676 1.327 . S
C677 C681 1.429 . S
C678 C661 1.574 . S
C678 H672 0.949 . S
C678 C682 1.368 . S
C679 C660 1.429 . S
C679 C673 1.429 . S
C679 C680 1.523 . S
C680 C661 1.368 . S
C680 C674 1.368 . S
C680 C679 1.523 . S
C681 C665 1.429 . S
C681 C677 1.429 . S
C681 C682 1.523 . S
C682 C666 1.368 . S
C682 C678 1.368 . S
C682 C681 1.523 . S
H683 C658 0.950 . S
H684 C660 0.950 . S
H685 C661 0.949 . S
H686 C663 0.950 . S
H687 C665 0.950 . S
C688 C689 1.349 . S
C688 C690 1.327 . S
C688 H713 0.950 . S
C689 C688 1.349 . S
C689 C705 1.349 . S
C690 C688 1.327 . S
C690 C709 1.429 . S
C690 H714 0.950 . S
C691 C708 1.574 . S
C691 C710 1.368 . S
C691 H715 0.949 . S
H692 C696 0.949 . S
C693 C694 1.349 . S
C693 C695 1.327 . S
C693 H716 0.950 . S
C694 C693 1.349 . S
C694 C706 1.349 . S
C695 C693 1.327 . S
C695 C711 1.429 . S
C695 H717 0.950 . S
C696 H692 0.949 . S
C696 C704 1.574 . S
C696 C712 1.368 . S
H697 C705 0.950 . S
H698 C703 0.950 . S
H699 C704 0.949 . S
H700 C706 0.950 . S
H701 C707 0.950 . S
H702 C708 0.949 . S
C703 H698 0.950 . S
C703 C705 1.327 . S
C703 C709 1.429 . S
C704 C696 1.574 . S
C704 H699 0.949 . S
C704 C710 1.368 . S
C705 C689 1.349 . S
C705 H697 0.950 . S
C705 C703 1.327 . S
C706 C694 1.349 . S
C706 H700 0.950 . S
C706 C707 1.327 . S
C707 H701 0.950 . S
C707 C706 1.327 . S
C707 C711 1.429 . S
C708 C691 1.574 . S
C708 H702 0.949 . S
C708 C712 1.368 . S
C709 C690 1.429 . S
C709 C703 1.429 . S
C709 C710 1.523 . S
C710 C691 1.368 . S
C710 C704 1.368 . S
C710 C709 1.523 . S
C711 C695 1.429 . S
C711 C707 1.429 . S
C711 C712 1.523 . S
C712 C696 1.368 . S
C712 C708 1.368 . S
C712 C711 1.523 . S
H713 C688 0.950 . S
H714 C690 0.950 . S
H715 C691 0.949 . S
H716 C693 0.950 . S
H717 C695 0.950 . S
C718 C719 1.349 . S
C718 C720 1.327 . S
C718 H743 0.950 . S
C719 C718 1.349 . S
C719 C735 1.349 . S
C720 C718 1.327 . S
C720 C739 1.429 . S
C720 H744 0.950 . S
C721 C738 1.574 . S
C721 C740 1.368 . S
C721 H745 0.949 . S
H722 C726 0.949 . S
C723 C724 1.349 . S
C723 C725 1.327 . S
C723 H746 0.950 . S
C724 C723 1.349 . S
C724 C736 1.349 . S
C725 C723 1.327 . S
C725 C741 1.429 . S
C725 H747 0.950 . S
C726 H722 0.949 . S
C726 C734 1.574 . S
C726 C742 1.368 . S
H727 C735 0.950 . S
H728 C733 0.950 . S
H729 C734 0.949 . S
H730 C736 0.950 . S
H731 C737 0.950 . S
H732 C738 0.949 . S
C733 H728 0.950 . S
C733 C735 1.327 . S
C733 C739 1.429 . S
C734 C726 1.574 . S
C734 H729 0.949 . S
C734 C740 1.368 . S
C735 C719 1.349 . S
C735 H727 0.950 . S
C735 C733 1.327 . S
C736 C724 1.349 . S
C736 H730 0.950 . S
C736 C737 1.327 . S
C737 H731 0.950 . S
C737 C736 1.327 . S
C737 C741 1.429 . S
C738 C721 1.574 . S
C738 H732 0.949 . S
C738 C742 1.368 . S
C739 C720 1.429 . S
C739 C733 1.429 . S
C739 C740 1.523 . S
C740 C721 1.368 . S
C740 C734 1.368 . S
C740 C739 1.523 . S
C741 C725 1.429 . S
C741 C737 1.429 . S
C741 C742 1.523 . S
C742 C726 1.368 . S
C742 C738 1.368 . S
C742 C741 1.523 . S
H743 C718 0.950 . S
H744 C720 0.950 . S
H745 C721 0.949 . S
H746 C723 0.950 . S
H747 C725 0.950 . S
C748 C749 1.349 . S
C748 C750 1.327 . S
C748 H773 0.950 . S
C749 C748 1.349 . S
C749 C765 1.349 . S
C750 C748 1.327 . S
C750 C769 1.429 . S
C750 H774 0.950 . S
C751 C768 1.574 . S
C751 C770 1.368 . S
C751 H775 0.949 . S
H752 C756 0.949 . S
C753 C754 1.349 . S
C753 C755 1.327 . S
C753 H776 0.950 . S
C754 C753 1.349 . S
C754 C766 1.349 . S
C755 C753 1.327 . S
C755 C771 1.429 . S
C755 H777 0.950 . S
C756 H752 0.949 . S
C756 C764 1.574 . S
C756 C772 1.368 . S
H757 C765 0.950 . S
H758 C763 0.950 . S
H759 C764 0.949 . S
H760 C766 0.950 . S
H761 C767 0.950 . S
H762 C768 0.949 . S
C763 H758 0.950 . S
C763 C765 1.327 . S
C763 C769 1.429 . S
C764 C756 1.574 . S
C764 H759 0.949 . S
C764 C770 1.368 . S
C765 C749 1.349 . S
C765 H757 0.950 . S
C765 C763 1.327 . S
C766 C754 1.349 . S
C766 H760 0.950 . S
C766 C767 1.327 . S
C767 H761 0.950 . S
C767 C766 1.327 . S
C767 C771 1.429 . S
C768 C751 1.574 . S
C768 H762 0.949 . S
C768 C772 1.368 . S
C769 C750 1.429 . S
C769 C763 1.429 . S
C769 C770 1.523 . S
C770 C751 1.368 . S
C770 C764 1.368 . S
C770 C769 1.523 . S
C771 C755 1.429 . S
C771 C767 1.429 . S
C771 C772 1.523 . S
C772 C756 1.368 . S
C772 C768 1.368 . S
C772 C771 1.523 . S
H773 C748 0.950 . S
H774 C750 0.950 . S
H775 C751 0.949 . S
H776 C753 0.950 . S
H777 C755 0.950 . S
C778 C779 1.349 . S
C778 C780 1.327 . S
C778 H803 0.950 . S
C779 C778 1.349 . S
C779 C795 1.349 . S
C780 C778 1.327 . S
C780 C799 1.429 . S
C780 H804 0.950 . S
C781 C798 1.574 . S
C781 C800 1.368 . S
C781 H805 0.949 . S
H782 C786 0.949 . S
C783 C784 1.349 . S
C783 C785 1.327 . S
C783 H806 0.950 . S
C784 C783 1.349 . S
C784 C796 1.349 . S
C785 C783 1.327 . S
C785 C801 1.429 . S
C785 H807 0.950 . S
C786 H782 0.949 . S
C786 C794 1.574 . S
C786 C802 1.368 . S
H787 C795 0.950 . S
H788 C793 0.950 . S
H789 C794 0.949 . S
H790 C796 0.950 . S
H791 C797 0.950 . S
H792 C798 0.949 . S
C793 H788 0.950 . S
C793 C795 1.327 . S
C793 C799 1.429 . S
C794 C786 1.574 . S
C794 H789 0.949 . S
C794 C800 1.368 . S
C795 C779 1.349 . S
C795 H787 0.950 . S
C795 C793 1.327 . S
C796 C784 1.349 . S
C796 H790 0.950 . S
C796 C797 1.327 . S
C797 H791 0.950 . S
C797 C796 1.327 . S
C797 C801 1.429 . S
C798 C781 1.574 . S
C798 H792 0.949 . S
C798 C802 1.368 . S
C799 C780 1.429 . S
C799 C793 1.429 . S
C799 C800 1.523 . S
C800 C781 1.368 . S
C800 C794 1.368 . S
C800 C799 1.523 . S
C801 C785 1.429 . S
C801 C797 1.429 . S
C801 C802 1.523 . S
C802 C786 1.368 . S
C802 C798 1.368 . S
C802 C801 1.523 . S
H803 C778 0.950 . S
H804 C780 0.950 . S
H805 C781 0.949 . S
H806 C783 0.950 . S
H807 C785 0.950 . S
C808 C809 1.349 . S
C808 C810 1.327 . S
C808 H833 0.950 . S
C809 C808 1.349 . S
C809 C825 1.349 . S
C810 C808 1.327 . S
C810 C829 1.429 . S
C810 H834 0.950 . S
C811 C828 1.574 . S
C811 C830 1.368 . S
C811 H835 0.949 . S
H812 C816 0.949 . S
C813 C814 1.349 . S
C813 C815 1.327 . S
C813 H836 0.950 . S
C814 C813 1.349 . S
C814 C826 1.349 . S
C815 C813 1.327 . S
C815 C831 1.429 . S
C815 H837 0.950 . S
C816 H812 0.949 . S
C816 C824 1.574 . S
C816 C832 1.368 . S
H817 C825 0.950 . S
H818 C823 0.950 . S
H819 C824 0.949 . S
H820 C826 0.950 . S
H821 C827 0.950 . S
H822 C828 0.949 . S
C823 H818 0.950 . S
C823 C825 1.327 . S
C823 C829 1.429 . S
C824 C816 1.574 . S
C824 H819 0.949 . S
C824 C830 1.368 1_545 S
C825 C809 1.349 . S
C825 H817 0.950 . S
C825 C823 1.327 . S
C826 C814 1.349 . S
C826 H820 0.950 . S
C826 C827 1.327 . S
C827 H821 0.950 . S
C827 C826 1.327 . S
C827 C831 1.429 . S
C828 C811 1.574 . S
C828 H822 0.949 . S
C828 C832 1.368 1_565 S
C829 C810 1.429 . S
C829 C823 1.429 . S
C829 C830 1.523 . S
C830 C811 1.368 . S
C830 C824 1.368 1_565 S
C830 C829 1.523 . S
C831 C815 1.429 . S
C831 C827 1.429 . S
C831 C832 1.523 . S
C832 C816 1.368 . S
C832 C828 1.368 1_545 S
C832 C831 1.523 . S
H833 C808 0.950 . S
H834 C810 0.950 . S
H835 C811 0.949 . S
H836 C813 0.950 . S
H837 C815 0.950 . S
C838 C839 1.349 . S
C838 C840 1.327 . S
C838 H863 0.950 . S
C839 C838 1.349 . S
C839 C855 1.349 . S
C840 C838 1.327 . S
C840 C859 1.429 . S
C840 H864 0.950 . S
C841 C858 1.574 1_565 S
C841 C860 1.368 1_655 S
C841 H865 0.949 . S
H842 C846 0.949 . S
C843 C844 1.349 . S
C843 C845 1.327 . S
C843 H866 0.950 . S
C844 C843 1.349 . S
C844 C856 1.349 . S
C845 C843 1.327 . S
C845 C861 1.429 . S
C845 H867 0.950 . S
C846 H842 0.949 . S
C846 C854 1.574 1_545 S
C846 C862 1.368 1_455 S
H847 C855 0.950 . S
H848 C853 0.986 . S
H849 C854 0.949 . S
H850 C856 0.950 . S
H851 C857 0.986 . S
H852 C858 0.949 . S
C853 H848 0.986 . S
C853 C855 1.327 . S
C853 C859 1.429 . S
C854 C846 1.574 1_565 S
C854 H849 0.949 . S
C854 C860 1.368 1_554 S
C855 C839 1.349 . S
C855 H847 0.950 . S
C855 C853 1.327 . S
C856 C844 1.349 . S
C856 H850 0.950 . S
C856 C857 1.327 . S
C857 H851 0.986 . S
C857 C856 1.327 . S
C857 C861 1.429 . S
C858 C841 1.574 1_545 S
C858 H852 0.949 . S
C858 C862 1.368 1_556 S
C859 C840 1.429 . S
C859 C853 1.429 . S
C859 C860 1.523 . S
C860 C841 1.368 1_455 S
C860 C854 1.368 1_556 S
C860 C859 1.523 . S
C861 C845 1.429 . S
C861 C857 1.429 . S
C861 C862 1.523 . S
C862 C846 1.368 1_655 S
C862 C858 1.368 1_554 S
C862 C861 1.523 . S
H863 C838 0.950 . S
H864 C840 0.950 . S
H865 C841 0.949 . S
H866 C843 0.950 . S
H867 C845 0.950 . S
C868 C869 1.349 . S
C868 C870 1.327 . S
C868 H893 0.950 . S
C869 C868 1.349 . S
C869 C885 1.349 . S
C870 C868 1.327 . S
C870 C889 1.429 . S
C870 H894 0.950 . S
C871 C888 1.574 1_545 S
C871 C890 1.368 1_554 S
C871 H895 0.949 . S
H872 C876 0.949 . S
C873 C874 1.349 . S
C873 C875 1.327 . S
C873 H896 0.950 . S
C874 C873 1.349 . S
C874 C886 1.349 . S
C875 C873 1.327 . S
C875 C891 1.429 . S
C875 H897 0.950 . S
C876 H872 0.949 . S
C876 C884 1.574 1_565 S
C876 C892 1.368 1_556 S
H877 C885 0.932 1_554 S
H878 C883 0.874 1_554 S
H879 C884 0.949 . S
H880 C886 0.932 1_556 S
H881 C887 0.874 1_556 S
H882 C888 0.949 . S
C883 H878 0.874 1_556 S
C883 C885 1.356 . S
C883 C889 1.476 . S
C884 C876 1.574 1_545 S
C884 H879 0.949 . S
C884 C890 1.368 . S
C885 C869 1.349 . S
C885 H877 0.932 1_556 S
C885 C883 1.356 . S
C886 C874 1.349 . S
C886 H880 0.932 1_554 S
C886 C887 1.356 . S
C887 H881 0.874 1_554 S
C887 C886 1.356 . S
C887 C891 1.476 . S
C888 C871 1.574 1_565 S
C888 H882 0.949 . S
C888 C892 1.368 . S
C889 C870 1.429 . S
C889 C883 1.476 . S
C889 C890 1.523 . S
C890 C871 1.368 1_556 S
C890 C884 1.368 . S
C890 C889 1.523 . S
C891 C875 1.429 . S
C891 C887 1.476 . S
C891 C892 1.523 . S
C892 C876 1.368 1_554 S
C892 C888 1.368 . S
C892 C891 1.523 . S
H893 C868 0.950 . S
H894 C870 0.950 . S
H895 C871 0.949 . S
H896 C873 0.950 . S
H897 C875 0.950 . S
C898 C899 1.349 . S
C898 C900 1.327 . S
C898 H923 0.950 . S
C899 C898 1.349 . S
C899 C915 1.349 . S
C900 C898 1.327 . S
C900 C919 1.429 . S
C900 H924 0.950 . S
C901 C918 1.572 1_545 S
C901 C920 1.368 . S
C901 H925 0.949 . S
H902 C906 0.949 . S
C903 C904 1.349 . S
C903 C905 1.327 . S
C903 H926 0.950 . S
C904 C903 1.349 . S
C904 C916 1.349 . S
C905 C903 1.327 . S
C905 C921 1.429 . S
C905 H927 0.950 . S
C906 H902 0.949 . S
C906 C914 1.572 1_565 S
C906 C922 1.368 . S
H907 C915 0.950 . S
H908 C913 0.950 . S
H909 C914 0.949 1_455 S
H910 C916 0.950 . S
H911 C917 0.950 . S
H912 C918 0.949 1_655 S
C913 H908 0.950 . S
C913 C915 1.327 . S
C913 C919 1.429 . S
C914 C906 1.572 1_545 S
C914 H909 0.949 1_655 S
C914 C920 1.370 1_655 S
C915 C899 1.349 . S
C915 H907 0.950 . S
C915 C913 1.327 . S
C916 C904 1.349 . S
C916 H910 0.950 . S
C916 C917 1.327 . S
C917 H911 0.950 . S
C917 C916 1.327 . S
C917 C921 1.429 . S
C918 C901 1.572 1_565 S
C918 H912 0.949 1_455 S
C918 C922 1.370 1_455 S
C919 C900 1.429 . S
C919 C913 1.429 . S
C919 C920 1.523 . S
C920 C901 1.368 . S
C920 C914 1.370 1_455 S
C920 C919 1.523 . S
C921 C905 1.429 . S
C921 C917 1.429 . S
C921 C922 1.523 . S
C922 C906 1.368 . S
C922 C918 1.370 1_655 S
C922 C921 1.523 . S
H923 C898 0.950 . S
H924 C900 0.950 . S
H925 C901 0.949 . S
H926 C903 0.950 . S
H927 C905 0.950 . S
C928 C929 1.349 . S
C928 C930 1.327 . S
C928 H953 0.950 . S
C929 C928 1.349 . S
C929 C945 1.349 . S
C930 C928 1.327 . S
C930 C949 1.429 . S
C930 H954 0.950 . S
C931 C948 1.574 . S
C931 C950 1.368 1_455 S
C931 H955 0.949 . S
H932 C936 0.949 . S
C933 C934 1.349 . S
C933 C935 1.327 . S
C933 H956 0.950 . S
C934 C933 1.349 . S
C934 C946 1.349 . S
C935 C933 1.327 . S
C935 C951 1.429 . S
C935 H957 0.950 . S
C936 H932 0.949 . S
C936 C944 1.574 . S
C936 C952 1.368 1_655 S
H937 C945 0.950 . S
H938 C943 0.950 . S
H939 C944 0.949 . S
H940 C946 0.950 . S
H941 C947 0.950 . S
H942 C948 0.949 . S
C943 H938 0.950 . S
C943 C945 1.327 . S
C943 C949 1.429 . S
C944 C936 1.574 . S
C944 H939 0.949 . S
C944 C950 1.368 . S
C945 C929 1.349 . S
C945 H937 0.950 . S
C945 C943 1.327 . S
C946 C934 1.349 . S
C946 H940 0.950 . S
C946 C947 1.327 . S
C947 H941 0.950 . S
C947 C946 1.327 . S
C947 C951 1.429 . S
C948 C931 1.574 . S
C948 H942 0.949 . S
C948 C952 1.368 . S
C949 C930 1.429 . S
C949 C943 1.429 . S
C949 C950 1.523 . S
C950 C931 1.368 1_655 S
C950 C944 1.368 . S
C950 C949 1.523 . S
C951 C935 1.429 . S
C951 C947 1.429 . S
C951 C952 1.523 . S
C952 C936 1.368 1_455 S
C952 C948 1.368 . S
C952 C951 1.523 . S
H953 C928 0.950 . S
H954 C930 0.950 . S
H955 C931 0.949 . S
H956 C933 0.950 . S
H957 C935 0.950 . S
C958 C959 1.349 . S
C958 C960 1.327 . S
C958 H983 0.950 . S
C959 C958 1.349 . S
C959 C975 1.349 . S
C960 C958 1.327 . S
C960 C979 1.429 . S
C960 H984 0.950 . S
C961 C978 1.574 1_455 S
C961 C980 1.368 . S
C961 H985 0.949 . S
H962 C966 0.949 . S
C963 C964 1.349 . S
C963 C965 1.327 . S
C963 H986 0.950 . S
C964 C963 1.349 . S
C964 C976 1.349 . S
C965 C963 1.327 . S
C965 C981 1.429 . S
C965 H987 0.950 . S
C966 H962 0.949 . S
C966 C974 1.574 1_655 S
C966 C982 1.368 . S
H967 C975 0.950 . S
H968 C973 0.950 . S
H969 C974 0.949 . S
H970 C976 0.950 . S
H971 C977 0.950 . S
H972 C978 0.949 . S
C973 H968 0.950 . S
C973 C975 1.327 . S
C973 C979 1.429 . S
C974 C966 1.574 1_455 S
C974 H969 0.949 . S
C974 C980 1.368 . S
C975 C959 1.349 . S
C975 H967 0.950 . S
C975 C973 1.327 . S
C976 C964 1.349 . S
C976 H970 0.950 . S
C976 C977 1.327 . S
C977 H971 0.950 . S
C977 C976 1.327 . S
C977 C981 1.429 . S
C978 C961 1.574 1_655 S
C978 H972 0.949 . S
C978 C982 1.368 . S
C979 C960 1.429 . S
C979 C973 1.429 . S
C979 C980 1.523 . S
C980 C961 1.368 . S
C980 C974 1.368 . S
C980 C979 1.523 . S
C981 C965 1.429 . S
C981 C977 1.429 . S
C981 C982 1.523 . S
C982 C966 1.368 . S
C982 C978 1.368 . S
C982 C981 1.523 . S
H983 C958 0.950 . S
H984 C960 0.950 . S
H985 C961 0.949 . S
H986 C963 0.950 . S
H987 C965 0.950 . S
C988 C989 1.349 . S
C988 C990 1.327 . S
C988 H1013 0.950 . S
C989 C988 1.349 . S
C989 C1005 1.349 . S
C990 C988 1.327 . S
C990 C1009 1.429 . S
C990 H1014 0.950 . S
C991 C1008 1.574 . S
C991 C1010 1.368 . S
C991 H1015 0.949 . S
H992 C996 0.949 . S
C993 C994 1.349 . S
C993 C995 1.327 . S
C993 H1016 0.950 . S
C994 C993 1.349 . S
C994 C1006 1.349 . S
C995 C993 1.327 . S
C995 C1011 1.429 . S
C995 H1017 0.950 . S
C996 H992 0.949 . S
C996 C1004 1.574 . S
C996 C1012 1.368 . S
H997 C1005 0.950 . S
H998 C1003 0.950 . S
H999 C1004 0.949 . S
H1000 C1006 0.950 . S
H1001 C1007 0.950 . S
H1002 C1008 0.949 . S
C1003 H998 0.950 . S
C1003 C1005 1.327 . S
C1003 C1009 1.429 . S
C1004 C996 1.574 . S
C1004 H999 0.949 . S
C1004 C1010 1.368 . S
C1005 C989 1.349 . S
C1005 H997 0.950 . S
C1005 C1003 1.327 . S
C1006 C994 1.349 . S
C1006 H1000 0.950 . S
C1006 C1007 1.327 . S
C1007 H1001 0.950 . S
C1007 C1006 1.327 . S
C1007 C1011 1.429 . S
C1008 C991 1.574 . S
C1008 H1002 0.949 . S
C1008 C1012 1.368 . S
C1009 C990 1.429 . S
C1009 C1003 1.429 . S
C1009 C1010 1.523 . S
C1010 C991 1.368 . S
C1010 C1004 1.368 . S
C1010 C1009 1.523 . S
C1011 C995 1.429 . S
C1011 C1007 1.429 . S
C1011 C1012 1.523 . S
C1012 C996 1.368 . S
C1012 C1008 1.368 . S
C1012 C1011 1.523 . S
H1013 C988 0.950 . S
H1014 C990 0.950 . S
H1015 C991 0.949 . S
H1016 C993 0.950 . S
H1017 C995 0.950 . S
C1018 C1019 1.349 . S
C1018 C1020 1.327 . S
C1018 H1043 0.950 . S
C1019 C1018 1.349 . S
C1019 C1035 1.349 . S
C1020 C1018 1.327 . S
C1020 C1039 1.429 . S
C1020 H1044 0.950 . S
C1021 C1038 1.574 . S
C1021 C1040 1.368 . S
C1021 H1045 0.949 . S
H1022 C1026 0.949 . S
C1023 C1024 1.349 . S
C1023 C1025 1.327 . S
C1023 H1046 0.950 . S
C1024 C1023 1.349 . S
C1024 C1036 1.349 . S
C1025 C1023 1.327 . S
C1025 C1041 1.429 . S
C1025 H1047 0.950 . S
C1026 H1022 0.949 . S
C1026 C1034 1.574 . S
C1026 C1042 1.368 . S
H1027 C1035 0.950 . S
H1028 C1033 0.950 . S
H1029 C1034 0.949 . S
H1030 C1036 0.950 . S
H1031 C1037 0.950 . S
H1032 C1038 0.949 . S
C1033 H1028 0.950 . S
C1033 C1035 1.327 . S
C1033 C1039 1.429 . S
C1034 C1026 1.574 . S
C1034 H1029 0.949 . S
C1034 C1040 1.368 . S
C1035 C1019 1.349 . S
C1035 H1027 0.950 . S
C1035 C1033 1.327 . S
C1036 C1024 1.349 . S
C1036 H1030 0.950 . S
C1036 C1037 1.327 . S
C1037 H1031 0.950 . S
C1037 C1036 1.327 . S
C1037 C1041 1.429 . S
C1038 C1021 1.574 . S
C1038 H1032 0.949 . S
C1038 C1042 1.368 . S
C1039 C1020 1.429 . S
C1039 C1033 1.429 . S
C1039 C1040 1.523 . S
C1040 C1021 1.368 . S
C1040 C1034 1.368 . S
C1040 C1039 1.523 . S
C1041 C1025 1.429 . S
C1041 C1037 1.429 . S
C1041 C1042 1.523 . S
C1042 C1026 1.368 . S
C1042 C1038 1.368 . S
C1042 C1041 1.523 . S
H1043 C1018 0.950 . S
H1044 C1020 0.950 . S
H1045 C1021 0.949 . S
H1046 C1023 0.950 . S
H1047 C1025 0.950 . S
C1048 C1049 1.349 . S
C1048 C1050 1.327 . S
C1048 H1073 0.950 . S
C1049 C1048 1.349 . S
C1049 C1065 1.349 . S
C1050 C1048 1.327 . S
C1050 C1069 1.429 . S
C1050 H1074 0.950 . S
C1051 C1068 1.574 . S
C1051 C1070 1.368 . S
C1051 H1075 0.949 . S
H1052 C1056 0.949 . S
C1053 C1054 1.349 . S
C1053 C1055 1.327 . S
C1053 H1076 0.950 . S
C1054 C1053 1.349 . S
C1054 C1066 1.349 . S
C1055 C1053 1.327 . S
C1055 C1071 1.429 . S
C1055 H1077 0.950 . S
C1056 H1052 0.949 . S
C1056 C1064 1.574 . S
C1056 C1072 1.368 . S
H1057 C1065 0.950 . S
H1058 C1063 0.950 . S
H1059 C1064 0.949 . S
H1060 C1066 0.950 . S
H1061 C1067 0.950 . S
H1062 C1068 0.949 . S
C1063 H1058 0.950 . S
C1063 C1065 1.327 . S
C1063 C1069 1.429 . S
C1064 C1056 1.574 . S
C1064 H1059 0.949 . S
C1064 C1070 1.368 1_455 S
C1065 C1049 1.349 . S
C1065 H1057 0.950 . S
C1065 C1063 1.327 . S
C1066 C1054 1.349 . S
C1066 H1060 0.950 . S
C1066 C1067 1.327 . S
C1067 H1061 0.950 . S
C1067 C1066 1.327 . S
C1067 C1071 1.429 . S
C1068 C1051 1.574 . S
C1068 H1062 0.949 . S
C1068 C1072 1.368 1_655 S
C1069 C1050 1.429 . S
C1069 C1063 1.429 . S
C1069 C1070 1.523 . S
C1070 C1051 1.368 . S
C1070 C1064 1.368 1_655 S
C1070 C1069 1.523 . S
C1071 C1055 1.429 . S
C1071 C1067 1.429 . S
C1071 C1072 1.523 . S
C1072 C1056 1.368 . S
C1072 C1068 1.368 1_455 S
C1072 C1071 1.523 . S
H1073 C1048 0.950 . S
H1074 C1050 0.950 . S
H1075 C1051 0.949 . S
H1076 C1053 0.950 . S
H1077 C1055 0.950 . S
C1078 C1079 1.349 . S
C1078 C1080 1.327 . S
C1078 H1103 0.950 . S
C1079 C1078 1.349 . S
C1079 C1095 1.349 . S
C1080 C1078 1.327 . S
C1080 C1099 1.429 . S
C1080 H1104 0.950 . S
C1081 C1098 1.574 . S
C1081 C1100 1.368 . S
C1081 H1105 0.949 . S
H1082 C1086 0.949 . S
C1083 C1084 1.349 . S
C1083 C1085 1.327 . S
C1083 H1106 0.950 . S
C1084 C1083 1.349 . S
C1084 C1096 1.349 . S
C1085 C1083 1.327 . S
C1085 C1101 1.429 . S
C1085 H1107 0.950 . S
C1086 H1082 0.949 . S
C1086 C1094 1.574 . S
C1086 C1102 1.368 . S
H1087 C1095 0.950 . S
H1088 C1093 0.950 . S
H1089 C1094 0.949 . S
H1090 C1096 0.950 . S
H1091 C1097 0.950 . S
H1092 C1098 0.949 . S
C1093 H1088 0.950 . S
C1093 C1095 1.327 . S
C1093 C1099 1.429 . S
C1094 C1086 1.574 . S
C1094 H1089 0.949 . S
C1094 C1100 1.368 . S
C1095 C1079 1.349 . S
C1095 H1087 0.950 . S
C1095 C1093 1.327 . S
C1096 C1084 1.349 . S
C1096 H1090 0.950 . S
C1096 C1097 1.327 . S
C1097 H1091 0.950 . S
C1097 C1096 1.327 . S
C1097 C1101 1.429 . S
C1098 C1081 1.574 . S
C1098 H1092 0.949 . S
C1098 C1102 1.368 . S
C1099 C1080 1.429 . S
C1099 C1093 1.429 . S
C1099 C1100 1.523 . S
C1100 C1081 1.368 . S
C1100 C1094 1.368 . S
C1100 C1099 1.523 . S
C1101 C1085 1.429 . S
C1101 C1097 1.429 . S
C1101 C1102 1.523 . S
C1102 C1086 1.368 . S
C1102 C1098 1.368 . S
C1102 C1101 1.523 . S
H1103 C1078 0.950 . S
H1104 C1080 0.950 . S
H1105 C1081 0.949 . S
H1106 C1083 0.950 . S
H1107 C1085 0.950 . S
C1108 C1109 1.349 . S
C1108 C1110 1.327 . S
C1108 H1133 0.950 . S
C1109 C1108 1.349 . S
C1109 C1125 1.349 . S
C1110 C1108 1.327 . S
C1110 C1129 1.429 . S
C1110 H1134 0.950 . S
C1111 C1128 1.574 . S
C1111 C1130 1.368 . S
C1111 H1135 0.949 . S
H1112 C1116 0.949 . S
C1113 C1114 1.349 . S
C1113 C1115 1.327 . S
C1113 H1136 0.950 . S
C1114 C1113 1.349 . S
C1114 C1126 1.349 . S
C1115 C1113 1.327 . S
C1115 C1131 1.429 . S
C1115 H1137 0.950 . S
C1116 H1112 0.949 . S
C1116 C1124 1.574 . S
C1116 C1132 1.368 . S
H1117 C1125 0.950 . S
H1118 C1123 0.950 . S
H1119 C1124 0.949 . S
H1120 C1126 0.950 . S
H1121 C1127 0.950 . S
H1122 C1128 0.949 . S
C1123 H1118 0.950 . S
C1123 C1125 1.327 . S
C1123 C1129 1.429 . S
C1124 C1116 1.574 . S
C1124 H1119 0.949 . S
C1124 C1130 1.368 . S
C1125 C1109 1.349 . S
C1125 H1117 0.950 . S
C1125 C1123 1.327 . S
C1126 C1114 1.349 . S
C1126 H1120 0.950 . S
C1126 C1127 1.327 . S
C1127 H1121 0.950 . S
C1127 C1126 1.327 . S
C1127 C1131 1.429 . S
C1128 C1111 1.574 . S
C1128 H1122 0.949 . S
C1128 C1132 1.368 . S
C1129 C1110 1.429 . S
C1129 C1123 1.429 . S
C1129 C1130 1.523 . S
C1130 C1111 1.368 . S
C1130 C1124 1.368 . S
C1130 C1129 1.523 . S
C1131 C1115 1.429 . S
C1131 C1127 1.429 . S
C1131 C1132 1.523 . S
C1132 C1116 1.368 . S
C1132 C1128 1.368 . S
C1132 C1131 1.523 . S
H1133 C1108 0.950 . S
H1134 C1110 0.950 . S
H1135 C1111 0.949 . S
H1136 C1113 0.950 . S
H1137 C1115 0.950 . S
C1138 C1139 1.349 . S
C1138 C1140 1.327 . S
C1138 H1163 0.950 . S
C1139 C1138 1.349 . S
C1139 C1155 1.349 . S
C1140 C1138 1.327 . S
C1140 C1159 1.429 . S
C1140 H1164 0.950 . S
C1141 C1158 1.574 1_455 S
C1141 C1160 1.368 . S
C1141 H1165 0.949 . S
H1142 C1146 0.949 . S
C1143 C1144 1.349 . S
C1143 C1145 1.327 . S
C1143 H1166 0.950 . S
C1144 C1143 1.349 . S
C1144 C1156 1.349 . S
C1145 C1143 1.327 . S
C1145 C1161 1.429 . S
C1145 H1167 0.950 . S
C1146 H1142 0.949 . S
C1146 C1154 1.574 1_655 S
C1146 C1162 1.368 . S
H1147 C1155 0.950 . S
H1148 C1153 0.950 . S
H1149 C1154 0.949 . S
H1150 C1156 0.950 . S
H1151 C1157 0.950 . S
H1152 C1158 0.949 . S
C1153 H1148 0.950 . S
C1153 C1155 1.327 . S
C1153 C1159 1.429 . S
C1154 C1146 1.574 1_455 S
C1154 H1149 0.949 . S
C1154 C1160 1.368 . S
C1155 C1139 1.349 . S
C1155 H1147 0.950 . S
C1155 C1153 1.327 . S
C1156 C1144 1.349 . S
C1156 H1150 0.950 . S
C1156 C1157 1.327 . S
C1157 H1151 0.950 . S
C1157 C1156 1.327 . S
C1157 C1161 1.429 . S
C1158 C1141 1.574 1_655 S
C1158 H1152 0.949 . S
C1158 C1162 1.368 . S
C1159 C1140 1.429 . S
C1159 C1153 1.429 . S
C1159 C1160 1.523 . S
C1160 C1141 1.368 . S
C1160 C1154 1.368 . S
C1160 C1159 1.523 . S
C1161 C1145 1.429 . S
C1161 C1157 1.429 . S
C1161 C1162 1.523 . S
C1162 C1146 1.368 . S
C1162 C1158 1.368 . S
C1162 C1161 1.523 . S
H1163 C1138 0.950 . S
H1164 C1140 0.950 . S
H1165 C1141 0.949 . S
H1166 C1143 0.950 . S
H1167 C1145 0.950 . S
C1168 C1169 1.349 . S
C1168 C1170 1.327 . S
C1168 H1193 0.950 . S
C1169 C1168 1.349 . S
C1169 C1185 1.349 . S
C1170 C1168 1.327 . S
C1170 C1189 1.429 . S
C1170 H1194 0.950 . S
C1171 C1188 1.574 . S
C1171 C1190 1.368 1_455 S
C1171 H1195 0.949 . S
H1172 C1176 0.949 . S
C1173 C1174 1.349 . S
C1173 C1175 1.327 . S
C1173 H1196 0.950 . S
C1174 C1173 1.349 . S
C1174 C1186 1.349 . S
C1175 C1173 1.327 . S
C1175 C1191 1.429 . S
C1175 H1197 0.950 . S
C1176 H1172 0.949 . S
C1176 C1184 1.574 . S
C1176 C1192 1.368 1_655 S
H1177 C1185 0.950 . S
H1178 C1183 0.950 . S
H1179 C1184 0.949 . S
H1180 C1186 0.950 . S
H1181 C1187 0.950 . S
H1182 C1188 0.949 . S
C1183 H1178 0.950 . S
C1183 C1185 1.327 . S
C1183 C1189 1.429 . S
C1184 C1176 1.574 . S
C1184 H1179 0.949 . S
C1184 C1190 1.368 . S
C1185 C1169 1.349 . S
C1185 H1177 0.950 . S
C1185 C1183 1.327 . S
C1186 C1174 1.349 . S
C1186 H1180 0.950 . S
C1186 C1187 1.327 . S
C1187 H1181 0.950 . S
C1187 C1186 1.327 . S
C1187 C1191 1.429 . S
C1188 C1171 1.574 . S
C1188 H1182 0.949 . S
C1188 C1192 1.368 . S
C1189 C1170 1.429 . S
C1189 C1183 1.429 . S
C1189 C1190 1.523 . S
C1190 C1171 1.368 1_655 S
C1190 C1184 1.368 . S
C1190 C1189 1.523 . S
C1191 C1175 1.429 . S
C1191 C1187 1.429 . S
C1191 C1192 1.523 . S
C1192 C1176 1.368 1_455 S
C1192 C1188 1.368 . S
C1192 C1191 1.523 . S
H1193 C1168 0.950 . S
H1194 C1170 0.950 . S
H1195 C1171 0.949 . S
H1196 C1173 0.950 . S
H1197 C1175 0.950 . S
C1198 C1199 1.349 . S
C1198 C1200 1.327 . S
C1198 H1223 0.950 . S
C1199 C1198 1.349 . S
C1199 C1215 1.349 . S
C1200 C1198 1.327 . S
C1200 C1219 1.429 . S
C1200 H1224 0.950 . S
C1201 C1218 1.574 1_655 S
C1201 C1220 1.368 . S
C1201 H1225 0.949 . S
H1202 C1206 0.949 . S
C1203 C1204 1.349 . S
C1203 C1205 1.327 . S
C1203 H1226 0.950 . S
C1204 C1203 1.349 . S
C1204 C1216 1.349 . S
C1205 C1203 1.327 . S
C1205 C1221 1.429 . S
C1205 H1227 0.950 . S
C1206 H1202 0.949 . S
C1206 C1214 1.574 1_455 S
C1206 C1222 1.368 . S
H1207 C1215 0.950 . S
H1208 C1213 0.950 . S
H1209 C1214 0.949 . S
H1210 C1216 0.950 . S
H1211 C1217 0.950 . S
H1212 C1218 0.949 . S
C1213 H1208 0.950 . S
C1213 C1215 1.327 . S
C1213 C1219 1.429 . S
C1214 C1206 1.574 1_655 S
C1214 H1209 0.949 . S
C1214 C1220 1.368 . S
C1215 C1199 1.349 . S
C1215 H1207 0.950 . S
C1215 C1213 1.327 . S
C1216 C1204 1.349 . S
C1216 H1210 0.950 . S
C1216 C1217 1.327 . S
C1217 H1211 0.950 . S
C1217 C1216 1.327 . S
C1217 C1221 1.429 . S
C1218 C1201 1.574 1_455 S
C1218 H1212 0.949 . S
C1218 C1222 1.368 . S
C1219 C1200 1.429 . S
C1219 C1213 1.429 . S
C1219 C1220 1.523 . S
C1220 C1201 1.368 . S
C1220 C1214 1.368 . S
C1220 C1219 1.523 . S
C1221 C1205 1.429 . S
C1221 C1217 1.429 . S
C1221 C1222 1.523 . S
C1222 C1206 1.368 . S
C1222 C1218 1.368 . S
C1222 C1221 1.523 . S
H1223 C1198 0.950 . S
H1224 C1200 0.950 . S
H1225 C1201 0.949 . S
H1226 C1203 0.950 . S
H1227 C1205 0.950 . S
C1228 C1229 1.349 . S
C1228 C1230 1.327 . S
C1228 H1253 0.950 . S
C1229 C1228 1.349 . S
C1229 C1245 1.349 . S
C1230 C1228 1.327 . S
C1230 C1249 1.429 . S
C1230 H1254 0.950 . S
C1231 C1248 1.574 . S
C1231 C1250 1.368 . S
C1231 H1255 0.949 . S
H1232 C1236 0.949 . S
C1233 C1234 1.349 . S
C1233 C1235 1.327 . S
C1233 H1256 0.950 . S
C1234 C1233 1.349 . S
C1234 C1246 1.349 . S
C1235 C1233 1.327 . S
C1235 C1251 1.429 . S
C1235 H1257 0.950 . S
C1236 H1232 0.949 . S
C1236 C1244 1.574 . S
C1236 C1252 1.368 . S
H1237 C1245 0.950 . S
H1238 C1243 0.950 . S
H1239 C1244 0.949 . S
H1240 C1246 0.950 . S
H1241 C1247 0.950 . S
H1242 C1248 0.949 . S
C1243 H1238 0.950 . S
C1243 C1245 1.327 . S
C1243 C1249 1.429 . S
C1244 C1236 1.574 . S
C1244 H1239 0.949 . S
C1244 C1250 1.368 . S
C1245 C1229 1.349 . S
C1245 H1237 0.950 . S
C1245 C1243 1.327 . S
C1246 C1234 1.349 . S
C1246 H1240 0.950 . S
C1246 C1247 1.327 . S
C1247 H1241 0.950 . S
C1247 C1246 1.327 . S
C1247 C1251 1.429 . S
C1248 C1231 1.574 . S
C1248 H1242 0.949 . S
C1248 C1252 1.368 . S
C1249 C1230 1.429 . S
C1249 C1243 1.429 . S
C1249 C1250 1.523 . S
C1250 C1231 1.368 . S
C1250 C1244 1.368 . S
C1250 C1249 1.523 . S
C1251 C1235 1.429 . S
C1251 C1247 1.429 . S
C1251 C1252 1.523 . S
C1252 C1236 1.368 . S
C1252 C1248 1.368 . S
C1252 C1251 1.523 . S
H1253 C1228 0.950 . S
H1254 C1230 0.950 . S
H1255 C1231 0.949 . S
H1256 C1233 0.950 . S
H1257 C1235 0.950 . S
C1258 C1259 1.349 . S
C1258 C1260 1.327 . S
C1258 H1283 0.950 . S
C1259 C1258 1.349 . S
C1259 C1275 1.349 . S
C1260 C1258 1.327 . S
C1260 C1279 1.429 . S
C1260 H1284 0.950 . S
C1261 C1278 1.574 . S
C1261 C1280 1.368 . S
C1261 H1285 0.949 . S
H1262 C1266 0.949 . S
C1263 C1264 1.349 . S
C1263 C1265 1.327 . S
C1263 H1286 0.950 . S
C1264 C1263 1.349 . S
C1264 C1276 1.349 . S
C1265 C1263 1.327 . S
C1265 C1281 1.429 . S
C1265 H1287 0.950 . S
C1266 H1262 0.949 . S
C1266 C1274 1.574 . S
C1266 C1282 1.368 . S
H1267 C1275 0.950 . S
H1268 C1273 0.950 . S
H1269 C1274 0.949 . S
H1270 C1276 0.950 . S
H1271 C1277 0.950 . S
H1272 C1278 0.949 . S
C1273 H1268 0.950 . S
C1273 C1275 1.327 . S
C1273 C1279 1.429 . S
C1274 C1266 1.574 . S
C1274 H1269 0.949 . S
C1274 C1280 1.368 . S
C1275 C1259 1.349 . S
C1275 H1267 0.950 . S
C1275 C1273 1.327 . S
C1276 C1264 1.349 . S
C1276 H1270 0.950 . S
C1276 C1277 1.327 . S
C1277 H1271 0.950 . S
C1277 C1276 1.327 . S
C1277 C1281 1.429 . S
C1278 C1261 1.574 . S
C1278 H1272 0.949 . S
C1278 C1282 1.368 . S
C1279 C1260 1.429 . S
C1279 C1273 1.429 . S
C1279 C1280 1.523 . S
C1280 C1261 1.368 . S
C1280 C1274 1.368 . S
C1280 C1279 1.523 . S
C1281 C1265 1.429 . S
C1281 C1277 1.429 . S
C1281 C1282 1.523 . S
C1282 C1266 1.368 . S
C1282 C1278 1.368 . S
C1282 C1281 1.523 . S
H1283 C1258 0.950 . S
H1284 C1260 0.950 . S
H1285 C1261 0.949 . S
H1286 C1263 0.950 . S
H1287 C1265 0.950 . S
C1288 C1289 1.349 . S
C1288 C1290 1.327 . S
C1288 H1313 0.950 . S
C1289 C1288 1.349 . S
C1289 C1305 1.349 . S
C1290 C1288 1.327 . S
C1290 C1309 1.429 . S
C1290 H1314 0.950 . S
C1291 C1308 1.574 . S
C1291 C1310 1.368 . S
C1291 H1315 0.949 . S
H1292 C1296 0.949 . S
C1293 C1294 1.349 . S
C1293 C1295 1.327 . S
C1293 H1316 0.950 . S
C1294 C1293 1.349 . S
C1294 C1306 1.349 . S
C1295 C1293 1.327 . S
C1295 C1311 1.429 . S
C1295 H1317 0.950 . S
C1296 H1292 0.949 . S
C1296 C1304 1.574 . S
C1296 C1312 1.368 . S
H1297 C1305 0.950 . S
H1298 C1303 0.950 . S
H1299 C1304 0.949 . S
H1300 C1306 0.950 . S
H1301 C1307 0.950 . S
H1302 C1308 0.949 . S
C1303 H1298 0.950 . S
C1303 C1305 1.327 . S
C1303 C1309 1.429 . S
C1304 C1296 1.574 . S
C1304 H1299 0.949 . S
C1304 C1310 1.368 1_455 S
C1305 C1289 1.349 . S
C1305 H1297 0.950 . S
C1305 C1303 1.327 . S
C1306 C1294 1.349 . S
C1306 H1300 0.950 . S
C1306 C1307 1.327 . S
C1307 H1301 0.950 . S
C1307 C1306 1.327 . S
C1307 C1311 1.429 . S
C1308 C1291 1.574 . S
C1308 H1302 0.949 . S
C1308 C1312 1.368 1_655 S
C1309 C1290 1.429 . S
C1309 C1303 1.429 . S
C1309 C1310 1.523 . S
C1310 C1291 1.368 . S
C1310 C1304 1.368 1_655 S
C1310 C1309 1.523 . S
C1311 C1295 1.429 . S
C1311 C1307 1.429 . S
C1311 C1312 1.523 . S
C1312 C1296 1.368 . S
C1312 C1308 1.368 1_455 S
C1312 C1311 1.523 . S
H1313 C1288 0.950 . S
H1314 C1290 0.950 . S
H1315 C1291 0.949 . S
H1316 C1293 0.950 . S
H1317 C1295 0.950 . S
C1318 C1319 1.349 . S
C1318 C1320 1.327 . S
C1318 H1343 0.950 . S
C1319 C1318 1.349 . S
C1319 C1335 1.349 . S
C1320 C1318 1.327 . S
C1320 C1339 1.429 . S
C1320 H1344 0.950 . S
C1321 C1338 1.574 . S
C1321 C1340 1.368 . S
C1321 H1345 0.949 . S
H1322 C1326 0.949 . S
C1323 C1324 1.349 . S
C1323 C1325 1.327 . S
C1323 H1346 0.950 . S
C1324 C1323 1.349 . S
C1324 C1336 1.349 . S
C1325 C1323 1.327 . S
C1325 C1341 1.429 . S
C1325 H1347 0.950 . S
C1326 H1322 0.949 . S
C1326 C1334 1.574 . S
C1326 C1342 1.368 . S
H1327 C1335 0.950 . S
H1328 C1333 0.950 . S
H1329 C1334 0.949 . S
H1330 C1336 0.950 . S
H1331 C1337 0.950 . S
H1332 C1338 0.949 . S
C1333 H1328 0.950 . S
C1333 C1335 1.327 . S
C1333 C1339 1.429 . S
C1334 C1326 1.574 . S
C1334 H1329 0.949 . S
C1334 C1340 1.368 . S
C1335 C1319 1.349 . S
C1335 H1327 0.950 . S
C1335 C1333 1.327 . S
C1336 C1324 1.349 . S
C1336 H1330 0.950 . S
C1336 C1337 1.327 . S
C1337 H1331 0.950 . S
C1337 C1336 1.327 . S
C1337 C1341 1.429 . S
C1338 C1321 1.574 . S
C1338 H1332 0.949 . S
C1338 C1342 1.368 . S
C1339 C1320 1.429 . S
C1339 C1333 1.429 . S
C1339 C1340 1.523 . S
C1340 C1321 1.368 . S
C1340 C1334 1.368 . S
C1340 C1339 1.523 . S
C1341 C1325 1.429 . S
C1341 C1337 1.429 . S
C1341 C1342 1.523 . S
C1342 C1326 1.368 . S
C1342 C1338 1.368 . S
C1342 C1341 1.523 . S
H1343 C1318 0.950 . S
H1344 C1320 0.950 . S
H1345 C1321 0.949 . S
H1346 C1323 0.950 . S
H1347 C1325 0.950 . S
C1348 C1349 1.349 . S
C1348 C1350 1.327 . S
C1348 H1373 0.950 . S
C1349 C1348 1.349 . S
C1349 C1365 1.349 . S
C1350 C1348 1.327 . S
C1350 C1369 1.429 . S
C1350 H1374 0.950 . S
C1351 C1368 1.574 . S
C1351 C1370 1.368 . S
C1351 H1375 0.949 . S
H1352 C1356 0.949 . S
C1353 C1354 1.349 . S
C1353 C1355 1.327 . S
C1353 H1376 0.950 . S
C1354 C1353 1.349 . S
C1354 C1366 1.349 . S
C1355 C1353 1.327 . S
C1355 C1371 1.429 . S
C1355 H1377 0.950 . S
C1356 H1352 0.949 . S
C1356 C1364 1.574 . S
C1356 C1372 1.368 . S
H1357 C1365 0.950 . S
H1358 C1363 0.950 . S
H1359 C1364 0.949 . S
H1360 C1366 0.950 . S
H1361 C1367 0.950 . S
H1362 C1368 0.949 . S
C1363 H1358 0.950 . S
C1363 C1365 1.327 . S
C1363 C1369 1.429 . S
C1364 C1356 1.574 . S
C1364 H1359 0.949 . S
C1364 C1370 1.368 . S
C1365 C1349 1.349 . S
C1365 H1357 0.950 . S
C1365 C1363 1.327 . S
C1366 C1354 1.349 . S
C1366 H1360 0.950 . S
C1366 C1367 1.327 . S
C1367 H1361 0.950 . S
C1367 C1366 1.327 . S
C1367 C1371 1.429 . S
C1368 C1351 1.574 . S
C1368 H1362 0.949 . S
C1368 C1372 1.368 . S
C1369 C1350 1.429 . S
C1369 C1363 1.429 . S
C1369 C1370 1.523 . S
C1370 C1351 1.368 . S
C1370 C1364 1.368 . S
C1370 C1369 1.523 . S
C1371 C1355 1.429 . S
C1371 C1367 1.429 . S
C1371 C1372 1.523 . S
C1372 C1356 1.368 . S
C1372 C1368 1.368 . S
C1372 C1371 1.523 . S
H1373 C1348 0.950 . S
H1374 C1350 0.950 . S
H1375 C1351 0.949 . S
H1376 C1353 0.950 . S
H1377 C1355 0.950 . S
C1378 C1379 1.349 . S
C1378 C1380 1.327 . S
C1378 H1403 0.950 . S
C1379 C1378 1.349 . S
C1379 C1395 1.349 . S
C1380 C1378 1.327 . S
C1380 C1399 1.429 . S
C1380 H1404 0.950 . S
C1381 C1398 1.574 1_655 S
C1381 C1400 1.368 . S
C1381 H1405 0.949 . S
H1382 C1386 0.949 . S
C1383 C1384 1.349 . S
C1383 C1385 1.327 . S
C1383 H1406 0.950 . S
C1384 C1383 1.349 . S
C1384 C1396 1.349 . S
C1385 C1383 1.327 . S
C1385 C1401 1.429 . S
C1385 H1407 0.950 . S
C1386 H1382 0.949 . S
C1386 C1394 1.574 1_455 S
C1386 C1402 1.368 . S
H1387 C1395 0.950 . S
H1388 C1393 0.950 . S
H1389 C1394 0.949 . S
H1390 C1396 0.950 . S
H1391 C1397 0.950 . S
H1392 C1398 0.949 . S
C1393 H1388 0.950 . S
C1393 C1395 1.327 . S
C1393 C1399 1.429 . S
C1394 C1386 1.574 1_655 S
C1394 H1389 0.949 . S
C1394 C1400 1.368 . S
C1395 C1379 1.349 . S
C1395 H1387 0.950 . S
C1395 C1393 1.327 . S
C1396 C1384 1.349 . S
C1396 H1390 0.950 . S
C1396 C1397 1.327 . S
C1397 H1391 0.950 . S
C1397 C1396 1.327 . S
C1397 C1401 1.429 . S
C1398 C1381 1.574 1_455 S
C1398 H1392 0.949 . S
C1398 C1402 1.368 . S
C1399 C1380 1.429 . S
C1399 C1393 1.429 . S
C1399 C1400 1.523 . S
C1400 C1381 1.368 . S
C1400 C1394 1.368 . S
C1400 C1399 1.523 . S
C1401 C1385 1.429 . S
C1401 C1397 1.429 . S
C1401 C1402 1.523 . S
C1402 C1386 1.368 . S
C1402 C1398 1.368 . S
C1402 C1401 1.523 . S
H1403 C1378 0.950 . S
H1404 C1380 0.950 . S
H1405 C1381 0.949 . S
H1406 C1383 0.950 . S
H1407 C1385 0.950 . S
C1408 C1409 1.349 . S
C1408 C1410 1.327 . S
C1408 H1433 0.950 . S
C1409 C1408 1.349 . S
C1409 C1425 1.349 . S
C1410 C1408 1.327 . S
C1410 C1429 1.429 . S
C1410 H1434 0.950 . S
C1411 C1428 1.574 . S
C1411 C1430 1.368 1_554 S
C1411 H1435 0.949 . S
H1412 C1416 0.949 . S
C1413 C1414 1.349 . S
C1413 C1415 1.327 . S
C1413 H1436 0.950 . S
C1414 C1413 1.349 . S
C1414 C1426 1.349 . S
C1415 C1413 1.327 . S
C1415 C1431 1.429 . S
C1415 H1437 0.950 . S
C1416 H1412 0.949 . S
C1416 C1424 1.574 . S
C1416 C1432 1.368 1_556 S
H1417 C1425 0.950 . S
H1418 C1423 0.950 . S
H1419 C1424 0.949 . S
H1420 C1426 0.950 . S
H1421 C1427 0.950 . S
H1422 C1428 0.949 . S
C1423 H1418 0.950 . S
C1423 C1425 1.327 . S
C1423 C1429 1.429 . S
C1424 C1416 1.574 . S
C1424 H1419 0.949 . S
C1424 C1430 1.368 . S
C1425 C1409 1.349 . S
C1425 H1417 0.950 . S
C1425 C1423 1.327 . S
C1426 C1414 1.349 . S
C1426 H1420 0.950 . S
C1426 C1427 1.327 . S
C1427 H1421 0.950 . S
C1427 C1426 1.327 . S
C1427 C1431 1.429 . S
C1428 C1411 1.574 . S
C1428 H1422 0.949 . S
C1428 C1432 1.368 . S
C1429 C1410 1.429 . S
C1429 C1423 1.429 . S
C1429 C1430 1.523 . S
C1430 C1411 1.368 1_556 S
C1430 C1424 1.368 . S
C1430 C1429 1.523 . S
C1431 C1415 1.429 . S
C1431 C1427 1.429 . S
C1431 C1432 1.523 . S
C1432 C1416 1.368 1_554 S
C1432 C1428 1.368 . S
C1432 C1431 1.523 . S
H1433 C1408 0.950 . S
H1434 C1410 0.950 . S
H1435 C1411 0.949 . S
H1436 C1413 0.950 . S
H1437 C1415 0.950 . S
C1438 C1439 1.349 . S
C1438 C1440 1.327 . S
C1438 H1463 0.950 . S
C1439 C1438 1.349 . S
C1439 C1455 1.349 . S
C1440 C1438 1.327 . S
C1440 C1459 1.429 . S
C1440 H1464 0.950 . S
C1441 C1458 1.574 1_545 S
C1441 C1460 1.368 . S
C1441 H1465 0.949 . S
H1442 C1446 0.949 . S
C1443 C1444 1.349 . S
C1443 C1445 1.327 . S
C1443 H1466 0.950 . S
C1444 C1443 1.349 . S
C1444 C1456 1.349 . S
C1445 C1443 1.327 . S
C1445 C1461 1.429 . S
C1445 H1467 0.950 . S
C1446 H1442 0.949 . S
C1446 C1454 1.574 1_565 S
C1446 C1462 1.368 . S
H1447 C1455 0.950 . S
H1448 C1453 0.950 . S
H1449 C1454 0.949 . S
H1450 C1456 0.950 . S
H1451 C1457 0.950 . S
H1452 C1458 0.949 . S
C1453 H1448 0.950 . S
C1453 C1455 1.327 . S
C1453 C1459 1.429 . S
C1454 C1446 1.574 1_545 S
C1454 H1449 0.949 . S
C1454 C1460 1.368 . S
C1455 C1439 1.349 . S
C1455 H1447 0.950 . S
C1455 C1453 1.327 . S
C1456 C1444 1.349 . S
C1456 H1450 0.950 . S
C1456 C1457 1.327 . S
C1457 H1451 0.950 . S
C1457 C1456 1.327 . S
C1457 C1461 1.429 . S
C1458 C1441 1.574 1_565 S
C1458 H1452 0.949 . S
C1458 C1462 1.368 . S
C1459 C1440 1.429 . S
C1459 C1453 1.429 . S
C1459 C1460 1.523 . S
C1460 C1441 1.368 . S
C1460 C1454 1.368 . S
C1460 C1459 1.523 . S
C1461 C1445 1.429 . S
C1461 C1457 1.429 . S
C1461 C1462 1.523 . S
C1462 C1446 1.368 . S
C1462 C1458 1.368 . S
C1462 C1461 1.523 . S
H1463 C1438 0.950 . S
H1464 C1440 0.950 . S
H1465 C1441 0.949 . S
H1466 C1443 0.950 . S
H1467 C1445 0.950 . S
C1468 C1469 1.349 . S
C1468 C1470 1.327 . S
C1468 H1493 0.950 . S
C1469 C1468 1.349 . S
C1469 C1485 1.349 . S
C1470 C1468 1.327 . S
C1470 C1489 1.429 . S
C1470 H1494 0.950 . S
C1471 C1488 1.574 . S
C1471 C1490 1.368 . S
C1471 H1495 0.949 . S
H1472 C1476 0.949 . S
C1473 C1474 1.349 . S
C1473 C1475 1.327 . S
C1473 H1496 0.950 . S
C1474 C1473 1.349 . S
C1474 C1486 1.349 . S
C1475 C1473 1.327 . S
C1475 C1491 1.429 . S
C1475 H1497 0.950 . S
C1476 H1472 0.949 . S
C1476 C1484 1.574 . S
C1476 C1492 1.368 . S
H1477 C1485 0.950 . S
H1478 C1483 0.950 . S
H1479 C1484 0.949 . S
H1480 C1486 0.950 . S
H1481 C1487 0.950 . S
H1482 C1488 0.949 . S
C1483 H1478 0.950 . S
C1483 C1485 1.327 . S
C1483 C1489 1.429 . S
C1484 C1476 1.574 . S
C1484 H1479 0.949 . S
C1484 C1490 1.368 . S
C1485 C1469 1.349 . S
C1485 H1477 0.950 . S
C1485 C1483 1.327 . S
C1486 C1474 1.349 . S
C1486 H1480 0.950 . S
C1486 C1487 1.327 . S
C1487 H1481 0.950 . S
C1487 C1486 1.327 . S
C1487 C1491 1.429 . S
C1488 C1471 1.574 . S
C1488 H1482 0.949 . S
C1488 C1492 1.368 . S
C1489 C1470 1.429 . S
C1489 C1483 1.429 . S
C1489 C1490 1.523 . S
C1490 C1471 1.368 . S
C1490 C1484 1.368 . S
C1490 C1489 1.523 . S
C1491 C1475 1.429 . S
C1491 C1487 1.429 . S
C1491 C1492 1.523 . S
C1492 C1476 1.368 . S
C1492 C1488 1.368 . S
C1492 C1491 1.523 . S
H1493 C1468 0.950 . S
H1494 C1470 0.950 . S
H1495 C1471 0.949 . S
H1496 C1473 0.950 . S
H1497 C1475 0.950 . S
C1498 C1499 1.349 . S
C1498 C1500 1.327 . S
C1498 H1523 0.950 . S
C1499 C1498 1.349 . S
C1499 C1515 1.349 . S
C1500 C1498 1.327 . S
C1500 C1519 1.429 . S
C1500 H1524 0.950 . S
C1501 C1518 1.574 1_545 S
C1501 C1520 1.368 . S
C1501 H1525 0.949 . S
H1502 C1506 0.949 . S
C1503 C1504 1.349 . S
C1503 C1505 1.327 . S
C1503 H1526 0.950 . S
C1504 C1503 1.349 . S
C1504 C1516 1.349 . S
C1505 C1503 1.327 . S
C1505 C1521 1.429 . S
C1505 H1527 0.950 . S
C1506 H1502 0.949 . S
C1506 C1514 1.574 1_565 S
C1506 C1522 1.368 . S
H1507 C1515 0.950 . S
H1508 C1513 0.950 . S
H1509 C1514 0.949 . S
H1510 C1516 0.950 . S
H1511 C1517 0.950 . S
H1512 C1518 0.949 . S
C1513 H1508 0.950 . S
C1513 C1515 1.327 . S
C1513 C1519 1.429 . S
C1514 C1506 1.574 1_545 S
C1514 H1509 0.949 . S
C1514 C1520 1.368 . S
C1515 C1499 1.349 . S
C1515 H1507 0.950 . S
C1515 C1513 1.327 . S
C1516 C1504 1.349 . S
C1516 H1510 0.950 . S
C1516 C1517 1.327 . S
C1517 H1511 0.950 . S
C1517 C1516 1.327 . S
C1517 C1521 1.429 . S
C1518 C1501 1.574 1_565 S
C1518 H1512 0.949 . S
C1518 C1522 1.368 . S
C1519 C1500 1.429 . S
C1519 C1513 1.429 . S
C1519 C1520 1.523 . S
C1520 C1501 1.368 . S
C1520 C1514 1.368 . S
C1520 C1519 1.523 . S
C1521 C1505 1.429 . S
C1521 C1517 1.429 . S
C1521 C1522 1.523 . S
C1522 C1506 1.368 . S
C1522 C1518 1.368 . S
C1522 C1521 1.523 . S
H1523 C1498 0.950 . S
H1524 C1500 0.950 . S
H1525 C1501 0.949 . S
H1526 C1503 0.950 . S
H1527 C1505 0.950 . S
C1528 C1529 1.349 . S
C1528 C1530 1.327 . S
C1528 H1553 0.950 . S
C1529 C1528 1.349 . S
C1529 C1545 1.349 . S
C1530 C1528 1.327 . S
C1530 C1549 1.429 . S
C1530 H1554 0.950 . S
C1531 C1548 1.574 . S
C1531 C1550 1.368 . S
C1531 H1555 0.949 . S
H1532 C1536 0.949 . S
C1533 C1534 1.349 . S
C1533 C1535 1.327 . S
C1533 H1556 0.950 . S
C1534 C1533 1.349 . S
C1534 C1546 1.349 . S
C1535 C1533 1.327 . S
C1535 C1551 1.429 . S
C1535 H1557 0.950 . S
C1536 H1532 0.949 . S
C1536 C1544 1.574 . S
C1536 C1552 1.368 . S
H1537 C1545 0.950 . S
H1538 C1543 0.950 . S
H1539 C1544 0.949 . S
H1540 C1546 0.950 . S
H1541 C1547 0.950 . S
H1542 C1548 0.949 . S
C1543 H1538 0.950 . S
C1543 C1545 1.327 . S
C1543 C1549 1.429 . S
C1544 C1536 1.574 . S
C1544 H1539 0.949 . S
C1544 C1550 1.368 1_556 S
C1545 C1529 1.349 . S
C1545 H1537 0.950 . S
C1545 C1543 1.327 . S
C1546 C1534 1.349 . S
C1546 H1540 0.950 . S
C1546 C1547 1.327 . S
C1547 H1541 0.950 . S
C1547 C1546 1.327 . S
C1547 C1551 1.429 . S
C1548 C1531 1.574 . S
C1548 H1542 0.949 . S
C1548 C1552 1.368 1_554 S
C1549 C1530 1.429 . S
C1549 C1543 1.429 . S
C1549 C1550 1.523 . S
C1550 C1531 1.368 . S
C1550 C1544 1.368 1_554 S
C1550 C1549 1.523 . S
C1551 C1535 1.429 . S
C1551 C1547 1.429 . S
C1551 C1552 1.523 . S
C1552 C1536 1.368 . S
C1552 C1548 1.368 1_556 S
C1552 C1551 1.523 . S
H1553 C1528 0.950 . S
H1554 C1530 0.950 . S
H1555 C1531 0.949 . S
H1556 C1533 0.950 . S
H1557 C1535 0.950 . S
C1558 C1559 1.349 . S
C1558 C1560 1.327 . S
C1558 H1583 0.950 . S
C1559 C1558 1.349 . S
C1559 C1575 1.349 . S
C1560 C1558 1.327 . S
C1560 C1579 1.429 . S
C1560 H1584 0.950 . S
C1561 C1578 1.574 1_565 S
C1561 C1580 1.368 . S
C1561 H1585 0.949 . S
H1562 C1566 0.949 . S
C1563 C1564 1.349 . S
C1563 C1565 1.327 . S
C1563 H1586 0.950 . S
C1564 C1563 1.349 . S
C1564 C1576 1.349 . S
C1565 C1563 1.327 . S
C1565 C1581 1.429 . S
C1565 H1587 0.950 . S
C1566 H1562 0.949 . S
C1566 C1574 1.574 1_545 S
C1566 C1582 1.368 . S
H1567 C1575 0.950 . S
H1568 C1573 0.950 . S
H1569 C1574 0.949 . S
H1570 C1576 0.950 . S
H1571 C1577 0.950 . S
H1572 C1578 0.949 . S
C1573 H1568 0.950 . S
C1573 C1575 1.327 . S
C1573 C1579 1.429 . S
C1574 C1566 1.574 1_565 S
C1574 H1569 0.949 . S
C1574 C1580 1.368 . S
C1575 C1559 1.349 . S
C1575 H1567 0.950 . S
C1575 C1573 1.327 . S
C1576 C1564 1.349 . S
C1576 H1570 0.950 . S
C1576 C1577 1.327 . S
C1577 H1571 0.950 . S
C1577 C1576 1.327 . S
C1577 C1581 1.429 . S
C1578 C1561 1.574 1_545 S
C1578 H1572 0.949 . S
C1578 C1582 1.368 . S
C1579 C1560 1.429 . S
C1579 C1573 1.429 . S
C1579 C1580 1.523 . S
C1580 C1561 1.368 . S
C1580 C1574 1.368 . S
C1580 C1579 1.523 . S
C1581 C1565 1.429 . S
C1581 C1577 1.429 . S
C1581 C1582 1.523 . S
C1582 C1566 1.368 . S
C1582 C1578 1.368 . S
C1582 C1581 1.523 . S
H1583 C1558 0.950 . S
H1584 C1560 0.950 . S
H1585 C1561 0.949 . S
H1586 C1563 0.950 . S
H1587 C1565 0.950 . S
C1588 C1589 1.349 . S
C1588 C1590 1.327 . S
C1588 H1613 0.950 . S
C1589 C1588 1.349 . S
C1589 C1605 1.349 . S
C1590 C1588 1.327 . S
C1590 C1609 1.429 . S
C1590 H1614 0.950 . S
C1591 C1608 1.574 . S
C1591 C1610 1.368 . S
C1591 H1615 0.949 . S
H1592 C1596 0.949 . S
C1593 C1594 1.349 . S
C1593 C1595 1.327 . S
C1593 H1616 0.950 . S
C1594 C1593 1.349 . S
C1594 C1606 1.349 . S
C1595 C1593 1.327 . S
C1595 C1611 1.429 . S
C1595 H1617 0.950 . S
C1596 H1592 0.949 . S
C1596 C1604 1.574 . S
C1596 C1612 1.368 . S
H1597 C1605 0.950 . S
H1598 C1603 0.950 . S
H1599 C1604 0.949 . S
H1600 C1606 0.950 . S
H1601 C1607 0.950 . S
H1602 C1608 0.949 . S
C1603 H1598 0.950 . S
C1603 C1605 1.327 . S
C1603 C1609 1.429 . S
C1604 C1596 1.574 . S
C1604 H1599 0.949 . S
C1604 C1610 1.368 . S
C1605 C1589 1.349 . S
C1605 H1597 0.950 . S
C1605 C1603 1.327 . S
C1606 C1594 1.349 . S
C1606 H1600 0.950 . S
C1606 C1607 1.327 . S
C1607 H1601 0.950 . S
C1607 C1606 1.327 . S
C1607 C1611 1.429 . S
C1608 C1591 1.574 . S
C1608 H1602 0.949 . S
C1608 C1612 1.368 . S
C1609 C1590 1.429 . S
C1609 C1603 1.429 . S
C1609 C1610 1.523 . S
C1610 C1591 1.368 . S
C1610 C1604 1.368 . S
C1610 C1609 1.523 . S
C1611 C1595 1.429 . S
C1611 C1607 1.429 . S
C1611 C1612 1.523 . S
C1612 C1596 1.368 . S
C1612 C1608 1.368 . S
C1612 C1611 1.523 . S
H1613 C1588 0.950 . S
H1614 C1590 0.950 . S
H1615 C1591 0.949 . S
H1616 C1593 0.950 . S
H1617 C1595 0.950 . S
C1618 C1619 1.349 . S
C1618 C1620 1.327 . S
C1618 H1643 0.950 . S
C1619 C1618 1.349 . S
C1619 C1635 1.349 . S
C1620 C1618 1.327 . S
C1620 C1639 1.429 . S
C1620 H1644 0.950 . S
C1621 C1638 1.574 1_545 S
C1621 C1640 1.368 . S
C1621 H1645 0.949 . S
H1622 C1626 0.949 . S
C1623 C1624 1.349 . S
C1623 C1625 1.327 . S
C1623 H1646 0.950 . S
C1624 C1623 1.349 . S
C1624 C1636 1.349 . S
C1625 C1623 1.327 . S
C1625 C1641 1.429 . S
C1625 H1647 0.950 . S
C1626 H1622 0.949 . S
C1626 C1634 1.574 1_565 S
C1626 C1642 1.368 . S
H1627 C1635 0.950 . S
H1628 C1633 0.950 . S
H1629 C1634 0.949 . S
H1630 C1636 0.950 . S
H1631 C1637 0.950 . S
H1632 C1638 0.949 . S
C1633 H1628 0.950 . S
C1633 C1635 1.327 . S
C1633 C1639 1.429 . S
C1634 C1626 1.574 1_545 S
C1634 H1629 0.949 . S
C1634 C1640 1.368 . S
C1635 C1619 1.349 . S
C1635 H1627 0.950 . S
C1635 C1633 1.327 . S
C1636 C1624 1.349 . S
C1636 H1630 0.950 . S
C1636 C1637 1.327 . S
C1637 H1631 0.950 . S
C1637 C1636 1.327 . S
C1637 C1641 1.429 . S
C1638 C1621 1.574 1_565 S
C1638 H1632 0.949 . S
C1638 C1642 1.368 . S
C1639 C1620 1.429 . S
C1639 C1633 1.429 . S
C1639 C1640 1.523 . S
C1640 C1621 1.368 . S
C1640 C1634 1.368 . S
C1640 C1639 1.523 . S
C1641 C1625 1.429 . S
C1641 C1637 1.429 . S
C1641 C1642 1.523 . S
C1642 C1626 1.368 . S
C1642 C1638 1.368 . S
C1642 C1641 1.523 . S
H1643 C1618 0.950 . S
H1644 C1620 0.950 . S
H1645 C1621 0.949 . S
H1646 C1623 0.950 . S
H1647 C1625 0.950 . S
C1648 C1649 1.349 . S
C1648 C1650 1.327 . S
C1648 H1673 0.950 . S
C1649 C1648 1.349 . S
C1649 C1665 1.349 . S
C1650 C1648 1.327 . S
C1650 C1669 1.429 . S
C1650 H1674 0.950 . S
C1651 C1668 1.574 . S
C1651 C1670 1.368 . S
C1651 H1675 0.949 . S
H1652 C1656 0.949 . S
C1653 C1654 1.349 . S
C1653 C1655 1.327 . S
C1653 H1676 0.950 . S
C1654 C1653 1.349 . S
C1654 C1666 1.349 . S
C1655 C1653 1.327 . S
C1655 C1671 1.429 . S
C1655 H1677 0.950 . S
C1656 H1652 0.949 . S
C1656 C1664 1.574 . S
C1656 C1672 1.368 . S
H1657 C1665 0.950 . S
H1658 C1663 0.950 . S
H1659 C1664 0.949 . S
H1660 C1666 0.950 . S
H1661 C1667 0.950 . S
H1662 C1668 0.949 . S
C1663 H1658 0.950 . S
C1663 C1665 1.327 . S
C1663 C1669 1.429 . S
C1664 C1656 1.574 . S
C1664 H1659 0.949 . S
C1664 C1670 1.368 . S
C1665 C1649 1.349 . S
C1665 H1657 0.950 . S
C1665 C1663 1.327 . S
C1666 C1654 1.349 . S
C1666 H1660 0.950 . S
C1666 C1667 1.327 . S
C1667 H1661 0.950 . S
C1667 C1666 1.327 . S
C1667 C1671 1.429 . S
C1668 C1651 1.574 . S
C1668 H1662 0.949 . S
C1668 C1672 1.368 . S
C1669 C1650 1.429 . S
C1669 C1663 1.429 . S
C1669 C1670 1.523 . S
C1670 C1651 1.368 . S
C1670 C1664 1.368 . S
C1670 C1669 1.523 . S
C1671 C1655 1.429 . S
C1671 C1667 1.429 . S
C1671 C1672 1.523 . S
C1672 C1656 1.368 . S
C1672 C1668 1.368 . S
C1672 C1671 1.523 . S
H1673 C1648 0.950 . S
H1674 C1650 0.950 . S
H1675 C1651 0.949 . S
H1676 C1653 0.950 . S
H1677 C1655 0.950 . S
C1678 C1679 1.349 . S
C1678 C1680 1.327 . S
C1678 H1703 0.950 . S
C1679 C1678 1.349 . S
C1679 C1695 1.349 . S
C1680 C1678 1.327 . S
C1680 C1699 1.429 . S
C1680 H1704 0.950 . S
C1681 C1698 1.574 . S
C1681 C1700 1.368 . S
C1681 H1705 0.949 . S
H1682 C1686 0.949 . S
C1683 C1684 1.349 . S
C1683 C1685 1.327 . S
C1683 H1706 0.950 . S
C1684 C1683 1.349 . S
C1684 C1696 1.349 . S
C1685 C1683 1.327 . S
C1685 C1701 1.429 . S
C1685 H1707 0.950 . S
C1686 H1682 0.949 . S
C1686 C1694 1.574 . S
C1686 C1702 1.368 . S
H1687 C1695 0.950 . S
H1688 C1693 0.950 . S
H1689 C1694 0.949 . S
H1690 C1696 0.950 . S
H1691 C1697 0.950 . S
H1692 C1698 0.949 . S
C1693 H1688 0.950 . S
C1693 C1695 1.327 . S
C1693 C1699 1.429 . S
C1694 C1686 1.574 . S
C1694 H1689 0.949 . S
C1694 C1700 1.368 . S
C1695 C1679 1.349 . S
C1695 H1687 0.950 . S
C1695 C1693 1.327 . S
C1696 C1684 1.349 . S
C1696 H1690 0.950 . S
C1696 C1697 1.327 . S
C1697 H1691 0.950 . S
C1697 C1696 1.327 . S
C1697 C1701 1.429 . S
C1698 C1681 1.574 . S
C1698 H1692 0.949 . S
C1698 C1702 1.368 . S
C1699 C1680 1.429 . S
C1699 C1693 1.429 . S
C1699 C1700 1.523 . S
C1700 C1681 1.368 . S
C1700 C1694 1.368 . S
C1700 C1699 1.523 . S
C1701 C1685 1.429 . S
C1701 C1697 1.429 . S
C1701 C1702 1.523 . S
C1702 C1686 1.368 . S
C1702 C1698 1.368 . S
C1702 C1701 1.523 . S
H1703 C1678 0.950 . S
H1704 C1680 0.950 . S
H1705 C1681 0.949 . S
H1706 C1683 0.950 . S
H1707 C1685 0.950 . S
C1708 C1709 1.349 . S
C1708 C1710 1.327 . S
C1708 H1733 0.950 . S
C1709 C1708 1.349 . S
C1709 C1725 1.349 . S
C1710 C1708 1.327 . S
C1710 C1729 1.429 . S
C1710 H1734 0.950 . S
C1711 C1728 1.574 . S
C1711 C1730 1.368 . S
C1711 H1735 0.949 . S
H1712 C1716 0.949 . S
C1713 C1714 1.349 . S
C1713 C1715 1.327 . S
C1713 H1736 0.950 . S
C1714 C1713 1.349 . S
C1714 C1726 1.349 . S
C1715 C1713 1.327 . S
C1715 C1731 1.429 . S
C1715 H1737 0.950 . S
C1716 H1712 0.949 . S
C1716 C1724 1.574 . S
C1716 C1732 1.368 . S
H1717 C1725 0.950 . S
H1718 C1723 0.950 . S
H1719 C1724 0.949 . S
H1720 C1726 0.950 . S
H1721 C1727 0.950 . S
H1722 C1728 0.949 . S
C1723 H1718 0.950 . S
C1723 C1725 1.327 . S
C1723 C1729 1.429 . S
C1724 C1716 1.574 . S
C1724 H1719 0.949 . S
C1724 C1730 1.368 1_556 S
C1725 C1709 1.349 . S
C1725 H1717 0.950 . S
C1725 C1723 1.327 . S
C1726 C1714 1.349 . S
C1726 H1720 0.950 . S
C1726 C1727 1.327 . S
C1727 H1721 0.950 . S
C1727 C1726 1.327 . S
C1727 C1731 1.429 . S
C1728 C1711 1.574 . S
C1728 H1722 0.949 . S
C1728 C1732 1.368 1_554 S
C1729 C1710 1.429 . S
C1729 C1723 1.429 . S
C1729 C1730 1.523 . S
C1730 C1711 1.368 . S
C1730 C1724 1.368 1_554 S
C1730 C1729 1.523 . S
C1731 C1715 1.429 . S
C1731 C1727 1.429 . S
C1731 C1732 1.523 . S
C1732 C1716 1.368 . S
C1732 C1728 1.368 1_556 S
C1732 C1731 1.523 . S
H1733 C1708 0.950 . S
H1734 C1710 0.950 . S
H1735 C1711 0.949 . S
H1736 C1713 0.950 . S
H1737 C1715 0.950 . S
C1738 C1739 1.349 . S
C1738 C1740 1.327 . S
C1738 H1763 0.950 . S
C1739 C1738 1.349 . S
C1739 C1755 1.349 . S
C1740 C1738 1.327 . S
C1740 C1759 1.429 . S
C1740 H1764 0.950 . S
C1741 C1758 1.574 . S
C1741 C1760 1.368 . S
C1741 H1765 0.949 . S
H1742 C1746 0.949 . S
C1743 C1744 1.349 . S
C1743 C1745 1.327 . S
C1743 H1766 0.950 . S
C1744 C1743 1.349 . S
C1744 C1756 1.349 . S
C1745 C1743 1.327 . S
C1745 C1761 1.429 . S
C1745 H1767 0.950 . S
C1746 H1742 0.949 . S
C1746 C1754 1.574 . S
C1746 C1762 1.368 . S
H1747 C1755 0.950 . S
H1748 C1753 0.950 . S
H1749 C1754 0.949 . S
H1750 C1756 0.950 . S
H1751 C1757 0.950 . S
H1752 C1758 0.949 . S
C1753 H1748 0.950 . S
C1753 C1755 1.327 . S
C1753 C1759 1.429 . S
C1754 C1746 1.574 . S
C1754 H1749 0.949 . S
C1754 C1760 1.368 . S
C1755 C1739 1.349 . S
C1755 H1747 0.950 . S
C1755 C1753 1.327 . S
C1756 C1744 1.349 . S
C1756 H1750 0.950 . S
C1756 C1757 1.327 . S
C1757 H1751 0.950 . S
C1757 C1756 1.327 . S
C1757 C1761 1.429 . S
C1758 C1741 1.574 . S
C1758 H1752 0.949 . S
C1758 C1762 1.368 . S
C1759 C1740 1.429 . S
C1759 C1753 1.429 . S
C1759 C1760 1.523 . S
C1760 C1741 1.368 . S
C1760 C1754 1.368 . S
C1760 C1759 1.523 . S
C1761 C1745 1.429 . S
C1761 C1757 1.429 . S
C1761 C1762 1.523 . S
C1762 C1746 1.368 . S
C1762 C1758 1.368 . S
C1762 C1761 1.523 . S
H1763 C1738 0.950 . S
H1764 C1740 0.950 . S
H1765 C1741 0.949 . S
H1766 C1743 0.950 . S
H1767 C1745 0.950 . S
C1768 C1769 1.349 . S
C1768 C1770 1.327 . S
C1768 H1793 0.950 . S
C1769 C1768 1.349 . S
C1769 C1785 1.349 . S
C1770 C1768 1.327 . S
C1770 C1789 1.429 . S
C1770 H1794 0.950 . S
C1771 C1788 1.574 . S
C1771 C1790 1.368 . S
C1771 H1795 0.949 . S
H1772 C1776 0.949 . S
C1773 C1774 1.349 . S
C1773 C1775 1.327 . S
C1773 H1796 0.950 . S
C1774 C1773 1.349 . S
C1774 C1786 1.349 . S
C1775 C1773 1.327 . S
C1775 C1791 1.429 . S
C1775 H1797 0.950 . S
C1776 H1772 0.949 . S
C1776 C1784 1.574 . S
C1776 C1792 1.368 . S
H1777 C1785 0.950 . S
H1778 C1783 0.950 . S
H1779 C1784 0.949 . S
H1780 C1786 0.950 . S
H1781 C1787 0.950 . S
H1782 C1788 0.949 . S
C1783 H1778 0.950 . S
C1783 C1785 1.327 . S
C1783 C1789 1.429 . S
C1784 C1776 1.574 . S
C1784 H1779 0.949 . S
C1784 C1790 1.368 . S
C1785 C1769 1.349 . S
C1785 H1777 0.950 . S
C1785 C1783 1.327 . S
C1786 C1774 1.349 . S
C1786 H1780 0.950 . S
C1786 C1787 1.327 . S
C1787 H1781 0.950 . S
C1787 C1786 1.327 . S
C1787 C1791 1.429 . S
C1788 C1771 1.574 . S
C1788 H1782 0.949 . S
C1788 C1792 1.368 . S
C1789 C1770 1.429 . S
C1789 C1783 1.429 . S
C1789 C1790 1.523 . S
C1790 C1771 1.368 . S
C1790 C1784 1.368 . S
C1790 C1789 1.523 . S
C1791 C1775 1.429 . S
C1791 C1787 1.429 . S
C1791 C1792 1.523 . S
C1792 C1776 1.368 . S
C1792 C1788 1.368 . S
C1792 C1791 1.523 . S
H1793 C1768 0.950 . S
H1794 C1770 0.950 . S
H1795 C1771 0.949 . S
H1796 C1773 0.950 . S
H1797 C1775 0.950 . S
C1798 C1799 1.349 . S
C1798 C1800 1.327 . S
C1798 H1823 0.950 . S
C1799 C1798 1.349 . S
C1799 C1815 1.349 . S
C1800 C1798 1.327 . S
C1800 C1819 1.429 . S
C1800 H1824 0.950 . S
C1801 C1818 1.574 . S
C1801 C1820 1.368 . S
C1801 H1825 0.949 . S
H1802 C1806 0.949 . S
C1803 C1804 1.349 . S
C1803 C1805 1.327 . S
C1803 H1826 0.950 . S
C1804 C1803 1.349 . S
C1804 C1816 1.349 . S
C1805 C1803 1.327 . S
C1805 C1821 1.429 . S
C1805 H1827 0.950 . S
C1806 H1802 0.949 . S
C1806 C1814 1.574 . S
C1806 C1822 1.368 . S
H1807 C1815 0.950 . S
H1808 C1813 0.950 . S
H1809 C1814 0.949 . S
H1810 C1816 0.950 . S
H1811 C1817 0.950 . S
H1812 C1818 0.949 . S
C1813 H1808 0.950 . S
C1813 C1815 1.327 . S
C1813 C1819 1.429 . S
C1814 C1806 1.574 . S
C1814 H1809 0.949 . S
C1814 C1820 1.368 . S
C1815 C1799 1.349 . S
C1815 H1807 0.950 . S
C1815 C1813 1.327 . S
C1816 C1804 1.349 . S
C1816 H1810 0.950 . S
C1816 C1817 1.327 . S
C1817 H1811 0.950 . S
C1817 C1816 1.327 . S
C1817 C1821 1.429 . S
C1818 C1801 1.574 . S
C1818 H1812 0.949 . S
C1818 C1822 1.368 . S
C1819 C1800 1.429 . S
C1819 C1813 1.429 . S
C1819 C1820 1.523 . S
C1820 C1801 1.368 . S
C1820 C1814 1.368 . S
C1820 C1819 1.523 . S
C1821 C1805 1.429 . S
C1821 C1817 1.429 . S
C1821 C1822 1.523 . S
C1822 C1806 1.368 . S
C1822 C1818 1.368 . S
C1822 C1821 1.523 . S
H1823 C1798 0.950 . S
H1824 C1800 0.950 . S
H1825 C1801 0.949 . S
H1826 C1803 0.950 . S
H1827 C1805 0.950 . S
C1828 C1829 1.349 . S
C1828 C1830 1.327 . S
C1828 H1853 0.950 . S
C1829 C1828 1.349 . S
C1829 C1845 1.349 . S
C1830 C1828 1.327 . S
C1830 C1849 1.429 . S
C1830 H1854 0.950 . S
C1831 C1848 1.574 . S
C1831 C1850 1.368 . S
C1831 H1855 0.949 . S
H1832 C1836 0.949 . S
C1833 C1834 1.349 . S
C1833 C1835 1.327 . S
C1833 H1856 0.950 . S
C1834 C1833 1.349 . S
C1834 C1846 1.349 . S
C1835 C1833 1.327 . S
C1835 C1851 1.429 . S
C1835 H1857 0.950 . S
C1836 H1832 0.949 . S
C1836 C1844 1.574 . S
C1836 C1852 1.368 . S
H1837 C1845 0.950 . S
H1838 C1843 0.950 . S
H1839 C1844 0.949 . S
H1840 C1846 0.950 . S
H1841 C1847 0.950 . S
H1842 C1848 0.949 . S
C1843 H1838 0.950 . S
C1843 C1845 1.327 . S
C1843 C1849 1.429 . S
C1844 C1836 1.574 . S
C1844 H1839 0.949 . S
C1844 C1850 1.368 1_554 S
C1845 C1829 1.349 . S
C1845 H1837 0.950 . S
C1845 C1843 1.327 . S
C1846 C1834 1.349 . S
C1846 H1840 0.950 . S
C1846 C1847 1.327 . S
C1847 H1841 0.950 . S
C1847 C1846 1.327 . S
C1847 C1851 1.429 . S
C1848 C1831 1.574 . S
C1848 H1842 0.949 . S
C1848 C1852 1.368 1_556 S
C1849 C1830 1.429 . S
C1849 C1843 1.429 . S
C1849 C1850 1.523 . S
C1850 C1831 1.368 . S
C1850 C1844 1.368 1_556 S
C1850 C1849 1.523 . S
C1851 C1835 1.429 . S
C1851 C1847 1.429 . S
C1851 C1852 1.523 . S
C1852 C1836 1.368 . S
C1852 C1848 1.368 1_554 S
C1852 C1851 1.523 . S
H1853 C1828 0.950 . S
H1854 C1830 0.950 . S
H1855 C1831 0.949 . S
H1856 C1833 0.950 . S
H1857 C1835 0.950 . S
C1858 C1859 1.349 . S
C1858 C1860 1.327 . S
C1858 H1883 0.950 . S
C1859 C1858 1.349 . S
C1859 C1875 1.349 . S
C1860 C1858 1.327 . S
C1860 C1879 1.429 . S
C1860 H1884 0.950 . S
C1861 C1878 1.574 . S
C1861 C1880 1.368 . S
C1861 H1885 0.949 . S
H1862 C1866 0.949 . S
C1863 C1864 1.349 . S
C1863 C1865 1.327 . S
C1863 H1886 0.950 . S
C1864 C1863 1.349 . S
C1864 C1876 1.349 . S
C1865 C1863 1.327 . S
C1865 C1881 1.429 . S
C1865 H1887 0.950 . S
C1866 H1862 0.949 . S
C1866 C1874 1.574 . S
C1866 C1882 1.368 . S
H1867 C1875 0.950 . S
H1868 C1873 0.950 . S
H1869 C1874 0.949 . S
H1870 C1876 0.950 . S
H1871 C1877 0.950 . S
H1872 C1878 0.949 . S
C1873 H1868 0.950 . S
C1873 C1875 1.327 . S
C1873 C1879 1.429 . S
C1874 C1866 1.574 . S
C1874 H1869 0.949 . S
C1874 C1880 1.368 . S
C1875 C1859 1.349 . S
C1875 H1867 0.950 . S
C1875 C1873 1.327 . S
C1876 C1864 1.349 . S
C1876 H1870 0.950 . S
C1876 C1877 1.327 . S
C1877 H1871 0.950 . S
C1877 C1876 1.327 . S
C1877 C1881 1.429 . S
C1878 C1861 1.574 . S
C1878 H1872 0.949 . S
C1878 C1882 1.368 . S
C1879 C1860 1.429 . S
C1879 C1873 1.429 . S
C1879 C1880 1.523 . S
C1880 C1861 1.368 . S
C1880 C1874 1.368 . S
C1880 C1879 1.523 . S
C1881 C1865 1.429 . S
C1881 C1877 1.429 . S
C1881 C1882 1.523 . S
C1882 C1866 1.368 . S
C1882 C1878 1.368 . S
C1882 C1881 1.523 . S
H1883 C1858 0.950 . S
H1884 C1860 0.950 . S
H1885 C1861 0.949 . S
H1886 C1863 0.950 . S
H1887 C1865 0.950 . S
C1888 C1889 1.349 . S
C1888 C1890 1.327 . S
C1888 H1913 0.950 . S
C1889 C1888 1.349 . S
C1889 C1905 1.349 . S
C1890 C1888 1.327 . S
C1890 C1909 1.429 . S
C1890 H1914 0.950 . S
C1891 C1908 1.574 . S
C1891 C1910 1.368 . S
C1891 H1915 0.949 . S
H1892 C1896 0.949 . S
C1893 C1894 1.349 . S
C1893 C1895 1.327 . S
C1893 H1916 0.950 . S
C1894 C1893 1.349 . S
C1894 C1906 1.349 . S
C1895 C1893 1.327 . S
C1895 C1911 1.429 . S
C1895 H1917 0.950 . S
C1896 H1892 0.949 . S
C1896 C1904 1.574 . S
C1896 C1912 1.368 . S
H1897 C1905 0.950 . S
H1898 C1903 0.950 . S
H1899 C1904 0.949 . S
H1900 C1906 0.950 . S
H1901 C1907 0.950 . S
H1902 C1908 0.949 . S
C1903 H1898 0.950 . S
C1903 C1905 1.327 . S
C1903 C1909 1.429 . S
C1904 C1896 1.574 . S
C1904 H1899 0.949 . S
C1904 C1910 1.368 . S
C1905 C1889 1.349 . S
C1905 H1897 0.950 . S
C1905 C1903 1.327 . S
C1906 C1894 1.349 . S
C1906 H1900 0.950 . S
C1906 C1907 1.327 . S
C1907 H1901 0.950 . S
C1907 C1906 1.327 . S
C1907 C1911 1.429 . S
C1908 C1891 1.574 . S
C1908 H1902 0.949 . S
C1908 C1912 1.368 . S
C1909 C1890 1.429 . S
C1909 C1903 1.429 . S
C1909 C1910 1.523 . S
C1910 C1891 1.368 . S
C1910 C1904 1.368 . S
C1910 C1909 1.523 . S
C1911 C1895 1.429 . S
C1911 C1907 1.429 . S
C1911 C1912 1.523 . S
C1912 C1896 1.368 . S
C1912 C1908 1.368 . S
C1912 C1911 1.523 . S
H1913 C1888 0.950 . S
H1914 C1890 0.950 . S
H1915 C1891 0.949 . S
H1916 C1893 0.950 . S
H1917 C1895 0.950 . S
C1918 C1919 1.349 . S
C1918 C1920 1.327 . S
C1918 H1943 0.950 . S
C1919 C1918 1.349 . S
C1919 C1935 1.349 . S
C1920 C1918 1.327 . S
C1920 C1939 1.429 . S
C1920 H1944 0.950 . S
C1921 C1938 1.574 . S
C1921 C1940 1.368 . S
C1921 H1945 0.949 . S
H1922 C1926 0.949 . S
C1923 C1924 1.349 . S
C1923 C1925 1.327 . S
C1923 H1946 0.950 . S
C1924 C1923 1.349 . S
C1924 C1936 1.349 . S
C1925 C1923 1.327 . S
C1925 C1941 1.429 . S
C1925 H1947 0.950 . S
C1926 H1922 0.949 . S
C1926 C1934 1.574 . S
C1926 C1942 1.368 . S
H1927 C1935 0.950 . S
H1928 C1933 0.950 . S
H1929 C1934 0.949 . S
H1930 C1936 0.950 . S
H1931 C1937 0.950 . S
H1932 C1938 0.949 . S
C1933 H1928 0.950 . S
C1933 C1935 1.327 . S
C1933 C1939 1.429 . S
C1934 C1926 1.574 . S
C1934 H1929 0.949 . S
C1934 C1940 1.368 . S
C1935 C1919 1.349 . S
C1935 H1927 0.950 . S
C1935 C1933 1.327 . S
C1936 C1924 1.349 . S
C1936 H1930 0.950 . S
C1936 C1937 1.327 . S
C1937 H1931 0.950 . S
C1937 C1936 1.327 . S
C1937 C1941 1.429 . S
C1938 C1921 1.574 . S
C1938 H1932 0.949 . S
C1938 C1942 1.368 . S
C1939 C1920 1.429 . S
C1939 C1933 1.429 . S
C1939 C1940 1.523 . S
C1940 C1921 1.368 . S
C1940 C1934 1.368 . S
C1940 C1939 1.523 . S
C1941 C1925 1.429 . S
C1941 C1937 1.429 . S
C1941 C1942 1.523 . S
C1942 C1926 1.368 . S
C1942 C1938 1.368 . S
C1942 C1941 1.523 . S
H1943 C1918 0.950 . S
H1944 C1920 0.950 . S
H1945 C1921 0.949 . S
H1946 C1923 0.950 . S
H1947 C1925 0.950 . S
C1948 C1949 1.349 . S
C1948 C1950 1.327 . S
C1948 H1973 0.950 . S
C1949 C1948 1.349 . S
C1949 C1965 1.349 . S
C1950 C1948 1.327 . S
C1950 C1969 1.429 . S
C1950 H1974 0.950 . S
C1951 C1968 1.574 . S
C1951 C1970 1.368 . S
C1951 H1975 0.949 . S
H1952 C1956 0.949 . S
C1953 C1954 1.349 . S
C1953 C1955 1.327 . S
C1953 H1976 0.950 . S
C1954 C1953 1.349 . S
C1954 C1966 1.349 . S
C1955 C1953 1.327 . S
C1955 C1971 1.429 . S
C1955 H1977 0.950 . S
C1956 H1952 0.949 . S
C1956 C1964 1.574 . S
C1956 C1972 1.368 . S
H1957 C1965 0.950 . S
H1958 C1963 0.950 . S
H1959 C1964 0.949 . S
H1960 C1966 0.950 . S
H1961 C1967 0.950 . S
H1962 C1968 0.949 . S
C1963 H1958 0.950 . S
C1963 C1965 1.327 . S
C1963 C1969 1.429 . S
C1964 C1956 1.574 . S
C1964 H1959 0.949 . S
C1964 C1970 1.368 . S
C1965 C1949 1.349 . S
C1965 H1957 0.950 . S
C1965 C1963 1.327 . S
C1966 C1954 1.349 . S
C1966 H1960 0.950 . S
C1966 C1967 1.327 . S
C1967 H1961 0.950 . S
C1967 C1966 1.327 . S
C1967 C1971 1.429 . S
C1968 C1951 1.574 . S
C1968 H1962 0.949 . S
C1968 C1972 1.368 . S
C1969 C1950 1.429 . S
C1969 C1963 1.429 . S
C1969 C1970 1.523 . S
C1970 C1951 1.368 . S
C1970 C1964 1.368 . S
C1970 C1969 1.523 . S
C1971 C1955 1.429 . S
C1971 C1967 1.429 . S
C1971 C1972 1.523 . S
C1972 C1956 1.368 . S
C1972 C1968 1.368 . S
C1972 C1971 1.523 . S
H1973 C1948 0.950 . S
H1974 C1950 0.950 . S
H1975 C1951 0.949 . S
H1976 C1953 0.950 . S
H1977 C1955 0.950 . S
C1978 C1979 1.349 . S
C1978 C1980 1.327 . S
C1978 H2003 0.950 . S
C1979 C1978 1.349 . S
C1979 C1995 1.349 . S
C1980 C1978 1.327 . S
C1980 C1999 1.429 . S
C1980 H2004 0.950 . S
C1981 C1998 1.574 . S
C1981 C2000 1.368 . S
C1981 H2005 0.949 . S
H1982 C1986 0.949 . S
C1983 C1984 1.349 . S
C1983 C1985 1.327 . S
C1983 H2006 0.950 . S
C1984 C1983 1.349 . S
C1984 C1996 1.349 . S
C1985 C1983 1.327 . S
C1985 C2001 1.429 . S
C1985 H2007 0.950 . S
C1986 H1982 0.949 . S
C1986 C1994 1.574 . S
C1986 C2002 1.368 . S
H1987 C1995 0.950 . S
H1988 C1993 0.950 . S
H1989 C1994 0.949 . S
H1990 C1996 0.950 . S
H1991 C1997 0.950 . S
H1992 C1998 0.949 . S
C1993 H1988 0.950 . S
C1993 C1995 1.327 . S
C1993 C1999 1.429 . S
C1994 C1986 1.574 . S
C1994 H1989 0.949 . S
C1994 C2000 1.368 . S
C1995 C1979 1.349 . S
C1995 H1987 0.950 . S
C1995 C1993 1.327 . S
C1996 C1984 1.349 . S
C1996 H1990 0.950 . S
C1996 C1997 1.327 . S
C1997 H1991 0.950 . S
C1997 C1996 1.327 . S
C1997 C2001 1.429 . S
C1998 C1981 1.574 . S
C1998 H1992 0.949 . S
C1998 C2002 1.368 . S
C1999 C1980 1.429 . S
C1999 C1993 1.429 . S
C1999 C2000 1.523 . S
C2000 C1981 1.368 . S
C2000 C1994 1.368 . S
C2000 C1999 1.523 . S
C2001 C1985 1.429 . S
C2001 C1997 1.429 . S
C2001 C2002 1.523 . S
C2002 C1986 1.368 . S
C2002 C1998 1.368 . S
C2002 C2001 1.523 . S
H2003 C1978 0.950 . S
H2004 C1980 0.950 . S
H2005 C1981 0.949 . S
H2006 C1983 0.950 . S
H2007 C1985 0.950 . S
C2008 C2009 1.349 . S
C2008 C2010 1.327 . S
C2008 H2033 0.950 . S
C2009 C2008 1.349 . S
C2009 C2025 1.349 . S
C2010 C2008 1.327 . S
C2010 C2029 1.429 . S
C2010 H2034 0.950 . S
C2011 C2028 1.574 . S
C2011 C2030 1.368 . S
C2011 H2035 0.949 . S
H2012 C2016 0.949 . S
C2013 C2014 1.349 . S
C2013 C2015 1.327 . S
C2013 H2036 0.950 . S
C2014 C2013 1.349 . S
C2014 C2026 1.349 . S
C2015 C2013 1.327 . S
C2015 C2031 1.429 . S
C2015 H2037 0.950 . S
C2016 H2012 0.949 . S
C2016 C2024 1.574 . S
C2016 C2032 1.368 . S
H2017 C2025 0.950 . S
H2018 C2023 0.950 . S
H2019 C2024 0.949 . S
H2020 C2026 0.950 . S
H2021 C2027 0.950 . S
H2022 C2028 0.949 . S
C2023 H2018 0.950 . S
C2023 C2025 1.327 . S
C2023 C2029 1.429 . S
C2024 C2016 1.574 . S
C2024 H2019 0.949 . S
C2024 C2030 1.368 . S
C2025 C2009 1.349 . S
C2025 H2017 0.950 . S
C2025 C2023 1.327 . S
C2026 C2014 1.349 . S
C2026 H2020 0.950 . S
C2026 C2027 1.327 . S
C2027 H2021 0.950 . S
C2027 C2026 1.327 . S
C2027 C2031 1.429 . S
C2028 C2011 1.574 . S
C2028 H2022 0.949 . S
C2028 C2032 1.368 . S
C2029 C2010 1.429 . S
C2029 C2023 1.429 . S
C2029 C2030 1.523 . S
C2030 C2011 1.368 . S
C2030 C2024 1.368 . S
C2030 C2029 1.523 . S
C2031 C2015 1.429 . S
C2031 C2027 1.429 . S
C2031 C2032 1.523 . S
C2032 C2016 1.368 . S
C2032 C2028 1.368 . S
C2032 C2031 1.523 . S
H2033 C2008 0.950 . S
H2034 C2010 0.950 . S
H2035 C2011 0.949 . S
H2036 C2013 0.950 . S
H2037 C2015 0.950 . S
C2038 C2039 1.349 . S
C2038 C2040 1.327 . S
C2038 H2063 0.950 . S
C2039 C2038 1.349 . S
C2039 C2055 1.349 . S
C2040 C2038 1.327 . S
C2040 C2059 1.429 . S
C2040 H2064 0.950 . S
C2041 C2058 1.574 . S
C2041 C2060 1.368 . S
C2041 H2065 0.949 . S
H2042 C2046 0.949 . S
C2043 C2044 1.349 . S
C2043 C2045 1.327 . S
C2043 H2066 0.950 . S
C2044 C2043 1.349 . S
C2044 C2056 1.349 . S
C2045 C2043 1.327 . S
C2045 C2061 1.429 . S
C2045 H2067 0.950 . S
C2046 H2042 0.949 . S
C2046 C2054 1.574 . S
C2046 C2062 1.368 . S
H2047 C2055 0.950 . S
H2048 C2053 0.950 . S
H2049 C2054 0.949 . S
H2050 C2056 0.950 . S
H2051 C2057 0.950 . S
H2052 C2058 0.949 . S
C2053 H2048 0.950 . S
C2053 C2055 1.327 . S
C2053 C2059 1.429 . S
C2054 C2046 1.574 . S
C2054 H2049 0.949 . S
C2054 C2060 1.368 . S
C2055 C2039 1.349 . S
C2055 H2047 0.950 . S
C2055 C2053 1.327 . S
C2056 C2044 1.349 . S
C2056 H2050 0.950 . S
C2056 C2057 1.327 . S
C2057 H2051 0.950 . S
C2057 C2056 1.327 . S
C2057 C2061 1.429 . S
C2058 C2041 1.574 . S
C2058 H2052 0.949 . S
C2058 C2062 1.368 . S
C2059 C2040 1.429 . S
C2059 C2053 1.429 . S
C2059 C2060 1.523 . S
C2060 C2041 1.368 . S
C2060 C2054 1.368 . S
C2060 C2059 1.523 . S
C2061 C2045 1.429 . S
C2061 C2057 1.429 . S
C2061 C2062 1.523 . S
C2062 C2046 1.368 . S
C2062 C2058 1.368 . S
C2062 C2061 1.523 . S
H2063 C2038 0.950 . S
H2064 C2040 0.950 . S
H2065 C2041 0.949 . S
H2066 C2043 0.950 . S
H2067 C2045 0.950 . S
C2068 C2069 1.349 . S
C2068 C2070 1.327 . S
C2068 H2093 0.950 . S
C2069 C2068 1.349 . S
C2069 C2085 1.349 . S
C2070 C2068 1.327 . S
C2070 C2089 1.429 . S
C2070 H2094 0.950 . S
C2071 C2088 1.574 . S
C2071 C2090 1.368 . S
C2071 H2095 0.949 . S
H2072 C2076 0.949 . S
C2073 C2074 1.349 . S
C2073 C2075 1.327 . S
C2073 H2096 0.950 . S
C2074 C2073 1.349 . S
C2074 C2086 1.349 . S
C2075 C2073 1.327 . S
C2075 C2091 1.429 . S
C2075 H2097 0.950 . S
C2076 H2072 0.949 . S
C2076 C2084 1.574 . S
C2076 C2092 1.368 . S
H2077 C2085 0.950 . S
H2078 C2083 0.950 . S
H2079 C2084 0.949 . S
H2080 C2086 0.950 . S
H2081 C2087 0.950 . S
H2082 C2088 0.949 . S
C2083 H2078 0.950 . S
C2083 C2085 1.327 . S
C2083 C2089 1.429 . S
C2084 C2076 1.574 . S
C2084 H2079 0.949 . S
C2084 C2090 1.368 . S
C2085 C2069 1.349 . S
C2085 H2077 0.950 . S
C2085 C2083 1.327 . S
C2086 C2074 1.349 . S
C2086 H2080 0.950 . S
C2086 C2087 1.327 . S
C2087 H2081 0.950 . S
C2087 C2086 1.327 . S
C2087 C2091 1.429 . S
C2088 C2071 1.574 . S
C2088 H2082 0.949 . S
C2088 C2092 1.368 . S
C2089 C2070 1.429 . S
C2089 C2083 1.429 . S
C2089 C2090 1.523 . S
C2090 C2071 1.368 . S
C2090 C2084 1.368 . S
C2090 C2089 1.523 . S
C2091 C2075 1.429 . S
C2091 C2087 1.429 . S
C2091 C2092 1.523 . S
C2092 C2076 1.368 . S
C2092 C2088 1.368 . S
C2092 C2091 1.523 . S
H2093 C2068 0.950 . S
H2094 C2070 0.950 . S
H2095 C2071 0.949 . S
H2096 C2073 0.950 . S
H2097 C2075 0.950 . S
C2098 C2099 1.349 . S
C2098 C2100 1.327 . S
C2098 H2123 0.950 . S
C2099 C2098 1.349 . S
C2099 C2115 1.349 . S
C2100 C2098 1.327 . S
C2100 C2119 1.429 . S
C2100 H2124 0.950 . S
C2101 C2118 1.574 . S
C2101 C2120 1.368 . S
C2101 H2125 0.949 . S
H2102 C2106 0.949 . S
C2103 C2104 1.349 . S
C2103 C2105 1.327 . S
C2103 H2126 0.950 . S
C2104 C2103 1.349 . S
C2104 C2116 1.349 . S
C2105 C2103 1.327 . S
C2105 C2121 1.429 . S
C2105 H2127 0.950 . S
C2106 H2102 0.949 . S
C2106 C2114 1.574 . S
C2106 C2122 1.368 . S
H2107 C2115 0.950 . S
H2108 C2113 0.950 . S
H2109 C2114 0.949 . S
H2110 C2116 0.950 . S
H2111 C2117 0.950 . S
H2112 C2118 0.949 . S
C2113 H2108 0.950 . S
C2113 C2115 1.327 . S
C2113 C2119 1.429 . S
C2114 C2106 1.574 . S
C2114 H2109 0.949 . S
C2114 C2120 1.368 . S
C2115 C2099 1.349 . S
C2115 H2107 0.950 . S
C2115 C2113 1.327 . S
C2116 C2104 1.349 . S
C2116 H2110 0.950 . S
C2116 C2117 1.327 . S
C2117 H2111 0.950 . S
C2117 C2116 1.327 . S
C2117 C2121 1.429 . S
C2118 C2101 1.574 . S
C2118 H2112 0.949 . S
C2118 C2122 1.368 . S
C2119 C2100 1.429 . S
C2119 C2113 1.429 . S
C2119 C2120 1.523 . S
C2120 C2101 1.368 . S
C2120 C2114 1.368 . S
C2120 C2119 1.523 . S
C2121 C2105 1.429 . S
C2121 C2117 1.429 . S
C2121 C2122 1.523 . S
C2122 C2106 1.368 . S
C2122 C2118 1.368 . S
C2122 C2121 1.523 . S
H2123 C2098 0.950 . S
H2124 C2100 0.950 . S
H2125 C2101 0.949 . S
H2126 C2103 0.950 . S
H2127 C2105 0.950 . S
C2128 C2129 1.349 . S
C2128 C2130 1.327 . S
C2128 H2153 0.950 . S
C2129 C2128 1.349 . S
C2129 C2145 1.349 . S
C2130 C2128 1.327 . S
C2130 C2149 1.429 . S
C2130 H2154 0.950 . S
C2131 C2148 1.574 . S
C2131 C2150 1.368 . S
C2131 H2155 0.949 . S
H2132 C2136 0.949 . S
C2133 C2134 1.349 . S
C2133 C2135 1.327 . S
C2133 H2156 0.950 . S
C2134 C2133 1.349 . S
C2134 C2146 1.349 . S
C2135 C2133 1.327 . S
C2135 C2151 1.429 . S
C2135 H2157 0.950 . S
C2136 H2132 0.949 . S
C2136 C2144 1.574 . S
C2136 C2152 1.368 . S
H2137 C2145 0.950 . S
H2138 C2143 0.950 . S
H2139 C2144 0.949 . S
H2140 C2146 0.950 . S
H2141 C2147 0.950 . S
H2142 C2148 0.949 . S
C2143 H2138 0.950 . S
C2143 C2145 1.327 . S
C2143 C2149 1.429 . S
C2144 C2136 1.574 . S
C2144 H2139 0.949 . S
C2144 C2150 1.368 . S
C2145 C2129 1.349 . S
C2145 H2137 0.950 . S
C2145 C2143 1.327 . S
C2146 C2134 1.349 . S
C2146 H2140 0.950 . S
C2146 C2147 1.327 . S
C2147 H2141 0.950 . S
C2147 C2146 1.327 . S
C2147 C2151 1.429 . S
C2148 C2131 1.574 . S
C2148 H2142 0.949 . S
C2148 C2152 1.368 . S
C2149 C2130 1.429 . S
C2149 C2143 1.429 . S
C2149 C2150 1.523 . S
C2150 C2131 1.368 . S
C2150 C2144 1.368 . S
C2150 C2149 1.523 . S
C2151 C2135 1.429 . S
C2151 C2147 1.429 . S
C2151 C2152 1.523 . S
C2152 C2136 1.368 . S
C2152 C2148 1.368 . S
C2152 C2151 1.523 . S
H2153 C2128 0.950 . S
H2154 C2130 0.950 . S
H2155 C2131 0.949 . S
H2156 C2133 0.950 . S
H2157 C2135 0.950 . S
C2158 C2159 1.349 . S
C2158 C2160 1.327 . S
C2158 H2183 0.950 . S
C2159 C2158 1.349 . S
C2159 C2175 1.349 . S
C2160 C2158 1.327 . S
C2160 C2179 1.429 . S
C2160 H2184 0.950 . S
C2161 C2178 1.574 . S
C2161 C2180 1.368 . S
C2161 H2185 0.949 . S
H2162 C2166 0.949 . S
C2163 C2164 1.349 . S
C2163 C2165 1.327 . S
C2163 H2186 0.950 . S
C2164 C2163 1.349 . S
C2164 C2176 1.349 . S
C2165 C2163 1.327 . S
C2165 C2181 1.429 . S
C2165 H2187 0.950 . S
C2166 H2162 0.949 . S
C2166 C2174 1.574 . S
C2166 C2182 1.368 . S
H2167 C2175 0.950 . S
H2168 C2173 0.950 . S
H2169 C2174 0.949 . S
H2170 C2176 0.950 . S
H2171 C2177 0.950 . S
H2172 C2178 0.949 . S
C2173 H2168 0.950 . S
C2173 C2175 1.327 . S
C2173 C2179 1.429 . S
C2174 C2166 1.574 . S
C2174 H2169 0.949 . S
C2174 C2180 1.368 . S
C2175 C2159 1.349 . S
C2175 H2167 0.950 . S
C2175 C2173 1.327 . S
C2176 C2164 1.349 . S
C2176 H2170 0.950 . S
C2176 C2177 1.327 . S
C2177 H2171 0.950 . S
C2177 C2176 1.327 . S
C2177 C2181 1.429 . S
C2178 C2161 1.574 . S
C2178 H2172 0.949 . S
C2178 C2182 1.368 . S
C2179 C2160 1.429 . S
C2179 C2173 1.429 . S
C2179 C2180 1.523 . S
C2180 C2161 1.368 . S
C2180 C2174 1.368 . S
C2180 C2179 1.523 . S
C2181 C2165 1.429 . S
C2181 C2177 1.429 . S
C2181 C2182 1.523 . S
C2182 C2166 1.368 . S
C2182 C2178 1.368 . S
C2182 C2181 1.523 . S
H2183 C2158 0.950 . S
H2184 C2160 0.950 . S
H2185 C2161 0.949 . S
H2186 C2163 0.950 . S
H2187 C2165 0.950 . S
C2188 C2189 1.349 . S
C2188 C2190 1.327 . S
C2188 H2213 0.950 . S
C2189 C2188 1.349 . S
C2189 C2205 1.349 . S
C2190 C2188 1.327 . S
C2190 C2209 1.429 . S
C2190 H2214 0.950 . S
C2191 C2208 1.574 . S
C2191 C2210 1.368 . S
C2191 H2215 0.949 . S
H2192 C2196 0.949 . S
C2193 C2194 1.349 . S
C2193 C2195 1.327 . S
C2193 H2216 0.950 . S
C2194 C2193 1.349 . S
C2194 C2206 1.349 . S
C2195 C2193 1.327 . S
C2195 C2211 1.429 . S
C2195 H2217 0.950 . S
C2196 H2192 0.949 . S
C2196 C2204 1.574 . S
C2196 C2212 1.368 . S
H2197 C2205 0.950 . S
H2198 C2203 0.950 . S
H2199 C2204 0.949 . S
H2200 C2206 0.950 . S
H2201 C2207 0.950 . S
H2202 C2208 0.949 . S
C2203 H2198 0.950 . S
C2203 C2205 1.327 . S
C2203 C2209 1.429 . S
C2204 C2196 1.574 . S
C2204 H2199 0.949 . S
C2204 C2210 1.368 . S
C2205 C2189 1.349 . S
C2205 H2197 0.950 . S
C2205 C2203 1.327 . S
C2206 C2194 1.349 . S
C2206 H2200 0.950 . S
C2206 C2207 1.327 . S
C2207 H2201 0.950 . S
C2207 C2206 1.327 . S
C2207 C2211 1.429 . S
C2208 C2191 1.574 . S
C2208 H2202 0.949 . S
C2208 C2212 1.368 . S
C2209 C2190 1.429 . S
C2209 C2203 1.429 . S
C2209 C2210 1.523 . S
C2210 C2191 1.368 . S
C2210 C2204 1.368 . S
C2210 C2209 1.523 . S
C2211 C2195 1.429 . S
C2211 C2207 1.429 . S
C2211 C2212 1.523 . S
C2212 C2196 1.368 . S
C2212 C2208 1.368 . S
C2212 C2211 1.523 . S
H2213 C2188 0.950 . S
H2214 C2190 0.950 . S
H2215 C2191 0.949 . S
H2216 C2193 0.950 . S
H2217 C2195 0.950 . S
C2218 C2219 1.349 . S
C2218 C2220 1.327 . S
C2218 H2243 0.950 . S
C2219 C2218 1.349 . S
C2219 C2235 1.349 . S
C2220 C2218 1.327 . S
C2220 C2239 1.429 . S
C2220 H2244 0.950 . S
C2221 C2238 1.574 . S
C2221 C2240 1.368 . S
C2221 H2245 0.949 . S
H2222 C2226 0.949 . S
C2223 C2224 1.349 . S
C2223 C2225 1.327 . S
C2223 H2246 0.950 . S
C2224 C2223 1.349 . S
C2224 C2236 1.349 . S
C2225 C2223 1.327 . S
C2225 C2241 1.429 . S
C2225 H2247 0.950 . S
C2226 H2222 0.949 . S
C2226 C2234 1.574 . S
C2226 C2242 1.368 . S
H2227 C2235 0.950 . S
H2228 C2233 0.950 . S
H2229 C2234 0.949 . S
H2230 C2236 0.950 . S
H2231 C2237 0.950 . S
H2232 C2238 0.949 . S
C2233 H2228 0.950 . S
C2233 C2235 1.327 . S
C2233 C2239 1.429 . S
C2234 C2226 1.574 . S
C2234 H2229 0.949 . S
C2234 C2240 1.368 . S
C2235 C2219 1.349 . S
C2235 H2227 0.950 . S
C2235 C2233 1.327 . S
C2236 C2224 1.349 . S
C2236 H2230 0.950 . S
C2236 C2237 1.327 . S
C2237 H2231 0.950 . S
C2237 C2236 1.327 . S
C2237 C2241 1.429 . S
C2238 C2221 1.574 . S
C2238 H2232 0.949 . S
C2238 C2242 1.368 . S
C2239 C2220 1.429 . S
C2239 C2233 1.429 . S
C2239 C2240 1.523 . S
C2240 C2221 1.368 . S
C2240 C2234 1.368 . S
C2240 C2239 1.523 . S
C2241 C2225 1.429 . S
C2241 C2237 1.429 . S
C2241 C2242 1.523 . S
C2242 C2226 1.368 . S
C2242 C2238 1.368 . S
C2242 C2241 1.523 . S
H2243 C2218 0.950 . S
H2244 C2220 0.950 . S
H2245 C2221 0.949 . S
H2246 C2223 0.950 . S
H2247 C2225 0.950 . S
C2248 C2249 1.349 . S
C2248 C2250 1.327 . S
C2248 H2273 0.950 . S
C2249 C2248 1.349 . S
C2249 C2265 1.349 . S
C2250 C2248 1.327 . S
C2250 C2269 1.429 . S
C2250 H2274 0.950 . S
C2251 C2268 1.574 . S
C2251 C2270 1.368 . S
C2251 H2275 0.949 . S
H2252 C2256 0.949 . S
C2253 C2254 1.349 . S
C2253 C2255 1.327 . S
C2253 H2276 0.950 . S
C2254 C2253 1.349 . S
C2254 C2266 1.349 . S
C2255 C2253 1.327 . S
C2255 C2271 1.429 . S
C2255 H2277 0.950 . S
C2256 H2252 0.949 . S
C2256 C2264 1.574 . S
C2256 C2272 1.368 . S
H2257 C2265 0.950 . S
H2258 C2263 0.950 . S
H2259 C2264 0.949 . S
H2260 C2266 0.950 . S
H2261 C2267 0.950 . S
H2262 C2268 0.949 . S
C2263 H2258 0.950 . S
C2263 C2265 1.327 . S
C2263 C2269 1.429 . S
C2264 C2256 1.574 . S
C2264 H2259 0.949 . S
C2264 C2270 1.368 . S
C2265 C2249 1.349 . S
C2265 H2257 0.950 . S
C2265 C2263 1.327 . S
C2266 C2254 1.349 . S
C2266 H2260 0.950 . S
C2266 C2267 1.327 . S
C2267 H2261 0.950 . S
C2267 C2266 1.327 . S
C2267 C2271 1.429 . S
C2268 C2251 1.574 . S
C2268 H2262 0.949 . S
C2268 C2272 1.368 . S
C2269 C2250 1.429 . S
C2269 C2263 1.429 . S
C2269 C2270 1.523 . S
C2270 C2251 1.368 . S
C2270 C2264 1.368 . S
C2270 C2269 1.523 . S
C2271 C2255 1.429 . S
C2271 C2267 1.429 . S
C2271 C2272 1.523 . S
C2272 C2256 1.368 . S
C2272 C2268 1.368 . S
C2272 C2271 1.523 . S
H2273 C2248 0.950 . S
H2274 C2250 0.950 . S
H2275 C2251 0.949 . S
H2276 C2253 0.950 . S
H2277 C2255 0.950 . S
C2278 C2279 1.349 . S
C2278 C2280 1.327 . S
C2278 H2303 0.950 . S
C2279 C2278 1.349 . S
C2279 C2295 1.349 . S
C2280 C2278 1.327 . S
C2280 C2299 1.429 . S
C2280 H2304 0.950 . S
C2281 C2298 1.574 . S
C2281 C2300 1.368 . S
C2281 H2305 0.949 . S
H2282 C2286 0.949 . S
C2283 C2284 1.349 . S
C2283 C2285 1.327 . S
C2283 H2306 0.950 . S
C2284 C2283 1.349 . S
C2284 C2296 1.349 . S
C2285 C2283 1.327 . S
C2285 C2301 1.429 . S
C2285 H2307 0.950 . S
C2286 H2282 0.949 . S
C2286 C2294 1.574 . S
C2286 C2302 1.368 . S
H2287 C2295 0.950 . S
H2288 C2293 0.950 . S
H2289 C2294 0.949 . S
H2290 C2296 0.950 . S
H2291 C2297 0.950 . S
H2292 C2298 0.949 . S
C2293 H2288 0.950 . S
C2293 C2295 1.327 . S
C2293 C2299 1.429 . S
C2294 C2286 1.574 . S
C2294 H2289 0.949 . S
C2294 C2300 1.368 . S
C2295 C2279 1.349 . S
C2295 H2287 0.950 . S
C2295 C2293 1.327 . S
C2296 C2284 1.349 . S
C2296 H2290 0.950 . S
C2296 C2297 1.327 . S
C2297 H2291 0.950 . S
C2297 C2296 1.327 . S
C2297 C2301 1.429 . S
C2298 C2281 1.574 . S
C2298 H2292 0.949 . S
C2298 C2302 1.368 . S
C2299 C2280 1.429 . S
C2299 C2293 1.429 . S
C2299 C2300 1.523 . S
C2300 C2281 1.368 . S
C2300 C2294 1.368 . S
C2300 C2299 1.523 . S
C2301 C2285 1.429 . S
C2301 C2297 1.429 . S
C2301 C2302 1.523 . S
C2302 C2286 1.368 . S
C2302 C2298 1.368 . S
C2302 C2301 1.523 . S
H2303 C2278 0.950 . S
H2304 C2280 0.950 . S
H2305 C2281 0.949 . S
H2306 C2283 0.950 . S
H2307 C2285 0.950 . S
C2308 C2309 1.349 . S
C2308 C2310 1.327 . S
C2308 H2333 0.950 . S
C2309 C2308 1.349 . S
C2309 C2325 1.349 . S
C2310 C2308 1.327 . S
C2310 C2329 1.429 . S
C2310 H2334 0.950 . S
C2311 C2328 1.574 . S
C2311 C2330 1.368 . S
C2311 H2335 0.949 . S
H2312 C2316 0.949 . S
C2313 C2314 1.349 . S
C2313 C2315 1.327 . S
C2313 H2336 0.950 . S
C2314 C2313 1.349 . S
C2314 C2326 1.349 . S
C2315 C2313 1.327 . S
C2315 C2331 1.429 . S
C2315 H2337 0.950 . S
C2316 H2312 0.949 . S
C2316 C2324 1.574 . S
C2316 C2332 1.368 . S
H2317 C2325 0.950 . S
H2318 C2323 0.950 . S
H2319 C2324 0.949 . S
H2320 C2326 0.950 . S
H2321 C2327 0.950 . S
H2322 C2328 0.949 . S
C2323 H2318 0.950 . S
C2323 C2325 1.327 . S
C2323 C2329 1.429 . S
C2324 C2316 1.574 . S
C2324 H2319 0.949 . S
C2324 C2330 1.368 . S
C2325 C2309 1.349 . S
C2325 H2317 0.950 . S
C2325 C2323 1.327 . S
C2326 C2314 1.349 . S
C2326 H2320 0.950 . S
C2326 C2327 1.327 . S
C2327 H2321 0.950 . S
C2327 C2326 1.327 . S
C2327 C2331 1.429 . S
C2328 C2311 1.574 . S
C2328 H2322 0.949 . S
C2328 C2332 1.368 . S
C2329 C2310 1.429 . S
C2329 C2323 1.429 . S
C2329 C2330 1.523 . S
C2330 C2311 1.368 . S
C2330 C2324 1.368 . S
C2330 C2329 1.523 . S
C2331 C2315 1.429 . S
C2331 C2327 1.429 . S
C2331 C2332 1.523 . S
C2332 C2316 1.368 . S
C2332 C2328 1.368 . S
C2332 C2331 1.523 . S
H2333 C2308 0.950 . S
H2334 C2310 0.950 . S
H2335 C2311 0.949 . S
H2336 C2313 0.950 . S
H2337 C2315 0.950 . S
C2338 C2339 1.349 . S
C2338 C2340 1.327 . S
C2338 H2363 0.950 . S
C2339 C2338 1.349 . S
C2339 C2355 1.349 . S
C2340 C2338 1.327 . S
C2340 C2359 1.429 . S
C2340 H2364 0.950 . S
C2341 C2358 1.574 . S
C2341 C2360 1.368 . S
C2341 H2365 0.949 . S
H2342 C2346 0.949 . S
C2343 C2344 1.349 . S
C2343 C2345 1.327 . S
C2343 H2366 0.950 . S
C2344 C2343 1.349 . S
C2344 C2356 1.349 . S
C2345 C2343 1.327 . S
C2345 C2361 1.429 . S
C2345 H2367 0.950 . S
C2346 H2342 0.949 . S
C2346 C2354 1.574 . S
C2346 C2362 1.368 . S
H2347 C2355 0.950 . S
H2348 C2353 0.950 . S
H2349 C2354 0.949 . S
H2350 C2356 0.950 . S
H2351 C2357 0.950 . S
H2352 C2358 0.949 . S
C2353 H2348 0.950 . S
C2353 C2355 1.327 . S
C2353 C2359 1.429 . S
C2354 C2346 1.574 . S
C2354 H2349 0.949 . S
C2354 C2360 1.368 . S
C2355 C2339 1.349 . S
C2355 H2347 0.950 . S
C2355 C2353 1.327 . S
C2356 C2344 1.349 . S
C2356 H2350 0.950 . S
C2356 C2357 1.327 . S
C2357 H2351 0.950 . S
C2357 C2356 1.327 . S
C2357 C2361 1.429 . S
C2358 C2341 1.574 . S
C2358 H2352 0.949 . S
C2358 C2362 1.368 . S
C2359 C2340 1.429 . S
C2359 C2353 1.429 . S
C2359 C2360 1.523 . S
C2360 C2341 1.368 . S
C2360 C2354 1.368 . S
C2360 C2359 1.523 . S
C2361 C2345 1.429 . S
C2361 C2357 1.429 . S
C2361 C2362 1.523 . S
C2362 C2346 1.368 . S
C2362 C2358 1.368 . S
C2362 C2361 1.523 . S
H2363 C2338 0.950 . S
H2364 C2340 0.950 . S
H2365 C2341 0.949 . S
H2366 C2343 0.950 . S
H2367 C2345 0.950 . S
C449 C119 1.362 . S
C454 C7 1.362 . S
C479 C357 1.362 . S
C484 C21 1.362 . S
C509 C147 1.362 . S
C514 C35 1.362 . S
C539 C385 1.362 . S
C544 C49 1.362 . S
C569 C175 1.362 . S
C574 C63 1.362 . S
C599 C77 1.362 . S
C604 C413 1.362 . S
C629 C91 1.362 . S
C634 C203 1.362 . S
C659 C105 1.362 . S
C664 C441 1.362 . S
C689 C245 1.362 . S
C694 C133 1.362 . S
C719 C273 1.362 . S
C724 C161 1.362 . S
C749 C189 1.362 . S
C754 C301 1.362 . S
C779 C217 1.362 . S
C784 C329 1.362 . S
C809 C231 1.362 . S
C814 C343 1.362 . S
C839 C371 1.362 . S
C844 C259 1.362 . S
C869 C287 1.362 . S
C874 C399 1.362 . S
C899 C427 1.362 . S
C904 C315 1.362 . S
C929 C261 2.094 . S
C934 C9 2.094 . S
C959 C275 2.094 . S
C964 C23 2.094 . S
C989 C37 2.094 . S
C994 C233 2.094 . S
C1019 C51 2.094 . S
C1024 C247 2.094 . S
C1049 C317 2.094 . S
C1054 C65 2.094 . S
C1079 C79 2.094 . S
C1084 C331 2.094 . S
C1109 C289 2.094 . S
C1114 C93 2.094 . S
C1139 C303 2.094 . S
C1144 C107 2.094 . S
C1169 C121 2.094 . S
C1174 C373 2.094 . S
C1199 C387 2.094 . S
C1204 C135 2.094 . S
C1229 C149 2.094 . S
C1234 C345 2.094 . S
C1259 C163 2.094 . S
C1264 C359 2.094 . S
C1289 C177 2.094 . S
C1294 C429 2.094 . S
C1319 C191 2.094 . S
C1324 C443 2.094 . S
C1349 C401 2.094 . S
C1354 C205 2.094 . S
C1379 C415 2.094 . S
C1384 C219 2.094 . S
C1409 C90 1.595 . S
C1414 C6 1.595 . S
C1439 C104 1.595 . S
C1444 C20 1.595 . S
C1469 C62 1.595 . S
C1474 C34 1.595 . S
C1499 C48 1.595 . S
C1504 C76 1.595 . S
C1529 C202 1.595 . S
C1534 C118 1.595 . S
C1559 C216 1.595 . S
C1564 C132 1.595 . S
C1589 C174 1.595 . S
C1594 C146 1.595 . S
C1619 C188 1.595 . S
C1624 C160 1.595 . S
C1649 C314 1.595 . S
C1654 C230 1.595 . S
C1679 C328 1.595 . S
C1684 C244 1.595 . S
C1709 C258 1.595 . S
C1714 C286 1.595 . S
C1739 C272 1.595 . S
C1744 C300 1.595 . S
C1769 C426 1.595 . S
C1774 C342 1.595 . S
C1799 C440 1.595 . S
C1804 C356 1.595 . S
C1829 C370 1.595 . S
C1834 C398 1.595 . S
C1859 C384 1.595 . S
C1864 C412 1.595 . S
C1889 C8 1.548 . S
C1894 C302 1.548 . S
C1919 C316 1.548 . S
C1924 C22 1.548 . S
C1949 C330 1.548 . S
C1954 C36 1.548 . S
C1979 C50 1.548 . S
C1984 C288 1.548 . S
C2009 C274 1.548 . S
C2014 C64 1.548 . S
C2039 C78 1.548 . S
C2044 C232 1.548 . S
C2069 C246 1.548 . S
C2074 C92 1.548 . S
C2099 C106 1.548 . S
C2104 C260 1.548 . S
C2129 C414 1.548 . S
C2134 C120 1.548 . S
C2159 C428 1.548 . S
C2164 C134 1.548 . S
C2189 C148 1.548 . S
C2194 C442 1.548 . S
C2219 C400 1.548 . S
C2224 C162 1.548 . S
C2249 C386 1.548 . S
C2254 C176 1.548 . S
C2279 C190 1.548 . S
C2284 C344 1.548 . S
C2309 C358 1.548 . S
C2314 C204 1.548 . S
C2339 C218 1.548 . S
C2344 C372 1.548 . S
