# Generated by pormake.
# Topology smc, (6)-cn, num edge types: 1
# Building blocks:
#     Node 0, Type 0, BuildingBlock: PAMTOO_clean_sbu_0, # of connection points: 6
#     Node 1, Type 0, BuildingBlock: PAMTOO_clean_sbu_0, # of connection points: 6
#     Node 2, Type 0, BuildingBlock: PAMTOO_clean_sbu_0, # of connection points: 6
#     Node 3, Type 0, BuildingBlock: PAMTOO_clean_sbu_0, # of connection points: 6
#     Node 4, Type 0, BuildingBlock: PAMTOO_clean_sbu_0, # of connection points: 6
#     Node 5, Type 0, BuildingBlock: PAMTOO_clean_sbu_0, # of connection points: 6
#     Node 6, Type 0, BuildingBlock: PAMTOO_clean_sbu_0, # of connection points: 6
#     Node 7, Type 0, BuildingBlock: PAMTOO_clean_sbu_0, # of connection points: 6
#     Node 8, Type 0, BuildingBlock: PAMTOO_clean_sbu_0, # of connection points: 6
#     Edge 9, Type (0, 0), BuildingBlock: KIFKEQ_clean_linker_1, # of connection points: 2
#     Edge 10, Type (0, 0), BuildingBlock: KIFKEQ_clean_linker_1, # of connection points: 2
#     Edge 11, Type (0, 0), BuildingBlock: KIFKEQ_clean_linker_1, # of connection points: 2
#     Edge 12, Type (0, 0), BuildingBlock: KIFKEQ_clean_linker_1, # of connection points: 2
#     Edge 13, Type (0, 0), BuildingBlock: KIFKEQ_clean_linker_1, # of connection points: 2
#     Edge 14, Type (0, 0), BuildingBlock: KIFKEQ_clean_linker_1, # of connection points: 2
#     Edge 15, Type (0, 0), BuildingBlock: KIFKEQ_clean_linker_1, # of connection points: 2
#     Edge 16, Type (0, 0), BuildingBlock: KIFKEQ_clean_linker_1, # of connection points: 2
#     Edge 17, Type (0, 0), BuildingBlock: KIFKEQ_clean_linker_1, # of connection points: 2
#     Edge 18, Type (0, 0), BuildingBlock: KIFKEQ_clean_linker_1, # of connection points: 2
#     Edge 19, Type (0, 0), BuildingBlock: KIFKEQ_clean_linker_1, # of connection points: 2
#     Edge 20, Type (0, 0), BuildingBlock: KIFKEQ_clean_linker_1, # of connection points: 2
#     Edge 21, Type (0, 0), BuildingBlock: KIFKEQ_clean_linker_1, # of connection points: 2
#     Edge 22, Type (0, 0), BuildingBlock: KIFKEQ_clean_linker_1, # of connection points: 2
#     Edge 23, Type (0, 0), BuildingBlock: KIFKEQ_clean_linker_1, # of connection points: 2
#     Edge 24, Type (0, 0), BuildingBlock: KIFKEQ_clean_linker_1, # of connection points: 2
#     Edge 25, Type (0, 0), BuildingBlock: KIFKEQ_clean_linker_1, # of connection points: 2
#     Edge 26, Type (0, 0), BuildingBlock: KIFKEQ_clean_linker_1, # of connection points: 2
#     Edge 27, Type (0, 0), BuildingBlock: KIFKEQ_clean_linker_1, # of connection points: 2
#     Edge 28, Type (0, 0), BuildingBlock: KIFKEQ_clean_linker_1, # of connection points: 2
#     Edge 29, Type (0, 0), BuildingBlock: KIFKEQ_clean_linker_1, # of connection points: 2
#     Edge 30, Type (0, 0), BuildingBlock: KIFKEQ_clean_linker_1, # of connection points: 2
#     Edge 31, Type (0, 0), BuildingBlock: KIFKEQ_clean_linker_1, # of connection points: 2
#     Edge 32, Type (0, 0), BuildingBlock: KIFKEQ_clean_linker_1, # of connection points: 2
#     Edge 33, Type (0, 0), BuildingBlock: KIFKEQ_clean_linker_1, # of connection points: 2
#     Edge 34, Type (0, 0), BuildingBlock: KIFKEQ_clean_linker_1, # of connection points: 2
#     Edge 35, Type (0, 0), BuildingBlock: KIFKEQ_clean_linker_1, # of connection points: 2
# Relax obj value: 0.293
# Max RMSD: 0.343
# Mean RMSD: 0.308
data_MOF--net-smc--node1-PAMTOO_clean_sbu_0--edge1-KIFKEQ_clean_linker_1
_symmetry_space_group_name_H-M    P1
_symmetry_Int_Tables_number       1
_symmetry_cell_setting            triclinic
loop_
_symmetry_equiv_pos_as_xyz
'x, y, z'
_cell_length_a     42.843907
_cell_length_b     31.706819
_cell_length_c     39.795525
_cell_angle_alpha  91.105795
_cell_angle_beta   89.597973
_cell_angle_gamma 118.78402
loop_
_atom_site_label
_atom_site_type_symbol
_atom_site_fract_x
_atom_site_fract_y
_atom_site_fract_z
_atom_type_partial_charge
Dy0 Dy 0.08902 0.41719 0.99162 0.0
Dy1 Dy 0.07249 0.50191 1.01601 0.0
C2 C 0.1131 0.46299 0.06451 0.0
O3 O 1.02994 0.38251 1.00083 0.0
O4 O 1.03052 0.4364 0.03988 0.0
O5 O 0.0738 0.34182 0.99154 0.0
O6 O 0.11998 0.39136 0.96331 0.0
O7 O 1.03622 0.4654 0.97093 0.0
O8 O 0.07143 0.43859 0.94537 0.0
O9 O 0.11853 0.53581 0.98145 0.0
O10 O 0.14179 0.4868 0.99344 0.0
O11 O 1.05729 0.5563 1.00583 0.0
O12 O 0.07264 0.54876 0.05609 0.0
C13 C 1.01415 0.39422 0.02485 0.0
O14 O 0.09857 0.42282 0.04679 0.0
O15 O 0.11184 0.5013 0.05383 0.0
C16 C 0.12396 0.33003 0.99213 0.0
C17 C 0.17496 0.31381 0.02522 0.0
C18 C 0.1472 0.31502 0.04345 0.0
C19 C 0.12203 0.32336 0.02709 0.0
C20 C 0.14962 0.32455 0.97354 0.0
C21 C 0.17495 0.31658 0.98989 0.0
C22 C 0.10235 0.34822 0.97557 0.0
C23 C 1.04445 0.44735 0.94421 0.0
C24 C 0.14601 0.52862 0.98337 0.0
C25 C 1.02844 0.5722 0.05189 0.0
C26 C 0.97115 0.58031 0.08065 0.0
C27 C 0.96871 0.56218 0.04764 0.0
C28 C 0.99702 0.55801 0.03343 0.0
C29 C 1.03081 0.58988 0.08491 0.0
C30 C 1.00242 0.59367 0.09922 0.0
C31 C 1.05903 0.56906 0.03741 0.0
H32 H 0.14615 0.31242 0.07058 0.0
H33 H 0.10231 0.32716 0.04209 0.0
H34 H 0.15151 0.32951 0.94659 0.0
H35 H 0.19615 0.31657 0.97494 0.0
H36 H 0.94529 0.55234 0.0324 0.0
H37 H 0.99437 0.54416 1.00792 0.0
H38 H 1.05475 0.60092 0.09966 0.0
H39 H 1.00503 0.60719 0.12482 0.0
Dy40 Dy 0.65026 0.67136 0.03524 0.0
Dy41 Dy 0.58011 0.63372 0.99385 0.0
C42 C 0.65668 0.67131 0.9544 0.0
O43 O 0.63301 0.73157 0.03586 0.0
O44 O 0.60089 0.71231 0.98756 0.0
O45 O 0.70726 0.70762 0.04114 0.0
O46 O 0.6736 0.6913 0.08498 0.0
O47 O 0.57333 0.64905 0.04953 0.0
O48 O 0.60717 0.61882 0.06638 0.0
O49 O 0.57921 0.56372 1.00681 0.0
O50 O 0.63592 0.59121 0.02649 0.0
O51 O 0.54019 0.58394 0.95916 0.0
O52 O 0.53069 0.63521 0.98796 0.0
C53 C 0.61553 0.74241 1.01285 0.0
O54 O 0.67221 0.67849 0.98373 0.0
O55 O 0.62193 0.65574 0.95185 0.0
C56 C 0.72736 0.68893 0.09014 0.0
C57 C 0.77554 0.65955 0.11332 0.0
C58 C 0.74562 0.62777 0.09416 0.0
C59 C 0.72169 0.64238 0.08266 0.0
C60 C 0.75577 0.71963 0.11096 0.0
C61 C 0.77968 0.70502 0.12258 0.0
C62 C 0.70589 0.70719 0.07384 0.0
C63 C 0.5844 0.63284 0.07441 0.0
C64 C 0.60461 0.55461 1.01679 0.0
C65 C 0.48329 0.5578 0.98214 0.0
C66 C 0.42004 0.49244 1.01391 0.0
C67 C 0.45248 0.49481 0.02276 0.0
C68 C 0.48394 0.52753 1.00713 0.0
C69 C 0.45088 0.55456 0.97254 0.0
C70 C 0.41943 0.52204 0.98828 0.0
C71 C 0.51668 0.5964 0.96917 0.0
H72 H 0.74186 0.59273 0.08629 0.0
H73 H 0.69976 0.61825 0.06659 0.0
H74 H 0.7603 0.7556 0.11708 0.0
H75 H 0.80219 0.73 0.13769 0.0
H76 H 0.45368 0.47258 0.04251 0.0
H77 H 0.5089 0.5302 1.01527 0.0
H78 H 0.45003 0.57803 0.95356 0.0
H79 H 0.39463 0.52032 0.98061 0.0
Dy80 Dy 0.49712 0.06965 0.02399 0.0
Dy81 Dy 0.57452 0.12869 0.05417 0.0
C82 C 0.50461 0.0885 0.1006 0.0
O83 O 0.51379 0.15148 1.0166 0.0
O84 O 0.5538 0.18122 0.05989 0.0
O85 O 0.44217 1.02475 0.03709 0.0
O86 O 0.45674 1.03665 0.98465 0.0
O87 O 0.57669 0.14984 0.99908 0.0
O88 O 0.53174 0.07849 0.98051 0.0
O89 O 0.57543 0.06425 0.03074 0.0
O90 O 0.51623 1.01445 0.03727 0.0
O91 O 0.61686 0.12922 0.08407 0.0
O92 O 0.62292 0.19519 0.06312 0.0
C93 C 0.53547 0.18872 0.0366 0.0
O94 O 0.49026 0.09554 0.07417 0.0
O95 O 0.53582 0.08998 0.09742 0.0
C96 C 0.407 0.95994 1.00022 0.0
C97 C 0.35878 0.85983 0.99137 0.0
C98 C 0.35582 0.8859 1.01906 0.0
C99 C 0.37941 0.9351 0.02331 0.0
C100 C 0.41008 0.93421 0.97231 0.0
C101 C 0.38615 0.88473 0.96789 0.0
C102 C 0.43144 1.01236 1.00618 0.0
C103 C 0.55825 0.12071 0.97399 0.0
C104 C 0.54894 1.02022 0.03296 0.0
C105 C 0.67532 0.18799 0.06879 0.0
C106 C 0.7479 0.22075 0.05413 0.0
C107 C 0.7267 0.23122 0.03266 0.0
C108 C 0.69075 0.21488 0.03983 0.0
C109 C 0.69616 0.17618 0.08966 0.0
C110 C 0.73207 0.1922 0.08232 0.0
C111 C 0.63845 0.17461 0.07878 0.0
H112 H 0.33474 0.86845 0.03729 0.0
H113 H 0.37598 0.95389 0.04485 0.0
H114 H 0.43092 0.95218 0.95396 0.0
H115 H 0.38932 0.86585 0.9463 0.0
H116 H 0.7381 0.25271 1.01055 0.0
H117 H 0.67533 0.2243 0.02309 0.0
H118 H 0.68488 0.15561 0.11216 0.0
H119 H 0.74781 0.18391 0.09948 0.0
Dy120 Dy 0.75259 0.79991 0.35174 0.0
Dy121 Dy 0.69026 0.83585 0.37297 0.0
C122 C 0.74078 0.82456 0.42777 0.0
O123 O 0.69754 0.731 0.35425 0.0
O124 O 0.66909 0.7609 0.38947 0.0
O125 O 0.80879 0.83958 0.36291 0.0
O126 O 0.78908 0.77174 0.3345 0.0
O127 O 0.68057 0.80454 0.31921 0.0
O128 O 0.72454 0.78506 0.30276 0.0
O129 O 0.74213 0.90175 0.37123 0.0
O130 O 0.7625 0.87018 0.33066 0.0
O131 O 0.66519 0.87609 0.35512 0.0
O132 O 0.64517 0.83471 0.40111 0.0
C133 C 0.66895 0.72559 0.37172 0.0
O134 O 0.74226 0.79301 0.4069 0.0
O135 O 0.72576 0.85089 0.41908 0.0
C136 C 0.85603 0.81954 0.34767 0.0
C137 C 0.93237 0.84934 0.34594 0.0
C138 C 0.91689 0.86366 0.37227 0.0
C139 C 0.87996 0.8496 0.37292 0.0
C140 C 0.87113 0.80422 0.32159 0.0
C141 C 0.90839 0.81906 0.32061 0.0
C142 C 0.81715 0.80985 0.34714 0.0
C143 C 0.69528 0.78782 0.29671 0.0
C144 C 0.76549 0.90717 0.34831 0.0
C145 C 0.61315 0.87754 0.37972 0.0
C146 C 0.55585 0.90076 0.37812 0.0
C147 C 0.57904 0.90992 0.35054 0.0
C148 C 0.60706 0.89859 0.35136 0.0
C149 C 0.59044 0.86885 0.40752 0.0
C150 C 0.56241 0.88037 0.40677 0.0
C151 C 0.64124 0.86176 0.37887 0.0
H152 H 0.93357 0.88721 0.39225 0.0
H153 H 0.87018 0.86306 0.39334 0.0
H154 H 0.8543 0.7818 0.30127 0.0
H155 H 0.91838 0.80647 0.29985 0.0
H156 H 0.57502 0.92464 0.3277 0.0
H157 H 0.62354 0.90538 0.32919 0.0
H158 H 0.59406 0.85258 0.42976 0.0
H159 H 0.54587 0.87323 0.42889 0.0
Dy160 Dy 0.2918 1.01408 0.34457 0.0
Dy161 Dy 0.25516 0.90582 0.33773 0.0
C162 C 0.26772 0.95332 0.41092 0.0
O163 O 0.33556 0.99056 0.34959 0.0
O164 O 0.30505 0.90817 0.35282 0.0
O165 O 0.33477 0.07312 0.37096 0.0
O166 O 0.30107 0.08651 0.33722 0.0
O167 O 0.29255 0.9346 0.29229 0.0
O168 O 0.30414 1.01218 0.29067 0.0
O169 O 0.21243 0.92185 0.35731 0.0
O170 O 0.23293 0.99289 0.33218 0.0
O171 O 0.20853 0.86212 0.30877 0.0
O172 O 0.23546 0.82877 0.33511 0.0
C173 C 0.33513 0.94859 0.35402 0.0
O174 O 0.26764 0.98872 0.39471 0.0
O175 O 0.26532 0.91557 0.39407 0.0
C176 C 0.32204 0.13412 0.38677 0.0
C177 C 0.31505 0.1949 0.43492 0.0
C178 C 0.28483 0.15321 0.423 0.0
C179 C 0.28834 0.12293 0.39925 0.0
C180 C 0.35243 0.17327 0.40045 0.0
C181 C 0.34901 0.20332 0.42456 0.0
C182 C 0.32591 0.10441 0.36028 0.0
C183 C 0.30761 0.97674 0.27754 0.0
C184 C 0.20553 0.95422 0.34474 0.0
C185 C 0.20888 0.79695 0.28113 0.0
C186 C 0.19768 0.73867 0.22336 0.0
C187 C 0.17848 0.76382 0.2279 0.0
C188 C 0.18373 0.79218 0.25672 0.0
C189 C 0.23073 0.77613 0.27495 0.0
C190 C 0.22527 0.7474 0.24632 0.0
C191 C 0.21133 0.82328 0.31273 0.0
H192 H 0.25821 0.14565 0.43005 0.0
H193 H 0.26462 0.09188 0.38968 0.0
H194 H 0.37873 0.1814 0.39175 0.0
H195 H 0.37281 0.2346 0.4337 0.0
H196 H 0.15734 0.75829 0.21066 0.0
H197 H 0.16694 0.8087 0.26063 0.0
H198 H 0.25082 0.77999 0.29295 0.0
H199 H 0.24058 0.72852 0.2441 0.0
Dy200 Dy 0.15731 0.38151 0.33736 0.0
Dy201 Dy 0.22697 0.48123 0.36728 0.0
C202 C 0.14859 0.42723 0.40772 0.0
O203 O 0.15382 0.44323 0.31619 0.0
O204 O 0.19025 0.50825 0.35052 0.0
O205 O 0.1105 0.34642 0.3066 0.0
O206 O 0.13475 0.30541 0.32598 0.0
O207 O 0.22943 0.48449 0.31056 0.0
O208 O 0.20381 0.40428 0.30323 0.0
O209 O 0.23436 0.41685 0.36581 0.0
O210 O 0.17916 0.36256 0.38152 0.0
O211 O 0.27403 0.55066 0.36072 0.0
O212 O 0.2685 0.51103 0.40574 0.0
C213 C 0.16653 0.48833 0.32605 0.0
O214 O 0.13334 0.39847 0.38161 0.0
O215 O 0.18361 0.45856 0.40868 0.0
C216 C 0.0728 0.26543 0.31687 0.0
C217 C 1.00148 0.19628 0.32555 0.0
C218 C 1.0182 0.23443 0.34895 0.0
C219 C 1.05375 0.26895 0.34459 0.0
C220 C 1.05666 0.22662 0.29423 0.0
C221 C 1.02123 0.19214 0.29856 0.0
C222 C 0.10821 0.30416 0.30929 0.0
C223 C 0.21807 0.44705 0.29008 0.0
C224 C 0.21353 0.38039 0.38422 0.0
C225 C 0.32819 0.55666 0.38367 0.0
C226 C 0.40196 0.57999 0.37842 0.0
C227 C 0.38277 0.58195 0.3503 0.0
C228 C 0.34667 0.57064 0.35288 0.0
C229 C 0.34713 0.55409 0.41166 0.0
C230 C 0.38322 0.56544 0.4091 0.0
C231 C 0.29016 0.54707 0.38732 0.0
H232 H 1.00351 0.23841 0.36992 0.0
H233 H 0.06603 0.2991 0.36216 0.0
H234 H 0.07118 0.22366 0.27271 0.0
H235 H 1.00916 0.16249 0.28059 0.0
H236 H 0.39587 0.59345 0.32626 0.0
H237 H 0.33338 0.57349 0.33068 0.0
H238 H 0.33406 0.54364 0.43581 0.0
H239 H 0.39638 0.56253 0.43137 0.0
Dy240 Dy 0.42593 0.07574 0.69594 0.0
Dy241 Dy 0.40593 0.16067 0.70263 0.0
C242 C 0.44492 0.13809 0.76174 0.0
O243 O 0.36586 1.03965 0.69783 0.0
O244 O 0.36347 0.09857 0.72948 0.0
O245 O 0.41637 1.00599 0.71242 0.0
O246 O 0.45901 1.04607 0.67748 0.0
O247 O 0.37481 0.11482 0.65733 0.0
O248 O 0.41072 0.08197 0.64369 0.0
O249 O 0.45358 0.18956 0.67011 0.0
O250 O 0.47767 0.14733 0.69404 0.0
O251 O 0.3911 0.21092 0.68171 0.0
O252 O 0.39894 0.21052 0.73535 0.0
C253 C 0.348 1.05454 0.71729 0.0
O254 O 0.42692 0.09403 0.75018 0.0
O255 O 0.44673 0.17341 0.74353 0.0
C256 C 0.47231 1.0115 0.72287 0.0
C257 C 0.53455 1.04912 0.76192 0.0
C258 C 0.5027 1.04307 0.77624 0.0
C259 C 0.47176 1.02441 0.75685 0.0
C260 C 0.50266 1.01088 0.71022 0.0
C261 C 0.53361 1.02946 0.72966 0.0
C262 C 0.44598 1.01138 0.6992 0.0
C263 C 0.385 0.09136 0.63588 0.0
C264 C 0.48158 0.1855 0.67776 0.0
C265 C 0.35457 0.22821 0.71788 0.0
C266 C 0.29109 0.22998 0.73372 0.0
C267 C 0.29009 0.19124 0.71504 0.0
C268 C 0.32161 0.19017 0.70738 0.0
C269 C 0.35563 0.2668 0.73651 0.0
C270 C 0.32416 0.26766 0.74445 0.0
C271 C 0.3879 0.22714 0.71118 0.0
H272 H 0.50266 1.05727 0.80118 0.0
H273 H 0.44857 1.02475 0.76751 0.0
H274 H 0.50367 1.00104 0.68416 0.0
H275 H 0.55779 1.03368 0.71785 0.0
H276 H 0.26492 0.16159 0.70669 0.0
H277 H 0.32024 0.15963 0.69344 0.0
H278 H 0.38084 0.29621 0.74503 0.0
H279 H 0.32573 0.29821 0.75853 0.0
Dy280 Dy 0.97445 0.34354 0.68621 0.0
Dy281 Dy 0.90139 0.30461 0.64971 0.0
C282 C 0.97397 0.34699 0.60656 0.0
O283 O 0.95719 0.40306 0.69372 0.0
O284 O 0.92226 0.38388 0.64732 0.0
O285 O 1.03035 0.36579 0.68472 0.0
O286 O 1.00631 0.37292 0.73125 0.0
O287 O 0.89843 0.32199 0.70589 0.0
O288 O 0.93358 0.29221 0.71982 0.0
O289 O 0.90099 0.23441 0.65795 0.0
O290 O 0.95828 0.26262 0.6763 0.0
O291 O 0.84691 0.24867 0.64494 0.0
O292 O 0.86466 0.31498 0.61823 0.0
C293 C 0.93815 0.41373 0.67242 0.0
O294 O 0.98864 0.37105 0.63425 0.0
O295 O 0.94035 0.31238 0.60717 0.0
C296 C 1.05423 0.35576 0.73437 0.0
C297 C 0.09579 0.31409 0.75511 0.0
C298 C 1.05865 0.28568 0.75132 0.0
C299 C 1.03803 0.30636 0.74086 0.0
C300 C 0.09073 0.38465 0.74016 0.0
C301 C 0.11137 0.36408 0.75043 0.0
C302 C 1.03486 0.37622 0.7168 0.0
C303 C 0.91123 0.3062 0.72964 0.0
C304 C 0.92662 0.22576 0.66755 0.0
C305 C 0.80923 0.28187 0.64564 0.0
C306 C 0.75509 0.27309 0.68962 0.0
C307 C 0.7907 0.30593 0.69704 0.0
C308 C 0.81761 0.31065 0.67499 0.0
C309 C 0.77357 0.25186 0.6369 0.0
C310 C 0.74656 0.24781 0.65865 0.0
C311 C 0.83734 0.27588 0.62874 0.0
H312 H 1.04573 0.24723 0.75516 0.0
H313 H 1.00981 0.2835 0.73627 0.0
H314 H 0.10366 0.42276 0.73488 0.0
H315 H 0.13988 0.38703 0.75256 0.0
H316 H 0.79782 0.32572 0.72075 0.0
H317 H 0.8451 0.33406 0.6821 0.0
H318 H 0.76671 0.22905 0.61456 0.0
H319 H 0.71924 0.22185 0.6526 0.0
Dy320 Dy 0.81686 0.73803 0.68376 0.0
Dy321 Dy 0.89781 0.80309 0.70601 0.0
C322 C 0.83438 0.75236 0.7607 0.0
O323 O 0.82961 0.82048 0.68352 0.0
O324 O 0.88493 0.8623 0.70869 0.0
O325 O 0.76118 0.70588 0.69755 0.0
O326 O 0.77563 0.69737 0.64682 0.0
O327 O 0.88814 0.82221 0.65283 0.0
O328 O 0.848 0.7473 0.63776 0.0
O329 O 0.89084 0.72778 0.70754 0.0
O330 O 0.83667 0.6821 0.68251 0.0
O331 O 0.94953 0.824 0.68612 0.0
O332 O 0.94486 0.84562 0.73799 0.0
C333 C 0.85695 0.86215 0.69553 0.0
O334 O 0.81865 0.72005 0.73705 0.0
O335 O 0.86469 0.79159 0.75411 0.0
C336 C 0.72595 0.62995 0.67017 0.0
C337 C 0.68024 0.52851 0.67094 0.0
C338 C 0.7077 0.55147 0.6949 0.0
C339 C 0.73038 0.60151 0.69442 0.0
C340 C 0.6986 0.60725 0.64632 0.0
C341 C 0.67607 0.55725 0.64665 0.0
C342 C 0.75011 0.68282 0.66888 0.0
C343 C 0.86873 0.79129 0.62906 0.0
C344 C 0.86688 0.68637 0.69456 0.0
C345 C 1.00514 0.8673 0.71624 0.0
C346 C 0.07984 0.9045 0.72105 0.0
C347 C 1.06032 0.87264 0.69474 0.0
C348 C 1.02352 0.85434 0.69236 0.0
C349 C 1.0245 0.89935 0.7425 0.0
C350 C 1.06153 0.91795 0.74481 0.0
C351 C 0.96585 0.84556 0.71394 0.0
H352 H 0.71208 0.53067 0.71374 0.0
H353 H 0.75151 0.61793 0.71292 0.0
H354 H 0.69466 0.62826 0.62731 0.0
H355 H 0.65503 0.54119 0.62806 0.0
H356 H 0.07354 0.86208 0.67572 0.0
H357 H 1.0094 0.82955 0.67186 0.0
H358 H 1.01102 0.90979 0.76134 0.0
H359 H 0.07574 0.94219 0.76552 0.0
H360 H 0.37004 0.51382 0.03852 0.0
H361 H 0.39537 0.39778 0.02926 0.0
H362 H 0.31098 0.45813 0.0581 0.0
H363 H 0.33609 0.34148 0.05015 0.0
H364 H 0.21739 0.2739 1.0079 0.0
H365 H 0.28044 0.31038 1.02057 0.0
H366 H 0.26904 0.40169 0.09616 0.0
H367 H 0.20659 0.36772 0.08184 0.0
C368 C 0.3631 0.47639 0.04138 0.0
C369 C 0.38679 0.45979 0.03146 0.0
C370 C 0.3294 0.44445 0.05325 0.0
C371 C 0.31859 0.39506 0.0555 0.0
C372 C 0.34349 0.37919 0.04836 0.0
C373 C 0.37738 0.41137 0.03645 0.0
C374 C 0.22813 0.30083 0.02788 0.0
C375 C 0.20736 0.31953 0.04259 0.0
C376 C 0.26431 0.3214 0.03552 0.0
C377 C 0.28004 0.36047 0.05838 0.0
C378 C 0.25785 0.37278 0.07755 0.0
C379 C 0.22181 0.35282 0.06951 0.0
H380 H 0.61381 1.023 0.04217 0.0
H381 H 0.50435 0.92091 1.02056 0.0
H382 H 0.62969 0.95866 0.03889 0.0
H383 H 0.52041 0.85611 1.01674 0.0
H384 H 0.56802 0.75945 0.97675 0.0
H385 H 0.55152 0.82275 0.98288 0.0
H386 H 0.62666 0.88647 0.06421 0.0
H387 H 0.64292 0.82192 0.05839 0.0
C388 C 0.59285 0.98677 0.03672 0.0
C389 C 0.5575 0.9782 0.03165 0.0
C390 C 0.60211 0.94932 0.03501 0.0
C391 C 0.57671 0.90105 0.02745 0.0
C392 C 0.54125 0.89234 0.02234 0.0
C393 C 0.53182 0.92983 0.02473 0.0
C394 C 0.58139 0.78684 0.99602 0.0
C395 C 0.60737 0.78468 1.0168 0.0
C396 C 0.57148 0.82346 0.99975 0.0
C397 C 0.58731 0.8608 0.02417 0.0
C398 C 0.61366 0.85914 0.04483 0.0
C399 C 0.62315 0.82173 0.0415 0.0
H400 H 0.32586 0.80996 0.93331 0.0
H401 H 0.33222 0.79033 0.03959 0.0
H402 H 0.27913 0.72624 0.92742 0.0
H403 H 0.28494 0.70718 0.03389 0.0
H404 H 0.2103 0.54871 1.01209 0.0
H405 H 0.26585 0.62575 1.01127 0.0
H406 H 0.21712 0.68212 0.94366 0.0
H407 H 0.16232 0.60574 0.94433 0.0
C408 C 0.31768 0.78769 0.95536 0.0
C409 C 0.33269 0.8073 0.98699 0.0
C410 C 0.2906 0.73969 0.95205 0.0
C411 C 0.27791 0.70975 0.98022 0.0
C412 C 0.29407 0.72879 1.01156 0.0
C413 C 0.32097 0.77682 1.0149 0.0
C414 C 0.21187 0.57719 0.99639 0.0
C415 C 0.18183 0.57101 0.9783 0.0
C416 C 0.24356 0.62158 0.9962 0.0
C417 C 0.24606 0.66053 0.97756 0.0
C418 C 0.21653 0.65311 0.95806 0.0
C419 C 0.18493 0.60918 0.95855 0.0
H420 H 0.51261 0.2322 0.98741 0.0
H421 H 0.577 0.26776 0.07687 0.0
H422 H 0.52963 0.31787 0.98167 0.0
H423 H 0.59362 0.35197 0.07142 0.0
H424 H 0.64391 0.51207 0.04298 0.0
H425 H 0.62712 0.42649 0.04635 0.0
H426 H 0.5269 0.38818 0.99824 0.0
H427 H 0.54385 0.47316 0.99462 0.0
C428 C 0.53002 0.25776 1.00615 0.0
C429 C 0.54288 0.2413 0.03279 0.0
C430 C 0.54003 0.30768 1.00288 0.0
C431 C 0.56368 0.34391 0.02588 0.0
C432 C 0.57611 0.32696 0.0525 0.0
C433 C 0.56604 0.2775 0.05583 0.0
C434 C 0.61833 0.48561 0.03294 0.0
C435 C 0.59563 0.50116 1.01847 0.0
C436 C 0.60833 0.43567 0.03509 0.0
C437 C 0.57512 0.39837 0.02272 0.0
C438 C 0.55277 0.41428 1.00789 0.0
C439 C 0.56264 0.46397 1.00596 0.0
H440 H 0.79396 0.31378 0.03924 0.0
H441 H 0.78989 0.17726 0.05693 0.0
H442 H 0.85843 0.35161 0.03304 0.0
H443 H 0.85488 0.21549 0.05079 0.0
H444 H 0.96845 0.30504 0.99756 0.0
H445 H 0.90362 0.25958 1.0046 0.0
H446 H 0.90845 0.36837 0.07447 0.0
H447 H 0.97263 0.41341 0.06786 0.0
C448 C 0.80682 0.29173 0.04141 0.0
C449 C 0.78687 0.24254 0.04852 0.0
C450 C 0.84376 0.31348 0.03817 0.0
C451 C 0.86163 0.28652 0.04169 0.0
C452 C 0.84171 0.23704 0.04791 0.0
C453 C 0.80465 0.2153 0.0516 0.0
C454 C 0.95571 0.31883 1.01481 0.0
C455 C 0.97577 0.36305 0.03194 0.0
C456 C 0.91865 0.2928 1.01883 0.0
C457 C 0.90105 0.31086 0.03973 0.0
C458 C 0.92127 0.354 0.0578 0.0
C459 C 0.95815 0.37965 0.0541 0.0
H460 H 0.89915 0.52182 0.07357 0.0
H461 H 0.97703 0.65574 0.11981 0.0
H462 H 0.85197 0.5399 0.0899 0.0
H463 H 0.92966 0.67233 0.1379 0.0
H464 H 0.84674 0.71867 0.10677 0.0
H465 H 0.89365 0.69688 0.1072 0.0
H466 H 0.8172 0.55141 0.13351 0.0
H467 H 0.76979 0.57341 0.13279 0.0
C468 C 0.90616 0.55478 0.08764 0.0
C469 C 0.94195 0.58771 0.09483 0.0
C470 C 0.87903 0.56478 0.0975 0.0
C471 C 0.88708 0.6078 0.11497 0.0
C472 C 0.92263 0.63924 0.12401 0.0
C473 C 0.94977 0.62943 0.11393 0.0
C474 C 0.84 0.6824 0.11368 0.0
C475 C 0.80449 0.64771 0.1196 0.0
C476 C 0.86699 0.66984 0.11393 0.0
C477 C 0.85918 0.62228 0.1202 0.0
C478 C 0.82397 0.58817 0.12805 0.0
C479 C 0.79686 0.60075 0.12771 0.0
H480 H 0.97927 0.86487 0.39906 0.0
H481 H 0.97946 0.87318 0.29115 0.0
H482 H 1.04321 0.89266 0.39853 0.0
H483 H 1.04383 0.90106 0.29063 0.0
H484 H 0.16958 0.99007 0.30427 0.0
H485 H 0.10552 0.96618 0.30365 0.0
H486 H 0.08801 0.87023 0.38542 0.0
H487 H 0.15106 0.89349 0.38575 0.0
C488 C 0.99271 0.87271 0.37502 0.0
C489 C 0.97292 0.8662 0.34517 0.0
C490 C 1.02995 0.88855 0.37469 0.0
C491 C 1.04994 0.89961 0.34452 0.0
C492 C 1.0303 0.89363 0.31461 0.0
C493 C 0.9928 0.87694 0.3149 0.0
C494 C 0.15221 0.9643 0.32241 0.0
C495 C 0.16657 0.94439 0.34525 0.0
C496 C 0.11499 0.95001 0.32187 0.0
C497 C 0.09039 0.91584 0.34456 0.0
C498 C 0.10515 0.89687 0.36765 0.0
C499 C 0.14192 0.91038 0.36777 0.0
H500 H 0.18328 0.29007 0.40941 0.0
H501 H 0.27817 0.42857 0.41451 0.0
H502 H 0.21265 0.25561 0.44238 0.0
H503 H 0.30707 0.39506 0.44931 0.0
H504 H 0.35311 0.29097 0.42363 0.0
H505 H 0.33032 0.34635 0.42927 0.0
H506 H 0.24246 0.24374 0.48859 0.0
H507 H 0.26574 0.18726 0.48277 0.0
C508 C 0.21011 0.31336 0.41845 0.0
C509 C 0.22901 0.36132 0.40844 0.0
C510 C 0.22686 0.29391 0.43788 0.0
C511 C 0.2626 0.32241 0.44806 0.0
C512 C 0.2799 0.37183 0.44116 0.0
C513 C 0.26345 0.39094 0.42106 0.0
C514 C 0.33 0.28078 0.43945 0.0
C515 C 0.3103 0.23375 0.45141 0.0
C516 C 0.31674 0.31294 0.44274 0.0
C517 C 0.28354 0.29861 0.45806 0.0
C518 C 0.26738 0.25501 0.47544 0.0
C519 C 0.28072 0.22269 0.47213 0.0
H520 H 0.96581 0.15175 0.38239 0.0
H521 H 0.9515 0.16153 0.27597 0.0
H522 H 0.90436 0.08729 0.38634 0.0
H523 H 0.89016 0.09691 0.2799 0.0
H524 H 0.8133 0.93321 0.29715 0.0
H525 H 0.86738 1.00961 0.29103 0.0
H526 H 0.83995 0.06605 0.37937 0.0
H527 H 0.7857 0.98924 0.38577 0.0
C528 C 0.9493 0.14073 0.36003 0.0
C529 C 0.96345 0.16095 0.3288 0.0
C530 C 0.91417 0.10403 0.36229 0.0
C531 C 0.89275 0.08709 0.33335 0.0
C532 C 0.90637 0.10899 0.30246 0.0
C533 C 0.94141 0.14569 0.30021 0.0
C534 C 0.81847 0.96211 0.31497 0.0
C535 C 0.79546 0.9552 0.34207 0.0
C536 C 0.84931 1.00594 0.31133 0.0
C537 C 0.85775 1.04352 0.33482 0.0
C538 C 0.83404 1.03738 0.36111 0.0
C539 C 0.803 0.99357 0.36464 0.0
H540 H 0.23274 0.70039 0.18533 0.0
H541 H 0.12729 0.67257 0.21389 0.0
H542 H 0.21683 0.61804 0.19862 0.0
H543 H 0.11141 0.59068 0.22641 0.0
H544 H 0.11317 0.46181 0.27993 0.0
H545 H 0.11408 0.50729 0.2305 0.0
H546 H 0.21136 0.62828 0.26666 0.0
H547 H 0.21063 0.58347 0.31575 0.0
C548 C 0.20537 0.6759 0.19196 0.0
C549 C 0.18258 0.69393 0.20241 0.0
C550 C 0.19628 0.62863 0.19964 0.0
C551 C 0.16389 0.59977 0.216 0.0
C552 C 0.13719 0.6132 0.21522 0.0
C553 C 0.14649 0.6606 0.20787 0.0
C554 C 0.1344 0.4985 0.27756 0.0
C555 C 0.16174 0.51929 0.30189 0.0
C556 C 0.13518 0.52393 0.24901 0.0
C557 C 0.16356 0.57019 0.24417 0.0
C558 C 0.18992 0.59173 0.26919 0.0
C559 C 0.18894 0.56666 0.29783 0.0
H560 H 0.45518 0.62603 0.42604 0.0
H561 H 0.43914 0.56665 0.32522 0.0
H562 H 0.51806 0.64978 0.42237 0.0
H563 H 0.50241 0.59037 0.32155 0.0
H564 H 0.62649 0.69404 0.31575 0.0
H565 H 0.56144 0.65479 0.31638 0.0
H566 H 0.56226 0.62682 0.42203 0.0
H567 H 0.62715 0.66765 0.42128 0.0
C568 C 0.46476 0.6172 0.40316 0.0
C569 C 0.44126 0.59396 0.37604 0.0
C570 C 0.50127 0.63089 0.40103 0.0
C571 C 0.5161 0.62189 0.37171 0.0
C572 C 0.49263 0.59861 0.34453 0.0
C573 C 0.456 0.58494 0.34665 0.0
C574 C 0.61274 0.67727 0.33869 0.0
C575 C 0.63246 0.68315 0.36827 0.0
C576 C 0.57511 0.65524 0.33926 0.0
C577 C 0.55584 0.63828 0.3695 0.0
C578 C 0.5756 0.64041 0.39835 0.0
C579 C 0.61308 0.66272 0.39777 0.0
H580 H 0.341 0.86731 0.36285 0.0
H581 H 0.40631 1.02123 0.35583 0.0
H582 H 0.39357 0.85841 0.36901 0.0
H583 H 0.4598 1.01238 0.36308 0.0
H584 H 0.55045 0.97321 0.34435 0.0
H585 H 0.49918 0.9865 0.33919 0.0
H586 H 0.43904 0.86702 0.40446 0.0
H587 H 0.48939 0.85205 0.40806 0.0
C588 C 0.36663 0.89964 0.36292 0.0
C589 C 0.36887 0.94517 0.35889 0.0
C590 C 0.39717 0.89444 0.36679 0.0
C591 C 0.4316 0.93453 0.36699 0.0
C592 C 0.43404 0.98032 0.36287 0.0
C593 C 0.4032 0.98555 0.35892 0.0
C594 C 0.52624 0.94927 0.35739 0.0
C595 C 0.52465 0.9111 0.37648 0.0
C596 C 0.4967 0.95744 0.35477 0.0
C597 C 0.46425 0.92781 0.37113 0.0
C598 C 0.46297 0.89036 0.3908 0.0
C599 C 0.4924 0.88211 0.39334 0.0
H600 H 0.7579 0.2418 0.75181 0.0
H601 H 0.69016 0.2689 0.68597 0.0
H602 H 0.70718 0.19569 0.78863 0.0
H603 H 0.63967 0.22368 0.72295 0.0
H604 H 0.55114 0.13908 0.78393 0.0
H605 H 0.61037 0.20848 0.7821 0.0
H606 H 0.6557 0.11396 0.76695 0.0
H607 H 0.59637 1.04437 0.7686 0.0
C608 C 0.7325 0.23972 0.74608 0.0
C609 C 0.72765 0.25841 0.716 0.0
C610 C 0.70357 0.21332 0.7671 0.0
C611 C 0.66959 0.20604 0.75858 0.0
C612 C 0.66567 0.22918 0.73036 0.0
C613 C 0.69443 0.25477 0.70904 0.0
C614 C 0.57384 0.13285 0.78209 0.0
C615 C 0.56917 0.08635 0.77555 0.0
C616 C 0.60776 0.17275 0.78087 0.0
C617 C 0.63739 0.16655 0.77362 0.0
C618 C 0.63325 0.11977 0.77251 0.0
C619 C 0.59928 0.07986 0.77331 0.0
H620 H 0.95575 0.48285 0.72532 0.0
H621 H 0.90093 0.44114 0.6301 0.0
H622 H 0.93783 0.54563 0.73204 0.0
H623 H 0.88357 0.50311 0.63648 0.0
H624 H 0.82977 0.59399 0.66472 0.0
H625 H 0.8469 0.53054 0.66106 0.0
H626 H 0.94269 0.62065 0.71724 0.0
H627 H 0.92531 0.68329 0.72123 0.0
C628 C 0.94029 0.48711 0.70557 0.0
C629 C 0.93031 0.45609 0.67701 0.0
C630 C 0.9298 0.5235 0.70939 0.0
C631 C 0.90858 0.53039 0.68499 0.0
C632 C 0.89906 0.49947 0.65646 0.0
C633 C 0.90959 0.4636 0.65261 0.0
C634 C 0.85439 0.60036 0.67652 0.0
C635 C 0.87581 0.64475 0.69331 0.0
C636 C 0.8646 0.5637 0.6742 0.0
C637 C 0.89672 0.56936 0.68864 0.0
C638 C 0.91769 0.61351 0.70592 0.0
C639 C 0.9076 0.65011 0.70808 0.0
H640 H 0.65065 0.46967 0.72537 0.0
H641 H 0.6547 0.46548 0.61703 0.0
H642 H 0.60798 0.38374 0.72528 0.0
H643 H 0.61246 0.37971 0.6169 0.0
H644 H 0.49969 0.25103 0.62865 0.0
H645 H 0.55079 0.33088 0.62666 0.0
H646 H 0.59458 0.30073 0.71473 0.0
H647 H 0.54233 0.22014 0.71699 0.0
C648 C 0.64292 0.45036 0.70152 0.0
C649 C 0.65592 0.47501 0.67118 0.0
C650 C 0.61844 0.40083 0.70147 0.0
C651 C 0.6063 0.37439 0.67107 0.0
C652 C 0.62043 0.39877 0.64083 0.0
C653 C 0.64473 0.4482 0.64089 0.0
C654 C 0.52058 0.2609 0.64719 0.0
C655 C 0.51687 0.22899 0.6729 0.0
C656 C 0.55012 0.30692 0.64602 0.0
C657 C 0.57704 0.32289 0.67063 0.0
C658 C 0.57424 0.29009 0.69555 0.0
C659 C 0.54456 0.24355 0.69658 0.0
H660 H 0.82866 0.90128 0.64796 0.0
H661 H 0.89618 0.94148 0.73545 0.0
H662 H 0.84609 0.98666 0.63984 0.0
H663 H 0.91294 1.02529 0.72794 0.0
H664 H 0.96517 0.18292 0.69508 0.0
H665 H 0.94673 0.09718 0.70103 0.0
H666 H 0.84679 1.05966 0.65255 0.0
H667 H 0.86551 0.14464 0.64608 0.0
C668 C 0.84658 0.92777 0.66596 0.0
C669 C 0.86066 0.91289 0.69249 0.0
C670 C 0.85697 0.97756 0.66124 0.0
C671 C 0.88195 1.015 0.68277 0.0
C672 C 0.8947 0.99938 0.70986 0.0
C673 C 0.88445 0.95019 0.71449 0.0
C674 C 0.93938 0.15656 0.68536 0.0
C675 C 0.91728 0.17232 0.66994 0.0
C676 C 0.92835 0.10655 0.6891 0.0
C677 C 0.89461 0.06943 0.67761 0.0
C678 C 0.87296 0.08554 0.66168 0.0
C679 C 0.88389 0.13528 0.65806 0.0
H680 H 0.11736 0.85556 0.71089 0.0
H681 H 0.13135 0.99671 0.73603 0.0
H682 H 0.18176 0.88736 0.71235 0.0
H683 H 0.19568 1.02867 0.73716 0.0
H684 H 0.30731 0.06676 0.76517 0.0
H685 H 0.24275 1.02783 0.76825 0.0
H686 H 0.23519 0.93882 0.68177 0.0
H687 H 0.3002 0.97728 0.67923 0.0
C688 C 0.1342 0.89347 0.71659 0.0
C689 C 0.11913 0.9236 0.72331 0.0
C690 C 0.17117 0.91171 0.71738 0.0
C691 C 0.19408 0.96061 0.72489 0.0
C692 C 0.17893 0.99063 0.73189 0.0
C693 C 0.14197 0.97234 0.73122 0.0
C694 C 0.29192 1.03835 0.74709 0.0
C695 C 0.30895 1.02517 0.72191 0.0
C696 C 0.25481 1.01631 0.74866 0.0
C697 C 0.23359 0.98066 0.72495 0.0
C698 C 0.25061 0.96591 0.70062 0.0
C699 C 0.28791 0.98788 0.69916 0.0
H700 H 0.27034 0.25165 0.79372 0.0
H701 H 0.23748 0.21381 0.69029 0.0
H702 H 0.21848 0.26253 0.80458 0.0
H703 H 0.18633 0.226 0.70065 0.0
H704 H 0.08779 0.22979 0.72725 0.0
H705 H 0.13058 0.20017 0.72718 0.0
H706 H 0.20047 0.32006 0.79124 0.0
H707 H 0.1566 0.34782 0.79316 0.0
C708 C 0.2519 0.24554 0.77336 0.0
C709 C 0.25799 0.2322 0.74112 0.0
C710 C 0.22225 0.25185 0.77953 0.0
C711 C 0.19826 0.24546 0.75348 0.0
C712 C 0.20381 0.23045 0.72151 0.0
C713 C 0.23324 0.22366 0.71546 0.0
C714 C 0.11171 0.24897 0.74228 0.0
C715 C 0.1189 0.2916 0.7599 0.0
C716 C 0.13656 0.23236 0.74178 0.0
C717 C 0.16934 0.2582 0.75862 0.0
C718 C 0.1755 0.29905 0.77804 0.0
C719 C 0.1505 0.31538 0.77881 0.0
H720 H 0.17954 0.37493 0.24432 0.0
H721 H 0.23449 0.52973 0.2553 0.0
H722 H 0.15616 0.38113 0.19042 0.0
H723 H 0.2121 0.53616 0.2004 0.0
H724 H 0.13773 0.40176 0.08265 0.0
H725 H 0.16706 0.40068 0.13422 0.0
H726 H 0.16068 0.52527 0.17116 0.0
H727 H 0.13241 0.52747 0.11841 0.0
C728 C 0.18747 0.41049 0.23489 0.0
C729 C 0.20924 0.45179 0.25439 0.0
C730 C 0.17398 0.41413 0.20368 0.0
C731 C 0.18198 0.45925 0.19056 0.0
C732 C 0.2047 0.5007 0.20962 0.0
C733 C 0.21806 0.49703 0.24104 0.0
C734 C 0.14253 0.42908 0.10169 0.0
C735 C 0.13224 0.46444 0.09627 0.0
C736 C 0.15931 0.4283 0.1316 0.0
C737 C 0.16606 0.46248 0.15757 0.0
C738 C 0.1564 0.49855 0.15188 0.0
C739 C 0.13992 0.4997 0.1216 0.0
H740 H 0.6379 0.79332 0.26985 0.0
H741 H 0.7089 0.73508 0.2491 0.0
H742 H 0.60477 0.75485 0.21804 0.0
H743 H 0.6758 0.69677 0.19793 0.0
H744 H 0.59051 0.59034 0.1303 0.0
H745 H 0.61489 0.62893 0.18447 0.0
H746 H 0.61251 0.75674 0.15292 0.0
H747 H 0.58808 0.71785 0.09816 0.0
C748 C 0.64667 0.77267 0.25425 0.0
C749 C 0.67629 0.76755 0.26392 0.0
C750 C 0.62762 0.75064 0.22449 0.0
C751 C 0.63727 0.72215 0.20392 0.0
C752 C 0.66716 0.71772 0.21337 0.0
C753 C 0.68642 0.74017 0.24272 0.0
C754 C 0.59398 0.62609 0.13525 0.0
C755 C 0.58708 0.65075 0.10982 0.0
C756 C 0.6085 0.64852 0.1662 0.0
C757 C 0.61648 0.69639 0.1729 0.0
C758 C 0.60678 0.71987 0.14862 0.0
C759 C 0.59236 0.69736 0.11732 0.0
H760 H 0.48086 0.14067 0.13702 0.0
H761 H 0.47481 1.00131 0.13223 0.0
H762 H 0.43429 0.1125 0.17939 0.0
H763 H 0.42627 0.97128 0.17316 0.0
H764 H 0.35013 0.93524 0.26379 0.0
H765 H 0.40018 0.96255 0.22485 0.0
H766 H 0.37536 0.07072 0.18863 0.0
H767 H 0.32706 1.04509 0.22896 0.0
C768 C 0.46995 0.10404 0.14561 0.0
C769 C 0.48243 0.07379 0.13185 0.0
C770 C 0.44237 0.08723 0.16952 0.0
C771 C 0.42512 1.03877 0.17983 0.0
C772 C 0.43853 1.00885 0.16664 0.0
C773 C 0.46677 1.02614 0.14315 0.0
C774 C 0.35506 0.96439 0.2471 0.0
C775 C 0.33415 0.98763 0.24955 0.0
C776 C 0.38409 0.98037 0.22459 0.0
C777 C 0.39303 1.01984 0.20332 0.0
C778 C 0.37085 1.04148 0.20497 0.0
C779 C 0.3424 1.02614 0.22789 0.0
H780 H 0.5517 0.0724 0.91538 0.0
H781 H 0.56152 0.20572 0.95509 0.0
H782 H 0.5292 0.08492 0.86251 0.0
H783 H 0.53827 0.21803 0.90196 0.0
H784 H 0.50565 0.21959 0.78493 0.0
H785 H 0.54261 0.22498 0.83395 0.0
H786 H 0.46754 0.07851 0.85837 0.0
H787 H 0.43107 0.07328 0.81056 0.0
C788 C 0.55047 0.10545 0.9123 0.0
C789 C 0.55858 0.1381 0.93945 0.0
C790 C 0.53711 0.11235 0.88211 0.0
C791 C 0.53109 0.15189 0.87825 0.0
C792 C 0.54255 0.18719 0.9041 0.0
C793 C 0.5562 0.18035 0.93447 0.0
C794 C 0.49681 0.18898 0.80122 0.0
C795 C 0.4654 0.1459 0.79362 0.0
C796 C 0.51808 0.19196 0.82914 0.0
C797 C 0.50844 0.15178 0.84967 0.0
C798 C 0.47629 0.10976 0.84271 0.0
C799 C 0.45519 0.10689 0.81527 0.0
H800 H 0.98515 0.45771 0.9285 0.0
H801 H 1.05045 0.39833 0.88966 0.0
H802 H 0.94544 0.42375 0.87925 0.0
H803 H 1.01099 0.36441 0.84169 0.0
H804 H 0.91981 0.39294 0.75577 0.0
H805 H 0.94883 0.42988 0.80975 0.0
H806 H 0.94517 0.29668 0.83711 0.0
H807 H 0.91639 0.26011 0.78379 0.0
C808 C 0.99127 0.43788 0.90952 0.0
C809 C 1.02119 0.43088 0.91338 0.0
C810 C 0.96848 0.41841 0.8813 0.0
C811 C 0.97472 0.39073 0.8567 0.0
C812 C 1.00499 0.38482 0.86034 0.0
C813 C 1.02785 0.40469 0.88796 0.0
C814 C 0.92369 0.37093 0.77398 0.0
C815 C 0.91559 0.32337 0.7654 0.0
C816 C 0.94066 0.39228 0.80483 0.0
C817 C 0.94999 0.36653 0.82753 0.0
C818 C 0.9389 0.31781 0.82007 0.0
C819 C 0.92195 0.29661 0.7896 0.0
H820 H 0.80092 0.66982 0.79625 0.0
H821 H 0.81847 0.81546 0.79635 0.0
H822 H 0.75742 0.6502 0.84144 0.0
H823 H 0.77392 0.79549 0.84138 0.0
H824 H 0.65918 0.71688 0.89417 0.0
H825 H 0.70452 0.73989 0.84944 0.0
H826 H 0.7543 0.67068 0.90256 0.0
H827 H 0.71001 0.64891 0.94701 0.0
C828 C 0.79615 0.6981 0.80653 0.0
C829 C 0.81417 0.74465 0.79312 0.0
C830 C 0.77084 0.68669 0.83234 0.0
C831 C 0.76165 0.721 0.84518 0.0
C832 C 0.77995 0.76789 0.83209 0.0
C833 C 0.80606 0.77966 0.80667 0.0
C834 C 0.6795 0.70603 0.896 0.0
C835 C 0.68052 0.68051 0.92423 0.0
C836 C 0.70585 0.71978 0.87056 0.0
C837 C 0.73345 0.70743 0.87223 0.0
C838 C 0.73364 0.68082 0.90007 0.0
C839 C 0.70803 0.66818 0.92565 0.0
H840 H 0.79367 0.90354 0.46135 0.0
H841 H 0.72468 0.75088 0.46961 0.0
H842 H 0.82929 0.90167 0.50905 0.0
H843 H 0.75895 0.74887 0.5174 0.0
H844 H 0.84516 0.73909 0.57109 0.0
H845 H 0.81458 0.75228 0.52466 0.0
H846 H 0.83614 0.88915 0.56885 0.0
H847 H 0.8683 0.87635 0.61507 0.0
C848 C 0.78528 0.86997 0.47418 0.0
C849 C 0.75602 0.82744 0.4619 0.0
C850 C 0.80592 0.86872 0.50138 0.0
C851 C 0.79781 0.82485 0.51682 0.0
C852 C 0.76702 0.78315 0.50572 0.0
C853 C 0.7468 0.78438 0.4786 0.0
C854 C 0.84427 0.77265 0.57054 0.0
C855 C 0.85919 0.80651 0.59703 0.0
C856 C 0.82606 0.77993 0.54408 0.0
C857 C 0.82154 0.8211 0.54326 0.0
C858 C 0.83868 0.85679 0.56853 0.0
C859 C 0.85735 0.8496 0.59503 0.0
H860 H 0.29892 0.91485 0.4522 0.0
H861 H 0.25608 1.01323 0.45263 0.0
H862 H 0.3241 0.94463 0.5083 0.0
H863 H 0.28205 1.04409 0.5075 0.0
H864 H 0.319 0.07802 0.61641 0.0
H865 H 0.2852 1.03664 0.56578 0.0
H866 H 0.37231 1.01432 0.5321 0.0
H867 H 0.40535 1.05422 0.58281 0.0
C868 C 0.29404 0.94183 0.46457 0.0
C869 C 0.27537 0.96143 0.44777 0.0
C870 C 0.30905 0.95969 0.49656 0.0
C871 C 0.30581 0.99763 0.51258 0.0
C872 C 0.28513 1.01482 0.49649 0.0
C873 C 0.27018 0.99702 0.46474 0.0
C874 C 0.33101 0.0646 0.59806 0.0
C875 C 0.36508 0.06986 0.60381 0.0
C876 C 0.31157 1.04066 0.56892 0.0
C877 C 0.32568 1.02146 0.54457 0.0
C878 C 0.35993 1.02731 0.55035 0.0
C879 C 0.3792 1.05091 0.57944 0.0
H880 H 0.96408 0.29714 0.54521 0.0
H881 H 1.03859 0.42692 0.59769 0.0
H882 H 1.00627 0.31761 0.49841 0.0
H883 H 0.07993 0.44785 0.55124 0.0
H884 H 0.16414 0.45354 0.47571 0.0
H885 H 0.12192 0.43392 0.52242 0.0
H886 H 1.03416 0.36628 0.45246 0.0
H887 H 0.07585 0.38471 0.40658 0.0
C888 C 0.98912 0.33032 0.54669 0.0
C889 C 0.99747 0.36007 0.57563 0.0
C890 C 1.01359 0.34232 0.51969 0.0
C891 C 1.04727 0.38461 0.52057 0.0
C892 C 1.05505 0.41454 0.54935 0.0
C893 C 1.03082 0.40254 0.57617 0.0
C894 C 0.13587 0.43497 0.47028 0.0
C895 C 0.1239 0.42089 0.43698 0.0
C896 C 0.11136 0.42352 0.4972 0.0
C897 C 0.07396 0.39776 0.49182 0.0
C898 C 0.06231 0.38492 0.45835 0.0
C899 C 0.08662 0.39611 0.43168 0.0
loop_
_geom_bond_atom_site_label_1
_geom_bond_atom_site_label_2
_geom_bond_distance
_geom_bond_site_symmetry_2
_ccdc_geom_bond_type
Dy0 O3 2.307 1_456 S
Dy0 O5 2.395 1_556 S
Dy0 O6 2.379 . S
Dy0 O8 2.339 . S
Dy0 O10 2.298 . S
Dy0 O14 2.275 1_556 S
Dy0 C22 2.738 . S
Dy1 O4 2.298 . S
Dy1 O7 2.275 1_554 S
Dy1 O9 2.307 1_655 S
Dy1 O11 2.395 1_554 S
Dy1 O12 2.379 . S
Dy1 O15 2.333 1_655 S
Dy1 C31 2.738 . S
C2 O14 1.254 . S
C2 O15 1.272 . S
O3 Dy0 2.307 1_654 S
O3 C13 1.266 . S
O4 Dy1 2.298 . S
O4 C13 1.236 . S
O5 Dy0 2.395 1_554 S
O5 C22 1.244 1_554 S
O6 Dy0 2.379 . S
O6 C22 1.261 . S
O7 Dy1 2.275 1_556 S
O7 C23 1.254 . S
O8 Dy0 2.339 . S
O8 C23 1.257 1_455 S
O9 Dy1 2.307 1_455 S
O9 C24 1.266 . S
O10 Dy0 2.298 . S
O10 C24 1.236 1_556 S
O11 Dy1 2.395 1_556 S
O11 C31 1.255 1_556 S
O12 Dy1 2.379 . S
O12 C31 1.249 . S
C13 O3 1.266 . S
C13 O4 1.236 . S
O14 Dy0 2.275 1_554 S
O14 C2 1.254 . S
O15 Dy1 2.333 1_455 S
O15 C2 1.272 . S
C16 C19 1.341 1_556 S
C16 C20 1.331 . S
C16 C22 1.516 . S
C17 C18 1.304 . S
C17 C21 1.323 1_554 S
C18 C17 1.304 . S
C18 C19 1.371 . S
C18 H32 0.930 . S
C19 C16 1.341 1_554 S
C19 C18 1.371 . S
C19 H33 0.931 . S
C20 C16 1.331 . S
C20 C21 1.433 . S
C20 H34 0.931 . S
C21 C17 1.323 1_556 S
C21 C20 1.433 . S
C21 H35 0.933 . S
C22 Dy0 2.738 . S
C22 O5 1.244 1_556 S
C22 O6 1.261 . S
C22 C16 1.516 . S
C23 O7 1.254 . S
C23 O8 1.257 1_655 S
C24 O9 1.266 . S
C24 O10 1.236 1_554 S
C25 C28 1.344 1_554 S
C25 C29 1.328 . S
C25 C31 1.516 . S
C26 C27 1.304 1_554 S
C26 C30 1.323 . S
C27 C26 1.304 1_556 S
C27 C28 1.371 . S
C27 H36 0.930 . S
C28 C25 1.344 1_556 S
C28 C27 1.371 . S
C28 H37 0.931 . S
C29 C25 1.328 . S
C29 C30 1.433 . S
C29 H38 0.931 . S
C30 C26 1.323 . S
C30 C29 1.433 . S
C30 H39 0.933 . S
C31 Dy1 2.738 . S
C31 O11 1.255 1_554 S
C31 O12 1.249 . S
C31 C25 1.516 . S
H32 C18 0.930 . S
H33 C19 0.931 . S
H34 C20 0.931 . S
H35 C21 0.933 . S
H36 C27 0.930 . S
H37 C28 0.931 . S
H38 C29 0.931 . S
H39 C30 0.933 . S
Dy40 O43 2.307 . S
Dy40 O45 2.395 1_554 S
Dy40 O46 2.379 . S
Dy40 O48 2.339 . S
Dy40 O50 2.298 . S
Dy40 O54 2.275 1_554 S
Dy40 C62 2.738 . S
Dy41 O44 2.298 . S
Dy41 O47 2.275 1_556 S
Dy41 O49 2.307 . S
Dy41 O51 2.395 1_556 S
Dy41 O52 2.379 . S
Dy41 O55 2.339 . S
Dy41 C71 2.738 . S
C42 O54 1.254 . S
C42 O55 1.257 . S
O43 Dy40 2.307 . S
O43 C53 1.266 1_554 S
O44 Dy41 2.298 . S
O44 C53 1.236 . S
O45 Dy40 2.395 1_556 S
O45 C62 1.255 1_556 S
O46 Dy40 2.379 . S
O46 C62 1.249 . S
O47 Dy41 2.275 1_554 S
O47 C63 1.254 . S
O48 Dy40 2.339 . S
O48 C63 1.257 . S
O49 Dy41 2.307 . S
O49 C64 1.266 1_556 S
O50 Dy40 2.298 . S
O50 C64 1.236 . S
O51 Dy41 2.395 1_554 S
O51 C71 1.255 1_554 S
O52 Dy41 2.379 . S
O52 C71 1.249 . S
C53 O43 1.266 1_556 S
C53 O44 1.236 . S
O54 Dy40 2.275 1_556 S
O54 C42 1.254 . S
O55 Dy41 2.339 . S
O55 C42 1.257 . S
C56 C59 1.344 1_554 S
C56 C60 1.328 . S
C56 C62 1.516 . S
C57 C58 1.304 1_554 S
C57 C61 1.323 . S
C58 C57 1.304 1_556 S
C58 C59 1.371 . S
C58 H72 0.930 . S
C59 C56 1.344 1_556 S
C59 C58 1.371 . S
C59 H73 0.931 . S
C60 C56 1.328 . S
C60 C61 1.433 . S
C60 H74 0.931 . S
C61 C57 1.323 . S
C61 C60 1.433 . S
C61 H75 0.933 . S
C62 Dy40 2.738 . S
C62 O45 1.255 1_554 S
C62 O46 1.249 . S
C62 C56 1.516 . S
C63 O47 1.254 . S
C63 O48 1.257 . S
C64 O49 1.266 1_554 S
C64 O50 1.236 . S
C65 C68 1.344 1_556 S
C65 C69 1.328 . S
C65 C71 1.516 . S
C66 C67 1.304 1_556 S
C66 C70 1.323 . S
C67 C66 1.304 1_554 S
C67 C68 1.371 . S
C67 H76 0.930 . S
C68 C65 1.344 1_554 S
C68 C67 1.371 . S
C68 H77 0.931 . S
C69 C65 1.328 . S
C69 C70 1.433 . S
C69 H78 0.931 . S
C70 C66 1.323 . S
C70 C69 1.433 . S
C70 H79 0.933 . S
C71 Dy41 2.738 . S
C71 O51 1.255 1_556 S
C71 O52 1.249 . S
C71 C65 1.516 . S
H72 C58 0.930 . S
H73 C59 0.931 . S
H74 C60 0.931 . S
H75 C61 0.933 . S
H76 C67 0.930 . S
H77 C68 0.931 . S
H78 C69 0.931 . S
H79 C70 0.933 . S
Dy80 O83 2.307 1_566 S
Dy80 O85 2.395 1_556 S
Dy80 O86 2.379 . S
Dy80 O88 2.339 . S
Dy80 O90 2.298 . S
Dy80 O94 2.275 1_556 S
Dy80 C102 2.738 . S
Dy81 O84 2.298 . S
Dy81 O87 2.275 1_554 S
Dy81 O89 2.307 1_545 S
Dy81 O91 2.395 1_554 S
Dy81 O92 2.379 . S
Dy81 O95 2.339 . S
Dy81 C111 2.738 . S
C82 O94 1.254 . S
C82 O95 1.257 1_565 S
O83 Dy80 2.307 1_544 S
O83 C93 1.266 . S
O84 Dy81 2.298 . S
O84 C93 1.236 . S
O85 Dy80 2.395 1_554 S
O85 C102 1.255 1_554 S
O86 Dy80 2.379 . S
O86 C102 1.249 . S
O87 Dy81 2.275 1_556 S
O87 C103 1.254 . S
O88 Dy80 2.339 . S
O88 C103 1.257 1_565 S
O89 Dy81 2.307 1_565 S
O89 C104 1.266 . S
O90 Dy80 2.298 . S
O90 C104 1.236 1_556 S
O91 Dy81 2.395 1_556 S
O91 C111 1.255 1_556 S
O92 Dy81 2.379 . S
O92 C111 1.249 . S
C93 O83 1.266 . S
C93 O84 1.236 . S
O94 Dy80 2.275 1_554 S
O94 C82 1.254 . S
O95 Dy81 2.339 . S
O95 C82 1.257 1_545 S
C96 C99 1.325 1_556 S
C96 C100 1.346 . S
C96 C102 1.517 . S
C97 C98 1.304 . S
C97 C101 1.323 1_554 S
C98 C97 1.304 . S
C98 C99 1.371 . S
C98 H112 0.930 . S
C99 C96 1.325 1_554 S
C99 C98 1.371 . S
C99 H113 0.931 . S
C100 C96 1.346 . S
C100 C101 1.433 . S
C100 H114 0.931 . S
C101 C97 1.323 1_556 S
C101 C100 1.433 . S
C101 H115 0.933 . S
C102 Dy80 2.738 . S
C102 O85 1.255 1_556 S
C102 O86 1.249 . S
C102 C96 1.517 . S
C103 O87 1.254 . S
C103 O88 1.257 1_545 S
C104 O89 1.266 . S
C104 O90 1.236 1_554 S
C105 C108 1.344 1_554 S
C105 C109 1.328 . S
C105 C111 1.516 . S
C106 C107 1.304 1_554 S
C106 C110 1.323 . S
C107 C106 1.304 1_556 S
C107 C108 1.371 . S
C107 H116 0.930 . S
C108 C105 1.344 1_556 S
C108 C107 1.371 . S
C108 H117 0.931 . S
C109 C105 1.328 . S
C109 C110 1.433 . S
C109 H118 0.931 . S
C110 C106 1.323 . S
C110 C109 1.433 . S
C110 H119 0.933 . S
C111 Dy81 2.738 . S
C111 O91 1.255 1_554 S
C111 O92 1.249 . S
C111 C105 1.516 . S
H112 C98 0.930 . S
H113 C99 0.931 . S
H114 C100 0.931 . S
H115 C101 0.933 . S
H116 C107 0.930 . S
H117 C108 0.931 . S
H118 C109 0.931 . S
H119 C110 0.933 . S
Dy120 O123 2.307 . S
Dy120 O125 2.395 . S
Dy120 O126 2.379 . S
Dy120 O128 2.339 . S
Dy120 O130 2.298 . S
Dy120 O134 2.275 . S
Dy120 C142 2.738 . S
Dy121 O124 2.298 . S
Dy121 O127 2.275 . S
Dy121 O129 2.307 . S
Dy121 O131 2.395 . S
Dy121 O132 2.379 . S
Dy121 O135 2.339 . S
Dy121 C151 2.738 . S
C122 O134 1.254 . S
C122 O135 1.257 . S
O123 Dy120 2.307 . S
O123 C133 1.266 . S
O124 Dy121 2.298 . S
O124 C133 1.236 . S
O125 Dy120 2.395 . S
O125 C142 1.255 . S
O126 Dy120 2.379 . S
O126 C142 1.249 . S
O127 Dy121 2.275 . S
O127 C143 1.254 . S
O128 Dy120 2.339 . S
O128 C143 1.257 . S
O129 Dy121 2.307 . S
O129 C144 1.266 . S
O130 Dy120 2.298 . S
O130 C144 1.236 . S
O131 Dy121 2.395 . S
O131 C151 1.255 . S
O132 Dy121 2.379 . S
O132 C151 1.249 . S
C133 O123 1.266 . S
C133 O124 1.236 . S
O134 Dy120 2.275 . S
O134 C122 1.254 . S
O135 Dy121 2.339 . S
O135 C122 1.257 . S
C136 C139 1.344 . S
C136 C140 1.328 . S
C136 C142 1.516 . S
C137 C138 1.304 . S
C137 C141 1.323 . S
C138 C137 1.304 . S
C138 C139 1.371 . S
C138 H152 0.930 . S
C139 C136 1.344 . S
C139 C138 1.371 . S
C139 H153 0.931 . S
C140 C136 1.328 . S
C140 C141 1.433 . S
C140 H154 0.931 . S
C141 C137 1.323 . S
C141 C140 1.433 . S
C141 H155 0.933 . S
C142 Dy120 2.738 . S
C142 O125 1.255 . S
C142 O126 1.249 . S
C142 C136 1.516 . S
C143 O127 1.254 . S
C143 O128 1.257 . S
C144 O129 1.266 . S
C144 O130 1.236 . S
C145 C148 1.344 . S
C145 C149 1.328 . S
C145 C151 1.516 . S
C146 C147 1.304 . S
C146 C150 1.323 . S
C147 C146 1.304 . S
C147 C148 1.371 . S
C147 H156 0.930 . S
C148 C145 1.344 . S
C148 C147 1.371 . S
C148 H157 0.931 . S
C149 C145 1.328 . S
C149 C150 1.433 . S
C149 H158 0.931 . S
C150 C146 1.323 . S
C150 C149 1.433 . S
C150 H159 0.933 . S
C151 Dy121 2.738 . S
C151 O131 1.255 . S
C151 O132 1.249 . S
C151 C145 1.516 . S
H152 C138 0.930 . S
H153 C139 0.931 . S
H154 C140 0.931 . S
H155 C141 0.933 . S
H156 C147 0.930 . S
H157 C148 0.931 . S
H158 C149 0.931 . S
H159 C150 0.933 . S
Dy160 O163 2.307 . S
Dy160 O165 2.395 . S
Dy160 O166 2.379 1_565 S
Dy160 O168 2.339 . S
Dy160 O170 2.298 . S
Dy160 O174 2.275 . S
Dy160 C182 2.738 1_565 S
Dy161 O164 2.298 . S
Dy161 O167 2.275 . S
Dy161 O169 2.307 . S
Dy161 O171 2.395 . S
Dy161 O172 2.379 . S
Dy161 O175 2.339 . S
Dy161 C191 2.738 . S
C162 O174 1.254 . S
C162 O175 1.257 . S
O163 Dy160 2.307 . S
O163 C173 1.266 . S
O164 Dy161 2.298 . S
O164 C173 1.236 . S
O165 Dy160 2.395 . S
O165 C182 1.255 1_565 S
O166 Dy160 2.379 1_545 S
O166 C182 1.249 . S
O167 Dy161 2.275 . S
O167 C183 1.254 . S
O168 Dy160 2.339 . S
O168 C183 1.257 . S
O169 Dy161 2.307 . S
O169 C184 1.266 . S
O170 Dy160 2.298 . S
O170 C184 1.236 . S
O171 Dy161 2.395 . S
O171 C191 1.255 . S
O172 Dy161 2.379 . S
O172 C191 1.249 . S
C173 O163 1.266 . S
C173 O164 1.236 . S
O174 Dy160 2.275 . S
O174 C162 1.254 . S
O175 Dy161 2.339 . S
O175 C162 1.257 . S
C176 C179 1.344 . S
C176 C180 1.328 . S
C176 C182 1.516 . S
C177 C178 1.304 . S
C177 C181 1.323 . S
C178 C177 1.304 . S
C178 C179 1.371 . S
C178 H192 0.930 . S
C179 C176 1.344 . S
C179 C178 1.371 . S
C179 H193 0.931 . S
C180 C176 1.328 . S
C180 C181 1.433 . S
C180 H194 0.931 . S
C181 C177 1.323 . S
C181 C180 1.433 . S
C181 H195 0.933 . S
C182 Dy160 2.738 1_545 S
C182 O165 1.255 1_545 S
C182 O166 1.249 . S
C182 C176 1.516 . S
C183 O167 1.254 . S
C183 O168 1.257 . S
C184 O169 1.266 . S
C184 O170 1.236 . S
C185 C188 1.344 . S
C185 C189 1.328 . S
C185 C191 1.516 . S
C186 C187 1.304 . S
C186 C190 1.323 . S
C187 C186 1.304 . S
C187 C188 1.371 . S
C187 H196 0.930 . S
C188 C185 1.344 . S
C188 C187 1.371 . S
C188 H197 0.931 . S
C189 C185 1.328 . S
C189 C190 1.433 . S
C189 H198 0.931 . S
C190 C186 1.323 . S
C190 C189 1.433 . S
C190 H199 0.933 . S
C191 Dy161 2.738 . S
C191 O171 1.255 . S
C191 O172 1.249 . S
C191 C185 1.516 . S
H192 C178 0.930 . S
H193 C179 0.931 . S
H194 C180 0.931 . S
H195 C181 0.933 . S
H196 C187 0.930 . S
H197 C188 0.931 . S
H198 C189 0.931 . S
H199 C190 0.933 . S
Dy200 O203 2.307 . S
Dy200 O205 2.395 . S
Dy200 O206 2.379 . S
Dy200 O208 2.339 . S
Dy200 O210 2.298 . S
Dy200 O214 2.275 . S
Dy200 C222 2.738 . S
Dy201 O204 2.298 . S
Dy201 O207 2.275 . S
Dy201 O209 2.307 . S
Dy201 O211 2.395 . S
Dy201 O212 2.379 . S
Dy201 O215 2.339 . S
Dy201 C231 2.738 . S
C202 O214 1.254 . S
C202 O215 1.257 . S
O203 Dy200 2.307 . S
O203 C213 1.266 . S
O204 Dy201 2.298 . S
O204 C213 1.236 . S
O205 Dy200 2.395 . S
O205 C222 1.255 . S
O206 Dy200 2.379 . S
O206 C222 1.249 . S
O207 Dy201 2.275 . S
O207 C223 1.254 . S
O208 Dy200 2.339 . S
O208 C223 1.257 . S
O209 Dy201 2.307 . S
O209 C224 1.266 . S
O210 Dy200 2.298 . S
O210 C224 1.236 . S
O211 Dy201 2.395 . S
O211 C231 1.255 . S
O212 Dy201 2.379 . S
O212 C231 1.249 . S
C213 O203 1.266 . S
C213 O204 1.236 . S
O214 Dy200 2.275 . S
O214 C202 1.254 . S
O215 Dy201 2.339 . S
O215 C202 1.257 . S
C216 C219 1.344 . S
C216 C220 1.328 . S
C216 C222 1.516 1_655 S
C217 C218 1.304 . S
C217 C221 1.323 . S
C218 C217 1.304 . S
C218 C219 1.371 . S
C218 H232 0.930 . S
C219 C216 1.344 . S
C219 C218 1.371 . S
C219 H233 0.931 . S
C220 C216 1.328 . S
C220 C221 1.433 . S
C220 H234 0.931 . S
C221 C217 1.323 . S
C221 C220 1.433 . S
C221 H235 0.933 . S
C222 Dy200 2.738 . S
C222 O205 1.255 . S
C222 O206 1.249 . S
C222 C216 1.516 1_455 S
C223 O207 1.254 . S
C223 O208 1.257 . S
C224 O209 1.266 . S
C224 O210 1.236 . S
C225 C228 1.344 . S
C225 C229 1.328 . S
C225 C231 1.516 . S
C226 C227 1.304 . S
C226 C230 1.323 . S
C227 C226 1.304 . S
C227 C228 1.371 . S
C227 H236 0.930 . S
C228 C225 1.344 . S
C228 C227 1.371 . S
C228 H237 0.931 . S
C229 C225 1.328 . S
C229 C230 1.433 . S
C229 H238 0.931 . S
C230 C226 1.323 . S
C230 C229 1.433 . S
C230 H239 0.933 . S
C231 Dy201 2.738 . S
C231 O211 1.255 . S
C231 O212 1.249 . S
C231 C225 1.516 . S
H232 C218 0.930 . S
H233 C219 0.931 . S
H234 C220 0.931 . S
H235 C221 0.933 . S
H236 C227 0.930 . S
H237 C228 0.931 . S
H238 C229 0.931 . S
H239 C230 0.933 . S
Dy240 O243 2.307 . S
Dy240 O245 2.395 . S
Dy240 O246 2.379 . S
Dy240 O248 2.339 . S
Dy240 O250 2.298 . S
Dy240 O254 2.275 . S
Dy240 C262 2.738 . S
Dy241 O244 2.298 . S
Dy241 O247 2.275 . S
Dy241 O249 2.307 . S
Dy241 O251 2.395 . S
Dy241 O252 2.379 . S
Dy241 O255 2.339 . S
Dy241 C271 2.738 . S
C242 O254 1.254 . S
C242 O255 1.257 . S
O243 Dy240 2.307 . S
O243 C253 1.266 . S
O244 Dy241 2.298 . S
O244 C253 1.236 . S
O245 Dy240 2.395 . S
O245 C262 1.255 . S
O246 Dy240 2.379 . S
O246 C262 1.249 . S
O247 Dy241 2.275 . S
O247 C263 1.254 . S
O248 Dy240 2.339 . S
O248 C263 1.257 . S
O249 Dy241 2.307 . S
O249 C264 1.266 . S
O250 Dy240 2.298 . S
O250 C264 1.236 . S
O251 Dy241 2.395 . S
O251 C271 1.255 . S
O252 Dy241 2.379 . S
O252 C271 1.249 . S
C253 O243 1.266 . S
C253 O244 1.236 . S
O254 Dy240 2.275 . S
O254 C242 1.254 . S
O255 Dy241 2.339 . S
O255 C242 1.257 . S
C256 C259 1.344 . S
C256 C260 1.328 . S
C256 C262 1.516 . S
C257 C258 1.304 . S
C257 C261 1.323 . S
C258 C257 1.304 . S
C258 C259 1.371 . S
C258 H272 0.930 . S
C259 C256 1.344 . S
C259 C258 1.371 . S
C259 H273 0.931 . S
C260 C256 1.328 . S
C260 C261 1.433 . S
C260 H274 0.931 . S
C261 C257 1.323 . S
C261 C260 1.433 . S
C261 H275 0.933 . S
C262 Dy240 2.738 . S
C262 O245 1.255 . S
C262 O246 1.249 . S
C262 C256 1.516 . S
C263 O247 1.254 . S
C263 O248 1.257 . S
C264 O249 1.266 . S
C264 O250 1.236 . S
C265 C268 1.344 . S
C265 C269 1.328 . S
C265 C271 1.516 . S
C266 C267 1.304 . S
C266 C270 1.323 . S
C267 C266 1.304 . S
C267 C268 1.371 . S
C267 H276 0.930 . S
C268 C265 1.344 . S
C268 C267 1.371 . S
C268 H277 0.931 . S
C269 C265 1.328 . S
C269 C270 1.433 . S
C269 H278 0.931 . S
C270 C266 1.323 . S
C270 C269 1.433 . S
C270 H279 0.933 . S
C271 Dy241 2.738 . S
C271 O251 1.255 . S
C271 O252 1.249 . S
C271 C265 1.516 . S
H272 C258 0.930 . S
H273 C259 0.931 . S
H274 C260 0.931 . S
H275 C261 0.933 . S
H276 C267 0.930 . S
H277 C268 0.931 . S
H278 C269 0.931 . S
H279 C270 0.933 . S
Dy280 O283 2.307 . S
Dy280 O285 2.395 . S
Dy280 O286 2.379 . S
Dy280 O288 2.339 . S
Dy280 O290 2.298 . S
Dy280 O294 2.275 . S
Dy280 C302 2.738 . S
Dy281 O284 2.298 . S
Dy281 O287 2.275 . S
Dy281 O289 2.307 . S
Dy281 O291 2.395 . S
Dy281 O292 2.379 . S
Dy281 O295 2.339 . S
Dy281 C311 2.738 . S
C282 O294 1.254 . S
C282 O295 1.257 . S
O283 Dy280 2.307 . S
O283 C293 1.266 . S
O284 Dy281 2.298 . S
O284 C293 1.236 . S
O285 Dy280 2.395 . S
O285 C302 1.255 . S
O286 Dy280 2.379 . S
O286 C302 1.249 . S
O287 Dy281 2.275 . S
O287 C303 1.254 . S
O288 Dy280 2.339 . S
O288 C303 1.257 . S
O289 Dy281 2.307 . S
O289 C304 1.266 . S
O290 Dy280 2.298 . S
O290 C304 1.236 . S
O291 Dy281 2.395 . S
O291 C311 1.255 . S
O292 Dy281 2.379 . S
O292 C311 1.249 . S
C293 O283 1.266 . S
C293 O284 1.236 . S
O294 Dy280 2.275 . S
O294 C282 1.254 . S
O295 Dy281 2.339 . S
O295 C282 1.257 . S
C296 C299 1.344 . S
C296 C300 1.328 . S
C296 C302 1.516 1_455 S
C297 C298 1.304 . S
C297 C301 1.323 . S
C298 C297 1.304 . S
C298 C299 1.371 . S
C298 H312 0.930 . S
C299 C296 1.344 . S
C299 C298 1.371 . S
C299 H313 0.931 . S
C300 C296 1.328 . S
C300 C301 1.433 . S
C300 H314 0.931 . S
C301 C297 1.323 . S
C301 C300 1.433 . S
C301 H315 0.933 . S
C302 Dy280 2.738 . S
C302 O285 1.255 . S
C302 O286 1.249 . S
C302 C296 1.516 1_655 S
C303 O287 1.254 . S
C303 O288 1.257 . S
C304 O289 1.266 . S
C304 O290 1.236 . S
C305 C308 1.344 . S
C305 C309 1.328 . S
C305 C311 1.516 . S
C306 C307 1.304 . S
C306 C310 1.323 . S
C307 C306 1.304 . S
C307 C308 1.371 . S
C307 H316 0.930 . S
C308 C305 1.344 . S
C308 C307 1.371 . S
C308 H317 0.931 . S
C309 C305 1.328 . S
C309 C310 1.433 . S
C309 H318 0.931 . S
C310 C306 1.323 . S
C310 C309 1.433 . S
C310 H319 0.933 . S
C311 Dy281 2.738 . S
C311 O291 1.255 . S
C311 O292 1.249 . S
C311 C305 1.516 . S
H312 C298 0.930 . S
H313 C299 0.931 . S
H314 C300 0.931 . S
H315 C301 0.933 . S
H316 C307 0.930 . S
H317 C308 0.931 . S
H318 C309 0.931 . S
H319 C310 0.933 . S
Dy320 O323 2.307 . S
Dy320 O325 2.395 . S
Dy320 O326 2.379 . S
Dy320 O328 2.339 . S
Dy320 O330 2.298 . S
Dy320 O334 2.275 . S
Dy320 C342 2.738 . S
Dy321 O324 2.298 . S
Dy321 O327 2.275 . S
Dy321 O329 2.307 . S
Dy321 O331 2.395 . S
Dy321 O332 2.379 . S
Dy321 O335 2.339 . S
Dy321 C351 2.738 . S
C322 O334 1.254 . S
C322 O335 1.257 . S
O323 Dy320 2.307 . S
O323 C333 1.266 . S
O324 Dy321 2.298 . S
O324 C333 1.236 . S
O325 Dy320 2.395 . S
O325 C342 1.255 . S
O326 Dy320 2.379 . S
O326 C342 1.249 . S
O327 Dy321 2.275 . S
O327 C343 1.254 . S
O328 Dy320 2.339 . S
O328 C343 1.257 . S
O329 Dy321 2.307 . S
O329 C344 1.266 . S
O330 Dy320 2.298 . S
O330 C344 1.236 . S
O331 Dy321 2.395 . S
O331 C351 1.255 . S
O332 Dy321 2.379 . S
O332 C351 1.249 . S
C333 O323 1.266 . S
C333 O324 1.236 . S
O334 Dy320 2.275 . S
O334 C322 1.254 . S
O335 Dy321 2.339 . S
O335 C322 1.257 . S
C336 C339 1.344 . S
C336 C340 1.328 . S
C336 C342 1.516 . S
C337 C338 1.304 . S
C337 C341 1.323 . S
C338 C337 1.304 . S
C338 C339 1.371 . S
C338 H352 0.930 . S
C339 C336 1.344 . S
C339 C338 1.371 . S
C339 H353 0.931 . S
C340 C336 1.328 . S
C340 C341 1.433 . S
C340 H354 0.931 . S
C341 C337 1.323 . S
C341 C340 1.433 . S
C341 H355 0.933 . S
C342 Dy320 2.738 . S
C342 O325 1.255 . S
C342 O326 1.249 . S
C342 C336 1.516 . S
C343 O327 1.254 . S
C343 O328 1.257 . S
C344 O329 1.266 . S
C344 O330 1.236 . S
C345 C348 1.344 . S
C345 C349 1.328 . S
C345 C351 1.516 . S
C346 C347 1.290 1_455 S
C346 C350 1.325 1_455 S
C347 C346 1.290 1_655 S
C347 C348 1.371 . S
C347 H356 0.930 . S
C348 C345 1.344 . S
C348 C347 1.371 . S
C348 H357 0.931 . S
C349 C345 1.328 . S
C349 C350 1.433 . S
C349 H358 0.931 . S
C350 C346 1.325 1_655 S
C350 C349 1.433 . S
C350 H359 0.933 1_655 S
C351 Dy321 2.738 . S
C351 O331 1.255 . S
C351 O332 1.249 . S
C351 C345 1.516 . S
H352 C338 0.930 . S
H353 C339 0.931 . S
H354 C340 0.931 . S
H355 C341 0.933 . S
H356 C347 0.930 . S
H357 C348 0.931 . S
H358 C349 0.931 . S
H359 C350 0.933 1_455 S
H360 C368 0.948 1_554 S
H361 C373 0.950 . S
H362 C370 0.942 1_554 S
H363 C372 0.950 . S
H364 C374 0.950 . S
H365 C376 0.950 . S
H366 C378 0.950 . S
H367 C379 0.950 . S
C368 H360 0.948 1_556 S
C368 C369 1.386 . S
C368 C370 1.395 . S
C369 C368 1.386 . S
C369 C373 1.393 . S
C370 H362 0.942 1_556 S
C370 C368 1.395 . S
C370 C371 1.405 . S
C371 C370 1.405 . S
C371 C372 1.398 . S
C371 C377 1.491 . S
C372 H363 0.950 . S
C372 C371 1.398 . S
C372 C373 1.391 . S
C373 H361 0.950 . S
C373 C369 1.393 . S
C373 C372 1.391 . S
C374 H364 0.950 . S
C374 C375 1.386 1_556 S
C374 C376 1.391 . S
C375 C374 1.386 1_554 S
C375 C379 1.393 . S
C376 H365 0.950 . S
C376 C374 1.391 . S
C376 C377 1.400 . S
C377 C371 1.491 . S
C377 C376 1.400 . S
C377 C378 1.398 1_556 S
C378 H366 0.950 . S
C378 C377 1.398 1_554 S
C378 C379 1.391 . S
C379 H367 0.950 . S
C379 C375 1.393 . S
C379 C378 1.391 . S
H380 C388 0.950 . S
H381 C393 0.950 . S
H382 C390 0.950 . S
H383 C392 0.952 . S
H384 C394 0.950 . S
H385 C396 0.950 . S
H386 C398 0.950 . S
H387 C399 0.950 . S
C388 H380 0.950 . S
C388 C389 1.386 . S
C388 C390 1.391 . S
C389 C388 1.386 . S
C389 C393 1.393 1_554 S
C390 H382 0.950 . S
C390 C388 1.391 . S
C390 C391 1.400 . S
C391 C390 1.400 . S
C391 C392 1.397 1_554 S
C391 C397 1.491 . S
C392 H383 0.952 . S
C392 C391 1.397 1_556 S
C392 C393 1.391 . S
C393 H381 0.950 . S
C393 C389 1.393 1_556 S
C393 C392 1.391 . S
C394 H384 0.950 . S
C394 C395 1.386 . S
C394 C396 1.391 . S
C395 C394 1.386 . S
C395 C399 1.393 1_556 S
C396 H385 0.950 . S
C396 C394 1.391 . S
C396 C397 1.400 1_556 S
C397 C391 1.491 . S
C397 C396 1.400 1_554 S
C397 C398 1.398 . S
C398 H386 0.950 . S
C398 C397 1.398 . S
C398 C399 1.391 . S
C399 H387 0.950 . S
C399 C395 1.393 1_554 S
C399 C398 1.391 . S
H400 C408 0.950 . S
H401 C413 0.950 . S
H402 C410 0.950 . S
H403 C412 0.950 . S
H404 C414 0.950 . S
H405 C416 0.950 . S
H406 C418 0.950 . S
H407 C419 0.950 . S
C408 H400 0.950 . S
C408 C409 1.386 1_554 S
C408 C410 1.391 . S
C409 C408 1.386 1_556 S
C409 C413 1.393 . S
C410 H402 0.950 . S
C410 C408 1.391 . S
C410 C411 1.400 . S
C411 C410 1.400 . S
C411 C412 1.398 1_554 S
C411 C417 1.491 . S
C412 H403 0.950 . S
C412 C411 1.398 1_556 S
C412 C413 1.391 . S
C413 H401 0.950 . S
C413 C409 1.393 . S
C413 C412 1.391 . S
C414 H404 0.950 . S
C414 C415 1.386 1_556 S
C414 C416 1.391 . S
C415 C414 1.386 1_554 S
C415 C419 1.393 . S
C416 H405 0.950 . S
C416 C414 1.391 . S
C416 C417 1.400 1_556 S
C417 C411 1.491 . S
C417 C416 1.400 1_554 S
C417 C418 1.398 . S
C418 H406 0.950 . S
C418 C417 1.398 . S
C418 C419 1.391 . S
C419 H407 0.950 . S
C419 C415 1.393 . S
C419 C418 1.391 . S
H420 C428 0.950 . S
H421 C433 0.950 . S
H422 C430 0.950 . S
H423 C432 0.950 . S
H424 C434 0.950 . S
H425 C436 0.950 . S
H426 C438 0.950 . S
H427 C439 0.950 . S
C428 H420 0.950 . S
C428 C429 1.386 1_556 S
C428 C430 1.391 . S
C429 C428 1.386 1_554 S
C429 C433 1.393 . S
C430 H422 0.950 . S
C430 C428 1.391 . S
C430 C431 1.400 1_556 S
C431 C430 1.400 1_554 S
C431 C432 1.398 . S
C431 C437 1.491 . S
C432 H423 0.950 . S
C432 C431 1.398 . S
C432 C433 1.391 . S
C433 H421 0.950 . S
C433 C429 1.393 . S
C433 C432 1.391 . S
C434 H424 0.950 . S
C434 C435 1.386 . S
C434 C436 1.391 . S
C435 C434 1.386 . S
C435 C439 1.393 1_554 S
C436 H425 0.950 . S
C436 C434 1.391 . S
C436 C437 1.400 . S
C437 C431 1.491 . S
C437 C436 1.400 . S
C437 C438 1.398 1_554 S
C438 H426 0.950 . S
C438 C437 1.398 1_556 S
C438 C439 1.391 . S
C439 H427 0.950 . S
C439 C435 1.393 1_556 S
C439 C438 1.391 . S
H440 C448 0.950 . S
H441 C453 0.950 . S
H442 C450 0.950 . S
H443 C452 0.950 . S
H444 C454 0.950 . S
H445 C456 0.950 . S
H446 C458 0.950 . S
H447 C459 0.950 . S
C448 H440 0.950 . S
C448 C449 1.386 . S
C448 C450 1.391 . S
C449 C448 1.386 . S
C449 C453 1.393 . S
C450 H442 0.950 . S
C450 C448 1.391 . S
C450 C451 1.400 . S
C451 C450 1.400 . S
C451 C452 1.398 . S
C451 C457 1.491 . S
C452 H443 0.950 . S
C452 C451 1.398 . S
C452 C453 1.391 . S
C453 H441 0.950 . S
C453 C449 1.393 . S
C453 C452 1.391 . S
C454 H444 0.950 . S
C454 C455 1.386 . S
C454 C456 1.391 . S
C455 C454 1.386 . S
C455 C459 1.393 . S
C456 H445 0.950 . S
C456 C454 1.391 . S
C456 C457 1.400 . S
C457 C451 1.491 . S
C457 C456 1.400 . S
C457 C458 1.398 . S
C458 H446 0.950 . S
C458 C457 1.398 . S
C458 C459 1.391 . S
C459 H447 0.950 . S
C459 C455 1.393 . S
C459 C458 1.391 . S
H460 C468 0.950 1_556 S
H461 C473 0.950 . S
H462 C470 0.950 1_556 S
H463 C472 0.950 . S
H464 C474 0.950 . S
H465 C476 0.950 . S
H466 C478 0.950 . S
H467 C479 0.950 . S
C468 H460 0.950 1_554 S
C468 C469 1.386 . S
C468 C470 1.391 . S
C469 C468 1.386 . S
C469 C473 1.393 . S
C470 H462 0.950 1_554 S
C470 C468 1.391 . S
C470 C471 1.400 . S
C471 C470 1.400 . S
C471 C472 1.398 . S
C471 C477 1.491 . S
C472 H463 0.950 . S
C472 C471 1.398 . S
C472 C473 1.391 . S
C473 H461 0.950 . S
C473 C469 1.393 . S
C473 C472 1.391 . S
C474 H464 0.950 . S
C474 C475 1.386 . S
C474 C476 1.391 . S
C475 C474 1.386 . S
C475 C479 1.393 1_554 S
C476 H465 0.950 . S
C476 C474 1.391 . S
C476 C477 1.400 . S
C477 C471 1.491 . S
C477 C476 1.400 . S
C477 C478 1.398 1_554 S
C478 H466 0.950 . S
C478 C477 1.398 1_556 S
C478 C479 1.391 . S
C479 H467 0.950 . S
C479 C475 1.393 1_556 S
C479 C478 1.391 . S
H480 C488 0.950 . S
H481 C493 0.950 . S
H482 C490 0.950 . S
H483 C492 0.950 . S
H484 C494 0.950 . S
H485 C496 0.950 . S
H486 C498 0.950 . S
H487 C499 0.950 . S
C488 H480 0.950 . S
C488 C489 1.386 . S
C488 C490 1.391 . S
C489 C488 1.386 . S
C489 C493 1.393 . S
C490 H482 0.950 . S
C490 C488 1.391 . S
C490 C491 1.400 . S
C491 C490 1.400 . S
C491 C492 1.398 . S
C491 C497 1.491 1_655 S
C492 H483 0.950 . S
C492 C491 1.398 . S
C492 C493 1.391 . S
C493 H481 0.950 . S
C493 C489 1.393 . S
C493 C492 1.391 . S
C494 H484 0.950 . S
C494 C495 1.386 . S
C494 C496 1.391 . S
C495 C494 1.386 . S
C495 C499 1.393 . S
C496 H485 0.950 . S
C496 C494 1.391 . S
C496 C497 1.400 . S
C497 C491 1.491 1_455 S
C497 C496 1.400 . S
C497 C498 1.398 . S
C498 H486 0.950 . S
C498 C497 1.398 . S
C498 C499 1.391 . S
C499 H487 0.950 . S
C499 C495 1.393 . S
C499 C498 1.391 . S
H500 C508 0.950 . S
H501 C513 0.950 . S
H502 C510 0.950 . S
H503 C512 0.950 . S
H504 C514 0.950 . S
H505 C516 0.950 . S
H506 C518 0.950 . S
H507 C519 0.950 . S
C508 H500 0.950 . S
C508 C509 1.386 . S
C508 C510 1.391 . S
C509 C508 1.386 . S
C509 C513 1.393 . S
C510 H502 0.950 . S
C510 C508 1.391 . S
C510 C511 1.400 . S
C511 C510 1.400 . S
C511 C512 1.398 . S
C511 C517 1.491 . S
C512 H503 0.950 . S
C512 C511 1.398 . S
C512 C513 1.391 . S
C513 H501 0.950 . S
C513 C509 1.393 . S
C513 C512 1.391 . S
C514 H504 0.950 . S
C514 C515 1.386 . S
C514 C516 1.391 . S
C515 C514 1.386 . S
C515 C519 1.393 . S
C516 H505 0.950 . S
C516 C514 1.391 . S
C516 C517 1.400 . S
C517 C511 1.491 . S
C517 C516 1.400 . S
C517 C518 1.398 . S
C518 H506 0.950 . S
C518 C517 1.398 . S
C518 C519 1.391 . S
C519 H507 0.950 . S
C519 C515 1.393 . S
C519 C518 1.391 . S
H520 C528 0.950 . S
H521 C533 0.950 . S
H522 C530 0.950 . S
H523 C532 0.950 . S
H524 C534 0.950 . S
H525 C536 0.950 . S
H526 C538 0.950 . S
H527 C539 0.950 . S
C528 H520 0.950 . S
C528 C529 1.386 . S
C528 C530 1.391 . S
C529 C528 1.386 . S
C529 C533 1.393 . S
C530 H522 0.950 . S
C530 C528 1.391 . S
C530 C531 1.400 . S
C531 C530 1.400 . S
C531 C532 1.398 . S
C531 C537 1.491 1_545 S
C532 H523 0.950 . S
C532 C531 1.398 . S
C532 C533 1.391 . S
C533 H521 0.950 . S
C533 C529 1.393 . S
C533 C532 1.391 . S
C534 H524 0.950 . S
C534 C535 1.386 . S
C534 C536 1.391 . S
C535 C534 1.386 . S
C535 C539 1.393 . S
C536 H525 0.950 . S
C536 C534 1.391 . S
C536 C537 1.400 . S
C537 C531 1.491 1_565 S
C537 C536 1.400 . S
C537 C538 1.398 . S
C538 H526 0.950 . S
C538 C537 1.398 . S
C538 C539 1.391 . S
C539 H527 0.950 . S
C539 C535 1.393 . S
C539 C538 1.391 . S
H540 C548 0.950 . S
H541 C553 0.950 . S
H542 C550 0.950 . S
H543 C552 0.950 . S
H544 C554 0.950 . S
H545 C556 0.950 . S
H546 C558 0.950 . S
H547 C559 0.950 . S
C548 H540 0.950 . S
C548 C549 1.386 . S
C548 C550 1.391 . S
C549 C548 1.386 . S
C549 C553 1.393 . S
C550 H542 0.950 . S
C550 C548 1.391 . S
C550 C551 1.400 . S
C551 C550 1.400 . S
C551 C552 1.398 . S
C551 C557 1.491 . S
C552 H543 0.950 . S
C552 C551 1.398 . S
C552 C553 1.391 . S
C553 H541 0.950 . S
C553 C549 1.393 . S
C553 C552 1.391 . S
C554 H544 0.950 . S
C554 C555 1.386 . S
C554 C556 1.391 . S
C555 C554 1.386 . S
C555 C559 1.393 . S
C556 H545 0.950 . S
C556 C554 1.391 . S
C556 C557 1.400 . S
C557 C551 1.491 . S
C557 C556 1.400 . S
C557 C558 1.398 . S
C558 H546 0.950 . S
C558 C557 1.398 . S
C558 C559 1.391 . S
C559 H547 0.950 . S
C559 C555 1.393 . S
C559 C558 1.391 . S
H560 C568 0.950 . S
H561 C573 0.950 . S
H562 C570 0.950 . S
H563 C572 0.950 . S
H564 C574 0.950 . S
H565 C576 0.950 . S
H566 C578 0.950 . S
H567 C579 0.950 . S
C568 H560 0.950 . S
C568 C569 1.386 . S
C568 C570 1.391 . S
C569 C568 1.386 . S
C569 C573 1.393 . S
C570 H562 0.950 . S
C570 C568 1.391 . S
C570 C571 1.400 . S
C571 C570 1.400 . S
C571 C572 1.398 . S
C571 C577 1.491 . S
C572 H563 0.950 . S
C572 C571 1.398 . S
C572 C573 1.391 . S
C573 H561 0.950 . S
C573 C569 1.393 . S
C573 C572 1.391 . S
C574 H564 0.950 . S
C574 C575 1.386 . S
C574 C576 1.391 . S
C575 C574 1.386 . S
C575 C579 1.393 . S
C576 H565 0.950 . S
C576 C574 1.391 . S
C576 C577 1.400 . S
C577 C571 1.491 . S
C577 C576 1.400 . S
C577 C578 1.398 . S
C578 H566 0.950 . S
C578 C577 1.398 . S
C578 C579 1.391 . S
C579 H567 0.950 . S
C579 C575 1.393 . S
C579 C578 1.391 . S
H580 C588 0.950 . S
H581 C593 0.950 . S
H582 C590 0.950 . S
H583 C592 0.950 . S
H584 C594 0.950 . S
H585 C596 0.950 . S
H586 C598 0.950 . S
H587 C599 0.950 . S
C588 H580 0.950 . S
C588 C589 1.386 . S
C588 C590 1.391 . S
C589 C588 1.386 . S
C589 C593 1.393 . S
C590 H582 0.950 . S
C590 C588 1.391 . S
C590 C591 1.400 . S
C591 C590 1.400 . S
C591 C592 1.398 . S
C591 C597 1.491 . S
C592 H583 0.950 . S
C592 C591 1.398 . S
C592 C593 1.391 . S
C593 H581 0.950 . S
C593 C589 1.393 . S
C593 C592 1.391 . S
C594 H584 0.950 . S
C594 C595 1.386 . S
C594 C596 1.391 . S
C595 C594 1.386 . S
C595 C599 1.393 . S
C596 H585 0.950 . S
C596 C594 1.391 . S
C596 C597 1.400 . S
C597 C591 1.491 . S
C597 C596 1.400 . S
C597 C598 1.398 . S
C598 H586 0.950 . S
C598 C597 1.398 . S
C598 C599 1.391 . S
C599 H587 0.950 . S
C599 C595 1.393 . S
C599 C598 1.391 . S
H600 C608 0.950 . S
H601 C613 0.950 . S
H602 C610 0.950 . S
H603 C612 0.950 . S
H604 C614 0.950 . S
H605 C616 0.950 . S
H606 C618 0.950 . S
H607 C619 0.950 . S
C608 H600 0.950 . S
C608 C609 1.386 . S
C608 C610 1.391 . S
C609 C608 1.386 . S
C609 C613 1.393 . S
C610 H602 0.950 . S
C610 C608 1.391 . S
C610 C611 1.400 . S
C611 C610 1.400 . S
C611 C612 1.398 . S
C611 C617 1.491 . S
C612 H603 0.950 . S
C612 C611 1.398 . S
C612 C613 1.391 . S
C613 H601 0.950 . S
C613 C609 1.393 . S
C613 C612 1.391 . S
C614 H604 0.950 . S
C614 C615 1.386 . S
C614 C616 1.391 . S
C615 C614 1.386 . S
C615 C619 1.393 . S
C616 H605 0.950 . S
C616 C614 1.391 . S
C616 C617 1.400 . S
C617 C611 1.491 . S
C617 C616 1.400 . S
C617 C618 1.398 . S
C618 H606 0.950 . S
C618 C617 1.398 . S
C618 C619 1.391 . S
C619 H607 0.950 . S
C619 C615 1.393 . S
C619 C618 1.391 . S
H620 C628 0.950 . S
H621 C633 0.950 . S
H622 C630 0.950 . S
H623 C632 0.950 . S
H624 C634 0.950 . S
H625 C636 0.950 . S
H626 C638 0.950 . S
H627 C639 0.950 . S
C628 H620 0.950 . S
C628 C629 1.386 . S
C628 C630 1.391 . S
C629 C628 1.386 . S
C629 C633 1.393 . S
C630 H622 0.950 . S
C630 C628 1.391 . S
C630 C631 1.400 . S
C631 C630 1.400 . S
C631 C632 1.398 . S
C631 C637 1.491 . S
C632 H623 0.950 . S
C632 C631 1.398 . S
C632 C633 1.391 . S
C633 H621 0.950 . S
C633 C629 1.393 . S
C633 C632 1.391 . S
C634 H624 0.950 . S
C634 C635 1.386 . S
C634 C636 1.391 . S
C635 C634 1.386 . S
C635 C639 1.393 . S
C636 H625 0.950 . S
C636 C634 1.391 . S
C636 C637 1.400 . S
C637 C631 1.491 . S
C637 C636 1.400 . S
C637 C638 1.398 . S
C638 H626 0.950 . S
C638 C637 1.398 . S
C638 C639 1.391 . S
C639 H627 0.950 . S
C639 C635 1.393 . S
C639 C638 1.391 . S
H640 C648 0.950 . S
H641 C653 0.950 . S
H642 C650 0.950 . S
H643 C652 0.950 . S
H644 C654 0.950 . S
H645 C656 0.950 . S
H646 C658 0.950 . S
H647 C659 0.950 . S
C648 H640 0.950 . S
C648 C649 1.386 . S
C648 C650 1.391 . S
C649 C648 1.386 . S
C649 C653 1.393 . S
C650 H642 0.950 . S
C650 C648 1.391 . S
C650 C651 1.400 . S
C651 C650 1.400 . S
C651 C652 1.398 . S
C651 C657 1.491 . S
C652 H643 0.950 . S
C652 C651 1.398 . S
C652 C653 1.391 . S
C653 H641 0.950 . S
C653 C649 1.393 . S
C653 C652 1.391 . S
C654 H644 0.950 . S
C654 C655 1.386 . S
C654 C656 1.391 . S
C655 C654 1.386 . S
C655 C659 1.393 . S
C656 H645 0.950 . S
C656 C654 1.391 . S
C656 C657 1.400 . S
C657 C651 1.491 . S
C657 C656 1.400 . S
C657 C658 1.398 . S
C658 H646 0.950 . S
C658 C657 1.398 . S
C658 C659 1.391 . S
C659 H647 0.950 . S
C659 C655 1.393 . S
C659 C658 1.391 . S
H660 C668 0.950 . S
H661 C673 0.950 . S
H662 C670 0.950 . S
H663 C672 0.950 . S
H664 C674 0.950 . S
H665 C676 0.950 . S
H666 C678 0.950 . S
H667 C679 0.950 . S
C668 H660 0.950 . S
C668 C669 1.386 . S
C668 C670 1.391 . S
C669 C668 1.386 . S
C669 C673 1.393 . S
C670 H662 0.950 . S
C670 C668 1.391 . S
C670 C671 1.400 . S
C671 C670 1.400 . S
C671 C672 1.398 . S
C671 C677 1.491 . S
C672 H663 0.950 . S
C672 C671 1.398 . S
C672 C673 1.391 . S
C673 H661 0.950 . S
C673 C669 1.393 . S
C673 C672 1.391 . S
C674 H664 0.950 . S
C674 C675 1.386 . S
C674 C676 1.391 1_545 S
C675 C674 1.386 . S
C675 C679 1.393 . S
C676 H665 0.950 . S
C676 C674 1.391 1_565 S
C676 C677 1.400 . S
C677 C671 1.491 . S
C677 C676 1.400 . S
C677 C678 1.398 . S
C678 H666 0.950 . S
C678 C677 1.398 . S
C678 C679 1.391 1_565 S
C679 H667 0.950 . S
C679 C675 1.393 . S
C679 C678 1.391 1_545 S
H680 C688 0.950 . S
H681 C693 0.950 . S
H682 C690 0.950 . S
H683 C692 0.950 . S
H684 C694 0.950 . S
H685 C696 0.950 . S
H686 C698 0.950 . S
H687 C699 0.950 . S
C688 H680 0.950 . S
C688 C689 1.386 . S
C688 C690 1.391 . S
C689 C688 1.386 . S
C689 C693 1.393 . S
C690 H682 0.950 . S
C690 C688 1.391 . S
C690 C691 1.400 . S
C691 C690 1.400 . S
C691 C692 1.398 . S
C691 C697 1.491 . S
C692 H683 0.950 . S
C692 C691 1.398 . S
C692 C693 1.391 . S
C693 H681 0.950 . S
C693 C689 1.393 . S
C693 C692 1.391 . S
C694 H684 0.950 . S
C694 C695 1.386 . S
C694 C696 1.391 1_545 S
C695 C694 1.386 . S
C695 C699 1.393 1_545 S
C696 H685 0.950 . S
C696 C694 1.391 1_565 S
C696 C697 1.400 . S
C697 C691 1.491 . S
C697 C696 1.400 . S
C697 C698 1.398 . S
C698 H686 0.950 . S
C698 C697 1.398 . S
C698 C699 1.391 . S
C699 H687 0.950 . S
C699 C695 1.393 1_565 S
C699 C698 1.391 . S
H700 C708 0.950 . S
H701 C713 0.950 . S
H702 C710 0.950 . S
H703 C712 0.950 . S
H704 C714 0.950 . S
H705 C716 0.950 . S
H706 C718 0.950 . S
H707 C719 0.950 . S
C708 H700 0.950 . S
C708 C709 1.386 . S
C708 C710 1.391 . S
C709 C708 1.386 . S
C709 C713 1.393 . S
C710 H702 0.950 . S
C710 C708 1.391 . S
C710 C711 1.400 . S
C711 C710 1.400 . S
C711 C712 1.398 . S
C711 C717 1.491 . S
C712 H703 0.950 . S
C712 C711 1.398 . S
C712 C713 1.391 . S
C713 H701 0.950 . S
C713 C709 1.393 . S
C713 C712 1.391 . S
C714 H704 0.950 . S
C714 C715 1.386 . S
C714 C716 1.391 . S
C715 C714 1.386 . S
C715 C719 1.393 . S
C716 H705 0.950 . S
C716 C714 1.391 . S
C716 C717 1.400 . S
C717 C711 1.491 . S
C717 C716 1.400 . S
C717 C718 1.398 . S
C718 H706 0.950 . S
C718 C717 1.398 . S
C718 C719 1.391 . S
C719 H707 0.950 . S
C719 C715 1.393 . S
C719 C718 1.391 . S
H720 C728 0.950 . S
H721 C733 0.950 . S
H722 C730 0.950 . S
H723 C732 0.950 . S
H724 C734 0.950 . S
H725 C736 0.950 . S
H726 C738 0.950 . S
H727 C739 0.970 . S
C728 H720 0.950 . S
C728 C729 1.386 . S
C728 C730 1.391 . S
C729 C728 1.386 . S
C729 C733 1.393 . S
C730 H722 0.950 . S
C730 C728 1.391 . S
C730 C731 1.400 . S
C731 C730 1.400 . S
C731 C732 1.398 . S
C731 C737 1.491 . S
C732 H723 0.950 . S
C732 C731 1.398 . S
C732 C733 1.391 . S
C733 H721 0.950 . S
C733 C729 1.393 . S
C733 C732 1.391 . S
C734 H724 0.950 . S
C734 C735 1.386 . S
C734 C736 1.391 . S
C735 C734 1.386 . S
C735 C739 1.393 . S
C736 H725 0.950 . S
C736 C734 1.391 . S
C736 C737 1.400 . S
C737 C731 1.491 . S
C737 C736 1.400 . S
C737 C738 1.398 . S
C738 H726 0.950 . S
C738 C737 1.398 . S
C738 C739 1.391 . S
C739 H727 0.970 . S
C739 C735 1.393 . S
C739 C738 1.391 . S
H740 C748 0.950 . S
H741 C753 0.950 . S
H742 C750 0.950 . S
H743 C752 0.950 . S
H744 C754 0.950 . S
H745 C756 0.950 . S
H746 C758 0.950 . S
H747 C759 0.950 . S
C748 H740 0.950 . S
C748 C749 1.386 . S
C748 C750 1.391 . S
C749 C748 1.386 . S
C749 C753 1.393 . S
C750 H742 0.950 . S
C750 C748 1.391 . S
C750 C751 1.400 . S
C751 C750 1.400 . S
C751 C752 1.398 . S
C751 C757 1.491 . S
C752 H743 0.950 . S
C752 C751 1.398 . S
C752 C753 1.391 . S
C753 H741 0.950 . S
C753 C749 1.393 . S
C753 C752 1.391 . S
C754 H744 0.950 . S
C754 C755 1.386 . S
C754 C756 1.391 . S
C755 C754 1.386 . S
C755 C759 1.393 . S
C756 H745 0.950 . S
C756 C754 1.391 . S
C756 C757 1.400 . S
C757 C751 1.491 . S
C757 C756 1.400 . S
C757 C758 1.398 . S
C758 H746 0.950 . S
C758 C757 1.398 . S
C758 C759 1.391 . S
C759 H747 0.950 . S
C759 C755 1.393 . S
C759 C758 1.391 . S
H760 C768 0.950 . S
H761 C773 0.950 . S
H762 C770 0.950 . S
H763 C772 0.950 . S
H764 C774 0.950 . S
H765 C776 0.950 . S
H766 C778 0.950 . S
H767 C779 0.950 . S
C768 H760 0.950 . S
C768 C769 1.386 . S
C768 C770 1.391 . S
C769 C768 1.386 . S
C769 C773 1.393 . S
C770 H762 0.950 . S
C770 C768 1.391 . S
C770 C771 1.400 . S
C771 C770 1.400 . S
C771 C772 1.398 . S
C771 C777 1.491 . S
C772 H763 0.950 . S
C772 C771 1.398 . S
C772 C773 1.391 . S
C773 H761 0.950 . S
C773 C769 1.393 . S
C773 C772 1.391 . S
C774 H764 0.950 . S
C774 C775 1.386 . S
C774 C776 1.391 . S
C775 C774 1.386 . S
C775 C779 1.393 . S
C776 H765 0.950 . S
C776 C774 1.391 . S
C776 C777 1.400 . S
C777 C771 1.491 . S
C777 C776 1.400 . S
C777 C778 1.398 . S
C778 H766 0.950 . S
C778 C777 1.398 . S
C778 C779 1.391 . S
C779 H767 0.950 . S
C779 C775 1.393 . S
C779 C778 1.391 . S
H780 C788 0.950 1_565 S
H781 C793 0.950 . S
H782 C790 0.950 . S
H783 C792 0.950 . S
H784 C794 0.950 . S
H785 C796 0.950 . S
H786 C798 0.950 . S
H787 C799 0.950 . S
C788 H780 0.950 1_545 S
C788 C789 1.386 . S
C788 C790 1.391 . S
C789 C788 1.386 . S
C789 C793 1.393 . S
C790 H782 0.950 . S
C790 C788 1.391 . S
C790 C791 1.400 . S
C791 C790 1.400 . S
C791 C792 1.398 . S
C791 C797 1.491 . S
C792 H783 0.950 . S
C792 C791 1.398 . S
C792 C793 1.391 . S
C793 H781 0.950 . S
C793 C789 1.393 . S
C793 C792 1.391 . S
C794 H784 0.950 . S
C794 C795 1.386 . S
C794 C796 1.391 . S
C795 C794 1.386 . S
C795 C799 1.393 . S
C796 H785 0.950 . S
C796 C794 1.391 . S
C796 C797 1.400 . S
C797 C791 1.491 . S
C797 C796 1.400 . S
C797 C798 1.398 . S
C798 H786 0.950 . S
C798 C797 1.398 . S
C798 C799 1.391 . S
C799 H787 0.950 . S
C799 C795 1.393 . S
C799 C798 1.391 . S
H800 C808 0.950 . S
H801 C813 0.950 1_455 S
H802 C810 0.950 . S
H803 C812 0.950 . S
H804 C814 0.950 . S
H805 C816 0.950 . S
H806 C818 0.950 . S
H807 C819 0.950 . S
C808 H800 0.950 . S
C808 C809 1.386 . S
C808 C810 1.391 . S
C809 C808 1.386 . S
C809 C813 1.393 . S
C810 H802 0.950 . S
C810 C808 1.391 . S
C810 C811 1.400 . S
C811 C810 1.400 . S
C811 C812 1.398 . S
C811 C817 1.491 . S
C812 H803 0.950 . S
C812 C811 1.398 . S
C812 C813 1.391 . S
C813 H801 0.950 1_655 S
C813 C809 1.393 . S
C813 C812 1.391 . S
C814 H804 0.950 . S
C814 C815 1.386 . S
C814 C816 1.391 . S
C815 C814 1.386 . S
C815 C819 1.393 . S
C816 H805 0.950 . S
C816 C814 1.391 . S
C816 C817 1.400 . S
C817 C811 1.491 . S
C817 C816 1.400 . S
C817 C818 1.398 . S
C818 H806 0.950 . S
C818 C817 1.398 . S
C818 C819 1.391 . S
C819 H807 0.950 . S
C819 C815 1.393 . S
C819 C818 1.391 . S
H820 C828 0.950 . S
H821 C833 0.950 . S
H822 C830 0.950 . S
H823 C832 0.950 . S
H824 C834 0.950 . S
H825 C836 0.950 . S
H826 C838 0.950 . S
H827 C839 0.950 . S
C828 H820 0.950 . S
C828 C829 1.386 . S
C828 C830 1.391 . S
C829 C828 1.386 . S
C829 C833 1.393 . S
C830 H822 0.950 . S
C830 C828 1.391 . S
C830 C831 1.400 . S
C831 C830 1.400 . S
C831 C832 1.398 . S
C831 C837 1.491 . S
C832 H823 0.950 . S
C832 C831 1.398 . S
C832 C833 1.391 . S
C833 H821 0.950 . S
C833 C829 1.393 . S
C833 C832 1.391 . S
C834 H824 0.950 . S
C834 C835 1.386 . S
C834 C836 1.391 . S
C835 C834 1.386 . S
C835 C839 1.393 . S
C836 H825 0.950 . S
C836 C834 1.391 . S
C836 C837 1.400 . S
C837 C831 1.491 . S
C837 C836 1.400 . S
C837 C838 1.398 . S
C838 H826 0.950 . S
C838 C837 1.398 . S
C838 C839 1.391 . S
C839 H827 0.950 . S
C839 C835 1.393 . S
C839 C838 1.391 . S
H840 C848 0.950 . S
H841 C853 0.950 . S
H842 C850 0.950 . S
H843 C852 0.950 . S
H844 C854 0.950 . S
H845 C856 0.950 . S
H846 C858 0.950 . S
H847 C859 0.950 . S
C848 H840 0.950 . S
C848 C849 1.386 . S
C848 C850 1.391 . S
C849 C848 1.386 . S
C849 C853 1.393 . S
C850 H842 0.950 . S
C850 C848 1.391 . S
C850 C851 1.400 . S
C851 C850 1.400 . S
C851 C852 1.398 . S
C851 C857 1.491 . S
C852 H843 0.950 . S
C852 C851 1.398 . S
C852 C853 1.391 . S
C853 H841 0.950 . S
C853 C849 1.393 . S
C853 C852 1.391 . S
C854 H844 0.950 . S
C854 C855 1.386 . S
C854 C856 1.391 . S
C855 C854 1.386 . S
C855 C859 1.393 . S
C856 H845 0.950 . S
C856 C854 1.391 . S
C856 C857 1.400 . S
C857 C851 1.491 . S
C857 C856 1.400 . S
C857 C858 1.398 . S
C858 H846 0.950 . S
C858 C857 1.398 . S
C858 C859 1.391 . S
C859 H847 0.950 . S
C859 C855 1.393 . S
C859 C858 1.391 . S
H860 C868 0.950 . S
H861 C873 0.950 . S
H862 C870 0.950 . S
H863 C872 0.940 1_545 S
H864 C874 0.950 . S
H865 C876 0.950 . S
H866 C878 0.950 1_565 S
H867 C879 0.950 . S
C868 H860 0.950 . S
C868 C869 1.386 . S
C868 C870 1.391 . S
C869 C868 1.386 . S
C869 C873 1.393 . S
C870 H862 0.950 . S
C870 C868 1.391 . S
C870 C871 1.400 . S
C871 C870 1.400 . S
C871 C872 1.398 . S
C871 C877 1.491 1_565 S
C872 H863 0.940 1_565 S
C872 C871 1.398 . S
C872 C873 1.391 . S
C873 H861 0.950 . S
C873 C869 1.393 . S
C873 C872 1.391 . S
C874 H864 0.950 . S
C874 C875 1.386 . S
C874 C876 1.391 . S
C875 C874 1.386 . S
C875 C879 1.393 . S
C876 H865 0.950 . S
C876 C874 1.391 . S
C876 C877 1.400 . S
C877 C871 1.491 1_545 S
C877 C876 1.400 . S
C877 C878 1.398 . S
C878 H866 0.950 1_545 S
C878 C877 1.398 . S
C878 C879 1.391 . S
C879 H867 0.950 . S
C879 C875 1.393 . S
C879 C878 1.391 . S
H880 C888 0.950 . S
H881 C893 0.950 . S
H882 C890 0.950 . S
H883 C892 0.950 1_455 S
H884 C894 0.950 . S
H885 C896 0.950 . S
H886 C898 0.950 . S
H887 C899 0.950 . S
C888 H880 0.950 . S
C888 C889 1.386 . S
C888 C890 1.391 . S
C889 C888 1.386 . S
C889 C893 1.393 . S
C890 H882 0.950 . S
C890 C888 1.391 . S
C890 C891 1.400 . S
C891 C890 1.400 . S
C891 C892 1.398 . S
C891 C897 1.491 1_655 S
C892 H883 0.950 1_655 S
C892 C891 1.398 . S
C892 C893 1.391 . S
C893 H881 0.950 . S
C893 C889 1.393 . S
C893 C892 1.391 . S
C894 H884 0.950 . S
C894 C895 1.386 . S
C894 C896 1.391 . S
C895 C894 1.386 . S
C895 C899 1.393 . S
C896 H885 0.950 . S
C896 C894 1.391 . S
C896 C897 1.400 . S
C897 C891 1.491 1_455 S
C897 C896 1.400 . S
C897 C898 1.398 . S
C898 H886 0.950 . S
C898 C897 1.398 . S
C898 C899 1.391 . S
C899 H887 0.950 . S
C899 C895 1.393 . S
C899 C898 1.391 . S
C369 C66 0.526 . S
C375 C17 0.588 . S
C389 C104 3.348 . S
C395 C53 3.376 . S
C409 C97 0.982 1_556 S
C415 C24 0.982 . S
C429 C93 3.008 . S
C435 C64 2.992 . S
C449 C106 1.982 . S
C455 C13 1.975 . S
C469 C26 0.590 . S
C475 C57 0.700 . S
C489 C137 2.813 . S
C495 C184 2.848 . S
C509 C224 0.857 . S
C515 C177 0.859 . S
C529 C217 0.837 . S
C535 C144 0.838 . S
C549 C186 0.298 . S
C555 C213 0.266 . S
C569 C226 2.062 . S
C575 C133 2.056 . S
C589 C173 2.297 . S
C595 C146 2.304 . S
C609 C306 0.486 . S
C615 C257 0.594 . S
C629 C293 3.413 . S
C635 C344 3.386 . S
C649 C337 0.999 . S
C655 C264 1.001 . S
C669 C333 2.946 . S
C675 C304 2.931 . S
C689 C346 2.026 . S
C695 C253 1.999 . S
C709 C266 0.513 . S
C715 C297 0.641 . S
C729 C223 2.328 . S
C735 C2 2.594 . S
C749 C143 2.024 . S
C755 C63 2.005 . S
C769 C82 2.982 . S
C775 C183 2.777 . S
C789 C103 2.326 . S
C795 C242 2.603 . S
C809 C23 2.003 . S
C815 C303 1.953 . S
C829 C322 2.968 . S
C835 C42 2.990 . S
C849 C122 2.654 . S
C855 C343 2.397 . S
C869 C162 2.143 . S
C875 C263 1.994 . S
C889 C282 2.937 . S
C895 C202 2.920 . S
