# Generated by pormake.
# Topology gis, (4)-cn, num edge types: 1
# Building blocks:
#     Node 0, Type 0, BuildingBlock: QUQFOY_clean_sbu_3, # of connection points: 4
#     Node 1, Type 0, BuildingBlock: QUQFOY_clean_sbu_3, # of connection points: 4
#     Node 2, Type 0, BuildingBlock: QUQFOY_clean_sbu_3, # of connection points: 4
#     Node 3, Type 0, BuildingBlock: QUQFOY_clean_sbu_3, # of connection points: 4
#     Node 4, Type 0, BuildingBlock: QUQFOY_clean_sbu_3, # of connection points: 4
#     Node 5, Type 0, BuildingBlock: QUQFOY_clean_sbu_3, # of connection points: 4
#     Node 6, Type 0, BuildingBlock: QUQFOY_clean_sbu_3, # of connection points: 4
#     Node 7, Type 0, BuildingBlock: QUQFOY_clean_sbu_3, # of connection points: 4
#     Node 8, Type 0, BuildingBlock: QUQFOY_clean_sbu_3, # of connection points: 4
#     Node 9, Type 0, BuildingBlock: QUQFOY_clean_sbu_3, # of connection points: 4
#     Node 10, Type 0, BuildingBlock: QUQFOY_clean_sbu_3, # of connection points: 4
#     Node 11, Type 0, BuildingBlock: QUQFOY_clean_sbu_3, # of connection points: 4
#     Node 12, Type 0, BuildingBlock: QUQFOY_clean_sbu_3, # of connection points: 4
#     Node 13, Type 0, BuildingBlock: QUQFOY_clean_sbu_3, # of connection points: 4
#     Node 14, Type 0, BuildingBlock: QUQFOY_clean_sbu_3, # of connection points: 4
#     Node 15, Type 0, BuildingBlock: QUQFOY_clean_sbu_3, # of connection points: 4
#     Edge 16, Type (0, 0), BuildingBlock: XIVTED_clean_linker_0, # of connection points: 2
#     Edge 17, Type (0, 0), BuildingBlock: XIVTED_clean_linker_0, # of connection points: 2
#     Edge 18, Type (0, 0), BuildingBlock: XIVTED_clean_linker_0, # of connection points: 2
#     Edge 19, Type (0, 0), BuildingBlock: XIVTED_clean_linker_0, # of connection points: 2
#     Edge 20, Type (0, 0), BuildingBlock: XIVTED_clean_linker_0, # of connection points: 2
#     Edge 21, Type (0, 0), BuildingBlock: XIVTED_clean_linker_0, # of connection points: 2
#     Edge 22, Type (0, 0), BuildingBlock: XIVTED_clean_linker_0, # of connection points: 2
#     Edge 23, Type (0, 0), BuildingBlock: XIVTED_clean_linker_0, # of connection points: 2
#     Edge 24, Type (0, 0), BuildingBlock: XIVTED_clean_linker_0, # of connection points: 2
#     Edge 25, Type (0, 0), BuildingBlock: XIVTED_clean_linker_0, # of connection points: 2
#     Edge 26, Type (0, 0), BuildingBlock: XIVTED_clean_linker_0, # of connection points: 2
#     Edge 27, Type (0, 0), BuildingBlock: XIVTED_clean_linker_0, # of connection points: 2
#     Edge 28, Type (0, 0), BuildingBlock: XIVTED_clean_linker_0, # of connection points: 2
#     Edge 29, Type (0, 0), BuildingBlock: XIVTED_clean_linker_0, # of connection points: 2
#     Edge 30, Type (0, 0), BuildingBlock: XIVTED_clean_linker_0, # of connection points: 2
#     Edge 31, Type (0, 0), BuildingBlock: XIVTED_clean_linker_0, # of connection points: 2
#     Edge 32, Type (0, 0), BuildingBlock: XIVTED_clean_linker_0, # of connection points: 2
#     Edge 33, Type (0, 0), BuildingBlock: XIVTED_clean_linker_0, # of connection points: 2
#     Edge 34, Type (0, 0), BuildingBlock: XIVTED_clean_linker_0, # of connection points: 2
#     Edge 35, Type (0, 0), BuildingBlock: XIVTED_clean_linker_0, # of connection points: 2
#     Edge 36, Type (0, 0), BuildingBlock: XIVTED_clean_linker_0, # of connection points: 2
#     Edge 37, Type (0, 0), BuildingBlock: XIVTED_clean_linker_0, # of connection points: 2
#     Edge 38, Type (0, 0), BuildingBlock: XIVTED_clean_linker_0, # of connection points: 2
#     Edge 39, Type (0, 0), BuildingBlock: XIVTED_clean_linker_0, # of connection points: 2
#     Edge 40, Type (0, 0), BuildingBlock: XIVTED_clean_linker_0, # of connection points: 2
#     Edge 41, Type (0, 0), BuildingBlock: XIVTED_clean_linker_0, # of connection points: 2
#     Edge 42, Type (0, 0), BuildingBlock: XIVTED_clean_linker_0, # of connection points: 2
#     Edge 43, Type (0, 0), BuildingBlock: XIVTED_clean_linker_0, # of connection points: 2
#     Edge 44, Type (0, 0), BuildingBlock: XIVTED_clean_linker_0, # of connection points: 2
#     Edge 45, Type (0, 0), BuildingBlock: XIVTED_clean_linker_0, # of connection points: 2
#     Edge 46, Type (0, 0), BuildingBlock: XIVTED_clean_linker_0, # of connection points: 2
#     Edge 47, Type (0, 0), BuildingBlock: XIVTED_clean_linker_0, # of connection points: 2
# Relax obj value: 0.062
# Max RMSD: 0.132
# Mean RMSD: 0.124
data_MOF--net-gis--node1-QUQFOY_clean_sbu_3--edge1-XIVTED_clean_linker_0
_symmetry_space_group_name_H-M    P1
_symmetry_Int_Tables_number       1
_symmetry_cell_setting            triclinic
loop_
_symmetry_equiv_pos_as_xyz
'x, y, z'
_cell_length_a     55.053347
_cell_length_b     58.218378
_cell_length_c     38.211715
_cell_angle_alpha  90.576816
_cell_angle_beta   90.383191
_cell_angle_gamma 90.260709
loop_
_atom_site_label
_atom_site_type_symbol
_atom_site_fract_x
_atom_site_fract_y
_atom_site_fract_z
_atom_type_partial_charge
C0 C 0.14085 0.58793 0.17379 0.0
O1 O 0.12202 0.59476 0.1897 0.0
Cd2 Cd 0.08515 0.60208 0.15646 0.0
O3 O 0.13981 0.58325 0.14132 0.0
Cd4 Cd 0.11146 0.58041 0.09249 0.0
C5 C 0.10645 0.63749 0.09122 0.0
O6 O 0.0726 0.56999 0.12091 0.0
O7 O 0.07159 0.58164 0.06723 0.0
O8 O 0.12649 0.54177 0.08807 0.0
C9 C 0.06028 0.57359 0.09322 0.0
O10 O 0.09298 0.63411 0.11768 0.0
C11 C 0.13226 0.54256 0.05604 0.0
O12 O 0.11826 0.62107 0.07712 0.0
O13 O 0.12889 0.56153 0.04047 0.0
C14 C 0.64547 0.85037 0.29788 0.0
O15 O 0.6268 0.84167 0.28317 0.0
Cd16 Cd 0.59024 0.83456 0.31632 0.0
O17 O 0.64463 0.85695 0.32963 0.0
Cd18 Cd 0.6158 0.86042 0.37765 0.0
C19 C 0.61291 0.80331 0.38527 0.0
O20 O 0.5768 0.86812 0.34709 0.0
O21 O 0.57559 0.8581 0.40146 0.0
O22 O 0.62857 0.90016 0.38207 0.0
C23 C 0.56433 0.86509 0.37457 0.0
O24 O 0.59903 0.80465 0.35859 0.0
C25 C 0.63429 0.89971 0.41426 0.0
O26 O 0.62414 0.82092 0.39729 0.0
O27 O 0.63214 0.88052 0.42963 0.0
C28 C 0.30348 0.36778 0.67744 0.0
O29 O 0.32253 0.36365 0.69513 0.0
Cd30 Cd 0.35772 0.34969 0.6647 0.0
O31 O 0.3041 0.36755 0.64421 0.0
Cd32 Cd 0.33134 0.36444 0.59411 0.0
C33 C 0.32959 0.30844 0.61072 0.0
O34 O 0.37014 0.37607 0.62071 0.0
O35 O 0.3714 0.35861 0.57044 0.0
O36 O 0.3169 0.40255 0.58428 0.0
C37 C 0.38273 0.36875 0.59518 0.0
O38 O 0.34255 0.31455 0.63699 0.0
C39 C 0.31118 0.39973 0.55234 0.0
O40 O 0.32161 0.32326 0.58919 0.0
O41 O 0.31443 0.37981 0.53912 0.0
C42 C 0.80405 0.07677 0.79151 0.0
O43 O 0.82267 0.0822 0.77398 0.0
Cd44 Cd 0.85661 0.09796 0.80655 0.0
O45 O 0.80528 0.07613 0.82469 0.0
Cd46 Cd 0.83424 0.07879 0.87368 0.0
C47 C 0.82659 0.13482 0.86377 0.0
O48 O 0.87452 0.07157 0.8473 0.0
O49 O 0.87333 0.08799 0.89842 0.0
O50 O 0.82393 0.03905 0.88167 0.0
C51 C 0.88595 0.07928 0.87406 0.0
O52 O 0.83891 0.13111 0.83621 0.0
C53 C 0.81711 0.04095 0.91318 0.0
O54 O 0.82124 0.11851 0.88436 0.0
O55 O 0.81825 0.0609 0.92709 0.0
C56 C 0.14316 0.36558 0.7962 0.0
O57 O 0.12419 0.3609 0.77841 0.0
Cd58 Cd 0.08974 0.34542 0.80868 0.0
O59 O 0.1426 0.36525 0.82943 0.0
Cd60 Cd 0.11575 0.36136 0.87983 0.0
C61 C 0.12007 0.30561 0.86119 0.0
O62 O 0.07655 0.37123 0.85362 0.0
O63 O 0.07596 0.35397 0.90355 0.0
O64 O 0.12953 0.39994 0.88926 0.0
C65 C 0.06425 0.36347 0.87897 0.0
O66 O 0.10687 0.31115 0.8351 0.0
C67 C 0.135 0.39796 0.92135 0.0
O68 O 0.12722 0.32069 0.88346 0.0
O69 O 0.13188 0.37828 0.93496 0.0
C70 C 0.80491 0.86032 0.17375 0.0
O71 O 0.82479 0.85762 0.1902 0.0
Cd72 Cd 0.86175 0.85002 0.15859 0.0
O73 O 0.80477 0.86201 0.14062 0.0
Cd74 Cd 0.83247 0.86444 0.09088 0.0
C75 C 0.83988 0.80817 0.10051 0.0
O76 O 0.87069 0.87893 0.11693 0.0
O77 O 0.87238 0.86245 0.06594 0.0
O78 O 0.81487 0.9016 0.0819 0.0
C79 C 0.88329 0.87321 0.09047 0.0
O80 O 0.85304 0.81473 0.12632 0.0
C81 C 0.81005 0.8988 0.04964 0.0
O82 O 0.82788 0.82264 0.08252 0.0
O83 O 0.81468 0.87918 0.03627 0.0
C84 C 0.30349 0.57786 0.29153 0.0
O85 O 0.32283 0.58037 0.27406 0.0
Cd86 Cd 0.35926 0.5918 0.30494 0.0
O87 O 0.30434 0.57742 0.32476 0.0
Cd88 Cd 0.33285 0.5767 0.37428 0.0
C89 C 0.33352 0.63284 0.36083 0.0
O90 O 0.37137 0.56464 0.34792 0.0
O91 O 0.37304 0.58171 0.39854 0.0
O92 O 0.31746 0.53856 0.38235 0.0
C93 C 0.38413 0.57158 0.37386 0.0
O94 O 0.346 0.62673 0.33437 0.0
C95 C 0.31195 0.54098 0.41434 0.0
O96 O 0.32499 0.61795 0.38175 0.0
O97 O 0.31567 0.56069 0.42824 0.0
C98 C 0.64151 0.07626 0.6745 0.0
O99 O 0.62262 0.07969 0.6926 0.0
Cd100 Cd 0.58795 0.09535 0.66237 0.0
O101 O 0.64039 0.07735 0.64134 0.0
Cd102 Cd 0.61158 0.08089 0.59246 0.0
C103 C 0.61658 0.13647 0.61112 0.0
O104 O 0.57161 0.07048 0.6174 0.0
O105 O 0.57229 0.08908 0.56852 0.0
O106 O 0.62431 0.04225 0.58128 0.0
C107 C 0.55997 0.0788 0.59157 0.0
O108 O 0.60423 0.13052 0.63763 0.0
C109 C 0.62992 0.04486 0.54945 0.0
O110 O 0.62297 0.12171 0.58813 0.0
O111 O 0.62726 0.06487 0.5368 0.0
C112 C 0.80324 0.35834 0.8007 0.0
O113 O 0.8221 0.35247 0.78398 0.0
Cd114 Cd 0.85565 0.33753 0.81672 0.0
O115 O 0.80369 0.3596 0.83396 0.0
Cd116 Cd 0.83073 0.35786 0.8855 0.0
C117 C 0.82362 0.30171 0.87365 0.0
O118 O 0.86955 0.36604 0.85759 0.0
O119 O 0.87104 0.35168 0.90957 0.0
O120 O 0.81731 0.39674 0.88955 0.0
C121 C 0.88231 0.35988 0.88364 0.0
O122 O 0.8364 0.3055 0.84663 0.0
C123 C 0.81265 0.39695 0.92198 0.0
O124 O 0.8179 0.31789 0.89469 0.0
O125 O 0.81605 0.37832 0.93851 0.0
C126 C 0.31123 0.05473 0.5138 0.0
O127 O 0.31529 0.07075 0.49233 0.0
Cd128 Cd 0.33216 0.10617 0.51619 0.0
O129 O 0.31319 0.05861 0.54641 0.0
Cd130 Cd 0.32039 0.08947 0.58863 0.0
C131 C 0.37892 0.0857 0.56757 0.0
O132 O 0.30821 0.12593 0.5598 0.0
O133 O 0.33142 0.12736 0.60597 0.0
O134 O 0.28038 0.08056 0.6098 0.0
C135 C 0.31875 0.13795 0.58353 0.0
O136 O 0.37167 0.09586 0.54007 0.0
C137 C 0.28675 0.07617 0.64096 0.0
O138 O 0.36381 0.07973 0.59096 0.0
O139 O 0.30931 0.07776 0.64822 0.0
C140 C 0.64487 0.59107 0.30411 0.0
O141 O 0.62672 0.60191 0.29216 0.0
Cd142 Cd 0.58964 0.60679 0.32471 0.0
O143 O 0.64454 0.58271 0.33468 0.0
Cd144 Cd 0.61732 0.58105 0.3851 0.0
C145 C 0.61305 0.63858 0.39304 0.0
O146 O 0.57877 0.57245 0.35461 0.0
O147 O 0.57678 0.58194 0.40933 0.0
O148 O 0.63111 0.54184 0.38922 0.0
C149 C 0.5659 0.57499 0.38183 0.0
O150 O 0.59814 0.6366 0.3676 0.0
C151 C 0.63699 0.54271 0.42134 0.0
O152 O 0.62545 0.62148 0.40355 0.0
O153 O 0.63441 0.56194 0.43697 0.0
C154 C 0.14073 0.85381 0.17112 0.0
O155 O 0.12068 0.84764 0.18437 0.0
Cd156 Cd 0.08464 0.84112 0.14978 0.0
O157 O 0.14209 0.85838 0.13872 0.0
Cd158 Cd 0.11536 0.86169 0.08712 0.0
C159 C 0.10754 0.80477 0.08535 0.0
O160 O 0.0776 0.8741 0.11539 0.0
O161 O 0.07482 0.86251 0.06164 0.0
O162 O 0.13385 0.89902 0.08531 0.0
C163 C 0.06452 0.87118 0.08821 0.0
O164 O 0.09331 0.80898 0.11076 0.0
C165 C 0.13792 0.89921 0.05271 0.0
O166 O 0.1206 0.82057 0.0721 0.0
O167 O 0.13252 0.88104 0.03544 0.0
C168 C 0.81059 0.55384 0.02301 0.0
O169 O 0.81433 0.5702 0.00203 0.0
Cd170 Cd 0.83446 0.60421 0.02354 0.0
O171 O 0.81385 0.55689 0.05569 0.0
Cd172 Cd 0.82257 0.58874 0.09704 0.0
C173 C 0.87994 0.58078 0.07548 0.0
O174 O 0.81171 0.62497 0.06655 0.0
O175 O 0.83746 0.62652 0.10953 0.0
O176 O 0.78334 0.57847 0.12015 0.0
C177 C 0.82446 0.63716 0.08759 0.0
O178 O 0.87304 0.591 0.04783 0.0
C179 C 0.78956 0.57978 0.1521 0.0
O180 O 0.86484 0.57614 0.09957 0.0
O181 O 0.81162 0.58471 0.15895 0.0
C182 C 0.13608 0.05481 0.95217 0.0
O183 O 0.13194 0.07173 0.97242 0.0
Cd184 Cd 0.11513 0.10649 0.94851 0.0
O185 O 0.13393 0.05707 0.91928 0.0
Cd186 Cd 0.12634 0.08712 0.87611 0.0
C187 C 0.06756 0.08591 0.89754 0.0
O188 O 0.14033 0.12355 0.90468 0.0
O189 O 0.11758 0.1254 0.85826 0.0
O190 O 0.1656 0.07661 0.85389 0.0
C191 C 0.13061 0.13573 0.88096 0.0
O192 O 0.07525 0.09662 0.9247 0.0
C193 C 0.15878 0.07267 0.82263 0.0
O194 O 0.08243 0.07872 0.87449 0.0
O195 O 0.13625 0.07491 0.81591 0.0
C196 C 0.64308 0.36486 0.67781 0.0
O197 O 0.62363 0.36137 0.69463 0.0
Cd198 Cd 0.58854 0.34761 0.66312 0.0
O199 O 0.64292 0.36452 0.64452 0.0
Cd200 Cd 0.61585 0.36218 0.59311 0.0
C201 C 0.61696 0.30626 0.61027 0.0
O202 O 0.57731 0.37418 0.61886 0.0
O203 O 0.5756 0.3567 0.56863 0.0
O204 O 0.63138 0.40018 0.58415 0.0
C205 C 0.56453 0.36701 0.59315 0.0
O206 O 0.60414 0.31258 0.63626 0.0
C207 C 0.63642 0.39773 0.55202 0.0
O208 O 0.62486 0.32083 0.58833 0.0
O209 O 0.63251 0.37799 0.53833 0.0
C210 C 0.31617 0.88982 0.4444 0.0
O211 O 0.31896 0.87432 0.46712 0.0
Cd212 Cd 0.33811 0.83949 0.44654 0.0
O213 O 0.3194 0.8851 0.4123 0.0
Cd214 Cd 0.32594 0.85183 0.37417 0.0
C215 C 0.38387 0.85992 0.39363 0.0
O216 O 0.31536 0.81582 0.40579 0.0
O217 O 0.33886 0.81415 0.36032 0.0
O218 O 0.28482 0.85823 0.35715 0.0
C219 C 0.32626 0.80368 0.38284 0.0
O220 O 0.37692 0.85121 0.42233 0.0
C221 C 0.28849 0.86028 0.32462 0.0
O222 O 0.3687 0.86342 0.36893 0.0
O223 O 0.31041 0.85891 0.31429 0.0
H224 H 0.14751 0.77918 0.06638 0.0
H225 H 0.06822 0.66472 0.07831 0.0
H226 H 0.0696 0.77601 0.07576 0.0
H227 H 0.14634 0.66336 0.07263 0.0
H228 H 0.06884 0.70542 0.06483 0.0
H229 H 0.14806 0.7372 0.05684 0.0
C230 C 0.13053 0.76972 0.06549 0.0
C231 C 0.10849 0.78089 0.07225 0.0
C232 C 0.08594 0.69633 0.06606 0.0
C233 C 0.10894 0.73329 0.06159 0.0
C234 C 0.08553 0.67305 0.0737 0.0
C235 C 0.10725 0.66085 0.07687 0.0
C236 C 0.10829 0.70778 0.06247 0.0
C237 C 0.12921 0.67231 0.0704 0.0
C238 C 0.13084 0.74582 0.06027 0.0
C239 C 0.08699 0.76796 0.0711 0.0
N240 N 0.12925 0.69535 0.06416 0.0
N241 N 0.08779 0.74491 0.06622 0.0
H242 H 0.41728 0.8657 0.44544 0.0
H243 H 0.53253 0.87115 0.31931 0.0
H244 H 0.41001 0.86623 0.3329 0.0
H245 H 0.53555 0.86608 0.43186 0.0
H246 H 0.48797 0.87353 0.32255 0.0
H247 H 0.46081 0.87046 0.43979 0.0
C248 C 0.42486 0.86692 0.41943 0.0
C249 C 0.40998 0.86527 0.38958 0.0
C250 C 0.49848 0.87206 0.34647 0.0
C251 C 0.46024 0.87056 0.38282 0.0
C252 C 0.52386 0.87074 0.34465 0.0
C253 C 0.53772 0.86821 0.37535 0.0
C254 C 0.48707 0.87097 0.37922 0.0
C255 C 0.52561 0.86778 0.40749 0.0
C256 C 0.44981 0.86966 0.4162 0.0
C257 C 0.42086 0.86734 0.35659 0.0
N258 N 0.50107 0.86906 0.40852 0.0
N259 N 0.44545 0.86962 0.35404 0.0
H260 H 0.33228 0.27567 0.66033 0.0
H261 H 0.30249 0.16865 0.53376 0.0
H262 H 0.31373 0.28485 0.55142 0.0
H263 H 0.32976 0.16468 0.63968 0.0
H264 H 0.30171 0.2109 0.53968 0.0
H265 H 0.32612 0.23474 0.65342 0.0
C266 C 0.32689 0.26906 0.63483 0.0
C267 C 0.32387 0.28373 0.60628 0.0
C268 C 0.30771 0.20066 0.56157 0.0
C269 C 0.31687 0.23637 0.59801 0.0
C270 C 0.3081 0.17662 0.55825 0.0
C271 C 0.3164 0.16318 0.58617 0.0
C272 C 0.31544 0.21107 0.59313 0.0
C273 C 0.32348 0.17431 0.61731 0.0
C274 C 0.32333 0.24557 0.63088 0.0
C275 C 0.31638 0.2741 0.57406 0.0
N276 N 0.32286 0.19749 0.61985 0.0
N277 N 0.31336 0.2509 0.57065 0.0
H278 H 0.0422 0.06866 0.84022 0.0
H279 H 0.91352 0.0922 0.93016 0.0
H280 H 0.03221 0.09561 0.94482 0.0
H281 H 0.91947 0.06476 0.82521 0.0
H282 H 0.95743 0.09208 0.93551 0.0
H283 H -0.00218 0.06549 0.83376 0.0
C284 C 0.03075 0.07377 0.86185 0.0
C285 C 0.041 0.08252 0.89306 0.0
C286 C 0.94926 0.08601 0.91125 0.0
C287 C -0.0096 0.07899 0.88581 0.0
C288 C 0.92408 0.08609 0.90816 0.0
C289 C 0.91275 0.07853 0.87714 0.0
C290 C 0.96347 0.07839 0.88308 0.0
C291 C 0.92749 0.07075 0.8496 0.0
C292 C 0.00545 0.072 0.85811 0.0
C293 C 0.02526 0.0889 0.92019 0.0
N294 N 0.95215 0.07094 0.85316 0.0
N295 N 0.00088 0.08706 0.91586 0.0
H296 H 0.1222 0.27386 0.80917 0.0
H297 H 0.14571 0.16603 0.93292 0.0
H298 H 0.13376 0.28183 0.92046 0.0
H299 H 0.123 0.1626 0.82468 0.0
H300 H 0.14756 0.20825 0.92878 0.0
H301 H 0.1293 0.233 0.81417 0.0
C302 C 0.1263 0.26698 0.83477 0.0
C303 C 0.12697 0.28123 0.86454 0.0
C304 C 0.14237 0.19815 0.90597 0.0
C305 C 0.13494 0.23405 0.8706 0.0
C306 C 0.14138 0.17413 0.90827 0.0
C307 C 0.13395 0.16086 0.87918 0.0
C308 C 0.13616 0.20874 0.87425 0.0
C309 C 0.12852 0.17213 0.84789 0.0
C310 C 0.13038 0.24357 0.83762 0.0
C311 C 0.13291 0.27138 0.89689 0.0
N312 N 0.12968 0.19532 0.84633 0.0
N313 N 0.13638 0.24825 0.89919 0.0
H314 H 0.91285 0.86692 0.03453 0.0
H315 H 0.03612 0.88502 0.14328 0.0
H316 H 0.91418 0.88728 0.14345 0.0
H317 H 0.03262 0.86623 0.03379 0.0
H318 H -0.00822 0.88876 0.14352 0.0
H319 H 0.95694 0.86951 0.03329 0.0
C320 C 0.92244 0.87207 0.05821 0.0
C321 C 0.90984 0.87671 0.08924 0.0
C322 C 0.00077 0.88397 0.1194 0.0
C323 C 0.96052 0.87958 0.08809 0.0
C324 C 0.02605 0.88185 0.11924 0.0
C325 C 0.03805 0.87513 0.08852 0.0
C326 C -0.01254 0.87932 0.08863 0.0
C327 C 0.02414 0.87128 0.05812 0.0
C328 C 0.94766 0.87356 0.0575 0.0
C329 C 0.92322 0.88349 0.11901 0.0
N330 N -0.00038 0.87331 0.05901 0.0
N331 N 0.9479 0.88454 0.11781 0.0
H332 H 0.31774 0.65615 0.4201 0.0
H333 H 0.3344 0.77718 0.32587 0.0
H334 H 0.33806 0.66607 0.31232 0.0
H335 H 0.31202 0.77291 0.43365 0.0
H336 H 0.33273 0.73581 0.32105 0.0
H337 H 0.31262 0.69807 0.42645 0.0
C338 C 0.32095 0.66706 0.3978 0.0
C339 C 0.32868 0.65762 0.36578 0.0
C340 C 0.3281 0.74373 0.34587 0.0
C341 C 0.32277 0.70518 0.37276 0.0
C342 C 0.32911 0.76746 0.34865 0.0
C343 C 0.32362 0.77849 0.38033 0.0
C344 C 0.32181 0.73061 0.37512 0.0
C345 C 0.31649 0.76498 0.40878 0.0
C346 C 0.31805 0.69092 0.40145 0.0
C347 C 0.33249 0.6725 0.3377 0.0
N348 N 0.31603 0.74161 0.40564 0.0
N349 N 0.32958 0.69539 0.34193 0.0
H350 H 0.53269 0.08879 0.5344 0.0
H351 H 0.40383 0.07053 0.626 0.0
H352 H 0.52644 0.06481 0.64049 0.0
H353 H 0.41423 0.09124 0.5189 0.0
H354 H 0.44809 0.06636 0.63228 0.0
H355 H 0.48882 0.08787 0.52865 0.0
C356 C 0.52205 0.08327 0.55655 0.0
C357 C 0.53327 0.077 0.58806 0.0
C358 C 0.44057 0.07168 0.60741 0.0
C359 C 0.48261 0.07601 0.58171 0.0
C360 C 0.41534 0.07403 0.60379 0.0
C361 C 0.40528 0.08144 0.57196 0.0
C362 C 0.4557 0.07674 0.57899 0.0
C363 C 0.42106 0.08571 0.54406 0.0
C364 C 0.4969 0.08271 0.55324 0.0
C365 C 0.51848 0.06982 0.61575 0.0
N366 N 0.44537 0.08339 0.5483 0.0
N367 N 0.49383 0.06966 0.61203 0.0
H368 H 0.8238 0.1582 0.92677 0.0
H369 H 0.7999 0.27562 0.82612 0.0
H370 H 0.81079 0.16513 0.81599 0.0
H371 H 0.82792 0.27427 0.93162 0.0
H372 H 0.7929 0.23435 0.82827 0.0
H373 H 0.81574 0.19963 0.93447 0.0
C374 C 0.81876 0.16835 0.90427 0.0
C375 C 0.81826 0.15845 0.87063 0.0
C376 C 0.80027 0.243 0.85125 0.0
C377 C 0.80889 0.20531 0.87917 0.0
C378 C 0.80414 0.26657 0.85003 0.0
C379 C 0.81468 0.27815 0.8786 0.0
C380 C 0.80758 0.23074 0.88095 0.0
C381 C 0.81976 0.26579 0.90907 0.0
C382 C 0.81427 0.19191 0.90864 0.0
C383 C 0.81172 0.17221 0.84229 0.0
N384 N 0.81662 0.24253 0.90926 0.0
N385 N 0.80743 0.19488 0.84719 0.0
H386 H 0.65498 0.6634 0.40459 0.0
H387 H 0.57639 0.77726 0.40956 0.0
H388 H 0.57723 0.66618 0.41567 0.0
H389 H 0.65413 0.7782 0.39778 0.0
H390 H 0.57826 0.73699 0.42594 0.0
H391 H 0.65708 0.70514 0.4156 0.0
C392 C 0.63849 0.67269 0.41058 0.0
C393 C 0.61588 0.66154 0.40903 0.0
C394 C 0.59506 0.74595 0.42039 0.0
C395 C 0.61801 0.70894 0.42104 0.0
C396 C 0.59394 0.76897 0.41116 0.0
C397 C 0.6151 0.78086 0.40222 0.0
C398 C 0.61745 0.73445 0.4196 0.0
C399 C 0.63744 0.76948 0.40463 0.0
C400 C 0.63965 0.69649 0.41657 0.0
C401 C 0.59499 0.67426 0.41642 0.0
N402 N 0.63801 0.74667 0.41239 0.0
N403 N 0.59653 0.69727 0.4217 0.0
H404 H 0.7976 0.66696 0.04674 0.0
H405 H 0.87153 0.77562 0.12162 0.0
H406 H 0.85508 0.66504 0.12407 0.0
H407 H 0.8053 0.78388 0.06199 0.0
H408 H 0.86796 0.73442 0.11481 0.0
H409 H 0.80165 0.70918 0.04542 0.0
C410 C 0.81104 0.67536 0.06332 0.0
C411 C 0.82599 0.66247 0.08559 0.0
C412 C 0.85413 0.74511 0.1031 0.0
C413 C 0.83083 0.71033 0.08396 0.0
C414 C 0.85618 0.76875 0.10695 0.0
C415 C 0.83849 0.78325 0.09278 0.0
C416 C 0.83413 0.73562 0.08507 0.0
C417 C 0.81928 0.77327 0.07349 0.0
C418 C 0.81332 0.69938 0.06256 0.0
C419 C 0.84309 0.67418 0.10654 0.0
N420 N 0.81745 0.74994 0.07043 0.0
N421 N 0.84502 0.69731 0.10514 0.0
H422 H 0.62517 0.27993 0.55073 0.0
H423 H 0.62761 0.16532 0.66449 0.0
H424 H 0.6226 0.27659 0.66338 0.0
H425 H 0.62131 0.1631 0.55196 0.0
H426 H 0.63353 0.20657 0.66234 0.0
H427 H 0.63061 0.23784 0.54849 0.0
C428 C 0.6261 0.27041 0.5749 0.0
C429 C 0.62308 0.28164 0.60727 0.0
C430 C 0.63101 0.1972 0.63795 0.0
C431 C 0.62943 0.23397 0.60495 0.0
C432 C 0.62765 0.17359 0.6392 0.0
C433 C 0.6236 0.16088 0.60841 0.0
C434 C 0.6299 0.20847 0.60566 0.0
C435 C 0.62426 0.17239 0.5763 0.0
C436 C 0.62912 0.24646 0.57361 0.0
C437 C 0.62442 0.26859 0.63782 0.0
N438 N 0.62693 0.19571 0.57574 0.0
N439 N 0.62738 0.24557 0.63587 0.0
H440 H 0.03348 0.37972 0.82818 0.0
H441 H 0.91379 0.3474 0.93542 0.0
H442 H 0.03402 0.34904 0.93057 0.0
H443 H 0.91177 0.37561 0.83139 0.0
H444 H 0.958 0.34924 0.93451 0.0
H445 H -0.01101 0.37977 0.82924 0.0
C446 C 0.02425 0.37307 0.8509 0.0
C447 C 0.03745 0.36432 0.8793 0.0
C448 C 0.94794 0.35506 0.91186 0.0
C449 C -0.01332 0.3643 0.88068 0.0
C450 C 0.92266 0.35402 0.91238 0.0
C451 C 0.90908 0.36132 0.88341 0.0
C452 C 0.9598 0.36348 0.88216 0.0
C453 C 0.92156 0.36977 0.85428 0.0
C454 C -0.00113 0.37308 0.85148 0.0
C455 C 0.02458 0.35591 0.90806 0.0
N456 N 0.94625 0.37059 0.85437 0.0
N457 N -5e-05 0.35608 0.90798 0.0
H458 H 0.53451 0.58051 0.43603 0.0
H459 H 0.41447 0.55684 0.3214 0.0
H460 H 0.53653 0.56299 0.32605 0.0
H461 H 0.41467 0.58168 0.42822 0.0
H462 H 0.45902 0.55564 0.32326 0.0
H463 H 0.49041 0.57758 0.43435 0.0
C464 C 0.52567 0.57596 0.4115 0.0
C465 C 0.53922 0.57211 0.38108 0.0
C466 C 0.44926 0.56126 0.34629 0.0
C467 C 0.48855 0.56877 0.37892 0.0
C468 C 0.42386 0.56189 0.34527 0.0
C469 C 0.41086 0.56947 0.37465 0.0
C470 C 0.46164 0.56815 0.37696 0.0
C471 C 0.42392 0.57584 0.40489 0.0
C472 C 0.50043 0.57431 0.41054 0.0
C473 C 0.52675 0.56617 0.35009 0.0
N474 N 0.44854 0.57507 0.40521 0.0
N475 N 0.50207 0.56476 0.34976 0.0
H476 H 0.53339 0.35417 0.54074 0.0
H477 H 0.41294 0.38634 0.6464 0.0
H478 H 0.53487 0.38464 0.6442 0.0
H479 H 0.4134 0.35538 0.54328 0.0
H480 H 0.45745 0.38765 0.64562 0.0
H481 H 0.48925 0.35627 0.54067 0.0
C482 C 0.52441 0.36137 0.56345 0.0
C483 C 0.53782 0.36915 0.59258 0.0
C484 C 0.44777 0.38066 0.62315 0.0
C485 C 0.48713 0.37157 0.59275 0.0
C486 C 0.42239 0.37993 0.62356 0.0
C487 C 0.40947 0.37065 0.59492 0.0
C488 C 0.46023 0.37206 0.59387 0.0
C489 C 0.42261 0.36259 0.566 0.0
C490 C 0.49917 0.36258 0.5634 0.0
C491 C 0.5252 0.37841 0.62121 0.0
N492 N 0.44723 0.36343 0.56628 0.0
N493 N 0.50052 0.37928 0.62064 0.0
H494 H 0.03225 0.57238 0.03466 0.0
H495 H 0.90536 0.56941 0.13535 0.0
H496 H 0.0279 0.56674 0.14697 0.0
H497 H 0.91389 0.57924 0.02427 0.0
H498 H 0.94948 0.56378 0.1406 0.0
H499 H -0.01169 0.57007 0.03081 0.0
C500 C 0.02201 0.57054 0.05859 0.0
C501 C 0.03374 0.57001 0.09122 0.0
C502 C 0.94158 0.56698 0.1151 0.0
C503 C -0.01692 0.56754 0.08706 0.0
C504 C 0.91643 0.57013 0.11207 0.0
C505 C 0.90596 0.57506 0.07938 0.0
C506 C 0.95618 0.56865 0.08518 0.0
C507 C 0.92114 0.57579 0.05008 0.0
C508 C -0.00316 0.56921 0.05638 0.0
C509 C 0.01951 0.56731 0.1213 0.0
N510 N 0.9454 0.57274 0.05373 0.0
N511 N -0.00517 0.56642 0.11855 0.0
H512 H 0.14114 0.5004 0.08383 0.0
H513 H 0.14829 0.43975 0.89644 0.0
H514 H 0.14175 0.53692 -0.01393 0.0
H515 H 0.13887 0.40284 -0.00716 0.0
H516 H 0.15442 0.47512 0.92996 0.0
H517 H 0.14864 0.46463 0.05199 0.0
C518 C 0.14317 0.50095 0.05567 0.0
C519 C 0.14044 0.52164 0.03748 0.0
C520 C 0.1513 0.45927 0.94386 0.0
C521 C 0.14892 0.48068 0.00091 0.0
C522 C 0.14781 0.43903 0.92475 0.0
C523 C 0.14265 0.41838 0.9419 0.0
C524 C 0.14947 0.45894 0.98043 0.0
C525 C 0.14259 0.41842 0.97858 0.0
C526 C 0.14743 0.48049 0.03753 0.0
C527 C 0.1435 0.52134 0.00109 0.0
N528 N 0.1456 0.4385 -0.00334 0.0
N529 N 0.14729 0.50112 0.98395 0.0
H530 H 0.65375 0.84344 0.2277 0.0
H531 H 0.79736 0.86154 0.24473 0.0
H532 H 0.6899 0.86253 0.32443 0.0
H533 H 0.75917 0.85922 0.14565 0.0
H534 H 0.75831 0.85991 0.27482 0.0
H535 H 0.69258 0.84695 0.1973 0.0
C536 C 0.66981 0.84838 0.24253 0.0
C537 C 0.66856 0.85268 0.27866 0.0
C538 C 0.75851 0.85987 0.24648 0.0
C539 C 0.71298 0.85663 0.24414 0.0
C540 C 0.78079 0.86078 0.22931 0.0
C541 C 0.78156 0.8605 0.19263 0.0
C542 C 0.73688 0.85843 0.22683 0.0
C543 C 0.75948 0.85952 0.17398 0.0
C544 C 0.69194 0.85044 0.22516 0.0
C545 C 0.68997 0.85908 0.29654 0.0
N546 N 0.73807 0.85838 0.19128 0.0
N547 N 0.71129 0.86075 0.27914 0.0
H548 H 0.30381 0.40185 0.48124 0.0
H549 H 0.30336 0.53859 0.48493 0.0
H550 H 0.30052 0.44278 0.57591 0.0
H551 H 0.30206 0.49777 0.38998 0.0
H552 H 0.29603 0.50372 0.51854 0.0
H553 H 0.2969 0.4366 0.44709 0.0
C554 C 0.30125 0.41806 0.49484 0.0
C555 C 0.30316 0.4195 0.53139 0.0
C556 C 0.29702 0.50244 0.4903 0.0
C557 C 0.2955 0.45929 0.49264 0.0
C558 C 0.30116 0.52236 0.47112 0.0
C559 C 0.30372 0.52102 0.4347 0.0
C560 C 0.29562 0.48106 0.47288 0.0
C561 C 0.30057 0.49956 0.41811 0.0
C562 C 0.29735 0.43791 0.47537 0.0
C563 C 0.29956 0.44093 0.54771 0.0
N564 N 0.29701 0.48039 0.43735 0.0
N565 N 0.29623 0.46001 0.52822 0.0
H566 H 0.68533 0.06982 0.6428 0.0
H567 H 0.76055 0.06701 0.82217 0.0
H568 H 0.65213 0.07345 0.7448 0.0
H569 H 0.79342 0.07685 0.72107 0.0
H570 H 0.72094 0.06345 0.79376 0.0
H571 H 0.72502 0.06648 0.67079 0.0
C572 C 0.68632 0.06974 0.67112 0.0
C573 C 0.66531 0.07214 0.6915 0.0
C574 C 0.73682 0.06624 0.77777 0.0
C575 C 0.71088 0.06834 0.72367 0.0
C576 C 0.75951 0.06824 0.79394 0.0
C577 C 0.78039 0.07244 0.77399 0.0
C578 C 0.73493 0.06839 0.74134 0.0
C579 C 0.77783 0.07375 0.73751 0.0
C580 C 0.70906 0.06788 0.68706 0.0
C581 C 0.66782 0.07178 0.72806 0.0
N582 N 0.75548 0.07185 0.72237 0.0
N583 N 0.69022 0.07006 0.74298 0.0
H584 H 0.81128 0.4072 -0.00753 0.0
H585 H 0.79904 0.54127 0.95565 0.0
H586 H 0.79778 0.43616 0.89068 0.0
H587 H 0.80804 0.51354 0.05929 0.0
H588 H 0.79361 0.50237 0.93264 0.0
H589 H 0.80515 0.44533 0.01888 0.0
C590 C 0.80664 0.42147 0.97578 0.0
C591 C 0.80539 0.4186 0.93933 0.0
C592 C 0.79652 0.50477 0.96049 0.0
C593 C 0.79856 0.46213 0.96913 0.0
C594 C 0.79964 0.52702 0.97364 0.0
C595 C 0.80431 0.53068 0.00938 0.0
C596 C 0.79834 0.48597 0.98315 0.0
C597 C 0.80467 0.51152 0.03149 0.0
C598 C 0.80321 0.44323 -0.00919 0.0
C599 C 0.79928 0.43765 0.91888 0.0
N600 N 0.80205 0.48997 0.01795 0.0
N601 N 0.79636 0.4586 0.93401 0.0
H602 H 0.15139 0.06841 0.75171 0.0
H603 H 0.29372 0.06839 0.71105 0.0
H604 H 0.20732 0.06539 0.83123 0.0
H605 H 0.23785 0.07134 0.63142 0.0
H606 H 0.26225 0.06271 0.7551 0.0
H607 H 0.18267 0.06474 0.7068 0.0
C608 C 0.1702 0.06668 0.75972 0.0
C609 C 0.17679 0.06748 0.79522 0.0
C610 C 0.2569 0.0644 0.72793 0.0
C611 C 0.21266 0.06348 0.7441 0.0
C612 C 0.27487 0.06764 0.7028 0.0
C613 C 0.26838 0.0706 0.6676 0.0
C614 C 0.2323 0.06421 0.71776 0.0
C615 C 0.24367 0.06936 0.65833 0.0
C616 C 0.18806 0.06464 0.7341 0.0
C617 C 0.20143 0.0651 0.80414 0.0
N618 N 0.22653 0.06645 0.68329 0.0
N619 N 0.21848 0.06342 0.77876 0.0
H620 H 0.64821 0.53797 0.49096 0.0
H621 H 0.64075 0.40121 0.4806 0.0
H622 H 0.64227 0.49951 0.39408 0.0
H623 H 0.64964 0.44002 0.57672 0.0
H624 H 0.64728 0.43657 0.44764 0.0
H625 H 0.65468 0.502 0.52209 0.0
C626 C 0.6486 0.522 0.47618 0.0
C627 C 0.64437 0.52171 0.43997 0.0
C628 C 0.64813 0.43727 0.47595 0.0
C629 C 0.6515 0.48046 0.47539 0.0
C630 C 0.64449 0.41707 0.49474 0.0
C631 C 0.64429 0.41775 0.53142 0.0
C632 C 0.6515 0.45823 0.49404 0.0
C633 C 0.64928 0.43876 0.54843 0.0
C634 C 0.65226 0.50145 0.49396 0.0
C635 C 0.6452 0.50052 0.4221 0.0
N636 N 0.65239 0.45818 0.52963 0.0
N637 N 0.64836 0.48073 0.44004 0.0
H638 H 0.28831 0.85998 0.25243 0.0
H639 H 0.14349 0.85242 0.24252 0.0
H640 H 0.24111 0.86579 0.34186 0.0
H641 H 0.18786 0.86065 0.15068 0.0
H642 H 0.17975 0.85637 0.27901 0.0
H643 H 0.25233 0.86 0.21401 0.0
C644 C 0.27045 0.8615 0.26393 0.0
C645 C 0.26768 0.86269 0.30037 0.0
C646 C 0.18159 0.8574 0.25087 0.0
C647 C 0.22666 0.86248 0.25686 0.0
C648 C 0.16087 0.85503 0.23001 0.0
C649 C 0.16263 0.85614 0.19349 0.0
C650 C 0.20433 0.8607 0.23517 0.0
C651 C 0.18567 0.85969 0.17876 0.0
C652 C 0.24996 0.86146 0.24204 0.0
C653 C 0.24414 0.86463 0.31393 0.0
N654 N 0.20566 0.86173 0.19965 0.0
N655 N 0.22459 0.86429 0.29222 0.0
H656 H 0.63469 0.04159 0.47793 0.0
H657 H 0.64584 0.90495 0.48377 0.0
H658 H 0.64249 0.00254 0.57273 0.0
H659 H 0.63764 0.94313 0.38819 0.0
H660 H 0.65102 0.94113 0.51595 0.0
H661 H 0.64199 0.00644 0.44376 0.0
C662 C 0.63829 0.02572 0.49153 0.0
C663 C 0.63762 0.0249 0.52817 0.0
C664 C 0.64837 0.94161 0.48787 0.0
C665 C 0.64582 -0.01529 0.48943 0.0
C666 C 0.64545 0.92093 0.46949 0.0
C667 C 0.64096 0.92104 0.43334 0.0
C668 C 0.64661 0.96255 0.47 0.0
C669 C 0.6408 0.94226 0.41613 0.0
C670 C 0.6424 0.00565 0.47205 0.0
C671 C 0.64248 0.0039 0.54449 0.0
N672 N 0.64325 0.96217 0.43467 0.0
N673 N 0.64612 -0.01537 0.52503 0.0
H674 H 0.25936 0.37546 0.64674 0.0
H675 H 0.18706 0.37483 0.82706 0.0
H676 H 0.294 0.36927 0.74796 0.0
H677 H 0.15257 0.36712 0.72571 0.0
H678 H 0.22618 0.37913 0.79842 0.0
H679 H 0.22015 0.37871 0.67544 0.0
C680 C 0.25878 0.37496 0.67505 0.0
C681 C 0.28003 0.37184 0.69498 0.0
C682 C 0.21004 0.37664 0.78244 0.0
C683 C 0.23507 0.37555 0.72794 0.0
C684 C 0.18765 0.37422 0.79874 0.0
C685 C 0.16648 0.37036 0.77874 0.0
C686 C 0.21134 0.37526 0.74585 0.0
C687 C 0.16842 0.3699 0.74216 0.0
C688 C 0.23634 0.37678 0.69138 0.0
C689 C 0.2781 0.37148 0.73155 0.0
N690 N 0.1905 0.37217 0.72688 0.0
N691 N 0.25596 0.37318 0.74687 0.0
H692 H 0.80465 0.03802 0.98251 0.0
H693 H 0.80562 0.90104 0.97817 0.0
H694 H 0.81172 -0.00279 0.88821 0.0
H695 H 0.79762 0.94164 0.07249 0.0
H696 H 0.80102 0.93593 0.94368 0.0
H697 H 0.79578 0.00294 0.01494 0.0
C698 C 0.8041 0.02172 0.96858 0.0
C699 C 0.8093 0.02048 0.93275 0.0
C700 C 0.79991 0.93716 0.97192 0.0
C701 C 0.79923 -0.01967 0.96957 0.0
C702 C 0.80242 0.91721 -0.00841 0.0
C703 C 0.80241 0.9185 0.02824 0.0
C704 C 0.79752 0.95851 -0.01092 0.0
C705 C 0.7981 0.9399 0.04428 0.0
C706 C 0.79901 0.0017 -0.01294 0.0
C707 C 0.80814 -0.00106 0.91593 0.0
N708 N 0.79618 0.9591 0.02463 0.0
N709 N 0.80349 -0.02029 0.93453 0.0
H710 H 0.15056 0.59223 0.24437 0.0
H711 H 0.29378 0.57615 0.22097 0.0
H712 H 0.18475 0.57761 0.14524 0.0
H713 H 0.25862 0.57761 0.32168 0.0
H714 H 0.25388 0.57745 0.19265 0.0
H715 H 0.19011 0.58804 0.27341 0.0
C716 C 0.16633 0.58814 0.22874 0.0
C717 C 0.16432 0.58532 0.19233 0.0
C718 C 0.25491 0.57734 0.22096 0.0
C719 C 0.20951 0.58055 0.22525 0.0
C720 C 0.27769 0.57659 0.23712 0.0
C721 C 0.27958 0.57683 0.27373 0.0
C722 C 0.23388 0.57855 0.24156 0.0
C723 C 0.25807 0.5774 0.29336 0.0
C724 C 0.18887 0.58568 0.24531 0.0
C725 C 0.18537 0.57995 0.17337 0.0
N726 N 0.23614 0.5784 0.27703 0.0
N727 N 0.20706 0.57784 0.19002 0.0
H728 H 0.31114 0.0375 0.44642 0.0
H729 H 0.30846 0.90742 0.51043 0.0
H730 H 0.29994 0.01769 0.55376 0.0
H731 H 0.31071 0.92678 0.40168 0.0
H732 H 0.30247 0.94777 0.52646 0.0
H733 H 0.30792 -0.00295 0.4288 0.0
C734 C 0.30769 0.02472 0.4662 0.0
C735 C 0.30611 0.03098 0.50165 0.0
C736 C 0.30405 0.94314 0.49906 0.0
C737 C 0.30266 -0.01529 0.48179 0.0
C738 C 0.30749 0.9201 0.48992 0.0
C739 C 0.31033 0.91371 0.45472 0.0
C740 C 0.30363 0.95991 0.47281 0.0
C741 C 0.3088 0.93089 0.42921 0.0
C742 C 0.30591 0.00161 0.45616 0.0
C743 C 0.30157 0.01366 0.52615 0.0
N744 N 0.30579 0.9532 0.43878 0.0
N745 N 0.30027 -0.00866 0.51582 0.0
H746 H 0.75294 0.54848 0.15655 0.0
H747 H 0.66647 0.62332 0.26349 0.0
H748 H 0.78374 0.60809 0.20831 0.0
H749 H 0.67329 0.55318 0.29737 0.0
H750 H 0.70443 0.61908 0.23041 0.0
H751 H 0.71837 0.54998 0.19704 0.0
C752 C 0.75257 0.5616 0.17685 0.0
C753 C 0.77114 0.57807 0.17952 0.0
C754 C 0.6975 0.6047 0.24518 0.0
C755 C 0.7316 0.58042 0.22427 0.0
C756 C 0.67588 0.60702 0.26367 0.0
C757 C 0.6669 0.58854 0.28296 0.0
C758 C 0.70961 0.58358 0.2452 0.0
C759 C 0.67978 0.5678 0.28277 0.0
C760 C 0.73296 0.56244 0.19974 0.0
C761 C 0.76984 0.59494 0.20587 0.0
N762 N 0.7004 0.56571 0.26366 0.0
N763 N 0.75003 0.59602 0.22685 0.0
H764 H 0.1395 0.90887 0.98248 0.0
H765 H 0.14512 0.04347 0.02057 0.0
H766 H 0.15327 0.93875 0.08458 0.0
H767 H 0.1412 0.0142 0.91637 0.0
H768 H 0.1519 0.00509 0.04381 0.0
H769 H 0.14445 0.94695 0.9567 0.0
C770 C 0.14406 0.92333 -0.00063 0.0
C771 C 0.14563 0.92071 0.03575 0.0
C772 C 0.1498 0.00708 0.0158 0.0
C773 C 0.15092 0.96428 0.00663 0.0
C774 C 0.14587 0.02901 0.00255 0.0
C775 C 0.14231 0.03205 0.96652 0.0
C776 C 0.14994 -0.012 -0.00707 0.0
C777 C 0.14366 0.01267 0.94438 0.0
C778 C 0.14677 0.94509 0.98469 0.0
C779 C 0.15157 0.94003 0.05642 0.0
N780 N 0.14709 -0.00854 0.95797 0.0
N781 N 0.15366 0.96102 0.04164 0.0
H782 H 0.6512 0.36729 0.74876 0.0
H783 H 0.79514 0.35923 0.72976 0.0
H784 H 0.68828 0.36948 0.64956 0.0
H785 H 0.75889 0.36793 0.82888 0.0
H786 H 0.75621 0.36426 0.69979 0.0
H787 H 0.69055 0.36896 0.77872 0.0
C788 C 0.66758 0.36832 0.73328 0.0
C789 C 0.66643 0.36805 0.69659 0.0
C790 C 0.75682 0.36525 0.7281 0.0
C791 C 0.71149 0.36978 0.73067 0.0
C792 C 0.77905 0.36235 0.74521 0.0
C793 C 0.78027 0.36299 0.78189 0.0
C794 C 0.73565 0.36863 0.7478 0.0
C795 C 0.75882 0.36718 0.80056 0.0
C796 C 0.69004 0.36927 0.7504 0.0
C797 C 0.68826 0.36951 0.67789 0.0
N798 N 0.73737 0.36965 0.78332 0.0
N799 N 0.70988 0.3701 0.69513 0.0
loop_
_geom_bond_atom_site_label_1
_geom_bond_atom_site_label_2
_geom_bond_distance
_geom_bond_site_symmetry_2
_ccdc_geom_bond_type
C0 O1 1.306 . S
C0 O3 1.160 . S
O1 C0 1.306 . S
O1 Cd2 2.228 . S
Cd2 O1 2.228 . S
Cd2 O6 2.273 . S
Cd2 O10 2.277 . S
O3 C0 1.160 . S
O3 Cd4 2.203 . S
Cd4 O3 2.203 . S
Cd4 O6 2.411 . S
Cd4 O7 2.333 . S
Cd4 O8 2.352 . S
Cd4 O12 2.277 . S
Cd4 O13 2.356 . S
C5 O10 1.209 . S
C5 O12 1.226 . S
O6 Cd2 2.273 . S
O6 Cd4 2.411 . S
O6 C9 1.320 . S
O7 Cd4 2.333 . S
O7 C9 1.214 . S
O8 Cd4 2.352 . S
O8 C11 1.258 . S
C9 O6 1.320 . S
C9 O7 1.214 . S
O10 Cd2 2.277 . S
O10 C5 1.209 . S
C11 O8 1.258 . S
C11 O13 1.282 . S
O12 Cd4 2.277 . S
O12 C5 1.226 . S
O13 Cd4 2.356 . S
O13 C11 1.282 . S
C14 O15 1.306 . S
C14 O17 1.160 . S
O15 C14 1.306 . S
O15 Cd16 2.228 . S
Cd16 O15 2.228 . S
Cd16 O20 2.273 . S
Cd16 O24 2.277 . S
O17 C14 1.160 . S
O17 Cd18 2.203 . S
Cd18 O17 2.203 . S
Cd18 O20 2.411 . S
Cd18 O21 2.333 . S
Cd18 O22 2.352 . S
Cd18 O26 2.277 . S
Cd18 O27 2.356 . S
C19 O24 1.209 . S
C19 O26 1.226 . S
O20 Cd16 2.273 . S
O20 Cd18 2.411 . S
O20 C23 1.320 . S
O21 Cd18 2.333 . S
O21 C23 1.214 . S
O22 Cd18 2.352 . S
O22 C25 1.258 . S
C23 O20 1.320 . S
C23 O21 1.214 . S
O24 Cd16 2.277 . S
O24 C19 1.209 . S
C25 O22 1.258 . S
C25 O27 1.282 . S
O26 Cd18 2.277 . S
O26 C19 1.226 . S
O27 Cd18 2.356 . S
O27 C25 1.282 . S
C28 O29 1.306 . S
C28 O31 1.160 . S
O29 C28 1.306 . S
O29 Cd30 2.228 . S
Cd30 O29 2.228 . S
Cd30 O34 2.273 . S
Cd30 O38 2.277 . S
O31 C28 1.160 . S
O31 Cd32 2.203 . S
Cd32 O31 2.203 . S
Cd32 O34 2.411 . S
Cd32 O35 2.333 . S
Cd32 O36 2.352 . S
Cd32 O40 2.277 . S
Cd32 O41 2.356 . S
C33 O38 1.209 . S
C33 O40 1.226 . S
O34 Cd30 2.273 . S
O34 Cd32 2.411 . S
O34 C37 1.320 . S
O35 Cd32 2.333 . S
O35 C37 1.214 . S
O36 Cd32 2.352 . S
O36 C39 1.258 . S
C37 O34 1.320 . S
C37 O35 1.214 . S
O38 Cd30 2.277 . S
O38 C33 1.209 . S
C39 O36 1.258 . S
C39 O41 1.282 . S
O40 Cd32 2.277 . S
O40 C33 1.226 . S
O41 Cd32 2.356 . S
O41 C39 1.282 . S
C42 O43 1.306 . S
C42 O45 1.160 . S
O43 C42 1.306 . S
O43 Cd44 2.228 . S
Cd44 O43 2.228 . S
Cd44 O48 2.273 . S
Cd44 O52 2.277 . S
O45 C42 1.160 . S
O45 Cd46 2.203 . S
Cd46 O45 2.203 . S
Cd46 O48 2.411 . S
Cd46 O49 2.333 . S
Cd46 O50 2.352 . S
Cd46 O54 2.277 . S
Cd46 O55 2.356 . S
C47 O52 1.209 . S
C47 O54 1.226 . S
O48 Cd44 2.273 . S
O48 Cd46 2.411 . S
O48 C51 1.320 . S
O49 Cd46 2.333 . S
O49 C51 1.214 . S
O50 Cd46 2.352 . S
O50 C53 1.258 . S
C51 O48 1.320 . S
C51 O49 1.214 . S
O52 Cd44 2.277 . S
O52 C47 1.209 . S
C53 O50 1.258 . S
C53 O55 1.282 . S
O54 Cd46 2.277 . S
O54 C47 1.226 . S
O55 Cd46 2.356 . S
O55 C53 1.282 . S
C56 O57 1.306 . S
C56 O59 1.160 . S
O57 C56 1.306 . S
O57 Cd58 2.228 . S
Cd58 O57 2.228 . S
Cd58 O62 2.273 . S
Cd58 O66 2.277 . S
O59 C56 1.160 . S
O59 Cd60 2.203 . S
Cd60 O59 2.203 . S
Cd60 O62 2.411 . S
Cd60 O63 2.333 . S
Cd60 O64 2.352 . S
Cd60 O68 2.277 . S
Cd60 O69 2.356 . S
C61 O66 1.209 . S
C61 O68 1.226 . S
O62 Cd58 2.273 . S
O62 Cd60 2.411 . S
O62 C65 1.320 . S
O63 Cd60 2.333 . S
O63 C65 1.214 . S
O64 Cd60 2.352 . S
O64 C67 1.258 . S
C65 O62 1.320 . S
C65 O63 1.214 . S
O66 Cd58 2.277 . S
O66 C61 1.209 . S
C67 O64 1.258 . S
C67 O69 1.282 . S
O68 Cd60 2.277 . S
O68 C61 1.226 . S
O69 Cd60 2.356 . S
O69 C67 1.282 . S
C70 O71 1.306 . S
C70 O73 1.160 . S
O71 C70 1.306 . S
O71 Cd72 2.228 . S
Cd72 O71 2.228 . S
Cd72 O76 2.273 . S
Cd72 O80 2.277 . S
O73 C70 1.160 . S
O73 Cd74 2.203 . S
Cd74 O73 2.203 . S
Cd74 O76 2.411 . S
Cd74 O77 2.333 . S
Cd74 O78 2.352 . S
Cd74 O82 2.277 . S
Cd74 O83 2.356 . S
C75 O80 1.209 . S
C75 O82 1.226 . S
O76 Cd72 2.273 . S
O76 Cd74 2.411 . S
O76 C79 1.320 . S
O77 Cd74 2.333 . S
O77 C79 1.214 . S
O78 Cd74 2.352 . S
O78 C81 1.258 . S
C79 O76 1.320 . S
C79 O77 1.214 . S
O80 Cd72 2.277 . S
O80 C75 1.209 . S
C81 O78 1.258 . S
C81 O83 1.282 . S
O82 Cd74 2.277 . S
O82 C75 1.226 . S
O83 Cd74 2.356 . S
O83 C81 1.282 . S
C84 O85 1.306 . S
C84 O87 1.160 . S
O85 C84 1.306 . S
O85 Cd86 2.228 . S
Cd86 O85 2.228 . S
Cd86 O90 2.273 . S
Cd86 O94 2.277 . S
O87 C84 1.160 . S
O87 Cd88 2.203 . S
Cd88 O87 2.203 . S
Cd88 O90 2.411 . S
Cd88 O91 2.333 . S
Cd88 O92 2.352 . S
Cd88 O96 2.277 . S
Cd88 O97 2.356 . S
C89 O94 1.209 . S
C89 O96 1.226 . S
O90 Cd86 2.273 . S
O90 Cd88 2.411 . S
O90 C93 1.320 . S
O91 Cd88 2.333 . S
O91 C93 1.214 . S
O92 Cd88 2.352 . S
O92 C95 1.258 . S
C93 O90 1.320 . S
C93 O91 1.214 . S
O94 Cd86 2.277 . S
O94 C89 1.209 . S
C95 O92 1.258 . S
C95 O97 1.282 . S
O96 Cd88 2.277 . S
O96 C89 1.226 . S
O97 Cd88 2.356 . S
O97 C95 1.282 . S
C98 O99 1.306 . S
C98 O101 1.160 . S
O99 C98 1.306 . S
O99 Cd100 2.228 . S
Cd100 O99 2.228 . S
Cd100 O104 2.273 . S
Cd100 O108 2.277 . S
O101 C98 1.160 . S
O101 Cd102 2.203 . S
Cd102 O101 2.203 . S
Cd102 O104 2.411 . S
Cd102 O105 2.333 . S
Cd102 O106 2.352 . S
Cd102 O110 2.277 . S
Cd102 O111 2.356 . S
C103 O108 1.209 . S
C103 O110 1.226 . S
O104 Cd100 2.273 . S
O104 Cd102 2.411 . S
O104 C107 1.320 . S
O105 Cd102 2.333 . S
O105 C107 1.214 . S
O106 Cd102 2.352 . S
O106 C109 1.258 . S
C107 O104 1.320 . S
C107 O105 1.214 . S
O108 Cd100 2.277 . S
O108 C103 1.209 . S
C109 O106 1.258 . S
C109 O111 1.282 . S
O110 Cd102 2.277 . S
O110 C103 1.226 . S
O111 Cd102 2.356 . S
O111 C109 1.282 . S
C112 O113 1.306 . S
C112 O115 1.160 . S
O113 C112 1.306 . S
O113 Cd114 2.228 . S
Cd114 O113 2.228 . S
Cd114 O118 2.273 . S
Cd114 O122 2.277 . S
O115 C112 1.160 . S
O115 Cd116 2.203 . S
Cd116 O115 2.203 . S
Cd116 O118 2.411 . S
Cd116 O119 2.333 . S
Cd116 O120 2.352 . S
Cd116 O124 2.277 . S
Cd116 O125 2.356 . S
C117 O122 1.209 . S
C117 O124 1.226 . S
O118 Cd114 2.273 . S
O118 Cd116 2.411 . S
O118 C121 1.320 . S
O119 Cd116 2.333 . S
O119 C121 1.214 . S
O120 Cd116 2.352 . S
O120 C123 1.258 . S
C121 O118 1.320 . S
C121 O119 1.214 . S
O122 Cd114 2.277 . S
O122 C117 1.209 . S
C123 O120 1.258 . S
C123 O125 1.282 . S
O124 Cd116 2.277 . S
O124 C117 1.226 . S
O125 Cd116 2.356 . S
O125 C123 1.282 . S
C126 O127 1.306 . S
C126 O129 1.160 . S
O127 C126 1.306 . S
O127 Cd128 2.228 . S
Cd128 O127 2.228 . S
Cd128 O132 2.273 . S
Cd128 O136 2.277 . S
O129 C126 1.160 . S
O129 Cd130 2.203 . S
Cd130 O129 2.203 . S
Cd130 O132 2.411 . S
Cd130 O133 2.333 . S
Cd130 O134 2.352 . S
Cd130 O138 2.277 . S
Cd130 O139 2.356 . S
C131 O136 1.209 . S
C131 O138 1.226 . S
O132 Cd128 2.273 . S
O132 Cd130 2.411 . S
O132 C135 1.320 . S
O133 Cd130 2.333 . S
O133 C135 1.214 . S
O134 Cd130 2.352 . S
O134 C137 1.258 . S
C135 O132 1.320 . S
C135 O133 1.214 . S
O136 Cd128 2.277 . S
O136 C131 1.209 . S
C137 O134 1.258 . S
C137 O139 1.282 . S
O138 Cd130 2.277 . S
O138 C131 1.226 . S
O139 Cd130 2.356 . S
O139 C137 1.282 . S
C140 O141 1.306 . S
C140 O143 1.160 . S
O141 C140 1.306 . S
O141 Cd142 2.228 . S
Cd142 O141 2.228 . S
Cd142 O146 2.273 . S
Cd142 O150 2.277 . S
O143 C140 1.160 . S
O143 Cd144 2.203 . S
Cd144 O143 2.203 . S
Cd144 O146 2.411 . S
Cd144 O147 2.333 . S
Cd144 O148 2.352 . S
Cd144 O152 2.277 . S
Cd144 O153 2.356 . S
C145 O150 1.209 . S
C145 O152 1.226 . S
O146 Cd142 2.273 . S
O146 Cd144 2.411 . S
O146 C149 1.320 . S
O147 Cd144 2.333 . S
O147 C149 1.214 . S
O148 Cd144 2.352 . S
O148 C151 1.258 . S
C149 O146 1.320 . S
C149 O147 1.214 . S
O150 Cd142 2.277 . S
O150 C145 1.209 . S
C151 O148 1.258 . S
C151 O153 1.282 . S
O152 Cd144 2.277 . S
O152 C145 1.226 . S
O153 Cd144 2.356 . S
O153 C151 1.282 . S
C154 O155 1.306 . S
C154 O157 1.160 . S
O155 C154 1.306 . S
O155 Cd156 2.228 . S
Cd156 O155 2.228 . S
Cd156 O160 2.273 . S
Cd156 O164 2.277 . S
O157 C154 1.160 . S
O157 Cd158 2.203 . S
Cd158 O157 2.203 . S
Cd158 O160 2.411 . S
Cd158 O161 2.333 . S
Cd158 O162 2.352 . S
Cd158 O166 2.277 . S
Cd158 O167 2.356 . S
C159 O164 1.209 . S
C159 O166 1.226 . S
O160 Cd156 2.273 . S
O160 Cd158 2.411 . S
O160 C163 1.320 . S
O161 Cd158 2.333 . S
O161 C163 1.214 . S
O162 Cd158 2.352 . S
O162 C165 1.258 . S
C163 O160 1.320 . S
C163 O161 1.214 . S
O164 Cd156 2.277 . S
O164 C159 1.209 . S
C165 O162 1.258 . S
C165 O167 1.282 . S
O166 Cd158 2.277 . S
O166 C159 1.226 . S
O167 Cd158 2.356 . S
O167 C165 1.282 . S
C168 O169 1.306 . S
C168 O171 1.160 . S
O169 C168 1.306 . S
O169 Cd170 2.228 . S
Cd170 O169 2.228 . S
Cd170 O174 2.273 . S
Cd170 O178 2.277 . S
O171 C168 1.160 . S
O171 Cd172 2.203 . S
Cd172 O171 2.203 . S
Cd172 O174 2.411 . S
Cd172 O175 2.333 . S
Cd172 O176 2.352 . S
Cd172 O180 2.277 . S
Cd172 O181 2.356 . S
C173 O178 1.209 . S
C173 O180 1.226 . S
O174 Cd170 2.273 . S
O174 Cd172 2.411 . S
O174 C177 1.320 . S
O175 Cd172 2.333 . S
O175 C177 1.214 . S
O176 Cd172 2.352 . S
O176 C179 1.258 . S
C177 O174 1.320 . S
C177 O175 1.214 . S
O178 Cd170 2.277 . S
O178 C173 1.209 . S
C179 O176 1.258 . S
C179 O181 1.282 . S
O180 Cd172 2.277 . S
O180 C173 1.226 . S
O181 Cd172 2.356 . S
O181 C179 1.282 . S
C182 O183 1.306 . S
C182 O185 1.160 . S
O183 C182 1.306 . S
O183 Cd184 2.228 . S
Cd184 O183 2.228 . S
Cd184 O188 2.273 . S
Cd184 O192 2.277 . S
O185 C182 1.160 . S
O185 Cd186 2.203 . S
Cd186 O185 2.203 . S
Cd186 O188 2.411 . S
Cd186 O189 2.333 . S
Cd186 O190 2.352 . S
Cd186 O194 2.277 . S
Cd186 O195 2.356 . S
C187 O192 1.209 . S
C187 O194 1.226 . S
O188 Cd184 2.273 . S
O188 Cd186 2.411 . S
O188 C191 1.320 . S
O189 Cd186 2.333 . S
O189 C191 1.214 . S
O190 Cd186 2.352 . S
O190 C193 1.258 . S
C191 O188 1.320 . S
C191 O189 1.214 . S
O192 Cd184 2.277 . S
O192 C187 1.209 . S
C193 O190 1.258 . S
C193 O195 1.282 . S
O194 Cd186 2.277 . S
O194 C187 1.226 . S
O195 Cd186 2.356 . S
O195 C193 1.282 . S
C196 O197 1.306 . S
C196 O199 1.160 . S
O197 C196 1.306 . S
O197 Cd198 2.228 . S
Cd198 O197 2.228 . S
Cd198 O202 2.273 . S
Cd198 O206 2.277 . S
O199 C196 1.160 . S
O199 Cd200 2.203 . S
Cd200 O199 2.203 . S
Cd200 O202 2.411 . S
Cd200 O203 2.333 . S
Cd200 O204 2.352 . S
Cd200 O208 2.277 . S
Cd200 O209 2.356 . S
C201 O206 1.209 . S
C201 O208 1.226 . S
O202 Cd198 2.273 . S
O202 Cd200 2.411 . S
O202 C205 1.320 . S
O203 Cd200 2.333 . S
O203 C205 1.214 . S
O204 Cd200 2.352 . S
O204 C207 1.258 . S
C205 O202 1.320 . S
C205 O203 1.214 . S
O206 Cd198 2.277 . S
O206 C201 1.209 . S
C207 O204 1.258 . S
C207 O209 1.282 . S
O208 Cd200 2.277 . S
O208 C201 1.226 . S
O209 Cd200 2.356 . S
O209 C207 1.282 . S
C210 O211 1.306 . S
C210 O213 1.160 . S
O211 C210 1.306 . S
O211 Cd212 2.228 . S
Cd212 O211 2.228 . S
Cd212 O216 2.273 . S
Cd212 O220 2.277 . S
O213 C210 1.160 . S
O213 Cd214 2.203 . S
Cd214 O213 2.203 . S
Cd214 O216 2.411 . S
Cd214 O217 2.333 . S
Cd214 O218 2.352 . S
Cd214 O222 2.277 . S
Cd214 O223 2.356 . S
C215 O220 1.209 . S
C215 O222 1.226 . S
O216 Cd212 2.273 . S
O216 Cd214 2.411 . S
O216 C219 1.320 . S
O217 Cd214 2.333 . S
O217 C219 1.214 . S
O218 Cd214 2.352 . S
O218 C221 1.258 . S
C219 O216 1.320 . S
C219 O217 1.214 . S
O220 Cd212 2.277 . S
O220 C215 1.209 . S
C221 O218 1.258 . S
C221 O223 1.282 . S
O222 Cd214 2.277 . S
O222 C215 1.226 . S
O223 Cd214 2.356 . S
O223 C221 1.282 . S
H224 C230 0.930 . S
H225 C234 0.930 . S
H226 C239 0.929 . S
H227 C237 0.929 . S
H228 C232 0.929 . S
H229 C238 0.929 . S
C230 H224 0.930 . S
C230 C231 1.367 . S
C230 C238 1.378 . S
C231 C230 1.367 . S
C231 C239 1.433 . S
C232 H228 0.929 . S
C232 C234 1.378 . S
C232 C236 1.350 . S
C233 C236 1.463 . S
C233 C238 1.350 . S
C233 N241 1.427 . S
C234 H225 0.930 . S
C234 C232 1.378 . S
C234 C235 1.367 . S
C235 C234 1.367 . S
C235 C237 1.433 . S
C236 C232 1.350 . S
C236 C233 1.463 . S
C236 N240 1.427 . S
C237 H227 0.929 . S
C237 C235 1.433 . S
C237 N240 1.384 . S
C238 H229 0.929 . S
C238 C230 1.378 . S
C238 C233 1.350 . S
C239 H226 0.929 . S
C239 C231 1.433 . S
C239 N241 1.384 . S
N240 C236 1.427 . S
N240 C237 1.384 . S
N241 C233 1.427 . S
N241 C239 1.384 . S
H242 C248 0.930 . S
H243 C252 0.930 . S
H244 C257 0.929 . S
H245 C255 0.929 . S
H246 C250 0.929 . S
H247 C256 0.929 . S
C248 H242 0.930 . S
C248 C249 1.367 . S
C248 C256 1.378 . S
C249 C248 1.367 . S
C249 C257 1.433 . S
C250 H246 0.929 . S
C250 C252 1.378 . S
C250 C254 1.350 . S
C251 C254 1.463 . S
C251 C256 1.350 . S
C251 N259 1.427 . S
C252 H243 0.930 . S
C252 C250 1.378 . S
C252 C253 1.367 . S
C253 C252 1.367 . S
C253 C255 1.433 . S
C254 C250 1.350 . S
C254 C251 1.463 . S
C254 N258 1.427 . S
C255 H245 0.929 . S
C255 C253 1.433 . S
C255 N258 1.384 . S
C256 H247 0.929 . S
C256 C248 1.378 . S
C256 C251 1.350 . S
C257 H244 0.929 . S
C257 C249 1.433 . S
C257 N259 1.384 . S
N258 C254 1.427 . S
N258 C255 1.384 . S
N259 C251 1.427 . S
N259 C257 1.384 . S
H260 C266 0.930 . S
H261 C270 0.930 . S
H262 C275 0.929 . S
H263 C273 0.929 . S
H264 C268 0.929 . S
H265 C274 0.929 . S
C266 H260 0.930 . S
C266 C267 1.367 . S
C266 C274 1.378 . S
C267 C266 1.367 . S
C267 C275 1.433 . S
C268 H264 0.929 . S
C268 C270 1.378 . S
C268 C272 1.350 . S
C269 C272 1.463 . S
C269 C274 1.350 . S
C269 N277 1.427 . S
C270 H261 0.930 . S
C270 C268 1.378 . S
C270 C271 1.367 . S
C271 C270 1.367 . S
C271 C273 1.433 . S
C272 C268 1.350 . S
C272 C269 1.463 . S
C272 N276 1.427 . S
C273 H263 0.929 . S
C273 C271 1.433 . S
C273 N276 1.384 . S
C274 H265 0.929 . S
C274 C266 1.378 . S
C274 C269 1.350 . S
C275 H262 0.929 . S
C275 C267 1.433 . S
C275 N277 1.384 . S
N276 C272 1.427 . S
N276 C273 1.384 . S
N277 C269 1.427 . S
N277 C275 1.384 . S
H278 C284 0.930 . S
H279 C288 0.930 . S
H280 C293 0.929 . S
H281 C291 0.929 . S
H282 C286 0.929 . S
H283 C292 0.929 . S
C284 H278 0.930 . S
C284 C285 1.367 . S
C284 C292 1.378 . S
C285 C284 1.367 . S
C285 C293 1.433 . S
C286 H282 0.929 . S
C286 C288 1.378 . S
C286 C290 1.350 . S
C287 C290 1.463 1_455 S
C287 C292 1.350 . S
C287 N295 1.427 . S
C288 H279 0.930 . S
C288 C286 1.378 . S
C288 C289 1.367 . S
C289 C288 1.367 . S
C289 C291 1.433 . S
C290 C286 1.350 . S
C290 C287 1.463 1_655 S
C290 N294 1.427 . S
C291 H281 0.929 . S
C291 C289 1.433 . S
C291 N294 1.384 . S
C292 H283 0.929 . S
C292 C284 1.378 . S
C292 C287 1.350 . S
C293 H280 0.929 . S
C293 C285 1.433 . S
C293 N295 1.384 . S
N294 C290 1.427 . S
N294 C291 1.384 . S
N295 C287 1.427 . S
N295 C293 1.384 . S
H296 C302 0.930 . S
H297 C306 0.930 . S
H298 C311 0.929 . S
H299 C309 0.929 . S
H300 C304 0.929 . S
H301 C310 0.929 . S
C302 H296 0.930 . S
C302 C303 1.367 . S
C302 C310 1.378 . S
C303 C302 1.367 . S
C303 C311 1.433 . S
C304 H300 0.929 . S
C304 C306 1.378 . S
C304 C308 1.350 . S
C305 C308 1.463 . S
C305 C310 1.350 . S
C305 N313 1.427 . S
C306 H297 0.930 . S
C306 C304 1.378 . S
C306 C307 1.367 . S
C307 C306 1.367 . S
C307 C309 1.433 . S
C308 C304 1.350 . S
C308 C305 1.463 . S
C308 N312 1.427 . S
C309 H299 0.929 . S
C309 C307 1.433 . S
C309 N312 1.384 . S
C310 H301 0.929 . S
C310 C302 1.378 . S
C310 C305 1.350 . S
C311 H298 0.929 . S
C311 C303 1.433 . S
C311 N313 1.384 . S
N312 C308 1.427 . S
N312 C309 1.384 . S
N313 C305 1.427 . S
N313 C311 1.384 . S
H314 C320 0.930 . S
H315 C324 0.930 . S
H316 C329 0.929 . S
H317 C327 0.929 . S
H318 C322 0.929 . S
H319 C328 0.929 . S
C320 H314 0.930 . S
C320 C321 1.367 . S
C320 C328 1.378 . S
C321 C320 1.367 . S
C321 C329 1.433 . S
C322 H318 0.929 . S
C322 C324 1.378 . S
C322 C326 1.350 . S
C323 C326 1.463 1_655 S
C323 C328 1.350 . S
C323 N331 1.427 . S
C324 H315 0.930 . S
C324 C322 1.378 . S
C324 C325 1.367 . S
C325 C324 1.367 . S
C325 C327 1.433 . S
C326 C322 1.350 . S
C326 C323 1.463 1_455 S
C326 N330 1.427 . S
C327 H317 0.929 . S
C327 C325 1.433 . S
C327 N330 1.384 . S
C328 H319 0.929 . S
C328 C320 1.378 . S
C328 C323 1.350 . S
C329 H316 0.929 . S
C329 C321 1.433 . S
C329 N331 1.384 . S
N330 C326 1.427 . S
N330 C327 1.384 . S
N331 C323 1.427 . S
N331 C329 1.384 . S
H332 C338 0.930 . S
H333 C342 0.930 . S
H334 C347 0.929 . S
H335 C345 0.929 . S
H336 C340 0.929 . S
H337 C346 0.929 . S
C338 H332 0.930 . S
C338 C339 1.367 . S
C338 C346 1.378 . S
C339 C338 1.367 . S
C339 C347 1.433 . S
C340 H336 0.929 . S
C340 C342 1.378 . S
C340 C344 1.350 . S
C341 C344 1.463 . S
C341 C346 1.350 . S
C341 N349 1.427 . S
C342 H333 0.930 . S
C342 C340 1.378 . S
C342 C343 1.367 . S
C343 C342 1.367 . S
C343 C345 1.433 . S
C344 C340 1.350 . S
C344 C341 1.463 . S
C344 N348 1.427 . S
C345 H335 0.929 . S
C345 C343 1.433 . S
C345 N348 1.384 . S
C346 H337 0.929 . S
C346 C338 1.378 . S
C346 C341 1.350 . S
C347 H334 0.929 . S
C347 C339 1.433 . S
C347 N349 1.384 . S
N348 C344 1.427 . S
N348 C345 1.384 . S
N349 C341 1.427 . S
N349 C347 1.384 . S
H350 C356 0.930 . S
H351 C360 0.930 . S
H352 C365 0.929 . S
H353 C363 0.929 . S
H354 C358 0.929 . S
H355 C364 0.929 . S
C356 H350 0.930 . S
C356 C357 1.367 . S
C356 C364 1.378 . S
C357 C356 1.367 . S
C357 C365 1.433 . S
C358 H354 0.929 . S
C358 C360 1.378 . S
C358 C362 1.350 . S
C359 C362 1.463 . S
C359 C364 1.350 . S
C359 N367 1.427 . S
C360 H351 0.930 . S
C360 C358 1.378 . S
C360 C361 1.367 . S
C361 C360 1.367 . S
C361 C363 1.433 . S
C362 C358 1.350 . S
C362 C359 1.463 . S
C362 N366 1.427 . S
C363 H353 0.929 . S
C363 C361 1.433 . S
C363 N366 1.384 . S
C364 H355 0.929 . S
C364 C356 1.378 . S
C364 C359 1.350 . S
C365 H352 0.929 . S
C365 C357 1.433 . S
C365 N367 1.384 . S
N366 C362 1.427 . S
N366 C363 1.384 . S
N367 C359 1.427 . S
N367 C365 1.384 . S
H368 C374 0.930 . S
H369 C378 0.930 . S
H370 C383 0.929 . S
H371 C381 0.929 . S
H372 C376 0.929 . S
H373 C382 0.929 . S
C374 H368 0.930 . S
C374 C375 1.367 . S
C374 C382 1.378 . S
C375 C374 1.367 . S
C375 C383 1.433 . S
C376 H372 0.929 . S
C376 C378 1.378 . S
C376 C380 1.350 . S
C377 C380 1.463 . S
C377 C382 1.350 . S
C377 N385 1.427 . S
C378 H369 0.930 . S
C378 C376 1.378 . S
C378 C379 1.367 . S
C379 C378 1.367 . S
C379 C381 1.433 . S
C380 C376 1.350 . S
C380 C377 1.463 . S
C380 N384 1.427 . S
C381 H371 0.929 . S
C381 C379 1.433 . S
C381 N384 1.384 . S
C382 H373 0.929 . S
C382 C374 1.378 . S
C382 C377 1.350 . S
C383 H370 0.929 . S
C383 C375 1.433 . S
C383 N385 1.384 . S
N384 C380 1.427 . S
N384 C381 1.384 . S
N385 C377 1.427 . S
N385 C383 1.384 . S
H386 C392 0.930 . S
H387 C396 0.930 . S
H388 C401 0.929 . S
H389 C399 0.929 . S
H390 C394 0.929 . S
H391 C400 0.929 . S
C392 H386 0.930 . S
C392 C393 1.367 . S
C392 C400 1.378 . S
C393 C392 1.367 . S
C393 C401 1.433 . S
C394 H390 0.929 . S
C394 C396 1.378 . S
C394 C398 1.350 . S
C395 C398 1.463 . S
C395 C400 1.350 . S
C395 N403 1.427 . S
C396 H387 0.930 . S
C396 C394 1.378 . S
C396 C397 1.367 . S
C397 C396 1.367 . S
C397 C399 1.433 . S
C398 C394 1.350 . S
C398 C395 1.463 . S
C398 N402 1.427 . S
C399 H389 0.929 . S
C399 C397 1.433 . S
C399 N402 1.384 . S
C400 H391 0.929 . S
C400 C392 1.378 . S
C400 C395 1.350 . S
C401 H388 0.929 . S
C401 C393 1.433 . S
C401 N403 1.384 . S
N402 C398 1.427 . S
N402 C399 1.384 . S
N403 C395 1.427 . S
N403 C401 1.384 . S
H404 C410 0.930 . S
H405 C414 0.930 . S
H406 C419 0.929 . S
H407 C417 0.929 . S
H408 C412 0.929 . S
H409 C418 0.929 . S
C410 H404 0.930 . S
C410 C411 1.367 . S
C410 C418 1.378 . S
C411 C410 1.367 . S
C411 C419 1.433 . S
C412 H408 0.929 . S
C412 C414 1.378 . S
C412 C416 1.350 . S
C413 C416 1.463 . S
C413 C418 1.350 . S
C413 N421 1.427 . S
C414 H405 0.930 . S
C414 C412 1.378 . S
C414 C415 1.367 . S
C415 C414 1.367 . S
C415 C417 1.433 . S
C416 C412 1.350 . S
C416 C413 1.463 . S
C416 N420 1.427 . S
C417 H407 0.929 . S
C417 C415 1.433 . S
C417 N420 1.384 . S
C418 H409 0.929 . S
C418 C410 1.378 . S
C418 C413 1.350 . S
C419 H406 0.929 . S
C419 C411 1.433 . S
C419 N421 1.384 . S
N420 C416 1.427 . S
N420 C417 1.384 . S
N421 C413 1.427 . S
N421 C419 1.384 . S
H422 C428 0.930 . S
H423 C432 0.930 . S
H424 C437 0.929 . S
H425 C435 0.929 . S
H426 C430 0.929 . S
H427 C436 0.929 . S
C428 H422 0.930 . S
C428 C429 1.367 . S
C428 C436 1.378 . S
C429 C428 1.367 . S
C429 C437 1.433 . S
C430 H426 0.929 . S
C430 C432 1.378 . S
C430 C434 1.350 . S
C431 C434 1.463 . S
C431 C436 1.350 . S
C431 N439 1.427 . S
C432 H423 0.930 . S
C432 C430 1.378 . S
C432 C433 1.367 . S
C433 C432 1.367 . S
C433 C435 1.433 . S
C434 C430 1.350 . S
C434 C431 1.463 . S
C434 N438 1.427 . S
C435 H425 0.929 . S
C435 C433 1.433 . S
C435 N438 1.384 . S
C436 H427 0.929 . S
C436 C428 1.378 . S
C436 C431 1.350 . S
C437 H424 0.929 . S
C437 C429 1.433 . S
C437 N439 1.384 . S
N438 C434 1.427 . S
N438 C435 1.384 . S
N439 C431 1.427 . S
N439 C437 1.384 . S
H440 C446 0.930 . S
H441 C450 0.930 . S
H442 C455 0.929 . S
H443 C453 0.929 . S
H444 C448 0.929 . S
H445 C454 0.929 . S
C446 H440 0.930 . S
C446 C447 1.367 . S
C446 C454 1.378 . S
C447 C446 1.367 . S
C447 C455 1.433 . S
C448 H444 0.929 . S
C448 C450 1.378 . S
C448 C452 1.350 . S
C449 C452 1.463 1_455 S
C449 C454 1.350 . S
C449 N457 1.427 . S
C450 H441 0.930 . S
C450 C448 1.378 . S
C450 C451 1.367 . S
C451 C450 1.367 . S
C451 C453 1.433 . S
C452 C448 1.350 . S
C452 C449 1.463 1_655 S
C452 N456 1.427 . S
C453 H443 0.929 . S
C453 C451 1.433 . S
C453 N456 1.384 . S
C454 H445 0.929 . S
C454 C446 1.378 . S
C454 C449 1.350 . S
C455 H442 0.929 . S
C455 C447 1.433 . S
C455 N457 1.384 . S
N456 C452 1.427 . S
N456 C453 1.384 . S
N457 C449 1.427 . S
N457 C455 1.384 . S
H458 C464 0.930 . S
H459 C468 0.930 . S
H460 C473 0.929 . S
H461 C471 0.929 . S
H462 C466 0.929 . S
H463 C472 0.929 . S
C464 H458 0.930 . S
C464 C465 1.367 . S
C464 C472 1.378 . S
C465 C464 1.367 . S
C465 C473 1.433 . S
C466 H462 0.929 . S
C466 C468 1.378 . S
C466 C470 1.350 . S
C467 C470 1.463 . S
C467 C472 1.350 . S
C467 N475 1.427 . S
C468 H459 0.930 . S
C468 C466 1.378 . S
C468 C469 1.367 . S
C469 C468 1.367 . S
C469 C471 1.433 . S
C470 C466 1.350 . S
C470 C467 1.463 . S
C470 N474 1.427 . S
C471 H461 0.929 . S
C471 C469 1.433 . S
C471 N474 1.384 . S
C472 H463 0.929 . S
C472 C464 1.378 . S
C472 C467 1.350 . S
C473 H460 0.929 . S
C473 C465 1.433 . S
C473 N475 1.384 . S
N474 C470 1.427 . S
N474 C471 1.384 . S
N475 C467 1.427 . S
N475 C473 1.384 . S
H476 C482 0.930 . S
H477 C486 0.930 . S
H478 C491 0.929 . S
H479 C489 0.929 . S
H480 C484 0.929 . S
H481 C490 0.929 . S
C482 H476 0.930 . S
C482 C483 1.367 . S
C482 C490 1.378 . S
C483 C482 1.367 . S
C483 C491 1.433 . S
C484 H480 0.929 . S
C484 C486 1.378 . S
C484 C488 1.350 . S
C485 C488 1.463 . S
C485 C490 1.350 . S
C485 N493 1.427 . S
C486 H477 0.930 . S
C486 C484 1.378 . S
C486 C487 1.367 . S
C487 C486 1.367 . S
C487 C489 1.433 . S
C488 C484 1.350 . S
C488 C485 1.463 . S
C488 N492 1.427 . S
C489 H479 0.929 . S
C489 C487 1.433 . S
C489 N492 1.384 . S
C490 H481 0.929 . S
C490 C482 1.378 . S
C490 C485 1.350 . S
C491 H478 0.929 . S
C491 C483 1.433 . S
C491 N493 1.384 . S
N492 C488 1.427 . S
N492 C489 1.384 . S
N493 C485 1.427 . S
N493 C491 1.384 . S
H494 C500 0.930 . S
H495 C504 0.930 . S
H496 C509 0.929 . S
H497 C507 0.929 . S
H498 C502 0.929 . S
H499 C508 0.929 . S
C500 H494 0.930 . S
C500 C501 1.367 . S
C500 C508 1.378 . S
C501 C500 1.367 . S
C501 C509 1.433 . S
C502 H498 0.929 . S
C502 C504 1.378 . S
C502 C506 1.350 . S
C503 C506 1.463 1_455 S
C503 C508 1.350 . S
C503 N511 1.427 . S
C504 H495 0.930 . S
C504 C502 1.378 . S
C504 C505 1.367 . S
C505 C504 1.367 . S
C505 C507 1.433 . S
C506 C502 1.350 . S
C506 C503 1.463 1_655 S
C506 N510 1.427 . S
C507 H497 0.929 . S
C507 C505 1.433 . S
C507 N510 1.384 . S
C508 H499 0.929 . S
C508 C500 1.378 . S
C508 C503 1.350 . S
C509 H496 0.929 . S
C509 C501 1.433 . S
C509 N511 1.384 . S
N510 C506 1.427 . S
N510 C507 1.384 . S
N511 C503 1.427 . S
N511 C509 1.384 . S
H512 C518 0.930 . S
H513 C522 0.930 . S
H514 C527 0.929 . S
H515 C525 0.929 . S
H516 C520 0.929 . S
H517 C526 0.929 . S
C518 H512 0.930 . S
C518 C519 1.367 . S
C518 C526 1.378 . S
C519 C518 1.367 . S
C519 C527 1.433 . S
C520 H516 0.929 . S
C520 C522 1.378 . S
C520 C524 1.350 . S
C521 C524 1.463 1_554 S
C521 C526 1.350 . S
C521 N529 1.427 1_554 S
C522 H513 0.930 . S
C522 C520 1.378 . S
C522 C523 1.367 . S
C523 C522 1.367 . S
C523 C525 1.433 . S
C524 C520 1.350 . S
C524 C521 1.463 1_556 S
C524 N528 1.427 1_556 S
C525 H515 0.929 . S
C525 C523 1.433 . S
C525 N528 1.384 1_556 S
C526 H517 0.929 . S
C526 C518 1.378 . S
C526 C521 1.350 . S
C527 H514 0.929 . S
C527 C519 1.433 . S
C527 N529 1.384 1_554 S
N528 C524 1.427 1_554 S
N528 C525 1.384 1_554 S
N529 C521 1.427 1_556 S
N529 C527 1.384 1_556 S
H530 C536 0.930 . S
H531 C540 0.930 . S
H532 C545 0.929 . S
H533 C543 0.929 . S
H534 C538 0.929 . S
H535 C544 0.929 . S
C536 H530 0.930 . S
C536 C537 1.367 . S
C536 C544 1.378 . S
C537 C536 1.367 . S
C537 C545 1.433 . S
C538 H534 0.929 . S
C538 C540 1.378 . S
C538 C542 1.350 . S
C539 C542 1.463 . S
C539 C544 1.350 . S
C539 N547 1.427 . S
C540 H531 0.930 . S
C540 C538 1.378 . S
C540 C541 1.367 . S
C541 C540 1.367 . S
C541 C543 1.433 . S
C542 C538 1.350 . S
C542 C539 1.463 . S
C542 N546 1.427 . S
C543 H533 0.929 . S
C543 C541 1.433 . S
C543 N546 1.384 . S
C544 H535 0.929 . S
C544 C536 1.378 . S
C544 C539 1.350 . S
C545 H532 0.929 . S
C545 C537 1.433 . S
C545 N547 1.384 . S
N546 C542 1.427 . S
N546 C543 1.384 . S
N547 C539 1.427 . S
N547 C545 1.384 . S
H548 C554 0.930 . S
H549 C558 0.930 . S
H550 C563 0.929 . S
H551 C561 0.929 . S
H552 C556 0.929 . S
H553 C562 0.929 . S
C554 H548 0.930 . S
C554 C555 1.367 . S
C554 C562 1.378 . S
C555 C554 1.367 . S
C555 C563 1.433 . S
C556 H552 0.929 . S
C556 C558 1.378 . S
C556 C560 1.350 . S
C557 C560 1.463 . S
C557 C562 1.350 . S
C557 N565 1.427 . S
C558 H549 0.930 . S
C558 C556 1.378 . S
C558 C559 1.367 . S
C559 C558 1.367 . S
C559 C561 1.433 . S
C560 C556 1.350 . S
C560 C557 1.463 . S
C560 N564 1.427 . S
C561 H551 0.929 . S
C561 C559 1.433 . S
C561 N564 1.384 . S
C562 H553 0.929 . S
C562 C554 1.378 . S
C562 C557 1.350 . S
C563 H550 0.929 . S
C563 C555 1.433 . S
C563 N565 1.384 . S
N564 C560 1.427 . S
N564 C561 1.384 . S
N565 C557 1.427 . S
N565 C563 1.384 . S
H566 C572 0.930 . S
H567 C576 0.930 . S
H568 C581 0.929 . S
H569 C579 0.929 . S
H570 C574 0.929 . S
H571 C580 0.929 . S
C572 H566 0.930 . S
C572 C573 1.367 . S
C572 C580 1.378 . S
C573 C572 1.367 . S
C573 C581 1.433 . S
C574 H570 0.929 . S
C574 C576 1.378 . S
C574 C578 1.350 . S
C575 C578 1.463 . S
C575 C580 1.350 . S
C575 N583 1.427 . S
C576 H567 0.930 . S
C576 C574 1.378 . S
C576 C577 1.367 . S
C577 C576 1.367 . S
C577 C579 1.433 . S
C578 C574 1.350 . S
C578 C575 1.463 . S
C578 N582 1.427 . S
C579 H569 0.929 . S
C579 C577 1.433 . S
C579 N582 1.384 . S
C580 H571 0.929 . S
C580 C572 1.378 . S
C580 C575 1.350 . S
C581 H568 0.929 . S
C581 C573 1.433 . S
C581 N583 1.384 . S
N582 C578 1.427 . S
N582 C579 1.384 . S
N583 C575 1.427 . S
N583 C581 1.384 . S
H584 C590 0.930 1_554 S
H585 C594 0.930 . S
H586 C599 0.929 . S
H587 C597 0.929 . S
H588 C592 0.929 . S
H589 C598 0.929 . S
C590 H584 0.930 1_556 S
C590 C591 1.367 . S
C590 C598 1.378 1_556 S
C591 C590 1.367 . S
C591 C599 1.433 . S
C592 H588 0.929 . S
C592 C594 1.378 1_556 S
C592 C596 1.350 1_556 S
C593 C596 1.463 1_556 S
C593 C598 1.350 1_556 S
C593 N601 1.427 . S
C594 H585 0.930 . S
C594 C592 1.378 1_554 S
C594 C595 1.367 . S
C595 C594 1.367 . S
C595 C597 1.433 . S
C596 C592 1.350 1_554 S
C596 C593 1.463 1_554 S
C596 N600 1.427 . S
C597 H587 0.929 . S
C597 C595 1.433 . S
C597 N600 1.384 . S
C598 H589 0.929 . S
C598 C590 1.378 1_554 S
C598 C593 1.350 1_554 S
C599 H586 0.929 . S
C599 C591 1.433 . S
C599 N601 1.384 . S
N600 C596 1.427 . S
N600 C597 1.384 . S
N601 C593 1.427 . S
N601 C599 1.384 . S
H602 C608 0.930 . S
H603 C612 0.930 . S
H604 C617 0.929 . S
H605 C615 0.929 . S
H606 C610 0.929 . S
H607 C616 0.929 . S
C608 H602 0.930 . S
C608 C609 1.367 . S
C608 C616 1.378 . S
C609 C608 1.367 . S
C609 C617 1.433 . S
C610 H606 0.929 . S
C610 C612 1.378 . S
C610 C614 1.350 . S
C611 C614 1.463 . S
C611 C616 1.350 . S
C611 N619 1.427 . S
C612 H603 0.930 . S
C612 C610 1.378 . S
C612 C613 1.367 . S
C613 C612 1.367 . S
C613 C615 1.433 . S
C614 C610 1.350 . S
C614 C611 1.463 . S
C614 N618 1.427 . S
C615 H605 0.929 . S
C615 C613 1.433 . S
C615 N618 1.384 . S
C616 H607 0.929 . S
C616 C608 1.378 . S
C616 C611 1.350 . S
C617 H604 0.929 . S
C617 C609 1.433 . S
C617 N619 1.384 . S
N618 C614 1.427 . S
N618 C615 1.384 . S
N619 C611 1.427 . S
N619 C617 1.384 . S
H620 C626 0.930 . S
H621 C630 0.930 . S
H622 C635 0.929 . S
H623 C633 0.929 . S
H624 C628 0.929 . S
H625 C634 0.929 . S
C626 H620 0.930 . S
C626 C627 1.367 . S
C626 C634 1.378 . S
C627 C626 1.367 . S
C627 C635 1.433 . S
C628 H624 0.929 . S
C628 C630 1.378 . S
C628 C632 1.350 . S
C629 C632 1.463 . S
C629 C634 1.350 . S
C629 N637 1.427 . S
C630 H621 0.930 . S
C630 C628 1.378 . S
C630 C631 1.367 . S
C631 C630 1.367 . S
C631 C633 1.433 . S
C632 C628 1.350 . S
C632 C629 1.463 . S
C632 N636 1.427 . S
C633 H623 0.929 . S
C633 C631 1.433 . S
C633 N636 1.384 . S
C634 H625 0.929 . S
C634 C626 1.378 . S
C634 C629 1.350 . S
C635 H622 0.929 . S
C635 C627 1.433 . S
C635 N637 1.384 . S
N636 C632 1.427 . S
N636 C633 1.384 . S
N637 C629 1.427 . S
N637 C635 1.384 . S
H638 C644 0.930 . S
H639 C648 0.930 . S
H640 C653 0.929 . S
H641 C651 0.929 . S
H642 C646 0.929 . S
H643 C652 0.929 . S
C644 H638 0.930 . S
C644 C645 1.367 . S
C644 C652 1.378 . S
C645 C644 1.367 . S
C645 C653 1.433 . S
C646 H642 0.929 . S
C646 C648 1.378 . S
C646 C650 1.350 . S
C647 C650 1.463 . S
C647 C652 1.350 . S
C647 N655 1.427 . S
C648 H639 0.930 . S
C648 C646 1.378 . S
C648 C649 1.367 . S
C649 C648 1.367 . S
C649 C651 1.433 . S
C650 C646 1.350 . S
C650 C647 1.463 . S
C650 N654 1.427 . S
C651 H641 0.929 . S
C651 C649 1.433 . S
C651 N654 1.384 . S
C652 H643 0.929 . S
C652 C644 1.378 . S
C652 C647 1.350 . S
C653 H640 0.929 . S
C653 C645 1.433 . S
C653 N655 1.384 . S
N654 C650 1.427 . S
N654 C651 1.384 . S
N655 C647 1.427 . S
N655 C653 1.384 . S
H656 C662 0.930 . S
H657 C666 0.930 . S
H658 C671 0.929 . S
H659 C669 0.929 . S
H660 C664 0.929 . S
H661 C670 0.929 . S
C662 H656 0.930 . S
C662 C663 1.367 . S
C662 C670 1.378 . S
C663 C662 1.367 . S
C663 C671 1.433 . S
C664 H660 0.929 . S
C664 C666 1.378 . S
C664 C668 1.350 . S
C665 C668 1.463 1_545 S
C665 C670 1.350 . S
C665 N673 1.427 . S
C666 H657 0.930 . S
C666 C664 1.378 . S
C666 C667 1.367 . S
C667 C666 1.367 . S
C667 C669 1.433 . S
C668 C664 1.350 . S
C668 C665 1.463 1_565 S
C668 N672 1.427 . S
C669 H659 0.929 . S
C669 C667 1.433 . S
C669 N672 1.384 . S
C670 H661 0.929 . S
C670 C662 1.378 . S
C670 C665 1.350 . S
C671 H658 0.929 . S
C671 C663 1.433 . S
C671 N673 1.384 . S
N672 C668 1.427 . S
N672 C669 1.384 . S
N673 C665 1.427 . S
N673 C671 1.384 . S
H674 C680 0.930 . S
H675 C684 0.930 . S
H676 C689 0.929 . S
H677 C687 0.929 . S
H678 C682 0.929 . S
H679 C688 0.929 . S
C680 H674 0.930 . S
C680 C681 1.367 . S
C680 C688 1.378 . S
C681 C680 1.367 . S
C681 C689 1.433 . S
C682 H678 0.929 . S
C682 C684 1.378 . S
C682 C686 1.350 . S
C683 C686 1.463 . S
C683 C688 1.350 . S
C683 N691 1.427 . S
C684 H675 0.930 . S
C684 C682 1.378 . S
C684 C685 1.367 . S
C685 C684 1.367 . S
C685 C687 1.433 . S
C686 C682 1.350 . S
C686 C683 1.463 . S
C686 N690 1.427 . S
C687 H677 0.929 . S
C687 C685 1.433 . S
C687 N690 1.384 . S
C688 H679 0.929 . S
C688 C680 1.378 . S
C688 C683 1.350 . S
C689 H676 0.929 . S
C689 C681 1.433 . S
C689 N691 1.384 . S
N690 C686 1.427 . S
N690 C687 1.384 . S
N691 C683 1.427 . S
N691 C689 1.384 . S
H692 C698 0.930 1_554 S
H693 C702 0.930 1_556 S
H694 C707 0.929 . S
H695 C705 0.929 . S
H696 C700 0.929 . S
H697 C706 0.929 . S
C698 H692 0.930 1_556 S
C698 C699 1.367 . S
C698 C706 1.378 1_556 S
C699 C698 1.367 . S
C699 C707 1.433 . S
C700 H696 0.929 . S
C700 C702 1.378 1_556 S
C700 C704 1.350 1_556 S
C701 C704 1.463 1_546 S
C701 C706 1.350 1_556 S
C701 N709 1.427 . S
C702 H693 0.930 1_554 S
C702 C700 1.378 1_554 S
C702 C703 1.367 . S
C703 C702 1.367 . S
C703 C705 1.433 . S
C704 C700 1.350 1_554 S
C704 C701 1.463 1_564 S
C704 N708 1.427 . S
C705 H695 0.929 . S
C705 C703 1.433 . S
C705 N708 1.384 . S
C706 H697 0.929 . S
C706 C698 1.378 1_554 S
C706 C701 1.350 1_554 S
C707 H694 0.929 . S
C707 C699 1.433 . S
C707 N709 1.384 . S
N708 C704 1.427 . S
N708 C705 1.384 . S
N709 C701 1.427 . S
N709 C707 1.384 . S
H710 C716 0.930 . S
H711 C720 0.930 . S
H712 C725 0.929 . S
H713 C723 0.929 . S
H714 C718 0.929 . S
H715 C724 0.929 . S
C716 H710 0.930 . S
C716 C717 1.367 . S
C716 C724 1.378 . S
C717 C716 1.367 . S
C717 C725 1.433 . S
C718 H714 0.929 . S
C718 C720 1.378 . S
C718 C722 1.350 . S
C719 C722 1.463 . S
C719 C724 1.350 . S
C719 N727 1.427 . S
C720 H711 0.930 . S
C720 C718 1.378 . S
C720 C721 1.367 . S
C721 C720 1.367 . S
C721 C723 1.433 . S
C722 C718 1.350 . S
C722 C719 1.463 . S
C722 N726 1.427 . S
C723 H713 0.929 . S
C723 C721 1.433 . S
C723 N726 1.384 . S
C724 H715 0.929 . S
C724 C716 1.378 . S
C724 C719 1.350 . S
C725 H712 0.929 . S
C725 C717 1.433 . S
C725 N727 1.384 . S
N726 C722 1.427 . S
N726 C723 1.384 . S
N727 C719 1.427 . S
N727 C725 1.384 . S
H728 C734 0.930 . S
H729 C738 0.930 . S
H730 C743 0.929 . S
H731 C741 0.929 . S
H732 C736 0.929 . S
H733 C742 0.929 . S
C734 H728 0.930 . S
C734 C735 1.367 . S
C734 C742 1.378 . S
C735 C734 1.367 . S
C735 C743 1.433 . S
C736 H732 0.929 . S
C736 C738 1.378 . S
C736 C740 1.350 . S
C737 C740 1.463 1_545 S
C737 C742 1.350 . S
C737 N745 1.427 . S
C738 H729 0.930 . S
C738 C736 1.378 . S
C738 C739 1.367 . S
C739 C738 1.367 . S
C739 C741 1.433 . S
C740 C736 1.350 . S
C740 C737 1.463 1_565 S
C740 N744 1.427 . S
C741 H731 0.929 . S
C741 C739 1.433 . S
C741 N744 1.384 . S
C742 H733 0.929 . S
C742 C734 1.378 . S
C742 C737 1.350 . S
C743 H730 0.929 . S
C743 C735 1.433 . S
C743 N745 1.384 . S
N744 C740 1.427 . S
N744 C741 1.384 . S
N745 C737 1.427 . S
N745 C743 1.384 . S
H746 C752 0.930 . S
H747 C756 0.930 . S
H748 C761 0.929 . S
H749 C759 0.929 . S
H750 C754 0.929 . S
H751 C760 0.929 . S
C752 H746 0.930 . S
C752 C753 1.367 . S
C752 C760 1.378 . S
C753 C752 1.367 . S
C753 C761 1.433 . S
C754 H750 0.929 . S
C754 C756 1.378 . S
C754 C758 1.350 . S
C755 C758 1.463 . S
C755 C760 1.350 . S
C755 N763 1.427 . S
C756 H747 0.930 . S
C756 C754 1.378 . S
C756 C757 1.367 . S
C757 C756 1.367 . S
C757 C759 1.433 . S
C758 C754 1.350 . S
C758 C755 1.463 . S
C758 N762 1.427 . S
C759 H749 0.929 . S
C759 C757 1.433 . S
C759 N762 1.384 . S
C760 H751 0.929 . S
C760 C752 1.378 . S
C760 C755 1.350 . S
C761 H748 0.929 . S
C761 C753 1.433 . S
C761 N763 1.384 . S
N762 C758 1.427 . S
N762 C759 1.384 . S
N763 C755 1.427 . S
N763 C761 1.384 . S
H764 C770 0.930 . S
H765 C774 0.930 . S
H766 C779 0.929 . S
H767 C777 0.929 . S
H768 C772 0.929 1_554 S
H769 C778 0.929 . S
C770 H764 0.930 . S
C770 C771 1.367 . S
C770 C778 1.378 1_554 S
C771 C770 1.367 . S
C771 C779 1.433 . S
C772 H768 0.929 1_556 S
C772 C774 1.378 . S
C772 C776 1.350 . S
C773 C776 1.463 1_564 S
C773 C778 1.350 1_554 S
C773 N781 1.427 . S
C774 H765 0.930 . S
C774 C772 1.378 . S
C774 C775 1.367 . S
C775 C774 1.367 . S
C775 C777 1.433 . S
C776 C772 1.350 . S
C776 C773 1.463 1_546 S
C776 N780 1.427 . S
C777 H767 0.929 . S
C777 C775 1.433 . S
C777 N780 1.384 . S
C778 H769 0.929 . S
C778 C770 1.378 1_556 S
C778 C773 1.350 1_556 S
C779 H766 0.929 . S
C779 C771 1.433 . S
C779 N781 1.384 . S
N780 C776 1.427 . S
N780 C777 1.384 . S
N781 C773 1.427 . S
N781 C779 1.384 . S
H782 C788 0.930 . S
H783 C792 0.930 . S
H784 C797 0.929 . S
H785 C795 0.929 . S
H786 C790 0.929 . S
H787 C796 0.929 . S
C788 H782 0.930 . S
C788 C789 1.367 . S
C788 C796 1.378 . S
C789 C788 1.367 . S
C789 C797 1.433 . S
C790 H786 0.929 . S
C790 C792 1.378 . S
C790 C794 1.350 . S
C791 C794 1.463 . S
C791 C796 1.350 . S
C791 N799 1.427 . S
C792 H783 0.930 . S
C792 C790 1.378 . S
C792 C793 1.367 . S
C793 C792 1.367 . S
C793 C795 1.433 . S
C794 C790 1.350 . S
C794 C791 1.463 . S
C794 N798 1.427 . S
C795 H785 0.929 . S
C795 C793 1.433 . S
C795 N798 1.384 . S
C796 H787 0.929 . S
C796 C788 1.378 . S
C796 C791 1.350 . S
C797 H784 0.929 . S
C797 C789 1.433 . S
C797 N799 1.384 . S
N798 C794 1.427 . S
N798 C795 1.384 . S
N799 C791 1.427 . S
N799 C797 1.384 . S
C231 C159 1.353 . S
C235 C5 1.345 . S
C249 C215 1.401 . S
C253 C23 1.399 . S
C267 C33 1.377 . S
C271 C135 1.374 . S
C285 C187 1.375 . S
C289 C51 1.369 . S
C303 C61 1.344 . S
C307 C191 1.338 . S
C321 C79 1.391 . S
C325 C163 1.395 . S
C339 C89 1.382 . S
C343 C219 1.369 . S
C357 C107 1.365 . S
C361 C131 1.377 . S
C375 C47 1.340 . S
C379 C117 1.340 . S
C393 C145 1.303 . S
C397 C19 1.302 . S
C411 C177 1.330 . S
C415 C75 1.329 . S
C429 C201 1.309 . S
C433 C103 1.299 . S
C447 C65 1.427 . S
C451 C121 1.431 . S
C465 C149 1.395 . S
C469 C93 1.407 . S
C483 C205 1.426 . S
C487 C37 1.432 . S
C501 C9 1.405 . S
C505 C173 1.412 . S
C519 C11 1.261 . S
C523 C67 1.265 . S
C537 C14 1.337 . S
C541 C70 1.345 . S
C555 C39 1.342 . S
C559 C95 1.340 . S
C573 C98 1.279 . S
C577 C42 1.280 . S
C591 C123 1.315 . S
C595 C168 1.309 . S
C609 C193 1.243 . S
C613 C137 1.246 . S
C627 C151 1.251 . S
C631 C207 1.255 . S
C645 C221 1.298 . S
C649 C154 1.291 . S
C663 C109 1.178 . S
C667 C25 1.174 . S
C681 C28 1.420 . S
C685 C56 1.427 . S
C699 C53 1.253 . S
C703 C81 1.253 . S
C717 C0 1.354 . S
C721 C84 1.361 . S
C735 C126 1.344 . S
C739 C210 1.351 . S
C753 C179 1.278 . S
C757 C140 1.266 . S
C771 C165 1.289 . S
C775 C182 1.289 . S
C789 C196 1.327 . S
C793 C112 1.319 . S
