# Generated by pormake.
# Topology fau, (4)-cn, num edge types: 1
# Building blocks:
#     Node 0, Type 0, BuildingBlock: QUQFOY_clean_sbu_3, # of connection points: 4
#     Node 1, Type 0, BuildingBlock: QUQFOY_clean_sbu_3, # of connection points: 4
#     Node 2, Type 0, BuildingBlock: QUQFOY_clean_sbu_3, # of connection points: 4
#     Node 3, Type 0, BuildingBlock: QUQFOY_clean_sbu_3, # of connection points: 4
#     Node 4, Type 0, BuildingBlock: QUQFOY_clean_sbu_3, # of connection points: 4
#     Node 5, Type 0, BuildingBlock: QUQFOY_clean_sbu_3, # of connection points: 4
#     Node 6, Type 0, BuildingBlock: QUQFOY_clean_sbu_3, # of connection points: 4
#     Node 7, Type 0, BuildingBlock: QUQFOY_clean_sbu_3, # of connection points: 4
#     Node 8, Type 0, BuildingBlock: QUQFOY_clean_sbu_3, # of connection points: 4
#     Node 9, Type 0, BuildingBlock: QUQFOY_clean_sbu_3, # of connection points: 4
#     Node 10, Type 0, BuildingBlock: QUQFOY_clean_sbu_3, # of connection points: 4
#     Node 11, Type 0, BuildingBlock: QUQFOY_clean_sbu_3, # of connection points: 4
#     Node 12, Type 0, BuildingBlock: QUQFOY_clean_sbu_3, # of connection points: 4
#     Node 13, Type 0, BuildingBlock: QUQFOY_clean_sbu_3, # of connection points: 4
#     Node 14, Type 0, BuildingBlock: QUQFOY_clean_sbu_3, # of connection points: 4
#     Node 15, Type 0, BuildingBlock: QUQFOY_clean_sbu_3, # of connection points: 4
#     Node 16, Type 0, BuildingBlock: QUQFOY_clean_sbu_3, # of connection points: 4
#     Node 17, Type 0, BuildingBlock: QUQFOY_clean_sbu_3, # of connection points: 4
#     Node 18, Type 0, BuildingBlock: QUQFOY_clean_sbu_3, # of connection points: 4
#     Node 19, Type 0, BuildingBlock: QUQFOY_clean_sbu_3, # of connection points: 4
#     Node 20, Type 0, BuildingBlock: QUQFOY_clean_sbu_3, # of connection points: 4
#     Node 21, Type 0, BuildingBlock: QUQFOY_clean_sbu_3, # of connection points: 4
#     Node 22, Type 0, BuildingBlock: QUQFOY_clean_sbu_3, # of connection points: 4
#     Node 23, Type 0, BuildingBlock: QUQFOY_clean_sbu_3, # of connection points: 4
#     Node 24, Type 0, BuildingBlock: QUQFOY_clean_sbu_3, # of connection points: 4
#     Node 25, Type 0, BuildingBlock: QUQFOY_clean_sbu_3, # of connection points: 4
#     Node 26, Type 0, BuildingBlock: QUQFOY_clean_sbu_3, # of connection points: 4
#     Node 27, Type 0, BuildingBlock: QUQFOY_clean_sbu_3, # of connection points: 4
#     Node 28, Type 0, BuildingBlock: QUQFOY_clean_sbu_3, # of connection points: 4
#     Node 29, Type 0, BuildingBlock: QUQFOY_clean_sbu_3, # of connection points: 4
#     Node 30, Type 0, BuildingBlock: QUQFOY_clean_sbu_3, # of connection points: 4
#     Node 31, Type 0, BuildingBlock: QUQFOY_clean_sbu_3, # of connection points: 4
#     Node 32, Type 0, BuildingBlock: QUQFOY_clean_sbu_3, # of connection points: 4
#     Node 33, Type 0, BuildingBlock: QUQFOY_clean_sbu_3, # of connection points: 4
#     Node 34, Type 0, BuildingBlock: QUQFOY_clean_sbu_3, # of connection points: 4
#     Node 35, Type 0, BuildingBlock: QUQFOY_clean_sbu_3, # of connection points: 4
#     Node 36, Type 0, BuildingBlock: QUQFOY_clean_sbu_3, # of connection points: 4
#     Node 37, Type 0, BuildingBlock: QUQFOY_clean_sbu_3, # of connection points: 4
#     Node 38, Type 0, BuildingBlock: QUQFOY_clean_sbu_3, # of connection points: 4
#     Node 39, Type 0, BuildingBlock: QUQFOY_clean_sbu_3, # of connection points: 4
#     Node 40, Type 0, BuildingBlock: QUQFOY_clean_sbu_3, # of connection points: 4
#     Node 41, Type 0, BuildingBlock: QUQFOY_clean_sbu_3, # of connection points: 4
#     Node 42, Type 0, BuildingBlock: QUQFOY_clean_sbu_3, # of connection points: 4
#     Node 43, Type 0, BuildingBlock: QUQFOY_clean_sbu_3, # of connection points: 4
#     Node 44, Type 0, BuildingBlock: QUQFOY_clean_sbu_3, # of connection points: 4
#     Node 45, Type 0, BuildingBlock: QUQFOY_clean_sbu_3, # of connection points: 4
#     Node 46, Type 0, BuildingBlock: QUQFOY_clean_sbu_3, # of connection points: 4
#     Node 47, Type 0, BuildingBlock: QUQFOY_clean_sbu_3, # of connection points: 4
#     Node 48, Type 0, BuildingBlock: QUQFOY_clean_sbu_3, # of connection points: 4
#     Node 49, Type 0, BuildingBlock: QUQFOY_clean_sbu_3, # of connection points: 4
#     Node 50, Type 0, BuildingBlock: QUQFOY_clean_sbu_3, # of connection points: 4
#     Node 51, Type 0, BuildingBlock: QUQFOY_clean_sbu_3, # of connection points: 4
#     Node 52, Type 0, BuildingBlock: QUQFOY_clean_sbu_3, # of connection points: 4
#     Node 53, Type 0, BuildingBlock: QUQFOY_clean_sbu_3, # of connection points: 4
#     Node 54, Type 0, BuildingBlock: QUQFOY_clean_sbu_3, # of connection points: 4
#     Node 55, Type 0, BuildingBlock: QUQFOY_clean_sbu_3, # of connection points: 4
#     Node 56, Type 0, BuildingBlock: QUQFOY_clean_sbu_3, # of connection points: 4
#     Node 57, Type 0, BuildingBlock: QUQFOY_clean_sbu_3, # of connection points: 4
#     Node 58, Type 0, BuildingBlock: QUQFOY_clean_sbu_3, # of connection points: 4
#     Node 59, Type 0, BuildingBlock: QUQFOY_clean_sbu_3, # of connection points: 4
#     Node 60, Type 0, BuildingBlock: QUQFOY_clean_sbu_3, # of connection points: 4
#     Node 61, Type 0, BuildingBlock: QUQFOY_clean_sbu_3, # of connection points: 4
#     Node 62, Type 0, BuildingBlock: QUQFOY_clean_sbu_3, # of connection points: 4
#     Node 63, Type 0, BuildingBlock: QUQFOY_clean_sbu_3, # of connection points: 4
#     Node 64, Type 0, BuildingBlock: QUQFOY_clean_sbu_3, # of connection points: 4
#     Node 65, Type 0, BuildingBlock: QUQFOY_clean_sbu_3, # of connection points: 4
#     Node 66, Type 0, BuildingBlock: QUQFOY_clean_sbu_3, # of connection points: 4
#     Node 67, Type 0, BuildingBlock: QUQFOY_clean_sbu_3, # of connection points: 4
#     Node 68, Type 0, BuildingBlock: QUQFOY_clean_sbu_3, # of connection points: 4
#     Node 69, Type 0, BuildingBlock: QUQFOY_clean_sbu_3, # of connection points: 4
#     Node 70, Type 0, BuildingBlock: QUQFOY_clean_sbu_3, # of connection points: 4
#     Node 71, Type 0, BuildingBlock: QUQFOY_clean_sbu_3, # of connection points: 4
#     Node 72, Type 0, BuildingBlock: QUQFOY_clean_sbu_3, # of connection points: 4
#     Node 73, Type 0, BuildingBlock: QUQFOY_clean_sbu_3, # of connection points: 4
#     Node 74, Type 0, BuildingBlock: QUQFOY_clean_sbu_3, # of connection points: 4
#     Node 75, Type 0, BuildingBlock: QUQFOY_clean_sbu_3, # of connection points: 4
#     Node 76, Type 0, BuildingBlock: QUQFOY_clean_sbu_3, # of connection points: 4
#     Node 77, Type 0, BuildingBlock: QUQFOY_clean_sbu_3, # of connection points: 4
#     Node 78, Type 0, BuildingBlock: QUQFOY_clean_sbu_3, # of connection points: 4
#     Node 79, Type 0, BuildingBlock: QUQFOY_clean_sbu_3, # of connection points: 4
#     Node 80, Type 0, BuildingBlock: QUQFOY_clean_sbu_3, # of connection points: 4
#     Node 81, Type 0, BuildingBlock: QUQFOY_clean_sbu_3, # of connection points: 4
#     Node 82, Type 0, BuildingBlock: QUQFOY_clean_sbu_3, # of connection points: 4
#     Node 83, Type 0, BuildingBlock: QUQFOY_clean_sbu_3, # of connection points: 4
#     Node 84, Type 0, BuildingBlock: QUQFOY_clean_sbu_3, # of connection points: 4
#     Node 85, Type 0, BuildingBlock: QUQFOY_clean_sbu_3, # of connection points: 4
#     Node 86, Type 0, BuildingBlock: QUQFOY_clean_sbu_3, # of connection points: 4
#     Node 87, Type 0, BuildingBlock: QUQFOY_clean_sbu_3, # of connection points: 4
#     Node 88, Type 0, BuildingBlock: QUQFOY_clean_sbu_3, # of connection points: 4
#     Node 89, Type 0, BuildingBlock: QUQFOY_clean_sbu_3, # of connection points: 4
#     Node 90, Type 0, BuildingBlock: QUQFOY_clean_sbu_3, # of connection points: 4
#     Node 91, Type 0, BuildingBlock: QUQFOY_clean_sbu_3, # of connection points: 4
#     Node 92, Type 0, BuildingBlock: QUQFOY_clean_sbu_3, # of connection points: 4
#     Node 93, Type 0, BuildingBlock: QUQFOY_clean_sbu_3, # of connection points: 4
#     Node 94, Type 0, BuildingBlock: QUQFOY_clean_sbu_3, # of connection points: 4
#     Node 95, Type 0, BuildingBlock: QUQFOY_clean_sbu_3, # of connection points: 4
#     Node 96, Type 0, BuildingBlock: QUQFOY_clean_sbu_3, # of connection points: 4
#     Node 97, Type 0, BuildingBlock: QUQFOY_clean_sbu_3, # of connection points: 4
#     Node 98, Type 0, BuildingBlock: QUQFOY_clean_sbu_3, # of connection points: 4
#     Node 99, Type 0, BuildingBlock: QUQFOY_clean_sbu_3, # of connection points: 4
#     Node 100, Type 0, BuildingBlock: QUQFOY_clean_sbu_3, # of connection points: 4
#     Node 101, Type 0, BuildingBlock: QUQFOY_clean_sbu_3, # of connection points: 4
#     Node 102, Type 0, BuildingBlock: QUQFOY_clean_sbu_3, # of connection points: 4
#     Node 103, Type 0, BuildingBlock: QUQFOY_clean_sbu_3, # of connection points: 4
#     Node 104, Type 0, BuildingBlock: QUQFOY_clean_sbu_3, # of connection points: 4
#     Node 105, Type 0, BuildingBlock: QUQFOY_clean_sbu_3, # of connection points: 4
#     Node 106, Type 0, BuildingBlock: QUQFOY_clean_sbu_3, # of connection points: 4
#     Node 107, Type 0, BuildingBlock: QUQFOY_clean_sbu_3, # of connection points: 4
#     Node 108, Type 0, BuildingBlock: QUQFOY_clean_sbu_3, # of connection points: 4
#     Node 109, Type 0, BuildingBlock: QUQFOY_clean_sbu_3, # of connection points: 4
#     Node 110, Type 0, BuildingBlock: QUQFOY_clean_sbu_3, # of connection points: 4
#     Node 111, Type 0, BuildingBlock: QUQFOY_clean_sbu_3, # of connection points: 4
#     Node 112, Type 0, BuildingBlock: QUQFOY_clean_sbu_3, # of connection points: 4
#     Node 113, Type 0, BuildingBlock: QUQFOY_clean_sbu_3, # of connection points: 4
#     Node 114, Type 0, BuildingBlock: QUQFOY_clean_sbu_3, # of connection points: 4
#     Node 115, Type 0, BuildingBlock: QUQFOY_clean_sbu_3, # of connection points: 4
#     Node 116, Type 0, BuildingBlock: QUQFOY_clean_sbu_3, # of connection points: 4
#     Node 117, Type 0, BuildingBlock: QUQFOY_clean_sbu_3, # of connection points: 4
#     Node 118, Type 0, BuildingBlock: QUQFOY_clean_sbu_3, # of connection points: 4
#     Node 119, Type 0, BuildingBlock: QUQFOY_clean_sbu_3, # of connection points: 4
#     Node 120, Type 0, BuildingBlock: QUQFOY_clean_sbu_3, # of connection points: 4
#     Node 121, Type 0, BuildingBlock: QUQFOY_clean_sbu_3, # of connection points: 4
#     Node 122, Type 0, BuildingBlock: QUQFOY_clean_sbu_3, # of connection points: 4
#     Node 123, Type 0, BuildingBlock: QUQFOY_clean_sbu_3, # of connection points: 4
#     Node 124, Type 0, BuildingBlock: QUQFOY_clean_sbu_3, # of connection points: 4
#     Node 125, Type 0, BuildingBlock: QUQFOY_clean_sbu_3, # of connection points: 4
#     Node 126, Type 0, BuildingBlock: QUQFOY_clean_sbu_3, # of connection points: 4
#     Node 127, Type 0, BuildingBlock: QUQFOY_clean_sbu_3, # of connection points: 4
#     Node 128, Type 0, BuildingBlock: QUQFOY_clean_sbu_3, # of connection points: 4
#     Node 129, Type 0, BuildingBlock: QUQFOY_clean_sbu_3, # of connection points: 4
#     Node 130, Type 0, BuildingBlock: QUQFOY_clean_sbu_3, # of connection points: 4
#     Node 131, Type 0, BuildingBlock: QUQFOY_clean_sbu_3, # of connection points: 4
#     Node 132, Type 0, BuildingBlock: QUQFOY_clean_sbu_3, # of connection points: 4
#     Node 133, Type 0, BuildingBlock: QUQFOY_clean_sbu_3, # of connection points: 4
#     Node 134, Type 0, BuildingBlock: QUQFOY_clean_sbu_3, # of connection points: 4
#     Node 135, Type 0, BuildingBlock: QUQFOY_clean_sbu_3, # of connection points: 4
#     Node 136, Type 0, BuildingBlock: QUQFOY_clean_sbu_3, # of connection points: 4
#     Node 137, Type 0, BuildingBlock: QUQFOY_clean_sbu_3, # of connection points: 4
#     Node 138, Type 0, BuildingBlock: QUQFOY_clean_sbu_3, # of connection points: 4
#     Node 139, Type 0, BuildingBlock: QUQFOY_clean_sbu_3, # of connection points: 4
#     Node 140, Type 0, BuildingBlock: QUQFOY_clean_sbu_3, # of connection points: 4
#     Node 141, Type 0, BuildingBlock: QUQFOY_clean_sbu_3, # of connection points: 4
#     Node 142, Type 0, BuildingBlock: QUQFOY_clean_sbu_3, # of connection points: 4
#     Node 143, Type 0, BuildingBlock: QUQFOY_clean_sbu_3, # of connection points: 4
#     Node 144, Type 0, BuildingBlock: QUQFOY_clean_sbu_3, # of connection points: 4
#     Node 145, Type 0, BuildingBlock: QUQFOY_clean_sbu_3, # of connection points: 4
#     Node 146, Type 0, BuildingBlock: QUQFOY_clean_sbu_3, # of connection points: 4
#     Node 147, Type 0, BuildingBlock: QUQFOY_clean_sbu_3, # of connection points: 4
#     Node 148, Type 0, BuildingBlock: QUQFOY_clean_sbu_3, # of connection points: 4
#     Node 149, Type 0, BuildingBlock: QUQFOY_clean_sbu_3, # of connection points: 4
#     Node 150, Type 0, BuildingBlock: QUQFOY_clean_sbu_3, # of connection points: 4
#     Node 151, Type 0, BuildingBlock: QUQFOY_clean_sbu_3, # of connection points: 4
#     Node 152, Type 0, BuildingBlock: QUQFOY_clean_sbu_3, # of connection points: 4
#     Node 153, Type 0, BuildingBlock: QUQFOY_clean_sbu_3, # of connection points: 4
#     Node 154, Type 0, BuildingBlock: QUQFOY_clean_sbu_3, # of connection points: 4
#     Node 155, Type 0, BuildingBlock: QUQFOY_clean_sbu_3, # of connection points: 4
#     Node 156, Type 0, BuildingBlock: QUQFOY_clean_sbu_3, # of connection points: 4
#     Node 157, Type 0, BuildingBlock: QUQFOY_clean_sbu_3, # of connection points: 4
#     Node 158, Type 0, BuildingBlock: QUQFOY_clean_sbu_3, # of connection points: 4
#     Node 159, Type 0, BuildingBlock: QUQFOY_clean_sbu_3, # of connection points: 4
#     Node 160, Type 0, BuildingBlock: QUQFOY_clean_sbu_3, # of connection points: 4
#     Node 161, Type 0, BuildingBlock: QUQFOY_clean_sbu_3, # of connection points: 4
#     Node 162, Type 0, BuildingBlock: QUQFOY_clean_sbu_3, # of connection points: 4
#     Node 163, Type 0, BuildingBlock: QUQFOY_clean_sbu_3, # of connection points: 4
#     Node 164, Type 0, BuildingBlock: QUQFOY_clean_sbu_3, # of connection points: 4
#     Node 165, Type 0, BuildingBlock: QUQFOY_clean_sbu_3, # of connection points: 4
#     Node 166, Type 0, BuildingBlock: QUQFOY_clean_sbu_3, # of connection points: 4
#     Node 167, Type 0, BuildingBlock: QUQFOY_clean_sbu_3, # of connection points: 4
#     Node 168, Type 0, BuildingBlock: QUQFOY_clean_sbu_3, # of connection points: 4
#     Node 169, Type 0, BuildingBlock: QUQFOY_clean_sbu_3, # of connection points: 4
#     Node 170, Type 0, BuildingBlock: QUQFOY_clean_sbu_3, # of connection points: 4
#     Node 171, Type 0, BuildingBlock: QUQFOY_clean_sbu_3, # of connection points: 4
#     Node 172, Type 0, BuildingBlock: QUQFOY_clean_sbu_3, # of connection points: 4
#     Node 173, Type 0, BuildingBlock: QUQFOY_clean_sbu_3, # of connection points: 4
#     Node 174, Type 0, BuildingBlock: QUQFOY_clean_sbu_3, # of connection points: 4
#     Node 175, Type 0, BuildingBlock: QUQFOY_clean_sbu_3, # of connection points: 4
#     Node 176, Type 0, BuildingBlock: QUQFOY_clean_sbu_3, # of connection points: 4
#     Node 177, Type 0, BuildingBlock: QUQFOY_clean_sbu_3, # of connection points: 4
#     Node 178, Type 0, BuildingBlock: QUQFOY_clean_sbu_3, # of connection points: 4
#     Node 179, Type 0, BuildingBlock: QUQFOY_clean_sbu_3, # of connection points: 4
#     Node 180, Type 0, BuildingBlock: QUQFOY_clean_sbu_3, # of connection points: 4
#     Node 181, Type 0, BuildingBlock: QUQFOY_clean_sbu_3, # of connection points: 4
#     Node 182, Type 0, BuildingBlock: QUQFOY_clean_sbu_3, # of connection points: 4
#     Node 183, Type 0, BuildingBlock: QUQFOY_clean_sbu_3, # of connection points: 4
#     Node 184, Type 0, BuildingBlock: QUQFOY_clean_sbu_3, # of connection points: 4
#     Node 185, Type 0, BuildingBlock: QUQFOY_clean_sbu_3, # of connection points: 4
#     Node 186, Type 0, BuildingBlock: QUQFOY_clean_sbu_3, # of connection points: 4
#     Node 187, Type 0, BuildingBlock: QUQFOY_clean_sbu_3, # of connection points: 4
#     Node 188, Type 0, BuildingBlock: QUQFOY_clean_sbu_3, # of connection points: 4
#     Node 189, Type 0, BuildingBlock: QUQFOY_clean_sbu_3, # of connection points: 4
#     Node 190, Type 0, BuildingBlock: QUQFOY_clean_sbu_3, # of connection points: 4
#     Node 191, Type 0, BuildingBlock: QUQFOY_clean_sbu_3, # of connection points: 4
#     Edge 192, Type (0, 0), BuildingBlock: XIVTED_clean_linker_0, # of connection points: 2
#     Edge 193, Type (0, 0), BuildingBlock: XIVTED_clean_linker_0, # of connection points: 2
#     Edge 194, Type (0, 0), BuildingBlock: XIVTED_clean_linker_0, # of connection points: 2
#     Edge 195, Type (0, 0), BuildingBlock: XIVTED_clean_linker_0, # of connection points: 2
#     Edge 196, Type (0, 0), BuildingBlock: XIVTED_clean_linker_0, # of connection points: 2
#     Edge 197, Type (0, 0), BuildingBlock: XIVTED_clean_linker_0, # of connection points: 2
#     Edge 198, Type (0, 0), BuildingBlock: XIVTED_clean_linker_0, # of connection points: 2
#     Edge 199, Type (0, 0), BuildingBlock: XIVTED_clean_linker_0, # of connection points: 2
#     Edge 200, Type (0, 0), BuildingBlock: XIVTED_clean_linker_0, # of connection points: 2
#     Edge 201, Type (0, 0), BuildingBlock: XIVTED_clean_linker_0, # of connection points: 2
#     Edge 202, Type (0, 0), BuildingBlock: XIVTED_clean_linker_0, # of connection points: 2
#     Edge 203, Type (0, 0), BuildingBlock: XIVTED_clean_linker_0, # of connection points: 2
#     Edge 204, Type (0, 0), BuildingBlock: XIVTED_clean_linker_0, # of connection points: 2
#     Edge 205, Type (0, 0), BuildingBlock: XIVTED_clean_linker_0, # of connection points: 2
#     Edge 206, Type (0, 0), BuildingBlock: XIVTED_clean_linker_0, # of connection points: 2
#     Edge 207, Type (0, 0), BuildingBlock: XIVTED_clean_linker_0, # of connection points: 2
#     Edge 208, Type (0, 0), BuildingBlock: XIVTED_clean_linker_0, # of connection points: 2
#     Edge 209, Type (0, 0), BuildingBlock: XIVTED_clean_linker_0, # of connection points: 2
#     Edge 210, Type (0, 0), BuildingBlock: XIVTED_clean_linker_0, # of connection points: 2
#     Edge 211, Type (0, 0), BuildingBlock: XIVTED_clean_linker_0, # of connection points: 2
#     Edge 212, Type (0, 0), BuildingBlock: XIVTED_clean_linker_0, # of connection points: 2
#     Edge 213, Type (0, 0), BuildingBlock: XIVTED_clean_linker_0, # of connection points: 2
#     Edge 214, Type (0, 0), BuildingBlock: XIVTED_clean_linker_0, # of connection points: 2
#     Edge 215, Type (0, 0), BuildingBlock: XIVTED_clean_linker_0, # of connection points: 2
#     Edge 216, Type (0, 0), BuildingBlock: XIVTED_clean_linker_0, # of connection points: 2
#     Edge 217, Type (0, 0), BuildingBlock: XIVTED_clean_linker_0, # of connection points: 2
#     Edge 218, Type (0, 0), BuildingBlock: XIVTED_clean_linker_0, # of connection points: 2
#     Edge 219, Type (0, 0), BuildingBlock: XIVTED_clean_linker_0, # of connection points: 2
#     Edge 220, Type (0, 0), BuildingBlock: XIVTED_clean_linker_0, # of connection points: 2
#     Edge 221, Type (0, 0), BuildingBlock: XIVTED_clean_linker_0, # of connection points: 2
#     Edge 222, Type (0, 0), BuildingBlock: XIVTED_clean_linker_0, # of connection points: 2
#     Edge 223, Type (0, 0), BuildingBlock: XIVTED_clean_linker_0, # of connection points: 2
#     Edge 224, Type (0, 0), BuildingBlock: XIVTED_clean_linker_0, # of connection points: 2
#     Edge 225, Type (0, 0), BuildingBlock: XIVTED_clean_linker_0, # of connection points: 2
#     Edge 226, Type (0, 0), BuildingBlock: XIVTED_clean_linker_0, # of connection points: 2
#     Edge 227, Type (0, 0), BuildingBlock: XIVTED_clean_linker_0, # of connection points: 2
#     Edge 228, Type (0, 0), BuildingBlock: XIVTED_clean_linker_0, # of connection points: 2
#     Edge 229, Type (0, 0), BuildingBlock: XIVTED_clean_linker_0, # of connection points: 2
#     Edge 230, Type (0, 0), BuildingBlock: XIVTED_clean_linker_0, # of connection points: 2
#     Edge 231, Type (0, 0), BuildingBlock: XIVTED_clean_linker_0, # of connection points: 2
#     Edge 232, Type (0, 0), BuildingBlock: XIVTED_clean_linker_0, # of connection points: 2
#     Edge 233, Type (0, 0), BuildingBlock: XIVTED_clean_linker_0, # of connection points: 2
#     Edge 234, Type (0, 0), BuildingBlock: XIVTED_clean_linker_0, # of connection points: 2
#     Edge 235, Type (0, 0), BuildingBlock: XIVTED_clean_linker_0, # of connection points: 2
#     Edge 236, Type (0, 0), BuildingBlock: XIVTED_clean_linker_0, # of connection points: 2
#     Edge 237, Type (0, 0), BuildingBlock: XIVTED_clean_linker_0, # of connection points: 2
#     Edge 238, Type (0, 0), BuildingBlock: XIVTED_clean_linker_0, # of connection points: 2
#     Edge 239, Type (0, 0), BuildingBlock: XIVTED_clean_linker_0, # of connection points: 2
#     Edge 240, Type (0, 0), BuildingBlock: XIVTED_clean_linker_0, # of connection points: 2
#     Edge 241, Type (0, 0), BuildingBlock: XIVTED_clean_linker_0, # of connection points: 2
#     Edge 242, Type (0, 0), BuildingBlock: XIVTED_clean_linker_0, # of connection points: 2
#     Edge 243, Type (0, 0), BuildingBlock: XIVTED_clean_linker_0, # of connection points: 2
#     Edge 244, Type (0, 0), BuildingBlock: XIVTED_clean_linker_0, # of connection points: 2
#     Edge 245, Type (0, 0), BuildingBlock: XIVTED_clean_linker_0, # of connection points: 2
#     Edge 246, Type (0, 0), BuildingBlock: XIVTED_clean_linker_0, # of connection points: 2
#     Edge 247, Type (0, 0), BuildingBlock: XIVTED_clean_linker_0, # of connection points: 2
#     Edge 248, Type (0, 0), BuildingBlock: XIVTED_clean_linker_0, # of connection points: 2
#     Edge 249, Type (0, 0), BuildingBlock: XIVTED_clean_linker_0, # of connection points: 2
#     Edge 250, Type (0, 0), BuildingBlock: XIVTED_clean_linker_0, # of connection points: 2
#     Edge 251, Type (0, 0), BuildingBlock: XIVTED_clean_linker_0, # of connection points: 2
#     Edge 252, Type (0, 0), BuildingBlock: XIVTED_clean_linker_0, # of connection points: 2
#     Edge 253, Type (0, 0), BuildingBlock: XIVTED_clean_linker_0, # of connection points: 2
#     Edge 254, Type (0, 0), BuildingBlock: XIVTED_clean_linker_0, # of connection points: 2
#     Edge 255, Type (0, 0), BuildingBlock: XIVTED_clean_linker_0, # of connection points: 2
#     Edge 256, Type (0, 0), BuildingBlock: XIVTED_clean_linker_0, # of connection points: 2
#     Edge 257, Type (0, 0), BuildingBlock: XIVTED_clean_linker_0, # of connection points: 2
#     Edge 258, Type (0, 0), BuildingBlock: XIVTED_clean_linker_0, # of connection points: 2
#     Edge 259, Type (0, 0), BuildingBlock: XIVTED_clean_linker_0, # of connection points: 2
#     Edge 260, Type (0, 0), BuildingBlock: XIVTED_clean_linker_0, # of connection points: 2
#     Edge 261, Type (0, 0), BuildingBlock: XIVTED_clean_linker_0, # of connection points: 2
#     Edge 262, Type (0, 0), BuildingBlock: XIVTED_clean_linker_0, # of connection points: 2
#     Edge 263, Type (0, 0), BuildingBlock: XIVTED_clean_linker_0, # of connection points: 2
#     Edge 264, Type (0, 0), BuildingBlock: XIVTED_clean_linker_0, # of connection points: 2
#     Edge 265, Type (0, 0), BuildingBlock: XIVTED_clean_linker_0, # of connection points: 2
#     Edge 266, Type (0, 0), BuildingBlock: XIVTED_clean_linker_0, # of connection points: 2
#     Edge 267, Type (0, 0), BuildingBlock: XIVTED_clean_linker_0, # of connection points: 2
#     Edge 268, Type (0, 0), BuildingBlock: XIVTED_clean_linker_0, # of connection points: 2
#     Edge 269, Type (0, 0), BuildingBlock: XIVTED_clean_linker_0, # of connection points: 2
#     Edge 270, Type (0, 0), BuildingBlock: XIVTED_clean_linker_0, # of connection points: 2
#     Edge 271, Type (0, 0), BuildingBlock: XIVTED_clean_linker_0, # of connection points: 2
#     Edge 272, Type (0, 0), BuildingBlock: XIVTED_clean_linker_0, # of connection points: 2
#     Edge 273, Type (0, 0), BuildingBlock: XIVTED_clean_linker_0, # of connection points: 2
#     Edge 274, Type (0, 0), BuildingBlock: XIVTED_clean_linker_0, # of connection points: 2
#     Edge 275, Type (0, 0), BuildingBlock: XIVTED_clean_linker_0, # of connection points: 2
#     Edge 276, Type (0, 0), BuildingBlock: XIVTED_clean_linker_0, # of connection points: 2
#     Edge 277, Type (0, 0), BuildingBlock: XIVTED_clean_linker_0, # of connection points: 2
#     Edge 278, Type (0, 0), BuildingBlock: XIVTED_clean_linker_0, # of connection points: 2
#     Edge 279, Type (0, 0), BuildingBlock: XIVTED_clean_linker_0, # of connection points: 2
#     Edge 280, Type (0, 0), BuildingBlock: XIVTED_clean_linker_0, # of connection points: 2
#     Edge 281, Type (0, 0), BuildingBlock: XIVTED_clean_linker_0, # of connection points: 2
#     Edge 282, Type (0, 0), BuildingBlock: XIVTED_clean_linker_0, # of connection points: 2
#     Edge 283, Type (0, 0), BuildingBlock: XIVTED_clean_linker_0, # of connection points: 2
#     Edge 284, Type (0, 0), BuildingBlock: XIVTED_clean_linker_0, # of connection points: 2
#     Edge 285, Type (0, 0), BuildingBlock: XIVTED_clean_linker_0, # of connection points: 2
#     Edge 286, Type (0, 0), BuildingBlock: XIVTED_clean_linker_0, # of connection points: 2
#     Edge 287, Type (0, 0), BuildingBlock: XIVTED_clean_linker_0, # of connection points: 2
#     Edge 288, Type (0, 0), BuildingBlock: XIVTED_clean_linker_0, # of connection points: 2
#     Edge 289, Type (0, 0), BuildingBlock: XIVTED_clean_linker_0, # of connection points: 2
#     Edge 290, Type (0, 0), BuildingBlock: XIVTED_clean_linker_0, # of connection points: 2
#     Edge 291, Type (0, 0), BuildingBlock: XIVTED_clean_linker_0, # of connection points: 2
#     Edge 292, Type (0, 0), BuildingBlock: XIVTED_clean_linker_0, # of connection points: 2
#     Edge 293, Type (0, 0), BuildingBlock: XIVTED_clean_linker_0, # of connection points: 2
#     Edge 294, Type (0, 0), BuildingBlock: XIVTED_clean_linker_0, # of connection points: 2
#     Edge 295, Type (0, 0), BuildingBlock: XIVTED_clean_linker_0, # of connection points: 2
#     Edge 296, Type (0, 0), BuildingBlock: XIVTED_clean_linker_0, # of connection points: 2
#     Edge 297, Type (0, 0), BuildingBlock: XIVTED_clean_linker_0, # of connection points: 2
#     Edge 298, Type (0, 0), BuildingBlock: XIVTED_clean_linker_0, # of connection points: 2
#     Edge 299, Type (0, 0), BuildingBlock: XIVTED_clean_linker_0, # of connection points: 2
#     Edge 300, Type (0, 0), BuildingBlock: XIVTED_clean_linker_0, # of connection points: 2
#     Edge 301, Type (0, 0), BuildingBlock: XIVTED_clean_linker_0, # of connection points: 2
#     Edge 302, Type (0, 0), BuildingBlock: XIVTED_clean_linker_0, # of connection points: 2
#     Edge 303, Type (0, 0), BuildingBlock: XIVTED_clean_linker_0, # of connection points: 2
#     Edge 304, Type (0, 0), BuildingBlock: XIVTED_clean_linker_0, # of connection points: 2
#     Edge 305, Type (0, 0), BuildingBlock: XIVTED_clean_linker_0, # of connection points: 2
#     Edge 306, Type (0, 0), BuildingBlock: XIVTED_clean_linker_0, # of connection points: 2
#     Edge 307, Type (0, 0), BuildingBlock: XIVTED_clean_linker_0, # of connection points: 2
#     Edge 308, Type (0, 0), BuildingBlock: XIVTED_clean_linker_0, # of connection points: 2
#     Edge 309, Type (0, 0), BuildingBlock: XIVTED_clean_linker_0, # of connection points: 2
#     Edge 310, Type (0, 0), BuildingBlock: XIVTED_clean_linker_0, # of connection points: 2
#     Edge 311, Type (0, 0), BuildingBlock: XIVTED_clean_linker_0, # of connection points: 2
#     Edge 312, Type (0, 0), BuildingBlock: XIVTED_clean_linker_0, # of connection points: 2
#     Edge 313, Type (0, 0), BuildingBlock: XIVTED_clean_linker_0, # of connection points: 2
#     Edge 314, Type (0, 0), BuildingBlock: XIVTED_clean_linker_0, # of connection points: 2
#     Edge 315, Type (0, 0), BuildingBlock: XIVTED_clean_linker_0, # of connection points: 2
#     Edge 316, Type (0, 0), BuildingBlock: XIVTED_clean_linker_0, # of connection points: 2
#     Edge 317, Type (0, 0), BuildingBlock: XIVTED_clean_linker_0, # of connection points: 2
#     Edge 318, Type (0, 0), BuildingBlock: XIVTED_clean_linker_0, # of connection points: 2
#     Edge 319, Type (0, 0), BuildingBlock: XIVTED_clean_linker_0, # of connection points: 2
#     Edge 320, Type (0, 0), BuildingBlock: XIVTED_clean_linker_0, # of connection points: 2
#     Edge 321, Type (0, 0), BuildingBlock: XIVTED_clean_linker_0, # of connection points: 2
#     Edge 322, Type (0, 0), BuildingBlock: XIVTED_clean_linker_0, # of connection points: 2
#     Edge 323, Type (0, 0), BuildingBlock: XIVTED_clean_linker_0, # of connection points: 2
#     Edge 324, Type (0, 0), BuildingBlock: XIVTED_clean_linker_0, # of connection points: 2
#     Edge 325, Type (0, 0), BuildingBlock: XIVTED_clean_linker_0, # of connection points: 2
#     Edge 326, Type (0, 0), BuildingBlock: XIVTED_clean_linker_0, # of connection points: 2
#     Edge 327, Type (0, 0), BuildingBlock: XIVTED_clean_linker_0, # of connection points: 2
#     Edge 328, Type (0, 0), BuildingBlock: XIVTED_clean_linker_0, # of connection points: 2
#     Edge 329, Type (0, 0), BuildingBlock: XIVTED_clean_linker_0, # of connection points: 2
#     Edge 330, Type (0, 0), BuildingBlock: XIVTED_clean_linker_0, # of connection points: 2
#     Edge 331, Type (0, 0), BuildingBlock: XIVTED_clean_linker_0, # of connection points: 2
#     Edge 332, Type (0, 0), BuildingBlock: XIVTED_clean_linker_0, # of connection points: 2
#     Edge 333, Type (0, 0), BuildingBlock: XIVTED_clean_linker_0, # of connection points: 2
#     Edge 334, Type (0, 0), BuildingBlock: XIVTED_clean_linker_0, # of connection points: 2
#     Edge 335, Type (0, 0), BuildingBlock: XIVTED_clean_linker_0, # of connection points: 2
#     Edge 336, Type (0, 0), BuildingBlock: XIVTED_clean_linker_0, # of connection points: 2
#     Edge 337, Type (0, 0), BuildingBlock: XIVTED_clean_linker_0, # of connection points: 2
#     Edge 338, Type (0, 0), BuildingBlock: XIVTED_clean_linker_0, # of connection points: 2
#     Edge 339, Type (0, 0), BuildingBlock: XIVTED_clean_linker_0, # of connection points: 2
#     Edge 340, Type (0, 0), BuildingBlock: XIVTED_clean_linker_0, # of connection points: 2
#     Edge 341, Type (0, 0), BuildingBlock: XIVTED_clean_linker_0, # of connection points: 2
#     Edge 342, Type (0, 0), BuildingBlock: XIVTED_clean_linker_0, # of connection points: 2
#     Edge 343, Type (0, 0), BuildingBlock: XIVTED_clean_linker_0, # of connection points: 2
#     Edge 344, Type (0, 0), BuildingBlock: XIVTED_clean_linker_0, # of connection points: 2
#     Edge 345, Type (0, 0), BuildingBlock: XIVTED_clean_linker_0, # of connection points: 2
#     Edge 346, Type (0, 0), BuildingBlock: XIVTED_clean_linker_0, # of connection points: 2
#     Edge 347, Type (0, 0), BuildingBlock: XIVTED_clean_linker_0, # of connection points: 2
#     Edge 348, Type (0, 0), BuildingBlock: XIVTED_clean_linker_0, # of connection points: 2
#     Edge 349, Type (0, 0), BuildingBlock: XIVTED_clean_linker_0, # of connection points: 2
#     Edge 350, Type (0, 0), BuildingBlock: XIVTED_clean_linker_0, # of connection points: 2
#     Edge 351, Type (0, 0), BuildingBlock: XIVTED_clean_linker_0, # of connection points: 2
#     Edge 352, Type (0, 0), BuildingBlock: XIVTED_clean_linker_0, # of connection points: 2
#     Edge 353, Type (0, 0), BuildingBlock: XIVTED_clean_linker_0, # of connection points: 2
#     Edge 354, Type (0, 0), BuildingBlock: XIVTED_clean_linker_0, # of connection points: 2
#     Edge 355, Type (0, 0), BuildingBlock: XIVTED_clean_linker_0, # of connection points: 2
#     Edge 356, Type (0, 0), BuildingBlock: XIVTED_clean_linker_0, # of connection points: 2
#     Edge 357, Type (0, 0), BuildingBlock: XIVTED_clean_linker_0, # of connection points: 2
#     Edge 358, Type (0, 0), BuildingBlock: XIVTED_clean_linker_0, # of connection points: 2
#     Edge 359, Type (0, 0), BuildingBlock: XIVTED_clean_linker_0, # of connection points: 2
#     Edge 360, Type (0, 0), BuildingBlock: XIVTED_clean_linker_0, # of connection points: 2
#     Edge 361, Type (0, 0), BuildingBlock: XIVTED_clean_linker_0, # of connection points: 2
#     Edge 362, Type (0, 0), BuildingBlock: XIVTED_clean_linker_0, # of connection points: 2
#     Edge 363, Type (0, 0), BuildingBlock: XIVTED_clean_linker_0, # of connection points: 2
#     Edge 364, Type (0, 0), BuildingBlock: XIVTED_clean_linker_0, # of connection points: 2
#     Edge 365, Type (0, 0), BuildingBlock: XIVTED_clean_linker_0, # of connection points: 2
#     Edge 366, Type (0, 0), BuildingBlock: XIVTED_clean_linker_0, # of connection points: 2
#     Edge 367, Type (0, 0), BuildingBlock: XIVTED_clean_linker_0, # of connection points: 2
#     Edge 368, Type (0, 0), BuildingBlock: XIVTED_clean_linker_0, # of connection points: 2
#     Edge 369, Type (0, 0), BuildingBlock: XIVTED_clean_linker_0, # of connection points: 2
#     Edge 370, Type (0, 0), BuildingBlock: XIVTED_clean_linker_0, # of connection points: 2
#     Edge 371, Type (0, 0), BuildingBlock: XIVTED_clean_linker_0, # of connection points: 2
#     Edge 372, Type (0, 0), BuildingBlock: XIVTED_clean_linker_0, # of connection points: 2
#     Edge 373, Type (0, 0), BuildingBlock: XIVTED_clean_linker_0, # of connection points: 2
#     Edge 374, Type (0, 0), BuildingBlock: XIVTED_clean_linker_0, # of connection points: 2
#     Edge 375, Type (0, 0), BuildingBlock: XIVTED_clean_linker_0, # of connection points: 2
#     Edge 376, Type (0, 0), BuildingBlock: XIVTED_clean_linker_0, # of connection points: 2
#     Edge 377, Type (0, 0), BuildingBlock: XIVTED_clean_linker_0, # of connection points: 2
#     Edge 378, Type (0, 0), BuildingBlock: XIVTED_clean_linker_0, # of connection points: 2
#     Edge 379, Type (0, 0), BuildingBlock: XIVTED_clean_linker_0, # of connection points: 2
#     Edge 380, Type (0, 0), BuildingBlock: XIVTED_clean_linker_0, # of connection points: 2
#     Edge 381, Type (0, 0), BuildingBlock: XIVTED_clean_linker_0, # of connection points: 2
#     Edge 382, Type (0, 0), BuildingBlock: XIVTED_clean_linker_0, # of connection points: 2
#     Edge 383, Type (0, 0), BuildingBlock: XIVTED_clean_linker_0, # of connection points: 2
#     Edge 384, Type (0, 0), BuildingBlock: XIVTED_clean_linker_0, # of connection points: 2
#     Edge 385, Type (0, 0), BuildingBlock: XIVTED_clean_linker_0, # of connection points: 2
#     Edge 386, Type (0, 0), BuildingBlock: XIVTED_clean_linker_0, # of connection points: 2
#     Edge 387, Type (0, 0), BuildingBlock: XIVTED_clean_linker_0, # of connection points: 2
#     Edge 388, Type (0, 0), BuildingBlock: XIVTED_clean_linker_0, # of connection points: 2
#     Edge 389, Type (0, 0), BuildingBlock: XIVTED_clean_linker_0, # of connection points: 2
#     Edge 390, Type (0, 0), BuildingBlock: XIVTED_clean_linker_0, # of connection points: 2
#     Edge 391, Type (0, 0), BuildingBlock: XIVTED_clean_linker_0, # of connection points: 2
#     Edge 392, Type (0, 0), BuildingBlock: XIVTED_clean_linker_0, # of connection points: 2
#     Edge 393, Type (0, 0), BuildingBlock: XIVTED_clean_linker_0, # of connection points: 2
#     Edge 394, Type (0, 0), BuildingBlock: XIVTED_clean_linker_0, # of connection points: 2
#     Edge 395, Type (0, 0), BuildingBlock: XIVTED_clean_linker_0, # of connection points: 2
#     Edge 396, Type (0, 0), BuildingBlock: XIVTED_clean_linker_0, # of connection points: 2
#     Edge 397, Type (0, 0), BuildingBlock: XIVTED_clean_linker_0, # of connection points: 2
#     Edge 398, Type (0, 0), BuildingBlock: XIVTED_clean_linker_0, # of connection points: 2
#     Edge 399, Type (0, 0), BuildingBlock: XIVTED_clean_linker_0, # of connection points: 2
#     Edge 400, Type (0, 0), BuildingBlock: XIVTED_clean_linker_0, # of connection points: 2
#     Edge 401, Type (0, 0), BuildingBlock: XIVTED_clean_linker_0, # of connection points: 2
#     Edge 402, Type (0, 0), BuildingBlock: XIVTED_clean_linker_0, # of connection points: 2
#     Edge 403, Type (0, 0), BuildingBlock: XIVTED_clean_linker_0, # of connection points: 2
#     Edge 404, Type (0, 0), BuildingBlock: XIVTED_clean_linker_0, # of connection points: 2
#     Edge 405, Type (0, 0), BuildingBlock: XIVTED_clean_linker_0, # of connection points: 2
#     Edge 406, Type (0, 0), BuildingBlock: XIVTED_clean_linker_0, # of connection points: 2
#     Edge 407, Type (0, 0), BuildingBlock: XIVTED_clean_linker_0, # of connection points: 2
#     Edge 408, Type (0, 0), BuildingBlock: XIVTED_clean_linker_0, # of connection points: 2
#     Edge 409, Type (0, 0), BuildingBlock: XIVTED_clean_linker_0, # of connection points: 2
#     Edge 410, Type (0, 0), BuildingBlock: XIVTED_clean_linker_0, # of connection points: 2
#     Edge 411, Type (0, 0), BuildingBlock: XIVTED_clean_linker_0, # of connection points: 2
#     Edge 412, Type (0, 0), BuildingBlock: XIVTED_clean_linker_0, # of connection points: 2
#     Edge 413, Type (0, 0), BuildingBlock: XIVTED_clean_linker_0, # of connection points: 2
#     Edge 414, Type (0, 0), BuildingBlock: XIVTED_clean_linker_0, # of connection points: 2
#     Edge 415, Type (0, 0), BuildingBlock: XIVTED_clean_linker_0, # of connection points: 2
#     Edge 416, Type (0, 0), BuildingBlock: XIVTED_clean_linker_0, # of connection points: 2
#     Edge 417, Type (0, 0), BuildingBlock: XIVTED_clean_linker_0, # of connection points: 2
#     Edge 418, Type (0, 0), BuildingBlock: XIVTED_clean_linker_0, # of connection points: 2
#     Edge 419, Type (0, 0), BuildingBlock: XIVTED_clean_linker_0, # of connection points: 2
#     Edge 420, Type (0, 0), BuildingBlock: XIVTED_clean_linker_0, # of connection points: 2
#     Edge 421, Type (0, 0), BuildingBlock: XIVTED_clean_linker_0, # of connection points: 2
#     Edge 422, Type (0, 0), BuildingBlock: XIVTED_clean_linker_0, # of connection points: 2
#     Edge 423, Type (0, 0), BuildingBlock: XIVTED_clean_linker_0, # of connection points: 2
#     Edge 424, Type (0, 0), BuildingBlock: XIVTED_clean_linker_0, # of connection points: 2
#     Edge 425, Type (0, 0), BuildingBlock: XIVTED_clean_linker_0, # of connection points: 2
#     Edge 426, Type (0, 0), BuildingBlock: XIVTED_clean_linker_0, # of connection points: 2
#     Edge 427, Type (0, 0), BuildingBlock: XIVTED_clean_linker_0, # of connection points: 2
#     Edge 428, Type (0, 0), BuildingBlock: XIVTED_clean_linker_0, # of connection points: 2
#     Edge 429, Type (0, 0), BuildingBlock: XIVTED_clean_linker_0, # of connection points: 2
#     Edge 430, Type (0, 0), BuildingBlock: XIVTED_clean_linker_0, # of connection points: 2
#     Edge 431, Type (0, 0), BuildingBlock: XIVTED_clean_linker_0, # of connection points: 2
#     Edge 432, Type (0, 0), BuildingBlock: XIVTED_clean_linker_0, # of connection points: 2
#     Edge 433, Type (0, 0), BuildingBlock: XIVTED_clean_linker_0, # of connection points: 2
#     Edge 434, Type (0, 0), BuildingBlock: XIVTED_clean_linker_0, # of connection points: 2
#     Edge 435, Type (0, 0), BuildingBlock: XIVTED_clean_linker_0, # of connection points: 2
#     Edge 436, Type (0, 0), BuildingBlock: XIVTED_clean_linker_0, # of connection points: 2
#     Edge 437, Type (0, 0), BuildingBlock: XIVTED_clean_linker_0, # of connection points: 2
#     Edge 438, Type (0, 0), BuildingBlock: XIVTED_clean_linker_0, # of connection points: 2
#     Edge 439, Type (0, 0), BuildingBlock: XIVTED_clean_linker_0, # of connection points: 2
#     Edge 440, Type (0, 0), BuildingBlock: XIVTED_clean_linker_0, # of connection points: 2
#     Edge 441, Type (0, 0), BuildingBlock: XIVTED_clean_linker_0, # of connection points: 2
#     Edge 442, Type (0, 0), BuildingBlock: XIVTED_clean_linker_0, # of connection points: 2
#     Edge 443, Type (0, 0), BuildingBlock: XIVTED_clean_linker_0, # of connection points: 2
#     Edge 444, Type (0, 0), BuildingBlock: XIVTED_clean_linker_0, # of connection points: 2
#     Edge 445, Type (0, 0), BuildingBlock: XIVTED_clean_linker_0, # of connection points: 2
#     Edge 446, Type (0, 0), BuildingBlock: XIVTED_clean_linker_0, # of connection points: 2
#     Edge 447, Type (0, 0), BuildingBlock: XIVTED_clean_linker_0, # of connection points: 2
#     Edge 448, Type (0, 0), BuildingBlock: XIVTED_clean_linker_0, # of connection points: 2
#     Edge 449, Type (0, 0), BuildingBlock: XIVTED_clean_linker_0, # of connection points: 2
#     Edge 450, Type (0, 0), BuildingBlock: XIVTED_clean_linker_0, # of connection points: 2
#     Edge 451, Type (0, 0), BuildingBlock: XIVTED_clean_linker_0, # of connection points: 2
#     Edge 452, Type (0, 0), BuildingBlock: XIVTED_clean_linker_0, # of connection points: 2
#     Edge 453, Type (0, 0), BuildingBlock: XIVTED_clean_linker_0, # of connection points: 2
#     Edge 454, Type (0, 0), BuildingBlock: XIVTED_clean_linker_0, # of connection points: 2
#     Edge 455, Type (0, 0), BuildingBlock: XIVTED_clean_linker_0, # of connection points: 2
#     Edge 456, Type (0, 0), BuildingBlock: XIVTED_clean_linker_0, # of connection points: 2
#     Edge 457, Type (0, 0), BuildingBlock: XIVTED_clean_linker_0, # of connection points: 2
#     Edge 458, Type (0, 0), BuildingBlock: XIVTED_clean_linker_0, # of connection points: 2
#     Edge 459, Type (0, 0), BuildingBlock: XIVTED_clean_linker_0, # of connection points: 2
#     Edge 460, Type (0, 0), BuildingBlock: XIVTED_clean_linker_0, # of connection points: 2
#     Edge 461, Type (0, 0), BuildingBlock: XIVTED_clean_linker_0, # of connection points: 2
#     Edge 462, Type (0, 0), BuildingBlock: XIVTED_clean_linker_0, # of connection points: 2
#     Edge 463, Type (0, 0), BuildingBlock: XIVTED_clean_linker_0, # of connection points: 2
#     Edge 464, Type (0, 0), BuildingBlock: XIVTED_clean_linker_0, # of connection points: 2
#     Edge 465, Type (0, 0), BuildingBlock: XIVTED_clean_linker_0, # of connection points: 2
#     Edge 466, Type (0, 0), BuildingBlock: XIVTED_clean_linker_0, # of connection points: 2
#     Edge 467, Type (0, 0), BuildingBlock: XIVTED_clean_linker_0, # of connection points: 2
#     Edge 468, Type (0, 0), BuildingBlock: XIVTED_clean_linker_0, # of connection points: 2
#     Edge 469, Type (0, 0), BuildingBlock: XIVTED_clean_linker_0, # of connection points: 2
#     Edge 470, Type (0, 0), BuildingBlock: XIVTED_clean_linker_0, # of connection points: 2
#     Edge 471, Type (0, 0), BuildingBlock: XIVTED_clean_linker_0, # of connection points: 2
#     Edge 472, Type (0, 0), BuildingBlock: XIVTED_clean_linker_0, # of connection points: 2
#     Edge 473, Type (0, 0), BuildingBlock: XIVTED_clean_linker_0, # of connection points: 2
#     Edge 474, Type (0, 0), BuildingBlock: XIVTED_clean_linker_0, # of connection points: 2
#     Edge 475, Type (0, 0), BuildingBlock: XIVTED_clean_linker_0, # of connection points: 2
#     Edge 476, Type (0, 0), BuildingBlock: XIVTED_clean_linker_0, # of connection points: 2
#     Edge 477, Type (0, 0), BuildingBlock: XIVTED_clean_linker_0, # of connection points: 2
#     Edge 478, Type (0, 0), BuildingBlock: XIVTED_clean_linker_0, # of connection points: 2
#     Edge 479, Type (0, 0), BuildingBlock: XIVTED_clean_linker_0, # of connection points: 2
#     Edge 480, Type (0, 0), BuildingBlock: XIVTED_clean_linker_0, # of connection points: 2
#     Edge 481, Type (0, 0), BuildingBlock: XIVTED_clean_linker_0, # of connection points: 2
#     Edge 482, Type (0, 0), BuildingBlock: XIVTED_clean_linker_0, # of connection points: 2
#     Edge 483, Type (0, 0), BuildingBlock: XIVTED_clean_linker_0, # of connection points: 2
#     Edge 484, Type (0, 0), BuildingBlock: XIVTED_clean_linker_0, # of connection points: 2
#     Edge 485, Type (0, 0), BuildingBlock: XIVTED_clean_linker_0, # of connection points: 2
#     Edge 486, Type (0, 0), BuildingBlock: XIVTED_clean_linker_0, # of connection points: 2
#     Edge 487, Type (0, 0), BuildingBlock: XIVTED_clean_linker_0, # of connection points: 2
#     Edge 488, Type (0, 0), BuildingBlock: XIVTED_clean_linker_0, # of connection points: 2
#     Edge 489, Type (0, 0), BuildingBlock: XIVTED_clean_linker_0, # of connection points: 2
#     Edge 490, Type (0, 0), BuildingBlock: XIVTED_clean_linker_0, # of connection points: 2
#     Edge 491, Type (0, 0), BuildingBlock: XIVTED_clean_linker_0, # of connection points: 2
#     Edge 492, Type (0, 0), BuildingBlock: XIVTED_clean_linker_0, # of connection points: 2
#     Edge 493, Type (0, 0), BuildingBlock: XIVTED_clean_linker_0, # of connection points: 2
#     Edge 494, Type (0, 0), BuildingBlock: XIVTED_clean_linker_0, # of connection points: 2
#     Edge 495, Type (0, 0), BuildingBlock: XIVTED_clean_linker_0, # of connection points: 2
#     Edge 496, Type (0, 0), BuildingBlock: XIVTED_clean_linker_0, # of connection points: 2
#     Edge 497, Type (0, 0), BuildingBlock: XIVTED_clean_linker_0, # of connection points: 2
#     Edge 498, Type (0, 0), BuildingBlock: XIVTED_clean_linker_0, # of connection points: 2
#     Edge 499, Type (0, 0), BuildingBlock: XIVTED_clean_linker_0, # of connection points: 2
#     Edge 500, Type (0, 0), BuildingBlock: XIVTED_clean_linker_0, # of connection points: 2
#     Edge 501, Type (0, 0), BuildingBlock: XIVTED_clean_linker_0, # of connection points: 2
#     Edge 502, Type (0, 0), BuildingBlock: XIVTED_clean_linker_0, # of connection points: 2
#     Edge 503, Type (0, 0), BuildingBlock: XIVTED_clean_linker_0, # of connection points: 2
#     Edge 504, Type (0, 0), BuildingBlock: XIVTED_clean_linker_0, # of connection points: 2
#     Edge 505, Type (0, 0), BuildingBlock: XIVTED_clean_linker_0, # of connection points: 2
#     Edge 506, Type (0, 0), BuildingBlock: XIVTED_clean_linker_0, # of connection points: 2
#     Edge 507, Type (0, 0), BuildingBlock: XIVTED_clean_linker_0, # of connection points: 2
#     Edge 508, Type (0, 0), BuildingBlock: XIVTED_clean_linker_0, # of connection points: 2
#     Edge 509, Type (0, 0), BuildingBlock: XIVTED_clean_linker_0, # of connection points: 2
#     Edge 510, Type (0, 0), BuildingBlock: XIVTED_clean_linker_0, # of connection points: 2
#     Edge 511, Type (0, 0), BuildingBlock: XIVTED_clean_linker_0, # of connection points: 2
#     Edge 512, Type (0, 0), BuildingBlock: XIVTED_clean_linker_0, # of connection points: 2
#     Edge 513, Type (0, 0), BuildingBlock: XIVTED_clean_linker_0, # of connection points: 2
#     Edge 514, Type (0, 0), BuildingBlock: XIVTED_clean_linker_0, # of connection points: 2
#     Edge 515, Type (0, 0), BuildingBlock: XIVTED_clean_linker_0, # of connection points: 2
#     Edge 516, Type (0, 0), BuildingBlock: XIVTED_clean_linker_0, # of connection points: 2
#     Edge 517, Type (0, 0), BuildingBlock: XIVTED_clean_linker_0, # of connection points: 2
#     Edge 518, Type (0, 0), BuildingBlock: XIVTED_clean_linker_0, # of connection points: 2
#     Edge 519, Type (0, 0), BuildingBlock: XIVTED_clean_linker_0, # of connection points: 2
#     Edge 520, Type (0, 0), BuildingBlock: XIVTED_clean_linker_0, # of connection points: 2
#     Edge 521, Type (0, 0), BuildingBlock: XIVTED_clean_linker_0, # of connection points: 2
#     Edge 522, Type (0, 0), BuildingBlock: XIVTED_clean_linker_0, # of connection points: 2
#     Edge 523, Type (0, 0), BuildingBlock: XIVTED_clean_linker_0, # of connection points: 2
#     Edge 524, Type (0, 0), BuildingBlock: XIVTED_clean_linker_0, # of connection points: 2
#     Edge 525, Type (0, 0), BuildingBlock: XIVTED_clean_linker_0, # of connection points: 2
#     Edge 526, Type (0, 0), BuildingBlock: XIVTED_clean_linker_0, # of connection points: 2
#     Edge 527, Type (0, 0), BuildingBlock: XIVTED_clean_linker_0, # of connection points: 2
#     Edge 528, Type (0, 0), BuildingBlock: XIVTED_clean_linker_0, # of connection points: 2
#     Edge 529, Type (0, 0), BuildingBlock: XIVTED_clean_linker_0, # of connection points: 2
#     Edge 530, Type (0, 0), BuildingBlock: XIVTED_clean_linker_0, # of connection points: 2
#     Edge 531, Type (0, 0), BuildingBlock: XIVTED_clean_linker_0, # of connection points: 2
#     Edge 532, Type (0, 0), BuildingBlock: XIVTED_clean_linker_0, # of connection points: 2
#     Edge 533, Type (0, 0), BuildingBlock: XIVTED_clean_linker_0, # of connection points: 2
#     Edge 534, Type (0, 0), BuildingBlock: XIVTED_clean_linker_0, # of connection points: 2
#     Edge 535, Type (0, 0), BuildingBlock: XIVTED_clean_linker_0, # of connection points: 2
#     Edge 536, Type (0, 0), BuildingBlock: XIVTED_clean_linker_0, # of connection points: 2
#     Edge 537, Type (0, 0), BuildingBlock: XIVTED_clean_linker_0, # of connection points: 2
#     Edge 538, Type (0, 0), BuildingBlock: XIVTED_clean_linker_0, # of connection points: 2
#     Edge 539, Type (0, 0), BuildingBlock: XIVTED_clean_linker_0, # of connection points: 2
#     Edge 540, Type (0, 0), BuildingBlock: XIVTED_clean_linker_0, # of connection points: 2
#     Edge 541, Type (0, 0), BuildingBlock: XIVTED_clean_linker_0, # of connection points: 2
#     Edge 542, Type (0, 0), BuildingBlock: XIVTED_clean_linker_0, # of connection points: 2
#     Edge 543, Type (0, 0), BuildingBlock: XIVTED_clean_linker_0, # of connection points: 2
#     Edge 544, Type (0, 0), BuildingBlock: XIVTED_clean_linker_0, # of connection points: 2
#     Edge 545, Type (0, 0), BuildingBlock: XIVTED_clean_linker_0, # of connection points: 2
#     Edge 546, Type (0, 0), BuildingBlock: XIVTED_clean_linker_0, # of connection points: 2
#     Edge 547, Type (0, 0), BuildingBlock: XIVTED_clean_linker_0, # of connection points: 2
#     Edge 548, Type (0, 0), BuildingBlock: XIVTED_clean_linker_0, # of connection points: 2
#     Edge 549, Type (0, 0), BuildingBlock: XIVTED_clean_linker_0, # of connection points: 2
#     Edge 550, Type (0, 0), BuildingBlock: XIVTED_clean_linker_0, # of connection points: 2
#     Edge 551, Type (0, 0), BuildingBlock: XIVTED_clean_linker_0, # of connection points: 2
#     Edge 552, Type (0, 0), BuildingBlock: XIVTED_clean_linker_0, # of connection points: 2
#     Edge 553, Type (0, 0), BuildingBlock: XIVTED_clean_linker_0, # of connection points: 2
#     Edge 554, Type (0, 0), BuildingBlock: XIVTED_clean_linker_0, # of connection points: 2
#     Edge 555, Type (0, 0), BuildingBlock: XIVTED_clean_linker_0, # of connection points: 2
#     Edge 556, Type (0, 0), BuildingBlock: XIVTED_clean_linker_0, # of connection points: 2
#     Edge 557, Type (0, 0), BuildingBlock: XIVTED_clean_linker_0, # of connection points: 2
#     Edge 558, Type (0, 0), BuildingBlock: XIVTED_clean_linker_0, # of connection points: 2
#     Edge 559, Type (0, 0), BuildingBlock: XIVTED_clean_linker_0, # of connection points: 2
#     Edge 560, Type (0, 0), BuildingBlock: XIVTED_clean_linker_0, # of connection points: 2
#     Edge 561, Type (0, 0), BuildingBlock: XIVTED_clean_linker_0, # of connection points: 2
#     Edge 562, Type (0, 0), BuildingBlock: XIVTED_clean_linker_0, # of connection points: 2
#     Edge 563, Type (0, 0), BuildingBlock: XIVTED_clean_linker_0, # of connection points: 2
#     Edge 564, Type (0, 0), BuildingBlock: XIVTED_clean_linker_0, # of connection points: 2
#     Edge 565, Type (0, 0), BuildingBlock: XIVTED_clean_linker_0, # of connection points: 2
#     Edge 566, Type (0, 0), BuildingBlock: XIVTED_clean_linker_0, # of connection points: 2
#     Edge 567, Type (0, 0), BuildingBlock: XIVTED_clean_linker_0, # of connection points: 2
#     Edge 568, Type (0, 0), BuildingBlock: XIVTED_clean_linker_0, # of connection points: 2
#     Edge 569, Type (0, 0), BuildingBlock: XIVTED_clean_linker_0, # of connection points: 2
#     Edge 570, Type (0, 0), BuildingBlock: XIVTED_clean_linker_0, # of connection points: 2
#     Edge 571, Type (0, 0), BuildingBlock: XIVTED_clean_linker_0, # of connection points: 2
#     Edge 572, Type (0, 0), BuildingBlock: XIVTED_clean_linker_0, # of connection points: 2
#     Edge 573, Type (0, 0), BuildingBlock: XIVTED_clean_linker_0, # of connection points: 2
#     Edge 574, Type (0, 0), BuildingBlock: XIVTED_clean_linker_0, # of connection points: 2
#     Edge 575, Type (0, 0), BuildingBlock: XIVTED_clean_linker_0, # of connection points: 2
# Relax obj value: 0.084
# Max RMSD: 0.073
# Mean RMSD: 0.073
data_MOF--net-fau--node1-QUQFOY_clean_sbu_3--edge1-XIVTED_clean_linker_0
_symmetry_space_group_name_H-M    P1
_symmetry_Int_Tables_number       1
_symmetry_cell_setting            triclinic
loop_
_symmetry_equiv_pos_as_xyz
'x, y, z'
_cell_length_a     121.35102
_cell_length_b     121.19504
_cell_length_c     121.28401
_cell_angle_alpha  89.983357
_cell_angle_beta   90.017441
_cell_angle_gamma 90.015219
loop_
_atom_site_label
_atom_site_type_symbol
_atom_site_fract_x
_atom_site_fract_y
_atom_site_fract_z
_atom_type_partial_charge
C0 C 0.02316 0.12022 0.464 0.0
O1 O 0.02973 0.11247 0.46651 0.0
Cd2 Cd 0.04138 0.10459 0.45284 0.0
O3 O 0.024 0.12527 0.4548 0.0
Cd4 Cd 0.03712 0.12653 0.43887 0.0
C5 C 0.02315 0.10453 0.43041 0.0
O6 O 0.05357 0.11883 0.44739 0.0
O7 O 0.05349 0.11881 0.42964 0.0
O8 O 0.03881 0.14567 0.44411 0.0
C9 C 0.05867 0.11683 0.4385 0.0
O10 O 0.02837 0.09963 0.43811 0.0
C11 C 0.03873 0.14954 0.43439 0.0
O12 O 0.02453 0.11479 0.42862 0.0
O13 O 0.03745 0.14269 0.42656 0.0
C14 C 0.87462 0.27255 0.71422 0.0
O15 O 0.88234 0.27932 0.71623 0.0
Cd16 Cd 0.88894 0.29095 0.70188 0.0
O17 O 0.86894 0.27327 0.70541 0.0
Cd18 Cd 0.86614 0.28644 0.68976 0.0
C19 C 0.88731 0.27263 0.67954 0.0
O20 O 0.87429 0.30304 0.69746 0.0
O21 O 0.873 0.30284 0.67978 0.0
O22 O 0.8477 0.28833 0.69687 0.0
C23 C 0.87564 0.3081 0.68842 0.0
O24 O 0.8927 0.27787 0.6869 0.0
C25 C 0.84282 0.28782 0.68763 0.0
O26 O 0.87696 0.27397 0.67846 0.0
O27 O 0.84881 0.28623 0.67918 0.0
C28 C 0.72324 0.12583 0.96191 0.0
O29 O 0.72057 0.13574 0.95981 0.0
Cd30 Cd 0.70575 0.1408 0.94762 0.0
O31 O 0.71864 0.11783 0.95691 0.0
Cd32 Cd 0.70523 0.11582 0.94167 0.0
C33 C 0.71799 0.13291 0.92389 0.0
O34 O 0.69124 0.12764 0.94993 0.0
O35 O 0.68792 0.12251 0.93327 0.0
O36 O 0.70159 0.09789 0.94977 0.0
C37 C 0.68459 0.1274 0.94189 0.0
O38 O 0.71328 0.14074 0.92906 0.0
C39 C 0.70172 0.09262 0.94073 0.0
O40 O 0.71755 0.12305 0.92746 0.0
O41 O 0.70363 0.09816 0.93205 0.0
C42 C 0.86582 0.96721 0.21647 0.0
O43 O 0.85741 0.96099 0.21681 0.0
Cd44 Cd 0.85214 0.9484 0.2028 0.0
O45 O 0.87269 0.96647 0.20852 0.0
Cd46 Cd 0.87529 0.95446 0.19183 0.0
C47 C 0.85301 0.96647 0.18064 0.0
O48 O 0.868 0.93745 0.19953 0.0
O49 O 0.86952 0.93752 0.18191 0.0
O50 O 0.89437 0.95347 0.19759 0.0
C51 C 0.8672 0.93216 0.19058 0.0
O52 O 0.84758 0.96047 0.18734 0.0
C53 C 0.89847 0.95412 0.18798 0.0
O54 O 0.86351 0.96639 0.18065 0.0
O55 O 0.89176 0.95552 0.18006 0.0
C56 C 0.02292 0.13128 0.77686 0.0
O57 O 0.02917 0.13969 0.77704 0.0
Cd58 Cd 0.04334 0.14296 0.79018 0.0
O59 O 0.02431 0.12341 0.78371 0.0
Cd60 Cd 0.03733 0.1187 0.79902 0.0
C61 C 0.02717 0.13993 0.81355 0.0
O62 O 0.05388 0.12656 0.79104 0.0
O63 O 0.05493 0.12324 0.80838 0.0
O64 O 0.03799 0.10028 0.79126 0.0
C65 C 0.05972 0.12646 0.79967 0.0
O66 O 0.03302 0.14586 0.80715 0.0
C67 C 0.03733 0.09522 0.8004 0.0
O68 O 0.02655 0.12952 0.81218 0.0
O69 O 0.03611 0.1011 0.80898 0.0
C70 C 0.86638 0.27425 0.02739 0.0
O71 O 0.85714 0.27911 0.02823 0.0
Cd72 Cd 0.85193 0.29131 0.04269 0.0
O73 O 0.87392 0.27582 0.03455 0.0
Cd74 Cd 0.87619 0.28748 0.05143 0.0
C75 C 0.85604 0.27404 0.06479 0.0
O76 O 0.86701 0.30368 0.04402 0.0
O77 O 0.86956 0.3041 0.06151 0.0
O78 O 0.895 0.28978 0.04506 0.0
C79 C 0.86639 0.3091 0.0529 0.0
O80 O 0.84942 0.28002 0.05926 0.0
C81 C 0.89942 0.28926 0.05453 0.0
O82 O 0.86637 0.27427 0.06296 0.0
O83 O 0.89304 0.28751 0.06264 0.0
C84 C 0.72232 0.11334 0.28166 0.0
O85 O 0.7178 0.10411 0.28371 0.0
Cd86 Cd 0.70291 0.10088 0.29607 0.0
O87 O 0.71908 0.12209 0.28653 0.0
Cd88 Cd 0.70487 0.12626 0.3009 0.0
C89 C 0.71627 0.1089 0.31936 0.0
O90 O 0.69037 0.11549 0.2924 0.0
O91 O 0.68683 0.1204 0.30899 0.0
O92 O 0.70241 0.14445 0.29267 0.0
C93 C 0.68346 0.11593 0.30017 0.0
O94 O 0.71106 0.10121 0.31447 0.0
C95 C 0.70236 0.14964 0.30177 0.0
O96 O 0.71629 0.11867 0.31554 0.0
O97 O 0.70386 0.14396 0.31044 0.0
C98 C 0.8793 0.97288 0.53229 0.0
O99 O 0.88843 0.96829 0.53457 0.0
Cd100 Cd 0.89117 0.95387 0.54765 0.0
O101 O 0.87048 0.96994 0.53723 0.0
Cd102 Cd 0.86584 0.95629 0.552 0.0
C103 C 0.88281 0.96822 0.57032 0.0
O104 O 0.87655 0.9412 0.54443 0.0
O105 O 0.87141 0.93878 0.56118 0.0
O106 O 0.84792 0.9536 0.54332 0.0
C107 C 0.87583 0.93478 0.5526 0.0
O108 O 0.8905 0.96274 0.56573 0.0
C109 C 0.84249 0.95373 0.55227 0.0
O110 O 0.87311 0.96826 0.56633 0.0
O111 O 0.8479 0.95552 0.56105 0.0
C112 C 0.46298 0.02366 0.11491 0.0
O113 O 0.46146 0.02827 0.10563 0.0
Cd114 Cd 0.44714 0.041 0.10136 0.0
O115 O 0.45657 0.02567 0.123 0.0
Cd116 Cd 0.44013 0.03773 0.12616 0.0
C117 C 0.42498 0.02448 0.10712 0.0
O118 O 0.44758 0.05354 0.11642 0.0
O119 O 0.43032 0.05475 0.12006 0.0
O120 O 0.44738 0.04014 0.14469 0.0
C121 C 0.43896 0.05938 0.11645 0.0
O122 O 0.43009 0.03029 0.10003 0.0
C123 C 0.4381 0.03975 0.1495 0.0
O124 O 0.42764 0.02476 0.11726 0.0
O125 O 0.42973 0.03799 0.14347 0.0
C126 C 0.96755 0.71641 0.36863 0.0
O127 O 0.96106 0.71869 0.36075 0.0
Cd128 Cd 0.94938 0.70483 0.35315 0.0
O129 O 0.96669 0.70736 0.37391 0.0
Cd130 Cd 0.95361 0.69147 0.37544 0.0
C131 C 0.9674 0.68229 0.3536 0.0
O132 O 0.93712 0.69954 0.36739 0.0
O133 O 0.93745 0.68179 0.36784 0.0
O134 O 0.95137 0.69708 0.39441 0.0
C135 C 0.93218 0.69051 0.36553 0.0
O136 O 0.96219 0.68985 0.34846 0.0
C137 C 0.95199 0.68749 0.39855 0.0
O138 O 0.96612 0.68091 0.36393 0.0
O139 O 0.95377 0.67956 0.39192 0.0
C140 C 0.27193 0.2179 0.61627 0.0
O141 O 0.2716 0.21208 0.60758 0.0
Cd142 Cd 0.28652 0.20106 0.60142 0.0
O143 O 0.28019 0.21738 0.62276 0.0
Cd144 Cd 0.29749 0.20623 0.62468 0.0
C145 C 0.30772 0.22031 0.60328 0.0
O146 O 0.29053 0.18931 0.61655 0.0
O147 O 0.30814 0.18997 0.61827 0.0
O148 O 0.29091 0.20396 0.6433 0.0
C149 C 0.29968 0.1844 0.61567 0.0
O150 O 0.30104 0.21449 0.59763 0.0
C151 C 0.30023 0.20475 0.64797 0.0
O152 O 0.30818 0.21937 0.61373 0.0
O153 O 0.30845 0.20679 0.6418 0.0
C154 C 0.77295 0.52417 0.86728 0.0
O155 O 0.7784 0.52369 0.85837 0.0
Cd156 Cd 0.78887 0.53845 0.85111 0.0
O157 O 0.77359 0.5326 0.87356 0.0
Cd158 Cd 0.78472 0.55008 0.87459 0.0
C159 C 0.76954 0.55957 0.85368 0.0
O160 O 0.80098 0.54273 0.86579 0.0
O161 O 0.80095 0.56036 0.86724 0.0
O162 O 0.78737 0.54429 0.89342 0.0
C163 C 0.80607 0.55172 0.86437 0.0
O164 O 0.77501 0.55274 0.84787 0.0
C165 C 0.78676 0.55383 0.89767 0.0
O166 O 0.77115 0.56039 0.86401 0.0
O167 O 0.78475 0.56181 0.89117 0.0
C168 C 0.46649 0.21872 0.12588 0.0
O169 O 0.46657 0.21255 0.13434 0.0
Cd170 Cd 0.45287 0.19959 0.13938 0.0
O171 O 0.45878 0.21794 0.11873 0.0
Cd172 Cd 0.44215 0.20577 0.11592 0.0
C173 C 0.43036 0.21718 0.13826 0.0
O174 O 0.45025 0.189 0.12322 0.0
O175 O 0.4327 0.18841 0.12145 0.0
O176 O 0.44781 0.2049 0.09675 0.0
C177 C 0.44151 0.18337 0.1239 0.0
O178 O 0.43704 0.21119 0.14371 0.0
C179 C 0.43817 0.20535 0.09272 0.0
O180 O 0.4306 0.21733 0.12775 0.0
O181 O 0.43029 0.20662 0.09949 0.0
C182 C 0.77494 0.71753 0.37622 0.0
O183 O 0.78119 0.71778 0.38461 0.0
Cd184 Cd 0.794 0.70391 0.38964 0.0
O185 O 0.7757 0.70971 0.3692 0.0
Cd186 Cd 0.78782 0.69308 0.36644 0.0
C187 C 0.77609 0.68167 0.38881 0.0
O188 O 0.80479 0.70092 0.37363 0.0
O189 O 0.80487 0.6833 0.37206 0.0
O190 O 0.78873 0.69854 0.34721 0.0
C191 C 0.81017 0.69201 0.37433 0.0
O192 O 0.78212 0.68833 0.39427 0.0
C193 C 0.78809 0.68885 0.34329 0.0
O194 O 0.77609 0.68179 0.37831 0.0
O195 O 0.78672 0.68105 0.35015 0.0
C196 C 0.27799 0.01926 0.62375 0.0
O197 O 0.27975 0.02232 0.6336 0.0
Cd198 Cd 0.29202 0.03694 0.63888 0.0
O199 O 0.28339 0.02339 0.61574 0.0
Cd200 Cd 0.29907 0.03639 0.61385 0.0
C201 C 0.31533 0.02321 0.63228 0.0
O202 O 0.2907 0.05083 0.62499 0.0
O203 O 0.30755 0.05378 0.62038 0.0
O204 O 0.29189 0.03946 0.59539 0.0
C205 C 0.29885 0.05735 0.62494 0.0
O206 O 0.31012 0.02841 0.63975 0.0
C207 C 0.30121 0.03938 0.59065 0.0
O208 O 0.3123 0.02366 0.62224 0.0
O209 O 0.30959 0.03767 0.59669 0.0
C210 C 0.97449 0.52935 0.87811 0.0
O211 O 0.97126 0.53106 0.88792 0.0
Cd212 Cd 0.95677 0.54364 0.89286 0.0
O213 O 0.97035 0.53473 0.87009 0.0
Cd214 Cd 0.95671 0.54971 0.86758 0.0
C215 C 0.96963 0.56724 0.88479 0.0
O216 O 0.94266 0.54151 0.87933 0.0
O217 O 0.9393 0.55812 0.87406 0.0
O218 O 0.95325 0.54152 0.84965 0.0
C219 C 0.936 0.54954 0.87903 0.0
O220 O 0.96497 0.56201 0.8926 0.0
C221 C 0.95327 0.55059 0.84441 0.0
O222 O 0.969 0.56386 0.87488 0.0
O223 O 0.95514 0.55927 0.84995 0.0
C224 C 0.12001 0.46405 0.02583 0.0
O225 O 0.11213 0.46632 0.03231 0.0
Cd226 Cd 0.10409 0.4525 0.04365 0.0
O227 O 0.125 0.45481 0.02639 0.0
Cd228 Cd 0.12579 0.43841 0.03892 0.0
C229 C 0.10343 0.43036 0.02517 0.0
O230 O 0.11844 0.44676 0.05559 0.0
O231 O 0.11826 0.42904 0.05537 0.0
O232 O 0.145 0.44325 0.04044 0.0
C233 C 0.11639 0.43786 0.06065 0.0
O234 O 0.09865 0.43801 0.03059 0.0
C235 C 0.14872 0.43347 0.04008 0.0
O236 O 0.1137 0.42856 0.02633 0.0
O237 O 0.14173 0.42577 0.03875 0.0
C238 C 0.61698 0.27747 0.21512 0.0
O239 O 0.60826 0.2774 0.20933 0.0
Cd240 Cd 0.60214 0.29254 0.19872 0.0
O241 O 0.62361 0.28565 0.21477 0.0
Cd242 Cd 0.62586 0.30329 0.20404 0.0
C243 C 0.6047 0.31319 0.21866 0.0
O244 O 0.61753 0.29632 0.18736 0.0
O245 O 0.61932 0.31391 0.18764 0.0
O246 O 0.64453 0.29656 0.20226 0.0
C247 C 0.61653 0.30537 0.1823 0.0
O248 O 0.59899 0.30661 0.21278 0.0
C249 C 0.6492 0.30591 0.20272 0.0
O250 O 0.61512 0.31381 0.2175 0.0
O251 O 0.64302 0.31423 0.20427 0.0
C252 C 0.71544 0.86643 0.46625 0.0
O253 O 0.71578 0.85785 0.46025 0.0
Cd254 Cd 0.70102 0.85175 0.44906 0.0
O255 O 0.7072 0.87296 0.46586 0.0
Cd256 Cd 0.68996 0.87518 0.4546 0.0
C257 C 0.67972 0.85351 0.46828 0.0
O258 O 0.69728 0.86729 0.43785 0.0
O259 O 0.67969 0.86898 0.43787 0.0
O260 O 0.69663 0.89385 0.45314 0.0
C261 C 0.68833 0.86636 0.43261 0.0
O262 O 0.68642 0.84794 0.46241 0.0
C263 C 0.68731 0.89853 0.4538 0.0
O264 O 0.67926 0.86398 0.46747 0.0
O265 O 0.679 0.89231 0.45531 0.0
C266 C 0.12467 0.96587 0.71687 0.0
O267 O 0.13306 0.96616 0.71063 0.0
Cd268 Cd 0.13862 0.95194 0.69847 0.0
O269 O 0.11788 0.95783 0.71636 0.0
Cd270 Cd 0.11524 0.9408 0.70476 0.0
C271 C 0.13756 0.93023 0.71726 0.0
O272 O 0.12277 0.94818 0.68782 0.0
O273 O 0.12127 0.93056 0.68806 0.0
O274 O 0.09622 0.94667 0.70321 0.0
C275 C 0.12376 0.93917 0.68267 0.0
O276 O 0.14289 0.93691 0.71115 0.0
C277 C 0.09201 0.93712 0.70407 0.0
O278 O 0.12705 0.92997 0.71707 0.0
O279 O 0.09861 0.92918 0.70587 0.0
C280 C 0.52358 0.3767 0.4676 0.0
O281 O 0.52307 0.38522 0.46152 0.0
Cd282 Cd 0.53683 0.39093 0.44889 0.0
O283 O 0.53164 0.36998 0.46676 0.0
Cd284 Cd 0.54826 0.36796 0.45457 0.0
C285 C 0.55936 0.39038 0.46647 0.0
O286 O 0.54002 0.37516 0.43779 0.0
O287 O 0.55764 0.37388 0.43735 0.0
O288 O 0.54292 0.34876 0.45324 0.0
C289 C 0.54879 0.37604 0.43225 0.0
O290 O 0.55243 0.39572 0.46065 0.0
C291 C 0.5526 0.34485 0.45389 0.0
O292 O 0.55953 0.37987 0.46633 0.0
O293 O 0.56036 0.35171 0.45549 0.0
C294 C 0.12929 0.77812 0.02323 0.0
O295 O 0.13774 0.7781 0.0294 0.0
Cd296 Cd 0.14223 0.7921 0.04226 0.0
O297 O 0.12191 0.78557 0.02428 0.0
Cd298 Cd 0.11847 0.80179 0.03673 0.0
C299 C 0.13971 0.81402 0.02407 0.0
O300 O 0.12639 0.79429 0.05348 0.0
O301 O 0.12428 0.81187 0.05359 0.0
O302 O 0.09968 0.79524 0.03846 0.0
C303 C 0.12691 0.80322 0.05885 0.0
O304 O 0.14563 0.80764 0.02996 0.0
C305 C 0.0952 0.80467 0.0376 0.0
O306 O 0.12924 0.81358 0.02452 0.0
O307 O 0.10155 0.8128 0.03574 0.0
C308 C 0.71771 0.87682 0.27409 0.0
O309 O 0.71766 0.88542 0.28007 0.0
Cd310 Cd 0.70338 0.89043 0.29245 0.0
O311 O 0.71002 0.86968 0.27487 0.0
Cd312 Cd 0.69327 0.86663 0.28663 0.0
C313 C 0.68116 0.8884 0.27452 0.0
O314 O 0.70086 0.87442 0.30338 0.0
O315 O 0.68339 0.87186 0.30385 0.0
O316 O 0.69996 0.84785 0.28762 0.0
C317 C 0.69204 0.87479 0.30891 0.0
O318 O 0.68769 0.89415 0.28043 0.0
C319 C 0.6906 0.84326 0.28692 0.0
O320 O 0.6816 0.8779 0.27468 0.0
O321 O 0.68234 0.84956 0.28556 0.0
C322 C 0.02422 0.36551 0.77275 0.0
O323 O 0.02287 0.35702 0.77874 0.0
Cd324 Cd 0.03658 0.34978 0.79074 0.0
O325 O 0.03284 0.37145 0.77369 0.0
Cd326 Cd 0.04922 0.37251 0.78617 0.0
C327 C 0.05901 0.35039 0.77289 0.0
O328 O 0.04095 0.36463 0.80269 0.0
O329 O 0.05864 0.36581 0.80291 0.0
O330 O 0.04382 0.39158 0.78795 0.0
C331 C 0.04985 0.36341 0.80801 0.0
O332 O 0.05173 0.34506 0.77829 0.0
C333 C 0.05347 0.39557 0.78737 0.0
O334 O 0.05989 0.36082 0.77385 0.0
O335 O 0.06131 0.38879 0.78579 0.0
C336 C 0.96667 0.87617 0.52362 0.0
O337 O 0.96113 0.88505 0.52361 0.0
Cd338 Cd 0.95052 0.89116 0.53876 0.0
O339 O 0.96605 0.86943 0.53169 0.0
Cd340 Cd 0.955 0.86729 0.54909 0.0
C341 C 0.96999 0.88791 0.55963 0.0
O342 O 0.93857 0.87602 0.54203 0.0
O343 O 0.93861 0.87398 0.55959 0.0
O344 O 0.95285 0.84866 0.54234 0.0
C345 C 0.9334 0.87692 0.55101 0.0
O346 O 0.96438 0.89399 0.55315 0.0
C347 C 0.95339 0.84396 0.55167 0.0
O348 O 0.96852 0.87751 0.5599 0.0
O349 O 0.95511 0.85012 0.55997 0.0
C350 C 0.11396 0.71825 0.2794 0.0
O351 O 0.10488 0.71348 0.28148 0.0
Cd352 Cd 0.10168 0.70028 0.29564 0.0
O353 O 0.12254 0.71616 0.28514 0.0
Cd354 Cd 0.12679 0.70375 0.30112 0.0
C355 C 0.1086 0.71661 0.31753 0.0
O356 O 0.11682 0.68797 0.29401 0.0
O357 O 0.12119 0.68663 0.31109 0.0
O358 O 0.14512 0.70128 0.29338 0.0
C359 C 0.11725 0.68204 0.30256 0.0
O360 O 0.10124 0.71071 0.31291 0.0
C361 C 0.15016 0.70192 0.30253 0.0
O362 O 0.11852 0.71648 0.31416 0.0
O363 O 0.14434 0.70386 0.31101 0.0
C364 C 0.27162 0.8626 0.02715 0.0
O365 O 0.27638 0.85347 0.02906 0.0
Cd366 Cd 0.28932 0.85024 0.04347 0.0
O367 O 0.27364 0.87105 0.03308 0.0
Cd368 Cd 0.28578 0.87537 0.04908 0.0
C369 C 0.27282 0.85706 0.06532 0.0
O370 O 0.30169 0.8654 0.04232 0.0
O371 O 0.3027 0.86986 0.0594 0.0
O372 O 0.28852 0.89327 0.04053 0.0
C373 C 0.30742 0.86581 0.051 0.0
O374 O 0.27871 0.84977 0.06059 0.0
C375 C 0.28771 0.89882 0.04936 0.0
O376 O 0.27295 0.86706 0.06211 0.0
O377 O 0.28558 0.89347 0.05812 0.0
C378 C 0.12577 0.02206 0.77735 0.0
O379 O 0.13499 0.02671 0.77907 0.0
Cd380 Cd 0.13885 0.03975 0.79324 0.0
O381 O 0.11746 0.02424 0.78342 0.0
Cd382 Cd 0.11378 0.03674 0.79942 0.0
C383 C 0.13219 0.02367 0.81548 0.0
O384 O 0.12392 0.05235 0.79212 0.0
O385 O 0.11967 0.05384 0.80923 0.0
O386 O 0.09566 0.03964 0.7914 0.0
C387 C 0.12365 0.05831 0.80066 0.0
O388 O 0.13948 0.02937 0.81053 0.0
C389 C 0.09042 0.03911 0.80045 0.0
O390 O 0.12215 0.02392 0.81246 0.0
O391 O 0.09603 0.03701 0.80904 0.0
C392 C 0.96407 0.86536 0.21536 0.0
O393 O 0.9583 0.85662 0.21515 0.0
Cd394 Cd 0.9467 0.85129 0.20039 0.0
O395 O 0.96334 0.87247 0.20762 0.0
Cd396 Cd 0.952 0.8752 0.19051 0.0
C397 C 0.9657 0.85394 0.17922 0.0
O398 O 0.93524 0.86688 0.19745 0.0
O399 O 0.93553 0.86903 0.17991 0.0
O400 O 0.95015 0.8941 0.19674 0.0
C401 C 0.93015 0.86618 0.18839 0.0
O402 O 0.95975 0.84787 0.18541 0.0
C403 C 0.95118 0.89851 0.1873 0.0
O404 O 0.96493 0.86441 0.17958 0.0
O405 O 0.95303 0.89207 0.17926 0.0
C406 C 0.12878 0.72356 0.96108 0.0
O407 O 0.13807 0.71937 0.95867 0.0
Cd408 Cd 0.14121 0.70498 0.94564 0.0
O409 O 0.12003 0.72025 0.95628 0.0
Cd410 Cd 0.11559 0.70636 0.94174 0.0
C411 C 0.13187 0.71854 0.92285 0.0
O412 O 0.12708 0.69197 0.94948 0.0
O413 O 0.12116 0.68847 0.93318 0.0
O414 O 0.09826 0.70362 0.95142 0.0
C415 C 0.12624 0.68512 0.94168 0.0
O416 O 0.13984 0.7135 0.92746 0.0
C417 C 0.09232 0.70351 0.94281 0.0
O418 O 0.12222 0.71826 0.92694 0.0
O419 O 0.09719 0.70507 0.93367 0.0
C420 C 0.27697 0.87667 0.71655 0.0
O421 O 0.28317 0.8851 0.71661 0.0
Cd422 Cd 0.29452 0.89049 0.70166 0.0
O423 O 0.27709 0.86995 0.70844 0.0
Cd424 Cd 0.28778 0.86722 0.69097 0.0
C425 C 0.27498 0.88947 0.6807 0.0
O426 O 0.305 0.87442 0.69788 0.0
O427 O 0.30444 0.87274 0.68029 0.0
O428 O 0.28862 0.84835 0.69726 0.0
C429 C 0.31003 0.87514 0.68879 0.0
O430 O 0.28128 0.89493 0.6871 0.0
C431 C 0.28746 0.84392 0.68786 0.0
O432 O 0.27523 0.87897 0.68056 0.0
O433 O 0.28596 0.85038 0.67974 0.0
C434 C 0.11391 0.02282 0.46413 0.0
O435 O 0.1048 0.02769 0.46237 0.0
Cd436 Cd 0.10121 0.04116 0.44853 0.0
O437 O 0.12234 0.02496 0.45821 0.0
Cd438 Cd 0.12629 0.03764 0.44237 0.0
C439 C 0.10752 0.02532 0.42606 0.0
O440 O 0.11642 0.05341 0.44976 0.0
O441 O 0.12069 0.05486 0.43266 0.0
O442 O 0.14463 0.04026 0.45007 0.0
C443 C 0.11676 0.05938 0.44122 0.0
O444 O 0.10035 0.03111 0.43107 0.0
C445 C 0.14968 0.03959 0.44093 0.0
O446 O 0.11755 0.02528 0.42913 0.0
O447 O 0.14388 0.03755 0.43246 0.0
C448 C 0.5279 0.97172 0.87618 0.0
O449 O 0.52878 0.96763 0.88578 0.0
Cd450 Cd 0.54129 0.95327 0.89096 0.0
O451 O 0.53412 0.96848 0.86835 0.0
Cd452 Cd 0.54974 0.95536 0.86622 0.0
C453 C 0.56461 0.96808 0.88599 0.0
O454 O 0.54104 0.94036 0.87617 0.0
O455 O 0.55825 0.93801 0.87278 0.0
O456 O 0.54356 0.95271 0.84734 0.0
C457 C 0.54933 0.93404 0.87648 0.0
O458 O 0.55899 0.9626 0.89296 0.0
C459 C 0.55313 0.9529 0.8431 0.0
O460 O 0.56232 0.96781 0.87575 0.0
O461 O 0.56115 0.95465 0.8496 0.0
C462 C 0.02623 0.27736 0.62723 0.0
O463 O 0.03252 0.27785 0.63558 0.0
Cd464 Cd 0.04597 0.29158 0.63913 0.0
O465 O 0.02711 0.2844 0.61944 0.0
Cd466 Cd 0.03935 0.30061 0.61519 0.0
C467 C 0.02866 0.31414 0.63682 0.0
O468 O 0.05622 0.29291 0.62259 0.0
O469 O 0.05675 0.31039 0.61999 0.0
O470 O 0.04002 0.29405 0.59629 0.0
C471 C 0.06184 0.30169 0.62276 0.0
O472 O 0.03487 0.30796 0.64262 0.0
C473 C 0.03898 0.30347 0.59185 0.0
O474 O 0.02809 0.31292 0.6264 0.0
O475 O 0.03756 0.31161 0.5983 0.0
C476 C 0.71388 0.77328 0.37709 0.0
O477 O 0.71228 0.77825 0.38617 0.0
Cd478 Cd 0.69821 0.79146 0.38985 0.0
O479 O 0.7077 0.77519 0.36879 0.0
Cd480 Cd 0.69161 0.78754 0.36493 0.0
C481 C 0.67588 0.77515 0.38408 0.0
O482 O 0.69883 0.80358 0.37448 0.0
O483 O 0.68163 0.8046 0.37052 0.0
O484 O 0.69915 0.7899 0.34652 0.0
C485 C 0.69016 0.80934 0.37425 0.0
O486 O 0.68095 0.7811 0.39109 0.0
C487 C 0.68999 0.7891 0.34152 0.0
O488 O 0.67875 0.77505 0.37399 0.0
O489 O 0.68156 0.78714 0.3474 0.0
C490 C 0.21697 0.46859 0.12208 0.0
O491 O 0.21125 0.46941 0.1308 0.0
Cd492 Cd 0.20009 0.45523 0.13831 0.0
O493 O 0.21643 0.45995 0.11608 0.0
Cd494 Cd 0.20525 0.44248 0.11564 0.0
C495 C 0.21898 0.4337 0.13803 0.0
O496 O 0.1885 0.45019 0.12343 0.0
O497 O 0.18889 0.43252 0.12282 0.0
O498 O 0.20338 0.44656 0.09618 0.0
C499 C 0.18352 0.44119 0.12509 0.0
O500 O 0.21318 0.44072 0.14327 0.0
C501 C 0.2041 0.43665 0.09288 0.0
O502 O 0.21816 0.43272 0.1276 0.0
O503 O 0.20586 0.42934 0.10018 0.0
C504 C 0.52791 0.77076 0.86079 0.0
O505 O 0.53 0.77533 0.8516 0.0
Cd506 Cd 0.54394 0.78887 0.8485 0.0
O507 O 0.53341 0.77328 0.86939 0.0
Cd508 Cd 0.54882 0.78611 0.87391 0.0
C509 C 0.56613 0.77338 0.85645 0.0
O510 O 0.54183 0.80155 0.8633 0.0
O511 O 0.55862 0.80336 0.86859 0.0
O512 O 0.53973 0.78885 0.89154 0.0
C513 C 0.55023 0.80766 0.86408 0.0
O514 O 0.56147 0.77895 0.84886 0.0
C515 C 0.54845 0.78831 0.89728 0.0
O516 O 0.56255 0.7736 0.8663 0.0
O517 O 0.55737 0.78635 0.89216 0.0
C518 C 0.21375 0.2755 0.61724 0.0
O519 O 0.20786 0.27526 0.60859 0.0
Cd520 Cd 0.19715 0.29024 0.60219 0.0
O521 O 0.21355 0.28384 0.62367 0.0
Cd522 Cd 0.20291 0.3016 0.62536 0.0
C523 C 0.21703 0.31087 0.60349 0.0
O524 O 0.18595 0.29451 0.61763 0.0
O525 O 0.18653 0.31215 0.61878 0.0
O526 O 0.20163 0.2963 0.64457 0.0
C527 C 0.181 0.30359 0.61643 0.0
O528 O 0.21099 0.30431 0.59793 0.0
C529 C 0.20244 0.30597 0.64847 0.0
O530 O 0.21612 0.31151 0.61393 0.0
O531 O 0.20389 0.31376 0.6416 0.0
C532 C 0.71106 0.97058 0.36249 0.0
O533 O 0.70922 0.9656 0.35347 0.0
Cd534 Cd 0.69652 0.95085 0.35066 0.0
O535 O 0.70586 0.96791 0.37124 0.0
Cd536 Cd 0.6911 0.95419 0.37577 0.0
C537 C 0.67346 0.96527 0.35744 0.0
O538 O 0.69932 0.93883 0.36594 0.0
O539 O 0.68246 0.9363 0.3706 0.0
O540 O 0.69864 0.95236 0.39434 0.0
C541 C 0.69123 0.93229 0.3666 0.0
O542 O 0.67837 0.9596 0.3501 0.0
C543 C 0.68935 0.95274 0.39916 0.0
O544 O 0.67703 0.96559 0.36729 0.0
O545 O 0.68096 0.95424 0.3931 0.0
C546 C 0.02458 0.46724 0.11951 0.0
O547 O 0.03058 0.46784 0.11096 0.0
Cd548 Cd 0.04243 0.45373 0.10445 0.0
O549 O 0.02513 0.45888 0.12589 0.0
Cd550 Cd 0.03673 0.44171 0.12731 0.0
C551 C 0.02404 0.43174 0.10487 0.0
O552 O 0.05366 0.4494 0.11979 0.0
O553 O 0.05329 0.43174 0.12073 0.0
O554 O 0.03828 0.44671 0.14658 0.0
C555 C 0.05872 0.44038 0.11847 0.0
O556 O 0.02998 0.43866 0.09966 0.0
C557 C 0.03778 0.43695 0.15033 0.0
O558 O 0.02433 0.43121 0.11536 0.0
O559 O 0.03619 0.42928 0.14337 0.0
C560 C 0.87378 0.53124 0.97498 0.0
O561 O 0.8838 0.53324 0.97273 0.0
Cd562 Cd 0.88983 0.54517 0.95812 0.0
O563 O 0.86601 0.53632 0.97006 0.0
Cd564 Cd 0.86505 0.55185 0.95673 0.0
C565 C 0.88228 0.56887 0.97044 0.0
O566 O 0.87701 0.54289 0.94334 0.0
O567 O 0.87265 0.55963 0.93942 0.0
O568 O 0.84665 0.54487 0.95293 0.0
C569 C 0.87731 0.55075 0.93647 0.0
O570 O 0.89012 0.56368 0.9658 0.0
C571 C 0.84212 0.5543 0.95233 0.0
O572 O 0.87238 0.56553 0.9696 0.0
O573 O 0.84825 0.56263 0.95397 0.0
C574 C 0.37647 0.71767 0.77391 0.0
O575 O 0.3849 0.71778 0.78011 0.0
Cd576 Cd 0.38999 0.70296 0.79179 0.0
O577 O 0.36959 0.70971 0.77437 0.0
Cd578 Cd 0.36646 0.69268 0.78576 0.0
C579 C 0.38801 0.68157 0.77266 0.0
O580 O 0.37422 0.69963 0.80279 0.0
O581 O 0.37216 0.68205 0.80235 0.0
O582 O 0.34799 0.69995 0.78721 0.0
C583 C 0.37481 0.69054 0.80786 0.0
O584 O 0.39361 0.6881 0.7787 0.0
C585 C 0.34306 0.69075 0.78655 0.0
O586 O 0.37752 0.68147 0.77312 0.0
O587 O 0.34902 0.68228 0.78494 0.0
C588 C 0.27586 0.12922 0.52504 0.0
O589 O 0.27607 0.13754 0.53139 0.0
Cd590 Cd 0.29004 0.14147 0.54448 0.0
O591 O 0.28328 0.12177 0.5257 0.0
Cd592 Cd 0.29973 0.11777 0.53758 0.0
C593 C 0.31248 0.13982 0.52682 0.0
O594 O 0.29202 0.12485 0.55451 0.0
O595 O 0.3095 0.12244 0.55504 0.0
O596 O 0.29283 0.09906 0.53791 0.0
C597 C 0.30078 0.12508 0.56014 0.0
O598 O 0.30607 0.14538 0.53301 0.0
C599 C 0.30214 0.0944 0.53701 0.0
O600 O 0.31172 0.12934 0.52631 0.0
O601 O 0.31046 0.10066 0.53581 0.0
C602 C 0.86539 0.02869 0.27165 0.0
O603 O 0.85615 0.03061 0.27617 0.0
Cd604 Cd 0.85242 0.04469 0.28929 0.0
O605 O 0.8738 0.03459 0.27395 0.0
Cd606 Cd 0.87742 0.05058 0.28658 0.0
C607 C 0.85936 0.0671 0.27365 0.0
O608 O 0.8672 0.04311 0.30201 0.0
O609 O 0.8712 0.06022 0.30378 0.0
O610 O 0.89564 0.04274 0.2895 0.0
C611 C 0.86723 0.05156 0.30809 0.0
O612 O 0.85199 0.06218 0.27928 0.0
C613 C 0.90077 0.05186 0.28912 0.0
O614 O 0.86933 0.06387 0.27385 0.0
O615 O 0.89506 0.06041 0.28713 0.0
C616 C 0.46732 0.61278 0.52468 0.0
O617 O 0.46737 0.60434 0.53087 0.0
Cd618 Cd 0.45345 0.60002 0.54391 0.0
O619 O 0.45982 0.6201 0.52565 0.0
Cd620 Cd 0.4436 0.62372 0.53793 0.0
C621 C 0.43091 0.60195 0.5264 0.0
O622 O 0.45136 0.61616 0.55474 0.0
O623 O 0.43386 0.61866 0.55519 0.0
O624 O 0.45066 0.64237 0.53911 0.0
C625 C 0.44255 0.61596 0.56031 0.0
O626 O 0.43746 0.59625 0.53232 0.0
C627 C 0.44138 0.64714 0.53839 0.0
O628 O 0.43147 0.61245 0.52633 0.0
O629 O 0.43303 0.64101 0.53681 0.0
C630 C 0.86686 0.21879 0.96693 0.0
O631 O 0.85822 0.21922 0.96105 0.0
Cd632 Cd 0.85152 0.2048 0.94973 0.0
O633 O 0.87328 0.21044 0.96648 0.0
Cd634 Cd 0.87481 0.193 0.95531 0.0
C635 C 0.85267 0.18349 0.96895 0.0
O636 O 0.86689 0.2004 0.93861 0.0
O637 O 0.86809 0.18276 0.9388 0.0
O638 O 0.89399 0.19811 0.95342 0.0
C639 C 0.86555 0.19142 0.93351 0.0
O640 O 0.84722 0.19024 0.96301 0.0
C641 C 0.89784 0.18841 0.95427 0.0
O642 O 0.86313 0.18288 0.9682 0.0
O643 O 0.89097 0.18072 0.95614 0.0
C644 C 0.27935 0.11289 0.72117 0.0
O645 O 0.28134 0.10366 0.71664 0.0
Cd646 Cd 0.29401 0.10012 0.70209 0.0
O647 O 0.28452 0.12156 0.71816 0.0
Cd648 Cd 0.29942 0.12544 0.7044 0.0
C649 C 0.31709 0.10752 0.71617 0.0
O650 O 0.29104 0.11493 0.68961 0.0
O651 O 0.30776 0.11964 0.68649 0.0
O652 O 0.2915 0.14378 0.70208 0.0
C653 C 0.29896 0.11533 0.68288 0.0
O654 O 0.31217 0.10002 0.71073 0.0
C655 C 0.30068 0.14882 0.70196 0.0
O656 O 0.31353 0.11739 0.71622 0.0
O657 O 0.30926 0.14301 0.70339 0.0
C658 C 0.96638 0.62389 0.21688 0.0
O659 O 0.9668 0.63243 0.21083 0.0
Cd660 Cd 0.95291 0.6386 0.19867 0.0
O661 O 0.95816 0.61731 0.2164 0.0
Cd662 Cd 0.94099 0.61551 0.20479 0.0
C663 C 0.93062 0.6383 0.21673 0.0
O664 O 0.94937 0.62259 0.18817 0.0
O665 O 0.93179 0.62154 0.1874 0.0
O666 O 0.94593 0.59614 0.20409 0.0
C667 C 0.94074 0.62372 0.18248 0.0
O668 O 0.93759 0.64347 0.2108 0.0
C669 C 0.93614 0.59246 0.20425 0.0
O670 O 0.9302 0.6278 0.21664 0.0
O671 O 0.92847 0.59951 0.20529 0.0
C672 C 0.01745 0.61194 0.96361 0.0
O673 O 0.0219 0.60266 0.96164 0.0
Cd674 Cd 0.03688 0.59944 0.94926 0.0
O675 O 0.0208 0.62063 0.95872 0.0
Cd676 Cd 0.03502 0.62504 0.94461 0.0
C677 C 0.02394 0.60787 0.92577 0.0
O678 O 0.04952 0.614 0.95283 0.0
O679 O 0.05308 0.61981 0.93649 0.0
O680 O 0.03771 0.64279 0.95357 0.0
C681 C 0.05644 0.61493 0.9451 0.0
O682 O 0.02895 0.60011 0.93076 0.0
C683 C 0.03739 0.6484 0.94473 0.0
O684 O 0.0239 0.61763 0.92962 0.0
O685 O 0.03556 0.64315 0.93586 0.0
C686 C 0.87035 0.77504 0.21607 0.0
O687 O 0.87892 0.78099 0.21678 0.0
Cd688 Cd 0.88592 0.79187 0.20217 0.0
O689 O 0.86429 0.77536 0.20746 0.0
Cd690 Cd 0.86327 0.78649 0.18995 0.0
C691 C 0.8852 0.77239 0.18107 0.0
O692 O 0.87097 0.80345 0.19727 0.0
O693 O 0.87055 0.80265 0.17961 0.0
O694 O 0.84414 0.78849 0.19505 0.0
C695 C 0.8726 0.80828 0.18818 0.0
O696 O 0.89047 0.77831 0.18798 0.0
C697 C 0.84025 0.7878 0.18537 0.0
O698 O 0.87479 0.77329 0.18006 0.0
O699 O 0.84709 0.78599 0.17764 0.0
C700 C 0.71597 0.62348 0.46582 0.0
O701 O 0.71025 0.63222 0.46655 0.0
Cd702 Cd 0.69983 0.63967 0.45185 0.0
O703 O 0.71566 0.61756 0.45712 0.0
Cd704 Cd 0.70486 0.61705 0.4394 0.0
C705 C 0.71956 0.63885 0.43106 0.0
O706 O 0.68806 0.62488 0.4468 0.0
O707 O 0.68874 0.62459 0.42914 0.0
O708 O 0.70297 0.59777 0.44415 0.0
C709 C 0.6832 0.62663 0.43775 0.0
O710 O 0.71372 0.64422 0.43794 0.0
C711 C 0.70353 0.5941 0.43438 0.0
O712 O 0.71837 0.62848 0.4299 0.0
O713 O 0.70516 0.60112 0.42677 0.0
C714 C 0.86842 0.46863 0.71514 0.0
O715 O 0.86034 0.46241 0.71749 0.0
Cd716 Cd 0.85234 0.45114 0.70361 0.0
O717 O 0.87363 0.46755 0.70607 0.0
Cd718 Cd 0.87467 0.45434 0.69021 0.0
C719 C 0.85366 0.46933 0.68119 0.0
O720 O 0.86626 0.43831 0.69879 0.0
O721 O 0.86654 0.43802 0.68106 0.0
O722 O 0.89368 0.45184 0.69553 0.0
C723 C 0.86425 0.43307 0.68999 0.0
O724 O 0.84832 0.46447 0.68884 0.0
C725 C 0.89761 0.45224 0.68584 0.0
O726 O 0.86381 0.46729 0.67958 0.0
O727 O 0.89084 0.45396 0.67803 0.0
C728 C 0.02435 0.6252 0.27486 0.0
O729 O 0.03042 0.63371 0.27417 0.0
Cd730 Cd 0.04204 0.64005 0.28857 0.0
O731 O 0.02484 0.61893 0.2833 0.0
Cd732 Cd 0.03621 0.61735 0.30048 0.0
C733 C 0.02322 0.6397 0.31014 0.0
O734 O 0.05326 0.62463 0.29298 0.0
O735 O 0.05284 0.62363 0.31064 0.0
O736 O 0.03727 0.59827 0.29492 0.0
C737 C 0.05833 0.62579 0.30202 0.0
O738 O 0.02921 0.64497 0.3033 0.0
C739 C 0.03652 0.5942 0.30453 0.0
O740 O 0.02367 0.62922 0.31075 0.0
O741 O 0.03515 0.60095 0.31243 0.0
C742 C 0.86413 0.7706 0.52807 0.0
O743 O 0.8549 0.77526 0.52971 0.0
Cd744 Cd 0.85092 0.78877 0.54339 0.0
O745 O 0.87245 0.773 0.53404 0.0
Cd746 Cd 0.87587 0.78591 0.54982 0.0
C747 C 0.85738 0.77322 0.566 0.0
O748 O 0.86579 0.80142 0.54218 0.0
O749 O 0.86959 0.80299 0.55938 0.0
O750 O 0.89425 0.78886 0.54239 0.0
C751 C 0.86581 0.80741 0.5507 0.0
O752 O 0.85014 0.7789 0.56096 0.0
C753 C 0.89916 0.78846 0.55162 0.0
O754 O 0.86741 0.77331 0.56295 0.0
O755 O 0.89327 0.7864 0.56003 0.0
C756 C 0.71645 0.61396 0.77581 0.0
O757 O 0.70994 0.60577 0.77569 0.0
Cd758 Cd 0.69635 0.60191 0.78928 0.0
O759 O 0.71563 0.62138 0.78323 0.0
Cd760 Cd 0.70342 0.62568 0.79929 0.0
C761 C 0.71372 0.60335 0.81202 0.0
O762 O 0.68642 0.61851 0.79171 0.0
O763 O 0.68608 0.62131 0.80916 0.0
O764 O 0.70317 0.6444 0.79236 0.0
C765 C 0.68092 0.61836 0.80057 0.0
O766 O 0.70756 0.59789 0.80548 0.0
C767 C 0.70423 0.64904 0.80168 0.0
O768 O 0.71436 0.61383 0.81136 0.0
O769 O 0.70548 0.64275 0.80998 0.0
C770 C 0.87158 0.4692 0.02767 0.0
O771 O 0.87951 0.46283 0.02523 0.0
Cd772 Cd 0.88743 0.45086 0.03868 0.0
O773 O 0.86643 0.46817 0.03678 0.0
Cd774 Cd 0.86538 0.45499 0.05263 0.0
C775 C 0.88758 0.46852 0.06151 0.0
O776 O 0.87319 0.4386 0.04403 0.0
O777 O 0.87297 0.43858 0.06178 0.0
O778 O 0.84622 0.45316 0.04757 0.0
C779 C 0.8751 0.43346 0.05292 0.0
O780 O 0.89253 0.46336 0.0538 0.0
C781 C 0.84244 0.45332 0.05732 0.0
O782 O 0.87726 0.46731 0.06303 0.0
O783 O 0.84936 0.4547 0.06508 0.0
C784 C 0.46309 0.52303 0.61456 0.0
O785 O 0.46297 0.52934 0.6062 0.0
Cd786 Cd 0.45005 0.54351 0.60245 0.0
O787 O 0.45604 0.52423 0.62229 0.0
Cd788 Cd 0.44034 0.53721 0.62627 0.0
C789 C 0.42661 0.52733 0.60426 0.0
O790 O 0.44883 0.55378 0.61897 0.0
O791 O 0.4314 0.55503 0.6215 0.0
O792 O 0.44695 0.53791 0.64514 0.0
C793 C 0.44031 0.55977 0.61881 0.0
O794 O 0.43321 0.53328 0.59866 0.0
C795 C 0.43751 0.53756 0.64963 0.0
O796 O 0.42759 0.52657 0.6147 0.0
O797 O 0.4293 0.5363 0.64324 0.0
C798 C 0.96803 0.21617 0.86928 0.0
O799 O 0.96256 0.21649 0.86037 0.0
Cd800 Cd 0.95161 0.20199 0.85346 0.0
O801 O 0.96718 0.20797 0.87587 0.0
Cd802 Cd 0.95546 0.19076 0.87733 0.0
C803 C 0.97051 0.18053 0.85665 0.0
O804 O 0.93953 0.19856 0.86834 0.0
O805 O 0.93892 0.18097 0.86981 0.0
O806 O 0.95307 0.19655 0.89629 0.0
C807 C 0.93412 0.18978 0.86688 0.0
O808 O 0.9652 0.18738 0.8507 0.0
C809 C 0.95315 0.18693 0.90043 0.0
O810 O 0.96883 0.1799 0.86699 0.0
O811 O 0.95474 0.17894 0.89383 0.0
C812 C 0.2736 0.71734 0.11583 0.0
O813 O 0.27361 0.7118 0.10694 0.0
Cd814 Cd 0.28807 0.7001 0.10101 0.0
O815 O 0.28141 0.71631 0.12281 0.0
Cd816 Cd 0.29837 0.70458 0.12481 0.0
C817 C 0.30957 0.71864 0.10372 0.0
O818 O 0.29108 0.68806 0.11616 0.0
O819 O 0.30865 0.68816 0.11813 0.0
O820 O 0.29288 0.7023 0.14392 0.0
C821 C 0.30009 0.68291 0.11525 0.0
O822 O 0.30322 0.71296 0.09758 0.0
C823 C 0.30251 0.70311 0.14791 0.0
O824 O 0.30931 0.7176 0.11417 0.0
O825 O 0.31028 0.70507 0.14118 0.0
C826 C 0.76834 0.03034 0.36002 0.0
O827 O 0.77254 0.0328 0.35075 0.0
Cd828 Cd 0.78681 0.04611 0.34801 0.0
O829 O 0.77165 0.0351 0.36879 0.0
Cd830 Cd 0.78541 0.04964 0.37342 0.0
C831 C 0.77283 0.06852 0.35754 0.0
O832 O 0.80015 0.04246 0.36198 0.0
O833 O 0.80287 0.05894 0.36791 0.0
O834 O 0.78854 0.03981 0.39064 0.0
C835 C 0.80668 0.05053 0.36301 0.0
O836 O 0.77796 0.06415 0.34949 0.0
C837 C 0.78827 0.04835 0.3967 0.0
O838 O 0.77321 0.06427 0.36711 0.0
O839 O 0.78634 0.05748 0.39194 0.0
C840 C 0.46201 0.72159 0.62845 0.0
O841 O 0.46008 0.717 0.63767 0.0
Cd842 Cd 0.44676 0.70299 0.64118 0.0
O843 O 0.45654 0.71886 0.61988 0.0
Cd844 Cd 0.44125 0.70554 0.61595 0.0
C845 C 0.42415 0.718 0.63388 0.0
O846 O 0.44889 0.69026 0.62644 0.0
O847 O 0.43195 0.68818 0.62179 0.0
O848 O 0.44951 0.70279 0.59786 0.0
C849 C 0.44056 0.68401 0.62599 0.0
O850 O 0.429 0.71243 0.64134 0.0
C851 C 0.44047 0.70288 0.59259 0.0
O852 O 0.42757 0.71789 0.62397 0.0
O853 O 0.43179 0.70468 0.59815 0.0
C854 C 0.76741 0.21174 0.87704 0.0
O855 O 0.77009 0.2093 0.88686 0.0
Cd856 Cd 0.78479 0.19675 0.89131 0.0
O857 O 0.77188 0.20691 0.86888 0.0
Cd858 Cd 0.785 0.19153 0.86637 0.0
C859 C 0.77214 0.17343 0.88294 0.0
O860 O 0.79921 0.19945 0.87812 0.0
O861 O 0.80228 0.1828 0.8728 0.0
O862 O 0.78855 0.20021 0.84871 0.0
C863 C 0.8058 0.19138 0.87763 0.0
O864 O 0.77707 0.17826 0.89083 0.0
C865 C 0.78854 0.19131 0.8432 0.0
O866 O 0.77247 0.17731 0.8732 0.0
O867 O 0.78665 0.18246 0.84847 0.0
C868 C 0.27535 0.52544 0.12288 0.0
O869 O 0.27473 0.53127 0.13155 0.0
Cd870 Cd 0.28981 0.54125 0.13892 0.0
O871 O 0.28405 0.5255 0.11698 0.0
Cd872 Cd 0.30197 0.53588 0.11624 0.0
C873 C 0.31009 0.52095 0.13791 0.0
O874 O 0.29538 0.55297 0.12429 0.0
O875 O 0.313 0.55147 0.12369 0.0
O876 O 0.29673 0.53821 0.09721 0.0
C877 C 0.30468 0.55737 0.12595 0.0
O878 O 0.30338 0.52697 0.1433 0.0
C879 C 0.30631 0.53718 0.09319 0.0
O880 O 0.31124 0.5221 0.12754 0.0
O881 O 0.31408 0.53512 0.09991 0.0
C882 C 0.96693 0.02456 0.3794 0.0
O883 O 0.96076 0.02461 0.38785 0.0
Cd884 Cd 0.94795 0.03871 0.39219 0.0
O885 O 0.96604 0.03207 0.37206 0.0
Cd886 Cd 0.95399 0.04847 0.36829 0.0
C887 C 0.96594 0.06088 0.38996 0.0
O888 O 0.93731 0.04076 0.37592 0.0
O889 O 0.93667 0.05825 0.37335 0.0
O890 O 0.95328 0.0415 0.34959 0.0
C891 C 0.93167 0.04952 0.37619 0.0
O892 O 0.95999 0.05446 0.39577 0.0
C893 C 0.954 0.05084 0.3449 0.0
O894 O 0.96579 0.06033 0.37947 0.0
O895 O 0.95524 0.05918 0.35113 0.0
C896 C 0.11463 0.96683 0.52512 0.0
O897 O 0.10625 0.967 0.53138 0.0
Cd898 Cd 0.10162 0.95353 0.54481 0.0
O899 O 0.12186 0.95923 0.52606 0.0
Cd900 Cd 0.12491 0.94288 0.53847 0.0
C901 C 0.10244 0.93074 0.52766 0.0
O902 O 0.11786 0.95104 0.55537 0.0
O903 O 0.11976 0.93346 0.55587 0.0
O904 O 0.14417 0.94828 0.53911 0.0
C905 C 0.11736 0.94226 0.56098 0.0
O906 O 0.09701 0.93741 0.53369 0.0
C907 C 0.148 0.93856 0.5384 0.0
O908 O 0.11293 0.93118 0.52727 0.0
O909 O 0.14107 0.93082 0.53709 0.0
C910 C 0.61279 0.773 0.71778 0.0
O911 O 0.60442 0.77272 0.71151 0.0
Cd912 Cd 0.5996 0.78651 0.69847 0.0
O913 O 0.6198 0.78082 0.717 0.0
Cd914 Cd 0.62263 0.79737 0.7049 0.0
C915 C 0.60006 0.80908 0.71592 0.0
O916 O 0.61581 0.7893 0.68787 0.0
O917 O 0.6176 0.8069 0.68752 0.0
O918 O 0.64187 0.79198 0.70435 0.0
C919 C 0.61537 0.79811 0.68232 0.0
O920 O 0.59469 0.80234 0.7099 0.0
C921 C 0.64572 0.80167 0.70528 0.0
O922 O 0.61055 0.80887 0.71618 0.0
O923 O 0.63879 0.80941 0.70662 0.0
C924 C 0.7169 0.37017 0.96753 0.0
O925 O 0.71753 0.36153 0.96166 0.0
Cd926 Cd 0.7034 0.35465 0.95004 0.0
O927 O 0.70846 0.37644 0.96699 0.0
Cd928 Cd 0.69116 0.37755 0.9556 0.0
C929 C 0.68155 0.355 0.96857 0.0
O930 O 0.6989 0.36994 0.93878 0.0
O931 O 0.68126 0.37098 0.93893 0.0
O932 O 0.69588 0.39688 0.95389 0.0
C933 C 0.68994 0.36862 0.93363 0.0
O934 O 0.68852 0.34976 0.96271 0.0
C935 C 0.68612 0.40053 0.95466 0.0
O936 O 0.68088 0.36548 0.96807 0.0
O937 O 0.67857 0.39348 0.95642 0.0
C938 C 0.12249 0.46656 0.2192 0.0
O939 O 0.13044 0.46902 0.21287 0.0
Cd940 Cd 0.1385 0.45559 0.20097 0.0
O941 O 0.1174 0.45741 0.21821 0.0
Cd942 Cd 0.11654 0.44148 0.2051 0.0
C943 C 0.13883 0.43275 0.21862 0.0
O944 O 0.12433 0.45009 0.18871 0.0
O945 O 0.12419 0.43233 0.18874 0.0
O946 O 0.09736 0.44636 0.20303 0.0
C947 C 0.1263 0.44119 0.1836 0.0
O948 O 0.14373 0.4405 0.21346 0.0
C949 C 0.09362 0.43659 0.20342 0.0
O950 O 0.12852 0.43116 0.21744 0.0
O951 O 0.10057 0.4289 0.20503 0.0
C952 C 0.52902 0.87793 0.97317 0.0
O953 O 0.53085 0.88754 0.96942 0.0
Cd954 Cd 0.54365 0.89157 0.95491 0.0
O955 O 0.5343 0.86963 0.96948 0.0
Cd956 Cd 0.54915 0.86605 0.95593 0.0
C957 C 0.56678 0.88342 0.96861 0.0
O958 O 0.54125 0.87738 0.9415 0.0
O959 O 0.55782 0.87192 0.93841 0.0
O960 O 0.54019 0.84843 0.95274 0.0
C961 C 0.54927 0.87677 0.93487 0.0
O962 O 0.56175 0.89118 0.96364 0.0
C963 C 0.54898 0.84275 0.95291 0.0
O964 O 0.56332 0.87352 0.96811 0.0
O965 O 0.55789 0.84789 0.95487 0.0
C966 C 0.12347 0.27472 0.52511 0.0
O967 O 0.13186 0.27418 0.53135 0.0
Cd968 Cd 0.13784 0.28869 0.54305 0.0
O969 O 0.11709 0.28308 0.52544 0.0
Cd970 Cd 0.11496 0.30034 0.53668 0.0
C971 C 0.1374 0.31029 0.52409 0.0
O972 O 0.12223 0.29312 0.55387 0.0
O973 O 0.12102 0.31077 0.55323 0.0
O974 O 0.09602 0.29434 0.53773 0.0
C975 C 0.12332 0.30223 0.55882 0.0
O976 O 0.14256 0.3035 0.53023 0.0
C977 C 0.09173 0.30384 0.53689 0.0
O978 O 0.12691 0.3108 0.52426 0.0
O979 O 0.09829 0.3119 0.53545 0.0
C980 C 0.71283 0.37759 0.77379 0.0
O981 O 0.71286 0.38601 0.78002 0.0
Cd982 Cd 0.69991 0.39028 0.79404 0.0
O983 O 0.70562 0.37001 0.77506 0.0
Cd984 Cd 0.68983 0.36657 0.78807 0.0
C985 C 0.6767 0.38867 0.77758 0.0
O986 O 0.69804 0.37409 0.80475 0.0
O987 O 0.68053 0.37184 0.80547 0.0
O988 O 0.69586 0.34755 0.78956 0.0
C989 C 0.68932 0.3745 0.81044 0.0
O990 O 0.68332 0.39427 0.78351 0.0
C991 C 0.68632 0.34331 0.78878 0.0
O992 O 0.67747 0.37819 0.77707 0.0
O993 O 0.67838 0.34988 0.78694 0.0
C994 C 0.02424 0.86391 0.2716 0.0
O995 O 0.0258 0.85467 0.27629 0.0
Cd996 Cd 0.04027 0.85059 0.28889 0.0
O997 O 0.03064 0.87204 0.2735 0.0
Cd998 Cd 0.04703 0.87545 0.2855 0.0
C999 C 0.06227 0.85654 0.27224 0.0
O1000 O 0.03997 0.86563 0.3014 0.0
O1001 O 0.05719 0.86941 0.30239 0.0
O1002 O 0.03928 0.89371 0.28827 0.0
C1003 C 0.04868 0.8656 0.3071 0.0
O1004 O 0.05724 0.84945 0.27812 0.0
C1005 C 0.04838 0.89883 0.28769 0.0
O1006 O 0.05955 0.86668 0.27243 0.0
O1007 O 0.0569 0.8931 0.28563 0.0
C1008 C 0.96678 0.37515 0.02552 0.0
O1009 O 0.96104 0.38391 0.02526 0.0
Cd1010 Cd 0.94979 0.39028 0.03986 0.0
O1011 O 0.9662 0.36857 0.03373 0.0
Cd1012 Cd 0.95504 0.36679 0.0511 0.0
C1013 C 0.96879 0.38851 0.0613 0.0
O1014 O 0.93838 0.37489 0.04368 0.0
O1015 O 0.93841 0.37318 0.06128 0.0
O1016 O 0.95325 0.34782 0.04524 0.0
C1017 C 0.93318 0.3759 0.05265 0.0
O1018 O 0.963 0.39414 0.05457 0.0
C1019 C 0.954 0.34357 0.05477 0.0
O1020 O 0.96793 0.37805 0.06173 0.0
O1021 O 0.95573 0.35015 0.06275 0.0
C1022 C 0.11831 0.21849 0.7747 0.0
O1023 O 0.10944 0.21293 0.77442 0.0
Cd1024 Cd 0.10289 0.20194 0.7891 0.0
O1025 O 0.12485 0.21777 0.78292 0.0
Cd1026 Cd 0.12641 0.20642 0.80027 0.0
C1027 C 0.10531 0.22095 0.81053 0.0
O1028 O 0.11794 0.19003 0.79265 0.0
O1029 O 0.11947 0.18982 0.81026 0.0
O1030 O 0.14524 0.20428 0.7941 0.0
C1031 C 0.11681 0.18472 0.80154 0.0
O1032 O 0.09957 0.21539 0.80371 0.0
C1033 C 0.14961 0.20441 0.8036 0.0
O1034 O 0.11571 0.21967 0.81112 0.0
O1035 O 0.1432 0.20603 0.81172 0.0
C1036 C 0.2765 0.36439 0.52533 0.0
O1037 O 0.28273 0.35597 0.52537 0.0
Cd1038 Cd 0.29436 0.35081 0.54018 0.0
O1039 O 0.27668 0.37125 0.53332 0.0
Cd1040 Cd 0.28757 0.37401 0.55074 0.0
C1041 C 0.27507 0.35166 0.56128 0.0
O1042 O 0.30484 0.36696 0.54368 0.0
O1043 O 0.30428 0.36854 0.56128 0.0
O1044 O 0.28835 0.39313 0.54499 0.0
C1045 C 0.3099 0.36633 0.55276 0.0
O1046 O 0.28138 0.34622 0.55489 0.0
C1047 C 0.28751 0.39722 0.55458 0.0
O1048 O 0.27521 0.36217 0.56131 0.0
O1049 O 0.28608 0.39048 0.56248 0.0
C1050 C 0.12343 0.51874 0.28175 0.0
O1051 O 0.13332 0.52165 0.28357 0.0
Cd1052 Cd 0.1387 0.5365 0.29551 0.0
O1053 O 0.11545 0.52309 0.287 0.0
Cd1054 Cd 0.11393 0.53633 0.30258 0.0
C1055 C 0.13222 0.52362 0.31928 0.0
O1056 O 0.12503 0.55057 0.29376 0.0
O1057 O 0.12083 0.55378 0.31067 0.0
O1058 O 0.09535 0.53966 0.29584 0.0
C1059 C 0.12516 0.55722 0.3018 0.0
O1060 O 0.13967 0.5287 0.31393 0.0
C1061 C 0.09084 0.53968 0.30529 0.0
O1062 O 0.12221 0.52388 0.31614 0.0
O1063 O 0.09706 0.53789 0.31351 0.0
C1064 C 0.96869 0.36785 0.71289 0.0
O1065 O 0.96299 0.35909 0.71362 0.0
Cd1066 Cd 0.95182 0.3522 0.69924 0.0
O1067 O 0.96779 0.37423 0.70456 0.0
Cd1068 Cd 0.95546 0.37563 0.6879 0.0
C1069 C 0.97023 0.35502 0.67739 0.0
O1070 O 0.93941 0.36693 0.69601 0.0
O1071 O 0.93881 0.36823 0.67839 0.0
O1072 O 0.95325 0.39452 0.69389 0.0
C1073 C 0.93395 0.36558 0.68725 0.0
O1074 O 0.96509 0.34911 0.6844 0.0
C1075 C 0.9533 0.39876 0.68432 0.0
O1076 O 0.96852 0.36535 0.67674 0.0
O1077 O 0.95477 0.39224 0.67626 0.0
C1078 C 0.12367 0.21674 0.46707 0.0
O1079 O 0.13229 0.21083 0.46747 0.0
Cd1080 Cd 0.13892 0.19988 0.45277 0.0
O1081 O 0.11733 0.21645 0.45866 0.0
Cd1082 Cd 0.11603 0.20543 0.44108 0.0
C1083 C 0.13798 0.21933 0.43173 0.0
O1084 O 0.12372 0.18844 0.4483 0.0
O1085 O 0.12302 0.18919 0.43065 0.0
O1086 O 0.09679 0.20336 0.44596 0.0
C1087 C 0.12513 0.18357 0.4392 0.0
O1088 O 0.14341 0.21335 0.43845 0.0
C1089 C 0.09305 0.20422 0.43623 0.0
O1090 O 0.12754 0.21853 0.43104 0.0
O1091 O 0.1 0.20621 0.42865 0.0
C1092 C 0.27426 0.37269 0.21613 0.0
O1093 O 0.28021 0.38127 0.21694 0.0
Cd1094 Cd 0.29175 0.38825 0.2028 0.0
O1095 O 0.27472 0.3666 0.20755 0.0
Cd1096 Cd 0.28607 0.36573 0.19023 0.0
C1097 C 0.27307 0.3884 0.1811 0.0
O1098 O 0.30301 0.37299 0.19808 0.0
O1099 O 0.30275 0.37238 0.18041 0.0
O1100 O 0.28731 0.34635 0.19482 0.0
C1101 C 0.30814 0.3744 0.18913 0.0
O1102 O 0.27898 0.3935 0.18813 0.0
C1103 C 0.2868 0.3428 0.185 0.0
O1104 O 0.27358 0.37794 0.18021 0.0
O1105 O 0.28542 0.34994 0.17745 0.0
C1106 C 0.11677 0.51947 0.96669 0.0
O1107 O 0.10725 0.52375 0.96728 0.0
Cd1108 Cd 0.10078 0.538 0.95528 0.0
O1109 O 0.12371 0.52256 0.95946 0.0
Cd1110 Cd 0.12458 0.53599 0.94403 0.0
C1111 C 0.1034 0.52344 0.9311 0.0
O1112 O 0.11533 0.5511 0.95344 0.0
O1113 O 0.11795 0.5535 0.93607 0.0
O1114 O 0.14344 0.53836 0.94995 0.0
C1115 C 0.11452 0.55739 0.94514 0.0
O1116 O 0.09728 0.52818 0.9382 0.0
C1117 C 0.14763 0.53823 0.94037 0.0
O1118 O 0.11385 0.52428 0.93159 0.0
O1119 O 0.14109 0.53669 0.93234 0.0
C1120 C 0.52655 0.46911 0.37773 0.0
O1121 O 0.52676 0.46291 0.38617 0.0
Cd1122 Cd 0.53955 0.44851 0.38973 0.0
O1123 O 0.53338 0.46767 0.36986 0.0
Cd1124 Cd 0.54875 0.45447 0.36556 0.0
C1125 C 0.56317 0.46427 0.38717 0.0
O1126 O 0.54036 0.43804 0.3733 0.0
O1127 O 0.55766 0.43661 0.37008 0.0
O1128 O 0.54174 0.45367 0.34683 0.0
C1129 C 0.54884 0.43199 0.37323 0.0
O1130 O 0.55665 0.45847 0.39302 0.0
C1131 C 0.55108 0.45428 0.34215 0.0
O1132 O 0.56189 0.46495 0.37676 0.0
O1133 O 0.55939 0.45563 0.34838 0.0
C1134 C 0.01887 0.78333 0.11537 0.0
O1135 O 0.02729 0.78239 0.10936 0.0
Cd1136 Cd 0.0347 0.80046 0.11583 0.0
O1137 O 0.01785 0.79232 0.1205 0.0
Cd1138 Cd 0.03456 0.8048 0.11484 0.0
C1139 C 0.02096 0.81717 0.13008 0.0
O1140 O 0.05131 0.79544 0.12342 0.0
O1141 O 0.04964 0.81275 0.12673 0.0
O1142 O 0.03706 0.79752 0.09579 0.0
C1143 C 0.05523 0.80397 0.12794 0.0
O1144 O 0.02481 0.80783 0.13272 0.0
C1145 C 0.03892 0.80686 0.09147 0.0
O1146 O 0.02327 0.82068 0.12054 0.0
O1147 O 0.03846 0.81517 0.09782 0.0
C1148 C 0.71477 0.27415 0.87469 0.0
O1149 O 0.71711 0.28078 0.88244 0.0
Cd1150 Cd 0.70366 0.29315 0.88965 0.0
O1151 O 0.70579 0.27506 0.8693 0.0
Cd1152 Cd 0.69012 0.28835 0.86749 0.0
C1153 C 0.68072 0.27565 0.89 0.0
O1154 O 0.6987 0.30493 0.87489 0.0
O1155 O 0.68096 0.30502 0.87453 0.0
O1156 O 0.69545 0.29004 0.84836 0.0
C1157 C 0.68982 0.31018 0.87656 0.0
O1158 O 0.68836 0.28097 0.89491 0.0
C1159 C 0.68578 0.28955 0.84442 0.0
O1160 O 0.67941 0.27647 0.87961 0.0
O1161 O 0.67797 0.28798 0.85124 0.0
C1162 C 0.21742 0.96476 0.62251 0.0
O1163 O 0.211 0.967 0.63045 0.0
Cd1164 Cd 0.19949 0.95308 0.63815 0.0
O1165 O 0.21659 0.95568 0.61727 0.0
Cd1166 Cd 0.2037 0.93962 0.61589 0.0
C1167 C 0.21775 0.93071 0.6377 0.0
O1168 O 0.18727 0.94787 0.62383 0.0
O1169 O 0.18741 0.93011 0.62342 0.0
O1170 O 0.20174 0.94533 0.59696 0.0
C1171 C 0.1822 0.9389 0.62561 0.0
O1172 O 0.21253 0.93827 0.64282 0.0
C1173 C 0.20209 0.93573 0.59279 0.0
O1174 O 0.21635 0.92921 0.6274 0.0
O1175 O 0.20361 0.92773 0.5994 0.0
C1176 C 0.53283 0.2689 0.37547 0.0
O1177 O 0.53115 0.2777 0.38076 0.0
Cd1178 Cd 0.54914 0.28547 0.37487 0.0
O1179 O 0.54215 0.26792 0.37096 0.0
Cd1180 Cd 0.5539 0.28531 0.37613 0.0
C1181 C 0.56615 0.27244 0.36018 0.0
O1182 O 0.54441 0.30221 0.36754 0.0
O1183 O 0.56181 0.3007 0.36476 0.0
O1184 O 0.54671 0.28757 0.39517 0.0
C1185 C 0.55306 0.30627 0.36338 0.0
O1186 O 0.55663 0.27603 0.35787 0.0
C1187 C 0.55607 0.28933 0.39949 0.0
O1188 O 0.56982 0.2746 0.3697 0.0
O1189 O 0.56435 0.2889 0.39311 0.0
C1190 C 0.21814 0.77822 0.11559 0.0
O1191 O 0.21324 0.77975 0.10646 0.0
Cd1192 Cd 0.20066 0.7943 0.1026 0.0
O1193 O 0.21647 0.7847 0.12371 0.0
Cd1194 Cd 0.2046 0.80119 0.12731 0.0
C1195 C 0.21757 0.81629 0.10808 0.0
O1196 O 0.18853 0.79395 0.11794 0.0
O1197 O 0.18759 0.81124 0.12154 0.0
O1198 O 0.20246 0.79345 0.1456 0.0
C1199 C 0.1828 0.80264 0.11803 0.0
O1200 O 0.21157 0.81122 0.10111 0.0
C1201 C 0.20301 0.80257 0.1507 0.0
O1202 O 0.21749 0.81365 0.11823 0.0
O1203 O 0.20475 0.81114 0.14492 0.0
C1204 C 0.71547 0.46613 0.86883 0.0
O1205 O 0.71608 0.46019 0.86023 0.0
Cd1206 Cd 0.70196 0.44841 0.85367 0.0
O1207 O 0.70708 0.46559 0.87517 0.0
Cd1208 Cd 0.68982 0.45419 0.87659 0.0
C1209 C 0.68013 0.46698 0.85395 0.0
O1210 O 0.69792 0.43744 0.86931 0.0
O1211 O 0.6803 0.43706 0.87044 0.0
O1212 O 0.69485 0.45345 0.89589 0.0
C1213 C 0.68913 0.43197 0.86818 0.0
O1214 O 0.68708 0.46108 0.84873 0.0
C1215 C 0.6851 0.45382 0.89963 0.0
O1216 O 0.67948 0.46651 0.86443 0.0
O1217 O 0.67738 0.45486 0.89263 0.0
C1218 C 0.02359 0.96274 0.61486 0.0
O1219 O 0.03006 0.96307 0.60664 0.0
Cd1220 Cd 0.04425 0.9503 0.60254 0.0
O1221 O 0.02475 0.95542 0.62234 0.0
Cd1222 Cd 0.0378 0.93974 0.62616 0.0
C1223 C 0.02747 0.92716 0.60364 0.0
O1224 O 0.05432 0.94844 0.61911 0.0
O1225 O 0.05563 0.93094 0.62128 0.0
O1226 O 0.03799 0.94593 0.64519 0.0
C1227 C 0.06033 0.93993 0.61876 0.0
O1228 O 0.03345 0.93391 0.59825 0.0
C1229 C 0.03779 0.93637 0.64944 0.0
O1230 O 0.02699 0.92759 0.61413 0.0
O1231 O 0.03691 0.92827 0.64285 0.0
C1232 C 0.87884 0.03089 0.47316 0.0
O1233 O 0.88801 0.03311 0.46863 0.0
Cd1234 Cd 0.8906 0.04607 0.45398 0.0
O1235 O 0.87004 0.0357 0.47001 0.0
Cd1236 Cd 0.86518 0.04993 0.45601 0.0
C1237 C 0.88162 0.06904 0.46754 0.0
O1238 O 0.87622 0.04245 0.44111 0.0
O1239 O 0.87032 0.05893 0.43834 0.0
O1240 O 0.84798 0.04012 0.45298 0.0
C1241 C 0.87509 0.05046 0.43452 0.0
O1242 O 0.88948 0.06435 0.46239 0.0
C1243 C 0.84191 0.04864 0.4533 0.0
O1244 O 0.87198 0.06493 0.46753 0.0
O1245 O 0.84665 0.05776 0.45535 0.0
C1246 C 0.37151 0.21869 0.27333 0.0
O1247 O 0.38025 0.21959 0.27902 0.0
Cd1248 Cd 0.38786 0.20554 0.29024 0.0
O1249 O 0.36549 0.21007 0.27402 0.0
Cd1250 Cd 0.36485 0.19274 0.28549 0.0
C1251 C 0.38689 0.18389 0.27133 0.0
O1252 O 0.37301 0.20071 0.30186 0.0
O1253 O 0.37219 0.18304 0.30207 0.0
O1254 O 0.34561 0.19761 0.28744 0.0
C1255 C 0.37472 0.19186 0.30709 0.0
O1256 O 0.39218 0.191 0.27699 0.0
C1257 C 0.3419 0.18783 0.28711 0.0
O1258 O 0.3765 0.18278 0.27241 0.0
O1259 O 0.34887 0.18015 0.28555 0.0
C1260 C 0.27822 0.62326 0.02155 0.0
O1261 O 0.2774 0.63212 0.02707 0.0
Cd1262 Cd 0.29111 0.63823 0.03982 0.0
O1263 O 0.2861 0.61651 0.02322 0.0
Cd1264 Cd 0.30169 0.61447 0.03654 0.0
C1265 C 0.31424 0.63526 0.02345 0.0
O1266 O 0.29312 0.62333 0.05234 0.0
O1267 O 0.31071 0.62164 0.0534 0.0
O1268 O 0.29601 0.5954 0.03864 0.0
C1269 C 0.30178 0.62442 0.05805 0.0
O1270 O 0.30785 0.64162 0.02886 0.0
C1271 C 0.30568 0.5914 0.03851 0.0
O1272 O 0.31332 0.62483 0.02407 0.0
O1273 O 0.31357 0.59813 0.03706 0.0
C1274 C 0.86537 0.53061 0.76781 0.0
O1275 O 0.85543 0.53267 0.77037 0.0
Cd1276 Cd 0.8502 0.54531 0.78471 0.0
O1277 O 0.87328 0.53584 0.77228 0.0
Cd1278 Cd 0.87515 0.55146 0.78524 0.0
C1279 C 0.85816 0.56852 0.77146 0.0
O1280 O 0.86331 0.54347 0.7993 0.0
O1281 O 0.86812 0.56031 0.80223 0.0
O1282 O 0.89285 0.54315 0.78923 0.0
C1283 C 0.86338 0.55168 0.80575 0.0
O1284 O 0.85033 0.56352 0.77634 0.0
C1285 C 0.89825 0.55211 0.7892 0.0
O1286 O 0.86804 0.56508 0.77218 0.0
O1287 O 0.8929 0.56088 0.78712 0.0
C1288 C 0.46656 0.11883 0.02601 0.0
O1289 O 0.46695 0.11024 0.03199 0.0
Cd1290 Cd 0.4524 0.10393 0.04338 0.0
O1291 O 0.4583 0.12534 0.02646 0.0
Cd1292 Cd 0.44097 0.12722 0.03774 0.0
C1293 C 0.43107 0.10525 0.02421 0.0
O1294 O 0.44813 0.11929 0.05462 0.0
O1295 O 0.43052 0.12061 0.05412 0.0
O1296 O 0.44676 0.14621 0.03961 0.0
C1297 C 0.43906 0.11808 0.05958 0.0
O1298 O 0.43777 0.09978 0.03019 0.0
C1299 C 0.43723 0.15044 0.03878 0.0
O1300 O 0.43058 0.11573 0.02485 0.0
O1301 O 0.42929 0.14385 0.03695 0.0
C1302 C 0.86442 0.71445 0.46729 0.0
O1303 O 0.85606 0.7144 0.461 0.0
Cd1304 Cd 0.85182 0.70087 0.44754 0.0
O1305 O 0.87184 0.70702 0.46639 0.0
Cd1306 Cd 0.87533 0.69074 0.45398 0.0
C1307 C 0.85314 0.67793 0.46455 0.0
O1308 O 0.86821 0.69896 0.43717 0.0
O1309 O 0.87036 0.68143 0.4364 0.0
O1310 O 0.89436 0.69687 0.45347 0.0
C1311 C 0.86787 0.69028 0.43142 0.0
O1312 O 0.84765 0.68453 0.45849 0.0
C1313 C 0.89858 0.6873 0.45389 0.0
O1314 O 0.86361 0.6786 0.46509 0.0
O1315 O 0.89197 0.67926 0.45503 0.0
C1316 C 0.2763 0.61776 0.21513 0.0
O1317 O 0.27605 0.60908 0.20929 0.0
Cd1318 Cd 0.29126 0.60241 0.19918 0.0
O1319 O 0.28472 0.62408 0.21505 0.0
Cd1320 Cd 0.30255 0.62567 0.20449 0.0
C1321 C 0.31163 0.60441 0.21942 0.0
O1322 O 0.29579 0.61748 0.18764 0.0
O1323 O 0.31341 0.61838 0.18861 0.0
O1324 O 0.2965 0.64451 0.20227 0.0
C1325 C 0.30496 0.616 0.18294 0.0
O1326 O 0.30503 0.59881 0.21346 0.0
C1327 C 0.30596 0.64891 0.20286 0.0
O1328 O 0.31248 0.61482 0.21823 0.0
O1329 O 0.31404 0.6425 0.2047 0.0
C1330 C 0.96134 0.13057 0.72164 0.0
O1331 O 0.95903 0.13969 0.71701 0.0
Cd1332 Cd 0.94601 0.14197 0.70241 0.0
O1333 O 0.95651 0.1217 0.71868 0.0
Cd1334 Cd 0.94218 0.11658 0.7049 0.0
C1335 C 0.92309 0.13319 0.71611 0.0
O1336 O 0.94994 0.12729 0.68996 0.0
O1337 O 0.93352 0.12141 0.68691 0.0
O1338 O 0.95181 0.09916 0.70262 0.0
C1339 C 0.94211 0.12607 0.6832 0.0
O1340 O 0.92775 0.14101 0.71087 0.0
C1341 C 0.94321 0.09321 0.703 0.0
O1342 O 0.92722 0.12356 0.71621 0.0
O1343 O 0.93413 0.09813 0.70467 0.0
C1344 C 0.5245 0.118 0.96793 0.0
O1345 O 0.53003 0.10911 0.96801 0.0
Cd1346 Cd 0.5414 0.10288 0.95342 0.0
O1347 O 0.52528 0.12476 0.95989 0.0
Cd1348 Cd 0.53671 0.12634 0.94263 0.0
C1349 C 0.52288 0.10495 0.9318 0.0
O1350 O 0.55333 0.11806 0.95009 0.0
O1351 O 0.55321 0.11957 0.93248 0.0
O1352 O 0.53866 0.14554 0.94792 0.0
C1353 C 0.55849 0.11698 0.94111 0.0
O1354 O 0.5286 0.09902 0.93833 0.0
C1355 C 0.53809 0.14943 0.93822 0.0
O1356 O 0.52379 0.11541 0.93185 0.0
O1357 O 0.5364 0.14259 0.93047 0.0
C1358 C 0.37151 0.27594 0.2151 0.0
O1359 O 0.38025 0.28167 0.21568 0.0
Cd1360 Cd 0.38739 0.29237 0.20102 0.0
O1361 O 0.36536 0.27637 0.20656 0.0
Cd1362 Cd 0.36452 0.28749 0.18901 0.0
C1363 C 0.38613 0.27299 0.1799 0.0
O1364 O 0.37258 0.30425 0.19642 0.0
O1365 O 0.37185 0.30372 0.17876 0.0
O1366 O 0.34535 0.28965 0.19401 0.0
C1367 C 0.37413 0.30918 0.18737 0.0
O1368 O 0.39162 0.27874 0.18676 0.0
C1369 C 0.34153 0.28898 0.1843 0.0
O1370 O 0.37574 0.27414 0.179 0.0
O1371 O 0.34841 0.28715 0.17662 0.0
C1372 C 0.21699 0.12846 0.46703 0.0
O1373 O 0.21063 0.13678 0.46707 0.0
Cd1374 Cd 0.19823 0.14135 0.4527 0.0
O1375 O 0.21642 0.12132 0.45931 0.0
Cd1376 Cd 0.20466 0.11769 0.44267 0.0
C1377 C 0.21675 0.13952 0.43086 0.0
O1378 O 0.18763 0.12522 0.44983 0.0
O1379 O 0.18785 0.12308 0.43227 0.0
O1380 O 0.20357 0.0991 0.44983 0.0
C1381 C 0.18243 0.12573 0.4408 0.0
O1382 O 0.21064 0.1451 0.43734 0.0
C1383 C 0.20432 0.09426 0.4406 0.0
O1384 O 0.2167 0.12901 0.43111 0.0
O1385 O 0.20581 0.10033 0.43218 0.0
C1386 C 0.36303 0.96941 0.71151 0.0
O1387 O 0.35402 0.96443 0.70961 0.0
Cd1388 Cd 0.35084 0.95121 0.69545 0.0
O1389 O 0.37153 0.96752 0.70561 0.0
Cd1390 Cd 0.37564 0.95526 0.68949 0.0
C1391 C 0.35684 0.96787 0.67357 0.0
O1392 O 0.36622 0.9391 0.6966 0.0
O1393 O 0.37016 0.93825 0.67938 0.0
O1394 O 0.39422 0.95304 0.69675 0.0
C1395 C 0.36663 0.93336 0.68791 0.0
O1396 O 0.34972 0.96174 0.67826 0.0
C1397 C 0.39897 0.95368 0.68744 0.0
O1398 O 0.36682 0.96795 0.67676 0.0
O1399 O 0.3929 0.95558 0.67914 0.0
C1400 C 0.51779 0.12805 0.28146 0.0
O1401 O 0.52051 0.13785 0.28394 0.0
Cd1402 Cd 0.53526 0.1422 0.29642 0.0
O1403 O 0.52224 0.11983 0.28624 0.0
Cd1404 Cd 0.53537 0.11723 0.30163 0.0
C1405 C 0.52242 0.13387 0.3196 0.0
O1406 O 0.54948 0.12886 0.29348 0.0
O1407 O 0.5528 0.12374 0.31013 0.0
O1408 O 0.53858 0.09944 0.29306 0.0
C1409 C 0.5562 0.12844 0.30144 0.0
O1410 O 0.52747 0.14175 0.31487 0.0
C1411 C 0.53881 0.09402 0.30201 0.0
O1412 O 0.52275 0.12413 0.3157 0.0
O1413 O 0.53722 0.09939 0.31085 0.0
C1414 C 0.36533 0.27607 0.52508 0.0
O1415 O 0.35701 0.28241 0.52503 0.0
Cd1416 Cd 0.35204 0.29433 0.53969 0.0
O1417 O 0.37217 0.27624 0.53308 0.0
Cd1418 Cd 0.37515 0.28724 0.55036 0.0
C1419 C 0.35266 0.27541 0.56124 0.0
O1420 O 0.3683 0.30456 0.54319 0.0
O1421 O 0.36996 0.3041 0.56079 0.0
O1422 O 0.39402 0.28799 0.54409 0.0
C1423 C 0.36772 0.30969 0.55224 0.0
O1424 O 0.3474 0.28174 0.55471 0.0
C1425 C 0.39842 0.28702 0.55352 0.0
O1426 O 0.36316 0.27522 0.56124 0.0
O1427 O 0.39195 0.28551 0.56162 0.0
C1428 C 0.21801 0.11374 0.77661 0.0
O1429 O 0.21207 0.10512 0.77666 0.0
Cd1430 Cd 0.1986 0.10056 0.79005 0.0
O1431 O 0.21657 0.12129 0.78381 0.0
Cd1432 Cd 0.20361 0.12453 0.79966 0.0
C1433 C 0.21556 0.10321 0.81277 0.0
O1434 O 0.18719 0.11637 0.79166 0.0
O1435 O 0.18645 0.11865 0.80918 0.0
O1436 O 0.20193 0.14345 0.79332 0.0
C1437 C 0.18153 0.11584 0.8004 0.0
O1438 O 0.20985 0.09715 0.80636 0.0
C1439 C 0.20257 0.14784 0.8028 0.0
O1440 O 0.21533 0.11369 0.81191 0.0
O1441 O 0.20425 0.14138 0.81088 0.0
C1442 C 0.37875 0.96969 0.02717 0.0
O1443 O 0.38786 0.96495 0.02916 0.0
Cd1444 Cd 0.391 0.95211 0.04368 0.0
O1445 O 0.37028 0.96771 0.03307 0.0
Cd1446 Cd 0.36589 0.95559 0.0491 0.0
C1447 C 0.384 0.96873 0.06541 0.0
O1448 O 0.37592 0.9397 0.0424 0.0
O1449 O 0.37141 0.93865 0.05944 0.0
O1450 O 0.34803 0.95304 0.04042 0.0
C1451 C 0.37555 0.93395 0.05107 0.0
O1452 O 0.39132 0.96282 0.06075 0.0
C1453 C 0.34247 0.95366 0.04926 0.0
O1454 O 0.37404 0.96855 0.06213 0.0
O1455 O 0.34779 0.9556 0.05807 0.0
C1456 C 0.96198 0.01771 0.6118 0.0
O1457 O 0.95968 0.02172 0.60239 0.0
Cd1458 Cd 0.94721 0.03654 0.59878 0.0
O1459 O 0.95737 0.02145 0.62047 0.0
Cd1460 Cd 0.94327 0.03583 0.62451 0.0
C1461 C 0.92404 0.02395 0.6084 0.0
O1462 O 0.95122 0.04983 0.61262 0.0
O1463 O 0.93507 0.05376 0.61867 0.0
O1464 O 0.95272 0.03887 0.64195 0.0
C1465 C 0.94354 0.05683 0.61337 0.0
O1466 O 0.92876 0.02868 0.6003 0.0
C1467 C 0.94402 0.03883 0.64777 0.0
O1468 O 0.92819 0.02429 0.61802 0.0
O1469 O 0.93499 0.03715 0.64276 0.0
C1470 C 0.46663 0.71525 0.86284 0.0
O1471 O 0.46039 0.71509 0.85445 0.0
Cd1472 Cd 0.4477 0.70081 0.85046 0.0
O1473 O 0.46574 0.70788 0.87033 0.0
Cd1474 Cd 0.45352 0.69165 0.87448 0.0
C1475 C 0.46601 0.67893 0.85347 0.0
O1476 O 0.43681 0.69905 0.86656 0.0
O1477 O 0.43652 0.68153 0.86899 0.0
O1478 O 0.45234 0.69927 0.89289 0.0
C1479 C 0.43135 0.69018 0.86622 0.0
O1480 O 0.46008 0.68524 0.84752 0.0
C1481 C 0.45278 0.6901 0.89792 0.0
O1482 O 0.46567 0.67953 0.86395 0.0
O1483 O 0.45416 0.68154 0.89204 0.0
C1484 C 0.77556 0.21967 0.11194 0.0
O1485 O 0.77727 0.21469 0.10289 0.0
Cd1486 Cd 0.79153 0.20157 0.09957 0.0
O1487 O 0.78164 0.21778 0.12032 0.0
Cd1488 Cd 0.79762 0.20558 0.12465 0.0
C1489 C 0.81357 0.21816 0.10576 0.0
O1490 O 0.79073 0.1895 0.11496 0.0
O1491 O 0.8078 0.18855 0.11952 0.0
O1492 O 0.78915 0.2031 0.14261 0.0
C1493 C 0.7994 0.18376 0.11556 0.0
O1494 O 0.80865 0.21215 0.09868 0.0
C1495 C 0.79804 0.20376 0.14809 0.0
O1496 O 0.81057 0.21823 0.11582 0.0
O1497 O 0.80677 0.20581 0.14268 0.0
C1498 C 0.27364 0.52726 0.36898 0.0
O1499 O 0.28036 0.52476 0.36137 0.0
Cd1500 Cd 0.29253 0.53816 0.35376 0.0
O1501 O 0.27437 0.53645 0.37406 0.0
Cd1502 Cd 0.28747 0.55241 0.37539 0.0
C1503 C 0.27472 0.56086 0.35258 0.0
O1504 O 0.30414 0.54369 0.36845 0.0
O1505 O 0.3041 0.56144 0.3681 0.0
O1506 O 0.28886 0.5478 0.39472 0.0
C1507 C 0.30934 0.55254 0.36651 0.0
O1508 O 0.28013 0.55311 0.34796 0.0
C1509 C 0.28861 0.55765 0.39827 0.0
O1510 O 0.27552 0.56257 0.36291 0.0
O1511 O 0.28726 0.56523 0.39115 0.0
C1512 C 0.96793 0.21859 0.6282 0.0
O1513 O 0.96787 0.21241 0.63666 0.0
Cd1514 Cd 0.95414 0.19911 0.64091 0.0
O1515 O 0.96056 0.21755 0.62076 0.0
Cd1516 Cd 0.94442 0.20518 0.61705 0.0
C1517 C 0.93145 0.21637 0.63875 0.0
O1518 O 0.95211 0.18841 0.62472 0.0
O1519 O 0.93465 0.18786 0.62198 0.0
O1520 O 0.95143 0.20417 0.59841 0.0
C1521 C 0.94332 0.18281 0.62492 0.0
O1522 O 0.93794 0.21042 0.64448 0.0
C1523 C 0.94213 0.20494 0.59369 0.0
O1524 O 0.93221 0.21662 0.62827 0.0
O1525 O 0.9338 0.20644 0.59987 0.0
C1526 C 0.26842 0.71226 0.87751 0.0
O1527 O 0.27306 0.71037 0.88671 0.0
Cd1528 Cd 0.28777 0.69779 0.89006 0.0
O1529 O 0.27147 0.70714 0.86883 0.0
Cd1530 Cd 0.28548 0.69253 0.86473 0.0
C1531 C 0.27395 0.67455 0.88245 0.0
O1532 O 0.3003 0.70078 0.8753 0.0
O1533 O 0.30318 0.68396 0.87064 0.0
O1534 O 0.2883 0.70052 0.84648 0.0
C1535 C 0.30692 0.69275 0.87489 0.0
O1536 O 0.27929 0.67951 0.89001 0.0
C1537 C 0.28811 0.69136 0.84139 0.0
O1538 O 0.27388 0.67818 0.87262 0.0
O1539 O 0.28623 0.6828 0.84712 0.0
C1540 C 0.77546 0.026 0.12293 0.0
O1541 O 0.77491 0.03168 0.1317 0.0
Cd1542 Cd 0.78944 0.04239 0.13901 0.0
O1543 O 0.78399 0.02639 0.11677 0.0
Cd1544 Cd 0.8017 0.03725 0.11591 0.0
C1545 C 0.81039 0.02277 0.13782 0.0
O1546 O 0.79416 0.05384 0.12395 0.0
O1547 O 0.81179 0.05368 0.12316 0.0
O1548 O 0.79687 0.03907 0.09663 0.0
C1549 C 0.80309 0.05894 0.12556 0.0
O1550 O 0.80355 0.02861 0.14323 0.0
C1551 C 0.80664 0.0386 0.09295 0.0
O1552 O 0.81141 0.02389 0.12742 0.0
O1553 O 0.81427 0.03702 0.09995 0.0
C1554 C 0.47005 0.52961 0.37933 0.0
O1555 O 0.46533 0.53154 0.38848 0.0
Cd1556 Cd 0.45124 0.54489 0.39171 0.0
O1557 O 0.46739 0.53502 0.3707 0.0
Cd1558 Cd 0.4541 0.55015 0.3663 0.0
C1559 C 0.46621 0.56754 0.38423 0.0
O1560 O 0.43874 0.54273 0.37678 0.0
O1561 O 0.43669 0.55955 0.37166 0.0
O1562 O 0.45172 0.54182 0.34818 0.0
C1563 C 0.43253 0.55107 0.37614 0.0
O1564 O 0.46068 0.5627 0.39173 0.0
C1565 C 0.45223 0.55084 0.34288 0.0
O1566 O 0.46613 0.56402 0.37435 0.0
O1567 O 0.45397 0.55953 0.34846 0.0
C1568 C 0.6179 0.46956 0.52327 0.0
O1569 O 0.60922 0.47043 0.52904 0.0
Cd1570 Cd 0.60197 0.45595 0.54001 0.0
O1571 O 0.62389 0.46093 0.52387 0.0
Cd1572 Cd 0.62485 0.44367 0.53527 0.0
C1573 C 0.60312 0.43439 0.52102 0.0
O1574 O 0.61671 0.45122 0.55191 0.0
O1575 O 0.61782 0.43354 0.55165 0.0
O1576 O 0.64367 0.44957 0.53754 0.0
C1577 C 0.61531 0.44219 0.55695 0.0
O1578 O 0.59776 0.44143 0.52667 0.0
C1579 C 0.64799 0.44007 0.53696 0.0
O1580 O 0.61352 0.43339 0.52212 0.0
O1581 O 0.64153 0.43202 0.53508 0.0
C1582 C 0.11907 0.27462 0.71508 0.0
O1583 O 0.11063 0.27393 0.70893 0.0
Cd1584 Cd 0.10397 0.28842 0.69763 0.0
O1585 O 0.1252 0.28318 0.71484 0.0
Cd1586 Cd 0.12654 0.30064 0.70374 0.0
C1587 C 0.10402 0.30956 0.71699 0.0
O1588 O 0.11935 0.29326 0.6866 0.0
O1589 O 0.12002 0.31093 0.68726 0.0
O1590 O 0.1458 0.29581 0.70243 0.0
C1591 C 0.11801 0.30234 0.68165 0.0
O1592 O 0.09886 0.30274 0.71088 0.0
C1593 C 0.14951 0.30555 0.70333 0.0
O1594 O 0.11446 0.31042 0.71647 0.0
O1595 O 0.14249 0.31316 0.70497 0.0
C1596 C 0.2166 0.8643 0.96553 0.0
O1597 O 0.21653 0.8559 0.95928 0.0
Cd1598 Cd 0.20239 0.85161 0.94649 0.0
O1599 O 0.20912 0.87167 0.96472 0.0
Cd1600 Cd 0.19271 0.87559 0.95277 0.0
C1601 C 0.18042 0.85392 0.96473 0.0
O1602 O 0.20014 0.86791 0.93599 0.0
O1603 O 0.18267 0.87051 0.93558 0.0
O1604 O 0.19964 0.89429 0.95181 0.0
C1605 C 0.1913 0.86758 0.93048 0.0
O1606 O 0.18677 0.84813 0.95869 0.0
C1607 C 0.19035 0.89897 0.9529 0.0
O1608 O 0.18096 0.86441 0.96463 0.0
O1609 O 0.18207 0.89273 0.95444 0.0
C1610 C 0.6219 0.96366 0.21777 0.0
O1611 O 0.62958 0.96597 0.21107 0.0
Cd1612 Cd 0.63719 0.95184 0.19987 0.0
O1613 O 0.61679 0.95448 0.2172 0.0
Cd1614 Cd 0.61511 0.93841 0.20429 0.0
C1615 C 0.6367 0.92969 0.21853 0.0
O1616 O 0.6229 0.94652 0.18773 0.0
O1617 O 0.62286 0.92879 0.18804 0.0
O1618 O 0.59627 0.94446 0.20262 0.0
C1619 C 0.62493 0.93757 0.18275 0.0
O1620 O 0.6417 0.93728 0.21323 0.0
C1621 C 0.59195 0.93493 0.20262 0.0
O1622 O 0.62645 0.92797 0.21709 0.0
O1623 O 0.59843 0.92676 0.20384 0.0
C1624 C 0.0237 0.37516 0.9667 0.0
O1625 O 0.02338 0.38392 0.96097 0.0
Cd1626 Cd 0.03796 0.39062 0.94983 0.0
O1627 O 0.03195 0.36865 0.96617 0.0
Cd1628 Cd 0.04934 0.36706 0.95504 0.0
C1629 C 0.05928 0.38885 0.96895 0.0
O1630 O 0.04227 0.37546 0.93835 0.0
O1631 O 0.05986 0.37399 0.93886 0.0
O1632 O 0.04388 0.348 0.95272 0.0
C1633 C 0.05137 0.37681 0.93347 0.0
O1634 O 0.05265 0.39452 0.96308 0.0
C1635 C 0.05344 0.3439 0.95383 0.0
O1636 O 0.05963 0.37838 0.96812 0.0
O1637 O 0.06122 0.3506 0.95593 0.0
C1638 C 0.6265 0.77447 0.52556 0.0
O1639 O 0.63493 0.77426 0.53177 0.0
Cd1640 Cd 0.64026 0.78855 0.54399 0.0
O1641 O 0.61956 0.78237 0.5262 0.0
Cd1642 Cd 0.61657 0.7992 0.53793 0.0
C1643 C 0.63852 0.81032 0.52532 0.0
O1644 O 0.62446 0.79203 0.55483 0.0
O1645 O 0.62253 0.8096 0.55452 0.0
O1646 O 0.59765 0.79295 0.53934 0.0
C1647 C 0.62535 0.80109 0.5599 0.0
O1648 O 0.64409 0.80377 0.53136 0.0
C1649 C 0.59327 0.80241 0.53844 0.0
O1650 O 0.62802 0.81029 0.52559 0.0
O1651 O 0.59974 0.8105 0.53681 0.0
C1652 C 0.21879 0.87724 0.77447 0.0
O1653 O 0.21892 0.88595 0.78027 0.0
Cd1654 Cd 0.20435 0.89172 0.79189 0.0
O1655 O 0.21081 0.87042 0.77517 0.0
Cd1656 Cd 0.19373 0.86795 0.78658 0.0
C1657 C 0.18266 0.88949 0.7732 0.0
O1658 O 0.20112 0.87611 0.80316 0.0
O1659 O 0.18358 0.87399 0.80339 0.0
O1660 O 0.20041 0.84927 0.78847 0.0
C1661 C 0.19222 0.87686 0.80851 0.0
O1662 O 0.1893 0.89523 0.77899 0.0
C1663 C 0.19109 0.8446 0.78761 0.0
O1664 O 0.18256 0.87901 0.77392 0.0
O1665 O 0.18285 0.8508 0.78575 0.0
C1666 C 0.524 0.36614 0.27383 0.0
O1667 O 0.52421 0.35742 0.27962 0.0
Cd1668 Cd 0.53832 0.3522 0.2921 0.0
O1669 O 0.53157 0.3734 0.27476 0.0
Cd1670 Cd 0.54827 0.37639 0.28669 0.0
C1671 C 0.56089 0.3549 0.27459 0.0
O1672 O 0.54075 0.36799 0.3032 0.0
O1673 O 0.55819 0.37062 0.3037 0.0
O1674 O 0.54146 0.39512 0.28834 0.0
C1675 C 0.54959 0.36735 0.30865 0.0
O1676 O 0.55436 0.34906 0.2804 0.0
C1677 C 0.55078 0.3998 0.28769 0.0
O1678 O 0.56025 0.3654 0.27467 0.0
O1679 O 0.55907 0.3936 0.28607 0.0
C1680 C 0.47293 0.86746 0.03276 0.0
O1681 O 0.46437 0.86171 0.0315 0.0
Cd1682 Cd 0.45681 0.8678 0.04952 0.0
O1683 O 0.47392 0.87238 0.04187 0.0
Cd1684 Cd 0.45708 0.86663 0.05402 0.0
C1685 C 0.46987 0.88268 0.06619 0.0
O1686 O 0.43984 0.87464 0.04488 0.0
O1687 O 0.44154 0.8776 0.06224 0.0
O1688 O 0.45491 0.84758 0.04681 0.0
C1689 C 0.4358 0.87875 0.05356 0.0
O1690 O 0.46609 0.88504 0.05676 0.0
C1691 C 0.454 0.84315 0.05624 0.0
O1692 O 0.46785 0.87311 0.06983 0.0
O1693 O 0.45475 0.84949 0.06453 0.0
C1694 C 0.61414 0.71821 0.77964 0.0
O1695 O 0.60505 0.71332 0.78139 0.0
Cd1696 Cd 0.60166 0.70016 0.79556 0.0
O1697 O 0.62251 0.71626 0.7857 0.0
Cd1698 Cd 0.62657 0.70396 0.80175 0.0
C1699 C 0.60778 0.7165 0.81773 0.0
O1700 O 0.61702 0.68804 0.79439 0.0
O1701 O 0.6211 0.68663 0.81152 0.0
O1702 O 0.64491 0.70194 0.79395 0.0
C1703 C 0.61733 0.68206 0.80291 0.0
O1704 O 0.60065 0.71057 0.8128 0.0
C1705 C 0.65001 0.70267 0.80306 0.0
O1706 O 0.61781 0.7165 0.8147 0.0
O1707 O 0.6442 0.70436 0.8116 0.0
C1708 C 0.7728 0.8657 0.52474 0.0
O1709 O 0.77808 0.85666 0.52475 0.0
Cd1710 Cd 0.78952 0.8506 0.53938 0.0
O1711 O 0.77401 0.87265 0.53254 0.0
Cd1712 Cd 0.78594 0.87468 0.5493 0.0
C1713 C 0.77154 0.85434 0.56129 0.0
O1714 O 0.80204 0.86543 0.54196 0.0
O1715 O 0.80248 0.86797 0.55946 0.0
O1716 O 0.78878 0.89309 0.54223 0.0
C1717 C 0.80741 0.86468 0.55086 0.0
O1718 O 0.77685 0.848 0.55482 0.0
C1719 C 0.78812 0.898 0.55144 0.0
O1720 O 0.77287 0.86476 0.56092 0.0
O1721 O 0.78603 0.89206 0.55982 0.0
C1722 C 0.62652 0.01716 0.27912 0.0
O1723 O 0.63641 0.01982 0.28128 0.0
Cd1724 Cd 0.64149 0.03444 0.2937 0.0
O1725 O 0.61851 0.02169 0.28414 0.0
Cd1726 Cd 0.61661 0.03484 0.29958 0.0
C1727 C 0.63363 0.02132 0.31688 0.0
O1728 O 0.62839 0.04904 0.2916 0.0
O1729 O 0.62326 0.05202 0.30832 0.0
O1730 O 0.59872 0.0388 0.2916 0.0
C1731 C 0.62807 0.05556 0.29975 0.0
O1732 O 0.64147 0.02631 0.31201 0.0
C1733 C 0.5935 0.03856 0.30067 0.0
O1734 O 0.62381 0.02193 0.31329 0.0
O1735 O 0.59904 0.03634 0.30928 0.0
C1736 C 0.46709 0.86838 0.71551 0.0
O1737 O 0.46174 0.8594 0.71604 0.0
Cd1738 Cd 0.45198 0.85199 0.70087 0.0
O1739 O 0.46654 0.8745 0.70696 0.0
Cd1740 Cd 0.45562 0.87528 0.68935 0.0
C1741 C 0.47177 0.85497 0.68026 0.0
O1742 O 0.4393 0.86622 0.69643 0.0
O1743 O 0.43974 0.86753 0.67879 0.0
O1744 O 0.45269 0.89393 0.69556 0.0
C1745 C 0.43442 0.86475 0.68735 0.0
O1746 O 0.46637 0.84905 0.68706 0.0
C1747 C 0.45326 0.89846 0.68616 0.0
O1748 O 0.46976 0.86522 0.67923 0.0
O1749 O 0.45527 0.8922 0.678 0.0
C1750 C 0.62831 0.71987 0.46369 0.0
O1751 O 0.63746 0.7151 0.46196 0.0
Cd1752 Cd 0.64111 0.70247 0.44735 0.0
O1753 O 0.62005 0.71802 0.45744 0.0
Cd1754 Cd 0.61611 0.70609 0.44113 0.0
C1755 C 0.6347 0.71925 0.42548 0.0
O1756 O 0.626 0.69005 0.44781 0.0
O1757 O 0.6217 0.68933 0.43066 0.0
O1758 O 0.5982 0.7033 0.44951 0.0
C1759 C 0.62566 0.68447 0.43902 0.0
O1760 O 0.64186 0.71334 0.43038 0.0
C1761 C 0.59272 0.70412 0.44064 0.0
O1762 O 0.62463 0.71911 0.42842 0.0
O1763 O 0.59811 0.70631 0.43193 0.0
C1764 C 0.77592 0.87554 0.21579 0.0
O1765 O 0.78219 0.88392 0.21607 0.0
Cd1766 Cd 0.79436 0.88947 0.20186 0.0
O1767 O 0.77629 0.86881 0.2077 0.0
Cd1768 Cd 0.7877 0.8664 0.19052 0.0
C1769 C 0.77572 0.88913 0.18012 0.0
O1770 O 0.80477 0.87338 0.19817 0.0
O1771 O 0.80473 0.87202 0.18056 0.0
O1772 O 0.78826 0.84711 0.19576 0.0
C1773 C 0.81007 0.87426 0.18925 0.0
O1774 O 0.78189 0.89437 0.18682 0.0
C1775 C 0.7875 0.84329 0.18605 0.0
O1776 O 0.77573 0.87862 0.17987 0.0
O1777 O 0.78629 0.85025 0.17831 0.0
C1778 C 0.61192 0.02221 0.96577 0.0
O1779 O 0.60287 0.02728 0.96439 0.0
Cd1780 Cd 0.59939 0.04069 0.95039 0.0
O1781 O 0.62015 0.02418 0.95954 0.0
Cd1782 Cd 0.62416 0.03664 0.9437 0.0
C1783 C 0.60493 0.02427 0.92812 0.0
O1784 O 0.61485 0.05275 0.95102 0.0
O1785 O 0.61889 0.05382 0.93381 0.0
O1786 O 0.64249 0.03845 0.95142 0.0
C1787 C 0.61525 0.05857 0.94237 0.0
O1788 O 0.59793 0.03025 0.93316 0.0
C1789 C 0.64752 0.03771 0.94228 0.0
O1790 O 0.61503 0.02422 0.93094 0.0
O1791 O 0.64166 0.03605 0.93376 0.0
C1792 C 0.02907 0.97012 0.37883 0.0
O1793 O 0.03097 0.96532 0.38794 0.0
Cd1794 Cd 0.04543 0.95245 0.39117 0.0
O1795 O 0.03505 0.96817 0.3704 0.0
Cd1796 Cd 0.05113 0.95604 0.36609 0.0
C1797 C 0.06723 0.96913 0.38439 0.0
O1798 O 0.04442 0.94009 0.37604 0.0
O1799 O 0.06154 0.9392 0.37166 0.0
O1800 O 0.04241 0.9533 0.3483 0.0
C1801 C 0.05313 0.9344 0.37561 0.0
O1802 O 0.06247 0.96319 0.39163 0.0
C1803 C 0.05121 0.95388 0.34268 0.0
O1804 O 0.06408 0.96902 0.37438 0.0
O1805 O 0.06003 0.95596 0.34792 0.0
C1806 C 0.52432 0.27775 0.12537 0.0
O1807 O 0.53042 0.27764 0.13387 0.0
Cd1808 Cd 0.5425 0.29196 0.13935 0.0
O1809 O 0.52492 0.28566 0.11844 0.0
Cd1810 Cd 0.53665 0.30268 0.116 0.0
C1811 C 0.52383 0.31359 0.13789 0.0
O1812 O 0.55361 0.29538 0.12368 0.0
O1813 O 0.55317 0.31302 0.12239 0.0
O1814 O 0.5384 0.29702 0.09692 0.0
C1815 C 0.55867 0.30444 0.12472 0.0
O1816 O 0.52988 0.30706 0.14347 0.0
C1817 C 0.53756 0.30662 0.09282 0.0
O1818 O 0.52416 0.3136 0.12739 0.0
O1819 O 0.53572 0.31448 0.0995 0.0
C1820 C 0.20891 0.76984 0.87834 0.0
O1821 O 0.20673 0.7744 0.88751 0.0
Cd1822 Cd 0.19372 0.78887 0.89035 0.0
O1823 O 0.2039 0.7728 0.86957 0.0
Cd1824 Cd 0.18912 0.78648 0.86511 0.0
C1825 C 0.1709 0.77462 0.88232 0.0
O1826 O 0.19694 0.80157 0.87572 0.0
O1827 O 0.18023 0.80418 0.87051 0.0
O1828 O 0.19782 0.78893 0.84718 0.0
C1829 C 0.18888 0.80811 0.87487 0.0
O1830 O 0.17561 0.78006 0.88997 0.0
C1831 C 0.18887 0.78896 0.84174 0.0
O1832 O 0.17476 0.7746 0.87257 0.0
O1833 O 0.18006 0.78736 0.84715 0.0
C1834 C 0.72072 0.46195 0.62817 0.0
O1835 O 0.71616 0.46003 0.6374 0.0
Cd1836 Cd 0.70219 0.44669 0.64099 0.0
O1837 O 0.718 0.45644 0.61963 0.0
Cd1838 Cd 0.70471 0.44104 0.61589 0.0
C1839 C 0.71708 0.42397 0.63382 0.0
O1840 O 0.68944 0.44877 0.62627 0.0
O1841 O 0.68747 0.43171 0.62203 0.0
O1842 O 0.702 0.44874 0.59753 0.0
C1843 C 0.68326 0.44038 0.62605 0.0
O1844 O 0.7115 0.42883 0.64126 0.0
C1845 C 0.70217 0.43952 0.59257 0.0
O1846 O 0.71705 0.42742 0.62392 0.0
O1847 O 0.70394 0.43102 0.59843 0.0
C1848 C 0.03016 0.76859 0.36596 0.0
O1849 O 0.03215 0.77136 0.35607 0.0
Cd1850 Cd 0.04443 0.78596 0.3508 0.0
O1851 O 0.03535 0.77299 0.37396 0.0
Cd1852 Cd 0.05103 0.78608 0.37557 0.0
C1853 C 0.06771 0.77261 0.35785 0.0
O1854 O 0.04258 0.80029 0.36422 0.0
O1855 O 0.05954 0.80325 0.36842 0.0
O1856 O 0.04391 0.78986 0.39391 0.0
C1857 C 0.05071 0.80682 0.36412 0.0
O1858 O 0.06267 0.77772 0.3502 0.0
C1859 C 0.05324 0.78983 0.39866 0.0
O1860 O 0.0644 0.77315 0.36779 0.0
O1861 O 0.06157 0.78778 0.39268 0.0
C1862 C 0.71473 0.27563 0.11339 0.0
O1863 O 0.70835 0.27559 0.10509 0.0
Cd1864 Cd 0.69547 0.28961 0.10062 0.0
O1865 O 0.71409 0.28328 0.12061 0.0
Cd1866 Cd 0.70226 0.2999 0.12413 0.0
C1867 C 0.71356 0.31175 0.10177 0.0
O1868 O 0.68516 0.2925 0.11694 0.0
O1869 O 0.68529 0.31007 0.11897 0.0
O1870 O 0.70125 0.29379 0.14314 0.0
C1871 C 0.6799 0.30148 0.11644 0.0
O1872 O 0.70735 0.30527 0.0963 0.0
C1873 C 0.70244 0.30328 0.1474 0.0
O1874 O 0.71385 0.31135 0.11227 0.0
O1875 O 0.70416 0.31125 0.14081 0.0
C1876 C 0.2118 0.97299 0.86506 0.0
O1877 O 0.21042 0.96912 0.85543 0.0
Cd1878 Cd 0.19751 0.95482 0.85092 0.0
O1879 O 0.20595 0.96959 0.8731 0.0
Cd1880 Cd 0.19049 0.95648 0.87595 0.0
C1881 C 0.17423 0.96917 0.85731 0.0
O1882 O 0.19866 0.94154 0.86541 0.0
O1883 O 0.1817 0.93907 0.86989 0.0
O1884 O 0.19826 0.95396 0.89424 0.0
C1885 C 0.1904 0.93517 0.86564 0.0
O1886 O 0.17959 0.96391 0.84999 0.0
C1887 C 0.1891 0.95404 0.89928 0.0
O1888 O 0.1771 0.96885 0.8674 0.0
O1889 O 0.18052 0.95557 0.89349 0.0
C1890 C 0.52061 0.46349 0.61262 0.0
O1891 O 0.52549 0.46192 0.60349 0.0
Cd1892 Cd 0.53975 0.44889 0.59988 0.0
O1893 O 0.52316 0.45779 0.62109 0.0
Cd1894 Cd 0.53655 0.44256 0.62492 0.0
C1895 C 0.52491 0.42582 0.60607 0.0
O1896 O 0.552 0.4506 0.61508 0.0
O1897 O 0.55408 0.43354 0.61932 0.0
O1898 O 0.53886 0.44988 0.64347 0.0
C1899 C 0.55827 0.44228 0.6154 0.0
O1900 O 0.53054 0.43097 0.59886 0.0
C1901 C 0.53826 0.44058 0.64827 0.0
O1902 O 0.52478 0.42897 0.61607 0.0
O1903 O 0.53645 0.43223 0.64222 0.0
C1904 C 0.37086 0.52521 0.46763 0.0
O1905 O 0.37966 0.52428 0.46206 0.0
Cd1906 Cd 0.38757 0.53861 0.45147 0.0
O1907 O 0.36505 0.53398 0.4671 0.0
Cd1908 Cd 0.36502 0.55153 0.45586 0.0
C1909 C 0.38674 0.55997 0.47068 0.0
O1910 O 0.37307 0.54356 0.43938 0.0
O1911 O 0.37292 0.56124 0.43954 0.0
O1912 O 0.34571 0.54707 0.45364 0.0
C1913 C 0.375 0.55244 0.43429 0.0
O1914 O 0.39202 0.55281 0.46509 0.0
C1915 C 0.34221 0.55693 0.4538 0.0
O1916 O 0.37641 0.56131 0.46932 0.0
O1917 O 0.34932 0.56445 0.45542 0.0
C1918 C 0.87167 0.71732 0.27386 0.0
O1919 O 0.88049 0.71796 0.27945 0.0
Cd1920 Cd 0.88782 0.70336 0.29014 0.0
O1921 O 0.86554 0.70878 0.27442 0.0
Cd1922 Cd 0.86473 0.6913 0.28564 0.0
C1923 C 0.88621 0.68197 0.271 0.0
O1924 O 0.87316 0.69878 0.30217 0.0
O1925 O 0.87218 0.68112 0.30183 0.0
O1926 O 0.84576 0.69682 0.28817 0.0
C1927 C 0.87471 0.68975 0.30715 0.0
O1928 O 0.89173 0.68892 0.27663 0.0
C1929 C 0.84165 0.68721 0.28775 0.0
O1930 O 0.87582 0.68107 0.27224 0.0
O1931 O 0.84826 0.67931 0.28583 0.0
C1932 C 0.77705 0.12253 0.02312 0.0
O1933 O 0.77465 0.13027 0.02973 0.0
Cd1934 Cd 0.78808 0.1378 0.04188 0.0
O1935 O 0.78615 0.11732 0.02395 0.0
Cd1936 Cd 0.80197 0.11598 0.03719 0.0
C1937 C 0.81088 0.13854 0.02429 0.0
O1938 O 0.79327 0.12317 0.05374 0.0
O1939 O 0.81098 0.12341 0.05385 0.0
O1940 O 0.79725 0.09668 0.03878 0.0
C1941 C 0.80206 0.12514 0.05901 0.0
O1942 O 0.80317 0.14336 0.02957 0.0
C1943 C 0.80706 0.09307 0.03852 0.0
O1944 O 0.8124 0.12819 0.02523 0.0
O1945 O 0.81468 0.10014 0.0371 0.0
C1946 C 0.36172 0.02794 0.76999 0.0
O1947 O 0.35238 0.02981 0.77432 0.0
Cd1948 Cd 0.3484 0.04358 0.78779 0.0
O1949 O 0.37012 0.03367 0.77271 0.0
Cd1950 Cd 0.37362 0.04931 0.78566 0.0
C1951 C 0.35589 0.06605 0.77255 0.0
O1952 O 0.36288 0.04198 0.80089 0.0
O1953 O 0.36735 0.05901 0.80262 0.0
O1954 O 0.39191 0.04168 0.78888 0.0
C1955 C 0.36305 0.0505 0.80689 0.0
O1956 O 0.34832 0.06123 0.77799 0.0
C1957 C 0.3969 0.05087 0.78814 0.0
O1958 O 0.3658 0.06268 0.77295 0.0
O1959 O 0.39107 0.05928 0.78595 0.0
C1960 C 0.95891 0.61316 0.02202 0.0
O1961 O 0.95673 0.60413 0.02686 0.0
Cd1962 Cd 0.9438 0.60158 0.04142 0.0
O1963 O 0.95399 0.62205 0.02476 0.0
Cd1964 Cd 0.93935 0.62702 0.03839 0.0
C1965 C 0.92116 0.60956 0.02683 0.0
O1966 O 0.94698 0.61659 0.05364 0.0
O1967 O 0.93028 0.62186 0.05606 0.0
O1968 O 0.94799 0.64502 0.04073 0.0
C1969 C 0.93885 0.61744 0.06009 0.0
O1970 O 0.92577 0.60198 0.03245 0.0
C1971 C 0.93905 0.65045 0.04032 0.0
O1972 O 0.92506 0.61929 0.02666 0.0
O1973 O 0.93029 0.64499 0.03855 0.0
C1974 C 0.36367 0.2187 0.46616 0.0
O1975 O 0.35498 0.21871 0.46034 0.0
Cd1976 Cd 0.34945 0.20341 0.44956 0.0
O1977 O 0.37046 0.21068 0.46564 0.0
Cd1978 Cd 0.37311 0.19341 0.45454 0.0
C1979 C 0.35254 0.1827 0.46923 0.0
O1980 O 0.36471 0.20016 0.43774 0.0
O1981 O 0.36669 0.18257 0.43831 0.0
O1982 O 0.3916 0.20046 0.45263 0.0
C1983 C 0.36394 0.19102 0.43279 0.0
O1984 O 0.34651 0.1891 0.46346 0.0
C1985 C 0.39643 0.19122 0.45338 0.0
O1986 O 0.36295 0.18251 0.46795 0.0
O1987 O 0.39039 0.18282 0.45509 0.0
C1988 C 0.78067 0.1122 0.22302 0.0
O1989 O 0.78262 0.10303 0.21836 0.0
Cd1990 Cd 0.79557 0.09996 0.20387 0.0
O1991 O 0.7858 0.12091 0.22008 0.0
Cd1992 Cd 0.80042 0.12537 0.20629 0.0
C1993 C 0.81846 0.10797 0.21816 0.0
O1994 O 0.79291 0.11462 0.19115 0.0
O1995 O 0.8097 0.1198 0.18892 0.0
O1996 O 0.79125 0.14295 0.20326 0.0
C1997 C 0.80118 0.11533 0.18484 0.0
O1998 O 0.81361 0.10038 0.21275 0.0
C1999 C 0.79997 0.14874 0.20351 0.0
O2000 O 0.81477 0.1178 0.21819 0.0
O2001 O 0.80892 0.14369 0.20555 0.0
C2002 C 0.4672 0.62539 0.71752 0.0
O2003 O 0.46743 0.63399 0.71155 0.0
Cd2004 Cd 0.45334 0.63971 0.69931 0.0
O2005 O 0.45925 0.61851 0.71675 0.0
Cd2006 Cd 0.44242 0.61617 0.70472 0.0
C2007 C 0.43103 0.63806 0.71725 0.0
O2008 O 0.4502 0.62409 0.68809 0.0
O2009 O 0.43262 0.62244 0.68778 0.0
O2010 O 0.44848 0.59717 0.70311 0.0
C2011 C 0.44135 0.62508 0.68268 0.0
O2012 O 0.43781 0.64362 0.71146 0.0
C2013 C 0.43896 0.59288 0.70362 0.0
O2014 O 0.43102 0.62755 0.71693 0.0
O2015 O 0.43092 0.59941 0.70518 0.0
C2016 C 0.52208 0.61231 0.46279 0.0
O2017 O 0.5266 0.60314 0.46054 0.0
Cd2018 Cd 0.53923 0.59999 0.44583 0.0
O2019 O 0.5242 0.62088 0.45706 0.0
Cd2020 Cd 0.53623 0.62534 0.44095 0.0
C2021 C 0.52252 0.60791 0.42449 0.0
O2022 O 0.55201 0.61479 0.44719 0.0
O2023 O 0.55283 0.61972 0.43021 0.0
O2024 O 0.53925 0.64312 0.44969 0.0
C2025 C 0.5576 0.61536 0.43843 0.0
O2026 O 0.52832 0.60033 0.42887 0.0
C2027 C 0.53845 0.64875 0.4409 0.0
O2028 O 0.52295 0.61778 0.42801 0.0
O2029 O 0.53626 0.64349 0.43211 0.0
C2030 C 0.37585 0.77328 0.71301 0.0
O2031 O 0.38512 0.77785 0.71137 0.0
Cd2032 Cd 0.38933 0.79041 0.69688 0.0
O2033 O 0.3677 0.77528 0.70667 0.0
Cd2034 Cd 0.36442 0.78731 0.6902 0.0
C2035 C 0.38304 0.7737 0.67498 0.0
O2036 O 0.37443 0.80311 0.69729 0.0
O2037 O 0.37085 0.80404 0.68001 0.0
O2038 O 0.34591 0.78996 0.69742 0.0
C2039 C 0.3746 0.80876 0.68855 0.0
O2040 O 0.39027 0.77952 0.6799 0.0
C2041 C 0.3411 0.78935 0.68814 0.0
O2042 O 0.37296 0.77409 0.67782 0.0
O2043 O 0.34713 0.78747 0.6798 0.0
C2044 C 0.22386 0.62638 0.96077 0.0
O2045 O 0.22114 0.63627 0.95867 0.0
Cd2046 Cd 0.20622 0.64144 0.94672 0.0
O2047 O 0.21925 0.61833 0.95583 0.0
Cd2048 Cd 0.2058 0.61654 0.94052 0.0
C2049 C 0.21877 0.63395 0.92313 0.0
O2050 O 0.19188 0.62813 0.94919 0.0
O2051 O 0.18831 0.62338 0.93249 0.0
O2052 O 0.20257 0.59823 0.94803 0.0
C2053 C 0.18508 0.62802 0.94127 0.0
O2054 O 0.21384 0.6417 0.9282 0.0
C2055 C 0.20219 0.59339 0.93875 0.0
O2056 O 0.21833 0.62407 0.92664 0.0
O2057 O 0.20371 0.59932 0.93026 0.0
C2058 C 0.36536 0.46526 0.21733 0.0
O2059 O 0.35693 0.45906 0.21752 0.0
Cd2060 Cd 0.3516 0.44669 0.20335 0.0
O2061 O 0.37224 0.46473 0.20939 0.0
Cd2062 Cd 0.37492 0.45315 0.19242 0.0
C2063 C 0.35246 0.46501 0.18137 0.0
O2064 O 0.36764 0.43611 0.19991 0.0
O2065 O 0.36938 0.4362 0.18233 0.0
O2066 O 0.39406 0.45215 0.198 0.0
C2067 C 0.36688 0.43085 0.19095 0.0
O2068 O 0.34704 0.45891 0.188 0.0
C2069 C 0.39808 0.45324 0.1884 0.0
O2070 O 0.36296 0.46501 0.18142 0.0
O2071 O 0.39129 0.45482 0.18058 0.0
C2072 C 0.5248 0.62479 0.77647 0.0
O2073 O 0.53075 0.6334 0.77631 0.0
Cd2074 Cd 0.54268 0.63914 0.79068 0.0
O2075 O 0.52548 0.61795 0.78446 0.0
Cd2076 Cd 0.53726 0.6158 0.80148 0.0
C2077 C 0.5242 0.63748 0.81248 0.0
O2078 O 0.55412 0.62371 0.79409 0.0
O2079 O 0.55381 0.62231 0.81171 0.0
O2080 O 0.5392 0.59676 0.79575 0.0
C2081 C 0.55923 0.62475 0.80312 0.0
O2082 O 0.53013 0.6431 0.80587 0.0
C2083 C 0.5385 0.5926 0.80532 0.0
O2084 O 0.52465 0.62698 0.81251 0.0
O2085 O 0.53665 0.59923 0.81322 0.0
C2086 C 0.37454 0.77006 0.03228 0.0
O2087 O 0.38046 0.77855 0.03126 0.0
Cd2088 Cd 0.37459 0.78567 0.04956 0.0
O2089 O 0.36966 0.76889 0.04138 0.0
Cd2090 Cd 0.37574 0.78526 0.05403 0.0
C2091 C 0.35979 0.7722 0.06602 0.0
O2092 O 0.36778 0.8028 0.04542 0.0
O2093 O 0.36478 0.80058 0.06271 0.0
O2094 O 0.39477 0.78724 0.04673 0.0
C2095 C 0.36363 0.80657 0.0542 0.0
O2096 O 0.35736 0.77634 0.05675 0.0
C2097 C 0.39923 0.78822 0.05613 0.0
O2098 O 0.36943 0.77397 0.06958 0.0
O2099 O 0.39292 0.78759 0.06445 0.0
C2100 C 0.21763 0.61615 0.2719 0.0
O2101 O 0.21206 0.6073 0.27134 0.0
Cd2102 Cd 0.20065 0.60053 0.28573 0.0
O2103 O 0.21675 0.62255 0.28021 0.0
Cd2104 Cd 0.20531 0.62398 0.29733 0.0
C2105 C 0.21924 0.60231 0.30749 0.0
O2106 O 0.18887 0.61562 0.28968 0.0
O2107 O 0.1886 0.6175 0.30727 0.0
O2108 O 0.20358 0.6429 0.29135 0.0
C2109 C 0.18357 0.61457 0.29859 0.0
O2110 O 0.21363 0.59663 0.30066 0.0
C2111 C 0.20426 0.6472 0.30086 0.0
O2112 O 0.2182 0.61276 0.30795 0.0
O2113 O 0.20582 0.64067 0.30891 0.0
C2114 C 0.37081 0.46794 0.52541 0.0
O2115 O 0.37983 0.46269 0.5247 0.0
Cd2116 Cd 0.38754 0.45261 0.5395 0.0
O2117 O 0.36475 0.46707 0.53397 0.0
Cd2118 Cd 0.36442 0.45557 0.55132 0.0
C2119 C 0.38453 0.47185 0.56062 0.0
O2120 O 0.37376 0.43945 0.54394 0.0
O2121 O 0.37286 0.43988 0.56161 0.0
O2122 O 0.34565 0.45202 0.54567 0.0
C2123 C 0.37557 0.43461 0.553 0.0
O2124 O 0.39045 0.46669 0.55365 0.0
C2125 C 0.34143 0.45247 0.55522 0.0
O2126 O 0.37432 0.46969 0.56166 0.0
O2127 O 0.3479 0.45472 0.56315 0.0
C2128 C 0.96696 0.52557 0.11901 0.0
O2129 O 0.96757 0.53151 0.11041 0.0
Cd2130 Cd 0.95323 0.54286 0.1036 0.0
O2131 O 0.9585 0.52601 0.12526 0.0
Cd2132 Cd 0.94114 0.53736 0.12643 0.0
C2133 C 0.93179 0.52385 0.10418 0.0
O2134 O 0.94873 0.55424 0.11881 0.0
O2135 O 0.93108 0.55388 0.11954 0.0
O2136 O 0.94606 0.53915 0.14569 0.0
C2137 C 0.93974 0.55931 0.11739 0.0
O2138 O 0.93864 0.52978 0.09887 0.0
C2139 C 0.93633 0.53848 0.14944 0.0
O2140 O 0.93105 0.52452 0.11463 0.0
O2141 O 0.92869 0.53674 0.14249 0.0
C2142 C 0.47265 0.21325 0.36502 0.0
O2143 O 0.46929 0.21156 0.35524 0.0
Cd2144 Cd 0.45462 0.19915 0.3504 0.0
O2145 O 0.46849 0.20795 0.37309 0.0
Cd2146 Cd 0.45459 0.19309 0.37548 0.0
C2147 C 0.46725 0.17544 0.35826 0.0
O2148 O 0.44039 0.20132 0.36385 0.0
O2149 O 0.43739 0.18452 0.3687 0.0
O2150 O 0.45081 0.20078 0.39361 0.0
C2151 C 0.43387 0.19317 0.364 0.0
O2152 O 0.46258 0.18067 0.35045 0.0
C2153 C 0.45104 0.19159 0.39864 0.0
O2154 O 0.4667 0.17888 0.36815 0.0
O2155 O 0.45317 0.1831 0.39289 0.0
C2156 C 0.77618 0.72359 0.61378 0.0
O2157 O 0.77759 0.72 0.60404 0.0
Cd2158 Cd 0.79049 0.70572 0.5993 0.0
O2159 O 0.78191 0.71986 0.62174 0.0
Cd2160 Cd 0.79708 0.70648 0.62444 0.0
C2161 C 0.81388 0.71947 0.60661 0.0
O2162 O 0.7893 0.6918 0.61318 0.0
O2163 O 0.80618 0.6894 0.61807 0.0
O2164 O 0.78881 0.70296 0.64229 0.0
C2165 C 0.79766 0.68555 0.61341 0.0
O2166 O 0.80855 0.71455 0.59902 0.0
C2167 C 0.79775 0.70347 0.64771 0.0
O2168 O 0.81081 0.71892 0.61662 0.0
O2169 O 0.80645 0.70562 0.6423 0.0
C2170 C 0.26786 0.03242 0.87713 0.0
O2171 O 0.27674 0.03091 0.88231 0.0
Cd2172 Cd 0.28396 0.04921 0.87645 0.0
O2173 O 0.26659 0.04177 0.87273 0.0
Cd2174 Cd 0.28377 0.05386 0.87771 0.0
C2175 C 0.26983 0.06621 0.86278 0.0
O2176 O 0.3004 0.04481 0.86834 0.0
O2177 O 0.29854 0.06223 0.86578 0.0
O2178 O 0.28679 0.04623 0.8965 0.0
C2179 C 0.30415 0.05355 0.86407 0.0
O2180 O 0.27363 0.05688 0.86003 0.0
C2181 C 0.28848 0.05553 0.90099 0.0
O2182 O 0.27237 0.06972 0.87227 0.0
O2183 O 0.28775 0.06396 0.89481 0.0
C2184 C 0.96726 0.72019 0.12776 0.0
O2185 O 0.9679 0.71492 0.13679 0.0
Cd2186 Cd 0.95487 0.70112 0.14226 0.0
O2187 O 0.95963 0.71809 0.12085 0.0
Cd2188 Cd 0.94362 0.70554 0.11857 0.0
C2189 C 0.93154 0.71751 0.14052 0.0
O2190 O 0.95185 0.68922 0.12692 0.0
O2191 O 0.93435 0.68841 0.12405 0.0
O2192 O 0.95039 0.70405 0.09992 0.0
C2193 C 0.94304 0.6836 0.12728 0.0
O2194 O 0.93853 0.71206 0.14617 0.0
C2195 C 0.94105 0.70468 0.09525 0.0
O2196 O 0.9317 0.71723 0.13001 0.0
O2197 O 0.93274 0.70616 0.10146 0.0
C2198 C 0.2741 0.21704 0.37269 0.0
O2199 O 0.28009 0.21742 0.38126 0.0
Cd2200 Cd 0.29136 0.20283 0.38765 0.0
O2201 O 0.27449 0.20872 0.36623 0.0
Cd2202 Cd 0.28583 0.19134 0.36459 0.0
C2203 C 0.2723 0.1814 0.38646 0.0
O2204 O 0.30276 0.19853 0.37243 0.0
O2205 O 0.30203 0.18088 0.37156 0.0
O2206 O 0.28791 0.19671 0.34549 0.0
C2207 C 0.30762 0.18942 0.37383 0.0
O2208 O 0.27825 0.18815 0.39191 0.0
C2209 C 0.28719 0.18706 0.34149 0.0
O2210 O 0.27293 0.1809 0.37599 0.0
O2211 O 0.28527 0.17927 0.34824 0.0
C2212 C 0.77619 0.52348 0.62835 0.0
O2213 O 0.77622 0.52971 0.63676 0.0
Cd2214 Cd 0.78941 0.54355 0.64089 0.0
O2215 O 0.78339 0.52469 0.62076 0.0
Cd2216 Cd 0.79926 0.53756 0.61707 0.0
C2217 C 0.81236 0.52673 0.63897 0.0
O2218 O 0.79106 0.55417 0.6246 0.0
O2219 O 0.80854 0.5551 0.62222 0.0
O2220 O 0.79285 0.5384 0.59813 0.0
C2221 C 0.79971 0.55998 0.62494 0.0
O2222 O 0.80586 0.53268 0.64467 0.0
C2223 C 0.80235 0.53799 0.59376 0.0
O2224 O 0.81154 0.52637 0.6285 0.0
O2225 O 0.81048 0.53673 0.60025 0.0
C2226 C 0.47354 0.0329 0.86564 0.0
O2227 O 0.46485 0.03156 0.8601 0.0
Cd2228 Cd 0.45772 0.04996 0.86556 0.0
O2229 O 0.47478 0.0422 0.87016 0.0
Cd2230 Cd 0.45807 0.05447 0.86419 0.0
C2231 C 0.47117 0.06689 0.87984 0.0
O2232 O 0.44082 0.04588 0.8728 0.0
O2233 O 0.4428 0.06333 0.87504 0.0
O2234 O 0.4556 0.04624 0.84563 0.0
C2235 C 0.43696 0.05478 0.87661 0.0
O2236 O 0.46719 0.05759 0.88245 0.0
C2237 C 0.45434 0.05536 0.84068 0.0
O2238 O 0.46928 0.07029 0.87016 0.0
O2239 O 0.45517 0.06404 0.84649 0.0
C2240 C 0.61377 0.96168 0.02215 0.0
O2241 O 0.60464 0.95959 0.02682 0.0
Cd2242 Cd 0.60145 0.94563 0.0402 0.0
O2243 O 0.62234 0.956 0.0244 0.0
Cd2244 Cd 0.62643 0.94008 0.03695 0.0
C2245 C 0.60828 0.92352 0.02418 0.0
O2246 O 0.61656 0.94765 0.05252 0.0
O2247 O 0.62055 0.93051 0.05424 0.0
O2248 O 0.64484 0.94769 0.0394 0.0
C2249 C 0.61687 0.93924 0.05865 0.0
O2250 O 0.60093 0.92818 0.03005 0.0
C2251 C 0.64978 0.93846 0.039 0.0
O2252 O 0.61819 0.92692 0.02428 0.0
O2253 O 0.64388 0.93001 0.03719 0.0
C2254 C 0.11279 0.77609 0.22024 0.0
O2255 O 0.10366 0.77737 0.21529 0.0
Cd2256 Cd 0.09957 0.79136 0.20206 0.0
O2257 O 0.12089 0.7825 0.21824 0.0
Cd2258 Cd 0.1244 0.79857 0.20586 0.0
C2259 C 0.10493 0.81384 0.21832 0.0
O2260 O 0.1148 0.79143 0.18978 0.0
O2261 O 0.11871 0.80866 0.18897 0.0
O2262 O 0.14289 0.79124 0.20355 0.0
C2263 C 0.1148 0.80022 0.18418 0.0
O2264 O 0.098 0.80858 0.21243 0.0
C2265 C 0.14777 0.80047 0.20441 0.0
O2266 O 0.11509 0.81123 0.21837 0.0
O2267 O 0.14179 0.80884 0.20632 0.0
C2268 C 0.21813 0.3636 0.46731 0.0
O2269 O 0.21815 0.35498 0.46137 0.0
Cd2270 Cd 0.20336 0.3498 0.4497 0.0
O2271 O 0.21025 0.37055 0.46664 0.0
Cd2272 Cd 0.19329 0.37336 0.45518 0.0
C2273 C 0.1818 0.35205 0.46842 0.0
O2274 O 0.20037 0.36541 0.43826 0.0
O2275 O 0.18282 0.36753 0.43856 0.0
O2276 O 0.2002 0.39195 0.45342 0.0
C2277 C 0.19133 0.36487 0.43312 0.0
O2278 O 0.18829 0.34624 0.46255 0.0
C2279 C 0.19095 0.39672 0.45429 0.0
O2280 O 0.18193 0.36254 0.4678 0.0
O2281 O 0.18263 0.39061 0.45612 0.0
C2282 C 0.62351 0.46759 0.71729 0.0
O2283 O 0.63244 0.46788 0.71185 0.0
Cd2284 Cd 0.6391 0.45284 0.70137 0.0
O2285 O 0.61701 0.45934 0.71656 0.0
Cd2286 Cd 0.61533 0.44194 0.70542 0.0
C2287 C 0.63582 0.43189 0.72082 0.0
O2288 O 0.62432 0.44912 0.68915 0.0
O2289 O 0.62235 0.43153 0.68909 0.0
O2290 O 0.59678 0.4487 0.7031 0.0
C2291 C 0.62543 0.44013 0.684 0.0
O2292 O 0.64182 0.43857 0.71536 0.0
C2293 C 0.59207 0.43937 0.70356 0.0
O2294 O 0.62549 0.43128 0.71911 0.0
O2295 O 0.59819 0.43103 0.70525 0.0
C2296 C 0.02534 0.87637 0.46666 0.0
O2297 O 0.02526 0.8852 0.46104 0.0
Cd2298 Cd 0.0405 0.89133 0.45056 0.0
O2299 O 0.03351 0.86976 0.46616 0.0
Cd2300 Cd 0.05105 0.86778 0.45534 0.0
C2301 C 0.06108 0.88854 0.47038 0.0
O2302 O 0.04413 0.8762 0.43868 0.0
O2303 O 0.06173 0.87459 0.43912 0.0
O2304 O 0.0444 0.84913 0.45329 0.0
C2305 C 0.0532 0.87722 0.43368 0.0
O2306 O 0.05459 0.89447 0.46463 0.0
C2307 C 0.05374 0.84448 0.45384 0.0
O2308 O 0.06155 0.87814 0.46898 0.0
O2309 O 0.06202 0.85068 0.45554 0.0
C2310 C 0.62147 0.27648 0.02468 0.0
O2311 O 0.63013 0.27587 0.03053 0.0
Cd2312 Cd 0.63699 0.29031 0.04172 0.0
O2313 O 0.61527 0.28498 0.02512 0.0
Cd2314 Cd 0.61416 0.30245 0.03626 0.0
C2315 C 0.63638 0.3118 0.02269 0.0
O2316 O 0.62175 0.29476 0.05308 0.0
O2317 O 0.62088 0.31243 0.05287 0.0
O2318 O 0.59501 0.29718 0.03775 0.0
C2319 C 0.62307 0.30373 0.05822 0.0
O2320 O 0.64165 0.30487 0.02858 0.0
C2321 C 0.59109 0.30687 0.0374 0.0
O2322 O 0.62594 0.31263 0.02342 0.0
O2323 O 0.59792 0.31469 0.03596 0.0
C2324 C 0.21728 0.37273 0.27458 0.0
O2325 O 0.21812 0.38145 0.28031 0.0
Cd2326 Cd 0.20419 0.38891 0.29174 0.0
O2327 O 0.20871 0.36663 0.27521 0.0
Cd2328 Cd 0.19143 0.36588 0.28671 0.0
C2329 C 0.18231 0.38828 0.27313 0.0
O2330 O 0.19961 0.37375 0.30308 0.0
O2331 O 0.18199 0.37294 0.30357 0.0
O2332 O 0.19608 0.34652 0.28823 0.0
C2333 C 0.19087 0.37538 0.30849 0.0
O2334 O 0.18941 0.39354 0.27883 0.0
C2335 C 0.18626 0.34293 0.28791 0.0
O2336 O 0.18137 0.37784 0.27398 0.0
O2337 O 0.17868 0.35004 0.28657 0.0
C2338 C 0.52379 0.86943 0.7738 0.0
O2339 O 0.52291 0.86071 0.77953 0.0
Cd2340 Cd 0.53736 0.85325 0.79029 0.0
O2341 O 0.53245 0.87538 0.77432 0.0
Cd2342 Cd 0.54985 0.87612 0.78557 0.0
C2343 C 0.5586 0.85444 0.77094 0.0
O2344 O 0.54218 0.86801 0.80211 0.0
O2345 O 0.55984 0.86867 0.80191 0.0
O2346 O 0.54435 0.89513 0.78755 0.0
C2347 C 0.55113 0.86634 0.80718 0.0
O2348 O 0.55157 0.84907 0.77662 0.0
C2349 C 0.55397 0.8992 0.7873 0.0
O2350 O 0.55978 0.86481 0.77221 0.0
O2351 O 0.56189 0.89252 0.78577 0.0
C2352 C 0.46824 0.37675 0.52862 0.0
O2353 O 0.46365 0.38603 0.53021 0.0
Cd2354 Cd 0.45132 0.39042 0.54478 0.0
O2355 O 0.46634 0.36865 0.53507 0.0
Cd2356 Cd 0.45436 0.36556 0.55164 0.0
C2357 C 0.46827 0.38422 0.56651 0.0
O2358 O 0.43856 0.3756 0.54458 0.0
O2359 O 0.43778 0.37225 0.56191 0.0
O2360 O 0.45157 0.34706 0.54441 0.0
C2361 C 0.433 0.37593 0.55337 0.0
O2362 O 0.4624 0.39141 0.5616 0.0
C2363 C 0.45208 0.34222 0.55368 0.0
O2364 O 0.46783 0.37409 0.56379 0.0
O2365 O 0.45396 0.34823 0.56205 0.0
C2366 C 0.61598 0.21844 0.27193 0.0
O2367 O 0.60709 0.21292 0.27192 0.0
Cd2368 Cd 0.60097 0.20173 0.28673 0.0
O2369 O 0.62279 0.21766 0.27991 0.0
Cd2370 Cd 0.62498 0.20646 0.29713 0.0
C2371 C 0.60388 0.22059 0.30814 0.0
O2372 O 0.61621 0.19 0.29013 0.0
O2373 O 0.61866 0.18996 0.30764 0.0
O2374 O 0.6436 0.20424 0.29046 0.0
C2375 C 0.61543 0.18482 0.29914 0.0
O2376 O 0.59784 0.21488 0.30171 0.0
C2377 C 0.64826 0.20503 0.29979 0.0
O2378 O 0.61433 0.21956 0.30804 0.0
O2379 O 0.64209 0.20696 0.30803 0.0
C2380 C 0.77445 0.36905 0.02548 0.0
O2381 O 0.78 0.36019 0.02493 0.0
Cd2382 Cd 0.79031 0.35284 0.03977 0.0
O2383 O 0.77493 0.37518 0.03403 0.0
Cd2384 Cd 0.78591 0.37579 0.05167 0.0
C2385 C 0.77069 0.35459 0.06058 0.0
O2386 O 0.80256 0.36735 0.04448 0.0
O2387 O 0.8018 0.36807 0.06213 0.0
O2388 O 0.78862 0.39493 0.04673 0.0
C2389 C 0.80734 0.36572 0.0536 0.0
O2390 O 0.77634 0.34893 0.05378 0.0
C2391 C 0.78788 0.39875 0.05644 0.0
O2392 O 0.77217 0.36494 0.06153 0.0
O2393 O 0.78576 0.3919 0.06407 0.0
C2394 C 0.62363 0.52571 0.77461 0.0
O2395 O 0.63235 0.53146 0.77412 0.0
Cd2396 Cd 0.63913 0.54236 0.78879 0.0
O2397 O 0.61738 0.52611 0.78307 0.0
Cd2398 Cd 0.61623 0.53709 0.80064 0.0
C2399 C 0.63814 0.52302 0.80997 0.0
O2400 O 0.62387 0.55386 0.79294 0.0
O2401 O 0.62303 0.55375 0.8106 0.0
O2402 O 0.59706 0.53855 0.79534 0.0
C2403 C 0.62515 0.55908 0.80186 0.0
O2404 O 0.64357 0.52888 0.80314 0.0
C2405 C 0.59315 0.53819 0.80503 0.0
O2406 O 0.62772 0.52398 0.81076 0.0
O2407 O 0.59998 0.53681 0.81285 0.0
C2408 C 0.46515 0.36737 0.21617 0.0
O2409 O 0.45906 0.35886 0.21641 0.0
Cd2410 Cd 0.44739 0.35313 0.20185 0.0
O2411 O 0.46465 0.37411 0.20809 0.0
Cd2412 Cd 0.45318 0.37653 0.19096 0.0
C2413 C 0.46642 0.35472 0.18047 0.0
O2414 O 0.43623 0.36872 0.19814 0.0
O2415 O 0.43669 0.37018 0.18053 0.0
O2416 O 0.4518 0.39554 0.1969 0.0
C2417 C 0.43122 0.36767 0.18907 0.0
O2418 O 0.46043 0.34913 0.18704 0.0
C2419 C 0.45254 0.39978 0.18737 0.0
O2420 O 0.46587 0.36521 0.18025 0.0
O2421 O 0.45405 0.39318 0.17937 0.0
C2422 C 0.62205 0.21766 0.96817 0.0
O2423 O 0.63087 0.21209 0.96897 0.0
Cd2424 Cd 0.63854 0.20116 0.95474 0.0
O2425 O 0.61601 0.21702 0.95957 0.0
Cd2426 Cd 0.61538 0.20575 0.94216 0.0
C2427 C 0.63724 0.22021 0.93323 0.0
O2428 O 0.62373 0.18942 0.94998 0.0
O2429 O 0.62269 0.18922 0.93234 0.0
O2430 O 0.59625 0.20356 0.94717 0.0
C2431 C 0.62535 0.1842 0.94112 0.0
O2432 O 0.64268 0.21458 0.94025 0.0
C2433 C 0.59241 0.20406 0.93746 0.0
O2434 O 0.62685 0.219 0.93223 0.0
O2435 O 0.59928 0.2058 0.92974 0.0
C2436 C 0.76848 0.37734 0.71251 0.0
O2437 O 0.77304 0.38658 0.7106 0.0
Cd2438 Cd 0.78721 0.39032 0.6975 0.0
O2439 O 0.77128 0.36877 0.70708 0.0
Cd2440 Cd 0.78469 0.36509 0.69182 0.0
C2441 C 0.77259 0.38317 0.67462 0.0
O2442 O 0.79995 0.3756 0.69953 0.0
O2443 O 0.80201 0.37098 0.68259 0.0
O2444 O 0.78759 0.34668 0.6994 0.0
C2445 C 0.80616 0.37524 0.69117 0.0
O2446 O 0.77813 0.39061 0.67954 0.0
C2447 C 0.7872 0.34176 0.69016 0.0
O2448 O 0.77257 0.37326 0.67808 0.0
O2449 O 0.78519 0.34767 0.68175 0.0
C2450 C 0.61944 0.52532 0.46383 0.0
O2451 O 0.61047 0.53068 0.4642 0.0
Cd2452 Cd 0.60317 0.54057 0.44916 0.0
O2453 O 0.62568 0.52584 0.45536 0.0
Cd2454 Cd 0.62638 0.53674 0.4376 0.0
C2455 C 0.60597 0.52064 0.42865 0.0
O2456 O 0.61761 0.55305 0.44493 0.0
O2457 O 0.61823 0.55266 0.42728 0.0
O2458 O 0.64538 0.53961 0.4429 0.0
C2459 C 0.61586 0.558 0.43594 0.0
O2460 O 0.6001 0.52612 0.43542 0.0
C2461 C 0.64936 0.5392 0.43324 0.0
O2462 O 0.61622 0.5226 0.42761 0.0
O2463 O 0.64265 0.53723 0.42544 0.0
C2464 C 0.03348 0.47328 0.86432 0.0
O2465 O 0.03172 0.46428 0.8594 0.0
Cd2466 Cd 0.05002 0.45698 0.86494 0.0
O2467 O 0.04296 0.47456 0.8684 0.0
Cd2468 Cd 0.05486 0.45721 0.86367 0.0
C2469 C 0.06699 0.47096 0.87887 0.0
O2470 O 0.04577 0.44043 0.87289 0.0
O2471 O 0.0631 0.44251 0.87573 0.0
O2472 O 0.04754 0.45407 0.84483 0.0
C2473 C 0.05448 0.43678 0.87729 0.0
O2474 O 0.05763 0.46715 0.88145 0.0
C2475 C 0.05691 0.45244 0.84049 0.0
O2476 O 0.07064 0.46853 0.86941 0.0
O2477 O 0.06523 0.45332 0.84678 0.0
C2478 C 0.52352 0.77699 0.62649 0.0
O2479 O 0.52984 0.77686 0.63483 0.0
Cd2480 Cd 0.5441 0.78963 0.63888 0.0
O2481 O 0.52479 0.7842 0.61891 0.0
Cd2482 Cd 0.53792 0.79981 0.61511 0.0
C2483 C 0.52799 0.81315 0.63735 0.0
O2484 O 0.5544 0.7912 0.62242 0.0
O2485 O 0.55573 0.80866 0.61993 0.0
O2486 O 0.53853 0.7935 0.59615 0.0
C2487 C 0.56041 0.79972 0.62268 0.0
O2488 O 0.53384 0.80642 0.64291 0.0
C2489 C 0.53808 0.80303 0.59181 0.0
O2490 O 0.52736 0.81238 0.62689 0.0
O2491 O 0.53687 0.81114 0.59834 0.0
C2492 C 0.216 0.27509 0.37281 0.0
O2493 O 0.21658 0.28112 0.38135 0.0
Cd2494 Cd 0.20247 0.29301 0.38778 0.0
O2495 O 0.20766 0.27565 0.3664 0.0
Cd2496 Cd 0.19048 0.28724 0.3649 0.0
C2497 C 0.18058 0.27454 0.3874 0.0
O2498 O 0.19816 0.30416 0.37235 0.0
O2499 O 0.18052 0.30389 0.37148 0.0
O2500 O 0.19545 0.28884 0.34565 0.0
C2501 C 0.18918 0.30928 0.37368 0.0
O2502 O 0.18747 0.28048 0.39264 0.0
C2503 C 0.18572 0.28818 0.34188 0.0
O2504 O 0.18005 0.27487 0.37691 0.0
O2505 O 0.17807 0.28649 0.34884 0.0
C2506 C 0.71712 0.96896 0.12432 0.0
O2507 O 0.71134 0.96955 0.13302 0.0
Cd2508 Cd 0.70063 0.95468 0.13988 0.0
O2509 O 0.71667 0.96046 0.11814 0.0
Cd2510 Cd 0.70564 0.94302 0.11682 0.0
C2511 C 0.72 0.93354 0.13837 0.0
O2512 O 0.6888 0.95006 0.12501 0.0
O2513 O 0.68953 0.93241 0.12367 0.0
O2514 O 0.70358 0.94908 0.09799 0.0
C2515 C 0.68399 0.94088 0.12626 0.0
O2516 O 0.71421 0.94033 0.14392 0.0
C2517 C 0.70437 0.93962 0.09361 0.0
O2518 O 0.71893 0.93281 0.12795 0.0
O2519 O 0.70617 0.93153 0.10004 0.0
C2520 C 0.02638 0.27387 0.86906 0.0
O2521 O 0.02594 0.27976 0.86041 0.0
Cd2522 Cd 0.03951 0.29246 0.85435 0.0
O2523 O 0.0344 0.27482 0.87581 0.0
Cd2524 Cd 0.05109 0.287 0.87783 0.0
C2525 C 0.06245 0.27524 0.85546 0.0
O2526 O 0.04275 0.30343 0.87008 0.0
O2527 O 0.06028 0.30435 0.87184 0.0
O2528 O 0.04532 0.28813 0.8969 0.0
C2529 C 0.05141 0.30913 0.86909 0.0
O2530 O 0.05545 0.28097 0.85012 0.0
C2531 C 0.05492 0.28795 0.90103 0.0
O2532 O 0.06253 0.27526 0.86598 0.0
O2533 O 0.0629 0.28675 0.89436 0.0
C2534 C 0.72149 0.78382 0.6279 0.0
O2535 O 0.7128 0.78239 0.63342 0.0
Cd2536 Cd 0.70546 0.80067 0.62779 0.0
O2537 O 0.72265 0.79314 0.62342 0.0
Cd2538 Cd 0.70577 0.80536 0.62898 0.0
C2539 C 0.71886 0.81738 0.61305 0.0
O2540 O 0.68866 0.79625 0.6205 0.0
O2541 O 0.6906 0.81359 0.6175 0.0
O2542 O 0.70351 0.79795 0.64794 0.0
C2543 C 0.68483 0.80494 0.6162 0.0
O2544 O 0.71485 0.80803 0.6107 0.0
C2545 C 0.7019 0.80727 0.6524 0.0
O2546 O 0.717 0.82104 0.62264 0.0
O2547 O 0.70242 0.81566 0.64614 0.0
C2548 C 0.21234 0.47338 0.36632 0.0
O2549 O 0.21016 0.47068 0.35644 0.0
Cd2550 Cd 0.19771 0.45607 0.35141 0.0
O2551 O 0.20731 0.4689 0.37437 0.0
Cd2552 Cd 0.19179 0.45573 0.37635 0.0
C2553 C 0.17438 0.46901 0.35925 0.0
O2554 O 0.19973 0.44148 0.36454 0.0
O2555 O 0.18296 0.43868 0.36956 0.0
O2556 O 0.19969 0.45189 0.39437 0.0
C2557 C 0.1915 0.43506 0.36476 0.0
O2558 O 0.17936 0.46407 0.35145 0.0
C2559 C 0.19058 0.45184 0.3995 0.0
O2560 O 0.17796 0.46852 0.3691 0.0
O2561 O 0.18198 0.45385 0.39388 0.0
C2562 C 0.52486 0.96928 0.11561 0.0
O2563 O 0.5307 0.96925 0.10693 0.0
Cd2564 Cd 0.54228 0.95457 0.10127 0.0
O2565 O 0.52556 0.9614 0.12256 0.0
Cd2566 Cd 0.53701 0.94426 0.12478 0.0
C2567 C 0.5233 0.93342 0.10333 0.0
O2568 O 0.55399 0.95101 0.11658 0.0
O2569 O 0.55305 0.9334 0.11822 0.0
O2570 O 0.53943 0.94943 0.14395 0.0
C2571 C 0.55875 0.94177 0.11564 0.0
O2572 O 0.52928 0.93966 0.09736 0.0
C2573 C 0.53807 0.9398 0.14784 0.0
O2574 O 0.52405 0.93367 0.1138 0.0
O2575 O 0.53568 0.93223 0.141 0.0
C2576 C 0.37875 0.02554 0.96638 0.0
O2577 O 0.38724 0.02547 0.96027 0.0
Cd2578 Cd 0.3924 0.03998 0.94825 0.0
O2579 O 0.37176 0.03339 0.96577 0.0
Cd2580 Cd 0.36869 0.05035 0.95435 0.0
C2581 C 0.39049 0.06149 0.96716 0.0
O2582 O 0.37652 0.04333 0.93743 0.0
O2583 O 0.37452 0.06091 0.93779 0.0
O2584 O 0.34991 0.0439 0.95267 0.0
C2585 C 0.37728 0.05241 0.93236 0.0
O2586 O 0.39615 0.05504 0.9611 0.0
C2587 C 0.34541 0.05328 0.95387 0.0
O2588 O 0.38 0.06141 0.9668 0.0
O2589 O 0.35177 0.06138 0.95582 0.0
C2590 C 0.87824 0.21082 0.76777 0.0
O2591 O 0.88806 0.20821 0.77028 0.0
Cd2592 Cd 0.89256 0.19543 0.78481 0.0
O2593 O 0.87008 0.20608 0.77235 0.0
Cd2594 Cd 0.8675 0.19067 0.78542 0.0
C2595 C 0.88352 0.1725 0.77195 0.0
O2596 O 0.87969 0.19815 0.79952 0.0
O2597 O 0.87394 0.18162 0.80253 0.0
O2598 O 0.85004 0.19952 0.78944 0.0
C2599 C 0.8791 0.19001 0.80604 0.0
O2600 O 0.89161 0.17708 0.7768 0.0
C2601 C 0.84437 0.19073 0.78908 0.0
O2602 O 0.87387 0.17655 0.77257 0.0
O2603 O 0.84947 0.18186 0.78686 0.0
C2604 C 0.77373 0.62284 0.52323 0.0
O2605 O 0.77326 0.63188 0.5285 0.0
Cd2606 Cd 0.78778 0.63921 0.53918 0.0
O2607 O 0.78205 0.61646 0.52416 0.0
Cd2608 Cd 0.79934 0.61542 0.53567 0.0
C2609 C 0.80921 0.6361 0.52022 0.0
O2610 O 0.79156 0.62458 0.55149 0.0
O2611 O 0.80914 0.62309 0.55213 0.0
O2612 O 0.79331 0.59663 0.53862 0.0
C2613 C 0.80033 0.62608 0.55688 0.0
O2614 O 0.80228 0.642 0.52548 0.0
C2615 C 0.80281 0.59228 0.53835 0.0
O2616 O 0.81002 0.62578 0.52205 0.0
O2617 O 0.81088 0.59867 0.53638 0.0
C2618 C 0.36463 0.52407 0.27518 0.0
O2619 O 0.35616 0.52426 0.28132 0.0
Cd2620 Cd 0.35151 0.53871 0.29368 0.0
O2621 O 0.37185 0.53172 0.27576 0.0
Cd2622 Cd 0.37535 0.54853 0.2873 0.0
C2623 C 0.35352 0.56085 0.27555 0.0
O2624 O 0.36767 0.54133 0.30426 0.0
O2625 O 0.37045 0.5588 0.30434 0.0
O2626 O 0.39388 0.54137 0.28848 0.0
C2627 C 0.36745 0.55028 0.3096 0.0
O2628 O 0.34786 0.5544 0.28162 0.0
C2629 C 0.39874 0.55058 0.28748 0.0
O2630 O 0.36401 0.56031 0.27545 0.0
O2631 O 0.39269 0.55897 0.2858 0.0
C2632 C 0.96039 0.11715 0.51587 0.0
O2633 O 0.95806 0.1072 0.51819 0.0
Cd2634 Cd 0.94606 0.10173 0.53297 0.0
O2635 O 0.95568 0.12511 0.52085 0.0
Cd2636 Cd 0.94053 0.12683 0.53448 0.0
C2637 C 0.92247 0.11038 0.52111 0.0
O2638 O 0.949 0.11439 0.54779 0.0
O2639 O 0.93257 0.1196 0.55189 0.0
O2640 O 0.94874 0.14466 0.53861 0.0
C2641 C 0.94123 0.11448 0.55474 0.0
O2642 O 0.92746 0.10232 0.52561 0.0
C2643 C 0.9397 0.14991 0.53894 0.0
O2644 O 0.9262 0.12016 0.52188 0.0
O2645 O 0.93099 0.14443 0.537 0.0
C2646 C 0.36386 0.71601 0.97082 0.0
O2647 O 0.35424 0.71482 0.96686 0.0
Cd2648 Cd 0.34931 0.70164 0.95299 0.0
O2649 O 0.37177 0.70985 0.96765 0.0
Cd2650 Cd 0.37427 0.69401 0.95491 0.0
C2651 C 0.3552 0.67891 0.96842 0.0
O2652 O 0.36381 0.70186 0.93975 0.0
O2653 O 0.36781 0.68467 0.93794 0.0
O2654 O 0.39268 0.7012 0.95171 0.0
C2655 C 0.36375 0.69334 0.93372 0.0
O2656 O 0.34799 0.68417 0.96289 0.0
C2657 C 0.39752 0.69192 0.95223 0.0
O2658 O 0.36536 0.68147 0.96793 0.0
O2659 O 0.39156 0.68358 0.95437 0.0
C2660 C 0.77804 0.61254 0.72065 0.0
O2661 O 0.78021 0.60342 0.71599 0.0
Cd2662 Cd 0.79377 0.60078 0.702 0.0
O2663 O 0.78331 0.62127 0.71807 0.0
Cd2664 Cd 0.79839 0.62607 0.70496 0.0
C2665 C 0.81638 0.60865 0.71679 0.0
O2666 O 0.79081 0.61575 0.68963 0.0
O2667 O 0.80747 0.6212 0.6872 0.0
O2668 O 0.78945 0.6439 0.70293 0.0
C2669 C 0.79891 0.61678 0.68316 0.0
O2670 O 0.81167 0.60105 0.71128 0.0
C2671 C 0.79829 0.64949 0.70326 0.0
O2672 O 0.8126 0.61843 0.71681 0.0
O2673 O 0.80717 0.64419 0.7048 0.0
C2674 C 0.46536 0.12638 0.21879 0.0
O2675 O 0.46745 0.1342 0.21216 0.0
Cd2676 Cd 0.45387 0.14065 0.19949 0.0
O2677 O 0.45664 0.1206 0.21778 0.0
Cd2678 Cd 0.44125 0.11802 0.20438 0.0
C2679 C 0.43063 0.14026 0.21653 0.0
O2680 O 0.44973 0.12552 0.18783 0.0
O2681 O 0.43205 0.12423 0.18738 0.0
O2682 O 0.44753 0.09918 0.20311 0.0
C2683 C 0.44089 0.12663 0.18237 0.0
O2684 O 0.43814 0.14543 0.21128 0.0
C2685 C 0.43806 0.09476 0.20363 0.0
O2686 O 0.4298 0.12981 0.21587 0.0
O2687 O 0.4299 0.1012 0.20501 0.0
H2688 H 0.08412 0.19803 0.41641 0.0
H2689 H 0.03737 0.16667 0.44886 0.0
H2690 H 0.07581 0.20327 0.45059 0.0
H2691 H 0.04716 0.15882 0.41559 0.0
H2692 H 0.04706 0.18423 0.44739 0.0
H2693 H 0.06674 0.18807 0.41393 0.0
C2694 C 0.07848 0.19739 0.4233 0.0
C2695 C 0.08152 0.20122 0.43379 0.0
C2696 C 0.04691 0.17879 0.44031 0.0
C2697 C 0.06174 0.18976 0.43105 0.0
C2698 C 0.04135 0.16877 0.44114 0.0
C2699 C 0.04172 0.16118 0.43243 0.0
C2700 C 0.05307 0.18113 0.43079 0.0
C2701 C 0.04682 0.16439 0.42256 0.0
C2702 C 0.06858 0.19165 0.4219 0.0
C2703 C 0.07389 0.20022 0.44242 0.0
N2704 N 0.05256 0.17402 0.42209 0.0
N2705 N 0.06445 0.19441 0.44091 0.0
H2706 H 0.79007 0.3266 0.70659 0.0
H2707 H 0.83104 0.29333 0.66912 0.0
H2708 H 0.79217 0.33045 0.67129 0.0
H2709 H 0.8278 0.28901 0.70428 0.0
H2710 H 0.81332 0.30295 0.66889 0.0
H2711 H 0.8 0.30918 0.7051 0.0
C2712 C 0.79242 0.32366 0.69849 0.0
C2713 C 0.79056 0.33011 0.68908 0.0
C2714 C 0.81635 0.29966 0.67662 0.0
C2715 C 0.80214 0.3103 0.68732 0.0
C2716 C 0.82646 0.29413 0.67674 0.0
C2717 C 0.83103 0.29067 0.68679 0.0
C2718 C 0.81089 0.30178 0.68662 0.0
C2719 C 0.8247 0.29181 0.69639 0.0
C2720 C 0.7981 0.3137 0.69763 0.0
C2721 C 0.79361 0.32581 0.67878 0.0
N2722 N 0.81506 0.29747 0.69611 0.0
N2723 N 0.7995 0.3163 0.67819 0.0
H2724 H 0.66245 0.03956 0.95902 0.0
H2725 H 0.69749 0.08005 0.92243 0.0
H2726 H 0.65943 0.04231 0.92368 0.0
H2727 H 0.69858 0.07851 0.95797 0.0
H2728 H 0.6881 0.0622 0.92217 0.0
H2729 H 0.68005 0.04921 0.95808 0.0
C2730 C 0.66562 0.04197 0.95103 0.0
C2731 C 0.65933 0.04046 0.94145 0.0
C2732 C 0.69062 0.06565 0.93001 0.0
C2733 C 0.67932 0.05172 0.94034 0.0
C2734 C 0.69598 0.07584 0.93017 0.0
C2735 C 0.69849 0.0809 0.94026 0.0
C2736 C 0.68772 0.06057 0.94002 0.0
C2737 C 0.69651 0.07502 0.95001 0.0
C2738 C 0.67567 0.0475 0.95049 0.0
C2739 C 0.66392 0.04353 0.93129 0.0
N2740 N 0.69105 0.06526 0.94966 0.0
N2741 N 0.67353 0.04928 0.93102 0.0
H2742 H 0.94603 0.90919 0.16805 0.0
H2743 H 0.91521 0.95432 0.20299 0.0
H2744 H 0.95033 0.91465 0.20293 0.0
H2745 H 0.90827 0.94734 0.16881 0.0
H2746 H 0.93262 0.94442 0.20129 0.0
H2747 H 0.93695 0.92716 0.16657 0.0
C2748 C 0.94536 0.91431 0.17533 0.0
C2749 C 0.94865 0.91031 0.18569 0.0
C2750 C 0.92743 0.94526 0.19408 0.0
C2751 C 0.93821 0.93078 0.18408 0.0
C2752 C 0.91749 0.95094 0.19504 0.0
C2753 C 0.91016 0.95136 0.18611 0.0
C2754 C 0.92992 0.93977 0.18419 0.0
C2755 C 0.91361 0.94703 0.17596 0.0
C2756 C 0.94014 0.92455 0.17449 0.0
C2757 C 0.94767 0.91731 0.19483 0.0
N2758 N 0.92312 0.94114 0.17534 0.0
N2759 N 0.94235 0.92711 0.19386 0.0
H2760 H 0.03838 0.08039 0.78349 0.0
H2761 H 0.07809 0.04313 0.81894 0.0
H2762 H 0.04207 0.08296 0.81878 0.0
H2763 H 0.07619 0.04289 0.78341 0.0
H2764 H 0.06069 0.05326 0.81958 0.0
H2765 H 0.04752 0.06248 0.78403 0.0
C2766 C 0.04088 0.07706 0.79139 0.0
C2767 C 0.03976 0.0833 0.80106 0.0
C2768 C 0.06394 0.05077 0.81165 0.0
C2769 C 0.05043 0.06292 0.80171 0.0
C2770 C 0.07387 0.04495 0.81128 0.0
C2771 C 0.07874 0.04245 0.80109 0.0
C2772 C 0.05892 0.05413 0.80176 0.0
C2773 C 0.07285 0.04489 0.79144 0.0
C2774 C 0.04612 0.06683 0.7917 0.0
C2775 C 0.04296 0.0785 0.8111 0.0
N2776 N 0.06336 0.05079 0.79201 0.0
N2777 N 0.04841 0.0687 0.81113 0.0
H2778 H 0.94817 0.33331 0.07406 0.0
H2779 H 0.91565 0.28963 0.03899 0.0
H2780 H 0.95315 0.32723 0.03938 0.0
H2781 H 0.90975 0.29575 0.07352 0.0
H2782 H 0.93332 0.29907 0.04053 0.0
H2783 H 0.93837 0.31573 0.07551 0.0
C2784 C 0.9475 0.32812 0.06682 0.0
C2785 C 0.95118 0.33186 0.05651 0.0
C2786 C 0.92829 0.29816 0.04785 0.0
C2787 C 0.93987 0.31187 0.05807 0.0
C2788 C 0.91819 0.29276 0.04696 0.0
C2789 C 0.91111 0.29218 0.05607 0.0
C2790 C 0.9312 0.30325 0.05785 0.0
C2791 C 0.9149 0.29618 0.06625 0.0
C2792 C 0.94185 0.3181 0.06764 0.0
C2793 C 0.95018 0.32478 0.04743 0.0
N2794 N 0.92457 0.30181 0.06681 0.0
N2795 N 0.94443 0.31523 0.04837 0.0
H2796 H 0.66387 0.20372 0.28369 0.0
H2797 H 0.69793 0.16198 0.32016 0.0
H2798 H 0.65926 0.19933 0.31868 0.0
H2799 H 0.69938 0.16402 0.28467 0.0
H2800 H 0.68837 0.17972 0.32058 0.0
H2801 H 0.6813 0.19378 0.28492 0.0
C2802 C 0.66667 0.20089 0.29169 0.0
C2803 C 0.65998 0.20206 0.30105 0.0
C2804 C 0.69101 0.17641 0.31272 0.0
C2805 C 0.67978 0.19048 0.30248 0.0
C2806 C 0.69648 0.16628 0.31247 0.0
C2807 C 0.69917 0.16138 0.30233 0.0
C2808 C 0.68818 0.18161 0.30276 0.0
C2809 C 0.69722 0.16738 0.29265 0.0
C2810 C 0.67661 0.19519 0.29239 0.0
C2811 C 0.66408 0.19843 0.31123 0.0
N2812 N 0.69166 0.17709 0.29309 0.0
N2813 N 0.67361 0.19254 0.31164 0.0
H2814 H 0.79273 0.90977 0.57021 0.0
H2815 H 0.82841 0.95086 0.53492 0.0
H2816 H 0.79083 0.9129 0.53482 0.0
H2817 H 0.83007 0.94859 0.57039 0.0
H2818 H 0.81102 0.94079 0.53529 0.0
H2819 H 0.80249 0.9274 0.57101 0.0
C2820 C 0.7941 0.9143 0.56264 0.0
C2821 C 0.79125 0.90973 0.5524 0.0
C2822 C 0.81505 0.94268 0.54302 0.0
C2823 C 0.80252 0.92979 0.55324 0.0
C2824 C 0.82499 0.94845 0.54281 0.0
C2825 C 0.83083 0.95029 0.55261 0.0
C2826 C 0.81105 0.93856 0.55309 0.0
C2827 C 0.82593 0.94716 0.56261 0.0
C2828 C 0.79971 0.92436 0.56309 0.0
C2829 C 0.79313 0.916 0.54287 0.0
N2830 N 0.81644 0.9412 0.56258 0.0
N2831 N 0.79884 0.9256 0.54349 0.0
H2832 H 0.41898 0.08385 0.19831 0.0
H2833 H 0.4544 0.0412 0.16495 0.0
H2834 H 0.45393 0.07888 0.20252 0.0
H2835 H 0.41937 0.04555 0.16065 0.0
H2836 H 0.45326 0.05087 0.18254 0.0
H2837 H 0.41784 0.06615 0.1887 0.0
C2838 C 0.42636 0.07889 0.1975 0.0
C2839 C 0.43662 0.08298 0.20091 0.0
C2840 C 0.44576 0.04952 0.17788 0.0
C2841 C 0.43543 0.06285 0.1898 0.0
C2842 C 0.44642 0.04399 0.16783 0.0
C2843 C 0.43702 0.04285 0.16121 0.0
C2844 C 0.43568 0.05415 0.18121 0.0
C2845 C 0.42686 0.04643 0.16542 0.0
C2846 C 0.42572 0.06879 0.19197 0.0
C2847 C 0.44589 0.07616 0.19976 0.0
N2848 N 0.4265 0.05217 0.17504 0.0
N2849 N 0.44512 0.06655 0.19409 0.0
H2850 H 0.91509 0.7026 0.45392 0.0
H2851 H 0.94619 0.6681 0.40871 0.0
H2852 H 0.90867 0.66825 0.44717 0.0
H2853 H 0.95116 0.70278 0.41499 0.0
H2854 H 0.93684 0.66644 0.42651 0.0
H2855 H 0.93249 0.70112 0.444 0.0
C2856 C 0.91749 0.69466 0.45059 0.0
C2857 C 0.9103 0.68562 0.4511 0.0
C2858 C 0.94022 0.67435 0.42412 0.0
C2859 C 0.93006 0.68393 0.43946 0.0
C2860 C 0.9456 0.67529 0.41397 0.0
C2861 C 0.94917 0.68566 0.41025 0.0
C2862 C 0.93841 0.68385 0.43052 0.0
C2863 C 0.94827 0.69469 0.41742 0.0
C2864 C 0.92742 0.69382 0.44489 0.0
C2865 C 0.9139 0.67549 0.4468 0.0
N2866 N 0.9428 0.69362 0.42712 0.0
N2867 N 0.9234 0.67498 0.44089 0.0
H2868 H 0.31921 0.19942 0.65904 0.0
H2869 H 0.28387 0.16371 0.70007 0.0
H2870 H 0.28407 0.20255 0.6634 0.0
H2871 H 0.3191 0.1606 0.69639 0.0
H2872 H 0.28465 0.18145 0.6906 0.0
H2873 H 0.32021 0.18908 0.67633 0.0
C2874 C 0.31175 0.19822 0.6638 0.0
C2875 C 0.3015 0.20157 0.65965 0.0
C2876 C 0.29226 0.17701 0.69205 0.0
C2877 C 0.30254 0.18962 0.67929 0.0
C2878 C 0.29181 0.16687 0.69747 0.0
C2879 C 0.3014 0.16055 0.69876 0.0
C2880 C 0.30233 0.18074 0.68771 0.0
C2881 C 0.31148 0.16512 0.69539 0.0
C2882 C 0.31232 0.19227 0.67365 0.0
C2883 C 0.29211 0.19988 0.66618 0.0
N2884 N 0.31165 0.17483 0.68978 0.0
N2885 N 0.29283 0.19382 0.67556 0.0
H2886 H 0.82634 0.53831 0.95111 0.0
H2887 H 0.79295 0.57314 0.9077 0.0
H2888 H 0.8317 0.57299 0.94514 0.0
H2889 H 0.78813 0.53842 0.91394 0.0
H2890 H 0.80323 0.57459 0.92499 0.0
H2891 H 0.80878 0.53954 0.94142 0.0
C2892 C 0.82372 0.54623 0.94792 0.0
C2893 C 0.8306 0.55549 0.94866 0.0
C2894 C 0.79969 0.56671 0.92272 0.0
C2895 C 0.81062 0.55694 0.93738 0.0
C2896 C 0.79377 0.56589 0.91287 0.0
C2897 C 0.78997 0.55557 0.90926 0.0
C2898 C 0.80182 0.55713 0.9289 0.0
C2899 C 0.79117 0.54648 0.9163 0.0
C2900 C 0.81369 0.54695 0.94239 0.0
C2901 C 0.82672 0.5656 0.94457 0.0
N2902 N 0.79718 0.54742 0.92568 0.0
N2903 N 0.81709 0.56601 0.93887 0.0
H2904 H 0.41796 0.1606 0.04482 0.0
H2905 H 0.45304 0.20553 0.07586 0.0
H2906 H 0.45253 0.16688 0.03942 0.0
H2907 H 0.41897 0.19843 0.08307 0.0
H2908 H 0.45118 0.19578 0.05838 0.0
H2909 H 0.41649 0.17829 0.05445 0.0
C2910 C 0.42517 0.16585 0.04536 0.0
C2911 C 0.43545 0.16215 0.04159 0.0
C2912 C 0.44402 0.19655 0.06365 0.0
C2913 C 0.43387 0.18228 0.05268 0.0
C2914 C 0.44508 0.20215 0.07363 0.0
C2915 C 0.43623 0.20253 0.08104 0.0
C2916 C 0.43411 0.19109 0.06118 0.0
C2917 C 0.42606 0.19817 0.07766 0.0
C2918 C 0.42434 0.17593 0.05091 0.0
C2919 C 0.4445 0.16931 0.04244 0.0
N2920 N 0.42534 0.19237 0.06809 0.0
N2921 N 0.44354 0.17893 0.04808 0.0
H2922 H 0.78769 0.70349 0.32621 0.0
H2923 H 0.83201 0.668 0.29485 0.0
H2924 H 0.79489 0.66949 0.33386 0.0
H2925 H 0.82505 0.7023 0.28844 0.0
H2926 H 0.81469 0.66662 0.30511 0.0
H2927 H 0.79709 0.70134 0.30858 0.0
C2928 C 0.79102 0.69549 0.32405 0.0
C2929 C 0.79076 0.68674 0.33161 0.0
C2930 C 0.81681 0.67437 0.30122 0.0
C2931 C 0.80181 0.68428 0.31157 0.0
C2932 C 0.82668 0.67515 0.29531 0.0
C2933 C 0.83009 0.68536 0.29105 0.0
C2934 C 0.81038 0.68388 0.30285 0.0
C2935 C 0.82284 0.69434 0.29183 0.0
C2936 C 0.79642 0.69426 0.31399 0.0
C2937 C 0.79505 0.6765 0.32832 0.0
N2938 N 0.81344 0.69344 0.29781 0.0
N2939 N 0.80067 0.67563 0.31866 0.0
H2940 H 0.32102 0.08283 0.54152 0.0
H2941 H 0.28491 0.04105 0.57521 0.0
H2942 H 0.28586 0.07891 0.53794 0.0
H2943 H 0.31998 0.04507 0.57948 0.0
H2944 H 0.28616 0.05052 0.55752 0.0
H2945 H 0.32182 0.065 0.55091 0.0
C2946 C 0.31351 0.07806 0.5424 0.0
C2947 C 0.3033 0.0825 0.53928 0.0
C2948 C 0.29364 0.04914 0.5622 0.0
C2949 C 0.30413 0.06223 0.55016 0.0
C2950 C 0.29292 0.04373 0.57232 0.0
C2951 C 0.3023 0.04257 0.57896 0.0
C2952 C 0.30378 0.05361 0.55882 0.0
C2953 C 0.3125 0.046 0.57471 0.0
C2954 C 0.31397 0.0679 0.54781 0.0
C2955 C 0.29387 0.07592 0.5405 0.0
N2956 N 0.31293 0.05161 0.56502 0.0
N2957 N 0.29447 0.06623 0.54607 0.0
H2958 H 0.95016 0.53341 0.83017 0.0
H2959 H 0.91105 0.57022 0.79358 0.0
H2960 H 0.9485 0.56893 0.83214 0.0
H2961 H 0.91187 0.53462 0.793 0.0
H2962 H 0.92856 0.57024 0.80354 0.0
H2963 H 0.94033 0.53412 0.81265 0.0
C2964 C 0.94792 0.54138 0.8268 0.0
C2965 C 0.94985 0.5511 0.83276 0.0
C2966 C 0.92503 0.56243 0.80103 0.0
C2967 C 0.93844 0.55197 0.81282 0.0
C2968 C 0.91504 0.56242 0.79533 0.0
C2969 C 0.90986 0.55239 0.79276 0.0
C2970 C 0.92979 0.55235 0.80422 0.0
C2971 C 0.91546 0.54254 0.79507 0.0
C2972 C 0.9423 0.54178 0.81679 0.0
C2973 C 0.94696 0.56121 0.82791 0.0
N2974 N 0.92502 0.54276 0.80086 0.0
N2975 N 0.94117 0.56137 0.81833 0.0
H2976 H 0.20469 0.44998 0.07479 0.0
H2977 H 0.15796 0.41429 0.04772 0.0
H2978 H 0.19654 0.41688 0.08502 0.0
H2979 H 0.16594 0.4478 0.0388 0.0
H2980 H 0.17576 0.41277 0.05711 0.0
H2981 H 0.19481 0.44691 0.05756 0.0
C2982 C 0.20104 0.44196 0.07328 0.0
C2983 C 0.20116 0.43377 0.08144 0.0
C2984 C 0.17375 0.42036 0.05284 0.0
C2985 C 0.18955 0.4303 0.0619 0.0
C2986 C 0.1636 0.42121 0.04744 0.0
C2987 C 0.16037 0.43129 0.04276 0.0
C2988 C 0.18062 0.42967 0.05356 0.0
C2989 C 0.16801 0.43996 0.04256 0.0
C2990 C 0.19537 0.4402 0.06345 0.0
C2991 C 0.19648 0.42347 0.07899 0.0
N2992 N 0.17768 0.43903 0.04808 0.0
N2993 N 0.19058 0.42212 0.06955 0.0
H2994 H 0.66494 0.28987 0.20278 0.0
H2995 H 0.69829 0.32285 0.15794 0.0
H2996 H 0.66013 0.32441 0.19567 0.0
H2997 H 0.70077 0.2878 0.16367 0.0
H2998 H 0.68902 0.32488 0.17572 0.0
H2999 H 0.68245 0.29046 0.19296 0.0
C3000 C 0.66771 0.29765 0.19937 0.0
C3001 C 0.66095 0.30703 0.19977 0.0
C3002 C 0.69185 0.31679 0.17322 0.0
C3003 C 0.68086 0.30771 0.18828 0.0
C3004 C 0.69719 0.31563 0.16308 0.0
C3005 C 0.70001 0.30509 0.15919 0.0
C3006 C 0.68931 0.30734 0.17945 0.0
C3007 C 0.69848 0.29605 0.16624 0.0
C3008 C 0.67771 0.29799 0.19374 0.0
C3009 C 0.66502 0.31694 0.19539 0.0
N3010 N 0.69303 0.29734 0.17592 0.0
N3011 N 0.6746 0.31696 0.18957 0.0
H3012 H 0.66859 0.90991 0.44817 0.0
H3013 H 0.70569 0.9507 0.41456 0.0
H3014 H 0.70358 0.914 0.45302 0.0
H3015 H 0.67045 0.94808 0.41053 0.0
H3016 H 0.70415 0.94139 0.43232 0.0
H3017 H 0.66811 0.92757 0.43844 0.0
C3018 C 0.67611 0.91468 0.44749 0.0
C3019 C 0.6862 0.91034 0.4511 0.0
C3020 C 0.69671 0.94305 0.42768 0.0
C3021 C 0.68576 0.93042 0.43984 0.0
C3022 C 0.69759 0.94838 0.41753 0.0
C3023 C 0.68823 0.94987 0.41093 0.0
C3024 C 0.68641 0.93898 0.43112 0.0
C3025 C 0.67792 0.94689 0.41526 0.0
C3026 C 0.67585 0.92475 0.44188 0.0
C3027 C 0.69567 0.91691 0.45009 0.0
N3028 N 0.67732 0.94132 0.42497 0.0
N3029 N 0.69526 0.9265 0.44434 0.0
H3030 H 0.03734 0.95176 0.66587 0.0
H3031 H 0.08184 0.91766 0.6986 0.0
H3032 H 0.04466 0.91747 0.65978 0.0
H3033 H 0.07562 0.95246 0.70275 0.0
H3034 H 0.06431 0.91591 0.68879 0.0
H3035 H 0.04689 0.95048 0.68351 0.0
C3036 C 0.04072 0.94388 0.66837 0.0
C3037 C 0.04047 0.93479 0.66122 0.0
C3038 C 0.06664 0.92388 0.6921 0.0
C3039 C 0.05167 0.93333 0.68128 0.0
C3040 C 0.07664 0.92487 0.69775 0.0
C3041 C 0.08032 0.93529 0.70122 0.0
C3042 C 0.06035 0.93337 0.68991 0.0
C3043 C 0.07321 0.94432 0.69997 0.0
C3044 C 0.04621 0.94315 0.67845 0.0
C3045 C 0.04482 0.92474 0.66497 0.0
N3046 N 0.06367 0.9432 0.69423 0.0
N3047 N 0.0505 0.92434 0.67462 0.0
H3048 H 0.57234 0.33525 0.44857 0.0
H3049 H 0.5401 0.2895 0.41536 0.0
H3050 H 0.53771 0.32806 0.45227 0.0
H3051 H 0.57423 0.29787 0.40984 0.0
H3052 H 0.54065 0.29958 0.43275 0.0
H3053 H 0.57465 0.31786 0.43861 0.0
C3054 C 0.56529 0.32986 0.44758 0.0
C3055 C 0.55476 0.33323 0.45097 0.0
C3056 C 0.54809 0.29905 0.42785 0.0
C3057 C 0.5573 0.31345 0.43948 0.0
C3058 C 0.54778 0.29328 0.41791 0.0
C3059 C 0.55705 0.2931 0.41102 0.0
C3060 C 0.55769 0.30481 0.43083 0.0
C3061 C 0.56683 0.29797 0.41483 0.0
C3062 C 0.56659 0.31995 0.44184 0.0
C3063 C 0.54593 0.32589 0.44956 0.0
N3064 N 0.56683 0.30385 0.42437 0.0
N3065 N 0.54736 0.31645 0.44372 0.0
H3066 H 0.03972 0.79066 0.07584 0.0
H3067 H 0.08443 0.82402 0.0421 0.0
H3068 H 0.04718 0.8251 0.08098 0.0
H3069 H 0.07939 0.78883 0.04004 0.0
H3070 H 0.0669 0.82573 0.0519 0.0
H3071 H 0.05005 0.79119 0.0586 0.0
C3072 C 0.04335 0.7984 0.07323 0.0
C3073 C 0.04285 0.80778 0.07998 0.0
C3074 C 0.06951 0.81767 0.04907 0.0
C3075 C 0.05481 0.8084 0.06034 0.0
C3076 C 0.07949 0.81669 0.04342 0.0
C3077 C 0.08349 0.80622 0.04052 0.0
C3078 C 0.06355 0.80811 0.05182 0.0
C3079 C 0.07672 0.79703 0.04236 0.0
C3080 C 0.04926 0.7987 0.06338 0.0
C3081 C 0.04754 0.81762 0.07611 0.0
N3082 N 0.06718 0.79816 0.04807 0.0
N3083 N 0.05354 0.81762 0.06664 0.0
H3084 H 0.70662 0.82748 0.2873 0.0
H3085 H 0.67122 0.79321 0.32964 0.0
H3086 H 0.67179 0.83215 0.29268 0.0
H3087 H 0.70662 0.79174 0.32659 0.0
H3088 H 0.6703 0.80267 0.31185 0.0
H3089 H 0.70554 0.80981 0.29686 0.0
C3090 C 0.69868 0.82465 0.29026 0.0
C3091 C 0.68934 0.83143 0.2895 0.0
C3092 C 0.67824 0.80003 0.31495 0.0
C3093 C 0.6881 0.81135 0.30067 0.0
C3094 C 0.67878 0.79461 0.3251 0.0
C3095 C 0.68905 0.79198 0.32973 0.0
C3096 C 0.68805 0.80286 0.30947 0.0
C3097 C 0.69855 0.79386 0.32344 0.0
C3098 C 0.69807 0.81457 0.29574 0.0
C3099 C 0.67923 0.82727 0.29327 0.0
N3100 N 0.69784 0.79938 0.31372 0.0
N3101 N 0.67893 0.81761 0.29897 0.0
H3102 H 0.07547 0.44506 0.82997 0.0
H3103 H 0.03852 0.41234 0.78764 0.0
H3104 H 0.04064 0.45032 0.82508 0.0
H3105 H 0.07285 0.4053 0.79368 0.0
H3106 H 0.04066 0.42998 0.79704 0.0
H3107 H 0.07604 0.4344 0.81288 0.0
C3108 C 0.06799 0.44419 0.82518 0.0
C3109 C 0.05793 0.44832 0.82909 0.0
C3110 C 0.0478 0.4247 0.79612 0.0
C3111 C 0.0585 0.43608 0.80961 0.0
C3112 C 0.04659 0.41463 0.79073 0.0
C3113 C 0.05545 0.40724 0.79015 0.0
C3114 C 0.05791 0.4273 0.80114 0.0
C3115 C 0.06575 0.4107 0.7941 0.0
C3116 C 0.06832 0.43809 0.81542 0.0
C3117 C 0.04853 0.44707 0.82249 0.0
N3118 N 0.06664 0.42038 0.79969 0.0
N3119 N 0.049 0.44089 0.81317 0.0
H3120 H 0.95278 0.82834 0.53552 0.0
H3121 H 0.91063 0.79321 0.5705 0.0
H3122 H 0.94709 0.83289 0.57033 0.0
H3123 H 0.91413 0.79166 0.53513 0.0
H3124 H 0.92804 0.80331 0.57158 0.0
H3125 H 0.94317 0.8107 0.53642 0.0
C3126 C 0.94972 0.8255 0.54342 0.0
C3127 C 0.95046 0.83221 0.55281 0.0
C3128 C 0.92512 0.80053 0.5636 0.0
C3129 C 0.93925 0.81214 0.55385 0.0
C3130 C 0.9152 0.79473 0.56298 0.0
C3131 C 0.91079 0.79186 0.55267 0.0
C3132 C 0.93063 0.80347 0.55385 0.0
C3133 C 0.91711 0.79395 0.54323 0.0
C3134 C 0.94422 0.81543 0.54393 0.0
C3135 C 0.94654 0.82804 0.56286 0.0
N3136 N 0.92661 0.7998 0.54402 0.0
N3137 N 0.94085 0.81837 0.56307 0.0
H3138 H 0.16194 0.69737 0.32126 0.0
H3139 H 0.20421 0.66348 0.28537 0.0
H3140 H 0.16507 0.69934 0.28588 0.0
H3141 H 0.19807 0.65765 0.31992 0.0
H3142 H 0.19482 0.6812 0.28685 0.0
H3143 H 0.17957 0.68764 0.32208 0.0
C3144 C 0.16648 0.69603 0.31369 0.0
C3145 C 0.1619 0.69887 0.30344 0.0
C3146 C 0.19573 0.67617 0.29418 0.0
C3147 C 0.18199 0.68771 0.30433 0.0
C3148 C 0.20111 0.66606 0.29334 0.0
C3149 C 0.20162 0.65897 0.30246 0.0
C3150 C 0.19066 0.67911 0.30416 0.0
C3151 C 0.19768 0.6628 0.31263 0.0
C3152 C 0.17653 0.69045 0.31417 0.0
C3153 C 0.16818 0.69705 0.29392 0.0
N3154 N 0.19209 0.67251 0.31315 0.0
N3155 N 0.17781 0.6914 0.29458 0.0
H3156 H 0.32869 0.95085 0.03168 0.0
H3157 H 0.29089 0.91201 0.06745 0.0
H3158 H 0.32949 0.94936 0.06722 0.0
H3159 H 0.2917 0.91245 0.03188 0.0
H3160 H 0.30062 0.92966 0.06767 0.0
H3161 H 0.31106 0.94119 0.03185 0.0
C3162 C 0.32503 0.9487 0.03954 0.0
C3163 C 0.3307 0.95061 0.04943 0.0
C3164 C 0.29845 0.92603 0.05981 0.0
C3165 C 0.31063 0.93937 0.04969 0.0
C3166 C 0.29286 0.91595 0.05968 0.0
C3167 C 0.29078 0.91061 0.04963 0.0
C3168 C 0.30202 0.9307 0.04982 0.0
C3169 C 0.29338 0.91616 0.03982 0.0
C3170 C 0.31496 0.94317 0.03964 0.0
C3171 C 0.32549 0.94785 0.05938 0.0
N3172 N 0.29907 0.92579 0.04016 0.0
N3173 N 0.31586 0.94212 0.05925 0.0
H3174 H 0.07966 0.70009 0.96113 0.0
H3175 H 0.03973 0.66197 0.92683 0.0
H3176 H 0.0784 0.69916 0.92558 0.0
H3177 H 0.0426 0.66154 0.9623 0.0
H3178 H 0.04959 0.67953 0.92644 0.0
H3179 H 0.06213 0.69026 0.96181 0.0
C3180 C 0.07558 0.69802 0.95346 0.0
C3181 C 0.08064 0.70015 0.94329 0.0
C3182 C 0.04785 0.67572 0.93433 0.0
C3183 C 0.06067 0.68877 0.944 0.0
C3184 C 0.0422 0.6657 0.93456 0.0
C3185 C 0.04064 0.66014 0.94459 0.0
C3186 C 0.05203 0.68013 0.9442 0.0
C3187 C 0.04386 0.66542 0.95436 0.0
C3188 C 0.06556 0.6924 0.95385 0.0
C3189 C 0.07489 0.69748 0.93361 0.0
N3190 N 0.04961 0.67502 0.9539 0.0
N3191 N 0.06532 0.69169 0.93421 0.0
H3192 H 0.29233 0.83291 0.66872 0.0
H3193 H 0.32558 0.79063 0.70438 0.0
H3194 H 0.28798 0.82796 0.70368 0.0
H3195 H 0.32992 0.79483 0.66933 0.0
H3196 H 0.30782 0.79993 0.7031 0.0
H3197 H 0.30166 0.81507 0.66759 0.0
C3198 C 0.29302 0.82791 0.6761 0.0
C3199 C 0.28971 0.83205 0.68637 0.0
C3200 C 0.31252 0.79862 0.69563 0.0
C3201 C 0.30051 0.81178 0.68519 0.0
C3202 C 0.32268 0.79331 0.69637 0.0
C3203 C 0.32936 0.79226 0.687 0.0
C3204 C 0.30916 0.80314 0.6855 0.0
C3205 C 0.32511 0.79567 0.67679 0.0
C3206 C 0.2984 0.81774 0.67546 0.0
C3207 C 0.2907 0.8252 0.69564 0.0
N3208 N 0.31539 0.80123 0.67635 0.0
N3209 N 0.29623 0.81551 0.69487 0.0
H3210 H 0.20362 0.07893 0.45706 0.0
H3211 H 0.16163 0.04357 0.42218 0.0
H3212 H 0.19856 0.0827 0.42205 0.0
H3213 H 0.16441 0.04293 0.45764 0.0
H3214 H 0.17927 0.05327 0.42118 0.0
H3215 H 0.19393 0.06132 0.4564 0.0
C3216 C 0.20071 0.07591 0.44917 0.0
C3217 C 0.20162 0.08242 0.43965 0.0
C3218 C 0.17615 0.05077 0.42916 0.0
C3219 C 0.19029 0.0624 0.43887 0.0
C3220 C 0.16609 0.0452 0.42974 0.0
C3221 C 0.16142 0.04271 0.44003 0.0
C3222 C 0.18152 0.05387 0.43895 0.0
C3223 C 0.1676 0.04492 0.44955 0.0
C3224 C 0.19514 0.06586 0.4488 0.0
C3225 C 0.19787 0.07802 0.42962 0.0
N3226 N 0.17723 0.05056 0.44879 0.0
N3227 N 0.19211 0.0684 0.42954 0.0
H3228 H 0.57254 0.94736 0.83298 0.0
H3229 H 0.53906 0.91598 0.7868 0.0
H3230 H 0.5377 0.951 0.82683 0.0
H3231 H 0.57281 0.90876 0.79531 0.0
H3232 H 0.54035 0.93325 0.79702 0.0
H3233 H 0.57443 0.93779 0.81532 0.0
C3234 C 0.56534 0.94641 0.82779 0.0
C3235 C 0.55489 0.94971 0.83149 0.0
C3236 C 0.54757 0.92802 0.79647 0.0
C3237 C 0.55699 0.93874 0.81136 0.0
C3238 C 0.54684 0.91817 0.7906 0.0
C3239 C 0.55575 0.91081 0.79047 0.0
C3240 C 0.5572 0.93042 0.80241 0.0
C3241 C 0.56569 0.91414 0.79536 0.0
C3242 C 0.56642 0.94091 0.81772 0.0
C3243 C 0.54587 0.94836 0.8244 0.0
N3244 N 0.56607 0.92359 0.80139 0.0
N3245 N 0.54709 0.9428 0.81476 0.0
H3246 H 0.07539 0.28843 0.53641 0.0
H3247 H 0.04313 0.32279 0.58086 0.0
H3248 H 0.08132 0.32281 0.5434 0.0
H3249 H 0.04018 0.28767 0.57587 0.0
H3250 H 0.05209 0.32439 0.56287 0.0
H3251 H 0.05777 0.28969 0.54598 0.0
C3252 C 0.07284 0.29633 0.53971 0.0
C3253 C 0.07995 0.30545 0.53941 0.0
C3254 C 0.04922 0.31637 0.56558 0.0
C3255 C 0.05994 0.30688 0.55062 0.0
C3256 C 0.04406 0.31546 0.57584 0.0
C3257 C 0.04122 0.30503 0.57999 0.0
C3258 C 0.05155 0.30678 0.55951 0.0
C3259 C 0.0425 0.29583 0.5731 0.0
C3260 C 0.06278 0.29705 0.54521 0.0
C3261 C 0.07616 0.31553 0.54363 0.0
N3262 N 0.04779 0.29689 0.56329 0.0
N3263 N 0.06653 0.31591 0.54934 0.0
H3264 H 0.56672 0.82919 0.94957 0.0
H3265 H 0.53061 0.79186 0.91056 0.0
H3266 H 0.53119 0.82975 0.94824 0.0
H3267 H 0.56618 0.79204 0.91075 0.0
H3268 H 0.53067 0.80149 0.92821 0.0
H3269 H 0.5666 0.81173 0.93951 0.0
C3270 C 0.55888 0.82551 0.94739 0.0
C3271 C 0.54896 0.83108 0.94945 0.0
C3272 C 0.53847 0.79923 0.92451 0.0
C3273 C 0.54877 0.8112 0.93784 0.0
C3274 C 0.53844 0.79371 0.91443 0.0
C3275 C 0.54841 0.79143 0.90904 0.0
C3276 C 0.54853 0.80263 0.92913 0.0
C3277 C 0.5583 0.79384 0.91453 0.0
C3278 C 0.55882 0.81555 0.94163 0.0
C3279 C 0.53905 0.82586 0.94659 0.0
N3280 N 0.55812 0.79955 0.92416 0.0
N3281 N 0.53921 0.81633 0.94073 0.0
H3282 H 0.20382 0.29146 0.66557 0.0
H3283 H 0.15861 0.32527 0.69701 0.0
H3284 H 0.19531 0.32517 0.658 0.0
H3285 H 0.16678 0.2912 0.70326 0.0
H3286 H 0.17607 0.32743 0.68716 0.0
H3287 H 0.19486 0.29338 0.68345 0.0
C3288 C 0.20029 0.29936 0.66779 0.0
C3289 C 0.20003 0.30807 0.6602 0.0
C3290 C 0.17419 0.31957 0.69095 0.0
C3291 C 0.18947 0.31025 0.68051 0.0
C3292 C 0.16424 0.31834 0.69663 0.0
C3293 C 0.16112 0.30795 0.70066 0.0
C3294 C 0.18097 0.31031 0.6893 0.0
C3295 C 0.16875 0.29929 0.70002 0.0
C3296 C 0.19515 0.30046 0.678 0.0
C3297 C 0.19553 0.31819 0.66356 0.0
N3298 N 0.17821 0.3006 0.69422 0.0
N3299 N 0.19014 0.31892 0.67337 0.0
H3300 H 0.08443 0.4171 0.19649 0.0
H3301 H 0.03726 0.45114 0.16775 0.0
H3302 H 0.07647 0.45107 0.20351 0.0
H3303 H 0.04568 0.41768 0.15907 0.0
H3304 H 0.04746 0.44907 0.18494 0.0
H3305 H 0.0667 0.41512 0.18704 0.0
C3306 C 0.07881 0.42404 0.19633 0.0
C3307 C 0.08202 0.43435 0.20052 0.0
C3308 C 0.04689 0.44207 0.17941 0.0
C3309 C 0.06184 0.43219 0.18966 0.0
C3310 C 0.04103 0.44325 0.1696 0.0
C3311 C 0.04087 0.43466 0.16187 0.0
C3312 C 0.05285 0.43232 0.18137 0.0
C3313 C 0.04573 0.42456 0.16476 0.0
C3314 C 0.06871 0.42293 0.1909 0.0
C3315 C 0.07442 0.44305 0.20015 0.0
N3316 N 0.05179 0.42376 0.17416 0.0
N3317 N 0.06478 0.44183 0.19463 0.0
H3318 H 0.29208 0.67268 0.82932 0.0
H3319 H 0.32797 0.70739 0.78749 0.0
H3320 H 0.29205 0.70821 0.82692 0.0
H3321 H 0.33139 0.67231 0.79251 0.0
H3322 H 0.31048 0.70692 0.79737 0.0
H3323 H 0.30197 0.67171 0.8118 0.0
C3324 C 0.29391 0.68027 0.82498 0.0
C3325 C 0.2915 0.69056 0.82972 0.0
C3326 C 0.31492 0.69927 0.79611 0.0
C3327 C 0.30287 0.6895 0.80973 0.0
C3328 C 0.3249 0.69953 0.79043 0.0
C3329 C 0.33127 0.68992 0.78944 0.0
C3330 C 0.31138 0.68937 0.80097 0.0
C3331 C 0.32681 0.67994 0.79325 0.0
C3332 C 0.29958 0.67971 0.81498 0.0
C3333 C 0.29396 0.70011 0.82367 0.0
N3334 N 0.31725 0.67996 0.79909 0.0
N3335 N 0.29968 0.69936 0.81409 0.0
H3336 H 0.95351 0.03458 0.32935 0.0
H3337 H 0.91279 0.07047 0.29361 0.0
H3338 H 0.94877 0.06962 0.33346 0.0
H3339 H 0.9153 0.03497 0.29237 0.0
H3340 H 0.93026 0.07114 0.30364 0.0
H3341 H 0.94435 0.03562 0.31149 0.0
C3342 C 0.95078 0.04255 0.32637 0.0
C3343 C 0.9516 0.05197 0.33303 0.0
C3344 C 0.92712 0.06322 0.30094 0.0
C3345 C 0.94089 0.05318 0.31271 0.0
C3346 C 0.91716 0.06283 0.29519 0.0
C3347 C 0.91245 0.05262 0.29245 0.0
C3348 C 0.93235 0.05333 0.30398 0.0
C3349 C 0.91852 0.04301 0.29457 0.0
C3350 C 0.94552 0.04314 0.31617 0.0
C3351 C 0.94812 0.06211 0.32867 0.0
N3352 N 0.92805 0.04359 0.3004 0.0
N3353 N 0.94265 0.06241 0.31889 0.0
H3354 H 0.42251 0.65878 0.54283 0.0
H3355 H 0.45759 0.70039 0.57818 0.0
H3356 H 0.45783 0.66234 0.54067 0.0
H3357 H 0.42225 0.69727 0.5805 0.0
H3358 H 0.45714 0.69036 0.56076 0.0
H3359 H 0.42157 0.6764 0.55259 0.0
C3360 C 0.43004 0.66341 0.54412 0.0
C3361 C 0.4403 0.65895 0.54121 0.0
C3362 C 0.44944 0.69205 0.56495 0.0
C3363 C 0.4393 0.679 0.55251 0.0
C3364 C 0.4497 0.69779 0.5749 0.0
C3365 C 0.43998 0.69941 0.58093 0.0
C3366 C 0.4394 0.68772 0.5611 0.0
C3367 C 0.42997 0.69603 0.57621 0.0
C3368 C 0.4295 0.67346 0.54975 0.0
C3369 C 0.44976 0.66536 0.543 0.0
N3370 N 0.42996 0.69011 0.56669 0.0
N3371 N 0.44906 0.67494 0.54874 0.0
H3372 H 0.90715 0.16871 0.9482 0.0
H3373 H 0.95353 0.2019 0.91718 0.0
H3374 H 0.91487 0.20304 0.95358 0.0
H3375 H 0.94507 0.16809 0.90996 0.0
H3376 H 0.94357 0.20049 0.93457 0.0
H3377 H 0.9247 0.16651 0.93851 0.0
C3378 C 0.91269 0.1757 0.94764 0.0
C3379 C 0.90944 0.18615 0.95143 0.0
C3380 C 0.94407 0.19329 0.92931 0.0
C3381 C 0.92941 0.18373 0.94027 0.0
C3382 C 0.94978 0.19409 0.91938 0.0
C3383 C 0.94988 0.18519 0.91201 0.0
C3384 C 0.9382 0.1836 0.93177 0.0
C3385 C 0.94505 0.17521 0.91535 0.0
C3386 C 0.92269 0.17445 0.94206 0.0
C3387 C 0.91695 0.1949 0.95055 0.0
N3388 N 0.93915 0.17476 0.92487 0.0
N3389 N 0.92649 0.19354 0.94488 0.0
H3390 H 0.91673 0.54511 0.15854 0.0
H3391 H 0.95028 0.57501 0.20539 0.0
H3392 H 0.95074 0.53871 0.16666 0.0
H3393 H 0.917 0.58353 0.19625 0.0
H3394 H 0.94833 0.55757 0.19556 0.0
H3395 H 0.9146 0.55482 0.17611 0.0
C3396 C 0.92366 0.54545 0.16417 0.0
C3397 C 0.93401 0.54136 0.16104 0.0
C3398 C 0.94135 0.56313 0.1959 0.0
C3399 C 0.93168 0.55254 0.18103 0.0
C3400 C 0.94245 0.57308 0.20155 0.0
C3401 C 0.93389 0.58084 0.20138 0.0
C3402 C 0.9317 0.56103 0.18984 0.0
C3403 C 0.92387 0.57784 0.19643 0.0
C3404 C 0.92245 0.55104 0.17418 0.0
C3405 C 0.94268 0.54197 0.16865 0.0
N3406 N 0.92314 0.56829 0.19059 0.0
N3407 N 0.94138 0.54765 0.1782 0.0
H3408 H 0.78626 0.82608 0.20048 0.0
H3409 H 0.83096 0.79457 0.16589 0.0
H3410 H 0.79437 0.83384 0.16674 0.0
H3411 H 0.82326 0.78817 0.20002 0.0
H3412 H 0.8136 0.80468 0.16408 0.0
H3413 H 0.79526 0.80823 0.19837 0.0
C3414 C 0.7897 0.8239 0.19253 0.0
C3415 C 0.78984 0.83155 0.18386 0.0
C3416 C 0.81556 0.80081 0.17188 0.0
C3417 C 0.80044 0.81126 0.18147 0.0
C3418 C 0.82546 0.79499 0.17291 0.0
C3419 C 0.82867 0.79081 0.18321 0.0
C3420 C 0.80892 0.80246 0.18124 0.0
C3421 C 0.8212 0.79151 0.192 0.0
C3422 C 0.79487 0.81371 0.19133 0.0
C3423 C 0.79424 0.82824 0.17369 0.0
N3424 N 0.81179 0.79744 0.19087 0.0
N3425 N 0.79964 0.81845 0.17285 0.0
H3426 H 0.65866 0.54625 0.41388 0.0
H3427 H 0.70449 0.57662 0.44845 0.0
H3428 H 0.66621 0.53986 0.44805 0.0
H3429 H 0.6958 0.5853 0.41507 0.0
H3430 H 0.69488 0.5591 0.44623 0.0
H3431 H 0.67608 0.5563 0.41213 0.0
C3432 C 0.66414 0.54668 0.42092 0.0
C3433 C 0.66088 0.54248 0.4312 0.0
C3434 C 0.69526 0.56471 0.43929 0.0
C3435 C 0.68071 0.55402 0.4293 0.0
C3436 C 0.70077 0.57471 0.44055 0.0
C3437 C 0.70068 0.58251 0.43202 0.0
C3438 C 0.68939 0.56262 0.42952 0.0
C3439 C 0.69591 0.57956 0.42191 0.0
C3440 C 0.67406 0.55246 0.41993 0.0
C3441 C 0.6683 0.5432 0.44004 0.0
N3442 N 0.69019 0.56995 0.42102 0.0
N3443 N 0.67777 0.54905 0.43894 0.0
H3444 H 0.95342 0.41525 0.69959 0.0
H3445 H 0.9073 0.44644 0.66626 0.0
H3446 H 0.94558 0.40864 0.66553 0.0
H3447 H 0.91433 0.45118 0.70081 0.0
H3448 H 0.925 0.437 0.66418 0.0
H3449 H 0.94335 0.4326 0.69836 0.0
C3450 C 0.94979 0.41759 0.69177 0.0
C3451 C 0.95007 0.41038 0.68273 0.0
C3452 C 0.92279 0.44034 0.67216 0.0
C3453 C 0.93828 0.43008 0.68134 0.0
C3454 C 0.9127 0.44576 0.67334 0.0
C3455 C 0.90923 0.4493 0.68379 0.0
C3456 C 0.92938 0.43845 0.6815 0.0
C3457 C 0.91657 0.44832 0.69265 0.0
C3458 C 0.94401 0.42749 0.69107 0.0
C3459 C 0.9454 0.41389 0.67275 0.0
N3460 N 0.92621 0.4428 0.69136 0.0
N3461 N 0.93944 0.42338 0.67239 0.0
H3462 H 0.08014 0.54518 0.3244 0.0
H3463 H 0.03585 0.57749 0.28953 0.0
H3464 H 0.07514 0.54187 0.28933 0.0
H3465 H 0.04326 0.58425 0.32366 0.0
H3466 H 0.04544 0.55989 0.29112 0.0
H3467 H 0.06248 0.55481 0.32579 0.0
C3468 C 0.0752 0.54624 0.31703 0.0
C3469 C 0.07924 0.54301 0.30668 0.0
C3470 C 0.04476 0.56509 0.29835 0.0
C3471 C 0.05911 0.55404 0.3082 0.0
C3472 C 0.03925 0.57513 0.29745 0.0
C3473 C 0.03905 0.58246 0.30639 0.0
C3474 C 0.05028 0.56248 0.30818 0.0
C3475 C 0.0434 0.57891 0.31651 0.0
C3476 C 0.06513 0.55175 0.31783 0.0
C3477 C 0.07245 0.54446 0.29743 0.0
N3478 N 0.04911 0.56928 0.31706 0.0
N3479 N 0.06281 0.55004 0.29839 0.0
H3480 H 0.6623 0.69888 0.82163 0.0
H3481 H 0.7038 0.66472 0.78553 0.0
H3482 H 0.6647 0.70036 0.78617 0.0
H3483 H 0.69942 0.66044 0.82057 0.0
H3484 H 0.6945 0.68251 0.78671 0.0
H3485 H 0.68027 0.68979 0.82227 0.0
C3486 C 0.66673 0.69756 0.814 0.0
C3487 C 0.66186 0.70005 0.8038 0.0
C3488 C 0.6958 0.67782 0.7942 0.0
C3489 C 0.68233 0.6896 0.80446 0.0
C3490 C 0.70114 0.66766 0.79353 0.0
C3491 C 0.70205 0.66095 0.80291 0.0
C3492 C 0.69117 0.68116 0.80427 0.0
C3493 C 0.69868 0.66527 0.81309 0.0
C3494 C 0.67699 0.69235 0.81436 0.0
C3495 C 0.66803 0.69831 0.79419 0.0
N3496 N 0.6931 0.67498 0.81346 0.0
N3497 N 0.67785 0.69298 0.79474 0.0
H3498 H 0.79442 0.40777 0.07611 0.0
H3499 H 0.82518 0.4545 0.04301 0.0
H3500 H 0.78872 0.41591 0.04196 0.0
H3501 H 0.83342 0.44499 0.07628 0.0
H3502 H 0.80771 0.44473 0.04473 0.0
H3503 H 0.80437 0.4252 0.07837 0.0
C3504 C 0.79498 0.41337 0.06918 0.0
C3505 C 0.79101 0.41029 0.05876 0.0
C3506 C 0.81321 0.44496 0.05176 0.0
C3507 C 0.80243 0.43013 0.06124 0.0
C3508 C 0.82318 0.45057 0.05079 0.0
C3509 C 0.83086 0.4503 0.05942 0.0
C3510 C 0.81101 0.43885 0.06136 0.0
C3511 C 0.82778 0.44525 0.06937 0.0
C3512 C 0.8007 0.42331 0.07046 0.0
C3513 C 0.79188 0.41787 0.05007 0.0
N3514 N 0.8182 0.43946 0.06997 0.0
N3515 N 0.79767 0.42734 0.05146 0.0
H3516 H 0.41852 0.54332 0.66043 0.0
H3517 H 0.45438 0.57651 0.70322 0.0
H3518 H 0.45344 0.53891 0.66548 0.0
H3519 H 0.41987 0.58259 0.69723 0.0
H3520 H 0.45273 0.55884 0.69377 0.0
H3521 H 0.41751 0.55346 0.67782 0.0
C3522 C 0.42592 0.54418 0.66535 0.0
C3523 C 0.43614 0.54053 0.66136 0.0
C3524 C 0.44544 0.56391 0.69471 0.0
C3525 C 0.43507 0.55225 0.68116 0.0
C3526 C 0.44638 0.57401 0.70013 0.0
C3527 C 0.43731 0.58114 0.70076 0.0
C3528 C 0.43541 0.56103 0.68969 0.0
C3529 C 0.42712 0.5774 0.69678 0.0
C3530 C 0.42534 0.55003 0.67527 0.0
C3531 C 0.44543 0.54181 0.66813 0.0
N3532 N 0.42649 0.56771 0.69117 0.0
N3533 N 0.44471 0.54776 0.67758 0.0
H3534 H 0.32483 0.65923 0.19586 0.0
H3535 H 0.28781 0.70255 0.1649 0.0
H3536 H 0.29041 0.6651 0.20254 0.0
H3537 H 0.32204 0.69677 0.15729 0.0
H3538 H 0.2903 0.69308 0.18246 0.0
H3539 H 0.32561 0.67672 0.18577 0.0
C3540 C 0.31753 0.66436 0.1955 0.0
C3541 C 0.30746 0.6606 0.19977 0.0
C3542 C 0.29735 0.69407 0.17707 0.0
C3543 C 0.30825 0.68047 0.18816 0.0
C3544 C 0.29592 0.6995 0.16705 0.0
C3545 C 0.30466 0.70019 0.15953 0.0
C3546 C 0.30752 0.68907 0.17948 0.0
C3547 C 0.31504 0.69626 0.1628 0.0
C3548 C 0.31796 0.67432 0.18969 0.0
C3549 C 0.29828 0.66758 0.19914 0.0
N3550 N 0.31612 0.6906 0.17242 0.0
N3551 N 0.29884 0.67707 0.19324 0.0
H3552 H 0.82751 0.06584 0.45068 0.0
H3553 H 0.79268 0.03001 0.40908 0.0
H3554 H 0.82991 0.03044 0.44756 0.0
H3555 H 0.79136 0.06555 0.41098 0.0
H3556 H 0.80211 0.02961 0.42684 0.0
H3557 H 0.81034 0.06539 0.44019 0.0
C3558 C 0.82429 0.05794 0.44802 0.0
C3559 C 0.8303 0.0482 0.44971 0.0
C3560 C 0.79957 0.03749 0.42349 0.0
C3561 C 0.81077 0.04764 0.43759 0.0
C3562 C 0.79417 0.03772 0.41334 0.0
C3563 C 0.79151 0.04785 0.40841 0.0
C3564 C 0.80244 0.04746 0.42866 0.0
C3565 C 0.79346 0.05757 0.41439 0.0
C3566 C 0.81449 0.05769 0.44201 0.0
C3567 C 0.82566 0.03818 0.44622 0.0
N3568 N 0.79903 0.05715 0.42409 0.0
N3569 N 0.81628 0.03819 0.44012 0.0
H3570 H 0.79194 0.20896 0.82962 0.0
H3571 H 0.83084 0.17289 0.79211 0.0
H3572 H 0.79316 0.17337 0.8303 0.0
H3573 H 0.83129 0.20847 0.79364 0.0
H3574 H 0.8131 0.17291 0.80163 0.0
H3575 H 0.80199 0.20879 0.81222 0.0
C3576 C 0.79413 0.20109 0.82599 0.0
C3577 C 0.79203 0.19118 0.83156 0.0
C3578 C 0.81697 0.18072 0.79967 0.0
C3579 C 0.80367 0.19093 0.81177 0.0
C3580 C 0.82709 0.18072 0.79423 0.0
C3581 C 0.83268 0.19068 0.7924 0.0
C3582 C 0.81248 0.19076 0.80334 0.0
C3583 C 0.82738 0.20058 0.79515 0.0
C3584 C 0.79987 0.201 0.81605 0.0
C3585 C 0.79484 0.18122 0.82638 0.0
N3586 N 0.81767 0.20036 0.80068 0.0
N3587 N 0.80075 0.18136 0.81688 0.0
H3588 H 0.32571 0.54364 0.08355 0.0
H3589 H 0.29089 0.57445 0.0384 0.0
H3590 H 0.29145 0.53739 0.07639 0.0
H3591 H 0.32484 0.58197 0.04581 0.0
H3592 H 0.29285 0.5569 0.04801 0.0
H3593 H 0.32737 0.55341 0.06595 0.0
C3594 C 0.31863 0.54402 0.07812 0.0
C3595 C 0.30835 0.53999 0.08154 0.0
C3596 C 0.29996 0.56226 0.04736 0.0
C3597 C 0.31014 0.55123 0.06154 0.0
C3598 C 0.29883 0.57229 0.04185 0.0
C3599 C 0.30763 0.57978 0.04158 0.0
C3600 C 0.30987 0.55984 0.05285 0.0
C3601 C 0.3178 0.57649 0.046 0.0
C3602 C 0.31957 0.54964 0.06809 0.0
C3603 C 0.29947 0.54063 0.07417 0.0
N3604 N 0.31857 0.56687 0.05172 0.0
N3605 N 0.30051 0.54635 0.06462 0.0
H3606 H 0.1952 0.91669 0.58267 0.0
H3607 H 0.16515 0.95314 0.53838 0.0
H3608 H 0.20213 0.95103 0.57634 0.0
H3609 H 0.15735 0.91898 0.54465 0.0
H3610 H 0.18267 0.95069 0.54791 0.0
H3611 H 0.18555 0.91562 0.56498 0.0
C3612 C 0.19498 0.92392 0.57741 0.0
C3613 C 0.19919 0.93405 0.58109 0.0
C3614 C 0.17726 0.94364 0.547 0.0
C3615 C 0.18808 0.93293 0.56097 0.0
C3616 C 0.16726 0.94504 0.54153 0.0
C3617 C 0.15967 0.93633 0.541 0.0
C3618 C 0.17957 0.93353 0.5522 0.0
C3619 C 0.16289 0.92597 0.54504 0.0
C3620 C 0.18943 0.92331 0.56732 0.0
C3621 C 0.19875 0.94312 0.57393 0.0
N3622 N 0.17248 0.92492 0.55075 0.0
N3623 N 0.19309 0.9424 0.56431 0.0
H3624 H 0.66272 0.78694 0.70477 0.0
H3625 H 0.69422 0.82555 0.66327 0.0
H3626 H 0.65532 0.82144 0.70009 0.0
H3627 H 0.70081 0.79085 0.66777 0.0
H3628 H 0.68388 0.8256 0.68056 0.0
H3629 H 0.68039 0.78969 0.6956 0.0
C3630 C 0.66494 0.79516 0.70206 0.0
C3631 C 0.65743 0.80391 0.70291 0.0
C3632 C 0.6878 0.81803 0.6779 0.0
C3633 C 0.6775 0.80706 0.69215 0.0
C3634 C 0.69372 0.818 0.66803 0.0
C3635 C 0.69811 0.80811 0.66393 0.0
C3636 C 0.68621 0.80808 0.68364 0.0
C3637 C 0.69734 0.79861 0.6705 0.0
C3638 C 0.67503 0.79673 0.69679 0.0
C3639 C 0.6608 0.81442 0.69942 0.0
N3640 N 0.6913 0.79878 0.67992 0.0
N3641 N 0.67048 0.81566 0.69393 0.0
H3642 H 0.66635 0.40938 0.94822 0.0
H3643 H 0.69932 0.45561 0.91693 0.0
H3644 H 0.70034 0.41793 0.95418 0.0
H3645 H 0.66605 0.44599 0.9089 0.0
H3646 H 0.69752 0.44639 0.9347 0.0
H3647 H 0.66396 0.42677 0.93824 0.0
C3648 C 0.67321 0.41507 0.94773 0.0
C3649 C 0.68364 0.41209 0.95175 0.0
C3650 C 0.6905 0.44649 0.92918 0.0
C3651 C 0.68101 0.43188 0.94027 0.0
C3652 C 0.69153 0.45178 0.91903 0.0
C3653 C 0.68293 0.45129 0.91133 0.0
C3654 C 0.6809 0.44045 0.93152 0.0
C3655 C 0.67295 0.4464 0.91454 0.0
C3656 C 0.67186 0.42498 0.94199 0.0
C3657 C 0.69222 0.4198 0.95097 0.0
N3658 N 0.6723 0.44089 0.92429 0.0
N3659 N 0.69078 0.42923 0.94513 0.0
H3660 H 0.66664 0.33282 0.79265 0.0
H3661 H 0.66623 0.29541 0.8347 0.0
H3662 H 0.70175 0.32728 0.79219 0.0
H3663 H 0.70073 0.29055 0.82768 0.0
H3664 H 0.66419 0.30504 0.81726 0.0
H3665 H 0.66424 0.31563 0.80273 0.0
C3666 C 0.67384 0.32785 0.79448 0.0
C3667 C 0.68445 0.33166 0.79189 0.0
C3668 C 0.67218 0.30168 0.81928 0.0
C3669 C 0.68185 0.31211 0.80386 0.0
C3670 C 0.67332 0.2961 0.82931 0.0
C3671 C 0.68373 0.29246 0.83277 0.0
C3672 C 0.68156 0.30364 0.81271 0.0
C3673 C 0.6926 0.29348 0.82544 0.0
C3674 C 0.67248 0.31804 0.80041 0.0
C3675 C 0.69343 0.32481 0.79428 0.0
N3676 N 0.69135 0.29915 0.81588 0.0
N3677 N 0.69194 0.3155 0.80031 0.0
H3678 H 0.06909 0.94969 0.32953 0.0
H3679 H 0.03154 0.91347 0.29065 0.0
H3680 H 0.03354 0.95041 0.32918 0.0
H3681 H 0.06696 0.91082 0.29228 0.0
H3682 H 0.03259 0.93099 0.30048 0.0
H3683 H 0.06884 0.93971 0.31201 0.0
C3684 C 0.06124 0.94801 0.32563 0.0
C3685 C 0.05131 0.95061 0.33095 0.0
C3686 C 0.04016 0.9267 0.2985 0.0
C3687 C 0.05096 0.93911 0.31102 0.0
C3688 C 0.03957 0.9167 0.29287 0.0
C3689 C 0.04916 0.91055 0.29092 0.0
C3690 C 0.05041 0.93049 0.30236 0.0
C3691 C 0.05935 0.91521 0.2938 0.0
C3692 C 0.0611 0.94227 0.31564 0.0
C3693 C 0.04139 0.94834 0.32548 0.0
N3694 N 0.05969 0.92479 0.29961 0.0
N3695 N 0.04146 0.94253 0.31591 0.0
H3696 H 0.19753 0.15845 0.82211 0.0
H3697 H 0.16582 0.20396 0.78806 0.0
H3698 H 0.20094 0.16392 0.78712 0.0
H3699 H 0.15969 0.19685 0.82236 0.0
H3700 H 0.18297 0.19354 0.78916 0.0
H3701 H 0.18816 0.17624 0.82375 0.0
C3702 C 0.19659 0.16353 0.81482 0.0
C3703 C 0.19975 0.15958 0.80442 0.0
C3704 C 0.17801 0.19445 0.79653 0.0
C3705 C 0.18896 0.17986 0.80621 0.0
C3706 C 0.16822 0.20042 0.7959 0.0
C3707 C 0.1612 0.20102 0.80506 0.0
C3708 C 0.18069 0.18886 0.80632 0.0
C3709 C 0.1648 0.19645 0.81506 0.0
C3710 C 0.19119 0.17367 0.81576 0.0
C3711 C 0.19841 0.16654 0.79527 0.0
N3712 N 0.17417 0.19031 0.81536 0.0
N3713 N 0.19293 0.17624 0.79635 0.0
H3714 H 0.28701 0.41404 0.53966 0.0
H3715 H 0.33159 0.44588 0.5745 0.0
H3716 H 0.29424 0.40702 0.57377 0.0
H3717 H 0.32507 0.45109 0.53993 0.0
H3718 H 0.31415 0.43583 0.57605 0.0
H3719 H 0.29656 0.43164 0.54143 0.0
C3720 C 0.29037 0.41634 0.54761 0.0
C3721 C 0.2901 0.40895 0.5565 0.0
C3722 C 0.3164 0.43941 0.56819 0.0
C3723 C 0.30133 0.42894 0.55851 0.0
C3724 C 0.32635 0.44518 0.56731 0.0
C3725 C 0.32989 0.44906 0.557 0.0
C3726 C 0.31004 0.43753 0.55868 0.0
C3727 C 0.32276 0.448 0.54797 0.0
C3728 C 0.29586 0.42639 0.54862 0.0
C3729 C 0.29442 0.41242 0.56666 0.0
N3730 N 0.31327 0.44217 0.54898 0.0
N3731 N 0.30013 0.42205 0.56732 0.0
H3732 H 0.2856 0.32514 0.19884 0.0
H3733 H 0.33234 0.29577 0.16478 0.0
H3734 H 0.29471 0.33421 0.16568 0.0
H3735 H 0.3244 0.28906 0.1988 0.0
H3736 H 0.31473 0.30543 0.16279 0.0
H3737 H 0.29536 0.30771 0.19659 0.0
C3738 C 0.28942 0.32332 0.19097 0.0
C3739 C 0.28961 0.33122 0.18253 0.0
C3740 C 0.31671 0.30159 0.17061 0.0
C3741 C 0.30107 0.31144 0.18001 0.0
C3742 C 0.32674 0.29603 0.17174 0.0
C3743 C 0.32994 0.29188 0.18205 0.0
C3744 C 0.30989 0.30297 0.17988 0.0
C3745 C 0.32236 0.29238 0.19076 0.0
C3746 C 0.29503 0.31338 0.1897 0.0
C3747 C 0.29452 0.32839 0.17246 0.0
N3748 N 0.31279 0.29802 0.18953 0.0
N3749 N 0.30033 0.31884 0.17157 0.0
H3750 H 0.15793 0.54383 0.92105 0.0
H3751 H 0.20098 0.57811 0.95524 0.0
H3752 H 0.16375 0.53999 0.95594 0.0
H3753 H 0.19558 0.58219 0.92031 0.0
H3754 H 0.19138 0.56045 0.95448 0.0
H3755 H 0.17536 0.55383 0.91946 0.0
C3756 C 0.16302 0.54483 0.92832 0.0
C3757 C 0.15925 0.54139 0.9387 0.0
C3758 C 0.19247 0.56509 0.94692 0.0
C3759 C 0.17907 0.55292 0.93699 0.0
C3760 C 0.19795 0.57518 0.94736 0.0
C3761 C 0.19879 0.58175 0.93789 0.0
C3762 C 0.18761 0.56166 0.93698 0.0
C3763 C 0.19492 0.57747 0.92786 0.0
C3764 C 0.17295 0.55057 0.92742 0.0
C3765 C 0.16622 0.54277 0.94782 0.0
N3766 N 0.18925 0.5678 0.92771 0.0
N3767 N 0.17568 0.54863 0.94679 0.0
H3768 H 0.53467 0.41548 0.28844 0.0
H3769 H 0.57003 0.44966 0.33075 0.0
H3770 H 0.56956 0.41093 0.29355 0.0
H3771 H 0.53482 0.45246 0.32669 0.0
H3772 H 0.57107 0.43998 0.31311 0.0
H3773 H 0.53576 0.43317 0.29794 0.0
C3774 C 0.54262 0.41833 0.29134 0.0
C3775 C 0.55198 0.4116 0.29048 0.0
C3776 C 0.56315 0.44296 0.31594 0.0
C3777 C 0.55325 0.43173 0.30159 0.0
C3778 C 0.56256 0.44853 0.326 0.0
C3779 C 0.55227 0.45158 0.33034 0.0
C3780 C 0.55339 0.44038 0.31025 0.0
C3781 C 0.54288 0.45001 0.32378 0.0
C3782 C 0.54324 0.42844 0.29678 0.0
C3783 C 0.5621 0.41579 0.2942 0.0
N3784 N 0.54364 0.44432 0.31417 0.0
N3785 N 0.56242 0.42548 0.29985 0.0
H3786 H 0.19817 0.82106 0.16278 0.0
H3787 H 0.16308 0.78405 0.20274 0.0
H3788 H 0.2008 0.78565 0.16537 0.0
H3789 H 0.15929 0.81931 0.19967 0.0
H3790 H 0.1809 0.78536 0.19357 0.0
H3791 H 0.18829 0.82139 0.18034 0.0
C3792 C 0.19695 0.81339 0.16719 0.0
C3793 C 0.2 0.80327 0.16247 0.0
C3794 C 0.1763 0.79286 0.1951 0.0
C3795 C 0.1886 0.80357 0.18244 0.0
C3796 C 0.16611 0.79211 0.20035 0.0
C3797 C 0.15957 0.80154 0.20167 0.0
C3798 C 0.17985 0.80308 0.19095 0.0
C3799 C 0.16399 0.8118 0.19862 0.0
C3800 C 0.19126 0.81357 0.17721 0.0
C3801 C 0.19833 0.7936 0.16859 0.0
N3802 N 0.17375 0.81227 0.19313 0.0
N3803 N 0.19253 0.79396 0.17815 0.0
H3804 H 0.29389 0.16761 0.3321 0.0
H3805 H 0.32452 0.20202 0.28625 0.0
H3806 H 0.2878 0.20187 0.3246 0.0
H3807 H 0.33303 0.16861 0.29506 0.0
H3808 H 0.30704 0.19993 0.29592 0.0
H3809 H 0.30395 0.16582 0.31469 0.0
C3810 C 0.29437 0.17467 0.32663 0.0
C3811 C 0.29027 0.18498 0.32991 0.0
C3812 C 0.31261 0.19295 0.29556 0.0
C3813 C 0.30183 0.18303 0.3101 0.0
C3814 C 0.32259 0.19414 0.29001 0.0
C3815 C 0.33033 0.18557 0.2901 0.0
C3816 C 0.31046 0.1832 0.30144 0.0
C3817 C 0.32733 0.17548 0.29493 0.0
C3818 C 0.30016 0.17365 0.31672 0.0
C3819 C 0.29106 0.19382 0.32249 0.0
N3820 N 0.31774 0.17466 0.30067 0.0
N3821 N 0.29692 0.1927 0.31304 0.0
H3822 H 0.96209 0.04279 0.66066 0.0
H3823 H 0.92589 0.07893 0.70057 0.0
H3824 H 0.92653 0.04225 0.66158 0.0
H3825 H 0.96134 0.08071 0.69824 0.0
H3826 H 0.92633 0.06138 0.69069 0.0
H3827 H 0.96221 0.05225 0.67841 0.0
C3828 C 0.95431 0.04446 0.66471 0.0
C3829 C 0.94428 0.04204 0.6595 0.0
C3830 C 0.93404 0.06548 0.69256 0.0
C3831 C 0.94435 0.053 0.67971 0.0
C3832 C 0.93379 0.0755 0.69823 0.0
C3833 C 0.94357 0.08144 0.69991 0.0
C3834 C 0.94411 0.06149 0.68849 0.0
C3835 C 0.95358 0.07653 0.69687 0.0
C3836 C 0.95438 0.04987 0.67485 0.0
C3837 C 0.93446 0.0442 0.6652 0.0
N3838 N 0.95357 0.06695 0.69108 0.0
N3839 N 0.93473 0.04978 0.6749 0.0
H3840 H 0.53759 0.16665 0.95266 0.0
H3841 H 0.5832 0.19699 0.91804 0.0
H3842 H 0.54549 0.15856 0.91894 0.0
H3843 H 0.57535 0.20395 0.95202 0.0
H3844 H 0.56573 0.18705 0.91626 0.0
H3845 H 0.54718 0.18419 0.95052 0.0
C3846 C 0.54114 0.16869 0.94472 0.0
C3847 C 0.54101 0.16105 0.93605 0.0
C3848 C 0.56769 0.191 0.92402 0.0
C3849 C 0.55228 0.18097 0.93363 0.0
C3850 C 0.57765 0.19672 0.92503 0.0
C3851 C 0.58084 0.20102 0.93529 0.0
C3852 C 0.56096 0.18959 0.93336 0.0
C3853 C 0.57331 0.20051 0.94404 0.0
C3854 C 0.54664 0.17871 0.9435 0.0
C3855 C 0.54556 0.16418 0.92589 0.0
N3856 N 0.56383 0.1947 0.94293 0.0
N3857 N 0.55128 0.17379 0.92503 0.0
H3858 H 0.4471 0.90925 0.66724 0.0
H3859 H 0.41461 0.95188 0.70354 0.0
H3860 H 0.45221 0.91423 0.70209 0.0
H3861 H 0.40984 0.94812 0.66849 0.0
H3862 H 0.43205 0.94203 0.70204 0.0
H3863 H 0.43736 0.92691 0.66638 0.0
C3864 C 0.44644 0.91421 0.67465 0.0
C3865 C 0.45018 0.91015 0.68481 0.0
C3866 C 0.42733 0.94354 0.69462 0.0
C3867 C 0.43896 0.93024 0.68393 0.0
C3868 C 0.41736 0.94919 0.69548 0.0
C3869 C 0.41065 0.95055 0.68618 0.0
C3870 C 0.43046 0.93901 0.68442 0.0
C3871 C 0.4147 0.94708 0.67591 0.0
C3872 C 0.44085 0.92428 0.67416 0.0
C3873 C 0.4492 0.91693 0.69413 0.0
N3874 N 0.42422 0.9412 0.67534 0.0
N3875 N 0.4435 0.92653 0.69351 0.0
H3876 H 0.58108 0.04228 0.31915 0.0
H3877 H 0.54122 0.08014 0.28445 0.0
H3878 H 0.57952 0.04298 0.2836 0.0
H3879 H 0.54417 0.08133 0.3199 0.0
H3880 H 0.55093 0.06253 0.28443 0.0
H3881 H 0.56363 0.05231 0.31989 0.0
C3882 C 0.57694 0.04432 0.3115 0.0
C3883 C 0.5819 0.0421 0.30129 0.0
C3884 C 0.54927 0.06652 0.29224 0.0
C3885 C 0.56204 0.05363 0.30208 0.0
C3886 C 0.54372 0.07658 0.29226 0.0
C3887 C 0.54219 0.08234 0.30216 0.0
C3888 C 0.55345 0.0623 0.30219 0.0
C3889 C 0.54539 0.07726 0.31205 0.0
C3890 C 0.56699 0.05006 0.31193 0.0
C3891 C 0.57611 0.04478 0.29165 0.0
N3892 N 0.55111 0.06763 0.31179 0.0
N3893 N 0.56659 0.0506 0.29228 0.0
H3894 H 0.40917 0.29225 0.57271 0.0
H3895 H 0.45093 0.32674 0.53739 0.0
H3896 H 0.41442 0.28809 0.53778 0.0
H3897 H 0.44633 0.33098 0.5724 0.0
H3898 H 0.44179 0.30886 0.53854 0.0
H3899 H 0.42662 0.30225 0.57393 0.0
C3900 C 0.41416 0.29312 0.56536 0.0
C3901 C 0.4102 0.28964 0.55507 0.0
C3902 C 0.44297 0.31358 0.54603 0.0
C3903 C 0.43003 0.30122 0.55636 0.0
C3904 C 0.44819 0.3238 0.54537 0.0
C3905 C 0.44911 0.33047 0.55476 0.0
C3906 C 0.43843 0.31012 0.55611 0.0
C3907 C 0.44561 0.32617 0.56492 0.0
C3908 C 0.42411 0.29889 0.56605 0.0
C3909 C 0.41704 0.2909 0.54584 0.0
N3910 N 0.44016 0.31637 0.56529 0.0
N3911 N 0.4265 0.2968 0.54666 0.0
H3912 H 0.45186 0.7069 0.91288 0.0
H3913 H 0.40908 0.67292 0.94818 0.0
H3914 H 0.44672 0.67181 0.90974 0.0
H3915 H 0.41252 0.70836 0.94876 0.0
H3916 H 0.42674 0.67158 0.93857 0.0
H3917 H 0.44188 0.70661 0.93032 0.0
C3918 C 0.44887 0.69907 0.916 0.0
C3919 C 0.44984 0.68941 0.90971 0.0
C3920 C 0.42375 0.67964 0.94102 0.0
C3921 C 0.43819 0.68907 0.92954 0.0
C3922 C 0.41368 0.68041 0.94653 0.0
C3923 C 0.40919 0.69079 0.94899 0.0
C3924 C 0.42933 0.68932 0.93795 0.0
C3925 C 0.41555 0.7002 0.94678 0.0
C3926 C 0.44314 0.69892 0.92596 0.0
C3927 C 0.44598 0.67948 0.91424 0.0
N3928 N 0.4252 0.69925 0.9412 0.0
N3929 N 0.44007 0.67961 0.92376 0.0
H3930 H 0.78065 0.2003 0.16196 0.0
H3931 H 0.81763 0.16234 0.1998 0.0
H3932 H 0.81619 0.19962 0.16088 0.0
H3933 H 0.78208 0.16166 0.19902 0.0
H3934 H 0.81731 0.17978 0.18968 0.0
H3935 H 0.78118 0.19033 0.17942 0.0
C3936 C 0.78858 0.19827 0.16552 0.0
C3937 C 0.79838 0.20053 0.15982 0.0
C3938 C 0.80957 0.17594 0.19193 0.0
C3939 C 0.79904 0.18894 0.1797 0.0
C3940 C 0.80975 0.16599 0.19774 0.0
C3941 C 0.79987 0.1604 0.19999 0.0
C3942 C 0.79946 0.18027 0.18832 0.0
C3943 C 0.7899 0.16557 0.19724 0.0
C3944 C 0.78888 0.19255 0.17549 0.0
C3945 C 0.80842 0.19787 0.16491 0.0
N3946 N 0.78996 0.17511 0.19136 0.0
N3947 N 0.80849 0.19199 0.17445 0.0
H3948 H 0.32445 0.5432 0.45455 0.0
H3949 H 0.29605 0.57713 0.40702 0.0
H3950 H 0.33403 0.57619 0.44528 0.0
H3951 H 0.28816 0.54354 0.41575 0.0
H3952 H 0.30583 0.57916 0.42457 0.0
H3953 H 0.30725 0.54553 0.44443 0.0
C3954 C 0.32281 0.55104 0.45059 0.0
C3955 C 0.33077 0.55942 0.45052 0.0
C3956 C 0.30171 0.57144 0.42277 0.0
C3957 C 0.31124 0.56205 0.43865 0.0
C3958 C 0.29608 0.57029 0.41278 0.0
C3959 C 0.29155 0.56006 0.40983 0.0
C3960 C 0.3028 0.56227 0.42979 0.0
C3961 C 0.29177 0.5515 0.4176 0.0
C3962 C 0.31299 0.55237 0.44479 0.0
C3963 C 0.32815 0.56947 0.44541 0.0
N3964 N 0.29749 0.55273 0.42713 0.0
N3965 N 0.31872 0.57042 0.43942 0.0
H3966 H 0.92148 0.16234 0.54381 0.0
H3967 H 0.9584 0.20341 0.57824 0.0
H3968 H 0.95698 0.16389 0.54247 0.0
H3969 H 0.92326 0.19988 0.58237 0.0
H3970 H 0.95716 0.19345 0.56082 0.0
H3971 H 0.92129 0.18001 0.55353 0.0
C3972 C 0.92922 0.16651 0.54535 0.0
C3973 C 0.93928 0.16151 0.54261 0.0
C3974 C 0.94967 0.19506 0.5654 0.0
C3975 C 0.93913 0.18166 0.55375 0.0
C3976 C 0.95037 0.20079 0.57534 0.0
C3977 C 0.94096 0.20218 0.5819 0.0
C3978 C 0.93952 0.19056 0.56211 0.0
C3979 C 0.93075 0.1988 0.57765 0.0
C3980 C 0.92911 0.1766 0.55091 0.0
C3981 C 0.94905 0.16734 0.54467 0.0
N3982 N 0.93033 0.19289 0.56814 0.0
N3983 N 0.94874 0.17701 0.55029 0.0
H3984 H 0.82657 0.08419 0.04573 0.0
H3985 H 0.79259 0.03763 0.07545 0.0
H3986 H 0.79283 0.07568 0.03842 0.0
H3987 H 0.82588 0.04652 0.0842 0.0
H3988 H 0.79478 0.04731 0.05797 0.0
H3989 H 0.82859 0.06672 0.05564 0.0
C3990 C 0.81969 0.0785 0.04591 0.0
C3991 C 0.80942 0.0815 0.04152 0.0
C3992 C 0.80171 0.04696 0.06358 0.0
C3993 C 0.81163 0.06161 0.05293 0.0
C3994 C 0.80047 0.04141 0.07356 0.0
C3995 C 0.80898 0.04153 0.08138 0.0
C3996 C 0.81144 0.0529 0.06152 0.0
C3997 C 0.81906 0.04637 0.07845 0.0
C3998 C 0.82083 0.06854 0.05162 0.0
C3999 C 0.80082 0.07379 0.04193 0.0
N4000 N 0.81993 0.05214 0.06886 0.0
N4001 N 0.80205 0.0643 0.04773 0.0
H4002 H 0.41054 0.56938 0.29185 0.0
H4003 H 0.45013 0.53369 0.32841 0.0
H4004 H 0.41381 0.53401 0.28953 0.0
H4005 H 0.44772 0.56915 0.33045 0.0
H4006 H 0.44108 0.5343 0.31047 0.0
H4007 H 0.42803 0.57013 0.30181 0.0
C4008 C 0.4151 0.56181 0.29313 0.0
C4009 C 0.41056 0.55158 0.29018 0.0
C4010 C 0.44272 0.54199 0.31471 0.0
C4011 C 0.43044 0.55235 0.30172 0.0
C4012 C 0.4479 0.54163 0.32497 0.0
C4013 C 0.44939 0.55135 0.33105 0.0
C4014 C 0.43882 0.55211 0.31062 0.0
C4015 C 0.44653 0.56143 0.32612 0.0
C4016 C 0.42507 0.56223 0.29888 0.0
C4017 C 0.41688 0.54205 0.29193 0.0
N4018 N 0.44113 0.56153 0.3163 0.0
N4019 N 0.42637 0.54264 0.29781 0.0
H4020 H 0.70041 0.45608 0.57739 0.0
H4021 H 0.65835 0.42087 0.543 0.0
H4022 H 0.69635 0.42091 0.58118 0.0
H4023 H 0.66404 0.45571 0.53837 0.0
H4024 H 0.67567 0.41964 0.55325 0.0
H4025 H 0.69087 0.45509 0.55972 0.0
C4026 C 0.6977 0.44811 0.57439 0.0
C4027 C 0.69892 0.43861 0.58088 0.0
C4028 C 0.67327 0.4275 0.54976 0.0
C4029 C 0.68777 0.43743 0.56077 0.0
C4030 C 0.6634 0.42819 0.54385 0.0
C4031 C 0.65962 0.43847 0.54011 0.0
C4032 C 0.6793 0.43717 0.55196 0.0
C4033 C 0.66653 0.44767 0.54137 0.0
C4034 C 0.69225 0.44753 0.56429 0.0
C4035 C 0.69542 0.42847 0.57651 0.0
N4036 N 0.67591 0.44685 0.54738 0.0
N4037 N 0.68976 0.42818 0.56685 0.0
H4038 H 0.17131 0.91054 0.94912 0.0
H4039 H 0.20592 0.95263 0.91417 0.0
H4040 H 0.2066 0.91442 0.95109 0.0
H4041 H 0.17076 0.94828 0.91112 0.0
H4042 H 0.20538 0.94309 0.93186 0.0
H4043 H 0.1701 0.92839 0.93981 0.0
C4044 C 0.17877 0.91529 0.94789 0.0
C4045 C 0.18911 0.91085 0.95055 0.0
C4046 C 0.19774 0.94442 0.92745 0.0
C4047 C 0.1878 0.93115 0.93978 0.0
C4048 C 0.19805 0.94987 0.91734 0.0
C4049 C 0.18842 0.95095 0.91103 0.0
C4050 C 0.18777 0.93983 0.93117 0.0
C4051 C 0.17842 0.94742 0.91563 0.0
C4052 C 0.17808 0.92547 0.94253 0.0
C4053 C 0.19849 0.91741 0.9489 0.0
N4054 N 0.17838 0.94177 0.92531 0.0
N4055 N 0.19764 0.92712 0.9434 0.0
H4056 H 0.54266 0.91969 0.15709 0.0
H4057 H 0.57558 0.95019 0.20417 0.0
H4058 H 0.54015 0.95433 0.16488 0.0
H4059 H 0.58178 0.91667 0.19398 0.0
H4060 H 0.55806 0.94977 0.19434 0.0
H4061 H 0.55223 0.91666 0.1746 0.0
C4062 C 0.54383 0.9266 0.16263 0.0
C4063 C 0.54088 0.93733 0.15942 0.0
C4064 C 0.56312 0.9424 0.19444 0.0
C4065 C 0.55187 0.93394 0.17936 0.0
C4066 C 0.57311 0.94264 0.20008 0.0
C4067 C 0.58025 0.93355 0.19963 0.0
C4068 C 0.56035 0.9331 0.18812 0.0
C4069 C 0.57657 0.92392 0.19438 0.0
C4070 C 0.54933 0.92487 0.17261 0.0
C4071 C 0.54252 0.94597 0.16693 0.0
N4072 N 0.56698 0.92403 0.18858 0.0
N4073 N 0.54808 0.94412 0.17646 0.0
H4074 H 0.03988 0.28741 0.91772 0.0
H4075 H 0.07305 0.33396 0.94861 0.0
H4076 H 0.07376 0.29566 0.91081 0.0
H4077 H 0.03839 0.32724 0.95277 0.0
H4078 H 0.07517 0.3161 0.93943 0.0
H4079 H 0.04113 0.29755 0.93503 0.0
C4080 C 0.04768 0.29113 0.91999 0.0
C4081 C 0.05664 0.29097 0.91269 0.0
C4082 C 0.06716 0.31841 0.9426 0.0
C4083 C 0.05805 0.30284 0.93235 0.0
C4084 C 0.06596 0.32859 0.94788 0.0
C4085 C 0.05547 0.33219 0.95117 0.0
C4086 C 0.05781 0.31185 0.94062 0.0
C4087 C 0.04658 0.32489 0.95011 0.0
C4088 C 0.04839 0.29695 0.92987 0.0
C4089 C 0.0666 0.29575 0.91613 0.0
N4090 N 0.04791 0.31516 0.94474 0.0
N4091 N 0.06696 0.30176 0.92559 0.0
H4092 H 0.577 0.78689 0.53841 0.0
H4093 H 0.54367 0.82224 0.58125 0.0
H4094 H 0.58277 0.82148 0.54451 0.0
H4095 H 0.53919 0.78736 0.57568 0.0
H4096 H 0.55364 0.82354 0.56378 0.0
H4097 H 0.55916 0.78844 0.54753 0.0
C4098 C 0.57438 0.79488 0.54145 0.0
C4099 C 0.58148 0.804 0.54098 0.0
C4100 C 0.55022 0.81565 0.56623 0.0
C4101 C 0.5612 0.80578 0.55168 0.0
C4102 C 0.54448 0.81491 0.57619 0.0
C4103 C 0.54089 0.80461 0.58007 0.0
C4104 C 0.5524 0.80601 0.56018 0.0
C4105 C 0.54207 0.79543 0.57313 0.0
C4106 C 0.5642 0.79576 0.54668 0.0
C4107 C 0.57761 0.81419 0.54486 0.0
N4108 N 0.54793 0.7963 0.56364 0.0
N4109 N 0.56784 0.81475 0.55032 0.0
H4110 H 0.17204 0.83318 0.79189 0.0
H4111 H 0.20629 0.79136 0.82766 0.0
H4112 H 0.20733 0.82924 0.79004 0.0
H4113 H 0.17091 0.79447 0.82927 0.0
H4114 H 0.20618 0.80134 0.8102 0.0
H4115 H 0.17081 0.81551 0.80155 0.0
C4116 C 0.1795 0.82845 0.79324 0.0
C4117 C 0.18984 0.83282 0.79045 0.0
C4118 C 0.1984 0.79966 0.81424 0.0
C4119 C 0.18852 0.81272 0.80163 0.0
C4120 C 0.19847 0.79394 0.82422 0.0
C4121 C 0.18863 0.79235 0.83006 0.0
C4122 C 0.18844 0.80399 0.81019 0.0
C4123 C 0.17871 0.7957 0.82512 0.0
C4124 C 0.1788 0.81838 0.7988 0.0
C4125 C 0.19921 0.8263 0.79229 0.0
N4126 N 0.17889 0.8016 0.8156 0.0
N4127 N 0.19835 0.8167 0.79797 0.0
H4128 H 0.44866 0.83201 0.07514 0.0
H4129 H 0.4148 0.78928 0.0399 0.0
H4130 H 0.45174 0.82777 0.03994 0.0
H4131 H 0.41017 0.7947 0.07476 0.0
H4132 H 0.43236 0.79902 0.04092 0.0
H4133 H 0.43889 0.81441 0.07619 0.0
C4134 C 0.4475 0.82725 0.06767 0.0
C4135 C 0.4507 0.8315 0.05739 0.0
C4136 C 0.42762 0.79789 0.0484 0.0
C4137 C 0.43944 0.81147 0.05851 0.0
C4138 C 0.41759 0.79232 0.04783 0.0
C4139 C 0.41088 0.79149 0.0572 0.0
C4140 C 0.43086 0.80279 0.05839 0.0
C4141 C 0.415 0.79537 0.06729 0.0
C4142 C 0.44191 0.81721 0.06827 0.0
C4143 C 0.44916 0.82492 0.048 0.0
N4144 N 0.42461 0.8011 0.06757 0.0
N4145 N 0.44344 0.81534 0.04876 0.0
H4146 H 0.54144 0.66252 0.45846 0.0
H4147 H 0.57976 0.70053 0.42247 0.0
H4148 H 0.54256 0.66176 0.42291 0.0
H4149 H 0.57898 0.70037 0.45805 0.0
H4150 H 0.56225 0.69057 0.42226 0.0
H4151 H 0.55089 0.68027 0.45819 0.0
C4152 C 0.54347 0.66621 0.45058 0.0
C4153 C 0.5415 0.66053 0.4407 0.0
C4154 C 0.56577 0.69294 0.43011 0.0
C4155 C 0.55252 0.68073 0.44033 0.0
C4156 C 0.57576 0.69866 0.43024 0.0
C4157 C 0.58098 0.70098 0.4403 0.0
C4158 C 0.56105 0.68948 0.44012 0.0
C4159 C 0.57537 0.69849 0.4501 0.0
C4160 C 0.54888 0.67635 0.45042 0.0
C4161 C 0.54412 0.66577 0.43073 0.0
N4162 N 0.56582 0.69267 0.44977 0.0
N4163 N 0.54974 0.67547 0.4308 0.0
H4164 H 0.57404 0.29226 0.03675 0.0
H4165 H 0.5434 0.32613 0.08299 0.0
H4166 H 0.58183 0.32593 0.04526 0.0
H4167 H 0.53844 0.29156 0.07615 0.0
H4168 H 0.55297 0.32804 0.06533 0.0
H4169 H 0.55671 0.29391 0.04677 0.0
C4170 C 0.57197 0.3001 0.0405 0.0
C4171 C 0.57949 0.30888 0.04043 0.0
C4172 C 0.54954 0.3201 0.06756 0.0
C4173 C 0.55981 0.31074 0.05216 0.0
C4174 C 0.54403 0.31902 0.07762 0.0
C4175 C 0.54038 0.3086 0.08115 0.0
C4176 C 0.55139 0.3107 0.06104 0.0
C4177 C 0.54135 0.29968 0.07385 0.0
C4178 C 0.56207 0.30104 0.04626 0.0
C4179 C 0.57631 0.3189 0.04526 0.0
N4180 N 0.54694 0.30089 0.06424 0.0
N4181 N 0.56682 0.31948 0.0512 0.0
H4182 H 0.03769 0.82877 0.45329 0.0
H4183 H 0.07221 0.79472 0.40991 0.0
H4184 H 0.07239 0.83358 0.44726 0.0
H4185 H 0.03689 0.79307 0.41377 0.0
H4186 H 0.07347 0.80449 0.4275 0.0
H4187 H 0.03853 0.81135 0.4433 0.0
C4188 C 0.04555 0.82602 0.45009 0.0
C4189 C 0.05492 0.83276 0.45082 0.0
C4190 C 0.06547 0.80177 0.42462 0.0
C4191 C 0.05589 0.81296 0.43916 0.0
C4192 C 0.06474 0.79618 0.41458 0.0
C4193 C 0.05439 0.79335 0.41024 0.0
C4194 C 0.05578 0.80455 0.43031 0.0
C4195 C 0.04501 0.79533 0.41669 0.0
C4196 C 0.04603 0.81608 0.44435 0.0
C4197 C 0.06494 0.82871 0.44671 0.0
N4198 N 0.04591 0.80098 0.42631 0.0
N4199 N 0.0651 0.81919 0.4408 0.0
H4200 H 0.57651 0.45556 0.70322 0.0
H4201 H 0.54213 0.42153 0.65978 0.0
H4202 H 0.58099 0.42083 0.69688 0.0
H4203 H 0.54122 0.45693 0.6635 0.0
H4204 H 0.55155 0.42011 0.67754 0.0
H4205 H 0.559 0.45493 0.69338 0.0
C4206 C 0.57367 0.44773 0.69997 0.0
C4207 C 0.58034 0.4383 0.70057 0.0
C4208 C 0.54905 0.42816 0.67459 0.0
C4209 C 0.56044 0.43757 0.68911 0.0
C4210 C 0.54365 0.42898 0.66446 0.0
C4211 C 0.54119 0.43939 0.66003 0.0
C4212 C 0.55201 0.43782 0.68027 0.0
C4213 C 0.54322 0.44875 0.6665 0.0
C4214 C 0.56368 0.44738 0.69434 0.0
C4215 C 0.57618 0.42833 0.69643 0.0
N4216 N 0.5487 0.44776 0.6762 0.0
N4217 N 0.5666 0.42828 0.69061 0.0
H4218 H 0.44763 0.07333 0.82869 0.0
H4219 H 0.41185 0.03433 0.79144 0.0
H4220 H 0.45208 0.03807 0.82647 0.0
H4221 H 0.40865 0.06979 0.79179 0.0
H4222 H 0.42972 0.03605 0.80047 0.0
H4223 H 0.43683 0.07281 0.8117 0.0
C4224 C 0.44657 0.06552 0.82448 0.0
C4225 C 0.45047 0.05568 0.82916 0.0
C4226 C 0.42523 0.04348 0.79838 0.0
C4227 C 0.438 0.055 0.80984 0.0
C4228 C 0.41501 0.04249 0.79322 0.0
C4229 C 0.40864 0.05191 0.79114 0.0
C4230 C 0.42899 0.05395 0.80166 0.0
C4231 C 0.41321 0.06229 0.79345 0.0
C4232 C 0.44038 0.06522 0.81478 0.0
C4233 C 0.44898 0.04582 0.82329 0.0
N4234 N 0.42301 0.06303 0.79882 0.0
N4235 N 0.44267 0.04569 0.81406 0.0
H4236 H 0.92084 0.66324 0.04414 0.0
H4237 H 0.95731 0.70368 0.07976 0.0
H4238 H 0.95639 0.66443 0.04379 0.0
H4239 H 0.92226 0.69933 0.0839 0.0
H4240 H 0.95621 0.69421 0.06206 0.0
H4241 H 0.92056 0.68086 0.05393 0.0
C4242 C 0.92859 0.66734 0.04586 0.0
C4243 C 0.93867 0.66222 0.04344 0.0
C4244 C 0.94871 0.69553 0.06671 0.0
C4245 C 0.9384 0.6823 0.05469 0.0
C4246 C 0.94933 0.70097 0.07682 0.0
C4247 C 0.93991 0.70199 0.08344 0.0
C4248 C 0.93864 0.69096 0.0633 0.0
C4249 C 0.92976 0.69852 0.07913 0.0
C4250 C 0.92841 0.6774 0.05148 0.0
C4251 C 0.94843 0.66797 0.04573 0.0
N4252 N 0.92943 0.6929 0.06944 0.0
N4253 N 0.94806 0.67761 0.05142 0.0
H4254 H 0.44688 0.17281 0.4105 0.0
H4255 H 0.41176 0.20763 0.4527 0.0
H4256 H 0.4474 0.20831 0.41327 0.0
H4257 H 0.40785 0.17264 0.44746 0.0
H4258 H 0.42932 0.20696 0.44297 0.0
H4259 H 0.43723 0.17178 0.42817 0.0
C4260 C 0.44519 0.18038 0.41494 0.0
C4261 C 0.44765 0.19069 0.41028 0.0
C4262 C 0.42476 0.19937 0.44415 0.0
C4263 C 0.4366 0.18956 0.43042 0.0
C4264 C 0.41474 0.19975 0.44973 0.0
C4265 C 0.40821 0.19024 0.45059 0.0
C4266 C 0.42816 0.18945 0.43923 0.0
C4267 C 0.41255 0.18021 0.44679 0.0
C4268 C 0.43968 0.17978 0.42503 0.0
C4269 C 0.44542 0.20021 0.41645 0.0
N4270 N 0.42214 0.18012 0.44101 0.0
N4271 N 0.43984 0.19942 0.42611 0.0
H4272 H 0.45326 0.41636 0.20252 0.0
H4273 H 0.40807 0.44811 0.16879 0.0
H4274 H 0.4456 0.40989 0.1684 0.0
H4275 H 0.41479 0.45268 0.20342 0.0
H4276 H 0.42585 0.43883 0.16678 0.0
H4277 H 0.44381 0.43406 0.20111 0.0
C4278 C 0.44982 0.4188 0.19465 0.0
C4279 C 0.44993 0.41154 0.18565 0.0
C4280 C 0.42357 0.44213 0.17476 0.0
C4281 C 0.43884 0.43163 0.18405 0.0
C4282 C 0.41343 0.44748 0.1759 0.0
C4283 C 0.40983 0.45086 0.18636 0.0
C4284 C 0.43007 0.44016 0.18415 0.0
C4285 C 0.41714 0.44992 0.19526 0.0
C4286 C 0.4444 0.4289 0.19384 0.0
C4287 C 0.44553 0.41519 0.17559 0.0
N4288 N 0.42682 0.44446 0.194 0.0
N4289 N 0.43989 0.42486 0.17513 0.0
H4290 H 0.57614 0.53749 0.79038 0.0
H4291 H 0.54463 0.58275 0.82473 0.0
H4292 H 0.58374 0.54574 0.82413 0.0
H4293 H 0.53955 0.57602 0.79018 0.0
H4294 H 0.55457 0.56527 0.82646 0.0
H4295 H 0.5586 0.54714 0.79214 0.0
C4296 C 0.57399 0.54111 0.79825 0.0
C4297 C 0.5815 0.54107 0.80703 0.0
C4298 C 0.55103 0.56748 0.81856 0.0
C4299 C 0.56158 0.55238 0.80903 0.0
C4300 C 0.54531 0.57744 0.81759 0.0
C4301 C 0.54152 0.58096 0.80723 0.0
C4302 C 0.55296 0.56106 0.80911 0.0
C4303 C 0.54256 0.57373 0.79827 0.0
C4304 C 0.56398 0.54665 0.79926 0.0
C4305 C 0.57823 0.54572 0.8171 0.0
N4306 N 0.54836 0.56423 0.79937 0.0
N4307 N 0.56861 0.55145 0.81775 0.0
H4308 H 0.81595 0.70033 0.66072 0.0
H4309 H 0.78061 0.66319 0.70051 0.0
H4310 H 0.7804 0.69942 0.66144 0.0
H4311 H 0.81613 0.66258 0.69886 0.0
H4312 H 0.78065 0.68069 0.69059 0.0
H4313 H 0.81633 0.69097 0.67857 0.0
C4314 C 0.80822 0.69839 0.66475 0.0
C4315 C 0.79813 0.70034 0.65946 0.0
C4316 C 0.78846 0.67687 0.6926 0.0
C4317 C 0.79851 0.68957 0.67978 0.0
C4318 C 0.78844 0.66687 0.69828 0.0
C4319 C 0.79837 0.66127 0.70019 0.0
C4320 C 0.79846 0.68117 0.68866 0.0
C4321 C 0.80827 0.66652 0.69734 0.0
C4322 C 0.80844 0.69303 0.67494 0.0
C4323 C 0.78837 0.69781 0.66511 0.0
N4324 N 0.80806 0.67605 0.69146 0.0
N4325 N 0.7888 0.69236 0.67487 0.0
H4326 H 0.28976 0.03908 0.91633 0.0
H4327 H 0.33445 0.07261 0.94973 0.0
H4328 H 0.29642 0.07375 0.91172 0.0
H4329 H 0.32961 0.0374 0.95184 0.0
H4330 H 0.31669 0.07428 0.94034 0.0
H4331 H 0.3002 0.03955 0.93352 0.0
C4332 C 0.29324 0.04685 0.91905 0.0
C4333 C 0.29249 0.05632 0.91245 0.0
C4334 C 0.31939 0.06622 0.9431 0.0
C4335 C 0.30458 0.05689 0.93202 0.0
C4336 C 0.32951 0.06527 0.94851 0.0
C4337 C 0.33363 0.05482 0.95127 0.0
C4338 C 0.31343 0.05664 0.94043 0.0
C4339 C 0.32685 0.0456 0.94959 0.0
C4340 C 0.2992 0.04712 0.92887 0.0
C4341 C 0.29698 0.06621 0.91646 0.0
N4342 N 0.31718 0.0467 0.94408 0.0
N4343 N 0.30305 0.06618 0.92588 0.0
H4344 H 0.82194 0.58197 0.54463 0.0
H4345 H 0.78678 0.53832 0.57752 0.0
H4346 H 0.78714 0.57625 0.54007 0.0
H4347 H 0.82132 0.54441 0.58336 0.0
H4348 H 0.78823 0.54801 0.55996 0.0
H4349 H 0.82324 0.56455 0.55477 0.0
C4350 C 0.81464 0.5769 0.5455 0.0
C4351 C 0.80436 0.58068 0.54177 0.0
C4352 C 0.79557 0.54704 0.56495 0.0
C4353 C 0.80575 0.56086 0.55343 0.0
C4354 C 0.79475 0.54147 0.57497 0.0
C4355 C 0.80388 0.54082 0.58202 0.0
C4356 C 0.80554 0.55218 0.56206 0.0
C4357 C 0.81403 0.54488 0.57824 0.0
C4358 C 0.81537 0.56698 0.55132 0.0
C4359 C 0.79519 0.57376 0.54304 0.0
N4360 N 0.81453 0.55065 0.56863 0.0
N4361 N 0.79606 0.56429 0.54894 0.0
H4362 H 0.66138 0.91966 0.04369 0.0
H4363 H 0.70413 0.95523 0.07745 0.0
H4364 H 0.66479 0.95504 0.04169 0.0
H4365 H 0.69796 0.92063 0.08313 0.0
H4366 H 0.69448 0.95389 0.05987 0.0
H4367 H 0.67899 0.91872 0.05345 0.0
C4368 C 0.66597 0.9272 0.04504 0.0
C4369 C 0.66149 0.93748 0.04216 0.0
C4370 C 0.69543 0.94652 0.06483 0.0
C4371 C 0.68156 0.93646 0.05336 0.0
C4372 C 0.70097 0.94728 0.07486 0.0
C4373 C 0.70156 0.93809 0.08187 0.0
C4374 C 0.69029 0.93657 0.06189 0.0
C4375 C 0.69752 0.92796 0.07804 0.0
C4376 C 0.67601 0.92666 0.05064 0.0
C4377 C 0.66783 0.94697 0.044 0.0
N4378 N 0.69179 0.92752 0.06841 0.0
N4379 N 0.67745 0.94625 0.04966 0.0
H4380 H 0.2075 0.44941 0.41414 0.0
H4381 H 0.17206 0.40822 0.44955 0.0
H4382 H 0.17221 0.44606 0.41127 0.0
H4383 H 0.20732 0.41198 0.45219 0.0
H4384 H 0.17117 0.42573 0.43958 0.0
H4385 H 0.20681 0.43967 0.43171 0.0
C4386 C 0.19957 0.4468 0.41731 0.0
C4387 C 0.18993 0.44828 0.41111 0.0
C4388 C 0.17908 0.42286 0.44258 0.0
C4389 C 0.18909 0.43695 0.43113 0.0
C4390 C 0.17958 0.41288 0.44832 0.0
C4391 C 0.18982 0.4085 0.4514 0.0
C4392 C 0.18889 0.4284 0.43987 0.0
C4393 C 0.19928 0.41493 0.4497 0.0
C4394 C 0.19917 0.44124 0.42736 0.0
C4395 C 0.17987 0.44492 0.41571 0.0
N4396 N 0.19862 0.42445 0.44385 0.0
N4397 N 0.17973 0.43917 0.42533 0.0
H4398 H 0.16618 0.29503 0.33284 0.0
H4399 H 0.20017 0.32534 0.28661 0.0
H4400 H 0.20011 0.28835 0.32465 0.0
H4401 H 0.16703 0.33419 0.29591 0.0
H4402 H 0.19795 0.30774 0.29608 0.0
H4403 H 0.16417 0.30504 0.31542 0.0
C4404 C 0.1731 0.29536 0.32722 0.0
C4405 C 0.18342 0.29112 0.3303 0.0
C4406 C 0.19106 0.3134 0.29587 0.0
C4407 C 0.18122 0.30264 0.31048 0.0
C4408 C 0.19232 0.32345 0.29043 0.0
C4409 C 0.18387 0.33133 0.29073 0.0
C4410 C 0.18137 0.31133 0.30186 0.0
C4411 C 0.17381 0.3284 0.29563 0.0
C4412 C 0.17197 0.30113 0.31729 0.0
C4413 C 0.19209 0.29173 0.32269 0.0
N4414 N 0.17293 0.31874 0.30127 0.0
N4415 N 0.19086 0.29758 0.31324 0.0
H4416 H 0.10887 0.07135 0.45848 0.0
H4417 H 0.07036 0.10904 0.42075 0.0
H4418 H 0.11019 0.07105 0.42292 0.0
H4419 H 0.07064 0.11004 0.45633 0.0
H4420 H 0.08632 0.0967 0.42121 0.0
H4421 H 0.09638 0.08708 0.45771 0.0
C4422 C 0.10661 0.07468 0.4505 0.0
C4423 C 0.11047 0.06981 0.44075 0.0
C4424 C 0.08296 0.09972 0.4289 0.0
C4425 C 0.09604 0.08777 0.43979 0.0
C4426 C 0.07385 0.10677 0.42865 0.0
C4427 C 0.06907 0.11047 0.43853 0.0
C4428 C 0.08729 0.09632 0.4391 0.0
C4429 C 0.07398 0.10731 0.44852 0.0
C4430 C 0.09947 0.08367 0.45006 0.0
C4431 C 0.10736 0.07453 0.43064 0.0
N4432 N 0.08274 0.10034 0.44854 0.0
N4433 N 0.1002 0.08317 0.43042 0.0
H4434 H 0.88265 0.31934 0.67007 0.0
H4435 H 0.92221 0.35867 0.70512 0.0
H4436 H 0.88359 0.32024 0.70563 0.0
H4437 H 0.92218 0.35771 0.66955 0.0
H4438 H 0.90639 0.34629 0.7053 0.0
H4439 H 0.89537 0.33501 0.66955 0.0
C4440 C 0.88543 0.32291 0.67776 0.0
C4441 C 0.88216 0.31839 0.68791 0.0
C4442 C 0.90976 0.34885 0.69744 0.0
C4443 C 0.89675 0.33627 0.68738 0.0
C4444 C 0.9188 0.35593 0.69733 0.0
C4445 C 0.9236 0.35913 0.6873 0.0
C4446 C 0.90548 0.34485 0.68745 0.0
C4447 C 0.91878 0.35539 0.67747 0.0
C4448 C 0.8927 0.33185 0.67747 0.0
C4449 C 0.88597 0.32339 0.69762 0.0
N4450 N 0.91004 0.34835 0.67778 0.0
N4451 N 0.89313 0.33199 0.69711 0.0
H4452 H 0.63275 0.17243 0.92321 0.0
H4453 H 0.67487 0.13735 0.95954 0.0
H4454 H 0.63376 0.17313 0.95878 0.0
H4455 H 0.67115 0.13271 0.92445 0.0
H4456 H 0.65905 0.14974 0.95939 0.0
H4457 H 0.64594 0.15712 0.92339 0.0
C4458 C 0.63565 0.16929 0.93105 0.0
C4459 C 0.63224 0.17414 0.94099 0.0
C4460 C 0.66161 0.14595 0.95172 0.0
C4461 C 0.64737 0.15672 0.94125 0.0
C4462 C 0.67067 0.13888 0.95181 0.0
C4463 C 0.67439 0.13406 0.94198 0.0
C4464 C 0.65628 0.14834 0.94172 0.0
C4465 C 0.66858 0.13629 0.93221 0.0
C4466 C 0.64318 0.16056 0.93115 0.0
C4467 C 0.63622 0.16971 0.95091 0.0
N4468 N 0.65987 0.14336 0.93231 0.0
N4469 N 0.64364 0.16133 0.95078 0.0
H4470 H 0.82143 0.88167 0.17111 0.0
H4471 H 0.86121 0.91904 0.20784 0.0
H4472 H 0.82283 0.88058 0.20665 0.0
H4473 H 0.85976 0.92101 0.17234 0.0
H4474 H 0.84929 0.90286 0.20725 0.0
H4475 H 0.83748 0.89393 0.17109 0.0
C4476 C 0.82521 0.88387 0.17889 0.0
C4477 C 0.82069 0.88024 0.18891 0.0
C4478 C 0.85166 0.90674 0.19957 0.0
C4479 C 0.83898 0.89429 0.18895 0.0
C4480 C 0.85848 0.91599 0.1999 0.0
C4481 C 0.86135 0.92148 0.19014 0.0
C4482 C 0.84758 0.90298 0.1894 0.0
C4483 C 0.85766 0.91708 0.18008 0.0
C4484 C 0.83435 0.89089 0.17888 0.0
C4485 C 0.82595 0.8833 0.19874 0.0
N4486 N 0.85085 0.90817 0.17998 0.0
N4487 N 0.83473 0.89023 0.19852 0.0
H4488 H 0.07198 0.13375 0.78233 0.0
H4489 H 0.10933 0.17312 0.81954 0.0
H4490 H 0.07133 0.13325 0.8179 0.0
H4491 H 0.11008 0.17245 0.78397 0.0
H4492 H 0.09718 0.15696 0.81935 0.0
H4493 H 0.08774 0.1462 0.78297 0.0
C4494 C 0.07525 0.13616 0.79028 0.0
C4495 C 0.07025 0.13257 0.80007 0.0
C4496 C 0.10011 0.16028 0.8116 0.0
C4497 C 0.08824 0.14698 0.80089 0.0
C4498 C 0.10705 0.1695 0.81171 0.0
C4499 C 0.1106 0.17422 0.80175 0.0
C4500 C 0.0967 0.1558 0.80146 0.0
C4501 C 0.10744 0.16916 0.79184 0.0
C4502 C 0.08425 0.14329 0.79065 0.0
C4503 C 0.07489 0.13588 0.81015 0.0
N4504 N 0.1006 0.16031 0.79195 0.0
N4505 N 0.08354 0.14303 0.8103 0.0
H4506 H 0.81785 0.35749 0.07193 0.0
H4507 H 0.85976 0.32191 0.0357 0.0
H4508 H 0.82047 0.35945 0.03649 0.0
H4509 H 0.85801 0.31962 0.07116 0.0
H4510 H 0.84693 0.33735 0.03621 0.0
H4511 H 0.83395 0.34527 0.07221 0.0
C4512 C 0.82188 0.35546 0.06422 0.0
C4513 C 0.81774 0.35939 0.05416 0.0
C4514 C 0.84941 0.33357 0.04391 0.0
C4515 C 0.83611 0.34542 0.05441 0.0
C4516 C 0.85676 0.32474 0.04362 0.0
C4517 C 0.85986 0.31939 0.05339 0.0
C4518 C 0.84503 0.33704 0.05405 0.0
C4519 C 0.85579 0.32348 0.06342 0.0
C4520 C 0.83106 0.34848 0.06439 0.0
C4521 C 0.82331 0.35653 0.04444 0.0
N4522 N 0.84846 0.33198 0.06349 0.0
N4523 N 0.83214 0.34966 0.0448 0.0
H4524 H 0.6743 0.10622 0.28215 0.0
H4525 H 0.63184 0.06975 0.317 0.0
H4526 H 0.66972 0.11001 0.31723 0.0
H4527 H 0.63873 0.06511 0.2824 0.0
H4528 H 0.64375 0.0861 0.31694 0.0
H4529 H 0.65925 0.09293 0.28177 0.0
C4530 C 0.67004 0.10433 0.28977 0.0
C4531 C 0.67336 0.10912 0.29976 0.0
C4532 C 0.64257 0.08155 0.30935 0.0
C4533 C 0.65615 0.09378 0.29941 0.0
C4534 C 0.63577 0.07223 0.30938 0.0
C4535 C 0.63439 0.06599 0.29972 0.0
C4536 C 0.64799 0.08465 0.29959 0.0
C4537 C 0.63964 0.0696 0.29006 0.0
C4538 C 0.66145 0.09672 0.28955 0.0
C4539 C 0.66746 0.10645 0.30936 0.0
N4540 N 0.64624 0.07864 0.29027 0.0
N4541 N 0.65921 0.09885 0.30897 0.0
H4542 H 0.88188 0.92224 0.57053 0.0
H4543 H 0.92062 0.88353 0.53382 0.0
H4544 H 0.88411 0.9236 0.53505 0.0
H4545 H 0.92251 0.88473 0.56933 0.0
H4546 H 0.90479 0.89585 0.5344 0.0
H4547 H 0.89434 0.90629 0.57047 0.0
C4548 C 0.88485 0.91908 0.56273 0.0
C4549 C 0.88207 0.92432 0.55278 0.0
C4550 C 0.90859 0.89337 0.54209 0.0
C4551 C 0.89628 0.90615 0.55266 0.0
C4552 C 0.91763 0.88631 0.54176 0.0
C4553 C 0.92298 0.88322 0.55154 0.0
C4554 C 0.90487 0.89745 0.55226 0.0
C4555 C 0.91867 0.88698 0.5616 0.0
C4556 C 0.89199 0.91002 0.5627 0.0
C4557 C 0.88615 0.91989 0.54291 0.0
N4558 N 0.90992 0.89401 0.5617 0.0
N4559 N 0.89309 0.91113 0.54311 0.0
H4560 H 0.45642 0.07178 0.10984 0.0
H4561 H 0.42063 0.11018 0.07017 0.0
H4562 H 0.42088 0.07092 0.10903 0.0
H4563 H 0.45611 0.11119 0.07248 0.0
H4564 H 0.42021 0.09746 0.08588 0.0
H4565 H 0.45615 0.08783 0.09776 0.0
C4566 C 0.44854 0.07505 0.1072 0.0
C4567 C 0.43866 0.06993 0.11034 0.0
C4568 C 0.42807 0.10057 0.08302 0.0
C4569 C 0.43828 0.08829 0.09636 0.0
C4570 C 0.42832 0.10785 0.07407 0.0
C4571 C 0.43843 0.11163 0.06992 0.0
C4572 C 0.43802 0.09707 0.08783 0.0
C4573 C 0.44813 0.10838 0.07532 0.0
C4574 C 0.44839 0.08423 0.10029 0.0
C4575 C 0.42869 0.07459 0.10676 0.0
N4576 N 0.44768 0.10122 0.08391 0.0
N4577 N 0.42875 0.08343 0.09983 0.0
H4578 H 0.91958 0.70794 0.35879 0.0
H4579 H 0.88278 0.67154 0.31795 0.0
H4580 H 0.92156 0.67242 0.35704 0.0
H4581 H 0.88159 0.70708 0.31972 0.0
H4582 H 0.89533 0.67141 0.33378 0.0
H4583 H 0.90401 0.7075 0.34608 0.0
C4584 C 0.91667 0.70003 0.35582 0.0
C4585 C 0.92195 0.69021 0.35889 0.0
C4586 C 0.89223 0.67922 0.33076 0.0
C4587 C 0.90416 0.68965 0.34423 0.0
C4588 C 0.88505 0.6793 0.32174 0.0
C4589 C 0.88123 0.68934 0.31744 0.0
C4590 C 0.8956 0.68926 0.33549 0.0
C4591 C 0.88442 0.69915 0.3227 0.0
C4592 C 0.90777 0.69979 0.34854 0.0
C4593 C 0.91777 0.6802 0.35483 0.0
N4594 N 0.89148 0.69887 0.33137 0.0
N4595 N 0.90919 0.68018 0.34762 0.0
H4596 H 0.31831 0.17356 0.60871 0.0
H4597 H 0.2834 0.13061 0.57317 0.0
H4598 H 0.28286 0.17086 0.60949 0.0
H4599 H 0.31879 0.13338 0.57111 0.0
H4600 H 0.2835 0.1432 0.58882 0.0
H4601 H 0.31908 0.15696 0.59721 0.0
C4602 C 0.31071 0.1694 0.60658 0.0
C4603 C 0.30049 0.17368 0.60992 0.0
C4604 C 0.29128 0.14097 0.58506 0.0
C4605 C 0.30131 0.15473 0.59679 0.0
C4606 C 0.29122 0.13375 0.57612 0.0
C4607 C 0.30108 0.13108 0.57073 0.0
C4608 C 0.30126 0.14565 0.58858 0.0
C4609 C 0.31099 0.1353 0.57498 0.0
C4610 C 0.31115 0.15993 0.60001 0.0
C4611 C 0.29091 0.16793 0.60698 0.0
N4612 N 0.31081 0.14252 0.58356 0.0
N4613 N 0.29155 0.15882 0.60051 0.0
H4614 H 0.85421 0.53394 0.81602 0.0
H4615 H 0.81731 0.56994 0.85684 0.0
H4616 H 0.85726 0.56933 0.81858 0.0
H4617 H 0.81782 0.53433 0.8564 0.0
H4618 H 0.8328 0.57008 0.84384 0.0
H4619 H 0.84173 0.53404 0.83174 0.0
C4620 C 0.85231 0.54174 0.81995 0.0
C4621 C 0.85669 0.55165 0.81593 0.0
C4622 C 0.82959 0.56225 0.8467 0.0
C4623 C 0.8423 0.55185 0.83393 0.0
C4624 C 0.82076 0.56216 0.85412 0.0
C4625 C 0.81619 0.55211 0.85761 0.0
C4626 C 0.83381 0.5522 0.84273 0.0
C4627 C 0.821 0.54228 0.85385 0.0
C4628 C 0.84518 0.54179 0.82895 0.0
C4629 C 0.85401 0.5615 0.82141 0.0
N4630 N 0.82947 0.54258 0.84655 0.0
N4631 N 0.84688 0.56137 0.83006 0.0
H4632 H 0.45917 0.17123 0.1307 0.0
H4633 H 0.42298 0.13289 0.17009 0.0
H4634 H 0.42361 0.17153 0.1311 0.0
H4635 H 0.45853 0.13405 0.17048 0.0
H4636 H 0.42299 0.14481 0.15381 0.0
H4637 H 0.459 0.15539 0.14311 0.0
C4638 C 0.45132 0.16787 0.13329 0.0
C4639 C 0.44139 0.17281 0.12999 0.0
C4640 C 0.43079 0.14235 0.15738 0.0
C4641 C 0.44113 0.15472 0.1443 0.0
C4642 C 0.43079 0.13554 0.16667 0.0
C4643 C 0.44077 0.1326 0.17174 0.0
C4644 C 0.44083 0.14626 0.15315 0.0
C4645 C 0.45064 0.13621 0.16691 0.0
C4646 C 0.45122 0.15883 0.1404 0.0
C4647 C 0.43146 0.16804 0.13352 0.0
N4648 N 0.45042 0.14293 0.15796 0.0
N4649 N 0.43158 0.15934 0.14061 0.0
H4650 H 0.86135 0.67238 0.41916 0.0
H4651 H 0.82299 0.70941 0.38061 0.0
H4652 H 0.86106 0.70799 0.41933 0.0
H4653 H 0.82174 0.67382 0.38125 0.0
H4654 H 0.83925 0.70886 0.39242 0.0
H4655 H 0.84923 0.67259 0.40302 0.0
C4656 C 0.85888 0.68024 0.4157 0.0
C4657 C 0.86207 0.69018 0.4207 0.0
C4658 C 0.83551 0.70116 0.38989 0.0
C4659 C 0.84818 0.69048 0.4023 0.0
C4660 C 0.82622 0.70147 0.38313 0.0
C4661 C 0.8209 0.69165 0.38008 0.0
C4662 C 0.83948 0.69096 0.39371 0.0
C4663 C 0.82552 0.6816 0.38349 0.0
C4664 C 0.85194 0.68035 0.4065 0.0
C4665 C 0.85868 0.70012 0.41583 0.0
N4666 N 0.83447 0.68151 0.39025 0.0
N4667 N 0.85183 0.70001 0.40699 0.0
H4668 H 0.31613 0.07127 0.62954 0.0
H4669 H 0.28103 0.10581 0.67335 0.0
H4670 H 0.2814 0.06664 0.63561 0.0
H4671 H 0.3161 0.10991 0.66904 0.0
H4672 H 0.28075 0.09317 0.65775 0.0
H4673 H 0.31602 0.08702 0.6422 0.0
C4674 C 0.30846 0.07363 0.63344 0.0
C4675 C 0.29878 0.06756 0.63161 0.0
C4676 C 0.2885 0.09689 0.66013 0.0
C4677 C 0.2986 0.08553 0.6461 0.0
C4678 C 0.28867 0.10413 0.66904 0.0
C4679 C 0.29863 0.10882 0.67258 0.0
C4680 C 0.29838 0.09423 0.65471 0.0
C4681 C 0.30825 0.10642 0.66662 0.0
C4682 C 0.30841 0.08261 0.64068 0.0
C4683 C 0.28907 0.07101 0.63685 0.0
N4684 N 0.30791 0.09919 0.65804 0.0
N4685 N 0.28925 0.07971 0.6439 0.0
H4686 H 0.88806 0.53272 0.92843 0.0
H4687 H 0.92166 0.56665 0.88291 0.0
H4688 H 0.88266 0.56732 0.92196 0.0
H4689 H 0.92732 0.53236 0.89068 0.0
H4690 H 0.906 0.5667 0.89565 0.0
H4691 H 0.90105 0.53207 0.91312 0.0
C4692 C 0.88955 0.54018 0.92373 0.0
C4693 C 0.88435 0.55012 0.92655 0.0
C4694 C 0.91062 0.55915 0.8945 0.0
C4695 C 0.8993 0.54946 0.90901 0.0
C4696 C 0.91955 0.55911 0.88721 0.0
C4697 C 0.92587 0.54951 0.88582 0.0
C4698 C 0.90801 0.54952 0.90041 0.0
C4699 C 0.92274 0.53997 0.89157 0.0
C4700 C 0.89698 0.5398 0.91498 0.0
C4701 C 0.88654 0.5595 0.92011 0.0
N4702 N 0.91409 0.54024 0.89866 0.0
N4703 N 0.89393 0.55896 0.91169 0.0
H4704 H 0.10847 0.42008 0.07216 0.0
H4705 H 0.0714 0.45765 0.11152 0.0
H4706 H 0.10966 0.45567 0.07271 0.0
H4707 H 0.06967 0.42208 0.11093 0.0
H4708 H 0.08718 0.4569 0.09908 0.0
H4709 H 0.09603 0.42047 0.08803 0.0
C4710 C 0.10622 0.42797 0.0757 0.0
C4711 C 0.11 0.43786 0.07102 0.0
C4712 C 0.08343 0.44925 0.10175 0.0
C4713 C 0.09574 0.43837 0.08914 0.0
C4714 C 0.07442 0.44966 0.10887 0.0
C4715 C 0.06913 0.43991 0.11216 0.0
C4716 C 0.08715 0.439 0.09782 0.0
C4717 C 0.07345 0.42981 0.10853 0.0
C4718 C 0.09911 0.42818 0.08475 0.0
C4719 C 0.10687 0.44784 0.07598 0.0
N4720 N 0.08214 0.42961 0.10146 0.0
N4721 N 0.09984 0.44784 0.08469 0.0
H4722 H 0.60842 0.32375 0.17173 0.0
H4723 H 0.57208 0.28738 0.13052 0.0
H4724 H 0.61011 0.28826 0.16926 0.0
H4725 H 0.56906 0.32276 0.13311 0.0
H4726 H 0.58796 0.28801 0.14281 0.0
H4727 H 0.59593 0.32401 0.15583 0.0
C4728 C 0.60629 0.31604 0.16776 0.0
C4729 C 0.61019 0.30596 0.1719 0.0
C4730 C 0.58391 0.29567 0.14062 0.0
C4731 C 0.59592 0.30619 0.15379 0.0
C4732 C 0.57484 0.29531 0.13358 0.0
C4733 C 0.56916 0.30501 0.1309 0.0
C4734 C 0.5873 0.3058 0.1451 0.0
C4735 C 0.57316 0.31507 0.13503 0.0
C4736 C 0.59914 0.31619 0.1587 0.0
C4737 C 0.60719 0.29622 0.16642 0.0
N4738 N 0.58192 0.31519 0.14205 0.0
N4739 N 0.60017 0.29657 0.15772 0.0
H4740 H 0.70727 0.82198 0.38131 0.0
H4741 H 0.67017 0.85857 0.42144 0.0
H4742 H 0.67175 0.82043 0.38151 0.0
H4743 H 0.70566 0.86013 0.41982 0.0
H4744 H 0.67021 0.84638 0.40529 0.0
H4745 H 0.70651 0.83773 0.39375 0.0
C4746 C 0.69929 0.82504 0.38388 0.0
C4747 C 0.68957 0.81981 0.38048 0.0
C4748 C 0.67797 0.84951 0.4084 0.0
C4749 C 0.68861 0.8378 0.39488 0.0
C4750 C 0.67795 0.85648 0.4176 0.0
C4751 C 0.68794 0.86025 0.42206 0.0
C4752 C 0.68805 0.84631 0.40367 0.0
C4753 C 0.69777 0.85731 0.41674 0.0
C4754 C 0.69885 0.83404 0.391 0.0
C4755 C 0.67945 0.8242 0.38399 0.0
N4756 N 0.69758 0.85045 0.40791 0.0
N4757 N 0.67924 0.83286 0.39113 0.0
H4758 H 0.16958 0.9565 0.63177 0.0
H4759 H 0.13131 0.92079 0.67179 0.0
H4760 H 0.1711 0.92098 0.63385 0.0
H4761 H 0.1308 0.95635 0.66998 0.0
H4762 H 0.144 0.92042 0.6561 0.0
H4763 H 0.15356 0.95632 0.64391 0.0
C4764 C 0.16647 0.94864 0.6347 0.0
C4765 C 0.17176 0.93874 0.6319 0.0
C4766 C 0.14101 0.92829 0.65906 0.0
C4767 C 0.15345 0.93848 0.6459 0.0
C4768 C 0.13374 0.92851 0.668 0.0
C4769 C 0.13011 0.93863 0.67229 0.0
C4770 C 0.14466 0.93826 0.6544 0.0
C4771 C 0.13349 0.94837 0.66702 0.0
C4772 C 0.15732 0.94855 0.64165 0.0
C4773 C 0.16732 0.92881 0.63587 0.0
N4774 N 0.14064 0.94795 0.65843 0.0
N4775 N 0.15849 0.92894 0.64277 0.0
H4776 H 0.531 0.38223 0.41997 0.0
H4777 H 0.56673 0.41936 0.37898 0.0
H4778 H 0.56656 0.38282 0.41997 0.0
H4779 H 0.53127 0.42061 0.38144 0.0
H4780 H 0.56682 0.40354 0.39154 0.0
H4781 H 0.53099 0.39377 0.40349 0.0
C4782 C 0.53882 0.38469 0.41643 0.0
C4783 C 0.5488 0.3817 0.42145 0.0
C4784 C 0.55901 0.4072 0.38921 0.0
C4785 C 0.54885 0.395 0.40261 0.0
C4786 C 0.55895 0.4162 0.38202 0.0
C4787 C 0.54898 0.42141 0.3793 0.0
C4788 C 0.54904 0.40338 0.39369 0.0
C4789 C 0.53916 0.41694 0.38343 0.0
C4790 C 0.53881 0.39129 0.40702 0.0
C4791 C 0.55868 0.38503 0.41643 0.0
N4792 N 0.53944 0.40826 0.39051 0.0
N4793 N 0.55846 0.39162 0.40735 0.0
H4794 H 0.13371 0.82153 0.07036 0.0
H4795 H 0.17013 0.78534 0.11151 0.0
H4796 H 0.13338 0.78595 0.07168 0.0
H4797 H 0.17171 0.82088 0.11029 0.0
H4798 H 0.15448 0.78575 0.09894 0.0
H4799 H 0.14545 0.8218 0.08681 0.0
C4800 C 0.13598 0.81379 0.0742 0.0
C4801 C 0.13269 0.80369 0.06956 0.0
C4802 C 0.15815 0.79349 0.10149 0.0
C4803 C 0.14612 0.80394 0.08831 0.0
C4804 C 0.16709 0.79325 0.10869 0.0
C4805 C 0.17232 0.80308 0.11183 0.0
C4806 C 0.15445 0.80363 0.09728 0.0
C4807 C 0.16795 0.81311 0.10801 0.0
C4808 C 0.14269 0.81394 0.08357 0.0
C4809 C 0.13583 0.79391 0.07489 0.0
N4810 N 0.15935 0.81312 0.1008 0.0
N4811 N 0.14244 0.79428 0.08391 0.0
H4812 H 0.67381 0.88095 0.32087 0.0
H4813 H 0.70915 0.92119 0.35898 0.0
H4814 H 0.70935 0.88238 0.32105 0.0
H4815 H 0.67367 0.91936 0.3604 0.0
H4816 H 0.70932 0.90519 0.34684 0.0
H4817 H 0.67349 0.89316 0.33698 0.0
C4818 C 0.68154 0.8837 0.32439 0.0
C4819 C 0.69162 0.88078 0.31951 0.0
C4820 C 0.70148 0.90819 0.34988 0.0
C4821 C 0.69131 0.89476 0.33787 0.0
C4822 C 0.70139 0.91733 0.35682 0.0
C4823 C 0.69137 0.9217 0.36059 0.0
C4824 C 0.69148 0.90341 0.34654 0.0
C4825 C 0.68157 0.9163 0.35762 0.0
C4826 C 0.68135 0.89068 0.33357 0.0
C4827 C 0.70138 0.88453 0.32445 0.0
N4828 N 0.68186 0.90752 0.35064 0.0
N4829 N 0.70098 0.89141 0.33326 0.0
H4830 H 0.06919 0.32108 0.86175 0.0
H4831 H 0.03227 0.35662 0.82034 0.0
H4832 H 0.03364 0.32027 0.86097 0.0
H4833 H 0.06783 0.3569 0.82008 0.0
H4834 H 0.03267 0.3453 0.83697 0.0
H4835 H 0.06891 0.3362 0.84837 0.0
C4836 C 0.06132 0.32418 0.85889 0.0
C4837 C 0.05142 0.31931 0.86236 0.0
C4838 C 0.0404 0.34791 0.83335 0.0
C4839 C 0.05104 0.33653 0.847 0.0
C4840 C 0.04017 0.35438 0.82384 0.0
C4841 C 0.05003 0.35759 0.81873 0.0
C4842 C 0.05056 0.34456 0.83777 0.0
C4843 C 0.06003 0.35453 0.82369 0.0
C4844 C 0.06117 0.33279 0.85122 0.0
C4845 C 0.04147 0.3237 0.85842 0.0
N4846 N 0.06004 0.34808 0.83288 0.0
N4847 N 0.04154 0.33197 0.85088 0.0
H4848 H 0.07171 0.63119 0.28481 0.0
H4849 H 0.11031 0.67061 0.3209 0.0
H4850 H 0.06924 0.63377 0.32021 0.0
H4851 H 0.10983 0.66978 0.28534 0.0
H4852 H 0.09761 0.65484 0.32119 0.0
H4853 H 0.08801 0.64292 0.28527 0.0
C4854 C 0.07467 0.63414 0.29271 0.0
C4855 C 0.06901 0.63163 0.30247 0.0
C4856 C 0.10041 0.65804 0.31334 0.0
C4857 C 0.08766 0.64518 0.30306 0.0
C4858 C 0.10768 0.667 0.31317 0.0
C4859 C 0.111 0.67159 0.30308 0.0
C4860 C 0.0965 0.65364 0.30335 0.0
C4861 C 0.10736 0.66659 0.2933 0.0
C4862 C 0.08398 0.64086 0.29297 0.0
C4863 C 0.0733 0.63558 0.31248 0.0
N4864 N 0.10025 0.65796 0.29369 0.0
N4865 N 0.0823 0.64228 0.31251 0.0
H4866 H 0.32029 0.85856 0.03416 0.0
H4867 H 0.35375 0.81656 0.0719 0.0
H4868 H 0.31787 0.85828 0.06965 0.0
H4869 H 0.35887 0.82016 0.03687 0.0
H4870 H 0.34176 0.83279 0.07159 0.0
H4871 H 0.33566 0.84566 0.03527 0.0
C4872 C 0.32309 0.85587 0.0422 0.0
C4873 C 0.31773 0.85939 0.05182 0.0
C4874 C 0.3456 0.8301 0.06399 0.0
C4875 C 0.33524 0.84448 0.05316 0.0
C4876 C 0.35243 0.82082 0.06416 0.0
C4877 C 0.35721 0.81693 0.05437 0.0
C4878 C 0.34348 0.83547 0.05394 0.0
C4879 C 0.35528 0.82281 0.0446 0.0
C4880 C 0.33188 0.8485 0.04284 0.0
C4881 C 0.32176 0.85573 0.06203 0.0
N4882 N 0.34848 0.83171 0.04462 0.0
N4883 N 0.33019 0.84834 0.06243 0.0
H4884 H 0.16925 0.10916 0.78282 0.0
H4885 H 0.13 0.07033 0.81885 0.0
H4886 H 0.16985 0.10854 0.8184 0.0
H4887 H 0.1316 0.07008 0.78331 0.0
H4888 H 0.14244 0.0863 0.81905 0.0
H4889 H 0.15328 0.09697 0.78306 0.0
C4890 C 0.16594 0.10655 0.7907 0.0
C4891 C 0.17098 0.10975 0.8006 0.0
C4892 C 0.13995 0.08282 0.81121 0.0
C4893 C 0.15273 0.09566 0.80094 0.0
C4894 C 0.13284 0.07373 0.81109 0.0
C4895 C 0.12988 0.06879 0.80105 0.0
C4896 C 0.14408 0.08699 0.80121 0.0
C4897 C 0.13377 0.07354 0.79125 0.0
C4898 C 0.15682 0.09956 0.79083 0.0
C4899 C 0.16627 0.1062 0.81056 0.0
N4900 N 0.14073 0.0823 0.79158 0.0
N4901 N 0.15748 0.09922 0.81048 0.0
H4902 H 0.91975 0.85833 0.16983 0.0
H4903 H 0.87781 0.82189 0.20527 0.0
H4904 H 0.91685 0.85967 0.20527 0.0
H4905 H 0.88166 0.81846 0.17007 0.0
H4906 H 0.89005 0.83783 0.20489 0.0
H4907 H 0.90386 0.84584 0.16925 0.0
C4908 C 0.91568 0.85613 0.17747 0.0
C4909 C 0.91971 0.85993 0.18763 0.0
C4910 C 0.88815 0.83367 0.19721 0.0
C4911 C 0.90161 0.84564 0.18702 0.0
C4912 C 0.88115 0.82456 0.19743 0.0
C4913 C 0.87883 0.81875 0.18771 0.0
C4914 C 0.89296 0.83698 0.18721 0.0
C4915 C 0.8833 0.82266 0.17777 0.0
C4916 C 0.90664 0.84898 0.17713 0.0
C4917 C 0.91411 0.85684 0.19727 0.0
N4918 N 0.89027 0.83146 0.17779 0.0
N4919 N 0.90541 0.84982 0.19673 0.0
H4920 H 0.17615 0.63824 0.95917 0.0
H4921 H 0.13068 0.67103 0.92443 0.0
H4922 H 0.17073 0.63289 0.92441 0.0
H4923 H 0.13713 0.67605 0.95906 0.0
H4924 H 0.1437 0.65553 0.92451 0.0
H4925 H 0.16031 0.65057 0.95956 0.0
C4926 C 0.17157 0.6396 0.95162 0.0
C4927 C 0.17484 0.63462 0.94172 0.0
C4928 C 0.14217 0.65997 0.93211 0.0
C4929 C 0.15669 0.64884 0.94207 0.0
C4930 C 0.13472 0.66878 0.93207 0.0
C4931 C 0.13292 0.67491 0.94172 0.0
C4932 C 0.14782 0.65728 0.94187 0.0
C4933 C 0.13835 0.67164 0.9514 0.0
C4934 C 0.16251 0.64666 0.95184 0.0
C4935 C 0.16853 0.63661 0.93221 0.0
N4936 N 0.1456 0.66312 0.9512 0.0
N4937 N 0.15981 0.64367 0.9326 0.0
H4938 H 0.3239 0.88023 0.70565 0.0
H4939 H 0.35991 0.92191 0.66952 0.0
H4940 H 0.32031 0.88356 0.67041 0.0
H4941 H 0.36013 0.92047 0.70507 0.0
H4942 H 0.34804 0.90552 0.66917 0.0
H4943 H 0.33986 0.89241 0.705 0.0
C4944 C 0.32656 0.88343 0.69774 0.0
C4945 C 0.32066 0.88103 0.68809 0.0
C4946 C 0.35082 0.90872 0.67703 0.0
C4947 C 0.33889 0.89511 0.6873 0.0
C4948 C 0.35761 0.91805 0.67723 0.0
C4949 C 0.36087 0.92264 0.68735 0.0
C4950 C 0.34733 0.90396 0.68701 0.0
C4951 C 0.35768 0.91729 0.69709 0.0
C4952 C 0.33567 0.8904 0.69738 0.0
C4953 C 0.32456 0.88529 0.67806 0.0
N4954 N 0.35102 0.90831 0.69668 0.0
N4955 N 0.33336 0.89226 0.67794 0.0
H4956 H 0.53134 0.92386 0.88525 0.0
H4957 H 0.56667 0.88122 0.92105 0.0
H4958 H 0.56667 0.92081 0.8826 0.0
H4959 H 0.5318 0.88692 0.92511 0.0
H4960 H 0.56658 0.89359 0.90506 0.0
H4961 H 0.53111 0.9082 0.89785 0.0
C4962 C 0.53905 0.91982 0.88724 0.0
C4963 C 0.54906 0.92374 0.88299 0.0
C4964 C 0.55893 0.89204 0.90939 0.0
C4965 C 0.54888 0.90582 0.8975 0.0
C4966 C 0.55897 0.88496 0.9185 0.0
C4967 C 0.54925 0.88315 0.9245 0.0
C4968 C 0.54909 0.89728 0.90627 0.0
C4969 C 0.53951 0.88818 0.92081 0.0
C4970 C 0.53892 0.91088 0.89445 0.0
C4971 C 0.55878 0.91811 0.88576 0.0
N4972 N 0.5397 0.89507 0.912 0.0
N4973 N 0.55847 0.9095 0.89296 0.0
H4974 H 0.07464 0.28436 0.6291 0.0
H4975 H 0.11051 0.32064 0.67059 0.0
H4976 H 0.07295 0.3199 0.63042 0.0
H4977 H 0.11204 0.28512 0.66847 0.0
H4978 H 0.09872 0.32088 0.65419 0.0
H4979 H 0.09033 0.28481 0.64164 0.0
C4980 C 0.07767 0.29228 0.63192 0.0
C4981 C 0.07239 0.30209 0.62883 0.0
C4982 C 0.10175 0.31305 0.65724 0.0
C4983 C 0.0903 0.30268 0.64333 0.0
C4984 C 0.10849 0.31291 0.66659 0.0
C4985 C 0.11213 0.30283 0.67099 0.0
C4986 C 0.09864 0.30304 0.65228 0.0
C4987 C 0.10931 0.29307 0.66545 0.0
C4988 C 0.08663 0.29253 0.6391 0.0
C4989 C 0.07674 0.31212 0.63265 0.0
N4990 N 0.10265 0.29342 0.65646 0.0
N4991 N 0.08535 0.31215 0.63984 0.0
H4992 H 0.17247 0.42299 0.13279 0.0
H4993 H 0.13303 0.45894 0.17142 0.0
H4994 H 0.17127 0.45858 0.13246 0.0
H4995 H 0.13428 0.42335 0.17223 0.0
H4996 H 0.14537 0.45882 0.15552 0.0
H4997 H 0.15686 0.4228 0.14556 0.0
C4998 C 0.16884 0.43076 0.13529 0.0
C4999 C 0.17326 0.44082 0.13166 0.0
C5000 C 0.14287 0.45102 0.15911 0.0
C5001 C 0.15546 0.44067 0.14631 0.0
C5002 C 0.13582 0.45109 0.16818 0.0
C5003 C 0.13272 0.44114 0.17324 0.0
C5004 C 0.14692 0.44094 0.15507 0.0
C5005 C 0.13653 0.43122 0.16864 0.0
C5006 C 0.15995 0.43064 0.1426 0.0
C5007 C 0.1682 0.45063 0.13513 0.0
N5008 N 0.14352 0.43137 0.15989 0.0
N5009 N 0.15964 0.45031 0.14234 0.0
H5010 H 0.53358 0.86014 0.81971 0.0
H5011 H 0.5686 0.81969 0.85833 0.0
H5012 H 0.56902 0.85765 0.81808 0.0
H5013 H 0.53314 0.81943 0.85564 0.0
H5014 H 0.56916 0.83577 0.84603 0.0
H5015 H 0.53359 0.84753 0.83535 0.0
C5016 C 0.54139 0.85702 0.82272 0.0
C5017 C 0.5513 0.85984 0.81749 0.0
C5018 C 0.56127 0.83225 0.84824 0.0
C5019 C 0.55137 0.84529 0.83539 0.0
C5020 C 0.56093 0.82311 0.85529 0.0
C5021 C 0.55081 0.81815 0.8579 0.0
C5022 C 0.5514 0.83647 0.84387 0.0
C5023 C 0.54113 0.82291 0.85374 0.0
C5024 C 0.54138 0.8498 0.83165 0.0
C5025 C 0.56118 0.85562 0.82182 0.0
N5026 N 0.54167 0.83175 0.84689 0.0
N5027 N 0.56096 0.84845 0.83046 0.0
H5028 H 0.17052 0.32191 0.6081 0.0
H5029 H 0.12897 0.28529 0.57248 0.0
H5030 H 0.16766 0.2865 0.61057 0.0
H5031 H 0.1317 0.32063 0.56905 0.0
H5032 H 0.14121 0.28607 0.58839 0.0
H5033 H 0.15452 0.3221 0.59576 0.0
C5034 C 0.16644 0.3142 0.60618 0.0
C5035 C 0.17052 0.30415 0.61025 0.0
C5036 C 0.13906 0.29368 0.58425 0.0
C5037 C 0.15228 0.3043 0.59613 0.0
C5038 C 0.13205 0.29324 0.57516 0.0
C5039 C 0.12943 0.30289 0.56934 0.0
C5040 C 0.14358 0.30384 0.58753 0.0
C5041 C 0.13358 0.31298 0.57325 0.0
C5042 C 0.15732 0.31431 0.59911 0.0
C5043 C 0.16489 0.29442 0.60752 0.0
N5044 N 0.14057 0.31318 0.58202 0.0
N5045 N 0.15613 0.29473 0.60056 0.0
H5046 H 0.41805 0.7074 0.86075 0.0
H5047 H 0.38212 0.67193 0.81858 0.0
H5048 H 0.4206 0.672 0.85796 0.0
H5049 H 0.38082 0.70741 0.8214 0.0
H5050 H 0.39398 0.67131 0.83493 0.0
H5051 H 0.40217 0.70705 0.84848 0.0
C5052 C 0.41518 0.69952 0.85765 0.0
C5053 C 0.42075 0.68973 0.86024 0.0
C5054 C 0.39098 0.67921 0.83205 0.0
C5055 C 0.40262 0.68927 0.84604 0.0
C5056 C 0.3842 0.67957 0.82273 0.0
C5057 C 0.38062 0.68976 0.81853 0.0
C5058 C 0.39418 0.6891 0.83718 0.0
C5059 C 0.38351 0.69938 0.82426 0.0
C5060 C 0.4061 0.69933 0.85063 0.0
C5061 C 0.41659 0.67975 0.85609 0.0
N5062 N 0.3902 0.69882 0.83321 0.0
N5063 N 0.40785 0.67979 0.84905 0.0
H5064 H 0.81766 0.03302 0.35439 0.0
H5065 H 0.86023 0.06959 0.32004 0.0
H5066 H 0.81976 0.06838 0.35788 0.0
H5067 H 0.8588 0.03402 0.31919 0.0
H5068 H 0.84685 0.0695 0.33523 0.0
H5069 H 0.83404 0.03334 0.34283 0.0
C5070 C 0.82163 0.04086 0.35278 0.0
C5071 C 0.81728 0.0507 0.35701 0.0
C5072 C 0.84958 0.06172 0.3318 0.0
C5073 C 0.83605 0.05117 0.34363 0.0
C5074 C 0.85724 0.06176 0.32316 0.0
C5075 C 0.86051 0.0518 0.31826 0.0
C5076 C 0.84521 0.05164 0.33552 0.0
C5077 C 0.8564 0.04191 0.32262 0.0
C5078 C 0.83101 0.04105 0.34618 0.0
C5079 C 0.82283 0.06061 0.35474 0.0
N5080 N 0.8489 0.04209 0.33091 0.0
N5081 N 0.83187 0.06062 0.34808 0.0
H5082 H 0.45992 0.60949 0.57302 0.0
H5083 H 0.42261 0.57237 0.61244 0.0
H5084 H 0.42436 0.60969 0.57223 0.0
H5085 H 0.45816 0.57142 0.61168 0.0
H5086 H 0.423 0.58838 0.60013 0.0
H5087 H 0.45932 0.598 0.5895 0.0
C5088 C 0.45197 0.60722 0.5764 0.0
C5089 C 0.44218 0.6104 0.57115 0.0
C5090 C 0.43071 0.58475 0.60278 0.0
C5091 C 0.44142 0.59713 0.58999 0.0
C5092 C 0.4305 0.57563 0.60983 0.0
C5093 C 0.44036 0.57045 0.61294 0.0
C5094 C 0.44087 0.58869 0.59883 0.0
C5095 C 0.45034 0.57507 0.60937 0.0
C5096 C 0.45163 0.60064 0.58582 0.0
C5097 C 0.43212 0.60733 0.57596 0.0
N5098 N 0.45033 0.58384 0.60241 0.0
N5099 N 0.43199 0.60073 0.58503 0.0
H5100 H 0.81626 0.20914 0.88652 0.0
H5101 H 0.85788 0.17319 0.92239 0.0
H5102 H 0.81898 0.1738 0.88314 0.0
H5103 H 0.85786 0.20879 0.92152 0.0
H5104 H 0.8447 0.17305 0.90707 0.0
H5105 H 0.83243 0.20908 0.89842 0.0
C5106 C 0.82033 0.20136 0.88822 0.0
C5107 C 0.81622 0.19145 0.88392 0.0
C5108 C 0.84769 0.18088 0.91015 0.0
C5109 C 0.83472 0.19128 0.89766 0.0
C5110 C 0.85522 0.18096 0.91888 0.0
C5111 C 0.85886 0.19102 0.92333 0.0
C5112 C 0.84376 0.19093 0.9059 0.0
C5113 C 0.85519 0.20085 0.91844 0.0
C5114 C 0.82958 0.20133 0.89501 0.0
C5115 C 0.82186 0.18163 0.88633 0.0
N5116 N 0.84776 0.20055 0.91008 0.0
N5117 N 0.83076 0.18177 0.89316 0.0
H5118 H 0.95883 0.63007 0.17079 0.0
H5119 H 0.92482 0.67115 0.13213 0.0
H5120 H 0.92331 0.63189 0.17053 0.0
H5121 H 0.96021 0.67165 0.13565 0.0
H5122 H 0.92412 0.65457 0.14363 0.0
H5123 H 0.95942 0.64291 0.15532 0.0
C5124 C 0.95113 0.63307 0.16738 0.0
C5125 C 0.941 0.63004 0.17207 0.0
C5126 C 0.93204 0.65825 0.14179 0.0
C5127 C 0.94163 0.64484 0.1544 0.0
C5128 C 0.93246 0.6677 0.13522 0.0
C5129 C 0.94258 0.67288 0.13306 0.0
C5130 C 0.94183 0.65393 0.14621 0.0
C5131 C 0.95222 0.66801 0.1372 0.0
C5132 C 0.95148 0.64042 0.15856 0.0
C5133 C 0.9313 0.63409 0.16724 0.0
N5134 N 0.95159 0.65887 0.14366 0.0
N5135 N 0.93186 0.6414 0.15874 0.0
H5136 H 0.07089 0.611 0.92809 0.0
H5137 H 0.10514 0.56692 0.96324 0.0
H5138 H 0.06559 0.60431 0.96264 0.0
H5139 H 0.10899 0.57124 0.92813 0.0
H5140 H 0.09263 0.58267 0.9636 0.0
H5141 H 0.08679 0.59854 0.92838 0.0
C5142 C 0.07315 0.60703 0.93576 0.0
C5143 C 0.06683 0.60858 0.94532 0.0
C5144 C 0.09628 0.58024 0.95582 0.0
C5145 C 0.08495 0.59432 0.94571 0.0
C5146 C 0.10344 0.57126 0.95562 0.0
C5147 C 0.108 0.56768 0.94562 0.0
C5148 C 0.09361 0.58569 0.94594 0.0
C5149 C 0.10557 0.57366 0.936 0.0
C5150 C 0.0822 0.59989 0.93592 0.0
C5151 C 0.07015 0.60325 0.95504 0.0
N5152 N 0.09845 0.58231 0.93638 0.0
N5153 N 0.07892 0.5963 0.95496 0.0
H5154 H 0.66979 0.63172 0.45501 0.0
H5155 H 0.63251 0.67363 0.4203 0.0
H5156 H 0.67289 0.63592 0.4198 0.0
H5157 H 0.63301 0.67158 0.45582 0.0
H5158 H 0.64494 0.65767 0.41946 0.0
H5159 H 0.65393 0.64403 0.4549 0.0
C5160 C 0.66707 0.63516 0.44722 0.0
C5161 C 0.67277 0.63291 0.43742 0.0
C5162 C 0.64221 0.66065 0.42742 0.0
C5163 C 0.65462 0.64713 0.43724 0.0
C5164 C 0.63509 0.66972 0.42791 0.0
C5165 C 0.63184 0.674 0.43815 0.0
C5166 C 0.64602 0.65583 0.43725 0.0
C5167 C 0.63542 0.66863 0.44775 0.0
C5168 C 0.658 0.6422 0.44716 0.0
C5169 C 0.66878 0.6375 0.42756 0.0
N5170 N 0.64237 0.65989 0.44706 0.0
N5171 N 0.66001 0.64451 0.42774 0.0
H5172 H 0.81872 0.38074 0.67313 0.0
H5173 H 0.85707 0.42163 0.70799 0.0
H5174 H 0.81699 0.38468 0.70845 0.0
H5175 H 0.85623 0.42123 0.67241 0.0
H5176 H 0.84446 0.40597 0.70828 0.0
H5177 H 0.83446 0.39341 0.67273 0.0
C5178 C 0.82174 0.38415 0.68081 0.0
C5179 C 0.81647 0.38175 0.69083 0.0
C5180 C 0.84708 0.40924 0.7004 0.0
C5181 C 0.83442 0.39625 0.69042 0.0
C5182 C 0.85431 0.41818 0.70023 0.0
C5183 C 0.85761 0.42283 0.69016 0.0
C5184 C 0.84309 0.40489 0.69044 0.0
C5185 C 0.85383 0.41795 0.68036 0.0
C5186 C 0.83069 0.39141 0.68057 0.0
C5187 C 0.82074 0.38639 0.70053 0.0
N5188 N 0.84668 0.4093 0.68074 0.0
N5189 N 0.8294 0.39346 0.70007 0.0
H5190 H 0.85841 0.81925 0.53316 0.0
H5191 H 0.81882 0.85762 0.56916 0.0
H5192 H 0.85844 0.81906 0.56873 0.0
H5193 H 0.81957 0.85713 0.53359 0.0
H5194 H 0.8348 0.84523 0.56943 0.0
H5195 H 0.84581 0.83487 0.5334 0.0
C5196 C 0.85584 0.82258 0.54104 0.0
C5197 C 0.85938 0.81777 0.55094 0.0
C5198 C 0.83153 0.84794 0.56158 0.0
C5199 C 0.84479 0.83563 0.55129 0.0
C5200 C 0.82243 0.85502 0.56142 0.0
C5201 C 0.81778 0.8583 0.55133 0.0
C5202 C 0.836 0.84414 0.55158 0.0
C5203 C 0.8228 0.85471 0.54155 0.0
C5204 C 0.84862 0.8315 0.54117 0.0
C5205 C 0.85587 0.82249 0.56091 0.0
N5206 N 0.83156 0.84777 0.54193 0.0
N5207 N 0.84864 0.83108 0.56084 0.0
H5208 H 0.63026 0.5721 0.78429 0.0
H5209 H 0.66977 0.61164 0.81909 0.0
H5210 H 0.63333 0.57042 0.81971 0.0
H5211 H 0.66829 0.61087 0.78354 0.0
H5212 H 0.65413 0.59889 0.81979 0.0
H5213 H 0.64181 0.58854 0.78423 0.0
C5214 C 0.63328 0.57526 0.79208 0.0
C5215 C 0.63096 0.56979 0.80201 0.0
C5216 C 0.65715 0.60163 0.81185 0.0
C5217 C 0.64429 0.58861 0.80199 0.0
C5218 C 0.66605 0.60894 0.81144 0.0
C5219 C 0.67044 0.6122 0.80123 0.0
C5220 C 0.65262 0.59758 0.80198 0.0
C5221 C 0.66526 0.60847 0.79159 0.0
C5222 C 0.63989 0.58466 0.79204 0.0
C5223 C 0.635 0.57433 0.81186 0.0
N5224 N 0.65671 0.60128 0.7922 0.0
N5225 N 0.64159 0.58342 0.81159 0.0
H5226 H 0.88181 0.42128 0.03519 0.0
H5227 H 0.92194 0.38311 0.07093 0.0
H5228 H 0.88321 0.42214 0.07074 0.0
H5229 H 0.92078 0.38318 0.03536 0.0
H5230 H 0.90604 0.39555 0.07123 0.0
H5231 H 0.8943 0.4055 0.03529 0.0
C5232 C 0.88466 0.41808 0.04303 0.0
C5233 C 0.88157 0.42312 0.05297 0.0
C5234 C 0.9092 0.39275 0.06336 0.0
C5235 C 0.89596 0.40509 0.05314 0.0
C5236 C 0.91826 0.38563 0.06319 0.0
C5237 C 0.92277 0.38222 0.05311 0.0
C5238 C 0.90465 0.39647 0.05337 0.0
C5239 C 0.91765 0.38569 0.04333 0.0
C5240 C 0.8918 0.40907 0.04308 0.0
C5241 C 0.88545 0.41856 0.06288 0.0
N5242 N 0.90893 0.3927 0.04371 0.0
N5243 N 0.89254 0.40988 0.06271 0.0
H5244 H 0.88349 0.1723 0.81951 0.0
H5245 H 0.9231 0.20758 0.85878 0.0
H5246 H 0.88932 0.20727 0.81616 0.0
H5247 H 0.92265 0.17197 0.8587 0.0
H5248 H 0.90827 0.20764 0.84526 0.0
H5249 H 0.89548 0.1721 0.8358 0.0
C5250 C 0.8872 0.17995 0.82226 0.0
C5251 C 0.88549 0.18981 0.81642 0.0
C5252 C 0.91134 0.1998 0.84824 0.0
C5253 C 0.89915 0.18963 0.83501 0.0
C5254 C 0.9198 0.19976 0.856 0.0
C5255 C 0.92422 0.18975 0.85978 0.0
C5256 C 0.90723 0.18976 0.84419 0.0
C5257 C 0.91954 0.17987 0.85594 0.0
C5258 C 0.89406 0.17982 0.83153 0.0
C5259 C 0.89048 0.19947 0.82035 0.0
N5260 N 0.91135 0.18012 0.84827 0.0
N5261 N 0.89711 0.19913 0.82936 0.0
H5262 H 0.31857 0.67172 0.10846 0.0
H5263 H 0.28384 0.63133 0.06969 0.0
H5264 H 0.28304 0.67044 0.10754 0.0
H5265 H 0.31939 0.63243 0.06983 0.0
H5266 H 0.28357 0.64396 0.08532 0.0
H5267 H 0.31922 0.65575 0.0961 0.0
C5268 C 0.31091 0.668 0.10577 0.0
C5269 C 0.30073 0.6725 0.10893 0.0
C5270 C 0.29145 0.64137 0.08202 0.0
C5271 C 0.30141 0.65428 0.09477 0.0
C5272 C 0.29161 0.63415 0.07308 0.0
C5273 C 0.30165 0.63093 0.06836 0.0
C5274 C 0.30141 0.6455 0.08624 0.0
C5275 C 0.31146 0.63477 0.07317 0.0
C5276 C 0.31129 0.6589 0.0987 0.0
C5277 C 0.29107 0.66732 0.10523 0.0
N5278 N 0.31109 0.64196 0.08178 0.0
N5279 N 0.29165 0.65856 0.09829 0.0
H5280 H 0.45885 0.63213 0.67051 0.0
H5281 H 0.42264 0.67132 0.63169 0.0
H5282 H 0.4233 0.63279 0.67132 0.0
H5283 H 0.45806 0.67284 0.6345 0.0
H5284 H 0.42261 0.65516 0.64387 0.0
H5285 H 0.45855 0.64484 0.65494 0.0
C5286 C 0.45096 0.63486 0.66733 0.0
C5287 C 0.44109 0.63151 0.67232 0.0
C5288 C 0.43039 0.65897 0.64172 0.0
C5289 C 0.44069 0.64618 0.65451 0.0
C5290 C 0.43041 0.66817 0.63474 0.0
C5291 C 0.44036 0.6735 0.63218 0.0
C5292 C 0.44038 0.65507 0.64609 0.0
C5293 C 0.45019 0.66906 0.63635 0.0
C5294 C 0.4508 0.64214 0.65844 0.0
C5295 C 0.43111 0.63524 0.66778 0.0
N5296 N 0.44994 0.66017 0.64315 0.0
N5297 N 0.43117 0.64248 0.65919 0.0
H5298 H 0.28824 0.61099 0.16888 0.0
H5299 H 0.32327 0.56674 0.13492 0.0
H5300 H 0.32314 0.60611 0.17366 0.0
H5301 H 0.28819 0.57154 0.13156 0.0
H5302 H 0.32404 0.58273 0.14727 0.0
H5303 H 0.28874 0.5983 0.15333 0.0
C5304 C 0.29604 0.60733 0.16658 0.0
C5305 C 0.30563 0.60951 0.17265 0.0
C5306 C 0.3162 0.58035 0.14373 0.0
C5307 C 0.30627 0.59483 0.15488 0.0
C5308 C 0.31576 0.57124 0.13666 0.0
C5309 C 0.30563 0.56774 0.13231 0.0
C5310 C 0.30644 0.58597 0.14643 0.0
C5311 C 0.29616 0.57388 0.13482 0.0
C5312 C 0.29633 0.60006 0.15769 0.0
C5313 C 0.31554 0.6046 0.16923 0.0
N5314 N 0.29679 0.58263 0.14177 0.0
N5315 N 0.31558 0.59738 0.16064 0.0
H5316 H 0.91923 0.03201 0.38272 0.0
H5317 H 0.87996 0.06824 0.42129 0.0
H5318 H 0.91999 0.06761 0.38331 0.0
H5319 H 0.88373 0.0329 0.42357 0.0
H5320 H 0.89184 0.06821 0.40491 0.0
H5321 H 0.90336 0.03231 0.395 0.0
C5322 C 0.91597 0.03991 0.38533 0.0
C5323 C 0.92105 0.0498 0.38214 0.0
C5324 C 0.88995 0.06046 0.40894 0.0
C5325 C 0.90291 0.0502 0.39633 0.0
C5326 C 0.88315 0.06047 0.41825 0.0
C5327 C 0.88099 0.05057 0.42387 0.0
C5328 C 0.89452 0.05048 0.40521 0.0
C5329 C 0.88531 0.04074 0.41958 0.0
C5330 C 0.90691 0.04007 0.39237 0.0
C5331 C 0.91638 0.05979 0.38567 0.0
N5332 N 0.89192 0.04096 0.41057 0.0
N5333 N 0.90765 0.05974 0.39271 0.0
H5334 H 0.11029 0.9598 0.57319 0.0
H5335 H 0.07329 0.92239 0.61269 0.0
H5336 H 0.11121 0.9242 0.57316 0.0
H5337 H 0.07162 0.95794 0.61134 0.0
H5338 H 0.08938 0.92292 0.60054 0.0
H5339 H 0.09843 0.95929 0.58941 0.0
C5340 C 0.10811 0.95187 0.57668 0.0
C5341 C 0.1116 0.94202 0.57171 0.0
C5342 C 0.08558 0.93061 0.60302 0.0
C5343 C 0.09793 0.94137 0.59026 0.0
C5344 C 0.0764 0.93031 0.60998 0.0
C5345 C 0.071 0.94012 0.61289 0.0
C5346 C 0.08935 0.94079 0.59895 0.0
C5347 C 0.07544 0.95016 0.60919 0.0
C5348 C 0.10132 0.95158 0.58595 0.0
C5349 C 0.10861 0.93199 0.57666 0.0
N5350 N 0.08427 0.95022 0.60232 0.0
N5351 N 0.10182 0.93191 0.58558 0.0
H5352 H 0.57303 0.81744 0.62897 0.0
H5353 H 0.6092 0.78054 0.66968 0.0
H5354 H 0.57176 0.78188 0.63036 0.0
H5355 H 0.60928 0.81615 0.67006 0.0
H5356 H 0.59804 0.78093 0.65297 0.0
H5357 H 0.58876 0.81715 0.6416 0.0
C5358 C 0.57617 0.80956 0.63179 0.0
C5359 C 0.57097 0.79967 0.62876 0.0
C5360 C 0.60059 0.78867 0.65662 0.0
C5361 C 0.58889 0.79928 0.64324 0.0
C5362 C 0.60698 0.78845 0.66617 0.0
C5363 C 0.61002 0.79833 0.67137 0.0
C5364 C 0.59714 0.79884 0.65226 0.0
C5365 C 0.60701 0.80834 0.66638 0.0
C5366 C 0.58513 0.8094 0.63902 0.0
C5367 C 0.57542 0.78971 0.6326 0.0
N5368 N 0.60061 0.80834 0.65718 0.0
N5369 N 0.58404 0.78978 0.63973 0.0
H5370 H 0.70757 0.32244 0.88306 0.0
H5371 H 0.67176 0.36138 0.92227 0.0
H5372 H 0.67202 0.32181 0.88422 0.0
H5373 H 0.70732 0.36126 0.92139 0.0
H5374 H 0.67155 0.34879 0.9065 0.0
H5375 H 0.70749 0.3385 0.8952 0.0
C5376 C 0.69974 0.32576 0.88577 0.0
C5377 C 0.68979 0.32069 0.88274 0.0
C5378 C 0.67939 0.35161 0.90968 0.0
C5379 C 0.68964 0.33904 0.89672 0.0
C5380 C 0.67952 0.35882 0.91867 0.0
C5381 C 0.68958 0.36226 0.92324 0.0
C5382 C 0.6894 0.34781 0.90526 0.0
C5383 C 0.69938 0.35873 0.91821 0.0
C5384 C 0.69969 0.33493 0.89272 0.0
C5385 C 0.67989 0.3254 0.88643 0.0
N5386 N 0.69904 0.35162 0.90957 0.0
N5387 N 0.68007 0.33424 0.89333 0.0
H5388 H 0.70691 0.41985 0.86166 0.0
H5389 H 0.6713 0.38041 0.82276 0.0
H5390 H 0.67135 0.42006 0.86077 0.0
H5391 H 0.70682 0.3823 0.82227 0.0
H5392 H 0.67111 0.3926 0.83885 0.0
H5393 H 0.70694 0.40383 0.8495 0.0
C5394 C 0.69909 0.41644 0.85901 0.0
C5395 C 0.68911 0.42139 0.86211 0.0
C5396 C 0.67895 0.39024 0.83529 0.0
C5397 C 0.68908 0.40308 0.84809 0.0
C5398 C 0.67906 0.38326 0.82612 0.0
C5399 C 0.68909 0.38047 0.82107 0.0
C5400 C 0.68892 0.39444 0.83942 0.0
C5401 C 0.69889 0.38434 0.82582 0.0
C5402 C 0.69911 0.4073 0.85205 0.0
C5403 C 0.67924 0.41656 0.8585 0.0
N5404 N 0.69856 0.39122 0.83465 0.0
N5405 N 0.67947 0.40774 0.85157 0.0
H5406 H 0.06708 0.85936 0.31883 0.0
H5407 H 0.03262 0.81698 0.35559 0.0
H5408 H 0.03161 0.85685 0.3187 0.0
H5409 H 0.06798 0.82009 0.3578 0.0
H5410 H 0.03215 0.83291 0.34336 0.0
H5411 H 0.06769 0.84642 0.33438 0.0
C5412 C 0.05942 0.85621 0.32217 0.0
C5413 C 0.04929 0.85907 0.31738 0.0
C5414 C 0.04002 0.8302 0.34657 0.0
C5415 C 0.04991 0.84426 0.33507 0.0
C5416 C 0.04029 0.82108 0.35356 0.0
C5417 C 0.05036 0.81714 0.35763 0.0
C5418 C 0.04991 0.83538 0.34351 0.0
C5419 C 0.06003 0.82283 0.35479 0.0
C5420 C 0.05977 0.84881 0.33102 0.0
C5421 C 0.03962 0.85478 0.32204 0.0
N5422 N 0.05959 0.83161 0.3478 0.0
N5423 N 0.04018 0.84753 0.33055 0.0
H5424 H 0.32076 0.35898 0.57124 0.0
H5425 H 0.36283 0.32359 0.53529 0.0
H5426 H 0.32359 0.36089 0.53582 0.0
H5427 H 0.35959 0.32021 0.57057 0.0
H5428 H 0.3509 0.33974 0.5359 0.0
H5429 H 0.33721 0.34728 0.5717 0.0
C5430 C 0.32494 0.35708 0.56358 0.0
C5431 C 0.3207 0.36075 0.55345 0.0
C5432 C 0.35289 0.33557 0.54354 0.0
C5433 C 0.33945 0.34737 0.55391 0.0
C5434 C 0.35972 0.32634 0.5432 0.0
C5435 C 0.36205 0.32045 0.55287 0.0
C5436 C 0.34825 0.33888 0.55362 0.0
C5437 C 0.35791 0.32446 0.5629 0.0
C5438 C 0.33431 0.35039 0.56384 0.0
C5439 C 0.32648 0.35811 0.54379 0.0
N5440 N 0.35105 0.33334 0.563 0.0
N5441 N 0.33547 0.35148 0.54425 0.0
H5442 H 0.13098 0.57087 0.31891 0.0
H5443 H 0.17181 0.60646 0.28123 0.0
H5444 H 0.13465 0.5667 0.28377 0.0
H5445 H 0.17178 0.60798 0.31678 0.0
H5446 H 0.15602 0.59404 0.28192 0.0
H5447 H 0.14376 0.58652 0.31816 0.0
C5448 C 0.13437 0.57333 0.31102 0.0
C5449 C 0.13185 0.5674 0.3014 0.0
C5450 C 0.1594 0.59715 0.28958 0.0
C5451 C 0.14645 0.58525 0.30049 0.0
C5452 C 0.16841 0.60426 0.28919 0.0
C5453 C 0.17321 0.60815 0.29897 0.0
C5454 C 0.15513 0.59385 0.29983 0.0
C5455 C 0.16839 0.6051 0.30904 0.0
C5456 C 0.14168 0.58223 0.31061 0.0
C5457 C 0.13645 0.57096 0.2914 0.0
N5458 N 0.15967 0.59804 0.30922 0.0
N5459 N 0.14357 0.5796 0.29122 0.0
H5460 H 0.16882 0.13146 0.45769 0.0
H5461 H 0.13353 0.17309 0.42095 0.0
H5462 H 0.17208 0.13382 0.42234 0.0
H5463 H 0.13074 0.17012 0.4563 0.0
H5464 H 0.14571 0.15696 0.4208 0.0
H5465 H 0.15291 0.14369 0.45686 0.0
C5466 C 0.1661 0.13445 0.44973 0.0
C5467 C 0.17187 0.13174 0.44009 0.0
C5468 C 0.14232 0.15977 0.42857 0.0
C5469 C 0.15371 0.14589 0.43907 0.0
C5470 C 0.13535 0.16896 0.42866 0.0
C5471 C 0.13124 0.17304 0.43867 0.0
C5472 C 0.14518 0.15465 0.43857 0.0
C5473 C 0.13383 0.16734 0.4484 0.0
C5474 C 0.15701 0.14146 0.44925 0.0
C5475 C 0.16791 0.13577 0.42999 0.0
N5476 N 0.14071 0.15852 0.44812 0.0
N5477 N 0.15916 0.14278 0.42975 0.0
H5478 H 0.31956 0.38194 0.17109 0.0
H5479 H 0.36043 0.41784 0.20812 0.0
H5480 H 0.32087 0.38054 0.20663 0.0
H5481 H 0.35914 0.42004 0.17262 0.0
H5482 H 0.34791 0.40212 0.20742 0.0
H5483 H 0.33586 0.39385 0.17118 0.0
C5484 C 0.32336 0.38402 0.1789 0.0
C5485 C 0.31876 0.38037 0.18888 0.0
C5486 C 0.35045 0.40595 0.19976 0.0
C5487 C 0.33736 0.39401 0.18905 0.0
C5488 C 0.35761 0.41493 0.20016 0.0
C5489 C 0.36071 0.42035 0.19042 0.0
C5490 C 0.34625 0.4024 0.18956 0.0
C5491 C 0.35689 0.41615 0.18033 0.0
C5492 C 0.33265 0.39083 0.17895 0.0
C5493 C 0.32406 0.38327 0.19875 0.0
N5494 N 0.34974 0.4075 0.18017 0.0
N5495 N 0.333 0.39 0.19858 0.0
H5496 H 0.10811 0.81902 0.17346 0.0
H5497 H 0.06787 0.78598 0.13285 0.0
H5498 H 0.10594 0.7835 0.17203 0.0
H5499 H 0.0657 0.82109 0.13838 0.0
H5500 H 0.0839 0.78525 0.145 0.0
H5501 H 0.09477 0.82021 0.15834 0.0
C5502 C 0.10495 0.81147 0.16986 0.0
C5503 C 0.10804 0.80114 0.17409 0.0
C5504 C 0.07996 0.79313 0.14351 0.0
C5505 C 0.09277 0.80245 0.15685 0.0
C5506 C 0.07081 0.79355 0.13656 0.0
C5507 C 0.06538 0.8036 0.13468 0.0
C5508 C 0.08374 0.80282 0.14861 0.0
C5509 C 0.0696 0.81316 0.13967 0.0
C5510 C 0.0973 0.81216 0.16127 0.0
C5511 C 0.1037 0.79163 0.1691 0.0
N5512 N 0.0785 0.81253 0.14646 0.0
N5513 N 0.09624 0.79252 0.16081 0.0
H5514 H 0.5325 0.35918 0.32078 0.0
H5515 H 0.57055 0.31708 0.35408 0.0
H5516 H 0.56803 0.35948 0.31916 0.0
H5517 H 0.53523 0.31893 0.35782 0.0
H5518 H 0.56996 0.33347 0.34233 0.0
H5519 H 0.53347 0.34552 0.33552 0.0
C5520 C 0.54052 0.35647 0.32362 0.0
C5521 C 0.5502 0.36039 0.31865 0.0
C5522 C 0.56234 0.33035 0.34579 0.0
C5523 C 0.55137 0.34462 0.33546 0.0
C5524 C 0.56267 0.32098 0.35248 0.0
C5525 C 0.55291 0.31658 0.35686 0.0
C5526 C 0.55217 0.33532 0.34339 0.0
C5527 C 0.54295 0.322 0.35457 0.0
C5528 C 0.54107 0.34865 0.33204 0.0
C5529 C 0.56036 0.35664 0.32272 0.0
N5530 N 0.54283 0.33103 0.34793 0.0
N5531 N 0.56068 0.34886 0.3308 0.0
H5532 H 0.4239 0.21076 0.35416 0.0
H5533 H 0.38227 0.17401 0.31888 0.0
H5534 H 0.42069 0.17557 0.35854 0.0
H5535 H 0.38296 0.20961 0.31816 0.0
H5536 H 0.39544 0.17431 0.3342 0.0
H5537 H 0.40811 0.21047 0.34173 0.0
C5538 C 0.41981 0.20298 0.35257 0.0
C5539 C 0.42367 0.19317 0.35732 0.0
C5540 C 0.39262 0.18205 0.33076 0.0
C5541 C 0.4056 0.19274 0.343 0.0
C5542 C 0.38509 0.18189 0.32202 0.0
C5543 C 0.3816 0.1918 0.31716 0.0
C5544 C 0.39671 0.1922 0.3346 0.0
C5545 C 0.38549 0.20176 0.32159 0.0
C5546 C 0.41078 0.20281 0.34547 0.0
C5547 C 0.41801 0.18333 0.35502 0.0
N5548 N 0.39291 0.2017 0.32997 0.0
N5549 N 0.40932 0.18334 0.34792 0.0
H5550 H 0.92503 0.17087 0.63101 0.0
H5551 H 0.96006 0.13371 0.67225 0.0
H5552 H 0.96056 0.17065 0.6326 0.0
H5553 H 0.92464 0.13176 0.66989 0.0
H5554 H 0.96035 0.14547 0.65598 0.0
H5555 H 0.92461 0.15489 0.64338 0.0
C5556 C 0.93274 0.16736 0.63382 0.0
C5557 C 0.94285 0.1722 0.63091 0.0
C5558 C 0.9525 0.14239 0.65891 0.0
C5559 C 0.94242 0.154 0.64509 0.0
C5560 C 0.95234 0.13567 0.66822 0.0
C5561 C 0.9423 0.13187 0.6725 0.0
C5562 C 0.94253 0.1455 0.6539 0.0
C5563 C 0.93255 0.13457 0.66688 0.0
C5564 C 0.9325 0.15825 0.64089 0.0
C5565 C 0.95258 0.16728 0.63474 0.0
N5566 N 0.93289 0.14137 0.65795 0.0
N5567 N 0.95212 0.15854 0.64172 0.0
H5568 H 0.56943 0.10911 0.92288 0.0
H5569 H 0.60883 0.0714 0.9596 0.0
H5570 H 0.5713 0.11052 0.95838 0.0
H5571 H 0.60823 0.06996 0.92406 0.0
H5572 H 0.59694 0.08757 0.95898 0.0
H5573 H 0.58532 0.09663 0.92278 0.0
C5574 C 0.57328 0.10692 0.93063 0.0
C5575 C 0.56894 0.11073 0.94067 0.0
C5576 C 0.59948 0.08382 0.95129 0.0
C5577 C 0.58706 0.09645 0.94062 0.0
C5578 C 0.60628 0.07457 0.95164 0.0
C5579 C 0.6094 0.06925 0.94187 0.0
C5580 C 0.59563 0.08772 0.94108 0.0
C5581 C 0.60596 0.07379 0.93179 0.0
C5582 C 0.58234 0.09979 0.93057 0.0
C5583 C 0.57428 0.10768 0.95046 0.0
N5584 N 0.59911 0.08268 0.93166 0.0
N5585 N 0.58297 0.10064 0.95019 0.0
H5586 H 0.38245 0.31988 0.16919 0.0
H5587 H 0.41786 0.36148 0.20603 0.0
H5588 H 0.38024 0.32222 0.20463 0.0
H5589 H 0.42101 0.35925 0.17066 0.0
H5590 H 0.40221 0.34889 0.20525 0.0
H5591 H 0.39474 0.33593 0.16914 0.0
C5592 C 0.38444 0.32385 0.17694 0.0
C5593 C 0.38043 0.31962 0.18695 0.0
C5594 C 0.40624 0.35122 0.19763 0.0
C5595 C 0.39448 0.33794 0.18695 0.0
C5596 C 0.41518 0.35843 0.19808 0.0
C5597 C 0.42084 0.36131 0.18841 0.0
C5598 C 0.40296 0.34677 0.18745 0.0
C5599 C 0.41693 0.35719 0.17832 0.0
C5600 C 0.39146 0.333 0.17691 0.0
C5601 C 0.38323 0.32512 0.19674 0.0
N5602 N 0.40831 0.35001 0.17812 0.0
N5603 N 0.39015 0.33392 0.1965 0.0
H5604 H 0.60854 0.17376 0.31771 0.0
H5605 H 0.56645 0.1368 0.28335 0.0
H5606 H 0.60717 0.17268 0.28217 0.0
H5607 H 0.56958 0.1345 0.31871 0.0
H5608 H 0.58252 0.14882 0.28286 0.0
H5609 H 0.59554 0.15828 0.31843 0.0
C5610 C 0.60562 0.17017 0.31007 0.0
C5611 C 0.60882 0.1746 0.29986 0.0
C5612 C 0.57978 0.14562 0.29074 0.0
C5613 C 0.59394 0.15699 0.30062 0.0
C5614 C 0.57059 0.13876 0.29102 0.0
C5615 C 0.56661 0.13474 0.30109 0.0
C5616 C 0.585 0.14863 0.30063 0.0
C5617 C 0.57235 0.13747 0.31077 0.0
C5618 C 0.5982 0.16135 0.31048 0.0
C5619 C 0.60483 0.16962 0.29022 0.0
N5620 N 0.5812 0.14437 0.31032 0.0
N5621 N 0.59753 0.16117 0.29084 0.0
H5622 H 0.42255 0.88322 0.0359 0.0
H5623 H 0.38254 0.92328 0.06981 0.0
H5624 H 0.42532 0.88863 0.07097 0.0
H5625 H 0.38382 0.92159 0.03429 0.0
H5626 H 0.3959 0.90813 0.07078 0.0
H5627 H 0.40615 0.89487 0.0356 0.0
C5628 C 0.41966 0.88679 0.04356 0.0
C5629 C 0.42538 0.88505 0.05346 0.0
C5630 C 0.39315 0.911 0.06278 0.0
C5631 C 0.4066 0.89843 0.05316 0.0
C5632 C 0.38548 0.9196 0.06223 0.0
C5633 C 0.38218 0.92377 0.05195 0.0
C5634 C 0.39746 0.90654 0.05299 0.0
C5635 C 0.38625 0.91871 0.04239 0.0
C5636 C 0.41029 0.89345 0.04338 0.0
C5637 C 0.42121 0.88983 0.06314 0.0
N5638 N 0.39373 0.91042 0.04314 0.0
N5639 N 0.41211 0.89637 0.06274 0.0
H5640 H 0.96083 0.0653 0.60187 0.0
H5641 H 0.92473 0.11021 0.56969 0.0
H5642 H 0.92647 0.07113 0.60894 0.0
H5643 H 0.9588 0.1029 0.56259 0.0
H5644 H 0.9255 0.0974 0.58534 0.0
H5645 H 0.96057 0.08056 0.58883 0.0
C5646 C 0.95324 0.06986 0.60075 0.0
C5647 C 0.94363 0.06687 0.60643 0.0
C5648 C 0.93282 0.09867 0.5804 0.0
C5649 C 0.94324 0.08436 0.59137 0.0
C5650 C 0.93239 0.10599 0.57148 0.0
C5651 C 0.94169 0.10755 0.56477 0.0
C5652 C 0.94263 0.09291 0.58261 0.0
C5653 C 0.95141 0.1019 0.56748 0.0
C5654 C 0.95309 0.07859 0.59327 0.0
C5655 C 0.93405 0.07314 0.60469 0.0
N5656 N 0.9516 0.0948 0.57613 0.0
N5657 N 0.93407 0.08153 0.59723 0.0
H5658 H 0.818 0.17207 0.11 0.0
H5659 H 0.78408 0.13095 0.0712 0.0
H5660 H 0.78253 0.17132 0.10757 0.0
H5661 H 0.81953 0.13374 0.07052 0.0
H5662 H 0.7836 0.1434 0.08699 0.0
H5663 H 0.81892 0.15582 0.098 0.0
C5664 C 0.81041 0.16839 0.10707 0.0
C5665 C 0.80017 0.17313 0.10965 0.0
C5666 C 0.7915 0.14122 0.08346 0.0
C5667 C 0.80116 0.15461 0.09594 0.0
C5668 C 0.79178 0.13409 0.07445 0.0
C5669 C 0.80185 0.13143 0.06944 0.0
C5670 C 0.80136 0.14578 0.08748 0.0
C5671 C 0.81158 0.13566 0.07407 0.0
C5672 C 0.81093 0.15914 0.10021 0.0
C5673 C 0.7906 0.16802 0.10567 0.0
N5674 N 0.81109 0.14274 0.08276 0.0
N5675 N 0.79133 0.1591 0.09895 0.0
H5676 H 0.36105 0.5689 0.32078 0.0
H5677 H 0.32186 0.53461 0.3611 0.0
H5678 H 0.36001 0.53334 0.32238 0.0
H5679 H 0.32095 0.5701 0.35822 0.0
H5680 H 0.33806 0.53426 0.34921 0.0
H5681 H 0.34867 0.56974 0.3367 0.0
C5682 C 0.35836 0.56128 0.32458 0.0
C5683 C 0.36142 0.55103 0.32015 0.0
C5684 C 0.3344 0.54214 0.35125 0.0
C5685 C 0.34724 0.55193 0.33829 0.0
C5686 C 0.32514 0.54235 0.35806 0.0
C5687 C 0.31995 0.55239 0.36053 0.0
C5688 C 0.33847 0.55205 0.34682 0.0
C5689 C 0.32463 0.56216 0.35644 0.0
C5690 C 0.35126 0.56176 0.33365 0.0
C5691 C 0.35773 0.54142 0.32543 0.0
N5692 N 0.33356 0.56174 0.34968 0.0
N5693 N 0.35075 0.5421 0.33414 0.0
H5694 H 0.35841 0.67542 0.92089 0.0
H5695 H 0.31723 0.71072 0.88349 0.0
H5696 H 0.35454 0.71076 0.92292 0.0
H5697 H 0.31995 0.67529 0.88124 0.0
H5698 H 0.33273 0.71094 0.89624 0.0
H5699 H 0.34615 0.67524 0.90481 0.0
C5700 C 0.35509 0.68315 0.91788 0.0
C5701 C 0.35739 0.69311 0.92333 0.0
C5702 C 0.33003 0.70311 0.8929 0.0
C5703 C 0.34338 0.69296 0.905 0.0
C5704 C 0.32117 0.70298 0.8856 0.0
C5705 C 0.31721 0.69296 0.8814 0.0
C5706 C 0.33494 0.69313 0.89614 0.0
C5707 C 0.32271 0.6832 0.88434 0.0
C5708 C 0.34808 0.68304 0.90872 0.0
C5709 C 0.3529 0.70288 0.91906 0.0
N5710 N 0.33123 0.68351 0.89164 0.0
N5711 N 0.34606 0.70254 0.91021 0.0
H5712 H 0.82107 0.07005 0.1338 0.0
H5713 H 0.78381 0.10687 0.17345 0.0
H5714 H 0.78553 0.07098 0.13266 0.0
H5715 H 0.81926 0.1095 0.17249 0.0
H5716 H 0.78443 0.09479 0.15742 0.0
H5717 H 0.82081 0.08553 0.14681 0.0
C5718 C 0.81323 0.0736 0.13617 0.0
C5719 C 0.8033 0.06913 0.13224 0.0
C5720 C 0.79209 0.09808 0.16062 0.0
C5721 C 0.80294 0.08675 0.14715 0.0
C5722 C 0.79173 0.10498 0.16979 0.0
C5723 C 0.80151 0.10911 0.17437 0.0
C5724 C 0.80231 0.09515 0.15603 0.0
C5725 C 0.81153 0.10646 0.16924 0.0
C5726 C 0.81309 0.08242 0.1436 0.0
C5727 C 0.79338 0.07407 0.13556 0.0
N5728 N 0.81169 0.09952 0.16041 0.0
N5729 N 0.79346 0.08253 0.14288 0.0
H5730 H 0.42035 0.56935 0.3818 0.0
H5731 H 0.38129 0.53463 0.42211 0.0
H5732 H 0.42129 0.53392 0.38529 0.0
H5733 H 0.38346 0.57017 0.42293 0.0
H5734 H 0.39365 0.53442 0.40629 0.0
H5735 H 0.40464 0.56993 0.39452 0.0
C5736 C 0.41716 0.56169 0.38512 0.0
C5737 C 0.4222 0.55158 0.38258 0.0
C5738 C 0.39137 0.54228 0.40986 0.0
C5739 C 0.4043 0.55219 0.39711 0.0
C5740 C 0.38429 0.54241 0.4189 0.0
C5741 C 0.38145 0.55243 0.42394 0.0
C5742 C 0.3957 0.55224 0.40581 0.0
C5743 C 0.38552 0.56226 0.41934 0.0
C5744 C 0.40823 0.56203 0.3924 0.0
C5745 C 0.41773 0.54191 0.3871 0.0
N5746 N 0.39253 0.56191 0.41059 0.0
N5747 N 0.40909 0.54247 0.39419 0.0
H5748 H 0.56967 0.45999 0.60765 0.0
H5749 H 0.60808 0.42395 0.56831 0.0
H5750 H 0.57046 0.42441 0.60862 0.0
H5751 H 0.60821 0.45954 0.56935 0.0
H5752 H 0.59586 0.42375 0.5844 0.0
H5753 H 0.58534 0.45984 0.59509 0.0
C5754 C 0.57323 0.45214 0.60531 0.0
C5755 C 0.56868 0.4422 0.60908 0.0
C5756 C 0.59867 0.4316 0.58118 0.0
C5757 C 0.58657 0.44194 0.59456 0.0
C5758 C 0.60564 0.43171 0.572 0.0
C5759 C 0.60905 0.44178 0.5674 0.0
C5760 C 0.59506 0.44162 0.58575 0.0
C5761 C 0.60569 0.45159 0.57255 0.0
C5762 C 0.58218 0.45205 0.59812 0.0
C5763 C 0.57369 0.43227 0.60586 0.0
N5764 N 0.59881 0.45126 0.58136 0.0
N5765 N 0.58228 0.43238 0.59865 0.0
H5766 H 0.1713 0.82147 0.88005 0.0
H5767 H 0.20853 0.86048 0.918 0.0
H5768 H 0.20665 0.81904 0.88308 0.0
H5769 H 0.17299 0.86038 0.9192 0.0
H5770 H 0.20786 0.84778 0.90245 0.0
H5771 H 0.17169 0.838 0.89174 0.0
C5772 C 0.17915 0.8245 0.88304 0.0
C5773 C 0.18895 0.81881 0.88072 0.0
C5774 C 0.20019 0.85061 0.90603 0.0
C5775 C 0.18945 0.83764 0.89403 0.0
C5776 C 0.20057 0.85789 0.9149 0.0
C5777 C 0.19081 0.86136 0.92001 0.0
C5778 C 0.18997 0.84669 0.90225 0.0
C5779 C 0.18072 0.85783 0.91556 0.0
C5780 C 0.17936 0.8339 0.88973 0.0
C5781 C 0.19889 0.8231 0.88478 0.0
N5782 N 0.18056 0.85056 0.90701 0.0
N5783 N 0.19887 0.8322 0.89129 0.0
H5784 H 0.63379 0.91974 0.17197 0.0
H5785 H 0.67057 0.95773 0.13268 0.0
H5786 H 0.63137 0.95523 0.17037 0.0
H5787 H 0.6737 0.92229 0.13414 0.0
H5788 H 0.65457 0.95663 0.14477 0.0
H5789 H 0.64674 0.92016 0.15649 0.0
C5790 C 0.63587 0.9276 0.16828 0.0
C5791 C 0.6316 0.93748 0.17255 0.0
C5792 C 0.65868 0.94907 0.14238 0.0
C5793 C 0.64643 0.93802 0.15489 0.0
C5794 C 0.66782 0.9497 0.13546 0.0
C5795 C 0.67355 0.9401 0.1325 0.0
C5796 C 0.65525 0.93878 0.14645 0.0
C5797 C 0.66956 0.92991 0.13628 0.0
C5798 C 0.64328 0.92784 0.15945 0.0
C5799 C 0.63454 0.94743 0.16741 0.0
N5800 N 0.66072 0.92952 0.14317 0.0
N5801 N 0.64184 0.94745 0.15893 0.0
H5802 H 0.03449 0.38409 0.92052 0.0
H5803 H 0.07205 0.42706 0.88761 0.0
H5804 H 0.06986 0.38568 0.9239 0.0
H5805 H 0.03697 0.42369 0.8828 0.0
H5806 H 0.07167 0.4111 0.89997 0.0
H5807 H 0.03548 0.39758 0.90563 0.0
C5808 C 0.04249 0.38719 0.91804 0.0
C5809 C 0.0521 0.38383 0.92353 0.0
C5810 C 0.06407 0.4138 0.89615 0.0
C5811 C 0.05329 0.3994 0.90654 0.0
C5812 C 0.06428 0.42292 0.88911 0.0
C5813 C 0.05451 0.42675 0.88424 0.0
C5814 C 0.05401 0.40851 0.89838 0.0
C5815 C 0.04469 0.42105 0.88642 0.0
C5816 C 0.04305 0.39492 0.90954 0.0
C5817 C 0.06224 0.38808 0.91993 0.0
N5818 N 0.04468 0.41227 0.89339 0.0
N5819 N 0.06256 0.39574 0.91173 0.0
H5820 H 0.67475 0.82244 0.60608 0.0
H5821 H 0.63264 0.78425 0.57294 0.0
H5822 H 0.67177 0.7873 0.61103 0.0
H5823 H 0.63351 0.81972 0.56985 0.0
H5824 H 0.64583 0.78544 0.58808 0.0
H5825 H 0.6587 0.82187 0.59388 0.0
C5826 C 0.67066 0.81462 0.60467 0.0
C5827 C 0.67465 0.80489 0.60951 0.0
C5828 C 0.64306 0.79298 0.58418 0.0
C5829 C 0.65632 0.80416 0.59552 0.0
C5830 C 0.63551 0.79231 0.57554 0.0
C5831 C 0.63206 0.8019 0.57004 0.0
C5832 C 0.64728 0.80331 0.58731 0.0
C5833 C 0.636 0.81211 0.57381 0.0
C5834 C 0.6615 0.8143 0.59771 0.0
C5835 C 0.66901 0.79499 0.60743 0.0
N5836 N 0.6435 0.81254 0.58213 0.0
N5837 N 0.66019 0.79487 0.60053 0.0
H5838 H 0.17273 0.92218 0.85992 0.0
H5839 H 0.20955 0.88384 0.82094 0.0
H5840 H 0.20811 0.9244 0.85702 0.0
H5841 H 0.174 0.88427 0.81979 0.0
H5842 H 0.20904 0.89632 0.83667 0.0
H5843 H 0.17297 0.90608 0.84768 0.0
C5844 C 0.18056 0.9192 0.85682 0.0
C5845 C 0.19041 0.92472 0.85937 0.0
C5846 C 0.20133 0.89362 0.83306 0.0
C5847 C 0.19073 0.90635 0.84541 0.0
C5848 C 0.20162 0.88647 0.82408 0.0
C5849 C 0.19181 0.88314 0.81895 0.0
C5850 C 0.19116 0.89754 0.83694 0.0
C5851 C 0.18177 0.88672 0.82345 0.0
C5852 C 0.18068 0.91004 0.84982 0.0
C5853 C 0.20031 0.92049 0.85517 0.0
N5854 N 0.1817 0.89384 0.83212 0.0
N5855 N 0.2002 0.91162 0.84834 0.0
H5856 H 0.57028 0.63217 0.82147 0.0
H5857 H 0.61056 0.66973 0.78548 0.0
H5858 H 0.57208 0.63145 0.78594 0.0
H5859 H 0.60997 0.67055 0.82104 0.0
H5860 H 0.59818 0.65391 0.78579 0.0
H5861 H 0.58637 0.64441 0.8218 0.0
C5862 C 0.57414 0.63446 0.81376 0.0
C5863 C 0.56975 0.6309 0.80365 0.0
C5864 C 0.60083 0.65745 0.79355 0.0
C5865 C 0.58808 0.64492 0.80397 0.0
C5866 C 0.60791 0.66649 0.79337 0.0
C5867 C 0.61119 0.67154 0.80324 0.0
C5868 C 0.59686 0.65347 0.80368 0.0
C5869 C 0.60759 0.66693 0.81323 0.0
C5870 C 0.58331 0.64146 0.81395 0.0
C5871 C 0.5751 0.63409 0.79391 0.0
N5872 N 0.60048 0.65823 0.8132 0.0
N5873 N 0.58391 0.64099 0.79432 0.0
H5874 H 0.42373 0.85659 0.66905 0.0
H5875 H 0.3818 0.82132 0.70565 0.0
H5876 H 0.42151 0.8583 0.70452 0.0
H5877 H 0.38285 0.81924 0.67016 0.0
H5878 H 0.39492 0.83649 0.705 0.0
H5879 H 0.40752 0.84446 0.66887 0.0
C5880 C 0.41977 0.85452 0.67678 0.0
C5881 C 0.42404 0.85837 0.68683 0.0
C5882 C 0.39223 0.83282 0.69732 0.0
C5883 C 0.40556 0.84452 0.68669 0.0
C5884 C 0.38471 0.82414 0.6977 0.0
C5885 C 0.38131 0.81893 0.68795 0.0
C5886 C 0.39651 0.83627 0.68713 0.0
C5887 C 0.38529 0.823 0.67787 0.0
C5888 C 0.41053 0.84759 0.67667 0.0
C5889 C 0.41857 0.85545 0.69659 0.0
N5890 N 0.3928 0.83136 0.67772 0.0
N5891 N 0.40969 0.84865 0.69627 0.0
H5892 H 0.07173 0.92352 0.38276 0.0
H5893 H 0.03622 0.8823 0.41998 0.0
H5894 H 0.03622 0.92151 0.38264 0.0
H5895 H 0.07143 0.88598 0.42339 0.0
H5896 H 0.03668 0.89432 0.4039 0.0
H5897 H 0.07233 0.9076 0.39527 0.0
C5898 C 0.06408 0.91962 0.38522 0.0
C5899 C 0.0539 0.92392 0.38178 0.0
C5900 C 0.04434 0.89245 0.40808 0.0
C5901 C 0.05453 0.90579 0.39604 0.0
C5902 C 0.04408 0.88557 0.41727 0.0
C5903 C 0.05378 0.88327 0.42312 0.0
C5904 C 0.05436 0.89717 0.40473 0.0
C5905 C 0.06375 0.88762 0.41915 0.0
C5906 C 0.06443 0.91057 0.39238 0.0
C5907 C 0.04425 0.91856 0.3852 0.0
N5908 N 0.06377 0.89449 0.41027 0.0
N5909 N 0.0448 0.90984 0.39219 0.0
H5910 H 0.67178 0.45797 0.63389 0.0
H5911 H 0.63295 0.42181 0.67289 0.0
H5912 H 0.67131 0.42238 0.63304 0.0
H5913 H 0.6329 0.4574 0.67176 0.0
H5914 H 0.64558 0.42159 0.65709 0.0
H5915 H 0.65613 0.45771 0.64644 0.0
C5916 C 0.6683 0.45009 0.63627 0.0
C5917 C 0.67292 0.44018 0.6325 0.0
C5918 C 0.6427 0.42943 0.66024 0.0
C5919 C 0.65502 0.4398 0.64702 0.0
C5920 C 0.63549 0.42956 0.66924 0.0
C5921 C 0.63197 0.43964 0.67372 0.0
C5922 C 0.64641 0.43945 0.65572 0.0
C5923 C 0.63548 0.44944 0.66865 0.0
C5924 C 0.65935 0.44994 0.64345 0.0
C5925 C 0.66802 0.43021 0.63579 0.0
N5926 N 0.64256 0.44909 0.66 0.0
N5927 N 0.65941 0.43026 0.64298 0.0
H5928 H 0.66664 0.28444 0.11018 0.0
H5929 H 0.63087 0.32178 0.06949 0.0
H5930 H 0.66915 0.31994 0.10889 0.0
H5931 H 0.62903 0.28624 0.07104 0.0
H5932 H 0.64285 0.32163 0.08575 0.0
H5933 H 0.65079 0.2853 0.09786 0.0
C5934 C 0.66376 0.29244 0.10741 0.0
C5935 C 0.66932 0.30212 0.11043 0.0
C5936 C 0.63971 0.31388 0.08261 0.0
C5937 C 0.65123 0.30317 0.09619 0.0
C5938 C 0.63287 0.31396 0.07334 0.0
C5939 C 0.62908 0.304 0.06882 0.0
C5940 C 0.64279 0.30376 0.08736 0.0
C5941 C 0.63187 0.29411 0.07416 0.0
C5942 C 0.65471 0.29292 0.10035 0.0
C5943 C 0.66517 0.31226 0.10668 0.0
N5944 N 0.63863 0.29424 0.08307 0.0
N5945 N 0.65646 0.31251 0.09962 0.0
H5946 H 0.3545 0.03333 0.81857 0.0
H5947 H 0.31428 0.0712 0.85418 0.0
H5948 H 0.35588 0.0689 0.81802 0.0
H5949 H 0.31668 0.03587 0.85793 0.0
H5950 H 0.33004 0.07072 0.8416 0.0
H5951 H 0.34135 0.03423 0.83374 0.0
C5952 C 0.35212 0.04134 0.82173 0.0
C5953 C 0.35622 0.05105 0.81697 0.0
C5954 C 0.32718 0.06309 0.84525 0.0
C5955 C 0.34102 0.05217 0.83427 0.0
C5956 C 0.31817 0.06335 0.85242 0.0
C5957 C 0.31411 0.05354 0.85704 0.0
C5958 C 0.33211 0.05294 0.84263 0.0
C5959 C 0.3195 0.04362 0.8545 0.0
C5960 C 0.34459 0.04185 0.83039 0.0
C5961 C 0.35289 0.0612 0.82143 0.0
N5962 N 0.32815 0.04356 0.84741 0.0
N5963 N 0.34538 0.0615 0.82975 0.0
H5964 H 0.92093 0.61161 0.07268 0.0
H5965 H 0.95714 0.57206 0.11111 0.0
H5966 H 0.95636 0.60895 0.07123 0.0
H5967 H 0.92164 0.57049 0.10955 0.0
H5968 H 0.95679 0.58808 0.09898 0.0
H5969 H 0.92089 0.59905 0.08856 0.0
C5970 C 0.9287 0.60852 0.07581 0.0
C5971 C 0.93865 0.61121 0.07056 0.0
C5972 C 0.94906 0.58431 0.10135 0.0
C5973 C 0.93867 0.59688 0.08864 0.0
C5974 C 0.94925 0.57516 0.10831 0.0
C5975 C 0.93941 0.56983 0.11123 0.0
C5976 C 0.93896 0.58817 0.09724 0.0
C5977 C 0.92943 0.57429 0.10742 0.0
C5978 C 0.92867 0.60133 0.08483 0.0
C5979 C 0.94849 0.607 0.07494 0.0
N5980 N 0.92946 0.58314 0.10052 0.0
N5981 N 0.94823 0.59999 0.08367 0.0
H5982 H 0.35865 0.20777 0.41883 0.0
H5983 H 0.31765 0.1711 0.38267 0.0
H5984 H 0.35556 0.17251 0.42269 0.0
H5985 H 0.32104 0.20643 0.37975 0.0
H5986 H 0.33331 0.17089 0.39545 0.0
H5987 H 0.34679 0.20688 0.40266 0.0
C5988 C 0.35555 0.19981 0.4162 0.0
C5989 C 0.35797 0.19022 0.4222 0.0
C5990 C 0.3307 0.17867 0.3919 0.0
C5991 C 0.34426 0.18913 0.4037 0.0
C5992 C 0.32178 0.17879 0.38459 0.0
C5993 C 0.31795 0.18882 0.38026 0.0
C5994 C 0.33579 0.18865 0.39488 0.0
C5995 C 0.32363 0.19852 0.38299 0.0
C5996 C 0.34877 0.1993 0.40695 0.0
C5997 C 0.35383 0.18011 0.41834 0.0
N5998 N 0.33219 0.1982 0.39019 0.0
N5999 N 0.34705 0.17985 0.40941 0.0
H6000 H 0.61059 0.57111 0.45334 0.0
H6001 H 0.56821 0.6087 0.4195 0.0
H6002 H 0.60612 0.56826 0.41815 0.0
H6003 H 0.57047 0.6075 0.45498 0.0
H6004 H 0.58408 0.59616 0.41832 0.0
H6005 H 0.59803 0.58675 0.45351 0.0
C6006 C 0.60703 0.57384 0.44561 0.0
C6007 C 0.6093 0.56828 0.43573 0.0
C6008 C 0.58116 0.59876 0.42635 0.0
C6009 C 0.59478 0.5862 0.43588 0.0
C6010 C 0.57214 0.60594 0.42702 0.0
C6011 C 0.56796 0.60904 0.43736 0.0
C6012 C 0.58602 0.59475 0.43608 0.0
C6013 C 0.57335 0.60522 0.44685 0.0
C6014 C 0.59983 0.58278 0.44572 0.0
C6015 C 0.60454 0.57228 0.42596 0.0
N6016 N 0.58204 0.59824 0.44597 0.0
N6017 N 0.59739 0.58094 0.42629 0.0
H6018 H 0.4222 0.38372 0.57178 0.0
H6019 H 0.38217 0.42188 0.53572 0.0
H6020 H 0.42078 0.38365 0.53623 0.0
H6021 H 0.38436 0.42421 0.57116 0.0
H6022 H 0.39468 0.40618 0.53615 0.0
H6023 H 0.40678 0.39682 0.57211 0.0
C6024 C 0.41855 0.38633 0.56406 0.0
C6025 C 0.42285 0.38267 0.55396 0.0
C6026 C 0.39239 0.41005 0.54386 0.0
C6027 C 0.40528 0.39765 0.55427 0.0
C6028 C 0.38522 0.41903 0.54362 0.0
C6029 C 0.38229 0.42443 0.55341 0.0
C6030 C 0.39674 0.40644 0.55397 0.0
C6031 C 0.38645 0.42031 0.56341 0.0
C6032 C 0.40978 0.39384 0.56425 0.0
C6033 C 0.41781 0.38633 0.54421 0.0
N6034 N 0.39355 0.41161 0.56343 0.0
N6035 N 0.40936 0.39365 0.54461 0.0
H6036 H 0.78037 0.67478 0.60395 0.0
H6037 H 0.81808 0.63407 0.56857 0.0
H6038 H 0.81568 0.67301 0.60783 0.0
H6039 H 0.78252 0.63404 0.56794 0.0
H6040 H 0.81755 0.64732 0.58385 0.0
H6041 H 0.7811 0.65891 0.59165 0.0
C6042 C 0.78828 0.67099 0.60227 0.0
C6043 C 0.79798 0.67528 0.60684 0.0
C6044 C 0.80987 0.64432 0.58043 0.0
C6045 C 0.79891 0.65711 0.59265 0.0
C6046 C 0.81017 0.63675 0.57172 0.0
C6047 C 0.80033 0.63304 0.56689 0.0
C6048 C 0.79966 0.6482 0.58429 0.0
C6049 C 0.79032 0.63675 0.57133 0.0
C6050 C 0.7887 0.6619 0.59525 0.0
C6051 C 0.80799 0.66998 0.60445 0.0
N6052 N 0.79025 0.64418 0.57969 0.0
N6053 N 0.80822 0.66124 0.59741 0.0
H6054 H 0.81762 0.57238 0.63119 0.0
H6055 H 0.78125 0.609 0.67178 0.0
H6056 H 0.78208 0.57168 0.63246 0.0
H6057 H 0.8167 0.61121 0.67027 0.0
H6058 H 0.78143 0.59721 0.65554 0.0
H6059 H 0.81752 0.58837 0.64355 0.0
C6060 C 0.80979 0.57569 0.63393 0.0
C6061 C 0.79984 0.57059 0.63093 0.0
C6062 C 0.78918 0.60035 0.65865 0.0
C6063 C 0.79968 0.5888 0.6451 0.0
C6064 C 0.78908 0.60709 0.66795 0.0
C6065 C 0.79899 0.61096 0.67246 0.0
C6066 C 0.79929 0.59731 0.65389 0.0
C6067 C 0.80888 0.60833 0.66708 0.0
C6068 C 0.80975 0.5848 0.641 0.0
C6069 C 0.78995 0.57526 0.63467 0.0
N6070 N 0.8088 0.60152 0.65816 0.0
N6071 N 0.79013 0.58401 0.64165 0.0
H6072 H 0.3836 0.03562 0.91884 0.0
H6073 H 0.42709 0.07266 0.88627 0.0
H6074 H 0.38592 0.07095 0.92263 0.0
H6075 H 0.42332 0.03756 0.8816 0.0
H6076 H 0.41078 0.07261 0.89813 0.0
H6077 H 0.39666 0.03657 0.90361 0.0
C6078 C 0.38676 0.0436 0.91637 0.0
C6079 C 0.38378 0.0532 0.9221 0.0
C6080 C 0.41346 0.06494 0.89443 0.0
C6081 C 0.39888 0.05435 0.90474 0.0
C6082 C 0.42278 0.06496 0.88767 0.0
C6083 C 0.42663 0.05508 0.88305 0.0
C6084 C 0.408 0.05495 0.89661 0.0
C6085 C 0.42069 0.04535 0.88507 0.0
C6086 C 0.39424 0.04415 0.90767 0.0
C6087 C 0.38806 0.06334 0.91848 0.0
N6088 N 0.41173 0.04552 0.89178 0.0
N6089 N 0.39551 0.06363 0.91012 0.0
H6090 H 0.56904 0.92291 0.10843 0.0
H6091 H 0.61095 0.95698 0.07094 0.0
H6092 H 0.57236 0.95836 0.10895 0.0
H6093 H 0.60881 0.92145 0.07024 0.0
H6094 H 0.5986 0.95726 0.08676 0.0
H6095 H 0.58518 0.92181 0.09633 0.0
C6096 C 0.57325 0.93045 0.10612 0.0
C6097 C 0.56927 0.94076 0.10958 0.0
C6098 C 0.6009 0.94937 0.08325 0.0
C6099 C 0.58767 0.93957 0.09574 0.0
C6100 C 0.60797 0.94921 0.07422 0.0
C6101 C 0.61079 0.93918 0.0692 0.0
C6102 C 0.59649 0.93944 0.08725 0.0
C6103 C 0.60678 0.92936 0.07384 0.0
C6104 C 0.58245 0.92982 0.09921 0.0
C6105 C 0.57506 0.95025 0.10638 0.0
N6106 N 0.59969 0.92974 0.08253 0.0
N6107 N 0.58389 0.94943 0.09957 0.0
H6108 H 0.17108 0.32006 0.38199 0.0
H6109 H 0.20825 0.35933 0.41946 0.0
H6110 H 0.20653 0.32214 0.37993 0.0
H6111 H 0.17285 0.35741 0.42234 0.0
H6112 H 0.20735 0.34782 0.40302 0.0
H6113 H 0.17115 0.33572 0.39475 0.0
C6114 C 0.17886 0.32391 0.38409 0.0
C6115 C 0.18884 0.31969 0.38003 0.0
C6116 C 0.19976 0.34999 0.40716 0.0
C6117 C 0.18897 0.33754 0.39464 0.0
C6118 C 0.20026 0.35657 0.41656 0.0
C6119 C 0.19062 0.35919 0.42236 0.0
C6120 C 0.18954 0.34589 0.40357 0.0
C6121 C 0.1805 0.3555 0.41815 0.0
C6122 C 0.17889 0.33283 0.39139 0.0
C6123 C 0.19866 0.32503 0.38298 0.0
N6124 N 0.18023 0.3489 0.40908 0.0
N6125 N 0.19848 0.33359 0.39018 0.0
H6126 H 0.17383 0.42172 0.36006 0.0
H6127 H 0.20882 0.38314 0.31957 0.0
H6128 H 0.20881 0.425 0.35451 0.0
H6129 H 0.17326 0.38332 0.32033 0.0
H6130 H 0.20905 0.39633 0.33473 0.0
H6131 H 0.17361 0.40565 0.3478 0.0
C6132 C 0.18148 0.419 0.35635 0.0
C6133 C 0.19134 0.42477 0.35822 0.0
C6134 C 0.20119 0.39343 0.33165 0.0
C6135 C 0.19114 0.40642 0.34423 0.0
C6136 C 0.20105 0.38586 0.32301 0.0
C6137 C 0.191 0.38222 0.31858 0.0
C6138 C 0.19121 0.39741 0.33594 0.0
C6139 C 0.18119 0.38598 0.32344 0.0
C6140 C 0.18134 0.40985 0.34934 0.0
C6141 C 0.201 0.42086 0.35323 0.0
N6142 N 0.18154 0.39346 0.3318 0.0
N6143 N 0.20065 0.41197 0.34643 0.0
H6144 H 0.96312 0.10699 0.49607 0.0
H6145 H 0.0236 0.12207 0.48638 0.0
H6146 H 0.97695 0.13233 0.51685 0.0
H6147 H 0.00167 0.12322 0.45843 0.0
H6148 H 0.00758 0.12338 0.49873 0.0
H6149 H 0.9781 0.11005 0.48277 0.0
C6150 C 0.96929 0.11323 0.49777 0.0
C6151 C 0.96886 0.11944 0.50751 0.0
C6152 C 0.00633 0.12354 0.48989 0.0
C6153 C 0.986 0.12273 0.49259 0.0
C6154 C 0.01541 0.12277 0.48287 0.0
C6155 C 0.01388 0.1226 0.47142 0.0
C6156 C -0.0043 0.1237 0.48538 0.0
C6157 C 0.00315 0.12344 0.46723 0.0
C6158 C 0.97774 0.115 0.49019 0.0
C6159 C 0.97701 0.12744 0.50938 0.0
N6160 N 0.9944 0.1237 0.47423 0.0
N6161 N 0.98541 0.12872 0.50208 0.0
H6162 H 0.8721 0.25091 0.70891 0.0
H6163 H 0.86277 0.22708 0.76844 0.0
H6164 H 0.87364 0.27312 0.73665 0.0
H6165 H 0.88926 0.21425 0.74851 0.0
H6166 H 0.8603 0.24215 0.75503 0.0
H6167 H 0.87186 0.2352 0.7218 0.0
C6168 C 0.87212 0.25246 0.71771 0.0
C6169 C 0.8729 0.26325 0.7218 0.0
C6170 C 0.86655 0.23594 0.75361 0.0
C6171 C 0.87241 0.24553 0.73637 0.0
C6172 C 0.86795 0.22738 0.76118 0.0
C6173 C 0.87628 0.21952 0.75956 0.0
C6174 C 0.87327 0.23634 0.74422 0.0
C6175 C 0.88283 0.22024 0.75007 0.0
C6176 C 0.87206 0.24354 0.725 0.0
C6177 C 0.87307 0.26488 0.73324 0.0
N6178 N 0.88113 0.22849 0.74267 0.0
N6179 N 0.87277 0.25608 0.74017 0.0
H6180 H 0.72279 0.10995 0.97782 0.0
H6181 H 0.78246 0.11992 0.00152 0.0
H6182 H 0.74262 0.13665 0.9652 0.0
H6183 H 0.75471 0.12054 0.02371 0.0
H6184 H 0.76959 0.1193 0.98582 0.0
H6185 H 0.73636 0.10721 0.99269 0.0
C6186 C 0.73008 0.11511 0.97811 0.0
C6187 C 0.73162 0.12358 0.97038 0.0
C6188 C 0.76639 0.11935 0.99416 0.0
C6189 C 0.74714 0.12026 0.98697 0.0
C6190 C 0.77367 0.11963 0.00307 0.0
C6191 C 0.76958 0.12029 0.01385 0.0
C6192 C 0.75501 0.11938 -0.00387 0.0
C6193 C 0.75814 0.12006 0.01548 0.0
C6194 C 0.73775 0.11355 0.98655 0.0
C6195 C 0.74114 0.13009 0.97109 0.0
N6196 N 0.75121 0.11958 0.00669 0.0
N6197 N 0.74862 0.12826 0.97922 0.0
H6198 H 0.85042 0.01233 0.26838 0.0
H6199 H 0.88142 0.98376 0.21792 0.0
H6200 H 0.88227 0.02363 0.25721 0.0
H6201 H 0.85327 0.97003 0.23485 0.0
H6202 H 0.8822 -0.00146 0.23178 0.0
H6203 H 0.85147 -0.00295 0.25555 0.0
C6204 C 0.85766 0.01161 0.26321 0.0
C6205 C 0.86625 0.01932 0.26386 0.0
C6206 C 0.87593 0.99222 0.23247 0.0
C6207 C 0.86752 0.0017 0.24903 0.0
C6208 C 0.87548 0.98379 0.22458 0.0
C6209 C 0.8672 0.97569 0.22515 0.0
C6210 C 0.86802 0.99254 0.24092 0.0
C6211 C 0.85974 0.97613 0.23397 0.0
C6212 C 0.85828 0.00282 0.25589 0.0
C6213 C 0.87546 0.01787 0.25698 0.0
N6214 N 0.86029 0.98443 0.24143 0.0
N6215 N 0.87582 0.00924 0.24977 0.0
H6216 H 0.01639 0.14762 0.76285 0.0
H6217 H 0.9685 0.11283 0.73389 0.0
H6218 H 0.00854 0.11422 0.77247 0.0
H6219 H 0.97386 0.14773 0.72907 0.0
H6220 H 0.98336 0.11271 0.7476 0.0
H6221 H 0.0012 0.14728 0.74984 0.0
C6222 C 0.01149 0.14018 0.76222 0.0
C6223 C 0.01378 0.13092 0.76878 0.0
C6224 C 0.98123 0.12038 0.74356 0.0
C6225 C -0.00376 0.1305 0.75381 0.0
C6226 C 0.97276 0.12046 0.73573 0.0
C6227 C 0.96995 0.1303 0.73028 0.0
C6228 C 0.98695 0.13019 0.74588 0.0
C6229 C 0.97574 0.13994 0.73301 0.0
C6230 C 0.00276 0.14001 0.75479 0.0
C6231 C 0.00707 0.12154 0.76758 0.0
N6232 N 0.98397 0.13962 0.74057 0.0
N6233 N -0.00139 0.12156 0.76021 0.0
H6234 H 0.85789 0.23932 0.96657 0.0
H6235 H 0.88229 0.25819 0.02488 0.0
H6236 H 0.88063 0.2191 0.98506 0.0
H6237 H 0.8547 0.27335 0.00829 0.0
H6238 H 0.88424 0.24534 0.0093 0.0
H6239 H 0.85942 0.25358 0.98054 0.0
C6240 C 0.86327 0.2379 0.97356 0.0
C6241 C 0.869 0.22792 0.97473 0.0
C6242 C 0.87782 0.25154 0.00909 0.0
C6243 C 0.87071 0.24426 0.9909 0.0
C6244 C 0.87671 0.25888 0.01795 0.0
C6245 C 0.86824 0.26678 0.01794 0.0
C6246 C 0.87049 0.25225 0.00015 0.0
C6247 C 0.86126 0.26732 0.00874 0.0
C6248 C 0.86413 0.24606 0.98156 0.0
C6249 C 0.87601 0.22665 0.98387 0.0
N6250 N 0.86253 0.26016 0.00026 0.0
N6251 N 0.87657 0.23469 0.99171 0.0
H6252 H 0.76966 0.09493 0.23229 0.0
H6253 H 0.73347 0.13151 0.27364 0.0
H6254 H 0.77282 0.13037 0.23426 0.0
H6255 H 0.73181 0.09601 0.27098 0.0
H6256 H 0.74809 0.13159 0.25964 0.0
H6257 H 0.75596 0.09549 0.24683 0.0
C6258 C 0.76747 0.10286 0.23577 0.0
C6259 C 0.77239 0.11263 0.23199 0.0
C6260 C 0.74452 0.1238 0.26216 0.0
C6261 C 0.75659 0.11333 0.24877 0.0
C6262 C 0.73618 0.12375 0.27015 0.0
C6263 C 0.73135 0.11374 0.27346 0.0
C6264 C 0.74802 0.11379 0.25749 0.0
C6265 C 0.73521 0.10394 0.26867 0.0
C6266 C 0.75963 0.10317 0.24412 0.0
C6267 C 0.76923 0.12264 0.23691 0.0
N6268 N 0.74327 0.10422 0.26095 0.0
N6269 N 0.76149 0.12274 0.24504 0.0
H6270 H 0.89673 0.98159 0.52107 0.0
H6271 H 0.86078 0.02326 0.48461 0.0
H6272 H 0.86138 0.98428 0.52418 0.0
H6273 H 0.8961 0.01961 0.4822 0.0
H6274 H 0.86061 0.00935 0.49929 0.0
H6275 H 0.89642 0.99585 0.50702 0.0
C6276 C 0.88887 0.98517 0.51881 0.0
C6277 C 0.87905 0.98168 0.52382 0.0
C6278 C 0.86838 0.01162 0.49554 0.0
C6279 C 0.87865 -0.00188 0.50762 0.0
C6280 C 0.86849 0.01956 0.48716 0.0
C6281 C 0.87847 0.0226 0.48213 0.0
C6282 C 0.87832 0.00671 0.4989 0.0
C6283 C 0.8882 0.01753 0.48579 0.0
C6284 C 0.88871 0.99335 0.51076 0.0
C6285 C 0.86915 0.9867 0.52053 0.0
N6286 N 0.88787 0.00985 0.49392 0.0
N6287 N 0.86919 0.99467 0.51261 0.0
H6288 H 0.46736 0.00917 0.13193 0.0
H6289 H 0.52328 0.98835 0.10386 0.0
H6290 H 0.48026 0.02091 0.10089 0.0
H6291 H 0.50785 0.97069 0.13067 0.0
H6292 H 0.50878 0.00211 0.10475 0.0
H6293 H 0.48313 -0.00348 0.13339 0.0
C6294 C 0.47351 0.00912 0.12545 0.0
C6295 C 0.47245 0.01607 0.11623 0.0
C6296 C 0.50855 0.99526 0.11049 0.0
C6297 C 0.49047 0.00176 0.11792 0.0
C6298 C 0.51687 0.98739 0.11 0.0
C6299 C 0.51672 0.97826 0.11711 0.0
C6300 C 0.49995 0.99404 0.11811 0.0
C6301 C 0.50825 0.97757 0.12499 0.0
C6302 C 0.48248 0.00191 0.1263 0.0
C6303 C 0.48066 0.01567 0.1081 0.0
N6304 N 0.50013 0.98532 0.12522 0.0
N6305 N 0.48929 0.00866 0.10915 0.0
H6306 H 0.02726 0.74906 0.3554 0.0
H6307 H 0.96696 0.73883 0.37017 0.0
H6308 H 0.01371 0.76933 0.38127 0.0
H6309 H 0.98905 0.71101 0.37182 0.0
H6310 H 0.9829 0.75131 0.37156 0.0
H6311 H 0.01227 0.73571 0.35828 0.0
C6312 C 0.02115 0.75064 0.36172 0.0
C6313 C 0.02165 0.76024 0.36813 0.0
C6314 C 0.98419 0.74247 0.3718 0.0
C6315 C 0.00451 0.74529 0.37122 0.0
C6316 C 0.97516 0.73538 0.37098 0.0
C6317 C 0.97676 0.72393 0.37094 0.0
C6318 C 0.99485 0.73802 0.37213 0.0
C6319 C 0.98751 0.71981 0.37193 0.0
C6320 C 0.01269 0.74304 0.36338 0.0
C6321 C 0.01358 0.76196 0.37622 0.0
N6322 N -0.00379 0.72687 0.37224 0.0
N6323 N 0.00516 0.75464 0.3774 0.0
H6324 H 0.27125 0.23531 0.63087 0.0
H6325 H 0.21228 0.25477 0.60885 0.0
H6326 H 0.25155 0.21784 0.6069 0.0
H6327 H 0.23217 0.27479 0.63054 0.0
H6328 H 0.22561 0.23993 0.61051 0.0
H6329 H 0.2562 0.24868 0.63312 0.0
C6330 C 0.26373 0.23422 0.62618 0.0
C6331 C 0.2627 0.22552 0.61858 0.0
C6332 C 0.22707 0.24753 0.61498 0.0
C6333 C 0.24552 0.2407 0.62114 0.0
C6334 C 0.21944 0.25603 0.61403 0.0
C6335 C 0.2212 0.2661 0.61943 0.0
C6336 C 0.23664 0.2491 0.62129 0.0
C6337 C 0.23054 0.26717 0.62618 0.0
C6338 C 0.25517 0.24185 0.62745 0.0
C6339 C 0.25279 0.22449 0.61274 0.0
N6340 N 0.23802 0.25881 0.62681 0.0
N6341 N 0.24464 0.232 0.6141 0.0
H6342 H 0.77472 0.50299 0.86032 0.0
H6343 H 0.7154 0.4846 0.88215 0.0
H6344 H 0.75449 0.52414 0.88053 0.0
H6345 H 0.73634 0.46527 0.86083 0.0
H6346 H 0.73031 0.49822 0.88402 0.0
H6347 H 0.7616 0.48811 0.86294 0.0
C6348 C 0.76752 0.50448 0.86538 0.0
C6349 C 0.7656 0.51486 0.87008 0.0
C6350 C 0.73164 0.49092 0.87904 0.0
C6351 C 0.75037 0.49783 0.87302 0.0
C6352 C 0.72316 0.48315 0.87799 0.0
C6353 C 0.72458 0.47388 0.87119 0.0
C6354 C 0.74159 0.48932 0.87331 0.0
C6355 C 0.7348 0.47238 0.86601 0.0
C6356 C 0.76001 0.49596 0.86689 0.0
C6357 C 0.75623 0.51626 0.87671 0.0
N6358 N 0.74285 0.48004 0.86713 0.0
N6359 N 0.74884 0.50787 0.87787 0.0
H6360 H 0.50729 0.276 0.11027 0.0
H6361 H 0.48502 0.22055 0.13831 0.0
H6362 H 0.52288 0.2588 0.13729 0.0
H6363 H 0.46839 0.2357 0.1107 0.0
H6364 H 0.49931 0.2344 0.13714 0.0
H6365 H 0.49338 0.26124 0.10933 0.0
C6366 C 0.50785 0.26911 0.11593 0.0
C6367 C 0.51624 0.26869 0.12392 0.0
C6368 C 0.49259 0.23473 0.13128 0.0
C6369 C 0.5004 0.25188 0.12291 0.0
C6370 C 0.48437 0.22679 0.13195 0.0
C6371 C 0.47542 0.22696 0.12463 0.0
C6372 C 0.49193 0.24305 0.12325 0.0
C6373 C 0.47514 0.23526 0.11653 0.0
C6374 C 0.4999 0.26071 0.1154 0.0
C6375 C 0.51655 0.25957 0.13104 0.0
N6376 N 0.48325 0.24304 0.11609 0.0
N6377 N 0.50876 0.25161 0.13038 0.0
H6378 H 0.75847 0.71936 0.36055 0.0
H6379 H 0.7301 0.7697 0.39218 0.0
H6380 H 0.77186 0.73548 0.38935 0.0
H6381 H 0.71876 0.75873 0.36026 0.0
H6382 H 0.74515 0.7566 0.39117 0.0
H6383 H 0.74371 0.73324 0.36002 0.0
C6384 C 0.75837 0.72584 0.3667 0.0
C6385 C 0.76639 0.72619 0.37505 0.0
C6386 C 0.73942 0.75705 0.38434 0.0
C6387 C 0.74955 0.74199 0.37453 0.0
C6388 C 0.73076 0.76453 0.38493 0.0
C6389 C 0.72311 0.76533 0.3763 0.0
C6390 C 0.74048 0.75018 0.37508 0.0
C6391 C 0.72448 0.7584 0.3671 0.0
C6392 C 0.74994 0.73374 0.36639 0.0
C6393 C 0.76584 0.73478 0.3828 0.0
N6394 N 0.73298 0.75106 0.36675 0.0
N6395 N 0.75756 0.74226 0.38237 0.0
H6396 H 0.23889 0.95964 0.61862 0.0
H6397 H 0.2619 0.01943 0.60804 0.0
H6398 H 0.21652 0.98718 0.62109 0.0
H6399 H 0.27508 -4e-05 0.63472 0.0
H6400 H 0.24705 0.00571 0.60573 0.0
H6401 H 0.25438 0.97271 0.61729 0.0
C6402 C 0.23724 0.96843 0.6186 0.0
C6403 C 0.22648 0.97241 0.62 0.0
C6404 C 0.25331 0.00444 0.61196 0.0
C6405 C 0.24395 0.98718 0.61823 0.0
C6406 C 0.26174 0.01219 0.61327 0.0
C6407 C 0.2696 0.01079 0.62162 0.0
C6408 C 0.25307 0.99511 0.61879 0.0
C6409 C 0.26908 0.00133 0.62825 0.0
C6410 C 0.24603 0.97582 0.61789 0.0
C6411 C 0.22473 0.98384 0.62007 0.0
N6412 N 0.26097 0.99377 0.62665 0.0
N6413 N 0.23341 0.99088 0.61917 0.0
H6414 H 0.9898 0.52147 0.89261 0.0
H6415 H 0.0141 0.47548 0.85288 0.0
H6416 H 0.97902 0.51852 0.85882 0.0
H6417 H 0.03317 0.4902 0.87908 0.0
H6418 H -0.00035 0.48933 0.85598 0.0
H6419 H 0.0043 0.50795 0.88894 0.0
C6420 C 0.99046 0.51795 0.88443 0.0
C6421 C 0.98321 0.52112 0.876 0.0
C6422 C 0.00704 0.48953 0.86099 0.0
C6423 C -0.00031 0.5056 0.87179 0.0
C6424 C 0.01525 0.48163 0.85926 0.0
C6425 C 0.02483 0.48172 0.86572 0.0
C6426 C 0.00836 0.49738 0.8694 0.0
C6427 C 0.02593 0.48987 0.87387 0.0
C6428 C -0.00124 0.51028 0.88233 0.0
C6429 C 0.98448 0.51633 0.86553 0.0
N6430 N 0.01774 0.49731 0.87555 0.0
N6431 N 0.99252 0.50873 0.86374 0.0
H6432 H 0.12204 0.48632 0.02759 0.0
H6433 H 0.10902 0.49854 0.96678 0.0
H6434 H 0.12371 0.45964 0.00414 0.0
H6435 H 0.13079 0.52062 0.98412 0.0
H6436 H 0.11254 0.48432 0.98081 0.0
H6437 H 0.1238 0.49957 0.01236 0.0
C6438 C 0.12295 0.48329 0.01924 0.0
C6439 C 0.12274 0.47194 0.01705 0.0
C6440 C 0.11669 0.49221 0.98142 0.0
C6441 C 0.12439 0.48692 -0.00028 0.0
C6442 C 0.11465 0.50029 0.97349 0.0
C6443 C 0.11967 0.51064 0.9744 0.0
C6444 C 0.1235 0.4947 0.99044 0.0
C6445 C 0.12683 0.51266 0.98322 0.0
C6446 C 0.12398 0.49081 0.0106 0.0
C6447 C 0.12391 0.46835 0.00612 0.0
N6448 N 0.12839 0.5048 0.99106 0.0
N6449 N 0.12443 0.47585 -0.00221 0.0
H6450 H 0.6065 0.21814 0.25163 0.0
H6451 H 0.63141 0.27612 0.23264 0.0
H6452 H 0.63038 0.236 0.27107 0.0
H6453 H 0.60729 0.25725 0.21448 0.0
H6454 H 0.63303 0.2608 0.24582 0.0
H6455 H 0.60862 0.23158 0.23695 0.0
C6456 C 0.61224 0.22489 0.25279 0.0
C6457 C 0.61816 0.22603 0.26265 0.0
C6458 C 0.62748 0.26001 0.23888 0.0
C6459 C 0.62058 0.2416 0.24583 0.0
C6460 C 0.62657 0.26872 0.23135 0.0
C6461 C 0.61909 0.26802 0.22254 0.0
C6462 C 0.6209 0.25056 0.23751 0.0
C6463 C 0.61304 0.25825 0.22123 0.0
C6464 C 0.61347 0.23257 0.24438 0.0
C6465 C 0.62561 0.23485 0.26361 0.0
N6466 N 0.61403 0.24996 0.22866 0.0
N6467 N 0.62652 0.2424 0.25534 0.0
H6468 H 0.75542 0.88034 0.52404 0.0
H6469 H 0.7362 0.85819 0.46497 0.0
H6470 H 0.77271 0.85614 0.5045 0.0
H6471 H 0.71577 0.87942 0.48492 0.0
H6472 H 0.75089 0.85992 0.47843 0.0
H6473 H 0.74198 0.88246 0.509 0.0
C6474 C 0.75645 0.87558 0.51656 0.0
C6475 C 0.76511 0.86795 0.51556 0.0
C6476 C 0.74323 0.86426 0.47989 0.0
C6477 C 0.74989 0.87037 0.49841 0.0
C6478 C 0.73482 0.86327 0.47219 0.0
C6479 C 0.72468 0.86853 0.47391 0.0
C6480 C 0.74152 0.87047 0.4895 0.0
C6481 C 0.72345 0.87517 0.48332 0.0
C6482 C 0.74878 0.87677 0.50801 0.0
C6483 C 0.76609 0.86199 0.50571 0.0
N6484 N 0.73174 0.87585 0.49087 0.0
N6485 N 0.75856 0.8633 0.49757 0.0
H6486 H 0.14036 0.01886 0.76064 0.0
H6487 H 0.10944 0.96739 0.73375 0.0
H6488 H 0.10898 0.00735 0.77287 0.0
H6489 H 0.13687 0.98461 0.71894 0.0
H6490 H 0.1088 0.98154 0.74825 0.0
H6491 H 0.1391 0.0058 0.74555 0.0
C6492 C 0.13318 0.01357 0.76016 0.0
C6493 C 0.12478 0.01419 0.76808 0.0
C6494 C 0.11488 0.98223 0.74175 0.0
C6495 C 0.12327 -0.0009 0.7507 0.0
C6496 C 0.11524 0.97417 0.73347 0.0
C6497 C 0.12329 0.97474 0.72516 0.0
C6498 C 0.12265 0.99083 0.7417 0.0
C6499 C 0.13059 0.98372 0.72521 0.0
C6500 C 0.13244 0.00612 0.75149 0.0
C6501 C 0.11564 0.00715 0.76694 0.0
N6502 N 0.13013 0.99133 0.73338 0.0
N6503 N 0.11516 -0.00018 0.75844 0.0
H6504 H 0.52304 0.3618 0.48486 0.0
H6505 H 0.46952 0.39001 0.51063 0.0
H6506 H 0.50414 0.38771 0.46934 0.0
H6507 H 0.48401 0.36076 0.52486 0.0
H6508 H 0.48227 0.38875 0.49532 0.0
H6509 H 0.50894 0.3606 0.49937 0.0
C6510 C 0.5159 0.36715 0.48444 0.0
C6511 C 0.51484 0.37496 0.47594 0.0
C6512 C 0.48268 0.38254 0.50173 0.0
C6513 C 0.49878 0.37365 0.49246 0.0
C6514 C 0.4754 0.38329 0.51053 0.0
C6515 C 0.47575 0.37553 0.5191 0.0
C6516 C 0.49052 0.37403 0.50147 0.0
C6517 C 0.48349 0.36693 0.51842 0.0
C6518 C 0.50787 0.36646 0.49272 0.0
C6519 C 0.50541 0.38166 0.47579 0.0
N6520 N 0.49066 0.36646 0.50979 0.0
N6521 N 0.49783 0.38088 0.48394 0.0
H6522 H 0.14471 0.76285 0.01757 0.0
H6523 H 0.11064 0.73503 0.96864 0.0
H6524 H 0.11228 0.77442 0.00851 0.0
H6525 H 0.14571 0.73143 0.97356 0.0
H6526 H 0.11018 0.74842 0.98385 0.0
H6527 H 0.14418 0.7499 0.00236 0.0
C6528 C 0.13742 0.76264 0.01242 0.0
C6529 C 0.12853 0.76979 0.01434 0.0
C6530 C 0.11796 0.7447 0.98153 0.0
C6531 C 0.12791 0.75488 -0.00326 0.0
C6532 C 0.11823 0.73707 0.97287 0.0
C6533 C 0.12823 0.73205 0.96984 0.0
C6534 C 0.12772 0.74722 0.98723 0.0
C6535 C 0.13781 0.73502 0.97559 0.0
C6536 C 0.13715 0.75525 0.00367 0.0
C6537 C 0.11933 0.76908 0.00732 0.0
N6538 N 0.13729 0.74235 0.98401 0.0
N6539 N 0.11924 0.76174 -0.00119 0.0
H6540 H 0.73705 0.88814 0.27328 0.0
H6541 H 0.75813 0.86133 0.21686 0.0
H6542 H 0.71921 0.86208 0.25679 0.0
H6543 H 0.77549 0.88625 0.23548 0.0
H6544 H 0.74427 0.86039 0.23162 0.0
H6545 H 0.75164 0.88652 0.25974 0.0
C6546 C 0.7362 0.88204 0.2668 0.0
C6547 C 0.72683 0.8753 0.26613 0.0
C6548 C 0.75117 0.86598 0.23247 0.0
C6549 C 0.74362 0.87341 0.25045 0.0
C6550 C 0.75909 0.86651 0.22408 0.0
C6551 C 0.76793 0.87397 0.22488 0.0
C6552 C 0.75216 0.87294 0.2417 0.0
C6553 C 0.76877 0.88047 0.23441 0.0
C6554 C 0.74458 0.8811 0.25906 0.0
C6555 C 0.72629 0.86747 0.2576 0.0
N6556 N 0.76098 0.87984 0.24238 0.0
N6557 N 0.73454 0.86679 0.25001 0.0
H6558 H 0.98915 0.3776 0.71165 0.0
H6559 H 0.0024 0.361 0.77399 0.0
H6560 H 0.9658 0.36367 0.73456 0.0
H6561 H 0.02663 0.37626 0.7529 0.0
H6562 H 0.98849 0.36393 0.75989 0.0
H6563 H 0.00265 0.37915 0.72676 0.0
C6564 C 0.98681 0.37508 0.7199 0.0
C6565 C 0.97643 0.3704 0.72189 0.0
C6566 C -0.00318 0.36672 0.7583 0.0
C6567 C 0.99167 0.37212 0.73908 0.0
C6568 C 0.00477 0.36502 0.76637 0.0
C6569 C 0.01568 0.36829 0.76456 0.0
C6570 C -0.0002 0.37156 0.7482 0.0
C6571 C 0.01828 0.37361 0.75459 0.0
C6572 C 0.99451 0.37592 0.72848 0.0
C6573 C 0.97379 0.36718 0.73265 0.0
N6574 N 0.01041 0.37494 0.74669 0.0
N6575 N 0.98137 0.36805 0.7408 0.0
H6576 H 0.96583 0.8853 0.50317 0.0
H6577 H 0.02414 0.86158 0.48389 0.0
H6578 H 0.98449 0.86212 0.52271 0.0
H6579 H 0.00509 0.88596 0.46626 0.0
H6580 H 0.00888 0.85955 0.49705 0.0
H6581 H 0.97918 0.88339 0.4884 0.0
C6582 C 0.97273 0.87974 0.50433 0.0
C6583 C 0.97414 0.87398 0.51426 0.0
C6584 C 0.00803 0.86525 0.49022 0.0
C6585 C 0.9896 0.87183 0.49733 0.0
C6586 C 0.01672 0.8664 0.48271 0.0
C6587 C 0.01594 0.87407 0.47406 0.0
C6588 C -0.00146 0.87177 0.48899 0.0
C6589 C 0.00614 0.88008 0.47289 0.0
C6590 C 0.98036 0.87865 0.49587 0.0
C6591 C 0.98314 0.86676 0.51521 0.0
N6592 N -0.00212 0.87884 0.4803 0.0
N6593 N 0.99064 0.866 0.50689 0.0
H6594 H 0.09785 0.72275 0.26443 0.0
H6595 H 0.13037 0.7714 0.23389 0.0
H6596 H 0.13098 0.73216 0.27344 0.0
H6597 H 0.09755 0.76042 0.2255 0.0
H6598 H 0.1313 0.7569 0.24801 0.0
H6599 H 0.09814 0.73632 0.24975 0.0
C6600 C 0.10522 0.72767 0.26333 0.0
C6601 C 0.11439 0.72633 0.27025 0.0
C6602 C 0.12393 0.75767 0.24303 0.0
C6603 C 0.11477 0.74202 0.25332 0.0
C6604 C 0.12339 0.76593 0.23497 0.0
C6605 C 0.11384 0.76718 0.22853 0.0
C6606 C 0.11486 0.75064 0.24462 0.0
C6607 C 0.10506 0.75985 0.23028 0.0
C6608 C 0.10538 0.73544 0.25489 0.0
C6609 C 0.12372 0.73293 0.26831 0.0
N6610 N 0.10579 0.75195 0.23816 0.0
N6611 N 0.12366 0.74054 0.26004 0.0
H6612 H 0.26742 0.84698 0.01154 0.0
H6613 H 0.21932 0.8804 0.98138 0.0
H6614 H 0.25793 0.87985 0.0215 0.0
H6615 H 0.23345 0.84997 0.96941 0.0
H6616 H 0.23303 0.88058 -0.00373 0.0
H6617 H 0.25449 0.84804 -0.00368 0.0
C6618 C 0.26261 0.85445 0.01054 0.0
C6619 C 0.26377 0.86334 0.01784 0.0
C6620 C 0.23313 0.87391 0.99033 0.0
C6621 C 0.24885 0.86461 0.00031 0.0
C6622 C 0.22533 0.87381 0.98183 0.0
C6623 C 0.22519 0.86512 0.97416 0.0
C6624 C 0.24078 0.86525 0.99116 0.0
C6625 C 0.23318 0.85681 0.97514 0.0
C6626 C 0.25523 0.85506 0.00179 0.0
C6627 C 0.25731 0.8728 0.01606 0.0
N6628 N 0.24058 0.85706 0.98349 0.0
N6629 N 0.25008 0.87318 0.00748 0.0
H6630 H 0.98058 0.8809 0.21739 0.0
H6631 H 0.00691 0.8499 0.26911 0.0
H6632 H 0.96588 0.85305 0.23405 0.0
H6633 H 0.02004 0.88061 0.25673 0.0
H6634 H 0.99167 0.85141 0.25626 0.0
H6635 H 0.99483 0.88161 0.23176 0.0
C6636 C 0.98027 0.87503 0.22411 0.0
C6637 C 0.97209 0.86682 0.22444 0.0
C6638 C -0.00217 0.85787 0.25634 0.0
C6639 C 0.98834 0.86755 0.2408 0.0
C6640 C 0.00659 0.85699 0.26368 0.0
C6641 C 0.01482 0.86511 0.26396 0.0
C6642 C -0.00272 0.8669 0.2491 0.0
C6643 C 0.01388 0.87416 0.25677 0.0
C6644 C 0.98841 0.87542 0.23229 0.0
C6645 C 0.97208 0.85944 0.23335 0.0
N6646 N 0.0053 0.87477 0.24955 0.0
N6647 N 0.98011 0.85993 0.24109 0.0
H6648 H 0.2199 0.86238 0.75728 0.0
H6649 H 0.2776 0.88665 0.73662 0.0
H6650 H 0.23865 0.88764 0.77397 0.0
H6651 H 0.25898 0.86282 0.71781 0.0
H6652 H 0.26422 0.88519 0.75142 0.0
H6653 H 0.23485 0.86061 0.74374 0.0
C6654 C 0.22718 0.86747 0.75816 0.0
C6655 C 0.22797 0.87526 0.7667 0.0
C6656 C 0.26305 0.88022 0.7441 0.0
C6657 C 0.24503 0.87327 0.75132 0.0
C6658 C 0.2707 0.88106 0.73562 0.0
C6659 C 0.26934 0.87495 0.72589 0.0
C6660 C 0.25385 0.87329 0.74287 0.0
C6661 C 0.26031 0.86772 0.72515 0.0
C6662 C 0.23569 0.86647 0.75043 0.0
C6663 C 0.23759 0.88162 0.76746 0.0
N6664 N 0.25282 0.86718 0.73349 0.0
N6665 N 0.24569 0.88052 0.75986 0.0
H6666 H 0.09825 0.0184 0.47958 0.0
H6667 H 0.13076 0.96927 0.50919 0.0
H6668 H 0.13099 0.00873 0.46951 0.0
H6669 H 0.10059 0.9839 0.52116 0.0
H6670 H 0.13121 0.98309 0.49436 0.0
H6671 H 0.09907 0.00511 0.49448 0.0
C6672 C 0.10564 0.01348 0.48049 0.0
C6673 C 0.11457 0.01471 0.47325 0.0
C6674 C 0.12454 0.98327 0.50029 0.0
C6675 C 0.11556 -0.00066 0.49045 0.0
C6676 C 0.12428 0.9754 0.50875 0.0
C6677 C 0.1156 0.97537 0.51642 0.0
C6678 C 0.11604 0.9911 0.4995 0.0
C6679 C 0.10743 0.98352 0.51544 0.0
C6680 C 0.10611 0.00588 0.48906 0.0
C6681 C 0.12392 0.00807 0.47492 0.0
N6682 N 0.10784 0.99098 0.50714 0.0
N6683 N 0.12417 0.00062 0.48334 0.0
H6684 H 0.4894 0.03119 0.88145 0.0
H6685 H 0.51863 0.97815 0.85657 0.0
H6686 H 0.47631 0.01447 0.85289 0.0
H6687 H 0.51885 0.98557 0.89138 0.0
H6688 H 0.50531 0.99315 0.85372 0.0
H6689 H 0.5027 0.0162 0.88386 0.0
C6690 C 0.48937 0.02439 0.87565 0.0
C6691 C 0.48175 0.02403 0.86697 0.0
C6692 C 0.50829 0.99144 0.86197 0.0
C6693 C 0.49696 0.00698 0.86962 0.0
C6694 C 0.51589 0.98294 0.8636 0.0
C6695 C 0.51981 0.98061 0.87423 0.0
C6696 C 0.50481 -0.00223 0.87101 0.0
C6697 C 0.51598 0.98704 0.88306 0.0
C6698 C 0.49691 0.01584 0.87707 0.0
C6699 C 0.48203 0.01501 0.85972 0.0
N6700 N 0.50876 0.99539 0.88123 0.0
N6701 N 0.48957 0.00685 0.86116 0.0
H6702 H 0.9709 0.23405 0.61173 0.0
H6703 H 0.02252 0.26132 0.64249 0.0
H6704 H 0.98467 0.22275 0.64258 0.0
H6705 H 0.01054 0.27337 0.61117 0.0
H6706 H 0.0085 0.24712 0.64225 0.0
H6707 H 0.98516 0.24843 0.61095 0.0
C6708 C 0.97691 0.23456 0.61831 0.0
C6709 C 0.97656 0.22717 0.62724 0.0
C6710 C 0.0089 0.25282 0.63539 0.0
C6711 C 0.99282 0.24356 0.6264 0.0
C6712 C 0.01695 0.26098 0.63551 0.0
C6713 C 0.01775 0.26858 0.62682 0.0
C6714 C 0.00151 0.25218 0.62651 0.0
C6715 C 0.01024 0.26767 0.61804 0.0
C6716 C 0.98503 0.24277 0.61786 0.0
C6717 C 0.98456 0.22823 0.63553 0.0
N6718 N 0.0024 0.25961 0.61811 0.0
N6719 N 0.99231 0.23626 0.6349 0.0
H6720 H 0.23537 0.46811 0.10875 0.0
H6721 H 0.25403 0.52785 0.12927 0.0
H6722 H 0.21589 0.48983 0.12912 0.0
H6723 H 0.2752 0.50672 0.11 0.0
H6724 H 0.23896 0.51495 0.12656 0.0
H6725 H 0.24901 0.48294 0.1065 0.0
C6726 C 0.23388 0.47603 0.1126 0.0
C6727 C 0.22458 0.47769 0.11928 0.0
C6728 C 0.24686 0.51312 0.12283 0.0
C6729 C 0.24006 0.49461 0.11674 0.0
C6730 C 0.25549 0.5205 0.12439 0.0
C6731 C 0.26593 0.51827 0.12 0.0
C6732 C 0.24867 0.5033 0.11696 0.0
C6733 C 0.26728 0.50871 0.11359 0.0
C6734 C 0.24168 0.48447 0.11134 0.0
C6735 C 0.22304 0.48811 0.12405 0.0
N6736 N 0.25878 0.50147 0.1124 0.0
N6737 N 0.23072 0.49611 0.12276 0.0
H6738 H 0.48202 0.71865 0.87927 0.0
H6739 H 0.5136 0.76489 0.84449 0.0
H6740 H 0.47121 0.73125 0.84776 0.0
H6741 H 0.52159 0.75798 0.87851 0.0
H6742 H 0.49862 0.75164 0.8455 0.0
H6743 H 0.49701 0.73227 0.87923 0.0
C6744 C 0.48274 0.7243 0.87239 0.0
C6745 C 0.47535 0.72377 0.86349 0.0
C6746 C 0.50361 0.75302 0.85278 0.0
C6747 C 0.49247 0.73925 0.86336 0.0
C6748 C 0.51222 0.76058 0.85219 0.0
C6749 C 0.51887 0.76258 0.86144 0.0
C6750 C 0.50162 0.74732 0.86266 0.0
C6751 C 0.51665 0.75671 0.87119 0.0
C6752 C 0.4913 0.73206 0.87238 0.0
C6753 C 0.47669 0.7313 0.8548 0.0
N6754 N 0.50821 0.74931 0.87154 0.0
N6755 N 0.4851 0.73866 0.85494 0.0
H6756 H 0.71846 0.98278 0.38023 0.0
H6757 H 0.75915 0.01901 0.34288 0.0
H6758 H 0.72241 0.97905 0.34503 0.0
H6759 H 0.75758 0.02223 0.37831 0.0
H6760 H 0.74504 0.00481 0.34372 0.0
H6761 H 0.73218 -0.00235 0.37991 0.0
C6762 C 0.72219 0.98507 0.37245 0.0
C6763 C 0.71928 0.97962 0.36265 0.0
C6764 C 0.74776 0.0086 0.35133 0.0
C6765 C 0.73493 -0.00339 0.36223 0.0
C6766 C 0.75584 0.01674 0.35086 0.0
C6767 C 0.75961 0.02181 0.36055 0.0
C6768 C 0.74336 0.00545 0.36157 0.0
C6769 C 0.75494 0.01852 0.37063 0.0
C6770 C 0.73002 0.99356 0.37228 0.0
C6771 C 0.72439 0.98296 0.35281 0.0
N6772 N 0.74706 0.01053 0.37089 0.0
N6773 N 0.73193 0.99121 0.35287 0.0
H6774 H 0.988 0.52698 0.1116 0.0
H6775 H 0.00624 0.46728 0.133 0.0
H6776 H 0.96684 0.50672 0.13181 0.0
H6777 H 0.02513 0.48798 0.11104 0.0
H6778 H 0.99263 0.48221 0.13486 0.0
H6779 H 0.00263 0.5135 0.11367 0.0
C6780 C 0.98645 0.51969 0.11654 0.0
C6781 C 0.97613 0.5179 0.12141 0.0
C6782 C -0.00018 0.48348 0.12973 0.0
C6783 C 0.9929 0.50226 0.12374 0.0
C6784 C 0.00759 0.47499 0.12869 0.0
C6785 C 0.01676 0.47634 0.12175 0.0
C6786 C 0.00132 0.49337 0.12385 0.0
C6787 C 0.01811 0.48649 0.11635 0.0
C6788 C 0.99483 0.51197 0.11773 0.0
C6789 C 0.97467 0.50839 0.12787 0.0
N6790 N 0.01047 0.49455 0.11748 0.0
N6791 N 0.98294 0.50082 0.12874 0.0
H6792 H 0.86709 0.49045 0.03332 0.0
H6793 H 0.85886 0.51449 0.97331 0.0
H6794 H 0.87064 0.46896 0.00521 0.0
H6795 H 0.88299 0.52869 0.99522 0.0
H6796 H 0.85615 0.49927 0.98655 0.0
H6797 H 0.86576 0.50632 0.02073 0.0
C6798 C 0.8673 0.48906 0.0245 0.0
C6799 C 0.86901 0.47844 0.02024 0.0
C6800 C 0.86189 0.50585 0.98847 0.0
C6801 C 0.86728 0.49636 0.00597 0.0
C6802 C 0.86341 0.51449 0.981 0.0
C6803 C 0.87119 0.52274 0.98323 0.0
C6804 C 0.86792 0.50575 -0.00167 0.0
C6805 C 0.87697 0.5224 0.99323 0.0
C6806 C 0.8666 0.49808 0.01737 0.0
C6807 C 0.86937 0.47705 0.00877 0.0
N6808 N 0.87518 0.51404 0.00047 0.0
N6809 N 0.86849 0.48593 0.00199 0.0
H6810 H 0.38848 0.73659 0.77224 0.0
H6811 H 0.35909 0.75851 0.71736 0.0
H6812 H 0.36123 0.71937 0.7571 0.0
H6813 H 0.38998 0.77065 0.73023 0.0
H6814 H 0.35806 0.7455 0.73289 0.0
H6815 H 0.38726 0.75068 0.75808 0.0
C6816 C 0.38219 0.73578 0.76596 0.0
C6817 C 0.37503 0.72669 0.76581 0.0
C6818 C 0.36502 0.75106 0.73229 0.0
C6819 C 0.37363 0.74288 0.74942 0.0
C6820 C 0.36561 0.75849 0.72346 0.0
C6821 C 0.37468 0.76562 0.72245 0.0
C6822 C 0.3735 0.75088 0.74018 0.0
C6823 C 0.38288 0.76525 0.73059 0.0
C6824 C 0.38151 0.74385 0.75784 0.0
C6825 C 0.36696 0.7262 0.7575 0.0
N6826 N 0.38209 0.75801 0.73907 0.0
N6827 N 0.36653 0.73416 0.74957 0.0
H6828 H 0.23364 0.11308 0.46916 0.0
H6829 H 0.25833 0.143 0.52252 0.0
H6830 H 0.21938 0.14156 0.4851 0.0
H6831 H 0.27294 0.11359 0.50871 0.0
H6832 H 0.24385 0.14206 0.50881 0.0
H6833 H 0.24788 0.11252 0.48356 0.0
C6834 C 0.23345 0.11916 0.4757 0.0
C6835 C 0.22532 0.12742 0.47588 0.0
C6836 C 0.25018 0.13577 0.50876 0.0
C6837 C 0.24155 0.12684 0.49228 0.0
C6838 C 0.2585 0.1363 0.51661 0.0
C6839 C 0.26691 0.12837 0.51678 0.0
C6840 C 0.25021 0.12726 0.50091 0.0
C6841 C 0.26662 0.11989 0.50888 0.0
C6842 C 0.24159 0.11884 0.48389 0.0
C6843 C 0.22549 0.13508 0.48455 0.0
N6844 N 0.25841 0.11957 0.50122 0.0
N6845 N 0.23347 0.13461 0.49234 0.0
H6846 H 0.51813 0.59651 0.47827 0.0
H6847 H 0.46988 0.62911 0.50902 0.0
H6848 H 0.50842 0.62946 0.46882 0.0
H6849 H 0.48425 0.5986 0.52052 0.0
H6850 H 0.48357 0.62963 0.49413 0.0
H6851 H 0.50529 0.59727 0.49359 0.0
C6852 C 0.51329 0.60393 0.47941 0.0
C6853 C 0.51435 0.61293 0.47221 0.0
C6854 C 0.48373 0.62288 0.49997 0.0
C6855 C 0.49953 0.61386 0.48984 0.0
C6856 C 0.47593 0.62257 0.50847 0.0
C6857 C 0.47586 0.61377 0.51601 0.0
C6858 C 0.49146 0.61429 0.49901 0.0
C6859 C 0.48391 0.60553 0.5149 0.0
C6860 C 0.50596 0.60437 0.48821 0.0
C6861 C 0.50787 0.62233 0.47417 0.0
N6862 N 0.49132 0.60598 0.50655 0.0
N6863 N 0.50068 0.62254 0.48279 0.0
H6864 H 0.23237 0.13106 0.77273 0.0
H6865 H 0.26732 0.09584 0.72942 0.0
H6866 H 0.22429 0.09811 0.76181 0.0
H6867 H 0.27176 0.13106 0.73271 0.0
H6868 H 0.2527 0.09655 0.74298 0.0
H6869 H 0.24773 0.13135 0.75948 0.0
C6870 C 0.23378 0.12393 0.76754 0.0
C6871 C 0.22701 0.11455 0.7684 0.0
C6872 C 0.25683 0.10416 0.74075 0.0
C6873 C 0.24456 0.11479 0.7534 0.0
C6874 C 0.26523 0.10376 0.73299 0.0
C6875 C 0.27075 0.11342 0.72982 0.0
C6876 C 0.25383 0.11429 0.74546 0.0
C6877 C 0.26768 0.12341 0.73487 0.0
C6878 C 0.24253 0.1241 0.76 0.0
C6879 C 0.22923 0.10554 0.76148 0.0
N6880 N 0.25939 0.1236 0.74245 0.0
N6881 N 0.23781 0.10589 0.75435 0.0
H6882 H 0.98718 0.63188 0.21535 0.0
H6883 H 0.00637 0.61126 0.27495 0.0
H6884 H 0.96664 0.6113 0.23588 0.0
H6885 H 0.02445 0.63383 0.25417 0.0
H6886 H 0.99271 0.60901 0.26015 0.0
H6887 H 0.00192 0.63033 0.22876 0.0
C6888 C 0.98578 0.62699 0.22269 0.0
C6889 C 0.9756 0.62185 0.22458 0.0
C6890 C -0.00027 0.61437 0.25883 0.0
C6891 C 0.99252 0.62011 0.24013 0.0
C6892 C 0.00753 0.61564 0.26725 0.0
C6893 C 0.0165 0.62285 0.26584 0.0
C6894 C 0.00099 0.62029 0.24895 0.0
C6895 C 0.01761 0.6283 0.2557 0.0
C6896 C 0.99423 0.62609 0.23037 0.0
C6897 C 0.97435 0.61544 0.23415 0.0
N6898 N 0.00994 0.62694 0.2477 0.0
N6899 N 0.98269 0.61486 0.24167 0.0
H6900 H 0.96968 0.59543 0.01334 0.0
H6901 H 0.00638 0.63033 0.97104 0.0
H6902 H 0.96708 0.63084 0.01025 0.0
H6903 H 0.00785 0.59492 0.97478 0.0
H6904 H 0.99174 0.63092 0.98495 0.0
H6905 H 0.98344 0.59534 -0.00117 0.0
C6906 C 0.972 0.60322 0.00962 0.0
C6907 C 0.96722 0.61318 0.01308 0.0
C6908 C 0.99526 0.62304 0.98269 0.0
C6909 C 0.98309 0.61311 -0.00366 0.0
C6910 C 0.00362 0.62269 0.97475 0.0
C6911 C 0.0084 0.61256 0.97176 0.0
C6912 C 0.99168 0.61319 0.98765 0.0
C6913 C 0.00447 0.60292 0.97683 0.0
C6914 C 0.97988 0.60315 0.00129 0.0
C6915 C 0.97056 0.62298 0.00786 0.0
N6916 N -0.00362 0.60349 0.98452 0.0
N6917 N 0.97832 0.62271 -0.00024 0.0
H6918 H 0.87832 0.73861 0.27568 0.0
H6919 H 0.85719 0.75647 0.21591 0.0
H6920 H 0.85865 0.71715 0.25521 0.0
H6921 H 0.87777 0.77626 0.23716 0.0
H6922 H 0.8552 0.74293 0.23089 0.0
H6923 H 0.87565 0.75344 0.26249 0.0
C6924 C 0.87337 0.73704 0.26841 0.0
C6925 C 0.86884 0.72658 0.26645 0.0
C6926 C 0.86004 0.75031 0.23228 0.0
C6927 C 0.86584 0.74357 0.25115 0.0
C6928 C 0.86115 0.75804 0.22376 0.0
C6929 C 0.86779 0.76742 0.22524 0.0
C6930 C 0.86555 0.75206 0.24233 0.0
C6931 C 0.87272 0.76907 0.23557 0.0
C6932 C 0.87183 0.74553 0.26086 0.0
C6933 C 0.86234 0.72509 0.25699 0.0
N6934 N 0.87156 0.76145 0.24365 0.0
N6935 N 0.86116 0.73346 0.24957 0.0
H6936 H 0.71387 0.62974 0.48719 0.0
H6937 H 0.77376 0.60907 0.50512 0.0
H6938 H 0.73473 0.61066 0.4656 0.0
H6939 H 0.75272 0.63036 0.52434 0.0
H6940 H 0.75872 0.60677 0.4917 0.0
H6941 H 0.72702 0.62708 0.50204 0.0
C6942 C 0.72121 0.62491 0.48559 0.0
C6943 C 0.7233 0.62056 0.4751 0.0
C6944 C 0.75739 0.61183 0.49894 0.0
C6945 C 0.73856 0.61759 0.4921 0.0
C6946 C 0.76594 0.61311 0.5066 0.0
C6947 C 0.76452 0.62006 0.51576 0.0
C6948 C 0.74739 0.61745 0.50055 0.0
C6949 C 0.75424 0.62509 0.5173 0.0
C6950 C 0.72874 0.62338 0.4941 0.0
C6951 C 0.73285 0.61421 0.47357 0.0
N6952 N 0.74613 0.62374 0.50976 0.0
N6953 N 0.74025 0.61305 0.48195 0.0
H6954 H 0.87233 0.48997 0.70949 0.0
H6955 H 0.88115 0.51465 0.76889 0.0
H6956 H 0.86979 0.46826 0.73756 0.0
H6957 H 0.85492 0.52701 0.74831 0.0
H6958 H 0.88406 0.49949 0.75565 0.0
H6959 H 0.87323 0.50584 0.72214 0.0
C6960 C 0.87228 0.48854 0.71831 0.0
C6961 C 0.87097 0.47787 0.72256 0.0
C6962 C 0.87779 0.50564 0.75403 0.0
C6963 C 0.87219 0.49576 0.73687 0.0
C6964 C 0.87613 0.51424 0.76151 0.0
C6965 C 0.86773 0.52197 0.75966 0.0
C6966 C 0.87126 0.50508 0.74452 0.0
C6967 C 0.8614 0.52112 0.75003 0.0
C6968 C 0.87272 0.49755 0.72546 0.0
C6969 C 0.87077 0.47641 0.73402 0.0
N6970 N 0.86334 0.51283 0.74275 0.0
N6971 N 0.87139 0.48529 0.74083 0.0
H6972 H 0.85019 0.73143 0.47081 0.0
H6973 H 0.88154 0.7568 0.52302 0.0
H6974 H 0.88036 0.71729 0.48337 0.0
H6975 H 0.84874 0.76575 0.51248 0.0
H6976 H 0.88237 0.74326 0.50794 0.0
H6977 H 0.85077 0.74517 0.48528 0.0
C6978 C 0.85698 0.73121 0.4766 0.0
C6979 C 0.86521 0.72311 0.47588 0.0
C6980 C 0.87502 0.74821 0.50897 0.0
C6981 C 0.86589 0.73896 0.49264 0.0
C6982 C 0.87454 0.75595 0.51755 0.0
C6983 C 0.86505 0.76242 0.51905 0.0
C6984 C 0.86597 0.74704 0.50183 0.0
C6985 C 0.85622 0.76095 0.51172 0.0
C6986 C 0.85729 0.73909 0.48491 0.0
C6987 C 0.87382 0.72335 0.48363 0.0
N6988 N 0.85691 0.75345 0.50346 0.0
N6989 N 0.87393 0.73115 0.49174 0.0
H6990 H 0.73184 0.6304 0.7726 0.0
H6991 H 0.76412 0.59592 0.72665 0.0
H6992 H 0.72147 0.59868 0.7601 0.0
H6993 H 0.77153 0.63009 0.73355 0.0
H6994 H 0.74917 0.59666 0.73994 0.0
H6995 H 0.74699 0.63041 0.75919 0.0
C6996 C 0.73271 0.62348 0.76702 0.0
C6997 C 0.72537 0.61452 0.7675 0.0
C6998 C 0.75403 0.60402 0.73855 0.0
C6999 C 0.74268 0.61445 0.75226 0.0
C7000 C 0.76262 0.60359 0.73098 0.0
C7001 C 0.7691 0.61297 0.72894 0.0
C7002 C 0.75187 0.61387 0.74424 0.0
C7003 C 0.76673 0.62267 0.73483 0.0
C7004 C 0.74135 0.62349 0.75939 0.0
C7005 C 0.72689 0.60577 0.76007 0.0
N7006 N 0.7583 0.62287 0.74224 0.0
N7007 N 0.73539 0.60595 0.75282 0.0
H7008 H 0.46746 0.50829 0.63144 0.0
H7009 H 0.51356 0.47699 0.59611 0.0
H7010 H 0.47771 0.51732 0.59855 0.0
H7011 H 0.50778 0.46953 0.63045 0.0
H7012 H 0.49949 0.49113 0.59694 0.0
H7013 H 0.48133 0.49349 0.63138 0.0
C7014 C 0.4726 0.50718 0.62423 0.0
C7015 C 0.47141 0.51409 0.61499 0.0
C7016 C 0.50127 0.48644 0.60433 0.0
C7017 C 0.48718 0.49721 0.61486 0.0
C7018 C 0.50933 0.47832 0.60386 0.0
C7019 C 0.51192 0.47205 0.61324 0.0
C7020 C 0.49566 0.4884 0.61426 0.0
C7021 C 0.50608 0.47418 0.62303 0.0
C7022 C 0.48051 0.49875 0.62421 0.0
C7023 C 0.47831 0.51227 0.60588 0.0
N7024 N 0.49821 0.4822 0.62329 0.0
N7025 N 0.48584 0.50403 0.60606 0.0
H7026 H 0.96677 0.23703 0.86141 0.0
H7027 H 0.02598 0.2561 0.88336 0.0
H7028 H 0.98667 0.21629 0.88238 0.0
H7029 H 0.00621 0.2735 0.8594 0.0
H7030 H 0.01106 0.24246 0.88535 0.0
H7031 H 0.98033 0.25162 0.86312 0.0
C7032 C 0.97399 0.23557 0.86645 0.0
C7033 C 0.97567 0.22537 0.87164 0.0
C7034 C 0.01 0.24933 0.87973 0.0
C7035 C 0.99142 0.2421 0.87354 0.0
C7036 C 0.01849 0.25711 0.8786 0.0
C7037 C 0.01738 0.26589 0.87111 0.0
C7038 C 0.00036 0.25045 0.8734 0.0
C7039 C 0.00751 0.26681 0.86517 0.0
C7040 C 0.98177 0.24392 0.86742 0.0
C7041 C 0.9851 0.22403 0.87821 0.0
N7042 N -0.00055 0.2592 0.86642 0.0
N7043 N 0.99274 0.23227 0.87887 0.0
H7044 H 0.21985 0.76059 0.10185 0.0
H7045 H 0.27231 0.73399 0.13131 0.0
H7046 H 0.23354 0.7741 0.13181 0.0
H7047 H 0.25447 0.71919 0.10428 0.0
H7048 H 0.25814 0.74844 0.13238 0.0
H7049 H 0.23251 0.74517 0.10317 0.0
C7050 C 0.22554 0.76032 0.10873 0.0
C7051 C 0.22568 0.76871 0.11669 0.0
C7052 C 0.25731 0.74195 0.1263 0.0
C7053 C 0.24033 0.75096 0.11826 0.0
C7054 C 0.26537 0.7337 0.1257 0.0
C7055 C 0.26465 0.72544 0.1176 0.0
C7056 C 0.24853 0.7419 0.11874 0.0
C7057 C 0.25548 0.72545 0.11056 0.0
C7058 C 0.23276 0.75146 0.10951 0.0
C7059 C 0.23318 0.76781 0.12548 0.0
N7060 N 0.24785 0.73358 0.11125 0.0
N7061 N 0.24029 0.75913 0.12599 0.0
H7062 H 0.47512 0.72888 0.64516 0.0
H7063 H 0.50863 0.77324 0.60962 0.0
H7064 H 0.46891 0.73372 0.61042 0.0
H7065 H 0.51747 0.76231 0.64235 0.0
H7066 H 0.4933 0.75993 0.60967 0.0
H7067 H 0.48976 0.74244 0.64427 0.0
C7068 C 0.47683 0.7328 0.63731 0.0
C7069 C 0.47078 0.73008 0.62783 0.0
C7070 C 0.49865 0.76047 0.6168 0.0
C7071 C 0.48771 0.74574 0.62675 0.0
C7072 C 0.50738 0.76805 0.61678 0.0
C7073 C 0.51437 0.7689 0.62599 0.0
C7074 C 0.49689 0.7538 0.62612 0.0
C7075 C 0.51236 0.76197 0.63504 0.0
C7076 C 0.48524 0.74056 0.63681 0.0
C7077 C 0.47339 0.73552 0.61792 0.0
N7078 N 0.50382 0.75478 0.63488 0.0
N7079 N 0.48168 0.74311 0.61763 0.0
H7080 H 0.70909 0.25268 0.87152 0.0
H7081 H 0.7682 0.22807 0.86164 0.0
H7082 H 0.73719 0.27438 0.87356 0.0
H7083 H 0.74816 0.21519 0.88804 0.0
H7084 H 0.75498 0.24333 0.85934 0.0
H7085 H 0.7217 0.23677 0.87081 0.0
C7086 C 0.71791 0.25408 0.87155 0.0
C7087 C 0.72217 0.26478 0.87261 0.0
C7088 C 0.75348 0.23706 0.86553 0.0
C7089 C 0.73644 0.24684 0.87159 0.0
C7090 C 0.76094 0.22839 0.86682 0.0
C7091 C 0.75924 0.22047 0.87508 0.0
C7092 C 0.74412 0.23751 0.87227 0.0
C7093 C 0.74977 0.22123 0.88165 0.0
C7094 C 0.72504 0.24506 0.87122 0.0
C7095 C 0.73363 0.26622 0.87278 0.0
N7096 N 0.74248 0.22959 0.88005 0.0
N7097 N 0.74042 0.25732 0.87222 0.0
H7098 H 0.02342 0.98392 0.36164 0.0
H7099 H 0.97061 0.00736 0.3934 0.0
H7100 H 0.01337 0.97412 0.39437 0.0
H7101 H 0.98284 0.02206 0.36334 0.0
H7102 H 0.98535 0.99387 0.39263 0.0
H7103 H 0.00786 -0.00315 0.36102 0.0
C7104 C 0.01795 0.98446 0.36868 0.0
C7105 C 0.01973 0.97794 0.37809 0.0
C7106 C 0.98483 2e-05 0.38617 0.0
C7107 C 0.00195 0.99262 0.37739 0.0
C7108 C 0.97637 0.00774 0.38659 0.0
C7109 C 0.9755 0.01593 0.37845 0.0
C7110 C 0.99254 0.00042 0.37757 0.0
C7111 C 0.98321 0.01591 0.36981 0.0
C7112 C 0.00909 0.99185 0.36831 0.0
C7113 C 0.01238 0.97899 0.38696 0.0
N7114 N 0.99146 0.00829 0.36961 0.0
N7115 N 0.00384 0.98617 0.38637 0.0
H7116 H 0.63089 0.73279 0.77464 0.0
H7117 H 0.6 0.75476 0.72064 0.0
H7118 H 0.59905 0.72155 0.76336 0.0
H7119 H 0.62834 0.77142 0.73434 0.0
H7120 H 0.6011 0.74116 0.73527 0.0
H7121 H 0.63147 0.74582 0.75912 0.0
C7122 C 0.62405 0.73303 0.76891 0.0
C7123 C 0.61489 0.72609 0.77034 0.0
C7124 C 0.60711 0.74777 0.7351 0.0
C7125 C 0.61555 0.74086 0.7526 0.0
C7126 C 0.6065 0.75555 0.72671 0.0
C7127 C 0.61403 0.76433 0.72629 0.0
C7128 C 0.6153 0.7487 0.74322 0.0
C7129 C 0.62233 0.76482 0.73437 0.0
C7130 C 0.62439 0.74047 0.76008 0.0
C7131 C 0.60626 0.72676 0.76266 0.0
N7132 N 0.62272 0.75713 0.74256 0.0
N7133 N 0.60682 0.73399 0.75415 0.0
H7134 H 0.77635 0.36224 0.00426 0.0
H7135 H 0.71681 0.3836 0.98591 0.0
H7136 H 0.75588 0.38216 0.02547 0.0
H7137 H 0.73782 0.36229 0.96667 0.0
H7138 H 0.73173 0.3856 -0.0005 0.0
H7139 H 0.76319 0.36478 0.98939 0.0
C7140 C 0.76909 0.36723 0.00577 0.0
C7141 C 0.76712 0.37186 0.01617 0.0
C7142 C 0.73308 0.3806 0.99223 0.0
C7143 C 0.75185 0.3747 -0.00086 0.0
C7144 C 0.72459 0.37947 0.98447 0.0
C7145 C 0.72602 0.37264 0.97523 0.0
C7146 C 0.74305 0.3749 0.99064 0.0
C7147 C 0.73627 0.3675 0.97375 0.0
C7148 C 0.76156 0.36868 -0.00275 0.0
C7149 C 0.75767 0.3784 0.01758 0.0
N7150 N 0.74433 0.36869 0.98139 0.0
N7151 N 0.75027 0.37949 0.00919 0.0
H7152 H 0.121 0.48899 0.21862 0.0
H7153 H 0.13343 0.49884 0.27953 0.0
H7154 H 0.11837 0.46111 0.24056 0.0
H7155 H 0.10874 0.51972 0.26476 0.0
H7156 H 0.13081 0.48547 0.26452 0.0
H7157 H 0.11899 0.50142 0.23453 0.0
C7158 C 0.11984 0.48552 0.22677 0.0
C7159 C 0.11981 0.47406 0.22835 0.0
C7160 C 0.12589 0.49292 0.26468 0.0
C7161 C 0.11789 0.48811 0.24641 0.0
C7162 C 0.12741 0.50053 0.27316 0.0
C7163 C 0.12126 0.51031 0.27332 0.0
C7164 C 0.11849 0.49534 0.25614 0.0
C7165 C 0.11356 0.5122 0.2649 0.0
C7166 C 0.11866 0.49258 0.23578 0.0
C7167 C 0.11834 0.46991 0.23904 0.0
N7168 N 0.11254 0.50487 0.25647 0.0
N7169 N 0.11769 0.47695 0.24775 0.0
H7170 H 0.5209 0.89347 0.9873 0.0
H7171 H 0.47573 0.85455 0.01445 0.0
H7172 H 0.51838 0.8589 0.97909 0.0
H7173 H 0.48905 0.88305 0.03113 0.0
H7174 H 0.48954 0.85692 -0.00012 0.0
H7175 H 0.50731 0.89076 0.00193 0.0
C7176 C 0.51746 0.88532 0.98855 0.0
C7177 C 0.52078 0.87639 0.98198 0.0
C7178 C 0.48944 0.86262 0.00676 0.0
C7179 C 0.50519 0.87327 -0.00138 0.0
C7180 C 0.48155 0.8613 0.01504 0.0
C7181 C 0.48127 0.86861 0.02399 0.0
C7182 C 0.49692 0.87143 0.00736 0.0
C7183 C 0.48902 0.8772 0.02438 0.0
C7184 C 0.50976 0.88377 -0.00307 0.0
C7185 C 0.51609 0.86599 0.984 0.0
N7186 N 0.49648 0.87843 0.01613 0.0
N7187 N 0.50846 0.86473 0.99211 0.0
H7188 H 0.10956 0.27438 0.50713 0.0
H7189 H 0.1317 0.2153 0.48792 0.0
H7190 H 0.13271 0.25427 0.52521 0.0
H7191 H 0.11053 0.23532 0.46748 0.0
H7192 H 0.12985 0.22866 0.50269 0.0
H7193 H 0.10769 0.25948 0.49351 0.0
C7194 C 0.11415 0.26681 0.5083 0.0
C7195 C 0.1214 0.26562 0.51726 0.0
C7196 C 0.12553 0.23015 0.49502 0.0
C7197 C 0.11928 0.24861 0.50179 0.0
C7198 C 0.12659 0.2225 0.48655 0.0
C7199 C 0.12139 0.22427 0.47639 0.0
C7200 C 0.11931 0.23976 0.49333 0.0
C7201 C 0.11473 0.23368 0.47518 0.0
C7202 C 0.1131 0.25833 0.50052 0.0
C7203 C 0.12714 0.25564 0.51838 0.0
N7204 N 0.11398 0.24117 0.48352 0.0
N7205 N 0.12599 0.24758 0.51072 0.0
H7206 H 0.75647 0.35924 0.71949 0.0
H7207 H 0.72721 0.39361 0.76751 0.0
H7208 H 0.76094 0.3941 0.72541 0.0
H7209 H 0.71713 0.36041 0.75937 0.0
H7210 H 0.74037 0.39316 0.75254 0.0
H7211 H 0.74266 0.35879 0.73433 0.0
C7212 C 0.75455 0.36678 0.72387 0.0
C7213 C 0.75993 0.37671 0.72121 0.0
C7214 C 0.7353 0.38594 0.75398 0.0
C7215 C 0.74423 0.37623 0.73815 0.0
C7216 C 0.72778 0.38617 0.7626 0.0
C7217 C 0.72103 0.37702 0.76475 0.0
C7218 C 0.73622 0.37647 0.74739 0.0
C7219 C 0.72217 0.36766 0.758 0.0
C7220 C 0.74667 0.36651 0.73232 0.0
C7221 C 0.75709 0.38623 0.72715 0.0
N7222 N 0.72965 0.3676 0.74962 0.0
N7223 N 0.74949 0.38573 0.73532 0.0
H7224 H 0.98446 0.36086 0.02475 0.0
H7225 H 0.00299 0.38356 0.96571 0.0
H7226 H 0.96626 0.38431 0.00509 0.0
H7227 H 0.02334 0.36163 0.98499 0.0
H7228 H 0.98836 0.38162 0.9792 0.0
H7229 H -0.00226 0.35887 0.00957 0.0
C7230 C 0.98319 0.36548 0.01721 0.0
C7231 C 0.97433 0.37287 0.01623 0.0
C7232 C -0.00402 0.37715 0.9805 0.0
C7233 C 0.98939 0.37063 -0.00108 0.0
C7234 C 0.00436 0.37827 0.97278 0.0
C7235 C 0.01446 0.37287 0.9743 0.0
C7236 C -0.0023 0.37068 0.98995 0.0
C7237 C 0.01568 0.36598 0.98354 0.0
C7238 C 0.99077 0.36436 0.00858 0.0
C7239 C 0.97305 0.37864 0.00629 0.0
N7240 N 0.00744 0.36519 0.99112 0.0
N7241 N 0.98051 0.37743 -0.00192 0.0
H7242 H 0.11146 0.25358 0.71396 0.0
H7243 H 0.13252 0.23626 0.77401 0.0
H7244 H 0.13183 0.27489 0.7339 0.0
H7245 H 0.10963 0.21765 0.75408 0.0
H7246 H 0.13478 0.24937 0.75868 0.0
H7247 H 0.11331 0.23915 0.72771 0.0
C7248 C 0.11639 0.2552 0.72123 0.0
C7249 C 0.12136 0.26551 0.72286 0.0
C7250 C 0.12936 0.24235 0.75767 0.0
C7251 C 0.12343 0.24899 0.7388 0.0
C7252 C 0.12809 0.23486 0.76639 0.0
C7253 C 0.12077 0.22594 0.76537 0.0
C7254 C 0.12333 0.24079 0.74789 0.0
C7255 C 0.11523 0.2245 0.75532 0.0
C7256 C 0.11745 0.24694 0.7291 0.0
C7257 C 0.12781 0.26707 0.73236 0.0
N7258 N 0.11659 0.23186 0.74703 0.0
N7259 N 0.12855 0.25893 0.74007 0.0
H7260 H 0.27661 0.35351 0.50571 0.0
H7261 H 0.21968 0.37883 0.48413 0.0
H7262 H 0.25877 0.37854 0.52368 0.0
H7263 H 0.23747 0.35227 0.46846 0.0
H7264 H 0.23458 0.38042 0.49774 0.0
H7265 H 0.2631 0.35464 0.491 0.0
C7266 C 0.26986 0.3593 0.50655 0.0
C7267 C 0.26876 0.36586 0.51602 0.0
C7268 C 0.23521 0.37431 0.49127 0.0
C7269 C 0.25313 0.36714 0.49912 0.0
C7270 C 0.22673 0.37341 0.48349 0.0
C7271 C 0.22727 0.36534 0.47519 0.0
C7272 C 0.24428 0.36713 0.49068 0.0
C7273 C 0.23661 0.35854 0.47476 0.0
C7274 C 0.26212 0.35994 0.49812 0.0
C7275 C 0.2599 0.3733 0.51655 0.0
N7276 N 0.2447 0.35957 0.4824 0.0
N7277 N 0.25234 0.37367 0.50825 0.0
H7278 H 0.25565 0.3596 0.21575 0.0
H7279 H 0.23869 0.37874 0.27647 0.0
H7280 H 0.27548 0.37984 0.23729 0.0
H7281 H 0.21656 0.36053 0.25538 0.0
H7282 H 0.25327 0.3764 0.26298 0.0
H7283 H 0.24222 0.35726 0.23077 0.0
C7284 C 0.25724 0.36342 0.22366 0.0
C7285 C 0.26661 0.37006 0.22524 0.0
C7286 C 0.24527 0.37283 0.26127 0.0
C7287 C 0.25139 0.36739 0.24237 0.0
C7288 C 0.23692 0.37417 0.269 0.0
C7289 C 0.22636 0.36997 0.26696 0.0
C7290 C 0.24305 0.36738 0.2513 0.0
C7291 C 0.2246 0.36395 0.25722 0.0
C7292 C 0.24958 0.3621 0.23221 0.0
C7293 C 0.26829 0.3748 0.23564 0.0
N7294 N 0.23283 0.36297 0.24964 0.0
N7295 N 0.26075 0.37342 0.24375 0.0
H7296 H 0.47742 0.51671 0.3962 0.0
H7297 H 0.52196 0.48345 0.36062 0.0
H7298 H 0.48237 0.52279 0.36145 0.0
H7299 H 0.51262 0.47561 0.39408 0.0
H7300 H 0.50841 0.49853 0.36068 0.0
H7301 H 0.49132 0.50235 0.39552 0.0
C7302 C 0.48143 0.51503 0.3884 0.0
C7303 C 0.47866 0.52096 0.37885 0.0
C7304 C 0.50935 0.49347 0.36798 0.0
C7305 C 0.4947 0.50439 0.37802 0.0
C7306 C 0.51708 0.48488 0.36796 0.0
C7307 C 0.51842 0.47822 0.37735 0.0
C7308 C 0.50301 0.49543 0.37748 0.0
C7309 C 0.51188 0.48046 0.38663 0.0
C7310 C 0.48939 0.50679 0.38801 0.0
C7311 C 0.48421 0.5184 0.36901 0.0
N7312 N 0.50451 0.48885 0.38645 0.0
N7313 N 0.49198 0.51028 0.36884 0.0
H7314 H 0.00447 0.78037 0.13231 0.0
H7315 H 0.97367 0.72834 0.1077 0.0
H7316 H 0.01526 0.76564 0.10177 0.0
H7317 H 0.97858 0.73261 0.14268 0.0
H7318 H 0.98629 0.74384 0.10429 0.0
H7319 H 0.99196 0.76478 0.13515 0.0
C7320 C 0.00414 0.77389 0.12616 0.0
C7321 C 0.01092 0.77425 0.1168 0.0
C7322 C 0.9846 0.74132 0.11269 0.0
C7323 C -0.00341 0.75652 0.11996 0.0
C7324 C 0.97741 0.73253 0.11464 0.0
C7325 C 0.97512 0.72919 0.12549 0.0
C7326 C 0.98927 0.74694 0.12165 0.0
C7327 C 0.98019 0.73487 0.1342 0.0
C7328 C -0.00294 0.76499 0.12782 0.0
C7329 C 0.0102 0.76563 0.10912 0.0
N7330 N 0.98694 0.74356 0.1321 0.0
N7331 N 0.00309 0.75711 0.11083 0.0
H7332 H 0.53214 0.25212 0.36051 0.0
H7333 H 0.47789 0.22386 0.38429 0.0
H7334 H 0.51404 0.26619 0.38772 0.0
H7335 H 0.48777 0.22095 0.35022 0.0
H7336 H 0.49275 0.23729 0.3872 0.0
H7337 H 0.51757 0.23836 0.35819 0.0
C7338 C 0.52513 0.25227 0.36604 0.0
C7339 C 0.52426 0.26032 0.3743 0.0
C7340 C 0.49162 0.2337 0.3791 0.0
C7341 C 0.50765 0.24457 0.37173 0.0
C7342 C 0.48319 0.22602 0.37744 0.0
C7343 C 0.48157 0.22132 0.36698 0.0
C7344 C 0.4986 0.23651 0.3703 0.0
C7345 C 0.48867 0.22443 0.35839 0.0
C7346 C 0.51681 0.24445 0.36467 0.0
C7347 C 0.51499 0.26015 0.38121 0.0
N7348 N 0.49692 0.23178 0.36026 0.0
N7349 N 0.50704 0.25235 0.3798 0.0
H7350 H 0.00929 0.96725 0.63204 0.0
H7351 H 0.97289 0.00774 0.59489 0.0
H7352 H 0.01655 0.97612 0.59832 0.0
H7353 H 0.97016 0.00745 0.6304 0.0
H7354 H 0.98736 0.99399 0.59606 0.0
H7355 H 0.99363 0.98016 0.63172 0.0
C7356 C 0.00762 0.9719 0.62461 0.0
C7357 C 0.01428 0.97062 0.61521 0.0
C7358 C 0.98362 -0.00308 0.60362 0.0
C7359 C -0.0036 0.9852 0.61475 0.0
C7360 C 0.97531 0.00478 0.60296 0.0
C7361 C 0.97036 0.00887 0.61257 0.0
C7362 C 0.98707 0.99305 0.61397 0.0
C7363 C 0.97381 0.00458 0.62278 0.0
C7364 C -0.0013 0.97925 0.62443 0.0
C7365 C 0.01173 0.97685 0.60579 0.0
N7366 N 0.98201 -0.00309 0.62323 0.0
N7367 N 0.003 0.9838 0.60581 0.0
H7368 H 0.37802 0.27812 0.23637 0.0
H7369 H 0.35834 0.21798 0.25479 0.0
H7370 H 0.35894 0.25697 0.21504 0.0
H7371 H 0.37837 0.23997 0.27433 0.0
H7372 H 0.35599 0.23277 0.24108 0.0
H7373 H 0.37563 0.265 0.25129 0.0
C7374 C 0.37325 0.27071 0.23485 0.0
C7375 C 0.3688 0.26856 0.22441 0.0
C7376 C 0.36078 0.23436 0.24844 0.0
C7377 C 0.36615 0.25331 0.2415 0.0
C7378 C 0.36209 0.22595 0.25627 0.0
C7379 C 0.3687 0.22771 0.26562 0.0
C7380 C 0.36606 0.24457 0.25007 0.0
C7381 C 0.37337 0.23818 0.26715 0.0
C7382 C 0.37188 0.2632 0.2434 0.0
C7383 C 0.36255 0.25891 0.22297 0.0
N7384 N 0.37202 0.24615 0.25944 0.0
N7385 N 0.36153 0.25153 0.2314 0.0
H7386 H 0.24373 0.63651 0.96271 0.0
H7387 H 0.25587 0.62308 0.02299 0.0
H7388 H 0.22327 0.61159 0.9777 0.0
H7389 H 0.28264 0.61931 -5e-05 0.0
H7390 H 0.24273 0.62189 0.00757 0.0
H7391 H 0.25753 0.63362 0.97729 0.0
C7392 C 0.2422 0.63041 0.96906 0.0
C7393 C 0.23242 0.62425 0.96907 0.0
C7394 C 0.25148 0.62115 0.00596 0.0
C7395 C 0.24789 0.62117 0.98575 0.0
C7396 C 0.25893 0.62186 0.01469 0.0
C7397 C 0.27028 0.62122 0.01265 0.0
C7398 C 0.25547 0.62026 0.99516 0.0
C7399 C 0.27392 0.61972 0.00179 0.0
C7400 C 0.25005 0.62873 0.97728 0.0
C7401 C 0.23076 0.61643 0.97743 0.0
N7402 N 0.26653 0.61954 0.99337 0.0
N7403 N 0.23834 0.61525 0.98561 0.0
H7404 H 0.46714 0.13287 0.00807 0.0
H7405 H 0.52526 0.10892 0.98837 0.0
H7406 H 0.48691 0.10946 0.02621 0.0
H7407 H 0.50655 0.13197 0.96873 0.0
H7408 H 0.51197 0.11091 0.00317 0.0
H7409 H 0.48204 0.13447 0.99442 0.0
C7410 C 0.47464 0.12817 0.00926 0.0
C7411 C 0.47573 0.12092 0.01823 0.0
C7412 C 0.51075 0.11561 0.99567 0.0
C7413 C 0.49272 0.12271 0.00272 0.0
C7414 C 0.51835 0.11446 0.98719 0.0
C7415 C 0.51694 0.12018 0.97724 0.0
C7416 C 0.50152 0.12245 0.99422 0.0
C7417 C 0.50791 0.12737 0.97626 0.0
C7418 C 0.48312 0.12907 0.00146 0.0
C7419 C 0.48562 0.11504 0.01936 0.0
N7420 N 0.50044 0.1282 0.98461 0.0
N7421 N 0.49367 0.11603 0.01169 0.0
H7422 H 0.25537 0.61026 0.21274 0.0
H7423 H 0.23509 0.6307 0.27199 0.0
H7424 H 0.27552 0.63057 0.2339 0.0
H7425 H 0.21779 0.60755 0.2512 0.0
H7426 H 0.24873 0.63333 0.25725 0.0
H7427 H 0.24023 0.61202 0.2257 0.0
C7428 C 0.25658 0.61516 0.22011 0.0
C7429 C 0.26678 0.62013 0.22234 0.0
C7430 C 0.24188 0.62777 0.25591 0.0
C7431 C 0.24944 0.62207 0.23736 0.0
C7432 C 0.23409 0.62628 0.2643 0.0
C7433 C 0.22538 0.61878 0.26287 0.0
C7434 C 0.24085 0.62178 0.24605 0.0
C7435 C 0.22445 0.61328 0.25274 0.0
C7436 C 0.24792 0.61617 0.22752 0.0
C7437 C 0.26781 0.62655 0.23192 0.0
N7438 N 0.23211 0.61486 0.24477 0.0
N7439 N 0.25928 0.62721 0.23919 0.0
H7440 H 0.37976 0.0222 0.75738 0.0
H7441 H 0.3468 0.97418 0.72627 0.0
H7442 H 0.34585 0.01335 0.76364 0.0
H7443 H 0.38008 0.98328 0.71749 0.0
H7444 H 0.347 0.98799 0.74072 0.0
H7445 H 0.38069 0.00756 0.74341 0.0
C7446 C 0.37253 0.01718 0.75585 0.0
C7447 C 0.3627 0.01904 0.76168 0.0
C7448 C 0.35429 0.987 0.73567 0.0
C7449 C 0.36372 0.00233 0.74577 0.0
C7450 C 0.35418 0.97908 0.72738 0.0
C7451 C 0.36342 0.97758 0.72058 0.0
C7452 C 0.36369 0.99356 0.73724 0.0
C7453 C 0.37276 0.98417 0.72252 0.0
C7454 C 0.37307 0.00884 0.74788 0.0
C7455 C 0.3536 0.01229 0.75935 0.0
N7456 N 0.37265 0.99191 0.73066 0.0
N7457 N 0.35434 0.00427 0.7516 0.0
H7458 H 0.45967 0.12263 0.24016 0.0
H7459 H 0.5186 0.11289 0.26491 0.0
H7460 H 0.4878 0.12619 0.21872 0.0
H7461 H 0.49854 0.13908 0.27818 0.0
H7462 H 0.50546 0.11094 0.24953 0.0
H7463 H 0.47222 0.1218 0.2561 0.0
C7464 C 0.46849 0.123 0.23881 0.0
C7465 C 0.47277 0.12451 0.22819 0.0
C7466 C 0.50394 0.117 0.25592 0.0
C7467 C 0.48698 0.12331 0.24616 0.0
C7468 C 0.51135 0.1181 0.26465 0.0
C7469 C 0.50961 0.1262 0.27271 0.0
C7470 C 0.4946 0.12378 0.25554 0.0
C7471 C 0.50016 0.1328 0.27204 0.0
C7472 C 0.47558 0.12258 0.24786 0.0
C7473 C 0.48423 0.12507 0.22683 0.0
N7474 N 0.49292 0.1314 0.2636 0.0
N7475 N 0.49099 0.12441 0.23574 0.0
H7476 H 0.35329 0.2386 0.4664 0.0
H7477 H 0.37979 0.25859 0.52337 0.0
H7478 H 0.37831 0.21991 0.48349 0.0
H7479 H 0.35421 0.27584 0.50558 0.0
H7480 H 0.38088 0.24517 0.50824 0.0
H7481 H 0.35511 0.25319 0.47998 0.0
C7482 C 0.35922 0.23758 0.473 0.0
C7483 C 0.36557 0.22796 0.47387 0.0
C7484 C 0.3751 0.25195 0.50765 0.0
C7485 C 0.36766 0.24469 0.48959 0.0
C7486 C 0.37448 0.25961 0.51626 0.0
C7487 C 0.36682 0.26829 0.5158 0.0
C7488 C 0.36803 0.25303 0.49853 0.0
C7489 C 0.36016 0.26923 0.50639 0.0
C7490 C 0.36027 0.24594 0.48077 0.0
C7491 C 0.37322 0.22718 0.48254 0.0
N7492 N 0.36089 0.26168 0.49818 0.0
N7493 N 0.37398 0.23541 0.49015 0.0
H7494 H 0.36271 0.02331 0.98235 0.0
H7495 H 0.3941 0.97316 0.01117 0.0
H7496 H 0.39185 0.00753 0.96933 0.0
H7497 H 0.36189 0.98395 0.02179 0.0
H7498 H 0.39325 0.98612 -0.00406 0.0
H7499 H 0.36193 0.00922 -0.00313 0.0
C7500 C 0.36888 0.01685 0.98248 0.0
C7501 C 0.37742 0.01667 0.97466 0.0
C7502 C 0.38632 0.98565 0.00155 0.0
C7503 C 0.3766 0.00063 0.99124 0.0
C7504 C 0.38683 0.97826 0.01031 0.0
C7505 C 0.37807 0.97748 0.01781 0.0
C7506 C 0.37703 0.99243 0.00028 0.0
C7507 C 0.36883 0.98428 0.01619 0.0
C7508 C 0.36843 0.00883 0.99077 0.0
C7509 C 0.38517 0.00809 0.97522 0.0
N7510 N 0.36857 0.99154 0.00762 0.0
N7511 N 0.38461 0.00049 0.98339 0.0
H7512 H 0.7308 0.27302 0.12931 0.0
H7513 H 0.75977 0.22375 0.09649 0.0
H7514 H 0.71822 0.25846 0.09933 0.0
H7515 H 0.77037 0.23381 0.12897 0.0
H7516 H 0.74476 0.23694 0.09748 0.0
H7517 H 0.7455 0.2591 0.12955 0.0
C7518 C 0.73107 0.26688 0.12283 0.0
C7519 C 0.72328 0.26695 0.11425 0.0
C7520 C 0.75032 0.23627 0.10443 0.0
C7521 C 0.74007 0.25112 0.11445 0.0
C7522 C 0.75895 0.22874 0.10385 0.0
C7523 C 0.76637 0.22766 0.11265 0.0
C7524 C 0.74909 0.24288 0.11385 0.0
C7525 C 0.76483 0.23436 0.12199 0.0
C7526 C 0.73946 0.25895 0.12297 0.0
C7527 C 0.72405 0.25879 0.10608 0.0
N7528 N 0.75637 0.24173 0.12233 0.0
N7529 N 0.7323 0.25127 0.10636 0.0
H7530 H 0.25202 0.53265 0.37139 0.0
H7531 H 0.22838 0.47299 0.38207 0.0
H7532 H 0.27425 0.5049 0.37117 0.0
H7533 H 0.21562 0.49267 0.35533 0.0
H7534 H 0.24332 0.48657 0.38457 0.0
H7535 H 0.23635 0.51975 0.37213 0.0
C7536 C 0.25359 0.52386 0.37179 0.0
C7537 C 0.26437 0.51977 0.37121 0.0
C7538 C 0.23714 0.48791 0.37827 0.0
C7539 C 0.24668 0.50517 0.37226 0.0
C7540 C 0.22866 0.48024 0.37685 0.0
C7541 C 0.22087 0.48174 0.36844 0.0
C7542 C 0.23753 0.49726 0.37148 0.0
C7543 C 0.22155 0.49121 0.36184 0.0
C7544 C 0.24469 0.51656 0.37213 0.0
C7545 C 0.26602 0.50832 0.37158 0.0
N7546 N 0.22972 0.49869 0.36355 0.0
N7547 N 0.25724 0.50138 0.37212 0.0
H7548 H 0.22022 0.76102 0.89565 0.0
H7549 H 0.25673 0.71963 0.8594 0.0
H7550 H 0.21696 0.75858 0.86027 0.0
H7551 H 0.25946 0.72364 0.89468 0.0
H7552 H 0.24192 0.73343 0.85926 0.0
H7553 H 0.23433 0.74685 0.89517 0.0
C7554 C 0.22247 0.75751 0.88775 0.0
C7555 C 0.21739 0.76105 0.87798 0.0
C7556 C 0.24578 0.73125 0.86702 0.0
C7557 C 0.23368 0.74471 0.87737 0.0
C7558 C 0.25423 0.72338 0.8671 0.0
C7559 C 0.25939 0.72048 0.87706 0.0
C7560 C 0.24248 0.73621 0.87696 0.0
C7561 C 0.25578 0.72561 0.88679 0.0
C7562 C 0.23056 0.74938 0.88749 0.0
C7563 C 0.22066 0.75612 0.86801 0.0
N7564 N 0.24759 0.73319 0.88648 0.0
N7565 N 0.22862 0.7482 0.86795 0.0
H7566 H 0.77531 0.0075 0.10968 0.0
H7567 H 0.71578 0.99012 0.1316 0.0
H7568 H 0.75439 0.02765 0.13022 0.0
H7569 H 0.73547 0.96885 0.11097 0.0
H7570 H 0.72905 0.00486 0.12886 0.0
H7571 H 0.76015 0.99417 0.10775 0.0
C7572 C 0.76749 0.0092 0.11363 0.0
C7573 C 0.76616 0.0186 0.12027 0.0
C7574 C 0.73049 -0.00299 0.12485 0.0
C7575 C 0.74888 0.00347 0.11812 0.0
C7576 C 0.7229 0.98856 0.12643 0.0
C7577 C 0.72461 0.97819 0.12164 0.0
C7578 C 0.74 0.99507 0.11854 0.0
C7579 C 0.73389 0.97672 0.11487 0.0
C7580 C 0.75887 0.00159 0.11255 0.0
C7581 C 0.75587 0.02042 0.12519 0.0
N7582 N 0.74134 0.98503 0.11364 0.0
N7583 N 0.74768 0.0129 0.12408 0.0
H7584 H 0.61126 0.49092 0.52442 0.0
H7585 H 0.63274 0.50686 0.46428 0.0
H7586 H 0.63101 0.46882 0.50474 0.0
H7587 H 0.61237 0.52746 0.48492 0.0
H7588 H 0.63475 0.49384 0.47972 0.0
H7589 H 0.61417 0.50538 0.51088 0.0
C7590 C 0.61627 0.48913 0.51725 0.0
C7591 C 0.62076 0.4786 0.51562 0.0
C7592 C 0.62997 0.50129 0.48088 0.0
C7593 C 0.62404 0.49516 0.49992 0.0
C7594 C 0.62886 0.50873 0.4721 0.0
C7595 C 0.62224 0.51816 0.47328 0.0
C7596 C 0.62447 0.50339 0.49087 0.0
C7597 C 0.61739 0.52021 0.48357 0.0
C7598 C 0.61796 0.49741 0.50951 0.0
C7599 C 0.62734 0.47681 0.50627 0.0
N7600 N 0.61854 0.51286 0.4919 0.0
N7601 N 0.62866 0.48498 0.49865 0.0
H7602 H 0.61932 0.98594 0.21672 0.0
H7603 H 0.63756 -0.00208 0.27586 0.0
H7604 H 0.62012 0.95866 0.23953 0.0
H7605 H 0.61054 0.01733 0.2633 0.0
H7606 H 0.63417 0.9842 0.26133 0.0
H7607 H 0.61853 -0.00123 0.23242 0.0
C7608 C 0.61915 0.98268 0.22504 0.0
C7609 C 0.61972 0.97129 0.22691 0.0
C7610 C 0.62895 0.99143 0.26185 0.0
C7611 C 0.61925 0.98578 0.24469 0.0
C7612 C 0.63092 -0.00074 0.27004 0.0
C7613 C 0.62432 0.00872 0.2707 0.0
C7614 C 0.6206 0.99331 0.25409 0.0
C7615 C 0.61577 0.0101 0.26303 0.0
C7616 C 0.61868 0.98996 0.23393 0.0
C7617 C 0.61957 0.96741 0.2378 0.0
N7618 N 0.61427 0.00256 0.25487 0.0
N7619 N 0.61961 0.97467 0.24634 0.0
H7620 H 0.61117 0.77296 0.5088 0.0
H7621 H 0.6429 0.72274 0.4805 0.0
H7622 H 0.63911 0.75607 0.52301 0.0
H7623 H 0.61144 0.73433 0.46853 0.0
H7624 H 0.64148 0.73536 0.49597 0.0
H7625 H 0.61076 0.75917 0.49396 0.0
C7626 C 0.61714 0.76631 0.50887 0.0
C7627 C 0.62526 0.76574 0.51712 0.0
C7628 C 0.63485 0.73514 0.49001 0.0
C7629 C 0.62487 0.75006 0.50018 0.0
C7630 C 0.63567 0.72795 0.48112 0.0
C7631 C 0.6273 0.72749 0.47316 0.0
C7632 C 0.62561 0.74205 0.49097 0.0
C7633 C 0.6181 0.73442 0.47447 0.0
C7634 C 0.61691 0.75847 0.5004 0.0
C7635 C 0.63277 0.75694 0.5168 0.0
N7636 N 0.61753 0.74148 0.48319 0.0
N7637 N 0.63243 0.74953 0.50845 0.0
H7638 H 0.5048 0.35465 0.27305 0.0
H7639 H 0.4828 0.38176 0.21715 0.0
H7640 H 0.52217 0.38109 0.25671 0.0
H7641 H 0.4658 0.35668 0.23587 0.0
H7642 H 0.49682 0.38274 0.23176 0.0
H7643 H 0.49003 0.3563 0.25973 0.0
C7644 C 0.50551 0.36084 0.26665 0.0
C7645 C 0.51481 0.36768 0.26596 0.0
C7646 C 0.48995 0.37711 0.23267 0.0
C7647 C 0.49779 0.36961 0.2505 0.0
C7648 C 0.48194 0.37656 0.22436 0.0
C7649 C 0.47317 0.36904 0.22523 0.0
C7650 C 0.48912 0.37011 0.24188 0.0
C7651 C 0.47247 0.36251 0.23475 0.0
C7652 C 0.49702 0.3618 0.25902 0.0
C7653 C 0.51516 0.37563 0.25752 0.0
N7654 N 0.48035 0.36316 0.24263 0.0
N7655 N 0.5068 0.37632 0.25004 0.0
H7656 H 0.46462 0.86231 0.73688 0.0
H7657 H 0.52444 0.88253 0.75522 0.0
H7658 H 0.48573 0.88134 0.7155 0.0
H7659 H 0.50246 0.86281 0.77507 0.0
H7660 H 0.50962 0.88486 0.74159 0.0
H7661 H 0.47747 0.86522 0.75196 0.0
C7662 C 0.47196 0.86718 0.73539 0.0
C7663 C 0.47421 0.87144 0.72489 0.0
C7664 C 0.50803 0.88015 0.74901 0.0
C7665 C 0.48913 0.87469 0.74213 0.0
C7666 C 0.51646 0.87884 0.75679 0.0
C7667 C 0.51472 0.8723 0.76619 0.0
C7668 C 0.49782 0.87494 0.75073 0.0
C7669 C 0.50424 0.86774 0.76785 0.0
C7670 C 0.47931 0.86886 0.74401 0.0
C7671 C 0.48374 0.87786 0.72347 0.0
N7672 N 0.49624 0.86908 0.76017 0.0
N7673 N 0.49098 0.87915 0.73197 0.0
H7674 H 0.59635 0.0168 0.98105 0.0
H7675 H 0.63117 0.96811 0.00897 0.0
H7676 H 0.6293 0.00837 0.97056 0.0
H7677 H 0.59745 0.97621 0.01698 0.0
H7678 H 0.63131 0.98326 0.99552 0.0
H7679 H 0.59731 0.00249 0.99502 0.0
C7680 C 0.60382 0.01195 0.98169 0.0
C7681 C 0.61273 0.01377 0.97456 0.0
C7682 C 0.62391 0.9817 0.00026 0.0
C7683 C 0.61389 -0.00277 0.99061 0.0
C7684 C 0.62382 0.97306 0.00793 0.0
C7685 C 0.61428 0.97084 0.01409 0.0
C7686 C 0.61439 0.98815 -0.0012 0.0
C7687 C 0.605 0.97755 0.0124 0.0
C7688 C 0.60436 0.00375 0.98969 0.0
C7689 C 0.62221 0.00723 0.97586 0.0
N7690 N 0.6053 0.98586 0.00494 0.0
N7691 N 0.62253 -0.00079 0.98372 0.0
H7692 H 0.73311 0.4686 0.61022 0.0
H7693 H 0.76127 0.51772 0.64407 0.0
H7694 H 0.72758 0.47549 0.64472 0.0
H7695 H 0.77223 0.50869 0.61142 0.0
H7696 H 0.74805 0.50278 0.64362 0.0
H7697 H 0.74677 0.48359 0.60974 0.0
C7698 C 0.73476 0.47323 0.61768 0.0
C7699 C 0.72915 0.47079 0.62752 0.0
C7700 C 0.75332 0.50402 0.63652 0.0
C7701 C 0.74467 0.4879 0.627 0.0
C7702 C 0.76088 0.51262 0.63675 0.0
C7703 C 0.76791 0.5145 0.62776 0.0
C7704 C 0.75265 0.49718 0.62721 0.0
C7705 C 0.76698 0.50753 0.61854 0.0
C7706 C 0.74256 0.48176 0.6174 0.0
C7707 C 0.73164 0.47705 0.63693 0.0
N7708 N 0.75947 0.49916 0.61849 0.0
N7709 N 0.73917 0.48529 0.63641 0.0
H7710 H 0.22054 0.9871 0.84987 0.0
H7711 H 0.26537 0.01362 0.88948 0.0
H7712 H 0.22204 0.97863 0.88441 0.0
H7713 H 0.25146 0.03124 0.86185 0.0
H7714 H 0.2516 -0.00101 0.88676 0.0
H7715 H 0.23416 0.00164 0.85305 0.0
C7716 C 0.22377 0.98827 0.85811 0.0
C7717 C 0.22014 0.98168 0.8669 0.0
C7718 C 0.25157 0.0061 0.88135 0.0
C7719 C 0.23577 -0.0018 0.87055 0.0
C7720 C 0.25942 0.01441 0.88286 0.0
C7721 C 0.25952 0.02365 0.87589 0.0
C7722 C 0.24397 0.00696 0.87266 0.0
C7723 C 0.25163 0.02428 0.86745 0.0
C7724 C 0.23149 -0.0034 0.85992 0.0
C7725 C 0.22457 0.98358 0.87742 0.0
N7726 N 0.24424 0.016 0.86601 0.0
N7727 N 0.23223 0.99163 0.87895 0.0
H7728 H 0.35738 0.48629 0.52592 0.0
H7729 H 0.376 0.5036 0.46516 0.0
H7730 H 0.3773 0.46653 0.50406 0.0
H7731 H 0.35869 0.52587 0.48683 0.0
H7732 H 0.37327 0.48879 0.47837 0.0
H7733 H 0.35472 0.49972 0.51092 0.0
C7734 C 0.36103 0.48469 0.51793 0.0
C7735 C 0.36771 0.47538 0.51626 0.0
C7736 C 0.36997 0.49687 0.48025 0.0
C7737 C 0.3647 0.4906 0.49917 0.0
C7738 C 0.37153 0.50535 0.47269 0.0
C7739 C 0.36772 0.51602 0.47499 0.0
C7740 C 0.36471 0.49907 0.49032 0.0
C7741 C 0.36182 0.51775 0.48479 0.0
C7742 C 0.35955 0.49236 0.5094 0.0
C7743 C 0.37224 0.47368 0.50577 0.0
N7744 N 0.36064 0.50939 0.49222 0.0
N7745 N 0.37071 0.48124 0.49768 0.0
H7746 H 0.50717 0.61034 0.77538 0.0
H7747 H 0.48714 0.63556 0.71776 0.0
H7748 H 0.52433 0.63536 0.75672 0.0
H7749 H 0.468 0.61132 0.73548 0.0
H7750 H 0.50156 0.634 0.73147 0.0
H7751 H 0.49346 0.60906 0.76047 0.0
C7752 C 0.50812 0.61548 0.76813 0.0
C7753 C 0.51687 0.62304 0.76735 0.0
C7754 C 0.49425 0.62897 0.7324 0.0
C7755 C 0.50128 0.62161 0.75035 0.0
C7756 C 0.48597 0.62986 0.72454 0.0
C7757 C 0.47627 0.62364 0.72551 0.0
C7758 C 0.49288 0.62186 0.74144 0.0
C7759 C 0.47533 0.6163 0.73444 0.0
C7760 C 0.50029 0.61476 0.75965 0.0
C7761 C 0.51768 0.62949 0.75777 0.0
N7762 N 0.48351 0.61567 0.74214 0.0
N7763 N 0.51 0.62865 0.74972 0.0
H7764 H 0.35278 0.50503 0.27435 0.0
H7765 H 0.38002 0.48265 0.21863 0.0
H7766 H 0.3794 0.5221 0.25799 0.0
H7767 H 0.35397 0.46637 0.23662 0.0
H7768 H 0.38099 0.49666 0.23325 0.0
H7769 H 0.35413 0.4903 0.2609 0.0
C7770 C 0.35895 0.50569 0.26792 0.0
C7771 C 0.36593 0.51488 0.26726 0.0
C7772 C 0.37513 0.48996 0.23399 0.0
C7773 C 0.36751 0.49793 0.25169 0.0
C7774 C 0.37458 0.48196 0.22567 0.0
C7775 C 0.36683 0.47337 0.22634 0.0
C7776 C 0.36788 0.48931 0.24301 0.0
C7777 C 0.36 0.47288 0.23566 0.0
C7778 C 0.35973 0.49723 0.26023 0.0
C7779 C 0.37383 0.51518 0.25879 0.0
N7780 N 0.36066 0.48075 0.24356 0.0
N7781 N 0.37436 0.50685 0.25126 0.0
H7782 H 0.38344 0.72536 0.9772 0.0
H7783 H 0.35835 0.75467 0.03003 0.0
H7784 H 0.34859 0.72542 0.98435 0.0
H7785 H 0.38753 0.76722 0.01402 0.0
H7786 H 0.35584 0.74165 0.01484 0.0
H7787 H 0.38627 0.73872 0.99215 0.0
C7788 C 0.37639 0.72819 0.9819 0.0
C7789 C 0.36576 0.7243 0.97953 0.0
C7790 C 0.36278 0.74726 0.01466 0.0
C7791 C 0.36897 0.73937 -0.00335 0.0
C7792 C 0.36425 0.75465 0.02334 0.0
C7793 C 0.37315 0.76203 0.02325 0.0
C7794 C 0.37038 0.74713 0.00594 0.0
C7795 C 0.38054 0.76168 0.01436 0.0
C7796 C 0.37802 0.73582 0.99038 0.0
C7797 C 0.35691 0.72825 0.98586 0.0
N7798 N 0.37903 0.75428 0.00606 0.0
N7799 N 0.35873 0.73549 0.99419 0.0
H7800 H 0.72409 0.7649 0.64002 0.0
H7801 H 0.76749 0.73817 0.59895 0.0
H7802 H 0.73743 0.78255 0.61214 0.0
H7803 H 0.76625 0.729 0.63332 0.0
H7804 H 0.75424 0.75293 0.60262 0.0
H7805 H 0.73749 0.75008 0.63676 0.0
C7806 C 0.72984 0.76566 0.63324 0.0
C7807 C 0.72968 0.77496 0.62635 0.0
C7808 C 0.75688 0.74767 0.60935 0.0
C7809 C 0.74482 0.75804 0.62249 0.0
C7810 C 0.76439 0.73922 0.60725 0.0
C7811 C 0.76798 0.73236 0.61585 0.0
C7812 C 0.75279 0.74915 0.62006 0.0
C7813 C 0.76373 0.73414 0.62647 0.0
C7814 C 0.73748 0.75723 0.63141 0.0
C7815 C 0.73731 0.77555 0.61768 0.0
N7816 N 0.75629 0.74233 0.62827 0.0
N7817 N 0.74451 0.76715 0.61594 0.0
H7818 H 0.27522 0.23775 0.38114 0.0
H7819 H 0.21619 0.25701 0.35894 0.0
H7820 H 0.25553 0.21746 0.35951 0.0
H7821 H 0.23652 0.27524 0.38178 0.0
H7822 H 0.23103 0.2433 0.3571 0.0
H7823 H 0.26178 0.25245 0.3794 0.0
C7824 C 0.26807 0.2364 0.37596 0.0
C7825 C 0.26643 0.2263 0.37057 0.0
C7826 C 0.23224 0.25037 0.36243 0.0
C7827 C 0.25084 0.24318 0.36861 0.0
C7828 C 0.2238 0.2582 0.36346 0.0
C7829 C 0.22506 0.26722 0.37063 0.0
C7830 C 0.242 0.25166 0.36855 0.0
C7831 C 0.23509 0.26836 0.37628 0.0
C7832 C 0.26037 0.24483 0.37496 0.0
C7833 C 0.25708 0.22512 0.36384 0.0
N7834 N 0.2431 0.26067 0.37515 0.0
N7835 N 0.24954 0.23343 0.36315 0.0
H7836 H 0.60927 0.46803 0.73499 0.0
H7837 H 0.63091 0.52746 0.75353 0.0
H7838 H 0.63198 0.48832 0.71656 0.0
H7839 H 0.6105 0.50714 0.77444 0.0
H7840 H 0.62861 0.51424 0.73868 0.0
H7841 H 0.60703 0.48315 0.74831 0.0
C7842 C 0.61366 0.4757 0.73367 0.0
C7843 C 0.62095 0.47688 0.72475 0.0
C7844 C 0.62456 0.51265 0.74647 0.0
C7845 C 0.61841 0.49412 0.73986 0.0
C7846 C 0.62588 0.52022 0.75498 0.0
C7847 C 0.62104 0.5183 0.7653 0.0
C7848 C 0.61846 0.50298 0.74829 0.0
C7849 C 0.61444 0.50887 0.76662 0.0
C7850 C 0.6124 0.4843 0.74128 0.0
C7851 C 0.62642 0.48698 0.72341 0.0
N7852 N 0.61347 0.50145 0.75824 0.0
N7853 N 0.62508 0.49515 0.7309 0.0
H7854 H 0.62817 0.21589 0.9896 0.0
H7855 H 0.60812 0.27641 0.00626 0.0
H7856 H 0.60941 0.23655 0.96751 0.0
H7857 H 0.62893 0.25542 0.02609 0.0
H7858 H 0.60583 0.26118 0.99305 0.0
H7859 H 0.62563 0.22939 0.00416 0.0
C7860 C 0.62344 0.22327 0.98784 0.0
C7861 C 0.61915 0.22519 0.97729 0.0
C7862 C 0.61079 0.25991 0.00037 0.0
C7863 C 0.61632 0.24085 0.99395 0.0
C7864 C 0.61207 0.26857 0.00791 0.0
C7865 C 0.61886 0.26722 0.0172 0.0
C7866 C 0.61626 0.24986 0.00223 0.0
C7867 C 0.62377 0.2569 0.01895 0.0
C7868 C 0.62198 0.23099 -0.00383 0.0
C7869 C 0.61291 0.23479 0.97553 0.0
N7870 N 0.62243 0.24867 0.01152 0.0
N7871 N 0.61182 0.24238 0.98375 0.0
H7872 H 0.97854 0.07758 0.38103 0.0
H7873 H 0.01439 0.08446 0.43538 0.0
H7874 H 0.97126 0.06113 0.41178 0.0
H7875 H 0.01299 0.11034 0.41093 0.0
H7876 H 0.00016 0.07447 0.42538 0.0
H7877 H 0.9925 0.08871 0.39062 0.0
C7878 C 0.97981 0.07635 0.38978 0.0
C7879 C 0.97374 0.06837 0.3956 0.0
C7880 C 0.00295 0.08234 0.4222 0.0
C7881 C 0.98974 0.0809 0.40649 0.0
C7882 C 0.01114 0.08802 0.42786 0.0
C7883 C 0.01489 0.09827 0.424 0.0
C7884 C -0.00147 0.08683 0.4125 0.0
C7885 C 0.01031 0.10248 0.41422 0.0
C7886 C 0.98776 0.0827 0.39523 0.0
C7887 C 0.97572 0.06716 0.40694 0.0
N7888 N 0.00238 0.09671 0.40875 0.0
N7889 N 0.98361 0.07327 0.41197 0.0
H7890 H 0.88098 0.26339 0.65975 0.0
H7891 H 0.92952 0.21942 0.6609 0.0
H7892 H 0.90685 0.2628 0.68419 0.0
H7893 H 0.91555 0.23005 0.6299 0.0
H7894 H 0.91803 0.23276 0.67045 0.0
H7895 H 0.89086 0.24899 0.64937 0.0
C7896 C 0.88871 0.26025 0.66291 0.0
C7897 C 0.89313 0.26431 0.67283 0.0
C7898 C 0.91745 0.23215 0.66155 0.0
C7899 C 0.90423 0.24783 0.6612 0.0
C7900 C 0.92397 0.22449 0.65608 0.0
C7901 C 0.92361 0.2237 0.64454 0.0
C7902 C 0.91041 0.23903 0.65551 0.0
C7903 C 0.91616 0.23047 0.63879 0.0
C7904 C 0.89433 0.25209 0.65699 0.0
C7905 C 0.90318 0.25999 0.67656 0.0
N7906 N 0.90985 0.23791 0.64434 0.0
N7907 N 0.90833 0.25194 0.67079 0.0
H7908 H 0.77565 0.15735 0.89818 0.0
H7909 H 0.71456 0.14896 0.90858 0.0
H7910 H 0.75227 0.16833 0.87374 0.0
H7911 H 0.73734 0.12324 0.91779 0.0
H7912 H 0.72796 0.15577 0.89513 0.0
H7913 H 0.76202 0.14413 0.90503 0.0
C7914 C 0.76772 0.15679 0.89412 0.0
C7915 C 0.76499 0.16398 0.8855 0.0
C7916 C 0.72991 0.14846 0.89989 0.0
C7917 C 0.74935 0.14916 0.89341 0.0
C7918 C 0.72231 0.14462 0.90759 0.0
C7919 C 0.72495 0.13563 0.91436 0.0
C7920 C 0.74033 0.14349 0.89924 0.0
C7921 C 0.73504 0.13024 0.91274 0.0
C7922 C 0.75998 0.14922 0.89798 0.0
C7923 C 0.75465 0.16292 0.88044 0.0
N7924 N 0.74252 0.13444 0.90554 0.0
N7925 N 0.74706 0.15585 0.88468 0.0
H7926 H 0.8061 0.01405 0.15803 0.0
H7927 H 0.86093 0.97871 0.16319 0.0
H7928 H 0.8293 0.01213 0.13111 0.0
H7929 H 0.8312 0.97174 0.18151 0.0
H7930 H 0.85062 0.9922 0.15212 0.0
H7931 H 0.8165 -6e-05 0.16779 0.0
C7932 C 0.81342 0.01069 0.15418 0.0
C7933 C 0.81684 0.01429 0.14374 0.0
C7934 C 0.84639 0.98763 0.15852 0.0
C7935 C 0.82882 -0.0019 0.15493 0.0
C7936 C 0.85225 0.97996 0.16485 0.0
C7937 C 0.84693 0.97412 0.17332 0.0
C7938 C 0.83521 0.98956 0.16083 0.0
C7939 C 0.83567 0.97604 0.17508 0.0
C7940 C 0.81931 0.00257 0.15974 0.0
C7941 C 0.82636 0.00956 0.13914 0.0
N7942 N 0.83023 0.98366 0.16897 0.0
N7943 N 0.83209 0.00174 0.14481 0.0
H7944 H 0.02632 0.16192 0.81806 0.0
H7945 H 0.97874 0.16032 0.86306 0.0
H7946 H 0.01226 0.13074 0.82811 0.0
H7947 H 0.98238 0.18588 0.83853 0.0
H7948 H 0.99363 0.14986 0.85395 0.0
H7949 H 0.01322 0.17144 0.82984 0.0
C7950 C 0.02056 0.15704 0.82283 0.0
C7951 C 0.02027 0.1455 0.82192 0.0
C7952 C 0.99111 0.15777 0.85064 0.0
C7953 C 0.00523 0.15643 0.83546 0.0
C7954 C 0.98268 0.16372 0.8558 0.0
C7955 C 0.9793 0.17393 0.85147 0.0
C7956 C -0.00368 0.16225 0.84133 0.0
C7957 C 0.98464 0.178 0.84207 0.0
C7958 C 0.01306 0.1625 0.82953 0.0
C7959 C 0.01269 0.13965 0.82846 0.0
N7960 N 0.99293 0.17219 0.83737 0.0
N7961 N 0.00537 0.1452 0.83493 0.0
H7962 H 0.8286 0.21484 0.08941 0.0
H7963 H 0.83789 0.27681 0.0777 0.0
H7964 H 0.81771 0.23902 0.11312 0.0
H7965 H 0.86382 0.25362 0.07031 0.0
H7966 H 0.82937 0.26307 0.08983 0.0
H7967 H 0.84089 0.22869 0.08128 0.0
C7968 C 0.82893 0.22303 0.09299 0.0
C7969 C 0.82214 0.22584 0.1019 0.0
C7970 C 0.83702 0.26107 0.08568 0.0
C7971 C 0.83589 0.24169 0.09252 0.0
C7972 C 0.84183 0.26886 0.07873 0.0
C7973 C 0.85153 0.26629 0.07299 0.0
C7974 C 0.84175 0.25056 0.08661 0.0
C7975 C 0.85635 0.2559 0.07462 0.0
C7976 C 0.83595 0.23088 0.08839 0.0
C7977 C 0.82286 0.23654 0.10627 0.0
N7978 N 0.85128 0.2483 0.08113 0.0
N7979 N 0.82944 0.24417 0.10137 0.0
H7980 H 0.77535 0.085 0.34245 0.0
H7981 H 0.7136 0.09235 0.33439 0.0
H7982 H 0.75307 0.07279 0.36733 0.0
H7983 H 0.73564 0.11872 0.32516 0.0
H7984 H 0.72762 0.08535 0.3471 0.0
H7985 H 0.76113 0.09795 0.33634 0.0
C7986 C 0.76754 0.08522 0.34676 0.0
C7987 C 0.7653 0.07777 0.35531 0.0
C7988 C 0.72927 0.09283 0.3425 0.0
C7989 C 0.74899 0.0923 0.34822 0.0
C7990 C 0.72131 0.09679 0.33522 0.0
C7991 C 0.72355 0.10603 0.32864 0.0
C7992 C 0.73964 0.09795 0.3429 0.0
C7993 C 0.73362 0.11154 0.33007 0.0
C7994 C 0.75946 0.09263 0.34332 0.0
C7995 C 0.75508 0.0784 0.36068 0.0
N7996 N 0.74144 0.10724 0.33684 0.0
N7997 N 0.74716 0.08534 0.35685 0.0
H7998 H 0.89864 0.96533 0.586 0.0
H7999 H 0.90804 0.02691 0.59292 0.0
H8000 H 0.8735 0.98808 0.57526 0.0
H8001 H 0.91854 0.0047 0.61866 0.0
H8002 H 0.89465 0.01312 0.58678 0.0
H8003 H 0.90562 0.97938 0.5987 0.0
C8004 C 0.89446 0.97321 0.5865 0.0
C8005 C 0.88559 0.97564 0.5795 0.0
C8006 C 0.89968 0.01138 0.59395 0.0
C8007 C 0.89364 0.99174 0.59376 0.0
C8008 C 0.90734 0.01922 0.59741 0.0
C8009 C 0.91446 0.01685 0.60619 0.0
C8010 C 0.89943 0.00101 0.5991 0.0
C8011 C 0.91321 0.0068 0.61181 0.0
C8012 C 0.8984 0.98119 0.59377 0.0
C8013 C 0.8804 0.98593 0.5805 0.0
N8014 N 0.90604 -0.0009 0.60797 0.0
N8015 N 0.88469 0.99374 0.58728 0.0
H8016 H 0.37572 0.98926 0.06944 0.0
H8017 H 0.41992 0.00428 0.11571 0.0
H8018 H 0.40022 0.96607 0.08071 0.0
H8019 H 0.41087 0.02694 0.0898 0.0
H8020 H 0.40766 0.99038 0.10753 0.0
H8021 H 0.38367 0.00329 0.08172 0.0
C8022 C 0.38259 0.98706 0.07469 0.0
C8023 C 0.38743 0.97657 0.07401 0.0
C8024 C 0.40823 -0.00152 0.10379 0.0
C8025 C 0.39635 0.9924 0.08808 0.0
C8026 C 0.41517 0.0064 0.10845 0.0
C8027 C 0.41647 0.0167 0.10332 0.0
C8028 C 0.4024 0.00101 0.09414 0.0
C8029 C 0.41017 0.01904 0.09391 0.0
C8030 C 0.38713 0.99505 0.08163 0.0
C8031 C 0.39636 0.97412 0.08093 0.0
N8032 N 0.40341 0.01123 0.08958 0.0
N8033 N 0.40057 0.982 0.08768 0.0
H8034 H 0.01724 0.66127 0.30801 0.0
H8035 H 0.9775 0.66307 0.36024 0.0
H8036 H 0.0111 0.63232 0.32786 0.0
H8037 H 0.97566 0.68602 0.33305 0.0
H8038 H 0.99129 0.6524 0.34995 0.0
H8039 H 0.00368 0.67134 0.3188 0.0
C8040 C 0.01308 0.65703 0.31468 0.0
C8041 C 0.01529 0.64591 0.31701 0.0
C8042 C 0.98781 0.65975 0.34626 0.0
C8043 C -0.00029 0.65745 0.32941 0.0
C8044 C 0.97997 0.66585 0.35212 0.0
C8045 C 0.97542 0.67545 0.34749 0.0
C8046 C 0.99121 0.6634 0.33582 0.0
C8047 C 0.9789 0.67866 0.33693 0.0
C8048 C 0.00529 0.66279 0.3208 0.0
C8049 C 0.0096 0.64087 0.32575 0.0
N8050 N 0.98663 0.6727 0.3315 0.0
N8051 N 0.00207 0.6467 0.33168 0.0
H8052 H 0.30422 0.22901 0.58293 0.0
H8053 H 0.36015 0.26262 0.57851 0.0
H8054 H 0.32677 0.23045 0.61044 0.0
H8055 H 0.33073 0.27077 0.56018 0.0
H8056 H 0.34933 0.24937 0.58943 0.0
H8057 H 0.31528 0.24271 0.57334 0.0
C8058 C 0.31154 0.23218 0.58695 0.0
C8059 C 0.31458 0.22857 0.59751 0.0
C8060 C 0.34529 0.25415 0.58306 0.0
C8061 C 0.32733 0.2443 0.58651 0.0
C8062 C 0.35144 0.26167 0.57681 0.0
C8063 C 0.34635 0.26779 0.56838 0.0
C8064 C 0.33406 0.25264 0.5807 0.0
C8065 C 0.33503 0.26625 0.56657 0.0
C8066 C 0.31781 0.24006 0.58148 0.0
C8067 C 0.32412 0.23305 0.60232 0.0
N8068 N 0.32931 0.25877 0.57259 0.0
N8069 N 0.33023 0.24065 0.59674 0.0
H8070 H 0.75875 0.55476 0.83469 0.0
H8071 H 0.72767 0.61159 0.82799 0.0
H8072 H 0.76055 0.57931 0.86041 0.0
H8073 H 0.71611 0.58107 0.81366 0.0
H8074 H 0.74081 0.60097 0.8392 0.0
H8075 H 0.74438 0.56548 0.82569 0.0
C8076 C 0.75614 0.56244 0.83843 0.0
C8077 C 0.76086 0.56617 0.84829 0.0
C8078 C 0.73528 0.59665 0.83368 0.0
C8079 C 0.74441 0.57851 0.838 0.0
C8080 C 0.72781 0.60268 0.82727 0.0
C8081 C 0.72085 0.59722 0.81978 0.0
C8082 C 0.73587 0.58515 0.83241 0.0
C8083 C 0.72135 0.58566 0.81923 0.0
C8084 C 0.74787 0.56852 0.83333 0.0
C8085 C 0.75708 0.57615 0.85282 0.0
N8086 N 0.72881 0.58005 0.82535 0.0
N8087 N 0.74911 0.58207 0.84756 0.0
H8088 H 0.3793 0.26265 0.16085 0.0
H8089 H 0.43037 0.22149 0.1603 0.0
H8090 H 0.40623 0.26401 0.18408 0.0
H8091 H 0.41319 0.22978 0.13021 0.0
H8092 H 0.41899 0.23465 0.17022 0.0
H8093 H 0.38937 0.24845 0.15042 0.0
C8094 C 0.3873 0.25997 0.16375 0.0
C8095 C 0.39196 0.26454 0.17332 0.0
C8096 C 0.41768 0.23357 0.16145 0.0
C8097 C 0.40334 0.24829 0.16161 0.0
C8098 C 0.42415 0.22601 0.15577 0.0
C8099 C 0.42281 0.22458 0.14436 0.0
C8100 C 0.40972 0.23971 0.15576 0.0
C8101 C 0.41456 0.23069 0.13899 0.0
C8102 C 0.39303 0.25191 0.1578 0.0
C8103 C 0.40235 0.26078 0.17672 0.0
N8104 N 0.4083 0.23802 0.14474 0.0
N8105 N 0.40764 0.25284 0.17091 0.0
H8106 H 0.72842 0.65898 0.43559 0.0
H8107 H 0.76379 0.66433 0.3808 0.0
H8108 H 0.73018 0.63224 0.41213 0.0
H8109 H 0.77094 0.68236 0.41067 0.0
H8110 H 0.75026 0.65326 0.39104 0.0
H8111 H 0.74264 0.66873 0.4253 0.0
C8112 C 0.73177 0.65517 0.42824 0.0
C8113 C 0.7281 0.64478 0.4247 0.0
C8114 C 0.75488 0.65959 0.39532 0.0
C8115 C 0.7444 0.65594 0.41286 0.0
C8116 C 0.76257 0.66592 0.3895 0.0
C8117 C 0.76848 0.67431 0.39487 0.0
C8118 C 0.75298 0.66184 0.40652 0.0
C8119 C 0.76659 0.67599 0.40617 0.0
C8120 C 0.73995 0.66071 0.42241 0.0
C8121 C 0.73281 0.64023 0.41515 0.0
N8122 N 0.75894 0.66989 0.41157 0.0
N8123 N 0.74069 0.64588 0.4095 0.0
H8124 H 0.36526 0.98824 0.66904 0.0
H8125 H 0.32027 0.0031 0.62352 0.0
H8126 H 0.34006 0.96529 0.65881 0.0
H8127 H 0.33023 0.02603 0.64883 0.0
H8128 H 0.33265 0.98921 0.63155 0.0
H8129 H 0.35734 0.00214 0.65663 0.0
C8130 C 0.35822 0.98605 0.664 0.0
C8131 C 0.3532 0.97567 0.66501 0.0
C8132 C 0.33227 -0.00262 0.63516 0.0
C8133 C 0.34432 0.99137 0.65077 0.0
C8134 C 0.32529 0.0053 0.63058 0.0
C8135 C 0.3242 0.01565 0.63562 0.0
C8136 C 0.33835 -2e-05 0.64465 0.0
C8137 C 0.33079 0.01808 0.64479 0.0
C8138 C 0.35371 0.99398 0.65698 0.0
C8139 C 0.34407 0.97326 0.65835 0.0
N8140 N 0.33758 0.01027 0.64906 0.0
N8141 N 0.33988 0.98108 0.65151 0.0
H8142 H 0.96635 0.5828 0.9006 0.0
H8143 H 0.02742 0.59185 0.91038 0.0
H8144 H 0.98935 0.57264 0.87548 0.0
H8145 H 0.00451 0.61741 0.91972 0.0
H8146 H 0.01394 0.58492 0.89705 0.0
H8147 H 0.97999 0.59598 0.9075 0.0
C8148 C 0.9742 0.58353 0.89642 0.0
C8149 C 0.97682 0.5766 0.88755 0.0
C8150 C 0.01199 0.59222 0.90181 0.0
C8151 C 0.99247 0.59137 0.89553 0.0
C8152 C 0.01964 0.59613 0.90944 0.0
C8153 C 0.01699 0.60511 0.91622 0.0
C8154 C 0.00153 0.59711 0.90126 0.0
C8155 C 0.00684 0.61042 0.91466 0.0
C8156 C 0.98195 0.59107 0.9003 0.0
C8157 C 0.98706 0.57786 0.88236 0.0
N8158 N -0.00068 0.60615 0.90754 0.0
N8159 N 0.99467 0.5849 0.88662 0.0
H8160 H 0.0768 0.38062 0.98081 0.0
H8161 H 0.08294 0.43502 0.01721 0.0
H8162 H 0.05767 0.41024 0.97573 0.0
H8163 H 0.10914 0.41104 0.01471 0.0
H8164 H 0.07248 0.42473 0.00353 0.0
H8165 H 0.08784 0.39048 0.99464 0.0
C8166 C 0.07493 0.38918 0.98258 0.0
C8167 C 0.06629 0.39461 0.97711 0.0
C8168 C 0.08052 0.42171 0.00596 0.0
C8169 C 0.07876 0.40583 0.99292 0.0
C8170 C 0.08649 0.42755 0.01383 0.0
C8171 C 0.09695 0.4239 0.01711 0.0
C8172 C 0.08496 0.41205 0.0014 0.0
C8173 C 0.10112 0.41417 0.01238 0.0
C8174 C 0.08124 0.39479 0.99044 0.0
C8175 C 0.06425 0.40571 0.97971 0.0
N8176 N 0.09508 0.40854 0.00477 0.0
N8177 N 0.07039 0.41091 0.98746 0.0
H8178 H 0.57672 0.36393 0.26089 0.0
H8179 H 0.58571 0.30779 0.22905 0.0
H8180 H 0.56311 0.33275 0.27154 0.0
H8181 H 0.61084 0.33298 0.22811 0.0
H8182 H 0.57615 0.31809 0.24332 0.0
H8183 H 0.5885 0.35392 0.24775 0.0
C8184 C 0.57626 0.35502 0.26054 0.0
C8185 C 0.56881 0.34919 0.26725 0.0
C8186 C 0.58377 0.32138 0.24004 0.0
C8187 C 0.58211 0.33781 0.25224 0.0
C8188 C 0.5892 0.31554 0.23183 0.0
C8189 C 0.59906 0.31957 0.22736 0.0
C8190 C 0.58809 0.33146 0.24373 0.0
C8191 C 0.60326 0.3296 0.23137 0.0
C8192 C 0.58299 0.34933 0.25307 0.0
C8193 C 0.56861 0.33764 0.26648 0.0
N8194 N 0.59767 0.3353 0.23929 0.0
N8195 N 0.57505 0.33236 0.25905 0.0
H8196 H 0.66124 0.86087 0.47928 0.0
H8197 H 0.66017 0.80916 0.51957 0.0
H8198 H 0.68296 0.83282 0.47628 0.0
H8199 H 0.63049 0.82771 0.51301 0.0
H8200 H 0.66982 0.8201 0.50584 0.0
H8201 H 0.65079 0.85084 0.49352 0.0
C8202 C 0.66379 0.85263 0.48159 0.0
C8203 C 0.67298 0.84766 0.47658 0.0
C8204 C 0.66119 0.8218 0.5074 0.0
C8205 C 0.66124 0.83633 0.49286 0.0
C8206 C 0.65567 0.81559 0.5153 0.0
C8207 C 0.64447 0.81747 0.51742 0.0
C8208 C 0.65554 0.83006 0.50162 0.0
C8209 C 0.63911 0.82594 0.51158 0.0
C8210 C 0.65783 0.84693 0.48967 0.0
C8211 C 0.67592 0.83696 0.47986 0.0
N8212 N 0.64472 0.83197 0.50393 0.0
N8213 N 0.67013 0.83171 0.48784 0.0
H8214 H 0.1847 0.91056 0.76577 0.0
H8215 H 0.13028 0.91243 0.7295 0.0
H8216 H 0.16435 0.88152 0.76228 0.0
H8217 H 0.15907 0.9324 0.72314 0.0
H8218 H 0.14095 0.90194 0.74323 0.0
H8219 H 0.17343 0.91991 0.75209 0.0
C8220 C 0.17781 0.90615 0.76217 0.0
C8221 C 0.17549 0.89521 0.76516 0.0
C8222 C 0.14488 0.90858 0.73874 0.0
C8223 C 0.16251 0.90595 0.74944 0.0
C8224 C 0.13882 0.91458 0.73094 0.0
C8225 C 0.14378 0.92332 0.72517 0.0
C8226 C 0.15587 0.91153 0.74088 0.0
C8227 C 0.15488 0.92573 0.72735 0.0
C8228 C 0.17142 0.91149 0.7543 0.0
C8229 C 0.16646 0.88994 0.76016 0.0
N8230 N 0.1605 0.91994 0.73508 0.0
N8231 N 0.16024 0.89538 0.75255 0.0
H8232 H 0.57715 0.38273 0.47841 0.0
H8233 H 0.58271 0.43832 0.51265 0.0
H8234 H 0.55838 0.41224 0.47161 0.0
H8235 H 0.60975 0.41524 0.51065 0.0
H8236 H 0.57271 0.42751 0.49906 0.0
H8237 H 0.58846 0.39331 0.49149 0.0
C8238 C 0.57544 0.39141 0.47962 0.0
C8239 C 0.56677 0.39659 0.47393 0.0
C8240 C 0.58084 0.42481 0.50155 0.0
C8241 C 0.57954 0.40862 0.4889 0.0
C8242 C 0.58655 0.43094 0.50938 0.0
C8243 C 0.5971 0.42768 0.51281 0.0
C8244 C 0.58561 0.41522 0.49718 0.0
C8245 C 0.60165 0.41806 0.5082 0.0
C8246 C 0.58191 0.39743 0.48705 0.0
C8247 C 0.56495 0.40787 0.47579 0.0
N8248 N 0.59584 0.41211 0.50065 0.0
N8249 N 0.5712 0.41346 0.48317 0.0
H8250 H 0.18059 0.83214 0.97016 0.0
H8251 H 0.13119 0.83173 0.01258 0.0
H8252 H 0.16379 0.86269 0.97754 0.0
H8253 H 0.16069 0.81217 0.01651 0.0
H8254 H 0.14037 0.84202 -0.00237 0.0
H8255 H 0.17011 0.82307 0.98464 0.0
C8256 C 0.17461 0.83693 0.97473 0.0
C8257 C 0.17315 0.84823 0.97269 0.0
C8258 C 0.14478 0.83552 0.00187 0.0
C8259 C 0.16112 0.83783 0.98931 0.0
C8260 C 0.13959 0.82966 0.01036 0.0
C8261 C 0.14519 0.82108 0.01579 0.0
C8262 C 0.15548 0.83253 -0.00132 0.0
C8263 C 0.15605 0.81873 0.01261 0.0
C8264 C 0.16869 0.83175 0.98305 0.0
C8265 C 0.16524 0.85398 0.97892 0.0
N8266 N 0.16078 0.82432 0.00418 0.0
N8267 N 0.15948 0.8487 0.98699 0.0
H8268 H 0.65631 0.93508 0.22793 0.0
H8269 H 0.66459 0.87957 0.26169 0.0
H8270 H 0.63118 0.90985 0.22819 0.0
H8271 H 0.68043 0.91041 0.26996 0.0
H8272 H 0.65309 0.88945 0.24823 0.0
H8273 H 0.6664 0.92492 0.24197 0.0
C8274 C 0.65293 0.92736 0.2309 0.0
C8275 C 0.64289 0.9233 0.22686 0.0
C8276 C 0.65904 0.89401 0.25308 0.0
C8277 C 0.65445 0.9116 0.24299 0.0
C8278 C 0.66561 0.8884 0.26074 0.0
C8279 C 0.67354 0.89415 0.26692 0.0
C8280 C 0.66056 0.90539 0.25152 0.0
C8281 C 0.67447 0.90559 0.26537 0.0
C8282 C 0.65867 0.9216 0.23898 0.0
C8283 C 0.63889 0.91328 0.23111 0.0
N8284 N 0.66815 0.91079 0.25777 0.0
N8285 N 0.64473 0.9077 0.23892 0.0
H8286 H 0.05622 0.32943 0.76525 0.0
H8287 H 0.11094 0.32752 0.72904 0.0
H8288 H 0.07787 0.35759 0.76256 0.0
H8289 H 0.08277 0.30643 0.72355 0.0
H8290 H 0.10028 0.3377 0.74292 0.0
H8291 H 0.06741 0.31974 0.75171 0.0
C8292 C 0.06337 0.33357 0.76186 0.0
C8293 C 0.06609 0.34436 0.76503 0.0
C8294 C 0.09646 0.33086 0.73862 0.0
C8295 C 0.07895 0.33327 0.74948 0.0
C8296 C 0.10253 0.32504 0.73073 0.0
C8297 C 0.09773 0.31611 0.72512 0.0
C8298 C 0.08562 0.32759 0.741 0.0
C8299 C 0.0868 0.31327 0.72762 0.0
C8300 C 0.06972 0.32804 0.75408 0.0
C8301 C 0.07545 0.3493 0.7603 0.0
N8302 N 0.08116 0.31895 0.73542 0.0
N8303 N 0.08158 0.34369 0.75277 0.0
H8304 H 0.01377 0.91078 0.61159 0.0
H8305 H 0.98017 0.90753 0.55597 0.0
H8306 H 0.02429 0.92653 0.58142 0.0
H8307 H 0.97977 0.87999 0.57856 0.0
H8308 H 0.99487 0.91593 0.56673 0.0
H8309 H 9e-05 0.90024 0.60095 0.0
C8310 C 0.0133 0.91194 0.60275 0.0
C8311 C 0.02013 0.91964 0.59742 0.0
C8312 C 0.99159 0.90804 0.56933 0.0
C8313 C 0.00446 0.90781 0.58534 0.0
C8314 C 0.98314 0.90327 0.56324 0.0
C8315 C 0.97873 0.89305 0.56638 0.0
C8316 C -0.00442 0.90267 0.57876 0.0
C8317 C 0.98298 0.88787 0.57585 0.0
C8318 C 0.00551 0.90593 0.59671 0.0
C8319 C 0.01919 0.92077 0.58593 0.0
N8320 N 0.99114 0.89279 0.58179 0.0
N8321 N 0.0114 0.91504 0.58032 0.0
H8322 H 0.1175 0.7368 0.32194 0.0
H8323 H 0.07258 0.75272 0.36715 0.0
H8324 H 0.09208 0.71431 0.33261 0.0
H8325 H 0.08289 0.77512 0.3415 0.0
H8326 H 0.08506 0.73867 0.3596 0.0
H8327 H 0.10993 0.7509 0.33433 0.0
C8328 C 0.1105 0.73475 0.32708 0.0
C8329 C 0.1053 0.72445 0.32619 0.0
C8330 C 0.08474 0.74676 0.35581 0.0
C8331 C 0.09681 0.74038 0.34039 0.0
C8332 C 0.0777 0.75478 0.36013 0.0
C8333 C 0.07666 0.76501 0.35483 0.0
C8334 C 0.09092 0.74915 0.34634 0.0
C8335 C 0.08339 0.76726 0.34572 0.0
C8336 C 0.10619 0.74279 0.33409 0.0
C8337 C 0.09622 0.72221 0.33298 0.0
N8338 N 0.09022 0.75936 0.3417 0.0
N8339 N 0.09222 0.73015 0.33979 0.0
H8340 H 0.23797 0.82122 0.11621 0.0
H8341 H 0.25234 0.86531 0.06959 0.0
H8342 H 0.21488 0.83036 0.09074 0.0
H8343 H 0.27562 0.84072 0.0805 0.0
H8344 H 0.2385 0.85736 0.08206 0.0
H8345 H 0.25178 0.83334 0.10769 0.0
C8346 C 0.23574 0.82596 0.10898 0.0
C8347 C 0.22534 0.82473 0.10408 0.0
C8348 C 0.24671 0.85387 0.08184 0.0
C8349 C 0.24093 0.83864 0.09449 0.0
C8350 C 0.2546 0.85841 0.0748 0.0
C8351 C 0.26506 0.85356 0.07398 0.0
C8352 C 0.24944 0.84463 0.08825 0.0
C8353 C 0.26759 0.8446 0.08083 0.0
C8354 C 0.24361 0.83281 0.10412 0.0
C8355 C 0.22286 0.83101 0.09468 0.0
N8356 N 0.25981 0.84039 0.08769 0.0
N8357 N 0.23062 0.83769 0.09016 0.0
H8358 H 0.12394 0.00321 0.81996 0.0
H8359 H 0.16862 0.98912 0.86606 0.0
H8360 H 0.14857 0.02658 0.83057 0.0
H8361 H 0.15978 0.96614 0.84037 0.0
H8362 H 0.15598 0.00271 0.85794 0.0
H8363 H 0.13197 0.98941 0.83246 0.0
C8364 C 0.13086 0.0055 0.82512 0.0
C8365 C 0.1357 0.01597 0.82419 0.0
C8366 C 0.15666 0.9946 0.85426 0.0
C8367 C 0.14471 0.00041 0.83851 0.0
C8368 C 0.1638 0.98685 0.85889 0.0
C8369 C 0.16529 0.97658 0.85377 0.0
C8370 C 0.15082 0.99191 0.84465 0.0
C8371 C 0.15893 0.97404 0.84446 0.0
C8372 C 0.13544 -0.00236 0.83218 0.0
C8373 C 0.1447 0.01854 0.83098 0.0
N8374 N 0.15197 0.98168 0.84016 0.0
N8375 N 0.14894 0.01079 0.83786 0.0
H8376 H 0.97202 0.83232 0.17896 0.0
H8377 H 0.01259 0.83805 0.12754 0.0
H8378 H 0.97815 0.86352 0.16286 0.0
H8379 H 0.01231 0.81007 0.14957 0.0
H8380 H -0.00072 0.84736 0.13957 0.0
H8381 H 0.98587 0.82375 0.16725 0.0
C8382 C 0.97624 0.83737 0.17293 0.0
C8383 C 0.9739 0.84867 0.17189 0.0
C8384 C 0.0022 0.83922 0.14178 0.0
C8385 C 0.98983 0.83886 0.15844 0.0
C8386 C 0.00978 0.8339 0.13493 0.0
C8387 C 0.01354 0.82327 0.13755 0.0
C8388 C -0.00172 0.83379 0.15123 0.0
C8389 C 0.00964 0.81827 0.14723 0.0
C8390 C 0.98421 0.83247 0.16628 0.0
C8391 C 0.97971 0.85479 0.16395 0.0
N8392 N 0.00217 0.82354 0.15367 0.0
N8393 N 0.98739 0.84979 0.15749 0.0
H8394 H 0.15554 0.77744 0.89848 0.0
H8395 H 0.14724 0.71563 0.90674 0.0
H8396 H 0.16563 0.75488 0.8729 0.0
H8397 H 0.12222 0.73826 0.91796 0.0
H8398 H 0.15376 0.72963 0.89373 0.0
H8399 H 0.14275 0.76347 0.90545 0.0
C8400 C 0.15489 0.76962 0.89421 0.0
C8401 C 0.16171 0.76723 0.8852 0.0
C8402 C 0.14666 0.73143 0.89884 0.0
C8403 C 0.14735 0.7512 0.89324 0.0
C8404 C 0.14298 0.72347 0.90628 0.0
C8405 C 0.13428 0.72588 0.91348 0.0
C8406 C 0.14183 0.74194 0.89889 0.0
C8407 C 0.12899 0.73612 0.91255 0.0
C8408 C 0.14756 0.76168 0.89815 0.0
C8409 C 0.16052 0.75701 0.87991 0.0
N8410 N 0.13304 0.74392 0.90559 0.0
N8411 N 0.15368 0.74923 0.88419 0.0
H8412 H 0.26928 0.91118 0.68214 0.0
H8413 H 0.22774 0.91136 0.6313 0.0
H8414 H 0.26224 0.88154 0.66367 0.0
H8415 H 0.2266 0.935 0.65791 0.0
H8416 H 0.24191 0.90104 0.64144 0.0
H8417 H 0.25537 0.92093 0.67146 0.0
C8418 C 0.26485 0.90672 0.67579 0.0
C8419 C 0.26691 0.8955 0.67383 0.0
C8420 C 0.2385 0.90846 0.64503 0.0
C8421 C 0.25093 0.90667 0.66155 0.0
C8422 C 0.23044 0.91436 0.63926 0.0
C8423 C 0.22597 0.92405 0.64377 0.0
C8424 C 0.24221 0.91241 0.65526 0.0
C8425 C 0.22976 0.92756 0.65412 0.0
C8426 C 0.25687 0.91229 0.66973 0.0
C8427 C 0.26088 0.89017 0.66549 0.0
N8428 N 0.2377 0.92179 0.65947 0.0
N8429 N 0.25316 0.89582 0.65962 0.0
H8430 H 0.09041 0.02821 0.41176 0.0
H8431 H 0.08248 0.96615 0.40057 0.0
H8432 H 0.11616 0.00528 0.42051 0.0
H8433 H 0.07117 0.98988 0.3766 0.0
H8434 H 0.09466 0.98021 0.40844 0.0
H8435 H 0.08277 0.01445 0.39908 0.0
C8436 C 0.09453 0.02033 0.41088 0.0
C8437 C 0.10386 0.01781 0.41723 0.0
C8438 C 0.08967 0.98227 0.40132 0.0
C8439 C 0.09508 0.00205 0.40298 0.0
C8440 C 0.08271 0.97428 0.39687 0.0
C8441 C 0.0758 0.97692 0.38799 0.0
C8442 C 0.08945 0.99303 0.39707 0.0
C8443 C 0.0764 0.98755 0.38345 0.0
C8444 C 0.09022 0.01253 0.40362 0.0
C8445 C 0.10894 0.00752 0.41576 0.0
N8446 N 0.08293 0.99533 0.38821 0.0
N8447 N 0.10434 -0.0001 0.40895 0.0
H8448 H 0.5878 0.02707 0.91382 0.0
H8449 H 0.57841 0.96515 0.90347 0.0
H8450 H 0.6131 0.0039 0.92325 0.0
H8451 H 0.56977 0.98844 0.87799 0.0
H8452 H 0.59044 0.9791 0.91182 0.0
H8453 H 0.58004 0.01314 0.90137 0.0
C8454 C 0.59179 0.0191 0.91315 0.0
C8455 C 0.60105 0.01657 0.91958 0.0
C8456 C 0.58607 0.98106 0.90428 0.0
C8457 C 0.59213 0.00066 0.90562 0.0
C8458 C 0.5792 0.97315 0.89956 0.0
C8459 C 0.57311 0.9757 0.89007 0.0
C8460 C 0.58654 0.99167 0.89968 0.0
C8461 C 0.57439 0.98617 0.88529 0.0
C8462 C 0.5874 0.01121 0.90603 0.0
C8463 C 0.60595 0.00615 0.91841 0.0
N8464 N 0.58078 0.99389 0.8903 0.0
N8465 N 0.60128 -0.00154 0.91173 0.0
H8466 H 0.97872 0.36194 0.65749 0.0
H8467 H 0.02685 0.3176 0.65894 0.0
H8468 H 0.98173 0.33647 0.6822 0.0
H8469 H 0.01366 0.32863 0.62772 0.0
H8470 H 0.01305 0.3286 0.66843 0.0
H8471 H 0.99386 0.35322 0.6471 0.0
C8472 C 0.98255 0.35454 0.66071 0.0
C8473 C 0.97895 0.34987 0.67068 0.0
C8474 C 0.01323 0.32866 0.6595 0.0
C8475 C -0.00372 0.34016 0.65909 0.0
C8476 C 0.02113 0.32242 0.65405 0.0
C8477 C 0.0213 0.32203 0.64249 0.0
C8478 C 0.00548 0.33466 0.65339 0.0
C8479 C 0.01374 0.32859 0.63665 0.0
C8480 C 0.99114 0.3496 0.6548 0.0
C8481 C 0.98417 0.34029 0.67451 0.0
N8482 N 0.00605 0.33462 0.64217 0.0
N8483 N 0.99262 0.33581 0.66876 0.0
H8484 H 0.66171 0.77821 0.40125 0.0
H8485 H 0.65118 0.71623 0.41057 0.0
H8486 H 0.67056 0.75486 0.3759 0.0
H8487 H 0.6268 0.73988 0.4211 0.0
H8488 H 0.65899 0.73014 0.39817 0.0
H8489 H 0.64924 0.76446 0.40923 0.0
C8490 C 0.6609 0.77024 0.39729 0.0
C8491 C 0.66721 0.7676 0.38797 0.0
C8492 C 0.6518 0.73221 0.40304 0.0
C8493 C 0.6532 0.75186 0.39715 0.0
C8494 C 0.64739 0.72432 0.41014 0.0
C8495 C 0.6384 0.72698 0.41688 0.0
C8496 C 0.6474 0.74291 0.40297 0.0
C8497 C 0.63374 0.73753 0.41601 0.0
C8498 C 0.65376 0.76244 0.4018 0.0
C8499 C 0.66583 0.7572 0.3831 0.0
N8500 N 0.63846 0.74523 0.40936 0.0
N8501 N 0.65914 0.74959 0.3879 0.0
H8502 H 0.26179 0.38166 0.16258 0.0
H8503 H 0.22632 0.43685 0.15903 0.0
H8504 H 0.26655 0.40971 0.18402 0.0
H8505 H 0.22978 0.41495 0.13116 0.0
H8506 H 0.23953 0.42568 0.16921 0.0
H8507 H 0.24861 0.39256 0.15172 0.0
C8508 C 0.26008 0.39009 0.165 0.0
C8509 C 0.26528 0.39478 0.17422 0.0
C8510 C 0.23742 0.42332 0.16086 0.0
C8511 C 0.2502 0.40718 0.16195 0.0
C8512 C 0.22983 0.42966 0.15505 0.0
C8513 C 0.22694 0.42684 0.14421 0.0
C8514 C 0.24209 0.41398 0.15588 0.0
C8515 C 0.23182 0.41745 0.13948 0.0
C8516 C 0.2526 0.3963 0.15879 0.0
C8517 C 0.26278 0.40575 0.17696 0.0
N8518 N 0.23914 0.41131 0.14537 0.0
N8519 N 0.25538 0.41154 0.1709 0.0
H8520 H 0.58164 0.77606 0.84043 0.0
H8521 H 0.5907 0.71391 0.8321 0.0
H8522 H 0.57063 0.75324 0.86541 0.0
H8523 H 0.61627 0.73677 0.82264 0.0
H8524 H 0.58289 0.72803 0.84425 0.0
H8525 H 0.59433 0.76197 0.83347 0.0
C8526 C 0.58205 0.76814 0.84455 0.0
C8527 C 0.57506 0.76574 0.85343 0.0
C8528 C 0.59034 0.72986 0.83968 0.0
C8529 C 0.58928 0.7496 0.8454 0.0
C8530 C 0.59475 0.72185 0.83272 0.0
C8531 C 0.60406 0.72424 0.82632 0.0
C8532 C 0.59509 0.74042 0.83994 0.0
C8533 C 0.60906 0.73462 0.82745 0.0
C8534 C 0.5893 0.76014 0.84062 0.0
C8535 C 0.5759 0.75539 0.85853 0.0
N8536 N 0.60435 0.74245 0.83394 0.0
N8537 N 0.5827 0.74757 0.85427 0.0
H8538 H 0.26921 0.33001 0.55969 0.0
H8539 H 0.22816 0.32925 0.61082 0.0
H8540 H 0.26264 0.35949 0.57858 0.0
H8541 H 0.22547 0.30715 0.58303 0.0
H8542 H 0.2427 0.3394 0.60101 0.0
H8543 H 0.25526 0.32027 0.57035 0.0
C8544 C 0.26489 0.33443 0.56613 0.0
C8545 C 0.26707 0.34562 0.5682 0.0
C8546 C 0.23886 0.33234 0.59709 0.0
C8547 C 0.25107 0.33446 0.58045 0.0
C8548 C 0.23061 0.32654 0.60267 0.0
C8549 C 0.22558 0.31736 0.59772 0.0
C8550 C 0.24222 0.32878 0.58661 0.0
C8551 C 0.22906 0.31421 0.58714 0.0
C8552 C 0.25688 0.32887 0.57217 0.0
C8553 C 0.26117 0.35089 0.57666 0.0
N8554 N 0.23721 0.31986 0.58198 0.0
N8555 N 0.25343 0.34525 0.58252 0.0
H8556 H 0.64909 0.02416 0.33287 0.0
H8557 H 0.65898 0.96244 0.34041 0.0
H8558 H 0.62459 0.0012 0.32115 0.0
H8559 H 0.66741 0.9848 0.36678 0.0
H8560 H 0.64616 0.97624 0.33313 0.0
H8561 H 0.65596 0.01002 0.34556 0.0
C8562 C 0.64503 0.0162 0.33315 0.0
C8563 C 0.63634 0.01376 0.32596 0.0
C8564 C 0.65063 0.978 0.34066 0.0
C8565 C 0.64429 -0.00244 0.34013 0.0
C8566 C 0.65798 0.97018 0.34477 0.0
C8567 C 0.66433 0.97256 0.35412 0.0
C8568 C 0.64992 0.98837 0.34576 0.0
C8569 C 0.66268 0.98267 0.35952 0.0
C8570 C 0.64891 0.00817 0.3404 0.0
C8571 C 0.63131 0.00336 0.32661 0.0
N8572 N 0.65582 0.99034 0.35509 0.0
N8573 N 0.63556 0.9955 0.33338 0.0
H8574 H 0.01884 0.43338 0.08309 0.0
H8575 H 0.97926 0.3811 0.08007 0.0
H8576 H 0.01178 0.41397 0.11213 0.0
H8577 H 0.97705 0.40913 0.05819 0.0
H8578 H 0.9931 0.39113 0.09102 0.0
H8579 H 0.00567 0.42238 0.07275 0.0
C8580 C 0.01456 0.42677 0.08731 0.0
C8581 C 0.01638 0.42466 0.09854 0.0
C8582 C 0.98952 0.39504 0.08383 0.0
C8583 C 0.00124 0.41199 0.08666 0.0
C8584 C 0.98168 0.38933 0.07758 0.0
C8585 C 0.97698 0.3943 0.06822 0.0
C8586 C 0.99281 0.40565 0.08055 0.0
C8587 C 0.98038 0.40499 0.06537 0.0
C8588 C 0.00699 0.42052 0.08139 0.0
C8589 C 0.01057 0.41593 0.1035 0.0
N8590 N 0.98812 0.41026 0.07145 0.0
N8591 N 0.00324 0.40988 0.09752 0.0
H8592 H 0.90574 0.5934 0.02961 0.0
H8593 H 0.89848 0.58419 0.96788 0.0
H8594 H 0.91623 0.61872 0.0069 0.0
H8595 H 0.87248 0.57415 0.98995 0.0
H8596 H 0.9051 0.59714 0.98189 0.0
H8597 H 0.8932 0.58624 0.01549 0.0
C8598 C 0.90523 0.59758 0.02172 0.0
C8599 C 0.91209 0.60657 0.01934 0.0
C8600 C 0.89779 0.59229 0.98355 0.0
C8601 C 0.89802 0.59832 0.00318 0.0
C8602 C 0.89405 0.58489 0.9756 0.0
C8603 C 0.885 0.57808 0.97784 0.0
C8604 C 0.89264 0.59258 0.99391 0.0
C8605 C 0.8795 0.57929 0.98794 0.0
C8606 C 0.89805 0.59353 0.01371 0.0
C8607 C 0.91109 0.61174 0.00904 0.0
N8608 N 0.88359 0.5862 0.99575 0.0
N8609 N 0.9044 0.60736 0.0012 0.0
H8610 H 0.40896 0.68434 0.76532 0.0
H8611 H 0.41339 0.63004 0.72925 0.0
H8612 H 0.38063 0.66311 0.76151 0.0
H8613 H 0.43191 0.65979 0.72278 0.0
H8614 H 0.40219 0.64035 0.7427 0.0
H8615 H 0.41872 0.6735 0.75162 0.0
C8616 C 0.40479 0.67734 0.76165 0.0
C8617 C 0.39394 0.67464 0.76457 0.0
C8618 C 0.40867 0.64457 0.73824 0.0
C8619 C 0.40515 0.66214 0.74881 0.0
C8620 C 0.41508 0.63871 0.73061 0.0
C8621 C 0.42365 0.64404 0.72491 0.0
C8622 C 0.41104 0.65572 0.74028 0.0
C8623 C 0.42543 0.6553 0.72696 0.0
C8624 C 0.41036 0.67119 0.75376 0.0
C8625 C 0.38897 0.66549 0.75945 0.0
N8626 N 0.41927 0.66071 0.73453 0.0
N8627 N 0.39465 0.6595 0.75183 0.0
H8628 H 0.33322 0.18693 0.47961 0.0
H8629 H 0.32823 0.13131 0.51278 0.0
H8630 H 0.36006 0.16355 0.47889 0.0
H8631 H 0.3141 0.16205 0.52398 0.0
H8632 H 0.3391 0.14167 0.49914 0.0
H8633 H 0.32471 0.17641 0.49443 0.0
C8634 C 0.3373 0.17953 0.48253 0.0
C8635 C 0.34734 0.17608 0.478 0.0
C8636 C 0.3337 0.14609 0.50471 0.0
C8637 C 0.3376 0.16399 0.49497 0.0
C8638 C 0.32749 0.14021 0.51246 0.0
C8639 C 0.32013 0.14581 0.51945 0.0
C8640 C 0.33235 0.15756 0.50386 0.0
C8641 C 0.31956 0.15735 0.51872 0.0
C8642 C 0.33248 0.17359 0.49105 0.0
C8643 C 0.35231 0.16648 0.4822 0.0
N8644 N 0.32546 0.16281 0.51097 0.0
N8645 N 0.34732 0.16067 0.49042 0.0
H8646 H 0.83391 0.09201 0.21482 0.0
H8647 H 0.84289 0.08206 0.2766 0.0
H8648 H 0.82354 0.11666 0.23827 0.0
H8649 H 0.86805 0.07216 0.25352 0.0
H8650 H 0.83557 0.09487 0.26281 0.0
H8651 H 0.84666 0.08456 0.22859 0.0
C8652 C 0.8345 0.09598 0.2228 0.0
C8653 C 0.82763 0.10488 0.22548 0.0
C8654 C 0.84283 0.09006 0.26085 0.0
C8655 C 0.84192 0.09627 0.24127 0.0
C8656 C 0.84696 0.08273 0.26868 0.0
C8657 C 0.85601 0.07601 0.26612 0.0
C8658 C 0.84758 0.09041 0.25031 0.0
C8659 C 0.86104 0.07721 0.25578 0.0
C8660 C 0.84178 0.09176 0.23062 0.0
C8661 C 0.82871 0.10977 0.2359 0.0
N8662 N 0.85659 0.08408 0.24812 0.0
N8663 N 0.83552 0.10522 0.24355 0.0
H8664 H 0.40645 0.55494 0.48005 0.0
H8665 H 0.4142 0.61059 0.51356 0.0
H8666 H 0.38072 0.57953 0.48061 0.0
H8667 H 0.43013 0.5799 0.52215 0.0
H8668 H 0.40267 0.60051 0.50026 0.0
H8669 H 0.41639 0.56528 0.49407 0.0
C8670 C 0.40289 0.56255 0.4831 0.0
C8671 C 0.39273 0.56639 0.47914 0.0
C8672 C 0.40864 0.59603 0.50515 0.0
C8673 C 0.40414 0.57831 0.49523 0.0
C8674 C 0.41523 0.60176 0.51272 0.0
C8675 C 0.4232 0.5961 0.51895 0.0
C8676 C 0.4102 0.58464 0.50372 0.0
C8677 C 0.42414 0.58464 0.51754 0.0
C8678 C 0.40855 0.56842 0.49116 0.0
C8679 C 0.38851 0.57628 0.48347 0.0
N8680 N 0.41781 0.57933 0.51001 0.0
N8681 N 0.39429 0.58197 0.49125 0.0
H8682 H 0.83151 0.18603 0.976 0.0
H8683 H 0.83003 0.13236 0.01383 0.0
H8684 H 0.86021 0.16546 0.98052 0.0
H8685 H 0.80727 0.15956 0.01709 0.0
H8686 H 0.84061 0.14321 0.00042 0.0
H8687 H 0.82175 0.17509 0.98969 0.0
C8688 C 0.83576 0.17918 0.97984 0.0
C8689 C 0.84671 0.17666 0.9771 0.0
C8690 C 0.83333 0.14679 0.00414 0.0
C8691 C 0.83552 0.16407 0.99283 0.0
C8692 C 0.82728 0.14061 0.01177 0.0
C8693 C 0.81773 0.14505 0.01659 0.0
C8694 C 0.8297 0.15739 0.00122 0.0
C8695 C 0.81457 0.15579 0.01362 0.0
C8696 C 0.83019 0.17296 0.98771 0.0
C8697 C 0.85179 0.1677 0.98241 0.0
N8698 N 0.82049 0.16154 0.00608 0.0
N8699 N 0.84613 0.16168 0.99 0.0
H8700 H 0.33222 0.09115 0.71321 0.0
H8701 H 0.33954 0.08126 0.77502 0.0
H8702 H 0.32217 0.11637 0.7362 0.0
H8703 H 0.36528 0.07103 0.75273 0.0
H8704 H 0.33288 0.09423 0.76104 0.0
H8705 H 0.34457 0.08355 0.72727 0.0
C8706 C 0.33279 0.09521 0.72115 0.0
C8707 C 0.32612 0.10431 0.72362 0.0
C8708 C 0.34013 0.08931 0.75931 0.0
C8709 C 0.33993 0.09554 0.73973 0.0
C8710 C 0.34388 0.08188 0.76724 0.0
C8711 C 0.35289 0.07503 0.76495 0.0
C8712 C 0.34522 0.0896 0.74893 0.0
C8713 C 0.35828 0.07618 0.75478 0.0
C8714 C 0.33986 0.09091 0.72913 0.0
C8715 C 0.32718 0.10932 0.734 0.0
N8716 N 0.3542 0.08314 0.74701 0.0
N8717 N 0.33375 0.10468 0.7418 0.0
H8718 H 0.87935 0.66277 0.26091 0.0
H8719 H 0.93188 0.66024 0.22149 0.0
H8720 H 0.90641 0.68587 0.26213 0.0
H8721 H 0.91278 0.63107 0.22886 0.0
H8722 H 0.92052 0.67071 0.23425 0.0
H8723 H 0.88962 0.65188 0.24721 0.0
C8724 C 0.88741 0.66556 0.25829 0.0
C8725 C 0.89205 0.67522 0.2627 0.0
C8726 C 0.91879 0.66202 0.23308 0.0
C8727 C 0.9037 0.66294 0.24703 0.0
C8728 C 0.92525 0.65603 0.22575 0.0
C8729 C 0.92334 0.64472 0.22414 0.0
C8730 C 0.91025 0.65675 0.23881 0.0
C8731 C 0.9146 0.63975 0.22991 0.0
C8732 C 0.89326 0.65933 0.25052 0.0
C8733 C 0.90253 0.67845 0.25903 0.0
N8734 N 0.90835 0.64581 0.23701 0.0
N8735 N 0.90796 0.67236 0.25139 0.0
H8736 H 0.93119 0.72216 0.16248 0.0
H8737 H 0.87889 0.76176 0.16199 0.0
H8738 H 0.91407 0.72946 0.1321 0.0
H8739 H 0.90546 0.76398 0.18558 0.0
H8740 H 0.8895 0.74777 0.15178 0.0
H8741 H 0.91929 0.73506 0.17209 0.0
C8742 C 0.92488 0.72641 0.15781 0.0
C8743 C 0.92371 0.72477 0.14642 0.0
C8744 C 0.89295 0.75138 0.15919 0.0
C8745 C 0.91001 0.73963 0.15747 0.0
C8746 C 0.88692 0.75931 0.16502 0.0
C8747 C 0.89132 0.76406 0.17463 0.0
C8748 C 0.90331 0.74807 0.16316 0.0
C8749 C 0.90176 0.76061 0.17818 0.0
C8750 C 0.91811 0.73383 0.16333 0.0
C8751 C 0.91531 0.73054 0.14087 0.0
N8752 N 0.90735 0.75279 0.17249 0.0
N8753 N 0.90876 0.73775 0.14646 0.0
H8754 H 0.82772 0.51244 0.63016 0.0
H8755 H 0.83507 0.4806 0.68661 0.0
H8756 H 0.81465 0.52412 0.66117 0.0
H8757 H 0.85963 0.47783 0.661 0.0
H8758 H 0.82618 0.49531 0.67623 0.0
H8759 H 0.8387 0.49874 0.6403 0.0
C8760 C 0.82724 0.51222 0.63908 0.0
C8761 C 0.82015 0.51936 0.64481 0.0
C8762 C 0.83353 0.4915 0.67288 0.0
C8763 C 0.83249 0.50368 0.65634 0.0
C8764 C 0.83856 0.48304 0.67875 0.0
C8765 C 0.84809 0.47796 0.67464 0.0
C8766 C 0.83793 0.49483 0.66271 0.0
C8767 C 0.85229 0.48155 0.66446 0.0
C8768 C 0.8335 0.50442 0.64483 0.0
C8769 C 0.8199 0.51873 0.65636 0.0
N8770 N 0.84713 0.48974 0.65877 0.0
N8771 N 0.82586 0.51095 0.66172 0.0
H8772 H 0.8655 0.75279 0.57075 0.0
H8773 H 0.81966 0.73916 0.61583 0.0
H8774 H 0.841 0.77644 0.58101 0.0
H8775 H 0.82879 0.71631 0.59014 0.0
H8776 H 0.83285 0.75257 0.60827 0.0
H8777 H 0.85722 0.73913 0.58323 0.0
C8778 C 0.85857 0.75518 0.57585 0.0
C8779 C 0.85381 0.76567 0.5748 0.0
C8780 C 0.8321 0.74451 0.60448 0.0
C8781 C 0.84453 0.75027 0.58909 0.0
C8782 C 0.82465 0.73687 0.60878 0.0
C8783 C 0.82309 0.72671 0.60348 0.0
C8784 C 0.83817 0.74182 0.59502 0.0
C8785 C 0.82969 0.72413 0.59435 0.0
C8786 C 0.85385 0.7474 0.5829 0.0
C8787 C 0.8448 0.76837 0.58151 0.0
N8788 N 0.83693 0.73167 0.59036 0.0
N8789 N 0.84041 0.76069 0.58837 0.0
H8790 H 0.93436 0.51722 0.08286 0.0
H8791 H 0.88116 0.47874 0.08073 0.0
H8792 H 0.91376 0.5121 0.11145 0.0
H8793 H 0.90838 0.47625 0.05793 0.0
H8794 H 0.89175 0.49225 0.09147 0.0
H8795 H 0.92351 0.50365 0.07283 0.0
C8796 C 0.92752 0.51327 0.08703 0.0
C8797 C 0.92498 0.5158 0.09804 0.0
C8798 C 0.89538 0.48868 0.08414 0.0
C8799 C 0.91249 0.50021 0.08653 0.0
C8800 C 0.88935 0.481 0.07799 0.0
C8801 C 0.89389 0.47636 0.0684 0.0
C8802 C 0.90593 0.49183 0.08056 0.0
C8803 C 0.90455 0.47957 0.06526 0.0
C8804 C 0.92136 0.50548 0.0813 0.0
C8805 C 0.91603 0.51037 0.10299 0.0
N8806 N 0.91016 0.48715 0.07128 0.0
N8807 N 0.91006 0.50284 0.09718 0.0
H8808 H 0.41136 0.51267 0.61272 0.0
H8809 H 0.40227 0.48422 0.55498 0.0
H8810 H 0.42327 0.52636 0.58206 0.0
H8811 H 0.37839 0.47982 0.58098 0.0
H8812 H 0.41103 0.49875 0.56569 0.0
H8813 H 0.39974 0.49986 0.60213 0.0
C8814 C 0.41144 0.51308 0.6038 0.0
C8815 C 0.41843 0.5205 0.59828 0.0
C8816 C 0.40384 0.49467 0.56905 0.0
C8817 C 0.40532 0.50586 0.58622 0.0
C8818 C 0.39888 0.48631 0.56298 0.0
C8819 C 0.38963 0.48078 0.56713 0.0
C8820 C 0.39967 0.49741 0.57949 0.0
C8821 C 0.38551 0.48391 0.5775 0.0
C8822 C 0.40481 0.50579 0.59779 0.0
C8823 C 0.41815 0.52071 0.58671 0.0
N8824 N 0.39066 0.49196 0.58342 0.0
N8825 N 0.41184 0.51341 0.58109 0.0
H8826 H 0.32651 0.73016 0.11341 0.0
H8827 H 0.33966 0.76506 0.05905 0.0
H8828 H 0.30956 0.72582 0.08239 0.0
H8829 H 0.36206 0.76322 0.08665 0.0
H8830 H 0.32724 0.7524 0.06854 0.0
H8831 H 0.33851 0.74385 0.10464 0.0
C8832 C 0.32531 0.73207 0.10477 0.0
C8833 C 0.31704 0.7268 0.09861 0.0
C8834 C 0.33486 0.75478 0.07254 0.0
C8835 C 0.33065 0.74249 0.0886 0.0
C8836 C 0.34193 0.76205 0.06714 0.0
C8837 C 0.35193 0.76515 0.07205 0.0
C8838 C 0.33776 0.75063 0.08294 0.0
C8839 C 0.35445 0.76099 0.08255 0.0
C8840 C 0.33216 0.73987 0.09978 0.0
C8841 C 0.31586 0.72962 0.08745 0.0
N8842 N 0.34741 0.75392 0.08766 0.0
N8843 N 0.32256 0.73729 0.08282 0.0
H8844 H 0.37429 0.75348 0.67036 0.0
H8845 H 0.41948 0.73822 0.62518 0.0
H8846 H 0.39996 0.776 0.6604 0.0
H8847 H 0.40895 0.71521 0.65021 0.0
H8848 H 0.40713 0.75216 0.63312 0.0
H8849 H 0.38205 0.73947 0.65794 0.0
C8850 C 0.3814 0.75554 0.66538 0.0
C8851 C 0.3866 0.76583 0.66646 0.0
C8852 C 0.40738 0.74397 0.63669 0.0
C8853 C 0.39529 0.75004 0.65222 0.0
C8854 C 0.41435 0.73602 0.63215 0.0
C8855 C 0.41529 0.72562 0.63715 0.0
C8856 C 0.40117 0.74138 0.64609 0.0
C8857 C 0.40853 0.72319 0.64621 0.0
C8858 C 0.38582 0.74757 0.65836 0.0
C8859 C 0.39582 0.76811 0.65988 0.0
N8860 N 0.40177 0.73104 0.65044 0.0
N8861 N 0.3999 0.76025 0.65303 0.0
H8862 H 0.30531 0.51202 0.15792 0.0
H8863 H 0.3604 0.47724 0.16397 0.0
H8864 H 0.32905 0.51031 0.13147 0.0
H8865 H 0.33059 0.47011 0.18207 0.0
H8866 H 0.35007 0.49053 0.1527 0.0
H8867 H 0.3156 0.49792 0.16785 0.0
C8868 C 0.31272 0.50869 0.15421 0.0
C8869 C 0.31635 0.51236 0.14386 0.0
C8870 C 0.34582 0.48597 0.1591 0.0
C8871 C 0.3282 0.49621 0.15523 0.0
C8872 C 0.3517 0.47843 0.16554 0.0
C8873 C 0.34637 0.47259 0.17401 0.0
C8874 C 0.3346 0.48779 0.16128 0.0
C8875 C 0.33507 0.47441 0.17566 0.0
C8876 C 0.31855 0.50059 0.15986 0.0
C8877 C 0.32596 0.50768 0.13942 0.0
N8878 N 0.3296 0.48191 0.16943 0.0
N8879 N 0.33163 0.49988 0.14518 0.0
H8880 H 0.08022 0.92968 0.52453 0.0
H8881 H 0.08021 0.88124 0.48021 0.0
H8882 H 0.11066 0.91436 0.51419 0.0
H8883 H 0.05657 0.90785 0.48075 0.0
H8884 H 0.09051 0.8905 0.49508 0.0
H8885 H 0.07028 0.91847 0.51119 0.0
C8886 C 0.08483 0.92389 0.51953 0.0
C8887 C 0.09633 0.92307 0.5204 0.0
C8888 C 0.08306 0.89425 0.49189 0.0
C8889 C 0.08493 0.91019 0.50509 0.0
C8890 C 0.07719 0.88899 0.48346 0.0
C8891 C 0.06757 0.89383 0.47921 0.0
C8892 C 0.0791 0.90423 0.49622 0.0
C8893 C 0.064 0.90388 0.48369 0.0
C8894 C 0.07913 0.91752 0.51189 0.0
C8895 C 0.10181 0.91533 0.51372 0.0
N8896 N 0.06972 0.9087 0.49199 0.0
N8897 N 0.09605 0.90919 0.50629 0.0
H8898 H 0.57795 0.86075 0.76086 0.0
H8899 H 0.57798 0.80915 0.7201 0.0
H8900 H 0.5538 0.83458 0.76169 0.0
H8901 H 0.60805 0.8264 0.7283 0.0
H8902 H 0.568 0.82084 0.73298 0.0
H8903 H 0.58824 0.85038 0.74678 0.0
C8904 C 0.57481 0.85286 0.75808 0.0
C8905 C 0.56504 0.84849 0.76249 0.0
C8906 C 0.57678 0.82209 0.73194 0.0
C8907 C 0.57661 0.83677 0.74638 0.0
C8908 C 0.58249 0.81545 0.72454 0.0
C8909 C 0.5939 0.81673 0.72317 0.0
C8910 C 0.58246 0.83017 0.73797 0.0
C8911 C 0.59927 0.82507 0.72917 0.0
C8912 C 0.58069 0.84696 0.75009 0.0
C8913 C 0.56134 0.83824 0.7586 0.0
N8914 N 0.59349 0.8315 0.73634 0.0
N8915 N 0.56709 0.83277 0.75074 0.0
H8916 H 0.68386 0.33354 0.97487 0.0
H8917 H 0.62959 0.33054 0.01175 0.0
H8918 H 0.66315 0.36208 0.97984 0.0
H8919 H 0.65731 0.30848 0.01533 0.0
H8920 H 0.64028 0.34137 -0.00166 0.0
H8921 H 0.67255 0.32326 0.98785 0.0
C8922 C 0.6769 0.33765 0.97866 0.0
C8923 C 0.67448 0.34872 0.97628 0.0
C8924 C 0.64398 0.33417 0.00211 0.0
C8925 C 0.66145 0.33692 0.99119 0.0
C8926 C 0.6379 0.32798 0.00972 0.0
C8927 C 0.64257 0.31861 0.01468 0.0
C8928 C 0.65471 0.33083 -0.00066 0.0
C8929 C 0.65337 0.31567 0.01177 0.0
C8930 C 0.67047 0.33177 0.98612 0.0
C8931 C 0.66534 0.35359 0.98148 0.0
N8932 N 0.65903 0.32171 0.00426 0.0
N8933 N 0.65912 0.34764 0.98869 0.0
H8934 H 0.16404 0.38112 0.2617 0.0
H8935 H 0.15969 0.43636 0.22618 0.0
H8936 H 0.185 0.40955 0.26634 0.0
H8937 H 0.13257 0.41343 0.2288 0.0
H8938 H 0.17004 0.42532 0.23935 0.0
H8939 H 0.15321 0.39168 0.24823 0.0
C8940 C 0.16636 0.38956 0.2599 0.0
C8941 C 0.17544 0.39445 0.26516 0.0
C8942 C 0.16182 0.42269 0.23706 0.0
C8943 C 0.16319 0.40647 0.24975 0.0
C8944 C 0.15591 0.42897 0.22948 0.0
C8945 C 0.14522 0.42583 0.22638 0.0
C8946 C 0.15708 0.41312 0.24153 0.0
C8947 C 0.14077 0.41617 0.231 0.0
C8948 C 0.16016 0.39557 0.25225 0.0
C8949 C 0.17805 0.40543 0.26253 0.0
N8950 N 0.14674 0.41013 0.23833 0.0
N8951 N 0.172 0.41103 0.25498 0.0
H8952 H 0.6171 0.91906 0.00399 0.0
H8953 H 0.57187 0.87397 0.98837 0.0
H8954 H 0.59181 0.90839 0.0266 0.0
H8955 H 0.58213 0.89961 0.96593 0.0
H8956 H 0.58456 0.8814 0.00229 0.0
H8957 H 0.60944 0.90665 0.98994 0.0
C8958 C 0.61011 0.91391 0.00608 0.0
C8959 C 0.60496 0.91481 0.01639 0.0
C8960 C 0.58419 0.8852 0.99421 0.0
C8961 C 0.59638 0.90058 0.00053 0.0
C8962 C 0.57703 0.88096 0.98627 0.0
C8963 C 0.5759 0.88629 0.97607 0.0
C8964 C 0.5904 0.89466 0.99179 0.0
C8965 C 0.58269 0.89536 0.97376 0.0
C8966 C 0.60575 0.90689 -0.00193 0.0
C8967 C 0.59591 0.90801 0.01868 0.0
N8968 N 0.58964 0.89931 0.9816 0.0
N8969 N 0.59186 0.90119 0.01078 0.0
H8970 H 0.15902 0.30803 0.5186 0.0
H8971 H 0.16356 0.36023 0.47924 0.0
H8972 H 0.13043 0.32814 0.51178 0.0
H8973 H 0.18373 0.33105 0.47603 0.0
H8974 H 0.1523 0.35053 0.49309 0.0
H8975 H 0.16944 0.31864 0.50518 0.0
C8976 C 0.15493 0.31473 0.51433 0.0
C8977 C 0.14379 0.31715 0.51629 0.0
C8978 C 0.15918 0.3463 0.48928 0.0
C8979 C 0.15576 0.32937 0.50086 0.0
C8980 C 0.1656 0.35181 0.48143 0.0
C8981 C 0.17459 0.34644 0.47647 0.0
C8982 C 0.16194 0.33547 0.49231 0.0
C8983 C 0.17686 0.33552 0.47958 0.0
C8984 C 0.16089 0.32075 0.50661 0.0
C8985 C 0.13897 0.32595 0.51047 0.0
N8986 N 0.17065 0.33045 0.48735 0.0
N8987 N 0.14501 0.33178 0.503 0.0
H8988 H 0.66107 0.38016 0.76336 0.0
H8989 H 0.65453 0.43673 0.73203 0.0
H8990 H 0.67437 0.41092 0.7755 0.0
H8991 H 0.62881 0.41222 0.72983 0.0
H8992 H 0.66313 0.42614 0.74674 0.0
H8993 H 0.64989 0.39062 0.75006 0.0
C8994 C 0.66156 0.38908 0.76333 0.0
C8995 C 0.66879 0.39466 0.77047 0.0
C8996 C 0.65558 0.42308 0.74308 0.0
C8997 C 0.65621 0.40655 0.75526 0.0
C8998 C 0.65071 0.42908 0.73462 0.0
C8999 C 0.64096 0.42532 0.72968 0.0
C9000 C 0.65081 0.41312 0.74653 0.0
C9001 C 0.63632 0.41539 0.73345 0.0
C9002 C 0.65517 0.39502 0.75576 0.0
C9003 C 0.66903 0.40623 0.7701 0.0
N9004 N 0.64136 0.40953 0.74161 0.0
N9005 N 0.66296 0.41176 0.76253 0.0
H9006 H 0.11299 0.81947 0.23856 0.0
H9007 H 0.06652 0.8641 0.25147 0.0
H9008 H 0.08756 0.82774 0.2151 0.0
H9009 H 0.07719 0.8401 0.27547 0.0
H9010 H 0.0789 0.85561 0.23784 0.0
H9011 H 0.10441 0.83203 0.25193 0.0
C9012 C 0.10575 0.82411 0.23615 0.0
C9013 C 0.10087 0.82251 0.22579 0.0
C9014 C 0.07864 0.85237 0.24616 0.0
C9015 C 0.09124 0.83691 0.24087 0.0
C9016 C 0.07166 0.85721 0.25392 0.0
C9017 C 0.07081 0.85269 0.26453 0.0
C9018 C 0.08498 0.84318 0.24917 0.0
C9019 C 0.07756 0.84373 0.26732 0.0
C9020 C 0.10086 0.83121 0.24378 0.0
C9021 C 0.09147 0.82867 0.22307 0.0
N9022 N 0.08438 0.83924 0.25966 0.0
N9023 N 0.08693 0.83561 0.23059 0.0
H9024 H 0.07921 0.26193 0.86331 0.0
H9025 H 0.08586 0.23104 0.80616 0.0
H9026 H 0.06306 0.27213 0.83324 0.0
H9027 H 0.11198 0.23004 0.8303 0.0
H9028 H 0.07639 0.24482 0.81719 0.0
H9029 H 0.09062 0.24913 0.85247 0.0
C9030 C 0.07811 0.26155 0.85446 0.0
C9031 C 0.07008 0.26805 0.8492 0.0
C9032 C 0.08421 0.24163 0.82009 0.0
C9033 C 0.08297 0.25343 0.83687 0.0
C9034 C 0.0896 0.2337 0.81382 0.0
C9035 C 0.09971 0.22936 0.81734 0.0
C9036 C 0.08885 0.24518 0.83007 0.0
C9037 C 0.1042 0.23321 0.8273 0.0
C9038 C 0.08463 0.25427 0.8483 0.0
C9039 C 0.06906 0.26725 0.8377 0.0
N9040 N 0.09868 0.24086 0.83341 0.0
N9041 N 0.07533 0.26001 0.83197 0.0
H9042 H 0.15862 0.46564 0.34366 0.0
H9043 H 0.14881 0.52702 0.334 0.0
H9044 H 0.16929 0.48895 0.36832 0.0
H9045 H 0.12338 0.50378 0.32515 0.0
H9046 H 0.15642 0.51345 0.34688 0.0
H9047 H 0.1454 0.47926 0.33679 0.0
C9048 C 0.158 0.47356 0.34775 0.0
C9049 C 0.16507 0.47625 0.35649 0.0
C9050 C 0.14901 0.51143 0.34232 0.0
C9051 C 0.15024 0.49188 0.34854 0.0
C9052 C 0.14471 0.51913 0.33495 0.0
C9053 C 0.13553 0.51644 0.32847 0.0
C9054 C 0.1443 0.50088 0.34291 0.0
C9055 C 0.13048 0.50614 0.33 0.0
C9056 C 0.15044 0.48129 0.34388 0.0
C9057 C 0.16396 0.48659 0.36155 0.0
N9058 N 0.13511 0.49859 0.33687 0.0
N9059 N 0.15687 0.49418 0.35731 0.0
H9060 H 0.16256 0.26272 0.38016 0.0
H9061 H 0.15868 0.22726 0.43517 0.0
H9062 H 0.18259 0.26869 0.40899 0.0
H9063 H 0.13095 0.23014 0.41303 0.0
H9064 H 0.16855 0.24094 0.42429 0.0
H9065 H 0.15166 0.2494 0.39085 0.0
C9066 C 0.16465 0.26126 0.38872 0.0
C9067 C 0.17353 0.26681 0.39368 0.0
C9068 C 0.16029 0.2386 0.42181 0.0
C9069 C 0.16121 0.25157 0.40583 0.0
C9070 C 0.15467 0.23074 0.42798 0.0
C9071 C 0.14396 0.22754 0.425 0.0
C9072 C 0.15528 0.24323 0.41248 0.0
C9073 C 0.13918 0.2324 0.41563 0.0
C9074 C 0.15841 0.2537 0.3948 0.0
C9075 C 0.17584 0.26463 0.40481 0.0
N9076 N 0.1449 0.23998 0.40964 0.0
N9077 N 0.16978 0.25713 0.41047 0.0
H9078 H 0.08807 0.47901 0.87681 0.0
H9079 H 0.0815 0.51914 0.92853 0.0
H9080 H 0.05941 0.4801 0.89787 0.0
H9081 H 0.11332 0.51156 0.91447 0.0
H9082 H 0.07295 0.5065 0.91557 0.0
H9083 H 0.09726 0.49226 0.88908 0.0
C9084 C 0.08374 0.482 0.88403 0.0
C9085 C 0.07297 0.47845 0.88635 0.0
C9086 C 0.08181 0.50759 0.9153 0.0
C9087 C 0.08333 0.49362 0.90024 0.0
C9088 C 0.08671 0.51486 0.92268 0.0
C9089 C 0.09817 0.51637 0.92266 0.0
C9090 C 0.08838 0.50178 0.90777 0.0
C9091 C 0.10446 0.51061 0.91481 0.0
C9092 C 0.08897 0.48954 0.891 0.0
C9093 C 0.06772 0.48257 0.89578 0.0
N9094 N 0.09947 0.50353 0.90768 0.0
N9095 N 0.07293 0.48997 0.90234 0.0
H9096 H 0.57825 0.47871 0.37808 0.0
H9097 H 0.58833 0.50843 0.43484 0.0
H9098 H 0.56724 0.46539 0.40924 0.0
H9099 H 0.61192 0.51211 0.40847 0.0
H9100 H 0.57952 0.49353 0.42467 0.0
H9101 H 0.59015 0.49165 0.38816 0.0
C9102 C 0.57843 0.47839 0.387 0.0
C9103 C 0.57159 0.47106 0.39282 0.0
C9104 C 0.58666 0.49754 0.42112 0.0
C9105 C 0.58502 0.48587 0.4043 0.0
C9106 C 0.59164 0.50611 0.42687 0.0
C9107 C 0.60082 0.51154 0.42245 0.0
C9108 C 0.59073 0.4945 0.41073 0.0
C9109 C 0.60484 0.5081 0.41215 0.0
C9110 C 0.58523 0.48576 0.39273 0.0
C9111 C 0.57223 0.47098 0.40438 0.0
N9112 N 0.59967 0.49986 0.40653 0.0
N9113 N 0.57868 0.47837 0.40972 0.0
H9114 H 0.62998 0.23118 0.91471 0.0
H9115 H 0.68355 0.26925 0.91138 0.0
H9116 H 0.65793 0.22827 0.93657 0.0
H9117 H 0.66195 0.26467 0.88343 0.0
H9118 H 0.67259 0.25605 0.92178 0.0
H9119 H 0.64012 0.24512 0.90404 0.0
C9120 C 0.63823 0.23346 0.91726 0.0
C9121 C 0.64313 0.22853 0.92653 0.0
C9122 C 0.67023 0.25794 0.91337 0.0
C9123 C 0.65465 0.24448 0.91449 0.0
C9124 C 0.67646 0.26552 0.90743 0.0
C9125 C 0.6737 0.26805 0.89648 0.0
C9126 C 0.66109 0.25288 0.90841 0.0
C9127 C 0.66441 0.26292 0.89183 0.0
C9128 C 0.644 0.24138 0.91117 0.0
C9129 C 0.65383 0.23179 0.92946 0.0
N9130 N 0.65841 0.25557 0.89783 0.0
N9131 N 0.6592 0.23958 0.9235 0.0
H9132 H 0.58244 0.22735 0.30803 0.0
H9133 H 0.58723 0.26446 0.36215 0.0
H9134 H 0.61321 0.23218 0.32527 0.0
H9135 H 0.55919 0.26477 0.34023 0.0
H9136 H 0.59686 0.25224 0.34926 0.0
H9137 H 0.57367 0.24051 0.32037 0.0
C9138 C 0.58737 0.23117 0.31442 0.0
C9139 C 0.59858 0.22862 0.31563 0.0
C9140 C 0.58863 0.25504 0.34726 0.0
C9141 C 0.58855 0.24375 0.32983 0.0
C9142 C 0.58313 0.26201 0.35461 0.0
C9143 C 0.57238 0.2656 0.35227 0.0
C9144 C 0.58329 0.25159 0.33758 0.0
C9145 C 0.56746 0.26219 0.34238 0.0
C9146 C 0.58235 0.23873 0.32145 0.0
C9147 C 0.60454 0.2339 0.32404 0.0
N9148 N 0.57292 0.25533 0.33544 0.0
N9149 N 0.59943 0.24118 0.33087 0.0
H9150 H 0.65879 0.51496 0.8065 0.0
H9151 H 0.66209 0.47876 0.86115 0.0
H9152 H 0.63106 0.51215 0.82862 0.0
H9153 H 0.68243 0.47318 0.83247 0.0
H9154 H 0.65139 0.49232 0.85055 0.0
H9155 H 0.66854 0.5011 0.81727 0.0
C9156 C 0.65476 0.51146 0.81366 0.0
C9157 C 0.64408 0.51473 0.81666 0.0
C9158 C 0.65817 0.48806 0.84661 0.0
C9159 C 0.65526 0.49883 0.82907 0.0
C9160 C 0.66429 0.48035 0.85264 0.0
C9161 C 0.67319 0.47484 0.8477 0.0
C9162 C 0.6611 0.49036 0.83565 0.0
C9163 C 0.67564 0.4772 0.83663 0.0
C9164 C 0.66031 0.50349 0.81977 0.0
C9165 C 0.63926 0.50984 0.826 0.0
N9166 N 0.6697 0.48483 0.83103 0.0
N9167 N 0.64492 0.50216 0.83193 0.0
H9168 H 0.87192 0.07468 0.48702 0.0
H9169 H 0.9175 0.11989 0.50135 0.0
H9170 H 0.89727 0.08486 0.46425 0.0
H9171 H 0.9063 0.09517 0.52434 0.0
H9172 H 0.90438 0.11275 0.48765 0.0
H9173 H 0.87896 0.08807 0.50047 0.0
C9174 C 0.87875 0.07996 0.48474 0.0
C9175 C 0.88416 0.07857 0.47461 0.0
C9176 C 0.90462 0.10913 0.49582 0.0
C9177 C 0.89208 0.09389 0.48981 0.0
C9178 C 0.91203 0.1132 0.50362 0.0
C9179 C 0.91303 0.10798 0.51389 0.0
C9180 C 0.89805 0.09997 0.49845 0.0
C9181 C 0.90584 0.0993 0.51644 0.0
C9182 C 0.88277 0.08754 0.49241 0.0
C9183 C 0.893 0.08558 0.47206 0.0
N9184 N 0.89868 0.0955 0.50873 0.0
N9185 N 0.89676 0.0929 0.47966 0.0
H9186 H 0.4122 0.13296 0.22761 0.0
H9187 H 0.40747 0.18776 0.26332 0.0
H9188 H 0.43235 0.16189 0.22247 0.0
H9189 H 0.38021 0.16501 0.26053 0.0
H9190 H 0.4175 0.17713 0.24962 0.0
H9191 H 0.40096 0.14349 0.24075 0.0
C9192 C 0.41423 0.14151 0.22919 0.0
C9193 C 0.42326 0.14653 0.22396 0.0
C9194 C 0.40931 0.17446 0.25197 0.0
C9195 C 0.41055 0.15851 0.239 0.0
C9196 C 0.40359 0.18049 0.25986 0.0
C9197 C 0.39297 0.17727 0.2631 0.0
C9198 C 0.40448 0.16503 0.24734 0.0
C9199 C 0.38837 0.1678 0.25824 0.0
C9200 C 0.4078 0.14751 0.23666 0.0
C9201 C 0.42549 0.15765 0.22629 0.0
N9202 N 0.39419 0.16195 0.25063 0.0
N9203 N 0.41924 0.16322 0.2337 0.0
H9204 H 0.32095 0.62702 0.00367 0.0
H9205 H 0.36261 0.67545 0.98933 0.0
H9206 H 0.32565 0.65454 0.02574 0.0
H9207 H 0.33907 0.66358 0.96547 0.0
H9208 H 0.35418 0.66339 0.0033 0.0
H9209 H 0.33281 0.63622 0.99007 0.0
C9210 C 0.32465 0.63489 0.00572 0.0
C9211 C 0.32229 0.6401 0.01577 0.0
C9212 C 0.35104 0.66331 0.99494 0.0
C9213 C 0.33593 0.65043 0.00045 0.0
C9214 C 0.35585 0.6701 0.98698 0.0
C9215 C 0.35146 0.67049 0.9763 0.0
C9216 C 0.34201 0.6567 0.99204 0.0
C9217 C 0.34262 0.66352 0.97366 0.0
C9218 C 0.33135 0.64011 -0.00203 0.0
C9219 C 0.32721 0.65033 0.01802 0.0
N9220 N 0.33818 0.65687 0.9815 0.0
N9221 N 0.33384 0.65518 0.01041 0.0
H9222 H 0.822 0.61829 0.73632 0.0
H9223 H 0.86715 0.57291 0.75134 0.0
H9224 H 0.83159 0.59229 0.71399 0.0
H9225 H 0.84263 0.58443 0.77435 0.0
H9226 H 0.85958 0.58548 0.73735 0.0
H9227 H 0.83518 0.61116 0.74991 0.0
C9228 C 0.82708 0.61126 0.73417 0.0
C9229 C 0.82562 0.60574 0.72412 0.0
C9230 C 0.85608 0.58543 0.74556 0.0
C9231 C 0.84071 0.59775 0.73946 0.0
C9232 C 0.8604 0.57833 0.75353 0.0
C9233 C 0.85539 0.57759 0.76392 0.0
C9234 C 0.84689 0.59195 0.74815 0.0
C9235 C 0.84662 0.5847 0.76637 0.0
C9236 C 0.83454 0.60721 0.74193 0.0
C9237 C 0.83237 0.59667 0.72174 0.0
N9238 N 0.84259 0.59156 0.7585 0.0
N9239 N 0.83961 0.59289 0.72941 0.0
H9240 H 0.41299 0.11261 0.01255 0.0
H9241 H 0.41184 0.05983 0.97377 0.0
H9242 H 0.43393 0.08417 0.01709 0.0
H9243 H 0.38243 0.07923 0.9789 0.0
H9244 H 0.42129 0.07082 0.98763 0.0
H9245 H 0.40264 0.10234 -0.00158 0.0
C9246 C 0.41539 0.10423 0.0106 0.0
C9247 C 0.42435 0.09924 0.016 0.0
C9248 C 0.41277 0.07269 0.98572 0.0
C9249 C 0.41272 0.08762 -0.00015 0.0
C9250 C 0.40737 0.06646 0.97776 0.0
C9251 C 0.39631 0.06859 0.97519 0.0
C9252 C 0.40713 0.08123 0.99111 0.0
C9253 C 0.39096 0.07728 0.98068 0.0
C9254 C 0.40948 0.09839 0.00259 0.0
C9255 C 0.42709 0.08835 0.01319 0.0
N9256 N 0.39644 0.08334 0.98839 0.0
N9257 N 0.42136 0.08296 0.00526 0.0
H9258 H 0.86145 0.66227 0.47887 0.0
H9259 H 0.80413 0.65459 0.50873 0.0
H9260 H 0.83088 0.6757 0.46648 0.0
H9261 H 0.8293 0.62961 0.51179 0.0
H9262 H 0.81492 0.66352 0.49438 0.0
H9263 H 0.85084 0.65091 0.4919 0.0
C9264 C 0.85254 0.66276 0.4788 0.0
C9265 C 0.84706 0.67006 0.47165 0.0
C9266 C 0.81809 0.65606 0.49814 0.0
C9267 C 0.83499 0.65724 0.48654 0.0
C9268 C 0.81197 0.651 0.5064 0.0
C9269 C 0.81585 0.64137 0.51148 0.0
C9270 C 0.82829 0.65161 0.49503 0.0
C9271 C 0.82602 0.63703 0.50804 0.0
C9272 C 0.84651 0.65626 0.48621 0.0
C9273 C 0.8355 0.6703 0.47188 0.0
N9274 N 0.83198 0.64226 0.50007 0.0
N9275 N 0.82988 0.66411 0.47929 0.0
H9276 H 0.36213 0.57742 0.2625 0.0
H9277 H 0.30656 0.58488 0.22911 0.0
H9278 H 0.33146 0.56172 0.27154 0.0
H9279 H 0.33096 0.61081 0.22953 0.0
H9280 H 0.31682 0.57519 0.24335 0.0
H9281 H 0.35198 0.58896 0.24925 0.0
C9282 C 0.35329 0.57644 0.26176 0.0
C9283 C 0.34765 0.56852 0.26809 0.0
C9284 C 0.31993 0.58302 0.24037 0.0
C9285 C 0.33612 0.58154 0.25294 0.0
C9286 C 0.31411 0.58853 0.23218 0.0
C9287 C 0.31793 0.59866 0.22811 0.0
C9288 C 0.32977 0.58754 0.24443 0.0
C9289 C 0.32773 0.60303 0.23248 0.0
C9290 C 0.34752 0.58304 0.25424 0.0
C9291 C 0.33619 0.56765 0.26682 0.0
N9292 N 0.3334 0.59738 0.24037 0.0
N9293 N 0.33084 0.57399 0.25933 0.0
H9294 H 0.89847 0.15603 0.77476 0.0
H9295 H 0.90767 0.14933 0.71322 0.0
H9296 H 0.87387 0.16814 0.75212 0.0
H9297 H 0.91713 0.12305 0.73528 0.0
H9298 H 0.89445 0.15584 0.72698 0.0
H9299 H 0.90484 0.14312 0.76063 0.0
C9300 C 0.89426 0.15577 0.76688 0.0
C9301 C 0.88574 0.1632 0.76451 0.0
C9302 C 0.89922 0.14848 0.72869 0.0
C9303 C 0.89312 0.14874 0.7483 0.0
C9304 C 0.90679 0.14481 0.72087 0.0
C9305 C 0.9136 0.13576 0.72321 0.0
C9306 C 0.89872 0.14326 0.739 0.0
C9307 C 0.91208 0.13011 0.7332 0.0
C9308 C 0.89785 0.14839 0.75885 0.0
C9309 C 0.8805 0.16255 0.75422 0.0
N9310 N 0.905 0.13414 0.74088 0.0
N9311 N 0.88448 0.15564 0.74635 0.0
H9312 H 0.47974 0.08771 0.8774 0.0
H9313 H 0.5162 0.08343 0.93199 0.0
H9314 H 0.47849 0.06022 0.90001 0.0
H9315 H 0.51153 0.1141 0.91445 0.0
H9316 H 0.50318 0.07455 0.91957 0.0
H9317 H 0.49204 0.09738 0.89021 0.0
C9318 C 0.48201 0.08374 0.88507 0.0
C9319 C 0.47811 0.07314 0.88764 0.0
C9320 C 0.50497 0.08323 0.91844 0.0
C9321 C 0.49221 0.08407 0.90223 0.0
C9322 C 0.51245 0.08831 0.92551 0.0
C9323 C 0.51499 0.09954 0.92425 0.0
C9324 C 0.50003 0.08937 0.90996 0.0
C9325 C 0.50981 0.10543 0.91572 0.0
C9326 C 0.48901 0.08925 0.89237 0.0
C9327 C 0.4813 0.06837 0.89769 0.0
N9328 N 0.50261 0.10026 0.90886 0.0
N9329 N 0.48821 0.07384 0.90457 0.0
H9330 H 0.22242 0.1612 0.43197 0.0
H9331 H 0.26112 0.16295 0.37923 0.0
H9332 H 0.22872 0.13157 0.41321 0.0
H9333 H 0.26499 0.18435 0.40744 0.0
H9334 H 0.2473 0.15228 0.38959 0.0
H9335 H 0.23583 0.17098 0.42076 0.0
C9336 C 0.22657 0.15674 0.42543 0.0
C9337 C 0.22447 0.14551 0.42356 0.0
C9338 C 0.25125 0.15929 0.39346 0.0
C9339 C 0.23988 0.15675 0.41066 0.0
C9340 C 0.25908 0.16539 0.38758 0.0
C9341 C 0.26421 0.17456 0.39248 0.0
C9342 C 0.24841 0.16255 0.4042 0.0
C9343 C 0.2613 0.17734 0.40332 0.0
C9344 C 0.23427 0.16234 0.41907 0.0
C9345 C 0.23014 0.14021 0.41496 0.0
N9346 N 0.25354 0.17142 0.40876 0.0
N9347 N 0.2376 0.14589 0.40878 0.0
H9348 H 0.46442 0.16053 0.34169 0.0
H9349 H 0.52558 0.14904 0.33583 0.0
H9350 H 0.48616 0.16897 0.36855 0.0
H9351 H 0.50231 0.1249 0.32398 0.0
H9352 H 0.51154 0.15612 0.34846 0.0
H9353 H 0.47791 0.14695 0.3353 0.0
C9354 C 0.47196 0.15937 0.34634 0.0
C9355 C 0.47428 0.16594 0.35556 0.0
C9356 C 0.5096 0.14908 0.34331 0.0
C9357 C 0.48976 0.15066 0.34821 0.0
C9358 C 0.51758 0.14508 0.33609 0.0
C9359 C 0.51501 0.13648 0.32882 0.0
C9360 C 0.49891 0.14467 0.34294 0.0
C9361 C 0.50457 0.13157 0.32947 0.0
C9362 C 0.4796 0.15158 0.34275 0.0
C9363 C 0.4841 0.16407 0.36137 0.0
N9364 N 0.49676 0.13595 0.33619 0.0
N9365 N 0.49165 0.15679 0.35742 0.0
H9366 H 0.22013 0.08126 0.81475 0.0
H9367 H 0.26178 0.08724 0.86528 0.0
H9368 H 0.22821 0.11295 0.82893 0.0
H9369 H 0.26045 0.0589 0.84376 0.0
H9370 H 0.24827 0.09657 0.85342 0.0
H9371 H 0.23339 0.07258 0.82701 0.0
C9372 C 0.22464 0.08641 0.82049 0.0
C9373 C 0.22307 0.09788 0.82076 0.0
C9374 C 0.251 0.08833 0.8513 0.0
C9375 C 0.23835 0.08793 0.83484 0.0
C9376 C 0.25869 0.08301 0.85804 0.0
C9377 C 0.26223 0.07229 0.85549 0.0
C9378 C 0.24675 0.08281 0.84205 0.0
C9379 C 0.25797 0.06718 0.84603 0.0
C9380 C 0.23227 0.08144 0.82746 0.0
C9381 C 0.22918 0.10409 0.8284 0.0
N9382 N 0.25041 0.07246 0.8397 0.0
N9383 N 0.23657 0.09903 0.83516 0.0
H9384 H 0.47765 0.66136 0.86215 0.0
H9385 H 0.51832 0.6591 0.81128 0.0
H9386 H 0.47305 0.6802 0.83227 0.0
H9387 H 0.51173 0.6293 0.82969 0.0
H9388 H 0.50414 0.66854 0.8218 0.0
H9389 H 0.49218 0.65065 0.85278 0.0
C9390 C 0.47963 0.6632 0.85364 0.0
C9391 C 0.47414 0.67169 0.84798 0.0
C9392 C 0.50581 0.65994 0.82355 0.0
C9393 C 0.49076 0.65974 0.83744 0.0
C9394 C 0.51396 0.65454 0.8176 0.0
C9395 C 0.51617 0.64334 0.81953 0.0
C9396 C 0.49988 0.65419 0.83163 0.0
C9397 C 0.51022 0.63791 0.82788 0.0
C9398 C 0.48788 0.6571 0.84833 0.0
C9399 C 0.47701 0.67373 0.83696 0.0
N9400 N 0.50231 0.6434 0.83366 0.0
N9401 N 0.48519 0.66789 0.83211 0.0
H9402 H 0.26801 0.55688 0.33149 0.0
H9403 H 0.23031 0.61043 0.32559 0.0
H9404 H 0.26379 0.57992 0.35832 0.0
H9405 H 0.22679 0.58124 0.30547 0.0
H9406 H 0.24414 0.60072 0.33675 0.0
H9407 H 0.25465 0.56726 0.32072 0.0
C9408 C 0.26433 0.56417 0.33511 0.0
C9409 C 0.26701 0.5675 0.34586 0.0
C9410 C 0.24029 0.59647 0.3299 0.0
C9411 C 0.25165 0.57945 0.33351 0.0
C9412 C 0.23242 0.602 0.32352 0.0
C9413 C 0.22737 0.59663 0.31458 0.0
C9414 C 0.24321 0.58559 0.32719 0.0
C9415 C 0.23042 0.5857 0.3123 0.0
C9416 C 0.25664 0.57006 0.32896 0.0
C9417 C 0.26192 0.57702 0.35009 0.0
N9418 N 0.23817 0.58058 0.31851 0.0
N9419 N 0.25448 0.58269 0.34389 0.0
H9420 H 0.21564 0.64984 0.90759 0.0
H9421 H 0.27709 0.65945 0.89884 0.0
H9422 H 0.23864 0.62481 0.91804 0.0
H9423 H 0.25426 0.66884 0.87323 0.0
H9424 H 0.26339 0.64644 0.906 0.0
H9425 H 0.22946 0.6569 0.89468 0.0
C9426 C 0.22353 0.64571 0.90698 0.0
C9427 C 0.22608 0.63681 0.91391 0.0
C9428 C 0.2615 0.65116 0.89865 0.0
C9429 C 0.24193 0.64497 0.89945 0.0
C9430 C 0.26927 0.6586 0.89461 0.0
C9431 C 0.26672 0.66528 0.88552 0.0
C9432 C 0.25103 0.65068 0.89376 0.0
C9433 C 0.25651 0.66385 0.88028 0.0
C9434 C 0.23138 0.64969 0.8996 0.0
C9435 C 0.23639 0.6317 0.91282 0.0
N9436 N 0.2489 0.6569 0.88466 0.0
N9437 N 0.24408 0.63604 0.90593 0.0
H9438 H 0.48583 0.57299 0.37471 0.0
H9439 H 0.50216 0.61677 0.42098 0.0
H9440 H 0.4638 0.58232 0.40104 0.0
H9441 H 0.52464 0.59211 0.40867 0.0
H9442 H 0.48781 0.60946 0.40868 0.0
H9443 H 0.49977 0.58555 0.38226 0.0
C9444 C 0.48382 0.57789 0.38191 0.0
C9445 C 0.47374 0.57653 0.38738 0.0
C9446 C 0.49597 0.60584 0.40853 0.0
C9447 C 0.4895 0.59091 0.39587 0.0
C9448 C 0.50414 0.61 0.41549 0.0
C9449 C 0.51451 0.60491 0.41589 0.0
C9450 C 0.49833 0.59674 0.4018 0.0
C9451 C 0.51668 0.59615 0.40867 0.0
C9452 C 0.49178 0.585 0.38621 0.0
C9453 C 0.47155 0.58304 0.39668 0.0
N9454 N 0.50863 0.59229 0.40193 0.0
N9455 N 0.47942 0.58992 0.4007 0.0
H9456 H 0.51689 0.93335 0.08174 0.0
H9457 H 0.47793 0.88065 0.0872 0.0
H9458 H 0.51113 0.91681 0.11276 0.0
H9459 H 0.47786 0.90246 0.05904 0.0
H9460 H 0.49063 0.89322 0.0966 0.0
H9461 H 0.50331 0.92136 0.07306 0.0
C9462 C 0.51279 0.92718 0.08673 0.0
C9463 C 0.51518 0.92607 0.098 0.0
C9464 C 0.48777 0.89528 0.08839 0.0
C9465 C 0.49959 0.91231 0.08808 0.0
C9466 C 0.48053 0.88811 0.08303 0.0
C9467 C 0.47687 0.89051 0.07232 0.0
C9468 C 0.49144 0.90482 0.08295 0.0
C9469 C 0.48048 0.90029 0.0673 0.0
C9470 C 0.50499 0.92037 0.08177 0.0
C9471 C 0.50955 0.91796 0.10405 0.0
N9472 N 0.48763 0.90705 0.07263 0.0
N9473 N 0.50204 0.91134 0.099 0.0
H9474 H 0.72567 0.81031 0.59286 0.0
H9475 H 0.76067 0.86434 0.57853 0.0
H9476 H 0.72807 0.83799 0.61513 0.0
H9477 H 0.76403 0.83314 0.56166 0.0
H9478 H 0.74727 0.85579 0.59105 0.0
H9479 H 0.7381 0.81967 0.58019 0.0
C9480 C 0.72876 0.8184 0.59506 0.0
C9481 C 0.72587 0.82336 0.60509 0.0
C9482 C 0.75097 0.85085 0.5846 0.0
C9483 C 0.74017 0.83413 0.5906 0.0
C9484 C 0.7586 0.85571 0.57745 0.0
C9485 C 0.76351 0.84944 0.56905 0.0
C9486 C 0.74816 0.83969 0.58324 0.0
C9487 C 0.76051 0.8383 0.56804 0.0
C9488 C 0.73591 0.82372 0.58783 0.0
C9489 C 0.73013 0.83386 0.60749 0.0
N9490 N 0.75303 0.8338 0.57502 0.0
N9491 N 0.7371 0.83891 0.60029 0.0
H9492 H 0.51401 0.82902 0.62891 0.0
H9493 H 0.48351 0.83675 0.68582 0.0
H9494 H 0.52613 0.8156 0.65962 0.0
H9495 H 0.48058 0.86147 0.66036 0.0
H9496 H 0.49823 0.82798 0.6754 0.0
H9497 H 0.50103 0.84049 0.6394 0.0
C9498 C 0.51405 0.82857 0.63783 0.0
C9499 C 0.52108 0.82122 0.64338 0.0
C9500 C 0.49442 0.83536 0.6721 0.0
C9501 C 0.50622 0.83416 0.65532 0.0
C9502 C 0.48596 0.84032 0.67801 0.0
C9503 C 0.48078 0.84982 0.67391 0.0
C9504 C 0.49764 0.83977 0.6619 0.0
C9505 C 0.48438 0.85416 0.66379 0.0
C9506 C 0.50665 0.83512 0.64379 0.0
C9507 C 0.5208 0.82103 0.65495 0.0
N9508 N 0.49253 0.84901 0.65804 0.0
N9509 N 0.5134 0.82728 0.66051 0.0
H9510 H 0.72842 0.93703 0.15887 0.0
H9511 H 0.76343 0.88178 0.16248 0.0
H9512 H 0.73053 0.91474 0.13118 0.0
H9513 H 0.77035 0.91088 0.18183 0.0
H9514 H 0.74998 0.89248 0.15174 0.0
H9515 H 0.74225 0.92613 0.16847 0.0
C9516 C 0.73176 0.9298 0.15481 0.0
C9517 C 0.72831 0.92679 0.14419 0.0
C9518 C 0.75452 0.89649 0.1583 0.0
C9519 C 0.74418 0.91424 0.1552 0.0
C9520 C 0.76216 0.8904 0.16444 0.0
C9521 C 0.768 0.89543 0.17309 0.0
C9522 C 0.75261 0.9076 0.16098 0.0
C9523 C 0.76606 0.90664 0.17525 0.0
C9524 C 0.73971 0.92362 0.16028 0.0
C9525 C 0.733 0.91737 0.13934 0.0
N9526 N 0.75847 0.9123 0.1693 0.0
N9527 N 0.74067 0.91136 0.14492 0.0
H9528 H 0.47364 0.33363 0.18295 0.0
H9529 H 0.51175 0.33115 0.12992 0.0
H9530 H 0.47788 0.36244 0.16242 0.0
H9531 H 0.51748 0.31186 0.15932 0.0
H9532 H 0.49762 0.3417 0.13996 0.0
H9533 H 0.48775 0.32417 0.17231 0.0
C9534 C 0.47748 0.33796 0.17615 0.0
C9535 C 0.4746 0.34887 0.1736 0.0
C9536 C 0.50206 0.33519 0.14417 0.0
C9537 C 0.49079 0.33803 0.16137 0.0
C9538 C 0.51008 0.32917 0.13847 0.0
C9539 C 0.51578 0.32059 0.14379 0.0
C9540 C 0.49962 0.33243 0.15514 0.0
C9541 C 0.51332 0.31839 0.15487 0.0
C9542 C 0.48559 0.33256 0.17013 0.0
C9543 C 0.47992 0.35405 0.1647 0.0
N9544 N 0.50537 0.32419 0.16013 0.0
N9545 N 0.48776 0.34855 0.15884 0.0
H9546 H 0.71404 0.40876 0.6501 0.0
H9547 H 0.77569 0.3996 0.65959 0.0
H9548 H 0.73716 0.41896 0.62508 0.0
H9549 H 0.75264 0.3743 0.6693 0.0
H9550 H 0.76192 0.40697 0.64679 0.0
H9551 H 0.72787 0.39599 0.6574 0.0
C9552 C 0.72197 0.40816 0.64604 0.0
C9553 C 0.72454 0.41496 0.63706 0.0
C9554 C 0.75998 0.39965 0.65154 0.0
C9555 C 0.74038 0.40063 0.64547 0.0
C9556 C 0.76779 0.39549 0.65887 0.0
C9557 C 0.76522 0.38642 0.66555 0.0
C9558 C 0.74944 0.3949 0.65119 0.0
C9559 C 0.75491 0.38133 0.66428 0.0
C9560 C 0.72982 0.40085 0.65016 0.0
C9561 C 0.73489 0.41385 0.63204 0.0
N9562 N 0.74726 0.38582 0.65744 0.0
N9563 N 0.74257 0.40701 0.63649 0.0
H9564 H 0.71739 0.31217 0.07964 0.0
H9565 H 0.76079 0.36146 0.07982 0.0
H9566 H 0.72686 0.32829 0.10997 0.0
H9567 H 0.76066 0.3351 0.05588 0.0
H9568 H 0.74617 0.35182 0.09007 0.0
H9569 H 0.73082 0.32331 0.06975 0.0
C9570 C 0.72223 0.31812 0.08423 0.0
C9571 C 0.72106 0.31921 0.09569 0.0
C9572 C 0.74939 0.34819 0.08258 0.0
C9573 C 0.73648 0.33202 0.08434 0.0
C9574 C 0.75768 0.35368 0.07672 0.0
C9575 C 0.76197 0.34904 0.06702 0.0
C9576 C 0.74525 0.33816 0.07854 0.0
C9577 C 0.75767 0.33894 0.06336 0.0
C9578 C 0.72993 0.32444 0.07856 0.0
C9579 C 0.72756 0.32711 0.10115 0.0
N9580 N 0.74951 0.33388 0.06909 0.0
N9581 N 0.73503 0.33322 0.09541 0.0
H9582 H 0.46576 0.40068 0.58154 0.0
H9583 H 0.52766 0.41178 0.58868 0.0
H9584 H 0.489 0.37631 0.57012 0.0
H9585 H 0.50527 0.41975 0.61515 0.0
H9586 H 0.51386 0.39907 0.58114 0.0
H9587 H 0.48006 0.40843 0.59352 0.0
C9588 C 0.47384 0.39688 0.58169 0.0
C9589 C 0.47627 0.38791 0.57483 0.0
C9590 C 0.51209 0.40344 0.58872 0.0
C9591 C 0.49263 0.39683 0.58824 0.0
C9592 C 0.51991 0.41071 0.59299 0.0
C9593 C 0.51753 0.41687 0.60248 0.0
C9594 C 0.50174 0.40261 0.59381 0.0
C9595 C 0.50741 0.41516 0.6078 0.0
C9596 C 0.48195 0.40125 0.58855 0.0
C9597 C 0.48683 0.38323 0.57533 0.0
N9598 N 0.49975 0.40837 0.60324 0.0
N9599 N 0.49474 0.38792 0.58174 0.0
loop_
_geom_bond_atom_site_label_1
_geom_bond_atom_site_label_2
_geom_bond_distance
_geom_bond_site_symmetry_2
_ccdc_geom_bond_type
C0 O1 1.306 . S
C0 O3 1.160 . S
O1 C0 1.306 . S
O1 Cd2 2.228 . S
Cd2 O1 2.228 . S
Cd2 O6 2.273 . S
Cd2 O10 2.277 . S
O3 C0 1.160 . S
O3 Cd4 2.203 . S
Cd4 O3 2.203 . S
Cd4 O6 2.411 . S
Cd4 O7 2.333 . S
Cd4 O8 2.352 . S
Cd4 O12 2.277 . S
Cd4 O13 2.356 . S
C5 O10 1.209 . S
C5 O12 1.226 . S
O6 Cd2 2.273 . S
O6 Cd4 2.411 . S
O6 C9 1.320 . S
O7 Cd4 2.333 . S
O7 C9 1.214 . S
O8 Cd4 2.352 . S
O8 C11 1.258 . S
C9 O6 1.320 . S
C9 O7 1.214 . S
O10 Cd2 2.277 . S
O10 C5 1.209 . S
C11 O8 1.258 . S
C11 O13 1.282 . S
O12 Cd4 2.277 . S
O12 C5 1.226 . S
O13 Cd4 2.356 . S
O13 C11 1.282 . S
C14 O15 1.306 . S
C14 O17 1.160 . S
O15 C14 1.306 . S
O15 Cd16 2.228 . S
Cd16 O15 2.228 . S
Cd16 O20 2.273 . S
Cd16 O24 2.277 . S
O17 C14 1.160 . S
O17 Cd18 2.203 . S
Cd18 O17 2.203 . S
Cd18 O20 2.411 . S
Cd18 O21 2.333 . S
Cd18 O22 2.352 . S
Cd18 O26 2.277 . S
Cd18 O27 2.356 . S
C19 O24 1.209 . S
C19 O26 1.226 . S
O20 Cd16 2.273 . S
O20 Cd18 2.411 . S
O20 C23 1.320 . S
O21 Cd18 2.333 . S
O21 C23 1.214 . S
O22 Cd18 2.352 . S
O22 C25 1.258 . S
C23 O20 1.320 . S
C23 O21 1.214 . S
O24 Cd16 2.277 . S
O24 C19 1.209 . S
C25 O22 1.258 . S
C25 O27 1.282 . S
O26 Cd18 2.277 . S
O26 C19 1.226 . S
O27 Cd18 2.356 . S
O27 C25 1.282 . S
C28 O29 1.306 . S
C28 O31 1.160 . S
O29 C28 1.306 . S
O29 Cd30 2.228 . S
Cd30 O29 2.228 . S
Cd30 O34 2.273 . S
Cd30 O38 2.277 . S
O31 C28 1.160 . S
O31 Cd32 2.203 . S
Cd32 O31 2.203 . S
Cd32 O34 2.411 . S
Cd32 O35 2.333 . S
Cd32 O36 2.352 . S
Cd32 O40 2.277 . S
Cd32 O41 2.356 . S
C33 O38 1.209 . S
C33 O40 1.226 . S
O34 Cd30 2.273 . S
O34 Cd32 2.411 . S
O34 C37 1.320 . S
O35 Cd32 2.333 . S
O35 C37 1.214 . S
O36 Cd32 2.352 . S
O36 C39 1.258 . S
C37 O34 1.320 . S
C37 O35 1.214 . S
O38 Cd30 2.277 . S
O38 C33 1.209 . S
C39 O36 1.258 . S
C39 O41 1.282 . S
O40 Cd32 2.277 . S
O40 C33 1.226 . S
O41 Cd32 2.356 . S
O41 C39 1.282 . S
C42 O43 1.306 . S
C42 O45 1.160 . S
O43 C42 1.306 . S
O43 Cd44 2.228 . S
Cd44 O43 2.228 . S
Cd44 O48 2.273 . S
Cd44 O52 2.277 . S
O45 C42 1.160 . S
O45 Cd46 2.203 . S
Cd46 O45 2.203 . S
Cd46 O48 2.411 . S
Cd46 O49 2.333 . S
Cd46 O50 2.352 . S
Cd46 O54 2.277 . S
Cd46 O55 2.356 . S
C47 O52 1.209 . S
C47 O54 1.226 . S
O48 Cd44 2.273 . S
O48 Cd46 2.411 . S
O48 C51 1.320 . S
O49 Cd46 2.333 . S
O49 C51 1.214 . S
O50 Cd46 2.352 . S
O50 C53 1.258 . S
C51 O48 1.320 . S
C51 O49 1.214 . S
O52 Cd44 2.277 . S
O52 C47 1.209 . S
C53 O50 1.258 . S
C53 O55 1.282 . S
O54 Cd46 2.277 . S
O54 C47 1.226 . S
O55 Cd46 2.356 . S
O55 C53 1.282 . S
C56 O57 1.306 . S
C56 O59 1.160 . S
O57 C56 1.306 . S
O57 Cd58 2.228 . S
Cd58 O57 2.228 . S
Cd58 O62 2.273 . S
Cd58 O66 2.277 . S
O59 C56 1.160 . S
O59 Cd60 2.203 . S
Cd60 O59 2.203 . S
Cd60 O62 2.411 . S
Cd60 O63 2.333 . S
Cd60 O64 2.352 . S
Cd60 O68 2.277 . S
Cd60 O69 2.356 . S
C61 O66 1.209 . S
C61 O68 1.226 . S
O62 Cd58 2.273 . S
O62 Cd60 2.411 . S
O62 C65 1.320 . S
O63 Cd60 2.333 . S
O63 C65 1.214 . S
O64 Cd60 2.352 . S
O64 C67 1.258 . S
C65 O62 1.320 . S
C65 O63 1.214 . S
O66 Cd58 2.277 . S
O66 C61 1.209 . S
C67 O64 1.258 . S
C67 O69 1.282 . S
O68 Cd60 2.277 . S
O68 C61 1.226 . S
O69 Cd60 2.356 . S
O69 C67 1.282 . S
C70 O71 1.306 . S
C70 O73 1.160 . S
O71 C70 1.306 . S
O71 Cd72 2.228 . S
Cd72 O71 2.228 . S
Cd72 O76 2.273 . S
Cd72 O80 2.277 . S
O73 C70 1.160 . S
O73 Cd74 2.203 . S
Cd74 O73 2.203 . S
Cd74 O76 2.411 . S
Cd74 O77 2.333 . S
Cd74 O78 2.352 . S
Cd74 O82 2.277 . S
Cd74 O83 2.356 . S
C75 O80 1.209 . S
C75 O82 1.226 . S
O76 Cd72 2.273 . S
O76 Cd74 2.411 . S
O76 C79 1.320 . S
O77 Cd74 2.333 . S
O77 C79 1.214 . S
O78 Cd74 2.352 . S
O78 C81 1.258 . S
C79 O76 1.320 . S
C79 O77 1.214 . S
O80 Cd72 2.277 . S
O80 C75 1.209 . S
C81 O78 1.258 . S
C81 O83 1.282 . S
O82 Cd74 2.277 . S
O82 C75 1.226 . S
O83 Cd74 2.356 . S
O83 C81 1.282 . S
C84 O85 1.306 . S
C84 O87 1.160 . S
O85 C84 1.306 . S
O85 Cd86 2.228 . S
Cd86 O85 2.228 . S
Cd86 O90 2.273 . S
Cd86 O94 2.277 . S
O87 C84 1.160 . S
O87 Cd88 2.203 . S
Cd88 O87 2.203 . S
Cd88 O90 2.411 . S
Cd88 O91 2.333 . S
Cd88 O92 2.352 . S
Cd88 O96 2.277 . S
Cd88 O97 2.356 . S
C89 O94 1.209 . S
C89 O96 1.226 . S
O90 Cd86 2.273 . S
O90 Cd88 2.411 . S
O90 C93 1.320 . S
O91 Cd88 2.333 . S
O91 C93 1.214 . S
O92 Cd88 2.352 . S
O92 C95 1.258 . S
C93 O90 1.320 . S
C93 O91 1.214 . S
O94 Cd86 2.277 . S
O94 C89 1.209 . S
C95 O92 1.258 . S
C95 O97 1.282 . S
O96 Cd88 2.277 . S
O96 C89 1.226 . S
O97 Cd88 2.356 . S
O97 C95 1.282 . S
C98 O99 1.306 . S
C98 O101 1.160 . S
O99 C98 1.306 . S
O99 Cd100 2.228 . S
Cd100 O99 2.228 . S
Cd100 O104 2.273 . S
Cd100 O108 2.277 . S
O101 C98 1.160 . S
O101 Cd102 2.203 . S
Cd102 O101 2.203 . S
Cd102 O104 2.411 . S
Cd102 O105 2.333 . S
Cd102 O106 2.352 . S
Cd102 O110 2.277 . S
Cd102 O111 2.356 . S
C103 O108 1.209 . S
C103 O110 1.226 . S
O104 Cd100 2.273 . S
O104 Cd102 2.411 . S
O104 C107 1.320 . S
O105 Cd102 2.333 . S
O105 C107 1.214 . S
O106 Cd102 2.352 . S
O106 C109 1.258 . S
C107 O104 1.320 . S
C107 O105 1.214 . S
O108 Cd100 2.277 . S
O108 C103 1.209 . S
C109 O106 1.258 . S
C109 O111 1.282 . S
O110 Cd102 2.277 . S
O110 C103 1.226 . S
O111 Cd102 2.356 . S
O111 C109 1.282 . S
C112 O113 1.306 . S
C112 O115 1.160 . S
O113 C112 1.306 . S
O113 Cd114 2.228 . S
Cd114 O113 2.228 . S
Cd114 O118 2.273 . S
Cd114 O122 2.277 . S
O115 C112 1.160 . S
O115 Cd116 2.203 . S
Cd116 O115 2.203 . S
Cd116 O118 2.411 . S
Cd116 O119 2.333 . S
Cd116 O120 2.352 . S
Cd116 O124 2.277 . S
Cd116 O125 2.356 . S
C117 O122 1.209 . S
C117 O124 1.226 . S
O118 Cd114 2.273 . S
O118 Cd116 2.411 . S
O118 C121 1.320 . S
O119 Cd116 2.333 . S
O119 C121 1.214 . S
O120 Cd116 2.352 . S
O120 C123 1.258 . S
C121 O118 1.320 . S
C121 O119 1.214 . S
O122 Cd114 2.277 . S
O122 C117 1.209 . S
C123 O120 1.258 . S
C123 O125 1.282 . S
O124 Cd116 2.277 . S
O124 C117 1.226 . S
O125 Cd116 2.356 . S
O125 C123 1.282 . S
C126 O127 1.306 . S
C126 O129 1.160 . S
O127 C126 1.306 . S
O127 Cd128 2.228 . S
Cd128 O127 2.228 . S
Cd128 O132 2.273 . S
Cd128 O136 2.277 . S
O129 C126 1.160 . S
O129 Cd130 2.203 . S
Cd130 O129 2.203 . S
Cd130 O132 2.411 . S
Cd130 O133 2.333 . S
Cd130 O134 2.352 . S
Cd130 O138 2.277 . S
Cd130 O139 2.356 . S
C131 O136 1.209 . S
C131 O138 1.226 . S
O132 Cd128 2.273 . S
O132 Cd130 2.411 . S
O132 C135 1.320 . S
O133 Cd130 2.333 . S
O133 C135 1.214 . S
O134 Cd130 2.352 . S
O134 C137 1.258 . S
C135 O132 1.320 . S
C135 O133 1.214 . S
O136 Cd128 2.277 . S
O136 C131 1.209 . S
C137 O134 1.258 . S
C137 O139 1.282 . S
O138 Cd130 2.277 . S
O138 C131 1.226 . S
O139 Cd130 2.356 . S
O139 C137 1.282 . S
C140 O141 1.306 . S
C140 O143 1.160 . S
O141 C140 1.306 . S
O141 Cd142 2.228 . S
Cd142 O141 2.228 . S
Cd142 O146 2.273 . S
Cd142 O150 2.277 . S
O143 C140 1.160 . S
O143 Cd144 2.203 . S
Cd144 O143 2.203 . S
Cd144 O146 2.411 . S
Cd144 O147 2.333 . S
Cd144 O148 2.352 . S
Cd144 O152 2.277 . S
Cd144 O153 2.356 . S
C145 O150 1.209 . S
C145 O152 1.226 . S
O146 Cd142 2.273 . S
O146 Cd144 2.411 . S
O146 C149 1.320 . S
O147 Cd144 2.333 . S
O147 C149 1.214 . S
O148 Cd144 2.352 . S
O148 C151 1.258 . S
C149 O146 1.320 . S
C149 O147 1.214 . S
O150 Cd142 2.277 . S
O150 C145 1.209 . S
C151 O148 1.258 . S
C151 O153 1.282 . S
O152 Cd144 2.277 . S
O152 C145 1.226 . S
O153 Cd144 2.356 . S
O153 C151 1.282 . S
C154 O155 1.306 . S
C154 O157 1.160 . S
O155 C154 1.306 . S
O155 Cd156 2.228 . S
Cd156 O155 2.228 . S
Cd156 O160 2.273 . S
Cd156 O164 2.277 . S
O157 C154 1.160 . S
O157 Cd158 2.203 . S
Cd158 O157 2.203 . S
Cd158 O160 2.411 . S
Cd158 O161 2.333 . S
Cd158 O162 2.352 . S
Cd158 O166 2.277 . S
Cd158 O167 2.356 . S
C159 O164 1.209 . S
C159 O166 1.226 . S
O160 Cd156 2.273 . S
O160 Cd158 2.411 . S
O160 C163 1.320 . S
O161 Cd158 2.333 . S
O161 C163 1.214 . S
O162 Cd158 2.352 . S
O162 C165 1.258 . S
C163 O160 1.320 . S
C163 O161 1.214 . S
O164 Cd156 2.277 . S
O164 C159 1.209 . S
C165 O162 1.258 . S
C165 O167 1.282 . S
O166 Cd158 2.277 . S
O166 C159 1.226 . S
O167 Cd158 2.356 . S
O167 C165 1.282 . S
C168 O169 1.306 . S
C168 O171 1.160 . S
O169 C168 1.306 . S
O169 Cd170 2.228 . S
Cd170 O169 2.228 . S
Cd170 O174 2.273 . S
Cd170 O178 2.277 . S
O171 C168 1.160 . S
O171 Cd172 2.203 . S
Cd172 O171 2.203 . S
Cd172 O174 2.411 . S
Cd172 O175 2.333 . S
Cd172 O176 2.352 . S
Cd172 O180 2.277 . S
Cd172 O181 2.356 . S
C173 O178 1.209 . S
C173 O180 1.226 . S
O174 Cd170 2.273 . S
O174 Cd172 2.411 . S
O174 C177 1.320 . S
O175 Cd172 2.333 . S
O175 C177 1.214 . S
O176 Cd172 2.352 . S
O176 C179 1.258 . S
C177 O174 1.320 . S
C177 O175 1.214 . S
O178 Cd170 2.277 . S
O178 C173 1.209 . S
C179 O176 1.258 . S
C179 O181 1.282 . S
O180 Cd172 2.277 . S
O180 C173 1.226 . S
O181 Cd172 2.356 . S
O181 C179 1.282 . S
C182 O183 1.306 . S
C182 O185 1.160 . S
O183 C182 1.306 . S
O183 Cd184 2.228 . S
Cd184 O183 2.228 . S
Cd184 O188 2.273 . S
Cd184 O192 2.277 . S
O185 C182 1.160 . S
O185 Cd186 2.203 . S
Cd186 O185 2.203 . S
Cd186 O188 2.411 . S
Cd186 O189 2.333 . S
Cd186 O190 2.352 . S
Cd186 O194 2.277 . S
Cd186 O195 2.356 . S
C187 O192 1.209 . S
C187 O194 1.226 . S
O188 Cd184 2.273 . S
O188 Cd186 2.411 . S
O188 C191 1.320 . S
O189 Cd186 2.333 . S
O189 C191 1.214 . S
O190 Cd186 2.352 . S
O190 C193 1.258 . S
C191 O188 1.320 . S
C191 O189 1.214 . S
O192 Cd184 2.277 . S
O192 C187 1.209 . S
C193 O190 1.258 . S
C193 O195 1.282 . S
O194 Cd186 2.277 . S
O194 C187 1.226 . S
O195 Cd186 2.356 . S
O195 C193 1.282 . S
C196 O197 1.306 . S
C196 O199 1.160 . S
O197 C196 1.306 . S
O197 Cd198 2.228 . S
Cd198 O197 2.228 . S
Cd198 O202 2.273 . S
Cd198 O206 2.277 . S
O199 C196 1.160 . S
O199 Cd200 2.203 . S
Cd200 O199 2.203 . S
Cd200 O202 2.411 . S
Cd200 O203 2.333 . S
Cd200 O204 2.352 . S
Cd200 O208 2.277 . S
Cd200 O209 2.356 . S
C201 O206 1.209 . S
C201 O208 1.226 . S
O202 Cd198 2.273 . S
O202 Cd200 2.411 . S
O202 C205 1.320 . S
O203 Cd200 2.333 . S
O203 C205 1.214 . S
O204 Cd200 2.352 . S
O204 C207 1.258 . S
C205 O202 1.320 . S
C205 O203 1.214 . S
O206 Cd198 2.277 . S
O206 C201 1.209 . S
C207 O204 1.258 . S
C207 O209 1.282 . S
O208 Cd200 2.277 . S
O208 C201 1.226 . S
O209 Cd200 2.356 . S
O209 C207 1.282 . S
C210 O211 1.306 . S
C210 O213 1.160 . S
O211 C210 1.306 . S
O211 Cd212 2.228 . S
Cd212 O211 2.228 . S
Cd212 O216 2.273 . S
Cd212 O220 2.277 . S
O213 C210 1.160 . S
O213 Cd214 2.203 . S
Cd214 O213 2.203 . S
Cd214 O216 2.411 . S
Cd214 O217 2.333 . S
Cd214 O218 2.352 . S
Cd214 O222 2.277 . S
Cd214 O223 2.356 . S
C215 O220 1.209 . S
C215 O222 1.226 . S
O216 Cd212 2.273 . S
O216 Cd214 2.411 . S
O216 C219 1.320 . S
O217 Cd214 2.333 . S
O217 C219 1.214 . S
O218 Cd214 2.352 . S
O218 C221 1.258 . S
C219 O216 1.320 . S
C219 O217 1.214 . S
O220 Cd212 2.277 . S
O220 C215 1.209 . S
C221 O218 1.258 . S
C221 O223 1.282 . S
O222 Cd214 2.277 . S
O222 C215 1.226 . S
O223 Cd214 2.356 . S
O223 C221 1.282 . S
C224 O225 1.306 . S
C224 O227 1.160 . S
O225 C224 1.306 . S
O225 Cd226 2.228 . S
Cd226 O225 2.228 . S
Cd226 O230 2.273 . S
Cd226 O234 2.277 . S
O227 C224 1.160 . S
O227 Cd228 2.203 . S
Cd228 O227 2.203 . S
Cd228 O230 2.411 . S
Cd228 O231 2.333 . S
Cd228 O232 2.352 . S
Cd228 O236 2.277 . S
Cd228 O237 2.356 . S
C229 O234 1.209 . S
C229 O236 1.226 . S
O230 Cd226 2.273 . S
O230 Cd228 2.411 . S
O230 C233 1.320 . S
O231 Cd228 2.333 . S
O231 C233 1.214 . S
O232 Cd228 2.352 . S
O232 C235 1.258 . S
C233 O230 1.320 . S
C233 O231 1.214 . S
O234 Cd226 2.277 . S
O234 C229 1.209 . S
C235 O232 1.258 . S
C235 O237 1.282 . S
O236 Cd228 2.277 . S
O236 C229 1.226 . S
O237 Cd228 2.356 . S
O237 C235 1.282 . S
C238 O239 1.306 . S
C238 O241 1.160 . S
O239 C238 1.306 . S
O239 Cd240 2.228 . S
Cd240 O239 2.228 . S
Cd240 O244 2.273 . S
Cd240 O248 2.277 . S
O241 C238 1.160 . S
O241 Cd242 2.203 . S
Cd242 O241 2.203 . S
Cd242 O244 2.411 . S
Cd242 O245 2.333 . S
Cd242 O246 2.352 . S
Cd242 O250 2.277 . S
Cd242 O251 2.356 . S
C243 O248 1.209 . S
C243 O250 1.226 . S
O244 Cd240 2.273 . S
O244 Cd242 2.411 . S
O244 C247 1.320 . S
O245 Cd242 2.333 . S
O245 C247 1.214 . S
O246 Cd242 2.352 . S
O246 C249 1.258 . S
C247 O244 1.320 . S
C247 O245 1.214 . S
O248 Cd240 2.277 . S
O248 C243 1.209 . S
C249 O246 1.258 . S
C249 O251 1.282 . S
O250 Cd242 2.277 . S
O250 C243 1.226 . S
O251 Cd242 2.356 . S
O251 C249 1.282 . S
C252 O253 1.306 . S
C252 O255 1.160 . S
O253 C252 1.306 . S
O253 Cd254 2.228 . S
Cd254 O253 2.228 . S
Cd254 O258 2.273 . S
Cd254 O262 2.277 . S
O255 C252 1.160 . S
O255 Cd256 2.203 . S
Cd256 O255 2.203 . S
Cd256 O258 2.411 . S
Cd256 O259 2.333 . S
Cd256 O260 2.352 . S
Cd256 O264 2.277 . S
Cd256 O265 2.356 . S
C257 O262 1.209 . S
C257 O264 1.226 . S
O258 Cd254 2.273 . S
O258 Cd256 2.411 . S
O258 C261 1.320 . S
O259 Cd256 2.333 . S
O259 C261 1.214 . S
O260 Cd256 2.352 . S
O260 C263 1.258 . S
C261 O258 1.320 . S
C261 O259 1.214 . S
O262 Cd254 2.277 . S
O262 C257 1.209 . S
C263 O260 1.258 . S
C263 O265 1.282 . S
O264 Cd256 2.277 . S
O264 C257 1.226 . S
O265 Cd256 2.356 . S
O265 C263 1.282 . S
C266 O267 1.306 . S
C266 O269 1.160 . S
O267 C266 1.306 . S
O267 Cd268 2.228 . S
Cd268 O267 2.228 . S
Cd268 O272 2.273 . S
Cd268 O276 2.277 . S
O269 C266 1.160 . S
O269 Cd270 2.203 . S
Cd270 O269 2.203 . S
Cd270 O272 2.411 . S
Cd270 O273 2.333 . S
Cd270 O274 2.352 . S
Cd270 O278 2.277 . S
Cd270 O279 2.356 . S
C271 O276 1.209 . S
C271 O278 1.226 . S
O272 Cd268 2.273 . S
O272 Cd270 2.411 . S
O272 C275 1.320 . S
O273 Cd270 2.333 . S
O273 C275 1.214 . S
O274 Cd270 2.352 . S
O274 C277 1.258 . S
C275 O272 1.320 . S
C275 O273 1.214 . S
O276 Cd268 2.277 . S
O276 C271 1.209 . S
C277 O274 1.258 . S
C277 O279 1.282 . S
O278 Cd270 2.277 . S
O278 C271 1.226 . S
O279 Cd270 2.356 . S
O279 C277 1.282 . S
C280 O281 1.306 . S
C280 O283 1.160 . S
O281 C280 1.306 . S
O281 Cd282 2.228 . S
Cd282 O281 2.228 . S
Cd282 O286 2.273 . S
Cd282 O290 2.277 . S
O283 C280 1.160 . S
O283 Cd284 2.203 . S
Cd284 O283 2.203 . S
Cd284 O286 2.411 . S
Cd284 O287 2.333 . S
Cd284 O288 2.352 . S
Cd284 O292 2.277 . S
Cd284 O293 2.356 . S
C285 O290 1.209 . S
C285 O292 1.226 . S
O286 Cd282 2.273 . S
O286 Cd284 2.411 . S
O286 C289 1.320 . S
O287 Cd284 2.333 . S
O287 C289 1.214 . S
O288 Cd284 2.352 . S
O288 C291 1.258 . S
C289 O286 1.320 . S
C289 O287 1.214 . S
O290 Cd282 2.277 . S
O290 C285 1.209 . S
C291 O288 1.258 . S
C291 O293 1.282 . S
O292 Cd284 2.277 . S
O292 C285 1.226 . S
O293 Cd284 2.356 . S
O293 C291 1.282 . S
C294 O295 1.306 . S
C294 O297 1.160 . S
O295 C294 1.306 . S
O295 Cd296 2.228 . S
Cd296 O295 2.228 . S
Cd296 O300 2.273 . S
Cd296 O304 2.277 . S
O297 C294 1.160 . S
O297 Cd298 2.203 . S
Cd298 O297 2.203 . S
Cd298 O300 2.411 . S
Cd298 O301 2.333 . S
Cd298 O302 2.352 . S
Cd298 O306 2.277 . S
Cd298 O307 2.356 . S
C299 O304 1.209 . S
C299 O306 1.226 . S
O300 Cd296 2.273 . S
O300 Cd298 2.411 . S
O300 C303 1.320 . S
O301 Cd298 2.333 . S
O301 C303 1.214 . S
O302 Cd298 2.352 . S
O302 C305 1.258 . S
C303 O300 1.320 . S
C303 O301 1.214 . S
O304 Cd296 2.277 . S
O304 C299 1.209 . S
C305 O302 1.258 . S
C305 O307 1.282 . S
O306 Cd298 2.277 . S
O306 C299 1.226 . S
O307 Cd298 2.356 . S
O307 C305 1.282 . S
C308 O309 1.306 . S
C308 O311 1.160 . S
O309 C308 1.306 . S
O309 Cd310 2.228 . S
Cd310 O309 2.228 . S
Cd310 O314 2.273 . S
Cd310 O318 2.277 . S
O311 C308 1.160 . S
O311 Cd312 2.203 . S
Cd312 O311 2.203 . S
Cd312 O314 2.411 . S
Cd312 O315 2.333 . S
Cd312 O316 2.352 . S
Cd312 O320 2.277 . S
Cd312 O321 2.356 . S
C313 O318 1.209 . S
C313 O320 1.226 . S
O314 Cd310 2.273 . S
O314 Cd312 2.411 . S
O314 C317 1.320 . S
O315 Cd312 2.333 . S
O315 C317 1.214 . S
O316 Cd312 2.352 . S
O316 C319 1.258 . S
C317 O314 1.320 . S
C317 O315 1.214 . S
O318 Cd310 2.277 . S
O318 C313 1.209 . S
C319 O316 1.258 . S
C319 O321 1.282 . S
O320 Cd312 2.277 . S
O320 C313 1.226 . S
O321 Cd312 2.356 . S
O321 C319 1.282 . S
C322 O323 1.306 . S
C322 O325 1.160 . S
O323 C322 1.306 . S
O323 Cd324 2.228 . S
Cd324 O323 2.228 . S
Cd324 O328 2.273 . S
Cd324 O332 2.277 . S
O325 C322 1.160 . S
O325 Cd326 2.203 . S
Cd326 O325 2.203 . S
Cd326 O328 2.411 . S
Cd326 O329 2.333 . S
Cd326 O330 2.352 . S
Cd326 O334 2.277 . S
Cd326 O335 2.356 . S
C327 O332 1.209 . S
C327 O334 1.226 . S
O328 Cd324 2.273 . S
O328 Cd326 2.411 . S
O328 C331 1.320 . S
O329 Cd326 2.333 . S
O329 C331 1.214 . S
O330 Cd326 2.352 . S
O330 C333 1.258 . S
C331 O328 1.320 . S
C331 O329 1.214 . S
O332 Cd324 2.277 . S
O332 C327 1.209 . S
C333 O330 1.258 . S
C333 O335 1.282 . S
O334 Cd326 2.277 . S
O334 C327 1.226 . S
O335 Cd326 2.356 . S
O335 C333 1.282 . S
C336 O337 1.306 . S
C336 O339 1.160 . S
O337 C336 1.306 . S
O337 Cd338 2.228 . S
Cd338 O337 2.228 . S
Cd338 O342 2.273 . S
Cd338 O346 2.277 . S
O339 C336 1.160 . S
O339 Cd340 2.203 . S
Cd340 O339 2.203 . S
Cd340 O342 2.411 . S
Cd340 O343 2.333 . S
Cd340 O344 2.352 . S
Cd340 O348 2.277 . S
Cd340 O349 2.356 . S
C341 O346 1.209 . S
C341 O348 1.226 . S
O342 Cd338 2.273 . S
O342 Cd340 2.411 . S
O342 C345 1.320 . S
O343 Cd340 2.333 . S
O343 C345 1.214 . S
O344 Cd340 2.352 . S
O344 C347 1.258 . S
C345 O342 1.320 . S
C345 O343 1.214 . S
O346 Cd338 2.277 . S
O346 C341 1.209 . S
C347 O344 1.258 . S
C347 O349 1.282 . S
O348 Cd340 2.277 . S
O348 C341 1.226 . S
O349 Cd340 2.356 . S
O349 C347 1.282 . S
C350 O351 1.306 . S
C350 O353 1.160 . S
O351 C350 1.306 . S
O351 Cd352 2.228 . S
Cd352 O351 2.228 . S
Cd352 O356 2.273 . S
Cd352 O360 2.277 . S
O353 C350 1.160 . S
O353 Cd354 2.203 . S
Cd354 O353 2.203 . S
Cd354 O356 2.411 . S
Cd354 O357 2.333 . S
Cd354 O358 2.352 . S
Cd354 O362 2.277 . S
Cd354 O363 2.356 . S
C355 O360 1.209 . S
C355 O362 1.226 . S
O356 Cd352 2.273 . S
O356 Cd354 2.411 . S
O356 C359 1.320 . S
O357 Cd354 2.333 . S
O357 C359 1.214 . S
O358 Cd354 2.352 . S
O358 C361 1.258 . S
C359 O356 1.320 . S
C359 O357 1.214 . S
O360 Cd352 2.277 . S
O360 C355 1.209 . S
C361 O358 1.258 . S
C361 O363 1.282 . S
O362 Cd354 2.277 . S
O362 C355 1.226 . S
O363 Cd354 2.356 . S
O363 C361 1.282 . S
C364 O365 1.306 . S
C364 O367 1.160 . S
O365 C364 1.306 . S
O365 Cd366 2.228 . S
Cd366 O365 2.228 . S
Cd366 O370 2.273 . S
Cd366 O374 2.277 . S
O367 C364 1.160 . S
O367 Cd368 2.203 . S
Cd368 O367 2.203 . S
Cd368 O370 2.411 . S
Cd368 O371 2.333 . S
Cd368 O372 2.352 . S
Cd368 O376 2.277 . S
Cd368 O377 2.356 . S
C369 O374 1.209 . S
C369 O376 1.226 . S
O370 Cd366 2.273 . S
O370 Cd368 2.411 . S
O370 C373 1.320 . S
O371 Cd368 2.333 . S
O371 C373 1.214 . S
O372 Cd368 2.352 . S
O372 C375 1.258 . S
C373 O370 1.320 . S
C373 O371 1.214 . S
O374 Cd366 2.277 . S
O374 C369 1.209 . S
C375 O372 1.258 . S
C375 O377 1.282 . S
O376 Cd368 2.277 . S
O376 C369 1.226 . S
O377 Cd368 2.356 . S
O377 C375 1.282 . S
C378 O379 1.306 . S
C378 O381 1.160 . S
O379 C378 1.306 . S
O379 Cd380 2.228 . S
Cd380 O379 2.228 . S
Cd380 O384 2.273 . S
Cd380 O388 2.277 . S
O381 C378 1.160 . S
O381 Cd382 2.203 . S
Cd382 O381 2.203 . S
Cd382 O384 2.411 . S
Cd382 O385 2.333 . S
Cd382 O386 2.352 . S
Cd382 O390 2.277 . S
Cd382 O391 2.356 . S
C383 O388 1.209 . S
C383 O390 1.226 . S
O384 Cd380 2.273 . S
O384 Cd382 2.411 . S
O384 C387 1.320 . S
O385 Cd382 2.333 . S
O385 C387 1.214 . S
O386 Cd382 2.352 . S
O386 C389 1.258 . S
C387 O384 1.320 . S
C387 O385 1.214 . S
O388 Cd380 2.277 . S
O388 C383 1.209 . S
C389 O386 1.258 . S
C389 O391 1.282 . S
O390 Cd382 2.277 . S
O390 C383 1.226 . S
O391 Cd382 2.356 . S
O391 C389 1.282 . S
C392 O393 1.306 . S
C392 O395 1.160 . S
O393 C392 1.306 . S
O393 Cd394 2.228 . S
Cd394 O393 2.228 . S
Cd394 O398 2.273 . S
Cd394 O402 2.277 . S
O395 C392 1.160 . S
O395 Cd396 2.203 . S
Cd396 O395 2.203 . S
Cd396 O398 2.411 . S
Cd396 O399 2.333 . S
Cd396 O400 2.352 . S
Cd396 O404 2.277 . S
Cd396 O405 2.356 . S
C397 O402 1.209 . S
C397 O404 1.226 . S
O398 Cd394 2.273 . S
O398 Cd396 2.411 . S
O398 C401 1.320 . S
O399 Cd396 2.333 . S
O399 C401 1.214 . S
O400 Cd396 2.352 . S
O400 C403 1.258 . S
C401 O398 1.320 . S
C401 O399 1.214 . S
O402 Cd394 2.277 . S
O402 C397 1.209 . S
C403 O400 1.258 . S
C403 O405 1.282 . S
O404 Cd396 2.277 . S
O404 C397 1.226 . S
O405 Cd396 2.356 . S
O405 C403 1.282 . S
C406 O407 1.306 . S
C406 O409 1.160 . S
O407 C406 1.306 . S
O407 Cd408 2.228 . S
Cd408 O407 2.228 . S
Cd408 O412 2.273 . S
Cd408 O416 2.277 . S
O409 C406 1.160 . S
O409 Cd410 2.203 . S
Cd410 O409 2.203 . S
Cd410 O412 2.411 . S
Cd410 O413 2.333 . S
Cd410 O414 2.352 . S
Cd410 O418 2.277 . S
Cd410 O419 2.356 . S
C411 O416 1.209 . S
C411 O418 1.226 . S
O412 Cd408 2.273 . S
O412 Cd410 2.411 . S
O412 C415 1.320 . S
O413 Cd410 2.333 . S
O413 C415 1.214 . S
O414 Cd410 2.352 . S
O414 C417 1.258 . S
C415 O412 1.320 . S
C415 O413 1.214 . S
O416 Cd408 2.277 . S
O416 C411 1.209 . S
C417 O414 1.258 . S
C417 O419 1.282 . S
O418 Cd410 2.277 . S
O418 C411 1.226 . S
O419 Cd410 2.356 . S
O419 C417 1.282 . S
C420 O421 1.306 . S
C420 O423 1.160 . S
O421 C420 1.306 . S
O421 Cd422 2.228 . S
Cd422 O421 2.228 . S
Cd422 O426 2.273 . S
Cd422 O430 2.277 . S
O423 C420 1.160 . S
O423 Cd424 2.203 . S
Cd424 O423 2.203 . S
Cd424 O426 2.411 . S
Cd424 O427 2.333 . S
Cd424 O428 2.352 . S
Cd424 O432 2.277 . S
Cd424 O433 2.356 . S
C425 O430 1.209 . S
C425 O432 1.226 . S
O426 Cd422 2.273 . S
O426 Cd424 2.411 . S
O426 C429 1.320 . S
O427 Cd424 2.333 . S
O427 C429 1.214 . S
O428 Cd424 2.352 . S
O428 C431 1.258 . S
C429 O426 1.320 . S
C429 O427 1.214 . S
O430 Cd422 2.277 . S
O430 C425 1.209 . S
C431 O428 1.258 . S
C431 O433 1.282 . S
O432 Cd424 2.277 . S
O432 C425 1.226 . S
O433 Cd424 2.356 . S
O433 C431 1.282 . S
C434 O435 1.306 . S
C434 O437 1.160 . S
O435 C434 1.306 . S
O435 Cd436 2.228 . S
Cd436 O435 2.228 . S
Cd436 O440 2.273 . S
Cd436 O444 2.277 . S
O437 C434 1.160 . S
O437 Cd438 2.203 . S
Cd438 O437 2.203 . S
Cd438 O440 2.411 . S
Cd438 O441 2.333 . S
Cd438 O442 2.352 . S
Cd438 O446 2.277 . S
Cd438 O447 2.356 . S
C439 O444 1.209 . S
C439 O446 1.226 . S
O440 Cd436 2.273 . S
O440 Cd438 2.411 . S
O440 C443 1.320 . S
O441 Cd438 2.333 . S
O441 C443 1.214 . S
O442 Cd438 2.352 . S
O442 C445 1.258 . S
C443 O440 1.320 . S
C443 O441 1.214 . S
O444 Cd436 2.277 . S
O444 C439 1.209 . S
C445 O442 1.258 . S
C445 O447 1.282 . S
O446 Cd438 2.277 . S
O446 C439 1.226 . S
O447 Cd438 2.356 . S
O447 C445 1.282 . S
C448 O449 1.306 . S
C448 O451 1.160 . S
O449 C448 1.306 . S
O449 Cd450 2.228 . S
Cd450 O449 2.228 . S
Cd450 O454 2.273 . S
Cd450 O458 2.277 . S
O451 C448 1.160 . S
O451 Cd452 2.203 . S
Cd452 O451 2.203 . S
Cd452 O454 2.411 . S
Cd452 O455 2.333 . S
Cd452 O456 2.352 . S
Cd452 O460 2.277 . S
Cd452 O461 2.356 . S
C453 O458 1.209 . S
C453 O460 1.226 . S
O454 Cd450 2.273 . S
O454 Cd452 2.411 . S
O454 C457 1.320 . S
O455 Cd452 2.333 . S
O455 C457 1.214 . S
O456 Cd452 2.352 . S
O456 C459 1.258 . S
C457 O454 1.320 . S
C457 O455 1.214 . S
O458 Cd450 2.277 . S
O458 C453 1.209 . S
C459 O456 1.258 . S
C459 O461 1.282 . S
O460 Cd452 2.277 . S
O460 C453 1.226 . S
O461 Cd452 2.356 . S
O461 C459 1.282 . S
C462 O463 1.306 . S
C462 O465 1.160 . S
O463 C462 1.306 . S
O463 Cd464 2.228 . S
Cd464 O463 2.228 . S
Cd464 O468 2.273 . S
Cd464 O472 2.277 . S
O465 C462 1.160 . S
O465 Cd466 2.203 . S
Cd466 O465 2.203 . S
Cd466 O468 2.411 . S
Cd466 O469 2.333 . S
Cd466 O470 2.352 . S
Cd466 O474 2.277 . S
Cd466 O475 2.356 . S
C467 O472 1.209 . S
C467 O474 1.226 . S
O468 Cd464 2.273 . S
O468 Cd466 2.411 . S
O468 C471 1.320 . S
O469 Cd466 2.333 . S
O469 C471 1.214 . S
O470 Cd466 2.352 . S
O470 C473 1.258 . S
C471 O468 1.320 . S
C471 O469 1.214 . S
O472 Cd464 2.277 . S
O472 C467 1.209 . S
C473 O470 1.258 . S
C473 O475 1.282 . S
O474 Cd466 2.277 . S
O474 C467 1.226 . S
O475 Cd466 2.356 . S
O475 C473 1.282 . S
C476 O477 1.306 . S
C476 O479 1.160 . S
O477 C476 1.306 . S
O477 Cd478 2.228 . S
Cd478 O477 2.228 . S
Cd478 O482 2.273 . S
Cd478 O486 2.277 . S
O479 C476 1.160 . S
O479 Cd480 2.203 . S
Cd480 O479 2.203 . S
Cd480 O482 2.411 . S
Cd480 O483 2.333 . S
Cd480 O484 2.352 . S
Cd480 O488 2.277 . S
Cd480 O489 2.356 . S
C481 O486 1.209 . S
C481 O488 1.226 . S
O482 Cd478 2.273 . S
O482 Cd480 2.411 . S
O482 C485 1.320 . S
O483 Cd480 2.333 . S
O483 C485 1.214 . S
O484 Cd480 2.352 . S
O484 C487 1.258 . S
C485 O482 1.320 . S
C485 O483 1.214 . S
O486 Cd478 2.277 . S
O486 C481 1.209 . S
C487 O484 1.258 . S
C487 O489 1.282 . S
O488 Cd480 2.277 . S
O488 C481 1.226 . S
O489 Cd480 2.356 . S
O489 C487 1.282 . S
C490 O491 1.306 . S
C490 O493 1.160 . S
O491 C490 1.306 . S
O491 Cd492 2.228 . S
Cd492 O491 2.228 . S
Cd492 O496 2.273 . S
Cd492 O500 2.277 . S
O493 C490 1.160 . S
O493 Cd494 2.203 . S
Cd494 O493 2.203 . S
Cd494 O496 2.411 . S
Cd494 O497 2.333 . S
Cd494 O498 2.352 . S
Cd494 O502 2.277 . S
Cd494 O503 2.356 . S
C495 O500 1.209 . S
C495 O502 1.226 . S
O496 Cd492 2.273 . S
O496 Cd494 2.411 . S
O496 C499 1.320 . S
O497 Cd494 2.333 . S
O497 C499 1.214 . S
O498 Cd494 2.352 . S
O498 C501 1.258 . S
C499 O496 1.320 . S
C499 O497 1.214 . S
O500 Cd492 2.277 . S
O500 C495 1.209 . S
C501 O498 1.258 . S
C501 O503 1.282 . S
O502 Cd494 2.277 . S
O502 C495 1.226 . S
O503 Cd494 2.356 . S
O503 C501 1.282 . S
C504 O505 1.306 . S
C504 O507 1.160 . S
O505 C504 1.306 . S
O505 Cd506 2.228 . S
Cd506 O505 2.228 . S
Cd506 O510 2.273 . S
Cd506 O514 2.277 . S
O507 C504 1.160 . S
O507 Cd508 2.203 . S
Cd508 O507 2.203 . S
Cd508 O510 2.411 . S
Cd508 O511 2.333 . S
Cd508 O512 2.352 . S
Cd508 O516 2.277 . S
Cd508 O517 2.356 . S
C509 O514 1.209 . S
C509 O516 1.226 . S
O510 Cd506 2.273 . S
O510 Cd508 2.411 . S
O510 C513 1.320 . S
O511 Cd508 2.333 . S
O511 C513 1.214 . S
O512 Cd508 2.352 . S
O512 C515 1.258 . S
C513 O510 1.320 . S
C513 O511 1.214 . S
O514 Cd506 2.277 . S
O514 C509 1.209 . S
C515 O512 1.258 . S
C515 O517 1.282 . S
O516 Cd508 2.277 . S
O516 C509 1.226 . S
O517 Cd508 2.356 . S
O517 C515 1.282 . S
C518 O519 1.306 . S
C518 O521 1.160 . S
O519 C518 1.306 . S
O519 Cd520 2.228 . S
Cd520 O519 2.228 . S
Cd520 O524 2.273 . S
Cd520 O528 2.277 . S
O521 C518 1.160 . S
O521 Cd522 2.203 . S
Cd522 O521 2.203 . S
Cd522 O524 2.411 . S
Cd522 O525 2.333 . S
Cd522 O526 2.352 . S
Cd522 O530 2.277 . S
Cd522 O531 2.356 . S
C523 O528 1.209 . S
C523 O530 1.226 . S
O524 Cd520 2.273 . S
O524 Cd522 2.411 . S
O524 C527 1.320 . S
O525 Cd522 2.333 . S
O525 C527 1.214 . S
O526 Cd522 2.352 . S
O526 C529 1.258 . S
C527 O524 1.320 . S
C527 O525 1.214 . S
O528 Cd520 2.277 . S
O528 C523 1.209 . S
C529 O526 1.258 . S
C529 O531 1.282 . S
O530 Cd522 2.277 . S
O530 C523 1.226 . S
O531 Cd522 2.356 . S
O531 C529 1.282 . S
C532 O533 1.306 . S
C532 O535 1.160 . S
O533 C532 1.306 . S
O533 Cd534 2.228 . S
Cd534 O533 2.228 . S
Cd534 O538 2.273 . S
Cd534 O542 2.277 . S
O535 C532 1.160 . S
O535 Cd536 2.203 . S
Cd536 O535 2.203 . S
Cd536 O538 2.411 . S
Cd536 O539 2.333 . S
Cd536 O540 2.352 . S
Cd536 O544 2.277 . S
Cd536 O545 2.356 . S
C537 O542 1.209 . S
C537 O544 1.226 . S
O538 Cd534 2.273 . S
O538 Cd536 2.411 . S
O538 C541 1.320 . S
O539 Cd536 2.333 . S
O539 C541 1.214 . S
O540 Cd536 2.352 . S
O540 C543 1.258 . S
C541 O538 1.320 . S
C541 O539 1.214 . S
O542 Cd534 2.277 . S
O542 C537 1.209 . S
C543 O540 1.258 . S
C543 O545 1.282 . S
O544 Cd536 2.277 . S
O544 C537 1.226 . S
O545 Cd536 2.356 . S
O545 C543 1.282 . S
C546 O547 1.306 . S
C546 O549 1.160 . S
O547 C546 1.306 . S
O547 Cd548 2.228 . S
Cd548 O547 2.228 . S
Cd548 O552 2.273 . S
Cd548 O556 2.277 . S
O549 C546 1.160 . S
O549 Cd550 2.203 . S
Cd550 O549 2.203 . S
Cd550 O552 2.411 . S
Cd550 O553 2.333 . S
Cd550 O554 2.352 . S
Cd550 O558 2.277 . S
Cd550 O559 2.356 . S
C551 O556 1.209 . S
C551 O558 1.226 . S
O552 Cd548 2.273 . S
O552 Cd550 2.411 . S
O552 C555 1.320 . S
O553 Cd550 2.333 . S
O553 C555 1.214 . S
O554 Cd550 2.352 . S
O554 C557 1.258 . S
C555 O552 1.320 . S
C555 O553 1.214 . S
O556 Cd548 2.277 . S
O556 C551 1.209 . S
C557 O554 1.258 . S
C557 O559 1.282 . S
O558 Cd550 2.277 . S
O558 C551 1.226 . S
O559 Cd550 2.356 . S
O559 C557 1.282 . S
C560 O561 1.306 . S
C560 O563 1.160 . S
O561 C560 1.306 . S
O561 Cd562 2.228 . S
Cd562 O561 2.228 . S
Cd562 O566 2.273 . S
Cd562 O570 2.277 . S
O563 C560 1.160 . S
O563 Cd564 2.203 . S
Cd564 O563 2.203 . S
Cd564 O566 2.411 . S
Cd564 O567 2.333 . S
Cd564 O568 2.352 . S
Cd564 O572 2.277 . S
Cd564 O573 2.356 . S
C565 O570 1.209 . S
C565 O572 1.226 . S
O566 Cd562 2.273 . S
O566 Cd564 2.411 . S
O566 C569 1.320 . S
O567 Cd564 2.333 . S
O567 C569 1.214 . S
O568 Cd564 2.352 . S
O568 C571 1.258 . S
C569 O566 1.320 . S
C569 O567 1.214 . S
O570 Cd562 2.277 . S
O570 C565 1.209 . S
C571 O568 1.258 . S
C571 O573 1.282 . S
O572 Cd564 2.277 . S
O572 C565 1.226 . S
O573 Cd564 2.356 . S
O573 C571 1.282 . S
C574 O575 1.306 . S
C574 O577 1.160 . S
O575 C574 1.306 . S
O575 Cd576 2.228 . S
Cd576 O575 2.228 . S
Cd576 O580 2.273 . S
Cd576 O584 2.277 . S
O577 C574 1.160 . S
O577 Cd578 2.203 . S
Cd578 O577 2.203 . S
Cd578 O580 2.411 . S
Cd578 O581 2.333 . S
Cd578 O582 2.352 . S
Cd578 O586 2.277 . S
Cd578 O587 2.356 . S
C579 O584 1.209 . S
C579 O586 1.226 . S
O580 Cd576 2.273 . S
O580 Cd578 2.411 . S
O580 C583 1.320 . S
O581 Cd578 2.333 . S
O581 C583 1.214 . S
O582 Cd578 2.352 . S
O582 C585 1.258 . S
C583 O580 1.320 . S
C583 O581 1.214 . S
O584 Cd576 2.277 . S
O584 C579 1.209 . S
C585 O582 1.258 . S
C585 O587 1.282 . S
O586 Cd578 2.277 . S
O586 C579 1.226 . S
O587 Cd578 2.356 . S
O587 C585 1.282 . S
C588 O589 1.306 . S
C588 O591 1.160 . S
O589 C588 1.306 . S
O589 Cd590 2.228 . S
Cd590 O589 2.228 . S
Cd590 O594 2.273 . S
Cd590 O598 2.277 . S
O591 C588 1.160 . S
O591 Cd592 2.203 . S
Cd592 O591 2.203 . S
Cd592 O594 2.411 . S
Cd592 O595 2.333 . S
Cd592 O596 2.352 . S
Cd592 O600 2.277 . S
Cd592 O601 2.356 . S
C593 O598 1.209 . S
C593 O600 1.226 . S
O594 Cd590 2.273 . S
O594 Cd592 2.411 . S
O594 C597 1.320 . S
O595 Cd592 2.333 . S
O595 C597 1.214 . S
O596 Cd592 2.352 . S
O596 C599 1.258 . S
C597 O594 1.320 . S
C597 O595 1.214 . S
O598 Cd590 2.277 . S
O598 C593 1.209 . S
C599 O596 1.258 . S
C599 O601 1.282 . S
O600 Cd592 2.277 . S
O600 C593 1.226 . S
O601 Cd592 2.356 . S
O601 C599 1.282 . S
C602 O603 1.306 . S
C602 O605 1.160 . S
O603 C602 1.306 . S
O603 Cd604 2.228 . S
Cd604 O603 2.228 . S
Cd604 O608 2.273 . S
Cd604 O612 2.277 . S
O605 C602 1.160 . S
O605 Cd606 2.203 . S
Cd606 O605 2.203 . S
Cd606 O608 2.411 . S
Cd606 O609 2.333 . S
Cd606 O610 2.352 . S
Cd606 O614 2.277 . S
Cd606 O615 2.356 . S
C607 O612 1.209 . S
C607 O614 1.226 . S
O608 Cd604 2.273 . S
O608 Cd606 2.411 . S
O608 C611 1.320 . S
O609 Cd606 2.333 . S
O609 C611 1.214 . S
O610 Cd606 2.352 . S
O610 C613 1.258 . S
C611 O608 1.320 . S
C611 O609 1.214 . S
O612 Cd604 2.277 . S
O612 C607 1.209 . S
C613 O610 1.258 . S
C613 O615 1.282 . S
O614 Cd606 2.277 . S
O614 C607 1.226 . S
O615 Cd606 2.356 . S
O615 C613 1.282 . S
C616 O617 1.306 . S
C616 O619 1.160 . S
O617 C616 1.306 . S
O617 Cd618 2.228 . S
Cd618 O617 2.228 . S
Cd618 O622 2.273 . S
Cd618 O626 2.277 . S
O619 C616 1.160 . S
O619 Cd620 2.203 . S
Cd620 O619 2.203 . S
Cd620 O622 2.411 . S
Cd620 O623 2.333 . S
Cd620 O624 2.352 . S
Cd620 O628 2.277 . S
Cd620 O629 2.356 . S
C621 O626 1.209 . S
C621 O628 1.226 . S
O622 Cd618 2.273 . S
O622 Cd620 2.411 . S
O622 C625 1.320 . S
O623 Cd620 2.333 . S
O623 C625 1.214 . S
O624 Cd620 2.352 . S
O624 C627 1.258 . S
C625 O622 1.320 . S
C625 O623 1.214 . S
O626 Cd618 2.277 . S
O626 C621 1.209 . S
C627 O624 1.258 . S
C627 O629 1.282 . S
O628 Cd620 2.277 . S
O628 C621 1.226 . S
O629 Cd620 2.356 . S
O629 C627 1.282 . S
C630 O631 1.306 . S
C630 O633 1.160 . S
O631 C630 1.306 . S
O631 Cd632 2.228 . S
Cd632 O631 2.228 . S
Cd632 O636 2.273 . S
Cd632 O640 2.277 . S
O633 C630 1.160 . S
O633 Cd634 2.203 . S
Cd634 O633 2.203 . S
Cd634 O636 2.411 . S
Cd634 O637 2.333 . S
Cd634 O638 2.352 . S
Cd634 O642 2.277 . S
Cd634 O643 2.356 . S
C635 O640 1.209 . S
C635 O642 1.226 . S
O636 Cd632 2.273 . S
O636 Cd634 2.411 . S
O636 C639 1.320 . S
O637 Cd634 2.333 . S
O637 C639 1.214 . S
O638 Cd634 2.352 . S
O638 C641 1.258 . S
C639 O636 1.320 . S
C639 O637 1.214 . S
O640 Cd632 2.277 . S
O640 C635 1.209 . S
C641 O638 1.258 . S
C641 O643 1.282 . S
O642 Cd634 2.277 . S
O642 C635 1.226 . S
O643 Cd634 2.356 . S
O643 C641 1.282 . S
C644 O645 1.306 . S
C644 O647 1.160 . S
O645 C644 1.306 . S
O645 Cd646 2.228 . S
Cd646 O645 2.228 . S
Cd646 O650 2.273 . S
Cd646 O654 2.277 . S
O647 C644 1.160 . S
O647 Cd648 2.203 . S
Cd648 O647 2.203 . S
Cd648 O650 2.411 . S
Cd648 O651 2.333 . S
Cd648 O652 2.352 . S
Cd648 O656 2.277 . S
Cd648 O657 2.356 . S
C649 O654 1.209 . S
C649 O656 1.226 . S
O650 Cd646 2.273 . S
O650 Cd648 2.411 . S
O650 C653 1.320 . S
O651 Cd648 2.333 . S
O651 C653 1.214 . S
O652 Cd648 2.352 . S
O652 C655 1.258 . S
C653 O650 1.320 . S
C653 O651 1.214 . S
O654 Cd646 2.277 . S
O654 C649 1.209 . S
C655 O652 1.258 . S
C655 O657 1.282 . S
O656 Cd648 2.277 . S
O656 C649 1.226 . S
O657 Cd648 2.356 . S
O657 C655 1.282 . S
C658 O659 1.306 . S
C658 O661 1.160 . S
O659 C658 1.306 . S
O659 Cd660 2.228 . S
Cd660 O659 2.228 . S
Cd660 O664 2.273 . S
Cd660 O668 2.277 . S
O661 C658 1.160 . S
O661 Cd662 2.203 . S
Cd662 O661 2.203 . S
Cd662 O664 2.411 . S
Cd662 O665 2.333 . S
Cd662 O666 2.352 . S
Cd662 O670 2.277 . S
Cd662 O671 2.356 . S
C663 O668 1.209 . S
C663 O670 1.226 . S
O664 Cd660 2.273 . S
O664 Cd662 2.411 . S
O664 C667 1.320 . S
O665 Cd662 2.333 . S
O665 C667 1.214 . S
O666 Cd662 2.352 . S
O666 C669 1.258 . S
C667 O664 1.320 . S
C667 O665 1.214 . S
O668 Cd660 2.277 . S
O668 C663 1.209 . S
C669 O666 1.258 . S
C669 O671 1.282 . S
O670 Cd662 2.277 . S
O670 C663 1.226 . S
O671 Cd662 2.356 . S
O671 C669 1.282 . S
C672 O673 1.306 . S
C672 O675 1.160 . S
O673 C672 1.306 . S
O673 Cd674 2.228 . S
Cd674 O673 2.228 . S
Cd674 O678 2.273 . S
Cd674 O682 2.277 . S
O675 C672 1.160 . S
O675 Cd676 2.203 . S
Cd676 O675 2.203 . S
Cd676 O678 2.411 . S
Cd676 O679 2.333 . S
Cd676 O680 2.352 . S
Cd676 O684 2.277 . S
Cd676 O685 2.356 . S
C677 O682 1.209 . S
C677 O684 1.226 . S
O678 Cd674 2.273 . S
O678 Cd676 2.411 . S
O678 C681 1.320 . S
O679 Cd676 2.333 . S
O679 C681 1.214 . S
O680 Cd676 2.352 . S
O680 C683 1.258 . S
C681 O678 1.320 . S
C681 O679 1.214 . S
O682 Cd674 2.277 . S
O682 C677 1.209 . S
C683 O680 1.258 . S
C683 O685 1.282 . S
O684 Cd676 2.277 . S
O684 C677 1.226 . S
O685 Cd676 2.356 . S
O685 C683 1.282 . S
C686 O687 1.306 . S
C686 O689 1.160 . S
O687 C686 1.306 . S
O687 Cd688 2.228 . S
Cd688 O687 2.228 . S
Cd688 O692 2.273 . S
Cd688 O696 2.277 . S
O689 C686 1.160 . S
O689 Cd690 2.203 . S
Cd690 O689 2.203 . S
Cd690 O692 2.411 . S
Cd690 O693 2.333 . S
Cd690 O694 2.352 . S
Cd690 O698 2.277 . S
Cd690 O699 2.356 . S
C691 O696 1.209 . S
C691 O698 1.226 . S
O692 Cd688 2.273 . S
O692 Cd690 2.411 . S
O692 C695 1.320 . S
O693 Cd690 2.333 . S
O693 C695 1.214 . S
O694 Cd690 2.352 . S
O694 C697 1.258 . S
C695 O692 1.320 . S
C695 O693 1.214 . S
O696 Cd688 2.277 . S
O696 C691 1.209 . S
C697 O694 1.258 . S
C697 O699 1.282 . S
O698 Cd690 2.277 . S
O698 C691 1.226 . S
O699 Cd690 2.356 . S
O699 C697 1.282 . S
C700 O701 1.306 . S
C700 O703 1.160 . S
O701 C700 1.306 . S
O701 Cd702 2.228 . S
Cd702 O701 2.228 . S
Cd702 O706 2.273 . S
Cd702 O710 2.277 . S
O703 C700 1.160 . S
O703 Cd704 2.203 . S
Cd704 O703 2.203 . S
Cd704 O706 2.411 . S
Cd704 O707 2.333 . S
Cd704 O708 2.352 . S
Cd704 O712 2.277 . S
Cd704 O713 2.356 . S
C705 O710 1.209 . S
C705 O712 1.226 . S
O706 Cd702 2.273 . S
O706 Cd704 2.411 . S
O706 C709 1.320 . S
O707 Cd704 2.333 . S
O707 C709 1.214 . S
O708 Cd704 2.352 . S
O708 C711 1.258 . S
C709 O706 1.320 . S
C709 O707 1.214 . S
O710 Cd702 2.277 . S
O710 C705 1.209 . S
C711 O708 1.258 . S
C711 O713 1.282 . S
O712 Cd704 2.277 . S
O712 C705 1.226 . S
O713 Cd704 2.356 . S
O713 C711 1.282 . S
C714 O715 1.306 . S
C714 O717 1.160 . S
O715 C714 1.306 . S
O715 Cd716 2.228 . S
Cd716 O715 2.228 . S
Cd716 O720 2.273 . S
Cd716 O724 2.277 . S
O717 C714 1.160 . S
O717 Cd718 2.203 . S
Cd718 O717 2.203 . S
Cd718 O720 2.411 . S
Cd718 O721 2.333 . S
Cd718 O722 2.352 . S
Cd718 O726 2.277 . S
Cd718 O727 2.356 . S
C719 O724 1.209 . S
C719 O726 1.226 . S
O720 Cd716 2.273 . S
O720 Cd718 2.411 . S
O720 C723 1.320 . S
O721 Cd718 2.333 . S
O721 C723 1.214 . S
O722 Cd718 2.352 . S
O722 C725 1.258 . S
C723 O720 1.320 . S
C723 O721 1.214 . S
O724 Cd716 2.277 . S
O724 C719 1.209 . S
C725 O722 1.258 . S
C725 O727 1.282 . S
O726 Cd718 2.277 . S
O726 C719 1.226 . S
O727 Cd718 2.356 . S
O727 C725 1.282 . S
C728 O729 1.306 . S
C728 O731 1.160 . S
O729 C728 1.306 . S
O729 Cd730 2.228 . S
Cd730 O729 2.228 . S
Cd730 O734 2.273 . S
Cd730 O738 2.277 . S
O731 C728 1.160 . S
O731 Cd732 2.203 . S
Cd732 O731 2.203 . S
Cd732 O734 2.411 . S
Cd732 O735 2.333 . S
Cd732 O736 2.352 . S
Cd732 O740 2.277 . S
Cd732 O741 2.356 . S
C733 O738 1.209 . S
C733 O740 1.226 . S
O734 Cd730 2.273 . S
O734 Cd732 2.411 . S
O734 C737 1.320 . S
O735 Cd732 2.333 . S
O735 C737 1.214 . S
O736 Cd732 2.352 . S
O736 C739 1.258 . S
C737 O734 1.320 . S
C737 O735 1.214 . S
O738 Cd730 2.277 . S
O738 C733 1.209 . S
C739 O736 1.258 . S
C739 O741 1.282 . S
O740 Cd732 2.277 . S
O740 C733 1.226 . S
O741 Cd732 2.356 . S
O741 C739 1.282 . S
C742 O743 1.306 . S
C742 O745 1.160 . S
O743 C742 1.306 . S
O743 Cd744 2.228 . S
Cd744 O743 2.228 . S
Cd744 O748 2.273 . S
Cd744 O752 2.277 . S
O745 C742 1.160 . S
O745 Cd746 2.203 . S
Cd746 O745 2.203 . S
Cd746 O748 2.411 . S
Cd746 O749 2.333 . S
Cd746 O750 2.352 . S
Cd746 O754 2.277 . S
Cd746 O755 2.356 . S
C747 O752 1.209 . S
C747 O754 1.226 . S
O748 Cd744 2.273 . S
O748 Cd746 2.411 . S
O748 C751 1.320 . S
O749 Cd746 2.333 . S
O749 C751 1.214 . S
O750 Cd746 2.352 . S
O750 C753 1.258 . S
C751 O748 1.320 . S
C751 O749 1.214 . S
O752 Cd744 2.277 . S
O752 C747 1.209 . S
C753 O750 1.258 . S
C753 O755 1.282 . S
O754 Cd746 2.277 . S
O754 C747 1.226 . S
O755 Cd746 2.356 . S
O755 C753 1.282 . S
C756 O757 1.306 . S
C756 O759 1.160 . S
O757 C756 1.306 . S
O757 Cd758 2.228 . S
Cd758 O757 2.228 . S
Cd758 O762 2.273 . S
Cd758 O766 2.277 . S
O759 C756 1.160 . S
O759 Cd760 2.203 . S
Cd760 O759 2.203 . S
Cd760 O762 2.411 . S
Cd760 O763 2.333 . S
Cd760 O764 2.352 . S
Cd760 O768 2.277 . S
Cd760 O769 2.356 . S
C761 O766 1.209 . S
C761 O768 1.226 . S
O762 Cd758 2.273 . S
O762 Cd760 2.411 . S
O762 C765 1.320 . S
O763 Cd760 2.333 . S
O763 C765 1.214 . S
O764 Cd760 2.352 . S
O764 C767 1.258 . S
C765 O762 1.320 . S
C765 O763 1.214 . S
O766 Cd758 2.277 . S
O766 C761 1.209 . S
C767 O764 1.258 . S
C767 O769 1.282 . S
O768 Cd760 2.277 . S
O768 C761 1.226 . S
O769 Cd760 2.356 . S
O769 C767 1.282 . S
C770 O771 1.306 . S
C770 O773 1.160 . S
O771 C770 1.306 . S
O771 Cd772 2.228 . S
Cd772 O771 2.228 . S
Cd772 O776 2.273 . S
Cd772 O780 2.277 . S
O773 C770 1.160 . S
O773 Cd774 2.203 . S
Cd774 O773 2.203 . S
Cd774 O776 2.411 . S
Cd774 O777 2.333 . S
Cd774 O778 2.352 . S
Cd774 O782 2.277 . S
Cd774 O783 2.356 . S
C775 O780 1.209 . S
C775 O782 1.226 . S
O776 Cd772 2.273 . S
O776 Cd774 2.411 . S
O776 C779 1.320 . S
O777 Cd774 2.333 . S
O777 C779 1.214 . S
O778 Cd774 2.352 . S
O778 C781 1.258 . S
C779 O776 1.320 . S
C779 O777 1.214 . S
O780 Cd772 2.277 . S
O780 C775 1.209 . S
C781 O778 1.258 . S
C781 O783 1.282 . S
O782 Cd774 2.277 . S
O782 C775 1.226 . S
O783 Cd774 2.356 . S
O783 C781 1.282 . S
C784 O785 1.306 . S
C784 O787 1.160 . S
O785 C784 1.306 . S
O785 Cd786 2.228 . S
Cd786 O785 2.228 . S
Cd786 O790 2.273 . S
Cd786 O794 2.277 . S
O787 C784 1.160 . S
O787 Cd788 2.203 . S
Cd788 O787 2.203 . S
Cd788 O790 2.411 . S
Cd788 O791 2.333 . S
Cd788 O792 2.352 . S
Cd788 O796 2.277 . S
Cd788 O797 2.356 . S
C789 O794 1.209 . S
C789 O796 1.226 . S
O790 Cd786 2.273 . S
O790 Cd788 2.411 . S
O790 C793 1.320 . S
O791 Cd788 2.333 . S
O791 C793 1.214 . S
O792 Cd788 2.352 . S
O792 C795 1.258 . S
C793 O790 1.320 . S
C793 O791 1.214 . S
O794 Cd786 2.277 . S
O794 C789 1.209 . S
C795 O792 1.258 . S
C795 O797 1.282 . S
O796 Cd788 2.277 . S
O796 C789 1.226 . S
O797 Cd788 2.356 . S
O797 C795 1.282 . S
C798 O799 1.306 . S
C798 O801 1.160 . S
O799 C798 1.306 . S
O799 Cd800 2.228 . S
Cd800 O799 2.228 . S
Cd800 O804 2.273 . S
Cd800 O808 2.277 . S
O801 C798 1.160 . S
O801 Cd802 2.203 . S
Cd802 O801 2.203 . S
Cd802 O804 2.411 . S
Cd802 O805 2.333 . S
Cd802 O806 2.352 . S
Cd802 O810 2.277 . S
Cd802 O811 2.356 . S
C803 O808 1.209 . S
C803 O810 1.226 . S
O804 Cd800 2.273 . S
O804 Cd802 2.411 . S
O804 C807 1.320 . S
O805 Cd802 2.333 . S
O805 C807 1.214 . S
O806 Cd802 2.352 . S
O806 C809 1.258 . S
C807 O804 1.320 . S
C807 O805 1.214 . S
O808 Cd800 2.277 . S
O808 C803 1.209 . S
C809 O806 1.258 . S
C809 O811 1.282 . S
O810 Cd802 2.277 . S
O810 C803 1.226 . S
O811 Cd802 2.356 . S
O811 C809 1.282 . S
C812 O813 1.306 . S
C812 O815 1.160 . S
O813 C812 1.306 . S
O813 Cd814 2.228 . S
Cd814 O813 2.228 . S
Cd814 O818 2.273 . S
Cd814 O822 2.277 . S
O815 C812 1.160 . S
O815 Cd816 2.203 . S
Cd816 O815 2.203 . S
Cd816 O818 2.411 . S
Cd816 O819 2.333 . S
Cd816 O820 2.352 . S
Cd816 O824 2.277 . S
Cd816 O825 2.356 . S
C817 O822 1.209 . S
C817 O824 1.226 . S
O818 Cd814 2.273 . S
O818 Cd816 2.411 . S
O818 C821 1.320 . S
O819 Cd816 2.333 . S
O819 C821 1.214 . S
O820 Cd816 2.352 . S
O820 C823 1.258 . S
C821 O818 1.320 . S
C821 O819 1.214 . S
O822 Cd814 2.277 . S
O822 C817 1.209 . S
C823 O820 1.258 . S
C823 O825 1.282 . S
O824 Cd816 2.277 . S
O824 C817 1.226 . S
O825 Cd816 2.356 . S
O825 C823 1.282 . S
C826 O827 1.306 . S
C826 O829 1.160 . S
O827 C826 1.306 . S
O827 Cd828 2.228 . S
Cd828 O827 2.228 . S
Cd828 O832 2.273 . S
Cd828 O836 2.277 . S
O829 C826 1.160 . S
O829 Cd830 2.203 . S
Cd830 O829 2.203 . S
Cd830 O832 2.411 . S
Cd830 O833 2.333 . S
Cd830 O834 2.352 . S
Cd830 O838 2.277 . S
Cd830 O839 2.356 . S
C831 O836 1.209 . S
C831 O838 1.226 . S
O832 Cd828 2.273 . S
O832 Cd830 2.411 . S
O832 C835 1.320 . S
O833 Cd830 2.333 . S
O833 C835 1.214 . S
O834 Cd830 2.352 . S
O834 C837 1.258 . S
C835 O832 1.320 . S
C835 O833 1.214 . S
O836 Cd828 2.277 . S
O836 C831 1.209 . S
C837 O834 1.258 . S
C837 O839 1.282 . S
O838 Cd830 2.277 . S
O838 C831 1.226 . S
O839 Cd830 2.356 . S
O839 C837 1.282 . S
C840 O841 1.306 . S
C840 O843 1.160 . S
O841 C840 1.306 . S
O841 Cd842 2.228 . S
Cd842 O841 2.228 . S
Cd842 O846 2.273 . S
Cd842 O850 2.277 . S
O843 C840 1.160 . S
O843 Cd844 2.203 . S
Cd844 O843 2.203 . S
Cd844 O846 2.411 . S
Cd844 O847 2.333 . S
Cd844 O848 2.352 . S
Cd844 O852 2.277 . S
Cd844 O853 2.356 . S
C845 O850 1.209 . S
C845 O852 1.226 . S
O846 Cd842 2.273 . S
O846 Cd844 2.411 . S
O846 C849 1.320 . S
O847 Cd844 2.333 . S
O847 C849 1.214 . S
O848 Cd844 2.352 . S
O848 C851 1.258 . S
C849 O846 1.320 . S
C849 O847 1.214 . S
O850 Cd842 2.277 . S
O850 C845 1.209 . S
C851 O848 1.258 . S
C851 O853 1.282 . S
O852 Cd844 2.277 . S
O852 C845 1.226 . S
O853 Cd844 2.356 . S
O853 C851 1.282 . S
C854 O855 1.306 . S
C854 O857 1.160 . S
O855 C854 1.306 . S
O855 Cd856 2.228 . S
Cd856 O855 2.228 . S
Cd856 O860 2.273 . S
Cd856 O864 2.277 . S
O857 C854 1.160 . S
O857 Cd858 2.203 . S
Cd858 O857 2.203 . S
Cd858 O860 2.411 . S
Cd858 O861 2.333 . S
Cd858 O862 2.352 . S
Cd858 O866 2.277 . S
Cd858 O867 2.356 . S
C859 O864 1.209 . S
C859 O866 1.226 . S
O860 Cd856 2.273 . S
O860 Cd858 2.411 . S
O860 C863 1.320 . S
O861 Cd858 2.333 . S
O861 C863 1.214 . S
O862 Cd858 2.352 . S
O862 C865 1.258 . S
C863 O860 1.320 . S
C863 O861 1.214 . S
O864 Cd856 2.277 . S
O864 C859 1.209 . S
C865 O862 1.258 . S
C865 O867 1.282 . S
O866 Cd858 2.277 . S
O866 C859 1.226 . S
O867 Cd858 2.356 . S
O867 C865 1.282 . S
C868 O869 1.306 . S
C868 O871 1.160 . S
O869 C868 1.306 . S
O869 Cd870 2.228 . S
Cd870 O869 2.228 . S
Cd870 O874 2.273 . S
Cd870 O878 2.277 . S
O871 C868 1.160 . S
O871 Cd872 2.203 . S
Cd872 O871 2.203 . S
Cd872 O874 2.411 . S
Cd872 O875 2.333 . S
Cd872 O876 2.352 . S
Cd872 O880 2.277 . S
Cd872 O881 2.356 . S
C873 O878 1.209 . S
C873 O880 1.226 . S
O874 Cd870 2.273 . S
O874 Cd872 2.411 . S
O874 C877 1.320 . S
O875 Cd872 2.333 . S
O875 C877 1.214 . S
O876 Cd872 2.352 . S
O876 C879 1.258 . S
C877 O874 1.320 . S
C877 O875 1.214 . S
O878 Cd870 2.277 . S
O878 C873 1.209 . S
C879 O876 1.258 . S
C879 O881 1.282 . S
O880 Cd872 2.277 . S
O880 C873 1.226 . S
O881 Cd872 2.356 . S
O881 C879 1.282 . S
C882 O883 1.306 . S
C882 O885 1.160 . S
O883 C882 1.306 . S
O883 Cd884 2.228 . S
Cd884 O883 2.228 . S
Cd884 O888 2.273 . S
Cd884 O892 2.277 . S
O885 C882 1.160 . S
O885 Cd886 2.203 . S
Cd886 O885 2.203 . S
Cd886 O888 2.411 . S
Cd886 O889 2.333 . S
Cd886 O890 2.352 . S
Cd886 O894 2.277 . S
Cd886 O895 2.356 . S
C887 O892 1.209 . S
C887 O894 1.226 . S
O888 Cd884 2.273 . S
O888 Cd886 2.411 . S
O888 C891 1.320 . S
O889 Cd886 2.333 . S
O889 C891 1.214 . S
O890 Cd886 2.352 . S
O890 C893 1.258 . S
C891 O888 1.320 . S
C891 O889 1.214 . S
O892 Cd884 2.277 . S
O892 C887 1.209 . S
C893 O890 1.258 . S
C893 O895 1.282 . S
O894 Cd886 2.277 . S
O894 C887 1.226 . S
O895 Cd886 2.356 . S
O895 C893 1.282 . S
C896 O897 1.306 . S
C896 O899 1.160 . S
O897 C896 1.306 . S
O897 Cd898 2.228 . S
Cd898 O897 2.228 . S
Cd898 O902 2.273 . S
Cd898 O906 2.277 . S
O899 C896 1.160 . S
O899 Cd900 2.203 . S
Cd900 O899 2.203 . S
Cd900 O902 2.411 . S
Cd900 O903 2.333 . S
Cd900 O904 2.352 . S
Cd900 O908 2.277 . S
Cd900 O909 2.356 . S
C901 O906 1.209 . S
C901 O908 1.226 . S
O902 Cd898 2.273 . S
O902 Cd900 2.411 . S
O902 C905 1.320 . S
O903 Cd900 2.333 . S
O903 C905 1.214 . S
O904 Cd900 2.352 . S
O904 C907 1.258 . S
C905 O902 1.320 . S
C905 O903 1.214 . S
O906 Cd898 2.277 . S
O906 C901 1.209 . S
C907 O904 1.258 . S
C907 O909 1.282 . S
O908 Cd900 2.277 . S
O908 C901 1.226 . S
O909 Cd900 2.356 . S
O909 C907 1.282 . S
C910 O911 1.306 . S
C910 O913 1.160 . S
O911 C910 1.306 . S
O911 Cd912 2.228 . S
Cd912 O911 2.228 . S
Cd912 O916 2.273 . S
Cd912 O920 2.277 . S
O913 C910 1.160 . S
O913 Cd914 2.203 . S
Cd914 O913 2.203 . S
Cd914 O916 2.411 . S
Cd914 O917 2.333 . S
Cd914 O918 2.352 . S
Cd914 O922 2.277 . S
Cd914 O923 2.356 . S
C915 O920 1.209 . S
C915 O922 1.226 . S
O916 Cd912 2.273 . S
O916 Cd914 2.411 . S
O916 C919 1.320 . S
O917 Cd914 2.333 . S
O917 C919 1.214 . S
O918 Cd914 2.352 . S
O918 C921 1.258 . S
C919 O916 1.320 . S
C919 O917 1.214 . S
O920 Cd912 2.277 . S
O920 C915 1.209 . S
C921 O918 1.258 . S
C921 O923 1.282 . S
O922 Cd914 2.277 . S
O922 C915 1.226 . S
O923 Cd914 2.356 . S
O923 C921 1.282 . S
C924 O925 1.306 . S
C924 O927 1.160 . S
O925 C924 1.306 . S
O925 Cd926 2.228 . S
Cd926 O925 2.228 . S
Cd926 O930 2.273 . S
Cd926 O934 2.277 . S
O927 C924 1.160 . S
O927 Cd928 2.203 . S
Cd928 O927 2.203 . S
Cd928 O930 2.411 . S
Cd928 O931 2.333 . S
Cd928 O932 2.352 . S
Cd928 O936 2.277 . S
Cd928 O937 2.356 . S
C929 O934 1.209 . S
C929 O936 1.226 . S
O930 Cd926 2.273 . S
O930 Cd928 2.411 . S
O930 C933 1.320 . S
O931 Cd928 2.333 . S
O931 C933 1.214 . S
O932 Cd928 2.352 . S
O932 C935 1.258 . S
C933 O930 1.320 . S
C933 O931 1.214 . S
O934 Cd926 2.277 . S
O934 C929 1.209 . S
C935 O932 1.258 . S
C935 O937 1.282 . S
O936 Cd928 2.277 . S
O936 C929 1.226 . S
O937 Cd928 2.356 . S
O937 C935 1.282 . S
C938 O939 1.306 . S
C938 O941 1.160 . S
O939 C938 1.306 . S
O939 Cd940 2.228 . S
Cd940 O939 2.228 . S
Cd940 O944 2.273 . S
Cd940 O948 2.277 . S
O941 C938 1.160 . S
O941 Cd942 2.203 . S
Cd942 O941 2.203 . S
Cd942 O944 2.411 . S
Cd942 O945 2.333 . S
Cd942 O946 2.352 . S
Cd942 O950 2.277 . S
Cd942 O951 2.356 . S
C943 O948 1.209 . S
C943 O950 1.226 . S
O944 Cd940 2.273 . S
O944 Cd942 2.411 . S
O944 C947 1.320 . S
O945 Cd942 2.333 . S
O945 C947 1.214 . S
O946 Cd942 2.352 . S
O946 C949 1.258 . S
C947 O944 1.320 . S
C947 O945 1.214 . S
O948 Cd940 2.277 . S
O948 C943 1.209 . S
C949 O946 1.258 . S
C949 O951 1.282 . S
O950 Cd942 2.277 . S
O950 C943 1.226 . S
O951 Cd942 2.356 . S
O951 C949 1.282 . S
C952 O953 1.306 . S
C952 O955 1.160 . S
O953 C952 1.306 . S
O953 Cd954 2.228 . S
Cd954 O953 2.228 . S
Cd954 O958 2.273 . S
Cd954 O962 2.277 . S
O955 C952 1.160 . S
O955 Cd956 2.203 . S
Cd956 O955 2.203 . S
Cd956 O958 2.411 . S
Cd956 O959 2.333 . S
Cd956 O960 2.352 . S
Cd956 O964 2.277 . S
Cd956 O965 2.356 . S
C957 O962 1.209 . S
C957 O964 1.226 . S
O958 Cd954 2.273 . S
O958 Cd956 2.411 . S
O958 C961 1.320 . S
O959 Cd956 2.333 . S
O959 C961 1.214 . S
O960 Cd956 2.352 . S
O960 C963 1.258 . S
C961 O958 1.320 . S
C961 O959 1.214 . S
O962 Cd954 2.277 . S
O962 C957 1.209 . S
C963 O960 1.258 . S
C963 O965 1.282 . S
O964 Cd956 2.277 . S
O964 C957 1.226 . S
O965 Cd956 2.356 . S
O965 C963 1.282 . S
C966 O967 1.306 . S
C966 O969 1.160 . S
O967 C966 1.306 . S
O967 Cd968 2.228 . S
Cd968 O967 2.228 . S
Cd968 O972 2.273 . S
Cd968 O976 2.277 . S
O969 C966 1.160 . S
O969 Cd970 2.203 . S
Cd970 O969 2.203 . S
Cd970 O972 2.411 . S
Cd970 O973 2.333 . S
Cd970 O974 2.352 . S
Cd970 O978 2.277 . S
Cd970 O979 2.356 . S
C971 O976 1.209 . S
C971 O978 1.226 . S
O972 Cd968 2.273 . S
O972 Cd970 2.411 . S
O972 C975 1.320 . S
O973 Cd970 2.333 . S
O973 C975 1.214 . S
O974 Cd970 2.352 . S
O974 C977 1.258 . S
C975 O972 1.320 . S
C975 O973 1.214 . S
O976 Cd968 2.277 . S
O976 C971 1.209 . S
C977 O974 1.258 . S
C977 O979 1.282 . S
O978 Cd970 2.277 . S
O978 C971 1.226 . S
O979 Cd970 2.356 . S
O979 C977 1.282 . S
C980 O981 1.306 . S
C980 O983 1.160 . S
O981 C980 1.306 . S
O981 Cd982 2.228 . S
Cd982 O981 2.228 . S
Cd982 O986 2.273 . S
Cd982 O990 2.277 . S
O983 C980 1.160 . S
O983 Cd984 2.203 . S
Cd984 O983 2.203 . S
Cd984 O986 2.411 . S
Cd984 O987 2.333 . S
Cd984 O988 2.352 . S
Cd984 O992 2.277 . S
Cd984 O993 2.356 . S
C985 O990 1.209 . S
C985 O992 1.226 . S
O986 Cd982 2.273 . S
O986 Cd984 2.411 . S
O986 C989 1.320 . S
O987 Cd984 2.333 . S
O987 C989 1.214 . S
O988 Cd984 2.352 . S
O988 C991 1.258 . S
C989 O986 1.320 . S
C989 O987 1.214 . S
O990 Cd982 2.277 . S
O990 C985 1.209 . S
C991 O988 1.258 . S
C991 O993 1.282 . S
O992 Cd984 2.277 . S
O992 C985 1.226 . S
O993 Cd984 2.356 . S
O993 C991 1.282 . S
C994 O995 1.306 . S
C994 O997 1.160 . S
O995 C994 1.306 . S
O995 Cd996 2.228 . S
Cd996 O995 2.228 . S
Cd996 O1000 2.273 . S
Cd996 O1004 2.277 . S
O997 C994 1.160 . S
O997 Cd998 2.203 . S
Cd998 O997 2.203 . S
Cd998 O1000 2.411 . S
Cd998 O1001 2.333 . S
Cd998 O1002 2.352 . S
Cd998 O1006 2.277 . S
Cd998 O1007 2.356 . S
C999 O1004 1.209 . S
C999 O1006 1.226 . S
O1000 Cd996 2.273 . S
O1000 Cd998 2.411 . S
O1000 C1003 1.320 . S
O1001 Cd998 2.333 . S
O1001 C1003 1.214 . S
O1002 Cd998 2.352 . S
O1002 C1005 1.258 . S
C1003 O1000 1.320 . S
C1003 O1001 1.214 . S
O1004 Cd996 2.277 . S
O1004 C999 1.209 . S
C1005 O1002 1.258 . S
C1005 O1007 1.282 . S
O1006 Cd998 2.277 . S
O1006 C999 1.226 . S
O1007 Cd998 2.356 . S
O1007 C1005 1.282 . S
C1008 O1009 1.306 . S
C1008 O1011 1.160 . S
O1009 C1008 1.306 . S
O1009 Cd1010 2.228 . S
Cd1010 O1009 2.228 . S
Cd1010 O1014 2.273 . S
Cd1010 O1018 2.277 . S
O1011 C1008 1.160 . S
O1011 Cd1012 2.203 . S
Cd1012 O1011 2.203 . S
Cd1012 O1014 2.411 . S
Cd1012 O1015 2.333 . S
Cd1012 O1016 2.352 . S
Cd1012 O1020 2.277 . S
Cd1012 O1021 2.356 . S
C1013 O1018 1.209 . S
C1013 O1020 1.226 . S
O1014 Cd1010 2.273 . S
O1014 Cd1012 2.411 . S
O1014 C1017 1.320 . S
O1015 Cd1012 2.333 . S
O1015 C1017 1.214 . S
O1016 Cd1012 2.352 . S
O1016 C1019 1.258 . S
C1017 O1014 1.320 . S
C1017 O1015 1.214 . S
O1018 Cd1010 2.277 . S
O1018 C1013 1.209 . S
C1019 O1016 1.258 . S
C1019 O1021 1.282 . S
O1020 Cd1012 2.277 . S
O1020 C1013 1.226 . S
O1021 Cd1012 2.356 . S
O1021 C1019 1.282 . S
C1022 O1023 1.306 . S
C1022 O1025 1.160 . S
O1023 C1022 1.306 . S
O1023 Cd1024 2.228 . S
Cd1024 O1023 2.228 . S
Cd1024 O1028 2.273 . S
Cd1024 O1032 2.277 . S
O1025 C1022 1.160 . S
O1025 Cd1026 2.203 . S
Cd1026 O1025 2.203 . S
Cd1026 O1028 2.411 . S
Cd1026 O1029 2.333 . S
Cd1026 O1030 2.352 . S
Cd1026 O1034 2.277 . S
Cd1026 O1035 2.356 . S
C1027 O1032 1.209 . S
C1027 O1034 1.226 . S
O1028 Cd1024 2.273 . S
O1028 Cd1026 2.411 . S
O1028 C1031 1.320 . S
O1029 Cd1026 2.333 . S
O1029 C1031 1.214 . S
O1030 Cd1026 2.352 . S
O1030 C1033 1.258 . S
C1031 O1028 1.320 . S
C1031 O1029 1.214 . S
O1032 Cd1024 2.277 . S
O1032 C1027 1.209 . S
C1033 O1030 1.258 . S
C1033 O1035 1.282 . S
O1034 Cd1026 2.277 . S
O1034 C1027 1.226 . S
O1035 Cd1026 2.356 . S
O1035 C1033 1.282 . S
C1036 O1037 1.306 . S
C1036 O1039 1.160 . S
O1037 C1036 1.306 . S
O1037 Cd1038 2.228 . S
Cd1038 O1037 2.228 . S
Cd1038 O1042 2.273 . S
Cd1038 O1046 2.277 . S
O1039 C1036 1.160 . S
O1039 Cd1040 2.203 . S
Cd1040 O1039 2.203 . S
Cd1040 O1042 2.411 . S
Cd1040 O1043 2.333 . S
Cd1040 O1044 2.352 . S
Cd1040 O1048 2.277 . S
Cd1040 O1049 2.356 . S
C1041 O1046 1.209 . S
C1041 O1048 1.226 . S
O1042 Cd1038 2.273 . S
O1042 Cd1040 2.411 . S
O1042 C1045 1.320 . S
O1043 Cd1040 2.333 . S
O1043 C1045 1.214 . S
O1044 Cd1040 2.352 . S
O1044 C1047 1.258 . S
C1045 O1042 1.320 . S
C1045 O1043 1.214 . S
O1046 Cd1038 2.277 . S
O1046 C1041 1.209 . S
C1047 O1044 1.258 . S
C1047 O1049 1.282 . S
O1048 Cd1040 2.277 . S
O1048 C1041 1.226 . S
O1049 Cd1040 2.356 . S
O1049 C1047 1.282 . S
C1050 O1051 1.306 . S
C1050 O1053 1.160 . S
O1051 C1050 1.306 . S
O1051 Cd1052 2.228 . S
Cd1052 O1051 2.228 . S
Cd1052 O1056 2.273 . S
Cd1052 O1060 2.277 . S
O1053 C1050 1.160 . S
O1053 Cd1054 2.203 . S
Cd1054 O1053 2.203 . S
Cd1054 O1056 2.411 . S
Cd1054 O1057 2.333 . S
Cd1054 O1058 2.352 . S
Cd1054 O1062 2.277 . S
Cd1054 O1063 2.356 . S
C1055 O1060 1.209 . S
C1055 O1062 1.226 . S
O1056 Cd1052 2.273 . S
O1056 Cd1054 2.411 . S
O1056 C1059 1.320 . S
O1057 Cd1054 2.333 . S
O1057 C1059 1.214 . S
O1058 Cd1054 2.352 . S
O1058 C1061 1.258 . S
C1059 O1056 1.320 . S
C1059 O1057 1.214 . S
O1060 Cd1052 2.277 . S
O1060 C1055 1.209 . S
C1061 O1058 1.258 . S
C1061 O1063 1.282 . S
O1062 Cd1054 2.277 . S
O1062 C1055 1.226 . S
O1063 Cd1054 2.356 . S
O1063 C1061 1.282 . S
C1064 O1065 1.306 . S
C1064 O1067 1.160 . S
O1065 C1064 1.306 . S
O1065 Cd1066 2.228 . S
Cd1066 O1065 2.228 . S
Cd1066 O1070 2.273 . S
Cd1066 O1074 2.277 . S
O1067 C1064 1.160 . S
O1067 Cd1068 2.203 . S
Cd1068 O1067 2.203 . S
Cd1068 O1070 2.411 . S
Cd1068 O1071 2.333 . S
Cd1068 O1072 2.352 . S
Cd1068 O1076 2.277 . S
Cd1068 O1077 2.356 . S
C1069 O1074 1.209 . S
C1069 O1076 1.226 . S
O1070 Cd1066 2.273 . S
O1070 Cd1068 2.411 . S
O1070 C1073 1.320 . S
O1071 Cd1068 2.333 . S
O1071 C1073 1.214 . S
O1072 Cd1068 2.352 . S
O1072 C1075 1.258 . S
C1073 O1070 1.320 . S
C1073 O1071 1.214 . S
O1074 Cd1066 2.277 . S
O1074 C1069 1.209 . S
C1075 O1072 1.258 . S
C1075 O1077 1.282 . S
O1076 Cd1068 2.277 . S
O1076 C1069 1.226 . S
O1077 Cd1068 2.356 . S
O1077 C1075 1.282 . S
C1078 O1079 1.306 . S
C1078 O1081 1.160 . S
O1079 C1078 1.306 . S
O1079 Cd1080 2.228 . S
Cd1080 O1079 2.228 . S
Cd1080 O1084 2.273 . S
Cd1080 O1088 2.277 . S
O1081 C1078 1.160 . S
O1081 Cd1082 2.203 . S
Cd1082 O1081 2.203 . S
Cd1082 O1084 2.411 . S
Cd1082 O1085 2.333 . S
Cd1082 O1086 2.352 . S
Cd1082 O1090 2.277 . S
Cd1082 O1091 2.356 . S
C1083 O1088 1.209 . S
C1083 O1090 1.226 . S
O1084 Cd1080 2.273 . S
O1084 Cd1082 2.411 . S
O1084 C1087 1.320 . S
O1085 Cd1082 2.333 . S
O1085 C1087 1.214 . S
O1086 Cd1082 2.352 . S
O1086 C1089 1.258 . S
C1087 O1084 1.320 . S
C1087 O1085 1.214 . S
O1088 Cd1080 2.277 . S
O1088 C1083 1.209 . S
C1089 O1086 1.258 . S
C1089 O1091 1.282 . S
O1090 Cd1082 2.277 . S
O1090 C1083 1.226 . S
O1091 Cd1082 2.356 . S
O1091 C1089 1.282 . S
C1092 O1093 1.306 . S
C1092 O1095 1.160 . S
O1093 C1092 1.306 . S
O1093 Cd1094 2.228 . S
Cd1094 O1093 2.228 . S
Cd1094 O1098 2.273 . S
Cd1094 O1102 2.277 . S
O1095 C1092 1.160 . S
O1095 Cd1096 2.203 . S
Cd1096 O1095 2.203 . S
Cd1096 O1098 2.411 . S
Cd1096 O1099 2.333 . S
Cd1096 O1100 2.352 . S
Cd1096 O1104 2.277 . S
Cd1096 O1105 2.356 . S
C1097 O1102 1.209 . S
C1097 O1104 1.226 . S
O1098 Cd1094 2.273 . S
O1098 Cd1096 2.411 . S
O1098 C1101 1.320 . S
O1099 Cd1096 2.333 . S
O1099 C1101 1.214 . S
O1100 Cd1096 2.352 . S
O1100 C1103 1.258 . S
C1101 O1098 1.320 . S
C1101 O1099 1.214 . S
O1102 Cd1094 2.277 . S
O1102 C1097 1.209 . S
C1103 O1100 1.258 . S
C1103 O1105 1.282 . S
O1104 Cd1096 2.277 . S
O1104 C1097 1.226 . S
O1105 Cd1096 2.356 . S
O1105 C1103 1.282 . S
C1106 O1107 1.306 . S
C1106 O1109 1.160 . S
O1107 C1106 1.306 . S
O1107 Cd1108 2.228 . S
Cd1108 O1107 2.228 . S
Cd1108 O1112 2.273 . S
Cd1108 O1116 2.277 . S
O1109 C1106 1.160 . S
O1109 Cd1110 2.203 . S
Cd1110 O1109 2.203 . S
Cd1110 O1112 2.411 . S
Cd1110 O1113 2.333 . S
Cd1110 O1114 2.352 . S
Cd1110 O1118 2.277 . S
Cd1110 O1119 2.356 . S
C1111 O1116 1.209 . S
C1111 O1118 1.226 . S
O1112 Cd1108 2.273 . S
O1112 Cd1110 2.411 . S
O1112 C1115 1.320 . S
O1113 Cd1110 2.333 . S
O1113 C1115 1.214 . S
O1114 Cd1110 2.352 . S
O1114 C1117 1.258 . S
C1115 O1112 1.320 . S
C1115 O1113 1.214 . S
O1116 Cd1108 2.277 . S
O1116 C1111 1.209 . S
C1117 O1114 1.258 . S
C1117 O1119 1.282 . S
O1118 Cd1110 2.277 . S
O1118 C1111 1.226 . S
O1119 Cd1110 2.356 . S
O1119 C1117 1.282 . S
C1120 O1121 1.306 . S
C1120 O1123 1.160 . S
O1121 C1120 1.306 . S
O1121 Cd1122 2.228 . S
Cd1122 O1121 2.228 . S
Cd1122 O1126 2.273 . S
Cd1122 O1130 2.277 . S
O1123 C1120 1.160 . S
O1123 Cd1124 2.203 . S
Cd1124 O1123 2.203 . S
Cd1124 O1126 2.411 . S
Cd1124 O1127 2.333 . S
Cd1124 O1128 2.352 . S
Cd1124 O1132 2.277 . S
Cd1124 O1133 2.356 . S
C1125 O1130 1.209 . S
C1125 O1132 1.226 . S
O1126 Cd1122 2.273 . S
O1126 Cd1124 2.411 . S
O1126 C1129 1.320 . S
O1127 Cd1124 2.333 . S
O1127 C1129 1.214 . S
O1128 Cd1124 2.352 . S
O1128 C1131 1.258 . S
C1129 O1126 1.320 . S
C1129 O1127 1.214 . S
O1130 Cd1122 2.277 . S
O1130 C1125 1.209 . S
C1131 O1128 1.258 . S
C1131 O1133 1.282 . S
O1132 Cd1124 2.277 . S
O1132 C1125 1.226 . S
O1133 Cd1124 2.356 . S
O1133 C1131 1.282 . S
C1134 O1135 1.306 . S
C1134 O1137 1.160 . S
O1135 C1134 1.306 . S
O1135 Cd1136 2.228 . S
Cd1136 O1135 2.228 . S
Cd1136 O1140 2.273 . S
Cd1136 O1144 2.277 . S
O1137 C1134 1.160 . S
O1137 Cd1138 2.203 . S
Cd1138 O1137 2.203 . S
Cd1138 O1140 2.411 . S
Cd1138 O1141 2.333 . S
Cd1138 O1142 2.352 . S
Cd1138 O1146 2.277 . S
Cd1138 O1147 2.356 . S
C1139 O1144 1.209 . S
C1139 O1146 1.226 . S
O1140 Cd1136 2.273 . S
O1140 Cd1138 2.411 . S
O1140 C1143 1.320 . S
O1141 Cd1138 2.333 . S
O1141 C1143 1.214 . S
O1142 Cd1138 2.352 . S
O1142 C1145 1.258 . S
C1143 O1140 1.320 . S
C1143 O1141 1.214 . S
O1144 Cd1136 2.277 . S
O1144 C1139 1.209 . S
C1145 O1142 1.258 . S
C1145 O1147 1.282 . S
O1146 Cd1138 2.277 . S
O1146 C1139 1.226 . S
O1147 Cd1138 2.356 . S
O1147 C1145 1.282 . S
C1148 O1149 1.306 . S
C1148 O1151 1.160 . S
O1149 C1148 1.306 . S
O1149 Cd1150 2.228 . S
Cd1150 O1149 2.228 . S
Cd1150 O1154 2.273 . S
Cd1150 O1158 2.277 . S
O1151 C1148 1.160 . S
O1151 Cd1152 2.203 . S
Cd1152 O1151 2.203 . S
Cd1152 O1154 2.411 . S
Cd1152 O1155 2.333 . S
Cd1152 O1156 2.352 . S
Cd1152 O1160 2.277 . S
Cd1152 O1161 2.356 . S
C1153 O1158 1.209 . S
C1153 O1160 1.226 . S
O1154 Cd1150 2.273 . S
O1154 Cd1152 2.411 . S
O1154 C1157 1.320 . S
O1155 Cd1152 2.333 . S
O1155 C1157 1.214 . S
O1156 Cd1152 2.352 . S
O1156 C1159 1.258 . S
C1157 O1154 1.320 . S
C1157 O1155 1.214 . S
O1158 Cd1150 2.277 . S
O1158 C1153 1.209 . S
C1159 O1156 1.258 . S
C1159 O1161 1.282 . S
O1160 Cd1152 2.277 . S
O1160 C1153 1.226 . S
O1161 Cd1152 2.356 . S
O1161 C1159 1.282 . S
C1162 O1163 1.306 . S
C1162 O1165 1.160 . S
O1163 C1162 1.306 . S
O1163 Cd1164 2.228 . S
Cd1164 O1163 2.228 . S
Cd1164 O1168 2.273 . S
Cd1164 O1172 2.277 . S
O1165 C1162 1.160 . S
O1165 Cd1166 2.203 . S
Cd1166 O1165 2.203 . S
Cd1166 O1168 2.411 . S
Cd1166 O1169 2.333 . S
Cd1166 O1170 2.352 . S
Cd1166 O1174 2.277 . S
Cd1166 O1175 2.356 . S
C1167 O1172 1.209 . S
C1167 O1174 1.226 . S
O1168 Cd1164 2.273 . S
O1168 Cd1166 2.411 . S
O1168 C1171 1.320 . S
O1169 Cd1166 2.333 . S
O1169 C1171 1.214 . S
O1170 Cd1166 2.352 . S
O1170 C1173 1.258 . S
C1171 O1168 1.320 . S
C1171 O1169 1.214 . S
O1172 Cd1164 2.277 . S
O1172 C1167 1.209 . S
C1173 O1170 1.258 . S
C1173 O1175 1.282 . S
O1174 Cd1166 2.277 . S
O1174 C1167 1.226 . S
O1175 Cd1166 2.356 . S
O1175 C1173 1.282 . S
C1176 O1177 1.306 . S
C1176 O1179 1.160 . S
O1177 C1176 1.306 . S
O1177 Cd1178 2.228 . S
Cd1178 O1177 2.228 . S
Cd1178 O1182 2.273 . S
Cd1178 O1186 2.277 . S
O1179 C1176 1.160 . S
O1179 Cd1180 2.203 . S
Cd1180 O1179 2.203 . S
Cd1180 O1182 2.411 . S
Cd1180 O1183 2.333 . S
Cd1180 O1184 2.352 . S
Cd1180 O1188 2.277 . S
Cd1180 O1189 2.356 . S
C1181 O1186 1.209 . S
C1181 O1188 1.226 . S
O1182 Cd1178 2.273 . S
O1182 Cd1180 2.411 . S
O1182 C1185 1.320 . S
O1183 Cd1180 2.333 . S
O1183 C1185 1.214 . S
O1184 Cd1180 2.352 . S
O1184 C1187 1.258 . S
C1185 O1182 1.320 . S
C1185 O1183 1.214 . S
O1186 Cd1178 2.277 . S
O1186 C1181 1.209 . S
C1187 O1184 1.258 . S
C1187 O1189 1.282 . S
O1188 Cd1180 2.277 . S
O1188 C1181 1.226 . S
O1189 Cd1180 2.356 . S
O1189 C1187 1.282 . S
C1190 O1191 1.306 . S
C1190 O1193 1.160 . S
O1191 C1190 1.306 . S
O1191 Cd1192 2.228 . S
Cd1192 O1191 2.228 . S
Cd1192 O1196 2.273 . S
Cd1192 O1200 2.277 . S
O1193 C1190 1.160 . S
O1193 Cd1194 2.203 . S
Cd1194 O1193 2.203 . S
Cd1194 O1196 2.411 . S
Cd1194 O1197 2.333 . S
Cd1194 O1198 2.352 . S
Cd1194 O1202 2.277 . S
Cd1194 O1203 2.356 . S
C1195 O1200 1.209 . S
C1195 O1202 1.226 . S
O1196 Cd1192 2.273 . S
O1196 Cd1194 2.411 . S
O1196 C1199 1.320 . S
O1197 Cd1194 2.333 . S
O1197 C1199 1.214 . S
O1198 Cd1194 2.352 . S
O1198 C1201 1.258 . S
C1199 O1196 1.320 . S
C1199 O1197 1.214 . S
O1200 Cd1192 2.277 . S
O1200 C1195 1.209 . S
C1201 O1198 1.258 . S
C1201 O1203 1.282 . S
O1202 Cd1194 2.277 . S
O1202 C1195 1.226 . S
O1203 Cd1194 2.356 . S
O1203 C1201 1.282 . S
C1204 O1205 1.306 . S
C1204 O1207 1.160 . S
O1205 C1204 1.306 . S
O1205 Cd1206 2.228 . S
Cd1206 O1205 2.228 . S
Cd1206 O1210 2.273 . S
Cd1206 O1214 2.277 . S
O1207 C1204 1.160 . S
O1207 Cd1208 2.203 . S
Cd1208 O1207 2.203 . S
Cd1208 O1210 2.411 . S
Cd1208 O1211 2.333 . S
Cd1208 O1212 2.352 . S
Cd1208 O1216 2.277 . S
Cd1208 O1217 2.356 . S
C1209 O1214 1.209 . S
C1209 O1216 1.226 . S
O1210 Cd1206 2.273 . S
O1210 Cd1208 2.411 . S
O1210 C1213 1.320 . S
O1211 Cd1208 2.333 . S
O1211 C1213 1.214 . S
O1212 Cd1208 2.352 . S
O1212 C1215 1.258 . S
C1213 O1210 1.320 . S
C1213 O1211 1.214 . S
O1214 Cd1206 2.277 . S
O1214 C1209 1.209 . S
C1215 O1212 1.258 . S
C1215 O1217 1.282 . S
O1216 Cd1208 2.277 . S
O1216 C1209 1.226 . S
O1217 Cd1208 2.356 . S
O1217 C1215 1.282 . S
C1218 O1219 1.306 . S
C1218 O1221 1.160 . S
O1219 C1218 1.306 . S
O1219 Cd1220 2.228 . S
Cd1220 O1219 2.228 . S
Cd1220 O1224 2.273 . S
Cd1220 O1228 2.277 . S
O1221 C1218 1.160 . S
O1221 Cd1222 2.203 . S
Cd1222 O1221 2.203 . S
Cd1222 O1224 2.411 . S
Cd1222 O1225 2.333 . S
Cd1222 O1226 2.352 . S
Cd1222 O1230 2.277 . S
Cd1222 O1231 2.356 . S
C1223 O1228 1.209 . S
C1223 O1230 1.226 . S
O1224 Cd1220 2.273 . S
O1224 Cd1222 2.411 . S
O1224 C1227 1.320 . S
O1225 Cd1222 2.333 . S
O1225 C1227 1.214 . S
O1226 Cd1222 2.352 . S
O1226 C1229 1.258 . S
C1227 O1224 1.320 . S
C1227 O1225 1.214 . S
O1228 Cd1220 2.277 . S
O1228 C1223 1.209 . S
C1229 O1226 1.258 . S
C1229 O1231 1.282 . S
O1230 Cd1222 2.277 . S
O1230 C1223 1.226 . S
O1231 Cd1222 2.356 . S
O1231 C1229 1.282 . S
C1232 O1233 1.306 . S
C1232 O1235 1.160 . S
O1233 C1232 1.306 . S
O1233 Cd1234 2.228 . S
Cd1234 O1233 2.228 . S
Cd1234 O1238 2.273 . S
Cd1234 O1242 2.277 . S
O1235 C1232 1.160 . S
O1235 Cd1236 2.203 . S
Cd1236 O1235 2.203 . S
Cd1236 O1238 2.411 . S
Cd1236 O1239 2.333 . S
Cd1236 O1240 2.352 . S
Cd1236 O1244 2.277 . S
Cd1236 O1245 2.356 . S
C1237 O1242 1.209 . S
C1237 O1244 1.226 . S
O1238 Cd1234 2.273 . S
O1238 Cd1236 2.411 . S
O1238 C1241 1.320 . S
O1239 Cd1236 2.333 . S
O1239 C1241 1.214 . S
O1240 Cd1236 2.352 . S
O1240 C1243 1.258 . S
C1241 O1238 1.320 . S
C1241 O1239 1.214 . S
O1242 Cd1234 2.277 . S
O1242 C1237 1.209 . S
C1243 O1240 1.258 . S
C1243 O1245 1.282 . S
O1244 Cd1236 2.277 . S
O1244 C1237 1.226 . S
O1245 Cd1236 2.356 . S
O1245 C1243 1.282 . S
C1246 O1247 1.306 . S
C1246 O1249 1.160 . S
O1247 C1246 1.306 . S
O1247 Cd1248 2.228 . S
Cd1248 O1247 2.228 . S
Cd1248 O1252 2.273 . S
Cd1248 O1256 2.277 . S
O1249 C1246 1.160 . S
O1249 Cd1250 2.203 . S
Cd1250 O1249 2.203 . S
Cd1250 O1252 2.411 . S
Cd1250 O1253 2.333 . S
Cd1250 O1254 2.352 . S
Cd1250 O1258 2.277 . S
Cd1250 O1259 2.356 . S
C1251 O1256 1.209 . S
C1251 O1258 1.226 . S
O1252 Cd1248 2.273 . S
O1252 Cd1250 2.411 . S
O1252 C1255 1.320 . S
O1253 Cd1250 2.333 . S
O1253 C1255 1.214 . S
O1254 Cd1250 2.352 . S
O1254 C1257 1.258 . S
C1255 O1252 1.320 . S
C1255 O1253 1.214 . S
O1256 Cd1248 2.277 . S
O1256 C1251 1.209 . S
C1257 O1254 1.258 . S
C1257 O1259 1.282 . S
O1258 Cd1250 2.277 . S
O1258 C1251 1.226 . S
O1259 Cd1250 2.356 . S
O1259 C1257 1.282 . S
C1260 O1261 1.306 . S
C1260 O1263 1.160 . S
O1261 C1260 1.306 . S
O1261 Cd1262 2.228 . S
Cd1262 O1261 2.228 . S
Cd1262 O1266 2.273 . S
Cd1262 O1270 2.277 . S
O1263 C1260 1.160 . S
O1263 Cd1264 2.203 . S
Cd1264 O1263 2.203 . S
Cd1264 O1266 2.411 . S
Cd1264 O1267 2.333 . S
Cd1264 O1268 2.352 . S
Cd1264 O1272 2.277 . S
Cd1264 O1273 2.356 . S
C1265 O1270 1.209 . S
C1265 O1272 1.226 . S
O1266 Cd1262 2.273 . S
O1266 Cd1264 2.411 . S
O1266 C1269 1.320 . S
O1267 Cd1264 2.333 . S
O1267 C1269 1.214 . S
O1268 Cd1264 2.352 . S
O1268 C1271 1.258 . S
C1269 O1266 1.320 . S
C1269 O1267 1.214 . S
O1270 Cd1262 2.277 . S
O1270 C1265 1.209 . S
C1271 O1268 1.258 . S
C1271 O1273 1.282 . S
O1272 Cd1264 2.277 . S
O1272 C1265 1.226 . S
O1273 Cd1264 2.356 . S
O1273 C1271 1.282 . S
C1274 O1275 1.306 . S
C1274 O1277 1.160 . S
O1275 C1274 1.306 . S
O1275 Cd1276 2.228 . S
Cd1276 O1275 2.228 . S
Cd1276 O1280 2.273 . S
Cd1276 O1284 2.277 . S
O1277 C1274 1.160 . S
O1277 Cd1278 2.203 . S
Cd1278 O1277 2.203 . S
Cd1278 O1280 2.411 . S
Cd1278 O1281 2.333 . S
Cd1278 O1282 2.352 . S
Cd1278 O1286 2.277 . S
Cd1278 O1287 2.356 . S
C1279 O1284 1.209 . S
C1279 O1286 1.226 . S
O1280 Cd1276 2.273 . S
O1280 Cd1278 2.411 . S
O1280 C1283 1.320 . S
O1281 Cd1278 2.333 . S
O1281 C1283 1.214 . S
O1282 Cd1278 2.352 . S
O1282 C1285 1.258 . S
C1283 O1280 1.320 . S
C1283 O1281 1.214 . S
O1284 Cd1276 2.277 . S
O1284 C1279 1.209 . S
C1285 O1282 1.258 . S
C1285 O1287 1.282 . S
O1286 Cd1278 2.277 . S
O1286 C1279 1.226 . S
O1287 Cd1278 2.356 . S
O1287 C1285 1.282 . S
C1288 O1289 1.306 . S
C1288 O1291 1.160 . S
O1289 C1288 1.306 . S
O1289 Cd1290 2.228 . S
Cd1290 O1289 2.228 . S
Cd1290 O1294 2.273 . S
Cd1290 O1298 2.277 . S
O1291 C1288 1.160 . S
O1291 Cd1292 2.203 . S
Cd1292 O1291 2.203 . S
Cd1292 O1294 2.411 . S
Cd1292 O1295 2.333 . S
Cd1292 O1296 2.352 . S
Cd1292 O1300 2.277 . S
Cd1292 O1301 2.356 . S
C1293 O1298 1.209 . S
C1293 O1300 1.226 . S
O1294 Cd1290 2.273 . S
O1294 Cd1292 2.411 . S
O1294 C1297 1.320 . S
O1295 Cd1292 2.333 . S
O1295 C1297 1.214 . S
O1296 Cd1292 2.352 . S
O1296 C1299 1.258 . S
C1297 O1294 1.320 . S
C1297 O1295 1.214 . S
O1298 Cd1290 2.277 . S
O1298 C1293 1.209 . S
C1299 O1296 1.258 . S
C1299 O1301 1.282 . S
O1300 Cd1292 2.277 . S
O1300 C1293 1.226 . S
O1301 Cd1292 2.356 . S
O1301 C1299 1.282 . S
C1302 O1303 1.306 . S
C1302 O1305 1.160 . S
O1303 C1302 1.306 . S
O1303 Cd1304 2.228 . S
Cd1304 O1303 2.228 . S
Cd1304 O1308 2.273 . S
Cd1304 O1312 2.277 . S
O1305 C1302 1.160 . S
O1305 Cd1306 2.203 . S
Cd1306 O1305 2.203 . S
Cd1306 O1308 2.411 . S
Cd1306 O1309 2.333 . S
Cd1306 O1310 2.352 . S
Cd1306 O1314 2.277 . S
Cd1306 O1315 2.356 . S
C1307 O1312 1.209 . S
C1307 O1314 1.226 . S
O1308 Cd1304 2.273 . S
O1308 Cd1306 2.411 . S
O1308 C1311 1.320 . S
O1309 Cd1306 2.333 . S
O1309 C1311 1.214 . S
O1310 Cd1306 2.352 . S
O1310 C1313 1.258 . S
C1311 O1308 1.320 . S
C1311 O1309 1.214 . S
O1312 Cd1304 2.277 . S
O1312 C1307 1.209 . S
C1313 O1310 1.258 . S
C1313 O1315 1.282 . S
O1314 Cd1306 2.277 . S
O1314 C1307 1.226 . S
O1315 Cd1306 2.356 . S
O1315 C1313 1.282 . S
C1316 O1317 1.306 . S
C1316 O1319 1.160 . S
O1317 C1316 1.306 . S
O1317 Cd1318 2.228 . S
Cd1318 O1317 2.228 . S
Cd1318 O1322 2.273 . S
Cd1318 O1326 2.277 . S
O1319 C1316 1.160 . S
O1319 Cd1320 2.203 . S
Cd1320 O1319 2.203 . S
Cd1320 O1322 2.411 . S
Cd1320 O1323 2.333 . S
Cd1320 O1324 2.352 . S
Cd1320 O1328 2.277 . S
Cd1320 O1329 2.356 . S
C1321 O1326 1.209 . S
C1321 O1328 1.226 . S
O1322 Cd1318 2.273 . S
O1322 Cd1320 2.411 . S
O1322 C1325 1.320 . S
O1323 Cd1320 2.333 . S
O1323 C1325 1.214 . S
O1324 Cd1320 2.352 . S
O1324 C1327 1.258 . S
C1325 O1322 1.320 . S
C1325 O1323 1.214 . S
O1326 Cd1318 2.277 . S
O1326 C1321 1.209 . S
C1327 O1324 1.258 . S
C1327 O1329 1.282 . S
O1328 Cd1320 2.277 . S
O1328 C1321 1.226 . S
O1329 Cd1320 2.356 . S
O1329 C1327 1.282 . S
C1330 O1331 1.306 . S
C1330 O1333 1.160 . S
O1331 C1330 1.306 . S
O1331 Cd1332 2.228 . S
Cd1332 O1331 2.228 . S
Cd1332 O1336 2.273 . S
Cd1332 O1340 2.277 . S
O1333 C1330 1.160 . S
O1333 Cd1334 2.203 . S
Cd1334 O1333 2.203 . S
Cd1334 O1336 2.411 . S
Cd1334 O1337 2.333 . S
Cd1334 O1338 2.352 . S
Cd1334 O1342 2.277 . S
Cd1334 O1343 2.356 . S
C1335 O1340 1.209 . S
C1335 O1342 1.226 . S
O1336 Cd1332 2.273 . S
O1336 Cd1334 2.411 . S
O1336 C1339 1.320 . S
O1337 Cd1334 2.333 . S
O1337 C1339 1.214 . S
O1338 Cd1334 2.352 . S
O1338 C1341 1.258 . S
C1339 O1336 1.320 . S
C1339 O1337 1.214 . S
O1340 Cd1332 2.277 . S
O1340 C1335 1.209 . S
C1341 O1338 1.258 . S
C1341 O1343 1.282 . S
O1342 Cd1334 2.277 . S
O1342 C1335 1.226 . S
O1343 Cd1334 2.356 . S
O1343 C1341 1.282 . S
C1344 O1345 1.306 . S
C1344 O1347 1.160 . S
O1345 C1344 1.306 . S
O1345 Cd1346 2.228 . S
Cd1346 O1345 2.228 . S
Cd1346 O1350 2.273 . S
Cd1346 O1354 2.277 . S
O1347 C1344 1.160 . S
O1347 Cd1348 2.203 . S
Cd1348 O1347 2.203 . S
Cd1348 O1350 2.411 . S
Cd1348 O1351 2.333 . S
Cd1348 O1352 2.352 . S
Cd1348 O1356 2.277 . S
Cd1348 O1357 2.356 . S
C1349 O1354 1.209 . S
C1349 O1356 1.226 . S
O1350 Cd1346 2.273 . S
O1350 Cd1348 2.411 . S
O1350 C1353 1.320 . S
O1351 Cd1348 2.333 . S
O1351 C1353 1.214 . S
O1352 Cd1348 2.352 . S
O1352 C1355 1.258 . S
C1353 O1350 1.320 . S
C1353 O1351 1.214 . S
O1354 Cd1346 2.277 . S
O1354 C1349 1.209 . S
C1355 O1352 1.258 . S
C1355 O1357 1.282 . S
O1356 Cd1348 2.277 . S
O1356 C1349 1.226 . S
O1357 Cd1348 2.356 . S
O1357 C1355 1.282 . S
C1358 O1359 1.306 . S
C1358 O1361 1.160 . S
O1359 C1358 1.306 . S
O1359 Cd1360 2.228 . S
Cd1360 O1359 2.228 . S
Cd1360 O1364 2.273 . S
Cd1360 O1368 2.277 . S
O1361 C1358 1.160 . S
O1361 Cd1362 2.203 . S
Cd1362 O1361 2.203 . S
Cd1362 O1364 2.411 . S
Cd1362 O1365 2.333 . S
Cd1362 O1366 2.352 . S
Cd1362 O1370 2.277 . S
Cd1362 O1371 2.356 . S
C1363 O1368 1.209 . S
C1363 O1370 1.226 . S
O1364 Cd1360 2.273 . S
O1364 Cd1362 2.411 . S
O1364 C1367 1.320 . S
O1365 Cd1362 2.333 . S
O1365 C1367 1.214 . S
O1366 Cd1362 2.352 . S
O1366 C1369 1.258 . S
C1367 O1364 1.320 . S
C1367 O1365 1.214 . S
O1368 Cd1360 2.277 . S
O1368 C1363 1.209 . S
C1369 O1366 1.258 . S
C1369 O1371 1.282 . S
O1370 Cd1362 2.277 . S
O1370 C1363 1.226 . S
O1371 Cd1362 2.356 . S
O1371 C1369 1.282 . S
C1372 O1373 1.306 . S
C1372 O1375 1.160 . S
O1373 C1372 1.306 . S
O1373 Cd1374 2.228 . S
Cd1374 O1373 2.228 . S
Cd1374 O1378 2.273 . S
Cd1374 O1382 2.277 . S
O1375 C1372 1.160 . S
O1375 Cd1376 2.203 . S
Cd1376 O1375 2.203 . S
Cd1376 O1378 2.411 . S
Cd1376 O1379 2.333 . S
Cd1376 O1380 2.352 . S
Cd1376 O1384 2.277 . S
Cd1376 O1385 2.356 . S
C1377 O1382 1.209 . S
C1377 O1384 1.226 . S
O1378 Cd1374 2.273 . S
O1378 Cd1376 2.411 . S
O1378 C1381 1.320 . S
O1379 Cd1376 2.333 . S
O1379 C1381 1.214 . S
O1380 Cd1376 2.352 . S
O1380 C1383 1.258 . S
C1381 O1378 1.320 . S
C1381 O1379 1.214 . S
O1382 Cd1374 2.277 . S
O1382 C1377 1.209 . S
C1383 O1380 1.258 . S
C1383 O1385 1.282 . S
O1384 Cd1376 2.277 . S
O1384 C1377 1.226 . S
O1385 Cd1376 2.356 . S
O1385 C1383 1.282 . S
C1386 O1387 1.306 . S
C1386 O1389 1.160 . S
O1387 C1386 1.306 . S
O1387 Cd1388 2.228 . S
Cd1388 O1387 2.228 . S
Cd1388 O1392 2.273 . S
Cd1388 O1396 2.277 . S
O1389 C1386 1.160 . S
O1389 Cd1390 2.203 . S
Cd1390 O1389 2.203 . S
Cd1390 O1392 2.411 . S
Cd1390 O1393 2.333 . S
Cd1390 O1394 2.352 . S
Cd1390 O1398 2.277 . S
Cd1390 O1399 2.356 . S
C1391 O1396 1.209 . S
C1391 O1398 1.226 . S
O1392 Cd1388 2.273 . S
O1392 Cd1390 2.411 . S
O1392 C1395 1.320 . S
O1393 Cd1390 2.333 . S
O1393 C1395 1.214 . S
O1394 Cd1390 2.352 . S
O1394 C1397 1.258 . S
C1395 O1392 1.320 . S
C1395 O1393 1.214 . S
O1396 Cd1388 2.277 . S
O1396 C1391 1.209 . S
C1397 O1394 1.258 . S
C1397 O1399 1.282 . S
O1398 Cd1390 2.277 . S
O1398 C1391 1.226 . S
O1399 Cd1390 2.356 . S
O1399 C1397 1.282 . S
C1400 O1401 1.306 . S
C1400 O1403 1.160 . S
O1401 C1400 1.306 . S
O1401 Cd1402 2.228 . S
Cd1402 O1401 2.228 . S
Cd1402 O1406 2.273 . S
Cd1402 O1410 2.277 . S
O1403 C1400 1.160 . S
O1403 Cd1404 2.203 . S
Cd1404 O1403 2.203 . S
Cd1404 O1406 2.411 . S
Cd1404 O1407 2.333 . S
Cd1404 O1408 2.352 . S
Cd1404 O1412 2.277 . S
Cd1404 O1413 2.356 . S
C1405 O1410 1.209 . S
C1405 O1412 1.226 . S
O1406 Cd1402 2.273 . S
O1406 Cd1404 2.411 . S
O1406 C1409 1.320 . S
O1407 Cd1404 2.333 . S
O1407 C1409 1.214 . S
O1408 Cd1404 2.352 . S
O1408 C1411 1.258 . S
C1409 O1406 1.320 . S
C1409 O1407 1.214 . S
O1410 Cd1402 2.277 . S
O1410 C1405 1.209 . S
C1411 O1408 1.258 . S
C1411 O1413 1.282 . S
O1412 Cd1404 2.277 . S
O1412 C1405 1.226 . S
O1413 Cd1404 2.356 . S
O1413 C1411 1.282 . S
C1414 O1415 1.306 . S
C1414 O1417 1.160 . S
O1415 C1414 1.306 . S
O1415 Cd1416 2.228 . S
Cd1416 O1415 2.228 . S
Cd1416 O1420 2.273 . S
Cd1416 O1424 2.277 . S
O1417 C1414 1.160 . S
O1417 Cd1418 2.203 . S
Cd1418 O1417 2.203 . S
Cd1418 O1420 2.411 . S
Cd1418 O1421 2.333 . S
Cd1418 O1422 2.352 . S
Cd1418 O1426 2.277 . S
Cd1418 O1427 2.356 . S
C1419 O1424 1.209 . S
C1419 O1426 1.226 . S
O1420 Cd1416 2.273 . S
O1420 Cd1418 2.411 . S
O1420 C1423 1.320 . S
O1421 Cd1418 2.333 . S
O1421 C1423 1.214 . S
O1422 Cd1418 2.352 . S
O1422 C1425 1.258 . S
C1423 O1420 1.320 . S
C1423 O1421 1.214 . S
O1424 Cd1416 2.277 . S
O1424 C1419 1.209 . S
C1425 O1422 1.258 . S
C1425 O1427 1.282 . S
O1426 Cd1418 2.277 . S
O1426 C1419 1.226 . S
O1427 Cd1418 2.356 . S
O1427 C1425 1.282 . S
C1428 O1429 1.306 . S
C1428 O1431 1.160 . S
O1429 C1428 1.306 . S
O1429 Cd1430 2.228 . S
Cd1430 O1429 2.228 . S
Cd1430 O1434 2.273 . S
Cd1430 O1438 2.277 . S
O1431 C1428 1.160 . S
O1431 Cd1432 2.203 . S
Cd1432 O1431 2.203 . S
Cd1432 O1434 2.411 . S
Cd1432 O1435 2.333 . S
Cd1432 O1436 2.352 . S
Cd1432 O1440 2.277 . S
Cd1432 O1441 2.356 . S
C1433 O1438 1.209 . S
C1433 O1440 1.226 . S
O1434 Cd1430 2.273 . S
O1434 Cd1432 2.411 . S
O1434 C1437 1.320 . S
O1435 Cd1432 2.333 . S
O1435 C1437 1.214 . S
O1436 Cd1432 2.352 . S
O1436 C1439 1.258 . S
C1437 O1434 1.320 . S
C1437 O1435 1.214 . S
O1438 Cd1430 2.277 . S
O1438 C1433 1.209 . S
C1439 O1436 1.258 . S
C1439 O1441 1.282 . S
O1440 Cd1432 2.277 . S
O1440 C1433 1.226 . S
O1441 Cd1432 2.356 . S
O1441 C1439 1.282 . S
C1442 O1443 1.306 . S
C1442 O1445 1.160 . S
O1443 C1442 1.306 . S
O1443 Cd1444 2.228 . S
Cd1444 O1443 2.228 . S
Cd1444 O1448 2.273 . S
Cd1444 O1452 2.277 . S
O1445 C1442 1.160 . S
O1445 Cd1446 2.203 . S
Cd1446 O1445 2.203 . S
Cd1446 O1448 2.411 . S
Cd1446 O1449 2.333 . S
Cd1446 O1450 2.352 . S
Cd1446 O1454 2.277 . S
Cd1446 O1455 2.356 . S
C1447 O1452 1.209 . S
C1447 O1454 1.226 . S
O1448 Cd1444 2.273 . S
O1448 Cd1446 2.411 . S
O1448 C1451 1.320 . S
O1449 Cd1446 2.333 . S
O1449 C1451 1.214 . S
O1450 Cd1446 2.352 . S
O1450 C1453 1.258 . S
C1451 O1448 1.320 . S
C1451 O1449 1.214 . S
O1452 Cd1444 2.277 . S
O1452 C1447 1.209 . S
C1453 O1450 1.258 . S
C1453 O1455 1.282 . S
O1454 Cd1446 2.277 . S
O1454 C1447 1.226 . S
O1455 Cd1446 2.356 . S
O1455 C1453 1.282 . S
C1456 O1457 1.306 . S
C1456 O1459 1.160 . S
O1457 C1456 1.306 . S
O1457 Cd1458 2.228 . S
Cd1458 O1457 2.228 . S
Cd1458 O1462 2.273 . S
Cd1458 O1466 2.277 . S
O1459 C1456 1.160 . S
O1459 Cd1460 2.203 . S
Cd1460 O1459 2.203 . S
Cd1460 O1462 2.411 . S
Cd1460 O1463 2.333 . S
Cd1460 O1464 2.352 . S
Cd1460 O1468 2.277 . S
Cd1460 O1469 2.356 . S
C1461 O1466 1.209 . S
C1461 O1468 1.226 . S
O1462 Cd1458 2.273 . S
O1462 Cd1460 2.411 . S
O1462 C1465 1.320 . S
O1463 Cd1460 2.333 . S
O1463 C1465 1.214 . S
O1464 Cd1460 2.352 . S
O1464 C1467 1.258 . S
C1465 O1462 1.320 . S
C1465 O1463 1.214 . S
O1466 Cd1458 2.277 . S
O1466 C1461 1.209 . S
C1467 O1464 1.258 . S
C1467 O1469 1.282 . S
O1468 Cd1460 2.277 . S
O1468 C1461 1.226 . S
O1469 Cd1460 2.356 . S
O1469 C1467 1.282 . S
C1470 O1471 1.306 . S
C1470 O1473 1.160 . S
O1471 C1470 1.306 . S
O1471 Cd1472 2.228 . S
Cd1472 O1471 2.228 . S
Cd1472 O1476 2.273 . S
Cd1472 O1480 2.277 . S
O1473 C1470 1.160 . S
O1473 Cd1474 2.203 . S
Cd1474 O1473 2.203 . S
Cd1474 O1476 2.411 . S
Cd1474 O1477 2.333 . S
Cd1474 O1478 2.352 . S
Cd1474 O1482 2.277 . S
Cd1474 O1483 2.356 . S
C1475 O1480 1.209 . S
C1475 O1482 1.226 . S
O1476 Cd1472 2.273 . S
O1476 Cd1474 2.411 . S
O1476 C1479 1.320 . S
O1477 Cd1474 2.333 . S
O1477 C1479 1.214 . S
O1478 Cd1474 2.352 . S
O1478 C1481 1.258 . S
C1479 O1476 1.320 . S
C1479 O1477 1.214 . S
O1480 Cd1472 2.277 . S
O1480 C1475 1.209 . S
C1481 O1478 1.258 . S
C1481 O1483 1.282 . S
O1482 Cd1474 2.277 . S
O1482 C1475 1.226 . S
O1483 Cd1474 2.356 . S
O1483 C1481 1.282 . S
C1484 O1485 1.306 . S
C1484 O1487 1.160 . S
O1485 C1484 1.306 . S
O1485 Cd1486 2.228 . S
Cd1486 O1485 2.228 . S
Cd1486 O1490 2.273 . S
Cd1486 O1494 2.277 . S
O1487 C1484 1.160 . S
O1487 Cd1488 2.203 . S
Cd1488 O1487 2.203 . S
Cd1488 O1490 2.411 . S
Cd1488 O1491 2.333 . S
Cd1488 O1492 2.352 . S
Cd1488 O1496 2.277 . S
Cd1488 O1497 2.356 . S
C1489 O1494 1.209 . S
C1489 O1496 1.226 . S
O1490 Cd1486 2.273 . S
O1490 Cd1488 2.411 . S
O1490 C1493 1.320 . S
O1491 Cd1488 2.333 . S
O1491 C1493 1.214 . S
O1492 Cd1488 2.352 . S
O1492 C1495 1.258 . S
C1493 O1490 1.320 . S
C1493 O1491 1.214 . S
O1494 Cd1486 2.277 . S
O1494 C1489 1.209 . S
C1495 O1492 1.258 . S
C1495 O1497 1.282 . S
O1496 Cd1488 2.277 . S
O1496 C1489 1.226 . S
O1497 Cd1488 2.356 . S
O1497 C1495 1.282 . S
C1498 O1499 1.306 . S
C1498 O1501 1.160 . S
O1499 C1498 1.306 . S
O1499 Cd1500 2.228 . S
Cd1500 O1499 2.228 . S
Cd1500 O1504 2.273 . S
Cd1500 O1508 2.277 . S
O1501 C1498 1.160 . S
O1501 Cd1502 2.203 . S
Cd1502 O1501 2.203 . S
Cd1502 O1504 2.411 . S
Cd1502 O1505 2.333 . S
Cd1502 O1506 2.352 . S
Cd1502 O1510 2.277 . S
Cd1502 O1511 2.356 . S
C1503 O1508 1.209 . S
C1503 O1510 1.226 . S
O1504 Cd1500 2.273 . S
O1504 Cd1502 2.411 . S
O1504 C1507 1.320 . S
O1505 Cd1502 2.333 . S
O1505 C1507 1.214 . S
O1506 Cd1502 2.352 . S
O1506 C1509 1.258 . S
C1507 O1504 1.320 . S
C1507 O1505 1.214 . S
O1508 Cd1500 2.277 . S
O1508 C1503 1.209 . S
C1509 O1506 1.258 . S
C1509 O1511 1.282 . S
O1510 Cd1502 2.277 . S
O1510 C1503 1.226 . S
O1511 Cd1502 2.356 . S
O1511 C1509 1.282 . S
C1512 O1513 1.306 . S
C1512 O1515 1.160 . S
O1513 C1512 1.306 . S
O1513 Cd1514 2.228 . S
Cd1514 O1513 2.228 . S
Cd1514 O1518 2.273 . S
Cd1514 O1522 2.277 . S
O1515 C1512 1.160 . S
O1515 Cd1516 2.203 . S
Cd1516 O1515 2.203 . S
Cd1516 O1518 2.411 . S
Cd1516 O1519 2.333 . S
Cd1516 O1520 2.352 . S
Cd1516 O1524 2.277 . S
Cd1516 O1525 2.356 . S
C1517 O1522 1.209 . S
C1517 O1524 1.226 . S
O1518 Cd1514 2.273 . S
O1518 Cd1516 2.411 . S
O1518 C1521 1.320 . S
O1519 Cd1516 2.333 . S
O1519 C1521 1.214 . S
O1520 Cd1516 2.352 . S
O1520 C1523 1.258 . S
C1521 O1518 1.320 . S
C1521 O1519 1.214 . S
O1522 Cd1514 2.277 . S
O1522 C1517 1.209 . S
C1523 O1520 1.258 . S
C1523 O1525 1.282 . S
O1524 Cd1516 2.277 . S
O1524 C1517 1.226 . S
O1525 Cd1516 2.356 . S
O1525 C1523 1.282 . S
C1526 O1527 1.306 . S
C1526 O1529 1.160 . S
O1527 C1526 1.306 . S
O1527 Cd1528 2.228 . S
Cd1528 O1527 2.228 . S
Cd1528 O1532 2.273 . S
Cd1528 O1536 2.277 . S
O1529 C1526 1.160 . S
O1529 Cd1530 2.203 . S
Cd1530 O1529 2.203 . S
Cd1530 O1532 2.411 . S
Cd1530 O1533 2.333 . S
Cd1530 O1534 2.352 . S
Cd1530 O1538 2.277 . S
Cd1530 O1539 2.356 . S
C1531 O1536 1.209 . S
C1531 O1538 1.226 . S
O1532 Cd1528 2.273 . S
O1532 Cd1530 2.411 . S
O1532 C1535 1.320 . S
O1533 Cd1530 2.333 . S
O1533 C1535 1.214 . S
O1534 Cd1530 2.352 . S
O1534 C1537 1.258 . S
C1535 O1532 1.320 . S
C1535 O1533 1.214 . S
O1536 Cd1528 2.277 . S
O1536 C1531 1.209 . S
C1537 O1534 1.258 . S
C1537 O1539 1.282 . S
O1538 Cd1530 2.277 . S
O1538 C1531 1.226 . S
O1539 Cd1530 2.356 . S
O1539 C1537 1.282 . S
C1540 O1541 1.306 . S
C1540 O1543 1.160 . S
O1541 C1540 1.306 . S
O1541 Cd1542 2.228 . S
Cd1542 O1541 2.228 . S
Cd1542 O1546 2.273 . S
Cd1542 O1550 2.277 . S
O1543 C1540 1.160 . S
O1543 Cd1544 2.203 . S
Cd1544 O1543 2.203 . S
Cd1544 O1546 2.411 . S
Cd1544 O1547 2.333 . S
Cd1544 O1548 2.352 . S
Cd1544 O1552 2.277 . S
Cd1544 O1553 2.356 . S
C1545 O1550 1.209 . S
C1545 O1552 1.226 . S
O1546 Cd1542 2.273 . S
O1546 Cd1544 2.411 . S
O1546 C1549 1.320 . S
O1547 Cd1544 2.333 . S
O1547 C1549 1.214 . S
O1548 Cd1544 2.352 . S
O1548 C1551 1.258 . S
C1549 O1546 1.320 . S
C1549 O1547 1.214 . S
O1550 Cd1542 2.277 . S
O1550 C1545 1.209 . S
C1551 O1548 1.258 . S
C1551 O1553 1.282 . S
O1552 Cd1544 2.277 . S
O1552 C1545 1.226 . S
O1553 Cd1544 2.356 . S
O1553 C1551 1.282 . S
C1554 O1555 1.306 . S
C1554 O1557 1.160 . S
O1555 C1554 1.306 . S
O1555 Cd1556 2.228 . S
Cd1556 O1555 2.228 . S
Cd1556 O1560 2.273 . S
Cd1556 O1564 2.277 . S
O1557 C1554 1.160 . S
O1557 Cd1558 2.203 . S
Cd1558 O1557 2.203 . S
Cd1558 O1560 2.411 . S
Cd1558 O1561 2.333 . S
Cd1558 O1562 2.352 . S
Cd1558 O1566 2.277 . S
Cd1558 O1567 2.356 . S
C1559 O1564 1.209 . S
C1559 O1566 1.226 . S
O1560 Cd1556 2.273 . S
O1560 Cd1558 2.411 . S
O1560 C1563 1.320 . S
O1561 Cd1558 2.333 . S
O1561 C1563 1.214 . S
O1562 Cd1558 2.352 . S
O1562 C1565 1.258 . S
C1563 O1560 1.320 . S
C1563 O1561 1.214 . S
O1564 Cd1556 2.277 . S
O1564 C1559 1.209 . S
C1565 O1562 1.258 . S
C1565 O1567 1.282 . S
O1566 Cd1558 2.277 . S
O1566 C1559 1.226 . S
O1567 Cd1558 2.356 . S
O1567 C1565 1.282 . S
C1568 O1569 1.306 . S
C1568 O1571 1.160 . S
O1569 C1568 1.306 . S
O1569 Cd1570 2.228 . S
Cd1570 O1569 2.228 . S
Cd1570 O1574 2.273 . S
Cd1570 O1578 2.277 . S
O1571 C1568 1.160 . S
O1571 Cd1572 2.203 . S
Cd1572 O1571 2.203 . S
Cd1572 O1574 2.411 . S
Cd1572 O1575 2.333 . S
Cd1572 O1576 2.352 . S
Cd1572 O1580 2.277 . S
Cd1572 O1581 2.356 . S
C1573 O1578 1.209 . S
C1573 O1580 1.226 . S
O1574 Cd1570 2.273 . S
O1574 Cd1572 2.411 . S
O1574 C1577 1.320 . S
O1575 Cd1572 2.333 . S
O1575 C1577 1.214 . S
O1576 Cd1572 2.352 . S
O1576 C1579 1.258 . S
C1577 O1574 1.320 . S
C1577 O1575 1.214 . S
O1578 Cd1570 2.277 . S
O1578 C1573 1.209 . S
C1579 O1576 1.258 . S
C1579 O1581 1.282 . S
O1580 Cd1572 2.277 . S
O1580 C1573 1.226 . S
O1581 Cd1572 2.356 . S
O1581 C1579 1.282 . S
C1582 O1583 1.306 . S
C1582 O1585 1.160 . S
O1583 C1582 1.306 . S
O1583 Cd1584 2.228 . S
Cd1584 O1583 2.228 . S
Cd1584 O1588 2.273 . S
Cd1584 O1592 2.277 . S
O1585 C1582 1.160 . S
O1585 Cd1586 2.203 . S
Cd1586 O1585 2.203 . S
Cd1586 O1588 2.411 . S
Cd1586 O1589 2.333 . S
Cd1586 O1590 2.352 . S
Cd1586 O1594 2.277 . S
Cd1586 O1595 2.356 . S
C1587 O1592 1.209 . S
C1587 O1594 1.226 . S
O1588 Cd1584 2.273 . S
O1588 Cd1586 2.411 . S
O1588 C1591 1.320 . S
O1589 Cd1586 2.333 . S
O1589 C1591 1.214 . S
O1590 Cd1586 2.352 . S
O1590 C1593 1.258 . S
C1591 O1588 1.320 . S
C1591 O1589 1.214 . S
O1592 Cd1584 2.277 . S
O1592 C1587 1.209 . S
C1593 O1590 1.258 . S
C1593 O1595 1.282 . S
O1594 Cd1586 2.277 . S
O1594 C1587 1.226 . S
O1595 Cd1586 2.356 . S
O1595 C1593 1.282 . S
C1596 O1597 1.306 . S
C1596 O1599 1.160 . S
O1597 C1596 1.306 . S
O1597 Cd1598 2.228 . S
Cd1598 O1597 2.228 . S
Cd1598 O1602 2.273 . S
Cd1598 O1606 2.277 . S
O1599 C1596 1.160 . S
O1599 Cd1600 2.203 . S
Cd1600 O1599 2.203 . S
Cd1600 O1602 2.411 . S
Cd1600 O1603 2.333 . S
Cd1600 O1604 2.352 . S
Cd1600 O1608 2.277 . S
Cd1600 O1609 2.356 . S
C1601 O1606 1.209 . S
C1601 O1608 1.226 . S
O1602 Cd1598 2.273 . S
O1602 Cd1600 2.411 . S
O1602 C1605 1.320 . S
O1603 Cd1600 2.333 . S
O1603 C1605 1.214 . S
O1604 Cd1600 2.352 . S
O1604 C1607 1.258 . S
C1605 O1602 1.320 . S
C1605 O1603 1.214 . S
O1606 Cd1598 2.277 . S
O1606 C1601 1.209 . S
C1607 O1604 1.258 . S
C1607 O1609 1.282 . S
O1608 Cd1600 2.277 . S
O1608 C1601 1.226 . S
O1609 Cd1600 2.356 . S
O1609 C1607 1.282 . S
C1610 O1611 1.306 . S
C1610 O1613 1.160 . S
O1611 C1610 1.306 . S
O1611 Cd1612 2.228 . S
Cd1612 O1611 2.228 . S
Cd1612 O1616 2.273 . S
Cd1612 O1620 2.277 . S
O1613 C1610 1.160 . S
O1613 Cd1614 2.203 . S
Cd1614 O1613 2.203 . S
Cd1614 O1616 2.411 . S
Cd1614 O1617 2.333 . S
Cd1614 O1618 2.352 . S
Cd1614 O1622 2.277 . S
Cd1614 O1623 2.356 . S
C1615 O1620 1.209 . S
C1615 O1622 1.226 . S
O1616 Cd1612 2.273 . S
O1616 Cd1614 2.411 . S
O1616 C1619 1.320 . S
O1617 Cd1614 2.333 . S
O1617 C1619 1.214 . S
O1618 Cd1614 2.352 . S
O1618 C1621 1.258 . S
C1619 O1616 1.320 . S
C1619 O1617 1.214 . S
O1620 Cd1612 2.277 . S
O1620 C1615 1.209 . S
C1621 O1618 1.258 . S
C1621 O1623 1.282 . S
O1622 Cd1614 2.277 . S
O1622 C1615 1.226 . S
O1623 Cd1614 2.356 . S
O1623 C1621 1.282 . S
C1624 O1625 1.306 . S
C1624 O1627 1.160 . S
O1625 C1624 1.306 . S
O1625 Cd1626 2.228 . S
Cd1626 O1625 2.228 . S
Cd1626 O1630 2.273 . S
Cd1626 O1634 2.277 . S
O1627 C1624 1.160 . S
O1627 Cd1628 2.203 . S
Cd1628 O1627 2.203 . S
Cd1628 O1630 2.411 . S
Cd1628 O1631 2.333 . S
Cd1628 O1632 2.352 . S
Cd1628 O1636 2.277 . S
Cd1628 O1637 2.356 . S
C1629 O1634 1.209 . S
C1629 O1636 1.226 . S
O1630 Cd1626 2.273 . S
O1630 Cd1628 2.411 . S
O1630 C1633 1.320 . S
O1631 Cd1628 2.333 . S
O1631 C1633 1.214 . S
O1632 Cd1628 2.352 . S
O1632 C1635 1.258 . S
C1633 O1630 1.320 . S
C1633 O1631 1.214 . S
O1634 Cd1626 2.277 . S
O1634 C1629 1.209 . S
C1635 O1632 1.258 . S
C1635 O1637 1.282 . S
O1636 Cd1628 2.277 . S
O1636 C1629 1.226 . S
O1637 Cd1628 2.356 . S
O1637 C1635 1.282 . S
C1638 O1639 1.306 . S
C1638 O1641 1.160 . S
O1639 C1638 1.306 . S
O1639 Cd1640 2.228 . S
Cd1640 O1639 2.228 . S
Cd1640 O1644 2.273 . S
Cd1640 O1648 2.277 . S
O1641 C1638 1.160 . S
O1641 Cd1642 2.203 . S
Cd1642 O1641 2.203 . S
Cd1642 O1644 2.411 . S
Cd1642 O1645 2.333 . S
Cd1642 O1646 2.352 . S
Cd1642 O1650 2.277 . S
Cd1642 O1651 2.356 . S
C1643 O1648 1.209 . S
C1643 O1650 1.226 . S
O1644 Cd1640 2.273 . S
O1644 Cd1642 2.411 . S
O1644 C1647 1.320 . S
O1645 Cd1642 2.333 . S
O1645 C1647 1.214 . S
O1646 Cd1642 2.352 . S
O1646 C1649 1.258 . S
C1647 O1644 1.320 . S
C1647 O1645 1.214 . S
O1648 Cd1640 2.277 . S
O1648 C1643 1.209 . S
C1649 O1646 1.258 . S
C1649 O1651 1.282 . S
O1650 Cd1642 2.277 . S
O1650 C1643 1.226 . S
O1651 Cd1642 2.356 . S
O1651 C1649 1.282 . S
C1652 O1653 1.306 . S
C1652 O1655 1.160 . S
O1653 C1652 1.306 . S
O1653 Cd1654 2.228 . S
Cd1654 O1653 2.228 . S
Cd1654 O1658 2.273 . S
Cd1654 O1662 2.277 . S
O1655 C1652 1.160 . S
O1655 Cd1656 2.203 . S
Cd1656 O1655 2.203 . S
Cd1656 O1658 2.411 . S
Cd1656 O1659 2.333 . S
Cd1656 O1660 2.352 . S
Cd1656 O1664 2.277 . S
Cd1656 O1665 2.356 . S
C1657 O1662 1.209 . S
C1657 O1664 1.226 . S
O1658 Cd1654 2.273 . S
O1658 Cd1656 2.411 . S
O1658 C1661 1.320 . S
O1659 Cd1656 2.333 . S
O1659 C1661 1.214 . S
O1660 Cd1656 2.352 . S
O1660 C1663 1.258 . S
C1661 O1658 1.320 . S
C1661 O1659 1.214 . S
O1662 Cd1654 2.277 . S
O1662 C1657 1.209 . S
C1663 O1660 1.258 . S
C1663 O1665 1.282 . S
O1664 Cd1656 2.277 . S
O1664 C1657 1.226 . S
O1665 Cd1656 2.356 . S
O1665 C1663 1.282 . S
C1666 O1667 1.306 . S
C1666 O1669 1.160 . S
O1667 C1666 1.306 . S
O1667 Cd1668 2.228 . S
Cd1668 O1667 2.228 . S
Cd1668 O1672 2.273 . S
Cd1668 O1676 2.277 . S
O1669 C1666 1.160 . S
O1669 Cd1670 2.203 . S
Cd1670 O1669 2.203 . S
Cd1670 O1672 2.411 . S
Cd1670 O1673 2.333 . S
Cd1670 O1674 2.352 . S
Cd1670 O1678 2.277 . S
Cd1670 O1679 2.356 . S
C1671 O1676 1.209 . S
C1671 O1678 1.226 . S
O1672 Cd1668 2.273 . S
O1672 Cd1670 2.411 . S
O1672 C1675 1.320 . S
O1673 Cd1670 2.333 . S
O1673 C1675 1.214 . S
O1674 Cd1670 2.352 . S
O1674 C1677 1.258 . S
C1675 O1672 1.320 . S
C1675 O1673 1.214 . S
O1676 Cd1668 2.277 . S
O1676 C1671 1.209 . S
C1677 O1674 1.258 . S
C1677 O1679 1.282 . S
O1678 Cd1670 2.277 . S
O1678 C1671 1.226 . S
O1679 Cd1670 2.356 . S
O1679 C1677 1.282 . S
C1680 O1681 1.306 . S
C1680 O1683 1.160 . S
O1681 C1680 1.306 . S
O1681 Cd1682 2.228 . S
Cd1682 O1681 2.228 . S
Cd1682 O1686 2.273 . S
Cd1682 O1690 2.277 . S
O1683 C1680 1.160 . S
O1683 Cd1684 2.203 . S
Cd1684 O1683 2.203 . S
Cd1684 O1686 2.411 . S
Cd1684 O1687 2.333 . S
Cd1684 O1688 2.352 . S
Cd1684 O1692 2.277 . S
Cd1684 O1693 2.356 . S
C1685 O1690 1.209 . S
C1685 O1692 1.226 . S
O1686 Cd1682 2.273 . S
O1686 Cd1684 2.411 . S
O1686 C1689 1.320 . S
O1687 Cd1684 2.333 . S
O1687 C1689 1.214 . S
O1688 Cd1684 2.352 . S
O1688 C1691 1.258 . S
C1689 O1686 1.320 . S
C1689 O1687 1.214 . S
O1690 Cd1682 2.277 . S
O1690 C1685 1.209 . S
C1691 O1688 1.258 . S
C1691 O1693 1.282 . S
O1692 Cd1684 2.277 . S
O1692 C1685 1.226 . S
O1693 Cd1684 2.356 . S
O1693 C1691 1.282 . S
C1694 O1695 1.306 . S
C1694 O1697 1.160 . S
O1695 C1694 1.306 . S
O1695 Cd1696 2.228 . S
Cd1696 O1695 2.228 . S
Cd1696 O1700 2.273 . S
Cd1696 O1704 2.277 . S
O1697 C1694 1.160 . S
O1697 Cd1698 2.203 . S
Cd1698 O1697 2.203 . S
Cd1698 O1700 2.411 . S
Cd1698 O1701 2.333 . S
Cd1698 O1702 2.352 . S
Cd1698 O1706 2.277 . S
Cd1698 O1707 2.356 . S
C1699 O1704 1.209 . S
C1699 O1706 1.226 . S
O1700 Cd1696 2.273 . S
O1700 Cd1698 2.411 . S
O1700 C1703 1.320 . S
O1701 Cd1698 2.333 . S
O1701 C1703 1.214 . S
O1702 Cd1698 2.352 . S
O1702 C1705 1.258 . S
C1703 O1700 1.320 . S
C1703 O1701 1.214 . S
O1704 Cd1696 2.277 . S
O1704 C1699 1.209 . S
C1705 O1702 1.258 . S
C1705 O1707 1.282 . S
O1706 Cd1698 2.277 . S
O1706 C1699 1.226 . S
O1707 Cd1698 2.356 . S
O1707 C1705 1.282 . S
C1708 O1709 1.306 . S
C1708 O1711 1.160 . S
O1709 C1708 1.306 . S
O1709 Cd1710 2.228 . S
Cd1710 O1709 2.228 . S
Cd1710 O1714 2.273 . S
Cd1710 O1718 2.277 . S
O1711 C1708 1.160 . S
O1711 Cd1712 2.203 . S
Cd1712 O1711 2.203 . S
Cd1712 O1714 2.411 . S
Cd1712 O1715 2.333 . S
Cd1712 O1716 2.352 . S
Cd1712 O1720 2.277 . S
Cd1712 O1721 2.356 . S
C1713 O1718 1.209 . S
C1713 O1720 1.226 . S
O1714 Cd1710 2.273 . S
O1714 Cd1712 2.411 . S
O1714 C1717 1.320 . S
O1715 Cd1712 2.333 . S
O1715 C1717 1.214 . S
O1716 Cd1712 2.352 . S
O1716 C1719 1.258 . S
C1717 O1714 1.320 . S
C1717 O1715 1.214 . S
O1718 Cd1710 2.277 . S
O1718 C1713 1.209 . S
C1719 O1716 1.258 . S
C1719 O1721 1.282 . S
O1720 Cd1712 2.277 . S
O1720 C1713 1.226 . S
O1721 Cd1712 2.356 . S
O1721 C1719 1.282 . S
C1722 O1723 1.306 . S
C1722 O1725 1.160 . S
O1723 C1722 1.306 . S
O1723 Cd1724 2.228 . S
Cd1724 O1723 2.228 . S
Cd1724 O1728 2.273 . S
Cd1724 O1732 2.277 . S
O1725 C1722 1.160 . S
O1725 Cd1726 2.203 . S
Cd1726 O1725 2.203 . S
Cd1726 O1728 2.411 . S
Cd1726 O1729 2.333 . S
Cd1726 O1730 2.352 . S
Cd1726 O1734 2.277 . S
Cd1726 O1735 2.356 . S
C1727 O1732 1.209 . S
C1727 O1734 1.226 . S
O1728 Cd1724 2.273 . S
O1728 Cd1726 2.411 . S
O1728 C1731 1.320 . S
O1729 Cd1726 2.333 . S
O1729 C1731 1.214 . S
O1730 Cd1726 2.352 . S
O1730 C1733 1.258 . S
C1731 O1728 1.320 . S
C1731 O1729 1.214 . S
O1732 Cd1724 2.277 . S
O1732 C1727 1.209 . S
C1733 O1730 1.258 . S
C1733 O1735 1.282 . S
O1734 Cd1726 2.277 . S
O1734 C1727 1.226 . S
O1735 Cd1726 2.356 . S
O1735 C1733 1.282 . S
C1736 O1737 1.306 . S
C1736 O1739 1.160 . S
O1737 C1736 1.306 . S
O1737 Cd1738 2.228 . S
Cd1738 O1737 2.228 . S
Cd1738 O1742 2.273 . S
Cd1738 O1746 2.277 . S
O1739 C1736 1.160 . S
O1739 Cd1740 2.203 . S
Cd1740 O1739 2.203 . S
Cd1740 O1742 2.411 . S
Cd1740 O1743 2.333 . S
Cd1740 O1744 2.352 . S
Cd1740 O1748 2.277 . S
Cd1740 O1749 2.356 . S
C1741 O1746 1.209 . S
C1741 O1748 1.226 . S
O1742 Cd1738 2.273 . S
O1742 Cd1740 2.411 . S
O1742 C1745 1.320 . S
O1743 Cd1740 2.333 . S
O1743 C1745 1.214 . S
O1744 Cd1740 2.352 . S
O1744 C1747 1.258 . S
C1745 O1742 1.320 . S
C1745 O1743 1.214 . S
O1746 Cd1738 2.277 . S
O1746 C1741 1.209 . S
C1747 O1744 1.258 . S
C1747 O1749 1.282 . S
O1748 Cd1740 2.277 . S
O1748 C1741 1.226 . S
O1749 Cd1740 2.356 . S
O1749 C1747 1.282 . S
C1750 O1751 1.306 . S
C1750 O1753 1.160 . S
O1751 C1750 1.306 . S
O1751 Cd1752 2.228 . S
Cd1752 O1751 2.228 . S
Cd1752 O1756 2.273 . S
Cd1752 O1760 2.277 . S
O1753 C1750 1.160 . S
O1753 Cd1754 2.203 . S
Cd1754 O1753 2.203 . S
Cd1754 O1756 2.411 . S
Cd1754 O1757 2.333 . S
Cd1754 O1758 2.352 . S
Cd1754 O1762 2.277 . S
Cd1754 O1763 2.356 . S
C1755 O1760 1.209 . S
C1755 O1762 1.226 . S
O1756 Cd1752 2.273 . S
O1756 Cd1754 2.411 . S
O1756 C1759 1.320 . S
O1757 Cd1754 2.333 . S
O1757 C1759 1.214 . S
O1758 Cd1754 2.352 . S
O1758 C1761 1.258 . S
C1759 O1756 1.320 . S
C1759 O1757 1.214 . S
O1760 Cd1752 2.277 . S
O1760 C1755 1.209 . S
C1761 O1758 1.258 . S
C1761 O1763 1.282 . S
O1762 Cd1754 2.277 . S
O1762 C1755 1.226 . S
O1763 Cd1754 2.356 . S
O1763 C1761 1.282 . S
C1764 O1765 1.306 . S
C1764 O1767 1.160 . S
O1765 C1764 1.306 . S
O1765 Cd1766 2.228 . S
Cd1766 O1765 2.228 . S
Cd1766 O1770 2.273 . S
Cd1766 O1774 2.277 . S
O1767 C1764 1.160 . S
O1767 Cd1768 2.203 . S
Cd1768 O1767 2.203 . S
Cd1768 O1770 2.411 . S
Cd1768 O1771 2.333 . S
Cd1768 O1772 2.352 . S
Cd1768 O1776 2.277 . S
Cd1768 O1777 2.356 . S
C1769 O1774 1.209 . S
C1769 O1776 1.226 . S
O1770 Cd1766 2.273 . S
O1770 Cd1768 2.411 . S
O1770 C1773 1.320 . S
O1771 Cd1768 2.333 . S
O1771 C1773 1.214 . S
O1772 Cd1768 2.352 . S
O1772 C1775 1.258 . S
C1773 O1770 1.320 . S
C1773 O1771 1.214 . S
O1774 Cd1766 2.277 . S
O1774 C1769 1.209 . S
C1775 O1772 1.258 . S
C1775 O1777 1.282 . S
O1776 Cd1768 2.277 . S
O1776 C1769 1.226 . S
O1777 Cd1768 2.356 . S
O1777 C1775 1.282 . S
C1778 O1779 1.306 . S
C1778 O1781 1.160 . S
O1779 C1778 1.306 . S
O1779 Cd1780 2.228 . S
Cd1780 O1779 2.228 . S
Cd1780 O1784 2.273 . S
Cd1780 O1788 2.277 . S
O1781 C1778 1.160 . S
O1781 Cd1782 2.203 . S
Cd1782 O1781 2.203 . S
Cd1782 O1784 2.411 . S
Cd1782 O1785 2.333 . S
Cd1782 O1786 2.352 . S
Cd1782 O1790 2.277 . S
Cd1782 O1791 2.356 . S
C1783 O1788 1.209 . S
C1783 O1790 1.226 . S
O1784 Cd1780 2.273 . S
O1784 Cd1782 2.411 . S
O1784 C1787 1.320 . S
O1785 Cd1782 2.333 . S
O1785 C1787 1.214 . S
O1786 Cd1782 2.352 . S
O1786 C1789 1.258 . S
C1787 O1784 1.320 . S
C1787 O1785 1.214 . S
O1788 Cd1780 2.277 . S
O1788 C1783 1.209 . S
C1789 O1786 1.258 . S
C1789 O1791 1.282 . S
O1790 Cd1782 2.277 . S
O1790 C1783 1.226 . S
O1791 Cd1782 2.356 . S
O1791 C1789 1.282 . S
C1792 O1793 1.306 . S
C1792 O1795 1.160 . S
O1793 C1792 1.306 . S
O1793 Cd1794 2.228 . S
Cd1794 O1793 2.228 . S
Cd1794 O1798 2.273 . S
Cd1794 O1802 2.277 . S
O1795 C1792 1.160 . S
O1795 Cd1796 2.203 . S
Cd1796 O1795 2.203 . S
Cd1796 O1798 2.411 . S
Cd1796 O1799 2.333 . S
Cd1796 O1800 2.352 . S
Cd1796 O1804 2.277 . S
Cd1796 O1805 2.356 . S
C1797 O1802 1.209 . S
C1797 O1804 1.226 . S
O1798 Cd1794 2.273 . S
O1798 Cd1796 2.411 . S
O1798 C1801 1.320 . S
O1799 Cd1796 2.333 . S
O1799 C1801 1.214 . S
O1800 Cd1796 2.352 . S
O1800 C1803 1.258 . S
C1801 O1798 1.320 . S
C1801 O1799 1.214 . S
O1802 Cd1794 2.277 . S
O1802 C1797 1.209 . S
C1803 O1800 1.258 . S
C1803 O1805 1.282 . S
O1804 Cd1796 2.277 . S
O1804 C1797 1.226 . S
O1805 Cd1796 2.356 . S
O1805 C1803 1.282 . S
C1806 O1807 1.306 . S
C1806 O1809 1.160 . S
O1807 C1806 1.306 . S
O1807 Cd1808 2.228 . S
Cd1808 O1807 2.228 . S
Cd1808 O1812 2.273 . S
Cd1808 O1816 2.277 . S
O1809 C1806 1.160 . S
O1809 Cd1810 2.203 . S
Cd1810 O1809 2.203 . S
Cd1810 O1812 2.411 . S
Cd1810 O1813 2.333 . S
Cd1810 O1814 2.352 . S
Cd1810 O1818 2.277 . S
Cd1810 O1819 2.356 . S
C1811 O1816 1.209 . S
C1811 O1818 1.226 . S
O1812 Cd1808 2.273 . S
O1812 Cd1810 2.411 . S
O1812 C1815 1.320 . S
O1813 Cd1810 2.333 . S
O1813 C1815 1.214 . S
O1814 Cd1810 2.352 . S
O1814 C1817 1.258 . S
C1815 O1812 1.320 . S
C1815 O1813 1.214 . S
O1816 Cd1808 2.277 . S
O1816 C1811 1.209 . S
C1817 O1814 1.258 . S
C1817 O1819 1.282 . S
O1818 Cd1810 2.277 . S
O1818 C1811 1.226 . S
O1819 Cd1810 2.356 . S
O1819 C1817 1.282 . S
C1820 O1821 1.306 . S
C1820 O1823 1.160 . S
O1821 C1820 1.306 . S
O1821 Cd1822 2.228 . S
Cd1822 O1821 2.228 . S
Cd1822 O1826 2.273 . S
Cd1822 O1830 2.277 . S
O1823 C1820 1.160 . S
O1823 Cd1824 2.203 . S
Cd1824 O1823 2.203 . S
Cd1824 O1826 2.411 . S
Cd1824 O1827 2.333 . S
Cd1824 O1828 2.352 . S
Cd1824 O1832 2.277 . S
Cd1824 O1833 2.356 . S
C1825 O1830 1.209 . S
C1825 O1832 1.226 . S
O1826 Cd1822 2.273 . S
O1826 Cd1824 2.411 . S
O1826 C1829 1.320 . S
O1827 Cd1824 2.333 . S
O1827 C1829 1.214 . S
O1828 Cd1824 2.352 . S
O1828 C1831 1.258 . S
C1829 O1826 1.320 . S
C1829 O1827 1.214 . S
O1830 Cd1822 2.277 . S
O1830 C1825 1.209 . S
C1831 O1828 1.258 . S
C1831 O1833 1.282 . S
O1832 Cd1824 2.277 . S
O1832 C1825 1.226 . S
O1833 Cd1824 2.356 . S
O1833 C1831 1.282 . S
C1834 O1835 1.306 . S
C1834 O1837 1.160 . S
O1835 C1834 1.306 . S
O1835 Cd1836 2.228 . S
Cd1836 O1835 2.228 . S
Cd1836 O1840 2.273 . S
Cd1836 O1844 2.277 . S
O1837 C1834 1.160 . S
O1837 Cd1838 2.203 . S
Cd1838 O1837 2.203 . S
Cd1838 O1840 2.411 . S
Cd1838 O1841 2.333 . S
Cd1838 O1842 2.352 . S
Cd1838 O1846 2.277 . S
Cd1838 O1847 2.356 . S
C1839 O1844 1.209 . S
C1839 O1846 1.226 . S
O1840 Cd1836 2.273 . S
O1840 Cd1838 2.411 . S
O1840 C1843 1.320 . S
O1841 Cd1838 2.333 . S
O1841 C1843 1.214 . S
O1842 Cd1838 2.352 . S
O1842 C1845 1.258 . S
C1843 O1840 1.320 . S
C1843 O1841 1.214 . S
O1844 Cd1836 2.277 . S
O1844 C1839 1.209 . S
C1845 O1842 1.258 . S
C1845 O1847 1.282 . S
O1846 Cd1838 2.277 . S
O1846 C1839 1.226 . S
O1847 Cd1838 2.356 . S
O1847 C1845 1.282 . S
C1848 O1849 1.306 . S
C1848 O1851 1.160 . S
O1849 C1848 1.306 . S
O1849 Cd1850 2.228 . S
Cd1850 O1849 2.228 . S
Cd1850 O1854 2.273 . S
Cd1850 O1858 2.277 . S
O1851 C1848 1.160 . S
O1851 Cd1852 2.203 . S
Cd1852 O1851 2.203 . S
Cd1852 O1854 2.411 . S
Cd1852 O1855 2.333 . S
Cd1852 O1856 2.352 . S
Cd1852 O1860 2.277 . S
Cd1852 O1861 2.356 . S
C1853 O1858 1.209 . S
C1853 O1860 1.226 . S
O1854 Cd1850 2.273 . S
O1854 Cd1852 2.411 . S
O1854 C1857 1.320 . S
O1855 Cd1852 2.333 . S
O1855 C1857 1.214 . S
O1856 Cd1852 2.352 . S
O1856 C1859 1.258 . S
C1857 O1854 1.320 . S
C1857 O1855 1.214 . S
O1858 Cd1850 2.277 . S
O1858 C1853 1.209 . S
C1859 O1856 1.258 . S
C1859 O1861 1.282 . S
O1860 Cd1852 2.277 . S
O1860 C1853 1.226 . S
O1861 Cd1852 2.356 . S
O1861 C1859 1.282 . S
C1862 O1863 1.306 . S
C1862 O1865 1.160 . S
O1863 C1862 1.306 . S
O1863 Cd1864 2.228 . S
Cd1864 O1863 2.228 . S
Cd1864 O1868 2.273 . S
Cd1864 O1872 2.277 . S
O1865 C1862 1.160 . S
O1865 Cd1866 2.203 . S
Cd1866 O1865 2.203 . S
Cd1866 O1868 2.411 . S
Cd1866 O1869 2.333 . S
Cd1866 O1870 2.352 . S
Cd1866 O1874 2.277 . S
Cd1866 O1875 2.356 . S
C1867 O1872 1.209 . S
C1867 O1874 1.226 . S
O1868 Cd1864 2.273 . S
O1868 Cd1866 2.411 . S
O1868 C1871 1.320 . S
O1869 Cd1866 2.333 . S
O1869 C1871 1.214 . S
O1870 Cd1866 2.352 . S
O1870 C1873 1.258 . S
C1871 O1868 1.320 . S
C1871 O1869 1.214 . S
O1872 Cd1864 2.277 . S
O1872 C1867 1.209 . S
C1873 O1870 1.258 . S
C1873 O1875 1.282 . S
O1874 Cd1866 2.277 . S
O1874 C1867 1.226 . S
O1875 Cd1866 2.356 . S
O1875 C1873 1.282 . S
C1876 O1877 1.306 . S
C1876 O1879 1.160 . S
O1877 C1876 1.306 . S
O1877 Cd1878 2.228 . S
Cd1878 O1877 2.228 . S
Cd1878 O1882 2.273 . S
Cd1878 O1886 2.277 . S
O1879 C1876 1.160 . S
O1879 Cd1880 2.203 . S
Cd1880 O1879 2.203 . S
Cd1880 O1882 2.411 . S
Cd1880 O1883 2.333 . S
Cd1880 O1884 2.352 . S
Cd1880 O1888 2.277 . S
Cd1880 O1889 2.356 . S
C1881 O1886 1.209 . S
C1881 O1888 1.226 . S
O1882 Cd1878 2.273 . S
O1882 Cd1880 2.411 . S
O1882 C1885 1.320 . S
O1883 Cd1880 2.333 . S
O1883 C1885 1.214 . S
O1884 Cd1880 2.352 . S
O1884 C1887 1.258 . S
C1885 O1882 1.320 . S
C1885 O1883 1.214 . S
O1886 Cd1878 2.277 . S
O1886 C1881 1.209 . S
C1887 O1884 1.258 . S
C1887 O1889 1.282 . S
O1888 Cd1880 2.277 . S
O1888 C1881 1.226 . S
O1889 Cd1880 2.356 . S
O1889 C1887 1.282 . S
C1890 O1891 1.306 . S
C1890 O1893 1.160 . S
O1891 C1890 1.306 . S
O1891 Cd1892 2.228 . S
Cd1892 O1891 2.228 . S
Cd1892 O1896 2.273 . S
Cd1892 O1900 2.277 . S
O1893 C1890 1.160 . S
O1893 Cd1894 2.203 . S
Cd1894 O1893 2.203 . S
Cd1894 O1896 2.411 . S
Cd1894 O1897 2.333 . S
Cd1894 O1898 2.352 . S
Cd1894 O1902 2.277 . S
Cd1894 O1903 2.356 . S
C1895 O1900 1.209 . S
C1895 O1902 1.226 . S
O1896 Cd1892 2.273 . S
O1896 Cd1894 2.411 . S
O1896 C1899 1.320 . S
O1897 Cd1894 2.333 . S
O1897 C1899 1.214 . S
O1898 Cd1894 2.352 . S
O1898 C1901 1.258 . S
C1899 O1896 1.320 . S
C1899 O1897 1.214 . S
O1900 Cd1892 2.277 . S
O1900 C1895 1.209 . S
C1901 O1898 1.258 . S
C1901 O1903 1.282 . S
O1902 Cd1894 2.277 . S
O1902 C1895 1.226 . S
O1903 Cd1894 2.356 . S
O1903 C1901 1.282 . S
C1904 O1905 1.306 . S
C1904 O1907 1.160 . S
O1905 C1904 1.306 . S
O1905 Cd1906 2.228 . S
Cd1906 O1905 2.228 . S
Cd1906 O1910 2.273 . S
Cd1906 O1914 2.277 . S
O1907 C1904 1.160 . S
O1907 Cd1908 2.203 . S
Cd1908 O1907 2.203 . S
Cd1908 O1910 2.411 . S
Cd1908 O1911 2.333 . S
Cd1908 O1912 2.352 . S
Cd1908 O1916 2.277 . S
Cd1908 O1917 2.356 . S
C1909 O1914 1.209 . S
C1909 O1916 1.226 . S
O1910 Cd1906 2.273 . S
O1910 Cd1908 2.411 . S
O1910 C1913 1.320 . S
O1911 Cd1908 2.333 . S
O1911 C1913 1.214 . S
O1912 Cd1908 2.352 . S
O1912 C1915 1.258 . S
C1913 O1910 1.320 . S
C1913 O1911 1.214 . S
O1914 Cd1906 2.277 . S
O1914 C1909 1.209 . S
C1915 O1912 1.258 . S
C1915 O1917 1.282 . S
O1916 Cd1908 2.277 . S
O1916 C1909 1.226 . S
O1917 Cd1908 2.356 . S
O1917 C1915 1.282 . S
C1918 O1919 1.306 . S
C1918 O1921 1.160 . S
O1919 C1918 1.306 . S
O1919 Cd1920 2.228 . S
Cd1920 O1919 2.228 . S
Cd1920 O1924 2.273 . S
Cd1920 O1928 2.277 . S
O1921 C1918 1.160 . S
O1921 Cd1922 2.203 . S
Cd1922 O1921 2.203 . S
Cd1922 O1924 2.411 . S
Cd1922 O1925 2.333 . S
Cd1922 O1926 2.352 . S
Cd1922 O1930 2.277 . S
Cd1922 O1931 2.356 . S
C1923 O1928 1.209 . S
C1923 O1930 1.226 . S
O1924 Cd1920 2.273 . S
O1924 Cd1922 2.411 . S
O1924 C1927 1.320 . S
O1925 Cd1922 2.333 . S
O1925 C1927 1.214 . S
O1926 Cd1922 2.352 . S
O1926 C1929 1.258 . S
C1927 O1924 1.320 . S
C1927 O1925 1.214 . S
O1928 Cd1920 2.277 . S
O1928 C1923 1.209 . S
C1929 O1926 1.258 . S
C1929 O1931 1.282 . S
O1930 Cd1922 2.277 . S
O1930 C1923 1.226 . S
O1931 Cd1922 2.356 . S
O1931 C1929 1.282 . S
C1932 O1933 1.306 . S
C1932 O1935 1.160 . S
O1933 C1932 1.306 . S
O1933 Cd1934 2.228 . S
Cd1934 O1933 2.228 . S
Cd1934 O1938 2.273 . S
Cd1934 O1942 2.277 . S
O1935 C1932 1.160 . S
O1935 Cd1936 2.203 . S
Cd1936 O1935 2.203 . S
Cd1936 O1938 2.411 . S
Cd1936 O1939 2.333 . S
Cd1936 O1940 2.352 . S
Cd1936 O1944 2.277 . S
Cd1936 O1945 2.356 . S
C1937 O1942 1.209 . S
C1937 O1944 1.226 . S
O1938 Cd1934 2.273 . S
O1938 Cd1936 2.411 . S
O1938 C1941 1.320 . S
O1939 Cd1936 2.333 . S
O1939 C1941 1.214 . S
O1940 Cd1936 2.352 . S
O1940 C1943 1.258 . S
C1941 O1938 1.320 . S
C1941 O1939 1.214 . S
O1942 Cd1934 2.277 . S
O1942 C1937 1.209 . S
C1943 O1940 1.258 . S
C1943 O1945 1.282 . S
O1944 Cd1936 2.277 . S
O1944 C1937 1.226 . S
O1945 Cd1936 2.356 . S
O1945 C1943 1.282 . S
C1946 O1947 1.306 . S
C1946 O1949 1.160 . S
O1947 C1946 1.306 . S
O1947 Cd1948 2.228 . S
Cd1948 O1947 2.228 . S
Cd1948 O1952 2.273 . S
Cd1948 O1956 2.277 . S
O1949 C1946 1.160 . S
O1949 Cd1950 2.203 . S
Cd1950 O1949 2.203 . S
Cd1950 O1952 2.411 . S
Cd1950 O1953 2.333 . S
Cd1950 O1954 2.352 . S
Cd1950 O1958 2.277 . S
Cd1950 O1959 2.356 . S
C1951 O1956 1.209 . S
C1951 O1958 1.226 . S
O1952 Cd1948 2.273 . S
O1952 Cd1950 2.411 . S
O1952 C1955 1.320 . S
O1953 Cd1950 2.333 . S
O1953 C1955 1.214 . S
O1954 Cd1950 2.352 . S
O1954 C1957 1.258 . S
C1955 O1952 1.320 . S
C1955 O1953 1.214 . S
O1956 Cd1948 2.277 . S
O1956 C1951 1.209 . S
C1957 O1954 1.258 . S
C1957 O1959 1.282 . S
O1958 Cd1950 2.277 . S
O1958 C1951 1.226 . S
O1959 Cd1950 2.356 . S
O1959 C1957 1.282 . S
C1960 O1961 1.306 . S
C1960 O1963 1.160 . S
O1961 C1960 1.306 . S
O1961 Cd1962 2.228 . S
Cd1962 O1961 2.228 . S
Cd1962 O1966 2.273 . S
Cd1962 O1970 2.277 . S
O1963 C1960 1.160 . S
O1963 Cd1964 2.203 . S
Cd1964 O1963 2.203 . S
Cd1964 O1966 2.411 . S
Cd1964 O1967 2.333 . S
Cd1964 O1968 2.352 . S
Cd1964 O1972 2.277 . S
Cd1964 O1973 2.356 . S
C1965 O1970 1.209 . S
C1965 O1972 1.226 . S
O1966 Cd1962 2.273 . S
O1966 Cd1964 2.411 . S
O1966 C1969 1.320 . S
O1967 Cd1964 2.333 . S
O1967 C1969 1.214 . S
O1968 Cd1964 2.352 . S
O1968 C1971 1.258 . S
C1969 O1966 1.320 . S
C1969 O1967 1.214 . S
O1970 Cd1962 2.277 . S
O1970 C1965 1.209 . S
C1971 O1968 1.258 . S
C1971 O1973 1.282 . S
O1972 Cd1964 2.277 . S
O1972 C1965 1.226 . S
O1973 Cd1964 2.356 . S
O1973 C1971 1.282 . S
C1974 O1975 1.306 . S
C1974 O1977 1.160 . S
O1975 C1974 1.306 . S
O1975 Cd1976 2.228 . S
Cd1976 O1975 2.228 . S
Cd1976 O1980 2.273 . S
Cd1976 O1984 2.277 . S
O1977 C1974 1.160 . S
O1977 Cd1978 2.203 . S
Cd1978 O1977 2.203 . S
Cd1978 O1980 2.411 . S
Cd1978 O1981 2.333 . S
Cd1978 O1982 2.352 . S
Cd1978 O1986 2.277 . S
Cd1978 O1987 2.356 . S
C1979 O1984 1.209 . S
C1979 O1986 1.226 . S
O1980 Cd1976 2.273 . S
O1980 Cd1978 2.411 . S
O1980 C1983 1.320 . S
O1981 Cd1978 2.333 . S
O1981 C1983 1.214 . S
O1982 Cd1978 2.352 . S
O1982 C1985 1.258 . S
C1983 O1980 1.320 . S
C1983 O1981 1.214 . S
O1984 Cd1976 2.277 . S
O1984 C1979 1.209 . S
C1985 O1982 1.258 . S
C1985 O1987 1.282 . S
O1986 Cd1978 2.277 . S
O1986 C1979 1.226 . S
O1987 Cd1978 2.356 . S
O1987 C1985 1.282 . S
C1988 O1989 1.306 . S
C1988 O1991 1.160 . S
O1989 C1988 1.306 . S
O1989 Cd1990 2.228 . S
Cd1990 O1989 2.228 . S
Cd1990 O1994 2.273 . S
Cd1990 O1998 2.277 . S
O1991 C1988 1.160 . S
O1991 Cd1992 2.203 . S
Cd1992 O1991 2.203 . S
Cd1992 O1994 2.411 . S
Cd1992 O1995 2.333 . S
Cd1992 O1996 2.352 . S
Cd1992 O2000 2.277 . S
Cd1992 O2001 2.356 . S
C1993 O1998 1.209 . S
C1993 O2000 1.226 . S
O1994 Cd1990 2.273 . S
O1994 Cd1992 2.411 . S
O1994 C1997 1.320 . S
O1995 Cd1992 2.333 . S
O1995 C1997 1.214 . S
O1996 Cd1992 2.352 . S
O1996 C1999 1.258 . S
C1997 O1994 1.320 . S
C1997 O1995 1.214 . S
O1998 Cd1990 2.277 . S
O1998 C1993 1.209 . S
C1999 O1996 1.258 . S
C1999 O2001 1.282 . S
O2000 Cd1992 2.277 . S
O2000 C1993 1.226 . S
O2001 Cd1992 2.356 . S
O2001 C1999 1.282 . S
C2002 O2003 1.306 . S
C2002 O2005 1.160 . S
O2003 C2002 1.306 . S
O2003 Cd2004 2.228 . S
Cd2004 O2003 2.228 . S
Cd2004 O2008 2.273 . S
Cd2004 O2012 2.277 . S
O2005 C2002 1.160 . S
O2005 Cd2006 2.203 . S
Cd2006 O2005 2.203 . S
Cd2006 O2008 2.411 . S
Cd2006 O2009 2.333 . S
Cd2006 O2010 2.352 . S
Cd2006 O2014 2.277 . S
Cd2006 O2015 2.356 . S
C2007 O2012 1.209 . S
C2007 O2014 1.226 . S
O2008 Cd2004 2.273 . S
O2008 Cd2006 2.411 . S
O2008 C2011 1.320 . S
O2009 Cd2006 2.333 . S
O2009 C2011 1.214 . S
O2010 Cd2006 2.352 . S
O2010 C2013 1.258 . S
C2011 O2008 1.320 . S
C2011 O2009 1.214 . S
O2012 Cd2004 2.277 . S
O2012 C2007 1.209 . S
C2013 O2010 1.258 . S
C2013 O2015 1.282 . S
O2014 Cd2006 2.277 . S
O2014 C2007 1.226 . S
O2015 Cd2006 2.356 . S
O2015 C2013 1.282 . S
C2016 O2017 1.306 . S
C2016 O2019 1.160 . S
O2017 C2016 1.306 . S
O2017 Cd2018 2.228 . S
Cd2018 O2017 2.228 . S
Cd2018 O2022 2.273 . S
Cd2018 O2026 2.277 . S
O2019 C2016 1.160 . S
O2019 Cd2020 2.203 . S
Cd2020 O2019 2.203 . S
Cd2020 O2022 2.411 . S
Cd2020 O2023 2.333 . S
Cd2020 O2024 2.352 . S
Cd2020 O2028 2.277 . S
Cd2020 O2029 2.356 . S
C2021 O2026 1.209 . S
C2021 O2028 1.226 . S
O2022 Cd2018 2.273 . S
O2022 Cd2020 2.411 . S
O2022 C2025 1.320 . S
O2023 Cd2020 2.333 . S
O2023 C2025 1.214 . S
O2024 Cd2020 2.352 . S
O2024 C2027 1.258 . S
C2025 O2022 1.320 . S
C2025 O2023 1.214 . S
O2026 Cd2018 2.277 . S
O2026 C2021 1.209 . S
C2027 O2024 1.258 . S
C2027 O2029 1.282 . S
O2028 Cd2020 2.277 . S
O2028 C2021 1.226 . S
O2029 Cd2020 2.356 . S
O2029 C2027 1.282 . S
C2030 O2031 1.306 . S
C2030 O2033 1.160 . S
O2031 C2030 1.306 . S
O2031 Cd2032 2.228 . S
Cd2032 O2031 2.228 . S
Cd2032 O2036 2.273 . S
Cd2032 O2040 2.277 . S
O2033 C2030 1.160 . S
O2033 Cd2034 2.203 . S
Cd2034 O2033 2.203 . S
Cd2034 O2036 2.411 . S
Cd2034 O2037 2.333 . S
Cd2034 O2038 2.352 . S
Cd2034 O2042 2.277 . S
Cd2034 O2043 2.356 . S
C2035 O2040 1.209 . S
C2035 O2042 1.226 . S
O2036 Cd2032 2.273 . S
O2036 Cd2034 2.411 . S
O2036 C2039 1.320 . S
O2037 Cd2034 2.333 . S
O2037 C2039 1.214 . S
O2038 Cd2034 2.352 . S
O2038 C2041 1.258 . S
C2039 O2036 1.320 . S
C2039 O2037 1.214 . S
O2040 Cd2032 2.277 . S
O2040 C2035 1.209 . S
C2041 O2038 1.258 . S
C2041 O2043 1.282 . S
O2042 Cd2034 2.277 . S
O2042 C2035 1.226 . S
O2043 Cd2034 2.356 . S
O2043 C2041 1.282 . S
C2044 O2045 1.306 . S
C2044 O2047 1.160 . S
O2045 C2044 1.306 . S
O2045 Cd2046 2.228 . S
Cd2046 O2045 2.228 . S
Cd2046 O2050 2.273 . S
Cd2046 O2054 2.277 . S
O2047 C2044 1.160 . S
O2047 Cd2048 2.203 . S
Cd2048 O2047 2.203 . S
Cd2048 O2050 2.411 . S
Cd2048 O2051 2.333 . S
Cd2048 O2052 2.352 . S
Cd2048 O2056 2.277 . S
Cd2048 O2057 2.356 . S
C2049 O2054 1.209 . S
C2049 O2056 1.226 . S
O2050 Cd2046 2.273 . S
O2050 Cd2048 2.411 . S
O2050 C2053 1.320 . S
O2051 Cd2048 2.333 . S
O2051 C2053 1.214 . S
O2052 Cd2048 2.352 . S
O2052 C2055 1.258 . S
C2053 O2050 1.320 . S
C2053 O2051 1.214 . S
O2054 Cd2046 2.277 . S
O2054 C2049 1.209 . S
C2055 O2052 1.258 . S
C2055 O2057 1.282 . S
O2056 Cd2048 2.277 . S
O2056 C2049 1.226 . S
O2057 Cd2048 2.356 . S
O2057 C2055 1.282 . S
C2058 O2059 1.306 . S
C2058 O2061 1.160 . S
O2059 C2058 1.306 . S
O2059 Cd2060 2.228 . S
Cd2060 O2059 2.228 . S
Cd2060 O2064 2.273 . S
Cd2060 O2068 2.277 . S
O2061 C2058 1.160 . S
O2061 Cd2062 2.203 . S
Cd2062 O2061 2.203 . S
Cd2062 O2064 2.411 . S
Cd2062 O2065 2.333 . S
Cd2062 O2066 2.352 . S
Cd2062 O2070 2.277 . S
Cd2062 O2071 2.356 . S
C2063 O2068 1.209 . S
C2063 O2070 1.226 . S
O2064 Cd2060 2.273 . S
O2064 Cd2062 2.411 . S
O2064 C2067 1.320 . S
O2065 Cd2062 2.333 . S
O2065 C2067 1.214 . S
O2066 Cd2062 2.352 . S
O2066 C2069 1.258 . S
C2067 O2064 1.320 . S
C2067 O2065 1.214 . S
O2068 Cd2060 2.277 . S
O2068 C2063 1.209 . S
C2069 O2066 1.258 . S
C2069 O2071 1.282 . S
O2070 Cd2062 2.277 . S
O2070 C2063 1.226 . S
O2071 Cd2062 2.356 . S
O2071 C2069 1.282 . S
C2072 O2073 1.306 . S
C2072 O2075 1.160 . S
O2073 C2072 1.306 . S
O2073 Cd2074 2.228 . S
Cd2074 O2073 2.228 . S
Cd2074 O2078 2.273 . S
Cd2074 O2082 2.277 . S
O2075 C2072 1.160 . S
O2075 Cd2076 2.203 . S
Cd2076 O2075 2.203 . S
Cd2076 O2078 2.411 . S
Cd2076 O2079 2.333 . S
Cd2076 O2080 2.352 . S
Cd2076 O2084 2.277 . S
Cd2076 O2085 2.356 . S
C2077 O2082 1.209 . S
C2077 O2084 1.226 . S
O2078 Cd2074 2.273 . S
O2078 Cd2076 2.411 . S
O2078 C2081 1.320 . S
O2079 Cd2076 2.333 . S
O2079 C2081 1.214 . S
O2080 Cd2076 2.352 . S
O2080 C2083 1.258 . S
C2081 O2078 1.320 . S
C2081 O2079 1.214 . S
O2082 Cd2074 2.277 . S
O2082 C2077 1.209 . S
C2083 O2080 1.258 . S
C2083 O2085 1.282 . S
O2084 Cd2076 2.277 . S
O2084 C2077 1.226 . S
O2085 Cd2076 2.356 . S
O2085 C2083 1.282 . S
C2086 O2087 1.306 . S
C2086 O2089 1.160 . S
O2087 C2086 1.306 . S
O2087 Cd2088 2.228 . S
Cd2088 O2087 2.228 . S
Cd2088 O2092 2.273 . S
Cd2088 O2096 2.277 . S
O2089 C2086 1.160 . S
O2089 Cd2090 2.203 . S
Cd2090 O2089 2.203 . S
Cd2090 O2092 2.411 . S
Cd2090 O2093 2.333 . S
Cd2090 O2094 2.352 . S
Cd2090 O2098 2.277 . S
Cd2090 O2099 2.356 . S
C2091 O2096 1.209 . S
C2091 O2098 1.226 . S
O2092 Cd2088 2.273 . S
O2092 Cd2090 2.411 . S
O2092 C2095 1.320 . S
O2093 Cd2090 2.333 . S
O2093 C2095 1.214 . S
O2094 Cd2090 2.352 . S
O2094 C2097 1.258 . S
C2095 O2092 1.320 . S
C2095 O2093 1.214 . S
O2096 Cd2088 2.277 . S
O2096 C2091 1.209 . S
C2097 O2094 1.258 . S
C2097 O2099 1.282 . S
O2098 Cd2090 2.277 . S
O2098 C2091 1.226 . S
O2099 Cd2090 2.356 . S
O2099 C2097 1.282 . S
C2100 O2101 1.306 . S
C2100 O2103 1.160 . S
O2101 C2100 1.306 . S
O2101 Cd2102 2.228 . S
Cd2102 O2101 2.228 . S
Cd2102 O2106 2.273 . S
Cd2102 O2110 2.277 . S
O2103 C2100 1.160 . S
O2103 Cd2104 2.203 . S
Cd2104 O2103 2.203 . S
Cd2104 O2106 2.411 . S
Cd2104 O2107 2.333 . S
Cd2104 O2108 2.352 . S
Cd2104 O2112 2.277 . S
Cd2104 O2113 2.356 . S
C2105 O2110 1.209 . S
C2105 O2112 1.226 . S
O2106 Cd2102 2.273 . S
O2106 Cd2104 2.411 . S
O2106 C2109 1.320 . S
O2107 Cd2104 2.333 . S
O2107 C2109 1.214 . S
O2108 Cd2104 2.352 . S
O2108 C2111 1.258 . S
C2109 O2106 1.320 . S
C2109 O2107 1.214 . S
O2110 Cd2102 2.277 . S
O2110 C2105 1.209 . S
C2111 O2108 1.258 . S
C2111 O2113 1.282 . S
O2112 Cd2104 2.277 . S
O2112 C2105 1.226 . S
O2113 Cd2104 2.356 . S
O2113 C2111 1.282 . S
C2114 O2115 1.306 . S
C2114 O2117 1.160 . S
O2115 C2114 1.306 . S
O2115 Cd2116 2.228 . S
Cd2116 O2115 2.228 . S
Cd2116 O2120 2.273 . S
Cd2116 O2124 2.277 . S
O2117 C2114 1.160 . S
O2117 Cd2118 2.203 . S
Cd2118 O2117 2.203 . S
Cd2118 O2120 2.411 . S
Cd2118 O2121 2.333 . S
Cd2118 O2122 2.352 . S
Cd2118 O2126 2.277 . S
Cd2118 O2127 2.356 . S
C2119 O2124 1.209 . S
C2119 O2126 1.226 . S
O2120 Cd2116 2.273 . S
O2120 Cd2118 2.411 . S
O2120 C2123 1.320 . S
O2121 Cd2118 2.333 . S
O2121 C2123 1.214 . S
O2122 Cd2118 2.352 . S
O2122 C2125 1.258 . S
C2123 O2120 1.320 . S
C2123 O2121 1.214 . S
O2124 Cd2116 2.277 . S
O2124 C2119 1.209 . S
C2125 O2122 1.258 . S
C2125 O2127 1.282 . S
O2126 Cd2118 2.277 . S
O2126 C2119 1.226 . S
O2127 Cd2118 2.356 . S
O2127 C2125 1.282 . S
C2128 O2129 1.306 . S
C2128 O2131 1.160 . S
O2129 C2128 1.306 . S
O2129 Cd2130 2.228 . S
Cd2130 O2129 2.228 . S
Cd2130 O2134 2.273 . S
Cd2130 O2138 2.277 . S
O2131 C2128 1.160 . S
O2131 Cd2132 2.203 . S
Cd2132 O2131 2.203 . S
Cd2132 O2134 2.411 . S
Cd2132 O2135 2.333 . S
Cd2132 O2136 2.352 . S
Cd2132 O2140 2.277 . S
Cd2132 O2141 2.356 . S
C2133 O2138 1.209 . S
C2133 O2140 1.226 . S
O2134 Cd2130 2.273 . S
O2134 Cd2132 2.411 . S
O2134 C2137 1.320 . S
O2135 Cd2132 2.333 . S
O2135 C2137 1.214 . S
O2136 Cd2132 2.352 . S
O2136 C2139 1.258 . S
C2137 O2134 1.320 . S
C2137 O2135 1.214 . S
O2138 Cd2130 2.277 . S
O2138 C2133 1.209 . S
C2139 O2136 1.258 . S
C2139 O2141 1.282 . S
O2140 Cd2132 2.277 . S
O2140 C2133 1.226 . S
O2141 Cd2132 2.356 . S
O2141 C2139 1.282 . S
C2142 O2143 1.306 . S
C2142 O2145 1.160 . S
O2143 C2142 1.306 . S
O2143 Cd2144 2.228 . S
Cd2144 O2143 2.228 . S
Cd2144 O2148 2.273 . S
Cd2144 O2152 2.277 . S
O2145 C2142 1.160 . S
O2145 Cd2146 2.203 . S
Cd2146 O2145 2.203 . S
Cd2146 O2148 2.411 . S
Cd2146 O2149 2.333 . S
Cd2146 O2150 2.352 . S
Cd2146 O2154 2.277 . S
Cd2146 O2155 2.356 . S
C2147 O2152 1.209 . S
C2147 O2154 1.226 . S
O2148 Cd2144 2.273 . S
O2148 Cd2146 2.411 . S
O2148 C2151 1.320 . S
O2149 Cd2146 2.333 . S
O2149 C2151 1.214 . S
O2150 Cd2146 2.352 . S
O2150 C2153 1.258 . S
C2151 O2148 1.320 . S
C2151 O2149 1.214 . S
O2152 Cd2144 2.277 . S
O2152 C2147 1.209 . S
C2153 O2150 1.258 . S
C2153 O2155 1.282 . S
O2154 Cd2146 2.277 . S
O2154 C2147 1.226 . S
O2155 Cd2146 2.356 . S
O2155 C2153 1.282 . S
C2156 O2157 1.306 . S
C2156 O2159 1.160 . S
O2157 C2156 1.306 . S
O2157 Cd2158 2.228 . S
Cd2158 O2157 2.228 . S
Cd2158 O2162 2.273 . S
Cd2158 O2166 2.277 . S
O2159 C2156 1.160 . S
O2159 Cd2160 2.203 . S
Cd2160 O2159 2.203 . S
Cd2160 O2162 2.411 . S
Cd2160 O2163 2.333 . S
Cd2160 O2164 2.352 . S
Cd2160 O2168 2.277 . S
Cd2160 O2169 2.356 . S
C2161 O2166 1.209 . S
C2161 O2168 1.226 . S
O2162 Cd2158 2.273 . S
O2162 Cd2160 2.411 . S
O2162 C2165 1.320 . S
O2163 Cd2160 2.333 . S
O2163 C2165 1.214 . S
O2164 Cd2160 2.352 . S
O2164 C2167 1.258 . S
C2165 O2162 1.320 . S
C2165 O2163 1.214 . S
O2166 Cd2158 2.277 . S
O2166 C2161 1.209 . S
C2167 O2164 1.258 . S
C2167 O2169 1.282 . S
O2168 Cd2160 2.277 . S
O2168 C2161 1.226 . S
O2169 Cd2160 2.356 . S
O2169 C2167 1.282 . S
C2170 O2171 1.306 . S
C2170 O2173 1.160 . S
O2171 C2170 1.306 . S
O2171 Cd2172 2.228 . S
Cd2172 O2171 2.228 . S
Cd2172 O2176 2.273 . S
Cd2172 O2180 2.277 . S
O2173 C2170 1.160 . S
O2173 Cd2174 2.203 . S
Cd2174 O2173 2.203 . S
Cd2174 O2176 2.411 . S
Cd2174 O2177 2.333 . S
Cd2174 O2178 2.352 . S
Cd2174 O2182 2.277 . S
Cd2174 O2183 2.356 . S
C2175 O2180 1.209 . S
C2175 O2182 1.226 . S
O2176 Cd2172 2.273 . S
O2176 Cd2174 2.411 . S
O2176 C2179 1.320 . S
O2177 Cd2174 2.333 . S
O2177 C2179 1.214 . S
O2178 Cd2174 2.352 . S
O2178 C2181 1.258 . S
C2179 O2176 1.320 . S
C2179 O2177 1.214 . S
O2180 Cd2172 2.277 . S
O2180 C2175 1.209 . S
C2181 O2178 1.258 . S
C2181 O2183 1.282 . S
O2182 Cd2174 2.277 . S
O2182 C2175 1.226 . S
O2183 Cd2174 2.356 . S
O2183 C2181 1.282 . S
C2184 O2185 1.306 . S
C2184 O2187 1.160 . S
O2185 C2184 1.306 . S
O2185 Cd2186 2.228 . S
Cd2186 O2185 2.228 . S
Cd2186 O2190 2.273 . S
Cd2186 O2194 2.277 . S
O2187 C2184 1.160 . S
O2187 Cd2188 2.203 . S
Cd2188 O2187 2.203 . S
Cd2188 O2190 2.411 . S
Cd2188 O2191 2.333 . S
Cd2188 O2192 2.352 . S
Cd2188 O2196 2.277 . S
Cd2188 O2197 2.356 . S
C2189 O2194 1.209 . S
C2189 O2196 1.226 . S
O2190 Cd2186 2.273 . S
O2190 Cd2188 2.411 . S
O2190 C2193 1.320 . S
O2191 Cd2188 2.333 . S
O2191 C2193 1.214 . S
O2192 Cd2188 2.352 . S
O2192 C2195 1.258 . S
C2193 O2190 1.320 . S
C2193 O2191 1.214 . S
O2194 Cd2186 2.277 . S
O2194 C2189 1.209 . S
C2195 O2192 1.258 . S
C2195 O2197 1.282 . S
O2196 Cd2188 2.277 . S
O2196 C2189 1.226 . S
O2197 Cd2188 2.356 . S
O2197 C2195 1.282 . S
C2198 O2199 1.306 . S
C2198 O2201 1.160 . S
O2199 C2198 1.306 . S
O2199 Cd2200 2.228 . S
Cd2200 O2199 2.228 . S
Cd2200 O2204 2.273 . S
Cd2200 O2208 2.277 . S
O2201 C2198 1.160 . S
O2201 Cd2202 2.203 . S
Cd2202 O2201 2.203 . S
Cd2202 O2204 2.411 . S
Cd2202 O2205 2.333 . S
Cd2202 O2206 2.352 . S
Cd2202 O2210 2.277 . S
Cd2202 O2211 2.356 . S
C2203 O2208 1.209 . S
C2203 O2210 1.226 . S
O2204 Cd2200 2.273 . S
O2204 Cd2202 2.411 . S
O2204 C2207 1.320 . S
O2205 Cd2202 2.333 . S
O2205 C2207 1.214 . S
O2206 Cd2202 2.352 . S
O2206 C2209 1.258 . S
C2207 O2204 1.320 . S
C2207 O2205 1.214 . S
O2208 Cd2200 2.277 . S
O2208 C2203 1.209 . S
C2209 O2206 1.258 . S
C2209 O2211 1.282 . S
O2210 Cd2202 2.277 . S
O2210 C2203 1.226 . S
O2211 Cd2202 2.356 . S
O2211 C2209 1.282 . S
C2212 O2213 1.306 . S
C2212 O2215 1.160 . S
O2213 C2212 1.306 . S
O2213 Cd2214 2.228 . S
Cd2214 O2213 2.228 . S
Cd2214 O2218 2.273 . S
Cd2214 O2222 2.277 . S
O2215 C2212 1.160 . S
O2215 Cd2216 2.203 . S
Cd2216 O2215 2.203 . S
Cd2216 O2218 2.411 . S
Cd2216 O2219 2.333 . S
Cd2216 O2220 2.352 . S
Cd2216 O2224 2.277 . S
Cd2216 O2225 2.356 . S
C2217 O2222 1.209 . S
C2217 O2224 1.226 . S
O2218 Cd2214 2.273 . S
O2218 Cd2216 2.411 . S
O2218 C2221 1.320 . S
O2219 Cd2216 2.333 . S
O2219 C2221 1.214 . S
O2220 Cd2216 2.352 . S
O2220 C2223 1.258 . S
C2221 O2218 1.320 . S
C2221 O2219 1.214 . S
O2222 Cd2214 2.277 . S
O2222 C2217 1.209 . S
C2223 O2220 1.258 . S
C2223 O2225 1.282 . S
O2224 Cd2216 2.277 . S
O2224 C2217 1.226 . S
O2225 Cd2216 2.356 . S
O2225 C2223 1.282 . S
C2226 O2227 1.306 . S
C2226 O2229 1.160 . S
O2227 C2226 1.306 . S
O2227 Cd2228 2.228 . S
Cd2228 O2227 2.228 . S
Cd2228 O2232 2.273 . S
Cd2228 O2236 2.277 . S
O2229 C2226 1.160 . S
O2229 Cd2230 2.203 . S
Cd2230 O2229 2.203 . S
Cd2230 O2232 2.411 . S
Cd2230 O2233 2.333 . S
Cd2230 O2234 2.352 . S
Cd2230 O2238 2.277 . S
Cd2230 O2239 2.356 . S
C2231 O2236 1.209 . S
C2231 O2238 1.226 . S
O2232 Cd2228 2.273 . S
O2232 Cd2230 2.411 . S
O2232 C2235 1.320 . S
O2233 Cd2230 2.333 . S
O2233 C2235 1.214 . S
O2234 Cd2230 2.352 . S
O2234 C2237 1.258 . S
C2235 O2232 1.320 . S
C2235 O2233 1.214 . S
O2236 Cd2228 2.277 . S
O2236 C2231 1.209 . S
C2237 O2234 1.258 . S
C2237 O2239 1.282 . S
O2238 Cd2230 2.277 . S
O2238 C2231 1.226 . S
O2239 Cd2230 2.356 . S
O2239 C2237 1.282 . S
C2240 O2241 1.306 . S
C2240 O2243 1.160 . S
O2241 C2240 1.306 . S
O2241 Cd2242 2.228 . S
Cd2242 O2241 2.228 . S
Cd2242 O2246 2.273 . S
Cd2242 O2250 2.277 . S
O2243 C2240 1.160 . S
O2243 Cd2244 2.203 . S
Cd2244 O2243 2.203 . S
Cd2244 O2246 2.411 . S
Cd2244 O2247 2.333 . S
Cd2244 O2248 2.352 . S
Cd2244 O2252 2.277 . S
Cd2244 O2253 2.356 . S
C2245 O2250 1.209 . S
C2245 O2252 1.226 . S
O2246 Cd2242 2.273 . S
O2246 Cd2244 2.411 . S
O2246 C2249 1.320 . S
O2247 Cd2244 2.333 . S
O2247 C2249 1.214 . S
O2248 Cd2244 2.352 . S
O2248 C2251 1.258 . S
C2249 O2246 1.320 . S
C2249 O2247 1.214 . S
O2250 Cd2242 2.277 . S
O2250 C2245 1.209 . S
C2251 O2248 1.258 . S
C2251 O2253 1.282 . S
O2252 Cd2244 2.277 . S
O2252 C2245 1.226 . S
O2253 Cd2244 2.356 . S
O2253 C2251 1.282 . S
C2254 O2255 1.306 . S
C2254 O2257 1.160 . S
O2255 C2254 1.306 . S
O2255 Cd2256 2.228 . S
Cd2256 O2255 2.228 . S
Cd2256 O2260 2.273 . S
Cd2256 O2264 2.277 . S
O2257 C2254 1.160 . S
O2257 Cd2258 2.203 . S
Cd2258 O2257 2.203 . S
Cd2258 O2260 2.411 . S
Cd2258 O2261 2.333 . S
Cd2258 O2262 2.352 . S
Cd2258 O2266 2.277 . S
Cd2258 O2267 2.356 . S
C2259 O2264 1.209 . S
C2259 O2266 1.226 . S
O2260 Cd2256 2.273 . S
O2260 Cd2258 2.411 . S
O2260 C2263 1.320 . S
O2261 Cd2258 2.333 . S
O2261 C2263 1.214 . S
O2262 Cd2258 2.352 . S
O2262 C2265 1.258 . S
C2263 O2260 1.320 . S
C2263 O2261 1.214 . S
O2264 Cd2256 2.277 . S
O2264 C2259 1.209 . S
C2265 O2262 1.258 . S
C2265 O2267 1.282 . S
O2266 Cd2258 2.277 . S
O2266 C2259 1.226 . S
O2267 Cd2258 2.356 . S
O2267 C2265 1.282 . S
C2268 O2269 1.306 . S
C2268 O2271 1.160 . S
O2269 C2268 1.306 . S
O2269 Cd2270 2.228 . S
Cd2270 O2269 2.228 . S
Cd2270 O2274 2.273 . S
Cd2270 O2278 2.277 . S
O2271 C2268 1.160 . S
O2271 Cd2272 2.203 . S
Cd2272 O2271 2.203 . S
Cd2272 O2274 2.411 . S
Cd2272 O2275 2.333 . S
Cd2272 O2276 2.352 . S
Cd2272 O2280 2.277 . S
Cd2272 O2281 2.356 . S
C2273 O2278 1.209 . S
C2273 O2280 1.226 . S
O2274 Cd2270 2.273 . S
O2274 Cd2272 2.411 . S
O2274 C2277 1.320 . S
O2275 Cd2272 2.333 . S
O2275 C2277 1.214 . S
O2276 Cd2272 2.352 . S
O2276 C2279 1.258 . S
C2277 O2274 1.320 . S
C2277 O2275 1.214 . S
O2278 Cd2270 2.277 . S
O2278 C2273 1.209 . S
C2279 O2276 1.258 . S
C2279 O2281 1.282 . S
O2280 Cd2272 2.277 . S
O2280 C2273 1.226 . S
O2281 Cd2272 2.356 . S
O2281 C2279 1.282 . S
C2282 O2283 1.306 . S
C2282 O2285 1.160 . S
O2283 C2282 1.306 . S
O2283 Cd2284 2.228 . S
Cd2284 O2283 2.228 . S
Cd2284 O2288 2.273 . S
Cd2284 O2292 2.277 . S
O2285 C2282 1.160 . S
O2285 Cd2286 2.203 . S
Cd2286 O2285 2.203 . S
Cd2286 O2288 2.411 . S
Cd2286 O2289 2.333 . S
Cd2286 O2290 2.352 . S
Cd2286 O2294 2.277 . S
Cd2286 O2295 2.356 . S
C2287 O2292 1.209 . S
C2287 O2294 1.226 . S
O2288 Cd2284 2.273 . S
O2288 Cd2286 2.411 . S
O2288 C2291 1.320 . S
O2289 Cd2286 2.333 . S
O2289 C2291 1.214 . S
O2290 Cd2286 2.352 . S
O2290 C2293 1.258 . S
C2291 O2288 1.320 . S
C2291 O2289 1.214 . S
O2292 Cd2284 2.277 . S
O2292 C2287 1.209 . S
C2293 O2290 1.258 . S
C2293 O2295 1.282 . S
O2294 Cd2286 2.277 . S
O2294 C2287 1.226 . S
O2295 Cd2286 2.356 . S
O2295 C2293 1.282 . S
C2296 O2297 1.306 . S
C2296 O2299 1.160 . S
O2297 C2296 1.306 . S
O2297 Cd2298 2.228 . S
Cd2298 O2297 2.228 . S
Cd2298 O2302 2.273 . S
Cd2298 O2306 2.277 . S
O2299 C2296 1.160 . S
O2299 Cd2300 2.203 . S
Cd2300 O2299 2.203 . S
Cd2300 O2302 2.411 . S
Cd2300 O2303 2.333 . S
Cd2300 O2304 2.352 . S
Cd2300 O2308 2.277 . S
Cd2300 O2309 2.356 . S
C2301 O2306 1.209 . S
C2301 O2308 1.226 . S
O2302 Cd2298 2.273 . S
O2302 Cd2300 2.411 . S
O2302 C2305 1.320 . S
O2303 Cd2300 2.333 . S
O2303 C2305 1.214 . S
O2304 Cd2300 2.352 . S
O2304 C2307 1.258 . S
C2305 O2302 1.320 . S
C2305 O2303 1.214 . S
O2306 Cd2298 2.277 . S
O2306 C2301 1.209 . S
C2307 O2304 1.258 . S
C2307 O2309 1.282 . S
O2308 Cd2300 2.277 . S
O2308 C2301 1.226 . S
O2309 Cd2300 2.356 . S
O2309 C2307 1.282 . S
C2310 O2311 1.306 . S
C2310 O2313 1.160 . S
O2311 C2310 1.306 . S
O2311 Cd2312 2.228 . S
Cd2312 O2311 2.228 . S
Cd2312 O2316 2.273 . S
Cd2312 O2320 2.277 . S
O2313 C2310 1.160 . S
O2313 Cd2314 2.203 . S
Cd2314 O2313 2.203 . S
Cd2314 O2316 2.411 . S
Cd2314 O2317 2.333 . S
Cd2314 O2318 2.352 . S
Cd2314 O2322 2.277 . S
Cd2314 O2323 2.356 . S
C2315 O2320 1.209 . S
C2315 O2322 1.226 . S
O2316 Cd2312 2.273 . S
O2316 Cd2314 2.411 . S
O2316 C2319 1.320 . S
O2317 Cd2314 2.333 . S
O2317 C2319 1.214 . S
O2318 Cd2314 2.352 . S
O2318 C2321 1.258 . S
C2319 O2316 1.320 . S
C2319 O2317 1.214 . S
O2320 Cd2312 2.277 . S
O2320 C2315 1.209 . S
C2321 O2318 1.258 . S
C2321 O2323 1.282 . S
O2322 Cd2314 2.277 . S
O2322 C2315 1.226 . S
O2323 Cd2314 2.356 . S
O2323 C2321 1.282 . S
C2324 O2325 1.306 . S
C2324 O2327 1.160 . S
O2325 C2324 1.306 . S
O2325 Cd2326 2.228 . S
Cd2326 O2325 2.228 . S
Cd2326 O2330 2.273 . S
Cd2326 O2334 2.277 . S
O2327 C2324 1.160 . S
O2327 Cd2328 2.203 . S
Cd2328 O2327 2.203 . S
Cd2328 O2330 2.411 . S
Cd2328 O2331 2.333 . S
Cd2328 O2332 2.352 . S
Cd2328 O2336 2.277 . S
Cd2328 O2337 2.356 . S
C2329 O2334 1.209 . S
C2329 O2336 1.226 . S
O2330 Cd2326 2.273 . S
O2330 Cd2328 2.411 . S
O2330 C2333 1.320 . S
O2331 Cd2328 2.333 . S
O2331 C2333 1.214 . S
O2332 Cd2328 2.352 . S
O2332 C2335 1.258 . S
C2333 O2330 1.320 . S
C2333 O2331 1.214 . S
O2334 Cd2326 2.277 . S
O2334 C2329 1.209 . S
C2335 O2332 1.258 . S
C2335 O2337 1.282 . S
O2336 Cd2328 2.277 . S
O2336 C2329 1.226 . S
O2337 Cd2328 2.356 . S
O2337 C2335 1.282 . S
C2338 O2339 1.306 . S
C2338 O2341 1.160 . S
O2339 C2338 1.306 . S
O2339 Cd2340 2.228 . S
Cd2340 O2339 2.228 . S
Cd2340 O2344 2.273 . S
Cd2340 O2348 2.277 . S
O2341 C2338 1.160 . S
O2341 Cd2342 2.203 . S
Cd2342 O2341 2.203 . S
Cd2342 O2344 2.411 . S
Cd2342 O2345 2.333 . S
Cd2342 O2346 2.352 . S
Cd2342 O2350 2.277 . S
Cd2342 O2351 2.356 . S
C2343 O2348 1.209 . S
C2343 O2350 1.226 . S
O2344 Cd2340 2.273 . S
O2344 Cd2342 2.411 . S
O2344 C2347 1.320 . S
O2345 Cd2342 2.333 . S
O2345 C2347 1.214 . S
O2346 Cd2342 2.352 . S
O2346 C2349 1.258 . S
C2347 O2344 1.320 . S
C2347 O2345 1.214 . S
O2348 Cd2340 2.277 . S
O2348 C2343 1.209 . S
C2349 O2346 1.258 . S
C2349 O2351 1.282 . S
O2350 Cd2342 2.277 . S
O2350 C2343 1.226 . S
O2351 Cd2342 2.356 . S
O2351 C2349 1.282 . S
C2352 O2353 1.306 . S
C2352 O2355 1.160 . S
O2353 C2352 1.306 . S
O2353 Cd2354 2.228 . S
Cd2354 O2353 2.228 . S
Cd2354 O2358 2.273 . S
Cd2354 O2362 2.277 . S
O2355 C2352 1.160 . S
O2355 Cd2356 2.203 . S
Cd2356 O2355 2.203 . S
Cd2356 O2358 2.411 . S
Cd2356 O2359 2.333 . S
Cd2356 O2360 2.352 . S
Cd2356 O2364 2.277 . S
Cd2356 O2365 2.356 . S
C2357 O2362 1.209 . S
C2357 O2364 1.226 . S
O2358 Cd2354 2.273 . S
O2358 Cd2356 2.411 . S
O2358 C2361 1.320 . S
O2359 Cd2356 2.333 . S
O2359 C2361 1.214 . S
O2360 Cd2356 2.352 . S
O2360 C2363 1.258 . S
C2361 O2358 1.320 . S
C2361 O2359 1.214 . S
O2362 Cd2354 2.277 . S
O2362 C2357 1.209 . S
C2363 O2360 1.258 . S
C2363 O2365 1.282 . S
O2364 Cd2356 2.277 . S
O2364 C2357 1.226 . S
O2365 Cd2356 2.356 . S
O2365 C2363 1.282 . S
C2366 O2367 1.306 . S
C2366 O2369 1.160 . S
O2367 C2366 1.306 . S
O2367 Cd2368 2.228 . S
Cd2368 O2367 2.228 . S
Cd2368 O2372 2.273 . S
Cd2368 O2376 2.277 . S
O2369 C2366 1.160 . S
O2369 Cd2370 2.203 . S
Cd2370 O2369 2.203 . S
Cd2370 O2372 2.411 . S
Cd2370 O2373 2.333 . S
Cd2370 O2374 2.352 . S
Cd2370 O2378 2.277 . S
Cd2370 O2379 2.356 . S
C2371 O2376 1.209 . S
C2371 O2378 1.226 . S
O2372 Cd2368 2.273 . S
O2372 Cd2370 2.411 . S
O2372 C2375 1.320 . S
O2373 Cd2370 2.333 . S
O2373 C2375 1.214 . S
O2374 Cd2370 2.352 . S
O2374 C2377 1.258 . S
C2375 O2372 1.320 . S
C2375 O2373 1.214 . S
O2376 Cd2368 2.277 . S
O2376 C2371 1.209 . S
C2377 O2374 1.258 . S
C2377 O2379 1.282 . S
O2378 Cd2370 2.277 . S
O2378 C2371 1.226 . S
O2379 Cd2370 2.356 . S
O2379 C2377 1.282 . S
C2380 O2381 1.306 . S
C2380 O2383 1.160 . S
O2381 C2380 1.306 . S
O2381 Cd2382 2.228 . S
Cd2382 O2381 2.228 . S
Cd2382 O2386 2.273 . S
Cd2382 O2390 2.277 . S
O2383 C2380 1.160 . S
O2383 Cd2384 2.203 . S
Cd2384 O2383 2.203 . S
Cd2384 O2386 2.411 . S
Cd2384 O2387 2.333 . S
Cd2384 O2388 2.352 . S
Cd2384 O2392 2.277 . S
Cd2384 O2393 2.356 . S
C2385 O2390 1.209 . S
C2385 O2392 1.226 . S
O2386 Cd2382 2.273 . S
O2386 Cd2384 2.411 . S
O2386 C2389 1.320 . S
O2387 Cd2384 2.333 . S
O2387 C2389 1.214 . S
O2388 Cd2384 2.352 . S
O2388 C2391 1.258 . S
C2389 O2386 1.320 . S
C2389 O2387 1.214 . S
O2390 Cd2382 2.277 . S
O2390 C2385 1.209 . S
C2391 O2388 1.258 . S
C2391 O2393 1.282 . S
O2392 Cd2384 2.277 . S
O2392 C2385 1.226 . S
O2393 Cd2384 2.356 . S
O2393 C2391 1.282 . S
C2394 O2395 1.306 . S
C2394 O2397 1.160 . S
O2395 C2394 1.306 . S
O2395 Cd2396 2.228 . S
Cd2396 O2395 2.228 . S
Cd2396 O2400 2.273 . S
Cd2396 O2404 2.277 . S
O2397 C2394 1.160 . S
O2397 Cd2398 2.203 . S
Cd2398 O2397 2.203 . S
Cd2398 O2400 2.411 . S
Cd2398 O2401 2.333 . S
Cd2398 O2402 2.352 . S
Cd2398 O2406 2.277 . S
Cd2398 O2407 2.356 . S
C2399 O2404 1.209 . S
C2399 O2406 1.226 . S
O2400 Cd2396 2.273 . S
O2400 Cd2398 2.411 . S
O2400 C2403 1.320 . S
O2401 Cd2398 2.333 . S
O2401 C2403 1.214 . S
O2402 Cd2398 2.352 . S
O2402 C2405 1.258 . S
C2403 O2400 1.320 . S
C2403 O2401 1.214 . S
O2404 Cd2396 2.277 . S
O2404 C2399 1.209 . S
C2405 O2402 1.258 . S
C2405 O2407 1.282 . S
O2406 Cd2398 2.277 . S
O2406 C2399 1.226 . S
O2407 Cd2398 2.356 . S
O2407 C2405 1.282 . S
C2408 O2409 1.306 . S
C2408 O2411 1.160 . S
O2409 C2408 1.306 . S
O2409 Cd2410 2.228 . S
Cd2410 O2409 2.228 . S
Cd2410 O2414 2.273 . S
Cd2410 O2418 2.277 . S
O2411 C2408 1.160 . S
O2411 Cd2412 2.203 . S
Cd2412 O2411 2.203 . S
Cd2412 O2414 2.411 . S
Cd2412 O2415 2.333 . S
Cd2412 O2416 2.352 . S
Cd2412 O2420 2.277 . S
Cd2412 O2421 2.356 . S
C2413 O2418 1.209 . S
C2413 O2420 1.226 . S
O2414 Cd2410 2.273 . S
O2414 Cd2412 2.411 . S
O2414 C2417 1.320 . S
O2415 Cd2412 2.333 . S
O2415 C2417 1.214 . S
O2416 Cd2412 2.352 . S
O2416 C2419 1.258 . S
C2417 O2414 1.320 . S
C2417 O2415 1.214 . S
O2418 Cd2410 2.277 . S
O2418 C2413 1.209 . S
C2419 O2416 1.258 . S
C2419 O2421 1.282 . S
O2420 Cd2412 2.277 . S
O2420 C2413 1.226 . S
O2421 Cd2412 2.356 . S
O2421 C2419 1.282 . S
C2422 O2423 1.306 . S
C2422 O2425 1.160 . S
O2423 C2422 1.306 . S
O2423 Cd2424 2.228 . S
Cd2424 O2423 2.228 . S
Cd2424 O2428 2.273 . S
Cd2424 O2432 2.277 . S
O2425 C2422 1.160 . S
O2425 Cd2426 2.203 . S
Cd2426 O2425 2.203 . S
Cd2426 O2428 2.411 . S
Cd2426 O2429 2.333 . S
Cd2426 O2430 2.352 . S
Cd2426 O2434 2.277 . S
Cd2426 O2435 2.356 . S
C2427 O2432 1.209 . S
C2427 O2434 1.226 . S
O2428 Cd2424 2.273 . S
O2428 Cd2426 2.411 . S
O2428 C2431 1.320 . S
O2429 Cd2426 2.333 . S
O2429 C2431 1.214 . S
O2430 Cd2426 2.352 . S
O2430 C2433 1.258 . S
C2431 O2428 1.320 . S
C2431 O2429 1.214 . S
O2432 Cd2424 2.277 . S
O2432 C2427 1.209 . S
C2433 O2430 1.258 . S
C2433 O2435 1.282 . S
O2434 Cd2426 2.277 . S
O2434 C2427 1.226 . S
O2435 Cd2426 2.356 . S
O2435 C2433 1.282 . S
C2436 O2437 1.306 . S
C2436 O2439 1.160 . S
O2437 C2436 1.306 . S
O2437 Cd2438 2.228 . S
Cd2438 O2437 2.228 . S
Cd2438 O2442 2.273 . S
Cd2438 O2446 2.277 . S
O2439 C2436 1.160 . S
O2439 Cd2440 2.203 . S
Cd2440 O2439 2.203 . S
Cd2440 O2442 2.411 . S
Cd2440 O2443 2.333 . S
Cd2440 O2444 2.352 . S
Cd2440 O2448 2.277 . S
Cd2440 O2449 2.356 . S
C2441 O2446 1.209 . S
C2441 O2448 1.226 . S
O2442 Cd2438 2.273 . S
O2442 Cd2440 2.411 . S
O2442 C2445 1.320 . S
O2443 Cd2440 2.333 . S
O2443 C2445 1.214 . S
O2444 Cd2440 2.352 . S
O2444 C2447 1.258 . S
C2445 O2442 1.320 . S
C2445 O2443 1.214 . S
O2446 Cd2438 2.277 . S
O2446 C2441 1.209 . S
C2447 O2444 1.258 . S
C2447 O2449 1.282 . S
O2448 Cd2440 2.277 . S
O2448 C2441 1.226 . S
O2449 Cd2440 2.356 . S
O2449 C2447 1.282 . S
C2450 O2451 1.306 . S
C2450 O2453 1.160 . S
O2451 C2450 1.306 . S
O2451 Cd2452 2.228 . S
Cd2452 O2451 2.228 . S
Cd2452 O2456 2.273 . S
Cd2452 O2460 2.277 . S
O2453 C2450 1.160 . S
O2453 Cd2454 2.203 . S
Cd2454 O2453 2.203 . S
Cd2454 O2456 2.411 . S
Cd2454 O2457 2.333 . S
Cd2454 O2458 2.352 . S
Cd2454 O2462 2.277 . S
Cd2454 O2463 2.356 . S
C2455 O2460 1.209 . S
C2455 O2462 1.226 . S
O2456 Cd2452 2.273 . S
O2456 Cd2454 2.411 . S
O2456 C2459 1.320 . S
O2457 Cd2454 2.333 . S
O2457 C2459 1.214 . S
O2458 Cd2454 2.352 . S
O2458 C2461 1.258 . S
C2459 O2456 1.320 . S
C2459 O2457 1.214 . S
O2460 Cd2452 2.277 . S
O2460 C2455 1.209 . S
C2461 O2458 1.258 . S
C2461 O2463 1.282 . S
O2462 Cd2454 2.277 . S
O2462 C2455 1.226 . S
O2463 Cd2454 2.356 . S
O2463 C2461 1.282 . S
C2464 O2465 1.306 . S
C2464 O2467 1.160 . S
O2465 C2464 1.306 . S
O2465 Cd2466 2.228 . S
Cd2466 O2465 2.228 . S
Cd2466 O2470 2.273 . S
Cd2466 O2474 2.277 . S
O2467 C2464 1.160 . S
O2467 Cd2468 2.203 . S
Cd2468 O2467 2.203 . S
Cd2468 O2470 2.411 . S
Cd2468 O2471 2.333 . S
Cd2468 O2472 2.352 . S
Cd2468 O2476 2.277 . S
Cd2468 O2477 2.356 . S
C2469 O2474 1.209 . S
C2469 O2476 1.226 . S
O2470 Cd2466 2.273 . S
O2470 Cd2468 2.411 . S
O2470 C2473 1.320 . S
O2471 Cd2468 2.333 . S
O2471 C2473 1.214 . S
O2472 Cd2468 2.352 . S
O2472 C2475 1.258 . S
C2473 O2470 1.320 . S
C2473 O2471 1.214 . S
O2474 Cd2466 2.277 . S
O2474 C2469 1.209 . S
C2475 O2472 1.258 . S
C2475 O2477 1.282 . S
O2476 Cd2468 2.277 . S
O2476 C2469 1.226 . S
O2477 Cd2468 2.356 . S
O2477 C2475 1.282 . S
C2478 O2479 1.306 . S
C2478 O2481 1.160 . S
O2479 C2478 1.306 . S
O2479 Cd2480 2.228 . S
Cd2480 O2479 2.228 . S
Cd2480 O2484 2.273 . S
Cd2480 O2488 2.277 . S
O2481 C2478 1.160 . S
O2481 Cd2482 2.203 . S
Cd2482 O2481 2.203 . S
Cd2482 O2484 2.411 . S
Cd2482 O2485 2.333 . S
Cd2482 O2486 2.352 . S
Cd2482 O2490 2.277 . S
Cd2482 O2491 2.356 . S
C2483 O2488 1.209 . S
C2483 O2490 1.226 . S
O2484 Cd2480 2.273 . S
O2484 Cd2482 2.411 . S
O2484 C2487 1.320 . S
O2485 Cd2482 2.333 . S
O2485 C2487 1.214 . S
O2486 Cd2482 2.352 . S
O2486 C2489 1.258 . S
C2487 O2484 1.320 . S
C2487 O2485 1.214 . S
O2488 Cd2480 2.277 . S
O2488 C2483 1.209 . S
C2489 O2486 1.258 . S
C2489 O2491 1.282 . S
O2490 Cd2482 2.277 . S
O2490 C2483 1.226 . S
O2491 Cd2482 2.356 . S
O2491 C2489 1.282 . S
C2492 O2493 1.306 . S
C2492 O2495 1.160 . S
O2493 C2492 1.306 . S
O2493 Cd2494 2.228 . S
Cd2494 O2493 2.228 . S
Cd2494 O2498 2.273 . S
Cd2494 O2502 2.277 . S
O2495 C2492 1.160 . S
O2495 Cd2496 2.203 . S
Cd2496 O2495 2.203 . S
Cd2496 O2498 2.411 . S
Cd2496 O2499 2.333 . S
Cd2496 O2500 2.352 . S
Cd2496 O2504 2.277 . S
Cd2496 O2505 2.356 . S
C2497 O2502 1.209 . S
C2497 O2504 1.226 . S
O2498 Cd2494 2.273 . S
O2498 Cd2496 2.411 . S
O2498 C2501 1.320 . S
O2499 Cd2496 2.333 . S
O2499 C2501 1.214 . S
O2500 Cd2496 2.352 . S
O2500 C2503 1.258 . S
C2501 O2498 1.320 . S
C2501 O2499 1.214 . S
O2502 Cd2494 2.277 . S
O2502 C2497 1.209 . S
C2503 O2500 1.258 . S
C2503 O2505 1.282 . S
O2504 Cd2496 2.277 . S
O2504 C2497 1.226 . S
O2505 Cd2496 2.356 . S
O2505 C2503 1.282 . S
C2506 O2507 1.306 . S
C2506 O2509 1.160 . S
O2507 C2506 1.306 . S
O2507 Cd2508 2.228 . S
Cd2508 O2507 2.228 . S
Cd2508 O2512 2.273 . S
Cd2508 O2516 2.277 . S
O2509 C2506 1.160 . S
O2509 Cd2510 2.203 . S
Cd2510 O2509 2.203 . S
Cd2510 O2512 2.411 . S
Cd2510 O2513 2.333 . S
Cd2510 O2514 2.352 . S
Cd2510 O2518 2.277 . S
Cd2510 O2519 2.356 . S
C2511 O2516 1.209 . S
C2511 O2518 1.226 . S
O2512 Cd2508 2.273 . S
O2512 Cd2510 2.411 . S
O2512 C2515 1.320 . S
O2513 Cd2510 2.333 . S
O2513 C2515 1.214 . S
O2514 Cd2510 2.352 . S
O2514 C2517 1.258 . S
C2515 O2512 1.320 . S
C2515 O2513 1.214 . S
O2516 Cd2508 2.277 . S
O2516 C2511 1.209 . S
C2517 O2514 1.258 . S
C2517 O2519 1.282 . S
O2518 Cd2510 2.277 . S
O2518 C2511 1.226 . S
O2519 Cd2510 2.356 . S
O2519 C2517 1.282 . S
C2520 O2521 1.306 . S
C2520 O2523 1.160 . S
O2521 C2520 1.306 . S
O2521 Cd2522 2.228 . S
Cd2522 O2521 2.228 . S
Cd2522 O2526 2.273 . S
Cd2522 O2530 2.277 . S
O2523 C2520 1.160 . S
O2523 Cd2524 2.203 . S
Cd2524 O2523 2.203 . S
Cd2524 O2526 2.411 . S
Cd2524 O2527 2.333 . S
Cd2524 O2528 2.352 . S
Cd2524 O2532 2.277 . S
Cd2524 O2533 2.356 . S
C2525 O2530 1.209 . S
C2525 O2532 1.226 . S
O2526 Cd2522 2.273 . S
O2526 Cd2524 2.411 . S
O2526 C2529 1.320 . S
O2527 Cd2524 2.333 . S
O2527 C2529 1.214 . S
O2528 Cd2524 2.352 . S
O2528 C2531 1.258 . S
C2529 O2526 1.320 . S
C2529 O2527 1.214 . S
O2530 Cd2522 2.277 . S
O2530 C2525 1.209 . S
C2531 O2528 1.258 . S
C2531 O2533 1.282 . S
O2532 Cd2524 2.277 . S
O2532 C2525 1.226 . S
O2533 Cd2524 2.356 . S
O2533 C2531 1.282 . S
C2534 O2535 1.306 . S
C2534 O2537 1.160 . S
O2535 C2534 1.306 . S
O2535 Cd2536 2.228 . S
Cd2536 O2535 2.228 . S
Cd2536 O2540 2.273 . S
Cd2536 O2544 2.277 . S
O2537 C2534 1.160 . S
O2537 Cd2538 2.203 . S
Cd2538 O2537 2.203 . S
Cd2538 O2540 2.411 . S
Cd2538 O2541 2.333 . S
Cd2538 O2542 2.352 . S
Cd2538 O2546 2.277 . S
Cd2538 O2547 2.356 . S
C2539 O2544 1.209 . S
C2539 O2546 1.226 . S
O2540 Cd2536 2.273 . S
O2540 Cd2538 2.411 . S
O2540 C2543 1.320 . S
O2541 Cd2538 2.333 . S
O2541 C2543 1.214 . S
O2542 Cd2538 2.352 . S
O2542 C2545 1.258 . S
C2543 O2540 1.320 . S
C2543 O2541 1.214 . S
O2544 Cd2536 2.277 . S
O2544 C2539 1.209 . S
C2545 O2542 1.258 . S
C2545 O2547 1.282 . S
O2546 Cd2538 2.277 . S
O2546 C2539 1.226 . S
O2547 Cd2538 2.356 . S
O2547 C2545 1.282 . S
C2548 O2549 1.306 . S
C2548 O2551 1.160 . S
O2549 C2548 1.306 . S
O2549 Cd2550 2.228 . S
Cd2550 O2549 2.228 . S
Cd2550 O2554 2.273 . S
Cd2550 O2558 2.277 . S
O2551 C2548 1.160 . S
O2551 Cd2552 2.203 . S
Cd2552 O2551 2.203 . S
Cd2552 O2554 2.411 . S
Cd2552 O2555 2.333 . S
Cd2552 O2556 2.352 . S
Cd2552 O2560 2.277 . S
Cd2552 O2561 2.356 . S
C2553 O2558 1.209 . S
C2553 O2560 1.226 . S
O2554 Cd2550 2.273 . S
O2554 Cd2552 2.411 . S
O2554 C2557 1.320 . S
O2555 Cd2552 2.333 . S
O2555 C2557 1.214 . S
O2556 Cd2552 2.352 . S
O2556 C2559 1.258 . S
C2557 O2554 1.320 . S
C2557 O2555 1.214 . S
O2558 Cd2550 2.277 . S
O2558 C2553 1.209 . S
C2559 O2556 1.258 . S
C2559 O2561 1.282 . S
O2560 Cd2552 2.277 . S
O2560 C2553 1.226 . S
O2561 Cd2552 2.356 . S
O2561 C2559 1.282 . S
C2562 O2563 1.306 . S
C2562 O2565 1.160 . S
O2563 C2562 1.306 . S
O2563 Cd2564 2.228 . S
Cd2564 O2563 2.228 . S
Cd2564 O2568 2.273 . S
Cd2564 O2572 2.277 . S
O2565 C2562 1.160 . S
O2565 Cd2566 2.203 . S
Cd2566 O2565 2.203 . S
Cd2566 O2568 2.411 . S
Cd2566 O2569 2.333 . S
Cd2566 O2570 2.352 . S
Cd2566 O2574 2.277 . S
Cd2566 O2575 2.356 . S
C2567 O2572 1.209 . S
C2567 O2574 1.226 . S
O2568 Cd2564 2.273 . S
O2568 Cd2566 2.411 . S
O2568 C2571 1.320 . S
O2569 Cd2566 2.333 . S
O2569 C2571 1.214 . S
O2570 Cd2566 2.352 . S
O2570 C2573 1.258 . S
C2571 O2568 1.320 . S
C2571 O2569 1.214 . S
O2572 Cd2564 2.277 . S
O2572 C2567 1.209 . S
C2573 O2570 1.258 . S
C2573 O2575 1.282 . S
O2574 Cd2566 2.277 . S
O2574 C2567 1.226 . S
O2575 Cd2566 2.356 . S
O2575 C2573 1.282 . S
C2576 O2577 1.306 . S
C2576 O2579 1.160 . S
O2577 C2576 1.306 . S
O2577 Cd2578 2.228 . S
Cd2578 O2577 2.228 . S
Cd2578 O2582 2.273 . S
Cd2578 O2586 2.277 . S
O2579 C2576 1.160 . S
O2579 Cd2580 2.203 . S
Cd2580 O2579 2.203 . S
Cd2580 O2582 2.411 . S
Cd2580 O2583 2.333 . S
Cd2580 O2584 2.352 . S
Cd2580 O2588 2.277 . S
Cd2580 O2589 2.356 . S
C2581 O2586 1.209 . S
C2581 O2588 1.226 . S
O2582 Cd2578 2.273 . S
O2582 Cd2580 2.411 . S
O2582 C2585 1.320 . S
O2583 Cd2580 2.333 . S
O2583 C2585 1.214 . S
O2584 Cd2580 2.352 . S
O2584 C2587 1.258 . S
C2585 O2582 1.320 . S
C2585 O2583 1.214 . S
O2586 Cd2578 2.277 . S
O2586 C2581 1.209 . S
C2587 O2584 1.258 . S
C2587 O2589 1.282 . S
O2588 Cd2580 2.277 . S
O2588 C2581 1.226 . S
O2589 Cd2580 2.356 . S
O2589 C2587 1.282 . S
C2590 O2591 1.306 . S
C2590 O2593 1.160 . S
O2591 C2590 1.306 . S
O2591 Cd2592 2.228 . S
Cd2592 O2591 2.228 . S
Cd2592 O2596 2.273 . S
Cd2592 O2600 2.277 . S
O2593 C2590 1.160 . S
O2593 Cd2594 2.203 . S
Cd2594 O2593 2.203 . S
Cd2594 O2596 2.411 . S
Cd2594 O2597 2.333 . S
Cd2594 O2598 2.352 . S
Cd2594 O2602 2.277 . S
Cd2594 O2603 2.356 . S
C2595 O2600 1.209 . S
C2595 O2602 1.226 . S
O2596 Cd2592 2.273 . S
O2596 Cd2594 2.411 . S
O2596 C2599 1.320 . S
O2597 Cd2594 2.333 . S
O2597 C2599 1.214 . S
O2598 Cd2594 2.352 . S
O2598 C2601 1.258 . S
C2599 O2596 1.320 . S
C2599 O2597 1.214 . S
O2600 Cd2592 2.277 . S
O2600 C2595 1.209 . S
C2601 O2598 1.258 . S
C2601 O2603 1.282 . S
O2602 Cd2594 2.277 . S
O2602 C2595 1.226 . S
O2603 Cd2594 2.356 . S
O2603 C2601 1.282 . S
C2604 O2605 1.306 . S
C2604 O2607 1.160 . S
O2605 C2604 1.306 . S
O2605 Cd2606 2.228 . S
Cd2606 O2605 2.228 . S
Cd2606 O2610 2.273 . S
Cd2606 O2614 2.277 . S
O2607 C2604 1.160 . S
O2607 Cd2608 2.203 . S
Cd2608 O2607 2.203 . S
Cd2608 O2610 2.411 . S
Cd2608 O2611 2.333 . S
Cd2608 O2612 2.352 . S
Cd2608 O2616 2.277 . S
Cd2608 O2617 2.356 . S
C2609 O2614 1.209 . S
C2609 O2616 1.226 . S
O2610 Cd2606 2.273 . S
O2610 Cd2608 2.411 . S
O2610 C2613 1.320 . S
O2611 Cd2608 2.333 . S
O2611 C2613 1.214 . S
O2612 Cd2608 2.352 . S
O2612 C2615 1.258 . S
C2613 O2610 1.320 . S
C2613 O2611 1.214 . S
O2614 Cd2606 2.277 . S
O2614 C2609 1.209 . S
C2615 O2612 1.258 . S
C2615 O2617 1.282 . S
O2616 Cd2608 2.277 . S
O2616 C2609 1.226 . S
O2617 Cd2608 2.356 . S
O2617 C2615 1.282 . S
C2618 O2619 1.306 . S
C2618 O2621 1.160 . S
O2619 C2618 1.306 . S
O2619 Cd2620 2.228 . S
Cd2620 O2619 2.228 . S
Cd2620 O2624 2.273 . S
Cd2620 O2628 2.277 . S
O2621 C2618 1.160 . S
O2621 Cd2622 2.203 . S
Cd2622 O2621 2.203 . S
Cd2622 O2624 2.411 . S
Cd2622 O2625 2.333 . S
Cd2622 O2626 2.352 . S
Cd2622 O2630 2.277 . S
Cd2622 O2631 2.356 . S
C2623 O2628 1.209 . S
C2623 O2630 1.226 . S
O2624 Cd2620 2.273 . S
O2624 Cd2622 2.411 . S
O2624 C2627 1.320 . S
O2625 Cd2622 2.333 . S
O2625 C2627 1.214 . S
O2626 Cd2622 2.352 . S
O2626 C2629 1.258 . S
C2627 O2624 1.320 . S
C2627 O2625 1.214 . S
O2628 Cd2620 2.277 . S
O2628 C2623 1.209 . S
C2629 O2626 1.258 . S
C2629 O2631 1.282 . S
O2630 Cd2622 2.277 . S
O2630 C2623 1.226 . S
O2631 Cd2622 2.356 . S
O2631 C2629 1.282 . S
C2632 O2633 1.306 . S
C2632 O2635 1.160 . S
O2633 C2632 1.306 . S
O2633 Cd2634 2.228 . S
Cd2634 O2633 2.228 . S
Cd2634 O2638 2.273 . S
Cd2634 O2642 2.277 . S
O2635 C2632 1.160 . S
O2635 Cd2636 2.203 . S
Cd2636 O2635 2.203 . S
Cd2636 O2638 2.411 . S
Cd2636 O2639 2.333 . S
Cd2636 O2640 2.352 . S
Cd2636 O2644 2.277 . S
Cd2636 O2645 2.356 . S
C2637 O2642 1.209 . S
C2637 O2644 1.226 . S
O2638 Cd2634 2.273 . S
O2638 Cd2636 2.411 . S
O2638 C2641 1.320 . S
O2639 Cd2636 2.333 . S
O2639 C2641 1.214 . S
O2640 Cd2636 2.352 . S
O2640 C2643 1.258 . S
C2641 O2638 1.320 . S
C2641 O2639 1.214 . S
O2642 Cd2634 2.277 . S
O2642 C2637 1.209 . S
C2643 O2640 1.258 . S
C2643 O2645 1.282 . S
O2644 Cd2636 2.277 . S
O2644 C2637 1.226 . S
O2645 Cd2636 2.356 . S
O2645 C2643 1.282 . S
C2646 O2647 1.306 . S
C2646 O2649 1.160 . S
O2647 C2646 1.306 . S
O2647 Cd2648 2.228 . S
Cd2648 O2647 2.228 . S
Cd2648 O2652 2.273 . S
Cd2648 O2656 2.277 . S
O2649 C2646 1.160 . S
O2649 Cd2650 2.203 . S
Cd2650 O2649 2.203 . S
Cd2650 O2652 2.411 . S
Cd2650 O2653 2.333 . S
Cd2650 O2654 2.352 . S
Cd2650 O2658 2.277 . S
Cd2650 O2659 2.356 . S
C2651 O2656 1.209 . S
C2651 O2658 1.226 . S
O2652 Cd2648 2.273 . S
O2652 Cd2650 2.411 . S
O2652 C2655 1.320 . S
O2653 Cd2650 2.333 . S
O2653 C2655 1.214 . S
O2654 Cd2650 2.352 . S
O2654 C2657 1.258 . S
C2655 O2652 1.320 . S
C2655 O2653 1.214 . S
O2656 Cd2648 2.277 . S
O2656 C2651 1.209 . S
C2657 O2654 1.258 . S
C2657 O2659 1.282 . S
O2658 Cd2650 2.277 . S
O2658 C2651 1.226 . S
O2659 Cd2650 2.356 . S
O2659 C2657 1.282 . S
C2660 O2661 1.306 . S
C2660 O2663 1.160 . S
O2661 C2660 1.306 . S
O2661 Cd2662 2.228 . S
Cd2662 O2661 2.228 . S
Cd2662 O2666 2.273 . S
Cd2662 O2670 2.277 . S
O2663 C2660 1.160 . S
O2663 Cd2664 2.203 . S
Cd2664 O2663 2.203 . S
Cd2664 O2666 2.411 . S
Cd2664 O2667 2.333 . S
Cd2664 O2668 2.352 . S
Cd2664 O2672 2.277 . S
Cd2664 O2673 2.356 . S
C2665 O2670 1.209 . S
C2665 O2672 1.226 . S
O2666 Cd2662 2.273 . S
O2666 Cd2664 2.411 . S
O2666 C2669 1.320 . S
O2667 Cd2664 2.333 . S
O2667 C2669 1.214 . S
O2668 Cd2664 2.352 . S
O2668 C2671 1.258 . S
C2669 O2666 1.320 . S
C2669 O2667 1.214 . S
O2670 Cd2662 2.277 . S
O2670 C2665 1.209 . S
C2671 O2668 1.258 . S
C2671 O2673 1.282 . S
O2672 Cd2664 2.277 . S
O2672 C2665 1.226 . S
O2673 Cd2664 2.356 . S
O2673 C2671 1.282 . S
C2674 O2675 1.306 . S
C2674 O2677 1.160 . S
O2675 C2674 1.306 . S
O2675 Cd2676 2.228 . S
Cd2676 O2675 2.228 . S
Cd2676 O2680 2.273 . S
Cd2676 O2684 2.277 . S
O2677 C2674 1.160 . S
O2677 Cd2678 2.203 . S
Cd2678 O2677 2.203 . S
Cd2678 O2680 2.411 . S
Cd2678 O2681 2.333 . S
Cd2678 O2682 2.352 . S
Cd2678 O2686 2.277 . S
Cd2678 O2687 2.356 . S
C2679 O2684 1.209 . S
C2679 O2686 1.226 . S
O2680 Cd2676 2.273 . S
O2680 Cd2678 2.411 . S
O2680 C2683 1.320 . S
O2681 Cd2678 2.333 . S
O2681 C2683 1.214 . S
O2682 Cd2678 2.352 . S
O2682 C2685 1.258 . S
C2683 O2680 1.320 . S
C2683 O2681 1.214 . S
O2684 Cd2676 2.277 . S
O2684 C2679 1.209 . S
C2685 O2682 1.258 . S
C2685 O2687 1.282 . S
O2686 Cd2678 2.277 . S
O2686 C2679 1.226 . S
O2687 Cd2678 2.356 . S
O2687 C2685 1.282 . S
H2688 C2694 0.930 . S
H2689 C2698 0.930 . S
H2690 C2703 0.929 . S
H2691 C2701 0.929 . S
H2692 C2696 0.929 . S
H2693 C2702 0.929 . S
C2694 H2688 0.930 . S
C2694 C2695 1.367 . S
C2694 C2702 1.378 . S
C2695 C2694 1.367 . S
C2695 C2703 1.433 . S
C2696 H2692 0.929 . S
C2696 C2698 1.378 . S
C2696 C2700 1.350 . S
C2697 C2700 1.463 . S
C2697 C2702 1.350 . S
C2697 N2705 1.427 . S
C2698 H2689 0.930 . S
C2698 C2696 1.378 . S
C2698 C2699 1.367 . S
C2699 C2698 1.367 . S
C2699 C2701 1.433 . S
C2700 C2696 1.350 . S
C2700 C2697 1.463 . S
C2700 N2704 1.427 . S
C2701 H2691 0.929 . S
C2701 C2699 1.433 . S
C2701 N2704 1.384 . S
C2702 H2693 0.929 . S
C2702 C2694 1.378 . S
C2702 C2697 1.350 . S
C2703 H2690 0.929 . S
C2703 C2695 1.433 . S
C2703 N2705 1.384 . S
N2704 C2700 1.427 . S
N2704 C2701 1.384 . S
N2705 C2697 1.427 . S
N2705 C2703 1.384 . S
H2706 C2712 0.930 . S
H2707 C2716 0.930 . S
H2708 C2721 0.929 . S
H2709 C2719 0.929 . S
H2710 C2714 0.929 . S
H2711 C2720 0.929 . S
C2712 H2706 0.930 . S
C2712 C2713 1.367 . S
C2712 C2720 1.378 . S
C2713 C2712 1.367 . S
C2713 C2721 1.433 . S
C2714 H2710 0.929 . S
C2714 C2716 1.378 . S
C2714 C2718 1.350 . S
C2715 C2718 1.463 . S
C2715 C2720 1.350 . S
C2715 N2723 1.427 . S
C2716 H2707 0.930 . S
C2716 C2714 1.378 . S
C2716 C2717 1.367 . S
C2717 C2716 1.367 . S
C2717 C2719 1.433 . S
C2718 C2714 1.350 . S
C2718 C2715 1.463 . S
C2718 N2722 1.427 . S
C2719 H2709 0.929 . S
C2719 C2717 1.433 . S
C2719 N2722 1.384 . S
C2720 H2711 0.929 . S
C2720 C2712 1.378 . S
C2720 C2715 1.350 . S
C2721 H2708 0.929 . S
C2721 C2713 1.433 . S
C2721 N2723 1.384 . S
N2722 C2718 1.427 . S
N2722 C2719 1.384 . S
N2723 C2715 1.427 . S
N2723 C2721 1.384 . S
H2724 C2730 0.930 . S
H2725 C2734 0.930 . S
H2726 C2739 0.929 . S
H2727 C2737 0.929 . S
H2728 C2732 0.929 . S
H2729 C2738 0.929 . S
C2730 H2724 0.930 . S
C2730 C2731 1.367 . S
C2730 C2738 1.378 . S
C2731 C2730 1.367 . S
C2731 C2739 1.433 . S
C2732 H2728 0.929 . S
C2732 C2734 1.378 . S
C2732 C2736 1.350 . S
C2733 C2736 1.463 . S
C2733 C2738 1.350 . S
C2733 N2741 1.427 . S
C2734 H2725 0.930 . S
C2734 C2732 1.378 . S
C2734 C2735 1.367 . S
C2735 C2734 1.367 . S
C2735 C2737 1.433 . S
C2736 C2732 1.350 . S
C2736 C2733 1.463 . S
C2736 N2740 1.427 . S
C2737 H2727 0.929 . S
C2737 C2735 1.433 . S
C2737 N2740 1.384 . S
C2738 H2729 0.929 . S
C2738 C2730 1.378 . S
C2738 C2733 1.350 . S
C2739 H2726 0.929 . S
C2739 C2731 1.433 . S
C2739 N2741 1.384 . S
N2740 C2736 1.427 . S
N2740 C2737 1.384 . S
N2741 C2733 1.427 . S
N2741 C2739 1.384 . S
H2742 C2748 0.930 . S
H2743 C2752 0.930 . S
H2744 C2757 0.929 . S
H2745 C2755 0.929 . S
H2746 C2750 0.929 . S
H2747 C2756 0.929 . S
C2748 H2742 0.930 . S
C2748 C2749 1.367 . S
C2748 C2756 1.378 . S
C2749 C2748 1.367 . S
C2749 C2757 1.433 . S
C2750 H2746 0.929 . S
C2750 C2752 1.378 . S
C2750 C2754 1.350 . S
C2751 C2754 1.463 . S
C2751 C2756 1.350 . S
C2751 N2759 1.427 . S
C2752 H2743 0.930 . S
C2752 C2750 1.378 . S
C2752 C2753 1.367 . S
C2753 C2752 1.367 . S
C2753 C2755 1.433 . S
C2754 C2750 1.350 . S
C2754 C2751 1.463 . S
C2754 N2758 1.427 . S
C2755 H2745 0.929 . S
C2755 C2753 1.433 . S
C2755 N2758 1.384 . S
C2756 H2747 0.929 . S
C2756 C2748 1.378 . S
C2756 C2751 1.350 . S
C2757 H2744 0.929 . S
C2757 C2749 1.433 . S
C2757 N2759 1.384 . S
N2758 C2754 1.427 . S
N2758 C2755 1.384 . S
N2759 C2751 1.427 . S
N2759 C2757 1.384 . S
H2760 C2766 0.930 . S
H2761 C2770 0.930 . S
H2762 C2775 0.929 . S
H2763 C2773 0.929 . S
H2764 C2768 0.929 . S
H2765 C2774 0.929 . S
C2766 H2760 0.930 . S
C2766 C2767 1.367 . S
C2766 C2774 1.378 . S
C2767 C2766 1.367 . S
C2767 C2775 1.433 . S
C2768 H2764 0.929 . S
C2768 C2770 1.378 . S
C2768 C2772 1.350 . S
C2769 C2772 1.463 . S
C2769 C2774 1.350 . S
C2769 N2777 1.427 . S
C2770 H2761 0.930 . S
C2770 C2768 1.378 . S
C2770 C2771 1.367 . S
C2771 C2770 1.367 . S
C2771 C2773 1.433 . S
C2772 C2768 1.350 . S
C2772 C2769 1.463 . S
C2772 N2776 1.427 . S
C2773 H2763 0.929 . S
C2773 C2771 1.433 . S
C2773 N2776 1.384 . S
C2774 H2765 0.929 . S
C2774 C2766 1.378 . S
C2774 C2769 1.350 . S
C2775 H2762 0.929 . S
C2775 C2767 1.433 . S
C2775 N2777 1.384 . S
N2776 C2772 1.427 . S
N2776 C2773 1.384 . S
N2777 C2769 1.427 . S
N2777 C2775 1.384 . S
H2778 C2784 0.930 . S
H2779 C2788 0.930 . S
H2780 C2793 0.929 . S
H2781 C2791 0.929 . S
H2782 C2786 0.929 . S
H2783 C2792 0.929 . S
C2784 H2778 0.930 . S
C2784 C2785 1.367 . S
C2784 C2792 1.378 . S
C2785 C2784 1.367 . S
C2785 C2793 1.433 . S
C2786 H2782 0.929 . S
C2786 C2788 1.378 . S
C2786 C2790 1.350 . S
C2787 C2790 1.463 . S
C2787 C2792 1.350 . S
C2787 N2795 1.427 . S
C2788 H2779 0.930 . S
C2788 C2786 1.378 . S
C2788 C2789 1.367 . S
C2789 C2788 1.367 . S
C2789 C2791 1.433 . S
C2790 C2786 1.350 . S
C2790 C2787 1.463 . S
C2790 N2794 1.427 . S
C2791 H2781 0.929 . S
C2791 C2789 1.433 . S
C2791 N2794 1.384 . S
C2792 H2783 0.929 . S
C2792 C2784 1.378 . S
C2792 C2787 1.350 . S
C2793 H2780 0.929 . S
C2793 C2785 1.433 . S
C2793 N2795 1.384 . S
N2794 C2790 1.427 . S
N2794 C2791 1.384 . S
N2795 C2787 1.427 . S
N2795 C2793 1.384 . S
H2796 C2802 0.930 . S
H2797 C2806 0.930 . S
H2798 C2811 0.929 . S
H2799 C2809 0.929 . S
H2800 C2804 0.929 . S
H2801 C2810 0.929 . S
C2802 H2796 0.930 . S
C2802 C2803 1.367 . S
C2802 C2810 1.378 . S
C2803 C2802 1.367 . S
C2803 C2811 1.433 . S
C2804 H2800 0.929 . S
C2804 C2806 1.378 . S
C2804 C2808 1.350 . S
C2805 C2808 1.463 . S
C2805 C2810 1.350 . S
C2805 N2813 1.427 . S
C2806 H2797 0.930 . S
C2806 C2804 1.378 . S
C2806 C2807 1.367 . S
C2807 C2806 1.367 . S
C2807 C2809 1.433 . S
C2808 C2804 1.350 . S
C2808 C2805 1.463 . S
C2808 N2812 1.427 . S
C2809 H2799 0.929 . S
C2809 C2807 1.433 . S
C2809 N2812 1.384 . S
C2810 H2801 0.929 . S
C2810 C2802 1.378 . S
C2810 C2805 1.350 . S
C2811 H2798 0.929 . S
C2811 C2803 1.433 . S
C2811 N2813 1.384 . S
N2812 C2808 1.427 . S
N2812 C2809 1.384 . S
N2813 C2805 1.427 . S
N2813 C2811 1.384 . S
H2814 C2820 0.930 . S
H2815 C2824 0.930 . S
H2816 C2829 0.929 . S
H2817 C2827 0.929 . S
H2818 C2822 0.929 . S
H2819 C2828 0.929 . S
C2820 H2814 0.930 . S
C2820 C2821 1.367 . S
C2820 C2828 1.378 . S
C2821 C2820 1.367 . S
C2821 C2829 1.433 . S
C2822 H2818 0.929 . S
C2822 C2824 1.378 . S
C2822 C2826 1.350 . S
C2823 C2826 1.463 . S
C2823 C2828 1.350 . S
C2823 N2831 1.427 . S
C2824 H2815 0.930 . S
C2824 C2822 1.378 . S
C2824 C2825 1.367 . S
C2825 C2824 1.367 . S
C2825 C2827 1.433 . S
C2826 C2822 1.350 . S
C2826 C2823 1.463 . S
C2826 N2830 1.427 . S
C2827 H2817 0.929 . S
C2827 C2825 1.433 . S
C2827 N2830 1.384 . S
C2828 H2819 0.929 . S
C2828 C2820 1.378 . S
C2828 C2823 1.350 . S
C2829 H2816 0.929 . S
C2829 C2821 1.433 . S
C2829 N2831 1.384 . S
N2830 C2826 1.427 . S
N2830 C2827 1.384 . S
N2831 C2823 1.427 . S
N2831 C2829 1.384 . S
H2832 C2838 0.930 . S
H2833 C2842 0.930 . S
H2834 C2847 0.929 . S
H2835 C2845 0.929 . S
H2836 C2840 0.929 . S
H2837 C2846 0.929 . S
C2838 H2832 0.930 . S
C2838 C2839 1.367 . S
C2838 C2846 1.378 . S
C2839 C2838 1.367 . S
C2839 C2847 1.433 . S
C2840 H2836 0.929 . S
C2840 C2842 1.378 . S
C2840 C2844 1.350 . S
C2841 C2844 1.463 . S
C2841 C2846 1.350 . S
C2841 N2849 1.427 . S
C2842 H2833 0.930 . S
C2842 C2840 1.378 . S
C2842 C2843 1.367 . S
C2843 C2842 1.367 . S
C2843 C2845 1.433 . S
C2844 C2840 1.350 . S
C2844 C2841 1.463 . S
C2844 N2848 1.427 . S
C2845 H2835 0.929 . S
C2845 C2843 1.433 . S
C2845 N2848 1.384 . S
C2846 H2837 0.929 . S
C2846 C2838 1.378 . S
C2846 C2841 1.350 . S
C2847 H2834 0.929 . S
C2847 C2839 1.433 . S
C2847 N2849 1.384 . S
N2848 C2844 1.427 . S
N2848 C2845 1.384 . S
N2849 C2841 1.427 . S
N2849 C2847 1.384 . S
H2850 C2856 0.930 . S
H2851 C2860 0.930 . S
H2852 C2865 0.929 . S
H2853 C2863 0.929 . S
H2854 C2858 0.929 . S
H2855 C2864 0.929 . S
C2856 H2850 0.930 . S
C2856 C2857 1.367 . S
C2856 C2864 1.378 . S
C2857 C2856 1.367 . S
C2857 C2865 1.433 . S
C2858 H2854 0.929 . S
C2858 C2860 1.378 . S
C2858 C2862 1.350 . S
C2859 C2862 1.463 . S
C2859 C2864 1.350 . S
C2859 N2867 1.427 . S
C2860 H2851 0.930 . S
C2860 C2858 1.378 . S
C2860 C2861 1.367 . S
C2861 C2860 1.367 . S
C2861 C2863 1.433 . S
C2862 C2858 1.350 . S
C2862 C2859 1.463 . S
C2862 N2866 1.427 . S
C2863 H2853 0.929 . S
C2863 C2861 1.433 . S
C2863 N2866 1.384 . S
C2864 H2855 0.929 . S
C2864 C2856 1.378 . S
C2864 C2859 1.350 . S
C2865 H2852 0.929 . S
C2865 C2857 1.433 . S
C2865 N2867 1.384 . S
N2866 C2862 1.427 . S
N2866 C2863 1.384 . S
N2867 C2859 1.427 . S
N2867 C2865 1.384 . S
H2868 C2874 0.930 . S
H2869 C2878 0.930 . S
H2870 C2883 0.929 . S
H2871 C2881 0.929 . S
H2872 C2876 0.929 . S
H2873 C2882 0.929 . S
C2874 H2868 0.930 . S
C2874 C2875 1.367 . S
C2874 C2882 1.378 . S
C2875 C2874 1.367 . S
C2875 C2883 1.433 . S
C2876 H2872 0.929 . S
C2876 C2878 1.378 . S
C2876 C2880 1.350 . S
C2877 C2880 1.463 . S
C2877 C2882 1.350 . S
C2877 N2885 1.427 . S
C2878 H2869 0.930 . S
C2878 C2876 1.378 . S
C2878 C2879 1.367 . S
C2879 C2878 1.367 . S
C2879 C2881 1.433 . S
C2880 C2876 1.350 . S
C2880 C2877 1.463 . S
C2880 N2884 1.427 . S
C2881 H2871 0.929 . S
C2881 C2879 1.433 . S
C2881 N2884 1.384 . S
C2882 H2873 0.929 . S
C2882 C2874 1.378 . S
C2882 C2877 1.350 . S
C2883 H2870 0.929 . S
C2883 C2875 1.433 . S
C2883 N2885 1.384 . S
N2884 C2880 1.427 . S
N2884 C2881 1.384 . S
N2885 C2877 1.427 . S
N2885 C2883 1.384 . S
H2886 C2892 0.930 . S
H2887 C2896 0.930 . S
H2888 C2901 0.929 . S
H2889 C2899 0.929 . S
H2890 C2894 0.929 . S
H2891 C2900 0.929 . S
C2892 H2886 0.930 . S
C2892 C2893 1.367 . S
C2892 C2900 1.378 . S
C2893 C2892 1.367 . S
C2893 C2901 1.433 . S
C2894 H2890 0.929 . S
C2894 C2896 1.378 . S
C2894 C2898 1.350 . S
C2895 C2898 1.463 . S
C2895 C2900 1.350 . S
C2895 N2903 1.427 . S
C2896 H2887 0.930 . S
C2896 C2894 1.378 . S
C2896 C2897 1.367 . S
C2897 C2896 1.367 . S
C2897 C2899 1.433 . S
C2898 C2894 1.350 . S
C2898 C2895 1.463 . S
C2898 N2902 1.427 . S
C2899 H2889 0.929 . S
C2899 C2897 1.433 . S
C2899 N2902 1.384 . S
C2900 H2891 0.929 . S
C2900 C2892 1.378 . S
C2900 C2895 1.350 . S
C2901 H2888 0.929 . S
C2901 C2893 1.433 . S
C2901 N2903 1.384 . S
N2902 C2898 1.427 . S
N2902 C2899 1.384 . S
N2903 C2895 1.427 . S
N2903 C2901 1.384 . S
H2904 C2910 0.930 . S
H2905 C2914 0.930 . S
H2906 C2919 0.929 . S
H2907 C2917 0.929 . S
H2908 C2912 0.929 . S
H2909 C2918 0.929 . S
C2910 H2904 0.930 . S
C2910 C2911 1.367 . S
C2910 C2918 1.378 . S
C2911 C2910 1.367 . S
C2911 C2919 1.433 . S
C2912 H2908 0.929 . S
C2912 C2914 1.378 . S
C2912 C2916 1.350 . S
C2913 C2916 1.463 . S
C2913 C2918 1.350 . S
C2913 N2921 1.427 . S
C2914 H2905 0.930 . S
C2914 C2912 1.378 . S
C2914 C2915 1.367 . S
C2915 C2914 1.367 . S
C2915 C2917 1.433 . S
C2916 C2912 1.350 . S
C2916 C2913 1.463 . S
C2916 N2920 1.427 . S
C2917 H2907 0.929 . S
C2917 C2915 1.433 . S
C2917 N2920 1.384 . S
C2918 H2909 0.929 . S
C2918 C2910 1.378 . S
C2918 C2913 1.350 . S
C2919 H2906 0.929 . S
C2919 C2911 1.433 . S
C2919 N2921 1.384 . S
N2920 C2916 1.427 . S
N2920 C2917 1.384 . S
N2921 C2913 1.427 . S
N2921 C2919 1.384 . S
H2922 C2928 0.930 . S
H2923 C2932 0.930 . S
H2924 C2937 0.929 . S
H2925 C2935 0.929 . S
H2926 C2930 0.929 . S
H2927 C2936 0.929 . S
C2928 H2922 0.930 . S
C2928 C2929 1.367 . S
C2928 C2936 1.378 . S
C2929 C2928 1.367 . S
C2929 C2937 1.433 . S
C2930 H2926 0.929 . S
C2930 C2932 1.378 . S
C2930 C2934 1.350 . S
C2931 C2934 1.463 . S
C2931 C2936 1.350 . S
C2931 N2939 1.427 . S
C2932 H2923 0.930 . S
C2932 C2930 1.378 . S
C2932 C2933 1.367 . S
C2933 C2932 1.367 . S
C2933 C2935 1.433 . S
C2934 C2930 1.350 . S
C2934 C2931 1.463 . S
C2934 N2938 1.427 . S
C2935 H2925 0.929 . S
C2935 C2933 1.433 . S
C2935 N2938 1.384 . S
C2936 H2927 0.929 . S
C2936 C2928 1.378 . S
C2936 C2931 1.350 . S
C2937 H2924 0.929 . S
C2937 C2929 1.433 . S
C2937 N2939 1.384 . S
N2938 C2934 1.427 . S
N2938 C2935 1.384 . S
N2939 C2931 1.427 . S
N2939 C2937 1.384 . S
H2940 C2946 0.930 . S
H2941 C2950 0.930 . S
H2942 C2955 0.929 . S
H2943 C2953 0.929 . S
H2944 C2948 0.929 . S
H2945 C2954 0.929 . S
C2946 H2940 0.930 . S
C2946 C2947 1.367 . S
C2946 C2954 1.378 . S
C2947 C2946 1.367 . S
C2947 C2955 1.433 . S
C2948 H2944 0.929 . S
C2948 C2950 1.378 . S
C2948 C2952 1.350 . S
C2949 C2952 1.463 . S
C2949 C2954 1.350 . S
C2949 N2957 1.427 . S
C2950 H2941 0.930 . S
C2950 C2948 1.378 . S
C2950 C2951 1.367 . S
C2951 C2950 1.367 . S
C2951 C2953 1.433 . S
C2952 C2948 1.350 . S
C2952 C2949 1.463 . S
C2952 N2956 1.427 . S
C2953 H2943 0.929 . S
C2953 C2951 1.433 . S
C2953 N2956 1.384 . S
C2954 H2945 0.929 . S
C2954 C2946 1.378 . S
C2954 C2949 1.350 . S
C2955 H2942 0.929 . S
C2955 C2947 1.433 . S
C2955 N2957 1.384 . S
N2956 C2952 1.427 . S
N2956 C2953 1.384 . S
N2957 C2949 1.427 . S
N2957 C2955 1.384 . S
H2958 C2964 0.930 . S
H2959 C2968 0.930 . S
H2960 C2973 0.929 . S
H2961 C2971 0.929 . S
H2962 C2966 0.929 . S
H2963 C2972 0.929 . S
C2964 H2958 0.930 . S
C2964 C2965 1.367 . S
C2964 C2972 1.378 . S
C2965 C2964 1.367 . S
C2965 C2973 1.433 . S
C2966 H2962 0.929 . S
C2966 C2968 1.378 . S
C2966 C2970 1.350 . S
C2967 C2970 1.463 . S
C2967 C2972 1.350 . S
C2967 N2975 1.427 . S
C2968 H2959 0.930 . S
C2968 C2966 1.378 . S
C2968 C2969 1.367 . S
C2969 C2968 1.367 . S
C2969 C2971 1.433 . S
C2970 C2966 1.350 . S
C2970 C2967 1.463 . S
C2970 N2974 1.427 . S
C2971 H2961 0.929 . S
C2971 C2969 1.433 . S
C2971 N2974 1.384 . S
C2972 H2963 0.929 . S
C2972 C2964 1.378 . S
C2972 C2967 1.350 . S
C2973 H2960 0.929 . S
C2973 C2965 1.433 . S
C2973 N2975 1.384 . S
N2974 C2970 1.427 . S
N2974 C2971 1.384 . S
N2975 C2967 1.427 . S
N2975 C2973 1.384 . S
H2976 C2982 0.930 . S
H2977 C2986 0.930 . S
H2978 C2991 0.929 . S
H2979 C2989 0.929 . S
H2980 C2984 0.929 . S
H2981 C2990 0.929 . S
C2982 H2976 0.930 . S
C2982 C2983 1.367 . S
C2982 C2990 1.378 . S
C2983 C2982 1.367 . S
C2983 C2991 1.433 . S
C2984 H2980 0.929 . S
C2984 C2986 1.378 . S
C2984 C2988 1.350 . S
C2985 C2988 1.463 . S
C2985 C2990 1.350 . S
C2985 N2993 1.427 . S
C2986 H2977 0.930 . S
C2986 C2984 1.378 . S
C2986 C2987 1.367 . S
C2987 C2986 1.367 . S
C2987 C2989 1.433 . S
C2988 C2984 1.350 . S
C2988 C2985 1.463 . S
C2988 N2992 1.427 . S
C2989 H2979 0.929 . S
C2989 C2987 1.433 . S
C2989 N2992 1.384 . S
C2990 H2981 0.929 . S
C2990 C2982 1.378 . S
C2990 C2985 1.350 . S
C2991 H2978 0.929 . S
C2991 C2983 1.433 . S
C2991 N2993 1.384 . S
N2992 C2988 1.427 . S
N2992 C2989 1.384 . S
N2993 C2985 1.427 . S
N2993 C2991 1.384 . S
H2994 C3000 0.930 . S
H2995 C3004 0.930 . S
H2996 C3009 0.929 . S
H2997 C3007 0.929 . S
H2998 C3002 0.929 . S
H2999 C3008 0.929 . S
C3000 H2994 0.930 . S
C3000 C3001 1.367 . S
C3000 C3008 1.378 . S
C3001 C3000 1.367 . S
C3001 C3009 1.433 . S
C3002 H2998 0.929 . S
C3002 C3004 1.378 . S
C3002 C3006 1.350 . S
C3003 C3006 1.463 . S
C3003 C3008 1.350 . S
C3003 N3011 1.427 . S
C3004 H2995 0.930 . S
C3004 C3002 1.378 . S
C3004 C3005 1.367 . S
C3005 C3004 1.367 . S
C3005 C3007 1.433 . S
C3006 C3002 1.350 . S
C3006 C3003 1.463 . S
C3006 N3010 1.427 . S
C3007 H2997 0.929 . S
C3007 C3005 1.433 . S
C3007 N3010 1.384 . S
C3008 H2999 0.929 . S
C3008 C3000 1.378 . S
C3008 C3003 1.350 . S
C3009 H2996 0.929 . S
C3009 C3001 1.433 . S
C3009 N3011 1.384 . S
N3010 C3006 1.427 . S
N3010 C3007 1.384 . S
N3011 C3003 1.427 . S
N3011 C3009 1.384 . S
H3012 C3018 0.930 . S
H3013 C3022 0.930 . S
H3014 C3027 0.929 . S
H3015 C3025 0.929 . S
H3016 C3020 0.929 . S
H3017 C3026 0.929 . S
C3018 H3012 0.930 . S
C3018 C3019 1.367 . S
C3018 C3026 1.378 . S
C3019 C3018 1.367 . S
C3019 C3027 1.433 . S
C3020 H3016 0.929 . S
C3020 C3022 1.378 . S
C3020 C3024 1.350 . S
C3021 C3024 1.463 . S
C3021 C3026 1.350 . S
C3021 N3029 1.427 . S
C3022 H3013 0.930 . S
C3022 C3020 1.378 . S
C3022 C3023 1.367 . S
C3023 C3022 1.367 . S
C3023 C3025 1.433 . S
C3024 C3020 1.350 . S
C3024 C3021 1.463 . S
C3024 N3028 1.427 . S
C3025 H3015 0.929 . S
C3025 C3023 1.433 . S
C3025 N3028 1.384 . S
C3026 H3017 0.929 . S
C3026 C3018 1.378 . S
C3026 C3021 1.350 . S
C3027 H3014 0.929 . S
C3027 C3019 1.433 . S
C3027 N3029 1.384 . S
N3028 C3024 1.427 . S
N3028 C3025 1.384 . S
N3029 C3021 1.427 . S
N3029 C3027 1.384 . S
H3030 C3036 0.930 . S
H3031 C3040 0.930 . S
H3032 C3045 0.929 . S
H3033 C3043 0.929 . S
H3034 C3038 0.929 . S
H3035 C3044 0.929 . S
C3036 H3030 0.930 . S
C3036 C3037 1.367 . S
C3036 C3044 1.378 . S
C3037 C3036 1.367 . S
C3037 C3045 1.433 . S
C3038 H3034 0.929 . S
C3038 C3040 1.378 . S
C3038 C3042 1.350 . S
C3039 C3042 1.463 . S
C3039 C3044 1.350 . S
C3039 N3047 1.427 . S
C3040 H3031 0.930 . S
C3040 C3038 1.378 . S
C3040 C3041 1.367 . S
C3041 C3040 1.367 . S
C3041 C3043 1.433 . S
C3042 C3038 1.350 . S
C3042 C3039 1.463 . S
C3042 N3046 1.427 . S
C3043 H3033 0.929 . S
C3043 C3041 1.433 . S
C3043 N3046 1.384 . S
C3044 H3035 0.929 . S
C3044 C3036 1.378 . S
C3044 C3039 1.350 . S
C3045 H3032 0.929 . S
C3045 C3037 1.433 . S
C3045 N3047 1.384 . S
N3046 C3042 1.427 . S
N3046 C3043 1.384 . S
N3047 C3039 1.427 . S
N3047 C3045 1.384 . S
H3048 C3054 0.930 . S
H3049 C3058 0.930 . S
H3050 C3063 0.929 . S
H3051 C3061 0.929 . S
H3052 C3056 0.929 . S
H3053 C3062 0.929 . S
C3054 H3048 0.930 . S
C3054 C3055 1.367 . S
C3054 C3062 1.378 . S
C3055 C3054 1.367 . S
C3055 C3063 1.433 . S
C3056 H3052 0.929 . S
C3056 C3058 1.378 . S
C3056 C3060 1.350 . S
C3057 C3060 1.463 . S
C3057 C3062 1.350 . S
C3057 N3065 1.427 . S
C3058 H3049 0.930 . S
C3058 C3056 1.378 . S
C3058 C3059 1.367 . S
C3059 C3058 1.367 . S
C3059 C3061 1.433 . S
C3060 C3056 1.350 . S
C3060 C3057 1.463 . S
C3060 N3064 1.427 . S
C3061 H3051 0.929 . S
C3061 C3059 1.433 . S
C3061 N3064 1.384 . S
C3062 H3053 0.929 . S
C3062 C3054 1.378 . S
C3062 C3057 1.350 . S
C3063 H3050 0.929 . S
C3063 C3055 1.433 . S
C3063 N3065 1.384 . S
N3064 C3060 1.427 . S
N3064 C3061 1.384 . S
N3065 C3057 1.427 . S
N3065 C3063 1.384 . S
H3066 C3072 0.930 . S
H3067 C3076 0.930 . S
H3068 C3081 0.929 . S
H3069 C3079 0.929 . S
H3070 C3074 0.929 . S
H3071 C3080 0.929 . S
C3072 H3066 0.930 . S
C3072 C3073 1.367 . S
C3072 C3080 1.378 . S
C3073 C3072 1.367 . S
C3073 C3081 1.433 . S
C3074 H3070 0.929 . S
C3074 C3076 1.378 . S
C3074 C3078 1.350 . S
C3075 C3078 1.463 . S
C3075 C3080 1.350 . S
C3075 N3083 1.427 . S
C3076 H3067 0.930 . S
C3076 C3074 1.378 . S
C3076 C3077 1.367 . S
C3077 C3076 1.367 . S
C3077 C3079 1.433 . S
C3078 C3074 1.350 . S
C3078 C3075 1.463 . S
C3078 N3082 1.427 . S
C3079 H3069 0.929 . S
C3079 C3077 1.433 . S
C3079 N3082 1.384 . S
C3080 H3071 0.929 . S
C3080 C3072 1.378 . S
C3080 C3075 1.350 . S
C3081 H3068 0.929 . S
C3081 C3073 1.433 . S
C3081 N3083 1.384 . S
N3082 C3078 1.427 . S
N3082 C3079 1.384 . S
N3083 C3075 1.427 . S
N3083 C3081 1.384 . S
H3084 C3090 0.930 . S
H3085 C3094 0.930 . S
H3086 C3099 0.929 . S
H3087 C3097 0.929 . S
H3088 C3092 0.929 . S
H3089 C3098 0.929 . S
C3090 H3084 0.930 . S
C3090 C3091 1.367 . S
C3090 C3098 1.378 . S
C3091 C3090 1.367 . S
C3091 C3099 1.433 . S
C3092 H3088 0.929 . S
C3092 C3094 1.378 . S
C3092 C3096 1.350 . S
C3093 C3096 1.463 . S
C3093 C3098 1.350 . S
C3093 N3101 1.427 . S
C3094 H3085 0.930 . S
C3094 C3092 1.378 . S
C3094 C3095 1.367 . S
C3095 C3094 1.367 . S
C3095 C3097 1.433 . S
C3096 C3092 1.350 . S
C3096 C3093 1.463 . S
C3096 N3100 1.427 . S
C3097 H3087 0.929 . S
C3097 C3095 1.433 . S
C3097 N3100 1.384 . S
C3098 H3089 0.929 . S
C3098 C3090 1.378 . S
C3098 C3093 1.350 . S
C3099 H3086 0.929 . S
C3099 C3091 1.433 . S
C3099 N3101 1.384 . S
N3100 C3096 1.427 . S
N3100 C3097 1.384 . S
N3101 C3093 1.427 . S
N3101 C3099 1.384 . S
H3102 C3108 0.930 . S
H3103 C3112 0.930 . S
H3104 C3117 0.929 . S
H3105 C3115 0.929 . S
H3106 C3110 0.929 . S
H3107 C3116 0.929 . S
C3108 H3102 0.930 . S
C3108 C3109 1.367 . S
C3108 C3116 1.378 . S
C3109 C3108 1.367 . S
C3109 C3117 1.433 . S
C3110 H3106 0.929 . S
C3110 C3112 1.378 . S
C3110 C3114 1.350 . S
C3111 C3114 1.463 . S
C3111 C3116 1.350 . S
C3111 N3119 1.427 . S
C3112 H3103 0.930 . S
C3112 C3110 1.378 . S
C3112 C3113 1.367 . S
C3113 C3112 1.367 . S
C3113 C3115 1.433 . S
C3114 C3110 1.350 . S
C3114 C3111 1.463 . S
C3114 N3118 1.427 . S
C3115 H3105 0.929 . S
C3115 C3113 1.433 . S
C3115 N3118 1.384 . S
C3116 H3107 0.929 . S
C3116 C3108 1.378 . S
C3116 C3111 1.350 . S
C3117 H3104 0.929 . S
C3117 C3109 1.433 . S
C3117 N3119 1.384 . S
N3118 C3114 1.427 . S
N3118 C3115 1.384 . S
N3119 C3111 1.427 . S
N3119 C3117 1.384 . S
H3120 C3126 0.930 . S
H3121 C3130 0.930 . S
H3122 C3135 0.929 . S
H3123 C3133 0.929 . S
H3124 C3128 0.929 . S
H3125 C3134 0.929 . S
C3126 H3120 0.930 . S
C3126 C3127 1.367 . S
C3126 C3134 1.378 . S
C3127 C3126 1.367 . S
C3127 C3135 1.433 . S
C3128 H3124 0.929 . S
C3128 C3130 1.378 . S
C3128 C3132 1.350 . S
C3129 C3132 1.463 . S
C3129 C3134 1.350 . S
C3129 N3137 1.427 . S
C3130 H3121 0.930 . S
C3130 C3128 1.378 . S
C3130 C3131 1.367 . S
C3131 C3130 1.367 . S
C3131 C3133 1.433 . S
C3132 C3128 1.350 . S
C3132 C3129 1.463 . S
C3132 N3136 1.427 . S
C3133 H3123 0.929 . S
C3133 C3131 1.433 . S
C3133 N3136 1.384 . S
C3134 H3125 0.929 . S
C3134 C3126 1.378 . S
C3134 C3129 1.350 . S
C3135 H3122 0.929 . S
C3135 C3127 1.433 . S
C3135 N3137 1.384 . S
N3136 C3132 1.427 . S
N3136 C3133 1.384 . S
N3137 C3129 1.427 . S
N3137 C3135 1.384 . S
H3138 C3144 0.930 . S
H3139 C3148 0.930 . S
H3140 C3153 0.929 . S
H3141 C3151 0.929 . S
H3142 C3146 0.929 . S
H3143 C3152 0.929 . S
C3144 H3138 0.930 . S
C3144 C3145 1.367 . S
C3144 C3152 1.378 . S
C3145 C3144 1.367 . S
C3145 C3153 1.433 . S
C3146 H3142 0.929 . S
C3146 C3148 1.378 . S
C3146 C3150 1.350 . S
C3147 C3150 1.463 . S
C3147 C3152 1.350 . S
C3147 N3155 1.427 . S
C3148 H3139 0.930 . S
C3148 C3146 1.378 . S
C3148 C3149 1.367 . S
C3149 C3148 1.367 . S
C3149 C3151 1.433 . S
C3150 C3146 1.350 . S
C3150 C3147 1.463 . S
C3150 N3154 1.427 . S
C3151 H3141 0.929 . S
C3151 C3149 1.433 . S
C3151 N3154 1.384 . S
C3152 H3143 0.929 . S
C3152 C3144 1.378 . S
C3152 C3147 1.350 . S
C3153 H3140 0.929 . S
C3153 C3145 1.433 . S
C3153 N3155 1.384 . S
N3154 C3150 1.427 . S
N3154 C3151 1.384 . S
N3155 C3147 1.427 . S
N3155 C3153 1.384 . S
H3156 C3162 0.930 . S
H3157 C3166 0.930 . S
H3158 C3171 0.929 . S
H3159 C3169 0.929 . S
H3160 C3164 0.929 . S
H3161 C3170 0.929 . S
C3162 H3156 0.930 . S
C3162 C3163 1.367 . S
C3162 C3170 1.378 . S
C3163 C3162 1.367 . S
C3163 C3171 1.433 . S
C3164 H3160 0.929 . S
C3164 C3166 1.378 . S
C3164 C3168 1.350 . S
C3165 C3168 1.463 . S
C3165 C3170 1.350 . S
C3165 N3173 1.427 . S
C3166 H3157 0.930 . S
C3166 C3164 1.378 . S
C3166 C3167 1.367 . S
C3167 C3166 1.367 . S
C3167 C3169 1.433 . S
C3168 C3164 1.350 . S
C3168 C3165 1.463 . S
C3168 N3172 1.427 . S
C3169 H3159 0.929 . S
C3169 C3167 1.433 . S
C3169 N3172 1.384 . S
C3170 H3161 0.929 . S
C3170 C3162 1.378 . S
C3170 C3165 1.350 . S
C3171 H3158 0.929 . S
C3171 C3163 1.433 . S
C3171 N3173 1.384 . S
N3172 C3168 1.427 . S
N3172 C3169 1.384 . S
N3173 C3165 1.427 . S
N3173 C3171 1.384 . S
H3174 C3180 0.930 . S
H3175 C3184 0.930 . S
H3176 C3189 0.929 . S
H3177 C3187 0.929 . S
H3178 C3182 0.929 . S
H3179 C3188 0.929 . S
C3180 H3174 0.930 . S
C3180 C3181 1.367 . S
C3180 C3188 1.378 . S
C3181 C3180 1.367 . S
C3181 C3189 1.433 . S
C3182 H3178 0.929 . S
C3182 C3184 1.378 . S
C3182 C3186 1.350 . S
C3183 C3186 1.463 . S
C3183 C3188 1.350 . S
C3183 N3191 1.427 . S
C3184 H3175 0.930 . S
C3184 C3182 1.378 . S
C3184 C3185 1.367 . S
C3185 C3184 1.367 . S
C3185 C3187 1.433 . S
C3186 C3182 1.350 . S
C3186 C3183 1.463 . S
C3186 N3190 1.427 . S
C3187 H3177 0.929 . S
C3187 C3185 1.433 . S
C3187 N3190 1.384 . S
C3188 H3179 0.929 . S
C3188 C3180 1.378 . S
C3188 C3183 1.350 . S
C3189 H3176 0.929 . S
C3189 C3181 1.433 . S
C3189 N3191 1.384 . S
N3190 C3186 1.427 . S
N3190 C3187 1.384 . S
N3191 C3183 1.427 . S
N3191 C3189 1.384 . S
H3192 C3198 0.930 . S
H3193 C3202 0.930 . S
H3194 C3207 0.929 . S
H3195 C3205 0.929 . S
H3196 C3200 0.929 . S
H3197 C3206 0.929 . S
C3198 H3192 0.930 . S
C3198 C3199 1.367 . S
C3198 C3206 1.378 . S
C3199 C3198 1.367 . S
C3199 C3207 1.433 . S
C3200 H3196 0.929 . S
C3200 C3202 1.378 . S
C3200 C3204 1.350 . S
C3201 C3204 1.463 . S
C3201 C3206 1.350 . S
C3201 N3209 1.427 . S
C3202 H3193 0.930 . S
C3202 C3200 1.378 . S
C3202 C3203 1.367 . S
C3203 C3202 1.367 . S
C3203 C3205 1.433 . S
C3204 C3200 1.350 . S
C3204 C3201 1.463 . S
C3204 N3208 1.427 . S
C3205 H3195 0.929 . S
C3205 C3203 1.433 . S
C3205 N3208 1.384 . S
C3206 H3197 0.929 . S
C3206 C3198 1.378 . S
C3206 C3201 1.350 . S
C3207 H3194 0.929 . S
C3207 C3199 1.433 . S
C3207 N3209 1.384 . S
N3208 C3204 1.427 . S
N3208 C3205 1.384 . S
N3209 C3201 1.427 . S
N3209 C3207 1.384 . S
H3210 C3216 0.930 . S
H3211 C3220 0.930 . S
H3212 C3225 0.929 . S
H3213 C3223 0.929 . S
H3214 C3218 0.929 . S
H3215 C3224 0.929 . S
C3216 H3210 0.930 . S
C3216 C3217 1.367 . S
C3216 C3224 1.378 . S
C3217 C3216 1.367 . S
C3217 C3225 1.433 . S
C3218 H3214 0.929 . S
C3218 C3220 1.378 . S
C3218 C3222 1.350 . S
C3219 C3222 1.463 . S
C3219 C3224 1.350 . S
C3219 N3227 1.427 . S
C3220 H3211 0.930 . S
C3220 C3218 1.378 . S
C3220 C3221 1.367 . S
C3221 C3220 1.367 . S
C3221 C3223 1.433 . S
C3222 C3218 1.350 . S
C3222 C3219 1.463 . S
C3222 N3226 1.427 . S
C3223 H3213 0.929 . S
C3223 C3221 1.433 . S
C3223 N3226 1.384 . S
C3224 H3215 0.929 . S
C3224 C3216 1.378 . S
C3224 C3219 1.350 . S
C3225 H3212 0.929 . S
C3225 C3217 1.433 . S
C3225 N3227 1.384 . S
N3226 C3222 1.427 . S
N3226 C3223 1.384 . S
N3227 C3219 1.427 . S
N3227 C3225 1.384 . S
H3228 C3234 0.930 . S
H3229 C3238 0.930 . S
H3230 C3243 0.929 . S
H3231 C3241 0.929 . S
H3232 C3236 0.929 . S
H3233 C3242 0.929 . S
C3234 H3228 0.930 . S
C3234 C3235 1.367 . S
C3234 C3242 1.378 . S
C3235 C3234 1.367 . S
C3235 C3243 1.433 . S
C3236 H3232 0.929 . S
C3236 C3238 1.378 . S
C3236 C3240 1.350 . S
C3237 C3240 1.463 . S
C3237 C3242 1.350 . S
C3237 N3245 1.427 . S
C3238 H3229 0.930 . S
C3238 C3236 1.378 . S
C3238 C3239 1.367 . S
C3239 C3238 1.367 . S
C3239 C3241 1.433 . S
C3240 C3236 1.350 . S
C3240 C3237 1.463 . S
C3240 N3244 1.427 . S
C3241 H3231 0.929 . S
C3241 C3239 1.433 . S
C3241 N3244 1.384 . S
C3242 H3233 0.929 . S
C3242 C3234 1.378 . S
C3242 C3237 1.350 . S
C3243 H3230 0.929 . S
C3243 C3235 1.433 . S
C3243 N3245 1.384 . S
N3244 C3240 1.427 . S
N3244 C3241 1.384 . S
N3245 C3237 1.427 . S
N3245 C3243 1.384 . S
H3246 C3252 0.930 . S
H3247 C3256 0.930 . S
H3248 C3261 0.929 . S
H3249 C3259 0.929 . S
H3250 C3254 0.929 . S
H3251 C3260 0.929 . S
C3252 H3246 0.930 . S
C3252 C3253 1.367 . S
C3252 C3260 1.378 . S
C3253 C3252 1.367 . S
C3253 C3261 1.433 . S
C3254 H3250 0.929 . S
C3254 C3256 1.378 . S
C3254 C3258 1.350 . S
C3255 C3258 1.463 . S
C3255 C3260 1.350 . S
C3255 N3263 1.427 . S
C3256 H3247 0.930 . S
C3256 C3254 1.378 . S
C3256 C3257 1.367 . S
C3257 C3256 1.367 . S
C3257 C3259 1.433 . S
C3258 C3254 1.350 . S
C3258 C3255 1.463 . S
C3258 N3262 1.427 . S
C3259 H3249 0.929 . S
C3259 C3257 1.433 . S
C3259 N3262 1.384 . S
C3260 H3251 0.929 . S
C3260 C3252 1.378 . S
C3260 C3255 1.350 . S
C3261 H3248 0.929 . S
C3261 C3253 1.433 . S
C3261 N3263 1.384 . S
N3262 C3258 1.427 . S
N3262 C3259 1.384 . S
N3263 C3255 1.427 . S
N3263 C3261 1.384 . S
H3264 C3270 0.930 . S
H3265 C3274 0.930 . S
H3266 C3279 0.929 . S
H3267 C3277 0.929 . S
H3268 C3272 0.929 . S
H3269 C3278 0.929 . S
C3270 H3264 0.930 . S
C3270 C3271 1.367 . S
C3270 C3278 1.378 . S
C3271 C3270 1.367 . S
C3271 C3279 1.433 . S
C3272 H3268 0.929 . S
C3272 C3274 1.378 . S
C3272 C3276 1.350 . S
C3273 C3276 1.463 . S
C3273 C3278 1.350 . S
C3273 N3281 1.427 . S
C3274 H3265 0.930 . S
C3274 C3272 1.378 . S
C3274 C3275 1.367 . S
C3275 C3274 1.367 . S
C3275 C3277 1.433 . S
C3276 C3272 1.350 . S
C3276 C3273 1.463 . S
C3276 N3280 1.427 . S
C3277 H3267 0.929 . S
C3277 C3275 1.433 . S
C3277 N3280 1.384 . S
C3278 H3269 0.929 . S
C3278 C3270 1.378 . S
C3278 C3273 1.350 . S
C3279 H3266 0.929 . S
C3279 C3271 1.433 . S
C3279 N3281 1.384 . S
N3280 C3276 1.427 . S
N3280 C3277 1.384 . S
N3281 C3273 1.427 . S
N3281 C3279 1.384 . S
H3282 C3288 0.930 . S
H3283 C3292 0.930 . S
H3284 C3297 0.929 . S
H3285 C3295 0.929 . S
H3286 C3290 0.929 . S
H3287 C3296 0.929 . S
C3288 H3282 0.930 . S
C3288 C3289 1.367 . S
C3288 C3296 1.378 . S
C3289 C3288 1.367 . S
C3289 C3297 1.433 . S
C3290 H3286 0.929 . S
C3290 C3292 1.378 . S
C3290 C3294 1.350 . S
C3291 C3294 1.463 . S
C3291 C3296 1.350 . S
C3291 N3299 1.427 . S
C3292 H3283 0.930 . S
C3292 C3290 1.378 . S
C3292 C3293 1.367 . S
C3293 C3292 1.367 . S
C3293 C3295 1.433 . S
C3294 C3290 1.350 . S
C3294 C3291 1.463 . S
C3294 N3298 1.427 . S
C3295 H3285 0.929 . S
C3295 C3293 1.433 . S
C3295 N3298 1.384 . S
C3296 H3287 0.929 . S
C3296 C3288 1.378 . S
C3296 C3291 1.350 . S
C3297 H3284 0.929 . S
C3297 C3289 1.433 . S
C3297 N3299 1.384 . S
N3298 C3294 1.427 . S
N3298 C3295 1.384 . S
N3299 C3291 1.427 . S
N3299 C3297 1.384 . S
H3300 C3306 0.930 . S
H3301 C3310 0.930 . S
H3302 C3315 0.929 . S
H3303 C3313 0.929 . S
H3304 C3308 0.929 . S
H3305 C3314 0.929 . S
C3306 H3300 0.930 . S
C3306 C3307 1.367 . S
C3306 C3314 1.378 . S
C3307 C3306 1.367 . S
C3307 C3315 1.433 . S
C3308 H3304 0.929 . S
C3308 C3310 1.378 . S
C3308 C3312 1.350 . S
C3309 C3312 1.463 . S
C3309 C3314 1.350 . S
C3309 N3317 1.427 . S
C3310 H3301 0.930 . S
C3310 C3308 1.378 . S
C3310 C3311 1.367 . S
C3311 C3310 1.367 . S
C3311 C3313 1.433 . S
C3312 C3308 1.350 . S
C3312 C3309 1.463 . S
C3312 N3316 1.427 . S
C3313 H3303 0.929 . S
C3313 C3311 1.433 . S
C3313 N3316 1.384 . S
C3314 H3305 0.929 . S
C3314 C3306 1.378 . S
C3314 C3309 1.350 . S
C3315 H3302 0.929 . S
C3315 C3307 1.433 . S
C3315 N3317 1.384 . S
N3316 C3312 1.427 . S
N3316 C3313 1.384 . S
N3317 C3309 1.427 . S
N3317 C3315 1.384 . S
H3318 C3324 0.930 . S
H3319 C3328 0.930 . S
H3320 C3333 0.929 . S
H3321 C3331 0.929 . S
H3322 C3326 0.929 . S
H3323 C3332 0.929 . S
C3324 H3318 0.930 . S
C3324 C3325 1.367 . S
C3324 C3332 1.378 . S
C3325 C3324 1.367 . S
C3325 C3333 1.433 . S
C3326 H3322 0.929 . S
C3326 C3328 1.378 . S
C3326 C3330 1.350 . S
C3327 C3330 1.463 . S
C3327 C3332 1.350 . S
C3327 N3335 1.427 . S
C3328 H3319 0.930 . S
C3328 C3326 1.378 . S
C3328 C3329 1.367 . S
C3329 C3328 1.367 . S
C3329 C3331 1.433 . S
C3330 C3326 1.350 . S
C3330 C3327 1.463 . S
C3330 N3334 1.427 . S
C3331 H3321 0.929 . S
C3331 C3329 1.433 . S
C3331 N3334 1.384 . S
C3332 H3323 0.929 . S
C3332 C3324 1.378 . S
C3332 C3327 1.350 . S
C3333 H3320 0.929 . S
C3333 C3325 1.433 . S
C3333 N3335 1.384 . S
N3334 C3330 1.427 . S
N3334 C3331 1.384 . S
N3335 C3327 1.427 . S
N3335 C3333 1.384 . S
H3336 C3342 0.930 . S
H3337 C3346 0.930 . S
H3338 C3351 0.929 . S
H3339 C3349 0.929 . S
H3340 C3344 0.929 . S
H3341 C3350 0.929 . S
C3342 H3336 0.930 . S
C3342 C3343 1.367 . S
C3342 C3350 1.378 . S
C3343 C3342 1.367 . S
C3343 C3351 1.433 . S
C3344 H3340 0.929 . S
C3344 C3346 1.378 . S
C3344 C3348 1.350 . S
C3345 C3348 1.463 . S
C3345 C3350 1.350 . S
C3345 N3353 1.427 . S
C3346 H3337 0.930 . S
C3346 C3344 1.378 . S
C3346 C3347 1.367 . S
C3347 C3346 1.367 . S
C3347 C3349 1.433 . S
C3348 C3344 1.350 . S
C3348 C3345 1.463 . S
C3348 N3352 1.427 . S
C3349 H3339 0.929 . S
C3349 C3347 1.433 . S
C3349 N3352 1.384 . S
C3350 H3341 0.929 . S
C3350 C3342 1.378 . S
C3350 C3345 1.350 . S
C3351 H3338 0.929 . S
C3351 C3343 1.433 . S
C3351 N3353 1.384 . S
N3352 C3348 1.427 . S
N3352 C3349 1.384 . S
N3353 C3345 1.427 . S
N3353 C3351 1.384 . S
H3354 C3360 0.930 . S
H3355 C3364 0.930 . S
H3356 C3369 0.929 . S
H3357 C3367 0.929 . S
H3358 C3362 0.929 . S
H3359 C3368 0.929 . S
C3360 H3354 0.930 . S
C3360 C3361 1.367 . S
C3360 C3368 1.378 . S
C3361 C3360 1.367 . S
C3361 C3369 1.433 . S
C3362 H3358 0.929 . S
C3362 C3364 1.378 . S
C3362 C3366 1.350 . S
C3363 C3366 1.463 . S
C3363 C3368 1.350 . S
C3363 N3371 1.427 . S
C3364 H3355 0.930 . S
C3364 C3362 1.378 . S
C3364 C3365 1.367 . S
C3365 C3364 1.367 . S
C3365 C3367 1.433 . S
C3366 C3362 1.350 . S
C3366 C3363 1.463 . S
C3366 N3370 1.427 . S
C3367 H3357 0.929 . S
C3367 C3365 1.433 . S
C3367 N3370 1.384 . S
C3368 H3359 0.929 . S
C3368 C3360 1.378 . S
C3368 C3363 1.350 . S
C3369 H3356 0.929 . S
C3369 C3361 1.433 . S
C3369 N3371 1.384 . S
N3370 C3366 1.427 . S
N3370 C3367 1.384 . S
N3371 C3363 1.427 . S
N3371 C3369 1.384 . S
H3372 C3378 0.930 . S
H3373 C3382 0.930 . S
H3374 C3387 0.929 . S
H3375 C3385 0.929 . S
H3376 C3380 0.929 . S
H3377 C3386 0.929 . S
C3378 H3372 0.930 . S
C3378 C3379 1.367 . S
C3378 C3386 1.378 . S
C3379 C3378 1.367 . S
C3379 C3387 1.433 . S
C3380 H3376 0.929 . S
C3380 C3382 1.378 . S
C3380 C3384 1.350 . S
C3381 C3384 1.463 . S
C3381 C3386 1.350 . S
C3381 N3389 1.427 . S
C3382 H3373 0.930 . S
C3382 C3380 1.378 . S
C3382 C3383 1.367 . S
C3383 C3382 1.367 . S
C3383 C3385 1.433 . S
C3384 C3380 1.350 . S
C3384 C3381 1.463 . S
C3384 N3388 1.427 . S
C3385 H3375 0.929 . S
C3385 C3383 1.433 . S
C3385 N3388 1.384 . S
C3386 H3377 0.929 . S
C3386 C3378 1.378 . S
C3386 C3381 1.350 . S
C3387 H3374 0.929 . S
C3387 C3379 1.433 . S
C3387 N3389 1.384 . S
N3388 C3384 1.427 . S
N3388 C3385 1.384 . S
N3389 C3381 1.427 . S
N3389 C3387 1.384 . S
H3390 C3396 0.930 . S
H3391 C3400 0.930 . S
H3392 C3405 0.929 . S
H3393 C3403 0.929 . S
H3394 C3398 0.929 . S
H3395 C3404 0.929 . S
C3396 H3390 0.930 . S
C3396 C3397 1.367 . S
C3396 C3404 1.378 . S
C3397 C3396 1.367 . S
C3397 C3405 1.433 . S
C3398 H3394 0.929 . S
C3398 C3400 1.378 . S
C3398 C3402 1.350 . S
C3399 C3402 1.463 . S
C3399 C3404 1.350 . S
C3399 N3407 1.427 . S
C3400 H3391 0.930 . S
C3400 C3398 1.378 . S
C3400 C3401 1.367 . S
C3401 C3400 1.367 . S
C3401 C3403 1.433 . S
C3402 C3398 1.350 . S
C3402 C3399 1.463 . S
C3402 N3406 1.427 . S
C3403 H3393 0.929 . S
C3403 C3401 1.433 . S
C3403 N3406 1.384 . S
C3404 H3395 0.929 . S
C3404 C3396 1.378 . S
C3404 C3399 1.350 . S
C3405 H3392 0.929 . S
C3405 C3397 1.433 . S
C3405 N3407 1.384 . S
N3406 C3402 1.427 . S
N3406 C3403 1.384 . S
N3407 C3399 1.427 . S
N3407 C3405 1.384 . S
H3408 C3414 0.930 . S
H3409 C3418 0.930 . S
H3410 C3423 0.929 . S
H3411 C3421 0.929 . S
H3412 C3416 0.929 . S
H3413 C3422 0.929 . S
C3414 H3408 0.930 . S
C3414 C3415 1.367 . S
C3414 C3422 1.378 . S
C3415 C3414 1.367 . S
C3415 C3423 1.433 . S
C3416 H3412 0.929 . S
C3416 C3418 1.378 . S
C3416 C3420 1.350 . S
C3417 C3420 1.463 . S
C3417 C3422 1.350 . S
C3417 N3425 1.427 . S
C3418 H3409 0.930 . S
C3418 C3416 1.378 . S
C3418 C3419 1.367 . S
C3419 C3418 1.367 . S
C3419 C3421 1.433 . S
C3420 C3416 1.350 . S
C3420 C3417 1.463 . S
C3420 N3424 1.427 . S
C3421 H3411 0.929 . S
C3421 C3419 1.433 . S
C3421 N3424 1.384 . S
C3422 H3413 0.929 . S
C3422 C3414 1.378 . S
C3422 C3417 1.350 . S
C3423 H3410 0.929 . S
C3423 C3415 1.433 . S
C3423 N3425 1.384 . S
N3424 C3420 1.427 . S
N3424 C3421 1.384 . S
N3425 C3417 1.427 . S
N3425 C3423 1.384 . S
H3426 C3432 0.930 . S
H3427 C3436 0.930 . S
H3428 C3441 0.929 . S
H3429 C3439 0.929 . S
H3430 C3434 0.929 . S
H3431 C3440 0.929 . S
C3432 H3426 0.930 . S
C3432 C3433 1.367 . S
C3432 C3440 1.378 . S
C3433 C3432 1.367 . S
C3433 C3441 1.433 . S
C3434 H3430 0.929 . S
C3434 C3436 1.378 . S
C3434 C3438 1.350 . S
C3435 C3438 1.463 . S
C3435 C3440 1.350 . S
C3435 N3443 1.427 . S
C3436 H3427 0.930 . S
C3436 C3434 1.378 . S
C3436 C3437 1.367 . S
C3437 C3436 1.367 . S
C3437 C3439 1.433 . S
C3438 C3434 1.350 . S
C3438 C3435 1.463 . S
C3438 N3442 1.427 . S
C3439 H3429 0.929 . S
C3439 C3437 1.433 . S
C3439 N3442 1.384 . S
C3440 H3431 0.929 . S
C3440 C3432 1.378 . S
C3440 C3435 1.350 . S
C3441 H3428 0.929 . S
C3441 C3433 1.433 . S
C3441 N3443 1.384 . S
N3442 C3438 1.427 . S
N3442 C3439 1.384 . S
N3443 C3435 1.427 . S
N3443 C3441 1.384 . S
H3444 C3450 0.930 . S
H3445 C3454 0.930 . S
H3446 C3459 0.929 . S
H3447 C3457 0.929 . S
H3448 C3452 0.929 . S
H3449 C3458 0.929 . S
C3450 H3444 0.930 . S
C3450 C3451 1.367 . S
C3450 C3458 1.378 . S
C3451 C3450 1.367 . S
C3451 C3459 1.433 . S
C3452 H3448 0.929 . S
C3452 C3454 1.378 . S
C3452 C3456 1.350 . S
C3453 C3456 1.463 . S
C3453 C3458 1.350 . S
C3453 N3461 1.427 . S
C3454 H3445 0.930 . S
C3454 C3452 1.378 . S
C3454 C3455 1.367 . S
C3455 C3454 1.367 . S
C3455 C3457 1.433 . S
C3456 C3452 1.350 . S
C3456 C3453 1.463 . S
C3456 N3460 1.427 . S
C3457 H3447 0.929 . S
C3457 C3455 1.433 . S
C3457 N3460 1.384 . S
C3458 H3449 0.929 . S
C3458 C3450 1.378 . S
C3458 C3453 1.350 . S
C3459 H3446 0.929 . S
C3459 C3451 1.433 . S
C3459 N3461 1.384 . S
N3460 C3456 1.427 . S
N3460 C3457 1.384 . S
N3461 C3453 1.427 . S
N3461 C3459 1.384 . S
H3462 C3468 0.930 . S
H3463 C3472 0.930 . S
H3464 C3477 0.929 . S
H3465 C3475 0.929 . S
H3466 C3470 0.929 . S
H3467 C3476 0.929 . S
C3468 H3462 0.930 . S
C3468 C3469 1.367 . S
C3468 C3476 1.378 . S
C3469 C3468 1.367 . S
C3469 C3477 1.433 . S
C3470 H3466 0.929 . S
C3470 C3472 1.378 . S
C3470 C3474 1.350 . S
C3471 C3474 1.463 . S
C3471 C3476 1.350 . S
C3471 N3479 1.427 . S
C3472 H3463 0.930 . S
C3472 C3470 1.378 . S
C3472 C3473 1.367 . S
C3473 C3472 1.367 . S
C3473 C3475 1.433 . S
C3474 C3470 1.350 . S
C3474 C3471 1.463 . S
C3474 N3478 1.427 . S
C3475 H3465 0.929 . S
C3475 C3473 1.433 . S
C3475 N3478 1.384 . S
C3476 H3467 0.929 . S
C3476 C3468 1.378 . S
C3476 C3471 1.350 . S
C3477 H3464 0.929 . S
C3477 C3469 1.433 . S
C3477 N3479 1.384 . S
N3478 C3474 1.427 . S
N3478 C3475 1.384 . S
N3479 C3471 1.427 . S
N3479 C3477 1.384 . S
H3480 C3486 0.930 . S
H3481 C3490 0.930 . S
H3482 C3495 0.929 . S
H3483 C3493 0.929 . S
H3484 C3488 0.929 . S
H3485 C3494 0.929 . S
C3486 H3480 0.930 . S
C3486 C3487 1.367 . S
C3486 C3494 1.378 . S
C3487 C3486 1.367 . S
C3487 C3495 1.433 . S
C3488 H3484 0.929 . S
C3488 C3490 1.378 . S
C3488 C3492 1.350 . S
C3489 C3492 1.463 . S
C3489 C3494 1.350 . S
C3489 N3497 1.427 . S
C3490 H3481 0.930 . S
C3490 C3488 1.378 . S
C3490 C3491 1.367 . S
C3491 C3490 1.367 . S
C3491 C3493 1.433 . S
C3492 C3488 1.350 . S
C3492 C3489 1.463 . S
C3492 N3496 1.427 . S
C3493 H3483 0.929 . S
C3493 C3491 1.433 . S
C3493 N3496 1.384 . S
C3494 H3485 0.929 . S
C3494 C3486 1.378 . S
C3494 C3489 1.350 . S
C3495 H3482 0.929 . S
C3495 C3487 1.433 . S
C3495 N3497 1.384 . S
N3496 C3492 1.427 . S
N3496 C3493 1.384 . S
N3497 C3489 1.427 . S
N3497 C3495 1.384 . S
H3498 C3504 0.930 . S
H3499 C3508 0.930 . S
H3500 C3513 0.929 . S
H3501 C3511 0.929 . S
H3502 C3506 0.929 . S
H3503 C3512 0.929 . S
C3504 H3498 0.930 . S
C3504 C3505 1.367 . S
C3504 C3512 1.378 . S
C3505 C3504 1.367 . S
C3505 C3513 1.433 . S
C3506 H3502 0.929 . S
C3506 C3508 1.378 . S
C3506 C3510 1.350 . S
C3507 C3510 1.463 . S
C3507 C3512 1.350 . S
C3507 N3515 1.427 . S
C3508 H3499 0.930 . S
C3508 C3506 1.378 . S
C3508 C3509 1.367 . S
C3509 C3508 1.367 . S
C3509 C3511 1.433 . S
C3510 C3506 1.350 . S
C3510 C3507 1.463 . S
C3510 N3514 1.427 . S
C3511 H3501 0.929 . S
C3511 C3509 1.433 . S
C3511 N3514 1.384 . S
C3512 H3503 0.929 . S
C3512 C3504 1.378 . S
C3512 C3507 1.350 . S
C3513 H3500 0.929 . S
C3513 C3505 1.433 . S
C3513 N3515 1.384 . S
N3514 C3510 1.427 . S
N3514 C3511 1.384 . S
N3515 C3507 1.427 . S
N3515 C3513 1.384 . S
H3516 C3522 0.930 . S
H3517 C3526 0.930 . S
H3518 C3531 0.929 . S
H3519 C3529 0.929 . S
H3520 C3524 0.929 . S
H3521 C3530 0.929 . S
C3522 H3516 0.930 . S
C3522 C3523 1.367 . S
C3522 C3530 1.378 . S
C3523 C3522 1.367 . S
C3523 C3531 1.433 . S
C3524 H3520 0.929 . S
C3524 C3526 1.378 . S
C3524 C3528 1.350 . S
C3525 C3528 1.463 . S
C3525 C3530 1.350 . S
C3525 N3533 1.427 . S
C3526 H3517 0.930 . S
C3526 C3524 1.378 . S
C3526 C3527 1.367 . S
C3527 C3526 1.367 . S
C3527 C3529 1.433 . S
C3528 C3524 1.350 . S
C3528 C3525 1.463 . S
C3528 N3532 1.427 . S
C3529 H3519 0.929 . S
C3529 C3527 1.433 . S
C3529 N3532 1.384 . S
C3530 H3521 0.929 . S
C3530 C3522 1.378 . S
C3530 C3525 1.350 . S
C3531 H3518 0.929 . S
C3531 C3523 1.433 . S
C3531 N3533 1.384 . S
N3532 C3528 1.427 . S
N3532 C3529 1.384 . S
N3533 C3525 1.427 . S
N3533 C3531 1.384 . S
H3534 C3540 0.930 . S
H3535 C3544 0.930 . S
H3536 C3549 0.929 . S
H3537 C3547 0.929 . S
H3538 C3542 0.929 . S
H3539 C3548 0.929 . S
C3540 H3534 0.930 . S
C3540 C3541 1.367 . S
C3540 C3548 1.378 . S
C3541 C3540 1.367 . S
C3541 C3549 1.433 . S
C3542 H3538 0.929 . S
C3542 C3544 1.378 . S
C3542 C3546 1.350 . S
C3543 C3546 1.463 . S
C3543 C3548 1.350 . S
C3543 N3551 1.427 . S
C3544 H3535 0.930 . S
C3544 C3542 1.378 . S
C3544 C3545 1.367 . S
C3545 C3544 1.367 . S
C3545 C3547 1.433 . S
C3546 C3542 1.350 . S
C3546 C3543 1.463 . S
C3546 N3550 1.427 . S
C3547 H3537 0.929 . S
C3547 C3545 1.433 . S
C3547 N3550 1.384 . S
C3548 H3539 0.929 . S
C3548 C3540 1.378 . S
C3548 C3543 1.350 . S
C3549 H3536 0.929 . S
C3549 C3541 1.433 . S
C3549 N3551 1.384 . S
N3550 C3546 1.427 . S
N3550 C3547 1.384 . S
N3551 C3543 1.427 . S
N3551 C3549 1.384 . S
H3552 C3558 0.930 . S
H3553 C3562 0.930 . S
H3554 C3567 0.929 . S
H3555 C3565 0.929 . S
H3556 C3560 0.929 . S
H3557 C3566 0.929 . S
C3558 H3552 0.930 . S
C3558 C3559 1.367 . S
C3558 C3566 1.378 . S
C3559 C3558 1.367 . S
C3559 C3567 1.433 . S
C3560 H3556 0.929 . S
C3560 C3562 1.378 . S
C3560 C3564 1.350 . S
C3561 C3564 1.463 . S
C3561 C3566 1.350 . S
C3561 N3569 1.427 . S
C3562 H3553 0.930 . S
C3562 C3560 1.378 . S
C3562 C3563 1.367 . S
C3563 C3562 1.367 . S
C3563 C3565 1.433 . S
C3564 C3560 1.350 . S
C3564 C3561 1.463 . S
C3564 N3568 1.427 . S
C3565 H3555 0.929 . S
C3565 C3563 1.433 . S
C3565 N3568 1.384 . S
C3566 H3557 0.929 . S
C3566 C3558 1.378 . S
C3566 C3561 1.350 . S
C3567 H3554 0.929 . S
C3567 C3559 1.433 . S
C3567 N3569 1.384 . S
N3568 C3564 1.427 . S
N3568 C3565 1.384 . S
N3569 C3561 1.427 . S
N3569 C3567 1.384 . S
H3570 C3576 0.930 . S
H3571 C3580 0.930 . S
H3572 C3585 0.929 . S
H3573 C3583 0.929 . S
H3574 C3578 0.929 . S
H3575 C3584 0.929 . S
C3576 H3570 0.930 . S
C3576 C3577 1.367 . S
C3576 C3584 1.378 . S
C3577 C3576 1.367 . S
C3577 C3585 1.433 . S
C3578 H3574 0.929 . S
C3578 C3580 1.378 . S
C3578 C3582 1.350 . S
C3579 C3582 1.463 . S
C3579 C3584 1.350 . S
C3579 N3587 1.427 . S
C3580 H3571 0.930 . S
C3580 C3578 1.378 . S
C3580 C3581 1.367 . S
C3581 C3580 1.367 . S
C3581 C3583 1.433 . S
C3582 C3578 1.350 . S
C3582 C3579 1.463 . S
C3582 N3586 1.427 . S
C3583 H3573 0.929 . S
C3583 C3581 1.433 . S
C3583 N3586 1.384 . S
C3584 H3575 0.929 . S
C3584 C3576 1.378 . S
C3584 C3579 1.350 . S
C3585 H3572 0.929 . S
C3585 C3577 1.433 . S
C3585 N3587 1.384 . S
N3586 C3582 1.427 . S
N3586 C3583 1.384 . S
N3587 C3579 1.427 . S
N3587 C3585 1.384 . S
H3588 C3594 0.930 . S
H3589 C3598 0.930 . S
H3590 C3603 0.929 . S
H3591 C3601 0.929 . S
H3592 C3596 0.929 . S
H3593 C3602 0.929 . S
C3594 H3588 0.930 . S
C3594 C3595 1.367 . S
C3594 C3602 1.378 . S
C3595 C3594 1.367 . S
C3595 C3603 1.433 . S
C3596 H3592 0.929 . S
C3596 C3598 1.378 . S
C3596 C3600 1.350 . S
C3597 C3600 1.463 . S
C3597 C3602 1.350 . S
C3597 N3605 1.427 . S
C3598 H3589 0.930 . S
C3598 C3596 1.378 . S
C3598 C3599 1.367 . S
C3599 C3598 1.367 . S
C3599 C3601 1.433 . S
C3600 C3596 1.350 . S
C3600 C3597 1.463 . S
C3600 N3604 1.427 . S
C3601 H3591 0.929 . S
C3601 C3599 1.433 . S
C3601 N3604 1.384 . S
C3602 H3593 0.929 . S
C3602 C3594 1.378 . S
C3602 C3597 1.350 . S
C3603 H3590 0.929 . S
C3603 C3595 1.433 . S
C3603 N3605 1.384 . S
N3604 C3600 1.427 . S
N3604 C3601 1.384 . S
N3605 C3597 1.427 . S
N3605 C3603 1.384 . S
H3606 C3612 0.930 . S
H3607 C3616 0.930 . S
H3608 C3621 0.929 . S
H3609 C3619 0.929 . S
H3610 C3614 0.929 . S
H3611 C3620 0.929 . S
C3612 H3606 0.930 . S
C3612 C3613 1.367 . S
C3612 C3620 1.378 . S
C3613 C3612 1.367 . S
C3613 C3621 1.433 . S
C3614 H3610 0.929 . S
C3614 C3616 1.378 . S
C3614 C3618 1.350 . S
C3615 C3618 1.463 . S
C3615 C3620 1.350 . S
C3615 N3623 1.427 . S
C3616 H3607 0.930 . S
C3616 C3614 1.378 . S
C3616 C3617 1.367 . S
C3617 C3616 1.367 . S
C3617 C3619 1.433 . S
C3618 C3614 1.350 . S
C3618 C3615 1.463 . S
C3618 N3622 1.427 . S
C3619 H3609 0.929 . S
C3619 C3617 1.433 . S
C3619 N3622 1.384 . S
C3620 H3611 0.929 . S
C3620 C3612 1.378 . S
C3620 C3615 1.350 . S
C3621 H3608 0.929 . S
C3621 C3613 1.433 . S
C3621 N3623 1.384 . S
N3622 C3618 1.427 . S
N3622 C3619 1.384 . S
N3623 C3615 1.427 . S
N3623 C3621 1.384 . S
H3624 C3630 0.930 . S
H3625 C3634 0.930 . S
H3626 C3639 0.929 . S
H3627 C3637 0.929 . S
H3628 C3632 0.929 . S
H3629 C3638 0.929 . S
C3630 H3624 0.930 . S
C3630 C3631 1.367 . S
C3630 C3638 1.378 . S
C3631 C3630 1.367 . S
C3631 C3639 1.433 . S
C3632 H3628 0.929 . S
C3632 C3634 1.378 . S
C3632 C3636 1.350 . S
C3633 C3636 1.463 . S
C3633 C3638 1.350 . S
C3633 N3641 1.427 . S
C3634 H3625 0.930 . S
C3634 C3632 1.378 . S
C3634 C3635 1.367 . S
C3635 C3634 1.367 . S
C3635 C3637 1.433 . S
C3636 C3632 1.350 . S
C3636 C3633 1.463 . S
C3636 N3640 1.427 . S
C3637 H3627 0.929 . S
C3637 C3635 1.433 . S
C3637 N3640 1.384 . S
C3638 H3629 0.929 . S
C3638 C3630 1.378 . S
C3638 C3633 1.350 . S
C3639 H3626 0.929 . S
C3639 C3631 1.433 . S
C3639 N3641 1.384 . S
N3640 C3636 1.427 . S
N3640 C3637 1.384 . S
N3641 C3633 1.427 . S
N3641 C3639 1.384 . S
H3642 C3648 0.930 . S
H3643 C3652 0.930 . S
H3644 C3657 0.929 . S
H3645 C3655 0.929 . S
H3646 C3650 0.929 . S
H3647 C3656 0.929 . S
C3648 H3642 0.930 . S
C3648 C3649 1.367 . S
C3648 C3656 1.378 . S
C3649 C3648 1.367 . S
C3649 C3657 1.433 . S
C3650 H3646 0.929 . S
C3650 C3652 1.378 . S
C3650 C3654 1.350 . S
C3651 C3654 1.463 . S
C3651 C3656 1.350 . S
C3651 N3659 1.427 . S
C3652 H3643 0.930 . S
C3652 C3650 1.378 . S
C3652 C3653 1.367 . S
C3653 C3652 1.367 . S
C3653 C3655 1.433 . S
C3654 C3650 1.350 . S
C3654 C3651 1.463 . S
C3654 N3658 1.427 . S
C3655 H3645 0.929 . S
C3655 C3653 1.433 . S
C3655 N3658 1.384 . S
C3656 H3647 0.929 . S
C3656 C3648 1.378 . S
C3656 C3651 1.350 . S
C3657 H3644 0.929 . S
C3657 C3649 1.433 . S
C3657 N3659 1.384 . S
N3658 C3654 1.427 . S
N3658 C3655 1.384 . S
N3659 C3651 1.427 . S
N3659 C3657 1.384 . S
H3660 C3666 0.930 . S
H3661 C3670 0.930 . S
H3662 C3675 0.929 . S
H3663 C3673 0.929 . S
H3664 C3668 0.929 . S
H3665 C3674 0.929 . S
C3666 H3660 0.930 . S
C3666 C3667 1.367 . S
C3666 C3674 1.378 . S
C3667 C3666 1.367 . S
C3667 C3675 1.433 . S
C3668 H3664 0.929 . S
C3668 C3670 1.378 . S
C3668 C3672 1.350 . S
C3669 C3672 1.463 . S
C3669 C3674 1.350 . S
C3669 N3677 1.427 . S
C3670 H3661 0.930 . S
C3670 C3668 1.378 . S
C3670 C3671 1.367 . S
C3671 C3670 1.367 . S
C3671 C3673 1.433 . S
C3672 C3668 1.350 . S
C3672 C3669 1.463 . S
C3672 N3676 1.427 . S
C3673 H3663 0.929 . S
C3673 C3671 1.433 . S
C3673 N3676 1.384 . S
C3674 H3665 0.929 . S
C3674 C3666 1.378 . S
C3674 C3669 1.350 . S
C3675 H3662 0.929 . S
C3675 C3667 1.433 . S
C3675 N3677 1.384 . S
N3676 C3672 1.427 . S
N3676 C3673 1.384 . S
N3677 C3669 1.427 . S
N3677 C3675 1.384 . S
H3678 C3684 0.930 . S
H3679 C3688 0.930 . S
H3680 C3693 0.929 . S
H3681 C3691 0.929 . S
H3682 C3686 0.929 . S
H3683 C3692 0.929 . S
C3684 H3678 0.930 . S
C3684 C3685 1.367 . S
C3684 C3692 1.378 . S
C3685 C3684 1.367 . S
C3685 C3693 1.433 . S
C3686 H3682 0.929 . S
C3686 C3688 1.378 . S
C3686 C3690 1.350 . S
C3687 C3690 1.463 . S
C3687 C3692 1.350 . S
C3687 N3695 1.427 . S
C3688 H3679 0.930 . S
C3688 C3686 1.378 . S
C3688 C3689 1.367 . S
C3689 C3688 1.367 . S
C3689 C3691 1.433 . S
C3690 C3686 1.350 . S
C3690 C3687 1.463 . S
C3690 N3694 1.427 . S
C3691 H3681 0.929 . S
C3691 C3689 1.433 . S
C3691 N3694 1.384 . S
C3692 H3683 0.929 . S
C3692 C3684 1.378 . S
C3692 C3687 1.350 . S
C3693 H3680 0.929 . S
C3693 C3685 1.433 . S
C3693 N3695 1.384 . S
N3694 C3690 1.427 . S
N3694 C3691 1.384 . S
N3695 C3687 1.427 . S
N3695 C3693 1.384 . S
H3696 C3702 0.930 . S
H3697 C3706 0.930 . S
H3698 C3711 0.929 . S
H3699 C3709 0.929 . S
H3700 C3704 0.929 . S
H3701 C3710 0.929 . S
C3702 H3696 0.930 . S
C3702 C3703 1.367 . S
C3702 C3710 1.378 . S
C3703 C3702 1.367 . S
C3703 C3711 1.433 . S
C3704 H3700 0.929 . S
C3704 C3706 1.378 . S
C3704 C3708 1.350 . S
C3705 C3708 1.463 . S
C3705 C3710 1.350 . S
C3705 N3713 1.427 . S
C3706 H3697 0.930 . S
C3706 C3704 1.378 . S
C3706 C3707 1.367 . S
C3707 C3706 1.367 . S
C3707 C3709 1.433 . S
C3708 C3704 1.350 . S
C3708 C3705 1.463 . S
C3708 N3712 1.427 . S
C3709 H3699 0.929 . S
C3709 C3707 1.433 . S
C3709 N3712 1.384 . S
C3710 H3701 0.929 . S
C3710 C3702 1.378 . S
C3710 C3705 1.350 . S
C3711 H3698 0.929 . S
C3711 C3703 1.433 . S
C3711 N3713 1.384 . S
N3712 C3708 1.427 . S
N3712 C3709 1.384 . S
N3713 C3705 1.427 . S
N3713 C3711 1.384 . S
H3714 C3720 0.930 . S
H3715 C3724 0.930 . S
H3716 C3729 0.929 . S
H3717 C3727 0.929 . S
H3718 C3722 0.929 . S
H3719 C3728 0.929 . S
C3720 H3714 0.930 . S
C3720 C3721 1.367 . S
C3720 C3728 1.378 . S
C3721 C3720 1.367 . S
C3721 C3729 1.433 . S
C3722 H3718 0.929 . S
C3722 C3724 1.378 . S
C3722 C3726 1.350 . S
C3723 C3726 1.463 . S
C3723 C3728 1.350 . S
C3723 N3731 1.427 . S
C3724 H3715 0.930 . S
C3724 C3722 1.378 . S
C3724 C3725 1.367 . S
C3725 C3724 1.367 . S
C3725 C3727 1.433 . S
C3726 C3722 1.350 . S
C3726 C3723 1.463 . S
C3726 N3730 1.427 . S
C3727 H3717 0.929 . S
C3727 C3725 1.433 . S
C3727 N3730 1.384 . S
C3728 H3719 0.929 . S
C3728 C3720 1.378 . S
C3728 C3723 1.350 . S
C3729 H3716 0.929 . S
C3729 C3721 1.433 . S
C3729 N3731 1.384 . S
N3730 C3726 1.427 . S
N3730 C3727 1.384 . S
N3731 C3723 1.427 . S
N3731 C3729 1.384 . S
H3732 C3738 0.930 . S
H3733 C3742 0.930 . S
H3734 C3747 0.929 . S
H3735 C3745 0.929 . S
H3736 C3740 0.929 . S
H3737 C3746 0.929 . S
C3738 H3732 0.930 . S
C3738 C3739 1.367 . S
C3738 C3746 1.378 . S
C3739 C3738 1.367 . S
C3739 C3747 1.433 . S
C3740 H3736 0.929 . S
C3740 C3742 1.378 . S
C3740 C3744 1.350 . S
C3741 C3744 1.463 . S
C3741 C3746 1.350 . S
C3741 N3749 1.427 . S
C3742 H3733 0.930 . S
C3742 C3740 1.378 . S
C3742 C3743 1.367 . S
C3743 C3742 1.367 . S
C3743 C3745 1.433 . S
C3744 C3740 1.350 . S
C3744 C3741 1.463 . S
C3744 N3748 1.427 . S
C3745 H3735 0.929 . S
C3745 C3743 1.433 . S
C3745 N3748 1.384 . S
C3746 H3737 0.929 . S
C3746 C3738 1.378 . S
C3746 C3741 1.350 . S
C3747 H3734 0.929 . S
C3747 C3739 1.433 . S
C3747 N3749 1.384 . S
N3748 C3744 1.427 . S
N3748 C3745 1.384 . S
N3749 C3741 1.427 . S
N3749 C3747 1.384 . S
H3750 C3756 0.930 . S
H3751 C3760 0.930 . S
H3752 C3765 0.929 . S
H3753 C3763 0.929 . S
H3754 C3758 0.929 . S
H3755 C3764 0.929 . S
C3756 H3750 0.930 . S
C3756 C3757 1.367 . S
C3756 C3764 1.378 . S
C3757 C3756 1.367 . S
C3757 C3765 1.433 . S
C3758 H3754 0.929 . S
C3758 C3760 1.378 . S
C3758 C3762 1.350 . S
C3759 C3762 1.463 . S
C3759 C3764 1.350 . S
C3759 N3767 1.427 . S
C3760 H3751 0.930 . S
C3760 C3758 1.378 . S
C3760 C3761 1.367 . S
C3761 C3760 1.367 . S
C3761 C3763 1.433 . S
C3762 C3758 1.350 . S
C3762 C3759 1.463 . S
C3762 N3766 1.427 . S
C3763 H3753 0.929 . S
C3763 C3761 1.433 . S
C3763 N3766 1.384 . S
C3764 H3755 0.929 . S
C3764 C3756 1.378 . S
C3764 C3759 1.350 . S
C3765 H3752 0.929 . S
C3765 C3757 1.433 . S
C3765 N3767 1.384 . S
N3766 C3762 1.427 . S
N3766 C3763 1.384 . S
N3767 C3759 1.427 . S
N3767 C3765 1.384 . S
H3768 C3774 0.930 . S
H3769 C3778 0.930 . S
H3770 C3783 0.929 . S
H3771 C3781 0.929 . S
H3772 C3776 0.929 . S
H3773 C3782 0.929 . S
C3774 H3768 0.930 . S
C3774 C3775 1.367 . S
C3774 C3782 1.378 . S
C3775 C3774 1.367 . S
C3775 C3783 1.433 . S
C3776 H3772 0.929 . S
C3776 C3778 1.378 . S
C3776 C3780 1.350 . S
C3777 C3780 1.463 . S
C3777 C3782 1.350 . S
C3777 N3785 1.427 . S
C3778 H3769 0.930 . S
C3778 C3776 1.378 . S
C3778 C3779 1.367 . S
C3779 C3778 1.367 . S
C3779 C3781 1.433 . S
C3780 C3776 1.350 . S
C3780 C3777 1.463 . S
C3780 N3784 1.427 . S
C3781 H3771 0.929 . S
C3781 C3779 1.433 . S
C3781 N3784 1.384 . S
C3782 H3773 0.929 . S
C3782 C3774 1.378 . S
C3782 C3777 1.350 . S
C3783 H3770 0.929 . S
C3783 C3775 1.433 . S
C3783 N3785 1.384 . S
N3784 C3780 1.427 . S
N3784 C3781 1.384 . S
N3785 C3777 1.427 . S
N3785 C3783 1.384 . S
H3786 C3792 0.930 . S
H3787 C3796 0.930 . S
H3788 C3801 0.929 . S
H3789 C3799 0.929 . S
H3790 C3794 0.929 . S
H3791 C3800 0.929 . S
C3792 H3786 0.930 . S
C3792 C3793 1.367 . S
C3792 C3800 1.378 . S
C3793 C3792 1.367 . S
C3793 C3801 1.433 . S
C3794 H3790 0.929 . S
C3794 C3796 1.378 . S
C3794 C3798 1.350 . S
C3795 C3798 1.463 . S
C3795 C3800 1.350 . S
C3795 N3803 1.427 . S
C3796 H3787 0.930 . S
C3796 C3794 1.378 . S
C3796 C3797 1.367 . S
C3797 C3796 1.367 . S
C3797 C3799 1.433 . S
C3798 C3794 1.350 . S
C3798 C3795 1.463 . S
C3798 N3802 1.427 . S
C3799 H3789 0.929 . S
C3799 C3797 1.433 . S
C3799 N3802 1.384 . S
C3800 H3791 0.929 . S
C3800 C3792 1.378 . S
C3800 C3795 1.350 . S
C3801 H3788 0.929 . S
C3801 C3793 1.433 . S
C3801 N3803 1.384 . S
N3802 C3798 1.427 . S
N3802 C3799 1.384 . S
N3803 C3795 1.427 . S
N3803 C3801 1.384 . S
H3804 C3810 0.930 . S
H3805 C3814 0.930 . S
H3806 C3819 0.929 . S
H3807 C3817 0.929 . S
H3808 C3812 0.929 . S
H3809 C3818 0.929 . S
C3810 H3804 0.930 . S
C3810 C3811 1.367 . S
C3810 C3818 1.378 . S
C3811 C3810 1.367 . S
C3811 C3819 1.433 . S
C3812 H3808 0.929 . S
C3812 C3814 1.378 . S
C3812 C3816 1.350 . S
C3813 C3816 1.463 . S
C3813 C3818 1.350 . S
C3813 N3821 1.427 . S
C3814 H3805 0.930 . S
C3814 C3812 1.378 . S
C3814 C3815 1.367 . S
C3815 C3814 1.367 . S
C3815 C3817 1.433 . S
C3816 C3812 1.350 . S
C3816 C3813 1.463 . S
C3816 N3820 1.427 . S
C3817 H3807 0.929 . S
C3817 C3815 1.433 . S
C3817 N3820 1.384 . S
C3818 H3809 0.929 . S
C3818 C3810 1.378 . S
C3818 C3813 1.350 . S
C3819 H3806 0.929 . S
C3819 C3811 1.433 . S
C3819 N3821 1.384 . S
N3820 C3816 1.427 . S
N3820 C3817 1.384 . S
N3821 C3813 1.427 . S
N3821 C3819 1.384 . S
H3822 C3828 0.930 . S
H3823 C3832 0.930 . S
H3824 C3837 0.929 . S
H3825 C3835 0.929 . S
H3826 C3830 0.929 . S
H3827 C3836 0.929 . S
C3828 H3822 0.930 . S
C3828 C3829 1.367 . S
C3828 C3836 1.378 . S
C3829 C3828 1.367 . S
C3829 C3837 1.433 . S
C3830 H3826 0.929 . S
C3830 C3832 1.378 . S
C3830 C3834 1.350 . S
C3831 C3834 1.463 . S
C3831 C3836 1.350 . S
C3831 N3839 1.427 . S
C3832 H3823 0.930 . S
C3832 C3830 1.378 . S
C3832 C3833 1.367 . S
C3833 C3832 1.367 . S
C3833 C3835 1.433 . S
C3834 C3830 1.350 . S
C3834 C3831 1.463 . S
C3834 N3838 1.427 . S
C3835 H3825 0.929 . S
C3835 C3833 1.433 . S
C3835 N3838 1.384 . S
C3836 H3827 0.929 . S
C3836 C3828 1.378 . S
C3836 C3831 1.350 . S
C3837 H3824 0.929 . S
C3837 C3829 1.433 . S
C3837 N3839 1.384 . S
N3838 C3834 1.427 . S
N3838 C3835 1.384 . S
N3839 C3831 1.427 . S
N3839 C3837 1.384 . S
H3840 C3846 0.930 . S
H3841 C3850 0.930 . S
H3842 C3855 0.929 . S
H3843 C3853 0.929 . S
H3844 C3848 0.929 . S
H3845 C3854 0.929 . S
C3846 H3840 0.930 . S
C3846 C3847 1.367 . S
C3846 C3854 1.378 . S
C3847 C3846 1.367 . S
C3847 C3855 1.433 . S
C3848 H3844 0.929 . S
C3848 C3850 1.378 . S
C3848 C3852 1.350 . S
C3849 C3852 1.463 . S
C3849 C3854 1.350 . S
C3849 N3857 1.427 . S
C3850 H3841 0.930 . S
C3850 C3848 1.378 . S
C3850 C3851 1.367 . S
C3851 C3850 1.367 . S
C3851 C3853 1.433 . S
C3852 C3848 1.350 . S
C3852 C3849 1.463 . S
C3852 N3856 1.427 . S
C3853 H3843 0.929 . S
C3853 C3851 1.433 . S
C3853 N3856 1.384 . S
C3854 H3845 0.929 . S
C3854 C3846 1.378 . S
C3854 C3849 1.350 . S
C3855 H3842 0.929 . S
C3855 C3847 1.433 . S
C3855 N3857 1.384 . S
N3856 C3852 1.427 . S
N3856 C3853 1.384 . S
N3857 C3849 1.427 . S
N3857 C3855 1.384 . S
H3858 C3864 0.930 . S
H3859 C3868 0.930 . S
H3860 C3873 0.929 . S
H3861 C3871 0.929 . S
H3862 C3866 0.929 . S
H3863 C3872 0.929 . S
C3864 H3858 0.930 . S
C3864 C3865 1.367 . S
C3864 C3872 1.378 . S
C3865 C3864 1.367 . S
C3865 C3873 1.433 . S
C3866 H3862 0.929 . S
C3866 C3868 1.378 . S
C3866 C3870 1.350 . S
C3867 C3870 1.463 . S
C3867 C3872 1.350 . S
C3867 N3875 1.427 . S
C3868 H3859 0.930 . S
C3868 C3866 1.378 . S
C3868 C3869 1.367 . S
C3869 C3868 1.367 . S
C3869 C3871 1.433 . S
C3870 C3866 1.350 . S
C3870 C3867 1.463 . S
C3870 N3874 1.427 . S
C3871 H3861 0.929 . S
C3871 C3869 1.433 . S
C3871 N3874 1.384 . S
C3872 H3863 0.929 . S
C3872 C3864 1.378 . S
C3872 C3867 1.350 . S
C3873 H3860 0.929 . S
C3873 C3865 1.433 . S
C3873 N3875 1.384 . S
N3874 C3870 1.427 . S
N3874 C3871 1.384 . S
N3875 C3867 1.427 . S
N3875 C3873 1.384 . S
H3876 C3882 0.930 . S
H3877 C3886 0.930 . S
H3878 C3891 0.929 . S
H3879 C3889 0.929 . S
H3880 C3884 0.929 . S
H3881 C3890 0.929 . S
C3882 H3876 0.930 . S
C3882 C3883 1.367 . S
C3882 C3890 1.378 . S
C3883 C3882 1.367 . S
C3883 C3891 1.433 . S
C3884 H3880 0.929 . S
C3884 C3886 1.378 . S
C3884 C3888 1.350 . S
C3885 C3888 1.463 . S
C3885 C3890 1.350 . S
C3885 N3893 1.427 . S
C3886 H3877 0.930 . S
C3886 C3884 1.378 . S
C3886 C3887 1.367 . S
C3887 C3886 1.367 . S
C3887 C3889 1.433 . S
C3888 C3884 1.350 . S
C3888 C3885 1.463 . S
C3888 N3892 1.427 . S
C3889 H3879 0.929 . S
C3889 C3887 1.433 . S
C3889 N3892 1.384 . S
C3890 H3881 0.929 . S
C3890 C3882 1.378 . S
C3890 C3885 1.350 . S
C3891 H3878 0.929 . S
C3891 C3883 1.433 . S
C3891 N3893 1.384 . S
N3892 C3888 1.427 . S
N3892 C3889 1.384 . S
N3893 C3885 1.427 . S
N3893 C3891 1.384 . S
H3894 C3900 0.930 . S
H3895 C3904 0.930 . S
H3896 C3909 0.929 . S
H3897 C3907 0.929 . S
H3898 C3902 0.929 . S
H3899 C3908 0.929 . S
C3900 H3894 0.930 . S
C3900 C3901 1.367 . S
C3900 C3908 1.378 . S
C3901 C3900 1.367 . S
C3901 C3909 1.433 . S
C3902 H3898 0.929 . S
C3902 C3904 1.378 . S
C3902 C3906 1.350 . S
C3903 C3906 1.463 . S
C3903 C3908 1.350 . S
C3903 N3911 1.427 . S
C3904 H3895 0.930 . S
C3904 C3902 1.378 . S
C3904 C3905 1.367 . S
C3905 C3904 1.367 . S
C3905 C3907 1.433 . S
C3906 C3902 1.350 . S
C3906 C3903 1.463 . S
C3906 N3910 1.427 . S
C3907 H3897 0.929 . S
C3907 C3905 1.433 . S
C3907 N3910 1.384 . S
C3908 H3899 0.929 . S
C3908 C3900 1.378 . S
C3908 C3903 1.350 . S
C3909 H3896 0.929 . S
C3909 C3901 1.433 . S
C3909 N3911 1.384 . S
N3910 C3906 1.427 . S
N3910 C3907 1.384 . S
N3911 C3903 1.427 . S
N3911 C3909 1.384 . S
H3912 C3918 0.930 . S
H3913 C3922 0.930 . S
H3914 C3927 0.929 . S
H3915 C3925 0.929 . S
H3916 C3920 0.929 . S
H3917 C3926 0.929 . S
C3918 H3912 0.930 . S
C3918 C3919 1.367 . S
C3918 C3926 1.378 . S
C3919 C3918 1.367 . S
C3919 C3927 1.433 . S
C3920 H3916 0.929 . S
C3920 C3922 1.378 . S
C3920 C3924 1.350 . S
C3921 C3924 1.463 . S
C3921 C3926 1.350 . S
C3921 N3929 1.427 . S
C3922 H3913 0.930 . S
C3922 C3920 1.378 . S
C3922 C3923 1.367 . S
C3923 C3922 1.367 . S
C3923 C3925 1.433 . S
C3924 C3920 1.350 . S
C3924 C3921 1.463 . S
C3924 N3928 1.427 . S
C3925 H3915 0.929 . S
C3925 C3923 1.433 . S
C3925 N3928 1.384 . S
C3926 H3917 0.929 . S
C3926 C3918 1.378 . S
C3926 C3921 1.350 . S
C3927 H3914 0.929 . S
C3927 C3919 1.433 . S
C3927 N3929 1.384 . S
N3928 C3924 1.427 . S
N3928 C3925 1.384 . S
N3929 C3921 1.427 . S
N3929 C3927 1.384 . S
H3930 C3936 0.930 . S
H3931 C3940 0.930 . S
H3932 C3945 0.929 . S
H3933 C3943 0.929 . S
H3934 C3938 0.929 . S
H3935 C3944 0.929 . S
C3936 H3930 0.930 . S
C3936 C3937 1.367 . S
C3936 C3944 1.378 . S
C3937 C3936 1.367 . S
C3937 C3945 1.433 . S
C3938 H3934 0.929 . S
C3938 C3940 1.378 . S
C3938 C3942 1.350 . S
C3939 C3942 1.463 . S
C3939 C3944 1.350 . S
C3939 N3947 1.427 . S
C3940 H3931 0.930 . S
C3940 C3938 1.378 . S
C3940 C3941 1.367 . S
C3941 C3940 1.367 . S
C3941 C3943 1.433 . S
C3942 C3938 1.350 . S
C3942 C3939 1.463 . S
C3942 N3946 1.427 . S
C3943 H3933 0.929 . S
C3943 C3941 1.433 . S
C3943 N3946 1.384 . S
C3944 H3935 0.929 . S
C3944 C3936 1.378 . S
C3944 C3939 1.350 . S
C3945 H3932 0.929 . S
C3945 C3937 1.433 . S
C3945 N3947 1.384 . S
N3946 C3942 1.427 . S
N3946 C3943 1.384 . S
N3947 C3939 1.427 . S
N3947 C3945 1.384 . S
H3948 C3954 0.930 . S
H3949 C3958 0.930 . S
H3950 C3963 0.929 . S
H3951 C3961 0.929 . S
H3952 C3956 0.929 . S
H3953 C3962 0.929 . S
C3954 H3948 0.930 . S
C3954 C3955 1.367 . S
C3954 C3962 1.378 . S
C3955 C3954 1.367 . S
C3955 C3963 1.433 . S
C3956 H3952 0.929 . S
C3956 C3958 1.378 . S
C3956 C3960 1.350 . S
C3957 C3960 1.463 . S
C3957 C3962 1.350 . S
C3957 N3965 1.427 . S
C3958 H3949 0.930 . S
C3958 C3956 1.378 . S
C3958 C3959 1.367 . S
C3959 C3958 1.367 . S
C3959 C3961 1.433 . S
C3960 C3956 1.350 . S
C3960 C3957 1.463 . S
C3960 N3964 1.427 . S
C3961 H3951 0.929 . S
C3961 C3959 1.433 . S
C3961 N3964 1.384 . S
C3962 H3953 0.929 . S
C3962 C3954 1.378 . S
C3962 C3957 1.350 . S
C3963 H3950 0.929 . S
C3963 C3955 1.433 . S
C3963 N3965 1.384 . S
N3964 C3960 1.427 . S
N3964 C3961 1.384 . S
N3965 C3957 1.427 . S
N3965 C3963 1.384 . S
H3966 C3972 0.930 . S
H3967 C3976 0.930 . S
H3968 C3981 0.929 . S
H3969 C3979 0.929 . S
H3970 C3974 0.929 . S
H3971 C3980 0.929 . S
C3972 H3966 0.930 . S
C3972 C3973 1.367 . S
C3972 C3980 1.378 . S
C3973 C3972 1.367 . S
C3973 C3981 1.433 . S
C3974 H3970 0.929 . S
C3974 C3976 1.378 . S
C3974 C3978 1.350 . S
C3975 C3978 1.463 . S
C3975 C3980 1.350 . S
C3975 N3983 1.427 . S
C3976 H3967 0.930 . S
C3976 C3974 1.378 . S
C3976 C3977 1.367 . S
C3977 C3976 1.367 . S
C3977 C3979 1.433 . S
C3978 C3974 1.350 . S
C3978 C3975 1.463 . S
C3978 N3982 1.427 . S
C3979 H3969 0.929 . S
C3979 C3977 1.433 . S
C3979 N3982 1.384 . S
C3980 H3971 0.929 . S
C3980 C3972 1.378 . S
C3980 C3975 1.350 . S
C3981 H3968 0.929 . S
C3981 C3973 1.433 . S
C3981 N3983 1.384 . S
N3982 C3978 1.427 . S
N3982 C3979 1.384 . S
N3983 C3975 1.427 . S
N3983 C3981 1.384 . S
H3984 C3990 0.930 . S
H3985 C3994 0.930 . S
H3986 C3999 0.929 . S
H3987 C3997 0.929 . S
H3988 C3992 0.929 . S
H3989 C3998 0.929 . S
C3990 H3984 0.930 . S
C3990 C3991 1.367 . S
C3990 C3998 1.378 . S
C3991 C3990 1.367 . S
C3991 C3999 1.433 . S
C3992 H3988 0.929 . S
C3992 C3994 1.378 . S
C3992 C3996 1.350 . S
C3993 C3996 1.463 . S
C3993 C3998 1.350 . S
C3993 N4001 1.427 . S
C3994 H3985 0.930 . S
C3994 C3992 1.378 . S
C3994 C3995 1.367 . S
C3995 C3994 1.367 . S
C3995 C3997 1.433 . S
C3996 C3992 1.350 . S
C3996 C3993 1.463 . S
C3996 N4000 1.427 . S
C3997 H3987 0.929 . S
C3997 C3995 1.433 . S
C3997 N4000 1.384 . S
C3998 H3989 0.929 . S
C3998 C3990 1.378 . S
C3998 C3993 1.350 . S
C3999 H3986 0.929 . S
C3999 C3991 1.433 . S
C3999 N4001 1.384 . S
N4000 C3996 1.427 . S
N4000 C3997 1.384 . S
N4001 C3993 1.427 . S
N4001 C3999 1.384 . S
H4002 C4008 0.930 . S
H4003 C4012 0.930 . S
H4004 C4017 0.929 . S
H4005 C4015 0.929 . S
H4006 C4010 0.929 . S
H4007 C4016 0.929 . S
C4008 H4002 0.930 . S
C4008 C4009 1.367 . S
C4008 C4016 1.378 . S
C4009 C4008 1.367 . S
C4009 C4017 1.433 . S
C4010 H4006 0.929 . S
C4010 C4012 1.378 . S
C4010 C4014 1.350 . S
C4011 C4014 1.463 . S
C4011 C4016 1.350 . S
C4011 N4019 1.427 . S
C4012 H4003 0.930 . S
C4012 C4010 1.378 . S
C4012 C4013 1.367 . S
C4013 C4012 1.367 . S
C4013 C4015 1.433 . S
C4014 C4010 1.350 . S
C4014 C4011 1.463 . S
C4014 N4018 1.427 . S
C4015 H4005 0.929 . S
C4015 C4013 1.433 . S
C4015 N4018 1.384 . S
C4016 H4007 0.929 . S
C4016 C4008 1.378 . S
C4016 C4011 1.350 . S
C4017 H4004 0.929 . S
C4017 C4009 1.433 . S
C4017 N4019 1.384 . S
N4018 C4014 1.427 . S
N4018 C4015 1.384 . S
N4019 C4011 1.427 . S
N4019 C4017 1.384 . S
H4020 C4026 0.930 . S
H4021 C4030 0.930 . S
H4022 C4035 0.929 . S
H4023 C4033 0.929 . S
H4024 C4028 0.929 . S
H4025 C4034 0.929 . S
C4026 H4020 0.930 . S
C4026 C4027 1.367 . S
C4026 C4034 1.378 . S
C4027 C4026 1.367 . S
C4027 C4035 1.433 . S
C4028 H4024 0.929 . S
C4028 C4030 1.378 . S
C4028 C4032 1.350 . S
C4029 C4032 1.463 . S
C4029 C4034 1.350 . S
C4029 N4037 1.427 . S
C4030 H4021 0.930 . S
C4030 C4028 1.378 . S
C4030 C4031 1.367 . S
C4031 C4030 1.367 . S
C4031 C4033 1.433 . S
C4032 C4028 1.350 . S
C4032 C4029 1.463 . S
C4032 N4036 1.427 . S
C4033 H4023 0.929 . S
C4033 C4031 1.433 . S
C4033 N4036 1.384 . S
C4034 H4025 0.929 . S
C4034 C4026 1.378 . S
C4034 C4029 1.350 . S
C4035 H4022 0.929 . S
C4035 C4027 1.433 . S
C4035 N4037 1.384 . S
N4036 C4032 1.427 . S
N4036 C4033 1.384 . S
N4037 C4029 1.427 . S
N4037 C4035 1.384 . S
H4038 C4044 0.930 . S
H4039 C4048 0.930 . S
H4040 C4053 0.929 . S
H4041 C4051 0.929 . S
H4042 C4046 0.929 . S
H4043 C4052 0.929 . S
C4044 H4038 0.930 . S
C4044 C4045 1.367 . S
C4044 C4052 1.378 . S
C4045 C4044 1.367 . S
C4045 C4053 1.433 . S
C4046 H4042 0.929 . S
C4046 C4048 1.378 . S
C4046 C4050 1.350 . S
C4047 C4050 1.463 . S
C4047 C4052 1.350 . S
C4047 N4055 1.427 . S
C4048 H4039 0.930 . S
C4048 C4046 1.378 . S
C4048 C4049 1.367 . S
C4049 C4048 1.367 . S
C4049 C4051 1.433 . S
C4050 C4046 1.350 . S
C4050 C4047 1.463 . S
C4050 N4054 1.427 . S
C4051 H4041 0.929 . S
C4051 C4049 1.433 . S
C4051 N4054 1.384 . S
C4052 H4043 0.929 . S
C4052 C4044 1.378 . S
C4052 C4047 1.350 . S
C4053 H4040 0.929 . S
C4053 C4045 1.433 . S
C4053 N4055 1.384 . S
N4054 C4050 1.427 . S
N4054 C4051 1.384 . S
N4055 C4047 1.427 . S
N4055 C4053 1.384 . S
H4056 C4062 0.930 . S
H4057 C4066 0.930 . S
H4058 C4071 0.929 . S
H4059 C4069 0.929 . S
H4060 C4064 0.929 . S
H4061 C4070 0.929 . S
C4062 H4056 0.930 . S
C4062 C4063 1.367 . S
C4062 C4070 1.378 . S
C4063 C4062 1.367 . S
C4063 C4071 1.433 . S
C4064 H4060 0.929 . S
C4064 C4066 1.378 . S
C4064 C4068 1.350 . S
C4065 C4068 1.463 . S
C4065 C4070 1.350 . S
C4065 N4073 1.427 . S
C4066 H4057 0.930 . S
C4066 C4064 1.378 . S
C4066 C4067 1.367 . S
C4067 C4066 1.367 . S
C4067 C4069 1.433 . S
C4068 C4064 1.350 . S
C4068 C4065 1.463 . S
C4068 N4072 1.427 . S
C4069 H4059 0.929 . S
C4069 C4067 1.433 . S
C4069 N4072 1.384 . S
C4070 H4061 0.929 . S
C4070 C4062 1.378 . S
C4070 C4065 1.350 . S
C4071 H4058 0.929 . S
C4071 C4063 1.433 . S
C4071 N4073 1.384 . S
N4072 C4068 1.427 . S
N4072 C4069 1.384 . S
N4073 C4065 1.427 . S
N4073 C4071 1.384 . S
H4074 C4080 0.930 . S
H4075 C4084 0.930 . S
H4076 C4089 0.929 . S
H4077 C4087 0.929 . S
H4078 C4082 0.929 . S
H4079 C4088 0.929 . S
C4080 H4074 0.930 . S
C4080 C4081 1.367 . S
C4080 C4088 1.378 . S
C4081 C4080 1.367 . S
C4081 C4089 1.433 . S
C4082 H4078 0.929 . S
C4082 C4084 1.378 . S
C4082 C4086 1.350 . S
C4083 C4086 1.463 . S
C4083 C4088 1.350 . S
C4083 N4091 1.427 . S
C4084 H4075 0.930 . S
C4084 C4082 1.378 . S
C4084 C4085 1.367 . S
C4085 C4084 1.367 . S
C4085 C4087 1.433 . S
C4086 C4082 1.350 . S
C4086 C4083 1.463 . S
C4086 N4090 1.427 . S
C4087 H4077 0.929 . S
C4087 C4085 1.433 . S
C4087 N4090 1.384 . S
C4088 H4079 0.929 . S
C4088 C4080 1.378 . S
C4088 C4083 1.350 . S
C4089 H4076 0.929 . S
C4089 C4081 1.433 . S
C4089 N4091 1.384 . S
N4090 C4086 1.427 . S
N4090 C4087 1.384 . S
N4091 C4083 1.427 . S
N4091 C4089 1.384 . S
H4092 C4098 0.930 . S
H4093 C4102 0.930 . S
H4094 C4107 0.929 . S
H4095 C4105 0.929 . S
H4096 C4100 0.929 . S
H4097 C4106 0.929 . S
C4098 H4092 0.930 . S
C4098 C4099 1.367 . S
C4098 C4106 1.378 . S
C4099 C4098 1.367 . S
C4099 C4107 1.433 . S
C4100 H4096 0.929 . S
C4100 C4102 1.378 . S
C4100 C4104 1.350 . S
C4101 C4104 1.463 . S
C4101 C4106 1.350 . S
C4101 N4109 1.427 . S
C4102 H4093 0.930 . S
C4102 C4100 1.378 . S
C4102 C4103 1.367 . S
C4103 C4102 1.367 . S
C4103 C4105 1.433 . S
C4104 C4100 1.350 . S
C4104 C4101 1.463 . S
C4104 N4108 1.427 . S
C4105 H4095 0.929 . S
C4105 C4103 1.433 . S
C4105 N4108 1.384 . S
C4106 H4097 0.929 . S
C4106 C4098 1.378 . S
C4106 C4101 1.350 . S
C4107 H4094 0.929 . S
C4107 C4099 1.433 . S
C4107 N4109 1.384 . S
N4108 C4104 1.427 . S
N4108 C4105 1.384 . S
N4109 C4101 1.427 . S
N4109 C4107 1.384 . S
H4110 C4116 0.930 . S
H4111 C4120 0.930 . S
H4112 C4125 0.929 . S
H4113 C4123 0.929 . S
H4114 C4118 0.929 . S
H4115 C4124 0.929 . S
C4116 H4110 0.930 . S
C4116 C4117 1.367 . S
C4116 C4124 1.378 . S
C4117 C4116 1.367 . S
C4117 C4125 1.433 . S
C4118 H4114 0.929 . S
C4118 C4120 1.378 . S
C4118 C4122 1.350 . S
C4119 C4122 1.463 . S
C4119 C4124 1.350 . S
C4119 N4127 1.427 . S
C4120 H4111 0.930 . S
C4120 C4118 1.378 . S
C4120 C4121 1.367 . S
C4121 C4120 1.367 . S
C4121 C4123 1.433 . S
C4122 C4118 1.350 . S
C4122 C4119 1.463 . S
C4122 N4126 1.427 . S
C4123 H4113 0.929 . S
C4123 C4121 1.433 . S
C4123 N4126 1.384 . S
C4124 H4115 0.929 . S
C4124 C4116 1.378 . S
C4124 C4119 1.350 . S
C4125 H4112 0.929 . S
C4125 C4117 1.433 . S
C4125 N4127 1.384 . S
N4126 C4122 1.427 . S
N4126 C4123 1.384 . S
N4127 C4119 1.427 . S
N4127 C4125 1.384 . S
H4128 C4134 0.930 . S
H4129 C4138 0.930 . S
H4130 C4143 0.929 . S
H4131 C4141 0.929 . S
H4132 C4136 0.929 . S
H4133 C4142 0.929 . S
C4134 H4128 0.930 . S
C4134 C4135 1.367 . S
C4134 C4142 1.378 . S
C4135 C4134 1.367 . S
C4135 C4143 1.433 . S
C4136 H4132 0.929 . S
C4136 C4138 1.378 . S
C4136 C4140 1.350 . S
C4137 C4140 1.463 . S
C4137 C4142 1.350 . S
C4137 N4145 1.427 . S
C4138 H4129 0.930 . S
C4138 C4136 1.378 . S
C4138 C4139 1.367 . S
C4139 C4138 1.367 . S
C4139 C4141 1.433 . S
C4140 C4136 1.350 . S
C4140 C4137 1.463 . S
C4140 N4144 1.427 . S
C4141 H4131 0.929 . S
C4141 C4139 1.433 . S
C4141 N4144 1.384 . S
C4142 H4133 0.929 . S
C4142 C4134 1.378 . S
C4142 C4137 1.350 . S
C4143 H4130 0.929 . S
C4143 C4135 1.433 . S
C4143 N4145 1.384 . S
N4144 C4140 1.427 . S
N4144 C4141 1.384 . S
N4145 C4137 1.427 . S
N4145 C4143 1.384 . S
H4146 C4152 0.930 . S
H4147 C4156 0.930 . S
H4148 C4161 0.929 . S
H4149 C4159 0.929 . S
H4150 C4154 0.929 . S
H4151 C4160 0.929 . S
C4152 H4146 0.930 . S
C4152 C4153 1.367 . S
C4152 C4160 1.378 . S
C4153 C4152 1.367 . S
C4153 C4161 1.433 . S
C4154 H4150 0.929 . S
C4154 C4156 1.378 . S
C4154 C4158 1.350 . S
C4155 C4158 1.463 . S
C4155 C4160 1.350 . S
C4155 N4163 1.427 . S
C4156 H4147 0.930 . S
C4156 C4154 1.378 . S
C4156 C4157 1.367 . S
C4157 C4156 1.367 . S
C4157 C4159 1.433 . S
C4158 C4154 1.350 . S
C4158 C4155 1.463 . S
C4158 N4162 1.427 . S
C4159 H4149 0.929 . S
C4159 C4157 1.433 . S
C4159 N4162 1.384 . S
C4160 H4151 0.929 . S
C4160 C4152 1.378 . S
C4160 C4155 1.350 . S
C4161 H4148 0.929 . S
C4161 C4153 1.433 . S
C4161 N4163 1.384 . S
N4162 C4158 1.427 . S
N4162 C4159 1.384 . S
N4163 C4155 1.427 . S
N4163 C4161 1.384 . S
H4164 C4170 0.930 . S
H4165 C4174 0.930 . S
H4166 C4179 0.929 . S
H4167 C4177 0.929 . S
H4168 C4172 0.929 . S
H4169 C4178 0.929 . S
C4170 H4164 0.930 . S
C4170 C4171 1.367 . S
C4170 C4178 1.378 . S
C4171 C4170 1.367 . S
C4171 C4179 1.433 . S
C4172 H4168 0.929 . S
C4172 C4174 1.378 . S
C4172 C4176 1.350 . S
C4173 C4176 1.463 . S
C4173 C4178 1.350 . S
C4173 N4181 1.427 . S
C4174 H4165 0.930 . S
C4174 C4172 1.378 . S
C4174 C4175 1.367 . S
C4175 C4174 1.367 . S
C4175 C4177 1.433 . S
C4176 C4172 1.350 . S
C4176 C4173 1.463 . S
C4176 N4180 1.427 . S
C4177 H4167 0.929 . S
C4177 C4175 1.433 . S
C4177 N4180 1.384 . S
C4178 H4169 0.929 . S
C4178 C4170 1.378 . S
C4178 C4173 1.350 . S
C4179 H4166 0.929 . S
C4179 C4171 1.433 . S
C4179 N4181 1.384 . S
N4180 C4176 1.427 . S
N4180 C4177 1.384 . S
N4181 C4173 1.427 . S
N4181 C4179 1.384 . S
H4182 C4188 0.930 . S
H4183 C4192 0.930 . S
H4184 C4197 0.929 . S
H4185 C4195 0.929 . S
H4186 C4190 0.929 . S
H4187 C4196 0.929 . S
C4188 H4182 0.930 . S
C4188 C4189 1.367 . S
C4188 C4196 1.378 . S
C4189 C4188 1.367 . S
C4189 C4197 1.433 . S
C4190 H4186 0.929 . S
C4190 C4192 1.378 . S
C4190 C4194 1.350 . S
C4191 C4194 1.463 . S
C4191 C4196 1.350 . S
C4191 N4199 1.427 . S
C4192 H4183 0.930 . S
C4192 C4190 1.378 . S
C4192 C4193 1.367 . S
C4193 C4192 1.367 . S
C4193 C4195 1.433 . S
C4194 C4190 1.350 . S
C4194 C4191 1.463 . S
C4194 N4198 1.427 . S
C4195 H4185 0.929 . S
C4195 C4193 1.433 . S
C4195 N4198 1.384 . S
C4196 H4187 0.929 . S
C4196 C4188 1.378 . S
C4196 C4191 1.350 . S
C4197 H4184 0.929 . S
C4197 C4189 1.433 . S
C4197 N4199 1.384 . S
N4198 C4194 1.427 . S
N4198 C4195 1.384 . S
N4199 C4191 1.427 . S
N4199 C4197 1.384 . S
H4200 C4206 0.930 . S
H4201 C4210 0.930 . S
H4202 C4215 0.929 . S
H4203 C4213 0.929 . S
H4204 C4208 0.929 . S
H4205 C4214 0.929 . S
C4206 H4200 0.930 . S
C4206 C4207 1.367 . S
C4206 C4214 1.378 . S
C4207 C4206 1.367 . S
C4207 C4215 1.433 . S
C4208 H4204 0.929 . S
C4208 C4210 1.378 . S
C4208 C4212 1.350 . S
C4209 C4212 1.463 . S
C4209 C4214 1.350 . S
C4209 N4217 1.427 . S
C4210 H4201 0.930 . S
C4210 C4208 1.378 . S
C4210 C4211 1.367 . S
C4211 C4210 1.367 . S
C4211 C4213 1.433 . S
C4212 C4208 1.350 . S
C4212 C4209 1.463 . S
C4212 N4216 1.427 . S
C4213 H4203 0.929 . S
C4213 C4211 1.433 . S
C4213 N4216 1.384 . S
C4214 H4205 0.929 . S
C4214 C4206 1.378 . S
C4214 C4209 1.350 . S
C4215 H4202 0.929 . S
C4215 C4207 1.433 . S
C4215 N4217 1.384 . S
N4216 C4212 1.427 . S
N4216 C4213 1.384 . S
N4217 C4209 1.427 . S
N4217 C4215 1.384 . S
H4218 C4224 0.930 . S
H4219 C4228 0.930 . S
H4220 C4233 0.929 . S
H4221 C4231 0.929 . S
H4222 C4226 0.929 . S
H4223 C4232 0.929 . S
C4224 H4218 0.930 . S
C4224 C4225 1.367 . S
C4224 C4232 1.378 . S
C4225 C4224 1.367 . S
C4225 C4233 1.433 . S
C4226 H4222 0.929 . S
C4226 C4228 1.378 . S
C4226 C4230 1.350 . S
C4227 C4230 1.463 . S
C4227 C4232 1.350 . S
C4227 N4235 1.427 . S
C4228 H4219 0.930 . S
C4228 C4226 1.378 . S
C4228 C4229 1.367 . S
C4229 C4228 1.367 . S
C4229 C4231 1.433 . S
C4230 C4226 1.350 . S
C4230 C4227 1.463 . S
C4230 N4234 1.427 . S
C4231 H4221 0.929 . S
C4231 C4229 1.433 . S
C4231 N4234 1.384 . S
C4232 H4223 0.929 . S
C4232 C4224 1.378 . S
C4232 C4227 1.350 . S
C4233 H4220 0.929 . S
C4233 C4225 1.433 . S
C4233 N4235 1.384 . S
N4234 C4230 1.427 . S
N4234 C4231 1.384 . S
N4235 C4227 1.427 . S
N4235 C4233 1.384 . S
H4236 C4242 0.930 . S
H4237 C4246 0.930 . S
H4238 C4251 0.929 . S
H4239 C4249 0.929 . S
H4240 C4244 0.929 . S
H4241 C4250 0.929 . S
C4242 H4236 0.930 . S
C4242 C4243 1.367 . S
C4242 C4250 1.378 . S
C4243 C4242 1.367 . S
C4243 C4251 1.433 . S
C4244 H4240 0.929 . S
C4244 C4246 1.378 . S
C4244 C4248 1.350 . S
C4245 C4248 1.463 . S
C4245 C4250 1.350 . S
C4245 N4253 1.427 . S
C4246 H4237 0.930 . S
C4246 C4244 1.378 . S
C4246 C4247 1.367 . S
C4247 C4246 1.367 . S
C4247 C4249 1.433 . S
C4248 C4244 1.350 . S
C4248 C4245 1.463 . S
C4248 N4252 1.427 . S
C4249 H4239 0.929 . S
C4249 C4247 1.433 . S
C4249 N4252 1.384 . S
C4250 H4241 0.929 . S
C4250 C4242 1.378 . S
C4250 C4245 1.350 . S
C4251 H4238 0.929 . S
C4251 C4243 1.433 . S
C4251 N4253 1.384 . S
N4252 C4248 1.427 . S
N4252 C4249 1.384 . S
N4253 C4245 1.427 . S
N4253 C4251 1.384 . S
H4254 C4260 0.930 . S
H4255 C4264 0.930 . S
H4256 C4269 0.929 . S
H4257 C4267 0.929 . S
H4258 C4262 0.929 . S
H4259 C4268 0.929 . S
C4260 H4254 0.930 . S
C4260 C4261 1.367 . S
C4260 C4268 1.378 . S
C4261 C4260 1.367 . S
C4261 C4269 1.433 . S
C4262 H4258 0.929 . S
C4262 C4264 1.378 . S
C4262 C4266 1.350 . S
C4263 C4266 1.463 . S
C4263 C4268 1.350 . S
C4263 N4271 1.427 . S
C4264 H4255 0.930 . S
C4264 C4262 1.378 . S
C4264 C4265 1.367 . S
C4265 C4264 1.367 . S
C4265 C4267 1.433 . S
C4266 C4262 1.350 . S
C4266 C4263 1.463 . S
C4266 N4270 1.427 . S
C4267 H4257 0.929 . S
C4267 C4265 1.433 . S
C4267 N4270 1.384 . S
C4268 H4259 0.929 . S
C4268 C4260 1.378 . S
C4268 C4263 1.350 . S
C4269 H4256 0.929 . S
C4269 C4261 1.433 . S
C4269 N4271 1.384 . S
N4270 C4266 1.427 . S
N4270 C4267 1.384 . S
N4271 C4263 1.427 . S
N4271 C4269 1.384 . S
H4272 C4278 0.930 . S
H4273 C4282 0.930 . S
H4274 C4287 0.929 . S
H4275 C4285 0.929 . S
H4276 C4280 0.929 . S
H4277 C4286 0.929 . S
C4278 H4272 0.930 . S
C4278 C4279 1.367 . S
C4278 C4286 1.378 . S
C4279 C4278 1.367 . S
C4279 C4287 1.433 . S
C4280 H4276 0.929 . S
C4280 C4282 1.378 . S
C4280 C4284 1.350 . S
C4281 C4284 1.463 . S
C4281 C4286 1.350 . S
C4281 N4289 1.427 . S
C4282 H4273 0.930 . S
C4282 C4280 1.378 . S
C4282 C4283 1.367 . S
C4283 C4282 1.367 . S
C4283 C4285 1.433 . S
C4284 C4280 1.350 . S
C4284 C4281 1.463 . S
C4284 N4288 1.427 . S
C4285 H4275 0.929 . S
C4285 C4283 1.433 . S
C4285 N4288 1.384 . S
C4286 H4277 0.929 . S
C4286 C4278 1.378 . S
C4286 C4281 1.350 . S
C4287 H4274 0.929 . S
C4287 C4279 1.433 . S
C4287 N4289 1.384 . S
N4288 C4284 1.427 . S
N4288 C4285 1.384 . S
N4289 C4281 1.427 . S
N4289 C4287 1.384 . S
H4290 C4296 0.930 . S
H4291 C4300 0.930 . S
H4292 C4305 0.929 . S
H4293 C4303 0.929 . S
H4294 C4298 0.929 . S
H4295 C4304 0.929 . S
C4296 H4290 0.930 . S
C4296 C4297 1.367 . S
C4296 C4304 1.378 . S
C4297 C4296 1.367 . S
C4297 C4305 1.433 . S
C4298 H4294 0.929 . S
C4298 C4300 1.378 . S
C4298 C4302 1.350 . S
C4299 C4302 1.463 . S
C4299 C4304 1.350 . S
C4299 N4307 1.427 . S
C4300 H4291 0.930 . S
C4300 C4298 1.378 . S
C4300 C4301 1.367 . S
C4301 C4300 1.367 . S
C4301 C4303 1.433 . S
C4302 C4298 1.350 . S
C4302 C4299 1.463 . S
C4302 N4306 1.427 . S
C4303 H4293 0.929 . S
C4303 C4301 1.433 . S
C4303 N4306 1.384 . S
C4304 H4295 0.929 . S
C4304 C4296 1.378 . S
C4304 C4299 1.350 . S
C4305 H4292 0.929 . S
C4305 C4297 1.433 . S
C4305 N4307 1.384 . S
N4306 C4302 1.427 . S
N4306 C4303 1.384 . S
N4307 C4299 1.427 . S
N4307 C4305 1.384 . S
H4308 C4314 0.930 . S
H4309 C4318 0.930 . S
H4310 C4323 0.929 . S
H4311 C4321 0.929 . S
H4312 C4316 0.929 . S
H4313 C4322 0.929 . S
C4314 H4308 0.930 . S
C4314 C4315 1.367 . S
C4314 C4322 1.378 . S
C4315 C4314 1.367 . S
C4315 C4323 1.433 . S
C4316 H4312 0.929 . S
C4316 C4318 1.378 . S
C4316 C4320 1.350 . S
C4317 C4320 1.463 . S
C4317 C4322 1.350 . S
C4317 N4325 1.427 . S
C4318 H4309 0.930 . S
C4318 C4316 1.378 . S
C4318 C4319 1.367 . S
C4319 C4318 1.367 . S
C4319 C4321 1.433 . S
C4320 C4316 1.350 . S
C4320 C4317 1.463 . S
C4320 N4324 1.427 . S
C4321 H4311 0.929 . S
C4321 C4319 1.433 . S
C4321 N4324 1.384 . S
C4322 H4313 0.929 . S
C4322 C4314 1.378 . S
C4322 C4317 1.350 . S
C4323 H4310 0.929 . S
C4323 C4315 1.433 . S
C4323 N4325 1.384 . S
N4324 C4320 1.427 . S
N4324 C4321 1.384 . S
N4325 C4317 1.427 . S
N4325 C4323 1.384 . S
H4326 C4332 0.930 . S
H4327 C4336 0.930 . S
H4328 C4341 0.929 . S
H4329 C4339 0.929 . S
H4330 C4334 0.929 . S
H4331 C4340 0.929 . S
C4332 H4326 0.930 . S
C4332 C4333 1.367 . S
C4332 C4340 1.378 . S
C4333 C4332 1.367 . S
C4333 C4341 1.433 . S
C4334 H4330 0.929 . S
C4334 C4336 1.378 . S
C4334 C4338 1.350 . S
C4335 C4338 1.463 . S
C4335 C4340 1.350 . S
C4335 N4343 1.427 . S
C4336 H4327 0.930 . S
C4336 C4334 1.378 . S
C4336 C4337 1.367 . S
C4337 C4336 1.367 . S
C4337 C4339 1.433 . S
C4338 C4334 1.350 . S
C4338 C4335 1.463 . S
C4338 N4342 1.427 . S
C4339 H4329 0.929 . S
C4339 C4337 1.433 . S
C4339 N4342 1.384 . S
C4340 H4331 0.929 . S
C4340 C4332 1.378 . S
C4340 C4335 1.350 . S
C4341 H4328 0.929 . S
C4341 C4333 1.433 . S
C4341 N4343 1.384 . S
N4342 C4338 1.427 . S
N4342 C4339 1.384 . S
N4343 C4335 1.427 . S
N4343 C4341 1.384 . S
H4344 C4350 0.930 . S
H4345 C4354 0.930 . S
H4346 C4359 0.929 . S
H4347 C4357 0.929 . S
H4348 C4352 0.929 . S
H4349 C4358 0.929 . S
C4350 H4344 0.930 . S
C4350 C4351 1.367 . S
C4350 C4358 1.378 . S
C4351 C4350 1.367 . S
C4351 C4359 1.433 . S
C4352 H4348 0.929 . S
C4352 C4354 1.378 . S
C4352 C4356 1.350 . S
C4353 C4356 1.463 . S
C4353 C4358 1.350 . S
C4353 N4361 1.427 . S
C4354 H4345 0.930 . S
C4354 C4352 1.378 . S
C4354 C4355 1.367 . S
C4355 C4354 1.367 . S
C4355 C4357 1.433 . S
C4356 C4352 1.350 . S
C4356 C4353 1.463 . S
C4356 N4360 1.427 . S
C4357 H4347 0.929 . S
C4357 C4355 1.433 . S
C4357 N4360 1.384 . S
C4358 H4349 0.929 . S
C4358 C4350 1.378 . S
C4358 C4353 1.350 . S
C4359 H4346 0.929 . S
C4359 C4351 1.433 . S
C4359 N4361 1.384 . S
N4360 C4356 1.427 . S
N4360 C4357 1.384 . S
N4361 C4353 1.427 . S
N4361 C4359 1.384 . S
H4362 C4368 0.930 . S
H4363 C4372 0.930 . S
H4364 C4377 0.929 . S
H4365 C4375 0.929 . S
H4366 C4370 0.929 . S
H4367 C4376 0.929 . S
C4368 H4362 0.930 . S
C4368 C4369 1.367 . S
C4368 C4376 1.378 . S
C4369 C4368 1.367 . S
C4369 C4377 1.433 . S
C4370 H4366 0.929 . S
C4370 C4372 1.378 . S
C4370 C4374 1.350 . S
C4371 C4374 1.463 . S
C4371 C4376 1.350 . S
C4371 N4379 1.427 . S
C4372 H4363 0.930 . S
C4372 C4370 1.378 . S
C4372 C4373 1.367 . S
C4373 C4372 1.367 . S
C4373 C4375 1.433 . S
C4374 C4370 1.350 . S
C4374 C4371 1.463 . S
C4374 N4378 1.427 . S
C4375 H4365 0.929 . S
C4375 C4373 1.433 . S
C4375 N4378 1.384 . S
C4376 H4367 0.929 . S
C4376 C4368 1.378 . S
C4376 C4371 1.350 . S
C4377 H4364 0.929 . S
C4377 C4369 1.433 . S
C4377 N4379 1.384 . S
N4378 C4374 1.427 . S
N4378 C4375 1.384 . S
N4379 C4371 1.427 . S
N4379 C4377 1.384 . S
H4380 C4386 0.930 . S
H4381 C4390 0.930 . S
H4382 C4395 0.929 . S
H4383 C4393 0.929 . S
H4384 C4388 0.929 . S
H4385 C4394 0.929 . S
C4386 H4380 0.930 . S
C4386 C4387 1.367 . S
C4386 C4394 1.378 . S
C4387 C4386 1.367 . S
C4387 C4395 1.433 . S
C4388 H4384 0.929 . S
C4388 C4390 1.378 . S
C4388 C4392 1.350 . S
C4389 C4392 1.463 . S
C4389 C4394 1.350 . S
C4389 N4397 1.427 . S
C4390 H4381 0.930 . S
C4390 C4388 1.378 . S
C4390 C4391 1.367 . S
C4391 C4390 1.367 . S
C4391 C4393 1.433 . S
C4392 C4388 1.350 . S
C4392 C4389 1.463 . S
C4392 N4396 1.427 . S
C4393 H4383 0.929 . S
C4393 C4391 1.433 . S
C4393 N4396 1.384 . S
C4394 H4385 0.929 . S
C4394 C4386 1.378 . S
C4394 C4389 1.350 . S
C4395 H4382 0.929 . S
C4395 C4387 1.433 . S
C4395 N4397 1.384 . S
N4396 C4392 1.427 . S
N4396 C4393 1.384 . S
N4397 C4389 1.427 . S
N4397 C4395 1.384 . S
H4398 C4404 0.930 . S
H4399 C4408 0.930 . S
H4400 C4413 0.929 . S
H4401 C4411 0.929 . S
H4402 C4406 0.929 . S
H4403 C4412 0.929 . S
C4404 H4398 0.930 . S
C4404 C4405 1.367 . S
C4404 C4412 1.378 . S
C4405 C4404 1.367 . S
C4405 C4413 1.433 . S
C4406 H4402 0.929 . S
C4406 C4408 1.378 . S
C4406 C4410 1.350 . S
C4407 C4410 1.463 . S
C4407 C4412 1.350 . S
C4407 N4415 1.427 . S
C4408 H4399 0.930 . S
C4408 C4406 1.378 . S
C4408 C4409 1.367 . S
C4409 C4408 1.367 . S
C4409 C4411 1.433 . S
C4410 C4406 1.350 . S
C4410 C4407 1.463 . S
C4410 N4414 1.427 . S
C4411 H4401 0.929 . S
C4411 C4409 1.433 . S
C4411 N4414 1.384 . S
C4412 H4403 0.929 . S
C4412 C4404 1.378 . S
C4412 C4407 1.350 . S
C4413 H4400 0.929 . S
C4413 C4405 1.433 . S
C4413 N4415 1.384 . S
N4414 C4410 1.427 . S
N4414 C4411 1.384 . S
N4415 C4407 1.427 . S
N4415 C4413 1.384 . S
H4416 C4422 0.930 . S
H4417 C4426 0.930 . S
H4418 C4431 0.929 . S
H4419 C4429 0.929 . S
H4420 C4424 0.929 . S
H4421 C4430 0.929 . S
C4422 H4416 0.930 . S
C4422 C4423 1.367 . S
C4422 C4430 1.378 . S
C4423 C4422 1.367 . S
C4423 C4431 1.433 . S
C4424 H4420 0.929 . S
C4424 C4426 1.378 . S
C4424 C4428 1.350 . S
C4425 C4428 1.463 . S
C4425 C4430 1.350 . S
C4425 N4433 1.427 . S
C4426 H4417 0.930 . S
C4426 C4424 1.378 . S
C4426 C4427 1.367 . S
C4427 C4426 1.367 . S
C4427 C4429 1.433 . S
C4428 C4424 1.350 . S
C4428 C4425 1.463 . S
C4428 N4432 1.427 . S
C4429 H4419 0.929 . S
C4429 C4427 1.433 . S
C4429 N4432 1.384 . S
C4430 H4421 0.929 . S
C4430 C4422 1.378 . S
C4430 C4425 1.350 . S
C4431 H4418 0.929 . S
C4431 C4423 1.433 . S
C4431 N4433 1.384 . S
N4432 C4428 1.427 . S
N4432 C4429 1.384 . S
N4433 C4425 1.427 . S
N4433 C4431 1.384 . S
H4434 C4440 0.930 . S
H4435 C4444 0.930 . S
H4436 C4449 0.929 . S
H4437 C4447 0.929 . S
H4438 C4442 0.929 . S
H4439 C4448 0.929 . S
C4440 H4434 0.930 . S
C4440 C4441 1.367 . S
C4440 C4448 1.378 . S
C4441 C4440 1.367 . S
C4441 C4449 1.433 . S
C4442 H4438 0.929 . S
C4442 C4444 1.378 . S
C4442 C4446 1.350 . S
C4443 C4446 1.463 . S
C4443 C4448 1.350 . S
C4443 N4451 1.427 . S
C4444 H4435 0.930 . S
C4444 C4442 1.378 . S
C4444 C4445 1.367 . S
C4445 C4444 1.367 . S
C4445 C4447 1.433 . S
C4446 C4442 1.350 . S
C4446 C4443 1.463 . S
C4446 N4450 1.427 . S
C4447 H4437 0.929 . S
C4447 C4445 1.433 . S
C4447 N4450 1.384 . S
C4448 H4439 0.929 . S
C4448 C4440 1.378 . S
C4448 C4443 1.350 . S
C4449 H4436 0.929 . S
C4449 C4441 1.433 . S
C4449 N4451 1.384 . S
N4450 C4446 1.427 . S
N4450 C4447 1.384 . S
N4451 C4443 1.427 . S
N4451 C4449 1.384 . S
H4452 C4458 0.930 . S
H4453 C4462 0.930 . S
H4454 C4467 0.929 . S
H4455 C4465 0.929 . S
H4456 C4460 0.929 . S
H4457 C4466 0.929 . S
C4458 H4452 0.930 . S
C4458 C4459 1.367 . S
C4458 C4466 1.378 . S
C4459 C4458 1.367 . S
C4459 C4467 1.433 . S
C4460 H4456 0.929 . S
C4460 C4462 1.378 . S
C4460 C4464 1.350 . S
C4461 C4464 1.463 . S
C4461 C4466 1.350 . S
C4461 N4469 1.427 . S
C4462 H4453 0.930 . S
C4462 C4460 1.378 . S
C4462 C4463 1.367 . S
C4463 C4462 1.367 . S
C4463 C4465 1.433 . S
C4464 C4460 1.350 . S
C4464 C4461 1.463 . S
C4464 N4468 1.427 . S
C4465 H4455 0.929 . S
C4465 C4463 1.433 . S
C4465 N4468 1.384 . S
C4466 H4457 0.929 . S
C4466 C4458 1.378 . S
C4466 C4461 1.350 . S
C4467 H4454 0.929 . S
C4467 C4459 1.433 . S
C4467 N4469 1.384 . S
N4468 C4464 1.427 . S
N4468 C4465 1.384 . S
N4469 C4461 1.427 . S
N4469 C4467 1.384 . S
H4470 C4476 0.930 . S
H4471 C4480 0.930 . S
H4472 C4485 0.929 . S
H4473 C4483 0.929 . S
H4474 C4478 0.929 . S
H4475 C4484 0.929 . S
C4476 H4470 0.930 . S
C4476 C4477 1.367 . S
C4476 C4484 1.378 . S
C4477 C4476 1.367 . S
C4477 C4485 1.433 . S
C4478 H4474 0.929 . S
C4478 C4480 1.378 . S
C4478 C4482 1.350 . S
C4479 C4482 1.463 . S
C4479 C4484 1.350 . S
C4479 N4487 1.427 . S
C4480 H4471 0.930 . S
C4480 C4478 1.378 . S
C4480 C4481 1.367 . S
C4481 C4480 1.367 . S
C4481 C4483 1.433 . S
C4482 C4478 1.350 . S
C4482 C4479 1.463 . S
C4482 N4486 1.427 . S
C4483 H4473 0.929 . S
C4483 C4481 1.433 . S
C4483 N4486 1.384 . S
C4484 H4475 0.929 . S
C4484 C4476 1.378 . S
C4484 C4479 1.350 . S
C4485 H4472 0.929 . S
C4485 C4477 1.433 . S
C4485 N4487 1.384 . S
N4486 C4482 1.427 . S
N4486 C4483 1.384 . S
N4487 C4479 1.427 . S
N4487 C4485 1.384 . S
H4488 C4494 0.930 . S
H4489 C4498 0.930 . S
H4490 C4503 0.929 . S
H4491 C4501 0.929 . S
H4492 C4496 0.929 . S
H4493 C4502 0.929 . S
C4494 H4488 0.930 . S
C4494 C4495 1.367 . S
C4494 C4502 1.378 . S
C4495 C4494 1.367 . S
C4495 C4503 1.433 . S
C4496 H4492 0.929 . S
C4496 C4498 1.378 . S
C4496 C4500 1.350 . S
C4497 C4500 1.463 . S
C4497 C4502 1.350 . S
C4497 N4505 1.427 . S
C4498 H4489 0.930 . S
C4498 C4496 1.378 . S
C4498 C4499 1.367 . S
C4499 C4498 1.367 . S
C4499 C4501 1.433 . S
C4500 C4496 1.350 . S
C4500 C4497 1.463 . S
C4500 N4504 1.427 . S
C4501 H4491 0.929 . S
C4501 C4499 1.433 . S
C4501 N4504 1.384 . S
C4502 H4493 0.929 . S
C4502 C4494 1.378 . S
C4502 C4497 1.350 . S
C4503 H4490 0.929 . S
C4503 C4495 1.433 . S
C4503 N4505 1.384 . S
N4504 C4500 1.427 . S
N4504 C4501 1.384 . S
N4505 C4497 1.427 . S
N4505 C4503 1.384 . S
H4506 C4512 0.930 . S
H4507 C4516 0.930 . S
H4508 C4521 0.929 . S
H4509 C4519 0.929 . S
H4510 C4514 0.929 . S
H4511 C4520 0.929 . S
C4512 H4506 0.930 . S
C4512 C4513 1.367 . S
C4512 C4520 1.378 . S
C4513 C4512 1.367 . S
C4513 C4521 1.433 . S
C4514 H4510 0.929 . S
C4514 C4516 1.378 . S
C4514 C4518 1.350 . S
C4515 C4518 1.463 . S
C4515 C4520 1.350 . S
C4515 N4523 1.427 . S
C4516 H4507 0.930 . S
C4516 C4514 1.378 . S
C4516 C4517 1.367 . S
C4517 C4516 1.367 . S
C4517 C4519 1.433 . S
C4518 C4514 1.350 . S
C4518 C4515 1.463 . S
C4518 N4522 1.427 . S
C4519 H4509 0.929 . S
C4519 C4517 1.433 . S
C4519 N4522 1.384 . S
C4520 H4511 0.929 . S
C4520 C4512 1.378 . S
C4520 C4515 1.350 . S
C4521 H4508 0.929 . S
C4521 C4513 1.433 . S
C4521 N4523 1.384 . S
N4522 C4518 1.427 . S
N4522 C4519 1.384 . S
N4523 C4515 1.427 . S
N4523 C4521 1.384 . S
H4524 C4530 0.930 . S
H4525 C4534 0.930 . S
H4526 C4539 0.929 . S
H4527 C4537 0.929 . S
H4528 C4532 0.929 . S
H4529 C4538 0.929 . S
C4530 H4524 0.930 . S
C4530 C4531 1.367 . S
C4530 C4538 1.378 . S
C4531 C4530 1.367 . S
C4531 C4539 1.433 . S
C4532 H4528 0.929 . S
C4532 C4534 1.378 . S
C4532 C4536 1.350 . S
C4533 C4536 1.463 . S
C4533 C4538 1.350 . S
C4533 N4541 1.427 . S
C4534 H4525 0.930 . S
C4534 C4532 1.378 . S
C4534 C4535 1.367 . S
C4535 C4534 1.367 . S
C4535 C4537 1.433 . S
C4536 C4532 1.350 . S
C4536 C4533 1.463 . S
C4536 N4540 1.427 . S
C4537 H4527 0.929 . S
C4537 C4535 1.433 . S
C4537 N4540 1.384 . S
C4538 H4529 0.929 . S
C4538 C4530 1.378 . S
C4538 C4533 1.350 . S
C4539 H4526 0.929 . S
C4539 C4531 1.433 . S
C4539 N4541 1.384 . S
N4540 C4536 1.427 . S
N4540 C4537 1.384 . S
N4541 C4533 1.427 . S
N4541 C4539 1.384 . S
H4542 C4548 0.930 . S
H4543 C4552 0.930 . S
H4544 C4557 0.929 . S
H4545 C4555 0.929 . S
H4546 C4550 0.929 . S
H4547 C4556 0.929 . S
C4548 H4542 0.930 . S
C4548 C4549 1.367 . S
C4548 C4556 1.378 . S
C4549 C4548 1.367 . S
C4549 C4557 1.433 . S
C4550 H4546 0.929 . S
C4550 C4552 1.378 . S
C4550 C4554 1.350 . S
C4551 C4554 1.463 . S
C4551 C4556 1.350 . S
C4551 N4559 1.427 . S
C4552 H4543 0.930 . S
C4552 C4550 1.378 . S
C4552 C4553 1.367 . S
C4553 C4552 1.367 . S
C4553 C4555 1.433 . S
C4554 C4550 1.350 . S
C4554 C4551 1.463 . S
C4554 N4558 1.427 . S
C4555 H4545 0.929 . S
C4555 C4553 1.433 . S
C4555 N4558 1.384 . S
C4556 H4547 0.929 . S
C4556 C4548 1.378 . S
C4556 C4551 1.350 . S
C4557 H4544 0.929 . S
C4557 C4549 1.433 . S
C4557 N4559 1.384 . S
N4558 C4554 1.427 . S
N4558 C4555 1.384 . S
N4559 C4551 1.427 . S
N4559 C4557 1.384 . S
H4560 C4566 0.930 . S
H4561 C4570 0.930 . S
H4562 C4575 0.929 . S
H4563 C4573 0.929 . S
H4564 C4568 0.929 . S
H4565 C4574 0.929 . S
C4566 H4560 0.930 . S
C4566 C4567 1.367 . S
C4566 C4574 1.378 . S
C4567 C4566 1.367 . S
C4567 C4575 1.433 . S
C4568 H4564 0.929 . S
C4568 C4570 1.378 . S
C4568 C4572 1.350 . S
C4569 C4572 1.463 . S
C4569 C4574 1.350 . S
C4569 N4577 1.427 . S
C4570 H4561 0.930 . S
C4570 C4568 1.378 . S
C4570 C4571 1.367 . S
C4571 C4570 1.367 . S
C4571 C4573 1.433 . S
C4572 C4568 1.350 . S
C4572 C4569 1.463 . S
C4572 N4576 1.427 . S
C4573 H4563 0.929 . S
C4573 C4571 1.433 . S
C4573 N4576 1.384 . S
C4574 H4565 0.929 . S
C4574 C4566 1.378 . S
C4574 C4569 1.350 . S
C4575 H4562 0.929 . S
C4575 C4567 1.433 . S
C4575 N4577 1.384 . S
N4576 C4572 1.427 . S
N4576 C4573 1.384 . S
N4577 C4569 1.427 . S
N4577 C4575 1.384 . S
H4578 C4584 0.930 . S
H4579 C4588 0.930 . S
H4580 C4593 0.929 . S
H4581 C4591 0.929 . S
H4582 C4586 0.929 . S
H4583 C4592 0.929 . S
C4584 H4578 0.930 . S
C4584 C4585 1.367 . S
C4584 C4592 1.378 . S
C4585 C4584 1.367 . S
C4585 C4593 1.433 . S
C4586 H4582 0.929 . S
C4586 C4588 1.378 . S
C4586 C4590 1.350 . S
C4587 C4590 1.463 . S
C4587 C4592 1.350 . S
C4587 N4595 1.427 . S
C4588 H4579 0.930 . S
C4588 C4586 1.378 . S
C4588 C4589 1.367 . S
C4589 C4588 1.367 . S
C4589 C4591 1.433 . S
C4590 C4586 1.350 . S
C4590 C4587 1.463 . S
C4590 N4594 1.427 . S
C4591 H4581 0.929 . S
C4591 C4589 1.433 . S
C4591 N4594 1.384 . S
C4592 H4583 0.929 . S
C4592 C4584 1.378 . S
C4592 C4587 1.350 . S
C4593 H4580 0.929 . S
C4593 C4585 1.433 . S
C4593 N4595 1.384 . S
N4594 C4590 1.427 . S
N4594 C4591 1.384 . S
N4595 C4587 1.427 . S
N4595 C4593 1.384 . S
H4596 C4602 0.930 . S
H4597 C4606 0.930 . S
H4598 C4611 0.929 . S
H4599 C4609 0.929 . S
H4600 C4604 0.929 . S
H4601 C4610 0.929 . S
C4602 H4596 0.930 . S
C4602 C4603 1.367 . S
C4602 C4610 1.378 . S
C4603 C4602 1.367 . S
C4603 C4611 1.433 . S
C4604 H4600 0.929 . S
C4604 C4606 1.378 . S
C4604 C4608 1.350 . S
C4605 C4608 1.463 . S
C4605 C4610 1.350 . S
C4605 N4613 1.427 . S
C4606 H4597 0.930 . S
C4606 C4604 1.378 . S
C4606 C4607 1.367 . S
C4607 C4606 1.367 . S
C4607 C4609 1.433 . S
C4608 C4604 1.350 . S
C4608 C4605 1.463 . S
C4608 N4612 1.427 . S
C4609 H4599 0.929 . S
C4609 C4607 1.433 . S
C4609 N4612 1.384 . S
C4610 H4601 0.929 . S
C4610 C4602 1.378 . S
C4610 C4605 1.350 . S
C4611 H4598 0.929 . S
C4611 C4603 1.433 . S
C4611 N4613 1.384 . S
N4612 C4608 1.427 . S
N4612 C4609 1.384 . S
N4613 C4605 1.427 . S
N4613 C4611 1.384 . S
H4614 C4620 0.930 . S
H4615 C4624 0.930 . S
H4616 C4629 0.929 . S
H4617 C4627 0.929 . S
H4618 C4622 0.929 . S
H4619 C4628 0.929 . S
C4620 H4614 0.930 . S
C4620 C4621 1.367 . S
C4620 C4628 1.378 . S
C4621 C4620 1.367 . S
C4621 C4629 1.433 . S
C4622 H4618 0.929 . S
C4622 C4624 1.378 . S
C4622 C4626 1.350 . S
C4623 C4626 1.463 . S
C4623 C4628 1.350 . S
C4623 N4631 1.427 . S
C4624 H4615 0.930 . S
C4624 C4622 1.378 . S
C4624 C4625 1.367 . S
C4625 C4624 1.367 . S
C4625 C4627 1.433 . S
C4626 C4622 1.350 . S
C4626 C4623 1.463 . S
C4626 N4630 1.427 . S
C4627 H4617 0.929 . S
C4627 C4625 1.433 . S
C4627 N4630 1.384 . S
C4628 H4619 0.929 . S
C4628 C4620 1.378 . S
C4628 C4623 1.350 . S
C4629 H4616 0.929 . S
C4629 C4621 1.433 . S
C4629 N4631 1.384 . S
N4630 C4626 1.427 . S
N4630 C4627 1.384 . S
N4631 C4623 1.427 . S
N4631 C4629 1.384 . S
H4632 C4638 0.930 . S
H4633 C4642 0.930 . S
H4634 C4647 0.929 . S
H4635 C4645 0.929 . S
H4636 C4640 0.929 . S
H4637 C4646 0.929 . S
C4638 H4632 0.930 . S
C4638 C4639 1.367 . S
C4638 C4646 1.378 . S
C4639 C4638 1.367 . S
C4639 C4647 1.433 . S
C4640 H4636 0.929 . S
C4640 C4642 1.378 . S
C4640 C4644 1.350 . S
C4641 C4644 1.463 . S
C4641 C4646 1.350 . S
C4641 N4649 1.427 . S
C4642 H4633 0.930 . S
C4642 C4640 1.378 . S
C4642 C4643 1.367 . S
C4643 C4642 1.367 . S
C4643 C4645 1.433 . S
C4644 C4640 1.350 . S
C4644 C4641 1.463 . S
C4644 N4648 1.427 . S
C4645 H4635 0.929 . S
C4645 C4643 1.433 . S
C4645 N4648 1.384 . S
C4646 H4637 0.929 . S
C4646 C4638 1.378 . S
C4646 C4641 1.350 . S
C4647 H4634 0.929 . S
C4647 C4639 1.433 . S
C4647 N4649 1.384 . S
N4648 C4644 1.427 . S
N4648 C4645 1.384 . S
N4649 C4641 1.427 . S
N4649 C4647 1.384 . S
H4650 C4656 0.930 . S
H4651 C4660 0.930 . S
H4652 C4665 0.929 . S
H4653 C4663 0.929 . S
H4654 C4658 0.929 . S
H4655 C4664 0.929 . S
C4656 H4650 0.930 . S
C4656 C4657 1.367 . S
C4656 C4664 1.378 . S
C4657 C4656 1.367 . S
C4657 C4665 1.433 . S
C4658 H4654 0.929 . S
C4658 C4660 1.378 . S
C4658 C4662 1.350 . S
C4659 C4662 1.463 . S
C4659 C4664 1.350 . S
C4659 N4667 1.427 . S
C4660 H4651 0.930 . S
C4660 C4658 1.378 . S
C4660 C4661 1.367 . S
C4661 C4660 1.367 . S
C4661 C4663 1.433 . S
C4662 C4658 1.350 . S
C4662 C4659 1.463 . S
C4662 N4666 1.427 . S
C4663 H4653 0.929 . S
C4663 C4661 1.433 . S
C4663 N4666 1.384 . S
C4664 H4655 0.929 . S
C4664 C4656 1.378 . S
C4664 C4659 1.350 . S
C4665 H4652 0.929 . S
C4665 C4657 1.433 . S
C4665 N4667 1.384 . S
N4666 C4662 1.427 . S
N4666 C4663 1.384 . S
N4667 C4659 1.427 . S
N4667 C4665 1.384 . S
H4668 C4674 0.930 . S
H4669 C4678 0.930 . S
H4670 C4683 0.929 . S
H4671 C4681 0.929 . S
H4672 C4676 0.929 . S
H4673 C4682 0.929 . S
C4674 H4668 0.930 . S
C4674 C4675 1.367 . S
C4674 C4682 1.378 . S
C4675 C4674 1.367 . S
C4675 C4683 1.433 . S
C4676 H4672 0.929 . S
C4676 C4678 1.378 . S
C4676 C4680 1.350 . S
C4677 C4680 1.463 . S
C4677 C4682 1.350 . S
C4677 N4685 1.427 . S
C4678 H4669 0.930 . S
C4678 C4676 1.378 . S
C4678 C4679 1.367 . S
C4679 C4678 1.367 . S
C4679 C4681 1.433 . S
C4680 C4676 1.350 . S
C4680 C4677 1.463 . S
C4680 N4684 1.427 . S
C4681 H4671 0.929 . S
C4681 C4679 1.433 . S
C4681 N4684 1.384 . S
C4682 H4673 0.929 . S
C4682 C4674 1.378 . S
C4682 C4677 1.350 . S
C4683 H4670 0.929 . S
C4683 C4675 1.433 . S
C4683 N4685 1.384 . S
N4684 C4680 1.427 . S
N4684 C4681 1.384 . S
N4685 C4677 1.427 . S
N4685 C4683 1.384 . S
H4686 C4692 0.930 . S
H4687 C4696 0.930 . S
H4688 C4701 0.929 . S
H4689 C4699 0.929 . S
H4690 C4694 0.929 . S
H4691 C4700 0.929 . S
C4692 H4686 0.930 . S
C4692 C4693 1.367 . S
C4692 C4700 1.378 . S
C4693 C4692 1.367 . S
C4693 C4701 1.433 . S
C4694 H4690 0.929 . S
C4694 C4696 1.378 . S
C4694 C4698 1.350 . S
C4695 C4698 1.463 . S
C4695 C4700 1.350 . S
C4695 N4703 1.427 . S
C4696 H4687 0.930 . S
C4696 C4694 1.378 . S
C4696 C4697 1.367 . S
C4697 C4696 1.367 . S
C4697 C4699 1.433 . S
C4698 C4694 1.350 . S
C4698 C4695 1.463 . S
C4698 N4702 1.427 . S
C4699 H4689 0.929 . S
C4699 C4697 1.433 . S
C4699 N4702 1.384 . S
C4700 H4691 0.929 . S
C4700 C4692 1.378 . S
C4700 C4695 1.350 . S
C4701 H4688 0.929 . S
C4701 C4693 1.433 . S
C4701 N4703 1.384 . S
N4702 C4698 1.427 . S
N4702 C4699 1.384 . S
N4703 C4695 1.427 . S
N4703 C4701 1.384 . S
H4704 C4710 0.930 . S
H4705 C4714 0.930 . S
H4706 C4719 0.929 . S
H4707 C4717 0.929 . S
H4708 C4712 0.929 . S
H4709 C4718 0.929 . S
C4710 H4704 0.930 . S
C4710 C4711 1.367 . S
C4710 C4718 1.378 . S
C4711 C4710 1.367 . S
C4711 C4719 1.433 . S
C4712 H4708 0.929 . S
C4712 C4714 1.378 . S
C4712 C4716 1.350 . S
C4713 C4716 1.463 . S
C4713 C4718 1.350 . S
C4713 N4721 1.427 . S
C4714 H4705 0.930 . S
C4714 C4712 1.378 . S
C4714 C4715 1.367 . S
C4715 C4714 1.367 . S
C4715 C4717 1.433 . S
C4716 C4712 1.350 . S
C4716 C4713 1.463 . S
C4716 N4720 1.427 . S
C4717 H4707 0.929 . S
C4717 C4715 1.433 . S
C4717 N4720 1.384 . S
C4718 H4709 0.929 . S
C4718 C4710 1.378 . S
C4718 C4713 1.350 . S
C4719 H4706 0.929 . S
C4719 C4711 1.433 . S
C4719 N4721 1.384 . S
N4720 C4716 1.427 . S
N4720 C4717 1.384 . S
N4721 C4713 1.427 . S
N4721 C4719 1.384 . S
H4722 C4728 0.930 . S
H4723 C4732 0.930 . S
H4724 C4737 0.929 . S
H4725 C4735 0.929 . S
H4726 C4730 0.929 . S
H4727 C4736 0.929 . S
C4728 H4722 0.930 . S
C4728 C4729 1.367 . S
C4728 C4736 1.378 . S
C4729 C4728 1.367 . S
C4729 C4737 1.433 . S
C4730 H4726 0.929 . S
C4730 C4732 1.378 . S
C4730 C4734 1.350 . S
C4731 C4734 1.463 . S
C4731 C4736 1.350 . S
C4731 N4739 1.427 . S
C4732 H4723 0.930 . S
C4732 C4730 1.378 . S
C4732 C4733 1.367 . S
C4733 C4732 1.367 . S
C4733 C4735 1.433 . S
C4734 C4730 1.350 . S
C4734 C4731 1.463 . S
C4734 N4738 1.427 . S
C4735 H4725 0.929 . S
C4735 C4733 1.433 . S
C4735 N4738 1.384 . S
C4736 H4727 0.929 . S
C4736 C4728 1.378 . S
C4736 C4731 1.350 . S
C4737 H4724 0.929 . S
C4737 C4729 1.433 . S
C4737 N4739 1.384 . S
N4738 C4734 1.427 . S
N4738 C4735 1.384 . S
N4739 C4731 1.427 . S
N4739 C4737 1.384 . S
H4740 C4746 0.930 . S
H4741 C4750 0.930 . S
H4742 C4755 0.929 . S
H4743 C4753 0.929 . S
H4744 C4748 0.929 . S
H4745 C4754 0.929 . S
C4746 H4740 0.930 . S
C4746 C4747 1.367 . S
C4746 C4754 1.378 . S
C4747 C4746 1.367 . S
C4747 C4755 1.433 . S
C4748 H4744 0.929 . S
C4748 C4750 1.378 . S
C4748 C4752 1.350 . S
C4749 C4752 1.463 . S
C4749 C4754 1.350 . S
C4749 N4757 1.427 . S
C4750 H4741 0.930 . S
C4750 C4748 1.378 . S
C4750 C4751 1.367 . S
C4751 C4750 1.367 . S
C4751 C4753 1.433 . S
C4752 C4748 1.350 . S
C4752 C4749 1.463 . S
C4752 N4756 1.427 . S
C4753 H4743 0.929 . S
C4753 C4751 1.433 . S
C4753 N4756 1.384 . S
C4754 H4745 0.929 . S
C4754 C4746 1.378 . S
C4754 C4749 1.350 . S
C4755 H4742 0.929 . S
C4755 C4747 1.433 . S
C4755 N4757 1.384 . S
N4756 C4752 1.427 . S
N4756 C4753 1.384 . S
N4757 C4749 1.427 . S
N4757 C4755 1.384 . S
H4758 C4764 0.930 . S
H4759 C4768 0.930 . S
H4760 C4773 0.929 . S
H4761 C4771 0.929 . S
H4762 C4766 0.929 . S
H4763 C4772 0.929 . S
C4764 H4758 0.930 . S
C4764 C4765 1.367 . S
C4764 C4772 1.378 . S
C4765 C4764 1.367 . S
C4765 C4773 1.433 . S
C4766 H4762 0.929 . S
C4766 C4768 1.378 . S
C4766 C4770 1.350 . S
C4767 C4770 1.463 . S
C4767 C4772 1.350 . S
C4767 N4775 1.427 . S
C4768 H4759 0.930 . S
C4768 C4766 1.378 . S
C4768 C4769 1.367 . S
C4769 C4768 1.367 . S
C4769 C4771 1.433 . S
C4770 C4766 1.350 . S
C4770 C4767 1.463 . S
C4770 N4774 1.427 . S
C4771 H4761 0.929 . S
C4771 C4769 1.433 . S
C4771 N4774 1.384 . S
C4772 H4763 0.929 . S
C4772 C4764 1.378 . S
C4772 C4767 1.350 . S
C4773 H4760 0.929 . S
C4773 C4765 1.433 . S
C4773 N4775 1.384 . S
N4774 C4770 1.427 . S
N4774 C4771 1.384 . S
N4775 C4767 1.427 . S
N4775 C4773 1.384 . S
H4776 C4782 0.930 . S
H4777 C4786 0.930 . S
H4778 C4791 0.929 . S
H4779 C4789 0.929 . S
H4780 C4784 0.929 . S
H4781 C4790 0.929 . S
C4782 H4776 0.930 . S
C4782 C4783 1.367 . S
C4782 C4790 1.378 . S
C4783 C4782 1.367 . S
C4783 C4791 1.433 . S
C4784 H4780 0.929 . S
C4784 C4786 1.378 . S
C4784 C4788 1.350 . S
C4785 C4788 1.463 . S
C4785 C4790 1.350 . S
C4785 N4793 1.427 . S
C4786 H4777 0.930 . S
C4786 C4784 1.378 . S
C4786 C4787 1.367 . S
C4787 C4786 1.367 . S
C4787 C4789 1.433 . S
C4788 C4784 1.350 . S
C4788 C4785 1.463 . S
C4788 N4792 1.427 . S
C4789 H4779 0.929 . S
C4789 C4787 1.433 . S
C4789 N4792 1.384 . S
C4790 H4781 0.929 . S
C4790 C4782 1.378 . S
C4790 C4785 1.350 . S
C4791 H4778 0.929 . S
C4791 C4783 1.433 . S
C4791 N4793 1.384 . S
N4792 C4788 1.427 . S
N4792 C4789 1.384 . S
N4793 C4785 1.427 . S
N4793 C4791 1.384 . S
H4794 C4800 0.930 . S
H4795 C4804 0.930 . S
H4796 C4809 0.929 . S
H4797 C4807 0.929 . S
H4798 C4802 0.929 . S
H4799 C4808 0.929 . S
C4800 H4794 0.930 . S
C4800 C4801 1.367 . S
C4800 C4808 1.378 . S
C4801 C4800 1.367 . S
C4801 C4809 1.433 . S
C4802 H4798 0.929 . S
C4802 C4804 1.378 . S
C4802 C4806 1.350 . S
C4803 C4806 1.463 . S
C4803 C4808 1.350 . S
C4803 N4811 1.427 . S
C4804 H4795 0.930 . S
C4804 C4802 1.378 . S
C4804 C4805 1.367 . S
C4805 C4804 1.367 . S
C4805 C4807 1.433 . S
C4806 C4802 1.350 . S
C4806 C4803 1.463 . S
C4806 N4810 1.427 . S
C4807 H4797 0.929 . S
C4807 C4805 1.433 . S
C4807 N4810 1.384 . S
C4808 H4799 0.929 . S
C4808 C4800 1.378 . S
C4808 C4803 1.350 . S
C4809 H4796 0.929 . S
C4809 C4801 1.433 . S
C4809 N4811 1.384 . S
N4810 C4806 1.427 . S
N4810 C4807 1.384 . S
N4811 C4803 1.427 . S
N4811 C4809 1.384 . S
H4812 C4818 0.930 . S
H4813 C4822 0.930 . S
H4814 C4827 0.929 . S
H4815 C4825 0.929 . S
H4816 C4820 0.929 . S
H4817 C4826 0.929 . S
C4818 H4812 0.930 . S
C4818 C4819 1.367 . S
C4818 C4826 1.378 . S
C4819 C4818 1.367 . S
C4819 C4827 1.433 . S
C4820 H4816 0.929 . S
C4820 C4822 1.378 . S
C4820 C4824 1.350 . S
C4821 C4824 1.463 . S
C4821 C4826 1.350 . S
C4821 N4829 1.427 . S
C4822 H4813 0.930 . S
C4822 C4820 1.378 . S
C4822 C4823 1.367 . S
C4823 C4822 1.367 . S
C4823 C4825 1.433 . S
C4824 C4820 1.350 . S
C4824 C4821 1.463 . S
C4824 N4828 1.427 . S
C4825 H4815 0.929 . S
C4825 C4823 1.433 . S
C4825 N4828 1.384 . S
C4826 H4817 0.929 . S
C4826 C4818 1.378 . S
C4826 C4821 1.350 . S
C4827 H4814 0.929 . S
C4827 C4819 1.433 . S
C4827 N4829 1.384 . S
N4828 C4824 1.427 . S
N4828 C4825 1.384 . S
N4829 C4821 1.427 . S
N4829 C4827 1.384 . S
H4830 C4836 0.930 . S
H4831 C4840 0.930 . S
H4832 C4845 0.929 . S
H4833 C4843 0.929 . S
H4834 C4838 0.929 . S
H4835 C4844 0.929 . S
C4836 H4830 0.930 . S
C4836 C4837 1.367 . S
C4836 C4844 1.378 . S
C4837 C4836 1.367 . S
C4837 C4845 1.433 . S
C4838 H4834 0.929 . S
C4838 C4840 1.378 . S
C4838 C4842 1.350 . S
C4839 C4842 1.463 . S
C4839 C4844 1.350 . S
C4839 N4847 1.427 . S
C4840 H4831 0.930 . S
C4840 C4838 1.378 . S
C4840 C4841 1.367 . S
C4841 C4840 1.367 . S
C4841 C4843 1.433 . S
C4842 C4838 1.350 . S
C4842 C4839 1.463 . S
C4842 N4846 1.427 . S
C4843 H4833 0.929 . S
C4843 C4841 1.433 . S
C4843 N4846 1.384 . S
C4844 H4835 0.929 . S
C4844 C4836 1.378 . S
C4844 C4839 1.350 . S
C4845 H4832 0.929 . S
C4845 C4837 1.433 . S
C4845 N4847 1.384 . S
N4846 C4842 1.427 . S
N4846 C4843 1.384 . S
N4847 C4839 1.427 . S
N4847 C4845 1.384 . S
H4848 C4854 0.930 . S
H4849 C4858 0.930 . S
H4850 C4863 0.929 . S
H4851 C4861 0.929 . S
H4852 C4856 0.929 . S
H4853 C4862 0.929 . S
C4854 H4848 0.930 . S
C4854 C4855 1.367 . S
C4854 C4862 1.378 . S
C4855 C4854 1.367 . S
C4855 C4863 1.433 . S
C4856 H4852 0.929 . S
C4856 C4858 1.378 . S
C4856 C4860 1.350 . S
C4857 C4860 1.463 . S
C4857 C4862 1.350 . S
C4857 N4865 1.427 . S
C4858 H4849 0.930 . S
C4858 C4856 1.378 . S
C4858 C4859 1.367 . S
C4859 C4858 1.367 . S
C4859 C4861 1.433 . S
C4860 C4856 1.350 . S
C4860 C4857 1.463 . S
C4860 N4864 1.427 . S
C4861 H4851 0.929 . S
C4861 C4859 1.433 . S
C4861 N4864 1.384 . S
C4862 H4853 0.929 . S
C4862 C4854 1.378 . S
C4862 C4857 1.350 . S
C4863 H4850 0.929 . S
C4863 C4855 1.433 . S
C4863 N4865 1.384 . S
N4864 C4860 1.427 . S
N4864 C4861 1.384 . S
N4865 C4857 1.427 . S
N4865 C4863 1.384 . S
H4866 C4872 0.930 . S
H4867 C4876 0.930 . S
H4868 C4881 0.929 . S
H4869 C4879 0.929 . S
H4870 C4874 0.929 . S
H4871 C4880 0.929 . S
C4872 H4866 0.930 . S
C4872 C4873 1.367 . S
C4872 C4880 1.378 . S
C4873 C4872 1.367 . S
C4873 C4881 1.433 . S
C4874 H4870 0.929 . S
C4874 C4876 1.378 . S
C4874 C4878 1.350 . S
C4875 C4878 1.463 . S
C4875 C4880 1.350 . S
C4875 N4883 1.427 . S
C4876 H4867 0.930 . S
C4876 C4874 1.378 . S
C4876 C4877 1.367 . S
C4877 C4876 1.367 . S
C4877 C4879 1.433 . S
C4878 C4874 1.350 . S
C4878 C4875 1.463 . S
C4878 N4882 1.427 . S
C4879 H4869 0.929 . S
C4879 C4877 1.433 . S
C4879 N4882 1.384 . S
C4880 H4871 0.929 . S
C4880 C4872 1.378 . S
C4880 C4875 1.350 . S
C4881 H4868 0.929 . S
C4881 C4873 1.433 . S
C4881 N4883 1.384 . S
N4882 C4878 1.427 . S
N4882 C4879 1.384 . S
N4883 C4875 1.427 . S
N4883 C4881 1.384 . S
H4884 C4890 0.930 . S
H4885 C4894 0.930 . S
H4886 C4899 0.929 . S
H4887 C4897 0.929 . S
H4888 C4892 0.929 . S
H4889 C4898 0.929 . S
C4890 H4884 0.930 . S
C4890 C4891 1.367 . S
C4890 C4898 1.378 . S
C4891 C4890 1.367 . S
C4891 C4899 1.433 . S
C4892 H4888 0.929 . S
C4892 C4894 1.378 . S
C4892 C4896 1.350 . S
C4893 C4896 1.463 . S
C4893 C4898 1.350 . S
C4893 N4901 1.427 . S
C4894 H4885 0.930 . S
C4894 C4892 1.378 . S
C4894 C4895 1.367 . S
C4895 C4894 1.367 . S
C4895 C4897 1.433 . S
C4896 C4892 1.350 . S
C4896 C4893 1.463 . S
C4896 N4900 1.427 . S
C4897 H4887 0.929 . S
C4897 C4895 1.433 . S
C4897 N4900 1.384 . S
C4898 H4889 0.929 . S
C4898 C4890 1.378 . S
C4898 C4893 1.350 . S
C4899 H4886 0.929 . S
C4899 C4891 1.433 . S
C4899 N4901 1.384 . S
N4900 C4896 1.427 . S
N4900 C4897 1.384 . S
N4901 C4893 1.427 . S
N4901 C4899 1.384 . S
H4902 C4908 0.930 . S
H4903 C4912 0.930 . S
H4904 C4917 0.929 . S
H4905 C4915 0.929 . S
H4906 C4910 0.929 . S
H4907 C4916 0.929 . S
C4908 H4902 0.930 . S
C4908 C4909 1.367 . S
C4908 C4916 1.378 . S
C4909 C4908 1.367 . S
C4909 C4917 1.433 . S
C4910 H4906 0.929 . S
C4910 C4912 1.378 . S
C4910 C4914 1.350 . S
C4911 C4914 1.463 . S
C4911 C4916 1.350 . S
C4911 N4919 1.427 . S
C4912 H4903 0.930 . S
C4912 C4910 1.378 . S
C4912 C4913 1.367 . S
C4913 C4912 1.367 . S
C4913 C4915 1.433 . S
C4914 C4910 1.350 . S
C4914 C4911 1.463 . S
C4914 N4918 1.427 . S
C4915 H4905 0.929 . S
C4915 C4913 1.433 . S
C4915 N4918 1.384 . S
C4916 H4907 0.929 . S
C4916 C4908 1.378 . S
C4916 C4911 1.350 . S
C4917 H4904 0.929 . S
C4917 C4909 1.433 . S
C4917 N4919 1.384 . S
N4918 C4914 1.427 . S
N4918 C4915 1.384 . S
N4919 C4911 1.427 . S
N4919 C4917 1.384 . S
H4920 C4926 0.930 . S
H4921 C4930 0.930 . S
H4922 C4935 0.929 . S
H4923 C4933 0.929 . S
H4924 C4928 0.929 . S
H4925 C4934 0.929 . S
C4926 H4920 0.930 . S
C4926 C4927 1.367 . S
C4926 C4934 1.378 . S
C4927 C4926 1.367 . S
C4927 C4935 1.433 . S
C4928 H4924 0.929 . S
C4928 C4930 1.378 . S
C4928 C4932 1.350 . S
C4929 C4932 1.463 . S
C4929 C4934 1.350 . S
C4929 N4937 1.427 . S
C4930 H4921 0.930 . S
C4930 C4928 1.378 . S
C4930 C4931 1.367 . S
C4931 C4930 1.367 . S
C4931 C4933 1.433 . S
C4932 C4928 1.350 . S
C4932 C4929 1.463 . S
C4932 N4936 1.427 . S
C4933 H4923 0.929 . S
C4933 C4931 1.433 . S
C4933 N4936 1.384 . S
C4934 H4925 0.929 . S
C4934 C4926 1.378 . S
C4934 C4929 1.350 . S
C4935 H4922 0.929 . S
C4935 C4927 1.433 . S
C4935 N4937 1.384 . S
N4936 C4932 1.427 . S
N4936 C4933 1.384 . S
N4937 C4929 1.427 . S
N4937 C4935 1.384 . S
H4938 C4944 0.930 . S
H4939 C4948 0.930 . S
H4940 C4953 0.929 . S
H4941 C4951 0.929 . S
H4942 C4946 0.929 . S
H4943 C4952 0.929 . S
C4944 H4938 0.930 . S
C4944 C4945 1.367 . S
C4944 C4952 1.378 . S
C4945 C4944 1.367 . S
C4945 C4953 1.433 . S
C4946 H4942 0.929 . S
C4946 C4948 1.378 . S
C4946 C4950 1.350 . S
C4947 C4950 1.463 . S
C4947 C4952 1.350 . S
C4947 N4955 1.427 . S
C4948 H4939 0.930 . S
C4948 C4946 1.378 . S
C4948 C4949 1.367 . S
C4949 C4948 1.367 . S
C4949 C4951 1.433 . S
C4950 C4946 1.350 . S
C4950 C4947 1.463 . S
C4950 N4954 1.427 . S
C4951 H4941 0.929 . S
C4951 C4949 1.433 . S
C4951 N4954 1.384 . S
C4952 H4943 0.929 . S
C4952 C4944 1.378 . S
C4952 C4947 1.350 . S
C4953 H4940 0.929 . S
C4953 C4945 1.433 . S
C4953 N4955 1.384 . S
N4954 C4950 1.427 . S
N4954 C4951 1.384 . S
N4955 C4947 1.427 . S
N4955 C4953 1.384 . S
H4956 C4962 0.930 . S
H4957 C4966 0.930 . S
H4958 C4971 0.929 . S
H4959 C4969 0.929 . S
H4960 C4964 0.929 . S
H4961 C4970 0.929 . S
C4962 H4956 0.930 . S
C4962 C4963 1.367 . S
C4962 C4970 1.378 . S
C4963 C4962 1.367 . S
C4963 C4971 1.433 . S
C4964 H4960 0.929 . S
C4964 C4966 1.378 . S
C4964 C4968 1.350 . S
C4965 C4968 1.463 . S
C4965 C4970 1.350 . S
C4965 N4973 1.427 . S
C4966 H4957 0.930 . S
C4966 C4964 1.378 . S
C4966 C4967 1.367 . S
C4967 C4966 1.367 . S
C4967 C4969 1.433 . S
C4968 C4964 1.350 . S
C4968 C4965 1.463 . S
C4968 N4972 1.427 . S
C4969 H4959 0.929 . S
C4969 C4967 1.433 . S
C4969 N4972 1.384 . S
C4970 H4961 0.929 . S
C4970 C4962 1.378 . S
C4970 C4965 1.350 . S
C4971 H4958 0.929 . S
C4971 C4963 1.433 . S
C4971 N4973 1.384 . S
N4972 C4968 1.427 . S
N4972 C4969 1.384 . S
N4973 C4965 1.427 . S
N4973 C4971 1.384 . S
H4974 C4980 0.930 . S
H4975 C4984 0.930 . S
H4976 C4989 0.929 . S
H4977 C4987 0.929 . S
H4978 C4982 0.929 . S
H4979 C4988 0.929 . S
C4980 H4974 0.930 . S
C4980 C4981 1.367 . S
C4980 C4988 1.378 . S
C4981 C4980 1.367 . S
C4981 C4989 1.433 . S
C4982 H4978 0.929 . S
C4982 C4984 1.378 . S
C4982 C4986 1.350 . S
C4983 C4986 1.463 . S
C4983 C4988 1.350 . S
C4983 N4991 1.427 . S
C4984 H4975 0.930 . S
C4984 C4982 1.378 . S
C4984 C4985 1.367 . S
C4985 C4984 1.367 . S
C4985 C4987 1.433 . S
C4986 C4982 1.350 . S
C4986 C4983 1.463 . S
C4986 N4990 1.427 . S
C4987 H4977 0.929 . S
C4987 C4985 1.433 . S
C4987 N4990 1.384 . S
C4988 H4979 0.929 . S
C4988 C4980 1.378 . S
C4988 C4983 1.350 . S
C4989 H4976 0.929 . S
C4989 C4981 1.433 . S
C4989 N4991 1.384 . S
N4990 C4986 1.427 . S
N4990 C4987 1.384 . S
N4991 C4983 1.427 . S
N4991 C4989 1.384 . S
H4992 C4998 0.930 . S
H4993 C5002 0.930 . S
H4994 C5007 0.929 . S
H4995 C5005 0.929 . S
H4996 C5000 0.929 . S
H4997 C5006 0.929 . S
C4998 H4992 0.930 . S
C4998 C4999 1.367 . S
C4998 C5006 1.378 . S
C4999 C4998 1.367 . S
C4999 C5007 1.433 . S
C5000 H4996 0.929 . S
C5000 C5002 1.378 . S
C5000 C5004 1.350 . S
C5001 C5004 1.463 . S
C5001 C5006 1.350 . S
C5001 N5009 1.427 . S
C5002 H4993 0.930 . S
C5002 C5000 1.378 . S
C5002 C5003 1.367 . S
C5003 C5002 1.367 . S
C5003 C5005 1.433 . S
C5004 C5000 1.350 . S
C5004 C5001 1.463 . S
C5004 N5008 1.427 . S
C5005 H4995 0.929 . S
C5005 C5003 1.433 . S
C5005 N5008 1.384 . S
C5006 H4997 0.929 . S
C5006 C4998 1.378 . S
C5006 C5001 1.350 . S
C5007 H4994 0.929 . S
C5007 C4999 1.433 . S
C5007 N5009 1.384 . S
N5008 C5004 1.427 . S
N5008 C5005 1.384 . S
N5009 C5001 1.427 . S
N5009 C5007 1.384 . S
H5010 C5016 0.930 . S
H5011 C5020 0.930 . S
H5012 C5025 0.929 . S
H5013 C5023 0.929 . S
H5014 C5018 0.929 . S
H5015 C5024 0.929 . S
C5016 H5010 0.930 . S
C5016 C5017 1.367 . S
C5016 C5024 1.378 . S
C5017 C5016 1.367 . S
C5017 C5025 1.433 . S
C5018 H5014 0.929 . S
C5018 C5020 1.378 . S
C5018 C5022 1.350 . S
C5019 C5022 1.463 . S
C5019 C5024 1.350 . S
C5019 N5027 1.427 . S
C5020 H5011 0.930 . S
C5020 C5018 1.378 . S
C5020 C5021 1.367 . S
C5021 C5020 1.367 . S
C5021 C5023 1.433 . S
C5022 C5018 1.350 . S
C5022 C5019 1.463 . S
C5022 N5026 1.427 . S
C5023 H5013 0.929 . S
C5023 C5021 1.433 . S
C5023 N5026 1.384 . S
C5024 H5015 0.929 . S
C5024 C5016 1.378 . S
C5024 C5019 1.350 . S
C5025 H5012 0.929 . S
C5025 C5017 1.433 . S
C5025 N5027 1.384 . S
N5026 C5022 1.427 . S
N5026 C5023 1.384 . S
N5027 C5019 1.427 . S
N5027 C5025 1.384 . S
H5028 C5034 0.930 . S
H5029 C5038 0.930 . S
H5030 C5043 0.929 . S
H5031 C5041 0.929 . S
H5032 C5036 0.929 . S
H5033 C5042 0.929 . S
C5034 H5028 0.930 . S
C5034 C5035 1.367 . S
C5034 C5042 1.378 . S
C5035 C5034 1.367 . S
C5035 C5043 1.433 . S
C5036 H5032 0.929 . S
C5036 C5038 1.378 . S
C5036 C5040 1.350 . S
C5037 C5040 1.463 . S
C5037 C5042 1.350 . S
C5037 N5045 1.427 . S
C5038 H5029 0.930 . S
C5038 C5036 1.378 . S
C5038 C5039 1.367 . S
C5039 C5038 1.367 . S
C5039 C5041 1.433 . S
C5040 C5036 1.350 . S
C5040 C5037 1.463 . S
C5040 N5044 1.427 . S
C5041 H5031 0.929 . S
C5041 C5039 1.433 . S
C5041 N5044 1.384 . S
C5042 H5033 0.929 . S
C5042 C5034 1.378 . S
C5042 C5037 1.350 . S
C5043 H5030 0.929 . S
C5043 C5035 1.433 . S
C5043 N5045 1.384 . S
N5044 C5040 1.427 . S
N5044 C5041 1.384 . S
N5045 C5037 1.427 . S
N5045 C5043 1.384 . S
H5046 C5052 0.930 . S
H5047 C5056 0.930 . S
H5048 C5061 0.929 . S
H5049 C5059 0.929 . S
H5050 C5054 0.929 . S
H5051 C5060 0.929 . S
C5052 H5046 0.930 . S
C5052 C5053 1.367 . S
C5052 C5060 1.378 . S
C5053 C5052 1.367 . S
C5053 C5061 1.433 . S
C5054 H5050 0.929 . S
C5054 C5056 1.378 . S
C5054 C5058 1.350 . S
C5055 C5058 1.463 . S
C5055 C5060 1.350 . S
C5055 N5063 1.427 . S
C5056 H5047 0.930 . S
C5056 C5054 1.378 . S
C5056 C5057 1.367 . S
C5057 C5056 1.367 . S
C5057 C5059 1.433 . S
C5058 C5054 1.350 . S
C5058 C5055 1.463 . S
C5058 N5062 1.427 . S
C5059 H5049 0.929 . S
C5059 C5057 1.433 . S
C5059 N5062 1.384 . S
C5060 H5051 0.929 . S
C5060 C5052 1.378 . S
C5060 C5055 1.350 . S
C5061 H5048 0.929 . S
C5061 C5053 1.433 . S
C5061 N5063 1.384 . S
N5062 C5058 1.427 . S
N5062 C5059 1.384 . S
N5063 C5055 1.427 . S
N5063 C5061 1.384 . S
H5064 C5070 0.930 . S
H5065 C5074 0.930 . S
H5066 C5079 0.929 . S
H5067 C5077 0.929 . S
H5068 C5072 0.929 . S
H5069 C5078 0.929 . S
C5070 H5064 0.930 . S
C5070 C5071 1.367 . S
C5070 C5078 1.378 . S
C5071 C5070 1.367 . S
C5071 C5079 1.433 . S
C5072 H5068 0.929 . S
C5072 C5074 1.378 . S
C5072 C5076 1.350 . S
C5073 C5076 1.463 . S
C5073 C5078 1.350 . S
C5073 N5081 1.427 . S
C5074 H5065 0.930 . S
C5074 C5072 1.378 . S
C5074 C5075 1.367 . S
C5075 C5074 1.367 . S
C5075 C5077 1.433 . S
C5076 C5072 1.350 . S
C5076 C5073 1.463 . S
C5076 N5080 1.427 . S
C5077 H5067 0.929 . S
C5077 C5075 1.433 . S
C5077 N5080 1.384 . S
C5078 H5069 0.929 . S
C5078 C5070 1.378 . S
C5078 C5073 1.350 . S
C5079 H5066 0.929 . S
C5079 C5071 1.433 . S
C5079 N5081 1.384 . S
N5080 C5076 1.427 . S
N5080 C5077 1.384 . S
N5081 C5073 1.427 . S
N5081 C5079 1.384 . S
H5082 C5088 0.930 . S
H5083 C5092 0.930 . S
H5084 C5097 0.929 . S
H5085 C5095 0.929 . S
H5086 C5090 0.929 . S
H5087 C5096 0.929 . S
C5088 H5082 0.930 . S
C5088 C5089 1.367 . S
C5088 C5096 1.378 . S
C5089 C5088 1.367 . S
C5089 C5097 1.433 . S
C5090 H5086 0.929 . S
C5090 C5092 1.378 . S
C5090 C5094 1.350 . S
C5091 C5094 1.463 . S
C5091 C5096 1.350 . S
C5091 N5099 1.427 . S
C5092 H5083 0.930 . S
C5092 C5090 1.378 . S
C5092 C5093 1.367 . S
C5093 C5092 1.367 . S
C5093 C5095 1.433 . S
C5094 C5090 1.350 . S
C5094 C5091 1.463 . S
C5094 N5098 1.427 . S
C5095 H5085 0.929 . S
C5095 C5093 1.433 . S
C5095 N5098 1.384 . S
C5096 H5087 0.929 . S
C5096 C5088 1.378 . S
C5096 C5091 1.350 . S
C5097 H5084 0.929 . S
C5097 C5089 1.433 . S
C5097 N5099 1.384 . S
N5098 C5094 1.427 . S
N5098 C5095 1.384 . S
N5099 C5091 1.427 . S
N5099 C5097 1.384 . S
H5100 C5106 0.930 . S
H5101 C5110 0.930 . S
H5102 C5115 0.929 . S
H5103 C5113 0.929 . S
H5104 C5108 0.929 . S
H5105 C5114 0.929 . S
C5106 H5100 0.930 . S
C5106 C5107 1.367 . S
C5106 C5114 1.378 . S
C5107 C5106 1.367 . S
C5107 C5115 1.433 . S
C5108 H5104 0.929 . S
C5108 C5110 1.378 . S
C5108 C5112 1.350 . S
C5109 C5112 1.463 . S
C5109 C5114 1.350 . S
C5109 N5117 1.427 . S
C5110 H5101 0.930 . S
C5110 C5108 1.378 . S
C5110 C5111 1.367 . S
C5111 C5110 1.367 . S
C5111 C5113 1.433 . S
C5112 C5108 1.350 . S
C5112 C5109 1.463 . S
C5112 N5116 1.427 . S
C5113 H5103 0.929 . S
C5113 C5111 1.433 . S
C5113 N5116 1.384 . S
C5114 H5105 0.929 . S
C5114 C5106 1.378 . S
C5114 C5109 1.350 . S
C5115 H5102 0.929 . S
C5115 C5107 1.433 . S
C5115 N5117 1.384 . S
N5116 C5112 1.427 . S
N5116 C5113 1.384 . S
N5117 C5109 1.427 . S
N5117 C5115 1.384 . S
H5118 C5124 0.930 . S
H5119 C5128 0.930 . S
H5120 C5133 0.929 . S
H5121 C5131 0.929 . S
H5122 C5126 0.929 . S
H5123 C5132 0.929 . S
C5124 H5118 0.930 . S
C5124 C5125 1.367 . S
C5124 C5132 1.378 . S
C5125 C5124 1.367 . S
C5125 C5133 1.433 . S
C5126 H5122 0.929 . S
C5126 C5128 1.378 . S
C5126 C5130 1.350 . S
C5127 C5130 1.463 . S
C5127 C5132 1.350 . S
C5127 N5135 1.427 . S
C5128 H5119 0.930 . S
C5128 C5126 1.378 . S
C5128 C5129 1.367 . S
C5129 C5128 1.367 . S
C5129 C5131 1.433 . S
C5130 C5126 1.350 . S
C5130 C5127 1.463 . S
C5130 N5134 1.427 . S
C5131 H5121 0.929 . S
C5131 C5129 1.433 . S
C5131 N5134 1.384 . S
C5132 H5123 0.929 . S
C5132 C5124 1.378 . S
C5132 C5127 1.350 . S
C5133 H5120 0.929 . S
C5133 C5125 1.433 . S
C5133 N5135 1.384 . S
N5134 C5130 1.427 . S
N5134 C5131 1.384 . S
N5135 C5127 1.427 . S
N5135 C5133 1.384 . S
H5136 C5142 0.930 . S
H5137 C5146 0.930 . S
H5138 C5151 0.929 . S
H5139 C5149 0.929 . S
H5140 C5144 0.929 . S
H5141 C5150 0.929 . S
C5142 H5136 0.930 . S
C5142 C5143 1.367 . S
C5142 C5150 1.378 . S
C5143 C5142 1.367 . S
C5143 C5151 1.433 . S
C5144 H5140 0.929 . S
C5144 C5146 1.378 . S
C5144 C5148 1.350 . S
C5145 C5148 1.463 . S
C5145 C5150 1.350 . S
C5145 N5153 1.427 . S
C5146 H5137 0.930 . S
C5146 C5144 1.378 . S
C5146 C5147 1.367 . S
C5147 C5146 1.367 . S
C5147 C5149 1.433 . S
C5148 C5144 1.350 . S
C5148 C5145 1.463 . S
C5148 N5152 1.427 . S
C5149 H5139 0.929 . S
C5149 C5147 1.433 . S
C5149 N5152 1.384 . S
C5150 H5141 0.929 . S
C5150 C5142 1.378 . S
C5150 C5145 1.350 . S
C5151 H5138 0.929 . S
C5151 C5143 1.433 . S
C5151 N5153 1.384 . S
N5152 C5148 1.427 . S
N5152 C5149 1.384 . S
N5153 C5145 1.427 . S
N5153 C5151 1.384 . S
H5154 C5160 0.930 . S
H5155 C5164 0.930 . S
H5156 C5169 0.929 . S
H5157 C5167 0.929 . S
H5158 C5162 0.929 . S
H5159 C5168 0.929 . S
C5160 H5154 0.930 . S
C5160 C5161 1.367 . S
C5160 C5168 1.378 . S
C5161 C5160 1.367 . S
C5161 C5169 1.433 . S
C5162 H5158 0.929 . S
C5162 C5164 1.378 . S
C5162 C5166 1.350 . S
C5163 C5166 1.463 . S
C5163 C5168 1.350 . S
C5163 N5171 1.427 . S
C5164 H5155 0.930 . S
C5164 C5162 1.378 . S
C5164 C5165 1.367 . S
C5165 C5164 1.367 . S
C5165 C5167 1.433 . S
C5166 C5162 1.350 . S
C5166 C5163 1.463 . S
C5166 N5170 1.427 . S
C5167 H5157 0.929 . S
C5167 C5165 1.433 . S
C5167 N5170 1.384 . S
C5168 H5159 0.929 . S
C5168 C5160 1.378 . S
C5168 C5163 1.350 . S
C5169 H5156 0.929 . S
C5169 C5161 1.433 . S
C5169 N5171 1.384 . S
N5170 C5166 1.427 . S
N5170 C5167 1.384 . S
N5171 C5163 1.427 . S
N5171 C5169 1.384 . S
H5172 C5178 0.930 . S
H5173 C5182 0.930 . S
H5174 C5187 0.929 . S
H5175 C5185 0.929 . S
H5176 C5180 0.929 . S
H5177 C5186 0.929 . S
C5178 H5172 0.930 . S
C5178 C5179 1.367 . S
C5178 C5186 1.378 . S
C5179 C5178 1.367 . S
C5179 C5187 1.433 . S
C5180 H5176 0.929 . S
C5180 C5182 1.378 . S
C5180 C5184 1.350 . S
C5181 C5184 1.463 . S
C5181 C5186 1.350 . S
C5181 N5189 1.427 . S
C5182 H5173 0.930 . S
C5182 C5180 1.378 . S
C5182 C5183 1.367 . S
C5183 C5182 1.367 . S
C5183 C5185 1.433 . S
C5184 C5180 1.350 . S
C5184 C5181 1.463 . S
C5184 N5188 1.427 . S
C5185 H5175 0.929 . S
C5185 C5183 1.433 . S
C5185 N5188 1.384 . S
C5186 H5177 0.929 . S
C5186 C5178 1.378 . S
C5186 C5181 1.350 . S
C5187 H5174 0.929 . S
C5187 C5179 1.433 . S
C5187 N5189 1.384 . S
N5188 C5184 1.427 . S
N5188 C5185 1.384 . S
N5189 C5181 1.427 . S
N5189 C5187 1.384 . S
H5190 C5196 0.930 . S
H5191 C5200 0.930 . S
H5192 C5205 0.929 . S
H5193 C5203 0.929 . S
H5194 C5198 0.929 . S
H5195 C5204 0.929 . S
C5196 H5190 0.930 . S
C5196 C5197 1.367 . S
C5196 C5204 1.378 . S
C5197 C5196 1.367 . S
C5197 C5205 1.433 . S
C5198 H5194 0.929 . S
C5198 C5200 1.378 . S
C5198 C5202 1.350 . S
C5199 C5202 1.463 . S
C5199 C5204 1.350 . S
C5199 N5207 1.427 . S
C5200 H5191 0.930 . S
C5200 C5198 1.378 . S
C5200 C5201 1.367 . S
C5201 C5200 1.367 . S
C5201 C5203 1.433 . S
C5202 C5198 1.350 . S
C5202 C5199 1.463 . S
C5202 N5206 1.427 . S
C5203 H5193 0.929 . S
C5203 C5201 1.433 . S
C5203 N5206 1.384 . S
C5204 H5195 0.929 . S
C5204 C5196 1.378 . S
C5204 C5199 1.350 . S
C5205 H5192 0.929 . S
C5205 C5197 1.433 . S
C5205 N5207 1.384 . S
N5206 C5202 1.427 . S
N5206 C5203 1.384 . S
N5207 C5199 1.427 . S
N5207 C5205 1.384 . S
H5208 C5214 0.930 . S
H5209 C5218 0.930 . S
H5210 C5223 0.929 . S
H5211 C5221 0.929 . S
H5212 C5216 0.929 . S
H5213 C5222 0.929 . S
C5214 H5208 0.930 . S
C5214 C5215 1.367 . S
C5214 C5222 1.378 . S
C5215 C5214 1.367 . S
C5215 C5223 1.433 . S
C5216 H5212 0.929 . S
C5216 C5218 1.378 . S
C5216 C5220 1.350 . S
C5217 C5220 1.463 . S
C5217 C5222 1.350 . S
C5217 N5225 1.427 . S
C5218 H5209 0.930 . S
C5218 C5216 1.378 . S
C5218 C5219 1.367 . S
C5219 C5218 1.367 . S
C5219 C5221 1.433 . S
C5220 C5216 1.350 . S
C5220 C5217 1.463 . S
C5220 N5224 1.427 . S
C5221 H5211 0.929 . S
C5221 C5219 1.433 . S
C5221 N5224 1.384 . S
C5222 H5213 0.929 . S
C5222 C5214 1.378 . S
C5222 C5217 1.350 . S
C5223 H5210 0.929 . S
C5223 C5215 1.433 . S
C5223 N5225 1.384 . S
N5224 C5220 1.427 . S
N5224 C5221 1.384 . S
N5225 C5217 1.427 . S
N5225 C5223 1.384 . S
H5226 C5232 0.930 . S
H5227 C5236 0.930 . S
H5228 C5241 0.929 . S
H5229 C5239 0.929 . S
H5230 C5234 0.929 . S
H5231 C5240 0.929 . S
C5232 H5226 0.930 . S
C5232 C5233 1.367 . S
C5232 C5240 1.378 . S
C5233 C5232 1.367 . S
C5233 C5241 1.433 . S
C5234 H5230 0.929 . S
C5234 C5236 1.378 . S
C5234 C5238 1.350 . S
C5235 C5238 1.463 . S
C5235 C5240 1.350 . S
C5235 N5243 1.427 . S
C5236 H5227 0.930 . S
C5236 C5234 1.378 . S
C5236 C5237 1.367 . S
C5237 C5236 1.367 . S
C5237 C5239 1.433 . S
C5238 C5234 1.350 . S
C5238 C5235 1.463 . S
C5238 N5242 1.427 . S
C5239 H5229 0.929 . S
C5239 C5237 1.433 . S
C5239 N5242 1.384 . S
C5240 H5231 0.929 . S
C5240 C5232 1.378 . S
C5240 C5235 1.350 . S
C5241 H5228 0.929 . S
C5241 C5233 1.433 . S
C5241 N5243 1.384 . S
N5242 C5238 1.427 . S
N5242 C5239 1.384 . S
N5243 C5235 1.427 . S
N5243 C5241 1.384 . S
H5244 C5250 0.930 . S
H5245 C5254 0.930 . S
H5246 C5259 0.929 . S
H5247 C5257 0.929 . S
H5248 C5252 0.929 . S
H5249 C5258 0.929 . S
C5250 H5244 0.930 . S
C5250 C5251 1.367 . S
C5250 C5258 1.378 . S
C5251 C5250 1.367 . S
C5251 C5259 1.433 . S
C5252 H5248 0.929 . S
C5252 C5254 1.378 . S
C5252 C5256 1.350 . S
C5253 C5256 1.463 . S
C5253 C5258 1.350 . S
C5253 N5261 1.427 . S
C5254 H5245 0.930 . S
C5254 C5252 1.378 . S
C5254 C5255 1.367 . S
C5255 C5254 1.367 . S
C5255 C5257 1.433 . S
C5256 C5252 1.350 . S
C5256 C5253 1.463 . S
C5256 N5260 1.427 . S
C5257 H5247 0.929 . S
C5257 C5255 1.433 . S
C5257 N5260 1.384 . S
C5258 H5249 0.929 . S
C5258 C5250 1.378 . S
C5258 C5253 1.350 . S
C5259 H5246 0.929 . S
C5259 C5251 1.433 . S
C5259 N5261 1.384 . S
N5260 C5256 1.427 . S
N5260 C5257 1.384 . S
N5261 C5253 1.427 . S
N5261 C5259 1.384 . S
H5262 C5268 0.930 . S
H5263 C5272 0.930 . S
H5264 C5277 0.929 . S
H5265 C5275 0.929 . S
H5266 C5270 0.929 . S
H5267 C5276 0.929 . S
C5268 H5262 0.930 . S
C5268 C5269 1.367 . S
C5268 C5276 1.378 . S
C5269 C5268 1.367 . S
C5269 C5277 1.433 . S
C5270 H5266 0.929 . S
C5270 C5272 1.378 . S
C5270 C5274 1.350 . S
C5271 C5274 1.463 . S
C5271 C5276 1.350 . S
C5271 N5279 1.427 . S
C5272 H5263 0.930 . S
C5272 C5270 1.378 . S
C5272 C5273 1.367 . S
C5273 C5272 1.367 . S
C5273 C5275 1.433 . S
C5274 C5270 1.350 . S
C5274 C5271 1.463 . S
C5274 N5278 1.427 . S
C5275 H5265 0.929 . S
C5275 C5273 1.433 . S
C5275 N5278 1.384 . S
C5276 H5267 0.929 . S
C5276 C5268 1.378 . S
C5276 C5271 1.350 . S
C5277 H5264 0.929 . S
C5277 C5269 1.433 . S
C5277 N5279 1.384 . S
N5278 C5274 1.427 . S
N5278 C5275 1.384 . S
N5279 C5271 1.427 . S
N5279 C5277 1.384 . S
H5280 C5286 0.930 . S
H5281 C5290 0.930 . S
H5282 C5295 0.929 . S
H5283 C5293 0.929 . S
H5284 C5288 0.929 . S
H5285 C5294 0.929 . S
C5286 H5280 0.930 . S
C5286 C5287 1.367 . S
C5286 C5294 1.378 . S
C5287 C5286 1.367 . S
C5287 C5295 1.433 . S
C5288 H5284 0.929 . S
C5288 C5290 1.378 . S
C5288 C5292 1.350 . S
C5289 C5292 1.463 . S
C5289 C5294 1.350 . S
C5289 N5297 1.427 . S
C5290 H5281 0.930 . S
C5290 C5288 1.378 . S
C5290 C5291 1.367 . S
C5291 C5290 1.367 . S
C5291 C5293 1.433 . S
C5292 C5288 1.350 . S
C5292 C5289 1.463 . S
C5292 N5296 1.427 . S
C5293 H5283 0.929 . S
C5293 C5291 1.433 . S
C5293 N5296 1.384 . S
C5294 H5285 0.929 . S
C5294 C5286 1.378 . S
C5294 C5289 1.350 . S
C5295 H5282 0.929 . S
C5295 C5287 1.433 . S
C5295 N5297 1.384 . S
N5296 C5292 1.427 . S
N5296 C5293 1.384 . S
N5297 C5289 1.427 . S
N5297 C5295 1.384 . S
H5298 C5304 0.930 . S
H5299 C5308 0.930 . S
H5300 C5313 0.929 . S
H5301 C5311 0.929 . S
H5302 C5306 0.929 . S
H5303 C5312 0.929 . S
C5304 H5298 0.930 . S
C5304 C5305 1.367 . S
C5304 C5312 1.378 . S
C5305 C5304 1.367 . S
C5305 C5313 1.433 . S
C5306 H5302 0.929 . S
C5306 C5308 1.378 . S
C5306 C5310 1.350 . S
C5307 C5310 1.463 . S
C5307 C5312 1.350 . S
C5307 N5315 1.427 . S
C5308 H5299 0.930 . S
C5308 C5306 1.378 . S
C5308 C5309 1.367 . S
C5309 C5308 1.367 . S
C5309 C5311 1.433 . S
C5310 C5306 1.350 . S
C5310 C5307 1.463 . S
C5310 N5314 1.427 . S
C5311 H5301 0.929 . S
C5311 C5309 1.433 . S
C5311 N5314 1.384 . S
C5312 H5303 0.929 . S
C5312 C5304 1.378 . S
C5312 C5307 1.350 . S
C5313 H5300 0.929 . S
C5313 C5305 1.433 . S
C5313 N5315 1.384 . S
N5314 C5310 1.427 . S
N5314 C5311 1.384 . S
N5315 C5307 1.427 . S
N5315 C5313 1.384 . S
H5316 C5322 0.930 . S
H5317 C5326 0.930 . S
H5318 C5331 0.929 . S
H5319 C5329 0.929 . S
H5320 C5324 0.929 . S
H5321 C5330 0.929 . S
C5322 H5316 0.930 . S
C5322 C5323 1.367 . S
C5322 C5330 1.378 . S
C5323 C5322 1.367 . S
C5323 C5331 1.433 . S
C5324 H5320 0.929 . S
C5324 C5326 1.378 . S
C5324 C5328 1.350 . S
C5325 C5328 1.463 . S
C5325 C5330 1.350 . S
C5325 N5333 1.427 . S
C5326 H5317 0.930 . S
C5326 C5324 1.378 . S
C5326 C5327 1.367 . S
C5327 C5326 1.367 . S
C5327 C5329 1.433 . S
C5328 C5324 1.350 . S
C5328 C5325 1.463 . S
C5328 N5332 1.427 . S
C5329 H5319 0.929 . S
C5329 C5327 1.433 . S
C5329 N5332 1.384 . S
C5330 H5321 0.929 . S
C5330 C5322 1.378 . S
C5330 C5325 1.350 . S
C5331 H5318 0.929 . S
C5331 C5323 1.433 . S
C5331 N5333 1.384 . S
N5332 C5328 1.427 . S
N5332 C5329 1.384 . S
N5333 C5325 1.427 . S
N5333 C5331 1.384 . S
H5334 C5340 0.930 . S
H5335 C5344 0.930 . S
H5336 C5349 0.929 . S
H5337 C5347 0.929 . S
H5338 C5342 0.929 . S
H5339 C5348 0.929 . S
C5340 H5334 0.930 . S
C5340 C5341 1.367 . S
C5340 C5348 1.378 . S
C5341 C5340 1.367 . S
C5341 C5349 1.433 . S
C5342 H5338 0.929 . S
C5342 C5344 1.378 . S
C5342 C5346 1.350 . S
C5343 C5346 1.463 . S
C5343 C5348 1.350 . S
C5343 N5351 1.427 . S
C5344 H5335 0.930 . S
C5344 C5342 1.378 . S
C5344 C5345 1.367 . S
C5345 C5344 1.367 . S
C5345 C5347 1.433 . S
C5346 C5342 1.350 . S
C5346 C5343 1.463 . S
C5346 N5350 1.427 . S
C5347 H5337 0.929 . S
C5347 C5345 1.433 . S
C5347 N5350 1.384 . S
C5348 H5339 0.929 . S
C5348 C5340 1.378 . S
C5348 C5343 1.350 . S
C5349 H5336 0.929 . S
C5349 C5341 1.433 . S
C5349 N5351 1.384 . S
N5350 C5346 1.427 . S
N5350 C5347 1.384 . S
N5351 C5343 1.427 . S
N5351 C5349 1.384 . S
H5352 C5358 0.930 . S
H5353 C5362 0.930 . S
H5354 C5367 0.929 . S
H5355 C5365 0.929 . S
H5356 C5360 0.929 . S
H5357 C5366 0.929 . S
C5358 H5352 0.930 . S
C5358 C5359 1.367 . S
C5358 C5366 1.378 . S
C5359 C5358 1.367 . S
C5359 C5367 1.433 . S
C5360 H5356 0.929 . S
C5360 C5362 1.378 . S
C5360 C5364 1.350 . S
C5361 C5364 1.463 . S
C5361 C5366 1.350 . S
C5361 N5369 1.427 . S
C5362 H5353 0.930 . S
C5362 C5360 1.378 . S
C5362 C5363 1.367 . S
C5363 C5362 1.367 . S
C5363 C5365 1.433 . S
C5364 C5360 1.350 . S
C5364 C5361 1.463 . S
C5364 N5368 1.427 . S
C5365 H5355 0.929 . S
C5365 C5363 1.433 . S
C5365 N5368 1.384 . S
C5366 H5357 0.929 . S
C5366 C5358 1.378 . S
C5366 C5361 1.350 . S
C5367 H5354 0.929 . S
C5367 C5359 1.433 . S
C5367 N5369 1.384 . S
N5368 C5364 1.427 . S
N5368 C5365 1.384 . S
N5369 C5361 1.427 . S
N5369 C5367 1.384 . S
H5370 C5376 0.930 . S
H5371 C5380 0.930 . S
H5372 C5385 0.929 . S
H5373 C5383 0.929 . S
H5374 C5378 0.929 . S
H5375 C5384 0.929 . S
C5376 H5370 0.930 . S
C5376 C5377 1.367 . S
C5376 C5384 1.378 . S
C5377 C5376 1.367 . S
C5377 C5385 1.433 . S
C5378 H5374 0.929 . S
C5378 C5380 1.378 . S
C5378 C5382 1.350 . S
C5379 C5382 1.463 . S
C5379 C5384 1.350 . S
C5379 N5387 1.427 . S
C5380 H5371 0.930 . S
C5380 C5378 1.378 . S
C5380 C5381 1.367 . S
C5381 C5380 1.367 . S
C5381 C5383 1.433 . S
C5382 C5378 1.350 . S
C5382 C5379 1.463 . S
C5382 N5386 1.427 . S
C5383 H5373 0.929 . S
C5383 C5381 1.433 . S
C5383 N5386 1.384 . S
C5384 H5375 0.929 . S
C5384 C5376 1.378 . S
C5384 C5379 1.350 . S
C5385 H5372 0.929 . S
C5385 C5377 1.433 . S
C5385 N5387 1.384 . S
N5386 C5382 1.427 . S
N5386 C5383 1.384 . S
N5387 C5379 1.427 . S
N5387 C5385 1.384 . S
H5388 C5394 0.930 . S
H5389 C5398 0.930 . S
H5390 C5403 0.929 . S
H5391 C5401 0.929 . S
H5392 C5396 0.929 . S
H5393 C5402 0.929 . S
C5394 H5388 0.930 . S
C5394 C5395 1.367 . S
C5394 C5402 1.378 . S
C5395 C5394 1.367 . S
C5395 C5403 1.433 . S
C5396 H5392 0.929 . S
C5396 C5398 1.378 . S
C5396 C5400 1.350 . S
C5397 C5400 1.463 . S
C5397 C5402 1.350 . S
C5397 N5405 1.427 . S
C5398 H5389 0.930 . S
C5398 C5396 1.378 . S
C5398 C5399 1.367 . S
C5399 C5398 1.367 . S
C5399 C5401 1.433 . S
C5400 C5396 1.350 . S
C5400 C5397 1.463 . S
C5400 N5404 1.427 . S
C5401 H5391 0.929 . S
C5401 C5399 1.433 . S
C5401 N5404 1.384 . S
C5402 H5393 0.929 . S
C5402 C5394 1.378 . S
C5402 C5397 1.350 . S
C5403 H5390 0.929 . S
C5403 C5395 1.433 . S
C5403 N5405 1.384 . S
N5404 C5400 1.427 . S
N5404 C5401 1.384 . S
N5405 C5397 1.427 . S
N5405 C5403 1.384 . S
H5406 C5412 0.930 . S
H5407 C5416 0.930 . S
H5408 C5421 0.929 . S
H5409 C5419 0.929 . S
H5410 C5414 0.929 . S
H5411 C5420 0.929 . S
C5412 H5406 0.930 . S
C5412 C5413 1.367 . S
C5412 C5420 1.378 . S
C5413 C5412 1.367 . S
C5413 C5421 1.433 . S
C5414 H5410 0.929 . S
C5414 C5416 1.378 . S
C5414 C5418 1.350 . S
C5415 C5418 1.463 . S
C5415 C5420 1.350 . S
C5415 N5423 1.427 . S
C5416 H5407 0.930 . S
C5416 C5414 1.378 . S
C5416 C5417 1.367 . S
C5417 C5416 1.367 . S
C5417 C5419 1.433 . S
C5418 C5414 1.350 . S
C5418 C5415 1.463 . S
C5418 N5422 1.427 . S
C5419 H5409 0.929 . S
C5419 C5417 1.433 . S
C5419 N5422 1.384 . S
C5420 H5411 0.929 . S
C5420 C5412 1.378 . S
C5420 C5415 1.350 . S
C5421 H5408 0.929 . S
C5421 C5413 1.433 . S
C5421 N5423 1.384 . S
N5422 C5418 1.427 . S
N5422 C5419 1.384 . S
N5423 C5415 1.427 . S
N5423 C5421 1.384 . S
H5424 C5430 0.930 . S
H5425 C5434 0.930 . S
H5426 C5439 0.929 . S
H5427 C5437 0.929 . S
H5428 C5432 0.929 . S
H5429 C5438 0.929 . S
C5430 H5424 0.930 . S
C5430 C5431 1.367 . S
C5430 C5438 1.378 . S
C5431 C5430 1.367 . S
C5431 C5439 1.433 . S
C5432 H5428 0.929 . S
C5432 C5434 1.378 . S
C5432 C5436 1.350 . S
C5433 C5436 1.463 . S
C5433 C5438 1.350 . S
C5433 N5441 1.427 . S
C5434 H5425 0.930 . S
C5434 C5432 1.378 . S
C5434 C5435 1.367 . S
C5435 C5434 1.367 . S
C5435 C5437 1.433 . S
C5436 C5432 1.350 . S
C5436 C5433 1.463 . S
C5436 N5440 1.427 . S
C5437 H5427 0.929 . S
C5437 C5435 1.433 . S
C5437 N5440 1.384 . S
C5438 H5429 0.929 . S
C5438 C5430 1.378 . S
C5438 C5433 1.350 . S
C5439 H5426 0.929 . S
C5439 C5431 1.433 . S
C5439 N5441 1.384 . S
N5440 C5436 1.427 . S
N5440 C5437 1.384 . S
N5441 C5433 1.427 . S
N5441 C5439 1.384 . S
H5442 C5448 0.930 . S
H5443 C5452 0.930 . S
H5444 C5457 0.929 . S
H5445 C5455 0.929 . S
H5446 C5450 0.929 . S
H5447 C5456 0.929 . S
C5448 H5442 0.930 . S
C5448 C5449 1.367 . S
C5448 C5456 1.378 . S
C5449 C5448 1.367 . S
C5449 C5457 1.433 . S
C5450 H5446 0.929 . S
C5450 C5452 1.378 . S
C5450 C5454 1.350 . S
C5451 C5454 1.463 . S
C5451 C5456 1.350 . S
C5451 N5459 1.427 . S
C5452 H5443 0.930 . S
C5452 C5450 1.378 . S
C5452 C5453 1.367 . S
C5453 C5452 1.367 . S
C5453 C5455 1.433 . S
C5454 C5450 1.350 . S
C5454 C5451 1.463 . S
C5454 N5458 1.427 . S
C5455 H5445 0.929 . S
C5455 C5453 1.433 . S
C5455 N5458 1.384 . S
C5456 H5447 0.929 . S
C5456 C5448 1.378 . S
C5456 C5451 1.350 . S
C5457 H5444 0.929 . S
C5457 C5449 1.433 . S
C5457 N5459 1.384 . S
N5458 C5454 1.427 . S
N5458 C5455 1.384 . S
N5459 C5451 1.427 . S
N5459 C5457 1.384 . S
H5460 C5466 0.930 . S
H5461 C5470 0.930 . S
H5462 C5475 0.929 . S
H5463 C5473 0.929 . S
H5464 C5468 0.929 . S
H5465 C5474 0.929 . S
C5466 H5460 0.930 . S
C5466 C5467 1.367 . S
C5466 C5474 1.378 . S
C5467 C5466 1.367 . S
C5467 C5475 1.433 . S
C5468 H5464 0.929 . S
C5468 C5470 1.378 . S
C5468 C5472 1.350 . S
C5469 C5472 1.463 . S
C5469 C5474 1.350 . S
C5469 N5477 1.427 . S
C5470 H5461 0.930 . S
C5470 C5468 1.378 . S
C5470 C5471 1.367 . S
C5471 C5470 1.367 . S
C5471 C5473 1.433 . S
C5472 C5468 1.350 . S
C5472 C5469 1.463 . S
C5472 N5476 1.427 . S
C5473 H5463 0.929 . S
C5473 C5471 1.433 . S
C5473 N5476 1.384 . S
C5474 H5465 0.929 . S
C5474 C5466 1.378 . S
C5474 C5469 1.350 . S
C5475 H5462 0.929 . S
C5475 C5467 1.433 . S
C5475 N5477 1.384 . S
N5476 C5472 1.427 . S
N5476 C5473 1.384 . S
N5477 C5469 1.427 . S
N5477 C5475 1.384 . S
H5478 C5484 0.930 . S
H5479 C5488 0.930 . S
H5480 C5493 0.929 . S
H5481 C5491 0.929 . S
H5482 C5486 0.929 . S
H5483 C5492 0.929 . S
C5484 H5478 0.930 . S
C5484 C5485 1.367 . S
C5484 C5492 1.378 . S
C5485 C5484 1.367 . S
C5485 C5493 1.433 . S
C5486 H5482 0.929 . S
C5486 C5488 1.378 . S
C5486 C5490 1.350 . S
C5487 C5490 1.463 . S
C5487 C5492 1.350 . S
C5487 N5495 1.427 . S
C5488 H5479 0.930 . S
C5488 C5486 1.378 . S
C5488 C5489 1.367 . S
C5489 C5488 1.367 . S
C5489 C5491 1.433 . S
C5490 C5486 1.350 . S
C5490 C5487 1.463 . S
C5490 N5494 1.427 . S
C5491 H5481 0.929 . S
C5491 C5489 1.433 . S
C5491 N5494 1.384 . S
C5492 H5483 0.929 . S
C5492 C5484 1.378 . S
C5492 C5487 1.350 . S
C5493 H5480 0.929 . S
C5493 C5485 1.433 . S
C5493 N5495 1.384 . S
N5494 C5490 1.427 . S
N5494 C5491 1.384 . S
N5495 C5487 1.427 . S
N5495 C5493 1.384 . S
H5496 C5502 0.930 . S
H5497 C5506 0.930 . S
H5498 C5511 0.929 . S
H5499 C5509 0.929 . S
H5500 C5504 0.929 . S
H5501 C5510 0.929 . S
C5502 H5496 0.930 . S
C5502 C5503 1.367 . S
C5502 C5510 1.378 . S
C5503 C5502 1.367 . S
C5503 C5511 1.433 . S
C5504 H5500 0.929 . S
C5504 C5506 1.378 . S
C5504 C5508 1.350 . S
C5505 C5508 1.463 . S
C5505 C5510 1.350 . S
C5505 N5513 1.427 . S
C5506 H5497 0.930 . S
C5506 C5504 1.378 . S
C5506 C5507 1.367 . S
C5507 C5506 1.367 . S
C5507 C5509 1.433 . S
C5508 C5504 1.350 . S
C5508 C5505 1.463 . S
C5508 N5512 1.427 . S
C5509 H5499 0.929 . S
C5509 C5507 1.433 . S
C5509 N5512 1.384 . S
C5510 H5501 0.929 . S
C5510 C5502 1.378 . S
C5510 C5505 1.350 . S
C5511 H5498 0.929 . S
C5511 C5503 1.433 . S
C5511 N5513 1.384 . S
N5512 C5508 1.427 . S
N5512 C5509 1.384 . S
N5513 C5505 1.427 . S
N5513 C5511 1.384 . S
H5514 C5520 0.930 . S
H5515 C5524 0.930 . S
H5516 C5529 0.929 . S
H5517 C5527 0.929 . S
H5518 C5522 0.929 . S
H5519 C5528 0.929 . S
C5520 H5514 0.930 . S
C5520 C5521 1.367 . S
C5520 C5528 1.378 . S
C5521 C5520 1.367 . S
C5521 C5529 1.433 . S
C5522 H5518 0.929 . S
C5522 C5524 1.378 . S
C5522 C5526 1.350 . S
C5523 C5526 1.463 . S
C5523 C5528 1.350 . S
C5523 N5531 1.427 . S
C5524 H5515 0.930 . S
C5524 C5522 1.378 . S
C5524 C5525 1.367 . S
C5525 C5524 1.367 . S
C5525 C5527 1.433 . S
C5526 C5522 1.350 . S
C5526 C5523 1.463 . S
C5526 N5530 1.427 . S
C5527 H5517 0.929 . S
C5527 C5525 1.433 . S
C5527 N5530 1.384 . S
C5528 H5519 0.929 . S
C5528 C5520 1.378 . S
C5528 C5523 1.350 . S
C5529 H5516 0.929 . S
C5529 C5521 1.433 . S
C5529 N5531 1.384 . S
N5530 C5526 1.427 . S
N5530 C5527 1.384 . S
N5531 C5523 1.427 . S
N5531 C5529 1.384 . S
H5532 C5538 0.930 . S
H5533 C5542 0.930 . S
H5534 C5547 0.929 . S
H5535 C5545 0.929 . S
H5536 C5540 0.929 . S
H5537 C5546 0.929 . S
C5538 H5532 0.930 . S
C5538 C5539 1.367 . S
C5538 C5546 1.378 . S
C5539 C5538 1.367 . S
C5539 C5547 1.433 . S
C5540 H5536 0.929 . S
C5540 C5542 1.378 . S
C5540 C5544 1.350 . S
C5541 C5544 1.463 . S
C5541 C5546 1.350 . S
C5541 N5549 1.427 . S
C5542 H5533 0.930 . S
C5542 C5540 1.378 . S
C5542 C5543 1.367 . S
C5543 C5542 1.367 . S
C5543 C5545 1.433 . S
C5544 C5540 1.350 . S
C5544 C5541 1.463 . S
C5544 N5548 1.427 . S
C5545 H5535 0.929 . S
C5545 C5543 1.433 . S
C5545 N5548 1.384 . S
C5546 H5537 0.929 . S
C5546 C5538 1.378 . S
C5546 C5541 1.350 . S
C5547 H5534 0.929 . S
C5547 C5539 1.433 . S
C5547 N5549 1.384 . S
N5548 C5544 1.427 . S
N5548 C5545 1.384 . S
N5549 C5541 1.427 . S
N5549 C5547 1.384 . S
H5550 C5556 0.930 . S
H5551 C5560 0.930 . S
H5552 C5565 0.929 . S
H5553 C5563 0.929 . S
H5554 C5558 0.929 . S
H5555 C5564 0.929 . S
C5556 H5550 0.930 . S
C5556 C5557 1.367 . S
C5556 C5564 1.378 . S
C5557 C5556 1.367 . S
C5557 C5565 1.433 . S
C5558 H5554 0.929 . S
C5558 C5560 1.378 . S
C5558 C5562 1.350 . S
C5559 C5562 1.463 . S
C5559 C5564 1.350 . S
C5559 N5567 1.427 . S
C5560 H5551 0.930 . S
C5560 C5558 1.378 . S
C5560 C5561 1.367 . S
C5561 C5560 1.367 . S
C5561 C5563 1.433 . S
C5562 C5558 1.350 . S
C5562 C5559 1.463 . S
C5562 N5566 1.427 . S
C5563 H5553 0.929 . S
C5563 C5561 1.433 . S
C5563 N5566 1.384 . S
C5564 H5555 0.929 . S
C5564 C5556 1.378 . S
C5564 C5559 1.350 . S
C5565 H5552 0.929 . S
C5565 C5557 1.433 . S
C5565 N5567 1.384 . S
N5566 C5562 1.427 . S
N5566 C5563 1.384 . S
N5567 C5559 1.427 . S
N5567 C5565 1.384 . S
H5568 C5574 0.930 . S
H5569 C5578 0.930 . S
H5570 C5583 0.929 . S
H5571 C5581 0.929 . S
H5572 C5576 0.929 . S
H5573 C5582 0.929 . S
C5574 H5568 0.930 . S
C5574 C5575 1.367 . S
C5574 C5582 1.378 . S
C5575 C5574 1.367 . S
C5575 C5583 1.433 . S
C5576 H5572 0.929 . S
C5576 C5578 1.378 . S
C5576 C5580 1.350 . S
C5577 C5580 1.463 . S
C5577 C5582 1.350 . S
C5577 N5585 1.427 . S
C5578 H5569 0.930 . S
C5578 C5576 1.378 . S
C5578 C5579 1.367 . S
C5579 C5578 1.367 . S
C5579 C5581 1.433 . S
C5580 C5576 1.350 . S
C5580 C5577 1.463 . S
C5580 N5584 1.427 . S
C5581 H5571 0.929 . S
C5581 C5579 1.433 . S
C5581 N5584 1.384 . S
C5582 H5573 0.929 . S
C5582 C5574 1.378 . S
C5582 C5577 1.350 . S
C5583 H5570 0.929 . S
C5583 C5575 1.433 . S
C5583 N5585 1.384 . S
N5584 C5580 1.427 . S
N5584 C5581 1.384 . S
N5585 C5577 1.427 . S
N5585 C5583 1.384 . S
H5586 C5592 0.930 . S
H5587 C5596 0.930 . S
H5588 C5601 0.929 . S
H5589 C5599 0.929 . S
H5590 C5594 0.929 . S
H5591 C5600 0.929 . S
C5592 H5586 0.930 . S
C5592 C5593 1.367 . S
C5592 C5600 1.378 . S
C5593 C5592 1.367 . S
C5593 C5601 1.433 . S
C5594 H5590 0.929 . S
C5594 C5596 1.378 . S
C5594 C5598 1.350 . S
C5595 C5598 1.463 . S
C5595 C5600 1.350 . S
C5595 N5603 1.427 . S
C5596 H5587 0.930 . S
C5596 C5594 1.378 . S
C5596 C5597 1.367 . S
C5597 C5596 1.367 . S
C5597 C5599 1.433 . S
C5598 C5594 1.350 . S
C5598 C5595 1.463 . S
C5598 N5602 1.427 . S
C5599 H5589 0.929 . S
C5599 C5597 1.433 . S
C5599 N5602 1.384 . S
C5600 H5591 0.929 . S
C5600 C5592 1.378 . S
C5600 C5595 1.350 . S
C5601 H5588 0.929 . S
C5601 C5593 1.433 . S
C5601 N5603 1.384 . S
N5602 C5598 1.427 . S
N5602 C5599 1.384 . S
N5603 C5595 1.427 . S
N5603 C5601 1.384 . S
H5604 C5610 0.930 . S
H5605 C5614 0.930 . S
H5606 C5619 0.929 . S
H5607 C5617 0.929 . S
H5608 C5612 0.929 . S
H5609 C5618 0.929 . S
C5610 H5604 0.930 . S
C5610 C5611 1.367 . S
C5610 C5618 1.378 . S
C5611 C5610 1.367 . S
C5611 C5619 1.433 . S
C5612 H5608 0.929 . S
C5612 C5614 1.378 . S
C5612 C5616 1.350 . S
C5613 C5616 1.463 . S
C5613 C5618 1.350 . S
C5613 N5621 1.427 . S
C5614 H5605 0.930 . S
C5614 C5612 1.378 . S
C5614 C5615 1.367 . S
C5615 C5614 1.367 . S
C5615 C5617 1.433 . S
C5616 C5612 1.350 . S
C5616 C5613 1.463 . S
C5616 N5620 1.427 . S
C5617 H5607 0.929 . S
C5617 C5615 1.433 . S
C5617 N5620 1.384 . S
C5618 H5609 0.929 . S
C5618 C5610 1.378 . S
C5618 C5613 1.350 . S
C5619 H5606 0.929 . S
C5619 C5611 1.433 . S
C5619 N5621 1.384 . S
N5620 C5616 1.427 . S
N5620 C5617 1.384 . S
N5621 C5613 1.427 . S
N5621 C5619 1.384 . S
H5622 C5628 0.930 . S
H5623 C5632 0.930 . S
H5624 C5637 0.929 . S
H5625 C5635 0.929 . S
H5626 C5630 0.929 . S
H5627 C5636 0.929 . S
C5628 H5622 0.930 . S
C5628 C5629 1.367 . S
C5628 C5636 1.378 . S
C5629 C5628 1.367 . S
C5629 C5637 1.433 . S
C5630 H5626 0.929 . S
C5630 C5632 1.378 . S
C5630 C5634 1.350 . S
C5631 C5634 1.463 . S
C5631 C5636 1.350 . S
C5631 N5639 1.427 . S
C5632 H5623 0.930 . S
C5632 C5630 1.378 . S
C5632 C5633 1.367 . S
C5633 C5632 1.367 . S
C5633 C5635 1.433 . S
C5634 C5630 1.350 . S
C5634 C5631 1.463 . S
C5634 N5638 1.427 . S
C5635 H5625 0.929 . S
C5635 C5633 1.433 . S
C5635 N5638 1.384 . S
C5636 H5627 0.929 . S
C5636 C5628 1.378 . S
C5636 C5631 1.350 . S
C5637 H5624 0.929 . S
C5637 C5629 1.433 . S
C5637 N5639 1.384 . S
N5638 C5634 1.427 . S
N5638 C5635 1.384 . S
N5639 C5631 1.427 . S
N5639 C5637 1.384 . S
H5640 C5646 0.930 . S
H5641 C5650 0.930 . S
H5642 C5655 0.929 . S
H5643 C5653 0.929 . S
H5644 C5648 0.929 . S
H5645 C5654 0.929 . S
C5646 H5640 0.930 . S
C5646 C5647 1.367 . S
C5646 C5654 1.378 . S
C5647 C5646 1.367 . S
C5647 C5655 1.433 . S
C5648 H5644 0.929 . S
C5648 C5650 1.378 . S
C5648 C5652 1.350 . S
C5649 C5652 1.463 . S
C5649 C5654 1.350 . S
C5649 N5657 1.427 . S
C5650 H5641 0.930 . S
C5650 C5648 1.378 . S
C5650 C5651 1.367 . S
C5651 C5650 1.367 . S
C5651 C5653 1.433 . S
C5652 C5648 1.350 . S
C5652 C5649 1.463 . S
C5652 N5656 1.427 . S
C5653 H5643 0.929 . S
C5653 C5651 1.433 . S
C5653 N5656 1.384 . S
C5654 H5645 0.929 . S
C5654 C5646 1.378 . S
C5654 C5649 1.350 . S
C5655 H5642 0.929 . S
C5655 C5647 1.433 . S
C5655 N5657 1.384 . S
N5656 C5652 1.427 . S
N5656 C5653 1.384 . S
N5657 C5649 1.427 . S
N5657 C5655 1.384 . S
H5658 C5664 0.930 . S
H5659 C5668 0.930 . S
H5660 C5673 0.929 . S
H5661 C5671 0.929 . S
H5662 C5666 0.929 . S
H5663 C5672 0.929 . S
C5664 H5658 0.930 . S
C5664 C5665 1.367 . S
C5664 C5672 1.378 . S
C5665 C5664 1.367 . S
C5665 C5673 1.433 . S
C5666 H5662 0.929 . S
C5666 C5668 1.378 . S
C5666 C5670 1.350 . S
C5667 C5670 1.463 . S
C5667 C5672 1.350 . S
C5667 N5675 1.427 . S
C5668 H5659 0.930 . S
C5668 C5666 1.378 . S
C5668 C5669 1.367 . S
C5669 C5668 1.367 . S
C5669 C5671 1.433 . S
C5670 C5666 1.350 . S
C5670 C5667 1.463 . S
C5670 N5674 1.427 . S
C5671 H5661 0.929 . S
C5671 C5669 1.433 . S
C5671 N5674 1.384 . S
C5672 H5663 0.929 . S
C5672 C5664 1.378 . S
C5672 C5667 1.350 . S
C5673 H5660 0.929 . S
C5673 C5665 1.433 . S
C5673 N5675 1.384 . S
N5674 C5670 1.427 . S
N5674 C5671 1.384 . S
N5675 C5667 1.427 . S
N5675 C5673 1.384 . S
H5676 C5682 0.930 . S
H5677 C5686 0.930 . S
H5678 C5691 0.929 . S
H5679 C5689 0.929 . S
H5680 C5684 0.929 . S
H5681 C5690 0.929 . S
C5682 H5676 0.930 . S
C5682 C5683 1.367 . S
C5682 C5690 1.378 . S
C5683 C5682 1.367 . S
C5683 C5691 1.433 . S
C5684 H5680 0.929 . S
C5684 C5686 1.378 . S
C5684 C5688 1.350 . S
C5685 C5688 1.463 . S
C5685 C5690 1.350 . S
C5685 N5693 1.427 . S
C5686 H5677 0.930 . S
C5686 C5684 1.378 . S
C5686 C5687 1.367 . S
C5687 C5686 1.367 . S
C5687 C5689 1.433 . S
C5688 C5684 1.350 . S
C5688 C5685 1.463 . S
C5688 N5692 1.427 . S
C5689 H5679 0.929 . S
C5689 C5687 1.433 . S
C5689 N5692 1.384 . S
C5690 H5681 0.929 . S
C5690 C5682 1.378 . S
C5690 C5685 1.350 . S
C5691 H5678 0.929 . S
C5691 C5683 1.433 . S
C5691 N5693 1.384 . S
N5692 C5688 1.427 . S
N5692 C5689 1.384 . S
N5693 C5685 1.427 . S
N5693 C5691 1.384 . S
H5694 C5700 0.930 . S
H5695 C5704 0.930 . S
H5696 C5709 0.929 . S
H5697 C5707 0.929 . S
H5698 C5702 0.929 . S
H5699 C5708 0.929 . S
C5700 H5694 0.930 . S
C5700 C5701 1.367 . S
C5700 C5708 1.378 . S
C5701 C5700 1.367 . S
C5701 C5709 1.433 . S
C5702 H5698 0.929 . S
C5702 C5704 1.378 . S
C5702 C5706 1.350 . S
C5703 C5706 1.463 . S
C5703 C5708 1.350 . S
C5703 N5711 1.427 . S
C5704 H5695 0.930 . S
C5704 C5702 1.378 . S
C5704 C5705 1.367 . S
C5705 C5704 1.367 . S
C5705 C5707 1.433 . S
C5706 C5702 1.350 . S
C5706 C5703 1.463 . S
C5706 N5710 1.427 . S
C5707 H5697 0.929 . S
C5707 C5705 1.433 . S
C5707 N5710 1.384 . S
C5708 H5699 0.929 . S
C5708 C5700 1.378 . S
C5708 C5703 1.350 . S
C5709 H5696 0.929 . S
C5709 C5701 1.433 . S
C5709 N5711 1.384 . S
N5710 C5706 1.427 . S
N5710 C5707 1.384 . S
N5711 C5703 1.427 . S
N5711 C5709 1.384 . S
H5712 C5718 0.930 . S
H5713 C5722 0.930 . S
H5714 C5727 0.929 . S
H5715 C5725 0.929 . S
H5716 C5720 0.929 . S
H5717 C5726 0.929 . S
C5718 H5712 0.930 . S
C5718 C5719 1.367 . S
C5718 C5726 1.378 . S
C5719 C5718 1.367 . S
C5719 C5727 1.433 . S
C5720 H5716 0.929 . S
C5720 C5722 1.378 . S
C5720 C5724 1.350 . S
C5721 C5724 1.463 . S
C5721 C5726 1.350 . S
C5721 N5729 1.427 . S
C5722 H5713 0.930 . S
C5722 C5720 1.378 . S
C5722 C5723 1.367 . S
C5723 C5722 1.367 . S
C5723 C5725 1.433 . S
C5724 C5720 1.350 . S
C5724 C5721 1.463 . S
C5724 N5728 1.427 . S
C5725 H5715 0.929 . S
C5725 C5723 1.433 . S
C5725 N5728 1.384 . S
C5726 H5717 0.929 . S
C5726 C5718 1.378 . S
C5726 C5721 1.350 . S
C5727 H5714 0.929 . S
C5727 C5719 1.433 . S
C5727 N5729 1.384 . S
N5728 C5724 1.427 . S
N5728 C5725 1.384 . S
N5729 C5721 1.427 . S
N5729 C5727 1.384 . S
H5730 C5736 0.930 . S
H5731 C5740 0.930 . S
H5732 C5745 0.929 . S
H5733 C5743 0.929 . S
H5734 C5738 0.929 . S
H5735 C5744 0.929 . S
C5736 H5730 0.930 . S
C5736 C5737 1.367 . S
C5736 C5744 1.378 . S
C5737 C5736 1.367 . S
C5737 C5745 1.433 . S
C5738 H5734 0.929 . S
C5738 C5740 1.378 . S
C5738 C5742 1.350 . S
C5739 C5742 1.463 . S
C5739 C5744 1.350 . S
C5739 N5747 1.427 . S
C5740 H5731 0.930 . S
C5740 C5738 1.378 . S
C5740 C5741 1.367 . S
C5741 C5740 1.367 . S
C5741 C5743 1.433 . S
C5742 C5738 1.350 . S
C5742 C5739 1.463 . S
C5742 N5746 1.427 . S
C5743 H5733 0.929 . S
C5743 C5741 1.433 . S
C5743 N5746 1.384 . S
C5744 H5735 0.929 . S
C5744 C5736 1.378 . S
C5744 C5739 1.350 . S
C5745 H5732 0.929 . S
C5745 C5737 1.433 . S
C5745 N5747 1.384 . S
N5746 C5742 1.427 . S
N5746 C5743 1.384 . S
N5747 C5739 1.427 . S
N5747 C5745 1.384 . S
H5748 C5754 0.930 . S
H5749 C5758 0.930 . S
H5750 C5763 0.929 . S
H5751 C5761 0.929 . S
H5752 C5756 0.929 . S
H5753 C5762 0.929 . S
C5754 H5748 0.930 . S
C5754 C5755 1.367 . S
C5754 C5762 1.378 . S
C5755 C5754 1.367 . S
C5755 C5763 1.433 . S
C5756 H5752 0.929 . S
C5756 C5758 1.378 . S
C5756 C5760 1.350 . S
C5757 C5760 1.463 . S
C5757 C5762 1.350 . S
C5757 N5765 1.427 . S
C5758 H5749 0.930 . S
C5758 C5756 1.378 . S
C5758 C5759 1.367 . S
C5759 C5758 1.367 . S
C5759 C5761 1.433 . S
C5760 C5756 1.350 . S
C5760 C5757 1.463 . S
C5760 N5764 1.427 . S
C5761 H5751 0.929 . S
C5761 C5759 1.433 . S
C5761 N5764 1.384 . S
C5762 H5753 0.929 . S
C5762 C5754 1.378 . S
C5762 C5757 1.350 . S
C5763 H5750 0.929 . S
C5763 C5755 1.433 . S
C5763 N5765 1.384 . S
N5764 C5760 1.427 . S
N5764 C5761 1.384 . S
N5765 C5757 1.427 . S
N5765 C5763 1.384 . S
H5766 C5772 0.930 . S
H5767 C5776 0.930 . S
H5768 C5781 0.929 . S
H5769 C5779 0.929 . S
H5770 C5774 0.929 . S
H5771 C5780 0.929 . S
C5772 H5766 0.930 . S
C5772 C5773 1.367 . S
C5772 C5780 1.378 . S
C5773 C5772 1.367 . S
C5773 C5781 1.433 . S
C5774 H5770 0.929 . S
C5774 C5776 1.378 . S
C5774 C5778 1.350 . S
C5775 C5778 1.463 . S
C5775 C5780 1.350 . S
C5775 N5783 1.427 . S
C5776 H5767 0.930 . S
C5776 C5774 1.378 . S
C5776 C5777 1.367 . S
C5777 C5776 1.367 . S
C5777 C5779 1.433 . S
C5778 C5774 1.350 . S
C5778 C5775 1.463 . S
C5778 N5782 1.427 . S
C5779 H5769 0.929 . S
C5779 C5777 1.433 . S
C5779 N5782 1.384 . S
C5780 H5771 0.929 . S
C5780 C5772 1.378 . S
C5780 C5775 1.350 . S
C5781 H5768 0.929 . S
C5781 C5773 1.433 . S
C5781 N5783 1.384 . S
N5782 C5778 1.427 . S
N5782 C5779 1.384 . S
N5783 C5775 1.427 . S
N5783 C5781 1.384 . S
H5784 C5790 0.930 . S
H5785 C5794 0.930 . S
H5786 C5799 0.929 . S
H5787 C5797 0.929 . S
H5788 C5792 0.929 . S
H5789 C5798 0.929 . S
C5790 H5784 0.930 . S
C5790 C5791 1.367 . S
C5790 C5798 1.378 . S
C5791 C5790 1.367 . S
C5791 C5799 1.433 . S
C5792 H5788 0.929 . S
C5792 C5794 1.378 . S
C5792 C5796 1.350 . S
C5793 C5796 1.463 . S
C5793 C5798 1.350 . S
C5793 N5801 1.427 . S
C5794 H5785 0.930 . S
C5794 C5792 1.378 . S
C5794 C5795 1.367 . S
C5795 C5794 1.367 . S
C5795 C5797 1.433 . S
C5796 C5792 1.350 . S
C5796 C5793 1.463 . S
C5796 N5800 1.427 . S
C5797 H5787 0.929 . S
C5797 C5795 1.433 . S
C5797 N5800 1.384 . S
C5798 H5789 0.929 . S
C5798 C5790 1.378 . S
C5798 C5793 1.350 . S
C5799 H5786 0.929 . S
C5799 C5791 1.433 . S
C5799 N5801 1.384 . S
N5800 C5796 1.427 . S
N5800 C5797 1.384 . S
N5801 C5793 1.427 . S
N5801 C5799 1.384 . S
H5802 C5808 0.930 . S
H5803 C5812 0.930 . S
H5804 C5817 0.929 . S
H5805 C5815 0.929 . S
H5806 C5810 0.929 . S
H5807 C5816 0.929 . S
C5808 H5802 0.930 . S
C5808 C5809 1.367 . S
C5808 C5816 1.378 . S
C5809 C5808 1.367 . S
C5809 C5817 1.433 . S
C5810 H5806 0.929 . S
C5810 C5812 1.378 . S
C5810 C5814 1.350 . S
C5811 C5814 1.463 . S
C5811 C5816 1.350 . S
C5811 N5819 1.427 . S
C5812 H5803 0.930 . S
C5812 C5810 1.378 . S
C5812 C5813 1.367 . S
C5813 C5812 1.367 . S
C5813 C5815 1.433 . S
C5814 C5810 1.350 . S
C5814 C5811 1.463 . S
C5814 N5818 1.427 . S
C5815 H5805 0.929 . S
C5815 C5813 1.433 . S
C5815 N5818 1.384 . S
C5816 H5807 0.929 . S
C5816 C5808 1.378 . S
C5816 C5811 1.350 . S
C5817 H5804 0.929 . S
C5817 C5809 1.433 . S
C5817 N5819 1.384 . S
N5818 C5814 1.427 . S
N5818 C5815 1.384 . S
N5819 C5811 1.427 . S
N5819 C5817 1.384 . S
H5820 C5826 0.930 . S
H5821 C5830 0.930 . S
H5822 C5835 0.929 . S
H5823 C5833 0.929 . S
H5824 C5828 0.929 . S
H5825 C5834 0.929 . S
C5826 H5820 0.930 . S
C5826 C5827 1.367 . S
C5826 C5834 1.378 . S
C5827 C5826 1.367 . S
C5827 C5835 1.433 . S
C5828 H5824 0.929 . S
C5828 C5830 1.378 . S
C5828 C5832 1.350 . S
C5829 C5832 1.463 . S
C5829 C5834 1.350 . S
C5829 N5837 1.427 . S
C5830 H5821 0.930 . S
C5830 C5828 1.378 . S
C5830 C5831 1.367 . S
C5831 C5830 1.367 . S
C5831 C5833 1.433 . S
C5832 C5828 1.350 . S
C5832 C5829 1.463 . S
C5832 N5836 1.427 . S
C5833 H5823 0.929 . S
C5833 C5831 1.433 . S
C5833 N5836 1.384 . S
C5834 H5825 0.929 . S
C5834 C5826 1.378 . S
C5834 C5829 1.350 . S
C5835 H5822 0.929 . S
C5835 C5827 1.433 . S
C5835 N5837 1.384 . S
N5836 C5832 1.427 . S
N5836 C5833 1.384 . S
N5837 C5829 1.427 . S
N5837 C5835 1.384 . S
H5838 C5844 0.930 . S
H5839 C5848 0.930 . S
H5840 C5853 0.929 . S
H5841 C5851 0.929 . S
H5842 C5846 0.929 . S
H5843 C5852 0.929 . S
C5844 H5838 0.930 . S
C5844 C5845 1.367 . S
C5844 C5852 1.378 . S
C5845 C5844 1.367 . S
C5845 C5853 1.433 . S
C5846 H5842 0.929 . S
C5846 C5848 1.378 . S
C5846 C5850 1.350 . S
C5847 C5850 1.463 . S
C5847 C5852 1.350 . S
C5847 N5855 1.427 . S
C5848 H5839 0.930 . S
C5848 C5846 1.378 . S
C5848 C5849 1.367 . S
C5849 C5848 1.367 . S
C5849 C5851 1.433 . S
C5850 C5846 1.350 . S
C5850 C5847 1.463 . S
C5850 N5854 1.427 . S
C5851 H5841 0.929 . S
C5851 C5849 1.433 . S
C5851 N5854 1.384 . S
C5852 H5843 0.929 . S
C5852 C5844 1.378 . S
C5852 C5847 1.350 . S
C5853 H5840 0.929 . S
C5853 C5845 1.433 . S
C5853 N5855 1.384 . S
N5854 C5850 1.427 . S
N5854 C5851 1.384 . S
N5855 C5847 1.427 . S
N5855 C5853 1.384 . S
H5856 C5862 0.930 . S
H5857 C5866 0.930 . S
H5858 C5871 0.929 . S
H5859 C5869 0.929 . S
H5860 C5864 0.929 . S
H5861 C5870 0.929 . S
C5862 H5856 0.930 . S
C5862 C5863 1.367 . S
C5862 C5870 1.378 . S
C5863 C5862 1.367 . S
C5863 C5871 1.433 . S
C5864 H5860 0.929 . S
C5864 C5866 1.378 . S
C5864 C5868 1.350 . S
C5865 C5868 1.463 . S
C5865 C5870 1.350 . S
C5865 N5873 1.427 . S
C5866 H5857 0.930 . S
C5866 C5864 1.378 . S
C5866 C5867 1.367 . S
C5867 C5866 1.367 . S
C5867 C5869 1.433 . S
C5868 C5864 1.350 . S
C5868 C5865 1.463 . S
C5868 N5872 1.427 . S
C5869 H5859 0.929 . S
C5869 C5867 1.433 . S
C5869 N5872 1.384 . S
C5870 H5861 0.929 . S
C5870 C5862 1.378 . S
C5870 C5865 1.350 . S
C5871 H5858 0.929 . S
C5871 C5863 1.433 . S
C5871 N5873 1.384 . S
N5872 C5868 1.427 . S
N5872 C5869 1.384 . S
N5873 C5865 1.427 . S
N5873 C5871 1.384 . S
H5874 C5880 0.930 . S
H5875 C5884 0.930 . S
H5876 C5889 0.929 . S
H5877 C5887 0.929 . S
H5878 C5882 0.929 . S
H5879 C5888 0.929 . S
C5880 H5874 0.930 . S
C5880 C5881 1.367 . S
C5880 C5888 1.378 . S
C5881 C5880 1.367 . S
C5881 C5889 1.433 . S
C5882 H5878 0.929 . S
C5882 C5884 1.378 . S
C5882 C5886 1.350 . S
C5883 C5886 1.463 . S
C5883 C5888 1.350 . S
C5883 N5891 1.427 . S
C5884 H5875 0.930 . S
C5884 C5882 1.378 . S
C5884 C5885 1.367 . S
C5885 C5884 1.367 . S
C5885 C5887 1.433 . S
C5886 C5882 1.350 . S
C5886 C5883 1.463 . S
C5886 N5890 1.427 . S
C5887 H5877 0.929 . S
C5887 C5885 1.433 . S
C5887 N5890 1.384 . S
C5888 H5879 0.929 . S
C5888 C5880 1.378 . S
C5888 C5883 1.350 . S
C5889 H5876 0.929 . S
C5889 C5881 1.433 . S
C5889 N5891 1.384 . S
N5890 C5886 1.427 . S
N5890 C5887 1.384 . S
N5891 C5883 1.427 . S
N5891 C5889 1.384 . S
H5892 C5898 0.930 . S
H5893 C5902 0.930 . S
H5894 C5907 0.929 . S
H5895 C5905 0.929 . S
H5896 C5900 0.929 . S
H5897 C5906 0.929 . S
C5898 H5892 0.930 . S
C5898 C5899 1.367 . S
C5898 C5906 1.378 . S
C5899 C5898 1.367 . S
C5899 C5907 1.433 . S
C5900 H5896 0.929 . S
C5900 C5902 1.378 . S
C5900 C5904 1.350 . S
C5901 C5904 1.463 . S
C5901 C5906 1.350 . S
C5901 N5909 1.427 . S
C5902 H5893 0.930 . S
C5902 C5900 1.378 . S
C5902 C5903 1.367 . S
C5903 C5902 1.367 . S
C5903 C5905 1.433 . S
C5904 C5900 1.350 . S
C5904 C5901 1.463 . S
C5904 N5908 1.427 . S
C5905 H5895 0.929 . S
C5905 C5903 1.433 . S
C5905 N5908 1.384 . S
C5906 H5897 0.929 . S
C5906 C5898 1.378 . S
C5906 C5901 1.350 . S
C5907 H5894 0.929 . S
C5907 C5899 1.433 . S
C5907 N5909 1.384 . S
N5908 C5904 1.427 . S
N5908 C5905 1.384 . S
N5909 C5901 1.427 . S
N5909 C5907 1.384 . S
H5910 C5916 0.930 . S
H5911 C5920 0.930 . S
H5912 C5925 0.929 . S
H5913 C5923 0.929 . S
H5914 C5918 0.929 . S
H5915 C5924 0.929 . S
C5916 H5910 0.930 . S
C5916 C5917 1.367 . S
C5916 C5924 1.378 . S
C5917 C5916 1.367 . S
C5917 C5925 1.433 . S
C5918 H5914 0.929 . S
C5918 C5920 1.378 . S
C5918 C5922 1.350 . S
C5919 C5922 1.463 . S
C5919 C5924 1.350 . S
C5919 N5927 1.427 . S
C5920 H5911 0.930 . S
C5920 C5918 1.378 . S
C5920 C5921 1.367 . S
C5921 C5920 1.367 . S
C5921 C5923 1.433 . S
C5922 C5918 1.350 . S
C5922 C5919 1.463 . S
C5922 N5926 1.427 . S
C5923 H5913 0.929 . S
C5923 C5921 1.433 . S
C5923 N5926 1.384 . S
C5924 H5915 0.929 . S
C5924 C5916 1.378 . S
C5924 C5919 1.350 . S
C5925 H5912 0.929 . S
C5925 C5917 1.433 . S
C5925 N5927 1.384 . S
N5926 C5922 1.427 . S
N5926 C5923 1.384 . S
N5927 C5919 1.427 . S
N5927 C5925 1.384 . S
H5928 C5934 0.930 . S
H5929 C5938 0.930 . S
H5930 C5943 0.929 . S
H5931 C5941 0.929 . S
H5932 C5936 0.929 . S
H5933 C5942 0.929 . S
C5934 H5928 0.930 . S
C5934 C5935 1.367 . S
C5934 C5942 1.378 . S
C5935 C5934 1.367 . S
C5935 C5943 1.433 . S
C5936 H5932 0.929 . S
C5936 C5938 1.378 . S
C5936 C5940 1.350 . S
C5937 C5940 1.463 . S
C5937 C5942 1.350 . S
C5937 N5945 1.427 . S
C5938 H5929 0.930 . S
C5938 C5936 1.378 . S
C5938 C5939 1.367 . S
C5939 C5938 1.367 . S
C5939 C5941 1.433 . S
C5940 C5936 1.350 . S
C5940 C5937 1.463 . S
C5940 N5944 1.427 . S
C5941 H5931 0.929 . S
C5941 C5939 1.433 . S
C5941 N5944 1.384 . S
C5942 H5933 0.929 . S
C5942 C5934 1.378 . S
C5942 C5937 1.350 . S
C5943 H5930 0.929 . S
C5943 C5935 1.433 . S
C5943 N5945 1.384 . S
N5944 C5940 1.427 . S
N5944 C5941 1.384 . S
N5945 C5937 1.427 . S
N5945 C5943 1.384 . S
H5946 C5952 0.930 . S
H5947 C5956 0.930 . S
H5948 C5961 0.929 . S
H5949 C5959 0.929 . S
H5950 C5954 0.929 . S
H5951 C5960 0.929 . S
C5952 H5946 0.930 . S
C5952 C5953 1.367 . S
C5952 C5960 1.378 . S
C5953 C5952 1.367 . S
C5953 C5961 1.433 . S
C5954 H5950 0.929 . S
C5954 C5956 1.378 . S
C5954 C5958 1.350 . S
C5955 C5958 1.463 . S
C5955 C5960 1.350 . S
C5955 N5963 1.427 . S
C5956 H5947 0.930 . S
C5956 C5954 1.378 . S
C5956 C5957 1.367 . S
C5957 C5956 1.367 . S
C5957 C5959 1.433 . S
C5958 C5954 1.350 . S
C5958 C5955 1.463 . S
C5958 N5962 1.427 . S
C5959 H5949 0.929 . S
C5959 C5957 1.433 . S
C5959 N5962 1.384 . S
C5960 H5951 0.929 . S
C5960 C5952 1.378 . S
C5960 C5955 1.350 . S
C5961 H5948 0.929 . S
C5961 C5953 1.433 . S
C5961 N5963 1.384 . S
N5962 C5958 1.427 . S
N5962 C5959 1.384 . S
N5963 C5955 1.427 . S
N5963 C5961 1.384 . S
H5964 C5970 0.930 . S
H5965 C5974 0.930 . S
H5966 C5979 0.929 . S
H5967 C5977 0.929 . S
H5968 C5972 0.929 . S
H5969 C5978 0.929 . S
C5970 H5964 0.930 . S
C5970 C5971 1.367 . S
C5970 C5978 1.378 . S
C5971 C5970 1.367 . S
C5971 C5979 1.433 . S
C5972 H5968 0.929 . S
C5972 C5974 1.378 . S
C5972 C5976 1.350 . S
C5973 C5976 1.463 . S
C5973 C5978 1.350 . S
C5973 N5981 1.427 . S
C5974 H5965 0.930 . S
C5974 C5972 1.378 . S
C5974 C5975 1.367 . S
C5975 C5974 1.367 . S
C5975 C5977 1.433 . S
C5976 C5972 1.350 . S
C5976 C5973 1.463 . S
C5976 N5980 1.427 . S
C5977 H5967 0.929 . S
C5977 C5975 1.433 . S
C5977 N5980 1.384 . S
C5978 H5969 0.929 . S
C5978 C5970 1.378 . S
C5978 C5973 1.350 . S
C5979 H5966 0.929 . S
C5979 C5971 1.433 . S
C5979 N5981 1.384 . S
N5980 C5976 1.427 . S
N5980 C5977 1.384 . S
N5981 C5973 1.427 . S
N5981 C5979 1.384 . S
H5982 C5988 0.930 . S
H5983 C5992 0.930 . S
H5984 C5997 0.929 . S
H5985 C5995 0.929 . S
H5986 C5990 0.929 . S
H5987 C5996 0.929 . S
C5988 H5982 0.930 . S
C5988 C5989 1.367 . S
C5988 C5996 1.378 . S
C5989 C5988 1.367 . S
C5989 C5997 1.433 . S
C5990 H5986 0.929 . S
C5990 C5992 1.378 . S
C5990 C5994 1.350 . S
C5991 C5994 1.463 . S
C5991 C5996 1.350 . S
C5991 N5999 1.427 . S
C5992 H5983 0.930 . S
C5992 C5990 1.378 . S
C5992 C5993 1.367 . S
C5993 C5992 1.367 . S
C5993 C5995 1.433 . S
C5994 C5990 1.350 . S
C5994 C5991 1.463 . S
C5994 N5998 1.427 . S
C5995 H5985 0.929 . S
C5995 C5993 1.433 . S
C5995 N5998 1.384 . S
C5996 H5987 0.929 . S
C5996 C5988 1.378 . S
C5996 C5991 1.350 . S
C5997 H5984 0.929 . S
C5997 C5989 1.433 . S
C5997 N5999 1.384 . S
N5998 C5994 1.427 . S
N5998 C5995 1.384 . S
N5999 C5991 1.427 . S
N5999 C5997 1.384 . S
H6000 C6006 0.930 . S
H6001 C6010 0.930 . S
H6002 C6015 0.929 . S
H6003 C6013 0.929 . S
H6004 C6008 0.929 . S
H6005 C6014 0.929 . S
C6006 H6000 0.930 . S
C6006 C6007 1.367 . S
C6006 C6014 1.378 . S
C6007 C6006 1.367 . S
C6007 C6015 1.433 . S
C6008 H6004 0.929 . S
C6008 C6010 1.378 . S
C6008 C6012 1.350 . S
C6009 C6012 1.463 . S
C6009 C6014 1.350 . S
C6009 N6017 1.427 . S
C6010 H6001 0.930 . S
C6010 C6008 1.378 . S
C6010 C6011 1.367 . S
C6011 C6010 1.367 . S
C6011 C6013 1.433 . S
C6012 C6008 1.350 . S
C6012 C6009 1.463 . S
C6012 N6016 1.427 . S
C6013 H6003 0.929 . S
C6013 C6011 1.433 . S
C6013 N6016 1.384 . S
C6014 H6005 0.929 . S
C6014 C6006 1.378 . S
C6014 C6009 1.350 . S
C6015 H6002 0.929 . S
C6015 C6007 1.433 . S
C6015 N6017 1.384 . S
N6016 C6012 1.427 . S
N6016 C6013 1.384 . S
N6017 C6009 1.427 . S
N6017 C6015 1.384 . S
H6018 C6024 0.930 . S
H6019 C6028 0.930 . S
H6020 C6033 0.929 . S
H6021 C6031 0.929 . S
H6022 C6026 0.929 . S
H6023 C6032 0.929 . S
C6024 H6018 0.930 . S
C6024 C6025 1.367 . S
C6024 C6032 1.378 . S
C6025 C6024 1.367 . S
C6025 C6033 1.433 . S
C6026 H6022 0.929 . S
C6026 C6028 1.378 . S
C6026 C6030 1.350 . S
C6027 C6030 1.463 . S
C6027 C6032 1.350 . S
C6027 N6035 1.427 . S
C6028 H6019 0.930 . S
C6028 C6026 1.378 . S
C6028 C6029 1.367 . S
C6029 C6028 1.367 . S
C6029 C6031 1.433 . S
C6030 C6026 1.350 . S
C6030 C6027 1.463 . S
C6030 N6034 1.427 . S
C6031 H6021 0.929 . S
C6031 C6029 1.433 . S
C6031 N6034 1.384 . S
C6032 H6023 0.929 . S
C6032 C6024 1.378 . S
C6032 C6027 1.350 . S
C6033 H6020 0.929 . S
C6033 C6025 1.433 . S
C6033 N6035 1.384 . S
N6034 C6030 1.427 . S
N6034 C6031 1.384 . S
N6035 C6027 1.427 . S
N6035 C6033 1.384 . S
H6036 C6042 0.930 . S
H6037 C6046 0.930 . S
H6038 C6051 0.929 . S
H6039 C6049 0.929 . S
H6040 C6044 0.929 . S
H6041 C6050 0.929 . S
C6042 H6036 0.930 . S
C6042 C6043 1.367 . S
C6042 C6050 1.378 . S
C6043 C6042 1.367 . S
C6043 C6051 1.433 . S
C6044 H6040 0.929 . S
C6044 C6046 1.378 . S
C6044 C6048 1.350 . S
C6045 C6048 1.463 . S
C6045 C6050 1.350 . S
C6045 N6053 1.427 . S
C6046 H6037 0.930 . S
C6046 C6044 1.378 . S
C6046 C6047 1.367 . S
C6047 C6046 1.367 . S
C6047 C6049 1.433 . S
C6048 C6044 1.350 . S
C6048 C6045 1.463 . S
C6048 N6052 1.427 . S
C6049 H6039 0.929 . S
C6049 C6047 1.433 . S
C6049 N6052 1.384 . S
C6050 H6041 0.929 . S
C6050 C6042 1.378 . S
C6050 C6045 1.350 . S
C6051 H6038 0.929 . S
C6051 C6043 1.433 . S
C6051 N6053 1.384 . S
N6052 C6048 1.427 . S
N6052 C6049 1.384 . S
N6053 C6045 1.427 . S
N6053 C6051 1.384 . S
H6054 C6060 0.930 . S
H6055 C6064 0.930 . S
H6056 C6069 0.929 . S
H6057 C6067 0.929 . S
H6058 C6062 0.929 . S
H6059 C6068 0.929 . S
C6060 H6054 0.930 . S
C6060 C6061 1.367 . S
C6060 C6068 1.378 . S
C6061 C6060 1.367 . S
C6061 C6069 1.433 . S
C6062 H6058 0.929 . S
C6062 C6064 1.378 . S
C6062 C6066 1.350 . S
C6063 C6066 1.463 . S
C6063 C6068 1.350 . S
C6063 N6071 1.427 . S
C6064 H6055 0.930 . S
C6064 C6062 1.378 . S
C6064 C6065 1.367 . S
C6065 C6064 1.367 . S
C6065 C6067 1.433 . S
C6066 C6062 1.350 . S
C6066 C6063 1.463 . S
C6066 N6070 1.427 . S
C6067 H6057 0.929 . S
C6067 C6065 1.433 . S
C6067 N6070 1.384 . S
C6068 H6059 0.929 . S
C6068 C6060 1.378 . S
C6068 C6063 1.350 . S
C6069 H6056 0.929 . S
C6069 C6061 1.433 . S
C6069 N6071 1.384 . S
N6070 C6066 1.427 . S
N6070 C6067 1.384 . S
N6071 C6063 1.427 . S
N6071 C6069 1.384 . S
H6072 C6078 0.930 . S
H6073 C6082 0.930 . S
H6074 C6087 0.929 . S
H6075 C6085 0.929 . S
H6076 C6080 0.929 . S
H6077 C6086 0.929 . S
C6078 H6072 0.930 . S
C6078 C6079 1.367 . S
C6078 C6086 1.378 . S
C6079 C6078 1.367 . S
C6079 C6087 1.433 . S
C6080 H6076 0.929 . S
C6080 C6082 1.378 . S
C6080 C6084 1.350 . S
C6081 C6084 1.463 . S
C6081 C6086 1.350 . S
C6081 N6089 1.427 . S
C6082 H6073 0.930 . S
C6082 C6080 1.378 . S
C6082 C6083 1.367 . S
C6083 C6082 1.367 . S
C6083 C6085 1.433 . S
C6084 C6080 1.350 . S
C6084 C6081 1.463 . S
C6084 N6088 1.427 . S
C6085 H6075 0.929 . S
C6085 C6083 1.433 . S
C6085 N6088 1.384 . S
C6086 H6077 0.929 . S
C6086 C6078 1.378 . S
C6086 C6081 1.350 . S
C6087 H6074 0.929 . S
C6087 C6079 1.433 . S
C6087 N6089 1.384 . S
N6088 C6084 1.427 . S
N6088 C6085 1.384 . S
N6089 C6081 1.427 . S
N6089 C6087 1.384 . S
H6090 C6096 0.930 . S
H6091 C6100 0.930 . S
H6092 C6105 0.929 . S
H6093 C6103 0.929 . S
H6094 C6098 0.929 . S
H6095 C6104 0.929 . S
C6096 H6090 0.930 . S
C6096 C6097 1.367 . S
C6096 C6104 1.378 . S
C6097 C6096 1.367 . S
C6097 C6105 1.433 . S
C6098 H6094 0.929 . S
C6098 C6100 1.378 . S
C6098 C6102 1.350 . S
C6099 C6102 1.463 . S
C6099 C6104 1.350 . S
C6099 N6107 1.427 . S
C6100 H6091 0.930 . S
C6100 C6098 1.378 . S
C6100 C6101 1.367 . S
C6101 C6100 1.367 . S
C6101 C6103 1.433 . S
C6102 C6098 1.350 . S
C6102 C6099 1.463 . S
C6102 N6106 1.427 . S
C6103 H6093 0.929 . S
C6103 C6101 1.433 . S
C6103 N6106 1.384 . S
C6104 H6095 0.929 . S
C6104 C6096 1.378 . S
C6104 C6099 1.350 . S
C6105 H6092 0.929 . S
C6105 C6097 1.433 . S
C6105 N6107 1.384 . S
N6106 C6102 1.427 . S
N6106 C6103 1.384 . S
N6107 C6099 1.427 . S
N6107 C6105 1.384 . S
H6108 C6114 0.930 . S
H6109 C6118 0.930 . S
H6110 C6123 0.929 . S
H6111 C6121 0.929 . S
H6112 C6116 0.929 . S
H6113 C6122 0.929 . S
C6114 H6108 0.930 . S
C6114 C6115 1.367 . S
C6114 C6122 1.378 . S
C6115 C6114 1.367 . S
C6115 C6123 1.433 . S
C6116 H6112 0.929 . S
C6116 C6118 1.378 . S
C6116 C6120 1.350 . S
C6117 C6120 1.463 . S
C6117 C6122 1.350 . S
C6117 N6125 1.427 . S
C6118 H6109 0.930 . S
C6118 C6116 1.378 . S
C6118 C6119 1.367 . S
C6119 C6118 1.367 . S
C6119 C6121 1.433 . S
C6120 C6116 1.350 . S
C6120 C6117 1.463 . S
C6120 N6124 1.427 . S
C6121 H6111 0.929 . S
C6121 C6119 1.433 . S
C6121 N6124 1.384 . S
C6122 H6113 0.929 . S
C6122 C6114 1.378 . S
C6122 C6117 1.350 . S
C6123 H6110 0.929 . S
C6123 C6115 1.433 . S
C6123 N6125 1.384 . S
N6124 C6120 1.427 . S
N6124 C6121 1.384 . S
N6125 C6117 1.427 . S
N6125 C6123 1.384 . S
H6126 C6132 0.930 . S
H6127 C6136 0.930 . S
H6128 C6141 0.929 . S
H6129 C6139 0.929 . S
H6130 C6134 0.929 . S
H6131 C6140 0.929 . S
C6132 H6126 0.930 . S
C6132 C6133 1.367 . S
C6132 C6140 1.378 . S
C6133 C6132 1.367 . S
C6133 C6141 1.433 . S
C6134 H6130 0.929 . S
C6134 C6136 1.378 . S
C6134 C6138 1.350 . S
C6135 C6138 1.463 . S
C6135 C6140 1.350 . S
C6135 N6143 1.427 . S
C6136 H6127 0.930 . S
C6136 C6134 1.378 . S
C6136 C6137 1.367 . S
C6137 C6136 1.367 . S
C6137 C6139 1.433 . S
C6138 C6134 1.350 . S
C6138 C6135 1.463 . S
C6138 N6142 1.427 . S
C6139 H6129 0.929 . S
C6139 C6137 1.433 . S
C6139 N6142 1.384 . S
C6140 H6131 0.929 . S
C6140 C6132 1.378 . S
C6140 C6135 1.350 . S
C6141 H6128 0.929 . S
C6141 C6133 1.433 . S
C6141 N6143 1.384 . S
N6142 C6138 1.427 . S
N6142 C6139 1.384 . S
N6143 C6135 1.427 . S
N6143 C6141 1.384 . S
H6144 C6150 0.930 . S
H6145 C6154 0.930 . S
H6146 C6159 0.929 . S
H6147 C6157 0.929 . S
H6148 C6152 0.949 . S
H6149 C6158 0.929 . S
C6150 H6144 0.930 . S
C6150 C6151 1.367 . S
C6150 C6158 1.378 . S
C6151 C6150 1.367 . S
C6151 C6159 1.433 . S
C6152 H6148 0.949 . S
C6152 C6154 1.378 . S
C6152 C6156 1.350 1_455 S
C6153 C6156 1.463 . S
C6153 C6158 1.350 . S
C6153 N6161 1.427 . S
C6154 H6145 0.930 . S
C6154 C6152 1.378 . S
C6154 C6155 1.367 . S
C6155 C6154 1.367 . S
C6155 C6157 1.433 . S
C6156 C6152 1.350 1_655 S
C6156 C6153 1.463 . S
C6156 N6160 1.427 . S
C6157 H6147 0.929 . S
C6157 C6155 1.433 . S
C6157 N6160 1.384 1_455 S
C6158 H6149 0.929 . S
C6158 C6150 1.378 . S
C6158 C6153 1.350 . S
C6159 H6146 0.929 . S
C6159 C6151 1.433 . S
C6159 N6161 1.384 . S
N6160 C6156 1.427 . S
N6160 C6157 1.384 1_655 S
N6161 C6153 1.427 . S
N6161 C6159 1.384 . S
H6162 C6168 0.930 . S
H6163 C6172 0.930 . S
H6164 C6177 0.929 . S
H6165 C6175 0.929 . S
H6166 C6170 0.929 . S
H6167 C6176 0.929 . S
C6168 H6162 0.930 . S
C6168 C6169 1.367 . S
C6168 C6176 1.378 . S
C6169 C6168 1.367 . S
C6169 C6177 1.433 . S
C6170 H6166 0.929 . S
C6170 C6172 1.378 . S
C6170 C6174 1.350 . S
C6171 C6174 1.463 . S
C6171 C6176 1.350 . S
C6171 N6179 1.427 . S
C6172 H6163 0.930 . S
C6172 C6170 1.378 . S
C6172 C6173 1.367 . S
C6173 C6172 1.367 . S
C6173 C6175 1.433 . S
C6174 C6170 1.350 . S
C6174 C6171 1.463 . S
C6174 N6178 1.427 . S
C6175 H6165 0.929 . S
C6175 C6173 1.433 . S
C6175 N6178 1.384 . S
C6176 H6167 0.929 . S
C6176 C6168 1.378 . S
C6176 C6171 1.350 . S
C6177 H6164 0.929 . S
C6177 C6169 1.433 . S
C6177 N6179 1.384 . S
N6178 C6174 1.427 . S
N6178 C6175 1.384 . S
N6179 C6171 1.427 . S
N6179 C6177 1.384 . S
H6180 C6186 0.930 . S
H6181 C6190 0.932 1_556 S
H6182 C6195 0.929 . S
H6183 C6193 0.929 . S
H6184 C6188 0.929 . S
H6185 C6194 0.929 . S
C6186 H6180 0.930 . S
C6186 C6187 1.367 . S
C6186 C6194 1.378 . S
C6187 C6186 1.367 . S
C6187 C6195 1.433 . S
C6188 H6184 0.929 . S
C6188 C6190 1.378 1_556 S
C6188 C6192 1.350 . S
C6189 C6192 1.463 . S
C6189 C6194 1.350 . S
C6189 N6197 1.427 . S
C6190 H6181 0.932 1_554 S
C6190 C6188 1.378 1_554 S
C6190 C6191 1.367 . S
C6191 C6190 1.367 . S
C6191 C6193 1.433 . S
C6192 C6188 1.350 . S
C6192 C6189 1.463 . S
C6192 N6196 1.427 1_556 S
C6193 H6183 0.929 . S
C6193 C6191 1.433 . S
C6193 N6196 1.384 . S
C6194 H6185 0.929 . S
C6194 C6186 1.378 . S
C6194 C6189 1.350 . S
C6195 H6182 0.929 . S
C6195 C6187 1.433 . S
C6195 N6197 1.384 . S
N6196 C6192 1.427 1_554 S
N6196 C6193 1.384 . S
N6197 C6189 1.427 . S
N6197 C6195 1.384 . S
H6198 C6204 0.930 . S
H6199 C6208 0.912 1_545 S
H6200 C6213 0.929 . S
H6201 C6211 0.929 . S
H6202 C6206 0.929 . S
H6203 C6212 0.929 . S
C6204 H6198 0.930 . S
C6204 C6205 1.367 . S
C6204 C6212 1.378 . S
C6205 C6204 1.367 . S
C6205 C6213 1.433 . S
C6206 H6202 0.929 . S
C6206 C6208 1.378 1_545 S
C6206 C6210 1.350 . S
C6207 C6210 1.463 . S
C6207 C6212 1.350 . S
C6207 N6215 1.427 . S
C6208 H6199 0.912 1_565 S
C6208 C6206 1.378 1_565 S
C6208 C6209 1.367 . S
C6209 C6208 1.367 . S
C6209 C6211 1.433 . S
C6210 C6206 1.350 . S
C6210 C6207 1.463 . S
C6210 N6214 1.427 1_545 S
C6211 H6201 0.929 . S
C6211 C6209 1.433 . S
C6211 N6214 1.384 . S
C6212 H6203 0.929 . S
C6212 C6204 1.378 . S
C6212 C6207 1.350 . S
C6213 H6200 0.929 . S
C6213 C6205 1.433 . S
C6213 N6215 1.384 . S
N6214 C6210 1.427 1_565 S
N6214 C6211 1.384 . S
N6215 C6207 1.427 . S
N6215 C6213 1.384 . S
H6216 C6222 0.930 . S
H6217 C6226 0.930 . S
H6218 C6231 0.929 . S
H6219 C6229 0.929 . S
H6220 C6224 0.929 . S
H6221 C6230 0.929 . S
C6222 H6216 0.930 . S
C6222 C6223 1.367 . S
C6222 C6230 1.378 . S
C6223 C6222 1.367 . S
C6223 C6231 1.433 . S
C6224 H6220 0.929 . S
C6224 C6226 1.378 . S
C6224 C6228 1.350 . S
C6225 C6228 1.463 . S
C6225 C6230 1.350 1_655 S
C6225 N6233 1.427 . S
C6226 H6217 0.930 . S
C6226 C6224 1.378 . S
C6226 C6227 1.367 . S
C6227 C6226 1.367 . S
C6227 C6229 1.433 . S
C6228 C6224 1.350 . S
C6228 C6225 1.463 . S
C6228 N6232 1.427 . S
C6229 H6219 0.929 . S
C6229 C6227 1.433 . S
C6229 N6232 1.384 . S
C6230 H6221 0.929 . S
C6230 C6222 1.378 . S
C6230 C6225 1.350 1_455 S
C6231 H6218 0.929 . S
C6231 C6223 1.433 . S
C6231 N6233 1.384 1_455 S
N6232 C6228 1.427 . S
N6232 C6229 1.384 . S
N6233 C6225 1.427 . S
N6233 C6231 1.384 1_655 S
H6234 C6240 0.930 . S
H6235 C6244 0.930 . S
H6236 C6249 0.928 1_554 S
H6237 C6247 0.929 . S
H6238 C6242 0.929 . S
H6239 C6248 0.929 . S
C6240 H6234 0.930 . S
C6240 C6241 1.367 . S
C6240 C6248 1.378 . S
C6241 C6240 1.367 . S
C6241 C6249 1.433 . S
C6242 H6238 0.929 . S
C6242 C6244 1.378 . S
C6242 C6246 1.350 . S
C6243 C6246 1.463 . S
C6243 C6248 1.350 1_554 S
C6243 N6251 1.427 . S
C6244 H6235 0.930 . S
C6244 C6242 1.378 . S
C6244 C6245 1.367 . S
C6245 C6244 1.367 . S
C6245 C6247 1.433 . S
C6246 C6242 1.350 . S
C6246 C6243 1.463 . S
C6246 N6250 1.427 . S
C6247 H6237 0.929 . S
C6247 C6245 1.433 . S
C6247 N6250 1.384 . S
C6248 H6239 0.929 . S
C6248 C6240 1.378 . S
C6248 C6243 1.350 1_556 S
C6249 H6236 0.928 1_556 S
C6249 C6241 1.433 . S
C6249 N6251 1.384 1_556 S
N6250 C6246 1.427 . S
N6250 C6247 1.384 . S
N6251 C6243 1.427 . S
N6251 C6249 1.384 1_554 S
H6252 C6258 0.930 . S
H6253 C6262 0.930 . S
H6254 C6267 0.929 . S
H6255 C6265 0.929 . S
H6256 C6260 0.929 . S
H6257 C6266 0.929 . S
C6258 H6252 0.930 . S
C6258 C6259 1.367 . S
C6258 C6266 1.378 . S
C6259 C6258 1.367 . S
C6259 C6267 1.433 . S
C6260 H6256 0.929 . S
C6260 C6262 1.378 . S
C6260 C6264 1.350 . S
C6261 C6264 1.463 . S
C6261 C6266 1.350 . S
C6261 N6269 1.427 . S
C6262 H6253 0.930 . S
C6262 C6260 1.378 . S
C6262 C6263 1.367 . S
C6263 C6262 1.367 . S
C6263 C6265 1.433 . S
C6264 C6260 1.350 . S
C6264 C6261 1.463 . S
C6264 N6268 1.427 . S
C6265 H6255 0.929 . S
C6265 C6263 1.433 . S
C6265 N6268 1.384 . S
C6266 H6257 0.929 . S
C6266 C6258 1.378 . S
C6266 C6261 1.350 . S
C6267 H6254 0.929 . S
C6267 C6259 1.433 . S
C6267 N6269 1.384 . S
N6268 C6264 1.427 . S
N6268 C6265 1.384 . S
N6269 C6261 1.427 . S
N6269 C6267 1.384 . S
H6270 C6276 0.930 . S
H6271 C6280 0.930 . S
H6272 C6285 0.929 . S
H6273 C6283 0.929 . S
H6274 C6278 0.929 . S
H6275 C6284 0.929 . S
C6276 H6270 0.930 . S
C6276 C6277 1.367 . S
C6276 C6284 1.378 1_565 S
C6277 C6276 1.367 . S
C6277 C6285 1.433 . S
C6278 H6274 0.929 . S
C6278 C6280 1.378 . S
C6278 C6282 1.350 . S
C6279 C6282 1.463 . S
C6279 C6284 1.350 . S
C6279 N6287 1.427 1_545 S
C6280 H6271 0.930 . S
C6280 C6278 1.378 . S
C6280 C6281 1.367 . S
C6281 C6280 1.367 . S
C6281 C6283 1.433 . S
C6282 C6278 1.350 . S
C6282 C6279 1.463 . S
C6282 N6286 1.427 . S
C6283 H6273 0.929 . S
C6283 C6281 1.433 . S
C6283 N6286 1.384 . S
C6284 H6275 0.929 . S
C6284 C6276 1.378 1_545 S
C6284 C6279 1.350 . S
C6285 H6272 0.929 . S
C6285 C6277 1.433 . S
C6285 N6287 1.384 . S
N6286 C6282 1.427 . S
N6286 C6283 1.384 . S
N6287 C6279 1.427 1_565 S
N6287 C6285 1.384 . S
H6288 C6294 0.920 1_565 S
H6289 C6298 0.930 . S
H6290 C6303 0.929 . S
H6291 C6301 0.929 . S
H6292 C6296 0.929 . S
H6293 C6302 0.929 . S
C6294 H6288 0.920 1_545 S
C6294 C6295 1.367 . S
C6294 C6302 1.378 1_545 S
C6295 C6294 1.367 . S
C6295 C6303 1.433 . S
C6296 H6292 0.929 . S
C6296 C6298 1.378 . S
C6296 C6300 1.350 . S
C6297 C6300 1.463 . S
C6297 C6302 1.350 . S
C6297 N6305 1.427 1_565 S
C6298 H6289 0.930 . S
C6298 C6296 1.378 . S
C6298 C6299 1.367 . S
C6299 C6298 1.367 . S
C6299 C6301 1.433 . S
C6300 C6296 1.350 . S
C6300 C6297 1.463 . S
C6300 N6304 1.427 . S
C6301 H6291 0.929 . S
C6301 C6299 1.433 . S
C6301 N6304 1.384 . S
C6302 H6293 0.929 . S
C6302 C6294 1.378 1_565 S
C6302 C6297 1.350 . S
C6303 H6290 0.929 . S
C6303 C6295 1.433 . S
C6303 N6305 1.384 . S
N6304 C6300 1.427 . S
N6304 C6301 1.384 . S
N6305 C6297 1.427 1_545 S
N6305 C6303 1.384 . S
H6306 C6312 0.930 . S
H6307 C6316 0.930 . S
H6308 C6321 0.929 . S
H6309 C6319 0.929 . S
H6310 C6314 0.929 . S
H6311 C6320 0.929 . S
C6312 H6306 0.930 . S
C6312 C6313 1.367 . S
C6312 C6320 1.378 . S
C6313 C6312 1.367 . S
C6313 C6321 1.433 . S
C6314 H6310 0.929 . S
C6314 C6316 1.378 . S
C6314 C6318 1.350 1_655 S
C6315 C6318 1.463 . S
C6315 C6320 1.350 . S
C6315 N6323 1.427 . S
C6316 H6307 0.930 . S
C6316 C6314 1.378 . S
C6316 C6317 1.367 . S
C6317 C6316 1.367 . S
C6317 C6319 1.433 . S
C6318 C6314 1.350 1_455 S
C6318 C6315 1.463 . S
C6318 N6322 1.427 . S
C6319 H6309 0.929 . S
C6319 C6317 1.433 . S
C6319 N6322 1.384 1_655 S
C6320 H6311 0.929 . S
C6320 C6312 1.378 . S
C6320 C6315 1.350 . S
C6321 H6308 0.929 . S
C6321 C6313 1.433 . S
C6321 N6323 1.384 . S
N6322 C6318 1.427 . S
N6322 C6319 1.384 1_455 S
N6323 C6315 1.427 . S
N6323 C6321 1.384 . S
H6324 C6330 0.930 . S
H6325 C6334 0.930 . S
H6326 C6339 0.929 . S
H6327 C6337 0.929 . S
H6328 C6332 0.929 . S
H6329 C6338 0.929 . S
C6330 H6324 0.930 . S
C6330 C6331 1.367 . S
C6330 C6338 1.378 . S
C6331 C6330 1.367 . S
C6331 C6339 1.433 . S
C6332 H6328 0.929 . S
C6332 C6334 1.378 . S
C6332 C6336 1.350 . S
C6333 C6336 1.463 . S
C6333 C6338 1.350 . S
C6333 N6341 1.427 . S
C6334 H6325 0.930 . S
C6334 C6332 1.378 . S
C6334 C6335 1.367 . S
C6335 C6334 1.367 . S
C6335 C6337 1.433 . S
C6336 C6332 1.350 . S
C6336 C6333 1.463 . S
C6336 N6340 1.427 . S
C6337 H6327 0.929 . S
C6337 C6335 1.433 . S
C6337 N6340 1.384 . S
C6338 H6329 0.929 . S
C6338 C6330 1.378 . S
C6338 C6333 1.350 . S
C6339 H6326 0.929 . S
C6339 C6331 1.433 . S
C6339 N6341 1.384 . S
N6340 C6336 1.427 . S
N6340 C6337 1.384 . S
N6341 C6333 1.427 . S
N6341 C6339 1.384 . S
H6342 C6348 0.930 . S
H6343 C6352 0.930 . S
H6344 C6357 0.929 . S
H6345 C6355 0.929 . S
H6346 C6350 0.929 . S
H6347 C6356 0.929 . S
C6348 H6342 0.930 . S
C6348 C6349 1.367 . S
C6348 C6356 1.378 . S
C6349 C6348 1.367 . S
C6349 C6357 1.433 . S
C6350 H6346 0.929 . S
C6350 C6352 1.378 . S
C6350 C6354 1.350 . S
C6351 C6354 1.463 . S
C6351 C6356 1.350 . S
C6351 N6359 1.427 . S
C6352 H6343 0.930 . S
C6352 C6350 1.378 . S
C6352 C6353 1.367 . S
C6353 C6352 1.367 . S
C6353 C6355 1.433 . S
C6354 C6350 1.350 . S
C6354 C6351 1.463 . S
C6354 N6358 1.427 . S
C6355 H6345 0.929 . S
C6355 C6353 1.433 . S
C6355 N6358 1.384 . S
C6356 H6347 0.929 . S
C6356 C6348 1.378 . S
C6356 C6351 1.350 . S
C6357 H6344 0.929 . S
C6357 C6349 1.433 . S
C6357 N6359 1.384 . S
N6358 C6354 1.427 . S
N6358 C6355 1.384 . S
N6359 C6351 1.427 . S
N6359 C6357 1.384 . S
H6360 C6366 0.930 . S
H6361 C6370 0.930 . S
H6362 C6375 0.929 . S
H6363 C6373 0.929 . S
H6364 C6368 0.929 . S
H6365 C6374 0.929 . S
C6366 H6360 0.930 . S
C6366 C6367 1.367 . S
C6366 C6374 1.378 . S
C6367 C6366 1.367 . S
C6367 C6375 1.433 . S
C6368 H6364 0.929 . S
C6368 C6370 1.378 . S
C6368 C6372 1.350 . S
C6369 C6372 1.463 . S
C6369 C6374 1.350 . S
C6369 N6377 1.427 . S
C6370 H6361 0.930 . S
C6370 C6368 1.378 . S
C6370 C6371 1.367 . S
C6371 C6370 1.367 . S
C6371 C6373 1.433 . S
C6372 C6368 1.350 . S
C6372 C6369 1.463 . S
C6372 N6376 1.427 . S
C6373 H6363 0.929 . S
C6373 C6371 1.433 . S
C6373 N6376 1.384 . S
C6374 H6365 0.929 . S
C6374 C6366 1.378 . S
C6374 C6369 1.350 . S
C6375 H6362 0.929 . S
C6375 C6367 1.433 . S
C6375 N6377 1.384 . S
N6376 C6372 1.427 . S
N6376 C6373 1.384 . S
N6377 C6369 1.427 . S
N6377 C6375 1.384 . S
H6378 C6384 0.930 . S
H6379 C6388 0.930 . S
H6380 C6393 0.929 . S
H6381 C6391 0.929 . S
H6382 C6386 0.929 . S
H6383 C6392 0.929 . S
C6384 H6378 0.930 . S
C6384 C6385 1.367 . S
C6384 C6392 1.378 . S
C6385 C6384 1.367 . S
C6385 C6393 1.433 . S
C6386 H6382 0.929 . S
C6386 C6388 1.378 . S
C6386 C6390 1.350 . S
C6387 C6390 1.463 . S
C6387 C6392 1.350 . S
C6387 N6395 1.427 . S
C6388 H6379 0.930 . S
C6388 C6386 1.378 . S
C6388 C6389 1.367 . S
C6389 C6388 1.367 . S
C6389 C6391 1.433 . S
C6390 C6386 1.350 . S
C6390 C6387 1.463 . S
C6390 N6394 1.427 . S
C6391 H6381 0.929 . S
C6391 C6389 1.433 . S
C6391 N6394 1.384 . S
C6392 H6383 0.929 . S
C6392 C6384 1.378 . S
C6392 C6387 1.350 . S
C6393 H6380 0.929 . S
C6393 C6385 1.433 . S
C6393 N6395 1.384 . S
N6394 C6390 1.427 . S
N6394 C6391 1.384 . S
N6395 C6387 1.427 . S
N6395 C6393 1.384 . S
H6396 C6402 0.930 . S
H6397 C6406 0.930 . S
H6398 C6411 0.929 . S
H6399 C6409 0.929 . S
H6400 C6404 0.929 . S
H6401 C6410 0.929 . S
C6402 H6396 0.930 . S
C6402 C6403 1.367 . S
C6402 C6410 1.378 . S
C6403 C6402 1.367 . S
C6403 C6411 1.433 . S
C6404 H6400 0.929 . S
C6404 C6406 1.378 . S
C6404 C6408 1.350 1_545 S
C6405 C6408 1.463 . S
C6405 C6410 1.350 . S
C6405 N6413 1.427 . S
C6406 H6397 0.930 . S
C6406 C6404 1.378 . S
C6406 C6407 1.367 . S
C6407 C6406 1.367 . S
C6407 C6409 1.433 . S
C6408 C6404 1.350 1_565 S
C6408 C6405 1.463 . S
C6408 N6412 1.427 . S
C6409 H6399 0.929 . S
C6409 C6407 1.433 . S
C6409 N6412 1.384 1_545 S
C6410 H6401 0.929 . S
C6410 C6402 1.378 . S
C6410 C6405 1.350 . S
C6411 H6398 0.929 . S
C6411 C6403 1.433 . S
C6411 N6413 1.384 . S
N6412 C6408 1.427 . S
N6412 C6409 1.384 1_565 S
N6413 C6405 1.427 . S
N6413 C6411 1.384 . S
H6414 C6420 0.930 . S
H6415 C6424 0.930 . S
H6416 C6429 0.929 . S
H6417 C6427 0.929 . S
H6418 C6422 0.929 . S
H6419 C6428 0.929 . S
C6420 H6414 0.930 . S
C6420 C6421 1.367 . S
C6420 C6428 1.378 1_655 S
C6421 C6420 1.367 . S
C6421 C6429 1.433 . S
C6422 H6418 0.929 . S
C6422 C6424 1.378 . S
C6422 C6426 1.350 . S
C6423 C6426 1.463 . S
C6423 C6428 1.350 . S
C6423 N6431 1.427 1_455 S
C6424 H6415 0.930 . S
C6424 C6422 1.378 . S
C6424 C6425 1.367 . S
C6425 C6424 1.367 . S
C6425 C6427 1.433 . S
C6426 C6422 1.350 . S
C6426 C6423 1.463 . S
C6426 N6430 1.427 . S
C6427 H6417 0.929 . S
C6427 C6425 1.433 . S
C6427 N6430 1.384 . S
C6428 H6419 0.929 . S
C6428 C6420 1.378 1_455 S
C6428 C6423 1.350 . S
C6429 H6416 0.929 . S
C6429 C6421 1.433 . S
C6429 N6431 1.384 . S
N6430 C6426 1.427 . S
N6430 C6427 1.384 . S
N6431 C6423 1.427 1_655 S
N6431 C6429 1.384 . S
H6432 C6438 0.930 . S
H6433 C6442 0.930 . S
H6434 C6447 0.929 . S
H6435 C6445 0.929 . S
H6436 C6440 0.929 . S
H6437 C6446 0.929 . S
C6438 H6432 0.930 . S
C6438 C6439 1.367 . S
C6438 C6446 1.378 . S
C6439 C6438 1.367 . S
C6439 C6447 1.433 . S
C6440 H6436 0.929 . S
C6440 C6442 1.378 . S
C6440 C6444 1.350 . S
C6441 C6444 1.463 . S
C6441 C6446 1.350 1_556 S
C6441 N6449 1.427 . S
C6442 H6433 0.930 . S
C6442 C6440 1.378 . S
C6442 C6443 1.367 . S
C6443 C6442 1.367 . S
C6443 C6445 1.433 . S
C6444 C6440 1.350 . S
C6444 C6441 1.463 . S
C6444 N6448 1.427 . S
C6445 H6435 0.929 . S
C6445 C6443 1.433 . S
C6445 N6448 1.384 . S
C6446 H6437 0.929 . S
C6446 C6438 1.378 . S
C6446 C6441 1.350 1_554 S
C6447 H6434 0.929 . S
C6447 C6439 1.433 . S
C6447 N6449 1.384 1_554 S
N6448 C6444 1.427 . S
N6448 C6445 1.384 . S
N6449 C6441 1.427 . S
N6449 C6447 1.384 1_556 S
H6450 C6456 0.930 . S
H6451 C6460 0.930 . S
H6452 C6465 0.929 . S
H6453 C6463 0.929 . S
H6454 C6458 0.929 . S
H6455 C6464 0.929 . S
C6456 H6450 0.930 . S
C6456 C6457 1.367 . S
C6456 C6464 1.378 . S
C6457 C6456 1.367 . S
C6457 C6465 1.433 . S
C6458 H6454 0.929 . S
C6458 C6460 1.378 . S
C6458 C6462 1.350 . S
C6459 C6462 1.463 . S
C6459 C6464 1.350 . S
C6459 N6467 1.427 . S
C6460 H6451 0.930 . S
C6460 C6458 1.378 . S
C6460 C6461 1.367 . S
C6461 C6460 1.367 . S
C6461 C6463 1.433 . S
C6462 C6458 1.350 . S
C6462 C6459 1.463 . S
C6462 N6466 1.427 . S
C6463 H6453 0.929 . S
C6463 C6461 1.433 . S
C6463 N6466 1.384 . S
C6464 H6455 0.929 . S
C6464 C6456 1.378 . S
C6464 C6459 1.350 . S
C6465 H6452 0.929 . S
C6465 C6457 1.433 . S
C6465 N6467 1.384 . S
N6466 C6462 1.427 . S
N6466 C6463 1.384 . S
N6467 C6459 1.427 . S
N6467 C6465 1.384 . S
H6468 C6474 0.930 . S
H6469 C6478 0.930 . S
H6470 C6483 0.929 . S
H6471 C6481 0.929 . S
H6472 C6476 0.929 . S
H6473 C6482 0.929 . S
C6474 H6468 0.930 . S
C6474 C6475 1.367 . S
C6474 C6482 1.378 . S
C6475 C6474 1.367 . S
C6475 C6483 1.433 . S
C6476 H6472 0.929 . S
C6476 C6478 1.378 . S
C6476 C6480 1.350 . S
C6477 C6480 1.463 . S
C6477 C6482 1.350 . S
C6477 N6485 1.427 . S
C6478 H6469 0.930 . S
C6478 C6476 1.378 . S
C6478 C6479 1.367 . S
C6479 C6478 1.367 . S
C6479 C6481 1.433 . S
C6480 C6476 1.350 . S
C6480 C6477 1.463 . S
C6480 N6484 1.427 . S
C6481 H6471 0.929 . S
C6481 C6479 1.433 . S
C6481 N6484 1.384 . S
C6482 H6473 0.929 . S
C6482 C6474 1.378 . S
C6482 C6477 1.350 . S
C6483 H6470 0.929 . S
C6483 C6475 1.433 . S
C6483 N6485 1.384 . S
N6484 C6480 1.427 . S
N6484 C6481 1.384 . S
N6485 C6477 1.427 . S
N6485 C6483 1.384 . S
H6486 C6492 0.930 . S
H6487 C6496 0.930 . S
H6488 C6501 0.929 1_565 S
H6489 C6499 0.929 . S
H6490 C6494 0.929 . S
H6491 C6500 0.929 . S
C6492 H6486 0.930 . S
C6492 C6493 1.367 . S
C6492 C6500 1.378 . S
C6493 C6492 1.367 . S
C6493 C6501 1.433 . S
C6494 H6490 0.929 . S
C6494 C6496 1.378 . S
C6494 C6498 1.350 . S
C6495 C6498 1.463 . S
C6495 C6500 1.350 1_565 S
C6495 N6503 1.427 . S
C6496 H6487 0.930 . S
C6496 C6494 1.378 . S
C6496 C6497 1.367 . S
C6497 C6496 1.367 . S
C6497 C6499 1.433 . S
C6498 C6494 1.350 . S
C6498 C6495 1.463 . S
C6498 N6502 1.427 . S
C6499 H6489 0.929 . S
C6499 C6497 1.433 . S
C6499 N6502 1.384 . S
C6500 H6491 0.929 . S
C6500 C6492 1.378 . S
C6500 C6495 1.350 1_545 S
C6501 H6488 0.929 1_545 S
C6501 C6493 1.433 . S
C6501 N6503 1.384 1_545 S
N6502 C6498 1.427 . S
N6502 C6499 1.384 . S
N6503 C6495 1.427 . S
N6503 C6501 1.384 1_565 S
H6504 C6510 0.930 . S
H6505 C6514 0.930 . S
H6506 C6519 0.929 . S
H6507 C6517 0.929 . S
H6508 C6512 0.929 . S
H6509 C6518 0.929 . S
C6510 H6504 0.930 . S
C6510 C6511 1.367 . S
C6510 C6518 1.378 . S
C6511 C6510 1.367 . S
C6511 C6519 1.433 . S
C6512 H6508 0.929 . S
C6512 C6514 1.378 . S
C6512 C6516 1.350 . S
C6513 C6516 1.463 . S
C6513 C6518 1.350 . S
C6513 N6521 1.427 . S
C6514 H6505 0.930 . S
C6514 C6512 1.378 . S
C6514 C6515 1.367 . S
C6515 C6514 1.367 . S
C6515 C6517 1.433 . S
C6516 C6512 1.350 . S
C6516 C6513 1.463 . S
C6516 N6520 1.427 . S
C6517 H6507 0.929 . S
C6517 C6515 1.433 . S
C6517 N6520 1.384 . S
C6518 H6509 0.929 . S
C6518 C6510 1.378 . S
C6518 C6513 1.350 . S
C6519 H6506 0.929 . S
C6519 C6511 1.433 . S
C6519 N6521 1.384 . S
N6520 C6516 1.427 . S
N6520 C6517 1.384 . S
N6521 C6513 1.427 . S
N6521 C6519 1.384 . S
H6522 C6528 0.930 . S
H6523 C6532 0.930 . S
H6524 C6537 0.929 . S
H6525 C6535 0.929 . S
H6526 C6530 0.929 . S
H6527 C6536 0.929 . S
C6528 H6522 0.930 . S
C6528 C6529 1.367 . S
C6528 C6536 1.378 1_554 S
C6529 C6528 1.367 . S
C6529 C6537 1.433 . S
C6530 H6526 0.929 . S
C6530 C6532 1.378 . S
C6530 C6534 1.350 . S
C6531 C6534 1.463 . S
C6531 C6536 1.350 . S
C6531 N6539 1.427 1_556 S
C6532 H6523 0.930 . S
C6532 C6530 1.378 . S
C6532 C6533 1.367 . S
C6533 C6532 1.367 . S
C6533 C6535 1.433 . S
C6534 C6530 1.350 . S
C6534 C6531 1.463 . S
C6534 N6538 1.427 . S
C6535 H6525 0.929 . S
C6535 C6533 1.433 . S
C6535 N6538 1.384 . S
C6536 H6527 0.929 . S
C6536 C6528 1.378 1_556 S
C6536 C6531 1.350 . S
C6537 H6524 0.929 . S
C6537 C6529 1.433 . S
C6537 N6539 1.384 . S
N6538 C6534 1.427 . S
N6538 C6535 1.384 . S
N6539 C6531 1.427 1_554 S
N6539 C6537 1.384 . S
H6540 C6546 0.930 . S
H6541 C6550 0.930 . S
H6542 C6555 0.929 . S
H6543 C6553 0.929 . S
H6544 C6548 0.929 . S
H6545 C6554 0.929 . S
C6546 H6540 0.930 . S
C6546 C6547 1.367 . S
C6546 C6554 1.378 . S
C6547 C6546 1.367 . S
C6547 C6555 1.433 . S
C6548 H6544 0.929 . S
C6548 C6550 1.378 . S
C6548 C6552 1.350 . S
C6549 C6552 1.463 . S
C6549 C6554 1.350 . S
C6549 N6557 1.427 . S
C6550 H6541 0.930 . S
C6550 C6548 1.378 . S
C6550 C6551 1.367 . S
C6551 C6550 1.367 . S
C6551 C6553 1.433 . S
C6552 C6548 1.350 . S
C6552 C6549 1.463 . S
C6552 N6556 1.427 . S
C6553 H6543 0.929 . S
C6553 C6551 1.433 . S
C6553 N6556 1.384 . S
C6554 H6545 0.929 . S
C6554 C6546 1.378 . S
C6554 C6549 1.350 . S
C6555 H6542 0.929 . S
C6555 C6547 1.433 . S
C6555 N6557 1.384 . S
N6556 C6552 1.427 . S
N6556 C6553 1.384 . S
N6557 C6549 1.427 . S
N6557 C6555 1.384 . S
H6558 C6564 0.930 . S
H6559 C6568 0.930 . S
H6560 C6573 0.929 . S
H6561 C6571 0.929 . S
H6562 C6566 0.929 . S
H6563 C6572 0.929 . S
C6564 H6558 0.930 . S
C6564 C6565 1.367 . S
C6564 C6572 1.378 1_655 S
C6565 C6564 1.367 . S
C6565 C6573 1.433 . S
C6566 H6562 0.929 . S
C6566 C6568 1.378 . S
C6566 C6570 1.350 . S
C6567 C6570 1.463 . S
C6567 C6572 1.350 . S
C6567 N6575 1.427 1_455 S
C6568 H6559 0.930 . S
C6568 C6566 1.378 . S
C6568 C6569 1.367 . S
C6569 C6568 1.367 . S
C6569 C6571 1.433 . S
C6570 C6566 1.350 . S
C6570 C6567 1.463 . S
C6570 N6574 1.427 . S
C6571 H6561 0.929 . S
C6571 C6569 1.433 . S
C6571 N6574 1.384 . S
C6572 H6563 0.929 . S
C6572 C6564 1.378 1_455 S
C6572 C6567 1.350 . S
C6573 H6560 0.929 . S
C6573 C6565 1.433 . S
C6573 N6575 1.384 . S
N6574 C6570 1.427 . S
N6574 C6571 1.384 . S
N6575 C6567 1.427 1_655 S
N6575 C6573 1.384 . S
H6576 C6582 0.930 . S
H6577 C6586 0.930 . S
H6578 C6591 0.950 . S
H6579 C6589 0.929 . S
H6580 C6584 0.929 . S
H6581 C6590 0.929 . S
C6582 H6576 0.930 . S
C6582 C6583 1.367 . S
C6582 C6590 1.378 . S
C6583 C6582 1.367 . S
C6583 C6591 1.433 . S
C6584 H6580 0.929 . S
C6584 C6586 1.378 . S
C6584 C6588 1.350 . S
C6585 C6588 1.463 . S
C6585 C6590 1.350 1_455 S
C6585 N6593 1.427 . S
C6586 H6577 0.930 . S
C6586 C6584 1.378 . S
C6586 C6587 1.367 . S
C6587 C6586 1.367 . S
C6587 C6589 1.433 . S
C6588 C6584 1.350 . S
C6588 C6585 1.463 . S
C6588 N6592 1.427 . S
C6589 H6579 0.929 . S
C6589 C6587 1.433 . S
C6589 N6592 1.384 . S
C6590 H6581 0.929 . S
C6590 C6582 1.378 . S
C6590 C6585 1.350 1_655 S
C6591 H6578 0.950 . S
C6591 C6583 1.433 . S
C6591 N6593 1.384 1_655 S
N6592 C6588 1.427 . S
N6592 C6589 1.384 . S
N6593 C6585 1.427 . S
N6593 C6591 1.384 1_455 S
H6594 C6600 0.930 . S
H6595 C6604 0.930 . S
H6596 C6609 0.929 . S
H6597 C6607 0.929 . S
H6598 C6602 0.929 . S
H6599 C6608 0.929 . S
C6600 H6594 0.930 . S
C6600 C6601 1.367 . S
C6600 C6608 1.378 . S
C6601 C6600 1.367 . S
C6601 C6609 1.433 . S
C6602 H6598 0.929 . S
C6602 C6604 1.378 . S
C6602 C6606 1.350 . S
C6603 C6606 1.463 . S
C6603 C6608 1.350 . S
C6603 N6611 1.427 . S
C6604 H6595 0.930 . S
C6604 C6602 1.378 . S
C6604 C6605 1.367 . S
C6605 C6604 1.367 . S
C6605 C6607 1.433 . S
C6606 C6602 1.350 . S
C6606 C6603 1.463 . S
C6606 N6610 1.427 . S
C6607 H6597 0.929 . S
C6607 C6605 1.433 . S
C6607 N6610 1.384 . S
C6608 H6599 0.929 . S
C6608 C6600 1.378 . S
C6608 C6603 1.350 . S
C6609 H6596 0.929 . S
C6609 C6601 1.433 . S
C6609 N6611 1.384 . S
N6610 C6606 1.427 . S
N6610 C6607 1.384 . S
N6611 C6603 1.427 . S
N6611 C6609 1.384 . S
H6612 C6618 0.930 . S
H6613 C6622 0.930 . S
H6614 C6627 0.929 . S
H6615 C6625 0.929 . S
H6616 C6620 0.929 . S
H6617 C6626 0.929 . S
C6618 H6612 0.930 . S
C6618 C6619 1.367 . S
C6618 C6626 1.378 . S
C6619 C6618 1.367 . S
C6619 C6627 1.433 . S
C6620 H6616 0.929 . S
C6620 C6622 1.378 1_554 S
C6620 C6624 1.350 . S
C6621 C6624 1.463 . S
C6621 C6626 1.350 . S
C6621 N6629 1.427 . S
C6622 H6613 0.930 . S
C6622 C6620 1.378 1_556 S
C6622 C6623 1.367 . S
C6623 C6622 1.367 . S
C6623 C6625 1.433 . S
C6624 C6620 1.350 . S
C6624 C6621 1.463 . S
C6624 N6628 1.427 1_554 S
C6625 H6615 0.929 . S
C6625 C6623 1.433 . S
C6625 N6628 1.384 . S
C6626 H6617 0.929 . S
C6626 C6618 1.378 . S
C6626 C6621 1.350 . S
C6627 H6614 0.929 . S
C6627 C6619 1.433 . S
C6627 N6629 1.384 . S
N6628 C6624 1.427 1_556 S
N6628 C6625 1.384 . S
N6629 C6621 1.427 . S
N6629 C6627 1.384 . S
H6630 C6636 0.930 . S
H6631 C6640 0.930 . S
H6632 C6645 0.929 . S
H6633 C6643 0.929 . S
H6634 C6638 0.929 . S
H6635 C6644 0.929 . S
C6636 H6630 0.930 . S
C6636 C6637 1.367 . S
C6636 C6644 1.378 1_655 S
C6637 C6636 1.367 . S
C6637 C6645 1.433 . S
C6638 H6634 0.929 . S
C6638 C6640 1.378 . S
C6638 C6642 1.350 . S
C6639 C6642 1.463 . S
C6639 C6644 1.350 . S
C6639 N6647 1.427 1_455 S
C6640 H6631 0.930 . S
C6640 C6638 1.378 . S
C6640 C6641 1.367 . S
C6641 C6640 1.367 . S
C6641 C6643 1.433 . S
C6642 C6638 1.350 . S
C6642 C6639 1.463 . S
C6642 N6646 1.427 . S
C6643 H6633 0.929 . S
C6643 C6641 1.433 . S
C6643 N6646 1.384 . S
C6644 H6635 0.929 . S
C6644 C6636 1.378 1_455 S
C6644 C6639 1.350 . S
C6645 H6632 0.929 . S
C6645 C6637 1.433 . S
C6645 N6647 1.384 . S
N6646 C6642 1.427 . S
N6646 C6643 1.384 . S
N6647 C6639 1.427 1_655 S
N6647 C6645 1.384 . S
H6648 C6654 0.930 . S
H6649 C6658 0.930 . S
H6650 C6663 0.929 . S
H6651 C6661 0.929 . S
H6652 C6656 0.929 . S
H6653 C6662 0.929 . S
C6654 H6648 0.930 . S
C6654 C6655 1.367 . S
C6654 C6662 1.378 . S
C6655 C6654 1.367 . S
C6655 C6663 1.433 . S
C6656 H6652 0.929 . S
C6656 C6658 1.378 . S
C6656 C6660 1.350 . S
C6657 C6660 1.463 . S
C6657 C6662 1.350 . S
C6657 N6665 1.427 . S
C6658 H6649 0.930 . S
C6658 C6656 1.378 . S
C6658 C6659 1.367 . S
C6659 C6658 1.367 . S
C6659 C6661 1.433 . S
C6660 C6656 1.350 . S
C6660 C6657 1.463 . S
C6660 N6664 1.427 . S
C6661 H6651 0.929 . S
C6661 C6659 1.433 . S
C6661 N6664 1.384 . S
C6662 H6653 0.929 . S
C6662 C6654 1.378 . S
C6662 C6657 1.350 . S
C6663 H6650 0.929 . S
C6663 C6655 1.433 . S
C6663 N6665 1.384 . S
N6664 C6660 1.427 . S
N6664 C6661 1.384 . S
N6665 C6657 1.427 . S
N6665 C6663 1.384 . S
H6666 C6672 0.930 . S
H6667 C6676 0.930 . S
H6668 C6681 0.951 . S
H6669 C6679 0.929 . S
H6670 C6674 0.929 . S
H6671 C6680 0.929 . S
C6672 H6666 0.930 . S
C6672 C6673 1.367 . S
C6672 C6680 1.378 . S
C6673 C6672 1.367 . S
C6673 C6681 1.433 . S
C6674 H6670 0.929 . S
C6674 C6676 1.378 . S
C6674 C6678 1.350 . S
C6675 C6678 1.463 . S
C6675 C6680 1.350 1_565 S
C6675 N6683 1.427 . S
C6676 H6667 0.930 . S
C6676 C6674 1.378 . S
C6676 C6677 1.367 . S
C6677 C6676 1.367 . S
C6677 C6679 1.433 . S
C6678 C6674 1.350 . S
C6678 C6675 1.463 . S
C6678 N6682 1.427 . S
C6679 H6669 0.929 . S
C6679 C6677 1.433 . S
C6679 N6682 1.384 . S
C6680 H6671 0.929 . S
C6680 C6672 1.378 . S
C6680 C6675 1.350 1_545 S
C6681 H6668 0.951 . S
C6681 C6673 1.433 . S
C6681 N6683 1.384 1_545 S
N6682 C6678 1.427 . S
N6682 C6679 1.384 . S
N6683 C6675 1.427 . S
N6683 C6681 1.384 1_565 S
H6684 C6690 0.930 . S
H6685 C6694 0.930 . S
H6686 C6699 0.929 . S
H6687 C6697 0.929 . S
H6688 C6692 0.929 . S
H6689 C6698 0.929 . S
C6690 H6684 0.930 . S
C6690 C6691 1.367 . S
C6690 C6698 1.378 . S
C6691 C6690 1.367 . S
C6691 C6699 1.433 . S
C6692 H6688 0.929 . S
C6692 C6694 1.378 1_545 S
C6692 C6696 1.350 . S
C6693 C6696 1.463 . S
C6693 C6698 1.350 . S
C6693 N6701 1.427 . S
C6694 H6685 0.930 . S
C6694 C6692 1.378 1_565 S
C6694 C6695 1.367 . S
C6695 C6694 1.367 . S
C6695 C6697 1.433 . S
C6696 C6692 1.350 . S
C6696 C6693 1.463 . S
C6696 N6700 1.427 1_545 S
C6697 H6687 0.929 . S
C6697 C6695 1.433 . S
C6697 N6700 1.384 . S
C6698 H6689 0.929 . S
C6698 C6690 1.378 . S
C6698 C6693 1.350 . S
C6699 H6686 0.929 . S
C6699 C6691 1.433 . S
C6699 N6701 1.384 . S
N6700 C6696 1.427 1_565 S
N6700 C6697 1.384 . S
N6701 C6693 1.427 . S
N6701 C6699 1.384 . S
H6702 C6708 0.930 . S
H6703 C6712 0.930 . S
H6704 C6717 0.929 . S
H6705 C6715 0.929 . S
H6706 C6710 0.931 . S
H6707 C6716 0.929 . S
C6708 H6702 0.930 . S
C6708 C6709 1.367 . S
C6708 C6716 1.378 . S
C6709 C6708 1.367 . S
C6709 C6717 1.433 . S
C6710 H6706 0.931 . S
C6710 C6712 1.378 . S
C6710 C6714 1.350 1_455 S
C6711 C6714 1.463 . S
C6711 C6716 1.350 . S
C6711 N6719 1.427 . S
C6712 H6703 0.930 . S
C6712 C6710 1.378 . S
C6712 C6713 1.367 . S
C6713 C6712 1.367 . S
C6713 C6715 1.433 . S
C6714 C6710 1.350 1_655 S
C6714 C6711 1.463 . S
C6714 N6718 1.427 . S
C6715 H6705 0.929 . S
C6715 C6713 1.433 . S
C6715 N6718 1.384 1_455 S
C6716 H6707 0.929 . S
C6716 C6708 1.378 . S
C6716 C6711 1.350 . S
C6717 H6704 0.929 . S
C6717 C6709 1.433 . S
C6717 N6719 1.384 . S
N6718 C6714 1.427 . S
N6718 C6715 1.384 1_655 S
N6719 C6711 1.427 . S
N6719 C6717 1.384 . S
H6720 C6726 0.930 . S
H6721 C6730 0.930 . S
H6722 C6735 0.929 . S
H6723 C6733 0.929 . S
H6724 C6728 0.929 . S
H6725 C6734 0.929 . S
C6726 H6720 0.930 . S
C6726 C6727 1.367 . S
C6726 C6734 1.378 . S
C6727 C6726 1.367 . S
C6727 C6735 1.433 . S
C6728 H6724 0.929 . S
C6728 C6730 1.378 . S
C6728 C6732 1.350 . S
C6729 C6732 1.463 . S
C6729 C6734 1.350 . S
C6729 N6737 1.427 . S
C6730 H6721 0.930 . S
C6730 C6728 1.378 . S
C6730 C6731 1.367 . S
C6731 C6730 1.367 . S
C6731 C6733 1.433 . S
C6732 C6728 1.350 . S
C6732 C6729 1.463 . S
C6732 N6736 1.427 . S
C6733 H6723 0.929 . S
C6733 C6731 1.433 . S
C6733 N6736 1.384 . S
C6734 H6725 0.929 . S
C6734 C6726 1.378 . S
C6734 C6729 1.350 . S
C6735 H6722 0.929 . S
C6735 C6727 1.433 . S
C6735 N6737 1.384 . S
N6736 C6732 1.427 . S
N6736 C6733 1.384 . S
N6737 C6729 1.427 . S
N6737 C6735 1.384 . S
H6738 C6744 0.930 . S
H6739 C6748 0.930 . S
H6740 C6753 0.929 . S
H6741 C6751 0.929 . S
H6742 C6746 0.929 . S
H6743 C6752 0.929 . S
C6744 H6738 0.930 . S
C6744 C6745 1.367 . S
C6744 C6752 1.378 . S
C6745 C6744 1.367 . S
C6745 C6753 1.433 . S
C6746 H6742 0.929 . S
C6746 C6748 1.378 . S
C6746 C6750 1.350 . S
C6747 C6750 1.463 . S
C6747 C6752 1.350 . S
C6747 N6755 1.427 . S
C6748 H6739 0.930 . S
C6748 C6746 1.378 . S
C6748 C6749 1.367 . S
C6749 C6748 1.367 . S
C6749 C6751 1.433 . S
C6750 C6746 1.350 . S
C6750 C6747 1.463 . S
C6750 N6754 1.427 . S
C6751 H6741 0.929 . S
C6751 C6749 1.433 . S
C6751 N6754 1.384 . S
C6752 H6743 0.929 . S
C6752 C6744 1.378 . S
C6752 C6747 1.350 . S
C6753 H6740 0.929 . S
C6753 C6745 1.433 . S
C6753 N6755 1.384 . S
N6754 C6750 1.427 . S
N6754 C6751 1.384 . S
N6755 C6747 1.427 . S
N6755 C6753 1.384 . S
H6756 C6762 0.930 . S
H6757 C6766 0.930 . S
H6758 C6771 0.929 . S
H6759 C6769 0.929 . S
H6760 C6764 0.929 . S
H6761 C6770 0.929 . S
C6762 H6756 0.930 . S
C6762 C6763 1.367 . S
C6762 C6770 1.378 . S
C6763 C6762 1.367 . S
C6763 C6771 1.433 . S
C6764 H6760 0.929 . S
C6764 C6766 1.378 . S
C6764 C6768 1.350 . S
C6765 C6768 1.463 . S
C6765 C6770 1.350 1_545 S
C6765 N6773 1.427 . S
C6766 H6757 0.930 . S
C6766 C6764 1.378 . S
C6766 C6767 1.367 . S
C6767 C6766 1.367 . S
C6767 C6769 1.433 . S
C6768 C6764 1.350 . S
C6768 C6765 1.463 . S
C6768 N6772 1.427 . S
C6769 H6759 0.929 . S
C6769 C6767 1.433 . S
C6769 N6772 1.384 . S
C6770 H6761 0.929 . S
C6770 C6762 1.378 . S
C6770 C6765 1.350 1_565 S
C6771 H6758 0.929 . S
C6771 C6763 1.433 . S
C6771 N6773 1.384 1_565 S
N6772 C6768 1.427 . S
N6772 C6769 1.384 . S
N6773 C6765 1.427 . S
N6773 C6771 1.384 1_545 S
H6774 C6780 0.930 . S
H6775 C6784 0.947 . S
H6776 C6789 0.929 . S
H6777 C6787 0.929 . S
H6778 C6782 0.929 . S
H6779 C6788 0.929 . S
C6780 H6774 0.930 . S
C6780 C6781 1.367 . S
C6780 C6788 1.378 . S
C6781 C6780 1.367 . S
C6781 C6789 1.433 . S
C6782 H6778 0.929 . S
C6782 C6784 1.378 1_655 S
C6782 C6786 1.350 . S
C6783 C6786 1.463 . S
C6783 C6788 1.350 . S
C6783 N6791 1.427 . S
C6784 H6775 0.947 . S
C6784 C6782 1.378 1_455 S
C6784 C6785 1.367 . S
C6785 C6784 1.367 . S
C6785 C6787 1.433 . S
C6786 C6782 1.350 . S
C6786 C6783 1.463 . S
C6786 N6790 1.427 1_655 S
C6787 H6777 0.929 . S
C6787 C6785 1.433 . S
C6787 N6790 1.384 . S
C6788 H6779 0.929 . S
C6788 C6780 1.378 . S
C6788 C6783 1.350 . S
C6789 H6776 0.929 . S
C6789 C6781 1.433 . S
C6789 N6791 1.384 . S
N6790 C6786 1.427 1_455 S
N6790 C6787 1.384 . S
N6791 C6783 1.427 . S
N6791 C6789 1.384 . S
H6792 C6798 0.930 . S
H6793 C6802 0.930 . S
H6794 C6807 0.929 . S
H6795 C6805 0.930 1_554 S
H6796 C6800 0.929 . S
H6797 C6806 0.929 . S
C6798 H6792 0.930 . S
C6798 C6799 1.367 . S
C6798 C6806 1.378 . S
C6799 C6798 1.367 . S
C6799 C6807 1.433 . S
C6800 H6796 0.929 . S
C6800 C6802 1.378 . S
C6800 C6804 1.350 1_556 S
C6801 C6804 1.463 . S
C6801 C6806 1.350 . S
C6801 N6809 1.427 . S
C6802 H6793 0.930 . S
C6802 C6800 1.378 . S
C6802 C6803 1.367 . S
C6803 C6802 1.367 . S
C6803 C6805 1.433 . S
C6804 C6800 1.350 1_554 S
C6804 C6801 1.463 . S
C6804 N6808 1.427 . S
C6805 H6795 0.930 1_556 S
C6805 C6803 1.433 . S
C6805 N6808 1.384 1_556 S
C6806 H6797 0.929 . S
C6806 C6798 1.378 . S
C6806 C6801 1.350 . S
C6807 H6794 0.929 . S
C6807 C6799 1.433 . S
C6807 N6809 1.384 . S
N6808 C6804 1.427 . S
N6808 C6805 1.384 1_554 S
N6809 C6801 1.427 . S
N6809 C6807 1.384 . S
H6810 C6816 0.930 . S
H6811 C6820 0.930 . S
H6812 C6825 0.929 . S
H6813 C6823 0.929 . S
H6814 C6818 0.929 . S
H6815 C6824 0.929 . S
C6816 H6810 0.930 . S
C6816 C6817 1.367 . S
C6816 C6824 1.378 . S
C6817 C6816 1.367 . S
C6817 C6825 1.433 . S
C6818 H6814 0.929 . S
C6818 C6820 1.378 . S
C6818 C6822 1.350 . S
C6819 C6822 1.463 . S
C6819 C6824 1.350 . S
C6819 N6827 1.427 . S
C6820 H6811 0.930 . S
C6820 C6818 1.378 . S
C6820 C6821 1.367 . S
C6821 C6820 1.367 . S
C6821 C6823 1.433 . S
C6822 C6818 1.350 . S
C6822 C6819 1.463 . S
C6822 N6826 1.427 . S
C6823 H6813 0.929 . S
C6823 C6821 1.433 . S
C6823 N6826 1.384 . S
C6824 H6815 0.929 . S
C6824 C6816 1.378 . S
C6824 C6819 1.350 . S
C6825 H6812 0.929 . S
C6825 C6817 1.433 . S
C6825 N6827 1.384 . S
N6826 C6822 1.427 . S
N6826 C6823 1.384 . S
N6827 C6819 1.427 . S
N6827 C6825 1.384 . S
H6828 C6834 0.930 . S
H6829 C6838 0.930 . S
H6830 C6843 0.929 . S
H6831 C6841 0.929 . S
H6832 C6836 0.929 . S
H6833 C6842 0.929 . S
C6834 H6828 0.930 . S
C6834 C6835 1.367 . S
C6834 C6842 1.378 . S
C6835 C6834 1.367 . S
C6835 C6843 1.433 . S
C6836 H6832 0.929 . S
C6836 C6838 1.378 . S
C6836 C6840 1.350 . S
C6837 C6840 1.463 . S
C6837 C6842 1.350 . S
C6837 N6845 1.427 . S
C6838 H6829 0.930 . S
C6838 C6836 1.378 . S
C6838 C6839 1.367 . S
C6839 C6838 1.367 . S
C6839 C6841 1.433 . S
C6840 C6836 1.350 . S
C6840 C6837 1.463 . S
C6840 N6844 1.427 . S
C6841 H6831 0.929 . S
C6841 C6839 1.433 . S
C6841 N6844 1.384 . S
C6842 H6833 0.929 . S
C6842 C6834 1.378 . S
C6842 C6837 1.350 . S
C6843 H6830 0.929 . S
C6843 C6835 1.433 . S
C6843 N6845 1.384 . S
N6844 C6840 1.427 . S
N6844 C6841 1.384 . S
N6845 C6837 1.427 . S
N6845 C6843 1.384 . S
H6846 C6852 0.930 . S
H6847 C6856 0.930 . S
H6848 C6861 0.929 . S
H6849 C6859 0.929 . S
H6850 C6854 0.929 . S
H6851 C6860 0.929 . S
C6852 H6846 0.930 . S
C6852 C6853 1.367 . S
C6852 C6860 1.378 . S
C6853 C6852 1.367 . S
C6853 C6861 1.433 . S
C6854 H6850 0.929 . S
C6854 C6856 1.378 . S
C6854 C6858 1.350 . S
C6855 C6858 1.463 . S
C6855 C6860 1.350 . S
C6855 N6863 1.427 . S
C6856 H6847 0.930 . S
C6856 C6854 1.378 . S
C6856 C6857 1.367 . S
C6857 C6856 1.367 . S
C6857 C6859 1.433 . S
C6858 C6854 1.350 . S
C6858 C6855 1.463 . S
C6858 N6862 1.427 . S
C6859 H6849 0.929 . S
C6859 C6857 1.433 . S
C6859 N6862 1.384 . S
C6860 H6851 0.929 . S
C6860 C6852 1.378 . S
C6860 C6855 1.350 . S
C6861 H6848 0.929 . S
C6861 C6853 1.433 . S
C6861 N6863 1.384 . S
N6862 C6858 1.427 . S
N6862 C6859 1.384 . S
N6863 C6855 1.427 . S
N6863 C6861 1.384 . S
H6864 C6870 0.930 . S
H6865 C6874 0.930 . S
H6866 C6879 0.929 . S
H6867 C6877 0.929 . S
H6868 C6872 0.929 . S
H6869 C6878 0.929 . S
C6870 H6864 0.930 . S
C6870 C6871 1.367 . S
C6870 C6878 1.378 . S
C6871 C6870 1.367 . S
C6871 C6879 1.433 . S
C6872 H6868 0.929 . S
C6872 C6874 1.378 . S
C6872 C6876 1.350 . S
C6873 C6876 1.463 . S
C6873 C6878 1.350 . S
C6873 N6881 1.427 . S
C6874 H6865 0.930 . S
C6874 C6872 1.378 . S
C6874 C6875 1.367 . S
C6875 C6874 1.367 . S
C6875 C6877 1.433 . S
C6876 C6872 1.350 . S
C6876 C6873 1.463 . S
C6876 N6880 1.427 . S
C6877 H6867 0.929 . S
C6877 C6875 1.433 . S
C6877 N6880 1.384 . S
C6878 H6869 0.929 . S
C6878 C6870 1.378 . S
C6878 C6873 1.350 . S
C6879 H6866 0.929 . S
C6879 C6871 1.433 . S
C6879 N6881 1.384 . S
N6880 C6876 1.427 . S
N6880 C6877 1.384 . S
N6881 C6873 1.427 . S
N6881 C6879 1.384 . S
H6882 C6888 0.930 . S
H6883 C6892 0.937 . S
H6884 C6897 0.929 . S
H6885 C6895 0.929 . S
H6886 C6890 0.929 . S
H6887 C6896 0.929 . S
C6888 H6882 0.930 . S
C6888 C6889 1.367 . S
C6888 C6896 1.378 . S
C6889 C6888 1.367 . S
C6889 C6897 1.433 . S
C6890 H6886 0.929 . S
C6890 C6892 1.378 1_655 S
C6890 C6894 1.350 . S
C6891 C6894 1.463 . S
C6891 C6896 1.350 . S
C6891 N6899 1.427 . S
C6892 H6883 0.937 . S
C6892 C6890 1.378 1_455 S
C6892 C6893 1.367 . S
C6893 C6892 1.367 . S
C6893 C6895 1.433 . S
C6894 C6890 1.350 . S
C6894 C6891 1.463 . S
C6894 N6898 1.427 1_655 S
C6895 H6885 0.929 . S
C6895 C6893 1.433 . S
C6895 N6898 1.384 . S
C6896 H6887 0.929 . S
C6896 C6888 1.378 . S
C6896 C6891 1.350 . S
C6897 H6884 0.929 . S
C6897 C6889 1.433 . S
C6897 N6899 1.384 . S
N6898 C6894 1.427 1_455 S
N6898 C6895 1.384 . S
N6899 C6891 1.427 . S
N6899 C6897 1.384 . S
H6900 C6906 0.930 . S
H6901 C6910 0.930 . S
H6902 C6915 0.929 . S
H6903 C6913 0.929 . S
H6904 C6908 0.929 . S
H6905 C6914 0.929 . S
C6906 H6900 0.930 . S
C6906 C6907 1.367 . S
C6906 C6914 1.378 1_554 S
C6907 C6906 1.367 . S
C6907 C6915 1.433 . S
C6908 H6904 0.929 . S
C6908 C6910 1.378 . S
C6908 C6912 1.350 1_455 S
C6909 C6912 1.463 . S
C6909 C6914 1.350 . S
C6909 N6917 1.427 1_556 S
C6910 H6901 0.930 . S
C6910 C6908 1.378 . S
C6910 C6911 1.367 . S
C6911 C6910 1.367 . S
C6911 C6913 1.433 . S
C6912 C6908 1.350 1_655 S
C6912 C6909 1.463 . S
C6912 N6916 1.427 . S
C6913 H6903 0.929 . S
C6913 C6911 1.433 . S
C6913 N6916 1.384 1_455 S
C6914 H6905 0.929 . S
C6914 C6906 1.378 1_556 S
C6914 C6909 1.350 . S
C6915 H6902 0.929 . S
C6915 C6907 1.433 . S
C6915 N6917 1.384 . S
N6916 C6912 1.427 . S
N6916 C6913 1.384 1_655 S
N6917 C6909 1.427 1_554 S
N6917 C6915 1.384 . S
H6918 C6924 0.930 . S
H6919 C6928 0.930 . S
H6920 C6933 0.929 . S
H6921 C6931 0.929 . S
H6922 C6926 0.929 . S
H6923 C6932 0.929 . S
C6924 H6918 0.930 . S
C6924 C6925 1.367 . S
C6924 C6932 1.378 . S
C6925 C6924 1.367 . S
C6925 C6933 1.433 . S
C6926 H6922 0.929 . S
C6926 C6928 1.378 . S
C6926 C6930 1.350 . S
C6927 C6930 1.463 . S
C6927 C6932 1.350 . S
C6927 N6935 1.427 . S
C6928 H6919 0.930 . S
C6928 C6926 1.378 . S
C6928 C6929 1.367 . S
C6929 C6928 1.367 . S
C6929 C6931 1.433 . S
C6930 C6926 1.350 . S
C6930 C6927 1.463 . S
C6930 N6934 1.427 . S
C6931 H6921 0.929 . S
C6931 C6929 1.433 . S
C6931 N6934 1.384 . S
C6932 H6923 0.929 . S
C6932 C6924 1.378 . S
C6932 C6927 1.350 . S
C6933 H6920 0.929 . S
C6933 C6925 1.433 . S
C6933 N6935 1.384 . S
N6934 C6930 1.427 . S
N6934 C6931 1.384 . S
N6935 C6927 1.427 . S
N6935 C6933 1.384 . S
H6936 C6942 0.930 . S
H6937 C6946 0.930 . S
H6938 C6951 0.929 . S
H6939 C6949 0.929 . S
H6940 C6944 0.929 . S
H6941 C6950 0.929 . S
C6942 H6936 0.930 . S
C6942 C6943 1.367 . S
C6942 C6950 1.378 . S
C6943 C6942 1.367 . S
C6943 C6951 1.433 . S
C6944 H6940 0.929 . S
C6944 C6946 1.378 . S
C6944 C6948 1.350 . S
C6945 C6948 1.463 . S
C6945 C6950 1.350 . S
C6945 N6953 1.427 . S
C6946 H6937 0.930 . S
C6946 C6944 1.378 . S
C6946 C6947 1.367 . S
C6947 C6946 1.367 . S
C6947 C6949 1.433 . S
C6948 C6944 1.350 . S
C6948 C6945 1.463 . S
C6948 N6952 1.427 . S
C6949 H6939 0.929 . S
C6949 C6947 1.433 . S
C6949 N6952 1.384 . S
C6950 H6941 0.929 . S
C6950 C6942 1.378 . S
C6950 C6945 1.350 . S
C6951 H6938 0.929 . S
C6951 C6943 1.433 . S
C6951 N6953 1.384 . S
N6952 C6948 1.427 . S
N6952 C6949 1.384 . S
N6953 C6945 1.427 . S
N6953 C6951 1.384 . S
H6954 C6960 0.930 . S
H6955 C6964 0.930 . S
H6956 C6969 0.929 . S
H6957 C6967 0.929 . S
H6958 C6962 0.929 . S
H6959 C6968 0.929 . S
C6960 H6954 0.930 . S
C6960 C6961 1.367 . S
C6960 C6968 1.378 . S
C6961 C6960 1.367 . S
C6961 C6969 1.433 . S
C6962 H6958 0.929 . S
C6962 C6964 1.378 . S
C6962 C6966 1.350 . S
C6963 C6966 1.463 . S
C6963 C6968 1.350 . S
C6963 N6971 1.427 . S
C6964 H6955 0.930 . S
C6964 C6962 1.378 . S
C6964 C6965 1.367 . S
C6965 C6964 1.367 . S
C6965 C6967 1.433 . S
C6966 C6962 1.350 . S
C6966 C6963 1.463 . S
C6966 N6970 1.427 . S
C6967 H6957 0.929 . S
C6967 C6965 1.433 . S
C6967 N6970 1.384 . S
C6968 H6959 0.929 . S
C6968 C6960 1.378 . S
C6968 C6963 1.350 . S
C6969 H6956 0.929 . S
C6969 C6961 1.433 . S
C6969 N6971 1.384 . S
N6970 C6966 1.427 . S
N6970 C6967 1.384 . S
N6971 C6963 1.427 . S
N6971 C6969 1.384 . S
H6972 C6978 0.930 . S
H6973 C6982 0.930 . S
H6974 C6987 0.929 . S
H6975 C6985 0.929 . S
H6976 C6980 0.929 . S
H6977 C6986 0.929 . S
C6978 H6972 0.930 . S
C6978 C6979 1.367 . S
C6978 C6986 1.378 . S
C6979 C6978 1.367 . S
C6979 C6987 1.433 . S
C6980 H6976 0.929 . S
C6980 C6982 1.378 . S
C6980 C6984 1.350 . S
C6981 C6984 1.463 . S
C6981 C6986 1.350 . S
C6981 N6989 1.427 . S
C6982 H6973 0.930 . S
C6982 C6980 1.378 . S
C6982 C6983 1.367 . S
C6983 C6982 1.367 . S
C6983 C6985 1.433 . S
C6984 C6980 1.350 . S
C6984 C6981 1.463 . S
C6984 N6988 1.427 . S
C6985 H6975 0.929 . S
C6985 C6983 1.433 . S
C6985 N6988 1.384 . S
C6986 H6977 0.929 . S
C6986 C6978 1.378 . S
C6986 C6981 1.350 . S
C6987 H6974 0.929 . S
C6987 C6979 1.433 . S
C6987 N6989 1.384 . S
N6988 C6984 1.427 . S
N6988 C6985 1.384 . S
N6989 C6981 1.427 . S
N6989 C6987 1.384 . S
H6990 C6996 0.930 . S
H6991 C7000 0.930 . S
H6992 C7005 0.929 . S
H6993 C7003 0.929 . S
H6994 C6998 0.929 . S
H6995 C7004 0.929 . S
C6996 H6990 0.930 . S
C6996 C6997 1.367 . S
C6996 C7004 1.378 . S
C6997 C6996 1.367 . S
C6997 C7005 1.433 . S
C6998 H6994 0.929 . S
C6998 C7000 1.378 . S
C6998 C7002 1.350 . S
C6999 C7002 1.463 . S
C6999 C7004 1.350 . S
C6999 N7007 1.427 . S
C7000 H6991 0.930 . S
C7000 C6998 1.378 . S
C7000 C7001 1.367 . S
C7001 C7000 1.367 . S
C7001 C7003 1.433 . S
C7002 C6998 1.350 . S
C7002 C6999 1.463 . S
C7002 N7006 1.427 . S
C7003 H6993 0.929 . S
C7003 C7001 1.433 . S
C7003 N7006 1.384 . S
C7004 H6995 0.929 . S
C7004 C6996 1.378 . S
C7004 C6999 1.350 . S
C7005 H6992 0.929 . S
C7005 C6997 1.433 . S
C7005 N7007 1.384 . S
N7006 C7002 1.427 . S
N7006 C7003 1.384 . S
N7007 C6999 1.427 . S
N7007 C7005 1.384 . S
H7008 C7014 0.930 . S
H7009 C7018 0.930 . S
H7010 C7023 0.929 . S
H7011 C7021 0.929 . S
H7012 C7016 0.929 . S
H7013 C7022 0.929 . S
C7014 H7008 0.930 . S
C7014 C7015 1.367 . S
C7014 C7022 1.378 . S
C7015 C7014 1.367 . S
C7015 C7023 1.433 . S
C7016 H7012 0.929 . S
C7016 C7018 1.378 . S
C7016 C7020 1.350 . S
C7017 C7020 1.463 . S
C7017 C7022 1.350 . S
C7017 N7025 1.427 . S
C7018 H7009 0.930 . S
C7018 C7016 1.378 . S
C7018 C7019 1.367 . S
C7019 C7018 1.367 . S
C7019 C7021 1.433 . S
C7020 C7016 1.350 . S
C7020 C7017 1.463 . S
C7020 N7024 1.427 . S
C7021 H7011 0.929 . S
C7021 C7019 1.433 . S
C7021 N7024 1.384 . S
C7022 H7013 0.929 . S
C7022 C7014 1.378 . S
C7022 C7017 1.350 . S
C7023 H7010 0.929 . S
C7023 C7015 1.433 . S
C7023 N7025 1.384 . S
N7024 C7020 1.427 . S
N7024 C7021 1.384 . S
N7025 C7017 1.427 . S
N7025 C7023 1.384 . S
H7026 C7032 0.930 . S
H7027 C7036 0.930 . S
H7028 C7041 0.902 1_455 S
H7029 C7039 0.929 . S
H7030 C7034 0.929 . S
H7031 C7040 0.929 . S
C7032 H7026 0.930 . S
C7032 C7033 1.367 . S
C7032 C7040 1.378 . S
C7033 C7032 1.367 . S
C7033 C7041 1.533 . S
C7034 H7030 0.929 . S
C7034 C7036 1.378 . S
C7034 C7038 1.350 . S
C7035 C7038 1.463 . S
C7035 C7040 1.350 1_455 S
C7035 N7043 1.427 . S
C7036 H7027 0.930 . S
C7036 C7034 1.378 . S
C7036 C7037 1.367 . S
C7037 C7036 1.367 . S
C7037 C7039 1.433 . S
C7038 C7034 1.350 . S
C7038 C7035 1.463 . S
C7038 N7042 1.427 . S
C7039 H7029 0.929 . S
C7039 C7037 1.433 . S
C7039 N7042 1.384 . S
C7040 H7031 0.929 . S
C7040 C7032 1.378 . S
C7040 C7035 1.350 1_655 S
C7041 H7028 0.902 1_655 S
C7041 C7033 1.533 . S
C7041 N7043 1.313 1_655 S
N7042 C7038 1.427 . S
N7042 C7039 1.384 . S
N7043 C7035 1.427 . S
N7043 C7041 1.313 1_455 S
H7044 C7050 0.930 . S
H7045 C7054 0.930 . S
H7046 C7059 0.929 . S
H7047 C7057 0.929 . S
H7048 C7052 0.929 . S
H7049 C7058 0.929 . S
C7050 H7044 0.930 . S
C7050 C7051 1.367 . S
C7050 C7058 1.378 . S
C7051 C7050 1.367 . S
C7051 C7059 1.433 . S
C7052 H7048 0.929 . S
C7052 C7054 1.378 . S
C7052 C7056 1.350 . S
C7053 C7056 1.463 . S
C7053 C7058 1.350 . S
C7053 N7061 1.427 . S
C7054 H7045 0.930 . S
C7054 C7052 1.378 . S
C7054 C7055 1.367 . S
C7055 C7054 1.367 . S
C7055 C7057 1.433 . S
C7056 C7052 1.350 . S
C7056 C7053 1.463 . S
C7056 N7060 1.427 . S
C7057 H7047 0.929 . S
C7057 C7055 1.433 . S
C7057 N7060 1.384 . S
C7058 H7049 0.929 . S
C7058 C7050 1.378 . S
C7058 C7053 1.350 . S
C7059 H7046 0.929 . S
C7059 C7051 1.433 . S
C7059 N7061 1.384 . S
N7060 C7056 1.427 . S
N7060 C7057 1.384 . S
N7061 C7053 1.427 . S
N7061 C7059 1.384 . S
H7062 C7068 0.930 . S
H7063 C7072 0.930 . S
H7064 C7077 0.929 . S
H7065 C7075 0.929 . S
H7066 C7070 0.929 . S
H7067 C7076 0.929 . S
C7068 H7062 0.930 . S
C7068 C7069 1.367 . S
C7068 C7076 1.378 . S
C7069 C7068 1.367 . S
C7069 C7077 1.433 . S
C7070 H7066 0.929 . S
C7070 C7072 1.378 . S
C7070 C7074 1.350 . S
C7071 C7074 1.463 . S
C7071 C7076 1.350 . S
C7071 N7079 1.427 . S
C7072 H7063 0.930 . S
C7072 C7070 1.378 . S
C7072 C7073 1.367 . S
C7073 C7072 1.367 . S
C7073 C7075 1.433 . S
C7074 C7070 1.350 . S
C7074 C7071 1.463 . S
C7074 N7078 1.427 . S
C7075 H7065 0.929 . S
C7075 C7073 1.433 . S
C7075 N7078 1.384 . S
C7076 H7067 0.929 . S
C7076 C7068 1.378 . S
C7076 C7071 1.350 . S
C7077 H7064 0.929 . S
C7077 C7069 1.433 . S
C7077 N7079 1.384 . S
N7078 C7074 1.427 . S
N7078 C7075 1.384 . S
N7079 C7071 1.427 . S
N7079 C7077 1.384 . S
H7080 C7086 0.930 . S
H7081 C7090 0.930 . S
H7082 C7095 0.929 . S
H7083 C7093 0.929 . S
H7084 C7088 0.929 . S
H7085 C7094 0.929 . S
C7086 H7080 0.930 . S
C7086 C7087 1.367 . S
C7086 C7094 1.378 . S
C7087 C7086 1.367 . S
C7087 C7095 1.433 . S
C7088 H7084 0.929 . S
C7088 C7090 1.378 . S
C7088 C7092 1.350 . S
C7089 C7092 1.463 . S
C7089 C7094 1.350 . S
C7089 N7097 1.427 . S
C7090 H7081 0.930 . S
C7090 C7088 1.378 . S
C7090 C7091 1.367 . S
C7091 C7090 1.367 . S
C7091 C7093 1.433 . S
C7092 C7088 1.350 . S
C7092 C7089 1.463 . S
C7092 N7096 1.427 . S
C7093 H7083 0.929 . S
C7093 C7091 1.433 . S
C7093 N7096 1.384 . S
C7094 H7085 0.929 . S
C7094 C7086 1.378 . S
C7094 C7089 1.350 . S
C7095 H7082 0.929 . S
C7095 C7087 1.433 . S
C7095 N7097 1.384 . S
N7096 C7092 1.427 . S
N7096 C7093 1.384 . S
N7097 C7089 1.427 . S
N7097 C7095 1.384 . S
H7098 C7104 0.930 . S
H7099 C7108 0.930 . S
H7100 C7113 0.929 . S
H7101 C7111 0.929 . S
H7102 C7106 0.930 1_455 S
H7103 C7112 0.929 . S
C7104 H7098 0.930 . S
C7104 C7105 1.367 . S
C7104 C7112 1.378 1_565 S
C7105 C7104 1.367 . S
C7105 C7113 1.433 . S
C7106 H7102 0.930 1_655 S
C7106 C7108 1.378 . S
C7106 C7110 1.350 1_655 S
C7107 C7110 1.463 . S
C7107 C7112 1.350 . S
C7107 N7115 1.427 1_545 S
C7108 H7099 0.930 . S
C7108 C7106 1.378 . S
C7108 C7109 1.367 . S
C7109 C7108 1.367 . S
C7109 C7111 1.433 . S
C7110 C7106 1.350 1_455 S
C7110 C7107 1.463 . S
C7110 N7114 1.427 . S
C7111 H7101 0.929 . S
C7111 C7109 1.433 . S
C7111 N7114 1.384 1_655 S
C7112 H7103 0.929 . S
C7112 C7104 1.378 1_545 S
C7112 C7107 1.350 . S
C7113 H7100 0.929 . S
C7113 C7105 1.433 . S
C7113 N7115 1.384 . S
N7114 C7110 1.427 . S
N7114 C7111 1.384 1_455 S
N7115 C7107 1.427 1_565 S
N7115 C7113 1.384 . S
H7116 C7122 0.930 . S
H7117 C7126 0.930 . S
H7118 C7131 0.929 . S
H7119 C7129 0.929 . S
H7120 C7124 0.929 . S
H7121 C7130 0.929 . S
C7122 H7116 0.930 . S
C7122 C7123 1.367 . S
C7122 C7130 1.378 . S
C7123 C7122 1.367 . S
C7123 C7131 1.433 . S
C7124 H7120 0.929 . S
C7124 C7126 1.378 . S
C7124 C7128 1.350 . S
C7125 C7128 1.463 . S
C7125 C7130 1.350 . S
C7125 N7133 1.427 . S
C7126 H7117 0.930 . S
C7126 C7124 1.378 . S
C7126 C7127 1.367 . S
C7127 C7126 1.367 . S
C7127 C7129 1.433 . S
C7128 C7124 1.350 . S
C7128 C7125 1.463 . S
C7128 N7132 1.427 . S
C7129 H7119 0.929 . S
C7129 C7127 1.433 . S
C7129 N7132 1.384 . S
C7130 H7121 0.929 . S
C7130 C7122 1.378 . S
C7130 C7125 1.350 . S
C7131 H7118 0.929 . S
C7131 C7123 1.433 . S
C7131 N7133 1.384 . S
N7132 C7128 1.427 . S
N7132 C7129 1.384 . S
N7133 C7125 1.427 . S
N7133 C7131 1.384 . S
H7134 C7140 0.930 . S
H7135 C7144 0.941 . S
H7136 C7149 0.929 . S
H7137 C7147 0.929 . S
H7138 C7142 0.929 . S
H7139 C7148 0.929 . S
C7140 H7134 0.930 . S
C7140 C7141 1.367 . S
C7140 C7148 1.378 . S
C7141 C7140 1.367 . S
C7141 C7149 1.433 . S
C7142 H7138 0.929 . S
C7142 C7144 1.378 1_554 S
C7142 C7146 1.350 . S
C7143 C7146 1.463 . S
C7143 C7148 1.350 . S
C7143 N7151 1.427 . S
C7144 H7135 0.941 . S
C7144 C7142 1.378 1_556 S
C7144 C7145 1.367 . S
C7145 C7144 1.367 . S
C7145 C7147 1.433 . S
C7146 C7142 1.350 . S
C7146 C7143 1.463 . S
C7146 N7150 1.427 1_554 S
C7147 H7137 0.929 . S
C7147 C7145 1.433 . S
C7147 N7150 1.384 . S
C7148 H7139 0.929 . S
C7148 C7140 1.378 . S
C7148 C7143 1.350 . S
C7149 H7136 0.929 . S
C7149 C7141 1.433 . S
C7149 N7151 1.384 . S
N7150 C7146 1.427 1_556 S
N7150 C7147 1.384 . S
N7151 C7143 1.427 . S
N7151 C7149 1.384 . S
H7152 C7158 0.930 . S
H7153 C7162 0.930 . S
H7154 C7167 0.929 . S
H7155 C7165 0.929 . S
H7156 C7160 0.929 . S
H7157 C7166 0.929 . S
C7158 H7152 0.930 . S
C7158 C7159 1.367 . S
C7158 C7166 1.378 . S
C7159 C7158 1.367 . S
C7159 C7167 1.433 . S
C7160 H7156 0.929 . S
C7160 C7162 1.378 . S
C7160 C7164 1.350 . S
C7161 C7164 1.463 . S
C7161 C7166 1.350 . S
C7161 N7169 1.427 . S
C7162 H7153 0.930 . S
C7162 C7160 1.378 . S
C7162 C7163 1.367 . S
C7163 C7162 1.367 . S
C7163 C7165 1.433 . S
C7164 C7160 1.350 . S
C7164 C7161 1.463 . S
C7164 N7168 1.427 . S
C7165 H7155 0.929 . S
C7165 C7163 1.433 . S
C7165 N7168 1.384 . S
C7166 H7157 0.929 . S
C7166 C7158 1.378 . S
C7166 C7161 1.350 . S
C7167 H7154 0.929 . S
C7167 C7159 1.433 . S
C7167 N7169 1.384 . S
N7168 C7164 1.427 . S
N7168 C7165 1.384 . S
N7169 C7161 1.427 . S
N7169 C7167 1.384 . S
H7170 C7176 0.930 . S
H7171 C7180 0.930 . S
H7172 C7185 0.929 . S
H7173 C7183 0.929 . S
H7174 C7178 0.929 . S
H7175 C7184 0.929 . S
C7176 H7170 0.930 . S
C7176 C7177 1.367 . S
C7176 C7184 1.378 1_556 S
C7177 C7176 1.367 . S
C7177 C7185 1.433 . S
C7178 H7174 0.929 . S
C7178 C7180 1.378 . S
C7178 C7182 1.350 . S
C7179 C7182 1.463 . S
C7179 C7184 1.350 . S
C7179 N7187 1.427 1_554 S
C7180 H7171 0.930 . S
C7180 C7178 1.378 . S
C7180 C7181 1.367 . S
C7181 C7180 1.367 . S
C7181 C7183 1.433 . S
C7182 C7178 1.350 . S
C7182 C7179 1.463 . S
C7182 N7186 1.427 . S
C7183 H7173 0.929 . S
C7183 C7181 1.433 . S
C7183 N7186 1.384 . S
C7184 H7175 0.929 . S
C7184 C7176 1.378 1_554 S
C7184 C7179 1.350 . S
C7185 H7172 0.929 . S
C7185 C7177 1.433 . S
C7185 N7187 1.384 . S
N7186 C7182 1.427 . S
N7186 C7183 1.384 . S
N7187 C7179 1.427 1_556 S
N7187 C7185 1.384 . S
H7188 C7194 0.930 . S
H7189 C7198 0.930 . S
H7190 C7203 0.929 . S
H7191 C7201 0.929 . S
H7192 C7196 0.929 . S
H7193 C7202 0.929 . S
C7194 H7188 0.930 . S
C7194 C7195 1.367 . S
C7194 C7202 1.378 . S
C7195 C7194 1.367 . S
C7195 C7203 1.433 . S
C7196 H7192 0.929 . S
C7196 C7198 1.378 . S
C7196 C7200 1.350 . S
C7197 C7200 1.463 . S
C7197 C7202 1.350 . S
C7197 N7205 1.427 . S
C7198 H7189 0.930 . S
C7198 C7196 1.378 . S
C7198 C7199 1.367 . S
C7199 C7198 1.367 . S
C7199 C7201 1.433 . S
C7200 C7196 1.350 . S
C7200 C7197 1.463 . S
C7200 N7204 1.427 . S
C7201 H7191 0.929 . S
C7201 C7199 1.433 . S
C7201 N7204 1.384 . S
C7202 H7193 0.929 . S
C7202 C7194 1.378 . S
C7202 C7197 1.350 . S
C7203 H7190 0.929 . S
C7203 C7195 1.433 . S
C7203 N7205 1.384 . S
N7204 C7200 1.427 . S
N7204 C7201 1.384 . S
N7205 C7197 1.427 . S
N7205 C7203 1.384 . S
H7206 C7212 0.930 . S
H7207 C7216 0.930 . S
H7208 C7221 0.929 . S
H7209 C7219 0.929 . S
H7210 C7214 0.929 . S
H7211 C7220 0.929 . S
C7212 H7206 0.930 . S
C7212 C7213 1.367 . S
C7212 C7220 1.378 . S
C7213 C7212 1.367 . S
C7213 C7221 1.433 . S
C7214 H7210 0.929 . S
C7214 C7216 1.378 . S
C7214 C7218 1.350 . S
C7215 C7218 1.463 . S
C7215 C7220 1.350 . S
C7215 N7223 1.427 . S
C7216 H7207 0.930 . S
C7216 C7214 1.378 . S
C7216 C7217 1.367 . S
C7217 C7216 1.367 . S
C7217 C7219 1.433 . S
C7218 C7214 1.350 . S
C7218 C7215 1.463 . S
C7218 N7222 1.427 . S
C7219 H7209 0.929 . S
C7219 C7217 1.433 . S
C7219 N7222 1.384 . S
C7220 H7211 0.929 . S
C7220 C7212 1.378 . S
C7220 C7215 1.350 . S
C7221 H7208 0.929 . S
C7221 C7213 1.433 . S
C7221 N7223 1.384 . S
N7222 C7218 1.427 . S
N7222 C7219 1.384 . S
N7223 C7215 1.427 . S
N7223 C7221 1.384 . S
H7224 C7230 0.900 1_455 S
H7225 C7234 0.930 . S
H7226 C7239 0.929 . S
H7227 C7237 0.901 1_554 S
H7228 C7232 0.929 . S
H7229 C7238 0.929 . S
C7230 H7224 0.900 1_655 S
C7230 C7231 1.471 . S
C7230 C7238 1.304 1_655 S
C7231 C7230 1.471 . S
C7231 C7239 1.433 . S
C7232 H7228 0.929 . S
C7232 C7234 1.378 . S
C7232 C7236 1.350 1_556 S
C7233 C7236 1.463 . S
C7233 C7238 1.350 . S
C7233 N7241 1.427 1_455 S
C7234 H7225 0.930 . S
C7234 C7232 1.378 . S
C7234 C7235 1.367 . S
C7235 C7234 1.367 . S
C7235 C7237 1.526 . S
C7236 C7232 1.350 1_554 S
C7236 C7233 1.463 . S
C7236 N7240 1.427 . S
C7237 H7227 0.901 1_556 S
C7237 C7235 1.526 . S
C7237 N7240 1.318 1_556 S
C7238 H7229 0.929 . S
C7238 C7230 1.304 1_455 S
C7238 C7233 1.350 . S
C7239 H7226 0.929 . S
C7239 C7231 1.433 . S
C7239 N7241 1.384 . S
N7240 C7236 1.427 . S
N7240 C7237 1.318 1_554 S
N7241 C7233 1.427 1_655 S
N7241 C7239 1.384 . S
H7242 C7248 0.930 . S
H7243 C7252 0.930 . S
H7244 C7257 0.929 . S
H7245 C7255 0.929 . S
H7246 C7250 0.929 . S
H7247 C7256 0.929 . S
C7248 H7242 0.930 . S
C7248 C7249 1.367 . S
C7248 C7256 1.378 . S
C7249 C7248 1.367 . S
C7249 C7257 1.433 . S
C7250 H7246 0.929 . S
C7250 C7252 1.378 . S
C7250 C7254 1.350 . S
C7251 C7254 1.463 . S
C7251 C7256 1.350 . S
C7251 N7259 1.427 . S
C7252 H7243 0.930 . S
C7252 C7250 1.378 . S
C7252 C7253 1.367 . S
C7253 C7252 1.367 . S
C7253 C7255 1.433 . S
C7254 C7250 1.350 . S
C7254 C7251 1.463 . S
C7254 N7258 1.427 . S
C7255 H7245 0.929 . S
C7255 C7253 1.433 . S
C7255 N7258 1.384 . S
C7256 H7247 0.929 . S
C7256 C7248 1.378 . S
C7256 C7251 1.350 . S
C7257 H7244 0.929 . S
C7257 C7249 1.433 . S
C7257 N7259 1.384 . S
N7258 C7254 1.427 . S
N7258 C7255 1.384 . S
N7259 C7251 1.427 . S
N7259 C7257 1.384 . S
H7260 C7266 0.930 . S
H7261 C7270 0.930 . S
H7262 C7275 0.929 . S
H7263 C7273 0.929 . S
H7264 C7268 0.929 . S
H7265 C7274 0.929 . S
C7266 H7260 0.930 . S
C7266 C7267 1.367 . S
C7266 C7274 1.378 . S
C7267 C7266 1.367 . S
C7267 C7275 1.433 . S
C7268 H7264 0.929 . S
C7268 C7270 1.378 . S
C7268 C7272 1.350 . S
C7269 C7272 1.463 . S
C7269 C7274 1.350 . S
C7269 N7277 1.427 . S
C7270 H7261 0.930 . S
C7270 C7268 1.378 . S
C7270 C7271 1.367 . S
C7271 C7270 1.367 . S
C7271 C7273 1.433 . S
C7272 C7268 1.350 . S
C7272 C7269 1.463 . S
C7272 N7276 1.427 . S
C7273 H7263 0.929 . S
C7273 C7271 1.433 . S
C7273 N7276 1.384 . S
C7274 H7265 0.929 . S
C7274 C7266 1.378 . S
C7274 C7269 1.350 . S
C7275 H7262 0.929 . S
C7275 C7267 1.433 . S
C7275 N7277 1.384 . S
N7276 C7272 1.427 . S
N7276 C7273 1.384 . S
N7277 C7269 1.427 . S
N7277 C7275 1.384 . S
H7278 C7284 0.930 . S
H7279 C7288 0.930 . S
H7280 C7293 0.929 . S
H7281 C7291 0.929 . S
H7282 C7286 0.929 . S
H7283 C7292 0.929 . S
C7284 H7278 0.930 . S
C7284 C7285 1.367 . S
C7284 C7292 1.378 . S
C7285 C7284 1.367 . S
C7285 C7293 1.433 . S
C7286 H7282 0.929 . S
C7286 C7288 1.378 . S
C7286 C7290 1.350 . S
C7287 C7290 1.463 . S
C7287 C7292 1.350 . S
C7287 N7295 1.427 . S
C7288 H7279 0.930 . S
C7288 C7286 1.378 . S
C7288 C7289 1.367 . S
C7289 C7288 1.367 . S
C7289 C7291 1.433 . S
C7290 C7286 1.350 . S
C7290 C7287 1.463 . S
C7290 N7294 1.427 . S
C7291 H7281 0.929 . S
C7291 C7289 1.433 . S
C7291 N7294 1.384 . S
C7292 H7283 0.929 . S
C7292 C7284 1.378 . S
C7292 C7287 1.350 . S
C7293 H7280 0.929 . S
C7293 C7285 1.433 . S
C7293 N7295 1.384 . S
N7294 C7290 1.427 . S
N7294 C7291 1.384 . S
N7295 C7287 1.427 . S
N7295 C7293 1.384 . S
H7296 C7302 0.930 . S
H7297 C7306 0.930 . S
H7298 C7311 0.929 . S
H7299 C7309 0.929 . S
H7300 C7304 0.929 . S
H7301 C7310 0.929 . S
C7302 H7296 0.930 . S
C7302 C7303 1.367 . S
C7302 C7310 1.378 . S
C7303 C7302 1.367 . S
C7303 C7311 1.433 . S
C7304 H7300 0.929 . S
C7304 C7306 1.378 . S
C7304 C7308 1.350 . S
C7305 C7308 1.463 . S
C7305 C7310 1.350 . S
C7305 N7313 1.427 . S
C7306 H7297 0.930 . S
C7306 C7304 1.378 . S
C7306 C7307 1.367 . S
C7307 C7306 1.367 . S
C7307 C7309 1.433 . S
C7308 C7304 1.350 . S
C7308 C7305 1.463 . S
C7308 N7312 1.427 . S
C7309 H7299 0.929 . S
C7309 C7307 1.433 . S
C7309 N7312 1.384 . S
C7310 H7301 0.929 . S
C7310 C7302 1.378 . S
C7310 C7305 1.350 . S
C7311 H7298 0.929 . S
C7311 C7303 1.433 . S
C7311 N7313 1.384 . S
N7312 C7308 1.427 . S
N7312 C7309 1.384 . S
N7313 C7305 1.427 . S
N7313 C7311 1.384 . S
H7314 C7320 0.930 . S
H7315 C7324 0.930 . S
H7316 C7329 0.929 . S
H7317 C7327 0.929 . S
H7318 C7322 0.929 . S
H7319 C7328 0.929 . S
C7320 H7314 0.930 . S
C7320 C7321 1.367 . S
C7320 C7328 1.378 1_455 S
C7321 C7320 1.367 . S
C7321 C7329 1.433 . S
C7322 H7318 0.929 . S
C7322 C7324 1.378 . S
C7322 C7326 1.350 . S
C7323 C7326 1.463 . S
C7323 C7328 1.350 . S
C7323 N7331 1.427 1_655 S
C7324 H7315 0.930 . S
C7324 C7322 1.378 . S
C7324 C7325 1.367 . S
C7325 C7324 1.367 . S
C7325 C7327 1.433 . S
C7326 C7322 1.350 . S
C7326 C7323 1.463 . S
C7326 N7330 1.427 . S
C7327 H7317 0.929 . S
C7327 C7325 1.433 . S
C7327 N7330 1.384 . S
C7328 H7319 0.929 . S
C7328 C7320 1.378 1_655 S
C7328 C7323 1.350 . S
C7329 H7316 0.929 . S
C7329 C7321 1.433 . S
C7329 N7331 1.384 . S
N7330 C7326 1.427 . S
N7330 C7327 1.384 . S
N7331 C7323 1.427 1_455 S
N7331 C7329 1.384 . S
H7332 C7338 0.930 . S
H7333 C7342 0.930 . S
H7334 C7347 0.929 . S
H7335 C7345 0.929 . S
H7336 C7340 0.929 . S
H7337 C7346 0.929 . S
C7338 H7332 0.930 . S
C7338 C7339 1.367 . S
C7338 C7346 1.378 . S
C7339 C7338 1.367 . S
C7339 C7347 1.433 . S
C7340 H7336 0.929 . S
C7340 C7342 1.378 . S
C7340 C7344 1.350 . S
C7341 C7344 1.463 . S
C7341 C7346 1.350 . S
C7341 N7349 1.427 . S
C7342 H7333 0.930 . S
C7342 C7340 1.378 . S
C7342 C7343 1.367 . S
C7343 C7342 1.367 . S
C7343 C7345 1.433 . S
C7344 C7340 1.350 . S
C7344 C7341 1.463 . S
C7344 N7348 1.427 . S
C7345 H7335 0.929 . S
C7345 C7343 1.433 . S
C7345 N7348 1.384 . S
C7346 H7337 0.929 . S
C7346 C7338 1.378 . S
C7346 C7341 1.350 . S
C7347 H7334 0.929 . S
C7347 C7339 1.433 . S
C7347 N7349 1.384 . S
N7348 C7344 1.427 . S
N7348 C7345 1.384 . S
N7349 C7341 1.427 . S
N7349 C7347 1.384 . S
H7350 C7356 0.930 . S
H7351 C7360 0.930 . S
H7352 C7365 0.929 . S
H7353 C7363 0.929 . S
H7354 C7358 0.929 . S
H7355 C7364 0.924 1_655 S
C7356 H7350 0.930 . S
C7356 C7357 1.367 . S
C7356 C7364 1.378 . S
C7357 C7356 1.367 . S
C7357 C7365 1.433 . S
C7358 H7354 0.929 . S
C7358 C7360 1.378 1_565 S
C7358 C7362 1.350 . S
C7359 C7362 1.463 . S
C7359 C7364 1.350 1_655 S
C7359 N7367 1.427 . S
C7360 H7351 0.930 . S
C7360 C7358 1.378 1_545 S
C7360 C7361 1.367 . S
C7361 C7360 1.367 . S
C7361 C7363 1.433 . S
C7362 C7358 1.350 . S
C7362 C7359 1.463 . S
C7362 N7366 1.427 1_565 S
C7363 H7353 0.929 . S
C7363 C7361 1.433 . S
C7363 N7366 1.384 . S
C7364 H7355 0.924 1_455 S
C7364 C7356 1.378 . S
C7364 C7359 1.350 1_455 S
C7365 H7352 0.929 . S
C7365 C7357 1.433 . S
C7365 N7367 1.384 1_455 S
N7366 C7362 1.427 1_545 S
N7366 C7363 1.384 . S
N7367 C7359 1.427 . S
N7367 C7365 1.384 1_655 S
H7368 C7374 0.930 . S
H7369 C7378 0.930 . S
H7370 C7383 0.929 . S
H7371 C7381 0.929 . S
H7372 C7376 0.929 . S
H7373 C7382 0.929 . S
C7374 H7368 0.930 . S
C7374 C7375 1.367 . S
C7374 C7382 1.378 . S
C7375 C7374 1.367 . S
C7375 C7383 1.433 . S
C7376 H7372 0.929 . S
C7376 C7378 1.378 . S
C7376 C7380 1.350 . S
C7377 C7380 1.463 . S
C7377 C7382 1.350 . S
C7377 N7385 1.427 . S
C7378 H7369 0.930 . S
C7378 C7376 1.378 . S
C7378 C7379 1.367 . S
C7379 C7378 1.367 . S
C7379 C7381 1.433 . S
C7380 C7376 1.350 . S
C7380 C7377 1.463 . S
C7380 N7384 1.427 . S
C7381 H7371 0.929 . S
C7381 C7379 1.433 . S
C7381 N7384 1.384 . S
C7382 H7373 0.929 . S
C7382 C7374 1.378 . S
C7382 C7377 1.350 . S
C7383 H7370 0.929 . S
C7383 C7375 1.433 . S
C7383 N7385 1.384 . S
N7384 C7380 1.427 . S
N7384 C7381 1.384 . S
N7385 C7377 1.427 . S
N7385 C7383 1.384 . S
H7386 C7392 0.930 . S
H7387 C7396 0.930 . S
H7388 C7401 0.929 . S
H7389 C7399 0.931 . S
H7390 C7394 0.929 . S
H7391 C7400 0.929 . S
C7392 H7386 0.930 . S
C7392 C7393 1.367 . S
C7392 C7400 1.378 . S
C7393 C7392 1.367 . S
C7393 C7401 1.433 . S
C7394 H7390 0.929 . S
C7394 C7396 1.378 . S
C7394 C7398 1.350 1_554 S
C7395 C7398 1.463 . S
C7395 C7400 1.350 . S
C7395 N7403 1.427 . S
C7396 H7387 0.930 . S
C7396 C7394 1.378 . S
C7396 C7397 1.367 . S
C7397 C7396 1.367 . S
C7397 C7399 1.433 . S
C7398 C7394 1.350 1_556 S
C7398 C7395 1.463 . S
C7398 N7402 1.427 . S
C7399 H7389 0.931 . S
C7399 C7397 1.433 . S
C7399 N7402 1.384 1_554 S
C7400 H7391 0.929 . S
C7400 C7392 1.378 . S
C7400 C7395 1.350 . S
C7401 H7388 0.929 . S
C7401 C7393 1.433 . S
C7401 N7403 1.384 . S
N7402 C7398 1.427 . S
N7402 C7399 1.384 1_556 S
N7403 C7395 1.427 . S
N7403 C7401 1.384 . S
H7404 C7410 0.930 . S
H7405 C7414 0.930 . S
H7406 C7419 0.929 . S
H7407 C7417 0.929 . S
H7408 C7412 0.929 . S
H7409 C7418 0.929 . S
C7410 H7404 0.930 . S
C7410 C7411 1.367 . S
C7410 C7418 1.378 1_554 S
C7411 C7410 1.367 . S
C7411 C7419 1.433 . S
C7412 H7408 0.929 . S
C7412 C7414 1.378 . S
C7412 C7416 1.350 . S
C7413 C7416 1.463 . S
C7413 C7418 1.350 . S
C7413 N7421 1.427 1_556 S
C7414 H7405 0.930 . S
C7414 C7412 1.378 . S
C7414 C7415 1.367 . S
C7415 C7414 1.367 . S
C7415 C7417 1.433 . S
C7416 C7412 1.350 . S
C7416 C7413 1.463 . S
C7416 N7420 1.427 . S
C7417 H7407 0.929 . S
C7417 C7415 1.433 . S
C7417 N7420 1.384 . S
C7418 H7409 0.929 . S
C7418 C7410 1.378 1_556 S
C7418 C7413 1.350 . S
C7419 H7406 0.929 . S
C7419 C7411 1.433 . S
C7419 N7421 1.384 . S
N7420 C7416 1.427 . S
N7420 C7417 1.384 . S
N7421 C7413 1.427 1_554 S
N7421 C7419 1.384 . S
H7422 C7428 0.930 . S
H7423 C7432 0.930 . S
H7424 C7437 0.929 . S
H7425 C7435 0.929 . S
H7426 C7430 0.929 . S
H7427 C7436 0.929 . S
C7428 H7422 0.930 . S
C7428 C7429 1.367 . S
C7428 C7436 1.378 . S
C7429 C7428 1.367 . S
C7429 C7437 1.433 . S
C7430 H7426 0.929 . S
C7430 C7432 1.378 . S
C7430 C7434 1.350 . S
C7431 C7434 1.463 . S
C7431 C7436 1.350 . S
C7431 N7439 1.427 . S
C7432 H7423 0.930 . S
C7432 C7430 1.378 . S
C7432 C7433 1.367 . S
C7433 C7432 1.367 . S
C7433 C7435 1.433 . S
C7434 C7430 1.350 . S
C7434 C7431 1.463 . S
C7434 N7438 1.427 . S
C7435 H7425 0.929 . S
C7435 C7433 1.433 . S
C7435 N7438 1.384 . S
C7436 H7427 0.929 . S
C7436 C7428 1.378 . S
C7436 C7431 1.350 . S
C7437 H7424 0.929 . S
C7437 C7429 1.433 . S
C7437 N7439 1.384 . S
N7438 C7434 1.427 . S
N7438 C7435 1.384 . S
N7439 C7431 1.427 . S
N7439 C7437 1.384 . S
H7440 C7446 0.930 . S
H7441 C7450 0.930 . S
H7442 C7455 0.929 . S
H7443 C7453 0.929 . S
H7444 C7448 0.929 . S
H7445 C7454 0.929 . S
C7446 H7440 0.930 . S
C7446 C7447 1.367 . S
C7446 C7454 1.378 . S
C7447 C7446 1.367 . S
C7447 C7455 1.433 . S
C7448 H7444 0.929 . S
C7448 C7450 1.378 . S
C7448 C7452 1.350 1_565 S
C7449 C7452 1.463 . S
C7449 C7454 1.350 . S
C7449 N7457 1.427 . S
C7450 H7441 0.930 . S
C7450 C7448 1.378 . S
C7450 C7451 1.367 . S
C7451 C7450 1.367 . S
C7451 C7453 1.433 . S
C7452 C7448 1.350 1_545 S
C7452 C7449 1.463 . S
C7452 N7456 1.427 . S
C7453 H7443 0.929 . S
C7453 C7451 1.433 . S
C7453 N7456 1.384 1_565 S
C7454 H7445 0.929 . S
C7454 C7446 1.378 . S
C7454 C7449 1.350 . S
C7455 H7442 0.929 . S
C7455 C7447 1.433 . S
C7455 N7457 1.384 . S
N7456 C7452 1.427 . S
N7456 C7453 1.384 1_545 S
N7457 C7449 1.427 . S
N7457 C7455 1.384 . S
H7458 C7464 0.930 . S
H7459 C7468 0.930 . S
H7460 C7473 0.929 . S
H7461 C7471 0.929 . S
H7462 C7466 0.929 . S
H7463 C7472 0.929 . S
C7464 H7458 0.930 . S
C7464 C7465 1.367 . S
C7464 C7472 1.378 . S
C7465 C7464 1.367 . S
C7465 C7473 1.433 . S
C7466 H7462 0.929 . S
C7466 C7468 1.378 . S
C7466 C7470 1.350 . S
C7467 C7470 1.463 . S
C7467 C7472 1.350 . S
C7467 N7475 1.427 . S
C7468 H7459 0.930 . S
C7468 C7466 1.378 . S
C7468 C7469 1.367 . S
C7469 C7468 1.367 . S
C7469 C7471 1.433 . S
C7470 C7466 1.350 . S
C7470 C7467 1.463 . S
C7470 N7474 1.427 . S
C7471 H7461 0.929 . S
C7471 C7469 1.433 . S
C7471 N7474 1.384 . S
C7472 H7463 0.929 . S
C7472 C7464 1.378 . S
C7472 C7467 1.350 . S
C7473 H7460 0.929 . S
C7473 C7465 1.433 . S
C7473 N7475 1.384 . S
N7474 C7470 1.427 . S
N7474 C7471 1.384 . S
N7475 C7467 1.427 . S
N7475 C7473 1.384 . S
H7476 C7482 0.930 . S
H7477 C7486 0.930 . S
H7478 C7491 0.929 . S
H7479 C7489 0.929 . S
H7480 C7484 0.929 . S
H7481 C7490 0.929 . S
C7482 H7476 0.930 . S
C7482 C7483 1.367 . S
C7482 C7490 1.378 . S
C7483 C7482 1.367 . S
C7483 C7491 1.433 . S
C7484 H7480 0.929 . S
C7484 C7486 1.378 . S
C7484 C7488 1.350 . S
C7485 C7488 1.463 . S
C7485 C7490 1.350 . S
C7485 N7493 1.427 . S
C7486 H7477 0.930 . S
C7486 C7484 1.378 . S
C7486 C7487 1.367 . S
C7487 C7486 1.367 . S
C7487 C7489 1.433 . S
C7488 C7484 1.350 . S
C7488 C7485 1.463 . S
C7488 N7492 1.427 . S
C7489 H7479 0.929 . S
C7489 C7487 1.433 . S
C7489 N7492 1.384 . S
C7490 H7481 0.929 . S
C7490 C7482 1.378 . S
C7490 C7485 1.350 . S
C7491 H7478 0.929 . S
C7491 C7483 1.433 . S
C7491 N7493 1.384 . S
N7492 C7488 1.427 . S
N7492 C7489 1.384 . S
N7493 C7485 1.427 . S
N7493 C7491 1.384 . S
H7494 C7500 0.930 . S
H7495 C7504 0.930 . S
H7496 C7509 0.929 . S
H7497 C7507 0.929 . S
H7498 C7502 0.929 . S
H7499 C7508 0.929 . S
C7500 H7494 0.930 . S
C7500 C7501 1.367 . S
C7500 C7508 1.378 1_556 S
C7501 C7500 1.367 . S
C7501 C7509 1.433 . S
C7502 H7498 0.929 . S
C7502 C7504 1.378 . S
C7502 C7506 1.350 1_565 S
C7503 C7506 1.463 . S
C7503 C7508 1.350 . S
C7503 N7511 1.427 1_554 S
C7504 H7495 0.930 . S
C7504 C7502 1.378 . S
C7504 C7505 1.367 . S
C7505 C7504 1.367 . S
C7505 C7507 1.433 . S
C7506 C7502 1.350 1_545 S
C7506 C7503 1.463 . S
C7506 N7510 1.427 . S
C7507 H7497 0.929 . S
C7507 C7505 1.433 . S
C7507 N7510 1.384 1_565 S
C7508 H7499 0.929 . S
C7508 C7500 1.378 1_554 S
C7508 C7503 1.350 . S
C7509 H7496 0.929 . S
C7509 C7501 1.433 . S
C7509 N7511 1.384 . S
N7510 C7506 1.427 . S
N7510 C7507 1.384 1_545 S
N7511 C7503 1.427 1_556 S
N7511 C7509 1.384 . S
H7512 C7518 0.930 . S
H7513 C7522 0.930 . S
H7514 C7527 0.929 . S
H7515 C7525 0.929 . S
H7516 C7520 0.929 . S
H7517 C7526 0.929 . S
C7518 H7512 0.930 . S
C7518 C7519 1.367 . S
C7518 C7526 1.378 . S
C7519 C7518 1.367 . S
C7519 C7527 1.433 . S
C7520 H7516 0.929 . S
C7520 C7522 1.378 . S
C7520 C7524 1.350 . S
C7521 C7524 1.463 . S
C7521 C7526 1.350 . S
C7521 N7529 1.427 . S
C7522 H7513 0.930 . S
C7522 C7520 1.378 . S
C7522 C7523 1.367 . S
C7523 C7522 1.367 . S
C7523 C7525 1.433 . S
C7524 C7520 1.350 . S
C7524 C7521 1.463 . S
C7524 N7528 1.427 . S
C7525 H7515 0.929 . S
C7525 C7523 1.433 . S
C7525 N7528 1.384 . S
C7526 H7517 0.929 . S
C7526 C7518 1.378 . S
C7526 C7521 1.350 . S
C7527 H7514 0.929 . S
C7527 C7519 1.433 . S
C7527 N7529 1.384 . S
N7528 C7524 1.427 . S
N7528 C7525 1.384 . S
N7529 C7521 1.427 . S
N7529 C7527 1.384 . S
H7530 C7536 0.930 . S
H7531 C7540 0.930 . S
H7532 C7545 0.929 . S
H7533 C7543 0.929 . S
H7534 C7538 0.929 . S
H7535 C7544 0.929 . S
C7536 H7530 0.930 . S
C7536 C7537 1.367 . S
C7536 C7544 1.378 . S
C7537 C7536 1.367 . S
C7537 C7545 1.433 . S
C7538 H7534 0.929 . S
C7538 C7540 1.378 . S
C7538 C7542 1.350 . S
C7539 C7542 1.463 . S
C7539 C7544 1.350 . S
C7539 N7547 1.427 . S
C7540 H7531 0.930 . S
C7540 C7538 1.378 . S
C7540 C7541 1.367 . S
C7541 C7540 1.367 . S
C7541 C7543 1.433 . S
C7542 C7538 1.350 . S
C7542 C7539 1.463 . S
C7542 N7546 1.427 . S
C7543 H7533 0.929 . S
C7543 C7541 1.433 . S
C7543 N7546 1.384 . S
C7544 H7535 0.929 . S
C7544 C7536 1.378 . S
C7544 C7539 1.350 . S
C7545 H7532 0.929 . S
C7545 C7537 1.433 . S
C7545 N7547 1.384 . S
N7546 C7542 1.427 . S
N7546 C7543 1.384 . S
N7547 C7539 1.427 . S
N7547 C7545 1.384 . S
H7548 C7554 0.930 . S
H7549 C7558 0.930 . S
H7550 C7563 0.929 . S
H7551 C7561 0.929 . S
H7552 C7556 0.929 . S
H7553 C7562 0.929 . S
C7554 H7548 0.930 . S
C7554 C7555 1.367 . S
C7554 C7562 1.378 . S
C7555 C7554 1.367 . S
C7555 C7563 1.433 . S
C7556 H7552 0.929 . S
C7556 C7558 1.378 . S
C7556 C7560 1.350 . S
C7557 C7560 1.463 . S
C7557 C7562 1.350 . S
C7557 N7565 1.427 . S
C7558 H7549 0.930 . S
C7558 C7556 1.378 . S
C7558 C7559 1.367 . S
C7559 C7558 1.367 . S
C7559 C7561 1.433 . S
C7560 C7556 1.350 . S
C7560 C7557 1.463 . S
C7560 N7564 1.427 . S
C7561 H7551 0.929 . S
C7561 C7559 1.433 . S
C7561 N7564 1.384 . S
C7562 H7553 0.929 . S
C7562 C7554 1.378 . S
C7562 C7557 1.350 . S
C7563 H7550 0.929 . S
C7563 C7555 1.433 . S
C7563 N7565 1.384 . S
N7564 C7560 1.427 . S
N7564 C7561 1.384 . S
N7565 C7557 1.427 . S
N7565 C7563 1.384 . S
H7566 C7572 0.945 . S
H7567 C7576 0.930 . S
H7568 C7581 0.929 . S
H7569 C7579 0.929 . S
H7570 C7574 0.929 . S
H7571 C7580 0.929 . S
C7572 H7566 0.945 . S
C7572 C7573 1.367 . S
C7572 C7580 1.378 1_545 S
C7573 C7572 1.367 . S
C7573 C7581 1.433 . S
C7574 H7570 0.929 . S
C7574 C7576 1.378 . S
C7574 C7578 1.350 . S
C7575 C7578 1.463 . S
C7575 C7580 1.350 . S
C7575 N7583 1.427 1_565 S
C7576 H7567 0.930 . S
C7576 C7574 1.378 . S
C7576 C7577 1.367 . S
C7577 C7576 1.367 . S
C7577 C7579 1.433 . S
C7578 C7574 1.350 . S
C7578 C7575 1.463 . S
C7578 N7582 1.427 . S
C7579 H7569 0.929 . S
C7579 C7577 1.433 . S
C7579 N7582 1.384 . S
C7580 H7571 0.929 . S
C7580 C7572 1.378 1_565 S
C7580 C7575 1.350 . S
C7581 H7568 0.929 . S
C7581 C7573 1.433 . S
C7581 N7583 1.384 . S
N7582 C7578 1.427 . S
N7582 C7579 1.384 . S
N7583 C7575 1.427 1_545 S
N7583 C7581 1.384 . S
H7584 C7590 0.930 . S
H7585 C7594 0.930 . S
H7586 C7599 0.929 . S
H7587 C7597 0.929 . S
H7588 C7592 0.929 . S
H7589 C7598 0.929 . S
C7590 H7584 0.930 . S
C7590 C7591 1.367 . S
C7590 C7598 1.378 . S
C7591 C7590 1.367 . S
C7591 C7599 1.433 . S
C7592 H7588 0.929 . S
C7592 C7594 1.378 . S
C7592 C7596 1.350 . S
C7593 C7596 1.463 . S
C7593 C7598 1.350 . S
C7593 N7601 1.427 . S
C7594 H7585 0.930 . S
C7594 C7592 1.378 . S
C7594 C7595 1.367 . S
C7595 C7594 1.367 . S
C7595 C7597 1.433 . S
C7596 C7592 1.350 . S
C7596 C7593 1.463 . S
C7596 N7600 1.427 . S
C7597 H7587 0.929 . S
C7597 C7595 1.433 . S
C7597 N7600 1.384 . S
C7598 H7589 0.929 . S
C7598 C7590 1.378 . S
C7598 C7593 1.350 . S
C7599 H7586 0.929 . S
C7599 C7591 1.433 . S
C7599 N7601 1.384 . S
N7600 C7596 1.427 . S
N7600 C7597 1.384 . S
N7601 C7593 1.427 . S
N7601 C7599 1.384 . S
H7602 C7608 0.930 . S
H7603 C7612 0.930 . S
H7604 C7617 0.929 . S
H7605 C7615 0.929 . S
H7606 C7610 0.958 . S
H7607 C7616 0.929 . S
C7608 H7602 0.930 . S
C7608 C7609 1.367 . S
C7608 C7616 1.378 . S
C7609 C7608 1.367 . S
C7609 C7617 1.433 . S
C7610 H7606 0.958 . S
C7610 C7612 1.332 1_565 S
C7610 C7614 1.370 . S
C7611 C7614 1.463 . S
C7611 C7616 1.350 . S
C7611 N7619 1.427 . S
C7612 H7603 0.930 . S
C7612 C7610 1.332 1_545 S
C7612 C7613 1.367 . S
C7613 C7612 1.367 . S
C7613 C7615 1.433 . S
C7614 C7610 1.370 . S
C7614 C7611 1.463 . S
C7614 N7618 1.397 1_565 S
C7615 H7605 0.929 . S
C7615 C7613 1.433 . S
C7615 N7618 1.443 . S
C7616 H7607 0.929 . S
C7616 C7608 1.378 . S
C7616 C7611 1.350 . S
C7617 H7604 0.929 . S
C7617 C7609 1.433 . S
C7617 N7619 1.384 . S
N7618 C7614 1.397 1_545 S
N7618 C7615 1.443 . S
N7619 C7611 1.427 . S
N7619 C7617 1.384 . S
H7620 C7626 0.930 . S
H7621 C7630 0.930 . S
H7622 C7635 0.929 . S
H7623 C7633 0.929 . S
H7624 C7628 0.929 . S
H7625 C7634 0.929 . S
C7626 H7620 0.930 . S
C7626 C7627 1.367 . S
C7626 C7634 1.378 . S
C7627 C7626 1.367 . S
C7627 C7635 1.433 . S
C7628 H7624 0.929 . S
C7628 C7630 1.378 . S
C7628 C7632 1.350 . S
C7629 C7632 1.463 . S
C7629 C7634 1.350 . S
C7629 N7637 1.427 . S
C7630 H7621 0.930 . S
C7630 C7628 1.378 . S
C7630 C7631 1.367 . S
C7631 C7630 1.367 . S
C7631 C7633 1.433 . S
C7632 C7628 1.350 . S
C7632 C7629 1.463 . S
C7632 N7636 1.427 . S
C7633 H7623 0.929 . S
C7633 C7631 1.433 . S
C7633 N7636 1.384 . S
C7634 H7625 0.929 . S
C7634 C7626 1.378 . S
C7634 C7629 1.350 . S
C7635 H7622 0.929 . S
C7635 C7627 1.433 . S
C7635 N7637 1.384 . S
N7636 C7632 1.427 . S
N7636 C7633 1.384 . S
N7637 C7629 1.427 . S
N7637 C7635 1.384 . S
H7638 C7644 0.930 . S
H7639 C7648 0.930 . S
H7640 C7653 0.929 . S
H7641 C7651 0.929 . S
H7642 C7646 0.929 . S
H7643 C7652 0.929 . S
C7644 H7638 0.930 . S
C7644 C7645 1.367 . S
C7644 C7652 1.378 . S
C7645 C7644 1.367 . S
C7645 C7653 1.433 . S
C7646 H7642 0.929 . S
C7646 C7648 1.378 . S
C7646 C7650 1.350 . S
C7647 C7650 1.463 . S
C7647 C7652 1.350 . S
C7647 N7655 1.427 . S
C7648 H7639 0.930 . S
C7648 C7646 1.378 . S
C7648 C7649 1.367 . S
C7649 C7648 1.367 . S
C7649 C7651 1.433 . S
C7650 C7646 1.350 . S
C7650 C7647 1.463 . S
C7650 N7654 1.427 . S
C7651 H7641 0.929 . S
C7651 C7649 1.433 . S
C7651 N7654 1.384 . S
C7652 H7643 0.929 . S
C7652 C7644 1.378 . S
C7652 C7647 1.350 . S
C7653 H7640 0.929 . S
C7653 C7645 1.433 . S
C7653 N7655 1.384 . S
N7654 C7650 1.427 . S
N7654 C7651 1.384 . S
N7655 C7647 1.427 . S
N7655 C7653 1.384 . S
H7656 C7662 0.930 . S
H7657 C7666 0.930 . S
H7658 C7671 0.929 . S
H7659 C7669 0.929 . S
H7660 C7664 0.929 . S
H7661 C7670 0.929 . S
C7662 H7656 0.930 . S
C7662 C7663 1.367 . S
C7662 C7670 1.378 . S
C7663 C7662 1.367 . S
C7663 C7671 1.433 . S
C7664 H7660 0.929 . S
C7664 C7666 1.378 . S
C7664 C7668 1.350 . S
C7665 C7668 1.463 . S
C7665 C7670 1.350 . S
C7665 N7673 1.427 . S
C7666 H7657 0.930 . S
C7666 C7664 1.378 . S
C7666 C7667 1.367 . S
C7667 C7666 1.367 . S
C7667 C7669 1.433 . S
C7668 C7664 1.350 . S
C7668 C7665 1.463 . S
C7668 N7672 1.427 . S
C7669 H7659 0.929 . S
C7669 C7667 1.433 . S
C7669 N7672 1.384 . S
C7670 H7661 0.929 . S
C7670 C7662 1.378 . S
C7670 C7665 1.350 . S
C7671 H7658 0.929 . S
C7671 C7663 1.433 . S
C7671 N7673 1.384 . S
N7672 C7668 1.427 . S
N7672 C7669 1.384 . S
N7673 C7665 1.427 . S
N7673 C7671 1.384 . S
H7674 C7680 0.930 . S
H7675 C7684 0.918 1_556 S
H7676 C7689 0.917 1_565 S
H7677 C7687 0.929 . S
H7678 C7682 0.929 . S
H7679 C7688 0.929 . S
C7680 H7674 0.930 . S
C7680 C7681 1.367 . S
C7680 C7688 1.378 . S
C7681 C7680 1.367 . S
C7681 C7689 1.433 . S
C7682 H7678 0.929 . S
C7682 C7684 1.378 1_556 S
C7682 C7686 1.350 . S
C7683 C7686 1.463 . S
C7683 C7688 1.350 1_565 S
C7683 N7691 1.427 . S
C7684 H7675 0.918 1_554 S
C7684 C7682 1.378 1_554 S
C7684 C7685 1.367 . S
C7685 C7684 1.367 . S
C7685 C7687 1.433 . S
C7686 C7682 1.350 . S
C7686 C7683 1.463 . S
C7686 N7690 1.427 1_556 S
C7687 H7677 0.929 . S
C7687 C7685 1.433 . S
C7687 N7690 1.384 . S
C7688 H7679 0.929 . S
C7688 C7680 1.378 . S
C7688 C7683 1.350 1_545 S
C7689 H7676 0.917 1_545 S
C7689 C7681 1.433 . S
C7689 N7691 1.384 1_545 S
N7690 C7686 1.427 1_554 S
N7690 C7687 1.384 . S
N7691 C7683 1.427 . S
N7691 C7689 1.384 1_565 S
H7692 C7698 0.930 . S
H7693 C7702 0.930 . S
H7694 C7707 0.929 . S
H7695 C7705 0.929 . S
H7696 C7700 0.929 . S
H7697 C7706 0.929 . S
C7698 H7692 0.930 . S
C7698 C7699 1.367 . S
C7698 C7706 1.378 . S
C7699 C7698 1.367 . S
C7699 C7707 1.433 . S
C7700 H7696 0.929 . S
C7700 C7702 1.378 . S
C7700 C7704 1.350 . S
C7701 C7704 1.463 . S
C7701 C7706 1.350 . S
C7701 N7709 1.427 . S
C7702 H7693 0.930 . S
C7702 C7700 1.378 . S
C7702 C7703 1.367 . S
C7703 C7702 1.367 . S
C7703 C7705 1.433 . S
C7704 C7700 1.350 . S
C7704 C7701 1.463 . S
C7704 N7708 1.427 . S
C7705 H7695 0.929 . S
C7705 C7703 1.433 . S
C7705 N7708 1.384 . S
C7706 H7697 0.929 . S
C7706 C7698 1.378 . S
C7706 C7701 1.350 . S
C7707 H7694 0.929 . S
C7707 C7699 1.433 . S
C7707 N7709 1.384 . S
N7708 C7704 1.427 . S
N7708 C7705 1.384 . S
N7709 C7701 1.427 . S
N7709 C7707 1.384 . S
H7710 C7716 0.930 . S
H7711 C7720 0.930 . S
H7712 C7725 0.929 . S
H7713 C7723 0.929 . S
H7714 C7718 0.929 . S
H7715 C7724 0.929 . S
C7716 H7710 0.930 . S
C7716 C7717 1.367 . S
C7716 C7724 1.378 1_565 S
C7717 C7716 1.367 . S
C7717 C7725 1.433 . S
C7718 H7714 0.929 . S
C7718 C7720 1.378 . S
C7718 C7722 1.350 . S
C7719 C7722 1.463 . S
C7719 C7724 1.350 . S
C7719 N7727 1.427 1_545 S
C7720 H7711 0.930 . S
C7720 C7718 1.378 . S
C7720 C7721 1.367 . S
C7721 C7720 1.367 . S
C7721 C7723 1.433 . S
C7722 C7718 1.350 . S
C7722 C7719 1.463 . S
C7722 N7726 1.427 . S
C7723 H7713 0.929 . S
C7723 C7721 1.433 . S
C7723 N7726 1.384 . S
C7724 H7715 0.929 . S
C7724 C7716 1.378 1_545 S
C7724 C7719 1.350 . S
C7725 H7712 0.929 . S
C7725 C7717 1.433 . S
C7725 N7727 1.384 . S
N7726 C7722 1.427 . S
N7726 C7723 1.384 . S
N7727 C7719 1.427 1_565 S
N7727 C7725 1.384 . S
H7728 C7734 0.930 . S
H7729 C7738 0.930 . S
H7730 C7743 0.929 . S
H7731 C7741 0.929 . S
H7732 C7736 0.929 . S
H7733 C7742 0.929 . S
C7734 H7728 0.930 . S
C7734 C7735 1.367 . S
C7734 C7742 1.378 . S
C7735 C7734 1.367 . S
C7735 C7743 1.433 . S
C7736 H7732 0.929 . S
C7736 C7738 1.378 . S
C7736 C7740 1.350 . S
C7737 C7740 1.463 . S
C7737 C7742 1.350 . S
C7737 N7745 1.427 . S
C7738 H7729 0.930 . S
C7738 C7736 1.378 . S
C7738 C7739 1.367 . S
C7739 C7738 1.367 . S
C7739 C7741 1.433 . S
C7740 C7736 1.350 . S
C7740 C7737 1.463 . S
C7740 N7744 1.427 . S
C7741 H7731 0.929 . S
C7741 C7739 1.433 . S
C7741 N7744 1.384 . S
C7742 H7733 0.929 . S
C7742 C7734 1.378 . S
C7742 C7737 1.350 . S
C7743 H7730 0.929 . S
C7743 C7735 1.433 . S
C7743 N7745 1.384 . S
N7744 C7740 1.427 . S
N7744 C7741 1.384 . S
N7745 C7737 1.427 . S
N7745 C7743 1.384 . S
H7746 C7752 0.930 . S
H7747 C7756 0.930 . S
H7748 C7761 0.929 . S
H7749 C7759 0.929 . S
H7750 C7754 0.929 . S
H7751 C7760 0.929 . S
C7752 H7746 0.930 . S
C7752 C7753 1.367 . S
C7752 C7760 1.378 . S
C7753 C7752 1.367 . S
C7753 C7761 1.433 . S
C7754 H7750 0.929 . S
C7754 C7756 1.378 . S
C7754 C7758 1.350 . S
C7755 C7758 1.463 . S
C7755 C7760 1.350 . S
C7755 N7763 1.427 . S
C7756 H7747 0.930 . S
C7756 C7754 1.378 . S
C7756 C7757 1.367 . S
C7757 C7756 1.367 . S
C7757 C7759 1.433 . S
C7758 C7754 1.350 . S
C7758 C7755 1.463 . S
C7758 N7762 1.427 . S
C7759 H7749 0.929 . S
C7759 C7757 1.433 . S
C7759 N7762 1.384 . S
C7760 H7751 0.929 . S
C7760 C7752 1.378 . S
C7760 C7755 1.350 . S
C7761 H7748 0.929 . S
C7761 C7753 1.433 . S
C7761 N7763 1.384 . S
N7762 C7758 1.427 . S
N7762 C7759 1.384 . S
N7763 C7755 1.427 . S
N7763 C7761 1.384 . S
H7764 C7770 0.930 . S
H7765 C7774 0.930 . S
H7766 C7779 0.929 . S
H7767 C7777 0.929 . S
H7768 C7772 0.929 . S
H7769 C7778 0.929 . S
C7770 H7764 0.930 . S
C7770 C7771 1.367 . S
C7770 C7778 1.378 . S
C7771 C7770 1.367 . S
C7771 C7779 1.433 . S
C7772 H7768 0.929 . S
C7772 C7774 1.378 . S
C7772 C7776 1.350 . S
C7773 C7776 1.463 . S
C7773 C7778 1.350 . S
C7773 N7781 1.427 . S
C7774 H7765 0.930 . S
C7774 C7772 1.378 . S
C7774 C7775 1.367 . S
C7775 C7774 1.367 . S
C7775 C7777 1.433 . S
C7776 C7772 1.350 . S
C7776 C7773 1.463 . S
C7776 N7780 1.427 . S
C7777 H7767 0.929 . S
C7777 C7775 1.433 . S
C7777 N7780 1.384 . S
C7778 H7769 0.929 . S
C7778 C7770 1.378 . S
C7778 C7773 1.350 . S
C7779 H7766 0.929 . S
C7779 C7771 1.433 . S
C7779 N7781 1.384 . S
N7780 C7776 1.427 . S
N7780 C7777 1.384 . S
N7781 C7773 1.427 . S
N7781 C7779 1.384 . S
H7782 C7788 0.930 . S
H7783 C7792 0.930 . S
H7784 C7797 0.929 . S
H7785 C7795 0.929 . S
H7786 C7790 0.929 . S
H7787 C7796 0.931 1_554 S
C7788 H7782 0.930 . S
C7788 C7789 1.367 . S
C7788 C7796 1.374 . S
C7789 C7788 1.367 . S
C7789 C7797 1.433 . S
C7790 H7786 0.929 . S
C7790 C7792 1.378 . S
C7790 C7794 1.350 . S
C7791 C7794 1.463 . S
C7791 C7796 1.352 1_554 S
C7791 N7799 1.428 1_554 S
C7792 H7783 0.930 . S
C7792 C7790 1.378 . S
C7792 C7793 1.367 . S
C7793 C7792 1.367 . S
C7793 C7795 1.433 . S
C7794 C7790 1.350 . S
C7794 C7791 1.463 . S
C7794 N7798 1.427 . S
C7795 H7785 0.929 . S
C7795 C7793 1.433 . S
C7795 N7798 1.384 . S
C7796 H7787 0.931 1_556 S
C7796 C7788 1.374 . S
C7796 C7791 1.352 1_556 S
C7797 H7784 0.929 . S
C7797 C7789 1.433 . S
C7797 N7799 1.382 . S
N7798 C7794 1.427 . S
N7798 C7795 1.384 . S
N7799 C7791 1.428 1_556 S
N7799 C7797 1.382 . S
H7800 C7806 0.930 . S
H7801 C7810 0.930 . S
H7802 C7815 0.929 . S
H7803 C7813 0.929 . S
H7804 C7808 0.929 . S
H7805 C7814 0.929 . S
C7806 H7800 0.930 . S
C7806 C7807 1.367 . S
C7806 C7814 1.378 . S
C7807 C7806 1.367 . S
C7807 C7815 1.433 . S
C7808 H7804 0.929 . S
C7808 C7810 1.378 . S
C7808 C7812 1.350 . S
C7809 C7812 1.463 . S
C7809 C7814 1.350 . S
C7809 N7817 1.427 . S
C7810 H7801 0.930 . S
C7810 C7808 1.378 . S
C7810 C7811 1.367 . S
C7811 C7810 1.367 . S
C7811 C7813 1.433 . S
C7812 C7808 1.350 . S
C7812 C7809 1.463 . S
C7812 N7816 1.427 . S
C7813 H7803 0.929 . S
C7813 C7811 1.433 . S
C7813 N7816 1.384 . S
C7814 H7805 0.929 . S
C7814 C7806 1.378 . S
C7814 C7809 1.350 . S
C7815 H7802 0.929 . S
C7815 C7807 1.433 . S
C7815 N7817 1.384 . S
N7816 C7812 1.427 . S
N7816 C7813 1.384 . S
N7817 C7809 1.427 . S
N7817 C7815 1.384 . S
H7818 C7824 0.930 . S
H7819 C7828 0.930 . S
H7820 C7833 0.929 . S
H7821 C7831 0.929 . S
H7822 C7826 0.929 . S
H7823 C7832 0.929 . S
C7824 H7818 0.930 . S
C7824 C7825 1.367 . S
C7824 C7832 1.378 . S
C7825 C7824 1.367 . S
C7825 C7833 1.433 . S
C7826 H7822 0.929 . S
C7826 C7828 1.378 . S
C7826 C7830 1.350 . S
C7827 C7830 1.463 . S
C7827 C7832 1.350 . S
C7827 N7835 1.427 . S
C7828 H7819 0.930 . S
C7828 C7826 1.378 . S
C7828 C7829 1.367 . S
C7829 C7828 1.367 . S
C7829 C7831 1.433 . S
C7830 C7826 1.350 . S
C7830 C7827 1.463 . S
C7830 N7834 1.427 . S
C7831 H7821 0.929 . S
C7831 C7829 1.433 . S
C7831 N7834 1.384 . S
C7832 H7823 0.929 . S
C7832 C7824 1.378 . S
C7832 C7827 1.350 . S
C7833 H7820 0.929 . S
C7833 C7825 1.433 . S
C7833 N7835 1.384 . S
N7834 C7830 1.427 . S
N7834 C7831 1.384 . S
N7835 C7827 1.427 . S
N7835 C7833 1.384 . S
H7836 C7842 0.930 . S
H7837 C7846 0.930 . S
H7838 C7851 0.929 . S
H7839 C7849 0.929 . S
H7840 C7844 0.929 . S
H7841 C7850 0.929 . S
C7842 H7836 0.930 . S
C7842 C7843 1.367 . S
C7842 C7850 1.378 . S
C7843 C7842 1.367 . S
C7843 C7851 1.433 . S
C7844 H7840 0.929 . S
C7844 C7846 1.378 . S
C7844 C7848 1.350 . S
C7845 C7848 1.463 . S
C7845 C7850 1.350 . S
C7845 N7853 1.427 . S
C7846 H7837 0.930 . S
C7846 C7844 1.378 . S
C7846 C7847 1.367 . S
C7847 C7846 1.367 . S
C7847 C7849 1.433 . S
C7848 C7844 1.350 . S
C7848 C7845 1.463 . S
C7848 N7852 1.427 . S
C7849 H7839 0.929 . S
C7849 C7847 1.433 . S
C7849 N7852 1.384 . S
C7850 H7841 0.929 . S
C7850 C7842 1.378 . S
C7850 C7845 1.350 . S
C7851 H7838 0.929 . S
C7851 C7843 1.433 . S
C7851 N7853 1.384 . S
N7852 C7848 1.427 . S
N7852 C7849 1.384 . S
N7853 C7845 1.427 . S
N7853 C7851 1.384 . S
H7854 C7860 0.930 . S
H7855 C7864 0.910 1_556 S
H7856 C7869 0.929 . S
H7857 C7867 0.929 . S
H7858 C7862 0.929 . S
H7859 C7868 0.929 . S
C7860 H7854 0.930 . S
C7860 C7861 1.367 . S
C7860 C7868 1.378 . S
C7861 C7860 1.367 . S
C7861 C7869 1.433 . S
C7862 H7858 0.929 . S
C7862 C7864 1.378 1_556 S
C7862 C7866 1.350 . S
C7863 C7866 1.463 . S
C7863 C7868 1.350 . S
C7863 N7871 1.427 . S
C7864 H7855 0.910 1_554 S
C7864 C7862 1.378 1_554 S
C7864 C7865 1.367 . S
C7865 C7864 1.367 . S
C7865 C7867 1.433 . S
C7866 C7862 1.350 . S
C7866 C7863 1.463 . S
C7866 N7870 1.427 1_556 S
C7867 H7857 0.929 . S
C7867 C7865 1.433 . S
C7867 N7870 1.384 . S
C7868 H7859 0.929 . S
C7868 C7860 1.378 . S
C7868 C7863 1.350 . S
C7869 H7856 0.929 . S
C7869 C7861 1.433 . S
C7869 N7871 1.384 . S
N7870 C7866 1.427 1_554 S
N7870 C7867 1.384 . S
N7871 C7863 1.427 . S
N7871 C7869 1.384 . S
H7872 C7878 0.930 . S
H7873 C7882 0.930 . S
H7874 C7887 0.929 . S
H7875 C7885 0.929 . S
H7876 C7880 0.929 . S
H7877 C7886 0.929 . S
C7878 H7872 0.930 . S
C7878 C7879 1.367 . S
C7878 C7886 1.378 . S
C7879 C7878 1.367 . S
C7879 C7887 1.433 . S
C7880 H7876 0.929 . S
C7880 C7882 1.378 . S
C7880 C7884 1.350 . S
C7881 C7884 1.463 1_655 S
C7881 C7886 1.350 . S
C7881 N7889 1.427 . S
C7882 H7873 0.930 . S
C7882 C7880 1.378 . S
C7882 C7883 1.367 . S
C7883 C7882 1.367 . S
C7883 C7885 1.433 . S
C7884 C7880 1.350 . S
C7884 C7881 1.463 1_455 S
C7884 N7888 1.427 . S
C7885 H7875 0.929 . S
C7885 C7883 1.433 . S
C7885 N7888 1.384 . S
C7886 H7877 0.929 . S
C7886 C7878 1.378 . S
C7886 C7881 1.350 . S
C7887 H7874 0.929 . S
C7887 C7879 1.433 . S
C7887 N7889 1.384 . S
N7888 C7884 1.427 . S
N7888 C7885 1.384 . S
N7889 C7881 1.427 . S
N7889 C7887 1.384 . S
H7890 C7896 0.930 . S
H7891 C7900 0.930 . S
H7892 C7905 0.929 . S
H7893 C7903 0.929 . S
H7894 C7898 0.929 . S
H7895 C7904 0.929 . S
C7896 H7890 0.930 . S
C7896 C7897 1.367 . S
C7896 C7904 1.378 . S
C7897 C7896 1.367 . S
C7897 C7905 1.433 . S
C7898 H7894 0.929 . S
C7898 C7900 1.378 . S
C7898 C7902 1.350 . S
C7899 C7902 1.463 . S
C7899 C7904 1.350 . S
C7899 N7907 1.427 . S
C7900 H7891 0.930 . S
C7900 C7898 1.378 . S
C7900 C7901 1.367 . S
C7901 C7900 1.367 . S
C7901 C7903 1.433 . S
C7902 C7898 1.350 . S
C7902 C7899 1.463 . S
C7902 N7906 1.427 . S
C7903 H7893 0.929 . S
C7903 C7901 1.433 . S
C7903 N7906 1.384 . S
C7904 H7895 0.929 . S
C7904 C7896 1.378 . S
C7904 C7899 1.350 . S
C7905 H7892 0.929 . S
C7905 C7897 1.433 . S
C7905 N7907 1.384 . S
N7906 C7902 1.427 . S
N7906 C7903 1.384 . S
N7907 C7899 1.427 . S
N7907 C7905 1.384 . S
H7908 C7914 0.930 . S
H7909 C7918 0.930 . S
H7910 C7923 0.929 . S
H7911 C7921 0.929 . S
H7912 C7916 0.929 . S
H7913 C7922 0.929 . S
C7914 H7908 0.930 . S
C7914 C7915 1.367 . S
C7914 C7922 1.378 . S
C7915 C7914 1.367 . S
C7915 C7923 1.433 . S
C7916 H7912 0.929 . S
C7916 C7918 1.378 . S
C7916 C7920 1.350 . S
C7917 C7920 1.463 . S
C7917 C7922 1.350 . S
C7917 N7925 1.427 . S
C7918 H7909 0.930 . S
C7918 C7916 1.378 . S
C7918 C7919 1.367 . S
C7919 C7918 1.367 . S
C7919 C7921 1.433 . S
C7920 C7916 1.350 . S
C7920 C7917 1.463 . S
C7920 N7924 1.427 . S
C7921 H7911 0.929 . S
C7921 C7919 1.433 . S
C7921 N7924 1.384 . S
C7922 H7913 0.929 . S
C7922 C7914 1.378 . S
C7922 C7917 1.350 . S
C7923 H7910 0.929 . S
C7923 C7915 1.433 . S
C7923 N7925 1.384 . S
N7924 C7920 1.427 . S
N7924 C7921 1.384 . S
N7925 C7917 1.427 . S
N7925 C7923 1.384 . S
H7926 C7932 0.930 . S
H7927 C7936 0.930 . S
H7928 C7941 0.929 . S
H7929 C7939 0.929 . S
H7930 C7934 0.929 1_545 S
H7931 C7940 0.929 1_565 S
C7932 H7926 0.930 . S
C7932 C7933 1.367 . S
C7932 C7940 1.378 . S
C7933 C7932 1.367 . S
C7933 C7941 1.433 . S
C7934 H7930 0.929 1_565 S
C7934 C7936 1.378 . S
C7934 C7938 1.350 . S
C7935 C7938 1.463 1_545 S
C7935 C7940 1.350 . S
C7935 N7943 1.427 . S
C7936 H7927 0.930 . S
C7936 C7934 1.378 . S
C7936 C7937 1.367 . S
C7937 C7936 1.367 . S
C7937 C7939 1.433 . S
C7938 C7934 1.350 . S
C7938 C7935 1.463 1_565 S
C7938 N7942 1.427 . S
C7939 H7929 0.929 . S
C7939 C7937 1.433 . S
C7939 N7942 1.384 . S
C7940 H7931 0.929 1_545 S
C7940 C7932 1.378 . S
C7940 C7935 1.350 . S
C7941 H7928 0.929 . S
C7941 C7933 1.433 . S
C7941 N7943 1.384 . S
N7942 C7938 1.427 . S
N7942 C7939 1.384 . S
N7943 C7935 1.427 . S
N7943 C7941 1.384 . S
H7944 C7950 0.930 . S
H7945 C7954 0.930 . S
H7946 C7959 0.929 . S
H7947 C7957 0.929 . S
H7948 C7952 0.929 . S
H7949 C7958 0.929 . S
C7950 H7944 0.930 . S
C7950 C7951 1.367 . S
C7950 C7958 1.378 . S
C7951 C7950 1.367 . S
C7951 C7959 1.433 . S
C7952 H7948 0.929 . S
C7952 C7954 1.378 . S
C7952 C7956 1.350 . S
C7953 C7956 1.463 1_455 S
C7953 C7958 1.350 . S
C7953 N7961 1.427 1_455 S
C7954 H7945 0.930 . S
C7954 C7952 1.378 . S
C7954 C7955 1.367 . S
C7955 C7954 1.367 . S
C7955 C7957 1.433 . S
C7956 C7952 1.350 . S
C7956 C7953 1.463 1_655 S
C7956 N7960 1.427 1_655 S
C7957 H7947 0.929 . S
C7957 C7955 1.433 . S
C7957 N7960 1.384 1_655 S
C7958 H7949 0.929 . S
C7958 C7950 1.378 . S
C7958 C7953 1.350 . S
C7959 H7946 0.929 . S
C7959 C7951 1.433 . S
C7959 N7961 1.384 1_455 S
N7960 C7956 1.427 1_455 S
N7960 C7957 1.384 1_455 S
N7961 C7953 1.427 1_655 S
N7961 C7959 1.384 1_655 S
H7962 C7968 0.930 . S
H7963 C7972 0.930 . S
H7964 C7977 0.929 . S
H7965 C7975 0.929 . S
H7966 C7970 0.929 . S
H7967 C7976 0.929 . S
C7968 H7962 0.930 . S
C7968 C7969 1.367 . S
C7968 C7976 1.378 . S
C7969 C7968 1.367 . S
C7969 C7977 1.433 . S
C7970 H7966 0.929 . S
C7970 C7972 1.378 . S
C7970 C7974 1.350 . S
C7971 C7974 1.463 . S
C7971 C7976 1.350 . S
C7971 N7979 1.427 . S
C7972 H7963 0.930 . S
C7972 C7970 1.378 . S
C7972 C7973 1.367 . S
C7973 C7972 1.367 . S
C7973 C7975 1.433 . S
C7974 C7970 1.350 . S
C7974 C7971 1.463 . S
C7974 N7978 1.427 . S
C7975 H7965 0.929 . S
C7975 C7973 1.433 . S
C7975 N7978 1.384 . S
C7976 H7967 0.929 . S
C7976 C7968 1.378 . S
C7976 C7971 1.350 . S
C7977 H7964 0.929 . S
C7977 C7969 1.433 . S
C7977 N7979 1.384 . S
N7978 C7974 1.427 . S
N7978 C7975 1.384 . S
N7979 C7971 1.427 . S
N7979 C7977 1.384 . S
H7980 C7986 0.930 . S
H7981 C7990 0.930 . S
H7982 C7995 0.929 . S
H7983 C7993 0.929 . S
H7984 C7988 0.929 . S
H7985 C7994 0.929 . S
C7986 H7980 0.930 . S
C7986 C7987 1.367 . S
C7986 C7994 1.378 . S
C7987 C7986 1.367 . S
C7987 C7995 1.433 . S
C7988 H7984 0.929 . S
C7988 C7990 1.378 . S
C7988 C7992 1.350 . S
C7989 C7992 1.463 . S
C7989 C7994 1.350 . S
C7989 N7997 1.427 . S
C7990 H7981 0.930 . S
C7990 C7988 1.378 . S
C7990 C7991 1.367 . S
C7991 C7990 1.367 . S
C7991 C7993 1.433 . S
C7992 C7988 1.350 . S
C7992 C7989 1.463 . S
C7992 N7996 1.427 . S
C7993 H7983 0.929 . S
C7993 C7991 1.433 . S
C7993 N7996 1.384 . S
C7994 H7985 0.929 . S
C7994 C7986 1.378 . S
C7994 C7989 1.350 . S
C7995 H7982 0.929 . S
C7995 C7987 1.433 . S
C7995 N7997 1.384 . S
N7996 C7992 1.427 . S
N7996 C7993 1.384 . S
N7997 C7989 1.427 . S
N7997 C7995 1.384 . S
H7998 C8004 0.930 . S
H7999 C8008 0.930 . S
H8000 C8013 0.926 . S
H8001 C8011 0.926 . S
H8002 C8006 0.929 . S
H8003 C8012 0.929 . S
C8004 H7998 0.930 . S
C8004 C8005 1.367 . S
C8004 C8012 1.378 . S
C8005 C8004 1.367 . S
C8005 C8013 1.433 . S
C8006 H8002 0.929 . S
C8006 C8008 1.378 . S
C8006 C8010 1.350 . S
C8007 C8010 1.463 1_565 S
C8007 C8012 1.350 . S
C8007 N8015 1.427 1_565 S
C8008 H7999 0.930 . S
C8008 C8006 1.378 . S
C8008 C8009 1.367 . S
C8009 C8008 1.367 . S
C8009 C8011 1.433 . S
C8010 C8006 1.350 . S
C8010 C8007 1.463 1_545 S
C8010 N8014 1.427 1_545 S
C8011 H8001 0.926 . S
C8011 C8009 1.433 . S
C8011 N8014 1.384 1_545 S
C8012 H8003 0.929 . S
C8012 C8004 1.378 . S
C8012 C8007 1.350 . S
C8013 H8000 0.926 . S
C8013 C8005 1.433 . S
C8013 N8015 1.384 1_565 S
N8014 C8010 1.427 1_565 S
N8014 C8011 1.384 1_565 S
N8015 C8007 1.427 1_545 S
N8015 C8013 1.384 1_545 S
H8016 C8022 0.929 1_545 S
H8017 C8026 0.929 1_565 S
H8018 C8031 0.929 . S
H8019 C8029 0.929 . S
H8020 C8024 0.929 . S
H8021 C8030 0.929 . S
C8022 H8016 0.929 1_565 S
C8022 C8023 1.367 . S
C8022 C8030 1.378 1_565 S
C8023 C8022 1.367 . S
C8023 C8031 1.433 . S
C8024 H8020 0.929 . S
C8024 C8026 1.378 1_565 S
C8024 C8028 1.350 1_565 S
C8025 C8028 1.463 1_565 S
C8025 C8030 1.350 1_565 S
C8025 N8033 1.427 . S
C8026 H8017 0.929 1_545 S
C8026 C8024 1.378 1_545 S
C8026 C8027 1.367 . S
C8027 C8026 1.367 . S
C8027 C8029 1.433 . S
C8028 C8024 1.350 1_545 S
C8028 C8025 1.463 1_545 S
C8028 N8032 1.427 . S
C8029 H8019 0.929 . S
C8029 C8027 1.433 . S
C8029 N8032 1.384 . S
C8030 H8021 0.929 . S
C8030 C8022 1.378 1_545 S
C8030 C8025 1.350 1_545 S
C8031 H8018 0.929 . S
C8031 C8023 1.433 . S
C8031 N8033 1.384 . S
N8032 C8028 1.427 . S
N8032 C8029 1.384 . S
N8033 C8025 1.427 . S
N8033 C8031 1.384 . S
H8034 C8040 0.930 . S
H8035 C8044 0.930 . S
H8036 C8049 0.929 . S
H8037 C8047 0.929 . S
H8038 C8042 0.929 . S
H8039 C8048 0.929 . S
C8040 H8034 0.930 . S
C8040 C8041 1.367 . S
C8040 C8048 1.378 . S
C8041 C8040 1.367 . S
C8041 C8049 1.433 . S
C8042 H8038 0.929 . S
C8042 C8044 1.378 . S
C8042 C8046 1.350 . S
C8043 C8046 1.463 1_455 S
C8043 C8048 1.350 . S
C8043 N8051 1.427 . S
C8044 H8035 0.930 . S
C8044 C8042 1.378 . S
C8044 C8045 1.367 . S
C8045 C8044 1.367 . S
C8045 C8047 1.433 . S
C8046 C8042 1.350 . S
C8046 C8043 1.463 1_655 S
C8046 N8050 1.427 . S
C8047 H8037 0.929 . S
C8047 C8045 1.433 . S
C8047 N8050 1.384 . S
C8048 H8039 0.929 . S
C8048 C8040 1.378 . S
C8048 C8043 1.350 . S
C8049 H8036 0.929 . S
C8049 C8041 1.433 . S
C8049 N8051 1.384 . S
N8050 C8046 1.427 . S
N8050 C8047 1.384 . S
N8051 C8043 1.427 . S
N8051 C8049 1.384 . S
H8052 C8058 0.930 . S
H8053 C8062 0.930 . S
H8054 C8067 0.929 . S
H8055 C8065 0.929 . S
H8056 C8060 0.929 . S
H8057 C8066 0.929 . S
C8058 H8052 0.930 . S
C8058 C8059 1.367 . S
C8058 C8066 1.378 . S
C8059 C8058 1.367 . S
C8059 C8067 1.433 . S
C8060 H8056 0.929 . S
C8060 C8062 1.378 . S
C8060 C8064 1.350 . S
C8061 C8064 1.463 . S
C8061 C8066 1.350 . S
C8061 N8069 1.427 . S
C8062 H8053 0.930 . S
C8062 C8060 1.378 . S
C8062 C8063 1.367 . S
C8063 C8062 1.367 . S
C8063 C8065 1.433 . S
C8064 C8060 1.350 . S
C8064 C8061 1.463 . S
C8064 N8068 1.427 . S
C8065 H8055 0.929 . S
C8065 C8063 1.433 . S
C8065 N8068 1.384 . S
C8066 H8057 0.929 . S
C8066 C8058 1.378 . S
C8066 C8061 1.350 . S
C8067 H8054 0.929 . S
C8067 C8059 1.433 . S
C8067 N8069 1.384 . S
N8068 C8064 1.427 . S
N8068 C8065 1.384 . S
N8069 C8061 1.427 . S
N8069 C8067 1.384 . S
H8070 C8076 0.930 . S
H8071 C8080 0.930 . S
H8072 C8085 0.929 . S
H8073 C8083 0.929 . S
H8074 C8078 0.929 . S
H8075 C8084 0.929 . S
C8076 H8070 0.930 . S
C8076 C8077 1.367 . S
C8076 C8084 1.378 . S
C8077 C8076 1.367 . S
C8077 C8085 1.433 . S
C8078 H8074 0.929 . S
C8078 C8080 1.378 . S
C8078 C8082 1.350 . S
C8079 C8082 1.463 . S
C8079 C8084 1.350 . S
C8079 N8087 1.427 . S
C8080 H8071 0.930 . S
C8080 C8078 1.378 . S
C8080 C8081 1.367 . S
C8081 C8080 1.367 . S
C8081 C8083 1.433 . S
C8082 C8078 1.350 . S
C8082 C8079 1.463 . S
C8082 N8086 1.427 . S
C8083 H8073 0.929 . S
C8083 C8081 1.433 . S
C8083 N8086 1.384 . S
C8084 H8075 0.929 . S
C8084 C8076 1.378 . S
C8084 C8079 1.350 . S
C8085 H8072 0.929 . S
C8085 C8077 1.433 . S
C8085 N8087 1.384 . S
N8086 C8082 1.427 . S
N8086 C8083 1.384 . S
N8087 C8079 1.427 . S
N8087 C8085 1.384 . S
H8088 C8094 0.930 . S
H8089 C8098 0.930 . S
H8090 C8103 0.929 . S
H8091 C8101 0.929 . S
H8092 C8096 0.929 . S
H8093 C8102 0.929 . S
C8094 H8088 0.930 . S
C8094 C8095 1.367 . S
C8094 C8102 1.378 . S
C8095 C8094 1.367 . S
C8095 C8103 1.433 . S
C8096 H8092 0.929 . S
C8096 C8098 1.378 . S
C8096 C8100 1.350 . S
C8097 C8100 1.463 . S
C8097 C8102 1.350 . S
C8097 N8105 1.427 . S
C8098 H8089 0.930 . S
C8098 C8096 1.378 . S
C8098 C8099 1.367 . S
C8099 C8098 1.367 . S
C8099 C8101 1.433 . S
C8100 C8096 1.350 . S
C8100 C8097 1.463 . S
C8100 N8104 1.427 . S
C8101 H8091 0.929 . S
C8101 C8099 1.433 . S
C8101 N8104 1.384 . S
C8102 H8093 0.929 . S
C8102 C8094 1.378 . S
C8102 C8097 1.350 . S
C8103 H8090 0.929 . S
C8103 C8095 1.433 . S
C8103 N8105 1.384 . S
N8104 C8100 1.427 . S
N8104 C8101 1.384 . S
N8105 C8097 1.427 . S
N8105 C8103 1.384 . S
H8106 C8112 0.930 . S
H8107 C8116 0.930 . S
H8108 C8121 0.929 . S
H8109 C8119 0.929 . S
H8110 C8114 0.929 . S
H8111 C8120 0.929 . S
C8112 H8106 0.930 . S
C8112 C8113 1.367 . S
C8112 C8120 1.378 . S
C8113 C8112 1.367 . S
C8113 C8121 1.433 . S
C8114 H8110 0.929 . S
C8114 C8116 1.378 . S
C8114 C8118 1.350 . S
C8115 C8118 1.463 . S
C8115 C8120 1.350 . S
C8115 N8123 1.427 . S
C8116 H8107 0.930 . S
C8116 C8114 1.378 . S
C8116 C8117 1.367 . S
C8117 C8116 1.367 . S
C8117 C8119 1.433 . S
C8118 C8114 1.350 . S
C8118 C8115 1.463 . S
C8118 N8122 1.427 . S
C8119 H8109 0.929 . S
C8119 C8117 1.433 . S
C8119 N8122 1.384 . S
C8120 H8111 0.929 . S
C8120 C8112 1.378 . S
C8120 C8115 1.350 . S
C8121 H8108 0.929 . S
C8121 C8113 1.433 . S
C8121 N8123 1.384 . S
N8122 C8118 1.427 . S
N8122 C8119 1.384 . S
N8123 C8115 1.427 . S
N8123 C8121 1.384 . S
H8124 C8130 0.934 1_545 S
H8125 C8134 0.934 1_565 S
H8126 C8139 0.929 . S
H8127 C8137 0.929 . S
H8128 C8132 0.929 . S
H8129 C8138 0.929 . S
C8130 H8124 0.934 1_565 S
C8130 C8131 1.367 . S
C8130 C8138 1.378 1_565 S
C8131 C8130 1.367 . S
C8131 C8139 1.433 . S
C8132 H8128 0.929 . S
C8132 C8134 1.378 1_565 S
C8132 C8136 1.350 1_565 S
C8133 C8136 1.463 1_565 S
C8133 C8138 1.350 1_565 S
C8133 N8141 1.427 . S
C8134 H8125 0.934 1_545 S
C8134 C8132 1.378 1_545 S
C8134 C8135 1.367 . S
C8135 C8134 1.367 . S
C8135 C8137 1.433 . S
C8136 C8132 1.350 1_545 S
C8136 C8133 1.463 1_545 S
C8136 N8140 1.427 . S
C8137 H8127 0.929 . S
C8137 C8135 1.433 . S
C8137 N8140 1.384 . S
C8138 H8129 0.929 . S
C8138 C8130 1.378 1_545 S
C8138 C8133 1.350 1_545 S
C8139 H8126 0.929 . S
C8139 C8131 1.433 . S
C8139 N8141 1.384 . S
N8140 C8136 1.427 . S
N8140 C8137 1.384 . S
N8141 C8133 1.427 . S
N8141 C8139 1.384 . S
H8142 C8148 0.930 . S
H8143 C8152 0.930 . S
H8144 C8157 0.934 1_455 S
H8145 C8155 0.934 1_655 S
H8146 C8150 0.929 . S
H8147 C8156 0.929 . S
C8148 H8142 0.930 . S
C8148 C8149 1.367 . S
C8148 C8156 1.378 . S
C8149 C8148 1.367 . S
C8149 C8157 1.433 . S
C8150 H8146 0.929 . S
C8150 C8152 1.378 . S
C8150 C8154 1.350 . S
C8151 C8154 1.463 1_655 S
C8151 C8156 1.350 . S
C8151 N8159 1.427 1_655 S
C8152 H8143 0.930 . S
C8152 C8150 1.378 . S
C8152 C8153 1.367 . S
C8153 C8152 1.367 . S
C8153 C8155 1.433 . S
C8154 C8150 1.350 . S
C8154 C8151 1.463 1_455 S
C8154 N8158 1.427 1_455 S
C8155 H8145 0.934 1_455 S
C8155 C8153 1.433 . S
C8155 N8158 1.384 1_455 S
C8156 H8147 0.929 . S
C8156 C8148 1.378 . S
C8156 C8151 1.350 . S
C8157 H8144 0.934 1_655 S
C8157 C8149 1.433 . S
C8157 N8159 1.384 1_655 S
N8158 C8154 1.427 1_655 S
N8158 C8155 1.384 1_655 S
N8159 C8151 1.427 1_455 S
N8159 C8157 1.384 1_455 S
H8160 C8166 0.930 . S
H8161 C8170 0.930 . S
H8162 C8175 0.929 . S
H8163 C8173 0.929 . S
H8164 C8168 0.929 . S
H8165 C8174 0.929 . S
C8166 H8160 0.930 . S
C8166 C8167 1.367 . S
C8166 C8174 1.378 1_556 S
C8167 C8166 1.367 . S
C8167 C8175 1.433 . S
C8168 H8164 0.929 . S
C8168 C8170 1.378 1_556 S
C8168 C8172 1.350 1_556 S
C8169 C8172 1.463 1_556 S
C8169 C8174 1.350 1_556 S
C8169 N8177 1.427 . S
C8170 H8161 0.930 . S
C8170 C8168 1.378 1_554 S
C8170 C8171 1.367 . S
C8171 C8170 1.367 . S
C8171 C8173 1.433 . S
C8172 C8168 1.350 1_554 S
C8172 C8169 1.463 1_554 S
C8172 N8176 1.427 . S
C8173 H8163 0.929 . S
C8173 C8171 1.433 . S
C8173 N8176 1.384 . S
C8174 H8165 0.929 . S
C8174 C8166 1.378 1_554 S
C8174 C8169 1.350 1_554 S
C8175 H8162 0.929 . S
C8175 C8167 1.433 . S
C8175 N8177 1.384 . S
N8176 C8172 1.427 . S
N8176 C8173 1.384 . S
N8177 C8169 1.427 . S
N8177 C8175 1.384 . S
H8178 C8184 0.930 . S
H8179 C8188 0.930 . S
H8180 C8193 0.929 . S
H8181 C8191 0.929 . S
H8182 C8186 0.929 . S
H8183 C8192 0.929 . S
C8184 H8178 0.930 . S
C8184 C8185 1.367 . S
C8184 C8192 1.378 . S
C8185 C8184 1.367 . S
C8185 C8193 1.433 . S
C8186 H8182 0.929 . S
C8186 C8188 1.378 . S
C8186 C8190 1.350 . S
C8187 C8190 1.463 . S
C8187 C8192 1.350 . S
C8187 N8195 1.427 . S
C8188 H8179 0.930 . S
C8188 C8186 1.378 . S
C8188 C8189 1.367 . S
C8189 C8188 1.367 . S
C8189 C8191 1.433 . S
C8190 C8186 1.350 . S
C8190 C8187 1.463 . S
C8190 N8194 1.427 . S
C8191 H8181 0.929 . S
C8191 C8189 1.433 . S
C8191 N8194 1.384 . S
C8192 H8183 0.929 . S
C8192 C8184 1.378 . S
C8192 C8187 1.350 . S
C8193 H8180 0.929 . S
C8193 C8185 1.433 . S
C8193 N8195 1.384 . S
N8194 C8190 1.427 . S
N8194 C8191 1.384 . S
N8195 C8187 1.427 . S
N8195 C8193 1.384 . S
H8196 C8202 0.930 . S
H8197 C8206 0.930 . S
H8198 C8211 0.929 . S
H8199 C8209 0.929 . S
H8200 C8204 0.929 . S
H8201 C8210 0.929 . S
C8202 H8196 0.930 . S
C8202 C8203 1.367 . S
C8202 C8210 1.378 . S
C8203 C8202 1.367 . S
C8203 C8211 1.433 . S
C8204 H8200 0.929 . S
C8204 C8206 1.378 . S
C8204 C8208 1.350 . S
C8205 C8208 1.463 . S
C8205 C8210 1.350 . S
C8205 N8213 1.427 . S
C8206 H8197 0.930 . S
C8206 C8204 1.378 . S
C8206 C8207 1.367 . S
C8207 C8206 1.367 . S
C8207 C8209 1.433 . S
C8208 C8204 1.350 . S
C8208 C8205 1.463 . S
C8208 N8212 1.427 . S
C8209 H8199 0.929 . S
C8209 C8207 1.433 . S
C8209 N8212 1.384 . S
C8210 H8201 0.929 . S
C8210 C8202 1.378 . S
C8210 C8205 1.350 . S
C8211 H8198 0.929 . S
C8211 C8203 1.433 . S
C8211 N8213 1.384 . S
N8212 C8208 1.427 . S
N8212 C8209 1.384 . S
N8213 C8205 1.427 . S
N8213 C8211 1.384 . S
H8214 C8220 0.930 . S
H8215 C8224 0.930 . S
H8216 C8229 0.929 . S
H8217 C8227 0.929 . S
H8218 C8222 0.929 . S
H8219 C8228 0.929 . S
C8220 H8214 0.930 . S
C8220 C8221 1.367 . S
C8220 C8228 1.378 . S
C8221 C8220 1.367 . S
C8221 C8229 1.433 . S
C8222 H8218 0.929 . S
C8222 C8224 1.378 . S
C8222 C8226 1.350 . S
C8223 C8226 1.463 . S
C8223 C8228 1.350 . S
C8223 N8231 1.427 . S
C8224 H8215 0.930 . S
C8224 C8222 1.378 . S
C8224 C8225 1.367 . S
C8225 C8224 1.367 . S
C8225 C8227 1.433 . S
C8226 C8222 1.350 . S
C8226 C8223 1.463 . S
C8226 N8230 1.427 . S
C8227 H8217 0.929 . S
C8227 C8225 1.433 . S
C8227 N8230 1.384 . S
C8228 H8219 0.929 . S
C8228 C8220 1.378 . S
C8228 C8223 1.350 . S
C8229 H8216 0.929 . S
C8229 C8221 1.433 . S
C8229 N8231 1.384 . S
N8230 C8226 1.427 . S
N8230 C8227 1.384 . S
N8231 C8223 1.427 . S
N8231 C8229 1.384 . S
H8232 C8238 0.930 . S
H8233 C8242 0.930 . S
H8234 C8247 0.929 . S
H8235 C8245 0.929 . S
H8236 C8240 0.929 . S
H8237 C8246 0.929 . S
C8238 H8232 0.930 . S
C8238 C8239 1.367 . S
C8238 C8246 1.378 . S
C8239 C8238 1.367 . S
C8239 C8247 1.433 . S
C8240 H8236 0.929 . S
C8240 C8242 1.378 . S
C8240 C8244 1.350 . S
C8241 C8244 1.463 . S
C8241 C8246 1.350 . S
C8241 N8249 1.427 . S
C8242 H8233 0.930 . S
C8242 C8240 1.378 . S
C8242 C8243 1.367 . S
C8243 C8242 1.367 . S
C8243 C8245 1.433 . S
C8244 C8240 1.350 . S
C8244 C8241 1.463 . S
C8244 N8248 1.427 . S
C8245 H8235 0.929 . S
C8245 C8243 1.433 . S
C8245 N8248 1.384 . S
C8246 H8237 0.929 . S
C8246 C8238 1.378 . S
C8246 C8241 1.350 . S
C8247 H8234 0.929 . S
C8247 C8239 1.433 . S
C8247 N8249 1.384 . S
N8248 C8244 1.427 . S
N8248 C8245 1.384 . S
N8249 C8241 1.427 . S
N8249 C8247 1.384 . S
H8250 C8256 0.930 . S
H8251 C8260 0.930 . S
H8252 C8265 0.929 . S
H8253 C8263 0.929 . S
H8254 C8258 0.929 . S
H8255 C8264 0.929 . S
C8256 H8250 0.930 . S
C8256 C8257 1.367 . S
C8256 C8264 1.378 . S
C8257 C8256 1.367 . S
C8257 C8265 1.433 . S
C8258 H8254 0.929 . S
C8258 C8260 1.378 . S
C8258 C8262 1.350 . S
C8259 C8262 1.463 1_556 S
C8259 C8264 1.350 . S
C8259 N8267 1.427 . S
C8260 H8251 0.930 . S
C8260 C8258 1.378 . S
C8260 C8261 1.367 . S
C8261 C8260 1.367 . S
C8261 C8263 1.433 . S
C8262 C8258 1.350 . S
C8262 C8259 1.463 1_554 S
C8262 N8266 1.427 . S
C8263 H8253 0.929 . S
C8263 C8261 1.433 . S
C8263 N8266 1.384 . S
C8264 H8255 0.929 . S
C8264 C8256 1.378 . S
C8264 C8259 1.350 . S
C8265 H8252 0.929 . S
C8265 C8257 1.433 . S
C8265 N8267 1.384 . S
N8266 C8262 1.427 . S
N8266 C8263 1.384 . S
N8267 C8259 1.427 . S
N8267 C8265 1.384 . S
H8268 C8274 0.930 . S
H8269 C8278 0.930 . S
H8270 C8283 0.929 . S
H8271 C8281 0.929 . S
H8272 C8276 0.929 . S
H8273 C8282 0.929 . S
C8274 H8268 0.930 . S
C8274 C8275 1.367 . S
C8274 C8282 1.378 . S
C8275 C8274 1.367 . S
C8275 C8283 1.433 . S
C8276 H8272 0.929 . S
C8276 C8278 1.378 . S
C8276 C8280 1.350 . S
C8277 C8280 1.463 . S
C8277 C8282 1.350 . S
C8277 N8285 1.427 . S
C8278 H8269 0.930 . S
C8278 C8276 1.378 . S
C8278 C8279 1.367 . S
C8279 C8278 1.367 . S
C8279 C8281 1.433 . S
C8280 C8276 1.350 . S
C8280 C8277 1.463 . S
C8280 N8284 1.427 . S
C8281 H8271 0.929 . S
C8281 C8279 1.433 . S
C8281 N8284 1.384 . S
C8282 H8273 0.929 . S
C8282 C8274 1.378 . S
C8282 C8277 1.350 . S
C8283 H8270 0.929 . S
C8283 C8275 1.433 . S
C8283 N8285 1.384 . S
N8284 C8280 1.427 . S
N8284 C8281 1.384 . S
N8285 C8277 1.427 . S
N8285 C8283 1.384 . S
H8286 C8292 0.930 . S
H8287 C8296 0.930 . S
H8288 C8301 0.929 . S
H8289 C8299 0.929 . S
H8290 C8294 0.929 . S
H8291 C8300 0.929 . S
C8292 H8286 0.930 . S
C8292 C8293 1.367 . S
C8292 C8300 1.378 . S
C8293 C8292 1.367 . S
C8293 C8301 1.433 . S
C8294 H8290 0.929 . S
C8294 C8296 1.378 . S
C8294 C8298 1.350 . S
C8295 C8298 1.463 . S
C8295 C8300 1.350 . S
C8295 N8303 1.427 . S
C8296 H8287 0.930 . S
C8296 C8294 1.378 . S
C8296 C8297 1.367 . S
C8297 C8296 1.367 . S
C8297 C8299 1.433 . S
C8298 C8294 1.350 . S
C8298 C8295 1.463 . S
C8298 N8302 1.427 . S
C8299 H8289 0.929 . S
C8299 C8297 1.433 . S
C8299 N8302 1.384 . S
C8300 H8291 0.929 . S
C8300 C8292 1.378 . S
C8300 C8295 1.350 . S
C8301 H8288 0.929 . S
C8301 C8293 1.433 . S
C8301 N8303 1.384 . S
N8302 C8298 1.427 . S
N8302 C8299 1.384 . S
N8303 C8295 1.427 . S
N8303 C8301 1.384 . S
H8304 C8310 0.930 . S
H8305 C8314 0.930 . S
H8306 C8319 0.929 . S
H8307 C8317 0.929 . S
H8308 C8312 0.929 1_455 S
H8309 C8318 0.929 1_655 S
C8310 H8304 0.930 . S
C8310 C8311 1.367 . S
C8310 C8318 1.378 . S
C8311 C8310 1.367 . S
C8311 C8319 1.433 . S
C8312 H8308 0.929 1_655 S
C8312 C8314 1.378 . S
C8312 C8316 1.350 . S
C8313 C8316 1.463 1_455 S
C8313 C8318 1.350 . S
C8313 N8321 1.427 . S
C8314 H8305 0.930 . S
C8314 C8312 1.378 . S
C8314 C8315 1.367 . S
C8315 C8314 1.367 . S
C8315 C8317 1.433 . S
C8316 C8312 1.350 . S
C8316 C8313 1.463 1_655 S
C8316 N8320 1.427 . S
C8317 H8307 0.929 . S
C8317 C8315 1.433 . S
C8317 N8320 1.384 . S
C8318 H8309 0.929 1_455 S
C8318 C8310 1.378 . S
C8318 C8313 1.350 . S
C8319 H8306 0.929 . S
C8319 C8311 1.433 . S
C8319 N8321 1.384 . S
N8320 C8316 1.427 . S
N8320 C8317 1.384 . S
N8321 C8313 1.427 . S
N8321 C8319 1.384 . S
H8322 C8328 0.930 . S
H8323 C8332 0.930 . S
H8324 C8337 0.929 . S
H8325 C8335 0.929 . S
H8326 C8330 0.929 . S
H8327 C8336 0.929 . S
C8328 H8322 0.930 . S
C8328 C8329 1.367 . S
C8328 C8336 1.378 . S
C8329 C8328 1.367 . S
C8329 C8337 1.433 . S
C8330 H8326 0.929 . S
C8330 C8332 1.378 . S
C8330 C8334 1.350 . S
C8331 C8334 1.463 . S
C8331 C8336 1.350 . S
C8331 N8339 1.427 . S
C8332 H8323 0.930 . S
C8332 C8330 1.378 . S
C8332 C8333 1.367 . S
C8333 C8332 1.367 . S
C8333 C8335 1.433 . S
C8334 C8330 1.350 . S
C8334 C8331 1.463 . S
C8334 N8338 1.427 . S
C8335 H8325 0.929 . S
C8335 C8333 1.433 . S
C8335 N8338 1.384 . S
C8336 H8327 0.929 . S
C8336 C8328 1.378 . S
C8336 C8331 1.350 . S
C8337 H8324 0.929 . S
C8337 C8329 1.433 . S
C8337 N8339 1.384 . S
N8338 C8334 1.427 . S
N8338 C8335 1.384 . S
N8339 C8331 1.427 . S
N8339 C8337 1.384 . S
H8340 C8346 0.930 . S
H8341 C8350 0.930 . S
H8342 C8355 0.929 . S
H8343 C8353 0.929 . S
H8344 C8348 0.929 . S
H8345 C8354 0.929 . S
C8346 H8340 0.930 . S
C8346 C8347 1.367 . S
C8346 C8354 1.378 . S
C8347 C8346 1.367 . S
C8347 C8355 1.433 . S
C8348 H8344 0.929 . S
C8348 C8350 1.378 . S
C8348 C8352 1.350 . S
C8349 C8352 1.463 . S
C8349 C8354 1.350 . S
C8349 N8357 1.427 . S
C8350 H8341 0.930 . S
C8350 C8348 1.378 . S
C8350 C8351 1.367 . S
C8351 C8350 1.367 . S
C8351 C8353 1.433 . S
C8352 C8348 1.350 . S
C8352 C8349 1.463 . S
C8352 N8356 1.427 . S
C8353 H8343 0.929 . S
C8353 C8351 1.433 . S
C8353 N8356 1.384 . S
C8354 H8345 0.929 . S
C8354 C8346 1.378 . S
C8354 C8349 1.350 . S
C8355 H8342 0.929 . S
C8355 C8347 1.433 . S
C8355 N8357 1.384 . S
N8356 C8352 1.427 . S
N8356 C8353 1.384 . S
N8357 C8349 1.427 . S
N8357 C8355 1.384 . S
H8358 C8364 0.934 1_565 S
H8359 C8368 0.934 1_545 S
H8360 C8373 0.929 . S
H8361 C8371 0.929 . S
H8362 C8366 0.929 . S
H8363 C8372 0.929 . S
C8364 H8358 0.934 1_545 S
C8364 C8365 1.367 . S
C8364 C8372 1.378 1_545 S
C8365 C8364 1.367 . S
C8365 C8373 1.433 . S
C8366 H8362 0.929 . S
C8366 C8368 1.378 1_545 S
C8366 C8370 1.350 1_545 S
C8367 C8370 1.463 1_545 S
C8367 C8372 1.350 1_545 S
C8367 N8375 1.427 . S
C8368 H8359 0.934 1_565 S
C8368 C8366 1.378 1_565 S
C8368 C8369 1.367 . S
C8369 C8368 1.367 . S
C8369 C8371 1.433 . S
C8370 C8366 1.350 1_565 S
C8370 C8367 1.463 1_565 S
C8370 N8374 1.427 . S
C8371 H8361 0.929 . S
C8371 C8369 1.433 . S
C8371 N8374 1.384 . S
C8372 H8363 0.929 . S
C8372 C8364 1.378 1_565 S
C8372 C8367 1.350 1_565 S
C8373 H8360 0.929 . S
C8373 C8365 1.433 . S
C8373 N8375 1.384 . S
N8374 C8370 1.427 . S
N8374 C8371 1.384 . S
N8375 C8367 1.427 . S
N8375 C8373 1.384 . S
H8376 C8382 0.930 . S
H8377 C8386 0.930 . S
H8378 C8391 0.929 . S
H8379 C8389 0.929 . S
H8380 C8384 0.929 . S
H8381 C8390 0.929 . S
C8382 H8376 0.930 . S
C8382 C8383 1.367 . S
C8382 C8390 1.378 . S
C8383 C8382 1.367 . S
C8383 C8391 1.433 . S
C8384 H8380 0.929 . S
C8384 C8386 1.378 . S
C8384 C8388 1.350 . S
C8385 C8388 1.463 1_655 S
C8385 C8390 1.350 . S
C8385 N8393 1.427 1_655 S
C8386 H8377 0.930 . S
C8386 C8384 1.378 . S
C8386 C8387 1.367 . S
C8387 C8386 1.367 . S
C8387 C8389 1.433 . S
C8388 C8384 1.350 . S
C8388 C8385 1.463 1_455 S
C8388 N8392 1.427 1_455 S
C8389 H8379 0.929 . S
C8389 C8387 1.433 . S
C8389 N8392 1.384 1_455 S
C8390 H8381 0.929 . S
C8390 C8382 1.378 . S
C8390 C8385 1.350 . S
C8391 H8378 0.929 . S
C8391 C8383 1.433 . S
C8391 N8393 1.384 1_655 S
N8392 C8388 1.427 1_655 S
N8392 C8389 1.384 1_655 S
N8393 C8385 1.427 1_455 S
N8393 C8391 1.384 1_455 S
H8394 C8400 0.930 . S
H8395 C8404 0.930 . S
H8396 C8409 0.929 . S
H8397 C8407 0.929 . S
H8398 C8402 0.929 . S
H8399 C8408 0.929 . S
C8400 H8394 0.930 . S
C8400 C8401 1.367 . S
C8400 C8408 1.378 . S
C8401 C8400 1.367 . S
C8401 C8409 1.433 . S
C8402 H8398 0.929 . S
C8402 C8404 1.378 . S
C8402 C8406 1.350 . S
C8403 C8406 1.463 . S
C8403 C8408 1.350 . S
C8403 N8411 1.427 . S
C8404 H8395 0.930 . S
C8404 C8402 1.378 . S
C8404 C8405 1.367 . S
C8405 C8404 1.367 . S
C8405 C8407 1.433 . S
C8406 C8402 1.350 . S
C8406 C8403 1.463 . S
C8406 N8410 1.427 . S
C8407 H8397 0.929 . S
C8407 C8405 1.433 . S
C8407 N8410 1.384 . S
C8408 H8399 0.929 . S
C8408 C8400 1.378 . S
C8408 C8403 1.350 . S
C8409 H8396 0.929 . S
C8409 C8401 1.433 . S
C8409 N8411 1.384 . S
N8410 C8406 1.427 . S
N8410 C8407 1.384 . S
N8411 C8403 1.427 . S
N8411 C8409 1.384 . S
H8412 C8418 0.930 . S
H8413 C8422 0.930 . S
H8414 C8427 0.929 . S
H8415 C8425 0.929 . S
H8416 C8420 0.929 . S
H8417 C8426 0.929 . S
C8418 H8412 0.930 . S
C8418 C8419 1.367 . S
C8418 C8426 1.378 . S
C8419 C8418 1.367 . S
C8419 C8427 1.433 . S
C8420 H8416 0.929 . S
C8420 C8422 1.378 . S
C8420 C8424 1.350 . S
C8421 C8424 1.463 . S
C8421 C8426 1.350 . S
C8421 N8429 1.427 . S
C8422 H8413 0.930 . S
C8422 C8420 1.378 . S
C8422 C8423 1.367 . S
C8423 C8422 1.367 . S
C8423 C8425 1.433 . S
C8424 C8420 1.350 . S
C8424 C8421 1.463 . S
C8424 N8428 1.427 . S
C8425 H8415 0.929 . S
C8425 C8423 1.433 . S
C8425 N8428 1.384 . S
C8426 H8417 0.929 . S
C8426 C8418 1.378 . S
C8426 C8421 1.350 . S
C8427 H8414 0.929 . S
C8427 C8419 1.433 . S
C8427 N8429 1.384 . S
N8428 C8424 1.427 . S
N8428 C8425 1.384 . S
N8429 C8421 1.427 . S
N8429 C8427 1.384 . S
H8430 C8436 0.930 . S
H8431 C8440 0.930 . S
H8432 C8445 0.929 . S
H8433 C8443 0.929 . S
H8434 C8438 0.929 . S
H8435 C8444 0.929 . S
C8436 H8430 0.930 . S
C8436 C8437 1.367 . S
C8436 C8444 1.378 . S
C8437 C8436 1.367 . S
C8437 C8445 1.433 . S
C8438 H8434 0.929 . S
C8438 C8440 1.378 . S
C8438 C8442 1.350 . S
C8439 C8442 1.463 1_545 S
C8439 C8444 1.350 . S
C8439 N8447 1.438 . S
C8440 H8431 0.930 . S
C8440 C8438 1.378 . S
C8440 C8441 1.367 . S
C8441 C8440 1.367 . S
C8441 C8443 1.433 . S
C8442 C8438 1.350 . S
C8442 C8439 1.463 1_565 S
C8442 N8446 1.438 . S
C8443 H8433 0.929 . S
C8443 C8441 1.433 . S
C8443 N8446 1.405 . S
C8444 H8435 0.929 . S
C8444 C8436 1.378 . S
C8444 C8439 1.350 . S
C8445 H8432 0.929 . S
C8445 C8437 1.433 . S
C8445 N8447 1.405 . S
N8446 C8442 1.438 . S
N8446 C8443 1.405 . S
N8447 C8439 1.438 . S
N8447 C8445 1.405 . S
H8448 C8454 0.930 . S
H8449 C8458 0.930 . S
H8450 C8463 0.929 . S
H8451 C8461 0.929 . S
H8452 C8456 0.929 . S
H8453 C8462 0.929 . S
C8454 H8448 0.930 . S
C8454 C8455 1.367 . S
C8454 C8462 1.378 . S
C8455 C8454 1.367 . S
C8455 C8463 1.433 . S
C8456 H8452 0.929 . S
C8456 C8458 1.378 . S
C8456 C8460 1.350 . S
C8457 C8460 1.463 1_545 S
C8457 C8462 1.350 . S
C8457 N8465 1.427 . S
C8458 H8449 0.930 . S
C8458 C8456 1.378 . S
C8458 C8459 1.367 . S
C8459 C8458 1.367 . S
C8459 C8461 1.433 . S
C8460 C8456 1.350 . S
C8460 C8457 1.463 1_565 S
C8460 N8464 1.427 . S
C8461 H8451 0.929 . S
C8461 C8459 1.433 . S
C8461 N8464 1.384 . S
C8462 H8453 0.929 . S
C8462 C8454 1.378 . S
C8462 C8457 1.350 . S
C8463 H8450 0.929 . S
C8463 C8455 1.433 . S
C8463 N8465 1.384 . S
N8464 C8460 1.427 . S
N8464 C8461 1.384 . S
N8465 C8457 1.427 . S
N8465 C8463 1.384 . S
H8466 C8472 0.930 . S
H8467 C8476 0.930 . S
H8468 C8481 0.929 . S
H8469 C8479 0.929 . S
H8470 C8474 0.929 . S
H8471 C8480 0.929 . S
C8472 H8466 0.930 . S
C8472 C8473 1.367 . S
C8472 C8480 1.378 . S
C8473 C8472 1.367 . S
C8473 C8481 1.433 . S
C8474 H8470 0.929 . S
C8474 C8476 1.378 . S
C8474 C8478 1.350 . S
C8475 C8478 1.463 1_655 S
C8475 C8480 1.350 . S
C8475 N8483 1.414 1_655 S
C8476 H8467 0.930 . S
C8476 C8474 1.378 . S
C8476 C8477 1.367 . S
C8477 C8476 1.367 . S
C8477 C8479 1.433 . S
C8478 C8474 1.350 . S
C8478 C8475 1.463 1_455 S
C8478 N8482 1.414 1_455 S
C8479 H8469 0.929 . S
C8479 C8477 1.433 . S
C8479 N8482 1.362 1_455 S
C8480 H8471 0.929 . S
C8480 C8472 1.378 . S
C8480 C8475 1.350 . S
C8481 H8468 0.929 . S
C8481 C8473 1.433 . S
C8481 N8483 1.362 1_655 S
N8482 C8478 1.414 1_655 S
N8482 C8479 1.362 1_655 S
N8483 C8475 1.414 1_455 S
N8483 C8481 1.362 1_455 S
H8484 C8490 0.930 . S
H8485 C8494 0.930 . S
H8486 C8499 0.929 . S
H8487 C8497 0.929 . S
H8488 C8492 0.929 . S
H8489 C8498 0.929 . S
C8490 H8484 0.930 . S
C8490 C8491 1.367 . S
C8490 C8498 1.378 . S
C8491 C8490 1.367 . S
C8491 C8499 1.433 . S
C8492 H8488 0.929 . S
C8492 C8494 1.378 . S
C8492 C8496 1.350 . S
C8493 C8496 1.463 . S
C8493 C8498 1.350 . S
C8493 N8501 1.427 . S
C8494 H8485 0.930 . S
C8494 C8492 1.378 . S
C8494 C8495 1.367 . S
C8495 C8494 1.367 . S
C8495 C8497 1.433 . S
C8496 C8492 1.350 . S
C8496 C8493 1.463 . S
C8496 N8500 1.427 . S
C8497 H8487 0.929 . S
C8497 C8495 1.433 . S
C8497 N8500 1.384 . S
C8498 H8489 0.929 . S
C8498 C8490 1.378 . S
C8498 C8493 1.350 . S
C8499 H8486 0.929 . S
C8499 C8491 1.433 . S
C8499 N8501 1.384 . S
N8500 C8496 1.427 . S
N8500 C8497 1.384 . S
N8501 C8493 1.427 . S
N8501 C8499 1.384 . S
H8502 C8508 0.930 . S
H8503 C8512 0.930 . S
H8504 C8517 0.929 . S
H8505 C8515 0.929 . S
H8506 C8510 0.929 . S
H8507 C8516 0.929 . S
C8508 H8502 0.930 . S
C8508 C8509 1.367 . S
C8508 C8516 1.378 . S
C8509 C8508 1.367 . S
C8509 C8517 1.433 . S
C8510 H8506 0.929 . S
C8510 C8512 1.378 . S
C8510 C8514 1.350 . S
C8511 C8514 1.463 . S
C8511 C8516 1.350 . S
C8511 N8519 1.427 . S
C8512 H8503 0.930 . S
C8512 C8510 1.378 . S
C8512 C8513 1.367 . S
C8513 C8512 1.367 . S
C8513 C8515 1.433 . S
C8514 C8510 1.350 . S
C8514 C8511 1.463 . S
C8514 N8518 1.427 . S
C8515 H8505 0.929 . S
C8515 C8513 1.433 . S
C8515 N8518 1.384 . S
C8516 H8507 0.929 . S
C8516 C8508 1.378 . S
C8516 C8511 1.350 . S
C8517 H8504 0.929 . S
C8517 C8509 1.433 . S
C8517 N8519 1.384 . S
N8518 C8514 1.427 . S
N8518 C8515 1.384 . S
N8519 C8511 1.427 . S
N8519 C8517 1.384 . S
H8520 C8526 0.930 . S
H8521 C8530 0.930 . S
H8522 C8535 0.929 . S
H8523 C8533 0.929 . S
H8524 C8528 0.929 . S
H8525 C8534 0.929 . S
C8526 H8520 0.930 . S
C8526 C8527 1.367 . S
C8526 C8534 1.378 . S
C8527 C8526 1.367 . S
C8527 C8535 1.433 . S
C8528 H8524 0.929 . S
C8528 C8530 1.378 . S
C8528 C8532 1.350 . S
C8529 C8532 1.463 . S
C8529 C8534 1.350 . S
C8529 N8537 1.427 . S
C8530 H8521 0.930 . S
C8530 C8528 1.378 . S
C8530 C8531 1.367 . S
C8531 C8530 1.367 . S
C8531 C8533 1.433 . S
C8532 C8528 1.350 . S
C8532 C8529 1.463 . S
C8532 N8536 1.427 . S
C8533 H8523 0.929 . S
C8533 C8531 1.433 . S
C8533 N8536 1.384 . S
C8534 H8525 0.929 . S
C8534 C8526 1.378 . S
C8534 C8529 1.350 . S
C8535 H8522 0.929 . S
C8535 C8527 1.433 . S
C8535 N8537 1.384 . S
N8536 C8532 1.427 . S
N8536 C8533 1.384 . S
N8537 C8529 1.427 . S
N8537 C8535 1.384 . S
H8538 C8544 0.930 . S
H8539 C8548 0.930 . S
H8540 C8553 0.929 . S
H8541 C8551 0.929 . S
H8542 C8546 0.929 . S
H8543 C8552 0.929 . S
C8544 H8538 0.930 . S
C8544 C8545 1.367 . S
C8544 C8552 1.378 . S
C8545 C8544 1.367 . S
C8545 C8553 1.433 . S
C8546 H8542 0.929 . S
C8546 C8548 1.378 . S
C8546 C8550 1.350 . S
C8547 C8550 1.463 . S
C8547 C8552 1.350 . S
C8547 N8555 1.427 . S
C8548 H8539 0.930 . S
C8548 C8546 1.378 . S
C8548 C8549 1.367 . S
C8549 C8548 1.367 . S
C8549 C8551 1.433 . S
C8550 C8546 1.350 . S
C8550 C8547 1.463 . S
C8550 N8554 1.427 . S
C8551 H8541 0.929 . S
C8551 C8549 1.433 . S
C8551 N8554 1.384 . S
C8552 H8543 0.929 . S
C8552 C8544 1.378 . S
C8552 C8547 1.350 . S
C8553 H8540 0.929 . S
C8553 C8545 1.433 . S
C8553 N8555 1.384 . S
N8554 C8550 1.427 . S
N8554 C8551 1.384 . S
N8555 C8547 1.427 . S
N8555 C8553 1.384 . S
H8556 C8562 0.930 . S
H8557 C8566 0.930 . S
H8558 C8571 0.930 1_565 S
H8559 C8569 0.930 1_545 S
H8560 C8564 0.929 . S
H8561 C8570 0.929 . S
C8562 H8556 0.930 . S
C8562 C8563 1.367 . S
C8562 C8570 1.378 . S
C8563 C8562 1.367 . S
C8563 C8571 1.433 . S
C8564 H8560 0.929 . S
C8564 C8566 1.378 . S
C8564 C8568 1.350 . S
C8565 C8568 1.463 1_545 S
C8565 C8570 1.350 . S
C8565 N8573 1.427 1_545 S
C8566 H8557 0.930 . S
C8566 C8564 1.378 . S
C8566 C8567 1.367 . S
C8567 C8566 1.367 . S
C8567 C8569 1.433 . S
C8568 C8564 1.350 . S
C8568 C8565 1.463 1_565 S
C8568 N8572 1.427 1_565 S
C8569 H8559 0.930 1_565 S
C8569 C8567 1.433 . S
C8569 N8572 1.384 1_565 S
C8570 H8561 0.929 . S
C8570 C8562 1.378 . S
C8570 C8565 1.350 . S
C8571 H8558 0.930 1_545 S
C8571 C8563 1.433 . S
C8571 N8573 1.384 1_545 S
N8572 C8568 1.427 1_545 S
N8572 C8569 1.384 1_545 S
N8573 C8565 1.427 1_565 S
N8573 C8571 1.384 1_565 S
H8574 C8580 0.930 . S
H8575 C8584 0.930 . S
H8576 C8589 0.935 . S
H8577 C8587 0.935 . S
H8578 C8582 0.929 . S
H8579 C8588 0.929 . S
C8580 H8574 0.930 . S
C8580 C8581 1.367 . S
C8580 C8588 1.378 . S
C8581 C8580 1.367 . S
C8581 C8589 1.433 . S
C8582 H8578 0.929 . S
C8582 C8584 1.378 . S
C8582 C8586 1.350 . S
C8583 C8586 1.463 1_455 S
C8583 C8588 1.350 . S
C8583 N8591 1.427 1_455 S
C8584 H8575 0.930 . S
C8584 C8582 1.378 . S
C8584 C8585 1.367 . S
C8585 C8584 1.367 . S
C8585 C8587 1.433 . S
C8586 C8582 1.350 . S
C8586 C8583 1.463 1_655 S
C8586 N8590 1.427 1_655 S
C8587 H8577 0.935 . S
C8587 C8585 1.433 . S
C8587 N8590 1.384 1_655 S
C8588 H8579 0.929 . S
C8588 C8580 1.378 . S
C8588 C8583 1.350 . S
C8589 H8576 0.935 . S
C8589 C8581 1.433 . S
C8589 N8591 1.384 1_455 S
N8590 C8586 1.427 1_455 S
N8590 C8587 1.384 1_455 S
N8591 C8583 1.427 1_655 S
N8591 C8589 1.384 1_655 S
H8592 C8598 0.930 . S
H8593 C8602 0.930 . S
H8594 C8607 0.924 1_556 S
H8595 C8605 0.924 1_554 S
H8596 C8600 0.929 . S
H8597 C8606 0.929 . S
C8598 H8592 0.930 . S
C8598 C8599 1.367 . S
C8598 C8606 1.378 . S
C8599 C8598 1.367 . S
C8599 C8607 1.433 . S
C8600 H8596 0.929 . S
C8600 C8602 1.378 . S
C8600 C8604 1.350 . S
C8601 C8604 1.463 1_554 S
C8601 C8606 1.350 . S
C8601 N8609 1.427 1_554 S
C8602 H8593 0.930 . S
C8602 C8600 1.378 . S
C8602 C8603 1.367 . S
C8603 C8602 1.367 . S
C8603 C8605 1.433 . S
C8604 C8600 1.350 . S
C8604 C8601 1.463 1_556 S
C8604 N8608 1.427 1_556 S
C8605 H8595 0.924 1_556 S
C8605 C8603 1.433 . S
C8605 N8608 1.384 1_556 S
C8606 H8597 0.929 . S
C8606 C8598 1.378 . S
C8606 C8601 1.350 . S
C8607 H8594 0.924 1_554 S
C8607 C8599 1.433 . S
C8607 N8609 1.384 1_554 S
N8608 C8604 1.427 1_554 S
N8608 C8605 1.384 1_554 S
N8609 C8601 1.427 1_556 S
N8609 C8607 1.384 1_556 S
H8610 C8616 0.930 . S
H8611 C8620 0.930 . S
H8612 C8625 0.929 . S
H8613 C8623 0.929 . S
H8614 C8618 0.929 . S
H8615 C8624 0.929 . S
C8616 H8610 0.930 . S
C8616 C8617 1.367 . S
C8616 C8624 1.378 . S
C8617 C8616 1.367 . S
C8617 C8625 1.433 . S
C8618 H8614 0.929 . S
C8618 C8620 1.378 . S
C8618 C8622 1.350 . S
C8619 C8622 1.463 . S
C8619 C8624 1.350 . S
C8619 N8627 1.427 . S
C8620 H8611 0.930 . S
C8620 C8618 1.378 . S
C8620 C8621 1.367 . S
C8621 C8620 1.367 . S
C8621 C8623 1.433 . S
C8622 C8618 1.350 . S
C8622 C8619 1.463 . S
C8622 N8626 1.427 . S
C8623 H8613 0.929 . S
C8623 C8621 1.433 . S
C8623 N8626 1.384 . S
C8624 H8615 0.929 . S
C8624 C8616 1.378 . S
C8624 C8619 1.350 . S
C8625 H8612 0.929 . S
C8625 C8617 1.433 . S
C8625 N8627 1.384 . S
N8626 C8622 1.427 . S
N8626 C8623 1.384 . S
N8627 C8619 1.427 . S
N8627 C8625 1.384 . S
H8628 C8634 0.930 . S
H8629 C8638 0.930 . S
H8630 C8643 0.929 . S
H8631 C8641 0.929 . S
H8632 C8636 0.929 . S
H8633 C8642 0.929 . S
C8634 H8628 0.930 . S
C8634 C8635 1.367 . S
C8634 C8642 1.378 . S
C8635 C8634 1.367 . S
C8635 C8643 1.433 . S
C8636 H8632 0.929 . S
C8636 C8638 1.378 . S
C8636 C8640 1.350 . S
C8637 C8640 1.463 . S
C8637 C8642 1.350 . S
C8637 N8645 1.427 . S
C8638 H8629 0.930 . S
C8638 C8636 1.378 . S
C8638 C8639 1.367 . S
C8639 C8638 1.367 . S
C8639 C8641 1.433 . S
C8640 C8636 1.350 . S
C8640 C8637 1.463 . S
C8640 N8644 1.427 . S
C8641 H8631 0.929 . S
C8641 C8639 1.433 . S
C8641 N8644 1.384 . S
C8642 H8633 0.929 . S
C8642 C8634 1.378 . S
C8642 C8637 1.350 . S
C8643 H8630 0.929 . S
C8643 C8635 1.433 . S
C8643 N8645 1.384 . S
N8644 C8640 1.427 . S
N8644 C8641 1.384 . S
N8645 C8637 1.427 . S
N8645 C8643 1.384 . S
H8646 C8652 0.930 . S
H8647 C8656 0.930 . S
H8648 C8661 0.929 . S
H8649 C8659 0.929 . S
H8650 C8654 0.929 . S
H8651 C8660 0.929 . S
C8652 H8646 0.930 . S
C8652 C8653 1.367 . S
C8652 C8660 1.378 . S
C8653 C8652 1.367 . S
C8653 C8661 1.433 . S
C8654 H8650 0.929 . S
C8654 C8656 1.378 . S
C8654 C8658 1.350 . S
C8655 C8658 1.463 . S
C8655 C8660 1.350 . S
C8655 N8663 1.427 . S
C8656 H8647 0.930 . S
C8656 C8654 1.378 . S
C8656 C8657 1.367 . S
C8657 C8656 1.367 . S
C8657 C8659 1.433 . S
C8658 C8654 1.350 . S
C8658 C8655 1.463 . S
C8658 N8662 1.427 . S
C8659 H8649 0.929 . S
C8659 C8657 1.433 . S
C8659 N8662 1.384 . S
C8660 H8651 0.929 . S
C8660 C8652 1.378 . S
C8660 C8655 1.350 . S
C8661 H8648 0.929 . S
C8661 C8653 1.433 . S
C8661 N8663 1.384 . S
N8662 C8658 1.427 . S
N8662 C8659 1.384 . S
N8663 C8655 1.427 . S
N8663 C8661 1.384 . S
H8664 C8670 0.930 . S
H8665 C8674 0.930 . S
H8666 C8679 0.929 . S
H8667 C8677 0.929 . S
H8668 C8672 0.929 . S
H8669 C8678 0.929 . S
C8670 H8664 0.930 . S
C8670 C8671 1.367 . S
C8670 C8678 1.378 . S
C8671 C8670 1.367 . S
C8671 C8679 1.433 . S
C8672 H8668 0.929 . S
C8672 C8674 1.378 . S
C8672 C8676 1.350 . S
C8673 C8676 1.463 . S
C8673 C8678 1.350 . S
C8673 N8681 1.427 . S
C8674 H8665 0.930 . S
C8674 C8672 1.378 . S
C8674 C8675 1.367 . S
C8675 C8674 1.367 . S
C8675 C8677 1.433 . S
C8676 C8672 1.350 . S
C8676 C8673 1.463 . S
C8676 N8680 1.427 . S
C8677 H8667 0.929 . S
C8677 C8675 1.433 . S
C8677 N8680 1.384 . S
C8678 H8669 0.929 . S
C8678 C8670 1.378 . S
C8678 C8673 1.350 . S
C8679 H8666 0.929 . S
C8679 C8671 1.433 . S
C8679 N8681 1.384 . S
N8680 C8676 1.427 . S
N8680 C8677 1.384 . S
N8681 C8673 1.427 . S
N8681 C8679 1.384 . S
H8682 C8688 0.930 . S
H8683 C8692 0.930 . S
H8684 C8697 0.929 . S
H8685 C8695 0.929 . S
H8686 C8690 0.929 . S
H8687 C8696 0.929 . S
C8688 H8682 0.930 . S
C8688 C8689 1.367 . S
C8688 C8696 1.378 . S
C8689 C8688 1.367 . S
C8689 C8697 1.433 . S
C8690 H8686 0.929 . S
C8690 C8692 1.378 . S
C8690 C8694 1.350 . S
C8691 C8694 1.463 1_556 S
C8691 C8696 1.350 . S
C8691 N8699 1.427 . S
C8692 H8683 0.930 . S
C8692 C8690 1.378 . S
C8692 C8693 1.367 . S
C8693 C8692 1.367 . S
C8693 C8695 1.433 . S
C8694 C8690 1.350 . S
C8694 C8691 1.463 1_554 S
C8694 N8698 1.427 . S
C8695 H8685 0.929 . S
C8695 C8693 1.433 . S
C8695 N8698 1.384 . S
C8696 H8687 0.929 . S
C8696 C8688 1.378 . S
C8696 C8691 1.350 . S
C8697 H8684 0.929 . S
C8697 C8689 1.433 . S
C8697 N8699 1.384 . S
N8698 C8694 1.427 . S
N8698 C8695 1.384 . S
N8699 C8691 1.427 . S
N8699 C8697 1.384 . S
H8700 C8706 0.930 . S
H8701 C8710 0.930 . S
H8702 C8715 0.929 . S
H8703 C8713 0.929 . S
H8704 C8708 0.929 . S
H8705 C8714 0.929 . S
C8706 H8700 0.930 . S
C8706 C8707 1.367 . S
C8706 C8714 1.378 . S
C8707 C8706 1.367 . S
C8707 C8715 1.433 . S
C8708 H8704 0.929 . S
C8708 C8710 1.378 . S
C8708 C8712 1.350 . S
C8709 C8712 1.463 . S
C8709 C8714 1.350 . S
C8709 N8717 1.427 . S
C8710 H8701 0.930 . S
C8710 C8708 1.378 . S
C8710 C8711 1.367 . S
C8711 C8710 1.367 . S
C8711 C8713 1.433 . S
C8712 C8708 1.350 . S
C8712 C8709 1.463 . S
C8712 N8716 1.427 . S
C8713 H8703 0.929 . S
C8713 C8711 1.433 . S
C8713 N8716 1.384 . S
C8714 H8705 0.929 . S
C8714 C8706 1.378 . S
C8714 C8709 1.350 . S
C8715 H8702 0.929 . S
C8715 C8707 1.433 . S
C8715 N8717 1.384 . S
N8716 C8712 1.427 . S
N8716 C8713 1.384 . S
N8717 C8709 1.427 . S
N8717 C8715 1.384 . S
H8718 C8724 0.930 . S
H8719 C8728 0.930 . S
H8720 C8733 0.929 . S
H8721 C8731 0.929 . S
H8722 C8726 0.929 . S
H8723 C8732 0.929 . S
C8724 H8718 0.930 . S
C8724 C8725 1.367 . S
C8724 C8732 1.378 . S
C8725 C8724 1.367 . S
C8725 C8733 1.433 . S
C8726 H8722 0.929 . S
C8726 C8728 1.378 . S
C8726 C8730 1.350 . S
C8727 C8730 1.463 . S
C8727 C8732 1.350 . S
C8727 N8735 1.427 . S
C8728 H8719 0.930 . S
C8728 C8726 1.378 . S
C8728 C8729 1.367 . S
C8729 C8728 1.367 . S
C8729 C8731 1.433 . S
C8730 C8726 1.350 . S
C8730 C8727 1.463 . S
C8730 N8734 1.427 . S
C8731 H8721 0.929 . S
C8731 C8729 1.433 . S
C8731 N8734 1.384 . S
C8732 H8723 0.929 . S
C8732 C8724 1.378 . S
C8732 C8727 1.350 . S
C8733 H8720 0.929 . S
C8733 C8725 1.433 . S
C8733 N8735 1.384 . S
N8734 C8730 1.427 . S
N8734 C8731 1.384 . S
N8735 C8727 1.427 . S
N8735 C8733 1.384 . S
H8736 C8742 0.930 . S
H8737 C8746 0.930 . S
H8738 C8751 0.929 . S
H8739 C8749 0.929 . S
H8740 C8744 0.929 . S
H8741 C8750 0.929 . S
C8742 H8736 0.930 . S
C8742 C8743 1.367 . S
C8742 C8750 1.378 . S
C8743 C8742 1.367 . S
C8743 C8751 1.433 . S
C8744 H8740 0.929 . S
C8744 C8746 1.378 . S
C8744 C8748 1.350 . S
C8745 C8748 1.463 . S
C8745 C8750 1.350 . S
C8745 N8753 1.427 . S
C8746 H8737 0.930 . S
C8746 C8744 1.378 . S
C8746 C8747 1.367 . S
C8747 C8746 1.367 . S
C8747 C8749 1.433 . S
C8748 C8744 1.350 . S
C8748 C8745 1.463 . S
C8748 N8752 1.427 . S
C8749 H8739 0.929 . S
C8749 C8747 1.433 . S
C8749 N8752 1.384 . S
C8750 H8741 0.929 . S
C8750 C8742 1.378 . S
C8750 C8745 1.350 . S
C8751 H8738 0.929 . S
C8751 C8743 1.433 . S
C8751 N8753 1.384 . S
N8752 C8748 1.427 . S
N8752 C8749 1.384 . S
N8753 C8745 1.427 . S
N8753 C8751 1.384 . S
H8754 C8760 0.930 . S
H8755 C8764 0.930 . S
H8756 C8769 0.929 . S
H8757 C8767 0.929 . S
H8758 C8762 0.929 . S
H8759 C8768 0.929 . S
C8760 H8754 0.930 . S
C8760 C8761 1.367 . S
C8760 C8768 1.378 . S
C8761 C8760 1.367 . S
C8761 C8769 1.433 . S
C8762 H8758 0.929 . S
C8762 C8764 1.378 . S
C8762 C8766 1.350 . S
C8763 C8766 1.463 . S
C8763 C8768 1.350 . S
C8763 N8771 1.427 . S
C8764 H8755 0.930 . S
C8764 C8762 1.378 . S
C8764 C8765 1.367 . S
C8765 C8764 1.367 . S
C8765 C8767 1.433 . S
C8766 C8762 1.350 . S
C8766 C8763 1.463 . S
C8766 N8770 1.427 . S
C8767 H8757 0.929 . S
C8767 C8765 1.433 . S
C8767 N8770 1.384 . S
C8768 H8759 0.929 . S
C8768 C8760 1.378 . S
C8768 C8763 1.350 . S
C8769 H8756 0.929 . S
C8769 C8761 1.433 . S
C8769 N8771 1.384 . S
N8770 C8766 1.427 . S
N8770 C8767 1.384 . S
N8771 C8763 1.427 . S
N8771 C8769 1.384 . S
H8772 C8778 0.930 . S
H8773 C8782 0.930 . S
H8774 C8787 0.929 . S
H8775 C8785 0.929 . S
H8776 C8780 0.929 . S
H8777 C8786 0.929 . S
C8778 H8772 0.930 . S
C8778 C8779 1.367 . S
C8778 C8786 1.378 . S
C8779 C8778 1.367 . S
C8779 C8787 1.433 . S
C8780 H8776 0.929 . S
C8780 C8782 1.378 . S
C8780 C8784 1.350 . S
C8781 C8784 1.463 . S
C8781 C8786 1.350 . S
C8781 N8789 1.427 . S
C8782 H8773 0.930 . S
C8782 C8780 1.378 . S
C8782 C8783 1.367 . S
C8783 C8782 1.367 . S
C8783 C8785 1.433 . S
C8784 C8780 1.350 . S
C8784 C8781 1.463 . S
C8784 N8788 1.427 . S
C8785 H8775 0.929 . S
C8785 C8783 1.433 . S
C8785 N8788 1.384 . S
C8786 H8777 0.929 . S
C8786 C8778 1.378 . S
C8786 C8781 1.350 . S
C8787 H8774 0.929 . S
C8787 C8779 1.433 . S
C8787 N8789 1.384 . S
N8788 C8784 1.427 . S
N8788 C8785 1.384 . S
N8789 C8781 1.427 . S
N8789 C8787 1.384 . S
H8790 C8796 0.930 . S
H8791 C8800 0.930 . S
H8792 C8805 0.929 . S
H8793 C8803 0.929 . S
H8794 C8798 0.929 . S
H8795 C8804 0.929 . S
C8796 H8790 0.930 . S
C8796 C8797 1.367 . S
C8796 C8804 1.378 . S
C8797 C8796 1.367 . S
C8797 C8805 1.433 . S
C8798 H8794 0.929 . S
C8798 C8800 1.378 . S
C8798 C8802 1.350 . S
C8799 C8802 1.463 . S
C8799 C8804 1.350 . S
C8799 N8807 1.427 . S
C8800 H8791 0.930 . S
C8800 C8798 1.378 . S
C8800 C8801 1.367 . S
C8801 C8800 1.367 . S
C8801 C8803 1.433 . S
C8802 C8798 1.350 . S
C8802 C8799 1.463 . S
C8802 N8806 1.427 . S
C8803 H8793 0.929 . S
C8803 C8801 1.433 . S
C8803 N8806 1.384 . S
C8804 H8795 0.929 . S
C8804 C8796 1.378 . S
C8804 C8799 1.350 . S
C8805 H8792 0.929 . S
C8805 C8797 1.433 . S
C8805 N8807 1.384 . S
N8806 C8802 1.427 . S
N8806 C8803 1.384 . S
N8807 C8799 1.427 . S
N8807 C8805 1.384 . S
H8808 C8814 0.930 . S
H8809 C8818 0.930 . S
H8810 C8823 0.929 . S
H8811 C8821 0.929 . S
H8812 C8816 0.929 . S
H8813 C8822 0.929 . S
C8814 H8808 0.930 . S
C8814 C8815 1.367 . S
C8814 C8822 1.378 . S
C8815 C8814 1.367 . S
C8815 C8823 1.433 . S
C8816 H8812 0.929 . S
C8816 C8818 1.378 . S
C8816 C8820 1.350 . S
C8817 C8820 1.463 . S
C8817 C8822 1.350 . S
C8817 N8825 1.427 . S
C8818 H8809 0.930 . S
C8818 C8816 1.378 . S
C8818 C8819 1.367 . S
C8819 C8818 1.367 . S
C8819 C8821 1.433 . S
C8820 C8816 1.350 . S
C8820 C8817 1.463 . S
C8820 N8824 1.427 . S
C8821 H8811 0.929 . S
C8821 C8819 1.433 . S
C8821 N8824 1.384 . S
C8822 H8813 0.929 . S
C8822 C8814 1.378 . S
C8822 C8817 1.350 . S
C8823 H8810 0.929 . S
C8823 C8815 1.433 . S
C8823 N8825 1.384 . S
N8824 C8820 1.427 . S
N8824 C8821 1.384 . S
N8825 C8817 1.427 . S
N8825 C8823 1.384 . S
H8826 C8832 0.930 . S
H8827 C8836 0.930 . S
H8828 C8841 0.929 . S
H8829 C8839 0.929 . S
H8830 C8834 0.929 . S
H8831 C8840 0.929 . S
C8832 H8826 0.930 . S
C8832 C8833 1.367 . S
C8832 C8840 1.378 . S
C8833 C8832 1.367 . S
C8833 C8841 1.433 . S
C8834 H8830 0.929 . S
C8834 C8836 1.378 . S
C8834 C8838 1.350 . S
C8835 C8838 1.463 . S
C8835 C8840 1.350 . S
C8835 N8843 1.427 . S
C8836 H8827 0.930 . S
C8836 C8834 1.378 . S
C8836 C8837 1.367 . S
C8837 C8836 1.367 . S
C8837 C8839 1.433 . S
C8838 C8834 1.350 . S
C8838 C8835 1.463 . S
C8838 N8842 1.427 . S
C8839 H8829 0.929 . S
C8839 C8837 1.433 . S
C8839 N8842 1.384 . S
C8840 H8831 0.929 . S
C8840 C8832 1.378 . S
C8840 C8835 1.350 . S
C8841 H8828 0.929 . S
C8841 C8833 1.433 . S
C8841 N8843 1.384 . S
N8842 C8838 1.427 . S
N8842 C8839 1.384 . S
N8843 C8835 1.427 . S
N8843 C8841 1.384 . S
H8844 C8850 0.930 . S
H8845 C8854 0.930 . S
H8846 C8859 0.929 . S
H8847 C8857 0.929 . S
H8848 C8852 0.929 . S
H8849 C8858 0.929 . S
C8850 H8844 0.930 . S
C8850 C8851 1.367 . S
C8850 C8858 1.378 . S
C8851 C8850 1.367 . S
C8851 C8859 1.433 . S
C8852 H8848 0.929 . S
C8852 C8854 1.378 . S
C8852 C8856 1.350 . S
C8853 C8856 1.463 . S
C8853 C8858 1.350 . S
C8853 N8861 1.427 . S
C8854 H8845 0.930 . S
C8854 C8852 1.378 . S
C8854 C8855 1.367 . S
C8855 C8854 1.367 . S
C8855 C8857 1.433 . S
C8856 C8852 1.350 . S
C8856 C8853 1.463 . S
C8856 N8860 1.427 . S
C8857 H8847 0.929 . S
C8857 C8855 1.433 . S
C8857 N8860 1.384 . S
C8858 H8849 0.929 . S
C8858 C8850 1.378 . S
C8858 C8853 1.350 . S
C8859 H8846 0.929 . S
C8859 C8851 1.433 . S
C8859 N8861 1.384 . S
N8860 C8856 1.427 . S
N8860 C8857 1.384 . S
N8861 C8853 1.427 . S
N8861 C8859 1.384 . S
H8862 C8868 0.930 . S
H8863 C8872 0.930 . S
H8864 C8877 0.929 . S
H8865 C8875 0.929 . S
H8866 C8870 0.929 . S
H8867 C8876 0.929 . S
C8868 H8862 0.930 . S
C8868 C8869 1.367 . S
C8868 C8876 1.378 . S
C8869 C8868 1.367 . S
C8869 C8877 1.433 . S
C8870 H8866 0.929 . S
C8870 C8872 1.378 . S
C8870 C8874 1.350 . S
C8871 C8874 1.463 . S
C8871 C8876 1.350 . S
C8871 N8879 1.427 . S
C8872 H8863 0.930 . S
C8872 C8870 1.378 . S
C8872 C8873 1.367 . S
C8873 C8872 1.367 . S
C8873 C8875 1.433 . S
C8874 C8870 1.350 . S
C8874 C8871 1.463 . S
C8874 N8878 1.427 . S
C8875 H8865 0.929 . S
C8875 C8873 1.433 . S
C8875 N8878 1.384 . S
C8876 H8867 0.929 . S
C8876 C8868 1.378 . S
C8876 C8871 1.350 . S
C8877 H8864 0.929 . S
C8877 C8869 1.433 . S
C8877 N8879 1.384 . S
N8878 C8874 1.427 . S
N8878 C8875 1.384 . S
N8879 C8871 1.427 . S
N8879 C8877 1.384 . S
H8880 C8886 0.930 . S
H8881 C8890 0.930 . S
H8882 C8895 0.929 . S
H8883 C8893 0.929 . S
H8884 C8888 0.929 . S
H8885 C8894 0.929 . S
C8886 H8880 0.930 . S
C8886 C8887 1.367 . S
C8886 C8894 1.378 . S
C8887 C8886 1.367 . S
C8887 C8895 1.433 . S
C8888 H8884 0.929 . S
C8888 C8890 1.378 . S
C8888 C8892 1.350 . S
C8889 C8892 1.463 . S
C8889 C8894 1.350 . S
C8889 N8897 1.427 . S
C8890 H8881 0.930 . S
C8890 C8888 1.378 . S
C8890 C8891 1.367 . S
C8891 C8890 1.367 . S
C8891 C8893 1.433 . S
C8892 C8888 1.350 . S
C8892 C8889 1.463 . S
C8892 N8896 1.427 . S
C8893 H8883 0.929 . S
C8893 C8891 1.433 . S
C8893 N8896 1.384 . S
C8894 H8885 0.929 . S
C8894 C8886 1.378 . S
C8894 C8889 1.350 . S
C8895 H8882 0.929 . S
C8895 C8887 1.433 . S
C8895 N8897 1.384 . S
N8896 C8892 1.427 . S
N8896 C8893 1.384 . S
N8897 C8889 1.427 . S
N8897 C8895 1.384 . S
H8898 C8904 0.930 . S
H8899 C8908 0.930 . S
H8900 C8913 0.929 . S
H8901 C8911 0.929 . S
H8902 C8906 0.929 . S
H8903 C8912 0.929 . S
C8904 H8898 0.930 . S
C8904 C8905 1.367 . S
C8904 C8912 1.378 . S
C8905 C8904 1.367 . S
C8905 C8913 1.433 . S
C8906 H8902 0.929 . S
C8906 C8908 1.378 . S
C8906 C8910 1.350 . S
C8907 C8910 1.463 . S
C8907 C8912 1.350 . S
C8907 N8915 1.427 . S
C8908 H8899 0.930 . S
C8908 C8906 1.378 . S
C8908 C8909 1.367 . S
C8909 C8908 1.367 . S
C8909 C8911 1.433 . S
C8910 C8906 1.350 . S
C8910 C8907 1.463 . S
C8910 N8914 1.427 . S
C8911 H8901 0.929 . S
C8911 C8909 1.433 . S
C8911 N8914 1.384 . S
C8912 H8903 0.929 . S
C8912 C8904 1.378 . S
C8912 C8907 1.350 . S
C8913 H8900 0.929 . S
C8913 C8905 1.433 . S
C8913 N8915 1.384 . S
N8914 C8910 1.427 . S
N8914 C8911 1.384 . S
N8915 C8907 1.427 . S
N8915 C8913 1.384 . S
H8916 C8922 0.930 . S
H8917 C8926 0.930 . S
H8918 C8931 0.929 . S
H8919 C8929 0.929 . S
H8920 C8924 0.929 . S
H8921 C8930 0.929 . S
C8922 H8916 0.930 . S
C8922 C8923 1.367 . S
C8922 C8930 1.378 . S
C8923 C8922 1.367 . S
C8923 C8931 1.433 . S
C8924 H8920 0.929 . S
C8924 C8926 1.378 . S
C8924 C8928 1.350 . S
C8925 C8928 1.463 1_556 S
C8925 C8930 1.350 . S
C8925 N8933 1.427 . S
C8926 H8917 0.930 . S
C8926 C8924 1.378 . S
C8926 C8927 1.367 . S
C8927 C8926 1.367 . S
C8927 C8929 1.433 . S
C8928 C8924 1.350 . S
C8928 C8925 1.463 1_554 S
C8928 N8932 1.427 . S
C8929 H8919 0.929 . S
C8929 C8927 1.433 . S
C8929 N8932 1.384 . S
C8930 H8921 0.929 . S
C8930 C8922 1.378 . S
C8930 C8925 1.350 . S
C8931 H8918 0.929 . S
C8931 C8923 1.433 . S
C8931 N8933 1.384 . S
N8932 C8928 1.427 . S
N8932 C8929 1.384 . S
N8933 C8925 1.427 . S
N8933 C8931 1.384 . S
H8934 C8940 0.930 . S
H8935 C8944 0.930 . S
H8936 C8949 0.929 . S
H8937 C8947 0.929 . S
H8938 C8942 0.929 . S
H8939 C8948 0.929 . S
C8940 H8934 0.930 . S
C8940 C8941 1.367 . S
C8940 C8948 1.378 . S
C8941 C8940 1.367 . S
C8941 C8949 1.433 . S
C8942 H8938 0.929 . S
C8942 C8944 1.378 . S
C8942 C8946 1.350 . S
C8943 C8946 1.463 . S
C8943 C8948 1.350 . S
C8943 N8951 1.427 . S
C8944 H8935 0.930 . S
C8944 C8942 1.378 . S
C8944 C8945 1.367 . S
C8945 C8944 1.367 . S
C8945 C8947 1.433 . S
C8946 C8942 1.350 . S
C8946 C8943 1.463 . S
C8946 N8950 1.427 . S
C8947 H8937 0.929 . S
C8947 C8945 1.433 . S
C8947 N8950 1.384 . S
C8948 H8939 0.929 . S
C8948 C8940 1.378 . S
C8948 C8943 1.350 . S
C8949 H8936 0.929 . S
C8949 C8941 1.433 . S
C8949 N8951 1.384 . S
N8950 C8946 1.427 . S
N8950 C8947 1.384 . S
N8951 C8943 1.427 . S
N8951 C8949 1.384 . S
H8952 C8958 0.929 1_556 S
H8953 C8962 0.929 1_554 S
H8954 C8967 0.929 . S
H8955 C8965 0.929 . S
H8956 C8960 0.929 . S
H8957 C8966 0.929 . S
C8958 H8952 0.929 1_554 S
C8958 C8959 1.367 . S
C8958 C8966 1.378 1_554 S
C8959 C8958 1.367 . S
C8959 C8967 1.433 . S
C8960 H8956 0.929 . S
C8960 C8962 1.378 1_554 S
C8960 C8964 1.350 1_554 S
C8961 C8964 1.463 1_554 S
C8961 C8966 1.350 1_554 S
C8961 N8969 1.427 . S
C8962 H8953 0.929 1_556 S
C8962 C8960 1.378 1_556 S
C8962 C8963 1.367 . S
C8963 C8962 1.367 . S
C8963 C8965 1.433 . S
C8964 C8960 1.350 1_556 S
C8964 C8961 1.463 1_556 S
C8964 N8968 1.427 . S
C8965 H8955 0.929 . S
C8965 C8963 1.433 . S
C8965 N8968 1.384 . S
C8966 H8957 0.929 . S
C8966 C8958 1.378 1_556 S
C8966 C8961 1.350 1_556 S
C8967 H8954 0.929 . S
C8967 C8959 1.433 . S
C8967 N8969 1.384 . S
N8968 C8964 1.427 . S
N8968 C8965 1.384 . S
N8969 C8961 1.427 . S
N8969 C8967 1.384 . S
H8970 C8976 0.930 . S
H8971 C8980 0.930 . S
H8972 C8985 0.929 . S
H8973 C8983 0.929 . S
H8974 C8978 0.929 . S
H8975 C8984 0.929 . S
C8976 H8970 0.930 . S
C8976 C8977 1.367 . S
C8976 C8984 1.378 . S
C8977 C8976 1.367 . S
C8977 C8985 1.433 . S
C8978 H8974 0.929 . S
C8978 C8980 1.378 . S
C8978 C8982 1.350 . S
C8979 C8982 1.463 . S
C8979 C8984 1.350 . S
C8979 N8987 1.427 . S
C8980 H8971 0.930 . S
C8980 C8978 1.378 . S
C8980 C8981 1.367 . S
C8981 C8980 1.367 . S
C8981 C8983 1.433 . S
C8982 C8978 1.350 . S
C8982 C8979 1.463 . S
C8982 N8986 1.427 . S
C8983 H8973 0.929 . S
C8983 C8981 1.433 . S
C8983 N8986 1.384 . S
C8984 H8975 0.929 . S
C8984 C8976 1.378 . S
C8984 C8979 1.350 . S
C8985 H8972 0.929 . S
C8985 C8977 1.433 . S
C8985 N8987 1.384 . S
N8986 C8982 1.427 . S
N8986 C8983 1.384 . S
N8987 C8979 1.427 . S
N8987 C8985 1.384 . S
H8988 C8994 0.930 . S
H8989 C8998 0.930 . S
H8990 C9003 0.929 . S
H8991 C9001 0.929 . S
H8992 C8996 0.929 . S
H8993 C9002 0.929 . S
C8994 H8988 0.930 . S
C8994 C8995 1.367 . S
C8994 C9002 1.378 . S
C8995 C8994 1.367 . S
C8995 C9003 1.433 . S
C8996 H8992 0.929 . S
C8996 C8998 1.378 . S
C8996 C9000 1.350 . S
C8997 C9000 1.463 . S
C8997 C9002 1.350 . S
C8997 N9005 1.427 . S
C8998 H8989 0.930 . S
C8998 C8996 1.378 . S
C8998 C8999 1.367 . S
C8999 C8998 1.367 . S
C8999 C9001 1.433 . S
C9000 C8996 1.350 . S
C9000 C8997 1.463 . S
C9000 N9004 1.427 . S
C9001 H8991 0.929 . S
C9001 C8999 1.433 . S
C9001 N9004 1.384 . S
C9002 H8993 0.929 . S
C9002 C8994 1.378 . S
C9002 C8997 1.350 . S
C9003 H8990 0.929 . S
C9003 C8995 1.433 . S
C9003 N9005 1.384 . S
N9004 C9000 1.427 . S
N9004 C9001 1.384 . S
N9005 C8997 1.427 . S
N9005 C9003 1.384 . S
H9006 C9012 0.930 . S
H9007 C9016 0.930 . S
H9008 C9021 0.929 . S
H9009 C9019 0.929 . S
H9010 C9014 0.929 . S
H9011 C9020 0.929 . S
C9012 H9006 0.930 . S
C9012 C9013 1.367 . S
C9012 C9020 1.378 . S
C9013 C9012 1.367 . S
C9013 C9021 1.433 . S
C9014 H9010 0.929 . S
C9014 C9016 1.378 . S
C9014 C9018 1.350 . S
C9015 C9018 1.463 . S
C9015 C9020 1.350 . S
C9015 N9023 1.427 . S
C9016 H9007 0.930 . S
C9016 C9014 1.378 . S
C9016 C9017 1.367 . S
C9017 C9016 1.367 . S
C9017 C9019 1.433 . S
C9018 C9014 1.350 . S
C9018 C9015 1.463 . S
C9018 N9022 1.427 . S
C9019 H9009 0.929 . S
C9019 C9017 1.433 . S
C9019 N9022 1.384 . S
C9020 H9011 0.929 . S
C9020 C9012 1.378 . S
C9020 C9015 1.350 . S
C9021 H9008 0.929 . S
C9021 C9013 1.433 . S
C9021 N9023 1.384 . S
N9022 C9018 1.427 . S
N9022 C9019 1.384 . S
N9023 C9015 1.427 . S
N9023 C9021 1.384 . S
H9024 C9030 0.930 . S
H9025 C9034 0.930 . S
H9026 C9039 0.929 . S
H9027 C9037 0.929 . S
H9028 C9032 0.929 . S
H9029 C9038 0.929 . S
C9030 H9024 0.930 . S
C9030 C9031 1.367 . S
C9030 C9038 1.378 . S
C9031 C9030 1.367 . S
C9031 C9039 1.433 . S
C9032 H9028 0.929 . S
C9032 C9034 1.378 . S
C9032 C9036 1.350 . S
C9033 C9036 1.463 . S
C9033 C9038 1.350 . S
C9033 N9041 1.427 . S
C9034 H9025 0.930 . S
C9034 C9032 1.378 . S
C9034 C9035 1.367 . S
C9035 C9034 1.367 . S
C9035 C9037 1.433 . S
C9036 C9032 1.350 . S
C9036 C9033 1.463 . S
C9036 N9040 1.427 . S
C9037 H9027 0.929 . S
C9037 C9035 1.433 . S
C9037 N9040 1.384 . S
C9038 H9029 0.929 . S
C9038 C9030 1.378 . S
C9038 C9033 1.350 . S
C9039 H9026 0.929 . S
C9039 C9031 1.433 . S
C9039 N9041 1.384 . S
N9040 C9036 1.427 . S
N9040 C9037 1.384 . S
N9041 C9033 1.427 . S
N9041 C9039 1.384 . S
H9042 C9048 0.930 . S
H9043 C9052 0.930 . S
H9044 C9057 0.929 . S
H9045 C9055 0.929 . S
H9046 C9050 0.929 . S
H9047 C9056 0.929 . S
C9048 H9042 0.930 . S
C9048 C9049 1.367 . S
C9048 C9056 1.378 . S
C9049 C9048 1.367 . S
C9049 C9057 1.433 . S
C9050 H9046 0.929 . S
C9050 C9052 1.378 . S
C9050 C9054 1.350 . S
C9051 C9054 1.463 . S
C9051 C9056 1.350 . S
C9051 N9059 1.427 . S
C9052 H9043 0.930 . S
C9052 C9050 1.378 . S
C9052 C9053 1.367 . S
C9053 C9052 1.367 . S
C9053 C9055 1.433 . S
C9054 C9050 1.350 . S
C9054 C9051 1.463 . S
C9054 N9058 1.427 . S
C9055 H9045 0.929 . S
C9055 C9053 1.433 . S
C9055 N9058 1.384 . S
C9056 H9047 0.929 . S
C9056 C9048 1.378 . S
C9056 C9051 1.350 . S
C9057 H9044 0.929 . S
C9057 C9049 1.433 . S
C9057 N9059 1.384 . S
N9058 C9054 1.427 . S
N9058 C9055 1.384 . S
N9059 C9051 1.427 . S
N9059 C9057 1.384 . S
H9060 C9066 0.930 . S
H9061 C9070 0.930 . S
H9062 C9075 0.929 . S
H9063 C9073 0.929 . S
H9064 C9068 0.929 . S
H9065 C9074 0.929 . S
C9066 H9060 0.930 . S
C9066 C9067 1.367 . S
C9066 C9074 1.378 . S
C9067 C9066 1.367 . S
C9067 C9075 1.433 . S
C9068 H9064 0.929 . S
C9068 C9070 1.378 . S
C9068 C9072 1.350 . S
C9069 C9072 1.463 . S
C9069 C9074 1.350 . S
C9069 N9077 1.427 . S
C9070 H9061 0.930 . S
C9070 C9068 1.378 . S
C9070 C9071 1.367 . S
C9071 C9070 1.367 . S
C9071 C9073 1.433 . S
C9072 C9068 1.350 . S
C9072 C9069 1.463 . S
C9072 N9076 1.427 . S
C9073 H9063 0.929 . S
C9073 C9071 1.433 . S
C9073 N9076 1.384 . S
C9074 H9065 0.929 . S
C9074 C9066 1.378 . S
C9074 C9069 1.350 . S
C9075 H9062 0.929 . S
C9075 C9067 1.433 . S
C9075 N9077 1.384 . S
N9076 C9072 1.427 . S
N9076 C9073 1.384 . S
N9077 C9069 1.427 . S
N9077 C9075 1.384 . S
H9078 C9084 0.930 . S
H9079 C9088 0.930 . S
H9080 C9093 0.929 . S
H9081 C9091 0.929 . S
H9082 C9086 0.929 . S
H9083 C9092 0.929 . S
C9084 H9078 0.930 . S
C9084 C9085 1.367 . S
C9084 C9092 1.378 . S
C9085 C9084 1.367 . S
C9085 C9093 1.433 . S
C9086 H9082 0.929 . S
C9086 C9088 1.378 . S
C9086 C9090 1.350 . S
C9087 C9090 1.463 . S
C9087 C9092 1.350 . S
C9087 N9095 1.427 . S
C9088 H9079 0.930 . S
C9088 C9086 1.378 . S
C9088 C9089 1.367 . S
C9089 C9088 1.367 . S
C9089 C9091 1.433 . S
C9090 C9086 1.350 . S
C9090 C9087 1.463 . S
C9090 N9094 1.427 . S
C9091 H9081 0.929 . S
C9091 C9089 1.433 . S
C9091 N9094 1.384 . S
C9092 H9083 0.929 . S
C9092 C9084 1.378 . S
C9092 C9087 1.350 . S
C9093 H9080 0.929 . S
C9093 C9085 1.433 . S
C9093 N9095 1.384 . S
N9094 C9090 1.427 . S
N9094 C9091 1.384 . S
N9095 C9087 1.427 . S
N9095 C9093 1.384 . S
H9096 C9102 0.930 . S
H9097 C9106 0.930 . S
H9098 C9111 0.929 . S
H9099 C9109 0.929 . S
H9100 C9104 0.929 . S
H9101 C9110 0.929 . S
C9102 H9096 0.930 . S
C9102 C9103 1.367 . S
C9102 C9110 1.378 . S
C9103 C9102 1.367 . S
C9103 C9111 1.433 . S
C9104 H9100 0.929 . S
C9104 C9106 1.378 . S
C9104 C9108 1.350 . S
C9105 C9108 1.463 . S
C9105 C9110 1.350 . S
C9105 N9113 1.427 . S
C9106 H9097 0.930 . S
C9106 C9104 1.378 . S
C9106 C9107 1.367 . S
C9107 C9106 1.367 . S
C9107 C9109 1.433 . S
C9108 C9104 1.350 . S
C9108 C9105 1.463 . S
C9108 N9112 1.427 . S
C9109 H9099 0.929 . S
C9109 C9107 1.433 . S
C9109 N9112 1.384 . S
C9110 H9101 0.929 . S
C9110 C9102 1.378 . S
C9110 C9105 1.350 . S
C9111 H9098 0.929 . S
C9111 C9103 1.433 . S
C9111 N9113 1.384 . S
N9112 C9108 1.427 . S
N9112 C9109 1.384 . S
N9113 C9105 1.427 . S
N9113 C9111 1.384 . S
H9114 C9120 0.930 . S
H9115 C9124 0.930 . S
H9116 C9129 0.929 . S
H9117 C9127 0.929 . S
H9118 C9122 0.929 . S
H9119 C9128 0.929 . S
C9120 H9114 0.930 . S
C9120 C9121 1.367 . S
C9120 C9128 1.378 . S
C9121 C9120 1.367 . S
C9121 C9129 1.433 . S
C9122 H9118 0.929 . S
C9122 C9124 1.378 . S
C9122 C9126 1.350 . S
C9123 C9126 1.463 . S
C9123 C9128 1.350 . S
C9123 N9131 1.427 . S
C9124 H9115 0.930 . S
C9124 C9122 1.378 . S
C9124 C9125 1.367 . S
C9125 C9124 1.367 . S
C9125 C9127 1.433 . S
C9126 C9122 1.350 . S
C9126 C9123 1.463 . S
C9126 N9130 1.427 . S
C9127 H9117 0.929 . S
C9127 C9125 1.433 . S
C9127 N9130 1.384 . S
C9128 H9119 0.929 . S
C9128 C9120 1.378 . S
C9128 C9123 1.350 . S
C9129 H9116 0.929 . S
C9129 C9121 1.433 . S
C9129 N9131 1.384 . S
N9130 C9126 1.427 . S
N9130 C9127 1.384 . S
N9131 C9123 1.427 . S
N9131 C9129 1.384 . S
H9132 C9138 0.930 . S
H9133 C9142 0.930 . S
H9134 C9147 0.929 . S
H9135 C9145 0.929 . S
H9136 C9140 0.929 . S
H9137 C9146 0.929 . S
C9138 H9132 0.930 . S
C9138 C9139 1.367 . S
C9138 C9146 1.378 . S
C9139 C9138 1.367 . S
C9139 C9147 1.433 . S
C9140 H9136 0.929 . S
C9140 C9142 1.378 . S
C9140 C9144 1.350 . S
C9141 C9144 1.463 . S
C9141 C9146 1.350 . S
C9141 N9149 1.427 . S
C9142 H9133 0.930 . S
C9142 C9140 1.378 . S
C9142 C9143 1.367 . S
C9143 C9142 1.367 . S
C9143 C9145 1.433 . S
C9144 C9140 1.350 . S
C9144 C9141 1.463 . S
C9144 N9148 1.427 . S
C9145 H9135 0.929 . S
C9145 C9143 1.433 . S
C9145 N9148 1.384 . S
C9146 H9137 0.929 . S
C9146 C9138 1.378 . S
C9146 C9141 1.350 . S
C9147 H9134 0.929 . S
C9147 C9139 1.433 . S
C9147 N9149 1.384 . S
N9148 C9144 1.427 . S
N9148 C9145 1.384 . S
N9149 C9141 1.427 . S
N9149 C9147 1.384 . S
H9150 C9156 0.930 . S
H9151 C9160 0.930 . S
H9152 C9165 0.929 . S
H9153 C9163 0.929 . S
H9154 C9158 0.929 . S
H9155 C9164 0.929 . S
C9156 H9150 0.930 . S
C9156 C9157 1.367 . S
C9156 C9164 1.378 . S
C9157 C9156 1.367 . S
C9157 C9165 1.433 . S
C9158 H9154 0.929 . S
C9158 C9160 1.378 . S
C9158 C9162 1.350 . S
C9159 C9162 1.463 . S
C9159 C9164 1.350 . S
C9159 N9167 1.427 . S
C9160 H9151 0.930 . S
C9160 C9158 1.378 . S
C9160 C9161 1.367 . S
C9161 C9160 1.367 . S
C9161 C9163 1.433 . S
C9162 C9158 1.350 . S
C9162 C9159 1.463 . S
C9162 N9166 1.427 . S
C9163 H9153 0.929 . S
C9163 C9161 1.433 . S
C9163 N9166 1.384 . S
C9164 H9155 0.929 . S
C9164 C9156 1.378 . S
C9164 C9159 1.350 . S
C9165 H9152 0.929 . S
C9165 C9157 1.433 . S
C9165 N9167 1.384 . S
N9166 C9162 1.427 . S
N9166 C9163 1.384 . S
N9167 C9159 1.427 . S
N9167 C9165 1.384 . S
H9168 C9174 0.930 . S
H9169 C9178 0.930 . S
H9170 C9183 0.929 . S
H9171 C9181 0.929 . S
H9172 C9176 0.929 . S
H9173 C9182 0.929 . S
C9174 H9168 0.930 . S
C9174 C9175 1.367 . S
C9174 C9182 1.378 . S
C9175 C9174 1.367 . S
C9175 C9183 1.433 . S
C9176 H9172 0.929 . S
C9176 C9178 1.378 . S
C9176 C9180 1.350 . S
C9177 C9180 1.463 . S
C9177 C9182 1.350 . S
C9177 N9185 1.427 . S
C9178 H9169 0.930 . S
C9178 C9176 1.378 . S
C9178 C9179 1.367 . S
C9179 C9178 1.367 . S
C9179 C9181 1.433 . S
C9180 C9176 1.350 . S
C9180 C9177 1.463 . S
C9180 N9184 1.427 . S
C9181 H9171 0.929 . S
C9181 C9179 1.433 . S
C9181 N9184 1.384 . S
C9182 H9173 0.929 . S
C9182 C9174 1.378 . S
C9182 C9177 1.350 . S
C9183 H9170 0.929 . S
C9183 C9175 1.433 . S
C9183 N9185 1.384 . S
N9184 C9180 1.427 . S
N9184 C9181 1.384 . S
N9185 C9177 1.427 . S
N9185 C9183 1.384 . S
H9186 C9192 0.930 . S
H9187 C9196 0.930 . S
H9188 C9201 0.929 . S
H9189 C9199 0.929 . S
H9190 C9194 0.929 . S
H9191 C9200 0.929 . S
C9192 H9186 0.930 . S
C9192 C9193 1.367 . S
C9192 C9200 1.378 . S
C9193 C9192 1.367 . S
C9193 C9201 1.433 . S
C9194 H9190 0.929 . S
C9194 C9196 1.378 . S
C9194 C9198 1.350 . S
C9195 C9198 1.463 . S
C9195 C9200 1.350 . S
C9195 N9203 1.427 . S
C9196 H9187 0.930 . S
C9196 C9194 1.378 . S
C9196 C9197 1.367 . S
C9197 C9196 1.367 . S
C9197 C9199 1.433 . S
C9198 C9194 1.350 . S
C9198 C9195 1.463 . S
C9198 N9202 1.427 . S
C9199 H9189 0.929 . S
C9199 C9197 1.433 . S
C9199 N9202 1.384 . S
C9200 H9191 0.929 . S
C9200 C9192 1.378 . S
C9200 C9195 1.350 . S
C9201 H9188 0.929 . S
C9201 C9193 1.433 . S
C9201 N9203 1.384 . S
N9202 C9198 1.427 . S
N9202 C9199 1.384 . S
N9203 C9195 1.427 . S
N9203 C9201 1.384 . S
H9204 C9210 0.930 . S
H9205 C9214 0.930 . S
H9206 C9219 0.929 . S
H9207 C9217 0.929 . S
H9208 C9212 0.969 . S
H9209 C9218 0.969 . S
C9210 H9204 0.930 . S
C9210 C9211 1.367 . S
C9210 C9218 1.353 1_554 S
C9211 C9210 1.367 . S
C9211 C9219 1.433 . S
C9212 H9208 0.969 . S
C9212 C9214 1.353 1_554 S
C9212 C9216 1.336 1_554 S
C9213 C9216 1.463 1_554 S
C9213 C9218 1.336 1_554 S
C9213 N9221 1.427 . S
C9214 H9205 0.930 . S
C9214 C9212 1.353 1_556 S
C9214 C9215 1.367 . S
C9215 C9214 1.367 . S
C9215 C9217 1.433 . S
C9216 C9212 1.336 1_556 S
C9216 C9213 1.463 1_556 S
C9216 N9220 1.427 . S
C9217 H9207 0.929 . S
C9217 C9215 1.433 . S
C9217 N9220 1.384 . S
C9218 H9209 0.969 . S
C9218 C9210 1.353 1_556 S
C9218 C9213 1.336 1_556 S
C9219 H9206 0.929 . S
C9219 C9211 1.433 . S
C9219 N9221 1.384 . S
N9220 C9216 1.427 . S
N9220 C9217 1.384 . S
N9221 C9213 1.427 . S
N9221 C9219 1.384 . S
H9222 C9228 0.930 . S
H9223 C9232 0.930 . S
H9224 C9237 0.929 . S
H9225 C9235 0.929 . S
H9226 C9230 0.929 . S
H9227 C9236 0.929 . S
C9228 H9222 0.930 . S
C9228 C9229 1.367 . S
C9228 C9236 1.378 . S
C9229 C9228 1.367 . S
C9229 C9237 1.433 . S
C9230 H9226 0.929 . S
C9230 C9232 1.378 . S
C9230 C9234 1.350 . S
C9231 C9234 1.463 . S
C9231 C9236 1.350 . S
C9231 N9239 1.427 . S
C9232 H9223 0.930 . S
C9232 C9230 1.378 . S
C9232 C9233 1.367 . S
C9233 C9232 1.367 . S
C9233 C9235 1.433 . S
C9234 C9230 1.350 . S
C9234 C9231 1.463 . S
C9234 N9238 1.427 . S
C9235 H9225 0.929 . S
C9235 C9233 1.433 . S
C9235 N9238 1.384 . S
C9236 H9227 0.929 . S
C9236 C9228 1.378 . S
C9236 C9231 1.350 . S
C9237 H9224 0.929 . S
C9237 C9229 1.433 . S
C9237 N9239 1.384 . S
N9238 C9234 1.427 . S
N9238 C9235 1.384 . S
N9239 C9231 1.427 . S
N9239 C9237 1.384 . S
H9240 C9246 0.930 . S
H9241 C9250 0.930 . S
H9242 C9255 0.929 . S
H9243 C9253 0.929 . S
H9244 C9248 0.967 . S
H9245 C9254 0.967 . S
C9246 H9240 0.930 . S
C9246 C9247 1.367 . S
C9246 C9254 1.354 1_554 S
C9247 C9246 1.367 . S
C9247 C9255 1.433 . S
C9248 H9244 0.967 . S
C9248 C9250 1.354 1_554 S
C9248 C9252 1.336 1_554 S
C9249 C9252 1.463 1_554 S
C9249 C9254 1.336 1_554 S
C9249 N9257 1.427 . S
C9250 H9241 0.930 . S
C9250 C9248 1.354 1_556 S
C9250 C9251 1.367 . S
C9251 C9250 1.367 . S
C9251 C9253 1.433 . S
C9252 C9248 1.336 1_556 S
C9252 C9249 1.463 1_556 S
C9252 N9256 1.427 . S
C9253 H9243 0.929 . S
C9253 C9251 1.433 . S
C9253 N9256 1.384 . S
C9254 H9245 0.967 . S
C9254 C9246 1.354 1_556 S
C9254 C9249 1.336 1_556 S
C9255 H9242 0.929 . S
C9255 C9247 1.433 . S
C9255 N9257 1.384 . S
N9256 C9252 1.427 . S
N9256 C9253 1.384 . S
N9257 C9249 1.427 . S
N9257 C9255 1.384 . S
H9258 C9264 0.930 . S
H9259 C9268 0.930 . S
H9260 C9273 0.929 . S
H9261 C9271 0.929 . S
H9262 C9266 0.929 . S
H9263 C9272 0.929 . S
C9264 H9258 0.930 . S
C9264 C9265 1.367 . S
C9264 C9272 1.378 . S
C9265 C9264 1.367 . S
C9265 C9273 1.433 . S
C9266 H9262 0.929 . S
C9266 C9268 1.378 . S
C9266 C9270 1.350 . S
C9267 C9270 1.463 . S
C9267 C9272 1.350 . S
C9267 N9275 1.427 . S
C9268 H9259 0.930 . S
C9268 C9266 1.378 . S
C9268 C9269 1.367 . S
C9269 C9268 1.367 . S
C9269 C9271 1.433 . S
C9270 C9266 1.350 . S
C9270 C9267 1.463 . S
C9270 N9274 1.427 . S
C9271 H9261 0.929 . S
C9271 C9269 1.433 . S
C9271 N9274 1.384 . S
C9272 H9263 0.929 . S
C9272 C9264 1.378 . S
C9272 C9267 1.350 . S
C9273 H9260 0.929 . S
C9273 C9265 1.433 . S
C9273 N9275 1.384 . S
N9274 C9270 1.427 . S
N9274 C9271 1.384 . S
N9275 C9267 1.427 . S
N9275 C9273 1.384 . S
H9276 C9282 0.930 . S
H9277 C9286 0.930 . S
H9278 C9291 0.929 . S
H9279 C9289 0.929 . S
H9280 C9284 0.929 . S
H9281 C9290 0.929 . S
C9282 H9276 0.930 . S
C9282 C9283 1.367 . S
C9282 C9290 1.378 . S
C9283 C9282 1.367 . S
C9283 C9291 1.433 . S
C9284 H9280 0.929 . S
C9284 C9286 1.378 . S
C9284 C9288 1.350 . S
C9285 C9288 1.463 . S
C9285 C9290 1.350 . S
C9285 N9293 1.427 . S
C9286 H9277 0.930 . S
C9286 C9284 1.378 . S
C9286 C9287 1.367 . S
C9287 C9286 1.367 . S
C9287 C9289 1.433 . S
C9288 C9284 1.350 . S
C9288 C9285 1.463 . S
C9288 N9292 1.427 . S
C9289 H9279 0.929 . S
C9289 C9287 1.433 . S
C9289 N9292 1.384 . S
C9290 H9281 0.929 . S
C9290 C9282 1.378 . S
C9290 C9285 1.350 . S
C9291 H9278 0.929 . S
C9291 C9283 1.433 . S
C9291 N9293 1.384 . S
N9292 C9288 1.427 . S
N9292 C9289 1.384 . S
N9293 C9285 1.427 . S
N9293 C9291 1.384 . S
H9294 C9300 0.930 . S
H9295 C9304 0.930 . S
H9296 C9309 0.929 . S
H9297 C9307 0.929 . S
H9298 C9302 0.929 . S
H9299 C9308 0.929 . S
C9300 H9294 0.930 . S
C9300 C9301 1.367 . S
C9300 C9308 1.378 . S
C9301 C9300 1.367 . S
C9301 C9309 1.433 . S
C9302 H9298 0.929 . S
C9302 C9304 1.378 . S
C9302 C9306 1.350 . S
C9303 C9306 1.463 . S
C9303 C9308 1.350 . S
C9303 N9311 1.427 . S
C9304 H9295 0.930 . S
C9304 C9302 1.378 . S
C9304 C9305 1.367 . S
C9305 C9304 1.367 . S
C9305 C9307 1.433 . S
C9306 C9302 1.350 . S
C9306 C9303 1.463 . S
C9306 N9310 1.427 . S
C9307 H9297 0.929 . S
C9307 C9305 1.433 . S
C9307 N9310 1.384 . S
C9308 H9299 0.929 . S
C9308 C9300 1.378 . S
C9308 C9303 1.350 . S
C9309 H9296 0.929 . S
C9309 C9301 1.433 . S
C9309 N9311 1.384 . S
N9310 C9306 1.427 . S
N9310 C9307 1.384 . S
N9311 C9303 1.427 . S
N9311 C9309 1.384 . S
H9312 C9318 0.930 . S
H9313 C9322 0.930 . S
H9314 C9327 0.929 . S
H9315 C9325 0.929 . S
H9316 C9320 0.929 . S
H9317 C9326 0.929 . S
C9318 H9312 0.930 . S
C9318 C9319 1.367 . S
C9318 C9326 1.378 . S
C9319 C9318 1.367 . S
C9319 C9327 1.433 . S
C9320 H9316 0.929 . S
C9320 C9322 1.378 . S
C9320 C9324 1.350 . S
C9321 C9324 1.463 . S
C9321 C9326 1.350 . S
C9321 N9329 1.427 . S
C9322 H9313 0.930 . S
C9322 C9320 1.378 . S
C9322 C9323 1.367 . S
C9323 C9322 1.367 . S
C9323 C9325 1.433 . S
C9324 C9320 1.350 . S
C9324 C9321 1.463 . S
C9324 N9328 1.427 . S
C9325 H9315 0.929 . S
C9325 C9323 1.433 . S
C9325 N9328 1.384 . S
C9326 H9317 0.929 . S
C9326 C9318 1.378 . S
C9326 C9321 1.350 . S
C9327 H9314 0.929 . S
C9327 C9319 1.433 . S
C9327 N9329 1.384 . S
N9328 C9324 1.427 . S
N9328 C9325 1.384 . S
N9329 C9321 1.427 . S
N9329 C9327 1.384 . S
H9330 C9336 0.930 . S
H9331 C9340 0.930 . S
H9332 C9345 0.929 . S
H9333 C9343 0.929 . S
H9334 C9338 0.929 . S
H9335 C9344 0.929 . S
C9336 H9330 0.930 . S
C9336 C9337 1.367 . S
C9336 C9344 1.378 . S
C9337 C9336 1.367 . S
C9337 C9345 1.433 . S
C9338 H9334 0.929 . S
C9338 C9340 1.378 . S
C9338 C9342 1.350 . S
C9339 C9342 1.463 . S
C9339 C9344 1.350 . S
C9339 N9347 1.427 . S
C9340 H9331 0.930 . S
C9340 C9338 1.378 . S
C9340 C9341 1.367 . S
C9341 C9340 1.367 . S
C9341 C9343 1.433 . S
C9342 C9338 1.350 . S
C9342 C9339 1.463 . S
C9342 N9346 1.427 . S
C9343 H9333 0.929 . S
C9343 C9341 1.433 . S
C9343 N9346 1.384 . S
C9344 H9335 0.929 . S
C9344 C9336 1.378 . S
C9344 C9339 1.350 . S
C9345 H9332 0.929 . S
C9345 C9337 1.433 . S
C9345 N9347 1.384 . S
N9346 C9342 1.427 . S
N9346 C9343 1.384 . S
N9347 C9339 1.427 . S
N9347 C9345 1.384 . S
H9348 C9354 0.930 . S
H9349 C9358 0.930 . S
H9350 C9363 0.929 . S
H9351 C9361 0.929 . S
H9352 C9356 0.929 . S
H9353 C9362 0.929 . S
C9354 H9348 0.930 . S
C9354 C9355 1.367 . S
C9354 C9362 1.378 . S
C9355 C9354 1.367 . S
C9355 C9363 1.433 . S
C9356 H9352 0.929 . S
C9356 C9358 1.378 . S
C9356 C9360 1.350 . S
C9357 C9360 1.463 . S
C9357 C9362 1.350 . S
C9357 N9365 1.427 . S
C9358 H9349 0.930 . S
C9358 C9356 1.378 . S
C9358 C9359 1.367 . S
C9359 C9358 1.367 . S
C9359 C9361 1.433 . S
C9360 C9356 1.350 . S
C9360 C9357 1.463 . S
C9360 N9364 1.427 . S
C9361 H9351 0.929 . S
C9361 C9359 1.433 . S
C9361 N9364 1.384 . S
C9362 H9353 0.929 . S
C9362 C9354 1.378 . S
C9362 C9357 1.350 . S
C9363 H9350 0.929 . S
C9363 C9355 1.433 . S
C9363 N9365 1.384 . S
N9364 C9360 1.427 . S
N9364 C9361 1.384 . S
N9365 C9357 1.427 . S
N9365 C9363 1.384 . S
H9366 C9372 0.930 . S
H9367 C9376 0.930 . S
H9368 C9381 0.929 . S
H9369 C9379 0.929 . S
H9370 C9374 0.929 . S
H9371 C9380 0.929 . S
C9372 H9366 0.930 . S
C9372 C9373 1.367 . S
C9372 C9380 1.378 . S
C9373 C9372 1.367 . S
C9373 C9381 1.433 . S
C9374 H9370 0.929 . S
C9374 C9376 1.378 . S
C9374 C9378 1.350 . S
C9375 C9378 1.463 . S
C9375 C9380 1.350 . S
C9375 N9383 1.427 . S
C9376 H9367 0.930 . S
C9376 C9374 1.378 . S
C9376 C9377 1.367 . S
C9377 C9376 1.367 . S
C9377 C9379 1.433 . S
C9378 C9374 1.350 . S
C9378 C9375 1.463 . S
C9378 N9382 1.427 . S
C9379 H9369 0.929 . S
C9379 C9377 1.433 . S
C9379 N9382 1.384 . S
C9380 H9371 0.929 . S
C9380 C9372 1.378 . S
C9380 C9375 1.350 . S
C9381 H9368 0.929 . S
C9381 C9373 1.433 . S
C9381 N9383 1.384 . S
N9382 C9378 1.427 . S
N9382 C9379 1.384 . S
N9383 C9375 1.427 . S
N9383 C9381 1.384 . S
H9384 C9390 0.930 . S
H9385 C9394 0.930 . S
H9386 C9399 0.929 . S
H9387 C9397 0.929 . S
H9388 C9392 0.929 . S
H9389 C9398 0.929 . S
C9390 H9384 0.930 . S
C9390 C9391 1.367 . S
C9390 C9398 1.378 . S
C9391 C9390 1.367 . S
C9391 C9399 1.433 . S
C9392 H9388 0.929 . S
C9392 C9394 1.378 . S
C9392 C9396 1.350 . S
C9393 C9396 1.463 . S
C9393 C9398 1.350 . S
C9393 N9401 1.427 . S
C9394 H9385 0.930 . S
C9394 C9392 1.378 . S
C9394 C9395 1.367 . S
C9395 C9394 1.367 . S
C9395 C9397 1.433 . S
C9396 C9392 1.350 . S
C9396 C9393 1.463 . S
C9396 N9400 1.427 . S
C9397 H9387 0.929 . S
C9397 C9395 1.433 . S
C9397 N9400 1.384 . S
C9398 H9389 0.929 . S
C9398 C9390 1.378 . S
C9398 C9393 1.350 . S
C9399 H9386 0.929 . S
C9399 C9391 1.433 . S
C9399 N9401 1.384 . S
N9400 C9396 1.427 . S
N9400 C9397 1.384 . S
N9401 C9393 1.427 . S
N9401 C9399 1.384 . S
H9402 C9408 0.930 . S
H9403 C9412 0.930 . S
H9404 C9417 0.929 . S
H9405 C9415 0.929 . S
H9406 C9410 0.929 . S
H9407 C9416 0.929 . S
C9408 H9402 0.930 . S
C9408 C9409 1.367 . S
C9408 C9416 1.378 . S
C9409 C9408 1.367 . S
C9409 C9417 1.433 . S
C9410 H9406 0.929 . S
C9410 C9412 1.378 . S
C9410 C9414 1.350 . S
C9411 C9414 1.463 . S
C9411 C9416 1.350 . S
C9411 N9419 1.427 . S
C9412 H9403 0.930 . S
C9412 C9410 1.378 . S
C9412 C9413 1.367 . S
C9413 C9412 1.367 . S
C9413 C9415 1.433 . S
C9414 C9410 1.350 . S
C9414 C9411 1.463 . S
C9414 N9418 1.427 . S
C9415 H9405 0.929 . S
C9415 C9413 1.433 . S
C9415 N9418 1.384 . S
C9416 H9407 0.929 . S
C9416 C9408 1.378 . S
C9416 C9411 1.350 . S
C9417 H9404 0.929 . S
C9417 C9409 1.433 . S
C9417 N9419 1.384 . S
N9418 C9414 1.427 . S
N9418 C9415 1.384 . S
N9419 C9411 1.427 . S
N9419 C9417 1.384 . S
H9420 C9426 0.930 . S
H9421 C9430 0.930 . S
H9422 C9435 0.929 . S
H9423 C9433 0.929 . S
H9424 C9428 0.929 . S
H9425 C9434 0.929 . S
C9426 H9420 0.930 . S
C9426 C9427 1.367 . S
C9426 C9434 1.378 . S
C9427 C9426 1.367 . S
C9427 C9435 1.433 . S
C9428 H9424 0.929 . S
C9428 C9430 1.378 . S
C9428 C9432 1.350 . S
C9429 C9432 1.463 . S
C9429 C9434 1.350 . S
C9429 N9437 1.427 . S
C9430 H9421 0.930 . S
C9430 C9428 1.378 . S
C9430 C9431 1.367 . S
C9431 C9430 1.367 . S
C9431 C9433 1.433 . S
C9432 C9428 1.350 . S
C9432 C9429 1.463 . S
C9432 N9436 1.427 . S
C9433 H9423 0.929 . S
C9433 C9431 1.433 . S
C9433 N9436 1.384 . S
C9434 H9425 0.929 . S
C9434 C9426 1.378 . S
C9434 C9429 1.350 . S
C9435 H9422 0.929 . S
C9435 C9427 1.433 . S
C9435 N9437 1.384 . S
N9436 C9432 1.427 . S
N9436 C9433 1.384 . S
N9437 C9429 1.427 . S
N9437 C9435 1.384 . S
H9438 C9444 0.930 . S
H9439 C9448 0.930 . S
H9440 C9453 0.929 . S
H9441 C9451 0.929 . S
H9442 C9446 0.929 . S
H9443 C9452 0.929 . S
C9444 H9438 0.930 . S
C9444 C9445 1.367 . S
C9444 C9452 1.378 . S
C9445 C9444 1.367 . S
C9445 C9453 1.433 . S
C9446 H9442 0.929 . S
C9446 C9448 1.378 . S
C9446 C9450 1.350 . S
C9447 C9450 1.463 . S
C9447 C9452 1.350 . S
C9447 N9455 1.427 . S
C9448 H9439 0.930 . S
C9448 C9446 1.378 . S
C9448 C9449 1.367 . S
C9449 C9448 1.367 . S
C9449 C9451 1.433 . S
C9450 C9446 1.350 . S
C9450 C9447 1.463 . S
C9450 N9454 1.427 . S
C9451 H9441 0.929 . S
C9451 C9449 1.433 . S
C9451 N9454 1.384 . S
C9452 H9443 0.929 . S
C9452 C9444 1.378 . S
C9452 C9447 1.350 . S
C9453 H9440 0.929 . S
C9453 C9445 1.433 . S
C9453 N9455 1.384 . S
N9454 C9450 1.427 . S
N9454 C9451 1.384 . S
N9455 C9447 1.427 . S
N9455 C9453 1.384 . S
H9456 C9462 0.930 . S
H9457 C9466 0.930 . S
H9458 C9471 0.929 . S
H9459 C9469 0.929 . S
H9460 C9464 0.929 . S
H9461 C9470 0.929 . S
C9462 H9456 0.930 . S
C9462 C9463 1.367 . S
C9462 C9470 1.378 . S
C9463 C9462 1.367 . S
C9463 C9471 1.433 . S
C9464 H9460 0.929 . S
C9464 C9466 1.378 . S
C9464 C9468 1.350 . S
C9465 C9468 1.463 . S
C9465 C9470 1.350 . S
C9465 N9473 1.427 . S
C9466 H9457 0.930 . S
C9466 C9464 1.378 . S
C9466 C9467 1.367 . S
C9467 C9466 1.367 . S
C9467 C9469 1.433 . S
C9468 C9464 1.350 . S
C9468 C9465 1.463 . S
C9468 N9472 1.427 . S
C9469 H9459 0.929 . S
C9469 C9467 1.433 . S
C9469 N9472 1.384 . S
C9470 H9461 0.929 . S
C9470 C9462 1.378 . S
C9470 C9465 1.350 . S
C9471 H9458 0.929 . S
C9471 C9463 1.433 . S
C9471 N9473 1.384 . S
N9472 C9468 1.427 . S
N9472 C9469 1.384 . S
N9473 C9465 1.427 . S
N9473 C9471 1.384 . S
H9474 C9480 0.930 . S
H9475 C9484 0.930 . S
H9476 C9489 0.929 . S
H9477 C9487 0.929 . S
H9478 C9482 0.929 . S
H9479 C9488 0.929 . S
C9480 H9474 0.930 . S
C9480 C9481 1.367 . S
C9480 C9488 1.378 . S
C9481 C9480 1.367 . S
C9481 C9489 1.433 . S
C9482 H9478 0.929 . S
C9482 C9484 1.378 . S
C9482 C9486 1.350 . S
C9483 C9486 1.463 . S
C9483 C9488 1.350 . S
C9483 N9491 1.427 . S
C9484 H9475 0.930 . S
C9484 C9482 1.378 . S
C9484 C9485 1.367 . S
C9485 C9484 1.367 . S
C9485 C9487 1.433 . S
C9486 C9482 1.350 . S
C9486 C9483 1.463 . S
C9486 N9490 1.427 . S
C9487 H9477 0.929 . S
C9487 C9485 1.433 . S
C9487 N9490 1.384 . S
C9488 H9479 0.929 . S
C9488 C9480 1.378 . S
C9488 C9483 1.350 . S
C9489 H9476 0.929 . S
C9489 C9481 1.433 . S
C9489 N9491 1.384 . S
N9490 C9486 1.427 . S
N9490 C9487 1.384 . S
N9491 C9483 1.427 . S
N9491 C9489 1.384 . S
H9492 C9498 0.930 . S
H9493 C9502 0.930 . S
H9494 C9507 0.929 . S
H9495 C9505 0.929 . S
H9496 C9500 0.929 . S
H9497 C9506 0.929 . S
C9498 H9492 0.930 . S
C9498 C9499 1.367 . S
C9498 C9506 1.378 . S
C9499 C9498 1.367 . S
C9499 C9507 1.433 . S
C9500 H9496 0.929 . S
C9500 C9502 1.378 . S
C9500 C9504 1.350 . S
C9501 C9504 1.463 . S
C9501 C9506 1.350 . S
C9501 N9509 1.427 . S
C9502 H9493 0.930 . S
C9502 C9500 1.378 . S
C9502 C9503 1.367 . S
C9503 C9502 1.367 . S
C9503 C9505 1.433 . S
C9504 C9500 1.350 . S
C9504 C9501 1.463 . S
C9504 N9508 1.427 . S
C9505 H9495 0.929 . S
C9505 C9503 1.433 . S
C9505 N9508 1.384 . S
C9506 H9497 0.929 . S
C9506 C9498 1.378 . S
C9506 C9501 1.350 . S
C9507 H9494 0.929 . S
C9507 C9499 1.433 . S
C9507 N9509 1.384 . S
N9508 C9504 1.427 . S
N9508 C9505 1.384 . S
N9509 C9501 1.427 . S
N9509 C9507 1.384 . S
H9510 C9516 0.930 . S
H9511 C9520 0.930 . S
H9512 C9525 0.929 . S
H9513 C9523 0.929 . S
H9514 C9518 0.929 . S
H9515 C9524 0.929 . S
C9516 H9510 0.930 . S
C9516 C9517 1.367 . S
C9516 C9524 1.378 . S
C9517 C9516 1.367 . S
C9517 C9525 1.433 . S
C9518 H9514 0.929 . S
C9518 C9520 1.378 . S
C9518 C9522 1.350 . S
C9519 C9522 1.463 . S
C9519 C9524 1.350 . S
C9519 N9527 1.427 . S
C9520 H9511 0.930 . S
C9520 C9518 1.378 . S
C9520 C9521 1.367 . S
C9521 C9520 1.367 . S
C9521 C9523 1.433 . S
C9522 C9518 1.350 . S
C9522 C9519 1.463 . S
C9522 N9526 1.427 . S
C9523 H9513 0.929 . S
C9523 C9521 1.433 . S
C9523 N9526 1.384 . S
C9524 H9515 0.929 . S
C9524 C9516 1.378 . S
C9524 C9519 1.350 . S
C9525 H9512 0.929 . S
C9525 C9517 1.433 . S
C9525 N9527 1.384 . S
N9526 C9522 1.427 . S
N9526 C9523 1.384 . S
N9527 C9519 1.427 . S
N9527 C9525 1.384 . S
H9528 C9534 0.930 . S
H9529 C9538 0.930 . S
H9530 C9543 0.929 . S
H9531 C9541 0.929 . S
H9532 C9536 0.929 . S
H9533 C9542 0.929 . S
C9534 H9528 0.930 . S
C9534 C9535 1.367 . S
C9534 C9542 1.378 . S
C9535 C9534 1.367 . S
C9535 C9543 1.433 . S
C9536 H9532 0.929 . S
C9536 C9538 1.378 . S
C9536 C9540 1.350 . S
C9537 C9540 1.463 . S
C9537 C9542 1.350 . S
C9537 N9545 1.427 . S
C9538 H9529 0.930 . S
C9538 C9536 1.378 . S
C9538 C9539 1.367 . S
C9539 C9538 1.367 . S
C9539 C9541 1.433 . S
C9540 C9536 1.350 . S
C9540 C9537 1.463 . S
C9540 N9544 1.427 . S
C9541 H9531 0.929 . S
C9541 C9539 1.433 . S
C9541 N9544 1.384 . S
C9542 H9533 0.929 . S
C9542 C9534 1.378 . S
C9542 C9537 1.350 . S
C9543 H9530 0.929 . S
C9543 C9535 1.433 . S
C9543 N9545 1.384 . S
N9544 C9540 1.427 . S
N9544 C9541 1.384 . S
N9545 C9537 1.427 . S
N9545 C9543 1.384 . S
H9546 C9552 0.930 . S
H9547 C9556 0.930 . S
H9548 C9561 0.929 . S
H9549 C9559 0.929 . S
H9550 C9554 0.929 . S
H9551 C9560 0.929 . S
C9552 H9546 0.930 . S
C9552 C9553 1.367 . S
C9552 C9560 1.378 . S
C9553 C9552 1.367 . S
C9553 C9561 1.433 . S
C9554 H9550 0.929 . S
C9554 C9556 1.378 . S
C9554 C9558 1.350 . S
C9555 C9558 1.463 . S
C9555 C9560 1.350 . S
C9555 N9563 1.427 . S
C9556 H9547 0.930 . S
C9556 C9554 1.378 . S
C9556 C9557 1.367 . S
C9557 C9556 1.367 . S
C9557 C9559 1.433 . S
C9558 C9554 1.350 . S
C9558 C9555 1.463 . S
C9558 N9562 1.427 . S
C9559 H9549 0.929 . S
C9559 C9557 1.433 . S
C9559 N9562 1.384 . S
C9560 H9551 0.929 . S
C9560 C9552 1.378 . S
C9560 C9555 1.350 . S
C9561 H9548 0.929 . S
C9561 C9553 1.433 . S
C9561 N9563 1.384 . S
N9562 C9558 1.427 . S
N9562 C9559 1.384 . S
N9563 C9555 1.427 . S
N9563 C9561 1.384 . S
H9564 C9570 0.930 . S
H9565 C9574 0.930 . S
H9566 C9579 0.929 . S
H9567 C9577 0.929 . S
H9568 C9572 0.929 . S
H9569 C9578 0.929 . S
C9570 H9564 0.930 . S
C9570 C9571 1.367 . S
C9570 C9578 1.378 . S
C9571 C9570 1.367 . S
C9571 C9579 1.433 . S
C9572 H9568 0.929 . S
C9572 C9574 1.378 . S
C9572 C9576 1.350 . S
C9573 C9576 1.463 . S
C9573 C9578 1.350 . S
C9573 N9581 1.427 . S
C9574 H9565 0.930 . S
C9574 C9572 1.378 . S
C9574 C9575 1.367 . S
C9575 C9574 1.367 . S
C9575 C9577 1.433 . S
C9576 C9572 1.350 . S
C9576 C9573 1.463 . S
C9576 N9580 1.427 . S
C9577 H9567 0.929 . S
C9577 C9575 1.433 . S
C9577 N9580 1.384 . S
C9578 H9569 0.929 . S
C9578 C9570 1.378 . S
C9578 C9573 1.350 . S
C9579 H9566 0.929 . S
C9579 C9571 1.433 . S
C9579 N9581 1.384 . S
N9580 C9576 1.427 . S
N9580 C9577 1.384 . S
N9581 C9573 1.427 . S
N9581 C9579 1.384 . S
H9582 C9588 0.930 . S
H9583 C9592 0.930 . S
H9584 C9597 0.929 . S
H9585 C9595 0.929 . S
H9586 C9590 0.929 . S
H9587 C9596 0.929 . S
C9588 H9582 0.930 . S
C9588 C9589 1.367 . S
C9588 C9596 1.378 . S
C9589 C9588 1.367 . S
C9589 C9597 1.433 . S
C9590 H9586 0.929 . S
C9590 C9592 1.378 . S
C9590 C9594 1.350 . S
C9591 C9594 1.463 . S
C9591 C9596 1.350 . S
C9591 N9599 1.427 . S
C9592 H9583 0.930 . S
C9592 C9590 1.378 . S
C9592 C9593 1.367 . S
C9593 C9592 1.367 . S
C9593 C9595 1.433 . S
C9594 C9590 1.350 . S
C9594 C9591 1.463 . S
C9594 N9598 1.427 . S
C9595 H9585 0.929 . S
C9595 C9593 1.433 . S
C9595 N9598 1.384 . S
C9596 H9587 0.929 . S
C9596 C9588 1.378 . S
C9596 C9591 1.350 . S
C9597 H9584 0.929 . S
C9597 C9589 1.433 . S
C9597 N9599 1.384 . S
N9598 C9594 1.427 . S
N9598 C9595 1.384 . S
N9599 C9591 1.427 . S
N9599 C9597 1.384 . S
C2695 C1089 1.203 . S
C2699 C11 1.208 . S
C2713 C2447 1.202 . S
C2717 C25 1.209 . S
C2731 C1789 1.207 . S
C2735 C39 1.204 . S
C2749 C403 1.202 . S
C2753 C53 1.208 . S
C2767 C67 1.202 . S
C2771 C389 1.209 . S
C2785 C1019 1.202 . S
C2789 C81 1.209 . S
C2803 C2377 1.208 . S
C2807 C95 1.203 . S
C2821 C1719 1.201 . S
C2825 C109 1.210 . S
C2839 C2685 1.208 . S
C2843 C123 1.203 . S
C2857 C1313 1.205 . S
C2861 C137 1.206 . S
C2875 C151 1.209 . S
C2879 C655 1.202 . S
C2893 C571 1.209 . S
C2897 C165 1.202 . S
C2911 C1299 1.201 . S
C2915 C179 1.210 . S
C2929 C193 1.209 . S
C2933 C1929 1.202 . S
C2947 C599 1.201 . S
C2951 C207 1.209 . S
C2965 C221 1.208 . S
C2969 C1285 1.203 . S
C2983 C501 1.208 . S
C2987 C235 1.203 . S
C3001 C249 1.204 . S
C3005 C1873 1.207 . S
C3019 C263 1.203 . S
C3023 C543 1.208 . S
C3037 C1229 1.208 . S
C3041 C277 1.204 . S
C3055 C291 1.206 . S
C3059 C1187 1.206 . S
C3073 C1145 1.210 . S
C3077 C305 1.201 . S
C3091 C319 1.210 . S
C3095 C487 1.201 . S
C3109 C2475 1.209 . S
C3113 C333 1.202 . S
C3127 C347 1.203 . S
C3131 C753 1.208 . S
C3145 C361 1.208 . S
C3149 C2111 1.203 . S
C3163 C1453 1.202 . S
C3167 C375 1.209 . S
C3181 C417 1.208 . S
C3185 C683 1.203 . S
C3199 C431 1.204 . S
C3203 C2041 1.207 . S
C3217 C1383 1.203 . S
C3221 C445 1.208 . S
C3235 C459 1.202 . S
C3239 C2349 1.210 . S
C3253 C977 1.206 . S
C3257 C473 1.205 . S
C3271 C963 1.206 . S
C3275 C515 1.205 . S
C3289 C529 1.208 . S
C3293 C1593 1.203 . S
C3307 C949 1.202 . S
C3311 C557 1.210 . S
C3325 C1537 1.205 . S
C3329 C585 1.206 . S
C3343 C893 1.206 . S
C3347 C613 1.205 . S
C3361 C627 1.209 . S
C3365 C851 1.202 . S
C3379 C641 1.201 . S
C3383 C809 1.210 . S
C3397 C2139 1.201 . S
C3401 C669 1.210 . S
C3415 C1775 1.208 . S
C3419 C697 1.203 . S
C3433 C2461 1.202 . S
C3437 C711 1.209 . S
C3451 C1075 1.208 . S
C3455 C725 1.202 . S
C3469 C1061 1.204 . S
C3473 C739 1.207 . S
C3487 C1705 1.204 . S
C3491 C767 1.207 . S
C3505 C2391 1.202 . S
C3509 C781 1.210 . S
C3523 C795 1.201 . S
C3527 C2013 1.210 . S
C3541 C1327 1.207 . S
C3545 C823 1.203 . S
C3559 C1243 1.207 . S
C3563 C837 1.204 . S
C3577 C865 1.204 . S
C3581 C2601 1.207 . S
C3595 C879 1.201 . S
C3599 C1271 1.209 . S
C3613 C1173 1.204 . S
C3617 C907 1.208 . S
C3631 C921 1.210 . S
C3635 C2545 1.201 . S
C3649 C935 1.202 . S
C3653 C1215 1.209 . S
C3667 C991 1.201 . S
C3671 C1159 1.210 . S
C3685 C1803 1.209 . S
C3689 C1005 1.202 . S
C3703 C1439 1.208 . S
C3707 C1033 1.203 . S
C3721 C1047 1.208 . S
C3725 C2125 1.203 . S
C3739 C1103 1.210 . S
C3743 C1369 1.201 . S
C3757 C1117 1.202 . S
C3761 C2055 1.210 . S
C3775 C1677 1.203 . S
C3779 C1131 1.208 . S
C3793 C1201 1.203 . S
C3797 C2265 1.208 . S
C3811 C2209 1.201 . S
C3815 C1257 1.210 . S
C3829 C1467 1.205 . S
C3833 C1341 1.206 . S
C3847 C1355 1.210 . S
C3851 C2433 1.201 . S
C3865 C1747 1.201 . S
C3869 C1397 1.210 . S
C3883 C1733 1.201 . S
C3887 C1411 1.209 . S
C3901 C1425 1.206 . S
C3905 C2363 1.206 . S
C3919 C1481 1.206 . S
C3923 C2657 1.205 . S
C3937 C1495 1.202 . S
C3941 C1999 1.209 . S
C3955 C1915 1.209 . S
C3959 C1509 1.203 . S
C3973 C2643 1.209 . S
C3977 C1523 1.203 . S
C3991 C1943 1.201 . S
C3995 C1551 1.209 . S
C4009 C2629 1.206 . S
C4013 C1565 1.205 . S
C4027 C1845 1.207 . S
C4031 C1579 1.205 . S
C4045 C1607 1.202 . S
C4049 C1887 1.209 . S
C4063 C2573 1.205 . S
C4067 C1621 1.207 . S
C4081 C2531 1.205 . S
C4085 C1635 1.206 . S
C4099 C1649 1.210 . S
C4103 C2489 1.201 . S
C4117 C1663 1.209 . S
C4121 C1831 1.202 . S
C4135 C1691 1.204 . S
C4139 C2097 1.207 . S
C4153 C2027 1.206 . S
C4157 C1761 1.206 . S
C4171 C2321 1.206 . S
C4175 C1817 1.205 . S
C4189 C2307 1.205 . S
C4193 C1859 1.206 . S
C4207 C2293 1.207 . S
C4211 C1901 1.204 . S
C4225 C2237 1.206 . S
C4229 C1957 1.206 . S
C4243 C1971 1.204 . S
C4247 C2195 1.208 . S
C4261 C2153 1.204 . S
C4265 C1985 1.207 . S
C4279 C2419 1.206 . S
C4283 C2069 1.205 . S
C4297 C2405 1.201 . S
C4301 C2083 1.209 . S
C4315 C2167 1.203 . S
C4319 C2671 1.208 . S
C4333 C2181 1.208 . S
C4337 C2587 1.204 . S
C4351 C2615 1.207 . S
C4355 C2223 1.203 . S
C4369 C2251 1.208 . S
C4373 C2517 1.204 . S
C4387 C2559 1.202 . S
C4391 C2279 1.208 . S
C4405 C2503 1.201 . S
C4409 C2335 1.210 . S
C4423 C443 1.604 . S
C4427 C9 1.602 . S
C4441 C23 1.602 . S
C4445 C1073 1.604 . S
C4459 C2431 1.602 . S
C4463 C37 1.603 . S
C4477 C1773 1.603 . S
C4481 C51 1.602 . S
C4495 C65 1.604 . S
C4499 C1031 1.602 . S
C4513 C2389 1.601 . S
C4517 C79 1.604 . S
C4531 C93 1.604 . S
C4535 C1731 1.601 . S
C4549 C107 1.603 . S
C4553 C345 1.602 . S
C4567 C121 1.603 . S
C4571 C1297 1.603 . S
C4585 C135 1.603 . S
C4589 C1927 1.602 . S
C4603 C149 1.601 . S
C4607 C597 1.604 . S
C4621 C1283 1.604 . S
C4625 C163 1.602 . S
C4639 C177 1.603 . S
C4643 C2683 1.602 . S
C4657 C1311 1.601 . S
C4661 C191 1.604 . S
C4675 C205 1.601 . S
C4679 C653 1.604 . S
C4693 C569 1.604 . S
C4697 C219 1.602 . S
C4711 C233 1.601 . S
C4715 C555 1.605 . S
C4729 C247 1.601 . S
C4733 C1815 1.605 . S
C4747 C485 1.605 . S
C4751 C261 1.601 . S
C4765 C1171 1.603 . S
C4769 C275 1.603 . S
C4783 C289 1.604 . S
C4787 C1129 1.602 . S
C4801 C303 1.601 . S
C4805 C1199 1.605 . S
C4819 C317 1.603 . S
C4823 C541 1.603 . S
C4837 C2529 1.601 . S
C4841 C331 1.604 . S
C4855 C737 1.603 . S
C4859 C359 1.603 . S
C4873 C373 1.602 . S
C4877 C2095 1.603 . S
C4891 C1437 1.603 . S
C4895 C387 1.603 . S
C4909 C401 1.604 . S
C4913 C695 1.602 . S
C4927 C2053 1.603 . S
C4931 C415 1.602 . S
C4945 C429 1.603 . S
C4949 C1395 1.602 . S
C4963 C457 1.605 . S
C4967 C961 1.601 . S
C4981 C471 1.604 . S
C4985 C1591 1.601 . S
C4999 C499 1.603 . S
C5003 C947 1.603 . S
C5017 C2347 1.602 . S
C5021 C513 1.603 . S
C5035 C527 1.603 . S
C5039 C975 1.603 . S
C5053 C1479 1.604 . S
C5057 C583 1.601 . S
C5071 C835 1.604 . S
C5075 C611 1.601 . S
C5089 C625 1.605 . S
C5093 C793 1.601 . S
C5107 C863 1.604 . S
C5111 C639 1.601 . S
C5125 C667 1.604 . S
C5129 C2193 1.602 . S
C5143 C681 1.601 . S
C5147 C1115 1.605 . S
C5161 C709 1.603 . S
C5165 C1759 1.602 . S
C5179 C2445 1.602 . S
C5183 C723 1.604 . S
C5197 C751 1.604 . S
C5201 C1717 1.601 . S
C5215 C2403 1.603 . S
C5219 C765 1.603 . S
C5233 C779 1.604 . S
C5237 C1017 1.601 . S
C5251 C2599 1.601 . S
C5255 C807 1.605 . S
C5269 C821 1.601 . S
C5273 C1269 1.604 . S
C5287 C2011 1.604 . S
C5291 C849 1.601 . S
C5305 C1325 1.602 . S
C5309 C877 1.604 . S
C5323 C891 1.604 . S
C5327 C1241 1.602 . S
C5341 C905 1.604 . S
C5345 C1227 1.602 . S
C5359 C2487 1.602 . S
C5363 C919 1.604 . S
C5377 C1157 1.604 . S
C5381 C933 1.601 . S
C5395 C1213 1.603 . S
C5399 C989 1.603 . S
C5413 C1003 1.603 . S
C5417 C1857 1.603 . S
C5431 C1045 1.602 . S
C5435 C1423 1.604 . S
C5449 C1059 1.602 . S
C5453 C2109 1.603 . S
C5467 C1381 1.603 . S
C5471 C1087 1.602 . S
C5485 C1101 1.601 . S
C5489 C2067 1.604 . S
C5503 C2263 1.604 . S
C5507 C1143 1.602 . S
C5521 C1675 1.603 . S
C5525 C1185 1.603 . S
C5539 C2151 1.605 . S
C5543 C1255 1.601 . S
C5557 C1521 1.601 . S
C5561 C1339 1.604 . S
C5575 C1353 1.601 . S
C5579 C1787 1.604 . S
C5593 C1367 1.603 . S
C5597 C2417 1.603 . S
C5611 C2375 1.602 . S
C5615 C1409 1.603 . S
C5629 C1689 1.602 . S
C5633 C1451 1.604 . S
C5647 C1465 1.605 . S
C5651 C2641 1.601 . S
C5665 C1493 1.604 . S
C5669 C1941 1.602 . S
C5683 C2627 1.603 . S
C5687 C1507 1.603 . S
C5701 C2655 1.603 . S
C5705 C1535 1.603 . S
C5719 C1549 1.604 . S
C5723 C1997 1.602 . S
C5737 C1563 1.602 . S
C5741 C1913 1.604 . S
C5755 C1899 1.604 . S
C5759 C1577 1.602 . S
C5773 C1829 1.601 . S
C5777 C1605 1.605 . S
C5791 C1619 1.601 . S
C5795 C2515 1.604 . S
C5809 C1633 1.603 . S
C5813 C2473 1.603 . S
C5827 C2543 1.604 . S
C5831 C1647 1.602 . S
C5845 C1885 1.601 . S
C5849 C1661 1.605 . S
C5863 C2081 1.601 . S
C5867 C1703 1.605 . S
C5881 C1745 1.603 . S
C5885 C2039 1.603 . S
C5899 C1801 1.601 . S
C5903 C2305 1.604 . S
C5917 C1843 1.604 . S
C5921 C2291 1.602 . S
C5935 C1871 1.604 . S
C5939 C2319 1.602 . S
C5953 C1955 1.603 . S
C5957 C2179 1.603 . S
C5971 C1969 1.601 . S
C5975 C2137 1.605 . S
C5989 C1983 1.603 . S
C5993 C2207 1.603 . S
C6007 C2459 1.603 . S
C6011 C2025 1.603 . S
C6025 C2361 1.603 . S
C6029 C2123 1.603 . S
C6043 C2165 1.602 . S
C6047 C2613 1.604 . S
C6061 C2221 1.603 . S
C6065 C2669 1.603 . S
C6079 C2585 1.602 . S
C6083 C2235 1.604 . S
C6097 C2571 1.602 . S
C6101 C2249 1.603 . S
C6115 C2501 1.603 . S
C6119 C2277 1.602 . S
C6133 C2557 1.602 . S
C6137 C2333 1.604 . S
C6151 C2632 1.412 . S
C6155 C0 1.423 . S
C6169 C14 1.413 . S
C6173 C2590 1.422 . S
C6187 C28 1.420 . S
C6191 C1932 1.415 . S
C6205 C602 1.418 . S
C6209 C42 1.417 . S
C6223 C56 1.413 . S
C6227 C1330 1.422 . S
C6241 C630 1.416 . S
C6245 C70 1.419 . S
C6259 C1988 1.413 . S
C6263 C84 1.422 . S
C6277 C98 1.412 . S
C6281 C1232 1.423 . S
C6295 C112 1.418 . S
C6299 C2562 1.417 . S
C6313 C1848 1.413 . S
C6317 C126 1.422 . S
C6331 C140 1.421 . S
C6335 C518 1.414 . S
C6349 C154 1.419 . S
C6353 C1204 1.417 . S
C6367 C1806 1.423 . S
C6371 C168 1.412 . S
C6385 C182 1.422 . S
C6389 C476 1.413 . S
C6403 C1162 1.413 . S
C6407 C196 1.422 . S
C6421 C210 1.412 . S
C6425 C2464 1.423 . S
C6439 C224 1.422 . S
C6443 C1106 1.413 . S
C6457 C2366 1.414 . S
C6461 C238 1.421 . S
C6475 C1708 1.412 . S
C6479 C252 1.423 . S
C6493 C378 1.416 . S
C6497 C266 1.419 . S
C6511 C280 1.415 . S
C6515 C2352 1.421 . S
C6529 C294 1.412 . S
C6533 C406 1.423 . S
C6547 C308 1.413 . S
C6551 C1764 1.422 . S
C6565 C1064 1.412 . S
C6569 C322 1.423 . S
C6583 C336 1.415 . S
C6587 C2296 1.420 . S
C6601 C350 1.415 . S
C6605 C2254 1.420 . S
C6619 C364 1.413 . S
C6623 C1596 1.422 . S
C6637 C392 1.421 . S
C6641 C994 1.414 . S
C6655 C1652 1.421 . S
C6659 C420 1.413 . S
C6673 C434 1.415 . S
C6677 C896 1.420 . S
C6691 C2226 1.412 . S
C6695 C448 1.422 . S
C6709 C1512 1.422 . S
C6713 C462 1.413 . S
C6727 C490 1.417 . S
C6731 C868 1.418 . S
C6745 C1470 1.423 . S
C6749 C504 1.412 . S
C6763 C532 1.423 . S
C6767 C826 1.412 . S
C6781 C2128 1.416 . S
C6785 C546 1.419 . S
C6799 C770 1.415 . S
C6803 C560 1.420 . S
C6817 C574 1.415 . S
C6821 C2030 1.421 . S
C6835 C1372 1.423 . S
C6839 C588 1.413 . S
C6853 C2016 1.415 . S
C6857 C616 1.421 . S
C6871 C1428 1.422 . S
C6875 C644 1.412 . S
C6889 C658 1.421 . S
C6893 C728 1.414 . S
C6907 C1960 1.413 . S
C6911 C672 1.422 . S
C6925 C1918 1.417 . S
C6929 C686 1.417 . S
C6943 C700 1.417 . S
C6947 C2604 1.418 . S
C6961 C714 1.414 . S
C6965 C1274 1.421 . S
C6979 C1302 1.417 . S
C6983 C742 1.419 . S
C6997 C756 1.422 . S
C7001 C2660 1.413 . S
C7015 C784 1.423 . S
C7019 C1890 1.413 . S
C7033 C798 1.419 . S
C7037 C2520 1.416 . S
C7051 C1190 1.420 . S
C7055 C812 1.415 . S
C7069 C840 1.412 . S
C7073 C2478 1.423 . S
C7087 C1148 1.416 . S
C7091 C854 1.419 . S
C7105 C1792 1.422 . S
C7109 C882 1.413 . S
C7123 C1694 1.417 . S
C7127 C910 1.418 . S
C7141 C2380 1.416 . S
C7145 C924 1.419 . S
C7159 C938 1.421 . S
C7163 C1050 1.414 . S
C7177 C952 1.413 . S
C7181 C1680 1.421 . S
C7195 C966 1.416 . S
C7199 C1078 1.419 . S
C7213 C2436 1.423 . S
C7217 C980 1.413 . S
C7231 C1008 1.417 . S
C7235 C1624 1.418 . S
C7249 C1582 1.417 . S
C7253 C1022 1.418 . S
C7267 C1036 1.413 . S
C7271 C2268 1.422 . S
C7285 C1092 1.413 . S
C7289 C2324 1.422 . S
C7303 C1554 1.413 . S
C7307 C1120 1.423 . S
C7321 C1134 1.412 . S
C7325 C2184 1.423 . S
C7339 C1176 1.413 . S
C7343 C2142 1.422 . S
C7357 C1218 1.423 . S
C7361 C1456 1.412 . S
C7375 C1358 1.422 . S
C7379 C1246 1.413 . S
C7393 C2044 1.414 . S
C7397 C1260 1.421 . S
C7411 C1288 1.422 . S
C7415 C1344 1.413 . S
C7429 C1316 1.417 . S
C7433 C2100 1.418 . S
C7447 C1946 1.420 . S
C7451 C1386 1.415 . S
C7465 C2674 1.414 . S
C7469 C1400 1.422 . S
C7483 C1974 1.414 . S
C7487 C1414 1.421 . S
C7501 C2576 1.422 . S
C7505 C1442 1.413 . S
C7519 C1862 1.422 . S
C7523 C1484 1.413 . S
C7537 C1498 1.413 . S
C7541 C2548 1.423 . S
C7555 C1820 1.413 . S
C7559 C1526 1.422 . S
C7573 C1540 1.419 . S
C7577 C2506 1.416 . S
C7591 C1568 1.422 . S
C7595 C2450 1.414 . S
C7609 C1610 1.423 . S
C7613 C1722 1.412 . S
C7627 C1638 1.421 . S
C7631 C1750 1.414 . S
C7645 C1666 1.415 . S
C7649 C2408 1.421 . S
C7663 C1736 1.422 . S
C7667 C2338 1.413 . S
C7681 C1778 1.417 . S
C7685 C2240 1.418 . S
C7699 C1834 1.423 . S
C7703 C2212 1.412 . S
C7717 C1876 1.412 . S
C7721 C2170 1.423 . S
C7735 C2114 1.413 . S
C7739 C1904 1.422 . S
C7753 C2072 1.421 . S
C7757 C2002 1.415 . S
C7771 C2618 1.415 . S
C7775 C2058 1.420 . S
C7789 C2646 1.423 . S
C7793 C2086 1.412 . S
C7807 C2534 1.423 . S
C7811 C2156 1.412 . S
C7825 C2198 1.415 . S
C7829 C2492 1.420 . S
C7843 C2282 1.415 . S
C7847 C2394 1.420 . S
C7861 C2422 1.418 . S
C7865 C2310 1.417 . S
C7879 C887 1.410 . S
C7883 C5 1.403 . S
C7897 C19 1.408 . S
C7901 C1517 1.402 . S
C7915 C859 1.404 . S
C7919 C33 1.404 . S
C7933 C1545 1.404 . S
C7937 C47 1.410 . S
C7951 C61 1.403 . S
C7955 C803 1.406 . S
C7969 C1489 1.409 . S
C7973 C75 1.402 . S
C7987 C831 1.406 . S
C7991 C89 1.403 . S
C8005 C103 1.405 . S
C8009 C1461 1.404 . S
C8023 C1447 1.408 . S
C8027 C117 1.408 . S
C8041 C733 1.402 . S
C8045 C131 1.408 . S
C8059 C145 1.403 . S
C8063 C1419 1.410 . S
C8077 C159 1.407 . S
C8081 C761 1.408 . S
C8095 C1363 1.409 . S
C8099 C173 1.405 . S
C8113 C705 1.403 . S
C8117 C187 1.410 . S
C8131 C1391 1.408 . S
C8135 C201 1.407 . S
C8149 C215 1.404 . S
C8153 C677 1.405 . S
C8167 C1629 1.409 . S
C8171 C229 1.406 . S
C8185 C1671 1.410 . S
C8189 C243 1.404 . S
C8203 C257 1.408 . S
C8207 C1643 1.402 . S
C8221 C1657 1.403 . S
C8225 C271 1.409 . S
C8239 C285 1.410 . S
C8243 C1573 1.403 . S
C8257 C1601 1.402 . S
C8261 C299 1.408 . S
C8275 C1615 1.406 . S
C8279 C313 1.409 . S
C8293 C327 1.403 . S
C8297 C1587 1.409 . S
C8311 C1223 1.410 . S
C8315 C341 1.404 . S
C8329 C355 1.407 . S
C8333 C1853 1.408 . S
C8347 C1195 1.410 . S
C8351 C369 1.404 . S
C8365 C383 1.408 . S
C8369 C1881 1.407 . S
C8383 C397 1.403 . S
C8387 C1139 1.406 . S
C8401 C1825 1.404 . S
C8405 C411 1.405 . S
C8419 C425 1.402 . S
C8423 C1167 1.408 . S
C8437 C439 1.403 . S
C8441 C1797 1.408 . S
C8455 C1783 1.402 . S
C8459 C453 1.408 . S
C8473 C1069 1.407 . S
C8477 C467 1.402 . S
C8491 C481 1.403 . S
C8495 C1755 1.406 . S
C8509 C1097 1.409 . S
C8513 C495 1.402 . S
C8527 C509 1.405 . S
C8531 C1699 1.403 . S
C8545 C1041 1.403 . S
C8549 C523 1.409 . S
C8563 C1727 1.405 . S
C8567 C537 1.404 . S
C8581 C551 1.404 . S
C8585 C1013 1.405 . S
C8599 C1965 1.405 . S
C8603 C565 1.404 . S
C8617 C579 1.403 . S
C8621 C2007 1.410 . S
C8635 C1979 1.404 . S
C8639 C593 1.410 . S
C8653 C1993 1.405 . S
C8657 C607 1.404 . S
C8671 C1909 1.404 . S
C8675 C621 1.410 . S
C8689 C635 1.403 . S
C8693 C1937 1.409 . S
C8707 C649 1.404 . S
C8711 C1951 1.405 . S
C8725 C1923 1.408 . S
C8729 C663 1.402 . S
C8743 C2189 1.403 . S
C8747 C691 1.409 . S
C8761 C2217 1.409 . S
C8765 C719 1.405 . S
C8779 C747 1.407 . S
C8783 C2161 1.408 . S
C8797 C2133 1.403 . S
C8801 C775 1.409 . S
C8815 C789 1.409 . S
C8819 C2119 1.405 . S
C8833 C817 1.408 . S
C8837 C2091 1.402 . S
C8851 C2035 1.408 . S
C8855 C845 1.407 . S
C8869 C873 1.404 . S
C8873 C2063 1.410 . S
C8887 C901 1.403 . S
C8891 C2301 1.407 . S
C8905 C2343 1.408 . S
C8909 C915 1.402 . S
C8923 C929 1.402 . S
C8927 C2315 1.409 . S
C8941 C2329 1.410 . S
C8945 C943 1.404 . S
C8959 C2245 1.408 . S
C8963 C957 1.408 . S
C8977 C971 1.402 . S
C8981 C2273 1.408 . S
C8995 C985 1.409 . S
C8999 C2287 1.405 . S
C9013 C2259 1.410 . S
C9017 C999 1.405 . S
C9031 C2525 1.409 . S
C9035 C1027 1.406 . S
C9049 C2553 1.407 . S
C9053 C1055 1.402 . S
C9067 C2497 1.409 . S
C9071 C1083 1.405 . S
C9085 C2469 1.406 . S
C9089 C1111 1.403 . S
C9103 C1125 1.409 . S
C9107 C2455 1.407 . S
C9121 C2427 1.409 . S
C9125 C1153 1.403 . S
C9139 C2371 1.404 . S
C9143 C1181 1.410 . S
C9157 C2399 1.404 . S
C9161 C1209 1.410 . S
C9175 C1237 1.409 . S
C9179 C2637 1.406 . S
C9193 C2679 1.410 . S
C9197 C1251 1.404 . S
C9211 C1265 1.409 . S
C9215 C2651 1.405 . S
C9229 C2665 1.406 . S
C9233 C1279 1.409 . S
C9247 C1293 1.410 . S
C9251 C2581 1.405 . S
C9265 C1307 1.409 . S
C9269 C2609 1.406 . S
C9283 C2623 1.410 . S
C9287 C1321 1.404 . S
C9301 C2595 1.403 . S
C9305 C1335 1.405 . S
C9319 C2231 1.409 . S
C9323 C1349 1.403 . S
C9337 C1377 1.403 . S
C9341 C2203 1.410 . S
C9355 C2147 1.403 . S
C9359 C1405 1.405 . S
C9373 C1433 1.402 . S
C9377 C2175 1.408 . S
C9391 C1475 1.408 . S
C9395 C2077 1.402 . S
C9409 C1503 1.403 . S
C9413 C2105 1.410 . S
C9427 C2049 1.404 . S
C9431 C1531 1.405 . S
C9445 C1559 1.408 . S
C9449 C2021 1.408 . S
C9463 C2567 1.403 . S
C9467 C1685 1.410 . S
C9481 C2539 1.402 . S
C9485 C1713 1.407 . S
C9499 C2483 1.409 . S
C9503 C1741 1.404 . S
C9517 C2511 1.403 . S
C9521 C1769 1.409 . S
C9535 C2413 1.402 . S
C9539 C1811 1.409 . S
C9553 C1839 1.407 . S
C9557 C2441 1.403 . S
C9571 C1867 1.402 . S
C9575 C2385 1.408 . S
C9589 C2357 1.405 . S
C9593 C1895 1.404 . S
