# Generated by pormake.
# Topology kag, (6)-cn, num edge types: 1
# Building blocks:
#     Node 0, Type 0, BuildingBlock: KUMJIN_clean_sbu_1, # of connection points: 6
#     Node 1, Type 0, BuildingBlock: KUMJIN_clean_sbu_1, # of connection points: 6
#     Node 2, Type 0, BuildingBlock: KUMJIN_clean_sbu_1, # of connection points: 6
#     Edge 3, Type (0, 0), BuildingBlock: EZIPEK_clean_linker_0, # of connection points: 2
#     Edge 4, Type (0, 0), BuildingBlock: EZIPEK_clean_linker_0, # of connection points: 2
#     Edge 5, Type (0, 0), BuildingBlock: EZIPEK_clean_linker_0, # of connection points: 2
#     Edge 6, Type (0, 0), BuildingBlock: EZIPEK_clean_linker_0, # of connection points: 2
#     Edge 7, Type (0, 0), BuildingBlock: EZIPEK_clean_linker_0, # of connection points: 2
#     Edge 8, Type (0, 0), BuildingBlock: EZIPEK_clean_linker_0, # of connection points: 2
#     Edge 9, Type (0, 0), BuildingBlock: EZIPEK_clean_linker_0, # of connection points: 2
#     Edge 10, Type (0, 0), BuildingBlock: EZIPEK_clean_linker_0, # of connection points: 2
#     Edge 11, Type (0, 0), BuildingBlock: EZIPEK_clean_linker_0, # of connection points: 2
# Relax obj value: 0.139
# Max RMSD: 0.205
# Mean RMSD: 0.149
data_MOF--net-kag--node1-KUMJIN_clean_sbu_1--edge1-EZIPEK_clean_linker_0
_symmetry_space_group_name_H-M    P1
_symmetry_Int_Tables_number       1
_symmetry_cell_setting            triclinic
loop_
_symmetry_equiv_pos_as_xyz
'x, y, z'
_cell_length_a     23.10283
_cell_length_b     32.719993
_cell_length_c     10.926542
_cell_angle_alpha  108.53005
_cell_angle_beta   97.459332
_cell_angle_gamma 94.146177
loop_
_atom_site_label
_atom_site_type_symbol
_atom_site_fract_x
_atom_site_fract_y
_atom_site_fract_z
_atom_type_partial_charge
Eu0 Eu 0.07511 0.56535 0.07286 0.0
C1 C 0.0983 0.36579 0.71433 0.0
N2 N 0.0571 0.39291 0.70546 0.0
C3 C 1.034 0.3575 0.47336 0.0
C4 C 0.10836 0.333 0.60171 0.0
C5 C 1.02425 0.38875 0.58777 0.0
C6 C 0.07623 0.32954 0.48026 0.0
C7 C 0.17112 0.3413 0.84869 0.0
C8 C 0.13044 0.37042 0.83668 0.0
C9 C 0.17977 0.3079 0.7369 0.0
C10 C 0.14922 0.3042 0.61374 0.0
Eu11 Eu 1.03881 0.43766 0.90923 0.0
N12 N 0.12295 0.40388 0.94319 0.0
C13 C 0.20272 0.34699 0.97269 0.0
C14 C 0.156 0.41101 0.06267 0.0
C15 C 0.19631 0.38267 0.07931 0.0
H16 H 0.98925 0.40854 0.58194 0.0
H17 H 0.22227 0.38828 0.17428 0.0
H18 H 0.17021 0.58101 0.35178 0.0
H19 H 0.89366 0.65732 -0.00374 0.0
H20 H 0.15206 0.43923 0.14392 0.0
H21 H 0.23391 0.32498 0.98605 0.0
H22 H 0.9681 0.60739 0.93128 0.0
H23 H 1.00809 0.35442 0.38021 0.0
H24 H 0.21098 0.28529 0.74434 0.0
H25 H 0.15717 0.27864 0.52836 0.0
H26 H 0.17365 0.61514 0.58983 0.0
H27 H 0.08299 0.30492 0.39155 0.0
H28 H 0.88745 0.69116 0.23067 0.0
N29 N 0.0874 0.60118 0.30186 0.0
C30 C 1.04481 0.62602 0.34539 0.0
C31 C 0.13735 0.61856 0.52214 0.0
C32 C 1.04644 0.64753 0.48036 0.0
C33 C 0.13482 0.59886 0.38743 0.0
C34 C 0.09273 0.6427 0.56893 0.0
N35 N 1.00023 0.61051 0.12513 0.0
C36 C 0.96464 0.62134 0.03307 0.0
C37 C 0.95873 0.65986 0.29655 0.0
C38 C 1.00044 0.63119 0.25459 0.0
C39 C 0.91947 0.66876 0.2022 0.0
C40 C 0.92286 0.64978 0.06984 0.0
H41 H 0.09504 0.65822 0.67327 0.0
H42 H 1.0027 0.69 0.62587 0.0
H43 H 0.92663 0.70157 0.46477 0.0
O44 O 0.0957 0.60203 0.94489 0.0
O45 O 0.97453 0.54109 0.03859 0.0
O46 O 0.95298 0.46829 0.91028 0.0
O47 O 0.13321 0.62631 0.15071 0.0
O48 O 0.07969 0.53447 0.85507 0.0
O49 O 1.01116 0.47426 0.77099 0.0
O50 O 1.01722 0.3905 0.0035 0.0
O51 O 0.13716 0.4657 0.92379 0.0
O52 O 0.16031 0.53395 0.07887 0.0
O53 O 0.97543 0.38035 0.80485 0.0
O54 O 1.0233 0.46639 0.11819 0.0
O55 O 0.09689 0.5218 0.19422 0.0
C56 C 0.93646 0.50568 0.97639 0.0
C57 C 0.19099 0.64031 0.00235 0.0
C58 C 0.25179 0.68052 0.90301 0.0
C59 C 0.30159 0.66426 0.94948 0.0
C60 C 0.24098 0.6237 0.04663 0.0
C61 C 0.29596 0.63543 0.01922 0.0
C62 C 0.1964 0.6677 0.92771 0.0
C63 C 1.04285 0.50688 0.75689 0.0
C64 C 0.13328 0.63083 0.03654 0.0
C65 C 1.00248 0.67363 0.52259 0.0
C66 C 0.95902 0.68008 0.43088 0.0
C67 C 0.1769 0.49886 -0.00203 0.0
C68 C 0.92151 0.3548 0.94112 0.0
C69 C 0.86523 0.30793 0.02743 0.0
C70 C 0.81787 0.33224 0.02441 0.0
C71 C 0.87301 0.37781 0.93253 0.0
C72 C 0.91741 0.31999 0.98867 0.0
C73 C 0.82152 0.36667 0.97508 0.0
C74 C 0.05614 0.49625 0.21616 0.0
C75 C 0.97753 0.367 0.9056 0.0
H76 H 0.34475 0.67436 0.93327 0.0
H77 H 0.23777 0.60239 0.10419 0.0
H78 H 0.33446 0.6229 0.05456 0.0
H79 H 0.15795 0.6807 0.89386 0.0
H80 H 0.77781 0.32376 0.05693 0.0
H81 H 0.87495 0.40435 0.89376 0.0
H82 H 0.95437 0.30151 0.99272 0.0
H83 H 0.78415 0.38436 0.96822 0.0
Eu84 Eu 0.45743 0.9929 0.9532 0.0
C85 C 0.70969 0.00011 0.28628 0.0
N86 N 0.68338 0.03006 0.24425 0.0
C87 C 0.71793 0.08487 0.45184 0.0
C88 C 0.73814 0.01084 0.41648 0.0
C89 C 0.68933 0.07242 0.32226 0.0
C90 C 0.74123 0.05372 0.50013 0.0
C91 C 0.73861 0.92766 0.23604 0.0
C92 C 0.7103 0.95927 0.19679 0.0
C93 C 0.7642 0.93733 0.36749 0.0
C94 C 0.76417 0.9789 0.45743 0.0
Eu95 Eu 0.63661 0.00732 0.02486 0.0
N96 N 0.68635 0.95137 0.0699 0.0
C97 C 0.74196 0.88777 0.14124 0.0
C98 C 0.69329 0.91371 0.97575 0.0
C99 C 0.71996 0.88103 0.01024 0.0
H100 H 0.67122 0.09638 0.28458 0.0
H101 H 0.724 0.85083 0.9356 0.0
H102 H 0.41149 0.98526 0.64348 0.0
H103 H 0.34131 0.05694 0.37243 0.0
H104 H 0.678 0.90861 0.87363 0.0
H105 H 0.76314 0.86256 0.16746 0.0
H106 H 0.40461 0.0089 0.24495 0.0
H107 H 0.72154 0.11834 0.5146 0.0
H108 H 0.78569 0.91332 0.39968 0.0
H109 H 0.78565 0.98633 0.55753 0.0
H110 H 0.34628 0.02004 0.52139 0.0
H111 H 0.76294 0.06336 0.6008 0.0
H112 H 0.28489 0.10371 0.27733 0.0
N113 N 0.39072 0.02108 0.82857 0.0
C114 C 0.35635 0.04938 0.89384 0.0
C115 C 0.34935 0.02933 0.62634 0.0
C116 C 0.31843 0.07033 0.82802 0.0
C117 C 0.38639 0.00966 0.69602 0.0
C118 C 0.31605 0.06052 0.69289 0.0
N119 N 0.38957 0.03122 0.08123 0.0
C120 C 0.38216 0.03009 0.20247 0.0
C121 C 0.31742 0.08171 0.09312 0.0
C122 C 0.35592 0.05482 0.02449 0.0
C123 C 0.31375 0.08338 0.22117 0.0
C124 C 0.34546 0.05687 0.27508 0.0
H125 H 0.28723 0.07567 0.63855 0.0
H126 H 0.25368 0.1158 0.84948 0.0
H127 H 0.25289 0.12589 0.08211 0.0
O128 O 0.3788 0.948 0.9306 0.0
O129 O 0.49842 0.05608 0.93807 0.0
O130 O 0.58864 0.06843 0.06991 0.0
O131 O 0.44413 0.92955 0.80114 0.0
O132 O 0.49503 0.01871 0.16905 0.0
O133 O 0.59291 0.00566 0.19781 0.0
O134 O 0.72583 0.00656 0.97827 0.0
O135 O 0.58765 0.94145 0.90224 0.0
O136 O 0.51295 0.94611 0.01826 0.0
O137 O 0.68056 0.06311 0.9932 0.0
O138 O 0.59758 0.98253 0.80883 0.0
O139 O 0.50409 0.00411 0.79575 0.0
C140 C 0.54799 0.08122 -0.0026 0.0
C141 C 0.35157 0.88532 0.73895 0.0
C142 C 0.2924 0.81533 0.6789 0.0
C143 C 0.2686 0.81984 0.55963 0.0
C144 C 0.32843 0.88964 0.61918 0.0
C145 C 0.28694 0.85686 0.5298 0.0
C146 C 0.33386 0.84812 0.76747 0.0
C147 C 0.54248 0.01309 0.2393 0.0
C148 C 0.39565 0.91761 0.83646 0.0
C149 C 0.28258 0.099 0.8979 0.0
C150 C 0.28215 0.10474 0.03034 0.0
C151 C 0.54838 0.92241 0.94911 0.0
C152 C 0.78194 0.07604 0.06704 0.0
C153 C 0.84018 0.14669 0.13526 0.0
C154 C 0.87782 0.13474 0.22621 0.0
C155 C 0.81937 0.06435 0.15936 0.0
C156 C 0.79232 0.11733 0.05675 0.0
C157 C 0.86706 0.09374 0.23867 0.0
C158 C 0.55249 0.99465 0.74801 0.0
C159 C 0.73032 0.04701 0.98371 0.0
H160 H 0.23603 0.79492 0.49054 0.0
H161 H 0.34228 0.918 0.59488 0.0
H162 H 0.26884 0.86021 0.4375 0.0
H163 H 0.35221 0.84466 0.85984 0.0
H164 H 0.91532 0.15702 0.28677 0.0
H165 H 0.81176 0.03281 0.17073 0.0
H166 H 0.76333 0.12664 0.98629 0.0
H167 H 0.89585 0.08463 0.30947 0.0
Eu168 Eu 0.54669 0.43835 0.92515 0.0
C169 C 0.62793 0.60578 0.37448 0.0
N170 N 0.57467 0.60216 0.30067 0.0
C171 C 0.53059 0.62492 0.49488 0.0
C172 C 0.63404 0.61646 0.51153 0.0
C173 C 0.52721 0.61487 0.35944 0.0
C174 C 0.5839 0.6244 0.57092 0.0
C175 C 0.73377 0.61414 0.38931 0.0
C176 C 0.677 0.60408 0.31408 0.0
C177 C 0.74021 0.62026 0.52387 0.0
C178 C 0.69027 0.62131 0.58499 0.0
Eu179 Eu 0.57104 0.57378 0.06984 0.0
N180 N 0.66896 0.59898 0.1847 0.0
C181 C 0.78171 0.62095 0.32878 0.0
C182 C 0.71396 0.61331 0.13266 0.0
C183 C 0.77137 0.62204 0.20099 0.0
H184 H 0.48666 0.61663 0.30121 0.0
H185 H 0.80725 0.62952 0.1546 0.0
H186 H 0.58397 0.40832 0.61766 0.0
H187 H 0.34761 0.38051 0.06797 0.0
H188 H 0.70588 0.61492 0.03483 0.0
H189 H 0.82617 0.62841 0.38237 0.0
H190 H 0.45184 0.41213 0.10152 0.0
H191 H 0.49227 0.63335 0.54053 0.0
H192 H 0.7835 0.62682 0.58275 0.0
H193 H 0.69581 0.6284 0.68996 0.0
H194 H 0.53277 0.38206 0.38968 0.0
H195 H 0.58659 0.63258 0.67588 0.0
H196 H 0.28863 0.35772 0.8462 0.0
N197 N 0.50504 0.40905 0.69999 0.0
C198 C 0.44647 0.39501 0.67591 0.0
C199 C 0.50784 0.38609 0.46917 0.0
C200 C 0.41592 0.37763 0.54631 0.0
C201 C 0.53654 0.4017 0.59875 0.0
C202 C 0.44703 0.37486 0.44284 0.0
N203 N 0.44806 0.41029 0.90446 0.0
C204 C 0.42514 0.40289 0.00587 0.0
C205 C 0.35889 0.37579 0.75641 0.0
C206 C 0.41776 0.39451 0.78019 0.0
C207 C 0.33336 0.37203 0.86197 0.0
C208 C 0.3667 0.38487 0.98693 0.0
H209 H 0.42503 0.36205 0.3422 0.0
H210 H 0.33187 0.34854 0.42483 0.0
H211 H 0.28219 0.34631 0.60863 0.0
O212 O 0.56866 0.3944 0.03882 0.0
O213 O 0.46344 0.47451 0.965 0.0
O214 O 0.47099 0.55016 0.02441 0.0
O215 O 0.5581 0.37069 0.8288 0.0
O216 O 0.58041 0.47291 0.1409 0.0
O217 O 0.53395 0.53449 0.18793 0.0
O218 O 0.59097 0.61929 0.96646 0.0
O219 O 0.65348 0.53836 0.02788 0.0
O220 O 0.64452 0.46283 0.93816 0.0
O221 O 0.5414 0.63866 0.12315 0.0
O222 O 0.54304 0.53925 0.85012 0.0
O223 O 0.58133 0.47385 0.7971 0.0
C224 C 0.43922 0.51155 0.99294 0.0
C225 C 0.60351 0.32523 0.93543 0.0
C226 C 0.6119 0.2521 0.95025 0.0
C227 C 0.66339 0.25114 0.89446 0.0
C228 C 0.65517 0.32311 0.88015 0.0
C229 C 0.68454 0.28621 0.85926 0.0
C230 C 0.58228 0.28966 0.97191 0.0
C231 C 0.55789 0.50381 0.22308 0.0
C232 C 0.56653 0.36056 0.93484 0.0
C233 C 0.35607 0.36161 0.52353 0.0
C234 C 0.3278 0.36026 0.62817 0.0
C235 C 0.6768 0.50156 0.98432 0.0
C236 C 0.52833 0.67314 0.96153 0.0
C237 C 0.51181 0.73957 0.90903 0.0
C238 C 0.46081 0.71693 0.82191 0.0
C239 C 0.47762 0.65134 0.87291 0.0
C240 C 0.54571 0.71721 0.97836 0.0
C241 C 0.44433 0.67314 0.80326 0.0
C242 C 0.56299 0.50689 0.76583 0.0
C243 C 0.56408 0.65004 0.0345 0.0
H244 H 0.68652 0.22266 0.87522 0.0
H245 H 0.67167 0.34939 0.84888 0.0
H246 H 0.72352 0.28446 0.81342 0.0
H247 H 0.54127 0.29015 0.01024 0.0
H248 H 0.43402 0.73316 0.76733 0.0
H249 H 0.46394 0.61745 0.85741 0.0
H250 H 0.58537 0.7341 0.04517 0.0
H251 H 0.40544 0.65599 0.73456 0.0
C252 C 0.08327 0.4786 0.54596 0.0
C253 C 1.04713 0.50647 0.62026 0.0
C254 C 1.01379 0.52738 0.42691 0.0
C255 C 1.04952 0.49838 0.35325 0.0
N256 N 0.09361 0.43262 0.33176 0.0
N257 N 0.98444 0.56276 0.63784 0.0
C258 C 0.07759 0.47017 0.4096 0.0
C259 C 1.0138 0.53225 0.56207 0.0
N260 N 0.12513 0.46132 0.60652 0.0
N261 N 0.97635 0.54752 0.36478 0.0
H262 H 0.98448 0.56682 0.73613 0.0
H263 H 0.96415 0.58602 0.6074 0.0
H264 H 0.97482 0.54385 0.26641 0.0
H265 H 0.94416 0.56527 0.40671 0.0
H266 H 0.15634 0.44384 0.55876 0.0
H267 H 0.13234 0.46927 0.70722 0.0
H268 H 0.11148 0.4095 0.36751 0.0
H269 H 0.07924 0.42134 0.23153 0.0
C270 C 0.56968 0.04349 0.48131 0.0
C271 C 0.53819 0.0105 0.3707 0.0
C272 C 0.51802 0.96567 0.50646 0.0
C273 C 0.55356 0.99747 0.61549 0.0
N274 N 0.6185 0.06462 0.70468 0.0
N275 N 0.46902 0.9453 0.28214 0.0
C276 C 0.58116 0.03567 0.60194 0.0
C277 C 0.50853 0.9729 0.38414 0.0
N278 N 0.58389 0.0837 0.47327 0.0
N279 N 0.49485 0.92794 0.51953 0.0
H280 H 0.459 0.95026 0.19303 0.0
H281 H 0.44179 0.91949 0.28798 0.0
H282 H 0.49961 0.92242 0.60863 0.0
H283 H 0.47441 0.9009 0.44214 0.0
H284 H 0.60087 0.11095 0.55379 0.0
H285 H 0.57296 0.09068 0.38701 0.0
H286 H 0.64558 0.09027 0.69705 0.0
H287 H 0.62446 0.06139 0.79652 0.0
C288 C 0.5091 0.51107 0.55086 0.0
C289 C 0.5619 0.50604 0.62598 0.0
C290 C 0.61297 0.50319 0.43838 0.0
C291 C 0.55919 0.50385 0.36077 0.0
N292 N 0.45365 0.49396 0.33361 0.0
N293 N 0.6607 0.48466 0.61914 0.0
C294 C 0.50659 0.50395 0.41446 0.0
C295 C 0.61272 0.49815 0.56323 0.0
N296 N 0.46047 0.52185 0.60715 0.0
N297 N 0.66499 0.50901 0.39562 0.0
H298 H 0.6646 0.48041 0.70967 0.0
H299 H 0.69515 0.47373 0.5694 0.0
H300 H 0.66742 0.51372 0.3064 0.0
H301 H 0.70579 0.51393 0.45488 0.0
H302 H 0.4241 0.53097 0.55957 0.0
H303 H 0.45741 0.52479 0.70335 0.0
H304 H 0.41384 0.48869 0.36472 0.0
H305 H 0.4502 0.48613 0.2326 0.0
C306 C 0.28555 0.51859 0.11376 0.0
C307 C 0.24449 0.49713 -0.00341 0.0
C308 C 0.33131 0.48591 0.87791 0.0
C309 C 0.37181 0.5087 0.99385 0.0
N310 N 0.384 0.55263 0.22048 0.0
N311 N 0.23634 0.44493 0.77838 0.0
C312 C 0.34762 0.52679 0.1107 0.0
C313 C 0.26952 0.47668 0.88157 0.0
N314 N 0.26629 0.52673 0.23144 0.0
N315 N 0.35141 0.4744 0.761 0.0
H316 H 0.195 0.43163 0.78172 0.0
H317 H 0.25277 0.42672 0.6965 0.0
H318 H 0.39576 0.47886 0.75414 0.0
H319 H 0.32389 0.46381 0.67074 0.0
H320 H 0.29394 0.53826 0.32143 0.0
H321 H 0.22378 0.51609 0.23953 0.0
H322 H 0.36932 0.57252 0.30269 0.0
H323 H 0.42925 0.55578 0.22599 0.0
C324 C 0.86353 0.18907 0.99103 0.0
C325 C 0.85145 0.18898 0.11483 0.0
C326 C 0.85434 0.26813 0.18757 0.0
C327 C 0.85885 0.26719 0.05855 0.0
N328 N 0.85383 0.22543 0.83013 0.0
N329 N 0.825 0.22742 0.32431 0.0
C330 C 0.85947 0.22725 0.95798 0.0
C331 C 0.84413 0.22826 0.21184 0.0
N332 N 0.88008 0.15289 0.90597 0.0
N333 N 0.86134 0.30689 0.28723 0.0
H334 H 0.8164 0.19881 0.34512 0.0
H335 H 0.81289 0.25463 0.39164 0.0
H336 H 0.86913 0.33672 0.27293 0.0
H337 H 0.86454 0.30923 0.38528 0.0
H338 H 0.89463 0.15263 0.81938 0.0
H339 H 0.88517 0.1245 0.92832 0.0
H340 H 0.84803 0.19633 0.75224 0.0
H341 H 0.84871 0.25254 0.80088 0.0
C342 C 0.54659 0.84175 0.81865 0.0
C343 C 0.54879 0.87541 0.94049 0.0
C344 C 0.53007 0.81998 0.0441 0.0
C345 C 0.52941 0.78634 0.92362 0.0
N346 N 0.55351 0.76564 0.70582 0.0
N347 N 0.56606 0.89431 0.17507 0.0
C348 C 0.54277 0.79742 0.8138 0.0
C349 C 0.54745 0.86384 0.05504 0.0
N350 N 0.54597 0.85164 0.70629 0.0
N351 N 0.51174 0.81059 0.14713 0.0
H352 H 0.58315 0.92584 0.18625 0.0
H353 H 0.57122 0.88689 0.26154 0.0
H354 H 0.49751 0.77916 0.1431 0.0
H355 H 0.5056 0.83455 0.23227 0.0
H356 H 0.53629 0.82842 0.61331 0.0
H357 H 0.55174 0.88327 0.70526 0.0
H358 H 0.56923 0.77203 0.62782 0.0
H359 H 0.55252 0.73313 0.70003 0.0
C360 C 0.834 0.525 0.90298 0.0
C361 C 0.87028 0.50695 0.98312 0.0
C362 C 0.77978 0.48449 0.06121 0.0
C363 C 0.74383 0.50415 0.98487 0.0
N364 N 0.74063 0.55048 0.85095 0.0
N365 N 0.87742 0.47402 0.15179 0.0
C366 C 0.77228 0.52674 0.91178 0.0
C367 C 0.84283 0.488 0.06578 0.0
N368 N 0.85795 0.53868 0.81273 0.0
N369 N 0.75358 0.46222 0.13028 0.0
H370 H 0.92235 0.47361 0.1531 0.0
H371 H 0.8628 0.4652 0.227 0.0
H372 H 0.70893 0.46102 0.13658 0.0
H373 H 0.775 0.44295 0.17657 0.0
H374 H 0.8334 0.54739 0.74007 0.0
H375 H 0.90218 0.5377 0.80337 0.0
H376 H 0.7596 0.57199 0.81061 0.0
H377 H 0.69556 0.55132 0.84886 0.0
C378 C 0.24203 0.75563 0.89542 0.0
C379 C 0.25798 0.71354 0.83683 0.0
C380 C 0.29286 0.73682 0.66396 0.0
C381 C 0.27296 0.77778 0.71814 0.0
N382 N 0.21459 0.8219 0.86338 0.0
N383 N 0.28687 0.66122 0.65016 0.0
C384 C 0.24265 0.78561 0.82639 0.0
C385 C 0.27975 0.70319 0.71611 0.0
N386 N 0.22994 0.76809 0.02039 0.0
N387 N 0.32665 0.73065 0.56729 0.0
H388 H 0.27791 0.63571 0.68539 0.0
H389 H 0.2967 0.65113 0.55549 0.0
H390 H 0.33667 0.75433 0.52559 0.0
H391 H 0.34823 0.70326 0.53523 0.0
H392 H 0.22394 0.79986 0.0719 0.0
H393 H 0.23217 0.74809 0.07808 0.0
H394 H 0.18725 0.82724 0.93423 0.0
H395 H 0.21381 0.84437 0.81363 0.0
C396 C 0.61104 0.20117 0.08435 0.0
C397 C 0.58745 0.21163 0.97306 0.0
C398 C 0.53395 0.13778 0.87725 0.0
C399 C 0.55605 0.12737 0.99175 0.0
N400 N 0.59638 0.15742 0.22182 0.0
N401 N 0.51505 0.19351 0.77892 0.0
C402 C 0.5892 0.16148 0.10038 0.0
C403 C 0.54489 0.18119 0.87541 0.0
N404 N 0.65473 0.22901 0.17514 0.0
N405 N 0.50571 0.10636 0.7658 0.0
H406 H 0.52371 0.224 0.76969 0.0
H407 H 0.47801 0.17498 0.71529 0.0
H408 H 0.49612 0.07405 0.75579 0.0
H409 H 0.49654 0.11138 0.67617 0.0
H410 H 0.67847 0.22069 0.24979 0.0
H411 H 0.66983 0.25921 0.17036 0.0
H412 H 0.6164 0.18242 0.30602 0.0
H413 H 0.57496 0.13156 0.24105 0.0
loop_
_geom_bond_atom_site_label_1
_geom_bond_atom_site_label_2
_geom_bond_distance
_geom_bond_site_symmetry_2
_ccdc_geom_bond_type
Eu0 N29 2.600 1_455 S
Eu0 N35 2.562 1_455 S
Eu0 O44 2.462 1_554 S
Eu0 O45 2.373 1_455 S
Eu0 O47 2.432 . S
Eu0 O48 2.291 1_454 S
Eu0 O52 2.335 . S
Eu0 O55 2.372 . S
Eu0 C64 2.787 . S
C1 N2 1.365 . S
C1 C4 1.405 . S
C1 C8 1.448 . S
N2 C1 1.365 . S
N2 C5 1.319 . S
N2 Eu11 2.600 1_455 S
C3 C5 1.397 . S
C3 C6 1.367 . S
C3 H23 0.931 . S
C4 C1 1.405 . S
C4 C6 1.403 . S
C4 C10 1.439 . S
C5 N2 1.319 . S
C5 C3 1.397 . S
C5 H16 0.930 1_455 S
C6 C3 1.367 . S
C6 C4 1.403 . S
C6 H27 0.929 . S
C7 C8 1.430 . S
C7 C9 1.387 . S
C7 C13 1.404 1_556 S
C8 C1 1.448 . S
C8 C7 1.430 . S
C8 N12 1.351 . S
C9 C7 1.387 . S
C9 C10 1.374 . S
C9 H24 0.931 . S
C10 C4 1.439 . S
C10 C9 1.374 . S
C10 H25 0.931 . S
Eu11 N2 2.600 1_655 S
Eu11 N12 2.562 1_655 S
Eu11 O46 2.335 . S
Eu11 O49 2.372 . S
Eu11 O50 2.462 1_556 S
Eu11 O51 2.373 1_655 S
Eu11 O53 2.432 . S
Eu11 O54 2.291 1_656 S
Eu11 C75 2.787 . S
N12 C8 1.351 . S
N12 Eu11 2.562 1_455 S
N12 C14 1.325 1_556 S
C13 C7 1.404 1_554 S
C13 C15 1.366 . S
C13 H21 0.930 . S
C14 N12 1.325 1_554 S
C14 C15 1.416 . S
C14 H20 0.929 . S
C15 C13 1.366 . S
C15 C14 1.416 . S
C15 H17 0.930 . S
H16 C5 0.930 1_655 S
H17 C15 0.930 . S
H18 C33 0.930 1_455 S
H19 C40 0.930 . S
H20 C14 0.929 . S
H21 C13 0.930 . S
H22 C36 0.929 . S
H23 C3 0.931 . S
H24 C9 0.931 . S
H25 C10 0.931 . S
H26 C31 0.931 . S
H27 C6 0.929 . S
H28 C39 0.930 . S
N29 Eu0 2.600 1_655 S
N29 C30 1.365 . S
N29 C33 1.319 . S
C30 N29 1.365 . S
C30 C32 1.405 . S
C30 C38 1.448 . S
C31 H26 0.931 . S
C31 C33 1.397 . S
C31 C34 1.367 . S
C32 C30 1.405 . S
C32 C34 1.403 . S
C32 C65 1.439 . S
C33 H18 0.930 1_655 S
C33 N29 1.319 . S
C33 C31 1.397 . S
C34 C31 1.367 . S
C34 C32 1.403 . S
C34 H41 0.929 . S
N35 Eu0 2.562 1_655 S
N35 C36 1.325 1_554 S
N35 C38 1.351 . S
C36 H22 0.929 . S
C36 N35 1.325 1_556 S
C36 C40 1.416 . S
C37 C38 1.430 . S
C37 C39 1.404 1_554 S
C37 C66 1.387 . S
C38 C30 1.448 . S
C38 N35 1.351 . S
C38 C37 1.430 . S
C39 H28 0.930 . S
C39 C37 1.404 1_556 S
C39 C40 1.366 . S
C40 H19 0.930 . S
C40 C36 1.416 . S
C40 C39 1.366 . S
H41 C34 0.929 . S
H42 C65 0.931 . S
H43 C66 0.931 . S
O44 Eu0 2.462 1_556 S
O44 C64 1.252 1_556 S
O45 Eu0 2.373 1_655 S
O45 C56 1.249 1_554 S
O46 Eu11 2.335 . S
O46 C56 1.264 . S
O47 Eu0 2.432 . S
O47 C64 1.268 . S
O48 Eu0 2.291 1_656 S
O48 C63 1.255 . S
O49 Eu11 2.372 . S
O49 C63 1.257 . S
O50 Eu11 2.462 1_554 S
O50 C75 1.252 1_554 S
O51 Eu11 2.373 1_455 S
O51 C67 1.249 1_556 S
O52 Eu0 2.335 . S
O52 C67 1.264 . S
O53 Eu11 2.432 . S
O53 C75 1.268 . S
O54 Eu11 2.291 1_454 S
O54 C74 1.255 . S
O55 Eu0 2.372 . S
O55 C74 1.257 . S
C56 O45 1.249 1_556 S
C56 O46 1.264 . S
C57 C60 1.382 . S
C57 C62 1.390 . S
C57 C64 1.506 . S
C58 C59 1.398 . S
C58 C62 1.392 . S
C59 C58 1.398 . S
C59 C61 1.372 . S
C59 H76 0.931 . S
C60 C57 1.382 . S
C60 C61 1.390 . S
C60 H77 0.931 . S
C61 C59 1.372 . S
C61 C60 1.390 . S
C61 H78 0.929 . S
C62 C57 1.390 . S
C62 C58 1.392 . S
C62 H79 0.930 1_554 S
C63 O48 1.255 . S
C63 O49 1.257 . S
C64 Eu0 2.787 . S
C64 O44 1.252 1_554 S
C64 O47 1.268 . S
C64 C57 1.506 . S
C65 C32 1.439 . S
C65 H42 0.931 . S
C65 C66 1.374 . S
C66 C37 1.387 . S
C66 H43 0.931 . S
C66 C65 1.374 . S
C67 O51 1.249 1_554 S
C67 O52 1.264 . S
C68 C71 1.382 . S
C68 C72 1.390 . S
C68 C75 1.506 . S
C69 C70 1.398 . S
C69 C72 1.392 . S
C70 C69 1.398 . S
C70 C73 1.372 . S
C70 H80 0.931 . S
C71 C68 1.382 . S
C71 C73 1.390 . S
C71 H81 0.931 . S
C72 C68 1.390 . S
C72 C69 1.392 . S
C72 H82 0.930 1_556 S
C73 C70 1.372 . S
C73 C71 1.390 . S
C73 H83 0.929 . S
C74 O54 1.255 . S
C74 O55 1.257 . S
C75 Eu11 2.787 . S
C75 O50 1.252 1_556 S
C75 O53 1.268 . S
C75 C68 1.506 . S
H76 C59 0.931 . S
H77 C60 0.931 . S
H78 C61 0.929 . S
H79 C62 0.930 1_556 S
H80 C70 0.931 . S
H81 C71 0.931 . S
H82 C72 0.930 1_554 S
H83 C73 0.929 . S
Eu84 N113 2.600 . S
Eu84 N119 2.562 1_566 S
Eu84 O128 2.462 1_556 S
Eu84 O129 2.373 1_565 S
Eu84 O131 2.432 . S
Eu84 O132 2.291 1_566 S
Eu84 O136 2.335 . S
Eu84 O139 2.372 . S
Eu84 C148 2.787 . S
C85 N86 1.365 1_565 S
C85 C88 1.405 . S
C85 C92 1.448 . S
N86 C85 1.365 1_545 S
N86 C89 1.319 . S
N86 Eu95 2.600 . S
C87 C89 1.397 . S
C87 C90 1.367 1_545 S
C87 H107 0.931 . S
C88 C85 1.405 . S
C88 C90 1.403 . S
C88 C94 1.439 . S
C89 N86 1.319 . S
C89 C87 1.397 . S
C89 H100 0.930 . S
C90 C87 1.367 1_565 S
C90 C88 1.403 . S
C90 H111 0.929 . S
C91 C92 1.430 1_556 S
C91 C93 1.387 1_556 S
C91 C97 1.404 . S
C92 C85 1.448 . S
C92 C91 1.430 1_554 S
C92 N96 1.351 1_554 S
C93 C91 1.387 1_554 S
C93 C94 1.374 . S
C93 H108 0.931 . S
C94 C88 1.439 . S
C94 C93 1.374 . S
C94 H109 0.931 . S
Eu95 N86 2.600 . S
Eu95 N96 2.562 1_544 S
Eu95 O130 2.335 . S
Eu95 O133 2.372 . S
Eu95 O134 2.462 1_554 S
Eu95 O135 2.373 1_545 S
Eu95 O137 2.432 . S
Eu95 O138 2.291 1_544 S
Eu95 C159 2.787 . S
N96 C92 1.351 1_556 S
N96 Eu95 2.562 1_566 S
N96 C98 1.325 . S
C97 C91 1.404 . S
C97 C99 1.366 . S
C97 H105 0.930 . S
C98 N96 1.325 . S
C98 C99 1.416 . S
C98 H104 0.929 . S
C99 C97 1.366 . S
C99 C98 1.416 . S
C99 H101 0.930 . S
H100 C89 0.930 . S
H101 C99 0.930 . S
H102 C117 0.930 . S
H103 C124 0.930 . S
H104 C98 0.929 . S
H105 C97 0.930 . S
H106 C120 0.929 . S
H107 C87 0.931 . S
H108 C93 0.931 . S
H109 C94 0.931 . S
H110 C115 0.931 . S
H111 C90 0.929 . S
H112 C123 0.930 . S
N113 Eu84 2.600 . S
N113 C114 1.365 1_565 S
N113 C117 1.319 . S
C114 N113 1.365 1_545 S
C114 C116 1.405 . S
C114 C122 1.448 . S
C115 H110 0.931 . S
C115 C117 1.397 . S
C115 C118 1.367 1_565 S
C116 C114 1.405 . S
C116 C118 1.403 . S
C116 C149 1.439 . S
C117 H102 0.930 . S
C117 N113 1.319 . S
C117 C115 1.397 . S
C118 C115 1.367 1_545 S
C118 C116 1.403 . S
C118 H125 0.929 . S
N119 Eu84 2.562 1_544 S
N119 C120 1.325 . S
N119 C122 1.351 1_554 S
C120 H106 0.929 . S
C120 N119 1.325 . S
C120 C124 1.416 . S
C121 C122 1.430 1_554 S
C121 C123 1.404 . S
C121 C150 1.387 1_554 S
C122 C114 1.448 . S
C122 N119 1.351 1_556 S
C122 C121 1.430 1_556 S
C123 H112 0.930 . S
C123 C121 1.404 . S
C123 C124 1.366 . S
C124 H103 0.930 . S
C124 C120 1.416 . S
C124 C123 1.366 . S
H125 C118 0.929 . S
H126 C149 0.931 . S
H127 C150 0.931 . S
O128 Eu84 2.462 1_554 S
O128 C148 1.252 1_554 S
O129 Eu84 2.373 1_545 S
O129 C140 1.249 1_556 S
O130 Eu95 2.335 . S
O130 C140 1.264 . S
O131 Eu84 2.432 . S
O131 C148 1.268 . S
O132 Eu84 2.291 1_544 S
O132 C147 1.255 . S
O133 Eu95 2.372 . S
O133 C147 1.257 . S
O134 Eu95 2.462 1_556 S
O134 C159 1.252 1_556 S
O135 Eu95 2.373 1_565 S
O135 C151 1.249 1_554 S
O136 Eu84 2.335 . S
O136 C151 1.264 . S
O137 Eu95 2.432 . S
O137 C159 1.268 . S
O138 Eu95 2.291 1_566 S
O138 C158 1.255 . S
O139 Eu84 2.372 . S
O139 C158 1.257 . S
C140 O129 1.249 1_554 S
C140 O130 1.264 . S
C141 C144 1.382 . S
C141 C146 1.390 1_556 S
C141 C148 1.506 . S
C142 C143 1.398 1_554 S
C142 C146 1.392 . S
C143 C142 1.398 1_556 S
C143 C145 1.372 . S
C143 H160 0.931 . S
C144 C141 1.382 . S
C144 C145 1.390 . S
C144 H161 0.931 . S
C145 C143 1.372 . S
C145 C144 1.390 . S
C145 H162 0.929 . S
C146 C141 1.390 1_554 S
C146 C142 1.392 . S
C146 H163 0.930 . S
C147 O132 1.255 . S
C147 O133 1.257 . S
C148 Eu84 2.787 . S
C148 O128 1.252 1_556 S
C148 O131 1.268 . S
C148 C141 1.506 . S
C149 C116 1.439 . S
C149 H126 0.931 . S
C149 C150 1.374 . S
C150 C121 1.387 1_556 S
C150 H127 0.931 . S
C150 C149 1.374 . S
C151 O135 1.249 1_556 S
C151 O136 1.264 . S
C152 C155 1.382 . S
C152 C156 1.390 1_554 S
C152 C159 1.506 . S
C153 C154 1.398 1_556 S
C153 C156 1.392 . S
C154 C153 1.398 1_554 S
C154 C157 1.372 . S
C154 H164 0.931 . S
C155 C152 1.382 . S
C155 C157 1.390 . S
C155 H165 0.931 . S
C156 C152 1.390 1_556 S
C156 C153 1.392 . S
C156 H166 0.930 . S
C157 C154 1.372 . S
C157 C155 1.390 . S
C157 H167 0.929 . S
C158 O138 1.255 . S
C158 O139 1.257 . S
C159 Eu95 2.787 . S
C159 O134 1.252 1_554 S
C159 O137 1.268 . S
C159 C152 1.506 . S
H160 C143 0.931 . S
H161 C144 0.931 . S
H162 C145 0.929 . S
H163 C146 0.930 . S
H164 C154 0.931 . S
H165 C155 0.931 . S
H166 C156 0.930 . S
H167 C157 0.929 . S
Eu168 N197 2.600 . S
Eu168 N203 2.562 . S
Eu168 O212 2.462 1_556 S
Eu168 O213 2.373 . S
Eu168 O215 2.432 . S
Eu168 O216 2.291 1_556 S
Eu168 O220 2.335 . S
Eu168 O223 2.372 . S
Eu168 C232 2.787 . S
C169 N170 1.365 . S
C169 C172 1.405 . S
C169 C176 1.448 . S
N170 C169 1.365 . S
N170 C173 1.319 . S
N170 Eu179 2.600 . S
C171 C173 1.397 . S
C171 C174 1.367 . S
C171 H191 0.931 . S
C172 C169 1.405 . S
C172 C174 1.403 . S
C172 C178 1.439 . S
C173 N170 1.319 . S
C173 C171 1.397 . S
C173 H184 0.930 . S
C174 C171 1.367 . S
C174 C172 1.403 . S
C174 H195 0.929 . S
C175 C176 1.430 . S
C175 C177 1.387 . S
C175 C181 1.404 . S
C176 C169 1.448 . S
C176 C175 1.430 . S
C176 N180 1.351 . S
C177 C175 1.387 . S
C177 C178 1.374 . S
C177 H192 0.931 . S
C178 C172 1.439 . S
C178 C177 1.374 . S
C178 H193 0.931 . S
Eu179 N170 2.600 . S
Eu179 N180 2.562 . S
Eu179 O214 2.335 . S
Eu179 O217 2.372 . S
Eu179 O218 2.462 1_554 S
Eu179 O219 2.373 . S
Eu179 O221 2.432 . S
Eu179 O222 2.291 1_554 S
Eu179 C243 2.787 . S
N180 C176 1.351 . S
N180 Eu179 2.562 . S
N180 C182 1.325 1_554 S
C181 C175 1.404 . S
C181 C183 1.366 1_554 S
C181 H189 0.930 1_554 S
C182 N180 1.325 1_556 S
C182 C183 1.416 . S
C182 H188 0.929 . S
C183 C181 1.366 1_556 S
C183 C182 1.416 . S
C183 H185 0.930 . S
H184 C173 0.930 . S
H185 C183 0.930 . S
H186 C201 0.930 . S
H187 C208 0.930 . S
H188 C182 0.929 . S
H189 C181 0.930 1_556 S
H190 C204 0.929 . S
H191 C171 0.931 . S
H192 C177 0.931 . S
H193 C178 0.931 . S
H194 C199 0.931 . S
H195 C174 0.929 . S
H196 C207 0.930 1_554 S
N197 Eu168 2.600 . S
N197 C198 1.365 . S
N197 C201 1.319 . S
C198 N197 1.365 . S
C198 C200 1.405 . S
C198 C206 1.448 . S
C199 H194 0.931 . S
C199 C201 1.397 . S
C199 C202 1.367 . S
C200 C198 1.405 . S
C200 C202 1.403 . S
C200 C233 1.439 . S
C201 H186 0.930 . S
C201 N197 1.319 . S
C201 C199 1.397 . S
C202 C199 1.367 . S
C202 C200 1.403 . S
C202 H209 0.929 . S
N203 Eu168 2.562 . S
N203 C204 1.325 1_556 S
N203 C206 1.351 . S
C204 H190 0.929 . S
C204 N203 1.325 1_554 S
C204 C208 1.416 . S
C205 C206 1.430 . S
C205 C207 1.405 . S
C205 C234 1.387 . S
C206 C198 1.448 . S
C206 N203 1.351 . S
C206 C205 1.430 . S
C207 H196 0.930 1_556 S
C207 C205 1.405 . S
C207 C208 1.365 1_556 S
C208 H187 0.930 . S
C208 C204 1.416 . S
C208 C207 1.365 1_554 S
H209 C202 0.929 . S
H210 C233 0.931 . S
H211 C234 0.931 . S
O212 Eu168 2.462 1_554 S
O212 C232 1.252 1_554 S
O213 Eu168 2.373 . S
O213 C224 1.249 . S
O214 Eu179 2.335 . S
O214 C224 1.264 1_554 S
O215 Eu168 2.432 . S
O215 C232 1.268 . S
O216 Eu168 2.291 1_554 S
O216 C231 1.255 . S
O217 Eu179 2.372 . S
O217 C231 1.257 . S
O218 Eu179 2.462 1_556 S
O218 C243 1.252 1_556 S
O219 Eu179 2.373 . S
O219 C235 1.249 . S
O220 Eu168 2.335 . S
O220 C235 1.264 1_556 S
O221 Eu179 2.432 . S
O221 C243 1.268 . S
O222 Eu179 2.291 1_556 S
O222 C242 1.255 . S
O223 Eu168 2.372 . S
O223 C242 1.257 . S
C224 O213 1.249 . S
C224 O214 1.264 1_556 S
C225 C228 1.382 . S
C225 C230 1.390 1_556 S
C225 C232 1.506 . S
C226 C227 1.398 . S
C226 C230 1.392 1_556 S
C227 C226 1.398 . S
C227 C229 1.372 . S
C227 H244 0.931 . S
C228 C225 1.382 . S
C228 C229 1.390 . S
C228 H245 0.931 . S
C229 C227 1.372 . S
C229 C228 1.390 . S
C229 H246 0.929 . S
C230 C225 1.390 1_554 S
C230 C226 1.392 1_554 S
C230 H247 0.930 . S
C231 O216 1.255 . S
C231 O217 1.257 . S
C232 Eu168 2.787 . S
C232 O212 1.252 1_556 S
C232 O215 1.268 . S
C232 C225 1.506 . S
C233 C200 1.439 . S
C233 H210 0.931 . S
C233 C234 1.374 . S
C234 C205 1.387 . S
C234 H211 0.931 . S
C234 C233 1.374 . S
C235 O219 1.249 . S
C235 O220 1.264 1_554 S
C236 C239 1.382 . S
C236 C240 1.390 1_554 S
C236 C243 1.506 . S
C237 C238 1.398 . S
C237 C240 1.392 1_554 S
C238 C237 1.398 . S
C238 C241 1.372 . S
C238 H248 0.931 . S
C239 C236 1.382 . S
C239 C241 1.390 . S
C239 H249 0.931 . S
C240 C236 1.390 1_556 S
C240 C237 1.392 1_556 S
C240 H250 0.930 . S
C241 C238 1.372 . S
C241 C239 1.390 . S
C241 H251 0.929 . S
C242 O222 1.255 . S
C242 O223 1.257 . S
C243 Eu179 2.787 . S
C243 O218 1.252 1_554 S
C243 O221 1.268 . S
C243 C236 1.506 . S
H244 C227 0.931 . S
H245 C228 0.931 . S
H246 C229 0.929 . S
H247 C230 0.930 . S
H248 C238 0.931 . S
H249 C239 0.931 . S
H250 C240 0.930 . S
H251 C241 0.929 . S
C252 C253 1.363 1_455 S
C252 C258 1.379 . S
C252 N260 1.356 . S
C253 C252 1.363 1_655 S
C253 C259 1.363 . S
C254 C255 1.363 1_655 S
C254 C259 1.379 . S
C254 N261 1.356 . S
C255 C254 1.363 1_455 S
C255 C258 1.363 . S
N256 C258 1.356 . S
N256 H268 0.984 . S
N256 H269 0.985 . S
N257 C259 1.356 . S
N257 H262 0.984 . S
N257 H263 0.985 . S
C258 C252 1.379 . S
C258 C255 1.363 . S
C258 N256 1.356 . S
C259 C253 1.363 . S
C259 C254 1.379 . S
C259 N257 1.356 . S
N260 C252 1.356 . S
N260 H266 0.984 . S
N260 H267 0.984 . S
N261 C254 1.356 . S
N261 H264 0.984 . S
N261 H265 0.985 . S
H262 N257 0.984 . S
H263 N257 0.985 . S
H264 N261 0.984 . S
H265 N261 0.985 . S
H266 N260 0.984 . S
H267 N260 0.984 . S
H268 N256 0.984 . S
H269 N256 0.985 . S
C270 C271 1.363 . S
C270 C276 1.379 . S
C270 N278 1.356 . S
C271 C270 1.363 . S
C271 C277 1.363 1_545 S
C272 C273 1.363 . S
C272 C277 1.379 . S
C272 N279 1.356 . S
C273 C272 1.363 . S
C273 C276 1.363 1_565 S
N274 C276 1.356 . S
N274 H286 0.984 . S
N274 H287 0.985 . S
N275 C277 1.356 . S
N275 H280 0.984 . S
N275 H281 0.985 . S
C276 C270 1.379 . S
C276 C273 1.363 1_545 S
C276 N274 1.356 . S
C277 C271 1.363 1_565 S
C277 C272 1.379 . S
C277 N275 1.356 . S
N278 C270 1.356 . S
N278 H284 0.984 . S
N278 H285 0.984 . S
N279 C272 1.356 . S
N279 H282 0.984 . S
N279 H283 0.985 . S
H280 N275 0.984 . S
H281 N275 0.985 . S
H282 N279 0.984 . S
H283 N279 0.985 . S
H284 N278 0.984 . S
H285 N278 0.984 . S
H286 N274 0.984 . S
H287 N274 0.985 . S
C288 C289 1.363 . S
C288 C294 1.379 . S
C288 N296 1.356 . S
C289 C288 1.363 . S
C289 C295 1.363 . S
C290 C291 1.363 . S
C290 C295 1.379 . S
C290 N297 1.356 . S
C291 C290 1.363 . S
C291 C294 1.363 . S
N292 C294 1.356 . S
N292 H304 0.984 . S
N292 H305 0.985 . S
N293 C295 1.356 . S
N293 H298 0.984 . S
N293 H299 0.985 . S
C294 C288 1.379 . S
C294 C291 1.363 . S
C294 N292 1.356 . S
C295 C289 1.363 . S
C295 C290 1.379 . S
C295 N293 1.356 . S
N296 C288 1.356 . S
N296 H302 0.984 . S
N296 H303 0.984 . S
N297 C290 1.356 . S
N297 H300 0.984 . S
N297 H301 0.985 . S
H298 N293 0.984 . S
H299 N293 0.985 . S
H300 N297 0.984 . S
H301 N297 0.985 . S
H302 N296 0.984 . S
H303 N296 0.984 . S
H304 N292 0.984 . S
H305 N292 0.985 . S
C306 C307 1.363 . S
C306 C312 1.379 . S
C306 N314 1.356 . S
C307 C306 1.363 . S
C307 C313 1.363 1_554 S
C308 C309 1.363 . S
C308 C313 1.379 . S
C308 N315 1.356 . S
C309 C308 1.363 . S
C309 C312 1.363 1_556 S
N310 C312 1.356 . S
N310 H322 0.984 . S
N310 H323 0.985 . S
N311 C313 1.356 . S
N311 H316 0.984 . S
N311 H317 0.985 . S
C312 C306 1.379 . S
C312 C309 1.363 1_554 S
C312 N310 1.356 . S
C313 C307 1.363 1_556 S
C313 C308 1.379 . S
C313 N311 1.356 . S
N314 C306 1.356 . S
N314 H320 0.984 . S
N314 H321 0.984 . S
N315 C308 1.356 . S
N315 H318 0.984 . S
N315 H319 0.985 . S
H316 N311 0.984 . S
H317 N311 0.985 . S
H318 N315 0.984 . S
H319 N315 0.985 . S
H320 N314 0.984 . S
H321 N314 0.984 . S
H322 N310 0.984 . S
H323 N310 0.985 . S
C324 C325 1.363 . S
C324 C330 1.379 . S
C324 N332 1.356 . S
C325 C324 1.363 . S
C325 C331 1.363 1_556 S
C326 C327 1.363 . S
C326 C331 1.379 . S
C326 N333 1.356 . S
C327 C326 1.363 . S
C327 C330 1.363 1_554 S
N328 C330 1.356 . S
N328 H340 0.984 . S
N328 H341 0.985 . S
N329 C331 1.356 . S
N329 H334 0.984 . S
N329 H335 0.985 . S
C330 C324 1.379 . S
C330 C327 1.363 1_556 S
C330 N328 1.356 . S
C331 C325 1.363 1_554 S
C331 C326 1.379 . S
C331 N329 1.356 . S
N332 C324 1.356 . S
N332 H338 0.984 . S
N332 H339 0.984 . S
N333 C326 1.356 . S
N333 H336 0.984 . S
N333 H337 0.985 . S
H334 N329 0.984 . S
H335 N329 0.985 . S
H336 N333 0.984 . S
H337 N333 0.985 . S
H338 N332 0.984 . S
H339 N332 0.984 . S
H340 N328 0.984 . S
H341 N328 0.985 . S
C342 C343 1.363 . S
C342 C348 1.379 . S
C342 N350 1.356 . S
C343 C342 1.363 . S
C343 C349 1.363 1_556 S
C344 C345 1.363 1_554 S
C344 C349 1.379 . S
C344 N351 1.356 . S
C345 C344 1.363 1_556 S
C345 C348 1.363 . S
N346 C348 1.356 . S
N346 H358 0.984 . S
N346 H359 0.985 . S
N347 C349 1.356 . S
N347 H352 0.984 . S
N347 H353 0.985 . S
C348 C342 1.379 . S
C348 C345 1.363 . S
C348 N346 1.356 . S
C349 C343 1.363 1_554 S
C349 C344 1.379 . S
C349 N347 1.356 . S
N350 C342 1.356 . S
N350 H356 0.984 . S
N350 H357 0.984 . S
N351 C344 1.356 . S
N351 H354 0.984 . S
N351 H355 0.985 . S
H352 N347 0.984 . S
H353 N347 0.985 . S
H354 N351 0.984 . S
H355 N351 0.985 . S
H356 N350 0.984 . S
H357 N350 0.984 . S
H358 N346 0.984 . S
H359 N346 0.985 . S
C360 C361 1.363 . S
C360 C366 1.379 . S
C360 N368 1.356 . S
C361 C360 1.363 . S
C361 C367 1.363 1_556 S
C362 C363 1.363 . S
C362 C367 1.379 . S
C362 N369 1.356 . S
C363 C362 1.363 . S
C363 C366 1.363 1_554 S
N364 C366 1.356 . S
N364 H376 0.984 . S
N364 H377 0.985 . S
N365 C367 1.356 . S
N365 H370 0.984 . S
N365 H371 0.985 . S
C366 C360 1.379 . S
C366 C363 1.363 1_556 S
C366 N364 1.356 . S
C367 C361 1.363 1_554 S
C367 C362 1.379 . S
C367 N365 1.356 . S
N368 C360 1.356 . S
N368 H374 0.984 . S
N368 H375 0.984 . S
N369 C362 1.356 . S
N369 H372 0.984 . S
N369 H373 0.985 . S
H370 N365 0.984 . S
H371 N365 0.985 . S
H372 N369 0.984 . S
H373 N369 0.985 . S
H374 N368 0.984 . S
H375 N368 0.984 . S
H376 N364 0.984 . S
H377 N364 0.985 . S
C378 C379 1.363 1_554 S
C378 C384 1.379 . S
C378 N386 1.356 . S
C379 C378 1.363 1_556 S
C379 C385 1.363 . S
C380 C381 1.363 1_556 S
C380 C385 1.379 . S
C380 N387 1.356 . S
C381 C380 1.363 1_554 S
C381 C384 1.363 . S
N382 C384 1.356 . S
N382 H394 0.984 . S
N382 H395 0.985 . S
N383 C385 1.356 . S
N383 H388 0.984 . S
N383 H389 0.985 . S
C384 C378 1.379 . S
C384 C381 1.363 . S
C384 N382 1.356 . S
C385 C379 1.363 . S
C385 C380 1.379 . S
C385 N383 1.356 . S
N386 C378 1.356 . S
N386 H392 0.984 . S
N386 H393 0.984 . S
N387 C380 1.356 . S
N387 H390 0.984 1_556 S
N387 H391 0.985 . S
H388 N383 0.984 . S
H389 N383 0.985 . S
H390 N387 0.984 1_554 S
H391 N387 0.985 . S
H392 N386 0.984 . S
H393 N386 0.984 . S
H394 N382 0.984 . S
H395 N382 0.985 . S
C396 C397 1.363 . S
C396 C402 1.379 . S
C396 N404 1.356 . S
C397 C396 1.363 . S
C397 C403 1.363 1_554 S
C398 C399 1.363 1_556 S
C398 C403 1.379 . S
C398 N405 1.356 . S
C399 C398 1.363 1_554 S
C399 C402 1.363 . S
N400 C402 1.356 . S
N400 H412 0.984 . S
N400 H413 0.985 . S
N401 C403 1.356 . S
N401 H406 0.984 . S
N401 H407 0.985 . S
C402 C396 1.379 . S
C402 C399 1.363 . S
C402 N400 1.356 . S
C403 C397 1.363 1_556 S
C403 C398 1.379 . S
C403 N401 1.356 . S
N404 C396 1.356 . S
N404 H410 0.984 . S
N404 H411 0.984 . S
N405 C398 1.356 . S
N405 H408 0.984 . S
N405 H409 0.985 . S
H406 N401 0.984 . S
H407 N401 0.985 . S
H408 N405 0.984 . S
H409 N405 0.985 . S
H410 N404 0.984 . S
H411 N404 0.984 . S
H412 N400 0.984 . S
H413 N400 0.985 . S
C253 C63 1.490 . S
C255 C74 1.490 . S
C271 C147 1.537 . S
C273 C158 1.537 . S
C289 C242 1.475 . S
C291 C231 1.475 . S
C307 C67 2.368 . S
C309 C224 2.386 . S
C325 C153 0.840 . S
C327 C69 0.843 1_554 S
C343 C151 1.787 . S
C345 C237 1.682 1_556 S
C361 C56 2.368 . S
C363 C235 2.386 . S
C379 C58 0.843 1_556 S
C381 C142 0.840 . S
C397 C226 1.682 1_554 S
C399 C140 1.787 . S
